# Generated by pormake.
# Topology unu, (4)-cn, num edge types: 1
# Building blocks:
#     Node 0, Type 0, BuildingBlock: ICAMEG_clean_sbu_1, # of connection points: 4
#     Node 1, Type 0, BuildingBlock: ICAMEG_clean_sbu_1, # of connection points: 4
#     Node 2, Type 0, BuildingBlock: ICAMEG_clean_sbu_1, # of connection points: 4
#     Node 3, Type 0, BuildingBlock: ICAMEG_clean_sbu_1, # of connection points: 4
#     Node 4, Type 0, BuildingBlock: ICAMEG_clean_sbu_1, # of connection points: 4
#     Node 5, Type 0, BuildingBlock: ICAMEG_clean_sbu_1, # of connection points: 4
#     Node 6, Type 0, BuildingBlock: ICAMEG_clean_sbu_1, # of connection points: 4
#     Node 7, Type 0, BuildingBlock: ICAMEG_clean_sbu_1, # of connection points: 4
#     Node 8, Type 0, BuildingBlock: ICAMEG_clean_sbu_1, # of connection points: 4
#     Node 9, Type 0, BuildingBlock: ICAMEG_clean_sbu_1, # of connection points: 4
#     Node 10, Type 0, BuildingBlock: ICAMEG_clean_sbu_1, # of connection points: 4
#     Node 11, Type 0, BuildingBlock: ICAMEG_clean_sbu_1, # of connection points: 4
#     Node 12, Type 0, BuildingBlock: ICAMEG_clean_sbu_1, # of connection points: 4
#     Node 13, Type 0, BuildingBlock: ICAMEG_clean_sbu_1, # of connection points: 4
#     Node 14, Type 0, BuildingBlock: ICAMEG_clean_sbu_1, # of connection points: 4
#     Node 15, Type 0, BuildingBlock: ICAMEG_clean_sbu_1, # of connection points: 4
#     Node 16, Type 0, BuildingBlock: ICAMEG_clean_sbu_1, # of connection points: 4
#     Node 17, Type 0, BuildingBlock: ICAMEG_clean_sbu_1, # of connection points: 4
#     Node 18, Type 0, BuildingBlock: ICAMEG_clean_sbu_1, # of connection points: 4
#     Node 19, Type 0, BuildingBlock: ICAMEG_clean_sbu_1, # of connection points: 4
#     Node 20, Type 0, BuildingBlock: ICAMEG_clean_sbu_1, # of connection points: 4
#     Node 21, Type 0, BuildingBlock: ICAMEG_clean_sbu_1, # of connection points: 4
#     Node 22, Type 0, BuildingBlock: ICAMEG_clean_sbu_1, # of connection points: 4
#     Node 23, Type 0, BuildingBlock: ICAMEG_clean_sbu_1, # of connection points: 4
#     Node 24, Type 0, BuildingBlock: ICAMEG_clean_sbu_1, # of connection points: 4
#     Node 25, Type 0, BuildingBlock: ICAMEG_clean_sbu_1, # of connection points: 4
#     Node 26, Type 0, BuildingBlock: ICAMEG_clean_sbu_1, # of connection points: 4
#     Node 27, Type 0, BuildingBlock: ICAMEG_clean_sbu_1, # of connection points: 4
#     Node 28, Type 0, BuildingBlock: ICAMEG_clean_sbu_1, # of connection points: 4
#     Node 29, Type 0, BuildingBlock: ICAMEG_clean_sbu_1, # of connection points: 4
#     Node 30, Type 0, BuildingBlock: ICAMEG_clean_sbu_1, # of connection points: 4
#     Node 31, Type 0, BuildingBlock: ICAMEG_clean_sbu_1, # of connection points: 4
#     Node 32, Type 0, BuildingBlock: ICAMEG_clean_sbu_1, # of connection points: 4
#     Node 33, Type 0, BuildingBlock: ICAMEG_clean_sbu_1, # of connection points: 4
#     Node 34, Type 0, BuildingBlock: ICAMEG_clean_sbu_1, # of connection points: 4
#     Node 35, Type 0, BuildingBlock: ICAMEG_clean_sbu_1, # of connection points: 4
#     Edge 36, Type (0, 0), BuildingBlock: OJICUG_clean_linker_0, # of connection points: 2
#     Edge 37, Type (0, 0), BuildingBlock: OJICUG_clean_linker_0, # of connection points: 2
#     Edge 38, Type (0, 0), BuildingBlock: OJICUG_clean_linker_0, # of connection points: 2
#     Edge 39, Type (0, 0), BuildingBlock: OJICUG_clean_linker_0, # of connection points: 2
#     Edge 40, Type (0, 0), BuildingBlock: OJICUG_clean_linker_0, # of connection points: 2
#     Edge 41, Type (0, 0), BuildingBlock: OJICUG_clean_linker_0, # of connection points: 2
#     Edge 42, Type (0, 0), BuildingBlock: OJICUG_clean_linker_0, # of connection points: 2
#     Edge 43, Type (0, 0), BuildingBlock: OJICUG_clean_linker_0, # of connection points: 2
#     Edge 44, Type (0, 0), BuildingBlock: OJICUG_clean_linker_0, # of connection points: 2
#     Edge 45, Type (0, 0), BuildingBlock: OJICUG_clean_linker_0, # of connection points: 2
#     Edge 46, Type (0, 0), BuildingBlock: OJICUG_clean_linker_0, # of connection points: 2
#     Edge 47, Type (0, 0), BuildingBlock: OJICUG_clean_linker_0, # of connection points: 2
#     Edge 48, Type (0, 0), BuildingBlock: OJICUG_clean_linker_0, # of connection points: 2
#     Edge 49, Type (0, 0), BuildingBlock: OJICUG_clean_linker_0, # of connection points: 2
#     Edge 50, Type (0, 0), BuildingBlock: OJICUG_clean_linker_0, # of connection points: 2
#     Edge 51, Type (0, 0), BuildingBlock: OJICUG_clean_linker_0, # of connection points: 2
#     Edge 52, Type (0, 0), BuildingBlock: OJICUG_clean_linker_0, # of connection points: 2
#     Edge 53, Type (0, 0), BuildingBlock: OJICUG_clean_linker_0, # of connection points: 2
#     Edge 54, Type (0, 0), BuildingBlock: OJICUG_clean_linker_0, # of connection points: 2
#     Edge 55, Type (0, 0), BuildingBlock: OJICUG_clean_linker_0, # of connection points: 2
#     Edge 56, Type (0, 0), BuildingBlock: OJICUG_clean_linker_0, # of connection points: 2
#     Edge 57, Type (0, 0), BuildingBlock: OJICUG_clean_linker_0, # of connection points: 2
#     Edge 58, Type (0, 0), BuildingBlock: OJICUG_clean_linker_0, # of connection points: 2
#     Edge 59, Type (0, 0), BuildingBlock: OJICUG_clean_linker_0, # of connection points: 2
#     Edge 60, Type (0, 0), BuildingBlock: OJICUG_clean_linker_0, # of connection points: 2
#     Edge 61, Type (0, 0), BuildingBlock: OJICUG_clean_linker_0, # of connection points: 2
#     Edge 62, Type (0, 0), BuildingBlock: OJICUG_clean_linker_0, # of connection points: 2
#     Edge 63, Type (0, 0), BuildingBlock: OJICUG_clean_linker_0, # of connection points: 2
#     Edge 64, Type (0, 0), BuildingBlock: OJICUG_clean_linker_0, # of connection points: 2
#     Edge 65, Type (0, 0), BuildingBlock: OJICUG_clean_linker_0, # of connection points: 2
#     Edge 66, Type (0, 0), BuildingBlock: OJICUG_clean_linker_0, # of connection points: 2
#     Edge 67, Type (0, 0), BuildingBlock: OJICUG_clean_linker_0, # of connection points: 2
#     Edge 68, Type (0, 0), BuildingBlock: OJICUG_clean_linker_0, # of connection points: 2
#     Edge 69, Type (0, 0), BuildingBlock: OJICUG_clean_linker_0, # of connection points: 2
#     Edge 70, Type (0, 0), BuildingBlock: OJICUG_clean_linker_0, # of connection points: 2
#     Edge 71, Type (0, 0), BuildingBlock: OJICUG_clean_linker_0, # of connection points: 2
#     Edge 72, Type (0, 0), BuildingBlock: OJICUG_clean_linker_0, # of connection points: 2
#     Edge 73, Type (0, 0), BuildingBlock: OJICUG_clean_linker_0, # of connection points: 2
#     Edge 74, Type (0, 0), BuildingBlock: OJICUG_clean_linker_0, # of connection points: 2
#     Edge 75, Type (0, 0), BuildingBlock: OJICUG_clean_linker_0, # of connection points: 2
#     Edge 76, Type (0, 0), BuildingBlock: OJICUG_clean_linker_0, # of connection points: 2
#     Edge 77, Type (0, 0), BuildingBlock: OJICUG_clean_linker_0, # of connection points: 2
#     Edge 78, Type (0, 0), BuildingBlock: OJICUG_clean_linker_0, # of connection points: 2
#     Edge 79, Type (0, 0), BuildingBlock: OJICUG_clean_linker_0, # of connection points: 2
#     Edge 80, Type (0, 0), BuildingBlock: OJICUG_clean_linker_0, # of connection points: 2
#     Edge 81, Type (0, 0), BuildingBlock: OJICUG_clean_linker_0, # of connection points: 2
#     Edge 82, Type (0, 0), BuildingBlock: OJICUG_clean_linker_0, # of connection points: 2
#     Edge 83, Type (0, 0), BuildingBlock: OJICUG_clean_linker_0, # of connection points: 2
#     Edge 84, Type (0, 0), BuildingBlock: OJICUG_clean_linker_0, # of connection points: 2
#     Edge 85, Type (0, 0), BuildingBlock: OJICUG_clean_linker_0, # of connection points: 2
#     Edge 86, Type (0, 0), BuildingBlock: OJICUG_clean_linker_0, # of connection points: 2
#     Edge 87, Type (0, 0), BuildingBlock: OJICUG_clean_linker_0, # of connection points: 2
#     Edge 88, Type (0, 0), BuildingBlock: OJICUG_clean_linker_0, # of connection points: 2
#     Edge 89, Type (0, 0), BuildingBlock: OJICUG_clean_linker_0, # of connection points: 2
#     Edge 90, Type (0, 0), BuildingBlock: OJICUG_clean_linker_0, # of connection points: 2
#     Edge 91, Type (0, 0), BuildingBlock: OJICUG_clean_linker_0, # of connection points: 2
#     Edge 92, Type (0, 0), BuildingBlock: OJICUG_clean_linker_0, # of connection points: 2
#     Edge 93, Type (0, 0), BuildingBlock: OJICUG_clean_linker_0, # of connection points: 2
#     Edge 94, Type (0, 0), BuildingBlock: OJICUG_clean_linker_0, # of connection points: 2
#     Edge 95, Type (0, 0), BuildingBlock: OJICUG_clean_linker_0, # of connection points: 2
#     Edge 96, Type (0, 0), BuildingBlock: OJICUG_clean_linker_0, # of connection points: 2
#     Edge 97, Type (0, 0), BuildingBlock: OJICUG_clean_linker_0, # of connection points: 2
#     Edge 98, Type (0, 0), BuildingBlock: OJICUG_clean_linker_0, # of connection points: 2
#     Edge 99, Type (0, 0), BuildingBlock: OJICUG_clean_linker_0, # of connection points: 2
#     Edge 100, Type (0, 0), BuildingBlock: OJICUG_clean_linker_0, # of connection points: 2
#     Edge 101, Type (0, 0), BuildingBlock: OJICUG_clean_linker_0, # of connection points: 2
#     Edge 102, Type (0, 0), BuildingBlock: OJICUG_clean_linker_0, # of connection points: 2
#     Edge 103, Type (0, 0), BuildingBlock: OJICUG_clean_linker_0, # of connection points: 2
#     Edge 104, Type (0, 0), BuildingBlock: OJICUG_clean_linker_0, # of connection points: 2
#     Edge 105, Type (0, 0), BuildingBlock: OJICUG_clean_linker_0, # of connection points: 2
#     Edge 106, Type (0, 0), BuildingBlock: OJICUG_clean_linker_0, # of connection points: 2
#     Edge 107, Type (0, 0), BuildingBlock: OJICUG_clean_linker_0, # of connection points: 2
# Relax obj value: 0.067
# Max RMSD: 0.137
# Mean RMSD: 0.137
data_MOF--net-unu--node1-ICAMEG_clean_sbu_1--edge1-OJICUG_clean_linker_0
_symmetry_space_group_name_H-M    P1
_symmetry_Int_Tables_number       1
_symmetry_cell_setting            triclinic
loop_
_symmetry_equiv_pos_as_xyz
'x, y, z'
_cell_length_a     35.373081
_cell_length_b     35.342662
_cell_length_c     84.850989
_cell_angle_alpha  89.967872
_cell_angle_beta   90.001448
_cell_angle_gamma 120.02584
loop_
_atom_site_label
_atom_site_type_symbol
_atom_site_fract_x
_atom_site_fract_y
_atom_site_fract_z
_atom_type_partial_charge
Co0 Co 0.17961 0.01741 0.1448 0.0
Co1 Co 0.18019 0.01975 0.10398 0.0
O2 O 0.20766 0.02241 0.12437 0.0
C3 C 0.26098 0.10238 0.14805 0.0
O4 O 0.25282 0.11309 0.13416 0.0
C5 C 0.20362 0.95055 0.10158 0.0
O6 O 0.18938 0.93909 0.11606 0.0
O7 O 0.12504 0.96616 0.11033 0.0
O8 O 0.12284 0.97036 0.13667 0.0
H9 H 0.05931 0.00399 0.06853 0.0
H10 H 0.26101 0.0131 0.14341 0.0
O11 O 0.23574 0.06464 0.15374 0.0
H12 H 0.15041 0.87224 0.16618 0.0
H13 H 0.17133 0.01235 0.20409 0.0
H14 H 0.09494 0.00774 0.15489 0.0
H15 H 0.13132 0.92832 0.1591 0.0
H16 H 0.20568 0.01754 0.17828 0.0
O17 O 0.20278 0.98251 0.09505 0.0
H18 H 0.09449 0.00774 0.09403 0.0
H19 H 0.20828 0.02573 0.07045 0.0
H20 H 0.05926 0.00211 0.18044 0.0
H21 H 0.28162 0.95805 0.15042 0.0
H22 H 0.09752 0.00441 0.20528 0.0
H23 H 0.22606 0.88698 0.16185 0.0
O24 O 0.16315 0.0617 0.13853 0.0
H25 H 0.34277 0.1137 0.09809 0.0
H26 H 0.20071 0.10486 0.08942 0.0
H27 H 0.2685 0.17214 0.0821 0.0
H28 H 0.34019 0.17683 0.08641 0.0
H29 H 0.27415 0.04715 0.10535 0.0
H30 H 0.17419 0.02183 0.04469 0.0
H31 H 0.09924 0.01105 0.04362 0.0
O32 O 0.15686 0.05669 0.11217 0.0
C33 C 0.10567 0.95267 0.12356 0.0
C34 C 0.09204 0.00883 0.06884 0.0
C35 C 0.15649 0.01878 0.05546 0.0
N36 N 0.15351 0.01726 0.08374 0.0
C37 C 0.11218 0.0111 0.08325 0.0
C38 C 0.17559 0.02087 0.07008 0.0
C39 C 0.11444 0.01275 0.05487 0.0
C40 C 0.23679 0.9824 0.14852 0.0
N41 N 0.19509 0.974 0.1509 0.0
C42 C 0.24859 0.9513 0.15241 0.0
C43 C 0.21738 0.9114 0.1588 0.0
C44 C 0.17492 0.9031 0.16121 0.0
C45 C 0.16427 0.93494 0.15715 0.0
C46 C 0.1543 0.01123 0.19335 0.0
C47 C 0.11171 0.00852 0.16564 0.0
C48 C 0.17363 0.01424 0.1787 0.0
N49 N 0.15222 0.01264 0.16509 0.0
C50 C 0.09138 0.00542 0.18008 0.0
C51 C 0.11288 0.00676 0.19401 0.0
C52 C 0.15307 0.07172 0.12534 0.0
C53 C 0.31173 0.11201 0.09612 0.0
C54 C 0.23177 0.10669 0.09137 0.0
C55 C 0.27005 0.14484 0.08717 0.0
C56 C 0.31026 0.14744 0.08958 0.0
N57 N 0.23348 0.07204 0.09773 0.0
C58 C 0.27278 0.07436 0.10015 0.0
Co59 Co 0.98023 0.15826 0.14658 0.0
Co60 Co 0.98008 0.16266 0.10586 0.0
O61 O 0.97715 0.18463 0.12672 0.0
C62 C 0.8965 0.15692 0.14931 0.0
O63 O 0.88753 0.14061 0.135 0.0
C64 C 0.0533 0.25372 0.10493 0.0
O65 O 0.06695 0.24557 0.1182 0.0
O66 O 0.03236 0.15825 0.1119 0.0
O67 O 0.02722 0.14887 0.13816 0.0
H68 H 0.99449 0.06193 0.06767 0.0
H69 H 0.98647 0.24502 0.14666 0.0
O70 O 0.9329 0.16685 0.15564 0.0
H71 H 0.12442 0.26921 0.17008 0.0
H72 H 0.98074 0.14603 0.20572 0.0
H73 H 0.98813 0.08117 0.15519 0.0
H74 H 0.06791 0.19548 0.16168 0.0
H75 H 0.97778 0.17925 0.1805 0.0
O76 O 0.01867 0.22411 0.09839 0.0
H77 H 0.99047 0.08944 0.09396 0.0
H78 H 0.97684 0.1912 0.07304 0.0
H79 H 0.99153 0.04708 0.18011 0.0
H80 H 0.04198 0.31927 0.155 0.0
H81 H 0.98783 0.07956 0.20562 0.0
H82 H 0.11159 0.33173 0.16677 0.0
O83 O 0.93581 0.09876 0.13918 0.0
H84 H 0.88939 0.23538 0.10211 0.0
H85 H 0.89524 0.10175 0.09038 0.0
H86 H 0.82917 0.10503 0.08353 0.0
H87 H 0.82599 0.17224 0.08939 0.0
H88 H 0.95468 0.23058 0.10888 0.0
H89 H 0.98102 0.16496 0.04652 0.0
H90 H 0.98973 0.09977 0.04372 0.0
O91 O 0.94173 0.10105 0.11279 0.0
C92 C 0.0451 0.15048 0.12497 0.0
C93 C 0.99056 0.09029 0.06874 0.0
C94 C 0.98306 0.14815 0.05687 0.0
N95 N 0.98309 0.14168 0.08503 0.0
C96 C 0.98815 0.10596 0.08359 0.0
C97 C 0.9808 0.16291 0.07192 0.0
C98 C 0.98793 0.11156 0.0553 0.0
C99 C 0.01653 0.25015 0.1519 0.0
N100 N 0.02384 0.21594 0.15376 0.0
C101 C 0.0479 0.29228 0.15654 0.0
C102 C 0.08697 0.29925 0.16313 0.0
C103 C 0.09421 0.26419 0.16498 0.0
C104 C 0.06212 0.22253 0.16018 0.0
C105 C 0.98246 0.13162 0.19468 0.0
C106 C 0.98675 0.09564 0.16624 0.0
C107 C 0.98071 0.15024 0.18037 0.0
N108 N 0.9831 0.13236 0.16639 0.0
C109 C 0.98857 0.07612 0.18031 0.0
C110 C 0.98645 0.09434 0.19462 0.0
C111 C 0.92613 0.08047 0.12566 0.0
C112 C 0.89043 0.20596 0.09946 0.0
C113 C 0.89407 0.13108 0.09299 0.0
C114 C 0.8566 0.13278 0.08906 0.0
C115 C 0.85485 0.1705 0.09234 0.0
N116 N 0.92887 0.16603 0.09995 0.0
C117 C 0.92738 0.20312 0.10321 0.0
Co118 Co 0.83886 0.81977 0.14474 0.0
Co119 Co 0.83958 0.81845 0.10391 0.0
O120 O 0.81508 0.79138 0.12441 0.0
C121 C 0.84119 0.73762 0.14836 0.0
O122 O 0.86004 0.7452 0.13448 0.0
C123 C 0.74687 0.79492 0.10162 0.0
O124 O 0.74959 0.80906 0.11611 0.0
O125 O 0.84162 0.87397 0.11013 0.0
O126 O 0.84908 0.87664 0.13643 0.0
H127 H 0.94476 0.93837 0.06808 0.0
H128 H 0.75256 0.73888 0.14368 0.0
O129 O 0.82931 0.76349 0.15389 0.0
H130 H 0.72466 0.85107 0.16633 0.0
H131 H 0.84358 0.82968 0.20401 0.0
H132 H 0.91467 0.9044 0.15446 0.0
H133 H 0.79938 0.86919 0.15906 0.0
H134 H 0.81359 0.79468 0.17835 0.0
O135 O 0.77969 0.79591 0.09509 0.0
H136 H 0.91351 0.90382 0.09369 0.0
H137 H 0.81676 0.78975 0.07047 0.0
H138 H 0.94552 0.94072 0.17984 0.0
H139 H 0.67733 0.71922 0.1509 0.0
H140 H 0.90991 0.9033 0.20486 0.0
H141 H 0.663 0.77559 0.16227 0.0
O142 O 0.89928 0.83538 0.13832 0.0
H143 H 0.77005 0.65555 0.09854 0.0
H144 H 0.90352 0.79724 0.0893 0.0
H145 H 0.90243 0.72907 0.08216 0.0
H146 H 0.8353 0.65757 0.08676 0.0
H147 H 0.77268 0.72454 0.10562 0.0
H148 H 0.84674 0.82323 0.0446 0.0
H149 H 0.91131 0.898 0.0433 0.0
O150 O 0.8999 0.84167 0.11197 0.0
C151 C 0.84816 0.89365 0.12332 0.0
C152 C 0.91669 0.90573 0.06849 0.0
C153 C 0.86164 0.84112 0.05532 0.0
N154 N 0.86353 0.8447 0.08358 0.0
C155 C 0.89891 0.88594 0.08296 0.0
C156 C 0.84474 0.82238 0.07 0.0
C157 C 0.89788 0.88307 0.0546 0.0
C158 C 0.74661 0.76346 0.14876 0.0
N159 N 0.78032 0.80508 0.15099 0.0
C160 C 0.70394 0.75219 0.15276 0.0
C161 C 0.69591 0.78385 0.15912 0.0
C162 C 0.73048 0.82622 0.16139 0.0
C163 C 0.77272 0.83633 0.15721 0.0
C164 C 0.85935 0.84633 0.19319 0.0
C165 C 0.89884 0.88799 0.16529 0.0
C166 C 0.84257 0.82663 0.17863 0.0
N167 N 0.86219 0.84758 0.16491 0.0
C168 C 0.91653 0.90868 0.17963 0.0
C169 C 0.89656 0.88765 0.19366 0.0
C170 C 0.91901 0.84528 0.12506 0.0
C171 C 0.79945 0.68651 0.09645 0.0
C172 C 0.87423 0.76626 0.09137 0.0
C173 C 0.87378 0.72776 0.08728 0.0
C174 C 0.83609 0.68766 0.08985 0.0
N175 N 0.83811 0.76486 0.0978 0.0
C176 C 0.80108 0.72567 0.10038 0.0
Co177 Co 0.01871 0.1793 0.35746 0.0
Co178 Co 0.02106 0.18046 0.39829 0.0
O179 O 0.02355 0.20762 0.37782 0.0
C180 C 0.1033 0.2613 0.35386 0.0
O181 O 0.11455 0.25362 0.36773 0.0
C182 C 0.95186 0.2039 0.40063 0.0
O183 O 0.9404 0.18968 0.38616 0.0
O184 O 0.96756 0.12495 0.39208 0.0
O185 O 0.97196 0.12249 0.36575 0.0
H186 H 0.00655 0.06045 0.43403 0.0
H187 H 0.01368 0.2604 0.35866 0.0
O188 O 0.06554 0.23554 0.34833 0.0
H189 H 0.87326 0.14871 0.33606 0.0
H190 H 0.01312 0.16969 0.29819 0.0
H191 H 0.00948 0.09458 0.34764 0.0
H192 H 0.9297 0.13026 0.34319 0.0
H193 H 0.01844 0.20462 0.32389 0.0
O194 O 0.98374 0.20298 0.40717 0.0
H195 H 0.0097 0.09506 0.40845 0.0
H196 H 0.02706 0.20905 0.43174 0.0
H197 H 0.00367 0.05831 0.32221 0.0
H198 H 0.95827 0.28039 0.35156 0.0
H199 H 0.00548 0.09593 0.29725 0.0
H200 H 0.88741 0.22427 0.34022 0.0
O201 O 0.06338 0.16342 0.3638 0.0
H202 H 0.11443 0.34334 0.40374 0.0
H203 H 0.10629 0.20161 0.41282 0.0
H204 H 0.1734 0.26975 0.41995 0.0
H205 H 0.17774 0.34127 0.41544 0.0
H206 H 0.04805 0.27439 0.39667 0.0
H207 H 0.02371 0.1755 0.45759 0.0
H208 H 0.01357 0.10075 0.45884 0.0
O209 O 0.05812 0.15726 0.39016 0.0
C210 C 0.9542 0.1054 0.37887 0.0
C211 C 0.0111 0.09309 0.43364 0.0
C212 C 0.02067 0.15764 0.44686 0.0
N213 N 0.01885 0.15414 0.41859 0.0
C214 C 0.01302 0.11291 0.41919 0.0
C215 C 0.02244 0.17643 0.43219 0.0
C216 C 0.015 0.1157 0.44755 0.0
C217 C 0.98308 0.23593 0.35359 0.0
N218 N 0.97499 0.19427 0.35129 0.0
C219 C 0.95177 0.24739 0.34965 0.0
C220 C 0.91199 0.21587 0.34331 0.0
C221 C 0.90401 0.17345 0.34099 0.0
C222 C 0.93605 0.16316 0.34509 0.0
C223 C 0.01222 0.15294 0.30899 0.0
C224 C 0.01006 0.11107 0.33683 0.0
C225 C 0.01533 0.17261 0.32357 0.0
N226 N 0.014 0.15155 0.33726 0.0
C227 C 0.00686 0.09041 0.32247 0.0
C228 C 0.00792 0.11155 0.30846 0.0
C229 C 0.07339 0.15355 0.37703 0.0
C230 C 0.11289 0.31237 0.4058 0.0
C231 C 0.10796 0.2326 0.41078 0.0
C232 C 0.14602 0.27108 0.41488 0.0
C233 C 0.14842 0.31119 0.41235 0.0
N234 N 0.07321 0.23403 0.4044 0.0
C235 C 0.07534 0.27323 0.40187 0.0
Co236 Co 0.82148 0.8411 0.35532 0.0
Co237 Co 0.8172 0.83629 0.39604 0.0
O238 O 0.79212 0.81453 0.37517 0.0
C239 C 0.73897 0.84235 0.35258 0.0
O240 O 0.74619 0.85872 0.36688 0.0
C241 C 0.79911 0.74513 0.39685 0.0
O242 O 0.82085 0.7533 0.38356 0.0
O243 O 0.87376 0.84054 0.3899 0.0
O244 O 0.87794 0.85057 0.36368 0.0
H245 H 0.93279 0.93647 0.43419 0.0
H246 H 0.74111 0.75423 0.3552 0.0
O247 O 0.7655 0.83241 0.3463 0.0
H248 H 0.85502 0.73063 0.33157 0.0
H249 H 0.83407 0.85392 0.29619 0.0
H250 H 0.90631 0.91846 0.34676 0.0
H251 H 0.87207 0.80422 0.34007 0.0
H252 H 0.79801 0.82035 0.32139 0.0
O253 O 0.79422 0.77476 0.40343 0.0
H254 H 0.901 0.90925 0.40792 0.0
H255 H 0.78563 0.80754 0.42886 0.0
H256 H 0.94365 0.95289 0.32185 0.0
H257 H 0.72254 0.68011 0.34675 0.0
H258 H 0.90749 0.92058 0.29633 0.0
H259 H 0.77977 0.66794 0.33487 0.0
O260 O 0.83639 0.90047 0.36281 0.0
H261 H 0.65386 0.76397 0.39998 0.0
H262 H 0.79364 0.89724 0.4117 0.0
H263 H 0.72446 0.89412 0.4187 0.0
H264 H 0.65392 0.82709 0.41286 0.0
H265 H 0.72379 0.76861 0.39305 0.0
H266 H 0.81632 0.83348 0.45538 0.0
H267 H 0.89034 0.89849 0.45816 0.0
O268 O 0.84056 0.89796 0.38919 0.0
C269 C 0.89425 0.84863 0.37681 0.0
C270 C 0.90045 0.90818 0.43314 0.0
C271 C 0.8351 0.85034 0.44502 0.0
N272 N 0.84137 0.85705 0.41686 0.0
C273 C 0.88222 0.89268 0.41829 0.0
C274 C 0.81793 0.83575 0.42998 0.0
C275 C 0.87663 0.88684 0.44658 0.0
C276 C 0.76608 0.74923 0.34992 0.0
N277 N 0.80755 0.78353 0.34806 0.0
C278 C 0.75542 0.70718 0.34521 0.0
C279 C 0.78756 0.70037 0.33857 0.0
C280 C 0.8298 0.73552 0.33671 0.0
C281 C 0.83928 0.77711 0.34158 0.0
C282 C 0.85019 0.86825 0.30724 0.0
C283 C 0.89045 0.90405 0.3357 0.0
C284 C 0.82989 0.84944 0.32154 0.0
N285 N 0.85016 0.86724 0.33553 0.0
C286 C 0.91172 0.92377 0.32163 0.0
C287 C 0.89139 0.90565 0.30732 0.0
C288 C 0.84527 0.91865 0.37636 0.0
C289 C 0.68438 0.79331 0.40262 0.0
C290 C 0.76308 0.86799 0.40908 0.0
C291 C 0.72401 0.86639 0.41311 0.0
C292 C 0.68444 0.82876 0.40983 0.0
N293 N 0.76275 0.83305 0.40205 0.0
C294 C 0.72409 0.79606 0.39879 0.0
Co295 Co 0.16168 0.98152 0.35674 0.0
Co296 Co 0.16017 0.97877 0.39756 0.0
O297 O 0.18487 0.97634 0.37712 0.0
C298 C 0.15817 0.89662 0.35333 0.0
O299 O 0.13942 0.88585 0.36724 0.0
C300 C 0.25282 0.04798 0.39997 0.0
O301 O 0.25003 0.05957 0.38551 0.0
O302 O 0.15855 0.03241 0.39133 0.0
O303 O 0.15199 0.02849 0.36499 0.0
H304 H 0.05522 0.99411 0.43323 0.0
H305 H 0.24742 0.98584 0.35797 0.0
O306 O 0.17056 0.93437 0.34768 0.0
H307 H 0.27748 0.12691 0.33546 0.0
H308 H 0.15812 0.98718 0.29746 0.0
H309 H 0.08663 0.9913 0.34681 0.0
H310 H 0.20237 0.07075 0.34256 0.0
H311 H 0.18742 0.9817 0.32321 0.0
O312 O 0.22003 0.01593 0.40647 0.0
H313 H 0.08651 0.99066 0.40767 0.0
H314 H 0.18244 0.97241 0.43103 0.0
H315 H 0.05645 0.99722 0.32133 0.0
H316 H 0.32302 0.04097 0.35093 0.0
H317 H 0.09227 0.99517 0.29642 0.0
H318 H 0.33843 0.11215 0.33963 0.0
O319 O 0.10097 0.93716 0.36302 0.0
H320 H 0.22887 0.8848 0.40309 0.0
H321 H 0.09568 0.89349 0.41204 0.0
H322 H 0.09625 0.82613 0.41918 0.0
H323 H 0.16324 0.82152 0.41474 0.0
H324 H 0.22675 0.95143 0.396 0.0
H325 H 0.15238 0.97601 0.45686 0.0
H326 H 0.08821 0.98676 0.45807 0.0
O327 O 0.09986 0.94191 0.3894 0.0
C328 C 0.15258 0.04604 0.37814 0.0
C329 C 0.08311 0.98928 0.43286 0.0
C330 C 0.13767 0.97918 0.44612 0.0
N331 N 0.13607 0.98103 0.41785 0.0
C332 C 0.10091 0.98718 0.41842 0.0
C333 C 0.15461 0.97726 0.43146 0.0
C334 C 0.10166 0.9852 0.44679 0.0
C335 C 0.25384 0.01659 0.35292 0.0
N336 N 0.22052 0.025 0.35062 0.0
C337 C 0.29672 0.04774 0.34902 0.0
C338 C 0.30535 0.08769 0.3427 0.0
C339 C 0.27118 0.09601 0.34037 0.0
C340 C 0.22872 0.06412 0.34445 0.0
C341 C 0.14227 0.98819 0.30824 0.0
C342 C 0.10256 0.99063 0.33602 0.0
C343 C 0.15866 0.98502 0.32285 0.0
N344 N 0.13894 0.98649 0.3365 0.0
C345 C 0.08525 0.99389 0.32163 0.0
C346 C 0.10533 0.99269 0.30766 0.0
C347 C 0.08096 0.92703 0.37623 0.0
C348 C 0.19953 0.88646 0.40512 0.0
C349 C 0.12491 0.89169 0.41003 0.0
C350 C 0.12507 0.8535 0.41413 0.0
C351 C 0.16268 0.85094 0.41164 0.0
N352 N 0.16123 0.92643 0.40368 0.0
C353 C 0.19819 0.92415 0.40119 0.0
Co354 Co 0.81743 0.98148 0.85667 0.0
Co355 Co 0.81651 0.97773 0.89748 0.0
O356 O 0.78924 0.97575 0.87712 0.0
C357 C 0.73624 0.89653 0.85321 0.0
O358 O 0.74437 0.88563 0.86707 0.0
C359 C 0.79335 0.04703 0.90019 0.0
O360 O 0.80777 0.05883 0.88574 0.0
O361 O 0.87181 0.03142 0.8913 0.0
O362 O 0.87406 0.02842 0.86492 0.0
H363 H 0.9369 0.99182 0.93282 0.0
H364 H 0.7358 0.98535 0.85823 0.0
O365 O 0.76144 0.93438 0.8476 0.0
H366 H 0.84614 0.12715 0.83601 0.0
H367 H 0.82601 0.98853 0.79739 0.0
H368 H 0.9023 0.99185 0.84646 0.0
H369 H 0.86549 0.07105 0.84273 0.0
H370 H 0.79145 0.98229 0.82324 0.0
O371 O 0.79402 0.01485 0.9066 0.0
H372 H 0.90202 0.98911 0.90736 0.0
H373 H 0.78821 0.97082 0.93101 0.0
H374 H 0.93819 0.99855 0.82087 0.0
H375 H 0.71494 0.04042 0.85156 0.0
H376 H 0.89998 0.9969 0.7961 0.0
H377 H 0.77038 0.11197 0.84041 0.0
O378 O 0.83411 0.93716 0.86268 0.0
H379 H 0.65385 0.88398 0.90314 0.0
H380 H 0.79563 0.8921 0.91166 0.0
H381 H 0.72766 0.82469 0.91874 0.0
H382 H 0.65612 0.82036 0.9145 0.0
H383 H 0.72263 0.95065 0.89611 0.0
H384 H 0.82201 0.97368 0.95674 0.0
H385 H 0.89681 0.98407 0.95775 0.0
O386 O 0.83973 0.9409 0.88908 0.0
C387 C 0.89119 0.04552 0.8781 0.0
C388 C 0.90423 0.98715 0.93254 0.0
C389 C 0.83977 0.97702 0.94596 0.0
N390 N 0.84301 0.9795 0.91769 0.0
C391 C 0.88426 0.98547 0.91815 0.0
C392 C 0.82084 0.97553 0.93136 0.0
C393 C 0.88174 0.98284 0.94652 0.0
C394 C 0.75998 0.01626 0.85323 0.0
N395 N 0.80174 0.0249 0.85081 0.0
C396 C 0.74803 0.04737 0.84954 0.0
C397 C 0.77917 0.08753 0.84331 0.0
C398 C 0.82169 0.09609 0.84085 0.0
C399 C 0.83248 0.06423 0.84471 0.0
C400 C 0.84302 0.98937 0.8081 0.0
C401 C 0.88555 0.99135 0.83574 0.0
C402 C 0.82357 0.98576 0.82277 0.0
N403 N 0.84495 0.98701 0.83635 0.0
C404 C 0.906 0.99505 0.82128 0.0
C405 C 0.88453 0.99408 0.80738 0.0
C406 C 0.84385 0.92651 0.87582 0.0
C407 C 0.68483 0.88551 0.90508 0.0
C408 C 0.76463 0.89043 0.90975 0.0
C409 C 0.72625 0.8522 0.91381 0.0
C410 C 0.68612 0.84981 0.91144 0.0
N411 N 0.76309 0.92534 0.90355 0.0
C412 C 0.72387 0.92322 0.90118 0.0
Co413 Co 0.0175 0.84086 0.85451 0.0
Co414 Co 0.01652 0.83536 0.89526 0.0
O415 O 0.01953 0.81369 0.87434 0.0
C416 C 0.10152 0.84249 0.85211 0.0
O417 O 0.11012 0.85847 0.86647 0.0
C418 C 0.94176 0.75872 0.90993 0.0
O419 O 0.92653 0.78487 0.91335 0.0
O420 O 0.96448 0.83993 0.88898 0.0
O421 O 0.97003 0.84975 0.86274 0.0
H422 H -0.00015 0.93458 0.93352 0.0
H423 H 0.0114 0.75415 0.85409 0.0
O424 O 0.06528 0.83267 0.84567 0.0
H425 H 0.87518 0.73117 0.82948 0.0
H426 H 0.02039 0.85583 0.79542 0.0
H427 H 0.0098 0.91817 0.84609 0.0
H428 H 0.93067 0.80428 0.83881 0.0
H429 H 0.02187 0.82141 0.82054 0.0
O430 O 0.97735 0.77323 0.90222 0.0
H431 H 0.00361 0.90686 0.90725 0.0
H432 H 0.02341 0.80893 0.92818 0.0
H433 H 0.00787 0.95343 0.82126 0.0
H434 H 0.95693 0.68052 0.8448 0.0
H435 H 0.01319 0.92224 0.79568 0.0
H436 H 0.88823 0.66869 0.83241 0.0
O437 O 0.06154 0.9001 0.86225 0.0
H438 H 0.10628 0.76161 0.89895 0.0
H439 H 0.10186 0.89603 0.9106 0.0
H440 H 0.16769 0.89222 0.91732 0.0
H441 H 0.17015 0.82461 0.91152 0.0
H442 H 0.04125 0.76695 0.89227 0.0
H443 H 0.01986 0.8356 0.9547 0.0
H444 H 0.008 0.89887 0.95748 0.0
O445 O 0.05506 0.89713 0.88862 0.0
C446 C 0.95181 0.8477 0.87589 0.0
C447 C 0.00506 0.907 0.93246 0.0
C448 C 0.0163 0.85146 0.94435 0.0
N449 N 0.0138 0.85637 0.91617 0.0
C450 C 0.00724 0.89117 0.91761 0.0
C451 C 0.01832 0.83653 0.92931 0.0
C452 C 0.00964 0.88695 0.9459 0.0
C453 C 0.98168 0.74927 0.84862 0.0
N454 N 0.97431 0.78349 0.84693 0.0
C455 C 0.95092 0.7075 0.84343 0.0
C456 C 0.91236 0.70088 0.83649 0.0
C457 C 0.905 0.73592 0.83485 0.0
C458 C 0.93649 0.77722 0.8402 0.0
C459 C 0.01797 0.86968 0.80649 0.0
C460 C 0.01187 0.90423 0.83501 0.0
C461 C 0.01888 0.85039 0.82075 0.0
N462 N 0.01561 0.86758 0.83476 0.0
C463 C 0.01088 0.92442 0.82099 0.0
C464 C 0.01391 0.90693 0.80664 0.0
C465 C 0.07091 0.91805 0.87583 0.0
C466 C 0.10554 0.79119 0.90158 0.0
C467 C 0.1027 0.86652 0.90799 0.0
C468 C 0.14004 0.86453 0.91186 0.0
C469 C 0.14139 0.82657 0.90862 0.0
N470 N 0.06758 0.83161 0.90115 0.0
C471 C 0.06872 0.79433 0.8979 0.0
Co472 Co 0.15804 0.1787 0.85717 0.0
Co473 Co 0.15715 0.17994 0.898 0.0
O474 O 0.18173 0.20705 0.87751 0.0
C475 C 0.15572 0.26087 0.85352 0.0
O476 O 0.1368 0.25332 0.86739 0.0
C477 C 0.24972 0.20314 0.9003 0.0
O478 O 0.24684 0.18883 0.88582 0.0
O479 O 0.15501 0.12436 0.89179 0.0
O480 O 0.14783 0.12185 0.86548 0.0
H481 H 0.05172 0.06012 0.93382 0.0
H482 H 0.24432 0.25959 0.85831 0.0
O483 O 0.16761 0.23499 0.84802 0.0
H484 H 0.27239 0.14752 0.83565 0.0
H485 H 0.15352 0.16877 0.7979 0.0
H486 H 0.08228 0.09407 0.84744 0.0
H487 H 0.19761 0.12937 0.84284 0.0
H488 H 0.18341 0.2038 0.82357 0.0
O489 O 0.21701 0.20238 0.90684 0.0
H490 H 0.0831 0.09462 0.90822 0.0
H491 H 0.17995 0.2086 0.93144 0.0
H492 H 0.05155 0.05771 0.82205 0.0
H493 H 0.3196 0.27929 0.85117 0.0
H494 H 0.08724 0.09512 0.79704 0.0
H495 H 0.33401 0.22298 0.83979 0.0
O496 O 0.09759 0.16306 0.86357 0.0
H497 H 0.2269 0.34285 0.90341 0.0
H498 H 0.09325 0.20126 0.91258 0.0
H499 H 0.09443 0.26948 0.91972 0.0
H500 H 0.16165 0.34093 0.91516 0.0
H501 H 0.22418 0.27382 0.89634 0.0
H502 H 0.14985 0.17517 0.95731 0.0
H503 H 0.08516 0.10048 0.95861 0.0
O504 O 0.09688 0.15681 0.88993 0.0
C505 C 0.14862 0.10477 0.87858 0.0
C506 C 0.07985 0.09273 0.93341 0.0
C507 C 0.13495 0.15728 0.94659 0.0
N508 N 0.13314 0.15369 0.91833 0.0
C509 C 0.0977 0.11249 0.91894 0.0
C510 C 0.15192 0.176 0.93191 0.0
C511 C 0.09865 0.11538 0.94731 0.0
C512 C 0.25031 0.23504 0.85323 0.0
N513 N 0.21661 0.19343 0.85095 0.0
C514 C 0.29301 0.24633 0.84927 0.0
C515 C 0.30108 0.2147 0.84291 0.0
C516 C 0.26652 0.17235 0.84059 0.0
C517 C 0.22426 0.16222 0.84473 0.0
C518 C 0.13772 0.15212 0.80872 0.0
C519 C 0.09815 0.11048 0.83661 0.0
C520 C 0.15443 0.17184 0.82329 0.0
N521 N 0.13478 0.1509 0.83699 0.0
C522 C 0.08052 0.08976 0.82227 0.0
C523 C 0.10054 0.11078 0.80824 0.0
C524 C 0.07781 0.15318 0.87683 0.0
C525 C 0.19746 0.31192 0.9055 0.0
C526 C 0.12258 0.23222 0.91052 0.0
C527 C 0.12308 0.27074 0.91462 0.0
C528 C 0.16082 0.31082 0.91207 0.0
N529 N 0.15869 0.23357 0.90412 0.0
C530 C 0.19578 0.27273 0.90157 0.0
Co531 Co 0.97942 0.82051 0.64449 0.0
Co532 Co 0.97724 0.81978 0.60366 0.0
O533 O 0.97479 0.79246 0.62408 0.0
C534 C 0.895 0.73829 0.64799 0.0
O535 O 0.88375 0.74602 0.63412 0.0
C536 C 0.04679 0.79689 0.60127 0.0
O537 O 0.05818 0.8111 0.61575 0.0
O538 O 0.03056 0.87538 0.60994 0.0
O539 O 0.02605 0.87748 0.63627 0.0
H540 H 0.99116 0.93988 0.5681 0.0
H541 H 0.98485 0.73964 0.64315 0.0
O542 O 0.93271 0.7641 0.65354 0.0
H543 H 0.12499 0.85145 0.66589 0.0
H544 H 0.98478 0.8295 0.70377 0.0
H545 H 0.98824 0.90497 0.65443 0.0
H546 H 0.06834 0.86967 0.65882 0.0
H547 H 0.97969 0.79489 0.67802 0.0
O548 O 0.01482 0.79762 0.59474 0.0
H549 H 0.98818 0.90511 0.59363 0.0
H550 H 0.97152 0.79161 0.57016 0.0
H551 H 0.99382 0.94092 0.67991 0.0
H552 H 0.04046 0.71988 0.65017 0.0
H553 H 0.99209 0.90311 0.70482 0.0
H554 H 0.11119 0.77606 0.66158 0.0
O555 O 0.9346 0.83622 0.63818 0.0
H556 H 0.88456 0.6569 0.59797 0.0
H557 H 0.89194 0.79836 0.58911 0.0
H558 H 0.82506 0.73011 0.58188 0.0
H559 H 0.8211 0.65873 0.58629 0.0
H560 H 0.95069 0.72595 0.60514 0.0
H561 H 0.97472 0.82533 0.54436 0.0
H562 H 0.98441 0.89992 0.54323 0.0
O563 O 0.93992 0.84261 0.61182 0.0
C564 C 0.04381 0.89478 0.62317 0.0
C565 C 0.98681 0.90732 0.56844 0.0
C566 C 0.97764 0.84305 0.55512 0.0
N567 N 0.97939 0.84626 0.58339 0.0
C568 C 0.98498 0.8874 0.58286 0.0
C569 C 0.97596 0.82416 0.56976 0.0
C570 C 0.98306 0.88489 0.55449 0.0
C571 C 0.01539 0.76414 0.64825 0.0
N572 N 0.02328 0.80571 0.65062 0.0
C573 C 0.04682 0.75281 0.65214 0.0
C574 C 0.08652 0.78436 0.65852 0.0
C575 C 0.0943 0.82668 0.66093 0.0
C576 C 0.06214 0.83684 0.65686 0.0
C577 C 0.98564 0.84632 0.693 0.0
C578 C 0.9877 0.8884 0.66522 0.0
C579 C 0.98266 0.82684 0.67838 0.0
N580 N 0.98394 0.848 0.66473 0.0
C581 C 0.99076 0.90888 0.67961 0.0
C582 C 0.98975 0.88764 0.69358 0.0
C583 C 0.92456 0.84612 0.62496 0.0
C584 C 0.88593 0.68781 0.59596 0.0
C585 C 0.89044 0.76743 0.5911 0.0
C586 C 0.85251 0.72889 0.58695 0.0
C587 C 0.85032 0.68885 0.58942 0.0
N588 N 0.92527 0.76614 0.59747 0.0
C589 C 0.92334 0.72701 0.59994 0.0
Co590 Co 0.17611 0.15872 0.64736 0.0
Co591 Co 0.18071 0.16417 0.60661 0.0
O592 O 0.20532 0.18589 0.62754 0.0
C593 C 0.25856 0.15727 0.64973 0.0
O594 O 0.25115 0.14136 0.63536 0.0
C595 C 0.18251 0.24072 0.5919 0.0
O596 O 0.14116 0.21455 0.58846 0.0
O597 O 0.12404 0.15949 0.61287 0.0
O598 O 0.11976 0.14978 0.63912 0.0
H599 H 0.06503 0.06474 0.56833 0.0
H600 H 0.25667 0.24547 0.64779 0.0
O601 O 0.23209 0.16697 0.65622 0.0
H602 H 0.14332 0.26836 0.67234 0.0
H603 H 0.16395 0.14385 0.70646 0.0
H604 H 0.09111 0.08141 0.65578 0.0
H605 H 0.12578 0.19525 0.66303 0.0
H606 H 0.19989 0.17821 0.68134 0.0
O607 O 0.20359 0.22626 0.59964 0.0
H608 H 0.0964 0.09255 0.59461 0.0
H609 H 0.2141 0.19059 0.5737 0.0
H610 H 0.05387 0.04621 0.68062 0.0
H611 H 0.27576 0.31909 0.65705 0.0
H612 H 0.09034 0.07746 0.7062 0.0
H613 H 0.21883 0.33088 0.66942 0.0
O614 O 0.16095 0.09946 0.63964 0.0
H615 H 0.34425 0.23814 0.60301 0.0
H616 H 0.20558 0.10359 0.59132 0.0
H617 H 0.27529 0.1075 0.58466 0.0
H618 H 0.34528 0.17518 0.59047 0.0
H619 H 0.2738 0.2327 0.60963 0.0
H620 H 0.18398 0.16382 0.54718 0.0
H621 H 0.10893 0.10045 0.54438 0.0
O622 O 0.15758 0.10244 0.61327 0.0
C623 C 0.10358 0.15175 0.62595 0.0
C624 C 0.09779 0.09236 0.5694 0.0
C625 C 0.16455 0.14796 0.55753 0.0
N626 N 0.15706 0.1431 0.5857 0.0
C627 C 0.11574 0.10825 0.58425 0.0
C628 C 0.18144 0.16295 0.57257 0.0
C629 C 0.12244 0.11241 0.55596 0.0
C630 C 0.23181 0.25032 0.65324 0.0
N631 N 0.19023 0.21609 0.65494 0.0
C632 C 0.24277 0.29209 0.65842 0.0
C633 C 0.2108 0.29869 0.66535 0.0
C634 C 0.16842 0.26363 0.66698 0.0
C635 C 0.15865 0.22233 0.66165 0.0
C636 C 0.1477 0.12997 0.69539 0.0
C637 C 0.10709 0.09536 0.66687 0.0
C638 C 0.16793 0.14923 0.68113 0.0
N639 N 0.14749 0.13201 0.66711 0.0
C640 C 0.08588 0.07521 0.68089 0.0
C641 C 0.10639 0.09273 0.69523 0.0
C642 C 0.15248 0.08152 0.62605 0.0
C643 C 0.31396 0.20854 0.60036 0.0
C644 C 0.23588 0.13313 0.59393 0.0
C645 C 0.27526 0.13518 0.59009 0.0
C646 C 0.31452 0.17317 0.59335 0.0
N647 N 0.23559 0.16802 0.60076 0.0
C648 C 0.27396 0.20534 0.60401 0.0
Co649 Co 0.83557 0.01752 0.64532 0.0
Co650 Co 0.83808 0.02104 0.6045 0.0
O651 O 0.81293 0.02311 0.62488 0.0
C652 C 0.83944 0.10252 0.64868 0.0
O653 O 0.85828 0.11318 0.63479 0.0
C654 C 0.74558 0.95173 0.60188 0.0
O655 O 0.7482 0.94003 0.61634 0.0
O656 O 0.83978 0.96742 0.6107 0.0
O657 O 0.84516 0.97049 0.63708 0.0
H658 H 0.94407 0.00667 0.56909 0.0
H659 H 0.75007 0.01369 0.64385 0.0
O660 O 0.82681 0.06474 0.65436 0.0
H661 H 0.71878 0.87206 0.66619 0.0
H662 H 0.83764 0.01101 0.7046 0.0
H663 H 0.91013 0.00718 0.65548 0.0
H664 H 0.79416 0.92806 0.65934 0.0
H665 H 0.80909 0.01703 0.67877 0.0
O666 O 0.77843 0.98385 0.59544 0.0
H667 H 0.91214 0.00961 0.59457 0.0
H668 H 0.81644 0.02774 0.57098 0.0
H669 H 0.93955 0.0007 0.68104 0.0
H670 H 0.67421 0.95872 0.65064 0.0
H671 H 0.90323 0.00261 0.70585 0.0
H672 H 0.65818 0.88726 0.66186 0.0
O673 O 0.8965 0.06177 0.63923 0.0
H674 H 0.76902 0.11467 0.59887 0.0
H675 H 0.90267 0.1066 0.59023 0.0
H676 H 0.902 0.17394 0.58313 0.0
H677 H 0.83479 0.17824 0.58742 0.0
H678 H 0.77125 0.04807 0.60592 0.0
H679 H 0.84714 0.02465 0.54523 0.0
H680 H 0.91152 0.01422 0.54418 0.0
O681 O 0.89819 0.05796 0.61284 0.0
C682 C 0.84512 0.95336 0.6239 0.0
C683 C 0.9161 0.01136 0.56939 0.0
C684 C 0.86166 0.0214 0.556 0.0
N685 N 0.86266 0.01915 0.58427 0.0
C686 C 0.89794 0.01317 0.58379 0.0
C687 C 0.84436 0.02303 0.57062 0.0
C688 C 0.89779 0.01556 0.55542 0.0
C689 C 0.74338 0.98282 0.64887 0.0
N690 N 0.77651 0.97417 0.65126 0.0
C691 C 0.70035 0.95176 0.65263 0.0
C692 C 0.69138 0.91165 0.6589 0.0
C693 C 0.72535 0.90308 0.66132 0.0
C694 C 0.76796 0.93488 0.65738 0.0
C695 C 0.8537 0.01005 0.69388 0.0
C696 C 0.89398 0.00778 0.66621 0.0
C697 C 0.83774 0.01354 0.67922 0.0
N698 N 0.85773 0.01215 0.66562 0.0
C699 C 0.91086 0.00422 0.68066 0.0
C700 C 0.8905 0.00533 0.69457 0.0
C701 C 0.91679 0.0724 0.62608 0.0
C702 C 0.79847 0.11315 0.5969 0.0
C703 C 0.87334 0.10826 0.59217 0.0
C704 C 0.87313 0.14644 0.58809 0.0
C705 C 0.83539 0.14882 0.5905 0.0
N706 N 0.83695 0.07337 0.59841 0.0
C707 C 0.79986 0.07548 0.60082 0.0
Co708 Co 0.84694 0.3511 0.47868 0.0
Co709 Co 0.84787 0.35444 0.43786 0.0
O710 O 0.87513 0.3566 0.45824 0.0
C711 C 0.92813 0.43609 0.48201 0.0
O712 O 0.91994 0.44672 0.4681 0.0
C713 C 0.87112 0.28516 0.43528 0.0
O714 O 0.85678 0.2735 0.44974 0.0
O715 O 0.7926 0.30082 0.44408 0.0
O716 O 0.79028 0.30407 0.47045 0.0
H717 H 0.72743 0.33983 0.40243 0.0
H718 H 0.92856 0.3472 0.47722 0.0
O719 O 0.90296 0.39834 0.4877 0.0
H720 H 0.81818 0.20567 0.49961 0.0
H721 H 0.83842 0.3448 0.53796 0.0
H722 H 0.76208 0.34087 0.48883 0.0
H723 H 0.79885 0.26169 0.49273 0.0
H724 H 0.87295 0.35071 0.51213 0.0
O725 O 0.87038 0.31725 0.42882 0.0
H726 H 0.76234 0.34289 0.42792 0.0
H727 H 0.87619 0.36104 0.40434 0.0
H728 H 0.72622 0.33451 0.51439 0.0
H729 H 0.94941 0.29221 0.48404 0.0
H730 H 0.76446 0.33647 0.5392 0.0
H731 H 0.89396 0.2208 0.49527 0.0
O732 O 0.83028 0.39535 0.47256 0.0
H733 H 0.01053 0.44817 0.43219 0.0
H734 H 0.86873 0.43993 0.42355 0.0
H735 H 0.93669 0.50728 0.41642 0.0
H736 H 0.00824 0.51167 0.42071 0.0
H737 H 0.94176 0.38156 0.43926 0.0
H738 H 0.84236 0.35783 0.37858 0.0
H739 H 0.76752 0.34733 0.37752 0.0
O740 O 0.82463 0.39134 0.44617 0.0
C741 C 0.77317 0.28685 0.45728 0.0
C742 C 0.76011 0.34455 0.40274 0.0
C743 C 0.8246 0.3546 0.38935 0.0
N744 N 0.82138 0.35245 0.41762 0.0
C745 C 0.7801 0.34643 0.41714 0.0
C746 C 0.84355 0.35629 0.40397 0.0
C747 C 0.78261 0.34872 0.38877 0.0
C748 C 0.90438 0.31636 0.48225 0.0
N749 N 0.86261 0.30774 0.48464 0.0
C750 C 0.91632 0.28528 0.48602 0.0
C751 C 0.88517 0.2452 0.4923 0.0
C752 C 0.84264 0.23667 0.49473 0.0
C753 C 0.83186 0.26849 0.49078 0.0
C754 C 0.8214 0.34383 0.52723 0.0
C755 C 0.77884 0.3415 0.49956 0.0
C756 C 0.84083 0.34724 0.51257 0.0
N757 N 0.81943 0.34582 0.49898 0.0
C758 C 0.75841 0.338 0.51401 0.0
C759 C 0.77989 0.33914 0.52792 0.0
C760 C 0.82053 0.40587 0.4594 0.0
C761 C 0.97955 0.44661 0.43022 0.0
C762 C 0.89974 0.44162 0.42549 0.0
C763 C 0.93811 0.47981 0.4214 0.0
C764 C 0.97825 0.48225 0.4238 0.0
N765 N 0.90129 0.40677 0.43174 0.0
C766 C 0.94051 0.40893 0.43415 0.0
Co767 Co 0.64716 0.49159 0.48081 0.0
Co768 Co 0.64777 0.49711 0.44005 0.0
O769 O 0.64499 0.51879 0.461 0.0
C770 C 0.56321 0.49004 0.48332 0.0
O771 O 0.5545 0.4741 0.46896 0.0
C772 C 0.7225 0.57362 0.42532 0.0
O773 O 0.7376 0.54738 0.42187 0.0
O774 O 0.69978 0.49238 0.44625 0.0
O775 O 0.69454 0.48272 0.4725 0.0
H776 H 0.66375 0.39769 0.40169 0.0
H777 H 0.65328 0.57831 0.48129 0.0
O778 O 0.59947 0.4998 0.48973 0.0
H779 H 0.78967 0.60126 0.50573 0.0
H780 H 0.6448 0.47658 0.53989 0.0
H781 H 0.65494 0.41429 0.48915 0.0
H782 H 0.7341 0.52815 0.49642 0.0
H783 H 0.64306 0.511 0.5148 0.0
O784 O 0.68699 0.55921 0.43308 0.0
H785 H 0.66035 0.42547 0.42799 0.0
H786 H 0.64065 0.5236 0.40717 0.0
H787 H 0.65715 0.37904 0.51395 0.0
H788 H 0.70782 0.65193 0.49056 0.0
H789 H 0.65206 0.41021 0.53956 0.0
H790 H 0.77661 0.66375 0.50287 0.0
O791 O 0.60304 0.43234 0.47308 0.0
H792 H 0.55829 0.5712 0.43659 0.0
H793 H 0.56223 0.4366 0.42481 0.0
H794 H 0.49644 0.44058 0.41821 0.0
H795 H 0.49421 0.50829 0.42407 0.0
H796 H 0.62329 0.56568 0.44315 0.0
H797 H 0.64385 0.49686 0.38063 0.0
H798 H 0.65547 0.43346 0.37777 0.0
O799 O 0.60918 0.43538 0.44671 0.0
C800 C 0.71261 0.48469 0.45932 0.0
C801 C 0.65864 0.42532 0.40278 0.0
C802 C 0.64746 0.48097 0.39096 0.0
N803 N 0.65023 0.47607 0.41912 0.0
C804 C 0.65667 0.4412 0.41764 0.0
C805 C 0.64564 0.49594 0.40601 0.0
C806 C 0.65399 0.44541 0.38936 0.0
C807 C 0.68303 0.58318 0.48672 0.0
N808 N 0.69041 0.54896 0.48838 0.0
C809 C 0.71384 0.62494 0.4919 0.0
C810 C 0.75245 0.63156 0.4988 0.0
C811 C 0.75981 0.59652 0.5004 0.0
C812 C 0.72828 0.55522 0.49506 0.0
C813 C 0.64713 0.46274 0.52881 0.0
C814 C 0.65297 0.42821 0.50025 0.0
C815 C 0.64606 0.48203 0.51457 0.0
N816 N 0.6492 0.46486 0.50053 0.0
C817 C 0.65412 0.40803 0.51425 0.0
C818 C 0.65121 0.42551 0.52861 0.0
C819 C 0.59347 0.41443 0.45949 0.0
C820 C 0.55893 0.54158 0.43392 0.0
C821 C 0.56151 0.46615 0.42744 0.0
C822 C 0.52418 0.46824 0.42364 0.0
C823 C 0.52296 0.50625 0.42692 0.0
N824 N 0.59674 0.50101 0.43425 0.0
C825 C 0.59573 0.53834 0.43754 0.0
Co826 Co 0.50594 0.15351 0.47786 0.0
Co827 Co 0.5074 0.15286 0.43703 0.0
O828 O 0.48258 0.12545 0.45745 0.0
C829 C 0.50847 0.07144 0.48138 0.0
O830 O 0.52753 0.07923 0.46753 0.0
C831 C 0.41481 0.12952 0.43462 0.0
O832 O 0.41751 0.14364 0.44911 0.0
O833 O 0.50942 0.20833 0.44332 0.0
O834 O 0.51614 0.21044 0.46965 0.0
H835 H 0.6133 0.27323 0.4015 0.0
H836 H 0.41978 0.0725 0.47652 0.0
O837 O 0.4964 0.09715 0.48691 0.0
H838 H 0.39103 0.18403 0.49927 0.0
H839 H 0.50952 0.16245 0.53715 0.0
H840 H 0.58144 0.23807 0.48782 0.0
H841 H 0.46596 0.20246 0.49219 0.0
H842 H 0.48008 0.12783 0.51139 0.0
O843 O 0.44764 0.13049 0.4281 0.0
H844 H 0.58157 0.23835 0.42702 0.0
H845 H 0.48507 0.12471 0.40352 0.0
H846 H 0.61172 0.27403 0.5133 0.0
H847 H 0.34434 0.05252 0.48354 0.0
H848 H 0.5757 0.23616 0.53821 0.0
H849 H 0.32959 0.10856 0.49496 0.0
O850 O 0.56653 0.16939 0.47156 0.0
H851 H 0.43782 0.99004 0.43131 0.0
H852 H 0.57154 0.13181 0.42248 0.0
H853 H 0.57049 0.06372 0.41524 0.0
H854 H 0.50324 0.99218 0.41963 0.0
H855 H 0.44041 0.05894 0.4385 0.0
H856 H 0.51552 0.15854 0.37774 0.0
H857 H 0.58021 0.23326 0.37662 0.0
O858 O 0.56759 0.1759 0.4452 0.0
C859 C 0.51556 0.22772 0.45656 0.0
C860 C 0.58517 0.24061 0.40183 0.0
C861 C 0.53026 0.17626 0.3885 0.0
N862 N 0.53168 0.17942 0.41677 0.0
C863 C 0.56713 0.22064 0.41625 0.0
C864 C 0.51309 0.15732 0.40313 0.0
C865 C 0.56657 0.21818 0.38788 0.0
C866 C 0.41364 0.09693 0.48162 0.0
N867 N 0.44724 0.13854 0.48399 0.0
C868 C 0.37085 0.08549 0.48551 0.0
C869 C 0.36259 0.11696 0.4919 0.0
C870 C 0.39704 0.15932 0.4943 0.0
C871 C 0.4394 0.16961 0.49023 0.0
C872 C 0.52546 0.1793 0.52637 0.0
C873 C 0.56542 0.22146 0.4986 0.0
C874 C 0.50901 0.15981 0.51176 0.0
N875 N 0.52885 0.18101 0.49811 0.0
C876 C 0.5828 0.24195 0.51299 0.0
C877 C 0.56259 0.22067 0.52696 0.0
C878 C 0.58648 0.17942 0.45833 0.0
C879 C 0.46728 0.02102 0.42931 0.0
C880 C 0.54219 0.10081 0.42446 0.0
C881 C 0.54176 0.06237 0.42031 0.0
C882 C 0.50401 0.02224 0.42277 0.0
N883 N 0.50599 0.09934 0.43083 0.0
C884 C 0.46888 0.06013 0.4333 0.0
Co885 Co 0.68607 0.51275 0.69032 0.0
Co886 Co 0.6879 0.51401 0.73115 0.0
O887 O 0.69058 0.5411 0.71064 0.0
C888 C 0.77058 0.59487 0.68677 0.0
O889 O 0.78175 0.58726 0.70067 0.0
C890 C 0.61863 0.53737 0.73331 0.0
O891 O 0.60734 0.52315 0.71883 0.0
O892 O 0.63452 0.45843 0.7249 0.0
O893 O 0.63933 0.45591 0.69859 0.0
H894 H 0.6733 0.39422 0.76702 0.0
H895 H 0.68077 0.59371 0.69138 0.0
O896 O 0.73289 0.56902 0.68121 0.0
H897 H 0.54076 0.48172 0.66861 0.0
H898 H 0.68121 0.50296 0.63105 0.0
H899 H 0.6772 0.4281 0.68061 0.0
H900 H 0.59726 0.46349 0.67591 0.0
H901 H 0.68613 0.53794 0.6567 0.0
O902 O 0.65043 0.53646 0.73991 0.0
H903 H 0.67659 0.4287 0.7414 0.0
H904 H 0.69352 0.54268 0.76457 0.0
H905 H 0.67179 0.39179 0.65522 0.0
H906 H 0.6253 0.61348 0.68413 0.0
H907 H 0.6738 0.42929 0.6302 0.0
H908 H 0.55465 0.55721 0.6727 0.0
O909 O 0.73079 0.49705 0.69678 0.0
H910 H 0.78101 0.67693 0.73656 0.0
H911 H 0.77303 0.53535 0.74583 0.0
H912 H 0.84 0.60357 0.75301 0.0
H913 H 0.84426 0.67502 0.7484 0.0
H914 H 0.71477 0.60789 0.72944 0.0
H915 H 0.69002 0.50926 0.79046 0.0
H916 H 0.68004 0.43458 0.79179 0.0
O917 O 0.72512 0.49089 0.72314 0.0
C918 C 0.62139 0.43883 0.71169 0.0
C919 C 0.67778 0.42682 0.7666 0.0
C920 C 0.68711 0.49137 0.77975 0.0
N921 N 0.68553 0.48777 0.75149 0.0
C922 C 0.67978 0.44657 0.75212 0.0
C923 C 0.68896 0.51008 0.76506 0.0
C924 C 0.68152 0.44947 0.78049 0.0
C925 C 0.65026 0.56917 0.68628 0.0
N926 N 0.64232 0.52754 0.68403 0.0
C927 C 0.61891 0.5805 0.68225 0.0
C928 C 0.57925 0.5489 0.67587 0.0
C929 C 0.57142 0.50652 0.67358 0.0
C930 C 0.60349 0.49635 0.67777 0.0
C931 C 0.68024 0.48627 0.64187 0.0
C932 C 0.67786 0.44454 0.66977 0.0
C933 C 0.68311 0.50596 0.65643 0.0
N934 N 0.68167 0.48497 0.67015 0.0
C935 C 0.67489 0.42385 0.65543 0.0
C936 C 0.67606 0.44492 0.6414 0.0
C937 C 0.74062 0.48721 0.71006 0.0
C938 C 0.77951 0.64599 0.73866 0.0
C939 C 0.77466 0.5663 0.74375 0.0
C940 C 0.81264 0.60483 0.74787 0.0
C941 C 0.815 0.6449 0.74529 0.0
N942 N 0.73994 0.56764 0.7373 0.0
C943 C 0.74203 0.6068 0.73471 0.0
Co944 Co 0.48877 0.17464 0.68786 0.0
Co945 Co 0.48381 0.16953 0.72861 0.0
O946 O 0.45937 0.14769 0.70768 0.0
C947 C 0.40656 0.17647 0.68537 0.0
O948 O 0.41396 0.19243 0.69973 0.0
C949 C 0.48188 0.09305 0.74344 0.0
O950 O 0.5232 0.11927 0.7469 0.0
O951 O 0.54051 0.17412 0.72246 0.0
O952 O 0.54495 0.18336 0.69619 0.0
H953 H 0.5992 0.26916 0.76694 0.0
H954 H 0.40795 0.08809 0.68744 0.0
O955 O 0.43294 0.16661 0.67892 0.0
H956 H 0.52104 0.06434 0.66314 0.0
H957 H 0.50136 0.18906 0.62875 0.0
H958 H 0.57401 0.25163 0.67944 0.0
H959 H 0.53887 0.13762 0.67235 0.0
H960 H 0.46516 0.15499 0.65388 0.0
O961 O 0.46084 0.10747 0.73565 0.0
H962 H 0.56805 0.24119 0.74065 0.0
H963 H 0.45014 0.14334 0.7615 0.0
H964 H 0.6115 0.28654 0.65461 0.0
H965 H 0.38858 0.0143 0.67827 0.0
H966 H 0.57513 0.25522 0.62903 0.0
H967 H 0.44537 0.00208 0.66603 0.0
O968 O 0.50415 0.23403 0.69549 0.0
H969 H 0.32025 0.09572 0.73202 0.0
H970 H 0.45889 0.23027 0.74374 0.0
H971 H 0.38915 0.22648 0.75026 0.0
H972 H 0.31918 0.1588 0.74442 0.0
H973 H 0.39072 0.10103 0.72554 0.0
H974 H 0.48005 0.17026 0.78803 0.0
H975 H 0.55509 0.23361 0.79087 0.0
O976 O 0.50705 0.23124 0.72189 0.0
C977 C 0.56102 0.18156 0.7094 0.0
C978 C 0.56645 0.24155 0.76586 0.0
C979 C 0.49957 0.18605 0.7777 0.0
N980 N 0.50729 0.19072 0.74953 0.0
C981 C 0.54862 0.22557 0.751 0.0
C982 C 0.4828 0.17097 0.76265 0.0
C983 C 0.54168 0.22159 0.77928 0.0
C984 C 0.43276 0.08305 0.68204 0.0
N985 N 0.47442 0.11713 0.68036 0.0
C986 C 0.42164 0.04119 0.67691 0.0
C987 C 0.45353 0.03435 0.67006 0.0
C988 C 0.496 0.06926 0.66844 0.0
C989 C 0.50593 0.11065 0.67372 0.0
C990 C 0.51757 0.20296 0.63983 0.0
C991 C 0.55807 0.23765 0.66836 0.0
C992 C 0.49719 0.18386 0.65409 0.0
N993 N 0.51758 0.20111 0.66811 0.0
C994 C 0.57942 0.25763 0.65434 0.0
C995 C 0.55897 0.24007 0.63999 0.0
C996 C 0.51244 0.25207 0.70906 0.0
C997 C 0.35053 0.12532 0.73467 0.0
C998 C 0.42859 0.20073 0.74112 0.0
C999 C 0.3892 0.19875 0.74488 0.0
C1000 C 0.34995 0.16076 0.74161 0.0
N1001 N 0.42891 0.16578 0.73436 0.0
C1002 C 0.39055 0.12845 0.7311 0.0
Co1003 Co 0.82915 0.31512 0.69034 0.0
Co1004 Co 0.82631 0.31194 0.73116 0.0
O1005 O 0.85159 0.30964 0.71083 0.0
C1006 C 0.82519 0.23002 0.68709 0.0
O1007 O 0.80618 0.21936 0.70096 0.0
C1008 C 0.91873 0.38131 0.73378 0.0
O1009 O 0.916 0.39292 0.71931 0.0
O1010 O 0.8247 0.36553 0.72484 0.0
O1011 O 0.81956 0.36225 0.69846 0.0
H1012 H 0.72014 0.32672 0.76634 0.0
H1013 H 0.91458 0.31887 0.692 0.0
O1014 O 0.83793 0.26781 0.68141 0.0
H1015 H 0.94625 0.46039 0.66944 0.0
H1016 H 0.82759 0.32124 0.63104 0.0
H1017 H 0.75472 0.32545 0.68001 0.0
H1018 H 0.87077 0.40447 0.67622 0.0
H1019 H 0.85591 0.31537 0.65695 0.0
O1020 O 0.88594 0.34919 0.74025 0.0
H1021 H 0.75222 0.32351 0.74092 0.0
H1022 H 0.84776 0.30558 0.76473 0.0
H1023 H 0.72553 0.33178 0.65437 0.0
H1024 H 0.99053 0.37374 0.68529 0.0
H1025 H 0.76204 0.32968 0.62965 0.0
H1026 H 0.00675 0.44515 0.67396 0.0
O1027 O 0.76816 0.27097 0.6964 0.0
H1028 H 0.89522 0.21827 0.73716 0.0
H1029 H 0.76157 0.22655 0.74549 0.0
H1030 H 0.76214 0.15926 0.75276 0.0
H1031 H 0.82935 0.15485 0.74863 0.0
H1032 H 0.8931 0.28482 0.72995 0.0
H1033 H 0.81691 0.30894 0.79042 0.0
H1034 H 0.75254 0.31941 0.79133 0.0
O1035 O 0.76626 0.27499 0.72278 0.0
C1036 C 0.81951 0.37951 0.7116 0.0
C1037 C 0.74811 0.32201 0.7661 0.0
C1038 C 0.80246 0.3121 0.77962 0.0
N1039 N 0.80163 0.31405 0.75134 0.0
C1040 C 0.76636 0.32005 0.75174 0.0
C1041 C 0.81985 0.31031 0.76504 0.0
C1042 C 0.76633 0.31795 0.78012 0.0
C1043 C 0.92136 0.34971 0.68694 0.0
N1044 N 0.88829 0.35838 0.68444 0.0
C1045 C 0.96444 0.38071 0.68322 0.0
C1046 C 0.97352 0.4208 0.67689 0.0
C1047 C 0.93959 0.42938 0.67436 0.0
C1048 C 0.89693 0.39763 0.67826 0.0
C1049 C 0.81145 0.32228 0.64173 0.0
C1050 C 0.77095 0.32477 0.66931 0.0
C1051 C 0.82728 0.31888 0.65644 0.0
N1052 N 0.80718 0.32038 0.66999 0.0
C1053 C 0.7542 0.32825 0.65483 0.0
C1054 C 0.77467 0.32703 0.64096 0.0
C1055 C 0.74776 0.26046 0.70953 0.0
C1056 C 0.86577 0.21983 0.73906 0.0
C1057 C 0.7909 0.22484 0.74362 0.0
C1058 C 0.79106 0.18668 0.74779 0.0
C1059 C 0.82879 0.18424 0.74548 0.0
N1060 N 0.82735 0.25965 0.73738 0.0
C1061 C 0.86444 0.25748 0.73505 0.0
Co1062 Co 0.48408 0.31443 0.18998 0.0
Co1063 Co 0.48303 0.31092 0.2308 0.0
O1064 O 0.45581 0.30883 0.21041 0.0
C1065 C 0.40289 0.22945 0.18655 0.0
O1066 O 0.41101 0.21867 0.20043 0.0
C1067 C 0.45973 0.38015 0.23342 0.0
O1068 O 0.47411 0.3919 0.21897 0.0
O1069 O 0.53829 0.36461 0.22461 0.0
O1070 O 0.54071 0.36141 0.19824 0.0
H1071 H 0.60345 0.32551 0.26623 0.0
H1072 H 0.40247 0.31837 0.19143 0.0
O1073 O 0.42808 0.26727 0.18091 0.0
H1074 H 0.51296 0.45999 0.16913 0.0
H1075 H 0.49284 0.32104 0.1307 0.0
H1076 H 0.56896 0.32468 0.17986 0.0
H1077 H 0.53224 0.4039 0.17598 0.0
H1078 H 0.45821 0.31503 0.15652 0.0
O1079 O 0.46045 0.34802 0.23986 0.0
H1080 H 0.56858 0.32252 0.24074 0.0
H1081 H 0.45463 0.30413 0.26431 0.0
H1082 H 0.60491 0.33114 0.1543 0.0
H1083 H 0.38168 0.37342 0.18464 0.0
H1084 H 0.56678 0.32933 0.12948 0.0
H1085 H 0.43719 0.44487 0.17345 0.0
O1086 O 0.50069 0.27013 0.19607 0.0
H1087 H 0.32038 0.21702 0.23641 0.0
H1088 H 0.46223 0.2254 0.24506 0.0
H1089 H 0.3943 0.15798 0.25215 0.0
H1090 H 0.32272 0.15352 0.24785 0.0
H1091 H 0.38913 0.28371 0.22937 0.0
H1092 H 0.48842 0.30727 0.29007 0.0
H1093 H 0.5633 0.31786 0.29114 0.0
O1094 O 0.50636 0.27411 0.22246 0.0
C1095 C 0.55776 0.37862 0.21142 0.0
C1096 C 0.57076 0.32075 0.26592 0.0
C1097 C 0.50622 0.31057 0.2793 0.0
N1098 N 0.50949 0.31284 0.25103 0.0
C1099 C 0.55079 0.31891 0.25152 0.0
C1100 C 0.48729 0.30891 0.26468 0.0
C1101 C 0.54823 0.3165 0.27989 0.0
C1102 C 0.42668 0.34923 0.18642 0.0
N1103 N 0.46845 0.35784 0.18404 0.0
C1104 C 0.41477 0.38034 0.18266 0.0
C1105 C 0.44595 0.42045 0.17641 0.0
C1106 C 0.48848 0.42897 0.17399 0.0
C1107 C 0.49923 0.39712 0.17793 0.0
C1108 C 0.50981 0.32195 0.14143 0.0
C1109 C 0.55225 0.32412 0.16911 0.0
C1110 C 0.49033 0.31847 0.15609 0.0
N1111 N 0.51166 0.31981 0.16969 0.0
C1112 C 0.57273 0.32767 0.15468 0.0
C1113 C 0.55131 0.32661 0.14076 0.0
C1114 C 0.51045 0.2596 0.20922 0.0
C1115 C 0.35137 0.21861 0.23838 0.0
C1116 C 0.43122 0.22368 0.24312 0.0
C1117 C 0.39286 0.18544 0.24719 0.0
C1118 C 0.35271 0.18297 0.24478 0.0
N1119 N 0.42963 0.25853 0.23688 0.0
C1120 C 0.3904 0.25633 0.23447 0.0
Co1121 Co 0.6843 0.17452 0.18784 0.0
Co1122 Co 0.68338 0.16865 0.22858 0.0
O1123 O 0.68643 0.14721 0.20762 0.0
C1124 C 0.76836 0.17628 0.18533 0.0
O1125 O 0.77704 0.19219 0.1997 0.0
C1126 C 0.60872 0.09178 0.24318 0.0
O1127 O 0.59336 0.1178 0.24661 0.0
O1128 O 0.63124 0.17313 0.22236 0.0
O1129 O 0.63679 0.18322 0.19613 0.0
H1130 H 0.66644 0.26732 0.26703 0.0
H1131 H 0.67835 0.08788 0.18728 0.0
O1132 O 0.73209 0.16649 0.17892 0.0
H1133 H 0.54203 0.06488 0.16276 0.0
H1134 H 0.68697 0.19002 0.12877 0.0
H1135 H 0.6764 0.2518 0.17957 0.0
H1136 H 0.59743 0.13794 0.17216 0.0
H1137 H 0.68863 0.15542 0.15382 0.0
O1138 O 0.64435 0.10644 0.23548 0.0
H1139 H 0.6703 0.23993 0.2407 0.0
H1140 H 0.69036 0.14195 0.26145 0.0
H1141 H 0.67428 0.28723 0.1548 0.0
H1142 H 0.62398 0.01431 0.17792 0.0
H1143 H 0.67958 0.25631 0.12916 0.0
H1144 H 0.55522 0.00246 0.16557 0.0
O1145 O 0.72829 0.23372 0.19563 0.0
H1146 H 0.77353 0.09528 0.23204 0.0
H1147 H 0.76867 0.22934 0.24394 0.0
H1148 H 0.83463 0.22569 0.25059 0.0
H1149 H 0.83731 0.15826 0.24466 0.0
H1150 H 0.70836 0.10046 0.22544 0.0
H1151 H 0.68671 0.1683 0.28801 0.0
H1152 H 0.67467 0.23142 0.29092 0.0
O1153 O 0.72179 0.2305 0.222 0.0
C1154 C 0.61853 0.18098 0.2093 0.0
C1155 C 0.67173 0.23981 0.26592 0.0
C1156 C 0.68312 0.18424 0.27769 0.0
N1157 N 0.68062 0.18943 0.24953 0.0
C1158 C 0.67396 0.22415 0.25104 0.0
C1159 C 0.68519 0.16949 0.26262 0.0
C1160 C 0.67635 0.21965 0.27932 0.0
C1161 C 0.64861 0.083 0.18184 0.0
N1162 N 0.64116 0.11718 0.1802 0.0
C1163 C 0.6179 0.04126 0.1766 0.0
C1164 C 0.57931 0.03463 0.16968 0.0
C1165 C 0.57188 0.06963 0.16811 0.0
C1166 C 0.60331 0.1109 0.1735 0.0
C1167 C 0.68455 0.20375 0.13986 0.0
C1168 C 0.67846 0.23799 0.16846 0.0
C1169 C 0.68557 0.18435 0.15409 0.0
N1170 N 0.68231 0.20139 0.16814 0.0
C1171 C 0.67736 0.25827 0.15447 0.0
C1172 C 0.68039 0.24093 0.14009 0.0
C1173 C 0.73763 0.25155 0.20924 0.0
C1174 C 0.77269 0.12478 0.23473 0.0
C1175 C 0.7696 0.19991 0.24128 0.0
C1176 C 0.80702 0.19801 0.24511 0.0
C1177 C 0.80849 0.16016 0.24179 0.0
N1178 N 0.73454 0.16501 0.23441 0.0
C1179 C 0.73579 0.12783 0.23109 0.0
Co1180 Co 0.82492 0.51239 0.19085 0.0
Co1181 Co 0.82356 0.51323 0.23168 0.0
O1182 O 0.84832 0.54054 0.21124 0.0
C1183 C 0.82233 0.59443 0.18728 0.0
O1184 O 0.8033 0.5867 0.20113 0.0
C1185 C 0.91614 0.53652 0.23404 0.0
O1186 O 0.9133 0.52225 0.21956 0.0
O1187 O 0.82149 0.45771 0.22542 0.0
O1188 O 0.81479 0.45551 0.19909 0.0
H1189 H 0.71777 0.3931 0.26731 0.0
H1190 H 0.91105 0.59345 0.19215 0.0
O1191 O 0.8344 0.5687 0.18176 0.0
H1192 H 0.93987 0.48191 0.16945 0.0
H1193 H 0.82118 0.50316 0.13157 0.0
H1194 H 0.74945 0.42775 0.18095 0.0
H1195 H 0.86493 0.46344 0.17654 0.0
H1196 H 0.85067 0.53793 0.1573 0.0
O1197 O 0.88338 0.53565 0.24058 0.0
H1198 H 0.7494 0.42782 0.24176 0.0
H1199 H 0.84605 0.54158 0.26516 0.0
H1200 H 0.71911 0.39165 0.15549 0.0
H1201 H 0.98649 0.61345 0.18512 0.0
H1202 H 0.75505 0.42942 0.13056 0.0
H1203 H 0.00127 0.55741 0.17373 0.0
O1204 O 0.76434 0.49648 0.19716 0.0
H1205 H 0.89319 0.67608 0.23729 0.0
H1206 H 0.75948 0.53437 0.24622 0.0
H1207 H 0.76055 0.6025 0.25341 0.0
H1208 H 0.8278 0.67401 0.24898 0.0
H1209 H 0.89057 0.60715 0.23015 0.0
H1210 H 0.81568 0.50792 0.29098 0.0
H1211 H 0.75097 0.43323 0.29216 0.0
O1212 O 0.76334 0.49014 0.22353 0.0
C1213 C 0.81536 0.43828 0.21219 0.0
C1214 C 0.74591 0.42571 0.26695 0.0
C1215 C 0.8009 0.49013 0.28023 0.0
N1216 N 0.79936 0.48679 0.25196 0.0
C1217 C 0.7639 0.44559 0.25252 0.0
C1218 C 0.81801 0.50898 0.26558 0.0
C1219 C 0.76457 0.44823 0.28089 0.0
C1220 C 0.9172 0.56901 0.18706 0.0
N1221 N 0.88362 0.52738 0.18471 0.0
C1222 C 0.95999 0.58047 0.18316 0.0
C1223 C 0.96827 0.54899 0.17679 0.0
C1224 C 0.93384 0.50662 0.1744 0.0
C1225 C 0.89148 0.49631 0.17848 0.0
C1226 C 0.80528 0.48635 0.14235 0.0
C1227 C 0.76542 0.44431 0.17016 0.0
C1228 C 0.82176 0.50592 0.15695 0.0
N1229 N 0.80197 0.48479 0.17062 0.0
C1230 C 0.74802 0.42374 0.15577 0.0
C1231 C 0.76817 0.44497 0.14179 0.0
C1232 C 0.74442 0.48652 0.21039 0.0
C1233 C 0.86373 0.64512 0.23932 0.0
C1234 C 0.78882 0.56536 0.24421 0.0
C1235 C 0.78927 0.60383 0.24834 0.0
C1236 C 0.82702 0.64394 0.24586 0.0
N1237 N 0.82501 0.56679 0.23784 0.0
C1238 C 0.86211 0.60599 0.23535 0.0
Co1239 Co 0.64541 0.15308 0.97798 0.0
Co1240 Co 0.64341 0.15169 0.93715 0.0
O1241 O 0.64081 0.12465 0.95766 0.0
C1242 C 0.56093 0.07096 0.98157 0.0
O1243 O 0.54972 0.07853 0.96768 0.0
C1244 C 0.71256 0.12812 0.93491 0.0
O1245 O 0.72394 0.14227 0.94939 0.0
O1246 O 0.69688 0.20722 0.94336 0.0
O1247 O 0.69211 0.20992 0.96967 0.0
H1248 H 0.65822 0.27155 0.90126 0.0
H1249 H 0.65075 0.07214 0.97694 0.0
O1250 O 0.59864 0.09683 0.98713 0.0
H1251 H 0.79083 0.18427 0.99963 0.0
H1252 H 0.65048 0.16306 0.03725 0.0
H1253 H 0.65429 0.23776 0.98767 0.0
H1254 H 0.73429 0.20245 0.99232 0.0
H1255 H 0.6455 0.12802 0.0116 0.0
O1256 O 0.68075 0.12911 0.92835 0.0
H1257 H 0.65489 0.23706 0.92689 0.0
H1258 H 0.63754 0.12291 0.90373 0.0
H1259 H 0.65975 0.27413 0.01304 0.0
H1260 H 0.70625 0.05242 0.9842 0.0
H1261 H 0.65784 0.23672 0.03807 0.0
H1262 H 0.77694 0.10876 0.99559 0.0
O1263 O 0.60065 0.16873 0.97154 0.0
H1264 H 0.55 0.98879 0.93182 0.0
H1265 H 0.55827 0.13049 0.92252 0.0
H1266 H 0.49117 0.06232 0.9154 0.0
H1267 H 0.48677 0.99081 0.92002 0.0
H1268 H 0.61636 0.05777 0.93888 0.0
H1269 H 0.64108 0.15634 0.87784 0.0
H1270 H 0.65131 0.23111 0.8765 0.0
O1271 O 0.60631 0.17495 0.94518 0.0
C1272 C 0.71004 0.2269 0.95655 0.0
C1273 C 0.65364 0.2389 0.90169 0.0
C1274 C 0.64407 0.17426 0.88855 0.0
N1275 N 0.64574 0.17791 0.91681 0.0
C1276 C 0.65161 0.21915 0.91617 0.0
C1277 C 0.6422 0.15554 0.90324 0.0
C1278 C 0.6498 0.21621 0.8878 0.0
C1279 C 0.68128 0.09671 0.98203 0.0
N1280 N 0.68922 0.13834 0.98425 0.0
C1281 C 0.71264 0.0854 0.98606 0.0
C1282 C 0.75232 0.11705 0.99242 0.0
C1283 C 0.76015 0.15943 0.99468 0.0
C1284 C 0.72806 0.16957 0.99048 0.0
C1285 C 0.65142 0.17972 0.02642 0.0
C1286 C 0.65368 0.22135 0.9985 0.0
C1287 C 0.64851 0.15999 0.01186 0.0
N1288 N 0.64989 0.18093 0.99814 0.0
C1289 C 0.65667 0.24208 0.01284 0.0
C1290 C 0.65556 0.22105 0.02687 0.0
C1291 C 0.59083 0.17861 0.95827 0.0
C1292 C 0.55156 0.01975 0.92971 0.0
C1293 C 0.55657 0.09951 0.92461 0.0
C1294 C 0.51852 0.06101 0.92052 0.0
C1295 C 0.51608 0.0209 0.92311 0.0
N1296 N 0.59128 0.0981 0.93104 0.0
C1297 C 0.58911 0.05891 0.93363 0.0
Co1298 Co 0.84283 0.49142 0.9799 0.0
Co1299 Co 0.84719 0.496 0.93918 0.0
O1300 O 0.8722 0.51785 0.96004 0.0
C1301 C 0.92517 0.48995 0.98254 0.0
O1302 O 0.91777 0.47369 0.96823 0.0
C1303 C 0.8652 0.58713 0.93834 0.0
O1304 O 0.84348 0.57895 0.95164 0.0
O1305 O 0.7906 0.49169 0.94529 0.0
O1306 O 0.78642 0.48211 0.97154 0.0
H1307 H 0.73175 0.3956 0.90103 0.0
H1308 H 0.92339 0.57814 0.98 0.0
O1309 O 0.89876 0.49992 0.98891 0.0
H1310 H 0.80979 0.60235 0.00356 0.0
H1311 H 0.83034 0.47893 0.03904 0.0
H1312 H 0.75785 0.41432 0.98852 0.0
H1313 H 0.79249 0.52864 0.9951 0.0
H1314 H 0.86642 0.51226 0.01382 0.0
O1315 O 0.87012 0.55751 0.93176 0.0
H1316 H 0.76346 0.42294 0.9273 0.0
H1317 H 0.87882 0.52466 0.90636 0.0
H1318 H 0.72048 0.38013 0.01345 0.0
H1319 H 0.94223 0.65237 0.9884 0.0
H1320 H 0.75677 0.41249 0.03895 0.0
H1321 H 0.88516 0.66484 1.00024 0.0
O1322 O 0.82768 0.43195 0.97246 0.0
H1323 H 0.01056 0.56848 0.93532 0.0
H1324 H 0.8709 0.43506 0.9236 0.0
H1325 H 0.94014 0.43823 0.91666 0.0
H1326 H 0.01062 0.50533 0.92251 0.0
H1327 H 0.94056 0.56378 0.94217 0.0
H1328 H 0.84821 0.4986 0.87984 0.0
H1329 H 0.77424 0.43352 0.87706 0.0
O1330 O 0.82387 0.43435 0.94607 0.0
C1331 C 0.77012 0.48383 0.95837 0.0
C1332 C 0.76407 0.42391 0.90208 0.0
C1333 C 0.82942 0.48176 0.8902 0.0
N1334 N 0.82308 0.47515 0.91836 0.0
C1335 C 0.78225 0.43948 0.91693 0.0
C1336 C 0.84654 0.49642 0.90524 0.0
C1337 C 0.78791 0.44523 0.88864 0.0
C1338 C 0.89849 0.58327 0.98527 0.0
N1339 N 0.85697 0.54908 0.98713 0.0
C1340 C 0.9093 0.62539 0.98995 0.0
C1341 C 0.87725 0.63237 0.99657 0.0
C1342 C 0.83496 0.59733 0.99843 0.0
C1343 C 0.82533 0.55567 0.99359 0.0
C1344 C 0.81417 0.46458 0.028 0.0
C1345 C 0.77376 0.42874 0.99957 0.0
C1346 C 0.83448 0.48326 0.01369 0.0
N1347 N 0.81413 0.46544 0.99972 0.0
C1348 C 0.75248 0.40917 0.01364 0.0
C1349 C 0.77288 0.42731 0.02795 0.0
C1350 C 0.81895 0.4137 0.95892 0.0
C1351 C 0.98006 0.53911 0.93267 0.0
C1352 C 0.90143 0.46434 0.92621 0.0
C1353 C 0.94053 0.46597 0.92223 0.0
C1354 C 0.98007 0.50364 0.9255 0.0
N1355 N 0.90169 0.49929 0.93321 0.0
C1356 C 0.94032 0.53632 0.93647 0.0
Co1357 Co 0.50245 0.35071 0.97814 0.0
Co1358 Co 0.5044 0.35343 0.93732 0.0
O1359 O 0.47952 0.35593 0.95771 0.0
C1360 C 0.50626 0.43575 0.98144 0.0
O1361 O 0.52511 0.44644 0.96755 0.0
C1362 C 0.41181 0.28423 0.93487 0.0
O1363 O 0.41455 0.2727 0.94934 0.0
O1364 O 0.50601 0.29983 0.94361 0.0
O1365 O 0.51204 0.30361 0.96997 0.0
H1366 H 0.60972 0.3381 0.90184 0.0
H1367 H 0.41686 0.34667 0.97674 0.0
O1368 O 0.49368 0.39798 0.98712 0.0
H1369 H 0.38612 0.20552 0.99937 0.0
H1370 H 0.5054 0.34519 0.03743 0.0
H1371 H 0.57725 0.34069 0.98823 0.0
H1372 H 0.46138 0.2615 0.99236 0.0
H1373 H 0.47641 0.35069 0.01162 0.0
O1374 O 0.44462 0.31623 0.92836 0.0
H1375 H 0.57819 0.3416 0.92735 0.0
H1376 H 0.48238 0.35965 0.9038 0.0
H1377 H 0.6071 0.33473 0.01378 0.0
H1378 H 0.34113 0.29173 0.9837 0.0
H1379 H 0.57111 0.33698 0.03862 0.0
H1380 H 0.32538 0.22051 0.99506 0.0
O1381 O 0.56327 0.39492 0.97192 0.0
H1382 H 0.43565 0.44731 0.93154 0.0
H1383 H 0.56898 0.43869 0.92284 0.0
H1384 H 0.56841 0.50599 0.9156 0.0
H1385 H 0.50136 0.51057 0.91992 0.0
H1386 H 0.43777 0.38074 0.93872 0.0
H1387 H 0.51267 0.356 0.87803 0.0
H1388 H 0.5769 0.34532 0.87695 0.0
O1389 O 0.56463 0.39035 0.94554 0.0
C1390 C 0.51167 0.28611 0.95683 0.0
C1391 C 0.5818 0.3429 0.90216 0.0
C1392 C 0.5273 0.35288 0.8888 0.0
N1393 N 0.52867 0.35113 0.91707 0.0
C1394 C 0.56387 0.34502 0.91657 0.0
C1395 C 0.51023 0.35483 0.90342 0.0
C1396 C 0.56335 0.34691 0.8882 0.0
C1397 C 0.41029 0.31591 0.98182 0.0
N1398 N 0.4435 0.30738 0.9842 0.0
C1399 C 0.36734 0.28487 0.98568 0.0
C1400 C 0.35851 0.24489 0.99203 0.0
C1401 C 0.39258 0.23644 0.99444 0.0
C1402 C 0.43511 0.26823 0.99041 0.0
C1403 C 0.52132 0.34409 0.02669 0.0
C1404 C 0.56124 0.34144 0.99898 0.0
C1405 C 0.50511 0.34728 0.01204 0.0
N1406 N 0.52493 0.34571 0.99842 0.0
C1407 C 0.57837 0.33817 0.01342 0.0
C1408 C 0.55818 0.33947 0.02735 0.0
C1409 C 0.5834 0.40515 0.95873 0.0
C1410 C 0.46502 0.44567 0.92956 0.0
C1411 C 0.53972 0.44047 0.9248 0.0
C1412 C 0.53956 0.47863 0.92064 0.0
C1413 C 0.50192 0.48117 0.92306 0.0
N1414 N 0.50335 0.40574 0.93113 0.0
C1415 C 0.46636 0.40801 0.93355 0.0
Co1416 Co 0.51355 0.68472 0.81108 0.0
Co1417 Co 0.51467 0.68821 0.77026 0.0
O1418 O 0.54188 0.6904 0.79067 0.0
C1419 C 0.59458 0.76985 0.81455 0.0
O1420 O 0.58649 0.78069 0.80067 0.0
C1421 C 0.53787 0.61892 0.76774 0.0
O1422 O 0.52336 0.60726 0.78219 0.0
O1423 O 0.45937 0.63453 0.77645 0.0
O1424 O 0.45707 0.63759 0.80282 0.0
H1425 H 0.39443 0.67361 0.73472 0.0
H1426 H 0.59535 0.68115 0.80964 0.0
O1427 O 0.56942 0.732 0.82016 0.0
H1428 H 0.48529 0.53943 0.832 0.0
H1429 H 0.50457 0.67813 0.87036 0.0
H1430 H 0.42849 0.67409 0.82115 0.0
H1431 H 0.46571 0.59528 0.82513 0.0
H1432 H 0.53937 0.6843 0.84456 0.0
O1433 O 0.53726 0.65106 0.76126 0.0
H1434 H 0.42918 0.67664 0.76024 0.0
H1435 H 0.54319 0.69485 0.73677 0.0
H1436 H 0.39236 0.66746 0.84668 0.0
H1437 H 0.61644 0.62634 0.81646 0.0
H1438 H 0.43047 0.66947 0.87152 0.0
H1439 H 0.56115 0.55484 0.82768 0.0
O1440 O 0.49673 0.72885 0.80496 0.0
H1441 H 0.67735 0.78205 0.76468 0.0
H1442 H 0.53553 0.7737 0.75597 0.0
H1443 H 0.60349 0.84109 0.74886 0.0
H1444 H 0.67505 0.84553 0.75319 0.0
H1445 H 0.60858 0.7154 0.77172 0.0
H1446 H 0.50953 0.69168 0.71098 0.0
H1447 H 0.43469 0.68116 0.70985 0.0
O1448 O 0.49133 0.72505 0.77855 0.0
C1449 C 0.44 0.6204 0.78964 0.0
C1450 C 0.42712 0.67834 0.73506 0.0
C1451 C 0.49169 0.68842 0.72174 0.0
N1452 N 0.48829 0.68623 0.75 0.0
C1453 C 0.44701 0.6802 0.74948 0.0
C1454 C 0.51055 0.6901 0.73637 0.0
C1455 C 0.4497 0.68253 0.72111 0.0
C1456 C 0.57124 0.65026 0.81466 0.0
N1457 N 0.52941 0.6415 0.81705 0.0
C1458 C 0.58332 0.61929 0.81844 0.0
C1459 C 0.55226 0.57915 0.82471 0.0
C1460 C 0.50967 0.57048 0.82713 0.0
C1461 C 0.49875 0.60219 0.82318 0.0
C1462 C 0.48761 0.67713 0.85962 0.0
C1463 C 0.4452 0.67475 0.8319 0.0
C1464 C 0.50719 0.6807 0.84498 0.0
N1465 N 0.48587 0.67925 0.83136 0.0
C1466 C 0.42461 0.67109 0.84633 0.0
C1467 C 0.44602 0.67226 0.86026 0.0
C1468 C 0.48707 0.73944 0.79179 0.0
C1469 C 0.64636 0.78047 0.76269 0.0
C1470 C 0.56654 0.77542 0.75792 0.0
C1471 C 0.60491 0.81363 0.75385 0.0
C1472 C 0.64505 0.81609 0.75627 0.0
N1473 N 0.5681 0.74058 0.76418 0.0
C1474 C 0.60732 0.74276 0.76661 0.0
Co1475 Co 0.31432 0.82587 0.81344 0.0
Co1476 Co 0.31392 0.83031 0.77271 0.0
O1477 O 0.31098 0.85216 0.7936 0.0
C1478 C 0.23029 0.82389 0.81619 0.0
O1479 O 0.22144 0.80764 0.80187 0.0
C1480 C 0.38695 0.92145 0.77185 0.0
O1481 O 0.40054 0.91327 0.78513 0.0
O1482 O 0.36627 0.82599 0.77871 0.0
O1483 O 0.36151 0.81686 0.80498 0.0
H1484 H 0.32842 0.72984 0.73443 0.0
H1485 H 0.31987 0.91233 0.81358 0.0
O1486 O 0.26674 0.83405 0.82253 0.0
H1487 H 0.45834 0.93751 0.83685 0.0
H1488 H 0.31521 0.81375 0.87257 0.0
H1489 H 0.32288 0.74914 0.82202 0.0
H1490 H 0.40214 0.86363 0.82846 0.0
H1491 H 0.31181 0.84676 0.84736 0.0
O1492 O 0.35241 0.89181 0.76527 0.0
H1493 H 0.32442 0.75722 0.76074 0.0
H1494 H 0.31054 0.85894 0.73993 0.0
H1495 H 0.32674 0.71528 0.84693 0.0
H1496 H 0.37506 0.98672 0.82192 0.0
H1497 H 0.32292 0.74763 0.87245 0.0
H1498 H 0.44493 0.99968 0.83361 0.0
O1499 O 0.27018 0.76627 0.80604 0.0
H1500 H 0.22295 0.90275 0.76911 0.0
H1501 H 0.22907 0.76934 0.75726 0.0
H1502 H 0.1629 0.77248 0.75047 0.0
H1503 H 0.15957 0.83958 0.75639 0.0
H1504 H 0.28835 0.89809 0.77581 0.0
H1505 H 0.31471 0.83284 0.71338 0.0
H1506 H 0.32354 0.76773 0.71051 0.0
O1507 O 0.27569 0.76867 0.77963 0.0
C1508 C 0.37924 0.81838 0.79176 0.0
C1509 C 0.32444 0.75816 0.73552 0.0
C1510 C 0.3168 0.81601 0.72371 0.0
N1511 N 0.31692 0.80944 0.75187 0.0
C1512 C 0.32204 0.77376 0.75039 0.0
C1513 C 0.31456 0.83069 0.73877 0.0
C1514 C 0.32174 0.77946 0.72211 0.0
C1515 C 0.35005 0.91767 0.81879 0.0
N1516 N 0.35768 0.88366 0.82062 0.0
C1517 C 0.38123 0.95988 0.82343 0.0
C1518 C 0.42045 0.96713 0.82997 0.0
C1519 C 0.42801 0.93227 0.83179 0.0
C1520 C 0.3961 0.89053 0.82699 0.0
C1521 C 0.31699 0.7994 0.86153 0.0
C1522 C 0.32143 0.76356 0.83307 0.0
C1523 C 0.31499 0.8179 0.84722 0.0
N1524 N 0.31746 0.80009 0.83323 0.0
C1525 C 0.32352 0.74417 0.84714 0.0
C1526 C 0.32133 0.76231 0.86145 0.0
C1527 C 0.26037 0.74801 0.79251 0.0
C1528 C 0.22405 0.87339 0.76643 0.0
C1529 C 0.22785 0.79862 0.7599 0.0
C1530 C 0.19032 0.80024 0.756 0.0
C1531 C 0.18848 0.83791 0.75932 0.0
N1532 N 0.26263 0.83359 0.76685 0.0
C1533 C 0.26106 0.87062 0.77014 0.0
Co1534 Co 0.17385 0.48701 0.81113 0.0
Co1535 Co 0.17371 0.48622 0.77031 0.0
O1536 O 0.14954 0.45887 0.79081 0.0
C1537 C 0.17545 0.40441 0.81459 0.0
O1538 O 0.19428 0.41192 0.8007 0.0
C1539 C 0.08095 0.4626 0.76827 0.0
O1540 O 0.08389 0.4767 0.78277 0.0
O1541 O 0.17568 0.54156 0.77671 0.0
O1542 O 0.18445 0.54416 0.80295 0.0
H1543 H 0.27804 0.60677 0.7345 0.0
H1544 H 0.08711 0.40665 0.81015 0.0
O1545 O 0.16388 0.43047 0.82016 0.0
H1546 H 0.06107 0.51954 0.83332 0.0
H1547 H 0.17997 0.49643 0.87041 0.0
H1548 H 0.2504 0.57117 0.82078 0.0
H1549 H 0.13542 0.537 0.82579 0.0
H1550 H 0.14911 0.46185 0.84477 0.0
O1551 O 0.11368 0.46363 0.76163 0.0
H1552 H 0.24732 0.57183 0.7601 0.0
H1553 H 0.15043 0.4579 0.73686 0.0
H1554 H 0.28213 0.60708 0.84614 0.0
H1555 H 0.01223 0.38764 0.81764 0.0
H1556 H 0.24687 0.56964 0.8712 0.0
H1557 H 0.99884 0.44436 0.82927 0.0
O1558 O 0.23395 0.50209 0.80451 0.0
H1559 H 0.10448 0.32343 0.7646 0.0
H1560 H 0.23759 0.46543 0.75537 0.0
H1561 H 0.23658 0.39747 0.74796 0.0
H1562 H 0.16963 0.32581 0.75255 0.0
H1563 H 0.10704 0.39222 0.77194 0.0
H1564 H 0.17988 0.49179 0.71099 0.0
H1565 H 0.24426 0.56668 0.7097 0.0
O1566 O 0.2342 0.5095 0.77821 0.0
C1567 C 0.18294 0.56123 0.78993 0.0
C1568 C 0.25005 0.57407 0.7349 0.0
C1569 C 0.19493 0.50956 0.72171 0.0
N1570 N 0.1973 0.51276 0.74998 0.0
C1571 C 0.23257 0.55406 0.74937 0.0
C1572 C 0.17833 0.49058 0.73639 0.0
C1573 C 0.23106 0.55158 0.721 0.0
C1574 C 0.08156 0.43138 0.81534 0.0
N1575 N 0.11559 0.47284 0.81757 0.0
C1576 C 0.03909 0.42048 0.8195 0.0
C1577 C 0.03159 0.45234 0.826 0.0
C1578 C 0.06649 0.49454 0.82826 0.0
C1579 C 0.1085 0.50427 0.82393 0.0
C1580 C 0.19559 0.5131 0.85957 0.0
C1581 C 0.2347 0.55476 0.83163 0.0
C1582 C 0.17832 0.49363 0.84502 0.0
N1583 N 0.19776 0.51458 0.83129 0.0
C1584 C 0.2529 0.57522 0.84595 0.0
C1585 C 0.23312 0.55418 0.86001 0.0
C1586 C 0.25348 0.51251 0.79121 0.0
C1587 C 0.1338 0.35446 0.76251 0.0
C1588 C 0.20838 0.43439 0.75744 0.0
C1589 C 0.20797 0.39601 0.75319 0.0
C1590 C 0.17039 0.35582 0.75576 0.0
N1591 N 0.17232 0.43279 0.76401 0.0
C1592 C 0.13539 0.39351 0.76659 0.0
Co1593 Co 0.352 0.8454 0.02389 0.0
Co1594 Co 0.35396 0.84619 0.06473 0.0
O1595 O 0.35657 0.87351 0.04428 0.0
C1596 C 0.43652 0.92757 0.02039 0.0
O1597 O 0.44775 0.91986 0.03426 0.0
C1598 C 0.28454 0.86932 0.06704 0.0
O1599 O 0.2732 0.85512 0.05255 0.0
O1600 O 0.3006 0.79065 0.05843 0.0
O1601 O 0.30529 0.78847 0.03211 0.0
H1602 H 0.33959 0.72605 0.10036 0.0
H1603 H 0.34669 0.92633 0.02516 0.0
O1604 O 0.3988 0.90177 0.01483 0.0
H1605 H 0.2066 0.81459 0.00236 0.0
H1606 H 0.3469 0.83625 0.96461 0.0
H1607 H 0.34311 0.76086 0.01401 0.0
H1608 H 0.26315 0.7963 0.00951 0.0
H1609 H 0.35193 0.87095 0.99034 0.0
O1610 O 0.31645 0.86849 0.07359 0.0
H1611 H 0.34277 0.76081 0.07481 0.0
H1612 H 0.35961 0.87447 0.09821 0.0
H1613 H 0.33759 0.72482 0.98855 0.0
H1614 H 0.29118 0.94617 0.01806 0.0
H1615 H 0.33948 0.76258 0.96361 0.0
H1616 H 0.22048 0.89003 0.00661 0.0
O1617 O 0.39674 0.82963 0.03025 0.0
H1618 H 0.44692 0.00906 0.07037 0.0
H1619 H 0.43915 0.86746 0.07933 0.0
H1620 H 0.50609 0.93564 0.08657 0.0
H1621 H 0.51024 0.0071 0.08212 0.0
H1622 H 0.38072 0.94007 0.06319 0.0
H1623 H 0.3562 0.84077 0.12402 0.0
H1624 H 0.34632 0.76611 0.12521 0.0
O1625 O 0.39122 0.82322 0.05661 0.0
C1626 C 0.28742 0.77122 0.0452 0.0
C1627 C 0.34402 0.75865 0.1 0.0
C1628 C 0.35329 0.82301 0.11328 0.0
N1629 N 0.35166 0.81973 0.08501 0.0
C1630 C 0.34596 0.77855 0.08557 0.0
C1631 C 0.35509 0.84188 0.09863 0.0
C1632 C 0.34776 0.78112 0.11394 0.0
C1633 C 0.31616 0.90185 0.02005 0.0
N1634 N 0.30822 0.86026 0.01771 0.0
C1635 C 0.28479 0.91322 0.01611 0.0
C1636 C 0.2451 0.88169 0.00971 0.0
C1637 C 0.23728 0.83935 0.00733 0.0
C1638 C 0.26938 0.82914 0.01145 0.0
C1639 C 0.34597 0.81945 0.9754 0.0
C1640 C 0.34372 0.77742 0.00321 0.0
C1641 C 0.34891 0.83898 0.99 0.0
N1642 N 0.34754 0.81785 0.00367 0.0
C1643 C 0.34069 0.75688 0.98883 0.0
C1644 C 0.34179 0.7781 0.97484 0.0
C1645 C 0.40665 0.81967 0.0435 0.0
C1646 C 0.44546 0.97812 0.07241 0.0
C1647 C 0.44074 0.89842 0.07732 0.0
C1648 C 0.4787 0.93692 0.08147 0.0
C1649 C 0.481 0.977 0.07898 0.0
N1650 N 0.40598 0.89979 0.07092 0.0
C1651 C 0.40801 0.93895 0.06842 0.0
Co1652 Co 0.15503 0.50734 0.02096 0.0
Co1653 Co 0.15012 0.50176 0.06171 0.0
O1654 O 0.12565 0.48013 0.04076 0.0
C1655 C 0.0727 0.50903 0.01848 0.0
O1656 O 0.07998 0.52494 0.03284 0.0
C1657 C 0.14827 0.42517 0.07641 0.0
O1658 O 0.18961 0.45135 0.07984 0.0
O1659 O 0.20682 0.50644 0.05551 0.0
O1660 O 0.21127 0.51613 0.02926 0.0
H1661 H 0.26556 0.601 0.1001 0.0
H1662 H 0.07437 0.42068 0.02046 0.0
O1663 O 0.09916 0.49923 0.01205 0.0
H1664 H 0.1877 0.3976 0.996 0.0
H1665 H 0.16765 0.52245 0.96188 0.0
H1666 H 0.24016 0.58459 0.01263 0.0
H1667 H 0.20533 0.47071 0.00534 0.0
H1668 H 0.13149 0.48801 0.98696 0.0
O1669 O 0.12718 0.43964 0.06867 0.0
H1670 H 0.23436 0.57332 0.07379 0.0
H1671 H 0.11651 0.47521 0.09459 0.0
H1672 H 0.27761 0.61987 0.98783 0.0
H1673 H 0.0552 0.34705 0.01116 0.0
H1674 H 0.24131 0.58877 0.96222 0.0
H1675 H 0.11212 0.33517 0.99884 0.0
O1676 O 0.17023 0.56659 0.0287 0.0
H1677 H 0.98656 0.42781 0.06518 0.0
H1678 H 0.12517 0.5623 0.07699 0.0
H1679 H 0.05543 0.55838 0.0836 0.0
H1680 H 0.98547 0.49073 0.07772 0.0
H1681 H 0.05704 0.43326 0.05861 0.0
H1682 H 0.14646 0.50184 0.12114 0.0
H1683 H 0.2215 0.56518 0.12401 0.0
O1684 O 0.17332 0.56352 0.05508 0.0
C1685 C 0.22735 0.51414 0.04244 0.0
C1686 C 0.23281 0.57339 0.09901 0.0
C1687 C 0.16596 0.51775 0.11081 0.0
N1688 N 0.17363 0.52274 0.08265 0.0
C1689 C 0.21495 0.55758 0.08414 0.0
C1690 C 0.14916 0.50284 0.09575 0.0
C1691 C 0.20807 0.55328 0.11241 0.0
C1692 C 0.09923 0.41578 0.01503 0.0
N1693 N 0.14085 0.44996 0.01337 0.0
C1694 C 0.08822 0.37402 0.00983 0.0
C1695 C 0.12019 0.36736 0.00293 0.0
C1696 C 0.16261 0.40237 0.00134 0.0
C1697 C 0.17243 0.44367 0.00669 0.0
C1698 C 0.18383 0.53625 0.97296 0.0
C1699 C 0.22425 0.5707 0.00153 0.0
C1700 C 0.16348 0.51695 0.98721 0.0
N1701 N 0.18382 0.53409 0.00124 0.0
C1702 C 0.24558 0.5909 0.98753 0.0
C1703 C 0.22517 0.57346 0.97316 0.0
C1704 C 0.17858 0.58449 0.04229 0.0
C1705 C 0.01684 0.4574 0.06785 0.0
C1706 C 0.09488 0.53278 0.07435 0.0
C1707 C 0.05548 0.53072 0.07816 0.0
C1708 C 0.01624 0.49274 0.07487 0.0
N1709 N 0.09521 0.49791 0.06752 0.0
C1710 C 0.05686 0.46061 0.06423 0.0
Co1711 Co 0.49544 0.64794 0.02331 0.0
Co1712 Co 0.49266 0.64441 0.06413 0.0
O1713 O 0.51795 0.64234 0.04378 0.0
C1714 C 0.49166 0.56295 0.01993 0.0
O1715 O 0.47267 0.55218 0.0338 0.0
C1716 C 0.58512 0.71373 0.06683 0.0
O1717 O 0.58254 0.72548 0.05237 0.0
O1718 O 0.49105 0.69806 0.0579 0.0
O1719 O 0.48573 0.69492 0.03153 0.0
H1720 H 0.38646 0.65883 0.09941 0.0
H1721 H 0.58096 0.65186 0.02488 0.0
O1722 O 0.50433 0.60077 0.01429 0.0
H1723 H 0.6123 0.7935 0.00254 0.0
H1724 H 0.49379 0.65459 0.96403 0.0
H1725 H 0.42089 0.6582 0.01307 0.0
H1726 H 0.53688 0.73742 0.00931 0.0
H1727 H 0.52218 0.64855 0.98989 0.0
O1728 O 0.55227 0.68157 0.07325 0.0
H1729 H 0.41857 0.65589 0.07397 0.0
H1730 H 0.51406 0.63767 0.09768 0.0
H1731 H 0.39163 0.66469 0.98748 0.0
H1732 H 0.65686 0.7069 0.01817 0.0
H1733 H 0.42815 0.6629 0.96271 0.0
H1734 H 0.67291 0.77837 0.00696 0.0
O1735 O 0.43448 0.60365 0.02935 0.0
H1736 H 0.56156 0.55067 0.0699 0.0
H1737 H 0.42792 0.55886 0.07836 0.0
H1738 H 0.42848 0.49149 0.0855 0.0
H1739 H 0.49569 0.48713 0.0813 0.0
H1740 H 0.55945 0.61731 0.06281 0.0
H1741 H 0.48318 0.64075 0.12339 0.0
H1742 H 0.41881 0.65123 0.12437 0.0
O1743 O 0.43261 0.60754 0.05574 0.0
C1744 C 0.48573 0.71209 0.0447 0.0
C1745 C 0.41443 0.65412 0.09915 0.0
C1746 C 0.46875 0.64403 0.1126 0.0
N1747 N 0.46795 0.6463 0.08433 0.0
C1748 C 0.43269 0.65231 0.08477 0.0
C1749 C 0.48615 0.6424 0.09801 0.0
C1750 C 0.43262 0.64989 0.11314 0.0
C1751 C 0.58767 0.68273 0.01986 0.0
N1752 N 0.55453 0.69135 0.01743 0.0
C1753 C 0.63071 0.71383 0.01615 0.0
C1754 C 0.6397 0.75395 0.00988 0.0
C1755 C 0.60571 0.76248 0.00741 0.0
C1756 C 0.56308 0.73063 0.0113 0.0
C1757 C 0.47764 0.65549 0.97473 0.0
C1758 C 0.43713 0.65765 0.00236 0.0
C1759 C 0.49351 0.652 0.98941 0.0
N1760 N 0.47341 0.65333 0.00299 0.0
C1761 C 0.42033 0.66122 0.98789 0.0
C1762 C 0.44082 0.66017 0.974 0.0
C1763 C 0.41409 0.59306 0.04249 0.0
C1764 C 0.53212 0.55222 0.07183 0.0
C1765 C 0.45725 0.55718 0.07646 0.0
C1766 C 0.4574 0.51898 0.08056 0.0
C1767 C 0.49513 0.51656 0.0782 0.0
N1768 N 0.4937 0.59206 0.07025 0.0
C1769 C 0.53079 0.58991 0.06789 0.0
Co1770 Co 0.15152 0.64862 0.52352 0.0
Co1771 Co 0.15084 0.64624 0.56434 0.0
O1772 O 0.12343 0.6436 0.54394 0.0
C1773 C 0.07021 0.56361 0.52032 0.0
O1774 O 0.0784 0.55307 0.53423 0.0
C1775 C 0.1275 0.7155 0.56671 0.0
O1776 O 0.14172 0.72693 0.55223 0.0
O1777 O 0.20601 0.69979 0.55799 0.0
O1778 O 0.20825 0.69575 0.53164 0.0
H1779 H 0.27164 0.66196 0.59982 0.0
H1780 H 0.07002 0.65278 0.52488 0.0
O1781 O 0.09541 0.6013 0.51459 0.0
H1782 H 0.18048 0.79368 0.5021 0.0
H1783 H 0.15979 0.65358 0.46422 0.0
H1784 H 0.23625 0.65844 0.51343 0.0
H1785 H 0.19969 0.7377 0.50921 0.0
H1786 H 0.12541 0.64838 0.49003 0.0
O1787 O 0.1283 0.68352 0.57325 0.0
H1788 H 0.2365 0.65819 0.57431 0.0
H1789 H 0.12271 0.64029 0.59786 0.0
H1790 H 0.27195 0.6641 0.48789 0.0
H1791 H 0.04929 0.70772 0.51784 0.0
H1792 H 0.23365 0.66167 0.46304 0.0
H1793 H 0.10479 0.77882 0.5064 0.0
O1794 O 0.16807 0.60441 0.52979 0.0
H1795 H 0.98824 0.55241 0.57019 0.0
H1796 H 0.13022 0.56111 0.57891 0.0
H1797 H 0.06237 0.49387 0.58622 0.0
H1798 H 0.99073 0.48925 0.58188 0.0
H1799 H 0.0569 0.61893 0.56294 0.0
H1800 H 0.15675 0.64421 0.62363 0.0
H1801 H 0.23168 0.65495 0.62472 0.0
O1802 O 0.17413 0.60926 0.55617 0.0
C1803 C 0.22539 0.71337 0.54476 0.0
C1804 C 0.23892 0.65713 0.5995 0.0
C1805 C 0.17446 0.64723 0.61286 0.0
N1806 N 0.17748 0.64871 0.58459 0.0
C1807 C 0.2188 0.65486 0.58509 0.0
C1808 C 0.15538 0.64513 0.59823 0.0
C1809 C 0.2165 0.65324 0.61346 0.0
C1810 C 0.09422 0.68348 0.51977 0.0
N1811 N 0.13594 0.69195 0.51739 0.0
C1812 C 0.08235 0.71453 0.51586 0.0
C1813 C 0.11352 0.75444 0.50947 0.0
C1814 C 0.15601 0.76282 0.50707 0.0
C1815 C 0.16672 0.73103 0.51115 0.0
C1816 C 0.17683 0.65476 0.47497 0.0
C1817 C 0.21946 0.65761 0.50268 0.0
C1818 C 0.15749 0.65174 0.48961 0.0
N1819 N 0.17892 0.65341 0.50323 0.0
C1820 C 0.23981 0.66072 0.48825 0.0
C1821 C 0.21829 0.65931 0.47431 0.0
C1822 C 0.17803 0.59432 0.54299 0.0
C1823 C 0.01926 0.55407 0.57217 0.0
C1824 C 0.09917 0.55932 0.57695 0.0
C1825 C 0.06086 0.52119 0.58114 0.0
C1826 C 0.02068 0.51863 0.57872 0.0
N1827 N 0.09751 0.59399 0.57058 0.0
C1828 C 0.05824 0.5917 0.56815 0.0
Co1829 Co 0.35127 0.50811 0.52195 0.0
Co1830 Co 0.35085 0.50335 0.56267 0.0
O1831 O 0.3541 0.48157 0.5418 0.0
C1832 C 0.43503 0.50944 0.51931 0.0
O1833 O 0.44393 0.52569 0.53363 0.0
C1834 C 0.2777 0.41224 0.56346 0.0
O1835 O 0.26421 0.42046 0.55016 0.0
O1836 O 0.2986 0.5077 0.55654 0.0
O1837 O 0.3042 0.51746 0.5303 0.0
H1838 H 0.33562 0.6036 0.60085 0.0
H1839 H 0.34497 0.42132 0.52183 0.0
O1840 O 0.39867 0.49955 0.51295 0.0
H1841 H 0.20735 0.39742 0.49819 0.0
H1842 H 0.35152 0.52088 0.46282 0.0
H1843 H 0.34356 0.58532 0.51337 0.0
H1844 H 0.26379 0.47106 0.5067 0.0
H1845 H 0.3541 0.48739 0.48802 0.0
O1846 O 0.31223 0.44183 0.57006 0.0
H1847 H 0.34013 0.57638 0.57456 0.0
H1848 H 0.35368 0.47457 0.59548 0.0
H1849 H 0.34054 0.61967 0.48845 0.0
H1850 H 0.28954 0.34716 0.51338 0.0
H1851 H 0.34452 0.5874 0.46294 0.0
H1852 H 0.2201 0.33484 0.5015 0.0
O1853 O 0.39562 0.56752 0.52944 0.0
H1854 H 0.4417 0.43083 0.56657 0.0
H1855 H 0.43543 0.56423 0.57831 0.0
H1856 H 0.50145 0.56101 0.58528 0.0
H1857 H 0.50485 0.49392 0.57942 0.0
H1858 H 0.37644 0.43557 0.55968 0.0
H1859 H 0.349 0.50052 0.62201 0.0
H1860 H 0.34008 0.56559 0.62481 0.0
O1861 O 0.38922 0.56502 0.55582 0.0
C1862 C 0.28607 0.51565 0.54346 0.0
C1863 C 0.33964 0.5753 0.59978 0.0
C1864 C 0.34709 0.5174 0.61166 0.0
N1865 N 0.3475 0.52413 0.58349 0.0
C1866 C 0.34233 0.55979 0.58493 0.0
C1867 C 0.34963 0.50281 0.59661 0.0
C1868 C 0.3421 0.55393 0.61322 0.0
C1869 C 0.31498 0.41626 0.51655 0.0
N1870 N 0.30772 0.4505 0.51468 0.0
C1871 C 0.28366 0.37418 0.51183 0.0
C1872 C 0.24468 0.36729 0.50519 0.0
C1873 C 0.2375 0.40238 0.50334 0.0
C1874 C 0.26954 0.44399 0.50821 0.0
C1875 C 0.34968 0.53519 0.47386 0.0
C1876 C 0.34506 0.57094 0.50231 0.0
C1877 C 0.35121 0.51642 0.48817 0.0
N1878 N 0.34867 0.5342 0.50215 0.0
C1879 C 0.34345 0.5906 0.48824 0.0
C1880 C 0.34573 0.57251 0.47393 0.0
C1881 C 0.40505 0.58571 0.54298 0.0
C1882 C 0.44056 0.4602 0.56922 0.0
C1883 C 0.43669 0.53495 0.57569 0.0
C1884 C 0.47413 0.53329 0.5797 0.0
C1885 C 0.47601 0.49563 0.57641 0.0
N1886 N 0.40203 0.50003 0.56866 0.0
C1887 C 0.40364 0.46301 0.5654 0.0
Co1888 Co 0.49245 0.84636 0.52392 0.0
Co1889 Co 0.49124 0.84772 0.56475 0.0
O1890 O 0.51596 0.87475 0.54427 0.0
C1891 C 0.48989 0.92835 0.52028 0.0
O1892 O 0.471 0.92072 0.53416 0.0
C1893 C 0.58379 0.87086 0.56713 0.0
O1894 O 0.58102 0.85662 0.55265 0.0
O1895 O 0.48903 0.79209 0.55858 0.0
O1896 O 0.48235 0.78956 0.53225 0.0
H1897 H 0.38545 0.72805 0.60053 0.0
H1898 H 0.5786 0.92742 0.52509 0.0
O1899 O 0.50189 0.90258 0.51476 0.0
H1900 H 0.60725 0.81559 0.50258 0.0
H1901 H 0.48843 0.83655 0.46465 0.0
H1902 H 0.41693 0.76161 0.51413 0.0
H1903 H 0.53237 0.79721 0.5097 0.0
H1904 H 0.51804 0.87156 0.49034 0.0
O1905 O 0.55103 0.87008 0.57364 0.0
H1906 H 0.41702 0.76248 0.57494 0.0
H1907 H 0.51386 0.87641 0.5982 0.0
H1908 H 0.38647 0.72527 0.48871 0.0
H1909 H 0.65398 0.94734 0.51801 0.0
H1910 H 0.42228 0.7628 0.46373 0.0
H1911 H 0.66869 0.89115 0.50671 0.0
O1912 O 0.4319 0.83053 0.53024 0.0
H1913 H 0.56122 0.01066 0.5701 0.0
H1914 H 0.42736 0.86922 0.57924 0.0
H1915 H 0.42863 0.93752 0.58631 0.0
H1916 H 0.49596 0.0089 0.58177 0.0
H1917 H 0.55839 0.94156 0.56308 0.0
H1918 H 0.48356 0.84304 0.62405 0.0
H1919 H 0.41878 0.7684 0.62533 0.0
O1920 O 0.43103 0.82468 0.55662 0.0
C1921 C 0.4829 0.77249 0.54539 0.0
C1922 C 0.41361 0.76064 0.60013 0.0
C1923 C 0.46871 0.82515 0.61333 0.0
N1924 N 0.46707 0.82153 0.58507 0.0
C1925 C 0.43157 0.78036 0.58567 0.0
C1926 C 0.48579 0.84384 0.59866 0.0
C1927 C 0.43235 0.78328 0.61404 0.0
C1928 C 0.58471 0.90292 0.52004 0.0
N1929 N 0.55112 0.86126 0.51776 0.0
C1930 C 0.62747 0.91433 0.51612 0.0
C1931 C 0.63571 0.88277 0.5098 0.0
C1932 C 0.60125 0.84036 0.50749 0.0
C1933 C 0.55893 0.83011 0.51159 0.0
C1934 C 0.47257 0.81984 0.47546 0.0
C1935 C 0.43286 0.77807 0.50331 0.0
C1936 C 0.48914 0.83955 0.49004 0.0
N1937 N 0.46941 0.81854 0.50373 0.0
C1938 C 0.41538 0.75736 0.48896 0.0
C1939 C 0.43547 0.77845 0.47495 0.0
C1940 C 0.41205 0.82085 0.54349 0.0
C1941 C 0.53173 0.97976 0.57217 0.0
C1942 C 0.45673 0.90015 0.57719 0.0
C1943 C 0.45729 0.93872 0.58125 0.0
C1944 C 0.49508 0.97875 0.57871 0.0
N1945 N 0.49285 0.90141 0.57082 0.0
C1946 C 0.52999 0.94053 0.56828 0.0
Co1947 Co 0.31247 0.48634 0.31135 0.0
Co1948 Co 0.31008 0.48504 0.27052 0.0
O1949 O 0.30759 0.45794 0.291 0.0
C1950 C 0.22783 0.4044 0.31497 0.0
O1951 O 0.2166 0.41205 0.30109 0.0
C1952 C 0.37918 0.46144 0.26817 0.0
O1953 O 0.39066 0.47561 0.28265 0.0
O1954 O 0.36363 0.54054 0.27671 0.0
O1955 O 0.35924 0.54312 0.30303 0.0
H1956 H 0.32464 0.60499 0.23474 0.0
H1957 H 0.31739 0.40519 0.3102 0.0
O1958 O 0.26561 0.43016 0.3205 0.0
H1959 H 0.45789 0.51687 0.33276 0.0
H1960 H 0.3181 0.49614 0.37062 0.0
H1961 H 0.3218 0.57115 0.32113 0.0
H1962 H 0.40149 0.53537 0.3256 0.0
H1963 H 0.31272 0.46111 0.34493 0.0
O1964 O 0.34733 0.46244 0.26165 0.0
H1965 H 0.32152 0.57044 0.26033 0.0
H1966 H 0.30398 0.45634 0.23707 0.0
H1967 H 0.32767 0.60751 0.34654 0.0
H1968 H 0.37275 0.38515 0.31733 0.0
H1969 H 0.32582 0.56994 0.37153 0.0
H1970 H 0.44364 0.44126 0.32865 0.0
O1971 O 0.26783 0.50227 0.305 0.0
H1972 H 0.21656 0.32215 0.26516 0.0
H1973 H 0.22485 0.46391 0.25599 0.0
H1974 H 0.15769 0.39578 0.24889 0.0
H1975 H 0.15327 0.32424 0.25345 0.0
H1976 H 0.28299 0.3911 0.2722 0.0
H1977 H 0.30731 0.48982 0.21122 0.0
H1978 H 0.31753 0.5646 0.20994 0.0
O1979 O 0.27307 0.50831 0.27863 0.0
C1980 C 0.37701 0.56014 0.2899 0.0
C1981 C 0.32007 0.57234 0.23514 0.0
C1982 C 0.31039 0.50772 0.22194 0.0
N1983 N 0.31228 0.51131 0.2502 0.0
C1984 C 0.31816 0.55255 0.2496 0.0
C1985 C 0.30864 0.48897 0.23661 0.0
C1986 C 0.31611 0.54967 0.22123 0.0
C1987 C 0.34801 0.42966 0.31527 0.0
N1988 N 0.35615 0.47135 0.31753 0.0
C1989 C 0.37929 0.41817 0.31922 0.0
C1990 C 0.41909 0.44969 0.32554 0.0
C1991 C 0.42712 0.49213 0.32784 0.0
C1992 C 0.39511 0.50245 0.32372 0.0
C1993 C 0.31901 0.51286 0.35981 0.0
C1994 C 0.32121 0.55467 0.33195 0.0
C1995 C 0.31587 0.49314 0.34523 0.0
N1996 N 0.31722 0.51417 0.33154 0.0
C1997 C 0.32443 0.57539 0.3463 0.0
C1998 C 0.32336 0.55428 0.36031 0.0
C1999 C 0.25783 0.5121 0.29175 0.0
C2000 C 0.21813 0.35313 0.26308 0.0
C2001 C 0.22315 0.43292 0.25805 0.0
C2002 C 0.18506 0.39445 0.25397 0.0
C2003 C 0.18261 0.35432 0.25652 0.0
N2004 N 0.25789 0.43148 0.26443 0.0
C2005 C 0.25571 0.39227 0.26699 0.0
Co2006 Co 0.50985 0.8246 0.31322 0.0
Co2007 Co 0.51479 0.82917 0.2725 0.0
O2008 O 0.5395 0.85103 0.2934 0.0
C2009 C 0.59211 0.823 0.31612 0.0
O2010 O 0.58496 0.80666 0.30182 0.0
C2011 C 0.53257 0.92021 0.2716 0.0
O2012 O 0.51063 0.91194 0.28485 0.0
O2013 O 0.45802 0.82472 0.27847 0.0
O2014 O 0.45361 0.81538 0.30473 0.0
H2015 H 0.4001 0.7286 0.23415 0.0
H2016 H 0.59046 0.91128 0.31339 0.0
O2017 O 0.56562 0.83305 0.32237 0.0
H2018 H 0.47668 0.93566 0.33668 0.0
H2019 H 0.49645 0.81208 0.37234 0.0
H2020 H 0.4247 0.74757 0.32171 0.0
H2021 H 0.4594 0.86192 0.32827 0.0
H2022 H 0.53294 0.8454 0.34718 0.0
O2023 O 0.53772 0.89068 0.26507 0.0
H2024 H 0.43131 0.75601 0.26048 0.0
H2025 H 0.54691 0.85791 0.23973 0.0
H2026 H 0.38692 0.71339 0.34658 0.0
H2027 H 0.60927 0.98554 0.32174 0.0
H2028 H 0.42283 0.7457 0.37214 0.0
H2029 H 0.55211 0.9981 0.33345 0.0
O2030 O 0.49474 0.76512 0.3058 0.0
H2031 H 0.67823 0.90192 0.26897 0.0
H2032 H 0.53888 0.76834 0.25706 0.0
H2033 H 0.6083 0.77166 0.2503 0.0
H2034 H 0.67862 0.83884 0.25625 0.0
H2035 H 0.60807 0.89708 0.27564 0.0
H2036 H 0.5168 0.83178 0.21316 0.0
H2037 H 0.44296 0.76657 0.21025 0.0
O2038 O 0.49146 0.76754 0.2794 0.0
C2039 C 0.43742 0.81699 0.29152 0.0
C2040 C 0.43237 0.75697 0.23526 0.0
C2041 C 0.49784 0.81492 0.22349 0.0
N2042 N 0.49102 0.80832 0.25164 0.0
C2043 C 0.45027 0.77259 0.25014 0.0
C2044 C 0.51468 0.82962 0.23856 0.0
C2045 C 0.45642 0.77831 0.22186 0.0
C2046 C 0.56552 0.91645 0.3186 0.0
N2047 N 0.52395 0.88229 0.32042 0.0
C2048 C 0.57631 0.95858 0.32325 0.0
C2049 C 0.54421 0.96561 0.3298 0.0
C2050 C 0.50188 0.9306 0.33161 0.0
C2051 C 0.49226 0.88893 0.3268 0.0
C2052 C 0.48044 0.79775 0.36128 0.0
C2053 C 0.44045 0.76197 0.33278 0.0
C2054 C 0.50098 0.81642 0.347 0.0
N2055 N 0.48084 0.79863 0.33299 0.0
C2056 C 0.41893 0.7424 0.34682 0.0
C2057 C 0.43912 0.76051 0.36116 0.0
C2058 C 0.48628 0.74688 0.29227 0.0
C2059 C 0.6478 0.87251 0.26628 0.0
C2060 C 0.56935 0.79766 0.25971 0.0
C2061 C 0.60855 0.79937 0.25583 0.0
C2062 C 0.648 0.83709 0.25916 0.0
N2063 N 0.56943 0.83258 0.26666 0.0
C2064 C 0.60797 0.86965 0.26997 0.0
Co2065 Co 0.17017 0.68493 0.31158 0.0
Co2066 Co 0.17131 0.6867 0.27076 0.0
O2067 O 0.14683 0.68972 0.29118 0.0
C2068 C 0.17364 0.76988 0.31484 0.0
O2069 O 0.19246 0.78062 0.30094 0.0
C2070 C 0.07848 0.61789 0.26849 0.0
O2071 O 0.0813 0.60646 0.28297 0.0
O2072 O 0.17255 0.63298 0.27715 0.0
O2073 O 0.17991 0.63787 0.30346 0.0
H2074 H 0.27546 0.66966 0.23521 0.0
H2075 H 0.08435 0.68042 0.31033 0.0
O2076 O 0.16124 0.73216 0.32052 0.0
H2077 H 0.05472 0.53988 0.33321 0.0
H2078 H 0.17426 0.68045 0.37087 0.0
H2079 H 0.24543 0.67556 0.32156 0.0
H2080 H 0.12973 0.59599 0.32598 0.0
H2081 H 0.14465 0.68528 0.3451 0.0
O2082 O 0.11134 0.64969 0.26192 0.0
H2083 H 0.24453 0.674 0.26074 0.0
H2084 H 0.14896 0.69256 0.23726 0.0
H2085 H 0.27591 0.67029 0.34705 0.0
H2086 H 0.00884 0.62534 0.3175 0.0
H2087 H 0.24026 0.67274 0.37195 0.0
H2088 H 0.99365 0.55443 0.32899 0.0
O2089 O 0.23078 0.72925 0.3052 0.0
H2090 H 0.10358 0.78146 0.26488 0.0
H2091 H 0.23612 0.7715 0.25607 0.0
H2092 H 0.23602 0.83896 0.2487 0.0
H2093 H 0.16936 0.84421 0.25308 0.0
H2094 H 0.10523 0.71472 0.27219 0.0
H2095 H 0.17867 0.68809 0.21146 0.0
H2096 H 0.24247 0.67673 0.21033 0.0
O2097 O 0.23175 0.72343 0.27886 0.0
C2098 C 0.17888 0.61981 0.29038 0.0
C2099 C 0.24773 0.67476 0.23555 0.0
C2100 C 0.19337 0.68505 0.22222 0.0
N2101 N 0.19517 0.68383 0.25049 0.0
C2102 C 0.23014 0.67736 0.24997 0.0
C2103 C 0.17664 0.68746 0.23686 0.0
C2104 C 0.22918 0.67868 0.2216 0.0
C2105 C 0.07802 0.64979 0.31546 0.0
N2106 N 0.11141 0.6415 0.31779 0.0
C2107 C 0.03519 0.61867 0.31944 0.0
C2108 C 0.02668 0.57886 0.32586 0.0
C2109 C 0.06093 0.57066 0.32822 0.0
C2110 C 0.10332 0.60251 0.32407 0.0
C2111 C 0.19003 0.67927 0.3601 0.0
C2112 C 0.22957 0.67639 0.33233 0.0
C2113 C 0.17346 0.68208 0.34548 0.0
N2114 N 0.1931 0.6804 0.33183 0.0
C2115 C 0.24705 0.67351 0.34674 0.0
C2116 C 0.22706 0.67493 0.3607 0.0
C2117 C 0.25073 0.73881 0.29198 0.0
C2118 C 0.13278 0.77953 0.26288 0.0
C2119 C 0.20703 0.77358 0.25805 0.0
C2120 C 0.20714 0.81183 0.25382 0.0
C2121 C 0.16972 0.81474 0.25627 0.0
N2122 N 0.17063 0.73913 0.26448 0.0
C2123 C 0.13385 0.74177 0.26694 0.0
C2124 C 0.3051 0.12356 0.17292 0.0
C2125 C 0.29782 0.13477 0.15774 0.0
H2126 H 0.34361 0.14462 0.19396 0.0
C2127 C 0.32509 0.17747 0.15221 0.0
H2128 H 0.28462 0.09096 0.17757 0.0
C2129 C 0.35884 0.20829 0.16166 0.0
C2130 C 0.3661 0.19708 0.17684 0.0
H2131 H 0.32031 0.18722 0.14062 0.0
H2132 H 0.37933 0.2409 0.15701 0.0
C2133 C 0.33884 0.15437 0.18236 0.0
C2134 C 0.79222 0.15553 0.1606 0.0
C2135 C 0.80109 0.17101 0.17621 0.0
H2136 H 0.81536 0.13921 0.13984 0.0
C2137 C 0.84172 0.18211 0.18284 0.0
H2138 H 0.76126 0.14676 0.15511 0.0
C2139 C 0.87279 0.17784 0.17405 0.0
C2140 C 0.86389 0.16234 0.15844 0.0
H2141 H 0.84961 0.19416 0.19482 0.0
H2142 H 0.90375 0.18659 0.17953 0.0
C2143 C 0.82328 0.15127 0.15181 0.0
C2144 C 0.81308 0.65955 0.18284 0.0
C2145 C 0.82773 0.63154 0.17747 0.0
H2146 H 0.80549 0.71468 0.17784 0.0
C2147 C 0.84648 0.63843 0.16234 0.0
H2148 H 0.79839 0.65512 0.19439 0.0
C2149 C 0.85043 0.67251 0.15281 0.0
C2150 C 0.83578 0.70053 0.15817 0.0
H2151 H 0.85803 0.61739 0.1578 0.0
H2152 H 0.86512 0.67694 0.14126 0.0
C2153 C 0.81704 0.69364 0.1733 0.0
C2154 C 0.12326 0.30528 0.32892 0.0
C2155 C 0.13505 0.29838 0.34406 0.0
H2156 H 0.14322 0.34379 0.30784 0.0
C2157 C 0.1777 0.32637 0.34944 0.0
H2158 H 0.09068 0.28427 0.32436 0.0
C2159 C 0.20787 0.36044 0.33992 0.0
C2160 C 0.19608 0.36734 0.32478 0.0
H2161 H 0.18791 0.32193 0.361 0.0
H2162 H 0.24045 0.38146 0.34447 0.0
C2163 C 0.15343 0.33935 0.31939 0.0
C2164 C 0.69456 0.82117 0.32779 0.0
C2165 C 0.70106 0.83694 0.34336 0.0
H2166 H 0.65535 0.80466 0.30695 0.0
C2167 C 0.67158 0.84831 0.34984 0.0
H2168 H 0.71673 0.81218 0.32241 0.0
C2169 C 0.63642 0.84407 0.34094 0.0
C2170 C 0.62994 0.82832 0.32537 0.0
H2171 H 0.67566 0.86059 0.36178 0.0
H2172 H 0.61426 0.85306 0.34632 0.0
C2173 C 0.65941 0.81693 0.31889 0.0
C2174 C 0.14751 0.82167 0.34915 0.0
C2175 C 0.16273 0.86433 0.34362 0.0
H2176 H 0.13864 0.75837 0.34438 0.0
C2177 C 0.18116 0.87557 0.32844 0.0
H2178 H 0.13303 0.81189 0.36076 0.0
C2179 C 0.18426 0.84484 0.319 0.0
C2180 C 0.16904 0.80219 0.32453 0.0
H2181 H 0.19311 0.90815 0.32377 0.0
H2182 H 0.19874 0.85462 0.30739 0.0
C2183 C 0.1506 0.79094 0.33971 0.0
C2184 C 0.63854 0.79078 0.83944 0.0
C2185 C 0.6313 0.80217 0.82429 0.0
H2186 H 0.67698 0.81161 0.8605 0.0
C2187 C 0.65853 0.84494 0.81884 0.0
H2188 H 0.61808 0.7581 0.84405 0.0
C2189 C 0.69222 0.87566 0.82832 0.0
C2190 C 0.69947 0.86427 0.84347 0.0
H2191 H 0.65377 0.85482 0.80726 0.0
H2192 H 0.71269 0.90833 0.82372 0.0
C2193 C 0.67222 0.82149 0.84893 0.0
C2194 C 0.175 0.84856 0.84969 0.0
C2195 C 0.13437 0.83731 0.84303 0.0
H2196 H 0.2372 0.85337 0.84643 0.0
C2197 C 0.12563 0.82184 0.82742 0.0
H2198 H 0.18279 0.8606 0.86167 0.0
C2199 C 0.15684 0.81777 0.81865 0.0
C2200 C 0.19748 0.82903 0.82531 0.0
H2201 H 0.09467 0.81295 0.8219 0.0
H2202 H 0.14904 0.80573 0.80667 0.0
C2203 C 0.20623 0.84449 0.84092 0.0
C2204 C 0.14685 0.3262 0.84905 0.0
C2205 C 0.16127 0.298 0.84369 0.0
H2206 H 0.13964 0.38155 0.84406 0.0
C2207 C 0.17998 0.30478 0.82856 0.0
H2208 H 0.13219 0.32186 0.8606 0.0
C2209 C 0.18415 0.33894 0.81902 0.0
C2210 C 0.16976 0.36716 0.82439 0.0
H2211 H 0.19136 0.28359 0.82402 0.0
H2212 H 0.19882 0.3433 0.80747 0.0
C2213 C 0.15102 0.36037 0.83951 0.0
C2214 C 0.79055 0.6389 0.66185 0.0
C2215 C 0.80231 0.632 0.67699 0.0
H2216 H 0.81051 0.67749 0.64078 0.0
C2217 C 0.84492 0.66006 0.6824 0.0
H2218 H 0.758 0.61782 0.65727 0.0
C2219 C 0.87507 0.6942 0.6729 0.0
C2220 C 0.86329 0.70111 0.65776 0.0
H2221 H 0.8551 0.65562 0.69396 0.0
H2222 H 0.90761 0.71528 0.67747 0.0
C2223 C 0.82069 0.67304 0.65234 0.0
C2224 C 0.33892 0.18212 0.68309 0.0
C2225 C 0.36845 0.17122 0.67633 0.0
H2226 H 0.28125 0.18647 0.67998 0.0
C2227 C 0.36173 0.15597 0.66069 0.0
H2228 H 0.34316 0.19398 0.69509 0.0
C2229 C 0.32626 0.15173 0.65199 0.0
C2230 C 0.29672 0.1626 0.65875 0.0
H2231 H 0.38393 0.14736 0.6551 0.0
H2232 H 0.32201 0.13985 0.63999 0.0
C2233 C 0.30346 0.17788 0.67439 0.0
C2234 C 0.84798 0.20863 0.66225 0.0
C2235 C 0.82949 0.19752 0.67743 0.0
H2236 H 0.86529 0.18738 0.64123 0.0
C2237 C 0.81389 0.15481 0.68297 0.0
H2238 H 0.86022 0.24124 0.65758 0.0
C2239 C 0.81668 0.12389 0.67354 0.0
C2240 C 0.83516 0.135 0.65836 0.0
H2241 H 0.79936 0.14515 0.69457 0.0
H2242 H 0.80444 0.09127 0.67821 0.0
C2243 C 0.85076 0.17771 0.65282 0.0
C2244 C 0.02602 0.54212 0.49547 0.0
C2245 C 0.03334 0.53111 0.51067 0.0
H2246 H 0.98742 0.5208 0.47445 0.0
C2247 C 0.00607 0.48849 0.51627 0.0
H2248 H 0.0465 0.57466 0.49076 0.0
C2249 C 0.97228 0.45756 0.50687 0.0
C2250 C 0.96496 0.46858 0.49166 0.0
H2251 H 0.01089 0.47889 0.52789 0.0
H2252 H 0.95179 0.42502 0.51158 0.0
C2253 C 0.99223 0.5112 0.48607 0.0
C2254 C 0.50828 0.5151 0.51683 0.0
C2255 C 0.46768 0.50404 0.51019 0.0
H2256 H 0.57029 0.51957 0.51355 0.0
C2257 C 0.45881 0.48856 0.49458 0.0
H2258 H 0.51616 0.52714 0.52881 0.0
C2259 C 0.48989 0.48429 0.48579 0.0
C2260 C 0.53049 0.49536 0.49243 0.0
H2261 H 0.42787 0.47983 0.48908 0.0
H2262 H 0.48202 0.47225 0.47382 0.0
C2263 C 0.53934 0.51082 0.50805 0.0
C2264 C 0.51785 0.00639 0.48581 0.0
C2265 C 0.50311 0.03434 0.49118 0.0
H2266 H 0.52558 0.95135 0.4908 0.0
C2267 C 0.48434 0.02739 0.5063 0.0
H2268 H 0.53256 0.01088 0.47426 0.0
C2269 C 0.48046 0.99335 0.51583 0.0
C2270 C 0.49521 0.96541 0.51046 0.0
H2271 H 0.47272 0.04837 0.51085 0.0
H2272 H 0.46576 0.98887 0.52738 0.0
C2273 C 0.51396 0.97234 0.49534 0.0
C2274 C 0.51083 0.99283 0.01602 0.0
C2275 C 0.46823 0.96474 0.01061 0.0
H2276 H 0.57352 0.04806 0.01109 0.0
C2277 C 0.45647 0.97162 0.99547 0.0
H2278 H 0.52102 0.98841 0.02759 0.0
C2279 C 0.48661 0.00575 0.98596 0.0
C2280 C 0.52921 0.03383 0.99137 0.0
H2281 H 0.42393 0.95053 0.99089 0.0
H2282 H 0.47642 0.01016 0.97439 0.0
C2283 C 0.54098 0.02697 0.00651 0.0
C2284 C 0.99269 0.48417 0.98499 0.0
C2285 C 0.96321 0.49528 0.99165 0.0
H2286 H 0.05018 0.47958 0.98825 0.0
C2287 C 0.96987 0.51073 0.00727 0.0
H2288 H 0.9885 0.47215 0.97301 0.0
C2289 C 0.00521 0.51492 0.01604 0.0
C2290 C 0.03468 0.5038 0.00938 0.0
H2291 H 0.9477 0.5195 0.01278 0.0
H2292 H 0.00941 0.52694 0.02802 0.0
C2293 C 0.02802 0.48836 0.99376 0.0
C2294 C 0.51741 0.5109 0.98561 0.0
C2295 C 0.50189 0.46818 0.99113 0.0
H2296 H 0.52672 0.57437 0.99041 0.0
C2297 C 0.48339 0.45699 0.00631 0.0
H2298 H 0.53195 0.52063 0.97402 0.0
C2299 C 0.48052 0.48783 0.01575 0.0
C2300 C 0.49604 0.53055 0.01024 0.0
H2301 H 0.47121 0.42437 0.01096 0.0
H2302 H 0.46598 0.4781 0.02735 0.0
C2303 C 0.51454 0.54174 0.99506 0.0
C2304 C 0.24128 0.90666 0.10081 0.0
C2305 C 0.22201 0.92744 0.09279 0.0
H2306 H 0.27679 0.87244 0.09887 0.0
C2307 C 0.22181 0.9274 0.07621 0.0
H2308 H 0.24202 0.90636 0.11357 0.0
C2309 C 0.24089 0.90724 0.06779 0.0
C2310 C 0.26145 0.88773 0.07581 0.0
H2311 H 0.20698 0.94306 0.06973 0.0
H2312 H 0.2407 0.90808 0.05503 0.0
C2313 C 0.2613 0.88744 0.09239 0.0
C2314 C 0.08239 0.35029 0.07809 0.0
C2315 C 0.12479 0.38057 0.08316 0.0
H2316 H 0.02668 0.28647 0.08091 0.0
C2317 C 0.14373 0.36857 0.09533 0.0
H2318 H 0.06686 0.35856 0.06876 0.0
C2319 C 0.12048 0.32746 0.10245 0.0
C2320 C 0.07803 0.29726 0.09742 0.0
H2321 H 0.17623 0.39124 0.09959 0.0
H2322 H 0.13583 0.31936 0.11189 0.0
C2323 C 0.05937 0.30899 0.08507 0.0
C2324 C 0.66663 0.75788 0.06775 0.0
C2325 C 0.62648 0.73677 0.0757 0.0
H2326 H 0.73633 0.79234 0.06979 0.0
C2327 C 0.62613 0.73649 0.09228 0.0
H2328 H 0.66783 0.75843 0.05498 0.0
C2329 C 0.66527 0.75664 0.10076 0.0
C2330 C 0.70542 0.77648 0.0928 0.0
H2331 H 0.59556 0.72057 0.09871 0.0
H2332 H 0.6641 0.75556 0.11352 0.0
C2333 C 0.70576 0.77709 0.07622 0.0
C2334 C 0.90868 0.24118 0.43445 0.0
C2335 C 0.88951 0.26211 0.42646 0.0
H2336 H 0.94405 0.20683 0.43247 0.0
C2337 C 0.8894 0.26223 0.40988 0.0
H2338 H 0.90936 0.24076 0.44721 0.0
C2339 C 0.90843 0.24207 0.40143 0.0
C2340 C 0.92886 0.2224 0.40943 0.0
H2341 H 0.87465 0.27801 0.40342 0.0
H2342 H 0.90829 0.24301 0.38867 0.0
C2343 C 0.92866 0.22196 0.42601 0.0
C2344 C 0.77439 0.63011 0.40634 0.0
C2345 C 0.74364 0.61821 0.41857 0.0
H2346 H 0.81559 0.67927 0.38974 0.0
C2347 C 0.73173 0.64858 0.42371 0.0
H2348 H 0.78405 0.60735 0.40202 0.0
C2349 C 0.75004 0.6899 0.41674 0.0
C2350 C 0.78025 0.70155 0.40433 0.0
H2351 H 0.70809 0.6404 0.43309 0.0
H2352 H 0.74005 0.71251 0.42095 0.0
C2353 C 0.79228 0.67124 0.39922 0.0
C2354 C 0.37355 0.11135 0.40924 0.0
C2355 C 0.37333 0.111 0.42582 0.0
H2356 H 0.33546 0.09241 0.38803 0.0
C2357 C 0.33323 0.09132 0.43381 0.0
H2358 H 0.40408 0.12647 0.40278 0.0
C2359 C 0.29404 0.07109 0.42537 0.0
C2360 C 0.29427 0.07112 0.40878 0.0
H2361 H 0.33213 0.09044 0.44657 0.0
H2362 H 0.26351 0.05532 0.43182 0.0
C2363 C 0.33436 0.09206 0.40079 0.0
C2364 C 0.7749 0.06968 0.92562 0.0
C2365 C 0.77495 0.07002 0.90904 0.0
H2366 H 0.75587 0.0887 0.94685 0.0
C2367 C 0.75594 0.09113 0.90107 0.0
H2368 H 0.78952 0.05375 0.93206 0.0
C2369 C 0.73596 0.11031 0.90953 0.0
C2370 C 0.73559 0.10967 0.92611 0.0
H2371 H 0.75538 0.09172 0.88831 0.0
H2372 H 0.72069 0.12559 0.90308 0.0
C2373 C 0.75586 0.08981 0.93409 0.0
C2374 C 0.87195 0.66098 0.93598 0.0
C2375 C 0.88404 0.63072 0.93087 0.0
H2376 H 0.88012 0.72484 0.9332 0.0
C2377 C 0.91431 0.64244 0.91848 0.0
H2378 H 0.84859 0.65289 0.94545 0.0
C2379 C 0.93262 0.68378 0.91152 0.0
C2380 C 0.92064 0.71411 0.91667 0.0
H2381 H 0.92435 0.61987 0.91427 0.0
H2382 H 0.95631 0.69203 0.90216 0.0
C2383 C 0.88983 0.70213 0.92888 0.0
C2384 C 0.33027 0.24039 0.93408 0.0
C2385 C 0.37034 0.26116 0.92607 0.0
H2386 H 0.26055 0.20623 0.93213 0.0
C2387 C 0.37051 0.26114 0.90949 0.0
H2388 H 0.32921 0.24008 0.94684 0.0
C2389 C 0.33129 0.24102 0.90106 0.0
C2390 C 0.29122 0.22153 0.90907 0.0
H2391 H 0.40102 0.27679 0.90302 0.0
H2392 H 0.33234 0.24187 0.8883 0.0
C2393 C 0.29105 0.22122 0.92565 0.0
C2394 C 0.09046 0.759 0.6005 0.0
C2395 C 0.06987 0.77847 0.59249 0.0
H2396 H 0.12435 0.72315 0.59856 0.0
C2397 C 0.06994 0.77871 0.57591 0.0
H2398 H 0.09072 0.75821 0.61327 0.0
C2399 C 0.08991 0.75945 0.56749 0.0
C2400 C 0.1092 0.73868 0.5755 0.0
H2401 H 0.05442 0.79369 0.56944 0.0
H2402 H 0.08909 0.75969 0.55472 0.0
C2403 C 0.10949 0.7388 0.59208 0.0
C2404 C 0.18726 0.29727 0.57291 0.0
C2405 C 0.20601 0.28532 0.58516 0.0
H2406 H 0.19538 0.34647 0.55631 0.0
C2407 C 0.24829 0.31566 0.59033 0.0
H2408 H 0.15486 0.27454 0.56858 0.0
C2409 C 0.27137 0.35698 0.58337 0.0
C2410 C 0.2529 0.36867 0.57094 0.0
H2411 H 0.26367 0.30743 0.59972 0.0
H2412 H 0.30395 0.37954 0.5876 0.0
C2413 C 0.21058 0.3384 0.56581 0.0
C2414 C 0.70451 0.92888 0.57645 0.0
C2415 C 0.70419 0.92873 0.59303 0.0
H2416 H 0.66651 0.90979 0.55522 0.0
C2417 C 0.66405 0.90784 0.601 0.0
H2418 H 0.73507 0.94462 0.57002 0.0
C2419 C 0.62491 0.88873 0.59253 0.0
C2420 C 0.62522 0.88921 0.57595 0.0
H2421 H 0.66289 0.9074 0.61376 0.0
H2422 H 0.59435 0.87364 0.59897 0.0
C2423 C 0.66536 0.90881 0.56798 0.0
C2424 C 0.59516 0.55543 0.75862 0.0
C2425 C 0.59557 0.5559 0.74204 0.0
H2426 H 0.57573 0.57429 0.77977 0.0
C2427 C 0.57535 0.5757 0.73399 0.0
H2428 H 0.6104 0.5402 0.76512 0.0
C2429 C 0.55633 0.59595 0.74238 0.0
C2430 C 0.55625 0.5958 0.75897 0.0
H2431 H 0.57538 0.57667 0.72123 0.0
H2432 H 0.54175 0.61184 0.73589 0.0
C2433 C 0.5752 0.57474 0.76701 0.0
C2434 C 0.41614 0.01807 0.74501 0.0
C2435 C 0.4584 0.04845 0.75018 0.0
H2436 H 0.36056 0.95411 0.74773 0.0
C2437 C 0.47721 0.03652 0.76242 0.0
H2438 H 0.40071 0.02628 0.73563 0.0
C2439 C 0.45397 0.99536 0.76951 0.0
C2440 C 0.41166 0.96504 0.76437 0.0
H2441 H 0.5096 0.05927 0.76675 0.0
H2442 H 0.46922 0.98731 0.77899 0.0
C2443 C 0.39313 0.97672 0.75196 0.0
C2444 C 0.00023 0.42554 0.73456 0.0
C2445 C 0.96019 0.4044 0.74258 0.0
H2446 H 0.06994 0.46007 0.73647 0.0
C2447 C 0.96008 0.40411 0.75916 0.0
H2448 H 0.00125 0.4261 0.72179 0.0
C2449 C -0.00066 0.42429 0.76757 0.0
C2450 C 0.03937 0.44415 0.75954 0.0
H2451 H 0.9296 0.38816 0.76564 0.0
H2452 H 0.99835 0.4232 0.78033 0.0
C2453 C 0.03947 0.44478 0.74296 0.0
C2454 C 0.42226 0.42421 0.23431 0.0
C2455 C 0.44137 0.40318 0.24228 0.0
H2456 H 0.38699 0.45864 0.23633 0.0
C2457 C 0.44147 0.40297 0.25886 0.0
H2458 H 0.42159 0.4247 0.22155 0.0
C2459 C 0.42249 0.42315 0.26733 0.0
C2460 C 0.40212 0.44292 0.25936 0.0
H2461 H 0.45617 0.38712 0.2653 0.0
H2462 H 0.42262 0.42214 0.28009 0.0
C2463 C 0.40234 0.44344 0.24278 0.0
C2464 C 0.58199 0.97575 0.25185 0.0
C2465 C 0.55133 0.96378 0.26412 0.0
H2466 H 0.62421 0.02554 0.23564 0.0
C2467 C 0.53873 0.99377 0.26909 0.0
H2468 H 0.59242 0.95339 0.24775 0.0
C2469 C 0.55651 0.0349 0.26199 0.0
C2470 C 0.58772 0.04715 0.24991 0.0
H2471 H 0.51504 0.98547 0.27846 0.0
H2472 H 0.54639 0.05739 0.2662 0.0
C2473 C 0.6002 0.01708 0.2449 0.0
C2474 C 0.95763 0.55496 0.25938 0.0
C2475 C 0.95769 0.55506 0.2428 0.0
H2476 H 0.99592 0.57403 0.28054 0.0
C2477 C 0.99772 0.57445 0.23476 0.0
H2478 H 0.92717 0.54006 0.26588 0.0
C2479 C 0.03699 0.59463 0.24315 0.0
C2480 C 0.03693 0.59483 0.25973 0.0
H2481 H 0.99869 0.57515 0.22199 0.0
H2482 H 0.06746 0.61017 0.23665 0.0
C2483 C 0.9969 0.5742 0.26777 0.0
C2484 C 0.09463 0.13051 0.13924 0.0
C2485 C 0.07953 0.13828 0.12491 0.0
H2486 H 0.12991 0.10377 0.15066 0.0
C2487 C 0.0938 0.12924 0.11071 0.0
H2488 H 0.08466 0.13743 0.15044 0.0
C2489 C 0.11987 0.10987 0.11086 0.0
C2490 C 0.13229 0.09915 0.12522 0.0
H2491 H 0.083 0.13495 0.09947 0.0
H2492 H 0.12854 0.10149 0.09968 0.0
C2493 C 0.1207 0.11119 0.1394 0.0
C2494 C 0.88482 0.0072 0.13872 0.0
C2495 C 0.89868 0.0322 0.12485 0.0
H2496 H 0.85743 0.94394 0.1491 0.0
C2497 C 0.88996 0.01039 0.11025 0.0
H2498 H 0.89062 0.02274 0.15015 0.0
C2499 C 0.87082 0.9649 0.10962 0.0
C2500 C 0.86 0.94026 0.12358 0.0
H2501 H 0.89981 0.02854 0.09929 0.0
H2502 H 0.86672 0.94943 0.09824 0.0
C2503 C 0.86573 0.96183 0.13809 0.0
C2504 C 0.99144 0.87747 0.13873 0.0
C2505 C 0.96719 0.86566 0.1247 0.0
H2506 H 0.05429 0.91357 0.14939 0.0
C2507 C 0.98968 0.87752 0.11021 0.0
H2508 H 0.9753 0.86866 0.15009 0.0
C2509 C 0.03511 0.90341 0.10977 0.0
C2510 C 0.05909 0.91804 0.12382 0.0
H2511 H 0.97214 0.86862 0.09913 0.0
H2512 H 0.05107 0.91385 0.09842 0.0
C2513 C 0.03687 0.90333 0.1383 0.0
C2514 C 0.11348 0.12141 0.36322 0.0
C2515 C 0.10112 0.13309 0.3773 0.0
H2516 H 0.14016 0.08541 0.35243 0.0
C2517 C 0.11181 0.12106 0.39175 0.0
H2518 H 0.10611 0.13036 0.35189 0.0
C2519 C 0.13133 0.09514 0.39209 0.0
C2520 C 0.14062 0.08066 0.37799 0.0
H2521 H 0.10323 0.12986 0.40286 0.0
H2522 H 0.13691 0.08458 0.4034 0.0
C2523 C 0.13304 0.09553 0.36356 0.0
C2524 C 0.90577 0.03404 0.39254 0.0
C2525 C 0.91937 0.05882 0.37861 0.0
H2526 H 0.87129 0.97032 0.4028 0.0
C2527 C 0.90328 0.0374 0.36409 0.0
H2528 H 0.91735 0.04941 0.40392 0.0
C2529 C 0.87697 0.99204 0.36341 0.0
C2530 C 0.86607 0.9669 0.37725 0.0
H2531 H 0.91268 0.05539 0.35309 0.0
H2532 H 0.86704 0.97661 0.35196 0.0
C2533 C 0.8794 0.98857 0.39187 0.0
C2534 C 0.00901 0.88793 0.36223 0.0
C2535 C 0.03272 0.89966 0.37638 0.0
H2536 H 0.94667 0.86204 0.35126 0.0
C2537 C 0.00969 0.88877 0.39076 0.0
H2538 H 0.02555 0.8955 0.35095 0.0
C2539 C 0.96426 0.8695 0.39097 0.0
C2540 C 0.94086 0.86076 0.3768 0.0
H2541 H 0.02682 0.89692 0.40193 0.0
H2542 H 0.94784 0.86365 0.40223 0.0
C2543 C 0.96362 0.86872 0.36243 0.0
C2544 C 0.87684 0.88791 0.86155 0.0
C2545 C 0.86461 0.89903 0.87578 0.0
H2546 H 0.9134 0.86236 0.85041 0.0
C2547 C 0.87634 0.88737 0.89009 0.0
H2548 H 0.86816 0.89607 0.85032 0.0
C2549 C 0.90239 0.86798 0.89017 0.0
C2550 C 0.91734 0.85986 0.87594 0.0
H2551 H 0.86714 0.89502 0.9013 0.0
H2552 H 0.91263 0.86153 0.9014 0.0
C2553 C 0.9029 0.86855 0.86163 0.0
C2554 C 0.10633 0.98778 0.89146 0.0
C2555 C 0.0983 0.96629 0.87681 0.0
H2556 H 0.12897 0.0485 0.90358 0.0
C2557 C 0.11279 0.99158 0.86302 0.0
H2558 H 0.09597 0.9694 0.90236 0.0
C2559 C 0.13181 0.03693 0.86375 0.0
C2560 C 0.13686 0.05819 0.87829 0.0
H2561 H 0.10754 0.97629 0.85155 0.0
H2562 H 0.1406 0.05504 0.85278 0.0
C2563 C 0.12542 0.03326 0.89219 0.0
C2564 C 0.00705 0.12049 0.89163 0.0
C2565 C 0.02963 0.13276 0.87716 0.0
H2566 H 0.94559 0.08374 0.90334 0.0
C2567 C 0.00547 0.12128 0.86311 0.0
H2568 H 0.02452 0.12913 0.90273 0.0
C2569 C 0.96004 0.09536 0.86349 0.0
C2570 C 0.93774 0.08022 0.87793 0.0
H2571 H 0.02168 0.13042 0.85177 0.0
H2572 H 0.9427 0.08541 0.85238 0.0
C2573 C 0.96163 0.0945 0.89201 0.0
C2574 C 0.86456 0.90375 0.63846 0.0
C2575 C 0.85706 0.91872 0.62404 0.0
H2576 H 0.89152 0.86893 0.65011 0.0
C2577 C 0.86645 0.90435 0.60994 0.0
H2578 H 0.85734 0.91377 0.64959 0.0
C2579 C 0.88601 0.87848 0.61026 0.0
C2580 C 0.89667 0.8664 0.62471 0.0
H2581 H 0.86091 0.91497 0.59863 0.0
H2582 H 0.89467 0.86979 0.59914 0.0
C2583 C 0.88418 0.87793 0.63879 0.0
C2584 C 0.11843 0.01186 0.61041 0.0
C2585 C 0.13171 0.03329 0.62507 0.0
H2586 H 0.08058 0.9512 0.59823 0.0
C2587 C 0.12081 0.00795 0.63885 0.0
H2588 H 0.12653 0.03029 0.59951 0.0
C2589 C 0.09457 0.96259 0.63808 0.0
C2590 C 0.07854 0.94139 0.62352 0.0
H2591 H 0.1307 0.02319 0.65033 0.0
H2592 H 0.08518 0.94443 0.64904 0.0
C2593 C 0.09213 0.96639 0.60964 0.0
C2594 C 0.03385 0.13095 0.6402 0.0
C2595 C 0.05693 0.13947 0.62589 0.0
H2596 H 0.97164 0.10341 0.65154 0.0
C2597 C 0.0338 0.13103 0.61167 0.0
H2598 H 0.05058 0.13739 0.65142 0.0
C2599 C 0.98834 0.11148 0.61176 0.0
C2600 C 0.96501 0.09998 0.62608 0.0
H2601 H 0.05046 0.13735 0.60044 0.0
H2602 H 0.97144 0.10358 0.60055 0.0
C2603 C 0.98843 0.11143 0.6403 0.0
C2604 C 0.76167 0.46403 0.445 0.0
C2605 C 0.74707 0.47254 0.45923 0.0
H2606 H 0.79664 0.43666 0.43387 0.0
C2607 C 0.76186 0.46423 0.47353 0.0
H2608 H 0.75116 0.47019 0.43377 0.0
C2609 C 0.7879 0.44487 0.47362 0.0
C2610 C 0.79978 0.43335 0.4594 0.0
H2611 H 0.75164 0.47073 0.48475 0.0
H2612 H 0.79684 0.43702 0.48485 0.0
C2613 C 0.78772 0.44463 0.44508 0.0
C2614 C 0.5387 0.29932 0.44305 0.0
C2615 C 0.52735 0.2743 0.45693 0.0
H2616 H 0.56811 0.36324 0.43294 0.0
C2617 C 0.53253 0.29547 0.47149 0.0
H2618 H 0.53504 0.28415 0.43164 0.0
C2619 C 0.55162 0.34083 0.47227 0.0
C2620 C 0.56601 0.3662 0.4585 0.0
H2621 H 0.5238 0.27729 0.48244 0.0
H2622 H 0.55699 0.35605 0.48375 0.0
C2623 C 0.55782 0.34479 0.44383 0.0
C2624 C 0.70412 0.23728 0.47185 0.0
C2625 C 0.72659 0.25222 0.45743 0.0
H2626 H 0.64234 0.20243 0.4835 0.0
C2627 C 0.70284 0.23781 0.44332 0.0
H2628 H 0.72135 0.24734 0.48298 0.0
C2629 C 0.65741 0.2119 0.44365 0.0
C2630 C 0.63466 0.19982 0.45809 0.0
H2631 H 0.719 0.24841 0.43201 0.0
H2632 H 0.64006 0.20317 0.43253 0.0
C2633 C 0.65867 0.21142 0.47218 0.0
C2634 C 0.78098 0.45511 0.69642 0.0
C2635 C 0.76837 0.46679 0.71044 0.0
H2636 H 0.80779 0.41904 0.68578 0.0
C2637 C 0.77876 0.45474 0.72494 0.0
H2638 H 0.77386 0.46408 0.68506 0.0
C2639 C 0.79817 0.42874 0.72539 0.0
C2640 C 0.80769 0.41423 0.71135 0.0
H2641 H 0.77 0.46355 0.73602 0.0
H2642 H 0.8035 0.41815 0.73674 0.0
C2643 C 0.80047 0.42917 0.69687 0.0
C2644 C 0.54434 0.32552 0.69615 0.0
C2645 C 0.5333 0.30033 0.70997 0.0
H2646 H 0.58012 0.38891 0.68587 0.0
C2647 C 0.54653 0.32192 0.72461 0.0
H2648 H 0.53449 0.31015 0.68469 0.0
C2649 C 0.5729 0.3674 0.72531 0.0
C2650 C 0.5866 0.39224 0.71139 0.0
H2651 H 0.53833 0.30362 0.73553 0.0
H2652 H 0.5844 0.38272 0.7367 0.0
C2653 C 0.57063 0.37088 0.69685 0.0
C2654 C 0.67607 0.22165 0.72377 0.0
C2655 C 0.69954 0.23295 0.70948 0.0
H2656 H 0.61388 0.19605 0.73501 0.0
C2657 C 0.67625 0.22142 0.69523 0.0
H2658 H 0.69287 0.22961 0.735 0.0
C2659 C 0.63084 0.20201 0.69526 0.0
C2660 C 0.60764 0.1937 0.70954 0.0
H2661 H 0.69314 0.22928 0.68402 0.0
H2662 H 0.61421 0.19551 0.68403 0.0
C2663 C 0.63063 0.20221 0.7238 0.0
C2664 C 0.56928 0.20139 0.22361 0.0
C2665 C 0.58399 0.19303 0.20938 0.0
H2666 H 0.53419 0.22863 0.23475 0.0
C2667 C 0.56928 0.20141 0.19508 0.0
H2668 H 0.57973 0.19517 0.23484 0.0
C2669 C 0.5432 0.22073 0.195 0.0
C2670 C 0.53121 0.23213 0.20922 0.0
H2671 H 0.57959 0.19502 0.18386 0.0
H2672 H 0.53431 0.22865 0.18376 0.0
C2673 C 0.5432 0.22075 0.22353 0.0
C2674 C 0.77288 0.32116 0.22494 0.0
C2675 C 0.76498 0.29979 0.21027 0.0
H2676 H 0.79543 0.38176 0.23713 0.0
C2677 C 0.77961 0.32521 0.19651 0.0
H2678 H 0.76241 0.30267 0.23582 0.0
C2679 C 0.79866 0.37056 0.19729 0.0
C2680 C 0.80358 0.39169 0.21185 0.0
H2681 H 0.77446 0.31003 0.18503 0.0
H2682 H 0.80757 0.38877 0.18635 0.0
C2683 C 0.79199 0.36663 0.22572 0.0
C2684 C 0.67222 0.45435 0.19655 0.0
C2685 C 0.69622 0.466 0.21064 0.0
H2686 H 0.60958 0.41828 0.18574 0.0
C2687 C 0.67347 0.45382 0.22508 0.0
H2688 H 0.68856 0.46341 0.18523 0.0
C2689 C 0.62804 0.42777 0.2254 0.0
C2690 C 0.60432 0.41333 0.21129 0.0
H2691 H 0.6908 0.46258 0.2362 0.0
H2692 H 0.61188 0.4171 0.23671 0.0
C2693 C 0.62679 0.42836 0.19687 0.0
C2694 C 0.55046 0.21066 0.97194 0.0
C2695 C 0.56306 0.19902 0.95791 0.0
H2696 H 0.52359 0.24663 0.98262 0.0
C2697 C 0.55261 0.21108 0.94342 0.0
H2698 H 0.55764 0.20169 0.9833 0.0
C2699 C 0.5331 0.237 0.943 0.0
C2700 C 0.52358 0.25145 0.95706 0.0
H2701 H 0.56138 0.20232 0.93233 0.0
H2702 H 0.52772 0.2476 0.93166 0.0
C2703 C 0.5309 0.23654 0.97152 0.0
C2704 C 0.78707 0.34041 0.97195 0.0
C2705 C 0.79811 0.36544 0.95809 0.0
H2706 H 0.75126 0.27713 0.98232 0.0
C2707 C 0.78491 0.34367 0.94348 0.0
H2708 H 0.79689 0.35591 0.98339 0.0
C2709 C 0.75855 0.29818 0.94285 0.0
C2710 C 0.74482 0.2735 0.9568 0.0
H2711 H 0.79312 0.36184 0.93253 0.0
H2712 H 0.74708 0.28273 0.93147 0.0
C2713 C 0.76077 0.29504 0.97131 0.0
C2714 C 0.70061 0.46364 0.97267 0.0
C2715 C 0.7235 0.47166 0.95834 0.0
H2716 H 0.63856 0.4367 0.98409 0.0
C2717 C 0.70022 0.4629 0.94414 0.0
H2718 H 0.71748 0.47033 0.98387 0.0
C2719 C 0.65478 0.44356 0.94429 0.0
C2720 C 0.63163 0.43257 0.95865 0.0
H2721 H 0.71674 0.46882 0.93289 0.0
H2722 H 0.63776 0.4354 0.93311 0.0
C2723 C 0.65521 0.44432 0.97283 0.0
C2724 C 0.42867 0.7981 0.80593 0.0
C2725 C 0.41366 0.80617 0.79164 0.0
H2726 H 0.46381 0.77102 0.81724 0.0
C2727 C 0.42796 0.79737 0.7774 0.0
H2728 H 0.41868 0.80483 0.81716 0.0
C2729 C 0.45398 0.77794 0.77747 0.0
C2730 C 0.46629 0.76689 0.79178 0.0
H2731 H 0.41724 0.80332 0.76618 0.0
H2732 H 0.46269 0.76976 0.76626 0.0
C2733 C 0.45467 0.77868 0.806 0.0
C2734 C 0.22392 0.678 0.77706 0.0
C2735 C 0.23312 0.69973 0.79169 0.0
H2736 H 0.20042 0.61713 0.76496 0.0
C2737 C 0.21996 0.67466 0.80555 0.0
H2738 H 0.23324 0.69621 0.76611 0.0
C2739 C 0.20106 0.62932 0.80487 0.0
C2740 C 0.19478 0.60784 0.7903 0.0
H2741 H 0.22617 0.69013 0.81701 0.0
H2742 H 0.1933 0.61139 0.81586 0.0
C2743 C 0.20494 0.63254 0.77638 0.0
C2744 C 0.37144 0.56996 0.80428 0.0
C2745 C 0.3935 0.58558 0.78982 0.0
H2746 H 0.31001 0.53447 0.81611 0.0
C2747 C 0.36941 0.57168 0.77578 0.0
H2748 H 0.38895 0.57961 0.81536 0.0
C2749 C 0.32399 0.54563 0.77623 0.0
C2750 C 0.30165 0.53291 0.79074 0.0
H2751 H 0.38526 0.58282 0.76444 0.0
H2752 H 0.30634 0.53733 0.76518 0.0
C2753 C 0.32603 0.54396 0.80474 0.0
C2754 C 0.44494 0.78714 0.05825 0.0
C2755 C 0.43442 0.79926 0.04379 0.0
H2756 H 0.46985 0.75053 0.06993 0.0
C2757 C 0.44692 0.78766 0.02972 0.0
H2758 H 0.43626 0.79587 0.06935 0.0
C2759 C 0.46645 0.76176 0.03009 0.0
C2760 C 0.47383 0.74676 0.04452 0.0
H2761 H 0.43968 0.79669 0.01839 0.0
H2762 H 0.4737 0.7517 0.01897 0.0
C2763 C 0.46441 0.76117 0.05861 0.0
C2764 C 0.21266 0.65414 0.05795 0.0
C2765 C 0.19939 0.63272 0.04329 0.0
H2766 H 0.25054 0.71479 0.07013 0.0
C2767 C 0.21035 0.65809 0.02951 0.0
H2768 H 0.20452 0.63571 0.06885 0.0
C2769 C 0.23662 0.70344 0.03028 0.0
C2770 C 0.25264 0.72462 0.04485 0.0
H2771 H 0.20047 0.64286 0.01803 0.0
H2772 H 0.24606 0.72161 0.01933 0.0
C2773 C 0.239 0.69961 0.05872 0.0
C2774 C 0.34255 0.55418 0.0282 0.0
C2775 C 0.36587 0.56555 0.04244 0.0
H2776 H 0.28049 0.5284 0.01703 0.0
C2777 C 0.34244 0.55409 0.05674 0.0
H2778 H 0.35942 0.56217 0.01698 0.0
C2779 C 0.297 0.53466 0.05679 0.0
C2780 C 0.27397 0.5263 0.04255 0.0
H2781 H 0.35926 0.56194 0.06796 0.0
H2782 H 0.28027 0.52837 0.06801 0.0
C2783 C 0.29714 0.53478 0.02826 0.0
C2784 C 0.21064 0.55505 0.52895 0.0
C2785 C 0.19883 0.56689 0.54311 0.0
H2786 H 0.2469 0.529 0.51794 0.0
C2787 C 0.21103 0.55599 0.55748 0.0
H2788 H 0.2016 0.56261 0.51768 0.0
C2789 C 0.23712 0.53665 0.55766 0.0
C2790 C 0.25163 0.52781 0.54347 0.0
H2791 H 0.20217 0.56422 0.56866 0.0
H2792 H 0.24774 0.5308 0.56891 0.0
C2793 C 0.23674 0.53575 0.52913 0.0
C2794 C 0.44077 0.65568 0.55845 0.0
C2795 C 0.43247 0.63397 0.54385 0.0
H2796 H 0.46364 0.71657 0.57047 0.0
C2797 C 0.44673 0.65905 0.53 0.0
H2798 H 0.43061 0.63747 0.5694 0.0
C2799 C 0.4658 0.70442 0.53065 0.0
C2800 C 0.4711 0.72589 0.54516 0.0
H2801 H 0.44127 0.64359 0.51856 0.0
H2802 H 0.47442 0.72237 0.51965 0.0
C2803 C 0.45988 0.70117 0.5591 0.0
C2804 C 0.33976 0.7885 0.5297 0.0
C2805 C 0.36387 0.80046 0.54376 0.0
H2806 H 0.27702 0.75226 0.51897 0.0
C2807 C 0.34123 0.78874 0.55823 0.0
H2808 H 0.35602 0.79721 0.51836 0.0
C2809 C 0.2958 0.76281 0.55861 0.0
C2810 C 0.27196 0.74802 0.54453 0.0
H2811 H 0.35865 0.79777 0.56933 0.0
H2812 H 0.27972 0.75248 0.56994 0.0
C2813 C 0.29432 0.76261 0.53008 0.0
C2814 C 0.21812 0.54474 0.30551 0.0
C2815 C 0.23013 0.53259 0.29146 0.0
H2816 H 0.1918 0.58118 0.31621 0.0
C2817 C 0.21915 0.54421 0.27698 0.0
H2818 H 0.22573 0.53612 0.31686 0.0
C2819 C 0.19969 0.57018 0.27658 0.0
C2820 C 0.19077 0.58513 0.29064 0.0
H2821 H 0.22745 0.53506 0.26589 0.0
H2822 H 0.19388 0.58041 0.26524 0.0
C2823 C 0.19864 0.57068 0.30511 0.0
C2824 C 0.45428 0.67358 0.3053 0.0
C2825 C 0.46539 0.69861 0.29144 0.0
H2826 H 0.41834 0.61032 0.31567 0.0
C2827 C 0.45217 0.67684 0.27683 0.0
H2828 H 0.46412 0.68908 0.31674 0.0
C2829 C 0.4257 0.63137 0.2762 0.0
C2830 C 0.4119 0.6067 0.29015 0.0
H2831 H 0.46044 0.69501 0.26588 0.0
H2832 H 0.4142 0.61593 0.26482 0.0
C2833 C 0.42789 0.62822 0.30466 0.0
C2834 C 0.36807 0.79769 0.30576 0.0
C2835 C 0.39083 0.80492 0.29143 0.0
H2836 H 0.30616 0.77153 0.31721 0.0
C2837 C 0.36744 0.79548 0.27724 0.0
H2838 H 0.38503 0.80492 0.31695 0.0
C2839 C 0.322 0.77625 0.27742 0.0
C2840 C 0.29898 0.76609 0.29179 0.0
H2841 H 0.38386 0.80076 0.266 0.0
H2842 H 0.30486 0.76754 0.26625 0.0
C2843 C 0.3227 0.77852 0.30594 0.0
loop_
_geom_bond_atom_site_label_1
_geom_bond_atom_site_label_2
_geom_bond_distance
_geom_bond_site_symmetry_2
_ccdc_geom_bond_type
Co0 O2 2.143 . S
Co0 O8 2.074 1_545 S
Co0 O11 2.093 . S
Co0 O24 2.097 . S
Co0 N41 2.151 1_545 S
Co0 N49 2.214 . S
Co1 O2 2.160 . S
Co1 O7 2.058 1_545 S
Co1 O17 2.057 . S
Co1 O32 2.037 . S
Co1 N36 2.145 . S
Co1 N57 2.257 . S
O2 Co0 2.143 . S
O2 Co1 2.160 . S
C3 O4 1.278 . S
C3 O11 1.224 . S
O4 C3 1.278 . S
C5 O6 1.245 . S
C5 O17 1.232 1_565 S
O6 C5 1.245 . S
O7 Co1 2.058 1_565 S
O7 C33 1.269 . S
O8 Co0 2.074 1_565 S
O8 C33 1.257 . S
H9 C34 0.930 . S
H10 C40 0.930 . S
O11 Co0 2.093 . S
O11 C3 1.224 . S
H12 C44 0.929 . S
H13 C46 0.930 . S
H14 C47 0.930 . S
H15 C45 0.929 . S
H16 C48 0.928 . S
O17 Co1 2.057 . S
O17 C5 1.232 1_545 S
H18 C37 0.929 . S
H19 C38 0.929 . S
H20 C50 0.931 . S
H21 C42 0.929 . S
H22 C51 0.930 . S
H23 C43 0.931 . S
O24 Co0 2.097 . S
O24 C52 1.214 . S
H25 C53 0.929 . S
H26 C54 0.929 . S
H27 C55 0.930 . S
H28 C56 0.929 . S
H29 C58 0.930 . S
H30 C35 0.930 1_565 S
H31 C39 0.930 . S
O32 Co1 2.037 . S
O32 C52 1.234 . S
C33 O7 1.269 . S
C33 O8 1.257 . S
C34 H9 0.930 . S
C34 C37 1.388 . S
C34 C39 1.418 . S
C35 H30 0.930 1_545 S
C35 C38 1.404 . S
C35 C39 1.353 . S
N36 Co1 2.145 . S
N36 C37 1.397 . S
N36 C38 1.334 . S
C37 H18 0.929 . S
C37 C34 1.388 . S
C37 N36 1.397 . S
C38 H19 0.929 . S
C38 C35 1.404 . S
C38 N36 1.334 . S
C39 H31 0.930 . S
C39 C34 1.418 . S
C39 C35 1.353 . S
C40 H10 0.930 . S
C40 N41 1.330 1_545 S
C40 C42 1.446 1_545 S
N41 Co0 2.151 1_565 S
N41 C40 1.330 1_565 S
N41 C45 1.418 . S
C42 H21 0.929 . S
C42 C40 1.446 1_565 S
C42 C43 1.332 . S
C43 H23 0.931 . S
C43 C42 1.332 . S
C43 C44 1.267 . S
C44 H12 0.929 . S
C44 C43 1.267 . S
C44 C45 1.251 . S
C45 H15 0.929 . S
C45 N41 1.418 . S
C45 C44 1.251 . S
C46 H13 0.930 . S
C46 C48 1.406 . S
C46 C51 1.261 . S
C47 H14 0.930 . S
C47 N49 1.325 . S
C47 C50 1.357 . S
C48 H16 0.928 . S
C48 C46 1.406 . S
C48 N49 1.261 . S
N49 Co0 2.214 . S
N49 C47 1.325 . S
N49 C48 1.261 . S
C50 H20 0.931 . S
C50 C47 1.357 . S
C50 C51 1.312 . S
C51 H22 0.930 . S
C51 C46 1.261 . S
C51 C50 1.312 . S
C52 O24 1.214 . S
C52 O32 1.234 . S
C53 H25 0.929 . S
C53 C56 1.391 . S
C53 C58 1.391 . S
C54 H26 0.929 . S
C54 C55 1.390 . S
C54 N57 1.391 . S
C55 H27 0.930 . S
C55 C54 1.390 . S
C55 C56 1.392 . S
C56 H28 0.929 . S
C56 C53 1.391 . S
C56 C55 1.392 . S
N57 Co1 2.257 . S
N57 C54 1.391 . S
N57 C58 1.388 . S
C58 H29 0.930 . S
C58 C53 1.391 . S
C58 N57 1.388 . S
Co59 O61 2.143 . S
Co59 O67 2.074 1_655 S
Co59 O70 2.093 . S
Co59 O83 2.097 . S
Co59 N100 2.151 1_655 S
Co59 N108 2.214 . S
Co60 O61 2.160 . S
Co60 O66 2.058 1_655 S
Co60 O76 2.057 . S
Co60 O91 2.037 . S
Co60 N95 2.145 . S
Co60 N116 2.257 . S
O61 Co59 2.143 . S
O61 Co60 2.160 . S
C62 O63 1.278 . S
C62 O70 1.224 . S
O63 C62 1.278 . S
C64 O65 1.245 . S
C64 O76 1.232 1_455 S
O65 C64 1.245 . S
O66 Co60 2.058 1_455 S
O66 C92 1.269 . S
O67 Co59 2.074 1_455 S
O67 C92 1.257 . S
H68 C93 0.930 . S
H69 C99 0.930 . S
O70 Co59 2.093 . S
O70 C62 1.224 . S
H71 C103 0.929 . S
H72 C105 0.930 . S
H73 C106 0.930 . S
H74 C104 0.929 . S
H75 C107 0.928 . S
O76 Co60 2.057 . S
O76 C64 1.232 1_655 S
H77 C96 0.929 . S
H78 C97 0.929 . S
H79 C109 0.931 . S
H80 C101 0.929 . S
H81 C110 0.930 . S
H82 C102 0.931 . S
O83 Co59 2.097 . S
O83 C111 1.214 . S
H84 C112 0.929 . S
H85 C113 0.929 . S
H86 C114 0.930 . S
H87 C115 0.929 . S
H88 C117 0.930 . S
H89 C94 0.930 1_455 S
H90 C98 0.930 . S
O91 Co60 2.037 . S
O91 C111 1.234 . S
C92 O66 1.269 . S
C92 O67 1.257 . S
C93 H68 0.930 . S
C93 C96 1.388 . S
C93 C98 1.418 . S
C94 H89 0.930 1_655 S
C94 C97 1.404 . S
C94 C98 1.353 . S
N95 Co60 2.145 . S
N95 C96 1.397 . S
N95 C97 1.334 . S
C96 H77 0.929 . S
C96 C93 1.388 . S
C96 N95 1.397 . S
C97 H78 0.929 . S
C97 C94 1.404 . S
C97 N95 1.334 . S
C98 H90 0.930 . S
C98 C93 1.418 . S
C98 C94 1.353 . S
C99 H69 0.930 . S
C99 N100 1.330 1_655 S
C99 C101 1.446 1_655 S
N100 Co59 2.151 1_455 S
N100 C99 1.330 1_455 S
N100 C104 1.418 . S
C101 H80 0.929 . S
C101 C99 1.446 1_455 S
C101 C102 1.332 . S
C102 H82 0.931 . S
C102 C101 1.332 . S
C102 C103 1.267 . S
C103 H71 0.929 . S
C103 C102 1.267 . S
C103 C104 1.251 . S
C104 H74 0.929 . S
C104 N100 1.418 . S
C104 C103 1.251 . S
C105 H72 0.930 . S
C105 C107 1.406 . S
C105 C110 1.261 . S
C106 H73 0.930 . S
C106 N108 1.325 . S
C106 C109 1.357 . S
C107 H75 0.928 . S
C107 C105 1.406 . S
C107 N108 1.261 . S
N108 Co59 2.214 . S
N108 C106 1.325 . S
N108 C107 1.261 . S
C109 H79 0.931 . S
C109 C106 1.357 . S
C109 C110 1.312 . S
C110 H81 0.930 . S
C110 C105 1.261 . S
C110 C109 1.312 . S
C111 O83 1.214 . S
C111 O91 1.234 . S
C112 H84 0.929 . S
C112 C115 1.391 . S
C112 C117 1.391 . S
C113 H85 0.929 . S
C113 C114 1.390 . S
C113 N116 1.391 . S
C114 H86 0.930 . S
C114 C113 1.390 . S
C114 C115 1.392 . S
C115 H87 0.929 . S
C115 C112 1.391 . S
C115 C114 1.392 . S
N116 Co60 2.257 . S
N116 C113 1.391 . S
N116 C117 1.388 . S
C117 H88 0.930 . S
C117 C112 1.391 . S
C117 N116 1.388 . S
Co118 O120 2.143 . S
Co118 O126 2.074 . S
Co118 O129 2.093 . S
Co118 O142 2.097 . S
Co118 N159 2.151 . S
Co118 N167 2.214 . S
Co119 O120 2.160 . S
Co119 O125 2.058 . S
Co119 O135 2.057 . S
Co119 O150 2.037 . S
Co119 N154 2.145 . S
Co119 N175 2.257 . S
O120 Co118 2.143 . S
O120 Co119 2.160 . S
C121 O122 1.278 . S
C121 O129 1.224 . S
O122 C121 1.278 . S
C123 O124 1.245 . S
C123 O135 1.232 . S
O124 C123 1.245 . S
O125 Co119 2.058 . S
O125 C151 1.269 . S
O126 Co118 2.074 . S
O126 C151 1.257 . S
H127 C152 0.930 . S
H128 C158 0.930 . S
O129 Co118 2.093 . S
O129 C121 1.224 . S
H130 C162 0.929 . S
H131 C164 0.930 . S
H132 C165 0.930 . S
H133 C163 0.929 . S
H134 C166 0.928 . S
O135 Co119 2.057 . S
O135 C123 1.232 . S
H136 C155 0.929 . S
H137 C156 0.929 . S
H138 C168 0.931 . S
H139 C160 0.929 . S
H140 C169 0.930 . S
H141 C161 0.931 . S
O142 Co118 2.097 . S
O142 C170 1.214 . S
H143 C171 0.929 . S
H144 C172 0.929 . S
H145 C173 0.930 . S
H146 C174 0.929 . S
H147 C176 0.930 . S
H148 C153 0.930 . S
H149 C157 0.930 . S
O150 Co119 2.037 . S
O150 C170 1.234 . S
C151 O125 1.269 . S
C151 O126 1.257 . S
C152 H127 0.930 . S
C152 C155 1.388 . S
C152 C157 1.418 . S
C153 H148 0.930 . S
C153 C156 1.404 . S
C153 C157 1.353 . S
N154 Co119 2.145 . S
N154 C155 1.397 . S
N154 C156 1.334 . S
C155 H136 0.929 . S
C155 C152 1.388 . S
C155 N154 1.397 . S
C156 H137 0.929 . S
C156 C153 1.404 . S
C156 N154 1.334 . S
C157 H149 0.930 . S
C157 C152 1.418 . S
C157 C153 1.353 . S
C158 H128 0.930 . S
C158 N159 1.330 . S
C158 C160 1.446 . S
N159 Co118 2.151 . S
N159 C158 1.330 . S
N159 C163 1.418 . S
C160 H139 0.929 . S
C160 C158 1.446 . S
C160 C161 1.332 . S
C161 H141 0.931 . S
C161 C160 1.332 . S
C161 C162 1.267 . S
C162 H130 0.929 . S
C162 C161 1.267 . S
C162 C163 1.251 . S
C163 H133 0.929 . S
C163 N159 1.418 . S
C163 C162 1.251 . S
C164 H131 0.930 . S
C164 C166 1.406 . S
C164 C169 1.261 . S
C165 H132 0.930 . S
C165 N167 1.325 . S
C165 C168 1.357 . S
C166 H134 0.928 . S
C166 C164 1.406 . S
C166 N167 1.261 . S
N167 Co118 2.214 . S
N167 C165 1.325 . S
N167 C166 1.261 . S
C168 H138 0.931 . S
C168 C165 1.357 . S
C168 C169 1.312 . S
C169 H140 0.930 . S
C169 C164 1.261 . S
C169 C168 1.312 . S
C170 O142 1.214 . S
C170 O150 1.234 . S
C171 H143 0.929 . S
C171 C174 1.391 . S
C171 C176 1.391 . S
C172 H144 0.929 . S
C172 C173 1.390 . S
C172 N175 1.391 . S
C173 H145 0.930 . S
C173 C172 1.390 . S
C173 C174 1.392 . S
C174 H146 0.929 . S
C174 C171 1.391 . S
C174 C173 1.392 . S
N175 Co119 2.257 . S
N175 C172 1.391 . S
N175 C176 1.388 . S
C176 H147 0.930 . S
C176 C171 1.391 . S
C176 N175 1.388 . S
Co177 O179 2.143 . S
Co177 O185 2.074 1_455 S
Co177 O188 2.093 . S
Co177 O201 2.097 . S
Co177 N218 2.151 1_455 S
Co177 N226 2.214 . S
Co178 O179 2.160 . S
Co178 O184 2.058 1_455 S
Co178 O194 2.057 . S
Co178 O209 2.037 . S
Co178 N213 2.145 . S
Co178 N234 2.257 . S
O179 Co177 2.143 . S
O179 Co178 2.160 . S
C180 O181 1.278 . S
C180 O188 1.224 . S
O181 C180 1.278 . S
C182 O183 1.245 . S
C182 O194 1.232 1_655 S
O183 C182 1.245 . S
O184 Co178 2.058 1_655 S
O184 C210 1.269 . S
O185 Co177 2.074 1_655 S
O185 C210 1.257 . S
H186 C211 0.930 . S
H187 C217 0.930 . S
O188 Co177 2.093 . S
O188 C180 1.224 . S
H189 C221 0.929 . S
H190 C223 0.930 . S
H191 C224 0.930 . S
H192 C222 0.929 . S
H193 C225 0.928 . S
O194 Co178 2.057 . S
O194 C182 1.232 1_455 S
H195 C214 0.929 . S
H196 C215 0.929 . S
H197 C227 0.931 . S
H198 C219 0.929 . S
H199 C228 0.930 . S
H200 C220 0.931 . S
O201 Co177 2.097 . S
O201 C229 1.214 . S
H202 C230 0.929 . S
H203 C231 0.929 . S
H204 C232 0.930 . S
H205 C233 0.929 . S
H206 C235 0.930 . S
H207 C212 0.930 1_655 S
H208 C216 0.930 . S
O209 Co178 2.037 . S
O209 C229 1.234 . S
C210 O184 1.269 . S
C210 O185 1.257 . S
C211 H186 0.930 . S
C211 C214 1.388 . S
C211 C216 1.418 . S
C212 H207 0.930 1_455 S
C212 C215 1.404 . S
C212 C216 1.353 . S
N213 Co178 2.145 . S
N213 C214 1.397 . S
N213 C215 1.334 . S
C214 H195 0.929 . S
C214 C211 1.388 . S
C214 N213 1.397 . S
C215 H196 0.929 . S
C215 C212 1.404 . S
C215 N213 1.334 . S
C216 H208 0.930 . S
C216 C211 1.418 . S
C216 C212 1.353 . S
C217 H187 0.930 . S
C217 N218 1.330 1_455 S
C217 C219 1.446 1_455 S
N218 Co177 2.151 1_655 S
N218 C217 1.330 1_655 S
N218 C222 1.418 . S
C219 H198 0.929 . S
C219 C217 1.446 1_655 S
C219 C220 1.332 . S
C220 H200 0.931 . S
C220 C219 1.332 . S
C220 C221 1.267 . S
C221 H189 0.929 . S
C221 C220 1.267 . S
C221 C222 1.251 . S
C222 H192 0.929 . S
C222 N218 1.418 . S
C222 C221 1.251 . S
C223 H190 0.930 . S
C223 C225 1.406 . S
C223 C228 1.261 . S
C224 H191 0.930 . S
C224 N226 1.325 . S
C224 C227 1.357 . S
C225 H193 0.928 . S
C225 C223 1.406 . S
C225 N226 1.261 . S
N226 Co177 2.214 . S
N226 C224 1.325 . S
N226 C225 1.261 . S
C227 H197 0.931 . S
C227 C224 1.357 . S
C227 C228 1.312 . S
C228 H199 0.930 . S
C228 C223 1.261 . S
C228 C227 1.312 . S
C229 O201 1.214 . S
C229 O209 1.234 . S
C230 H202 0.929 . S
C230 C233 1.391 . S
C230 C235 1.391 . S
C231 H203 0.929 . S
C231 C232 1.390 . S
C231 N234 1.391 . S
C232 H204 0.930 . S
C232 C231 1.390 . S
C232 C233 1.392 . S
C233 H205 0.929 . S
C233 C230 1.391 . S
C233 C232 1.392 . S
N234 Co178 2.257 . S
N234 C231 1.391 . S
N234 C235 1.388 . S
C235 H206 0.930 . S
C235 C230 1.391 . S
C235 N234 1.388 . S
Co236 O238 2.143 . S
Co236 O244 2.074 . S
Co236 O247 2.093 . S
Co236 O260 2.097 . S
Co236 N277 2.151 . S
Co236 N285 2.214 . S
Co237 O238 2.160 . S
Co237 O243 2.058 . S
Co237 O253 2.057 . S
Co237 O268 2.037 . S
Co237 N272 2.145 . S
Co237 N293 2.257 . S
O238 Co236 2.143 . S
O238 Co237 2.160 . S
C239 O240 1.278 . S
C239 O247 1.224 . S
O240 C239 1.278 . S
C241 O242 1.245 . S
C241 O253 1.232 . S
O242 C241 1.245 . S
O243 Co237 2.058 . S
O243 C269 1.269 . S
O244 Co236 2.074 . S
O244 C269 1.257 . S
H245 C270 0.930 . S
H246 C276 0.930 . S
O247 Co236 2.093 . S
O247 C239 1.224 . S
H248 C280 0.929 . S
H249 C282 0.930 . S
H250 C283 0.930 . S
H251 C281 0.929 . S
H252 C284 0.928 . S
O253 Co237 2.057 . S
O253 C241 1.232 . S
H254 C273 0.929 . S
H255 C274 0.929 . S
H256 C286 0.931 . S
H257 C278 0.929 . S
H258 C287 0.930 . S
H259 C279 0.931 . S
O260 Co236 2.097 . S
O260 C288 1.214 . S
H261 C289 0.929 . S
H262 C290 0.929 . S
H263 C291 0.930 . S
H264 C292 0.929 . S
H265 C294 0.930 . S
H266 C271 0.930 . S
H267 C275 0.930 . S
O268 Co237 2.037 . S
O268 C288 1.234 . S
C269 O243 1.269 . S
C269 O244 1.257 . S
C270 H245 0.930 . S
C270 C273 1.388 . S
C270 C275 1.418 . S
C271 H266 0.930 . S
C271 C274 1.404 . S
C271 C275 1.353 . S
N272 Co237 2.145 . S
N272 C273 1.397 . S
N272 C274 1.334 . S
C273 H254 0.929 . S
C273 C270 1.388 . S
C273 N272 1.397 . S
C274 H255 0.929 . S
C274 C271 1.404 . S
C274 N272 1.334 . S
C275 H267 0.930 . S
C275 C270 1.418 . S
C275 C271 1.353 . S
C276 H246 0.930 . S
C276 N277 1.330 . S
C276 C278 1.446 . S
N277 Co236 2.151 . S
N277 C276 1.330 . S
N277 C281 1.418 . S
C278 H257 0.929 . S
C278 C276 1.446 . S
C278 C279 1.332 . S
C279 H259 0.931 . S
C279 C278 1.332 . S
C279 C280 1.267 . S
C280 H248 0.929 . S
C280 C279 1.267 . S
C280 C281 1.251 . S
C281 H251 0.929 . S
C281 N277 1.418 . S
C281 C280 1.251 . S
C282 H249 0.930 . S
C282 C284 1.406 . S
C282 C287 1.261 . S
C283 H250 0.930 . S
C283 N285 1.325 . S
C283 C286 1.357 . S
C284 H252 0.928 . S
C284 C282 1.406 . S
C284 N285 1.261 . S
N285 Co236 2.214 . S
N285 C283 1.325 . S
N285 C284 1.261 . S
C286 H256 0.931 . S
C286 C283 1.357 . S
C286 C287 1.312 . S
C287 H258 0.930 . S
C287 C282 1.261 . S
C287 C286 1.312 . S
C288 O260 1.214 . S
C288 O268 1.234 . S
C289 H261 0.929 . S
C289 C292 1.391 . S
C289 C294 1.391 . S
C290 H262 0.929 . S
C290 C291 1.390 . S
C290 N293 1.391 . S
C291 H263 0.930 . S
C291 C290 1.390 . S
C291 C292 1.392 . S
C292 H264 0.929 . S
C292 C289 1.391 . S
C292 C291 1.392 . S
N293 Co237 2.257 . S
N293 C290 1.391 . S
N293 C294 1.388 . S
C294 H265 0.930 . S
C294 C289 1.391 . S
C294 N293 1.388 . S
Co295 O297 2.143 . S
Co295 O303 2.074 1_565 S
Co295 O306 2.093 . S
Co295 O319 2.097 . S
Co295 N336 2.151 1_565 S
Co295 N344 2.214 . S
Co296 O297 2.160 . S
Co296 O302 2.058 1_565 S
Co296 O312 2.057 . S
Co296 O327 2.037 . S
Co296 N331 2.145 . S
Co296 N352 2.257 . S
O297 Co295 2.143 . S
O297 Co296 2.160 . S
C298 O299 1.278 . S
C298 O306 1.224 . S
O299 C298 1.278 . S
C300 O301 1.245 . S
C300 O312 1.232 1_545 S
O301 C300 1.245 . S
O302 Co296 2.058 1_545 S
O302 C328 1.269 . S
O303 Co295 2.074 1_545 S
O303 C328 1.257 . S
H304 C329 0.930 . S
H305 C335 0.930 . S
O306 Co295 2.093 . S
O306 C298 1.224 . S
H307 C339 0.929 . S
H308 C341 0.930 . S
H309 C342 0.930 . S
H310 C340 0.929 . S
H311 C343 0.928 . S
O312 Co296 2.057 . S
O312 C300 1.232 1_565 S
H313 C332 0.929 . S
H314 C333 0.929 . S
H315 C345 0.931 . S
H316 C337 0.929 . S
H317 C346 0.930 . S
H318 C338 0.931 . S
O319 Co295 2.097 . S
O319 C347 1.214 . S
H320 C348 0.929 . S
H321 C349 0.929 . S
H322 C350 0.930 . S
H323 C351 0.929 . S
H324 C353 0.930 . S
H325 C330 0.930 1_545 S
H326 C334 0.930 . S
O327 Co296 2.037 . S
O327 C347 1.234 . S
C328 O302 1.269 . S
C328 O303 1.257 . S
C329 H304 0.930 . S
C329 C332 1.388 . S
C329 C334 1.418 . S
C330 H325 0.930 1_565 S
C330 C333 1.404 . S
C330 C334 1.353 . S
N331 Co296 2.145 . S
N331 C332 1.397 . S
N331 C333 1.334 . S
C332 H313 0.929 . S
C332 C329 1.388 . S
C332 N331 1.397 . S
C333 H314 0.929 . S
C333 C330 1.404 . S
C333 N331 1.334 . S
C334 H326 0.930 . S
C334 C329 1.418 . S
C334 C330 1.353 . S
C335 H305 0.930 . S
C335 N336 1.330 1_565 S
C335 C337 1.446 1_565 S
N336 Co295 2.151 1_545 S
N336 C335 1.330 1_545 S
N336 C340 1.418 . S
C337 H316 0.929 . S
C337 C335 1.446 1_545 S
C337 C338 1.332 . S
C338 H318 0.931 . S
C338 C337 1.332 . S
C338 C339 1.267 . S
C339 H307 0.929 . S
C339 C338 1.267 . S
C339 C340 1.251 . S
C340 H310 0.929 . S
C340 N336 1.418 . S
C340 C339 1.251 . S
C341 H308 0.930 . S
C341 C343 1.406 . S
C341 C346 1.261 . S
C342 H309 0.930 . S
C342 N344 1.325 . S
C342 C345 1.357 . S
C343 H311 0.928 . S
C343 C341 1.406 . S
C343 N344 1.261 . S
N344 Co295 2.214 . S
N344 C342 1.325 . S
N344 C343 1.261 . S
C345 H315 0.931 . S
C345 C342 1.357 . S
C345 C346 1.312 . S
C346 H317 0.930 . S
C346 C341 1.261 . S
C346 C345 1.312 . S
C347 O319 1.214 . S
C347 O327 1.234 . S
C348 H320 0.929 . S
C348 C351 1.391 . S
C348 C353 1.391 . S
C349 H321 0.929 . S
C349 C350 1.390 . S
C349 N352 1.391 . S
C350 H322 0.930 . S
C350 C349 1.390 . S
C350 C351 1.392 . S
C351 H323 0.929 . S
C351 C348 1.391 . S
C351 C350 1.392 . S
N352 Co296 2.257 . S
N352 C349 1.391 . S
N352 C353 1.388 . S
C353 H324 0.930 . S
C353 C348 1.391 . S
C353 N352 1.388 . S
Co354 O356 2.143 . S
Co354 O362 2.074 1_565 S
Co354 O365 2.093 . S
Co354 O378 2.097 . S
Co354 N395 2.151 1_565 S
Co354 N403 2.214 . S
Co355 O356 2.160 . S
Co355 O361 2.058 1_565 S
Co355 O371 2.057 . S
Co355 O386 2.037 . S
Co355 N390 2.145 . S
Co355 N411 2.257 . S
O356 Co354 2.143 . S
O356 Co355 2.160 . S
C357 O358 1.278 . S
C357 O365 1.224 . S
O358 C357 1.278 . S
C359 O360 1.245 . S
C359 O371 1.232 1_545 S
O360 C359 1.245 . S
O361 Co355 2.058 1_545 S
O361 C387 1.269 . S
O362 Co354 2.074 1_545 S
O362 C387 1.257 . S
H363 C388 0.930 . S
H364 C394 0.930 . S
O365 Co354 2.093 . S
O365 C357 1.224 . S
H366 C398 0.929 . S
H367 C400 0.930 . S
H368 C401 0.930 . S
H369 C399 0.929 . S
H370 C402 0.928 . S
O371 Co355 2.057 . S
O371 C359 1.232 1_565 S
H372 C391 0.929 . S
H373 C392 0.929 . S
H374 C404 0.931 . S
H375 C396 0.929 . S
H376 C405 0.930 . S
H377 C397 0.931 . S
O378 Co354 2.097 . S
O378 C406 1.214 . S
H379 C407 0.929 . S
H380 C408 0.929 . S
H381 C409 0.930 . S
H382 C410 0.929 . S
H383 C412 0.930 . S
H384 C389 0.930 1_545 S
H385 C393 0.930 . S
O386 Co355 2.037 . S
O386 C406 1.234 . S
C387 O361 1.269 . S
C387 O362 1.257 . S
C388 H363 0.930 . S
C388 C391 1.388 . S
C388 C393 1.418 . S
C389 H384 0.930 1_565 S
C389 C392 1.404 . S
C389 C393 1.353 . S
N390 Co355 2.145 . S
N390 C391 1.397 . S
N390 C392 1.334 . S
C391 H372 0.929 . S
C391 C388 1.388 . S
C391 N390 1.397 . S
C392 H373 0.929 . S
C392 C389 1.404 . S
C392 N390 1.334 . S
C393 H385 0.930 . S
C393 C388 1.418 . S
C393 C389 1.353 . S
C394 H364 0.930 . S
C394 N395 1.330 1_565 S
C394 C396 1.446 1_565 S
N395 Co354 2.151 1_545 S
N395 C394 1.330 1_545 S
N395 C399 1.418 . S
C396 H375 0.929 . S
C396 C394 1.446 1_545 S
C396 C397 1.332 . S
C397 H377 0.931 . S
C397 C396 1.332 . S
C397 C398 1.267 . S
C398 H366 0.929 . S
C398 C397 1.267 . S
C398 C399 1.251 . S
C399 H369 0.929 . S
C399 N395 1.418 . S
C399 C398 1.251 . S
C400 H367 0.930 . S
C400 C402 1.406 . S
C400 C405 1.261 . S
C401 H368 0.930 . S
C401 N403 1.325 . S
C401 C404 1.357 . S
C402 H370 0.928 . S
C402 C400 1.406 . S
C402 N403 1.261 . S
N403 Co354 2.214 . S
N403 C401 1.325 . S
N403 C402 1.261 . S
C404 H374 0.931 . S
C404 C401 1.357 . S
C404 C405 1.312 . S
C405 H376 0.930 . S
C405 C400 1.261 . S
C405 C404 1.312 . S
C406 O378 1.214 . S
C406 O386 1.234 . S
C407 H379 0.929 . S
C407 C410 1.391 . S
C407 C412 1.391 . S
C408 H380 0.929 . S
C408 C409 1.390 . S
C408 N411 1.391 . S
C409 H381 0.930 . S
C409 C408 1.390 . S
C409 C410 1.392 . S
C410 H382 0.929 . S
C410 C407 1.391 . S
C410 C409 1.392 . S
N411 Co355 2.257 . S
N411 C408 1.391 . S
N411 C412 1.388 . S
C412 H383 0.930 . S
C412 C407 1.391 . S
C412 N411 1.388 . S
Co413 O415 2.143 . S
Co413 O421 2.074 1_455 S
Co413 O424 2.093 . S
Co413 O437 2.097 . S
Co413 N454 2.151 1_455 S
Co413 N462 2.214 . S
Co414 O415 2.160 . S
Co414 O420 2.058 1_455 S
Co414 O430 2.057 . S
Co414 O445 2.037 . S
Co414 N449 2.145 . S
Co414 N470 2.257 . S
O415 Co413 2.143 . S
O415 Co414 2.160 . S
C416 O417 1.278 . S
C416 O424 1.224 . S
O417 C416 1.278 . S
C418 O419 1.245 . S
C418 O430 1.232 1_655 S
O419 C418 1.245 . S
O420 Co414 2.058 1_655 S
O420 C446 1.269 . S
O421 Co413 2.074 1_655 S
O421 C446 1.257 . S
H422 C447 0.930 . S
H423 C453 0.930 . S
O424 Co413 2.093 . S
O424 C416 1.224 . S
H425 C457 0.929 . S
H426 C459 0.930 . S
H427 C460 0.930 . S
H428 C458 0.929 . S
H429 C461 0.928 . S
O430 Co414 2.057 . S
O430 C418 1.232 1_455 S
H431 C450 0.929 . S
H432 C451 0.929 . S
H433 C463 0.931 . S
H434 C455 0.929 . S
H435 C464 0.930 . S
H436 C456 0.931 . S
O437 Co413 2.097 . S
O437 C465 1.214 . S
H438 C466 0.929 . S
H439 C467 0.929 . S
H440 C468 0.930 . S
H441 C469 0.929 . S
H442 C471 0.930 . S
H443 C448 0.930 1_655 S
H444 C452 0.930 . S
O445 Co414 2.037 . S
O445 C465 1.234 . S
C446 O420 1.269 . S
C446 O421 1.257 . S
C447 H422 0.930 . S
C447 C450 1.388 . S
C447 C452 1.418 . S
C448 H443 0.930 1_455 S
C448 C451 1.404 . S
C448 C452 1.353 . S
N449 Co414 2.145 . S
N449 C450 1.397 . S
N449 C451 1.334 . S
C450 H431 0.929 . S
C450 C447 1.388 . S
C450 N449 1.397 . S
C451 H432 0.929 . S
C451 C448 1.404 . S
C451 N449 1.334 . S
C452 H444 0.930 . S
C452 C447 1.418 . S
C452 C448 1.353 . S
C453 H423 0.930 . S
C453 N454 1.330 1_455 S
C453 C455 1.446 1_455 S
N454 Co413 2.151 1_655 S
N454 C453 1.330 1_655 S
N454 C458 1.418 . S
C455 H434 0.929 . S
C455 C453 1.446 1_655 S
C455 C456 1.332 . S
C456 H436 0.931 . S
C456 C455 1.332 . S
C456 C457 1.267 . S
C457 H425 0.929 . S
C457 C456 1.267 . S
C457 C458 1.251 . S
C458 H428 0.929 . S
C458 N454 1.418 . S
C458 C457 1.251 . S
C459 H426 0.930 . S
C459 C461 1.406 . S
C459 C464 1.261 . S
C460 H427 0.930 . S
C460 N462 1.325 . S
C460 C463 1.357 . S
C461 H429 0.928 . S
C461 C459 1.406 . S
C461 N462 1.261 . S
N462 Co413 2.214 . S
N462 C460 1.325 . S
N462 C461 1.261 . S
C463 H433 0.931 . S
C463 C460 1.357 . S
C463 C464 1.312 . S
C464 H435 0.930 . S
C464 C459 1.261 . S
C464 C463 1.312 . S
C465 O437 1.214 . S
C465 O445 1.234 . S
C466 H438 0.929 . S
C466 C469 1.391 . S
C466 C471 1.391 . S
C467 H439 0.929 . S
C467 C468 1.390 . S
C467 N470 1.391 . S
C468 H440 0.930 . S
C468 C467 1.390 . S
C468 C469 1.392 . S
C469 H441 0.929 . S
C469 C466 1.391 . S
C469 C468 1.392 . S
N470 Co414 2.257 . S
N470 C467 1.391 . S
N470 C471 1.388 . S
C471 H442 0.930 . S
C471 C466 1.391 . S
C471 N470 1.388 . S
Co472 O474 2.143 . S
Co472 O480 2.074 . S
Co472 O483 2.093 . S
Co472 O496 2.097 . S
Co472 N513 2.151 . S
Co472 N521 2.214 . S
Co473 O474 2.160 . S
Co473 O479 2.058 . S
Co473 O489 2.057 . S
Co473 O504 2.037 . S
Co473 N508 2.145 . S
Co473 N529 2.257 . S
O474 Co472 2.143 . S
O474 Co473 2.160 . S
C475 O476 1.278 . S
C475 O483 1.224 . S
O476 C475 1.278 . S
C477 O478 1.245 . S
C477 O489 1.232 . S
O478 C477 1.245 . S
O479 Co473 2.058 . S
O479 C505 1.269 . S
O480 Co472 2.074 . S
O480 C505 1.257 . S
H481 C506 0.930 . S
H482 C512 0.930 . S
O483 Co472 2.093 . S
O483 C475 1.224 . S
H484 C516 0.929 . S
H485 C518 0.930 . S
H486 C519 0.930 . S
H487 C517 0.929 . S
H488 C520 0.928 . S
O489 Co473 2.057 . S
O489 C477 1.232 . S
H490 C509 0.929 . S
H491 C510 0.929 . S
H492 C522 0.931 . S
H493 C514 0.929 . S
H494 C523 0.930 . S
H495 C515 0.931 . S
O496 Co472 2.097 . S
O496 C524 1.214 . S
H497 C525 0.929 . S
H498 C526 0.929 . S
H499 C527 0.930 . S
H500 C528 0.929 . S
H501 C530 0.930 . S
H502 C507 0.930 . S
H503 C511 0.930 . S
O504 Co473 2.037 . S
O504 C524 1.234 . S
C505 O479 1.269 . S
C505 O480 1.257 . S
C506 H481 0.930 . S
C506 C509 1.388 . S
C506 C511 1.418 . S
C507 H502 0.930 . S
C507 C510 1.404 . S
C507 C511 1.353 . S
N508 Co473 2.145 . S
N508 C509 1.397 . S
N508 C510 1.334 . S
C509 H490 0.929 . S
C509 C506 1.388 . S
C509 N508 1.397 . S
C510 H491 0.929 . S
C510 C507 1.404 . S
C510 N508 1.334 . S
C511 H503 0.930 . S
C511 C506 1.418 . S
C511 C507 1.353 . S
C512 H482 0.930 . S
C512 N513 1.330 . S
C512 C514 1.446 . S
N513 Co472 2.151 . S
N513 C512 1.330 . S
N513 C517 1.418 . S
C514 H493 0.929 . S
C514 C512 1.446 . S
C514 C515 1.332 . S
C515 H495 0.931 . S
C515 C514 1.332 . S
C515 C516 1.267 . S
C516 H484 0.929 . S
C516 C515 1.267 . S
C516 C517 1.251 . S
C517 H487 0.929 . S
C517 N513 1.418 . S
C517 C516 1.251 . S
C518 H485 0.930 . S
C518 C520 1.406 . S
C518 C523 1.261 . S
C519 H486 0.930 . S
C519 N521 1.325 . S
C519 C522 1.357 . S
C520 H488 0.928 . S
C520 C518 1.406 . S
C520 N521 1.261 . S
N521 Co472 2.214 . S
N521 C519 1.325 . S
N521 C520 1.261 . S
C522 H492 0.931 . S
C522 C519 1.357 . S
C522 C523 1.312 . S
C523 H494 0.930 . S
C523 C518 1.261 . S
C523 C522 1.312 . S
C524 O496 1.214 . S
C524 O504 1.234 . S
C525 H497 0.929 . S
C525 C528 1.391 . S
C525 C530 1.391 . S
C526 H498 0.929 . S
C526 C527 1.390 . S
C526 N529 1.391 . S
C527 H499 0.930 . S
C527 C526 1.390 . S
C527 C528 1.392 . S
C528 H500 0.929 . S
C528 C525 1.391 . S
C528 C527 1.392 . S
N529 Co473 2.257 . S
N529 C526 1.391 . S
N529 C530 1.388 . S
C530 H501 0.930 . S
C530 C525 1.391 . S
C530 N529 1.388 . S
Co531 O533 2.143 . S
Co531 O539 2.074 1_655 S
Co531 O542 2.093 . S
Co531 O555 2.097 . S
Co531 N572 2.151 1_655 S
Co531 N580 2.214 . S
Co532 O533 2.160 . S
Co532 O538 2.058 1_655 S
Co532 O548 2.057 . S
Co532 O563 2.037 . S
Co532 N567 2.145 . S
Co532 N588 2.257 . S
O533 Co531 2.143 . S
O533 Co532 2.160 . S
C534 O535 1.278 . S
C534 O542 1.224 . S
O535 C534 1.278 . S
C536 O537 1.245 . S
C536 O548 1.232 1_455 S
O537 C536 1.245 . S
O538 Co532 2.058 1_455 S
O538 C564 1.269 . S
O539 Co531 2.074 1_455 S
O539 C564 1.257 . S
H540 C565 0.930 . S
H541 C571 0.930 . S
O542 Co531 2.093 . S
O542 C534 1.224 . S
H543 C575 0.929 . S
H544 C577 0.930 . S
H545 C578 0.930 . S
H546 C576 0.929 . S
H547 C579 0.928 . S
O548 Co532 2.057 . S
O548 C536 1.232 1_655 S
H549 C568 0.929 . S
H550 C569 0.929 . S
H551 C581 0.931 . S
H552 C573 0.929 . S
H553 C582 0.930 . S
H554 C574 0.931 . S
O555 Co531 2.097 . S
O555 C583 1.214 . S
H556 C584 0.929 . S
H557 C585 0.929 . S
H558 C586 0.930 . S
H559 C587 0.929 . S
H560 C589 0.930 . S
H561 C566 0.930 1_455 S
H562 C570 0.930 . S
O563 Co532 2.037 . S
O563 C583 1.234 . S
C564 O538 1.269 . S
C564 O539 1.257 . S
C565 H540 0.930 . S
C565 C568 1.388 . S
C565 C570 1.418 . S
C566 H561 0.930 1_655 S
C566 C569 1.404 . S
C566 C570 1.353 . S
N567 Co532 2.145 . S
N567 C568 1.397 . S
N567 C569 1.334 . S
C568 H549 0.929 . S
C568 C565 1.388 . S
C568 N567 1.397 . S
C569 H550 0.929 . S
C569 C566 1.404 . S
C569 N567 1.334 . S
C570 H562 0.930 . S
C570 C565 1.418 . S
C570 C566 1.353 . S
C571 H541 0.930 . S
C571 N572 1.330 1_655 S
C571 C573 1.446 1_655 S
N572 Co531 2.151 1_455 S
N572 C571 1.330 1_455 S
N572 C576 1.418 . S
C573 H552 0.929 . S
C573 C571 1.446 1_455 S
C573 C574 1.332 . S
C574 H554 0.931 . S
C574 C573 1.332 . S
C574 C575 1.267 . S
C575 H543 0.929 . S
C575 C574 1.267 . S
C575 C576 1.251 . S
C576 H546 0.929 . S
C576 N572 1.418 . S
C576 C575 1.251 . S
C577 H544 0.930 . S
C577 C579 1.406 . S
C577 C582 1.261 . S
C578 H545 0.930 . S
C578 N580 1.325 . S
C578 C581 1.357 . S
C579 H547 0.928 . S
C579 C577 1.406 . S
C579 N580 1.261 . S
N580 Co531 2.214 . S
N580 C578 1.325 . S
N580 C579 1.261 . S
C581 H551 0.931 . S
C581 C578 1.357 . S
C581 C582 1.312 . S
C582 H553 0.930 . S
C582 C577 1.261 . S
C582 C581 1.312 . S
C583 O555 1.214 . S
C583 O563 1.234 . S
C584 H556 0.929 . S
C584 C587 1.391 . S
C584 C589 1.391 . S
C585 H557 0.929 . S
C585 C586 1.390 . S
C585 N588 1.391 . S
C586 H558 0.930 . S
C586 C585 1.390 . S
C586 C587 1.392 . S
C587 H559 0.929 . S
C587 C584 1.391 . S
C587 C586 1.392 . S
N588 Co532 2.257 . S
N588 C585 1.391 . S
N588 C589 1.388 . S
C589 H560 0.930 . S
C589 C584 1.391 . S
C589 N588 1.388 . S
Co590 O592 2.143 . S
Co590 O598 2.074 . S
Co590 O601 2.093 . S
Co590 O614 2.097 . S
Co590 N631 2.151 . S
Co590 N639 2.214 . S
Co591 O592 2.160 . S
Co591 O597 2.058 . S
Co591 O607 2.057 . S
Co591 O622 2.037 . S
Co591 N626 2.145 . S
Co591 N647 2.257 . S
O592 Co590 2.143 . S
O592 Co591 2.160 . S
C593 O594 1.278 . S
C593 O601 1.224 . S
O594 C593 1.278 . S
C595 O596 1.245 . S
C595 O607 1.232 . S
O596 C595 1.245 . S
O597 Co591 2.058 . S
O597 C623 1.269 . S
O598 Co590 2.074 . S
O598 C623 1.257 . S
H599 C624 0.930 . S
H600 C630 0.930 . S
O601 Co590 2.093 . S
O601 C593 1.224 . S
H602 C634 0.929 . S
H603 C636 0.930 . S
H604 C637 0.930 . S
H605 C635 0.929 . S
H606 C638 0.928 . S
O607 Co591 2.057 . S
O607 C595 1.232 . S
H608 C627 0.929 . S
H609 C628 0.929 . S
H610 C640 0.931 . S
H611 C632 0.929 . S
H612 C641 0.930 . S
H613 C633 0.931 . S
O614 Co590 2.097 . S
O614 C642 1.214 . S
H615 C643 0.929 . S
H616 C644 0.929 . S
H617 C645 0.930 . S
H618 C646 0.929 . S
H619 C648 0.930 . S
H620 C625 0.930 . S
H621 C629 0.930 . S
O622 Co591 2.037 . S
O622 C642 1.234 . S
C623 O597 1.269 . S
C623 O598 1.257 . S
C624 H599 0.930 . S
C624 C627 1.388 . S
C624 C629 1.418 . S
C625 H620 0.930 . S
C625 C628 1.404 . S
C625 C629 1.353 . S
N626 Co591 2.145 . S
N626 C627 1.397 . S
N626 C628 1.334 . S
C627 H608 0.929 . S
C627 C624 1.388 . S
C627 N626 1.397 . S
C628 H609 0.929 . S
C628 C625 1.404 . S
C628 N626 1.334 . S
C629 H621 0.930 . S
C629 C624 1.418 . S
C629 C625 1.353 . S
C630 H600 0.930 . S
C630 N631 1.330 . S
C630 C632 1.446 . S
N631 Co590 2.151 . S
N631 C630 1.330 . S
N631 C635 1.418 . S
C632 H611 0.929 . S
C632 C630 1.446 . S
C632 C633 1.332 . S
C633 H613 0.931 . S
C633 C632 1.332 . S
C633 C634 1.267 . S
C634 H602 0.929 . S
C634 C633 1.267 . S
C634 C635 1.251 . S
C635 H605 0.929 . S
C635 N631 1.418 . S
C635 C634 1.251 . S
C636 H603 0.930 . S
C636 C638 1.406 . S
C636 C641 1.261 . S
C637 H604 0.930 . S
C637 N639 1.325 . S
C637 C640 1.357 . S
C638 H606 0.928 . S
C638 C636 1.406 . S
C638 N639 1.261 . S
N639 Co590 2.214 . S
N639 C637 1.325 . S
N639 C638 1.261 . S
C640 H610 0.931 . S
C640 C637 1.357 . S
C640 C641 1.312 . S
C641 H612 0.930 . S
C641 C636 1.261 . S
C641 C640 1.312 . S
C642 O614 1.214 . S
C642 O622 1.234 . S
C643 H615 0.929 . S
C643 C646 1.391 . S
C643 C648 1.391 . S
C644 H616 0.929 . S
C644 C645 1.390 . S
C644 N647 1.391 . S
C645 H617 0.930 . S
C645 C644 1.390 . S
C645 C646 1.392 . S
C646 H618 0.929 . S
C646 C643 1.391 . S
C646 C645 1.392 . S
N647 Co591 2.257 . S
N647 C644 1.391 . S
N647 C648 1.388 . S
C648 H619 0.930 . S
C648 C643 1.391 . S
C648 N647 1.388 . S
Co649 O651 2.143 . S
Co649 O657 2.074 1_545 S
Co649 O660 2.093 . S
Co649 O673 2.097 . S
Co649 N690 2.151 1_545 S
Co649 N698 2.214 . S
Co650 O651 2.160 . S
Co650 O656 2.058 1_545 S
Co650 O666 2.057 . S
Co650 O681 2.037 . S
Co650 N685 2.145 . S
Co650 N706 2.257 . S
O651 Co649 2.143 . S
O651 Co650 2.160 . S
C652 O653 1.278 . S
C652 O660 1.224 . S
O653 C652 1.278 . S
C654 O655 1.245 . S
C654 O666 1.232 1_565 S
O655 C654 1.245 . S
O656 Co650 2.058 1_565 S
O656 C682 1.269 . S
O657 Co649 2.074 1_565 S
O657 C682 1.257 . S
H658 C683 0.930 . S
H659 C689 0.930 . S
O660 Co649 2.093 . S
O660 C652 1.224 . S
H661 C693 0.929 . S
H662 C695 0.930 . S
H663 C696 0.930 . S
H664 C694 0.929 . S
H665 C697 0.928 . S
O666 Co650 2.057 . S
O666 C654 1.232 1_545 S
H667 C686 0.929 . S
H668 C687 0.929 . S
H669 C699 0.931 . S
H670 C691 0.929 . S
H671 C700 0.930 . S
H672 C692 0.931 . S
O673 Co649 2.097 . S
O673 C701 1.214 . S
H674 C702 0.929 . S
H675 C703 0.929 . S
H676 C704 0.930 . S
H677 C705 0.929 . S
H678 C707 0.930 . S
H679 C684 0.930 1_565 S
H680 C688 0.930 . S
O681 Co650 2.037 . S
O681 C701 1.234 . S
C682 O656 1.269 . S
C682 O657 1.257 . S
C683 H658 0.930 . S
C683 C686 1.388 . S
C683 C688 1.418 . S
C684 H679 0.930 1_545 S
C684 C687 1.404 . S
C684 C688 1.353 . S
N685 Co650 2.145 . S
N685 C686 1.397 . S
N685 C687 1.334 . S
C686 H667 0.929 . S
C686 C683 1.388 . S
C686 N685 1.397 . S
C687 H668 0.929 . S
C687 C684 1.404 . S
C687 N685 1.334 . S
C688 H680 0.930 . S
C688 C683 1.418 . S
C688 C684 1.353 . S
C689 H659 0.930 . S
C689 N690 1.330 1_545 S
C689 C691 1.446 1_545 S
N690 Co649 2.151 1_565 S
N690 C689 1.330 1_565 S
N690 C694 1.418 . S
C691 H670 0.929 . S
C691 C689 1.446 1_565 S
C691 C692 1.332 . S
C692 H672 0.931 . S
C692 C691 1.332 . S
C692 C693 1.267 . S
C693 H661 0.929 . S
C693 C692 1.267 . S
C693 C694 1.251 . S
C694 H664 0.929 . S
C694 N690 1.418 . S
C694 C693 1.251 . S
C695 H662 0.930 . S
C695 C697 1.406 . S
C695 C700 1.261 . S
C696 H663 0.930 . S
C696 N698 1.325 . S
C696 C699 1.357 . S
C697 H665 0.928 . S
C697 C695 1.406 . S
C697 N698 1.261 . S
N698 Co649 2.214 . S
N698 C696 1.325 . S
N698 C697 1.261 . S
C699 H669 0.931 . S
C699 C696 1.357 . S
C699 C700 1.312 . S
C700 H671 0.930 . S
C700 C695 1.261 . S
C700 C699 1.312 . S
C701 O673 1.214 . S
C701 O681 1.234 . S
C702 H674 0.929 . S
C702 C705 1.391 . S
C702 C707 1.391 . S
C703 H675 0.929 . S
C703 C704 1.390 . S
C703 N706 1.391 . S
C704 H676 0.930 . S
C704 C703 1.390 . S
C704 C705 1.392 . S
C705 H677 0.929 . S
C705 C702 1.391 . S
C705 C704 1.392 . S
N706 Co650 2.257 . S
N706 C703 1.391 . S
N706 C707 1.388 . S
C707 H678 0.930 . S
C707 C702 1.391 . S
C707 N706 1.388 . S
Co708 O710 2.143 . S
Co708 O716 2.074 . S
Co708 O719 2.093 . S
Co708 O732 2.097 . S
Co708 N749 2.151 . S
Co708 N757 2.214 . S
Co709 O710 2.160 . S
Co709 O715 2.058 . S
Co709 O725 2.057 . S
Co709 O740 2.037 . S
Co709 N744 2.145 . S
Co709 N765 2.257 . S
O710 Co708 2.143 . S
O710 Co709 2.160 . S
C711 O712 1.278 . S
C711 O719 1.224 . S
O712 C711 1.278 . S
C713 O714 1.245 . S
C713 O725 1.232 . S
O714 C713 1.245 . S
O715 Co709 2.058 . S
O715 C741 1.269 . S
O716 Co708 2.074 . S
O716 C741 1.257 . S
H717 C742 0.930 . S
H718 C748 0.930 . S
O719 Co708 2.093 . S
O719 C711 1.224 . S
H720 C752 0.929 . S
H721 C754 0.930 . S
H722 C755 0.930 . S
H723 C753 0.929 . S
H724 C756 0.928 . S
O725 Co709 2.057 . S
O725 C713 1.232 . S
H726 C745 0.929 . S
H727 C746 0.929 . S
H728 C758 0.931 . S
H729 C750 0.929 . S
H730 C759 0.930 . S
H731 C751 0.931 . S
O732 Co708 2.097 . S
O732 C760 1.214 . S
H733 C761 0.929 1_455 S
H734 C762 0.929 . S
H735 C763 0.930 . S
H736 C764 0.929 . S
H737 C766 0.930 . S
H738 C743 0.930 . S
H739 C747 0.930 . S
O740 Co709 2.037 . S
O740 C760 1.234 . S
C741 O715 1.269 . S
C741 O716 1.257 . S
C742 H717 0.930 . S
C742 C745 1.388 . S
C742 C747 1.418 . S
C743 H738 0.930 . S
C743 C746 1.404 . S
C743 C747 1.353 . S
N744 Co709 2.145 . S
N744 C745 1.397 . S
N744 C746 1.334 . S
C745 H726 0.929 . S
C745 C742 1.388 . S
C745 N744 1.397 . S
C746 H727 0.929 . S
C746 C743 1.404 . S
C746 N744 1.334 . S
C747 H739 0.930 . S
C747 C742 1.418 . S
C747 C743 1.353 . S
C748 H718 0.930 . S
C748 N749 1.330 . S
C748 C750 1.446 . S
N749 Co708 2.151 . S
N749 C748 1.330 . S
N749 C753 1.418 . S
C750 H729 0.929 . S
C750 C748 1.446 . S
C750 C751 1.332 . S
C751 H731 0.931 . S
C751 C750 1.332 . S
C751 C752 1.267 . S
C752 H720 0.929 . S
C752 C751 1.267 . S
C752 C753 1.251 . S
C753 H723 0.929 . S
C753 N749 1.418 . S
C753 C752 1.251 . S
C754 H721 0.930 . S
C754 C756 1.406 . S
C754 C759 1.261 . S
C755 H722 0.930 . S
C755 N757 1.325 . S
C755 C758 1.357 . S
C756 H724 0.928 . S
C756 C754 1.406 . S
C756 N757 1.261 . S
N757 Co708 2.214 . S
N757 C755 1.325 . S
N757 C756 1.261 . S
C758 H728 0.931 . S
C758 C755 1.357 . S
C758 C759 1.312 . S
C759 H730 0.930 . S
C759 C754 1.261 . S
C759 C758 1.312 . S
C760 O732 1.214 . S
C760 O740 1.234 . S
C761 H733 0.929 1_655 S
C761 C764 1.391 . S
C761 C766 1.391 . S
C762 H734 0.929 . S
C762 C763 1.390 . S
C762 N765 1.391 . S
C763 H735 0.930 . S
C763 C762 1.390 . S
C763 C764 1.392 . S
C764 H736 0.929 . S
C764 C761 1.391 . S
C764 C763 1.392 . S
N765 Co709 2.257 . S
N765 C762 1.391 . S
N765 C766 1.388 . S
C766 H737 0.930 . S
C766 C761 1.391 . S
C766 N765 1.388 . S
Co767 O769 2.143 . S
Co767 O775 2.074 . S
Co767 O778 2.093 . S
Co767 O791 2.097 . S
Co767 N808 2.151 . S
Co767 N816 2.214 . S
Co768 O769 2.160 . S
Co768 O774 2.058 . S
Co768 O784 2.057 . S
Co768 O799 2.037 . S
Co768 N803 2.145 . S
Co768 N824 2.257 . S
O769 Co767 2.143 . S
O769 Co768 2.160 . S
C770 O771 1.278 . S
C770 O778 1.224 . S
O771 C770 1.278 . S
C772 O773 1.245 . S
C772 O784 1.232 . S
O773 C772 1.245 . S
O774 Co768 2.058 . S
O774 C800 1.269 . S
O775 Co767 2.074 . S
O775 C800 1.257 . S
H776 C801 0.930 . S
H777 C807 0.930 . S
O778 Co767 2.093 . S
O778 C770 1.224 . S
H779 C811 0.929 . S
H780 C813 0.930 . S
H781 C814 0.930 . S
H782 C812 0.929 . S
H783 C815 0.928 . S
O784 Co768 2.057 . S
O784 C772 1.232 . S
H785 C804 0.929 . S
H786 C805 0.929 . S
H787 C817 0.931 . S
H788 C809 0.929 . S
H789 C818 0.930 . S
H790 C810 0.931 . S
O791 Co767 2.097 . S
O791 C819 1.214 . S
H792 C820 0.929 . S
H793 C821 0.929 . S
H794 C822 0.930 . S
H795 C823 0.929 . S
H796 C825 0.930 . S
H797 C802 0.930 . S
H798 C806 0.930 . S
O799 Co768 2.037 . S
O799 C819 1.234 . S
C800 O774 1.269 . S
C800 O775 1.257 . S
C801 H776 0.930 . S
C801 C804 1.388 . S
C801 C806 1.418 . S
C802 H797 0.930 . S
C802 C805 1.404 . S
C802 C806 1.353 . S
N803 Co768 2.145 . S
N803 C804 1.397 . S
N803 C805 1.334 . S
C804 H785 0.929 . S
C804 C801 1.388 . S
C804 N803 1.397 . S
C805 H786 0.929 . S
C805 C802 1.404 . S
C805 N803 1.334 . S
C806 H798 0.930 . S
C806 C801 1.418 . S
C806 C802 1.353 . S
C807 H777 0.930 . S
C807 N808 1.330 . S
C807 C809 1.446 . S
N808 Co767 2.151 . S
N808 C807 1.330 . S
N808 C812 1.418 . S
C809 H788 0.929 . S
C809 C807 1.446 . S
C809 C810 1.332 . S
C810 H790 0.931 . S
C810 C809 1.332 . S
C810 C811 1.267 . S
C811 H779 0.929 . S
C811 C810 1.267 . S
C811 C812 1.251 . S
C812 H782 0.929 . S
C812 N808 1.418 . S
C812 C811 1.251 . S
C813 H780 0.930 . S
C813 C815 1.406 . S
C813 C818 1.261 . S
C814 H781 0.930 . S
C814 N816 1.325 . S
C814 C817 1.357 . S
C815 H783 0.928 . S
C815 C813 1.406 . S
C815 N816 1.261 . S
N816 Co767 2.214 . S
N816 C814 1.325 . S
N816 C815 1.261 . S
C817 H787 0.931 . S
C817 C814 1.357 . S
C817 C818 1.312 . S
C818 H789 0.930 . S
C818 C813 1.261 . S
C818 C817 1.312 . S
C819 O791 1.214 . S
C819 O799 1.234 . S
C820 H792 0.929 . S
C820 C823 1.391 . S
C820 C825 1.391 . S
C821 H793 0.929 . S
C821 C822 1.390 . S
C821 N824 1.391 . S
C822 H794 0.930 . S
C822 C821 1.390 . S
C822 C823 1.392 . S
C823 H795 0.929 . S
C823 C820 1.391 . S
C823 C822 1.392 . S
N824 Co768 2.257 . S
N824 C821 1.391 . S
N824 C825 1.388 . S
C825 H796 0.930 . S
C825 C820 1.391 . S
C825 N824 1.388 . S
Co826 O828 2.143 . S
Co826 O834 2.074 . S
Co826 O837 2.093 . S
Co826 O850 2.097 . S
Co826 N867 2.151 . S
Co826 N875 2.214 . S
Co827 O828 2.160 . S
Co827 O833 2.058 . S
Co827 O843 2.057 . S
Co827 O858 2.037 . S
Co827 N862 2.145 . S
Co827 N883 2.257 . S
O828 Co826 2.143 . S
O828 Co827 2.160 . S
C829 O830 1.278 . S
C829 O837 1.224 . S
O830 C829 1.278 . S
C831 O832 1.245 . S
C831 O843 1.232 . S
O832 C831 1.245 . S
O833 Co827 2.058 . S
O833 C859 1.269 . S
O834 Co826 2.074 . S
O834 C859 1.257 . S
H835 C860 0.930 . S
H836 C866 0.930 . S
O837 Co826 2.093 . S
O837 C829 1.224 . S
H838 C870 0.929 . S
H839 C872 0.930 . S
H840 C873 0.930 . S
H841 C871 0.929 . S
H842 C874 0.928 . S
O843 Co827 2.057 . S
O843 C831 1.232 . S
H844 C863 0.929 . S
H845 C864 0.929 . S
H846 C876 0.931 . S
H847 C868 0.929 . S
H848 C877 0.930 . S
H849 C869 0.931 . S
O850 Co826 2.097 . S
O850 C878 1.214 . S
H851 C879 0.929 1_565 S
H852 C880 0.929 . S
H853 C881 0.930 . S
H854 C882 0.929 . S
H855 C884 0.930 . S
H856 C861 0.930 . S
H857 C865 0.930 . S
O858 Co827 2.037 . S
O858 C878 1.234 . S
C859 O833 1.269 . S
C859 O834 1.257 . S
C860 H835 0.930 . S
C860 C863 1.388 . S
C860 C865 1.418 . S
C861 H856 0.930 . S
C861 C864 1.404 . S
C861 C865 1.353 . S
N862 Co827 2.145 . S
N862 C863 1.397 . S
N862 C864 1.334 . S
C863 H844 0.929 . S
C863 C860 1.388 . S
C863 N862 1.397 . S
C864 H845 0.929 . S
C864 C861 1.404 . S
C864 N862 1.334 . S
C865 H857 0.930 . S
C865 C860 1.418 . S
C865 C861 1.353 . S
C866 H836 0.930 . S
C866 N867 1.330 . S
C866 C868 1.446 . S
N867 Co826 2.151 . S
N867 C866 1.330 . S
N867 C871 1.418 . S
C868 H847 0.929 . S
C868 C866 1.446 . S
C868 C869 1.332 . S
C869 H849 0.931 . S
C869 C868 1.332 . S
C869 C870 1.267 . S
C870 H838 0.929 . S
C870 C869 1.267 . S
C870 C871 1.251 . S
C871 H841 0.929 . S
C871 N867 1.418 . S
C871 C870 1.251 . S
C872 H839 0.930 . S
C872 C874 1.406 . S
C872 C877 1.261 . S
C873 H840 0.930 . S
C873 N875 1.325 . S
C873 C876 1.357 . S
C874 H842 0.928 . S
C874 C872 1.406 . S
C874 N875 1.261 . S
N875 Co826 2.214 . S
N875 C873 1.325 . S
N875 C874 1.261 . S
C876 H846 0.931 . S
C876 C873 1.357 . S
C876 C877 1.312 . S
C877 H848 0.930 . S
C877 C872 1.261 . S
C877 C876 1.312 . S
C878 O850 1.214 . S
C878 O858 1.234 . S
C879 H851 0.929 1_545 S
C879 C882 1.391 . S
C879 C884 1.391 . S
C880 H852 0.929 . S
C880 C881 1.390 . S
C880 N883 1.391 . S
C881 H853 0.930 . S
C881 C880 1.390 . S
C881 C882 1.392 . S
C882 H854 0.929 . S
C882 C879 1.391 . S
C882 C881 1.392 . S
N883 Co827 2.257 . S
N883 C880 1.391 . S
N883 C884 1.388 . S
C884 H855 0.930 . S
C884 C879 1.391 . S
C884 N883 1.388 . S
Co885 O887 2.143 . S
Co885 O893 2.074 . S
Co885 O896 2.093 . S
Co885 O909 2.097 . S
Co885 N926 2.151 . S
Co885 N934 2.214 . S
Co886 O887 2.160 . S
Co886 O892 2.058 . S
Co886 O902 2.057 . S
Co886 O917 2.037 . S
Co886 N921 2.145 . S
Co886 N942 2.257 . S
O887 Co885 2.143 . S
O887 Co886 2.160 . S
C888 O889 1.278 . S
C888 O896 1.224 . S
O889 C888 1.278 . S
C890 O891 1.245 . S
C890 O902 1.232 . S
O891 C890 1.245 . S
O892 Co886 2.058 . S
O892 C918 1.269 . S
O893 Co885 2.074 . S
O893 C918 1.257 . S
H894 C919 0.930 . S
H895 C925 0.930 . S
O896 Co885 2.093 . S
O896 C888 1.224 . S
H897 C929 0.929 . S
H898 C931 0.930 . S
H899 C932 0.930 . S
H900 C930 0.929 . S
H901 C933 0.928 . S
O902 Co886 2.057 . S
O902 C890 1.232 . S
H903 C922 0.929 . S
H904 C923 0.929 . S
H905 C935 0.931 . S
H906 C927 0.929 . S
H907 C936 0.930 . S
H908 C928 0.931 . S
O909 Co885 2.097 . S
O909 C937 1.214 . S
H910 C938 0.929 . S
H911 C939 0.929 . S
H912 C940 0.930 . S
H913 C941 0.929 . S
H914 C943 0.930 . S
H915 C920 0.930 . S
H916 C924 0.930 . S
O917 Co886 2.037 . S
O917 C937 1.234 . S
C918 O892 1.269 . S
C918 O893 1.257 . S
C919 H894 0.930 . S
C919 C922 1.388 . S
C919 C924 1.418 . S
C920 H915 0.930 . S
C920 C923 1.404 . S
C920 C924 1.353 . S
N921 Co886 2.145 . S
N921 C922 1.397 . S
N921 C923 1.334 . S
C922 H903 0.929 . S
C922 C919 1.388 . S
C922 N921 1.397 . S
C923 H904 0.929 . S
C923 C920 1.404 . S
C923 N921 1.334 . S
C924 H916 0.930 . S
C924 C919 1.418 . S
C924 C920 1.353 . S
C925 H895 0.930 . S
C925 N926 1.330 . S
C925 C927 1.446 . S
N926 Co885 2.151 . S
N926 C925 1.330 . S
N926 C930 1.418 . S
C927 H906 0.929 . S
C927 C925 1.446 . S
C927 C928 1.332 . S
C928 H908 0.931 . S
C928 C927 1.332 . S
C928 C929 1.267 . S
C929 H897 0.929 . S
C929 C928 1.267 . S
C929 C930 1.251 . S
C930 H900 0.929 . S
C930 N926 1.418 . S
C930 C929 1.251 . S
C931 H898 0.930 . S
C931 C933 1.406 . S
C931 C936 1.261 . S
C932 H899 0.930 . S
C932 N934 1.325 . S
C932 C935 1.357 . S
C933 H901 0.928 . S
C933 C931 1.406 . S
C933 N934 1.261 . S
N934 Co885 2.214 . S
N934 C932 1.325 . S
N934 C933 1.261 . S
C935 H905 0.931 . S
C935 C932 1.357 . S
C935 C936 1.312 . S
C936 H907 0.930 . S
C936 C931 1.261 . S
C936 C935 1.312 . S
C937 O909 1.214 . S
C937 O917 1.234 . S
C938 H910 0.929 . S
C938 C941 1.391 . S
C938 C943 1.391 . S
C939 H911 0.929 . S
C939 C940 1.390 . S
C939 N942 1.391 . S
C940 H912 0.930 . S
C940 C939 1.390 . S
C940 C941 1.392 . S
C941 H913 0.929 . S
C941 C938 1.391 . S
C941 C940 1.392 . S
N942 Co886 2.257 . S
N942 C939 1.391 . S
N942 C943 1.388 . S
C943 H914 0.930 . S
C943 C938 1.391 . S
C943 N942 1.388 . S
Co944 O946 2.143 . S
Co944 O952 2.074 . S
Co944 O955 2.093 . S
Co944 O968 2.097 . S
Co944 N985 2.151 . S
Co944 N993 2.214 . S
Co945 O946 2.160 . S
Co945 O951 2.058 . S
Co945 O961 2.057 . S
Co945 O976 2.037 . S
Co945 N980 2.145 . S
Co945 N1001 2.257 . S
O946 Co944 2.143 . S
O946 Co945 2.160 . S
C947 O948 1.278 . S
C947 O955 1.224 . S
O948 C947 1.278 . S
C949 O950 1.245 . S
C949 O961 1.232 . S
O950 C949 1.245 . S
O951 Co945 2.058 . S
O951 C977 1.269 . S
O952 Co944 2.074 . S
O952 C977 1.257 . S
H953 C978 0.930 . S
H954 C984 0.930 . S
O955 Co944 2.093 . S
O955 C947 1.224 . S
H956 C988 0.929 . S
H957 C990 0.930 . S
H958 C991 0.930 . S
H959 C989 0.929 . S
H960 C992 0.928 . S
O961 Co945 2.057 . S
O961 C949 1.232 . S
H962 C981 0.929 . S
H963 C982 0.929 . S
H964 C994 0.931 . S
H965 C986 0.929 . S
H966 C995 0.930 . S
H967 C987 0.931 . S
O968 Co944 2.097 . S
O968 C996 1.214 . S
H969 C997 0.929 . S
H970 C998 0.929 . S
H971 C999 0.930 . S
H972 C1000 0.929 . S
H973 C1002 0.930 . S
H974 C979 0.930 . S
H975 C983 0.930 . S
O976 Co945 2.037 . S
O976 C996 1.234 . S
C977 O951 1.269 . S
C977 O952 1.257 . S
C978 H953 0.930 . S
C978 C981 1.388 . S
C978 C983 1.418 . S
C979 H974 0.930 . S
C979 C982 1.404 . S
C979 C983 1.353 . S
N980 Co945 2.145 . S
N980 C981 1.397 . S
N980 C982 1.334 . S
C981 H962 0.929 . S
C981 C978 1.388 . S
C981 N980 1.397 . S
C982 H963 0.929 . S
C982 C979 1.404 . S
C982 N980 1.334 . S
C983 H975 0.930 . S
C983 C978 1.418 . S
C983 C979 1.353 . S
C984 H954 0.930 . S
C984 N985 1.330 . S
C984 C986 1.446 . S
N985 Co944 2.151 . S
N985 C984 1.330 . S
N985 C989 1.418 . S
C986 H965 0.929 . S
C986 C984 1.446 . S
C986 C987 1.332 . S
C987 H967 0.931 . S
C987 C986 1.332 . S
C987 C988 1.267 . S
C988 H956 0.929 . S
C988 C987 1.267 . S
C988 C989 1.251 . S
C989 H959 0.929 . S
C989 N985 1.418 . S
C989 C988 1.251 . S
C990 H957 0.930 . S
C990 C992 1.406 . S
C990 C995 1.261 . S
C991 H958 0.930 . S
C991 N993 1.325 . S
C991 C994 1.357 . S
C992 H960 0.928 . S
C992 C990 1.406 . S
C992 N993 1.261 . S
N993 Co944 2.214 . S
N993 C991 1.325 . S
N993 C992 1.261 . S
C994 H964 0.931 . S
C994 C991 1.357 . S
C994 C995 1.312 . S
C995 H966 0.930 . S
C995 C990 1.261 . S
C995 C994 1.312 . S
C996 O968 1.214 . S
C996 O976 1.234 . S
C997 H969 0.929 . S
C997 C1000 1.391 . S
C997 C1002 1.391 . S
C998 H970 0.929 . S
C998 C999 1.390 . S
C998 N1001 1.391 . S
C999 H971 0.930 . S
C999 C998 1.390 . S
C999 C1000 1.392 . S
C1000 H972 0.929 . S
C1000 C997 1.391 . S
C1000 C999 1.392 . S
N1001 Co945 2.257 . S
N1001 C998 1.391 . S
N1001 C1002 1.388 . S
C1002 H973 0.930 . S
C1002 C997 1.391 . S
C1002 N1001 1.388 . S
Co1003 O1005 2.143 . S
Co1003 O1011 2.074 . S
Co1003 O1014 2.093 . S
Co1003 O1027 2.097 . S
Co1003 N1044 2.151 . S
Co1003 N1052 2.214 . S
Co1004 O1005 2.160 . S
Co1004 O1010 2.058 . S
Co1004 O1020 2.057 . S
Co1004 O1035 2.037 . S
Co1004 N1039 2.145 . S
Co1004 N1060 2.257 . S
O1005 Co1003 2.143 . S
O1005 Co1004 2.160 . S
C1006 O1007 1.278 . S
C1006 O1014 1.224 . S
O1007 C1006 1.278 . S
C1008 O1009 1.245 . S
C1008 O1020 1.232 . S
O1009 C1008 1.245 . S
O1010 Co1004 2.058 . S
O1010 C1036 1.269 . S
O1011 Co1003 2.074 . S
O1011 C1036 1.257 . S
H1012 C1037 0.930 . S
H1013 C1043 0.930 . S
O1014 Co1003 2.093 . S
O1014 C1006 1.224 . S
H1015 C1047 0.929 . S
H1016 C1049 0.930 . S
H1017 C1050 0.930 . S
H1018 C1048 0.929 . S
H1019 C1051 0.928 . S
O1020 Co1004 2.057 . S
O1020 C1008 1.232 . S
H1021 C1040 0.929 . S
H1022 C1041 0.929 . S
H1023 C1053 0.931 . S
H1024 C1045 0.929 . S
H1025 C1054 0.930 . S
H1026 C1046 0.931 . S
O1027 Co1003 2.097 . S
O1027 C1055 1.214 . S
H1028 C1056 0.929 . S
H1029 C1057 0.929 . S
H1030 C1058 0.930 . S
H1031 C1059 0.929 . S
H1032 C1061 0.930 . S
H1033 C1038 0.930 . S
H1034 C1042 0.930 . S
O1035 Co1004 2.037 . S
O1035 C1055 1.234 . S
C1036 O1010 1.269 . S
C1036 O1011 1.257 . S
C1037 H1012 0.930 . S
C1037 C1040 1.388 . S
C1037 C1042 1.418 . S
C1038 H1033 0.930 . S
C1038 C1041 1.404 . S
C1038 C1042 1.353 . S
N1039 Co1004 2.145 . S
N1039 C1040 1.397 . S
N1039 C1041 1.334 . S
C1040 H1021 0.929 . S
C1040 C1037 1.388 . S
C1040 N1039 1.397 . S
C1041 H1022 0.929 . S
C1041 C1038 1.404 . S
C1041 N1039 1.334 . S
C1042 H1034 0.930 . S
C1042 C1037 1.418 . S
C1042 C1038 1.353 . S
C1043 H1013 0.930 . S
C1043 N1044 1.330 . S
C1043 C1045 1.446 . S
N1044 Co1003 2.151 . S
N1044 C1043 1.330 . S
N1044 C1048 1.418 . S
C1045 H1024 0.929 . S
C1045 C1043 1.446 . S
C1045 C1046 1.332 . S
C1046 H1026 0.931 . S
C1046 C1045 1.332 . S
C1046 C1047 1.267 . S
C1047 H1015 0.929 . S
C1047 C1046 1.267 . S
C1047 C1048 1.251 . S
C1048 H1018 0.929 . S
C1048 N1044 1.418 . S
C1048 C1047 1.251 . S
C1049 H1016 0.930 . S
C1049 C1051 1.406 . S
C1049 C1054 1.261 . S
C1050 H1017 0.930 . S
C1050 N1052 1.325 . S
C1050 C1053 1.357 . S
C1051 H1019 0.928 . S
C1051 C1049 1.406 . S
C1051 N1052 1.261 . S
N1052 Co1003 2.214 . S
N1052 C1050 1.325 . S
N1052 C1051 1.261 . S
C1053 H1023 0.931 . S
C1053 C1050 1.357 . S
C1053 C1054 1.312 . S
C1054 H1025 0.930 . S
C1054 C1049 1.261 . S
C1054 C1053 1.312 . S
C1055 O1027 1.214 . S
C1055 O1035 1.234 . S
C1056 H1028 0.929 . S
C1056 C1059 1.391 . S
C1056 C1061 1.391 . S
C1057 H1029 0.929 . S
C1057 C1058 1.390 . S
C1057 N1060 1.391 . S
C1058 H1030 0.930 . S
C1058 C1057 1.390 . S
C1058 C1059 1.392 . S
C1059 H1031 0.929 . S
C1059 C1056 1.391 . S
C1059 C1058 1.392 . S
N1060 Co1004 2.257 . S
N1060 C1057 1.391 . S
N1060 C1061 1.388 . S
C1061 H1032 0.930 . S
C1061 C1056 1.391 . S
C1061 N1060 1.388 . S
Co1062 O1064 2.143 . S
Co1062 O1070 2.074 . S
Co1062 O1073 2.093 . S
Co1062 O1086 2.097 . S
Co1062 N1103 2.151 . S
Co1062 N1111 2.214 . S
Co1063 O1064 2.160 . S
Co1063 O1069 2.058 . S
Co1063 O1079 2.057 . S
Co1063 O1094 2.037 . S
Co1063 N1098 2.145 . S
Co1063 N1119 2.257 . S
O1064 Co1062 2.143 . S
O1064 Co1063 2.160 . S
C1065 O1066 1.278 . S
C1065 O1073 1.224 . S
O1066 C1065 1.278 . S
C1067 O1068 1.245 . S
C1067 O1079 1.232 . S
O1068 C1067 1.245 . S
O1069 Co1063 2.058 . S
O1069 C1095 1.269 . S
O1070 Co1062 2.074 . S
O1070 C1095 1.257 . S
H1071 C1096 0.930 . S
H1072 C1102 0.930 . S
O1073 Co1062 2.093 . S
O1073 C1065 1.224 . S
H1074 C1106 0.929 . S
H1075 C1108 0.930 . S
H1076 C1109 0.930 . S
H1077 C1107 0.929 . S
H1078 C1110 0.928 . S
O1079 Co1063 2.057 . S
O1079 C1067 1.232 . S
H1080 C1099 0.929 . S
H1081 C1100 0.929 . S
H1082 C1112 0.931 . S
H1083 C1104 0.929 . S
H1084 C1113 0.930 . S
H1085 C1105 0.931 . S
O1086 Co1062 2.097 . S
O1086 C1114 1.214 . S
H1087 C1115 0.929 . S
H1088 C1116 0.929 . S
H1089 C1117 0.930 . S
H1090 C1118 0.929 . S
H1091 C1120 0.930 . S
H1092 C1097 0.930 . S
H1093 C1101 0.930 . S
O1094 Co1063 2.037 . S
O1094 C1114 1.234 . S
C1095 O1069 1.269 . S
C1095 O1070 1.257 . S
C1096 H1071 0.930 . S
C1096 C1099 1.388 . S
C1096 C1101 1.418 . S
C1097 H1092 0.930 . S
C1097 C1100 1.404 . S
C1097 C1101 1.353 . S
N1098 Co1063 2.145 . S
N1098 C1099 1.397 . S
N1098 C1100 1.334 . S
C1099 H1080 0.929 . S
C1099 C1096 1.388 . S
C1099 N1098 1.397 . S
C1100 H1081 0.929 . S
C1100 C1097 1.404 . S
C1100 N1098 1.334 . S
C1101 H1093 0.930 . S
C1101 C1096 1.418 . S
C1101 C1097 1.353 . S
C1102 H1072 0.930 . S
C1102 N1103 1.330 . S
C1102 C1104 1.446 . S
N1103 Co1062 2.151 . S
N1103 C1102 1.330 . S
N1103 C1107 1.418 . S
C1104 H1083 0.929 . S
C1104 C1102 1.446 . S
C1104 C1105 1.332 . S
C1105 H1085 0.931 . S
C1105 C1104 1.332 . S
C1105 C1106 1.267 . S
C1106 H1074 0.929 . S
C1106 C1105 1.267 . S
C1106 C1107 1.251 . S
C1107 H1077 0.929 . S
C1107 N1103 1.418 . S
C1107 C1106 1.251 . S
C1108 H1075 0.930 . S
C1108 C1110 1.406 . S
C1108 C1113 1.261 . S
C1109 H1076 0.930 . S
C1109 N1111 1.325 . S
C1109 C1112 1.357 . S
C1110 H1078 0.928 . S
C1110 C1108 1.406 . S
C1110 N1111 1.261 . S
N1111 Co1062 2.214 . S
N1111 C1109 1.325 . S
N1111 C1110 1.261 . S
C1112 H1082 0.931 . S
C1112 C1109 1.357 . S
C1112 C1113 1.312 . S
C1113 H1084 0.930 . S
C1113 C1108 1.261 . S
C1113 C1112 1.312 . S
C1114 O1086 1.214 . S
C1114 O1094 1.234 . S
C1115 H1087 0.929 . S
C1115 C1118 1.391 . S
C1115 C1120 1.391 . S
C1116 H1088 0.929 . S
C1116 C1117 1.390 . S
C1116 N1119 1.391 . S
C1117 H1089 0.930 . S
C1117 C1116 1.390 . S
C1117 C1118 1.392 . S
C1118 H1090 0.929 . S
C1118 C1115 1.391 . S
C1118 C1117 1.392 . S
N1119 Co1063 2.257 . S
N1119 C1116 1.391 . S
N1119 C1120 1.388 . S
C1120 H1091 0.930 . S
C1120 C1115 1.391 . S
C1120 N1119 1.388 . S
Co1121 O1123 2.143 . S
Co1121 O1129 2.074 . S
Co1121 O1132 2.093 . S
Co1121 O1145 2.097 . S
Co1121 N1162 2.151 . S
Co1121 N1170 2.214 . S
Co1122 O1123 2.160 . S
Co1122 O1128 2.058 . S
Co1122 O1138 2.057 . S
Co1122 O1153 2.037 . S
Co1122 N1157 2.145 . S
Co1122 N1178 2.257 . S
O1123 Co1121 2.143 . S
O1123 Co1122 2.160 . S
C1124 O1125 1.278 . S
C1124 O1132 1.224 . S
O1125 C1124 1.278 . S
C1126 O1127 1.245 . S
C1126 O1138 1.232 . S
O1127 C1126 1.245 . S
O1128 Co1122 2.058 . S
O1128 C1154 1.269 . S
O1129 Co1121 2.074 . S
O1129 C1154 1.257 . S
H1130 C1155 0.930 . S
H1131 C1161 0.930 . S
O1132 Co1121 2.093 . S
O1132 C1124 1.224 . S
H1133 C1165 0.929 . S
H1134 C1167 0.930 . S
H1135 C1168 0.930 . S
H1136 C1166 0.929 . S
H1137 C1169 0.928 . S
O1138 Co1122 2.057 . S
O1138 C1126 1.232 . S
H1139 C1158 0.929 . S
H1140 C1159 0.929 . S
H1141 C1171 0.931 . S
H1142 C1163 0.929 . S
H1143 C1172 0.930 . S
H1144 C1164 0.931 . S
O1145 Co1121 2.097 . S
O1145 C1173 1.214 . S
H1146 C1174 0.929 . S
H1147 C1175 0.929 . S
H1148 C1176 0.930 . S
H1149 C1177 0.929 . S
H1150 C1179 0.930 . S
H1151 C1156 0.930 . S
H1152 C1160 0.930 . S
O1153 Co1122 2.037 . S
O1153 C1173 1.234 . S
C1154 O1128 1.269 . S
C1154 O1129 1.257 . S
C1155 H1130 0.930 . S
C1155 C1158 1.388 . S
C1155 C1160 1.418 . S
C1156 H1151 0.930 . S
C1156 C1159 1.404 . S
C1156 C1160 1.353 . S
N1157 Co1122 2.145 . S
N1157 C1158 1.397 . S
N1157 C1159 1.334 . S
C1158 H1139 0.929 . S
C1158 C1155 1.388 . S
C1158 N1157 1.397 . S
C1159 H1140 0.929 . S
C1159 C1156 1.404 . S
C1159 N1157 1.334 . S
C1160 H1152 0.930 . S
C1160 C1155 1.418 . S
C1160 C1156 1.353 . S
C1161 H1131 0.930 . S
C1161 N1162 1.330 . S
C1161 C1163 1.446 . S
N1162 Co1121 2.151 . S
N1162 C1161 1.330 . S
N1162 C1166 1.418 . S
C1163 H1142 0.929 . S
C1163 C1161 1.446 . S
C1163 C1164 1.332 . S
C1164 H1144 0.931 . S
C1164 C1163 1.332 . S
C1164 C1165 1.267 . S
C1165 H1133 0.929 . S
C1165 C1164 1.267 . S
C1165 C1166 1.251 . S
C1166 H1136 0.929 . S
C1166 N1162 1.418 . S
C1166 C1165 1.251 . S
C1167 H1134 0.930 . S
C1167 C1169 1.406 . S
C1167 C1172 1.261 . S
C1168 H1135 0.930 . S
C1168 N1170 1.325 . S
C1168 C1171 1.357 . S
C1169 H1137 0.928 . S
C1169 C1167 1.406 . S
C1169 N1170 1.261 . S
N1170 Co1121 2.214 . S
N1170 C1168 1.325 . S
N1170 C1169 1.261 . S
C1171 H1141 0.931 . S
C1171 C1168 1.357 . S
C1171 C1172 1.312 . S
C1172 H1143 0.930 . S
C1172 C1167 1.261 . S
C1172 C1171 1.312 . S
C1173 O1145 1.214 . S
C1173 O1153 1.234 . S
C1174 H1146 0.929 . S
C1174 C1177 1.391 . S
C1174 C1179 1.391 . S
C1175 H1147 0.929 . S
C1175 C1176 1.390 . S
C1175 N1178 1.391 . S
C1176 H1148 0.930 . S
C1176 C1175 1.390 . S
C1176 C1177 1.392 . S
C1177 H1149 0.929 . S
C1177 C1174 1.391 . S
C1177 C1176 1.392 . S
N1178 Co1122 2.257 . S
N1178 C1175 1.391 . S
N1178 C1179 1.388 . S
C1179 H1150 0.930 . S
C1179 C1174 1.391 . S
C1179 N1178 1.388 . S
Co1180 O1182 2.143 . S
Co1180 O1188 2.074 . S
Co1180 O1191 2.093 . S
Co1180 O1204 2.097 . S
Co1180 N1221 2.151 . S
Co1180 N1229 2.214 . S
Co1181 O1182 2.160 . S
Co1181 O1187 2.058 . S
Co1181 O1197 2.057 . S
Co1181 O1212 2.037 . S
Co1181 N1216 2.145 . S
Co1181 N1237 2.257 . S
O1182 Co1180 2.143 . S
O1182 Co1181 2.160 . S
C1183 O1184 1.278 . S
C1183 O1191 1.224 . S
O1184 C1183 1.278 . S
C1185 O1186 1.245 . S
C1185 O1197 1.232 . S
O1186 C1185 1.245 . S
O1187 Co1181 2.058 . S
O1187 C1213 1.269 . S
O1188 Co1180 2.074 . S
O1188 C1213 1.257 . S
H1189 C1214 0.930 . S
H1190 C1220 0.930 . S
O1191 Co1180 2.093 . S
O1191 C1183 1.224 . S
H1192 C1224 0.929 . S
H1193 C1226 0.930 . S
H1194 C1227 0.930 . S
H1195 C1225 0.929 . S
H1196 C1228 0.928 . S
O1197 Co1181 2.057 . S
O1197 C1185 1.232 . S
H1198 C1217 0.929 . S
H1199 C1218 0.929 . S
H1200 C1230 0.931 . S
H1201 C1222 0.929 . S
H1202 C1231 0.930 . S
H1203 C1223 0.931 . S
O1204 Co1180 2.097 . S
O1204 C1232 1.214 . S
H1205 C1233 0.929 . S
H1206 C1234 0.929 . S
H1207 C1235 0.930 . S
H1208 C1236 0.929 . S
H1209 C1238 0.930 . S
H1210 C1215 0.930 . S
H1211 C1219 0.930 . S
O1212 Co1181 2.037 . S
O1212 C1232 1.234 . S
C1213 O1187 1.269 . S
C1213 O1188 1.257 . S
C1214 H1189 0.930 . S
C1214 C1217 1.388 . S
C1214 C1219 1.418 . S
C1215 H1210 0.930 . S
C1215 C1218 1.404 . S
C1215 C1219 1.353 . S
N1216 Co1181 2.145 . S
N1216 C1217 1.397 . S
N1216 C1218 1.334 . S
C1217 H1198 0.929 . S
C1217 C1214 1.388 . S
C1217 N1216 1.397 . S
C1218 H1199 0.929 . S
C1218 C1215 1.404 . S
C1218 N1216 1.334 . S
C1219 H1211 0.930 . S
C1219 C1214 1.418 . S
C1219 C1215 1.353 . S
C1220 H1190 0.930 . S
C1220 N1221 1.330 . S
C1220 C1222 1.446 . S
N1221 Co1180 2.151 . S
N1221 C1220 1.330 . S
N1221 C1225 1.418 . S
C1222 H1201 0.929 . S
C1222 C1220 1.446 . S
C1222 C1223 1.332 . S
C1223 H1203 0.931 . S
C1223 C1222 1.332 . S
C1223 C1224 1.267 . S
C1224 H1192 0.929 . S
C1224 C1223 1.267 . S
C1224 C1225 1.251 . S
C1225 H1195 0.929 . S
C1225 N1221 1.418 . S
C1225 C1224 1.251 . S
C1226 H1193 0.930 . S
C1226 C1228 1.406 . S
C1226 C1231 1.261 . S
C1227 H1194 0.930 . S
C1227 N1229 1.325 . S
C1227 C1230 1.357 . S
C1228 H1196 0.928 . S
C1228 C1226 1.406 . S
C1228 N1229 1.261 . S
N1229 Co1180 2.214 . S
N1229 C1227 1.325 . S
N1229 C1228 1.261 . S
C1230 H1200 0.931 . S
C1230 C1227 1.357 . S
C1230 C1231 1.312 . S
C1231 H1202 0.930 . S
C1231 C1226 1.261 . S
C1231 C1230 1.312 . S
C1232 O1204 1.214 . S
C1232 O1212 1.234 . S
C1233 H1205 0.929 . S
C1233 C1236 1.391 . S
C1233 C1238 1.391 . S
C1234 H1206 0.929 . S
C1234 C1235 1.390 . S
C1234 N1237 1.391 . S
C1235 H1207 0.930 . S
C1235 C1234 1.390 . S
C1235 C1236 1.392 . S
C1236 H1208 0.929 . S
C1236 C1233 1.391 . S
C1236 C1235 1.392 . S
N1237 Co1181 2.257 . S
N1237 C1234 1.391 . S
N1237 C1238 1.388 . S
C1238 H1209 0.930 . S
C1238 C1233 1.391 . S
C1238 N1237 1.388 . S
Co1239 O1241 2.143 . S
Co1239 O1247 2.074 . S
Co1239 O1250 2.093 . S
Co1239 O1263 2.097 . S
Co1239 N1280 2.151 . S
Co1239 N1288 2.214 . S
Co1240 O1241 2.160 . S
Co1240 O1246 2.058 . S
Co1240 O1256 2.057 . S
Co1240 O1271 2.037 . S
Co1240 N1275 2.145 . S
Co1240 N1296 2.257 . S
O1241 Co1239 2.143 . S
O1241 Co1240 2.160 . S
C1242 O1243 1.278 . S
C1242 O1250 1.224 . S
O1243 C1242 1.278 . S
C1244 O1245 1.245 . S
C1244 O1256 1.232 . S
O1245 C1244 1.245 . S
O1246 Co1240 2.058 . S
O1246 C1272 1.269 . S
O1247 Co1239 2.074 . S
O1247 C1272 1.257 . S
H1248 C1273 0.930 . S
H1249 C1279 0.930 . S
O1250 Co1239 2.093 . S
O1250 C1242 1.224 . S
H1251 C1283 0.929 . S
H1252 C1285 0.930 . S
H1253 C1286 0.930 . S
H1254 C1284 0.929 . S
H1255 C1287 0.928 . S
O1256 Co1240 2.057 . S
O1256 C1244 1.232 . S
H1257 C1276 0.929 . S
H1258 C1277 0.929 . S
H1259 C1289 0.931 1_556 S
H1260 C1281 0.929 . S
H1261 C1290 0.930 . S
H1262 C1282 0.931 . S
O1263 Co1239 2.097 . S
O1263 C1291 1.214 . S
H1264 C1292 0.929 1_565 S
H1265 C1293 0.929 . S
H1266 C1294 0.930 . S
H1267 C1295 0.929 . S
H1268 C1297 0.930 . S
H1269 C1274 0.930 . S
H1270 C1278 0.930 . S
O1271 Co1240 2.037 . S
O1271 C1291 1.234 . S
C1272 O1246 1.269 . S
C1272 O1247 1.257 . S
C1273 H1248 0.930 . S
C1273 C1276 1.388 . S
C1273 C1278 1.418 . S
C1274 H1269 0.930 . S
C1274 C1277 1.404 . S
C1274 C1278 1.353 . S
N1275 Co1240 2.145 . S
N1275 C1276 1.397 . S
N1275 C1277 1.334 . S
C1276 H1257 0.929 . S
C1276 C1273 1.388 . S
C1276 N1275 1.397 . S
C1277 H1258 0.929 . S
C1277 C1274 1.404 . S
C1277 N1275 1.334 . S
C1278 H1270 0.930 . S
C1278 C1273 1.418 . S
C1278 C1274 1.353 . S
C1279 H1249 0.930 . S
C1279 N1280 1.330 . S
C1279 C1281 1.446 1_556 S
N1280 Co1239 2.151 . S
N1280 C1279 1.330 . S
N1280 C1284 1.418 . S
C1281 H1260 0.929 . S
C1281 C1279 1.446 1_554 S
C1281 C1282 1.332 . S
C1282 H1262 0.931 . S
C1282 C1281 1.332 . S
C1282 C1283 1.267 . S
C1283 H1251 0.929 . S
C1283 C1282 1.267 . S
C1283 C1284 1.251 1_554 S
C1284 H1254 0.929 . S
C1284 N1280 1.418 . S
C1284 C1283 1.251 1_556 S
C1285 H1252 0.930 . S
C1285 C1287 1.406 . S
C1285 C1290 1.261 . S
C1286 H1253 0.930 . S
C1286 N1288 1.325 . S
C1286 C1289 1.358 1_556 S
C1287 H1255 0.928 . S
C1287 C1285 1.406 . S
C1287 N1288 1.261 1_554 S
N1288 Co1239 2.214 . S
N1288 C1286 1.325 . S
N1288 C1287 1.261 1_556 S
C1289 H1259 0.931 1_554 S
C1289 C1286 1.358 1_554 S
C1289 C1290 1.311 . S
C1290 H1261 0.930 . S
C1290 C1285 1.261 . S
C1290 C1289 1.311 . S
C1291 O1263 1.214 . S
C1291 O1271 1.234 . S
C1292 H1264 0.929 1_545 S
C1292 C1295 1.391 . S
C1292 C1297 1.391 . S
C1293 H1265 0.929 . S
C1293 C1294 1.390 . S
C1293 N1296 1.391 . S
C1294 H1266 0.930 . S
C1294 C1293 1.390 . S
C1294 C1295 1.392 . S
C1295 H1267 0.929 . S
C1295 C1292 1.391 . S
C1295 C1294 1.392 . S
N1296 Co1240 2.257 . S
N1296 C1293 1.391 . S
N1296 C1297 1.388 . S
C1297 H1268 0.930 . S
C1297 C1292 1.391 . S
C1297 N1296 1.388 . S
Co1298 O1300 2.143 . S
Co1298 O1306 2.074 . S
Co1298 O1309 2.093 . S
Co1298 O1322 2.097 . S
Co1298 N1339 2.151 . S
Co1298 N1347 2.214 . S
Co1299 O1300 2.160 . S
Co1299 O1305 2.058 . S
Co1299 O1315 2.057 . S
Co1299 O1330 2.037 . S
Co1299 N1334 2.145 . S
Co1299 N1355 2.257 . S
O1300 Co1298 2.143 . S
O1300 Co1299 2.160 . S
C1301 O1302 1.278 . S
C1301 O1309 1.224 . S
O1302 C1301 1.278 . S
C1303 O1304 1.245 . S
C1303 O1315 1.232 . S
O1304 C1303 1.245 . S
O1305 Co1299 2.058 . S
O1305 C1331 1.269 . S
O1306 Co1298 2.074 . S
O1306 C1331 1.257 . S
H1307 C1332 0.930 . S
H1308 C1338 0.930 . S
O1309 Co1298 2.093 . S
O1309 C1301 1.224 . S
H1310 C1342 0.929 . S
H1311 C1344 0.930 . S
H1312 C1345 0.930 . S
H1313 C1343 0.929 . S
H1314 C1346 0.928 . S
O1315 Co1299 2.057 . S
O1315 C1303 1.232 . S
H1316 C1335 0.929 . S
H1317 C1336 0.929 . S
H1318 C1348 0.931 1_556 S
H1319 C1340 0.929 . S
H1320 C1349 0.930 . S
H1321 C1341 0.931 . S
O1322 Co1298 2.097 . S
O1322 C1350 1.214 . S
H1323 C1351 0.929 1_455 S
H1324 C1352 0.929 . S
H1325 C1353 0.930 . S
H1326 C1354 0.929 . S
H1327 C1356 0.930 . S
H1328 C1333 0.930 . S
H1329 C1337 0.930 . S
O1330 Co1299 2.037 . S
O1330 C1350 1.234 . S
C1331 O1305 1.269 . S
C1331 O1306 1.257 . S
C1332 H1307 0.930 . S
C1332 C1335 1.388 . S
C1332 C1337 1.418 . S
C1333 H1328 0.930 . S
C1333 C1336 1.404 . S
C1333 C1337 1.353 . S
N1334 Co1299 2.145 . S
N1334 C1335 1.397 . S
N1334 C1336 1.334 . S
C1335 H1316 0.929 . S
C1335 C1332 1.388 . S
C1335 N1334 1.397 . S
C1336 H1317 0.929 . S
C1336 C1333 1.404 . S
C1336 N1334 1.334 . S
C1337 H1329 0.930 . S
C1337 C1332 1.418 . S
C1337 C1333 1.353 . S
C1338 H1308 0.930 . S
C1338 N1339 1.330 . S
C1338 C1340 1.446 1_556 S
N1339 Co1298 2.151 . S
N1339 C1338 1.330 . S
N1339 C1343 1.418 . S
C1340 H1319 0.929 . S
C1340 C1338 1.446 1_554 S
C1340 C1341 1.332 . S
C1341 H1321 0.931 . S
C1341 C1340 1.332 . S
C1341 C1342 1.267 . S
C1342 H1310 0.929 . S
C1342 C1341 1.267 . S
C1342 C1343 1.251 1_554 S
C1343 H1313 0.929 . S
C1343 N1339 1.418 . S
C1343 C1342 1.251 1_556 S
C1344 H1311 0.930 . S
C1344 C1346 1.406 . S
C1344 C1349 1.261 . S
C1345 H1312 0.930 . S
C1345 N1347 1.325 . S
C1345 C1348 1.358 1_556 S
C1346 H1314 0.928 . S
C1346 C1344 1.406 . S
C1346 N1347 1.261 1_554 S
N1347 Co1298 2.214 . S
N1347 C1345 1.325 . S
N1347 C1346 1.261 1_556 S
C1348 H1318 0.931 1_554 S
C1348 C1345 1.358 1_554 S
C1348 C1349 1.311 . S
C1349 H1320 0.930 . S
C1349 C1344 1.261 . S
C1349 C1348 1.311 . S
C1350 O1322 1.214 . S
C1350 O1330 1.234 . S
C1351 H1323 0.929 1_655 S
C1351 C1354 1.391 . S
C1351 C1356 1.391 . S
C1352 H1324 0.929 . S
C1352 C1353 1.390 . S
C1352 N1355 1.391 . S
C1353 H1325 0.930 . S
C1353 C1352 1.390 . S
C1353 C1354 1.392 . S
C1354 H1326 0.929 . S
C1354 C1351 1.391 . S
C1354 C1353 1.392 . S
N1355 Co1299 2.257 . S
N1355 C1352 1.391 . S
N1355 C1356 1.388 . S
C1356 H1327 0.930 . S
C1356 C1351 1.391 . S
C1356 N1355 1.388 . S
Co1357 O1359 2.143 . S
Co1357 O1365 2.074 . S
Co1357 O1368 2.093 . S
Co1357 O1381 2.097 . S
Co1357 N1398 2.151 . S
Co1357 N1406 2.214 . S
Co1358 O1359 2.160 . S
Co1358 O1364 2.058 . S
Co1358 O1374 2.057 . S
Co1358 O1389 2.037 . S
Co1358 N1393 2.145 . S
Co1358 N1414 2.257 . S
O1359 Co1357 2.143 . S
O1359 Co1358 2.160 . S
C1360 O1361 1.278 . S
C1360 O1368 1.224 . S
O1361 C1360 1.278 . S
C1362 O1363 1.245 . S
C1362 O1374 1.232 . S
O1363 C1362 1.245 . S
O1364 Co1358 2.058 . S
O1364 C1390 1.269 . S
O1365 Co1357 2.074 . S
O1365 C1390 1.257 . S
H1366 C1391 0.930 . S
H1367 C1397 0.930 . S
O1368 Co1357 2.093 . S
O1368 C1360 1.224 . S
H1369 C1401 0.929 . S
H1370 C1403 0.930 . S
H1371 C1404 0.930 . S
H1372 C1402 0.929 . S
H1373 C1405 0.928 . S
O1374 Co1358 2.057 . S
O1374 C1362 1.232 . S
H1375 C1394 0.929 . S
H1376 C1395 0.929 . S
H1377 C1407 0.931 1_556 S
H1378 C1399 0.929 . S
H1379 C1408 0.930 . S
H1380 C1400 0.931 . S
O1381 Co1357 2.097 . S
O1381 C1409 1.214 . S
H1382 C1410 0.929 . S
H1383 C1411 0.929 . S
H1384 C1412 0.930 . S
H1385 C1413 0.929 . S
H1386 C1415 0.930 . S
H1387 C1392 0.930 . S
H1388 C1396 0.930 . S
O1389 Co1358 2.037 . S
O1389 C1409 1.234 . S
C1390 O1364 1.269 . S
C1390 O1365 1.257 . S
C1391 H1366 0.930 . S
C1391 C1394 1.388 . S
C1391 C1396 1.418 . S
C1392 H1387 0.930 . S
C1392 C1395 1.404 . S
C1392 C1396 1.353 . S
N1393 Co1358 2.145 . S
N1393 C1394 1.397 . S
N1393 C1395 1.334 . S
C1394 H1375 0.929 . S
C1394 C1391 1.388 . S
C1394 N1393 1.397 . S
C1395 H1376 0.929 . S
C1395 C1392 1.404 . S
C1395 N1393 1.334 . S
C1396 H1388 0.930 . S
C1396 C1391 1.418 . S
C1396 C1392 1.353 . S
C1397 H1367 0.930 . S
C1397 N1398 1.330 . S
C1397 C1399 1.446 1_556 S
N1398 Co1357 2.151 . S
N1398 C1397 1.330 . S
N1398 C1402 1.418 . S
C1399 H1378 0.929 . S
C1399 C1397 1.446 1_554 S
C1399 C1400 1.332 . S
C1400 H1380 0.931 . S
C1400 C1399 1.332 . S
C1400 C1401 1.267 . S
C1401 H1369 0.929 . S
C1401 C1400 1.267 . S
C1401 C1402 1.251 1_554 S
C1402 H1372 0.929 . S
C1402 N1398 1.418 . S
C1402 C1401 1.251 1_556 S
C1403 H1370 0.930 . S
C1403 C1405 1.406 . S
C1403 C1408 1.261 . S
C1404 H1371 0.930 . S
C1404 N1406 1.325 . S
C1404 C1407 1.358 1_556 S
C1405 H1373 0.928 . S
C1405 C1403 1.406 . S
C1405 N1406 1.261 1_554 S
N1406 Co1357 2.214 . S
N1406 C1404 1.325 . S
N1406 C1405 1.261 1_556 S
C1407 H1377 0.931 1_554 S
C1407 C1404 1.358 1_554 S
C1407 C1408 1.311 . S
C1408 H1379 0.930 . S
C1408 C1403 1.261 . S
C1408 C1407 1.311 . S
C1409 O1381 1.214 . S
C1409 O1389 1.234 . S
C1410 H1382 0.929 . S
C1410 C1413 1.391 . S
C1410 C1415 1.391 . S
C1411 H1383 0.929 . S
C1411 C1412 1.390 . S
C1411 N1414 1.391 . S
C1412 H1384 0.930 . S
C1412 C1411 1.390 . S
C1412 C1413 1.392 . S
C1413 H1385 0.929 . S
C1413 C1410 1.391 . S
C1413 C1412 1.392 . S
N1414 Co1358 2.257 . S
N1414 C1411 1.391 . S
N1414 C1415 1.388 . S
C1415 H1386 0.930 . S
C1415 C1410 1.391 . S
C1415 N1414 1.388 . S
Co1416 O1418 2.143 . S
Co1416 O1424 2.074 . S
Co1416 O1427 2.093 . S
Co1416 O1440 2.097 . S
Co1416 N1457 2.151 . S
Co1416 N1465 2.214 . S
Co1417 O1418 2.160 . S
Co1417 O1423 2.058 . S
Co1417 O1433 2.057 . S
Co1417 O1448 2.037 . S
Co1417 N1452 2.145 . S
Co1417 N1473 2.257 . S
O1418 Co1416 2.143 . S
O1418 Co1417 2.160 . S
C1419 O1420 1.278 . S
C1419 O1427 1.224 . S
O1420 C1419 1.278 . S
C1421 O1422 1.245 . S
C1421 O1433 1.232 . S
O1422 C1421 1.245 . S
O1423 Co1417 2.058 . S
O1423 C1449 1.269 . S
O1424 Co1416 2.074 . S
O1424 C1449 1.257 . S
H1425 C1450 0.930 . S
H1426 C1456 0.930 . S
O1427 Co1416 2.093 . S
O1427 C1419 1.224 . S
H1428 C1460 0.929 . S
H1429 C1462 0.930 . S
H1430 C1463 0.930 . S
H1431 C1461 0.929 . S
H1432 C1464 0.928 . S
O1433 Co1417 2.057 . S
O1433 C1421 1.232 . S
H1434 C1453 0.929 . S
H1435 C1454 0.929 . S
H1436 C1466 0.931 . S
H1437 C1458 0.929 . S
H1438 C1467 0.930 . S
H1439 C1459 0.931 . S
O1440 Co1416 2.097 . S
O1440 C1468 1.214 . S
H1441 C1469 0.929 . S
H1442 C1470 0.929 . S
H1443 C1471 0.930 . S
H1444 C1472 0.929 . S
H1445 C1474 0.930 . S
H1446 C1451 0.930 . S
H1447 C1455 0.930 . S
O1448 Co1417 2.037 . S
O1448 C1468 1.234 . S
C1449 O1423 1.269 . S
C1449 O1424 1.257 . S
C1450 H1425 0.930 . S
C1450 C1453 1.388 . S
C1450 C1455 1.418 . S
C1451 H1446 0.930 . S
C1451 C1454 1.404 . S
C1451 C1455 1.353 . S
N1452 Co1417 2.145 . S
N1452 C1453 1.397 . S
N1452 C1454 1.334 . S
C1453 H1434 0.929 . S
C1453 C1450 1.388 . S
C1453 N1452 1.397 . S
C1454 H1435 0.929 . S
C1454 C1451 1.404 . S
C1454 N1452 1.334 . S
C1455 H1447 0.930 . S
C1455 C1450 1.418 . S
C1455 C1451 1.353 . S
C1456 H1426 0.930 . S
C1456 N1457 1.330 . S
C1456 C1458 1.446 . S
N1457 Co1416 2.151 . S
N1457 C1456 1.330 . S
N1457 C1461 1.418 . S
C1458 H1437 0.929 . S
C1458 C1456 1.446 . S
C1458 C1459 1.332 . S
C1459 H1439 0.931 . S
C1459 C1458 1.332 . S
C1459 C1460 1.267 . S
C1460 H1428 0.929 . S
C1460 C1459 1.267 . S
C1460 C1461 1.251 . S
C1461 H1431 0.929 . S
C1461 N1457 1.418 . S
C1461 C1460 1.251 . S
C1462 H1429 0.930 . S
C1462 C1464 1.406 . S
C1462 C1467 1.261 . S
C1463 H1430 0.930 . S
C1463 N1465 1.325 . S
C1463 C1466 1.357 . S
C1464 H1432 0.928 . S
C1464 C1462 1.406 . S
C1464 N1465 1.261 . S
N1465 Co1416 2.214 . S
N1465 C1463 1.325 . S
N1465 C1464 1.261 . S
C1466 H1436 0.931 . S
C1466 C1463 1.357 . S
C1466 C1467 1.312 . S
C1467 H1438 0.930 . S
C1467 C1462 1.261 . S
C1467 C1466 1.312 . S
C1468 O1440 1.214 . S
C1468 O1448 1.234 . S
C1469 H1441 0.929 . S
C1469 C1472 1.391 . S
C1469 C1474 1.391 . S
C1470 H1442 0.929 . S
C1470 C1471 1.390 . S
C1470 N1473 1.391 . S
C1471 H1443 0.930 . S
C1471 C1470 1.390 . S
C1471 C1472 1.392 . S
C1472 H1444 0.929 . S
C1472 C1469 1.391 . S
C1472 C1471 1.392 . S
N1473 Co1417 2.257 . S
N1473 C1470 1.391 . S
N1473 C1474 1.388 . S
C1474 H1445 0.930 . S
C1474 C1469 1.391 . S
C1474 N1473 1.388 . S
Co1475 O1477 2.143 . S
Co1475 O1483 2.074 . S
Co1475 O1486 2.093 . S
Co1475 O1499 2.097 . S
Co1475 N1516 2.151 . S
Co1475 N1524 2.214 . S
Co1476 O1477 2.160 . S
Co1476 O1482 2.058 . S
Co1476 O1492 2.057 . S
Co1476 O1507 2.037 . S
Co1476 N1511 2.145 . S
Co1476 N1532 2.257 . S
O1477 Co1475 2.143 . S
O1477 Co1476 2.160 . S
C1478 O1479 1.278 . S
C1478 O1486 1.224 . S
O1479 C1478 1.278 . S
C1480 O1481 1.245 . S
C1480 O1492 1.232 . S
O1481 C1480 1.245 . S
O1482 Co1476 2.058 . S
O1482 C1508 1.269 . S
O1483 Co1475 2.074 . S
O1483 C1508 1.257 . S
H1484 C1509 0.930 . S
H1485 C1515 0.930 . S
O1486 Co1475 2.093 . S
O1486 C1478 1.224 . S
H1487 C1519 0.929 . S
H1488 C1521 0.930 . S
H1489 C1522 0.930 . S
H1490 C1520 0.929 . S
H1491 C1523 0.928 . S
O1492 Co1476 2.057 . S
O1492 C1480 1.232 . S
H1493 C1512 0.929 . S
H1494 C1513 0.929 . S
H1495 C1525 0.931 . S
H1496 C1517 0.929 . S
H1497 C1526 0.930 . S
H1498 C1518 0.931 . S
O1499 Co1475 2.097 . S
O1499 C1527 1.214 . S
H1500 C1528 0.929 . S
H1501 C1529 0.929 . S
H1502 C1530 0.930 . S
H1503 C1531 0.929 . S
H1504 C1533 0.930 . S
H1505 C1510 0.930 . S
H1506 C1514 0.930 . S
O1507 Co1476 2.037 . S
O1507 C1527 1.234 . S
C1508 O1482 1.269 . S
C1508 O1483 1.257 . S
C1509 H1484 0.930 . S
C1509 C1512 1.388 . S
C1509 C1514 1.418 . S
C1510 H1505 0.930 . S
C1510 C1513 1.404 . S
C1510 C1514 1.353 . S
N1511 Co1476 2.145 . S
N1511 C1512 1.397 . S
N1511 C1513 1.334 . S
C1512 H1493 0.929 . S
C1512 C1509 1.388 . S
C1512 N1511 1.397 . S
C1513 H1494 0.929 . S
C1513 C1510 1.404 . S
C1513 N1511 1.334 . S
C1514 H1506 0.930 . S
C1514 C1509 1.418 . S
C1514 C1510 1.353 . S
C1515 H1485 0.930 . S
C1515 N1516 1.330 . S
C1515 C1517 1.446 . S
N1516 Co1475 2.151 . S
N1516 C1515 1.330 . S
N1516 C1520 1.418 . S
C1517 H1496 0.929 . S
C1517 C1515 1.446 . S
C1517 C1518 1.332 . S
C1518 H1498 0.931 . S
C1518 C1517 1.332 . S
C1518 C1519 1.267 . S
C1519 H1487 0.929 . S
C1519 C1518 1.267 . S
C1519 C1520 1.251 . S
C1520 H1490 0.929 . S
C1520 N1516 1.418 . S
C1520 C1519 1.251 . S
C1521 H1488 0.930 . S
C1521 C1523 1.406 . S
C1521 C1526 1.261 . S
C1522 H1489 0.930 . S
C1522 N1524 1.325 . S
C1522 C1525 1.357 . S
C1523 H1491 0.928 . S
C1523 C1521 1.406 . S
C1523 N1524 1.261 . S
N1524 Co1475 2.214 . S
N1524 C1522 1.325 . S
N1524 C1523 1.261 . S
C1525 H1495 0.931 . S
C1525 C1522 1.357 . S
C1525 C1526 1.312 . S
C1526 H1497 0.930 . S
C1526 C1521 1.261 . S
C1526 C1525 1.312 . S
C1527 O1499 1.214 . S
C1527 O1507 1.234 . S
C1528 H1500 0.929 . S
C1528 C1531 1.391 . S
C1528 C1533 1.391 . S
C1529 H1501 0.929 . S
C1529 C1530 1.390 . S
C1529 N1532 1.391 . S
C1530 H1502 0.930 . S
C1530 C1529 1.390 . S
C1530 C1531 1.392 . S
C1531 H1503 0.929 . S
C1531 C1528 1.391 . S
C1531 C1530 1.392 . S
N1532 Co1476 2.257 . S
N1532 C1529 1.391 . S
N1532 C1533 1.388 . S
C1533 H1504 0.930 . S
C1533 C1528 1.391 . S
C1533 N1532 1.388 . S
Co1534 O1536 2.143 . S
Co1534 O1542 2.074 . S
Co1534 O1545 2.093 . S
Co1534 O1558 2.097 . S
Co1534 N1575 2.151 . S
Co1534 N1583 2.214 . S
Co1535 O1536 2.160 . S
Co1535 O1541 2.058 . S
Co1535 O1551 2.057 . S
Co1535 O1566 2.037 . S
Co1535 N1570 2.145 . S
Co1535 N1591 2.257 . S
O1536 Co1534 2.143 . S
O1536 Co1535 2.160 . S
C1537 O1538 1.278 . S
C1537 O1545 1.224 . S
O1538 C1537 1.278 . S
C1539 O1540 1.245 . S
C1539 O1551 1.232 . S
O1540 C1539 1.245 . S
O1541 Co1535 2.058 . S
O1541 C1567 1.269 . S
O1542 Co1534 2.074 . S
O1542 C1567 1.257 . S
H1543 C1568 0.930 . S
H1544 C1574 0.930 . S
O1545 Co1534 2.093 . S
O1545 C1537 1.224 . S
H1546 C1578 0.929 . S
H1547 C1580 0.930 . S
H1548 C1581 0.930 . S
H1549 C1579 0.929 . S
H1550 C1582 0.928 . S
O1551 Co1535 2.057 . S
O1551 C1539 1.232 . S
H1552 C1571 0.929 . S
H1553 C1572 0.929 . S
H1554 C1584 0.931 . S
H1555 C1576 0.929 . S
H1556 C1585 0.930 . S
H1557 C1577 0.931 . S
O1558 Co1534 2.097 . S
O1558 C1586 1.214 . S
H1559 C1587 0.929 . S
H1560 C1588 0.929 . S
H1561 C1589 0.930 . S
H1562 C1590 0.929 . S
H1563 C1592 0.930 . S
H1564 C1569 0.930 . S
H1565 C1573 0.930 . S
O1566 Co1535 2.037 . S
O1566 C1586 1.234 . S
C1567 O1541 1.269 . S
C1567 O1542 1.257 . S
C1568 H1543 0.930 . S
C1568 C1571 1.388 . S
C1568 C1573 1.418 . S
C1569 H1564 0.930 . S
C1569 C1572 1.404 . S
C1569 C1573 1.353 . S
N1570 Co1535 2.145 . S
N1570 C1571 1.397 . S
N1570 C1572 1.334 . S
C1571 H1552 0.929 . S
C1571 C1568 1.388 . S
C1571 N1570 1.397 . S
C1572 H1553 0.929 . S
C1572 C1569 1.404 . S
C1572 N1570 1.334 . S
C1573 H1565 0.930 . S
C1573 C1568 1.418 . S
C1573 C1569 1.353 . S
C1574 H1544 0.930 . S
C1574 N1575 1.330 . S
C1574 C1576 1.446 . S
N1575 Co1534 2.151 . S
N1575 C1574 1.330 . S
N1575 C1579 1.418 . S
C1576 H1555 0.929 . S
C1576 C1574 1.446 . S
C1576 C1577 1.332 . S
C1577 H1557 0.931 . S
C1577 C1576 1.332 . S
C1577 C1578 1.267 . S
C1578 H1546 0.929 . S
C1578 C1577 1.267 . S
C1578 C1579 1.251 . S
C1579 H1549 0.929 . S
C1579 N1575 1.418 . S
C1579 C1578 1.251 . S
C1580 H1547 0.930 . S
C1580 C1582 1.406 . S
C1580 C1585 1.261 . S
C1581 H1548 0.930 . S
C1581 N1583 1.325 . S
C1581 C1584 1.357 . S
C1582 H1550 0.928 . S
C1582 C1580 1.406 . S
C1582 N1583 1.261 . S
N1583 Co1534 2.214 . S
N1583 C1581 1.325 . S
N1583 C1582 1.261 . S
C1584 H1554 0.931 . S
C1584 C1581 1.357 . S
C1584 C1585 1.312 . S
C1585 H1556 0.930 . S
C1585 C1580 1.261 . S
C1585 C1584 1.312 . S
C1586 O1558 1.214 . S
C1586 O1566 1.234 . S
C1587 H1559 0.929 . S
C1587 C1590 1.391 . S
C1587 C1592 1.391 . S
C1588 H1560 0.929 . S
C1588 C1589 1.390 . S
C1588 N1591 1.391 . S
C1589 H1561 0.930 . S
C1589 C1588 1.390 . S
C1589 C1590 1.392 . S
C1590 H1562 0.929 . S
C1590 C1587 1.391 . S
C1590 C1589 1.392 . S
N1591 Co1535 2.257 . S
N1591 C1588 1.391 . S
N1591 C1592 1.388 . S
C1592 H1563 0.930 . S
C1592 C1587 1.391 . S
C1592 N1591 1.388 . S
Co1593 O1595 2.143 . S
Co1593 O1601 2.074 . S
Co1593 O1604 2.093 . S
Co1593 O1617 2.097 . S
Co1593 N1634 2.151 . S
Co1593 N1642 2.214 . S
Co1594 O1595 2.160 . S
Co1594 O1600 2.058 . S
Co1594 O1610 2.057 . S
Co1594 O1625 2.037 . S
Co1594 N1629 2.145 . S
Co1594 N1650 2.257 . S
O1595 Co1593 2.143 . S
O1595 Co1594 2.160 . S
C1596 O1597 1.278 . S
C1596 O1604 1.224 . S
O1597 C1596 1.278 . S
C1598 O1599 1.245 . S
C1598 O1610 1.232 . S
O1599 C1598 1.245 . S
O1600 Co1594 2.058 . S
O1600 C1626 1.269 . S
O1601 Co1593 2.074 . S
O1601 C1626 1.257 . S
H1602 C1627 0.930 . S
H1603 C1633 0.930 . S
O1604 Co1593 2.093 . S
O1604 C1596 1.224 . S
H1605 C1637 0.929 . S
H1606 C1639 0.930 . S
H1607 C1640 0.930 . S
H1608 C1638 0.929 . S
H1609 C1641 0.928 . S
O1610 Co1594 2.057 . S
O1610 C1598 1.232 . S
H1611 C1630 0.929 . S
H1612 C1631 0.929 . S
H1613 C1643 0.931 1_554 S
H1614 C1635 0.929 . S
H1615 C1644 0.930 . S
H1616 C1636 0.931 . S
O1617 Co1593 2.097 . S
O1617 C1645 1.214 . S
H1618 C1646 0.929 1_545 S
H1619 C1647 0.929 . S
H1620 C1648 0.930 . S
H1621 C1649 0.929 . S
H1622 C1651 0.930 . S
H1623 C1628 0.930 . S
H1624 C1632 0.930 . S
O1625 Co1594 2.037 . S
O1625 C1645 1.234 . S
C1626 O1600 1.269 . S
C1626 O1601 1.257 . S
C1627 H1602 0.930 . S
C1627 C1630 1.388 . S
C1627 C1632 1.418 . S
C1628 H1623 0.930 . S
C1628 C1631 1.404 . S
C1628 C1632 1.353 . S
N1629 Co1594 2.145 . S
N1629 C1630 1.397 . S
N1629 C1631 1.334 . S
C1630 H1611 0.929 . S
C1630 C1627 1.388 . S
C1630 N1629 1.397 . S
C1631 H1612 0.929 . S
C1631 C1628 1.404 . S
C1631 N1629 1.334 . S
C1632 H1624 0.930 . S
C1632 C1627 1.418 . S
C1632 C1628 1.353 . S
C1633 H1603 0.930 . S
C1633 N1634 1.330 . S
C1633 C1635 1.446 1_554 S
N1634 Co1593 2.151 . S
N1634 C1633 1.330 . S
N1634 C1638 1.418 . S
C1635 H1614 0.929 . S
C1635 C1633 1.446 1_556 S
C1635 C1636 1.332 . S
C1636 H1616 0.931 . S
C1636 C1635 1.332 . S
C1636 C1637 1.267 . S
C1637 H1605 0.929 . S
C1637 C1636 1.267 . S
C1637 C1638 1.251 1_556 S
C1638 H1608 0.929 . S
C1638 N1634 1.418 . S
C1638 C1637 1.251 1_554 S
C1639 H1606 0.930 . S
C1639 C1641 1.406 . S
C1639 C1644 1.261 . S
C1640 H1607 0.930 . S
C1640 N1642 1.325 . S
C1640 C1643 1.358 1_554 S
C1641 H1609 0.928 . S
C1641 C1639 1.406 . S
C1641 N1642 1.261 1_556 S
N1642 Co1593 2.214 . S
N1642 C1640 1.325 . S
N1642 C1641 1.261 1_554 S
C1643 H1613 0.931 1_556 S
C1643 C1640 1.358 1_556 S
C1643 C1644 1.311 . S
C1644 H1615 0.930 . S
C1644 C1639 1.261 . S
C1644 C1643 1.311 . S
C1645 O1617 1.214 . S
C1645 O1625 1.234 . S
C1646 H1618 0.929 1_565 S
C1646 C1649 1.391 . S
C1646 C1651 1.391 . S
C1647 H1619 0.929 . S
C1647 C1648 1.390 . S
C1647 N1650 1.391 . S
C1648 H1620 0.930 . S
C1648 C1647 1.390 . S
C1648 C1649 1.392 . S
C1649 H1621 0.929 . S
C1649 C1646 1.391 . S
C1649 C1648 1.392 . S
N1650 Co1594 2.257 . S
N1650 C1647 1.391 . S
N1650 C1651 1.388 . S
C1651 H1622 0.930 . S
C1651 C1646 1.391 . S
C1651 N1650 1.388 . S
Co1652 O1654 2.143 . S
Co1652 O1660 2.074 . S
Co1652 O1663 2.093 . S
Co1652 O1676 2.097 . S
Co1652 N1693 2.151 . S
Co1652 N1701 2.214 . S
Co1653 O1654 2.160 . S
Co1653 O1659 2.058 . S
Co1653 O1669 2.057 . S
Co1653 O1684 2.037 . S
Co1653 N1688 2.145 . S
Co1653 N1709 2.257 . S
O1654 Co1652 2.143 . S
O1654 Co1653 2.160 . S
C1655 O1656 1.278 . S
C1655 O1663 1.224 . S
O1656 C1655 1.278 . S
C1657 O1658 1.245 . S
C1657 O1669 1.232 . S
O1658 C1657 1.245 . S
O1659 Co1653 2.058 . S
O1659 C1685 1.269 . S
O1660 Co1652 2.074 . S
O1660 C1685 1.257 . S
H1661 C1686 0.930 . S
H1662 C1692 0.930 . S
O1663 Co1652 2.093 . S
O1663 C1655 1.224 . S
H1664 C1696 0.929 . S
H1665 C1698 0.930 . S
H1666 C1699 0.930 . S
H1667 C1697 0.929 . S
H1668 C1700 0.928 . S
O1669 Co1653 2.057 . S
O1669 C1657 1.232 . S
H1670 C1689 0.929 . S
H1671 C1690 0.929 . S
H1672 C1702 0.931 1_554 S
H1673 C1694 0.929 . S
H1674 C1703 0.930 . S
H1675 C1695 0.931 . S
O1676 Co1652 2.097 . S
O1676 C1704 1.214 . S
H1677 C1705 0.929 1_655 S
H1678 C1706 0.929 . S
H1679 C1707 0.930 . S
H1680 C1708 0.929 . S
H1681 C1710 0.930 . S
H1682 C1687 0.930 . S
H1683 C1691 0.930 . S
O1684 Co1653 2.037 . S
O1684 C1704 1.234 . S
C1685 O1659 1.269 . S
C1685 O1660 1.257 . S
C1686 H1661 0.930 . S
C1686 C1689 1.388 . S
C1686 C1691 1.418 . S
C1687 H1682 0.930 . S
C1687 C1690 1.404 . S
C1687 C1691 1.353 . S
N1688 Co1653 2.145 . S
N1688 C1689 1.397 . S
N1688 C1690 1.334 . S
C1689 H1670 0.929 . S
C1689 C1686 1.388 . S
C1689 N1688 1.397 . S
C1690 H1671 0.929 . S
C1690 C1687 1.404 . S
C1690 N1688 1.334 . S
C1691 H1683 0.930 . S
C1691 C1686 1.418 . S
C1691 C1687 1.353 . S
C1692 H1662 0.930 . S
C1692 N1693 1.330 . S
C1692 C1694 1.446 1_554 S
N1693 Co1652 2.151 . S
N1693 C1692 1.330 . S
N1693 C1697 1.418 . S
C1694 H1673 0.929 . S
C1694 C1692 1.446 1_556 S
C1694 C1695 1.332 . S
C1695 H1675 0.931 . S
C1695 C1694 1.332 . S
C1695 C1696 1.267 . S
C1696 H1664 0.929 . S
C1696 C1695 1.267 . S
C1696 C1697 1.251 1_556 S
C1697 H1667 0.929 . S
C1697 N1693 1.418 . S
C1697 C1696 1.251 1_554 S
C1698 H1665 0.930 . S
C1698 C1700 1.406 . S
C1698 C1703 1.261 . S
C1699 H1666 0.930 . S
C1699 N1701 1.325 . S
C1699 C1702 1.358 1_554 S
C1700 H1668 0.928 . S
C1700 C1698 1.406 . S
C1700 N1701 1.261 1_556 S
N1701 Co1652 2.214 . S
N1701 C1699 1.325 . S
N1701 C1700 1.261 1_554 S
C1702 H1672 0.931 1_556 S
C1702 C1699 1.358 1_556 S
C1702 C1703 1.311 . S
C1703 H1674 0.930 . S
C1703 C1698 1.261 . S
C1703 C1702 1.311 . S
C1704 O1676 1.214 . S
C1704 O1684 1.234 . S
C1705 H1677 0.929 1_455 S
C1705 C1708 1.391 . S
C1705 C1710 1.391 . S
C1706 H1678 0.929 . S
C1706 C1707 1.390 . S
C1706 N1709 1.391 . S
C1707 H1679 0.930 . S
C1707 C1706 1.390 . S
C1707 C1708 1.392 . S
C1708 H1680 0.929 . S
C1708 C1705 1.391 . S
C1708 C1707 1.392 . S
N1709 Co1653 2.257 . S
N1709 C1706 1.391 . S
N1709 C1710 1.388 . S
C1710 H1681 0.930 . S
C1710 C1705 1.391 . S
C1710 N1709 1.388 . S
Co1711 O1713 2.143 . S
Co1711 O1719 2.074 . S
Co1711 O1722 2.093 . S
Co1711 O1735 2.097 . S
Co1711 N1752 2.151 . S
Co1711 N1760 2.214 . S
Co1712 O1713 2.160 . S
Co1712 O1718 2.058 . S
Co1712 O1728 2.057 . S
Co1712 O1743 2.037 . S
Co1712 N1747 2.145 . S
Co1712 N1768 2.257 . S
O1713 Co1711 2.143 . S
O1713 Co1712 2.160 . S
C1714 O1715 1.278 . S
C1714 O1722 1.224 . S
O1715 C1714 1.278 . S
C1716 O1717 1.245 . S
C1716 O1728 1.232 . S
O1717 C1716 1.245 . S
O1718 Co1712 2.058 . S
O1718 C1744 1.269 . S
O1719 Co1711 2.074 . S
O1719 C1744 1.257 . S
H1720 C1745 0.930 . S
H1721 C1751 0.930 . S
O1722 Co1711 2.093 . S
O1722 C1714 1.224 . S
H1723 C1755 0.929 . S
H1724 C1757 0.930 . S
H1725 C1758 0.930 . S
H1726 C1756 0.929 . S
H1727 C1759 0.928 . S
O1728 Co1712 2.057 . S
O1728 C1716 1.232 . S
H1729 C1748 0.929 . S
H1730 C1749 0.929 . S
H1731 C1761 0.931 1_554 S
H1732 C1753 0.929 . S
H1733 C1762 0.930 . S
H1734 C1754 0.931 . S
O1735 Co1711 2.097 . S
O1735 C1763 1.214 . S
H1736 C1764 0.929 . S
H1737 C1765 0.929 . S
H1738 C1766 0.930 . S
H1739 C1767 0.929 . S
H1740 C1769 0.930 . S
H1741 C1746 0.930 . S
H1742 C1750 0.930 . S
O1743 Co1712 2.037 . S
O1743 C1763 1.234 . S
C1744 O1718 1.269 . S
C1744 O1719 1.257 . S
C1745 H1720 0.930 . S
C1745 C1748 1.388 . S
C1745 C1750 1.418 . S
C1746 H1741 0.930 . S
C1746 C1749 1.404 . S
C1746 C1750 1.353 . S
N1747 Co1712 2.145 . S
N1747 C1748 1.397 . S
N1747 C1749 1.334 . S
C1748 H1729 0.929 . S
C1748 C1745 1.388 . S
C1748 N1747 1.397 . S
C1749 H1730 0.929 . S
C1749 C1746 1.404 . S
C1749 N1747 1.334 . S
C1750 H1742 0.930 . S
C1750 C1745 1.418 . S
C1750 C1746 1.353 . S
C1751 H1721 0.930 . S
C1751 N1752 1.330 . S
C1751 C1753 1.446 1_554 S
N1752 Co1711 2.151 . S
N1752 C1751 1.330 . S
N1752 C1756 1.418 . S
C1753 H1732 0.929 . S
C1753 C1751 1.446 1_556 S
C1753 C1754 1.332 . S
C1754 H1734 0.931 . S
C1754 C1753 1.332 . S
C1754 C1755 1.267 . S
C1755 H1723 0.929 . S
C1755 C1754 1.267 . S
C1755 C1756 1.251 1_556 S
C1756 H1726 0.929 . S
C1756 N1752 1.418 . S
C1756 C1755 1.251 1_554 S
C1757 H1724 0.930 . S
C1757 C1759 1.406 . S
C1757 C1762 1.261 . S
C1758 H1725 0.930 . S
C1758 N1760 1.325 . S
C1758 C1761 1.358 1_554 S
C1759 H1727 0.928 . S
C1759 C1757 1.406 . S
C1759 N1760 1.261 1_556 S
N1760 Co1711 2.214 . S
N1760 C1758 1.325 . S
N1760 C1759 1.261 1_554 S
C1761 H1731 0.931 1_556 S
C1761 C1758 1.358 1_556 S
C1761 C1762 1.311 . S
C1762 H1733 0.930 . S
C1762 C1757 1.261 . S
C1762 C1761 1.311 . S
C1763 O1735 1.214 . S
C1763 O1743 1.234 . S
C1764 H1736 0.929 . S
C1764 C1767 1.391 . S
C1764 C1769 1.391 . S
C1765 H1737 0.929 . S
C1765 C1766 1.390 . S
C1765 N1768 1.391 . S
C1766 H1738 0.930 . S
C1766 C1765 1.390 . S
C1766 C1767 1.392 . S
C1767 H1739 0.929 . S
C1767 C1764 1.391 . S
C1767 C1766 1.392 . S
N1768 Co1712 2.257 . S
N1768 C1765 1.391 . S
N1768 C1769 1.388 . S
C1769 H1740 0.930 . S
C1769 C1764 1.391 . S
C1769 N1768 1.388 . S
Co1770 O1772 2.143 . S
Co1770 O1778 2.074 . S
Co1770 O1781 2.093 . S
Co1770 O1794 2.097 . S
Co1770 N1811 2.151 . S
Co1770 N1819 2.214 . S
Co1771 O1772 2.160 . S
Co1771 O1777 2.058 . S
Co1771 O1787 2.057 . S
Co1771 O1802 2.037 . S
Co1771 N1806 2.145 . S
Co1771 N1827 2.257 . S
O1772 Co1770 2.143 . S
O1772 Co1771 2.160 . S
C1773 O1774 1.278 . S
C1773 O1781 1.224 . S
O1774 C1773 1.278 . S
C1775 O1776 1.245 . S
C1775 O1787 1.232 . S
O1776 C1775 1.245 . S
O1777 Co1771 2.058 . S
O1777 C1803 1.269 . S
O1778 Co1770 2.074 . S
O1778 C1803 1.257 . S
H1779 C1804 0.930 . S
H1780 C1810 0.930 . S
O1781 Co1770 2.093 . S
O1781 C1773 1.224 . S
H1782 C1814 0.929 . S
H1783 C1816 0.930 . S
H1784 C1817 0.930 . S
H1785 C1815 0.929 . S
H1786 C1818 0.928 . S
O1787 Co1771 2.057 . S
O1787 C1775 1.232 . S
H1788 C1807 0.929 . S
H1789 C1808 0.929 . S
H1790 C1820 0.931 . S
H1791 C1812 0.929 . S
H1792 C1821 0.930 . S
H1793 C1813 0.931 . S
O1794 Co1770 2.097 . S
O1794 C1822 1.214 . S
H1795 C1823 0.929 1_655 S
H1796 C1824 0.929 . S
H1797 C1825 0.930 . S
H1798 C1826 0.929 . S
H1799 C1828 0.930 . S
H1800 C1805 0.930 . S
H1801 C1809 0.930 . S
O1802 Co1771 2.037 . S
O1802 C1822 1.234 . S
C1803 O1777 1.269 . S
C1803 O1778 1.257 . S
C1804 H1779 0.930 . S
C1804 C1807 1.388 . S
C1804 C1809 1.418 . S
C1805 H1800 0.930 . S
C1805 C1808 1.404 . S
C1805 C1809 1.353 . S
N1806 Co1771 2.145 . S
N1806 C1807 1.397 . S
N1806 C1808 1.334 . S
C1807 H1788 0.929 . S
C1807 C1804 1.388 . S
C1807 N1806 1.397 . S
C1808 H1789 0.929 . S
C1808 C1805 1.404 . S
C1808 N1806 1.334 . S
C1809 H1801 0.930 . S
C1809 C1804 1.418 . S
C1809 C1805 1.353 . S
C1810 H1780 0.930 . S
C1810 N1811 1.330 . S
C1810 C1812 1.446 . S
N1811 Co1770 2.151 . S
N1811 C1810 1.330 . S
N1811 C1815 1.418 . S
C1812 H1791 0.929 . S
C1812 C1810 1.446 . S
C1812 C1813 1.332 . S
C1813 H1793 0.931 . S
C1813 C1812 1.332 . S
C1813 C1814 1.267 . S
C1814 H1782 0.929 . S
C1814 C1813 1.267 . S
C1814 C1815 1.251 . S
C1815 H1785 0.929 . S
C1815 N1811 1.418 . S
C1815 C1814 1.251 . S
C1816 H1783 0.930 . S
C1816 C1818 1.406 . S
C1816 C1821 1.261 . S
C1817 H1784 0.930 . S
C1817 N1819 1.325 . S
C1817 C1820 1.357 . S
C1818 H1786 0.928 . S
C1818 C1816 1.406 . S
C1818 N1819 1.261 . S
N1819 Co1770 2.214 . S
N1819 C1817 1.325 . S
N1819 C1818 1.261 . S
C1820 H1790 0.931 . S
C1820 C1817 1.357 . S
C1820 C1821 1.312 . S
C1821 H1792 0.930 . S
C1821 C1816 1.261 . S
C1821 C1820 1.312 . S
C1822 O1794 1.214 . S
C1822 O1802 1.234 . S
C1823 H1795 0.929 1_455 S
C1823 C1826 1.391 . S
C1823 C1828 1.391 . S
C1824 H1796 0.929 . S
C1824 C1825 1.390 . S
C1824 N1827 1.391 . S
C1825 H1797 0.930 . S
C1825 C1824 1.390 . S
C1825 C1826 1.392 . S
C1826 H1798 0.929 . S
C1826 C1823 1.391 . S
C1826 C1825 1.392 . S
N1827 Co1771 2.257 . S
N1827 C1824 1.391 . S
N1827 C1828 1.388 . S
C1828 H1799 0.930 . S
C1828 C1823 1.391 . S
C1828 N1827 1.388 . S
Co1829 O1831 2.143 . S
Co1829 O1837 2.074 . S
Co1829 O1840 2.093 . S
Co1829 O1853 2.097 . S
Co1829 N1870 2.151 . S
Co1829 N1878 2.214 . S
Co1830 O1831 2.160 . S
Co1830 O1836 2.058 . S
Co1830 O1846 2.057 . S
Co1830 O1861 2.037 . S
Co1830 N1865 2.145 . S
Co1830 N1886 2.257 . S
O1831 Co1829 2.143 . S
O1831 Co1830 2.160 . S
C1832 O1833 1.278 . S
C1832 O1840 1.224 . S
O1833 C1832 1.278 . S
C1834 O1835 1.245 . S
C1834 O1846 1.232 . S
O1835 C1834 1.245 . S
O1836 Co1830 2.058 . S
O1836 C1862 1.269 . S
O1837 Co1829 2.074 . S
O1837 C1862 1.257 . S
H1838 C1863 0.930 . S
H1839 C1869 0.930 . S
O1840 Co1829 2.093 . S
O1840 C1832 1.224 . S
H1841 C1873 0.929 . S
H1842 C1875 0.930 . S
H1843 C1876 0.930 . S
H1844 C1874 0.929 . S
H1845 C1877 0.928 . S
O1846 Co1830 2.057 . S
O1846 C1834 1.232 . S
H1847 C1866 0.929 . S
H1848 C1867 0.929 . S
H1849 C1879 0.931 . S
H1850 C1871 0.929 . S
H1851 C1880 0.930 . S
H1852 C1872 0.931 . S
O1853 Co1829 2.097 . S
O1853 C1881 1.214 . S
H1854 C1882 0.929 . S
H1855 C1883 0.929 . S
H1856 C1884 0.930 . S
H1857 C1885 0.929 . S
H1858 C1887 0.930 . S
H1859 C1864 0.930 . S
H1860 C1868 0.930 . S
O1861 Co1830 2.037 . S
O1861 C1881 1.234 . S
C1862 O1836 1.269 . S
C1862 O1837 1.257 . S
C1863 H1838 0.930 . S
C1863 C1866 1.388 . S
C1863 C1868 1.418 . S
C1864 H1859 0.930 . S
C1864 C1867 1.404 . S
C1864 C1868 1.353 . S
N1865 Co1830 2.145 . S
N1865 C1866 1.397 . S
N1865 C1867 1.334 . S
C1866 H1847 0.929 . S
C1866 C1863 1.388 . S
C1866 N1865 1.397 . S
C1867 H1848 0.929 . S
C1867 C1864 1.404 . S
C1867 N1865 1.334 . S
C1868 H1860 0.930 . S
C1868 C1863 1.418 . S
C1868 C1864 1.353 . S
C1869 H1839 0.930 . S
C1869 N1870 1.330 . S
C1869 C1871 1.446 . S
N1870 Co1829 2.151 . S
N1870 C1869 1.330 . S
N1870 C1874 1.418 . S
C1871 H1850 0.929 . S
C1871 C1869 1.446 . S
C1871 C1872 1.332 . S
C1872 H1852 0.931 . S
C1872 C1871 1.332 . S
C1872 C1873 1.267 . S
C1873 H1841 0.929 . S
C1873 C1872 1.267 . S
C1873 C1874 1.251 . S
C1874 H1844 0.929 . S
C1874 N1870 1.418 . S
C1874 C1873 1.251 . S
C1875 H1842 0.930 . S
C1875 C1877 1.406 . S
C1875 C1880 1.261 . S
C1876 H1843 0.930 . S
C1876 N1878 1.325 . S
C1876 C1879 1.357 . S
C1877 H1845 0.928 . S
C1877 C1875 1.406 . S
C1877 N1878 1.261 . S
N1878 Co1829 2.214 . S
N1878 C1876 1.325 . S
N1878 C1877 1.261 . S
C1879 H1849 0.931 . S
C1879 C1876 1.357 . S
C1879 C1880 1.312 . S
C1880 H1851 0.930 . S
C1880 C1875 1.261 . S
C1880 C1879 1.312 . S
C1881 O1853 1.214 . S
C1881 O1861 1.234 . S
C1882 H1854 0.929 . S
C1882 C1885 1.391 . S
C1882 C1887 1.391 . S
C1883 H1855 0.929 . S
C1883 C1884 1.390 . S
C1883 N1886 1.391 . S
C1884 H1856 0.930 . S
C1884 C1883 1.390 . S
C1884 C1885 1.392 . S
C1885 H1857 0.929 . S
C1885 C1882 1.391 . S
C1885 C1884 1.392 . S
N1886 Co1830 2.257 . S
N1886 C1883 1.391 . S
N1886 C1887 1.388 . S
C1887 H1858 0.930 . S
C1887 C1882 1.391 . S
C1887 N1886 1.388 . S
Co1888 O1890 2.143 . S
Co1888 O1896 2.074 . S
Co1888 O1899 2.093 . S
Co1888 O1912 2.097 . S
Co1888 N1929 2.151 . S
Co1888 N1937 2.214 . S
Co1889 O1890 2.160 . S
Co1889 O1895 2.058 . S
Co1889 O1905 2.057 . S
Co1889 O1920 2.037 . S
Co1889 N1924 2.145 . S
Co1889 N1945 2.257 . S
O1890 Co1888 2.143 . S
O1890 Co1889 2.160 . S
C1891 O1892 1.278 . S
C1891 O1899 1.224 . S
O1892 C1891 1.278 . S
C1893 O1894 1.245 . S
C1893 O1905 1.232 . S
O1894 C1893 1.245 . S
O1895 Co1889 2.058 . S
O1895 C1921 1.269 . S
O1896 Co1888 2.074 . S
O1896 C1921 1.257 . S
H1897 C1922 0.930 . S
H1898 C1928 0.930 . S
O1899 Co1888 2.093 . S
O1899 C1891 1.224 . S
H1900 C1932 0.929 . S
H1901 C1934 0.930 . S
H1902 C1935 0.930 . S
H1903 C1933 0.929 . S
H1904 C1936 0.928 . S
O1905 Co1889 2.057 . S
O1905 C1893 1.232 . S
H1906 C1925 0.929 . S
H1907 C1926 0.929 . S
H1908 C1938 0.931 . S
H1909 C1930 0.929 . S
H1910 C1939 0.930 . S
H1911 C1931 0.931 . S
O1912 Co1888 2.097 . S
O1912 C1940 1.214 . S
H1913 C1941 0.929 1_545 S
H1914 C1942 0.929 . S
H1915 C1943 0.930 . S
H1916 C1944 0.929 . S
H1917 C1946 0.930 . S
H1918 C1923 0.930 . S
H1919 C1927 0.930 . S
O1920 Co1889 2.037 . S
O1920 C1940 1.234 . S
C1921 O1895 1.269 . S
C1921 O1896 1.257 . S
C1922 H1897 0.930 . S
C1922 C1925 1.388 . S
C1922 C1927 1.418 . S
C1923 H1918 0.930 . S
C1923 C1926 1.404 . S
C1923 C1927 1.353 . S
N1924 Co1889 2.145 . S
N1924 C1925 1.397 . S
N1924 C1926 1.334 . S
C1925 H1906 0.929 . S
C1925 C1922 1.388 . S
C1925 N1924 1.397 . S
C1926 H1907 0.929 . S
C1926 C1923 1.404 . S
C1926 N1924 1.334 . S
C1927 H1919 0.930 . S
C1927 C1922 1.418 . S
C1927 C1923 1.353 . S
C1928 H1898 0.930 . S
C1928 N1929 1.330 . S
C1928 C1930 1.446 . S
N1929 Co1888 2.151 . S
N1929 C1928 1.330 . S
N1929 C1933 1.418 . S
C1930 H1909 0.929 . S
C1930 C1928 1.446 . S
C1930 C1931 1.332 . S
C1931 H1911 0.931 . S
C1931 C1930 1.332 . S
C1931 C1932 1.267 . S
C1932 H1900 0.929 . S
C1932 C1931 1.267 . S
C1932 C1933 1.251 . S
C1933 H1903 0.929 . S
C1933 N1929 1.418 . S
C1933 C1932 1.251 . S
C1934 H1901 0.930 . S
C1934 C1936 1.406 . S
C1934 C1939 1.261 . S
C1935 H1902 0.930 . S
C1935 N1937 1.325 . S
C1935 C1938 1.357 . S
C1936 H1904 0.928 . S
C1936 C1934 1.406 . S
C1936 N1937 1.261 . S
N1937 Co1888 2.214 . S
N1937 C1935 1.325 . S
N1937 C1936 1.261 . S
C1938 H1908 0.931 . S
C1938 C1935 1.357 . S
C1938 C1939 1.312 . S
C1939 H1910 0.930 . S
C1939 C1934 1.261 . S
C1939 C1938 1.312 . S
C1940 O1912 1.214 . S
C1940 O1920 1.234 . S
C1941 H1913 0.929 1_565 S
C1941 C1944 1.391 . S
C1941 C1946 1.391 . S
C1942 H1914 0.929 . S
C1942 C1943 1.390 . S
C1942 N1945 1.391 . S
C1943 H1915 0.930 . S
C1943 C1942 1.390 . S
C1943 C1944 1.392 . S
C1944 H1916 0.929 . S
C1944 C1941 1.391 . S
C1944 C1943 1.392 . S
N1945 Co1889 2.257 . S
N1945 C1942 1.391 . S
N1945 C1946 1.388 . S
C1946 H1917 0.930 . S
C1946 C1941 1.391 . S
C1946 N1945 1.388 . S
Co1947 O1949 2.143 . S
Co1947 O1955 2.074 . S
Co1947 O1958 2.093 . S
Co1947 O1971 2.097 . S
Co1947 N1988 2.151 . S
Co1947 N1996 2.214 . S
Co1948 O1949 2.160 . S
Co1948 O1954 2.058 . S
Co1948 O1964 2.057 . S
Co1948 O1979 2.037 . S
Co1948 N1983 2.145 . S
Co1948 N2004 2.257 . S
O1949 Co1947 2.143 . S
O1949 Co1948 2.160 . S
C1950 O1951 1.278 . S
C1950 O1958 1.224 . S
O1951 C1950 1.278 . S
C1952 O1953 1.245 . S
C1952 O1964 1.232 . S
O1953 C1952 1.245 . S
O1954 Co1948 2.058 . S
O1954 C1980 1.269 . S
O1955 Co1947 2.074 . S
O1955 C1980 1.257 . S
H1956 C1981 0.930 . S
H1957 C1987 0.930 . S
O1958 Co1947 2.093 . S
O1958 C1950 1.224 . S
H1959 C1991 0.929 . S
H1960 C1993 0.930 . S
H1961 C1994 0.930 . S
H1962 C1992 0.929 . S
H1963 C1995 0.928 . S
O1964 Co1948 2.057 . S
O1964 C1952 1.232 . S
H1965 C1984 0.929 . S
H1966 C1985 0.929 . S
H1967 C1997 0.931 . S
H1968 C1989 0.929 . S
H1969 C1998 0.930 . S
H1970 C1990 0.931 . S
O1971 Co1947 2.097 . S
O1971 C1999 1.214 . S
H1972 C2000 0.929 . S
H1973 C2001 0.929 . S
H1974 C2002 0.930 . S
H1975 C2003 0.929 . S
H1976 C2005 0.930 . S
H1977 C1982 0.930 . S
H1978 C1986 0.930 . S
O1979 Co1948 2.037 . S
O1979 C1999 1.234 . S
C1980 O1954 1.269 . S
C1980 O1955 1.257 . S
C1981 H1956 0.930 . S
C1981 C1984 1.388 . S
C1981 C1986 1.418 . S
C1982 H1977 0.930 . S
C1982 C1985 1.404 . S
C1982 C1986 1.353 . S
N1983 Co1948 2.145 . S
N1983 C1984 1.397 . S
N1983 C1985 1.334 . S
C1984 H1965 0.929 . S
C1984 C1981 1.388 . S
C1984 N1983 1.397 . S
C1985 H1966 0.929 . S
C1985 C1982 1.404 . S
C1985 N1983 1.334 . S
C1986 H1978 0.930 . S
C1986 C1981 1.418 . S
C1986 C1982 1.353 . S
C1987 H1957 0.930 . S
C1987 N1988 1.330 . S
C1987 C1989 1.446 . S
N1988 Co1947 2.151 . S
N1988 C1987 1.330 . S
N1988 C1992 1.418 . S
C1989 H1968 0.929 . S
C1989 C1987 1.446 . S
C1989 C1990 1.332 . S
C1990 H1970 0.931 . S
C1990 C1989 1.332 . S
C1990 C1991 1.267 . S
C1991 H1959 0.929 . S
C1991 C1990 1.267 . S
C1991 C1992 1.251 . S
C1992 H1962 0.929 . S
C1992 N1988 1.418 . S
C1992 C1991 1.251 . S
C1993 H1960 0.930 . S
C1993 C1995 1.406 . S
C1993 C1998 1.261 . S
C1994 H1961 0.930 . S
C1994 N1996 1.325 . S
C1994 C1997 1.357 . S
C1995 H1963 0.928 . S
C1995 C1993 1.406 . S
C1995 N1996 1.261 . S
N1996 Co1947 2.214 . S
N1996 C1994 1.325 . S
N1996 C1995 1.261 . S
C1997 H1967 0.931 . S
C1997 C1994 1.357 . S
C1997 C1998 1.312 . S
C1998 H1969 0.930 . S
C1998 C1993 1.261 . S
C1998 C1997 1.312 . S
C1999 O1971 1.214 . S
C1999 O1979 1.234 . S
C2000 H1972 0.929 . S
C2000 C2003 1.391 . S
C2000 C2005 1.391 . S
C2001 H1973 0.929 . S
C2001 C2002 1.390 . S
C2001 N2004 1.391 . S
C2002 H1974 0.930 . S
C2002 C2001 1.390 . S
C2002 C2003 1.392 . S
C2003 H1975 0.929 . S
C2003 C2000 1.391 . S
C2003 C2002 1.392 . S
N2004 Co1948 2.257 . S
N2004 C2001 1.391 . S
N2004 C2005 1.388 . S
C2005 H1976 0.930 . S
C2005 C2000 1.391 . S
C2005 N2004 1.388 . S
Co2006 O2008 2.143 . S
Co2006 O2014 2.074 . S
Co2006 O2017 2.093 . S
Co2006 O2030 2.097 . S
Co2006 N2047 2.151 . S
Co2006 N2055 2.214 . S
Co2007 O2008 2.160 . S
Co2007 O2013 2.058 . S
Co2007 O2023 2.057 . S
Co2007 O2038 2.037 . S
Co2007 N2042 2.145 . S
Co2007 N2063 2.257 . S
O2008 Co2006 2.143 . S
O2008 Co2007 2.160 . S
C2009 O2010 1.278 . S
C2009 O2017 1.224 . S
O2010 C2009 1.278 . S
C2011 O2012 1.245 . S
C2011 O2023 1.232 . S
O2012 C2011 1.245 . S
O2013 Co2007 2.058 . S
O2013 C2039 1.269 . S
O2014 Co2006 2.074 . S
O2014 C2039 1.257 . S
H2015 C2040 0.930 . S
H2016 C2046 0.930 . S
O2017 Co2006 2.093 . S
O2017 C2009 1.224 . S
H2018 C2050 0.929 . S
H2019 C2052 0.930 . S
H2020 C2053 0.930 . S
H2021 C2051 0.929 . S
H2022 C2054 0.928 . S
O2023 Co2007 2.057 . S
O2023 C2011 1.232 . S
H2024 C2043 0.929 . S
H2025 C2044 0.929 . S
H2026 C2056 0.931 . S
H2027 C2048 0.929 . S
H2028 C2057 0.930 . S
H2029 C2049 0.931 . S
O2030 Co2006 2.097 . S
O2030 C2058 1.214 . S
H2031 C2059 0.929 . S
H2032 C2060 0.929 . S
H2033 C2061 0.930 . S
H2034 C2062 0.929 . S
H2035 C2064 0.930 . S
H2036 C2041 0.930 . S
H2037 C2045 0.930 . S
O2038 Co2007 2.037 . S
O2038 C2058 1.234 . S
C2039 O2013 1.269 . S
C2039 O2014 1.257 . S
C2040 H2015 0.930 . S
C2040 C2043 1.388 . S
C2040 C2045 1.418 . S
C2041 H2036 0.930 . S
C2041 C2044 1.404 . S
C2041 C2045 1.353 . S
N2042 Co2007 2.145 . S
N2042 C2043 1.397 . S
N2042 C2044 1.334 . S
C2043 H2024 0.929 . S
C2043 C2040 1.388 . S
C2043 N2042 1.397 . S
C2044 H2025 0.929 . S
C2044 C2041 1.404 . S
C2044 N2042 1.334 . S
C2045 H2037 0.930 . S
C2045 C2040 1.418 . S
C2045 C2041 1.353 . S
C2046 H2016 0.930 . S
C2046 N2047 1.330 . S
C2046 C2048 1.446 . S
N2047 Co2006 2.151 . S
N2047 C2046 1.330 . S
N2047 C2051 1.418 . S
C2048 H2027 0.929 . S
C2048 C2046 1.446 . S
C2048 C2049 1.332 . S
C2049 H2029 0.931 . S
C2049 C2048 1.332 . S
C2049 C2050 1.267 . S
C2050 H2018 0.929 . S
C2050 C2049 1.267 . S
C2050 C2051 1.251 . S
C2051 H2021 0.929 . S
C2051 N2047 1.418 . S
C2051 C2050 1.251 . S
C2052 H2019 0.930 . S
C2052 C2054 1.406 . S
C2052 C2057 1.261 . S
C2053 H2020 0.930 . S
C2053 N2055 1.325 . S
C2053 C2056 1.357 . S
C2054 H2022 0.928 . S
C2054 C2052 1.406 . S
C2054 N2055 1.261 . S
N2055 Co2006 2.214 . S
N2055 C2053 1.325 . S
N2055 C2054 1.261 . S
C2056 H2026 0.931 . S
C2056 C2053 1.357 . S
C2056 C2057 1.312 . S
C2057 H2028 0.930 . S
C2057 C2052 1.261 . S
C2057 C2056 1.312 . S
C2058 O2030 1.214 . S
C2058 O2038 1.234 . S
C2059 H2031 0.929 . S
C2059 C2062 1.391 . S
C2059 C2064 1.391 . S
C2060 H2032 0.929 . S
C2060 C2061 1.390 . S
C2060 N2063 1.391 . S
C2061 H2033 0.930 . S
C2061 C2060 1.390 . S
C2061 C2062 1.392 . S
C2062 H2034 0.929 . S
C2062 C2059 1.391 . S
C2062 C2061 1.392 . S
N2063 Co2007 2.257 . S
N2063 C2060 1.391 . S
N2063 C2064 1.388 . S
C2064 H2035 0.930 . S
C2064 C2059 1.391 . S
C2064 N2063 1.388 . S
Co2065 O2067 2.143 . S
Co2065 O2073 2.074 . S
Co2065 O2076 2.093 . S
Co2065 O2089 2.097 . S
Co2065 N2106 2.151 . S
Co2065 N2114 2.214 . S
Co2066 O2067 2.160 . S
Co2066 O2072 2.058 . S
Co2066 O2082 2.057 . S
Co2066 O2097 2.037 . S
Co2066 N2101 2.145 . S
Co2066 N2122 2.257 . S
O2067 Co2065 2.143 . S
O2067 Co2066 2.160 . S
C2068 O2069 1.278 . S
C2068 O2076 1.224 . S
O2069 C2068 1.278 . S
C2070 O2071 1.245 . S
C2070 O2082 1.232 . S
O2071 C2070 1.245 . S
O2072 Co2066 2.058 . S
O2072 C2098 1.269 . S
O2073 Co2065 2.074 . S
O2073 C2098 1.257 . S
H2074 C2099 0.930 . S
H2075 C2105 0.930 . S
O2076 Co2065 2.093 . S
O2076 C2068 1.224 . S
H2077 C2109 0.929 . S
H2078 C2111 0.930 . S
H2079 C2112 0.930 . S
H2080 C2110 0.929 . S
H2081 C2113 0.928 . S
O2082 Co2066 2.057 . S
O2082 C2070 1.232 . S
H2083 C2102 0.929 . S
H2084 C2103 0.929 . S
H2085 C2115 0.931 . S
H2086 C2107 0.929 . S
H2087 C2116 0.930 . S
H2088 C2108 0.931 . S
O2089 Co2065 2.097 . S
O2089 C2117 1.214 . S
H2090 C2118 0.929 . S
H2091 C2119 0.929 . S
H2092 C2120 0.930 . S
H2093 C2121 0.929 . S
H2094 C2123 0.930 . S
H2095 C2100 0.930 . S
H2096 C2104 0.930 . S
O2097 Co2066 2.037 . S
O2097 C2117 1.234 . S
C2098 O2072 1.269 . S
C2098 O2073 1.257 . S
C2099 H2074 0.930 . S
C2099 C2102 1.388 . S
C2099 C2104 1.418 . S
C2100 H2095 0.930 . S
C2100 C2103 1.404 . S
C2100 C2104 1.353 . S
N2101 Co2066 2.145 . S
N2101 C2102 1.397 . S
N2101 C2103 1.334 . S
C2102 H2083 0.929 . S
C2102 C2099 1.388 . S
C2102 N2101 1.397 . S
C2103 H2084 0.929 . S
C2103 C2100 1.404 . S
C2103 N2101 1.334 . S
C2104 H2096 0.930 . S
C2104 C2099 1.418 . S
C2104 C2100 1.353 . S
C2105 H2075 0.930 . S
C2105 N2106 1.330 . S
C2105 C2107 1.446 . S
N2106 Co2065 2.151 . S
N2106 C2105 1.330 . S
N2106 C2110 1.418 . S
C2107 H2086 0.929 . S
C2107 C2105 1.446 . S
C2107 C2108 1.332 . S
C2108 H2088 0.931 . S
C2108 C2107 1.332 . S
C2108 C2109 1.267 . S
C2109 H2077 0.929 . S
C2109 C2108 1.267 . S
C2109 C2110 1.251 . S
C2110 H2080 0.929 . S
C2110 N2106 1.418 . S
C2110 C2109 1.251 . S
C2111 H2078 0.930 . S
C2111 C2113 1.406 . S
C2111 C2116 1.261 . S
C2112 H2079 0.930 . S
C2112 N2114 1.325 . S
C2112 C2115 1.357 . S
C2113 H2081 0.928 . S
C2113 C2111 1.406 . S
C2113 N2114 1.261 . S
N2114 Co2065 2.214 . S
N2114 C2112 1.325 . S
N2114 C2113 1.261 . S
C2115 H2085 0.931 . S
C2115 C2112 1.357 . S
C2115 C2116 1.312 . S
C2116 H2087 0.930 . S
C2116 C2111 1.261 . S
C2116 C2115 1.312 . S
C2117 O2089 1.214 . S
C2117 O2097 1.234 . S
C2118 H2090 0.929 . S
C2118 C2121 1.391 . S
C2118 C2123 1.391 . S
C2119 H2091 0.929 . S
C2119 C2120 1.390 . S
C2119 N2122 1.391 . S
C2120 H2092 0.930 . S
C2120 C2119 1.390 . S
C2120 C2121 1.392 . S
C2121 H2093 0.929 . S
C2121 C2118 1.391 . S
C2121 C2120 1.392 . S
N2122 Co2066 2.257 . S
N2122 C2119 1.391 . S
N2122 C2123 1.388 . S
C2123 H2094 0.930 . S
C2123 C2118 1.391 . S
C2123 N2122 1.388 . S
C2124 C2125 1.387 . S
C2124 H2128 0.950 . S
C2124 C2133 1.390 . S
C2125 C2124 1.387 . S
C2125 C2127 1.387 . S
H2126 C2133 0.950 . S
C2127 C2125 1.387 . S
C2127 C2129 1.390 . S
C2127 H2131 0.950 . S
H2128 C2124 0.950 . S
C2129 C2127 1.390 . S
C2129 C2130 1.387 . S
C2129 H2132 0.950 . S
C2130 C2129 1.387 . S
C2130 C2133 1.387 . S
H2131 C2127 0.950 . S
H2132 C2129 0.950 . S
C2133 C2124 1.390 . S
C2133 H2126 0.950 . S
C2133 C2130 1.387 . S
C2134 C2135 1.387 . S
C2134 H2138 0.950 . S
C2134 C2143 1.390 . S
C2135 C2134 1.387 . S
C2135 C2137 1.387 . S
H2136 C2143 0.950 . S
C2137 C2135 1.387 . S
C2137 C2139 1.390 . S
C2137 H2141 0.950 . S
H2138 C2134 0.950 . S
C2139 C2137 1.390 . S
C2139 C2140 1.387 . S
C2139 H2142 0.950 . S
C2140 C2139 1.387 . S
C2140 C2143 1.387 . S
H2141 C2137 0.950 . S
H2142 C2139 0.950 . S
C2143 C2134 1.390 . S
C2143 H2136 0.950 . S
C2143 C2140 1.387 . S
C2144 C2145 1.387 . S
C2144 H2148 0.950 . S
C2144 C2153 1.390 . S
C2145 C2144 1.387 . S
C2145 C2147 1.387 . S
H2146 C2153 0.950 . S
C2147 C2145 1.387 . S
C2147 C2149 1.390 . S
C2147 H2151 0.950 . S
H2148 C2144 0.950 . S
C2149 C2147 1.390 . S
C2149 C2150 1.387 . S
C2149 H2152 0.950 . S
C2150 C2149 1.387 . S
C2150 C2153 1.387 . S
H2151 C2147 0.950 . S
H2152 C2149 0.950 . S
C2153 C2144 1.390 . S
C2153 H2146 0.950 . S
C2153 C2150 1.387 . S
C2154 C2155 1.387 . S
C2154 H2158 0.950 . S
C2154 C2163 1.390 . S
C2155 C2154 1.387 . S
C2155 C2157 1.387 . S
H2156 C2163 0.950 . S
C2157 C2155 1.387 . S
C2157 C2159 1.390 . S
C2157 H2161 0.950 . S
H2158 C2154 0.950 . S
C2159 C2157 1.390 . S
C2159 C2160 1.387 . S
C2159 H2162 0.950 . S
C2160 C2159 1.387 . S
C2160 C2163 1.387 . S
H2161 C2157 0.950 . S
H2162 C2159 0.950 . S
C2163 C2154 1.390 . S
C2163 H2156 0.950 . S
C2163 C2160 1.387 . S
C2164 C2165 1.387 . S
C2164 H2168 0.950 . S
C2164 C2173 1.390 . S
C2165 C2164 1.387 . S
C2165 C2167 1.387 . S
H2166 C2173 0.950 . S
C2167 C2165 1.387 . S
C2167 C2169 1.390 . S
C2167 H2171 0.950 . S
H2168 C2164 0.950 . S
C2169 C2167 1.390 . S
C2169 C2170 1.387 . S
C2169 H2172 0.950 . S
C2170 C2169 1.387 . S
C2170 C2173 1.387 . S
H2171 C2167 0.950 . S
H2172 C2169 0.950 . S
C2173 C2164 1.390 . S
C2173 H2166 0.950 . S
C2173 C2170 1.387 . S
C2174 C2175 1.387 . S
C2174 H2178 0.950 . S
C2174 C2183 1.390 . S
C2175 C2174 1.387 . S
C2175 C2177 1.387 . S
H2176 C2183 0.950 . S
C2177 C2175 1.387 . S
C2177 C2179 1.390 . S
C2177 H2181 0.950 . S
H2178 C2174 0.950 . S
C2179 C2177 1.390 . S
C2179 C2180 1.387 . S
C2179 H2182 0.950 . S
C2180 C2179 1.387 . S
C2180 C2183 1.387 . S
H2181 C2177 0.950 . S
H2182 C2179 0.950 . S
C2183 C2174 1.390 . S
C2183 H2176 0.950 . S
C2183 C2180 1.387 . S
C2184 C2185 1.387 . S
C2184 H2188 0.950 . S
C2184 C2193 1.390 . S
C2185 C2184 1.387 . S
C2185 C2187 1.387 . S
H2186 C2193 0.950 . S
C2187 C2185 1.387 . S
C2187 C2189 1.390 . S
C2187 H2191 0.950 . S
H2188 C2184 0.950 . S
C2189 C2187 1.390 . S
C2189 C2190 1.387 . S
C2189 H2192 0.950 . S
C2190 C2189 1.387 . S
C2190 C2193 1.387 . S
H2191 C2187 0.950 . S
H2192 C2189 0.950 . S
C2193 C2184 1.390 . S
C2193 H2186 0.950 . S
C2193 C2190 1.387 . S
C2194 C2195 1.387 . S
C2194 H2198 0.950 . S
C2194 C2203 1.390 . S
C2195 C2194 1.387 . S
C2195 C2197 1.387 . S
H2196 C2203 0.950 . S
C2197 C2195 1.387 . S
C2197 C2199 1.390 . S
C2197 H2201 0.950 . S
H2198 C2194 0.950 . S
C2199 C2197 1.390 . S
C2199 C2200 1.387 . S
C2199 H2202 0.950 . S
C2200 C2199 1.387 . S
C2200 C2203 1.387 . S
H2201 C2197 0.950 . S
H2202 C2199 0.950 . S
C2203 C2194 1.390 . S
C2203 H2196 0.950 . S
C2203 C2200 1.387 . S
C2204 C2205 1.387 . S
C2204 H2208 0.950 . S
C2204 C2213 1.390 . S
C2205 C2204 1.387 . S
C2205 C2207 1.387 . S
H2206 C2213 0.950 . S
C2207 C2205 1.387 . S
C2207 C2209 1.390 . S
C2207 H2211 0.950 . S
H2208 C2204 0.950 . S
C2209 C2207 1.390 . S
C2209 C2210 1.387 . S
C2209 H2212 0.950 . S
C2210 C2209 1.387 . S
C2210 C2213 1.387 . S
H2211 C2207 0.950 . S
H2212 C2209 0.950 . S
C2213 C2204 1.390 . S
C2213 H2206 0.950 . S
C2213 C2210 1.387 . S
C2214 C2215 1.387 . S
C2214 H2218 0.950 . S
C2214 C2223 1.390 . S
C2215 C2214 1.387 . S
C2215 C2217 1.387 . S
H2216 C2223 0.950 . S
C2217 C2215 1.387 . S
C2217 C2219 1.390 . S
C2217 H2221 0.950 . S
H2218 C2214 0.950 . S
C2219 C2217 1.390 . S
C2219 C2220 1.387 . S
C2219 H2222 0.950 . S
C2220 C2219 1.387 . S
C2220 C2223 1.387 . S
H2221 C2217 0.950 . S
H2222 C2219 0.950 . S
C2223 C2214 1.390 . S
C2223 H2216 0.950 . S
C2223 C2220 1.387 . S
C2224 C2225 1.387 . S
C2224 H2228 0.950 . S
C2224 C2233 1.390 . S
C2225 C2224 1.387 . S
C2225 C2227 1.387 . S
H2226 C2233 0.950 . S
C2227 C2225 1.387 . S
C2227 C2229 1.390 . S
C2227 H2231 0.950 . S
H2228 C2224 0.950 . S
C2229 C2227 1.390 . S
C2229 C2230 1.387 . S
C2229 H2232 0.950 . S
C2230 C2229 1.387 . S
C2230 C2233 1.387 . S
H2231 C2227 0.950 . S
H2232 C2229 0.950 . S
C2233 C2224 1.390 . S
C2233 H2226 0.950 . S
C2233 C2230 1.387 . S
C2234 C2235 1.387 . S
C2234 H2238 0.950 . S
C2234 C2243 1.390 . S
C2235 C2234 1.387 . S
C2235 C2237 1.387 . S
H2236 C2243 0.950 . S
C2237 C2235 1.387 . S
C2237 C2239 1.390 . S
C2237 H2241 0.950 . S
H2238 C2234 0.950 . S
C2239 C2237 1.390 . S
C2239 C2240 1.387 . S
C2239 H2242 0.950 . S
C2240 C2239 1.387 . S
C2240 C2243 1.387 . S
H2241 C2237 0.950 . S
H2242 C2239 0.950 . S
C2243 C2234 1.390 . S
C2243 H2236 0.950 . S
C2243 C2240 1.387 . S
C2244 C2245 1.387 . S
C2244 H2248 0.950 . S
C2244 C2253 1.390 . S
C2245 C2244 1.387 . S
C2245 C2247 1.387 1_455 S
H2246 C2253 0.950 . S
C2247 C2245 1.387 1_655 S
C2247 C2249 1.390 . S
C2247 H2251 0.950 . S
H2248 C2244 0.950 . S
C2249 C2247 1.390 . S
C2249 C2250 1.387 . S
C2249 H2252 0.950 . S
C2250 C2249 1.387 . S
C2250 C2253 1.387 1_655 S
H2251 C2247 0.950 . S
H2252 C2249 0.950 . S
C2253 C2244 1.390 . S
C2253 H2246 0.950 . S
C2253 C2250 1.387 1_455 S
C2254 C2255 1.387 . S
C2254 H2258 0.950 . S
C2254 C2263 1.390 . S
C2255 C2254 1.387 . S
C2255 C2257 1.387 . S
H2256 C2263 0.950 . S
C2257 C2255 1.387 . S
C2257 C2259 1.390 . S
C2257 H2261 0.950 . S
H2258 C2254 0.950 . S
C2259 C2257 1.390 . S
C2259 C2260 1.387 . S
C2259 H2262 0.950 . S
C2260 C2259 1.387 . S
C2260 C2263 1.387 . S
H2261 C2257 0.950 . S
H2262 C2259 0.950 . S
C2263 C2254 1.390 . S
C2263 H2256 0.950 . S
C2263 C2260 1.387 . S
C2264 C2265 1.387 . S
C2264 H2268 0.950 . S
C2264 C2273 1.390 1_545 S
C2265 C2264 1.387 . S
C2265 C2267 1.387 . S
H2266 C2273 0.950 . S
C2267 C2265 1.387 . S
C2267 C2269 1.390 1_545 S
C2267 H2271 0.950 . S
H2268 C2264 0.950 . S
C2269 C2267 1.390 1_565 S
C2269 C2270 1.387 . S
C2269 H2272 0.950 . S
C2270 C2269 1.387 . S
C2270 C2273 1.387 . S
H2271 C2267 0.950 . S
H2272 C2269 0.950 . S
C2273 C2264 1.390 1_565 S
C2273 H2266 0.950 . S
C2273 C2270 1.387 . S
C2274 C2275 1.387 1_545 S
C2274 H2278 0.950 . S
C2274 C2283 1.390 . S
C2275 C2274 1.387 1_565 S
C2275 C2277 1.387 1_554 S
H2276 C2283 0.950 . S
C2277 C2275 1.387 1_556 S
C2277 C2279 1.390 . S
C2277 H2281 0.950 . S
H2278 C2274 0.950 . S
C2279 C2277 1.390 . S
C2279 C2280 1.387 1_565 S
C2279 H2282 0.950 . S
C2280 C2279 1.387 1_545 S
C2280 C2283 1.387 1_556 S
H2281 C2277 0.950 . S
H2282 C2279 0.950 . S
C2283 C2274 1.390 . S
C2283 H2276 0.950 . S
C2283 C2280 1.387 1_554 S
C2284 C2285 1.387 1_455 S
C2284 H2288 0.950 . S
C2284 C2293 1.390 1_556 S
C2285 C2284 1.387 1_655 S
C2285 C2287 1.387 . S
H2286 C2293 0.950 . S
C2287 C2285 1.387 . S
C2287 C2289 1.390 1_556 S
C2287 H2291 0.950 . S
H2288 C2284 0.950 . S
C2289 C2287 1.390 1_554 S
C2289 C2290 1.387 1_655 S
C2289 H2292 0.950 . S
C2290 C2289 1.387 1_455 S
C2290 C2293 1.387 . S
H2291 C2287 0.950 . S
H2292 C2289 0.950 . S
C2293 C2284 1.390 1_554 S
C2293 H2286 0.950 . S
C2293 C2290 1.387 . S
C2294 C2295 1.387 . S
C2294 H2298 0.950 . S
C2294 C2303 1.390 . S
C2295 C2294 1.387 . S
C2295 C2297 1.387 1_556 S
H2296 C2303 0.950 . S
C2297 C2295 1.387 1_554 S
C2297 C2299 1.390 . S
C2297 H2301 0.950 . S
H2298 C2294 0.950 . S
C2299 C2297 1.390 . S
C2299 C2300 1.387 . S
C2299 H2302 0.950 . S
C2300 C2299 1.387 . S
C2300 C2303 1.387 1_554 S
H2301 C2297 0.950 . S
H2302 C2299 0.950 . S
C2303 C2294 1.390 . S
C2303 H2296 0.950 . S
C2303 C2300 1.387 1_556 S
C2304 C2305 1.387 . S
C2304 H2308 0.950 . S
C2304 C2313 1.390 . S
C2305 C2304 1.387 . S
C2305 C2307 1.387 . S
H2306 C2313 0.950 . S
C2307 C2305 1.387 . S
C2307 C2309 1.390 . S
C2307 H2311 0.950 1_565 S
H2308 C2304 0.950 . S
C2309 C2307 1.390 . S
C2309 C2310 1.387 . S
C2309 H2312 0.950 . S
C2310 C2309 1.387 . S
C2310 C2313 1.387 . S
H2311 C2307 0.950 1_545 S
H2312 C2309 0.950 . S
C2313 C2304 1.390 . S
C2313 H2306 0.950 . S
C2313 C2310 1.387 . S
C2314 C2315 1.387 . S
C2314 H2318 0.950 . S
C2314 C2323 1.390 . S
C2315 C2314 1.387 . S
C2315 C2317 1.387 . S
H2316 C2323 0.950 1_655 S
C2317 C2315 1.387 . S
C2317 C2319 1.390 . S
C2317 H2321 0.950 . S
H2318 C2314 0.950 . S
C2319 C2317 1.390 . S
C2319 C2320 1.387 . S
C2319 H2322 0.950 . S
C2320 C2319 1.387 . S
C2320 C2323 1.387 . S
H2321 C2317 0.950 . S
H2322 C2319 0.950 . S
C2323 C2314 1.390 . S
C2323 H2316 0.950 1_455 S
C2323 C2320 1.387 . S
C2324 C2325 1.387 . S
C2324 H2328 0.950 . S
C2324 C2333 1.390 . S
C2325 C2324 1.387 . S
C2325 C2327 1.387 . S
H2326 C2333 0.950 . S
C2327 C2325 1.387 . S
C2327 C2329 1.390 . S
C2327 H2331 0.950 . S
H2328 C2324 0.950 . S
C2329 C2327 1.390 . S
C2329 C2330 1.387 . S
C2329 H2332 0.950 . S
C2330 C2329 1.387 . S
C2330 C2333 1.387 . S
H2331 C2327 0.950 . S
H2332 C2329 0.950 . S
C2333 C2324 1.390 . S
C2333 H2326 0.950 . S
C2333 C2330 1.387 . S
C2334 C2335 1.387 . S
C2334 H2338 0.950 . S
C2334 C2343 1.390 . S
C2335 C2334 1.387 . S
C2335 C2337 1.387 . S
H2336 C2343 0.950 . S
C2337 C2335 1.387 . S
C2337 C2339 1.390 . S
C2337 H2341 0.950 . S
H2338 C2334 0.950 . S
C2339 C2337 1.390 . S
C2339 C2340 1.387 . S
C2339 H2342 0.950 . S
C2340 C2339 1.387 . S
C2340 C2343 1.387 . S
H2341 C2337 0.950 . S
H2342 C2339 0.950 . S
C2343 C2334 1.390 . S
C2343 H2336 0.950 . S
C2343 C2340 1.387 . S
C2344 C2345 1.387 . S
C2344 H2348 0.950 . S
C2344 C2353 1.390 . S
C2345 C2344 1.387 . S
C2345 C2347 1.387 . S
H2346 C2353 0.950 . S
C2347 C2345 1.387 . S
C2347 C2349 1.390 . S
C2347 H2351 0.950 . S
H2348 C2344 0.950 . S
C2349 C2347 1.390 . S
C2349 C2350 1.387 . S
C2349 H2352 0.950 . S
C2350 C2349 1.387 . S
C2350 C2353 1.387 . S
H2351 C2347 0.950 . S
H2352 C2349 0.950 . S
C2353 C2344 1.390 . S
C2353 H2346 0.950 . S
C2353 C2350 1.387 . S
C2354 C2355 1.387 . S
C2354 H2358 0.950 . S
C2354 C2363 1.390 . S
C2355 C2354 1.387 . S
C2355 C2357 1.387 . S
H2356 C2363 0.950 . S
C2357 C2355 1.387 . S
C2357 C2359 1.390 . S
C2357 H2361 0.950 . S
H2358 C2354 0.950 . S
C2359 C2357 1.390 . S
C2359 C2360 1.387 . S
C2359 H2362 0.950 . S
C2360 C2359 1.387 . S
C2360 C2363 1.387 . S
H2361 C2357 0.950 . S
H2362 C2359 0.950 . S
C2363 C2354 1.390 . S
C2363 H2356 0.950 . S
C2363 C2360 1.387 . S
C2364 C2365 1.387 . S
C2364 H2368 0.950 1_545 S
C2364 C2373 1.390 . S
C2365 C2364 1.387 . S
C2365 C2367 1.387 . S
H2366 C2373 0.950 . S
C2367 C2365 1.387 . S
C2367 C2369 1.390 . S
C2367 H2371 0.950 . S
H2368 C2364 0.950 1_565 S
C2369 C2367 1.390 . S
C2369 C2370 1.387 . S
C2369 H2372 0.950 . S
C2370 C2369 1.387 . S
C2370 C2373 1.387 . S
H2371 C2367 0.950 . S
H2372 C2369 0.950 . S
C2373 C2364 1.390 . S
C2373 H2366 0.950 . S
C2373 C2370 1.387 . S
C2374 C2375 1.387 . S
C2374 H2378 0.950 . S
C2374 C2383 1.390 . S
C2375 C2374 1.387 . S
C2375 C2377 1.387 . S
H2376 C2383 0.950 . S
C2377 C2375 1.387 . S
C2377 C2379 1.390 . S
C2377 H2381 0.950 . S
H2378 C2374 0.950 . S
C2379 C2377 1.390 . S
C2379 C2380 1.387 . S
C2379 H2382 0.950 1_655 S
C2380 C2379 1.387 . S
C2380 C2383 1.387 . S
H2381 C2377 0.950 . S
H2382 C2379 0.950 1_455 S
C2383 C2374 1.390 . S
C2383 H2376 0.950 . S
C2383 C2380 1.387 . S
C2384 C2385 1.387 . S
C2384 H2388 0.950 . S
C2384 C2393 1.390 . S
C2385 C2384 1.387 . S
C2385 C2387 1.387 . S
H2386 C2393 0.950 . S
C2387 C2385 1.387 . S
C2387 C2389 1.390 . S
C2387 H2391 0.950 . S
H2388 C2384 0.950 . S
C2389 C2387 1.390 . S
C2389 C2390 1.387 . S
C2389 H2392 0.950 . S
C2390 C2389 1.387 . S
C2390 C2393 1.387 . S
H2391 C2387 0.950 . S
H2392 C2389 0.950 . S
C2393 C2384 1.390 . S
C2393 H2386 0.950 . S
C2393 C2390 1.387 . S
C2394 C2395 1.387 . S
C2394 H2398 0.950 . S
C2394 C2403 1.390 . S
C2395 C2394 1.387 . S
C2395 C2397 1.387 . S
H2396 C2403 0.950 . S
C2397 C2395 1.387 . S
C2397 C2399 1.390 . S
C2397 H2401 0.950 . S
H2398 C2394 0.950 . S
C2399 C2397 1.390 . S
C2399 C2400 1.387 . S
C2399 H2402 0.950 . S
C2400 C2399 1.387 . S
C2400 C2403 1.387 . S
H2401 C2397 0.950 . S
H2402 C2399 0.950 . S
C2403 C2394 1.390 . S
C2403 H2396 0.950 . S
C2403 C2400 1.387 . S
C2404 C2405 1.387 . S
C2404 H2408 0.950 . S
C2404 C2413 1.390 . S
C2405 C2404 1.387 . S
C2405 C2407 1.387 . S
H2406 C2413 0.950 . S
C2407 C2405 1.387 . S
C2407 C2409 1.390 . S
C2407 H2411 0.950 . S
H2408 C2404 0.950 . S
C2409 C2407 1.390 . S
C2409 C2410 1.387 . S
C2409 H2412 0.950 . S
C2410 C2409 1.387 . S
C2410 C2413 1.387 . S
H2411 C2407 0.950 . S
H2412 C2409 0.950 . S
C2413 C2404 1.390 . S
C2413 H2406 0.950 . S
C2413 C2410 1.387 . S
C2414 C2415 1.387 . S
C2414 H2418 0.950 1_565 S
C2414 C2423 1.390 . S
C2415 C2414 1.387 . S
C2415 C2417 1.387 . S
H2416 C2423 0.950 . S
C2417 C2415 1.387 . S
C2417 C2419 1.390 . S
C2417 H2421 0.950 . S
H2418 C2414 0.950 1_545 S
C2419 C2417 1.390 . S
C2419 C2420 1.387 . S
C2419 H2422 0.950 . S
C2420 C2419 1.387 . S
C2420 C2423 1.387 . S
H2421 C2417 0.950 . S
H2422 C2419 0.950 . S
C2423 C2414 1.390 . S
C2423 H2416 0.950 . S
C2423 C2420 1.387 . S
C2424 C2425 1.387 . S
C2424 H2428 0.950 . S
C2424 C2433 1.390 . S
C2425 C2424 1.387 . S
C2425 C2427 1.387 . S
H2426 C2433 0.950 . S
C2427 C2425 1.387 . S
C2427 C2429 1.390 . S
C2427 H2431 0.950 . S
H2428 C2424 0.950 . S
C2429 C2427 1.390 . S
C2429 C2430 1.387 . S
C2429 H2432 0.950 . S
C2430 C2429 1.387 . S
C2430 C2433 1.387 . S
H2431 C2427 0.950 . S
H2432 C2429 0.950 . S
C2433 C2424 1.390 . S
C2433 H2426 0.950 . S
C2433 C2430 1.387 . S
C2434 C2435 1.387 . S
C2434 H2438 0.950 . S
C2434 C2443 1.390 1_545 S
C2435 C2434 1.387 . S
C2435 C2437 1.387 . S
H2436 C2443 0.950 . S
C2437 C2435 1.387 . S
C2437 C2439 1.390 1_545 S
C2437 H2441 0.950 . S
H2438 C2434 0.950 . S
C2439 C2437 1.390 1_565 S
C2439 C2440 1.387 . S
C2439 H2442 0.950 . S
C2440 C2439 1.387 . S
C2440 C2443 1.387 . S
H2441 C2437 0.950 . S
H2442 C2439 0.950 . S
C2443 C2434 1.390 1_565 S
C2443 H2436 0.950 . S
C2443 C2440 1.387 . S
C2444 C2445 1.387 . S
C2444 H2448 0.950 . S
C2444 C2453 1.390 1_655 S
C2445 C2444 1.387 . S
C2445 C2447 1.387 . S
H2446 C2453 0.950 . S
C2447 C2445 1.387 . S
C2447 C2449 1.390 1_655 S
C2447 H2451 0.950 . S
H2448 C2444 0.950 . S
C2449 C2447 1.390 1_455 S
C2449 C2450 1.387 . S
C2449 H2452 0.950 . S
C2450 C2449 1.387 . S
C2450 C2453 1.387 . S
H2451 C2447 0.950 . S
H2452 C2449 0.950 . S
C2453 C2444 1.390 1_455 S
C2453 H2446 0.950 . S
C2453 C2450 1.387 . S
C2454 C2455 1.387 . S
C2454 H2458 0.950 . S
C2454 C2463 1.390 . S
C2455 C2454 1.387 . S
C2455 C2457 1.387 . S
H2456 C2463 0.950 . S
C2457 C2455 1.387 . S
C2457 C2459 1.390 . S
C2457 H2461 0.950 . S
H2458 C2454 0.950 . S
C2459 C2457 1.390 . S
C2459 C2460 1.387 . S
C2459 H2462 0.950 . S
C2460 C2459 1.387 . S
C2460 C2463 1.387 . S
H2461 C2457 0.950 . S
H2462 C2459 0.950 . S
C2463 C2454 1.390 . S
C2463 H2456 0.950 . S
C2463 C2460 1.387 . S
C2464 C2465 1.387 . S
C2464 H2468 0.950 . S
C2464 C2473 1.390 1_565 S
C2465 C2464 1.387 . S
C2465 C2467 1.387 . S
H2466 C2473 0.950 . S
C2467 C2465 1.387 . S
C2467 C2469 1.390 1_565 S
C2467 H2471 0.950 . S
H2468 C2464 0.950 . S
C2469 C2467 1.390 1_545 S
C2469 C2470 1.387 . S
C2469 H2472 0.950 . S
C2470 C2469 1.387 . S
C2470 C2473 1.387 . S
H2471 C2467 0.950 . S
H2472 C2469 0.950 . S
C2473 C2464 1.390 1_545 S
C2473 H2466 0.950 . S
C2473 C2470 1.387 . S
C2474 C2475 1.387 . S
C2474 H2478 0.950 . S
C2474 C2483 1.390 1_655 S
C2475 C2474 1.387 . S
C2475 C2477 1.387 . S
H2476 C2483 0.950 . S
C2477 C2475 1.387 . S
C2477 C2479 1.390 1_655 S
C2477 H2481 0.950 . S
H2478 C2474 0.950 . S
C2479 C2477 1.390 1_455 S
C2479 C2480 1.387 . S
C2479 H2482 0.950 . S
C2480 C2479 1.387 . S
C2480 C2483 1.387 . S
H2481 C2477 0.950 . S
H2482 C2479 0.950 . S
C2483 C2474 1.390 1_455 S
C2483 H2476 0.950 . S
C2483 C2480 1.387 . S
C2484 C2485 1.387 . S
C2484 H2488 0.950 . S
C2484 C2493 1.390 . S
C2485 C2484 1.387 . S
C2485 C2487 1.387 . S
H2486 C2493 0.950 . S
C2487 C2485 1.387 . S
C2487 C2489 1.390 . S
C2487 H2491 0.950 . S
H2488 C2484 0.950 . S
C2489 C2487 1.390 . S
C2489 C2490 1.387 . S
C2489 H2492 0.950 . S
C2490 C2489 1.387 . S
C2490 C2493 1.387 . S
H2491 C2487 0.950 . S
H2492 C2489 0.950 . S
C2493 C2484 1.390 . S
C2493 H2486 0.950 . S
C2493 C2490 1.387 . S
C2494 C2495 1.387 . S
C2494 H2498 0.950 . S
C2494 C2503 1.390 1_545 S
C2495 C2494 1.387 . S
C2495 C2497 1.387 1_545 S
H2496 C2503 0.950 . S
C2497 C2495 1.387 1_565 S
C2497 C2499 1.390 . S
C2497 H2501 0.950 1_565 S
H2498 C2494 0.950 . S
C2499 C2497 1.390 . S
C2499 C2500 1.387 . S
C2499 H2502 0.950 . S
C2500 C2499 1.387 . S
C2500 C2503 1.387 . S
H2501 C2497 0.950 1_545 S
H2502 C2499 0.950 . S
C2503 C2494 1.390 1_565 S
C2503 H2496 0.950 . S
C2503 C2500 1.387 . S
C2504 C2505 1.387 . S
C2504 H2508 0.950 . S
C2504 C2513 1.390 1_655 S
C2505 C2504 1.387 . S
C2505 C2507 1.387 1_655 S
H2506 C2513 0.950 . S
C2507 C2505 1.387 1_455 S
C2507 C2509 1.390 . S
C2507 H2511 0.950 1_455 S
H2508 C2504 0.950 . S
C2509 C2507 1.390 . S
C2509 C2510 1.387 . S
C2509 H2512 0.950 . S
C2510 C2509 1.387 . S
C2510 C2513 1.387 . S
H2511 C2507 0.950 1_655 S
H2512 C2509 0.950 . S
C2513 C2504 1.390 1_455 S
C2513 H2506 0.950 . S
C2513 C2510 1.387 . S
C2514 C2515 1.387 . S
C2514 H2518 0.950 . S
C2514 C2523 1.390 . S
C2515 C2514 1.387 . S
C2515 C2517 1.387 . S
H2516 C2523 0.950 . S
C2517 C2515 1.387 . S
C2517 C2519 1.390 . S
C2517 H2521 0.950 . S
H2518 C2514 0.950 . S
C2519 C2517 1.390 . S
C2519 C2520 1.387 . S
C2519 H2522 0.950 . S
C2520 C2519 1.387 . S
C2520 C2523 1.387 . S
H2521 C2517 0.950 . S
H2522 C2519 0.950 . S
C2523 C2514 1.390 . S
C2523 H2516 0.950 . S
C2523 C2520 1.387 . S
C2524 C2525 1.387 . S
C2524 H2528 0.950 . S
C2524 C2533 1.390 . S
C2525 C2524 1.387 . S
C2525 C2527 1.387 . S
H2526 C2533 0.950 1_565 S
C2527 C2525 1.387 . S
C2527 C2529 1.390 1_545 S
C2527 H2531 0.950 . S
H2528 C2524 0.950 . S
C2529 C2527 1.390 1_565 S
C2529 C2530 1.387 . S
C2529 H2532 0.950 . S
C2530 C2529 1.387 . S
C2530 C2533 1.387 1_565 S
H2531 C2527 0.950 . S
H2532 C2529 0.950 . S
C2533 C2524 1.390 . S
C2533 H2526 0.950 1_545 S
C2533 C2530 1.387 1_545 S
C2534 C2535 1.387 . S
C2534 H2538 0.950 . S
C2534 C2543 1.390 1_455 S
C2535 C2534 1.387 . S
C2535 C2537 1.387 1_455 S
H2536 C2543 0.950 . S
C2537 C2535 1.387 1_655 S
C2537 C2539 1.390 . S
C2537 H2541 0.950 1_655 S
H2538 C2534 0.950 . S
C2539 C2537 1.390 . S
C2539 C2540 1.387 . S
C2539 H2542 0.950 . S
C2540 C2539 1.387 . S
C2540 C2543 1.387 . S
H2541 C2537 0.950 1_455 S
H2542 C2539 0.950 . S
C2543 C2534 1.390 1_655 S
C2543 H2536 0.950 . S
C2543 C2540 1.387 . S
C2544 C2545 1.387 . S
C2544 H2548 0.950 . S
C2544 C2553 1.390 . S
C2545 C2544 1.387 . S
C2545 C2547 1.387 . S
H2546 C2553 0.950 . S
C2547 C2545 1.387 . S
C2547 C2549 1.390 . S
C2547 H2551 0.950 . S
H2548 C2544 0.950 . S
C2549 C2547 1.390 . S
C2549 C2550 1.387 . S
C2549 H2552 0.950 . S
C2550 C2549 1.387 . S
C2550 C2553 1.387 . S
H2551 C2547 0.950 . S
H2552 C2549 0.950 . S
C2553 C2544 1.390 . S
C2553 H2546 0.950 . S
C2553 C2550 1.387 . S
C2554 C2555 1.387 1_545 S
C2554 H2558 0.950 1_545 S
C2554 C2563 1.390 . S
C2555 C2554 1.387 1_565 S
C2555 C2557 1.387 . S
H2556 C2563 0.950 . S
C2557 C2555 1.387 . S
C2557 C2559 1.390 1_565 S
C2557 H2561 0.950 . S
H2558 C2554 0.950 1_565 S
C2559 C2557 1.390 1_545 S
C2559 C2560 1.387 . S
C2559 H2562 0.950 . S
C2560 C2559 1.387 . S
C2560 C2563 1.387 . S
H2561 C2557 0.950 . S
H2562 C2559 0.950 . S
C2563 C2554 1.390 . S
C2563 H2556 0.950 . S
C2563 C2560 1.387 . S
C2564 C2565 1.387 1_655 S
C2564 H2568 0.950 1_655 S
C2564 C2573 1.390 . S
C2565 C2564 1.387 1_455 S
C2565 C2567 1.403 . S
H2566 C2573 0.950 . S
C2567 C2565 1.403 . S
C2567 C2569 1.368 1_455 S
C2567 H2571 0.958 . S
H2568 C2564 0.950 1_455 S
C2569 C2567 1.368 1_655 S
C2569 C2570 1.387 . S
C2569 H2572 0.950 . S
C2570 C2569 1.387 . S
C2570 C2573 1.387 . S
H2571 C2567 0.958 . S
H2572 C2569 0.950 . S
C2573 C2564 1.390 . S
C2573 H2566 0.950 . S
C2573 C2570 1.387 . S
C2574 C2575 1.387 . S
C2574 H2578 0.950 . S
C2574 C2583 1.390 . S
C2575 C2574 1.387 . S
C2575 C2577 1.387 . S
H2576 C2583 0.950 . S
C2577 C2575 1.387 . S
C2577 C2579 1.390 . S
C2577 H2581 0.950 . S
H2578 C2574 0.950 . S
C2579 C2577 1.390 . S
C2579 C2580 1.387 . S
C2579 H2582 0.950 . S
C2580 C2579 1.387 . S
C2580 C2583 1.387 . S
H2581 C2577 0.950 . S
H2582 C2579 0.950 . S
C2583 C2574 1.390 . S
C2583 H2576 0.950 . S
C2583 C2580 1.387 . S
C2584 C2585 1.387 1_565 S
C2584 H2588 0.950 1_565 S
C2584 C2593 1.390 . S
C2585 C2584 1.387 1_545 S
C2585 C2587 1.387 . S
H2586 C2593 0.950 . S
C2587 C2585 1.387 . S
C2587 C2589 1.390 1_545 S
C2587 H2591 0.950 . S
H2588 C2584 0.950 1_545 S
C2589 C2587 1.390 1_565 S
C2589 C2590 1.387 . S
C2589 H2592 0.950 . S
C2590 C2589 1.387 . S
C2590 C2593 1.387 . S
H2591 C2587 0.950 . S
H2592 C2589 0.950 . S
C2593 C2584 1.390 . S
C2593 H2586 0.950 . S
C2593 C2590 1.387 . S
C2594 C2595 1.387 . S
C2594 H2598 0.950 . S
C2594 C2603 1.390 1_455 S
C2595 C2594 1.387 . S
C2595 C2597 1.387 . S
H2596 C2603 0.950 . S
C2597 C2595 1.387 . S
C2597 C2599 1.390 . S
C2597 H2601 0.950 . S
H2598 C2594 0.950 . S
C2599 C2597 1.390 . S
C2599 C2600 1.387 1_455 S
C2599 H2602 0.950 1_455 S
C2600 C2599 1.387 1_655 S
C2600 C2603 1.387 . S
H2601 C2597 0.950 . S
H2602 C2599 0.950 1_655 S
C2603 C2594 1.390 1_655 S
C2603 H2596 0.950 . S
C2603 C2600 1.387 . S
C2604 C2605 1.387 . S
C2604 H2608 0.950 . S
C2604 C2613 1.390 . S
C2605 C2604 1.387 . S
C2605 C2607 1.387 . S
H2606 C2613 0.950 . S
C2607 C2605 1.387 . S
C2607 C2609 1.390 . S
C2607 H2611 0.950 . S
H2608 C2604 0.950 . S
C2609 C2607 1.390 . S
C2609 C2610 1.387 . S
C2609 H2612 0.950 . S
C2610 C2609 1.387 . S
C2610 C2613 1.387 . S
H2611 C2607 0.950 . S
H2612 C2609 0.950 . S
C2613 C2604 1.390 . S
C2613 H2606 0.950 . S
C2613 C2610 1.387 . S
C2614 C2615 1.387 . S
C2614 H2618 0.950 . S
C2614 C2623 1.390 . S
C2615 C2614 1.387 . S
C2615 C2617 1.387 . S
H2616 C2623 0.950 . S
C2617 C2615 1.387 . S
C2617 C2619 1.390 . S
C2617 H2621 0.950 . S
H2618 C2614 0.950 . S
C2619 C2617 1.390 . S
C2619 C2620 1.387 . S
C2619 H2622 0.950 . S
C2620 C2619 1.387 . S
C2620 C2623 1.387 . S
H2621 C2617 0.950 . S
H2622 C2619 0.950 . S
C2623 C2614 1.390 . S
C2623 H2616 0.950 . S
C2623 C2620 1.387 . S
C2624 C2625 1.387 . S
C2624 H2628 0.950 . S
C2624 C2633 1.390 . S
C2625 C2624 1.387 . S
C2625 C2627 1.387 . S
H2626 C2633 0.950 . S
C2627 C2625 1.387 . S
C2627 C2629 1.390 . S
C2627 H2631 0.950 . S
H2628 C2624 0.950 . S
C2629 C2627 1.390 . S
C2629 C2630 1.387 . S
C2629 H2632 0.950 . S
C2630 C2629 1.387 . S
C2630 C2633 1.387 . S
H2631 C2627 0.950 . S
H2632 C2629 0.950 . S
C2633 C2624 1.390 . S
C2633 H2626 0.950 . S
C2633 C2630 1.387 . S
C2634 C2635 1.387 . S
C2634 H2638 0.950 . S
C2634 C2643 1.390 . S
C2635 C2634 1.387 . S
C2635 C2637 1.387 . S
H2636 C2643 0.950 . S
C2637 C2635 1.387 . S
C2637 C2639 1.390 . S
C2637 H2641 0.950 . S
H2638 C2634 0.950 . S
C2639 C2637 1.390 . S
C2639 C2640 1.387 . S
C2639 H2642 0.950 . S
C2640 C2639 1.387 . S
C2640 C2643 1.387 . S
H2641 C2637 0.950 . S
H2642 C2639 0.950 . S
C2643 C2634 1.390 . S
C2643 H2636 0.950 . S
C2643 C2640 1.387 . S
C2644 C2645 1.387 . S
C2644 H2648 0.950 . S
C2644 C2653 1.390 . S
C2645 C2644 1.387 . S
C2645 C2647 1.387 . S
H2646 C2653 0.950 . S
C2647 C2645 1.387 . S
C2647 C2649 1.390 . S
C2647 H2651 0.950 . S
H2648 C2644 0.950 . S
C2649 C2647 1.390 . S
C2649 C2650 1.387 . S
C2649 H2652 0.950 . S
C2650 C2649 1.387 . S
C2650 C2653 1.387 . S
H2651 C2647 0.950 . S
H2652 C2649 0.950 . S
C2653 C2644 1.390 . S
C2653 H2646 0.950 . S
C2653 C2650 1.387 . S
C2654 C2655 1.387 . S
C2654 H2658 0.950 . S
C2654 C2663 1.390 . S
C2655 C2654 1.387 . S
C2655 C2657 1.387 . S
H2656 C2663 0.950 . S
C2657 C2655 1.387 . S
C2657 C2659 1.390 . S
C2657 H2661 0.950 . S
H2658 C2654 0.950 . S
C2659 C2657 1.390 . S
C2659 C2660 1.387 . S
C2659 H2662 0.950 . S
C2660 C2659 1.387 . S
C2660 C2663 1.387 . S
H2661 C2657 0.950 . S
H2662 C2659 0.950 . S
C2663 C2654 1.390 . S
C2663 H2656 0.950 . S
C2663 C2660 1.387 . S
C2664 C2665 1.387 . S
C2664 H2668 0.950 . S
C2664 C2673 1.390 . S
C2665 C2664 1.387 . S
C2665 C2667 1.387 . S
H2666 C2673 0.950 . S
C2667 C2665 1.387 . S
C2667 C2669 1.390 . S
C2667 H2671 0.950 . S
H2668 C2664 0.950 . S
C2669 C2667 1.390 . S
C2669 C2670 1.387 . S
C2669 H2672 0.950 . S
C2670 C2669 1.387 . S
C2670 C2673 1.387 . S
H2671 C2667 0.950 . S
H2672 C2669 0.950 . S
C2673 C2664 1.390 . S
C2673 H2666 0.950 . S
C2673 C2670 1.387 . S
C2674 C2675 1.387 . S
C2674 H2678 0.950 . S
C2674 C2683 1.390 . S
C2675 C2674 1.387 . S
C2675 C2677 1.387 . S
H2676 C2683 0.950 . S
C2677 C2675 1.387 . S
C2677 C2679 1.390 . S
C2677 H2681 0.950 . S
H2678 C2674 0.950 . S
C2679 C2677 1.390 . S
C2679 C2680 1.387 . S
C2679 H2682 0.950 . S
C2680 C2679 1.387 . S
C2680 C2683 1.387 . S
H2681 C2677 0.950 . S
H2682 C2679 0.950 . S
C2683 C2674 1.390 . S
C2683 H2676 0.950 . S
C2683 C2680 1.387 . S
C2684 C2685 1.387 . S
C2684 H2688 0.950 . S
C2684 C2693 1.390 . S
C2685 C2684 1.387 . S
C2685 C2687 1.387 . S
H2686 C2693 0.950 . S
C2687 C2685 1.387 . S
C2687 C2689 1.390 . S
C2687 H2691 0.950 . S
H2688 C2684 0.950 . S
C2689 C2687 1.390 . S
C2689 C2690 1.387 . S
C2689 H2692 0.950 . S
C2690 C2689 1.387 . S
C2690 C2693 1.387 . S
H2691 C2687 0.950 . S
H2692 C2689 0.950 . S
C2693 C2684 1.390 . S
C2693 H2686 0.950 . S
C2693 C2690 1.387 . S
C2694 C2695 1.387 . S
C2694 H2698 0.950 . S
C2694 C2703 1.390 . S
C2695 C2694 1.387 . S
C2695 C2697 1.387 . S
H2696 C2703 0.950 . S
C2697 C2695 1.387 . S
C2697 C2699 1.390 . S
C2697 H2701 0.950 . S
H2698 C2694 0.950 . S
C2699 C2697 1.390 . S
C2699 C2700 1.387 . S
C2699 H2702 0.950 . S
C2700 C2699 1.387 . S
C2700 C2703 1.387 . S
H2701 C2697 0.950 . S
H2702 C2699 0.950 . S
C2703 C2694 1.390 . S
C2703 H2696 0.950 . S
C2703 C2700 1.387 . S
C2704 C2705 1.387 . S
C2704 H2708 0.950 . S
C2704 C2713 1.390 . S
C2705 C2704 1.387 . S
C2705 C2707 1.387 . S
H2706 C2713 0.950 . S
C2707 C2705 1.387 . S
C2707 C2709 1.390 . S
C2707 H2711 0.950 . S
H2708 C2704 0.950 . S
C2709 C2707 1.390 . S
C2709 C2710 1.387 . S
C2709 H2712 0.950 . S
C2710 C2709 1.387 . S
C2710 C2713 1.387 . S
H2711 C2707 0.950 . S
H2712 C2709 0.950 . S
C2713 C2704 1.390 . S
C2713 H2706 0.950 . S
C2713 C2710 1.387 . S
C2714 C2715 1.387 . S
C2714 H2718 0.950 . S
C2714 C2723 1.390 . S
C2715 C2714 1.387 . S
C2715 C2717 1.387 . S
H2716 C2723 0.950 . S
C2717 C2715 1.387 . S
C2717 C2719 1.390 . S
C2717 H2721 0.950 . S
H2718 C2714 0.950 . S
C2719 C2717 1.390 . S
C2719 C2720 1.387 . S
C2719 H2722 0.950 . S
C2720 C2719 1.387 . S
C2720 C2723 1.387 . S
H2721 C2717 0.950 . S
H2722 C2719 0.950 . S
C2723 C2714 1.390 . S
C2723 H2716 0.950 . S
C2723 C2720 1.387 . S
C2724 C2725 1.387 . S
C2724 H2728 0.950 . S
C2724 C2733 1.390 . S
C2725 C2724 1.387 . S
C2725 C2727 1.387 . S
H2726 C2733 0.950 . S
C2727 C2725 1.387 . S
C2727 C2729 1.390 . S
C2727 H2731 0.950 . S
H2728 C2724 0.950 . S
C2729 C2727 1.390 . S
C2729 C2730 1.387 . S
C2729 H2732 0.950 . S
C2730 C2729 1.387 . S
C2730 C2733 1.387 . S
H2731 C2727 0.950 . S
H2732 C2729 0.950 . S
C2733 C2724 1.390 . S
C2733 H2726 0.950 . S
C2733 C2730 1.387 . S
C2734 C2735 1.387 . S
C2734 H2738 0.950 . S
C2734 C2743 1.390 . S
C2735 C2734 1.387 . S
C2735 C2737 1.387 . S
H2736 C2743 0.950 . S
C2737 C2735 1.387 . S
C2737 C2739 1.390 . S
C2737 H2741 0.950 . S
H2738 C2734 0.950 . S
C2739 C2737 1.390 . S
C2739 C2740 1.387 . S
C2739 H2742 0.950 . S
C2740 C2739 1.387 . S
C2740 C2743 1.387 . S
H2741 C2737 0.950 . S
H2742 C2739 0.950 . S
C2743 C2734 1.390 . S
C2743 H2736 0.950 . S
C2743 C2740 1.387 . S
C2744 C2745 1.387 . S
C2744 H2748 0.950 . S
C2744 C2753 1.390 . S
C2745 C2744 1.387 . S
C2745 C2747 1.387 . S
H2746 C2753 0.950 . S
C2747 C2745 1.387 . S
C2747 C2749 1.390 . S
C2747 H2751 0.950 . S
H2748 C2744 0.950 . S
C2749 C2747 1.390 . S
C2749 C2750 1.387 . S
C2749 H2752 0.950 . S
C2750 C2749 1.387 . S
C2750 C2753 1.387 . S
H2751 C2747 0.950 . S
H2752 C2749 0.950 . S
C2753 C2744 1.390 . S
C2753 H2746 0.950 . S
C2753 C2750 1.387 . S
C2754 C2755 1.387 . S
C2754 H2758 0.950 . S
C2754 C2763 1.390 . S
C2755 C2754 1.387 . S
C2755 C2757 1.387 . S
H2756 C2763 0.950 . S
C2757 C2755 1.387 . S
C2757 C2759 1.390 . S
C2757 H2761 0.950 . S
H2758 C2754 0.950 . S
C2759 C2757 1.390 . S
C2759 C2760 1.387 . S
C2759 H2762 0.950 . S
C2760 C2759 1.387 . S
C2760 C2763 1.387 . S
H2761 C2757 0.950 . S
H2762 C2759 0.950 . S
C2763 C2754 1.390 . S
C2763 H2756 0.950 . S
C2763 C2760 1.387 . S
C2764 C2765 1.387 . S
C2764 H2768 0.950 . S
C2764 C2773 1.390 . S
C2765 C2764 1.387 . S
C2765 C2767 1.387 . S
H2766 C2773 0.950 . S
C2767 C2765 1.387 . S
C2767 C2769 1.390 . S
C2767 H2771 0.950 . S
H2768 C2764 0.950 . S
C2769 C2767 1.390 . S
C2769 C2770 1.387 . S
C2769 H2772 0.950 . S
C2770 C2769 1.387 . S
C2770 C2773 1.387 . S
H2771 C2767 0.950 . S
H2772 C2769 0.950 . S
C2773 C2764 1.390 . S
C2773 H2766 0.950 . S
C2773 C2770 1.387 . S
C2774 C2775 1.387 . S
C2774 H2778 0.950 . S
C2774 C2783 1.390 . S
C2775 C2774 1.387 . S
C2775 C2777 1.387 . S
H2776 C2783 0.950 . S
C2777 C2775 1.387 . S
C2777 C2779 1.390 . S
C2777 H2781 0.950 . S
H2778 C2774 0.950 . S
C2779 C2777 1.390 . S
C2779 C2780 1.387 . S
C2779 H2782 0.950 . S
C2780 C2779 1.387 . S
C2780 C2783 1.387 . S
H2781 C2777 0.950 . S
H2782 C2779 0.950 . S
C2783 C2774 1.390 . S
C2783 H2776 0.950 . S
C2783 C2780 1.387 . S
C2784 C2785 1.387 . S
C2784 H2788 0.950 . S
C2784 C2793 1.390 . S
C2785 C2784 1.387 . S
C2785 C2787 1.387 . S
H2786 C2793 0.950 . S
C2787 C2785 1.387 . S
C2787 C2789 1.390 . S
C2787 H2791 0.950 . S
H2788 C2784 0.950 . S
C2789 C2787 1.390 . S
C2789 C2790 1.387 . S
C2789 H2792 0.950 . S
C2790 C2789 1.387 . S
C2790 C2793 1.387 . S
H2791 C2787 0.950 . S
H2792 C2789 0.950 . S
C2793 C2784 1.390 . S
C2793 H2786 0.950 . S
C2793 C2790 1.387 . S
C2794 C2795 1.387 . S
C2794 H2798 0.950 . S
C2794 C2803 1.390 . S
C2795 C2794 1.387 . S
C2795 C2797 1.387 . S
H2796 C2803 0.950 . S
C2797 C2795 1.387 . S
C2797 C2799 1.390 . S
C2797 H2801 0.950 . S
H2798 C2794 0.950 . S
C2799 C2797 1.390 . S
C2799 C2800 1.387 . S
C2799 H2802 0.950 . S
C2800 C2799 1.387 . S
C2800 C2803 1.387 . S
H2801 C2797 0.950 . S
H2802 C2799 0.950 . S
C2803 C2794 1.390 . S
C2803 H2796 0.950 . S
C2803 C2800 1.387 . S
C2804 C2805 1.387 . S
C2804 H2808 0.950 . S
C2804 C2813 1.390 . S
C2805 C2804 1.387 . S
C2805 C2807 1.387 . S
H2806 C2813 0.950 . S
C2807 C2805 1.387 . S
C2807 C2809 1.390 . S
C2807 H2811 0.950 . S
H2808 C2804 0.950 . S
C2809 C2807 1.390 . S
C2809 C2810 1.387 . S
C2809 H2812 0.950 . S
C2810 C2809 1.387 . S
C2810 C2813 1.387 . S
H2811 C2807 0.950 . S
H2812 C2809 0.950 . S
C2813 C2804 1.390 . S
C2813 H2806 0.950 . S
C2813 C2810 1.387 . S
C2814 C2815 1.387 . S
C2814 H2818 0.950 . S
C2814 C2823 1.390 . S
C2815 C2814 1.387 . S
C2815 C2817 1.387 . S
H2816 C2823 0.950 . S
C2817 C2815 1.387 . S
C2817 C2819 1.390 . S
C2817 H2821 0.950 . S
H2818 C2814 0.950 . S
C2819 C2817 1.390 . S
C2819 C2820 1.387 . S
C2819 H2822 0.950 . S
C2820 C2819 1.387 . S
C2820 C2823 1.387 . S
H2821 C2817 0.950 . S
H2822 C2819 0.950 . S
C2823 C2814 1.390 . S
C2823 H2816 0.950 . S
C2823 C2820 1.387 . S
C2824 C2825 1.387 . S
C2824 H2828 0.950 . S
C2824 C2833 1.390 . S
C2825 C2824 1.387 . S
C2825 C2827 1.387 . S
H2826 C2833 0.950 . S
C2827 C2825 1.387 . S
C2827 C2829 1.390 . S
C2827 H2831 0.950 . S
H2828 C2824 0.950 . S
C2829 C2827 1.390 . S
C2829 C2830 1.387 . S
C2829 H2832 0.950 . S
C2830 C2829 1.387 . S
C2830 C2833 1.387 . S
H2831 C2827 0.950 . S
H2832 C2829 0.950 . S
C2833 C2824 1.390 . S
C2833 H2826 0.950 . S
C2833 C2830 1.387 . S
C2834 C2835 1.387 . S
C2834 H2838 0.950 . S
C2834 C2843 1.390 . S
C2835 C2834 1.387 . S
C2835 C2837 1.387 . S
H2836 C2843 0.950 . S
C2837 C2835 1.387 . S
C2837 C2839 1.390 . S
C2837 H2841 0.950 . S
H2838 C2834 0.950 . S
C2839 C2837 1.390 . S
C2839 C2840 1.387 . S
C2839 H2842 0.950 . S
C2840 C2839 1.387 . S
C2840 C2843 1.387 . S
H2841 C2837 0.950 . S
H2842 C2839 0.950 . S
C2843 C2834 1.390 . S
C2843 H2836 0.950 . S
C2843 C2840 1.387 . S
C2125 C3 1.465 . S
C2130 C1065 1.465 . S
C2135 C1124 1.464 . S
C2140 C62 1.464 . S
C2145 C1183 1.463 . S
C2150 C121 1.463 . S
C2155 C180 1.464 . S
C2160 C1950 1.464 . S
C2165 C239 1.465 . S
C2170 C2009 1.465 . S
C2175 C298 1.465 . S
C2180 C2068 1.465 . S
C2185 C1419 1.463 . S
C2190 C357 1.463 . S
C2195 C416 1.464 . S
C2200 C1478 1.464 . S
C2205 C475 1.464 . S
C2210 C1537 1.464 . S
C2215 C888 1.463 . S
C2220 C534 1.463 . S
C2225 C947 1.464 . S
C2230 C593 1.464 . S
C2235 C1006 1.463 . S
C2240 C652 1.463 . S
C2245 C1773 1.465 . S
C2250 C711 1.465 . S
C2255 C1832 1.465 . S
C2260 C770 1.465 . S
C2265 C829 1.465 . S
C2270 C1891 1.465 . S
C2275 C1596 1.466 . S
C2280 C1242 1.466 . S
C2285 C1301 1.464 . S
C2290 C1655 1.464 . S
C2295 C1360 1.464 . S
C2300 C1714 1.464 . S
C2305 C5 1.485 . S
C2310 C1598 1.484 . S
C2315 C1657 1.485 . S
C2320 C64 1.485 . S
C2325 C1716 1.484 . S
C2330 C123 1.484 . S
C2335 C713 1.485 . S
C2340 C182 1.484 . S
C2345 C772 1.484 . S
C2350 C241 1.484 . S
C2355 C831 1.484 . S
C2360 C300 1.485 . S
C2365 C359 1.484 . S
C2370 C1244 1.484 . S
C2375 C1303 1.485 . S
C2380 C418 1.485 . S
C2385 C1362 1.484 . S
C2390 C477 1.485 . S
C2395 C536 1.484 . S
C2400 C1775 1.485 . S
C2405 C595 1.485 . S
C2410 C1834 1.485 . S
C2415 C654 1.485 . S
C2420 C1893 1.484 . S
C2425 C890 1.484 . S
C2430 C1421 1.485 . S
C2435 C949 1.485 . S
C2440 C1480 1.485 . S
C2445 C1008 1.485 . S
C2450 C1539 1.484 . S
C2455 C1067 1.485 . S
C2460 C1952 1.485 . S
C2465 C2011 1.484 . S
C2470 C1126 1.484 . S
C2475 C1185 1.485 . S
C2480 C2070 1.485 . S
C2485 C92 1.299 . S
C2490 C52 1.298 . S
C2495 C111 1.297 . S
C2500 C151 1.298 . S
C2505 C170 1.298 . S
C2510 C33 1.299 . S
C2515 C229 1.297 . S
C2520 C328 1.298 . S
C2525 C210 1.297 . S
C2530 C288 1.298 . S
C2535 C347 1.298 . S
C2540 C269 1.298 . S
C2545 C406 1.298 . S
C2550 C446 1.297 . S
C2555 C465 1.298 . S
C2560 C505 1.298 . S
C2565 C524 1.297 . S
C2570 C387 1.298 . S
C2575 C682 1.297 . S
C2580 C583 1.299 . S
C2585 C642 1.297 . S
C2590 C564 1.298 . S
C2595 C623 1.297 . S
C2600 C701 1.299 . S
C2605 C800 1.297 . S
C2610 C760 1.298 . S
C2615 C859 1.297 . S
C2620 C819 1.299 . S
C2625 C741 1.298 . S
C2630 C878 1.297 . S
C2635 C937 1.297 . S
C2640 C1036 1.298 . S
C2645 C996 1.297 . S
C2650 C918 1.298 . S
C2655 C1055 1.299 . S
C2660 C977 1.297 . S
C2665 C1154 1.298 . S
C2670 C1114 1.298 . S
C2675 C1173 1.297 . S
C2680 C1213 1.298 . S
C2685 C1232 1.299 . S
C2690 C1095 1.297 . S
C2695 C1291 1.299 . S
C2700 C1390 1.297 . S
C2705 C1350 1.299 . S
C2710 C1272 1.297 . S
C2715 C1331 1.296 . S
C2720 C1409 1.298 . S
C2725 C1508 1.298 . S
C2730 C1468 1.297 . S
C2735 C1527 1.298 . S
C2740 C1567 1.296 . S
C2745 C1449 1.298 . S
C2750 C1586 1.297 . S
C2755 C1645 1.299 . S
C2760 C1744 1.297 . S
C2765 C1704 1.299 . S
C2770 C1626 1.297 . S
C2775 C1763 1.297 . S
C2780 C1685 1.298 . S
C2785 C1822 1.298 . S
C2790 C1862 1.296 . S
C2795 C1881 1.297 . S
C2800 C1921 1.298 . S
C2805 C1940 1.298 . S
C2810 C1803 1.296 . S
C2815 C1999 1.299 . S
C2820 C2098 1.296 . S
C2825 C2058 1.299 . S
C2830 C1980 1.297 . S
C2835 C2039 1.298 . S
C2840 C2117 1.298 . S
