# Generated by pormake.
# Topology uki, (4)-cn, num edge types: 1
# Building blocks:
#     Node 0, Type 0, BuildingBlock: NAWXER_clean_sbu_0, # of connection points: 4
#     Node 1, Type 0, BuildingBlock: NAWXER_clean_sbu_0, # of connection points: 4
#     Node 2, Type 0, BuildingBlock: NAWXER_clean_sbu_0, # of connection points: 4
#     Node 3, Type 0, BuildingBlock: NAWXER_clean_sbu_0, # of connection points: 4
#     Node 4, Type 0, BuildingBlock: NAWXER_clean_sbu_0, # of connection points: 4
#     Node 5, Type 0, BuildingBlock: NAWXER_clean_sbu_0, # of connection points: 4
#     Node 6, Type 0, BuildingBlock: NAWXER_clean_sbu_0, # of connection points: 4
#     Node 7, Type 0, BuildingBlock: NAWXER_clean_sbu_0, # of connection points: 4
#     Node 8, Type 0, BuildingBlock: NAWXER_clean_sbu_0, # of connection points: 4
#     Node 9, Type 0, BuildingBlock: NAWXER_clean_sbu_0, # of connection points: 4
#     Node 10, Type 0, BuildingBlock: NAWXER_clean_sbu_0, # of connection points: 4
#     Node 11, Type 0, BuildingBlock: NAWXER_clean_sbu_0, # of connection points: 4
#     Node 12, Type 0, BuildingBlock: NAWXER_clean_sbu_0, # of connection points: 4
#     Node 13, Type 0, BuildingBlock: NAWXER_clean_sbu_0, # of connection points: 4
#     Node 14, Type 0, BuildingBlock: NAWXER_clean_sbu_0, # of connection points: 4
#     Node 15, Type 0, BuildingBlock: NAWXER_clean_sbu_0, # of connection points: 4
#     Edge 16, Type (0, 0), BuildingBlock: MIFKUJ_clean_linker_0, # of connection points: 2
#     Edge 17, Type (0, 0), BuildingBlock: MIFKUJ_clean_linker_0, # of connection points: 2
#     Edge 18, Type (0, 0), BuildingBlock: MIFKUJ_clean_linker_0, # of connection points: 2
#     Edge 19, Type (0, 0), BuildingBlock: MIFKUJ_clean_linker_0, # of connection points: 2
#     Edge 20, Type (0, 0), BuildingBlock: MIFKUJ_clean_linker_0, # of connection points: 2
#     Edge 21, Type (0, 0), BuildingBlock: MIFKUJ_clean_linker_0, # of connection points: 2
#     Edge 22, Type (0, 0), BuildingBlock: MIFKUJ_clean_linker_0, # of connection points: 2
#     Edge 23, Type (0, 0), BuildingBlock: MIFKUJ_clean_linker_0, # of connection points: 2
#     Edge 24, Type (0, 0), BuildingBlock: MIFKUJ_clean_linker_0, # of connection points: 2
#     Edge 25, Type (0, 0), BuildingBlock: MIFKUJ_clean_linker_0, # of connection points: 2
#     Edge 26, Type (0, 0), BuildingBlock: MIFKUJ_clean_linker_0, # of connection points: 2
#     Edge 27, Type (0, 0), BuildingBlock: MIFKUJ_clean_linker_0, # of connection points: 2
#     Edge 28, Type (0, 0), BuildingBlock: MIFKUJ_clean_linker_0, # of connection points: 2
#     Edge 29, Type (0, 0), BuildingBlock: MIFKUJ_clean_linker_0, # of connection points: 2
#     Edge 30, Type (0, 0), BuildingBlock: MIFKUJ_clean_linker_0, # of connection points: 2
#     Edge 31, Type (0, 0), BuildingBlock: MIFKUJ_clean_linker_0, # of connection points: 2
#     Edge 32, Type (0, 0), BuildingBlock: MIFKUJ_clean_linker_0, # of connection points: 2
#     Edge 33, Type (0, 0), BuildingBlock: MIFKUJ_clean_linker_0, # of connection points: 2
#     Edge 34, Type (0, 0), BuildingBlock: MIFKUJ_clean_linker_0, # of connection points: 2
#     Edge 35, Type (0, 0), BuildingBlock: MIFKUJ_clean_linker_0, # of connection points: 2
#     Edge 36, Type (0, 0), BuildingBlock: MIFKUJ_clean_linker_0, # of connection points: 2
#     Edge 37, Type (0, 0), BuildingBlock: MIFKUJ_clean_linker_0, # of connection points: 2
#     Edge 38, Type (0, 0), BuildingBlock: MIFKUJ_clean_linker_0, # of connection points: 2
#     Edge 39, Type (0, 0), BuildingBlock: MIFKUJ_clean_linker_0, # of connection points: 2
#     Edge 40, Type (0, 0), BuildingBlock: MIFKUJ_clean_linker_0, # of connection points: 2
#     Edge 41, Type (0, 0), BuildingBlock: MIFKUJ_clean_linker_0, # of connection points: 2
#     Edge 42, Type (0, 0), BuildingBlock: MIFKUJ_clean_linker_0, # of connection points: 2
#     Edge 43, Type (0, 0), BuildingBlock: MIFKUJ_clean_linker_0, # of connection points: 2
#     Edge 44, Type (0, 0), BuildingBlock: MIFKUJ_clean_linker_0, # of connection points: 2
#     Edge 45, Type (0, 0), BuildingBlock: MIFKUJ_clean_linker_0, # of connection points: 2
#     Edge 46, Type (0, 0), BuildingBlock: MIFKUJ_clean_linker_0, # of connection points: 2
#     Edge 47, Type (0, 0), BuildingBlock: MIFKUJ_clean_linker_0, # of connection points: 2
# Relax obj value: 0.074
# Max RMSD: 0.234
# Mean RMSD: 0.234
data_MOF--net-uki--node1-NAWXER_clean_sbu_0--edge1-MIFKUJ_clean_linker_0
_symmetry_space_group_name_H-M    P1
_symmetry_Int_Tables_number       1
_symmetry_cell_setting            triclinic
loop_
_symmetry_equiv_pos_as_xyz
'x, y, z'
_cell_length_a     41.163599
_cell_length_b     41.160159
_cell_length_c     95.505037
_cell_angle_alpha  89.995349
_cell_angle_beta   90.055246
_cell_angle_gamma 90.030576
loop_
_atom_site_label
_atom_site_type_symbol
_atom_site_fract_x
_atom_site_fract_y
_atom_site_fract_z
_atom_type_partial_charge
C0 C 0.12788 0.2267 0.32453 0.0
C1 C 0.03752 0.24799 0.29289 0.0
O2 O 0.10179 0.24223 0.32678 0.0
Zn3 Zn 0.08271 0.23693 0.30854 0.0
O4 O 0.13282 0.21413 0.31241 0.0
Zn5 Zn 0.10724 0.21204 0.29264 0.0
O6 O 0.1361 0.23429 0.28 0.0
O7 O 0.11318 0.26684 0.2954 0.0
O8 O 0.05991 0.23133 0.28689 0.0
O9 O 0.04101 0.25652 0.30558 0.0
O10 O 0.072 0.18527 0.30715 0.0
O11 O 0.10165 0.16642 0.28973 0.0
C12 C 0.13214 0.26268 0.2849 0.0
C13 C 0.08107 0.16143 0.29939 0.0
C14 C 0.26059 0.87344 0.72019 0.0
C15 C 0.15879 0.92402 0.70646 0.0
O16 O 0.26455 0.89318 0.70989 0.0
Zn17 Zn 0.23348 0.92375 0.69692 0.0
O18 O 0.23222 0.86835 0.72493 0.0
Zn19 Zn 0.20986 0.89743 0.71263 0.0
O20 O 0.21354 0.87226 0.69293 0.0
O21 O 0.23748 0.90596 0.67831 0.0
O22 O 0.1637 0.90182 0.71542 0.0
O23 O 0.1825 0.93445 0.69902 0.0
O24 O 0.25209 0.96568 0.69997 0.0
O25 O 0.22996 0.94443 0.71895 0.0
C26 C 0.22455 0.87853 0.68066 0.0
C27 C 0.2454 0.96773 0.71292 0.0
C28 C 0.87617 0.74696 0.28486 0.0
C29 C 0.92861 0.8472 0.29947 0.0
O30 O 0.8738 0.77524 0.27965 0.0
Zn31 Zn 0.9016 0.79685 0.29277 0.0
O32 O 0.89395 0.7425 0.29576 0.0
Zn33 Zn 0.92515 0.77226 0.30896 0.0
O34 O 0.90585 0.76892 0.32722 0.0
O35 O 0.87426 0.79401 0.31206 0.0
O36 O 0.93772 0.82329 0.30716 0.0
O37 O 0.90738 0.8426 0.29005 0.0
O38 O 0.94877 0.77631 0.28748 0.0
O39 O 0.96615 0.75109 0.30647 0.0
C40 C 0.87911 0.78279 0.32442 0.0
C41 C 0.97036 0.7591 0.29376 0.0
C42 C 0.78171 0.12879 0.67999 0.0
C43 C 0.7602 0.03936 0.71202 0.0
O44 O 0.79453 0.13399 0.69204 0.0
Zn45 Zn 0.79768 0.10845 0.71172 0.0
O46 O 0.76652 0.10244 0.67784 0.0
Zn47 Zn 0.77199 0.08356 0.69611 0.0
O48 O 0.74291 0.11453 0.70954 0.0
O49 O 0.77664 0.13733 0.72459 0.0
O50 O 0.75239 0.04191 0.69919 0.0
O51 O 0.77681 0.06202 0.71789 0.0
O52 O 0.84351 0.10207 0.71421 0.0
O53 O 0.82295 0.07131 0.69751 0.0
C54 C 0.74792 0.1334 0.72004 0.0
C55 C 0.84732 0.08034 0.70494 0.0
C56 C 0.04281 0.26036 0.96193 0.0
C57 C 0.13191 0.28444 0.93015 0.0
O58 O 0.04534 0.25385 0.94898 0.0
Zn59 Zn 0.08689 0.27382 0.94614 0.0
O60 O 0.06551 0.27638 0.96807 0.0
Zn61 Zn 0.11193 0.29758 0.96218 0.0
O62 O 0.10595 0.34328 0.96541 0.0
O63 O 0.07513 0.32463 0.94835 0.0
O64 O 0.1378 0.29524 0.9425 0.0
O65 O 0.10488 0.27083 0.92765 0.0
O66 O 0.11845 0.24325 0.95889 0.0
O67 O 0.14052 0.27553 0.97474 0.0
C68 C 0.08437 0.34824 0.95617 0.0
C69 C 0.13712 0.24733 0.96955 0.0
C70 C 0.28547 0.87717 0.073 0.0
C71 C 0.26436 0.9695 0.04247 0.0
O72 O 0.29612 0.87197 0.06056 0.0
Zn73 Zn 0.29926 0.89931 0.04124 0.0
O74 O 0.27284 0.90445 0.07591 0.0
Zn75 Zn 0.27649 0.92381 0.0577 0.0
O76 O 0.24482 0.89398 0.04466 0.0
O77 O 0.27607 0.87228 0.02837 0.0
O78 O 0.25794 0.96631 0.0554 0.0
O79 O 0.27952 0.9467 0.03604 0.0
O80 O 0.34514 0.90423 0.03801 0.0
O81 O 0.32775 0.9337 0.05571 0.0
C82 C 0.24811 0.87595 0.03376 0.0
C83 C 0.35099 0.92452 0.04769 0.0
C84 C 0.8781 0.72288 0.93121 0.0
C85 C 0.96809 0.74738 0.96256 0.0
O86 O 0.90473 0.73723 0.92868 0.0
Zn87 Zn 0.9234 0.73393 0.94704 0.0
O88 O 0.87277 0.71181 0.94357 0.0
Zn89 Zn 0.89879 0.71057 0.96328 0.0
O90 O 0.87025 0.73307 0.97572 0.0
O91 O 0.89238 0.76491 0.95977 0.0
O92 O 0.94544 0.73172 0.96889 0.0
O93 O 0.96523 0.75352 0.94958 0.0
O94 O 0.9346 0.68285 0.94929 0.0
O95 O 0.90469 0.6651 0.96681 0.0
C96 C 0.87375 0.76115 0.97043 0.0
C97 C 0.92557 0.65958 0.95735 0.0
C98 C 0.72696 0.13127 0.07388 0.0
C99 C 0.74778 0.04045 0.04251 0.0
O100 O 0.71566 0.13684 0.06157 0.0
Zn101 Zn 0.71301 0.11066 0.0419 0.0
O102 O 0.74045 0.10419 0.0764 0.0
Zn103 Zn 0.73607 0.08553 0.05811 0.0
O104 O 0.76757 0.11579 0.04523 0.0
O105 O 0.73601 0.13841 0.02927 0.0
O106 O 0.75428 0.04297 0.05546 0.0
O107 O 0.73275 0.06362 0.03627 0.0
O108 O 0.66735 0.10546 0.03847 0.0
O109 O 0.68462 0.07588 0.05618 0.0
C110 C 0.76407 0.13436 0.03451 0.0
C111 C 0.66146 0.08508 0.0481 0.0
C112 C 0.53937 0.7506 0.79406 0.0
C113 C 0.62937 0.72514 0.8252 0.0
O114 O 0.54323 0.7583 0.80683 0.0
Zn115 Zn 0.58437 0.7371 0.80942 0.0
O116 O 0.56123 0.73374 0.78783 0.0
Zn117 Zn 0.60791 0.71275 0.79319 0.0
O118 O 0.60048 0.66781 0.7895 0.0
O119 O 0.57203 0.68588 0.80746 0.0
O120 O 0.63428 0.71344 0.81291 0.0
O121 O 0.60324 0.7404 0.82766 0.0
O122 O 0.61597 0.76701 0.79658 0.0
O123 O 0.63661 0.73463 0.78051 0.0
C124 C 0.57999 0.66265 0.79916 0.0
C125 C 0.63418 0.76277 0.78582 0.0
C126 C 0.72526 0.38047 0.17974 0.0
C127 C 0.74766 0.46974 0.21173 0.0
O128 O 0.71314 0.37509 0.19189 0.0
Zn129 Zn 0.71061 0.40033 0.21163 0.0
O130 O 0.74004 0.40701 0.1775 0.0
Zn131 Zn 0.73538 0.4255 0.19591 0.0
O132 O 0.76531 0.39437 0.20902 0.0
O133 O 0.73211 0.37056 0.22398 0.0
O134 O 0.7548 0.4671 0.19885 0.0
O135 O 0.73157 0.44696 0.2178 0.0
O136 O 0.66476 0.4062 0.21442 0.0
O137 O 0.68436 0.43723 0.19762 0.0
C138 C 0.76066 0.37475 0.21929 0.0
C139 C 0.66034 0.42787 0.20517 0.0
C140 C 0.37854 0.28571 0.8235 0.0
C141 C 0.47038 0.2594 0.7936 0.0
O142 O 0.40529 0.27225 0.82664 0.0
Zn143 Zn 0.42492 0.27437 0.80849 0.0
O144 O 0.37383 0.29576 0.81092 0.0
Zn145 Zn 0.40154 0.29642 0.79159 0.0
O146 O 0.37377 0.27338 0.77903 0.0
O147 O 0.39429 0.24249 0.79574 0.0
O148 O 0.44804 0.27443 0.78681 0.0
O149 O 0.4671 0.25474 0.80666 0.0
O150 O 0.43561 0.32549 0.80608 0.0
O151 O 0.40829 0.34167 0.78752 0.0
C152 C 0.37649 0.24566 0.78475 0.0
C153 C 0.42762 0.3481 0.79749 0.0
C154 C 0.28131 0.62779 0.17874 0.0
C155 C 0.26083 0.53754 0.21048 0.0
O156 O 0.29243 0.63365 0.19103 0.0
Zn157 Zn 0.29617 0.60796 0.21057 0.0
O158 O 0.26822 0.6005 0.17625 0.0
Zn159 Zn 0.27224 0.58214 0.19475 0.0
O160 O 0.24132 0.61223 0.20788 0.0
O161 O 0.27361 0.63643 0.22312 0.0
O162 O 0.25317 0.54035 0.19765 0.0
O163 O 0.2768 0.56048 0.21653 0.0
O164 O 0.3423 0.60362 0.21328 0.0
O165 O 0.3233 0.57107 0.19686 0.0
C166 C 0.24524 0.63153 0.21833 0.0
C167 C 0.34709 0.5814 0.20432 0.0
C168 C 0.53842 0.76013 0.46065 0.0
C169 C 0.62969 0.78412 0.42999 0.0
O170 O 0.54206 0.75334 0.44778 0.0
Zn171 Zn 0.58369 0.77362 0.44541 0.0
O172 O 0.56056 0.7764 0.46704 0.0
Zn173 Zn 0.60744 0.79734 0.46179 0.0
O174 O 0.60116 0.84295 0.46502 0.0
O175 O 0.57222 0.82476 0.44728 0.0
O176 O 0.63472 0.79507 0.44239 0.0
O177 O 0.60287 0.77039 0.42718 0.0
O178 O 0.6146 0.74305 0.45847 0.0
O179 O 0.63529 0.77518 0.47469 0.0
C180 C 0.58077 0.84825 0.45532 0.0
C181 C 0.63254 0.74705 0.46936 0.0
C182 C 0.78208 0.38008 0.57472 0.0
C183 C 0.7599 0.46985 0.54294 0.0
O184 O 0.79387 0.37457 0.56251 0.0
Zn185 Zn 0.79563 0.39994 0.54268 0.0
O186 O 0.76759 0.40673 0.57704 0.0
Zn187 Zn 0.77223 0.42528 0.5587 0.0
O188 O 0.74105 0.3948 0.54584 0.0
O189 O 0.77295 0.37087 0.53044 0.0
O190 O 0.7536 0.46747 0.55591 0.0
O191 O 0.7752 0.44675 0.53676 0.0
O192 O 0.84116 0.40535 0.53922 0.0
O193 O 0.82368 0.43538 0.55674 0.0
C194 C 0.74474 0.3754 0.53543 0.0
C195 C 0.84692 0.42606 0.54873 0.0
C196 C 0.42469 0.16096 0.45592 0.0
C197 C 0.37261 0.26164 0.47038 0.0
O198 O 0.40427 0.16589 0.46564 0.0
Zn199 Zn 0.39773 0.21141 0.46255 0.0
O200 O 0.4332 0.18475 0.44802 0.0
Zn201 Zn 0.42184 0.23616 0.44654 0.0
O202 O 0.46349 0.2559 0.44909 0.0
O203 O 0.4447 0.23226 0.46818 0.0
O204 O 0.39174 0.26617 0.45995 0.0
O205 O 0.36834 0.23312 0.47508 0.0
O206 O 0.37166 0.21305 0.44291 0.0
O207 O 0.40228 0.24113 0.42839 0.0
C208 C 0.46699 0.24864 0.46193 0.0
C209 C 0.37627 0.22556 0.43076 0.0
C210 C 0.2612 0.63339 0.53443 0.0
C211 C 0.15882 0.58415 0.54832 0.0
O212 O 0.26481 0.61492 0.54517 0.0
Zn213 Zn 0.23354 0.58529 0.55833 0.0
O214 O 0.23303 0.63748 0.52931 0.0
Zn215 Zn 0.21014 0.60983 0.54204 0.0
O216 O 0.21286 0.6367 0.56146 0.0
O217 O 0.23736 0.6046 0.57659 0.0
O218 O 0.16449 0.60477 0.53875 0.0
O219 O 0.18212 0.57496 0.55635 0.0
O220 O 0.25261 0.54314 0.55591 0.0
O221 O 0.2293 0.56214 0.53678 0.0
C222 C 0.22391 0.63157 0.57383 0.0
C223 C 0.24505 0.53955 0.54311 0.0
H224 H 0.17611 0.26272 0.26335 0.0
H225 H 0.20058 0.30988 0.25185 0.0
H226 H 0.14905 0.37375 0.2799 0.0
H227 H 0.12437 0.32685 0.2914 0.0
H228 H 0.14326 0.3934 0.25312 0.0
H229 H 0.2292 0.36198 0.28403 0.0
H230 H 0.26862 0.32447 0.29483 0.0
H231 H 0.31334 0.30866 0.25481 0.0
H232 H 0.27387 0.34575 0.24373 0.0
H233 H 0.27598 0.52187 0.23759 0.0
H234 H 0.25649 0.47528 0.25114 0.0
H235 H 0.20307 0.44107 0.21518 0.0
H236 H 0.22228 0.4875 0.20157 0.0
H237 H 0.26213 0.40892 0.24755 0.0
H238 H 0.13007 0.41205 0.22682 0.0
H239 H 0.09083 0.45183 0.21746 0.0
H240 H 0.13856 0.52833 0.24011 0.0
H241 H 0.17776 0.48894 0.24976 0.0
C242 C 0.17012 0.28678 0.26713 0.0
C243 C 0.14826 0.29099 0.27829 0.0
C244 C 0.18422 0.31371 0.26057 0.0
C245 C 0.17676 0.34532 0.26506 0.0
C246 C 0.15512 0.34957 0.27626 0.0
C247 C 0.14113 0.3227 0.28285 0.0
C248 C 0.19065 0.37402 0.25781 0.0
C249 C 0.16925 0.39676 0.25191 0.0
C250 C 0.22457 0.37868 0.2564 0.0
C251 C 0.24838 0.35641 0.26303 0.0
C252 C 0.24727 0.3503 0.27751 0.0
C253 C 0.26966 0.32915 0.28369 0.0
C254 C 0.29342 0.31413 0.2755 0.0
C255 C 0.29489 0.32029 0.26113 0.0
C256 C 0.27254 0.3414 0.2549 0.0
C257 C 0.26021 0.50436 0.23254 0.0
C258 C 0.25053 0.50853 0.21852 0.0
C259 C 0.24921 0.47769 0.24029 0.0
C260 C 0.22811 0.45492 0.2342 0.0
C261 C 0.21905 0.45858 0.22012 0.0
C262 C 0.23014 0.48511 0.21235 0.0
C263 C 0.2147 0.42786 0.24267 0.0
C264 C 0.23615 0.40546 0.24877 0.0
C265 C 0.18082 0.42375 0.24446 0.0
C266 C 0.15704 0.44757 0.2389 0.0
C267 C 0.1321 0.43733 0.22985 0.0
C268 C 0.10988 0.45982 0.22449 0.0
C269 C 0.11226 0.4926 0.22816 0.0
C270 C 0.13681 0.50295 0.23724 0.0
C271 C 0.15905 0.48056 0.24264 0.0
H272 H 0.09506 0.50997 0.22398 0.0
H273 H 0.31073 0.29777 0.28031 0.0
H274 H 0.49977 0.80196 0.79998 0.0
H275 H 0.45213 0.82009 0.78685 0.0
H276 H 0.46448 0.74041 0.75794 0.0
H277 H 0.51313 0.72325 0.77064 0.0
H278 H 0.44943 0.78988 0.74378 0.0
H279 H 0.40395 0.74165 0.78464 0.0
H280 H 0.39635 0.73189 0.80991 0.0
H281 H 0.36676 0.83104 0.81559 0.0
H282 H 0.37459 0.8415 0.79038 0.0
H283 H 0.26088 0.82072 0.73757 0.0
H284 H 0.3076 0.796 0.74923 0.0
H285 H 0.37082 0.86707 0.7302 0.0
H286 H 0.32438 0.89101 0.71807 0.0
H287 H 0.34626 0.81664 0.76795 0.0
H288 H 0.44622 0.83836 0.72583 0.0
H289 H 0.45114 0.84024 0.7001 0.0
H290 H 0.36672 0.77964 0.69601 0.0
H291 H 0.36155 0.77703 0.72171 0.0
C292 C 0.49224 0.78828 0.79084 0.0
C293 C 0.51007 0.76113 0.78636 0.0
C294 C 0.46489 0.79855 0.78338 0.0
C295 C 0.45424 0.78131 0.77152 0.0
C296 C 0.47213 0.75417 0.76704 0.0
C297 C 0.49989 0.74431 0.77432 0.0
C298 C 0.42479 0.79183 0.76367 0.0
C299 C 0.42686 0.79564 0.74908 0.0
C300 C 0.39499 0.79863 0.77048 0.0
C301 C 0.39012 0.79242 0.78564 0.0
C302 C 0.39603 0.76142 0.7913 0.0
C303 C 0.39165 0.75576 0.8056 0.0
C304 C 0.38115 0.78085 0.81435 0.0
C305 C 0.37492 0.81163 0.8088 0.0
C306 C 0.37929 0.81744 0.7945 0.0
C307 C 0.2848 0.83088 0.73577 0.0
C308 C 0.28898 0.85771 0.72685 0.0
C309 C 0.31149 0.81679 0.74248 0.0
C310 C 0.34287 0.82941 0.74052 0.0
C311 C 0.34703 0.85635 0.73165 0.0
C312 C 0.32041 0.87013 0.72476 0.0
C313 C 0.37104 0.81509 0.74809 0.0
C314 C 0.36877 0.81069 0.76264 0.0
C315 C 0.40024 0.80658 0.74118 0.0
C316 C 0.40334 0.80778 0.7257 0.0
C317 C 0.42878 0.82534 0.71944 0.0
C318 C 0.4316 0.82654 0.70486 0.0
C319 C 0.40919 0.81016 0.69643 0.0
C320 C 0.38398 0.79243 0.70256 0.0
C321 C 0.38108 0.79111 0.71713 0.0
H322 H 0.4114 0.81114 0.68515 0.0
H323 H 0.37778 0.77642 0.82543 0.0
H324 H 0.7658 0.52874 0.20135 0.0
H325 H 0.78508 0.57595 0.21439 0.0
H326 H 0.77432 0.52301 0.25312 0.0
H327 H 0.75358 0.4761 0.24013 0.0
H328 H 0.75579 0.58201 0.25722 0.0
H329 H 0.85015 0.53481 0.23661 0.0
H330 H 0.88459 0.51268 0.21778 0.0
H331 H 0.88259 0.60477 0.19667 0.0
H332 H 0.84776 0.62734 0.21529 0.0
H333 H 0.86471 0.68655 0.29579 0.0
H334 H 0.84007 0.63978 0.28394 0.0
H335 H 0.82692 0.69729 0.24663 0.0
H336 H 0.85102 0.74427 0.25843 0.0
H337 H 0.8583 0.63554 0.24255 0.0
H338 H 0.76326 0.6816 0.26456 0.0
H339 H 0.73145 0.70194 0.28459 0.0
H340 H 0.73877 0.60884 0.30463 0.0
H341 H 0.77106 0.58807 0.2848 0.0
C342 C 0.76746 0.52717 0.21265 0.0
C343 C 0.7584 0.49862 0.21971 0.0
C344 C 0.77867 0.55415 0.2201 0.0
C345 C 0.78191 0.55288 0.23474 0.0
C346 C 0.77218 0.5246 0.24184 0.0
C347 C 0.76038 0.49777 0.2344 0.0
C348 C 0.79566 0.58096 0.24258 0.0
C349 C 0.77845 0.59338 0.2541 0.0
C350 C 0.8251 0.59614 0.2385 0.0
C351 C 0.84609 0.58267 0.22728 0.0
C352 C 0.85686 0.55027 0.2279 0.0
C353 C 0.87648 0.53766 0.21727 0.0
C354 C 0.8857 0.55728 0.20602 0.0
C355 C 0.87539 0.58959 0.20539 0.0
C356 C 0.85573 0.60231 0.21598 0.0
C357 C 0.85635 0.6893 0.2851 0.0
C358 C 0.8598 0.71911 0.27804 0.0
C359 C 0.84222 0.6626 0.27837 0.0
C360 C 0.83167 0.66517 0.26444 0.0
C361 C 0.83492 0.69489 0.2574 0.0
C362 C 0.84857 0.72171 0.26417 0.0
C363 C 0.81828 0.63655 0.25701 0.0
C364 C 0.83567 0.62403 0.24562 0.0
C365 C 0.78941 0.62096 0.26138 0.0
C366 C 0.76988 0.63339 0.27327 0.0
C367 C 0.75835 0.66555 0.2733 0.0
C368 C 0.74017 0.67714 0.2846 0.0
C369 C 0.73317 0.65673 0.29589 0.0
C370 C 0.74425 0.62464 0.29589 0.0
C371 C 0.76247 0.61294 0.28461 0.0
H372 H 0.71909 0.66575 0.30463 0.0
H373 H 0.9009 0.54748 0.1978 0.0
H374 H 0.52945 0.2431 0.8047 0.0
H375 H 0.57708 0.22218 0.79219 0.0
H376 H 0.52383 0.22551 0.75333 0.0
H377 H 0.47637 0.24708 0.76567 0.0
H378 H 0.55962 0.16482 0.75925 0.0
H379 H 0.57296 0.28115 0.75774 0.0
H380 H 0.57627 0.33544 0.76832 0.0
H381 H 0.65948 0.30608 0.79233 0.0
H382 H 0.65601 0.25104 0.78217 0.0
H383 H 0.68552 0.1394 0.71061 0.0
H384 H 0.63892 0.1616 0.72319 0.0
H385 H 0.70047 0.18306 0.75862 0.0
H386 H 0.74739 0.16196 0.74588 0.0
H387 H 0.66029 0.23054 0.75515 0.0
H388 H 0.64895 0.11547 0.7577 0.0
H389 H 0.64586 0.0593 0.74882 0.0
H390 H 0.56086 0.08366 0.72494 0.0
H391 H 0.56373 0.14014 0.73351 0.0
C392 C 0.52791 0.23939 0.79349 0.0
C393 C 0.49924 0.24686 0.78615 0.0
C394 C 0.5551 0.22746 0.78638 0.0
C395 C 0.55387 0.22233 0.77186 0.0
C396 C 0.52516 0.22928 0.76454 0.0
C397 C 0.49819 0.24177 0.77159 0.0
C398 C 0.58275 0.21024 0.76425 0.0
C399 C 0.58155 0.17925 0.75819 0.0
C400 C 0.61159 0.22876 0.7633 0.0
C401 C 0.61397 0.26187 0.76932 0.0
C402 C 0.59175 0.28613 0.76539 0.0
C403 C 0.59371 0.3171 0.7713 0.0
C404 C 0.61809 0.32431 0.781 0.0
C405 C 0.64057 0.30047 0.78482 0.0
C406 C 0.63859 0.26935 0.77901 0.0
C407 C 0.68917 0.14904 0.72104 0.0
C408 C 0.72012 0.14878 0.72727 0.0
C409 C 0.66246 0.16154 0.72827 0.0
C410 C 0.666 0.17338 0.74199 0.0
C411 C 0.69707 0.17396 0.74807 0.0
C412 C 0.72389 0.16187 0.74078 0.0
C413 C 0.63731 0.18498 0.75001 0.0
C414 C 0.63849 0.21591 0.75619 0.0
C415 C 0.60864 0.16611 0.7513 0.0
C416 C 0.60675 0.13213 0.74614 0.0
C417 C 0.62974 0.10891 0.75047 0.0
C418 C 0.62801 0.07701 0.7455 0.0
C419 C 0.60322 0.06794 0.7363 0.0
C420 C 0.58007 0.09074 0.73206 0.0
C421 C 0.58172 0.1227 0.73698 0.0
H422 H 0.60192 0.04322 0.73247 0.0
H423 H 0.61961 0.34836 0.78553 0.0
H424 H 0.26199 0.97825 0.01414 0.0
H425 H 0.242 0.02552 1.00136 0.0
H426 H 0.22312 0.07462 0.04044 0.0
H427 H 0.24202 0.02685 0.0533 0.0
H428 H 0.17428 0.08355 0.02399 0.0
H429 H 0.28918 0.09655 0.01835 0.0
H430 H 0.34521 0.08083 0.01236 0.0
H431 H 0.31582 0.06077 0.97009 0.0
H432 H 0.25954 0.0766 0.97582 0.0
H433 H 0.16137 0.24356 0.99607 0.0
H434 H 0.18419 0.19587 0.00777 0.0
H435 H 0.17194 0.13975 0.97003 0.0
H436 H 0.14835 0.18725 0.95827 0.0
H437 H 0.23613 0.13462 0.9852 0.0
H438 H 0.12016 0.1254 0.99182 0.0
H439 H 0.0662 0.14608 0.99859 0.0
H440 H 0.10039 0.16263 0.04048 0.0
H441 H 0.15473 0.14252 0.03389 0.0
C442 C 0.25378 0.99918 0.02003 0.0
C443 C 0.25365 0.99881 0.03475 0.0
C444 C 0.2425 0.02631 0.01269 0.0
C445 C 0.23144 0.05392 0.01991 0.0
C446 C 0.2315 0.05365 0.03462 0.0
C447 C 0.24239 0.02635 0.04197 0.0
C448 C 0.21886 0.08262 0.01213 0.0
C449 C 0.18808 0.0949 0.01564 0.0
C450 C 0.23645 0.09723 1.00103 0.0
C451 C 0.27012 0.08742 0.99756 0.0
C452 C 0.29462 0.08855 0.00781 0.0
C453 C 0.32643 0.07967 0.00445 0.0
C454 C 0.33405 0.06956 0.99088 0.0
C455 C 0.30988 0.06853 0.98061 0.0
C456 C 0.27804 0.07756 0.98389 0.0
C457 C 0.16376 0.22117 0.9902 0.0
C458 C 0.15302 0.21912 0.97625 0.0
C459 C 0.1767 0.19396 0.99692 0.0
C460 C 0.17957 0.16438 0.98976 0.0
C461 C 0.16987 0.16245 0.9757 0.0
C462 C 0.15635 0.18953 0.96903 0.0
C463 C 0.19187 0.13531 0.99714 0.0
C464 C 0.22248 0.12306 0.99354 0.0
C465 C 0.17438 0.12104 0.00829 0.0
C466 C 0.14161 0.13277 0.01232 0.0
C467 C 0.11626 0.13372 0.00244 0.0
C468 C 0.08558 0.14529 0.00625 0.0
C469 C 0.0799 0.15575 0.01995 0.0
C470 C 0.10484 0.15456 0.02987 0.0
C471 C 0.13558 0.14305 0.02611 0.0
H472 H 0.05614 0.16471 0.02288 0.0
H473 H 0.35871 0.06266 0.98832 0.0
H474 H 0.18805 0.86606 0.04529 0.0
H475 H 0.14001 0.84261 0.0339 0.0
H476 H 0.19487 0.82886 0.99594 0.0
H477 H 0.24309 0.85168 0.00726 0.0
H478 H 0.13235 0.86139 0.99287 0.0
H479 H 0.18076 0.76558 0.0138 0.0
H480 H 0.20256 0.73369 0.03354 0.0
H481 H 0.11084 0.74058 0.05471 0.0
H482 H 0.08864 0.77294 0.03517 0.0
H483 H 0.02628 0.76744 0.95191 0.0
H484 H 0.07328 0.78789 0.96479 0.0
H485 H 0.02171 0.77508 0.00373 0.0
H486 H 0.97504 0.75335 0.99091 0.0
H487 H 0.0813 0.7575 0.0074 0.0
H488 H 0.03108 0.85105 0.98783 0.0
H489 H 0.00702 0.88552 0.96945 0.0
H490 H 0.09814 0.88752 0.94763 0.0
H491 H 0.12264 0.85253 0.96576 0.0
C492 C 0.18992 0.85787 0.03454 0.0
C493 C 0.21936 0.86068 0.02717 0.0
C494 C 0.1625 0.84445 0.02808 0.0
C495 C 0.16399 0.83403 0.0141 0.0
C496 C 0.1933 0.8368 0.00673 0.0
C497 C 0.22083 0.8497 0.01324 0.0
C498 C 0.13482 0.82083 0.00702 0.0
C499 C 0.12134 0.83849 0.9959 0.0
C500 C 0.11988 0.79162 0.01139 0.0
C501 C 0.13316 0.77198 0.02309 0.0
C502 C 0.16533 0.76055 0.02272 0.0
C503 C 0.17774 0.74233 0.03386 0.0
C504 C 0.15813 0.73519 0.04539 0.0
C505 C 0.12602 0.74617 0.04578 0.0
C506 C 0.11351 0.76442 0.03467 0.0
C507 C 0.02497 0.7689 0.96322 0.0
C508 C 0.99689 0.75894 0.97039 0.0
C509 C 0.05181 0.78077 0.97058 0.0
C510 C 0.05087 0.78368 0.98524 0.0
C511 C 0.02304 0.77316 0.99244 0.0
C512 C 0.99635 0.76079 0.98509 0.0
C513 C 0.07886 0.79782 0.993 0.0
C514 C 0.09212 0.78045 0.00432 0.0
C515 C 0.09321 0.82773 0.989 0.0
C516 C 0.07862 0.8489 0.97809 0.0
C517 C 0.04594 0.85863 0.97906 0.0
C518 C 0.03222 0.8783 0.96869 0.0
C519 C 0.05102 0.88867 0.95737 0.0
C520 C 0.0836 0.87943 0.9564 0.0
C521 C 0.09742 0.85969 0.96672 0.0
H522 H 0.04035 0.90391 0.94935 0.0
H523 H 0.16778 0.72109 0.05401 0.0
H524 H 0.86548 0.82189 0.95933 0.0
H525 H 0.84136 0.86936 0.97067 0.0
H526 H 0.82319 0.81245 0.00781 0.0
H527 H 0.84607 0.76469 0.99634 0.0
H528 H 0.77383 0.8495 0.0034 0.0
H529 H 0.88912 0.86693 0.00454 0.0
H530 H 0.94433 0.8724 0.99479 0.0
H531 H 0.91304 0.95303 0.96965 0.0
H532 H 0.85751 0.94774 0.97909 0.0
H533 H 0.76373 0.98052 0.05278 0.0
H534 H 0.78198 0.93295 0.0395 0.0
H535 H 0.77426 0.98743 1.00108 0.0
H536 H 0.75536 0.0349 0.01423 0.0
H537 H 0.83545 0.95302 0.00553 0.0
H538 H 0.71988 0.93478 0.00511 0.0
H539 H 0.66535 0.92865 0.01543 0.0
H540 H 0.69939 0.84934 0.0407 0.0
H541 H 0.75422 0.8551 0.03054 0.0
C542 C 0.85618 0.81947 0.96989 0.0
C543 C 0.85781 0.78957 0.97696 0.0
C544 C 0.84256 0.84668 0.97639 0.0
C545 C 0.831 0.84471 0.99021 0.0
C546 C 0.83197 0.81466 0.99716 0.0
C547 C 0.84511 0.78735 0.99059 0.0
C548 C 0.81815 0.87391 0.99752 0.0
C549 C 0.78755 0.87197 0.00398 0.0
C550 C 0.83569 0.90353 0.99811 0.0
C551 C 0.86907 0.90672 0.99242 0.0
C552 C 0.89395 0.88566 0.99685 0.0
C553 C 0.92531 0.88875 0.99139 0.0
C554 C 0.93216 0.913 0.98158 0.0
C555 C 0.90768 0.93423 0.97723 0.0
C556 C 0.87627 0.93121 0.98263 0.0
C557 C 0.76579 0.98232 0.0415 0.0
C558 C 0.75811 0.01142 0.03454 0.0
C559 C 0.77611 0.95513 0.03394 0.0
C560 C 0.77937 0.95675 0.01933 0.0
C561 C 0.77184 0.98576 0.01236 0.0
C562 C 0.76096 0.01278 0.01988 0.0
C563 C 0.79143 0.92834 0.01139 0.0
C564 C 0.82185 0.93048 0.00486 0.0
C565 C 0.77398 0.89881 0.01089 0.0
C566 C 0.74121 0.89558 0.01717 0.0
C567 C 0.71582 0.91625 0.01297 0.0
C568 C 0.68483 0.91278 0.01876 0.0
C569 C 0.67893 0.88869 0.02875 0.0
C570 C 0.70401 0.86801 0.03296 0.0
C571 C 0.73502 0.87131 0.02717 0.0
H572 H 0.6549 0.88596 0.03318 0.0
H573 H 0.95645 0.91541 0.97739 0.0
H574 H 0.8239 0.14537 0.04612 0.0
H575 H 0.87191 0.16856 0.03461 0.0
H576 H 0.81733 0.17972 0.99637 0.0
H577 H 0.7691 0.15735 0.00784 0.0
H578 H 0.88141 0.14588 0.99463 0.0
H579 H 0.82973 0.2438 0.01218 0.0
H580 H 0.80629 0.27816 0.03075 0.0
H581 H 0.89699 0.27637 0.05299 0.0
H582 H 0.92082 0.24157 0.03464 0.0
H583 H 0.98539 0.23702 0.95167 0.0
H584 H 0.93892 0.21681 0.96493 0.0
H585 H 0.98955 0.23642 0.00361 0.0
H586 H 0.03575 0.25772 0.99039 0.0
H587 H 0.92906 0.25322 0.00645 0.0
H588 H 0.98258 0.15826 0.9903 0.0
H589 H 0.00854 0.12134 0.97335 0.0
H590 H 0.91876 0.11328 0.95067 0.0
H591 H 0.89236 0.15055 0.96738 0.0
C592 C 0.82209 0.15298 0.03529 0.0
C593 C 0.79273 0.1496 0.02788 0.0
C594 C 0.84948 0.16623 0.02875 0.0
C595 C 0.84805 0.17578 0.01466 0.0
C596 C 0.81882 0.17246 0.00726 0.0
C597 C 0.7913 0.15982 0.01384 0.0
C598 C 0.87723 0.18855 0.0075 0.0
C599 C 0.89168 0.16951 0.99706 0.0
C600 C 0.89121 0.21875 0.01113 0.0
C601 C 0.87693 0.23978 0.02212 0.0
C602 C 0.84458 0.25046 0.0211 0.0
C603 C 0.83124 0.27008 0.03157 0.0
C604 C 0.85011 0.27936 0.04306 0.0
C605 C 0.88238 0.26912 0.04409 0.0
C606 C 0.89582 0.24947 0.03366 0.0
C607 C 0.98662 0.23709 0.963 0.0
C608 C 0.01431 0.24884 0.96998 0.0
C609 C 0.96008 0.22537 0.97058 0.0
C610 C 0.96091 0.22451 0.98529 0.0
C611 C 0.98833 0.23676 0.99228 0.0
C612 C 0.01475 0.24888 0.9847 0.0
C613 C 0.93316 0.21079 0.99331 0.0
C614 C 0.91899 0.22954 0.00397 0.0
C615 C 0.91983 0.17992 0.99011 0.0
C616 C 0.93557 0.15745 0.98002 0.0
C617 C 0.96843 0.14882 0.98163 0.0
C618 C 0.98322 0.1278 0.97208 0.0
C619 C 0.96533 0.11504 0.96092 0.0
C620 C 0.93259 0.12322 0.95931 0.0
C621 C 0.91769 0.14427 0.96883 0.0
H622 H 0.97682 0.09875 0.95353 0.0
H623 H 0.83974 0.29455 0.05116 0.0
H624 H 0.64215 0.82394 0.7965 0.0
H625 H 0.66683 0.8709 0.78501 0.0
H626 H 0.68752 0.81226 0.74864 0.0
H627 H 0.66388 0.76497 0.76026 0.0
H628 H 0.73644 0.85102 0.75326 0.0
H629 H 0.62104 0.86462 0.75028 0.0
H630 H 0.56496 0.86848 0.75918 0.0
H631 H 0.59138 0.95138 0.784 0.0
H632 H 0.64777 0.94771 0.77541 0.0
H633 H 0.74377 0.97917 0.70228 0.0
H634 H 0.72567 0.93219 0.71601 0.0
H635 H 0.73371 0.98846 0.75392 0.0
H636 H 0.75262 0.03532 0.74033 0.0
H637 H 0.67178 0.95232 0.74916 0.0
H638 H 0.78786 0.93866 0.75049 0.0
H639 H 0.84237 0.93474 0.73999 0.0
H640 H 0.81238 0.85121 0.71635 0.0
H641 H 0.75742 0.855 0.72652 0.0
C642 C 0.65216 0.82099 0.78609 0.0
C643 C 0.65085 0.79077 0.77926 0.0
C644 C 0.66614 0.8479 0.7795 0.0
C645 C 0.6785 0.84531 0.76584 0.0
C646 C 0.67809 0.81491 0.75917 0.0
C647 C 0.66449 0.7879 0.76582 0.0
C648 C 0.69106 0.87437 0.75834 0.0
C649 C 0.72213 0.87302 0.75227 0.0
C650 C 0.67263 0.90334 0.75716 0.0
C651 C 0.63872 0.90566 0.76232 0.0
C652 C 0.61495 0.88351 0.75772 0.0
C653 C 0.5831 0.88569 0.7627 0.0
C654 C 0.57463 0.9101 0.77218 0.0
C655 C 0.59799 0.93244 0.77668 0.0
C656 C 0.6299 0.93034 0.77175 0.0
C657 C 0.74178 0.98149 0.71354 0.0
C658 C 0.74967 0.01085 0.72025 0.0
C659 C 0.73153 0.95466 0.72135 0.0
C660 C 0.72847 0.95695 0.73595 0.0
C661 C 0.736 0.9863 0.74266 0.0
C662 C 0.74691 0.01293 0.73489 0.0
C663 C 0.71693 0.92876 0.74415 0.0
C664 C 0.68606 0.93031 0.75028 0.0
C665 C 0.7353 0.89988 0.7452 0.0
C666 C 0.76841 0.89734 0.73916 0.0
C667 C 0.79278 0.91964 0.74295 0.0
C668 C 0.82379 0.91741 0.73708 0.0
C669 C 0.83083 0.89279 0.72748 0.0
C670 C 0.80688 0.87029 0.72377 0.0
C671 C 0.77579 0.87247 0.72959 0.0
H672 H 0.85486 0.8911 0.72295 0.0
H673 H 0.54996 0.91175 0.77602 0.0
H674 H 0.99638 0.29816 0.2986 0.0
H675 H 0.94877 0.31522 0.28526 0.0
H676 H 0.96392 0.23626 0.25624 0.0
H677 H 0.01264 0.22011 0.26921 0.0
H678 H 0.94746 0.28543 0.24206 0.0
H679 H 0.90226 0.23538 0.28226 0.0
H680 H 0.89417 0.22389 0.30736 0.0
H681 H 0.86294 0.32218 0.31407 0.0
H682 H 0.87127 0.33439 0.28904 0.0
H683 H 0.75916 0.32114 0.23617 0.0
H684 H 0.80507 0.29399 0.24744 0.0
H685 H 0.87061 0.36404 0.22916 0.0
H686 H 0.82498 0.39033 0.2174 0.0
H687 H 0.84419 0.31154 0.26629 0.0
H688 H 0.94501 0.33382 0.22436 0.0
H689 H 0.94965 0.33699 0.19864 0.0
H690 H 0.86374 0.27872 0.19414 0.0
H691 H 0.85884 0.27478 0.21982 0.0
C692 C 0.9895 0.28436 0.28941 0.0
C693 C 0.00814 0.2577 0.28499 0.0
C694 C 0.96214 0.29404 0.28181 0.0
C695 C 0.95224 0.27669 0.26986 0.0
C696 C 0.97096 0.25007 0.26541 0.0
C697 C 0.99874 0.24078 0.27286 0.0
C698 C 0.92269 0.28671 0.26193 0.0
C699 C 0.92486 0.29101 0.24736 0.0
C700 C 0.89276 0.29307 0.26872 0.0
C701 C 0.88763 0.28586 0.28379 0.0
C702 C 0.89387 0.25461 0.28911 0.0
C703 C 0.88922 0.24796 0.30332 0.0
C704 C 0.87811 0.27231 0.31231 0.0
C705 C 0.87157 0.30335 0.30709 0.0
C706 C 0.87621 0.31014 0.29289 0.0
C707 C 0.78341 0.33056 0.23446 0.0
C708 C 0.78848 0.35779 0.22585 0.0
C709 C 0.80965 0.31507 0.24093 0.0
C710 C 0.84146 0.32667 0.23906 0.0
C711 C 0.84648 0.35404 0.23052 0.0
C712 C 0.82032 0.3692 0.22385 0.0
C713 C 0.86919 0.31103 0.24647 0.0
C714 C 0.8667 0.30572 0.26096 0.0
C715 C 0.89833 0.30245 0.23951 0.0
C716 C 0.90142 0.30427 0.22403 0.0
C717 C 0.92721 0.32154 0.21789 0.0
C718 C 0.92986 0.3235 0.20331 0.0
C719 C 0.90695 0.30815 0.19476 0.0
C720 C 0.8814 0.29069 0.20077 0.0
C721 C 0.87866 0.28862 0.21534 0.0
H722 H 0.90901 0.30973 0.18349 0.0
H723 H 0.87452 0.26712 0.32331 0.0
H724 H 0.26282 0.02726 0.70288 0.0
H725 H 0.28307 0.07378 0.71611 0.0
H726 H 0.27418 0.01918 0.7545 0.0
H727 H 0.25253 0.97293 0.74133 0.0
H728 H 0.25657 0.07841 0.75929 0.0
H729 H 0.34907 0.03087 0.7375 0.0
H730 H 0.38219 0.0087 0.71825 0.0
H731 H 0.38008 0.10118 0.69747 0.0
H732 H 0.34655 0.12381 0.71651 0.0
H733 H 0.36674 0.18552 0.79638 0.0
H734 H 0.34233 0.13769 0.7852 0.0
H735 H 0.32653 0.19302 0.74747 0.0
H736 H 0.35036 0.24093 0.75857 0.0
H737 H 0.35835 0.13171 0.74358 0.0
H738 H 0.26417 0.17767 0.76655 0.0
H739 H 0.23362 0.19797 0.78694 0.0
H740 H 0.24307 0.10514 0.80705 0.0
H741 H 0.27411 0.08441 0.78684 0.0
C742 C 0.26505 0.02519 0.71415 0.0
C743 C 0.2563 0.99634 0.72105 0.0
C744 C 0.27682 0.05176 0.72171 0.0
C745 C 0.28093 0.04981 0.73629 0.0
C746 C 0.27139 0.02128 0.74326 0.0
C747 C 0.25906 0.99484 0.73572 0.0
C748 C 0.29549 0.07742 0.74419 0.0
C749 C 0.27908 0.08971 0.75595 0.0
C750 C 0.32481 0.09243 0.73985 0.0
C751 C 0.34505 0.07895 0.72838 0.0
C752 C 0.35547 0.04642 0.72878 0.0
C753 C 0.37435 0.03378 0.71791 0.0
C754 C 0.38317 0.0535 0.70662 0.0
C755 C 0.3732 0.08593 0.70621 0.0
C756 C 0.35428 0.09868 0.71704 0.0
C757 C 0.35786 0.18754 0.78574 0.0
C758 C 0.36047 0.21702 0.77837 0.0
C759 C 0.34388 0.16024 0.77939 0.0
C760 C 0.33263 0.1619 0.76552 0.0
C761 C 0.33509 0.19129 0.75818 0.0
C762 C 0.3486 0.21866 0.76457 0.0
C763 C 0.31917 0.13281 0.75845 0.0
C764 C 0.3359 0.12022 0.74689 0.0
C765 C 0.29057 0.11721 0.76314 0.0
C766 C 0.27178 0.12961 0.77525 0.0
C767 C 0.26 0.16168 0.77537 0.0
C768 C 0.24253 0.17324 0.78689 0.0
C769 C 0.23649 0.15289 0.7983 0.0
C770 C 0.24781 0.12089 0.79821 0.0
C771 C 0.26532 0.10922 0.78672 0.0
H772 H 0.22296 0.16189 0.80721 0.0
H773 H 0.39779 0.04367 0.69822 0.0
H774 H 0.99928 0.78681 0.27096 0.0
H775 H 0.04641 0.76677 0.25798 0.0
H776 H 0.05238 0.68418 0.28576 0.0
H777 H 0.00658 0.70522 0.29921 0.0
H778 H 0.10921 0.70173 0.28094 0.0
H779 H 0.01849 0.68145 0.25094 0.0
H780 H 0.96922 0.69474 0.23739 0.0
H781 H 0.02387 0.76181 0.21227 0.0
H782 H 0.07339 0.74921 0.22579 0.0
H783 H 0.18122 0.61554 0.21507 0.0
H784 H 0.13462 0.63795 0.22762 0.0
H785 H 0.19797 0.70496 0.24916 0.0
H786 H 0.24479 0.68186 0.23702 0.0
H787 H 0.1058 0.69333 0.22915 0.0
H788 H 0.1718 0.71862 0.28193 0.0
H789 H 0.21732 0.69645 0.29578 0.0
H790 H 0.20543 0.6037 0.27584 0.0
H791 H 0.1596 0.62518 0.26202 0.0
C792 C 0.0108 0.76446 0.27431 0.0
C793 C 0.99926 0.74754 0.28607 0.0
C794 C 0.03761 0.75287 0.26683 0.0
C795 C 0.05271 0.72354 0.27068 0.0
C796 C 0.0413 0.70686 0.28254 0.0
C797 C 0.01505 0.71887 0.29022 0.0
C798 C 0.08038 0.71017 0.26244 0.0
C799 C 0.10838 0.69996 0.26962 0.0
C800 C 0.07926 0.70707 0.24766 0.0
C801 C 0.04956 0.71461 0.23947 0.0
C802 C 0.01994 0.69918 0.24258 0.0
C803 C 0.99198 0.70657 0.2349 0.0
C804 C 0.99339 0.72917 0.22399 0.0
C805 C 0.0228 0.74435 0.22073 0.0
C806 C 0.05083 0.73707 0.22839 0.0
C807 C 0.18521 0.63516 0.22244 0.0
C808 C 0.21675 0.64675 0.22514 0.0
C809 C 0.15852 0.648 0.22958 0.0
C810 C 0.16277 0.67283 0.23951 0.0
C811 C 0.19411 0.68531 0.2418 0.0
C812 C 0.22086 0.67218 0.2348 0.0
C813 C 0.13456 0.68514 0.24767 0.0
C814 C 0.10656 0.69521 0.24047 0.0
C815 C 0.13511 0.68684 0.26248 0.0
C816 C 0.16252 0.67365 0.27083 0.0
C817 C 0.17885 0.69348 0.28054 0.0
C818 C 0.20471 0.68103 0.28838 0.0
C819 C 0.21433 0.64872 0.28666 0.0
C820 C 0.19804 0.62875 0.27712 0.0
C821 C 0.17215 0.64107 0.26927 0.0
H822 H 0.23437 0.63914 0.29273 0.0
H823 H 0.97172 0.73486 0.21806 0.0
H824 H 0.75337 0.47583 0.51458 0.0
H825 H 0.73328 0.52272 0.50149 0.0
H826 H 0.72257 0.5762 0.54009 0.0
H827 H 0.74139 0.5289 0.55326 0.0
H828 H 0.67202 0.58601 0.52501 0.0
H829 H 0.78624 0.59076 0.51575 0.0
H830 H 0.83972 0.57028 0.50822 0.0
H831 H 0.80212 0.5522 0.467 0.0
H832 H 0.74829 0.57233 0.47432 0.0
H833 H 0.65875 0.74388 0.4956 0.0
H834 H 0.68194 0.69639 0.50729 0.0
H835 H 0.66611 0.63901 0.47014 0.0
H836 H 0.64234 0.68637 0.45838 0.0
H837 H 0.72977 0.63118 0.48378 0.0
H838 H 0.61497 0.62879 0.49402 0.0
H839 H 0.56332 0.65241 0.50219 0.0
H840 H 0.60506 0.66924 0.54277 0.0
H841 H 0.65716 0.64618 0.53476 0.0
C842 C 0.74691 0.49765 0.52026 0.0
C843 C 0.74904 0.49869 0.53495 0.0
C844 C 0.73555 0.52454 0.51276 0.0
C845 C 0.72682 0.55328 0.51975 0.0
C846 C 0.72911 0.55435 0.53443 0.0
C847 C 0.73996 0.52731 0.54195 0.0
C848 C 0.7144 0.58191 0.51186 0.0
C849 C 0.68497 0.59607 0.51612 0.0
C850 C 0.73083 0.59483 0.50006 0.0
C851 C 0.76316 0.58275 0.49562 0.0
C852 C 0.78931 0.58219 0.5051 0.0
C853 C 0.8197 0.57069 0.50087 0.0
C854 C 0.82429 0.55982 0.48716 0.0
C855 C 0.79852 0.56057 0.47763 0.0
C856 C 0.76807 0.57207 0.4818 0.0
C857 C 0.66041 0.72125 0.48985 0.0
C858 C 0.64858 0.71885 0.47607 0.0
C859 C 0.6736 0.69414 0.49657 0.0
C860 C 0.67555 0.66422 0.48959 0.0
C861 C 0.66479 0.66194 0.47568 0.0
C862 C 0.65113 0.68896 0.46901 0.0
C863 C 0.68775 0.63511 0.49704 0.0
C864 C 0.717 0.62094 0.49268 0.0
C865 C 0.67146 0.62246 0.50887 0.0
C866 C 0.64006 0.63605 0.51374 0.0
C867 C 0.61323 0.63778 0.50465 0.0
C868 C 0.58385 0.65102 0.50926 0.0
C869 C 0.58094 0.66239 0.52298 0.0
C870 C 0.60737 0.66046 0.53214 0.0
C871 C 0.63681 0.64728 0.52757 0.0
H872 H 0.55818 0.67264 0.52653 0.0
H873 H 0.84783 0.55091 0.4839 0.0
H874 H 0.74425 0.33052 0.5143 0.0
H875 H 0.69696 0.30728 0.50247 0.0
H876 H 0.63339 0.361 0.52986 0.0
H877 H 0.68053 0.38455 0.54172 0.0
H878 H 0.64589 0.2703 0.51123 0.0
H879 H 0.56865 0.38734 0.51005 0.0
H880 H 0.57654 0.44678 0.51042 0.0
H881 H 0.67088 0.43545 0.4919 0.0
H882 H 0.66333 0.37603 0.49123 0.0
H883 H 0.48377 0.23524 0.4891 0.0
H884 H 0.53117 0.25508 0.50202 0.0
H885 H 0.56341 0.30706 0.46536 0.0
H886 H 0.51608 0.28754 0.4524 0.0
H887 H 0.56718 0.3447 0.48838 0.0
H888 H 0.60107 0.23773 0.47481 0.0
H889 H 0.59694 0.17826 0.47271 0.0
H890 H 0.59436 0.16927 0.51749 0.0
H891 H 0.59829 0.22887 0.51985 0.0
C892 C 0.72022 0.33726 0.51788 0.0
C893 C 0.71618 0.35957 0.5289 0.0
C894 C 0.69323 0.32385 0.51114 0.0
C895 C 0.6617 0.33266 0.5152 0.0
C896 C 0.65754 0.35416 0.52646 0.0
C897 C 0.68452 0.36752 0.53325 0.0
C898 C 0.63325 0.32024 0.5073 0.0
C899 C 0.62858 0.28655 0.5063 0.0
C900 C 0.611 0.34146 0.50065 0.0
C901 C 0.61554 0.37722 0.50074 0.0
C902 C 0.59101 0.39756 0.50601 0.0
C903 C 0.59543 0.43124 0.50627 0.0
C904 C 0.62424 0.44488 0.50123 0.0
C905 C 0.64862 0.42486 0.49585 0.0
C906 C 0.6443 0.39118 0.49554 0.0
C907 C 0.50099 0.25081 0.48377 0.0
C908 C 0.49613 0.25977 0.4697 0.0
C909 C 0.52812 0.26206 0.49116 0.0
C910 C 0.5509 0.28244 0.48463 0.0
C911 C 0.5461 0.29142 0.47061 0.0
C912 C 0.51908 0.28011 0.4632 0.0
C913 C 0.5796 0.29472 0.49242 0.0
C914 C 0.58431 0.32842 0.49342 0.0
C915 C 0.60219 0.27352 0.49886 0.0
C916 C 0.59963 0.23774 0.4975 0.0
C917 C 0.59934 0.22309 0.48421 0.0
C918 C 0.59711 0.18934 0.48297 0.0
C919 C 0.59525 0.16995 0.49495 0.0
C920 C 0.59574 0.18431 0.50821 0.0
C921 C 0.59803 0.21807 0.50951 0.0
H922 H 0.59354 0.14381 0.49397 0.0
H923 H 0.62764 0.47095 0.50147 0.0
H924 H 0.22303 0.51832 0.51768 0.0
H925 H 0.23969 0.46961 0.50493 0.0
H926 H 0.30691 0.44588 0.53809 0.0
H927 H 0.28949 0.49384 0.55111 0.0
H928 H 0.29305 0.45191 0.49376 0.0
H929 H 0.3177 0.36583 0.54117 0.0
H930 H 0.29554 0.35553 0.56475 0.0
H931 H 0.20389 0.3961 0.55226 0.0
H932 H 0.22534 0.40621 0.52857 0.0
H933 H 0.39373 0.32428 0.47134 0.0
H934 H 0.36838 0.37018 0.48325 0.0
H935 H 0.28887 0.30843 0.49599 0.0
H936 H 0.31535 0.26198 0.48481 0.0
H937 H 0.30182 0.34376 0.51636 0.0
H938 H 0.28369 0.3683 0.46839 0.0
H939 H 0.29731 0.37682 0.44352 0.0
H940 H 0.36035 0.45582 0.45473 0.0
H941 H 0.34744 0.44749 0.47969 0.0
C942 C 0.24121 0.5026 0.5223 0.0
C943 C 0.25482 0.50985 0.53544 0.0
C944 C 0.25079 0.47479 0.51497 0.0
C945 C 0.27431 0.45377 0.52059 0.0
C946 C 0.28818 0.46123 0.53366 0.0
C947 C 0.2783 0.48877 0.54107 0.0
C948 C 0.28498 0.42453 0.51267 0.0
C949 C 0.29485 0.42823 0.49869 0.0
C950 C 0.28646 0.39336 0.51892 0.0
C951 C 0.27327 0.38704 0.53312 0.0
C952 C 0.29278 0.37242 0.54344 0.0
C953 C 0.28035 0.36664 0.55683 0.0
C954 C 0.24836 0.37525 0.56001 0.0
C955 C 0.2287 0.38955 0.5498 0.0
C956 C 0.241 0.39535 0.53639 0.0
C957 C 0.37076 0.32057 0.47663 0.0
C958 C 0.35643 0.28962 0.4771 0.0
C959 C 0.35613 0.34689 0.48337 0.0
C960 C 0.32626 0.34311 0.49032 0.0
C961 C 0.31187 0.31212 0.49073 0.0
C962 C 0.32695 0.28558 0.4843 0.0
C963 C 0.31057 0.3712 0.49749 0.0
C964 C 0.29982 0.36733 0.51136 0.0
C965 C 0.307 0.40191 0.49094 0.0
C966 C 0.31479 0.40709 0.47593 0.0
C967 C 0.30062 0.38735 0.46556 0.0
C968 C 0.30819 0.39216 0.45145 0.0
C969 C 0.32974 0.4168 0.44755 0.0
C970 C 0.34369 0.43673 0.45777 0.0
C971 C 0.33622 0.43199 0.4719 0.0
H972 H 0.33557 0.42048 0.43662 0.0
H973 H 0.23879 0.37077 0.57039 0.0
H974 H 0.48937 0.72131 0.45089 0.0
H975 H 0.44216 0.70126 0.46378 0.0
H976 H 0.4746 0.75218 0.50071 0.0
H977 H 0.5218 0.77252 0.48788 0.0
H978 H 0.43845 0.66302 0.48679 0.0
H979 H 0.40756 0.77838 0.51856 0.0
H980 H 0.41164 0.83801 0.5164 0.0
H981 H 0.40909 0.82984 0.47159 0.0
H982 H 0.40477 0.77034 0.47349 0.0
H983 H 0.32549 0.62372 0.54052 0.0
H984 H 0.37259 0.64665 0.52843 0.0
H985 H 0.30885 0.70026 0.50101 0.0
H986 H 0.26164 0.67759 0.51305 0.0
H987 H 0.35999 0.73723 0.50984 0.0
H988 H 0.34236 0.63156 0.48977 0.0
H989 H 0.33501 0.5721 0.49031 0.0
H990 H 0.4296 0.56083 0.50866 0.0
H991 H 0.43732 0.62029 0.50841 0.0
C992 C 0.48642 0.72839 0.46174 0.0
C993 C 0.50934 0.74861 0.46834 0.0
C994 C 0.45949 0.71677 0.46911 0.0
C995 C 0.45477 0.72534 0.48318 0.0
C996 C 0.47757 0.74553 0.48981 0.0
C997 C 0.50459 0.75708 0.48246 0.0
C998 C 0.42607 0.71296 0.49092 0.0
C999 C 0.42136 0.67925 0.49187 0.0
C1000 C 0.40356 0.73411 0.49742 0.0
C1001 C 0.4062 0.76991 0.49618 0.0
C1002 C 0.40785 0.78936 0.50825 0.0
C1003 C 0.41022 0.82314 0.50707 0.0
C1004 C 0.41076 0.83773 0.49386 0.0
C1005 C 0.40887 0.81857 0.48181 0.0
C1006 C 0.40653 0.7848 0.48293 0.0
C1007 C 0.32147 0.64057 0.53199 0.0
C1008 C 0.28978 0.6487 0.52771 0.0
C1009 C 0.34842 0.65356 0.52506 0.0
C1010 C 0.34419 0.67491 0.51374 0.0
C1011 C 0.31264 0.68381 0.50972 0.0
C1012 C 0.28569 0.67073 0.51659 0.0
C1013 C 0.37257 0.68733 0.50582 0.0
C1014 C 0.37724 0.72102 0.50486 0.0
C1015 C 0.39477 0.66616 0.49913 0.0
C1016 C 0.39027 0.63039 0.4992 0.0
C1017 C 0.36149 0.61642 0.49402 0.0
C1018 C 0.35727 0.58271 0.49426 0.0
C1019 C 0.38178 0.56271 0.49956 0.0
C1020 C 0.41061 0.57636 0.50459 0.0
C1021 C 0.41493 0.61006 0.50439 0.0
H1022 H 0.37847 0.53662 0.49973 0.0
H1023 H 0.41253 0.86389 0.49297 0.0
H1024 H 0.32427 0.18413 0.43012 0.0
H1025 H 0.28255 0.17965 0.41197 0.0
H1026 H 0.32878 0.25674 0.3887 0.0
H1027 H 0.37117 0.2604 0.40651 0.0
H1028 H 0.23835 0.21789 0.40319 0.0
H1029 H 0.31665 0.24949 0.35426 0.0
H1030 H 0.37277 0.2418 0.34585 0.0
H1031 H 0.3836 0.15872 0.37264 0.0
H1032 H 0.32742 0.16564 0.38107 0.0
H1033 H 0.13516 0.26453 0.34781 0.0
H1034 H 0.17719 0.26064 0.36578 0.0
H1035 H 0.21802 0.17732 0.34474 0.0
H1036 H 0.17691 0.18217 0.32635 0.0
H1037 H 0.26465 0.21261 0.35257 0.0
H1038 H 0.17142 0.17195 0.3762 0.0
H1039 H 0.11491 0.17149 0.38474 0.0
H1040 H 0.13329 0.25771 0.4088 0.0
H1041 H 0.18981 0.25894 0.40025 0.0
C1042 C 0.32566 0.19996 0.42108 0.0
C1043 C 0.35115 0.22248 0.41971 0.0
C1044 C 0.30172 0.19744 0.41072 0.0
C1045 C 0.30264 0.21755 0.39884 0.0
C1046 C 0.32789 0.24036 0.39757 0.0
C1047 C 0.35207 0.24255 0.40781 0.0
C1048 C 0.27681 0.21528 0.38794 0.0
C1049 C 0.24414 0.21662 0.39212 0.0
C1050 C 0.28416 0.21281 0.37349 0.0
C1051 C 0.31791 0.2083 0.36839 0.0
C1052 C 0.33096 0.22951 0.35832 0.0
C1053 C 0.36279 0.2253 0.35356 0.0
C1054 C 0.38177 0.19985 0.35874 0.0
C1055 C 0.36892 0.17849 0.36867 0.0
C1056 C 0.3371 0.18258 0.37346 0.0
C1057 C 0.15302 0.24529 0.34704 0.0
C1058 C 0.15268 0.2236 0.33568 0.0
C1059 C 0.17697 0.24296 0.35738 0.0
C1060 C 0.20057 0.21831 0.3568 0.0
C1061 C 0.20016 0.19656 0.34546 0.0
C1062 C 0.17658 0.19929 0.33496 0.0
C1063 C 0.22618 0.21579 0.3678 0.0
C1064 C 0.25883 0.21366 0.36364 0.0
C1065 C 0.21874 0.21635 0.38229 0.0
C1066 C 0.18478 0.21568 0.38749 0.0
C1067 C 0.16335 0.19094 0.38323 0.0
C1068 C 0.13132 0.19052 0.38809 0.0
C1069 C 0.1205 0.21459 0.39728 0.0
C1070 C 0.1417 0.23909 0.40167 0.0
C1071 C 0.17375 0.23964 0.39683 0.0
H1072 H 0.09569 0.21422 0.40103 0.0
H1073 H 0.40641 0.19665 0.35505 0.0
H1074 H 0.21197 0.69635 0.5701 0.0
H1075 H 0.21036 0.73886 0.58805 0.0
H1076 H 0.2287 0.66724 0.62003 0.0
H1077 H 0.23087 0.62463 0.60215 0.0
H1078 H 0.17694 0.71314 0.62616 0.0
H1079 H 0.28898 0.71046 0.61076 0.0
H1080 H 0.33235 0.71237 0.59299 0.0
H1081 H 0.30152 0.80776 0.58055 0.0
H1082 H 0.25763 0.80621 0.59813 0.0
H1083 H 0.21716 0.81304 0.68368 0.0
H1084 H 0.21547 0.77188 0.6653 0.0
H1085 H 0.22474 0.8468 0.63391 0.0
H1086 H 0.22808 0.88793 0.65235 0.0
H1087 H 0.26081 0.79975 0.6267 0.0
H1088 H 0.1503 0.80527 0.64147 0.0
H1089 H 0.10448 0.80492 0.65808 0.0
H1090 H 0.12812 0.7073 0.67022 0.0
H1091 H 0.17437 0.70721 0.6538 0.0
C1092 C 0.21552 0.68961 0.58096 0.0
C1093 C 0.22165 0.65713 0.58471 0.0
C1094 C 0.21467 0.71393 0.59118 0.0
C1095 C 0.21954 0.70616 0.60534 0.0
C1096 C 0.22488 0.67369 0.60915 0.0
C1097 C 0.22623 0.64943 0.59892 0.0
C1098 C 0.21975 0.732 0.61615 0.0
C1099 C 0.19543 0.73193 0.62641 0.0
C1100 C 0.24329 0.75702 0.61614 0.0
C1101 C 0.26982 0.75807 0.60566 0.0
C1102 C 0.29127 0.73172 0.60416 0.0
C1103 C 0.31598 0.73276 0.59413 0.0
C1104 C 0.31963 0.76013 0.58562 0.0
C1105 C 0.29863 0.78656 0.58714 0.0
C1106 C 0.27386 0.78562 0.59714 0.0
C1107 C 0.21871 0.82075 0.67286 0.0
C1108 C 0.22263 0.85374 0.66946 0.0
C1109 C 0.21754 0.79719 0.66233 0.0
C1110 C 0.21932 0.80616 0.64814 0.0
C1111 C 0.22325 0.83917 0.64475 0.0
C1112 C 0.22509 0.86269 0.6553 0.0
C1113 C 0.21794 0.78108 0.63689 0.0
C1114 C 0.2421 0.78119 0.6265 0.0
C1115 C 0.19384 0.75643 0.63664 0.0
C1116 C 0.16598 0.75635 0.64649 0.0
C1117 C 0.14587 0.78381 0.64775 0.0
C1118 C 0.1198 0.78368 0.65712 0.0
C1119 C 0.11344 0.75614 0.66522 0.0
C1120 C 0.1331 0.72863 0.66394 0.0
C1121 C 0.15922 0.72864 0.6546 0.0
H1122 H 0.09325 0.75609 0.67247 0.0
H1123 H 0.33877 0.76089 0.57786 0.0
H1124 H 0.62211 0.78014 0.40165 0.0
H1125 H 0.66427 0.78251 0.38372 0.0
H1126 H 0.73722 0.79472 0.41579 0.0
H1127 H 0.69484 0.79389 0.43375 0.0
H1128 H 0.75217 0.83152 0.39515 0.0
H1129 H 0.72225 0.71969 0.39858 0.0
H1130 H 0.68552 0.67235 0.39886 0.0
H1131 H 0.65604 0.6931 0.35666 0.0
H1132 H 0.69229 0.74085 0.35619 0.0
H1133 H 0.88602 0.77744 0.3528 0.0
H1134 H 0.84334 0.78046 0.37062 0.0
H1135 H 0.77167 0.79606 0.33837 0.0
H1136 H 0.81427 0.7937 0.32048 0.0
H1137 H 0.75679 0.74541 0.35885 0.0
H1138 H 0.79029 0.85767 0.35624 0.0
H1139 H 0.83036 0.9022 0.35673 0.0
H1140 H 0.85722 0.87634 0.39873 0.0
H1141 H 0.81763 0.83131 0.39841 0.0
C1142 C 0.64713 0.78344 0.40488 0.0
C1143 C 0.65518 0.78663 0.41912 0.0
C1144 C 0.67128 0.7846 0.39462 0.0
C1145 C 0.70412 0.78805 0.39838 0.0
C1146 C 0.71212 0.79193 0.41259 0.0
C1147 C 0.68788 0.79139 0.42286 0.0
C1148 C 0.73007 0.78741 0.38751 0.0
C1149 C 0.75334 0.81242 0.38734 0.0
C1150 C 0.73157 0.76274 0.37716 0.0
C1151 C 0.70975 0.73404 0.3774 0.0
C1152 C 0.70775 0.7143 0.38939 0.0
C1153 C 0.68705 0.68737 0.38958 0.0
C1154 C 0.66839 0.67977 0.3778 0.0
C1155 C 0.67047 0.69905 0.36579 0.0
C1156 C 0.69111 0.72603 0.36555 0.0
C1157 C 0.8612 0.78165 0.3495 0.0
C1158 C 0.8535 0.78536 0.33524 0.0
C1159 C 0.83689 0.78345 0.35969 0.0
C1160 C 0.80443 0.78856 0.35578 0.0
C1161 C 0.79662 0.79213 0.34157 0.0
C1162 C 0.82099 0.7909 0.33139 0.0
C1163 C 0.77853 0.78946 0.36654 0.0
C1164 C 0.75541 0.76446 0.36668 0.0
C1165 C 0.77757 0.81371 0.37701 0.0
C1166 C 0.80122 0.84091 0.37725 0.0
C1167 C 0.80494 0.86129 0.36554 0.0
C1168 C 0.82753 0.88666 0.36579 0.0
C1169 C 0.84639 0.89204 0.37774 0.0
C1170 C 0.84263 0.87211 0.38948 0.0
C1171 C 0.8201 0.84668 0.38927 0.0
H1172 H 0.86387 0.9117 0.37792 0.0
H1173 H 0.65238 0.65891 0.37796 0.0
H1174 H 0.82465 0.17928 0.67803 0.0
H1175 H 0.82686 0.22134 0.65997 0.0
H1176 H 0.74459 0.17765 0.63916 0.0
H1177 H 0.74332 0.13472 0.6568 0.0
H1178 H 0.78377 0.19632 0.6204 0.0
H1179 H 0.73879 0.24781 0.66079 0.0
H1180 H 0.73616 0.26499 0.6855 0.0
H1181 H 0.82436 0.31951 0.68049 0.0
H1182 H 0.82774 0.30229 0.65578 0.0
H1183 H 0.74579 0.37567 0.59855 0.0
H1184 H 0.74693 0.3327 0.61616 0.0
H1185 H 0.82528 0.28573 0.59401 0.0
H1186 H 0.82317 0.32793 0.576 0.0
H1187 H 0.78707 0.31242 0.63425 0.0
H1188 H 0.82285 0.20469 0.59821 0.0
H1189 H 0.81639 0.1877 0.57359 0.0
H1190 H 0.73037 0.24609 0.57001 0.0
H1191 H 0.73607 0.26308 0.59466 0.0
C1192 C 0.80713 0.17859 0.66956 0.0
C1193 C 0.78372 0.15377 0.66887 0.0
C1194 C 0.80829 0.20277 0.65928 0.0
C1195 C 0.7855 0.20313 0.6483 0.0
C1196 C 0.76246 0.17799 0.64749 0.0
C1197 C 0.7617 0.15347 0.65761 0.0
C1198 C 0.78537 0.2298 0.63774 0.0
C1199 C 0.78454 0.22169 0.62345 0.0
C1200 C 0.78567 0.26302 0.64164 0.0
C1201 C 0.78368 0.27349 0.65648 0.0
C1202 C 0.75774 0.26328 0.66499 0.0
C1203 C 0.7561 0.27305 0.67899 0.0
C1204 C 0.78013 0.29326 0.68457 0.0
C1205 C 0.8058 0.30381 0.67615 0.0
C1206 C 0.80758 0.29408 0.66215 0.0
C1207 C 0.7633 0.35621 0.59744 0.0
C1208 C 0.78423 0.35506 0.58583 0.0
C1209 C 0.76399 0.33166 0.60754 0.0
C1210 C 0.78585 0.3056 0.60636 0.0
C1211 C 0.8076 0.30507 0.59501 0.0
C1212 C 0.80651 0.32932 0.58475 0.0
C1213 C 0.78554 0.27894 0.61692 0.0
C1214 C 0.7864 0.28704 0.6312 0.0
C1215 C 0.78396 0.24575 0.61302 0.0
C1216 C 0.78012 0.23542 0.59823 0.0
C1217 C 0.80251 0.21381 0.59218 0.0
C1218 C 0.79898 0.2042 0.57822 0.0
C1219 C 0.77305 0.2159 0.57023 0.0
C1220 C 0.75051 0.23714 0.5762 0.0
C1221 C 0.7539 0.24679 0.59015 0.0
H1222 H 0.77039 0.20845 0.55942 0.0
H1223 H 0.77881 0.3008 0.69541 0.0
H1224 H 0.12249 0.28091 0.90188 0.0
H1225 H 0.16344 0.28426 0.88345 0.0
H1226 H 0.23834 0.29612 0.91471 0.0
H1227 H 0.1972 0.29433 0.93315 0.0
H1228 H 0.25132 0.33405 0.89426 0.0
H1229 H 0.22274 0.22155 0.89704 0.0
H1230 H 0.18639 0.17391 0.89718 0.0
H1231 H 0.15486 0.19652 0.85544 0.0
H1232 H 0.19073 0.24457 0.85511 0.0
H1233 H 0.38501 0.28191 0.85191 0.0
H1234 H 0.34206 0.28511 0.86956 0.0
H1235 H 0.27075 0.29905 0.83702 0.0
H1236 H 0.31368 0.2964 0.81927 0.0
H1237 H 0.25562 0.24919 0.85741 0.0
H1238 H 0.28863 0.3614 0.85521 0.0
H1239 H 0.32826 0.40632 0.85579 0.0
H1240 H 0.35549 0.38015 0.89771 0.0
H1241 H 0.31634 0.33475 0.8973 0.0
C1242 C 0.14768 0.28432 0.90482 0.0
C1243 C 0.15665 0.28718 0.91897 0.0
C1244 C 0.17114 0.28604 0.89427 0.0
C1245 C 0.20417 0.28976 0.89766 0.0
C1246 C 0.21307 0.29318 0.91179 0.0
C1247 C 0.18953 0.29209 0.92234 0.0
C1248 C 0.22944 0.28996 0.8865 0.0
C1249 C 0.25241 0.31523 0.88632 0.0
C1250 C 0.23076 0.26573 0.87595 0.0
C1251 C 0.20916 0.23685 0.87611 0.0
C1252 C 0.20787 0.21651 0.88793 0.0
C1253 C 0.18738 0.18941 0.88804 0.0
C1254 C 0.16826 0.18225 0.87634 0.0
C1255 C 0.16965 0.20213 0.8645 0.0
C1256 C 0.19007 0.22929 0.86434 0.0
C1257 C 0.36022 0.28584 0.84851 0.0
C1258 C 0.35273 0.28893 0.83419 0.0
C1259 C 0.33574 0.28775 0.8586 0.0
C1260 C 0.3033 0.29241 0.85458 0.0
C1261 C 0.29569 0.29549 0.84032 0.0
C1262 C 0.32024 0.2941 0.83021 0.0
C1263 C 0.27726 0.29313 0.86528 0.0
C1264 C 0.25428 0.268 0.86535 0.0
C1265 C 0.27634 0.31708 0.87588 0.0
C1266 C 0.29976 0.34448 0.87617 0.0
C1267 C 0.30326 0.36504 0.8645 0.0
C1268 C 0.3256 0.39063 0.86481 0.0
C1269 C 0.34444 0.39604 0.87677 0.0
C1270 C 0.34091 0.37591 0.88845 0.0
C1271 C 0.31862 0.35027 0.88819 0.0
H1272 H 0.36172 0.41586 0.87699 0.0
H1273 H 0.15242 0.16125 0.87644 0.0
H1274 H 0.27579 0.61959 0.15039 0.0
H1275 H 0.27827 0.66165 0.13223 0.0
H1276 H 0.29266 0.73481 0.16394 0.0
H1277 H 0.29085 0.69293 0.18214 0.0
H1278 H 0.24227 0.74842 0.14319 0.0
H1279 H 0.35479 0.71565 0.14659 0.0
H1280 H 0.3995 0.67581 0.14645 0.0
H1281 H 0.37475 0.64813 0.10443 0.0
H1282 H 0.32954 0.68749 0.1044 0.0
H1283 H 0.2802 0.88388 0.10135 0.0
H1284 H 0.28109 0.84108 0.11904 0.0
H1285 H 0.2938 0.76904 0.08667 0.0
H1286 H 0.29433 0.812 0.06896 0.0
H1287 H 0.32987 0.75335 0.1076 0.0
H1288 H 0.21846 0.78354 0.10322 0.0
H1289 H 0.17126 0.82038 0.10256 0.0
H1290 H 0.18987 0.84906 0.14505 0.0
H1291 H 0.23746 0.8127 0.1459 0.0
C1292 C 0.27957 0.64462 0.15349 0.0
C1293 C 0.28317 0.65295 0.16769 0.0
C1294 C 0.28106 0.66857 0.14311 0.0
C1295 C 0.28571 0.70126 0.14677 0.0
C1296 C 0.28907 0.70968 0.16093 0.0
C1297 C 0.28815 0.68571 0.17129 0.0
C1298 C 0.28665 0.72679 0.13585 0.0
C1299 C 0.2616 0.74983 0.1355 0.0
C1300 C 0.3113 0.7278 0.12557 0.0
C1301 C 0.33856 0.70426 0.12555 0.0
C1302 C 0.35868 0.70085 0.13737 0.0
C1303 C 0.38416 0.6784 0.13731 0.0
C1304 C 0.3899 0.65938 0.12545 0.0
C1305 C 0.37024 0.66284 0.11361 0.0
C1306 C 0.3447 0.68523 0.11362 0.0
C1307 C 0.28328 0.85893 0.098 0.0
C1308 C 0.28702 0.8513 0.08375 0.0
C1309 C 0.28359 0.83442 0.10813 0.0
C1310 C 0.2868 0.80167 0.1042 0.0
C1311 C 0.29119 0.79407 0.08998 0.0
C1312 C 0.29144 0.81866 0.07986 0.0
C1313 C 0.2855 0.7754 0.11492 0.0
C1314 C 0.31043 0.75209 0.11524 0.0
C1315 C 0.26035 0.77375 0.12504 0.0
C1316 C 0.23172 0.79563 0.12458 0.0
C1317 C 0.21263 0.79789 0.11239 0.0
C1318 C 0.18578 0.81865 0.11199 0.0
C1319 C 0.17762 0.83711 0.12375 0.0
C1320 C 0.19625 0.83478 0.13594 0.0
C1321 C 0.22314 0.81407 0.1364 0.0
H1322 H 0.15682 0.85317 0.12341 0.0
H1323 H 0.40964 0.64202 0.12543 0.0
H1324 H 0.87977 0.74785 0.90467 0.0
H1325 H 0.83734 0.74524 0.8868 0.0
H1326 H 0.77726 0.68874 0.91464 0.0
H1327 H 0.81968 0.69109 0.9326 0.0
H1328 H 0.77555 0.66534 0.88758 0.0
H1329 H 0.76268 0.76741 0.91129 0.0
H1330 H 0.78072 0.82035 0.92056 0.0
H1331 H 0.80543 0.85171 0.87903 0.0
H1332 H 0.78796 0.79874 0.86953 0.0
H1333 H 0.62719 0.7494 0.8518 0.0
H1334 H 0.66884 0.74585 0.86993 0.0
H1335 H 0.72985 0.69049 0.84206 0.0
H1336 H 0.68808 0.6937 0.82383 0.0
H1337 H 0.72956 0.76899 0.86994 0.0
H1338 H 0.77544 0.63745 0.86212 0.0
H1339 H 0.75461 0.58435 0.85414 0.0
H1340 H 0.65801 0.61178 0.86624 0.0
H1341 H 0.67831 0.66483 0.87446 0.0
C1342 C 0.85764 0.73468 0.90699 0.0
C1343 C 0.85305 0.71986 0.92012 0.0
C1344 C 0.83338 0.73327 0.89676 0.0
C1345 C 0.80403 0.71706 0.89944 0.0
C1346 C 0.79973 0.70139 0.91236 0.0
C1347 C 0.82395 0.70288 0.92263 0.0
C1348 C 0.77739 0.71753 0.88896 0.0
C1349 C 0.76553 0.68798 0.88369 0.0
C1350 C 0.76397 0.74707 0.88405 0.0
C1351 C 0.77431 0.779 0.88972 0.0
C1352 C 0.7722 0.7855 0.90415 0.0
C1353 C 0.78228 0.81553 0.90944 0.0
C1354 C 0.79429 0.83935 0.9004 0.0
C1355 C 0.79616 0.83322 0.88603 0.0
C1356 C 0.78615 0.80321 0.88068 0.0
C1357 C 0.64937 0.73628 0.84952 0.0
C1358 C 0.65428 0.72182 0.83634 0.0
C1359 C 0.67321 0.73438 0.8599 0.0
C1360 C 0.7024 0.71781 0.85739 0.0
C1361 C 0.70734 0.7031 0.84429 0.0
C1362 C 0.68349 0.70504 0.83387 0.0
C1363 C 0.72792 0.71679 0.86839 0.0
C1364 C 0.73964 0.74631 0.87376 0.0
C1365 C 0.74081 0.68721 0.87353 0.0
C1366 C 0.72838 0.65524 0.86876 0.0
C1367 C 0.74977 0.6321 0.86312 0.0
C1368 C 0.73806 0.60202 0.85854 0.0
C1369 C 0.70499 0.59474 0.85963 0.0
C1370 C 0.68359 0.61749 0.86534 0.0
C1371 C 0.69519 0.64759 0.86994 0.0
H1372 H 0.69597 0.57146 0.85608 0.0
H1373 H 0.80209 0.86258 0.90451 0.0
H1374 H 0.74905 0.12733 0.10085 0.0
H1375 H 0.74678 0.16906 0.119 0.0
H1376 H 0.69896 0.23413 0.0902 0.0
H1377 H 0.70076 0.19234 0.07201 0.0
H1378 H 0.77325 0.22794 0.12039 0.0
H1379 H 0.64642 0.28242 0.1085 0.0
H1380 H 0.59348 0.26494 0.09898 0.0
H1381 H 0.61283 0.16684 0.11181 0.0
H1382 H 0.66566 0.18382 0.12158 0.0
H1383 H 0.75537 0.38016 0.15419 0.0
H1384 H 0.75385 0.33738 0.13643 0.0
H1385 H 0.68888 0.28132 0.16232 0.0
H1386 H 0.69023 0.32397 0.18016 0.0
H1387 H 0.67022 0.28101 0.13465 0.0
H1388 H 0.76602 0.26125 0.16171 0.0
H1389 H 0.81807 0.27539 0.17297 0.0
H1390 H 0.85945 0.29723 0.1328 0.0
H1391 H 0.80744 0.28367 0.12131 0.0
C1392 C 0.73791 0.15045 0.09837 0.0
C1393 C 0.72499 0.15643 0.08497 0.0
C1394 C 0.73675 0.17435 0.10876 0.0
C1395 C 0.72252 0.20466 0.10601 0.0
C1396 C 0.70967 0.21077 0.09263 0.0
C1397 C 0.7108 0.18686 0.08223 0.0
C1398 C 0.72147 0.22995 0.11711 0.0
C1399 C 0.75071 0.23957 0.12347 0.0
C1400 C 0.69203 0.24477 0.12133 0.0
C1401 C 0.66014 0.23436 0.11563 0.0
C1402 C 0.63932 0.25715 0.10933 0.0
C1403 C 0.60934 0.24732 0.10389 0.0
C1404 C 0.59985 0.21478 0.10475 0.0
C1405 C 0.62027 0.19202 0.1111 0.0
C1406 C 0.65025 0.20172 0.11657 0.0
C1407 C 0.74058 0.35884 0.15608 0.0
C1408 C 0.72303 0.35542 0.16863 0.0
C1409 C 0.73983 0.33437 0.14594 0.0
C1410 C 0.72147 0.30607 0.14811 0.0
C1411 C 0.70321 0.30297 0.16044 0.0
C1412 C 0.70411 0.32733 0.17064 0.0
C1413 C 0.72203 0.27932 0.1377 0.0
C1414 C 0.69274 0.26946 0.13149 0.0
C1415 C 0.75133 0.2638 0.13381 0.0
C1416 C 0.78273 0.27176 0.14066 0.0
C1417 C 0.78613 0.26932 0.15529 0.0
C1418 C 0.81564 0.27719 0.16171 0.0
C1419 C 0.84203 0.28728 0.15361 0.0
C1420 C 0.83897 0.28944 0.13906 0.0
C1421 C 0.80949 0.28165 0.13259 0.0
H1422 H 0.86485 0.29336 0.1586 0.0
H1423 H 0.57664 0.20722 0.10052 0.0
H1424 H 0.98824 0.8622 0.31029 0.0
H1425 H 0.01356 0.91587 0.31181 0.0
H1426 H 0.92663 0.95939 0.29481 0.0
H1427 H 0.90205 0.90563 0.29256 0.0
H1428 H 0.9741 0.98523 0.28276 0.0
H1429 H 0.95094 0.9644 0.33111 0.0
H1430 H 0.9518 0.93333 0.35319 0.0
H1431 H 0.05601 0.93767 0.35388 0.0
H1432 H 0.0558 0.96842 0.3317 0.0
H1433 H 0.03619 0.14189 0.31888 0.0
H1434 H 0.00972 0.08872 0.32066 0.0
H1435 H 0.06692 0.05383 0.28598 0.0
H1436 H 0.09329 0.10675 0.28405 0.0
H1437 H 0.03117 0.02621 0.325 0.0
H1438 H 0.01837 0.00897 0.26498 0.0
H1439 H 0.01259 0.0428 0.24379 0.0
H1440 H 0.97026 0.11926 0.2683 0.0
H1441 H 0.97535 0.08574 0.28959 0.0
C1442 C 0.9745 0.88329 0.30698 0.0
C1443 C 0.94319 0.87976 0.3013 0.0
C1444 C 0.98891 0.91402 0.30792 0.0
C1445 C 0.97191 0.94192 0.30361 0.0
C1446 C 0.94037 0.93834 0.29817 0.0
C1447 C 0.92628 0.9076 0.29692 0.0
C1448 C 0.98734 0.97467 0.30414 0.0
C1449 C 0.98647 0.99408 0.29204 0.0
C1450 C 1.00317 0.98671 0.31628 0.0
C1451 C 0.00335 0.9685 0.32969 0.0
C1452 C 0.97404 0.95857 0.33593 0.0
C1453 C 0.97442 0.94104 0.34847 0.0
C1454 C 0.00394 0.93347 0.35492 0.0
C1455 C 0.03316 0.94352 0.34886 0.0
C1456 C 0.03293 0.96104 0.33632 0.0
C1457 C 0.04331 0.12283 0.31169 0.0
C1458 C 0.06667 0.12869 0.30124 0.0
C1459 C 0.02825 0.09243 0.31277 0.0
C1460 C 0.03609 0.06746 0.30335 0.0
C1461 C 0.0602 0.0729 0.29324 0.0
C1462 C 0.07529 0.10319 0.29217 0.0
C1463 C 0.01812 0.03619 0.3036 0.0
C1464 C 0.01864 0.01717 0.31579 0.0
C1465 C 1.00115 0.02481 0.29169 0.0
C1466 C 0.99756 0.04494 0.27889 0.0
C1467 C 0.00771 0.03295 0.26583 0.0
C1468 C 0.00457 0.05208 0.25381 0.0
C1469 C 0.99116 0.08319 0.2547 0.0
C1470 C 0.98075 0.09521 0.26762 0.0
C1471 C 0.9838 0.07617 0.27967 0.0
H1472 H 0.98878 0.09797 0.24539 0.0
H1473 H 0.00418 0.91987 0.36461 0.0
H1474 H 0.8595 0.01997 0.6944 0.0
H1475 H 0.91202 0.99194 0.69321 0.0
H1476 H 0.95955 0.07654 0.71021 0.0
H1477 H 0.90704 0.10444 0.71183 0.0
H1478 H 0.98667 0.03771 0.68267 0.0
H1479 H 0.95512 0.03165 0.73265 0.0
H1480 H 0.91526 0.01794 0.75101 0.0
H1481 H 0.9097 0.92013 0.73554 0.0
H1482 H 0.94927 0.93344 0.71698 0.0
H1483 H 0.14445 0.9867 0.70012 0.0
H1484 H 0.09087 0.01177 0.6986 0.0
H1485 H 0.04607 0.91885 0.70699 0.0
H1486 H 0.09994 0.89433 0.70958 0.0
H1487 H 0.01444 0.95925 0.72027 0.0
H1488 H 0.04809 0.95853 0.67279 0.0
H1489 H 0.08382 0.96758 0.65245 0.0
H1490 H 0.08073 0.07051 0.65962 0.0
H1491 H 0.04532 0.06206 0.68012 0.0
C1492 C 0.88118 0.03271 0.69776 0.0
C1493 C 0.87921 0.06438 0.70323 0.0
C1494 C 0.91107 0.01666 0.69709 0.0
C1495 C 0.93947 0.03227 0.70162 0.0
C1496 C 0.93779 0.06422 0.70665 0.0
C1497 C 0.90783 0.08003 0.70761 0.0
C1498 C 0.97078 0.01477 0.70167 0.0
C1499 C 0.99309 0.02076 0.69092 0.0
C1500 C 0.97822 0.99169 0.71211 0.0
C1501 C 0.95485 0.98362 0.72337 0.0
C1502 C 0.94518 0.00731 0.7331 0.0
C1503 C 0.92271 0.99959 0.74356 0.0
C1504 C 0.90991 0.9682 0.74442 0.0
C1505 C 0.91962 0.94444 0.73485 0.0
C1506 C 0.94209 0.95204 0.72438 0.0
C1507 C 0.12311 0.97165 0.70157 0.0
C1508 C 0.12625 0.93859 0.70491 0.0
C1509 C 0.09242 0.98592 0.70058 0.0
C1510 C 0.06413 0.96715 0.70233 0.0
C1511 C 0.06736 0.93396 0.70558 0.0
C1512 C 0.09813 0.91991 0.70701 0.0
C1513 C 0.03135 0.98243 0.70132 0.0
C1514 C 0.00844 0.97598 0.71189 0.0
C1515 C 0.023 0.00438 0.69042 0.0
C1516 C 0.04426 0.00962 0.67807 0.0
C1517 C 0.0552 0.98308 0.67009 0.0
C1518 C 0.07537 0.98811 0.65852 0.0
C1519 C 0.0846 0.0196 0.65476 0.0
C1520 C 0.07359 0.04613 0.66255 0.0
C1521 C 0.05344 0.04124 0.67414 0.0
H1522 H 0.10022 0.02344 0.64581 0.0
H1523 H 0.89254 0.96228 0.75253 0.0
H1524 H 0.10392 0.40552 0.96802 0.0
H1525 H 0.07651 0.4581 0.96693 0.0
H1526 H 1.00193 0.41652 0.94068 0.0
H1527 H 0.02975 0.36411 0.94137 0.0
H1528 H 0.01554 0.47478 0.9317 0.0
H1529 H 0.99033 0.42838 0.9763 0.0
H1530 H 1.00199 0.40332 0.99921 0.0
H1531 H 0.0555 0.48814 0.01166 0.0
H1532 H 0.04451 0.51353 0.98874 0.0
H1533 H 0.90647 0.60342 0.97021 0.0
H1534 H 0.93181 0.54992 0.96864 0.0
H1535 H 0.00376 0.58838 0.94028 0.0
H1536 H 0.97797 0.64177 0.9415 0.0
H1537 H 0.98849 0.53 0.97637 0.0
H1538 H 0.03051 0.52947 0.91832 0.0
H1539 H 0.01269 0.55118 0.89549 0.0
H1540 H 0.91412 0.55452 0.91009 0.0
H1541 H 0.93127 0.53243 0.93292 0.0
C1542 C 0.0818 0.40761 0.96194 0.0
C1543 C 0.0689 0.38057 0.95486 0.0
C1544 C 0.06607 0.43767 0.96137 0.0
C1545 C 0.03681 0.44116 0.95393 0.0
C1546 C 0.02442 0.41443 0.94651 0.0
C1547 C 0.04033 0.38445 0.94694 0.0
C1548 C 0.01869 0.47238 0.9542 0.0
C1549 C 0.00966 0.48688 0.94147 0.0
C1550 C 0.0103 0.48786 0.96694 0.0
C1551 C 0.01685 0.47272 0.98076 0.0
C1552 C 0.00477 0.44159 0.98389 0.0
C1553 C 0.01123 0.42734 0.99688 0.0
C1554 C 0.02954 0.44409 0.00688 0.0
C1555 C 0.04135 0.47517 0.00391 0.0
C1556 C 0.03499 0.48952 0.99092 0.0
C1557 C 0.92754 0.60046 0.96355 0.0
C1558 C 0.94017 0.62686 0.95596 0.0
C1559 C 0.94206 0.56985 0.96269 0.0
C1560 C 0.96958 0.56499 0.95427 0.0
C1561 C 0.98221 0.59133 0.94665 0.0
C1562 C 0.9675 0.6219 0.9474 0.0
C1563 C 0.98565 0.53266 0.95387 0.0
C1564 C 0.99437 0.51796 0.96659 0.0
C1565 C 0.99288 0.51659 0.94113 0.0
C1566 C 0.98226 0.52961 0.92738 0.0
C1567 C 0.00502 0.53473 0.91664 0.0
C1568 C 0.99504 0.54712 0.9037 0.0
C1569 C 0.96231 0.55433 0.90136 0.0
C1570 C 0.93948 0.54905 0.91193 0.0
C1571 C 0.94933 0.53664 0.92488 0.0
H1572 H 0.95464 0.56394 0.89134 0.0
H1573 H 0.03452 0.43302 0.01693 0.0
H1574 H 0.37079 0.97093 0.06636 0.0
H1575 H 0.42395 0.99718 0.06779 0.0
H1576 H 0.45877 0.93701 0.03403 0.0
H1577 H 0.40575 0.91036 0.0326 0.0
H1578 H 0.50477 0.94412 0.05413 0.0
H1579 H 0.43448 0.01216 0.02734 0.0
H1580 H 0.38444 0.04297 0.02261 0.0
H1581 H 0.40415 0.10496 0.05779 0.0
H1582 H 0.45407 0.07393 0.06291 0.0
H1583 H 0.6106 0.09006 0.02982 0.0
H1584 H 0.55822 0.06241 0.03102 0.0
H1585 H 0.58513 0.02038 0.07076 0.0
H1586 H 0.63809 0.04717 0.06941 0.0
H1587 H 0.50825 0.06369 0.04753 0.0
H1588 H 0.55197 0.9443 0.07361 0.0
H1589 H 0.60237 0.91227 0.07583 0.0
H1590 H 0.63722 0.9518 0.03705 0.0
H1591 H 0.58674 0.98335 0.0344 0.0
C1592 C 0.38982 0.96303 0.05932 0.0
C1593 C 0.38391 0.9387 0.04929 0.0
C1594 C 0.42019 0.97812 0.06014 0.0
C1595 C 0.44522 0.96931 0.05092 0.0
C1596 C 0.43981 0.94419 0.04125 0.0
C1597 C 0.40942 0.92909 0.04041 0.0
C1598 C 0.47644 0.98741 0.05085 0.0
C1599 C 0.50556 0.97027 0.05276 0.0
C1600 C 0.47751 0.02144 0.04875 0.0
C1601 C 0.44781 0.0405 0.0456 0.0
C1602 C 0.42802 0.03221 0.03413 0.0
C1603 C 0.39968 0.04974 0.03137 0.0
C1604 C 0.39105 0.07592 0.0399 0.0
C1605 C 0.41083 0.08465 0.0512 0.0
C1606 C 0.43915 0.06708 0.05404 0.0
C1607 C 0.60534 0.0751 0.03887 0.0
C1608 C 0.62865 0.0706 0.04946 0.0
C1609 C 0.5753 0.05934 0.03955 0.0
C1610 C 0.56785 0.03889 0.05087 0.0
C1611 C 0.59055 0.03547 0.06177 0.0
C1612 C 0.62078 0.05093 0.06101 0.0
C1613 C 0.53672 0.0205 0.051 0.0
C1614 C 0.50754 0.03758 0.04906 0.0
C1615 C 0.53572 0.98628 0.05268 0.0
C1616 C 0.56572 0.96649 0.0539 0.0
C1617 C 0.5703 0.94596 0.0655 0.0
C1618 C 0.59888 0.92786 0.06683 0.0
C1619 C 0.62302 0.93004 0.0566 0.0
C1620 C 0.61852 0.95011 0.04496 0.0
C1621 C 0.58992 0.96809 0.04354 0.0
H1622 H 0.64521 0.91615 0.05768 0.0
H1623 H 0.36908 0.08947 0.03776 0.0
H1624 H 0.43031 0.3957 0.77761 0.0
H1625 H 0.45601 0.44916 0.7795 0.0
H1626 H 0.48207 0.42895 0.82234 0.0
H1627 H 0.45696 0.37501 0.82048 0.0
H1628 H 0.45232 0.49483 0.81581 0.0
H1629 H 0.53873 0.42103 0.80165 0.0
H1630 H 0.56401 0.37977 0.78649 0.0
H1631 H 0.55382 0.44295 0.75097 0.0
H1632 H 0.52795 0.48439 0.7659 0.0
H1633 H 0.55825 0.63154 0.82272 0.0
H1634 H 0.53235 0.57796 0.82405 0.0
H1635 H 0.53757 0.56968 0.77901 0.0
H1636 H 0.56544 0.62182 0.77783 0.0
H1637 H 0.55225 0.51615 0.78834 0.0
H1638 H 0.46425 0.58788 0.79931 0.0
H1639 H 0.43544 0.63119 0.81211 0.0
H1640 H 0.44214 0.57588 0.85012 0.0
H1641 H 0.47137 0.5324 0.83758 0.0
C1642 C 0.44132 0.40266 0.78747 0.0
C1643 C 0.44169 0.38108 0.79889 0.0
C1644 C 0.45601 0.43318 0.78851 0.0
C1645 C 0.47095 0.44289 0.80104 0.0
C1646 C 0.4706 0.42185 0.81259 0.0
C1647 C 0.45639 0.39104 0.81149 0.0
C1648 C 0.48789 0.47459 0.80184 0.0
C1649 C 0.47442 0.49953 0.80998 0.0
C1650 C 0.51605 0.48086 0.79385 0.0
C1651 C 0.53115 0.45567 0.78487 0.0
C1652 C 0.54155 0.42597 0.79058 0.0
C1653 C 0.55607 0.40258 0.78203 0.0
C1654 C 0.56052 0.40873 0.76776 0.0
C1655 C 0.55036 0.43822 0.76202 0.0
C1656 C 0.53577 0.46166 0.77052 0.0
C1657 C 0.55388 0.6181 0.81314 0.0
C1658 C 0.56397 0.63065 0.80018 0.0
C1659 C 0.53881 0.58761 0.81388 0.0
C1660 C 0.53244 0.56974 0.80161 0.0
C1661 C 0.5423 0.58267 0.78867 0.0
C1662 C 0.55821 0.61255 0.78798 0.0
C1663 C 0.51643 0.53721 0.80209 0.0
C1664 C 0.53016 0.51183 0.79424 0.0
C1665 C 0.48787 0.53098 0.80997 0.0
C1666 C 0.47032 0.55706 0.81754 0.0
C1667 C 0.4598 0.58507 0.81042 0.0
C1668 C 0.44336 0.60963 0.81762 0.0
C1669 C 0.43706 0.60633 0.83193 0.0
C1670 C 0.4471 0.57842 0.83905 0.0
C1671 C 0.46358 0.55381 0.8319 0.0
H1672 H 0.42433 0.62537 0.83748 0.0
H1673 H 0.57194 0.39076 0.76114 0.0
H1674 H 0.64663 0.48782 0.19451 0.0
H1675 H 0.59339 0.51441 0.1931 0.0
H1676 H 0.54799 0.42891 0.2103 0.0
H1677 H 0.60123 0.40246 0.21215 0.0
H1678 H 0.51963 0.46537 0.18281 0.0
H1679 H 0.55183 0.4755 0.23232 0.0
H1680 H 0.59114 0.49122 0.25062 0.0
H1681 H 0.59292 0.58875 0.23466 0.0
H1682 H 0.55397 0.57342 0.21613 0.0
H1683 H 0.36103 0.5182 0.19882 0.0
H1684 H 0.41448 0.49265 0.19785 0.0
H1685 H 0.45977 0.58597 0.20485 0.0
H1686 H 0.40606 0.611 0.20692 0.0
H1687 H 0.4906 0.54672 0.21904 0.0
H1688 H 0.45773 0.5426 0.17128 0.0
H1689 H 0.42214 0.53107 0.1511 0.0
H1690 H 0.42555 0.42911 0.16049 0.0
H1691 H 0.46083 0.44006 0.18084 0.0
C1692 C 0.62527 0.47459 0.19789 0.0
C1693 C 0.62805 0.4431 0.20347 0.0
C1694 C 0.59496 0.48982 0.19709 0.0
C1695 C 0.56693 0.47354 0.2016 0.0
C1696 C 0.56944 0.44175 0.20676 0.0
C1697 C 0.59982 0.42678 0.20786 0.0
C1698 C 0.53514 0.49021 0.20145 0.0
C1699 C 0.51295 0.48294 0.19078 0.0
C1700 C 0.52726 0.51399 0.21152 0.0
C1701 C 0.55033 0.52323 0.22275 0.0
C1702 C 0.56086 0.5002 0.23263 0.0
C1703 C 0.58301 0.50906 0.24307 0.0
C1704 C 0.5946 0.54094 0.24378 0.0
C1705 C 0.58397 0.56405 0.23409 0.0
C1706 C 0.56185 0.5553 0.22362 0.0
C1707 C 0.38246 0.53322 0.20007 0.0
C1708 C 0.37952 0.56655 0.20289 0.0
C1709 C 0.41308 0.51866 0.1994 0.0
C1710 C 0.44147 0.53738 0.20095 0.0
C1711 C 0.43841 0.57087 0.20361 0.0
C1712 C 0.40773 0.58522 0.20475 0.0
C1713 C 0.47421 0.52186 0.20039 0.0
C1714 C 0.49688 0.52934 0.21095 0.0
C1715 C 0.48284 0.49892 0.18993 0.0
C1716 C 0.4617 0.4922 0.17766 0.0
C1717 C 0.45072 0.51774 0.1691 0.0
C1718 C 0.43062 0.5113 0.15762 0.0
C1719 C 0.42153 0.47939 0.15453 0.0
C1720 C 0.43259 0.45382 0.1629 0.0
C1721 C 0.45267 0.46012 0.1744 0.0
H1722 H 0.40596 0.47445 0.14564 0.0
H1723 H 0.61175 0.54775 0.25186 0.0
H1724 H 0.41563 0.10711 0.4722 0.0
H1725 H 0.44225 0.0544 0.47013 0.0
H1726 H 0.49321 0.08767 0.43337 0.0
H1727 H 0.46716 0.14088 0.43556 0.0
H1728 H 0.44267 0.00819 0.45095 0.0
H1729 H 0.56866 0.05149 0.43266 0.0
H1730 H 0.60316 0.10048 0.43364 0.0
H1731 H 0.55649 0.12985 0.47179 0.0
H1732 H 0.52223 0.08076 0.47118 0.0
H1733 H 0.53849 0.86899 0.43499 0.0
H1734 H 0.51254 0.92227 0.43302 0.0
H1735 H 0.56329 0.95447 0.47004 0.0
H1736 H 0.58982 0.90164 0.47191 0.0
H1737 H 0.56299 1.00123 0.45105 0.0
H1738 H 0.48341 0.92818 0.47083 0.0
H1739 H 0.44915 0.87908 0.47119 0.0
H1740 H 0.4025 0.90937 0.43313 0.0
H1741 H 0.43701 0.95837 0.4324 0.0
C1742 C 0.43239 0.10325 0.46363 0.0
C1743 C 0.43942 0.12834 0.4541 0.0
C1744 C 0.44753 0.073 0.46243 0.0
C1745 C 0.47002 0.06712 0.45169 0.0
C1746 C 0.47635 0.09178 0.44188 0.0
C1747 C 0.46134 0.12217 0.44312 0.0
C1748 C 0.48736 0.03544 0.45108 0.0
C1749 C 0.46899 0.00669 0.45089 0.0
C1750 C 0.52171 0.03338 0.45111 0.0
C1751 C 0.54263 0.06266 0.45177 0.0
C1752 C 0.56589 0.06835 0.44129 0.0
C1753 C 0.58542 0.09612 0.44178 0.0
C1754 C 0.58198 0.11831 0.45275 0.0
C1755 C 0.55913 0.11269 0.46329 0.0
C1756 C 0.53964 0.0849 0.46287 0.0
C1757 C 0.54428 0.88747 0.44266 0.0
C1758 C 0.56612 0.88095 0.45366 0.0
C1759 C 0.52933 0.9179 0.44155 0.0
C1760 C 0.53563 0.94228 0.45149 0.0
C1761 C 0.55804 0.93608 0.46225 0.0
C1762 C 0.57312 0.90577 0.46332 0.0
C1763 C 0.51831 0.97398 0.45099 0.0
C1764 C 0.53668 1.00273 0.45095 0.0
C1765 C 0.48396 0.97604 0.45096 0.0
C1766 C 0.46302 0.94675 0.45148 0.0
C1767 C 0.46601 0.92425 0.46249 0.0
C1768 C 0.44651 0.89645 0.46277 0.0
C1769 C 0.42366 0.89108 0.45218 0.0
C1770 C 0.42023 0.91354 0.44131 0.0
C1771 C 0.43977 0.94131 0.44096 0.0
H1772 H 0.40856 0.86957 0.45239 0.0
H1773 H 0.59708 0.13982 0.45306 0.0
H1774 H 0.86776 0.47106 0.56789 0.0
H1775 H 0.92107 0.49717 0.56915 0.0
H1776 H 0.95353 0.44028 0.53391 0.0
H1777 H 0.90057 0.41368 0.53272 0.0
H1778 H 1.00051 0.44448 0.55285 0.0
H1779 H 0.92882 0.51814 0.52959 0.0
H1780 H 0.8793 0.55109 0.52668 0.0
H1781 H 0.90398 0.60642 0.56329 0.0
H1782 H 0.95341 0.57336 0.56657 0.0
H1783 H 0.10661 0.59223 0.53097 0.0
H1784 H 0.05398 0.56506 0.53223 0.0
H1785 H 0.08374 0.5165 0.57016 0.0
H1786 H 0.13686 0.54295 0.56877 0.0
H1787 H 0.00565 0.56474 0.54983 0.0
H1788 H 0.05048 0.44087 0.57122 0.0
H1789 H 0.10009 0.40722 0.57096 0.0
H1790 H 0.12972 0.45166 0.53234 0.0
H1791 H 0.08008 0.48521 0.53227 0.0
C1792 C 0.88631 0.4639 0.56048 0.0
C1793 C 0.8798 0.44042 0.55014 0.0
C1794 C 0.91675 0.47893 0.56119 0.0
C1795 C 0.94118 0.47098 0.55151 0.0
C1796 C 0.93508 0.44681 0.54149 0.0
C1797 C 0.9047 0.43171 0.54079 0.0
C1798 C 0.97266 0.48866 0.55147 0.0
C1799 C 1.00164 0.47078 0.55227 0.0
C1800 C 0.97419 0.52294 0.55039 0.0
C1801 C 0.94463 0.54304 0.54841 0.0
C1802 C 0.92356 0.53717 0.53708 0.0
C1803 C 0.89552 0.55589 0.53536 0.0
C1804 C 0.88845 0.58081 0.54481 0.0
C1805 C 0.90946 0.58708 0.55599 0.0
C1806 C 0.93749 0.56836 0.55779 0.0
C1807 C 0.10195 0.5759 0.53963 0.0
C1808 C 0.12605 0.56959 0.54971 0.0
C1809 C 0.07177 0.56044 0.54035 0.0
C1810 C 0.065 0.53839 0.55118 0.0
C1811 C 0.0886 0.53293 0.56156 0.0
C1812 C 0.11892 0.54819 0.56078 0.0
C1813 C 0.03356 0.5206 0.55136 0.0
C1814 C 0.00456 0.53846 0.55057 0.0
C1815 C 0.03205 0.48624 0.55201 0.0
C1816 C 0.06174 0.4658 0.55184 0.0
C1817 C 0.06753 0.44336 0.56265 0.0
C1818 C 0.09565 0.42432 0.56256 0.0
C1819 C 0.1181 0.42739 0.55167 0.0
C1820 C 0.11238 0.44939 0.5408 0.0
C1821 C 0.08427 0.46844 0.54083 0.0
H1822 H 0.13987 0.41266 0.55163 0.0
H1823 H 0.86673 0.59528 0.54345 0.0
loop_
_geom_bond_atom_site_label_1
_geom_bond_atom_site_label_2
_geom_bond_distance
_geom_bond_site_symmetry_2
_ccdc_geom_bond_type
C0 O2 1.247 . S
C0 O4 1.258 . S
C1 O8 1.247 . S
C1 O9 1.258 . S
O2 C0 1.247 . S
O2 Zn3 2.028 . S
Zn3 O2 2.028 . S
Zn3 O7 2.035 . S
Zn3 O9 2.035 . S
Zn3 O10 2.028 . S
O4 C0 1.258 . S
O4 Zn5 2.035 . S
Zn5 O4 2.035 . S
Zn5 O6 2.028 . S
Zn5 O8 2.028 . S
Zn5 O11 2.035 . S
O6 Zn5 2.028 . S
O6 C12 1.247 . S
O7 Zn3 2.035 . S
O7 C12 1.258 . S
O8 C1 1.247 . S
O8 Zn5 2.028 . S
O9 C1 1.258 . S
O9 Zn3 2.035 . S
O10 Zn3 2.028 . S
O10 C13 1.247 . S
O11 Zn5 2.035 . S
O11 C13 1.258 . S
C12 O6 1.247 . S
C12 O7 1.258 . S
C13 O10 1.247 . S
C13 O11 1.258 . S
C14 O16 1.247 . S
C14 O18 1.258 . S
C15 O22 1.247 . S
C15 O23 1.258 . S
O16 C14 1.247 . S
O16 Zn17 2.028 . S
Zn17 O16 2.028 . S
Zn17 O21 2.035 . S
Zn17 O23 2.035 . S
Zn17 O24 2.028 . S
O18 C14 1.258 . S
O18 Zn19 2.035 . S
Zn19 O18 2.035 . S
Zn19 O20 2.028 . S
Zn19 O22 2.028 . S
Zn19 O25 2.035 . S
O20 Zn19 2.028 . S
O20 C26 1.247 . S
O21 Zn17 2.035 . S
O21 C26 1.258 . S
O22 C15 1.247 . S
O22 Zn19 2.028 . S
O23 C15 1.258 . S
O23 Zn17 2.035 . S
O24 Zn17 2.028 . S
O24 C27 1.247 . S
O25 Zn19 2.035 . S
O25 C27 1.258 . S
C26 O20 1.247 . S
C26 O21 1.258 . S
C27 O24 1.247 . S
C27 O25 1.258 . S
C28 O30 1.247 . S
C28 O32 1.258 . S
C29 O36 1.247 . S
C29 O37 1.258 . S
O30 C28 1.247 . S
O30 Zn31 2.028 . S
Zn31 O30 2.028 . S
Zn31 O35 2.035 . S
Zn31 O37 2.035 . S
Zn31 O38 2.028 . S
O32 C28 1.258 . S
O32 Zn33 2.035 . S
Zn33 O32 2.035 . S
Zn33 O34 2.028 . S
Zn33 O36 2.028 . S
Zn33 O39 2.035 . S
O34 Zn33 2.028 . S
O34 C40 1.247 . S
O35 Zn31 2.035 . S
O35 C40 1.258 . S
O36 C29 1.247 . S
O36 Zn33 2.028 . S
O37 C29 1.258 . S
O37 Zn31 2.035 . S
O38 Zn31 2.028 . S
O38 C41 1.247 . S
O39 Zn33 2.035 . S
O39 C41 1.258 . S
C40 O34 1.247 . S
C40 O35 1.258 . S
C41 O38 1.247 . S
C41 O39 1.258 . S
C42 O44 1.247 . S
C42 O46 1.258 . S
C43 O50 1.247 . S
C43 O51 1.258 . S
O44 C42 1.247 . S
O44 Zn45 2.028 . S
Zn45 O44 2.028 . S
Zn45 O49 2.035 . S
Zn45 O51 2.035 . S
Zn45 O52 2.028 . S
O46 C42 1.258 . S
O46 Zn47 2.035 . S
Zn47 O46 2.035 . S
Zn47 O48 2.028 . S
Zn47 O50 2.028 . S
Zn47 O53 2.035 . S
O48 Zn47 2.028 . S
O48 C54 1.247 . S
O49 Zn45 2.035 . S
O49 C54 1.258 . S
O50 C43 1.247 . S
O50 Zn47 2.028 . S
O51 C43 1.258 . S
O51 Zn45 2.035 . S
O52 Zn45 2.028 . S
O52 C55 1.247 . S
O53 Zn47 2.035 . S
O53 C55 1.258 . S
C54 O48 1.247 . S
C54 O49 1.258 . S
C55 O52 1.247 . S
C55 O53 1.258 . S
C56 O58 1.247 . S
C56 O60 1.258 . S
C57 O64 1.247 . S
C57 O65 1.258 . S
O58 C56 1.247 . S
O58 Zn59 2.028 . S
Zn59 O58 2.028 . S
Zn59 O63 2.035 . S
Zn59 O65 2.035 . S
Zn59 O66 2.028 . S
O60 C56 1.258 . S
O60 Zn61 2.035 . S
Zn61 O60 2.035 . S
Zn61 O62 2.028 . S
Zn61 O64 2.028 . S
Zn61 O67 2.035 . S
O62 Zn61 2.028 . S
O62 C68 1.247 . S
O63 Zn59 2.035 . S
O63 C68 1.258 . S
O64 C57 1.247 . S
O64 Zn61 2.028 . S
O65 C57 1.258 . S
O65 Zn59 2.035 . S
O66 Zn59 2.028 . S
O66 C69 1.247 . S
O67 Zn61 2.035 . S
O67 C69 1.258 . S
C68 O62 1.247 . S
C68 O63 1.258 . S
C69 O66 1.247 . S
C69 O67 1.258 . S
C70 O72 1.247 . S
C70 O74 1.258 . S
C71 O78 1.247 . S
C71 O79 1.258 . S
O72 C70 1.247 . S
O72 Zn73 2.028 . S
Zn73 O72 2.028 . S
Zn73 O77 2.035 . S
Zn73 O79 2.035 . S
Zn73 O80 2.028 . S
O74 C70 1.258 . S
O74 Zn75 2.035 . S
Zn75 O74 2.035 . S
Zn75 O76 2.028 . S
Zn75 O78 2.028 . S
Zn75 O81 2.035 . S
O76 Zn75 2.028 . S
O76 C82 1.247 . S
O77 Zn73 2.035 . S
O77 C82 1.258 . S
O78 C71 1.247 . S
O78 Zn75 2.028 . S
O79 C71 1.258 . S
O79 Zn73 2.035 . S
O80 Zn73 2.028 . S
O80 C83 1.247 . S
O81 Zn75 2.035 . S
O81 C83 1.258 . S
C82 O76 1.247 . S
C82 O77 1.258 . S
C83 O80 1.247 . S
C83 O81 1.258 . S
C84 O86 1.247 . S
C84 O88 1.258 . S
C85 O92 1.247 . S
C85 O93 1.258 . S
O86 C84 1.247 . S
O86 Zn87 2.028 . S
Zn87 O86 2.028 . S
Zn87 O91 2.035 . S
Zn87 O93 2.035 . S
Zn87 O94 2.028 . S
O88 C84 1.258 . S
O88 Zn89 2.035 . S
Zn89 O88 2.035 . S
Zn89 O90 2.028 . S
Zn89 O92 2.028 . S
Zn89 O95 2.035 . S
O90 Zn89 2.028 . S
O90 C96 1.247 . S
O91 Zn87 2.035 . S
O91 C96 1.258 . S
O92 C85 1.247 . S
O92 Zn89 2.028 . S
O93 C85 1.258 . S
O93 Zn87 2.035 . S
O94 Zn87 2.028 . S
O94 C97 1.247 . S
O95 Zn89 2.035 . S
O95 C97 1.258 . S
C96 O90 1.247 . S
C96 O91 1.258 . S
C97 O94 1.247 . S
C97 O95 1.258 . S
C98 O100 1.247 . S
C98 O102 1.258 . S
C99 O106 1.247 . S
C99 O107 1.258 . S
O100 C98 1.247 . S
O100 Zn101 2.028 . S
Zn101 O100 2.028 . S
Zn101 O105 2.035 . S
Zn101 O107 2.035 . S
Zn101 O108 2.028 . S
O102 C98 1.258 . S
O102 Zn103 2.035 . S
Zn103 O102 2.035 . S
Zn103 O104 2.028 . S
Zn103 O106 2.028 . S
Zn103 O109 2.035 . S
O104 Zn103 2.028 . S
O104 C110 1.247 . S
O105 Zn101 2.035 . S
O105 C110 1.258 . S
O106 C99 1.247 . S
O106 Zn103 2.028 . S
O107 C99 1.258 . S
O107 Zn101 2.035 . S
O108 Zn101 2.028 . S
O108 C111 1.247 . S
O109 Zn103 2.035 . S
O109 C111 1.258 . S
C110 O104 1.247 . S
C110 O105 1.258 . S
C111 O108 1.247 . S
C111 O109 1.258 . S
C112 O114 1.247 . S
C112 O116 1.258 . S
C113 O120 1.247 . S
C113 O121 1.258 . S
O114 C112 1.247 . S
O114 Zn115 2.028 . S
Zn115 O114 2.028 . S
Zn115 O119 2.035 . S
Zn115 O121 2.035 . S
Zn115 O122 2.028 . S
O116 C112 1.258 . S
O116 Zn117 2.035 . S
Zn117 O116 2.035 . S
Zn117 O118 2.028 . S
Zn117 O120 2.028 . S
Zn117 O123 2.035 . S
O118 Zn117 2.028 . S
O118 C124 1.247 . S
O119 Zn115 2.035 . S
O119 C124 1.258 . S
O120 C113 1.247 . S
O120 Zn117 2.028 . S
O121 C113 1.258 . S
O121 Zn115 2.035 . S
O122 Zn115 2.028 . S
O122 C125 1.247 . S
O123 Zn117 2.035 . S
O123 C125 1.258 . S
C124 O118 1.247 . S
C124 O119 1.258 . S
C125 O122 1.247 . S
C125 O123 1.258 . S
C126 O128 1.247 . S
C126 O130 1.258 . S
C127 O134 1.247 . S
C127 O135 1.258 . S
O128 C126 1.247 . S
O128 Zn129 2.028 . S
Zn129 O128 2.028 . S
Zn129 O133 2.035 . S
Zn129 O135 2.035 . S
Zn129 O136 2.028 . S
O130 C126 1.258 . S
O130 Zn131 2.035 . S
Zn131 O130 2.035 . S
Zn131 O132 2.028 . S
Zn131 O134 2.028 . S
Zn131 O137 2.035 . S
O132 Zn131 2.028 . S
O132 C138 1.247 . S
O133 Zn129 2.035 . S
O133 C138 1.258 . S
O134 C127 1.247 . S
O134 Zn131 2.028 . S
O135 C127 1.258 . S
O135 Zn129 2.035 . S
O136 Zn129 2.028 . S
O136 C139 1.247 . S
O137 Zn131 2.035 . S
O137 C139 1.258 . S
C138 O132 1.247 . S
C138 O133 1.258 . S
C139 O136 1.247 . S
C139 O137 1.258 . S
C140 O142 1.247 . S
C140 O144 1.258 . S
C141 O148 1.247 . S
C141 O149 1.258 . S
O142 C140 1.247 . S
O142 Zn143 2.028 . S
Zn143 O142 2.028 . S
Zn143 O147 2.035 . S
Zn143 O149 2.035 . S
Zn143 O150 2.028 . S
O144 C140 1.258 . S
O144 Zn145 2.035 . S
Zn145 O144 2.035 . S
Zn145 O146 2.028 . S
Zn145 O148 2.028 . S
Zn145 O151 2.035 . S
O146 Zn145 2.028 . S
O146 C152 1.247 . S
O147 Zn143 2.035 . S
O147 C152 1.258 . S
O148 C141 1.247 . S
O148 Zn145 2.028 . S
O149 C141 1.258 . S
O149 Zn143 2.035 . S
O150 Zn143 2.028 . S
O150 C153 1.247 . S
O151 Zn145 2.035 . S
O151 C153 1.258 . S
C152 O146 1.247 . S
C152 O147 1.258 . S
C153 O150 1.247 . S
C153 O151 1.258 . S
C154 O156 1.247 . S
C154 O158 1.258 . S
C155 O162 1.247 . S
C155 O163 1.258 . S
O156 C154 1.247 . S
O156 Zn157 2.028 . S
Zn157 O156 2.028 . S
Zn157 O161 2.035 . S
Zn157 O163 2.035 . S
Zn157 O164 2.028 . S
O158 C154 1.258 . S
O158 Zn159 2.035 . S
Zn159 O158 2.035 . S
Zn159 O160 2.028 . S
Zn159 O162 2.028 . S
Zn159 O165 2.035 . S
O160 Zn159 2.028 . S
O160 C166 1.247 . S
O161 Zn157 2.035 . S
O161 C166 1.258 . S
O162 C155 1.247 . S
O162 Zn159 2.028 . S
O163 C155 1.258 . S
O163 Zn157 2.035 . S
O164 Zn157 2.028 . S
O164 C167 1.247 . S
O165 Zn159 2.035 . S
O165 C167 1.258 . S
C166 O160 1.247 . S
C166 O161 1.258 . S
C167 O164 1.247 . S
C167 O165 1.258 . S
C168 O170 1.247 . S
C168 O172 1.258 . S
C169 O176 1.247 . S
C169 O177 1.258 . S
O170 C168 1.247 . S
O170 Zn171 2.028 . S
Zn171 O170 2.028 . S
Zn171 O175 2.035 . S
Zn171 O177 2.035 . S
Zn171 O178 2.028 . S
O172 C168 1.258 . S
O172 Zn173 2.035 . S
Zn173 O172 2.035 . S
Zn173 O174 2.028 . S
Zn173 O176 2.028 . S
Zn173 O179 2.035 . S
O174 Zn173 2.028 . S
O174 C180 1.247 . S
O175 Zn171 2.035 . S
O175 C180 1.258 . S
O176 C169 1.247 . S
O176 Zn173 2.028 . S
O177 C169 1.258 . S
O177 Zn171 2.035 . S
O178 Zn171 2.028 . S
O178 C181 1.247 . S
O179 Zn173 2.035 . S
O179 C181 1.258 . S
C180 O174 1.247 . S
C180 O175 1.258 . S
C181 O178 1.247 . S
C181 O179 1.258 . S
C182 O184 1.247 . S
C182 O186 1.258 . S
C183 O190 1.247 . S
C183 O191 1.258 . S
O184 C182 1.247 . S
O184 Zn185 2.028 . S
Zn185 O184 2.028 . S
Zn185 O189 2.035 . S
Zn185 O191 2.035 . S
Zn185 O192 2.028 . S
O186 C182 1.258 . S
O186 Zn187 2.035 . S
Zn187 O186 2.035 . S
Zn187 O188 2.028 . S
Zn187 O190 2.028 . S
Zn187 O193 2.035 . S
O188 Zn187 2.028 . S
O188 C194 1.247 . S
O189 Zn185 2.035 . S
O189 C194 1.258 . S
O190 C183 1.247 . S
O190 Zn187 2.028 . S
O191 C183 1.258 . S
O191 Zn185 2.035 . S
O192 Zn185 2.028 . S
O192 C195 1.247 . S
O193 Zn187 2.035 . S
O193 C195 1.258 . S
C194 O188 1.247 . S
C194 O189 1.258 . S
C195 O192 1.247 . S
C195 O193 1.258 . S
C196 O198 1.247 . S
C196 O200 1.258 . S
C197 O204 1.247 . S
C197 O205 1.258 . S
O198 C196 1.247 . S
O198 Zn199 2.028 . S
Zn199 O198 2.028 . S
Zn199 O203 2.035 . S
Zn199 O205 2.035 . S
Zn199 O206 2.028 . S
O200 C196 1.258 . S
O200 Zn201 2.035 . S
Zn201 O200 2.035 . S
Zn201 O202 2.028 . S
Zn201 O204 2.028 . S
Zn201 O207 2.035 . S
O202 Zn201 2.028 . S
O202 C208 1.247 . S
O203 Zn199 2.035 . S
O203 C208 1.258 . S
O204 C197 1.247 . S
O204 Zn201 2.028 . S
O205 C197 1.258 . S
O205 Zn199 2.035 . S
O206 Zn199 2.028 . S
O206 C209 1.247 . S
O207 Zn201 2.035 . S
O207 C209 1.258 . S
C208 O202 1.247 . S
C208 O203 1.258 . S
C209 O206 1.247 . S
C209 O207 1.258 . S
C210 O212 1.247 . S
C210 O214 1.258 . S
C211 O218 1.247 . S
C211 O219 1.258 . S
O212 C210 1.247 . S
O212 Zn213 2.028 . S
Zn213 O212 2.028 . S
Zn213 O217 2.035 . S
Zn213 O219 2.035 . S
Zn213 O220 2.028 . S
O214 C210 1.258 . S
O214 Zn215 2.035 . S
Zn215 O214 2.035 . S
Zn215 O216 2.028 . S
Zn215 O218 2.028 . S
Zn215 O221 2.035 . S
O216 Zn215 2.028 . S
O216 C222 1.247 . S
O217 Zn213 2.035 . S
O217 C222 1.258 . S
O218 C211 1.247 . S
O218 Zn215 2.028 . S
O219 C211 1.258 . S
O219 Zn213 2.035 . S
O220 Zn213 2.028 . S
O220 C223 1.247 . S
O221 Zn215 2.035 . S
O221 C223 1.258 . S
C222 O216 1.247 . S
C222 O217 1.258 . S
C223 O220 1.247 . S
C223 O221 1.258 . S
H224 C242 0.951 . S
H225 C244 0.951 . S
H226 C246 0.950 . S
H227 C247 0.950 . S
H228 C249 0.950 . S
H229 C252 0.950 . S
H230 C253 0.950 . S
H231 C255 0.950 . S
H232 C256 0.950 . S
H233 C257 0.951 . S
H234 C259 0.951 . S
H235 C261 0.950 . S
H236 C262 0.950 . S
H237 C264 0.950 . S
H238 C267 0.950 . S
H239 C268 0.950 . S
H240 C270 0.950 . S
H241 C271 0.950 . S
C242 H224 0.951 . S
C242 C243 1.366 . S
C242 C244 1.388 . S
C243 C242 1.366 . S
C243 C247 1.385 . S
C244 H225 0.951 . S
C244 C242 1.388 . S
C244 C245 1.366 . S
C245 C244 1.366 . S
C245 C246 1.414 . S
C245 C248 1.499 . S
C246 H226 0.950 . S
C246 C245 1.414 . S
C246 C247 1.374 . S
C247 H227 0.950 . S
C247 C243 1.385 . S
C247 C246 1.374 . S
C248 C245 1.499 . S
C248 C249 1.373 . S
C248 C250 1.389 . S
C249 H228 0.950 . S
C249 C248 1.373 . S
C249 C265 1.377 . S
C250 C248 1.389 . S
C250 C251 1.524 . S
C250 C264 1.377 . S
C251 C250 1.524 . S
C251 C252 1.397 . S
C251 C256 1.363 . S
C252 H229 0.950 . S
C252 C251 1.397 . S
C252 C253 1.334 . S
C253 H230 0.950 . S
C253 C252 1.334 . S
C253 C254 1.287 . S
C254 C253 1.287 . S
C254 C255 1.524 . S
C254 H273 0.913 . S
C255 H231 0.950 . S
C255 C254 1.524 . S
C255 C256 1.415 . S
C256 H232 0.950 . S
C256 C251 1.363 . S
C256 C255 1.415 . S
C257 H233 0.951 . S
C257 C258 1.366 . S
C257 C259 1.388 . S
C258 C257 1.366 . S
C258 C262 1.385 . S
C259 H234 0.951 . S
C259 C257 1.388 . S
C259 C260 1.366 . S
C260 C259 1.366 . S
C260 C261 1.414 . S
C260 C263 1.499 . S
C261 H235 0.950 . S
C261 C260 1.414 . S
C261 C262 1.374 . S
C262 H236 0.950 . S
C262 C258 1.385 . S
C262 C261 1.374 . S
C263 C260 1.499 . S
C263 C264 1.373 . S
C263 C265 1.389 . S
C264 H237 0.950 . S
C264 C250 1.377 . S
C264 C263 1.373 . S
C265 C249 1.377 . S
C265 C263 1.389 . S
C265 C266 1.524 . S
C266 C265 1.524 . S
C266 C267 1.397 . S
C266 C271 1.363 . S
C267 H238 0.950 . S
C267 C266 1.397 . S
C267 C268 1.334 . S
C268 H239 0.950 . S
C268 C267 1.334 . S
C268 C269 1.287 . S
C269 C268 1.287 . S
C269 C270 1.524 . S
C269 H272 0.999 . S
C270 H240 0.950 . S
C270 C269 1.524 . S
C270 C271 1.415 . S
C271 H241 0.950 . S
C271 C266 1.363 . S
C271 C270 1.415 . S
H272 C269 0.999 . S
H273 C254 0.913 . S
H274 C292 0.951 . S
H275 C294 0.951 . S
H276 C296 0.950 . S
H277 C297 0.950 . S
H278 C299 0.950 . S
H279 C302 0.950 . S
H280 C303 0.950 . S
H281 C305 0.950 . S
H282 C306 0.950 . S
H283 C307 0.951 . S
H284 C309 0.951 . S
H285 C311 0.950 . S
H286 C312 0.950 . S
H287 C314 0.950 . S
H288 C317 0.950 . S
H289 C318 0.950 . S
H290 C320 0.950 . S
H291 C321 0.950 . S
C292 H274 0.951 . S
C292 C293 1.366 . S
C292 C294 1.388 . S
C293 C292 1.366 . S
C293 C297 1.385 . S
C294 H275 0.951 . S
C294 C292 1.388 . S
C294 C295 1.366 . S
C295 C294 1.366 . S
C295 C296 1.414 . S
C295 C298 1.499 . S
C296 H276 0.950 . S
C296 C295 1.414 . S
C296 C297 1.374 . S
C297 H277 0.950 . S
C297 C293 1.385 . S
C297 C296 1.374 . S
C298 C295 1.499 . S
C298 C299 1.373 . S
C298 C300 1.389 . S
C299 H278 0.950 . S
C299 C298 1.373 . S
C299 C315 1.377 . S
C300 C298 1.389 . S
C300 C301 1.524 . S
C300 C314 1.377 . S
C301 C300 1.524 . S
C301 C302 1.397 . S
C301 C306 1.363 . S
C302 H279 0.950 . S
C302 C301 1.397 . S
C302 C303 1.334 . S
C303 H280 0.950 . S
C303 C302 1.334 . S
C303 C304 1.287 . S
C304 C303 1.287 . S
C304 C305 1.524 . S
C304 H323 0.913 . S
C305 H281 0.950 . S
C305 C304 1.524 . S
C305 C306 1.415 . S
C306 H282 0.950 . S
C306 C301 1.363 . S
C306 C305 1.415 . S
C307 H283 0.951 . S
C307 C308 1.366 . S
C307 C309 1.388 . S
C308 C307 1.366 . S
C308 C312 1.385 . S
C309 H284 0.951 . S
C309 C307 1.388 . S
C309 C310 1.366 . S
C310 C309 1.366 . S
C310 C311 1.414 . S
C310 C313 1.499 . S
C311 H285 0.950 . S
C311 C310 1.414 . S
C311 C312 1.374 . S
C312 H286 0.950 . S
C312 C308 1.385 . S
C312 C311 1.374 . S
C313 C310 1.499 . S
C313 C314 1.373 . S
C313 C315 1.389 . S
C314 H287 0.950 . S
C314 C300 1.377 . S
C314 C313 1.373 . S
C315 C299 1.377 . S
C315 C313 1.389 . S
C315 C316 1.524 . S
C316 C315 1.524 . S
C316 C317 1.397 . S
C316 C321 1.363 . S
C317 H288 0.950 . S
C317 C316 1.397 . S
C317 C318 1.334 . S
C318 H289 0.950 . S
C318 C317 1.334 . S
C318 C319 1.287 . S
C319 C318 1.287 . S
C319 C320 1.524 . S
C319 H322 0.999 . S
C320 H290 0.950 . S
C320 C319 1.524 . S
C320 C321 1.415 . S
C321 H291 0.950 . S
C321 C316 1.363 . S
C321 C320 1.415 . S
H322 C319 0.999 . S
H323 C304 0.913 . S
H324 C342 0.951 . S
H325 C344 0.951 . S
H326 C346 0.950 . S
H327 C347 0.950 . S
H328 C349 0.950 . S
H329 C352 0.950 . S
H330 C353 0.950 . S
H331 C355 0.950 . S
H332 C356 0.950 . S
H333 C357 0.951 . S
H334 C359 0.951 . S
H335 C361 0.950 . S
H336 C362 0.950 . S
H337 C364 0.950 . S
H338 C367 0.950 . S
H339 C368 0.950 . S
H340 C370 0.950 . S
H341 C371 0.950 . S
C342 H324 0.951 . S
C342 C343 1.366 . S
C342 C344 1.388 . S
C343 C342 1.366 . S
C343 C347 1.385 . S
C344 H325 0.951 . S
C344 C342 1.388 . S
C344 C345 1.366 . S
C345 C344 1.366 . S
C345 C346 1.414 . S
C345 C348 1.499 . S
C346 H326 0.950 . S
C346 C345 1.414 . S
C346 C347 1.374 . S
C347 H327 0.950 . S
C347 C343 1.385 . S
C347 C346 1.374 . S
C348 C345 1.499 . S
C348 C349 1.373 . S
C348 C350 1.389 . S
C349 H328 0.950 . S
C349 C348 1.373 . S
C349 C365 1.377 . S
C350 C348 1.389 . S
C350 C351 1.524 . S
C350 C364 1.377 . S
C351 C350 1.524 . S
C351 C352 1.397 . S
C351 C356 1.363 . S
C352 H329 0.950 . S
C352 C351 1.397 . S
C352 C353 1.334 . S
C353 H330 0.950 . S
C353 C352 1.334 . S
C353 C354 1.287 . S
C354 C353 1.287 . S
C354 C355 1.524 . S
C354 H373 0.913 . S
C355 H331 0.950 . S
C355 C354 1.524 . S
C355 C356 1.415 . S
C356 H332 0.950 . S
C356 C351 1.363 . S
C356 C355 1.415 . S
C357 H333 0.951 . S
C357 C358 1.366 . S
C357 C359 1.388 . S
C358 C357 1.366 . S
C358 C362 1.385 . S
C359 H334 0.951 . S
C359 C357 1.388 . S
C359 C360 1.366 . S
C360 C359 1.366 . S
C360 C361 1.414 . S
C360 C363 1.499 . S
C361 H335 0.950 . S
C361 C360 1.414 . S
C361 C362 1.374 . S
C362 H336 0.950 . S
C362 C358 1.385 . S
C362 C361 1.374 . S
C363 C360 1.499 . S
C363 C364 1.373 . S
C363 C365 1.389 . S
C364 H337 0.950 . S
C364 C350 1.377 . S
C364 C363 1.373 . S
C365 C349 1.377 . S
C365 C363 1.389 . S
C365 C366 1.524 . S
C366 C365 1.524 . S
C366 C367 1.397 . S
C366 C371 1.363 . S
C367 H338 0.950 . S
C367 C366 1.397 . S
C367 C368 1.334 . S
C368 H339 0.950 . S
C368 C367 1.334 . S
C368 C369 1.287 . S
C369 C368 1.287 . S
C369 C370 1.524 . S
C369 H372 0.999 . S
C370 H340 0.950 . S
C370 C369 1.524 . S
C370 C371 1.415 . S
C371 H341 0.950 . S
C371 C366 1.363 . S
C371 C370 1.415 . S
H372 C369 0.999 . S
H373 C354 0.913 . S
H374 C392 0.951 . S
H375 C394 0.951 . S
H376 C396 0.950 . S
H377 C397 0.950 . S
H378 C399 0.950 . S
H379 C402 0.950 . S
H380 C403 0.950 . S
H381 C405 0.950 . S
H382 C406 0.950 . S
H383 C407 0.951 . S
H384 C409 0.951 . S
H385 C411 0.950 . S
H386 C412 0.950 . S
H387 C414 0.950 . S
H388 C417 0.950 . S
H389 C418 0.950 . S
H390 C420 0.950 . S
H391 C421 0.950 . S
C392 H374 0.951 . S
C392 C393 1.366 . S
C392 C394 1.388 . S
C393 C392 1.366 . S
C393 C397 1.385 . S
C394 H375 0.951 . S
C394 C392 1.388 . S
C394 C395 1.366 . S
C395 C394 1.366 . S
C395 C396 1.414 . S
C395 C398 1.499 . S
C396 H376 0.950 . S
C396 C395 1.414 . S
C396 C397 1.374 . S
C397 H377 0.950 . S
C397 C393 1.385 . S
C397 C396 1.374 . S
C398 C395 1.499 . S
C398 C399 1.373 . S
C398 C400 1.389 . S
C399 H378 0.950 . S
C399 C398 1.373 . S
C399 C415 1.377 . S
C400 C398 1.389 . S
C400 C401 1.524 . S
C400 C414 1.377 . S
C401 C400 1.524 . S
C401 C402 1.397 . S
C401 C406 1.363 . S
C402 H379 0.950 . S
C402 C401 1.397 . S
C402 C403 1.334 . S
C403 H380 0.950 . S
C403 C402 1.334 . S
C403 C404 1.287 . S
C404 C403 1.287 . S
C404 C405 1.524 . S
C404 H423 0.913 . S
C405 H381 0.950 . S
C405 C404 1.524 . S
C405 C406 1.415 . S
C406 H382 0.950 . S
C406 C401 1.363 . S
C406 C405 1.415 . S
C407 H383 0.951 . S
C407 C408 1.366 . S
C407 C409 1.388 . S
C408 C407 1.366 . S
C408 C412 1.385 . S
C409 H384 0.951 . S
C409 C407 1.388 . S
C409 C410 1.366 . S
C410 C409 1.366 . S
C410 C411 1.414 . S
C410 C413 1.499 . S
C411 H385 0.950 . S
C411 C410 1.414 . S
C411 C412 1.374 . S
C412 H386 0.950 . S
C412 C408 1.385 . S
C412 C411 1.374 . S
C413 C410 1.499 . S
C413 C414 1.373 . S
C413 C415 1.389 . S
C414 H387 0.950 . S
C414 C400 1.377 . S
C414 C413 1.373 . S
C415 C399 1.377 . S
C415 C413 1.389 . S
C415 C416 1.524 . S
C416 C415 1.524 . S
C416 C417 1.397 . S
C416 C421 1.363 . S
C417 H388 0.950 . S
C417 C416 1.397 . S
C417 C418 1.334 . S
C418 H389 0.950 . S
C418 C417 1.334 . S
C418 C419 1.287 . S
C419 C418 1.287 . S
C419 C420 1.524 . S
C419 H422 0.999 . S
C420 H390 0.950 . S
C420 C419 1.524 . S
C420 C421 1.415 . S
C421 H391 0.950 . S
C421 C416 1.363 . S
C421 C420 1.415 . S
H422 C419 0.999 . S
H423 C404 0.913 . S
H424 C442 0.951 . S
H425 C444 0.951 . S
H426 C446 0.950 . S
H427 C447 0.950 . S
H428 C449 0.950 . S
H429 C452 0.950 . S
H430 C453 0.950 1_565 S
H431 C455 0.950 . S
H432 C456 0.950 . S
H433 C457 0.951 . S
H434 C459 0.951 . S
H435 C461 0.950 . S
H436 C462 0.950 . S
H437 C464 0.950 . S
H438 C467 0.950 . S
H439 C468 0.950 . S
H440 C470 0.950 . S
H441 C471 0.950 . S
C442 H424 0.951 . S
C442 C443 1.366 . S
C442 C444 1.388 1_565 S
C443 C442 1.366 . S
C443 C447 1.385 1_565 S
C444 H425 0.951 . S
C444 C442 1.388 1_545 S
C444 C445 1.366 . S
C445 C444 1.366 . S
C445 C446 1.414 . S
C445 C448 1.539 . S
C446 H426 0.950 . S
C446 C445 1.414 . S
C446 C447 1.374 . S
C447 H427 0.950 . S
C447 C443 1.385 1_545 S
C447 C446 1.374 . S
C448 C445 1.539 . S
C448 C449 1.413 . S
C448 C450 1.315 1_554 S
C449 H428 0.950 . S
C449 C448 1.413 . S
C449 C465 1.377 . S
C450 C448 1.315 1_556 S
C450 C451 1.524 . S
C450 C464 1.377 . S
C451 C450 1.524 . S
C451 C452 1.397 . S
C451 C456 1.363 . S
C452 H429 0.950 . S
C452 C451 1.397 . S
C452 C453 1.334 . S
C453 H430 0.950 1_545 S
C453 C452 1.334 . S
C453 C454 1.287 1_545 S
C454 C453 1.287 1_565 S
C454 C455 1.524 . S
C454 H473 0.913 . S
C455 H431 0.950 . S
C455 C454 1.524 . S
C455 C456 1.415 1_565 S
C456 H432 0.950 . S
C456 C451 1.363 . S
C456 C455 1.415 1_545 S
C457 H433 0.951 . S
C457 C458 1.366 . S
C457 C459 1.388 . S
C458 C457 1.366 . S
C458 C462 1.385 . S
C459 H434 0.951 . S
C459 C457 1.388 . S
C459 C460 1.366 . S
C460 C459 1.366 . S
C460 C461 1.414 . S
C460 C463 1.499 . S
C461 H435 0.950 . S
C461 C460 1.414 . S
C461 C462 1.374 . S
C462 H436 0.950 . S
C462 C458 1.385 . S
C462 C461 1.374 . S
C463 C460 1.499 . S
C463 C464 1.373 . S
C463 C465 1.389 1_556 S
C464 H437 0.950 . S
C464 C450 1.377 . S
C464 C463 1.373 . S
C465 C449 1.377 . S
C465 C463 1.389 1_554 S
C465 C466 1.524 . S
C466 C465 1.524 . S
C466 C467 1.397 . S
C466 C471 1.363 . S
C467 H438 0.950 . S
C467 C466 1.397 . S
C467 C468 1.334 . S
C468 H439 0.950 . S
C468 C467 1.334 . S
C468 C469 1.287 . S
C469 C468 1.287 . S
C469 C470 1.524 . S
C469 H472 0.999 . S
C470 H440 0.950 . S
C470 C469 1.524 . S
C470 C471 1.415 . S
C471 H441 0.950 . S
C471 C466 1.363 . S
C471 C470 1.415 . S
H472 C469 0.999 . S
H473 C454 0.913 . S
H474 C492 0.951 . S
H475 C494 0.951 . S
H476 C496 0.950 . S
H477 C497 0.950 . S
H478 C499 0.950 . S
H479 C502 0.950 . S
H480 C503 0.950 . S
H481 C505 0.950 . S
H482 C506 0.950 . S
H483 C507 0.951 . S
H484 C509 0.951 . S
H485 C511 0.918 1_554 S
H486 C512 0.950 . S
H487 C514 0.950 . S
H488 C517 0.950 . S
H489 C518 0.950 . S
H490 C520 0.950 . S
H491 C521 0.950 . S
C492 H474 0.951 . S
C492 C493 1.366 . S
C492 C494 1.388 . S
C493 C492 1.366 . S
C493 C497 1.385 . S
C494 H475 0.951 . S
C494 C492 1.388 . S
C494 C495 1.366 . S
C495 C494 1.366 . S
C495 C496 1.414 . S
C495 C498 1.499 . S
C496 H476 0.950 . S
C496 C495 1.414 . S
C496 C497 1.374 . S
C497 H477 0.950 . S
C497 C493 1.385 . S
C497 C496 1.374 . S
C498 C495 1.499 . S
C498 C499 1.373 1_554 S
C498 C500 1.389 . S
C499 H478 0.950 . S
C499 C498 1.373 1_556 S
C499 C515 1.377 . S
C500 C498 1.389 . S
C500 C501 1.524 . S
C500 C514 1.377 . S
C501 C500 1.524 . S
C501 C502 1.397 . S
C501 C506 1.363 . S
C502 H479 0.950 . S
C502 C501 1.397 . S
C502 C503 1.334 . S
C503 H480 0.950 . S
C503 C502 1.334 . S
C503 C504 1.287 . S
C504 C503 1.287 . S
C504 C505 1.524 . S
C504 H523 0.913 . S
C505 H481 0.950 . S
C505 C504 1.524 . S
C505 C506 1.415 . S
C506 H482 0.950 . S
C506 C501 1.363 . S
C506 C505 1.415 . S
C507 H483 0.951 . S
C507 C508 1.366 1_455 S
C507 C509 1.388 . S
C508 C507 1.366 1_655 S
C508 C512 1.385 . S
C509 H484 0.951 . S
C509 C507 1.388 . S
C509 C510 1.366 . S
C510 C509 1.366 . S
C510 C511 1.414 . S
C510 C513 1.499 . S
C511 H485 0.918 1_556 S
C511 C510 1.414 . S
C511 C512 1.374 1_455 S
C512 H486 0.950 . S
C512 C508 1.385 . S
C512 C511 1.374 1_655 S
C513 C510 1.499 . S
C513 C514 1.373 1_556 S
C513 C515 1.389 . S
C514 H487 0.950 . S
C514 C500 1.377 . S
C514 C513 1.373 1_554 S
C515 C499 1.377 . S
C515 C513 1.389 . S
C515 C516 1.524 . S
C516 C515 1.524 . S
C516 C517 1.397 . S
C516 C521 1.363 . S
C517 H488 0.950 . S
C517 C516 1.397 . S
C517 C518 1.334 . S
C518 H489 0.950 . S
C518 C517 1.334 . S
C518 C519 1.287 . S
C519 C518 1.287 . S
C519 C520 1.524 . S
C519 H522 0.999 . S
C520 H490 0.950 . S
C520 C519 1.524 . S
C520 C521 1.415 . S
C521 H491 0.950 . S
C521 C516 1.363 . S
C521 C520 1.415 . S
H522 C519 0.999 . S
H523 C504 0.913 . S
H524 C542 0.951 . S
H525 C544 0.951 . S
H526 C546 0.950 . S
H527 C547 0.950 . S
H528 C549 0.972 . S
H529 C552 0.950 . S
H530 C553 0.950 . S
H531 C555 0.950 . S
H532 C556 0.950 . S
H533 C557 0.951 1_545 S
H534 C559 0.951 . S
H535 C561 0.950 1_556 S
H536 C562 0.950 1_545 S
H537 C564 0.950 . S
H538 C567 0.950 . S
H539 C568 0.950 . S
H540 C570 0.950 . S
H541 C571 0.950 . S
C542 H524 0.951 . S
C542 C543 1.366 . S
C542 C544 1.388 . S
C543 C542 1.366 . S
C543 C547 1.385 . S
C544 H525 0.951 . S
C544 C542 1.388 . S
C544 C545 1.366 . S
C545 C544 1.366 . S
C545 C546 1.414 . S
C545 C548 1.499 . S
C546 H526 0.950 . S
C546 C545 1.414 . S
C546 C547 1.374 . S
C547 H527 0.950 . S
C547 C543 1.385 . S
C547 C546 1.374 . S
C548 C545 1.499 . S
C548 C549 1.330 1_556 S
C548 C550 1.389 . S
C549 H528 0.972 . S
C549 C548 1.330 1_554 S
C549 C565 1.400 . S
C550 C548 1.389 . S
C550 C551 1.524 . S
C550 C564 1.377 . S
C551 C550 1.524 . S
C551 C552 1.397 . S
C551 C556 1.363 . S
C552 H529 0.950 . S
C552 C551 1.397 . S
C552 C553 1.334 . S
C553 H530 0.950 . S
C553 C552 1.334 . S
C553 C554 1.287 . S
C554 C553 1.287 . S
C554 C555 1.524 . S
C554 H573 0.913 . S
C555 H531 0.950 . S
C555 C554 1.524 . S
C555 C556 1.415 . S
C556 H532 0.950 . S
C556 C551 1.363 . S
C556 C555 1.415 . S
C557 H533 0.951 1_565 S
C557 C558 1.366 1_565 S
C557 C559 1.388 . S
C558 C557 1.366 1_545 S
C558 C562 1.385 1_545 S
C559 H534 0.951 . S
C559 C557 1.388 . S
C559 C560 1.366 . S
C560 C559 1.366 . S
C560 C561 1.414 . S
C560 C563 1.499 . S
C561 H535 0.950 1_554 S
C561 C560 1.414 . S
C561 C562 1.373 . S
C562 H536 0.950 1_565 S
C562 C558 1.385 1_565 S
C562 C561 1.373 . S
C563 C560 1.499 . S
C563 C564 1.373 1_554 S
C563 C565 1.389 . S
C564 H537 0.950 . S
C564 C550 1.377 . S
C564 C563 1.373 1_556 S
C565 C549 1.400 . S
C565 C563 1.389 . S
C565 C566 1.524 . S
C566 C565 1.524 . S
C566 C567 1.397 . S
C566 C571 1.363 . S
C567 H538 0.950 . S
C567 C566 1.397 . S
C567 C568 1.334 . S
C568 H539 0.950 . S
C568 C567 1.334 . S
C568 C569 1.287 . S
C569 C568 1.287 . S
C569 C570 1.524 . S
C569 H572 0.999 . S
C570 H540 0.950 . S
C570 C569 1.524 . S
C570 C571 1.415 . S
C571 H541 0.950 . S
C571 C566 1.363 . S
C571 C570 1.415 . S
H572 C569 0.999 . S
H573 C554 0.913 . S
H574 C592 0.951 . S
H575 C594 0.951 . S
H576 C596 0.950 . S
H577 C597 0.950 . S
H578 C599 0.950 . S
H579 C602 0.950 . S
H580 C603 0.950 . S
H581 C605 0.950 . S
H582 C606 0.950 . S
H583 C607 0.951 . S
H584 C609 0.951 . S
H585 C611 0.950 1_554 S
H586 C612 0.950 . S
H587 C614 0.950 . S
H588 C617 0.950 1_554 S
H589 C618 0.950 . S
H590 C620 0.950 . S
H591 C621 0.950 . S
C592 H574 0.951 . S
C592 C593 1.366 . S
C592 C594 1.388 . S
C593 C592 1.366 . S
C593 C597 1.385 . S
C594 H575 0.951 . S
C594 C592 1.388 . S
C594 C595 1.366 . S
C595 C594 1.366 . S
C595 C596 1.414 . S
C595 C598 1.499 . S
C596 H576 0.950 . S
C596 C595 1.414 . S
C596 C597 1.374 . S
C597 H577 0.950 . S
C597 C593 1.385 . S
C597 C596 1.374 . S
C598 C595 1.499 . S
C598 C599 1.373 . S
C598 C600 1.389 . S
C599 H578 0.950 . S
C599 C598 1.373 . S
C599 C615 1.377 1_554 S
C600 C598 1.389 . S
C600 C601 1.524 . S
C600 C614 1.377 . S
C601 C600 1.524 . S
C601 C602 1.397 . S
C601 C606 1.363 . S
C602 H579 0.950 . S
C602 C601 1.397 . S
C602 C603 1.334 . S
C603 H580 0.950 . S
C603 C602 1.334 . S
C603 C604 1.287 . S
C604 C603 1.287 . S
C604 C605 1.524 . S
C604 H623 0.913 . S
C605 H581 0.950 . S
C605 C604 1.524 . S
C605 C606 1.415 . S
C606 H582 0.950 . S
C606 C601 1.363 . S
C606 C605 1.415 . S
C607 H583 0.951 . S
C607 C608 1.366 1_655 S
C607 C609 1.388 . S
C608 C607 1.366 1_455 S
C608 C612 1.385 . S
C609 H584 0.951 . S
C609 C607 1.388 . S
C609 C610 1.366 . S
C610 C609 1.366 . S
C610 C611 1.414 . S
C610 C613 1.536 . S
C611 H585 0.950 1_556 S
C611 C610 1.414 . S
C611 C612 1.374 1_655 S
C612 H586 0.950 . S
C612 C608 1.385 . S
C612 C611 1.374 1_455 S
C613 C610 1.536 . S
C613 C614 1.338 1_556 S
C613 C615 1.395 . S
C614 H587 0.950 . S
C614 C600 1.377 . S
C614 C613 1.338 1_554 S
C615 C599 1.377 1_556 S
C615 C613 1.395 . S
C615 C616 1.524 . S
C616 C615 1.524 . S
C616 C617 1.397 . S
C616 C621 1.363 . S
C617 H588 0.950 1_556 S
C617 C616 1.397 . S
C617 C618 1.334 1_655 S
C618 H589 0.950 . S
C618 C617 1.334 1_455 S
C618 C619 1.287 1_455 S
C619 C618 1.287 1_655 S
C619 C620 1.524 . S
C619 H622 0.999 1_655 S
C620 H590 0.950 . S
C620 C619 1.524 . S
C620 C621 1.415 . S
C621 H591 0.950 . S
C621 C616 1.363 . S
C621 C620 1.415 . S
H622 C619 0.999 1_455 S
H623 C604 0.913 . S
H624 C642 0.951 . S
H625 C644 0.951 . S
H626 C646 0.950 . S
H627 C647 0.950 . S
H628 C649 0.950 . S
H629 C652 0.950 . S
H630 C653 0.950 . S
H631 C655 0.950 . S
H632 C656 0.950 . S
H633 C657 0.951 . S
H634 C659 0.951 . S
H635 C661 0.950 . S
H636 C662 0.950 . S
H637 C664 0.950 . S
H638 C667 0.950 . S
H639 C668 0.950 . S
H640 C670 0.950 . S
H641 C671 0.950 . S
C642 H624 0.951 . S
C642 C643 1.366 . S
C642 C644 1.388 . S
C643 C642 1.366 . S
C643 C647 1.385 . S
C644 H625 0.951 . S
C644 C642 1.388 . S
C644 C645 1.366 . S
C645 C644 1.366 . S
C645 C646 1.414 . S
C645 C648 1.499 . S
C646 H626 0.950 . S
C646 C645 1.414 . S
C646 C647 1.374 . S
C647 H627 0.950 . S
C647 C643 1.385 . S
C647 C646 1.374 . S
C648 C645 1.499 . S
C648 C649 1.373 . S
C648 C650 1.389 . S
C649 H628 0.950 . S
C649 C648 1.373 . S
C649 C665 1.377 . S
C650 C648 1.389 . S
C650 C651 1.524 . S
C650 C664 1.377 . S
C651 C650 1.524 . S
C651 C652 1.397 . S
C651 C656 1.363 . S
C652 H629 0.950 . S
C652 C651 1.397 . S
C652 C653 1.334 . S
C653 H630 0.950 . S
C653 C652 1.334 . S
C653 C654 1.287 . S
C654 C653 1.287 . S
C654 C655 1.524 . S
C654 H673 0.913 . S
C655 H631 0.950 . S
C655 C654 1.524 . S
C655 C656 1.415 . S
C656 H632 0.950 . S
C656 C651 1.363 . S
C656 C655 1.415 . S
C657 H633 0.951 . S
C657 C658 1.366 1_565 S
C657 C659 1.388 . S
C658 C657 1.366 1_545 S
C658 C662 1.385 . S
C659 H634 0.951 . S
C659 C657 1.388 . S
C659 C660 1.366 . S
C660 C659 1.366 . S
C660 C661 1.414 . S
C660 C663 1.499 . S
C661 H635 0.950 . S
C661 C660 1.414 . S
C661 C662 1.374 1_565 S
C662 H636 0.950 . S
C662 C658 1.385 . S
C662 C661 1.374 1_545 S
C663 C660 1.499 . S
C663 C664 1.373 . S
C663 C665 1.389 . S
C664 H637 0.950 . S
C664 C650 1.377 . S
C664 C663 1.373 . S
C665 C649 1.377 . S
C665 C663 1.389 . S
C665 C666 1.524 . S
C666 C665 1.524 . S
C666 C667 1.397 . S
C666 C671 1.363 . S
C667 H638 0.950 . S
C667 C666 1.397 . S
C667 C668 1.334 . S
C668 H639 0.950 . S
C668 C667 1.334 . S
C668 C669 1.287 . S
C669 C668 1.287 . S
C669 C670 1.524 . S
C669 H672 0.999 . S
C670 H640 0.950 . S
C670 C669 1.524 . S
C670 C671 1.415 . S
C671 H641 0.950 . S
C671 C666 1.363 . S
C671 C670 1.415 . S
H672 C669 0.999 . S
H673 C654 0.913 . S
H674 C692 0.951 . S
H675 C694 0.951 . S
H676 C696 0.950 . S
H677 C697 0.950 . S
H678 C699 0.950 . S
H679 C702 0.950 . S
H680 C703 0.950 . S
H681 C705 0.950 . S
H682 C706 0.950 . S
H683 C707 0.951 . S
H684 C709 0.951 . S
H685 C711 0.950 . S
H686 C712 0.950 . S
H687 C714 0.950 . S
H688 C717 0.950 . S
H689 C718 0.950 . S
H690 C720 0.950 . S
H691 C721 0.950 . S
C692 H674 0.951 . S
C692 C693 1.366 . S
C692 C694 1.388 1_455 S
C693 C692 1.366 . S
C693 C697 1.385 1_455 S
C694 H675 0.951 . S
C694 C692 1.388 1_655 S
C694 C695 1.366 . S
C695 C694 1.366 . S
C695 C696 1.414 . S
C695 C698 1.499 . S
C696 H676 0.950 . S
C696 C695 1.414 . S
C696 C697 1.374 . S
C697 H677 0.950 . S
C697 C693 1.385 1_655 S
C697 C696 1.374 . S
C698 C695 1.499 . S
C698 C699 1.373 . S
C698 C700 1.389 . S
C699 H678 0.950 . S
C699 C698 1.373 . S
C699 C715 1.377 . S
C700 C698 1.389 . S
C700 C701 1.524 . S
C700 C714 1.377 . S
C701 C700 1.524 . S
C701 C702 1.397 . S
C701 C706 1.363 . S
C702 H679 0.950 . S
C702 C701 1.397 . S
C702 C703 1.334 . S
C703 H680 0.950 . S
C703 C702 1.334 . S
C703 C704 1.287 . S
C704 C703 1.287 . S
C704 C705 1.524 . S
C704 H723 0.913 . S
C705 H681 0.950 . S
C705 C704 1.524 . S
C705 C706 1.415 . S
C706 H682 0.950 . S
C706 C701 1.363 . S
C706 C705 1.415 . S
C707 H683 0.951 . S
C707 C708 1.366 . S
C707 C709 1.388 . S
C708 C707 1.366 . S
C708 C712 1.385 . S
C709 H684 0.951 . S
C709 C707 1.388 . S
C709 C710 1.366 . S
C710 C709 1.366 . S
C710 C711 1.414 . S
C710 C713 1.499 . S
C711 H685 0.950 . S
C711 C710 1.414 . S
C711 C712 1.374 . S
C712 H686 0.950 . S
C712 C708 1.385 . S
C712 C711 1.374 . S
C713 C710 1.499 . S
C713 C714 1.373 . S
C713 C715 1.389 . S
C714 H687 0.950 . S
C714 C700 1.377 . S
C714 C713 1.373 . S
C715 C699 1.377 . S
C715 C713 1.389 . S
C715 C716 1.524 . S
C716 C715 1.524 . S
C716 C717 1.397 . S
C716 C721 1.363 . S
C717 H688 0.950 . S
C717 C716 1.397 . S
C717 C718 1.334 . S
C718 H689 0.950 . S
C718 C717 1.334 . S
C718 C719 1.287 . S
C719 C718 1.287 . S
C719 C720 1.524 . S
C719 H722 0.999 . S
C720 H690 0.950 . S
C720 C719 1.524 . S
C720 C721 1.415 . S
C721 H691 0.950 . S
C721 C716 1.363 . S
C721 C720 1.415 . S
H722 C719 0.999 . S
H723 C704 0.913 . S
H724 C742 0.951 . S
H725 C744 0.951 . S
H726 C746 0.950 . S
H727 C747 0.950 . S
H728 C749 0.950 . S
H729 C752 0.950 . S
H730 C753 0.950 . S
H731 C755 0.950 . S
H732 C756 0.950 . S
H733 C757 0.951 . S
H734 C759 0.951 . S
H735 C761 0.950 . S
H736 C762 0.950 . S
H737 C764 0.950 . S
H738 C767 0.950 . S
H739 C768 0.950 . S
H740 C770 0.950 . S
H741 C771 0.950 . S
C742 H724 0.951 . S
C742 C743 1.366 1_545 S
C742 C744 1.388 . S
C743 C742 1.366 1_565 S
C743 C747 1.385 . S
C744 H725 0.951 . S
C744 C742 1.388 . S
C744 C745 1.366 . S
C745 C744 1.366 . S
C745 C746 1.414 . S
C745 C748 1.499 . S
C746 H726 0.950 . S
C746 C745 1.414 . S
C746 C747 1.374 1_545 S
C747 H727 0.950 . S
C747 C743 1.385 . S
C747 C746 1.374 1_565 S
C748 C745 1.499 . S
C748 C749 1.373 . S
C748 C750 1.389 . S
C749 H728 0.950 . S
C749 C748 1.373 . S
C749 C765 1.377 . S
C750 C748 1.389 . S
C750 C751 1.524 . S
C750 C764 1.377 . S
C751 C750 1.524 . S
C751 C752 1.397 . S
C751 C756 1.363 . S
C752 H729 0.950 . S
C752 C751 1.397 . S
C752 C753 1.334 . S
C753 H730 0.950 . S
C753 C752 1.334 . S
C753 C754 1.287 . S
C754 C753 1.287 . S
C754 C755 1.524 . S
C754 H773 0.913 . S
C755 H731 0.950 . S
C755 C754 1.524 . S
C755 C756 1.415 . S
C756 H732 0.950 . S
C756 C751 1.363 . S
C756 C755 1.415 . S
C757 H733 0.951 . S
C757 C758 1.366 . S
C757 C759 1.388 . S
C758 C757 1.366 . S
C758 C762 1.385 . S
C759 H734 0.951 . S
C759 C757 1.388 . S
C759 C760 1.366 . S
C760 C759 1.366 . S
C760 C761 1.414 . S
C760 C763 1.499 . S
C761 H735 0.950 . S
C761 C760 1.414 . S
C761 C762 1.374 . S
C762 H736 0.950 . S
C762 C758 1.385 . S
C762 C761 1.374 . S
C763 C760 1.499 . S
C763 C764 1.373 . S
C763 C765 1.389 . S
C764 H737 0.950 . S
C764 C750 1.377 . S
C764 C763 1.373 . S
C765 C749 1.377 . S
C765 C763 1.389 . S
C765 C766 1.524 . S
C766 C765 1.524 . S
C766 C767 1.397 . S
C766 C771 1.363 . S
C767 H738 0.950 . S
C767 C766 1.397 . S
C767 C768 1.334 . S
C768 H739 0.950 . S
C768 C767 1.334 . S
C768 C769 1.287 . S
C769 C768 1.287 . S
C769 C770 1.524 . S
C769 H772 0.999 . S
C770 H740 0.950 . S
C770 C769 1.524 . S
C770 C771 1.415 . S
C771 H741 0.950 . S
C771 C766 1.363 . S
C771 C770 1.415 . S
H772 C769 0.999 . S
H773 C754 0.913 . S
H774 C792 0.951 . S
H775 C794 0.951 . S
H776 C796 0.950 . S
H777 C797 0.950 . S
H778 C799 0.950 . S
H779 C802 0.950 . S
H780 C803 0.950 1_655 S
H781 C805 0.950 . S
H782 C806 0.950 . S
H783 C807 0.951 . S
H784 C809 0.951 . S
H785 C811 0.950 . S
H786 C812 0.950 . S
H787 C814 0.950 . S
H788 C817 0.950 . S
H789 C818 0.950 . S
H790 C820 0.950 . S
H791 C821 0.950 . S
C792 H774 0.951 . S
C792 C793 1.366 1_455 S
C792 C794 1.388 . S
C793 C792 1.366 1_655 S
C793 C797 1.385 . S
C794 H775 0.951 . S
C794 C792 1.388 . S
C794 C795 1.366 . S
C795 C794 1.366 . S
C795 C796 1.414 . S
C795 C798 1.499 . S
C796 H776 0.950 . S
C796 C795 1.414 . S
C796 C797 1.374 1_455 S
C797 H777 0.950 . S
C797 C793 1.385 . S
C797 C796 1.374 1_655 S
C798 C795 1.499 . S
C798 C799 1.373 . S
C798 C800 1.389 . S
C799 H778 0.950 . S
C799 C798 1.373 . S
C799 C815 1.377 . S
C800 C798 1.389 . S
C800 C801 1.524 . S
C800 C814 1.377 . S
C801 C800 1.524 . S
C801 C802 1.397 . S
C801 C806 1.363 . S
C802 H779 0.950 . S
C802 C801 1.397 . S
C802 C803 1.334 . S
C803 H780 0.950 1_455 S
C803 C802 1.334 . S
C803 C804 1.287 . S
C804 C803 1.287 . S
C804 C805 1.524 . S
C804 H823 0.913 . S
C805 H781 0.950 . S
C805 C804 1.524 . S
C805 C806 1.415 . S
C806 H782 0.950 . S
C806 C801 1.363 . S
C806 C805 1.415 . S
C807 H783 0.951 . S
C807 C808 1.366 . S
C807 C809 1.388 . S
C808 C807 1.366 . S
C808 C812 1.385 . S
C809 H784 0.951 . S
C809 C807 1.388 . S
C809 C810 1.366 . S
C810 C809 1.366 . S
C810 C811 1.414 . S
C810 C813 1.499 . S
C811 H785 0.950 . S
C811 C810 1.414 . S
C811 C812 1.374 . S
C812 H786 0.950 . S
C812 C808 1.385 . S
C812 C811 1.374 . S
C813 C810 1.499 . S
C813 C814 1.373 . S
C813 C815 1.389 . S
C814 H787 0.950 . S
C814 C800 1.377 . S
C814 C813 1.373 . S
C815 C799 1.377 . S
C815 C813 1.389 . S
C815 C816 1.524 . S
C816 C815 1.524 . S
C816 C817 1.397 . S
C816 C821 1.363 . S
C817 H788 0.950 . S
C817 C816 1.397 . S
C817 C818 1.334 . S
C818 H789 0.950 . S
C818 C817 1.334 . S
C818 C819 1.287 . S
C819 C818 1.287 . S
C819 C820 1.524 . S
C819 H822 0.999 . S
C820 H790 0.950 . S
C820 C819 1.524 . S
C820 C821 1.415 . S
C821 H791 0.950 . S
C821 C816 1.363 . S
C821 C820 1.415 . S
H822 C819 0.999 . S
H823 C804 0.913 . S
H824 C842 0.951 . S
H825 C844 0.951 . S
H826 C846 0.950 . S
H827 C847 0.950 . S
H828 C849 0.950 . S
H829 C852 0.950 . S
H830 C853 0.950 . S
H831 C855 0.950 . S
H832 C856 0.950 . S
H833 C857 0.951 . S
H834 C859 0.951 . S
H835 C861 0.950 . S
H836 C862 0.950 . S
H837 C864 0.950 . S
H838 C867 0.950 . S
H839 C868 0.950 . S
H840 C870 0.950 . S
H841 C871 0.950 . S
C842 H824 0.951 . S
C842 C843 1.366 . S
C842 C844 1.388 . S
C843 C842 1.366 . S
C843 C847 1.385 . S
C844 H825 0.951 . S
C844 C842 1.388 . S
C844 C845 1.366 . S
C845 C844 1.366 . S
C845 C846 1.414 . S
C845 C848 1.499 . S
C846 H826 0.950 . S
C846 C845 1.414 . S
C846 C847 1.374 . S
C847 H827 0.950 . S
C847 C843 1.385 . S
C847 C846 1.374 . S
C848 C845 1.499 . S
C848 C849 1.373 . S
C848 C850 1.389 . S
C849 H828 0.950 . S
C849 C848 1.373 . S
C849 C865 1.377 . S
C850 C848 1.389 . S
C850 C851 1.524 . S
C850 C864 1.377 . S
C851 C850 1.524 . S
C851 C852 1.397 . S
C851 C856 1.363 . S
C852 H829 0.950 . S
C852 C851 1.397 . S
C852 C853 1.334 . S
C853 H830 0.950 . S
C853 C852 1.334 . S
C853 C854 1.287 . S
C854 C853 1.287 . S
C854 C855 1.524 . S
C854 H873 0.913 . S
C855 H831 0.950 . S
C855 C854 1.524 . S
C855 C856 1.415 . S
C856 H832 0.950 . S
C856 C851 1.363 . S
C856 C855 1.415 . S
C857 H833 0.951 . S
C857 C858 1.366 . S
C857 C859 1.388 . S
C858 C857 1.366 . S
C858 C862 1.385 . S
C859 H834 0.951 . S
C859 C857 1.388 . S
C859 C860 1.366 . S
C860 C859 1.366 . S
C860 C861 1.414 . S
C860 C863 1.499 . S
C861 H835 0.950 . S
C861 C860 1.414 . S
C861 C862 1.374 . S
C862 H836 0.950 . S
C862 C858 1.385 . S
C862 C861 1.374 . S
C863 C860 1.499 . S
C863 C864 1.373 . S
C863 C865 1.389 . S
C864 H837 0.950 . S
C864 C850 1.377 . S
C864 C863 1.373 . S
C865 C849 1.377 . S
C865 C863 1.389 . S
C865 C866 1.524 . S
C866 C865 1.524 . S
C866 C867 1.397 . S
C866 C871 1.363 . S
C867 H838 0.950 . S
C867 C866 1.397 . S
C867 C868 1.334 . S
C868 H839 0.950 . S
C868 C867 1.334 . S
C868 C869 1.287 . S
C869 C868 1.287 . S
C869 C870 1.524 . S
C869 H872 0.999 . S
C870 H840 0.950 . S
C870 C869 1.524 . S
C870 C871 1.415 . S
C871 H841 0.950 . S
C871 C866 1.363 . S
C871 C870 1.415 . S
H872 C869 0.999 . S
H873 C854 0.913 . S
H874 C892 0.951 . S
H875 C894 0.951 . S
H876 C896 0.950 . S
H877 C897 0.950 . S
H878 C899 0.950 . S
H879 C902 0.950 . S
H880 C903 0.950 . S
H881 C905 0.950 . S
H882 C906 0.950 . S
H883 C907 0.951 . S
H884 C909 0.951 . S
H885 C911 0.950 . S
H886 C912 0.950 . S
H887 C914 0.950 . S
H888 C917 0.950 . S
H889 C918 0.950 . S
H890 C920 0.950 . S
H891 C921 0.950 . S
C892 H874 0.951 . S
C892 C893 1.366 . S
C892 C894 1.388 . S
C893 C892 1.366 . S
C893 C897 1.385 . S
C894 H875 0.951 . S
C894 C892 1.388 . S
C894 C895 1.366 . S
C895 C894 1.366 . S
C895 C896 1.414 . S
C895 C898 1.499 . S
C896 H876 0.950 . S
C896 C895 1.414 . S
C896 C897 1.374 . S
C897 H877 0.950 . S
C897 C893 1.385 . S
C897 C896 1.374 . S
C898 C895 1.499 . S
C898 C899 1.373 . S
C898 C900 1.389 . S
C899 H878 0.950 . S
C899 C898 1.373 . S
C899 C915 1.377 . S
C900 C898 1.389 . S
C900 C901 1.524 . S
C900 C914 1.377 . S
C901 C900 1.524 . S
C901 C902 1.397 . S
C901 C906 1.363 . S
C902 H879 0.950 . S
C902 C901 1.397 . S
C902 C903 1.334 . S
C903 H880 0.950 . S
C903 C902 1.334 . S
C903 C904 1.287 . S
C904 C903 1.287 . S
C904 C905 1.524 . S
C904 H923 0.913 . S
C905 H881 0.950 . S
C905 C904 1.524 . S
C905 C906 1.415 . S
C906 H882 0.950 . S
C906 C901 1.363 . S
C906 C905 1.415 . S
C907 H883 0.951 . S
C907 C908 1.366 . S
C907 C909 1.388 . S
C908 C907 1.366 . S
C908 C912 1.385 . S
C909 H884 0.951 . S
C909 C907 1.388 . S
C909 C910 1.366 . S
C910 C909 1.366 . S
C910 C911 1.414 . S
C910 C913 1.499 . S
C911 H885 0.950 . S
C911 C910 1.414 . S
C911 C912 1.374 . S
C912 H886 0.950 . S
C912 C908 1.385 . S
C912 C911 1.374 . S
C913 C910 1.499 . S
C913 C914 1.373 . S
C913 C915 1.389 . S
C914 H887 0.950 . S
C914 C900 1.377 . S
C914 C913 1.373 . S
C915 C899 1.377 . S
C915 C913 1.389 . S
C915 C916 1.524 . S
C916 C915 1.524 . S
C916 C917 1.397 . S
C916 C921 1.363 . S
C917 H888 0.950 . S
C917 C916 1.397 . S
C917 C918 1.334 . S
C918 H889 0.950 . S
C918 C917 1.334 . S
C918 C919 1.287 . S
C919 C918 1.287 . S
C919 C920 1.524 . S
C919 H922 0.999 . S
C920 H890 0.950 . S
C920 C919 1.524 . S
C920 C921 1.415 . S
C921 H891 0.950 . S
C921 C916 1.363 . S
C921 C920 1.415 . S
H922 C919 0.999 . S
H923 C904 0.913 . S
H924 C942 0.951 . S
H925 C944 0.951 . S
H926 C946 0.950 . S
H927 C947 0.950 . S
H928 C949 0.950 . S
H929 C952 0.950 . S
H930 C953 0.950 . S
H931 C955 0.950 . S
H932 C956 0.950 . S
H933 C957 0.951 . S
H934 C959 0.951 . S
H935 C961 0.950 . S
H936 C962 0.950 . S
H937 C964 0.950 . S
H938 C967 0.950 . S
H939 C968 0.950 . S
H940 C970 0.950 . S
H941 C971 0.950 . S
C942 H924 0.951 . S
C942 C943 1.366 . S
C942 C944 1.388 . S
C943 C942 1.366 . S
C943 C947 1.385 . S
C944 H925 0.951 . S
C944 C942 1.388 . S
C944 C945 1.366 . S
C945 C944 1.366 . S
C945 C946 1.414 . S
C945 C948 1.499 . S
C946 H926 0.950 . S
C946 C945 1.414 . S
C946 C947 1.374 . S
C947 H927 0.950 . S
C947 C943 1.385 . S
C947 C946 1.374 . S
C948 C945 1.499 . S
C948 C949 1.373 . S
C948 C950 1.389 . S
C949 H928 0.950 . S
C949 C948 1.373 . S
C949 C965 1.377 . S
C950 C948 1.389 . S
C950 C951 1.524 . S
C950 C964 1.377 . S
C951 C950 1.524 . S
C951 C952 1.397 . S
C951 C956 1.363 . S
C952 H929 0.950 . S
C952 C951 1.397 . S
C952 C953 1.334 . S
C953 H930 0.950 . S
C953 C952 1.334 . S
C953 C954 1.287 . S
C954 C953 1.287 . S
C954 C955 1.524 . S
C954 H973 0.913 . S
C955 H931 0.950 . S
C955 C954 1.524 . S
C955 C956 1.415 . S
C956 H932 0.950 . S
C956 C951 1.363 . S
C956 C955 1.415 . S
C957 H933 0.951 . S
C957 C958 1.366 . S
C957 C959 1.388 . S
C958 C957 1.366 . S
C958 C962 1.385 . S
C959 H934 0.951 . S
C959 C957 1.388 . S
C959 C960 1.366 . S
C960 C959 1.366 . S
C960 C961 1.414 . S
C960 C963 1.499 . S
C961 H935 0.950 . S
C961 C960 1.414 . S
C961 C962 1.374 . S
C962 H936 0.950 . S
C962 C958 1.385 . S
C962 C961 1.374 . S
C963 C960 1.499 . S
C963 C964 1.373 . S
C963 C965 1.389 . S
C964 H937 0.950 . S
C964 C950 1.377 . S
C964 C963 1.373 . S
C965 C949 1.377 . S
C965 C963 1.389 . S
C965 C966 1.524 . S
C966 C965 1.524 . S
C966 C967 1.397 . S
C966 C971 1.363 . S
C967 H938 0.950 . S
C967 C966 1.397 . S
C967 C968 1.334 . S
C968 H939 0.950 . S
C968 C967 1.334 . S
C968 C969 1.287 . S
C969 C968 1.287 . S
C969 C970 1.524 . S
C969 H972 0.999 . S
C970 H940 0.950 . S
C970 C969 1.524 . S
C970 C971 1.415 . S
C971 H941 0.950 . S
C971 C966 1.363 . S
C971 C970 1.415 . S
H972 C969 0.999 . S
H973 C954 0.913 . S
H974 C992 0.951 . S
H975 C994 0.951 . S
H976 C996 0.950 . S
H977 C997 0.950 . S
H978 C999 0.950 . S
H979 C1002 0.950 . S
H980 C1003 0.950 . S
H981 C1005 0.950 . S
H982 C1006 0.950 . S
H983 C1007 0.951 . S
H984 C1009 0.951 . S
H985 C1011 0.950 . S
H986 C1012 0.950 . S
H987 C1014 0.950 . S
H988 C1017 0.950 . S
H989 C1018 0.950 . S
H990 C1020 0.950 . S
H991 C1021 0.950 . S
C992 H974 0.951 . S
C992 C993 1.366 . S
C992 C994 1.388 . S
C993 C992 1.366 . S
C993 C997 1.385 . S
C994 H975 0.951 . S
C994 C992 1.388 . S
C994 C995 1.366 . S
C995 C994 1.366 . S
C995 C996 1.414 . S
C995 C998 1.499 . S
C996 H976 0.950 . S
C996 C995 1.414 . S
C996 C997 1.374 . S
C997 H977 0.950 . S
C997 C993 1.385 . S
C997 C996 1.374 . S
C998 C995 1.499 . S
C998 C999 1.373 . S
C998 C1000 1.389 . S
C999 H978 0.950 . S
C999 C998 1.373 . S
C999 C1015 1.377 . S
C1000 C998 1.389 . S
C1000 C1001 1.524 . S
C1000 C1014 1.377 . S
C1001 C1000 1.524 . S
C1001 C1002 1.397 . S
C1001 C1006 1.363 . S
C1002 H979 0.950 . S
C1002 C1001 1.397 . S
C1002 C1003 1.334 . S
C1003 H980 0.950 . S
C1003 C1002 1.334 . S
C1003 C1004 1.287 . S
C1004 C1003 1.287 . S
C1004 C1005 1.524 . S
C1004 H1023 0.913 . S
C1005 H981 0.950 . S
C1005 C1004 1.524 . S
C1005 C1006 1.415 . S
C1006 H982 0.950 . S
C1006 C1001 1.363 . S
C1006 C1005 1.415 . S
C1007 H983 0.951 . S
C1007 C1008 1.366 . S
C1007 C1009 1.388 . S
C1008 C1007 1.366 . S
C1008 C1012 1.385 . S
C1009 H984 0.951 . S
C1009 C1007 1.388 . S
C1009 C1010 1.366 . S
C1010 C1009 1.366 . S
C1010 C1011 1.414 . S
C1010 C1013 1.499 . S
C1011 H985 0.950 . S
C1011 C1010 1.414 . S
C1011 C1012 1.374 . S
C1012 H986 0.950 . S
C1012 C1008 1.385 . S
C1012 C1011 1.374 . S
C1013 C1010 1.499 . S
C1013 C1014 1.373 . S
C1013 C1015 1.389 . S
C1014 H987 0.950 . S
C1014 C1000 1.377 . S
C1014 C1013 1.373 . S
C1015 C999 1.377 . S
C1015 C1013 1.389 . S
C1015 C1016 1.524 . S
C1016 C1015 1.524 . S
C1016 C1017 1.397 . S
C1016 C1021 1.363 . S
C1017 H988 0.950 . S
C1017 C1016 1.397 . S
C1017 C1018 1.334 . S
C1018 H989 0.950 . S
C1018 C1017 1.334 . S
C1018 C1019 1.287 . S
C1019 C1018 1.287 . S
C1019 C1020 1.524 . S
C1019 H1022 0.999 . S
C1020 H990 0.950 . S
C1020 C1019 1.524 . S
C1020 C1021 1.415 . S
C1021 H991 0.950 . S
C1021 C1016 1.363 . S
C1021 C1020 1.415 . S
H1022 C1019 0.999 . S
H1023 C1004 0.913 . S
H1024 C1042 0.951 . S
H1025 C1044 0.951 . S
H1026 C1046 0.950 . S
H1027 C1047 0.950 . S
H1028 C1049 0.950 . S
H1029 C1052 0.950 . S
H1030 C1053 0.950 . S
H1031 C1055 0.950 . S
H1032 C1056 0.950 . S
H1033 C1057 0.951 . S
H1034 C1059 0.951 . S
H1035 C1061 0.950 . S
H1036 C1062 0.950 . S
H1037 C1064 0.950 . S
H1038 C1067 0.950 . S
H1039 C1068 0.950 . S
H1040 C1070 0.950 . S
H1041 C1071 0.950 . S
C1042 H1024 0.951 . S
C1042 C1043 1.366 . S
C1042 C1044 1.388 . S
C1043 C1042 1.366 . S
C1043 C1047 1.385 . S
C1044 H1025 0.951 . S
C1044 C1042 1.388 . S
C1044 C1045 1.366 . S
C1045 C1044 1.366 . S
C1045 C1046 1.414 . S
C1045 C1048 1.499 . S
C1046 H1026 0.950 . S
C1046 C1045 1.414 . S
C1046 C1047 1.374 . S
C1047 H1027 0.950 . S
C1047 C1043 1.385 . S
C1047 C1046 1.374 . S
C1048 C1045 1.499 . S
C1048 C1049 1.373 . S
C1048 C1050 1.389 . S
C1049 H1028 0.950 . S
C1049 C1048 1.373 . S
C1049 C1065 1.377 . S
C1050 C1048 1.389 . S
C1050 C1051 1.524 . S
C1050 C1064 1.377 . S
C1051 C1050 1.524 . S
C1051 C1052 1.397 . S
C1051 C1056 1.363 . S
C1052 H1029 0.950 . S
C1052 C1051 1.397 . S
C1052 C1053 1.334 . S
C1053 H1030 0.950 . S
C1053 C1052 1.334 . S
C1053 C1054 1.287 . S
C1054 C1053 1.287 . S
C1054 C1055 1.524 . S
C1054 H1073 0.913 . S
C1055 H1031 0.950 . S
C1055 C1054 1.524 . S
C1055 C1056 1.415 . S
C1056 H1032 0.950 . S
C1056 C1051 1.363 . S
C1056 C1055 1.415 . S
C1057 H1033 0.951 . S
C1057 C1058 1.366 . S
C1057 C1059 1.388 . S
C1058 C1057 1.366 . S
C1058 C1062 1.385 . S
C1059 H1034 0.951 . S
C1059 C1057 1.388 . S
C1059 C1060 1.366 . S
C1060 C1059 1.366 . S
C1060 C1061 1.414 . S
C1060 C1063 1.499 . S
C1061 H1035 0.950 . S
C1061 C1060 1.414 . S
C1061 C1062 1.374 . S
C1062 H1036 0.950 . S
C1062 C1058 1.385 . S
C1062 C1061 1.374 . S
C1063 C1060 1.499 . S
C1063 C1064 1.373 . S
C1063 C1065 1.389 . S
C1064 H1037 0.950 . S
C1064 C1050 1.377 . S
C1064 C1063 1.373 . S
C1065 C1049 1.377 . S
C1065 C1063 1.389 . S
C1065 C1066 1.524 . S
C1066 C1065 1.524 . S
C1066 C1067 1.397 . S
C1066 C1071 1.363 . S
C1067 H1038 0.950 . S
C1067 C1066 1.397 . S
C1067 C1068 1.334 . S
C1068 H1039 0.950 . S
C1068 C1067 1.334 . S
C1068 C1069 1.287 . S
C1069 C1068 1.287 . S
C1069 C1070 1.524 . S
C1069 H1072 0.999 . S
C1070 H1040 0.950 . S
C1070 C1069 1.524 . S
C1070 C1071 1.415 . S
C1071 H1041 0.950 . S
C1071 C1066 1.363 . S
C1071 C1070 1.415 . S
H1072 C1069 0.999 . S
H1073 C1054 0.913 . S
H1074 C1092 0.951 . S
H1075 C1094 0.951 . S
H1076 C1096 0.950 . S
H1077 C1097 0.950 . S
H1078 C1099 0.950 . S
H1079 C1102 0.950 . S
H1080 C1103 0.950 . S
H1081 C1105 0.950 . S
H1082 C1106 0.950 . S
H1083 C1107 0.951 . S
H1084 C1109 0.951 . S
H1085 C1111 0.950 . S
H1086 C1112 0.950 . S
H1087 C1114 0.950 . S
H1088 C1117 0.950 . S
H1089 C1118 0.950 . S
H1090 C1120 0.950 . S
H1091 C1121 0.950 . S
C1092 H1074 0.951 . S
C1092 C1093 1.366 . S
C1092 C1094 1.388 . S
C1093 C1092 1.366 . S
C1093 C1097 1.385 . S
C1094 H1075 0.951 . S
C1094 C1092 1.388 . S
C1094 C1095 1.366 . S
C1095 C1094 1.366 . S
C1095 C1096 1.414 . S
C1095 C1098 1.499 . S
C1096 H1076 0.950 . S
C1096 C1095 1.414 . S
C1096 C1097 1.374 . S
C1097 H1077 0.950 . S
C1097 C1093 1.385 . S
C1097 C1096 1.374 . S
C1098 C1095 1.499 . S
C1098 C1099 1.373 . S
C1098 C1100 1.389 . S
C1099 H1078 0.950 . S
C1099 C1098 1.373 . S
C1099 C1115 1.377 . S
C1100 C1098 1.389 . S
C1100 C1101 1.524 . S
C1100 C1114 1.377 . S
C1101 C1100 1.524 . S
C1101 C1102 1.397 . S
C1101 C1106 1.363 . S
C1102 H1079 0.950 . S
C1102 C1101 1.397 . S
C1102 C1103 1.334 . S
C1103 H1080 0.950 . S
C1103 C1102 1.334 . S
C1103 C1104 1.287 . S
C1104 C1103 1.287 . S
C1104 C1105 1.524 . S
C1104 H1123 0.913 . S
C1105 H1081 0.950 . S
C1105 C1104 1.524 . S
C1105 C1106 1.415 . S
C1106 H1082 0.950 . S
C1106 C1101 1.363 . S
C1106 C1105 1.415 . S
C1107 H1083 0.951 . S
C1107 C1108 1.366 . S
C1107 C1109 1.388 . S
C1108 C1107 1.366 . S
C1108 C1112 1.385 . S
C1109 H1084 0.951 . S
C1109 C1107 1.388 . S
C1109 C1110 1.366 . S
C1110 C1109 1.366 . S
C1110 C1111 1.414 . S
C1110 C1113 1.499 . S
C1111 H1085 0.950 . S
C1111 C1110 1.414 . S
C1111 C1112 1.374 . S
C1112 H1086 0.950 . S
C1112 C1108 1.385 . S
C1112 C1111 1.374 . S
C1113 C1110 1.499 . S
C1113 C1114 1.373 . S
C1113 C1115 1.389 . S
C1114 H1087 0.950 . S
C1114 C1100 1.377 . S
C1114 C1113 1.373 . S
C1115 C1099 1.377 . S
C1115 C1113 1.389 . S
C1115 C1116 1.524 . S
C1116 C1115 1.524 . S
C1116 C1117 1.397 . S
C1116 C1121 1.363 . S
C1117 H1088 0.950 . S
C1117 C1116 1.397 . S
C1117 C1118 1.334 . S
C1118 H1089 0.950 . S
C1118 C1117 1.334 . S
C1118 C1119 1.287 . S
C1119 C1118 1.287 . S
C1119 C1120 1.524 . S
C1119 H1122 0.999 . S
C1120 H1090 0.950 . S
C1120 C1119 1.524 . S
C1120 C1121 1.415 . S
C1121 H1091 0.950 . S
C1121 C1116 1.363 . S
C1121 C1120 1.415 . S
H1122 C1119 0.999 . S
H1123 C1104 0.913 . S
H1124 C1142 0.951 . S
H1125 C1144 0.951 . S
H1126 C1146 0.950 . S
H1127 C1147 0.950 . S
H1128 C1149 0.950 . S
H1129 C1152 0.950 . S
H1130 C1153 0.950 . S
H1131 C1155 0.950 . S
H1132 C1156 0.950 . S
H1133 C1157 0.951 . S
H1134 C1159 0.951 . S
H1135 C1161 0.950 . S
H1136 C1162 0.950 . S
H1137 C1164 0.950 . S
H1138 C1167 0.950 . S
H1139 C1168 0.950 . S
H1140 C1170 0.950 . S
H1141 C1171 0.950 . S
C1142 H1124 0.951 . S
C1142 C1143 1.366 . S
C1142 C1144 1.388 . S
C1143 C1142 1.366 . S
C1143 C1147 1.385 . S
C1144 H1125 0.951 . S
C1144 C1142 1.388 . S
C1144 C1145 1.366 . S
C1145 C1144 1.366 . S
C1145 C1146 1.414 . S
C1145 C1148 1.499 . S
C1146 H1126 0.950 . S
C1146 C1145 1.414 . S
C1146 C1147 1.374 . S
C1147 H1127 0.950 . S
C1147 C1143 1.385 . S
C1147 C1146 1.374 . S
C1148 C1145 1.499 . S
C1148 C1149 1.373 . S
C1148 C1150 1.389 . S
C1149 H1128 0.950 . S
C1149 C1148 1.373 . S
C1149 C1165 1.377 . S
C1150 C1148 1.389 . S
C1150 C1151 1.524 . S
C1150 C1164 1.377 . S
C1151 C1150 1.524 . S
C1151 C1152 1.397 . S
C1151 C1156 1.363 . S
C1152 H1129 0.950 . S
C1152 C1151 1.397 . S
C1152 C1153 1.334 . S
C1153 H1130 0.950 . S
C1153 C1152 1.334 . S
C1153 C1154 1.287 . S
C1154 C1153 1.287 . S
C1154 C1155 1.524 . S
C1154 H1173 0.913 . S
C1155 H1131 0.950 . S
C1155 C1154 1.524 . S
C1155 C1156 1.415 . S
C1156 H1132 0.950 . S
C1156 C1151 1.363 . S
C1156 C1155 1.415 . S
C1157 H1133 0.951 . S
C1157 C1158 1.366 . S
C1157 C1159 1.388 . S
C1158 C1157 1.366 . S
C1158 C1162 1.385 . S
C1159 H1134 0.951 . S
C1159 C1157 1.388 . S
C1159 C1160 1.366 . S
C1160 C1159 1.366 . S
C1160 C1161 1.414 . S
C1160 C1163 1.499 . S
C1161 H1135 0.950 . S
C1161 C1160 1.414 . S
C1161 C1162 1.374 . S
C1162 H1136 0.950 . S
C1162 C1158 1.385 . S
C1162 C1161 1.374 . S
C1163 C1160 1.499 . S
C1163 C1164 1.373 . S
C1163 C1165 1.389 . S
C1164 H1137 0.950 . S
C1164 C1150 1.377 . S
C1164 C1163 1.373 . S
C1165 C1149 1.377 . S
C1165 C1163 1.389 . S
C1165 C1166 1.524 . S
C1166 C1165 1.524 . S
C1166 C1167 1.397 . S
C1166 C1171 1.363 . S
C1167 H1138 0.950 . S
C1167 C1166 1.397 . S
C1167 C1168 1.334 . S
C1168 H1139 0.950 . S
C1168 C1167 1.334 . S
C1168 C1169 1.287 . S
C1169 C1168 1.287 . S
C1169 C1170 1.524 . S
C1169 H1172 0.999 . S
C1170 H1140 0.950 . S
C1170 C1169 1.524 . S
C1170 C1171 1.415 . S
C1171 H1141 0.950 . S
C1171 C1166 1.363 . S
C1171 C1170 1.415 . S
H1172 C1169 0.999 . S
H1173 C1154 0.913 . S
H1174 C1192 0.951 . S
H1175 C1194 0.951 . S
H1176 C1196 0.950 . S
H1177 C1197 0.950 . S
H1178 C1199 0.950 . S
H1179 C1202 0.950 . S
H1180 C1203 0.950 . S
H1181 C1205 0.950 . S
H1182 C1206 0.950 . S
H1183 C1207 0.951 . S
H1184 C1209 0.951 . S
H1185 C1211 0.950 . S
H1186 C1212 0.950 . S
H1187 C1214 0.950 . S
H1188 C1217 0.950 . S
H1189 C1218 0.950 . S
H1190 C1220 0.950 . S
H1191 C1221 0.950 . S
C1192 H1174 0.951 . S
C1192 C1193 1.366 . S
C1192 C1194 1.388 . S
C1193 C1192 1.366 . S
C1193 C1197 1.385 . S
C1194 H1175 0.951 . S
C1194 C1192 1.388 . S
C1194 C1195 1.366 . S
C1195 C1194 1.366 . S
C1195 C1196 1.414 . S
C1195 C1198 1.499 . S
C1196 H1176 0.950 . S
C1196 C1195 1.414 . S
C1196 C1197 1.374 . S
C1197 H1177 0.950 . S
C1197 C1193 1.385 . S
C1197 C1196 1.374 . S
C1198 C1195 1.499 . S
C1198 C1199 1.373 . S
C1198 C1200 1.389 . S
C1199 H1178 0.950 . S
C1199 C1198 1.373 . S
C1199 C1215 1.377 . S
C1200 C1198 1.389 . S
C1200 C1201 1.524 . S
C1200 C1214 1.377 . S
C1201 C1200 1.524 . S
C1201 C1202 1.397 . S
C1201 C1206 1.363 . S
C1202 H1179 0.950 . S
C1202 C1201 1.397 . S
C1202 C1203 1.334 . S
C1203 H1180 0.950 . S
C1203 C1202 1.334 . S
C1203 C1204 1.287 . S
C1204 C1203 1.287 . S
C1204 C1205 1.524 . S
C1204 H1223 0.913 . S
C1205 H1181 0.950 . S
C1205 C1204 1.524 . S
C1205 C1206 1.415 . S
C1206 H1182 0.950 . S
C1206 C1201 1.363 . S
C1206 C1205 1.415 . S
C1207 H1183 0.951 . S
C1207 C1208 1.366 . S
C1207 C1209 1.388 . S
C1208 C1207 1.366 . S
C1208 C1212 1.385 . S
C1209 H1184 0.951 . S
C1209 C1207 1.388 . S
C1209 C1210 1.366 . S
C1210 C1209 1.366 . S
C1210 C1211 1.414 . S
C1210 C1213 1.499 . S
C1211 H1185 0.950 . S
C1211 C1210 1.414 . S
C1211 C1212 1.374 . S
C1212 H1186 0.950 . S
C1212 C1208 1.385 . S
C1212 C1211 1.374 . S
C1213 C1210 1.499 . S
C1213 C1214 1.373 . S
C1213 C1215 1.389 . S
C1214 H1187 0.950 . S
C1214 C1200 1.377 . S
C1214 C1213 1.373 . S
C1215 C1199 1.377 . S
C1215 C1213 1.389 . S
C1215 C1216 1.524 . S
C1216 C1215 1.524 . S
C1216 C1217 1.397 . S
C1216 C1221 1.363 . S
C1217 H1188 0.950 . S
C1217 C1216 1.397 . S
C1217 C1218 1.334 . S
C1218 H1189 0.950 . S
C1218 C1217 1.334 . S
C1218 C1219 1.287 . S
C1219 C1218 1.287 . S
C1219 C1220 1.524 . S
C1219 H1222 0.999 . S
C1220 H1190 0.950 . S
C1220 C1219 1.524 . S
C1220 C1221 1.415 . S
C1221 H1191 0.950 . S
C1221 C1216 1.363 . S
C1221 C1220 1.415 . S
H1222 C1219 0.999 . S
H1223 C1204 0.913 . S
H1224 C1242 0.951 . S
H1225 C1244 0.951 . S
H1226 C1246 0.950 . S
H1227 C1247 0.950 . S
H1228 C1249 0.950 . S
H1229 C1252 0.950 . S
H1230 C1253 0.950 . S
H1231 C1255 0.950 . S
H1232 C1256 0.950 . S
H1233 C1257 0.951 . S
H1234 C1259 0.951 . S
H1235 C1261 0.950 . S
H1236 C1262 0.950 . S
H1237 C1264 0.950 . S
H1238 C1267 0.950 . S
H1239 C1268 0.950 . S
H1240 C1270 0.950 . S
H1241 C1271 0.950 . S
C1242 H1224 0.951 . S
C1242 C1243 1.366 . S
C1242 C1244 1.388 . S
C1243 C1242 1.366 . S
C1243 C1247 1.385 . S
C1244 H1225 0.951 . S
C1244 C1242 1.388 . S
C1244 C1245 1.366 . S
C1245 C1244 1.366 . S
C1245 C1246 1.414 . S
C1245 C1248 1.499 . S
C1246 H1226 0.950 . S
C1246 C1245 1.414 . S
C1246 C1247 1.374 . S
C1247 H1227 0.950 . S
C1247 C1243 1.385 . S
C1247 C1246 1.374 . S
C1248 C1245 1.499 . S
C1248 C1249 1.373 . S
C1248 C1250 1.389 . S
C1249 H1228 0.950 . S
C1249 C1248 1.373 . S
C1249 C1265 1.377 . S
C1250 C1248 1.389 . S
C1250 C1251 1.524 . S
C1250 C1264 1.377 . S
C1251 C1250 1.524 . S
C1251 C1252 1.397 . S
C1251 C1256 1.363 . S
C1252 H1229 0.950 . S
C1252 C1251 1.397 . S
C1252 C1253 1.334 . S
C1253 H1230 0.950 . S
C1253 C1252 1.334 . S
C1253 C1254 1.287 . S
C1254 C1253 1.287 . S
C1254 C1255 1.524 . S
C1254 H1273 0.913 . S
C1255 H1231 0.950 . S
C1255 C1254 1.524 . S
C1255 C1256 1.415 . S
C1256 H1232 0.950 . S
C1256 C1251 1.363 . S
C1256 C1255 1.415 . S
C1257 H1233 0.951 . S
C1257 C1258 1.366 . S
C1257 C1259 1.388 . S
C1258 C1257 1.366 . S
C1258 C1262 1.385 . S
C1259 H1234 0.951 . S
C1259 C1257 1.388 . S
C1259 C1260 1.366 . S
C1260 C1259 1.366 . S
C1260 C1261 1.414 . S
C1260 C1263 1.499 . S
C1261 H1235 0.950 . S
C1261 C1260 1.414 . S
C1261 C1262 1.374 . S
C1262 H1236 0.950 . S
C1262 C1258 1.385 . S
C1262 C1261 1.374 . S
C1263 C1260 1.499 . S
C1263 C1264 1.373 . S
C1263 C1265 1.389 . S
C1264 H1237 0.950 . S
C1264 C1250 1.377 . S
C1264 C1263 1.373 . S
C1265 C1249 1.377 . S
C1265 C1263 1.389 . S
C1265 C1266 1.524 . S
C1266 C1265 1.524 . S
C1266 C1267 1.397 . S
C1266 C1271 1.363 . S
C1267 H1238 0.950 . S
C1267 C1266 1.397 . S
C1267 C1268 1.334 . S
C1268 H1239 0.950 . S
C1268 C1267 1.334 . S
C1268 C1269 1.287 . S
C1269 C1268 1.287 . S
C1269 C1270 1.524 . S
C1269 H1272 0.999 . S
C1270 H1240 0.950 . S
C1270 C1269 1.524 . S
C1270 C1271 1.415 . S
C1271 H1241 0.950 . S
C1271 C1266 1.363 . S
C1271 C1270 1.415 . S
H1272 C1269 0.999 . S
H1273 C1254 0.913 . S
H1274 C1292 0.951 . S
H1275 C1294 0.951 . S
H1276 C1296 0.950 . S
H1277 C1297 0.950 . S
H1278 C1299 0.950 . S
H1279 C1302 0.950 . S
H1280 C1303 0.950 . S
H1281 C1305 0.950 . S
H1282 C1306 0.950 . S
H1283 C1307 0.951 . S
H1284 C1309 0.951 . S
H1285 C1311 0.950 . S
H1286 C1312 0.950 . S
H1287 C1314 0.950 . S
H1288 C1317 0.950 . S
H1289 C1318 0.950 . S
H1290 C1320 0.950 . S
H1291 C1321 0.950 . S
C1292 H1274 0.951 . S
C1292 C1293 1.366 . S
C1292 C1294 1.388 . S
C1293 C1292 1.366 . S
C1293 C1297 1.385 . S
C1294 H1275 0.951 . S
C1294 C1292 1.388 . S
C1294 C1295 1.366 . S
C1295 C1294 1.366 . S
C1295 C1296 1.414 . S
C1295 C1298 1.499 . S
C1296 H1276 0.950 . S
C1296 C1295 1.414 . S
C1296 C1297 1.374 . S
C1297 H1277 0.950 . S
C1297 C1293 1.385 . S
C1297 C1296 1.374 . S
C1298 C1295 1.499 . S
C1298 C1299 1.373 . S
C1298 C1300 1.389 . S
C1299 H1278 0.950 . S
C1299 C1298 1.373 . S
C1299 C1315 1.377 . S
C1300 C1298 1.389 . S
C1300 C1301 1.524 . S
C1300 C1314 1.377 . S
C1301 C1300 1.524 . S
C1301 C1302 1.397 . S
C1301 C1306 1.363 . S
C1302 H1279 0.950 . S
C1302 C1301 1.397 . S
C1302 C1303 1.334 . S
C1303 H1280 0.950 . S
C1303 C1302 1.334 . S
C1303 C1304 1.287 . S
C1304 C1303 1.287 . S
C1304 C1305 1.524 . S
C1304 H1323 0.913 . S
C1305 H1281 0.950 . S
C1305 C1304 1.524 . S
C1305 C1306 1.415 . S
C1306 H1282 0.950 . S
C1306 C1301 1.363 . S
C1306 C1305 1.415 . S
C1307 H1283 0.951 . S
C1307 C1308 1.366 . S
C1307 C1309 1.388 . S
C1308 C1307 1.366 . S
C1308 C1312 1.385 . S
C1309 H1284 0.951 . S
C1309 C1307 1.388 . S
C1309 C1310 1.366 . S
C1310 C1309 1.366 . S
C1310 C1311 1.414 . S
C1310 C1313 1.499 . S
C1311 H1285 0.950 . S
C1311 C1310 1.414 . S
C1311 C1312 1.374 . S
C1312 H1286 0.950 . S
C1312 C1308 1.385 . S
C1312 C1311 1.374 . S
C1313 C1310 1.499 . S
C1313 C1314 1.373 . S
C1313 C1315 1.389 . S
C1314 H1287 0.950 . S
C1314 C1300 1.377 . S
C1314 C1313 1.373 . S
C1315 C1299 1.377 . S
C1315 C1313 1.389 . S
C1315 C1316 1.524 . S
C1316 C1315 1.524 . S
C1316 C1317 1.397 . S
C1316 C1321 1.363 . S
C1317 H1288 0.950 . S
C1317 C1316 1.397 . S
C1317 C1318 1.334 . S
C1318 H1289 0.950 . S
C1318 C1317 1.334 . S
C1318 C1319 1.287 . S
C1319 C1318 1.287 . S
C1319 C1320 1.524 . S
C1319 H1322 0.999 . S
C1320 H1290 0.950 . S
C1320 C1319 1.524 . S
C1320 C1321 1.415 . S
C1321 H1291 0.950 . S
C1321 C1316 1.363 . S
C1321 C1320 1.415 . S
H1322 C1319 0.999 . S
H1323 C1304 0.913 . S
H1324 C1342 0.951 . S
H1325 C1344 0.951 . S
H1326 C1346 0.950 . S
H1327 C1347 0.950 . S
H1328 C1349 0.950 . S
H1329 C1352 0.950 . S
H1330 C1353 0.950 . S
H1331 C1355 0.950 . S
H1332 C1356 0.950 . S
H1333 C1357 0.951 . S
H1334 C1359 0.951 . S
H1335 C1361 0.950 . S
H1336 C1362 0.950 . S
H1337 C1364 0.950 . S
H1338 C1367 0.950 . S
H1339 C1368 0.950 . S
H1340 C1370 0.950 . S
H1341 C1371 0.950 . S
C1342 H1324 0.951 . S
C1342 C1343 1.366 . S
C1342 C1344 1.388 . S
C1343 C1342 1.366 . S
C1343 C1347 1.385 . S
C1344 H1325 0.951 . S
C1344 C1342 1.388 . S
C1344 C1345 1.366 . S
C1345 C1344 1.366 . S
C1345 C1346 1.414 . S
C1345 C1348 1.499 . S
C1346 H1326 0.950 . S
C1346 C1345 1.414 . S
C1346 C1347 1.374 . S
C1347 H1327 0.950 . S
C1347 C1343 1.385 . S
C1347 C1346 1.374 . S
C1348 C1345 1.499 . S
C1348 C1349 1.373 . S
C1348 C1350 1.389 . S
C1349 H1328 0.950 . S
C1349 C1348 1.373 . S
C1349 C1365 1.377 . S
C1350 C1348 1.389 . S
C1350 C1351 1.524 . S
C1350 C1364 1.377 . S
C1351 C1350 1.524 . S
C1351 C1352 1.397 . S
C1351 C1356 1.363 . S
C1352 H1329 0.950 . S
C1352 C1351 1.397 . S
C1352 C1353 1.334 . S
C1353 H1330 0.950 . S
C1353 C1352 1.334 . S
C1353 C1354 1.287 . S
C1354 C1353 1.287 . S
C1354 C1355 1.524 . S
C1354 H1373 0.913 . S
C1355 H1331 0.950 . S
C1355 C1354 1.524 . S
C1355 C1356 1.415 . S
C1356 H1332 0.950 . S
C1356 C1351 1.363 . S
C1356 C1355 1.415 . S
C1357 H1333 0.951 . S
C1357 C1358 1.366 . S
C1357 C1359 1.388 . S
C1358 C1357 1.366 . S
C1358 C1362 1.385 . S
C1359 H1334 0.951 . S
C1359 C1357 1.388 . S
C1359 C1360 1.366 . S
C1360 C1359 1.366 . S
C1360 C1361 1.414 . S
C1360 C1363 1.499 . S
C1361 H1335 0.950 . S
C1361 C1360 1.414 . S
C1361 C1362 1.374 . S
C1362 H1336 0.950 . S
C1362 C1358 1.385 . S
C1362 C1361 1.374 . S
C1363 C1360 1.499 . S
C1363 C1364 1.373 . S
C1363 C1365 1.389 . S
C1364 H1337 0.950 . S
C1364 C1350 1.377 . S
C1364 C1363 1.373 . S
C1365 C1349 1.377 . S
C1365 C1363 1.389 . S
C1365 C1366 1.524 . S
C1366 C1365 1.524 . S
C1366 C1367 1.397 . S
C1366 C1371 1.363 . S
C1367 H1338 0.950 . S
C1367 C1366 1.397 . S
C1367 C1368 1.334 . S
C1368 H1339 0.950 . S
C1368 C1367 1.334 . S
C1368 C1369 1.287 . S
C1369 C1368 1.287 . S
C1369 C1370 1.524 . S
C1369 H1372 0.999 . S
C1370 H1340 0.950 . S
C1370 C1369 1.524 . S
C1370 C1371 1.415 . S
C1371 H1341 0.950 . S
C1371 C1366 1.363 . S
C1371 C1370 1.415 . S
H1372 C1369 0.999 . S
H1373 C1354 0.913 . S
H1374 C1392 0.951 . S
H1375 C1394 0.951 . S
H1376 C1396 0.950 . S
H1377 C1397 0.950 . S
H1378 C1399 0.950 . S
H1379 C1402 0.950 . S
H1380 C1403 0.950 . S
H1381 C1405 0.950 . S
H1382 C1406 0.950 . S
H1383 C1407 0.951 . S
H1384 C1409 0.951 . S
H1385 C1411 0.950 . S
H1386 C1412 0.950 . S
H1387 C1414 0.950 . S
H1388 C1417 0.950 . S
H1389 C1418 0.950 . S
H1390 C1420 0.950 . S
H1391 C1421 0.950 . S
C1392 H1374 0.951 . S
C1392 C1393 1.366 . S
C1392 C1394 1.388 . S
C1393 C1392 1.366 . S
C1393 C1397 1.385 . S
C1394 H1375 0.951 . S
C1394 C1392 1.388 . S
C1394 C1395 1.366 . S
C1395 C1394 1.366 . S
C1395 C1396 1.414 . S
C1395 C1398 1.499 . S
C1396 H1376 0.950 . S
C1396 C1395 1.414 . S
C1396 C1397 1.374 . S
C1397 H1377 0.950 . S
C1397 C1393 1.385 . S
C1397 C1396 1.374 . S
C1398 C1395 1.499 . S
C1398 C1399 1.373 . S
C1398 C1400 1.389 . S
C1399 H1378 0.950 . S
C1399 C1398 1.373 . S
C1399 C1415 1.377 . S
C1400 C1398 1.389 . S
C1400 C1401 1.524 . S
C1400 C1414 1.377 . S
C1401 C1400 1.524 . S
C1401 C1402 1.397 . S
C1401 C1406 1.363 . S
C1402 H1379 0.950 . S
C1402 C1401 1.397 . S
C1402 C1403 1.334 . S
C1403 H1380 0.950 . S
C1403 C1402 1.334 . S
C1403 C1404 1.287 . S
C1404 C1403 1.287 . S
C1404 C1405 1.524 . S
C1404 H1423 0.913 . S
C1405 H1381 0.950 . S
C1405 C1404 1.524 . S
C1405 C1406 1.415 . S
C1406 H1382 0.950 . S
C1406 C1401 1.363 . S
C1406 C1405 1.415 . S
C1407 H1383 0.951 . S
C1407 C1408 1.366 . S
C1407 C1409 1.388 . S
C1408 C1407 1.366 . S
C1408 C1412 1.385 . S
C1409 H1384 0.951 . S
C1409 C1407 1.388 . S
C1409 C1410 1.366 . S
C1410 C1409 1.366 . S
C1410 C1411 1.414 . S
C1410 C1413 1.499 . S
C1411 H1385 0.950 . S
C1411 C1410 1.414 . S
C1411 C1412 1.374 . S
C1412 H1386 0.950 . S
C1412 C1408 1.385 . S
C1412 C1411 1.374 . S
C1413 C1410 1.499 . S
C1413 C1414 1.373 . S
C1413 C1415 1.389 . S
C1414 H1387 0.950 . S
C1414 C1400 1.377 . S
C1414 C1413 1.373 . S
C1415 C1399 1.377 . S
C1415 C1413 1.389 . S
C1415 C1416 1.524 . S
C1416 C1415 1.524 . S
C1416 C1417 1.397 . S
C1416 C1421 1.363 . S
C1417 H1388 0.950 . S
C1417 C1416 1.397 . S
C1417 C1418 1.334 . S
C1418 H1389 0.950 . S
C1418 C1417 1.334 . S
C1418 C1419 1.287 . S
C1419 C1418 1.287 . S
C1419 C1420 1.524 . S
C1419 H1422 0.999 . S
C1420 H1390 0.950 . S
C1420 C1419 1.524 . S
C1420 C1421 1.415 . S
C1421 H1391 0.950 . S
C1421 C1416 1.363 . S
C1421 C1420 1.415 . S
H1422 C1419 0.999 . S
H1423 C1404 0.913 . S
H1424 C1442 0.934 1_455 S
H1425 C1444 0.951 1_455 S
H1426 C1446 0.950 . S
H1427 C1447 0.950 . S
H1428 C1449 0.950 . S
H1429 C1452 0.950 1_655 S
H1430 C1453 0.950 . S
H1431 C1455 0.950 . S
H1432 C1456 0.950 . S
H1433 C1457 0.934 1_655 S
H1434 C1459 0.951 1_655 S
H1435 C1461 0.950 . S
H1436 C1462 0.950 . S
H1437 C1464 0.950 . S
H1438 C1467 0.950 1_455 S
H1439 C1468 0.950 . S
H1440 C1470 0.950 . S
H1441 C1471 0.950 . S
C1442 H1424 0.934 1_655 S
C1442 C1443 1.366 . S
C1442 C1444 1.388 . S
C1443 C1442 1.366 . S
C1443 C1447 1.385 . S
C1444 H1425 0.951 1_655 S
C1444 C1442 1.388 . S
C1444 C1445 1.366 . S
C1445 C1444 1.366 . S
C1445 C1446 1.414 . S
C1445 C1448 1.499 . S
C1446 H1426 0.950 . S
C1446 C1445 1.414 . S
C1446 C1447 1.374 . S
C1447 H1427 0.950 . S
C1447 C1443 1.385 . S
C1447 C1446 1.374 . S
C1448 C1445 1.499 . S
C1448 C1449 1.373 . S
C1448 C1450 1.389 1_655 S
C1449 H1428 0.950 . S
C1449 C1448 1.373 . S
C1449 C1465 1.377 1_565 S
C1450 C1448 1.389 1_455 S
C1450 C1451 1.524 . S
C1450 C1464 1.377 1_565 S
C1451 C1450 1.524 . S
C1451 C1452 1.397 . S
C1451 C1456 1.363 . S
C1452 H1429 0.950 1_455 S
C1452 C1451 1.397 . S
C1452 C1453 1.334 . S
C1453 H1430 0.950 . S
C1453 C1452 1.334 . S
C1453 C1454 1.287 . S
C1454 C1453 1.287 . S
C1454 C1455 1.524 . S
C1454 H1473 0.913 . S
C1455 H1431 0.950 . S
C1455 C1454 1.524 . S
C1455 C1456 1.415 . S
C1456 H1432 0.950 . S
C1456 C1451 1.363 . S
C1456 C1455 1.415 . S
C1457 H1433 0.934 1_455 S
C1457 C1458 1.366 . S
C1457 C1459 1.388 . S
C1458 C1457 1.366 . S
C1458 C1462 1.385 . S
C1459 H1434 0.951 1_455 S
C1459 C1457 1.388 . S
C1459 C1460 1.366 . S
C1460 C1459 1.366 . S
C1460 C1461 1.414 . S
C1460 C1463 1.499 . S
C1461 H1435 0.950 . S
C1461 C1460 1.414 . S
C1461 C1462 1.374 . S
C1462 H1436 0.950 . S
C1462 C1458 1.385 . S
C1462 C1461 1.374 . S
C1463 C1460 1.499 . S
C1463 C1464 1.373 . S
C1463 C1465 1.389 1_455 S
C1464 H1437 0.950 . S
C1464 C1450 1.377 1_545 S
C1464 C1463 1.373 . S
C1465 C1449 1.377 1_545 S
C1465 C1463 1.389 1_655 S
C1465 C1466 1.524 . S
C1466 C1465 1.524 . S
C1466 C1467 1.397 . S
C1466 C1471 1.363 . S
C1467 H1438 0.950 1_655 S
C1467 C1466 1.397 . S
C1467 C1468 1.334 . S
C1468 H1439 0.950 . S
C1468 C1467 1.334 . S
C1468 C1469 1.287 . S
C1469 C1468 1.287 . S
C1469 C1470 1.524 . S
C1469 H1472 0.999 . S
C1470 H1440 0.950 . S
C1470 C1469 1.524 . S
C1470 C1471 1.415 . S
C1471 H1441 0.950 . S
C1471 C1466 1.363 . S
C1471 C1470 1.415 . S
H1472 C1469 0.999 . S
H1473 C1454 0.913 . S
H1474 C1492 0.957 . S
H1475 C1494 0.951 1_565 S
H1476 C1496 0.950 . S
H1477 C1497 0.950 . S
H1478 C1499 0.950 . S
H1479 C1502 0.950 1_545 S
H1480 C1503 0.950 . S
H1481 C1505 0.950 . S
H1482 C1506 0.950 . S
H1483 C1507 0.957 . S
H1484 C1509 0.951 1_545 S
H1485 C1511 0.950 . S
H1486 C1512 0.950 . S
H1487 C1514 0.950 . S
H1488 C1517 0.950 1_565 S
H1489 C1518 0.950 . S
H1490 C1520 0.950 . S
H1491 C1521 0.950 . S
C1492 H1474 0.957 . S
C1492 C1493 1.366 . S
C1492 C1494 1.388 . S
C1493 C1492 1.366 . S
C1493 C1497 1.385 . S
C1494 H1475 0.951 1_545 S
C1494 C1492 1.388 . S
C1494 C1495 1.366 . S
C1495 C1494 1.366 . S
C1495 C1496 1.414 . S
C1495 C1498 1.499 . S
C1496 H1476 0.950 . S
C1496 C1495 1.414 . S
C1496 C1497 1.374 . S
C1497 H1477 0.950 . S
C1497 C1493 1.385 . S
C1497 C1496 1.374 . S
C1498 C1495 1.499 . S
C1498 C1499 1.373 . S
C1498 C1500 1.389 1_545 S
C1499 H1478 0.950 . S
C1499 C1498 1.373 . S
C1499 C1515 1.377 1_655 S
C1500 C1498 1.389 1_565 S
C1500 C1501 1.524 . S
C1500 C1514 1.377 1_655 S
C1501 C1500 1.524 . S
C1501 C1502 1.397 . S
C1501 C1506 1.363 . S
C1502 H1479 0.950 1_565 S
C1502 C1501 1.397 . S
C1502 C1503 1.334 . S
C1503 H1480 0.950 . S
C1503 C1502 1.334 . S
C1503 C1504 1.287 . S
C1504 C1503 1.287 . S
C1504 C1505 1.524 . S
C1504 H1523 0.913 . S
C1505 H1481 0.950 . S
C1505 C1504 1.524 . S
C1505 C1506 1.415 . S
C1506 H1482 0.950 . S
C1506 C1501 1.363 . S
C1506 C1505 1.415 . S
C1507 H1483 0.957 . S
C1507 C1508 1.366 . S
C1507 C1509 1.388 . S
C1508 C1507 1.366 . S
C1508 C1512 1.385 . S
C1509 H1484 0.951 1_565 S
C1509 C1507 1.388 . S
C1509 C1510 1.366 . S
C1510 C1509 1.366 . S
C1510 C1511 1.414 . S
C1510 C1513 1.499 . S
C1511 H1485 0.950 . S
C1511 C1510 1.414 . S
C1511 C1512 1.374 . S
C1512 H1486 0.950 . S
C1512 C1508 1.385 . S
C1512 C1511 1.374 . S
C1513 C1510 1.499 . S
C1513 C1514 1.373 . S
C1513 C1515 1.389 1_565 S
C1514 H1487 0.950 . S
C1514 C1500 1.377 1_455 S
C1514 C1513 1.373 . S
C1515 C1499 1.377 1_455 S
C1515 C1513 1.389 1_545 S
C1515 C1516 1.524 . S
C1516 C1515 1.524 . S
C1516 C1517 1.397 . S
C1516 C1521 1.363 . S
C1517 H1488 0.950 1_545 S
C1517 C1516 1.397 . S
C1517 C1518 1.334 . S
C1518 H1489 0.950 . S
C1518 C1517 1.334 . S
C1518 C1519 1.287 . S
C1519 C1518 1.287 . S
C1519 C1520 1.524 . S
C1519 H1522 0.999 . S
C1520 H1490 0.950 . S
C1520 C1519 1.524 . S
C1520 C1521 1.415 . S
C1521 H1491 0.950 . S
C1521 C1516 1.363 . S
C1521 C1520 1.415 . S
H1522 C1519 0.999 . S
H1523 C1504 0.913 . S
H1524 C1542 0.951 . S
H1525 C1544 0.951 . S
H1526 C1546 0.950 1_655 S
H1527 C1547 0.950 1_655 S
H1528 C1549 0.950 . S
H1529 C1552 0.950 . S
H1530 C1553 0.950 . S
H1531 C1555 0.950 . S
H1532 C1556 0.950 . S
H1533 C1557 0.951 . S
H1534 C1559 0.951 . S
H1535 C1561 0.950 1_455 S
H1536 C1562 0.950 1_455 S
H1537 C1564 0.950 . S
H1538 C1567 0.950 . S
H1539 C1568 0.950 . S
H1540 C1570 0.950 . S
H1541 C1571 0.950 . S
C1542 H1524 0.951 . S
C1542 C1543 1.366 . S
C1542 C1544 1.388 . S
C1543 C1542 1.366 . S
C1543 C1547 1.385 . S
C1544 H1525 0.951 . S
C1544 C1542 1.388 . S
C1544 C1545 1.366 . S
C1545 C1544 1.366 . S
C1545 C1546 1.414 . S
C1545 C1548 1.499 . S
C1546 H1526 0.950 1_455 S
C1546 C1545 1.414 . S
C1546 C1547 1.374 . S
C1547 H1527 0.950 1_455 S
C1547 C1543 1.385 . S
C1547 C1546 1.374 . S
C1548 C1545 1.499 . S
C1548 C1549 1.373 1_455 S
C1548 C1550 1.389 . S
C1549 H1528 0.950 . S
C1549 C1548 1.373 1_655 S
C1549 C1565 1.377 . S
C1550 C1548 1.389 . S
C1550 C1551 1.524 . S
C1550 C1564 1.377 . S
C1551 C1550 1.524 . S
C1551 C1552 1.397 . S
C1551 C1556 1.363 . S
C1552 H1529 0.950 . S
C1552 C1551 1.397 . S
C1552 C1553 1.334 . S
C1553 H1530 0.950 . S
C1553 C1552 1.334 . S
C1553 C1554 1.287 . S
C1554 C1553 1.287 . S
C1554 C1555 1.524 . S
C1554 H1573 0.913 . S
C1555 H1531 0.950 . S
C1555 C1554 1.524 . S
C1555 C1556 1.415 . S
C1556 H1532 0.950 . S
C1556 C1551 1.363 . S
C1556 C1555 1.415 . S
C1557 H1533 0.951 . S
C1557 C1558 1.366 . S
C1557 C1559 1.388 . S
C1558 C1557 1.366 . S
C1558 C1562 1.385 . S
C1559 H1534 0.951 . S
C1559 C1557 1.388 . S
C1559 C1560 1.366 . S
C1560 C1559 1.366 . S
C1560 C1561 1.414 . S
C1560 C1563 1.499 . S
C1561 H1535 0.950 1_655 S
C1561 C1560 1.414 . S
C1561 C1562 1.374 . S
C1562 H1536 0.950 1_655 S
C1562 C1558 1.385 . S
C1562 C1561 1.374 . S
C1563 C1560 1.499 . S
C1563 C1564 1.373 1_655 S
C1563 C1565 1.389 . S
C1564 H1537 0.950 . S
C1564 C1550 1.377 . S
C1564 C1563 1.373 1_455 S
C1565 C1549 1.377 . S
C1565 C1563 1.389 . S
C1565 C1566 1.524 . S
C1566 C1565 1.524 . S
C1566 C1567 1.397 . S
C1566 C1571 1.363 . S
C1567 H1538 0.950 . S
C1567 C1566 1.397 . S
C1567 C1568 1.334 . S
C1568 H1539 0.950 . S
C1568 C1567 1.334 . S
C1568 C1569 1.287 . S
C1569 C1568 1.287 . S
C1569 C1570 1.524 . S
C1569 H1572 0.999 . S
C1570 H1540 0.950 . S
C1570 C1569 1.524 . S
C1570 C1571 1.415 . S
C1571 H1541 0.950 . S
C1571 C1566 1.363 . S
C1571 C1570 1.415 . S
H1572 C1569 0.999 . S
H1573 C1554 0.913 . S
H1574 C1592 0.951 . S
H1575 C1594 0.951 1_545 S
H1576 C1596 0.950 . S
H1577 C1597 0.950 . S
H1578 C1599 0.950 . S
H1579 C1602 0.950 . S
H1580 C1603 0.950 . S
H1581 C1605 0.950 . S
H1582 C1606 0.950 . S
H1583 C1607 0.951 . S
H1584 C1609 0.951 1_565 S
H1585 C1611 0.950 . S
H1586 C1612 0.950 . S
H1587 C1614 0.950 . S
H1588 C1617 0.950 . S
H1589 C1618 0.950 . S
H1590 C1620 0.950 . S
H1591 C1621 0.950 . S
C1592 H1574 0.951 . S
C1592 C1593 1.366 . S
C1592 C1594 1.388 . S
C1593 C1592 1.366 . S
C1593 C1597 1.385 . S
C1594 H1575 0.951 1_565 S
C1594 C1592 1.388 . S
C1594 C1595 1.366 . S
C1595 C1594 1.366 . S
C1595 C1596 1.414 . S
C1595 C1598 1.499 . S
C1596 H1576 0.950 . S
C1596 C1595 1.414 . S
C1596 C1597 1.374 . S
C1597 H1577 0.950 . S
C1597 C1593 1.385 . S
C1597 C1596 1.374 . S
C1598 C1595 1.499 . S
C1598 C1599 1.373 . S
C1598 C1600 1.389 1_565 S
C1599 H1578 0.950 . S
C1599 C1598 1.373 . S
C1599 C1615 1.377 . S
C1600 C1598 1.389 1_545 S
C1600 C1601 1.524 . S
C1600 C1614 1.377 . S
C1601 C1600 1.524 . S
C1601 C1602 1.397 . S
C1601 C1606 1.363 . S
C1602 H1579 0.950 . S
C1602 C1601 1.397 . S
C1602 C1603 1.334 . S
C1603 H1580 0.950 . S
C1603 C1602 1.334 . S
C1603 C1604 1.287 . S
C1604 C1603 1.287 . S
C1604 C1605 1.524 . S
C1604 H1623 0.913 . S
C1605 H1581 0.950 . S
C1605 C1604 1.524 . S
C1605 C1606 1.415 . S
C1606 H1582 0.950 . S
C1606 C1601 1.363 . S
C1606 C1605 1.415 . S
C1607 H1583 0.951 . S
C1607 C1608 1.366 . S
C1607 C1609 1.388 . S
C1608 C1607 1.366 . S
C1608 C1612 1.385 . S
C1609 H1584 0.951 1_545 S
C1609 C1607 1.388 . S
C1609 C1610 1.366 . S
C1610 C1609 1.366 . S
C1610 C1611 1.414 . S
C1610 C1613 1.499 . S
C1611 H1585 0.950 . S
C1611 C1610 1.414 . S
C1611 C1612 1.374 . S
C1612 H1586 0.950 . S
C1612 C1608 1.385 . S
C1612 C1611 1.374 . S
C1613 C1610 1.499 . S
C1613 C1614 1.373 . S
C1613 C1615 1.389 1_545 S
C1614 H1587 0.950 . S
C1614 C1600 1.377 . S
C1614 C1613 1.373 . S
C1615 C1599 1.377 . S
C1615 C1613 1.389 1_565 S
C1615 C1616 1.524 . S
C1616 C1615 1.524 . S
C1616 C1617 1.397 . S
C1616 C1621 1.363 . S
C1617 H1588 0.950 . S
C1617 C1616 1.397 . S
C1617 C1618 1.334 . S
C1618 H1589 0.950 . S
C1618 C1617 1.334 . S
C1618 C1619 1.287 . S
C1619 C1618 1.287 . S
C1619 C1620 1.524 . S
C1619 H1622 0.999 . S
C1620 H1590 0.950 . S
C1620 C1619 1.524 . S
C1620 C1621 1.415 . S
C1621 H1591 0.950 . S
C1621 C1616 1.363 . S
C1621 C1620 1.415 . S
H1622 C1619 0.999 . S
H1623 C1604 0.913 . S
H1624 C1642 0.951 . S
H1625 C1644 0.951 . S
H1626 C1646 0.950 . S
H1627 C1647 0.950 . S
H1628 C1649 0.950 . S
H1629 C1652 0.950 . S
H1630 C1653 0.950 . S
H1631 C1655 0.950 . S
H1632 C1656 0.950 . S
H1633 C1657 0.951 . S
H1634 C1659 0.951 . S
H1635 C1661 0.950 . S
H1636 C1662 0.950 . S
H1637 C1664 0.950 . S
H1638 C1667 0.950 . S
H1639 C1668 0.950 . S
H1640 C1670 0.950 . S
H1641 C1671 0.950 . S
C1642 H1624 0.951 . S
C1642 C1643 1.366 . S
C1642 C1644 1.388 . S
C1643 C1642 1.366 . S
C1643 C1647 1.385 . S
C1644 H1625 0.951 . S
C1644 C1642 1.388 . S
C1644 C1645 1.366 . S
C1645 C1644 1.366 . S
C1645 C1646 1.414 . S
C1645 C1648 1.499 . S
C1646 H1626 0.950 . S
C1646 C1645 1.414 . S
C1646 C1647 1.374 . S
C1647 H1627 0.950 . S
C1647 C1643 1.385 . S
C1647 C1646 1.374 . S
C1648 C1645 1.499 . S
C1648 C1649 1.373 . S
C1648 C1650 1.389 . S
C1649 H1628 0.950 . S
C1649 C1648 1.373 . S
C1649 C1665 1.377 . S
C1650 C1648 1.389 . S
C1650 C1651 1.524 . S
C1650 C1664 1.377 . S
C1651 C1650 1.524 . S
C1651 C1652 1.397 . S
C1651 C1656 1.363 . S
C1652 H1629 0.950 . S
C1652 C1651 1.397 . S
C1652 C1653 1.334 . S
C1653 H1630 0.950 . S
C1653 C1652 1.334 . S
C1653 C1654 1.287 . S
C1654 C1653 1.287 . S
C1654 C1655 1.524 . S
C1654 H1673 0.913 . S
C1655 H1631 0.950 . S
C1655 C1654 1.524 . S
C1655 C1656 1.415 . S
C1656 H1632 0.950 . S
C1656 C1651 1.363 . S
C1656 C1655 1.415 . S
C1657 H1633 0.951 . S
C1657 C1658 1.366 . S
C1657 C1659 1.388 . S
C1658 C1657 1.366 . S
C1658 C1662 1.385 . S
C1659 H1634 0.951 . S
C1659 C1657 1.388 . S
C1659 C1660 1.366 . S
C1660 C1659 1.366 . S
C1660 C1661 1.414 . S
C1660 C1663 1.499 . S
C1661 H1635 0.950 . S
C1661 C1660 1.414 . S
C1661 C1662 1.374 . S
C1662 H1636 0.950 . S
C1662 C1658 1.385 . S
C1662 C1661 1.374 . S
C1663 C1660 1.499 . S
C1663 C1664 1.373 . S
C1663 C1665 1.389 . S
C1664 H1637 0.950 . S
C1664 C1650 1.377 . S
C1664 C1663 1.373 . S
C1665 C1649 1.377 . S
C1665 C1663 1.389 . S
C1665 C1666 1.524 . S
C1666 C1665 1.524 . S
C1666 C1667 1.397 . S
C1666 C1671 1.363 . S
C1667 H1638 0.950 . S
C1667 C1666 1.397 . S
C1667 C1668 1.334 . S
C1668 H1639 0.950 . S
C1668 C1667 1.334 . S
C1668 C1669 1.287 . S
C1669 C1668 1.287 . S
C1669 C1670 1.524 . S
C1669 H1672 0.999 . S
C1670 H1640 0.950 . S
C1670 C1669 1.524 . S
C1670 C1671 1.415 . S
C1671 H1641 0.950 . S
C1671 C1666 1.363 . S
C1671 C1670 1.415 . S
H1672 C1669 0.999 . S
H1673 C1654 0.913 . S
H1674 C1692 0.951 . S
H1675 C1694 0.951 . S
H1676 C1696 0.950 . S
H1677 C1697 0.950 . S
H1678 C1699 0.950 . S
H1679 C1702 0.950 . S
H1680 C1703 0.950 . S
H1681 C1705 0.950 . S
H1682 C1706 0.950 . S
H1683 C1707 0.951 . S
H1684 C1709 0.951 . S
H1685 C1711 0.950 . S
H1686 C1712 0.950 . S
H1687 C1714 0.950 . S
H1688 C1717 0.950 . S
H1689 C1718 0.950 . S
H1690 C1720 0.950 . S
H1691 C1721 0.950 . S
C1692 H1674 0.951 . S
C1692 C1693 1.366 . S
C1692 C1694 1.388 . S
C1693 C1692 1.366 . S
C1693 C1697 1.385 . S
C1694 H1675 0.951 . S
C1694 C1692 1.388 . S
C1694 C1695 1.366 . S
C1695 C1694 1.366 . S
C1695 C1696 1.414 . S
C1695 C1698 1.499 . S
C1696 H1676 0.950 . S
C1696 C1695 1.414 . S
C1696 C1697 1.374 . S
C1697 H1677 0.950 . S
C1697 C1693 1.385 . S
C1697 C1696 1.374 . S
C1698 C1695 1.499 . S
C1698 C1699 1.373 . S
C1698 C1700 1.389 . S
C1699 H1678 0.950 . S
C1699 C1698 1.373 . S
C1699 C1715 1.377 . S
C1700 C1698 1.389 . S
C1700 C1701 1.524 . S
C1700 C1714 1.377 . S
C1701 C1700 1.524 . S
C1701 C1702 1.397 . S
C1701 C1706 1.363 . S
C1702 H1679 0.950 . S
C1702 C1701 1.397 . S
C1702 C1703 1.334 . S
C1703 H1680 0.950 . S
C1703 C1702 1.334 . S
C1703 C1704 1.287 . S
C1704 C1703 1.287 . S
C1704 C1705 1.524 . S
C1704 H1723 0.913 . S
C1705 H1681 0.950 . S
C1705 C1704 1.524 . S
C1705 C1706 1.415 . S
C1706 H1682 0.950 . S
C1706 C1701 1.363 . S
C1706 C1705 1.415 . S
C1707 H1683 0.951 . S
C1707 C1708 1.366 . S
C1707 C1709 1.388 . S
C1708 C1707 1.366 . S
C1708 C1712 1.385 . S
C1709 H1684 0.951 . S
C1709 C1707 1.388 . S
C1709 C1710 1.366 . S
C1710 C1709 1.366 . S
C1710 C1711 1.414 . S
C1710 C1713 1.499 . S
C1711 H1685 0.950 . S
C1711 C1710 1.414 . S
C1711 C1712 1.374 . S
C1712 H1686 0.950 . S
C1712 C1708 1.385 . S
C1712 C1711 1.374 . S
C1713 C1710 1.499 . S
C1713 C1714 1.373 . S
C1713 C1715 1.389 . S
C1714 H1687 0.950 . S
C1714 C1700 1.377 . S
C1714 C1713 1.373 . S
C1715 C1699 1.377 . S
C1715 C1713 1.389 . S
C1715 C1716 1.524 . S
C1716 C1715 1.524 . S
C1716 C1717 1.397 . S
C1716 C1721 1.363 . S
C1717 H1688 0.950 . S
C1717 C1716 1.397 . S
C1717 C1718 1.334 . S
C1718 H1689 0.950 . S
C1718 C1717 1.334 . S
C1718 C1719 1.287 . S
C1719 C1718 1.287 . S
C1719 C1720 1.524 . S
C1719 H1722 0.999 . S
C1720 H1690 0.950 . S
C1720 C1719 1.524 . S
C1720 C1721 1.415 . S
C1721 H1691 0.950 . S
C1721 C1716 1.363 . S
C1721 C1720 1.415 . S
H1722 C1719 0.999 . S
H1723 C1704 0.913 . S
H1724 C1742 0.951 . S
H1725 C1744 0.951 . S
H1726 C1746 0.950 . S
H1727 C1747 0.950 . S
H1728 C1749 0.950 . S
H1729 C1752 0.950 . S
H1730 C1753 0.950 . S
H1731 C1755 0.950 . S
H1732 C1756 0.950 . S
H1733 C1757 0.951 . S
H1734 C1759 0.951 . S
H1735 C1761 0.950 . S
H1736 C1762 0.950 . S
H1737 C1764 0.950 . S
H1738 C1767 0.950 . S
H1739 C1768 0.950 . S
H1740 C1770 0.950 . S
H1741 C1771 0.950 . S
C1742 H1724 0.951 . S
C1742 C1743 1.366 . S
C1742 C1744 1.388 . S
C1743 C1742 1.366 . S
C1743 C1747 1.385 . S
C1744 H1725 0.951 . S
C1744 C1742 1.388 . S
C1744 C1745 1.366 . S
C1745 C1744 1.366 . S
C1745 C1746 1.414 . S
C1745 C1748 1.499 . S
C1746 H1726 0.950 . S
C1746 C1745 1.414 . S
C1746 C1747 1.374 . S
C1747 H1727 0.950 . S
C1747 C1743 1.385 . S
C1747 C1746 1.374 . S
C1748 C1745 1.499 . S
C1748 C1749 1.373 . S
C1748 C1750 1.389 . S
C1749 H1728 0.950 . S
C1749 C1748 1.373 . S
C1749 C1765 1.377 1_545 S
C1750 C1748 1.389 . S
C1750 C1751 1.524 . S
C1750 C1764 1.377 1_545 S
C1751 C1750 1.524 . S
C1751 C1752 1.397 . S
C1751 C1756 1.363 . S
C1752 H1729 0.950 . S
C1752 C1751 1.397 . S
C1752 C1753 1.334 . S
C1753 H1730 0.950 . S
C1753 C1752 1.334 . S
C1753 C1754 1.287 . S
C1754 C1753 1.287 . S
C1754 C1755 1.524 . S
C1754 H1773 0.913 . S
C1755 H1731 0.950 . S
C1755 C1754 1.524 . S
C1755 C1756 1.415 . S
C1756 H1732 0.950 . S
C1756 C1751 1.363 . S
C1756 C1755 1.415 . S
C1757 H1733 0.951 . S
C1757 C1758 1.366 . S
C1757 C1759 1.388 . S
C1758 C1757 1.366 . S
C1758 C1762 1.385 . S
C1759 H1734 0.951 . S
C1759 C1757 1.388 . S
C1759 C1760 1.366 . S
C1760 C1759 1.366 . S
C1760 C1761 1.414 . S
C1760 C1763 1.499 . S
C1761 H1735 0.950 . S
C1761 C1760 1.414 . S
C1761 C1762 1.374 . S
C1762 H1736 0.950 . S
C1762 C1758 1.385 . S
C1762 C1761 1.374 . S
C1763 C1760 1.499 . S
C1763 C1764 1.373 . S
C1763 C1765 1.389 . S
C1764 H1737 0.950 . S
C1764 C1750 1.377 1_565 S
C1764 C1763 1.373 . S
C1765 C1749 1.377 1_565 S
C1765 C1763 1.389 . S
C1765 C1766 1.524 . S
C1766 C1765 1.524 . S
C1766 C1767 1.397 . S
C1766 C1771 1.363 . S
C1767 H1738 0.950 . S
C1767 C1766 1.397 . S
C1767 C1768 1.334 . S
C1768 H1739 0.950 . S
C1768 C1767 1.334 . S
C1768 C1769 1.287 . S
C1769 C1768 1.287 . S
C1769 C1770 1.524 . S
C1769 H1772 0.999 . S
C1770 H1740 0.950 . S
C1770 C1769 1.524 . S
C1770 C1771 1.415 . S
C1771 H1741 0.950 . S
C1771 C1766 1.363 . S
C1771 C1770 1.415 . S
H1772 C1769 0.999 . S
H1773 C1754 0.913 . S
H1774 C1792 0.951 . S
H1775 C1794 0.951 . S
H1776 C1796 0.950 . S
H1777 C1797 0.950 . S
H1778 C1799 0.950 . S
H1779 C1802 0.950 . S
H1780 C1803 0.950 . S
H1781 C1805 0.950 . S
H1782 C1806 0.950 . S
H1783 C1807 0.951 . S
H1784 C1809 0.951 . S
H1785 C1811 0.950 . S
H1786 C1812 0.950 . S
H1787 C1814 0.950 . S
H1788 C1817 0.950 . S
H1789 C1818 0.950 . S
H1790 C1820 0.950 . S
H1791 C1821 0.950 . S
C1792 H1774 0.951 . S
C1792 C1793 1.366 . S
C1792 C1794 1.388 . S
C1793 C1792 1.366 . S
C1793 C1797 1.385 . S
C1794 H1775 0.951 . S
C1794 C1792 1.388 . S
C1794 C1795 1.366 . S
C1795 C1794 1.366 . S
C1795 C1796 1.414 . S
C1795 C1798 1.499 . S
C1796 H1776 0.950 . S
C1796 C1795 1.414 . S
C1796 C1797 1.374 . S
C1797 H1777 0.950 . S
C1797 C1793 1.385 . S
C1797 C1796 1.374 . S
C1798 C1795 1.499 . S
C1798 C1799 1.373 . S
C1798 C1800 1.389 . S
C1799 H1778 0.950 . S
C1799 C1798 1.373 . S
C1799 C1815 1.377 1_655 S
C1800 C1798 1.389 . S
C1800 C1801 1.524 . S
C1800 C1814 1.377 1_655 S
C1801 C1800 1.524 . S
C1801 C1802 1.397 . S
C1801 C1806 1.363 . S
C1802 H1779 0.950 . S
C1802 C1801 1.397 . S
C1802 C1803 1.334 . S
C1803 H1780 0.950 . S
C1803 C1802 1.334 . S
C1803 C1804 1.287 . S
C1804 C1803 1.287 . S
C1804 C1805 1.524 . S
C1804 H1823 0.913 . S
C1805 H1781 0.950 . S
C1805 C1804 1.524 . S
C1805 C1806 1.415 . S
C1806 H1782 0.950 . S
C1806 C1801 1.363 . S
C1806 C1805 1.415 . S
C1807 H1783 0.951 . S
C1807 C1808 1.366 . S
C1807 C1809 1.388 . S
C1808 C1807 1.366 . S
C1808 C1812 1.385 . S
C1809 H1784 0.951 . S
C1809 C1807 1.388 . S
C1809 C1810 1.366 . S
C1810 C1809 1.366 . S
C1810 C1811 1.414 . S
C1810 C1813 1.499 . S
C1811 H1785 0.950 . S
C1811 C1810 1.414 . S
C1811 C1812 1.374 . S
C1812 H1786 0.950 . S
C1812 C1808 1.385 . S
C1812 C1811 1.374 . S
C1813 C1810 1.499 . S
C1813 C1814 1.373 . S
C1813 C1815 1.389 . S
C1814 H1787 0.950 . S
C1814 C1800 1.377 1_455 S
C1814 C1813 1.373 . S
C1815 C1799 1.377 1_455 S
C1815 C1813 1.389 . S
C1815 C1816 1.524 . S
C1816 C1815 1.524 . S
C1816 C1817 1.397 . S
C1816 C1821 1.363 . S
C1817 H1788 0.950 . S
C1817 C1816 1.397 . S
C1817 C1818 1.334 . S
C1818 H1789 0.950 . S
C1818 C1817 1.334 . S
C1818 C1819 1.287 . S
C1819 C1818 1.287 . S
C1819 C1820 1.524 . S
C1819 H1822 0.999 . S
C1820 H1790 0.950 . S
C1820 C1819 1.524 . S
C1820 C1821 1.415 . S
C1821 H1791 0.950 . S
C1821 C1816 1.363 . S
C1821 C1820 1.415 . S
H1822 C1819 0.999 . S
H1823 C1804 0.913 . S
C243 C12 1.606 . S
C258 C155 1.613 . S
C293 C112 1.613 . S
C308 C14 1.607 . S
C343 C127 1.613 . S
C358 C28 1.606 . S
C393 C141 1.614 . S
C408 C54 1.607 . S
C443 C71 1.613 . S
C458 C69 1.607 . S
C493 C82 1.607 . S
C508 C85 1.614 . S
C543 C96 1.606 . S
C558 C99 1.613 . S
C593 C110 1.608 . S
C608 C56 1.613 . S
C643 C125 1.607 . S
C658 C43 1.613 . S
C693 C1 1.614 . S
C708 C138 1.607 . S
C743 C27 1.613 . S
C758 C152 1.606 . S
C793 C41 1.614 . S
C808 C166 1.608 . S
C843 C183 1.613 . S
C858 C181 1.607 . S
C893 C194 1.607 . S
C908 C208 1.613 . S
C943 C223 1.613 . S
C958 C197 1.607 . S
C993 C168 1.613 . S
C1008 C210 1.607 . S
C1043 C209 1.854 . S
C1058 C0 1.853 . S
C1093 C222 1.855 . S
C1108 C26 1.854 . S
C1143 C169 1.855 . S
C1158 C40 1.853 . S
C1193 C42 1.854 . S
C1208 C182 1.854 . S
C1243 C57 1.855 . S
C1258 C140 1.853 . S
C1293 C154 1.854 . S
C1308 C70 1.855 . S
C1343 C84 1.853 . S
C1358 C113 1.854 . S
C1393 C98 1.854 . S
C1408 C126 1.855 . S
C1443 C29 1.678 . S
C1458 C13 1.678 . S
C1493 C55 1.677 . S
C1508 C15 1.676 . S
C1543 C68 1.677 . S
C1558 C97 1.677 . S
C1593 C83 1.677 . S
C1608 C111 1.676 . S
C1643 C153 1.678 . S
C1658 C124 1.676 . S
C1693 C139 1.677 . S
C1708 C167 1.676 . S
C1743 C196 1.676 . S
C1758 C180 1.676 . S
C1793 C195 1.677 . S
C1808 C211 1.676 . S
