# Generated by pormake.
# Topology crb, (4)-cn, num edge types: 1
# Building blocks:
#     Node 0, Type 0, BuildingBlock: KUFVIS_clean_sbu_0, # of connection points: 4
#     Node 1, Type 0, BuildingBlock: KUFVIS_clean_sbu_0, # of connection points: 4
#     Node 2, Type 0, BuildingBlock: KUFVIS_clean_sbu_0, # of connection points: 4
#     Node 3, Type 0, BuildingBlock: KUFVIS_clean_sbu_0, # of connection points: 4
#     Node 4, Type 0, BuildingBlock: KUFVIS_clean_sbu_0, # of connection points: 4
#     Node 5, Type 0, BuildingBlock: KUFVIS_clean_sbu_0, # of connection points: 4
#     Node 6, Type 0, BuildingBlock: KUFVIS_clean_sbu_0, # of connection points: 4
#     Node 7, Type 0, BuildingBlock: KUFVIS_clean_sbu_0, # of connection points: 4
#     Edge 8, Type (0, 0), BuildingBlock: FUNLAD_clean_linker_0, # of connection points: 2
#     Edge 9, Type (0, 0), BuildingBlock: FUNLAD_clean_linker_0, # of connection points: 2
#     Edge 10, Type (0, 0), BuildingBlock: FUNLAD_clean_linker_0, # of connection points: 2
#     Edge 11, Type (0, 0), BuildingBlock: FUNLAD_clean_linker_0, # of connection points: 2
#     Edge 12, Type (0, 0), BuildingBlock: FUNLAD_clean_linker_0, # of connection points: 2
#     Edge 13, Type (0, 0), BuildingBlock: FUNLAD_clean_linker_0, # of connection points: 2
#     Edge 14, Type (0, 0), BuildingBlock: FUNLAD_clean_linker_0, # of connection points: 2
#     Edge 15, Type (0, 0), BuildingBlock: FUNLAD_clean_linker_0, # of connection points: 2
#     Edge 16, Type (0, 0), BuildingBlock: FUNLAD_clean_linker_0, # of connection points: 2
#     Edge 17, Type (0, 0), BuildingBlock: FUNLAD_clean_linker_0, # of connection points: 2
#     Edge 18, Type (0, 0), BuildingBlock: FUNLAD_clean_linker_0, # of connection points: 2
#     Edge 19, Type (0, 0), BuildingBlock: FUNLAD_clean_linker_0, # of connection points: 2
#     Edge 20, Type (0, 0), BuildingBlock: FUNLAD_clean_linker_0, # of connection points: 2
#     Edge 21, Type (0, 0), BuildingBlock: FUNLAD_clean_linker_0, # of connection points: 2
#     Edge 22, Type (0, 0), BuildingBlock: FUNLAD_clean_linker_0, # of connection points: 2
#     Edge 23, Type (0, 0), BuildingBlock: FUNLAD_clean_linker_0, # of connection points: 2
# Relax obj value: 0.084
# Max RMSD: 0.128
# Mean RMSD: 0.128
data_MOF--net-crb--node1-KUFVIS_clean_sbu_0--edge1-FUNLAD_clean_linker_0
_symmetry_space_group_name_H-M    P1
_symmetry_Int_Tables_number       1
_symmetry_cell_setting            triclinic
loop_
_symmetry_equiv_pos_as_xyz
'x, y, z'
_cell_length_a     48.163881
_cell_length_b     51.594306
_cell_length_c     27.247568
_cell_angle_alpha  90.04654
_cell_angle_beta   89.985389
_cell_angle_gamma 89.8914
loop_
_atom_site_label
_atom_site_type_symbol
_atom_site_fract_x
_atom_site_fract_y
_atom_site_fract_z
_atom_type_partial_charge
Mn0 Mn 0.32995 0.34797 0.03791 0.0
Mn1 Mn 0.35956 0.29039 0.00918 0.0
C2 C 0.37682 0.3408 0.05201 0.0
C3 C 0.31654 0.39102 0.02475 0.0
C4 C 0.32334 0.2979 0.09845 0.0
O5 O 0.30229 0.33297 0.98838 0.0
O6 O 0.32369 0.2947 0.97386 0.0
C7 C 0.3714 0.30106 0.90443 0.0
N8 N 0.38049 0.29426 0.94997 0.0
C9 C 0.42746 0.28978 0.92094 0.0
C10 C 0.41856 0.2966 0.87369 0.0
C11 C 0.39042 0.30232 0.86544 0.0
C12 C 0.40754 0.28876 0.95833 0.0
H13 H 0.34981 0.30554 0.89788 0.0
C14 C 0.30377 0.31087 0.96704 0.0
O15 O 0.30447 0.37643 0.05694 0.0
O16 O 0.33549 0.38013 0.9976 0.0
N17 N 0.39461 0.28396 0.04011 0.0
C18 C 0.40004 0.27886 0.08823 0.0
C19 C 0.42737 0.27329 0.10285 0.0
C20 C 0.44878 0.27285 0.06784 0.0
C21 C 0.44264 0.27788 0.01846 0.0
C22 C 0.41498 0.28312 1.006 0.0
H23 H 0.38367 0.2792 0.11532 0.0
O24 O 0.36327 0.35777 0.07787 0.0
O25 O 0.36247 0.32806 0.01969 0.0
O26 O 0.31803 0.32157 0.08935 0.0
O27 O 0.33913 0.2841 0.07134 0.0
C28 C 0.46296 0.27835 0.98124 0.0
C29 C 0.45538 0.28435 0.93255 0.0
H30 H 0.43319 0.2977 0.84356 0.0
H31 H 0.38342 0.30771 0.82911 0.0
H32 H 0.43194 0.26945 0.14104 0.0
H33 H 0.46988 0.2688 0.07934 0.0
H34 H 0.48452 0.27445 0.98974 0.0
H35 H 0.47126 0.285 0.90441 0.0
Mn36 Mn 0.67909 0.34818 0.02007 0.0
Mn37 Mn 0.64863 0.29052 0.04319 0.0
C38 C 0.6327 0.34158 1.00154 0.0
C39 C 0.69168 0.39077 0.03854 0.0
C40 C 0.68727 0.29905 0.95736 0.0
O41 O 0.70536 0.33223 0.07078 0.0
O42 O 0.68352 0.29398 0.08195 0.0
C43 C 0.6339 0.29987 0.1473 0.0
N44 N 0.62605 0.29387 0.10063 0.0
C45 C 0.57816 0.29034 0.12496 0.0
C46 C 0.58577 0.29633 0.17331 0.0
C47 C 0.61376 0.30115 0.18449 0.0
C48 C 0.59917 0.28919 0.08948 0.0
H49 H 0.65536 0.30371 0.15609 0.0
C50 C 0.7033 0.30993 0.09106 0.0
O51 O 0.70504 0.37717 1.00621 0.0
O52 O 0.67189 0.37918 0.06232 0.0
N53 N 0.61445 0.28501 0.00882 0.0
C54 C 0.61035 0.28076 0.95999 0.0
C55 C 0.58336 0.27619 0.94254 0.0
C56 C 0.5609 0.27592 0.97545 0.0
C57 C 0.56566 0.28012 0.02558 0.0
C58 C 0.59305 0.28434 0.04091 0.0
H59 H 0.62751 0.28103 0.93449 0.0
O60 O 0.64695 0.35887 0.9779 0.0
O61 O 0.64619 0.32823 0.03415 0.0
O62 O 0.69247 0.32258 0.96797 0.0
O63 O 0.67079 0.28501 0.98261 0.0
C64 C 0.54425 0.28078 0.06081 0.0
C65 C 0.55048 0.28593 0.11044 0.0
H66 H 0.57028 0.29749 0.20206 0.0
H67 H 0.61978 0.30591 0.22168 0.0
H68 H 0.57985 0.27301 0.90378 0.0
H69 H 0.54008 0.27268 0.96177 0.0
H70 H 0.52287 0.27773 0.05006 0.0
H71 H 0.53379 0.28675 0.13704 0.0
Mn72 Mn 0.67427 0.67269 0.03406 0.0
Mn73 Mn 0.64822 0.73217 0.00942 0.0
C74 C 0.62757 0.6816 0.04574 0.0
C75 C 0.685 0.62958 0.01564 0.0
C76 C 0.6829 0.72071 0.09928 0.0
O77 O 0.70351 0.68776 0.98763 0.0
O78 O 0.68399 0.72703 0.97414 0.0
C79 C 0.63631 0.72515 0.90359 0.0
N80 N 0.62735 0.7309 0.94976 0.0
C81 C 0.58068 0.73791 0.92102 0.0
C82 C 0.58945 0.7322 0.87314 0.0
C83 C 0.61737 0.72575 0.86442 0.0
C84 C 0.60053 0.73717 0.95855 0.0
H85 H 0.65772 0.7201 0.8967 0.0
C86 C 0.70324 0.71015 0.9673 0.0
O87 O 0.69762 0.64209 0.05032 0.0
O88 O 0.66727 0.64262 0.98944 0.0
N89 N 0.61338 0.73906 0.04078 0.0
C90 C 0.60792 0.74245 0.08945 0.0
C91 C 0.58071 0.74818 0.10458 0.0
C92 C 0.55944 0.75046 0.06958 0.0
C93 C 0.56559 0.74704 0.01969 0.0
C94 C 0.59314 0.74155 1.00674 0.0
H95 H 0.62415 0.74061 0.11654 0.0
O96 O 0.63956 0.66337 0.07083 0.0
O97 O 0.64344 0.69457 0.01624 0.0
O98 O 0.68673 0.69689 0.08911 0.0
O99 O 0.66867 0.73586 0.07213 0.0
C100 C 0.54537 0.74832 0.98242 0.0
C101 C 0.5529 0.74375 0.93312 0.0
H102 H 0.57487 0.73246 0.84287 0.0
H103 H 0.62427 0.7212 0.8276 0.0
H104 H 0.57612 0.75071 0.14317 0.0
H105 H 0.53843 0.75461 0.08144 0.0
H106 H 0.52388 0.7524 0.99136 0.0
H107 H 0.53709 0.74441 0.90489 0.0
Mn108 Mn 0.32404 0.67469 0.0157 0.0
Mn109 Mn 0.35359 0.73091 0.05213 0.0
C110 C 0.3714 0.68113 0.00763 0.0
C111 C 0.31046 0.63151 0.02552 0.0
C112 C 0.3199 0.72609 0.95888 0.0
O113 O 0.29493 0.68938 0.06324 0.0
O114 O 0.31698 0.72638 0.08472 0.0
C115 C 0.36327 0.71795 0.15663 0.0
N116 N 0.37334 0.72539 0.11211 0.0
C117 C 0.41989 0.72796 0.14388 0.0
C118 C 0.40998 0.72046 0.19011 0.0
C119 C 0.38155 0.7154 0.19647 0.0
C120 C 0.40066 0.73033 0.1056 0.0
H121 H 0.34145 0.71395 0.16167 0.0
C122 C 0.29643 0.71064 0.08748 0.0
O123 O 0.29931 0.6464 0.99265 0.0
O124 O 0.32815 0.64222 0.05525 0.0
N125 N 0.38931 0.73716 0.02362 0.0
C126 C 0.39576 0.74277 0.97611 0.0
C127 C 0.42351 0.74761 0.96323 0.0
C128 C 0.44431 0.74673 0.99932 0.0
C129 C 0.43714 0.74111 0.04804 0.0
C130 C 0.40911 0.73666 0.05877 0.0
H131 H 0.37987 0.74339 0.94817 0.0
O132 O 0.35865 0.66494 0.97903 0.0
O133 O 0.35599 0.69359 0.03878 0.0
O134 O 0.31435 0.70215 0.96433 0.0
O135 O 0.33444 0.7389 0.98959 0.0
C136 C 0.4568 0.73924 0.08617 0.0
C137 C 0.44818 0.73266 0.13405 0.0
H138 H 0.42404 0.7183 0.22087 0.0
H139 H 0.37377 0.70948 0.232 0.0
H140 H 0.42887 0.75188 0.92553 0.0
H141 H 0.46573 0.7502 0.98916 0.0
H142 H 0.47864 0.74245 0.07892 0.0
H143 H 0.46353 0.73092 0.16291 0.0
Mn144 Mn 0.82516 0.84778 0.53547 0.0
Mn145 Mn 0.85399 0.78943 0.51057 0.0
C146 C 0.87219 0.84073 0.54755 0.0
C147 C 0.81213 0.8903 0.51719 0.0
C148 C 0.81841 0.79931 0.60007 0.0
O149 O 0.79686 0.83161 0.48858 0.0
O150 O 0.81822 0.79322 0.47473 0.0
C151 C 0.86616 0.79725 0.40504 0.0
N152 N 0.8751 0.79169 0.45127 0.0
C153 C 0.92218 0.78645 0.42318 0.0
C154 C 0.91343 0.792 0.37524 0.0
C155 C 0.88531 0.79746 0.36617 0.0
C156 C 0.90213 0.7864 0.46041 0.0
H157 H 0.84459 0.80153 0.39788 0.0
C158 C 0.79825 0.80934 0.46788 0.0
O159 O 0.80009 0.87717 0.55163 0.0
O160 O 0.83085 0.87829 0.49133 0.0
N161 N 0.88894 0.78381 0.54241 0.0
C162 C 0.89427 0.78041 0.5911 0.0
C163 C 0.9216 0.77554 0.60658 0.0
C164 C 0.94312 0.77411 0.57187 0.0
C165 C 0.93711 0.77753 0.52195 0.0
C166 C 0.90944 0.78214 0.50866 0.0
H167 H 0.87783 0.78156 0.61797 0.0
O168 O 0.8593 0.85846 0.57266 0.0
O169 O 0.85701 0.82718 0.51783 0.0
O170 O 0.81366 0.82299 0.59008 0.0
O171 O 0.83337 0.78474 0.57294 0.0
C172 C 0.95755 0.77704 0.48497 0.0
C173 C 0.9501 0.78152 0.43563 0.0
H174 H 0.92816 0.79234 0.3452 0.0
H175 H 0.87843 0.80187 0.3293 0.0
H176 H 0.92609 0.77301 0.64519 0.0
H177 H 0.96422 0.7706 0.584 0.0
H178 H 0.97913 0.77362 0.49416 0.0
H179 H 0.96608 0.78149 0.40763 0.0
Mn180 Mn 0.17539 0.8467 0.52336 0.0
Mn181 Mn 0.14507 0.7888 0.54481 0.0
C182 C 0.1283 0.84089 0.5103 0.0
C183 C 0.18819 0.88908 0.54338 0.0
C184 C 0.18105 0.79897 0.45604 0.0
O185 O 0.20316 0.82938 0.56996 0.0
O186 O 0.18114 0.79104 0.58021 0.0
C187 C 0.13364 0.79541 0.65093 0.0
N188 N 0.12429 0.79088 0.60453 0.0
C189 C 0.07709 0.78752 0.63291 0.0
C190 C 0.08625 0.79201 0.68101 0.0
C191 C 0.11464 0.796 0.69002 0.0
C192 C 0.097 0.78697 0.59547 0.0
H193 H 0.15541 0.79862 0.65805 0.0
C194 C 0.20139 0.80662 0.5885 0.0
O195 O 0.20061 0.87623 0.50883 0.0
O196 O 0.16973 0.87663 0.56886 0.0
N197 N 0.10981 0.78473 0.51322 0.0
C198 C 0.10416 0.78216 0.46445 0.0
C199 C 0.07657 0.77877 0.44908 0.0
C200 C 0.0551 0.77799 0.48394 0.0
C201 C 0.06143 0.78053 0.53393 0.0
C202 C 0.08934 0.78363 0.54712 0.0
H203 H 0.12056 0.78288 0.43746 0.0
O204 O 0.14174 0.85849 0.48601 0.0
O205 O 0.14301 0.82664 0.53963 0.0
O206 O 0.18676 0.82226 0.46774 0.0
O207 O 0.16529 0.78454 0.4819 0.0
C208 C 0.04108 0.78064 0.5711 0.0
C209 C 0.04891 0.78413 0.62055 0.0
H210 H 0.07165 0.79267 0.71123 0.0
H211 H 0.12185 0.7996 0.72701 0.0
H212 H 0.07185 0.7769 0.41041 0.0
H213 H 0.03382 0.77568 0.47189 0.0
H214 H 0.01933 0.77843 0.56198 0.0
H215 H 0.03304 0.78454 0.64871 0.0
Mn216 Mn 0.18212 0.17055 0.53549 0.0
Mn217 Mn 0.15432 0.22915 0.50913 0.0
C218 C 0.13509 0.17834 0.54686 0.0
C219 C 0.19474 0.12774 0.51821 0.0
C220 C 0.18946 0.21938 0.5992 0.0
O221 O 0.21084 0.18602 0.48846 0.0
O222 O 0.19011 0.2246 0.47362 0.0
C223 C 0.14231 0.22084 0.40366 0.0
N224 N 0.13333 0.22683 0.44971 0.0
C225 C 0.08645 0.23267 0.42109 0.0
C226 C 0.09523 0.22669 0.37334 0.0
C227 C 0.12328 0.2207 0.36463 0.0
C228 C 0.10639 0.23262 0.4585 0.0
H229 H 0.16382 0.21616 0.39677 0.0
C230 C 0.20984 0.20816 0.46723 0.0
O231 O 0.20675 0.14098 0.55255 0.0
O232 O 0.1762 0.13973 0.49198 0.0
N233 N 0.11938 0.23551 0.54056 0.0
C234 C 0.11396 0.2393 0.58914 0.0
C235 C 0.08668 0.24472 0.60427 0.0
C236 C 0.06529 0.24629 0.56935 0.0
C237 C 0.0714 0.24246 0.51955 0.0
C238 C 0.09901 0.2373 0.5066 0.0
H239 H 0.1303 0.23805 0.61616 0.0
O240 O 0.14761 0.1606 0.57247 0.0
O241 O 0.15062 0.19148 0.51708 0.0
O242 O 0.19382 0.19556 0.58976 0.0
O243 O 0.17484 0.23397 0.57159 0.0
C244 C 0.05107 0.24306 0.48239 0.0
C245 C 0.05859 0.23814 0.4332 0.0
H246 H 0.08059 0.22641 0.34318 0.0
H247 H 0.13019 0.21595 0.32791 0.0
H248 H 0.08213 0.24757 0.64279 0.0
H249 H 0.04423 0.25021 0.58122 0.0
H250 H 0.02953 0.24687 0.49132 0.0
H251 H 0.0427 0.23827 0.40506 0.0
Mn252 Mn 0.83158 0.17165 0.5216 0.0
Mn253 Mn 0.85958 0.23037 0.54471 0.0
C254 C 0.8784 0.17919 0.50817 0.0
C255 C 0.82014 0.12885 0.54068 0.0
C256 C 0.82309 0.21976 0.45661 0.0
O257 O 0.80341 0.18764 0.56918 0.0
O258 O 0.82426 0.22632 0.58197 0.0
C259 C 0.87304 0.22332 0.64994 0.0
N260 N 0.88142 0.22854 0.60324 0.0
C261 C 0.9289 0.23336 0.62926 0.0
C262 C 0.92074 0.22816 0.67765 0.0
C263 C 0.89269 0.22311 0.68801 0.0
C264 C 0.90836 0.23352 0.5929 0.0
H265 H 0.85154 0.21929 0.65809 0.0
C266 C 0.80463 0.20998 0.58968 0.0
O267 O 0.80729 0.14158 0.50653 0.0
O268 O 0.83846 0.14154 0.56611 0.0
N269 N 0.89409 0.236 0.51145 0.0
C270 C 0.89883 0.23902 0.46248 0.0
C271 C 0.92601 0.2434 0.44576 0.0
C272 C 0.94801 0.24466 0.47951 0.0
C273 C 0.94261 0.2416 0.52974 0.0
C274 C 0.91506 0.23752 0.54429 0.0
H275 H 0.88204 0.2379 0.43632 0.0
O276 O 0.86558 0.16131 0.48352 0.0
O277 O 0.86319 0.19269 0.53803 0.0
O278 O 0.81898 0.19603 0.46698 0.0
O279 O 0.83811 0.2346 0.48303 0.0
C280 C 0.96357 0.24188 0.56581 0.0
C281 C 0.95671 0.23778 0.61554 0.0
H282 H 0.93586 0.22777 0.70707 0.0
H283 H 0.88625 0.21896 0.72523 0.0
H284 H 0.93002 0.24564 0.40692 0.0
H285 H 0.96899 0.24774 0.46643 0.0
H286 H 0.98507 0.24486 0.55562 0.0
H287 H 0.97306 0.23768 0.64284 0.0
C288 C 0.32404 0.43572 0.98972 0.0
C289 C 0.31115 0.41936 0.02406 0.0
C290 C 0.32129 0.46275 0.99354 0.0
C291 C 0.30583 0.47388 0.03214 0.0
C292 C 0.29256 0.45746 0.06568 0.0
C293 C 0.29491 0.43057 0.06142 0.0
C294 C 0.30469 0.50236 0.04072 0.0
C295 C 0.30538 0.51999 1.00438 0.0
C296 C 0.30449 0.54845 0.01346 0.0
C297 C 0.29244 0.56465 0.97803 0.0
C298 C 0.29299 0.59159 0.98355 0.0
C299 C 0.30617 0.60304 0.0242 0.0
H300 H 0.32684 0.54795 0.08269 0.0
C301 C 0.31778 0.58685 0.06027 0.0
C302 C 0.31685 0.55982 0.0551 0.0
H303 H 0.32832 0.59505 0.09175 0.0
H304 H 0.33686 0.4277 0.96077 0.0
H305 H 0.33224 0.47486 0.96755 0.0
H306 H 0.28061 0.46548 0.0958 0.0
H307 H 0.28479 0.41861 0.08872 0.0
H308 H 0.30193 0.50892 0.07833 0.0
H309 H 0.30539 0.51342 0.96648 0.0
H310 H 0.28289 0.55644 0.94556 0.0
H311 H 0.28404 0.60346 0.95483 0.0
C312 C 0.42082 0.34424 1.00499 0.0
C313 C 0.40737 0.34145 0.05031 0.0
C314 C 0.44978 0.34438 1.00221 0.0
C315 C 0.46597 0.34213 0.04507 0.0
C316 C 0.45228 0.34026 0.09061 0.0
C317 C 0.42324 0.34026 0.09329 0.0
C318 C 0.49693 0.3409 0.0441 0.0
C319 C 0.51275 0.34734 1.00498 0.0
C320 C 0.54366 0.3461 1.00492 0.0
C321 C 0.5578 0.34433 0.95981 0.0
C322 C 0.58684 0.34297 0.9583 0.0
C323 C 0.60218 0.343 1.00198 0.0
H324 H 0.54953 0.35004 0.08382 0.0
C325 C 0.58826 0.34597 0.04686 0.0
C326 C 0.55933 0.34749 0.04844 0.0
H327 H 0.59982 0.34712 0.08091 0.0
H328 H 0.40888 0.34589 0.97143 0.0
H329 H 0.45904 0.34549 0.96619 0.0
H330 H 0.4641 0.33859 0.12429 0.0
H331 H 0.41321 0.33857 0.12873 0.0
H332 H 0.50696 0.33428 0.07747 0.0
H333 H 0.50304 0.35352 0.97109 0.0
H334 H 0.54632 0.34369 0.92564 0.0
H335 H 0.59727 0.34134 0.9232 0.0
C336 C 0.67561 0.43549 0.06054 0.0
C337 C 0.69667 0.41896 0.04323 0.0
C338 C 0.67871 0.46243 0.05789 0.0
C339 C 0.70312 0.47335 0.03849 0.0
C340 C 0.72475 0.45682 0.02381 0.0
C341 C 0.72143 0.42989 0.0255 0.0
C342 C 0.70656 0.50186 0.03338 0.0
C343 C 0.68542 0.51761 0.0205 0.0
C344 C 0.68804 0.54623 0.01508 0.0
C345 C 0.6687 0.55956 0.98581 0.0
C346 C 0.66876 0.58666 0.9835 0.0
C347 C 0.68795 0.60108 0.01106 0.0
H348 H 0.7229 0.55122 0.06482 0.0
C349 C 0.70791 0.58776 0.03908 0.0
C350 C 0.70799 0.56065 0.04108 0.0
H351 H 0.72287 0.5983 0.06101 0.0
H352 H 0.65627 0.42764 0.07428 0.0
H353 H 0.66194 0.47468 0.0708 0.0
H354 H 0.74389 0.46474 0.00934 0.0
H355 H 0.73805 0.41764 0.012 0.0
H356 H 0.72738 0.50966 0.03713 0.0
H357 H 0.66534 0.50909 0.01208 0.0
H358 H 0.65304 0.54898 0.9655 0.0
H359 H 0.65297 0.59631 0.96185 0.0
C360 C 0.41994 0.68031 0.97486 0.0
C361 C 0.40158 0.67904 0.01463 0.0
C362 C 0.44863 0.67862 0.9827 0.0
C363 C 0.45932 0.67525 0.03055 0.0
C364 C 0.44062 0.67257 0.06969 0.0
C365 C 0.41208 0.67439 0.06182 0.0
C366 C 0.48957 0.67394 0.04145 0.0
C367 C 0.50937 0.68308 0.01125 0.0
C368 C 0.53951 0.68141 0.02222 0.0
C369 C 0.55811 0.68031 0.9827 0.0
C370 C 0.58666 0.67994 0.99088 0.0
C371 C 0.59728 0.6813 0.03873 0.0
H372 H 0.53647 0.6832 0.10185 0.0
C373 C 0.5789 0.68151 0.0786 0.0
C374 C 0.55015 0.68184 0.07046 0.0
H375 H 0.58675 0.68223 0.11582 0.0
H376 H 0.41214 0.68312 0.93796 0.0
H377 H 0.46214 0.67973 0.9511 0.0
H378 H 0.44811 0.66952 0.10674 0.0
H379 H 0.39815 0.67242 0.09283 0.0
H380 H 0.49563 0.66534 0.07622 0.0
H381 H 0.50364 0.69166 0.97636 0.0
H382 H 0.55052 0.67988 0.94527 0.0
H383 H 0.60051 0.67898 0.95958 0.0
C384 C 0.82765 0.93483 0.49319 0.0
C385 C 0.807 0.91846 0.51221 0.0
C386 C 0.82462 0.9618 0.49579 0.0
C387 C 0.80067 0.97288 0.5168 0.0
C388 C 0.77938 0.95649 0.53312 0.0
C389 C 0.78266 0.92956 0.53152 0.0
C390 C 0.79743 1.0014 0.52214 0.0
C391 C 0.81883 0.01695 0.53424 0.0
C392 C 0.81642 0.04556 0.54027 0.0
C393 C 0.83619 0.0586 0.56901 0.0
C394 C 0.83633 0.08569 0.57177 0.0
C395 C 0.81691 0.10038 0.54516 0.0
H396 H 0.78097 0.05103 0.49202 0.0
C397 C 0.79651 0.08735 0.51773 0.0
C398 C 0.79622 0.06025 0.51532 0.0
H399 H 0.78136 0.09811 0.49653 0.0
H400 H 0.84668 0.92683 0.47825 0.0
H401 H 0.8411 0.97394 0.48168 0.0
H402 H 0.76059 0.96455 0.54887 0.0
H403 H 0.76637 0.91741 0.54635 0.0
H404 H 0.7766 1.00937 0.51944 0.0
H405 H 0.83897 1.00824 0.54164 0.0
H406 H 0.85203 0.04781 0.58853 0.0
H407 H 0.85246 0.09511 0.59293 0.0
C408 C 0.07992 0.84488 0.47732 0.0
C409 C 0.09814 0.84342 0.51727 0.0
C410 C 0.05126 0.84702 0.48529 0.0
C411 C 0.04052 0.84815 0.53348 0.0
C412 C 0.05911 0.84805 0.57307 0.0
C413 C 0.0876 0.84574 0.56506 0.0
C414 C 0.0103 0.84985 0.54439 0.0
C415 C 0.99039 0.84209 0.51306 0.0
C416 C 0.96022 0.84346 0.52422 0.0
C417 C 0.9416 0.84466 0.48476 0.0
C418 C 0.91304 0.8443 0.49291 0.0
C419 C 0.90244 0.8422 0.54068 0.0
H420 H 0.96319 0.84088 0.60383 0.0
C421 C 0.9208 0.84206 0.58056 0.0
C422 C 0.94955 0.84238 0.57244 0.0
H423 H 0.91295 0.84074 0.61773 0.0
H424 H 0.08779 0.84386 0.44012 0.0
H425 H 0.03779 0.84806 0.45361 0.0
H426 H 0.05157 0.84929 0.61047 0.0
H427 H 0.10144 0.84556 0.59642 0.0
H428 H 0.00442 0.85729 0.58021 0.0
H429 H 0.99613 0.83459 0.47724 0.0
H430 H 0.94916 0.84558 0.44734 0.0
H431 H 0.89918 0.84516 0.46164 0.0
C432 C 0.17923 0.08302 0.49511 0.0
C433 C 0.19992 0.09956 0.51346 0.0
C434 C 0.18248 0.05606 0.49772 0.0
C435 C 0.20672 0.04517 0.51802 0.0
C436 C 0.22801 0.06173 0.53372 0.0
C437 C 0.2245 0.08864 0.53216 0.0
C438 C 0.21027 0.01666 0.52325 0.0
C439 C 0.18916 1.00098 0.53632 0.0
C440 C 0.19187 0.97239 0.54255 0.0
C441 C 0.17259 0.95937 0.57231 0.0
C442 C 0.17259 0.93229 0.57527 0.0
C443 C 0.19165 0.91755 0.54786 0.0
H444 H 0.22668 0.96691 0.49283 0.0
C445 C 0.21164 0.93057 0.51948 0.0
C446 C 0.2118 0.95769 0.51687 0.0
H447 H 0.22649 0.91979 0.49762 0.0
H448 H 0.16003 0.09088 0.48066 0.0
H449 H 0.16597 0.04378 0.48414 0.0
H450 H 0.247 0.05382 0.54894 0.0
H451 H 0.24083 0.10092 0.54647 0.0
H452 H 0.23112 1.00882 0.51974 0.0
H453 H 0.16905 0.00958 0.54448 0.0
H454 H 0.15698 0.97016 0.59244 0.0
H455 H 0.15678 0.9229 0.59719 0.0
C456 C 0.92703 0.17678 0.47535 0.0
C457 C 0.90866 0.17751 0.5152 0.0
C458 C 0.95573 0.17508 0.48342 0.0
C459 C 0.96642 0.17368 0.53165 0.0
C460 C 0.9477 0.17328 0.57109 0.0
C461 C 0.91919 0.17511 0.56298 0.0
C462 C 0.99665 0.17192 0.54285 0.0
C463 C 0.01684 0.17887 0.51135 0.0
C464 C 0.04699 0.17708 0.52284 0.0
C465 C 0.06572 0.17524 0.48358 0.0
C466 C 0.09427 0.17512 0.49197 0.0
C467 C 0.1048 0.17734 0.53977 0.0
H468 H 0.0439 0.18026 0.60238 0.0
C469 C 0.08632 0.17811 0.57947 0.0
C470 C 0.05757 0.17829 0.57112 0.0
H471 H 0.09409 0.17954 0.61668 0.0
H472 H 0.91921 0.17791 0.43814 0.0
H473 H 0.96924 0.17451 0.45177 0.0
H474 H 0.95517 0.17185 0.60851 0.0
H475 H 0.9053 0.17476 0.59426 0.0
H476 H 1.00232 0.16487 0.57901 0.0
H477 H 0.01138 0.1859 0.4751 0.0
H478 H 0.05825 0.17419 0.44612 0.0
H479 H 0.1082 0.17379 0.46083 0.0
C480 C 0.2353 0.24122 0.41791 0.0
C481 C 0.23118 0.21505 0.43015 0.0
C482 C 0.25179 0.24811 0.37791 0.0
C483 C 0.26428 0.22897 0.34838 0.0
C484 C 0.26176 0.20286 0.36251 0.0
C485 C 0.24532 0.19593 0.40301 0.0
C486 C 0.27945 0.23593 0.30242 0.0
C487 C 0.27204 0.2567 0.27521 0.0
C488 C 0.28598 0.2659 0.2295 0.0
C489 C 0.27783 0.29012 0.21092 0.0
C490 C 0.28989 0.30021 0.16856 0.0
C491 C 0.31046 0.28633 0.14301 0.0
H492 H 0.31323 0.23289 0.21648 0.0
C493 C 0.31855 0.26188 0.16104 0.0
C494 C 0.30649 0.25175 0.20394 0.0
H495 H 0.33434 0.25065 0.14229 0.0
H496 H 0.22519 0.25649 0.43862 0.0
H497 H 0.25434 0.2685 0.3699 0.0
H498 H 0.27157 0.18774 0.34098 0.0
H499 H 0.2426 0.17559 0.41151 0.0
H500 H 0.29613 0.22327 0.29049 0.0
H501 H 0.25432 0.26812 0.28722 0.0
H502 H 0.26207 0.30151 0.22947 0.0
H503 H 0.28293 0.31903 0.1559 0.0
C504 C 0.72574 0.27595 0.14321 0.0
C505 C 0.72366 0.30213 0.12935 0.0
C506 C 0.74239 0.26845 0.18267 0.0
C507 C 0.75715 0.287 0.2101 0.0
C508 C 0.75624 0.31302 0.19477 0.0
C509 C 0.73964 0.32055 0.15484 0.0
C510 C 0.77355 0.27966 0.25458 0.0
C511 C 0.76709 0.25885 0.28239 0.0
C512 C 0.78264 0.24981 0.32661 0.0
C513 C 0.77706 0.22475 0.34402 0.0
C514 C 0.79031 0.21512 0.38573 0.0
C515 C 0.80948 0.23036 0.41181 0.0
H516 H 0.80652 0.28476 0.34094 0.0
C517 C 0.81514 0.25555 0.39462 0.0
C518 C 0.8019 0.2652 0.35244 0.0
H519 H 0.82976 0.26786 0.41378 0.0
H520 H 0.71419 0.26112 0.12385 0.0
H521 H 0.74353 0.24803 0.19142 0.0
H522 H 0.76775 0.32769 0.21461 0.0
H523 H 0.73859 0.34087 0.1451 0.0
H524 H 0.79076 0.29206 0.26483 0.0
H525 H 0.74918 0.24728 0.27223 0.0
H526 H 0.76231 0.21241 0.32517 0.0
H527 H 0.78526 0.19567 0.39769 0.0
C528 C 0.77352 0.77562 0.41889 0.0
C529 C 0.77704 0.8019 0.43101 0.0
C530 C 0.7569 0.76831 0.37933 0.0
C531 C 0.74368 0.78713 0.35014 0.0
C532 C 0.74571 0.81331 0.3641 0.0
C533 C 0.76226 0.82066 0.40415 0.0
C534 C 0.72811 0.77991 0.30478 0.0
C535 C 0.73485 0.75881 0.27786 0.0
C536 C 0.72045 0.75002 0.23235 0.0
C537 C 0.72611 0.72486 0.21535 0.0
C538 C 0.71386 0.71547 0.17251 0.0
C539 C 0.69567 0.73105 0.14498 0.0
H540 H 0.69759 0.78541 0.2161 0.0
C541 C 0.68998 0.75635 0.16173 0.0
C542 C 0.7022 0.76576 0.20497 0.0
H543 H 0.67608 0.76892 0.14144 0.0
H544 H 0.78414 0.76061 0.43942 0.0
H545 H 0.75476 0.74784 0.37154 0.0
H546 H 0.73535 0.8282 0.34284 0.0
H547 H 0.76451 0.84107 0.41258 0.0
H548 H 0.71155 0.79272 0.29294 0.0
H549 H 0.75218 0.74688 0.28973 0.0
H550 H 0.74012 0.71228 0.23539 0.0
H551 H 0.71888 0.69593 0.16091 0.0
C552 C 0.21292 0.8031 0.38373 0.0
C553 C 0.19344 0.78838 0.4101 0.0
C554 C 0.22481 0.79351 0.34068 0.0
C555 C 0.21761 0.76899 0.32228 0.0
C556 C 0.19806 0.75412 0.34847 0.0
C557 C 0.18615 0.76373 0.39194 0.0
C558 C 0.23162 0.76011 0.27629 0.0
C559 C 0.22526 0.73869 0.25 0.0
C560 C 0.2407 0.73161 0.2043 0.0
C561 C 0.24385 0.70541 0.19094 0.0
C562 C 0.26062 0.69835 0.15085 0.0
C563 C 0.27448 0.71745 0.12346 0.0
H564 H 0.24983 0.77109 0.18158 0.0
C565 C 0.26973 0.74365 0.13482 0.0
C566 C 0.25287 0.75066 0.17431 0.0
H567 H 0.27969 0.75885 0.11383 0.0
H568 H 0.21918 0.82211 0.39638 0.0
H569 H 0.2398 0.80548 0.32159 0.0
H570 H 0.19201 0.73504 0.33613 0.0
H571 H 0.17121 0.75184 0.41125 0.0
H572 H 0.2486 0.7722 0.26362 0.0
H573 H 0.20935 0.72547 0.26272 0.0
H574 H 0.23431 0.69033 0.2128 0.0
H575 H 0.2639 0.67799 0.143 0.0
C576 C 0.23607 0.81479 0.65606 0.0
C577 C 0.22272 0.79756 0.6238 0.0
C578 C 0.2528 0.80531 0.69432 0.0
C579 C 0.25667 0.7784 0.70055 0.0
C580 C 0.24459 0.76146 0.6664 0.0
C581 C 0.22766 0.77085 0.62887 0.0
C582 C 0.27227 0.76678 0.74239 0.0
C583 C 0.27643 0.7785 0.78607 0.0
C584 C 0.28831 0.76466 0.82936 0.0
C585 C 0.30216 0.77879 0.86598 0.0
C586 C 0.31264 0.76637 0.90784 0.0
C587 C 0.3091 0.7395 0.91442 0.0
H588 H 0.27318 0.72631 0.80983 0.0
C589 C 0.29494 0.72545 0.87795 0.0
C590 C 0.28464 0.73783 0.83611 0.0
H591 H 0.29159 0.70479 0.88172 0.0
H592 H 0.23262 0.83548 0.65307 0.0
H593 H 0.26235 0.81908 0.71903 0.0
H594 H 0.24738 0.74069 0.66982 0.0
H595 H 0.21786 0.75706 0.6044 0.0
H596 H 0.27902 0.74682 0.73781 0.0
H597 H 0.27041 0.7986 0.79112 0.0
H598 H 0.30497 0.79952 0.86214 0.0
H599 H 0.32332 0.77787 0.93518 0.0
C600 C 0.27878 0.27725 0.91829 0.0
C601 C 0.28273 0.30356 0.92972 0.0
C602 C 0.26238 0.26986 0.87847 0.0
C603 C 0.24982 0.28863 0.84825 0.0
C604 C 0.25227 0.3149 0.86146 0.0
C605 C 0.2686 0.32233 0.90181 0.0
C606 C 0.23445 0.28121 0.80271 0.0
C607 C 0.24092 0.25966 0.77682 0.0
C608 C 0.22668 0.25042 0.73138 0.0
C609 C 0.23283 0.22526 0.71489 0.0
C610 C 0.2207 0.21535 0.67236 0.0
C611 C 0.2021 0.23037 0.64456 0.0
H612 H 0.20291 0.28521 0.71453 0.0
C613 C 0.19589 0.25567 0.66076 0.0
C614 C 0.20801 0.26561 0.70375 0.0
H615 H 0.18165 0.26781 0.64029 0.0
H616 H 0.28889 0.26224 0.93962 0.0
H617 H 0.25989 0.24937 0.87133 0.0
H618 H 0.24242 0.32977 0.83943 0.0
H619 H 0.2712 0.34276 0.90968 0.0
H620 H 0.21827 0.29419 0.78992 0.0
H621 H 0.258 0.24766 0.78956 0.0
H622 H 0.24714 0.21305 0.73511 0.0
H623 H 0.22613 0.19583 0.66121 0.0
C624 C 0.69334 0.26352 0.89407 0.0
C625 C 0.70098 0.28787 0.91314 0.0
C626 C 0.70613 0.25368 0.85157 0.0
C627 C 0.72694 0.26801 0.82736 0.0
C628 C 0.73464 0.29213 0.84693 0.0
C629 C 0.72186 0.30196 0.88895 0.0
C630 C 0.74165 0.259 0.78219 0.0
C631 C 0.73445 0.23855 0.75395 0.0
C632 C 0.75025 0.23155 0.70862 0.0
C633 C 0.75192 0.20554 0.69342 0.0
C634 C 0.7685 0.19842 0.65317 0.0
C635 C 0.78364 0.21728 0.62725 0.0
H636 H 0.7621 0.2709 0.68931 0.0
C637 C 0.78053 0.24344 0.6407 0.0
C638 C 0.76392 0.25051 0.68051 0.0
H639 H 0.79141 0.25856 0.62098 0.0
H640 H 0.67734 0.25213 0.91174 0.0
H641 H 0.69973 0.23487 0.83833 0.0
H642 H 0.75062 0.30364 0.82942 0.0
H643 H 0.72847 0.32071 0.90244 0.0
H644 H 0.7597 0.27027 0.77158 0.0
H645 H 0.71731 0.22615 0.76451 0.0
H646 H 0.74121 0.19057 0.71382 0.0
H647 H 0.77038 0.1781 0.64374 0.0
C648 C 0.7302 0.7431 0.9204 0.0
C649 C 0.7249 0.7169 0.9308 0.0
C650 C 0.74697 0.7501 0.88084 0.0
C651 C 0.75852 0.73106 0.84993 0.0
C652 C 0.75483 0.70483 0.86226 0.0
C653 C 0.73813 0.69777 0.90233 0.0
C654 C 0.77386 0.7382 0.80429 0.0
C655 C 0.76766 0.75989 0.77872 0.0
C656 C 0.78164 0.76886 0.7329 0.0
C657 C 0.77513 0.79381 0.71582 0.0
C658 C 0.78708 0.80352 0.67301 0.0
C659 C 0.80588 0.7885 0.64558 0.0
H660 H 0.80592 0.73423 0.71687 0.0
C661 C 0.81244 0.76341 0.66235 0.0
C662 C 0.80048 0.75366 0.70559 0.0
H663 H 0.82685 0.75128 0.64216 0.0
H664 H 0.72079 0.75834 0.9422 0.0
H665 H 0.75045 0.77052 0.87426 0.0
H666 H 0.7639 0.68975 0.83965 0.0
H667 H 0.73448 0.67741 0.90943 0.0
H668 H 0.78957 0.72485 0.79103 0.0
H669 H 0.75091 0.77216 0.79198 0.0
H670 H 0.76068 0.80602 0.73579 0.0
H671 H 0.78138 0.82289 0.66141 0.0
loop_
_geom_bond_atom_site_label_1
_geom_bond_atom_site_label_2
_geom_bond_distance
_geom_bond_site_symmetry_2
_ccdc_geom_bond_type
Mn0 O5 2.095 1_554 S
Mn0 O15 2.162 . S
Mn0 O16 2.297 1_554 S
Mn0 O24 2.385 . S
Mn0 O25 2.209 . S
Mn0 O26 2.094 . S
Mn1 O6 2.121 1_554 S
Mn1 N8 2.257 1_554 S
Mn1 N17 2.282 . S
Mn1 O25 2.215 . S
Mn1 O27 2.117 . S
C2 O24 1.234 . S
C2 O25 1.283 . S
C3 O15 1.281 . S
C3 O16 1.236 1_554 S
C4 O26 1.240 . S
C4 O27 1.264 . S
O5 Mn0 2.095 1_556 S
O5 C14 1.250 . S
O6 Mn1 2.121 1_556 S
O6 C14 1.258 . S
C7 N8 1.326 . S
C7 C11 1.460 . S
C7 H13 0.929 . S
N8 Mn1 2.257 1_556 S
N8 C7 1.326 . S
N8 C12 1.362 . S
C9 C10 1.258 . S
C9 C12 1.431 . S
C9 C29 1.449 . S
C10 C9 1.258 . S
C10 C11 1.477 . S
C10 H30 0.931 . S
C11 C7 1.460 . S
C11 C10 1.477 . S
C11 H31 0.930 . S
C12 N8 1.362 . S
C12 C9 1.431 . S
C12 C22 1.476 1_556 S
H13 C7 0.929 . S
C14 O5 1.250 . S
C14 O6 1.258 . S
O15 Mn0 2.162 . S
O15 C3 1.281 . S
O16 Mn0 2.297 1_556 S
O16 C3 1.236 1_556 S
N17 Mn1 2.282 . S
N17 C18 1.328 . S
N17 C22 1.318 . S
C18 N17 1.328 . S
C18 C19 1.457 . S
C18 H23 0.929 . S
C19 C18 1.457 . S
C19 C20 1.291 . S
C19 H32 0.931 . S
C20 C19 1.291 . S
C20 C21 1.373 . S
C20 H33 0.929 . S
C21 C20 1.373 . S
C21 C22 1.396 . S
C21 C28 1.403 . S
C22 C12 1.476 1_554 S
C22 N17 1.318 . S
C22 C21 1.396 . S
H23 C18 0.929 . S
O24 Mn0 2.385 . S
O24 C2 1.234 . S
O25 Mn0 2.209 . S
O25 Mn1 2.215 . S
O25 C2 1.283 . S
O26 Mn0 2.094 . S
O26 C4 1.240 . S
O27 Mn1 2.117 . S
O27 C4 1.264 . S
C28 C21 1.403 . S
C28 C29 1.399 1_554 S
C28 H34 0.929 . S
C29 C9 1.449 . S
C29 C28 1.399 1_556 S
C29 H35 0.930 . S
H30 C10 0.931 . S
H31 C11 0.930 . S
H32 C19 0.931 . S
H33 C20 0.929 . S
H34 C28 0.929 . S
H35 C29 0.930 . S
Mn36 O41 2.101 . S
Mn36 O51 2.160 1_554 S
Mn36 O52 2.303 . S
Mn36 O60 2.381 1_554 S
Mn36 O61 2.211 . S
Mn36 O62 2.086 1_554 S
Mn37 O42 2.121 . S
Mn37 N44 2.257 . S
Mn37 N53 2.282 1_554 S
Mn37 O61 2.215 . S
Mn37 O63 2.117 1_554 S
C38 O60 1.234 . S
C38 O61 1.283 1_556 S
C39 O51 1.281 1_554 S
C39 O52 1.236 . S
C40 O62 1.240 . S
C40 O63 1.264 . S
O41 Mn36 2.101 . S
O41 C50 1.250 . S
O42 Mn37 2.121 . S
O42 C50 1.258 . S
C43 N44 1.326 . S
C43 C47 1.460 . S
C43 H49 0.929 . S
N44 Mn37 2.257 . S
N44 C43 1.326 . S
N44 C48 1.362 . S
C45 C46 1.258 . S
C45 C48 1.431 . S
C45 C65 1.449 . S
C46 C45 1.258 . S
C46 C47 1.477 . S
C46 H66 0.931 . S
C47 C43 1.460 . S
C47 C46 1.477 . S
C47 H67 0.930 . S
C48 N44 1.362 . S
C48 C45 1.431 . S
C48 C58 1.459 1_554 S
H49 C43 0.929 . S
C50 O41 1.250 . S
C50 O42 1.258 . S
O51 Mn36 2.160 1_556 S
O51 C39 1.281 1_556 S
O52 Mn36 2.303 . S
O52 C39 1.236 . S
N53 Mn37 2.282 1_556 S
N53 C54 1.328 . S
N53 C58 1.326 . S
C54 N53 1.328 . S
C54 C55 1.457 . S
C54 H59 0.929 . S
C55 C54 1.457 . S
C55 C56 1.291 . S
C55 H68 0.931 . S
C56 C55 1.291 . S
C56 C57 1.373 . S
C56 H69 0.929 . S
C57 C56 1.373 . S
C57 C58 1.404 . S
C57 C64 1.403 1_556 S
C58 C48 1.459 1_556 S
C58 N53 1.326 . S
C58 C57 1.404 . S
H59 C54 0.929 . S
O60 Mn36 2.381 1_556 S
O60 C38 1.234 . S
O61 Mn36 2.211 . S
O61 Mn37 2.215 . S
O61 C38 1.283 1_554 S
O62 Mn36 2.086 1_556 S
O62 C40 1.240 . S
O63 Mn37 2.117 1_556 S
O63 C40 1.264 . S
C64 C57 1.403 1_554 S
C64 C65 1.399 . S
C64 H70 0.929 1_554 S
C65 C45 1.449 . S
C65 C64 1.399 . S
C65 H71 0.930 . S
H66 C46 0.931 . S
H67 C47 0.930 . S
H68 C55 0.931 . S
H69 C56 0.929 . S
H70 C64 0.929 1_556 S
H71 C65 0.930 . S
Mn72 O77 2.095 1_554 S
Mn72 O87 2.162 . S
Mn72 O88 2.297 1_554 S
Mn72 O96 2.385 . S
Mn72 O97 2.209 . S
Mn72 O98 2.094 . S
Mn73 O78 2.121 1_554 S
Mn73 N80 2.257 1_554 S
Mn73 N89 2.282 . S
Mn73 O97 2.215 . S
Mn73 O99 2.117 . S
C74 O96 1.234 . S
C74 O97 1.283 . S
C75 O87 1.281 . S
C75 O88 1.236 1_554 S
C76 O98 1.240 . S
C76 O99 1.264 . S
O77 Mn72 2.095 1_556 S
O77 C86 1.250 . S
O78 Mn73 2.121 1_556 S
O78 C86 1.258 . S
C79 N80 1.326 . S
C79 C83 1.460 . S
C79 H85 0.929 . S
N80 Mn73 2.257 1_556 S
N80 C79 1.326 . S
N80 C84 1.362 . S
C81 C82 1.258 . S
C81 C84 1.431 . S
C81 C101 1.449 . S
C82 C81 1.258 . S
C82 C83 1.477 . S
C82 H102 0.931 . S
C83 C79 1.460 . S
C83 C82 1.477 . S
C83 H103 0.930 . S
C84 N80 1.362 . S
C84 C81 1.431 . S
C84 C94 1.476 1_556 S
H85 C79 0.929 . S
C86 O77 1.250 . S
C86 O78 1.258 . S
O87 Mn72 2.162 . S
O87 C75 1.281 . S
O88 Mn72 2.297 1_556 S
O88 C75 1.236 1_556 S
N89 Mn73 2.282 . S
N89 C90 1.328 . S
N89 C94 1.318 . S
C90 N89 1.328 . S
C90 C91 1.457 . S
C90 H95 0.929 . S
C91 C90 1.457 . S
C91 C92 1.291 . S
C91 H104 0.931 . S
C92 C91 1.291 . S
C92 C93 1.373 . S
C92 H105 0.929 . S
C93 C92 1.373 . S
C93 C94 1.396 . S
C93 C100 1.403 . S
C94 C84 1.476 1_554 S
C94 N89 1.318 . S
C94 C93 1.396 . S
H95 C90 0.929 . S
O96 Mn72 2.385 . S
O96 C74 1.234 . S
O97 Mn72 2.209 . S
O97 Mn73 2.215 . S
O97 C74 1.283 . S
O98 Mn72 2.094 . S
O98 C76 1.240 . S
O99 Mn73 2.117 . S
O99 C76 1.264 . S
C100 C93 1.403 . S
C100 C101 1.399 1_554 S
C100 H106 0.929 . S
C101 C81 1.449 . S
C101 C100 1.399 1_556 S
C101 H107 0.930 . S
H102 C82 0.931 . S
H103 C83 0.930 . S
H104 C91 0.931 . S
H105 C92 0.929 . S
H106 C100 0.929 . S
H107 C101 0.930 . S
Mn108 O113 2.101 . S
Mn108 O123 2.160 1_554 S
Mn108 O124 2.303 . S
Mn108 O132 2.381 1_554 S
Mn108 O133 2.211 . S
Mn108 O134 2.086 1_554 S
Mn109 O114 2.121 . S
Mn109 N116 2.257 . S
Mn109 N125 2.282 1_554 S
Mn109 O133 2.215 . S
Mn109 O135 2.117 1_554 S
C110 O132 1.234 . S
C110 O133 1.283 1_556 S
C111 O123 1.281 1_554 S
C111 O124 1.236 . S
C112 O134 1.240 . S
C112 O135 1.264 . S
O113 Mn108 2.101 . S
O113 C122 1.250 . S
O114 Mn109 2.121 . S
O114 C122 1.258 . S
C115 N116 1.326 . S
C115 C119 1.460 . S
C115 H121 0.929 . S
N116 Mn109 2.257 . S
N116 C115 1.326 . S
N116 C120 1.362 . S
C117 C118 1.258 . S
C117 C120 1.431 . S
C117 C137 1.449 . S
C118 C117 1.258 . S
C118 C119 1.477 . S
C118 H138 0.931 . S
C119 C115 1.460 . S
C119 C118 1.477 . S
C119 H139 0.930 . S
C120 N116 1.362 . S
C120 C117 1.431 . S
C120 C130 1.459 1_554 S
H121 C115 0.929 . S
C122 O113 1.250 . S
C122 O114 1.258 . S
O123 Mn108 2.160 1_556 S
O123 C111 1.281 1_556 S
O124 Mn108 2.303 . S
O124 C111 1.236 . S
N125 Mn109 2.282 1_556 S
N125 C126 1.328 . S
N125 C130 1.326 . S
C126 N125 1.328 . S
C126 C127 1.457 . S
C126 H131 0.929 . S
C127 C126 1.457 . S
C127 C128 1.291 . S
C127 H140 0.931 . S
C128 C127 1.291 . S
C128 C129 1.373 . S
C128 H141 0.929 . S
C129 C128 1.373 . S
C129 C130 1.404 . S
C129 C136 1.403 1_556 S
C130 C120 1.459 1_556 S
C130 N125 1.326 . S
C130 C129 1.404 . S
H131 C126 0.929 . S
O132 Mn108 2.381 1_556 S
O132 C110 1.234 . S
O133 Mn108 2.211 . S
O133 Mn109 2.215 . S
O133 C110 1.283 1_554 S
O134 Mn108 2.086 1_556 S
O134 C112 1.240 . S
O135 Mn109 2.117 1_556 S
O135 C112 1.264 . S
C136 C129 1.403 1_554 S
C136 C137 1.399 . S
C136 H142 0.929 1_554 S
C137 C117 1.449 . S
C137 C136 1.399 . S
C137 H143 0.930 . S
H138 C118 0.931 . S
H139 C119 0.930 . S
H140 C127 0.931 . S
H141 C128 0.929 . S
H142 C136 0.929 1_556 S
H143 C137 0.930 . S
Mn144 O149 2.095 . S
Mn144 O159 2.162 . S
Mn144 O160 2.297 . S
Mn144 O168 2.385 . S
Mn144 O169 2.209 . S
Mn144 O170 2.094 . S
Mn145 O150 2.121 . S
Mn145 N152 2.257 . S
Mn145 N161 2.282 . S
Mn145 O169 2.215 . S
Mn145 O171 2.117 . S
C146 O168 1.234 . S
C146 O169 1.283 . S
C147 O159 1.281 . S
C147 O160 1.236 . S
C148 O170 1.240 . S
C148 O171 1.264 . S
O149 Mn144 2.095 . S
O149 C158 1.250 . S
O150 Mn145 2.121 . S
O150 C158 1.258 . S
C151 N152 1.326 . S
C151 C155 1.460 . S
C151 H157 0.929 . S
N152 Mn145 2.257 . S
N152 C151 1.326 . S
N152 C156 1.362 . S
C153 C154 1.258 . S
C153 C156 1.431 . S
C153 C173 1.449 . S
C154 C153 1.258 . S
C154 C155 1.477 . S
C154 H174 0.931 . S
C155 C151 1.460 . S
C155 C154 1.477 . S
C155 H175 0.930 . S
C156 N152 1.362 . S
C156 C153 1.431 . S
C156 C166 1.476 . S
H157 C151 0.929 . S
C158 O149 1.250 . S
C158 O150 1.258 . S
O159 Mn144 2.162 . S
O159 C147 1.281 . S
O160 Mn144 2.297 . S
O160 C147 1.236 . S
N161 Mn145 2.282 . S
N161 C162 1.328 . S
N161 C166 1.318 . S
C162 N161 1.328 . S
C162 C163 1.457 . S
C162 H167 0.929 . S
C163 C162 1.457 . S
C163 C164 1.291 . S
C163 H176 0.931 . S
C164 C163 1.291 . S
C164 C165 1.373 . S
C164 H177 0.929 . S
C165 C164 1.373 . S
C165 C166 1.396 . S
C165 C172 1.403 . S
C166 C156 1.476 . S
C166 N161 1.318 . S
C166 C165 1.396 . S
H167 C162 0.929 . S
O168 Mn144 2.385 . S
O168 C146 1.234 . S
O169 Mn144 2.209 . S
O169 Mn145 2.215 . S
O169 C146 1.283 . S
O170 Mn144 2.094 . S
O170 C148 1.240 . S
O171 Mn145 2.117 . S
O171 C148 1.264 . S
C172 C165 1.403 . S
C172 C173 1.399 . S
C172 H178 0.929 . S
C173 C153 1.449 . S
C173 C172 1.399 . S
C173 H179 0.930 . S
H174 C154 0.931 . S
H175 C155 0.930 . S
H176 C163 0.931 . S
H177 C164 0.929 . S
H178 C172 0.929 . S
H179 C173 0.930 . S
Mn180 O185 2.095 . S
Mn180 O195 2.162 . S
Mn180 O196 2.297 . S
Mn180 O204 2.385 . S
Mn180 O205 2.209 . S
Mn180 O206 2.094 . S
Mn181 O186 2.121 . S
Mn181 N188 2.257 . S
Mn181 N197 2.282 . S
Mn181 O205 2.215 . S
Mn181 O207 2.117 . S
C182 O204 1.234 . S
C182 O205 1.283 . S
C183 O195 1.281 . S
C183 O196 1.236 . S
C184 O206 1.240 . S
C184 O207 1.264 . S
O185 Mn180 2.095 . S
O185 C194 1.250 . S
O186 Mn181 2.121 . S
O186 C194 1.258 . S
C187 N188 1.326 . S
C187 C191 1.460 . S
C187 H193 0.929 . S
N188 Mn181 2.257 . S
N188 C187 1.326 . S
N188 C192 1.362 . S
C189 C190 1.258 . S
C189 C192 1.431 . S
C189 C209 1.449 . S
C190 C189 1.258 . S
C190 C191 1.477 . S
C190 H210 0.931 . S
C191 C187 1.460 . S
C191 C190 1.477 . S
C191 H211 0.930 . S
C192 N188 1.362 . S
C192 C189 1.431 . S
C192 C202 1.476 . S
H193 C187 0.929 . S
C194 O185 1.250 . S
C194 O186 1.258 . S
O195 Mn180 2.162 . S
O195 C183 1.281 . S
O196 Mn180 2.297 . S
O196 C183 1.236 . S
N197 Mn181 2.282 . S
N197 C198 1.328 . S
N197 C202 1.318 . S
C198 N197 1.328 . S
C198 C199 1.457 . S
C198 H203 0.929 . S
C199 C198 1.457 . S
C199 C200 1.291 . S
C199 H212 0.931 . S
C200 C199 1.291 . S
C200 C201 1.373 . S
C200 H213 0.929 . S
C201 C200 1.373 . S
C201 C202 1.396 . S
C201 C208 1.403 . S
C202 C192 1.476 . S
C202 N197 1.318 . S
C202 C201 1.396 . S
H203 C198 0.929 . S
O204 Mn180 2.385 . S
O204 C182 1.234 . S
O205 Mn180 2.209 . S
O205 Mn181 2.215 . S
O205 C182 1.283 . S
O206 Mn180 2.094 . S
O206 C184 1.240 . S
O207 Mn181 2.117 . S
O207 C184 1.264 . S
C208 C201 1.403 . S
C208 C209 1.399 . S
C208 H214 0.929 . S
C209 C189 1.449 . S
C209 C208 1.399 . S
C209 H215 0.930 . S
H210 C190 0.931 . S
H211 C191 0.930 . S
H212 C199 0.931 . S
H213 C200 0.929 . S
H214 C208 0.929 . S
H215 C209 0.930 . S
Mn216 O221 2.095 . S
Mn216 O231 2.162 . S
Mn216 O232 2.297 . S
Mn216 O240 2.385 . S
Mn216 O241 2.209 . S
Mn216 O242 2.094 . S
Mn217 O222 2.121 . S
Mn217 N224 2.257 . S
Mn217 N233 2.282 . S
Mn217 O241 2.215 . S
Mn217 O243 2.117 . S
C218 O240 1.234 . S
C218 O241 1.283 . S
C219 O231 1.281 . S
C219 O232 1.236 . S
C220 O242 1.240 . S
C220 O243 1.264 . S
O221 Mn216 2.095 . S
O221 C230 1.250 . S
O222 Mn217 2.121 . S
O222 C230 1.258 . S
C223 N224 1.326 . S
C223 C227 1.460 . S
C223 H229 0.929 . S
N224 Mn217 2.257 . S
N224 C223 1.326 . S
N224 C228 1.362 . S
C225 C226 1.258 . S
C225 C228 1.431 . S
C225 C245 1.449 . S
C226 C225 1.258 . S
C226 C227 1.477 . S
C226 H246 0.931 . S
C227 C223 1.460 . S
C227 C226 1.477 . S
C227 H247 0.930 . S
C228 N224 1.362 . S
C228 C225 1.431 . S
C228 C238 1.476 . S
H229 C223 0.929 . S
C230 O221 1.250 . S
C230 O222 1.258 . S
O231 Mn216 2.162 . S
O231 C219 1.281 . S
O232 Mn216 2.297 . S
O232 C219 1.236 . S
N233 Mn217 2.282 . S
N233 C234 1.328 . S
N233 C238 1.318 . S
C234 N233 1.328 . S
C234 C235 1.457 . S
C234 H239 0.929 . S
C235 C234 1.457 . S
C235 C236 1.291 . S
C235 H248 0.931 . S
C236 C235 1.291 . S
C236 C237 1.373 . S
C236 H249 0.929 . S
C237 C236 1.373 . S
C237 C238 1.396 . S
C237 C244 1.403 . S
C238 C228 1.476 . S
C238 N233 1.318 . S
C238 C237 1.396 . S
H239 C234 0.929 . S
O240 Mn216 2.385 . S
O240 C218 1.234 . S
O241 Mn216 2.209 . S
O241 Mn217 2.215 . S
O241 C218 1.283 . S
O242 Mn216 2.094 . S
O242 C220 1.240 . S
O243 Mn217 2.117 . S
O243 C220 1.264 . S
C244 C237 1.403 . S
C244 C245 1.399 . S
C244 H250 0.929 . S
C245 C225 1.449 . S
C245 C244 1.399 . S
C245 H251 0.930 . S
H246 C226 0.931 . S
H247 C227 0.930 . S
H248 C235 0.931 . S
H249 C236 0.929 . S
H250 C244 0.929 . S
H251 C245 0.930 . S
Mn252 O257 2.095 . S
Mn252 O267 2.162 . S
Mn252 O268 2.297 . S
Mn252 O276 2.385 . S
Mn252 O277 2.209 . S
Mn252 O278 2.094 . S
Mn253 O258 2.121 . S
Mn253 N260 2.257 . S
Mn253 N269 2.282 . S
Mn253 O277 2.215 . S
Mn253 O279 2.117 . S
C254 O276 1.234 . S
C254 O277 1.283 . S
C255 O267 1.281 . S
C255 O268 1.236 . S
C256 O278 1.240 . S
C256 O279 1.264 . S
O257 Mn252 2.095 . S
O257 C266 1.250 . S
O258 Mn253 2.121 . S
O258 C266 1.258 . S
C259 N260 1.326 . S
C259 C263 1.460 . S
C259 H265 0.929 . S
N260 Mn253 2.257 . S
N260 C259 1.326 . S
N260 C264 1.362 . S
C261 C262 1.258 . S
C261 C264 1.431 . S
C261 C281 1.449 . S
C262 C261 1.258 . S
C262 C263 1.477 . S
C262 H282 0.931 . S
C263 C259 1.460 . S
C263 C262 1.477 . S
C263 H283 0.930 . S
C264 N260 1.362 . S
C264 C261 1.431 . S
C264 C274 1.476 . S
H265 C259 0.929 . S
C266 O257 1.250 . S
C266 O258 1.258 . S
O267 Mn252 2.162 . S
O267 C255 1.281 . S
O268 Mn252 2.297 . S
O268 C255 1.236 . S
N269 Mn253 2.282 . S
N269 C270 1.328 . S
N269 C274 1.318 . S
C270 N269 1.328 . S
C270 C271 1.457 . S
C270 H275 0.929 . S
C271 C270 1.457 . S
C271 C272 1.291 . S
C271 H284 0.931 . S
C272 C271 1.291 . S
C272 C273 1.373 . S
C272 H285 0.929 . S
C273 C272 1.373 . S
C273 C274 1.396 . S
C273 C280 1.403 . S
C274 C264 1.476 . S
C274 N269 1.318 . S
C274 C273 1.396 . S
H275 C270 0.929 . S
O276 Mn252 2.385 . S
O276 C254 1.234 . S
O277 Mn252 2.209 . S
O277 Mn253 2.215 . S
O277 C254 1.283 . S
O278 Mn252 2.094 . S
O278 C256 1.240 . S
O279 Mn253 2.117 . S
O279 C256 1.264 . S
C280 C273 1.403 . S
C280 C281 1.399 . S
C280 H286 0.929 . S
C281 C261 1.449 . S
C281 C280 1.399 . S
C281 H287 0.930 . S
H282 C262 0.931 . S
H283 C263 0.930 . S
H284 C271 0.931 . S
H285 C272 0.929 . S
H286 C280 0.929 . S
H287 C281 0.930 . S
C288 C289 1.386 1_556 S
C288 C290 1.383 . S
C288 H304 0.951 . S
C289 C288 1.386 1_554 S
C289 C293 1.383 . S
C290 C288 1.383 . S
C290 C291 1.402 1_556 S
C290 H305 0.951 . S
C291 C290 1.402 1_554 S
C291 C292 1.375 . S
C291 C294 1.481 . S
C292 C291 1.375 . S
C292 C293 1.367 . S
C292 H306 0.951 . S
C293 C289 1.383 . S
C293 C292 1.367 . S
C293 H307 0.950 . S
C294 C291 1.481 . S
C294 C295 1.297 . S
C294 H308 0.950 . S
C295 C294 1.297 . S
C295 C296 1.479 . S
C295 H309 0.950 1_554 S
C296 C295 1.479 . S
C296 C297 1.375 1_554 S
C296 C302 1.404 . S
C297 C296 1.375 1_556 S
C297 C298 1.369 . S
C297 H310 0.950 . S
C298 C297 1.369 . S
C298 C299 1.392 1_556 S
C298 H311 0.951 . S
C299 C298 1.392 1_554 S
C299 C301 1.384 . S
H300 C302 0.949 . S
C301 C299 1.384 . S
C301 C302 1.385 . S
C301 H303 0.950 . S
C302 C296 1.404 . S
C302 H300 0.949 . S
C302 C301 1.385 . S
H303 C301 0.950 . S
H304 C288 0.951 . S
H305 C290 0.951 . S
H306 C292 0.951 . S
H307 C293 0.950 . S
H308 C294 0.950 . S
H309 C295 0.950 1_556 S
H310 C297 0.950 . S
H311 C298 0.951 . S
C312 C313 1.386 1_556 S
C312 C314 1.383 . S
C312 H328 0.951 . S
C313 C312 1.386 1_554 S
C313 C317 1.383 . S
C314 C312 1.383 . S
C314 C315 1.402 1_556 S
C314 H329 0.951 . S
C315 C314 1.402 1_554 S
C315 C316 1.375 . S
C315 C318 1.481 . S
C316 C315 1.375 . S
C316 C317 1.367 . S
C316 H330 0.951 . S
C317 C313 1.383 . S
C317 C316 1.367 . S
C317 H331 0.950 . S
C318 C315 1.481 . S
C318 C319 1.297 . S
C318 H332 0.950 . S
C319 C318 1.297 . S
C319 C320 1.479 . S
C319 H333 0.950 1_554 S
C320 C319 1.479 . S
C320 C321 1.375 1_554 S
C320 C326 1.404 . S
C321 C320 1.375 1_556 S
C321 C322 1.369 . S
C321 H334 0.950 . S
C322 C321 1.369 . S
C322 C323 1.381 1_556 S
C322 H335 0.951 . S
C323 C322 1.381 1_554 S
C323 C325 1.396 . S
H324 C326 0.949 . S
C325 C323 1.396 . S
C325 C326 1.385 . S
C325 H327 0.950 . S
C326 C320 1.404 . S
C326 H324 0.949 . S
C326 C325 1.385 . S
H327 C325 0.950 . S
H328 C312 0.951 . S
H329 C314 0.951 . S
H330 C316 0.951 . S
H331 C317 0.950 . S
H332 C318 0.950 . S
H333 C319 0.950 1_556 S
H334 C321 0.950 . S
H335 C322 0.951 . S
C336 C337 1.386 . S
C336 C338 1.383 . S
C336 H352 0.951 1_554 S
C337 C336 1.386 . S
C337 C341 1.383 . S
C338 C336 1.383 . S
C338 C339 1.402 . S
C338 H353 0.951 . S
C339 C338 1.402 . S
C339 C340 1.375 . S
C339 C342 1.481 . S
C340 C339 1.375 . S
C340 C341 1.367 . S
C340 H354 0.951 . S
C341 C337 1.383 . S
C341 C340 1.367 . S
C341 H355 0.950 . S
C342 C339 1.481 . S
C342 C343 1.297 . S
C342 H356 0.950 . S
C343 C342 1.297 . S
C343 C344 1.479 . S
C343 H357 0.950 . S
C344 C343 1.479 . S
C344 C345 1.375 . S
C344 C350 1.404 . S
C345 C344 1.375 . S
C345 C346 1.369 1_554 S
C345 H358 0.950 1_554 S
C346 C345 1.369 1_556 S
C346 C347 1.392 1_556 S
C346 H359 0.951 . S
C347 C346 1.392 1_554 S
C347 C349 1.384 . S
H348 C350 0.949 . S
C349 C347 1.384 . S
C349 C350 1.385 . S
C349 H351 0.950 . S
C350 C344 1.404 . S
C350 H348 0.949 . S
C350 C349 1.385 . S
H351 C349 0.950 . S
H352 C336 0.951 1_556 S
H353 C338 0.951 . S
H354 C340 0.951 . S
H355 C341 0.950 . S
H356 C342 0.950 . S
H357 C343 0.950 . S
H358 C345 0.950 1_556 S
H359 C346 0.951 . S
C360 C361 1.386 1_556 S
C360 C362 1.383 . S
C360 H376 0.951 . S
C361 C360 1.386 1_554 S
C361 C365 1.383 . S
C362 C360 1.383 . S
C362 C363 1.402 1_556 S
C362 H377 0.951 . S
C363 C362 1.402 1_554 S
C363 C364 1.375 . S
C363 C366 1.481 . S
C364 C363 1.375 . S
C364 C365 1.367 . S
C364 H378 0.951 . S
C365 C361 1.383 . S
C365 C364 1.367 . S
C365 H379 0.950 . S
C366 C363 1.481 . S
C366 C367 1.297 . S
C366 H380 0.950 . S
C367 C366 1.297 . S
C367 C368 1.479 . S
C367 H381 0.950 . S
C368 C367 1.479 . S
C368 C369 1.375 . S
C368 C374 1.404 . S
C369 C368 1.375 . S
C369 C370 1.369 . S
C369 H382 0.950 1_554 S
C370 C369 1.369 . S
C370 C371 1.392 . S
C370 H383 0.951 1_554 S
C371 C370 1.392 . S
C371 C373 1.384 . S
H372 C374 0.949 . S
C373 C371 1.384 . S
C373 C374 1.385 . S
C373 H375 0.950 . S
C374 C368 1.404 . S
C374 H372 0.949 . S
C374 C373 1.385 . S
H375 C373 0.950 . S
H376 C360 0.951 . S
H377 C362 0.951 . S
H378 C364 0.951 . S
H379 C365 0.950 . S
H380 C366 0.950 . S
H381 C367 0.950 . S
H382 C369 0.950 1_556 S
H383 C370 0.951 1_556 S
C384 C385 1.386 . S
C384 C386 1.383 . S
C384 H400 0.951 . S
C385 C384 1.386 . S
C385 C389 1.383 . S
C386 C384 1.383 . S
C386 C387 1.402 . S
C386 H401 0.951 . S
C387 C386 1.402 . S
C387 C388 1.375 . S
C387 C390 1.481 . S
C388 C387 1.375 . S
C388 C389 1.367 . S
C388 H402 0.951 . S
C389 C385 1.383 . S
C389 C388 1.367 . S
C389 H403 0.950 . S
C390 C387 1.481 . S
C390 C391 1.297 1_565 S
C390 H404 0.950 . S
C391 C390 1.297 1_545 S
C391 C392 1.479 . S
C391 H405 0.950 . S
C392 C391 1.479 . S
C392 C393 1.375 . S
C392 C398 1.404 . S
C393 C392 1.375 . S
C393 C394 1.369 . S
C393 H406 0.950 . S
C394 C393 1.369 . S
C394 C395 1.392 . S
C394 H407 0.951 . S
C395 C394 1.392 . S
C395 C397 1.384 . S
H396 C398 0.949 . S
C397 C395 1.384 . S
C397 C398 1.385 . S
C397 H399 0.950 . S
C398 C392 1.404 . S
C398 H396 0.949 . S
C398 C397 1.385 . S
H399 C397 0.950 . S
H400 C384 0.951 . S
H401 C386 0.951 . S
H402 C388 0.951 . S
H403 C389 0.950 . S
H404 C390 0.950 . S
H405 C391 0.950 . S
H406 C393 0.950 . S
H407 C394 0.951 . S
C408 C409 1.386 . S
C408 C410 1.383 . S
C408 H424 0.951 . S
C409 C408 1.386 . S
C409 C413 1.383 . S
C410 C408 1.383 . S
C410 C411 1.402 . S
C410 H425 0.951 . S
C411 C410 1.402 . S
C411 C412 1.375 . S
C411 C414 1.481 . S
C412 C411 1.375 . S
C412 C413 1.367 . S
C412 H426 0.951 . S
C413 C409 1.383 . S
C413 C412 1.367 . S
C413 H427 0.950 . S
C414 C411 1.481 . S
C414 C415 1.297 1_455 S
C414 H428 0.950 . S
C415 C414 1.297 1_655 S
C415 C416 1.479 . S
C415 H429 0.950 . S
C416 C415 1.479 . S
C416 C417 1.375 . S
C416 C422 1.404 . S
C417 C416 1.375 . S
C417 C418 1.369 . S
C417 H430 0.950 . S
C418 C417 1.369 . S
C418 C419 1.392 . S
C418 H431 0.951 . S
C419 C418 1.392 . S
C419 C421 1.384 . S
H420 C422 0.949 . S
C421 C419 1.384 . S
C421 C422 1.385 . S
C421 H423 0.950 . S
C422 C416 1.404 . S
C422 H420 0.949 . S
C422 C421 1.385 . S
H423 C421 0.950 . S
H424 C408 0.951 . S
H425 C410 0.951 . S
H426 C412 0.951 . S
H427 C413 0.950 . S
H428 C414 0.950 . S
H429 C415 0.950 . S
H430 C417 0.950 . S
H431 C418 0.951 . S
C432 C433 1.386 . S
C432 C434 1.383 . S
C432 H448 0.951 . S
C433 C432 1.386 . S
C433 C437 1.383 . S
C434 C432 1.383 . S
C434 C435 1.402 . S
C434 H449 0.951 . S
C435 C434 1.402 . S
C435 C436 1.375 . S
C435 C438 1.481 . S
C436 C435 1.375 . S
C436 C437 1.367 . S
C436 H450 0.951 . S
C437 C433 1.383 . S
C437 C436 1.367 . S
C437 H451 0.950 . S
C438 C435 1.481 . S
C438 C439 1.297 1_545 S
C438 H452 0.950 . S
C439 C438 1.297 1_565 S
C439 C440 1.479 . S
C439 H453 0.950 . S
C440 C439 1.479 . S
C440 C441 1.375 . S
C440 C446 1.404 . S
C441 C440 1.375 . S
C441 C442 1.369 . S
C441 H454 0.950 . S
C442 C441 1.369 . S
C442 C443 1.392 . S
C442 H455 0.951 . S
C443 C442 1.392 . S
C443 C445 1.384 . S
H444 C446 0.949 . S
C445 C443 1.384 . S
C445 C446 1.385 . S
C445 H447 0.950 . S
C446 C440 1.404 . S
C446 H444 0.949 . S
C446 C445 1.385 . S
H447 C445 0.950 . S
H448 C432 0.951 . S
H449 C434 0.951 . S
H450 C436 0.951 . S
H451 C437 0.950 . S
H452 C438 0.950 . S
H453 C439 0.950 . S
H454 C441 0.950 . S
H455 C442 0.951 . S
C456 C457 1.386 . S
C456 C458 1.383 . S
C456 H472 0.951 . S
C457 C456 1.386 . S
C457 C461 1.383 . S
C458 C456 1.383 . S
C458 C459 1.402 . S
C458 H473 0.951 . S
C459 C458 1.402 . S
C459 C460 1.375 . S
C459 C462 1.481 . S
C460 C459 1.375 . S
C460 C461 1.367 . S
C460 H474 0.951 . S
C461 C457 1.383 . S
C461 C460 1.367 . S
C461 H475 0.950 . S
C462 C459 1.481 . S
C462 C463 1.297 1_655 S
C462 H476 0.950 . S
C463 C462 1.297 1_455 S
C463 C464 1.479 . S
C463 H477 0.950 . S
C464 C463 1.479 . S
C464 C465 1.375 . S
C464 C470 1.404 . S
C465 C464 1.375 . S
C465 C466 1.369 . S
C465 H478 0.950 . S
C466 C465 1.369 . S
C466 C467 1.392 . S
C466 H479 0.951 . S
C467 C466 1.392 . S
C467 C469 1.384 . S
H468 C470 0.949 . S
C469 C467 1.384 . S
C469 C470 1.385 . S
C469 H471 0.950 . S
C470 C464 1.404 . S
C470 H468 0.949 . S
C470 C469 1.385 . S
H471 C469 0.950 . S
H472 C456 0.951 . S
H473 C458 0.951 . S
H474 C460 0.951 . S
H475 C461 0.950 . S
H476 C462 0.950 . S
H477 C463 0.950 . S
H478 C465 0.950 . S
H479 C466 0.951 . S
C480 C481 1.386 . S
C480 C482 1.383 . S
C480 H496 0.951 . S
C481 C480 1.386 . S
C481 C485 1.383 . S
C482 C480 1.383 . S
C482 C483 1.402 . S
C482 H497 0.951 . S
C483 C482 1.402 . S
C483 C484 1.375 . S
C483 C486 1.481 . S
C484 C483 1.375 . S
C484 C485 1.367 . S
C484 H498 0.951 . S
C485 C481 1.383 . S
C485 C484 1.367 . S
C485 H499 0.950 . S
C486 C483 1.481 . S
C486 C487 1.297 . S
C486 H500 0.950 . S
C487 C486 1.297 . S
C487 C488 1.479 . S
C487 H501 0.950 . S
C488 C487 1.479 . S
C488 C489 1.375 . S
C488 C494 1.404 . S
C489 C488 1.375 . S
C489 C490 1.369 . S
C489 H502 0.950 . S
C490 C489 1.369 . S
C490 C491 1.392 . S
C490 H503 0.951 . S
C491 C490 1.392 . S
C491 C493 1.384 . S
H492 C494 0.949 . S
C493 C491 1.384 . S
C493 C494 1.385 . S
C493 H495 0.950 . S
C494 C488 1.404 . S
C494 H492 0.949 . S
C494 C493 1.385 . S
H495 C493 0.950 . S
H496 C480 0.951 . S
H497 C482 0.951 . S
H498 C484 0.951 . S
H499 C485 0.950 . S
H500 C486 0.950 . S
H501 C487 0.950 . S
H502 C489 0.950 . S
H503 C490 0.951 . S
C504 C505 1.386 . S
C504 C506 1.383 . S
C504 H520 0.951 . S
C505 C504 1.386 . S
C505 C509 1.383 . S
C506 C504 1.383 . S
C506 C507 1.402 . S
C506 H521 0.951 . S
C507 C506 1.402 . S
C507 C508 1.375 . S
C507 C510 1.481 . S
C508 C507 1.375 . S
C508 C509 1.367 . S
C508 H522 0.951 . S
C509 C505 1.383 . S
C509 C508 1.367 . S
C509 H523 0.950 . S
C510 C507 1.481 . S
C510 C511 1.297 . S
C510 H524 0.950 . S
C511 C510 1.297 . S
C511 C512 1.479 . S
C511 H525 0.950 . S
C512 C511 1.479 . S
C512 C513 1.375 . S
C512 C518 1.404 . S
C513 C512 1.375 . S
C513 C514 1.369 . S
C513 H526 0.950 . S
C514 C513 1.369 . S
C514 C515 1.392 . S
C514 H527 0.951 . S
C515 C514 1.392 . S
C515 C517 1.384 . S
H516 C518 0.949 . S
C517 C515 1.384 . S
C517 C518 1.385 . S
C517 H519 0.950 . S
C518 C512 1.404 . S
C518 H516 0.949 . S
C518 C517 1.385 . S
H519 C517 0.950 . S
H520 C504 0.951 . S
H521 C506 0.951 . S
H522 C508 0.951 . S
H523 C509 0.950 . S
H524 C510 0.950 . S
H525 C511 0.950 . S
H526 C513 0.950 . S
H527 C514 0.951 . S
C528 C529 1.386 . S
C528 C530 1.383 . S
C528 H544 0.951 . S
C529 C528 1.386 . S
C529 C533 1.383 . S
C530 C528 1.383 . S
C530 C531 1.402 . S
C530 H545 0.951 . S
C531 C530 1.402 . S
C531 C532 1.375 . S
C531 C534 1.481 . S
C532 C531 1.375 . S
C532 C533 1.367 . S
C532 H546 0.951 . S
C533 C529 1.383 . S
C533 C532 1.367 . S
C533 H547 0.950 . S
C534 C531 1.481 . S
C534 C535 1.297 . S
C534 H548 0.950 . S
C535 C534 1.297 . S
C535 C536 1.479 . S
C535 H549 0.950 . S
C536 C535 1.479 . S
C536 C537 1.375 . S
C536 C542 1.404 . S
C537 C536 1.375 . S
C537 C538 1.369 . S
C537 H550 0.950 . S
C538 C537 1.369 . S
C538 C539 1.392 . S
C538 H551 0.951 . S
C539 C538 1.392 . S
C539 C541 1.384 . S
H540 C542 0.949 . S
C541 C539 1.384 . S
C541 C542 1.385 . S
C541 H543 0.950 . S
C542 C536 1.404 . S
C542 H540 0.949 . S
C542 C541 1.385 . S
H543 C541 0.950 . S
H544 C528 0.951 . S
H545 C530 0.951 . S
H546 C532 0.951 . S
H547 C533 0.950 . S
H548 C534 0.950 . S
H549 C535 0.950 . S
H550 C537 0.950 . S
H551 C538 0.951 . S
C552 C553 1.386 . S
C552 C554 1.383 . S
C552 H568 0.951 . S
C553 C552 1.386 . S
C553 C557 1.383 . S
C554 C552 1.383 . S
C554 C555 1.402 . S
C554 H569 0.951 . S
C555 C554 1.402 . S
C555 C556 1.375 . S
C555 C558 1.481 . S
C556 C555 1.375 . S
C556 C557 1.367 . S
C556 H570 0.951 . S
C557 C553 1.383 . S
C557 C556 1.367 . S
C557 H571 0.950 . S
C558 C555 1.481 . S
C558 C559 1.297 . S
C558 H572 0.950 . S
C559 C558 1.297 . S
C559 C560 1.479 . S
C559 H573 0.950 . S
C560 C559 1.479 . S
C560 C561 1.375 . S
C560 C566 1.404 . S
C561 C560 1.375 . S
C561 C562 1.369 . S
C561 H574 0.950 . S
C562 C561 1.369 . S
C562 C563 1.392 . S
C562 H575 0.951 . S
C563 C562 1.392 . S
C563 C565 1.384 . S
H564 C566 0.949 . S
C565 C563 1.384 . S
C565 C566 1.385 . S
C565 H567 0.950 . S
C566 C560 1.404 . S
C566 H564 0.949 . S
C566 C565 1.385 . S
H567 C565 0.950 . S
H568 C552 0.951 . S
H569 C554 0.951 . S
H570 C556 0.951 . S
H571 C557 0.950 . S
H572 C558 0.950 . S
H573 C559 0.950 . S
H574 C561 0.950 . S
H575 C562 0.951 . S
C576 C577 1.386 . S
C576 C578 1.383 . S
C576 H592 0.951 . S
C577 C576 1.386 . S
C577 C581 1.383 . S
C578 C576 1.383 . S
C578 C579 1.402 . S
C578 H593 0.951 . S
C579 C578 1.402 . S
C579 C580 1.375 . S
C579 C582 1.481 . S
C580 C579 1.375 . S
C580 C581 1.367 . S
C580 H594 0.951 . S
C581 C577 1.383 . S
C581 C580 1.367 . S
C581 H595 0.950 . S
C582 C579 1.481 . S
C582 C583 1.297 . S
C582 H596 0.950 . S
C583 C582 1.297 . S
C583 C584 1.479 . S
C583 H597 0.950 . S
C584 C583 1.479 . S
C584 C585 1.375 . S
C584 C590 1.404 . S
C585 C584 1.375 . S
C585 C586 1.369 . S
C585 H598 0.950 . S
C586 C585 1.369 . S
C586 C587 1.392 . S
C586 H599 0.951 . S
C587 C586 1.392 . S
C587 C589 1.384 . S
H588 C590 0.949 . S
C589 C587 1.384 . S
C589 C590 1.385 . S
C589 H591 0.950 . S
C590 C584 1.404 . S
C590 H588 0.949 . S
C590 C589 1.385 . S
H591 C589 0.950 . S
H592 C576 0.951 . S
H593 C578 0.951 . S
H594 C580 0.951 . S
H595 C581 0.950 . S
H596 C582 0.950 . S
H597 C583 0.950 . S
H598 C585 0.950 . S
H599 C586 0.951 . S
C600 C601 1.386 . S
C600 C602 1.383 . S
C600 H616 0.951 . S
C601 C600 1.386 . S
C601 C605 1.383 . S
C602 C600 1.383 . S
C602 C603 1.402 . S
C602 H617 0.951 . S
C603 C602 1.402 . S
C603 C604 1.375 . S
C603 C606 1.481 . S
C604 C603 1.375 . S
C604 C605 1.367 . S
C604 H618 0.951 . S
C605 C601 1.383 . S
C605 C604 1.367 . S
C605 H619 0.950 . S
C606 C603 1.481 . S
C606 C607 1.297 . S
C606 H620 0.950 . S
C607 C606 1.297 . S
C607 C608 1.479 . S
C607 H621 0.950 . S
C608 C607 1.479 . S
C608 C609 1.375 . S
C608 C614 1.404 . S
C609 C608 1.375 . S
C609 C610 1.369 . S
C609 H622 0.950 . S
C610 C609 1.369 . S
C610 C611 1.392 . S
C610 H623 0.951 . S
C611 C610 1.392 . S
C611 C613 1.384 . S
H612 C614 0.949 . S
C613 C611 1.384 . S
C613 C614 1.385 . S
C613 H615 0.950 . S
C614 C608 1.404 . S
C614 H612 0.949 . S
C614 C613 1.385 . S
H615 C613 0.950 . S
H616 C600 0.951 . S
H617 C602 0.951 . S
H618 C604 0.951 . S
H619 C605 0.950 . S
H620 C606 0.950 . S
H621 C607 0.950 . S
H622 C609 0.950 . S
H623 C610 0.951 . S
C624 C625 1.386 . S
C624 C626 1.383 . S
C624 H640 0.951 . S
C625 C624 1.386 . S
C625 C629 1.383 . S
C626 C624 1.383 . S
C626 C627 1.402 . S
C626 H641 0.951 . S
C627 C626 1.402 . S
C627 C628 1.375 . S
C627 C630 1.481 . S
C628 C627 1.375 . S
C628 C629 1.367 . S
C628 H642 0.951 . S
C629 C625 1.383 . S
C629 C628 1.367 . S
C629 H643 0.950 . S
C630 C627 1.481 . S
C630 C631 1.297 . S
C630 H644 0.950 . S
C631 C630 1.297 . S
C631 C632 1.479 . S
C631 H645 0.950 . S
C632 C631 1.479 . S
C632 C633 1.375 . S
C632 C638 1.404 . S
C633 C632 1.375 . S
C633 C634 1.369 . S
C633 H646 0.950 . S
C634 C633 1.369 . S
C634 C635 1.392 . S
C634 H647 0.951 . S
C635 C634 1.392 . S
C635 C637 1.384 . S
H636 C638 0.949 . S
C637 C635 1.384 . S
C637 C638 1.385 . S
C637 H639 0.950 . S
C638 C632 1.404 . S
C638 H636 0.949 . S
C638 C637 1.385 . S
H639 C637 0.950 . S
H640 C624 0.951 . S
H641 C626 0.951 . S
H642 C628 0.951 . S
H643 C629 0.950 . S
H644 C630 0.950 . S
H645 C631 0.950 . S
H646 C633 0.950 . S
H647 C634 0.951 . S
C648 C649 1.386 . S
C648 C650 1.383 . S
C648 H664 0.951 . S
C649 C648 1.386 . S
C649 C653 1.383 . S
C650 C648 1.383 . S
C650 C651 1.402 . S
C650 H665 0.951 . S
C651 C650 1.402 . S
C651 C652 1.375 . S
C651 C654 1.481 . S
C652 C651 1.375 . S
C652 C653 1.367 . S
C652 H666 0.951 . S
C653 C649 1.383 . S
C653 C652 1.367 . S
C653 H667 0.950 . S
C654 C651 1.481 . S
C654 C655 1.297 . S
C654 H668 0.950 . S
C655 C654 1.297 . S
C655 C656 1.479 . S
C655 H669 0.950 . S
C656 C655 1.479 . S
C656 C657 1.375 . S
C656 C662 1.404 . S
C657 C656 1.375 . S
C657 C658 1.369 . S
C657 H670 0.950 . S
C658 C657 1.369 . S
C658 C659 1.392 . S
C658 H671 0.951 . S
C659 C658 1.392 . S
C659 C661 1.384 . S
H660 C662 0.949 . S
C661 C659 1.384 . S
C661 C662 1.385 . S
C661 H663 0.950 . S
C662 C656 1.404 . S
C662 H660 0.949 . S
C662 C661 1.385 . S
H663 C661 0.950 . S
H664 C648 0.951 . S
H665 C650 0.951 . S
H666 C652 0.951 . S
H667 C653 0.950 . S
H668 C654 0.950 . S
H669 C655 0.950 . S
H670 C657 0.950 . S
H671 C658 0.951 . S
C289 C3 1.483 . S
C299 C111 1.492 . S
C313 C2 1.486 . S
C323 C38 1.469 1_554 S
C337 C39 1.506 . S
C347 C75 1.470 . S
C361 C110 1.492 1_554 S
C371 C74 1.498 . S
C385 C147 1.502 . S
C395 C255 1.466 . S
C409 C182 1.490 . S
C419 C146 1.495 . S
C433 C219 1.502 . S
C443 C183 1.466 . S
C457 C254 1.498 . S
C467 C218 1.503 . S
C481 C230 1.427 . S
C491 C4 1.449 . S
C505 C50 1.429 . S
C515 C256 1.446 . S
C529 C158 1.428 . S
C539 C76 1.449 . S
C553 C184 1.456 . S
C563 C122 1.433 . S
C577 C194 1.392 . S
C587 C112 1.450 . S
C601 C14 1.418 . S
C611 C220 1.452 . S
C625 C40 1.464 . S
C635 C266 1.363 . S
C649 C86 1.426 . S
C659 C148 1.449 . S
