# Generated by pormake.
# Topology mmt, (4)-cn, num edge types: 1
# Building blocks:
#     Node 0, Type 0, BuildingBlock: NAHDIM_clean_sbu_0, # of connection points: 4
#     Node 1, Type 0, BuildingBlock: NAHDIM_clean_sbu_0, # of connection points: 4
#     Node 2, Type 0, BuildingBlock: NAHDIM_clean_sbu_0, # of connection points: 4
#     Node 3, Type 0, BuildingBlock: NAHDIM_clean_sbu_0, # of connection points: 4
#     Node 4, Type 0, BuildingBlock: NAHDIM_clean_sbu_0, # of connection points: 4
#     Node 5, Type 0, BuildingBlock: NAHDIM_clean_sbu_0, # of connection points: 4
#     Node 6, Type 0, BuildingBlock: NAHDIM_clean_sbu_0, # of connection points: 4
#     Node 7, Type 0, BuildingBlock: NAHDIM_clean_sbu_0, # of connection points: 4
#     Edge 8, Type (0, 0), BuildingBlock: XIVTED_clean_linker_0, # of connection points: 2
#     Edge 9, Type (0, 0), BuildingBlock: XIVTED_clean_linker_0, # of connection points: 2
#     Edge 10, Type (0, 0), BuildingBlock: XIVTED_clean_linker_0, # of connection points: 2
#     Edge 11, Type (0, 0), BuildingBlock: XIVTED_clean_linker_0, # of connection points: 2
#     Edge 12, Type (0, 0), BuildingBlock: XIVTED_clean_linker_0, # of connection points: 2
#     Edge 13, Type (0, 0), BuildingBlock: XIVTED_clean_linker_0, # of connection points: 2
#     Edge 14, Type (0, 0), BuildingBlock: XIVTED_clean_linker_0, # of connection points: 2
#     Edge 15, Type (0, 0), BuildingBlock: XIVTED_clean_linker_0, # of connection points: 2
#     Edge 16, Type (0, 0), BuildingBlock: XIVTED_clean_linker_0, # of connection points: 2
#     Edge 17, Type (0, 0), BuildingBlock: XIVTED_clean_linker_0, # of connection points: 2
#     Edge 18, Type (0, 0), BuildingBlock: XIVTED_clean_linker_0, # of connection points: 2
#     Edge 19, Type (0, 0), BuildingBlock: XIVTED_clean_linker_0, # of connection points: 2
#     Edge 20, Type (0, 0), BuildingBlock: XIVTED_clean_linker_0, # of connection points: 2
#     Edge 21, Type (0, 0), BuildingBlock: XIVTED_clean_linker_0, # of connection points: 2
#     Edge 22, Type (0, 0), BuildingBlock: XIVTED_clean_linker_0, # of connection points: 2
#     Edge 23, Type (0, 0), BuildingBlock: XIVTED_clean_linker_0, # of connection points: 2
# Relax obj value: 0.079
# Max RMSD: 0.130
# Mean RMSD: 0.130
data_MOF--net-mmt--node1-NAHDIM_clean_sbu_0--edge1-XIVTED_clean_linker_0
_symmetry_space_group_name_H-M    P1
_symmetry_Int_Tables_number       1
_symmetry_cell_setting            triclinic
loop_
_symmetry_equiv_pos_as_xyz
'x, y, z'
_cell_length_a     22.270509
_cell_length_b     37.86944
_cell_length_c     44.056189
_cell_angle_alpha  89.968906
_cell_angle_beta   89.971508
_cell_angle_gamma 89.771848
loop_
_atom_site_label
_atom_site_type_symbol
_atom_site_fract_x
_atom_site_fract_y
_atom_site_fract_z
_atom_type_partial_charge
C0 C 0.07719 0.53651 0.40897 0.0
O1 O 0.04771 0.55928 0.39203 0.0
O2 O 0.18597 0.59799 0.36952 0.0
Zn3 Zn 0.16459 0.54704 0.36253 0.0
O4 O 0.10329 0.54483 0.32884 0.0
C5 C 0.29093 0.52971 0.35212 0.0
O6 O 0.30152 0.55886 0.3673 0.0
O7 O 0.12946 0.52676 0.40082 0.0
C8 C 0.11879 0.5375 0.30176 0.0
O9 O 0.17558 0.53125 0.29568 0.0
C10 C 0.2069 0.61644 0.34789 0.0
O11 O 0.2151 0.60167 0.32123 0.0
O12 O 0.23717 0.51918 0.34911 0.0
C13 C 0.39293 0.94728 0.40948 0.0
O14 O 0.42189 0.92494 0.39189 0.0
O15 O 0.31258 0.89179 0.35643 0.0
Zn16 Zn 0.31984 0.94462 0.3583 0.0
O17 O 0.38418 0.96137 0.32977 0.0
C18 C 0.23201 0.95788 0.31598 0.0
O19 O 0.26921 0.93617 0.30218 0.0
O20 O 0.3433 0.96006 0.40028 0.0
C21 C 0.41425 0.94193 0.31179 0.0
O22 O 0.4052 0.90767 0.31162 0.0
C23 C 0.28642 0.87461 0.37734 0.0
O24 O 0.26495 0.89171 0.40094 0.0
O25 O 0.24259 0.96626 0.3434 0.0
C26 C 0.58173 0.47152 0.10372 0.0
O27 O 0.54877 0.45663 0.12485 0.0
O28 O 0.69889 0.41028 0.14819 0.0
Zn29 Zn 0.67279 0.46127 0.14888 0.0
O30 O 0.61408 0.46963 0.18282 0.0
C31 C 0.79801 0.48117 0.15298 0.0
O32 O 0.80655 0.45408 0.13483 0.0
O33 O 0.6373 0.47649 0.10874 0.0
C34 C 0.5817 0.44634 0.19551 0.0
O35 O 0.58328 0.41365 0.18556 0.0
C36 C 0.67882 0.38682 0.13031 0.0
O37 O 0.63683 0.39523 0.11064 0.0
O38 O 0.74477 0.49009 0.16001 0.0
C39 C 0.89514 0.05128 0.08763 0.0
O40 O 0.92501 0.07542 0.10273 0.0
O41 O 0.80268 0.11285 0.13234 0.0
Zn42 Zn 0.82175 0.06125 0.13851 0.0
O43 O 0.89129 0.05384 0.16698 0.0
C44 C 0.7134 0.05446 0.17246 0.0
O45 O 0.72176 0.08862 0.17525 0.0
O46 O 0.84571 0.0402 0.09841 0.0
C47 C 0.88842 0.05663 0.1957 0.0
O48 O 0.8379 0.06678 0.20845 0.0
C49 C 0.8326 0.138 0.14385 0.0
O50 O 0.88026 0.13082 0.16031 0.0
O51 O 0.75003 0.03651 0.15652 0.0
C52 C 0.89426 0.45086 0.60382 0.0
O53 O 0.92802 0.43308 0.62295 0.0
O54 O 0.79455 0.3869 0.64894 0.0
Zn55 Zn 0.80967 0.43935 0.65117 0.0
O56 O 0.86962 0.45089 0.68386 0.0
C57 C 0.68134 0.45166 0.65853 0.0
O58 O 0.67559 0.42314 0.64184 0.0
O59 O 0.83994 0.45729 0.61087 0.0
C60 C 0.8709 0.43502 0.70929 0.0
O61 O 0.83362 0.40892 0.7145 0.0
C62 C 0.83441 0.36358 0.65421 0.0
O63 O 0.88929 0.37344 0.66093 0.0
O64 O 0.73346 0.4637 0.66378 0.0
C65 C 0.58937 0.03599 0.59947 0.0
O66 O 0.56178 0.05798 0.61789 0.0
O67 O 0.69331 0.09368 0.64476 0.0
Zn68 Zn 0.67929 0.04114 0.64529 0.0
O69 O 0.62451 0.02794 0.67968 0.0
C70 C 0.80845 0.0287 0.64652 0.0
O71 O 0.81147 0.05902 0.63212 0.0
O72 O 0.64184 0.02522 0.60619 0.0
C73 C 0.59059 0.04919 0.69405 0.0
O74 O 0.58931 0.08269 0.68632 0.0
C75 C 0.72315 0.10775 0.66612 0.0
O76 O 0.74282 0.08779 0.68844 0.0
O77 O 0.75742 0.01571 0.65283 0.0
C78 C 0.39036 0.53707 0.90509 0.0
O79 O 0.42021 0.55651 0.88556 0.0
O80 O 0.28311 0.59403 0.85945 0.0
Zn81 Zn 0.30302 0.54215 0.8582 0.0
O82 O 0.36459 0.53403 0.82534 0.0
C83 C 0.17605 0.5262 0.85377 0.0
O84 O 0.16987 0.55568 0.86918 0.0
O85 O 0.3375 0.52719 0.89843 0.0
C86 C 0.3507 0.52174 0.79942 0.0
O87 O 0.29445 0.51393 0.79363 0.0
C88 C 0.25473 0.60817 0.83754 0.0
O89 O 0.23958 0.58865 0.81413 0.0
O90 O 0.22842 0.5145 0.84811 0.0
C91 C 0.07713 0.95145 0.89753 0.0
O92 O 0.04534 0.93056 0.88005 0.0
O93 O 0.17472 0.8862 0.85495 0.0
Zn94 Zn 0.16397 0.93895 0.85103 0.0
O95 O 0.10857 0.95132 0.81662 0.0
C96 C 0.28888 0.94352 0.83355 0.0
O97 O 0.28653 0.90895 0.83561 0.0
O98 O 0.13057 0.95899 0.88981 0.0
C99 C 0.11184 0.93654 0.79077 0.0
O100 O 0.15076 0.91091 0.7863 0.0
C101 C 0.13605 0.86347 0.84688 0.0
O102 O 0.0841 0.8741 0.83605 0.0
O103 O 0.24283 0.96171 0.84054 0.0
H104 H 0.28639 0.46717 0.32102 0.0
H105 H 0.58416 0.50758 0.2281 0.0
H106 H 0.40477 0.55388 0.34173 0.0
H107 H 0.49156 0.40788 0.22209 0.0
H108 H 0.51864 0.52466 0.26995 0.0
H109 H 0.36127 0.44409 0.28555 0.0
C110 C 0.32846 0.48111 0.31842 0.0
C111 C 0.33913 0.51269 0.3342 0.0
C112 C 0.51284 0.49894 0.25964 0.0
C113 C 0.42458 0.48665 0.29333 0.0
C114 C 0.55004 0.48923 0.2356 0.0
C115 C 0.54304 0.45633 0.22142 0.0
C116 C 0.4677 0.4758 0.26942 0.0
C117 C 0.4984 0.43354 0.23232 0.0
C118 C 0.37116 0.46792 0.29815 0.0
C119 C 0.39451 0.52954 0.33001 0.0
N120 N 0.46202 0.44384 0.25552 0.0
N121 N 0.43484 0.51655 0.30969 0.0
H122 H 0.89961 0.0585 0.25786 0.0
H123 H 0.20885 0.95141 0.25568 0.0
H124 H -0.00476 0.02927 0.1763 0.0
H125 H 0.13955 -0.00028 0.33732 0.0
H126 H 0.12676 0.97752 0.22707 0.0
H127 H 0.98377 0.03582 0.28813 0.0
C128 C 0.93837 0.04755 0.24631 0.0
C129 C 0.94023 0.04562 0.21448 0.0
C130 C 0.1294 0.98255 0.25122 0.0
C131 C 0.03608 0.01944 0.24892 0.0
C132 C 0.17623 0.96748 0.26766 0.0
C133 C 0.18111 0.97336 0.29899 0.0
C134 C 0.08656 0.00355 0.26615 0.0
C135 C 0.13747 0.99454 0.31318 0.0
C136 C 0.98632 0.03463 0.26361 0.0
C137 C 0.99162 0.03123 0.20075 0.0
N138 N 0.09177 0.00882 0.29665 0.0
N139 N 0.0372 0.01851 0.21804 0.0
H140 H 0.9181 0.46629 0.14678 0.0
H141 H 0.00019 0.55661 0.30418 0.0
H142 H 0.794 0.53085 0.19798 0.0
H143 H 0.13371 0.51216 0.24409 0.0
H144 H 0.92466 0.54892 0.2646 0.0
H145 H -0.00103 0.48499 0.1806 0.0
C146 C 0.90799 0.4848 0.16483 0.0
C147 C 0.84901 0.49666 0.16976 0.0
C148 C 0.97059 0.54112 0.25996 0.0
C149 C 0.94111 0.51776 0.20878 0.0
C150 C 0.01368 0.54537 0.28261 0.0
C151 C 0.07324 0.53475 0.27752 0.0
C152 C 0.98698 0.52576 0.23212 0.0
C153 C 0.08825 0.52058 0.24904 0.0
C154 C 0.95417 0.49542 0.18417 0.0
C155 C 0.83865 0.52075 0.19344 0.0
N156 N 0.04528 0.51618 0.22751 0.0
N157 N 0.88405 0.53012 0.2123 0.0
H158 H 0.68889 0.98354 0.17667 0.0
H159 H 0.43798 0.01206 0.30446 0.0
H160 H 0.62965 0.0855 0.20903 0.0
H161 H 0.488 0.90919 0.27033 0.0
H162 H 0.50764 0.03902 0.26888 0.0
H163 H 0.61437 0.95543 0.20957 0.0
C164 C 0.65994 2e-05 0.19049 0.0
C165 C 0.6657 0.03693 0.1902 0.0
C166 C 0.50345 0.01054 0.26909 0.0
C167 C 0.5808 0.00497 0.22798 0.0
C168 C 0.4637 0.99508 0.2895 0.0
C169 C 0.4572 0.95826 0.29045 0.0
C170 C 0.53727 0.9891 0.24944 0.0
C171 C 0.49166 0.93768 0.2704 0.0
C172 C 0.61754 0.98395 0.20931 0.0
C173 C 0.62704 0.05696 0.20859 0.0
N174 N 0.53036 0.95339 0.25073 0.0
N175 N 0.58651 0.04072 0.2268 0.0
H176 H 0.46813 0.54257 0.80085 0.0
H177 H 0.56312 0.43186 0.65459 0.0
H178 H 0.34043 0.48631 0.74547 0.0
H179 H 0.68051 0.50528 0.70007 0.0
H180 H 0.48009 0.45228 0.68657 0.0
H181 H 0.54617 0.52957 0.76356 0.0
C182 C 0.45644 0.52756 0.7808 0.0
C183 C 0.39773 0.51533 0.77637 0.0
C184 C 0.52391 0.46416 0.6893 0.0
C185 C 0.487 0.50022 0.73358 0.0
C186 C 0.57132 0.45254 0.67104 0.0
C187 C 0.62902 0.46664 0.67483 0.0
C188 C 0.53444 0.48982 0.71168 0.0
C189 C 0.63692 0.49346 0.69645 0.0
C190 C 0.501 0.52025 0.75944 0.0
C191 C 0.38513 0.49619 0.74984 0.0
N192 N 0.59036 0.50389 0.71424 0.0
N193 N 0.42953 0.48897 0.72956 0.0
H194 H 0.91026 0.06314 0.66356 0.0
H195 H 0.06816 0.89831 0.74301 0.0
H196 H 0.82829 0.96007 0.66312 0.0
H197 H 0.06809 0.00287 0.78186 0.0
H198 H 0.00055 0.91965 0.70271 0.0
H199 H 0.99113 0.03973 0.69554 0.0
C200 C 0.91005 0.0354 0.66957 0.0
C201 C 0.86242 0.0135 0.66091 0.0
C202 C 0.01588 0.93782 0.72 0.0
C203 C 0.95453 0.98676 0.6972 0.0
C204 C 0.05431 0.92576 0.74287 0.0
C205 C 0.07307 0.94886 0.76583 0.0
C206 C -0.00221 0.97335 0.71977 0.0
C207 C 0.05398 0.98416 0.76473 0.0
C208 C 0.95586 0.0222 0.68797 0.0
C209 C 0.86407 0.97783 0.66956 0.0
N210 N 0.01757 -0.00459 0.74197 0.0
N211 N 0.9094 0.96551 0.68734 0.0
H212 H 0.07203 0.55922 0.83744 0.0
H213 H 0.92198 0.39559 0.75455 0.0
H214 H 0.16284 0.45843 0.83332 0.0
H215 H 0.91369 0.50138 0.71834 0.0
H216 H 0.99232 0.41634 0.79371 0.0
H217 H 0.99324 0.53583 0.8044 0.0
C218 C 0.07473 0.53195 0.83013 0.0
C219 C 0.12408 0.51072 0.83797 0.0
C220 C 0.97472 0.43488 0.7772 0.0
C221 C 0.03425 0.48398 0.80047 0.0
C222 C 0.93472 0.42316 0.75498 0.0
C223 C 0.91254 0.44682 0.73315 0.0
C224 C 0.99096 0.47062 0.77798 0.0
C225 C 0.93033 0.48226 0.7346 0.0
C226 C 0.03009 0.51879 0.81112 0.0
C227 C 0.12562 0.47567 0.82762 0.0
N228 N 0.96821 0.49317 0.75679 0.0
N229 N 0.08125 0.46331 0.80934 0.0
H230 H 0.39257 0.91234 0.81355 0.0
H231 H 0.50595 0.08549 0.72705 0.0
H232 H 0.30361 0.0136 0.81981 0.0
H233 H 0.5866 0.98225 0.71713 0.0
H234 H 0.43848 0.06148 0.76569 0.0
H235 H 0.47172 0.93954 0.78337 0.0
C236 C 0.38999 0.94039 0.80888 0.0
C237 C 0.34098 0.96062 0.81894 0.0
C238 C 0.47122 0.04416 0.75517 0.0
C239 C 0.43128 0.99192 0.7841 0.0
C240 C 0.50972 0.05784 0.7331 0.0
C241 C 0.55158 0.03577 0.71861 0.0
C242 C 0.47469 0.00818 0.7628 0.0
C243 C 0.55467 0.0002 0.72749 0.0
C244 C 0.43517 0.95591 0.79155 0.0
C245 C 0.34031 -0.00308 0.81234 0.0
N246 N 0.51654 0.9875 0.74887 0.0
N247 N 0.38447 0.01134 0.79508 0.0
H248 H 0.12759 0.49163 0.45071 0.0
H249 H 0.83936 0.49086 0.55975 0.0
H250 H 0.96523 0.55035 0.43192 0.0
H251 H 0.00697 0.43897 0.58134 0.0
H252 H 0.88312 0.51117 0.51191 0.0
H253 H 0.08251 0.47024 0.49778 0.0
C254 C 0.08242 0.49999 0.45644 0.0
C255 C 0.0502 0.52288 0.43734 0.0
C256 C 0.91029 0.49534 0.52713 0.0
C257 C -0.00175 0.49846 0.49125 0.0
C258 C 0.88532 0.48371 0.55444 0.0
C259 C 0.91956 0.46322 0.57464 0.0
C260 C 0.96989 0.48634 0.5199 0.0
C261 C 0.97888 0.45476 0.56653 0.0
C262 C 0.05671 0.48779 0.48336 0.0
C263 C 0.99181 0.5328 0.44596 0.0
N264 N 0.00211 0.46634 0.53982 0.0
N265 N 0.96773 0.52055 0.47228 0.0
H266 H 0.49897 0.92543 0.43434 0.0
H267 H 0.47797 0.0542 0.57803 0.0
H268 H 0.34885 -0.00459 0.45061 0.0
H269 H 0.63146 0.98825 0.55785 0.0
H270 H 0.42821 0.0318 0.53253 0.0
H271 H 0.54588 0.94653 0.48082 0.0
C272 C 0.47569 0.94516 0.44775 0.0
C273 C 0.41992 0.95875 0.43849 0.0
C274 C 0.47277 0.02225 0.53806 0.0
C275 C 0.4737 0.98319 0.49183 0.0
C276 C 0.50127 0.03505 0.56403 0.0
C277 C 0.55905 0.02312 0.57176 0.0
C278 C 0.50221 -0.00271 0.51971 0.0
C279 C 0.58698 -0.00175 0.55277 0.0
C280 C 0.50263 0.95726 0.4743 0.0
C281 C 0.39191 0.98424 0.45686 0.0
N282 N 0.55828 0.98617 0.52767 0.0
N283 N 0.41919 -0.0043 0.48264 0.0
H284 H 0.63538 0.50455 0.05538 0.0
H285 H 0.33962 0.49997 0.95194 0.0
H286 H 0.46609 0.46125 0.08496 0.0
H287 H 0.5041 0.55127 0.92507 0.0
H288 H 0.38626 0.48399 0.00024 0.0
H289 H 0.58909 0.52042 0.0069 0.0
C290 C 0.58849 0.49839 0.0517 0.0
C291 C 0.55457 0.48156 0.07429 0.0
C292 C 0.41216 0.49876 0.98379 0.0
C293 C 0.50133 0.49959 0.01883 0.0
C294 C 0.38555 0.50786 0.95617 0.0
C295 C 0.41797 0.52702 0.93441 0.0
C296 C 0.4717 0.50878 0.98969 0.0
C297 C 0.47735 0.53653 0.94118 0.0
C298 C 0.56207 0.50748 0.02402 0.0
C299 C 0.49399 0.47423 0.06824 0.0
N300 N 0.5023 0.52729 0.9682 0.0
N301 N 0.46937 0.48325 0.0411 0.0
H302 H 0.12789 -0.00169 0.9372 0.0
H303 H 0.8454 0.00167 0.04987 0.0
H304 H 0.96613 0.93847 0.9218 0.0
H305 H 0.00185 0.06748 0.06053 0.0
H306 H 0.88926 0.97723 0.00342 0.0
H307 H 0.08301 0.02282 0.98319 0.0
C308 C 0.08294 0.99028 0.94349 0.0
C309 C 0.05072 0.9663 0.92559 0.0
C310 C 0.9139 -0.00293 0.01592 0.0
C311 C -0.00101 0.99429 0.97828 0.0
C312 C 0.88888 0.01103 0.04243 0.0
C313 C 0.92 0.03665 0.05913 0.0
C314 C 0.9705 0.00873 0.0061 0.0
C315 C 0.97619 0.04779 0.04841 0.0
C316 C 0.05728 0.00434 0.96975 0.0
C317 C 0.99261 0.9569 0.93488 0.0
N318 N -0.00035 0.03372 0.02264 0.0
N319 N 0.96863 0.97089 0.9606 0.0
H320 H 0.25816 0.66218 0.3075 0.0
H321 H 0.23515 0.8292 0.41821 0.0
H322 H 0.18931 0.65645 0.399 0.0
H323 H 0.31813 0.8322 0.32964 0.0
H324 H 0.21817 0.7659 0.4118 0.0
H325 H 0.28042 0.72456 0.31532 0.0
C326 C 0.24779 0.67402 0.32926 0.0
C327 C 0.22168 0.65406 0.3526 0.0
C328 C 0.24029 0.78039 0.39382 0.0
C329 C 0.24701 0.72557 0.36171 0.0
C330 C 0.24998 0.81655 0.39746 0.0
C331 C 0.27794 0.83607 0.37439 0.0
C332 C 0.25845 0.76366 0.36687 0.0
C333 C 0.29632 0.81824 0.34802 0.0
C334 C 0.2606 0.70966 0.33373 0.0
C335 C 0.20939 0.67082 0.38035 0.0
N336 N 0.28604 0.7831 0.34494 0.0
N337 N 0.22198 0.70564 0.3841 0.0
H338 H 0.73775 0.16205 0.11004 0.0
H339 H 0.77205 0.36224 0.16488 0.0
H340 H 0.87964 0.19795 0.16908 0.0
H341 H 0.64118 0.32855 0.09878 0.0
H342 H 0.81136 0.30208 0.16705 0.0
H343 H 0.70139 0.22274 0.10578 0.0
C344 C 0.76144 0.1827 0.12203 0.0
C345 C 0.81179 0.17486 0.14001 0.0
C346 C 0.77412 0.30783 0.15202 0.0
C347 C 0.77014 0.24445 0.13531 0.0
C348 C 0.75151 0.34219 0.15082 0.0
C349 C 0.70309 0.35046 0.13166 0.0
C350 C 0.74802 0.28142 0.13405 0.0
C351 C 0.67852 0.32339 0.11388 0.0
C352 C 0.74062 0.21738 0.11957 0.0
C353 C 0.84066 0.20274 0.15498 0.0
N354 N 0.70115 0.29005 0.11558 0.0
N355 N 0.81927 0.23627 0.15239 0.0
H356 H 0.8077 0.14238 0.6996 0.0
H357 H 0.732 0.33297 0.6324 0.0
H358 H 0.6747 0.15916 0.62976 0.0
H359 H 0.89911 0.3083 0.67744 0.0
H360 H 0.70423 0.2706 0.63522 0.0
H361 H 0.83532 0.20466 0.69618 0.0
C362 C 0.78408 0.1592 0.68365 0.0
C363 C 0.73883 0.14558 0.66492 0.0
C364 C 0.74705 0.27885 0.64436 0.0
C365 C 0.77019 0.21682 0.66095 0.0
C366 C 0.76291 0.31443 0.64282 0.0
C367 C 0.818 0.32582 0.65468 0.0
C368 C 0.78619 0.25461 0.65825 0.0
C369 C 0.85632 0.30065 0.66789 0.0
C370 C 0.80013 0.19469 0.6816 0.0
C371 C 0.70997 0.16856 0.64456 0.0
N372 N 0.83951 0.26625 0.6695 0.0
N373 N 0.72599 0.20312 0.64319 0.0
H374 H 0.17415 0.64284 0.80127 0.0
H375 H 0.23108 0.83176 0.8754 0.0
H376 H 0.29293 0.65874 0.87742 0.0
H377 H 0.07692 0.80882 0.81951 0.0
H378 H 0.25919 0.76934 0.87382 0.0
H379 H 0.14315 0.70472 0.80466 0.0
C380 C 0.19386 0.65937 0.81864 0.0
C381 C 0.23628 0.64564 0.83907 0.0
C382 C 0.21903 0.77794 0.86206 0.0
C383 C 0.20104 0.71642 0.84302 0.0
C384 C 0.20298 0.81357 0.86291 0.0
C385 C 0.15157 0.82551 0.84755 0.0
C386 C 0.18387 0.75415 0.8454 0.0
C387 C 0.11681 0.80075 0.83175 0.0
C388 C 0.17589 0.69463 0.82066 0.0
C389 C 0.26005 0.66822 0.86123 0.0
N390 N 0.13385 0.76626 0.8309 0.0
N391 N 0.24231 0.70256 0.86253 0.0
loop_
_geom_bond_atom_site_label_1
_geom_bond_atom_site_label_2
_geom_bond_distance
_geom_bond_site_symmetry_2
_ccdc_geom_bond_type
C0 O1 1.160 . S
C0 O7 1.185 . S
O1 C0 1.160 . S
O2 Zn3 1.899 . S
O2 C10 1.284 . S
Zn3 O2 1.899 . S
Zn3 O4 2.032 . S
Zn3 O7 2.086 . S
Zn3 O12 1.977 . S
O4 Zn3 2.032 . S
O4 C8 1.278 . S
C5 O6 1.203 . S
C5 O12 1.267 . S
O6 C5 1.203 . S
O7 C0 1.185 . S
O7 Zn3 2.086 . S
C8 O4 1.278 . S
C8 O9 1.211 . S
O9 C8 1.211 . S
C10 O2 1.284 . S
C10 O11 1.273 . S
O11 C10 1.273 . S
O12 Zn3 1.977 . S
O12 C5 1.267 . S
C13 O14 1.160 . S
C13 O20 1.185 . S
O14 C13 1.160 . S
O15 Zn16 1.899 . S
O15 C23 1.284 . S
Zn16 O15 1.899 . S
Zn16 O17 2.032 . S
Zn16 O20 2.086 . S
Zn16 O25 1.977 . S
O17 Zn16 2.032 . S
O17 C21 1.278 . S
C18 O19 1.203 . S
C18 O25 1.267 . S
O19 C18 1.203 . S
O20 C13 1.185 . S
O20 Zn16 2.086 . S
C21 O17 1.278 . S
C21 O22 1.211 . S
O22 C21 1.211 . S
C23 O15 1.284 . S
C23 O24 1.273 . S
O24 C23 1.273 . S
O25 Zn16 1.977 . S
O25 C18 1.267 . S
C26 O27 1.160 . S
C26 O33 1.185 . S
O27 C26 1.160 . S
O28 Zn29 1.899 . S
O28 C36 1.284 . S
Zn29 O28 1.899 . S
Zn29 O30 2.032 . S
Zn29 O33 2.086 . S
Zn29 O38 1.977 . S
O30 Zn29 2.032 . S
O30 C34 1.278 . S
C31 O32 1.203 . S
C31 O38 1.267 . S
O32 C31 1.203 . S
O33 C26 1.185 . S
O33 Zn29 2.086 . S
C34 O30 1.278 . S
C34 O35 1.211 . S
O35 C34 1.211 . S
C36 O28 1.284 . S
C36 O37 1.273 . S
O37 C36 1.273 . S
O38 Zn29 1.977 . S
O38 C31 1.267 . S
C39 O40 1.160 . S
C39 O46 1.185 . S
O40 C39 1.160 . S
O41 Zn42 1.899 . S
O41 C49 1.284 . S
Zn42 O41 1.899 . S
Zn42 O43 2.032 . S
Zn42 O46 2.086 . S
Zn42 O51 1.977 . S
O43 Zn42 2.032 . S
O43 C47 1.278 . S
C44 O45 1.203 . S
C44 O51 1.267 . S
O45 C44 1.203 . S
O46 C39 1.185 . S
O46 Zn42 2.086 . S
C47 O43 1.278 . S
C47 O48 1.211 . S
O48 C47 1.211 . S
C49 O41 1.284 . S
C49 O50 1.273 . S
O50 C49 1.273 . S
O51 Zn42 1.977 . S
O51 C44 1.267 . S
C52 O53 1.160 . S
C52 O59 1.185 . S
O53 C52 1.160 . S
O54 Zn55 1.899 . S
O54 C62 1.284 . S
Zn55 O54 1.899 . S
Zn55 O56 2.032 . S
Zn55 O59 2.086 . S
Zn55 O64 1.977 . S
O56 Zn55 2.032 . S
O56 C60 1.278 . S
C57 O58 1.203 . S
C57 O64 1.267 . S
O58 C57 1.203 . S
O59 C52 1.185 . S
O59 Zn55 2.086 . S
C60 O56 1.278 . S
C60 O61 1.211 . S
O61 C60 1.211 . S
C62 O54 1.284 . S
C62 O63 1.273 . S
O63 C62 1.273 . S
O64 Zn55 1.977 . S
O64 C57 1.267 . S
C65 O66 1.160 . S
C65 O72 1.185 . S
O66 C65 1.160 . S
O67 Zn68 1.899 . S
O67 C75 1.284 . S
Zn68 O67 1.899 . S
Zn68 O69 2.032 . S
Zn68 O72 2.086 . S
Zn68 O77 1.977 . S
O69 Zn68 2.032 . S
O69 C73 1.278 . S
C70 O71 1.203 . S
C70 O77 1.267 . S
O71 C70 1.203 . S
O72 C65 1.185 . S
O72 Zn68 2.086 . S
C73 O69 1.278 . S
C73 O74 1.211 . S
O74 C73 1.211 . S
C75 O67 1.284 . S
C75 O76 1.273 . S
O76 C75 1.273 . S
O77 Zn68 1.977 . S
O77 C70 1.267 . S
C78 O79 1.160 . S
C78 O85 1.185 . S
O79 C78 1.160 . S
O80 Zn81 1.899 . S
O80 C88 1.284 . S
Zn81 O80 1.899 . S
Zn81 O82 2.032 . S
Zn81 O85 2.086 . S
Zn81 O90 1.977 . S
O82 Zn81 2.032 . S
O82 C86 1.278 . S
C83 O84 1.203 . S
C83 O90 1.267 . S
O84 C83 1.203 . S
O85 C78 1.185 . S
O85 Zn81 2.086 . S
C86 O82 1.278 . S
C86 O87 1.211 . S
O87 C86 1.211 . S
C88 O80 1.284 . S
C88 O89 1.273 . S
O89 C88 1.273 . S
O90 Zn81 1.977 . S
O90 C83 1.267 . S
C91 O92 1.160 . S
C91 O98 1.185 . S
O92 C91 1.160 . S
O93 Zn94 1.899 . S
O93 C101 1.284 . S
Zn94 O93 1.899 . S
Zn94 O95 2.032 . S
Zn94 O98 2.086 . S
Zn94 O103 1.977 . S
O95 Zn94 2.032 . S
O95 C99 1.278 . S
C96 O97 1.203 . S
C96 O103 1.267 . S
O97 C96 1.203 . S
O98 C91 1.185 . S
O98 Zn94 2.086 . S
C99 O95 1.278 . S
C99 O100 1.211 . S
O100 C99 1.211 . S
C101 O93 1.284 . S
C101 O102 1.273 . S
O102 C101 1.273 . S
O103 Zn94 1.977 . S
O103 C96 1.267 . S
H104 C110 0.930 . S
H105 C114 0.930 . S
H106 C119 0.929 . S
H107 C117 0.929 . S
H108 C112 0.929 . S
H109 C118 0.929 . S
C110 H104 0.930 . S
C110 C111 1.367 . S
C110 C118 1.378 . S
C111 C110 1.367 . S
C111 C119 1.433 . S
C112 H108 0.929 . S
C112 C114 1.378 . S
C112 C116 1.350 . S
C113 C116 1.463 . S
C113 C118 1.350 . S
C113 N121 1.427 . S
C114 H105 0.930 . S
C114 C112 1.378 . S
C114 C115 1.367 . S
C115 C114 1.367 . S
C115 C117 1.433 . S
C116 C112 1.350 . S
C116 C113 1.463 . S
C116 N120 1.427 . S
C117 H107 0.929 . S
C117 C115 1.433 . S
C117 N120 1.384 . S
C118 H109 0.929 . S
C118 C110 1.378 . S
C118 C113 1.350 . S
C119 H106 0.929 . S
C119 C111 1.433 . S
C119 N121 1.384 . S
N120 C116 1.427 . S
N120 C117 1.384 . S
N121 C113 1.427 . S
N121 C119 1.384 . S
H122 C128 0.930 . S
H123 C132 0.930 . S
H124 C137 0.929 . S
H125 C135 0.929 . S
H126 C130 0.929 . S
H127 C136 0.929 . S
C128 H122 0.930 . S
C128 C129 1.367 . S
C128 C136 1.378 1_655 S
C129 C128 1.367 . S
C129 C137 1.433 1_655 S
C130 H126 0.929 . S
C130 C132 1.378 . S
C130 C134 1.350 1_565 S
C131 C134 1.463 . S
C131 C136 1.350 . S
C131 N139 1.427 . S
C132 H123 0.930 . S
C132 C130 1.378 . S
C132 C133 1.367 . S
C133 C132 1.367 . S
C133 C135 1.433 . S
C134 C130 1.350 1_545 S
C134 C131 1.463 . S
C134 N138 1.427 . S
C135 H125 0.929 . S
C135 C133 1.433 . S
C135 N138 1.384 1_565 S
C136 H127 0.929 . S
C136 C128 1.378 1_455 S
C136 C131 1.350 . S
C137 H124 0.929 . S
C137 C129 1.433 1_455 S
C137 N139 1.384 . S
N138 C134 1.427 . S
N138 C135 1.384 1_545 S
N139 C131 1.427 . S
N139 C137 1.384 . S
H140 C146 0.930 . S
H141 C150 0.930 . S
H142 C155 0.929 . S
H143 C153 0.929 . S
H144 C148 0.929 . S
H145 C154 0.929 . S
C146 H140 0.930 . S
C146 C147 1.367 . S
C146 C154 1.378 . S
C147 C146 1.367 . S
C147 C155 1.433 . S
C148 H144 0.929 . S
C148 C150 1.378 . S
C148 C152 1.350 . S
C149 C152 1.463 . S
C149 C154 1.350 . S
C149 N157 1.427 . S
C150 H141 0.930 . S
C150 C148 1.378 . S
C150 C151 1.367 1_655 S
C151 C150 1.367 1_455 S
C151 C153 1.433 . S
C152 C148 1.350 . S
C152 C149 1.463 . S
C152 N156 1.427 . S
C153 H143 0.929 . S
C153 C151 1.433 . S
C153 N156 1.384 1_455 S
C154 H145 0.929 . S
C154 C146 1.378 . S
C154 C149 1.350 . S
C155 H142 0.929 . S
C155 C147 1.433 . S
C155 N157 1.384 . S
N156 C152 1.427 . S
N156 C153 1.384 1_655 S
N157 C149 1.427 . S
N157 C155 1.384 . S
H158 C164 0.930 . S
H159 C168 0.930 1_545 S
H160 C173 0.929 . S
H161 C171 0.929 . S
H162 C166 0.929 . S
H163 C172 0.929 . S
C164 H158 0.930 . S
C164 C165 1.367 1_565 S
C164 C172 1.378 . S
C165 C164 1.367 1_545 S
C165 C173 1.433 . S
C166 H162 0.929 . S
C166 C168 1.378 1_545 S
C166 C170 1.350 1_545 S
C167 C170 1.463 . S
C167 C172 1.350 . S
C167 N175 1.427 1_565 S
C168 H159 0.930 1_565 S
C168 C166 1.378 1_565 S
C168 C169 1.367 . S
C169 C168 1.367 . S
C169 C171 1.433 . S
C170 C166 1.350 1_565 S
C170 C167 1.463 . S
C170 N174 1.427 . S
C171 H161 0.929 . S
C171 C169 1.433 . S
C171 N174 1.384 . S
C172 H163 0.929 . S
C172 C164 1.378 . S
C172 C167 1.350 . S
C173 H160 0.929 . S
C173 C165 1.433 . S
C173 N175 1.384 . S
N174 C170 1.427 . S
N174 C171 1.384 . S
N175 C167 1.427 1_545 S
N175 C173 1.384 . S
H176 C182 0.930 . S
H177 C186 0.930 . S
H178 C191 0.929 . S
H179 C189 0.929 . S
H180 C184 0.929 . S
H181 C190 0.929 . S
C182 H176 0.930 . S
C182 C183 1.367 . S
C182 C190 1.378 . S
C183 C182 1.367 . S
C183 C191 1.433 . S
C184 H180 0.929 . S
C184 C186 1.378 . S
C184 C188 1.350 . S
C185 C188 1.463 . S
C185 C190 1.350 . S
C185 N193 1.427 . S
C186 H177 0.930 . S
C186 C184 1.378 . S
C186 C187 1.367 . S
C187 C186 1.367 . S
C187 C189 1.433 . S
C188 C184 1.350 . S
C188 C185 1.463 . S
C188 N192 1.427 . S
C189 H179 0.929 . S
C189 C187 1.433 . S
C189 N192 1.384 . S
C190 H181 0.929 . S
C190 C182 1.378 . S
C190 C185 1.350 . S
C191 H178 0.929 . S
C191 C183 1.433 . S
C191 N193 1.384 . S
N192 C188 1.427 . S
N192 C189 1.384 . S
N193 C185 1.427 . S
N193 C191 1.384 . S
H194 C200 0.930 . S
H195 C204 0.930 . S
H196 C209 0.929 . S
H197 C207 0.929 1_545 S
H198 C202 0.929 . S
H199 C208 0.929 . S
C200 H194 0.930 . S
C200 C201 1.367 . S
C200 C208 1.378 . S
C201 C200 1.367 . S
C201 C209 1.433 1_545 S
C202 H198 0.929 . S
C202 C204 1.378 . S
C202 C206 1.350 . S
C203 C206 1.463 . S
C203 C208 1.350 1_565 S
C203 N211 1.427 . S
C204 H195 0.930 . S
C204 C202 1.378 . S
C204 C205 1.367 1_655 S
C205 C204 1.367 1_455 S
C205 C207 1.433 . S
C206 C202 1.350 . S
C206 C203 1.463 . S
C206 N210 1.427 1_565 S
C207 H197 0.929 1_565 S
C207 C205 1.433 . S
C207 N210 1.384 1_465 S
C208 H199 0.929 . S
C208 C200 1.378 . S
C208 C203 1.350 1_545 S
C209 H196 0.929 . S
C209 C201 1.433 1_565 S
C209 N211 1.384 . S
N210 C206 1.427 1_545 S
N210 C207 1.384 1_645 S
N211 C203 1.427 . S
N211 C209 1.384 . S
H212 C218 0.930 . S
H213 C222 0.930 . S
H214 C227 0.929 . S
H215 C225 0.929 . S
H216 C220 0.929 . S
H217 C226 0.929 . S
C218 H212 0.930 . S
C218 C219 1.367 . S
C218 C226 1.378 . S
C219 C218 1.367 . S
C219 C227 1.433 . S
C220 H216 0.929 . S
C220 C222 1.378 . S
C220 C224 1.350 . S
C221 C224 1.463 . S
C221 C226 1.350 . S
C221 N229 1.427 . S
C222 H213 0.930 . S
C222 C220 1.378 . S
C222 C223 1.367 1_455 S
C223 C222 1.367 1_655 S
C223 C225 1.433 . S
C224 C220 1.350 . S
C224 C221 1.463 . S
C224 N228 1.427 . S
C225 H215 0.929 . S
C225 C223 1.433 . S
C225 N228 1.384 1_655 S
C226 H217 0.929 . S
C226 C218 1.378 . S
C226 C221 1.350 . S
C227 H214 0.929 . S
C227 C219 1.433 . S
C227 N229 1.384 . S
N228 C224 1.427 . S
N228 C225 1.384 1_455 S
N229 C221 1.427 . S
N229 C227 1.384 . S
H230 C236 0.930 . S
H231 C240 0.930 . S
H232 C245 0.929 . S
H233 C243 0.929 . S
H234 C238 0.929 . S
H235 C244 0.929 . S
C236 H230 0.930 . S
C236 C237 1.367 . S
C236 C244 1.378 . S
C237 C236 1.367 . S
C237 C245 1.433 . S
C238 H234 0.929 . S
C238 C240 1.378 . S
C238 C242 1.350 . S
C239 C242 1.463 . S
C239 C244 1.350 1_545 S
C239 N247 1.427 . S
C240 H231 0.930 . S
C240 C238 1.378 . S
C240 C241 1.367 . S
C241 C240 1.367 . S
C241 C243 1.433 . S
C242 C238 1.350 . S
C242 C239 1.463 . S
C242 N246 1.427 . S
C243 H233 0.929 . S
C243 C241 1.433 . S
C243 N246 1.384 . S
C244 H235 0.929 . S
C244 C236 1.378 . S
C244 C239 1.350 1_565 S
C245 H232 0.929 . S
C245 C237 1.433 . S
C245 N247 1.384 1_565 S
N246 C242 1.427 . S
N246 C243 1.384 . S
N247 C239 1.427 . S
N247 C245 1.384 1_545 S
H248 C254 0.930 . S
H249 C258 0.930 . S
H250 C263 0.929 . S
H251 C261 0.929 . S
H252 C256 0.921 1_455 S
H253 C262 0.921 1_655 S
C254 H248 0.930 . S
C254 C255 1.367 . S
C254 C262 1.378 . S
C255 C254 1.367 . S
C255 C263 1.433 . S
C256 H252 0.921 1_655 S
C256 C258 1.378 . S
C256 C260 1.350 . S
C257 C260 1.463 1_455 S
C257 C262 1.350 . S
C257 N265 1.427 . S
C258 H249 0.930 . S
C258 C256 1.378 . S
C258 C259 1.367 . S
C259 C258 1.367 . S
C259 C261 1.433 . S
C260 C256 1.350 . S
C260 C257 1.463 1_655 S
C260 N264 1.427 . S
C261 H251 0.929 . S
C261 C259 1.433 . S
C261 N264 1.384 . S
C262 H253 0.921 1_455 S
C262 C254 1.378 . S
C262 C257 1.350 . S
C263 H250 0.929 . S
C263 C255 1.433 . S
C263 N265 1.384 . S
N264 C260 1.427 . S
N264 C261 1.384 . S
N265 C257 1.427 . S
N265 C263 1.384 . S
H266 C272 0.930 . S
H267 C276 0.930 . S
H268 C281 0.929 . S
H269 C279 0.929 . S
H270 C274 0.929 . S
H271 C280 0.929 . S
C272 H266 0.930 . S
C272 C273 1.367 . S
C272 C280 1.378 . S
C273 C272 1.367 . S
C273 C281 1.433 . S
C274 H270 0.929 . S
C274 C276 1.378 . S
C274 C278 1.350 . S
C275 C278 1.463 1_565 S
C275 C280 1.350 . S
C275 N283 1.427 . S
C276 H267 0.930 . S
C276 C274 1.378 . S
C276 C277 1.367 . S
C277 C276 1.367 . S
C277 C279 1.433 . S
C278 C274 1.350 . S
C278 C275 1.463 1_545 S
C278 N282 1.427 . S
C279 H269 0.929 . S
C279 C277 1.433 . S
C279 N282 1.384 . S
C280 H271 0.929 . S
C280 C272 1.378 . S
C280 C275 1.350 . S
C281 H268 0.929 . S
C281 C273 1.433 . S
C281 N283 1.384 . S
N282 C278 1.427 . S
N282 C279 1.384 . S
N283 C275 1.427 . S
N283 C281 1.384 . S
H284 C290 0.930 . S
H285 C294 0.930 . S
H286 C299 0.929 . S
H287 C297 0.929 . S
H288 C292 0.929 . S
H289 C298 0.929 . S
C290 H284 0.930 . S
C290 C291 1.367 . S
C290 C298 1.378 . S
C291 C290 1.367 . S
C291 C299 1.433 . S
C292 H288 0.929 . S
C292 C294 1.378 . S
C292 C296 1.350 . S
C293 C296 1.463 1_554 S
C293 C298 1.350 . S
C293 N301 1.427 . S
C294 H285 0.930 . S
C294 C292 1.378 . S
C294 C295 1.367 . S
C295 C294 1.367 . S
C295 C297 1.433 . S
C296 C292 1.350 . S
C296 C293 1.463 1_556 S
C296 N300 1.427 . S
C297 H287 0.929 . S
C297 C295 1.433 . S
C297 N300 1.384 . S
C298 H289 0.929 . S
C298 C290 1.378 . S
C298 C293 1.350 . S
C299 H286 0.929 . S
C299 C291 1.433 . S
C299 N301 1.384 . S
N300 C296 1.427 . S
N300 C297 1.384 . S
N301 C293 1.427 . S
N301 C299 1.384 . S
H302 C308 0.930 . S
H303 C312 0.930 . S
H304 C317 0.929 . S
H305 C315 0.929 . S
H306 C310 0.929 1_455 S
H307 C316 0.929 1_655 S
C308 H302 0.930 . S
C308 C309 1.367 1_545 S
C308 C316 1.378 . S
C309 C308 1.367 1_565 S
C309 C317 1.433 . S
C310 H306 0.929 1_655 S
C310 C312 1.378 . S
C310 C314 1.350 1_565 S
C311 C314 1.463 1_466 S
C311 C316 1.350 1_565 S
C311 N319 1.427 . S
C312 H303 0.930 . S
C312 C310 1.378 . S
C312 C313 1.367 1_565 S
C313 C312 1.367 1_545 S
C313 C315 1.433 . S
C314 C310 1.350 1_545 S
C314 C311 1.463 1_644 S
C314 N318 1.427 . S
C315 H305 0.929 . S
C315 C313 1.433 . S
C315 N318 1.384 . S
C316 H307 0.929 1_455 S
C316 C308 1.378 . S
C316 C311 1.350 1_545 S
C317 H304 0.929 . S
C317 C309 1.433 . S
C317 N319 1.384 . S
N318 C314 1.427 . S
N318 C315 1.384 . S
N319 C311 1.427 . S
N319 C317 1.384 . S
H320 C326 0.930 . S
H321 C330 0.930 . S
H322 C335 0.929 . S
H323 C333 0.929 . S
H324 C328 0.929 . S
H325 C334 0.929 . S
C326 H320 0.930 . S
C326 C327 1.367 . S
C326 C334 1.378 . S
C327 C326 1.367 . S
C327 C335 1.433 . S
C328 H324 0.929 . S
C328 C330 1.378 . S
C328 C332 1.350 . S
C329 C332 1.463 . S
C329 C334 1.350 . S
C329 N337 1.427 . S
C330 H321 0.930 . S
C330 C328 1.378 . S
C330 C331 1.367 . S
C331 C330 1.367 . S
C331 C333 1.433 . S
C332 C328 1.350 . S
C332 C329 1.463 . S
C332 N336 1.427 . S
C333 H323 0.929 . S
C333 C331 1.433 . S
C333 N336 1.384 . S
C334 H325 0.929 . S
C334 C326 1.378 . S
C334 C329 1.350 . S
C335 H322 0.929 . S
C335 C327 1.433 . S
C335 N337 1.384 . S
N336 C332 1.427 . S
N336 C333 1.384 . S
N337 C329 1.427 . S
N337 C335 1.384 . S
H338 C344 0.930 . S
H339 C348 0.930 . S
H340 C353 0.929 . S
H341 C351 0.929 . S
H342 C346 0.929 . S
H343 C352 0.929 . S
C344 H338 0.930 . S
C344 C345 1.367 . S
C344 C352 1.378 . S
C345 C344 1.367 . S
C345 C353 1.433 . S
C346 H342 0.929 . S
C346 C348 1.378 . S
C346 C350 1.350 . S
C347 C350 1.463 . S
C347 C352 1.350 . S
C347 N355 1.427 . S
C348 H339 0.930 . S
C348 C346 1.378 . S
C348 C349 1.367 . S
C349 C348 1.367 . S
C349 C351 1.433 . S
C350 C346 1.350 . S
C350 C347 1.463 . S
C350 N354 1.427 . S
C351 H341 0.929 . S
C351 C349 1.433 . S
C351 N354 1.384 . S
C352 H343 0.929 . S
C352 C344 1.378 . S
C352 C347 1.350 . S
C353 H340 0.929 . S
C353 C345 1.433 . S
C353 N355 1.384 . S
N354 C350 1.427 . S
N354 C351 1.384 . S
N355 C347 1.427 . S
N355 C353 1.384 . S
H356 C362 0.930 . S
H357 C366 0.930 . S
H358 C371 0.929 . S
H359 C369 0.929 . S
H360 C364 0.929 . S
H361 C370 0.929 . S
C362 H356 0.930 . S
C362 C363 1.367 . S
C362 C370 1.378 . S
C363 C362 1.367 . S
C363 C371 1.433 . S
C364 H360 0.929 . S
C364 C366 1.378 . S
C364 C368 1.350 . S
C365 C368 1.463 . S
C365 C370 1.350 . S
C365 N373 1.427 . S
C366 H357 0.930 . S
C366 C364 1.378 . S
C366 C367 1.367 . S
C367 C366 1.367 . S
C367 C369 1.433 . S
C368 C364 1.350 . S
C368 C365 1.463 . S
C368 N372 1.427 . S
C369 H359 0.929 . S
C369 C367 1.433 . S
C369 N372 1.384 . S
C370 H361 0.929 . S
C370 C362 1.378 . S
C370 C365 1.350 . S
C371 H358 0.929 . S
C371 C363 1.433 . S
C371 N373 1.384 . S
N372 C368 1.427 . S
N372 C369 1.384 . S
N373 C365 1.427 . S
N373 C371 1.384 . S
H374 C380 0.930 . S
H375 C384 0.930 . S
H376 C389 0.929 . S
H377 C387 0.929 . S
H378 C382 0.929 . S
H379 C388 0.929 . S
C380 H374 0.930 . S
C380 C381 1.367 . S
C380 C388 1.378 . S
C381 C380 1.367 . S
C381 C389 1.433 . S
C382 H378 0.929 . S
C382 C384 1.378 . S
C382 C386 1.350 . S
C383 C386 1.463 . S
C383 C388 1.350 . S
C383 N391 1.427 . S
C384 H375 0.930 . S
C384 C382 1.378 . S
C384 C385 1.367 . S
C385 C384 1.367 . S
C385 C387 1.433 . S
C386 C382 1.350 . S
C386 C383 1.463 . S
C386 N390 1.427 . S
C387 H377 0.929 . S
C387 C385 1.433 . S
C387 N390 1.384 . S
C388 H379 0.929 . S
C388 C380 1.378 . S
C388 C383 1.350 . S
C389 H376 0.929 . S
C389 C381 1.433 . S
C389 N391 1.384 . S
N390 C386 1.427 . S
N390 C387 1.384 . S
N391 C383 1.427 . S
N391 C389 1.384 . S
C111 C5 1.154 . S
C115 C34 1.145 . S
C129 C47 1.144 . S
C133 C18 1.140 . S
C147 C31 1.146 . S
C151 C8 1.160 . S
C165 C44 1.155 . S
C169 C21 1.147 . S
C183 C86 1.159 . S
C187 C57 1.145 . S
C201 C70 1.141 . S
C205 C99 1.157 . S
C219 C83 1.140 . S
C223 C60 1.156 . S
C237 C96 1.139 . S
C241 C73 1.145 . S
C255 C0 1.501 . S
C259 C52 1.501 . S
C273 C13 1.494 . S
C277 C65 1.494 . S
C291 C26 1.502 . S
C295 C78 1.502 . S
C309 C91 1.499 . S
C313 C39 1.499 . S
C327 C10 1.517 . S
C331 C23 1.516 . S
C345 C49 1.515 . S
C349 C36 1.517 . S
C363 C75 1.514 . S
C367 C62 1.518 . S
C381 C88 1.514 . S
C385 C101 1.518 . S
