# Generated by pormake.
# Topology usf, (4)-cn, num edge types: 1
# Building blocks:
#     Node 0, Type 0, BuildingBlock: NAWXER_clean_sbu_0, # of connection points: 4
#     Node 1, Type 0, BuildingBlock: NAWXER_clean_sbu_0, # of connection points: 4
#     Node 2, Type 0, BuildingBlock: NAWXER_clean_sbu_0, # of connection points: 4
#     Node 3, Type 0, BuildingBlock: NAWXER_clean_sbu_0, # of connection points: 4
#     Node 4, Type 0, BuildingBlock: NAWXER_clean_sbu_0, # of connection points: 4
#     Node 5, Type 0, BuildingBlock: NAWXER_clean_sbu_0, # of connection points: 4
#     Node 6, Type 0, BuildingBlock: NAWXER_clean_sbu_0, # of connection points: 4
#     Node 7, Type 0, BuildingBlock: NAWXER_clean_sbu_0, # of connection points: 4
#     Node 8, Type 0, BuildingBlock: NAWXER_clean_sbu_0, # of connection points: 4
#     Node 9, Type 0, BuildingBlock: NAWXER_clean_sbu_0, # of connection points: 4
#     Node 10, Type 0, BuildingBlock: NAWXER_clean_sbu_0, # of connection points: 4
#     Node 11, Type 0, BuildingBlock: NAWXER_clean_sbu_0, # of connection points: 4
#     Node 12, Type 0, BuildingBlock: NAWXER_clean_sbu_0, # of connection points: 4
#     Node 13, Type 0, BuildingBlock: NAWXER_clean_sbu_0, # of connection points: 4
#     Node 14, Type 0, BuildingBlock: NAWXER_clean_sbu_0, # of connection points: 4
#     Node 15, Type 0, BuildingBlock: NAWXER_clean_sbu_0, # of connection points: 4
#     Node 16, Type 0, BuildingBlock: NAWXER_clean_sbu_0, # of connection points: 4
#     Node 17, Type 0, BuildingBlock: NAWXER_clean_sbu_0, # of connection points: 4
#     Edge 18, Type (0, 0), BuildingBlock: EYOCIG_clean_linker_4, # of connection points: 2
#     Edge 19, Type (0, 0), BuildingBlock: EYOCIG_clean_linker_4, # of connection points: 2
#     Edge 20, Type (0, 0), BuildingBlock: EYOCIG_clean_linker_4, # of connection points: 2
#     Edge 21, Type (0, 0), BuildingBlock: EYOCIG_clean_linker_4, # of connection points: 2
#     Edge 22, Type (0, 0), BuildingBlock: EYOCIG_clean_linker_4, # of connection points: 2
#     Edge 23, Type (0, 0), BuildingBlock: EYOCIG_clean_linker_4, # of connection points: 2
#     Edge 24, Type (0, 0), BuildingBlock: EYOCIG_clean_linker_4, # of connection points: 2
#     Edge 25, Type (0, 0), BuildingBlock: EYOCIG_clean_linker_4, # of connection points: 2
#     Edge 26, Type (0, 0), BuildingBlock: EYOCIG_clean_linker_4, # of connection points: 2
#     Edge 27, Type (0, 0), BuildingBlock: EYOCIG_clean_linker_4, # of connection points: 2
#     Edge 28, Type (0, 0), BuildingBlock: EYOCIG_clean_linker_4, # of connection points: 2
#     Edge 29, Type (0, 0), BuildingBlock: EYOCIG_clean_linker_4, # of connection points: 2
#     Edge 30, Type (0, 0), BuildingBlock: EYOCIG_clean_linker_4, # of connection points: 2
#     Edge 31, Type (0, 0), BuildingBlock: EYOCIG_clean_linker_4, # of connection points: 2
#     Edge 32, Type (0, 0), BuildingBlock: EYOCIG_clean_linker_4, # of connection points: 2
#     Edge 33, Type (0, 0), BuildingBlock: EYOCIG_clean_linker_4, # of connection points: 2
#     Edge 34, Type (0, 0), BuildingBlock: EYOCIG_clean_linker_4, # of connection points: 2
#     Edge 35, Type (0, 0), BuildingBlock: EYOCIG_clean_linker_4, # of connection points: 2
#     Edge 36, Type (0, 0), BuildingBlock: EYOCIG_clean_linker_4, # of connection points: 2
#     Edge 37, Type (0, 0), BuildingBlock: EYOCIG_clean_linker_4, # of connection points: 2
#     Edge 38, Type (0, 0), BuildingBlock: EYOCIG_clean_linker_4, # of connection points: 2
#     Edge 39, Type (0, 0), BuildingBlock: EYOCIG_clean_linker_4, # of connection points: 2
#     Edge 40, Type (0, 0), BuildingBlock: EYOCIG_clean_linker_4, # of connection points: 2
#     Edge 41, Type (0, 0), BuildingBlock: EYOCIG_clean_linker_4, # of connection points: 2
#     Edge 42, Type (0, 0), BuildingBlock: EYOCIG_clean_linker_4, # of connection points: 2
#     Edge 43, Type (0, 0), BuildingBlock: EYOCIG_clean_linker_4, # of connection points: 2
#     Edge 44, Type (0, 0), BuildingBlock: EYOCIG_clean_linker_4, # of connection points: 2
#     Edge 45, Type (0, 0), BuildingBlock: EYOCIG_clean_linker_4, # of connection points: 2
#     Edge 46, Type (0, 0), BuildingBlock: EYOCIG_clean_linker_4, # of connection points: 2
#     Edge 47, Type (0, 0), BuildingBlock: EYOCIG_clean_linker_4, # of connection points: 2
#     Edge 48, Type (0, 0), BuildingBlock: EYOCIG_clean_linker_4, # of connection points: 2
#     Edge 49, Type (0, 0), BuildingBlock: EYOCIG_clean_linker_4, # of connection points: 2
#     Edge 50, Type (0, 0), BuildingBlock: EYOCIG_clean_linker_4, # of connection points: 2
#     Edge 51, Type (0, 0), BuildingBlock: EYOCIG_clean_linker_4, # of connection points: 2
#     Edge 52, Type (0, 0), BuildingBlock: EYOCIG_clean_linker_4, # of connection points: 2
#     Edge 53, Type (0, 0), BuildingBlock: EYOCIG_clean_linker_4, # of connection points: 2
# Relax obj value: 0.054
# Max RMSD: 0.096
# Mean RMSD: 0.096
data_MOF--net-usf--node1-NAWXER_clean_sbu_0--edge1-EYOCIG_clean_linker_4
_symmetry_space_group_name_H-M    P1
_symmetry_Int_Tables_number       1
_symmetry_cell_setting            triclinic
loop_
_symmetry_equiv_pos_as_xyz
'x, y, z'
_cell_length_a     38.65645
_cell_length_b     38.646496
_cell_length_c     23.653655
_cell_angle_alpha  90.00881
_cell_angle_beta   90.006061
_cell_angle_gamma 119.98017
loop_
_atom_site_label
_atom_site_type_symbol
_atom_site_fract_x
_atom_site_fract_y
_atom_site_fract_z
_atom_type_partial_charge
C0 C 0.99771 0.50797 0.87201 0.0
C1 C 0.00947 0.49771 0.08996 0.0
O2 O 0.02743 0.53559 0.89794 0.0
Zn3 Zn 0.04087 0.53988 -0.01933 0.0
O4 O 0.97003 0.47855 0.8983 0.0
Zn5 Zn 0.96619 0.46583 -0.01873 0.0
O6 O 0.946 0.50364 -0.00147 0.0
O7 O 1.00347 0.56059 -0.00189 0.0
O8 O 0.97974 0.47018 0.06392 0.0
O9 O 0.03718 0.52721 0.06376 0.0
O10 O 0.06097 0.50177 0.96466 0.0
O11 O 0.00349 0.44482 0.96518 0.0
C12 C 0.96592 0.54122 0.00537 0.0
C13 C 0.04111 0.46411 0.95866 0.0
C14 C 0.50918 0.51378 0.09007 0.0
C15 C 0.49736 0.49214 0.87208 0.0
O16 O 0.47946 0.51197 0.06454 0.0
Zn17 Zn 0.46667 0.50284 -0.01819 0.0
O18 O 0.53646 0.51151 0.06339 0.0
Zn19 Zn 0.54093 0.50275 0.98036 0.0
O20 O 0.56191 0.56117 0.96493 0.0
O21 O 0.50462 0.56102 0.9651 0.0
O22 O 0.5273 0.49411 0.89727 0.0
O23 O 0.47001 0.49399 0.8991 0.0
O24 O 0.44644 0.44455 -0.00247 0.0
O25 O 0.50359 0.44442 -0.00341 0.0
C26 C 0.54225 0.57918 0.95878 0.0
C27 C 0.46598 0.4264 0.00327 0.0
C28 C 0.49307 0.99758 0.09006 0.0
C29 C 0.51375 0.00776 0.872 0.0
O30 O 0.49496 0.96981 0.06422 0.0
Zn31 Zn 0.50417 0.96634 -0.01856 0.0
O32 O 0.49517 0.02717 0.06369 0.0
Zn33 Zn 0.5038 0.0405 -0.01922 0.0
O34 O 0.44548 0.00295 0.9653 0.0
O35 O 0.44586 0.9459 0.96502 0.0
O36 O 0.51203 0.03573 0.8976 0.0
O37 O 0.51235 0.97864 0.89869 0.0
O38 O 0.56247 0.00464 -0.00264 0.0
O39 O 0.5621 0.06168 -0.00324 0.0
C40 C 0.42759 0.96531 0.95889 0.0
C41 C 0.58035 0.04231 0.00336 0.0
C42 C 0.50875 0.99745 0.59008 0.0
C43 C 0.49755 0.00743 0.37208 0.0
O44 O 0.53625 0.02699 0.56367 0.0
Zn45 Zn 0.54094 0.0405 0.48071 0.0
O46 O 0.47922 0.96957 0.56424 0.0
Zn47 Zn 0.46674 0.96617 0.48154 0.0
O48 O 0.5049 0.94628 0.46376 0.0
O49 O 0.5621 0.0035 0.46412 0.0
O50 O 0.46998 0.9783 0.39892 0.0
O51 O 0.52736 0.03538 0.39752 0.0
O52 O 0.50389 0.0617 0.49681 0.0
O53 O 0.44672 0.00446 0.4975 0.0
C54 C 0.54249 0.96595 0.45689 0.0
C55 C 0.46631 0.04214 0.50353 0.0
C56 C 0.00768 0.51288 0.59007 0.0
C57 C 0.99937 0.49229 0.37202 0.0
O58 O 0.97867 0.51129 0.56278 0.0
Zn59 Zn 0.96642 0.50262 0.47985 0.0
O60 O 0.03587 0.51123 0.5651 0.0
Zn61 Zn 0.04093 0.5029 0.48224 0.0
O62 O 0.06158 0.56092 0.4649 0.0
O63 O 0.00437 0.56093 0.46353 0.0
O64 O 0.02847 0.49414 0.39939 0.0
O65 O 0.97115 0.49396 0.39692 0.0
O66 O 0.94621 0.44432 0.49651 0.0
O67 O 0.00357 0.44458 0.49724 0.0
C68 C 0.04202 0.57888 0.45734 0.0
C69 C 0.96591 0.42638 0.50315 0.0
C70 C 0.51455 0.50928 0.37212 0.0
C71 C 0.49269 0.4966 0.59002 0.0
O72 O 0.51282 0.47937 0.39709 0.0
Zn73 Zn 0.50408 0.46569 0.48005 0.0
O74 O 0.51273 0.53657 0.39941 0.0
Zn75 Zn 0.50401 0.54 0.48224 0.0
O76 O 0.56237 0.56029 0.49771 0.0
O77 O 0.56223 0.50299 0.49678 0.0
O78 O 0.49467 0.52654 0.5649 0.0
O79 O 0.49487 0.4694 0.56296 0.0
O80 O 0.44593 0.44496 0.46342 0.0
O81 O 0.44601 0.50224 0.46409 0.0
C82 C 0.58035 0.54059 0.5036 0.0
C83 C 0.42805 0.46469 0.45667 0.0
C84 C 0.67537 0.83141 0.4234 0.0
C85 C 0.66492 0.84085 0.20528 0.0
O86 O 0.70316 0.86083 0.39725 0.0
Zn87 Zn 0.70717 0.87344 0.31435 0.0
O88 O 0.64588 0.80364 0.39728 0.0
Zn89 Zn 0.63296 0.79895 0.31439 0.0
O90 O 0.671 0.77861 0.29853 0.0
O91 O 0.72802 0.83601 0.29833 0.0
O92 O 0.63702 0.81139 0.23126 0.0
O93 O 0.69424 0.86863 0.2316 0.0
O94 O 0.66949 0.89404 0.33003 0.0
O95 O 0.61235 0.83675 0.3302 0.0
C96 C 0.70863 0.79837 0.29205 0.0
C97 C 0.63187 0.87442 0.33638 0.0
C98 C 0.20915 0.91219 0.29041 0.0
C99 C 0.13344 0.75987 0.33715 0.0
O100 O 0.2288 0.89423 0.29688 0.0
Zn101 Zn 0.20795 0.83614 0.31292 0.0
O102 O 0.17159 0.89425 0.29778 0.0
Zn103 Zn 0.13359 0.83614 0.31581 0.0
O104 O 0.14705 0.84514 0.39866 0.0
O105 O 0.20411 0.84485 0.39581 0.0
O106 O 0.11364 0.77779 0.33163 0.0
O107 O 0.17097 0.77803 0.32973 0.0
O108 O 0.19394 0.82717 0.2302 0.0
O109 O 0.13665 0.82703 0.23283 0.0
C110 C 0.17699 0.8468 0.42335 0.0
C111 C 0.16387 0.82515 0.2054 0.0
C112 C 0.16026 0.331 0.42337 0.0
C113 C 0.1818 0.34228 0.20537 0.0
O114 O 0.16205 0.30328 0.39721 0.0
Zn115 Zn 0.17093 0.29962 0.3143 0.0
O116 O 0.16204 0.36054 0.39727 0.0
Zn117 Zn 0.1703 0.37363 0.31434 0.0
O118 O 0.11201 0.33567 0.29822 0.0
O119 O 0.11268 0.27878 0.29797 0.0
O120 O 0.1796 0.36986 0.23133 0.0
O121 O 0.17982 0.31272 0.2316 0.0
O122 O 0.22914 0.33763 0.33041 0.0
O123 O 0.22868 0.39463 0.3304 0.0
C124 C 0.0943 0.29804 0.29171 0.0
C125 C 0.24699 0.37527 0.33666 0.0
C126 C 0.20804 0.29782 0.79202 0.0
C127 C 0.13241 0.3745 0.83844 0.0
O128 O 0.17048 0.2784 0.79908 0.0
Zn129 Zn 0.13332 0.29945 0.8155 0.0
O130 O 0.22779 0.33552 0.79768 0.0
Zn131 Zn 0.20777 0.37382 0.8132 0.0
O132 O 0.20448 0.36158 0.89603 0.0
O133 O 0.14712 0.30451 0.89838 0.0
O134 O 0.16994 0.3941 0.83094 0.0
O135 O 0.11271 0.3369 0.83187 0.0
O136 O 0.13744 0.31206 0.73254 0.0
O137 O 0.19469 0.36924 0.73037 0.0
C138 C 0.17713 0.33255 0.92332 0.0
C139 C 0.1649 0.34105 0.70532 0.0
C140 C 0.70893 0.91248 0.79187 0.0
C141 C 0.63155 0.7601 0.8384 0.0
O142 O 0.72815 0.89409 0.79862 0.0
Zn143 Zn 0.70715 0.83579 0.81468 0.0
O144 O 0.67128 0.89478 0.79803 0.0
Zn145 Zn 0.63316 0.83653 0.81395 0.0
O146 O 0.64614 0.84488 0.89691 0.0
O147 O 0.70321 0.84454 0.89751 0.0
O148 O 0.61215 0.77826 0.83097 0.0
O149 O 0.66913 0.77778 0.83167 0.0
O150 O 0.69452 0.82743 0.7319 0.0
O151 O 0.63755 0.82796 0.73096 0.0
C152 C 0.67538 0.84631 0.92335 0.0
C153 C 0.66543 0.82618 0.70529 0.0
C154 C 0.15934 0.82994 0.92325 0.0
C155 C 0.18179 0.84139 0.70534 0.0
O156 O 0.16115 0.80239 0.89663 0.0
Zn157 Zn 0.17028 0.79877 0.81386 0.0
O158 O 0.16163 0.85988 0.89764 0.0
Zn159 Zn 0.17093 0.87343 0.8147 0.0
O160 O 0.11266 0.83651 0.7983 0.0
O161 O 0.11214 0.77901 0.79751 0.0
O162 O 0.17989 0.86895 0.73183 0.0
O163 O 0.17964 0.81157 0.73106 0.0
O164 O 0.2284 0.8363 0.83143 0.0
O165 O 0.22892 0.8938 0.83194 0.0
C166 C 0.09437 0.79891 0.79148 0.0
C167 C 0.24658 0.87387 0.83874 0.0
C168 C 0.3421 0.16339 0.75673 0.0
C169 C 0.33166 0.17443 0.53874 0.0
O170 O 0.3698 0.19332 0.7312 0.0
Zn171 Zn 0.37369 0.20681 0.64836 0.0
O172 O 0.3127 0.13596 0.73007 0.0
Zn173 Zn 0.29965 0.13216 0.64736 0.0
O174 O 0.33786 0.11226 0.63064 0.0
O175 O 0.39479 0.16976 0.63123 0.0
O176 O 0.30362 0.14488 0.56439 0.0
O177 O 0.36085 0.20212 0.56541 0.0
O178 O 0.3359 0.22714 0.66488 0.0
O179 O 0.27901 0.16962 0.66471 0.0
C180 C 0.37547 0.1322 0.62405 0.0
C181 C 0.29834 0.20719 0.67174 0.0
C182 C 0.84286 0.17955 0.7567 0.0
C183 C 0.83248 0.15906 0.53867 0.0
O184 O 0.81329 0.17798 0.73098 0.0
Zn185 Zn 0.80021 0.16935 0.64796 0.0
O186 O 0.87059 0.17809 0.73012 0.0
Zn187 Zn 0.8747 0.16958 0.64738 0.0
O188 O 0.89495 0.22766 0.63049 0.0
O189 O 0.83765 0.22751 0.63088 0.0
O190 O 0.86194 0.16059 0.56458 0.0
O191 O 0.80481 0.16081 0.56504 0.0
O192 O 0.77977 0.11113 0.66449 0.0
O193 O 0.83718 0.11151 0.66445 0.0
C194 C 0.87521 0.2455 0.62361 0.0
C195 C 0.79962 0.09338 0.67142 0.0
C196 C 0.91335 0.70848 0.67161 0.0
C197 C 0.76125 0.63126 0.62389 0.0
O198 O 0.89508 0.72779 0.66457 0.0
Zn199 Zn 0.83701 0.70721 0.64728 0.0
O200 O 0.89572 0.67088 0.6649 0.0
Zn201 Zn 0.83759 0.63316 0.64822 0.0
O202 O 0.84618 0.6465 0.56515 0.0
O203 O 0.84612 0.70372 0.56456 0.0
O204 O 0.77937 0.61183 0.63123 0.0
O205 O 0.77902 0.66889 0.63034 0.0
O206 O 0.82779 0.69456 0.72983 0.0
O207 O 0.82832 0.63758 0.73126 0.0
C208 C 0.84792 0.67591 0.53871 0.0
C209 C 0.82605 0.66532 0.75665 0.0
C210 C 0.8427 0.66562 0.25664 0.0
C211 C 0.83121 0.67532 0.03861 0.0
O212 O 0.87034 0.69463 0.22966 0.0
Zn213 Zn 0.87469 0.7071 0.14668 0.0
O214 O 0.81297 0.63754 0.2313 0.0
Zn215 Zn 0.80012 0.63303 0.14827 0.0
O216 O 0.83771 0.61222 0.13223 0.0
O217 O 0.89509 0.66925 0.13123 0.0
O218 O 0.80384 0.64599 0.06546 0.0
O219 O 0.86122 0.70304 0.06393 0.0
O220 O 0.83759 0.72816 0.16391 0.0
O221 O 0.78014 0.67118 0.16519 0.0
C222 C 0.87533 0.63158 0.12553 0.0
C223 C 0.80007 0.70883 0.17149 0.0
C224 C 0.37439 0.24546 0.12342 0.0
C225 C 0.29921 0.09318 0.17032 0.0
O226 O 0.39424 0.22776 0.13057 0.0
Zn227 Zn 0.37421 0.16982 0.1481 0.0
O228 O 0.33681 0.22734 0.13041 0.0
Zn229 Zn 0.29952 0.16911 0.1473 0.0
O230 O 0.31263 0.17781 0.23033 0.0
O231 O 0.37012 0.17833 0.23091 0.0
O232 O 0.27928 0.11088 0.16375 0.0
O233 O 0.33684 0.11156 0.16406 0.0
O234 O 0.36137 0.16044 0.06558 0.0
O235 O 0.30398 0.16013 0.06416 0.0
C236 C 0.3421 0.1797 0.25677 0.0
C237 C 0.33196 0.15828 0.03875 0.0
C238 C 0.84756 0.17425 0.03867 0.0
C239 C 0.8273 0.16447 0.25673 0.0
O240 O 0.8458 0.14472 0.06472 0.0
Zn241 Zn 0.83692 0.132 0.14753 0.0
O242 O 0.84609 0.20213 0.0649 0.0
Zn243 Zn 0.83768 0.20676 0.14781 0.0
O244 O 0.89584 0.22672 0.16449 0.0
O245 O 0.8951 0.16912 0.16406 0.0
O246 O 0.82887 0.19399 0.23087 0.0
O247 O 0.82875 0.13668 0.23027 0.0
O248 O 0.77887 0.11177 0.13082 0.0
O249 O 0.77949 0.16932 0.13069 0.0
C250 C 0.91342 0.20669 0.17115 0.0
C251 C 0.76126 0.13172 0.12372 0.0
C252 C 0.00383 0.49361 0.26074 0.0
C253 C 1.00103 0.49299 0.31149 0.0
C254 C 0.00781 0.49567 0.20139 0.0
C255 C 0.00943 0.49744 0.15054 0.0
C256 C 0.51357 0.51252 0.26084 0.0
C257 C 0.51403 0.51028 0.31159 0.0
C258 C 0.51172 0.51443 0.20147 0.0
C259 C 0.50993 0.51415 0.15063 0.0
C260 C 0.49278 0.99936 0.20146 0.0
C261 C 0.4929 0.99784 0.15062 0.0
C262 C 0.4948 0.00328 0.26081 0.0
C263 C 0.49695 0.00608 0.31155 0.0
C264 C 1.00317 0.51094 0.7013 0.0
C265 C 0.00597 0.51184 0.65056 0.0
C266 C 0.99932 0.50913 0.76062 0.0
C267 C 0.99781 0.50784 0.81146 0.0
C268 C 0.49193 0.49348 0.70138 0.0
C269 C 0.49227 0.49545 0.65056 0.0
C270 C 0.49384 0.49188 0.76077 0.0
C271 C 0.4962 0.49199 0.81154 0.0
C272 C 0.51161 0.0036 0.76076 0.0
C273 C 0.5126 0.0064 0.8115 0.0
C274 C 0.50991 0.99969 0.70145 0.0
C275 C 0.50877 0.99804 0.65061 0.0
C276 C 0.66932 0.8289 0.59405 0.0
C277 C 0.6668 0.82765 0.64481 0.0
C278 C 0.67306 0.83077 0.53473 0.0
C279 C 0.67483 0.83177 0.48391 0.0
C280 C 0.18236 0.84381 0.59395 0.0
C281 C 0.18211 0.842 0.64478 0.0
C282 C 0.18047 0.84577 0.5346 0.0
C283 C 0.17819 0.84626 0.48386 0.0
C284 C 0.16107 0.33287 0.53475 0.0
C285 C 0.16069 0.33131 0.4839 0.0
C286 C 0.16288 0.33659 0.59409 0.0
C287 C 0.16445 0.33929 0.64484 0.0
C288 C 0.66835 0.84182 0.09399 0.0
C289 C 0.66596 0.84056 0.14477 0.0
C290 C 0.67225 0.84388 0.03467 0.0
C291 C 0.67437 0.84499 -0.01614 0.0
C292 C 0.15851 0.82693 0.03465 0.0
C293 C 0.15888 0.82906 -0.01617 0.0
C294 C 0.16026 0.82503 0.09406 0.0
C295 C 0.16254 0.82508 0.14485 0.0
C296 C 0.18065 0.33663 0.03461 0.0
C297 C 0.17826 0.33398 -0.01614 0.0
C298 C 0.18265 0.34055 0.09397 0.0
C299 C 0.18228 0.34217 0.1448 0.0
C300 C 0.33543 0.1581 0.92744 0.0
C301 C 0.33288 0.15816 0.97819 0.0
C302 C 0.33962 0.16014 0.8681 0.0
C303 C 0.34161 0.16247 0.8173 0.0
C304 C 0.84389 0.17673 0.86797 0.0
C305 C 0.84269 0.17803 0.81719 0.0
C306 C 0.8457 0.17485 0.92731 0.0
C307 C 0.84655 0.17391 0.97814 0.0
C308 C 0.82776 0.67278 0.92727 0.0
C309 C 0.83011 0.67473 0.97806 0.0
C310 C 0.82577 0.66868 0.86795 0.0
C311 C 0.82588 0.66621 0.8172 0.0
C312 C 0.33928 0.17752 0.36811 0.0
C313 C 0.34122 0.17853 0.31729 0.0
C314 C 0.33548 0.17553 0.42745 0.0
C315 C 0.333 0.1743 0.47823 0.0
C316 C 0.83002 0.1634 0.368 0.0
C317 C 0.82877 0.1647 0.31723 0.0
C318 C 0.83183 0.16132 0.42733 0.0
C319 C 0.83279 0.16028 0.47815 0.0
C320 C 0.84655 0.67363 0.42729 0.0
C321 C 0.84718 0.67526 0.47815 0.0
C322 C 0.84453 0.6699 0.36793 0.0
C323 C 0.84296 0.66721 0.31716 0.0
C324 C 0.07717 0.42763 0.91479 0.0
C325 C 0.06047 0.44405 0.93482 0.0
C326 C 0.09641 0.40957 0.88689 0.0
C327 C 0.11315 0.39387 0.86476 0.0
C328 C 0.59598 0.68908 0.8871 0.0
C329 C 0.61197 0.7215 0.86486 0.0
C330 C 0.57788 0.65178 0.91504 0.0
C331 C 0.5618 0.61864 0.93501 0.0
C332 C 0.31768 0.90928 0.88719 0.0
C333 C 0.28522 0.89288 0.86506 0.0
C334 C 0.355 0.92844 0.91508 0.0
C335 C 0.38814 0.94542 0.93508 0.0
C336 C 0.43078 0.07889 0.54835 0.0
C337 C 0.44685 0.06197 0.52789 0.0
C338 C 0.41213 0.09752 0.57636 0.0
C339 C 0.39531 0.11327 0.59813 0.0
C340 C 0.91082 0.31653 0.57498 0.0
C341 C 0.89441 0.2841 0.59718 0.0
C342 C 0.92971 0.35384 0.54704 0.0
C343 C 0.94631 0.38696 0.527 0.0
C344 C 0.68994 0.59457 0.57619 0.0
C345 C 0.72249 0.6115 0.59797 0.0
C346 C 0.65265 0.57588 0.54823 0.0
C347 C 0.61964 0.55991 0.52785 0.0
C348 C 0.91159 0.59524 0.0818 0.0
C349 C 0.89479 0.61159 0.10177 0.0
C350 C 0.93059 0.57694 0.05388 0.0
C351 C 0.94693 0.56084 0.03173 0.0
C352 C 0.41006 0.31649 0.07483 0.0
C353 C 0.39355 0.28406 0.09702 0.0
C354 C 0.42929 0.35379 0.04692 0.0
C355 C 0.44626 0.38694 0.02698 0.0
C356 C 0.69014 0.09698 0.07538 0.0
C357 C 0.72261 0.11272 0.09745 0.0
C358 C 0.65284 0.07877 0.04746 0.0
C359 C 0.61975 0.0623 0.02732 0.0
C360 C 0.57787 0.93025 0.40838 0.0
C361 C 0.56187 0.9467 0.43053 0.0
C362 C 0.59603 0.91112 0.3804 0.0
C363 C 0.6122 0.89417 0.3603 0.0
C364 C 0.07874 0.65033 0.40996 0.0
C365 C 0.06178 0.61771 0.43159 0.0
C366 C 0.09789 0.68765 0.3821 0.0
C367 C 0.11431 0.72062 0.36157 0.0
C368 C 0.31961 0.41157 0.38035 0.0
C369 C 0.28646 0.3952 0.3604 0.0
C370 C 0.35695 0.42974 0.4082 0.0
C371 C 0.38941 0.44555 0.43033 0.0
C372 C 0.76485 0.74494 0.21935 0.0
C373 C 0.78116 0.72868 0.19749 0.0
C374 C 0.74568 0.76307 0.24734 0.0
C375 C 0.72856 0.77897 0.26775 0.0
C376 C 0.26406 0.02088 0.21497 0.0
C377 C 0.28001 0.05388 0.19459 0.0
C378 C 0.24537 0.98355 0.24283 0.0
C379 C 0.22859 0.95098 0.26456 0.0
C380 C 0.02205 0.26089 0.24683 0.0
C381 C 0.05503 0.278 0.26732 0.0
C382 C 0.98478 0.2418 0.21881 0.0
C383 C 0.9522 0.22557 0.19705 0.0
C384 C 0.26195 0.24204 0.71969 0.0
C385 C 0.2786 0.22617 0.6978 0.0
C386 C 0.24336 0.26076 0.7476 0.0
C387 C 0.2273 0.27775 0.76788 0.0
C388 C 0.76478 0.02204 0.71912 0.0
C389 C 0.78056 0.05461 0.69734 0.0
C390 C 0.74613 0.98473 0.74703 0.0
C391 C 0.72909 0.95174 0.7675 0.0
C392 C 0.02211 0.76385 0.74676 0.0
C393 C 0.0551 0.77976 0.76718 0.0
C394 C 0.98478 0.74521 0.71893 0.0
C395 C 0.95217 0.72837 0.69733 0.0
loop_
_geom_bond_atom_site_label_1
_geom_bond_atom_site_label_2
_geom_bond_distance
_geom_bond_site_symmetry_2
_ccdc_geom_bond_type
C0 O2 1.247 1_655 S
C0 O4 1.258 . S
C1 O8 1.247 1_455 S
C1 O9 1.258 . S
O2 C0 1.247 1_455 S
O2 Zn3 2.027 1_556 S
Zn3 O2 2.027 1_554 S
Zn3 O7 2.025 1_455 S
Zn3 O9 2.037 . S
Zn3 O10 2.028 1_554 S
O4 C0 1.258 . S
O4 Zn5 2.017 1_556 S
Zn5 O4 2.017 1_554 S
Zn5 O6 2.031 . S
Zn5 O8 2.046 . S
Zn5 O11 2.014 1_654 S
O6 Zn5 2.031 . S
O6 C12 1.247 . S
O7 Zn3 2.025 1_655 S
O7 C12 1.268 . S
O8 C1 1.247 1_655 S
O8 Zn5 2.046 . S
O9 C1 1.258 . S
O9 Zn3 2.037 . S
O10 Zn3 2.028 1_556 S
O10 C13 1.247 . S
O11 Zn5 2.014 1_456 S
O11 C13 1.274 . S
C12 O6 1.247 . S
C12 O7 1.268 . S
C13 O10 1.247 . S
C13 O11 1.274 . S
C14 O16 1.247 . S
C14 O18 1.258 . S
C15 O22 1.247 . S
C15 O23 1.258 . S
O16 C14 1.247 . S
O16 Zn17 2.045 . S
Zn17 O16 2.045 . S
Zn17 O21 2.032 1_554 S
Zn17 O23 2.018 1_554 S
Zn17 O24 2.031 . S
O18 C14 1.258 . S
O18 Zn19 2.036 . S
Zn19 O18 2.036 . S
Zn19 O20 2.028 1_554 S
Zn19 O22 2.027 1_554 S
Zn19 O25 2.035 . S
O20 Zn19 2.028 1_556 S
O20 C26 1.247 . S
O21 Zn17 2.032 1_556 S
O21 C26 1.258 . S
O22 C15 1.247 . S
O22 Zn19 2.027 1_556 S
O23 C15 1.258 . S
O23 Zn17 2.018 1_556 S
O24 Zn17 2.031 . S
O24 C27 1.247 . S
O25 Zn19 2.035 . S
O25 C27 1.258 . S
C26 O20 1.247 . S
C26 O21 1.258 . S
C27 O24 1.247 . S
C27 O25 1.258 . S
C28 O30 1.247 . S
C28 O32 1.258 1_565 S
C29 O36 1.247 . S
C29 O37 1.258 1_545 S
O30 C28 1.247 . S
O30 Zn31 2.045 . S
Zn31 O30 2.045 . S
Zn31 O35 2.032 1_554 S
Zn31 O37 2.018 1_554 S
Zn31 O38 2.031 1_565 S
O32 C28 1.258 1_545 S
O32 Zn33 2.035 . S
Zn33 O32 2.035 . S
Zn33 O34 2.030 1_554 S
Zn33 O36 2.028 1_554 S
Zn33 O39 2.035 . S
O34 Zn33 2.030 1_556 S
O34 C40 1.234 1_545 S
O35 Zn31 2.032 1_556 S
O35 C40 1.258 . S
O36 C29 1.247 . S
O36 Zn33 2.028 1_556 S
O37 C29 1.258 1_565 S
O37 Zn31 2.018 1_556 S
O38 Zn31 2.031 1_545 S
O38 C41 1.247 . S
O39 Zn33 2.035 . S
O39 C41 1.258 . S
C40 O34 1.234 1_565 S
C40 O35 1.258 . S
C41 O38 1.247 . S
C41 O39 1.258 . S
C42 O44 1.247 1_565 S
C42 O46 1.258 . S
C43 O50 1.247 1_545 S
C43 O51 1.258 . S
O44 C42 1.247 1_545 S
O44 Zn45 2.028 . S
Zn45 O44 2.028 . S
Zn45 O49 2.052 . S
Zn45 O51 2.035 . S
Zn45 O52 2.028 . S
O46 C42 1.258 . S
O46 Zn47 2.035 . S
Zn47 O46 2.035 . S
Zn47 O48 2.028 . S
Zn47 O50 2.028 . S
Zn47 O53 2.035 1_565 S
O48 Zn47 2.028 . S
O48 C54 1.247 . S
O49 Zn45 2.052 . S
O49 C54 1.244 1_545 S
O50 C43 1.247 1_565 S
O50 Zn47 2.028 . S
O51 C43 1.258 . S
O51 Zn45 2.035 . S
O52 Zn45 2.028 . S
O52 C55 1.247 . S
O53 Zn47 2.035 1_545 S
O53 C55 1.258 . S
C54 O48 1.247 . S
C54 O49 1.244 1_565 S
C55 O52 1.247 . S
C55 O53 1.258 . S
C56 O58 1.247 1_455 S
C56 O60 1.258 . S
C57 O64 1.247 1_655 S
C57 O65 1.258 . S
O58 C56 1.247 1_655 S
O58 Zn59 2.028 . S
Zn59 O58 2.028 . S
Zn59 O63 2.032 1_655 S
Zn59 O65 2.035 . S
Zn59 O66 2.028 . S
O60 C56 1.258 . S
O60 Zn61 2.035 . S
Zn61 O60 2.035 . S
Zn61 O62 2.028 . S
Zn61 O64 2.028 . S
Zn61 O67 2.033 1_455 S
O62 Zn61 2.028 . S
O62 C68 1.247 . S
O63 Zn59 2.032 1_455 S
O63 C68 1.275 . S
O64 C57 1.247 1_455 S
O64 Zn61 2.028 . S
O65 C57 1.258 . S
O65 Zn59 2.035 . S
O66 Zn59 2.028 . S
O66 C69 1.247 . S
O67 Zn61 2.033 1_655 S
O67 C69 1.268 . S
C68 O62 1.247 . S
C68 O63 1.275 . S
C69 O66 1.247 . S
C69 O67 1.268 . S
C70 O72 1.247 . S
C70 O74 1.258 . S
C71 O78 1.247 . S
C71 O79 1.258 . S
O72 C70 1.247 . S
O72 Zn73 2.028 . S
Zn73 O72 2.028 . S
Zn73 O77 2.035 . S
Zn73 O79 2.035 . S
Zn73 O80 2.028 . S
O74 C70 1.258 . S
O74 Zn75 2.035 . S
Zn75 O74 2.035 . S
Zn75 O76 2.028 . S
Zn75 O78 2.028 . S
Zn75 O81 2.035 . S
O76 Zn75 2.028 . S
O76 C82 1.247 . S
O77 Zn73 2.035 . S
O77 C82 1.258 . S
O78 C71 1.247 . S
O78 Zn75 2.028 . S
O79 C71 1.258 . S
O79 Zn73 2.035 . S
O80 Zn73 2.028 . S
O80 C83 1.247 . S
O81 Zn75 2.035 . S
O81 C83 1.258 . S
C82 O76 1.247 . S
C82 O77 1.258 . S
C83 O80 1.247 . S
C83 O81 1.258 . S
C84 O86 1.247 . S
C84 O88 1.258 . S
C85 O92 1.247 . S
C85 O93 1.258 . S
O86 C84 1.247 . S
O86 Zn87 2.028 . S
Zn87 O86 2.028 . S
Zn87 O91 2.035 . S
Zn87 O93 2.035 . S
Zn87 O94 2.028 . S
O88 C84 1.258 . S
O88 Zn89 2.035 . S
Zn89 O88 2.035 . S
Zn89 O90 2.028 . S
Zn89 O92 2.028 . S
Zn89 O95 2.035 . S
O90 Zn89 2.028 . S
O90 C96 1.247 . S
O91 Zn87 2.035 . S
O91 C96 1.258 . S
O92 C85 1.247 . S
O92 Zn89 2.028 . S
O93 C85 1.258 . S
O93 Zn87 2.035 . S
O94 Zn87 2.028 . S
O94 C97 1.247 . S
O95 Zn89 2.035 . S
O95 C97 1.258 . S
C96 O90 1.247 . S
C96 O91 1.258 . S
C97 O94 1.247 . S
C97 O95 1.258 . S
C98 O100 1.247 . S
C98 O102 1.258 . S
C99 O106 1.247 . S
C99 O107 1.258 . S
O100 C98 1.247 . S
O100 Zn101 2.028 . S
Zn101 O100 2.028 . S
Zn101 O105 2.035 . S
Zn101 O107 2.035 . S
Zn101 O108 2.028 . S
O102 C98 1.258 . S
O102 Zn103 2.035 . S
Zn103 O102 2.035 . S
Zn103 O104 2.028 . S
Zn103 O106 2.028 . S
Zn103 O109 2.035 . S
O104 Zn103 2.028 . S
O104 C110 1.247 . S
O105 Zn101 2.035 . S
O105 C110 1.258 . S
O106 C99 1.247 . S
O106 Zn103 2.028 . S
O107 C99 1.258 . S
O107 Zn101 2.035 . S
O108 Zn101 2.028 . S
O108 C111 1.247 . S
O109 Zn103 2.035 . S
O109 C111 1.258 . S
C110 O104 1.247 . S
C110 O105 1.258 . S
C111 O108 1.247 . S
C111 O109 1.258 . S
C112 O114 1.247 . S
C112 O116 1.258 . S
C113 O120 1.247 . S
C113 O121 1.258 . S
O114 C112 1.247 . S
O114 Zn115 2.028 . S
Zn115 O114 2.028 . S
Zn115 O119 2.035 . S
Zn115 O121 2.035 . S
Zn115 O122 2.028 . S
O116 C112 1.258 . S
O116 Zn117 2.035 . S
Zn117 O116 2.035 . S
Zn117 O118 2.028 . S
Zn117 O120 2.028 . S
Zn117 O123 2.035 . S
O118 Zn117 2.028 . S
O118 C124 1.247 . S
O119 Zn115 2.035 . S
O119 C124 1.258 . S
O120 C113 1.247 . S
O120 Zn117 2.028 . S
O121 C113 1.258 . S
O121 Zn115 2.035 . S
O122 Zn115 2.028 . S
O122 C125 1.247 . S
O123 Zn117 2.035 . S
O123 C125 1.258 . S
C124 O118 1.247 . S
C124 O119 1.258 . S
C125 O122 1.247 . S
C125 O123 1.258 . S
C126 O128 1.247 . S
C126 O130 1.258 . S
C127 O134 1.247 . S
C127 O135 1.258 . S
O128 C126 1.247 . S
O128 Zn129 2.028 . S
Zn129 O128 2.028 . S
Zn129 O133 2.035 . S
Zn129 O135 2.035 . S
Zn129 O136 2.028 . S
O130 C126 1.258 . S
O130 Zn131 2.035 . S
Zn131 O130 2.035 . S
Zn131 O132 2.028 . S
Zn131 O134 2.028 . S
Zn131 O137 2.035 . S
O132 Zn131 2.028 . S
O132 C138 1.247 . S
O133 Zn129 2.035 . S
O133 C138 1.258 . S
O134 C127 1.247 . S
O134 Zn131 2.028 . S
O135 C127 1.258 . S
O135 Zn129 2.035 . S
O136 Zn129 2.028 . S
O136 C139 1.247 . S
O137 Zn131 2.035 . S
O137 C139 1.258 . S
C138 O132 1.247 . S
C138 O133 1.258 . S
C139 O136 1.247 . S
C139 O137 1.258 . S
C140 O142 1.247 . S
C140 O144 1.258 . S
C141 O148 1.247 . S
C141 O149 1.258 . S
O142 C140 1.247 . S
O142 Zn143 2.028 . S
Zn143 O142 2.028 . S
Zn143 O147 2.035 . S
Zn143 O149 2.035 . S
Zn143 O150 2.028 . S
O144 C140 1.258 . S
O144 Zn145 2.035 . S
Zn145 O144 2.035 . S
Zn145 O146 2.028 . S
Zn145 O148 2.028 . S
Zn145 O151 2.035 . S
O146 Zn145 2.028 . S
O146 C152 1.247 . S
O147 Zn143 2.035 . S
O147 C152 1.258 . S
O148 C141 1.247 . S
O148 Zn145 2.028 . S
O149 C141 1.258 . S
O149 Zn143 2.035 . S
O150 Zn143 2.028 . S
O150 C153 1.247 . S
O151 Zn145 2.035 . S
O151 C153 1.258 . S
C152 O146 1.247 . S
C152 O147 1.258 . S
C153 O150 1.247 . S
C153 O151 1.258 . S
C154 O156 1.247 . S
C154 O158 1.258 . S
C155 O162 1.247 . S
C155 O163 1.258 . S
O156 C154 1.247 . S
O156 Zn157 2.028 . S
Zn157 O156 2.028 . S
Zn157 O161 2.035 . S
Zn157 O163 2.035 . S
Zn157 O164 2.028 . S
O158 C154 1.258 . S
O158 Zn159 2.035 . S
Zn159 O158 2.035 . S
Zn159 O160 2.028 . S
Zn159 O162 2.028 . S
Zn159 O165 2.035 . S
O160 Zn159 2.028 . S
O160 C166 1.247 . S
O161 Zn157 2.035 . S
O161 C166 1.258 . S
O162 C155 1.247 . S
O162 Zn159 2.028 . S
O163 C155 1.258 . S
O163 Zn157 2.035 . S
O164 Zn157 2.028 . S
O164 C167 1.247 . S
O165 Zn159 2.035 . S
O165 C167 1.258 . S
C166 O160 1.247 . S
C166 O161 1.258 . S
C167 O164 1.247 . S
C167 O165 1.258 . S
C168 O170 1.247 . S
C168 O172 1.258 . S
C169 O176 1.247 . S
C169 O177 1.258 . S
O170 C168 1.247 . S
O170 Zn171 2.028 . S
Zn171 O170 2.028 . S
Zn171 O175 2.035 . S
Zn171 O177 2.035 . S
Zn171 O178 2.028 . S
O172 C168 1.258 . S
O172 Zn173 2.035 . S
Zn173 O172 2.035 . S
Zn173 O174 2.028 . S
Zn173 O176 2.028 . S
Zn173 O179 2.035 . S
O174 Zn173 2.028 . S
O174 C180 1.247 . S
O175 Zn171 2.035 . S
O175 C180 1.258 . S
O176 C169 1.247 . S
O176 Zn173 2.028 . S
O177 C169 1.258 . S
O177 Zn171 2.035 . S
O178 Zn171 2.028 . S
O178 C181 1.247 . S
O179 Zn173 2.035 . S
O179 C181 1.258 . S
C180 O174 1.247 . S
C180 O175 1.258 . S
C181 O178 1.247 . S
C181 O179 1.258 . S
C182 O184 1.247 . S
C182 O186 1.258 . S
C183 O190 1.247 . S
C183 O191 1.258 . S
O184 C182 1.247 . S
O184 Zn185 2.028 . S
Zn185 O184 2.028 . S
Zn185 O189 2.035 . S
Zn185 O191 2.035 . S
Zn185 O192 2.028 . S
O186 C182 1.258 . S
O186 Zn187 2.035 . S
Zn187 O186 2.035 . S
Zn187 O188 2.028 . S
Zn187 O190 2.028 . S
Zn187 O193 2.035 . S
O188 Zn187 2.028 . S
O188 C194 1.247 . S
O189 Zn185 2.035 . S
O189 C194 1.258 . S
O190 C183 1.247 . S
O190 Zn187 2.028 . S
O191 C183 1.258 . S
O191 Zn185 2.035 . S
O192 Zn185 2.028 . S
O192 C195 1.247 . S
O193 Zn187 2.035 . S
O193 C195 1.258 . S
C194 O188 1.247 . S
C194 O189 1.258 . S
C195 O192 1.247 . S
C195 O193 1.258 . S
C196 O198 1.247 . S
C196 O200 1.258 . S
C197 O204 1.247 . S
C197 O205 1.258 . S
O198 C196 1.247 . S
O198 Zn199 2.028 . S
Zn199 O198 2.028 . S
Zn199 O203 2.035 . S
Zn199 O205 2.035 . S
Zn199 O206 2.028 . S
O200 C196 1.258 . S
O200 Zn201 2.035 . S
Zn201 O200 2.035 . S
Zn201 O202 2.028 . S
Zn201 O204 2.028 . S
Zn201 O207 2.035 . S
O202 Zn201 2.028 . S
O202 C208 1.247 . S
O203 Zn199 2.035 . S
O203 C208 1.258 . S
O204 C197 1.247 . S
O204 Zn201 2.028 . S
O205 C197 1.258 . S
O205 Zn199 2.035 . S
O206 Zn199 2.028 . S
O206 C209 1.247 . S
O207 Zn201 2.035 . S
O207 C209 1.258 . S
C208 O202 1.247 . S
C208 O203 1.258 . S
C209 O206 1.247 . S
C209 O207 1.258 . S
C210 O212 1.247 . S
C210 O214 1.258 . S
C211 O218 1.247 . S
C211 O219 1.258 . S
O212 C210 1.247 . S
O212 Zn213 2.028 . S
Zn213 O212 2.028 . S
Zn213 O217 2.035 . S
Zn213 O219 2.035 . S
Zn213 O220 2.028 . S
O214 C210 1.258 . S
O214 Zn215 2.035 . S
Zn215 O214 2.035 . S
Zn215 O216 2.028 . S
Zn215 O218 2.028 . S
Zn215 O221 2.035 . S
O216 Zn215 2.028 . S
O216 C222 1.247 . S
O217 Zn213 2.035 . S
O217 C222 1.258 . S
O218 C211 1.247 . S
O218 Zn215 2.028 . S
O219 C211 1.258 . S
O219 Zn213 2.035 . S
O220 Zn213 2.028 . S
O220 C223 1.247 . S
O221 Zn215 2.035 . S
O221 C223 1.258 . S
C222 O216 1.247 . S
C222 O217 1.258 . S
C223 O220 1.247 . S
C223 O221 1.258 . S
C224 O226 1.247 . S
C224 O228 1.258 . S
C225 O232 1.247 . S
C225 O233 1.258 . S
O226 C224 1.247 . S
O226 Zn227 2.028 . S
Zn227 O226 2.028 . S
Zn227 O231 2.035 . S
Zn227 O233 2.035 . S
Zn227 O234 2.028 . S
O228 C224 1.258 . S
O228 Zn229 2.035 . S
Zn229 O228 2.035 . S
Zn229 O230 2.028 . S
Zn229 O232 2.028 . S
Zn229 O235 2.035 . S
O230 Zn229 2.028 . S
O230 C236 1.247 . S
O231 Zn227 2.035 . S
O231 C236 1.258 . S
O232 C225 1.247 . S
O232 Zn229 2.028 . S
O233 C225 1.258 . S
O233 Zn227 2.035 . S
O234 Zn227 2.028 . S
O234 C237 1.247 . S
O235 Zn229 2.035 . S
O235 C237 1.258 . S
C236 O230 1.247 . S
C236 O231 1.258 . S
C237 O234 1.247 . S
C237 O235 1.258 . S
C238 O240 1.247 . S
C238 O242 1.258 . S
C239 O246 1.247 . S
C239 O247 1.258 . S
O240 C238 1.247 . S
O240 Zn241 2.028 . S
Zn241 O240 2.028 . S
Zn241 O245 2.035 . S
Zn241 O247 2.035 . S
Zn241 O248 2.028 . S
O242 C238 1.258 . S
O242 Zn243 2.035 . S
Zn243 O242 2.035 . S
Zn243 O244 2.028 . S
Zn243 O246 2.028 . S
Zn243 O249 2.035 . S
O244 Zn243 2.028 . S
O244 C250 1.247 . S
O245 Zn241 2.035 . S
O245 C250 1.258 . S
O246 C239 1.247 . S
O246 Zn243 2.028 . S
O247 C239 1.258 . S
O247 Zn241 2.035 . S
O248 Zn241 2.028 . S
O248 C251 1.247 . S
O249 Zn243 2.035 . S
O249 C251 1.258 . S
C250 O244 1.247 . S
C250 O245 1.258 . S
C251 O248 1.247 . S
C251 O249 1.258 . S
C252 C253 1.170 1_455 S
C252 C254 1.380 . S
C253 C252 1.170 1_655 S
C254 C252 1.380 . S
C254 C255 1.170 . S
C255 C254 1.170 . S
C256 C257 1.170 . S
C256 C258 1.380 . S
C257 C256 1.170 . S
C258 C256 1.380 . S
C258 C259 1.170 . S
C259 C258 1.170 . S
C260 C261 1.170 . S
C260 C262 1.380 . S
C261 C260 1.170 . S
C262 C260 1.380 . S
C262 C263 1.170 1_565 S
C263 C262 1.170 1_545 S
C264 C265 1.170 1_655 S
C264 C266 1.380 . S
C265 C264 1.170 1_455 S
C266 C264 1.380 . S
C266 C267 1.170 . S
C267 C266 1.170 . S
C268 C269 1.170 . S
C268 C270 1.380 . S
C269 C268 1.170 . S
C270 C268 1.380 . S
C270 C271 1.170 . S
C271 C270 1.170 . S
C272 C273 1.168 1_565 S
C272 C274 1.382 . S
C273 C272 1.168 1_545 S
C274 C272 1.382 . S
C274 C275 1.170 . S
C275 C274 1.170 . S
C276 C277 1.170 . S
C276 C278 1.380 . S
C277 C276 1.170 . S
C278 C276 1.380 . S
C278 C279 1.170 . S
C279 C278 1.170 . S
C280 C281 1.170 . S
C280 C282 1.380 . S
C281 C280 1.170 . S
C282 C280 1.380 . S
C282 C283 1.170 . S
C283 C282 1.170 . S
C284 C285 1.170 . S
C284 C286 1.380 . S
C285 C284 1.170 . S
C286 C284 1.380 . S
C286 C287 1.170 . S
C287 C286 1.170 . S
C288 C289 1.170 . S
C288 C290 1.380 . S
C289 C288 1.170 . S
C290 C288 1.380 . S
C290 C291 1.170 . S
C291 C290 1.170 . S
C292 C293 1.170 . S
C292 C294 1.380 . S
C293 C292 1.170 . S
C294 C292 1.380 . S
C294 C295 1.170 . S
C295 C294 1.170 . S
C296 C297 1.170 . S
C296 C298 1.380 . S
C297 C296 1.170 . S
C298 C296 1.380 . S
C298 C299 1.170 . S
C299 C298 1.170 . S
C300 C301 1.170 . S
C300 C302 1.380 . S
C301 C300 1.170 . S
C302 C300 1.380 . S
C302 C303 1.170 . S
C303 C302 1.170 . S
C304 C305 1.170 . S
C304 C306 1.380 . S
C305 C304 1.170 . S
C306 C304 1.380 . S
C306 C307 1.170 . S
C307 C306 1.170 . S
C308 C309 1.170 . S
C308 C310 1.380 . S
C309 C308 1.170 . S
C310 C308 1.380 . S
C310 C311 1.170 . S
C311 C310 1.170 . S
C312 C313 1.170 . S
C312 C314 1.380 . S
C313 C312 1.170 . S
C314 C312 1.380 . S
C314 C315 1.170 . S
C315 C314 1.170 . S
C316 C317 1.170 . S
C316 C318 1.380 . S
C317 C316 1.170 . S
C318 C316 1.380 . S
C318 C319 1.170 . S
C319 C318 1.170 . S
C320 C321 1.170 . S
C320 C322 1.380 . S
C321 C320 1.170 . S
C322 C320 1.380 . S
C322 C323 1.170 . S
C323 C322 1.170 . S
C324 C325 1.170 . S
C324 C326 1.380 . S
C325 C324 1.170 . S
C326 C324 1.380 . S
C326 C327 1.170 . S
C327 C326 1.170 . S
C328 C329 1.170 . S
C328 C330 1.380 . S
C329 C328 1.170 . S
C330 C328 1.380 . S
C330 C331 1.170 . S
C331 C330 1.170 . S
C332 C333 1.170 . S
C332 C334 1.380 . S
C333 C332 1.170 . S
C334 C332 1.380 . S
C334 C335 1.170 . S
C335 C334 1.170 . S
C336 C337 1.170 . S
C336 C338 1.380 . S
C337 C336 1.170 . S
C338 C336 1.380 . S
C338 C339 1.170 . S
C339 C338 1.170 . S
C340 C341 1.170 . S
C340 C342 1.380 . S
C341 C340 1.170 . S
C342 C340 1.380 . S
C342 C343 1.170 . S
C343 C342 1.170 . S
C344 C345 1.170 . S
C344 C346 1.380 . S
C345 C344 1.170 . S
C346 C344 1.380 . S
C346 C347 1.170 . S
C347 C346 1.170 . S
C348 C349 1.170 . S
C348 C350 1.380 . S
C349 C348 1.170 . S
C350 C348 1.380 . S
C350 C351 1.170 . S
C351 C350 1.170 . S
C352 C353 1.170 . S
C352 C354 1.380 . S
C353 C352 1.170 . S
C354 C352 1.380 . S
C354 C355 1.170 . S
C355 C354 1.170 . S
C356 C357 1.170 . S
C356 C358 1.380 . S
C357 C356 1.170 . S
C358 C356 1.380 . S
C358 C359 1.170 . S
C359 C358 1.170 . S
C360 C361 1.170 . S
C360 C362 1.380 . S
C361 C360 1.170 . S
C362 C360 1.380 . S
C362 C363 1.170 . S
C363 C362 1.170 . S
C364 C365 1.170 . S
C364 C366 1.380 . S
C365 C364 1.170 . S
C366 C364 1.380 . S
C366 C367 1.170 . S
C367 C366 1.170 . S
C368 C369 1.170 . S
C368 C370 1.380 . S
C369 C368 1.170 . S
C370 C368 1.380 . S
C370 C371 1.170 . S
C371 C370 1.170 . S
C372 C373 1.170 . S
C372 C374 1.380 . S
C373 C372 1.170 . S
C374 C372 1.380 . S
C374 C375 1.170 . S
C375 C374 1.170 . S
C376 C377 1.170 . S
C376 C378 1.380 1_545 S
C377 C376 1.170 . S
C378 C376 1.380 1_565 S
C378 C379 1.170 . S
C379 C378 1.170 . S
C380 C381 1.170 . S
C380 C382 1.380 1_455 S
C381 C380 1.170 . S
C382 C380 1.380 1_655 S
C382 C383 1.170 . S
C383 C382 1.170 . S
C384 C385 1.170 . S
C384 C386 1.380 . S
C385 C384 1.170 . S
C386 C384 1.380 . S
C386 C387 1.170 . S
C387 C386 1.170 . S
C388 C389 1.170 . S
C388 C390 1.380 1_545 S
C389 C388 1.170 . S
C390 C388 1.380 1_565 S
C390 C391 1.170 . S
C391 C390 1.170 . S
C392 C393 1.170 . S
C392 C394 1.380 1_455 S
C393 C392 1.170 . S
C394 C392 1.380 1_655 S
C394 C395 1.170 . S
C395 C394 1.170 . S
C253 C57 1.282 . S
C255 C1 1.288 . S
C257 C70 1.283 . S
C259 C14 1.287 . S
C261 C28 1.287 . S
C263 C43 1.281 . S
C265 C56 1.281 . S
C267 C0 1.288 . S
C269 C71 1.285 . S
C271 C15 1.283 . S
C273 C29 1.282 . S
C275 C42 1.288 . S
C277 C153 1.282 . S
C279 C84 1.285 . S
C281 C155 1.288 . S
C283 C110 1.283 . S
C285 C112 1.286 . S
C287 C139 1.281 . S
C289 C85 1.285 . S
C291 C152 1.286 1_554 S
C293 C154 1.285 1_554 S
C295 C111 1.283 . S
C297 C138 1.281 1_554 S
C299 C113 1.286 . S
C301 C237 1.284 1_556 S
C303 C168 1.287 . S
C305 C182 1.282 . S
C307 C238 1.285 1_556 S
C309 C211 1.286 1_556 S
C311 C209 1.284 . S
C313 C236 1.286 . S
C315 C169 1.284 . S
C317 C239 1.284 . S
C319 C183 1.286 . S
C321 C208 1.287 . S
C323 C210 1.282 . S
C325 C13 1.533 . S
C327 C127 1.522 . S
C329 C141 1.526 . S
C331 C26 1.534 . S
C333 C167 1.525 . S
C335 C40 1.534 . S
C337 C55 1.533 . S
C339 C180 1.528 . S
C341 C194 1.525 . S
C343 C69 1.534 . S
C345 C197 1.528 . S
C347 C82 1.534 . S
C349 C222 1.534 . S
C351 C12 1.529 . S
C353 C224 1.525 . S
C355 C27 1.534 . S
C357 C251 1.525 . S
C359 C41 1.533 . S
C361 C54 1.526 . S
C363 C97 1.534 . S
C365 C68 1.526 . S
C367 C99 1.531 . S
C369 C125 1.534 . S
C371 C83 1.525 . S
C373 C223 1.528 . S
C375 C96 1.534 . S
C377 C225 1.531 . S
C379 C98 1.525 . S
C381 C124 1.533 . S
C383 C250 1.529 . S
C385 C181 1.525 . S
C387 C126 1.531 . S
C389 C195 1.526 . S
C391 C140 1.531 . S
C393 C166 1.530 . S
C395 C196 1.526 . S
