# Generated by pormake.
# Topology dei, (4)-cn, num edge types: 1
# Building blocks:
#     Node 0, Type 0, BuildingBlock: AZAVOO_clean_sbu_0, # of connection points: 4
#     Node 1, Type 0, BuildingBlock: AZAVOO_clean_sbu_0, # of connection points: 4
#     Node 2, Type 0, BuildingBlock: AZAVOO_clean_sbu_0, # of connection points: 4
#     Node 3, Type 0, BuildingBlock: AZAVOO_clean_sbu_0, # of connection points: 4
#     Node 4, Type 0, BuildingBlock: AZAVOO_clean_sbu_0, # of connection points: 4
#     Node 5, Type 0, BuildingBlock: AZAVOO_clean_sbu_0, # of connection points: 4
#     Node 6, Type 0, BuildingBlock: AZAVOO_clean_sbu_0, # of connection points: 4
#     Node 7, Type 0, BuildingBlock: AZAVOO_clean_sbu_0, # of connection points: 4
#     Node 8, Type 0, BuildingBlock: AZAVOO_clean_sbu_0, # of connection points: 4
#     Node 9, Type 0, BuildingBlock: AZAVOO_clean_sbu_0, # of connection points: 4
#     Node 10, Type 0, BuildingBlock: AZAVOO_clean_sbu_0, # of connection points: 4
#     Node 11, Type 0, BuildingBlock: AZAVOO_clean_sbu_0, # of connection points: 4
#     Node 12, Type 0, BuildingBlock: AZAVOO_clean_sbu_0, # of connection points: 4
#     Node 13, Type 0, BuildingBlock: AZAVOO_clean_sbu_0, # of connection points: 4
#     Node 14, Type 0, BuildingBlock: AZAVOO_clean_sbu_0, # of connection points: 4
#     Node 15, Type 0, BuildingBlock: AZAVOO_clean_sbu_0, # of connection points: 4
#     Node 16, Type 0, BuildingBlock: AZAVOO_clean_sbu_0, # of connection points: 4
#     Node 17, Type 0, BuildingBlock: AZAVOO_clean_sbu_0, # of connection points: 4
#     Node 18, Type 0, BuildingBlock: AZAVOO_clean_sbu_0, # of connection points: 4
#     Node 19, Type 0, BuildingBlock: AZAVOO_clean_sbu_0, # of connection points: 4
#     Node 20, Type 0, BuildingBlock: AZAVOO_clean_sbu_0, # of connection points: 4
#     Node 21, Type 0, BuildingBlock: AZAVOO_clean_sbu_0, # of connection points: 4
#     Node 22, Type 0, BuildingBlock: AZAVOO_clean_sbu_0, # of connection points: 4
#     Node 23, Type 0, BuildingBlock: AZAVOO_clean_sbu_0, # of connection points: 4
#     Node 24, Type 0, BuildingBlock: AZAVOO_clean_sbu_0, # of connection points: 4
#     Node 25, Type 0, BuildingBlock: AZAVOO_clean_sbu_0, # of connection points: 4
#     Node 26, Type 0, BuildingBlock: AZAVOO_clean_sbu_0, # of connection points: 4
#     Node 27, Type 0, BuildingBlock: AZAVOO_clean_sbu_0, # of connection points: 4
#     Node 28, Type 0, BuildingBlock: AZAVOO_clean_sbu_0, # of connection points: 4
#     Node 29, Type 0, BuildingBlock: AZAVOO_clean_sbu_0, # of connection points: 4
#     Node 30, Type 0, BuildingBlock: AZAVOO_clean_sbu_0, # of connection points: 4
#     Node 31, Type 0, BuildingBlock: AZAVOO_clean_sbu_0, # of connection points: 4
#     Edge 32, Type (0, 0), BuildingBlock: TEMPAE_clean_linker_10, # of connection points: 2
#     Edge 33, Type (0, 0), BuildingBlock: TEMPAE_clean_linker_10, # of connection points: 2
#     Edge 34, Type (0, 0), BuildingBlock: TEMPAE_clean_linker_10, # of connection points: 2
#     Edge 35, Type (0, 0), BuildingBlock: TEMPAE_clean_linker_10, # of connection points: 2
#     Edge 36, Type (0, 0), BuildingBlock: TEMPAE_clean_linker_10, # of connection points: 2
#     Edge 37, Type (0, 0), BuildingBlock: TEMPAE_clean_linker_10, # of connection points: 2
#     Edge 38, Type (0, 0), BuildingBlock: TEMPAE_clean_linker_10, # of connection points: 2
#     Edge 39, Type (0, 0), BuildingBlock: TEMPAE_clean_linker_10, # of connection points: 2
#     Edge 40, Type (0, 0), BuildingBlock: TEMPAE_clean_linker_10, # of connection points: 2
#     Edge 41, Type (0, 0), BuildingBlock: TEMPAE_clean_linker_10, # of connection points: 2
#     Edge 42, Type (0, 0), BuildingBlock: TEMPAE_clean_linker_10, # of connection points: 2
#     Edge 43, Type (0, 0), BuildingBlock: TEMPAE_clean_linker_10, # of connection points: 2
#     Edge 44, Type (0, 0), BuildingBlock: TEMPAE_clean_linker_10, # of connection points: 2
#     Edge 45, Type (0, 0), BuildingBlock: TEMPAE_clean_linker_10, # of connection points: 2
#     Edge 46, Type (0, 0), BuildingBlock: TEMPAE_clean_linker_10, # of connection points: 2
#     Edge 47, Type (0, 0), BuildingBlock: TEMPAE_clean_linker_10, # of connection points: 2
#     Edge 48, Type (0, 0), BuildingBlock: TEMPAE_clean_linker_10, # of connection points: 2
#     Edge 49, Type (0, 0), BuildingBlock: TEMPAE_clean_linker_10, # of connection points: 2
#     Edge 50, Type (0, 0), BuildingBlock: TEMPAE_clean_linker_10, # of connection points: 2
#     Edge 51, Type (0, 0), BuildingBlock: TEMPAE_clean_linker_10, # of connection points: 2
#     Edge 52, Type (0, 0), BuildingBlock: TEMPAE_clean_linker_10, # of connection points: 2
#     Edge 53, Type (0, 0), BuildingBlock: TEMPAE_clean_linker_10, # of connection points: 2
#     Edge 54, Type (0, 0), BuildingBlock: TEMPAE_clean_linker_10, # of connection points: 2
#     Edge 55, Type (0, 0), BuildingBlock: TEMPAE_clean_linker_10, # of connection points: 2
#     Edge 56, Type (0, 0), BuildingBlock: TEMPAE_clean_linker_10, # of connection points: 2
#     Edge 57, Type (0, 0), BuildingBlock: TEMPAE_clean_linker_10, # of connection points: 2
#     Edge 58, Type (0, 0), BuildingBlock: TEMPAE_clean_linker_10, # of connection points: 2
#     Edge 59, Type (0, 0), BuildingBlock: TEMPAE_clean_linker_10, # of connection points: 2
#     Edge 60, Type (0, 0), BuildingBlock: TEMPAE_clean_linker_10, # of connection points: 2
#     Edge 61, Type (0, 0), BuildingBlock: TEMPAE_clean_linker_10, # of connection points: 2
#     Edge 62, Type (0, 0), BuildingBlock: TEMPAE_clean_linker_10, # of connection points: 2
#     Edge 63, Type (0, 0), BuildingBlock: TEMPAE_clean_linker_10, # of connection points: 2
#     Edge 64, Type (0, 0), BuildingBlock: TEMPAE_clean_linker_10, # of connection points: 2
#     Edge 65, Type (0, 0), BuildingBlock: TEMPAE_clean_linker_10, # of connection points: 2
#     Edge 66, Type (0, 0), BuildingBlock: TEMPAE_clean_linker_10, # of connection points: 2
#     Edge 67, Type (0, 0), BuildingBlock: TEMPAE_clean_linker_10, # of connection points: 2
#     Edge 68, Type (0, 0), BuildingBlock: TEMPAE_clean_linker_10, # of connection points: 2
#     Edge 69, Type (0, 0), BuildingBlock: TEMPAE_clean_linker_10, # of connection points: 2
#     Edge 70, Type (0, 0), BuildingBlock: TEMPAE_clean_linker_10, # of connection points: 2
#     Edge 71, Type (0, 0), BuildingBlock: TEMPAE_clean_linker_10, # of connection points: 2
#     Edge 72, Type (0, 0), BuildingBlock: TEMPAE_clean_linker_10, # of connection points: 2
#     Edge 73, Type (0, 0), BuildingBlock: TEMPAE_clean_linker_10, # of connection points: 2
#     Edge 74, Type (0, 0), BuildingBlock: TEMPAE_clean_linker_10, # of connection points: 2
#     Edge 75, Type (0, 0), BuildingBlock: TEMPAE_clean_linker_10, # of connection points: 2
#     Edge 76, Type (0, 0), BuildingBlock: TEMPAE_clean_linker_10, # of connection points: 2
#     Edge 77, Type (0, 0), BuildingBlock: TEMPAE_clean_linker_10, # of connection points: 2
#     Edge 78, Type (0, 0), BuildingBlock: TEMPAE_clean_linker_10, # of connection points: 2
#     Edge 79, Type (0, 0), BuildingBlock: TEMPAE_clean_linker_10, # of connection points: 2
#     Edge 80, Type (0, 0), BuildingBlock: TEMPAE_clean_linker_10, # of connection points: 2
#     Edge 81, Type (0, 0), BuildingBlock: TEMPAE_clean_linker_10, # of connection points: 2
#     Edge 82, Type (0, 0), BuildingBlock: TEMPAE_clean_linker_10, # of connection points: 2
#     Edge 83, Type (0, 0), BuildingBlock: TEMPAE_clean_linker_10, # of connection points: 2
#     Edge 84, Type (0, 0), BuildingBlock: TEMPAE_clean_linker_10, # of connection points: 2
#     Edge 85, Type (0, 0), BuildingBlock: TEMPAE_clean_linker_10, # of connection points: 2
#     Edge 86, Type (0, 0), BuildingBlock: TEMPAE_clean_linker_10, # of connection points: 2
#     Edge 87, Type (0, 0), BuildingBlock: TEMPAE_clean_linker_10, # of connection points: 2
#     Edge 88, Type (0, 0), BuildingBlock: TEMPAE_clean_linker_10, # of connection points: 2
#     Edge 89, Type (0, 0), BuildingBlock: TEMPAE_clean_linker_10, # of connection points: 2
#     Edge 90, Type (0, 0), BuildingBlock: TEMPAE_clean_linker_10, # of connection points: 2
#     Edge 91, Type (0, 0), BuildingBlock: TEMPAE_clean_linker_10, # of connection points: 2
#     Edge 92, Type (0, 0), BuildingBlock: TEMPAE_clean_linker_10, # of connection points: 2
#     Edge 93, Type (0, 0), BuildingBlock: TEMPAE_clean_linker_10, # of connection points: 2
#     Edge 94, Type (0, 0), BuildingBlock: TEMPAE_clean_linker_10, # of connection points: 2
#     Edge 95, Type (0, 0), BuildingBlock: TEMPAE_clean_linker_10, # of connection points: 2
# Relax obj value: 0.222
# Max RMSD: 0.108
# Mean RMSD: 0.108
data_MOF--net-dei--node1-AZAVOO_clean_sbu_0--edge1-TEMPAE_clean_linker_10
_symmetry_space_group_name_H-M    P1
_symmetry_Int_Tables_number       1
_symmetry_cell_setting            triclinic
loop_
_symmetry_equiv_pos_as_xyz
'x, y, z'
_cell_length_a     51.076275
_cell_length_b     51.147955
_cell_length_c     104.10801
_cell_angle_alpha  90.130886
_cell_angle_beta   90.005321
_cell_angle_gamma 89.950567
loop_
_atom_site_label
_atom_site_type_symbol
_atom_site_fract_x
_atom_site_fract_y
_atom_site_fract_z
_atom_type_partial_charge
Mg0 Mg 0.15731 0.61395 0.03864 0.0
O1 O 0.11182 0.61066 0.03754 0.0
O2 O 0.09612 0.64282 0.04999 0.0
Mg3 Mg 0.12966 0.66303 0.06037 0.0
C4 C 0.09272 0.62379 0.04223 0.0
C5 C 0.16789 0.57693 0.01605 0.0
O6 O 0.1693 0.59991 0.01051 0.0
O7 O 0.15748 0.59298 0.05782 0.0
O8 O 0.13993 0.62412 0.07028 0.0
O9 O 0.15736 0.64452 0.02341 0.0
O10 O 0.15496 0.6533 0.0441 0.0
C11 C 0.14941 0.6012 0.06868 0.0
C12 C 0.155 0.66169 0.03246 0.0
O13 O 0.16239 0.57561 0.02793 0.0
Mg14 Mg 0.6382 0.90599 0.28723 0.0
O15 O 0.64119 0.86069 0.28645 0.0
O16 O 0.60656 0.84558 0.29741 0.0
Mg17 Mg 0.58216 0.87987 0.30476 0.0
C18 C 0.62741 0.84189 0.2909 0.0
C19 C 0.67832 0.93044 0.27168 0.0
O20 O 0.65758 0.94567 0.27177 0.0
O21 O 0.65232 0.90642 0.30801 0.0
O22 O 0.61646 0.89139 0.31797 0.0
O23 O 0.61394 0.90651 0.26944 0.0
O24 O 0.5981 0.90366 0.2892 0.0
C25 C 0.63986 0.9002 0.31818 0.0
C26 C 0.59408 0.90379 0.277 0.0
O27 O 0.67856 0.91059 0.27898 0.0
Mg28 Mg 0.33504 0.38427 0.53843 0.0
O29 O 0.38086 0.38527 0.53939 0.0
O30 O 0.39453 0.35292 0.55243 0.0
Mg31 Mg 0.35928 0.33201 0.56084 0.0
C32 C 0.39906 0.37217 0.54495 0.0
C33 C 0.31056 0.42642 0.52182 0.0
O34 O 0.2898 0.41456 0.52643 0.0
O35 O 0.33131 0.40873 0.55733 0.0
O36 O 0.34601 0.37183 0.56459 0.0
O37 O 0.33694 0.35333 0.52335 0.0
O38 O 0.33656 0.34374 0.54392 0.0
C39 C 0.33837 0.39476 0.56677 0.0
C40 C 0.33822 0.33587 0.53224 0.0
O41 O 0.33312 0.42004 0.52589 0.0
Mg42 Mg 0.85606 0.08579 0.78715 0.0
O43 O 0.8549 0.13113 0.78693 0.0
O44 O 0.88571 0.14417 0.80086 0.0
Mg45 Mg 0.90805 0.10871 0.8084 0.0
C46 C 0.86721 0.1491 0.79299 0.0
C47 C 0.81535 0.06287 0.77016 0.0
O48 O 0.83304 0.04436 0.7714 0.0
O49 O 0.83691 0.0846 0.80702 0.0
O50 O 0.87088 0.09686 0.81924 0.0
O51 O 0.88412 0.08506 0.77091 0.0
O52 O 0.8956 0.08659 0.79139 0.0
C53 C 0.84726 0.08916 0.81796 0.0
C54 C 0.9024 0.08666 0.77946 0.0
O55 O 0.81778 0.08371 0.7767 0.0
Mg56 Mg 0.15124 0.38082 0.94078 0.0
O57 O 0.10614 0.38555 0.94075 0.0
O58 O 0.09133 0.36032 0.92473 0.0
Mg59 Mg 0.12544 0.33708 0.91614 0.0
C60 C 0.08749 0.37666 0.93382 0.0
C61 C 0.17731 0.42184 0.95816 0.0
O62 O 0.1981 0.40852 0.95461 0.0
O63 O 0.15631 0.40458 0.92225 0.0
O64 O 0.14348 0.37444 0.90794 0.0
O65 O 0.14814 0.3488 0.95497 0.0
O66 O 0.14787 0.34273 0.93394 0.0
C67 C 0.15307 0.39679 0.9107 0.0
C68 C 0.1462 0.33296 0.94531 0.0
O69 O 0.15511 0.41615 0.95344 0.0
Mg70 Mg 0.85664 0.90531 0.1903 0.0
O71 O 0.85928 0.85991 0.1899 0.0
O72 O 0.89933 0.85047 0.18241 0.0
Mg73 Mg 0.92035 0.88808 0.17684 0.0
C74 C 0.87713 0.8434 0.18686 0.0
C75 C 0.80838 0.92751 0.19984 0.0
O76 O 0.82575 0.94626 0.19849 0.0
O77 O 0.84885 0.90569 0.16877 0.0
O78 O 0.88878 0.89532 0.16151 0.0
O79 O 0.87554 0.90638 0.2097 0.0
O80 O 0.89665 0.90818 0.19113 0.0
C81 C 0.86478 0.90124 0.15957 0.0
C82 C 0.89738 0.90689 0.20345 0.0
O83 O 0.81393 0.90495 0.19551 0.0
Mg84 Mg 0.3361 0.60751 0.43989 0.0
O85 O 0.38129 0.60689 0.4383 0.0
O86 O 0.39137 0.63866 0.42446 0.0
Mg87 Mg 0.35417 0.65991 0.41795 0.0
C88 C 0.39816 0.62012 0.43197 0.0
C89 C 0.3151 0.5553 0.45006 0.0
O90 O 0.29589 0.56148 0.44224 0.0
O91 O 0.3318 0.58813 0.42013 0.0
O92 O 0.33923 0.62308 0.40772 0.0
O93 O 0.33884 0.63607 0.45602 0.0
O94 O 0.33526 0.64695 0.43559 0.0
C95 C 0.33249 0.59923 0.40916 0.0
C96 C 0.33833 0.65412 0.44735 0.0
O97 O 0.33564 0.56923 0.45033 0.0
Mg98 Mg 0.63265 0.08296 0.68901 0.0
O99 O 0.63809 0.12799 0.68972 0.0
O100 O 0.60314 0.14455 0.67954 0.0
Mg101 Mg 0.57469 0.11181 0.67413 0.0
C102 C 0.62499 0.14734 0.68534 0.0
C103 C 0.67472 0.05788 0.7033 0.0
O104 O 0.65295 0.04505 0.7056 0.0
O105 O 0.64228 0.08168 0.66755 0.0
O106 O 0.60455 0.09658 0.65952 0.0
O107 O 0.61156 0.08344 0.70793 0.0
O108 O 0.59267 0.08774 0.68894 0.0
C109 C 0.62743 0.08691 0.65801 0.0
C110 C 0.59064 0.08749 0.70124 0.0
O111 O 0.67441 0.0761 0.69505 0.0
Mg112 Mg 0.83127 0.38082 0.93689 0.0
O113 O 0.87675 0.37877 0.93856 0.0
O114 O 0.88888 0.34344 0.92739 0.0
Mg115 Mg 0.8532 0.32419 0.91825 0.0
C116 C 0.89447 0.36315 0.93442 0.0
C117 C 0.81382 0.42194 0.95513 0.0
O118 O 0.79984 0.40105 0.9577 0.0
O119 O 0.83416 0.39718 0.91651 0.0
O120 O 0.84691 0.36094 0.90614 0.0
O121 O 0.82703 0.35333 0.95362 0.0
O122 O 0.8289 0.34115 0.93332 0.0
C123 C 0.84049 0.38509 0.90622 0.0
C124 C 0.82735 0.3347 0.94521 0.0
O125 O 0.83031 0.42106 0.94601 0.0
Mg126 Mg 0.3568 0.0844 0.69113 0.0
O127 O 0.36008 0.12917 0.69009 0.0
O128 O 0.39476 0.13814 0.67787 0.0
Mg129 Mg 0.41496 0.0994 0.67234 0.0
C130 C 0.37514 0.14557 0.68457 0.0
C131 C 0.30583 0.06741 0.703 0.0
O132 O 0.31652 0.04506 0.6996 0.0
O133 O 0.34168 0.08229 0.67041 0.0
O134 O 0.37987 0.0871 0.66007 0.0
O135 O 0.38274 0.08361 0.70855 0.0
O136 O 0.39647 0.07962 0.68853 0.0
C137 C 0.35537 0.08211 0.66013 0.0
C138 C 0.40194 0.08082 0.70056 0.0
O139 O 0.31675 0.08853 0.69959 0.0
Mg140 Mg 0.6559 0.60568 0.43737 0.0
O141 O 0.6107 0.60423 0.43907 0.0
O142 O 0.59514 0.63826 0.42792 0.0
Mg143 Mg 0.62923 0.65817 0.41782 0.0
C144 C 0.59177 0.61848 0.43516 0.0
C145 C 0.67804 0.56524 0.45442 0.0
O146 O 0.69427 0.58509 0.45527 0.0
O147 O 0.65434 0.58729 0.41768 0.0
O148 O 0.63743 0.6204 0.40635 0.0
O149 O 0.65785 0.63349 0.45374 0.0
O150 O 0.65512 0.64509 0.43332 0.0
C151 C 0.64617 0.59702 0.40718 0.0
C152 C 0.65573 0.65181 0.44524 0.0
O153 O 0.65877 0.56674 0.44679 0.0
Mg154 Mg 0.1309 0.90205 0.18855 0.0
O155 O 0.1311 0.85696 0.18771 0.0
O156 O 0.09802 0.84573 0.17476 0.0
Mg157 Mg 0.07476 0.88233 0.16917 0.0
C158 C 0.11764 0.83971 0.18176 0.0
C159 C 0.17595 0.92335 0.20345 0.0
O160 O 0.16044 0.94359 0.20183 0.0
O161 O 0.1469 0.90491 0.1679 0.0
O162 O 0.10949 0.89683 0.15742 0.0
O163 O 0.10453 0.9014 0.2057 0.0
O164 O 0.09098 0.90326 0.1856 0.0
C165 C 0.13353 0.90374 0.15753 0.0
C166 C 0.08532 0.90202 0.19761 0.0
O167 O 0.17054 0.90203 0.19778 0.0
Mg168 Mg 0.83674 0.60662 0.03836 0.0
O169 O 0.8821 0.60369 0.03935 0.0
O170 O 0.89546 0.63697 0.05171 0.0
Mg171 Mg 0.86066 0.66194 0.0577 0.0
C172 C 0.90021 0.61659 0.04501 0.0
C173 C 0.81441 0.56503 0.02109 0.0
O174 O 0.79583 0.58275 0.02178 0.0
O175 O 0.83249 0.59046 0.05925 0.0
O176 O 0.8457 0.62738 0.06861 0.0
O177 O 0.83939 0.63387 0.02141 0.0
O178 O 0.83833 0.64667 0.04159 0.0
C179 C 0.83679 0.60421 0.06935 0.0
C180 C 0.84018 0.65273 0.02968 0.0
O181 O 0.83449 0.56745 0.02822 0.0
Mg182 Mg 0.13538 0.08593 0.7895 0.0
O183 O 0.1296 0.13046 0.7884 0.0
O184 O 0.09183 0.13953 0.79815 0.0
Mg185 Mg 0.07307 0.10094 0.80479 0.0
C186 C 0.11239 0.14686 0.79216 0.0
C187 C 0.18836 0.0697 0.77986 0.0
O188 O 0.17848 0.04751 0.78391 0.0
O189 O 0.14648 0.08832 0.81084 0.0
O190 O 0.10627 0.09343 0.81911 0.0
O191 O 0.11292 0.08094 0.77114 0.0
O192 O 0.09582 0.07901 0.79065 0.0
C193 C 0.13087 0.08968 0.82043 0.0
C194 C 0.09263 0.0781 0.77843 0.0
O195 O 0.17635 0.09081 0.78234 0.0
Mg196 Mg 0.65494 0.38292 0.53669 0.0
O197 O 0.60993 0.37887 0.53727 0.0
O198 O 0.60131 0.3428 0.54854 0.0
Mg199 Mg 0.64002 0.32511 0.55554 0.0
C200 C 0.5937 0.36252 0.54202 0.0
C201 C 0.67277 0.42555 0.52142 0.0
O202 O 0.69104 0.40749 0.52211 0.0
O203 O 0.65567 0.39867 0.55706 0.0
O204 O 0.64813 0.36157 0.56789 0.0
O205 O 0.65682 0.35725 0.51941 0.0
O206 O 0.66042 0.34361 0.53951 0.0
C207 C 0.65312 0.38603 0.56752 0.0
C208 C 0.65965 0.33821 0.52745 0.0
O209 O 0.65206 0.42264 0.52799 0.0
Mg210 Mg 0.35712 0.90333 0.28851 0.0
O211 O 0.35526 0.8579 0.2896 0.0
O212 O 0.38846 0.84633 0.30241 0.0
Mg213 Mg 0.41291 0.88209 0.30796 0.0
C214 C 0.36855 0.8405 0.29556 0.0
C215 C 0.31781 0.9212 0.26992 0.0
O216 O 0.33995 0.93305 0.26724 0.0
O217 O 0.34168 0.90802 0.3092 0.0
O218 O 0.37888 0.8983 0.31946 0.0
O219 O 0.38457 0.9013 0.27142 0.0
O220 O 0.39688 0.90301 0.29164 0.0
C221 C 0.35529 0.90656 0.3195 0.0
C222 C 0.4033 0.90181 0.27976 0.0
O223 O 0.31687 0.90593 0.27951 0.0
Mg224 Mg 0.65124 0.10458 0.53672 0.0
O225 O 0.60598 0.10451 0.53795 0.0
O226 O 0.59586 0.13803 0.55089 0.0
Mg227 Mg 0.63299 0.16123 0.55594 0.0
C228 C 0.58917 0.11839 0.54402 0.0
C229 C 0.6748 0.05798 0.52447 0.0
O230 O 0.69501 0.07215 0.52801 0.0
O231 O 0.65487 0.08953 0.5573 0.0
O232 O 0.64873 0.1271 0.56795 0.0
O233 O 0.65019 0.12918 0.51908 0.0
O234 O 0.65141 0.1444 0.53898 0.0
C235 C 0.65513 0.10295 0.56765 0.0
C236 C 0.64967 0.14887 0.52686 0.0
O237 O 0.65211 0.0646 0.52822 0.0
Mg238 Mg 0.13787 0.40426 0.79141 0.0
O239 O 0.13878 0.35907 0.78893 0.0
O240 O 0.10511 0.34381 0.80049 0.0
Mg241 Mg 0.08361 0.3777 0.81013 0.0
C242 C 0.12468 0.34024 0.79308 0.0
C243 C 0.17614 0.42833 0.77427 0.0
O244 O 0.15504 0.44305 0.77431 0.0
O245 O 0.15526 0.40177 0.81164 0.0
O246 O 0.12011 0.38673 0.82213 0.0
O247 O 0.11001 0.40758 0.77492 0.0
O248 O 0.09828 0.40383 0.79526 0.0
C249 C 0.14381 0.39474 0.82199 0.0
C250 C 0.09159 0.40567 0.78339 0.0
O251 O 0.17703 0.40867 0.78169 0.0
Mg252 Mg 0.83415 0.88411 0.03647 0.0
O253 O 0.87895 0.88082 0.03691 0.0
O254 O 0.8887 0.84414 0.04758 0.0
Mg255 Mg 0.8501 0.82298 0.05243 0.0
C256 C 0.89553 0.86483 0.04161 0.0
C257 C 0.81564 0.93717 0.02847 0.0
O258 O 0.79398 0.92533 0.032 0.0
O259 O 0.83293 0.89491 0.05772 0.0
O260 O 0.83849 0.85546 0.06662 0.0
O261 O 0.83389 0.86265 0.01779 0.0
O262 O 0.83034 0.84418 0.03698 0.0
C263 C 0.83349 0.87989 0.06749 0.0
C264 C 0.83237 0.84176 0.02473 0.0
O265 O 0.83734 0.92581 0.03041 0.0
Mg266 Mg 0.35501 0.58344 0.28815 0.0
O267 O 0.35626 0.62878 0.28818 0.0
O268 O 0.39503 0.63998 0.29652 0.0
Mg269 Mg 0.41598 0.60298 0.30335 0.0
C270 C 0.37317 0.64604 0.29136 0.0
C271 C 0.31065 0.56318 0.27472 0.0
O272 O 0.32928 0.54543 0.27496 0.0
O273 O 0.34437 0.58267 0.30932 0.0
O274 O 0.38283 0.59449 0.31784 0.0
O275 O 0.37617 0.58249 0.26946 0.0
O276 O 0.39516 0.58077 0.28862 0.0
C277 C 0.3589 0.5875 0.31901 0.0
C278 C 0.39724 0.58165 0.27631 0.0
O279 O 0.31351 0.58372 0.28144 0.0
Mg280 Mg 0.65286 0.88557 0.44098 0.0
O281 O 0.60741 0.88537 0.44003 0.0
O282 O 0.59697 0.85063 0.42793 0.0
Mg283 Mg 0.63396 0.82809 0.42253 0.0
C284 C 0.59051 0.87087 0.4344 0.0
C285 C 0.67585 0.9368 0.44968 0.0
O286 O 0.69599 0.92593 0.44393 0.0
O287 O 0.65521 0.89971 0.42028 0.0
O288 O 0.64489 0.86291 0.40971 0.0
O289 O 0.65216 0.86172 0.45881 0.0
O290 O 0.6539 0.84573 0.43899 0.0
C291 C 0.65172 0.88693 0.40989 0.0
C292 C 0.65227 0.84177 0.45117 0.0
O293 O 0.65354 0.92603 0.44892 0.0
Mg294 Mg 0.35306 0.40296 0.69129 0.0
O295 O 0.35279 0.35771 0.6918 0.0
O296 O 0.39049 0.34536 0.68255 0.0
Mg297 Mg 0.41356 0.38127 0.67594 0.0
C298 C 0.36889 0.34005 0.68814 0.0
C299 C 0.30753 0.42741 0.70313 0.0
O300 O 0.32588 0.44531 0.70219 0.0
O301 O 0.34235 0.40251 0.67007 0.0
O302 O 0.38141 0.39272 0.66145 0.0
O303 O 0.3746 0.40464 0.71 0.0
O304 O 0.39323 0.40327 0.69079 0.0
C305 C 0.35734 0.39922 0.66039 0.0
C306 C 0.39555 0.40316 0.70308 0.0
O307 O 0.31137 0.40534 0.69785 0.0
Mg308 Mg 0.83661 0.09965 0.93927 0.0
O309 O 0.88218 0.1021 0.9391 0.0
O310 O 0.89133 0.13826 0.92795 0.0
Mg311 Mg 0.85381 0.15758 0.92086 0.0
C312 C 0.89866 0.11837 0.93442 0.0
C313 C 0.81454 0.05677 0.95316 0.0
O314 O 0.79675 0.07505 0.95157 0.0
O315 O 0.83581 0.08471 0.91873 0.0
O316 O 0.84523 0.1216 0.90813 0.0
O317 O 0.83471 0.12426 0.95696 0.0
O318 O 0.83374 0.13951 0.93706 0.0
C319 C 0.83934 0.09732 0.90834 0.0
C320 C 0.83421 0.14397 0.94922 0.0
O321 O 0.83651 0.05932 0.94762 0.0
Mg322 Mg 0.13534 0.58286 0.18793 0.0
O323 O 0.13569 0.62825 0.18777 0.0
O324 O 0.10093 0.64009 0.17599 0.0
Mg325 Mg 0.08148 0.60388 0.16749 0.0
C326 C 0.12059 0.64573 0.18304 0.0
C327 C 0.17551 0.56266 0.20509 0.0
O328 O 0.15529 0.54684 0.20577 0.0
O329 O 0.15321 0.58101 0.16806 0.0
O330 O 0.11888 0.59347 0.1562 0.0
O331 O 0.10849 0.583 0.20472 0.0
O332 O 0.09541 0.58275 0.18444 0.0
C333 C 0.14259 0.58583 0.15727 0.0
C334 C 0.08958 0.5841 0.19648 0.0
O335 O 0.17474 0.58157 0.19724 0.0
Mg336 Mg 0.3335 0.88491 0.43937 0.0
O337 O 0.37865 0.8838 0.43738 0.0
O338 O 0.38789 0.84497 0.42851 0.0
Mg339 Mg 0.34985 0.8231 0.42393 0.0
C340 C 0.39512 0.86676 0.43338 0.0
C341 C 0.31129 0.93311 0.44901 0.0
O342 O 0.29254 0.91563 0.44811 0.0
O343 O 0.32824 0.89402 0.41826 0.0
O344 O 0.33632 0.85479 0.40967 0.0
O345 O 0.33675 0.86482 0.45839 0.0
O346 O 0.33186 0.84483 0.43962 0.0
C347 C 0.32932 0.87871 0.4086 0.0
C348 C 0.33564 0.8434 0.4518 0.0
O349 O 0.33377 0.92736 0.4447 0.0
Mg350 Mg 0.85452 0.58704 0.19092 0.0
O351 O 0.85701 0.63188 0.18923 0.0
O352 O 0.89095 0.63964 0.17623 0.0
Mg353 Mg 0.91206 0.60083 0.17173 0.0
C354 C 0.87165 0.64763 0.183 0.0
C355 C 0.80766 0.56606 0.20261 0.0
O356 O 0.82326 0.54641 0.19981 0.0
O357 O 0.83942 0.58304 0.17031 0.0
O358 O 0.8773 0.58669 0.15964 0.0
O359 O 0.87986 0.58799 0.20848 0.0
O360 O 0.89406 0.58278 0.18854 0.0
C361 C 0.8528 0.58167 0.15997 0.0
C362 C 0.89915 0.58476 0.20059 0.0
O363 O 0.81415 0.58886 0.19905 0.0
Mg364 Mg 0.15565 0.0901 0.94196 0.0
O365 O 0.11064 0.09473 0.93895 0.0
O366 O 0.10097 0.13024 0.92697 0.0
Mg367 Mg 0.13923 0.14849 0.91947 0.0
C368 C 0.0942 0.11036 0.93368 0.0
C369 C 0.16494 0.05252 0.9632 0.0
O370 O 0.18034 0.0727 0.96521 0.0
O371 O 0.16169 0.06757 0.92241 0.0
O372 O 0.15199 0.10783 0.92047 0.0
O373 O 0.15349 0.12154 0.95696 0.0
O374 O 0.15999 0.13059 0.93641 0.0
C375 C 0.15795 0.08676 0.91497 0.0
C376 C 0.15696 0.13864 0.948 0.0
O377 O 0.15034 0.05262 0.95333 0.0
Mg378 Mg 0.63031 0.40296 0.68845 0.0
O379 O 0.63113 0.35753 0.68968 0.0
O380 O 0.59611 0.34388 0.67867 0.0
Mg381 Mg 0.57554 0.37869 0.66954 0.0
C382 C 0.61623 0.33921 0.68558 0.0
C383 C 0.67189 0.42717 0.7036 0.0
O384 O 0.65173 0.44311 0.70405 0.0
O385 O 0.6471 0.40172 0.66838 0.0
O386 O 0.61248 0.38651 0.65748 0.0
O387 O 0.60356 0.40497 0.70535 0.0
O388 O 0.59061 0.40313 0.6851 0.0
C389 C 0.63618 0.39446 0.65798 0.0
C390 C 0.58463 0.40372 0.69711 0.0
O391 O 0.67015 0.40615 0.69719 0.0
Mg392 Mg 0.33184 0.10173 0.53766 0.0
O393 O 0.37709 0.10429 0.53685 0.0
O394 O 0.38823 0.14311 0.54513 0.0
Mg395 Mg 0.35142 0.16285 0.55309 0.0
C396 C 0.39426 0.12149 0.53974 0.0
C397 C 0.31222 0.0583 0.52284 0.0
O398 O 0.29337 0.07562 0.52412 0.0
O399 O 0.33352 0.08972 0.55883 0.0
O400 O 0.34501 0.12873 0.56687 0.0
O401 O 0.3289 0.12509 0.51957 0.0
O402 O 0.32785 0.1415 0.53929 0.0
C403 C 0.33899 0.10467 0.56834 0.0
C404 C 0.32768 0.14514 0.52712 0.0
O405 O 0.33296 0.06121 0.52944 0.0
Mg406 Mg 0.63293 0.58531 0.28779 0.0
O407 O 0.63465 0.63087 0.28855 0.0
O408 O 0.60188 0.64227 0.30165 0.0
Mg409 Mg 0.58072 0.60632 0.30925 0.0
C410 C 0.62087 0.64833 0.29426 0.0
C411 C 0.67074 0.56206 0.27055 0.0
O412 O 0.64935 0.54781 0.27029 0.0
O413 O 0.65176 0.58184 0.30739 0.0
O414 O 0.6179 0.59333 0.31986 0.0
O415 O 0.60488 0.58687 0.27146 0.0
O416 O 0.59344 0.58575 0.29191 0.0
C417 C 0.64144 0.58545 0.31838 0.0
C418 C 0.58656 0.58731 0.28004 0.0
O419 O 0.67167 0.58184 0.27793 0.0
Mg420 Mg 0.15143 0.89787 0.0352 0.0
O421 O 0.10638 0.89123 0.03619 0.0
O422 O 0.10154 0.85098 0.04413 0.0
Mg423 Mg 0.14087 0.8323 0.0492 0.0
C424 C 0.09186 0.87203 0.03955 0.0
C425 C 0.20746 0.91324 0.02482 0.0
O426 O 0.23314 0.91215 0.02431 0.0
O427 O 0.15423 0.90535 0.05705 0.0
O428 O 0.14954 0.86415 0.06368 0.0
O429 O 0.15255 0.87396 0.01618 0.0
O430 O 0.1588 0.85751 0.03512 0.0
C431 C 0.1539 0.88825 0.066 0.0
C432 C 0.15706 0.85385 0.02316 0.0
O433 O 0.19565 0.90255 0.03415 0.0
Mg434 Mg 0.85491 0.40504 0.78527 0.0
O435 O 0.85653 0.35994 0.78647 0.0
O436 O 0.8914 0.35077 0.79863 0.0
Mg437 Mg 0.91127 0.38881 0.80513 0.0
C438 C 0.87189 0.34349 0.79182 0.0
C439 C 0.80906 0.42576 0.77165 0.0
O440 O 0.82328 0.44633 0.77457 0.0
O441 O 0.83825 0.40818 0.80555 0.0
O442 O 0.87523 0.40207 0.81674 0.0
O443 O 0.88108 0.40448 0.76813 0.0
O444 O 0.89458 0.40764 0.78831 0.0
C445 C 0.85091 0.40788 0.81611 0.0
C446 C 0.90008 0.40549 0.77631 0.0
O447 O 0.81559 0.40364 0.77609 0.0
C448 C 0.16428 0.60159 0.13761 0.0
C449 C 0.1571 0.58067 0.14542 0.0
C450 C 0.17057 0.59744 0.12468 0.0
C451 C 0.16849 0.5719 0.11945 0.0
C452 C 0.16471 0.55036 0.12775 0.0
C453 C 0.15893 0.55504 0.14074 0.0
C454 C 0.17609 0.62084 0.1163 0.0
C455 C 0.1637 0.52273 0.1227 0.0
C456 C 0.13225 0.58273 0.08884 0.0
C457 C 0.15296 0.58502 0.08017 0.0
C458 C 0.13673 0.57454 0.10145 0.0
C459 C 0.16274 0.56948 0.10552 0.0
C460 C 0.18317 0.56855 0.09635 0.0
C461 C 0.17798 0.57628 0.08365 0.0
C462 C 0.11403 0.57447 0.11075 0.0
C463 C 0.21098 0.56221 0.10008 0.0
H464 H 0.16308 0.62136 0.14136 0.0
H465 H 0.15352 0.53886 0.14691 0.0
H466 H 0.19242 0.61659 0.10958 0.0
H467 H 0.15848 0.62544 0.11048 0.0
H468 H 0.18122 0.6384 0.12207 0.0
H469 H 0.16902 0.50848 0.13031 0.0
H470 H 0.14348 0.51828 0.11948 0.0
H471 H 0.17701 0.52005 0.11438 0.0
H472 H 0.11283 0.5891 0.086 0.0
H473 H 0.19397 0.57786 0.07684 0.0
H474 H 0.11538 0.59181 0.11715 0.0
H475 H 0.11459 0.55677 0.11687 0.0
H476 H 0.09485 0.57511 0.10573 0.0
H477 H 0.22184 0.5807 0.10171 0.0
H478 H 0.22101 0.55149 0.0922 0.0
H479 H 0.21201 0.55037 0.10898 0.0
C480 C 0.63236 0.90328 0.38981 0.0
C481 C 0.65453 0.90008 0.39749 0.0
C482 C 0.63476 0.90963 0.3768 0.0
C483 C 0.66004 0.91207 0.37132 0.0
C484 C 0.68241 0.91136 0.37935 0.0
C485 C 0.67938 0.9053 0.39244 0.0
C486 C 0.6103 0.9112 0.36869 0.0
C487 C 0.7096 0.91468 0.37396 0.0
C488 C 0.65644 0.88173 0.33847 0.0
C489 C 0.65219 0.90365 0.33079 0.0
C490 C 0.66209 0.88448 0.35156 0.0
C491 C 0.66263 0.9098 0.35713 0.0
C492 C 0.66057 0.9321 0.34915 0.0
C493 C 0.6554 0.92873 0.33598 0.0
C494 C 0.66498 0.86015 0.35964 0.0
C495 C 0.66134 0.95944 0.35459 0.0
H496 H 0.61317 0.89931 0.39383 0.0
H497 H 0.69651 0.90278 0.39848 0.0
H498 H 0.61101 0.92854 0.36233 0.0
H499 H 0.60895 0.89357 0.36249 0.0
H500 H 0.59229 0.91235 0.37466 0.0
H501 H 0.72398 0.91961 0.3816 0.0
H502 H 0.71586 0.89614 0.36933 0.0
H503 H 0.70999 0.93019 0.36653 0.0
H504 H 0.65395 0.86237 0.33437 0.0
H505 H 0.65193 0.94568 0.32997 0.0
H506 H 0.64725 0.85762 0.36568 0.0
H507 H 0.68204 0.86194 0.36617 0.0
H508 H 0.66751 0.84231 0.35366 0.0
H509 H 0.64123 0.9654 0.35737 0.0
H510 H 0.66854 0.9736 0.34732 0.0
H511 H 0.67394 0.96068 0.36325 0.0
C512 C 0.35776 0.42605 0.64072 0.0
C513 C 0.34743 0.40483 0.64748 0.0
C514 C 0.35217 0.42953 0.62766 0.0
C515 C 0.33652 0.41085 0.62121 0.0
C516 C 0.32463 0.39032 0.62824 0.0
C517 C 0.33012 0.38765 0.6414 0.0
C518 C 0.36491 0.45183 0.62054 0.0
C519 C 0.30815 0.3698 0.62167 0.0
C520 C 0.31951 0.41871 0.58573 0.0
C521 C 0.33938 0.40367 0.58015 0.0
C522 C 0.31839 0.42179 0.59918 0.0
C523 C 0.33752 0.40945 0.60698 0.0
C524 C 0.35813 0.39517 0.60122 0.0
C525 C 0.35883 0.39262 0.58793 0.0
C526 C 0.29629 0.43727 0.60505 0.0
C527 C 0.37907 0.3817 0.60908 0.0
H528 H 0.3711 0.43933 0.64553 0.0
H529 H 0.3223 0.3712 0.64671 0.0
H530 H 0.38142 0.44423 0.61469 0.0
H531 H 0.35078 0.46116 0.61387 0.0
H532 H 0.37266 0.46695 0.62721 0.0
H533 H 0.29705 0.35775 0.62867 0.0
H534 H 0.29414 0.37896 0.61489 0.0
H535 H 0.32104 0.35663 0.616 0.0
H536 H 0.30425 0.42685 0.5797 0.0
H537 H 0.37424 0.38096 0.58358 0.0
H538 H 0.30406 0.45185 0.61197 0.0
H539 H 0.28324 0.42396 0.61048 0.0
H540 H 0.28446 0.44758 0.59767 0.0
H541 H 0.38945 0.39617 0.61518 0.0
H542 H 0.39378 0.37152 0.603 0.0
H543 H 0.36998 0.3671 0.61556 0.0
C544 C 0.85615 0.08093 0.8876 0.0
C545 C 0.83508 0.08426 0.89597 0.0
C546 C 0.85191 0.07488 0.87464 0.0
C547 C 0.8259 0.07314 0.86994 0.0
C548 C 0.80467 0.07382 0.87867 0.0
C549 C 0.80955 0.07939 0.89168 0.0
C550 C 0.87522 0.07303 0.86577 0.0
C551 C 0.77675 0.07121 0.87415 0.0
C552 C 0.82798 0.10623 0.83794 0.0
C553 C 0.83232 0.08494 0.8298 0.0
C554 C 0.82219 0.10241 0.85094 0.0
C555 C 0.82154 0.07664 0.85592 0.0
C556 C 0.82278 0.05506 0.84738 0.0
C557 C 0.82824 0.0595 0.83433 0.0
C558 C 0.82 0.12605 0.8596 0.0
C559 C 0.82126 0.02729 0.85214 0.0
H560 H 0.87588 0.08455 0.89103 0.0
H561 H 0.79328 0.08197 0.89826 0.0
H562 H 0.87325 0.05594 0.85927 0.0
H563 H 0.87622 0.09085 0.85972 0.0
H564 H 0.89393 0.07121 0.87114 0.0
H565 H 0.76366 0.06485 0.88208 0.0
H566 H 0.76972 0.09046 0.87067 0.0
H567 H 0.77515 0.05708 0.86609 0.0
H568 H 0.83115 0.12587 0.83436 0.0
H569 H 0.83171 0.04303 0.82797 0.0
H570 H 0.83823 0.12809 0.86532 0.0
H571 H 0.80349 0.12375 0.86642 0.0
H572 H 0.81702 0.14434 0.85406 0.0
H573 H 0.84133 0.02012 0.8542 0.0
H574 H 0.81263 0.01429 0.84469 0.0
H575 H 0.80952 0.02571 0.86107 0.0
C576 C 0.14633 0.42733 0.89263 0.0
C577 C 0.16341 0.41196 0.8999 0.0
C578 C 0.15124 0.43163 0.87953 0.0
C579 C 0.17307 0.41931 0.87366 0.0
C580 C 0.19251 0.40776 0.88148 0.0
C581 C 0.18736 0.4041 0.89459 0.0
C582 C 0.13094 0.44572 0.87163 0.0
C583 C 0.21667 0.39548 0.87573 0.0
C584 C 0.14948 0.38178 0.84468 0.0
C585 C 0.15681 0.39811 0.83455 0.0
C586 C 0.15624 0.38776 0.85735 0.0
C587 C 0.17064 0.41085 0.86002 0.0
C588 C 0.18004 0.4263 0.84972 0.0
C589 C 0.173 0.41969 0.83703 0.0
C590 C 0.14631 0.37017 0.86795 0.0
C591 C 0.19586 0.45074 0.852 0.0
H592 H 0.12785 0.4335 0.89677 0.0
H593 H 0.20063 0.39228 0.90028 0.0
H594 H 0.14033 0.45723 0.86387 0.0
H595 H 0.11774 0.43117 0.86708 0.0
H596 H 0.11889 0.45904 0.87766 0.0
H597 H 0.23268 0.3941 0.88292 0.0
H598 H 0.21191 0.3754 0.87242 0.0
H599 H 0.22371 0.40676 0.86732 0.0
H600 H 0.13726 0.36489 0.84275 0.0
H601 H 0.17869 0.43241 0.8292 0.0
H602 H 0.1315 0.38075 0.87378 0.0
H603 H 0.16257 0.3645 0.87443 0.0
H604 H 0.13712 0.35205 0.86416 0.0
H605 H 0.18239 0.46772 0.85265 0.0
H606 H 0.2095 0.45434 0.84388 0.0
H607 H 0.20729 0.44974 0.86104 0.0
C608 C 0.8141 0.87677 0.08924 0.0
C609 C 0.82925 0.89076 0.08041 0.0
C610 C 0.8143 0.88332 0.1023 0.0
C611 C 0.83078 0.90375 0.10662 0.0
C612 C 0.84396 0.91963 0.09755 0.0
C613 C 0.84284 0.91304 0.08445 0.0
C614 C 0.79917 0.86649 0.11159 0.0
C615 C 0.8616 0.94168 0.10175 0.0
C616 C 0.8341 0.91792 0.14255 0.0
C617 C 0.85544 0.90225 0.14615 0.0
C618 C 0.82591 0.91914 0.12965 0.0
C619 C 0.83919 0.90403 0.12028 0.0
C620 C 0.86055 0.88802 0.12394 0.0
C621 C 0.86848 0.88749 0.13678 0.0
C622 C 0.80329 0.93665 0.12606 0.0
C623 C 0.87495 0.87111 0.11432 0.0
H624 H 0.80315 0.85982 0.08601 0.0
H625 H 0.85441 0.92393 0.07756 0.0
H626 H 0.81272 0.85232 0.11618 0.0
H627 H 0.7903 0.87852 0.11933 0.0
H628 H 0.78342 0.85532 0.10668 0.0
H629 H 0.86602 0.95522 0.0937 0.0
H630 H 0.85263 0.95296 0.10973 0.0
H631 H 0.88035 0.93344 0.10531 0.0
H632 H 0.82411 0.92953 0.14977 0.0
H633 H 0.8848 0.87514 0.13953 0.0
H634 H 0.78822 0.92541 0.12072 0.0
H635 H 0.81026 0.95237 0.11959 0.0
H636 H 0.794 0.94583 0.1346 0.0
H637 H 0.86127 0.85671 0.11002 0.0
H638 H 0.89151 0.86026 0.11872 0.0
H639 H 0.88273 0.88333 0.1064 0.0
C640 C 0.3418 0.56512 0.39275 0.0
C641 C 0.32537 0.58479 0.39748 0.0
C642 C 0.34124 0.55847 0.37964 0.0
C643 C 0.32414 0.57214 0.37129 0.0
C644 C 0.30457 0.58856 0.37653 0.0
C645 C 0.3057 0.59505 0.3896 0.0
C646 C 0.3613 0.53956 0.37446 0.0
C647 C 0.28492 0.6023 0.3681 0.0
C648 C 0.35822 0.59968 0.34207 0.0
C649 C 0.34832 0.58423 0.33211 0.0
C650 C 0.35008 0.596 0.35475 0.0
C651 C 0.33186 0.57593 0.35764 0.0
C652 C 0.32142 0.56041 0.34759 0.0
C653 C 0.32969 0.56487 0.33488 0.0
C654 C 0.36124 0.6136 0.36508 0.0
C655 C 0.30241 0.53849 0.35018 0.0
H656 H 0.35685 0.557 0.39892 0.0
H657 H 0.29269 0.60998 0.39338 0.0
H658 H 0.35278 0.52744 0.36666 0.0
H659 H 0.37798 0.55067 0.37038 0.0
H660 H 0.36892 0.52652 0.38212 0.0
H661 H 0.26766 0.60902 0.37371 0.0
H662 H 0.29429 0.61967 0.36368 0.0
H663 H 0.27813 0.5893 0.36023 0.0
H664 H 0.37246 0.61478 0.33993 0.0
H665 H 0.32224 0.55264 0.32719 0.0
H666 H 0.37223 0.60177 0.3722 0.0
H667 H 0.34518 0.62373 0.37027 0.0
H668 H 0.37467 0.62865 0.36114 0.0
H669 H 0.31362 0.52045 0.35239 0.0
H670 H 0.28999 0.53443 0.34164 0.0
H671 H 0.28954 0.54278 0.35851 0.0
C672 C 0.65931 0.06751 0.64208 0.0
C673 C 0.6365 0.08194 0.6447 0.0
C674 C 0.66775 0.06342 0.62934 0.0
C675 C 0.6533 0.07452 0.6191 0.0
C676 C 0.62978 0.08824 0.62172 0.0
C677 C 0.6217 0.09166 0.63442 0.0
C678 C 0.69245 0.04796 0.62698 0.0
C679 C 0.61356 0.10041 0.61113 0.0
C680 C 0.67632 0.10539 0.58896 0.0
C681 C 0.66234 0.09066 0.57993 0.0
C682 C 0.67741 0.09774 0.60184 0.0
C683 C 0.66358 0.07517 0.60575 0.0
C684 C 0.65299 0.05815 0.59633 0.0
C685 C 0.65243 0.06616 0.58341 0.0
C686 C 0.69004 0.11588 0.61146 0.0
C687 C 0.6394 0.03316 0.60007 0.0
H688 H 0.67066 0.05953 0.64995 0.0
H689 H 0.60394 0.10264 0.63628 0.0
H690 H 0.69146 0.03693 0.6178 0.0
H691 H 0.70933 0.06153 0.62643 0.0
H692 H 0.69628 0.03401 0.63493 0.0
H693 H 0.59535 0.10968 0.61481 0.0
H694 H 0.62518 0.11559 0.6061 0.0
H695 H 0.608 0.08537 0.60395 0.0
H696 H 0.68479 0.12396 0.58614 0.0
H697 H 0.64213 0.05444 0.57634 0.0
H698 H 0.70063 0.10466 0.61893 0.0
H699 H 0.67464 0.12762 0.61631 0.0
H700 H 0.704 0.12954 0.60679 0.0
H701 H 0.6496 0.02357 0.60821 0.0
H702 H 0.63834 0.01927 0.59186 0.0
H703 H 0.61912 0.03768 0.6032 0.0
C704 C 0.84776 0.43685 0.83503 0.0
C705 C 0.83795 0.41547 0.82813 0.0
C706 C 0.84203 0.43997 0.84811 0.0
C707 C 0.82703 0.42064 0.8544 0.0
C708 C 0.81393 0.40132 0.847 0.0
C709 C 0.81965 0.39889 0.83385 0.0
C710 C 0.85511 0.46176 0.85546 0.0
C711 C 0.79691 0.38094 0.85328 0.0
C712 C 0.85674 0.39067 0.88406 0.0
C713 C 0.83931 0.39844 0.8937 0.0
C714 C 0.85354 0.39899 0.8714 0.0
C715 C 0.83208 0.41534 0.86821 0.0
C716 C 0.81521 0.42457 0.87804 0.0
C717 C 0.81921 0.41615 0.89077 0.0
C718 C 0.8725 0.3891 0.86133 0.0
C719 C 0.79269 0.44272 0.87511 0.0
H720 H 0.86157 0.44996 0.83046 0.0
H721 H 0.81187 0.38253 0.82842 0.0
H722 H 0.84257 0.46869 0.86347 0.0
H723 H 0.87374 0.45447 0.85962 0.0
H724 H 0.85972 0.47855 0.8491 0.0
H725 H 0.784 0.37106 0.84619 0.0
H726 H 0.80957 0.36591 0.85782 0.0
H727 H 0.78461 0.38977 0.86093 0.0
H728 H 0.87252 0.37727 0.88638 0.0
H729 H 0.80578 0.42225 0.89827 0.0
H730 H 0.88143 0.40577 0.85614 0.0
H731 H 0.86196 0.37692 0.85418 0.0
H732 H 0.88853 0.37717 0.86553 0.0
H733 H 0.80043 0.46247 0.87295 0.0
H734 H 0.77891 0.44442 0.88333 0.0
H735 H 0.7817 0.43598 0.86653 0.0
C736 C 0.32134 0.08902 0.64322 0.0
C737 C 0.34335 0.07554 0.6477 0.0
C738 C 0.31474 0.08821 0.6301 0.0
C739 C 0.33057 0.07356 0.62149 0.0
C740 C 0.35043 0.0571 0.6264 0.0
C741 C 0.35677 0.05853 0.63945 0.0
C742 C 0.29298 0.10552 0.62526 0.0
C743 C 0.36745 0.04073 0.61766 0.0
C744 C 0.32084 0.0743 0.58514 0.0
C745 C 0.33749 0.09492 0.58167 0.0
C746 C 0.31774 0.06724 0.59813 0.0
C747 C 0.33181 0.08103 0.60773 0.0
C748 C 0.34886 0.1016 0.60417 0.0
C749 C 0.35146 0.10821 0.59124 0.0
C750 C 0.29917 0.04545 0.6016 0.0
C751 C 0.36453 0.11673 0.61403 0.0
H752 H 0.31083 0.10199 0.64966 0.0
H753 H 0.37352 0.04772 0.64304 0.0
H754 H 0.30149 0.12374 0.62129 0.0
H755 H 0.28192 0.09574 0.61745 0.0
H756 H 0.27919 0.11094 0.63308 0.0
H757 H 0.37799 0.02523 0.62305 0.0
H758 H 0.35567 0.03144 0.60996 0.0
H759 H 0.38221 0.0535 0.613 0.0
H760 H 0.30972 0.06423 0.57778 0.0
H761 H 0.36447 0.12407 0.58862 0.0
H762 H 0.28269 0.05345 0.60733 0.0
H763 H 0.3092 0.0307 0.60766 0.0
H764 H 0.29105 0.03555 0.59297 0.0
H765 H 0.3512 0.12591 0.62114 0.0
H766 H 0.37664 0.13236 0.60962 0.0
H767 H 0.37774 0.10331 0.61932 0.0
C768 C 0.67367 0.57163 0.3919 0.0
C769 C 0.64923 0.58212 0.39523 0.0
C770 C 0.67895 0.5642 0.37917 0.0
C771 C 0.65913 0.56715 0.36978 0.0
C772 C 0.63342 0.57424 0.3736 0.0
C773 C 0.62892 0.58215 0.38626 0.0
C774 C 0.70637 0.55591 0.37565 0.0
C775 C 0.61128 0.57634 0.36403 0.0
C776 C 0.66485 0.59913 0.33789 0.0
C777 C 0.65611 0.57892 0.32997 0.0
C778 C 0.6702 0.59444 0.35086 0.0
C779 C 0.66576 0.56914 0.35595 0.0
C780 C 0.66057 0.54801 0.34755 0.0
C781 C 0.65562 0.55321 0.33455 0.0
C782 C 0.67698 0.61734 0.35941 0.0
C783 C 0.65696 0.52056 0.35248 0.0
H784 H 0.68933 0.57144 0.39894 0.0
H785 H 0.60991 0.58985 0.38898 0.0
H786 H 0.70674 0.54357 0.36688 0.0
H787 H 0.71839 0.57358 0.37384 0.0
H788 H 0.71562 0.54499 0.38367 0.0
H789 H 0.59197 0.57854 0.36883 0.0
H790 H 0.61445 0.5936 0.35778 0.0
H791 H 0.61061 0.55877 0.35778 0.0
H792 H 0.66528 0.61896 0.33423 0.0
H793 H 0.64891 0.53761 0.32829 0.0
H794 H 0.69234 0.61181 0.36643 0.0
H795 H 0.65934 0.62341 0.36489 0.0
H796 H 0.68399 0.63439 0.35378 0.0
H797 H 0.66964 0.51671 0.36092 0.0
H798 H 0.66134 0.50592 0.34488 0.0
H799 H 0.6363 0.51787 0.35549 0.0
C800 C 0.17135 0.90564 0.14197 0.0
C801 C 0.14516 0.91097 0.14504 0.0
C802 C 0.18015 0.90773 0.12917 0.0
C803 C 0.16219 0.91504 0.11941 0.0
C804 C 0.13669 0.92333 0.12283 0.0
C805 C 0.12858 0.92124 0.13559 0.0
C806 C 0.20793 0.90018 0.12591 0.0
C807 C 0.11678 0.93137 0.11284 0.0
C808 C 0.16867 0.92011 0.08323 0.0
C809 C 0.15916 0.89543 0.07957 0.0
C810 C 0.17283 0.92616 0.0963 0.0
C811 C 0.16665 0.90735 0.10581 0.0
C812 C 0.1588 0.88195 0.10205 0.0
C813 C 0.15522 0.87639 0.08906 0.0
C814 C 0.18289 0.95287 0.09996 0.0
C815 C 0.15197 0.86105 0.11175 0.0
H816 H 0.18439 0.89823 0.14933 0.0
H817 H 0.10854 0.92621 0.13803 0.0
H818 H 0.20812 0.88173 0.1203 0.0
H819 H 0.217 0.91547 0.11982 0.0
H820 H 0.2201 0.89743 0.13465 0.0
H821 H 0.09854 0.93919 0.11721 0.0
H822 H 0.12502 0.9465 0.10641 0.0
H823 H 0.11155 0.91422 0.10681 0.0
H824 H 0.17257 0.93471 0.07595 0.0
H825 H 0.14832 0.85708 0.08642 0.0
H826 H 0.19737 0.95138 0.10787 0.0
H827 H 0.16648 0.96518 0.10345 0.0
H828 H 0.19215 0.96292 0.09168 0.0
H829 H 0.16797 0.85866 0.11884 0.0
H830 H 0.1483 0.84175 0.10718 0.0
H831 H 0.13408 0.86689 0.11709 0.0
C832 C 0.84404 0.60829 0.0927 0.0
C833 C 0.8325 0.59425 0.08257 0.0
C834 C 0.84013 0.60147 0.10546 0.0
C835 C 0.82455 0.57947 0.10842 0.0
C836 C 0.81238 0.56516 0.09836 0.0
C837 C 0.81653 0.57271 0.08545 0.0
C838 C 0.8536 0.61757 0.11575 0.0
C839 C 0.79508 0.54204 0.10126 0.0
C840 C 0.85403 0.5583 0.13917 0.0
C841 C 0.84017 0.57415 0.14779 0.0
C842 C 0.84617 0.55601 0.12634 0.0
C843 C 0.82431 0.57054 0.122 0.0
C844 C 0.80817 0.58356 0.13109 0.0
C845 C 0.81633 0.58522 0.14398 0.0
C846 C 0.86377 0.5415 0.1171 0.0
C847 C 0.78438 0.59882 0.12693 0.0
H848 H 0.85656 0.62488 0.09069 0.0
H849 H 0.8072 0.56202 0.07771 0.0
H850 H 0.83914 0.62467 0.1229 0.0
H851 H 0.86818 0.60538 0.1209 0.0
H852 H 0.86394 0.63485 0.11177 0.0
H853 H 0.78675 0.53317 0.09241 0.0
H854 H 0.80632 0.52689 0.10651 0.0
H855 H 0.77875 0.5482 0.10761 0.0
H856 H 0.87214 0.54916 0.14224 0.0
H857 H 0.80539 0.59718 0.15072 0.0
H858 H 0.87655 0.55573 0.11207 0.0
H859 H 0.85213 0.53102 0.10973 0.0
H860 H 0.87649 0.52719 0.12215 0.0
H861 H 0.79057 0.61846 0.12359 0.0
H862 H 0.77042 0.60152 0.13501 0.0
H863 H 0.7742 0.58896 0.11886 0.0
C864 C 0.16488 0.09451 0.83775 0.0
C865 C 0.1406 0.08503 0.83358 0.0
C866 C 0.1722 0.09253 0.85076 0.0
C867 C 0.15496 0.08042 0.85962 0.0
C868 C 0.13136 0.06912 0.85518 0.0
C869 C 0.1244 0.07177 0.84226 0.0
C870 C 0.19752 0.1048 0.85515 0.0
C871 C 0.11252 0.05578 0.86423 0.0
C872 C 0.17058 0.06397 0.89442 0.0
C873 C 0.15875 0.08506 0.9008 0.0
C874 C 0.17107 0.06285 0.8809 0.0
C875 C 0.15904 0.08306 0.8737 0.0
C876 C 0.14774 0.10468 0.88015 0.0
C877 C 0.14784 0.10544 0.89357 0.0
C878 C 0.18372 0.03976 0.87434 0.0
C879 C 0.1344 0.12653 0.87289 0.0
H880 H 0.17748 0.10462 0.83102 0.0
H881 H 0.10584 0.06391 0.83899 0.0
H882 H 0.19319 0.12296 0.8606 0.0
H883 H 0.20821 0.09145 0.8617 0.0
H884 H 0.21044 0.10985 0.84694 0.0
H885 H 0.0966 0.04543 0.85902 0.0
H886 H 0.12299 0.04146 0.87035 0.0
H887 H 0.10352 0.07055 0.87069 0.0
H888 H 0.1794 0.04838 0.89999 0.0
H889 H 0.13869 0.12184 0.89841 0.0
H890 H 0.19715 0.04649 0.86665 0.0
H891 H 0.16845 0.02755 0.8697 0.0
H892 H 0.19488 0.02737 0.88117 0.0
H893 H 0.14762 0.13442 0.86539 0.0
H894 H 0.12832 0.14284 0.8793 0.0
H895 H 0.11672 0.11884 0.86797 0.0
C896 C 0.63604 0.40695 0.58714 0.0
C897 C 0.65752 0.39927 0.57977 0.0
C898 C 0.63897 0.4121 0.60028 0.0
C899 C 0.66387 0.40876 0.60609 0.0
C900 C 0.6861 0.40395 0.59833 0.0
C901 C 0.6826 0.39906 0.58518 0.0
C902 C 0.61488 0.41809 0.60816 0.0
C903 C 0.71307 0.40103 0.60405 0.0
C904 C 0.65987 0.4211 0.6418 0.0
C905 C 0.65043 0.39676 0.64584 0.0
C906 C 0.66703 0.42505 0.62893 0.0
C907 C 0.66489 0.40402 0.62013 0.0
C908 C 0.65853 0.37869 0.62464 0.0
C909 C 0.65087 0.37548 0.63743 0.0
C910 C 0.67434 0.4522 0.6246 0.0
C911 C 0.65722 0.35541 0.61571 0.0
H912 H 0.61668 0.40701 0.58285 0.0
H913 H 0.69917 0.39303 0.57936 0.0
H914 H 0.6092 0.40046 0.61371 0.0
H915 H 0.61892 0.43401 0.61514 0.0
H916 H 0.59804 0.42393 0.60205 0.0
H917 H 0.72846 0.40569 0.59687 0.0
H918 H 0.71569 0.41381 0.61257 0.0
H919 H 0.71592 0.38048 0.60714 0.0
H920 H 0.65957 0.43752 0.64841 0.0
H921 H 0.64387 0.35661 0.6407 0.0
H922 H 0.6564 0.46265 0.62147 0.0
H923 H 0.68815 0.45172 0.61638 0.0
H924 H 0.68328 0.46357 0.63258 0.0
H925 H 0.63989 0.3573 0.60935 0.0
H926 H 0.65561 0.33668 0.62104 0.0
H927 H 0.67487 0.35456 0.60952 0.0
C928 C 0.36162 0.91806 0.34239 0.0
C929 C 0.34424 0.914 0.33213 0.0
C930 C 0.35271 0.91935 0.35502 0.0
C931 C 0.32559 0.91702 0.35749 0.0
C932 C 0.30765 0.91712 0.34711 0.0
C933 C 0.31721 0.9152 0.33444 0.0
C934 C 0.37268 0.92022 0.36575 0.0
C935 C 0.27854 0.91751 0.34946 0.0
C936 C 0.32098 0.87135 0.3853 0.0
C937 C 0.32267 0.88877 0.39567 0.0
C938 C 0.31849 0.88045 0.37271 0.0
C939 C 0.31762 0.90774 0.3704 0.0
C940 C 0.31609 0.92528 0.38091 0.0
C941 C 0.31886 0.9156 0.39347 0.0
C942 C 0.31965 0.86085 0.36183 0.0
C943 C 0.31359 0.9544 0.37901 0.0
H944 H 0.38254 0.91852 0.34064 0.0
H945 H 0.30362 0.91317 0.3265 0.0
H946 H 0.36787 0.93611 0.3726 0.0
H947 H 0.37238 0.9015 0.37112 0.0
H948 H 0.39288 0.92345 0.36214 0.0
H949 H 0.26748 0.92258 0.34061 0.0
H950 H 0.27196 0.89801 0.35278 0.0
H951 H 0.27365 0.93183 0.35712 0.0
H952 H 0.32293 0.85052 0.38693 0.0
H953 H 0.31927 0.92922 0.40146 0.0
H954 H 0.33844 0.863 0.35658 0.0
H955 H 0.30357 0.86438 0.3549 0.0
H956 H 0.31814 0.84036 0.36528 0.0
H957 H 0.33314 0.96363 0.38 0.0
H958 H 0.30078 0.96303 0.38653 0.0
H959 H 0.30552 0.95937 0.36942 0.0
C960 C 0.05614 0.59135 0.04017 0.0
C961 C 0.06541 0.61701 0.03894 0.0
C962 C 0.02906 0.58604 0.03975 0.0
C963 C 0.01112 0.60684 0.03779 0.0
C964 C 0.02075 0.63235 0.03545 0.0
C965 C 0.04771 0.63716 0.03623 0.0
C966 C 0.01961 0.55863 0.04236 0.0
C967 C 0.00247 0.65506 0.03305 0.0
C968 C 0.9379 0.60051 0.03169 0.0
C969 C 0.92791 0.60867 0.04359 0.0
C970 C 0.9651 0.598 0.02978 0.0
C971 C 0.98249 0.60329 0.04008 0.0
C972 C 0.9722 0.60922 0.05238 0.0
C973 C 0.9451 0.61215 0.05394 0.0
C974 C 0.97521 0.59177 0.01651 0.0
C975 C 0.98989 0.61437 0.06374 0.0
H976 H 0.06985 0.57578 0.04234 0.0
H977 H 0.05493 0.65698 0.0352 0.0
H978 H 0.01035 0.55793 0.052 0.0
H979 H 0.00452 0.55279 0.03526 0.0
H980 H 0.03585 0.54417 0.0421 0.0
H981 H 0.01307 0.67267 0.02962 0.0
H982 H 0.9874 0.64972 0.02584 0.0
H983 H 0.99216 0.66019 0.0421 0.0
H984 H 0.92461 0.59781 0.02368 0.0
H985 H 0.93737 0.61809 0.0632 0.0
H986 H 0.99123 0.57715 0.01696 0.0
H987 H 0.98341 0.60978 0.01215 0.0
H988 H 0.95951 0.58423 0.01012 0.0
H989 H 0.00505 0.59891 0.06451 0.0
H990 H 0.97885 0.61528 0.07292 0.0
H991 H 0.00014 0.63329 0.06238 0.0
C992 C 0.60797 0.69523 0.2966 0.0
C993 C 0.62612 0.67666 0.29215 0.0
C994 C 0.61206 0.72208 0.29494 0.0
C995 C 0.63503 0.73093 0.28872 0.0
C996 C 0.65339 0.71241 0.28403 0.0
C997 C 0.64871 0.68546 0.28579 0.0
C998 C 0.59174 0.74103 0.29997 0.0
C999 C 0.67818 0.72106 0.27742 0.0
C1000 C 0.6264 0.80112 0.27789 0.0
C1001 C 0.63551 0.81465 0.28869 0.0
C1002 C 0.62838 0.77372 0.27716 0.0
C1003 C 0.63954 0.75968 0.28755 0.0
C1004 C 0.65067 0.77363 0.29798 0.0
C1005 C 0.64829 0.80099 0.29848 0.0
C1006 C 0.61644 0.75972 0.26582 0.0
C1007 C 0.663 0.75956 0.30919 0.0
H1008 H 0.5903 0.68881 0.30141 0.0
H1009 H 0.66288 0.67133 0.28231 0.0
H1010 H 0.60061 0.75393 0.30737 0.0
H1011 H 0.58463 0.75372 0.29208 0.0
H1012 H 0.57464 0.73095 0.3043 0.0
H1013 H 0.68861 0.70446 0.27278 0.0
H1014 H 0.67384 0.73604 0.27003 0.0
H1015 H 0.69149 0.73015 0.28456 0.0
H1016 H 0.61626 0.81179 0.2704 0.0
H1017 H 0.6551 0.81156 0.30688 0.0
H1018 H 0.59762 0.75071 0.26876 0.0
H1019 H 0.62947 0.74376 0.26244 0.0
H1020 H 0.61256 0.77323 0.25769 0.0
H1021 H 0.64741 0.7505 0.31511 0.0
H1022 H 0.67448 0.77304 0.31539 0.0
H1023 H 0.67604 0.74365 0.30577 0.0
C1024 C 0.44302 0.38434 0.55308 0.0
C1025 C 0.42672 0.37869 0.54263 0.0
C1026 C 0.4703 0.38539 0.55161 0.0
C1027 C 0.48158 0.37972 0.53949 0.0
C1028 C 0.46504 0.37538 0.52874 0.0
C1029 C 0.4377 0.37515 0.53044 0.0
C1030 C 0.48712 0.39088 0.56324 0.0
C1031 C 0.47613 0.36889 0.51569 0.0
C1032 C 0.55512 0.39107 0.53647 0.0
C1033 C 0.56511 0.36663 0.54018 0.0
C1034 C 0.52794 0.39549 0.5357 0.0
C1035 C 0.51036 0.37492 0.53859 0.0
C1036 C 0.52038 0.3499 0.54173 0.0
C1037 C 0.54754 0.34613 0.54257 0.0
C1038 C 0.51807 0.42245 0.53236 0.0
C1039 C 0.50238 0.32725 0.54463 0.0
H1040 H 0.43441 0.387 0.56252 0.0
H1041 H 0.42501 0.3704 0.52241 0.0
H1042 H 0.49724 0.37267 0.56622 0.0
H1043 H 0.50241 0.40551 0.5609 0.0
H1044 H 0.47542 0.39823 0.57149 0.0
H1045 H 0.46118 0.37077 0.508 0.0
H1046 H 0.49296 0.38173 0.51337 0.0
H1047 H 0.4834 0.34844 0.51572 0.0
H1048 H 0.56851 0.40703 0.53456 0.0
H1049 H 0.55501 0.32707 0.54526 0.0
H1050 H 0.50933 0.43162 0.54103 0.0
H1051 H 0.50249 0.42132 0.52496 0.0
H1052 H 0.53398 0.43532 0.52879 0.0
H1053 H 0.49159 0.33116 0.55369 0.0
H1054 H 0.51318 0.30852 0.54569 0.0
H1055 H 0.48764 0.32498 0.53688 0.0
C1056 C 0.84295 0.3049 0.78674 0.0
C1057 C 0.86773 0.31502 0.7898 0.0
C1058 C 0.83892 0.27772 0.78559 0.0
C1059 C 0.86025 0.26037 0.78739 0.0
C1060 C 0.88554 0.27066 0.78977 0.0
C1061 C 0.88889 0.29774 0.79107 0.0
C1062 C 0.81161 0.26767 0.78312 0.0
C1063 C 0.90901 0.25297 0.79141 0.0
C1064 C 0.8555 0.19269 0.80171 0.0
C1065 C 0.86019 0.17677 0.79101 0.0
C1066 C 0.85299 0.21986 0.80043 0.0
C1067 C 0.85623 0.2315 0.7882 0.0
C1068 C 0.85947 0.21531 0.77723 0.0
C1069 C 0.8611 0.18798 0.77876 0.0
C1070 C 0.84861 0.23624 0.81232 0.0
C1071 C 0.86298 0.22691 0.76404 0.0
H1072 H 0.8265 0.31813 0.78567 0.0
H1073 H 0.90822 0.3054 0.79316 0.0
H1074 H 0.81183 0.25078 0.77643 0.0
H1075 H 0.80299 0.26089 0.79231 0.0
H1076 H 0.79869 0.28312 0.77911 0.0
H1077 H 0.92764 0.26409 0.79201 0.0
H1078 H 0.9068 0.24133 0.80033 0.0
H1079 H 0.91034 0.239 0.78327 0.0
H1080 H 0.85457 0.1839 0.81117 0.0
H1081 H 0.8648 0.17558 0.77049 0.0
H1082 H 0.833 0.25092 0.8106 0.0
H1083 H 0.86682 0.24703 0.8147 0.0
H1084 H 0.84304 0.22416 0.82074 0.0
H1085 H 0.84707 0.24106 0.76197 0.0
H1086 H 0.86317 0.21171 0.75639 0.0
H1087 H 0.88174 0.23782 0.76366 0.0
C1088 C 0.93098 0.39123 0.94342 0.0
C1089 C 0.92262 0.3681 0.93736 0.0
C1090 C 0.95786 0.39658 0.94512 0.0
C1091 C 0.97678 0.37847 0.9406 0.0
C1092 C 0.96837 0.3546 0.93506 0.0
C1093 C 0.94155 0.34975 0.93352 0.0
C1094 C 0.9659 0.42212 0.95122 0.0
C1095 C 0.98776 0.33449 0.93025 0.0
C1096 C 0.04388 0.39385 0.9274 0.0
C1097 C 0.06013 0.38346 0.93692 0.0
C1098 C 0.01665 0.39517 0.92915 0.0
C1099 C 0.00535 0.3848 0.94048 0.0
C1100 C 0.02192 0.37605 0.95052 0.0
C1101 C 0.04923 0.37573 0.94866 0.0
C1102 C -0.00017 0.4056 0.9184 0.0
C1103 C 0.01078 0.36487 0.96275 0.0
H1104 H 0.91658 0.40549 0.94651 0.0
H1105 H 0.93548 0.33164 0.929 0.0
H1106 H 0.98292 0.41942 0.95771 0.0
H1107 H 0.97184 0.43601 0.94359 0.0
H1108 H 0.94959 0.43108 0.95676 0.0
H1109 H 0.97808 0.31617 0.92703 0.0
H1110 H -0.00106 0.34262 0.92205 0.0
H1111 H 0.00203 0.32958 0.93791 0.0
H1112 H 0.0524 0.39993 0.91834 0.0
H1113 H 0.06187 0.36754 0.956 0.0
H1114 H 0.98428 0.41858 0.92226 0.0
H1115 H 0.99008 0.38906 0.91341 0.0
H1116 H 0.0115 0.41667 0.91124 0.0
H1117 H -0.0051 0.37755 0.96653 0.0
H1118 H 0.02599 0.36252 0.97029 0.0
H1119 H 0.00212 0.34541 0.96072 0.0
C1120 C 0.8474 0.80426 0.18609 0.0
C1121 C 0.87229 0.81498 0.18823 0.0
C1122 C 0.84372 0.77695 0.18577 0.0
C1123 C 0.86531 0.7601 0.18803 0.0
C1124 C 0.89011 0.771 0.19093 0.0
C1125 C 0.89334 0.79822 0.19084 0.0
C1126 C 0.81701 0.76616 0.18257 0.0
C1127 C 0.91356 0.75387 0.19366 0.0
C1128 C 0.85845 0.68751 0.19553 0.0
C1129 C 0.86685 0.67618 0.18395 0.0
C1130 C 0.85676 0.71487 0.19691 0.0
C1131 C 0.86293 0.73118 0.18635 0.0
C1132 C 0.86977 0.71967 0.17441 0.0
C1133 C 0.87207 0.69238 0.17343 0.0
C1134 C 0.8498 0.72631 0.20984 0.0
C1135 C 0.87566 0.73626 0.16279 0.0
H1136 H 0.83108 0.81718 0.18406 0.0
H1137 H 0.91256 0.80643 0.19267 0.0
H1138 H 0.81836 0.75253 0.17429 0.0
H1139 H 0.80937 0.75487 0.19083 0.0
H1140 H 0.80273 0.78183 0.18021 0.0
H1141 H 0.93081 0.76536 0.19689 0.0
H1142 H 0.90871 0.7393 0.20117 0.0
H1143 H 0.91904 0.74291 0.18485 0.0
H1144 H 0.85445 0.67505 0.20371 0.0
H1145 H 0.87822 0.68367 0.16441 0.0
H1146 H 0.8337 0.74071 0.20886 0.0
H1147 H 0.86696 0.73691 0.21381 0.0
H1148 H 0.84378 0.71108 0.21683 0.0
H1149 H 0.85981 0.75078 0.16127 0.0
H1150 H 0.87784 0.72434 0.15392 0.0
H1151 H 0.89408 0.74728 0.16438 0.0
C1152 C 0.44493 0.62734 0.42578 0.0
C1153 C 0.42663 0.61488 0.43374 0.0
C1154 C 0.47192 0.62425 0.42769 0.0
C1155 C 0.4811 0.6083 0.43784 0.0
C1156 C 0.46284 0.59517 0.44578 0.0
C1157 C 0.4358 0.59859 0.44363 0.0
C1158 C 0.49065 0.63854 0.41893 0.0
C1159 C 0.47177 0.57826 0.4568 0.0
C1160 C 0.55234 0.59052 0.4327 0.0
C1161 C 0.5647 0.61175 0.43862 0.0
C1162 C 0.52498 0.58768 0.43331 0.0
C1163 C 0.50988 0.60638 0.44013 0.0
C1164 C 0.52274 0.62627 0.44722 0.0
C1165 C 0.55001 0.62902 0.44617 0.0
C1166 C 0.51213 0.56614 0.42566 0.0
C1167 C 0.50757 0.64605 0.45501 0.0
H1168 H 0.43818 0.63987 0.41808 0.0
H1169 H 0.42188 0.58897 0.44989 0.0
H1170 H 0.5023 0.6528 0.42458 0.0
H1171 H 0.50459 0.62452 0.4145 0.0
H1172 H 0.48039 0.64925 0.41114 0.0
H1173 H 0.45562 0.56605 0.46066 0.0
H1174 H 0.48809 0.56527 0.45381 0.0
H1175 H 0.47919 0.59092 0.46467 0.0
H1176 H 0.56381 0.57729 0.4268 0.0
H1177 H 0.55972 0.6454 0.45077 0.0
H1178 H 0.50308 0.57459 0.41691 0.0
H1179 H 0.49632 0.55675 0.4313 0.0
H1180 H 0.52642 0.55092 0.42265 0.0
H1181 H 0.4983 0.6604 0.44844 0.0
H1182 H 0.5204 0.65686 0.4618 0.0
H1183 H 0.49172 0.6364 0.46052 0.0
C1184 C 0.6345 0.18546 0.69955 0.0
C1185 C 0.63449 0.17426 0.68726 0.0
C1186 C 0.63676 0.21272 0.70113 0.0
C1187 C 0.63935 0.22889 0.69016 0.0
C1188 C 0.64215 0.21718 0.67788 0.0
C1189 C 0.6392 0.19004 0.67656 0.0
C1190 C 0.63377 0.22429 0.71439 0.0
C1191 C 0.6458 0.23353 0.66596 0.0
C1192 C 0.60227 0.29278 0.68777 0.0
C1193 C 0.62231 0.31145 0.68851 0.0
C1194 C 0.60753 0.26604 0.68904 0.0
C1195 C 0.63362 0.25749 0.69097 0.0
C1196 C 0.65386 0.27624 0.69234 0.0
C1197 C 0.64792 0.30309 0.69121 0.0
C1198 C 0.5852 0.24685 0.68771 0.0
C1199 C 0.68184 0.26794 0.69458 0.0
H1200 H 0.63068 0.17318 0.70782 0.0
H1201 H 0.63925 0.18126 0.66706 0.0
H1202 H 0.6476 0.24072 0.71585 0.0
H1203 H 0.61365 0.23216 0.71549 0.0
H1204 H 0.63708 0.20945 0.722 0.0
H1205 H 0.65187 0.22149 0.65757 0.0
H1206 H 0.62709 0.24344 0.66356 0.0
H1207 H 0.66074 0.24892 0.66761 0.0
H1208 H 0.58235 0.29906 0.68591 0.0
H1209 H 0.66348 0.31743 0.69188 0.0
H1210 H 0.58515 0.23298 0.69588 0.0
H1211 H 0.58773 0.23524 0.67877 0.0
H1212 H 0.56583 0.25673 0.68731 0.0
H1213 H 0.68345 0.25806 0.70402 0.0
H1214 H 0.69557 0.28478 0.69447 0.0
H1215 H 0.68805 0.25365 0.68714 0.0
C1216 C 0.37973 0.29779 0.69847 0.0
C1217 C 0.36303 0.31231 0.69057 0.0
C1218 C 0.37765 0.27047 0.69916 0.0
C1219 C 0.35906 0.25734 0.69138 0.0
C1220 C 0.34094 0.27216 0.68407 0.0
C1221 C 0.34303 0.29961 0.68382 0.0
C1222 C 0.39655 0.25555 0.70754 0.0
C1223 C 0.32062 0.25898 0.67578 0.0
C1224 C 0.38323 0.1922 0.67837 0.0
C1225 C 0.36992 0.17408 0.68606 0.0
C1226 C 0.3792 0.2192 0.67983 0.0
C1227 C 0.36158 0.22853 0.6893 0.0
C1228 C 0.34767 0.2104 0.69697 0.0
C1229 C 0.35198 0.1834 0.69525 0.0
C1230 C 0.3942 0.2378 0.67131 0.0
C1231 C 0.32898 0.21937 0.70731 0.0
H1232 H 0.39506 0.30777 0.70376 0.0
H1233 H 0.33015 0.31096 0.67771 0.0
H1234 H 0.38605 0.24035 0.71311 0.0
H1235 H 0.41122 0.24548 0.70142 0.0
H1236 H 0.40707 0.2686 0.71435 0.0
H1237 H 0.3061 0.27311 0.67192 0.0
H1238 H 0.33042 0.24909 0.66758 0.0
H1239 H 0.3101 0.24376 0.68132 0.0
H1240 H 0.39695 0.18531 0.67118 0.0
H1241 H 0.34163 0.16962 0.7013 0.0
H1242 H 0.40742 0.25007 0.67726 0.0
H1243 H 0.38044 0.25115 0.66631 0.0
H1244 H 0.40616 0.22743 0.66399 0.0
H1245 H 0.34035 0.22543 0.71589 0.0
H1246 H 0.31536 0.20352 0.71022 0.0
H1247 H 0.31731 0.23647 0.70413 0.0
C1248 C 0.1498 0.68503 0.18453 0.0
C1249 C 0.12507 0.6736 0.18601 0.0
C1250 C 0.15286 0.71238 0.18528 0.0
C1251 C 0.13076 0.72836 0.18789 0.0
C1252 C 0.10628 0.71651 0.19049 0.0
C1253 C 0.10366 0.68935 0.1893 0.0
C1254 C 0.17926 0.72423 0.18244 0.0
C1255 C 0.08237 0.73265 0.19369 0.0
C1256 C 0.13355 0.80155 0.19477 0.0
C1257 C 0.12451 0.81171 0.18307 0.0
C1258 C 0.13699 0.77442 0.19641 0.0
C1259 C 0.13184 0.75725 0.186 0.0
C1260 C 0.12442 0.76771 0.17395 0.0
C1261 C 0.12049 0.79472 0.17269 0.0
C1262 C 0.14454 0.76409 0.20946 0.0
C1263 C 0.11936 0.75024 0.1625 0.0
H1264 H 0.16637 0.67278 0.18202 0.0
H1265 H 0.08461 0.68042 0.19064 0.0
H1266 H 0.17826 0.73532 0.1733 0.0
H1267 H 0.18481 0.73828 0.1901 0.0
H1268 H 0.19484 0.70917 0.18158 0.0
H1269 H 0.06589 0.72039 0.19717 0.0
H1270 H 0.08707 0.74743 0.20116 0.0
H1271 H 0.07578 0.74331 0.185 0.0
H1272 H 0.13664 0.81466 0.20283 0.0
H1273 H 0.11388 0.80255 0.16358 0.0
H1274 H 0.16025 0.74922 0.20861 0.0
H1275 H 0.12737 0.75437 0.2139 0.0
H1276 H 0.15127 0.77991 0.216 0.0
H1277 H 0.13585 0.73638 0.16112 0.0
H1278 H 0.11664 0.76156 0.1535 0.0
H1279 H 0.10144 0.73849 0.1642 0.0
C1280 C 0.13844 0.18424 0.78285 0.0
C1281 C 0.11656 0.17529 0.78977 0.0
C1282 C 0.14304 0.21117 0.78111 0.0
C1283 C 0.12554 0.22962 0.78655 0.0
C1284 C 0.10301 0.22067 0.79315 0.0
C1285 C 0.09878 0.19374 0.79465 0.0
C1286 C 0.16707 0.21975 0.77382 0.0
C1287 C 0.08367 0.23962 0.79902 0.0
C1288 C 0.14412 0.29719 0.79832 0.0
C1289 C 0.13093 0.31307 0.78952 0.0
C1290 C 0.14464 0.2699 0.79678 0.0
C1291 C 0.13126 0.25827 0.78629 0.0
C1292 C 0.11977 0.2745 0.77681 0.0
C1293 C 0.11959 0.3018 0.77859 0.0
C1294 C 0.15759 0.25344 0.80698 0.0
C1295 C 0.10594 0.26297 0.76531 0.0
H1296 H 0.15223 0.17023 0.77892 0.0
H1297 H 0.08171 0.18718 0.7999 0.0
H1298 H 0.16259 0.23655 0.76746 0.0
H1299 H 0.18229 0.22621 0.78074 0.0
H1300 H 0.17535 0.20363 0.76791 0.0
H1301 H 0.06669 0.22955 0.80347 0.0
H1302 H 0.09354 0.25155 0.8065 0.0
H1303 H 0.07626 0.25324 0.79158 0.0
H1304 H 0.15271 0.30601 0.80681 0.0
H1305 H 0.10921 0.31418 0.77184 0.0
H1306 H 0.16999 0.23811 0.80252 0.0
H1307 H 0.14233 0.24344 0.81275 0.0
H1308 H 0.16991 0.26535 0.81355 0.0
H1309 H 0.11799 0.2473 0.76089 0.0
H1310 H 0.10158 0.278 0.75792 0.0
H1311 H 0.08722 0.25401 0.76842 0.0
C1312 C 0.34251 0.68447 0.29164 0.0
C1313 C 0.36748 0.67412 0.28927 0.0
C1314 C 0.33818 0.7117 0.29148 0.0
C1315 C 0.35919 0.72882 0.28857 0.0
C1316 C 0.38386 0.71817 0.28516 0.0
C1317 C 0.3878 0.69104 0.28575 0.0
C1318 C 0.31163 0.72218 0.29522 0.0
C1319 C 0.40661 0.73553 0.2816 0.0
C1320 C 0.35207 0.80216 0.28264 0.0
C1321 C 0.36179 0.81237 0.29422 0.0
C1322 C 0.34975 0.77492 0.28078 0.0
C1323 C 0.35687 0.75762 0.29082 0.0
C1324 C 0.36486 0.76804 0.30281 0.0
C1325 C 0.36749 0.79517 0.30431 0.0
C1326 C 0.3413 0.7647 0.26782 0.0
C1327 C 0.37206 0.75044 0.3139 0.0
H1328 H 0.32674 0.67141 0.29434 0.0
H1329 H 0.40703 0.68304 0.2837 0.0
H1330 H 0.31305 0.73221 0.30466 0.0
H1331 H 0.30482 0.73684 0.28814 0.0
H1332 H 0.29673 0.70643 0.29596 0.0
H1333 H 0.42331 0.72421 0.27759 0.0
H1334 H 0.40045 0.75032 0.27443 0.0
H1335 H 0.41352 0.7462 0.29025 0.0
H1336 H 0.34769 0.81536 0.27479 0.0
H1337 H 0.37467 0.80295 0.31334 0.0
H1338 H 0.32659 0.74893 0.2689 0.0
H1339 H 0.35846 0.75615 0.2628 0.0
H1340 H 0.33293 0.78036 0.26169 0.0
H1341 H 0.3565 0.73569 0.31552 0.0
H1342 H 0.37514 0.76155 0.32296 0.0
H1343 H 0.39037 0.73971 0.3116 0.0
C1344 C 0.43329 0.09183 0.54053 0.0
C1345 C 0.4223 0.11609 0.53734 0.0
C1346 C 0.46063 0.08815 0.5404 0.0
C1347 C 0.47719 0.10904 0.53668 0.0
C1348 C 0.46589 0.13276 0.53236 0.0
C1349 C 0.43864 0.13616 0.53297 0.0
C1350 C 0.47178 0.06262 0.54515 0.0
C1351 C 0.48269 0.15515 0.52778 0.0
C1352 C 0.54332 0.12046 0.5523 0.0
C1353 C 0.56079 0.11268 0.54263 0.0
C1354 C 0.51616 0.11789 0.55071 0.0
C1355 C 0.50604 0.10785 0.53903 0.0
C1356 C 0.52359 0.0991 0.52938 0.0
C1357 C 0.5508 0.10128 0.53137 0.0
C1358 C 0.49825 0.12697 0.56137 0.0
C1359 C 0.51367 0.08826 0.51679 0.0
H1360 H 0.42064 0.07629 0.54392 0.0
H1361 H 0.43011 0.1548 0.5303 0.0
H1362 H 0.4875 0.05557 0.53867 0.0
H1363 H 0.48064 0.06566 0.55478 0.0
H1364 H 0.45654 0.04722 0.54595 0.0
H1365 H 0.4709 0.1708 0.52317 0.0
H1366 H 0.49338 0.16375 0.53605 0.0
H1367 H 0.49751 0.14805 0.52079 0.0
H1368 H 0.55089 0.12898 0.56109 0.0
H1369 H 0.56421 0.09519 0.52387 0.0
H1370 H 0.48369 0.11158 0.56365 0.0
H1371 H 0.48727 0.14455 0.55822 0.0
H1372 H 0.50916 0.13195 0.57028 0.0
H1373 H 0.50375 0.0693 0.51848 0.0
H1374 H 0.52972 0.08507 0.50976 0.0
H1375 H 0.49903 0.10169 0.51249 0.0
C1376 C 0.93898 0.87749 0.05041 0.0
C1377 C 0.92364 0.87014 0.03989 0.0
C1378 C 0.96611 0.88112 0.04909 0.0
C1379 C 0.97824 0.87655 0.03704 0.0
C1380 C 0.96255 0.86989 0.02628 0.0
C1381 C 0.93533 0.86699 0.02782 0.0
C1382 C 0.98196 0.88879 0.06074 0.0
C1383 C 0.97462 0.86454 0.0133 0.0
C1384 C 0.05011 0.89673 0.03438 0.0
C1385 C 0.06286 0.87348 0.03796 0.0
C1386 C 0.02255 0.8979 0.03349 0.0
C1387 C 0.00744 0.87535 0.03625 0.0
C1388 C 0.0203 0.85165 0.0393 0.0
C1389 C 0.04767 0.85103 0.04012 0.0
C1390 C 0.00959 0.92345 0.03001 0.0
C1391 C 0.00508 0.827 0.04211 0.0
H1392 H 0.92975 0.88012 0.0597 0.0
H1393 H 0.9233 0.86127 0.0197 0.0
H1394 H -0.00514 0.87231 0.06357 0.0
H1395 H 0.99473 0.90568 0.05846 0.0
H1396 H 0.96937 0.89402 0.06906 0.0
H1397 H 0.95959 0.86268 0.00563 0.0
H1398 H 0.98844 0.88035 0.01066 0.0
H1399 H 0.98599 0.84607 0.01369 0.0
H1400 H 0.06158 0.91412 0.03252 0.0
H1401 H 0.05717 0.83279 0.04265 0.0
H1402 H -0.00045 0.93159 0.03858 0.0
H1403 H 0.99446 0.92035 0.02251 0.0
H1404 H 0.02391 0.9381 0.02648 0.0
H1405 H 0.99344 0.8297 0.05102 0.0
H1406 H 0.01803 0.80974 0.04339 0.0
H1407 H 0.99114 0.82279 0.03421 0.0
C1408 C 0.4405 0.85021 0.43679 0.0
C1409 C 0.42358 0.87151 0.43501 0.0
C1410 C 0.46761 0.85378 0.43798 0.0
C1411 C 0.47831 0.87925 0.43708 0.0
C1412 C 0.46128 0.90098 0.43569 0.0
C1413 C 0.43404 0.89686 0.4348 0.0
C1414 C 0.4849 0.8301 0.43982 0.0
C1415 C 0.47181 0.92842 0.43452 0.0
C1416 C 0.55018 0.88338 0.44675 0.0
C1417 C 0.56239 0.87755 0.43503 0.0
C1418 C 0.5227 0.88553 0.44753 0.0
C1419 C 0.50734 0.88235 0.43628 0.0
C1420 C 0.51993 0.87859 0.4243 0.0
C1421 C 0.54722 0.87581 0.42386 0.0
C1422 C 0.5101 0.88943 0.4605 0.0
C1423 C 0.50446 0.87595 0.412 0.0
H1424 H 0.4325 0.8306 0.43725 0.0
H1425 H 0.42104 0.9134 0.43348 0.0
H1426 H 0.49714 0.82707 0.43114 0.0
H1427 H 0.49836 0.83321 0.44805 0.0
H1428 H 0.47341 0.81203 0.44156 0.0
H1429 H 0.45626 0.94334 0.43599 0.0
H1430 H 0.48775 0.93195 0.44155 0.0
H1431 H 0.48017 0.9311 0.42478 0.0
H1432 H 0.56194 0.8847 0.45539 0.0
H1433 H 0.55673 0.87166 0.41476 0.0
H1434 H 0.50084 0.87086 0.46359 0.0
H1435 H 0.49443 0.90442 0.45998 0.0
H1436 H 0.52455 0.89541 0.46792 0.0
H1437 H 0.49377 0.85708 0.412 0.0
H1438 H 0.51722 0.87659 0.40336 0.0
H1439 H 0.4897 0.89181 0.41127 0.0
C1440 C 0.05067 0.0973 0.9252 0.0
C1441 C 0.06605 0.10565 0.93553 0.0
C1442 C 0.02334 0.09554 0.92637 0.0
C1443 C 0.01112 0.10314 0.93802 0.0
C1444 C 0.02682 0.11044 0.94868 0.0
C1445 C 0.05421 0.11141 0.94732 0.0
C1446 C 0.00743 0.08691 0.9149 0.0
C1447 C 0.01463 0.11871 0.96125 0.0
C1448 C 0.9447 0.1347 0.93316 0.0
C1449 C 0.9273 0.11448 0.93636 0.0
C1450 C 0.97186 0.13141 0.93412 0.0
C1451 C 0.98218 0.10723 0.93833 0.0
C1452 C 0.96482 0.08697 0.94204 0.0
C1453 C 0.93755 0.09084 0.94101 0.0
C1454 C 0.98957 0.15373 0.93026 0.0
C1455 C 0.97494 0.06087 0.9466 0.0
H1456 H 0.06001 0.09271 0.91611 0.0
H1457 H 0.06627 0.1179 0.95528 0.0
H1458 H 0.9928 0.07203 0.91781 0.0
H1459 H -0.00346 0.10388 0.91097 0.0
H1460 H 0.01989 0.07859 0.90716 0.0
H1461 H 0.02948 0.12122 0.96896 0.0
H1462 H 0.00418 0.13754 0.95994 0.0
H1463 H -2e-05 0.10408 0.96442 0.0
H1464 H 0.93711 0.15321 0.92974 0.0
H1465 H 0.92434 0.0751 0.94355 0.0
H1466 H 0.00123 0.14803 0.92171 0.0
H1467 H 0.00355 0.15822 0.93812 0.0
H1468 H 0.97846 0.17179 0.92794 0.0
H1469 H 0.98118 0.04912 0.93817 0.0
H1470 H 0.95967 0.04973 0.95185 0.0
H1471 H 0.99223 0.06326 0.95295 0.0
C1472 C 0.15724 0.44798 0.97566 0.0
C1473 C 0.1792 0.44218 0.96812 0.0
C1474 C 0.15794 0.46811 0.98475 0.0
C1475 C 0.18101 0.48313 0.98612 0.0
C1476 C 0.20368 0.47657 0.97897 0.0
C1477 C 0.20257 0.45593 0.97008 0.0
C1478 C 0.1335 0.47418 -0.00763 0.0
C1479 C 0.22864 0.49215 0.98025 0.0
C1480 C 0.16823 0.55347 -0.00482 0.0
C1481 C 0.17248 0.55308 0.00846 0.0
C1482 C 0.17165 0.5309 0.98777 0.0
C1483 C 0.18008 0.50755 -0.00624 0.0
C1484 C 0.1854 0.50727 0.0071 0.0
C1485 C 0.18119 0.53004 0.01435 0.0
C1486 C 0.16535 0.53183 0.97359 0.0
C1487 C 0.19489 0.48281 0.01373 0.0
H1488 H 0.13932 0.43693 0.97435 0.0
H1489 H 0.21963 0.45124 0.96433 0.0
H1490 H 0.13822 0.4767 0.0027 0.0
H1491 H 0.12491 0.49283 -0.01107 0.0
H1492 H 0.11849 0.45858 -0.00858 0.0
H1493 H 0.24527 0.4828 0.97511 0.0
H1494 H 0.22563 0.512 0.97622 0.0
H1495 H 0.23395 0.49458 -0.00949 0.0
H1496 H 0.16147 0.57128 -0.00938 0.0
H1497 H 0.18483 0.52986 0.02461 0.0
H1498 H 0.14867 0.5186 0.97148 0.0
H1499 H 0.18232 0.52484 0.96789 0.0
H1500 H 0.16011 0.55182 0.97033 0.0
H1501 H 0.17902 0.46802 0.01383 0.0
H1502 H 0.20102 0.48666 0.0238 0.0
H1503 H 0.21164 0.47416 0.00843 0.0
C1504 C 0.78714 0.9519 0.21767 0.0
C1505 C 0.7865 0.93101 0.20892 0.0
C1506 C 0.76932 0.9533 0.22785 0.0
C1507 C 0.75001 0.9337 0.22909 0.0
C1508 C 0.74826 0.9134 0.21985 0.0
C1509 C 0.76674 0.91215 0.20991 0.0
C1510 C 0.77202 0.97499 0.23764 0.0
C1511 C 0.72733 0.89264 0.2207 0.0
C1512 C 0.72165 0.91949 0.26195 0.0
C1513 C 0.69798 0.93326 0.26143 0.0
C1514 C 0.73906 0.91987 0.25155 0.0
C1515 C 0.73228 0.93395 0.24032 0.0
C1516 C 0.70862 0.94823 0.23984 0.0
C1517 C 0.69188 0.94798 0.25048 0.0
C1518 C 0.76449 0.9049 0.25247 0.0
C1519 C 0.70061 0.96314 0.22796 0.0
H1520 H 0.80243 0.9665 0.21699 0.0
H1521 H 0.76612 0.89609 0.2031 0.0
H1522 H 0.75324 0.98568 0.23869 0.0
H1523 H 0.77684 0.96654 0.24716 0.0
H1524 H 0.78754 0.98922 0.23502 0.0
H1525 H 0.72825 0.8786 0.21256 0.0
H1526 H 0.72943 0.88161 0.2298 0.0
H1527 H 0.70768 0.90191 0.22081 0.0
H1528 H 0.72641 0.90815 0.27043 0.0
H1529 H 0.67349 0.95851 0.24998 0.0
H1530 H 0.78124 0.91813 0.25056 0.0
H1531 H 0.76498 0.88927 0.24507 0.0
H1532 H 0.76725 0.8958 0.26206 0.0
H1533 H 0.7156 0.97804 0.22558 0.0
H1534 H 0.68143 0.97312 0.22913 0.0
H1535 H 0.69932 0.94958 0.21965 0.0
C1536 C 0.32771 0.44469 0.50144 0.0
C1537 C 0.308 0.44413 0.51078 0.0
C1538 C 0.32562 0.46101 0.49072 0.0
C1539 C 0.30372 0.47781 0.48958 0.0
C1540 C 0.28338 0.47682 0.49881 0.0
C1541 C 0.28561 0.45963 0.50924 0.0
C1542 C 0.34735 0.46097 0.48088 0.0
C1543 C 0.25999 0.49481 0.49803 0.0
C1544 C 0.32161 0.53993 0.47233 0.0
C1545 C 0.3111 0.53558 0.46009 0.0
C1546 C 0.31789 0.52189 0.48221 0.0
C1547 C 0.30406 0.49851 0.47966 0.0
C1548 C 0.29288 0.49421 0.46738 0.0
C1549 C 0.29622 0.5131 0.45774 0.0
C1550 C 0.32939 0.52759 0.4953 0.0
C1551 C 0.27846 0.46926 0.46425 0.0
H1552 H 0.34473 0.43218 0.50245 0.0
H1553 H 0.27025 0.45894 0.51643 0.0
H1554 H 0.33916 0.46043 0.47101 0.0
H1555 H 0.35895 0.47921 0.4818 0.0
H1556 H 0.36079 0.44406 0.48209 0.0
H1557 H 0.24447 0.4894 0.50501 0.0
H1558 H 0.26631 0.51515 0.50008 0.0
H1559 H 0.25152 0.49463 0.48822 0.0
H1560 H 0.33257 0.55768 0.47423 0.0
H1561 H 0.28792 0.50995 0.44828 0.0
H1562 H 0.34586 0.51399 0.4972 0.0
H1563 H 0.31449 0.52444 0.5029 0.0
H1564 H 0.33681 0.54794 0.49609 0.0
H1565 H 0.2926 0.45279 0.46393 0.0
H1566 H 0.26827 0.47033 0.45483 0.0
H1567 H 0.26388 0.4647 0.4718 0.0
C1568 C 0.78277 0.08347 0.75558 0.0
C1569 C 0.79521 0.06087 0.7601 0.0
C1570 C 0.76473 0.08216 0.74548 0.0
C1571 C 0.75868 0.05759 0.73997 0.0
C1572 C 0.77127 0.03471 0.74444 0.0
C1573 C 0.78953 0.03665 0.75444 0.0
C1574 C 0.75172 0.10702 0.74094 0.0
C1575 C 0.76514 0.00819 0.73879 0.0
C1576 C 0.69147 0.05127 0.72528 0.0
C1577 C 0.69675 0.05546 0.71225 0.0
C1578 C 0.71156 0.05176 0.73438 0.0
C1579 C 0.73763 0.05565 0.73026 0.0
C1580 C 0.74325 0.05881 0.71703 0.0
C1581 C 0.72256 0.05917 0.70815 0.0
C1582 C 0.70473 0.04911 0.74844 0.0
C1583 C 0.77095 0.06248 0.71232 0.0
H1584 H 0.78738 0.1023 0.75981 0.0
H1585 H 0.79923 0.01915 0.75789 0.0
H1586 H 0.75223 0.10831 0.73031 0.0
H1587 H 0.73085 0.10696 0.74389 0.0
H1588 H 0.76119 0.12477 0.74499 0.0
H1589 H 0.77772 0.99252 0.74285 0.0
H1590 H 0.74437 0.00317 0.74068 0.0
H1591 H 0.76778 0.00857 0.72821 0.0
H1592 H 0.6714 0.04881 0.72845 0.0
H1593 H 0.72651 0.0624 0.69805 0.0
H1594 H 0.71039 0.06719 0.75366 0.0
H1595 H 0.71585 0.03272 0.75277 0.0
H1596 H 0.6835 0.04565 0.75 0.0
H1597 H 0.77878 0.08132 0.71594 0.0
H1598 H 0.77218 0.06243 0.70166 0.0
H1599 H 0.78374 0.04673 0.71611 0.0
C1600 C 0.78949 0.53669 0.00587 0.0
C1601 C 0.81357 0.54505 0.01086 0.0
C1602 C 0.78842 0.51839 -0.00418 0.0
C1603 C 0.81202 0.50864 -0.00948 0.0
C1604 C 0.83637 0.51782 -0.00482 0.0
C1605 C 0.83686 0.53569 0.00541 0.0
C1606 C 0.76209 0.50891 -0.00886 0.0
C1607 C 0.86192 0.50832 -0.01045 0.0
C1608 C 0.81166 0.43991 0.97711 0.0
C1609 C 0.81274 0.44443 0.96388 0.0
C1610 C 0.81144 0.46072 0.98583 0.0
C1611 C 0.8114 0.48669 0.98118 0.0
C1612 C 0.81169 0.49139 0.96776 0.0
C1613 C 0.81284 0.47008 0.95923 0.0
C1614 C 0.81183 0.45488 5e-05 0.0
C1615 C 0.81075 0.51881 0.96246 0.0
H1616 H 0.77145 0.54415 0.00998 0.0
H1617 H 0.85551 0.54266 0.00903 0.0
H1618 H 0.7609 0.51034 0.98053 0.0
H1619 H 0.75959 0.488 -0.00632 0.0
H1620 H 0.74564 0.52018 -0.00459 0.0
H1621 H 0.87909 0.51872 -0.00635 0.0
H1622 H 0.8642 0.48708 -0.0086 0.0
H1623 H 0.86195 0.51105 0.97898 0.0
H1624 H 0.81176 0.41999 0.98065 0.0
H1625 H 0.81337 0.4734 0.94895 0.0
H1626 H 0.79468 0.46402 0.00481 0.0
H1627 H 0.82967 0.46341 0.00446 0.0
H1628 H 0.8116 0.43356 0.00206 0.0
H1629 H 0.79288 0.52894 0.96594 0.0
H1630 H 0.81072 0.51907 0.95178 0.0
H1631 H 0.82782 0.53018 0.96595 0.0
C1632 C 0.19434 0.07535 0.75664 0.0
C1633 C 0.20529 0.06926 0.76858 0.0
C1634 C 0.20941 0.07426 0.74545 0.0
C1635 C 0.23617 0.06749 0.74636 0.0
C1636 C 0.24734 0.06134 0.75846 0.0
C1637 C 0.23154 0.06192 0.76948 0.0
C1638 C 0.19671 0.08032 0.73269 0.0
C1639 C 0.27601 0.05466 0.75977 0.0
C1640 C 0.27274 0.04494 0.71669 0.0
C1641 C 0.28544 0.06801 0.71301 0.0
C1642 C 0.25619 0.04456 0.72742 0.0
C1643 C 0.25264 0.06772 0.73468 0.0
C1644 C 0.26483 0.09122 0.7308 0.0
C1645 C 0.28083 0.09115 0.7199 0.0
C1646 C 0.24292 0.01932 0.73115 0.0
C1647 C 0.26148 0.1163 0.73833 0.0
H1648 H 0.17378 0.0806 0.75605 0.0
H1649 H 0.23971 0.05709 0.77879 0.0
H1650 H 0.20583 0.09794 0.72842 0.0
H1651 H 0.19988 0.06391 0.72588 0.0
H1652 H 0.17532 0.08383 0.73361 0.0
H1653 H 0.28149 0.04989 0.76982 0.0
H1654 H 0.28097 0.03774 0.75354 0.0
H1655 H 0.28806 0.07143 0.7565 0.0
H1656 H 0.27617 0.02704 0.71135 0.0
H1657 H 0.29062 0.10906 0.71712 0.0
H1658 H 0.22141 0.02223 0.73161 0.0
H1659 H 0.24946 0.01324 0.74086 0.0
H1660 H 0.24718 0.00322 0.72428 0.0
H1661 H 0.24084 0.12292 0.73774 0.0
H1662 H 0.27426 0.13223 0.7347 0.0
H1663 H 0.26602 0.11301 0.74862 0.0
C1664 C 0.69435 0.4451 0.5024 0.0
C1665 C 0.67493 0.44656 0.5119 0.0
C1666 C 0.69561 0.46365 0.4926 0.0
C1667 C 0.67731 0.48435 0.49247 0.0
C1668 C 0.65788 0.48621 0.50212 0.0
C1669 C 0.65683 0.46713 0.51172 0.0
C1670 C 0.71631 0.46092 0.48232 0.0
C1671 C 0.63812 0.50821 0.50222 0.0
C1672 C 0.69516 0.54586 0.47458 0.0
C1673 C 0.67984 0.54339 0.46349 0.0
C1674 C 0.69462 0.52661 0.48408 0.0
C1675 C 0.67872 0.5043 0.48229 0.0
C1676 C 0.66396 0.50121 0.4709 0.0
C1677 C 0.66464 0.52091 0.46161 0.0
C1678 C 0.7104 0.53053 0.49621 0.0
C1679 C 0.64726 0.47729 0.46858 0.0
H1680 H 0.70825 0.42907 0.50244 0.0
H1681 H 0.64177 0.46824 0.51904 0.0
H1682 H 0.70693 0.4596 0.47272 0.0
H1683 H 0.72906 0.47847 0.48225 0.0
H1684 H 0.72879 0.44336 0.48372 0.0
H1685 H 0.62464 0.5071 0.51058 0.0
H1686 H 0.64836 0.52733 0.50248 0.0
H1687 H 0.62631 0.50767 0.49328 0.0
H1688 H 0.70685 0.56328 0.47607 0.0
H1689 H 0.65296 0.5189 0.45297 0.0
H1690 H 0.72383 0.51376 0.4977 0.0
H1691 H 0.69708 0.53135 0.50463 0.0
H1692 H 0.72215 0.54879 0.49598 0.0
H1693 H 0.65991 0.45967 0.4681 0.0
H1694 H 0.63586 0.47864 0.45952 0.0
H1695 H 0.63342 0.47443 0.47667 0.0
C1696 C 0.20628 0.94813 0.21775 0.0
C1697 C 0.19653 0.92414 0.21335 0.0
C1698 C 0.22481 0.94911 0.22768 0.0
C1699 C 0.23344 0.92553 0.23338 0.0
C1700 C 0.22321 0.9013 0.22914 0.0
C1701 C 0.20504 0.90088 0.21909 0.0
C1702 C 0.23545 0.97527 0.23192 0.0
C1703 C 0.23171 0.87579 0.23513 0.0
C1704 C 0.30131 0.92329 0.24767 0.0
C1705 C 0.29592 0.92308 0.26084 0.0
C1706 C 0.28107 0.92423 0.23866 0.0
C1707 C 0.25486 0.92584 0.24296 0.0
C1708 C 0.24929 0.92643 0.25629 0.0
C1709 C 0.26999 0.92457 0.26513 0.0
C1710 C 0.28772 0.92281 0.22453 0.0
C1711 C 0.22158 0.92899 0.26117 0.0
H1712 H 0.19956 0.96614 0.21337 0.0
H1713 H 0.19713 0.88232 0.21588 0.0
H1714 H 0.23319 0.97759 0.24246 0.0
H1715 H 0.25669 0.97634 0.22976 0.0
H1716 H 0.22548 0.99185 0.22707 0.0
H1717 H 0.22106 0.85874 0.23107 0.0
H1718 H 0.25301 0.87284 0.23359 0.0
H1719 H 0.22835 0.87633 0.24565 0.0
H1720 H 0.32143 0.92194 0.2444 0.0
H1721 H 0.26599 0.92469 0.27536 0.0
H1722 H 0.27963 0.94004 0.21944 0.0
H1723 H 0.27864 0.90515 0.22021 0.0
H1724 H 0.30917 0.92199 0.2228 0.0
H1725 H 0.21279 0.9474 0.25754 0.0
H1726 H 0.22059 0.9291 0.27183 0.0
H1727 H 0.20942 0.91265 0.25749 0.0
C1728 C 0.65637 0.03468 0.50566 0.0
C1729 C 0.6776 0.03915 0.51389 0.0
C1730 C 0.65918 0.01916 0.49469 0.0
C1731 C 0.68361 0.00721 0.49213 0.0
C1732 C 0.70512 0.01148 0.50044 0.0
C1733 C 0.70192 0.02772 0.51119 0.0
C1734 C 0.63587 0.01533 0.48595 0.0
C1735 C 0.73127 -0.00145 0.49808 0.0
C1736 C 0.6746 0.94583 0.4728 0.0
C1737 C 0.68044 0.95455 0.46042 0.0
C1738 C 0.67739 0.9624 0.48337 0.0
C1739 C 0.6856 0.98845 0.48138 0.0
C1740 C 0.69258 -0.00295 0.4689 0.0
C1741 C 0.6902 0.97973 0.4585 0.0
C1742 C 0.67031 0.95237 0.49656 0.0
C1743 C 0.70097 0.02488 0.46644 0.0
H1744 H 0.63766 0.04392 0.50757 0.0
H1745 H 0.71838 0.03138 0.51752 0.0
H1746 H 0.64149 0.01863 0.47578 0.0
H1747 H 0.62876 -0.00509 0.48673 0.0
H1748 H 0.61944 0.02871 0.48838 0.0
H1749 H 0.74644 0.00516 0.50502 0.0
H1750 H 0.72916 0.97702 0.4989 0.0
H1751 H 0.73818 0.00272 0.4882 0.0
H1752 H 0.66754 0.92604 0.47419 0.0
H1753 H 0.69488 0.98613 0.44884 0.0
H1754 H 0.6519 0.96177 0.49985 0.0
H1755 H 0.6858 0.95746 0.50361 0.0
H1756 H 0.66745 0.93084 0.49665 0.0
H1757 H 0.68386 0.03806 0.46763 0.0
H1758 H 0.70893 0.02746 0.4566 0.0
H1759 H 0.716 0.03109 0.47351 0.0
C1760 C 0.18938 0.44473 0.75283 0.0
C1761 C 0.19621 0.43222 0.76432 0.0
C1762 C 0.20705 0.44606 0.74259 0.0
C1763 C 0.23231 0.43517 0.74403 0.0
C1764 C 0.2398 0.42374 0.75585 0.0
C1765 C 0.22147 0.42208 0.76584 0.0
C1766 C 0.19827 0.45798 0.73004 0.0
C1767 C 0.26692 0.41264 0.75781 0.0
C1768 C 0.2681 0.41067 0.71456 0.0
C1769 C 0.28603 0.4309 0.71242 0.0
C1770 C 0.25018 0.41206 0.72471 0.0
C1771 C 0.25027 0.4342 0.73289 0.0
C1772 C 0.26764 0.45513 0.7305 0.0
C1773 C 0.28524 0.4533 0.72022 0.0
C1774 C 0.23166 0.3895 0.72691 0.0
C1775 C 0.26826 0.47901 0.73906 0.0
H1776 H 0.16978 0.45247 0.7516 0.0
H1777 H 0.22679 0.41264 0.77478 0.0
H1778 H 0.2122 0.47334 0.72695 0.0
H1779 H 0.19808 0.44274 0.72243 0.0
H1780 H 0.17839 0.46671 0.7307 0.0
H1781 H 0.27001 0.4056 0.76779 0.0
H1782 H 0.27021 0.39609 0.7511 0.0
H1783 H 0.28186 0.42773 0.75563 0.0
H1784 H 0.26859 0.39335 0.70854 0.0
H1785 H 0.29904 0.46904 0.71862 0.0
H1786 H 0.21114 0.39661 0.72702 0.0
H1787 H 0.23561 0.38055 0.73642 0.0
H1788 H 0.23354 0.3741 0.71942 0.0
H1789 H 0.24869 0.48841 0.73932 0.0
H1790 H 0.28285 0.49368 0.73581 0.0
H1791 H 0.27311 0.47319 0.74904 0.0
C1792 C 0.79035 0.96849 0.01501 0.0
C1793 C 0.81456 0.95935 0.01949 0.0
C1794 C 0.789 0.98559 0.00454 0.0
C1795 C 0.81244 0.9937 -0.00147 0.0
C1796 C 0.83696 0.98586 0.0035 0.0
C1797 C 0.83773 0.96885 0.01399 0.0
C1798 C 0.76253 0.99385 -0.00049 0.0
C1799 C 0.86236 -0.00546 -0.00258 0.0
C1800 C 0.81282 0.01299 0.96344 0.0
C1801 C 0.81276 0.04019 0.96448 0.0
C1802 C 0.81172 -0.00251 0.97452 0.0
C1803 C 0.81143 0.00973 0.98676 0.0
C1804 C 0.81139 0.03728 0.98776 0.0
C1805 C 0.81171 0.05221 0.97655 0.0
C1806 C 0.81126 0.96809 0.97316 0.0
C1807 C 0.81171 0.05096 0.00063 0.0
H1808 H 0.77238 0.96134 0.01927 0.0
H1809 H 0.85653 0.96204 0.01748 0.0
H1810 H 0.76147 0.01544 -0.00128 0.0
H1811 H 0.7596 0.98572 -0.01027 0.0
H1812 H 0.74626 0.98706 0.00575 0.0
H1813 H 0.87978 0.98689 0.00258 0.0
H1814 H 0.86323 0.98774 0.9873 0.0
H1815 H 0.86341 0.0162 -0.00272 0.0
H1816 H 0.81358 0.00396 0.95402 0.0
H1817 H 0.8119 0.07338 0.9772 0.0
H1818 H 0.79446 0.95987 0.97856 0.0
H1819 H 0.82937 0.95966 0.97735 0.0
H1820 H 0.80978 0.96175 0.96298 0.0
H1821 H 0.7948 0.04459 0.00652 0.0
H1822 H 0.81106 0.07258 -0.00032 0.0
H1823 H 0.82973 0.04556 0.00596 0.0
C1824 C 0.27119 0.58148 0.26385 0.0
C1825 C 0.29006 0.56169 0.26487 0.0
C1826 C 0.25334 0.58163 0.25365 0.0
C1827 C 0.25449 0.56152 0.24431 0.0
C1828 C 0.27342 0.54148 0.24529 0.0
C1829 C 0.29087 0.54169 0.25564 0.0
C1830 C 0.2332 0.60321 0.25289 0.0
C1831 C 0.27542 0.52001 0.23535 0.0
C1832 C 0.19267 0.54671 0.22591 0.0
C1833 C 0.19676 0.56069 0.21453 0.0
C1834 C 0.21145 0.54677 0.23566 0.0
C1835 C 0.23503 0.5607 0.23384 0.0
C1836 C 0.23975 0.57404 0.22217 0.0
C1837 C 0.22034 0.57411 0.21267 0.0
C1838 C 0.20574 0.53255 0.24805 0.0
C1839 C 0.26494 0.58874 0.21986 0.0
H1840 H 0.2706 0.59705 0.27093 0.0
H1841 H 0.30557 0.52645 0.25629 0.0
H1842 H 0.234 0.61283 0.24335 0.0
H1843 H 0.2133 0.59482 0.25397 0.0
H1844 H 0.23608 0.61832 0.26044 0.0
H1845 H 0.29196 0.50645 0.23727 0.0
H1846 H 0.257 0.50854 0.23513 0.0
H1847 H 0.27809 0.52861 0.22566 0.0
H1848 H 0.17437 0.53644 0.2274 0.0
H1849 H 0.22352 0.58485 0.20384 0.0
H1850 H 0.20588 0.5466 0.25619 0.0
H1851 H 0.2212 0.51782 0.24996 0.0
H1852 H 0.18648 0.52249 0.24788 0.0
H1853 H 0.26562 0.60623 0.22617 0.0
H1854 H 0.26683 0.59526 0.20973 0.0
H1855 H 0.28208 0.57637 0.2223 0.0
C1856 C 0.28774 0.03542 0.50549 0.0
C1857 C 0.31138 0.03973 0.51202 0.0
C1858 C 0.28693 0.01997 0.49438 0.0
C1859 C 0.31032 0.00861 0.48973 0.0
C1860 C 0.33429 0.01309 0.49617 0.0
C1861 C 0.33452 0.0285 0.50731 0.0
C1862 C 0.26101 0.0155 0.48774 0.0
C1863 C 0.35964 0.00135 0.49139 0.0
C1864 C 0.30429 0.9452 0.4715 0.0
C1865 C 0.30928 0.95318 0.45891 0.0
C1866 C 0.30463 0.96315 0.4816 0.0
C1867 C 0.30931 0.98983 0.47893 0.0
C1868 C 0.31358 -0.00184 0.46612 0.0
C1869 C 0.314 0.9795 0.45621 0.0
C1870 C 0.30075 0.95342 0.49516 0.0
C1871 C 0.31779 0.02662 0.46293 0.0
H1872 H 0.26983 0.04424 0.50904 0.0
H1873 H 0.35292 0.03219 0.51218 0.0
H1874 H 0.26269 0.02004 0.47736 0.0
H1875 H 0.25542 -0.00539 0.48854 0.0
H1876 H 0.24506 0.0276 0.49193 0.0
H1877 H 0.37681 0.00798 0.49707 0.0
H1878 H 0.35855 0.97971 0.49187 0.0
H1879 H 0.36285 0.00665 0.48118 0.0
H1880 H 0.30107 0.92464 0.47349 0.0
H1881 H 0.31788 0.9854 0.44639 0.0
H1882 H 0.28384 0.9635 0.49967 0.0
H1883 H 0.3183 0.95801 0.50103 0.0
H1884 H 0.2973 0.932 0.49554 0.0
H1885 H 0.3004 0.03816 0.4659 0.0
H1886 H 0.3212 0.02975 0.45251 0.0
H1887 H 0.3348 0.03438 0.46835 0.0
C1888 C 0.71743 0.56362 0.2639 0.0
C1889 C 0.6914 0.55744 0.26108 0.0
C1890 C 0.73677 0.56159 0.25442 0.0
C1891 C 0.72947 0.55422 0.2418 0.0
C1892 C 0.70335 0.54703 0.23906 0.0
C1893 C 0.68464 0.54834 0.24883 0.0
C1894 C 0.76469 0.56849 0.25776 0.0
C1895 C 0.69481 0.53958 0.22565 0.0
C1896 C 0.77009 0.58355 0.21521 0.0
C1897 C 0.78581 0.56231 0.21162 0.0
C1898 C 0.75139 0.58099 0.22493 0.0
C1899 C 0.74849 0.55665 0.2312 0.0
C1900 C 0.76376 0.53493 0.2274 0.0
C1901 C 0.78218 0.53799 0.21757 0.0
C1902 C 0.73515 0.6045 0.22869 0.0
C1903 C 0.76131 0.50879 0.23401 0.0
H1904 H 0.72258 0.57034 0.27346 0.0
H1905 H 0.66441 0.54364 0.24669 0.0
H1906 H 0.77847 0.55398 0.2536 0.0
H1907 H 0.7696 0.58784 0.25362 0.0
H1908 H 0.76784 0.56943 0.26831 0.0
H1909 H 0.67419 0.53273 0.22535 0.0
H1910 H 0.69673 0.55676 0.21923 0.0
H1911 H 0.7076 0.52395 0.22173 0.0
H1912 H 0.77281 0.60236 0.21063 0.0
H1913 H 0.79434 0.5215 0.21485 0.0
H1914 H 0.73946 0.61005 0.23878 0.0
H1915 H 0.714 0.59968 0.22815 0.0
H1916 H 0.73903 0.62168 0.22246 0.0
H1917 H 0.7667 0.51086 0.24429 0.0
H1918 H 0.77406 0.49363 0.22959 0.0
H1919 H 0.74074 0.50188 0.23367 0.0
C1920 C 0.20124 0.92679 0.00213 0.0
C1921 C 0.19293 0.92772 0.01493 0.0
C1922 C 0.19091 0.94409 -0.00698 0.0
C1923 C 0.17266 0.96334 -0.00303 0.0
C1924 C 0.16254 0.96279 0.00963 0.0
C1925 C 0.1727 0.94476 0.01847 0.0
C1926 C 0.20118 0.94324 0.97943 0.0
C1927 C 0.14282 0.98276 0.01416 0.0
C1928 C 0.18497 0.02902 0.98161 0.0
C1929 C 0.16552 0.0301 0.97214 0.0
C1930 C 0.1869 0.00767 -0.01008 0.0
C1931 C 0.16877 0.98686 -0.01116 0.0
C1932 C 0.14842 0.98819 0.97962 0.0
C1933 C 0.14718 0.00975 0.97127 0.0
C1934 C 0.20889 0.00712 -0.00036 0.0
C1935 C 0.12849 0.96662 0.97822 0.0
H1936 H 0.21657 0.91322 -0.00064 0.0
H1937 H 0.16627 0.94543 0.02839 0.0
H1938 H 0.18485 0.94506 0.97247 0.0
H1939 H 0.21461 0.95998 0.97786 0.0
H1940 H 0.21203 0.92485 0.9774 0.0
H1941 H 0.13364 0.97703 0.02341 0.0
H1942 H 0.15274 0.00186 0.01553 0.0
H1943 H 0.12722 0.98555 0.00687 0.0
H1944 H 0.19917 0.04468 0.98239 0.0
H1945 H 0.13195 0.01057 0.96403 0.0
H1946 H 0.2222 0.99049 -0.00246 0.0
H1947 H 0.2009 0.00417 0.00944 0.0
H1948 H 0.22061 0.02541 -0.00038 0.0
H1949 H 0.13654 0.95122 0.97181 0.0
H1950 H 0.11006 0.97398 0.97385 0.0
H1951 H 0.12382 0.95746 0.98759 0.0
C1952 C 0.77801 0.45173 0.75839 0.0
C1953 C 0.78913 0.42754 0.76153 0.0
C1954 C 0.76007 0.45382 0.74827 0.0
C1955 C 0.7535 0.43123 0.74112 0.0
C1956 C 0.76522 0.4069 0.74404 0.0
C1957 C 0.78273 0.40529 0.75432 0.0
C1958 C 0.74775 0.48002 0.74542 0.0
C1959 C 0.75894 0.38248 0.73644 0.0
C1960 C 0.68672 0.42683 0.72596 0.0
C1961 C 0.69276 0.43005 0.71299 0.0
C1962 C 0.70641 0.42757 0.73525 0.0
C1963 C 0.73253 0.43232 0.73139 0.0
C1964 C 0.73857 0.43649 0.71828 0.0
C1965 C 0.71848 0.43491 0.70913 0.0
C1966 C 0.69939 0.42234 0.74911 0.0
C1967 C 0.76617 0.44219 0.71394 0.0
H1968 H 0.78315 0.46896 0.76392 0.0
H1969 H 0.79177 0.38667 0.75655 0.0
H1970 H 0.74989 0.48478 0.73508 0.0
H1971 H 0.72647 0.47922 0.74752 0.0
H1972 H 0.75655 0.49604 0.7512 0.0
H1973 H 0.77093 0.36546 0.73949 0.0
H1974 H 0.73795 0.37746 0.73765 0.0
H1975 H 0.76232 0.38589 0.72606 0.0
H1976 H 0.66666 0.42287 0.72878 0.0
H1977 H 0.72279 0.43747 0.69901 0.0
H1978 H 0.70621 0.43864 0.7553 0.0
H1979 H 0.70941 0.40431 0.75242 0.0
H1980 H 0.67798 0.41983 0.75051 0.0
H1981 H 0.77368 0.45982 0.71895 0.0
H1982 H 0.76742 0.44546 0.70341 0.0
H1983 H 0.77926 0.4257 0.71652 0.0
C1984 C 0.17936 0.81215 0.01976 0.0
C1985 C 0.15639 0.82687 0.01858 0.0
C1986 C 0.17841 0.78488 0.02088 0.0
C1987 C 0.1538 0.77217 0.02093 0.0
C1988 C 0.13061 0.78687 0.01901 0.0
C1989 C 0.13221 0.81417 0.01783 0.0
C1990 C 0.20356 0.76998 0.02306 0.0
C1991 C 0.10402 0.77405 0.0193 0.0
C1992 C 0.15373 0.69848 0.01673 0.0
C1993 C 0.15276 0.68987 0.0295 0.0
C1994 C 0.15362 0.72522 0.01379 0.0
C1995 C 0.15232 0.74379 0.02385 0.0
C1996 C 0.15071 0.73524 0.03676 0.0
C1997 C 0.15109 0.70837 0.03943 0.0
C1998 C 0.15563 0.73367 -6e-05 0.0
C1999 C 0.14943 0.75443 0.0478 0.0
H2000 H 0.19793 0.82219 0.02085 0.0
H2001 H 0.11442 0.82575 0.0175 0.0
H2002 H 0.20398 0.76234 0.03303 0.0
H2003 H 0.20475 0.75294 0.01648 0.0
H2004 H 0.22114 0.78242 0.02161 0.0
H2005 H 0.08808 0.78789 0.01675 0.0
H2006 H 0.10347 0.75723 0.01256 0.0
H2007 H 0.10016 0.76634 0.02907 0.0
H2008 H 0.15514 0.68431 0.009 0.0
H2009 H 0.15061 0.70193 0.04933 0.0
H2010 H 0.17395 0.74494 -0.0015 0.0
H2011 H 0.13907 0.74678 -0.00252 0.0
H2012 H 0.1556 0.7168 -0.0068 0.0
H2013 H 0.16851 0.7646 0.04876 0.0
H2014 H 0.14496 0.74467 0.05707 0.0
H2015 H 0.13432 0.76957 0.04599 0.0
C2016 C 0.55406 0.87793 0.27299 0.0
C2017 C 0.56756 0.90152 0.27192 0.0
C2018 C 0.52709 0.87688 0.2706 0.0
C2019 C 0.51346 0.90023 0.2676 0.0
C2020 C 0.52759 0.92362 0.26543 0.0
C2021 C 0.55469 0.92392 0.26754 0.0
C2022 C 0.51281 0.85143 0.27269 0.0
C2023 C 0.51386 0.94902 0.26241 0.0
C2024 C 0.43943 0.89703 0.26347 0.0
C2025 C 0.43122 0.90139 0.27615 0.0
C2026 C 0.46625 0.89704 0.26034 0.0
C2027 C 0.48496 0.90154 0.27015 0.0
C2028 C 0.47661 0.90653 0.28287 0.0
C2029 C 0.44994 0.90641 0.28568 0.0
C2030 C 0.47459 0.892 0.24666 0.0
C2031 C 0.49584 0.91175 0.29363 0.0
H2032 H 0.56433 0.86065 0.27631 0.0
H2033 H 0.56543 0.94214 0.26676 0.0
H2034 H 0.50319 0.85181 0.28225 0.0
H2035 H 0.49732 0.84865 0.26534 0.0
H2036 H 0.52635 0.83443 0.27237 0.0
H2037 H 0.52751 0.96361 0.25824 0.0
H2038 H 0.49738 0.94591 0.25565 0.0
H2039 H 0.50563 0.95732 0.27141 0.0
H2040 H 0.42498 0.89349 0.25605 0.0
H2041 H 0.44379 0.91051 0.29544 0.0
H2042 H 0.48622 0.8737 0.24617 0.0
H2043 H 0.48738 0.90804 0.24323 0.0
H2044 H 0.4576 0.8902 0.24005 0.0
H2045 H 0.50843 0.89433 0.29513 0.0
H2046 H 0.48595 0.91641 0.30287 0.0
H2047 H 0.50882 0.92833 0.2911 0.0
C2048 C 0.30776 0.18832 0.52529 0.0
C2049 C 0.32872 0.17182 0.52241 0.0
C2050 C 0.31073 0.21543 0.52482 0.0
C2051 C 0.33545 0.22599 0.52156 0.0
C2052 C 0.35624 0.20929 0.51784 0.0
C2053 C 0.35256 0.18215 0.51827 0.0
C2054 C 0.28813 0.23259 0.52894 0.0
C2055 C 0.38298 0.21994 0.51462 0.0
C2056 C 0.33576 0.29912 0.51662 0.0
C2057 C 0.34102 0.30793 0.5291 0.0
C2058 C 0.33503 0.27233 0.51382 0.0
C2059 C 0.34016 0.25414 0.5237 0.0
C2060 C 0.34706 0.26295 0.53613 0.0
C2061 C 0.34708 0.28977 0.53871 0.0
C2062 C 0.32724 0.26349 0.50052 0.0
C2063 C 0.35288 0.2441 0.54693 0.0
H2064 H 0.28955 0.18 0.52876 0.0
H2065 H 0.36891 0.16911 0.51643 0.0
H2066 H 0.2923 0.241 0.53856 0.0
H2067 H 0.28555 0.24912 0.52218 0.0
H2068 H 0.26945 0.22154 0.52952 0.0
H2069 H 0.39585 0.2048 0.51027 0.0
H2070 H 0.38138 0.23669 0.50791 0.0
H2071 H 0.39246 0.22723 0.52353 0.0
H2072 H 0.33097 0.31308 0.50916 0.0
H2073 H 0.35117 0.29624 0.54835 0.0
H2074 H 0.3078 0.25385 0.50094 0.0
H2075 H 0.34142 0.24887 0.49682 0.0
H2076 H 0.32611 0.28003 0.49365 0.0
H2077 H 0.33441 0.23477 0.55014 0.0
H2078 H 0.36191 0.25404 0.55534 0.0
H2079 H 0.36621 0.22832 0.54365 0.0
C2080 C 0.94832 0.10048 0.78338 0.0
C2081 C 0.93008 0.08752 0.77567 0.0
C2082 C 0.97511 0.09889 0.7807 0.0
C2083 C 0.98378 0.08349 0.77019 0.0
C2084 C 0.96534 0.07134 0.762 0.0
C2085 C 0.93857 0.07374 0.76477 0.0
C2086 C 0.99419 0.11252 0.78956 0.0
C2087 C 0.97389 0.05444 0.75086 0.0
C2088 C 0.05608 0.09326 0.76449 0.0
C2089 C 0.06613 0.07531 0.77331 0.0
C2090 C 0.02896 0.0947 0.76232 0.0
C2091 C 0.01207 0.07757 0.76905 0.0
C2092 C 0.02268 0.05749 0.7768 0.0
C2093 C 0.04963 0.05685 0.77897 0.0
C2094 C 0.01833 0.11617 0.75389 0.0
C2095 C 0.00545 0.0384 0.78392 0.0
H2096 H 0.94171 0.11155 0.79164 0.0
H2097 H 0.92437 0.06364 0.75882 0.0
H2098 H 0.00546 0.09775 0.79507 0.0
H2099 H 0.00843 0.12416 0.78391 0.0
H2100 H 0.9842 0.12571 0.79649 0.0
H2101 H 0.9573 0.04951 0.74438 0.0
H2102 H 0.98936 0.06431 0.74519 0.0
H2103 H 0.98235 0.03595 0.75457 0.0
H2104 H 0.06904 0.1075 0.76014 0.0
H2105 H 0.05768 0.0428 0.7857 0.0
H2106 H 0.01104 0.13236 0.76004 0.0
H2107 H 0.00163 0.10909 0.74804 0.0
H2108 H 0.03361 0.1241 0.74738 0.0
H2109 H -0.00368 0.04842 0.79226 0.0
H2110 H 0.01675 0.02137 0.78755 0.0
H2111 H 0.98945 0.03114 0.77766 0.0
C2112 C 0.17527 0.18289 0.9459 0.0
C2113 C 0.15527 0.16673 0.95045 0.0
C2114 C 0.17284 0.2101 0.94644 0.0
C2115 C 0.1494 0.22125 0.95122 0.0
C2116 C 0.12933 0.20493 0.95608 0.0
C2117 C 0.13268 0.17768 0.9558 0.0
C2118 C 0.19498 0.22684 0.94147 0.0
C2119 C 0.10382 0.21618 0.9609 0.0
C2120 C 0.15181 0.29356 0.959 0.0
C2121 C 0.14386 0.30454 0.94731 0.0
C2122 C 0.153 0.26638 0.96058 0.0
C2123 C 0.14546 0.2499 0.9503 0.0
C2124 C 0.13615 0.26089 0.9387 0.0
C2125 C 0.13574 0.28812 0.93729 0.0
C2126 C 0.16366 0.25534 0.97296 0.0
C2127 C 0.12762 0.24391 0.92757 0.0
H2128 H 0.19266 0.17415 0.94172 0.0
H2129 H 0.11709 0.16495 0.95907 0.0
H2130 H 0.18873 0.23698 0.93257 0.0
H2131 H 0.20015 0.24211 0.94862 0.0
H2132 H 0.21278 0.21516 0.93928 0.0
H2133 H 0.09088 0.20098 0.96509 0.0
H2134 H 0.10754 0.23143 0.96827 0.0
H2135 H 0.09333 0.22572 0.95284 0.0
H2136 H 0.15831 0.30619 0.96675 0.0
H2137 H 0.12946 0.29648 0.92827 0.0
H2138 H 0.18246 0.24517 0.97104 0.0
H2139 H 0.14996 0.24066 0.97697 0.0
H2140 H 0.1671 0.27075 0.98031 0.0
H2141 H 0.14493 0.23396 0.92336 0.0
H2142 H 0.11788 0.2554 0.91989 0.0
H2143 H 0.11396 0.22849 0.93091 0.0
C2144 C 0.93631 0.9258 0.21384 0.0
C2145 C 0.92257 0.90365 0.20983 0.0
C2146 C 0.96351 0.92473 0.21555 0.0
C2147 C 0.97687 0.90098 0.213 0.0
C2148 C 0.96243 0.87788 0.21054 0.0
C2149 C 0.9353 0.87956 0.20889 0.0
C2150 C 0.97812 0.94974 0.21831 0.0
C2151 C 0.97586 0.85214 0.20787 0.0
C2152 C 0.03799 0.90652 0.19288 0.0
C2153 C 0.05779 0.90143 0.20183 0.0
C2154 C 0.01169 0.90677 0.19652 0.0
C2155 C 0.00494 0.9017 0.20947 0.0
C2156 C 0.02479 0.89676 0.21863 0.0
C2157 C 0.05112 0.89674 0.21469 0.0
C2158 C 0.99112 0.9124 0.18643 0.0
C2159 C 0.0182 0.89141 0.2325 0.0
H2160 H 0.92624 0.94444 0.21446 0.0
H2161 H 0.92442 0.86251 0.20574 0.0
H2162 H -0.00459 0.94612 0.2245 0.0
H2163 H 0.98522 0.95816 0.20914 0.0
H2164 H 0.9653 0.96445 0.22305 0.0
H2165 H 0.96213 0.83541 0.20878 0.0
H2166 H 0.98367 0.85226 0.19792 0.0
H2167 H 0.99259 0.8491 0.2145 0.0
H2168 H 0.04301 0.91062 0.18298 0.0
H2169 H 0.06643 0.89299 0.22166 0.0
H2170 H 0.97927 0.92963 0.18931 0.0
H2171 H 0.9776 0.89552 0.18553 0.0
H2172 H -0.00022 0.91632 0.17684 0.0
H2173 H 0.00699 0.90805 0.23659 0.0
H2174 H 0.03596 0.88821 0.23845 0.0
H2175 H 0.00552 0.87387 0.23319 0.0
C2176 C 0.34738 0.6897 0.46331 0.0
C2177 C 0.34147 0.68197 0.4507 0.0
C2178 C 0.34906 0.7163 0.4666 0.0
C2179 C 0.34458 0.73539 0.45705 0.0
C2180 C 0.33905 0.72763 0.44427 0.0
C2181 C 0.33758 0.70104 0.44127 0.0
C2182 C 0.35516 0.72396 0.48028 0.0
C2183 C 0.33407 0.74742 0.43377 0.0
C2184 C 0.31838 0.80328 0.46152 0.0
C2185 C 0.34002 0.81788 0.45761 0.0
C2186 C 0.32032 0.77613 0.46291 0.0
C2187 C 0.34448 0.76363 0.46022 0.0
C2188 C 0.36706 0.77882 0.4577 0.0
C2189 C 0.36447 0.80593 0.45628 0.0
C2190 C 0.29576 0.76068 0.4656 0.0
C2191 C 0.39323 0.76627 0.45498 0.0
H2192 H 0.35044 0.67499 0.47064 0.0
H2193 H 0.33277 0.69524 0.43154 0.0
H2194 H 0.37224 0.73734 0.48053 0.0
H2195 H 0.33833 0.73472 0.48448 0.0
H2196 H 0.35945 0.70674 0.48642 0.0
H2197 H 0.3303 0.73806 0.42431 0.0
H2198 H 0.31689 0.7597 0.43629 0.0
H2199 H 0.35116 0.76063 0.43278 0.0
H2200 H 0.29944 0.81275 0.46237 0.0
H2201 H 0.38109 0.81746 0.45313 0.0
H2202 H 0.29985 0.74407 0.47213 0.0
H2203 H 0.28817 0.75248 0.45645 0.0
H2204 H 0.28022 0.77309 0.46993 0.0
H2205 H 0.39696 0.74984 0.46167 0.0
H2206 H 0.40951 0.78058 0.45576 0.0
H2207 H 0.3932 0.7582 0.44507 0.0
C2208 C 0.43744 0.09018 0.7166 0.0
C2209 C 0.42944 0.07981 0.70476 0.0
C2210 C 0.46417 0.09138 0.7198 0.0
C2211 C 0.48297 0.08179 0.71096 0.0
C2212 C 0.47468 0.06949 0.69947 0.0
C2213 C 0.44806 0.06884 0.69648 0.0
C2214 C 0.47233 0.10423 0.73222 0.0
C2215 C 0.49401 0.05836 0.6899 0.0
C2216 C 0.54836 0.11045 0.70327 0.0
C2217 C 0.56492 0.09031 0.70725 0.0
C2218 C 0.52158 0.10962 0.70604 0.0
C2219 C 0.51121 0.08762 0.71252 0.0
C2220 C 0.52835 0.06856 0.71768 0.0
C2221 C 0.55525 0.0703 0.71506 0.0
C2222 C 0.50406 0.13071 0.70065 0.0
C2223 C 0.51811 0.04477 0.72459 0.0
H2224 H 0.42298 0.09836 0.72309 0.0
H2225 H 0.44185 0.06018 0.68747 0.0
H2226 H 0.48798 0.09278 0.737 0.0
H2227 H 0.48041 0.12391 0.73016 0.0
H2228 H 0.4556 0.10646 0.73895 0.0
H2229 H 0.48421 0.04727 0.68207 0.0
H2230 H 0.50543 0.07448 0.6855 0.0
H2231 H 0.50806 0.04516 0.69477 0.0
H2232 H 0.5561 0.12603 0.69733 0.0
H2233 H 0.56826 0.0547 0.71808 0.0
H2234 H 0.48867 0.13621 0.70767 0.0
H2235 H 0.49416 0.12324 0.69189 0.0
H2236 H 0.51529 0.1485 0.69802 0.0
H2237 H 0.50132 0.04985 0.73087 0.0
H2238 H 0.5336 0.03535 0.73048 0.0
H2239 H 0.51113 0.03029 0.71741 0.0
C2240 C 0.83073 0.29892 0.96163 0.0
C2241 C 0.82701 0.30686 0.94887 0.0
C2242 C 0.83136 0.27221 0.96481 0.0
C2243 C 0.82817 0.25329 0.95498 0.0
C2244 C 0.82343 0.26134 0.9422 0.0
C2245 C 0.82291 0.28797 0.93932 0.0
C2246 C 0.83612 0.26424 0.97856 0.0
C2247 C 0.81951 0.24181 0.93143 0.0
C2248 C 0.85681 0.18588 0.9531 0.0
C2249 C 0.83417 0.17077 0.95403 0.0
C2250 C 0.85572 0.21296 0.95506 0.0
C2251 C 0.83123 0.22498 0.95758 0.0
C2252 C 0.80875 0.20932 0.95961 0.0
C2253 C 0.81055 0.18221 0.95784 0.0
C2254 C 0.88021 0.22893 0.95307 0.0
C2255 C 0.7823 0.22133 0.96227 0.0
H2256 H 0.83364 0.3135 0.96906 0.0
H2257 H 0.81939 0.29397 0.92949 0.0
H2258 H 0.82141 0.24961 0.98165 0.0
H2259 H 0.85565 0.25488 0.97937 0.0
H2260 H 0.8354 0.2812 0.98524 0.0
H2261 H 0.81507 0.25139 0.92212 0.0
H2262 H 0.83743 0.22978 0.93022 0.0
H2263 H 0.8032 0.22835 0.9338 0.0
H2264 H 0.87503 0.17673 0.95018 0.0
H2265 H 0.7931 0.17021 0.95851 0.0
H2266 H 0.88164 0.24472 0.96036 0.0
H2267 H 0.87947 0.23829 0.94347 0.0
H2268 H 0.89815 0.21667 0.95358 0.0
H2269 H 0.78393 0.23768 0.96924 0.0
H2270 H 0.76822 0.2067 0.96606 0.0
H2271 H 0.7742 0.22942 0.95322 0.0
C2272 C 0.67461 0.80185 0.45833 0.0
C2273 C 0.65119 0.81518 0.4561 0.0
C2274 C 0.6747 0.77468 0.45986 0.0
C2275 C 0.65074 0.76087 0.45904 0.0
C2276 C 0.6268 0.77477 0.45822 0.0
C2277 C 0.62733 0.80195 0.45658 0.0
C2278 C 0.70065 0.76066 0.46075 0.0
C2279 C 0.60085 0.76074 0.45762 0.0
C2280 C 0.65409 0.69882 0.43951 0.0
C2281 C 0.65357 0.67951 0.44901 0.0
C2282 C 0.65294 0.72529 0.44273 0.0
C2283 C 0.65122 0.73269 0.45582 0.0
C2284 C 0.65051 0.71335 0.4655 0.0
C2285 C 0.65177 0.68686 0.46197 0.0
C2286 C 0.65394 0.74536 0.43209 0.0
C2287 C 0.64874 0.72064 0.47953 0.0
H2288 H 0.693 0.81242 0.45793 0.0
H2289 H 0.60929 0.81257 0.45485 0.0
H2290 H 0.6995 0.74382 0.46741 0.0
H2291 H 0.70601 0.75296 0.45113 0.0
H2292 H 0.71652 0.77394 0.46403 0.0
H2293 H 0.58425 0.77414 0.45971 0.0
H2294 H 0.59807 0.75254 0.44784 0.0
H2295 H 0.60033 0.74425 0.46451 0.0
H2296 H 0.65583 0.6933 0.42949 0.0
H2297 H 0.65147 0.67196 0.46935 0.0
H2298 H 0.67121 0.75824 0.4334 0.0
H2299 H 0.63624 0.75792 0.43242 0.0
H2300 H 0.65515 0.73625 0.42242 0.0
H2301 H 0.66666 0.73133 0.48247 0.0
H2302 H 0.64655 0.70323 0.4858 0.0
H2303 H 0.6319 0.73394 0.48118 0.0
C2304 C 0.84365 0.6997 0.03543 0.0
C2305 C 0.84326 0.68035 0.02588 0.0
C2306 C 0.84483 0.72615 0.03233 0.0
C2307 C 0.84453 0.73366 0.01927 0.0
C2308 C 0.84466 0.71437 0.0095 0.0
C2309 C 0.84425 0.68778 0.01293 0.0
C2310 C 0.84495 0.74604 0.04312 0.0
C2311 C 0.84403 0.72184 -0.0045 0.0
C2312 C 0.81306 0.7997 0.0185 0.0
C2313 C 0.83509 0.81575 0.01917 0.0
C2314 C 0.8158 0.77268 0.01689 0.0
C2315 C 0.84124 0.76171 0.01623 0.0
C2316 C 0.86344 0.77826 0.01573 0.0
C2317 C 0.86006 0.8053 0.01723 0.0
C2318 C 0.79162 0.75575 0.01749 0.0
C2319 C 0.89086 0.76732 0.01526 0.0
H2320 H 0.84208 0.69442 0.04543 0.0
H2321 H 0.8438 0.67293 0.00549 0.0
H2322 H 0.86024 0.76105 0.04148 0.0
H2323 H 0.82576 0.7562 0.04348 0.0
H2324 H 0.84852 0.73689 0.05263 0.0
H2325 H 0.84669 0.70466 -0.01092 0.0
H2326 H 0.82495 0.73116 -0.00676 0.0
H2327 H 0.85953 0.7364 -0.00661 0.0
H2328 H 0.79382 0.80804 0.02018 0.0
H2329 H 0.87703 0.81795 0.01798 0.0
H2330 H 0.78977 0.7474 0.02728 0.0
H2331 H 0.793 0.73922 0.01061 0.0
H2332 H 0.77357 0.76709 0.0154 0.0
H2333 H 0.8966 0.76074 0.02502 0.0
H2334 H 0.90522 0.78226 0.01205 0.0
H2335 H 0.89199 0.75016 0.00875 0.0
C2336 C 0.64703 0.30232 0.5124 0.0
C2337 C 0.66091 0.31093 0.5232 0.0
C2338 C 0.64531 0.27552 0.50959 0.0
C2339 C 0.65816 0.25738 0.51768 0.0
C2340 C 0.67423 0.26637 0.52785 0.0
C2341 C 0.67511 0.29306 0.53058 0.0
C2342 C 0.62812 0.2666 0.49865 0.0
C2343 C 0.68891 0.2477 0.53649 0.0
C2344 C 0.63055 0.19307 0.52816 0.0
C2345 C 0.64768 0.17567 0.52215 0.0
C2346 C 0.63192 0.21984 0.52562 0.0
C2347 C 0.65153 0.22927 0.5172 0.0
C2348 C 0.66759 0.21148 0.51036 0.0
C2349 C 0.66522 0.18464 0.51283 0.0
C2350 C 0.61401 0.23817 0.53288 0.0
C2351 C 0.6889 0.22084 0.50145 0.0
H2352 H 0.63627 0.31631 0.50664 0.0
H2353 H 0.68635 0.29991 0.53876 0.0
H2354 H 0.63738 0.25026 0.49329 0.0
H2355 H 0.6093 0.25931 0.50256 0.0
H2356 H 0.62384 0.28276 0.49185 0.0
H2357 H 0.7033 0.25798 0.54271 0.0
H2358 H 0.67481 0.2373 0.54277 0.0
H2359 H 0.69944 0.23278 0.53072 0.0
H2360 H 0.61676 0.18585 0.53523 0.0
H2361 H 0.67848 0.17094 0.50824 0.0
H2362 H 0.60607 0.25342 0.52639 0.0
H2363 H 0.62526 0.2482 0.54056 0.0
H2364 H 0.59739 0.22766 0.5374 0.0
H2365 H 0.6818 0.23704 0.49531 0.0
H2366 H 0.69634 0.20482 0.49521 0.0
H2367 H 0.7055 0.22847 0.50722 0.0
C2368 C 0.94041 0.42586 0.76817 0.0
C2369 C 0.92728 0.40345 0.77228 0.0
C2370 C 0.96778 0.42609 0.76735 0.0
C2371 C 0.98194 0.40325 0.77064 0.0
C2372 C 0.9684 0.3799 0.77366 0.0
C2373 C 0.94108 0.3804 0.77463 0.0
C2374 C 0.98149 0.45144 0.76427 0.0
C2375 C 0.98282 0.35509 0.77707 0.0
C2376 C 0.05588 0.40024 0.76712 0.0
C2377 C 0.06376 0.40542 0.77977 0.0
C2378 C 0.0292 0.39979 0.76386 0.0
C2379 C 0.01028 0.40502 0.77345 0.0
C2380 C 0.01827 0.411 0.78614 0.0
C2381 C 0.0449 0.41092 0.78915 0.0
C2382 C 0.02122 0.3932 0.75027 0.0
C2383 C -0.00131 0.41727 0.7966 0.0
H2384 H 0.92943 0.4437 0.76652 0.0
H2385 H 0.93062 0.3632 0.77789 0.0
H2386 H 0.98939 0.46007 0.77326 0.0
H2387 H -0.00176 0.44808 0.75769 0.0
H2388 H 0.96799 0.46587 0.75982 0.0
H2389 H 0.96966 0.3378 0.77699 0.0
H2390 H -0.0008 0.35156 0.77029 0.0
H2391 H 0.99131 0.35706 0.78684 0.0
H2392 H 0.07051 0.39611 0.75985 0.0
H2393 H 0.05096 0.41539 0.79889 0.0
H2394 H 0.00822 0.40865 0.74638 0.0
H2395 H 0.00992 0.37468 0.75021 0.0
H2396 H 0.03837 0.39097 0.7438 0.0
H2397 H 0.98607 0.43385 0.79362 0.0
H2398 H 0.00829 0.42246 0.80584 0.0
H2399 H 0.98575 0.4002 0.79826 0.0
C2400 C 0.43796 0.55986 0.26982 0.0
C2401 C 0.42309 0.58272 0.27048 0.0
C2402 C 0.465 0.56108 0.26782 0.0
C2403 C 0.47715 0.58586 0.26675 0.0
C2404 C 0.46164 0.60877 0.26599 0.0
C2405 C 0.43457 0.60692 0.26794 0.0
C2406 C 0.48078 0.53615 0.2685 0.0
C2407 C 0.47386 0.63548 0.26473 0.0
C2408 C 0.53954 0.59028 0.28594 0.0
C2409 C 0.55874 0.58906 0.27637 0.0
C2410 C 0.51297 0.59001 0.28282 0.0
C2411 C 0.50535 0.58816 0.26977 0.0
C2412 C 0.52455 0.58737 0.26 0.0
C2413 C 0.55114 0.58792 0.26342 0.0
C2414 C 0.49305 0.59091 0.29357 0.0
C2415 C 0.51705 0.58507 0.24602 0.0
H2416 H 0.42876 0.54119 0.27183 0.0
H2417 H 0.42277 0.62453 0.26854 0.0
H2418 H 0.49734 0.53653 0.26161 0.0
H2419 H 0.48907 0.53406 0.27829 0.0
H2420 H 0.4685 0.5187 0.26646 0.0
H2421 H 0.45933 0.65034 0.2616 0.0
H2422 H 0.48184 0.64158 0.27419 0.0
H2423 H 0.49033 0.63513 0.25778 0.0
H2424 H 0.54517 0.59087 0.29595 0.0
H2425 H 0.56594 0.58678 0.25598 0.0
H2426 H 0.48172 0.57241 0.29374 0.0
H2427 H 0.47897 0.6071 0.29198 0.0
H2428 H 0.50229 0.59366 0.30314 0.0
H2429 H 0.50808 0.56565 0.24423 0.0
H2430 H 0.53419 0.58728 0.23954 0.0
H2431 H 0.5022 0.60003 0.24349 0.0
C2432 C 0.43441 0.42285 0.71319 0.0
C2433 C 0.42144 0.40052 0.7088 0.0
C2434 C 0.46168 0.42273 0.71469 0.0
C2435 C 0.47586 0.39966 0.71176 0.0
C2436 C 0.46226 0.37625 0.70889 0.0
C2437 C 0.43509 0.37707 0.70724 0.0
C2438 C 0.47538 0.44812 0.71775 0.0
C2439 C 0.4766 0.35112 0.70596 0.0
C2440 C 0.53737 0.40748 0.69211 0.0
C2441 C 0.55702 0.40275 0.70118 0.0
C2442 C 0.51097 0.40709 0.69558 0.0
C2443 C 0.504 0.40149 0.70845 0.0
C2444 C 0.5237 0.39687 0.71772 0.0
C2445 C 0.55013 0.39773 0.71398 0.0
C2446 C 0.49055 0.41251 0.6854 0.0
C2447 C 0.51686 0.39076 0.73149 0.0
H2448 H 0.4236 0.44099 0.71428 0.0
H2449 H 0.42478 0.35987 0.70382 0.0
H2450 H 0.49267 0.44484 0.72399 0.0
H2451 H 0.4824 0.45708 0.70868 0.0
H2452 H 0.46202 0.46224 0.72255 0.0
H2453 H 0.46341 0.3339 0.70657 0.0
H2454 H 0.48466 0.35203 0.69607 0.0
H2455 H 0.49324 0.34828 0.71266 0.0
H2456 H 0.5426 0.41176 0.68224 0.0
H2457 H 0.56534 0.39418 0.72103 0.0
H2458 H 0.47779 0.42895 0.68845 0.0
H2459 H 0.47788 0.39509 0.68409 0.0
H2460 H 0.49938 0.4175 0.67597 0.0
H2461 H 0.50513 0.40693 0.73568 0.0
H2462 H 0.53452 0.38774 0.73753 0.0
H2463 H 0.5046 0.37289 0.7319 0.0
C2464 C 0.93741 0.60133 0.21306 0.0
C2465 C 0.92624 0.58254 0.20498 0.0
C2466 C 0.96463 0.60175 0.21502 0.0
C2467 C 0.98047 0.58267 0.2089 0.0
C2468 C 0.96866 0.56199 0.20196 0.0
C2469 C 0.94167 0.56245 0.19991 0.0
C2470 C 0.97653 0.62396 0.22256 0.0
C2471 C 0.98472 0.54082 0.19557 0.0
C2472 C 0.0442 0.59994 0.19297 0.0
C2473 C 0.06229 0.58695 0.20074 0.0
C2474 C 0.01761 0.60029 0.19611 0.0
C2475 C 0.00892 0.58704 0.20725 0.0
C2476 C 0.0273 0.57517 0.21557 0.0
C2477 C 0.05394 0.57544 0.21225 0.0
C2478 C -0.00135 0.61349 0.18705 0.0
C2479 C 0.0187 0.56083 0.2275 0.0
H2480 H 0.92523 0.61673 0.21703 0.0
H2481 H 0.93271 0.54764 0.19386 0.0
H2482 H 0.99332 0.61712 0.22842 0.0
H2483 H 0.984 0.63893 0.21579 0.0
H2484 H 0.96193 0.63341 0.22898 0.0
H2485 H 0.97243 0.524 0.19252 0.0
H2486 H 0.99448 0.54894 0.18693 0.0
H2487 H 0.00021 0.53359 0.20212 0.0
H2488 H 0.05071 0.60953 0.18431 0.0
H2489 H 0.06803 0.56548 0.2183 0.0
H2490 H 0.98523 0.62657 0.19244 0.0
H2491 H 0.9865 0.59847 0.18217 0.0
H2492 H 0.00882 0.62516 0.17958 0.0
H2493 H 0.00463 0.57282 0.23309 0.0
H2494 H 0.03552 0.55567 0.23377 0.0
H2495 H 0.00849 0.54254 0.22472 0.0
loop_
_geom_bond_atom_site_label_1
_geom_bond_atom_site_label_2
_geom_bond_distance
_geom_bond_site_symmetry_2
_ccdc_geom_bond_type
Mg0 O1 2.028 . S
Mg0 O7 1.986 . S
Mg0 O9 2.114 . S
Mg0 O10 2.251 . S
Mg0 O13 2.010 . S
O1 Mg0 2.028 . S
O1 C4 1.250 . S
O2 Mg3 2.028 . S
O2 C4 1.248 . S
Mg3 O2 2.028 . S
Mg3 O8 2.032 . S
Mg3 O10 2.079 . S
C4 O1 1.250 . S
C4 O2 1.248 . S
C5 O6 1.264 . S
C5 O13 1.249 . S
O6 C5 1.264 . S
O7 Mg0 1.986 . S
O7 C11 1.246 . S
O8 Mg3 2.032 . S
O8 C11 1.259 . S
O9 Mg0 2.114 . S
O9 C12 1.252 . S
O10 Mg0 2.251 . S
O10 Mg3 2.079 . S
O10 C12 1.273 . S
C11 O7 1.246 . S
C11 O8 1.259 . S
C12 O9 1.252 . S
C12 O10 1.273 . S
O13 Mg0 2.010 . S
O13 C5 1.249 . S
Mg14 O15 2.028 . S
Mg14 O21 1.986 . S
Mg14 O23 2.114 . S
Mg14 O24 2.251 . S
Mg14 O27 2.010 . S
O15 Mg14 2.028 . S
O15 C18 1.250 . S
O16 Mg17 2.028 . S
O16 C18 1.248 . S
Mg17 O16 2.028 . S
Mg17 O22 2.032 . S
Mg17 O24 2.079 . S
C18 O15 1.250 . S
C18 O16 1.248 . S
C19 O20 1.264 . S
C19 O27 1.249 . S
O20 C19 1.264 . S
O21 Mg14 1.986 . S
O21 C25 1.246 . S
O22 Mg17 2.032 . S
O22 C25 1.259 . S
O23 Mg14 2.114 . S
O23 C26 1.252 . S
O24 Mg14 2.251 . S
O24 Mg17 2.079 . S
O24 C26 1.273 . S
C25 O21 1.246 . S
C25 O22 1.259 . S
C26 O23 1.252 . S
C26 O24 1.273 . S
O27 Mg14 2.010 . S
O27 C19 1.249 . S
Mg28 O29 2.028 . S
Mg28 O35 1.986 . S
Mg28 O37 2.114 . S
Mg28 O38 2.251 . S
Mg28 O41 2.010 . S
O29 Mg28 2.028 . S
O29 C32 1.250 . S
O30 Mg31 2.028 . S
O30 C32 1.248 . S
Mg31 O30 2.028 . S
Mg31 O36 2.032 . S
Mg31 O38 2.079 . S
C32 O29 1.250 . S
C32 O30 1.248 . S
C33 O34 1.264 . S
C33 O41 1.249 . S
O34 C33 1.264 . S
O35 Mg28 1.986 . S
O35 C39 1.246 . S
O36 Mg31 2.032 . S
O36 C39 1.259 . S
O37 Mg28 2.114 . S
O37 C40 1.252 . S
O38 Mg28 2.251 . S
O38 Mg31 2.079 . S
O38 C40 1.273 . S
C39 O35 1.246 . S
C39 O36 1.259 . S
C40 O37 1.252 . S
C40 O38 1.273 . S
O41 Mg28 2.010 . S
O41 C33 1.249 . S
Mg42 O43 2.028 . S
Mg42 O49 1.986 . S
Mg42 O51 2.114 . S
Mg42 O52 2.251 . S
Mg42 O55 2.010 . S
O43 Mg42 2.028 . S
O43 C46 1.250 . S
O44 Mg45 2.028 . S
O44 C46 1.248 . S
Mg45 O44 2.028 . S
Mg45 O50 2.032 . S
Mg45 O52 2.079 . S
C46 O43 1.250 . S
C46 O44 1.248 . S
C47 O48 1.264 . S
C47 O55 1.249 . S
O48 C47 1.264 . S
O49 Mg42 1.986 . S
O49 C53 1.246 . S
O50 Mg45 2.032 . S
O50 C53 1.259 . S
O51 Mg42 2.114 . S
O51 C54 1.252 . S
O52 Mg42 2.251 . S
O52 Mg45 2.079 . S
O52 C54 1.273 . S
C53 O49 1.246 . S
C53 O50 1.259 . S
C54 O51 1.252 . S
C54 O52 1.273 . S
O55 Mg42 2.010 . S
O55 C47 1.249 . S
Mg56 O57 2.028 . S
Mg56 O63 1.986 . S
Mg56 O65 2.114 . S
Mg56 O66 2.251 . S
Mg56 O69 2.010 . S
O57 Mg56 2.028 . S
O57 C60 1.250 . S
O58 Mg59 2.028 . S
O58 C60 1.248 . S
Mg59 O58 2.028 . S
Mg59 O64 2.032 . S
Mg59 O66 2.079 . S
C60 O57 1.250 . S
C60 O58 1.248 . S
C61 O62 1.264 . S
C61 O69 1.249 . S
O62 C61 1.264 . S
O63 Mg56 1.986 . S
O63 C67 1.246 . S
O64 Mg59 2.032 . S
O64 C67 1.259 . S
O65 Mg56 2.114 . S
O65 C68 1.252 . S
O66 Mg56 2.251 . S
O66 Mg59 2.079 . S
O66 C68 1.273 . S
C67 O63 1.246 . S
C67 O64 1.259 . S
C68 O65 1.252 . S
C68 O66 1.273 . S
O69 Mg56 2.010 . S
O69 C61 1.249 . S
Mg70 O71 2.028 . S
Mg70 O77 1.986 . S
Mg70 O79 2.114 . S
Mg70 O80 2.251 . S
Mg70 O83 2.010 . S
O71 Mg70 2.028 . S
O71 C74 1.250 . S
O72 Mg73 2.028 . S
O72 C74 1.248 . S
Mg73 O72 2.028 . S
Mg73 O78 2.032 . S
Mg73 O80 2.079 . S
C74 O71 1.250 . S
C74 O72 1.248 . S
C75 O76 1.264 . S
C75 O83 1.249 . S
O76 C75 1.264 . S
O77 Mg70 1.986 . S
O77 C81 1.246 . S
O78 Mg73 2.032 . S
O78 C81 1.259 . S
O79 Mg70 2.114 . S
O79 C82 1.252 . S
O80 Mg70 2.251 . S
O80 Mg73 2.079 . S
O80 C82 1.273 . S
C81 O77 1.246 . S
C81 O78 1.259 . S
C82 O79 1.252 . S
C82 O80 1.273 . S
O83 Mg70 2.010 . S
O83 C75 1.249 . S
Mg84 O85 2.028 . S
Mg84 O91 1.986 . S
Mg84 O93 2.114 . S
Mg84 O94 2.251 . S
Mg84 O97 2.010 . S
O85 Mg84 2.028 . S
O85 C88 1.250 . S
O86 Mg87 2.028 . S
O86 C88 1.248 . S
Mg87 O86 2.028 . S
Mg87 O92 2.032 . S
Mg87 O94 2.079 . S
C88 O85 1.250 . S
C88 O86 1.248 . S
C89 O90 1.264 . S
C89 O97 1.249 . S
O90 C89 1.264 . S
O91 Mg84 1.986 . S
O91 C95 1.246 . S
O92 Mg87 2.032 . S
O92 C95 1.259 . S
O93 Mg84 2.114 . S
O93 C96 1.252 . S
O94 Mg84 2.251 . S
O94 Mg87 2.079 . S
O94 C96 1.273 . S
C95 O91 1.246 . S
C95 O92 1.259 . S
C96 O93 1.252 . S
C96 O94 1.273 . S
O97 Mg84 2.010 . S
O97 C89 1.249 . S
Mg98 O99 2.028 . S
Mg98 O105 1.986 . S
Mg98 O107 2.114 . S
Mg98 O108 2.251 . S
Mg98 O111 2.010 . S
O99 Mg98 2.028 . S
O99 C102 1.250 . S
O100 Mg101 2.028 . S
O100 C102 1.248 . S
Mg101 O100 2.028 . S
Mg101 O106 2.032 . S
Mg101 O108 2.079 . S
C102 O99 1.250 . S
C102 O100 1.248 . S
C103 O104 1.264 . S
C103 O111 1.249 . S
O104 C103 1.264 . S
O105 Mg98 1.986 . S
O105 C109 1.246 . S
O106 Mg101 2.032 . S
O106 C109 1.259 . S
O107 Mg98 2.114 . S
O107 C110 1.252 . S
O108 Mg98 2.251 . S
O108 Mg101 2.079 . S
O108 C110 1.273 . S
C109 O105 1.246 . S
C109 O106 1.259 . S
C110 O107 1.252 . S
C110 O108 1.273 . S
O111 Mg98 2.010 . S
O111 C103 1.249 . S
Mg112 O113 2.028 . S
Mg112 O119 1.986 . S
Mg112 O121 2.114 . S
Mg112 O122 2.251 . S
Mg112 O125 2.010 . S
O113 Mg112 2.028 . S
O113 C116 1.250 . S
O114 Mg115 2.028 . S
O114 C116 1.248 . S
Mg115 O114 2.028 . S
Mg115 O120 2.032 . S
Mg115 O122 2.079 . S
C116 O113 1.250 . S
C116 O114 1.248 . S
C117 O118 1.264 . S
C117 O125 1.249 . S
O118 C117 1.264 . S
O119 Mg112 1.986 . S
O119 C123 1.246 . S
O120 Mg115 2.032 . S
O120 C123 1.259 . S
O121 Mg112 2.114 . S
O121 C124 1.252 . S
O122 Mg112 2.251 . S
O122 Mg115 2.079 . S
O122 C124 1.273 . S
C123 O119 1.246 . S
C123 O120 1.259 . S
C124 O121 1.252 . S
C124 O122 1.273 . S
O125 Mg112 2.010 . S
O125 C117 1.249 . S
Mg126 O127 2.028 . S
Mg126 O133 1.986 . S
Mg126 O135 2.114 . S
Mg126 O136 2.251 . S
Mg126 O139 2.010 . S
O127 Mg126 2.028 . S
O127 C130 1.250 . S
O128 Mg129 2.028 . S
O128 C130 1.248 . S
Mg129 O128 2.028 . S
Mg129 O134 2.032 . S
Mg129 O136 2.079 . S
C130 O127 1.250 . S
C130 O128 1.248 . S
C131 O132 1.264 . S
C131 O139 1.249 . S
O132 C131 1.264 . S
O133 Mg126 1.986 . S
O133 C137 1.246 . S
O134 Mg129 2.032 . S
O134 C137 1.259 . S
O135 Mg126 2.114 . S
O135 C138 1.252 . S
O136 Mg126 2.251 . S
O136 Mg129 2.079 . S
O136 C138 1.273 . S
C137 O133 1.246 . S
C137 O134 1.259 . S
C138 O135 1.252 . S
C138 O136 1.273 . S
O139 Mg126 2.010 . S
O139 C131 1.249 . S
Mg140 O141 2.028 . S
Mg140 O147 1.986 . S
Mg140 O149 2.114 . S
Mg140 O150 2.251 . S
Mg140 O153 2.010 . S
O141 Mg140 2.028 . S
O141 C144 1.250 . S
O142 Mg143 2.028 . S
O142 C144 1.248 . S
Mg143 O142 2.028 . S
Mg143 O148 2.032 . S
Mg143 O150 2.079 . S
C144 O141 1.250 . S
C144 O142 1.248 . S
C145 O146 1.264 . S
C145 O153 1.249 . S
O146 C145 1.264 . S
O147 Mg140 1.986 . S
O147 C151 1.246 . S
O148 Mg143 2.032 . S
O148 C151 1.259 . S
O149 Mg140 2.114 . S
O149 C152 1.252 . S
O150 Mg140 2.251 . S
O150 Mg143 2.079 . S
O150 C152 1.273 . S
C151 O147 1.246 . S
C151 O148 1.259 . S
C152 O149 1.252 . S
C152 O150 1.273 . S
O153 Mg140 2.010 . S
O153 C145 1.249 . S
Mg154 O155 2.028 . S
Mg154 O161 1.986 . S
Mg154 O163 2.114 . S
Mg154 O164 2.251 . S
Mg154 O167 2.010 . S
O155 Mg154 2.028 . S
O155 C158 1.250 . S
O156 Mg157 2.028 . S
O156 C158 1.248 . S
Mg157 O156 2.028 . S
Mg157 O162 2.032 . S
Mg157 O164 2.079 . S
C158 O155 1.250 . S
C158 O156 1.248 . S
C159 O160 1.264 . S
C159 O167 1.249 . S
O160 C159 1.264 . S
O161 Mg154 1.986 . S
O161 C165 1.246 . S
O162 Mg157 2.032 . S
O162 C165 1.259 . S
O163 Mg154 2.114 . S
O163 C166 1.252 . S
O164 Mg154 2.251 . S
O164 Mg157 2.079 . S
O164 C166 1.273 . S
C165 O161 1.246 . S
C165 O162 1.259 . S
C166 O163 1.252 . S
C166 O164 1.273 . S
O167 Mg154 2.010 . S
O167 C159 1.249 . S
Mg168 O169 2.028 . S
Mg168 O175 1.986 . S
Mg168 O177 2.114 . S
Mg168 O178 2.251 . S
Mg168 O181 2.010 . S
O169 Mg168 2.028 . S
O169 C172 1.250 . S
O170 Mg171 2.028 . S
O170 C172 1.248 . S
Mg171 O170 2.028 . S
Mg171 O176 2.032 . S
Mg171 O178 2.079 . S
C172 O169 1.250 . S
C172 O170 1.248 . S
C173 O174 1.264 . S
C173 O181 1.249 . S
O174 C173 1.264 . S
O175 Mg168 1.986 . S
O175 C179 1.246 . S
O176 Mg171 2.032 . S
O176 C179 1.259 . S
O177 Mg168 2.114 . S
O177 C180 1.252 . S
O178 Mg168 2.251 . S
O178 Mg171 2.079 . S
O178 C180 1.273 . S
C179 O175 1.246 . S
C179 O176 1.259 . S
C180 O177 1.252 . S
C180 O178 1.273 . S
O181 Mg168 2.010 . S
O181 C173 1.249 . S
Mg182 O183 2.028 . S
Mg182 O189 1.986 . S
Mg182 O191 2.114 . S
Mg182 O192 2.251 . S
Mg182 O195 2.010 . S
O183 Mg182 2.028 . S
O183 C186 1.250 . S
O184 Mg185 2.028 . S
O184 C186 1.248 . S
Mg185 O184 2.028 . S
Mg185 O190 2.032 . S
Mg185 O192 2.079 . S
C186 O183 1.250 . S
C186 O184 1.248 . S
C187 O188 1.264 . S
C187 O195 1.249 . S
O188 C187 1.264 . S
O189 Mg182 1.986 . S
O189 C193 1.246 . S
O190 Mg185 2.032 . S
O190 C193 1.259 . S
O191 Mg182 2.114 . S
O191 C194 1.252 . S
O192 Mg182 2.251 . S
O192 Mg185 2.079 . S
O192 C194 1.273 . S
C193 O189 1.246 . S
C193 O190 1.259 . S
C194 O191 1.252 . S
C194 O192 1.273 . S
O195 Mg182 2.010 . S
O195 C187 1.249 . S
Mg196 O197 2.028 . S
Mg196 O203 1.986 . S
Mg196 O205 2.114 . S
Mg196 O206 2.251 . S
Mg196 O209 2.010 . S
O197 Mg196 2.028 . S
O197 C200 1.250 . S
O198 Mg199 2.028 . S
O198 C200 1.248 . S
Mg199 O198 2.028 . S
Mg199 O204 2.032 . S
Mg199 O206 2.079 . S
C200 O197 1.250 . S
C200 O198 1.248 . S
C201 O202 1.264 . S
C201 O209 1.249 . S
O202 C201 1.264 . S
O203 Mg196 1.986 . S
O203 C207 1.246 . S
O204 Mg199 2.032 . S
O204 C207 1.259 . S
O205 Mg196 2.114 . S
O205 C208 1.252 . S
O206 Mg196 2.251 . S
O206 Mg199 2.079 . S
O206 C208 1.273 . S
C207 O203 1.246 . S
C207 O204 1.259 . S
C208 O205 1.252 . S
C208 O206 1.273 . S
O209 Mg196 2.010 . S
O209 C201 1.249 . S
Mg210 O211 2.028 . S
Mg210 O217 1.986 . S
Mg210 O219 2.114 . S
Mg210 O220 2.251 . S
Mg210 O223 2.010 . S
O211 Mg210 2.028 . S
O211 C214 1.250 . S
O212 Mg213 2.028 . S
O212 C214 1.248 . S
Mg213 O212 2.028 . S
Mg213 O218 2.032 . S
Mg213 O220 2.079 . S
C214 O211 1.250 . S
C214 O212 1.248 . S
C215 O216 1.264 . S
C215 O223 1.249 . S
O216 C215 1.264 . S
O217 Mg210 1.986 . S
O217 C221 1.246 . S
O218 Mg213 2.032 . S
O218 C221 1.259 . S
O219 Mg210 2.114 . S
O219 C222 1.252 . S
O220 Mg210 2.251 . S
O220 Mg213 2.079 . S
O220 C222 1.273 . S
C221 O217 1.246 . S
C221 O218 1.259 . S
C222 O219 1.252 . S
C222 O220 1.273 . S
O223 Mg210 2.010 . S
O223 C215 1.249 . S
Mg224 O225 2.028 . S
Mg224 O231 1.986 . S
Mg224 O233 2.114 . S
Mg224 O234 2.251 . S
Mg224 O237 2.010 . S
O225 Mg224 2.028 . S
O225 C228 1.250 . S
O226 Mg227 2.028 . S
O226 C228 1.248 . S
Mg227 O226 2.028 . S
Mg227 O232 2.032 . S
Mg227 O234 2.079 . S
C228 O225 1.250 . S
C228 O226 1.248 . S
C229 O230 1.264 . S
C229 O237 1.249 . S
O230 C229 1.264 . S
O231 Mg224 1.986 . S
O231 C235 1.246 . S
O232 Mg227 2.032 . S
O232 C235 1.259 . S
O233 Mg224 2.114 . S
O233 C236 1.252 . S
O234 Mg224 2.251 . S
O234 Mg227 2.079 . S
O234 C236 1.273 . S
C235 O231 1.246 . S
C235 O232 1.259 . S
C236 O233 1.252 . S
C236 O234 1.273 . S
O237 Mg224 2.010 . S
O237 C229 1.249 . S
Mg238 O239 2.028 . S
Mg238 O245 1.986 . S
Mg238 O247 2.114 . S
Mg238 O248 2.251 . S
Mg238 O251 2.010 . S
O239 Mg238 2.028 . S
O239 C242 1.250 . S
O240 Mg241 2.028 . S
O240 C242 1.248 . S
Mg241 O240 2.028 . S
Mg241 O246 2.032 . S
Mg241 O248 2.079 . S
C242 O239 1.250 . S
C242 O240 1.248 . S
C243 O244 1.264 . S
C243 O251 1.249 . S
O244 C243 1.264 . S
O245 Mg238 1.986 . S
O245 C249 1.246 . S
O246 Mg241 2.032 . S
O246 C249 1.259 . S
O247 Mg238 2.114 . S
O247 C250 1.252 . S
O248 Mg238 2.251 . S
O248 Mg241 2.079 . S
O248 C250 1.273 . S
C249 O245 1.246 . S
C249 O246 1.259 . S
C250 O247 1.252 . S
C250 O248 1.273 . S
O251 Mg238 2.010 . S
O251 C243 1.249 . S
Mg252 O253 2.028 . S
Mg252 O259 1.986 . S
Mg252 O261 2.114 . S
Mg252 O262 2.251 . S
Mg252 O265 2.010 . S
O253 Mg252 2.028 . S
O253 C256 1.250 . S
O254 Mg255 2.028 . S
O254 C256 1.248 . S
Mg255 O254 2.028 . S
Mg255 O260 2.032 . S
Mg255 O262 2.079 . S
C256 O253 1.250 . S
C256 O254 1.248 . S
C257 O258 1.264 . S
C257 O265 1.249 . S
O258 C257 1.264 . S
O259 Mg252 1.986 . S
O259 C263 1.246 . S
O260 Mg255 2.032 . S
O260 C263 1.259 . S
O261 Mg252 2.114 . S
O261 C264 1.252 . S
O262 Mg252 2.251 . S
O262 Mg255 2.079 . S
O262 C264 1.273 . S
C263 O259 1.246 . S
C263 O260 1.259 . S
C264 O261 1.252 . S
C264 O262 1.273 . S
O265 Mg252 2.010 . S
O265 C257 1.249 . S
Mg266 O267 2.028 . S
Mg266 O273 1.986 . S
Mg266 O275 2.114 . S
Mg266 O276 2.251 . S
Mg266 O279 2.010 . S
O267 Mg266 2.028 . S
O267 C270 1.250 . S
O268 Mg269 2.028 . S
O268 C270 1.248 . S
Mg269 O268 2.028 . S
Mg269 O274 2.032 . S
Mg269 O276 2.079 . S
C270 O267 1.250 . S
C270 O268 1.248 . S
C271 O272 1.264 . S
C271 O279 1.249 . S
O272 C271 1.264 . S
O273 Mg266 1.986 . S
O273 C277 1.246 . S
O274 Mg269 2.032 . S
O274 C277 1.259 . S
O275 Mg266 2.114 . S
O275 C278 1.252 . S
O276 Mg266 2.251 . S
O276 Mg269 2.079 . S
O276 C278 1.273 . S
C277 O273 1.246 . S
C277 O274 1.259 . S
C278 O275 1.252 . S
C278 O276 1.273 . S
O279 Mg266 2.010 . S
O279 C271 1.249 . S
Mg280 O281 2.028 . S
Mg280 O287 1.986 . S
Mg280 O289 2.114 . S
Mg280 O290 2.251 . S
Mg280 O293 2.010 . S
O281 Mg280 2.028 . S
O281 C284 1.250 . S
O282 Mg283 2.028 . S
O282 C284 1.248 . S
Mg283 O282 2.028 . S
Mg283 O288 2.032 . S
Mg283 O290 2.079 . S
C284 O281 1.250 . S
C284 O282 1.248 . S
C285 O286 1.264 . S
C285 O293 1.249 . S
O286 C285 1.264 . S
O287 Mg280 1.986 . S
O287 C291 1.246 . S
O288 Mg283 2.032 . S
O288 C291 1.259 . S
O289 Mg280 2.114 . S
O289 C292 1.252 . S
O290 Mg280 2.251 . S
O290 Mg283 2.079 . S
O290 C292 1.273 . S
C291 O287 1.246 . S
C291 O288 1.259 . S
C292 O289 1.252 . S
C292 O290 1.273 . S
O293 Mg280 2.010 . S
O293 C285 1.249 . S
Mg294 O295 2.028 . S
Mg294 O301 1.986 . S
Mg294 O303 2.114 . S
Mg294 O304 2.251 . S
Mg294 O307 2.010 . S
O295 Mg294 2.028 . S
O295 C298 1.250 . S
O296 Mg297 2.028 . S
O296 C298 1.248 . S
Mg297 O296 2.028 . S
Mg297 O302 2.032 . S
Mg297 O304 2.079 . S
C298 O295 1.250 . S
C298 O296 1.248 . S
C299 O300 1.264 . S
C299 O307 1.249 . S
O300 C299 1.264 . S
O301 Mg294 1.986 . S
O301 C305 1.246 . S
O302 Mg297 2.032 . S
O302 C305 1.259 . S
O303 Mg294 2.114 . S
O303 C306 1.252 . S
O304 Mg294 2.251 . S
O304 Mg297 2.079 . S
O304 C306 1.273 . S
C305 O301 1.246 . S
C305 O302 1.259 . S
C306 O303 1.252 . S
C306 O304 1.273 . S
O307 Mg294 2.010 . S
O307 C299 1.249 . S
Mg308 O309 2.028 . S
Mg308 O315 1.986 . S
Mg308 O317 2.114 . S
Mg308 O318 2.251 . S
Mg308 O321 2.010 . S
O309 Mg308 2.028 . S
O309 C312 1.250 . S
O310 Mg311 2.028 . S
O310 C312 1.248 . S
Mg311 O310 2.028 . S
Mg311 O316 2.032 . S
Mg311 O318 2.079 . S
C312 O309 1.250 . S
C312 O310 1.248 . S
C313 O314 1.264 . S
C313 O321 1.249 . S
O314 C313 1.264 . S
O315 Mg308 1.986 . S
O315 C319 1.246 . S
O316 Mg311 2.032 . S
O316 C319 1.259 . S
O317 Mg308 2.114 . S
O317 C320 1.252 . S
O318 Mg308 2.251 . S
O318 Mg311 2.079 . S
O318 C320 1.273 . S
C319 O315 1.246 . S
C319 O316 1.259 . S
C320 O317 1.252 . S
C320 O318 1.273 . S
O321 Mg308 2.010 . S
O321 C313 1.249 . S
Mg322 O323 2.028 . S
Mg322 O329 1.986 . S
Mg322 O331 2.114 . S
Mg322 O332 2.251 . S
Mg322 O335 2.010 . S
O323 Mg322 2.028 . S
O323 C326 1.250 . S
O324 Mg325 2.028 . S
O324 C326 1.248 . S
Mg325 O324 2.028 . S
Mg325 O330 2.032 . S
Mg325 O332 2.079 . S
C326 O323 1.250 . S
C326 O324 1.248 . S
C327 O328 1.264 . S
C327 O335 1.249 . S
O328 C327 1.264 . S
O329 Mg322 1.986 . S
O329 C333 1.246 . S
O330 Mg325 2.032 . S
O330 C333 1.259 . S
O331 Mg322 2.114 . S
O331 C334 1.252 . S
O332 Mg322 2.251 . S
O332 Mg325 2.079 . S
O332 C334 1.273 . S
C333 O329 1.246 . S
C333 O330 1.259 . S
C334 O331 1.252 . S
C334 O332 1.273 . S
O335 Mg322 2.010 . S
O335 C327 1.249 . S
Mg336 O337 2.028 . S
Mg336 O343 1.986 . S
Mg336 O345 2.114 . S
Mg336 O346 2.251 . S
Mg336 O349 2.010 . S
O337 Mg336 2.028 . S
O337 C340 1.250 . S
O338 Mg339 2.028 . S
O338 C340 1.248 . S
Mg339 O338 2.028 . S
Mg339 O344 2.032 . S
Mg339 O346 2.079 . S
C340 O337 1.250 . S
C340 O338 1.248 . S
C341 O342 1.264 . S
C341 O349 1.249 . S
O342 C341 1.264 . S
O343 Mg336 1.986 . S
O343 C347 1.246 . S
O344 Mg339 2.032 . S
O344 C347 1.259 . S
O345 Mg336 2.114 . S
O345 C348 1.252 . S
O346 Mg336 2.251 . S
O346 Mg339 2.079 . S
O346 C348 1.273 . S
C347 O343 1.246 . S
C347 O344 1.259 . S
C348 O345 1.252 . S
C348 O346 1.273 . S
O349 Mg336 2.010 . S
O349 C341 1.249 . S
Mg350 O351 2.028 . S
Mg350 O357 1.986 . S
Mg350 O359 2.114 . S
Mg350 O360 2.251 . S
Mg350 O363 2.010 . S
O351 Mg350 2.028 . S
O351 C354 1.250 . S
O352 Mg353 2.028 . S
O352 C354 1.248 . S
Mg353 O352 2.028 . S
Mg353 O358 2.032 . S
Mg353 O360 2.079 . S
C354 O351 1.250 . S
C354 O352 1.248 . S
C355 O356 1.264 . S
C355 O363 1.249 . S
O356 C355 1.264 . S
O357 Mg350 1.986 . S
O357 C361 1.246 . S
O358 Mg353 2.032 . S
O358 C361 1.259 . S
O359 Mg350 2.114 . S
O359 C362 1.252 . S
O360 Mg350 2.251 . S
O360 Mg353 2.079 . S
O360 C362 1.273 . S
C361 O357 1.246 . S
C361 O358 1.259 . S
C362 O359 1.252 . S
C362 O360 1.273 . S
O363 Mg350 2.010 . S
O363 C355 1.249 . S
Mg364 O365 2.028 . S
Mg364 O371 1.986 . S
Mg364 O373 2.114 . S
Mg364 O374 2.251 . S
Mg364 O377 2.010 . S
O365 Mg364 2.028 . S
O365 C368 1.250 . S
O366 Mg367 2.028 . S
O366 C368 1.248 . S
Mg367 O366 2.028 . S
Mg367 O372 2.032 . S
Mg367 O374 2.079 . S
C368 O365 1.250 . S
C368 O366 1.248 . S
C369 O370 1.264 . S
C369 O377 1.249 . S
O370 C369 1.264 . S
O371 Mg364 1.986 . S
O371 C375 1.246 . S
O372 Mg367 2.032 . S
O372 C375 1.259 . S
O373 Mg364 2.114 . S
O373 C376 1.252 . S
O374 Mg364 2.251 . S
O374 Mg367 2.079 . S
O374 C376 1.273 . S
C375 O371 1.246 . S
C375 O372 1.259 . S
C376 O373 1.252 . S
C376 O374 1.273 . S
O377 Mg364 2.010 . S
O377 C369 1.249 . S
Mg378 O379 2.028 . S
Mg378 O385 1.986 . S
Mg378 O387 2.114 . S
Mg378 O388 2.251 . S
Mg378 O391 2.010 . S
O379 Mg378 2.028 . S
O379 C382 1.250 . S
O380 Mg381 2.028 . S
O380 C382 1.248 . S
Mg381 O380 2.028 . S
Mg381 O386 2.032 . S
Mg381 O388 2.079 . S
C382 O379 1.250 . S
C382 O380 1.248 . S
C383 O384 1.264 . S
C383 O391 1.249 . S
O384 C383 1.264 . S
O385 Mg378 1.986 . S
O385 C389 1.246 . S
O386 Mg381 2.032 . S
O386 C389 1.259 . S
O387 Mg378 2.114 . S
O387 C390 1.252 . S
O388 Mg378 2.251 . S
O388 Mg381 2.079 . S
O388 C390 1.273 . S
C389 O385 1.246 . S
C389 O386 1.259 . S
C390 O387 1.252 . S
C390 O388 1.273 . S
O391 Mg378 2.010 . S
O391 C383 1.249 . S
Mg392 O393 2.028 . S
Mg392 O399 1.986 . S
Mg392 O401 2.114 . S
Mg392 O402 2.251 . S
Mg392 O405 2.010 . S
O393 Mg392 2.028 . S
O393 C396 1.250 . S
O394 Mg395 2.028 . S
O394 C396 1.248 . S
Mg395 O394 2.028 . S
Mg395 O400 2.032 . S
Mg395 O402 2.079 . S
C396 O393 1.250 . S
C396 O394 1.248 . S
C397 O398 1.264 . S
C397 O405 1.249 . S
O398 C397 1.264 . S
O399 Mg392 1.986 . S
O399 C403 1.246 . S
O400 Mg395 2.032 . S
O400 C403 1.259 . S
O401 Mg392 2.114 . S
O401 C404 1.252 . S
O402 Mg392 2.251 . S
O402 Mg395 2.079 . S
O402 C404 1.273 . S
C403 O399 1.246 . S
C403 O400 1.259 . S
C404 O401 1.252 . S
C404 O402 1.273 . S
O405 Mg392 2.010 . S
O405 C397 1.249 . S
Mg406 O407 2.028 . S
Mg406 O413 1.986 . S
Mg406 O415 2.114 . S
Mg406 O416 2.251 . S
Mg406 O419 2.010 . S
O407 Mg406 2.028 . S
O407 C410 1.250 . S
O408 Mg409 2.028 . S
O408 C410 1.248 . S
Mg409 O408 2.028 . S
Mg409 O414 2.032 . S
Mg409 O416 2.079 . S
C410 O407 1.250 . S
C410 O408 1.248 . S
C411 O412 1.264 . S
C411 O419 1.249 . S
O412 C411 1.264 . S
O413 Mg406 1.986 . S
O413 C417 1.246 . S
O414 Mg409 2.032 . S
O414 C417 1.259 . S
O415 Mg406 2.114 . S
O415 C418 1.252 . S
O416 Mg406 2.251 . S
O416 Mg409 2.079 . S
O416 C418 1.273 . S
C417 O413 1.246 . S
C417 O414 1.259 . S
C418 O415 1.252 . S
C418 O416 1.273 . S
O419 Mg406 2.010 . S
O419 C411 1.249 . S
Mg420 O421 2.028 . S
Mg420 O427 1.986 . S
Mg420 O429 2.114 . S
Mg420 O430 2.251 . S
Mg420 O433 2.010 . S
O421 Mg420 2.028 . S
O421 C424 1.250 . S
O422 Mg423 2.028 . S
O422 C424 1.248 . S
Mg423 O422 2.028 . S
Mg423 O428 2.032 . S
Mg423 O430 2.079 . S
C424 O421 1.250 . S
C424 O422 1.248 . S
C425 O426 1.264 . S
C425 O433 1.249 . S
O426 C425 1.264 . S
O427 Mg420 1.986 . S
O427 C431 1.246 . S
O428 Mg423 2.032 . S
O428 C431 1.259 . S
O429 Mg420 2.114 . S
O429 C432 1.252 . S
O430 Mg420 2.251 . S
O430 Mg423 2.079 . S
O430 C432 1.273 . S
C431 O427 1.246 . S
C431 O428 1.259 . S
C432 O429 1.252 . S
C432 O430 1.273 . S
O433 Mg420 2.010 . S
O433 C425 1.249 . S
Mg434 O435 2.028 . S
Mg434 O441 1.986 . S
Mg434 O443 2.114 . S
Mg434 O444 2.251 . S
Mg434 O447 2.010 . S
O435 Mg434 2.028 . S
O435 C438 1.250 . S
O436 Mg437 2.028 . S
O436 C438 1.248 . S
Mg437 O436 2.028 . S
Mg437 O442 2.032 . S
Mg437 O444 2.079 . S
C438 O435 1.250 . S
C438 O436 1.248 . S
C439 O440 1.264 . S
C439 O447 1.249 . S
O440 C439 1.264 . S
O441 Mg434 1.986 . S
O441 C445 1.246 . S
O442 Mg437 2.032 . S
O442 C445 1.259 . S
O443 Mg434 2.114 . S
O443 C446 1.252 . S
O444 Mg434 2.251 . S
O444 Mg437 2.079 . S
O444 C446 1.273 . S
C445 O441 1.246 . S
C445 O442 1.259 . S
C446 O443 1.252 . S
C446 O444 1.273 . S
O447 Mg434 2.010 . S
O447 C439 1.249 . S
C448 C449 1.391 . S
C448 C450 1.394 . S
C448 H464 0.931 . S
C449 C448 1.391 . S
C449 C453 1.376 . S
C450 C448 1.394 . S
C450 C451 1.369 . S
C450 C454 1.531 . S
C451 C450 1.369 . S
C451 C452 1.410 . S
C451 C459 1.503 . S
C452 C451 1.410 . S
C452 C453 1.392 . S
C452 C455 1.511 . S
C453 C449 1.376 . S
C453 C452 1.392 . S
C453 H465 0.929 . S
C454 C450 1.531 . S
C454 H466 0.960 . S
C454 H467 0.962 . S
C454 H468 0.960 . S
C455 C452 1.511 . S
C455 H469 0.961 . S
C455 H470 0.961 . S
C455 H471 0.961 . S
C456 C457 1.370 . S
C456 C458 1.363 . S
C456 H472 0.931 . S
C457 C456 1.370 . S
C457 C461 1.408 . S
C458 C456 1.363 . S
C458 C459 1.370 . S
C458 C462 1.524 . S
C459 C451 1.503 . S
C459 C458 1.370 . S
C459 C460 1.403 . S
C460 C459 1.403 . S
C460 C461 1.404 . S
C460 C463 1.539 . S
C461 C457 1.408 . S
C461 C460 1.404 . S
C461 H473 0.930 . S
C462 C458 1.524 . S
C462 H474 0.956 . S
C462 H475 0.961 . S
C462 H476 0.961 . S
C463 C460 1.539 . S
C463 H477 0.958 . S
C463 H478 0.961 . S
C463 H479 0.960 . S
H464 C448 0.931 . S
H465 C453 0.929 . S
H466 C454 0.960 . S
H467 C454 0.962 . S
H468 C454 0.960 . S
H469 C455 0.961 . S
H470 C455 0.961 . S
H471 C455 0.961 . S
H472 C456 0.931 . S
H473 C461 0.930 . S
H474 C462 0.956 . S
H475 C462 0.961 . S
H476 C462 0.961 . S
H477 C463 0.958 . S
H478 C463 0.961 . S
H479 C463 0.960 . S
C480 C481 1.391 . S
C480 C482 1.394 . S
C480 H496 0.931 . S
C481 C480 1.391 . S
C481 C485 1.376 . S
C482 C480 1.394 . S
C482 C483 1.369 . S
C482 C486 1.531 . S
C483 C482 1.369 . S
C483 C484 1.410 . S
C483 C491 1.503 . S
C484 C483 1.410 . S
C484 C485 1.392 . S
C484 C487 1.511 . S
C485 C481 1.376 . S
C485 C484 1.392 . S
C485 H497 0.929 . S
C486 C482 1.531 . S
C486 H498 0.960 . S
C486 H499 0.962 . S
C486 H500 0.960 . S
C487 C484 1.511 . S
C487 H501 0.961 . S
C487 H502 0.961 . S
C487 H503 0.961 . S
C488 C489 1.370 . S
C488 C490 1.363 . S
C488 H504 0.931 . S
C489 C488 1.370 . S
C489 C493 1.408 . S
C490 C488 1.363 . S
C490 C491 1.370 . S
C490 C494 1.524 . S
C491 C483 1.503 . S
C491 C490 1.370 . S
C491 C492 1.403 . S
C492 C491 1.403 . S
C492 C493 1.404 . S
C492 C495 1.539 . S
C493 C489 1.408 . S
C493 C492 1.404 . S
C493 H505 0.930 . S
C494 C490 1.524 . S
C494 H506 0.956 . S
C494 H507 0.961 . S
C494 H508 0.961 . S
C495 C492 1.539 . S
C495 H509 0.958 . S
C495 H510 0.961 . S
C495 H511 0.960 . S
H496 C480 0.931 . S
H497 C485 0.929 . S
H498 C486 0.960 . S
H499 C486 0.962 . S
H500 C486 0.960 . S
H501 C487 0.961 . S
H502 C487 0.961 . S
H503 C487 0.961 . S
H504 C488 0.931 . S
H505 C493 0.930 . S
H506 C494 0.956 . S
H507 C494 0.961 . S
H508 C494 0.961 . S
H509 C495 0.958 . S
H510 C495 0.961 . S
H511 C495 0.960 . S
C512 C513 1.391 . S
C512 C514 1.394 . S
C512 H528 0.931 . S
C513 C512 1.391 . S
C513 C517 1.376 . S
C514 C512 1.394 . S
C514 C515 1.369 . S
C514 C518 1.531 . S
C515 C514 1.369 . S
C515 C516 1.410 . S
C515 C523 1.503 . S
C516 C515 1.410 . S
C516 C517 1.392 . S
C516 C519 1.511 . S
C517 C513 1.376 . S
C517 C516 1.392 . S
C517 H529 0.929 . S
C518 C514 1.531 . S
C518 H530 0.960 . S
C518 H531 0.962 . S
C518 H532 0.960 . S
C519 C516 1.511 . S
C519 H533 0.961 . S
C519 H534 0.961 . S
C519 H535 0.961 . S
C520 C521 1.370 . S
C520 C522 1.363 . S
C520 H536 0.931 . S
C521 C520 1.370 . S
C521 C525 1.408 . S
C522 C520 1.363 . S
C522 C523 1.370 . S
C522 C526 1.524 . S
C523 C515 1.503 . S
C523 C522 1.370 . S
C523 C524 1.403 . S
C524 C523 1.403 . S
C524 C525 1.404 . S
C524 C527 1.539 . S
C525 C521 1.408 . S
C525 C524 1.404 . S
C525 H537 0.930 . S
C526 C522 1.524 . S
C526 H538 0.956 . S
C526 H539 0.961 . S
C526 H540 0.961 . S
C527 C524 1.539 . S
C527 H541 0.958 . S
C527 H542 0.961 . S
C527 H543 0.960 . S
H528 C512 0.931 . S
H529 C517 0.929 . S
H530 C518 0.960 . S
H531 C518 0.962 . S
H532 C518 0.960 . S
H533 C519 0.961 . S
H534 C519 0.961 . S
H535 C519 0.961 . S
H536 C520 0.931 . S
H537 C525 0.930 . S
H538 C526 0.956 . S
H539 C526 0.961 . S
H540 C526 0.961 . S
H541 C527 0.958 . S
H542 C527 0.961 . S
H543 C527 0.960 . S
C544 C545 1.391 . S
C544 C546 1.394 . S
C544 H560 0.931 . S
C545 C544 1.391 . S
C545 C549 1.376 . S
C546 C544 1.394 . S
C546 C547 1.369 . S
C546 C550 1.531 . S
C547 C546 1.369 . S
C547 C548 1.410 . S
C547 C555 1.503 . S
C548 C547 1.410 . S
C548 C549 1.392 . S
C548 C551 1.511 . S
C549 C545 1.376 . S
C549 C548 1.392 . S
C549 H561 0.929 . S
C550 C546 1.531 . S
C550 H562 0.960 . S
C550 H563 0.962 . S
C550 H564 0.960 . S
C551 C548 1.511 . S
C551 H565 0.961 . S
C551 H566 0.961 . S
C551 H567 0.961 . S
C552 C553 1.370 . S
C552 C554 1.363 . S
C552 H568 0.931 . S
C553 C552 1.370 . S
C553 C557 1.408 . S
C554 C552 1.363 . S
C554 C555 1.370 . S
C554 C558 1.524 . S
C555 C547 1.503 . S
C555 C554 1.370 . S
C555 C556 1.403 . S
C556 C555 1.403 . S
C556 C557 1.404 . S
C556 C559 1.539 . S
C557 C553 1.408 . S
C557 C556 1.404 . S
C557 H569 0.930 . S
C558 C554 1.524 . S
C558 H570 0.956 . S
C558 H571 0.961 . S
C558 H572 0.961 . S
C559 C556 1.539 . S
C559 H573 0.958 . S
C559 H574 0.961 . S
C559 H575 0.960 . S
H560 C544 0.931 . S
H561 C549 0.929 . S
H562 C550 0.960 . S
H563 C550 0.962 . S
H564 C550 0.960 . S
H565 C551 0.961 . S
H566 C551 0.961 . S
H567 C551 0.961 . S
H568 C552 0.931 . S
H569 C557 0.930 . S
H570 C558 0.956 . S
H571 C558 0.961 . S
H572 C558 0.961 . S
H573 C559 0.958 . S
H574 C559 0.961 . S
H575 C559 0.960 . S
C576 C577 1.391 . S
C576 C578 1.394 . S
C576 H592 0.931 . S
C577 C576 1.391 . S
C577 C581 1.376 . S
C578 C576 1.394 . S
C578 C579 1.369 . S
C578 C582 1.531 . S
C579 C578 1.369 . S
C579 C580 1.410 . S
C579 C587 1.503 . S
C580 C579 1.410 . S
C580 C581 1.392 . S
C580 C583 1.511 . S
C581 C577 1.376 . S
C581 C580 1.392 . S
C581 H593 0.929 . S
C582 C578 1.531 . S
C582 H594 0.960 . S
C582 H595 0.962 . S
C582 H596 0.960 . S
C583 C580 1.511 . S
C583 H597 0.961 . S
C583 H598 0.961 . S
C583 H599 0.961 . S
C584 C585 1.370 . S
C584 C586 1.363 . S
C584 H600 0.931 . S
C585 C584 1.370 . S
C585 C589 1.408 . S
C586 C584 1.363 . S
C586 C587 1.370 . S
C586 C590 1.524 . S
C587 C579 1.503 . S
C587 C586 1.370 . S
C587 C588 1.403 . S
C588 C587 1.403 . S
C588 C589 1.404 . S
C588 C591 1.539 . S
C589 C585 1.408 . S
C589 C588 1.404 . S
C589 H601 0.930 . S
C590 C586 1.524 . S
C590 H602 0.956 . S
C590 H603 0.961 . S
C590 H604 0.961 . S
C591 C588 1.539 . S
C591 H605 0.958 . S
C591 H606 0.961 . S
C591 H607 0.960 . S
H592 C576 0.931 . S
H593 C581 0.929 . S
H594 C582 0.960 . S
H595 C582 0.962 . S
H596 C582 0.960 . S
H597 C583 0.961 . S
H598 C583 0.961 . S
H599 C583 0.961 . S
H600 C584 0.931 . S
H601 C589 0.930 . S
H602 C590 0.956 . S
H603 C590 0.961 . S
H604 C590 0.961 . S
H605 C591 0.958 . S
H606 C591 0.961 . S
H607 C591 0.960 . S
C608 C609 1.391 . S
C608 C610 1.394 . S
C608 H624 0.931 . S
C609 C608 1.391 . S
C609 C613 1.376 . S
C610 C608 1.394 . S
C610 C611 1.369 . S
C610 C614 1.531 . S
C611 C610 1.369 . S
C611 C612 1.410 . S
C611 C619 1.503 . S
C612 C611 1.410 . S
C612 C613 1.392 . S
C612 C615 1.511 . S
C613 C609 1.376 . S
C613 C612 1.392 . S
C613 H625 0.929 . S
C614 C610 1.531 . S
C614 H626 0.960 . S
C614 H627 0.962 . S
C614 H628 0.960 . S
C615 C612 1.511 . S
C615 H629 0.961 . S
C615 H630 0.961 . S
C615 H631 0.961 . S
C616 C617 1.370 . S
C616 C618 1.363 . S
C616 H632 0.931 . S
C617 C616 1.370 . S
C617 C621 1.408 . S
C618 C616 1.363 . S
C618 C619 1.370 . S
C618 C622 1.524 . S
C619 C611 1.503 . S
C619 C618 1.370 . S
C619 C620 1.403 . S
C620 C619 1.403 . S
C620 C621 1.404 . S
C620 C623 1.539 . S
C621 C617 1.408 . S
C621 C620 1.404 . S
C621 H633 0.930 . S
C622 C618 1.524 . S
C622 H634 0.956 . S
C622 H635 0.961 . S
C622 H636 0.961 . S
C623 C620 1.539 . S
C623 H637 0.958 . S
C623 H638 0.961 . S
C623 H639 0.960 . S
H624 C608 0.931 . S
H625 C613 0.929 . S
H626 C614 0.960 . S
H627 C614 0.962 . S
H628 C614 0.960 . S
H629 C615 0.961 . S
H630 C615 0.961 . S
H631 C615 0.961 . S
H632 C616 0.931 . S
H633 C621 0.930 . S
H634 C622 0.956 . S
H635 C622 0.961 . S
H636 C622 0.961 . S
H637 C623 0.958 . S
H638 C623 0.961 . S
H639 C623 0.960 . S
C640 C641 1.391 . S
C640 C642 1.394 . S
C640 H656 0.931 . S
C641 C640 1.391 . S
C641 C645 1.376 . S
C642 C640 1.394 . S
C642 C643 1.369 . S
C642 C646 1.531 . S
C643 C642 1.369 . S
C643 C644 1.410 . S
C643 C651 1.503 . S
C644 C643 1.410 . S
C644 C645 1.392 . S
C644 C647 1.511 . S
C645 C641 1.376 . S
C645 C644 1.392 . S
C645 H657 0.929 . S
C646 C642 1.531 . S
C646 H658 0.960 . S
C646 H659 0.962 . S
C646 H660 0.960 . S
C647 C644 1.511 . S
C647 H661 0.961 . S
C647 H662 0.961 . S
C647 H663 0.961 . S
C648 C649 1.370 . S
C648 C650 1.363 . S
C648 H664 0.931 . S
C649 C648 1.370 . S
C649 C653 1.408 . S
C650 C648 1.363 . S
C650 C651 1.370 . S
C650 C654 1.524 . S
C651 C643 1.503 . S
C651 C650 1.370 . S
C651 C652 1.403 . S
C652 C651 1.403 . S
C652 C653 1.404 . S
C652 C655 1.539 . S
C653 C649 1.408 . S
C653 C652 1.404 . S
C653 H665 0.930 . S
C654 C650 1.524 . S
C654 H666 0.956 . S
C654 H667 0.961 . S
C654 H668 0.961 . S
C655 C652 1.539 . S
C655 H669 0.958 . S
C655 H670 0.961 . S
C655 H671 0.960 . S
H656 C640 0.931 . S
H657 C645 0.929 . S
H658 C646 0.960 . S
H659 C646 0.962 . S
H660 C646 0.960 . S
H661 C647 0.961 . S
H662 C647 0.961 . S
H663 C647 0.961 . S
H664 C648 0.931 . S
H665 C653 0.930 . S
H666 C654 0.956 . S
H667 C654 0.961 . S
H668 C654 0.961 . S
H669 C655 0.958 . S
H670 C655 0.961 . S
H671 C655 0.960 . S
C672 C673 1.391 . S
C672 C674 1.394 . S
C672 H688 0.931 . S
C673 C672 1.391 . S
C673 C677 1.376 . S
C674 C672 1.394 . S
C674 C675 1.369 . S
C674 C678 1.531 . S
C675 C674 1.369 . S
C675 C676 1.410 . S
C675 C683 1.503 . S
C676 C675 1.410 . S
C676 C677 1.392 . S
C676 C679 1.511 . S
C677 C673 1.376 . S
C677 C676 1.392 . S
C677 H689 0.929 . S
C678 C674 1.531 . S
C678 H690 0.960 . S
C678 H691 0.962 . S
C678 H692 0.960 . S
C679 C676 1.511 . S
C679 H693 0.961 . S
C679 H694 0.961 . S
C679 H695 0.961 . S
C680 C681 1.370 . S
C680 C682 1.363 . S
C680 H696 0.931 . S
C681 C680 1.370 . S
C681 C685 1.408 . S
C682 C680 1.363 . S
C682 C683 1.370 . S
C682 C686 1.524 . S
C683 C675 1.503 . S
C683 C682 1.370 . S
C683 C684 1.403 . S
C684 C683 1.403 . S
C684 C685 1.404 . S
C684 C687 1.539 . S
C685 C681 1.408 . S
C685 C684 1.404 . S
C685 H697 0.930 . S
C686 C682 1.524 . S
C686 H698 0.956 . S
C686 H699 0.961 . S
C686 H700 0.961 . S
C687 C684 1.539 . S
C687 H701 0.958 . S
C687 H702 0.961 . S
C687 H703 0.960 . S
H688 C672 0.931 . S
H689 C677 0.929 . S
H690 C678 0.960 . S
H691 C678 0.962 . S
H692 C678 0.960 . S
H693 C679 0.961 . S
H694 C679 0.961 . S
H695 C679 0.961 . S
H696 C680 0.931 . S
H697 C685 0.930 . S
H698 C686 0.956 . S
H699 C686 0.961 . S
H700 C686 0.961 . S
H701 C687 0.958 . S
H702 C687 0.961 . S
H703 C687 0.960 . S
C704 C705 1.391 . S
C704 C706 1.394 . S
C704 H720 0.931 . S
C705 C704 1.391 . S
C705 C709 1.376 . S
C706 C704 1.394 . S
C706 C707 1.369 . S
C706 C710 1.531 . S
C707 C706 1.369 . S
C707 C708 1.410 . S
C707 C715 1.503 . S
C708 C707 1.410 . S
C708 C709 1.392 . S
C708 C711 1.511 . S
C709 C705 1.376 . S
C709 C708 1.392 . S
C709 H721 0.929 . S
C710 C706 1.531 . S
C710 H722 0.960 . S
C710 H723 0.962 . S
C710 H724 0.960 . S
C711 C708 1.511 . S
C711 H725 0.961 . S
C711 H726 0.961 . S
C711 H727 0.961 . S
C712 C713 1.370 . S
C712 C714 1.363 . S
C712 H728 0.931 . S
C713 C712 1.370 . S
C713 C717 1.408 . S
C714 C712 1.363 . S
C714 C715 1.370 . S
C714 C718 1.524 . S
C715 C707 1.503 . S
C715 C714 1.370 . S
C715 C716 1.403 . S
C716 C715 1.403 . S
C716 C717 1.404 . S
C716 C719 1.539 . S
C717 C713 1.408 . S
C717 C716 1.404 . S
C717 H729 0.930 . S
C718 C714 1.524 . S
C718 H730 0.956 . S
C718 H731 0.961 . S
C718 H732 0.961 . S
C719 C716 1.539 . S
C719 H733 0.958 . S
C719 H734 0.961 . S
C719 H735 0.960 . S
H720 C704 0.931 . S
H721 C709 0.929 . S
H722 C710 0.960 . S
H723 C710 0.962 . S
H724 C710 0.960 . S
H725 C711 0.961 . S
H726 C711 0.961 . S
H727 C711 0.961 . S
H728 C712 0.931 . S
H729 C717 0.930 . S
H730 C718 0.956 . S
H731 C718 0.961 . S
H732 C718 0.961 . S
H733 C719 0.958 . S
H734 C719 0.961 . S
H735 C719 0.960 . S
C736 C737 1.391 . S
C736 C738 1.394 . S
C736 H752 0.931 . S
C737 C736 1.391 . S
C737 C741 1.376 . S
C738 C736 1.394 . S
C738 C739 1.369 . S
C738 C742 1.531 . S
C739 C738 1.369 . S
C739 C740 1.410 . S
C739 C747 1.503 . S
C740 C739 1.410 . S
C740 C741 1.392 . S
C740 C743 1.511 . S
C741 C737 1.376 . S
C741 C740 1.392 . S
C741 H753 0.929 . S
C742 C738 1.531 . S
C742 H754 0.960 . S
C742 H755 0.962 . S
C742 H756 0.960 . S
C743 C740 1.511 . S
C743 H757 0.961 . S
C743 H758 0.961 . S
C743 H759 0.961 . S
C744 C745 1.370 . S
C744 C746 1.363 . S
C744 H760 0.931 . S
C745 C744 1.370 . S
C745 C749 1.408 . S
C746 C744 1.363 . S
C746 C747 1.370 . S
C746 C750 1.524 . S
C747 C739 1.503 . S
C747 C746 1.370 . S
C747 C748 1.403 . S
C748 C747 1.403 . S
C748 C749 1.404 . S
C748 C751 1.539 . S
C749 C745 1.408 . S
C749 C748 1.404 . S
C749 H761 0.930 . S
C750 C746 1.524 . S
C750 H762 0.956 . S
C750 H763 0.961 . S
C750 H764 0.961 . S
C751 C748 1.539 . S
C751 H765 0.958 . S
C751 H766 0.961 . S
C751 H767 0.960 . S
H752 C736 0.931 . S
H753 C741 0.929 . S
H754 C742 0.960 . S
H755 C742 0.962 . S
H756 C742 0.960 . S
H757 C743 0.961 . S
H758 C743 0.961 . S
H759 C743 0.961 . S
H760 C744 0.931 . S
H761 C749 0.930 . S
H762 C750 0.956 . S
H763 C750 0.961 . S
H764 C750 0.961 . S
H765 C751 0.958 . S
H766 C751 0.961 . S
H767 C751 0.960 . S
C768 C769 1.391 . S
C768 C770 1.394 . S
C768 H784 0.931 . S
C769 C768 1.391 . S
C769 C773 1.376 . S
C770 C768 1.394 . S
C770 C771 1.369 . S
C770 C774 1.531 . S
C771 C770 1.369 . S
C771 C772 1.410 . S
C771 C779 1.503 . S
C772 C771 1.410 . S
C772 C773 1.392 . S
C772 C775 1.511 . S
C773 C769 1.376 . S
C773 C772 1.392 . S
C773 H785 0.929 . S
C774 C770 1.531 . S
C774 H786 0.960 . S
C774 H787 0.962 . S
C774 H788 0.960 . S
C775 C772 1.511 . S
C775 H789 0.961 . S
C775 H790 0.961 . S
C775 H791 0.961 . S
C776 C777 1.370 . S
C776 C778 1.363 . S
C776 H792 0.931 . S
C777 C776 1.370 . S
C777 C781 1.408 . S
C778 C776 1.363 . S
C778 C779 1.370 . S
C778 C782 1.524 . S
C779 C771 1.503 . S
C779 C778 1.370 . S
C779 C780 1.403 . S
C780 C779 1.403 . S
C780 C781 1.404 . S
C780 C783 1.539 . S
C781 C777 1.408 . S
C781 C780 1.404 . S
C781 H793 0.930 . S
C782 C778 1.524 . S
C782 H794 0.956 . S
C782 H795 0.961 . S
C782 H796 0.961 . S
C783 C780 1.539 . S
C783 H797 0.958 . S
C783 H798 0.961 . S
C783 H799 0.960 . S
H784 C768 0.931 . S
H785 C773 0.929 . S
H786 C774 0.960 . S
H787 C774 0.962 . S
H788 C774 0.960 . S
H789 C775 0.961 . S
H790 C775 0.961 . S
H791 C775 0.961 . S
H792 C776 0.931 . S
H793 C781 0.930 . S
H794 C782 0.956 . S
H795 C782 0.961 . S
H796 C782 0.961 . S
H797 C783 0.958 . S
H798 C783 0.961 . S
H799 C783 0.960 . S
C800 C801 1.391 . S
C800 C802 1.394 . S
C800 H816 0.931 . S
C801 C800 1.391 . S
C801 C805 1.376 . S
C802 C800 1.394 . S
C802 C803 1.369 . S
C802 C806 1.531 . S
C803 C802 1.369 . S
C803 C804 1.410 . S
C803 C811 1.503 . S
C804 C803 1.410 . S
C804 C805 1.392 . S
C804 C807 1.511 . S
C805 C801 1.376 . S
C805 C804 1.392 . S
C805 H817 0.929 . S
C806 C802 1.531 . S
C806 H818 0.960 . S
C806 H819 0.962 . S
C806 H820 0.960 . S
C807 C804 1.511 . S
C807 H821 0.961 . S
C807 H822 0.961 . S
C807 H823 0.961 . S
C808 C809 1.370 . S
C808 C810 1.363 . S
C808 H824 0.931 . S
C809 C808 1.370 . S
C809 C813 1.408 . S
C810 C808 1.363 . S
C810 C811 1.370 . S
C810 C814 1.524 . S
C811 C803 1.503 . S
C811 C810 1.370 . S
C811 C812 1.403 . S
C812 C811 1.403 . S
C812 C813 1.404 . S
C812 C815 1.539 . S
C813 C809 1.408 . S
C813 C812 1.404 . S
C813 H825 0.930 . S
C814 C810 1.524 . S
C814 H826 0.956 . S
C814 H827 0.961 . S
C814 H828 0.961 . S
C815 C812 1.539 . S
C815 H829 0.958 . S
C815 H830 0.961 . S
C815 H831 0.960 . S
H816 C800 0.931 . S
H817 C805 0.929 . S
H818 C806 0.960 . S
H819 C806 0.962 . S
H820 C806 0.960 . S
H821 C807 0.961 . S
H822 C807 0.961 . S
H823 C807 0.961 . S
H824 C808 0.931 . S
H825 C813 0.930 . S
H826 C814 0.956 . S
H827 C814 0.961 . S
H828 C814 0.961 . S
H829 C815 0.958 . S
H830 C815 0.961 . S
H831 C815 0.960 . S
C832 C833 1.391 . S
C832 C834 1.394 . S
C832 H848 0.931 . S
C833 C832 1.391 . S
C833 C837 1.376 . S
C834 C832 1.394 . S
C834 C835 1.369 . S
C834 C838 1.531 . S
C835 C834 1.369 . S
C835 C836 1.410 . S
C835 C843 1.503 . S
C836 C835 1.410 . S
C836 C837 1.392 . S
C836 C839 1.511 . S
C837 C833 1.376 . S
C837 C836 1.392 . S
C837 H849 0.929 . S
C838 C834 1.531 . S
C838 H850 0.960 . S
C838 H851 0.962 . S
C838 H852 0.960 . S
C839 C836 1.511 . S
C839 H853 0.961 . S
C839 H854 0.961 . S
C839 H855 0.961 . S
C840 C841 1.370 . S
C840 C842 1.363 . S
C840 H856 0.931 . S
C841 C840 1.370 . S
C841 C845 1.408 . S
C842 C840 1.363 . S
C842 C843 1.370 . S
C842 C846 1.524 . S
C843 C835 1.503 . S
C843 C842 1.370 . S
C843 C844 1.403 . S
C844 C843 1.403 . S
C844 C845 1.404 . S
C844 C847 1.539 . S
C845 C841 1.408 . S
C845 C844 1.404 . S
C845 H857 0.930 . S
C846 C842 1.524 . S
C846 H858 0.956 . S
C846 H859 0.961 . S
C846 H860 0.961 . S
C847 C844 1.539 . S
C847 H861 0.958 . S
C847 H862 0.961 . S
C847 H863 0.960 . S
H848 C832 0.931 . S
H849 C837 0.929 . S
H850 C838 0.960 . S
H851 C838 0.962 . S
H852 C838 0.960 . S
H853 C839 0.961 . S
H854 C839 0.961 . S
H855 C839 0.961 . S
H856 C840 0.931 . S
H857 C845 0.930 . S
H858 C846 0.956 . S
H859 C846 0.961 . S
H860 C846 0.961 . S
H861 C847 0.958 . S
H862 C847 0.961 . S
H863 C847 0.960 . S
C864 C865 1.391 . S
C864 C866 1.394 . S
C864 H880 0.931 . S
C865 C864 1.391 . S
C865 C869 1.376 . S
C866 C864 1.394 . S
C866 C867 1.369 . S
C866 C870 1.531 . S
C867 C866 1.369 . S
C867 C868 1.410 . S
C867 C875 1.503 . S
C868 C867 1.410 . S
C868 C869 1.392 . S
C868 C871 1.511 . S
C869 C865 1.376 . S
C869 C868 1.392 . S
C869 H881 0.929 . S
C870 C866 1.531 . S
C870 H882 0.960 . S
C870 H883 0.962 . S
C870 H884 0.960 . S
C871 C868 1.511 . S
C871 H885 0.961 . S
C871 H886 0.961 . S
C871 H887 0.961 . S
C872 C873 1.370 . S
C872 C874 1.363 . S
C872 H888 0.931 . S
C873 C872 1.370 . S
C873 C877 1.408 . S
C874 C872 1.363 . S
C874 C875 1.370 . S
C874 C878 1.524 . S
C875 C867 1.503 . S
C875 C874 1.370 . S
C875 C876 1.403 . S
C876 C875 1.403 . S
C876 C877 1.404 . S
C876 C879 1.539 . S
C877 C873 1.408 . S
C877 C876 1.404 . S
C877 H889 0.930 . S
C878 C874 1.524 . S
C878 H890 0.956 . S
C878 H891 0.961 . S
C878 H892 0.961 . S
C879 C876 1.539 . S
C879 H893 0.958 . S
C879 H894 0.961 . S
C879 H895 0.960 . S
H880 C864 0.931 . S
H881 C869 0.929 . S
H882 C870 0.960 . S
H883 C870 0.962 . S
H884 C870 0.960 . S
H885 C871 0.961 . S
H886 C871 0.961 . S
H887 C871 0.961 . S
H888 C872 0.931 . S
H889 C877 0.930 . S
H890 C878 0.956 . S
H891 C878 0.961 . S
H892 C878 0.961 . S
H893 C879 0.958 . S
H894 C879 0.961 . S
H895 C879 0.960 . S
C896 C897 1.391 . S
C896 C898 1.394 . S
C896 H912 0.931 . S
C897 C896 1.391 . S
C897 C901 1.376 . S
C898 C896 1.394 . S
C898 C899 1.369 . S
C898 C902 1.531 . S
C899 C898 1.369 . S
C899 C900 1.410 . S
C899 C907 1.503 . S
C900 C899 1.410 . S
C900 C901 1.392 . S
C900 C903 1.511 . S
C901 C897 1.376 . S
C901 C900 1.392 . S
C901 H913 0.929 . S
C902 C898 1.531 . S
C902 H914 0.960 . S
C902 H915 0.962 . S
C902 H916 0.960 . S
C903 C900 1.511 . S
C903 H917 0.961 . S
C903 H918 0.961 . S
C903 H919 0.961 . S
C904 C905 1.370 . S
C904 C906 1.363 . S
C904 H920 0.931 . S
C905 C904 1.370 . S
C905 C909 1.408 . S
C906 C904 1.363 . S
C906 C907 1.370 . S
C906 C910 1.524 . S
C907 C899 1.503 . S
C907 C906 1.370 . S
C907 C908 1.403 . S
C908 C907 1.403 . S
C908 C909 1.404 . S
C908 C911 1.539 . S
C909 C905 1.408 . S
C909 C908 1.404 . S
C909 H921 0.930 . S
C910 C906 1.524 . S
C910 H922 0.956 . S
C910 H923 0.961 . S
C910 H924 0.961 . S
C911 C908 1.539 . S
C911 H925 0.958 . S
C911 H926 0.961 . S
C911 H927 0.960 . S
H912 C896 0.931 . S
H913 C901 0.929 . S
H914 C902 0.960 . S
H915 C902 0.962 . S
H916 C902 0.960 . S
H917 C903 0.961 . S
H918 C903 0.961 . S
H919 C903 0.961 . S
H920 C904 0.931 . S
H921 C909 0.930 . S
H922 C910 0.956 . S
H923 C910 0.961 . S
H924 C910 0.961 . S
H925 C911 0.958 . S
H926 C911 0.961 . S
H927 C911 0.960 . S
C928 C929 1.391 . S
C928 C930 1.394 . S
C928 H944 0.931 . S
C929 C928 1.391 . S
C929 C933 1.376 . S
C930 C928 1.394 . S
C930 C931 1.369 . S
C930 C934 1.531 . S
C931 C930 1.369 . S
C931 C932 1.410 . S
C931 C939 1.503 . S
C932 C931 1.410 . S
C932 C933 1.392 . S
C932 C935 1.511 . S
C933 C929 1.376 . S
C933 C932 1.392 . S
C933 H945 0.929 . S
C934 C930 1.531 . S
C934 H946 0.960 . S
C934 H947 0.962 . S
C934 H948 0.960 . S
C935 C932 1.511 . S
C935 H949 0.961 . S
C935 H950 0.961 . S
C935 H951 0.961 . S
C936 C937 1.370 . S
C936 C938 1.363 . S
C936 H952 0.931 . S
C937 C936 1.370 . S
C937 C941 1.408 . S
C938 C936 1.363 . S
C938 C939 1.370 . S
C938 C942 1.524 . S
C939 C931 1.503 . S
C939 C938 1.370 . S
C939 C940 1.403 . S
C940 C939 1.403 . S
C940 C941 1.404 . S
C940 C943 1.539 . S
C941 C937 1.408 . S
C941 C940 1.404 . S
C941 H953 0.930 . S
C942 C938 1.524 . S
C942 H954 0.956 . S
C942 H955 0.961 . S
C942 H956 0.961 . S
C943 C940 1.539 . S
C943 H957 0.958 . S
C943 H958 0.961 . S
C943 H959 0.960 . S
H944 C928 0.931 . S
H945 C933 0.929 . S
H946 C934 0.960 . S
H947 C934 0.962 . S
H948 C934 0.960 . S
H949 C935 0.961 . S
H950 C935 0.961 . S
H951 C935 0.961 . S
H952 C936 0.931 . S
H953 C941 0.930 . S
H954 C942 0.956 . S
H955 C942 0.961 . S
H956 C942 0.961 . S
H957 C943 0.958 . S
H958 C943 0.961 . S
H959 C943 0.960 . S
C960 C961 1.391 . S
C960 C962 1.394 . S
C960 H976 0.931 . S
C961 C960 1.391 . S
C961 C965 1.376 . S
C962 C960 1.394 . S
C962 C963 1.369 . S
C962 C966 1.531 . S
C963 C962 1.369 . S
C963 C964 1.410 . S
C963 C971 1.503 1_455 S
C964 C963 1.410 . S
C964 C965 1.392 . S
C964 C967 1.511 . S
C965 C961 1.376 . S
C965 C964 1.392 . S
C965 H977 0.929 . S
C966 C962 1.531 . S
C966 H978 0.960 1_455 S
C966 H979 0.962 . S
C966 H980 0.960 . S
C967 C964 1.511 . S
C967 H981 0.961 . S
C967 H982 0.961 1_455 S
C967 H983 0.961 . S
C968 C969 1.370 . S
C968 C970 1.363 . S
C968 H984 0.931 . S
C969 C968 1.370 . S
C969 C973 1.408 . S
C970 C968 1.363 . S
C970 C971 1.370 . S
C970 C974 1.524 . S
C971 C963 1.503 1_655 S
C971 C970 1.370 . S
C971 C972 1.403 . S
C972 C971 1.403 . S
C972 C973 1.404 . S
C972 C975 1.539 . S
C973 C969 1.408 . S
C973 C972 1.404 . S
C973 H985 0.930 . S
C974 C970 1.524 . S
C974 H986 0.956 . S
C974 H987 0.961 1_655 S
C974 H988 0.961 . S
C975 C972 1.539 . S
C975 H989 0.958 . S
C975 H990 0.961 . S
C975 H991 0.971 . S
H976 C960 0.931 . S
H977 C965 0.929 . S
H978 C966 0.960 1_655 S
H979 C966 0.962 . S
H980 C966 0.960 . S
H981 C967 0.961 . S
H982 C967 0.961 1_655 S
H983 C967 0.961 . S
H984 C968 0.931 . S
H985 C973 0.930 . S
H986 C974 0.956 . S
H987 C974 0.961 1_455 S
H988 C974 0.961 . S
H989 C975 0.958 . S
H990 C975 0.961 . S
H991 C975 0.971 . S
C992 C993 1.391 . S
C992 C994 1.394 . S
C992 H1008 0.931 . S
C993 C992 1.391 . S
C993 C997 1.376 . S
C994 C992 1.394 . S
C994 C995 1.369 . S
C994 C998 1.531 . S
C995 C994 1.369 . S
C995 C996 1.410 . S
C995 C1003 1.503 . S
C996 C995 1.410 . S
C996 C997 1.392 . S
C996 C999 1.511 . S
C997 C993 1.376 . S
C997 C996 1.392 . S
C997 H1009 0.929 . S
C998 C994 1.531 . S
C998 H1010 0.960 . S
C998 H1011 0.962 . S
C998 H1012 0.960 . S
C999 C996 1.511 . S
C999 H1013 0.961 . S
C999 H1014 0.961 . S
C999 H1015 0.961 . S
C1000 C1001 1.370 . S
C1000 C1002 1.363 . S
C1000 H1016 0.931 . S
C1001 C1000 1.370 . S
C1001 C1005 1.408 . S
C1002 C1000 1.363 . S
C1002 C1003 1.370 . S
C1002 C1006 1.524 . S
C1003 C995 1.503 . S
C1003 C1002 1.370 . S
C1003 C1004 1.403 . S
C1004 C1003 1.403 . S
C1004 C1005 1.404 . S
C1004 C1007 1.539 . S
C1005 C1001 1.408 . S
C1005 C1004 1.404 . S
C1005 H1017 0.930 . S
C1006 C1002 1.524 . S
C1006 H1018 0.956 . S
C1006 H1019 0.961 . S
C1006 H1020 0.961 . S
C1007 C1004 1.539 . S
C1007 H1021 0.958 . S
C1007 H1022 0.961 . S
C1007 H1023 0.960 . S
H1008 C992 0.931 . S
H1009 C997 0.929 . S
H1010 C998 0.960 . S
H1011 C998 0.962 . S
H1012 C998 0.960 . S
H1013 C999 0.961 . S
H1014 C999 0.961 . S
H1015 C999 0.961 . S
H1016 C1000 0.931 . S
H1017 C1005 0.930 . S
H1018 C1006 0.956 . S
H1019 C1006 0.961 . S
H1020 C1006 0.961 . S
H1021 C1007 0.958 . S
H1022 C1007 0.961 . S
H1023 C1007 0.960 . S
C1024 C1025 1.391 . S
C1024 C1026 1.394 . S
C1024 H1040 0.931 . S
C1025 C1024 1.391 . S
C1025 C1029 1.376 . S
C1026 C1024 1.394 . S
C1026 C1027 1.369 . S
C1026 C1030 1.531 . S
C1027 C1026 1.369 . S
C1027 C1028 1.410 . S
C1027 C1035 1.503 . S
C1028 C1027 1.410 . S
C1028 C1029 1.392 . S
C1028 C1031 1.511 . S
C1029 C1025 1.376 . S
C1029 C1028 1.392 . S
C1029 H1041 0.929 . S
C1030 C1026 1.531 . S
C1030 H1042 0.960 . S
C1030 H1043 0.962 . S
C1030 H1044 0.960 . S
C1031 C1028 1.511 . S
C1031 H1045 0.961 . S
C1031 H1046 0.961 . S
C1031 H1047 0.961 . S
C1032 C1033 1.370 . S
C1032 C1034 1.363 . S
C1032 H1048 0.931 . S
C1033 C1032 1.370 . S
C1033 C1037 1.408 . S
C1034 C1032 1.363 . S
C1034 C1035 1.370 . S
C1034 C1038 1.524 . S
C1035 C1027 1.503 . S
C1035 C1034 1.370 . S
C1035 C1036 1.403 . S
C1036 C1035 1.403 . S
C1036 C1037 1.404 . S
C1036 C1039 1.539 . S
C1037 C1033 1.408 . S
C1037 C1036 1.404 . S
C1037 H1049 0.930 . S
C1038 C1034 1.524 . S
C1038 H1050 0.956 . S
C1038 H1051 0.961 . S
C1038 H1052 0.961 . S
C1039 C1036 1.539 . S
C1039 H1053 0.958 . S
C1039 H1054 0.961 . S
C1039 H1055 0.960 . S
H1040 C1024 0.931 . S
H1041 C1029 0.929 . S
H1042 C1030 0.960 . S
H1043 C1030 0.962 . S
H1044 C1030 0.960 . S
H1045 C1031 0.961 . S
H1046 C1031 0.961 . S
H1047 C1031 0.961 . S
H1048 C1032 0.931 . S
H1049 C1037 0.930 . S
H1050 C1038 0.956 . S
H1051 C1038 0.961 . S
H1052 C1038 0.961 . S
H1053 C1039 0.958 . S
H1054 C1039 0.961 . S
H1055 C1039 0.960 . S
C1056 C1057 1.391 . S
C1056 C1058 1.394 . S
C1056 H1072 0.931 . S
C1057 C1056 1.391 . S
C1057 C1061 1.376 . S
C1058 C1056 1.394 . S
C1058 C1059 1.369 . S
C1058 C1062 1.531 . S
C1059 C1058 1.369 . S
C1059 C1060 1.410 . S
C1059 C1067 1.503 . S
C1060 C1059 1.410 . S
C1060 C1061 1.392 . S
C1060 C1063 1.511 . S
C1061 C1057 1.376 . S
C1061 C1060 1.392 . S
C1061 H1073 0.929 . S
C1062 C1058 1.531 . S
C1062 H1074 0.960 . S
C1062 H1075 0.962 . S
C1062 H1076 0.960 . S
C1063 C1060 1.511 . S
C1063 H1077 0.961 . S
C1063 H1078 0.961 . S
C1063 H1079 0.961 . S
C1064 C1065 1.370 . S
C1064 C1066 1.363 . S
C1064 H1080 0.931 . S
C1065 C1064 1.370 . S
C1065 C1069 1.408 . S
C1066 C1064 1.363 . S
C1066 C1067 1.370 . S
C1066 C1070 1.524 . S
C1067 C1059 1.503 . S
C1067 C1066 1.370 . S
C1067 C1068 1.403 . S
C1068 C1067 1.403 . S
C1068 C1069 1.404 . S
C1068 C1071 1.539 . S
C1069 C1065 1.408 . S
C1069 C1068 1.404 . S
C1069 H1081 0.930 . S
C1070 C1066 1.524 . S
C1070 H1082 0.956 . S
C1070 H1083 0.961 . S
C1070 H1084 0.961 . S
C1071 C1068 1.539 . S
C1071 H1085 0.958 . S
C1071 H1086 0.961 . S
C1071 H1087 0.960 . S
H1072 C1056 0.931 . S
H1073 C1061 0.929 . S
H1074 C1062 0.960 . S
H1075 C1062 0.962 . S
H1076 C1062 0.960 . S
H1077 C1063 0.961 . S
H1078 C1063 0.961 . S
H1079 C1063 0.961 . S
H1080 C1064 0.931 . S
H1081 C1069 0.930 . S
H1082 C1070 0.956 . S
H1083 C1070 0.961 . S
H1084 C1070 0.961 . S
H1085 C1071 0.958 . S
H1086 C1071 0.961 . S
H1087 C1071 0.960 . S
C1088 C1089 1.391 . S
C1088 C1090 1.394 . S
C1088 H1104 0.931 . S
C1089 C1088 1.391 . S
C1089 C1093 1.376 . S
C1090 C1088 1.394 . S
C1090 C1091 1.369 . S
C1090 C1094 1.531 . S
C1091 C1090 1.369 . S
C1091 C1092 1.410 . S
C1091 C1099 1.503 1_655 S
C1092 C1091 1.410 . S
C1092 C1093 1.392 . S
C1092 C1095 1.511 . S
C1093 C1089 1.376 . S
C1093 C1092 1.392 . S
C1093 H1105 0.929 . S
C1094 C1090 1.531 . S
C1094 H1106 0.960 1_655 S
C1094 H1107 0.962 . S
C1094 H1108 0.960 . S
C1095 C1092 1.511 . S
C1095 H1109 0.961 . S
C1095 H1110 0.961 1_655 S
C1095 H1111 0.961 . S
C1096 C1097 1.370 . S
C1096 C1098 1.363 . S
C1096 H1112 0.931 . S
C1097 C1096 1.370 . S
C1097 C1101 1.408 . S
C1098 C1096 1.363 . S
C1098 C1099 1.370 . S
C1098 C1102 1.524 . S
C1099 C1091 1.503 1_455 S
C1099 C1098 1.370 . S
C1099 C1100 1.403 . S
C1100 C1099 1.403 . S
C1100 C1101 1.404 . S
C1100 C1103 1.539 . S
C1101 C1097 1.408 . S
C1101 C1100 1.404 . S
C1101 H1113 0.930 . S
C1102 C1098 1.524 . S
C1102 H1114 0.956 . S
C1102 H1115 0.961 1_455 S
C1102 H1116 0.961 . S
C1103 C1100 1.539 . S
C1103 H1117 0.958 . S
C1103 H1118 0.961 . S
C1103 H1119 0.971 . S
H1104 C1088 0.931 . S
H1105 C1093 0.929 . S
H1106 C1094 0.960 1_455 S
H1107 C1094 0.962 . S
H1108 C1094 0.960 . S
H1109 C1095 0.961 . S
H1110 C1095 0.961 1_455 S
H1111 C1095 0.961 . S
H1112 C1096 0.931 . S
H1113 C1101 0.930 . S
H1114 C1102 0.956 . S
H1115 C1102 0.961 1_655 S
H1116 C1102 0.961 . S
H1117 C1103 0.958 . S
H1118 C1103 0.961 . S
H1119 C1103 0.971 . S
C1120 C1121 1.391 . S
C1120 C1122 1.394 . S
C1120 H1136 0.931 . S
C1121 C1120 1.391 . S
C1121 C1125 1.376 . S
C1122 C1120 1.394 . S
C1122 C1123 1.369 . S
C1122 C1126 1.531 . S
C1123 C1122 1.369 . S
C1123 C1124 1.410 . S
C1123 C1131 1.503 . S
C1124 C1123 1.410 . S
C1124 C1125 1.392 . S
C1124 C1127 1.511 . S
C1125 C1121 1.376 . S
C1125 C1124 1.392 . S
C1125 H1137 0.929 . S
C1126 C1122 1.531 . S
C1126 H1138 0.960 . S
C1126 H1139 0.962 . S
C1126 H1140 0.960 . S
C1127 C1124 1.511 . S
C1127 H1141 0.961 . S
C1127 H1142 0.961 . S
C1127 H1143 0.961 . S
C1128 C1129 1.370 . S
C1128 C1130 1.363 . S
C1128 H1144 0.931 . S
C1129 C1128 1.370 . S
C1129 C1133 1.408 . S
C1130 C1128 1.363 . S
C1130 C1131 1.370 . S
C1130 C1134 1.524 . S
C1131 C1123 1.503 . S
C1131 C1130 1.370 . S
C1131 C1132 1.403 . S
C1132 C1131 1.403 . S
C1132 C1133 1.404 . S
C1132 C1135 1.539 . S
C1133 C1129 1.408 . S
C1133 C1132 1.404 . S
C1133 H1145 0.930 . S
C1134 C1130 1.524 . S
C1134 H1146 0.956 . S
C1134 H1147 0.961 . S
C1134 H1148 0.961 . S
C1135 C1132 1.539 . S
C1135 H1149 0.958 . S
C1135 H1150 0.961 . S
C1135 H1151 0.960 . S
H1136 C1120 0.931 . S
H1137 C1125 0.929 . S
H1138 C1126 0.960 . S
H1139 C1126 0.962 . S
H1140 C1126 0.960 . S
H1141 C1127 0.961 . S
H1142 C1127 0.961 . S
H1143 C1127 0.961 . S
H1144 C1128 0.931 . S
H1145 C1133 0.930 . S
H1146 C1134 0.956 . S
H1147 C1134 0.961 . S
H1148 C1134 0.961 . S
H1149 C1135 0.958 . S
H1150 C1135 0.961 . S
H1151 C1135 0.960 . S
C1152 C1153 1.391 . S
C1152 C1154 1.394 . S
C1152 H1168 0.931 . S
C1153 C1152 1.391 . S
C1153 C1157 1.376 . S
C1154 C1152 1.394 . S
C1154 C1155 1.369 . S
C1154 C1158 1.531 . S
C1155 C1154 1.369 . S
C1155 C1156 1.410 . S
C1155 C1163 1.503 . S
C1156 C1155 1.410 . S
C1156 C1157 1.392 . S
C1156 C1159 1.511 . S
C1157 C1153 1.376 . S
C1157 C1156 1.392 . S
C1157 H1169 0.929 . S
C1158 C1154 1.531 . S
C1158 H1170 0.960 . S
C1158 H1171 0.962 . S
C1158 H1172 0.960 . S
C1159 C1156 1.511 . S
C1159 H1173 0.961 . S
C1159 H1174 0.961 . S
C1159 H1175 0.961 . S
C1160 C1161 1.370 . S
C1160 C1162 1.363 . S
C1160 H1176 0.931 . S
C1161 C1160 1.370 . S
C1161 C1165 1.408 . S
C1162 C1160 1.363 . S
C1162 C1163 1.370 . S
C1162 C1166 1.524 . S
C1163 C1155 1.503 . S
C1163 C1162 1.370 . S
C1163 C1164 1.403 . S
C1164 C1163 1.403 . S
C1164 C1165 1.404 . S
C1164 C1167 1.539 . S
C1165 C1161 1.408 . S
C1165 C1164 1.404 . S
C1165 H1177 0.930 . S
C1166 C1162 1.524 . S
C1166 H1178 0.956 . S
C1166 H1179 0.961 . S
C1166 H1180 0.961 . S
C1167 C1164 1.539 . S
C1167 H1181 0.958 . S
C1167 H1182 0.961 . S
C1167 H1183 0.960 . S
H1168 C1152 0.931 . S
H1169 C1157 0.929 . S
H1170 C1158 0.960 . S
H1171 C1158 0.962 . S
H1172 C1158 0.960 . S
H1173 C1159 0.961 . S
H1174 C1159 0.961 . S
H1175 C1159 0.961 . S
H1176 C1160 0.931 . S
H1177 C1165 0.930 . S
H1178 C1166 0.956 . S
H1179 C1166 0.961 . S
H1180 C1166 0.961 . S
H1181 C1167 0.958 . S
H1182 C1167 0.961 . S
H1183 C1167 0.960 . S
C1184 C1185 1.391 . S
C1184 C1186 1.394 . S
C1184 H1200 0.931 . S
C1185 C1184 1.391 . S
C1185 C1189 1.376 . S
C1186 C1184 1.394 . S
C1186 C1187 1.369 . S
C1186 C1190 1.531 . S
C1187 C1186 1.369 . S
C1187 C1188 1.410 . S
C1187 C1195 1.503 . S
C1188 C1187 1.410 . S
C1188 C1189 1.392 . S
C1188 C1191 1.511 . S
C1189 C1185 1.376 . S
C1189 C1188 1.392 . S
C1189 H1201 0.929 . S
C1190 C1186 1.531 . S
C1190 H1202 0.960 . S
C1190 H1203 0.962 . S
C1190 H1204 0.960 . S
C1191 C1188 1.511 . S
C1191 H1205 0.961 . S
C1191 H1206 0.961 . S
C1191 H1207 0.961 . S
C1192 C1193 1.370 . S
C1192 C1194 1.363 . S
C1192 H1208 0.931 . S
C1193 C1192 1.370 . S
C1193 C1197 1.408 . S
C1194 C1192 1.363 . S
C1194 C1195 1.370 . S
C1194 C1198 1.524 . S
C1195 C1187 1.503 . S
C1195 C1194 1.370 . S
C1195 C1196 1.403 . S
C1196 C1195 1.403 . S
C1196 C1197 1.404 . S
C1196 C1199 1.539 . S
C1197 C1193 1.408 . S
C1197 C1196 1.404 . S
C1197 H1209 0.930 . S
C1198 C1194 1.524 . S
C1198 H1210 0.956 . S
C1198 H1211 0.961 . S
C1198 H1212 0.961 . S
C1199 C1196 1.539 . S
C1199 H1213 0.958 . S
C1199 H1214 0.961 . S
C1199 H1215 0.960 . S
H1200 C1184 0.931 . S
H1201 C1189 0.929 . S
H1202 C1190 0.960 . S
H1203 C1190 0.962 . S
H1204 C1190 0.960 . S
H1205 C1191 0.961 . S
H1206 C1191 0.961 . S
H1207 C1191 0.961 . S
H1208 C1192 0.931 . S
H1209 C1197 0.930 . S
H1210 C1198 0.956 . S
H1211 C1198 0.961 . S
H1212 C1198 0.961 . S
H1213 C1199 0.958 . S
H1214 C1199 0.961 . S
H1215 C1199 0.960 . S
C1216 C1217 1.391 . S
C1216 C1218 1.394 . S
C1216 H1232 0.931 . S
C1217 C1216 1.391 . S
C1217 C1221 1.376 . S
C1218 C1216 1.394 . S
C1218 C1219 1.369 . S
C1218 C1222 1.531 . S
C1219 C1218 1.369 . S
C1219 C1220 1.410 . S
C1219 C1227 1.503 . S
C1220 C1219 1.410 . S
C1220 C1221 1.392 . S
C1220 C1223 1.511 . S
C1221 C1217 1.376 . S
C1221 C1220 1.392 . S
C1221 H1233 0.929 . S
C1222 C1218 1.531 . S
C1222 H1234 0.960 . S
C1222 H1235 0.962 . S
C1222 H1236 0.960 . S
C1223 C1220 1.511 . S
C1223 H1237 0.961 . S
C1223 H1238 0.961 . S
C1223 H1239 0.961 . S
C1224 C1225 1.370 . S
C1224 C1226 1.363 . S
C1224 H1240 0.931 . S
C1225 C1224 1.370 . S
C1225 C1229 1.408 . S
C1226 C1224 1.363 . S
C1226 C1227 1.370 . S
C1226 C1230 1.524 . S
C1227 C1219 1.503 . S
C1227 C1226 1.370 . S
C1227 C1228 1.403 . S
C1228 C1227 1.403 . S
C1228 C1229 1.404 . S
C1228 C1231 1.539 . S
C1229 C1225 1.408 . S
C1229 C1228 1.404 . S
C1229 H1241 0.930 . S
C1230 C1226 1.524 . S
C1230 H1242 0.956 . S
C1230 H1243 0.961 . S
C1230 H1244 0.961 . S
C1231 C1228 1.539 . S
C1231 H1245 0.958 . S
C1231 H1246 0.961 . S
C1231 H1247 0.960 . S
H1232 C1216 0.931 . S
H1233 C1221 0.929 . S
H1234 C1222 0.960 . S
H1235 C1222 0.962 . S
H1236 C1222 0.960 . S
H1237 C1223 0.961 . S
H1238 C1223 0.961 . S
H1239 C1223 0.961 . S
H1240 C1224 0.931 . S
H1241 C1229 0.930 . S
H1242 C1230 0.956 . S
H1243 C1230 0.961 . S
H1244 C1230 0.961 . S
H1245 C1231 0.958 . S
H1246 C1231 0.961 . S
H1247 C1231 0.960 . S
C1248 C1249 1.391 . S
C1248 C1250 1.394 . S
C1248 H1264 0.931 . S
C1249 C1248 1.391 . S
C1249 C1253 1.376 . S
C1250 C1248 1.394 . S
C1250 C1251 1.369 . S
C1250 C1254 1.531 . S
C1251 C1250 1.369 . S
C1251 C1252 1.410 . S
C1251 C1259 1.503 . S
C1252 C1251 1.410 . S
C1252 C1253 1.392 . S
C1252 C1255 1.511 . S
C1253 C1249 1.376 . S
C1253 C1252 1.392 . S
C1253 H1265 0.929 . S
C1254 C1250 1.531 . S
C1254 H1266 0.960 . S
C1254 H1267 0.962 . S
C1254 H1268 0.960 . S
C1255 C1252 1.511 . S
C1255 H1269 0.961 . S
C1255 H1270 0.961 . S
C1255 H1271 0.961 . S
C1256 C1257 1.370 . S
C1256 C1258 1.363 . S
C1256 H1272 0.931 . S
C1257 C1256 1.370 . S
C1257 C1261 1.408 . S
C1258 C1256 1.363 . S
C1258 C1259 1.370 . S
C1258 C1262 1.524 . S
C1259 C1251 1.503 . S
C1259 C1258 1.370 . S
C1259 C1260 1.403 . S
C1260 C1259 1.403 . S
C1260 C1261 1.404 . S
C1260 C1263 1.539 . S
C1261 C1257 1.408 . S
C1261 C1260 1.404 . S
C1261 H1273 0.930 . S
C1262 C1258 1.524 . S
C1262 H1274 0.956 . S
C1262 H1275 0.961 . S
C1262 H1276 0.961 . S
C1263 C1260 1.539 . S
C1263 H1277 0.958 . S
C1263 H1278 0.961 . S
C1263 H1279 0.960 . S
H1264 C1248 0.931 . S
H1265 C1253 0.929 . S
H1266 C1254 0.960 . S
H1267 C1254 0.962 . S
H1268 C1254 0.960 . S
H1269 C1255 0.961 . S
H1270 C1255 0.961 . S
H1271 C1255 0.961 . S
H1272 C1256 0.931 . S
H1273 C1261 0.930 . S
H1274 C1262 0.956 . S
H1275 C1262 0.961 . S
H1276 C1262 0.961 . S
H1277 C1263 0.958 . S
H1278 C1263 0.961 . S
H1279 C1263 0.960 . S
C1280 C1281 1.391 . S
C1280 C1282 1.394 . S
C1280 H1296 0.931 . S
C1281 C1280 1.391 . S
C1281 C1285 1.376 . S
C1282 C1280 1.394 . S
C1282 C1283 1.369 . S
C1282 C1286 1.531 . S
C1283 C1282 1.369 . S
C1283 C1284 1.410 . S
C1283 C1291 1.503 . S
C1284 C1283 1.410 . S
C1284 C1285 1.392 . S
C1284 C1287 1.511 . S
C1285 C1281 1.376 . S
C1285 C1284 1.392 . S
C1285 H1297 0.929 . S
C1286 C1282 1.531 . S
C1286 H1298 0.960 . S
C1286 H1299 0.962 . S
C1286 H1300 0.960 . S
C1287 C1284 1.511 . S
C1287 H1301 0.961 . S
C1287 H1302 0.961 . S
C1287 H1303 0.961 . S
C1288 C1289 1.370 . S
C1288 C1290 1.363 . S
C1288 H1304 0.931 . S
C1289 C1288 1.370 . S
C1289 C1293 1.408 . S
C1290 C1288 1.363 . S
C1290 C1291 1.370 . S
C1290 C1294 1.524 . S
C1291 C1283 1.503 . S
C1291 C1290 1.370 . S
C1291 C1292 1.403 . S
C1292 C1291 1.403 . S
C1292 C1293 1.404 . S
C1292 C1295 1.539 . S
C1293 C1289 1.408 . S
C1293 C1292 1.404 . S
C1293 H1305 0.930 . S
C1294 C1290 1.524 . S
C1294 H1306 0.956 . S
C1294 H1307 0.961 . S
C1294 H1308 0.961 . S
C1295 C1292 1.539 . S
C1295 H1309 0.958 . S
C1295 H1310 0.961 . S
C1295 H1311 0.960 . S
H1296 C1280 0.931 . S
H1297 C1285 0.929 . S
H1298 C1286 0.960 . S
H1299 C1286 0.962 . S
H1300 C1286 0.960 . S
H1301 C1287 0.961 . S
H1302 C1287 0.961 . S
H1303 C1287 0.961 . S
H1304 C1288 0.931 . S
H1305 C1293 0.930 . S
H1306 C1294 0.956 . S
H1307 C1294 0.961 . S
H1308 C1294 0.961 . S
H1309 C1295 0.958 . S
H1310 C1295 0.961 . S
H1311 C1295 0.960 . S
C1312 C1313 1.391 . S
C1312 C1314 1.394 . S
C1312 H1328 0.931 . S
C1313 C1312 1.391 . S
C1313 C1317 1.376 . S
C1314 C1312 1.394 . S
C1314 C1315 1.369 . S
C1314 C1318 1.531 . S
C1315 C1314 1.369 . S
C1315 C1316 1.410 . S
C1315 C1323 1.503 . S
C1316 C1315 1.410 . S
C1316 C1317 1.392 . S
C1316 C1319 1.511 . S
C1317 C1313 1.376 . S
C1317 C1316 1.392 . S
C1317 H1329 0.929 . S
C1318 C1314 1.531 . S
C1318 H1330 0.960 . S
C1318 H1331 0.962 . S
C1318 H1332 0.960 . S
C1319 C1316 1.511 . S
C1319 H1333 0.961 . S
C1319 H1334 0.961 . S
C1319 H1335 0.961 . S
C1320 C1321 1.370 . S
C1320 C1322 1.363 . S
C1320 H1336 0.931 . S
C1321 C1320 1.370 . S
C1321 C1325 1.408 . S
C1322 C1320 1.363 . S
C1322 C1323 1.370 . S
C1322 C1326 1.524 . S
C1323 C1315 1.503 . S
C1323 C1322 1.370 . S
C1323 C1324 1.403 . S
C1324 C1323 1.403 . S
C1324 C1325 1.404 . S
C1324 C1327 1.539 . S
C1325 C1321 1.408 . S
C1325 C1324 1.404 . S
C1325 H1337 0.930 . S
C1326 C1322 1.524 . S
C1326 H1338 0.956 . S
C1326 H1339 0.961 . S
C1326 H1340 0.961 . S
C1327 C1324 1.539 . S
C1327 H1341 0.958 . S
C1327 H1342 0.961 . S
C1327 H1343 0.960 . S
H1328 C1312 0.931 . S
H1329 C1317 0.929 . S
H1330 C1318 0.960 . S
H1331 C1318 0.962 . S
H1332 C1318 0.960 . S
H1333 C1319 0.961 . S
H1334 C1319 0.961 . S
H1335 C1319 0.961 . S
H1336 C1320 0.931 . S
H1337 C1325 0.930 . S
H1338 C1326 0.956 . S
H1339 C1326 0.961 . S
H1340 C1326 0.961 . S
H1341 C1327 0.958 . S
H1342 C1327 0.961 . S
H1343 C1327 0.960 . S
C1344 C1345 1.391 . S
C1344 C1346 1.394 . S
C1344 H1360 0.931 . S
C1345 C1344 1.391 . S
C1345 C1349 1.376 . S
C1346 C1344 1.394 . S
C1346 C1347 1.369 . S
C1346 C1350 1.531 . S
C1347 C1346 1.369 . S
C1347 C1348 1.410 . S
C1347 C1355 1.503 . S
C1348 C1347 1.410 . S
C1348 C1349 1.392 . S
C1348 C1351 1.511 . S
C1349 C1345 1.376 . S
C1349 C1348 1.392 . S
C1349 H1361 0.929 . S
C1350 C1346 1.531 . S
C1350 H1362 0.960 . S
C1350 H1363 0.962 . S
C1350 H1364 0.960 . S
C1351 C1348 1.511 . S
C1351 H1365 0.961 . S
C1351 H1366 0.961 . S
C1351 H1367 0.961 . S
C1352 C1353 1.370 . S
C1352 C1354 1.363 . S
C1352 H1368 0.931 . S
C1353 C1352 1.370 . S
C1353 C1357 1.408 . S
C1354 C1352 1.363 . S
C1354 C1355 1.370 . S
C1354 C1358 1.524 . S
C1355 C1347 1.503 . S
C1355 C1354 1.370 . S
C1355 C1356 1.403 . S
C1356 C1355 1.403 . S
C1356 C1357 1.404 . S
C1356 C1359 1.539 . S
C1357 C1353 1.408 . S
C1357 C1356 1.404 . S
C1357 H1369 0.930 . S
C1358 C1354 1.524 . S
C1358 H1370 0.956 . S
C1358 H1371 0.961 . S
C1358 H1372 0.961 . S
C1359 C1356 1.539 . S
C1359 H1373 0.958 . S
C1359 H1374 0.961 . S
C1359 H1375 0.960 . S
H1360 C1344 0.931 . S
H1361 C1349 0.929 . S
H1362 C1350 0.960 . S
H1363 C1350 0.962 . S
H1364 C1350 0.960 . S
H1365 C1351 0.961 . S
H1366 C1351 0.961 . S
H1367 C1351 0.961 . S
H1368 C1352 0.931 . S
H1369 C1357 0.930 . S
H1370 C1358 0.956 . S
H1371 C1358 0.961 . S
H1372 C1358 0.961 . S
H1373 C1359 0.958 . S
H1374 C1359 0.961 . S
H1375 C1359 0.960 . S
C1376 C1377 1.391 . S
C1376 C1378 1.394 . S
C1376 H1392 0.931 . S
C1377 C1376 1.391 . S
C1377 C1381 1.376 . S
C1378 C1376 1.394 . S
C1378 C1379 1.369 . S
C1378 C1382 1.531 . S
C1379 C1378 1.369 . S
C1379 C1380 1.410 . S
C1379 C1387 1.503 1_655 S
C1380 C1379 1.410 . S
C1380 C1381 1.392 . S
C1380 C1383 1.511 . S
C1381 C1377 1.376 . S
C1381 C1380 1.392 . S
C1381 H1393 0.929 . S
C1382 C1378 1.531 . S
C1382 H1394 0.960 1_655 S
C1382 H1395 0.962 . S
C1382 H1396 0.960 . S
C1383 C1380 1.511 . S
C1383 H1397 0.961 . S
C1383 H1398 0.961 1_655 S
C1383 H1399 0.961 . S
C1384 C1385 1.370 . S
C1384 C1386 1.363 . S
C1384 H1400 0.931 . S
C1385 C1384 1.370 . S
C1385 C1389 1.408 . S
C1386 C1384 1.363 . S
C1386 C1387 1.370 . S
C1386 C1390 1.524 . S
C1387 C1379 1.503 1_455 S
C1387 C1386 1.370 . S
C1387 C1388 1.403 . S
C1388 C1387 1.403 . S
C1388 C1389 1.404 . S
C1388 C1391 1.539 . S
C1389 C1385 1.408 . S
C1389 C1388 1.404 . S
C1389 H1401 0.930 . S
C1390 C1386 1.524 . S
C1390 H1402 0.956 . S
C1390 H1403 0.961 1_455 S
C1390 H1404 0.961 . S
C1391 C1388 1.539 . S
C1391 H1405 0.958 . S
C1391 H1406 0.961 . S
C1391 H1407 0.971 . S
H1392 C1376 0.931 . S
H1393 C1381 0.929 . S
H1394 C1382 0.960 1_455 S
H1395 C1382 0.962 . S
H1396 C1382 0.960 . S
H1397 C1383 0.961 . S
H1398 C1383 0.961 1_455 S
H1399 C1383 0.961 . S
H1400 C1384 0.931 . S
H1401 C1389 0.930 . S
H1402 C1390 0.956 . S
H1403 C1390 0.961 1_655 S
H1404 C1390 0.961 . S
H1405 C1391 0.958 . S
H1406 C1391 0.961 . S
H1407 C1391 0.971 . S
C1408 C1409 1.391 . S
C1408 C1410 1.394 . S
C1408 H1424 0.931 . S
C1409 C1408 1.391 . S
C1409 C1413 1.376 . S
C1410 C1408 1.394 . S
C1410 C1411 1.369 . S
C1410 C1414 1.531 . S
C1411 C1410 1.369 . S
C1411 C1412 1.410 . S
C1411 C1419 1.503 . S
C1412 C1411 1.410 . S
C1412 C1413 1.392 . S
C1412 C1415 1.511 . S
C1413 C1409 1.376 . S
C1413 C1412 1.392 . S
C1413 H1425 0.929 . S
C1414 C1410 1.531 . S
C1414 H1426 0.960 . S
C1414 H1427 0.962 . S
C1414 H1428 0.960 . S
C1415 C1412 1.511 . S
C1415 H1429 0.961 . S
C1415 H1430 0.961 . S
C1415 H1431 0.961 . S
C1416 C1417 1.370 . S
C1416 C1418 1.363 . S
C1416 H1432 0.931 . S
C1417 C1416 1.370 . S
C1417 C1421 1.408 . S
C1418 C1416 1.363 . S
C1418 C1419 1.370 . S
C1418 C1422 1.524 . S
C1419 C1411 1.503 . S
C1419 C1418 1.370 . S
C1419 C1420 1.403 . S
C1420 C1419 1.403 . S
C1420 C1421 1.404 . S
C1420 C1423 1.539 . S
C1421 C1417 1.408 . S
C1421 C1420 1.404 . S
C1421 H1433 0.930 . S
C1422 C1418 1.524 . S
C1422 H1434 0.956 . S
C1422 H1435 0.961 . S
C1422 H1436 0.961 . S
C1423 C1420 1.539 . S
C1423 H1437 0.958 . S
C1423 H1438 0.961 . S
C1423 H1439 0.960 . S
H1424 C1408 0.931 . S
H1425 C1413 0.929 . S
H1426 C1414 0.960 . S
H1427 C1414 0.962 . S
H1428 C1414 0.960 . S
H1429 C1415 0.961 . S
H1430 C1415 0.961 . S
H1431 C1415 0.961 . S
H1432 C1416 0.931 . S
H1433 C1421 0.930 . S
H1434 C1422 0.956 . S
H1435 C1422 0.961 . S
H1436 C1422 0.961 . S
H1437 C1423 0.958 . S
H1438 C1423 0.961 . S
H1439 C1423 0.960 . S
C1440 C1441 1.391 . S
C1440 C1442 1.394 . S
C1440 H1456 0.931 . S
C1441 C1440 1.391 . S
C1441 C1445 1.376 . S
C1442 C1440 1.394 . S
C1442 C1443 1.369 . S
C1442 C1446 1.531 . S
C1443 C1442 1.369 . S
C1443 C1444 1.410 . S
C1443 C1451 1.503 1_455 S
C1444 C1443 1.410 . S
C1444 C1445 1.392 . S
C1444 C1447 1.511 . S
C1445 C1441 1.376 . S
C1445 C1444 1.392 . S
C1445 H1457 0.929 . S
C1446 C1442 1.531 . S
C1446 H1458 0.960 1_455 S
C1446 H1459 0.962 . S
C1446 H1460 0.960 . S
C1447 C1444 1.511 . S
C1447 H1461 0.961 . S
C1447 H1462 0.961 1_455 S
C1447 H1463 0.961 . S
C1448 C1449 1.370 . S
C1448 C1450 1.363 . S
C1448 H1464 0.931 . S
C1449 C1448 1.370 . S
C1449 C1453 1.408 . S
C1450 C1448 1.363 . S
C1450 C1451 1.370 . S
C1450 C1454 1.524 . S
C1451 C1443 1.503 1_655 S
C1451 C1450 1.370 . S
C1451 C1452 1.403 . S
C1452 C1451 1.403 . S
C1452 C1453 1.404 . S
C1452 C1455 1.539 . S
C1453 C1449 1.408 . S
C1453 C1452 1.404 . S
C1453 H1465 0.930 . S
C1454 C1450 1.524 . S
C1454 H1466 0.956 . S
C1454 H1467 0.961 1_655 S
C1454 H1468 0.961 . S
C1455 C1452 1.539 . S
C1455 H1469 0.958 . S
C1455 H1470 0.961 . S
C1455 H1471 0.971 . S
H1456 C1440 0.931 . S
H1457 C1445 0.929 . S
H1458 C1446 0.960 1_655 S
H1459 C1446 0.962 . S
H1460 C1446 0.960 . S
H1461 C1447 0.961 . S
H1462 C1447 0.961 1_655 S
H1463 C1447 0.961 . S
H1464 C1448 0.931 . S
H1465 C1453 0.930 . S
H1466 C1454 0.956 . S
H1467 C1454 0.961 1_455 S
H1468 C1454 0.961 . S
H1469 C1455 0.958 . S
H1470 C1455 0.961 . S
H1471 C1455 0.971 . S
C1472 C1473 1.391 . S
C1472 C1474 1.394 . S
C1472 H1488 0.931 . S
C1473 C1472 1.391 . S
C1473 C1477 1.376 . S
C1474 C1472 1.394 . S
C1474 C1475 1.369 . S
C1474 C1478 1.531 1_556 S
C1475 C1474 1.369 . S
C1475 C1476 1.410 . S
C1475 C1483 1.503 1_556 S
C1476 C1475 1.410 . S
C1476 C1477 1.392 . S
C1476 C1479 1.511 . S
C1477 C1473 1.376 . S
C1477 C1476 1.392 . S
C1477 H1489 0.929 . S
C1478 C1474 1.531 1_554 S
C1478 H1490 0.960 . S
C1478 H1491 0.962 . S
C1478 H1492 0.960 . S
C1479 C1476 1.511 . S
C1479 H1493 0.961 . S
C1479 H1494 0.961 . S
C1479 H1495 0.961 . S
C1480 C1481 1.370 . S
C1480 C1482 1.363 . S
C1480 H1496 0.931 . S
C1481 C1480 1.370 . S
C1481 C1485 1.408 . S
C1482 C1480 1.363 . S
C1482 C1483 1.370 . S
C1482 C1486 1.524 1_554 S
C1483 C1475 1.503 1_554 S
C1483 C1482 1.370 . S
C1483 C1484 1.403 . S
C1484 C1483 1.403 . S
C1484 C1485 1.404 . S
C1484 C1487 1.539 . S
C1485 C1481 1.408 . S
C1485 C1484 1.404 . S
C1485 H1497 0.930 . S
C1486 C1482 1.524 1_556 S
C1486 H1498 0.956 . S
C1486 H1499 0.961 . S
C1486 H1500 0.961 . S
C1487 C1484 1.539 . S
C1487 H1501 0.958 . S
C1487 H1502 0.961 . S
C1487 H1503 0.960 . S
H1488 C1472 0.931 . S
H1489 C1477 0.929 . S
H1490 C1478 0.960 . S
H1491 C1478 0.962 . S
H1492 C1478 0.960 . S
H1493 C1479 0.961 . S
H1494 C1479 0.961 . S
H1495 C1479 0.961 . S
H1496 C1480 0.931 . S
H1497 C1485 0.930 . S
H1498 C1486 0.956 . S
H1499 C1486 0.961 . S
H1500 C1486 0.961 . S
H1501 C1487 0.958 . S
H1502 C1487 0.961 . S
H1503 C1487 0.960 . S
C1504 C1505 1.391 . S
C1504 C1506 1.394 . S
C1504 H1520 0.931 . S
C1505 C1504 1.391 . S
C1505 C1509 1.376 . S
C1506 C1504 1.394 . S
C1506 C1507 1.369 . S
C1506 C1510 1.531 . S
C1507 C1506 1.369 . S
C1507 C1508 1.410 . S
C1507 C1515 1.503 . S
C1508 C1507 1.410 . S
C1508 C1509 1.392 . S
C1508 C1511 1.511 . S
C1509 C1505 1.376 . S
C1509 C1508 1.392 . S
C1509 H1521 0.929 . S
C1510 C1506 1.531 . S
C1510 H1522 0.960 . S
C1510 H1523 0.962 . S
C1510 H1524 0.960 . S
C1511 C1508 1.511 . S
C1511 H1525 0.961 . S
C1511 H1526 0.961 . S
C1511 H1527 0.961 . S
C1512 C1513 1.370 . S
C1512 C1514 1.363 . S
C1512 H1528 0.931 . S
C1513 C1512 1.370 . S
C1513 C1517 1.408 . S
C1514 C1512 1.363 . S
C1514 C1515 1.370 . S
C1514 C1518 1.524 . S
C1515 C1507 1.503 . S
C1515 C1514 1.370 . S
C1515 C1516 1.403 . S
C1516 C1515 1.403 . S
C1516 C1517 1.404 . S
C1516 C1519 1.539 . S
C1517 C1513 1.408 . S
C1517 C1516 1.404 . S
C1517 H1529 0.930 . S
C1518 C1514 1.524 . S
C1518 H1530 0.956 . S
C1518 H1531 0.961 . S
C1518 H1532 0.961 . S
C1519 C1516 1.539 . S
C1519 H1533 0.958 . S
C1519 H1534 0.961 . S
C1519 H1535 0.960 . S
H1520 C1504 0.931 . S
H1521 C1509 0.929 . S
H1522 C1510 0.960 . S
H1523 C1510 0.962 . S
H1524 C1510 0.960 . S
H1525 C1511 0.961 . S
H1526 C1511 0.961 . S
H1527 C1511 0.961 . S
H1528 C1512 0.931 . S
H1529 C1517 0.930 . S
H1530 C1518 0.956 . S
H1531 C1518 0.961 . S
H1532 C1518 0.961 . S
H1533 C1519 0.958 . S
H1534 C1519 0.961 . S
H1535 C1519 0.960 . S
C1536 C1537 1.391 . S
C1536 C1538 1.394 . S
C1536 H1552 0.931 . S
C1537 C1536 1.391 . S
C1537 C1541 1.376 . S
C1538 C1536 1.394 . S
C1538 C1539 1.369 . S
C1538 C1542 1.531 . S
C1539 C1538 1.369 . S
C1539 C1540 1.410 . S
C1539 C1547 1.503 . S
C1540 C1539 1.410 . S
C1540 C1541 1.392 . S
C1540 C1543 1.511 . S
C1541 C1537 1.376 . S
C1541 C1540 1.392 . S
C1541 H1553 0.929 . S
C1542 C1538 1.531 . S
C1542 H1554 0.960 . S
C1542 H1555 0.962 . S
C1542 H1556 0.960 . S
C1543 C1540 1.511 . S
C1543 H1557 0.961 . S
C1543 H1558 0.961 . S
C1543 H1559 0.961 . S
C1544 C1545 1.370 . S
C1544 C1546 1.363 . S
C1544 H1560 0.931 . S
C1545 C1544 1.370 . S
C1545 C1549 1.408 . S
C1546 C1544 1.363 . S
C1546 C1547 1.370 . S
C1546 C1550 1.524 . S
C1547 C1539 1.503 . S
C1547 C1546 1.370 . S
C1547 C1548 1.403 . S
C1548 C1547 1.403 . S
C1548 C1549 1.404 . S
C1548 C1551 1.539 . S
C1549 C1545 1.408 . S
C1549 C1548 1.404 . S
C1549 H1561 0.930 . S
C1550 C1546 1.524 . S
C1550 H1562 0.956 . S
C1550 H1563 0.961 . S
C1550 H1564 0.961 . S
C1551 C1548 1.539 . S
C1551 H1565 0.958 . S
C1551 H1566 0.961 . S
C1551 H1567 0.960 . S
H1552 C1536 0.931 . S
H1553 C1541 0.929 . S
H1554 C1542 0.960 . S
H1555 C1542 0.962 . S
H1556 C1542 0.960 . S
H1557 C1543 0.961 . S
H1558 C1543 0.961 . S
H1559 C1543 0.961 . S
H1560 C1544 0.931 . S
H1561 C1549 0.930 . S
H1562 C1550 0.956 . S
H1563 C1550 0.961 . S
H1564 C1550 0.961 . S
H1565 C1551 0.958 . S
H1566 C1551 0.961 . S
H1567 C1551 0.960 . S
C1568 C1569 1.391 . S
C1568 C1570 1.394 . S
C1568 H1584 0.931 . S
C1569 C1568 1.391 . S
C1569 C1573 1.376 . S
C1570 C1568 1.394 . S
C1570 C1571 1.369 . S
C1570 C1574 1.531 . S
C1571 C1570 1.369 . S
C1571 C1572 1.410 . S
C1571 C1579 1.503 . S
C1572 C1571 1.410 . S
C1572 C1573 1.392 . S
C1572 C1575 1.511 . S
C1573 C1569 1.376 . S
C1573 C1572 1.392 . S
C1573 H1585 0.929 . S
C1574 C1570 1.531 . S
C1574 H1586 0.960 . S
C1574 H1587 0.962 . S
C1574 H1588 0.960 . S
C1575 C1572 1.511 . S
C1575 H1589 0.961 . S
C1575 H1590 0.961 . S
C1575 H1591 0.961 . S
C1576 C1577 1.370 . S
C1576 C1578 1.363 . S
C1576 H1592 0.931 . S
C1577 C1576 1.370 . S
C1577 C1581 1.408 . S
C1578 C1576 1.363 . S
C1578 C1579 1.370 . S
C1578 C1582 1.524 . S
C1579 C1571 1.503 . S
C1579 C1578 1.370 . S
C1579 C1580 1.403 . S
C1580 C1579 1.403 . S
C1580 C1581 1.404 . S
C1580 C1583 1.539 . S
C1581 C1577 1.408 . S
C1581 C1580 1.404 . S
C1581 H1593 0.930 . S
C1582 C1578 1.524 . S
C1582 H1594 0.956 . S
C1582 H1595 0.961 . S
C1582 H1596 0.961 . S
C1583 C1580 1.539 . S
C1583 H1597 0.958 . S
C1583 H1598 0.961 . S
C1583 H1599 0.960 . S
H1584 C1568 0.931 . S
H1585 C1573 0.929 . S
H1586 C1574 0.960 . S
H1587 C1574 0.962 . S
H1588 C1574 0.960 . S
H1589 C1575 0.961 . S
H1590 C1575 0.961 . S
H1591 C1575 0.961 . S
H1592 C1576 0.931 . S
H1593 C1581 0.930 . S
H1594 C1582 0.956 . S
H1595 C1582 0.961 . S
H1596 C1582 0.961 . S
H1597 C1583 0.958 . S
H1598 C1583 0.961 . S
H1599 C1583 0.960 . S
C1600 C1601 1.391 . S
C1600 C1602 1.394 . S
C1600 H1616 0.931 . S
C1601 C1600 1.391 . S
C1601 C1605 1.376 . S
C1602 C1600 1.394 . S
C1602 C1603 1.369 . S
C1602 C1606 1.531 . S
C1603 C1602 1.369 . S
C1603 C1604 1.410 . S
C1603 C1611 1.503 1_554 S
C1604 C1603 1.410 . S
C1604 C1605 1.392 . S
C1604 C1607 1.511 1_554 S
C1605 C1601 1.376 . S
C1605 C1604 1.392 . S
C1605 H1617 0.929 . S
C1606 C1602 1.531 . S
C1606 H1618 0.960 1_554 S
C1606 H1619 0.962 . S
C1606 H1620 0.960 . S
C1607 C1604 1.511 1_556 S
C1607 H1621 0.961 1_556 S
C1607 H1622 0.961 . S
C1607 H1623 0.961 . S
C1608 C1609 1.370 . S
C1608 C1610 1.363 . S
C1608 H1624 0.931 . S
C1609 C1608 1.370 . S
C1609 C1613 1.408 . S
C1610 C1608 1.363 . S
C1610 C1611 1.370 . S
C1610 C1614 1.524 1_556 S
C1611 C1603 1.503 1_556 S
C1611 C1610 1.370 . S
C1611 C1612 1.403 . S
C1612 C1611 1.403 . S
C1612 C1613 1.404 . S
C1612 C1615 1.539 . S
C1613 C1609 1.408 . S
C1613 C1612 1.404 . S
C1613 H1625 0.930 . S
C1614 C1610 1.524 1_554 S
C1614 H1626 0.956 . S
C1614 H1627 0.961 . S
C1614 H1628 0.961 . S
C1615 C1612 1.539 . S
C1615 H1629 0.958 . S
C1615 H1630 0.961 . S
C1615 H1631 0.960 . S
H1616 C1600 0.931 . S
H1617 C1605 0.929 . S
H1618 C1606 0.960 1_556 S
H1619 C1606 0.962 . S
H1620 C1606 0.960 . S
H1621 C1607 0.961 1_554 S
H1622 C1607 0.961 . S
H1623 C1607 0.961 . S
H1624 C1608 0.931 . S
H1625 C1613 0.930 . S
H1626 C1614 0.956 . S
H1627 C1614 0.961 . S
H1628 C1614 0.961 . S
H1629 C1615 0.958 . S
H1630 C1615 0.961 . S
H1631 C1615 0.960 . S
C1632 C1633 1.391 . S
C1632 C1634 1.394 . S
C1632 H1648 0.931 . S
C1633 C1632 1.391 . S
C1633 C1637 1.376 . S
C1634 C1632 1.394 . S
C1634 C1635 1.369 . S
C1634 C1638 1.531 . S
C1635 C1634 1.369 . S
C1635 C1636 1.410 . S
C1635 C1643 1.503 . S
C1636 C1635 1.410 . S
C1636 C1637 1.392 . S
C1636 C1639 1.511 . S
C1637 C1633 1.376 . S
C1637 C1636 1.392 . S
C1637 H1649 0.929 . S
C1638 C1634 1.531 . S
C1638 H1650 0.960 . S
C1638 H1651 0.962 . S
C1638 H1652 0.960 . S
C1639 C1636 1.511 . S
C1639 H1653 0.961 . S
C1639 H1654 0.961 . S
C1639 H1655 0.961 . S
C1640 C1641 1.370 . S
C1640 C1642 1.363 . S
C1640 H1656 0.931 . S
C1641 C1640 1.370 . S
C1641 C1645 1.408 . S
C1642 C1640 1.363 . S
C1642 C1643 1.370 . S
C1642 C1646 1.524 . S
C1643 C1635 1.503 . S
C1643 C1642 1.370 . S
C1643 C1644 1.403 . S
C1644 C1643 1.403 . S
C1644 C1645 1.404 . S
C1644 C1647 1.539 . S
C1645 C1641 1.408 . S
C1645 C1644 1.404 . S
C1645 H1657 0.930 . S
C1646 C1642 1.524 . S
C1646 H1658 0.956 . S
C1646 H1659 0.961 . S
C1646 H1660 0.961 . S
C1647 C1644 1.539 . S
C1647 H1661 0.958 . S
C1647 H1662 0.961 . S
C1647 H1663 0.960 . S
H1648 C1632 0.931 . S
H1649 C1637 0.929 . S
H1650 C1638 0.960 . S
H1651 C1638 0.962 . S
H1652 C1638 0.960 . S
H1653 C1639 0.961 . S
H1654 C1639 0.961 . S
H1655 C1639 0.961 . S
H1656 C1640 0.931 . S
H1657 C1645 0.930 . S
H1658 C1646 0.956 . S
H1659 C1646 0.961 . S
H1660 C1646 0.961 . S
H1661 C1647 0.958 . S
H1662 C1647 0.961 . S
H1663 C1647 0.960 . S
C1664 C1665 1.391 . S
C1664 C1666 1.394 . S
C1664 H1680 0.931 . S
C1665 C1664 1.391 . S
C1665 C1669 1.376 . S
C1666 C1664 1.394 . S
C1666 C1667 1.369 . S
C1666 C1670 1.531 . S
C1667 C1666 1.369 . S
C1667 C1668 1.410 . S
C1667 C1675 1.503 . S
C1668 C1667 1.410 . S
C1668 C1669 1.392 . S
C1668 C1671 1.511 . S
C1669 C1665 1.376 . S
C1669 C1668 1.392 . S
C1669 H1681 0.929 . S
C1670 C1666 1.531 . S
C1670 H1682 0.960 . S
C1670 H1683 0.962 . S
C1670 H1684 0.960 . S
C1671 C1668 1.511 . S
C1671 H1685 0.961 . S
C1671 H1686 0.961 . S
C1671 H1687 0.961 . S
C1672 C1673 1.370 . S
C1672 C1674 1.363 . S
C1672 H1688 0.931 . S
C1673 C1672 1.370 . S
C1673 C1677 1.408 . S
C1674 C1672 1.363 . S
C1674 C1675 1.370 . S
C1674 C1678 1.524 . S
C1675 C1667 1.503 . S
C1675 C1674 1.370 . S
C1675 C1676 1.403 . S
C1676 C1675 1.403 . S
C1676 C1677 1.404 . S
C1676 C1679 1.539 . S
C1677 C1673 1.408 . S
C1677 C1676 1.404 . S
C1677 H1689 0.930 . S
C1678 C1674 1.524 . S
C1678 H1690 0.956 . S
C1678 H1691 0.961 . S
C1678 H1692 0.961 . S
C1679 C1676 1.539 . S
C1679 H1693 0.958 . S
C1679 H1694 0.961 . S
C1679 H1695 0.960 . S
H1680 C1664 0.931 . S
H1681 C1669 0.929 . S
H1682 C1670 0.960 . S
H1683 C1670 0.962 . S
H1684 C1670 0.960 . S
H1685 C1671 0.961 . S
H1686 C1671 0.961 . S
H1687 C1671 0.961 . S
H1688 C1672 0.931 . S
H1689 C1677 0.930 . S
H1690 C1678 0.956 . S
H1691 C1678 0.961 . S
H1692 C1678 0.961 . S
H1693 C1679 0.958 . S
H1694 C1679 0.961 . S
H1695 C1679 0.960 . S
C1696 C1697 1.391 . S
C1696 C1698 1.394 . S
C1696 H1712 0.931 . S
C1697 C1696 1.391 . S
C1697 C1701 1.376 . S
C1698 C1696 1.394 . S
C1698 C1699 1.369 . S
C1698 C1702 1.531 . S
C1699 C1698 1.369 . S
C1699 C1700 1.410 . S
C1699 C1707 1.503 . S
C1700 C1699 1.410 . S
C1700 C1701 1.392 . S
C1700 C1703 1.511 . S
C1701 C1697 1.376 . S
C1701 C1700 1.392 . S
C1701 H1713 0.929 . S
C1702 C1698 1.531 . S
C1702 H1714 0.960 . S
C1702 H1715 0.962 . S
C1702 H1716 0.960 . S
C1703 C1700 1.511 . S
C1703 H1717 0.961 . S
C1703 H1718 0.961 . S
C1703 H1719 0.961 . S
C1704 C1705 1.370 . S
C1704 C1706 1.363 . S
C1704 H1720 0.931 . S
C1705 C1704 1.370 . S
C1705 C1709 1.408 . S
C1706 C1704 1.363 . S
C1706 C1707 1.370 . S
C1706 C1710 1.524 . S
C1707 C1699 1.503 . S
C1707 C1706 1.370 . S
C1707 C1708 1.403 . S
C1708 C1707 1.403 . S
C1708 C1709 1.404 . S
C1708 C1711 1.539 . S
C1709 C1705 1.408 . S
C1709 C1708 1.404 . S
C1709 H1721 0.930 . S
C1710 C1706 1.524 . S
C1710 H1722 0.956 . S
C1710 H1723 0.961 . S
C1710 H1724 0.961 . S
C1711 C1708 1.539 . S
C1711 H1725 0.958 . S
C1711 H1726 0.961 . S
C1711 H1727 0.960 . S
H1712 C1696 0.931 . S
H1713 C1701 0.929 . S
H1714 C1702 0.960 . S
H1715 C1702 0.962 . S
H1716 C1702 0.960 . S
H1717 C1703 0.961 . S
H1718 C1703 0.961 . S
H1719 C1703 0.961 . S
H1720 C1704 0.931 . S
H1721 C1709 0.930 . S
H1722 C1710 0.956 . S
H1723 C1710 0.961 . S
H1724 C1710 0.961 . S
H1725 C1711 0.958 . S
H1726 C1711 0.961 . S
H1727 C1711 0.960 . S
C1728 C1729 1.391 . S
C1728 C1730 1.394 . S
C1728 H1744 0.931 . S
C1729 C1728 1.391 . S
C1729 C1733 1.376 . S
C1730 C1728 1.394 . S
C1730 C1731 1.369 . S
C1730 C1734 1.531 . S
C1731 C1730 1.369 . S
C1731 C1732 1.410 . S
C1731 C1739 1.503 1_545 S
C1732 C1731 1.410 . S
C1732 C1733 1.392 . S
C1732 C1735 1.511 . S
C1733 C1729 1.376 . S
C1733 C1732 1.392 . S
C1733 H1745 0.929 . S
C1734 C1730 1.531 . S
C1734 H1746 0.960 . S
C1734 H1747 0.962 . S
C1734 H1748 0.960 . S
C1735 C1732 1.511 . S
C1735 H1749 0.964 . S
C1735 H1750 0.961 1_545 S
C1735 H1751 0.961 . S
C1736 C1737 1.370 . S
C1736 C1738 1.363 . S
C1736 H1752 0.931 . S
C1737 C1736 1.370 . S
C1737 C1741 1.408 . S
C1738 C1736 1.363 . S
C1738 C1739 1.370 . S
C1738 C1742 1.524 . S
C1739 C1731 1.503 1_565 S
C1739 C1738 1.370 . S
C1739 C1740 1.403 . S
C1740 C1739 1.403 . S
C1740 C1741 1.404 . S
C1740 C1743 1.539 1_565 S
C1741 C1737 1.408 . S
C1741 C1740 1.404 . S
C1741 H1753 0.930 . S
C1742 C1738 1.524 . S
C1742 H1754 0.956 . S
C1742 H1755 0.961 . S
C1742 H1756 0.961 . S
C1743 C1740 1.539 1_545 S
C1743 H1757 0.958 . S
C1743 H1758 0.961 . S
C1743 H1759 0.960 . S
H1744 C1728 0.931 . S
H1745 C1733 0.929 . S
H1746 C1734 0.960 . S
H1747 C1734 0.962 . S
H1748 C1734 0.960 . S
H1749 C1735 0.964 . S
H1750 C1735 0.961 1_565 S
H1751 C1735 0.961 . S
H1752 C1736 0.931 . S
H1753 C1741 0.930 . S
H1754 C1742 0.956 . S
H1755 C1742 0.961 . S
H1756 C1742 0.961 . S
H1757 C1743 0.958 . S
H1758 C1743 0.961 . S
H1759 C1743 0.960 . S
C1760 C1761 1.391 . S
C1760 C1762 1.394 . S
C1760 H1776 0.931 . S
C1761 C1760 1.391 . S
C1761 C1765 1.376 . S
C1762 C1760 1.394 . S
C1762 C1763 1.369 . S
C1762 C1766 1.531 . S
C1763 C1762 1.369 . S
C1763 C1764 1.410 . S
C1763 C1771 1.503 . S
C1764 C1763 1.410 . S
C1764 C1765 1.392 . S
C1764 C1767 1.511 . S
C1765 C1761 1.376 . S
C1765 C1764 1.392 . S
C1765 H1777 0.929 . S
C1766 C1762 1.531 . S
C1766 H1778 0.960 . S
C1766 H1779 0.962 . S
C1766 H1780 0.960 . S
C1767 C1764 1.511 . S
C1767 H1781 0.961 . S
C1767 H1782 0.961 . S
C1767 H1783 0.961 . S
C1768 C1769 1.370 . S
C1768 C1770 1.363 . S
C1768 H1784 0.931 . S
C1769 C1768 1.370 . S
C1769 C1773 1.408 . S
C1770 C1768 1.363 . S
C1770 C1771 1.370 . S
C1770 C1774 1.524 . S
C1771 C1763 1.503 . S
C1771 C1770 1.370 . S
C1771 C1772 1.403 . S
C1772 C1771 1.403 . S
C1772 C1773 1.404 . S
C1772 C1775 1.539 . S
C1773 C1769 1.408 . S
C1773 C1772 1.404 . S
C1773 H1785 0.930 . S
C1774 C1770 1.524 . S
C1774 H1786 0.956 . S
C1774 H1787 0.961 . S
C1774 H1788 0.961 . S
C1775 C1772 1.539 . S
C1775 H1789 0.958 . S
C1775 H1790 0.961 . S
C1775 H1791 0.960 . S
H1776 C1760 0.931 . S
H1777 C1765 0.929 . S
H1778 C1766 0.960 . S
H1779 C1766 0.962 . S
H1780 C1766 0.960 . S
H1781 C1767 0.961 . S
H1782 C1767 0.961 . S
H1783 C1767 0.961 . S
H1784 C1768 0.931 . S
H1785 C1773 0.930 . S
H1786 C1774 0.956 . S
H1787 C1774 0.961 . S
H1788 C1774 0.961 . S
H1789 C1775 0.958 . S
H1790 C1775 0.961 . S
H1791 C1775 0.960 . S
C1792 C1793 1.391 . S
C1792 C1794 1.394 . S
C1792 H1808 0.931 . S
C1793 C1792 1.391 . S
C1793 C1797 1.376 . S
C1794 C1792 1.394 . S
C1794 C1795 1.369 . S
C1794 C1798 1.545 . S
C1795 C1794 1.369 . S
C1795 C1796 1.410 . S
C1795 C1803 1.503 1_564 S
C1796 C1795 1.410 . S
C1796 C1797 1.392 . S
C1796 C1799 1.511 . S
C1797 C1793 1.376 . S
C1797 C1796 1.392 . S
C1797 H1809 0.929 . S
C1798 C1794 1.545 . S
C1798 H1810 0.932 1_565 S
C1798 H1811 0.974 . S
C1798 H1812 0.963 . S
C1799 C1796 1.511 . S
C1799 H1813 0.961 . S
C1799 H1814 0.961 1_554 S
C1799 H1815 0.961 1_565 S
C1800 C1801 1.370 . S
C1800 C1802 1.363 . S
C1800 H1816 0.931 . S
C1801 C1800 1.370 . S
C1801 C1805 1.408 . S
C1802 C1800 1.363 . S
C1802 C1803 1.370 . S
C1802 C1806 1.524 1_545 S
C1803 C1795 1.503 1_546 S
C1803 C1802 1.370 . S
C1803 C1804 1.403 1_556 S
C1804 C1803 1.403 1_554 S
C1804 C1805 1.406 1_554 S
C1804 C1807 1.537 . S
C1805 C1801 1.408 . S
C1805 C1804 1.406 1_556 S
C1805 H1817 0.930 . S
C1806 C1802 1.524 1_565 S
C1806 H1818 0.956 . S
C1806 H1819 0.961 . S
C1806 H1820 0.961 . S
C1807 C1804 1.537 . S
C1807 H1821 0.958 . S
C1807 H1822 0.961 . S
C1807 H1823 0.960 . S
H1808 C1792 0.931 . S
H1809 C1797 0.929 . S
H1810 C1798 0.932 1_545 S
H1811 C1798 0.974 . S
H1812 C1798 0.963 . S
H1813 C1799 0.961 . S
H1814 C1799 0.961 1_556 S
H1815 C1799 0.961 1_545 S
H1816 C1800 0.931 . S
H1817 C1805 0.930 . S
H1818 C1806 0.956 . S
H1819 C1806 0.961 . S
H1820 C1806 0.961 . S
H1821 C1807 0.958 . S
H1822 C1807 0.961 . S
H1823 C1807 0.960 . S
C1824 C1825 1.391 . S
C1824 C1826 1.394 . S
C1824 H1840 0.931 . S
C1825 C1824 1.391 . S
C1825 C1829 1.376 . S
C1826 C1824 1.394 . S
C1826 C1827 1.369 . S
C1826 C1830 1.531 . S
C1827 C1826 1.369 . S
C1827 C1828 1.410 . S
C1827 C1835 1.503 . S
C1828 C1827 1.410 . S
C1828 C1829 1.392 . S
C1828 C1831 1.511 . S
C1829 C1825 1.376 . S
C1829 C1828 1.392 . S
C1829 H1841 0.929 . S
C1830 C1826 1.531 . S
C1830 H1842 0.960 . S
C1830 H1843 0.962 . S
C1830 H1844 0.960 . S
C1831 C1828 1.511 . S
C1831 H1845 0.961 . S
C1831 H1846 0.961 . S
C1831 H1847 0.961 . S
C1832 C1833 1.370 . S
C1832 C1834 1.363 . S
C1832 H1848 0.931 . S
C1833 C1832 1.370 . S
C1833 C1837 1.408 . S
C1834 C1832 1.363 . S
C1834 C1835 1.370 . S
C1834 C1838 1.524 . S
C1835 C1827 1.503 . S
C1835 C1834 1.370 . S
C1835 C1836 1.403 . S
C1836 C1835 1.403 . S
C1836 C1837 1.404 . S
C1836 C1839 1.539 . S
C1837 C1833 1.408 . S
C1837 C1836 1.404 . S
C1837 H1849 0.930 . S
C1838 C1834 1.524 . S
C1838 H1850 0.956 . S
C1838 H1851 0.961 . S
C1838 H1852 0.961 . S
C1839 C1836 1.539 . S
C1839 H1853 0.958 . S
C1839 H1854 0.961 . S
C1839 H1855 0.960 . S
H1840 C1824 0.931 . S
H1841 C1829 0.929 . S
H1842 C1830 0.960 . S
H1843 C1830 0.962 . S
H1844 C1830 0.960 . S
H1845 C1831 0.961 . S
H1846 C1831 0.961 . S
H1847 C1831 0.961 . S
H1848 C1832 0.931 . S
H1849 C1837 0.930 . S
H1850 C1838 0.956 . S
H1851 C1838 0.961 . S
H1852 C1838 0.961 . S
H1853 C1839 0.958 . S
H1854 C1839 0.961 . S
H1855 C1839 0.960 . S
C1856 C1857 1.391 . S
C1856 C1858 1.394 . S
C1856 H1872 0.931 . S
C1857 C1856 1.391 . S
C1857 C1861 1.376 . S
C1858 C1856 1.394 . S
C1858 C1859 1.369 . S
C1858 C1862 1.531 . S
C1859 C1858 1.369 . S
C1859 C1860 1.410 . S
C1859 C1867 1.503 1_545 S
C1860 C1859 1.410 . S
C1860 C1861 1.392 . S
C1860 C1863 1.511 . S
C1861 C1857 1.376 . S
C1861 C1860 1.392 . S
C1861 H1873 0.929 . S
C1862 C1858 1.531 . S
C1862 H1874 0.960 . S
C1862 H1875 0.949 1_545 S
C1862 H1876 0.960 . S
C1863 C1860 1.511 . S
C1863 H1877 0.961 . S
C1863 H1878 0.961 1_545 S
C1863 H1879 0.961 . S
C1864 C1865 1.370 . S
C1864 C1866 1.363 . S
C1864 H1880 0.931 . S
C1865 C1864 1.370 . S
C1865 C1869 1.408 . S
C1866 C1864 1.363 . S
C1866 C1867 1.370 . S
C1866 C1870 1.524 . S
C1867 C1859 1.503 1_565 S
C1867 C1866 1.370 . S
C1867 C1868 1.403 . S
C1868 C1867 1.403 . S
C1868 C1869 1.404 . S
C1868 C1871 1.539 1_565 S
C1869 C1865 1.408 . S
C1869 C1868 1.404 . S
C1869 H1881 0.930 . S
C1870 C1866 1.524 . S
C1870 H1882 0.956 . S
C1870 H1883 0.961 . S
C1870 H1884 0.961 . S
C1871 C1868 1.539 1_545 S
C1871 H1885 0.958 . S
C1871 H1886 0.961 . S
C1871 H1887 0.960 . S
H1872 C1856 0.931 . S
H1873 C1861 0.929 . S
H1874 C1862 0.960 . S
H1875 C1862 0.949 1_565 S
H1876 C1862 0.960 . S
H1877 C1863 0.961 . S
H1878 C1863 0.961 1_565 S
H1879 C1863 0.961 . S
H1880 C1864 0.931 . S
H1881 C1869 0.930 . S
H1882 C1870 0.956 . S
H1883 C1870 0.961 . S
H1884 C1870 0.961 . S
H1885 C1871 0.958 . S
H1886 C1871 0.961 . S
H1887 C1871 0.960 . S
C1888 C1889 1.391 . S
C1888 C1890 1.394 . S
C1888 H1904 0.931 . S
C1889 C1888 1.391 . S
C1889 C1893 1.376 . S
C1890 C1888 1.394 . S
C1890 C1891 1.369 . S
C1890 C1894 1.531 . S
C1891 C1890 1.369 . S
C1891 C1892 1.410 . S
C1891 C1899 1.503 . S
C1892 C1891 1.410 . S
C1892 C1893 1.392 . S
C1892 C1895 1.511 . S
C1893 C1889 1.376 . S
C1893 C1892 1.392 . S
C1893 H1905 0.929 . S
C1894 C1890 1.531 . S
C1894 H1906 0.960 . S
C1894 H1907 0.962 . S
C1894 H1908 0.960 . S
C1895 C1892 1.511 . S
C1895 H1909 0.961 . S
C1895 H1910 0.961 . S
C1895 H1911 0.961 . S
C1896 C1897 1.370 . S
C1896 C1898 1.363 . S
C1896 H1912 0.931 . S
C1897 C1896 1.370 . S
C1897 C1901 1.408 . S
C1898 C1896 1.363 . S
C1898 C1899 1.370 . S
C1898 C1902 1.524 . S
C1899 C1891 1.503 . S
C1899 C1898 1.370 . S
C1899 C1900 1.403 . S
C1900 C1899 1.403 . S
C1900 C1901 1.404 . S
C1900 C1903 1.539 . S
C1901 C1897 1.408 . S
C1901 C1900 1.404 . S
C1901 H1913 0.930 . S
C1902 C1898 1.524 . S
C1902 H1914 0.956 . S
C1902 H1915 0.961 . S
C1902 H1916 0.961 . S
C1903 C1900 1.539 . S
C1903 H1917 0.958 . S
C1903 H1918 0.961 . S
C1903 H1919 0.960 . S
H1904 C1888 0.931 . S
H1905 C1893 0.929 . S
H1906 C1894 0.960 . S
H1907 C1894 0.962 . S
H1908 C1894 0.960 . S
H1909 C1895 0.961 . S
H1910 C1895 0.961 . S
H1911 C1895 0.961 . S
H1912 C1896 0.931 . S
H1913 C1901 0.930 . S
H1914 C1902 0.956 . S
H1915 C1902 0.961 . S
H1916 C1902 0.961 . S
H1917 C1903 0.958 . S
H1918 C1903 0.961 . S
H1919 C1903 0.960 . S
C1920 C1921 1.391 . S
C1920 C1922 1.394 . S
C1920 H1936 0.931 . S
C1921 C1920 1.391 . S
C1921 C1925 1.376 . S
C1922 C1920 1.394 . S
C1922 C1923 1.369 . S
C1922 C1926 1.531 1_554 S
C1923 C1922 1.369 . S
C1923 C1924 1.410 . S
C1923 C1931 1.503 1_564 S
C1924 C1923 1.410 . S
C1924 C1925 1.392 . S
C1924 C1927 1.511 1_565 S
C1925 C1921 1.376 . S
C1925 C1924 1.392 . S
C1925 H1937 0.929 . S
C1926 C1922 1.531 1_556 S
C1926 H1938 0.960 . S
C1926 H1939 0.962 . S
C1926 H1940 0.960 . S
C1927 C1924 1.511 1_545 S
C1927 H1941 0.961 . S
C1927 H1942 0.961 . S
C1927 H1943 0.961 . S
C1928 C1929 1.370 . S
C1928 C1930 1.363 . S
C1928 H1944 0.931 . S
C1929 C1928 1.370 . S
C1929 C1933 1.408 . S
C1930 C1928 1.363 . S
C1930 C1931 1.370 . S
C1930 C1934 1.524 1_556 S
C1931 C1923 1.503 1_546 S
C1931 C1930 1.370 . S
C1931 C1932 1.403 . S
C1932 C1931 1.403 . S
C1932 C1933 1.404 . S
C1932 C1935 1.539 1_545 S
C1933 C1929 1.408 . S
C1933 C1932 1.404 . S
C1933 H1945 0.930 . S
C1934 C1930 1.524 1_554 S
C1934 H1946 0.956 . S
C1934 H1947 0.961 . S
C1934 H1948 0.961 . S
C1935 C1932 1.539 1_565 S
C1935 H1949 0.958 . S
C1935 H1950 0.961 1_565 S
C1935 H1951 0.960 . S
H1936 C1920 0.931 . S
H1937 C1925 0.929 . S
H1938 C1926 0.960 . S
H1939 C1926 0.962 . S
H1940 C1926 0.960 . S
H1941 C1927 0.961 . S
H1942 C1927 0.961 . S
H1943 C1927 0.961 . S
H1944 C1928 0.931 . S
H1945 C1933 0.930 . S
H1946 C1934 0.956 . S
H1947 C1934 0.961 . S
H1948 C1934 0.961 . S
H1949 C1935 0.958 . S
H1950 C1935 0.961 1_545 S
H1951 C1935 0.960 . S
C1952 C1953 1.391 . S
C1952 C1954 1.394 . S
C1952 H1968 0.931 . S
C1953 C1952 1.391 . S
C1953 C1957 1.376 . S
C1954 C1952 1.394 . S
C1954 C1955 1.369 . S
C1954 C1958 1.531 . S
C1955 C1954 1.369 . S
C1955 C1956 1.410 . S
C1955 C1963 1.503 . S
C1956 C1955 1.410 . S
C1956 C1957 1.392 . S
C1956 C1959 1.511 . S
C1957 C1953 1.376 . S
C1957 C1956 1.392 . S
C1957 H1969 0.929 . S
C1958 C1954 1.531 . S
C1958 H1970 0.960 . S
C1958 H1971 0.962 . S
C1958 H1972 0.960 . S
C1959 C1956 1.511 . S
C1959 H1973 0.961 . S
C1959 H1974 0.961 . S
C1959 H1975 0.961 . S
C1960 C1961 1.370 . S
C1960 C1962 1.363 . S
C1960 H1976 0.931 . S
C1961 C1960 1.370 . S
C1961 C1965 1.408 . S
C1962 C1960 1.363 . S
C1962 C1963 1.370 . S
C1962 C1966 1.524 . S
C1963 C1955 1.503 . S
C1963 C1962 1.370 . S
C1963 C1964 1.403 . S
C1964 C1963 1.403 . S
C1964 C1965 1.404 . S
C1964 C1967 1.539 . S
C1965 C1961 1.408 . S
C1965 C1964 1.404 . S
C1965 H1977 0.930 . S
C1966 C1962 1.524 . S
C1966 H1978 0.956 . S
C1966 H1979 0.961 . S
C1966 H1980 0.961 . S
C1967 C1964 1.539 . S
C1967 H1981 0.958 . S
C1967 H1982 0.961 . S
C1967 H1983 0.960 . S
H1968 C1952 0.931 . S
H1969 C1957 0.929 . S
H1970 C1958 0.960 . S
H1971 C1958 0.962 . S
H1972 C1958 0.960 . S
H1973 C1959 0.961 . S
H1974 C1959 0.961 . S
H1975 C1959 0.961 . S
H1976 C1960 0.931 . S
H1977 C1965 0.930 . S
H1978 C1966 0.956 . S
H1979 C1966 0.961 . S
H1980 C1966 0.961 . S
H1981 C1967 0.958 . S
H1982 C1967 0.961 . S
H1983 C1967 0.960 . S
C1984 C1985 1.391 . S
C1984 C1986 1.394 . S
C1984 H2000 0.931 . S
C1985 C1984 1.391 . S
C1985 C1989 1.376 . S
C1986 C1984 1.394 . S
C1986 C1987 1.369 . S
C1986 C1990 1.531 . S
C1987 C1986 1.369 . S
C1987 C1988 1.410 . S
C1987 C1995 1.503 . S
C1988 C1987 1.410 . S
C1988 C1989 1.392 . S
C1988 C1991 1.511 . S
C1989 C1985 1.376 . S
C1989 C1988 1.392 . S
C1989 H2001 0.929 . S
C1990 C1986 1.531 . S
C1990 H2002 0.960 . S
C1990 H2003 0.962 . S
C1990 H2004 0.960 . S
C1991 C1988 1.511 . S
C1991 H2005 0.961 . S
C1991 H2006 0.961 . S
C1991 H2007 0.961 . S
C1992 C1993 1.370 . S
C1992 C1994 1.363 . S
C1992 H2008 0.931 . S
C1993 C1992 1.370 . S
C1993 C1997 1.408 . S
C1994 C1992 1.363 . S
C1994 C1995 1.370 . S
C1994 C1998 1.524 . S
C1995 C1987 1.503 . S
C1995 C1994 1.370 . S
C1995 C1996 1.403 . S
C1996 C1995 1.403 . S
C1996 C1997 1.404 . S
C1996 C1999 1.539 . S
C1997 C1993 1.408 . S
C1997 C1996 1.404 . S
C1997 H2009 0.930 . S
C1998 C1994 1.524 . S
C1998 H2010 0.956 . S
C1998 H2011 0.961 . S
C1998 H2012 0.961 . S
C1999 C1996 1.539 . S
C1999 H2013 0.958 . S
C1999 H2014 0.961 . S
C1999 H2015 0.960 . S
H2000 C1984 0.931 . S
H2001 C1989 0.929 . S
H2002 C1990 0.960 . S
H2003 C1990 0.962 . S
H2004 C1990 0.960 . S
H2005 C1991 0.961 . S
H2006 C1991 0.961 . S
H2007 C1991 0.961 . S
H2008 C1992 0.931 . S
H2009 C1997 0.930 . S
H2010 C1998 0.956 . S
H2011 C1998 0.961 . S
H2012 C1998 0.961 . S
H2013 C1999 0.958 . S
H2014 C1999 0.961 . S
H2015 C1999 0.960 . S
C2016 C2017 1.391 . S
C2016 C2018 1.394 . S
C2016 H2032 0.931 . S
C2017 C2016 1.391 . S
C2017 C2021 1.376 . S
C2018 C2016 1.394 . S
C2018 C2019 1.369 . S
C2018 C2022 1.531 . S
C2019 C2018 1.369 . S
C2019 C2020 1.410 . S
C2019 C2027 1.503 . S
C2020 C2019 1.410 . S
C2020 C2021 1.392 . S
C2020 C2023 1.511 . S
C2021 C2017 1.376 . S
C2021 C2020 1.392 . S
C2021 H2033 0.929 . S
C2022 C2018 1.531 . S
C2022 H2034 0.960 . S
C2022 H2035 0.962 . S
C2022 H2036 0.960 . S
C2023 C2020 1.511 . S
C2023 H2037 0.961 . S
C2023 H2038 0.961 . S
C2023 H2039 0.961 . S
C2024 C2025 1.370 . S
C2024 C2026 1.363 . S
C2024 H2040 0.931 . S
C2025 C2024 1.370 . S
C2025 C2029 1.408 . S
C2026 C2024 1.363 . S
C2026 C2027 1.370 . S
C2026 C2030 1.524 . S
C2027 C2019 1.503 . S
C2027 C2026 1.370 . S
C2027 C2028 1.403 . S
C2028 C2027 1.403 . S
C2028 C2029 1.404 . S
C2028 C2031 1.539 . S
C2029 C2025 1.408 . S
C2029 C2028 1.404 . S
C2029 H2041 0.930 . S
C2030 C2026 1.524 . S
C2030 H2042 0.956 . S
C2030 H2043 0.961 . S
C2030 H2044 0.961 . S
C2031 C2028 1.539 . S
C2031 H2045 0.958 . S
C2031 H2046 0.961 . S
C2031 H2047 0.960 . S
H2032 C2016 0.931 . S
H2033 C2021 0.929 . S
H2034 C2022 0.960 . S
H2035 C2022 0.962 . S
H2036 C2022 0.960 . S
H2037 C2023 0.961 . S
H2038 C2023 0.961 . S
H2039 C2023 0.961 . S
H2040 C2024 0.931 . S
H2041 C2029 0.930 . S
H2042 C2030 0.956 . S
H2043 C2030 0.961 . S
H2044 C2030 0.961 . S
H2045 C2031 0.958 . S
H2046 C2031 0.961 . S
H2047 C2031 0.960 . S
C2048 C2049 1.391 . S
C2048 C2050 1.394 . S
C2048 H2064 0.931 . S
C2049 C2048 1.391 . S
C2049 C2053 1.376 . S
C2050 C2048 1.394 . S
C2050 C2051 1.369 . S
C2050 C2054 1.531 . S
C2051 C2050 1.369 . S
C2051 C2052 1.410 . S
C2051 C2059 1.503 . S
C2052 C2051 1.410 . S
C2052 C2053 1.392 . S
C2052 C2055 1.511 . S
C2053 C2049 1.376 . S
C2053 C2052 1.392 . S
C2053 H2065 0.929 . S
C2054 C2050 1.531 . S
C2054 H2066 0.960 . S
C2054 H2067 0.962 . S
C2054 H2068 0.960 . S
C2055 C2052 1.511 . S
C2055 H2069 0.961 . S
C2055 H2070 0.961 . S
C2055 H2071 0.961 . S
C2056 C2057 1.370 . S
C2056 C2058 1.363 . S
C2056 H2072 0.931 . S
C2057 C2056 1.370 . S
C2057 C2061 1.408 . S
C2058 C2056 1.363 . S
C2058 C2059 1.370 . S
C2058 C2062 1.524 . S
C2059 C2051 1.503 . S
C2059 C2058 1.370 . S
C2059 C2060 1.403 . S
C2060 C2059 1.403 . S
C2060 C2061 1.404 . S
C2060 C2063 1.539 . S
C2061 C2057 1.408 . S
C2061 C2060 1.404 . S
C2061 H2073 0.930 . S
C2062 C2058 1.524 . S
C2062 H2074 0.956 . S
C2062 H2075 0.961 . S
C2062 H2076 0.961 . S
C2063 C2060 1.539 . S
C2063 H2077 0.958 . S
C2063 H2078 0.961 . S
C2063 H2079 0.960 . S
H2064 C2048 0.931 . S
H2065 C2053 0.929 . S
H2066 C2054 0.960 . S
H2067 C2054 0.962 . S
H2068 C2054 0.960 . S
H2069 C2055 0.961 . S
H2070 C2055 0.961 . S
H2071 C2055 0.961 . S
H2072 C2056 0.931 . S
H2073 C2061 0.930 . S
H2074 C2062 0.956 . S
H2075 C2062 0.961 . S
H2076 C2062 0.961 . S
H2077 C2063 0.958 . S
H2078 C2063 0.961 . S
H2079 C2063 0.960 . S
C2080 C2081 1.391 . S
C2080 C2082 1.394 . S
C2080 H2096 0.931 . S
C2081 C2080 1.391 . S
C2081 C2085 1.376 . S
C2082 C2080 1.394 . S
C2082 C2083 1.369 . S
C2082 C2086 1.531 . S
C2083 C2082 1.369 . S
C2083 C2084 1.410 . S
C2083 C2091 1.503 1_655 S
C2084 C2083 1.410 . S
C2084 C2085 1.392 . S
C2084 C2087 1.511 . S
C2085 C2081 1.376 . S
C2085 C2084 1.392 . S
C2085 H2097 0.929 . S
C2086 C2082 1.531 . S
C2086 H2098 0.960 1_655 S
C2086 H2099 0.962 . S
C2086 H2100 0.960 . S
C2087 C2084 1.511 . S
C2087 H2101 0.961 . S
C2087 H2102 0.961 1_655 S
C2087 H2103 0.961 . S
C2088 C2089 1.370 . S
C2088 C2090 1.363 . S
C2088 H2104 0.931 . S
C2089 C2088 1.370 . S
C2089 C2093 1.408 . S
C2090 C2088 1.363 . S
C2090 C2091 1.370 . S
C2090 C2094 1.524 . S
C2091 C2083 1.503 1_455 S
C2091 C2090 1.370 . S
C2091 C2092 1.403 . S
C2092 C2091 1.403 . S
C2092 C2093 1.404 . S
C2092 C2095 1.539 . S
C2093 C2089 1.408 . S
C2093 C2092 1.404 . S
C2093 H2105 0.930 . S
C2094 C2090 1.524 . S
C2094 H2106 0.956 . S
C2094 H2107 0.961 1_455 S
C2094 H2108 0.961 . S
C2095 C2092 1.539 . S
C2095 H2109 0.958 . S
C2095 H2110 0.961 . S
C2095 H2111 0.971 . S
H2096 C2080 0.931 . S
H2097 C2085 0.929 . S
H2098 C2086 0.960 1_455 S
H2099 C2086 0.962 . S
H2100 C2086 0.960 . S
H2101 C2087 0.961 . S
H2102 C2087 0.961 1_455 S
H2103 C2087 0.961 . S
H2104 C2088 0.931 . S
H2105 C2093 0.930 . S
H2106 C2094 0.956 . S
H2107 C2094 0.961 1_655 S
H2108 C2094 0.961 . S
H2109 C2095 0.958 . S
H2110 C2095 0.961 . S
H2111 C2095 0.971 . S
C2112 C2113 1.391 . S
C2112 C2114 1.394 . S
C2112 H2128 0.931 . S
C2113 C2112 1.391 . S
C2113 C2117 1.376 . S
C2114 C2112 1.394 . S
C2114 C2115 1.369 . S
C2114 C2118 1.531 . S
C2115 C2114 1.369 . S
C2115 C2116 1.410 . S
C2115 C2123 1.503 . S
C2116 C2115 1.410 . S
C2116 C2117 1.392 . S
C2116 C2119 1.511 . S
C2117 C2113 1.376 . S
C2117 C2116 1.392 . S
C2117 H2129 0.929 . S
C2118 C2114 1.531 . S
C2118 H2130 0.960 . S
C2118 H2131 0.962 . S
C2118 H2132 0.960 . S
C2119 C2116 1.511 . S
C2119 H2133 0.961 . S
C2119 H2134 0.961 . S
C2119 H2135 0.961 . S
C2120 C2121 1.370 . S
C2120 C2122 1.363 . S
C2120 H2136 0.931 . S
C2121 C2120 1.370 . S
C2121 C2125 1.408 . S
C2122 C2120 1.363 . S
C2122 C2123 1.370 . S
C2122 C2126 1.524 . S
C2123 C2115 1.503 . S
C2123 C2122 1.370 . S
C2123 C2124 1.403 . S
C2124 C2123 1.403 . S
C2124 C2125 1.404 . S
C2124 C2127 1.539 . S
C2125 C2121 1.408 . S
C2125 C2124 1.404 . S
C2125 H2137 0.930 . S
C2126 C2122 1.524 . S
C2126 H2138 0.956 . S
C2126 H2139 0.961 . S
C2126 H2140 0.961 . S
C2127 C2124 1.539 . S
C2127 H2141 0.958 . S
C2127 H2142 0.961 . S
C2127 H2143 0.960 . S
H2128 C2112 0.931 . S
H2129 C2117 0.929 . S
H2130 C2118 0.960 . S
H2131 C2118 0.962 . S
H2132 C2118 0.960 . S
H2133 C2119 0.961 . S
H2134 C2119 0.961 . S
H2135 C2119 0.961 . S
H2136 C2120 0.931 . S
H2137 C2125 0.930 . S
H2138 C2126 0.956 . S
H2139 C2126 0.961 . S
H2140 C2126 0.961 . S
H2141 C2127 0.958 . S
H2142 C2127 0.961 . S
H2143 C2127 0.960 . S
C2144 C2145 1.391 . S
C2144 C2146 1.394 . S
C2144 H2160 0.931 . S
C2145 C2144 1.391 . S
C2145 C2149 1.376 . S
C2146 C2144 1.394 . S
C2146 C2147 1.369 . S
C2146 C2150 1.531 . S
C2147 C2146 1.369 . S
C2147 C2148 1.410 . S
C2147 C2155 1.503 1_655 S
C2148 C2147 1.410 . S
C2148 C2149 1.392 . S
C2148 C2151 1.511 . S
C2149 C2145 1.376 . S
C2149 C2148 1.392 . S
C2149 H2161 0.929 . S
C2150 C2146 1.531 . S
C2150 H2162 0.960 1_655 S
C2150 H2163 0.962 . S
C2150 H2164 0.960 . S
C2151 C2148 1.511 . S
C2151 H2165 0.961 . S
C2151 H2166 0.961 1_655 S
C2151 H2167 0.961 . S
C2152 C2153 1.370 . S
C2152 C2154 1.363 . S
C2152 H2168 0.931 . S
C2153 C2152 1.370 . S
C2153 C2157 1.408 . S
C2154 C2152 1.363 . S
C2154 C2155 1.370 . S
C2154 C2158 1.524 . S
C2155 C2147 1.503 1_455 S
C2155 C2154 1.370 . S
C2155 C2156 1.403 . S
C2156 C2155 1.403 . S
C2156 C2157 1.404 . S
C2156 C2159 1.539 . S
C2157 C2153 1.408 . S
C2157 C2156 1.404 . S
C2157 H2169 0.930 . S
C2158 C2154 1.524 . S
C2158 H2170 0.956 . S
C2158 H2171 0.961 1_455 S
C2158 H2172 0.961 . S
C2159 C2156 1.539 . S
C2159 H2173 0.958 . S
C2159 H2174 0.961 . S
C2159 H2175 0.971 . S
H2160 C2144 0.931 . S
H2161 C2149 0.929 . S
H2162 C2150 0.960 1_455 S
H2163 C2150 0.962 . S
H2164 C2150 0.960 . S
H2165 C2151 0.961 . S
H2166 C2151 0.961 1_455 S
H2167 C2151 0.961 . S
H2168 C2152 0.931 . S
H2169 C2157 0.930 . S
H2170 C2158 0.956 . S
H2171 C2158 0.961 1_655 S
H2172 C2158 0.961 . S
H2173 C2159 0.958 . S
H2174 C2159 0.961 . S
H2175 C2159 0.971 . S
C2176 C2177 1.391 . S
C2176 C2178 1.394 . S
C2176 H2192 0.931 . S
C2177 C2176 1.391 . S
C2177 C2181 1.376 . S
C2178 C2176 1.394 . S
C2178 C2179 1.369 . S
C2178 C2182 1.531 . S
C2179 C2178 1.369 . S
C2179 C2180 1.410 . S
C2179 C2187 1.503 . S
C2180 C2179 1.410 . S
C2180 C2181 1.392 . S
C2180 C2183 1.511 . S
C2181 C2177 1.376 . S
C2181 C2180 1.392 . S
C2181 H2193 0.929 . S
C2182 C2178 1.531 . S
C2182 H2194 0.960 . S
C2182 H2195 0.962 . S
C2182 H2196 0.960 . S
C2183 C2180 1.511 . S
C2183 H2197 0.961 . S
C2183 H2198 0.961 . S
C2183 H2199 0.961 . S
C2184 C2185 1.370 . S
C2184 C2186 1.363 . S
C2184 H2200 0.931 . S
C2185 C2184 1.370 . S
C2185 C2189 1.408 . S
C2186 C2184 1.363 . S
C2186 C2187 1.370 . S
C2186 C2190 1.524 . S
C2187 C2179 1.503 . S
C2187 C2186 1.370 . S
C2187 C2188 1.403 . S
C2188 C2187 1.403 . S
C2188 C2189 1.404 . S
C2188 C2191 1.539 . S
C2189 C2185 1.408 . S
C2189 C2188 1.404 . S
C2189 H2201 0.930 . S
C2190 C2186 1.524 . S
C2190 H2202 0.956 . S
C2190 H2203 0.961 . S
C2190 H2204 0.961 . S
C2191 C2188 1.539 . S
C2191 H2205 0.958 . S
C2191 H2206 0.961 . S
C2191 H2207 0.960 . S
H2192 C2176 0.931 . S
H2193 C2181 0.929 . S
H2194 C2182 0.960 . S
H2195 C2182 0.962 . S
H2196 C2182 0.960 . S
H2197 C2183 0.961 . S
H2198 C2183 0.961 . S
H2199 C2183 0.961 . S
H2200 C2184 0.931 . S
H2201 C2189 0.930 . S
H2202 C2190 0.956 . S
H2203 C2190 0.961 . S
H2204 C2190 0.961 . S
H2205 C2191 0.958 . S
H2206 C2191 0.961 . S
H2207 C2191 0.960 . S
C2208 C2209 1.391 . S
C2208 C2210 1.394 . S
C2208 H2224 0.931 . S
C2209 C2208 1.391 . S
C2209 C2213 1.376 . S
C2210 C2208 1.394 . S
C2210 C2211 1.369 . S
C2210 C2214 1.531 . S
C2211 C2210 1.369 . S
C2211 C2212 1.410 . S
C2211 C2219 1.503 . S
C2212 C2211 1.410 . S
C2212 C2213 1.392 . S
C2212 C2215 1.511 . S
C2213 C2209 1.376 . S
C2213 C2212 1.392 . S
C2213 H2225 0.929 . S
C2214 C2210 1.531 . S
C2214 H2226 0.960 . S
C2214 H2227 0.962 . S
C2214 H2228 0.960 . S
C2215 C2212 1.511 . S
C2215 H2229 0.961 . S
C2215 H2230 0.961 . S
C2215 H2231 0.961 . S
C2216 C2217 1.370 . S
C2216 C2218 1.363 . S
C2216 H2232 0.931 . S
C2217 C2216 1.370 . S
C2217 C2221 1.408 . S
C2218 C2216 1.363 . S
C2218 C2219 1.370 . S
C2218 C2222 1.524 . S
C2219 C2211 1.503 . S
C2219 C2218 1.370 . S
C2219 C2220 1.403 . S
C2220 C2219 1.403 . S
C2220 C2221 1.404 . S
C2220 C2223 1.539 . S
C2221 C2217 1.408 . S
C2221 C2220 1.404 . S
C2221 H2233 0.930 . S
C2222 C2218 1.524 . S
C2222 H2234 0.956 . S
C2222 H2235 0.961 . S
C2222 H2236 0.961 . S
C2223 C2220 1.539 . S
C2223 H2237 0.958 . S
C2223 H2238 0.961 . S
C2223 H2239 0.960 . S
H2224 C2208 0.931 . S
H2225 C2213 0.929 . S
H2226 C2214 0.960 . S
H2227 C2214 0.962 . S
H2228 C2214 0.960 . S
H2229 C2215 0.961 . S
H2230 C2215 0.961 . S
H2231 C2215 0.961 . S
H2232 C2216 0.931 . S
H2233 C2221 0.930 . S
H2234 C2222 0.956 . S
H2235 C2222 0.961 . S
H2236 C2222 0.961 . S
H2237 C2223 0.958 . S
H2238 C2223 0.961 . S
H2239 C2223 0.960 . S
C2240 C2241 1.391 . S
C2240 C2242 1.394 . S
C2240 H2256 0.931 . S
C2241 C2240 1.391 . S
C2241 C2245 1.376 . S
C2242 C2240 1.394 . S
C2242 C2243 1.369 . S
C2242 C2246 1.531 . S
C2243 C2242 1.369 . S
C2243 C2244 1.410 . S
C2243 C2251 1.503 . S
C2244 C2243 1.410 . S
C2244 C2245 1.392 . S
C2244 C2247 1.511 . S
C2245 C2241 1.376 . S
C2245 C2244 1.392 . S
C2245 H2257 0.929 . S
C2246 C2242 1.531 . S
C2246 H2258 0.960 . S
C2246 H2259 0.962 . S
C2246 H2260 0.960 . S
C2247 C2244 1.511 . S
C2247 H2261 0.961 . S
C2247 H2262 0.961 . S
C2247 H2263 0.961 . S
C2248 C2249 1.370 . S
C2248 C2250 1.363 . S
C2248 H2264 0.931 . S
C2249 C2248 1.370 . S
C2249 C2253 1.408 . S
C2250 C2248 1.363 . S
C2250 C2251 1.370 . S
C2250 C2254 1.524 . S
C2251 C2243 1.503 . S
C2251 C2250 1.370 . S
C2251 C2252 1.403 . S
C2252 C2251 1.403 . S
C2252 C2253 1.404 . S
C2252 C2255 1.539 . S
C2253 C2249 1.408 . S
C2253 C2252 1.404 . S
C2253 H2265 0.930 . S
C2254 C2250 1.524 . S
C2254 H2266 0.956 . S
C2254 H2267 0.961 . S
C2254 H2268 0.961 . S
C2255 C2252 1.539 . S
C2255 H2269 0.958 . S
C2255 H2270 0.961 . S
C2255 H2271 0.960 . S
H2256 C2240 0.931 . S
H2257 C2245 0.929 . S
H2258 C2246 0.960 . S
H2259 C2246 0.962 . S
H2260 C2246 0.960 . S
H2261 C2247 0.961 . S
H2262 C2247 0.961 . S
H2263 C2247 0.961 . S
H2264 C2248 0.931 . S
H2265 C2253 0.930 . S
H2266 C2254 0.956 . S
H2267 C2254 0.961 . S
H2268 C2254 0.961 . S
H2269 C2255 0.958 . S
H2270 C2255 0.961 . S
H2271 C2255 0.960 . S
C2272 C2273 1.391 . S
C2272 C2274 1.394 . S
C2272 H2288 0.931 . S
C2273 C2272 1.391 . S
C2273 C2277 1.376 . S
C2274 C2272 1.394 . S
C2274 C2275 1.369 . S
C2274 C2278 1.531 . S
C2275 C2274 1.369 . S
C2275 C2276 1.410 . S
C2275 C2283 1.503 . S
C2276 C2275 1.410 . S
C2276 C2277 1.392 . S
C2276 C2279 1.511 . S
C2277 C2273 1.376 . S
C2277 C2276 1.392 . S
C2277 H2289 0.929 . S
C2278 C2274 1.531 . S
C2278 H2290 0.960 . S
C2278 H2291 0.962 . S
C2278 H2292 0.960 . S
C2279 C2276 1.511 . S
C2279 H2293 0.961 . S
C2279 H2294 0.961 . S
C2279 H2295 0.961 . S
C2280 C2281 1.370 . S
C2280 C2282 1.363 . S
C2280 H2296 0.931 . S
C2281 C2280 1.370 . S
C2281 C2285 1.408 . S
C2282 C2280 1.363 . S
C2282 C2283 1.370 . S
C2282 C2286 1.524 . S
C2283 C2275 1.503 . S
C2283 C2282 1.370 . S
C2283 C2284 1.403 . S
C2284 C2283 1.403 . S
C2284 C2285 1.404 . S
C2284 C2287 1.539 . S
C2285 C2281 1.408 . S
C2285 C2284 1.404 . S
C2285 H2297 0.930 . S
C2286 C2282 1.524 . S
C2286 H2298 0.956 . S
C2286 H2299 0.961 . S
C2286 H2300 0.961 . S
C2287 C2284 1.539 . S
C2287 H2301 0.958 . S
C2287 H2302 0.961 . S
C2287 H2303 0.960 . S
H2288 C2272 0.931 . S
H2289 C2277 0.929 . S
H2290 C2278 0.960 . S
H2291 C2278 0.962 . S
H2292 C2278 0.960 . S
H2293 C2279 0.961 . S
H2294 C2279 0.961 . S
H2295 C2279 0.961 . S
H2296 C2280 0.931 . S
H2297 C2285 0.930 . S
H2298 C2286 0.956 . S
H2299 C2286 0.961 . S
H2300 C2286 0.961 . S
H2301 C2287 0.958 . S
H2302 C2287 0.961 . S
H2303 C2287 0.960 . S
C2304 C2305 1.391 . S
C2304 C2306 1.394 . S
C2304 H2320 0.931 . S
C2305 C2304 1.391 . S
C2305 C2309 1.376 . S
C2306 C2304 1.394 . S
C2306 C2307 1.369 . S
C2306 C2310 1.531 . S
C2307 C2306 1.369 . S
C2307 C2308 1.410 . S
C2307 C2315 1.503 . S
C2308 C2307 1.410 . S
C2308 C2309 1.392 . S
C2308 C2311 1.511 . S
C2309 C2305 1.376 . S
C2309 C2308 1.392 . S
C2309 H2321 0.929 . S
C2310 C2306 1.531 . S
C2310 H2322 0.960 . S
C2310 H2323 0.962 . S
C2310 H2324 0.960 . S
C2311 C2308 1.511 . S
C2311 H2325 0.961 . S
C2311 H2326 0.961 . S
C2311 H2327 0.961 . S
C2312 C2313 1.370 . S
C2312 C2314 1.363 . S
C2312 H2328 0.931 . S
C2313 C2312 1.370 . S
C2313 C2317 1.408 . S
C2314 C2312 1.363 . S
C2314 C2315 1.370 . S
C2314 C2318 1.524 . S
C2315 C2307 1.503 . S
C2315 C2314 1.370 . S
C2315 C2316 1.403 . S
C2316 C2315 1.403 . S
C2316 C2317 1.404 . S
C2316 C2319 1.539 . S
C2317 C2313 1.408 . S
C2317 C2316 1.404 . S
C2317 H2329 0.930 . S
C2318 C2314 1.524 . S
C2318 H2330 0.956 . S
C2318 H2331 0.961 . S
C2318 H2332 0.961 . S
C2319 C2316 1.539 . S
C2319 H2333 0.958 . S
C2319 H2334 0.961 . S
C2319 H2335 0.960 . S
H2320 C2304 0.931 . S
H2321 C2309 0.929 . S
H2322 C2310 0.960 . S
H2323 C2310 0.962 . S
H2324 C2310 0.960 . S
H2325 C2311 0.961 . S
H2326 C2311 0.961 . S
H2327 C2311 0.961 . S
H2328 C2312 0.931 . S
H2329 C2317 0.930 . S
H2330 C2318 0.956 . S
H2331 C2318 0.961 . S
H2332 C2318 0.961 . S
H2333 C2319 0.958 . S
H2334 C2319 0.961 . S
H2335 C2319 0.960 . S
C2336 C2337 1.391 . S
C2336 C2338 1.394 . S
C2336 H2352 0.931 . S
C2337 C2336 1.391 . S
C2337 C2341 1.376 . S
C2338 C2336 1.394 . S
C2338 C2339 1.369 . S
C2338 C2342 1.531 . S
C2339 C2338 1.369 . S
C2339 C2340 1.410 . S
C2339 C2347 1.503 . S
C2340 C2339 1.410 . S
C2340 C2341 1.392 . S
C2340 C2343 1.511 . S
C2341 C2337 1.376 . S
C2341 C2340 1.392 . S
C2341 H2353 0.929 . S
C2342 C2338 1.531 . S
C2342 H2354 0.960 . S
C2342 H2355 0.962 . S
C2342 H2356 0.960 . S
C2343 C2340 1.511 . S
C2343 H2357 0.961 . S
C2343 H2358 0.961 . S
C2343 H2359 0.961 . S
C2344 C2345 1.370 . S
C2344 C2346 1.363 . S
C2344 H2360 0.931 . S
C2345 C2344 1.370 . S
C2345 C2349 1.408 . S
C2346 C2344 1.363 . S
C2346 C2347 1.370 . S
C2346 C2350 1.524 . S
C2347 C2339 1.503 . S
C2347 C2346 1.370 . S
C2347 C2348 1.403 . S
C2348 C2347 1.403 . S
C2348 C2349 1.404 . S
C2348 C2351 1.539 . S
C2349 C2345 1.408 . S
C2349 C2348 1.404 . S
C2349 H2361 0.930 . S
C2350 C2346 1.524 . S
C2350 H2362 0.956 . S
C2350 H2363 0.961 . S
C2350 H2364 0.961 . S
C2351 C2348 1.539 . S
C2351 H2365 0.958 . S
C2351 H2366 0.961 . S
C2351 H2367 0.960 . S
H2352 C2336 0.931 . S
H2353 C2341 0.929 . S
H2354 C2342 0.960 . S
H2355 C2342 0.962 . S
H2356 C2342 0.960 . S
H2357 C2343 0.961 . S
H2358 C2343 0.961 . S
H2359 C2343 0.961 . S
H2360 C2344 0.931 . S
H2361 C2349 0.930 . S
H2362 C2350 0.956 . S
H2363 C2350 0.961 . S
H2364 C2350 0.961 . S
H2365 C2351 0.958 . S
H2366 C2351 0.961 . S
H2367 C2351 0.960 . S
C2368 C2369 1.391 . S
C2368 C2370 1.394 . S
C2368 H2384 0.931 . S
C2369 C2368 1.391 . S
C2369 C2373 1.376 . S
C2370 C2368 1.394 . S
C2370 C2371 1.369 . S
C2370 C2374 1.531 . S
C2371 C2370 1.369 . S
C2371 C2372 1.410 . S
C2371 C2379 1.503 1_655 S
C2372 C2371 1.410 . S
C2372 C2373 1.392 . S
C2372 C2375 1.511 . S
C2373 C2369 1.376 . S
C2373 C2372 1.392 . S
C2373 H2385 0.929 . S
C2374 C2370 1.531 . S
C2374 H2386 0.960 1_655 S
C2374 H2387 0.962 . S
C2374 H2388 0.960 . S
C2375 C2372 1.511 . S
C2375 H2389 0.961 . S
C2375 H2390 0.961 1_655 S
C2375 H2391 0.961 . S
C2376 C2377 1.370 . S
C2376 C2378 1.363 . S
C2376 H2392 0.931 . S
C2377 C2376 1.370 . S
C2377 C2381 1.408 . S
C2378 C2376 1.363 . S
C2378 C2379 1.370 . S
C2378 C2382 1.524 . S
C2379 C2371 1.503 1_455 S
C2379 C2378 1.370 . S
C2379 C2380 1.403 . S
C2380 C2379 1.403 . S
C2380 C2381 1.404 . S
C2380 C2383 1.539 . S
C2381 C2377 1.408 . S
C2381 C2380 1.404 . S
C2381 H2393 0.930 . S
C2382 C2378 1.524 . S
C2382 H2394 0.956 . S
C2382 H2395 0.961 1_455 S
C2382 H2396 0.961 . S
C2383 C2380 1.539 . S
C2383 H2397 0.958 . S
C2383 H2398 0.961 . S
C2383 H2399 0.971 . S
H2384 C2368 0.931 . S
H2385 C2373 0.929 . S
H2386 C2374 0.960 1_455 S
H2387 C2374 0.962 . S
H2388 C2374 0.960 . S
H2389 C2375 0.961 . S
H2390 C2375 0.961 1_455 S
H2391 C2375 0.961 . S
H2392 C2376 0.931 . S
H2393 C2381 0.930 . S
H2394 C2382 0.956 . S
H2395 C2382 0.961 1_655 S
H2396 C2382 0.961 . S
H2397 C2383 0.958 . S
H2398 C2383 0.961 . S
H2399 C2383 0.971 . S
C2400 C2401 1.391 . S
C2400 C2402 1.394 . S
C2400 H2416 0.931 . S
C2401 C2400 1.391 . S
C2401 C2405 1.376 . S
C2402 C2400 1.394 . S
C2402 C2403 1.369 . S
C2402 C2406 1.531 . S
C2403 C2402 1.369 . S
C2403 C2404 1.410 . S
C2403 C2411 1.503 . S
C2404 C2403 1.410 . S
C2404 C2405 1.392 . S
C2404 C2407 1.511 . S
C2405 C2401 1.376 . S
C2405 C2404 1.392 . S
C2405 H2417 0.929 . S
C2406 C2402 1.531 . S
C2406 H2418 0.960 . S
C2406 H2419 0.962 . S
C2406 H2420 0.960 . S
C2407 C2404 1.511 . S
C2407 H2421 0.961 . S
C2407 H2422 0.961 . S
C2407 H2423 0.961 . S
C2408 C2409 1.370 . S
C2408 C2410 1.363 . S
C2408 H2424 0.931 . S
C2409 C2408 1.370 . S
C2409 C2413 1.408 . S
C2410 C2408 1.363 . S
C2410 C2411 1.370 . S
C2410 C2414 1.524 . S
C2411 C2403 1.503 . S
C2411 C2410 1.370 . S
C2411 C2412 1.403 . S
C2412 C2411 1.403 . S
C2412 C2413 1.404 . S
C2412 C2415 1.539 . S
C2413 C2409 1.408 . S
C2413 C2412 1.404 . S
C2413 H2425 0.930 . S
C2414 C2410 1.524 . S
C2414 H2426 0.956 . S
C2414 H2427 0.961 . S
C2414 H2428 0.961 . S
C2415 C2412 1.539 . S
C2415 H2429 0.958 . S
C2415 H2430 0.961 . S
C2415 H2431 0.960 . S
H2416 C2400 0.931 . S
H2417 C2405 0.929 . S
H2418 C2406 0.960 . S
H2419 C2406 0.962 . S
H2420 C2406 0.960 . S
H2421 C2407 0.961 . S
H2422 C2407 0.961 . S
H2423 C2407 0.961 . S
H2424 C2408 0.931 . S
H2425 C2413 0.930 . S
H2426 C2414 0.956 . S
H2427 C2414 0.961 . S
H2428 C2414 0.961 . S
H2429 C2415 0.958 . S
H2430 C2415 0.961 . S
H2431 C2415 0.960 . S
C2432 C2433 1.391 . S
C2432 C2434 1.394 . S
C2432 H2448 0.931 . S
C2433 C2432 1.391 . S
C2433 C2437 1.376 . S
C2434 C2432 1.394 . S
C2434 C2435 1.369 . S
C2434 C2438 1.531 . S
C2435 C2434 1.369 . S
C2435 C2436 1.410 . S
C2435 C2443 1.503 . S
C2436 C2435 1.410 . S
C2436 C2437 1.392 . S
C2436 C2439 1.511 . S
C2437 C2433 1.376 . S
C2437 C2436 1.392 . S
C2437 H2449 0.929 . S
C2438 C2434 1.531 . S
C2438 H2450 0.960 . S
C2438 H2451 0.962 . S
C2438 H2452 0.960 . S
C2439 C2436 1.511 . S
C2439 H2453 0.961 . S
C2439 H2454 0.961 . S
C2439 H2455 0.961 . S
C2440 C2441 1.370 . S
C2440 C2442 1.363 . S
C2440 H2456 0.931 . S
C2441 C2440 1.370 . S
C2441 C2445 1.408 . S
C2442 C2440 1.363 . S
C2442 C2443 1.370 . S
C2442 C2446 1.524 . S
C2443 C2435 1.503 . S
C2443 C2442 1.370 . S
C2443 C2444 1.403 . S
C2444 C2443 1.403 . S
C2444 C2445 1.404 . S
C2444 C2447 1.539 . S
C2445 C2441 1.408 . S
C2445 C2444 1.404 . S
C2445 H2457 0.930 . S
C2446 C2442 1.524 . S
C2446 H2458 0.956 . S
C2446 H2459 0.961 . S
C2446 H2460 0.961 . S
C2447 C2444 1.539 . S
C2447 H2461 0.958 . S
C2447 H2462 0.961 . S
C2447 H2463 0.960 . S
H2448 C2432 0.931 . S
H2449 C2437 0.929 . S
H2450 C2438 0.960 . S
H2451 C2438 0.962 . S
H2452 C2438 0.960 . S
H2453 C2439 0.961 . S
H2454 C2439 0.961 . S
H2455 C2439 0.961 . S
H2456 C2440 0.931 . S
H2457 C2445 0.930 . S
H2458 C2446 0.956 . S
H2459 C2446 0.961 . S
H2460 C2446 0.961 . S
H2461 C2447 0.958 . S
H2462 C2447 0.961 . S
H2463 C2447 0.960 . S
C2464 C2465 1.391 . S
C2464 C2466 1.394 . S
C2464 H2480 0.931 . S
C2465 C2464 1.391 . S
C2465 C2469 1.376 . S
C2466 C2464 1.394 . S
C2466 C2467 1.369 . S
C2466 C2470 1.531 . S
C2467 C2466 1.369 . S
C2467 C2468 1.410 . S
C2467 C2475 1.503 1_655 S
C2468 C2467 1.410 . S
C2468 C2469 1.392 . S
C2468 C2471 1.511 . S
C2469 C2465 1.376 . S
C2469 C2468 1.392 . S
C2469 H2481 0.929 . S
C2470 C2466 1.531 . S
C2470 H2482 0.960 1_655 S
C2470 H2483 0.962 . S
C2470 H2484 0.960 . S
C2471 C2468 1.511 . S
C2471 H2485 0.961 . S
C2471 H2486 0.961 1_655 S
C2471 H2487 0.961 . S
C2472 C2473 1.370 . S
C2472 C2474 1.363 . S
C2472 H2488 0.931 . S
C2473 C2472 1.370 . S
C2473 C2477 1.408 . S
C2474 C2472 1.363 . S
C2474 C2475 1.370 . S
C2474 C2478 1.524 . S
C2475 C2467 1.503 1_455 S
C2475 C2474 1.370 . S
C2475 C2476 1.403 . S
C2476 C2475 1.403 . S
C2476 C2477 1.404 . S
C2476 C2479 1.539 . S
C2477 C2473 1.408 . S
C2477 C2476 1.404 . S
C2477 H2489 0.930 . S
C2478 C2474 1.524 . S
C2478 H2490 0.956 . S
C2478 H2491 0.961 1_455 S
C2478 H2492 0.961 . S
C2479 C2476 1.539 . S
C2479 H2493 0.958 . S
C2479 H2494 0.961 . S
C2479 H2495 0.971 . S
H2480 C2464 0.931 . S
H2481 C2469 0.929 . S
H2482 C2470 0.960 1_455 S
H2483 C2470 0.962 . S
H2484 C2470 0.960 . S
H2485 C2471 0.961 . S
H2486 C2471 0.961 1_455 S
H2487 C2471 0.961 . S
H2488 C2472 0.931 . S
H2489 C2477 0.930 . S
H2490 C2478 0.956 . S
H2491 C2478 0.961 1_655 S
H2492 C2478 0.961 . S
H2493 C2479 0.958 . S
H2494 C2479 0.961 . S
H2495 C2479 0.971 . S
C449 C333 1.375 . S
C457 C11 1.360 . S
C481 C291 1.367 . S
C489 C25 1.358 . S
C513 C305 1.300 . S
C521 C39 1.327 . S
C545 C319 1.371 . S
C553 C53 1.359 . S
C577 C67 1.382 . S
C585 C249 1.361 . S
C609 C263 1.299 . S
C617 C81 1.327 . S
C641 C95 1.382 . S
C649 C277 1.361 . S
C673 C109 1.352 . S
C681 C235 1.345 . S
C705 C445 1.382 . S
C713 C123 1.361 . S
C737 C137 1.300 . S
C745 C403 1.327 . S
C769 C151 1.364 . S
C777 C417 1.352 . S
C801 C165 1.304 . S
C809 C431 1.328 . S
C833 C179 1.347 . S
C841 C361 1.348 . S
C865 C193 1.300 . S
C873 C375 1.327 . S
C897 C207 1.306 . S
C905 C389 1.331 . S
C929 C221 1.367 . S
C937 C347 1.356 . S
C961 C4 1.580 . S
C969 C172 1.597 . S
C993 C410 1.594 . S
C1001 C18 1.606 . S
C1025 C32 1.579 . S
C1033 C200 1.598 . S
C1057 C438 1.619 . S
C1065 C46 1.612 . S
C1089 C116 1.610 . S
C1097 C60 1.608 . S
C1121 C74 1.580 . S
C1129 C354 1.597 . S
C1153 C88 1.602 . S
C1161 C144 1.609 . S
C1185 C102 1.626 . S
C1193 C382 1.616 . S
C1217 C298 1.631 . S
C1225 C130 1.619 . S
C1249 C326 1.579 . S
C1257 C158 1.596 . S
C1281 C186 1.610 . S
C1289 C242 1.608 . S
C1313 C270 1.578 . S
C1321 C214 1.596 . S
C1345 C396 1.629 . S
C1353 C228 1.617 . S
C1377 C256 1.578 . S
C1385 C424 1.598 . S
C1409 C340 1.581 . S
C1417 C284 1.599 . S
C1441 C368 1.629 . S
C1449 C312 1.618 . S
C1473 C61 1.030 . S
C1481 C5 1.043 . S
C1505 C75 1.020 . S
C1513 C19 1.047 . S
C1537 C33 1.026 . S
C1545 C89 1.042 . S
C1569 C47 1.055 . S
C1577 C103 1.053 . S
C1601 C173 1.045 . S
C1609 C117 1.057 . S
C1633 C187 1.113 . S
C1641 C131 1.080 . S
C1665 C201 1.095 . S
C1673 C145 1.077 . S
C1697 C159 1.041 . S
C1705 C215 1.055 . S
C1729 C229 1.033 . S
C1737 C285 1.044 . S
C1761 C243 0.998 . S
C1769 C299 1.036 . S
C1793 C257 1.066 . S
C1801 C313 1.066 . S
C1825 C271 1.089 . S
C1833 C327 1.067 . S
C1857 C397 1.058 . S
C1865 C341 1.062 . S
C1889 C411 0.995 . S
C1897 C355 1.033 . S
C1921 C425 1.107 . S
C1929 C369 1.081 . S
C1953 C439 1.035 . S
C1961 C383 1.053 . S
C1985 C432 1.166 . S
C1993 C12 1.177 . S
C2017 C26 1.166 . S
C2025 C222 1.179 . S
C2049 C404 1.161 . S
C2057 C40 1.175 . S
C2081 C54 1.185 . S
C2089 C194 1.187 . S
C2113 C376 1.161 . S
C2121 C68 1.175 . S
C2145 C82 1.194 . S
C2153 C166 1.188 . S
C2177 C96 1.162 . S
C2185 C348 1.176 . S
C2209 C138 1.203 . S
C2217 C110 1.193 . S
C2241 C124 1.199 . S
C2249 C320 1.191 . S
C2273 C292 1.197 . S
C2281 C152 1.190 . S
C2305 C180 1.167 . S
C2313 C264 1.180 . S
C2337 C208 1.204 . S
C2345 C236 1.194 . S
C2369 C446 1.170 . S
C2377 C250 1.178 . S
C2401 C278 1.199 . S
C2409 C418 1.191 . S
C2433 C306 1.193 . S
C2441 C390 1.188 . S
C2465 C362 1.203 . S
C2473 C334 1.194 . S
