# Generated by pormake.
# Topology deh, (3)-cn, num edge types: 1
# Building blocks:
#     Node 0, Type 0, BuildingBlock: WUSLED_clean_sbu_0, # of connection points: 3
#     Node 1, Type 0, BuildingBlock: WUSLED_clean_sbu_0, # of connection points: 3
#     Node 2, Type 0, BuildingBlock: WUSLED_clean_sbu_0, # of connection points: 3
#     Node 3, Type 0, BuildingBlock: WUSLED_clean_sbu_0, # of connection points: 3
#     Node 4, Type 0, BuildingBlock: WUSLED_clean_sbu_0, # of connection points: 3
#     Node 5, Type 0, BuildingBlock: WUSLED_clean_sbu_0, # of connection points: 3
#     Node 6, Type 0, BuildingBlock: WUSLED_clean_sbu_0, # of connection points: 3
#     Node 7, Type 0, BuildingBlock: WUSLED_clean_sbu_0, # of connection points: 3
#     Node 8, Type 0, BuildingBlock: WUSLED_clean_sbu_0, # of connection points: 3
#     Node 9, Type 0, BuildingBlock: WUSLED_clean_sbu_0, # of connection points: 3
#     Node 10, Type 0, BuildingBlock: WUSLED_clean_sbu_0, # of connection points: 3
#     Node 11, Type 0, BuildingBlock: WUSLED_clean_sbu_0, # of connection points: 3
#     Node 12, Type 0, BuildingBlock: WUSLED_clean_sbu_0, # of connection points: 3
#     Node 13, Type 0, BuildingBlock: WUSLED_clean_sbu_0, # of connection points: 3
#     Node 14, Type 0, BuildingBlock: WUSLED_clean_sbu_0, # of connection points: 3
#     Node 15, Type 0, BuildingBlock: WUSLED_clean_sbu_0, # of connection points: 3
#     Node 16, Type 0, BuildingBlock: WUSLED_clean_sbu_0, # of connection points: 3
#     Node 17, Type 0, BuildingBlock: WUSLED_clean_sbu_0, # of connection points: 3
#     Node 18, Type 0, BuildingBlock: WUSLED_clean_sbu_0, # of connection points: 3
#     Node 19, Type 0, BuildingBlock: WUSLED_clean_sbu_0, # of connection points: 3
#     Node 20, Type 0, BuildingBlock: WUSLED_clean_sbu_0, # of connection points: 3
#     Node 21, Type 0, BuildingBlock: WUSLED_clean_sbu_0, # of connection points: 3
#     Node 22, Type 0, BuildingBlock: WUSLED_clean_sbu_0, # of connection points: 3
#     Node 23, Type 0, BuildingBlock: WUSLED_clean_sbu_0, # of connection points: 3
#     Node 24, Type 0, BuildingBlock: WUSLED_clean_sbu_0, # of connection points: 3
#     Node 25, Type 0, BuildingBlock: WUSLED_clean_sbu_0, # of connection points: 3
#     Node 26, Type 0, BuildingBlock: WUSLED_clean_sbu_0, # of connection points: 3
#     Node 27, Type 0, BuildingBlock: WUSLED_clean_sbu_0, # of connection points: 3
#     Node 28, Type 0, BuildingBlock: WUSLED_clean_sbu_0, # of connection points: 3
#     Node 29, Type 0, BuildingBlock: WUSLED_clean_sbu_0, # of connection points: 3
#     Node 30, Type 0, BuildingBlock: WUSLED_clean_sbu_0, # of connection points: 3
#     Node 31, Type 0, BuildingBlock: WUSLED_clean_sbu_0, # of connection points: 3
#     Edge 32, Type (0, 0), None
#     Edge 33, Type (0, 0), None
#     Edge 34, Type (0, 0), None
#     Edge 35, Type (0, 0), None
#     Edge 36, Type (0, 0), None
#     Edge 37, Type (0, 0), None
#     Edge 38, Type (0, 0), None
#     Edge 39, Type (0, 0), None
#     Edge 40, Type (0, 0), None
#     Edge 41, Type (0, 0), None
#     Edge 42, Type (0, 0), None
#     Edge 43, Type (0, 0), None
#     Edge 44, Type (0, 0), None
#     Edge 45, Type (0, 0), None
#     Edge 46, Type (0, 0), None
#     Edge 47, Type (0, 0), None
#     Edge 48, Type (0, 0), None
#     Edge 49, Type (0, 0), None
#     Edge 50, Type (0, 0), None
#     Edge 51, Type (0, 0), None
#     Edge 52, Type (0, 0), None
#     Edge 53, Type (0, 0), None
#     Edge 54, Type (0, 0), None
#     Edge 55, Type (0, 0), None
#     Edge 56, Type (0, 0), None
#     Edge 57, Type (0, 0), None
#     Edge 58, Type (0, 0), None
#     Edge 59, Type (0, 0), None
#     Edge 60, Type (0, 0), None
#     Edge 61, Type (0, 0), None
#     Edge 62, Type (0, 0), None
#     Edge 63, Type (0, 0), None
#     Edge 64, Type (0, 0), None
#     Edge 65, Type (0, 0), None
#     Edge 66, Type (0, 0), None
#     Edge 67, Type (0, 0), None
#     Edge 68, Type (0, 0), None
#     Edge 69, Type (0, 0), None
#     Edge 70, Type (0, 0), None
#     Edge 71, Type (0, 0), None
#     Edge 72, Type (0, 0), None
#     Edge 73, Type (0, 0), None
#     Edge 74, Type (0, 0), None
#     Edge 75, Type (0, 0), None
#     Edge 76, Type (0, 0), None
#     Edge 77, Type (0, 0), None
#     Edge 78, Type (0, 0), None
#     Edge 79, Type (0, 0), None
# Relax obj value: 0.005
# Max RMSD: 0.037
# Mean RMSD: 0.012
data_MOF--net-deh--node1-WUSLED_clean_sbu_0--edge1-none
_symmetry_space_group_name_H-M    P1
_symmetry_Int_Tables_number       1
_symmetry_cell_setting            triclinic
loop_
_symmetry_equiv_pos_as_xyz
'x, y, z'
_cell_length_a     45.614658
_cell_length_b     46.996363
_cell_length_c     99.105149
_cell_angle_alpha  89.99429
_cell_angle_beta   90.006193
_cell_angle_gamma 90.037159
loop_
_atom_site_label
_atom_site_type_symbol
_atom_site_fract_x
_atom_site_fract_y
_atom_site_fract_z
_atom_type_partial_charge
C0 C 0.09874 0.05893 0.31288 0.0
C1 C 0.08422 0.0558 0.32527 0.0
C2 C 0.03697 0.05596 0.31373 0.0
C3 C 0.05357 0.05428 0.32569 0.0
C4 C 0.0518 0.05904 0.30136 0.0
C5 C 0.08238 0.06047 0.30095 0.0
U6 U 0.17373 0.06912 0.32948 0.0
O7 O 0.21621 0.04954 0.32459 0.0
O8 O 0.2107 0.09574 0.3228 0.0
C9 C 0.22748 0.07364 0.32028 0.0
C10 C 0.1308 0.06149 0.31219 0.0
C11 C 0.24008 0.07283 0.30661 0.0
C12 C 0.23493 0.06391 0.28255 0.0
C13 C 0.223 0.06418 0.29556 0.0
C14 C 0.28112 0.08105 0.29147 0.0
C15 C 0.26414 0.0724 0.28032 0.0
C16 C 0.26918 0.08125 0.30448 0.0
C17 C 0.17684 0.07807 0.36822 0.0
C18 C 0.21783 0.09687 0.38112 0.0
C19 C 0.17464 0.07943 0.3927 0.0
C20 C 0.16195 0.07249 0.38029 0.0
C21 C 0.20254 0.09217 0.39328 0.0
C22 C 0.20509 0.08986 0.36869 0.0
C23 C 0.16165 0.07303 0.35534 0.0
O24 O 0.14129 0.08666 0.31534 0.0
O25 O 0.1458 0.04042 0.31752 0.0
O26 O 0.16715 0.04872 0.34929 0.0
O27 O 0.16077 0.09477 0.347 0.0
H28 H 0.09658 0.05468 0.33459 0.0
H29 H 0.04292 0.05164 0.33538 0.0
H30 H 0.03978 0.06095 0.29198 0.0
H31 H 0.09326 0.06311 0.29131 0.0
H32 H 0.22131 0.05676 0.27427 0.0
H33 H 0.20043 0.05766 0.29701 0.0
H34 H 0.30352 0.08814 0.29013 0.0
H35 H 0.28261 0.08817 0.31288 0.0
H36 H 0.23949 0.10632 0.3812 0.0
H37 H 0.16204 0.07586 0.40181 0.0
H38 H 0.14008 0.06348 0.38012 0.0
H39 H 0.21696 0.09423 0.35945 0.0
C40 C 0.25587 0.84674 0.55926 0.0
C41 C 0.25932 0.83253 0.57161 0.0
C42 C 0.25852 0.78671 0.56004 0.0
C43 C 0.26071 0.80278 0.572 0.0
C44 C 0.25518 0.8012 0.5477 0.0
C45 C 0.2539 0.83091 0.54733 0.0
U46 U 0.24384 0.91828 0.57649 0.0
O47 O 0.26396 0.9601 0.57269 0.0
O48 O 0.21653 0.95452 0.57019 0.0
C49 C 0.23923 0.97137 0.56846 0.0
C50 C 0.2532 0.8779 0.5587 0.0
C51 C 0.24056 0.98587 0.55531 0.0
C52 C 0.25038 0.98523 0.53119 0.0
C53 C 0.24977 0.97134 0.54369 0.0
C54 C 0.23257 0.02832 0.54179 0.0
C55 C 0.24169 1.0139 0.53006 0.0
C56 C 0.23203 1.01442 0.55428 0.0
C57 C 0.23164 0.91778 0.61509 0.0
C58 C 0.21043 0.95601 0.62841 0.0
C59 C 0.22814 0.91338 0.63946 0.0
C60 C 0.23661 0.90234 0.62696 0.0
C61 C 0.21443 0.94013 0.64034 0.0
C62 C 0.21897 0.94493 0.61589 0.0
C63 C 0.23803 0.90426 0.60203 0.0
O64 O 0.22701 0.88785 0.56152 0.0
O65 O 0.27443 0.89236 0.5645 0.0
O66 O 0.26344 0.91042 0.5965 0.0
O67 O 0.21629 0.90388 0.59332 0.0
H68 H 0.26075 0.84445 0.58095 0.0
H69 H 0.26361 0.7924 0.58166 0.0
H70 H 0.25289 0.78959 0.53832 0.0
H71 H 0.25099 0.84154 0.53772 0.0
H72 H 0.25788 0.97355 0.52243 0.0
H73 H 0.25641 0.94925 0.54429 0.0
H74 H 0.22531 0.05023 0.5413 0.0
H75 H 0.2247 0.02591 0.56314 0.0
H76 H 0.20029 0.97683 0.62873 0.0
H77 H 0.23123 0.90039 0.64838 0.0
H78 H 0.24628 0.8813 0.62653 0.0
H79 H 0.21505 0.95721 0.60681 0.0
C80 C 0.44219 0.98354 0.81287 0.0
C81 C 0.45672 0.98668 0.82526 0.0
C82 C 0.50397 0.9865 0.81372 0.0
C83 C 0.48737 0.98821 0.82569 0.0
C84 C 0.48912 0.98341 0.80135 0.0
C85 C 0.45854 0.98198 0.80095 0.0
U86 U 0.36722 0.97335 0.82947 0.0
O87 O 0.32472 0.99293 0.82458 0.0
O88 O 0.33024 0.94673 0.8228 0.0
C89 C 0.31346 0.96882 0.82027 0.0
C90 C 0.41013 0.98097 0.81219 0.0
C91 C 0.30085 0.96963 0.80661 0.0
C92 C 0.306 0.97855 0.78255 0.0
C93 C 0.31793 0.97827 0.79556 0.0
C94 C 0.25981 0.9614 0.79147 0.0
C95 C 0.27679 0.97005 0.78032 0.0
C96 C 0.27176 0.96121 0.80448 0.0
C97 C 0.36412 0.9644 0.86822 0.0
C98 C 0.32312 0.94563 0.88112 0.0
C99 C 0.36632 0.96303 0.8927 0.0
C100 C 0.37902 0.96997 0.88029 0.0
C101 C 0.33842 0.95031 0.89328 0.0
C102 C 0.33586 0.95263 0.86869 0.0
C103 C 0.37931 0.96944 0.85534 0.0
O104 O 0.39964 0.9558 0.81534 0.0
O105 O 0.39513 1.00204 0.81752 0.0
O106 O 0.37381 0.99374 0.84929 0.0
O107 O 0.38018 0.9477 0.847 0.0
H108 H 0.44437 0.98782 0.83458 0.0
H109 H 0.49803 0.99086 0.83537 0.0
H110 H 0.50113 0.98148 0.79198 0.0
H111 H 0.44766 0.97932 0.79131 0.0
H112 H 0.31961 0.98569 0.77426 0.0
H113 H 0.3405 0.98479 0.79701 0.0
H114 H 0.23741 0.95431 0.79013 0.0
H115 H 0.25832 0.95429 0.81288 0.0
H116 H 0.30145 0.93619 0.8812 0.0
H117 H 0.37893 0.96659 0.90181 0.0
H118 H 0.40089 0.97896 0.88012 0.0
H119 H 0.32398 0.94828 0.85945 0.0
C120 C 0.28501 0.1957 0.05925 0.0
C121 C 0.28155 0.2099 0.0716 0.0
C122 C 0.28235 0.25573 0.06003 0.0
C123 C 0.28015 0.23965 0.07199 0.0
C124 C 0.2857 0.24124 0.04769 0.0
C125 C 0.28698 0.21153 0.04732 0.0
U126 U 0.29704 0.12415 0.07649 0.0
O127 O 0.27693 0.08234 0.07268 0.0
O128 O 0.32436 0.08792 0.07019 0.0
C129 C 0.30167 0.07107 0.06846 0.0
C130 C 0.28768 0.16454 0.0587 0.0
C131 C 0.30034 0.05657 0.0553 0.0
C132 C 0.29059 0.05724 0.03118 0.0
C133 C 0.2912 0.07112 0.04368 0.0
C134 C 0.30827 1.01411 0.04179 0.0
C135 C 0.29922 0.02855 0.03006 0.0
C136 C 0.30881 0.02801 0.05428 0.0
C137 C 0.30924 0.12465 0.11509 0.0
C138 C 0.33045 0.08642 0.12841 0.0
C139 C 0.31274 0.12905 0.13946 0.0
C140 C 0.30427 0.14008 0.12696 0.0
C141 C 0.32645 0.1023 0.14033 0.0
C142 C 0.32191 0.0975 0.11589 0.0
C143 C 0.30285 0.13817 0.10202 0.0
O144 O 0.31388 0.15459 0.06151 0.0
O145 O 0.26646 0.15007 0.06449 0.0
O146 O 0.27744 0.132 0.09649 0.0
O147 O 0.32459 0.13855 0.09332 0.0
H148 H 0.28011 0.19798 0.08094 0.0
H149 H 0.27724 0.25003 0.08165 0.0
H150 H 0.288 0.25286 0.03831 0.0
H151 H 0.28991 0.20091 0.03771 0.0
H152 H 0.28315 0.06894 1.02241 0.0
H153 H 0.2846 0.09323 0.04427 0.0
H154 H 0.31549 0.99219 0.04131 0.0
H155 H 0.31609 1.01649 0.06314 0.0
H156 H 0.34059 0.0656 0.12873 0.0
H157 H 0.30966 0.14204 0.14837 0.0
H158 H 0.2946 0.16112 0.12652 0.0
H159 H 0.32582 0.08522 0.10681 0.0
C160 C 0.09876 0.98352 0.73389 0.0
C161 C 0.08423 0.98667 0.7215 0.0
C162 C 0.03698 0.98649 0.73304 0.0
C163 C 0.05358 0.98819 0.72108 0.0
C164 C 0.05183 0.98339 0.74541 0.0
C165 C 0.08241 0.98196 0.74581 0.0
U166 U 0.17371 0.97334 0.71728 0.0
O167 O 0.21623 0.99292 0.72217 0.0
O168 O 0.21066 0.94671 0.72396 0.0
C169 C 0.22746 0.96881 0.72648 0.0
C170 C 0.13082 0.98096 0.73457 0.0
C171 C 0.24007 0.96963 0.74015 0.0
C172 C 0.23494 0.97854 0.7642 0.0
C173 C 0.22301 0.97827 0.75119 0.0
C174 C 0.28111 0.9614 0.75528 0.0
C175 C 0.26414 0.97005 0.76643 0.0
C176 C 0.26916 0.96121 0.74227 0.0
C177 C 0.17679 0.96438 0.67854 0.0
C178 C 0.21778 0.94563 0.66564 0.0
C179 C 0.17459 0.963 0.65406 0.0
C180 C 0.1619 0.96993 0.66646 0.0
C181 C 0.20248 0.95029 0.65348 0.0
C182 C 0.20504 0.95263 0.67807 0.0
C183 C 0.16161 0.96942 0.69142 0.0
O184 O 0.14126 0.95578 0.73142 0.0
O185 O 0.14584 1.00203 0.72924 0.0
O186 O 0.16714 0.99373 0.69747 0.0
O187 O 0.16071 0.94768 0.69976 0.0
H188 H 0.09657 0.9878 0.71218 0.0
H189 H 0.04291 0.99084 0.7114 0.0
H190 H 0.03982 0.98147 0.75479 0.0
H191 H 0.09329 0.9793 0.75545 0.0
H192 H 0.22133 0.98569 0.77249 0.0
H193 H 0.20045 0.98479 0.74974 0.0
H194 H 0.3035 0.95431 0.75663 0.0
H195 H 0.28258 0.95429 0.73387 0.0
H196 H 0.23944 0.9362 0.66556 0.0
H197 H 0.16199 0.96654 0.64495 0.0
H198 H 0.14003 0.97892 0.66664 0.0
H199 H 0.21692 0.94829 0.68731 0.0
C200 C 0.28502 0.8467 0.98751 0.0
C201 C 0.28156 0.8325 0.97515 0.0
C202 C 0.28237 0.78667 0.98672 0.0
C203 C 0.28017 0.80274 0.97477 0.0
C204 C 0.28571 0.80116 0.99907 0.0
C205 C 0.28699 0.83087 0.99944 0.0
U206 U 0.29705 0.91826 0.97027 0.0
O207 O 0.27694 0.96005 0.97407 0.0
O208 O 0.32437 0.95453 0.97657 0.0
C209 C 0.30167 0.97135 0.9783 0.0
C210 C 0.28769 0.87786 0.98806 0.0
C211 C 0.30034 0.98585 0.99146 0.0
C212 C 0.29059 0.98517 1.01558 0.0
C213 C 0.2912 0.97129 1.00308 0.0
C214 C 0.30828 0.02832 1.00496 0.0
C215 C 0.29923 1.01387 1.0167 0.0
C216 C 0.30882 1.01442 0.99248 0.0
C217 C 0.30925 0.91778 0.93167 0.0
C218 C 0.33048 0.95602 0.91835 0.0
C219 C 0.31274 0.91338 0.9073 0.0
C220 C 0.30426 0.90234 0.9198 0.0
C221 C 0.32646 0.94014 0.90643 0.0
C222 C 0.32193 0.94493 0.93087 0.0
C223 C 0.30286 0.90425 0.94474 0.0
O224 O 0.31389 0.88785 0.98525 0.0
O225 O 0.26647 0.89231 0.98226 0.0
O226 O 0.27745 0.91038 0.95027 0.0
O227 O 0.3246 0.9039 0.95344 0.0
H228 H 0.28013 0.84441 0.96582 0.0
H229 H 0.27726 0.79236 0.96511 0.0
H230 H 0.288 0.78954 1.00845 0.0
H231 H 0.28992 0.8415 1.00905 0.0
H232 H 0.28314 0.97346 0.02434 0.0
H233 H 0.2846 0.94917 1.00248 0.0
H234 H 0.3155 0.05025 1.00545 0.0
H235 H 0.31609 0.02595 0.98362 0.0
H236 H 0.34063 0.97685 0.91802 0.0
H237 H 0.30964 0.90038 0.89839 0.0
H238 H 0.29458 0.88129 0.92024 0.0
H239 H 0.32586 0.95722 0.93995 0.0
C240 C 0.44216 0.05892 0.23389 0.0
C241 C 0.45668 0.05578 0.2215 0.0
C242 C 0.50393 0.05595 0.23304 0.0
C243 C 0.48733 0.05426 0.22108 0.0
C244 C 0.48909 0.05903 0.24541 0.0
C245 C 0.45852 0.06046 0.24582 0.0
U246 U 0.3672 0.0691 0.21728 0.0
O247 O 0.32468 0.04952 0.22217 0.0
O248 O 0.33025 0.09572 0.22396 0.0
C249 C 0.31345 0.07363 0.22648 0.0
C250 C 0.4101 0.06148 0.23457 0.0
C251 C 0.30084 0.07281 0.24015 0.0
C252 C 0.30599 0.0639 0.26421 0.0
C253 C 0.31791 0.06417 0.2512 0.0
C254 C 0.25981 0.08105 0.25528 0.0
C255 C 0.27678 0.0724 0.26644 0.0
C256 C 0.27176 0.08124 0.24227 0.0
C257 C 0.3641 0.07805 0.17854 0.0
C258 C 0.32311 0.0968 0.16564 0.0
C259 C 0.3663 0.07943 0.15406 0.0
C260 C 0.37899 0.07249 0.16647 0.0
C261 C 0.3384 0.09214 0.15348 0.0
C262 C 0.33585 0.0898 0.17807 0.0
C263 C 0.37928 0.07301 0.19142 0.0
O264 O 0.39965 0.08665 0.23142 0.0
O265 O 0.39508 0.04041 0.22925 0.0
O266 O 0.37375 0.0487 0.19748 0.0
O267 O 0.38019 0.09475 0.19976 0.0
H268 H 0.44433 0.05466 0.21218 0.0
H269 H 0.49799 0.05162 0.2114 0.0
H270 H 0.50111 0.06095 0.25479 0.0
H271 H 0.44764 0.06311 0.25545 0.0
H272 H 0.31959 0.05676 0.27249 0.0
H273 H 0.34047 0.05765 0.24975 0.0
H274 H 0.23742 0.08813 0.25663 0.0
H275 H 0.25833 0.08816 0.23387 0.0
H276 H 0.30145 0.10622 0.16556 0.0
H277 H 0.37889 0.07588 0.14495 0.0
H278 H 0.40086 0.06351 0.16665 0.0
H279 H 0.32397 0.09414 0.18731 0.0
C280 C 0.25588 0.19577 0.48751 0.0
C281 C 0.25934 0.20998 0.47516 0.0
C282 C 0.25853 0.2558 0.48673 0.0
C283 C 0.26073 0.23973 0.47477 0.0
C284 C 0.25518 0.2413 0.49907 0.0
C285 C 0.25391 0.21159 0.49945 0.0
U286 U 0.24388 0.12421 0.47028 0.0
O287 O 0.264 0.08242 0.47408 0.0
O288 O 0.21656 0.08794 0.47657 0.0
C289 C 0.23926 0.07112 0.4783 0.0
C290 C 0.25322 0.16461 0.48807 0.0
C291 C 0.24059 0.05662 0.49146 0.0
C292 C 0.25027 0.05731 0.51559 0.0
C293 C 0.24966 0.07119 0.50309 0.0
C294 C 0.23271 1.01412 0.50496 0.0
C295 C 0.2417 0.02859 0.51671 0.0
C296 C 0.23218 0.02803 0.49247 0.0
C297 C 0.23169 0.1247 0.43167 0.0
C298 C 0.21049 0.08645 0.41835 0.0
C299 C 0.22819 0.12911 0.4073 0.0
C300 C 0.23667 0.14015 0.4198 0.0
C301 C 0.21449 0.10234 0.40643 0.0
C302 C 0.21903 0.09754 0.43088 0.0
C303 C 0.23808 0.13823 0.44474 0.0
O304 O 0.22703 0.15462 0.48525 0.0
O305 O 0.27445 0.15017 0.48227 0.0
O306 O 0.26349 0.1321 0.45028 0.0
O307 O 0.21633 0.13858 0.45344 0.0
H308 H 0.26078 0.19807 0.46582 0.0
H309 H 0.26364 0.25012 0.46511 0.0
H310 H 0.25289 0.25291 0.50845 0.0
H311 H 0.25098 0.20096 0.50905 0.0
H312 H 0.25767 0.06903 0.52436 0.0
H313 H 0.25622 0.09333 0.5025 0.0
H314 H 0.22554 0.99218 0.50545 0.0
H315 H 0.22495 1.01649 0.48361 0.0
H316 H 0.20036 0.06562 0.41803 0.0
H317 H 0.23128 0.14211 0.39839 0.0
H318 H 0.24633 0.16121 0.42024 0.0
H319 H 0.21512 0.08525 0.43995 0.0
C320 C 0.94245 0.9857 0.7331 0.0
C321 C 0.95801 0.97224 0.72268 0.0
C322 C 1.00434 0.98724 0.73269 0.0
C323 C 0.98868 0.97294 0.72249 0.0
C324 C 0.9885 1.00143 0.74286 0.0
C325 C 0.95788 1.00059 0.74307 0.0
U326 U 0.86688 0.9756 0.71707 0.0
O327 O 0.82978 0.94949 0.72403 0.0
O328 O 0.82466 0.99569 0.722 0.0
C329 C 0.81322 0.97177 0.72646 0.0
C330 C 0.91032 0.98359 0.73402 0.0
C331 C 0.80067 0.97297 0.74013 0.0
C332 C 0.80595 0.98216 0.76416 0.0
C333 C 0.81781 0.98172 0.75114 0.0
C334 C 0.75968 0.96501 0.75533 0.0
C335 C 0.77673 0.97372 0.76644 0.0
C336 C 0.77156 0.96465 0.74231 0.0
C337 C 0.86324 0.96545 0.67837 0.0
C338 C 0.82224 0.94629 0.6656 0.0
C339 C 0.86516 0.96398 0.65389 0.0
C340 C 0.87794 0.97108 0.66626 0.0
C341 C 0.83736 0.95103 0.6534 0.0
C342 C 0.83508 0.95345 0.67799 0.0
C343 C 0.87854 0.97074 0.6912 0.0
O344 O 0.89546 1.00463 0.7286 0.0
O345 O 0.89921 0.95842 0.7313 0.0
O346 O 0.87934 0.94926 0.69969 0.0
O347 O 0.87328 0.99527 0.69708 0.0
H348 H 0.94646 0.9607 0.71484 0.0
H349 H 1.0001 0.96156 0.71458 0.0
H350 H 0.99978 1.01311 0.75072 0.0
H351 H 0.94622 1.01126 0.75114 0.0
H352 H 0.81962 0.98935 0.77242 0.0
H353 H 0.8404 0.98816 0.74965 0.0
H354 H 0.73727 0.95795 0.75671 0.0
H355 H 0.75808 0.95763 0.73394 0.0
H356 H 0.80066 0.93668 0.66558 0.0
H357 H 0.87762 0.9676 0.64475 0.0
H358 H 0.89974 0.98026 0.66637 0.0
H359 H 0.82334 0.94906 0.68726 0.0
C360 C 0.78351 0.19626 0.48701 0.0
C361 C 0.79646 0.21128 0.47631 0.0
C362 C 0.78206 0.25636 0.48654 0.0
C363 C 0.79583 0.24105 0.4761 0.0
C364 C 0.76845 0.24107 0.49704 0.0
C365 C 0.76924 0.21132 0.49728 0.0
U366 U 0.79476 0.12421 0.4702 0.0
O367 O 0.8213 0.0876 0.4767 0.0
O368 O 0.77384 0.08276 0.474 0.0
C369 C 0.7983 0.07111 0.47833 0.0
C370 C 0.78541 0.16503 0.48776 0.0
C371 C 0.79654 0.05658 0.49147 0.0
C372 C 0.7865 0.05724 0.51557 0.0
C373 C 0.78729 0.07114 0.50307 0.0
C374 C 0.80415 1.01407 0.50499 0.0
C375 C 0.79505 0.02853 0.51671 0.0
C376 C 0.80487 0.02798 0.49251 0.0
C377 C 0.80809 0.12435 0.43167 0.0
C378 C 0.8291 0.08587 0.41845 0.0
C379 C 0.81192 0.1286 0.4073 0.0
C380 C 0.80341 0.13977 0.41977 0.0
C381 C 0.82538 0.10173 0.40649 0.0
C382 C 0.82051 0.09709 0.43094 0.0
C383 C 0.80157 0.13796 0.44469 0.0
O384 O 0.7641 0.15094 0.48183 0.0
O385 O 0.81147 0.1543 0.48531 0.0
O386 O 0.82306 0.13805 0.45353 0.0
O387 O 0.77591 0.13219 0.45006 0.0
H388 H 0.80752 0.2 0.46825 0.0
H389 H 0.80681 0.25204 0.46794 0.0
H390 H 0.75718 0.25209 0.50512 0.0
H391 H 0.75895 0.20006 0.50556 0.0
H392 H 0.77902 0.06896 0.52432 0.0
H393 H 0.78081 0.09328 0.50246 0.0
H394 H 0.81132 0.99213 0.50549 0.0
H395 H 0.81224 1.01646 0.48367 0.0
H396 H 0.83904 0.06496 0.41817 0.0
H397 H 0.80906 0.14158 0.39837 0.0
H398 H 0.79392 0.16089 0.42015 0.0
H399 H 0.82418 0.08481 0.44003 0.0
C400 C 0.59846 0.05674 0.23309 0.0
C401 C 0.5829 0.07021 0.22267 0.0
C402 C 0.53658 0.0552 0.23269 0.0
C403 C 0.55223 0.06951 0.22249 0.0
C404 C 0.55242 0.041 0.24286 0.0
C405 C 0.58305 0.04184 0.24306 0.0
U406 U 0.67403 0.06684 0.21707 0.0
O407 O 0.71113 0.09296 0.22403 0.0
O408 O 0.71625 0.04675 0.22201 0.0
C409 C 0.72769 0.07067 0.22646 0.0
C410 C 0.6306 0.05886 0.23401 0.0
C411 C 0.74025 0.06948 0.24014 0.0
C412 C 0.73498 0.06029 0.26416 0.0
C413 C 0.72311 0.06073 0.25114 0.0
C414 C 0.78124 0.07745 0.25533 0.0
C415 C 0.76419 0.06873 0.26644 0.0
C416 C 0.76936 0.0778 0.24231 0.0
C417 C 0.67767 0.07699 0.17837 0.0
C418 C 0.71868 0.09613 0.1656 0.0
C419 C 0.67575 0.07846 0.15389 0.0
C420 C 0.66297 0.07137 0.16625 0.0
C421 C 0.70356 0.09139 0.1534 0.0
C422 C 0.70584 0.08897 0.17799 0.0
C423 C 0.66238 0.0717 0.1912 0.0
O424 O 0.64546 0.03781 0.2286 0.0
O425 O 0.6417 0.08402 0.23129 0.0
O426 O 0.66157 0.09318 0.19968 0.0
O427 O 0.66763 0.04716 0.19708 0.0
H428 H 0.59444 0.08175 0.21484 0.0
H429 H 0.5408 0.0809 0.21458 0.0
H430 H 0.54115 0.02931 0.25072 0.0
H431 H 0.59471 0.03116 0.25113 0.0
H432 H 0.7213 0.05311 0.27242 0.0
H433 H 0.70052 0.05429 0.24965 0.0
H434 H 0.80365 0.0845 0.25672 0.0
H435 H 0.78284 0.08482 0.23394 0.0
H436 H 0.74027 0.10573 0.16558 0.0
H437 H 0.66329 0.07485 0.14474 0.0
H438 H 0.64117 0.06219 0.16636 0.0
H439 H 0.71759 0.09335 0.18726 0.0
C440 C 0.7574 0.8462 0.98702 0.0
C441 C 0.74445 0.83119 0.97632 0.0
C442 C 0.75885 0.7861 0.98654 0.0
C443 C 0.74508 0.80142 0.9761 0.0
C444 C 0.77246 0.80138 0.99705 0.0
C445 C 0.77167 0.83113 0.99729 0.0
U446 U 0.74616 0.91826 0.97021 0.0
O447 O 0.71962 0.95486 0.97671 0.0
O448 O 0.76708 0.95971 0.97401 0.0
C449 C 0.74262 0.97136 0.97834 0.0
C450 C 0.7555 0.87743 0.98777 0.0
C451 C 0.74439 0.98589 0.99148 0.0
C452 C 0.75456 0.98526 1.01556 0.0
C453 C 0.75376 0.97136 1.00307 0.0
C454 C 0.73664 0.02836 1.005 0.0
C455 C 0.74588 1.01393 1.01671 0.0
C456 C 0.73592 1.01445 0.99252 0.0
C457 C 0.73283 0.91813 0.93167 0.0
C458 C 0.71182 0.95661 0.91845 0.0
C459 C 0.729 0.91388 0.90731 0.0
C460 C 0.73752 0.90271 0.91977 0.0
C461 C 0.71554 0.94075 0.90649 0.0
C462 C 0.72041 0.94539 0.93094 0.0
C463 C 0.73934 0.90451 0.9447 0.0
O464 O 0.77682 0.89152 0.98184 0.0
O465 O 0.72944 0.88817 0.98531 0.0
O466 O 0.71785 0.90443 0.95353 0.0
O467 O 0.76501 0.91028 0.95007 0.0
H468 H 0.73339 0.84247 0.96826 0.0
H469 H 0.7341 0.79043 0.96794 0.0
H470 H 0.78372 0.79036 1.00512 0.0
H471 H 0.78196 0.84238 1.00557 0.0
H472 H 0.76215 0.97357 0.0243 0.0
H473 H 0.76035 0.94925 1.00245 0.0
H474 H 0.72937 0.05026 1.00551 0.0
H475 H 0.72844 0.02594 0.98369 0.0
H476 H 0.70188 0.97752 0.91817 0.0
H477 H 0.73187 0.90091 0.89837 0.0
H478 H 0.74701 0.88159 0.92016 0.0
H479 H 0.71673 0.95767 0.94003 0.0
C480 C 0.94244 0.05676 0.31369 0.0
C481 C 0.95802 0.07023 0.32411 0.0
C482 C 1.00432 0.05521 0.31409 0.0
C483 C 0.98869 0.06953 0.32429 0.0
C484 C 0.98845 0.041 0.30393 0.0
C485 C 0.95783 0.04185 0.30373 0.0
U486 U 0.86689 0.06685 0.32973 0.0
O487 O 0.82982 0.09297 0.32276 0.0
O488 O 0.82464 0.04677 0.32479 0.0
C489 C 0.81323 0.07068 0.32033 0.0
C490 C 0.91031 0.05887 0.31278 0.0
C491 C 0.80067 0.06949 0.30666 0.0
C492 C 0.80593 0.06029 0.28264 0.0
C493 C 0.8178 0.06073 0.29566 0.0
C494 C 0.75969 0.07745 0.29146 0.0
C495 C 0.77673 0.06873 0.28035 0.0
C496 C 0.77157 0.07781 0.30449 0.0
C497 C 0.86327 0.07701 0.36842 0.0
C498 C 0.82228 0.09613 0.38119 0.0
C499 C 0.86519 0.07849 0.39291 0.0
C500 C 0.87797 0.0714 0.38054 0.0
C501 C 0.83739 0.09141 0.39339 0.0
C502 C 0.83511 0.08897 0.3688 0.0
C503 C 0.87856 0.07172 0.35559 0.0
O504 O 0.89542 0.03782 0.3182 0.0
O505 O 0.89924 0.08403 0.3155 0.0
O506 O 0.87938 0.0932 0.34711 0.0
O507 O 0.87327 0.04718 0.34971 0.0
H508 H 0.94651 0.08178 0.33195 0.0
H509 H 1.00014 0.08092 0.33219 0.0
H510 H 0.99971 0.02931 0.29607 0.0
H511 H 0.94615 0.03116 0.29566 0.0
H512 H 0.81959 0.05311 0.27438 0.0
H513 H 0.84038 0.0543 0.29715 0.0
H514 H 0.73729 0.0845 0.29008 0.0
H515 H 0.7581 0.08483 0.31285 0.0
H516 H 0.80069 0.10572 0.38121 0.0
H517 H 0.87765 0.07489 0.40205 0.0
H518 H 0.89976 0.06224 0.38043 0.0
H519 H 0.82337 0.09334 0.35953 0.0
C520 C 0.75742 0.19632 0.05978 0.0
C521 C 0.74445 0.21132 0.07047 0.0
C522 C 0.75885 0.25642 0.06025 0.0
C523 C 0.74508 0.24109 0.07069 0.0
C524 C 0.77247 0.24116 0.04975 0.0
C525 C 0.77168 0.21141 0.04951 0.0
U526 U 0.74619 0.12425 0.07658 0.0
O527 O 0.71965 0.0876 0.07009 0.0
O528 O 0.76712 0.08283 0.07278 0.0
C529 C 0.74266 0.07115 0.06845 0.0
C530 C 0.75552 0.16509 0.05903 0.0
C531 C 0.74442 0.05662 0.05531 0.0
C532 C 0.75432 0.05734 0.03121 0.0
C533 C 0.75353 0.07124 0.0437 0.0
C534 C 0.73692 1.01407 0.04181 0.0
C535 C 0.74589 0.02858 0.03008 0.0
C536 C 0.73621 0.02797 0.05429 0.0
C537 C 0.73287 0.12435 0.11512 0.0
C538 C 0.71185 0.08586 0.12834 0.0
C539 C 0.72905 0.1286 0.13949 0.0
C540 C 0.73757 0.13978 0.12702 0.0
C541 C 0.71558 0.10172 0.14029 0.0
C542 C 0.72044 0.09708 0.11585 0.0
C543 C 0.73938 0.13798 0.1021 0.0
O544 O 0.77684 0.15103 0.06495 0.0
O545 O 0.72946 0.15432 0.06148 0.0
O546 O 0.71789 0.13804 0.09326 0.0
O547 O 0.76504 0.13225 0.09672 0.0
H548 H 0.7334 0.20002 0.07853 0.0
H549 H 0.7341 0.25206 0.07885 0.0
H550 H 0.78374 0.2522 0.04168 0.0
H551 H 0.78198 0.20017 0.04122 0.0
H552 H 0.76169 0.06911 1.02244 0.0
H553 H 0.75991 0.09342 0.0443 0.0
H554 H 0.72986 0.99209 0.04132 0.0
H555 H 0.72894 1.01641 0.06314 0.0
H556 H 0.70189 0.06494 0.12862 0.0
H557 H 0.73192 0.14158 0.14842 0.0
H558 H 0.74707 0.16091 0.12663 0.0
H559 H 0.71675 0.08481 0.10676 0.0
C560 C 0.5985 0.98571 0.81368 0.0
C561 C 0.58292 0.97225 0.8241 0.0
C562 C 0.53661 0.98726 0.81408 0.0
C563 C 0.55225 0.97295 0.82428 0.0
C564 C 0.55247 1.00145 0.80391 0.0
C565 C 0.5831 1.0006 0.80371 0.0
U566 U 0.67405 0.97562 0.82972 0.0
O567 O 0.71111 0.9495 0.82276 0.0
O568 O 0.7163 0.99571 0.82478 0.0
C569 C 0.7277 0.97179 0.82033 0.0
C570 C 0.63062 0.9836 0.81276 0.0
C571 C 0.74026 0.97298 0.80666 0.0
C572 C 0.73499 0.98217 0.78263 0.0
C573 C 0.72313 0.98173 0.79565 0.0
C574 C 0.78124 0.96501 0.79146 0.0
C575 C 0.7642 0.97373 0.78035 0.0
C576 C 0.76936 0.96466 0.80449 0.0
C577 C 0.67767 0.96547 0.86841 0.0
C578 C 0.71866 0.94635 0.88119 0.0
C579 C 0.67574 0.96399 0.8929 0.0
C580 C 0.66296 0.97108 0.88053 0.0
C581 C 0.70353 0.95107 0.89339 0.0
C582 C 0.70583 0.95351 0.8688 0.0
C583 C 0.66238 0.97076 0.85558 0.0
O584 O 0.64552 1.00465 0.81818 0.0
O585 O 0.6417 0.95844 0.81549 0.0
O586 O 0.66155 0.94928 0.8471 0.0
O587 O 0.66767 0.9953 0.8497 0.0
H588 H 0.59444 0.96072 0.83194 0.0
H589 H 0.5408 0.96158 0.83219 0.0
H590 H 0.54121 1.01313 0.79605 0.0
H591 H 0.59477 1.01128 0.79564 0.0
H592 H 0.72133 0.98935 0.77437 0.0
H593 H 0.70055 0.98817 0.79714 0.0
H594 H 0.80364 0.95796 0.79008 0.0
H595 H 0.78283 0.95764 0.81285 0.0
H596 H 0.74024 0.93677 0.88121 0.0
H597 H 0.66327 0.96758 0.90204 0.0
H598 H 0.64117 0.98024 0.88042 0.0
H599 H 0.71757 0.94914 0.85953 0.0
C600 C 0.78349 0.84614 0.55977 0.0
C601 C 0.79644 0.83113 0.57047 0.0
C602 C 0.78204 0.78603 0.56024 0.0
C603 C 0.79581 0.80136 0.57068 0.0
C604 C 0.76844 0.80131 0.54973 0.0
C605 C 0.76923 0.83106 0.5495 0.0
U606 U 0.79474 0.9182 0.57658 0.0
O607 O 0.82129 0.95484 0.57009 0.0
O608 O 0.77382 0.95962 0.57278 0.0
C609 C 0.79828 0.9713 0.56845 0.0
C610 C 0.7854 0.87737 0.55902 0.0
C611 C 0.79652 0.98583 0.55531 0.0
C612 C 0.78649 0.98516 0.53122 0.0
C613 C 0.78728 0.97126 0.54371 0.0
C614 C 0.80415 0.02835 0.5418 0.0
C615 C 0.79505 1.01388 0.53008 0.0
C616 C 0.80487 1.01444 0.55428 0.0
C617 C 0.80806 0.91808 0.61512 0.0
C618 C 0.82907 0.95657 0.62834 0.0
C619 C 0.81189 0.91381 0.63948 0.0
C620 C 0.80337 0.90264 0.62702 0.0
C621 C 0.82535 0.9407 0.64029 0.0
C622 C 0.82048 0.94535 0.61585 0.0
C623 C 0.80155 0.90445 0.60209 0.0
O624 O 0.76408 0.89143 0.56495 0.0
O625 O 0.81146 0.88813 0.56148 0.0
O626 O 0.82304 0.90439 0.59326 0.0
O627 O 0.77588 0.91019 0.59672 0.0
H628 H 0.8075 0.84242 0.57853 0.0
H629 H 0.80678 0.79038 0.57885 0.0
H630 H 0.75718 0.79028 0.54166 0.0
H631 H 0.75895 0.8423 0.54121 0.0
H632 H 0.77901 0.97343 0.52246 0.0
H633 H 0.78079 0.94911 0.54432 0.0
H634 H 0.81133 0.05029 0.54129 0.0
H635 H 0.81224 0.02597 0.56312 0.0
H636 H 0.83901 0.97749 0.62862 0.0
H637 H 0.80903 0.90083 0.64842 0.0
H638 H 0.79388 0.88151 0.62663 0.0
H639 H 0.82416 0.95763 0.60676 0.0
C640 C 0.59872 0.54908 0.81325 0.0
C641 C 0.58425 0.54699 0.8257 0.0
C642 C 0.53695 0.54589 0.8142 0.0
C643 C 0.5536 0.54536 0.82617 0.0
C644 C 0.55175 0.54787 0.80177 0.0
C645 C 0.58232 0.54941 0.80131 0.0
U646 U 0.67373 0.56085 0.82961 0.0
O647 O 0.71642 0.54156 0.82481 0.0
O648 O 0.71032 0.58761 0.82262 0.0
C649 C 0.72737 0.56563 0.82028 0.0
C650 C 0.63075 0.55192 0.81249 0.0
C651 C 0.74 0.56445 0.80663 0.0
C652 C 0.73486 0.5552 0.7826 0.0
C653 C 0.72293 0.55565 0.79561 0.0
C654 C 0.78108 0.57239 0.79147 0.0
C655 C 0.76408 0.56365 0.78034 0.0
C656 C 0.76912 0.57278 0.80448 0.0
C657 C 0.67703 0.57181 0.86825 0.0
C658 C 0.71744 0.59248 0.8809 0.0
C659 C 0.67511 0.57383 0.89273 0.0
C660 C 0.66254 0.56605 0.88041 0.0
C661 C 0.7025 0.58761 0.89314 0.0
C662 C 0.70481 0.58463 0.86856 0.0
C663 C 0.66183 0.5659 0.85545 0.0
O664 O 0.641 0.57734 0.81534 0.0
O665 O 0.64601 0.53127 0.81804 0.0
O666 O 0.66762 0.54137 0.84967 0.0
O667 O 0.66055 0.5872 0.84687 0.0
H668 H 0.59663 0.54681 0.83503 0.0
H669 H 0.54298 0.54358 0.83591 0.0
H670 H 0.5397 0.54887 0.79236 0.0
H671 H 0.59316 0.55124 0.79162 0.0
H672 H 0.72124 0.54799 0.77433 0.0
H673 H 0.70034 0.5492 0.79707 0.0
H674 H 0.80348 0.57944 0.79011 0.0
H675 H 0.78256 0.57981 0.81286 0.0
H676 H 0.73871 0.60272 0.88085 0.0
H677 H 0.66279 0.57008 0.9019 0.0
H678 H 0.64103 0.55624 0.88036 0.0
H679 H 0.71639 0.58915 0.85925 0.0
C680 C 0.75525 0.34819 0.05967 0.0
C681 C 0.75938 0.3337 0.0719 0.0
C682 C 0.75821 0.28815 0.06008 0.0
C683 C 0.76093 0.30394 0.0721 0.0
C684 C 0.75416 0.30294 0.04786 0.0
C685 C 0.75273 0.33264 0.04767 0.0
U686 U 0.74325 0.41983 0.07703 0.0
O687 O 0.76338 0.46158 0.07309 0.0
O688 O 0.71594 0.456 0.07063 0.0
C689 C 0.73866 0.47278 0.06881 0.0
C690 C 0.75253 0.37935 0.05927 0.0
C691 C 0.74 0.4869 0.05556 0.0
C692 C 0.74973 0.48548 0.03145 0.0
C693 C 0.74914 0.472 0.04405 0.0
C694 C 0.73203 0.52893 0.04176 0.0
C695 C 0.74108 0.51412 0.03013 0.0
C696 C 0.73151 0.51543 0.05435 0.0
C697 C 0.73113 0.42025 0.11558 0.0
C698 C 0.71105 0.45955 0.12857 0.0
C699 C 0.72692 0.41662 0.13996 0.0
C700 C 0.73524 0.40496 0.12756 0.0
C701 C 0.71423 0.44387 0.14061 0.0
C702 C 0.71945 0.44783 0.11616 0.0
C703 C 0.73748 0.40627 0.10262 0.0
O704 O 0.72634 0.38925 0.06214 0.0
O705 O 0.77377 0.39377 0.06508 0.0
O706 O 0.76289 0.41224 0.09704 0.0
O707 O 0.71572 0.40571 0.09393 0.0
H708 H 0.76124 0.34539 0.08129 0.0
H709 H 0.76438 0.29333 0.08167 0.0
H710 H 0.75144 0.29155 0.03844 0.0
H711 H 0.74929 0.34349 0.03816 0.0
H712 H 0.75718 0.47351 1.02277 0.0
H713 H 0.75574 0.44991 0.0448 0.0
H714 H 0.7248 0.55083 0.04111 0.0
H715 H 0.72422 0.52721 0.06312 0.0
H716 H 0.70171 0.48072 0.12872 0.0
H717 H 0.72934 0.40378 0.14896 0.0
H718 H 0.74415 0.38359 0.1273 0.0
H719 H 0.71621 0.46001 0.10699 0.0
C720 C 0.94209 0.49336 0.31324 0.0
C721 C 0.95657 0.49546 0.32569 0.0
C722 C 1.00386 0.49655 0.31419 0.0
C723 C 0.98721 0.49709 0.32616 0.0
C724 C 0.98905 0.49457 0.30176 0.0
C725 C 0.95848 0.49303 0.3013 0.0
U726 U 0.86708 0.4816 0.3296 0.0
O727 O 0.8244 0.50089 0.3248 0.0
O728 O 0.8305 0.45484 0.32261 0.0
C729 C 0.81344 0.47683 0.32028 0.0
C730 C 0.91005 0.49053 0.31248 0.0
C731 C 0.8008 0.47799 0.30662 0.0
C732 C 0.80594 0.48725 0.28259 0.0
C733 C 0.81787 0.48679 0.2956 0.0
C734 C 0.75973 0.47005 0.29147 0.0
C735 C 0.77672 0.47879 0.28034 0.0
C736 C 0.77169 0.46967 0.30448 0.0
C737 C 0.86381 0.47066 0.36825 0.0
C738 C 0.8234 0.44999 0.3809 0.0
C739 C 0.86573 0.46864 0.39273 0.0
C740 C 0.8783 0.47641 0.3804 0.0
C741 C 0.83835 0.45486 0.39313 0.0
C742 C 0.83602 0.45784 0.36855 0.0
C743 C 0.879 0.47656 0.35544 0.0
O744 O 0.89981 0.46511 0.31533 0.0
O745 O 0.8948 0.51118 0.31803 0.0
O746 O 0.87321 0.50109 0.34966 0.0
O747 O 0.88027 0.45526 0.34687 0.0
H748 H 0.94419 0.49565 0.33502 0.0
H749 H 0.99784 0.49888 0.3359 0.0
H750 H 1.00109 0.49356 0.29236 0.0
H751 H 0.94764 0.49119 0.29161 0.0
H752 H 0.81956 0.49445 0.27432 0.0
H753 H 0.84046 0.49325 0.29707 0.0
H754 H 0.73732 0.463 0.29011 0.0
H755 H 0.75825 0.46264 0.31286 0.0
H756 H 0.80212 0.43976 0.38085 0.0
H757 H 0.87806 0.47239 0.40189 0.0
H758 H 0.89982 0.48621 0.38035 0.0
H759 H 0.82444 0.45333 0.35925 0.0
C760 C 0.78563 0.69427 0.55966 0.0
C761 C 0.78149 0.70875 0.57189 0.0
C762 C 0.78268 0.75431 0.56007 0.0
C763 C 0.77995 0.73851 0.57209 0.0
C764 C 0.78674 0.73953 0.54785 0.0
C765 C 0.78816 0.70982 0.54766 0.0
U766 U 0.7976 0.62262 0.57702 0.0
O767 O 0.77746 0.58088 0.57308 0.0
O768 O 0.8249 0.58645 0.57063 0.0
C769 C 0.80218 0.56967 0.56881 0.0
C770 C 0.78834 0.6631 0.55926 0.0
C771 C 0.80085 0.55555 0.55556 0.0
C772 C 0.79112 0.55698 0.53144 0.0
C773 C 0.79171 0.57046 0.54404 0.0
C774 C 0.80881 0.51352 0.54176 0.0
C775 C 0.79977 0.52833 0.53012 0.0
C776 C 0.80933 0.52703 0.55434 0.0
C777 C 0.80968 0.62219 0.61558 0.0
C778 C 0.82974 0.58288 0.62857 0.0
C779 C 0.8139 0.62582 0.63995 0.0
C780 C 0.80558 0.63748 0.62756 0.0
C781 C 0.82657 0.59856 0.64061 0.0
C782 C 0.82135 0.5946 0.61616 0.0
C783 C 0.80335 0.63617 0.60261 0.0
O784 O 0.81453 0.6532 0.56213 0.0
O785 O 0.76709 0.64869 0.56506 0.0
O786 O 0.77794 0.63021 0.59703 0.0
O787 O 0.82511 0.63673 0.59392 0.0
H788 H 0.77961 0.69706 0.58127 0.0
H789 H 0.77649 0.74912 0.58166 0.0
H790 H 0.78947 0.75092 0.53844 0.0
H791 H 0.79161 0.69898 0.53815 0.0
H792 H 0.78367 0.56895 0.52276 0.0
H793 H 0.78511 0.59255 0.54479 0.0
H794 H 0.81604 0.49162 0.54111 0.0
H795 H 0.81661 0.51524 0.56312 0.0
H796 H 0.83907 0.5617 0.62873 0.0
H797 H 0.81148 0.63867 0.64895 0.0
H798 H 0.79668 0.65886 0.62729 0.0
H799 H 0.82459 0.58242 0.60699 0.0
C800 C 0.59876 0.49335 0.23353 0.0
C801 C 0.58428 0.49545 0.22108 0.0
C802 C 0.53699 0.49654 0.23258 0.0
C803 C 0.55364 0.49708 0.22061 0.0
C804 C 0.55179 0.49457 0.24501 0.0
C805 C 0.58236 0.49302 0.24547 0.0
U806 U 0.67375 0.4816 0.21717 0.0
O807 O 0.71646 0.50089 0.22197 0.0
O808 O 0.7103 0.45484 0.22417 0.0
C809 C 0.72738 0.47682 0.2265 0.0
C810 C 0.63079 0.49052 0.23429 0.0
C811 C 0.74002 0.47799 0.24016 0.0
C812 C 0.7349 0.48724 0.26419 0.0
C813 C 0.72296 0.48679 0.25118 0.0
C814 C 0.78109 0.47005 0.25531 0.0
C815 C 0.76411 0.47879 0.26644 0.0
C816 C 0.76913 0.46967 0.2423 0.0
C817 C 0.67703 0.47065 0.17853 0.0
C818 C 0.71743 0.45001 0.16589 0.0
C819 C 0.67511 0.46861 0.15405 0.0
C820 C 0.66254 0.47639 0.16637 0.0
C821 C 0.70249 0.45486 0.15365 0.0
C822 C 0.70481 0.45785 0.17823 0.0
C823 C 0.66184 0.47655 0.19133 0.0
O824 O 0.641 0.4651 0.23144 0.0
O825 O 0.64607 0.51117 0.22875 0.0
O826 O 0.66766 0.50108 0.19712 0.0
O827 O 0.66054 0.45525 0.19991 0.0
H828 H 0.59666 0.49564 0.21175 0.0
H829 H 0.54301 0.49887 0.21087 0.0
H830 H 0.53975 0.49355 0.25442 0.0
H831 H 0.5932 0.49118 0.25516 0.0
H832 H 0.72129 0.49444 0.27246 0.0
H833 H 0.70038 0.49324 0.24971 0.0
H834 H 0.80349 0.463 0.25668 0.0
H835 H 0.78255 0.46264 0.23392 0.0
H836 H 0.7387 0.43979 0.16594 0.0
H837 H 0.66279 0.47235 0.14488 0.0
H838 H 0.64103 0.48617 0.16642 0.0
H839 H 0.71639 0.45335 0.18753 0.0
C840 C 0.78564 0.34813 0.48713 0.0
C841 C 0.78151 0.33364 0.47489 0.0
C842 C 0.78269 0.28809 0.48671 0.0
C843 C 0.77997 0.30388 0.47469 0.0
C844 C 0.78674 0.30287 0.49893 0.0
C845 C 0.78817 0.33258 0.49912 0.0
U846 U 0.79762 0.4198 0.46977 0.0
O847 O 0.77748 0.46151 0.4737 0.0
O848 O 0.82492 0.456 0.47616 0.0
C849 C 0.8022 0.47275 0.47798 0.0
C850 C 0.78835 0.3793 0.48753 0.0
C851 C 0.80086 0.48687 0.49123 0.0
C852 C 0.79112 0.48543 0.51534 0.0
C853 C 0.79172 0.47195 0.50275 0.0
C854 C 0.80882 0.5289 0.50503 0.0
C855 C 0.79977 0.51408 0.51666 0.0
C856 C 0.80935 0.5154 0.49244 0.0
C857 C 0.80972 0.42024 0.43121 0.0
C858 C 0.8298 0.45955 0.41821 0.0
C859 C 0.81391 0.41661 0.40683 0.0
C860 C 0.80559 0.40494 0.41923 0.0
C861 C 0.82661 0.44387 0.40618 0.0
C862 C 0.82141 0.44783 0.43063 0.0
C863 C 0.80338 0.40624 0.44417 0.0
O864 O 0.81454 0.38923 0.48466 0.0
O865 O 0.7671 0.39369 0.48172 0.0
O866 O 0.77797 0.41217 0.44975 0.0
O867 O 0.82514 0.40572 0.45287 0.0
H868 H 0.77963 0.34534 0.46551 0.0
H869 H 0.77651 0.29327 0.46512 0.0
H870 H 0.78947 0.29149 0.50835 0.0
H871 H 0.79161 0.34343 0.50864 0.0
H872 H 0.78367 0.47345 0.52402 0.0
H873 H 0.78511 0.44985 0.502 0.0
H874 H 0.81605 0.55081 0.50567 0.0
H875 H 0.81663 0.5272 0.48367 0.0
H876 H 0.83916 0.48073 0.41806 0.0
H877 H 0.81148 0.40376 0.39783 0.0
H878 H 0.79668 0.38356 0.4195 0.0
H879 H 0.82466 0.46 0.43979 0.0
C880 C 0.94203 0.54907 0.73355 0.0
C881 C 0.9565 0.54698 0.72109 0.0
C882 C 1.00379 0.54588 0.73259 0.0
C883 C 0.98714 0.54535 0.72062 0.0
C884 C 0.989 0.54786 0.74502 0.0
C885 C 0.95843 0.5494 0.74548 0.0
U886 U 0.86703 0.56083 0.71718 0.0
O887 O 0.82432 0.54154 0.72198 0.0
O888 O 0.83048 0.58759 0.72417 0.0
C889 C 0.8134 0.56561 0.72651 0.0
C890 C 0.91 0.5519 0.7343 0.0
C891 C 0.80077 0.56444 0.74017 0.0
C892 C 0.8059 0.5552 0.7642 0.0
C893 C 0.81783 0.55565 0.75119 0.0
C894 C 0.7597 0.57239 0.75532 0.0
C895 C 0.77669 0.56365 0.76645 0.0
C896 C 0.77166 0.57277 0.74231 0.0
C897 C 0.86375 0.57178 0.67854 0.0
C898 C 0.82336 0.59243 0.66589 0.0
C899 C 0.86567 0.5738 0.65406 0.0
C900 C 0.87823 0.56603 0.66638 0.0
C901 C 0.8383 0.58757 0.65365 0.0
C902 C 0.83598 0.58459 0.67823 0.0
C903 C 0.87894 0.56588 0.69134 0.0
O904 O 0.89979 0.57733 0.73145 0.0
O905 O 0.89471 0.53126 0.72876 0.0
O906 O 0.87312 0.54135 0.69713 0.0
O907 O 0.88024 0.58717 0.69992 0.0
H908 H 0.94411 0.54679 0.71176 0.0
H909 H 0.99776 0.54357 0.71088 0.0
H910 H 1.00105 0.54886 0.75442 0.0
H911 H 0.9476 0.55123 0.75517 0.0
H912 H 0.81951 0.54799 0.77247 0.0
H913 H 0.84041 0.54919 0.74972 0.0
H914 H 0.7373 0.57944 0.75668 0.0
H915 H 0.75823 0.5798 0.73393 0.0
H916 H 0.80209 0.60266 0.66593 0.0
H917 H 0.87799 0.57006 0.64489 0.0
H918 H 0.89974 0.55623 0.66643 0.0
H919 H 0.8244 0.5891 0.68754 0.0
C920 C 0.75524 0.69433 0.98713 0.0
C921 C 0.75938 0.70883 0.97489 0.0
C922 C 0.7582 0.75437 0.98672 0.0
C923 C 0.76093 0.73859 0.97469 0.0
C924 C 0.75415 0.73958 0.99893 0.0
C925 C 0.75272 0.70987 0.99912 0.0
U926 U 0.74325 0.62267 0.96977 0.0
O927 O 0.76338 0.58095 0.9737 0.0
O928 O 0.71594 0.58647 0.97616 0.0
C929 C 0.73866 0.56972 0.97798 0.0
C930 C 0.75252 0.66316 0.98753 0.0
C931 C 0.74 0.5556 0.99123 0.0
C932 C 0.74973 0.55703 1.01534 0.0
C933 C 0.74914 0.57052 1.00275 0.0
C934 C 0.73203 0.51356 1.00503 0.0
C935 C 0.74108 0.52838 1.01667 0.0
C936 C 0.73151 0.52706 0.99245 0.0
C937 C 0.73114 0.62224 0.93121 0.0
C938 C 0.71105 0.58292 0.91822 0.0
C939 C 0.72693 0.62587 0.90683 0.0
C940 C 0.73525 0.63754 0.91923 0.0
C941 C 0.71423 0.5986 0.90618 0.0
C942 C 0.71945 0.59465 0.93063 0.0
C943 C 0.73748 0.63623 0.94417 0.0
O944 O 0.72633 0.65324 0.98466 0.0
O945 O 0.77377 0.64877 0.98172 0.0
O946 O 0.76289 0.63029 0.94975 0.0
O947 O 0.71573 0.63676 0.95286 0.0
H948 H 0.76125 0.69714 0.96551 0.0
H949 H 0.76438 0.7492 0.96513 0.0
H950 H 0.75142 0.75096 1.00835 0.0
H951 H 0.74927 0.69902 1.00864 0.0
H952 H 0.75718 0.56901 0.02403 0.0
H953 H 0.75574 0.59261 1.002 0.0
H954 H 0.72481 0.49165 1.00568 0.0
H955 H 0.72423 0.51527 0.98367 0.0
H956 H 0.7017 0.56174 0.91806 0.0
H957 H 0.72935 0.63872 0.89783 0.0
H958 H 0.74417 0.65891 0.91949 0.0
H959 H 0.71621 0.58247 0.9398 0.0
C960 C 0.44245 0.49539 0.23266 0.0
C961 C 0.45807 0.48112 0.2225 0.0
C962 C 0.50434 0.49723 0.23219 0.0
C963 C 0.48874 0.48196 0.22229 0.0
C964 C 0.48844 0.51226 0.24206 0.0
C965 C 0.45781 0.51127 0.2423 0.0
U966 U 0.36676 0.48389 0.21693 0.0
O967 O 0.33002 0.45771 0.22422 0.0
O968 O 0.32439 0.50376 0.2218 0.0
C969 C 0.31322 0.47991 0.22647 0.0
C970 C 0.41034 0.49308 0.23367 0.0
C971 C 0.30064 0.48146 0.24013 0.0
C972 C 0.30589 0.49099 0.26412 0.0
C973 C 0.31777 0.49037 0.2511 0.0
C974 C 0.2596 0.4738 0.25533 0.0
C975 C 0.27667 0.4826 0.26643 0.0
C976 C 0.2715 0.47325 0.24232 0.0
C977 C 0.36285 0.47177 0.17835 0.0
C978 C 0.32244 0.45075 0.16584 0.0
C979 C 0.36446 0.46966 0.15387 0.0
C980 C 0.37713 0.47759 0.16614 0.0
C981 C 0.33719 0.45567 0.15355 0.0
C982 C 0.33517 0.45875 0.17814 0.0
C983 C 0.37818 0.47789 0.19109 0.0
O984 O 0.39521 0.51373 0.22806 0.0
O985 O 0.3994 0.4677 0.23127 0.0
O986 O 0.37935 0.45685 0.19982 0.0
O987 O 0.37268 0.50265 0.19671 0.0
H988 H 0.44659 0.46881 0.21491 0.0
H989 H 0.50021 0.46993 0.21462 0.0
H990 H 0.49967 0.52469 0.24968 0.0
H991 H 0.44611 0.52259 0.25016 0.0
H992 H 0.31957 0.49824 0.27237 0.0
H993 H 0.34038 0.49673 0.2496 0.0
H994 H 0.23719 0.46679 0.25673 0.0
H995 H 0.25802 0.46612 0.23397 0.0
H996 H 0.30125 0.44035 0.16595 0.0
H997 H 0.37663 0.47346 0.14466 0.0
H998 H 0.39856 0.48756 0.16612 0.0
H999 H 0.32374 0.45419 0.18748 0.0
C1000 C 0.28367 0.69484 0.98649 0.0
C1001 C 0.29711 0.7102 0.97603 0.0
C1002 C 0.28191 0.75494 0.98636 0.0
C1003 C 0.29632 0.73997 0.97599 0.0
C1004 C 0.26782 0.73932 0.99661 0.0
C1005 C 0.26877 0.70957 0.99668 0.0
U1006 U 0.29519 0.62266 0.96965 0.0
O1007 O 0.32185 0.58623 0.97627 0.0
O1008 O 0.27439 0.58122 0.9736 0.0
C1009 C 0.29888 0.56973 0.97799 0.0
C1010 C 0.28576 0.66361 0.98713 0.0
C1011 C 0.29715 0.55557 0.99122 0.0
C1012 C 0.28714 0.55698 1.01531 0.0
C1013 C 0.28791 0.57049 1.00272 0.0
C1014 C 0.30482 0.5135 1.00503 0.0
C1015 C 0.29572 0.52832 1.01665 0.0
C1016 C 0.30552 0.52702 0.99245 0.0
C1017 C 0.3084 0.62182 0.93115 0.0
C1018 C 0.32827 0.58228 0.91827 0.0
C1019 C 0.31298 0.62528 0.90679 0.0
C1020 C 0.3046 0.63709 0.91914 0.0
C1021 C 0.3254 0.59792 0.90621 0.0
C1022 C 0.31983 0.59413 0.93065 0.0
C1023 C 0.3019 0.63591 0.94407 0.0
O1024 O 0.26448 0.64945 0.98122 0.0
O1025 O 0.31186 0.65301 0.98464 0.0
O1026 O 0.32341 0.63627 0.95289 0.0
O1027 O 0.27626 0.63026 0.9495 0.0
H1028 H 0.30866 0.69919 0.96804 0.0
H1029 H 0.30767 0.75123 0.96801 0.0
H1030 H 0.25607 0.75007 1.00461 0.0
H1031 H 0.25811 0.69805 1.00478 0.0
H1032 H 0.27966 0.56897 0.02398 0.0
H1033 H 0.2814 0.5926 1.00196 0.0
H1034 H 0.31201 0.49159 1.00569 0.0
H1035 H 0.31289 0.51523 0.98369 0.0
H1036 H 0.33742 0.56102 0.91817 0.0
H1037 H 0.31079 0.6381 0.89776 0.0
H1038 H 0.29588 0.65853 0.91936 0.0
H1039 H 0.32281 0.58198 0.93984 0.0
C1040 C 0.09834 0.54704 0.73266 0.0
C1041 C 0.08271 0.56132 0.7225 0.0
C1042 C 0.03645 0.54519 0.7322 0.0
C1043 C 0.05204 0.56047 0.72229 0.0
C1044 C 0.05236 0.53016 0.74207 0.0
C1045 C 0.08298 0.53116 0.7423 0.0
U1046 U 0.17402 0.55854 0.71693 0.0
O1047 O 0.21076 0.58473 0.72422 0.0
O1048 O 0.21639 0.53867 0.7218 0.0
C1049 C 0.22756 0.56252 0.72647 0.0
C1050 C 0.13045 0.54936 0.73367 0.0
C1051 C 0.24015 0.56097 0.74013 0.0
C1052 C 0.2349 0.55145 0.76412 0.0
C1053 C 0.22302 0.55207 0.7511 0.0
C1054 C 0.28119 0.56863 0.75533 0.0
C1055 C 0.26413 0.55984 0.76643 0.0
C1056 C 0.26929 0.56919 0.74232 0.0
C1057 C 0.17792 0.57066 0.67835 0.0
C1058 C 0.21834 0.59166 0.66584 0.0
C1059 C 0.17631 0.57279 0.65387 0.0
C1060 C 0.16363 0.56486 0.66614 0.0
C1061 C 0.20359 0.58675 0.65356 0.0
C1062 C 0.20561 0.58366 0.67814 0.0
C1063 C 0.16259 0.56454 0.69109 0.0
O1064 O 0.14557 0.5287 0.72807 0.0
O1065 O 0.14138 0.57473 0.73126 0.0
O1066 O 0.16142 0.58558 0.69981 0.0
O1067 O 0.16809 0.53978 0.69671 0.0
H1068 H 0.09418 0.57362 0.71491 0.0
H1069 H 0.04056 0.57251 0.71462 0.0
H1070 H 0.04113 0.51773 0.74968 0.0
H1071 H 0.09469 0.51984 0.75016 0.0
H1072 H 0.22122 0.54421 0.77237 0.0
H1073 H 0.20041 0.54571 0.7496 0.0
H1074 H 0.3036 0.57565 0.75673 0.0
H1075 H 0.28277 0.57631 0.73397 0.0
H1076 H 0.23954 0.60204 0.66595 0.0
H1077 H 0.16413 0.569 0.64466 0.0
H1078 H 0.14219 0.5549 0.66612 0.0
H1079 H 0.21705 0.5882 0.68748 0.0
C1080 C 0.25721 0.34763 0.4865 0.0
C1081 C 0.24377 0.33227 0.47604 0.0
C1082 C 0.25897 0.28753 0.48636 0.0
C1083 C 0.24457 0.3025 0.47599 0.0
C1084 C 0.27306 0.30315 0.49662 0.0
C1085 C 0.27211 0.3329 0.49669 0.0
U1086 U 0.24566 0.41981 0.46966 0.0
O1087 O 0.219 0.45624 0.47627 0.0
O1088 O 0.26645 0.46126 0.47361 0.0
C1089 C 0.24196 0.47274 0.47799 0.0
C1090 C 0.25511 0.37886 0.48714 0.0
C1091 C 0.24369 0.48689 0.49123 0.0
C1092 C 0.2537 0.48547 0.51532 0.0
C1093 C 0.25293 0.47197 0.50273 0.0
C1094 C 0.23601 0.52896 0.50504 0.0
C1095 C 0.24512 0.51413 0.51665 0.0
C1096 C 0.23532 0.51545 0.49246 0.0
C1097 C 0.23245 0.42066 0.43116 0.0
C1098 C 0.21256 0.4602 0.41827 0.0
C1099 C 0.22788 0.4172 0.40679 0.0
C1100 C 0.23626 0.4054 0.41915 0.0
C1101 C 0.21544 0.44456 0.40621 0.0
C1102 C 0.22101 0.44834 0.43065 0.0
C1103 C 0.23895 0.40657 0.44407 0.0
O1104 O 0.27638 0.39303 0.48123 0.0
O1105 O 0.229 0.38946 0.48465 0.0
O1106 O 0.21744 0.40621 0.4529 0.0
O1107 O 0.26459 0.41223 0.4495 0.0
H1108 H 0.23221 0.34328 0.46804 0.0
H1109 H 0.23322 0.29124 0.46802 0.0
H1110 H 0.28481 0.2924 0.50463 0.0
H1111 H 0.28276 0.34441 0.50479 0.0
H1112 H 0.26118 0.47349 0.52399 0.0
H1113 H 0.25944 0.44986 0.50197 0.0
H1114 H 0.22882 0.55087 0.50569 0.0
H1115 H 0.22795 0.52724 0.48369 0.0
H1116 H 0.20341 0.48145 0.41817 0.0
H1117 H 0.23006 0.40439 0.39777 0.0
H1118 H 0.24499 0.38396 0.41936 0.0
H1119 H 0.21802 0.46049 0.43984 0.0
C1120 C 0.44241 0.54704 0.81412 0.0
C1121 C 0.45805 0.56133 0.82428 0.0
C1122 C 0.5043 0.5452 0.81459 0.0
C1123 C 0.48872 0.56048 0.82449 0.0
C1124 C 0.48837 0.53017 0.80472 0.0
C1125 C 0.45775 0.53116 0.80448 0.0
U1126 U 0.36674 0.55855 0.82985 0.0
O1127 O 0.33004 0.58473 0.82255 0.0
O1128 O 0.32434 0.53867 0.82498 0.0
C1129 C 0.3132 0.56253 0.82031 0.0
C1130 C 0.4103 0.54936 0.81311 0.0
C1131 C 0.30061 0.56098 0.80665 0.0
C1132 C 0.30585 0.55145 0.78265 0.0
C1133 C 0.31773 0.55207 0.79567 0.0
C1134 C 0.25958 0.56864 0.79144 0.0
C1135 C 0.27663 0.55984 0.78034 0.0
C1136 C 0.27149 0.56919 0.80446 0.0
C1137 C 0.36285 0.57067 0.86842 0.0
C1138 C 0.32245 0.59167 0.88093 0.0
C1139 C 0.36446 0.5728 0.89291 0.0
C1140 C 0.37713 0.56487 0.88063 0.0
C1141 C 0.3372 0.58676 0.89322 0.0
C1142 C 0.33517 0.58367 0.86863 0.0
C1143 C 0.37817 0.56455 0.85568 0.0
O1144 O 0.39515 0.52871 0.81871 0.0
O1145 O 0.3994 0.57474 0.81551 0.0
O1146 O 0.37937 0.58559 0.84696 0.0
O1147 O 0.37264 0.53978 0.85006 0.0
H1148 H 0.44659 0.57363 0.83187 0.0
H1149 H 0.50021 0.57252 0.83216 0.0
H1150 H 0.49958 0.51774 0.7971 0.0
H1151 H 0.44603 0.51984 0.79662 0.0
H1152 H 0.31952 0.54421 0.77441 0.0
H1153 H 0.34033 0.54571 0.79717 0.0
H1154 H 0.23718 0.57565 0.79004 0.0
H1155 H 0.25802 0.57631 0.8128 0.0
H1156 H 0.30127 0.60205 0.88081 0.0
H1157 H 0.37663 0.56901 0.90211 0.0
H1158 H 0.39856 0.55491 0.88066 0.0
H1159 H 0.32375 0.58821 0.85929 0.0
C1160 C 0.25719 0.69488 0.56028 0.0
C1161 C 0.24375 0.71022 0.57073 0.0
C1162 C 0.25896 0.75498 0.56041 0.0
C1163 C 0.24455 0.73999 0.57078 0.0
C1164 C 0.27305 0.73938 0.55016 0.0
C1165 C 0.2721 0.70963 0.55009 0.0
U1166 U 0.24564 0.62268 0.57712 0.0
O1167 O 0.21898 0.58622 0.5705 0.0
O1168 O 0.26644 0.58126 0.57317 0.0
C1169 C 0.24194 0.56975 0.56878 0.0
C1170 C 0.25509 0.66364 0.55964 0.0
C1171 C 0.24368 0.5556 0.55555 0.0
C1172 C 0.25369 0.55703 0.53146 0.0
C1173 C 0.25292 0.57053 0.54405 0.0
C1174 C 0.23601 0.51352 0.54174 0.0
C1175 C 0.24511 0.52836 0.53012 0.0
C1176 C 0.23531 0.52703 0.55432 0.0
C1177 C 0.23242 0.62182 0.61561 0.0
C1178 C 0.2125 0.58227 0.6285 0.0
C1179 C 0.22786 0.62528 0.63998 0.0
C1180 C 0.23624 0.63709 0.62762 0.0
C1181 C 0.2154 0.59791 0.64056 0.0
C1182 C 0.22095 0.59413 0.61612 0.0
C1183 C 0.23892 0.63592 0.6027 0.0
O1184 O 0.27637 0.6495 0.56555 0.0
O1185 O 0.22899 0.65302 0.56212 0.0
O1186 O 0.21742 0.63625 0.59387 0.0
O1187 O 0.26457 0.63029 0.59727 0.0
H1188 H 0.23219 0.6992 0.57873 0.0
H1189 H 0.23319 0.75124 0.57875 0.0
H1190 H 0.28481 0.75014 0.54216 0.0
H1191 H 0.28277 0.69813 0.54199 0.0
H1192 H 0.26118 0.56903 0.52279 0.0
H1193 H 0.25943 0.59265 0.54481 0.0
H1194 H 0.22882 0.4916 0.54108 0.0
H1195 H 0.22794 0.51523 0.56308 0.0
H1196 H 0.20333 0.56101 0.6286 0.0
H1197 H 0.23006 0.63809 0.64901 0.0
H1198 H 0.24499 0.65853 0.62741 0.0
H1199 H 0.21795 0.58198 0.60693 0.0
C1200 C 0.0984 0.4954 0.31411 0.0
C1201 C 0.08276 0.48113 0.32427 0.0
C1202 C 0.03651 0.49724 0.31458 0.0
C1203 C 0.05209 0.48197 0.32448 0.0
C1204 C 0.05243 0.51227 0.30471 0.0
C1205 C 0.08306 0.51128 0.30447 0.0
U1206 U 0.17407 0.48391 0.32984 0.0
O1207 O 0.21077 0.45772 0.32255 0.0
O1208 O 0.21647 0.50378 0.32497 0.0
C1209 C 0.22761 0.47992 0.3203 0.0
C1210 C 0.13051 0.49309 0.3131 0.0
C1211 C 0.24019 0.48147 0.30664 0.0
C1212 C 0.23495 0.49099 0.28265 0.0
C1213 C 0.22307 0.49037 0.29567 0.0
C1214 C 0.28122 0.47381 0.29144 0.0
C1215 C 0.26416 0.4826 0.28034 0.0
C1216 C 0.26932 0.47326 0.30445 0.0
C1217 C 0.17798 0.4718 0.36842 0.0
C1218 C 0.21838 0.45081 0.38093 0.0
C1219 C 0.17637 0.46967 0.3929 0.0
C1220 C 0.16369 0.47759 0.38063 0.0
C1221 C 0.20364 0.45571 0.39322 0.0
C1222 C 0.20566 0.45881 0.36863 0.0
C1223 C 0.16265 0.47792 0.35568 0.0
O1224 O 0.14566 0.51374 0.3187 0.0
O1225 O 0.14141 0.46771 0.31551 0.0
O1226 O 0.16145 0.45687 0.34696 0.0
O1227 O 0.16818 0.50267 0.35005 0.0
H1228 H 0.09422 0.46883 0.33186 0.0
H1229 H 0.04061 0.46994 0.33216 0.0
H1230 H 0.04122 0.5247 0.29709 0.0
H1231 H 0.09477 0.52259 0.29661 0.0
H1232 H 0.22128 0.49823 0.2744 0.0
H1233 H 0.20047 0.49674 0.29717 0.0
H1234 H 0.30362 0.4668 0.29004 0.0
H1235 H 0.28279 0.46614 0.3128 0.0
H1236 H 0.23957 0.44044 0.38082 0.0
H1237 H 0.16419 0.47345 0.40211 0.0
H1238 H 0.14226 0.48754 0.38065 0.0
H1239 H 0.21708 0.45427 0.35929 0.0
C1240 C 0.28366 0.34756 0.06027 0.0
C1241 C 0.29709 0.33221 0.07073 0.0
C1242 C 0.2819 0.28745 0.0604 0.0
C1243 C 0.2963 0.30244 0.07077 0.0
C1244 C 0.26781 0.30306 0.05015 0.0
C1245 C 0.26876 0.33281 0.05008 0.0
U1246 U 0.29518 0.41975 0.07711 0.0
O1247 O 0.32184 0.45622 0.0705 0.0
O1248 O 0.27438 0.46117 0.07316 0.0
C1249 C 0.29887 0.47269 0.06877 0.0
C1250 C 0.28575 0.3788 0.05963 0.0
C1251 C 0.29714 0.48684 0.05554 0.0
C1252 C 0.28714 0.48542 0.03145 0.0
C1253 C 0.2879 0.47192 0.04404 0.0
C1254 C 0.30482 0.52892 0.04173 0.0
C1255 C 0.29572 0.51409 0.03011 0.0
C1256 C 0.30551 0.51541 0.05431 0.0
C1257 C 0.30839 0.4206 0.11561 0.0
C1258 C 0.32827 0.46016 0.1285 0.0
C1259 C 0.31295 0.41713 0.13998 0.0
C1260 C 0.30458 0.40532 0.12762 0.0
C1261 C 0.32539 0.44451 0.14056 0.0
C1262 C 0.31983 0.44829 0.11612 0.0
C1263 C 0.30189 0.40651 0.10269 0.0
O1264 O 0.26447 0.39293 0.06554 0.0
O1265 O 0.31185 0.38943 0.06212 0.0
O1266 O 0.3234 0.40618 0.09387 0.0
O1267 O 0.27625 0.41213 0.09726 0.0
H1268 H 0.30865 0.34324 0.07873 0.0
H1269 H 0.30765 0.29119 0.07875 0.0
H1270 H 0.25606 0.2923 0.04214 0.0
H1271 H 0.2581 0.34431 0.04197 0.0
H1272 H 0.27965 0.47343 1.02278 0.0
H1273 H 0.2814 0.44979 0.0448 0.0
H1274 H 0.31201 0.55084 0.04108 0.0
H1275 H 0.31289 0.5272 0.06307 0.0
H1276 H 0.33742 0.48142 0.1286 0.0
H1277 H 0.31077 0.40431 0.149 0.0
H1278 H 0.29585 0.38388 0.1274 0.0
H1279 H 0.32282 0.46046 0.10693 0.0
loop_
_geom_bond_atom_site_label_1
_geom_bond_atom_site_label_2
_geom_bond_distance
_geom_bond_site_symmetry_2
_ccdc_geom_bond_type
C0 C1 1.264 . S
C0 C5 1.479 . S
C0 C10 1.465 . S
C1 C0 1.264 . S
C1 C3 1.339 . S
C1 H28 0.931 . S
C2 C3 1.395 . S
C2 C4 1.320 . S
C3 C1 1.339 . S
C3 C2 1.395 . S
C3 H29 0.929 . S
C4 C2 1.320 . S
C4 C5 1.405 . S
C4 H30 0.930 . S
C5 C0 1.479 . S
C5 C4 1.405 . S
C5 H31 0.931 . S
U6 O7 2.454 . S
U6 O8 2.458 . S
U6 C9 2.984 . S
U6 C10 2.847 . S
U6 C23 2.882 . S
U6 O24 2.441 . S
U6 O25 2.420 . S
U6 O26 2.455 . S
U6 O27 2.449 . S
O7 U6 2.454 . S
O7 C9 1.353 . S
O8 U6 2.458 . S
O8 C9 1.286 . S
C9 U6 2.984 . S
C9 O7 1.353 . S
C9 O8 1.286 . S
C9 C11 1.363 . S
C10 C0 1.465 . S
C10 U6 2.847 . S
C10 O24 1.249 . S
C10 O25 1.202 . S
C11 C9 1.363 . S
C11 C13 1.408 . S
C11 C16 1.342 . S
C12 C13 1.310 . S
C12 C15 1.461 . S
C12 H32 0.932 . S
C13 C11 1.408 . S
C13 C12 1.310 . S
C13 H33 0.930 . S
C14 C15 1.474 . S
C14 C16 1.285 . S
C14 H34 0.929 . S
C15 C12 1.461 . S
C15 C14 1.474 . S
C16 C11 1.342 . S
C16 C14 1.285 . S
C16 H35 0.930 . S
C17 C20 1.424 . S
C17 C22 1.245 . S
C17 C23 1.428 1_545 S
C18 C21 1.260 . S
C18 C22 1.477 . S
C18 H36 0.932 . S
C19 C20 1.384 . S
C19 C21 1.479 . S
C19 H37 0.929 . S
C20 C17 1.424 . S
C20 C19 1.384 . S
C20 H38 0.928 . S
C21 C18 1.260 . S
C21 C19 1.479 . S
C22 C17 1.245 . S
C22 C18 1.477 . S
C22 H39 0.932 . S
C23 U6 2.882 . S
C23 C17 1.428 1_565 S
C23 O26 1.301 . S
C23 O27 1.282 . S
O24 U6 2.441 . S
O24 C10 1.249 . S
O25 U6 2.420 . S
O25 C10 1.202 . S
O26 U6 2.455 . S
O26 C23 1.301 . S
O27 U6 2.449 . S
O27 C23 1.282 . S
H28 C1 0.931 . S
H29 C3 0.929 . S
H30 C4 0.930 . S
H31 C5 0.931 . S
H32 C12 0.932 . S
H33 C13 0.930 . S
H34 C14 0.929 . S
H35 C16 0.930 . S
H36 C18 0.932 . S
H37 C19 0.929 . S
H38 C20 0.928 . S
H39 C22 0.932 . S
C40 C41 1.264 . S
C40 C45 1.479 . S
C40 C50 1.465 . S
C41 C40 1.264 . S
C41 C43 1.339 . S
C41 H68 0.931 . S
C42 C43 1.395 . S
C42 C44 1.320 . S
C43 C41 1.339 . S
C43 C42 1.395 . S
C43 H69 0.929 . S
C44 C42 1.320 . S
C44 C45 1.405 . S
C44 H70 0.930 . S
C45 C40 1.479 . S
C45 C44 1.405 . S
C45 H71 0.931 . S
U46 O47 2.454 . S
U46 O48 2.458 . S
U46 C49 2.984 . S
U46 C50 2.847 . S
U46 C63 2.882 . S
U46 O64 2.441 . S
U46 O65 2.420 . S
U46 O66 2.455 . S
U46 O67 2.449 . S
O47 U46 2.454 . S
O47 C49 1.353 . S
O48 U46 2.458 . S
O48 C49 1.286 . S
C49 U46 2.984 . S
C49 O47 1.353 . S
C49 O48 1.286 . S
C49 C51 1.363 . S
C50 C40 1.465 . S
C50 U46 2.847 . S
C50 O64 1.249 . S
C50 O65 1.202 . S
C51 C49 1.363 . S
C51 C53 1.408 . S
C51 C56 1.342 . S
C52 C53 1.310 . S
C52 C55 1.461 . S
C52 H72 0.932 . S
C53 C51 1.408 . S
C53 C52 1.310 . S
C53 H73 0.930 . S
C54 C55 1.471 1_545 S
C54 C56 1.279 1_545 S
C54 H74 0.940 . S
C55 C52 1.461 . S
C55 C54 1.471 1_565 S
C56 C51 1.342 . S
C56 C54 1.279 1_565 S
C56 H75 0.930 . S
C57 C60 1.424 . S
C57 C62 1.245 . S
C57 C63 1.428 . S
C58 C61 1.260 . S
C58 C62 1.477 . S
C58 H76 0.932 . S
C59 C60 1.384 . S
C59 C61 1.479 . S
C59 H77 0.929 . S
C60 C57 1.424 . S
C60 C59 1.384 . S
C60 H78 0.928 . S
C61 C58 1.260 . S
C61 C59 1.479 . S
C62 C57 1.245 . S
C62 C58 1.477 . S
C62 H79 0.932 . S
C63 U46 2.882 . S
C63 C57 1.428 . S
C63 O66 1.301 . S
C63 O67 1.282 . S
O64 U46 2.441 . S
O64 C50 1.249 . S
O65 U46 2.420 . S
O65 C50 1.202 . S
O66 U46 2.455 . S
O66 C63 1.301 . S
O67 U46 2.449 . S
O67 C63 1.282 . S
H68 C41 0.931 . S
H69 C43 0.929 . S
H70 C44 0.930 . S
H71 C45 0.931 . S
H72 C52 0.932 . S
H73 C53 0.930 . S
H74 C54 0.940 . S
H75 C56 0.930 . S
H76 C58 0.932 . S
H77 C59 0.929 . S
H78 C60 0.928 . S
H79 C62 0.932 . S
C80 C81 1.264 . S
C80 C85 1.479 . S
C80 C90 1.465 . S
C81 C80 1.264 . S
C81 C83 1.339 . S
C81 H108 0.931 . S
C82 C83 1.395 . S
C82 C84 1.320 . S
C83 C81 1.339 . S
C83 C82 1.395 . S
C83 H109 0.929 . S
C84 C82 1.320 . S
C84 C85 1.405 . S
C84 H110 0.930 . S
C85 C80 1.479 . S
C85 C84 1.405 . S
C85 H111 0.931 . S
U86 O87 2.454 . S
U86 O88 2.458 . S
U86 C89 2.984 . S
U86 C90 2.847 . S
U86 C103 2.882 . S
U86 O104 2.441 . S
U86 O105 2.420 . S
U86 O106 2.455 . S
U86 O107 2.449 . S
O87 U86 2.454 . S
O87 C89 1.353 . S
O88 U86 2.458 . S
O88 C89 1.286 . S
C89 U86 2.984 . S
C89 O87 1.353 . S
C89 O88 1.286 . S
C89 C91 1.363 . S
C90 C80 1.465 . S
C90 U86 2.847 . S
C90 O104 1.249 . S
C90 O105 1.202 . S
C91 C89 1.363 . S
C91 C93 1.408 . S
C91 C96 1.342 . S
C92 C93 1.310 . S
C92 C95 1.461 . S
C92 H112 0.932 . S
C93 C91 1.408 . S
C93 C92 1.310 . S
C93 H113 0.930 . S
C94 C95 1.474 . S
C94 C96 1.285 . S
C94 H114 0.929 . S
C95 C92 1.461 . S
C95 C94 1.474 . S
C96 C91 1.342 . S
C96 C94 1.285 . S
C96 H115 0.930 . S
C97 C100 1.424 . S
C97 C102 1.245 . S
C97 C103 1.428 1_565 S
C98 C101 1.260 . S
C98 C102 1.477 . S
C98 H116 0.932 . S
C99 C100 1.384 . S
C99 C101 1.479 . S
C99 H117 0.929 . S
C100 C97 1.424 . S
C100 C99 1.384 . S
C100 H118 0.928 . S
C101 C98 1.260 . S
C101 C99 1.479 . S
C102 C97 1.245 . S
C102 C98 1.477 . S
C102 H119 0.932 . S
C103 U86 2.882 . S
C103 C97 1.428 1_545 S
C103 O106 1.301 . S
C103 O107 1.282 . S
O104 U86 2.441 . S
O104 C90 1.249 . S
O105 U86 2.420 . S
O105 C90 1.202 . S
O106 U86 2.455 . S
O106 C103 1.301 . S
O107 U86 2.449 . S
O107 C103 1.282 . S
H108 C81 0.931 . S
H109 C83 0.929 . S
H110 C84 0.930 . S
H111 C85 0.931 . S
H112 C92 0.932 . S
H113 C93 0.930 . S
H114 C94 0.929 . S
H115 C96 0.930 . S
H116 C98 0.932 . S
H117 C99 0.929 . S
H118 C100 0.928 . S
H119 C102 0.932 . S
C120 C121 1.264 . S
C120 C125 1.479 . S
C120 C130 1.465 . S
C121 C120 1.264 . S
C121 C123 1.339 . S
C121 H148 0.931 . S
C122 C123 1.395 . S
C122 C124 1.320 . S
C123 C121 1.339 . S
C123 C122 1.395 . S
C123 H149 0.929 . S
C124 C122 1.320 . S
C124 C125 1.405 . S
C124 H150 0.930 . S
C125 C120 1.479 . S
C125 C124 1.405 . S
C125 H151 0.931 . S
U126 O127 2.454 . S
U126 O128 2.458 . S
U126 C129 2.984 . S
U126 C130 2.847 . S
U126 C143 2.882 . S
U126 O144 2.441 . S
U126 O145 2.420 . S
U126 O146 2.455 . S
U126 O147 2.449 . S
O127 U126 2.454 . S
O127 C129 1.353 . S
O128 U126 2.458 . S
O128 C129 1.286 . S
C129 U126 2.984 . S
C129 O127 1.353 . S
C129 O128 1.286 . S
C129 C131 1.363 . S
C130 C120 1.465 . S
C130 U126 2.847 . S
C130 O144 1.249 . S
C130 O145 1.202 . S
C131 C129 1.363 . S
C131 C133 1.408 . S
C131 C136 1.342 . S
C132 C133 1.310 . S
C132 C135 1.461 . S
C132 H152 0.858 1_554 S
C133 C131 1.408 . S
C133 C132 1.310 . S
C133 H153 0.930 . S
C134 C135 1.471 1_565 S
C134 C136 1.279 1_565 S
C134 H154 0.940 . S
C135 C132 1.461 . S
C135 C134 1.471 1_545 S
C136 C131 1.342 . S
C136 C134 1.279 1_545 S
C136 H155 0.930 . S
C137 C140 1.424 . S
C137 C142 1.245 . S
C137 C143 1.428 . S
C138 C141 1.260 . S
C138 C142 1.477 . S
C138 H156 0.932 . S
C139 C140 1.384 . S
C139 C141 1.479 . S
C139 H157 0.929 . S
C140 C137 1.424 . S
C140 C139 1.384 . S
C140 H158 0.928 . S
C141 C138 1.260 . S
C141 C139 1.479 . S
C142 C137 1.245 . S
C142 C138 1.477 . S
C142 H159 0.932 . S
C143 U126 2.882 . S
C143 C137 1.428 . S
C143 O146 1.301 . S
C143 O147 1.282 . S
O144 U126 2.441 . S
O144 C130 1.249 . S
O145 U126 2.420 . S
O145 C130 1.202 . S
O146 U126 2.455 . S
O146 C143 1.301 . S
O147 U126 2.449 . S
O147 C143 1.282 . S
H148 C121 0.931 . S
H149 C123 0.929 . S
H150 C124 0.930 . S
H151 C125 0.931 . S
H152 C132 0.858 1_556 S
H153 C133 0.930 . S
H154 C134 0.940 . S
H155 C136 0.930 . S
H156 C138 0.932 . S
H157 C139 0.929 . S
H158 C140 0.928 . S
H159 C142 0.932 . S
C160 C161 1.264 . S
C160 C165 1.479 . S
C160 C170 1.465 . S
C161 C160 1.264 . S
C161 C163 1.339 . S
C161 H188 0.931 . S
C162 C163 1.395 . S
C162 C164 1.320 . S
C163 C161 1.339 . S
C163 C162 1.395 . S
C163 H189 0.929 . S
C164 C162 1.320 . S
C164 C165 1.405 . S
C164 H190 0.930 . S
C165 C160 1.479 . S
C165 C164 1.405 . S
C165 H191 0.931 . S
U166 O167 2.454 . S
U166 O168 2.458 . S
U166 C169 2.984 . S
U166 C170 2.847 . S
U166 C183 2.882 . S
U166 O184 2.441 . S
U166 O185 2.420 . S
U166 O186 2.455 . S
U166 O187 2.449 . S
O167 U166 2.454 . S
O167 C169 1.353 . S
O168 U166 2.458 . S
O168 C169 1.286 . S
C169 U166 2.984 . S
C169 O167 1.353 . S
C169 O168 1.286 . S
C169 C171 1.363 . S
C170 C160 1.465 . S
C170 U166 2.847 . S
C170 O184 1.249 . S
C170 O185 1.202 . S
C171 C169 1.363 . S
C171 C173 1.408 . S
C171 C176 1.342 . S
C172 C173 1.310 . S
C172 C175 1.461 . S
C172 H192 0.932 . S
C173 C171 1.408 . S
C173 C172 1.310 . S
C173 H193 0.930 . S
C174 C175 1.474 . S
C174 C176 1.285 . S
C174 H194 0.929 . S
C175 C172 1.461 . S
C175 C174 1.474 . S
C176 C171 1.342 . S
C176 C174 1.285 . S
C176 H195 0.930 . S
C177 C180 1.424 . S
C177 C182 1.245 . S
C177 C183 1.428 1_565 S
C178 C181 1.260 . S
C178 C182 1.477 . S
C178 H196 0.932 . S
C179 C180 1.384 . S
C179 C181 1.479 . S
C179 H197 0.929 . S
C180 C177 1.424 . S
C180 C179 1.384 . S
C180 H198 0.928 . S
C181 C178 1.260 . S
C181 C179 1.479 . S
C182 C177 1.245 . S
C182 C178 1.477 . S
C182 H199 0.932 . S
C183 U166 2.882 . S
C183 C177 1.428 1_545 S
C183 O186 1.301 . S
C183 O187 1.282 . S
O184 U166 2.441 . S
O184 C170 1.249 . S
O185 U166 2.420 . S
O185 C170 1.202 . S
O186 U166 2.455 . S
O186 C183 1.301 . S
O187 U166 2.449 . S
O187 C183 1.282 . S
H188 C161 0.931 . S
H189 C163 0.929 . S
H190 C164 0.930 . S
H191 C165 0.931 . S
H192 C172 0.932 . S
H193 C173 0.930 . S
H194 C174 0.929 . S
H195 C176 0.930 . S
H196 C178 0.932 . S
H197 C179 0.929 . S
H198 C180 0.928 . S
H199 C182 0.932 . S
C200 C201 1.264 . S
C200 C205 1.479 . S
C200 C210 1.465 . S
C201 C200 1.264 . S
C201 C203 1.339 . S
C201 H228 0.931 . S
C202 C203 1.395 . S
C202 C204 1.320 . S
C203 C201 1.339 . S
C203 C202 1.395 . S
C203 H229 0.929 . S
C204 C202 1.320 . S
C204 C205 1.405 . S
C204 H230 0.930 . S
C205 C200 1.479 . S
C205 C204 1.405 . S
C205 H231 0.931 . S
U206 O207 2.454 . S
U206 O208 2.458 . S
U206 C209 2.984 . S
U206 C210 2.847 . S
U206 C223 2.882 . S
U206 O224 2.441 . S
U206 O225 2.420 . S
U206 O226 2.455 . S
U206 O227 2.449 . S
O207 U206 2.454 . S
O207 C209 1.353 . S
O208 U206 2.458 . S
O208 C209 1.286 . S
C209 U206 2.984 . S
C209 O207 1.353 . S
C209 O208 1.286 . S
C209 C211 1.363 . S
C210 C200 1.465 . S
C210 U206 2.847 . S
C210 O224 1.249 . S
C210 O225 1.202 . S
C211 C209 1.363 . S
C211 C213 1.408 . S
C211 C216 1.342 . S
C212 C213 1.310 . S
C212 C215 1.461 . S
C212 H232 0.858 1_556 S
C213 C211 1.408 . S
C213 C212 1.310 . S
C213 H233 0.930 . S
C214 C215 1.471 1_545 S
C214 C216 1.279 1_545 S
C214 H234 0.940 . S
C215 C212 1.461 . S
C215 C214 1.471 1_565 S
C216 C211 1.342 . S
C216 C214 1.279 1_565 S
C216 H235 0.930 . S
C217 C220 1.424 . S
C217 C222 1.245 . S
C217 C223 1.428 . S
C218 C221 1.260 . S
C218 C222 1.477 . S
C218 H236 0.932 . S
C219 C220 1.384 . S
C219 C221 1.479 . S
C219 H237 0.929 . S
C220 C217 1.424 . S
C220 C219 1.384 . S
C220 H238 0.928 . S
C221 C218 1.260 . S
C221 C219 1.479 . S
C222 C217 1.245 . S
C222 C218 1.477 . S
C222 H239 0.932 . S
C223 U206 2.882 . S
C223 C217 1.428 . S
C223 O226 1.301 . S
C223 O227 1.282 . S
O224 U206 2.441 . S
O224 C210 1.249 . S
O225 U206 2.420 . S
O225 C210 1.202 . S
O226 U206 2.455 . S
O226 C223 1.301 . S
O227 U206 2.449 . S
O227 C223 1.282 . S
H228 C201 0.931 . S
H229 C203 0.929 . S
H230 C204 0.930 . S
H231 C205 0.931 . S
H232 C212 0.858 1_554 S
H233 C213 0.930 . S
H234 C214 0.940 . S
H235 C216 0.930 . S
H236 C218 0.932 . S
H237 C219 0.929 . S
H238 C220 0.928 . S
H239 C222 0.932 . S
C240 C241 1.264 . S
C240 C245 1.479 . S
C240 C250 1.465 . S
C241 C240 1.264 . S
C241 C243 1.339 . S
C241 H268 0.931 . S
C242 C243 1.395 . S
C242 C244 1.320 . S
C243 C241 1.339 . S
C243 C242 1.395 . S
C243 H269 0.929 . S
C244 C242 1.320 . S
C244 C245 1.405 . S
C244 H270 0.930 . S
C245 C240 1.479 . S
C245 C244 1.405 . S
C245 H271 0.931 . S
U246 O247 2.454 . S
U246 O248 2.458 . S
U246 C249 2.984 . S
U246 C250 2.847 . S
U246 C263 2.882 . S
U246 O264 2.441 . S
U246 O265 2.420 . S
U246 O266 2.455 . S
U246 O267 2.449 . S
O247 U246 2.454 . S
O247 C249 1.353 . S
O248 U246 2.458 . S
O248 C249 1.286 . S
C249 U246 2.984 . S
C249 O247 1.353 . S
C249 O248 1.286 . S
C249 C251 1.363 . S
C250 C240 1.465 . S
C250 U246 2.847 . S
C250 O264 1.249 . S
C250 O265 1.202 . S
C251 C249 1.363 . S
C251 C253 1.408 . S
C251 C256 1.342 . S
C252 C253 1.310 . S
C252 C255 1.461 . S
C252 H272 0.932 . S
C253 C251 1.408 . S
C253 C252 1.310 . S
C253 H273 0.930 . S
C254 C255 1.474 . S
C254 C256 1.285 . S
C254 H274 0.929 . S
C255 C252 1.461 . S
C255 C254 1.474 . S
C256 C251 1.342 . S
C256 C254 1.285 . S
C256 H275 0.930 . S
C257 C260 1.424 . S
C257 C262 1.245 . S
C257 C263 1.428 1_545 S
C258 C261 1.260 . S
C258 C262 1.477 . S
C258 H276 0.932 . S
C259 C260 1.384 . S
C259 C261 1.479 . S
C259 H277 0.929 . S
C260 C257 1.424 . S
C260 C259 1.384 . S
C260 H278 0.928 . S
C261 C258 1.260 . S
C261 C259 1.479 . S
C262 C257 1.245 . S
C262 C258 1.477 . S
C262 H279 0.932 . S
C263 U246 2.882 . S
C263 C257 1.428 1_565 S
C263 O266 1.301 . S
C263 O267 1.282 . S
O264 U246 2.441 . S
O264 C250 1.249 . S
O265 U246 2.420 . S
O265 C250 1.202 . S
O266 U246 2.455 . S
O266 C263 1.301 . S
O267 U246 2.449 . S
O267 C263 1.282 . S
H268 C241 0.931 . S
H269 C243 0.929 . S
H270 C244 0.930 . S
H271 C245 0.931 . S
H272 C252 0.932 . S
H273 C253 0.930 . S
H274 C254 0.929 . S
H275 C256 0.930 . S
H276 C258 0.932 . S
H277 C259 0.929 . S
H278 C260 0.928 . S
H279 C262 0.932 . S
C280 C281 1.264 . S
C280 C285 1.479 . S
C280 C290 1.465 . S
C281 C280 1.264 . S
C281 C283 1.339 . S
C281 H308 0.931 . S
C282 C283 1.395 . S
C282 C284 1.320 . S
C283 C281 1.339 . S
C283 C282 1.395 . S
C283 H309 0.929 . S
C284 C282 1.320 . S
C284 C285 1.405 . S
C284 H310 0.930 . S
C285 C280 1.479 . S
C285 C284 1.405 . S
C285 H311 0.931 . S
U286 O287 2.454 . S
U286 O288 2.458 . S
U286 C289 2.984 . S
U286 C290 2.847 . S
U286 C303 2.882 . S
U286 O304 2.441 . S
U286 O305 2.420 . S
U286 O306 2.455 . S
U286 O307 2.449 . S
O287 U286 2.454 . S
O287 C289 1.353 . S
O288 U286 2.458 . S
O288 C289 1.286 . S
C289 U286 2.984 . S
C289 O287 1.353 . S
C289 O288 1.286 . S
C289 C291 1.363 . S
C290 C280 1.465 . S
C290 U286 2.847 . S
C290 O304 1.249 . S
C290 O305 1.202 . S
C291 C289 1.363 . S
C291 C293 1.408 . S
C291 C296 1.342 . S
C292 C293 1.310 . S
C292 C295 1.461 . S
C292 H312 0.932 . S
C293 C291 1.408 . S
C293 C292 1.310 . S
C293 H313 0.930 . S
C294 C295 1.471 1_565 S
C294 C296 1.279 1_565 S
C294 H314 0.940 . S
C295 C292 1.461 . S
C295 C294 1.471 1_545 S
C296 C291 1.342 . S
C296 C294 1.279 1_545 S
C296 H315 0.930 . S
C297 C300 1.424 . S
C297 C302 1.245 . S
C297 C303 1.428 . S
C298 C301 1.260 . S
C298 C302 1.477 . S
C298 H316 0.932 . S
C299 C300 1.384 . S
C299 C301 1.479 . S
C299 H317 0.929 . S
C300 C297 1.424 . S
C300 C299 1.384 . S
C300 H318 0.928 . S
C301 C298 1.260 . S
C301 C299 1.479 . S
C302 C297 1.245 . S
C302 C298 1.477 . S
C302 H319 0.932 . S
C303 U286 2.882 . S
C303 C297 1.428 . S
C303 O306 1.301 . S
C303 O307 1.282 . S
O304 U286 2.441 . S
O304 C290 1.249 . S
O305 U286 2.420 . S
O305 C290 1.202 . S
O306 U286 2.455 . S
O306 C303 1.301 . S
O307 U286 2.449 . S
O307 C303 1.282 . S
H308 C281 0.931 . S
H309 C283 0.929 . S
H310 C284 0.930 . S
H311 C285 0.931 . S
H312 C292 0.932 . S
H313 C293 0.930 . S
H314 C294 0.940 . S
H315 C296 0.930 . S
H316 C298 0.932 . S
H317 C299 0.929 . S
H318 C300 0.928 . S
H319 C302 0.932 . S
C320 C321 1.264 . S
C320 C325 1.479 1_565 S
C320 C330 1.465 . S
C321 C320 1.264 . S
C321 C323 1.341 . S
C321 H348 0.931 . S
C322 C323 1.390 1_545 S
C322 C324 1.320 . S
C323 C321 1.341 . S
C323 C322 1.390 1_565 S
C323 H349 0.931 . S
C324 C322 1.320 . S
C324 C325 1.405 . S
C324 H350 0.930 . S
C325 C320 1.479 1_545 S
C325 C324 1.405 . S
C325 H351 0.931 . S
U326 O327 2.454 1_565 S
U326 O328 2.458 . S
U326 C329 2.984 . S
U326 C330 2.847 . S
U326 C343 2.882 . S
U326 O344 2.441 . S
U326 O345 2.420 . S
U326 O346 2.455 . S
U326 O347 2.449 . S
O327 U326 2.454 1_545 S
O327 C329 1.353 1_545 S
O328 U326 2.458 . S
O328 C329 1.286 . S
C329 U326 2.984 . S
C329 O327 1.353 1_565 S
C329 O328 1.286 . S
C329 C331 1.363 1_565 S
C330 C320 1.465 . S
C330 U326 2.847 . S
C330 O344 1.249 . S
C330 O345 1.202 . S
C331 C329 1.363 1_545 S
C331 C333 1.408 . S
C331 C336 1.342 . S
C332 C333 1.310 . S
C332 C335 1.461 . S
C332 H352 0.932 . S
C333 C331 1.408 . S
C333 C332 1.310 . S
C333 H353 0.930 . S
C334 C335 1.474 . S
C334 C336 1.285 . S
C334 H354 0.929 . S
C335 C332 1.461 . S
C335 C334 1.474 . S
C336 C331 1.342 . S
C336 C334 1.285 . S
C336 H355 0.938 . S
C337 C340 1.424 . S
C337 C342 1.245 . S
C337 C343 1.428 . S
C338 C341 1.260 . S
C338 C342 1.477 . S
C338 H356 0.932 . S
C339 C340 1.384 . S
C339 C341 1.479 . S
C339 H357 0.929 . S
C340 C337 1.424 . S
C340 C339 1.384 . S
C340 H358 0.928 . S
C341 C338 1.260 . S
C341 C339 1.479 . S
C342 C337 1.245 . S
C342 C338 1.477 . S
C342 H359 0.932 . S
C343 U326 2.882 . S
C343 C337 1.428 . S
C343 O346 1.301 . S
C343 O347 1.282 . S
O344 U326 2.441 . S
O344 C330 1.249 . S
O345 U326 2.420 . S
O345 C330 1.202 . S
O346 U326 2.455 . S
O346 C343 1.301 . S
O347 U326 2.449 . S
O347 C343 1.282 . S
H348 C321 0.931 . S
H349 C323 0.931 . S
H350 C324 0.930 . S
H351 C325 0.931 . S
H352 C332 0.932 . S
H353 C333 0.930 . S
H354 C334 0.929 . S
H355 C336 0.938 . S
H356 C338 0.932 . S
H357 C339 0.929 . S
H358 C340 0.928 . S
H359 C342 0.932 . S
C360 C361 1.264 . S
C360 C365 1.479 . S
C360 C370 1.465 . S
C361 C360 1.264 . S
C361 C363 1.339 . S
C361 H388 0.931 . S
C362 C363 1.395 . S
C362 C364 1.320 . S
C363 C361 1.339 . S
C363 C362 1.395 . S
C363 H389 0.929 . S
C364 C362 1.320 . S
C364 C365 1.405 . S
C364 H390 0.930 . S
C365 C360 1.479 . S
C365 C364 1.405 . S
C365 H391 0.931 . S
U366 O367 2.454 . S
U366 O368 2.458 . S
U366 C369 2.984 . S
U366 C370 2.847 . S
U366 C383 2.882 . S
U366 O384 2.441 . S
U366 O385 2.420 . S
U366 O386 2.455 . S
U366 O387 2.449 . S
O367 U366 2.454 . S
O367 C369 1.353 . S
O368 U366 2.458 . S
O368 C369 1.286 . S
C369 U366 2.984 . S
C369 O367 1.353 . S
C369 O368 1.286 . S
C369 C371 1.363 . S
C370 C360 1.465 . S
C370 U366 2.847 . S
C370 O384 1.249 . S
C370 O385 1.202 . S
C371 C369 1.363 . S
C371 C373 1.408 . S
C371 C376 1.342 . S
C372 C373 1.310 . S
C372 C375 1.461 . S
C372 H392 0.932 . S
C373 C371 1.408 . S
C373 C372 1.310 . S
C373 H393 0.930 . S
C374 C375 1.470 1_565 S
C374 C376 1.276 1_565 S
C374 H394 0.943 . S
C375 C372 1.461 . S
C375 C374 1.470 1_545 S
C376 C371 1.342 . S
C376 C374 1.276 1_545 S
C376 H395 0.930 . S
C377 C380 1.424 . S
C377 C382 1.245 . S
C377 C383 1.428 . S
C378 C381 1.260 . S
C378 C382 1.477 . S
C378 H396 0.932 . S
C379 C380 1.384 . S
C379 C381 1.479 . S
C379 H397 0.929 . S
C380 C377 1.424 . S
C380 C379 1.384 . S
C380 H398 0.928 . S
C381 C378 1.260 . S
C381 C379 1.479 . S
C382 C377 1.245 . S
C382 C378 1.477 . S
C382 H399 0.932 . S
C383 U366 2.882 . S
C383 C377 1.428 . S
C383 O386 1.301 . S
C383 O387 1.282 . S
O384 U366 2.441 . S
O384 C370 1.249 . S
O385 U366 2.420 . S
O385 C370 1.202 . S
O386 U366 2.455 . S
O386 C383 1.301 . S
O387 U366 2.449 . S
O387 C383 1.282 . S
H388 C361 0.931 . S
H389 C363 0.929 . S
H390 C364 0.930 . S
H391 C365 0.931 . S
H392 C372 0.932 . S
H393 C373 0.930 . S
H394 C374 0.943 . S
H395 C376 0.930 . S
H396 C378 0.932 . S
H397 C379 0.929 . S
H398 C380 0.928 . S
H399 C382 0.932 . S
C400 C401 1.264 . S
C400 C405 1.479 1_545 S
C400 C410 1.465 . S
C401 C400 1.264 . S
C401 C403 1.341 . S
C401 H428 0.931 . S
C402 C403 1.390 1_565 S
C402 C404 1.320 . S
C403 C401 1.341 . S
C403 C402 1.390 1_545 S
C403 H429 0.931 . S
C404 C402 1.320 . S
C404 C405 1.405 . S
C404 H430 0.930 . S
C405 C400 1.479 1_565 S
C405 C404 1.405 . S
C405 H431 0.931 . S
U406 O407 2.454 1_545 S
U406 O408 2.458 . S
U406 C409 2.984 . S
U406 C410 2.847 . S
U406 C423 2.882 . S
U406 O424 2.441 . S
U406 O425 2.420 . S
U406 O426 2.455 . S
U406 O427 2.449 . S
O407 U406 2.454 1_565 S
O407 C409 1.353 1_565 S
O408 U406 2.458 . S
O408 C409 1.286 . S
C409 U406 2.984 . S
C409 O407 1.353 1_545 S
C409 O408 1.286 . S
C409 C411 1.363 1_545 S
C410 C400 1.465 . S
C410 U406 2.847 . S
C410 O424 1.249 . S
C410 O425 1.202 . S
C411 C409 1.363 1_565 S
C411 C413 1.408 . S
C411 C416 1.342 . S
C412 C413 1.310 . S
C412 C415 1.461 . S
C412 H432 0.932 . S
C413 C411 1.408 . S
C413 C412 1.310 . S
C413 H433 0.930 . S
C414 C415 1.474 . S
C414 C416 1.285 . S
C414 H434 0.929 . S
C415 C412 1.461 . S
C415 C414 1.474 . S
C416 C411 1.342 . S
C416 C414 1.285 . S
C416 H435 0.938 . S
C417 C420 1.424 . S
C417 C422 1.245 . S
C417 C423 1.428 . S
C418 C421 1.260 . S
C418 C422 1.477 . S
C418 H436 0.932 . S
C419 C420 1.384 . S
C419 C421 1.479 . S
C419 H437 0.929 . S
C420 C417 1.424 . S
C420 C419 1.384 . S
C420 H438 0.928 . S
C421 C418 1.260 . S
C421 C419 1.479 . S
C422 C417 1.245 . S
C422 C418 1.477 . S
C422 H439 0.932 . S
C423 U406 2.882 . S
C423 C417 1.428 . S
C423 O426 1.301 . S
C423 O427 1.282 . S
O424 U406 2.441 . S
O424 C410 1.249 . S
O425 U406 2.420 . S
O425 C410 1.202 . S
O426 U406 2.455 . S
O426 C423 1.301 . S
O427 U406 2.449 . S
O427 C423 1.282 . S
H428 C401 0.931 . S
H429 C403 0.931 . S
H430 C404 0.930 . S
H431 C405 0.931 . S
H432 C412 0.932 . S
H433 C413 0.930 . S
H434 C414 0.929 . S
H435 C416 0.938 . S
H436 C418 0.932 . S
H437 C419 0.929 . S
H438 C420 0.928 . S
H439 C422 0.932 . S
C440 C441 1.264 . S
C440 C445 1.479 . S
C440 C450 1.465 . S
C441 C440 1.264 . S
C441 C443 1.339 . S
C441 H468 0.931 . S
C442 C443 1.395 . S
C442 C444 1.320 . S
C443 C441 1.339 . S
C443 C442 1.395 . S
C443 H469 0.929 . S
C444 C442 1.320 . S
C444 C445 1.405 . S
C444 H470 0.930 . S
C445 C440 1.479 . S
C445 C444 1.405 . S
C445 H471 0.931 . S
U446 O447 2.454 . S
U446 O448 2.458 . S
U446 C449 2.984 . S
U446 C450 2.847 . S
U446 C463 2.882 . S
U446 O464 2.441 . S
U446 O465 2.420 . S
U446 O466 2.455 . S
U446 O467 2.449 . S
O447 U446 2.454 . S
O447 C449 1.353 . S
O448 U446 2.458 . S
O448 C449 1.286 . S
C449 U446 2.984 . S
C449 O447 1.353 . S
C449 O448 1.286 . S
C449 C451 1.363 . S
C450 C440 1.465 . S
C450 U446 2.847 . S
C450 O464 1.249 . S
C450 O465 1.202 . S
C451 C449 1.363 . S
C451 C453 1.408 . S
C451 C456 1.342 . S
C452 C453 1.310 . S
C452 C455 1.461 . S
C452 H472 0.932 1_556 S
C453 C451 1.408 . S
C453 C452 1.310 . S
C453 H473 0.930 . S
C454 C455 1.470 1_545 S
C454 C456 1.277 1_545 S
C454 H474 0.943 . S
C455 C452 1.461 . S
C455 C454 1.470 1_565 S
C456 C451 1.342 . S
C456 C454 1.277 1_565 S
C456 H475 0.930 . S
C457 C460 1.424 . S
C457 C462 1.245 . S
C457 C463 1.428 . S
C458 C461 1.260 . S
C458 C462 1.477 . S
C458 H476 0.932 . S
C459 C460 1.384 . S
C459 C461 1.479 . S
C459 H477 0.929 . S
C460 C457 1.424 . S
C460 C459 1.384 . S
C460 H478 0.928 . S
C461 C458 1.260 . S
C461 C459 1.479 . S
C462 C457 1.245 . S
C462 C458 1.477 . S
C462 H479 0.932 . S
C463 U446 2.882 . S
C463 C457 1.428 . S
C463 O466 1.301 . S
C463 O467 1.282 . S
O464 U446 2.441 . S
O464 C450 1.249 . S
O465 U446 2.420 . S
O465 C450 1.202 . S
O466 U446 2.455 . S
O466 C463 1.301 . S
O467 U446 2.449 . S
O467 C463 1.282 . S
H468 C441 0.931 . S
H469 C443 0.929 . S
H470 C444 0.930 . S
H471 C445 0.931 . S
H472 C452 0.932 1_554 S
H473 C453 0.930 . S
H474 C454 0.943 . S
H475 C456 0.930 . S
H476 C458 0.932 . S
H477 C459 0.929 . S
H478 C460 0.928 . S
H479 C462 0.932 . S
C480 C481 1.264 . S
C480 C485 1.479 1_545 S
C480 C490 1.465 . S
C481 C480 1.264 . S
C481 C483 1.341 . S
C481 H508 0.931 . S
C482 C483 1.390 1_565 S
C482 C484 1.320 . S
C483 C481 1.341 . S
C483 C482 1.390 1_545 S
C483 H509 0.931 . S
C484 C482 1.320 . S
C484 C485 1.405 . S
C484 H510 0.930 . S
C485 C480 1.479 1_565 S
C485 C484 1.405 . S
C485 H511 0.931 . S
U486 O487 2.454 1_545 S
U486 O488 2.458 . S
U486 C489 2.984 . S
U486 C490 2.847 . S
U486 C503 2.882 . S
U486 O504 2.441 . S
U486 O505 2.420 . S
U486 O506 2.455 . S
U486 O507 2.449 . S
O487 U486 2.454 1_565 S
O487 C489 1.353 1_565 S
O488 U486 2.458 . S
O488 C489 1.286 . S
C489 U486 2.984 . S
C489 O487 1.353 1_545 S
C489 O488 1.286 . S
C489 C491 1.363 1_545 S
C490 C480 1.465 . S
C490 U486 2.847 . S
C490 O504 1.249 . S
C490 O505 1.202 . S
C491 C489 1.363 1_565 S
C491 C493 1.408 . S
C491 C496 1.342 . S
C492 C493 1.310 . S
C492 C495 1.461 . S
C492 H512 0.932 . S
C493 C491 1.408 . S
C493 C492 1.310 . S
C493 H513 0.930 . S
C494 C495 1.474 . S
C494 C496 1.285 . S
C494 H514 0.929 . S
C495 C492 1.461 . S
C495 C494 1.474 . S
C496 C491 1.342 . S
C496 C494 1.285 . S
C496 H515 0.938 . S
C497 C500 1.424 . S
C497 C502 1.245 . S
C497 C503 1.428 . S
C498 C501 1.260 . S
C498 C502 1.477 . S
C498 H516 0.932 . S
C499 C500 1.384 . S
C499 C501 1.479 . S
C499 H517 0.929 . S
C500 C497 1.424 . S
C500 C499 1.384 . S
C500 H518 0.928 . S
C501 C498 1.260 . S
C501 C499 1.479 . S
C502 C497 1.245 . S
C502 C498 1.477 . S
C502 H519 0.932 . S
C503 U486 2.882 . S
C503 C497 1.428 . S
C503 O506 1.301 . S
C503 O507 1.282 . S
O504 U486 2.441 . S
O504 C490 1.249 . S
O505 U486 2.420 . S
O505 C490 1.202 . S
O506 U486 2.455 . S
O506 C503 1.301 . S
O507 U486 2.449 . S
O507 C503 1.282 . S
H508 C481 0.931 . S
H509 C483 0.931 . S
H510 C484 0.930 . S
H511 C485 0.931 . S
H512 C492 0.932 . S
H513 C493 0.930 . S
H514 C494 0.929 . S
H515 C496 0.938 . S
H516 C498 0.932 . S
H517 C499 0.929 . S
H518 C500 0.928 . S
H519 C502 0.932 . S
C520 C521 1.264 . S
C520 C525 1.479 . S
C520 C530 1.465 . S
C521 C520 1.264 . S
C521 C523 1.339 . S
C521 H548 0.931 . S
C522 C523 1.395 . S
C522 C524 1.320 . S
C523 C521 1.339 . S
C523 C522 1.395 . S
C523 H549 0.929 . S
C524 C522 1.320 . S
C524 C525 1.405 . S
C524 H550 0.930 . S
C525 C520 1.479 . S
C525 C524 1.405 . S
C525 H551 0.931 . S
U526 O527 2.454 . S
U526 O528 2.458 . S
U526 C529 2.984 . S
U526 C530 2.847 . S
U526 C543 2.882 . S
U526 O544 2.441 . S
U526 O545 2.420 . S
U526 O546 2.455 . S
U526 O547 2.449 . S
O527 U526 2.454 . S
O527 C529 1.353 . S
O528 U526 2.458 . S
O528 C529 1.286 . S
C529 U526 2.984 . S
C529 O527 1.353 . S
C529 O528 1.286 . S
C529 C531 1.363 . S
C530 C520 1.465 . S
C530 U526 2.847 . S
C530 O544 1.249 . S
C530 O545 1.202 . S
C531 C529 1.363 . S
C531 C533 1.408 . S
C531 C536 1.342 . S
C532 C533 1.310 . S
C532 C535 1.461 . S
C532 H552 0.932 1_554 S
C533 C531 1.408 . S
C533 C532 1.310 . S
C533 H553 0.930 . S
C534 C535 1.470 1_565 S
C534 C536 1.276 1_565 S
C534 H554 0.943 . S
C535 C532 1.461 . S
C535 C534 1.470 1_545 S
C536 C531 1.342 . S
C536 C534 1.276 1_545 S
C536 H555 0.930 . S
C537 C540 1.424 . S
C537 C542 1.245 . S
C537 C543 1.428 . S
C538 C541 1.260 . S
C538 C542 1.477 . S
C538 H556 0.932 . S
C539 C540 1.384 . S
C539 C541 1.479 . S
C539 H557 0.929 . S
C540 C537 1.424 . S
C540 C539 1.384 . S
C540 H558 0.928 . S
C541 C538 1.260 . S
C541 C539 1.479 . S
C542 C537 1.245 . S
C542 C538 1.477 . S
C542 H559 0.932 . S
C543 U526 2.882 . S
C543 C537 1.428 . S
C543 O546 1.301 . S
C543 O547 1.282 . S
O544 U526 2.441 . S
O544 C530 1.249 . S
O545 U526 2.420 . S
O545 C530 1.202 . S
O546 U526 2.455 . S
O546 C543 1.301 . S
O547 U526 2.449 . S
O547 C543 1.282 . S
H548 C521 0.931 . S
H549 C523 0.929 . S
H550 C524 0.930 . S
H551 C525 0.931 . S
H552 C532 0.932 1_556 S
H553 C533 0.930 . S
H554 C534 0.943 . S
H555 C536 0.930 . S
H556 C538 0.932 . S
H557 C539 0.929 . S
H558 C540 0.928 . S
H559 C542 0.932 . S
C560 C561 1.264 . S
C560 C565 1.479 1_565 S
C560 C570 1.465 . S
C561 C560 1.264 . S
C561 C563 1.341 . S
C561 H588 0.931 . S
C562 C563 1.390 1_545 S
C562 C564 1.320 . S
C563 C561 1.341 . S
C563 C562 1.390 1_565 S
C563 H589 0.931 . S
C564 C562 1.320 . S
C564 C565 1.405 . S
C564 H590 0.930 . S
C565 C560 1.479 1_545 S
C565 C564 1.405 . S
C565 H591 0.931 . S
U566 O567 2.454 1_565 S
U566 O568 2.458 . S
U566 C569 2.984 . S
U566 C570 2.847 . S
U566 C583 2.882 . S
U566 O584 2.441 . S
U566 O585 2.420 . S
U566 O586 2.455 . S
U566 O587 2.449 . S
O567 U566 2.454 1_545 S
O567 C569 1.353 1_545 S
O568 U566 2.458 . S
O568 C569 1.286 . S
C569 U566 2.984 . S
C569 O567 1.353 1_565 S
C569 O568 1.286 . S
C569 C571 1.363 1_565 S
C570 C560 1.465 . S
C570 U566 2.847 . S
C570 O584 1.249 . S
C570 O585 1.202 . S
C571 C569 1.363 1_545 S
C571 C573 1.408 . S
C571 C576 1.342 . S
C572 C573 1.310 . S
C572 C575 1.461 . S
C572 H592 0.932 . S
C573 C571 1.408 . S
C573 C572 1.310 . S
C573 H593 0.930 . S
C574 C575 1.474 . S
C574 C576 1.285 . S
C574 H594 0.929 . S
C575 C572 1.461 . S
C575 C574 1.474 . S
C576 C571 1.342 . S
C576 C574 1.285 . S
C576 H595 0.938 . S
C577 C580 1.424 . S
C577 C582 1.245 . S
C577 C583 1.428 . S
C578 C581 1.260 . S
C578 C582 1.477 . S
C578 H596 0.932 . S
C579 C580 1.384 . S
C579 C581 1.479 . S
C579 H597 0.929 . S
C580 C577 1.424 . S
C580 C579 1.384 . S
C580 H598 0.928 . S
C581 C578 1.260 . S
C581 C579 1.479 . S
C582 C577 1.245 . S
C582 C578 1.477 . S
C582 H599 0.932 . S
C583 U566 2.882 . S
C583 C577 1.428 . S
C583 O586 1.301 . S
C583 O587 1.282 . S
O584 U566 2.441 . S
O584 C570 1.249 . S
O585 U566 2.420 . S
O585 C570 1.202 . S
O586 U566 2.455 . S
O586 C583 1.301 . S
O587 U566 2.449 . S
O587 C583 1.282 . S
H588 C561 0.931 . S
H589 C563 0.931 . S
H590 C564 0.930 . S
H591 C565 0.931 . S
H592 C572 0.932 . S
H593 C573 0.930 . S
H594 C574 0.929 . S
H595 C576 0.938 . S
H596 C578 0.932 . S
H597 C579 0.929 . S
H598 C580 0.928 . S
H599 C582 0.932 . S
C600 C601 1.264 . S
C600 C605 1.479 . S
C600 C610 1.465 . S
C601 C600 1.264 . S
C601 C603 1.339 . S
C601 H628 0.931 . S
C602 C603 1.395 . S
C602 C604 1.320 . S
C603 C601 1.339 . S
C603 C602 1.395 . S
C603 H629 0.929 . S
C604 C602 1.320 . S
C604 C605 1.405 . S
C604 H630 0.930 . S
C605 C600 1.479 . S
C605 C604 1.405 . S
C605 H631 0.931 . S
U606 O607 2.454 . S
U606 O608 2.458 . S
U606 C609 2.984 . S
U606 C610 2.847 . S
U606 C623 2.882 . S
U606 O624 2.441 . S
U606 O625 2.420 . S
U606 O626 2.455 . S
U606 O627 2.449 . S
O607 U606 2.454 . S
O607 C609 1.353 . S
O608 U606 2.458 . S
O608 C609 1.286 . S
C609 U606 2.984 . S
C609 O607 1.353 . S
C609 O608 1.286 . S
C609 C611 1.363 . S
C610 C600 1.465 . S
C610 U606 2.847 . S
C610 O624 1.249 . S
C610 O625 1.202 . S
C611 C609 1.363 . S
C611 C613 1.408 . S
C611 C616 1.342 . S
C612 C613 1.310 . S
C612 C615 1.461 . S
C612 H632 0.932 . S
C613 C611 1.408 . S
C613 C612 1.310 . S
C613 H633 0.930 . S
C614 C615 1.470 1_545 S
C614 C616 1.277 1_545 S
C614 H634 0.943 . S
C615 C612 1.461 . S
C615 C614 1.470 1_565 S
C616 C611 1.342 . S
C616 C614 1.277 1_565 S
C616 H635 0.930 . S
C617 C620 1.424 . S
C617 C622 1.245 . S
C617 C623 1.428 . S
C618 C621 1.260 . S
C618 C622 1.477 . S
C618 H636 0.932 . S
C619 C620 1.384 . S
C619 C621 1.479 . S
C619 H637 0.929 . S
C620 C617 1.424 . S
C620 C619 1.384 . S
C620 H638 0.928 . S
C621 C618 1.260 . S
C621 C619 1.479 . S
C622 C617 1.245 . S
C622 C618 1.477 . S
C622 H639 0.932 . S
C623 U606 2.882 . S
C623 C617 1.428 . S
C623 O626 1.301 . S
C623 O627 1.282 . S
O624 U606 2.441 . S
O624 C610 1.249 . S
O625 U606 2.420 . S
O625 C610 1.202 . S
O626 U606 2.455 . S
O626 C623 1.301 . S
O627 U606 2.449 . S
O627 C623 1.282 . S
H628 C601 0.931 . S
H629 C603 0.929 . S
H630 C604 0.930 . S
H631 C605 0.931 . S
H632 C612 0.932 . S
H633 C613 0.930 . S
H634 C614 0.943 . S
H635 C616 0.930 . S
H636 C618 0.932 . S
H637 C619 0.929 . S
H638 C620 0.928 . S
H639 C622 0.932 . S
C640 C641 1.264 . S
C640 C645 1.479 . S
C640 C650 1.465 . S
C641 C640 1.264 . S
C641 C643 1.339 . S
C641 H668 0.931 . S
C642 C643 1.395 . S
C642 C644 1.320 . S
C643 C641 1.339 . S
C643 C642 1.395 . S
C643 H669 0.929 . S
C644 C642 1.320 . S
C644 C645 1.405 . S
C644 H670 0.930 . S
C645 C640 1.479 . S
C645 C644 1.405 . S
C645 H671 0.931 . S
U646 O647 2.454 . S
U646 O648 2.458 . S
U646 C649 2.984 . S
U646 C650 2.847 . S
U646 C663 2.882 . S
U646 O664 2.441 . S
U646 O665 2.420 . S
U646 O666 2.455 . S
U646 O667 2.449 . S
O647 U646 2.454 . S
O647 C649 1.353 . S
O648 U646 2.458 . S
O648 C649 1.286 . S
C649 U646 2.984 . S
C649 O647 1.353 . S
C649 O648 1.286 . S
C649 C651 1.363 . S
C650 C640 1.465 . S
C650 U646 2.847 . S
C650 O664 1.249 . S
C650 O665 1.202 . S
C651 C649 1.363 . S
C651 C653 1.408 . S
C651 C656 1.342 . S
C652 C653 1.310 . S
C652 C655 1.461 . S
C652 H672 0.932 . S
C653 C651 1.408 . S
C653 C652 1.310 . S
C653 H673 0.930 . S
C654 C655 1.474 . S
C654 C656 1.285 . S
C654 H674 0.929 . S
C655 C652 1.461 . S
C655 C654 1.474 . S
C656 C651 1.342 . S
C656 C654 1.285 . S
C656 H675 0.930 . S
C657 C660 1.424 . S
C657 C662 1.245 . S
C657 C663 1.428 . S
C658 C661 1.260 . S
C658 C662 1.477 . S
C658 H676 0.932 . S
C659 C660 1.384 . S
C659 C661 1.479 . S
C659 H677 0.929 . S
C660 C657 1.424 . S
C660 C659 1.384 . S
C660 H678 0.928 . S
C661 C658 1.260 . S
C661 C659 1.479 . S
C662 C657 1.245 . S
C662 C658 1.477 . S
C662 H679 0.932 . S
C663 U646 2.882 . S
C663 C657 1.428 . S
C663 O666 1.301 . S
C663 O667 1.282 . S
O664 U646 2.441 . S
O664 C650 1.249 . S
O665 U646 2.420 . S
O665 C650 1.202 . S
O666 U646 2.455 . S
O666 C663 1.301 . S
O667 U646 2.449 . S
O667 C663 1.282 . S
H668 C641 0.931 . S
H669 C643 0.929 . S
H670 C644 0.930 . S
H671 C645 0.931 . S
H672 C652 0.932 . S
H673 C653 0.930 . S
H674 C654 0.929 . S
H675 C656 0.930 . S
H676 C658 0.932 . S
H677 C659 0.929 . S
H678 C660 0.928 . S
H679 C662 0.932 . S
C680 C681 1.264 . S
C680 C685 1.479 . S
C680 C690 1.465 . S
C681 C680 1.264 . S
C681 C683 1.339 . S
C681 H708 0.931 . S
C682 C683 1.395 . S
C682 C684 1.320 . S
C683 C681 1.339 . S
C683 C682 1.395 . S
C683 H709 0.929 . S
C684 C682 1.320 . S
C684 C685 1.405 . S
C684 H710 0.930 . S
C685 C680 1.479 . S
C685 C684 1.405 . S
C685 H711 0.931 . S
U686 O687 2.454 . S
U686 O688 2.458 . S
U686 C689 2.984 . S
U686 C690 2.847 . S
U686 C703 2.882 . S
U686 O704 2.441 . S
U686 O705 2.420 . S
U686 O706 2.455 . S
U686 O707 2.449 . S
O687 U686 2.454 . S
O687 C689 1.353 . S
O688 U686 2.458 . S
O688 C689 1.286 . S
C689 U686 2.984 . S
C689 O687 1.353 . S
C689 O688 1.286 . S
C689 C691 1.363 . S
C690 C680 1.465 . S
C690 U686 2.847 . S
C690 O704 1.249 . S
C690 O705 1.202 . S
C691 C689 1.363 . S
C691 C693 1.408 . S
C691 C696 1.342 . S
C692 C693 1.310 . S
C692 C695 1.461 . S
C692 H712 0.880 1_554 S
C693 C691 1.408 . S
C693 C692 1.310 . S
C693 H713 0.930 . S
C694 C695 1.474 . S
C694 C696 1.285 . S
C694 H714 0.929 . S
C695 C692 1.461 . S
C695 C694 1.474 . S
C696 C691 1.342 . S
C696 C694 1.285 . S
C696 H715 0.930 . S
C697 C700 1.424 . S
C697 C702 1.245 . S
C697 C703 1.428 . S
C698 C701 1.260 . S
C698 C702 1.477 . S
C698 H716 0.932 . S
C699 C700 1.384 . S
C699 C701 1.479 . S
C699 H717 0.929 . S
C700 C697 1.424 . S
C700 C699 1.384 . S
C700 H718 0.928 . S
C701 C698 1.260 . S
C701 C699 1.479 . S
C702 C697 1.245 . S
C702 C698 1.477 . S
C702 H719 0.932 . S
C703 U686 2.882 . S
C703 C697 1.428 . S
C703 O706 1.301 . S
C703 O707 1.282 . S
O704 U686 2.441 . S
O704 C690 1.249 . S
O705 U686 2.420 . S
O705 C690 1.202 . S
O706 U686 2.455 . S
O706 C703 1.301 . S
O707 U686 2.449 . S
O707 C703 1.282 . S
H708 C681 0.931 . S
H709 C683 0.929 . S
H710 C684 0.930 . S
H711 C685 0.931 . S
H712 C692 0.880 1_556 S
H713 C693 0.930 . S
H714 C694 0.929 . S
H715 C696 0.930 . S
H716 C698 0.932 . S
H717 C699 0.929 . S
H718 C700 0.928 . S
H719 C702 0.932 . S
C720 C721 1.264 . S
C720 C725 1.479 . S
C720 C730 1.465 . S
C721 C720 1.264 . S
C721 C723 1.339 . S
C721 H748 0.931 . S
C722 C723 1.395 . S
C722 C724 1.320 . S
C723 C721 1.339 . S
C723 C722 1.395 . S
C723 H749 0.929 . S
C724 C722 1.320 . S
C724 C725 1.405 . S
C724 H750 0.930 . S
C725 C720 1.479 . S
C725 C724 1.405 . S
C725 H751 0.931 . S
U726 O727 2.454 . S
U726 O728 2.458 . S
U726 C729 2.984 . S
U726 C730 2.847 . S
U726 C743 2.882 . S
U726 O744 2.441 . S
U726 O745 2.420 . S
U726 O746 2.455 . S
U726 O747 2.449 . S
O727 U726 2.454 . S
O727 C729 1.353 . S
O728 U726 2.458 . S
O728 C729 1.286 . S
C729 U726 2.984 . S
C729 O727 1.353 . S
C729 O728 1.286 . S
C729 C731 1.363 . S
C730 C720 1.465 . S
C730 U726 2.847 . S
C730 O744 1.249 . S
C730 O745 1.202 . S
C731 C729 1.363 . S
C731 C733 1.408 . S
C731 C736 1.342 . S
C732 C733 1.310 . S
C732 C735 1.461 . S
C732 H752 0.932 . S
C733 C731 1.408 . S
C733 C732 1.310 . S
C733 H753 0.930 . S
C734 C735 1.474 . S
C734 C736 1.285 . S
C734 H754 0.929 . S
C735 C732 1.461 . S
C735 C734 1.474 . S
C736 C731 1.342 . S
C736 C734 1.285 . S
C736 H755 0.930 . S
C737 C740 1.424 . S
C737 C742 1.245 . S
C737 C743 1.428 . S
C738 C741 1.260 . S
C738 C742 1.477 . S
C738 H756 0.932 . S
C739 C740 1.384 . S
C739 C741 1.479 . S
C739 H757 0.929 . S
C740 C737 1.424 . S
C740 C739 1.384 . S
C740 H758 0.928 . S
C741 C738 1.260 . S
C741 C739 1.479 . S
C742 C737 1.245 . S
C742 C738 1.477 . S
C742 H759 0.932 . S
C743 U726 2.882 . S
C743 C737 1.428 . S
C743 O746 1.301 . S
C743 O747 1.282 . S
O744 U726 2.441 . S
O744 C730 1.249 . S
O745 U726 2.420 . S
O745 C730 1.202 . S
O746 U726 2.455 . S
O746 C743 1.301 . S
O747 U726 2.449 . S
O747 C743 1.282 . S
H748 C721 0.931 . S
H749 C723 0.929 . S
H750 C724 0.930 . S
H751 C725 0.931 . S
H752 C732 0.932 . S
H753 C733 0.930 . S
H754 C734 0.929 . S
H755 C736 0.930 . S
H756 C738 0.932 . S
H757 C739 0.929 . S
H758 C740 0.928 . S
H759 C742 0.932 . S
C760 C761 1.264 . S
C760 C765 1.479 . S
C760 C770 1.465 . S
C761 C760 1.264 . S
C761 C763 1.339 . S
C761 H788 0.931 . S
C762 C763 1.395 . S
C762 C764 1.320 . S
C763 C761 1.339 . S
C763 C762 1.395 . S
C763 H789 0.929 . S
C764 C762 1.320 . S
C764 C765 1.405 . S
C764 H790 0.930 . S
C765 C760 1.479 . S
C765 C764 1.405 . S
C765 H791 0.931 . S
U766 O767 2.454 . S
U766 O768 2.458 . S
U766 C769 2.984 . S
U766 C770 2.847 . S
U766 C783 2.882 . S
U766 O784 2.441 . S
U766 O785 2.420 . S
U766 O786 2.455 . S
U766 O787 2.449 . S
O767 U766 2.454 . S
O767 C769 1.353 . S
O768 U766 2.458 . S
O768 C769 1.286 . S
C769 U766 2.984 . S
C769 O767 1.353 . S
C769 O768 1.286 . S
C769 C771 1.363 . S
C770 C760 1.465 . S
C770 U766 2.847 . S
C770 O784 1.249 . S
C770 O785 1.202 . S
C771 C769 1.363 . S
C771 C773 1.408 . S
C771 C776 1.342 . S
C772 C773 1.310 . S
C772 C775 1.461 . S
C772 H792 0.932 . S
C773 C771 1.408 . S
C773 C772 1.310 . S
C773 H793 0.930 . S
C774 C775 1.474 . S
C774 C776 1.285 . S
C774 H794 0.929 . S
C775 C772 1.461 . S
C775 C774 1.474 . S
C776 C771 1.342 . S
C776 C774 1.285 . S
C776 H795 0.930 . S
C777 C780 1.424 . S
C777 C782 1.245 . S
C777 C783 1.428 . S
C778 C781 1.260 . S
C778 C782 1.477 . S
C778 H796 0.932 . S
C779 C780 1.384 . S
C779 C781 1.479 . S
C779 H797 0.929 . S
C780 C777 1.424 . S
C780 C779 1.384 . S
C780 H798 0.928 . S
C781 C778 1.260 . S
C781 C779 1.479 . S
C782 C777 1.245 . S
C782 C778 1.477 . S
C782 H799 0.932 . S
C783 U766 2.882 . S
C783 C777 1.428 . S
C783 O786 1.301 . S
C783 O787 1.282 . S
O784 U766 2.441 . S
O784 C770 1.249 . S
O785 U766 2.420 . S
O785 C770 1.202 . S
O786 U766 2.455 . S
O786 C783 1.301 . S
O787 U766 2.449 . S
O787 C783 1.282 . S
H788 C761 0.931 . S
H789 C763 0.929 . S
H790 C764 0.930 . S
H791 C765 0.931 . S
H792 C772 0.932 . S
H793 C773 0.930 . S
H794 C774 0.929 . S
H795 C776 0.930 . S
H796 C778 0.932 . S
H797 C779 0.929 . S
H798 C780 0.928 . S
H799 C782 0.932 . S
C800 C801 1.264 . S
C800 C805 1.479 . S
C800 C810 1.465 . S
C801 C800 1.264 . S
C801 C803 1.339 . S
C801 H828 0.931 . S
C802 C803 1.395 . S
C802 C804 1.320 . S
C803 C801 1.339 . S
C803 C802 1.395 . S
C803 H829 0.929 . S
C804 C802 1.320 . S
C804 C805 1.405 . S
C804 H830 0.930 . S
C805 C800 1.479 . S
C805 C804 1.405 . S
C805 H831 0.931 . S
U806 O807 2.454 . S
U806 O808 2.458 . S
U806 C809 2.984 . S
U806 C810 2.847 . S
U806 C823 2.882 . S
U806 O824 2.441 . S
U806 O825 2.420 . S
U806 O826 2.455 . S
U806 O827 2.449 . S
O807 U806 2.454 . S
O807 C809 1.353 . S
O808 U806 2.458 . S
O808 C809 1.286 . S
C809 U806 2.984 . S
C809 O807 1.353 . S
C809 O808 1.286 . S
C809 C811 1.363 . S
C810 C800 1.465 . S
C810 U806 2.847 . S
C810 O824 1.249 . S
C810 O825 1.202 . S
C811 C809 1.363 . S
C811 C813 1.408 . S
C811 C816 1.342 . S
C812 C813 1.310 . S
C812 C815 1.461 . S
C812 H832 0.932 . S
C813 C811 1.408 . S
C813 C812 1.310 . S
C813 H833 0.930 . S
C814 C815 1.474 . S
C814 C816 1.285 . S
C814 H834 0.929 . S
C815 C812 1.461 . S
C815 C814 1.474 . S
C816 C811 1.342 . S
C816 C814 1.285 . S
C816 H835 0.930 . S
C817 C820 1.424 . S
C817 C822 1.245 . S
C817 C823 1.428 . S
C818 C821 1.260 . S
C818 C822 1.477 . S
C818 H836 0.932 . S
C819 C820 1.384 . S
C819 C821 1.479 . S
C819 H837 0.929 . S
C820 C817 1.424 . S
C820 C819 1.384 . S
C820 H838 0.928 . S
C821 C818 1.260 . S
C821 C819 1.479 . S
C822 C817 1.245 . S
C822 C818 1.477 . S
C822 H839 0.932 . S
C823 U806 2.882 . S
C823 C817 1.428 . S
C823 O826 1.301 . S
C823 O827 1.282 . S
O824 U806 2.441 . S
O824 C810 1.249 . S
O825 U806 2.420 . S
O825 C810 1.202 . S
O826 U806 2.455 . S
O826 C823 1.301 . S
O827 U806 2.449 . S
O827 C823 1.282 . S
H828 C801 0.931 . S
H829 C803 0.929 . S
H830 C804 0.930 . S
H831 C805 0.931 . S
H832 C812 0.932 . S
H833 C813 0.930 . S
H834 C814 0.929 . S
H835 C816 0.930 . S
H836 C818 0.932 . S
H837 C819 0.929 . S
H838 C820 0.928 . S
H839 C822 0.932 . S
C840 C841 1.264 . S
C840 C845 1.479 . S
C840 C850 1.465 . S
C841 C840 1.264 . S
C841 C843 1.339 . S
C841 H868 0.931 . S
C842 C843 1.395 . S
C842 C844 1.320 . S
C843 C841 1.339 . S
C843 C842 1.395 . S
C843 H869 0.929 . S
C844 C842 1.320 . S
C844 C845 1.405 . S
C844 H870 0.930 . S
C845 C840 1.479 . S
C845 C844 1.405 . S
C845 H871 0.931 . S
U846 O847 2.454 . S
U846 O848 2.458 . S
U846 C849 2.984 . S
U846 C850 2.847 . S
U846 C863 2.882 . S
U846 O864 2.441 . S
U846 O865 2.420 . S
U846 O866 2.455 . S
U846 O867 2.449 . S
O847 U846 2.454 . S
O847 C849 1.353 . S
O848 U846 2.458 . S
O848 C849 1.286 . S
C849 U846 2.984 . S
C849 O847 1.353 . S
C849 O848 1.286 . S
C849 C851 1.363 . S
C850 C840 1.465 . S
C850 U846 2.847 . S
C850 O864 1.249 . S
C850 O865 1.202 . S
C851 C849 1.363 . S
C851 C853 1.408 . S
C851 C856 1.342 . S
C852 C853 1.310 . S
C852 C855 1.461 . S
C852 H872 0.932 . S
C853 C851 1.408 . S
C853 C852 1.310 . S
C853 H873 0.930 . S
C854 C855 1.474 . S
C854 C856 1.285 . S
C854 H874 0.929 . S
C855 C852 1.461 . S
C855 C854 1.474 . S
C856 C851 1.342 . S
C856 C854 1.285 . S
C856 H875 0.930 . S
C857 C860 1.424 . S
C857 C862 1.245 . S
C857 C863 1.428 . S
C858 C861 1.260 . S
C858 C862 1.477 . S
C858 H876 0.932 . S
C859 C860 1.384 . S
C859 C861 1.479 . S
C859 H877 0.929 . S
C860 C857 1.424 . S
C860 C859 1.384 . S
C860 H878 0.928 . S
C861 C858 1.260 . S
C861 C859 1.479 . S
C862 C857 1.245 . S
C862 C858 1.477 . S
C862 H879 0.932 . S
C863 U846 2.882 . S
C863 C857 1.428 . S
C863 O866 1.301 . S
C863 O867 1.282 . S
O864 U846 2.441 . S
O864 C850 1.249 . S
O865 U846 2.420 . S
O865 C850 1.202 . S
O866 U846 2.455 . S
O866 C863 1.301 . S
O867 U846 2.449 . S
O867 C863 1.282 . S
H868 C841 0.931 . S
H869 C843 0.929 . S
H870 C844 0.930 . S
H871 C845 0.931 . S
H872 C852 0.932 . S
H873 C853 0.930 . S
H874 C854 0.929 . S
H875 C856 0.930 . S
H876 C858 0.932 . S
H877 C859 0.929 . S
H878 C860 0.928 . S
H879 C862 0.932 . S
C880 C881 1.264 . S
C880 C885 1.479 . S
C880 C890 1.465 . S
C881 C880 1.264 . S
C881 C883 1.339 . S
C881 H908 0.931 . S
C882 C883 1.395 . S
C882 C884 1.320 . S
C883 C881 1.339 . S
C883 C882 1.395 . S
C883 H909 0.929 . S
C884 C882 1.320 . S
C884 C885 1.405 . S
C884 H910 0.930 . S
C885 C880 1.479 . S
C885 C884 1.405 . S
C885 H911 0.931 . S
U886 O887 2.454 . S
U886 O888 2.458 . S
U886 C889 2.984 . S
U886 C890 2.847 . S
U886 C903 2.882 . S
U886 O904 2.441 . S
U886 O905 2.420 . S
U886 O906 2.455 . S
U886 O907 2.449 . S
O887 U886 2.454 . S
O887 C889 1.353 . S
O888 U886 2.458 . S
O888 C889 1.286 . S
C889 U886 2.984 . S
C889 O887 1.353 . S
C889 O888 1.286 . S
C889 C891 1.363 . S
C890 C880 1.465 . S
C890 U886 2.847 . S
C890 O904 1.249 . S
C890 O905 1.202 . S
C891 C889 1.363 . S
C891 C893 1.408 . S
C891 C896 1.342 . S
C892 C893 1.310 . S
C892 C895 1.461 . S
C892 H912 0.932 . S
C893 C891 1.408 . S
C893 C892 1.310 . S
C893 H913 0.930 . S
C894 C895 1.474 . S
C894 C896 1.285 . S
C894 H914 0.929 . S
C895 C892 1.461 . S
C895 C894 1.474 . S
C896 C891 1.342 . S
C896 C894 1.285 . S
C896 H915 0.930 . S
C897 C900 1.424 . S
C897 C902 1.245 . S
C897 C903 1.428 . S
C898 C901 1.260 . S
C898 C902 1.477 . S
C898 H916 0.932 . S
C899 C900 1.384 . S
C899 C901 1.479 . S
C899 H917 0.929 . S
C900 C897 1.424 . S
C900 C899 1.384 . S
C900 H918 0.928 . S
C901 C898 1.260 . S
C901 C899 1.479 . S
C902 C897 1.245 . S
C902 C898 1.477 . S
C902 H919 0.932 . S
C903 U886 2.882 . S
C903 C897 1.428 . S
C903 O906 1.301 . S
C903 O907 1.282 . S
O904 U886 2.441 . S
O904 C890 1.249 . S
O905 U886 2.420 . S
O905 C890 1.202 . S
O906 U886 2.455 . S
O906 C903 1.301 . S
O907 U886 2.449 . S
O907 C903 1.282 . S
H908 C881 0.931 . S
H909 C883 0.929 . S
H910 C884 0.930 . S
H911 C885 0.931 . S
H912 C892 0.932 . S
H913 C893 0.930 . S
H914 C894 0.929 . S
H915 C896 0.930 . S
H916 C898 0.932 . S
H917 C899 0.929 . S
H918 C900 0.928 . S
H919 C902 0.932 . S
C920 C921 1.264 . S
C920 C925 1.479 . S
C920 C930 1.465 . S
C921 C920 1.264 . S
C921 C923 1.339 . S
C921 H948 0.931 . S
C922 C923 1.395 . S
C922 C924 1.320 . S
C923 C921 1.339 . S
C923 C922 1.395 . S
C923 H949 0.929 . S
C924 C922 1.320 . S
C924 C925 1.405 . S
C924 H950 0.930 . S
C925 C920 1.479 . S
C925 C924 1.405 . S
C925 H951 0.931 . S
U926 O927 2.454 . S
U926 O928 2.458 . S
U926 C929 2.984 . S
U926 C930 2.847 . S
U926 C943 2.882 . S
U926 O944 2.441 . S
U926 O945 2.420 . S
U926 O946 2.455 . S
U926 O947 2.449 . S
O927 U926 2.454 . S
O927 C929 1.353 . S
O928 U926 2.458 . S
O928 C929 1.286 . S
C929 U926 2.984 . S
C929 O927 1.353 . S
C929 O928 1.286 . S
C929 C931 1.363 . S
C930 C920 1.465 . S
C930 U926 2.847 . S
C930 O944 1.249 . S
C930 O945 1.202 . S
C931 C929 1.363 . S
C931 C933 1.408 . S
C931 C936 1.342 . S
C932 C933 1.310 . S
C932 C935 1.461 . S
C932 H952 0.880 1_556 S
C933 C931 1.408 . S
C933 C932 1.310 . S
C933 H953 0.930 . S
C934 C935 1.474 . S
C934 C936 1.285 . S
C934 H954 0.929 . S
C935 C932 1.461 . S
C935 C934 1.474 . S
C936 C931 1.342 . S
C936 C934 1.285 . S
C936 H955 0.930 . S
C937 C940 1.424 . S
C937 C942 1.245 . S
C937 C943 1.428 . S
C938 C941 1.260 . S
C938 C942 1.477 . S
C938 H956 0.932 . S
C939 C940 1.384 . S
C939 C941 1.479 . S
C939 H957 0.929 . S
C940 C937 1.424 . S
C940 C939 1.384 . S
C940 H958 0.928 . S
C941 C938 1.260 . S
C941 C939 1.479 . S
C942 C937 1.245 . S
C942 C938 1.477 . S
C942 H959 0.932 . S
C943 U926 2.882 . S
C943 C937 1.428 . S
C943 O946 1.301 . S
C943 O947 1.282 . S
O944 U926 2.441 . S
O944 C930 1.249 . S
O945 U926 2.420 . S
O945 C930 1.202 . S
O946 U926 2.455 . S
O946 C943 1.301 . S
O947 U926 2.449 . S
O947 C943 1.282 . S
H948 C921 0.931 . S
H949 C923 0.929 . S
H950 C924 0.930 . S
H951 C925 0.931 . S
H952 C932 0.880 1_554 S
H953 C933 0.930 . S
H954 C934 0.929 . S
H955 C936 0.930 . S
H956 C938 0.932 . S
H957 C939 0.929 . S
H958 C940 0.928 . S
H959 C942 0.932 . S
C960 C961 1.264 . S
C960 C965 1.479 . S
C960 C970 1.465 . S
C961 C960 1.264 . S
C961 C963 1.339 . S
C961 H988 0.931 . S
C962 C963 1.395 . S
C962 C964 1.320 . S
C963 C961 1.339 . S
C963 C962 1.395 . S
C963 H989 0.929 . S
C964 C962 1.320 . S
C964 C965 1.405 . S
C964 H990 0.930 . S
C965 C960 1.479 . S
C965 C964 1.405 . S
C965 H991 0.931 . S
U966 O967 2.454 . S
U966 O968 2.458 . S
U966 C969 2.984 . S
U966 C970 2.847 . S
U966 C983 2.882 . S
U966 O984 2.441 . S
U966 O985 2.420 . S
U966 O986 2.455 . S
U966 O987 2.449 . S
O967 U966 2.454 . S
O967 C969 1.353 . S
O968 U966 2.458 . S
O968 C969 1.286 . S
C969 U966 2.984 . S
C969 O967 1.353 . S
C969 O968 1.286 . S
C969 C971 1.363 . S
C970 C960 1.465 . S
C970 U966 2.847 . S
C970 O984 1.249 . S
C970 O985 1.202 . S
C971 C969 1.363 . S
C971 C973 1.408 . S
C971 C976 1.342 . S
C972 C973 1.310 . S
C972 C975 1.461 . S
C972 H992 0.932 . S
C973 C971 1.408 . S
C973 C972 1.310 . S
C973 H993 0.930 . S
C974 C975 1.474 . S
C974 C976 1.285 . S
C974 H994 0.929 . S
C975 C972 1.461 . S
C975 C974 1.474 . S
C976 C971 1.342 . S
C976 C974 1.285 . S
C976 H995 0.930 . S
C977 C980 1.424 . S
C977 C982 1.245 . S
C977 C983 1.428 . S
C978 C981 1.260 . S
C978 C982 1.477 . S
C978 H996 0.932 . S
C979 C980 1.384 . S
C979 C981 1.479 . S
C979 H997 0.929 . S
C980 C977 1.424 . S
C980 C979 1.384 . S
C980 H998 0.928 . S
C981 C978 1.260 . S
C981 C979 1.479 . S
C982 C977 1.245 . S
C982 C978 1.477 . S
C982 H999 0.932 . S
C983 U966 2.882 . S
C983 C977 1.428 . S
C983 O986 1.301 . S
C983 O987 1.282 . S
O984 U966 2.441 . S
O984 C970 1.249 . S
O985 U966 2.420 . S
O985 C970 1.202 . S
O986 U966 2.455 . S
O986 C983 1.301 . S
O987 U966 2.449 . S
O987 C983 1.282 . S
H988 C961 0.931 . S
H989 C963 0.929 . S
H990 C964 0.930 . S
H991 C965 0.931 . S
H992 C972 0.932 . S
H993 C973 0.930 . S
H994 C974 0.929 . S
H995 C976 0.930 . S
H996 C978 0.932 . S
H997 C979 0.929 . S
H998 C980 0.928 . S
H999 C982 0.932 . S
C1000 C1001 1.264 . S
C1000 C1005 1.479 . S
C1000 C1010 1.465 . S
C1001 C1000 1.264 . S
C1001 C1003 1.339 . S
C1001 H1028 0.931 . S
C1002 C1003 1.395 . S
C1002 C1004 1.320 . S
C1003 C1001 1.339 . S
C1003 C1002 1.395 . S
C1003 H1029 0.929 . S
C1004 C1002 1.320 . S
C1004 C1005 1.405 . S
C1004 H1030 0.930 . S
C1005 C1000 1.479 . S
C1005 C1004 1.405 . S
C1005 H1031 0.931 . S
U1006 O1007 2.454 . S
U1006 O1008 2.458 . S
U1006 C1009 2.984 . S
U1006 C1010 2.847 . S
U1006 C1023 2.882 . S
U1006 O1024 2.441 . S
U1006 O1025 2.420 . S
U1006 O1026 2.455 . S
U1006 O1027 2.449 . S
O1007 U1006 2.454 . S
O1007 C1009 1.353 . S
O1008 U1006 2.458 . S
O1008 C1009 1.286 . S
C1009 U1006 2.984 . S
C1009 O1007 1.353 . S
C1009 O1008 1.286 . S
C1009 C1011 1.363 . S
C1010 C1000 1.465 . S
C1010 U1006 2.847 . S
C1010 O1024 1.249 . S
C1010 O1025 1.202 . S
C1011 C1009 1.363 . S
C1011 C1013 1.408 . S
C1011 C1016 1.342 . S
C1012 C1013 1.310 . S
C1012 C1015 1.461 . S
C1012 H1032 0.932 1_556 S
C1013 C1011 1.408 . S
C1013 C1012 1.310 . S
C1013 H1033 0.930 . S
C1014 C1015 1.474 . S
C1014 C1016 1.285 . S
C1014 H1034 0.929 . S
C1015 C1012 1.461 . S
C1015 C1014 1.474 . S
C1016 C1011 1.342 . S
C1016 C1014 1.285 . S
C1016 H1035 0.930 . S
C1017 C1020 1.424 . S
C1017 C1022 1.245 . S
C1017 C1023 1.428 . S
C1018 C1021 1.260 . S
C1018 C1022 1.477 . S
C1018 H1036 0.932 . S
C1019 C1020 1.384 . S
C1019 C1021 1.479 . S
C1019 H1037 0.929 . S
C1020 C1017 1.424 . S
C1020 C1019 1.384 . S
C1020 H1038 0.928 . S
C1021 C1018 1.260 . S
C1021 C1019 1.479 . S
C1022 C1017 1.245 . S
C1022 C1018 1.477 . S
C1022 H1039 0.932 . S
C1023 U1006 2.882 . S
C1023 C1017 1.428 . S
C1023 O1026 1.301 . S
C1023 O1027 1.282 . S
O1024 U1006 2.441 . S
O1024 C1010 1.249 . S
O1025 U1006 2.420 . S
O1025 C1010 1.202 . S
O1026 U1006 2.455 . S
O1026 C1023 1.301 . S
O1027 U1006 2.449 . S
O1027 C1023 1.282 . S
H1028 C1001 0.931 . S
H1029 C1003 0.929 . S
H1030 C1004 0.930 . S
H1031 C1005 0.931 . S
H1032 C1012 0.932 1_554 S
H1033 C1013 0.930 . S
H1034 C1014 0.929 . S
H1035 C1016 0.930 . S
H1036 C1018 0.932 . S
H1037 C1019 0.929 . S
H1038 C1020 0.928 . S
H1039 C1022 0.932 . S
C1040 C1041 1.264 . S
C1040 C1045 1.479 . S
C1040 C1050 1.465 . S
C1041 C1040 1.264 . S
C1041 C1043 1.339 . S
C1041 H1068 0.931 . S
C1042 C1043 1.395 . S
C1042 C1044 1.320 . S
C1043 C1041 1.339 . S
C1043 C1042 1.395 . S
C1043 H1069 0.929 . S
C1044 C1042 1.320 . S
C1044 C1045 1.405 . S
C1044 H1070 0.930 . S
C1045 C1040 1.479 . S
C1045 C1044 1.405 . S
C1045 H1071 0.931 . S
U1046 O1047 2.454 . S
U1046 O1048 2.458 . S
U1046 C1049 2.984 . S
U1046 C1050 2.847 . S
U1046 C1063 2.882 . S
U1046 O1064 2.441 . S
U1046 O1065 2.420 . S
U1046 O1066 2.455 . S
U1046 O1067 2.449 . S
O1047 U1046 2.454 . S
O1047 C1049 1.353 . S
O1048 U1046 2.458 . S
O1048 C1049 1.286 . S
C1049 U1046 2.984 . S
C1049 O1047 1.353 . S
C1049 O1048 1.286 . S
C1049 C1051 1.363 . S
C1050 C1040 1.465 . S
C1050 U1046 2.847 . S
C1050 O1064 1.249 . S
C1050 O1065 1.202 . S
C1051 C1049 1.363 . S
C1051 C1053 1.408 . S
C1051 C1056 1.342 . S
C1052 C1053 1.310 . S
C1052 C1055 1.461 . S
C1052 H1072 0.932 . S
C1053 C1051 1.408 . S
C1053 C1052 1.310 . S
C1053 H1073 0.930 . S
C1054 C1055 1.474 . S
C1054 C1056 1.285 . S
C1054 H1074 0.929 . S
C1055 C1052 1.461 . S
C1055 C1054 1.474 . S
C1056 C1051 1.342 . S
C1056 C1054 1.285 . S
C1056 H1075 0.930 . S
C1057 C1060 1.424 . S
C1057 C1062 1.245 . S
C1057 C1063 1.428 . S
C1058 C1061 1.260 . S
C1058 C1062 1.477 . S
C1058 H1076 0.932 . S
C1059 C1060 1.384 . S
C1059 C1061 1.479 . S
C1059 H1077 0.929 . S
C1060 C1057 1.424 . S
C1060 C1059 1.384 . S
C1060 H1078 0.928 . S
C1061 C1058 1.260 . S
C1061 C1059 1.479 . S
C1062 C1057 1.245 . S
C1062 C1058 1.477 . S
C1062 H1079 0.932 . S
C1063 U1046 2.882 . S
C1063 C1057 1.428 . S
C1063 O1066 1.301 . S
C1063 O1067 1.282 . S
O1064 U1046 2.441 . S
O1064 C1050 1.249 . S
O1065 U1046 2.420 . S
O1065 C1050 1.202 . S
O1066 U1046 2.455 . S
O1066 C1063 1.301 . S
O1067 U1046 2.449 . S
O1067 C1063 1.282 . S
H1068 C1041 0.931 . S
H1069 C1043 0.929 . S
H1070 C1044 0.930 . S
H1071 C1045 0.931 . S
H1072 C1052 0.932 . S
H1073 C1053 0.930 . S
H1074 C1054 0.929 . S
H1075 C1056 0.930 . S
H1076 C1058 0.932 . S
H1077 C1059 0.929 . S
H1078 C1060 0.928 . S
H1079 C1062 0.932 . S
C1080 C1081 1.264 . S
C1080 C1085 1.479 . S
C1080 C1090 1.465 . S
C1081 C1080 1.264 . S
C1081 C1083 1.339 . S
C1081 H1108 0.931 . S
C1082 C1083 1.395 . S
C1082 C1084 1.320 . S
C1083 C1081 1.339 . S
C1083 C1082 1.395 . S
C1083 H1109 0.929 . S
C1084 C1082 1.320 . S
C1084 C1085 1.405 . S
C1084 H1110 0.930 . S
C1085 C1080 1.479 . S
C1085 C1084 1.405 . S
C1085 H1111 0.931 . S
U1086 O1087 2.454 . S
U1086 O1088 2.458 . S
U1086 C1089 2.984 . S
U1086 C1090 2.847 . S
U1086 C1103 2.882 . S
U1086 O1104 2.441 . S
U1086 O1105 2.420 . S
U1086 O1106 2.455 . S
U1086 O1107 2.449 . S
O1087 U1086 2.454 . S
O1087 C1089 1.353 . S
O1088 U1086 2.458 . S
O1088 C1089 1.286 . S
C1089 U1086 2.984 . S
C1089 O1087 1.353 . S
C1089 O1088 1.286 . S
C1089 C1091 1.363 . S
C1090 C1080 1.465 . S
C1090 U1086 2.847 . S
C1090 O1104 1.249 . S
C1090 O1105 1.202 . S
C1091 C1089 1.363 . S
C1091 C1093 1.408 . S
C1091 C1096 1.342 . S
C1092 C1093 1.310 . S
C1092 C1095 1.461 . S
C1092 H1112 0.932 . S
C1093 C1091 1.408 . S
C1093 C1092 1.310 . S
C1093 H1113 0.930 . S
C1094 C1095 1.474 . S
C1094 C1096 1.285 . S
C1094 H1114 0.929 . S
C1095 C1092 1.461 . S
C1095 C1094 1.474 . S
C1096 C1091 1.342 . S
C1096 C1094 1.285 . S
C1096 H1115 0.930 . S
C1097 C1100 1.424 . S
C1097 C1102 1.245 . S
C1097 C1103 1.428 . S
C1098 C1101 1.260 . S
C1098 C1102 1.477 . S
C1098 H1116 0.932 . S
C1099 C1100 1.384 . S
C1099 C1101 1.479 . S
C1099 H1117 0.929 . S
C1100 C1097 1.424 . S
C1100 C1099 1.384 . S
C1100 H1118 0.928 . S
C1101 C1098 1.260 . S
C1101 C1099 1.479 . S
C1102 C1097 1.245 . S
C1102 C1098 1.477 . S
C1102 H1119 0.932 . S
C1103 U1086 2.882 . S
C1103 C1097 1.428 . S
C1103 O1106 1.301 . S
C1103 O1107 1.282 . S
O1104 U1086 2.441 . S
O1104 C1090 1.249 . S
O1105 U1086 2.420 . S
O1105 C1090 1.202 . S
O1106 U1086 2.455 . S
O1106 C1103 1.301 . S
O1107 U1086 2.449 . S
O1107 C1103 1.282 . S
H1108 C1081 0.931 . S
H1109 C1083 0.929 . S
H1110 C1084 0.930 . S
H1111 C1085 0.931 . S
H1112 C1092 0.932 . S
H1113 C1093 0.930 . S
H1114 C1094 0.929 . S
H1115 C1096 0.930 . S
H1116 C1098 0.932 . S
H1117 C1099 0.929 . S
H1118 C1100 0.928 . S
H1119 C1102 0.932 . S
C1120 C1121 1.264 . S
C1120 C1125 1.479 . S
C1120 C1130 1.465 . S
C1121 C1120 1.264 . S
C1121 C1123 1.339 . S
C1121 H1148 0.931 . S
C1122 C1123 1.395 . S
C1122 C1124 1.320 . S
C1123 C1121 1.339 . S
C1123 C1122 1.395 . S
C1123 H1149 0.929 . S
C1124 C1122 1.320 . S
C1124 C1125 1.405 . S
C1124 H1150 0.930 . S
C1125 C1120 1.479 . S
C1125 C1124 1.405 . S
C1125 H1151 0.931 . S
U1126 O1127 2.454 . S
U1126 O1128 2.458 . S
U1126 C1129 2.984 . S
U1126 C1130 2.847 . S
U1126 C1143 2.882 . S
U1126 O1144 2.441 . S
U1126 O1145 2.420 . S
U1126 O1146 2.455 . S
U1126 O1147 2.449 . S
O1127 U1126 2.454 . S
O1127 C1129 1.353 . S
O1128 U1126 2.458 . S
O1128 C1129 1.286 . S
C1129 U1126 2.984 . S
C1129 O1127 1.353 . S
C1129 O1128 1.286 . S
C1129 C1131 1.363 . S
C1130 C1120 1.465 . S
C1130 U1126 2.847 . S
C1130 O1144 1.249 . S
C1130 O1145 1.202 . S
C1131 C1129 1.363 . S
C1131 C1133 1.408 . S
C1131 C1136 1.342 . S
C1132 C1133 1.310 . S
C1132 C1135 1.461 . S
C1132 H1152 0.932 . S
C1133 C1131 1.408 . S
C1133 C1132 1.310 . S
C1133 H1153 0.930 . S
C1134 C1135 1.474 . S
C1134 C1136 1.285 . S
C1134 H1154 0.929 . S
C1135 C1132 1.461 . S
C1135 C1134 1.474 . S
C1136 C1131 1.342 . S
C1136 C1134 1.285 . S
C1136 H1155 0.930 . S
C1137 C1140 1.424 . S
C1137 C1142 1.245 . S
C1137 C1143 1.428 . S
C1138 C1141 1.260 . S
C1138 C1142 1.477 . S
C1138 H1156 0.932 . S
C1139 C1140 1.384 . S
C1139 C1141 1.479 . S
C1139 H1157 0.929 . S
C1140 C1137 1.424 . S
C1140 C1139 1.384 . S
C1140 H1158 0.928 . S
C1141 C1138 1.260 . S
C1141 C1139 1.479 . S
C1142 C1137 1.245 . S
C1142 C1138 1.477 . S
C1142 H1159 0.932 . S
C1143 U1126 2.882 . S
C1143 C1137 1.428 . S
C1143 O1146 1.301 . S
C1143 O1147 1.282 . S
O1144 U1126 2.441 . S
O1144 C1130 1.249 . S
O1145 U1126 2.420 . S
O1145 C1130 1.202 . S
O1146 U1126 2.455 . S
O1146 C1143 1.301 . S
O1147 U1126 2.449 . S
O1147 C1143 1.282 . S
H1148 C1121 0.931 . S
H1149 C1123 0.929 . S
H1150 C1124 0.930 . S
H1151 C1125 0.931 . S
H1152 C1132 0.932 . S
H1153 C1133 0.930 . S
H1154 C1134 0.929 . S
H1155 C1136 0.930 . S
H1156 C1138 0.932 . S
H1157 C1139 0.929 . S
H1158 C1140 0.928 . S
H1159 C1142 0.932 . S
C1160 C1161 1.264 . S
C1160 C1165 1.479 . S
C1160 C1170 1.465 . S
C1161 C1160 1.264 . S
C1161 C1163 1.339 . S
C1161 H1188 0.931 . S
C1162 C1163 1.395 . S
C1162 C1164 1.320 . S
C1163 C1161 1.339 . S
C1163 C1162 1.395 . S
C1163 H1189 0.929 . S
C1164 C1162 1.320 . S
C1164 C1165 1.405 . S
C1164 H1190 0.930 . S
C1165 C1160 1.479 . S
C1165 C1164 1.405 . S
C1165 H1191 0.931 . S
U1166 O1167 2.454 . S
U1166 O1168 2.458 . S
U1166 C1169 2.984 . S
U1166 C1170 2.847 . S
U1166 C1183 2.882 . S
U1166 O1184 2.441 . S
U1166 O1185 2.420 . S
U1166 O1186 2.455 . S
U1166 O1187 2.449 . S
O1167 U1166 2.454 . S
O1167 C1169 1.353 . S
O1168 U1166 2.458 . S
O1168 C1169 1.286 . S
C1169 U1166 2.984 . S
C1169 O1167 1.353 . S
C1169 O1168 1.286 . S
C1169 C1171 1.363 . S
C1170 C1160 1.465 . S
C1170 U1166 2.847 . S
C1170 O1184 1.249 . S
C1170 O1185 1.202 . S
C1171 C1169 1.363 . S
C1171 C1173 1.408 . S
C1171 C1176 1.342 . S
C1172 C1173 1.310 . S
C1172 C1175 1.461 . S
C1172 H1192 0.932 . S
C1173 C1171 1.408 . S
C1173 C1172 1.310 . S
C1173 H1193 0.930 . S
C1174 C1175 1.474 . S
C1174 C1176 1.285 . S
C1174 H1194 0.929 . S
C1175 C1172 1.461 . S
C1175 C1174 1.474 . S
C1176 C1171 1.342 . S
C1176 C1174 1.285 . S
C1176 H1195 0.930 . S
C1177 C1180 1.424 . S
C1177 C1182 1.245 . S
C1177 C1183 1.428 . S
C1178 C1181 1.260 . S
C1178 C1182 1.477 . S
C1178 H1196 0.932 . S
C1179 C1180 1.384 . S
C1179 C1181 1.479 . S
C1179 H1197 0.929 . S
C1180 C1177 1.424 . S
C1180 C1179 1.384 . S
C1180 H1198 0.928 . S
C1181 C1178 1.260 . S
C1181 C1179 1.479 . S
C1182 C1177 1.245 . S
C1182 C1178 1.477 . S
C1182 H1199 0.932 . S
C1183 U1166 2.882 . S
C1183 C1177 1.428 . S
C1183 O1186 1.301 . S
C1183 O1187 1.282 . S
O1184 U1166 2.441 . S
O1184 C1170 1.249 . S
O1185 U1166 2.420 . S
O1185 C1170 1.202 . S
O1186 U1166 2.455 . S
O1186 C1183 1.301 . S
O1187 U1166 2.449 . S
O1187 C1183 1.282 . S
H1188 C1161 0.931 . S
H1189 C1163 0.929 . S
H1190 C1164 0.930 . S
H1191 C1165 0.931 . S
H1192 C1172 0.932 . S
H1193 C1173 0.930 . S
H1194 C1174 0.929 . S
H1195 C1176 0.930 . S
H1196 C1178 0.932 . S
H1197 C1179 0.929 . S
H1198 C1180 0.928 . S
H1199 C1182 0.932 . S
C1200 C1201 1.264 . S
C1200 C1205 1.479 . S
C1200 C1210 1.465 . S
C1201 C1200 1.264 . S
C1201 C1203 1.339 . S
C1201 H1228 0.931 . S
C1202 C1203 1.395 . S
C1202 C1204 1.320 . S
C1203 C1201 1.339 . S
C1203 C1202 1.395 . S
C1203 H1229 0.929 . S
C1204 C1202 1.320 . S
C1204 C1205 1.405 . S
C1204 H1230 0.930 . S
C1205 C1200 1.479 . S
C1205 C1204 1.405 . S
C1205 H1231 0.931 . S
U1206 O1207 2.454 . S
U1206 O1208 2.458 . S
U1206 C1209 2.984 . S
U1206 C1210 2.847 . S
U1206 C1223 2.882 . S
U1206 O1224 2.441 . S
U1206 O1225 2.420 . S
U1206 O1226 2.455 . S
U1206 O1227 2.449 . S
O1207 U1206 2.454 . S
O1207 C1209 1.353 . S
O1208 U1206 2.458 . S
O1208 C1209 1.286 . S
C1209 U1206 2.984 . S
C1209 O1207 1.353 . S
C1209 O1208 1.286 . S
C1209 C1211 1.363 . S
C1210 C1200 1.465 . S
C1210 U1206 2.847 . S
C1210 O1224 1.249 . S
C1210 O1225 1.202 . S
C1211 C1209 1.363 . S
C1211 C1213 1.408 . S
C1211 C1216 1.342 . S
C1212 C1213 1.310 . S
C1212 C1215 1.461 . S
C1212 H1232 0.932 . S
C1213 C1211 1.408 . S
C1213 C1212 1.310 . S
C1213 H1233 0.930 . S
C1214 C1215 1.474 . S
C1214 C1216 1.285 . S
C1214 H1234 0.929 . S
C1215 C1212 1.461 . S
C1215 C1214 1.474 . S
C1216 C1211 1.342 . S
C1216 C1214 1.285 . S
C1216 H1235 0.930 . S
C1217 C1220 1.424 . S
C1217 C1222 1.245 . S
C1217 C1223 1.428 . S
C1218 C1221 1.260 . S
C1218 C1222 1.477 . S
C1218 H1236 0.932 . S
C1219 C1220 1.384 . S
C1219 C1221 1.479 . S
C1219 H1237 0.929 . S
C1220 C1217 1.424 . S
C1220 C1219 1.384 . S
C1220 H1238 0.928 . S
C1221 C1218 1.260 . S
C1221 C1219 1.479 . S
C1222 C1217 1.245 . S
C1222 C1218 1.477 . S
C1222 H1239 0.932 . S
C1223 U1206 2.882 . S
C1223 C1217 1.428 . S
C1223 O1226 1.301 . S
C1223 O1227 1.282 . S
O1224 U1206 2.441 . S
O1224 C1210 1.249 . S
O1225 U1206 2.420 . S
O1225 C1210 1.202 . S
O1226 U1206 2.455 . S
O1226 C1223 1.301 . S
O1227 U1206 2.449 . S
O1227 C1223 1.282 . S
H1228 C1201 0.931 . S
H1229 C1203 0.929 . S
H1230 C1204 0.930 . S
H1231 C1205 0.931 . S
H1232 C1212 0.932 . S
H1233 C1213 0.930 . S
H1234 C1214 0.929 . S
H1235 C1216 0.930 . S
H1236 C1218 0.932 . S
H1237 C1219 0.929 . S
H1238 C1220 0.928 . S
H1239 C1222 0.932 . S
C1240 C1241 1.264 . S
C1240 C1245 1.479 . S
C1240 C1250 1.465 . S
C1241 C1240 1.264 . S
C1241 C1243 1.339 . S
C1241 H1268 0.931 . S
C1242 C1243 1.395 . S
C1242 C1244 1.320 . S
C1243 C1241 1.339 . S
C1243 C1242 1.395 . S
C1243 H1269 0.929 . S
C1244 C1242 1.320 . S
C1244 C1245 1.405 . S
C1244 H1270 0.930 . S
C1245 C1240 1.479 . S
C1245 C1244 1.405 . S
C1245 H1271 0.931 . S
U1246 O1247 2.454 . S
U1246 O1248 2.458 . S
U1246 C1249 2.984 . S
U1246 C1250 2.847 . S
U1246 C1263 2.882 . S
U1246 O1264 2.441 . S
U1246 O1265 2.420 . S
U1246 O1266 2.455 . S
U1246 O1267 2.449 . S
O1247 U1246 2.454 . S
O1247 C1249 1.353 . S
O1248 U1246 2.458 . S
O1248 C1249 1.286 . S
C1249 U1246 2.984 . S
C1249 O1247 1.353 . S
C1249 O1248 1.286 . S
C1249 C1251 1.363 . S
C1250 C1240 1.465 . S
C1250 U1246 2.847 . S
C1250 O1264 1.249 . S
C1250 O1265 1.202 . S
C1251 C1249 1.363 . S
C1251 C1253 1.408 . S
C1251 C1256 1.342 . S
C1252 C1253 1.310 . S
C1252 C1255 1.461 . S
C1252 H1272 0.932 1_554 S
C1253 C1251 1.408 . S
C1253 C1252 1.310 . S
C1253 H1273 0.930 . S
C1254 C1255 1.474 . S
C1254 C1256 1.285 . S
C1254 H1274 0.929 . S
C1255 C1252 1.461 . S
C1255 C1254 1.474 . S
C1256 C1251 1.342 . S
C1256 C1254 1.285 . S
C1256 H1275 0.930 . S
C1257 C1260 1.424 . S
C1257 C1262 1.245 . S
C1257 C1263 1.428 . S
C1258 C1261 1.260 . S
C1258 C1262 1.477 . S
C1258 H1276 0.932 . S
C1259 C1260 1.384 . S
C1259 C1261 1.479 . S
C1259 H1277 0.929 . S
C1260 C1257 1.424 . S
C1260 C1259 1.384 . S
C1260 H1278 0.928 . S
C1261 C1258 1.260 . S
C1261 C1259 1.479 . S
C1262 C1257 1.245 . S
C1262 C1258 1.477 . S
C1262 H1279 0.932 . S
C1263 U1246 2.882 . S
C1263 C1257 1.428 . S
C1263 O1266 1.301 . S
C1263 O1267 1.282 . S
O1264 U1246 2.441 . S
O1264 C1250 1.249 . S
O1265 U1246 2.420 . S
O1265 C1250 1.202 . S
O1266 U1246 2.455 . S
O1266 C1263 1.301 . S
O1267 U1246 2.449 . S
O1267 C1263 1.282 . S
H1268 C1241 0.931 . S
H1269 C1243 0.929 . S
H1270 C1244 0.930 . S
H1271 C1245 0.931 . S
H1272 C1252 0.932 1_556 S
H1273 C1253 0.930 . S
H1274 C1254 0.929 . S
H1275 C1256 0.930 . S
H1276 C1258 0.932 . S
H1277 C1259 0.929 . S
H1278 C1260 0.928 . S
H1279 C1262 0.932 . S
C255 C15 1.549 . S
C295 C55 1.830 1_545 S
C175 C95 1.549 . S
C135 C215 1.830 1_544 S
C575 C335 1.541 . S
C615 C375 1.819 1_565 S
C495 C415 1.541 . S
C535 C455 1.819 1_544 S
C655 C895 1.849 . S
C935 C695 1.625 1_556 S
C735 C815 1.849 . S
C855 C775 1.625 . S
C975 C1215 1.837 . S
C1015 C1255 1.612 1_556 S
C1055 C1135 1.837 . S
C1095 C1175 1.612 . S
C301 C21 1.858 . S
C61 C181 1.859 . S
C221 C101 1.859 . S
C141 C261 1.858 . S
C621 C341 1.588 . S
C381 C501 1.589 . S
C541 C421 1.589 . S
C461 C581 1.588 . S
C661 C941 2.374 . S
C701 C821 2.374 . S
C861 C741 2.374 . S
C781 C901 2.374 . S
C1261 C981 2.038 . S
C1021 C1141 2.038 . S
C1061 C1181 2.038 . S
C1101 C1221 2.038 . S
C2 C482 1.513 1_455 S
C42 C1162 1.763 . S
C82 C562 1.513 . S
C122 C1242 1.763 . S
C322 C162 1.513 1_655 S
C202 C1002 1.763 . S
C242 C402 1.513 . S
C1082 C282 1.763 . S
C362 C842 1.801 . S
C922 C442 1.801 . S
C682 C522 1.801 . S
C602 C762 1.801 . S
C642 C1122 1.788 . S
C1202 C722 1.788 1_455 S
C962 C802 1.788 . S
C882 C1042 1.788 1_655 S
