# Generated by pormake.
# Topology neb, (4)-cn, num edge types: 1
# Building blocks:
#     Node 0, Type 0, BuildingBlock: QUQFOY_clean_sbu_3, # of connection points: 4
#     Node 1, Type 0, BuildingBlock: QUQFOY_clean_sbu_3, # of connection points: 4
#     Node 2, Type 0, BuildingBlock: QUQFOY_clean_sbu_3, # of connection points: 4
#     Node 3, Type 0, BuildingBlock: QUQFOY_clean_sbu_3, # of connection points: 4
#     Node 4, Type 0, BuildingBlock: QUQFOY_clean_sbu_3, # of connection points: 4
#     Node 5, Type 0, BuildingBlock: QUQFOY_clean_sbu_3, # of connection points: 4
#     Node 6, Type 0, BuildingBlock: QUQFOY_clean_sbu_3, # of connection points: 4
#     Node 7, Type 0, BuildingBlock: QUQFOY_clean_sbu_3, # of connection points: 4
#     Node 8, Type 0, BuildingBlock: QUQFOY_clean_sbu_3, # of connection points: 4
#     Node 9, Type 0, BuildingBlock: QUQFOY_clean_sbu_3, # of connection points: 4
#     Node 10, Type 0, BuildingBlock: QUQFOY_clean_sbu_3, # of connection points: 4
#     Node 11, Type 0, BuildingBlock: QUQFOY_clean_sbu_3, # of connection points: 4
#     Node 12, Type 0, BuildingBlock: QUQFOY_clean_sbu_3, # of connection points: 4
#     Node 13, Type 0, BuildingBlock: QUQFOY_clean_sbu_3, # of connection points: 4
#     Node 14, Type 0, BuildingBlock: QUQFOY_clean_sbu_3, # of connection points: 4
#     Node 15, Type 0, BuildingBlock: QUQFOY_clean_sbu_3, # of connection points: 4
#     Edge 16, Type (0, 0), BuildingBlock: ZUJKAS_clean_linker_0, # of connection points: 2
#     Edge 17, Type (0, 0), BuildingBlock: ZUJKAS_clean_linker_0, # of connection points: 2
#     Edge 18, Type (0, 0), BuildingBlock: ZUJKAS_clean_linker_0, # of connection points: 2
#     Edge 19, Type (0, 0), BuildingBlock: ZUJKAS_clean_linker_0, # of connection points: 2
#     Edge 20, Type (0, 0), BuildingBlock: ZUJKAS_clean_linker_0, # of connection points: 2
#     Edge 21, Type (0, 0), BuildingBlock: ZUJKAS_clean_linker_0, # of connection points: 2
#     Edge 22, Type (0, 0), BuildingBlock: ZUJKAS_clean_linker_0, # of connection points: 2
#     Edge 23, Type (0, 0), BuildingBlock: ZUJKAS_clean_linker_0, # of connection points: 2
#     Edge 24, Type (0, 0), BuildingBlock: ZUJKAS_clean_linker_0, # of connection points: 2
#     Edge 25, Type (0, 0), BuildingBlock: ZUJKAS_clean_linker_0, # of connection points: 2
#     Edge 26, Type (0, 0), BuildingBlock: ZUJKAS_clean_linker_0, # of connection points: 2
#     Edge 27, Type (0, 0), BuildingBlock: ZUJKAS_clean_linker_0, # of connection points: 2
#     Edge 28, Type (0, 0), BuildingBlock: ZUJKAS_clean_linker_0, # of connection points: 2
#     Edge 29, Type (0, 0), BuildingBlock: ZUJKAS_clean_linker_0, # of connection points: 2
#     Edge 30, Type (0, 0), BuildingBlock: ZUJKAS_clean_linker_0, # of connection points: 2
#     Edge 31, Type (0, 0), BuildingBlock: ZUJKAS_clean_linker_0, # of connection points: 2
#     Edge 32, Type (0, 0), BuildingBlock: ZUJKAS_clean_linker_0, # of connection points: 2
#     Edge 33, Type (0, 0), BuildingBlock: ZUJKAS_clean_linker_0, # of connection points: 2
#     Edge 34, Type (0, 0), BuildingBlock: ZUJKAS_clean_linker_0, # of connection points: 2
#     Edge 35, Type (0, 0), BuildingBlock: ZUJKAS_clean_linker_0, # of connection points: 2
#     Edge 36, Type (0, 0), BuildingBlock: ZUJKAS_clean_linker_0, # of connection points: 2
#     Edge 37, Type (0, 0), BuildingBlock: ZUJKAS_clean_linker_0, # of connection points: 2
#     Edge 38, Type (0, 0), BuildingBlock: ZUJKAS_clean_linker_0, # of connection points: 2
#     Edge 39, Type (0, 0), BuildingBlock: ZUJKAS_clean_linker_0, # of connection points: 2
#     Edge 40, Type (0, 0), BuildingBlock: ZUJKAS_clean_linker_0, # of connection points: 2
#     Edge 41, Type (0, 0), BuildingBlock: ZUJKAS_clean_linker_0, # of connection points: 2
#     Edge 42, Type (0, 0), BuildingBlock: ZUJKAS_clean_linker_0, # of connection points: 2
#     Edge 43, Type (0, 0), BuildingBlock: ZUJKAS_clean_linker_0, # of connection points: 2
#     Edge 44, Type (0, 0), BuildingBlock: ZUJKAS_clean_linker_0, # of connection points: 2
#     Edge 45, Type (0, 0), BuildingBlock: ZUJKAS_clean_linker_0, # of connection points: 2
#     Edge 46, Type (0, 0), BuildingBlock: ZUJKAS_clean_linker_0, # of connection points: 2
#     Edge 47, Type (0, 0), BuildingBlock: ZUJKAS_clean_linker_0, # of connection points: 2
# Relax obj value: 0.002
# Max RMSD: 0.028
# Mean RMSD: 0.028
data_MOF--net-neb--node1-QUQFOY_clean_sbu_3--edge1-ZUJKAS_clean_linker_0
_symmetry_space_group_name_H-M    P1
_symmetry_Int_Tables_number       1
_symmetry_cell_setting            triclinic
loop_
_symmetry_equiv_pos_as_xyz
'x, y, z'
_cell_length_a     56.012112
_cell_length_b     29.761912
_cell_length_c     102.66249
_cell_angle_alpha  90.008044
_cell_angle_beta   92.759218
_cell_angle_gamma 89.942292
loop_
_atom_site_label
_atom_site_type_symbol
_atom_site_fract_x
_atom_site_fract_y
_atom_site_fract_z
_atom_type_partial_charge
C0 C 0.17973 0.0979 0.44462 0.0
O1 O 0.19143 0.07459 0.43677 0.0
Cd2 Cd 0.17184 0.0346 0.41886 0.0
O3 O 0.157 0.09635 0.44438 0.0
Cd4 Cd 0.12364 0.05476 0.4334 0.0
C5 C 0.13275 0.11646 0.40668 0.0
O6 O 0.14296 0.98464 0.42711 0.0
O7 O 0.10872 0.00035 0.4176 0.0
O8 O 0.10835 0.03142 0.4541 0.0
C9 C 0.12601 0.97306 0.41915 0.0
O10 O 0.15122 0.09205 0.40538 0.0
C11 C 0.08786 0.04916 0.45212 0.0
O12 O 0.11985 0.11174 0.41647 0.0
O13 O 0.08417 0.07047 0.44149 0.0
C14 C 0.05912 0.10245 0.78821 0.0
O15 O 0.04707 0.08722 0.79739 0.0
Cd16 Cd 0.06418 0.04498 0.81558 0.0
O17 O 0.08137 0.09406 0.78789 0.0
Cd18 Cd 0.11251 0.05239 0.80068 0.0
C19 C 0.1068 0.12051 0.82665 0.0
O20 O 0.08991 0.98716 0.80809 0.0
O21 O 0.12467 -0.00059 0.81744 0.0
O22 O 0.12907 0.02185 0.781 0.0
C23 C 0.10638 0.97449 0.81622 0.0
O24 O 0.08764 0.09905 0.82864 0.0
C25 C 0.14981 0.03817 0.78322 0.0
O26 O 0.11864 0.11259 0.81662 0.0
O27 O 0.15303 0.06178 0.79346 0.0
C28 C 0.79952 0.90168 0.53427 0.0
O29 O 0.78761 0.91759 0.54341 0.0
Cd30 Cd 0.80664 0.94642 0.56318 0.0
O31 O 0.82223 0.90376 0.53492 0.0
Cd32 Cd 0.85443 0.93383 0.54965 0.0
C33 C 0.84244 0.85649 0.57202 0.0
O34 O 0.83699 0.00121 0.55946 0.0
O35 O 0.86748 0.97026 0.56963 0.0
O36 O 0.87364 0.97067 0.53176 0.0
C37 C 0.85284 0.00272 0.56873 0.0
O38 O 0.82471 0.88156 0.57441 0.0
C39 C 0.89347 0.95028 0.53347 0.0
O40 O 0.85575 0.86552 0.56266 0.0
O41 O 0.89504 0.92161 0.54264 0.0
C42 C 0.93758 0.89275 0.19592 0.0
O43 O 0.94843 0.91007 0.18657 0.0
Cd44 Cd 0.92837 0.94771 0.16832 0.0
O45 O 0.91499 0.89634 0.19636 0.0
Cd46 Cd 0.88114 0.93038 0.18373 0.0
C47 C 0.89015 0.86307 0.15805 0.0
O48 O 0.89931 -0.00061 0.17566 0.0
O49 O 0.86541 0.97887 0.16663 0.0
O50 O 0.86479 0.9596 0.20355 0.0
C51 C 0.88203 0.0077 0.16754 0.0
O52 O 0.90751 0.88907 0.15575 0.0
C53 C 0.84451 0.94095 0.2018 0.0
O54 O 0.87843 0.86775 0.1683 0.0
O55 O 0.84149 0.91612 0.19178 0.0
C56 C 0.18505 0.60077 0.9448 0.0
O57 O 0.19621 0.58587 0.93522 0.0
Cd58 Cd 0.17748 0.54517 0.9172 0.0
O59 O 0.16278 0.59324 0.94556 0.0
Cd60 Cd 0.13033 0.55388 0.93308 0.0
C61 C 0.13474 0.6218 0.90694 0.0
O62 O 0.15196 0.48808 0.92523 0.0
O63 O 0.11677 0.50103 0.91651 0.0
O64 O 0.11432 0.52312 0.95289 0.0
C65 C 0.13496 0.4757 0.91742 0.0
O66 O 0.15361 0.59991 0.90459 0.0
C67 C 0.09378 0.54076 0.95107 0.0
O68 O 0.12356 0.6142 0.91723 0.0
O69 O 0.09045 0.56523 0.94101 0.0
C70 C 0.05876 0.59702 0.2878 0.0
O71 O 0.04733 0.57906 0.29683 0.0
Cd72 Cd 0.06627 0.53807 0.31476 0.0
O73 O 0.08132 0.59236 0.28754 0.0
Cd74 Cd 0.11427 0.5549 0.3001 0.0
C75 C 0.10535 0.61877 0.32666 0.0
O76 O 0.09445 0.48552 0.30675 0.0
O77 O 0.12884 0.501 0.3161 0.0
O78 O 0.13143 0.52964 0.28003 0.0
C79 C 0.11152 0.47384 0.31462 0.0
O80 O 0.0871 0.59428 0.32832 0.0
C81 C 0.15163 0.5481 0.28232 0.0
O82 O 0.11771 0.61379 0.31666 0.0
O83 O 0.15428 0.57067 0.29279 0.0
C84 C 0.80587 0.38936 0.03546 0.0
O85 O 0.79411 0.40685 0.04443 0.0
Cd86 Cd 0.81313 0.44239 0.06327 0.0
O87 O 0.82851 0.39299 0.03569 0.0
Cd88 Cd 0.86079 0.42822 0.04925 0.0
C89 C 0.85073 0.35692 0.07362 0.0
O90 O 0.84252 0.4969 0.05777 0.0
O91 O 0.87419 0.47087 0.06806 0.0
O92 O 0.87927 0.46097 0.03048 0.0
C93 C 0.85873 0.50185 0.06675 0.0
O94 O 0.83278 0.38179 0.07573 0.0
C95 C 0.89918 0.44104 0.0324 0.0
O96 O 0.86339 0.36394 0.06385 0.0
O97 O 0.90111 0.41451 0.04208 0.0
C98 C 0.94266 0.40183 0.69589 0.0
O99 O 0.95281 0.41814 0.68616 0.0
Cd100 Cd 0.93088 0.45116 0.66773 0.0
O101 O 0.92008 0.40442 0.69657 0.0
Cd102 Cd 0.88521 0.43467 0.684 0.0
C103 C 0.89394 0.36253 0.65944 0.0
O104 O 0.90131 0.50336 0.67441 0.0
O105 O 0.86767 0.47793 0.66623 0.0
O106 O 0.86919 0.46713 0.70352 0.0
C107 C 0.8834 0.50851 0.66646 0.0
O108 O 0.91076 0.38879 0.65644 0.0
C109 C 0.84942 0.44631 0.70251 0.0
O110 O 0.88259 0.36896 0.66975 0.0
O111 O 0.84654 0.41906 0.69304 0.0
C112 C 0.68638 0.08225 0.94699 0.0
O113 O 0.697 0.0627 0.93793 0.0
Cd114 Cd 0.67566 0.03105 0.91915 0.0
O115 O 0.66366 0.08318 0.94684 0.0
Cd116 Cd 0.62912 0.05566 0.93348 0.0
C117 C 0.64357 0.12467 0.90934 0.0
O118 O 0.64316 0.98388 0.92484 0.0
O119 O 0.61277 0.01551 0.91477 0.0
O120 O 0.61045 0.02683 0.95263 0.0
C121 C 0.62655 0.98181 0.91598 0.0
O122 O 0.65947 0.0955 0.90699 0.0
C123 C 0.59122 0.04915 0.95092 0.0
O124 O 0.63083 0.12091 0.91923 0.0
O125 O 0.58977 0.07549 0.94117 0.0
C126 C 0.55724 0.09987 0.28894 0.0
O127 O 0.54601 0.0811 0.29792 0.0
Cd128 Cd 0.5647 0.03554 0.31503 0.0
O129 O 0.5797 0.09441 0.28831 0.0
Cd130 Cd 0.61261 0.05452 0.30012 0.0
C131 C 0.60497 0.11243 0.32788 0.0
O132 O 0.5924 0.98477 0.30601 0.0
O133 O 0.62692 -0.00179 0.31547 0.0
O134 O 0.62906 0.03111 0.27971 0.0
C135 C 0.60935 0.97174 0.31377 0.0
O136 O 0.58715 0.08678 0.32948 0.0
C137 C 0.64958 0.0481 0.28211 0.0
O138 O 0.61633 0.11115 0.31742 0.0
O139 O 0.65271 0.06946 0.29277 0.0
C140 C 0.30415 0.89406 0.03813 0.0
O141 O 0.29327 0.9093 0.04777 0.0
Cd142 Cd 0.31306 0.94816 0.06584 0.0
O143 O 0.3265 0.90047 0.03736 0.0
Cd144 Cd 0.35961 0.93788 0.04979 0.0
C145 C 0.35467 0.86877 0.0756 0.0
O146 O 0.33937 0.00468 0.05816 0.0
O147 O 0.37445 0.98861 0.06655 0.0
O148 O 0.37526 0.96917 0.02997 0.0
C149 C 0.35684 0.01537 0.06588 0.0
O150 O 0.33617 0.89151 0.07811 0.0
C151 C 0.39568 0.95081 0.03149 0.0
O152 O 0.36585 0.87631 0.06531 0.0
O153 O 0.39909 0.92559 0.04139 0.0
C154 C 0.43637 0.88544 0.69536 0.0
O155 O 0.44765 0.90302 0.68621 0.0
Cd156 Cd 0.42884 0.94469 0.66832 0.0
O157 O 0.41388 0.89081 0.69586 0.0
Cd158 Cd 0.3807 0.92853 0.68371 0.0
C159 C 0.38913 0.86349 0.65738 0.0
O160 O 0.40061 -0.00342 0.67634 0.0
O161 O 0.36597 0.98098 0.66733 0.0
O162 O 0.36419 0.95492 0.70383 0.0
C163 C 0.38362 0.00756 0.66833 0.0
O164 O 0.40692 0.88864 0.65523 0.0
C165 C 0.34387 0.93668 0.70174 0.0
O166 O 0.37746 0.86804 0.66765 0.0
O167 O 0.34087 0.91379 0.69134 0.0
C168 C 0.68056 0.60101 0.44341 0.0
O169 O 0.69161 0.58154 0.43449 0.0
Cd170 Cd 0.67153 0.53848 0.41739 0.0
O171 O 0.65808 0.59612 0.44407 0.0
Cd172 Cd 0.62504 0.55548 0.43252 0.0
C173 C 0.63145 0.6177 0.40559 0.0
O174 O 0.64431 0.4852 0.42597 0.0
O175 O 0.61066 0.50297 0.41611 0.0
O176 O 0.60903 0.52946 0.45283 0.0
C177 C 0.62726 0.4744 0.41798 0.0
O178 O 0.64962 0.59314 0.40371 0.0
C179 C 0.5886 0.54739 0.45085 0.0
O180 O 0.61989 0.61354 0.4159 0.0
O181 O 0.5853 0.57008 0.44043 0.0
C182 C 0.55681 0.58087 0.78439 0.0
O183 O 0.54596 0.56161 0.79341 0.0
Cd184 Cd 0.56657 0.53049 0.81251 0.0
O185 O 0.57952 0.58214 0.78477 0.0
Cd186 Cd 0.61374 0.5557 0.79858 0.0
C187 C 0.59834 0.62414 0.82268 0.0
O188 O 0.59967 0.48414 0.8073 0.0
O189 O 0.62971 0.51638 0.81749 0.0
O190 O 0.63309 0.52568 0.77982 0.0
C191 C 0.61597 0.48267 0.81635 0.0
O192 O 0.58245 0.59477 0.82481 0.0
C193 C 0.65214 0.54847 0.78149 0.0
O194 O 0.61134 0.62094 0.81287 0.0
O195 O 0.65319 0.57572 0.79103 0.0
C196 C 0.30241 0.38564 0.53798 0.0
O197 O 0.29252 0.39778 0.54827 0.0
Cd198 Cd 0.31294 0.4359 0.56617 0.0
O199 O 0.32456 0.39269 0.53662 0.0
Cd200 Cd 0.35835 0.42492 0.54986 0.0
C201 C 0.35303 0.35349 0.575 0.0
O202 O 0.33988 0.49233 0.55897 0.0
O203 O 0.37338 0.46959 0.56802 0.0
O204 O 0.3752 0.45921 0.53077 0.0
C205 C 0.35714 0.49923 0.56721 0.0
O206 O 0.33548 0.37799 0.57802 0.0
C207 C 0.39527 0.43946 0.53211 0.0
O208 O 0.36358 0.36025 0.56445 0.0
O209 O 0.39796 0.41214 0.54157 0.0
C210 C 0.4385 0.39587 0.19611 0.0
O211 O 0.45013 0.41115 0.18677 0.0
Cd212 Cd 0.43164 0.44928 0.16818 0.0
O213 O 0.41604 0.40211 0.19633 0.0
Cd214 Cd 0.38369 0.43939 0.18323 0.0
C215 C 0.39083 0.36909 0.1579 0.0
O216 O 0.40457 0.50573 0.17516 0.0
O217 O 0.37001 0.48982 0.16609 0.0
O218 O 0.36693 0.47033 0.2028 0.0
C219 C 0.3877 0.5163 0.16702 0.0
O220 O 0.40952 0.39172 0.15574 0.0
C221 C 0.34651 0.45236 0.20086 0.0
O222 O 0.37876 0.37721 0.16784 0.0
O223 O 0.34355 0.42772 0.19081 0.0
H224 H 0.30642 0.38987 0.51166 0.0
H225 H 0.28404 0.34623 0.49493 0.0
H226 H 0.24674 0.278 0.52501 0.0
H227 H 0.2677 0.32403 0.54157 0.0
H228 H 0.28356 0.26418 0.48954 0.0
H229 H 0.19131 0.30514 0.50177 0.0
H230 H 0.21667 0.33443 0.50911 0.0
H231 H 0.20702 0.28166 0.51575 0.0
C232 C 0.2931 0.36608 0.51462 0.0
C233 C 0.28849 0.36065 0.52784 0.0
C234 C 0.28038 0.34105 0.50509 0.0
C235 C 0.26324 0.30937 0.50864 0.0
C236 C 0.25907 0.3034 0.52192 0.0
H237 H 0.22108 0.08275 0.45907 0.0
H238 H 0.24141 0.13447 0.47448 0.0
C239 C 0.27121 0.32945 0.5314 0.0
C240 C 0.25071 0.28093 0.49855 0.0
H241 H 0.19615 0.23812 0.48907 0.0
C242 C 0.26437 0.25905 0.48933 0.0
C243 C 0.22561 0.27473 0.49803 0.0
C244 C 0.20934 0.30071 0.50661 0.0
C245 C 0.25377 0.23058 0.47981 0.0
C246 C 0.22895 0.22161 0.47997 0.0
C247 C 0.21523 0.24421 0.48903 0.0
C248 C 0.21666 0.1896 0.47075 0.0
C249 C 0.26933 0.21156 0.46954 0.0
C250 C 0.19528 0.20228 0.464 0.0
C251 C 0.18311 0.17204 0.45569 0.0
C252 C 0.19239 0.12892 0.45371 0.0
C253 C 0.21378 0.1161 0.46035 0.0
C254 C 0.22553 0.14586 0.46904 0.0
H255 H 0.28486 0.23377 0.46794 0.0
H256 H 0.27649 0.1785 0.47285 0.0
H257 H 0.25918 0.20706 0.46007 0.0
H258 H 0.18797 0.2357 0.46513 0.0
H259 H 0.16668 0.1827 0.4506 0.0
H260 H 0.89429 0.00723 0.51266 0.0
H261 H 0.92819 0.0246 0.4994 0.0
H262 H 0.97274 0.93446 0.52279 0.0
H263 H 0.93881 0.91626 0.53597 0.0
H264 H 0.97205 0.06158 0.50721 0.0
H265 H 0.98346 0.89205 0.48575 0.0
H266 H 0.95703 0.908 0.49401 0.0
H267 H 0.9839 0.89273 0.50325 0.0
C268 C 0.91126 0.99086 0.51493 0.0
C269 C 0.91385 0.96016 0.52531 0.0
C270 C 0.93061 0.00091 0.50737 0.0
C271 C 0.95287 0.98038 0.51001 0.0
C272 C 0.95558 0.94998 0.52042 0.0
H273 H 0.09012 0.00072 0.47473 0.0
H274 H 0.05783 0.98662 0.4894 0.0
C275 C 0.9362 0.93977 0.52798 0.0
C276 C 0.97333 0.99153 0.502 0.0
H277 H 0.01331 0.94597 0.48168 0.0
C278 C 0.98105 0.03636 0.5016 0.0
C279 C 0.98501 0.9585 0.49471 0.0
C280 C 0.97683 0.91019 0.49432 0.0
C281 C 0.00034 0.04899 0.49418 0.0
C282 C 0.01197 0.01597 0.48688 0.0
C283 C 0.00435 0.97113 0.48734 0.0
C284 C 0.03182 0.02723 0.47849 0.0
C285 C 0.00836 0.09737 0.49434 0.0
C286 C 0.02784 0.05484 0.46752 0.0
C287 C 0.04623 0.06292 0.4591 0.0
C288 C 0.06888 0.04336 0.46149 0.0
C289 C 0.07289 0.01635 0.47262 0.0
C290 C 0.05448 0.0082 0.48101 0.0
H291 H 0.00147 0.11606 0.50274 0.0
H292 H 0.02817 0.09965 0.49476 0.0
H293 H 0.00152 0.11411 0.48525 0.0
H294 H 0.01035 0.06923 0.4653 0.0
H295 H 0.04256 0.08374 0.45058 0.0
H296 H 0.34515 0.98543 0.72429 0.0
H297 H 0.31209 0.00045 0.7384 0.0
H298 H 0.2653 0.91954 0.71343 0.0
H299 H 0.2983 0.90391 0.69934 0.0
H300 H 0.26879 0.0426 0.73068 0.0
H301 H 0.25363 0.87128 0.75007 0.0
H302 H 0.28071 0.88672 0.74232 0.0
H303 H 0.25394 0.87463 0.73261 0.0
C304 C 0.32789 0.9704 0.72188 0.0
C305 C 0.32433 0.94342 0.71071 0.0
C306 C 0.30904 0.97908 0.72993 0.0
C307 C 0.28636 0.96072 0.72702 0.0
C308 C 0.28279 0.93335 0.71598 0.0
H309 H 0.14827 0.98717 0.76106 0.0
H310 H 0.18132 0.96979 0.74713 0.0
C311 C 0.30164 0.92464 0.7079 0.0
C312 C 0.26615 0.97216 0.73517 0.0
H313 H 0.22478 0.92682 0.75466 0.0
C314 C 0.25922 0.01736 0.73598 0.0
C315 C 0.25369 0.93906 0.742 0.0
C316 C 0.26094 0.89023 0.74184 0.0
C317 C 0.23989 0.03034 0.74332 0.0
C318 C 0.22747 -0.00274 0.75018 0.0
C319 C 0.23435 0.95204 0.74935 0.0
C320 C 0.20742 0.00895 0.75842 0.0
C321 C 0.23263 0.07917 0.74346 0.0
C322 C 0.21125 0.03656 0.76939 0.0
C323 C 0.19243 0.04662 0.77735 0.0
C324 C 0.16949 0.02899 0.7745 0.0
C325 C 0.16572 0.00138 0.76348 0.0
C326 C 0.18456 0.99133 0.75553 0.0
H327 H 0.23983 0.09801 0.73518 0.0
H328 H 0.21287 0.0827 0.74305 0.0
H329 H 0.23977 0.0949 0.75265 0.0
H330 H 0.22887 0.0498 0.77191 0.0
H331 H 0.19593 0.06777 0.78581 0.0
H332 H 0.07954 0.14097 0.76726 0.0
H333 H 0.06137 0.19464 0.75172 0.0
H334 H 0.99471 0.18535 0.77087 0.0
H335 H 0.01273 0.13198 0.78656 0.0
H336 H 0.02071 0.18512 0.73456 0.0
H337 H 0.00897 0.32119 0.7707 0.0
H338 H 0.02812 0.27326 0.77399 0.0
H339 H -0.0037 0.26818 0.77506 0.0
C340 C 0.06099 0.15018 0.76816 0.0
C341 C 0.04764 0.13238 0.77822 0.0
C342 C 0.05065 0.18088 0.75927 0.0
C343 C 0.02687 0.19454 0.76031 0.0
C344 C 0.01327 0.17591 0.77008 0.0
H345 H 0.92659 0.36429 0.7181 0.0
H346 H 0.94868 0.31604 0.73366 0.0
C347 C 0.02356 0.14517 0.77898 0.0
C348 C 0.01622 0.22809 0.75112 0.0
H349 H 0.99035 0.33198 0.74963 0.0
C350 C 0.01423 0.21739 0.73781 0.0
C351 C 0.00789 0.27016 0.75544 0.0
C352 C 0.01059 0.2842 0.76956 0.0
C353 C 0.00338 0.24714 0.72872 0.0
C354 C 0.99472 0.28894 0.73306 0.0
C355 C -0.00296 0.29991 0.74635 0.0
C356 C 0.98211 0.32076 0.72405 0.0
C357 C 0.00055 0.23297 0.71461 0.0
C358 C 0.99381 0.3404 0.7137 0.0
C359 C 0.98123 0.36807 0.70475 0.0
C360 C 0.95674 0.37661 0.70604 0.0
C361 C 0.94538 0.35826 0.71675 0.0
C362 C 0.95797 0.33068 0.72568 0.0
H363 H 0.00347 0.19632 0.71338 0.0
H364 H 0.98245 0.24164 0.71046 0.0
H365 H 0.01385 0.25104 0.7089 0.0
H366 H 0.01258 0.33379 0.71244 0.0
H367 H 0.99055 0.38183 0.69665 0.0
H368 H 0.75169 0.8835 0.53078 0.0
H369 H 0.73236 0.83484 0.51423 0.0
H370 H 0.79988 0.81549 0.49655 0.0
H371 H 0.81948 0.86362 0.51311 0.0
H372 H 0.7299 0.83852 0.48646 0.0
H373 H 0.77836 0.6871 0.50539 0.0
H374 H 0.77739 0.73892 0.51448 0.0
H375 H 0.79705 0.73347 0.50125 0.0
C376 C 0.76242 0.86931 0.5233 0.0
C377 C 0.7872 0.87705 0.52336 0.0
C378 C 0.75133 0.8415 0.51385 0.0
C379 C 0.76481 0.82092 0.50435 0.0
C380 C 0.78929 0.83035 0.50398 0.0
H381 H 0.72823 0.62228 0.44444 0.0
H382 H 0.74891 0.67661 0.45888 0.0
C383 C 0.80041 0.85807 0.51342 0.0
C384 C 0.75339 0.78837 0.49513 0.0
H385 H 0.75342 0.67769 0.48637 0.0
C386 C 0.73501 0.80335 0.48643 0.0
C387 C 0.76015 0.74255 0.49513 0.0
C388 C 0.77917 0.7243 0.50463 0.0
C389 C 0.7233 0.7737 0.47763 0.0
C390 C 0.7299 0.7278 0.47773 0.0
C391 C 0.74844 0.71292 0.48633 0.0
C392 C 0.71744 0.69445 0.46916 0.0
C393 C 0.70418 0.79183 0.46818 0.0
C394 C 0.69306 0.68579 0.4704 0.0
C395 C 0.6812 0.65475 0.4622 0.0
C396 C 0.69355 0.63161 0.45265 0.0
C397 C 0.71816 0.63957 0.45167 0.0
C398 C 0.73001 0.67063 0.45989 0.0
H399 H 0.70564 0.82882 0.467 0.0
H400 H 0.7052 0.77575 0.45846 0.0
H401 H 0.68636 0.7844 0.47193 0.0
H402 H 0.68318 0.70311 0.4777 0.0
H403 H 0.66228 0.64931 0.46328 0.0
H404 H 0.6481 0.00109 0.25926 0.0
H405 H 0.68145 0.98371 0.24559 0.0
H406 H 0.72896 0.06043 0.27129 0.0
H407 H 0.69564 0.07832 0.28502 0.0
H408 H 0.73406 0.07567 0.24387 0.0
H409 H 0.73541 0.89434 0.25682 0.0
H410 H 0.70685 0.91569 0.25097 0.0
H411 H 0.72007 0.93588 0.26615 0.0
C412 C 0.6656 0.01455 0.26197 0.0
C413 C 0.66928 0.04084 0.27327 0.0
C414 C 0.68464 0.00436 0.25419 0.0
C415 C 0.70768 0.02013 0.25759 0.0
C416 C 0.71129 0.04771 0.26858 0.0
H417 H 0.84628 0.99221 0.22388 0.0
H418 H 0.81327 0.01113 0.23762 0.0
C419 C 0.69225 0.0579 0.27639 0.0
C420 C 0.72807 0.00737 0.24974 0.0
H421 H 0.7607 0.91725 0.24021 0.0
C422 C 0.73999 0.04111 0.24309 0.0
C423 C 0.73566 0.96221 0.24878 0.0
C424 C 0.72401 0.9249 0.25613 0.0
C425 C 0.7591 0.03073 0.23526 0.0
C426 C 0.7667 0.98554 0.2343 0.0
C427 C 0.75479 0.95183 0.24098 0.0
C428 C 0.7869 0.97252 0.22634 0.0
C429 C 0.77061 0.06805 0.22785 0.0
C430 C 0.78317 0.94318 0.21574 0.0
C431 C 0.80204 0.93197 0.20792 0.0
C432 C 0.82497 0.94983 0.21063 0.0
C433 C 0.82879 0.97813 0.2215 0.0
C434 C 0.80993 0.98924 0.22931 0.0
H435 H 0.75897 0.09826 0.22701 0.0
H436 H 0.78758 0.07796 0.23309 0.0
H437 H 0.77482 0.05686 0.2179 0.0
H438 H 0.76554 0.92967 0.21336 0.0
H439 H 0.79855 0.91003 0.19963 0.0
H440 H 0.91993 0.85134 0.21717 0.0
H441 H 0.94132 0.80256 0.2329 0.0
H442 H 0.0066 0.82341 0.21313 0.0
H443 H 0.98543 0.87272 0.19739 0.0
H444 H 0.96538 0.72295 0.22681 0.0
H445 H 0.02656 0.84624 0.25162 0.0
H446 H 0.00046 0.86306 0.24179 0.0
H447 H 0.02716 0.84585 0.23414 0.0
C448 C 0.9389 0.84604 0.21623 0.0
C449 C 0.95097 0.86599 0.20601 0.0
C450 C 0.95107 0.81807 0.22522 0.0
C451 C 0.97555 0.80973 0.22423 0.0
C452 C 0.98778 0.83007 0.21419 0.0
H453 H 0.07764 0.6399 0.26711 0.0
H454 H 0.05709 0.68975 0.25133 0.0
C455 C 0.97562 0.8581 0.20517 0.0
C456 C 0.98794 0.77787 0.23333 0.0
H457 H 0.033 0.76941 0.25678 0.0
C458 C 0.98011 0.73309 0.23341 0.0
C459 C 0.00719 0.79126 0.24186 0.0
C460 C 0.01577 0.83929 0.24248 0.0
C461 C 0.99124 0.70109 0.2417 0.0
C462 C 0.0104 0.71452 0.25028 0.0
C463 C 0.0183 0.75927 0.25016 0.0
C464 C 0.02245 0.68275 0.25954 0.0
C465 C 0.98269 0.65304 0.24102 0.0
C466 C 0.00974 0.66233 0.26938 0.0
C467 C 0.02139 0.63368 0.27841 0.0
C468 C 0.04603 0.62523 0.27781 0.0
C469 C 0.05865 0.64558 0.26786 0.0
C470 C 0.04697 0.67416 0.25884 0.0
H471 H 0.97235 0.64597 0.23174 0.0
H472 H -0.00205 0.62924 0.24196 0.0
H473 H 0.97083 0.64665 0.24917 0.0
H474 H 0.99089 0.6692 0.27024 0.0
H475 H 0.01117 0.61881 0.28599 0.0
H476 H 0.32189 0.85644 0.0163 0.0
H477 H 0.30103 0.80771 0.00036 0.0
H478 H 0.2364 0.81989 0.02127 0.0
H479 H 0.257 0.86915 0.03722 0.0
H480 H 0.27929 0.72534 0.00559 0.0
H481 H 0.21389 0.84696 0.98347 0.0
H482 H 0.23997 0.86443 -0.00681 0.0
H483 H 0.21409 0.84362 0.00094 0.0
C484 C 0.30316 0.8492 0.01746 0.0
C485 C 0.2911 0.8668 0.02804 0.0
C486 C 0.2913 0.82126 0.00834 0.0
C487 C 0.26714 0.81059 0.00957 0.0
C488 C 0.25495 0.8284 0.02002 0.0
H489 H 0.16667 0.63855 0.96646 0.0
H490 H 0.18706 0.6877 0.98248 0.0
C491 C 0.26679 0.85639 0.02916 0.0
C492 C 0.25504 0.77917 0.00023 0.0
H493 H 0.20876 0.77044 0.97752 0.0
C494 C 0.26393 0.7352 -0.00059 0.0
C495 C 0.23498 0.79218 -0.00777 0.0
C496 C 0.22525 0.83947 -0.00762 0.0
C497 C 0.25305 0.7036 0.9909 0.0
C498 C 0.23302 0.71664 0.98287 0.0
C499 C 0.2241 0.76058 0.98372 0.0
C500 C 0.22112 0.68532 0.97344 0.0
C501 C 0.26279 0.65632 0.99076 0.0
C502 C 0.23355 0.66776 0.96304 0.0
C503 C 0.22199 0.63956 0.95387 0.0
C504 C 0.19771 0.62867 0.95488 0.0
C505 C 0.18538 0.64615 0.96538 0.0
C506 C 0.19697 0.67432 0.97454 0.0
H507 H 0.27399 0.64874 -0.00028 0.0
H508 H 0.24809 0.63135 0.98984 0.0
H509 H 0.27412 0.65227 0.98226 0.0
H510 H 0.25209 0.67653 0.96188 0.0
H511 H 0.23198 0.62692 0.94587 0.0
H512 H 0.09527 0.48683 0.97264 0.0
H513 H 0.06234 0.46874 0.98656 0.0
H514 H 0.01565 0.55649 0.96363 0.0
H515 H 0.04834 0.57433 0.94956 0.0
H516 H 0.03434 0.52565 0.00148 0.0
H517 H 0.97924 0.4369 0.96316 0.0
H518 H 0.01039 0.44995 0.96139 0.0
H519 H 0.98798 0.49268 0.95874 0.0
C520 C 0.078 0.50236 0.97058 0.0
C521 C 0.07434 0.53178 0.95995 0.0
C522 C 0.05923 0.49197 0.97853 0.0
C523 C 0.03649 0.51066 0.97597 0.0
C524 C 0.03295 0.54097 0.96559 0.0
H525 H 0.89988 0.49609 0.01115 0.0
H526 H 0.93374 0.51211 -0.00229 0.0
C527 C 0.05168 0.55133 0.95762 0.0
C528 C 0.01649 0.49861 0.98418 0.0
H529 H 0.9609 0.45144 0.98311 0.0
C530 C 0.01833 0.50919 -0.00249 0.0
C531 C 0.99568 0.47706 0.97893 0.0
C532 C 0.9932 0.46306 0.9648 0.0
C533 C -0.00039 0.49978 0.00569 0.0
C534 C 0.97872 0.47862 0.00041 0.0
C535 C 0.97696 0.46774 0.9871 0.0
C536 C 0.9583 0.46813 0.00848 0.0
C537 C 0.00208 0.51356 0.01984 0.0
C538 C 0.96085 0.4375 0.01884 0.0
C539 C 0.94155 0.42825 0.02654 0.0
C540 C 0.91936 0.44936 0.02396 0.0
C541 C 0.91676 0.47937 0.01341 0.0
C542 C 0.93606 0.48856 0.00572 0.0
H543 H 0.01663 0.53846 0.02162 0.0
H544 H 0.98511 0.52816 0.02309 0.0
H545 H 0.00633 0.4835 0.02591 0.0
H546 H 0.97777 0.42075 0.02096 0.0
H547 H 0.94407 0.40481 0.03456 0.0
H548 H 0.34783 0.50396 0.22289 0.0
H549 H 0.31488 0.52018 0.23699 0.0
H550 H 0.2679 0.43743 0.21267 0.0
H551 H 0.30077 0.42055 0.19862 0.0
H552 H 0.27117 0.56122 0.22979 0.0
H553 H 0.25772 0.38979 0.24942 0.0
H554 H 0.28434 0.40566 0.24131 0.0
H555 H 0.2573 0.39255 0.23194 0.0
C556 C 0.33053 0.48889 0.22061 0.0
C557 C 0.32691 0.46082 0.20967 0.0
C558 C 0.31174 0.49827 0.22865 0.0
C559 C 0.28907 0.47956 0.22595 0.0
C560 C 0.2854 0.45149 0.21506 0.0
H561 H 0.15107 0.49981 0.2597 0.0
H562 H 0.1845 0.48564 0.24579 0.0
C563 C 0.30417 0.44206 0.20701 0.0
C564 C 0.26903 0.49069 0.23426 0.0
H565 H 0.22812 0.44422 0.25381 0.0
C566 C 0.26182 0.53574 0.23511 0.0
C567 C 0.25691 0.45729 0.24116 0.0
C568 C 0.26456 0.40866 0.24104 0.0
C569 C 0.24242 0.54819 0.24248 0.0
C570 C 0.23021 0.51473 0.24931 0.0
C571 C 0.2375 0.46973 0.24851 0.0
C572 C 0.20981 0.52557 0.25738 0.0
C573 C 0.23481 0.59682 0.24267 0.0
C574 C 0.21303 0.55279 0.26848 0.0
C575 C 0.19397 0.561 0.27645 0.0
C576 C 0.17141 0.5419 0.27347 0.0
C577 C 0.16821 0.51508 0.26225 0.0
C578 C 0.18728 0.50688 0.2543 0.0
H579 H 0.24216 0.61614 0.23452 0.0
H580 H 0.21502 0.59979 0.24206 0.0
H581 H 0.24148 0.61241 0.25197 0.0
H582 H 0.23041 0.56688 0.27114 0.0
H583 H 0.19702 0.58162 0.28506 0.0
H584 H 0.73464 0.09816 0.94868 0.0
H585 H 0.75643 0.14777 0.96411 0.0
H586 H 0.69121 0.1747 0.9834 0.0
H587 H 0.66936 0.125 0.96818 0.0
H588 H 0.74623 0.23964 0.96713 0.0
H589 H 0.73913 0.14777 0.01379 0.0
H590 H 0.73388 0.12117 -0.0019 0.0
H591 H 0.71105 0.15528 0.00487 0.0
C592 C 0.72501 0.11396 0.95636 0.0
C593 C 0.70024 0.10764 0.95719 0.0
C594 C 0.73748 0.14239 0.96513 0.0
C595 C 0.72545 0.16456 0.97494 0.0
C596 C 0.70091 0.15729 0.97603 0.0
H597 H 0.75827 0.36825 0.03298 0.0
H598 H 0.73893 0.31546 0.01757 0.0
C599 C 0.68842 0.12901 0.96727 0.0
C600 C 0.73808 0.19786 0.98345 0.0
H601 H 0.75168 0.22416 0.01529 0.0
C602 C 0.74765 0.23612 0.97765 0.0
C603 C 0.73974 0.19319 -0.00283 0.0
C604 C 0.73061 0.15195 0.00387 0.0
C605 C 0.75832 0.2705 0.98525 0.0
C606 C 0.75974 0.26605 -0.00103 0.0
C607 C 0.75039 0.22756 0.00476 0.0
C608 C 0.77112 0.30062 0.00755 0.0
C609 C 0.76742 0.3118 0.97856 0.0
C610 C 0.79555 0.31002 0.00691 0.0
C611 C 0.80666 0.34022 0.01567 0.0
C612 C 0.79353 0.36136 0.02529 0.0
C613 C 0.7689 0.35266 0.02568 0.0
C614 C 0.75782 0.32241 0.01692 0.0
H615 H 0.75964 0.31509 0.96844 0.0
H616 H 0.76322 0.34268 0.98408 0.0
H617 H 0.78712 0.30945 0.97806 0.0
H618 H 0.8062 0.29298 -0.00011 0.0
H619 H 0.82567 0.34598 0.01512 0.0
H620 H 0.69599 0.58918 0.78333 0.0
H621 H 0.73017 0.57481 0.76988 0.0
H622 H 0.68851 0.47793 0.74735 0.0
H623 H 0.65428 0.49237 0.76059 0.0
H624 H 0.75327 0.49181 0.76669 0.0
H625 H 0.71631 0.5577 0.71935 0.0
H626 H 0.70341 0.57091 0.73467 0.0
H627 H 0.69719 0.51789 0.72683 0.0
C628 C 0.69404 0.5652 0.77542 0.0
C629 C 0.67242 0.54202 0.77299 0.0
C630 C 0.71358 0.55698 0.76777 0.0
C631 C 0.71173 0.52575 0.75753 0.0
C632 C 0.69014 0.50282 0.75504 0.0
H633 H 0.80488 0.40883 0.7022 0.0
H634 H 0.77222 0.42763 0.71624 0.0
C635 C 0.67064 0.51097 0.76267 0.0
C636 C 0.73267 0.51543 0.7498 0.0
H637 H 0.75174 0.51358 0.71874 0.0
C638 C 0.75307 0.49692 0.75622 0.0
C639 C 0.73225 0.52206 0.73616 0.0
C640 C 0.71121 0.54361 0.72884 0.0
C641 C 0.77287 0.48364 0.74928 0.0
C642 C 0.7723 0.4897 0.73561 0.0
C643 C 0.75202 0.50873 0.72922 0.0
C644 C 0.79257 0.4766 0.7277 0.0
C645 C 0.79394 0.4621 0.75657 0.0
C646 C 0.8148 0.49787 0.72954 0.0
C647 C 0.8335 0.48715 0.72156 0.0
C648 C 0.83021 0.45518 0.71155 0.0
C649 C 0.80799 0.43351 0.70985 0.0
C650 C 0.78931 0.44426 0.71783 0.0
H651 H 0.78923 0.44995 0.76635 0.0
H652 H 0.80094 0.4334 0.75098 0.0
H653 H 0.80847 0.48722 0.75795 0.0
H654 H 0.81753 0.5235 0.73695 0.0
H655 H 0.85037 0.50461 0.72308 0.0
H656 H 0.54699 0.0884 0.94889 0.0
H657 H 0.51321 0.07485 0.96268 0.0
H658 H 0.55617 0.98215 0.98605 0.0
H659 H 0.59002 -0.00427 0.97245 0.0
H660 H 0.4912 0.99102 0.96689 0.0
H661 H 0.52779 0.06529 0.01324 0.0
H662 H 0.54022 0.07698 -0.0023 0.0
H663 H 0.54729 0.02529 0.00609 0.0
C664 C 0.54931 0.06552 0.95706 0.0
C665 C 0.57118 0.04322 0.95961 0.0
C666 C 0.53 0.05777 0.96489 0.0
C667 C 0.53232 0.02794 0.97546 0.0
C668 C 0.55417 0.00595 0.97809 0.0
H669 H 0.44101 0.91669 0.03254 0.0
H670 H 0.47344 0.93509 0.01833 0.0
C671 C 0.57346 0.0136 0.97027 0.0
C672 C 0.51161 0.01805 0.98339 0.0
H673 H 0.49273 0.02069 0.01448 0.0
C674 C 0.4914 -0.00217 0.97728 0.0
C675 C 0.51203 0.02689 -0.00308 0.0
C676 C 0.5329 0.05018 0.00388 0.0
C677 C 0.4718 0.98505 0.98444 0.0
C678 C 0.47234 -0.00656 -0.00199 0.0
C679 C 0.49244 0.01413 0.00408 0.0
C680 C 0.4523 0.98088 0.00614 0.0
C681 C 0.45099 0.96153 0.9775 0.0
C682 C 0.42969 0.00055 0.00396 0.0
C683 C 0.4111 0.99001 0.01203 0.0
C684 C 0.41489 0.95987 0.02248 0.0
C685 C 0.43752 0.93995 0.02456 0.0
C686 C 0.45607 0.95048 0.01648 0.0
H687 H 0.45586 0.94776 0.96793 0.0
H688 H 0.44431 0.93366 0.98353 0.0
H689 H 0.43618 0.98589 0.97573 0.0
H690 H 0.42655 0.02473 -0.00382 0.0
H691 H 0.39391 0.00612 0.01023 0.0
H692 H 0.48588 0.37262 0.1984 0.0
H693 H 0.50536 0.32309 0.2147 0.0
H694 H 0.43871 0.30806 0.23357 0.0
H695 H 0.41897 0.35712 0.21728 0.0
H696 H 0.509 0.33085 0.24239 0.0
H697 H 0.45923 0.1778 0.22608 0.0
H698 H 0.46009 0.22806 0.21628 0.0
H699 H 0.44088 0.22524 0.22977 0.0
C700 C 0.47536 0.35896 0.20604 0.0
C701 C 0.45081 0.36858 0.20647 0.0
C702 C 0.48653 0.33068 0.21534 0.0
C703 C 0.47336 0.31137 0.22518 0.0
C704 C 0.44906 0.32195 0.22588 0.0
H705 H 0.50976 0.12288 0.28779 0.0
H706 H 0.4893 0.17505 0.27255 0.0
C707 C 0.43786 0.35021 0.2166 0.0
C708 C 0.48503 0.27992 0.23466 0.0
H709 H 0.48445 0.17108 0.24515 0.0
C710 C 0.5037 0.29589 0.24299 0.0
C711 C 0.47797 0.2344 0.2354 0.0
C712 C 0.45859 0.2151 0.22635 0.0
C713 C 0.51538 0.2676 0.25219 0.0
C714 C 0.50846 0.22199 0.25287 0.0
C715 C 0.48967 0.20609 0.24459 0.0
C716 C 0.52079 0.19001 0.26195 0.0
C717 C 0.53477 0.28693 0.26124 0.0
C718 C 0.54512 0.18049 0.26084 0.0
C719 C 0.55686 0.15077 0.2695 0.0
C720 C 0.54443 0.12972 0.2794 0.0
C721 C 0.51988 0.13857 0.2803 0.0
C722 C 0.50816 0.16837 0.27162 0.0
H723 H 0.53353 0.32413 0.26184 0.0
H724 H 0.53385 0.27277 0.27121 0.0
H725 H 0.55247 0.27831 0.25752 0.0
H726 H 0.55505 0.19609 0.25325 0.0
H727 H 0.57573 0.14454 0.26846 0.0
H728 H 0.41744 0.84125 0.71578 0.0
H729 H 0.43744 0.78786 0.73067 0.0
H730 H 0.50371 0.80888 0.71186 0.0
H731 H 0.48378 0.86205 0.69674 0.0
H732 H 0.49177 0.718 0.71501 0.0
H733 H 0.48497 0.8126 0.76131 0.0
H734 H 0.45705 0.80585 0.75218 0.0
H735 H 0.48044 0.83875 0.74552 0.0
C736 C 0.43634 0.83498 0.71487 0.0
C737 C 0.44902 0.85603 0.70506 0.0
C738 C 0.44775 0.80456 0.72344 0.0
C739 C 0.47209 0.79484 0.72245 0.0
C740 C 0.48491 0.81612 0.7128 0.0
H741 H 0.57428 0.62195 0.76305 0.0
H742 H 0.55265 0.67042 0.74737 0.0
C743 C 0.47351 0.84658 0.7042 0.0
C744 C 0.48388 0.761 0.73113 0.0
H745 H 0.49787 0.73679 0.76307 0.0
C746 C 0.49322 0.72214 0.72552 0.0
C747 C 0.48558 0.76648 0.74482 0.0
C748 C 0.47668 0.80833 0.75134 0.0
C749 C 0.50402 0.68827 0.73328 0.0
C750 C 0.50576 0.69382 0.74696 0.0
C751 C 0.49633 0.73257 0.75257 0.0
C752 C 0.51824 0.66086 0.75565 0.0
C753 C 0.51316 0.64658 0.72679 0.0
C754 C 0.50601 0.63937 0.7655 0.0
C755 C 0.51833 0.61165 0.77453 0.0
C756 C 0.54315 0.6054 0.77393 0.0
C757 C 0.55517 0.62598 0.76379 0.0
C758 C 0.54283 0.65354 0.75476 0.0
H759 H 0.50486 0.64207 0.71683 0.0
H760 H 0.53277 0.64949 0.72594 0.0
H761 H 0.50962 0.61615 0.73265 0.0
H762 H 0.48702 0.64483 0.76635 0.0
H763 H 0.50854 0.59641 0.78223 0.0
H764 H 0.39418 0.49554 0.51103 0.0
H765 H 0.42714 0.51392 0.49717 0.0
H766 H 0.47364 0.42499 0.51982 0.0
H767 H 0.44073 0.40587 0.5336 0.0
H768 H 0.47084 0.55252 0.50477 0.0
H769 H 0.48366 0.38487 0.48244 0.0
H770 H 0.45725 0.39927 0.49096 0.0
H771 H 0.48445 0.3843 0.49995 0.0
C772 C 0.41137 0.47955 0.51298 0.0
C773 C 0.41484 0.44908 0.52337 0.0
C774 C 0.43017 0.49018 0.50508 0.0
C775 C 0.45272 0.4704 0.50737 0.0
C776 C 0.45624 0.43993 0.51772 0.0
H777 H 0.59017 0.49676 0.47304 0.0
H778 H 0.5573 0.48061 0.48717 0.0
C779 C 0.43744 0.4292 0.52562 0.0
C780 C 0.47278 0.48286 0.49923 0.0
H781 H 0.51333 0.43982 0.47881 0.0
C782 C 0.48007 0.52797 0.49903 0.0
C783 C 0.48476 0.45069 0.49178 0.0
C784 C 0.47703 0.40214 0.49116 0.0
C785 C 0.49935 0.54166 0.49175 0.0
C786 C 0.51139 0.50943 0.48437 0.0
C787 C 0.50408 0.46436 0.48454 0.0
C788 C 0.53151 0.52171 0.47627 0.0
C789 C 0.50699 0.59025 0.49221 0.0
C790 C 0.52785 0.55029 0.46549 0.0
C791 C 0.54657 0.55958 0.45738 0.0
C792 C 0.56924 0.54028 0.45991 0.0
C793 C 0.57293 0.51223 0.47085 0.0
C794 C 0.55418 0.50289 0.47892 0.0
H795 H 0.49975 0.60822 0.50065 0.0
H796 H 0.52678 0.59306 0.4928 0.0
H797 H 0.50024 0.60736 0.48317 0.0
H798 H 0.51036 0.56454 0.46316 0.0
H799 H 0.54315 0.58116 0.44901 0.0
H800 H 0.14345 0.67675 0.32687 0.0
H801 H 0.15426 0.73371 0.34334 0.0
H802 H 0.09348 0.69584 0.36511 0.0
H803 H 0.08272 0.63868 0.34891 0.0
H804 H 0.12737 0.80582 0.35035 0.0
H805 H 0.14707 0.69743 0.39328 0.0
H806 H 0.14525 0.6758 0.37682 0.0
H807 H 0.11849 0.68493 0.3855 0.0
C808 C 0.13249 0.68031 0.33522 0.0
C809 C 0.11223 0.65308 0.33658 0.0
C810 C 0.13873 0.71278 0.34462 0.0
C811 C 0.12495 0.71831 0.35557 0.0
C812 C 0.10474 0.69128 0.35692 0.0
H813 H 0.09219 0.94214 0.40152 0.0
H814 H 0.09563 0.88018 0.3862 0.0
C815 C 0.09849 0.65888 0.34756 0.0
C816 C 0.13046 0.75446 0.36513 0.0
H817 H 0.1375 0.77491 0.39781 0.0
C818 C 0.13002 0.79905 0.36071 0.0
C819 C 0.13431 0.74555 0.3786 0.0
C820 C 0.13657 0.69828 0.38382 0.0
C821 C 0.1318 0.83506 0.36949 0.0
C822 C 0.13368 0.82611 0.38303 0.0
C823 C 0.13569 0.7816 0.38742 0.0
C824 C 0.13171 0.86241 0.39273 0.0
C825 C 0.13112 0.88239 0.36422 0.0
C826 C 0.15056 0.87175 0.40182 0.0
C827 C 0.14861 0.90714 0.41069 0.0
C828 C 0.12771 0.93339 0.41061 0.0
C829 C 0.10861 0.92282 0.40177 0.0
C830 C 0.11058 0.8876 0.39295 0.0
H831 H 0.1369 0.88363 0.35402 0.0
H832 H 0.11252 0.89527 0.36424 0.0
H833 H 0.14273 0.90507 0.37033 0.0
H834 H 0.16692 0.85227 0.40187 0.0
H835 H 0.1636 0.91446 0.41742 0.0
H836 H 0.1572 0.13789 0.38515 0.0
H837 H 0.14751 0.19607 0.36902 0.0
H838 H 0.08412 0.23036 0.38909 0.0
H839 H 0.09382 0.17254 0.40547 0.0
H840 H 0.10653 0.20871 0.35231 0.0
H841 H 0.12086 0.34962 0.3875 0.0
H842 H 0.13056 0.29301 0.39117 0.0
H843 H 0.09955 0.30776 0.39183 0.0
C844 C 0.14116 0.1577 0.38616 0.0
C845 C 0.12641 0.15083 0.39668 0.0
C846 C 0.13562 0.19081 0.37689 0.0
C847 C 0.11525 0.21773 0.37795 0.0
C848 C 0.10012 0.21032 0.38823 0.0
H849 H 0.07397 0.41547 0.31677 0.0
H850 H 0.0718 0.3516 0.33182 0.0
C851 C 0.10568 0.17723 0.39755 0.0
C852 C 0.11056 0.25451 0.3685 0.0
H853 H 0.11056 0.36872 0.36575 0.0
C854 C 0.10713 0.24373 0.35523 0.0
C855 C 0.11154 0.30007 0.37239 0.0
C856 C 0.116 0.31356 0.38647 0.0
C857 C 0.1053 0.27745 0.34567 0.0
C858 C 0.10671 0.32294 0.34956 0.0
C859 C 0.10939 0.3337 0.36285 0.0
C860 C 0.10786 0.35989 0.34 0.0
C861 C 0.10299 0.26425 0.33148 0.0
C862 C 0.12879 0.38551 0.33968 0.0
C863 C 0.13005 0.42183 0.3312 0.0
C864 C 0.11035 0.43338 0.32288 0.0
C865 C 0.08946 0.40721 0.32303 0.0
C866 C 0.08821 0.37073 0.33158 0.0
H867 H 0.10591 0.22769 0.33004 0.0
H868 H 0.08478 0.2728 0.3275 0.0
H869 H 0.11601 0.28314 0.32577 0.0
H870 H 0.14415 0.37756 0.3461 0.0
H871 H 0.14641 0.44123 0.3313 0.0
H872 H 0.14646 0.17431 0.82573 0.0
H873 H 0.15995 0.23151 0.84158 0.0
H874 H 0.09986 0.2018 0.86485 0.0
H875 H 0.08641 0.1445 0.84925 0.0
H876 H 0.13525 0.30693 0.84859 0.0
H877 H 0.15546 0.2009 0.89194 0.0
H878 H 0.15216 0.17802 0.87565 0.0
H879 H 0.12622 0.18972 0.88479 0.0
C880 C 0.13622 0.1797 0.83428 0.0
C881 C 0.11535 0.15478 0.83622 0.0
C882 C 0.144 0.2123 0.84333 0.0
C883 C 0.13117 0.22018 0.85451 0.0
C884 C 0.11038 0.19538 0.85646 0.0
H885 H 0.10167 0.44546 0.89941 0.0
H886 H 0.1054 0.38391 0.88401 0.0
C887 C 0.10259 0.16291 0.84745 0.0
C888 C 0.13822 0.25665 0.86369 0.0
H889 H 0.14707 0.2793 0.89614 0.0
C890 C 0.13833 0.30085 0.85896 0.0
C891 C 0.14266 0.24861 0.87717 0.0
C892 C 0.14438 0.20167 0.88267 0.0
C893 C 0.14103 0.33744 0.86749 0.0
C894 C 0.1433 0.32948 0.88107 0.0
C895 C 0.14497 0.28526 0.88573 0.0
C896 C 0.14151 0.36646 0.89057 0.0
C897 C 0.14068 0.38436 0.86192 0.0
C898 C 0.16034 0.376 0.89966 0.0
C899 C 0.15823 0.41123 0.90857 0.0
C900 C 0.13716 0.437 0.90856 0.0
C901 C 0.11819 0.42648 0.89963 0.0
C902 C 0.12034 0.3915 0.89075 0.0
H903 H 0.14635 0.38458 0.8517 0.0
H904 H 0.12219 0.39782 0.86192 0.0
H905 H 0.15254 0.40715 0.86785 0.0
H906 H 0.17672 0.3566 0.89973 0.0
H907 H 0.17312 0.41853 0.91536 0.0
H908 H 0.0948 0.67487 0.9083 0.0
H909 H 0.08019 0.73135 0.89248 0.0
H910 H 0.13951 0.70264 0.86852 0.0
H911 H 0.15404 0.64604 0.88408 0.0
H912 H 0.10338 0.80705 0.88509 0.0
H913 H 0.08343 0.70034 0.84193 0.0
H914 H 0.08752 0.67751 0.85819 0.0
H915 H 0.11299 0.68991 0.84875 0.0
C916 C 0.10464 0.68035 0.89961 0.0
C917 C 0.1256 0.65588 0.89745 0.0
C918 C 0.0962 0.71251 0.89057 0.0
C919 C 0.10847 0.72042 0.8792 0.0
C920 C 0.12938 0.69613 0.87705 0.0
H921 H 0.1386 0.94372 0.8347 0.0
H922 H 0.13376 0.88266 0.8501 0.0
C923 C 0.13781 0.66408 0.88604 0.0
C924 C 0.1008 0.75658 0.87003 0.0
H925 H 0.09199 0.77882 0.83755 0.0
C926 C 0.10034 0.80081 0.87473 0.0
C927 C 0.09636 0.74836 0.85656 0.0
C928 C 0.09483 0.70136 0.85109 0.0
C929 C 0.09749 0.83728 0.86616 0.0
C930 C 0.09547 0.82918 0.85258 0.0
C931 C 0.09394 0.7849 0.84796 0.0
C932 C 0.09782 0.86599 0.84308 0.0
C933 C 0.09757 0.88425 0.87169 0.0
C934 C 0.07946 0.87579 0.83372 0.0
C935 C 0.08222 0.91078 0.82479 0.0
C936 C 0.10346 0.93601 0.82507 0.0
C937 C 0.12195 0.92519 0.83427 0.0
C938 C 0.11916 0.89049 0.84316 0.0
H939 H 0.09146 0.88451 0.88183 0.0
H940 H 0.11607 0.89766 0.87194 0.0
H941 H 0.08594 0.90702 0.86562 0.0
H942 H 0.06297 0.85678 0.83344 0.0
H943 H 0.06768 0.91832 0.81779 0.0
H944 H 0.86488 0.29078 0.66422 0.0
H945 H 0.85533 0.22725 0.64968 0.0
H946 H 0.89801 0.28607 0.62027 0.0
H947 H 0.90811 0.34875 0.63475 0.0
H948 H 0.83328 0.22307 0.62514 0.0
H949 H 0.92647 0.16148 0.62416 0.0
H950 H 0.9173 0.20293 0.63573 0.0
H951 H 0.9238 0.2193 0.61939 0.0
C952 C 0.87227 0.29008 0.65466 0.0
C953 C 0.88751 0.3245 0.6507 0.0
C954 C 0.86676 0.25386 0.64637 0.0
C955 C 0.87635 0.2516 0.63401 0.0
C956 C 0.89093 0.2866 0.6299 0.0
H957 H 0.83332 0.08711 0.56711 0.0
H958 H 0.83704 0.1468 0.58357 0.0
C959 C 0.89662 0.32248 0.63819 0.0
C960 C 0.87135 0.21265 0.62536 0.0
H961 H 0.89894 0.13211 0.60789 0.0
C962 C 0.84757 0.20283 0.62144 0.0
C963 C 0.89003 0.18589 0.62074 0.0
C964 C 0.9158 0.19259 0.62533 0.0
C965 C 0.84201 0.16761 0.61271 0.0
C966 C 0.86081 0.14245 0.60754 0.0
C967 C 0.88453 0.15171 0.61173 0.0
C968 C 0.85659 0.10586 0.59792 0.0
C969 C 0.8161 0.15736 0.60927 0.0
C970 C 0.86661 0.06336 0.60043 0.0
C971 C 0.86504 0.02985 0.59097 0.0
C972 C 0.85317 0.03795 0.57883 0.0
C973 C 0.84246 0.07999 0.57642 0.0
C974 C 0.8444 0.11393 0.58585 0.0
H975 H 0.80429 0.1698 0.61688 0.0
H976 H 0.81069 0.17444 0.59998 0.0
H977 H 0.81316 0.12071 0.60798 0.0
H978 H 0.87609 0.05635 0.60966 0.0
H979 H 0.8733 -0.00239 0.59314 0.0
H980 H 0.91647 0.57438 0.66231 0.0
H981 H 0.91373 0.63383 0.64571 0.0
H982 H 0.84414 0.58535 0.63256 0.0
H983 H 0.84678 0.52597 0.6489 0.0
H984 H 0.87539 0.60134 0.61231 0.0
H985 H 0.87025 0.74612 0.64642 0.0
H986 H 0.8952 0.70864 0.64916 0.0
H987 H 0.86543 0.6889 0.6515 0.0
C988 C 0.90056 0.57662 0.65592 0.0
C989 C 0.88182 0.54561 0.65692 0.0
C990 C 0.89901 0.61056 0.64647 0.0
C991 C 0.87867 0.614 0.63799 0.0
C992 C 0.86 0.58314 0.63901 0.0
H993 H 0.81656 0.82503 0.59193 0.0
H994 H 0.82742 0.76512 0.60731 0.0
C995 C 0.86152 0.54932 0.64839 0.0
C996 C 0.87653 0.64955 0.62797 0.0
H997 H 0.86869 0.76244 0.62397 0.0
C998 C 0.87415 0.63665 0.61481 0.0
C999 C 0.87471 0.6954 0.63134 0.0
C1000 C 0.87634 0.71082 0.64536 0.0
C1001 C 0.86943 0.6684 0.60493 0.0
C1002 C 0.8674 0.71421 0.60832 0.0
C1003 C 0.87034 0.72722 0.62144 0.0
C1004 C 0.86072 0.74896 0.59854 0.0
C1005 C 0.8657 0.65253 0.59102 0.0
C1006 C 0.87579 0.75938 0.58845 0.0
C1007 C 0.86958 0.79354 0.57957 0.0
C1008 C 0.84827 0.81801 0.58072 0.0
C1009 C 0.8331 0.80693 0.59076 0.0
C1010 C 0.8393 0.77278 0.59958 0.0
H1011 H 0.86309 0.61557 0.59041 0.0
H1012 H 0.84996 0.66935 0.58617 0.0
H1013 H 0.88164 0.66123 0.58552 0.0
H1014 H 0.89257 0.74174 0.5876 0.0
H1015 H 0.88172 0.80142 0.572 0.0
H1016 H 0.88053 0.50334 0.09087 0.0
H1017 H 0.88151 0.56448 0.10663 0.0
H1018 H 0.83799 0.64568 0.07995 0.0
H1019 H 0.83613 0.58341 0.06424 0.0
H1020 H 0.90089 0.64348 0.10373 0.0
H1021 H 0.80513 0.66668 0.11344 0.0
H1022 H 0.81599 0.61826 0.10493 0.0
H1023 H 0.81116 0.67065 0.09647 0.0
C1024 C 0.87096 0.53405 0.08838 0.0
C1025 C 0.85832 0.53877 0.07631 0.0
C1026 C 0.8715 0.56894 0.09742 0.0
C1027 C 0.85965 0.60953 0.09454 0.0
C1028 C 0.8468 0.61429 0.08252 0.0
H1029 H 0.90274 0.85716 0.13283 0.0
H1030 H 0.89373 0.79674 0.11735 0.0
C1031 C 0.8459 0.57891 0.07351 0.0
C1032 C 0.86248 0.64756 0.1038 0.0
H1033 H 0.832 0.72299 0.1218 0.0
C1034 C 0.88579 0.66069 0.10771 0.0
C1035 C 0.84279 0.66964 0.10912 0.0
C1036 C 0.81736 0.65535 0.10589 0.0
C1037 C 0.89002 0.69529 0.11676 0.0
C1038 C 0.87037 0.71863 0.12167 0.0
C1039 C 0.84702 0.70533 0.11789 0.0
C1040 C 0.87391 0.75691 0.13075 0.0
C1041 C 0.91553 0.70577 0.12115 0.0
C1042 C 0.86478 0.75552 0.14325 0.0
C1043 C 0.86961 0.79046 0.1521 0.0
C1044 C 0.88375 0.82712 0.14859 0.0
C1045 C 0.89215 0.829 0.13592 0.0
C1046 C 0.88707 0.79445 0.12706 0.0
H1047 H 0.92758 0.67677 0.11959 0.0
H1048 H 0.92201 0.73446 0.1154 0.0
H1049 H 0.91693 0.715 0.13164 0.0
H1050 H 0.85444 0.72691 0.14625 0.0
H1051 H 0.86279 0.7882 0.16177 0.0
H1052 H 0.8473 0.03134 0.14947 0.0
H1053 H 0.84839 0.09114 0.13332 0.0
H1054 H 0.91871 0.12954 0.14827 0.0
H1055 H 0.91772 0.06955 0.16467 0.0
H1056 H 0.8869 0.20212 0.14391 0.0
H1057 H 0.88814 0.09085 0.10074 0.0
H1058 H 0.86448 0.07722 0.11123 0.0
H1059 H 0.8951 0.071 0.11711 0.0
C1060 C 0.86303 0.05243 0.14935 0.0
C1061 C 0.8825 0.04558 0.15829 0.0
C1062 C 0.86368 0.08638 0.14005 0.0
C1063 C 0.88385 0.11397 0.13943 0.0
C1064 C 0.90311 0.10814 0.14853 0.0
H1065 H 0.88929 0.30012 0.07331 0.0
H1066 H 0.90091 0.2425 0.08942 0.0
C1067 C 0.90248 0.07402 0.15789 0.0
C1068 C 0.88418 0.14969 0.12946 0.0
H1069 H 0.87573 0.16724 0.09673 0.0
C1070 C 0.88486 0.19459 0.13358 0.0
C1071 C 0.88195 0.13968 0.11599 0.0
C1072 C 0.88262 0.09205 0.11098 0.0
C1073 C 0.88188 0.22984 0.12459 0.0
C1074 C 0.87775 0.21967 0.11121 0.0
C1075 C 0.87856 0.17488 0.10702 0.0
C1076 C 0.87102 0.25474 0.10153 0.0
C1077 C 0.88277 0.2776 0.12952 0.0
C1078 C 0.85009 0.27984 0.10288 0.0
C1079 C 0.84338 0.31262 0.09372 0.0
C1080 C 0.85739 0.3207 0.08296 0.0
C1081 C 0.87812 0.2948 0.08149 0.0
C1082 C 0.88483 0.26197 0.09069 0.0
H1083 H 0.89325 0.28015 0.13896 0.0
H1084 H 0.89077 0.3004 0.12236 0.0
H1085 H 0.86433 0.28931 0.13112 0.0
H1086 H 0.83885 0.2739 0.111 0.0
H1087 H 0.82723 0.33171 0.09512 0.0
H1088 H 0.6224 0.70319 0.81929 0.0
H1089 H 0.62843 0.76423 0.83512 0.0
H1090 H 0.58969 0.68915 0.86319 0.0
H1091 H 0.58286 0.62905 0.84735 0.0
H1092 H 0.5753 0.77325 0.86234 0.0
H1093 H 0.67436 0.76971 0.86639 0.0
H1094 H 0.66263 0.77837 0.85001 0.0
H1095 H 0.65702 0.7262 0.85818 0.0
C1096 C 0.61522 0.69974 0.82885 0.0
C1097 C 0.60215 0.66135 0.83207 0.0
C1098 C 0.61885 0.73445 0.83792 0.0
C1099 C 0.60989 0.73085 0.85042 0.0
C1100 C 0.59682 0.69258 0.85361 0.0
H1101 H 0.64796 0.8991 0.91771 0.0
H1102 H 0.64391 0.83736 0.9019 0.0
C1103 C 0.5929 0.65827 0.84453 0.0
C1104 C 0.61323 0.76748 0.8601 0.0
H1105 H 0.65536 0.83095 0.87668 0.0
C1106 C 0.59283 0.78572 0.86551 0.0
C1107 C 0.63612 0.78323 0.86437 0.0
C1108 C 0.65879 0.76308 0.85954 0.0
C1109 C 0.59462 0.81947 0.87501 0.0
C1110 C 0.61743 0.83656 0.87888 0.0
C1111 C 0.63789 0.81804 0.87359 0.0
C1112 C 0.62035 0.87395 0.88833 0.0
C1113 C 0.57205 0.83573 0.88098 0.0
C1114 C 0.60882 0.91508 0.88581 0.0
C1115 C 0.61079 0.94989 0.89486 0.0
C1116 C 0.62478 0.94462 0.9065 0.0
C1117 C 0.63697 0.90395 0.90885 0.0
C1118 C 0.63471 0.86878 0.89983 0.0
H1119 H 0.55763 0.81015 0.88008 0.0
H1120 H 0.57528 0.84409 0.89145 0.0
H1121 H 0.56555 0.86638 0.87577 0.0
H1122 H 0.59824 0.92027 0.87682 0.0
H1123 H 0.60147 0.98111 0.89268 0.0
H1124 H 0.66008 0.13331 0.88495 0.0
H1125 H 0.65378 0.19576 0.86983 0.0
H1126 H 0.61249 0.26517 0.898 0.0
H1127 H 0.61813 0.20194 0.91313 0.0
H1128 H 0.59156 0.2697 0.87368 0.0
H1129 H 0.6871 0.31553 0.87214 0.0
H1130 H 0.68198 0.2578 0.86786 0.0
H1131 H 0.67621 0.27705 0.88405 0.0
C1132 C 0.64975 0.16191 0.88798 0.0
C1133 C 0.63978 0.16286 0.90029 0.0
C1134 C 0.64625 0.19768 0.87934 0.0
C1135 C 0.63312 0.23549 0.88291 0.0
C1136 C 0.62283 0.23637 0.89511 0.0
H1137 H 0.63928 0.48507 0.84012 0.0
H1138 H 0.64146 0.42639 0.85667 0.0
C1139 C 0.62609 0.20029 0.90373 0.0
C1140 C 0.62996 0.27372 0.87379 0.0
H1141 H 0.66095 0.34686 0.85547 0.0
C1142 C 0.6067 0.28691 0.86977 0.0
C1143 C 0.64975 0.29656 0.86888 0.0
C1144 C 0.67515 0.28635 0.87356 0.0
C1145 C 0.60269 0.32169 0.86069 0.0
C1146 C 0.62252 0.34282 0.85525 0.0
C1147 C 0.64575 0.33022 0.85951 0.0
C1148 C 0.61979 0.3789 0.84535 0.0
C1149 C 0.57731 0.33589 0.85722 0.0
C1150 C 0.60686 0.37172 0.83346 0.0
C1151 C 0.6053 0.40561 0.82401 0.0
C1152 C 0.61709 0.44672 0.82623 0.0
C1153 C 0.63012 0.45362 0.8381 0.0
C1154 C 0.63135 0.42014 0.84758 0.0
H1155 H 0.56505 0.32632 0.86495 0.0
H1156 H 0.57604 0.37275 0.85566 0.0
H1157 H 0.57103 0.31881 0.84808 0.0
H1158 H 0.59833 0.33972 0.83139 0.0
H1159 H 0.59526 0.39936 0.81491 0.0
H1160 H 0.62732 0.19347 0.3256 0.0
H1161 H 0.63568 0.24869 0.34288 0.0
H1162 H 0.60822 0.15714 0.37112 0.0
H1163 H 0.59874 0.10296 0.3538 0.0
H1164 H 0.58898 0.23415 0.37382 0.0
H1165 H 0.68604 0.26238 0.37119 0.0
H1166 H 0.67103 0.27191 0.35563 0.0
H1167 H 0.67094 0.21655 0.36276 0.0
C1168 C 0.62339 0.185 0.33553 0.0
C1169 C 0.61224 0.14415 0.33836 0.0
C1170 C 0.62839 0.21638 0.34543 0.0
C1171 C 0.62295 0.20684 0.35836 0.0
C1172 C 0.61261 0.16528 0.36123 0.0
H1173 H 0.65753 0.40214 0.42099 0.0
H1174 H 0.65738 0.33345 0.4077 0.0
C1175 C 0.60714 0.13439 0.35132 0.0
C1176 C 0.62564 0.24176 0.36865 0.0
H1177 H 0.66391 0.32057 0.38184 0.0
C1178 C 0.60552 0.25248 0.37569 0.0
C1179 C 0.64729 0.26529 0.37132 0.0
C1180 C 0.67009 0.25306 0.36492 0.0
C1181 C 0.60613 0.2872 0.3849 0.0
C1182 C 0.62717 0.31309 0.38678 0.0
C1183 C 0.64766 0.30114 0.38022 0.0
C1184 C 0.62763 0.3543 0.39485 0.0
C1185 C 0.58413 0.29585 0.39246 0.0
C1186 C 0.61129 0.38893 0.39187 0.0
C1187 C 0.61114 0.42763 0.39948 0.0
C1188 C 0.62768 0.43296 0.4101 0.0
C1189 C 0.64451 0.3988 0.4129 0.0
C1190 C 0.64447 0.35967 0.40532 0.0
H1191 H 0.57329 0.26483 0.39333 0.0
H1192 H 0.58887 0.30865 0.40241 0.0
H1193 H 0.57277 0.32125 0.38722 0.0
H1194 H 0.59862 0.38609 0.3836 0.0
H1195 H 0.59816 0.45358 0.39695 0.0
H1196 H 0.59333 0.67556 0.40587 0.0
H1197 H 0.58143 0.73186 0.38941 0.0
H1198 H 0.64053 0.69252 0.3665 0.0
H1199 H 0.65234 0.63596 0.3827 0.0
H1200 H 0.60795 0.80313 0.38194 0.0
H1201 H 0.58564 0.69556 0.33919 0.0
H1202 H 0.58833 0.67366 0.35561 0.0
H1203 H 0.61456 0.68238 0.34645 0.0
C1204 C 0.60366 0.67861 0.39727 0.0
C1205 C 0.62379 0.65124 0.39561 0.0
C1206 C 0.59679 0.71068 0.38787 0.0
C1207 C 0.60981 0.71568 0.37662 0.0
C1208 C 0.62984 0.68835 0.37493 0.0
H1209 H 0.64334 0.93748 0.33072 0.0
H1210 H 0.63942 0.87508 0.34582 0.0
C1211 C 0.63669 0.65633 0.38429 0.0
C1212 C 0.60393 0.75194 0.36715 0.0
H1213 H 0.59583 0.77282 0.33455 0.0
C1214 C 0.60482 0.79648 0.37161 0.0
C1215 C 0.59947 0.74322 0.35371 0.0
C1216 C 0.59668 0.69606 0.34848 0.0
C1217 C 0.60299 0.83258 0.36287 0.0
C1218 C 0.60059 0.82376 0.34934 0.0
C1219 C 0.59804 0.77936 0.34493 0.0
C1220 C 0.60283 0.86001 0.33966 0.0
C1221 C 0.60429 0.87986 0.36816 0.0
C1222 C 0.58381 0.87095 0.33084 0.0
C1223 C 0.58601 0.90663 0.3221 0.0
C1224 C 0.60734 0.93154 0.32205 0.0
C1225 C 0.6266 0.91924 0.33059 0.0
C1226 C 0.62437 0.88375 0.33928 0.0
H1227 H 0.59889 0.88126 0.37843 0.0
H1228 H 0.62299 0.89206 0.36795 0.0
H1229 H 0.5927 0.90298 0.36218 0.0
H1230 H 0.56712 0.85257 0.33093 0.0
H1231 H 0.5709 0.91531 0.31561 0.0
H1232 H 0.35067 0.31638 0.15838 0.0
H1233 H 0.33785 0.25818 0.14269 0.0
H1234 H 0.40022 0.28326 0.12075 0.0
H1235 H 0.41302 0.34164 0.13619 0.0
H1236 H 0.35716 0.27648 0.10528 0.0
H1237 H 0.36989 0.13389 0.14008 0.0
H1238 H 0.35085 0.17892 0.14495 0.0
H1239 H 0.38219 0.18895 0.14343 0.0
C1240 C 0.36168 0.30946 0.15023 0.0
C1241 C 0.38296 0.33351 0.14859 0.0
C1242 C 0.35433 0.27617 0.14129 0.0
C1243 C 0.36821 0.26629 0.13064 0.0
C1244 C 0.38926 0.29051 0.12891 0.0
H1245 H 0.3923 0.0447 0.08271 0.0
H1246 H 0.39098 0.10658 0.09817 0.0
C1247 C 0.39659 0.32374 0.13779 0.0
C1248 C 0.36132 0.23014 0.12133 0.0
H1249 H 0.35827 0.11611 0.11843 0.0
C1250 C 0.35705 0.2414 0.10814 0.0
C1251 C 0.36132 0.18452 0.12516 0.0
C1252 C 0.36645 0.17055 0.13915 0.0
C1253 C 0.35368 0.20804 0.09857 0.0
C1254 C 0.35437 0.16241 0.10237 0.0
C1255 C 0.35766 0.15123 0.11561 0.0
C1256 C 0.35461 0.12571 0.09268 0.0
C1257 C 0.3507 0.22165 0.08443 0.0
C1258 C 0.33457 0.11619 0.08441 0.0
C1259 C 0.33528 0.08073 0.07547 0.0
C1260 C 0.35601 0.05432 0.07476 0.0
C1261 C 0.37604 0.06434 0.08301 0.0
C1262 C 0.37531 0.09962 0.09189 0.0
H1263 H 0.35394 0.25811 0.08301 0.0
H1264 H 0.36317 0.20235 0.07847 0.0
H1265 H 0.33222 0.21394 0.08074 0.0
H1266 H 0.31834 0.13575 0.085 0.0
H1267 H 0.31954 0.07362 0.06927 0.0
H1268 H 0.35422 0.54375 0.14872 0.0
H1269 H 0.35718 0.6045 0.13302 0.0
H1270 H 0.42793 0.63615 0.14878 0.0
H1271 H 0.42507 0.57507 0.16474 0.0
H1272 H 0.39786 0.71157 0.14479 0.0
H1273 H 0.39755 0.60478 0.1007 0.0
H1274 H 0.37348 0.59113 0.11092 0.0
H1275 H 0.4039 0.58282 0.11691 0.0
C1276 C 0.37046 0.56349 0.14888 0.0
C1277 C 0.38948 0.55446 0.15793 0.0
C1278 C 0.37218 0.598 0.13982 0.0
C1279 C 0.39298 0.62405 0.13955 0.0
C1280 C 0.41185 0.61596 0.14875 0.0
H1281 H 0.39418 0.81465 0.0741 0.0
H1282 H 0.40847 0.7576 0.08984 0.0
C1283 C 0.41016 0.58122 0.15786 0.0
C1284 C 0.39424 0.6607 0.12991 0.0
H1285 H 0.38509 0.68183 0.0974 0.0
C1286 C 0.39556 0.70515 0.13441 0.0
C1287 C 0.39173 0.6522 0.11635 0.0
C1288 C 0.39184 0.6051 0.11092 0.0
C1289 C 0.39264 0.7414 0.12574 0.0
C1290 C 0.38787 0.73275 0.11232 0.0
C1291 C 0.38837 0.68839 0.10772 0.0
C1292 C 0.38016 0.76868 0.10309 0.0
C1293 C 0.39408 0.78858 0.13109 0.0
C1294 C 0.35931 0.79316 0.10524 0.0
C1295 C 0.35108 0.82556 0.0963 0.0
C1296 C 0.36343 0.83392 0.08495 0.0
C1297 C 0.38426 0.80907 0.08275 0.0
C1298 C 0.39249 0.77658 0.09174 0.0
H1299 H 0.40551 0.79001 0.14023 0.0
H1300 H 0.4013 0.81226 0.12391 0.0
H1301 H 0.3759 0.79999 0.13341 0.0
H1302 H 0.34914 0.78668 0.11375 0.0
H1303 H 0.33493 0.84385 0.09828 0.0
H1304 H 0.36299 0.78743 0.66131 0.0
H1305 H 0.35469 0.72631 0.64576 0.0
H1306 H 0.39065 0.79976 0.61625 0.0
H1307 H 0.39976 0.86001 0.63181 0.0
H1308 H 0.33093 0.7204 0.62213 0.0
H1309 H 0.42701 0.68304 0.61723 0.0
H1310 H 0.41659 0.72047 0.62955 0.0
H1311 H 0.41962 0.74009 0.61311 0.0
C1312 C 0.36905 0.79055 0.65149 0.0
C1313 C 0.38237 0.82811 0.64783 0.0
C1314 C 0.36426 0.75569 0.64262 0.0
C1315 C 0.37254 0.75809 0.62995 0.0
C1316 C 0.38472 0.79665 0.62609 0.0
H1317 H 0.33239 0.57855 0.56509 0.0
H1318 H 0.33456 0.64192 0.58041 0.0
C1319 C 0.38984 0.8311 0.63499 0.0
C1320 C 0.3692 0.71973 0.62088 0.0
H1321 H 0.39983 0.64705 0.60219 0.0
C1322 C 0.34596 0.70413 0.6178 0.0
C1323 C 0.3889 0.69815 0.61543 0.0
C1324 C 0.41443 0.71096 0.6191 0.0
C1325 C 0.34187 0.66775 0.60927 0.0
C1326 C 0.36154 0.6474 0.60342 0.0
C1327 C 0.38474 0.66294 0.60658 0.0
C1328 C 0.35885 0.60873 0.59438 0.0
C1329 C 0.31666 0.65082 0.60689 0.0
C1330 C 0.37212 0.5695 0.59702 0.0
C1331 C 0.3714 0.53402 0.58817 0.0
C1332 C 0.35714 0.53676 0.57657 0.0
C1333 C 0.34341 0.57556 0.57402 0.0
C1334 C 0.34448 0.61156 0.5828 0.0
H1335 H 0.30499 0.66113 0.61482 0.0
H1336 H 0.30902 0.66523 0.59763 0.0
H1337 H 0.31625 0.61363 0.60607 0.0
H1338 H 0.38331 0.56653 0.60588 0.0
H1339 H 0.38203 0.50437 0.59045 0.0
H1340 H 0.33426 0.33038 0.59806 0.0
H1341 H 0.34851 0.27324 0.61349 0.0
H1342 H 0.4054 0.23884 0.58845 0.0
H1343 H 0.39108 0.29605 0.57273 0.0
H1344 H 0.38112 0.16486 0.59729 0.0
H1345 H 0.4072 0.27638 0.63857 0.0
H1346 H 0.37742 0.28816 0.63229 0.0
H1347 H 0.40228 0.2969 0.62209 0.0
C1348 C 0.34987 0.31088 0.5958 0.0
C1349 C 0.36158 0.31792 0.58416 0.0
C1350 C 0.35812 0.27849 0.60471 0.0
C1351 C 0.37835 0.25265 0.60226 0.0
C1352 C 0.38994 0.25895 0.59058 0.0
H1353 H 0.42202 0.06314 0.66518 0.0
H1354 H 0.42563 0.12194 0.64859 0.0
C1355 C 0.38168 0.2915 0.58161 0.0
C1356 C 0.38619 0.21728 0.61163 0.0
H1357 H 0.39778 0.19941 0.64415 0.0
C1358 C 0.38528 0.17239 0.60748 0.0
C1359 C 0.39211 0.22719 0.62487 0.0
C1360 C 0.39508 0.27484 0.62969 0.0
C1361 C 0.38826 0.13707 0.61644 0.0
C1362 C 0.39181 0.14708 0.62987 0.0
C1363 C 0.39465 0.19187 0.63387 0.0
C1364 C 0.39003 0.11196 0.63994 0.0
C1365 C 0.38681 0.08935 0.61151 0.0
C1366 C 0.36862 0.08805 0.64077 0.0
C1367 C 0.36648 0.05486 0.65019 0.0
C1368 C 0.38568 0.04508 0.65905 0.0
C1369 C 0.40695 0.06994 0.65847 0.0
C1370 C 0.40907 0.10332 0.64899 0.0
H1371 H 0.39199 0.08713 0.60122 0.0
H1372 H 0.3985 0.06665 0.61757 0.0
H1373 H 0.36811 0.07731 0.6119 0.0
H1374 H 0.3535 0.09512 0.63411 0.0
H1375 H 0.34979 0.03658 0.65045 0.0
loop_
_geom_bond_atom_site_label_1
_geom_bond_atom_site_label_2
_geom_bond_distance
_geom_bond_site_symmetry_2
_ccdc_geom_bond_type
C0 O1 1.306 . S
C0 O3 1.160 . S
O1 C0 1.306 . S
O1 Cd2 2.228 . S
Cd2 O1 2.228 . S
Cd2 O6 2.273 . S
Cd2 O10 2.277 . S
O3 C0 1.160 . S
O3 Cd4 2.203 . S
Cd4 O3 2.203 . S
Cd4 O6 2.411 . S
Cd4 O7 2.333 . S
Cd4 O8 2.352 . S
Cd4 O12 2.277 . S
Cd4 O13 2.356 . S
C5 O10 1.209 . S
C5 O12 1.226 . S
O6 Cd2 2.273 . S
O6 Cd4 2.411 . S
O6 C9 1.320 . S
O7 Cd4 2.333 . S
O7 C9 1.214 . S
O8 Cd4 2.352 . S
O8 C11 1.258 . S
C9 O6 1.320 . S
C9 O7 1.214 . S
O10 Cd2 2.277 . S
O10 C5 1.209 . S
C11 O8 1.258 . S
C11 O13 1.282 . S
O12 Cd4 2.277 . S
O12 C5 1.226 . S
O13 Cd4 2.356 . S
O13 C11 1.282 . S
C14 O15 1.306 . S
C14 O17 1.160 . S
O15 C14 1.306 . S
O15 Cd16 2.228 . S
Cd16 O15 2.228 . S
Cd16 O20 2.273 . S
Cd16 O24 2.277 . S
O17 C14 1.160 . S
O17 Cd18 2.203 . S
Cd18 O17 2.203 . S
Cd18 O20 2.411 . S
Cd18 O21 2.333 . S
Cd18 O22 2.352 . S
Cd18 O26 2.277 . S
Cd18 O27 2.356 . S
C19 O24 1.209 . S
C19 O26 1.226 . S
O20 Cd16 2.273 . S
O20 Cd18 2.411 . S
O20 C23 1.320 . S
O21 Cd18 2.333 . S
O21 C23 1.214 . S
O22 Cd18 2.352 . S
O22 C25 1.258 . S
C23 O20 1.320 . S
C23 O21 1.214 . S
O24 Cd16 2.277 . S
O24 C19 1.209 . S
C25 O22 1.258 . S
C25 O27 1.282 . S
O26 Cd18 2.277 . S
O26 C19 1.226 . S
O27 Cd18 2.356 . S
O27 C25 1.282 . S
C28 O29 1.306 . S
C28 O31 1.160 . S
O29 C28 1.306 . S
O29 Cd30 2.228 . S
Cd30 O29 2.228 . S
Cd30 O34 2.273 . S
Cd30 O38 2.277 . S
O31 C28 1.160 . S
O31 Cd32 2.203 . S
Cd32 O31 2.203 . S
Cd32 O34 2.411 . S
Cd32 O35 2.333 . S
Cd32 O36 2.352 . S
Cd32 O40 2.277 . S
Cd32 O41 2.356 . S
C33 O38 1.209 . S
C33 O40 1.226 . S
O34 Cd30 2.273 . S
O34 Cd32 2.411 . S
O34 C37 1.320 . S
O35 Cd32 2.333 . S
O35 C37 1.214 . S
O36 Cd32 2.352 . S
O36 C39 1.258 . S
C37 O34 1.320 . S
C37 O35 1.214 . S
O38 Cd30 2.277 . S
O38 C33 1.209 . S
C39 O36 1.258 . S
C39 O41 1.282 . S
O40 Cd32 2.277 . S
O40 C33 1.226 . S
O41 Cd32 2.356 . S
O41 C39 1.282 . S
C42 O43 1.306 . S
C42 O45 1.160 . S
O43 C42 1.306 . S
O43 Cd44 2.228 . S
Cd44 O43 2.228 . S
Cd44 O48 2.273 . S
Cd44 O52 2.277 . S
O45 C42 1.160 . S
O45 Cd46 2.203 . S
Cd46 O45 2.203 . S
Cd46 O48 2.411 . S
Cd46 O49 2.333 . S
Cd46 O50 2.352 . S
Cd46 O54 2.277 . S
Cd46 O55 2.356 . S
C47 O52 1.209 . S
C47 O54 1.226 . S
O48 Cd44 2.273 . S
O48 Cd46 2.411 . S
O48 C51 1.320 . S
O49 Cd46 2.333 . S
O49 C51 1.214 . S
O50 Cd46 2.352 . S
O50 C53 1.258 . S
C51 O48 1.320 . S
C51 O49 1.214 . S
O52 Cd44 2.277 . S
O52 C47 1.209 . S
C53 O50 1.258 . S
C53 O55 1.282 . S
O54 Cd46 2.277 . S
O54 C47 1.226 . S
O55 Cd46 2.356 . S
O55 C53 1.282 . S
C56 O57 1.306 . S
C56 O59 1.160 . S
O57 C56 1.306 . S
O57 Cd58 2.228 . S
Cd58 O57 2.228 . S
Cd58 O62 2.273 . S
Cd58 O66 2.277 . S
O59 C56 1.160 . S
O59 Cd60 2.203 . S
Cd60 O59 2.203 . S
Cd60 O62 2.411 . S
Cd60 O63 2.333 . S
Cd60 O64 2.352 . S
Cd60 O68 2.277 . S
Cd60 O69 2.356 . S
C61 O66 1.209 . S
C61 O68 1.226 . S
O62 Cd58 2.273 . S
O62 Cd60 2.411 . S
O62 C65 1.320 . S
O63 Cd60 2.333 . S
O63 C65 1.214 . S
O64 Cd60 2.352 . S
O64 C67 1.258 . S
C65 O62 1.320 . S
C65 O63 1.214 . S
O66 Cd58 2.277 . S
O66 C61 1.209 . S
C67 O64 1.258 . S
C67 O69 1.282 . S
O68 Cd60 2.277 . S
O68 C61 1.226 . S
O69 Cd60 2.356 . S
O69 C67 1.282 . S
C70 O71 1.306 . S
C70 O73 1.160 . S
O71 C70 1.306 . S
O71 Cd72 2.228 . S
Cd72 O71 2.228 . S
Cd72 O76 2.273 . S
Cd72 O80 2.277 . S
O73 C70 1.160 . S
O73 Cd74 2.203 . S
Cd74 O73 2.203 . S
Cd74 O76 2.411 . S
Cd74 O77 2.333 . S
Cd74 O78 2.352 . S
Cd74 O82 2.277 . S
Cd74 O83 2.356 . S
C75 O80 1.209 . S
C75 O82 1.226 . S
O76 Cd72 2.273 . S
O76 Cd74 2.411 . S
O76 C79 1.320 . S
O77 Cd74 2.333 . S
O77 C79 1.214 . S
O78 Cd74 2.352 . S
O78 C81 1.258 . S
C79 O76 1.320 . S
C79 O77 1.214 . S
O80 Cd72 2.277 . S
O80 C75 1.209 . S
C81 O78 1.258 . S
C81 O83 1.282 . S
O82 Cd74 2.277 . S
O82 C75 1.226 . S
O83 Cd74 2.356 . S
O83 C81 1.282 . S
C84 O85 1.306 . S
C84 O87 1.160 . S
O85 C84 1.306 . S
O85 Cd86 2.228 . S
Cd86 O85 2.228 . S
Cd86 O90 2.273 . S
Cd86 O94 2.277 . S
O87 C84 1.160 . S
O87 Cd88 2.203 . S
Cd88 O87 2.203 . S
Cd88 O90 2.411 . S
Cd88 O91 2.333 . S
Cd88 O92 2.352 . S
Cd88 O96 2.277 . S
Cd88 O97 2.356 . S
C89 O94 1.209 . S
C89 O96 1.226 . S
O90 Cd86 2.273 . S
O90 Cd88 2.411 . S
O90 C93 1.320 . S
O91 Cd88 2.333 . S
O91 C93 1.214 . S
O92 Cd88 2.352 . S
O92 C95 1.258 . S
C93 O90 1.320 . S
C93 O91 1.214 . S
O94 Cd86 2.277 . S
O94 C89 1.209 . S
C95 O92 1.258 . S
C95 O97 1.282 . S
O96 Cd88 2.277 . S
O96 C89 1.226 . S
O97 Cd88 2.356 . S
O97 C95 1.282 . S
C98 O99 1.306 . S
C98 O101 1.160 . S
O99 C98 1.306 . S
O99 Cd100 2.228 . S
Cd100 O99 2.228 . S
Cd100 O104 2.273 . S
Cd100 O108 2.277 . S
O101 C98 1.160 . S
O101 Cd102 2.203 . S
Cd102 O101 2.203 . S
Cd102 O104 2.411 . S
Cd102 O105 2.333 . S
Cd102 O106 2.352 . S
Cd102 O110 2.277 . S
Cd102 O111 2.356 . S
C103 O108 1.209 . S
C103 O110 1.226 . S
O104 Cd100 2.273 . S
O104 Cd102 2.411 . S
O104 C107 1.320 . S
O105 Cd102 2.333 . S
O105 C107 1.214 . S
O106 Cd102 2.352 . S
O106 C109 1.258 . S
C107 O104 1.320 . S
C107 O105 1.214 . S
O108 Cd100 2.277 . S
O108 C103 1.209 . S
C109 O106 1.258 . S
C109 O111 1.282 . S
O110 Cd102 2.277 . S
O110 C103 1.226 . S
O111 Cd102 2.356 . S
O111 C109 1.282 . S
C112 O113 1.306 . S
C112 O115 1.160 . S
O113 C112 1.306 . S
O113 Cd114 2.228 . S
Cd114 O113 2.228 . S
Cd114 O118 2.273 . S
Cd114 O122 2.277 . S
O115 C112 1.160 . S
O115 Cd116 2.203 . S
Cd116 O115 2.203 . S
Cd116 O118 2.411 . S
Cd116 O119 2.333 . S
Cd116 O120 2.352 . S
Cd116 O124 2.277 . S
Cd116 O125 2.356 . S
C117 O122 1.209 . S
C117 O124 1.226 . S
O118 Cd114 2.273 . S
O118 Cd116 2.411 . S
O118 C121 1.320 . S
O119 Cd116 2.333 . S
O119 C121 1.214 . S
O120 Cd116 2.352 . S
O120 C123 1.258 . S
C121 O118 1.320 . S
C121 O119 1.214 . S
O122 Cd114 2.277 . S
O122 C117 1.209 . S
C123 O120 1.258 . S
C123 O125 1.282 . S
O124 Cd116 2.277 . S
O124 C117 1.226 . S
O125 Cd116 2.356 . S
O125 C123 1.282 . S
C126 O127 1.306 . S
C126 O129 1.160 . S
O127 C126 1.306 . S
O127 Cd128 2.228 . S
Cd128 O127 2.228 . S
Cd128 O132 2.273 . S
Cd128 O136 2.277 . S
O129 C126 1.160 . S
O129 Cd130 2.203 . S
Cd130 O129 2.203 . S
Cd130 O132 2.411 . S
Cd130 O133 2.333 . S
Cd130 O134 2.352 . S
Cd130 O138 2.277 . S
Cd130 O139 2.356 . S
C131 O136 1.209 . S
C131 O138 1.226 . S
O132 Cd128 2.273 . S
O132 Cd130 2.411 . S
O132 C135 1.320 . S
O133 Cd130 2.333 . S
O133 C135 1.214 . S
O134 Cd130 2.352 . S
O134 C137 1.258 . S
C135 O132 1.320 . S
C135 O133 1.214 . S
O136 Cd128 2.277 . S
O136 C131 1.209 . S
C137 O134 1.258 . S
C137 O139 1.282 . S
O138 Cd130 2.277 . S
O138 C131 1.226 . S
O139 Cd130 2.356 . S
O139 C137 1.282 . S
C140 O141 1.306 . S
C140 O143 1.160 . S
O141 C140 1.306 . S
O141 Cd142 2.228 . S
Cd142 O141 2.228 . S
Cd142 O146 2.273 . S
Cd142 O150 2.277 . S
O143 C140 1.160 . S
O143 Cd144 2.203 . S
Cd144 O143 2.203 . S
Cd144 O146 2.411 . S
Cd144 O147 2.333 . S
Cd144 O148 2.352 . S
Cd144 O152 2.277 . S
Cd144 O153 2.356 . S
C145 O150 1.209 . S
C145 O152 1.226 . S
O146 Cd142 2.273 . S
O146 Cd144 2.411 . S
O146 C149 1.320 . S
O147 Cd144 2.333 . S
O147 C149 1.214 . S
O148 Cd144 2.352 . S
O148 C151 1.258 . S
C149 O146 1.320 . S
C149 O147 1.214 . S
O150 Cd142 2.277 . S
O150 C145 1.209 . S
C151 O148 1.258 . S
C151 O153 1.282 . S
O152 Cd144 2.277 . S
O152 C145 1.226 . S
O153 Cd144 2.356 . S
O153 C151 1.282 . S
C154 O155 1.306 . S
C154 O157 1.160 . S
O155 C154 1.306 . S
O155 Cd156 2.228 . S
Cd156 O155 2.228 . S
Cd156 O160 2.273 . S
Cd156 O164 2.277 . S
O157 C154 1.160 . S
O157 Cd158 2.203 . S
Cd158 O157 2.203 . S
Cd158 O160 2.411 . S
Cd158 O161 2.333 . S
Cd158 O162 2.352 . S
Cd158 O166 2.277 . S
Cd158 O167 2.356 . S
C159 O164 1.209 . S
C159 O166 1.226 . S
O160 Cd156 2.273 . S
O160 Cd158 2.411 . S
O160 C163 1.320 . S
O161 Cd158 2.333 . S
O161 C163 1.214 . S
O162 Cd158 2.352 . S
O162 C165 1.258 . S
C163 O160 1.320 . S
C163 O161 1.214 . S
O164 Cd156 2.277 . S
O164 C159 1.209 . S
C165 O162 1.258 . S
C165 O167 1.282 . S
O166 Cd158 2.277 . S
O166 C159 1.226 . S
O167 Cd158 2.356 . S
O167 C165 1.282 . S
C168 O169 1.306 . S
C168 O171 1.160 . S
O169 C168 1.306 . S
O169 Cd170 2.228 . S
Cd170 O169 2.228 . S
Cd170 O174 2.273 . S
Cd170 O178 2.277 . S
O171 C168 1.160 . S
O171 Cd172 2.203 . S
Cd172 O171 2.203 . S
Cd172 O174 2.411 . S
Cd172 O175 2.333 . S
Cd172 O176 2.352 . S
Cd172 O180 2.277 . S
Cd172 O181 2.356 . S
C173 O178 1.209 . S
C173 O180 1.226 . S
O174 Cd170 2.273 . S
O174 Cd172 2.411 . S
O174 C177 1.320 . S
O175 Cd172 2.333 . S
O175 C177 1.214 . S
O176 Cd172 2.352 . S
O176 C179 1.258 . S
C177 O174 1.320 . S
C177 O175 1.214 . S
O178 Cd170 2.277 . S
O178 C173 1.209 . S
C179 O176 1.258 . S
C179 O181 1.282 . S
O180 Cd172 2.277 . S
O180 C173 1.226 . S
O181 Cd172 2.356 . S
O181 C179 1.282 . S
C182 O183 1.306 . S
C182 O185 1.160 . S
O183 C182 1.306 . S
O183 Cd184 2.228 . S
Cd184 O183 2.228 . S
Cd184 O188 2.273 . S
Cd184 O192 2.277 . S
O185 C182 1.160 . S
O185 Cd186 2.203 . S
Cd186 O185 2.203 . S
Cd186 O188 2.411 . S
Cd186 O189 2.333 . S
Cd186 O190 2.352 . S
Cd186 O194 2.277 . S
Cd186 O195 2.356 . S
C187 O192 1.209 . S
C187 O194 1.226 . S
O188 Cd184 2.273 . S
O188 Cd186 2.411 . S
O188 C191 1.320 . S
O189 Cd186 2.333 . S
O189 C191 1.214 . S
O190 Cd186 2.352 . S
O190 C193 1.258 . S
C191 O188 1.320 . S
C191 O189 1.214 . S
O192 Cd184 2.277 . S
O192 C187 1.209 . S
C193 O190 1.258 . S
C193 O195 1.282 . S
O194 Cd186 2.277 . S
O194 C187 1.226 . S
O195 Cd186 2.356 . S
O195 C193 1.282 . S
C196 O197 1.306 . S
C196 O199 1.160 . S
O197 C196 1.306 . S
O197 Cd198 2.228 . S
Cd198 O197 2.228 . S
Cd198 O202 2.273 . S
Cd198 O206 2.277 . S
O199 C196 1.160 . S
O199 Cd200 2.203 . S
Cd200 O199 2.203 . S
Cd200 O202 2.411 . S
Cd200 O203 2.333 . S
Cd200 O204 2.352 . S
Cd200 O208 2.277 . S
Cd200 O209 2.356 . S
C201 O206 1.209 . S
C201 O208 1.226 . S
O202 Cd198 2.273 . S
O202 Cd200 2.411 . S
O202 C205 1.320 . S
O203 Cd200 2.333 . S
O203 C205 1.214 . S
O204 Cd200 2.352 . S
O204 C207 1.258 . S
C205 O202 1.320 . S
C205 O203 1.214 . S
O206 Cd198 2.277 . S
O206 C201 1.209 . S
C207 O204 1.258 . S
C207 O209 1.282 . S
O208 Cd200 2.277 . S
O208 C201 1.226 . S
O209 Cd200 2.356 . S
O209 C207 1.282 . S
C210 O211 1.306 . S
C210 O213 1.160 . S
O211 C210 1.306 . S
O211 Cd212 2.228 . S
Cd212 O211 2.228 . S
Cd212 O216 2.273 . S
Cd212 O220 2.277 . S
O213 C210 1.160 . S
O213 Cd214 2.203 . S
Cd214 O213 2.203 . S
Cd214 O216 2.411 . S
Cd214 O217 2.333 . S
Cd214 O218 2.352 . S
Cd214 O222 2.277 . S
Cd214 O223 2.356 . S
C215 O220 1.209 . S
C215 O222 1.226 . S
O216 Cd212 2.273 . S
O216 Cd214 2.411 . S
O216 C219 1.320 . S
O217 Cd214 2.333 . S
O217 C219 1.214 . S
O218 Cd214 2.352 . S
O218 C221 1.258 . S
C219 O216 1.320 . S
C219 O217 1.214 . S
O220 Cd212 2.277 . S
O220 C215 1.209 . S
C221 O218 1.258 . S
C221 O223 1.282 . S
O222 Cd214 2.277 . S
O222 C215 1.226 . S
O223 Cd214 2.356 . S
O223 C221 1.282 . S
H224 C232 0.929 . S
H225 C234 0.930 . S
H226 C236 0.930 . S
H227 C239 0.929 . S
H228 C242 0.930 . S
H229 C244 0.960 . S
H230 C244 0.960 . S
H231 C244 0.960 . S
C232 H224 0.929 . S
C232 C233 1.377 . S
C232 C234 1.384 . S
C233 C232 1.377 . S
C233 C239 1.390 . S
C234 H225 0.930 . S
C234 C232 1.384 . S
C234 C235 1.372 . S
C235 C234 1.372 . S
C235 C236 1.400 . S
C235 C240 1.490 . S
C236 H226 0.930 . S
C236 C235 1.400 . S
C236 C239 1.386 . S
H237 C253 0.930 . S
H238 C254 0.931 . S
C239 H227 0.929 . S
C239 C233 1.390 . S
C239 C236 1.386 . S
C240 C235 1.490 . S
C240 C242 1.395 . S
C240 C243 1.403 . S
H241 C247 0.930 . S
C242 H228 0.930 . S
C242 C240 1.395 . S
C242 C245 1.403 . S
C243 C240 1.403 . S
C243 C244 1.524 . S
C243 C247 1.400 . S
C244 H229 0.960 . S
C244 H230 0.960 . S
C244 H231 0.960 . S
C244 C243 1.524 . S
C245 C242 1.403 . S
C245 C246 1.392 . S
C245 C249 1.495 . S
C246 C245 1.392 . S
C246 C247 1.385 . S
C246 C248 1.478 . S
C247 H241 0.930 . S
C247 C243 1.400 . S
C247 C246 1.385 . S
C248 C246 1.478 . S
C248 C250 1.381 . S
C248 C254 1.383 . S
C249 C245 1.495 . S
C249 H255 0.959 . S
C249 H256 0.961 . S
C249 H257 0.960 . S
C250 C248 1.381 . S
C250 C251 1.394 . S
C250 H258 0.930 . S
C251 C250 1.394 . S
C251 C252 1.383 . S
C251 H259 0.929 . S
C252 C251 1.383 . S
C252 C253 1.377 . S
C253 H237 0.930 . S
C253 C252 1.377 . S
C253 C254 1.379 . S
C254 H238 0.931 . S
C254 C248 1.383 . S
C254 C253 1.379 . S
H255 C249 0.959 . S
H256 C249 0.961 . S
H257 C249 0.960 . S
H258 C250 0.930 . S
H259 C251 0.929 . S
H260 C268 0.929 . S
H261 C270 0.930 1_545 S
H262 C272 0.930 . S
H263 C275 0.929 . S
H264 C278 0.930 . S
H265 C280 0.960 . S
H266 C280 0.960 . S
H267 C280 0.960 . S
C268 H260 0.929 . S
C268 C269 1.377 . S
C268 C270 1.384 . S
C269 C268 1.377 . S
C269 C275 1.390 . S
C270 H261 0.930 1_565 S
C270 C268 1.384 . S
C270 C271 1.372 . S
C271 C270 1.372 . S
C271 C272 1.400 . S
C271 C276 1.490 . S
C272 H262 0.930 . S
C272 C271 1.400 . S
C272 C275 1.386 . S
H273 C289 0.930 . S
H274 C290 0.931 1_565 S
C275 H263 0.929 . S
C275 C269 1.390 . S
C275 C272 1.386 . S
C276 C271 1.490 . S
C276 C278 1.395 1_565 S
C276 C279 1.403 . S
H277 C283 0.930 . S
C278 H264 0.930 . S
C278 C276 1.395 1_545 S
C278 C281 1.403 1_655 S
C279 C276 1.403 . S
C279 C280 1.524 . S
C279 C283 1.400 1_655 S
C280 H265 0.960 . S
C280 H266 0.960 . S
C280 H267 0.960 . S
C280 C279 1.524 . S
C281 C278 1.403 1_455 S
C281 C282 1.392 . S
C281 C285 1.495 . S
C282 C281 1.392 . S
C282 C283 1.385 1_545 S
C282 C284 1.478 . S
C283 H277 0.930 . S
C283 C279 1.400 1_455 S
C283 C282 1.385 1_565 S
C284 C282 1.478 . S
C284 C286 1.381 . S
C284 C290 1.383 . S
C285 C281 1.495 . S
C285 H291 0.959 . S
C285 H292 0.961 . S
C285 H293 0.960 . S
C286 C284 1.381 . S
C286 C287 1.394 . S
C286 H294 0.930 . S
C287 C286 1.394 . S
C287 C288 1.383 . S
C287 H295 0.929 . S
C288 C287 1.383 . S
C288 C289 1.377 . S
C289 H273 0.930 . S
C289 C288 1.377 . S
C289 C290 1.379 . S
C290 H274 0.931 1_545 S
C290 C284 1.383 . S
C290 C289 1.379 . S
H291 C285 0.959 . S
H292 C285 0.961 . S
H293 C285 0.960 . S
H294 C286 0.930 . S
H295 C287 0.929 . S
H296 C304 0.929 . S
H297 C306 0.930 . S
H298 C308 0.930 . S
H299 C311 0.929 . S
H300 C314 0.930 . S
H301 C316 0.960 . S
H302 C316 0.960 . S
H303 C316 0.960 . S
C304 H296 0.929 . S
C304 C305 1.377 . S
C304 C306 1.384 . S
C305 C304 1.377 . S
C305 C311 1.390 . S
C306 H297 0.930 . S
C306 C304 1.384 . S
C306 C307 1.372 . S
C307 C306 1.372 . S
C307 C308 1.400 . S
C307 C312 1.490 . S
C308 H298 0.930 . S
C308 C307 1.400 . S
C308 C311 1.386 . S
H309 C325 0.930 . S
H310 C326 0.931 . S
C311 H299 0.929 . S
C311 C305 1.390 . S
C311 C308 1.386 . S
C312 C307 1.490 . S
C312 C314 1.395 1_565 S
C312 C315 1.403 . S
H313 C319 0.930 . S
C314 H300 0.930 . S
C314 C312 1.395 1_545 S
C314 C317 1.403 . S
C315 C312 1.403 . S
C315 C316 1.524 . S
C315 C319 1.400 . S
C316 H301 0.960 . S
C316 H302 0.960 . S
C316 H303 0.960 . S
C316 C315 1.524 . S
C317 C314 1.403 . S
C317 C318 1.392 . S
C317 C321 1.495 . S
C318 C317 1.392 . S
C318 C319 1.385 1_545 S
C318 C320 1.478 . S
C319 H313 0.930 . S
C319 C315 1.400 . S
C319 C318 1.385 1_565 S
C320 C318 1.478 . S
C320 C322 1.381 . S
C320 C326 1.383 . S
C321 C317 1.495 . S
C321 H327 0.959 . S
C321 H328 0.961 . S
C321 H329 0.960 . S
C322 C320 1.381 . S
C322 C323 1.394 . S
C322 H330 0.930 . S
C323 C322 1.394 . S
C323 C324 1.383 . S
C323 H331 0.929 . S
C324 C323 1.383 . S
C324 C325 1.377 . S
C325 H309 0.930 . S
C325 C324 1.377 . S
C325 C326 1.379 . S
C326 H310 0.931 . S
C326 C320 1.383 . S
C326 C325 1.379 . S
H327 C321 0.959 . S
H328 C321 0.961 . S
H329 C321 0.960 . S
H330 C322 0.930 . S
H331 C323 0.929 . S
H332 C340 0.929 . S
H333 C342 0.930 . S
H334 C344 0.930 . S
H335 C347 0.929 . S
H336 C350 0.930 . S
H337 C352 0.960 . S
H338 C352 0.960 . S
H339 C352 0.960 . S
C340 H332 0.929 . S
C340 C341 1.377 . S
C340 C342 1.384 . S
C341 C340 1.377 . S
C341 C347 1.390 . S
C342 H333 0.930 . S
C342 C340 1.384 . S
C342 C343 1.372 . S
C343 C342 1.372 . S
C343 C344 1.400 . S
C343 C348 1.490 . S
C344 H334 0.930 . S
C344 C343 1.400 . S
C344 C347 1.386 . S
H345 C361 0.930 . S
H346 C362 0.931 . S
C347 H335 0.929 . S
C347 C341 1.390 . S
C347 C344 1.386 . S
C348 C343 1.490 . S
C348 C350 1.395 . S
C348 C351 1.403 . S
H349 C355 0.930 . S
C350 H336 0.930 . S
C350 C348 1.395 . S
C350 C353 1.403 1_455 S
C351 C348 1.403 . S
C351 C352 1.524 . S
C351 C355 1.400 1_455 S
C352 H337 0.960 . S
C352 H338 0.960 . S
C352 H339 0.960 . S
C352 C351 1.524 . S
C353 C350 1.403 1_655 S
C353 C354 1.392 . S
C353 C357 1.495 . S
C354 C353 1.392 . S
C354 C355 1.385 . S
C354 C356 1.478 . S
C355 H349 0.930 . S
C355 C351 1.400 1_655 S
C355 C354 1.385 . S
C356 C354 1.478 . S
C356 C358 1.381 . S
C356 C362 1.383 . S
C357 C353 1.495 . S
C357 H363 0.959 . S
C357 H364 0.961 . S
C357 H365 0.960 . S
C358 C356 1.381 . S
C358 C359 1.394 . S
C358 H366 0.930 . S
C359 C358 1.394 . S
C359 C360 1.383 . S
C359 H367 0.929 . S
C360 C359 1.383 . S
C360 C361 1.377 . S
C361 H345 0.930 . S
C361 C360 1.377 . S
C361 C362 1.379 . S
C362 H346 0.931 . S
C362 C356 1.383 . S
C362 C361 1.379 . S
H363 C357 0.959 . S
H364 C357 0.961 . S
H365 C357 0.960 . S
H366 C358 0.930 . S
H367 C359 0.929 . S
H368 C376 0.929 . S
H369 C378 0.930 . S
H370 C380 0.930 . S
H371 C383 0.929 . S
H372 C386 0.930 . S
H373 C388 0.960 . S
H374 C388 0.960 . S
H375 C388 0.960 . S
C376 H368 0.929 . S
C376 C377 1.377 . S
C376 C378 1.384 . S
C377 C376 1.377 . S
C377 C383 1.390 . S
C378 H369 0.930 . S
C378 C376 1.384 . S
C378 C379 1.372 . S
C379 C378 1.372 . S
C379 C380 1.400 . S
C379 C384 1.490 . S
C380 H370 0.930 . S
C380 C379 1.400 . S
C380 C383 1.386 . S
H381 C397 0.930 . S
H382 C398 0.931 . S
C383 H371 0.929 . S
C383 C377 1.390 . S
C383 C380 1.386 . S
C384 C379 1.490 . S
C384 C386 1.395 . S
C384 C387 1.403 . S
H385 C391 0.930 . S
C386 H372 0.930 . S
C386 C384 1.395 . S
C386 C389 1.403 . S
C387 C384 1.403 . S
C387 C388 1.524 . S
C387 C391 1.400 . S
C388 H373 0.960 . S
C388 H374 0.960 . S
C388 H375 0.960 . S
C388 C387 1.524 . S
C389 C386 1.403 . S
C389 C390 1.392 . S
C389 C393 1.495 . S
C390 C389 1.392 . S
C390 C391 1.385 . S
C390 C392 1.478 . S
C391 H385 0.930 . S
C391 C387 1.400 . S
C391 C390 1.385 . S
C392 C390 1.478 . S
C392 C394 1.381 . S
C392 C398 1.383 . S
C393 C389 1.495 . S
C393 H399 0.959 . S
C393 H400 0.961 . S
C393 H401 0.960 . S
C394 C392 1.381 . S
C394 C395 1.394 . S
C394 H402 0.930 . S
C395 C394 1.394 . S
C395 C396 1.383 . S
C395 H403 0.929 . S
C396 C395 1.383 . S
C396 C397 1.377 . S
C397 H381 0.930 . S
C397 C396 1.377 . S
C397 C398 1.379 . S
C398 H382 0.931 . S
C398 C392 1.383 . S
C398 C397 1.379 . S
H399 C393 0.959 . S
H400 C393 0.961 . S
H401 C393 0.960 . S
H402 C394 0.930 . S
H403 C395 0.929 . S
H404 C412 0.929 . S
H405 C414 0.930 . S
H406 C416 0.915 1_565 S
H407 C419 0.929 . S
H408 C422 0.930 . S
H409 C424 0.960 . S
H410 C424 0.960 . S
H411 C424 0.960 . S
C412 H404 0.929 . S
C412 C413 1.377 . S
C412 C414 1.384 . S
C413 C412 1.377 . S
C413 C419 1.390 . S
C414 H405 0.930 . S
C414 C412 1.384 . S
C414 C415 1.372 . S
C415 C414 1.372 . S
C415 C416 1.400 . S
C415 C420 1.490 . S
C416 H406 0.915 1_545 S
C416 C415 1.400 . S
C416 C419 1.386 . S
H417 C433 0.930 . S
H418 C434 0.931 . S
C419 H407 0.929 . S
C419 C413 1.390 . S
C419 C416 1.386 . S
C420 C415 1.490 . S
C420 C422 1.395 . S
C420 C423 1.403 1_545 S
H421 C427 0.930 . S
C422 H408 0.930 . S
C422 C420 1.395 . S
C422 C425 1.403 . S
C423 C420 1.403 1_565 S
C423 C424 1.524 . S
C423 C427 1.400 . S
C424 H409 0.960 . S
C424 H410 0.960 . S
C424 H411 0.960 . S
C424 C423 1.524 . S
C425 C422 1.403 . S
C425 C426 1.392 1_545 S
C425 C429 1.495 . S
C426 C425 1.392 1_565 S
C426 C427 1.385 . S
C426 C428 1.478 . S
C427 H421 0.930 . S
C427 C423 1.400 . S
C427 C426 1.385 . S
C428 C426 1.478 . S
C428 C430 1.381 . S
C428 C434 1.383 . S
C429 C425 1.495 . S
C429 H435 0.959 . S
C429 H436 0.961 . S
C429 H437 0.960 . S
C430 C428 1.381 . S
C430 C431 1.394 . S
C430 H438 0.930 1_565 S
C431 C430 1.394 . S
C431 C432 1.383 . S
C431 H439 0.929 . S
C432 C431 1.383 . S
C432 C433 1.377 . S
C433 H417 0.930 . S
C433 C432 1.377 . S
C433 C434 1.379 . S
C434 H418 0.931 . S
C434 C428 1.383 . S
C434 C433 1.379 . S
H435 C429 0.959 . S
H436 C429 0.961 . S
H437 C429 0.960 . S
H438 C430 0.930 1_545 S
H439 C431 0.929 . S
H440 C448 0.929 . S
H441 C450 0.930 . S
H442 C452 0.930 . S
H443 C455 0.929 . S
H444 C458 0.930 . S
H445 C460 0.960 . S
H446 C460 0.960 . S
H447 C460 0.960 . S
C448 H440 0.929 . S
C448 C449 1.377 . S
C448 C450 1.384 . S
C449 C448 1.377 . S
C449 C455 1.390 . S
C450 H441 0.930 . S
C450 C448 1.384 . S
C450 C451 1.372 . S
C451 C450 1.372 . S
C451 C452 1.400 . S
C451 C456 1.490 . S
C452 H442 0.930 . S
C452 C451 1.400 . S
C452 C455 1.386 . S
H453 C469 0.930 . S
H454 C470 0.931 . S
C455 H443 0.929 . S
C455 C449 1.390 . S
C455 C452 1.386 . S
C456 C451 1.490 . S
C456 C458 1.395 . S
C456 C459 1.403 1_655 S
H457 C463 0.930 . S
C458 H444 0.930 . S
C458 C456 1.395 . S
C458 C461 1.403 . S
C459 C456 1.403 1_455 S
C459 C460 1.524 . S
C459 C463 1.400 . S
C460 H445 0.960 . S
C460 H446 0.960 . S
C460 H447 0.960 . S
C460 C459 1.524 . S
C461 C458 1.403 . S
C461 C462 1.392 1_655 S
C461 C465 1.495 . S
C462 C461 1.392 1_455 S
C462 C463 1.385 . S
C462 C464 1.478 . S
C463 H457 0.930 . S
C463 C459 1.400 . S
C463 C462 1.385 . S
C464 C462 1.478 . S
C464 C466 1.381 . S
C464 C470 1.383 . S
C465 C461 1.495 . S
C465 H471 0.959 . S
C465 H472 0.961 . S
C465 H473 0.960 . S
C466 C464 1.381 . S
C466 C467 1.394 . S
C466 H474 0.930 . S
C467 C466 1.394 . S
C467 C468 1.383 . S
C467 H475 0.929 . S
C468 C467 1.383 . S
C468 C469 1.377 . S
C469 H453 0.930 . S
C469 C468 1.377 . S
C469 C470 1.379 . S
C470 H454 0.931 . S
C470 C464 1.383 . S
C470 C469 1.379 . S
H471 C465 0.959 . S
H472 C465 0.961 . S
H473 C465 0.960 . S
H474 C466 0.930 . S
H475 C467 0.929 . S
H476 C484 0.929 . S
H477 C486 0.930 . S
H478 C488 0.930 . S
H479 C491 0.929 . S
H480 C494 0.930 . S
H481 C496 0.960 . S
H482 C496 0.960 . S
H483 C496 0.960 . S
C484 H476 0.929 . S
C484 C485 1.377 . S
C484 C486 1.384 . S
C485 C484 1.377 . S
C485 C491 1.390 . S
C486 H477 0.930 . S
C486 C484 1.384 . S
C486 C487 1.372 . S
C487 C486 1.372 . S
C487 C488 1.400 . S
C487 C492 1.490 . S
C488 H478 0.930 . S
C488 C487 1.400 . S
C488 C491 1.386 . S
H489 C505 0.930 . S
H490 C506 0.931 . S
C491 H479 0.929 . S
C491 C485 1.390 . S
C491 C488 1.386 . S
C492 C487 1.490 . S
C492 C494 1.395 1_554 S
C492 C495 1.403 . S
H493 C499 0.930 . S
C494 H480 0.930 . S
C494 C492 1.395 1_556 S
C494 C497 1.403 . S
C495 C492 1.403 . S
C495 C496 1.524 . S
C495 C499 1.400 . S
C496 H481 0.960 . S
C496 H482 0.960 . S
C496 H483 0.960 . S
C496 C495 1.524 . S
C497 C494 1.403 . S
C497 C498 1.392 . S
C497 C501 1.495 . S
C498 C497 1.392 . S
C498 C499 1.385 1_556 S
C498 C500 1.478 . S
C499 H493 0.930 . S
C499 C495 1.400 . S
C499 C498 1.385 1_554 S
C500 C498 1.478 . S
C500 C502 1.381 . S
C500 C506 1.383 . S
C501 C497 1.495 . S
C501 H507 0.959 . S
C501 H508 0.961 . S
C501 H509 0.960 . S
C502 C500 1.381 . S
C502 C503 1.394 . S
C502 H510 0.930 . S
C503 C502 1.394 . S
C503 C504 1.383 . S
C503 H511 0.929 . S
C504 C503 1.383 . S
C504 C505 1.377 . S
C505 H489 0.930 . S
C505 C504 1.377 . S
C505 C506 1.379 . S
C506 H490 0.931 . S
C506 C500 1.383 . S
C506 C505 1.379 . S
H507 C501 0.959 . S
H508 C501 0.961 . S
H509 C501 0.960 . S
H510 C502 0.930 . S
H511 C503 0.929 . S
H512 C520 0.929 . S
H513 C522 0.930 . S
H514 C524 0.930 . S
H515 C527 0.929 . S
H516 C530 0.930 . S
H517 C532 0.960 1_655 S
H518 C532 0.960 . S
H519 C532 0.960 1_655 S
C520 H512 0.929 . S
C520 C521 1.377 . S
C520 C522 1.384 . S
C521 C520 1.377 . S
C521 C527 1.390 . S
C522 H513 0.930 . S
C522 C520 1.384 . S
C522 C523 1.372 . S
C523 C522 1.372 . S
C523 C524 1.400 . S
C523 C528 1.490 . S
C524 H514 0.930 . S
C524 C523 1.400 . S
C524 C527 1.386 . S
H525 C541 0.930 . S
H526 C542 0.931 . S
C527 H515 0.929 . S
C527 C521 1.390 . S
C527 C524 1.386 . S
C528 C523 1.490 . S
C528 C530 1.395 1_556 S
C528 C531 1.403 . S
H529 C535 0.930 . S
C530 H516 0.930 . S
C530 C528 1.395 1_554 S
C530 C533 1.403 . S
C531 C528 1.403 . S
C531 C532 1.524 . S
C531 C535 1.400 1_455 S
C532 H517 0.960 1_455 S
C532 H518 0.960 . S
C532 H519 0.960 1_455 S
C532 C531 1.524 . S
C533 C530 1.403 . S
C533 C534 1.392 1_455 S
C533 C537 1.495 . S
C534 C533 1.392 1_655 S
C534 C535 1.385 1_554 S
C534 C536 1.478 . S
C535 H529 0.930 . S
C535 C531 1.400 1_655 S
C535 C534 1.385 1_556 S
C536 C534 1.478 . S
C536 C538 1.381 . S
C536 C542 1.383 . S
C537 C533 1.495 . S
C537 H543 0.959 . S
C537 H544 0.961 1_455 S
C537 H545 0.960 . S
C538 C536 1.381 . S
C538 C539 1.394 . S
C538 H546 0.930 . S
C539 C538 1.394 . S
C539 C540 1.383 . S
C539 H547 0.929 . S
C540 C539 1.383 . S
C540 C541 1.377 . S
C541 H525 0.930 . S
C541 C540 1.377 . S
C541 C542 1.379 . S
C542 H526 0.931 . S
C542 C536 1.383 . S
C542 C541 1.379 . S
H543 C537 0.959 . S
H544 C537 0.961 1_655 S
H545 C537 0.960 . S
H546 C538 0.930 . S
H547 C539 0.929 . S
H548 C556 0.929 . S
H549 C558 0.930 . S
H550 C560 0.930 . S
H551 C563 0.929 . S
H552 C566 0.930 . S
H553 C568 0.960 . S
H554 C568 0.960 . S
H555 C568 0.960 . S
C556 H548 0.929 . S
C556 C557 1.377 . S
C556 C558 1.384 . S
C557 C556 1.377 . S
C557 C563 1.390 . S
C558 H549 0.930 . S
C558 C556 1.384 . S
C558 C559 1.372 . S
C559 C558 1.372 . S
C559 C560 1.400 . S
C559 C564 1.490 . S
C560 H550 0.930 . S
C560 C559 1.400 . S
C560 C563 1.386 . S
H561 C577 0.930 . S
H562 C578 0.931 . S
C563 H551 0.929 . S
C563 C557 1.390 . S
C563 C560 1.386 . S
C564 C559 1.490 . S
C564 C566 1.395 . S
C564 C567 1.403 . S
H565 C571 0.930 . S
C566 H552 0.930 . S
C566 C564 1.395 . S
C566 C569 1.403 . S
C567 C564 1.403 . S
C567 C568 1.524 . S
C567 C571 1.400 . S
C568 H553 0.960 . S
C568 H554 0.960 . S
C568 H555 0.960 . S
C568 C567 1.524 . S
C569 C566 1.403 . S
C569 C570 1.392 . S
C569 C573 1.495 . S
C570 C569 1.392 . S
C570 C571 1.385 . S
C570 C572 1.478 . S
C571 H565 0.930 . S
C571 C567 1.400 . S
C571 C570 1.385 . S
C572 C570 1.478 . S
C572 C574 1.381 . S
C572 C578 1.383 . S
C573 C569 1.495 . S
C573 H579 0.959 . S
C573 H580 0.961 . S
C573 H581 0.960 . S
C574 C572 1.381 . S
C574 C575 1.394 . S
C574 H582 0.930 . S
C575 C574 1.394 . S
C575 C576 1.383 . S
C575 H583 0.929 . S
C576 C575 1.383 . S
C576 C577 1.377 . S
C577 H561 0.930 . S
C577 C576 1.377 . S
C577 C578 1.379 . S
C578 H562 0.931 . S
C578 C572 1.383 . S
C578 C577 1.379 . S
H579 C573 0.959 . S
H580 C573 0.961 . S
H581 C573 0.960 . S
H582 C574 0.930 . S
H583 C575 0.929 . S
H584 C592 0.929 . S
H585 C594 0.930 . S
H586 C596 0.930 . S
H587 C599 0.929 . S
H588 C602 0.930 . S
H589 C604 0.960 . S
H590 C604 0.960 . S
H591 C604 0.960 . S
C592 H584 0.929 . S
C592 C593 1.377 . S
C592 C594 1.384 . S
C593 C592 1.377 . S
C593 C599 1.390 . S
C594 H585 0.930 . S
C594 C592 1.384 . S
C594 C595 1.372 . S
C595 C594 1.372 . S
C595 C596 1.400 . S
C595 C600 1.490 . S
C596 H586 0.930 . S
C596 C595 1.400 . S
C596 C599 1.386 . S
H597 C613 0.930 . S
H598 C614 0.931 . S
C599 H587 0.929 . S
C599 C593 1.390 . S
C599 C596 1.386 . S
C600 C595 1.490 . S
C600 C602 1.395 . S
C600 C603 1.403 1_556 S
H601 C607 0.930 . S
C602 H588 0.930 . S
C602 C600 1.395 . S
C602 C605 1.403 . S
C603 C600 1.403 1_554 S
C603 C604 1.524 . S
C603 C607 1.400 . S
C604 H589 0.960 . S
C604 H590 0.960 . S
C604 H591 0.960 . S
C604 C603 1.524 . S
C605 C602 1.403 . S
C605 C606 1.392 1_556 S
C605 C609 1.495 . S
C606 C605 1.392 1_554 S
C606 C607 1.385 . S
C606 C608 1.478 . S
C607 H601 0.930 . S
C607 C603 1.400 . S
C607 C606 1.385 . S
C608 C606 1.478 . S
C608 C610 1.381 . S
C608 C614 1.383 . S
C609 C605 1.495 . S
C609 H615 0.959 . S
C609 H616 0.961 . S
C609 H617 0.960 . S
C610 C608 1.381 . S
C610 C611 1.394 . S
C610 H618 0.930 . S
C611 C610 1.394 . S
C611 C612 1.383 . S
C611 H619 0.929 . S
C612 C611 1.383 . S
C612 C613 1.377 . S
C613 H597 0.930 . S
C613 C612 1.377 . S
C613 C614 1.379 . S
C614 H598 0.931 . S
C614 C608 1.383 . S
C614 C613 1.379 . S
H615 C609 0.959 . S
H616 C609 0.961 . S
H617 C609 0.960 . S
H618 C610 0.930 . S
H619 C611 0.929 . S
H620 C628 0.929 . S
H621 C630 0.930 . S
H622 C632 0.930 . S
H623 C635 0.929 . S
H624 C638 0.930 . S
H625 C640 0.960 . S
H626 C640 0.960 . S
H627 C640 0.960 . S
C628 H620 0.929 . S
C628 C629 1.377 . S
C628 C630 1.384 . S
C629 C628 1.377 . S
C629 C635 1.390 . S
C630 H621 0.930 . S
C630 C628 1.384 . S
C630 C631 1.372 . S
C631 C630 1.372 . S
C631 C632 1.400 . S
C631 C636 1.490 . S
C632 H622 0.930 . S
C632 C631 1.400 . S
C632 C635 1.386 . S
H633 C649 0.930 . S
H634 C650 0.931 . S
C635 H623 0.929 . S
C635 C629 1.390 . S
C635 C632 1.386 . S
C636 C631 1.490 . S
C636 C638 1.395 . S
C636 C639 1.403 . S
H637 C643 0.930 . S
C638 H624 0.930 . S
C638 C636 1.395 . S
C638 C641 1.403 . S
C639 C636 1.403 . S
C639 C640 1.524 . S
C639 C643 1.400 . S
C640 H625 0.960 . S
C640 H626 0.960 . S
C640 H627 0.960 . S
C640 C639 1.524 . S
C641 C638 1.403 . S
C641 C642 1.392 . S
C641 C645 1.495 . S
C642 C641 1.392 . S
C642 C643 1.385 . S
C642 C644 1.478 . S
C643 H637 0.930 . S
C643 C639 1.400 . S
C643 C642 1.385 . S
C644 C642 1.478 . S
C644 C646 1.381 . S
C644 C650 1.383 . S
C645 C641 1.495 . S
C645 H651 0.959 . S
C645 H652 0.961 . S
C645 H653 0.960 . S
C646 C644 1.381 . S
C646 C647 1.394 . S
C646 H654 0.930 . S
C647 C646 1.394 . S
C647 C648 1.383 . S
C647 H655 0.929 . S
C648 C647 1.383 . S
C648 C649 1.377 . S
C649 H633 0.930 . S
C649 C648 1.377 . S
C649 C650 1.379 . S
C650 H634 0.931 . S
C650 C644 1.383 . S
C650 C649 1.379 . S
H651 C645 0.959 . S
H652 C645 0.961 . S
H653 C645 0.960 . S
H654 C646 0.930 . S
H655 C647 0.929 . S
H656 C664 0.929 . S
H657 C666 0.930 . S
H658 C668 0.930 1_565 S
H659 C671 0.929 . S
H660 C674 0.930 . S
H661 C676 0.960 . S
H662 C676 0.960 . S
H663 C676 0.960 . S
C664 H656 0.929 . S
C664 C665 1.377 . S
C664 C666 1.384 . S
C665 C664 1.377 . S
C665 C671 1.390 . S
C666 H657 0.930 . S
C666 C664 1.384 . S
C666 C667 1.372 . S
C667 C666 1.372 . S
C667 C668 1.400 . S
C667 C672 1.490 . S
C668 H658 0.930 1_545 S
C668 C667 1.400 . S
C668 C671 1.386 . S
H669 C685 0.930 . S
H670 C686 0.931 . S
C671 H659 0.929 . S
C671 C665 1.390 . S
C671 C668 1.386 . S
C672 C667 1.490 . S
C672 C674 1.395 . S
C672 C675 1.403 1_556 S
H673 C679 0.930 . S
C674 H660 0.930 . S
C674 C672 1.395 . S
C674 C677 1.403 1_545 S
C675 C672 1.403 1_554 S
C675 C676 1.524 . S
C675 C679 1.400 1_545 S
C676 H661 0.960 . S
C676 H662 0.960 . S
C676 H663 0.960 . S
C676 C675 1.524 . S
C677 C674 1.403 1_565 S
C677 C678 1.392 1_556 S
C677 C681 1.495 . S
C678 C677 1.392 1_554 S
C678 C679 1.385 . S
C678 C680 1.478 . S
C679 H673 0.930 . S
C679 C675 1.400 1_565 S
C679 C678 1.385 . S
C680 C678 1.478 . S
C680 C682 1.381 . S
C680 C686 1.383 . S
C681 C677 1.495 . S
C681 H687 0.959 . S
C681 H688 0.961 . S
C681 H689 0.960 . S
C682 C680 1.381 . S
C682 C683 1.394 . S
C682 H690 0.930 1_565 S
C683 C682 1.394 . S
C683 C684 1.383 . S
C683 H691 0.929 . S
C684 C683 1.383 . S
C684 C685 1.377 . S
C685 H669 0.930 . S
C685 C684 1.377 . S
C685 C686 1.379 . S
C686 H670 0.931 . S
C686 C680 1.383 . S
C686 C685 1.379 . S
H687 C681 0.959 . S
H688 C681 0.961 . S
H689 C681 0.960 . S
H690 C682 0.930 1_545 S
H691 C683 0.929 . S
H692 C700 0.929 . S
H693 C702 0.930 . S
H694 C704 0.930 . S
H695 C707 0.929 . S
H696 C710 0.930 . S
H697 C712 0.960 . S
H698 C712 0.960 . S
H699 C712 0.960 . S
C700 H692 0.929 . S
C700 C701 1.377 . S
C700 C702 1.384 . S
C701 C700 1.377 . S
C701 C707 1.390 . S
C702 H693 0.930 . S
C702 C700 1.384 . S
C702 C703 1.372 . S
C703 C702 1.372 . S
C703 C704 1.400 . S
C703 C708 1.490 . S
C704 H694 0.930 . S
C704 C703 1.400 . S
C704 C707 1.386 . S
H705 C721 0.930 . S
H706 C722 0.931 . S
C707 H695 0.929 . S
C707 C701 1.390 . S
C707 C704 1.386 . S
C708 C703 1.490 . S
C708 C710 1.395 . S
C708 C711 1.403 . S
H709 C715 0.930 . S
C710 H696 0.930 . S
C710 C708 1.395 . S
C710 C713 1.403 . S
C711 C708 1.403 . S
C711 C712 1.524 . S
C711 C715 1.400 . S
C712 H697 0.960 . S
C712 H698 0.960 . S
C712 H699 0.960 . S
C712 C711 1.524 . S
C713 C710 1.403 . S
C713 C714 1.392 . S
C713 C717 1.495 . S
C714 C713 1.392 . S
C714 C715 1.385 . S
C714 C716 1.478 . S
C715 H709 0.930 . S
C715 C711 1.400 . S
C715 C714 1.385 . S
C716 C714 1.478 . S
C716 C718 1.381 . S
C716 C722 1.383 . S
C717 C713 1.495 . S
C717 H723 0.959 . S
C717 H724 0.961 . S
C717 H725 0.960 . S
C718 C716 1.381 . S
C718 C719 1.394 . S
C718 H726 0.930 . S
C719 C718 1.394 . S
C719 C720 1.383 . S
C719 H727 0.929 . S
C720 C719 1.383 . S
C720 C721 1.377 . S
C721 H705 0.930 . S
C721 C720 1.377 . S
C721 C722 1.379 . S
C722 H706 0.931 . S
C722 C716 1.383 . S
C722 C721 1.379 . S
H723 C717 0.959 . S
H724 C717 0.961 . S
H725 C717 0.960 . S
H726 C718 0.930 . S
H727 C719 0.929 . S
H728 C736 0.929 . S
H729 C738 0.930 . S
H730 C740 0.930 . S
H731 C743 0.929 . S
H732 C746 0.930 . S
H733 C748 0.960 . S
H734 C748 0.960 . S
H735 C748 0.960 . S
C736 H728 0.929 . S
C736 C737 1.377 . S
C736 C738 1.384 . S
C737 C736 1.377 . S
C737 C743 1.390 . S
C738 H729 0.930 . S
C738 C736 1.384 . S
C738 C739 1.372 . S
C739 C738 1.372 . S
C739 C740 1.400 . S
C739 C744 1.490 . S
C740 H730 0.930 . S
C740 C739 1.400 . S
C740 C743 1.386 . S
H741 C757 0.930 . S
H742 C758 0.931 . S
C743 H731 0.929 . S
C743 C737 1.390 . S
C743 C740 1.386 . S
C744 C739 1.490 . S
C744 C746 1.395 . S
C744 C747 1.403 . S
H745 C751 0.930 . S
C746 H732 0.930 . S
C746 C744 1.395 . S
C746 C749 1.403 . S
C747 C744 1.403 . S
C747 C748 1.524 . S
C747 C751 1.400 . S
C748 H733 0.960 . S
C748 H734 0.960 . S
C748 H735 0.960 . S
C748 C747 1.524 . S
C749 C746 1.403 . S
C749 C750 1.392 . S
C749 C753 1.495 . S
C750 C749 1.392 . S
C750 C751 1.385 . S
C750 C752 1.478 . S
C751 H745 0.930 . S
C751 C747 1.400 . S
C751 C750 1.385 . S
C752 C750 1.478 . S
C752 C754 1.381 . S
C752 C758 1.383 . S
C753 C749 1.495 . S
C753 H759 0.959 . S
C753 H760 0.961 . S
C753 H761 0.960 . S
C754 C752 1.381 . S
C754 C755 1.394 . S
C754 H762 0.930 . S
C755 C754 1.394 . S
C755 C756 1.383 . S
C755 H763 0.929 . S
C756 C755 1.383 . S
C756 C757 1.377 . S
C757 H741 0.930 . S
C757 C756 1.377 . S
C757 C758 1.379 . S
C758 H742 0.931 . S
C758 C752 1.383 . S
C758 C757 1.379 . S
H759 C753 0.959 . S
H760 C753 0.961 . S
H761 C753 0.960 . S
H762 C754 0.930 . S
H763 C755 0.929 . S
H764 C772 0.929 . S
H765 C774 0.930 . S
H766 C776 0.930 . S
H767 C779 0.929 . S
H768 C782 0.930 . S
H769 C784 0.960 . S
H770 C784 0.960 . S
H771 C784 0.960 . S
C772 H764 0.929 . S
C772 C773 1.377 . S
C772 C774 1.384 . S
C773 C772 1.377 . S
C773 C779 1.390 . S
C774 H765 0.930 . S
C774 C772 1.384 . S
C774 C775 1.372 . S
C775 C774 1.372 . S
C775 C776 1.400 . S
C775 C780 1.490 . S
C776 H766 0.930 . S
C776 C775 1.400 . S
C776 C779 1.386 . S
H777 C793 0.930 . S
H778 C794 0.931 . S
C779 H767 0.929 . S
C779 C773 1.390 . S
C779 C776 1.386 . S
C780 C775 1.490 . S
C780 C782 1.395 . S
C780 C783 1.403 . S
H781 C787 0.930 . S
C782 H768 0.930 . S
C782 C780 1.395 . S
C782 C785 1.403 . S
C783 C780 1.403 . S
C783 C784 1.524 . S
C783 C787 1.400 . S
C784 H769 0.960 . S
C784 H770 0.960 . S
C784 H771 0.960 . S
C784 C783 1.524 . S
C785 C782 1.403 . S
C785 C786 1.392 . S
C785 C789 1.495 . S
C786 C785 1.392 . S
C786 C787 1.385 . S
C786 C788 1.478 . S
C787 H781 0.930 . S
C787 C783 1.400 . S
C787 C786 1.385 . S
C788 C786 1.478 . S
C788 C790 1.381 . S
C788 C794 1.383 . S
C789 C785 1.495 . S
C789 H795 0.959 . S
C789 H796 0.961 . S
C789 H797 0.960 . S
C790 C788 1.381 . S
C790 C791 1.394 . S
C790 H798 0.930 . S
C791 C790 1.394 . S
C791 C792 1.383 . S
C791 H799 0.929 . S
C792 C791 1.383 . S
C792 C793 1.377 . S
C793 H777 0.930 . S
C793 C792 1.377 . S
C793 C794 1.379 . S
C794 H778 0.931 . S
C794 C788 1.383 . S
C794 C793 1.379 . S
H795 C789 0.959 . S
H796 C789 0.961 . S
H797 C789 0.960 . S
H798 C790 0.930 . S
H799 C791 0.929 . S
H800 C808 0.929 . S
H801 C810 0.930 . S
H802 C812 0.930 . S
H803 C815 0.929 . S
H804 C818 0.930 . S
H805 C820 0.960 . S
H806 C820 0.960 . S
H807 C820 0.960 . S
C808 H800 0.929 . S
C808 C809 1.377 . S
C808 C810 1.384 . S
C809 C808 1.377 . S
C809 C815 1.390 . S
C810 H801 0.930 . S
C810 C808 1.384 . S
C810 C811 1.372 . S
C811 C810 1.372 . S
C811 C812 1.400 . S
C811 C816 1.490 . S
C812 H802 0.930 . S
C812 C811 1.400 . S
C812 C815 1.386 . S
H813 C829 0.930 . S
H814 C830 0.931 . S
C815 H803 0.929 . S
C815 C809 1.390 . S
C815 C812 1.386 . S
C816 C811 1.490 . S
C816 C818 1.395 . S
C816 C819 1.403 . S
H817 C823 0.930 . S
C818 H804 0.930 . S
C818 C816 1.395 . S
C818 C821 1.403 . S
C819 C816 1.403 . S
C819 C820 1.524 . S
C819 C823 1.400 . S
C820 H805 0.960 . S
C820 H806 0.960 . S
C820 H807 0.960 . S
C820 C819 1.524 . S
C821 C818 1.403 . S
C821 C822 1.392 . S
C821 C825 1.495 . S
C822 C821 1.392 . S
C822 C823 1.385 . S
C822 C824 1.478 . S
C823 H817 0.930 . S
C823 C819 1.400 . S
C823 C822 1.385 . S
C824 C822 1.478 . S
C824 C826 1.381 . S
C824 C830 1.383 . S
C825 C821 1.495 . S
C825 H831 0.959 . S
C825 H832 0.961 . S
C825 H833 0.960 . S
C826 C824 1.381 . S
C826 C827 1.394 . S
C826 H834 0.930 . S
C827 C826 1.394 . S
C827 C828 1.383 1_565 S
C827 H835 0.929 . S
C828 C827 1.383 1_545 S
C828 C829 1.377 . S
C829 H813 0.930 . S
C829 C828 1.377 . S
C829 C830 1.379 1_545 S
C830 H814 0.931 . S
C830 C824 1.383 . S
C830 C829 1.379 1_565 S
H831 C825 0.959 . S
H832 C825 0.961 . S
H833 C825 0.960 . S
H834 C826 0.930 . S
H835 C827 0.929 . S
H836 C844 0.929 . S
H837 C846 0.930 . S
H838 C848 0.930 . S
H839 C851 0.929 . S
H840 C854 0.930 . S
H841 C856 0.960 . S
H842 C856 0.960 . S
H843 C856 0.960 . S
C844 H836 0.929 . S
C844 C845 1.377 . S
C844 C846 1.384 . S
C845 C844 1.377 . S
C845 C851 1.390 . S
C846 H837 0.930 . S
C846 C844 1.384 . S
C846 C847 1.372 . S
C847 C846 1.372 . S
C847 C848 1.400 . S
C847 C852 1.490 . S
C848 H838 0.930 . S
C848 C847 1.400 . S
C848 C851 1.386 . S
H849 C865 0.930 . S
H850 C866 0.931 . S
C851 H839 0.929 . S
C851 C845 1.390 . S
C851 C848 1.386 . S
C852 C847 1.490 . S
C852 C854 1.395 . S
C852 C855 1.403 . S
H853 C859 0.930 . S
C854 H840 0.930 . S
C854 C852 1.395 . S
C854 C857 1.403 . S
C855 C852 1.403 . S
C855 C856 1.524 . S
C855 C859 1.400 . S
C856 H841 0.960 . S
C856 H842 0.960 . S
C856 H843 0.960 . S
C856 C855 1.524 . S
C857 C854 1.403 . S
C857 C858 1.392 . S
C857 C861 1.495 . S
C858 C857 1.392 . S
C858 C859 1.385 . S
C858 C860 1.478 . S
C859 H853 0.930 . S
C859 C855 1.400 . S
C859 C858 1.385 . S
C860 C858 1.478 . S
C860 C862 1.381 . S
C860 C866 1.383 . S
C861 C857 1.495 . S
C861 H867 0.959 . S
C861 H868 0.961 . S
C861 H869 0.960 . S
C862 C860 1.381 . S
C862 C863 1.394 . S
C862 H870 0.930 . S
C863 C862 1.394 . S
C863 C864 1.383 . S
C863 H871 0.929 . S
C864 C863 1.383 . S
C864 C865 1.377 . S
C865 H849 0.930 . S
C865 C864 1.377 . S
C865 C866 1.379 . S
C866 H850 0.931 . S
C866 C860 1.383 . S
C866 C865 1.379 . S
H867 C861 0.959 . S
H868 C861 0.961 . S
H869 C861 0.960 . S
H870 C862 0.930 . S
H871 C863 0.929 . S
H872 C880 0.929 . S
H873 C882 0.930 . S
H874 C884 0.930 . S
H875 C887 0.929 . S
H876 C890 0.930 . S
H877 C892 0.960 . S
H878 C892 0.960 . S
H879 C892 0.960 . S
C880 H872 0.929 . S
C880 C881 1.377 . S
C880 C882 1.384 . S
C881 C880 1.377 . S
C881 C887 1.390 . S
C882 H873 0.930 . S
C882 C880 1.384 . S
C882 C883 1.372 . S
C883 C882 1.372 . S
C883 C884 1.400 . S
C883 C888 1.490 . S
C884 H874 0.930 . S
C884 C883 1.400 . S
C884 C887 1.386 . S
H885 C901 0.930 . S
H886 C902 0.931 . S
C887 H875 0.929 . S
C887 C881 1.390 . S
C887 C884 1.386 . S
C888 C883 1.490 . S
C888 C890 1.395 . S
C888 C891 1.403 . S
H889 C895 0.930 . S
C890 H876 0.930 . S
C890 C888 1.395 . S
C890 C893 1.403 . S
C891 C888 1.403 . S
C891 C892 1.524 . S
C891 C895 1.400 . S
C892 H877 0.960 . S
C892 H878 0.960 . S
C892 H879 0.960 . S
C892 C891 1.524 . S
C893 C890 1.403 . S
C893 C894 1.392 . S
C893 C897 1.495 . S
C894 C893 1.392 . S
C894 C895 1.385 . S
C894 C896 1.478 . S
C895 H889 0.930 . S
C895 C891 1.400 . S
C895 C894 1.385 . S
C896 C894 1.478 . S
C896 C898 1.381 . S
C896 C902 1.383 . S
C897 C893 1.495 . S
C897 H903 0.959 . S
C897 H904 0.961 . S
C897 H905 0.960 . S
C898 C896 1.381 . S
C898 C899 1.394 . S
C898 H906 0.930 . S
C899 C898 1.394 . S
C899 C900 1.383 . S
C899 H907 0.929 . S
C900 C899 1.383 . S
C900 C901 1.377 . S
C901 H885 0.930 . S
C901 C900 1.377 . S
C901 C902 1.379 . S
C902 H886 0.931 . S
C902 C896 1.383 . S
C902 C901 1.379 . S
H903 C897 0.959 . S
H904 C897 0.961 . S
H905 C897 0.960 . S
H906 C898 0.930 . S
H907 C899 0.929 . S
H908 C916 0.929 . S
H909 C918 0.930 . S
H910 C920 0.930 . S
H911 C923 0.929 . S
H912 C926 0.930 . S
H913 C928 0.960 . S
H914 C928 0.960 . S
H915 C928 0.960 . S
C916 H908 0.929 . S
C916 C917 1.377 . S
C916 C918 1.384 . S
C917 C916 1.377 . S
C917 C923 1.390 . S
C918 H909 0.930 . S
C918 C916 1.384 . S
C918 C919 1.372 . S
C919 C918 1.372 . S
C919 C920 1.400 . S
C919 C924 1.490 . S
C920 H910 0.930 . S
C920 C919 1.400 . S
C920 C923 1.386 . S
H921 C937 0.930 . S
H922 C938 0.931 . S
C923 H911 0.929 . S
C923 C917 1.390 . S
C923 C920 1.386 . S
C924 C919 1.490 . S
C924 C926 1.395 . S
C924 C927 1.403 . S
H925 C931 0.930 . S
C926 H912 0.930 . S
C926 C924 1.395 . S
C926 C929 1.403 . S
C927 C924 1.403 . S
C927 C928 1.524 . S
C927 C931 1.400 . S
C928 H913 0.960 . S
C928 H914 0.960 . S
C928 H915 0.960 . S
C928 C927 1.524 . S
C929 C926 1.403 . S
C929 C930 1.392 . S
C929 C933 1.495 . S
C930 C929 1.392 . S
C930 C931 1.385 . S
C930 C932 1.478 . S
C931 H925 0.930 . S
C931 C927 1.400 . S
C931 C930 1.385 . S
C932 C930 1.478 . S
C932 C934 1.381 . S
C932 C938 1.383 . S
C933 C929 1.495 . S
C933 H939 0.959 . S
C933 H940 0.961 . S
C933 H941 0.960 . S
C934 C932 1.381 . S
C934 C935 1.394 1_565 S
C934 H942 0.930 1_565 S
C935 C934 1.394 1_545 S
C935 C936 1.383 . S
C935 H943 0.929 . S
C936 C935 1.383 . S
C936 C937 1.377 1_545 S
C937 H921 0.930 . S
C937 C936 1.377 1_565 S
C937 C938 1.379 . S
C938 H922 0.931 . S
C938 C932 1.383 . S
C938 C937 1.379 . S
H939 C933 0.959 . S
H940 C933 0.961 . S
H941 C933 0.960 . S
H942 C934 0.930 1_545 S
H943 C935 0.929 . S
H944 C952 0.929 . S
H945 C954 0.930 . S
H946 C956 0.930 . S
H947 C959 0.929 . S
H948 C962 0.930 . S
H949 C964 0.960 . S
H950 C964 0.960 . S
H951 C964 0.960 . S
C952 H944 0.929 . S
C952 C953 1.377 . S
C952 C954 1.384 . S
C953 C952 1.377 . S
C953 C959 1.390 . S
C954 H945 0.930 . S
C954 C952 1.384 . S
C954 C955 1.372 . S
C955 C954 1.372 . S
C955 C956 1.400 . S
C955 C960 1.490 . S
C956 H946 0.930 . S
C956 C955 1.400 . S
C956 C959 1.386 . S
H957 C973 0.930 . S
H958 C974 0.931 . S
C959 H947 0.929 . S
C959 C953 1.390 . S
C959 C956 1.386 . S
C960 C955 1.490 . S
C960 C962 1.395 . S
C960 C963 1.403 . S
H961 C967 0.930 . S
C962 H948 0.930 . S
C962 C960 1.395 . S
C962 C965 1.403 . S
C963 C960 1.403 . S
C963 C964 1.524 . S
C963 C967 1.400 . S
C964 H949 0.960 . S
C964 H950 0.960 . S
C964 H951 0.960 . S
C964 C963 1.524 . S
C965 C962 1.403 . S
C965 C966 1.392 . S
C965 C969 1.495 . S
C966 C965 1.392 . S
C966 C967 1.385 . S
C966 C968 1.478 . S
C967 H961 0.930 . S
C967 C963 1.400 . S
C967 C966 1.385 . S
C968 C966 1.478 . S
C968 C970 1.364 1_545 S
C968 C974 1.383 . S
C969 C965 1.495 . S
C969 H975 0.959 . S
C969 H976 0.961 . S
C969 H977 0.960 . S
C970 C968 1.364 1_565 S
C970 C971 1.407 . S
C970 H978 0.934 . S
C971 C970 1.407 . S
C971 C972 1.383 . S
C971 H979 0.929 . S
C972 C971 1.383 . S
C972 C973 1.377 1_565 S
C973 H957 0.930 . S
C973 C972 1.377 1_545 S
C973 C974 1.379 . S
C974 H958 0.931 . S
C974 C968 1.383 . S
C974 C973 1.379 . S
H975 C969 0.959 . S
H976 C969 0.961 . S
H977 C969 0.960 . S
H978 C970 0.934 . S
H979 C971 0.929 . S
H980 C988 0.929 . S
H981 C990 0.930 . S
H982 C992 0.930 . S
H983 C995 0.929 . S
H984 C998 0.930 . S
H985 C1000 0.960 . S
H986 C1000 0.960 . S
H987 C1000 0.960 . S
C988 H980 0.929 . S
C988 C989 1.377 . S
C988 C990 1.384 . S
C989 C988 1.377 . S
C989 C995 1.390 . S
C990 H981 0.930 . S
C990 C988 1.384 . S
C990 C991 1.372 . S
C991 C990 1.372 . S
C991 C992 1.400 . S
C991 C996 1.490 . S
C992 H982 0.930 . S
C992 C991 1.400 . S
C992 C995 1.386 . S
H993 C1009 0.930 . S
H994 C1010 0.931 . S
C995 H983 0.929 . S
C995 C989 1.390 . S
C995 C992 1.386 . S
C996 C991 1.490 . S
C996 C998 1.395 . S
C996 C999 1.403 . S
H997 C1003 0.930 . S
C998 H984 0.930 . S
C998 C996 1.395 . S
C998 C1001 1.403 . S
C999 C996 1.403 . S
C999 C1000 1.524 . S
C999 C1003 1.400 . S
C1000 H985 0.960 . S
C1000 H986 0.960 . S
C1000 H987 0.960 . S
C1000 C999 1.524 . S
C1001 C998 1.403 . S
C1001 C1002 1.392 . S
C1001 C1005 1.495 . S
C1002 C1001 1.392 . S
C1002 C1003 1.385 . S
C1002 C1004 1.478 . S
C1003 H997 0.930 . S
C1003 C999 1.400 . S
C1003 C1002 1.385 . S
C1004 C1002 1.478 . S
C1004 C1006 1.381 . S
C1004 C1010 1.383 . S
C1005 C1001 1.495 . S
C1005 H1011 0.959 . S
C1005 H1012 0.961 . S
C1005 H1013 0.960 . S
C1006 C1004 1.381 . S
C1006 C1007 1.394 . S
C1006 H1014 0.930 . S
C1007 C1006 1.394 . S
C1007 C1008 1.383 . S
C1007 H1015 0.929 . S
C1008 C1007 1.383 . S
C1008 C1009 1.377 . S
C1009 H993 0.930 . S
C1009 C1008 1.377 . S
C1009 C1010 1.379 . S
C1010 H994 0.931 . S
C1010 C1004 1.383 . S
C1010 C1009 1.379 . S
H1011 C1005 0.959 . S
H1012 C1005 0.961 . S
H1013 C1005 0.960 . S
H1014 C1006 0.930 . S
H1015 C1007 0.929 . S
H1016 C1024 0.929 . S
H1017 C1026 0.930 . S
H1018 C1028 0.930 . S
H1019 C1031 0.929 . S
H1020 C1034 0.930 . S
H1021 C1036 0.960 . S
H1022 C1036 0.960 . S
H1023 C1036 0.960 . S
C1024 H1016 0.929 . S
C1024 C1025 1.377 . S
C1024 C1026 1.384 . S
C1025 C1024 1.377 . S
C1025 C1031 1.390 . S
C1026 H1017 0.930 . S
C1026 C1024 1.384 . S
C1026 C1027 1.372 . S
C1027 C1026 1.372 . S
C1027 C1028 1.400 . S
C1027 C1032 1.490 . S
C1028 H1018 0.930 . S
C1028 C1027 1.400 . S
C1028 C1031 1.386 . S
H1029 C1045 0.930 . S
H1030 C1046 0.931 . S
C1031 H1019 0.929 . S
C1031 C1025 1.390 . S
C1031 C1028 1.386 . S
C1032 C1027 1.490 . S
C1032 C1034 1.395 . S
C1032 C1035 1.403 . S
H1033 C1039 0.930 . S
C1034 H1020 0.930 . S
C1034 C1032 1.395 . S
C1034 C1037 1.403 . S
C1035 C1032 1.403 . S
C1035 C1036 1.524 . S
C1035 C1039 1.400 . S
C1036 H1021 0.960 . S
C1036 H1022 0.960 . S
C1036 H1023 0.960 . S
C1036 C1035 1.524 . S
C1037 C1034 1.403 . S
C1037 C1038 1.392 . S
C1037 C1041 1.495 . S
C1038 C1037 1.392 . S
C1038 C1039 1.385 . S
C1038 C1040 1.478 . S
C1039 H1033 0.930 . S
C1039 C1035 1.400 . S
C1039 C1038 1.385 . S
C1040 C1038 1.478 . S
C1040 C1042 1.381 . S
C1040 C1046 1.383 . S
C1041 C1037 1.495 . S
C1041 H1047 0.959 . S
C1041 H1048 0.961 . S
C1041 H1049 0.960 . S
C1042 C1040 1.381 . S
C1042 C1043 1.394 . S
C1042 H1050 0.930 . S
C1043 C1042 1.394 . S
C1043 C1044 1.383 . S
C1043 H1051 0.929 . S
C1044 C1043 1.383 . S
C1044 C1045 1.377 . S
C1045 H1029 0.930 . S
C1045 C1044 1.377 . S
C1045 C1046 1.379 . S
C1046 H1030 0.931 . S
C1046 C1040 1.383 . S
C1046 C1045 1.379 . S
H1047 C1041 0.959 . S
H1048 C1041 0.961 . S
H1049 C1041 0.960 . S
H1050 C1042 0.930 . S
H1051 C1043 0.929 . S
H1052 C1060 0.929 . S
H1053 C1062 0.930 . S
H1054 C1064 0.930 . S
H1055 C1067 0.930 1_565 S
H1056 C1070 0.930 . S
H1057 C1072 0.960 . S
H1058 C1072 0.960 . S
H1059 C1072 0.960 . S
C1060 H1052 0.929 . S
C1060 C1061 1.377 . S
C1060 C1062 1.384 1_565 S
C1061 C1060 1.377 . S
C1061 C1067 1.391 1_565 S
C1062 H1053 0.930 . S
C1062 C1060 1.384 1_545 S
C1062 C1063 1.372 . S
C1063 C1062 1.372 . S
C1063 C1064 1.400 . S
C1063 C1068 1.490 . S
C1064 H1054 0.930 . S
C1064 C1063 1.400 . S
C1064 C1067 1.384 . S
H1065 C1081 0.930 . S
H1066 C1082 0.931 . S
C1067 H1055 0.930 1_545 S
C1067 C1061 1.391 1_545 S
C1067 C1064 1.384 . S
C1068 C1063 1.490 . S
C1068 C1070 1.395 . S
C1068 C1071 1.403 . S
H1069 C1075 0.930 . S
C1070 H1056 0.930 . S
C1070 C1068 1.395 . S
C1070 C1073 1.403 . S
C1071 C1068 1.403 . S
C1071 C1072 1.524 . S
C1071 C1075 1.400 . S
C1072 H1057 0.960 . S
C1072 H1058 0.960 . S
C1072 H1059 0.960 . S
C1072 C1071 1.524 . S
C1073 C1070 1.403 . S
C1073 C1074 1.392 . S
C1073 C1077 1.495 . S
C1074 C1073 1.392 . S
C1074 C1075 1.385 . S
C1074 C1076 1.478 . S
C1075 H1069 0.930 . S
C1075 C1071 1.400 . S
C1075 C1074 1.385 . S
C1076 C1074 1.478 . S
C1076 C1078 1.381 . S
C1076 C1082 1.383 . S
C1077 C1073 1.495 . S
C1077 H1083 0.959 . S
C1077 H1084 0.961 . S
C1077 H1085 0.960 . S
C1078 C1076 1.381 . S
C1078 C1079 1.394 . S
C1078 H1086 0.930 . S
C1079 C1078 1.394 . S
C1079 C1080 1.383 . S
C1079 H1087 0.929 . S
C1080 C1079 1.383 . S
C1080 C1081 1.377 . S
C1081 H1065 0.930 . S
C1081 C1080 1.377 . S
C1081 C1082 1.379 . S
C1082 H1066 0.931 . S
C1082 C1076 1.383 . S
C1082 C1081 1.379 . S
H1083 C1077 0.959 . S
H1084 C1077 0.961 . S
H1085 C1077 0.960 . S
H1086 C1078 0.930 . S
H1087 C1079 0.929 . S
H1088 C1096 0.929 . S
H1089 C1098 0.930 . S
H1090 C1100 0.930 . S
H1091 C1103 0.929 . S
H1092 C1106 0.930 . S
H1093 C1108 0.960 . S
H1094 C1108 0.960 . S
H1095 C1108 0.960 . S
C1096 H1088 0.929 . S
C1096 C1097 1.377 . S
C1096 C1098 1.384 . S
C1097 C1096 1.377 . S
C1097 C1103 1.390 . S
C1098 H1089 0.930 . S
C1098 C1096 1.384 . S
C1098 C1099 1.372 . S
C1099 C1098 1.372 . S
C1099 C1100 1.400 . S
C1099 C1104 1.490 . S
C1100 H1090 0.930 . S
C1100 C1099 1.400 . S
C1100 C1103 1.386 . S
H1101 C1117 0.930 . S
H1102 C1118 0.931 . S
C1103 H1091 0.929 . S
C1103 C1097 1.390 . S
C1103 C1100 1.386 . S
C1104 C1099 1.490 . S
C1104 C1106 1.395 . S
C1104 C1107 1.403 . S
H1105 C1111 0.930 . S
C1106 H1092 0.930 . S
C1106 C1104 1.395 . S
C1106 C1109 1.403 . S
C1107 C1104 1.403 . S
C1107 C1108 1.524 . S
C1107 C1111 1.400 . S
C1108 H1093 0.960 . S
C1108 H1094 0.960 . S
C1108 H1095 0.960 . S
C1108 C1107 1.524 . S
C1109 C1106 1.403 . S
C1109 C1110 1.392 . S
C1109 C1113 1.495 . S
C1110 C1109 1.392 . S
C1110 C1111 1.385 . S
C1110 C1112 1.478 . S
C1111 H1105 0.930 . S
C1111 C1107 1.400 . S
C1111 C1110 1.385 . S
C1112 C1110 1.478 . S
C1112 C1114 1.374 1_565 S
C1112 C1118 1.383 . S
C1113 C1109 1.495 . S
C1113 H1119 0.959 . S
C1113 H1120 0.961 . S
C1113 H1121 0.960 . S
C1114 C1112 1.374 1_545 S
C1114 C1115 1.399 . S
C1114 H1122 0.932 . S
C1115 C1114 1.399 . S
C1115 C1116 1.383 . S
C1115 H1123 0.929 . S
C1116 C1115 1.383 . S
C1116 C1117 1.377 1_545 S
C1117 H1101 0.930 . S
C1117 C1116 1.377 1_565 S
C1117 C1118 1.379 . S
C1118 H1102 0.931 . S
C1118 C1112 1.383 . S
C1118 C1117 1.379 . S
H1119 C1113 0.959 . S
H1120 C1113 0.961 . S
H1121 C1113 0.960 . S
H1122 C1114 0.932 . S
H1123 C1115 0.929 . S
H1124 C1132 0.929 . S
H1125 C1134 0.930 . S
H1126 C1136 0.930 . S
H1127 C1139 0.929 . S
H1128 C1142 0.930 . S
H1129 C1144 0.960 . S
H1130 C1144 0.960 . S
H1131 C1144 0.960 . S
C1132 H1124 0.929 . S
C1132 C1133 1.377 . S
C1132 C1134 1.384 . S
C1133 C1132 1.377 . S
C1133 C1139 1.390 . S
C1134 H1125 0.930 . S
C1134 C1132 1.384 . S
C1134 C1135 1.372 . S
C1135 C1134 1.372 . S
C1135 C1136 1.400 . S
C1135 C1140 1.490 . S
C1136 H1126 0.930 . S
C1136 C1135 1.400 . S
C1136 C1139 1.386 . S
H1137 C1153 0.930 . S
H1138 C1154 0.931 . S
C1139 H1127 0.929 . S
C1139 C1133 1.390 . S
C1139 C1136 1.386 . S
C1140 C1135 1.490 . S
C1140 C1142 1.395 . S
C1140 C1143 1.403 . S
H1141 C1147 0.930 . S
C1142 H1128 0.930 . S
C1142 C1140 1.395 . S
C1142 C1145 1.403 . S
C1143 C1140 1.403 . S
C1143 C1144 1.524 . S
C1143 C1147 1.400 . S
C1144 H1129 0.960 . S
C1144 H1130 0.960 . S
C1144 H1131 0.960 . S
C1144 C1143 1.524 . S
C1145 C1142 1.403 . S
C1145 C1146 1.392 . S
C1145 C1149 1.495 . S
C1146 C1145 1.392 . S
C1146 C1147 1.385 . S
C1146 C1148 1.478 . S
C1147 H1141 0.930 . S
C1147 C1143 1.400 . S
C1147 C1146 1.385 . S
C1148 C1146 1.478 . S
C1148 C1150 1.381 . S
C1148 C1154 1.383 . S
C1149 C1145 1.495 . S
C1149 H1155 0.959 . S
C1149 H1156 0.961 . S
C1149 H1157 0.960 . S
C1150 C1148 1.381 . S
C1150 C1151 1.394 . S
C1150 H1158 0.930 . S
C1151 C1150 1.394 . S
C1151 C1152 1.383 . S
C1151 H1159 0.929 . S
C1152 C1151 1.383 . S
C1152 C1153 1.377 . S
C1153 H1137 0.930 . S
C1153 C1152 1.377 . S
C1153 C1154 1.379 . S
C1154 H1138 0.931 . S
C1154 C1148 1.383 . S
C1154 C1153 1.379 . S
H1155 C1149 0.959 . S
H1156 C1149 0.961 . S
H1157 C1149 0.960 . S
H1158 C1150 0.930 . S
H1159 C1151 0.929 . S
H1160 C1168 0.929 . S
H1161 C1170 0.930 . S
H1162 C1172 0.930 . S
H1163 C1175 0.929 . S
H1164 C1178 0.930 . S
H1165 C1180 0.960 . S
H1166 C1180 0.960 . S
H1167 C1180 0.960 . S
C1168 H1160 0.929 . S
C1168 C1169 1.377 . S
C1168 C1170 1.384 . S
C1169 C1168 1.377 . S
C1169 C1175 1.390 . S
C1170 H1161 0.930 . S
C1170 C1168 1.384 . S
C1170 C1171 1.372 . S
C1171 C1170 1.372 . S
C1171 C1172 1.400 . S
C1171 C1176 1.490 . S
C1172 H1162 0.930 . S
C1172 C1171 1.400 . S
C1172 C1175 1.386 . S
H1173 C1189 0.930 . S
H1174 C1190 0.931 . S
C1175 H1163 0.929 . S
C1175 C1169 1.390 . S
C1175 C1172 1.386 . S
C1176 C1171 1.490 . S
C1176 C1178 1.395 . S
C1176 C1179 1.403 . S
H1177 C1183 0.930 . S
C1178 H1164 0.930 . S
C1178 C1176 1.395 . S
C1178 C1181 1.403 . S
C1179 C1176 1.403 . S
C1179 C1180 1.524 . S
C1179 C1183 1.400 . S
C1180 H1165 0.960 . S
C1180 H1166 0.960 . S
C1180 H1167 0.960 . S
C1180 C1179 1.524 . S
C1181 C1178 1.403 . S
C1181 C1182 1.392 . S
C1181 C1185 1.495 . S
C1182 C1181 1.392 . S
C1182 C1183 1.385 . S
C1182 C1184 1.478 . S
C1183 H1177 0.930 . S
C1183 C1179 1.400 . S
C1183 C1182 1.385 . S
C1184 C1182 1.478 . S
C1184 C1186 1.381 . S
C1184 C1190 1.383 . S
C1185 C1181 1.495 . S
C1185 H1191 0.959 . S
C1185 H1192 0.961 . S
C1185 H1193 0.960 . S
C1186 C1184 1.381 . S
C1186 C1187 1.394 . S
C1186 H1194 0.930 . S
C1187 C1186 1.394 . S
C1187 C1188 1.383 . S
C1187 H1195 0.929 . S
C1188 C1187 1.383 . S
C1188 C1189 1.377 . S
C1189 H1173 0.930 . S
C1189 C1188 1.377 . S
C1189 C1190 1.379 . S
C1190 H1174 0.931 . S
C1190 C1184 1.383 . S
C1190 C1189 1.379 . S
H1191 C1185 0.959 . S
H1192 C1185 0.961 . S
H1193 C1185 0.960 . S
H1194 C1186 0.930 . S
H1195 C1187 0.929 . S
H1196 C1204 0.929 . S
H1197 C1206 0.930 . S
H1198 C1208 0.930 . S
H1199 C1211 0.929 . S
H1200 C1214 0.930 . S
H1201 C1216 0.960 . S
H1202 C1216 0.960 . S
H1203 C1216 0.960 . S
C1204 H1196 0.929 . S
C1204 C1205 1.377 . S
C1204 C1206 1.384 . S
C1205 C1204 1.377 . S
C1205 C1211 1.390 . S
C1206 H1197 0.930 . S
C1206 C1204 1.384 . S
C1206 C1207 1.372 . S
C1207 C1206 1.372 . S
C1207 C1208 1.400 . S
C1207 C1212 1.490 . S
C1208 H1198 0.930 . S
C1208 C1207 1.400 . S
C1208 C1211 1.386 . S
H1209 C1225 0.930 . S
H1210 C1226 0.931 . S
C1211 H1199 0.929 . S
C1211 C1205 1.390 . S
C1211 C1208 1.386 . S
C1212 C1207 1.490 . S
C1212 C1214 1.395 . S
C1212 C1215 1.403 . S
H1213 C1219 0.930 . S
C1214 H1200 0.930 . S
C1214 C1212 1.395 . S
C1214 C1217 1.403 . S
C1215 C1212 1.403 . S
C1215 C1216 1.524 . S
C1215 C1219 1.400 . S
C1216 H1201 0.960 . S
C1216 H1202 0.960 . S
C1216 H1203 0.960 . S
C1216 C1215 1.524 . S
C1217 C1214 1.403 . S
C1217 C1218 1.392 . S
C1217 C1221 1.495 . S
C1218 C1217 1.392 . S
C1218 C1219 1.385 . S
C1218 C1220 1.478 . S
C1219 H1213 0.930 . S
C1219 C1215 1.400 . S
C1219 C1218 1.385 . S
C1220 C1218 1.478 . S
C1220 C1222 1.381 . S
C1220 C1226 1.383 . S
C1221 C1217 1.495 . S
C1221 H1227 0.959 . S
C1221 H1228 0.961 . S
C1221 H1229 0.960 . S
C1222 C1220 1.381 . S
C1222 C1223 1.394 1_565 S
C1222 H1230 0.930 . S
C1223 C1222 1.394 1_545 S
C1223 C1224 1.383 . S
C1223 H1231 0.929 . S
C1224 C1223 1.383 . S
C1224 C1225 1.377 . S
C1225 H1209 0.930 . S
C1225 C1224 1.377 . S
C1225 C1226 1.379 1_545 S
C1226 H1210 0.931 . S
C1226 C1220 1.383 . S
C1226 C1225 1.379 1_565 S
H1227 C1221 0.959 . S
H1228 C1221 0.961 . S
H1229 C1221 0.960 . S
H1230 C1222 0.930 . S
H1231 C1223 0.929 . S
H1232 C1240 0.929 . S
H1233 C1242 0.930 . S
H1234 C1244 0.930 . S
H1235 C1247 0.929 . S
H1236 C1250 0.930 . S
H1237 C1252 0.960 . S
H1238 C1252 0.960 . S
H1239 C1252 0.960 . S
C1240 H1232 0.929 . S
C1240 C1241 1.377 . S
C1240 C1242 1.384 . S
C1241 C1240 1.377 . S
C1241 C1247 1.390 . S
C1242 H1233 0.930 . S
C1242 C1240 1.384 . S
C1242 C1243 1.372 . S
C1243 C1242 1.372 . S
C1243 C1244 1.400 . S
C1243 C1248 1.490 . S
C1244 H1234 0.930 . S
C1244 C1243 1.400 . S
C1244 C1247 1.386 . S
H1245 C1261 0.930 . S
H1246 C1262 0.931 . S
C1247 H1235 0.929 . S
C1247 C1241 1.390 . S
C1247 C1244 1.386 . S
C1248 C1243 1.490 . S
C1248 C1250 1.395 . S
C1248 C1251 1.403 . S
H1249 C1255 0.930 . S
C1250 H1236 0.930 . S
C1250 C1248 1.395 . S
C1250 C1253 1.403 . S
C1251 C1248 1.403 . S
C1251 C1252 1.524 . S
C1251 C1255 1.400 . S
C1252 H1237 0.960 . S
C1252 H1238 0.960 . S
C1252 H1239 0.960 . S
C1252 C1251 1.524 . S
C1253 C1250 1.403 . S
C1253 C1254 1.392 . S
C1253 C1257 1.495 . S
C1254 C1253 1.392 . S
C1254 C1255 1.385 . S
C1254 C1256 1.478 . S
C1255 H1249 0.930 . S
C1255 C1251 1.400 . S
C1255 C1254 1.385 . S
C1256 C1254 1.478 . S
C1256 C1258 1.381 . S
C1256 C1262 1.383 . S
C1257 C1253 1.495 . S
C1257 H1263 0.959 . S
C1257 H1264 0.961 . S
C1257 H1265 0.960 . S
C1258 C1256 1.381 . S
C1258 C1259 1.394 . S
C1258 H1266 0.930 . S
C1259 C1258 1.394 . S
C1259 C1260 1.383 1_545 S
C1259 H1267 0.929 . S
C1260 C1259 1.383 1_565 S
C1260 C1261 1.377 . S
C1261 H1245 0.930 . S
C1261 C1260 1.377 . S
C1261 C1262 1.379 1_565 S
C1262 H1246 0.931 . S
C1262 C1256 1.383 . S
C1262 C1261 1.379 1_545 S
H1263 C1257 0.959 . S
H1264 C1257 0.961 . S
H1265 C1257 0.960 . S
H1266 C1258 0.930 . S
H1267 C1259 0.929 . S
H1268 C1276 0.929 . S
H1269 C1278 0.930 . S
H1270 C1280 0.930 . S
H1271 C1283 0.929 . S
H1272 C1286 0.930 . S
H1273 C1288 0.960 . S
H1274 C1288 0.960 . S
H1275 C1288 0.960 . S
C1276 H1268 0.929 . S
C1276 C1277 1.377 . S
C1276 C1278 1.384 . S
C1277 C1276 1.377 . S
C1277 C1283 1.390 . S
C1278 H1269 0.930 . S
C1278 C1276 1.384 . S
C1278 C1279 1.372 . S
C1279 C1278 1.372 . S
C1279 C1280 1.400 . S
C1279 C1284 1.490 . S
C1280 H1270 0.930 . S
C1280 C1279 1.400 . S
C1280 C1283 1.386 . S
H1281 C1297 0.930 . S
H1282 C1298 0.931 . S
C1283 H1271 0.929 . S
C1283 C1277 1.390 . S
C1283 C1280 1.386 . S
C1284 C1279 1.490 . S
C1284 C1286 1.395 . S
C1284 C1287 1.403 . S
H1285 C1291 0.930 . S
C1286 H1272 0.930 . S
C1286 C1284 1.395 . S
C1286 C1289 1.403 . S
C1287 C1284 1.403 . S
C1287 C1288 1.524 . S
C1287 C1291 1.400 . S
C1288 H1273 0.960 . S
C1288 H1274 0.960 . S
C1288 H1275 0.960 . S
C1288 C1287 1.524 . S
C1289 C1286 1.403 . S
C1289 C1290 1.392 . S
C1289 C1293 1.495 . S
C1290 C1289 1.392 . S
C1290 C1291 1.385 . S
C1290 C1292 1.478 . S
C1291 H1285 0.930 . S
C1291 C1287 1.400 . S
C1291 C1290 1.385 . S
C1292 C1290 1.478 . S
C1292 C1294 1.381 . S
C1292 C1298 1.383 . S
C1293 C1289 1.495 . S
C1293 H1299 0.959 . S
C1293 H1300 0.961 . S
C1293 H1301 0.960 . S
C1294 C1292 1.381 . S
C1294 C1295 1.394 . S
C1294 H1302 0.930 . S
C1295 C1294 1.394 . S
C1295 C1296 1.383 . S
C1295 H1303 0.929 . S
C1296 C1295 1.383 . S
C1296 C1297 1.377 . S
C1297 H1281 0.930 . S
C1297 C1296 1.377 . S
C1297 C1298 1.379 . S
C1298 H1282 0.931 . S
C1298 C1292 1.383 . S
C1298 C1297 1.379 . S
H1299 C1293 0.959 . S
H1300 C1293 0.961 . S
H1301 C1293 0.960 . S
H1302 C1294 0.930 . S
H1303 C1295 0.929 . S
H1304 C1312 0.929 . S
H1305 C1314 0.930 . S
H1306 C1316 0.930 . S
H1307 C1319 0.929 . S
H1308 C1322 0.930 . S
H1309 C1324 0.960 . S
H1310 C1324 0.960 . S
H1311 C1324 0.960 . S
C1312 H1304 0.929 . S
C1312 C1313 1.377 . S
C1312 C1314 1.384 . S
C1313 C1312 1.377 . S
C1313 C1319 1.390 . S
C1314 H1305 0.930 . S
C1314 C1312 1.384 . S
C1314 C1315 1.372 . S
C1315 C1314 1.372 . S
C1315 C1316 1.400 . S
C1315 C1320 1.490 . S
C1316 H1306 0.930 . S
C1316 C1315 1.400 . S
C1316 C1319 1.386 . S
H1317 C1333 0.930 . S
H1318 C1334 0.931 . S
C1319 H1307 0.929 . S
C1319 C1313 1.390 . S
C1319 C1316 1.386 . S
C1320 C1315 1.490 . S
C1320 C1322 1.395 . S
C1320 C1323 1.403 . S
H1321 C1327 0.930 . S
C1322 H1308 0.930 . S
C1322 C1320 1.395 . S
C1322 C1325 1.403 . S
C1323 C1320 1.403 . S
C1323 C1324 1.524 . S
C1323 C1327 1.400 . S
C1324 H1309 0.960 . S
C1324 H1310 0.960 . S
C1324 H1311 0.960 . S
C1324 C1323 1.524 . S
C1325 C1322 1.403 . S
C1325 C1326 1.392 . S
C1325 C1329 1.495 . S
C1326 C1325 1.392 . S
C1326 C1327 1.385 . S
C1326 C1328 1.478 . S
C1327 H1321 0.930 . S
C1327 C1323 1.400 . S
C1327 C1326 1.385 . S
C1328 C1326 1.478 . S
C1328 C1330 1.381 . S
C1328 C1334 1.383 . S
C1329 C1325 1.495 . S
C1329 H1335 0.959 . S
C1329 H1336 0.961 . S
C1329 H1337 0.960 . S
C1330 C1328 1.381 . S
C1330 C1331 1.394 . S
C1330 H1338 0.930 . S
C1331 C1330 1.394 . S
C1331 C1332 1.383 . S
C1331 H1339 0.929 . S
C1332 C1331 1.383 . S
C1332 C1333 1.377 . S
C1333 H1317 0.930 . S
C1333 C1332 1.377 . S
C1333 C1334 1.379 . S
C1334 H1318 0.931 . S
C1334 C1328 1.383 . S
C1334 C1333 1.379 . S
H1335 C1329 0.959 . S
H1336 C1329 0.961 . S
H1337 C1329 0.960 . S
H1338 C1330 0.930 . S
H1339 C1331 0.929 . S
H1340 C1348 0.929 . S
H1341 C1350 0.930 . S
H1342 C1352 0.930 . S
H1343 C1355 0.929 . S
H1344 C1358 0.930 . S
H1345 C1360 0.960 . S
H1346 C1360 0.960 . S
H1347 C1360 0.960 . S
C1348 H1340 0.929 . S
C1348 C1349 1.377 . S
C1348 C1350 1.384 . S
C1349 C1348 1.377 . S
C1349 C1355 1.390 . S
C1350 H1341 0.930 . S
C1350 C1348 1.384 . S
C1350 C1351 1.372 . S
C1351 C1350 1.372 . S
C1351 C1352 1.400 . S
C1351 C1356 1.490 . S
C1352 H1342 0.930 . S
C1352 C1351 1.400 . S
C1352 C1355 1.386 . S
H1353 C1369 0.930 . S
H1354 C1370 0.931 . S
C1355 H1343 0.929 . S
C1355 C1349 1.390 . S
C1355 C1352 1.386 . S
C1356 C1351 1.490 . S
C1356 C1358 1.395 . S
C1356 C1359 1.403 . S
H1357 C1363 0.930 . S
C1358 H1344 0.930 . S
C1358 C1356 1.395 . S
C1358 C1361 1.403 . S
C1359 C1356 1.403 . S
C1359 C1360 1.524 . S
C1359 C1363 1.400 . S
C1360 H1345 0.960 . S
C1360 H1346 0.960 . S
C1360 H1347 0.960 . S
C1360 C1359 1.524 . S
C1361 C1358 1.403 . S
C1361 C1362 1.392 . S
C1361 C1365 1.495 . S
C1362 C1361 1.392 . S
C1362 C1363 1.385 . S
C1362 C1364 1.478 . S
C1363 H1357 0.930 . S
C1363 C1359 1.400 . S
C1363 C1362 1.385 . S
C1364 C1362 1.478 . S
C1364 C1366 1.381 . S
C1364 C1370 1.383 . S
C1365 C1361 1.495 . S
C1365 H1371 0.959 . S
C1365 H1372 0.961 . S
C1365 H1373 0.960 . S
C1366 C1364 1.381 . S
C1366 C1367 1.394 1_545 S
C1366 H1374 0.930 . S
C1367 C1366 1.394 1_565 S
C1367 C1368 1.383 . S
C1367 H1375 0.929 . S
C1368 C1367 1.383 . S
C1368 C1369 1.377 . S
C1369 H1353 0.930 . S
C1369 C1368 1.377 . S
C1369 C1370 1.379 1_565 S
C1370 H1354 0.931 . S
C1370 C1364 1.383 . S
C1370 C1369 1.379 1_545 S
H1371 C1365 0.959 . S
H1372 C1365 0.961 . S
H1373 C1365 0.960 . S
H1374 C1366 0.930 . S
H1375 C1367 0.929 . S
C233 C196 1.490 . S
C252 C0 1.478 . S
C269 C39 1.495 . S
C288 C11 1.495 . S
C305 C165 1.495 . S
C324 C25 1.493 . S
C341 C14 1.491 . S
C360 C98 1.481 . S
C377 C28 1.488 . S
C396 C168 1.481 . S
C413 C137 1.495 . S
C432 C53 1.492 . S
C449 C42 1.491 . S
C468 C70 1.484 . S
C485 C140 1.490 . S
C504 C56 1.479 . S
C521 C67 1.495 . S
C540 C95 1.488 . S
C557 C221 1.494 . S
C576 C81 1.487 . S
C593 C112 1.491 . S
C612 C84 1.496 . S
C629 C193 1.495 . S
C648 C109 1.496 . S
C665 C123 1.495 . S
C684 C151 1.496 . S
C701 C210 1.489 . S
C720 C126 1.489 . S
C737 C154 1.491 . S
C756 C182 1.496 . S
C773 C207 1.495 . S
C792 C179 1.489 . S
C809 C75 1.420 . S
C828 C9 1.421 . S
C845 C5 1.420 . S
C864 C79 1.412 . S
C881 C19 1.421 . S
C900 C65 1.410 . S
C917 C61 1.421 . S
C936 C23 1.408 . S
C953 C103 1.420 . S
C972 C37 1.421 . S
C989 C107 1.417 . S
C1008 C33 1.422 . S
C1025 C93 1.416 . S
C1044 C47 1.413 . S
C1061 C51 1.415 . S
C1080 C89 1.413 . S
C1097 C187 1.421 . S
C1116 C121 1.406 . S
C1133 C117 1.419 . S
C1152 C191 1.420 . S
C1169 C131 1.421 . S
C1188 C177 1.404 . S
C1205 C173 1.421 . S
C1224 C135 1.416 . S
C1241 C215 1.421 . S
C1260 C149 1.410 . S
C1277 C219 1.414 . S
C1296 C145 1.415 . S
C1313 C159 1.420 . S
C1332 C205 1.421 . S
C1349 C201 1.420 . S
C1368 C163 1.414 . S
