# Generated by pormake.
# Topology fcu, (12)-cn, num edge types: 1
# Building blocks:
#     Node 0, Type 0, BuildingBlock: BOTCEU_clean_sbu_0, # of connection points: 12
#     Node 1, Type 0, BuildingBlock: BOTCEU_clean_sbu_0, # of connection points: 12
#     Node 2, Type 0, BuildingBlock: BOTCEU_clean_sbu_0, # of connection points: 12
#     Node 3, Type 0, BuildingBlock: BOTCEU_clean_sbu_0, # of connection points: 12
#     Edge 4, Type (0, 0), BuildingBlock: EZIPEK_clean_linker_0, # of connection points: 2
#     Edge 5, Type (0, 0), BuildingBlock: EZIPEK_clean_linker_0, # of connection points: 2
#     Edge 6, Type (0, 0), BuildingBlock: EZIPEK_clean_linker_0, # of connection points: 2
#     Edge 7, Type (0, 0), BuildingBlock: EZIPEK_clean_linker_0, # of connection points: 2
#     Edge 8, Type (0, 0), BuildingBlock: EZIPEK_clean_linker_0, # of connection points: 2
#     Edge 9, Type (0, 0), BuildingBlock: EZIPEK_clean_linker_0, # of connection points: 2
#     Edge 10, Type (0, 0), BuildingBlock: EZIPEK_clean_linker_0, # of connection points: 2
#     Edge 11, Type (0, 0), BuildingBlock: EZIPEK_clean_linker_0, # of connection points: 2
#     Edge 12, Type (0, 0), BuildingBlock: EZIPEK_clean_linker_0, # of connection points: 2
#     Edge 13, Type (0, 0), BuildingBlock: EZIPEK_clean_linker_0, # of connection points: 2
#     Edge 14, Type (0, 0), BuildingBlock: EZIPEK_clean_linker_0, # of connection points: 2
#     Edge 15, Type (0, 0), BuildingBlock: EZIPEK_clean_linker_0, # of connection points: 2
#     Edge 16, Type (0, 0), BuildingBlock: EZIPEK_clean_linker_0, # of connection points: 2
#     Edge 17, Type (0, 0), BuildingBlock: EZIPEK_clean_linker_0, # of connection points: 2
#     Edge 18, Type (0, 0), BuildingBlock: EZIPEK_clean_linker_0, # of connection points: 2
#     Edge 19, Type (0, 0), BuildingBlock: EZIPEK_clean_linker_0, # of connection points: 2
#     Edge 20, Type (0, 0), BuildingBlock: EZIPEK_clean_linker_0, # of connection points: 2
#     Edge 21, Type (0, 0), BuildingBlock: EZIPEK_clean_linker_0, # of connection points: 2
#     Edge 22, Type (0, 0), BuildingBlock: EZIPEK_clean_linker_0, # of connection points: 2
#     Edge 23, Type (0, 0), BuildingBlock: EZIPEK_clean_linker_0, # of connection points: 2
#     Edge 24, Type (0, 0), BuildingBlock: EZIPEK_clean_linker_0, # of connection points: 2
#     Edge 25, Type (0, 0), BuildingBlock: EZIPEK_clean_linker_0, # of connection points: 2
#     Edge 26, Type (0, 0), BuildingBlock: EZIPEK_clean_linker_0, # of connection points: 2
#     Edge 27, Type (0, 0), BuildingBlock: EZIPEK_clean_linker_0, # of connection points: 2
# Relax obj value: 0.054
# Max RMSD: 0.159
# Mean RMSD: 0.159
data_MOF--net-fcu--node1-BOTCEU_clean_sbu_0--edge1-EZIPEK_clean_linker_0
_symmetry_space_group_name_H-M    P1
_symmetry_Int_Tables_number       1
_symmetry_cell_setting            triclinic
loop_
_symmetry_equiv_pos_as_xyz
'x, y, z'
_cell_length_a     30.61498
_cell_length_b     30.653594
_cell_length_c     30.613084
_cell_angle_alpha  102.39478
_cell_angle_beta   102.03663
_cell_angle_gamma 102.40049
loop_
_atom_site_label
_atom_site_type_symbol
_atom_site_fract_x
_atom_site_fract_y
_atom_site_fract_z
_atom_type_partial_charge
C0 C 0.16463 0.9228 0.1136 0.0
C1 C 0.16571 0.93537 0.16021 0.0
C2 C 0.12074 0.91671 0.16205 0.0
N3 N 0.12124 0.89801 0.08986 0.0
N4 N 0.09496 0.89464 0.11847 0.0
C5 C 0.20483 0.92981 0.09291 0.0
H6 H 0.221 0.90081 0.09415 0.0
H7 H 0.23135 0.96281 0.11297 0.0
H8 H 0.19288 0.92979 0.05611 0.0
C9 C 0.10429 0.91543 0.20451 0.0
H10 H 0.06634 0.91118 0.19658 0.0
H11 H 0.12296 0.94754 0.23283 0.0
H12 H 0.11163 0.88539 0.21646 0.0
C13 C 0.937 0.16868 0.82371 0.0
C14 C 0.00556 0.16171 0.8162 0.0
C15 C 0.97148 0.18301 0.80266 0.0
N16 N 0.95091 0.14073 0.84872 0.0
N17 N -0.00861 0.13605 0.84349 0.0
H18 H 0.89856 0.21703 0.84129 0.0
H19 H 0.87641 0.1799 0.78317 0.0
H20 H 0.8676 0.15695 0.8317 0.0
C21 C 0.89199 0.18103 0.81969 0.0
H22 H 0.07051 0.20388 0.81502 0.0
H23 H 0.04469 0.15384 0.76625 0.0
H24 H 0.07179 0.14683 0.82206 0.0
C25 C 0.05099 0.16665 0.80439 0.0
C26 C 0.03956 0.76947 0.02673 0.0
C27 C 0.06539 0.94233 0.01163 0.0
C28 C 0.93503 0.10597 0.15454 0.0
N29 N 0.90758 0.07835 0.11361 0.0
N30 N 0.89972 0.10317 0.08429 0.0
C31 C 0.94492 0.15108 0.15078 0.0
C32 C 0.92173 0.14805 0.10561 0.0
H33 H 0.92049 0.09483 0.21702 0.0
H34 H 0.9813 0.11175 0.22013 0.0
H35 H 0.94603 0.05312 0.18837 0.0
C36 C 0.9467 0.09036 0.1975 0.0
H37 H 0.90237 0.17464 0.04714 0.0
H38 H 0.95043 0.2137 0.0946 0.0
H39 H 0.89224 0.20424 0.10034 0.0
C40 C 0.91645 0.18737 0.08536 0.0
C41 C 0.17291 0.83408 0.9492 0.0
C42 C 0.16129 0.8109 0.01038 0.0
N43 N 0.14316 0.85458 0.96629 0.0
N44 N 0.13561 0.84003 0.00219 0.0
C45 C 0.18544 0.80605 0.97688 0.0
H46 H 0.22213 0.86493 0.91697 0.0
H47 H 0.19031 0.80604 0.88658 0.0
H48 H 0.16223 0.8524 0.88467 0.0
C49 C 0.18745 0.83959 0.90662 0.0
C50 C 0.16342 0.78905 0.04966 0.0
H51 H 0.19987 0.7902 0.06556 0.0
H52 H 0.14318 0.75205 0.03609 0.0
H53 H 0.14879 0.80706 0.07624 0.0
C54 C 0.7794 -0.00275 0.03288 0.0
C55 C 0.95586 -0.00667 0.08068 0.0
C56 C 0.09313 0.17699 0.93984 0.0
N57 N 0.07428 0.13226 0.9161 0.0
C58 C 0.14001 0.18291 0.95876 0.0
N59 N 0.10635 0.10984 0.91905 0.0
C60 C 0.1472 0.13939 0.9447 0.0
H61 H 0.0305 0.19883 0.93423 0.0
H62 H 0.07346 0.22969 0.91131 0.0
H63 H 0.08254 0.24165 0.97313 0.0
C64 C 0.06825 0.21392 0.93989 0.0
H65 H 0.18748 0.09026 0.94862 0.0
C66 C 0.19262 0.12768 0.95064 0.0
H67 H 0.20791 0.13509 0.9223 0.0
H68 H 0.21713 0.14929 0.98425 0.0
C69 C 0.84114 0.95776 0.18851 0.0
C70 C 0.82389 0.01784 0.16741 0.0
N71 N 0.86121 0.96573 0.15488 0.0
N72 N 0.85017 0.00101 0.14186 0.0
C73 C 0.81715 -0.00913 0.1976 0.0
H74 H 0.86839 0.93186 0.2445 0.0
C75 C 0.84311 0.91846 0.20976 0.0
H76 H 0.85428 0.89149 0.18776 0.0
H77 H 0.80867 0.9032 0.21449 0.0
H78 H 0.81531 0.08398 0.19812 0.0
H79 H 0.76765 0.04749 0.15059 0.0
C80 C 0.80607 0.05889 0.16338 0.0
H81 H 0.82084 0.07588 0.13917 0.0
C82 C 0.02449 0.03846 0.79011 0.0
C83 C -0.01164 0.08089 0.95397 0.0
C84 C 0.79832 0.03587 0.8554 0.0
N85 N 0.84045 0.0615 0.88185 0.0
C86 C 0.80092 0.02417 0.80985 0.0
C87 C 0.84674 0.04419 0.81148 0.0
N88 N 0.86944 0.06623 0.85599 0.0
C89 C 0.75584 0.02708 0.87252 0.0
H90 H 0.76533 0.02743 0.90965 0.0
H91 H 0.73854 0.05496 0.8691 0.0
H92 H 0.73109 -0.00664 0.85142 0.0
C93 C 0.86674 0.04675 0.77127 0.0
H94 H 0.90497 0.05286 0.78216 0.0
H95 H 0.85074 0.01432 0.74268 0.0
H96 H 0.85898 0.07607 0.75816 0.0
C97 C 0.0284 0.79469 0.15631 0.0
C98 C -0.00247 0.78502 0.18262 0.0
C99 C 0.96655 0.8111 0.17458 0.0
N100 N 0.01527 0.8246 0.13353 0.0
N101 N 0.97905 0.83503 0.14535 0.0
H102 H 0.05761 0.74085 0.12995 0.0
H103 H 0.08732 0.77454 0.18839 0.0
H104 H 0.09399 0.79895 0.14017 0.0
C105 C 0.06953 0.7765 0.15363 0.0
C106 C 0.92511 0.81179 0.19302 0.0
H107 H 0.90459 0.77571 0.1882 0.0
H108 H 0.93691 0.82912 0.23083 0.0
H109 H 0.90306 0.83058 0.17529 0.0
C110 C 0.91381 0.19025 0.94653 0.0
C111 C 0.88023 0.01138 0.95828 0.0
C112 C 0.05525 0.88791 0.82136 0.0
C113 C 0.03924 0.84058 0.8155 0.0
C114 C 0.0533 0.83411 0.85927 0.0
N115 N 0.07737 0.90773 0.86634 0.0
N116 N 0.07623 0.87578 0.88892 0.0
C117 C 0.05302 0.9129 0.78445 0.0
H118 H 0.05803 0.95044 0.79976 0.0
H119 H 0.08105 0.90863 0.7674 0.0
H120 H 0.01928 0.89784 0.75766 0.0
C121 C 0.04903 0.78903 0.87151 0.0
H122 H 0.05296 0.79447 0.90932 0.0
H123 H 0.01508 0.76412 0.85143 0.0
H124 H 0.07685 0.774 0.86222 0.0
C125 C 0.78819 0.12638 0.02585 0.0
C126 C 0.77144 0.15038 -0.00457 0.0
C127 C 0.79265 0.14275 0.95976 0.0
N128 N 0.81739 0.10549 0.00817 0.0
N129 N 0.82051 0.11584 0.96919 0.0
C130 C 0.77979 0.12647 0.07222 0.0
H131 H 0.81354 0.13857 0.09907 0.0
H132 H 0.76313 0.09051 0.07203 0.0
H133 H 0.75727 0.14909 0.08103 0.0
C134 C 0.78851 0.16289 0.91926 0.0
H135 H 0.75145 0.15951 0.90334 0.0
H136 H 0.80694 0.20044 0.93152 0.0
H137 H 0.80382 0.14528 0.89309 0.0
C138 C 0.19721 0.97006 0.96811 0.0
C139 C 0.02929 0.98726 0.91751 0.0
C140 C 0.8665 0.80563 0.06475 0.0
N141 N 0.89271 0.84897 0.08676 0.0
N142 N 0.86639 0.87753 0.08879 0.0
C143 C 0.82077 0.80718 0.05239 0.0
C144 C 0.82193 0.85352 0.06832 0.0
H145 H 0.9216 0.77338 0.05873 0.0
H146 H 0.88092 0.7478 0.08719 0.0
H147 H 0.86376 0.73755 0.02523 0.0
C148 C 0.88439 0.76366 0.05829 0.0
H149 H 0.79278 0.91162 0.07183 0.0
H150 H 0.75442 0.85653 0.03383 0.0
H151 H 0.76629 0.86715 0.09574 0.0
C152 C 0.78153 0.87363 0.0671 0.0
C153 C 0.15918 0.04815 0.82873 0.0
N154 N 0.13443 0.03303 0.85663 0.0
N155 N 0.14518 -0.00408 0.86551 0.0
C156 C 0.18581 0.01779 0.81873 0.0
C157 C 0.17582 0.98501 0.84262 0.0
C158 C 0.15661 0.08956 0.81107 0.0
H159 H 0.13952 0.07794 0.77325 0.0
H160 H 0.19221 0.11144 0.81616 0.0
H161 H 0.13677 0.11009 0.8293 0.0
C162 C 0.19202 0.9422 0.84046 0.0
H163 H 0.17794 0.91873 0.80473 0.0
H164 H 0.23046 0.95148 0.84843 0.0
H165 H 0.18011 0.92404 0.86523 0.0
C166 C 0.96601 0.94169 0.20661 0.0
C167 C 0.96789 0.87717 0.02841 0.0
Cu168 Cu 0.09399 0.86241 0.02987 0.0
Cu169 Cu 0.03651 0.85393 0.09207 0.0
Cu170 Cu 0.87308 0.01751 0.09505 0.0
Cu171 Cu 0.85612 0.07124 0.02866 0.0
Cu172 Cu 0.01772 0.09946 0.87516 0.0
Cu173 Cu 0.08816 0.04993 0.88129 0.0
Cu174 Cu 0.86384 0.09587 0.94256 0.0
Cu175 Cu 0.9264 0.10844 0.88655 0.0
Cu176 Cu 0.11269 0.96656 0.90005 0.0
Cu177 Cu 0.11127 0.89587 0.94984 0.0
Cu178 Cu 0.95422 0.87489 0.11766 0.0
Cu179 Cu 0.89717 0.93779 0.12265 0.0
H180 H 0.00411 0.7502 0.02571 0.0
H181 H 0.06521 0.76339 0.05444 0.0
H182 H 0.04665 0.75714 0.99278 0.0
H183 H 0.06807 0.9463 0.04902 0.0
H184 H 0.03017 0.94308 -0.00592 0.0
H185 H 0.0917 0.97132 0.00784 0.0
H186 H 0.76848 0.95954 0.01525 0.0
H187 H 0.76093 0.01542 0.01066 0.0
H188 H 0.77063 0.00318 0.0666 0.0
H189 H 0.96947 0.03016 0.10121 0.0
H190 H 0.95697 -0.00947 0.04428 0.0
H191 H 0.9781 0.97325 0.09573 0.0
H192 H 0.00642 0.00121 0.77357 0.0
H193 H 0.05831 0.04698 0.78187 0.0
H194 H 0.00281 0.05979 0.77652 0.0
H195 H 0.02656 0.08723 0.96412 0.0
H196 H 0.97228 0.04764 0.96012 0.0
H197 H 0.97908 0.1096 0.97553 0.0
H198 H 0.94859 0.21202 0.94868 0.0
H199 H 0.88798 0.19288 0.91668 0.0
H200 H 0.904 0.20264 0.97891 0.0
H201 H 0.89088 0.00851 0.92554 0.0
H202 H 0.9021 -0.00311 0.98171 0.0
H203 H 0.84334 -0.00845 0.95019 0.0
H204 H 0.20958 0.9864 0.00608 0.0
H205 H 0.21035 0.93925 0.95929 0.0
H206 H 0.21032 -0.00455 0.94976 0.0
H207 H 0.02156 0.94895 0.90958 0.0
H208 H 0.02587 0.00126 0.95274 0.0
H209 H 0.00436 -0.00362 0.89153 0.0
H210 H 0.96028 0.97556 0.22185 0.0
H211 H 0.9439 0.91398 0.21664 0.0
H212 H 0.00301 0.94309 0.21979 0.0
H213 H 0.93543 0.84884 0.01898 0.0
H214 H 0.95961 0.9089 0.02163 0.0
H215 H -0.00976 0.86613 0.00656 0.0
O216 O 0.04261 0.81591 0.03538 0.0
O217 O 0.07288 0.90083 0.99226 0.0
O218 O 0.8263 0.01391 0.03994 0.0
O219 O 0.91108 0.9763 0.0822 0.0
O220 O 0.03135 0.04746 0.83721 0.0
O221 O 0.97339 0.07881 0.90788 0.0
O222 O 0.91499 0.14499 0.9409 0.0
O223 O 0.8852 0.05706 0.97935 0.0
O224 O 0.14967 0.957 0.95488 0.0
O225 O 0.07368 0.00551 0.91588 0.0
O226 O 0.95481 0.93277 0.15925 0.0
O227 O -0.0098 0.88561 0.07443 0.0
C228 C 0.16403 0.41814 0.60856 0.0
C229 C 0.1655 0.43707 0.65444 0.0
C230 C 0.12001 0.4239 0.65711 0.0
N231 N 0.1198 0.39523 0.58594 0.0
N232 N 0.09359 0.39879 0.61467 0.0
C233 C 0.20415 0.41811 0.58793 0.0
H234 H 0.19284 0.41406 0.55007 0.0
H235 H 0.21778 0.38838 0.59338 0.0
H236 H 0.23242 0.45059 0.60512 0.0
C237 C 0.10312 0.43084 0.69981 0.0
H238 H 0.0658 0.42968 0.69077 0.0
H239 H 0.12376 0.46435 0.72521 0.0
H240 H 0.10734 0.40242 0.71609 0.0
C241 C 0.94623 0.65553 0.32418 0.0
C242 C 0.01033 0.63841 0.3134 0.0
C243 C 0.98035 0.66438 0.30119 0.0
N244 N 0.95629 0.62586 0.34865 0.0
N245 N -0.00574 0.61544 0.34188 0.0
H246 H 0.91762 0.7129 0.33915 0.0
H247 H 0.8859 0.66917 0.28631 0.0
H248 H 0.88218 0.65836 0.34172 0.0
C249 C 0.90533 0.67488 0.3229 0.0
H250 H 0.07516 0.67217 0.30377 0.0
H251 H 0.04477 0.61753 0.26201 0.0
H252 H 0.07373 0.61854 0.32034 0.0
C253 C 0.0538 0.63652 0.29929 0.0
C254 C 0.02426 0.27184 0.52937 0.0
C255 C 0.07541 0.43789 0.50174 0.0
C256 C 0.94323 0.64058 0.6645 0.0
N257 N 0.91511 0.61047 0.62514 0.0
N258 N 0.90716 0.6321 0.59291 0.0
C259 C 0.9532 0.68412 0.65668 0.0
C260 C 0.92947 0.67745 0.61072 0.0
H261 H 0.95565 0.59242 0.70413 0.0
H262 H 0.92764 0.63429 0.72794 0.0
H263 H -0.01131 0.65255 0.73231 0.0
C264 C 0.95481 0.6292 0.70989 0.0
H265 H 0.9133 0.69972 0.54877 0.0
H266 H 0.95501 0.7434 0.59836 0.0
H267 H 0.89451 0.72802 0.59664 0.0
C268 C 0.92289 0.71426 0.58697 0.0
C269 C 0.1658 0.30806 0.45225 0.0
C270 C 0.15098 0.29543 0.51674 0.0
N271 N 0.13796 0.33361 0.46557 0.0
N272 N 0.12835 0.32521 0.5034 0.0
C273 C 0.17502 0.28334 0.48449 0.0
H274 H 0.21993 0.32529 0.41985 0.0
H275 H 0.17855 0.27017 0.39093 0.0
H276 H 0.16293 0.32335 0.38642 0.0
C277 C 0.18247 0.30668 0.4096 0.0
C278 C 0.15092 0.28017 0.55991 0.0
H279 H 0.18675 0.28133 0.57799 0.0
H280 H 0.12949 0.24368 0.55039 0.0
H281 H 0.13653 0.30256 0.58339 0.0
C282 C 0.78211 0.54371 0.56539 0.0
C283 C 0.95776 0.52702 0.58428 0.0
C284 C 0.09382 0.64608 0.44035 0.0
N285 N 0.07223 0.60264 0.41407 0.0
C286 C 0.14018 0.64843 0.45761 0.0
N287 N 0.10203 0.57755 0.41415 0.0
C288 C 0.14412 0.60413 0.44016 0.0
H289 H 0.03407 0.67239 0.43806 0.0
H290 H 0.0786 0.70299 0.41672 0.0
H291 H 0.0878 0.71119 0.47824 0.0
C292 C 0.0721 0.68546 0.44382 0.0
H293 H 0.18006 0.55093 0.43549 0.0
C294 C 0.18782 0.58929 0.44336 0.0
H295 H 0.20506 0.601 0.4178 0.0
H296 H 0.21197 0.60574 0.47848 0.0
C297 C 0.85767 0.48188 0.70021 0.0
C298 C 0.83907 0.54505 0.68875 0.0
N299 N 0.87615 0.49495 0.66748 0.0
N300 N 0.86463 0.53226 0.66026 0.0
C301 C 0.83366 0.51336 0.71476 0.0
H302 H 0.84003 0.43351 0.74005 0.0
C303 C 0.85773 0.43721 0.71235 0.0
H304 H 0.89405 0.43575 0.72403 0.0
H305 H 0.84004 0.40786 0.68089 0.0
H306 H 0.82058 0.60365 0.72426 0.0
H307 H 0.77918 0.56924 0.67088 0.0
C308 C 0.81683 0.58385 0.68816 0.0
H309 H 0.83272 0.60726 0.66925 0.0
C310 C 0.01306 0.51195 0.28529 0.0
C311 C 0.98026 0.55401 0.44884 0.0
C312 C 0.79795 0.54378 0.36593 0.0
N313 N 0.84188 0.56654 0.38976 0.0
C314 C 0.79764 0.52623 0.32012 0.0
C315 C 0.84353 0.53999 0.31876 0.0
N316 N 0.86902 0.56416 0.36184 0.0
C317 C 0.75704 0.54224 0.38555 0.0
H318 H 0.76797 0.54842 0.42378 0.0
H319 H 0.74094 0.56977 0.37755 0.0
H320 H 0.73069 0.50826 0.36933 0.0
C321 C 0.86184 0.53405 0.27692 0.0
H322 H 0.89936 0.53607 0.28695 0.0
H323 H 0.84217 0.50044 0.25116 0.0
H324 H 0.85736 0.56239 0.2606 0.0
C325 C 0.01862 0.30945 0.65796 0.0
C326 C -0.01171 0.30567 0.68577 0.0
C327 C 0.96196 0.33608 0.67775 0.0
N328 N 0.00982 0.34034 0.6346 0.0
N329 N 0.97669 0.35682 0.64713 0.0
H330 H 0.03843 0.24886 0.63087 0.0
H331 H 0.07206 0.28143 0.68858 0.0
H332 H 0.08126 0.30291 0.63929 0.0
C333 C 0.05505 0.28446 0.65402 0.0
C334 C 0.92208 0.34311 0.69672 0.0
H335 H 0.89934 0.3091 0.69546 0.0
H336 H 0.93553 0.36371 0.7336 0.0
H337 H 0.90185 0.36178 0.67676 0.0
C338 C 0.93798 0.68857 0.45092 0.0
C339 C 0.87206 0.52057 0.47539 0.0
C340 C 0.05291 0.35322 0.31101 0.0
C341 C 0.03637 0.30709 0.30994 0.0
C342 C 0.05067 0.3052 0.35555 0.0
N343 N 0.07572 0.37662 0.35498 0.0
N344 N 0.07425 0.34833 0.38161 0.0
C345 C 0.04955 0.37398 0.27092 0.0
H346 H 0.07987 0.37195 0.25683 0.0
H347 H 0.01745 0.35457 0.24294 0.0
H348 H 0.05027 0.41107 0.2825 0.0
C349 C 0.04555 0.26292 0.37296 0.0
H350 H 0.04838 0.27236 0.41073 0.0
H351 H 0.01183 0.2372 0.35371 0.0
H352 H 0.07372 0.24677 0.36703 0.0
C353 C 0.8005 0.66014 0.52675 0.0
C354 C 0.78697 0.67986 0.49111 0.0
C355 C 0.808 0.664 0.45735 0.0
N356 N 0.8276 0.63349 0.51375 0.0
N357 N 0.83276 0.63668 0.47284 0.0
C358 C 0.78926 0.66793 0.57251 0.0
H359 H 0.75395 0.64577 0.568 0.0
H360 H 0.78928 0.70466 0.58539 0.0
H361 H 0.81466 0.65885 0.5982 0.0
C362 C 0.80419 0.67437 0.4114 0.0
H363 H 0.76709 0.66472 0.39185 0.0
H364 H 0.81832 0.71223 0.41695 0.0
H365 H 0.82339 0.65509 0.39095 0.0
C366 C 0.1982 0.43759 0.44408 0.0
C367 C 0.02149 0.44842 0.39585 0.0
C368 C 0.86621 0.33554 0.56478 0.0
N369 N 0.89493 0.37741 0.58829 0.0
N370 N 0.87136 0.40847 0.59209 0.0
C371 C 0.82175 0.3406 0.55296 0.0
C372 C 0.82627 0.3875 0.57086 0.0
H373 H 0.9182 0.29917 0.55763 0.0
H374 H 0.87437 0.27399 0.58311 0.0
H375 H 0.85977 0.26787 0.52172 0.0
C376 C 0.88068 0.2916 0.556 0.0
H377 H 0.80279 0.44888 0.58542 0.0
H378 H 0.76878 0.40467 0.53242 0.0
H379 H 0.76376 0.39597 0.58736 0.0
C380 C 0.78836 0.41107 0.56908 0.0
C381 C 0.14911 0.52501 0.31737 0.0
N382 N 0.12422 0.50477 0.34244 0.0
N383 N 0.13655 0.46723 0.34761 0.0
C384 C 0.1777 0.49776 0.30523 0.0
C385 C 0.1687 0.46119 0.32488 0.0
C386 C 0.14799 0.57064 0.30797 0.0
H387 H 0.12134 0.5648 0.27508 0.0
H388 H 0.18203 0.58861 0.30424 0.0
H389 H 0.13906 0.59275 0.33659 0.0
C390 C 0.19024 0.42169 0.32211 0.0
H391 H 0.19261 0.40849 0.2862 0.0
H392 H 0.22604 0.43425 0.34535 0.0
H393 H 0.16975 0.39336 0.33291 0.0
C394 C 0.98458 0.47316 0.70342 0.0
C395 C 0.9719 0.39544 0.52669 0.0
Cu396 Cu 0.09014 0.35651 0.5276 0.0
Cu397 Cu 0.0329 0.36343 0.59058 0.0
Cu398 Cu 0.87921 0.55046 0.61028 0.0
Cu399 Cu 0.86015 0.59721 0.54049 0.0
Cu400 Cu 0.01476 0.57528 0.37263 0.0
Cu401 Cu 0.08068 0.51963 0.37224 0.0
Cu402 Cu 0.87022 0.60408 0.44895 0.0
Cu403 Cu 0.92983 0.59843 0.38835 0.0
Cu404 Cu 0.10936 0.43659 0.3848 0.0
Cu405 Cu 0.11033 0.37467 0.44206 0.0
Cu406 Cu 0.95723 0.39807 0.61723 0.0
Cu407 Cu 0.90572 0.46763 0.6271 0.0
H408 H -0.00965 0.2594 0.53649 0.0
H409 H 0.05164 0.26346 0.55332 0.0
H410 H 0.02239 0.25451 0.49302 0.0
H411 H 0.08206 0.44685 0.53998 0.0
H412 H 0.04145 0.44318 0.48689 0.0
H413 H 0.10316 0.46106 0.49268 0.0
H414 H 0.75777 0.53622 0.53065 0.0
H415 H 0.7804 0.57638 0.58795 0.0
H416 H 0.77215 0.51493 0.58105 0.0
H417 H 0.98278 0.54023 0.61915 0.0
H418 H 0.95749 0.55596 0.56792 0.0
H419 H 0.96832 0.49965 0.56236 0.0
H420 H 0.00421 0.4739 0.26996 0.0
H421 H 0.0434 0.52927 0.27504 0.0
H422 H 0.98301 0.52487 0.27244 0.0
H423 H 0.01765 0.55571 0.45913 0.0
H424 H 0.95956 0.51992 0.44965 0.0
H425 H 0.97347 0.58226 0.47359 0.0
H426 H 0.95919 0.69888 0.42768 0.0
H427 H 0.90552 0.69929 0.44332 0.0
H428 H 0.95795 0.70592 0.4875 0.0
H429 H 0.83613 0.5059 0.47679 0.0
H430 H 0.87383 0.51057 0.43893 0.0
H431 H 0.89634 0.50639 0.49661 0.0
H432 H 0.21547 0.43897 0.48019 0.0
H433 H 0.20421 0.40858 0.41966 0.0
H434 H 0.2128 0.47078 0.43671 0.0
H435 H 0.01917 0.41419 0.40306 0.0
H436 H 0.00638 0.46931 0.41969 0.0
H437 H 0.00182 0.44284 0.35942 0.0
H438 H 0.02201 0.49062 0.71049 0.0
H439 H 0.9675 0.49785 0.72033 0.0
H440 H 0.98039 0.44256 0.71754 0.0
H441 H 0.93456 0.37732 0.51846 0.0
H442 H 0.97576 0.42977 0.51956 0.0
H443 H -0.01186 0.37426 0.50435 0.0
O444 O 0.03424 0.31887 0.53561 0.0
O445 O 0.07482 0.39241 0.48496 0.0
O446 O 0.82632 0.54793 0.56093 0.0
O447 O 0.91429 0.50909 0.58856 0.0
O448 O 0.02322 0.52144 0.33265 0.0
O449 O 0.96854 0.55913 0.40485 0.0
O450 O 0.92763 0.6414 0.44385 0.0
O451 O 0.88396 0.56804 0.49155 0.0
O452 O 0.15154 0.43103 0.43896 0.0
O453 O 0.06704 0.47117 0.40212 0.0
O454 O 0.96473 0.45928 0.65648 0.0
O455 O -0.00713 0.40102 0.57251 0.0
C456 C 0.64149 0.92593 0.60727 0.0
C457 C 0.6411 0.93874 0.65342 0.0
C458 C 0.59591 0.91929 0.65405 0.0
N459 N 0.5987 0.90033 0.58256 0.0
N460 N 0.57142 0.89647 0.61023 0.0
C461 C 0.68272 0.93297 0.58808 0.0
H462 H 0.67179 0.93208 0.55094 0.0
H463 H 0.69926 0.90447 0.59092 0.0
H464 H 0.70857 0.96641 0.6081 0.0
C465 C 0.5783 0.91755 0.69578 0.0
H466 H 0.53994 0.91016 0.68636 0.0
H467 H 0.5943 0.9508 0.72327 0.0
H468 H 0.5882 0.88941 0.70965 0.0
C469 C 0.44967 0.17286 0.33086 0.0
C470 C 0.51876 0.17304 0.31992 0.0
C471 C 0.48101 0.19039 0.30803 0.0
N472 N 0.46865 0.14701 0.35531 0.0
N473 N 0.50947 0.14644 0.34815 0.0
H474 H 0.40395 0.21465 0.34426 0.0
H475 H 0.383 0.17083 0.28986 0.0
H476 H 0.38253 0.15444 0.34335 0.0
C477 C 0.40179 0.17822 0.32695 0.0
H478 H 0.57437 0.21762 0.30462 0.0
H479 H 0.55365 0.15962 0.26716 0.0
H480 H 0.58924 0.17004 0.32558 0.0
C481 C 0.56182 0.18057 0.30369 0.0
C482 C 0.51189 0.77305 0.51111 0.0
C483 C 0.55155 0.9441 0.49783 0.0
C484 C 0.42963 0.10406 0.66275 0.0
N485 N 0.40393 0.0782 0.62035 0.0
N486 N 0.40219 0.10433 0.59157 0.0
C487 C 0.44497 0.14921 0.66031 0.0
C488 C 0.42678 0.14813 0.61444 0.0
H489 H 0.42908 0.04862 0.69561 0.0
H490 H 0.41106 0.09681 0.72459 0.0
H491 H 0.47152 0.10356 0.72818 0.0
C492 C 0.43588 0.08696 0.70519 0.0
H493 H 0.42026 0.17618 0.55565 0.0
H494 H 0.46499 0.21254 0.60757 0.0
H495 H 0.40484 0.20752 0.60456 0.0
C496 C 0.42956 0.18838 0.59405 0.0
C497 C 0.66175 0.83009 0.45411 0.0
C498 C 0.64023 0.80806 0.51226 0.0
N499 N 0.63096 0.85223 0.46637 0.0
N500 N 0.61761 0.83847 0.50052 0.0
C501 C 0.66869 0.80168 0.48312 0.0
H502 H 0.71717 0.86138 0.42908 0.0
H503 H 0.68868 0.80169 0.39825 0.0
H504 H 0.66037 0.84673 0.38931 0.0
C505 C 0.68298 0.83509 0.41512 0.0
C506 C 0.63575 0.78671 0.5511 0.0
H507 H 0.67018 0.78488 0.56993 0.0
H508 H 0.61276 0.7508 0.53669 0.0
H509 H 0.62057 0.80722 0.57522 0.0
C510 C 0.27987 0.00518 0.52742 0.0
C511 C 0.44845 0.98878 0.58922 0.0
C512 C 0.61885 0.18167 0.43914 0.0
N513 N 0.59671 0.13793 0.41414 0.0
C514 C 0.66461 0.1831 0.45809 0.0
N515 N 0.62539 0.11174 0.41663 0.0
C516 C 0.66757 0.13794 0.44288 0.0
H517 H 0.56005 0.20954 0.43718 0.0
H518 H 0.6032 0.23678 0.41228 0.0
H519 H 0.61497 0.24887 0.47442 0.0
C520 C 0.59791 0.22158 0.4412 0.0
H521 H 0.70152 0.08377 0.44609 0.0
C522 C 0.71043 0.12151 0.44889 0.0
H523 H 0.72715 0.12759 0.42106 0.0
H524 H 0.73543 0.14118 0.48288 0.0
C525 C 0.32029 0.95794 0.68455 0.0
C526 C 0.31018 0.0203 0.66329 0.0
N527 N 0.34352 0.96453 0.65275 0.0
N528 N 0.33664 0.00119 0.63955 0.0
C529 C 0.29881 -0.00658 0.69239 0.0
H530 H 0.32509 0.88882 0.68335 0.0
C531 C 0.3178 0.91838 0.70597 0.0
H532 H 0.2831 0.90729 0.71204 0.0
H533 H 0.34414 0.92992 0.74004 0.0
H534 H 0.30906 0.08941 0.69437 0.0
H535 H 0.25934 0.05661 0.64729 0.0
C536 C 0.29763 0.06409 0.65959 0.0
H537 H 0.3141 0.07924 0.63525 0.0
C538 C 0.54896 0.05662 0.28681 0.0
C539 C 0.51788 0.09187 0.45735 0.0
C540 C 0.32245 0.03436 0.36189 0.0
N541 N 0.36408 0.06112 0.38858 0.0
C542 C 0.32561 0.02234 0.31654 0.0
C543 C 0.37123 0.04356 0.3185 0.0
N544 N 0.39325 0.06659 0.36296 0.0
C545 C 0.27958 0.0256 0.37837 0.0
H546 H 0.262 0.0531 0.37394 0.0
H547 H 0.25525 -0.00845 0.35757 0.0
H548 H 0.28864 0.02672 0.41572 0.0
C549 C 0.39122 0.04701 0.27843 0.0
H550 H 0.4297 0.05656 0.28993 0.0
H551 H 0.3778 0.01362 0.25086 0.0
H552 H 0.38032 0.07424 0.26366 0.0
C553 C 0.51439 0.79198 0.64432 0.0
C554 C 0.48638 0.77825 0.67182 0.0
C555 C 0.45135 0.80023 0.66559 0.0
N556 N 0.49589 0.81995 0.62247 0.0
N557 N 0.45889 0.82564 0.63596 0.0
H558 H 0.55326 0.74822 0.61677 0.0
H559 H 0.57846 0.77993 0.67666 0.0
H560 H 0.58126 0.80967 0.63162 0.0
C561 C 0.55972 0.78213 0.64235 0.0
C562 C 0.41294 0.79856 0.68884 0.0
H563 H 0.39794 0.76239 0.68938 0.0
H564 H 0.42719 0.8201 0.72535 0.0
H565 H 0.38558 0.81203 0.67075 0.0
C566 C 0.44032 0.19168 0.45873 0.0
C567 C 0.40691 0.01791 0.4754 0.0
C568 C 0.55998 0.8868 0.31504 0.0
C569 C 0.5412 0.83987 0.3093 0.0
C570 C 0.55117 0.8337 0.35355 0.0
N571 N 0.57989 0.90668 0.36048 0.0
N572 N 0.57454 0.87513 0.38334 0.0
C573 C 0.56183 0.91125 0.27793 0.0
H574 H 0.56847 0.94918 0.2926 0.0
H575 H 0.59041 0.90476 0.26261 0.0
H576 H 0.52888 0.89741 0.24991 0.0
C577 C 0.54201 0.78902 0.36663 0.0
H578 H 0.54154 0.79546 0.4036 0.0
H579 H 0.50864 0.76492 0.34392 0.0
H580 H 0.57019 0.77248 0.36181 0.0
C581 C 0.30064 0.13349 0.51998 0.0
C582 C 0.28898 0.15731 0.48741 0.0
C583 C 0.31444 0.14811 0.45581 0.0
N584 N 0.33126 0.11131 0.50739 0.0
N585 N 0.33978 0.1205 0.46947 0.0
C586 C 0.28553 0.13419 0.56344 0.0
H587 H 0.26219 0.09973 0.55971 0.0
H588 H 0.26692 0.16113 0.57071 0.0
H589 H 0.31628 0.14066 0.59298 0.0
C590 C 0.31574 0.16642 0.41454 0.0
H591 H 0.28019 0.16566 0.39603 0.0
H592 H 0.3371 0.20306 0.42632 0.0
H593 H 0.3311 0.14562 0.39079 0.0
C594 C 0.69381 0.96567 0.46997 0.0
C595 C 0.53119 0.98897 0.40061 0.0
C596 C 0.34193 0.80234 0.56059 0.0
N597 N 0.37015 0.84452 0.58385 0.0
N598 N 0.34618 0.87524 0.58647 0.0
C599 C 0.29722 0.80688 0.54819 0.0
C600 C 0.3012 0.85382 0.56528 0.0
H601 H 0.35382 0.74328 0.58208 0.0
H602 H 0.3345 0.73312 0.52019 0.0
H603 H 0.39379 0.76635 0.55175 0.0
C604 C 0.35698 0.75869 0.55285 0.0
H605 H 0.27586 0.91419 0.56759 0.0
H606 H 0.23409 0.8596 0.53275 0.0
H607 H 0.24899 0.87345 0.59508 0.0
C608 C 0.26278 0.87677 0.56482 0.0
C609 C 0.67475 0.04394 0.32808 0.0
N610 N 0.64694 0.03067 0.3542 0.0
N611 N 0.65365 -0.00769 0.3636 0.0
C612 C 0.69927 0.01117 0.31981 0.0
C613 C 0.68466 0.97873 0.34267 0.0
C614 C 0.67645 0.08558 0.30993 0.0
H615 H 0.65618 0.07436 0.27299 0.0
H616 H 0.71283 0.10275 0.31163 0.0
H617 H 0.66148 0.11035 0.33007 0.0
C618 C 0.69679 0.93386 0.34107 0.0
H619 H 0.68452 0.9115 0.3048 0.0
H620 H 0.73506 0.94053 0.35228 0.0
H621 H 0.68045 0.9157 0.36367 0.0
C622 C 0.43894 0.92447 0.70752 0.0
C623 C 0.44162 0.87813 0.5262 0.0
Cu624 Cu 0.57454 0.86417 0.52241 0.0
Cu625 Cu 0.51382 0.85444 0.58345 0.0
Cu626 Cu 0.36677 0.01821 0.59727 0.0
Cu627 Cu 0.3646 0.07491 0.5325 0.0
Cu628 Cu 0.53892 0.10832 0.3748 0.0
Cu629 Cu 0.60184 0.05245 0.37682 0.0
Cu630 Cu 0.38478 0.09762 0.44878 0.0
Cu631 Cu 0.44873 0.11148 0.39257 0.0
Cu632 Cu 0.61584 0.96504 0.39533 0.0
Cu633 Cu 0.60405 0.89509 0.44572 0.0
Cu634 Cu 0.43182 0.868 0.61467 0.0
Cu635 Cu 0.37989 0.93388 0.62342 0.0
H636 H 0.47414 0.75625 0.50265 0.0
H637 H 0.53059 0.76132 0.53945 0.0
H638 H 0.52449 0.76335 0.47991 0.0
H639 H 0.55094 0.9494 0.53466 0.0
H640 H 0.51741 0.94428 0.4769 0.0
H641 H 0.57925 0.97254 0.49512 0.0
H642 H 0.26624 0.02274 0.50161 0.0
H643 H 0.26783 0.01515 0.5589 0.0
H644 H 0.26695 0.96706 0.51215 0.0
H645 H 0.45973 0.02717 0.59822 0.0
H646 H 0.45421 0.97464 0.55512 0.0
H647 H 0.46943 0.97702 0.61612 0.0
H648 H 0.55447 0.02342 0.26923 0.0
H649 H 0.57693 0.08594 0.28618 0.0
H650 H 0.5149 0.05965 0.26847 0.0
H651 H 0.55218 0.08445 0.46297 0.0
H652 H 0.49452 0.06834 0.47064 0.0
H653 H 0.52253 0.12841 0.47637 0.0
H654 H 0.47727 0.21196 0.47259 0.0
H655 H 0.42459 0.2007 0.42707 0.0
H656 H 0.42139 0.20017 0.48516 0.0
H657 H 0.40904 0.01164 0.43896 0.0
H658 H 0.43916 0.01483 0.49735 0.0
H659 H 0.37657 -0.0082 0.47728 0.0
H660 H 0.70475 -0.0068 0.50327 0.0
H661 H 0.70412 0.93448 0.47593 0.0
H662 H 0.71097 0.97833 0.44483 0.0
H663 H 0.5219 0.95055 0.39031 0.0
H664 H 0.52198 0.0007 0.43339 0.0
H665 H 0.51128 0.0006 0.37289 0.0
H666 H 0.43881 0.95938 0.72705 0.0
H667 H 0.41015 0.8979 0.71121 0.0
H668 H 0.47243 0.91754 0.72155 0.0
H669 H 0.41038 0.89107 0.52525 0.0
H670 H 0.46413 0.89707 0.50854 0.0
H671 H 0.43067 0.84053 0.50807 0.0
O672 O 0.5197 0.82025 0.52479 0.0
O673 O 0.5601 0.90229 0.48193 0.0
O674 O 0.32739 0.01809 0.53884 0.0
O675 O 0.40224 0.97405 0.58715 0.0
O676 O 0.54946 0.05746 0.33182 0.0
O677 O 0.49914 0.08548 0.4109 0.0
O678 O 0.43753 0.14524 0.44831 0.0
O679 O 0.40213 0.06163 0.49062 0.0
O680 O 0.64658 0.95475 0.4528 0.0
O681 O 0.57792 0.00653 0.40689 0.0
O682 O 0.43344 0.92289 0.6616 0.0
O683 O 0.46549 0.8848 0.57136 0.0
C684 C 0.6427 0.41843 0.1178 0.0
C685 C 0.63974 0.43654 0.16234 0.0
C686 C 0.59294 0.42272 0.16037 0.0
N687 N 0.5997 0.39535 0.09149 0.0
N688 N 0.57004 0.398 0.11665 0.0
C689 C 0.68571 0.41916 0.10189 0.0
H690 H 0.678 0.41558 0.06403 0.0
H691 H 0.69855 0.38942 0.10878 0.0
H692 H 0.71322 0.4517 0.12121 0.0
C693 C 0.57151 0.42858 0.20007 0.0
H694 H 0.53376 0.42425 0.18735 0.0
H695 H 0.58859 0.46318 0.22513 0.0
H696 H 0.57665 0.40172 0.21835 0.0
C697 C 0.47059 0.65974 0.82409 0.0
C698 C 0.53609 0.64504 0.81479 0.0
C699 C 0.50469 0.66938 0.80141 0.0
N700 N 0.48185 0.63136 0.84956 0.0
N701 N 0.5206 0.62218 0.84374 0.0
H702 H 0.43587 0.71342 0.82735 0.0
H703 H 0.40532 0.66058 0.78309 0.0
H704 H 0.40739 0.66294 0.84315 0.0
C705 C 0.4271 0.67501 0.81946 0.0
H706 H 0.59758 0.67791 0.79857 0.0
H707 H 0.56932 0.61939 0.7641 0.0
H708 H 0.60205 0.62979 0.82358 0.0
C709 C 0.57906 0.64297 0.79967 0.0
C710 C 0.5037 0.27314 0.02369 0.0
C711 C 0.56865 0.43919 0.00324 0.0
C712 C 0.43722 0.63947 0.15908 0.0
N713 N 0.41123 0.61022 0.11829 0.0
N714 N 0.41037 0.6319 0.08566 0.0
C715 C 0.45339 0.68237 0.15156 0.0
C716 C 0.43545 0.67632 0.10439 0.0
H717 H 0.43783 0.59055 0.1999 0.0
H718 H 0.41376 0.63753 0.21965 0.0
H719 H 0.47561 0.64872 0.2293 0.0
C720 C 0.44166 0.62824 0.20468 0.0
H721 H 0.43055 0.69794 0.04171 0.0
H722 H 0.47067 0.74005 0.09351 0.0
H723 H 0.40906 0.7303 0.08493 0.0
C724 C 0.43677 0.71327 0.07947 0.0
C725 C 0.65973 0.3064 0.97017 0.0
C726 C 0.63499 0.29336 0.03021 0.0
N727 N 0.63156 0.33303 0.97944 0.0
N728 N 0.61611 0.32461 0.01463 0.0
C729 C 0.66289 0.28067 0.00224 0.0
H730 H 0.71916 0.322 0.94447 0.0
H731 H 0.67785 0.26749 0.91289 0.0
H732 H 0.66542 0.32132 0.90565 0.0
C733 C 0.68153 0.3042 0.93069 0.0
C734 C 0.62757 0.27699 0.07129 0.0
H735 H 0.66047 0.27309 0.09142 0.0
H736 H 0.60178 0.24248 0.05915 0.0
H737 H 0.6145 0.30179 0.09365 0.0
C738 C 0.28072 0.54943 0.04266 0.0
C739 C 0.45097 0.52133 0.08631 0.0
C740 C 0.61927 0.64846 0.94264 0.0
N741 N 0.59582 0.60535 0.9168 0.0
C742 C 0.66404 0.64772 0.9627 0.0
N743 N 0.62281 0.57752 0.91968 0.0
C744 C 0.66508 0.60197 0.94718 0.0
H745 H 0.56319 0.6804 0.93815 0.0
H746 H 0.60842 0.70371 0.9135 0.0
H747 H 0.6189 0.71779 0.97567 0.0
C748 C 0.60128 0.6901 0.94284 0.0
H749 H 0.69643 0.54561 0.9473 0.0
C750 C 0.70687 0.58378 0.95287 0.0
H751 H 0.72542 0.59174 0.9268 0.0
H752 H 0.73093 0.60097 0.98792 0.0
C753 C 0.3296 0.48508 0.18511 0.0
C754 C 0.32066 0.55122 0.1722 0.0
N755 N 0.3534 0.49608 0.15515 0.0
N756 N 0.34739 0.53499 0.1467 0.0
C757 C 0.30839 0.51981 0.19705 0.0
H758 H 0.33532 0.4476 0.23643 0.0
C759 C 0.32332 0.44033 0.19814 0.0
H760 H 0.34299 0.41846 0.18138 0.0
H761 H 0.2859 0.42142 0.18723 0.0
H762 H 0.30895 0.61444 0.20677 0.0
H763 H 0.26772 0.58387 0.15211 0.0
C764 C 0.30507 0.59397 0.17088 0.0
H765 H 0.32545 0.61539 0.15316 0.0
C766 C 0.54344 0.5199 0.78663 0.0
C767 C 0.50321 0.55949 0.94874 0.0
C768 C 0.32087 0.54647 0.85568 0.0
N769 N 0.36385 0.5695 0.8821 0.0
C770 C 0.32393 0.52871 0.81109 0.0
C771 C 0.37074 0.54266 0.81312 0.0
N772 N 0.39352 0.56716 0.85689 0.0
C773 C 0.27784 0.54494 0.87172 0.0
H774 H 0.28602 0.55096 0.90996 0.0
H775 H 0.26283 0.57267 0.86239 0.0
H776 H 0.25169 0.51106 0.85415 0.0
C777 C 0.39248 0.5364 0.77364 0.0
H778 H 0.43025 0.54071 0.78661 0.0
H779 H 0.37541 0.50169 0.74877 0.0
H780 H 0.38752 0.56304 0.75502 0.0
C781 C 0.49451 0.30497 0.15134 0.0
C782 C 0.46323 0.29879 0.17778 0.0
C783 C 0.4342 0.32646 0.16802 0.0
N784 N 0.48369 0.33438 0.12693 0.0
N785 N 0.44835 0.3479 0.13755 0.0
H786 H 0.55282 0.2873 0.18857 0.0
H787 H 0.56104 0.30723 0.13835 0.0
H788 H 0.52464 0.24986 0.13123 0.0
C789 C 0.53595 0.28652 0.15249 0.0
C790 C 0.39486 0.33309 0.18809 0.0
H791 H 0.37293 0.29891 0.18744 0.0
H792 H 0.40886 0.3539 0.22487 0.0
H793 H 0.37369 0.35128 0.16841 0.0
C794 C 0.4604 0.69081 0.95057 0.0
C795 C 0.38737 0.52301 0.97023 0.0
C796 C 0.56377 0.35052 0.81868 0.0
C797 C 0.54336 0.3053 0.81816 0.0
C798 C 0.55335 0.30448 0.86436 0.0
N799 N 0.58465 0.37441 0.86299 0.0
N800 N 0.5782 0.34728 0.89019 0.0
C801 C 0.5649 0.37006 0.7781 0.0
H802 H 0.56821 0.40787 0.78847 0.0
H803 H 0.59557 0.36491 0.76587 0.0
H804 H 0.53324 0.35193 0.74916 0.0
C805 C 0.54205 0.26348 0.88304 0.0
H806 H 0.54215 0.27489 0.92002 0.0
H807 H 0.50783 0.23956 0.86223 0.0
H808 H 0.56881 0.24439 0.88063 0.0
C809 C 0.3136 0.66487 0.01142 0.0
C810 C 0.30417 0.68536 0.97559 0.0
C811 C 0.32752 0.66897 0.94425 0.0
N812 N 0.34074 0.63743 0.00095 0.0
N813 N 0.34978 0.64061 0.96142 0.0
C814 C 0.29802 0.67211 0.05489 0.0
H815 H 0.26109 0.65232 0.04678 0.0
H816 H 0.3005 0.70939 0.06874 0.0
H817 H 0.31931 0.65998 0.08133 0.0
C818 C 0.32802 0.67962 0.89895 0.0
H819 H 0.29213 0.6762 0.87913 0.0
H820 H 0.34848 0.71608 0.90558 0.0
H821 H 0.34365 0.656 0.87836 0.0
C822 C 0.70099 0.43382 0.96202 0.0
C823 C 0.53008 0.44996 0.89098 0.0
C824 C 0.33945 0.33422 0.05532 0.0
N825 N 0.37004 0.37507 0.07886 0.0
N826 N 0.34871 0.40799 0.08265 0.0
C827 C 0.29603 0.34194 0.04389 0.0
C828 C 0.30316 0.38929 0.06209 0.0
H829 H 0.38761 0.29337 0.04722 0.0
H830 H 0.34566 0.27383 0.07717 0.0
H831 H 0.32745 0.26385 0.01523 0.0
C832 C 0.35081 0.28861 0.04796 0.0
H833 H 0.28295 0.45279 0.07307 0.0
H834 H 0.24034 0.40332 0.02999 0.0
H835 H 0.24942 0.40684 0.09064 0.0
C836 C 0.26695 0.41487 0.0639 0.0
C837 C 0.6736 0.51913 0.82971 0.0
N838 N 0.64474 0.5011 0.85263 0.0
N839 N 0.65318 0.46249 0.8596 0.0
C840 C 0.7009 0.48941 0.82091 0.0
C841 C 0.68678 0.45352 0.8401 0.0
C842 C 0.67591 0.56407 0.8176 0.0
H843 H 0.6621 0.55703 0.77952 0.0
H844 H 0.71258 0.58512 0.8273 0.0
H845 H 0.65532 0.58358 0.83572 0.0
C846 C 0.70435 0.41159 0.83924 0.0
H847 H 0.70805 0.39709 0.80414 0.0
H848 H 0.73921 0.42185 0.86409 0.0
H849 H 0.68054 0.38492 0.84909 0.0
C850 C 0.45278 0.46095 0.20188 0.0
C851 C 0.45205 0.39729 0.02429 0.0
Cu852 Cu 0.57569 0.35717 0.03212 0.0
Cu853 Cu 0.51018 0.36217 0.08751 0.0
Cu854 Cu 0.37145 0.55162 0.10033 0.0
Cu855 Cu 0.36781 0.59916 0.0297 0.0
Cu856 Cu 0.5395 0.58037 0.87336 0.0
Cu857 Cu 0.59963 0.51988 0.87709 0.0
Cu858 Cu 0.38835 0.60676 0.94188 0.0
Cu859 Cu 0.45352 0.60195 0.88672 0.0
Cu860 Cu 0.61894 0.43413 0.89351 0.0
Cu861 Cu 0.60873 0.37435 0.95205 0.0
Cu862 Cu 0.43141 0.39253 0.11123 0.0
Cu863 Cu 0.38525 0.4653 0.12021 0.0
H864 H 0.50947 0.25776 0.98983 0.0
H865 H 0.46648 0.26063 0.02219 0.0
H866 H 0.525 0.26263 0.05137 0.0
H867 H 0.56778 0.44756 0.04004 0.0
H868 H 0.53787 0.44563 0.98223 0.0
H869 H 0.6007 0.46182 0.00014 0.0
H870 H 0.26397 0.55382 0.00867 0.0
H871 H 0.27851 0.57755 0.07087 0.0
H872 H 0.26252 0.51541 0.04595 0.0
H873 H 0.45709 0.55221 0.07273 0.0
H874 H 0.46126 0.49331 0.06498 0.0
H875 H 0.47206 0.53073 0.12283 0.0
H876 H 0.53777 0.48253 0.76992 0.0
H877 H 0.57545 0.54026 0.78129 0.0
H878 H 0.5134 0.53143 0.77088 0.0
H879 H 0.50212 0.59143 0.97319 0.0
H880 H 0.53863 0.55488 0.95765 0.0
H881 H 0.47813 0.52902 0.95167 0.0
H882 H 0.48221 0.70632 0.98679 0.0
H883 H 0.48047 0.70137 0.92654 0.0
H884 H 0.42883 0.70331 0.9458 0.0
H885 H 0.38826 0.51279 0.9335 0.0
H886 H 0.41375 0.51085 0.99133 0.0
H887 H 0.35238 0.50665 0.97289 0.0
H888 H 0.71338 0.43139 -0.0021 0.0
H889 H 0.70834 0.40596 0.93737 0.0
H890 H 0.71922 0.4681 0.9592 0.0
H891 H 0.51635 0.44423 0.8531 0.0
H892 H 0.52382 0.41591 0.89895 0.0
H893 H 0.51196 0.47179 0.90996 0.0
H894 H 0.487 0.48719 0.21538 0.0
H895 H 0.42701 0.47461 0.21714 0.0
H896 H 0.45572 0.42876 0.2117 0.0
H897 H 0.4173 0.40369 0.01971 0.0
H898 H 0.47483 0.42396 0.0137 0.0
H899 H 0.4487 0.36225 0.00235 0.0
O900 O 0.51597 0.32052 0.03291 0.0
O901 O 0.56803 0.39347 0.98831 0.0
O902 O 0.3263 0.55121 0.0452 0.0
O903 O 0.40488 0.5066 0.08445 0.0
O904 O 0.54761 0.52643 0.83316 0.0
O905 O 0.49217 0.56329 0.90419 0.0
O906 O 0.4481 0.6434 0.94144 0.0
O907 O 0.39687 0.57039 0.98543 0.0
O908 O 0.65419 0.42912 0.95179 0.0
O909 O 0.57681 0.47133 0.90405 0.0
O910 O 0.43902 0.45171 0.1545 0.0
O911 O 0.47042 0.40003 0.06997 0.0
C912 C 0.94123 0.21152 0.21806 0.0
C913 C 0.96757 0.19337 0.18933 0.0
C914 C 0.03925 0.24843 0.24083 0.0
C915 C 0.01269 0.26794 0.26841 0.0
N916 N 0.93867 0.27395 0.28054 0.0
N917 N 0.03951 0.19809 0.16801 0.0
C918 C 0.96369 0.25118 0.25624 0.0
C919 C 0.016 0.213 0.19907 0.0
N920 N 0.89503 0.19011 0.20944 0.0
N921 N 0.08668 0.26277 0.25544 0.0
H922 H 0.02356 0.17158 0.13739 0.0
H923 H 0.07389 0.2142 0.17058 0.0
H924 H 0.10493 0.28906 0.28566 0.0
H925 H 0.10811 0.24652 0.23962 0.0
H926 H 0.87518 0.19799 0.23225 0.0
H927 H 0.87683 0.16234 0.18049 0.0
H928 H 0.90266 0.26668 0.27037 0.0
H929 H 0.95408 0.30262 0.30935 0.0
C930 C 0.80709 0.02282 0.2759 0.0
C931 C 0.78747 -0.00513 0.22957 0.0
C932 C 0.7096 0.9823 0.24113 0.0
C933 C 0.72951 0.00751 0.28835 0.0
N934 N 0.79654 0.04768 0.35286 0.0
N935 N 0.72191 0.94299 0.16893 0.0
C936 C 0.77813 0.02668 0.30641 0.0
C937 C 0.7392 0.97314 0.21239 0.0
N938 N 0.85311 0.04655 0.29021 0.0
N939 N 0.66239 0.96806 0.22365 0.0
H940 H 0.7425 0.93613 0.14651 0.0
H941 H 0.68793 0.92205 0.1562 0.0
H942 H 0.63956 0.97362 0.24387 0.0
H943 H 0.64566 0.95391 0.1885 0.0
H944 H 0.86849 0.07162 0.3218 0.0
H945 H 0.87566 0.04332 0.26917 0.0
H946 H 0.83193 0.0577 0.36919 0.0
H947 H 0.77617 0.05267 0.37592 0.0
C948 C 0.01743 0.77153 0.26077 0.0
C949 C -0.00354 0.75334 0.21245 0.0
C950 C 0.96241 0.67775 0.22282 0.0
C951 C 0.98488 0.6954 0.27089 0.0
N952 N 0.03755 0.75624 0.33589 0.0
N953 N 0.95421 0.68901 0.14572 0.0
C954 C 0.01355 0.74153 0.28999 0.0
C955 C 0.97051 0.70631 0.1929 0.0
N956 N 0.03991 0.81777 0.27869 0.0
N957 N 0.93258 0.63409 0.20613 0.0
H958 H 0.95865 0.70933 0.12283 0.0
H959 H 0.93908 0.65401 0.12883 0.0
H960 H 0.92681 0.61172 0.22691 0.0
H961 H 0.91117 0.62082 0.17244 0.0
H962 H 0.05119 0.83453 0.31401 0.0
H963 H 0.04535 0.84033 0.25802 0.0
H964 H 0.06323 0.78746 0.35088 0.0
H965 H 0.03369 0.73596 0.35889 0.0
C966 C 0.26001 0.02805 0.25606 0.0
C967 C 0.28636 0.00033 0.27476 0.0
C968 C 0.23542 0.93031 0.2163 0.0
C969 C 0.20722 0.95763 0.19974 0.0
N970 N 0.18874 0.03087 0.20558 0.0
N971 N 0.2982 0.92552 0.27675 0.0
C972 C 0.21845 0.00611 0.22006 0.0
C973 C 0.27394 0.95155 0.25587 0.0
N974 N 0.27528 0.07539 0.27223 0.0
N975 N 0.22556 0.88423 0.19384 0.0
H976 H 0.32759 0.94012 0.30484 0.0
H977 H 0.28792 0.88944 0.26822 0.0
H978 H 0.19624 0.86687 0.16625 0.0
H979 H 0.24762 0.86356 0.2006 0.0
H980 H 0.26063 0.09786 0.25681 0.0
H981 H 0.30496 0.09268 0.29939 0.0
H982 H 0.19199 0.06518 0.22238 0.0
H983 H 0.1587 0.0162 0.17825 0.0
C984 C 0.04478 0.7845 0.74571 0.0
C985 C 0.01692 0.80423 0.77144 0.0
C986 C 0.94647 0.74821 0.71871 0.0
C987 C 0.97431 0.72854 0.69287 0.0
N988 N 0.04774 0.73243 0.67503 0.0
N989 N 0.94189 0.8122 0.77835 0.0
C990 C 0.02286 0.74825 0.70422 0.0
C991 C 0.96787 0.78839 0.75656 0.0
N992 N 0.0921 0.79942 0.76184 0.0
N993 N 0.89989 0.72746 0.70804 0.0
H994 H 0.95658 0.84139 0.80674 0.0
H995 H 0.90606 0.80542 0.76629 0.0
H996 H 0.88255 0.69918 0.6793 0.0
H997 H 0.87867 0.7365 0.72895 0.0
H998 H 0.11439 0.78301 0.74772 0.0
H999 H 0.10937 0.82694 0.79132 0.0
H1000 H 0.08251 0.74811 0.67881 0.0
H1001 H 0.03253 0.70558 0.64456 0.0
C1002 C 0.19285 -0.00977 0.73851 0.0
C1003 C 0.21415 0.01617 0.78532 0.0
C1004 C 0.29056 0.03053 0.77011 0.0
C1005 C 0.26973 0.00119 0.72448 0.0
N1006 N 0.20262 0.94999 0.66527 0.0
N1007 N 0.28239 0.05884 0.84755 0.0
C1008 C 0.22122 0.98029 0.70857 0.0
C1009 C 0.26278 0.03601 0.80162 0.0
N1010 N 0.14549 0.97564 0.72273 0.0
N1011 N 0.33673 0.05359 0.78296 0.0
H1012 H 0.26281 0.06536 0.87111 0.0
H1013 H 0.31795 0.06937 0.86302 0.0
H1014 H 0.35854 0.04883 0.76139 0.0
H1015 H 0.35305 0.07949 0.8138 0.0
H1016 H 0.12753 0.96065 0.68799 0.0
H1017 H 0.12363 0.98163 0.74397 0.0
H1018 H 0.16847 0.92946 0.65338 0.0
H1019 H 0.22219 0.94295 0.64185 0.0
C1020 C 0.95534 0.22795 0.69605 0.0
C1021 C 0.98316 0.27434 0.71574 0.0
C1022 C -0.00286 0.26236 0.79326 0.0
C1023 C 0.97284 0.21494 0.77304 0.0
N1024 N 0.93252 0.15056 0.70573 0.0
N1025 N 0.03477 0.33528 0.78125 0.0
C1026 C 0.95278 0.19713 0.72455 0.0
C1027 C 0.00517 0.29154 0.76391 0.0
N1028 N 0.93059 0.2138 0.6504 0.0
N1029 N 0.0117 0.27951 0.84052 0.0
H1030 H 0.0409 0.35791 0.76078 0.0
H1031 H 0.05585 0.34811 0.81511 0.0
H1032 H 0.00672 0.25888 0.86305 0.0
H1033 H 0.02542 0.31466 0.85758 0.0
H1034 H 0.90564 0.18209 0.63525 0.0
H1035 H 0.93253 0.23515 0.62814 0.0
H1036 H 0.92209 0.13455 0.67023 0.0
H1037 H 0.92866 0.12713 0.72576 0.0
C1038 C 0.69649 0.00962 0.71068 0.0
C1039 C 0.68195 0.96058 0.69364 0.0
C1040 C 0.74718 0.95347 0.75091 0.0
C1041 C 0.76141 0.00248 0.76831 0.0
N1042 N 0.74915 0.07773 0.76903 0.0
N1043 N 0.69454 0.88538 0.69247 0.0
C1044 C 0.73609 0.03079 0.74917 0.0
C1045 C 0.70752 0.93229 0.71245 0.0
N1046 N 0.67308 0.03576 0.68896 0.0
N1047 N 0.77083 0.92734 0.77238 0.0
H1048 H 0.66483 0.86847 0.66522 0.0
H1049 H 0.71404 0.86303 0.70094 0.0
H1050 H 0.80102 0.94185 0.79957 0.0
H1051 H 0.75986 0.8914 0.76509 0.0
H1052 H 0.68426 0.07167 0.69607 0.0
H1053 H 0.64304 0.02128 0.66158 0.0
H1054 H 0.72967 0.10007 0.76048 0.0
H1055 H 0.77896 0.09468 0.79616 0.0
C1056 C 0.22994 0.28243 0.05095 0.0
C1057 C 0.25152 0.30604 0.02269 0.0
C1058 C 0.19749 0.25105 0.95237 0.0
C1059 C 0.17604 0.22728 0.98061 0.0
N1060 N 0.16449 0.22434 0.05549 0.0
N1061 N 0.25127 0.31991 0.94817 0.0
C1062 C 0.18994 0.24434 0.0296 0.0
C1063 C 0.23369 0.29262 0.97383 0.0
N1064 N 0.24868 0.29557 0.09798 0.0
N1065 N 0.1843 0.23297 0.90519 0.0
H1066 H 0.27826 0.35031 0.96297 0.0
H1067 H 0.23691 0.31469 0.9129 0.0
H1068 H 0.15676 0.20348 0.88806 0.0
H1069 H 0.20211 0.24547 0.883 0.0
H1070 H 0.23816 0.27649 0.12007 0.0
H1071 H 0.27666 0.32472 0.115 0.0
H1072 H 0.16992 0.23787 0.09099 0.0
H1073 H 0.13536 0.19589 0.0408 0.0
C1074 C 0.29438 0.76518 -0.00631 0.0
C1075 C 0.27484 0.7172 0.97157 0.0
C1076 C 0.19868 0.72969 0.94521 0.0
C1077 C 0.21708 0.77658 0.97184 0.0
N1078 N 0.28075 0.83961 0.02334 0.0
N1079 N 0.20901 0.65215 0.92842 0.0
C1080 C 0.2646 0.79469 -0.00364 0.0
C1081 C 0.22719 0.69898 0.94752 0.0
N1082 N 0.34141 0.7824 0.01152 0.0
N1083 N 0.15414 0.71484 0.91748 0.0
H1084 H 0.22918 0.6287 0.92824 0.0
H1085 H 0.17365 0.636 0.91511 0.0
H1086 H 0.13199 0.73632 0.91577 0.0
H1087 H 0.1401 0.68241 0.89353 0.0
H1088 H 0.3584 0.81765 0.02399 0.0
H1089 H 0.36415 0.76147 0.0107 0.0
H1090 H 0.31361 0.8534 0.04644 0.0
H1091 H 0.26026 0.86277 0.02466 0.0
C1092 C 0.66767 0.19896 0.98194 0.0
C1093 C 0.68957 0.24641 0.00509 0.0
C1094 C 0.76488 0.23041 0.0248 0.0
C1095 C 0.74288 0.18281 0.00233 0.0
N1096 N 0.67351 0.1197 0.96714 0.0
N1097 N 0.75595 0.3067 0.05603 0.0
C1098 C 0.69419 0.16639 0.98337 0.0
C1099 C 0.73731 0.26196 0.02895 0.0
N1100 N 0.62203 0.18545 0.95723 0.0
N1101 N 0.81221 0.24557 0.04066 0.0
H1102 H 0.73671 0.33092 0.05926 0.0
H1103 H 0.78936 0.31895 0.07816 0.0
H1104 H 0.83352 0.22322 0.03955 0.0
H1105 H 0.83073 0.28044 0.05236 0.0
H1106 H 0.60541 0.15239 0.93518 0.0
H1107 H 0.60115 0.20822 0.95647 0.0
H1108 H 0.63774 0.1052 0.95708 0.0
H1109 H 0.69222 0.09497 0.96705 0.0
C1110 C 0.76503 0.75218 0.98062 0.0
C1111 C 0.77975 0.76736 0.02967 0.0
C1112 C 0.71881 0.70379 0.0347 0.0
C1113 C 0.70423 0.68845 0.98564 0.0
N1114 N 0.71443 0.69825 0.91124 0.0
N1115 N 0.77045 0.75711 0.10408 0.0
C1116 C 0.72734 0.71248 0.95852 0.0
C1117 C 0.75679 0.7433 0.05681 0.0
N1118 N 0.78715 0.77552 0.95456 0.0
N1119 N 0.69645 0.68068 0.06073 0.0
H1120 H 0.79807 0.7858 0.12361 0.0
H1121 H 0.79807 0.7858 0.12361 0.0
H1122 H 0.66824 0.65128 0.04616 0.0
H1123 H 0.70631 0.69112 0.09696 0.0
H1124 H 0.77724 0.76515 0.91833 0.0
H1125 H 0.81505 0.8052 0.96906 0.0
H1126 H 0.68735 0.66917 0.89153 0.0
H1127 H 0.68735 0.66917 0.89153 0.0
C1128 C 0.72029 0.47604 0.74517 0.0
C1129 C 0.73532 0.4939 0.79407 0.0
C1130 C 0.81417 0.52719 0.79071 0.0
C1131 C 0.79972 0.5072 0.74208 0.0
N1132 N 0.74145 0.45864 0.67273 0.0
N1133 N 0.79613 0.53141 0.86479 0.0
C1134 C 0.75341 0.48047 0.71917 0.0
C1135 C 0.78222 0.51802 0.81733 0.0
N1136 N 0.67413 0.45594 0.72362 0.0
N1137 N 0.85804 0.5558 0.81106 0.0
H1138 H 0.77327 0.52616 0.88531 0.0
H1139 H 0.83063 0.5449 0.88406 0.0
H1140 H 0.88258 0.56248 0.79254 0.0
H1141 H 0.86939 0.57542 0.84556 0.0
H1142 H 0.66005 0.44734 0.68788 0.0
H1143 H 0.64898 0.45021 0.74163 0.0
H1144 H 0.71004 0.43401 0.6551 0.0
H1145 H 0.76408 0.463 0.65191 0.0
C1146 C 0.22486 0.50908 0.705 0.0
C1147 C 0.20721 0.46024 0.69332 0.0
C1148 C 0.26793 0.45625 0.75727 0.0
C1149 C 0.285 0.50517 0.76953 0.0
N1150 N 0.27997 0.57873 0.75398 0.0
N1151 N 0.2132 0.38655 0.70794 0.0
C1152 C 0.26387 0.53164 0.74325 0.0
C1153 C 0.22894 0.43368 0.71902 0.0
N1154 N 0.20429 0.53449 0.67972 0.0
N1155 N 0.28877 0.4308 0.78229 0.0
H1156 H 0.18479 0.36662 0.68025 0.0
H1157 H 0.18479 0.36662 0.68025 0.0
H1158 H 0.31782 0.44569 0.81072 0.0
H1159 H 0.27692 0.3947 0.77427 0.0
H1160 H 0.2164 0.57055 0.68749 0.0
H1161 H 0.17542 0.51958 0.65111 0.0
H1162 H 0.30856 0.59861 0.7815 0.0
H1163 H 0.30856 0.59861 0.7815 0.0
C1164 C 0.25687 0.53321 0.29964 0.0
C1165 C 0.21068 0.50599 0.27731 0.0
C1166 C 0.22695 0.49548 0.20154 0.0
C1167 C 0.27416 0.51882 0.22429 0.0
N1168 N 0.33583 0.55779 0.29402 0.0
N1169 N 0.15144 0.45805 0.20856 0.0
C1170 C 0.28962 0.53742 0.27311 0.0
C1171 C 0.19549 0.48642 0.22861 0.0
N1172 N 0.26905 0.55543 0.34599 0.0
N1173 N 0.21226 0.48251 0.15409 0.0
H1174 H 0.12692 0.45175 0.22715 0.0
H1175 H 0.13984 0.43832 0.1741 0.0
H1176 H 0.23459 0.48779 0.13309 0.0
H1177 H 0.17756 0.46968 0.13533 0.0
H1178 H 0.30066 0.57979 0.36342 0.0
H1179 H 0.24624 0.55181 0.3668 0.0
H1180 H 0.35032 0.56721 0.32974 0.0
H1181 H 0.36048 0.56323 0.2754 0.0
C1182 C 0.70105 0.43234 0.22843 0.0
C1183 C 0.67877 0.45944 0.20399 0.0
C1184 C 0.73381 0.53056 0.25649 0.0
C1185 C 0.75658 0.50343 0.28044 0.0
N1186 N 0.76178 0.42838 0.29022 0.0
N1187 N 0.67293 0.53452 0.19484 0.0
C1188 C 0.74012 0.45441 0.26673 0.0
C1189 C 0.69478 0.50849 0.21814 0.0
N1190 N 0.68583 0.38511 0.21602 0.0
N1191 N 0.74863 0.57782 0.26928 0.0
H1192 H 0.64387 0.52 0.16637 0.0
H1193 H 0.68395 0.57073 0.20431 0.0
H1194 H 0.77711 0.5974 0.29704 0.0
H1195 H 0.77711 0.5974 0.29704 0.0
H1196 H 0.65712 0.36556 0.18849 0.0
H1197 H 0.65712 0.36556 0.18849 0.0
H1198 H 0.75054 0.39219 0.28096 0.0
H1199 H 0.79074 0.4429 0.31879 0.0
C1200 C 0.23965 0.75428 0.47596 0.0
C1201 C 0.2545 0.76891 0.52509 0.0
C1202 C 0.19434 0.70459 0.53001 0.0
C1203 C 0.17858 0.69079 0.48091 0.0
N1204 N 0.18074 0.70504 0.40676 0.0
N1205 N 0.2432 0.76353 0.59955 0.0
C1206 C 0.19956 0.71648 0.45372 0.0
C1207 C 0.23091 0.74575 0.55237 0.0
N1208 N 0.26483 0.77566 0.45068 0.0
N1209 N 0.17516 0.67752 0.55505 0.0
H1210 H 0.27061 0.79302 0.61715 0.0
H1211 H 0.22441 0.75125 0.62115 0.0
H1212 H 0.14731 0.6479 0.53985 0.0
H1213 H 0.18841 0.68256 0.59048 0.0
H1214 H 0.25935 0.76329 0.41501 0.0
H1215 H 0.29336 0.80467 0.46578 0.0
H1216 H 0.19105 0.7254 0.38562 0.0
H1217 H 0.15239 0.67652 0.38894 0.0
C1218 C 0.25194 0.26833 0.50878 0.0
C1219 C 0.20421 0.25107 0.48485 0.0
C1220 C 0.21224 0.1724 0.46179 0.0
C1221 C 0.25932 0.1892 0.48797 0.0
N1222 N 0.32364 0.25092 0.54049 0.0
N1223 N 0.13679 0.18726 0.44305 0.0
C1224 C 0.27912 0.23659 0.51272 0.0
C1225 C 0.18369 0.20322 0.46256 0.0
N1226 N 0.27132 0.31515 0.52673 0.0
N1227 N 0.19529 0.12727 0.43538 0.0
H1228 H 0.115 0.20911 0.44153 0.0
H1229 H 0.11884 0.15225 0.43088 0.0
H1230 H 0.21478 0.10322 0.43536 0.0
H1231 H 0.16295 0.11416 0.41131 0.0
H1232 H 0.30681 0.33048 0.54016 0.0
H1233 H 0.25213 0.33937 0.52546 0.0
H1234 H 0.33851 0.28379 0.56347 0.0
H1235 H 0.34517 0.22891 0.54297 0.0
C1236 C 0.70915 0.69261 0.46527 0.0
C1237 C 0.75682 0.71121 0.48913 0.0
C1238 C 0.74665 0.78926 0.50958 0.0
C1239 C 0.69962 0.77103 0.48343 0.0
N1240 N 0.63699 0.70772 0.43085 0.0
N1241 N 0.82322 0.77692 0.52821 0.0
C1242 C 0.68107 0.72332 0.45962 0.0
C1243 C 0.77629 0.75951 0.50968 0.0
N1244 N 0.69061 0.64555 0.44913 0.0
N1245 N 0.76252 0.83466 0.53527 0.0
H1246 H 0.84592 0.75598 0.52971 0.0
H1247 H 0.84019 0.81222 0.53911 0.0
H1248 H 0.74213 0.85789 0.5349 0.0
H1249 H 0.79484 0.8487 0.55931 0.0
H1250 H 0.6552 0.62957 0.4359 0.0
H1251 H 0.71039 0.62199 0.45198 0.0
H1252 H 0.62307 0.67434 0.40867 0.0
H1253 H 0.61522 0.72926 0.42639 0.0
C1254 C 0.71692 0.23909 0.53145 0.0
C1255 C 0.7033 0.22492 0.48234 0.0
C1256 C 0.76441 0.28985 0.47988 0.0
C1257 C 0.77893 0.30314 0.52897 0.0
N1258 N 0.76783 0.29071 0.60214 0.0
N1259 N 0.71403 0.23791 0.40917 0.0
C1260 C 0.75495 0.27822 0.55485 0.0
C1261 C 0.72664 0.25049 0.45646 0.0
N1262 N 0.69373 0.21503 0.5563 0.0
N1263 N 0.787 0.31451 0.45505 0.0
H1264 H 0.68686 0.20927 0.38861 0.0
H1265 H 0.68686 0.20927 0.38861 0.0
H1266 H 0.81485 0.34408 0.47061 0.0
H1267 H 0.77738 0.30546 0.41883 0.0
H1268 H 0.70296 0.2245 0.59254 0.0
H1269 H 0.66533 0.18596 0.54077 0.0
H1270 H 0.79533 0.31912 0.62256 0.0
H1271 H 0.79533 0.31912 0.62256 0.0
C1272 C 0.54338 0.24047 0.75258 0.0
C1273 C 0.51833 0.26599 0.77716 0.0
C1274 C 0.44503 0.21586 0.72404 0.0
C1275 C 0.47008 0.19027 0.69951 0.0
N1276 N 0.54324 0.17819 0.68956 0.0
N1277 N 0.4452 0.2791 0.78609 0.0
C1278 C 0.51918 0.20267 0.71347 0.0
C1279 C 0.46925 0.25403 0.76277 0.0
N1280 N 0.5906 0.25108 0.76586 0.0
N1281 N 0.39775 0.20449 0.71152 0.0
H1282 H 0.46132 0.30781 0.81474 0.0
H1283 H 0.40902 0.27115 0.77638 0.0
H1284 H 0.37667 0.17683 0.6836 0.0
H1285 H 0.37667 0.17683 0.6836 0.0
H1286 H 0.6116 0.27807 0.79445 0.0
H1287 H 0.6116 0.27807 0.79445 0.0
H1288 H 0.57943 0.18634 0.69903 0.0
H1289 H 0.52711 0.15011 0.66029 0.0
C1290 C 0.51853 0.77225 0.75145 0.0
C1291 C 0.49458 0.74997 0.70426 0.0
C1292 C 0.4802 0.67416 0.72013 0.0
C1293 C 0.50469 0.69638 0.76716 0.0
N1294 N 0.55408 0.76406 0.82683 0.0
N1295 N 0.45935 0.6804 0.64124 0.0
C1296 C 0.52611 0.74475 0.78259 0.0
C1297 C 0.47756 0.70103 0.6878 0.0
N1298 N 0.53288 0.81967 0.76655 0.0
N1299 N 0.4583 0.62767 0.70685 0.0
H1300 H 0.45559 0.69918 0.61667 0.0
H1301 H 0.45085 0.64477 0.6264 0.0
H1302 H 0.46126 0.60645 0.72917 0.0
H1303 H 0.43517 0.61038 0.67454 0.0
H1304 H 0.54575 0.83825 0.80134 0.0
H1305 H 0.52951 0.84094 0.74435 0.0
H1306 H 0.57451 0.79825 0.83897 0.0
H1307 H 0.5597 0.74484 0.85074 0.0
C1308 C 0.52499 0.7413 0.20342 0.0
C1309 C 0.47597 0.72645 0.18776 0.0
C1310 C 0.47033 0.79014 0.24814 0.0
C1311 C 0.51923 0.80335 0.26541 0.0
N1312 N 0.59394 0.79284 0.2575 0.0
N1313 N 0.40139 0.73878 0.19406 0.0
C1314 C 0.54672 0.7798 0.24249 0.0
C1315 C 0.44859 0.75144 0.20931 0.0
N1316 N 0.5513 0.71824 0.18145 0.0
N1317 N 0.44407 0.81413 0.26917 0.0
H1318 H 0.38203 0.71079 0.16567 0.0
H1319 H 0.38203 0.71079 0.16567 0.0
H1320 H 0.45842 0.84322 0.29772 0.0
H1321 H 0.40792 0.80507 0.25751 0.0
H1322 H 0.58751 0.72804 0.19237 0.0
H1323 H 0.53695 0.68989 0.15217 0.0
H1324 H 0.61319 0.82081 0.28597 0.0
H1325 H 0.61319 0.82081 0.28597 0.0
C1326 C 0.49057 0.26743 0.29159 0.0
C1327 C 0.47406 0.21846 0.2752 0.0
C1328 C 0.44322 0.22334 0.19665 0.0
C1329 C 0.46396 0.27182 0.21207 0.0
N1330 N 0.51061 0.34054 0.27231 0.0
N1331 N 0.43854 0.14858 0.21252 0.0
C1332 C 0.48831 0.29416 0.25912 0.0
C1333 C 0.45124 0.19599 0.22782 0.0
N1334 N 0.50771 0.28824 0.3382 0.0
N1335 N 0.41525 0.20376 0.15245 0.0
H1336 H 0.44299 0.12734 0.2346 0.0
H1337 H 0.42647 0.13016 0.17763 0.0
H1338 H 0.40898 0.22294 0.12861 0.0
H1339 H 0.39527 0.16938 0.14044 0.0
H1340 H 0.51566 0.32388 0.35279 0.0
H1341 H 0.51091 0.26958 0.36292 0.0
H1342 H 0.53352 0.35775 0.30477 0.0
H1343 H 0.50851 0.3616 0.24977 0.0
loop_
_geom_bond_atom_site_label_1
_geom_bond_atom_site_label_2
_geom_bond_distance
_geom_bond_site_symmetry_2
_ccdc_geom_bond_type
C0 C1 1.388 . S
C0 N3 1.338 . S
C0 C5 1.503 . S
C1 C0 1.388 . S
C1 C2 1.396 . S
C2 C1 1.396 . S
C2 N4 1.348 . S
C2 C9 1.504 . S
N3 C0 1.338 . S
N3 N4 1.361 . S
N3 Cu168 1.924 . S
N4 C2 1.348 . S
N4 N3 1.361 . S
N4 Cu169 1.964 . S
C5 C0 1.503 . S
C5 H6 0.979 . S
C5 H7 0.979 . S
C5 H8 0.979 . S
H6 C5 0.979 . S
H7 C5 0.979 . S
H8 C5 0.979 . S
C9 C2 1.504 . S
C9 H10 0.981 . S
C9 H11 0.980 1_565 S
C9 H12 0.979 . S
H10 C9 0.981 . S
H11 C9 0.980 1_545 S
H12 C9 0.979 . S
C13 C15 1.402 . S
C13 N16 1.356 . S
C13 C21 1.481 . S
C14 C15 1.400 1_455 S
C14 N17 1.329 . S
C14 C25 1.503 . S
C15 C13 1.402 . S
C15 C14 1.400 1_655 S
N16 C13 1.356 . S
N16 N17 1.343 1_655 S
N16 Cu175 1.941 . S
N17 C14 1.329 . S
N17 N16 1.343 1_455 S
N17 Cu172 1.937 . S
H18 C21 0.980 . S
H19 C21 0.980 . S
H20 C21 0.980 . S
C21 C13 1.481 . S
C21 H18 0.980 . S
C21 H19 0.980 . S
C21 H20 0.980 . S
H22 C25 0.978 . S
H23 C25 0.978 . S
H24 C25 0.983 . S
C25 C14 1.503 . S
C25 H22 0.978 . S
C25 H23 0.978 . S
C25 H24 0.983 . S
C26 H180 0.979 . S
C26 H181 0.981 . S
C26 H182 0.981 . S
C26 O216 1.438 . S
C27 H183 0.980 . S
C27 H184 0.979 . S
C27 H185 0.980 1_554 S
C27 O217 1.533 . S
C28 N29 1.338 . S
C28 C31 1.388 . S
C28 C36 1.503 . S
N29 C28 1.338 . S
N29 N30 1.361 . S
N29 Cu170 1.924 . S
N30 N29 1.361 . S
N30 C32 1.348 . S
N30 Cu171 1.964 . S
C31 C28 1.388 . S
C31 C32 1.396 . S
C32 N30 1.348 . S
C32 C31 1.396 . S
C32 C40 1.504 . S
H33 C36 0.979 . S
H34 C36 0.979 . S
H35 C36 0.979 . S
C36 C28 1.503 . S
C36 H33 0.979 . S
C36 H34 0.979 . S
C36 H35 0.979 . S
H37 C40 0.981 . S
H38 C40 0.980 1_455 S
H39 C40 0.979 . S
C40 C32 1.504 . S
C40 H37 0.981 . S
C40 H38 0.980 1_655 S
C40 H39 0.979 . S
C41 N43 1.356 . S
C41 C45 1.402 . S
C41 C49 1.481 . S
C42 N44 1.329 . S
C42 C45 1.400 1_554 S
C42 C50 1.503 . S
N43 C41 1.356 . S
N43 N44 1.343 1_556 S
N43 Cu177 1.941 . S
N44 C42 1.329 . S
N44 N43 1.343 1_554 S
N44 Cu168 1.937 . S
C45 C41 1.402 . S
C45 C42 1.400 1_556 S
H46 C49 0.980 . S
H47 C49 0.980 . S
H48 C49 0.980 . S
C49 C41 1.481 . S
C49 H46 0.980 . S
C49 H47 0.980 . S
C49 H48 0.980 . S
C50 C42 1.503 . S
C50 H51 0.978 . S
C50 H52 0.978 . S
C50 H53 0.983 . S
H51 C50 0.978 . S
H52 C50 0.978 . S
H53 C50 0.983 . S
C54 H186 0.979 . S
C54 H187 0.981 . S
C54 H188 0.981 . S
C54 O218 1.438 . S
C55 H189 0.980 . S
C55 H190 0.979 . S
C55 H191 0.980 1_545 S
C55 O219 1.533 . S
C56 N57 1.338 . S
C56 C58 1.388 . S
C56 C64 1.503 . S
N57 C56 1.338 . S
N57 N59 1.361 . S
N57 Cu172 1.924 . S
C58 C56 1.388 . S
C58 C60 1.396 . S
N59 N57 1.361 . S
N59 C60 1.348 . S
N59 Cu173 1.964 . S
C60 C58 1.396 . S
C60 N59 1.348 . S
C60 C66 1.504 . S
H61 C64 0.979 . S
H62 C64 0.979 . S
H63 C64 0.979 . S
C64 C56 1.503 . S
C64 H61 0.979 . S
C64 H62 0.979 . S
C64 H63 0.979 . S
H65 C66 0.981 . S
C66 C60 1.504 . S
C66 H65 0.981 . S
C66 H67 0.979 . S
C66 H68 0.980 1_556 S
H67 C66 0.979 . S
H68 C66 0.980 1_554 S
C69 N71 1.356 . S
C69 C73 1.402 . S
C69 C75 1.481 . S
C70 N72 1.329 . S
C70 C73 1.400 1_545 S
C70 C80 1.503 . S
N71 C69 1.356 . S
N71 N72 1.343 1_565 S
N71 Cu179 1.941 . S
N72 C70 1.329 . S
N72 N71 1.343 1_545 S
N72 Cu170 1.937 . S
C73 C69 1.402 . S
C73 C70 1.400 1_565 S
H74 C75 0.980 . S
C75 C69 1.481 . S
C75 H74 0.980 . S
C75 H76 0.980 . S
C75 H77 0.980 . S
H76 C75 0.980 . S
H77 C75 0.980 . S
H78 C80 0.978 . S
H79 C80 0.978 . S
C80 C70 1.503 . S
C80 H78 0.978 . S
C80 H79 0.978 . S
C80 H81 0.983 . S
H81 C80 0.983 . S
C82 H192 0.979 . S
C82 H193 0.981 . S
C82 H194 0.981 . S
C82 O220 1.438 . S
C83 H195 0.980 . S
C83 H196 0.979 . S
C83 H197 0.980 1_455 S
C83 O221 1.533 . S
C84 N85 1.338 . S
C84 C86 1.388 . S
C84 C89 1.503 . S
N85 C84 1.338 . S
N85 N88 1.361 . S
N85 Cu174 1.924 . S
C86 C84 1.388 . S
C86 C87 1.396 . S
C87 C86 1.396 . S
C87 N88 1.348 . S
C87 C93 1.504 . S
N88 N85 1.361 . S
N88 C87 1.348 . S
N88 Cu175 1.964 . S
C89 C84 1.503 . S
C89 H90 0.979 . S
C89 H91 0.979 . S
C89 H92 0.979 . S
H90 C89 0.979 . S
H91 C89 0.979 . S
H92 C89 0.979 . S
C93 C87 1.504 . S
C93 H94 0.981 . S
C93 H95 0.980 1_545 S
C93 H96 0.979 . S
H94 C93 0.981 . S
H95 C93 0.980 1_565 S
H96 C93 0.979 . S
C97 C98 1.402 . S
C97 N100 1.356 . S
C97 C105 1.481 . S
C98 C97 1.402 . S
C98 C99 1.400 1_455 S
C99 C98 1.400 1_655 S
C99 N101 1.328 . S
C99 C106 1.503 . S
N100 C97 1.356 . S
N100 N101 1.349 1_455 S
N100 Cu169 1.941 . S
N101 C99 1.328 . S
N101 N100 1.349 1_655 S
N101 Cu178 1.933 . S
H102 C105 0.980 . S
H103 C105 0.980 . S
H104 C105 0.980 . S
C105 C97 1.481 . S
C105 H102 0.980 . S
C105 H103 0.980 . S
C105 H104 0.980 . S
C106 C99 1.503 . S
C106 H107 0.978 . S
C106 H108 0.978 . S
C106 H109 0.983 . S
H107 C106 0.978 . S
H108 C106 0.978 . S
H109 C106 0.983 . S
C110 H198 0.979 . S
C110 H199 0.981 . S
C110 H200 0.981 . S
C110 O222 1.438 . S
C111 H201 0.980 . S
C111 H202 0.979 . S
C111 H203 0.980 1_556 S
C111 O223 1.533 . S
C112 C113 1.388 . S
C112 N115 1.338 . S
C112 C117 1.503 . S
C113 C112 1.388 . S
C113 C114 1.396 . S
C114 C113 1.396 . S
C114 N116 1.348 . S
C114 C121 1.504 . S
N115 C112 1.338 . S
N115 N116 1.361 . S
N115 Cu176 1.924 . S
N116 C114 1.348 . S
N116 N115 1.361 . S
N116 Cu177 1.964 . S
C117 C112 1.503 . S
C117 H118 0.979 . S
C117 H119 0.979 . S
C117 H120 0.979 . S
H118 C117 0.979 . S
H119 C117 0.979 . S
H120 C117 0.979 . S
C121 C114 1.504 . S
C121 H122 0.981 . S
C121 H123 0.980 1_455 S
C121 H124 0.979 . S
H122 C121 0.981 . S
H123 C121 0.980 1_655 S
H124 C121 0.979 . S
C125 C126 1.402 . S
C125 N128 1.356 . S
C125 C130 1.481 . S
C126 C125 1.402 . S
C126 C127 1.400 1_554 S
C127 C126 1.400 1_556 S
C127 N129 1.328 . S
C127 C134 1.503 . S
N128 C125 1.356 . S
N128 N129 1.349 1_554 S
N128 Cu171 1.941 . S
N129 C127 1.328 . S
N129 N128 1.349 1_556 S
N129 Cu174 1.933 . S
C130 C125 1.481 . S
C130 H131 0.980 . S
C130 H132 0.980 . S
C130 H133 0.980 . S
H131 C130 0.980 . S
H132 C130 0.980 . S
H133 C130 0.980 . S
C134 C127 1.503 . S
C134 H135 0.978 . S
C134 H136 0.978 . S
C134 H137 0.983 . S
H135 C134 0.978 . S
H136 C134 0.978 . S
H137 C134 0.983 . S
C138 H204 0.979 . S
C138 H205 0.981 . S
C138 H206 0.981 . S
C138 O224 1.438 . S
C139 H207 0.980 . S
C139 H208 0.979 . S
C139 H209 0.980 1_565 S
C139 O225 1.533 . S
C140 N141 1.338 . S
C140 C143 1.388 . S
C140 C148 1.503 . S
N141 C140 1.338 . S
N141 N142 1.361 . S
N141 Cu178 1.924 . S
N142 N141 1.361 . S
N142 C144 1.348 . S
N142 Cu179 1.964 . S
C143 C140 1.388 . S
C143 C144 1.396 . S
C144 N142 1.348 . S
C144 C143 1.396 . S
C144 C152 1.504 . S
H145 C148 0.979 . S
H146 C148 0.979 . S
H147 C148 0.979 . S
C148 C140 1.503 . S
C148 H145 0.979 . S
C148 H146 0.979 . S
C148 H147 0.979 . S
H149 C152 0.981 . S
H150 C152 0.980 1_556 S
H151 C152 0.979 . S
C152 C144 1.504 . S
C152 H149 0.981 . S
C152 H150 0.980 1_554 S
C152 H151 0.979 . S
C153 N154 1.356 . S
C153 C156 1.402 . S
C153 C158 1.481 . S
N154 C153 1.356 . S
N154 N155 1.349 1_545 S
N154 Cu173 1.941 . S
N155 N154 1.349 1_565 S
N155 C157 1.328 . S
N155 Cu176 1.933 . S
C156 C153 1.402 . S
C156 C157 1.400 1_545 S
C157 N155 1.328 . S
C157 C156 1.400 1_565 S
C157 C162 1.503 . S
C158 C153 1.481 . S
C158 H159 0.980 . S
C158 H160 0.980 . S
C158 H161 0.980 . S
H159 C158 0.980 . S
H160 C158 0.980 . S
H161 C158 0.980 . S
C162 C157 1.503 . S
C162 H163 0.978 . S
C162 H164 0.978 . S
C162 H165 0.983 . S
H163 C162 0.978 . S
H164 C162 0.978 . S
H165 C162 0.983 . S
C166 H210 0.979 . S
C166 H211 0.981 . S
C166 H212 0.981 . S
C166 O226 1.438 . S
C167 H213 0.980 . S
C167 H214 0.979 . S
C167 H215 0.980 1_655 S
C167 O227 1.533 . S
Cu168 N3 1.924 . S
Cu168 N44 1.937 . S
Cu168 O216 1.923 . S
Cu168 O217 1.930 . S
Cu169 N4 1.964 . S
Cu169 N100 1.941 . S
Cu169 O216 1.905 . S
Cu169 O227 1.920 1_455 S
Cu170 N29 1.924 . S
Cu170 N72 1.937 . S
Cu170 O218 1.923 . S
Cu170 O219 1.930 . S
Cu171 N30 1.964 . S
Cu171 N128 1.941 . S
Cu171 O218 1.905 . S
Cu171 O223 1.920 1_554 S
Cu172 N17 1.937 . S
Cu172 N57 1.924 . S
Cu172 O220 1.923 . S
Cu172 O221 1.930 . S
Cu173 N59 1.964 . S
Cu173 N154 1.941 . S
Cu173 O220 1.905 . S
Cu173 O225 1.920 1_545 S
Cu174 N85 1.924 . S
Cu174 N129 1.933 . S
Cu174 O222 1.923 . S
Cu174 O223 1.930 . S
Cu175 N16 1.941 . S
Cu175 N88 1.964 . S
Cu175 O221 1.920 1_655 S
Cu175 O222 1.905 . S
Cu176 N115 1.924 . S
Cu176 N155 1.933 . S
Cu176 O224 1.923 . S
Cu176 O225 1.930 . S
Cu177 N43 1.941 . S
Cu177 N116 1.964 . S
Cu177 O217 1.920 1_556 S
Cu177 O224 1.905 . S
Cu178 N101 1.933 . S
Cu178 N141 1.924 . S
Cu178 O226 1.923 . S
Cu178 O227 1.930 . S
Cu179 N71 1.941 . S
Cu179 N142 1.964 . S
Cu179 O219 1.920 1_565 S
Cu179 O226 1.905 . S
H180 C26 0.979 . S
H181 C26 0.981 . S
H182 C26 0.981 . S
H183 C27 0.980 . S
H184 C27 0.979 . S
H185 C27 0.980 1_556 S
H186 C54 0.979 . S
H187 C54 0.981 . S
H188 C54 0.981 . S
H189 C55 0.980 . S
H190 C55 0.979 . S
H191 C55 0.980 1_565 S
H192 C82 0.979 . S
H193 C82 0.981 . S
H194 C82 0.981 . S
H195 C83 0.980 . S
H196 C83 0.979 . S
H197 C83 0.980 1_655 S
H198 C110 0.979 . S
H199 C110 0.981 . S
H200 C110 0.981 . S
H201 C111 0.980 . S
H202 C111 0.979 . S
H203 C111 0.980 1_554 S
H204 C138 0.979 . S
H205 C138 0.981 . S
H206 C138 0.981 . S
H207 C139 0.980 . S
H208 C139 0.979 . S
H209 C139 0.980 1_545 S
H210 C166 0.979 . S
H211 C166 0.981 . S
H212 C166 0.981 . S
H213 C167 0.980 . S
H214 C167 0.979 . S
H215 C167 0.980 1_455 S
O216 C26 1.438 . S
O216 Cu168 1.923 . S
O216 Cu169 1.905 . S
O217 C27 1.533 . S
O217 Cu168 1.930 . S
O217 Cu177 1.920 1_554 S
O218 C54 1.438 . S
O218 Cu170 1.923 . S
O218 Cu171 1.905 . S
O219 C55 1.533 . S
O219 Cu170 1.930 . S
O219 Cu179 1.920 1_545 S
O220 C82 1.438 . S
O220 Cu172 1.923 . S
O220 Cu173 1.905 . S
O221 C83 1.533 . S
O221 Cu172 1.930 . S
O221 Cu175 1.920 1_455 S
O222 C110 1.438 . S
O222 Cu174 1.923 . S
O222 Cu175 1.905 . S
O223 C111 1.533 . S
O223 Cu171 1.920 1_556 S
O223 Cu174 1.930 . S
O224 C138 1.438 . S
O224 Cu176 1.923 . S
O224 Cu177 1.905 . S
O225 C139 1.533 . S
O225 Cu173 1.920 1_565 S
O225 Cu176 1.930 . S
O226 C166 1.438 . S
O226 Cu178 1.923 . S
O226 Cu179 1.905 . S
O227 C167 1.533 . S
O227 Cu169 1.920 1_655 S
O227 Cu178 1.930 . S
C228 C229 1.388 . S
C228 N231 1.338 . S
C228 C233 1.503 . S
C229 C228 1.388 . S
C229 C230 1.396 . S
C230 C229 1.396 . S
C230 N232 1.348 . S
C230 C237 1.504 . S
N231 C228 1.338 . S
N231 N232 1.361 . S
N231 Cu396 1.924 . S
N232 C230 1.348 . S
N232 N231 1.361 . S
N232 Cu397 1.964 . S
C233 C228 1.503 . S
C233 H234 0.979 . S
C233 H235 0.979 . S
C233 H236 0.979 . S
H234 C233 0.979 . S
H235 C233 0.979 . S
H236 C233 0.979 . S
C237 C230 1.504 . S
C237 H238 0.981 . S
C237 H239 0.980 . S
C237 H240 0.979 . S
H238 C237 0.981 . S
H239 C237 0.980 . S
H240 C237 0.979 . S
C241 C243 1.402 . S
C241 N244 1.356 . S
C241 C249 1.481 . S
C242 C243 1.400 1_455 S
C242 N245 1.329 . S
C242 C253 1.503 . S
C243 C241 1.402 . S
C243 C242 1.400 1_655 S
N244 C241 1.356 . S
N244 N245 1.343 1_655 S
N244 Cu403 1.941 . S
N245 C242 1.329 . S
N245 N244 1.343 1_455 S
N245 Cu400 1.937 . S
H246 C249 0.980 . S
H247 C249 0.980 . S
H248 C249 0.980 . S
C249 C241 1.481 . S
C249 H246 0.980 . S
C249 H247 0.980 . S
C249 H248 0.980 . S
H250 C253 0.978 . S
H251 C253 0.978 . S
H252 C253 0.983 . S
C253 C242 1.503 . S
C253 H250 0.978 . S
C253 H251 0.978 . S
C253 H252 0.983 . S
C254 H408 0.979 . S
C254 H409 0.981 . S
C254 H410 0.981 . S
C254 O444 1.438 . S
C255 H411 0.980 . S
C255 H412 0.979 . S
C255 H413 0.980 . S
C255 O445 1.533 . S
C256 N257 1.338 . S
C256 C259 1.388 . S
C256 C264 1.503 . S
N257 C256 1.338 . S
N257 N258 1.361 . S
N257 Cu398 1.924 . S
N258 N257 1.361 . S
N258 C260 1.348 . S
N258 Cu399 1.964 . S
C259 C256 1.388 . S
C259 C260 1.396 . S
C260 N258 1.348 . S
C260 C259 1.396 . S
C260 C268 1.504 . S
H261 C264 0.979 . S
H262 C264 0.979 . S
H263 C264 0.979 . S
C264 C256 1.503 . S
C264 H261 0.979 . S
C264 H262 0.979 . S
C264 H263 0.979 . S
H265 C268 0.981 . S
H266 C268 0.980 1_455 S
H267 C268 0.979 . S
C268 C260 1.504 . S
C268 H265 0.981 . S
C268 H266 0.980 1_655 S
C268 H267 0.979 . S
C269 N271 1.356 . S
C269 C273 1.402 . S
C269 C277 1.481 . S
C270 N272 1.325 . S
C270 C273 1.400 . S
C270 C278 1.503 . S
N271 C269 1.356 . S
N271 N272 1.365 . S
N271 Cu405 1.941 . S
N272 C270 1.325 . S
N272 N271 1.365 . S
N272 Cu396 1.924 . S
C273 C269 1.402 . S
C273 C270 1.400 . S
H274 C277 0.980 . S
H275 C277 0.980 . S
H276 C277 0.980 . S
C277 C269 1.481 . S
C277 H274 0.980 . S
C277 H275 0.980 . S
C277 H276 0.980 . S
C278 C270 1.503 . S
C278 H279 0.978 . S
C278 H280 0.978 . S
C278 H281 0.983 . S
H279 C278 0.978 . S
H280 C278 0.978 . S
H281 C278 0.983 . S
C282 H414 0.979 . S
C282 H415 0.981 . S
C282 H416 0.981 . S
C282 O446 1.438 . S
C283 H417 0.980 . S
C283 H418 0.979 . S
C283 H419 0.980 . S
C283 O447 1.533 . S
C284 N285 1.338 . S
C284 C286 1.388 . S
C284 C292 1.503 . S
N285 C284 1.338 . S
N285 N287 1.361 . S
N285 Cu400 1.924 . S
C286 C284 1.388 . S
C286 C288 1.396 . S
N287 N285 1.361 . S
N287 C288 1.348 . S
N287 Cu401 1.964 . S
C288 C286 1.396 . S
C288 N287 1.348 . S
C288 C294 1.504 . S
H289 C292 0.979 . S
H290 C292 0.979 . S
H291 C292 0.979 . S
C292 C284 1.503 . S
C292 H289 0.979 . S
C292 H290 0.979 . S
C292 H291 0.979 . S
H293 C294 0.981 . S
C294 C288 1.504 . S
C294 H293 0.981 . S
C294 H295 0.979 . S
C294 H296 0.980 . S
H295 C294 0.979 . S
H296 C294 0.980 . S
C297 N299 1.356 . S
C297 C301 1.402 . S
C297 C303 1.481 . S
C298 N300 1.325 . S
C298 C301 1.400 . S
C298 C308 1.503 . S
N299 C297 1.356 . S
N299 N300 1.365 . S
N299 Cu407 1.941 . S
N300 C298 1.325 . S
N300 N299 1.365 . S
N300 Cu398 1.924 . S
C301 C297 1.402 . S
C301 C298 1.400 . S
H302 C303 0.980 . S
C303 C297 1.481 . S
C303 H302 0.980 . S
C303 H304 0.980 . S
C303 H305 0.980 . S
H304 C303 0.980 . S
H305 C303 0.980 . S
H306 C308 0.978 . S
H307 C308 0.978 . S
C308 C298 1.503 . S
C308 H306 0.978 . S
C308 H307 0.978 . S
C308 H309 0.983 . S
H309 C308 0.983 . S
C310 H420 0.979 . S
C310 H421 0.981 . S
C310 H422 0.981 . S
C310 O448 1.438 . S
C311 H423 0.980 . S
C311 H424 0.979 . S
C311 H425 0.980 1_455 S
C311 O449 1.533 . S
C312 N313 1.338 . S
C312 C314 1.388 . S
C312 C317 1.503 . S
N313 C312 1.338 . S
N313 N316 1.361 . S
N313 Cu402 1.924 . S
C314 C312 1.388 . S
C314 C315 1.396 . S
C315 C314 1.396 . S
C315 N316 1.348 . S
C315 C321 1.504 . S
N316 N313 1.361 . S
N316 C315 1.348 . S
N316 Cu403 1.964 . S
C317 C312 1.503 . S
C317 H318 0.979 . S
C317 H319 0.979 . S
C317 H320 0.979 . S
H318 C317 0.979 . S
H319 C317 0.979 . S
H320 C317 0.979 . S
C321 C315 1.504 . S
C321 H322 0.981 . S
C321 H323 0.980 . S
C321 H324 0.979 . S
H322 C321 0.981 . S
H323 C321 0.980 . S
H324 C321 0.979 . S
C325 C326 1.402 . S
C325 N328 1.356 . S
C325 C333 1.481 . S
C326 C325 1.402 . S
C326 C327 1.400 1_455 S
C327 C326 1.400 1_655 S
C327 N329 1.328 . S
C327 C334 1.503 . S
N328 C325 1.356 . S
N328 N329 1.349 1_455 S
N328 Cu397 1.941 . S
N329 C327 1.328 . S
N329 N328 1.349 1_655 S
N329 Cu406 1.933 . S
H330 C333 0.980 . S
H331 C333 0.980 . S
H332 C333 0.980 . S
C333 C325 1.481 . S
C333 H330 0.980 . S
C333 H331 0.980 . S
C333 H332 0.980 . S
C334 C327 1.503 . S
C334 H335 0.978 . S
C334 H336 0.978 . S
C334 H337 0.983 . S
H335 C334 0.978 . S
H336 C334 0.978 . S
H337 C334 0.983 . S
C338 H426 0.979 . S
C338 H427 0.981 . S
C338 H428 0.981 . S
C338 O450 1.438 . S
C339 H429 0.980 . S
C339 H430 0.979 . S
C339 H431 0.980 . S
C339 O451 1.533 . S
C340 C341 1.388 . S
C340 N343 1.338 . S
C340 C345 1.503 . S
C341 C340 1.388 . S
C341 C342 1.396 . S
C342 C341 1.396 . S
C342 N344 1.348 . S
C342 C349 1.504 . S
N343 C340 1.338 . S
N343 N344 1.361 . S
N343 Cu404 1.924 . S
N344 C342 1.348 . S
N344 N343 1.361 . S
N344 Cu405 1.964 . S
C345 C340 1.503 . S
C345 H346 0.979 . S
C345 H347 0.979 . S
C345 H348 0.979 . S
H346 C345 0.979 . S
H347 C345 0.979 . S
H348 C345 0.979 . S
C349 C342 1.504 . S
C349 H350 0.981 . S
C349 H351 0.980 1_455 S
C349 H352 0.979 . S
H350 C349 0.981 . S
H351 C349 0.980 1_655 S
H352 C349 0.979 . S
C353 C354 1.402 . S
C353 N356 1.356 . S
C353 C358 1.481 . S
C354 C353 1.402 . S
C354 C355 1.400 . S
C355 C354 1.400 . S
C355 N357 1.325 . S
C355 C362 1.503 . S
N356 C353 1.356 . S
N356 N357 1.365 . S
N356 Cu399 1.941 . S
N357 C355 1.325 . S
N357 N356 1.365 . S
N357 Cu402 1.924 . S
C358 C353 1.481 . S
C358 H359 0.980 . S
C358 H360 0.980 . S
C358 H361 0.980 . S
H359 C358 0.980 . S
H360 C358 0.980 . S
H361 C358 0.980 . S
C362 C355 1.503 . S
C362 H363 0.978 . S
C362 H364 0.978 . S
C362 H365 0.983 . S
H363 C362 0.978 . S
H364 C362 0.978 . S
H365 C362 0.983 . S
C366 H432 0.979 . S
C366 H433 0.981 . S
C366 H434 0.981 . S
C366 O452 1.438 . S
C367 H435 0.980 . S
C367 H436 0.979 . S
C367 H437 0.980 . S
C367 O453 1.533 . S
C368 N369 1.338 . S
C368 C371 1.388 . S
C368 C376 1.503 . S
N369 C368 1.338 . S
N369 N370 1.361 . S
N369 Cu406 1.924 . S
N370 N369 1.361 . S
N370 C372 1.348 . S
N370 Cu407 1.964 . S
C371 C368 1.388 . S
C371 C372 1.396 . S
C372 N370 1.348 . S
C372 C371 1.396 . S
C372 C380 1.504 . S
H373 C376 0.979 . S
H374 C376 0.979 . S
H375 C376 0.979 . S
C376 C368 1.503 . S
C376 H373 0.979 . S
C376 H374 0.979 . S
C376 H375 0.979 . S
H377 C380 0.981 . S
H378 C380 0.980 . S
H379 C380 0.979 . S
C380 C372 1.504 . S
C380 H377 0.981 . S
C380 H378 0.980 . S
C380 H379 0.979 . S
C381 N382 1.356 . S
C381 C384 1.402 . S
C381 C386 1.481 . S
N382 C381 1.356 . S
N382 N383 1.365 . S
N382 Cu401 1.941 . S
N383 N382 1.365 . S
N383 C385 1.325 . S
N383 Cu404 1.924 . S
C384 C381 1.402 . S
C384 C385 1.400 . S
C385 N383 1.325 . S
C385 C384 1.400 . S
C385 C390 1.503 . S
C386 C381 1.481 . S
C386 H387 0.980 . S
C386 H388 0.980 . S
C386 H389 0.980 . S
H387 C386 0.980 . S
H388 C386 0.980 . S
H389 C386 0.980 . S
C390 C385 1.503 . S
C390 H391 0.978 . S
C390 H392 0.978 . S
C390 H393 0.983 . S
H391 C390 0.978 . S
H392 C390 0.978 . S
H393 C390 0.983 . S
C394 H438 0.979 . S
C394 H439 0.981 . S
C394 H440 0.981 . S
C394 O454 1.438 . S
C395 H441 0.980 . S
C395 H442 0.979 . S
C395 H443 0.980 1_655 S
C395 O455 1.533 . S
Cu396 N231 1.924 . S
Cu396 N272 1.924 . S
Cu396 O444 1.923 . S
Cu396 O445 1.930 . S
Cu397 N232 1.964 . S
Cu397 N328 1.941 . S
Cu397 O444 1.905 . S
Cu397 O455 1.920 1_455 S
Cu398 N257 1.924 . S
Cu398 N300 1.924 . S
Cu398 O446 1.923 . S
Cu398 O447 1.930 . S
Cu399 N258 1.964 . S
Cu399 N356 1.941 . S
Cu399 O446 1.905 . S
Cu399 O451 1.920 . S
Cu400 N245 1.937 . S
Cu400 N285 1.924 . S
Cu400 O448 1.923 . S
Cu400 O449 1.930 . S
Cu401 N287 1.964 . S
Cu401 N382 1.941 . S
Cu401 O448 1.905 . S
Cu401 O453 1.920 . S
Cu402 N313 1.924 . S
Cu402 N357 1.924 . S
Cu402 O450 1.923 . S
Cu402 O451 1.930 . S
Cu403 N244 1.941 . S
Cu403 N316 1.964 . S
Cu403 O449 1.920 1_655 S
Cu403 O450 1.905 . S
Cu404 N343 1.924 . S
Cu404 N383 1.924 . S
Cu404 O452 1.923 . S
Cu404 O453 1.930 . S
Cu405 N271 1.941 . S
Cu405 N344 1.964 . S
Cu405 O445 1.920 . S
Cu405 O452 1.905 . S
Cu406 N329 1.933 . S
Cu406 N369 1.924 . S
Cu406 O454 1.923 . S
Cu406 O455 1.930 . S
Cu407 N299 1.941 . S
Cu407 N370 1.964 . S
Cu407 O447 1.920 . S
Cu407 O454 1.905 . S
H408 C254 0.979 . S
H409 C254 0.981 . S
H410 C254 0.981 . S
H411 C255 0.980 . S
H412 C255 0.979 . S
H413 C255 0.980 . S
H414 C282 0.979 . S
H415 C282 0.981 . S
H416 C282 0.981 . S
H417 C283 0.980 . S
H418 C283 0.979 . S
H419 C283 0.980 . S
H420 C310 0.979 . S
H421 C310 0.981 . S
H422 C310 0.981 . S
H423 C311 0.980 . S
H424 C311 0.979 . S
H425 C311 0.980 1_655 S
H426 C338 0.979 . S
H427 C338 0.981 . S
H428 C338 0.981 . S
H429 C339 0.980 . S
H430 C339 0.979 . S
H431 C339 0.980 . S
H432 C366 0.979 . S
H433 C366 0.981 . S
H434 C366 0.981 . S
H435 C367 0.980 . S
H436 C367 0.979 . S
H437 C367 0.980 . S
H438 C394 0.979 . S
H439 C394 0.981 . S
H440 C394 0.981 . S
H441 C395 0.980 . S
H442 C395 0.979 . S
H443 C395 0.980 1_455 S
O444 C254 1.438 . S
O444 Cu396 1.923 . S
O444 Cu397 1.905 . S
O445 C255 1.533 . S
O445 Cu396 1.930 . S
O445 Cu405 1.920 . S
O446 C282 1.438 . S
O446 Cu398 1.923 . S
O446 Cu399 1.905 . S
O447 C283 1.533 . S
O447 Cu398 1.930 . S
O447 Cu407 1.920 . S
O448 C310 1.438 . S
O448 Cu400 1.923 . S
O448 Cu401 1.905 . S
O449 C311 1.533 . S
O449 Cu400 1.930 . S
O449 Cu403 1.920 1_455 S
O450 C338 1.438 . S
O450 Cu402 1.923 . S
O450 Cu403 1.905 . S
O451 C339 1.533 . S
O451 Cu399 1.920 . S
O451 Cu402 1.930 . S
O452 C366 1.438 . S
O452 Cu404 1.923 . S
O452 Cu405 1.905 . S
O453 C367 1.533 . S
O453 Cu401 1.920 . S
O453 Cu404 1.930 . S
O454 C394 1.438 . S
O454 Cu406 1.923 . S
O454 Cu407 1.905 . S
O455 C395 1.533 . S
O455 Cu397 1.920 1_655 S
O455 Cu406 1.930 . S
C456 C457 1.388 . S
C456 N459 1.338 . S
C456 C461 1.503 . S
C457 C456 1.388 . S
C457 C458 1.396 . S
C458 C457 1.396 . S
C458 N460 1.348 . S
C458 C465 1.504 . S
N459 C456 1.338 . S
N459 N460 1.361 . S
N459 Cu624 1.924 . S
N460 C458 1.348 . S
N460 N459 1.361 . S
N460 Cu625 1.964 . S
C461 C456 1.503 . S
C461 H462 0.979 . S
C461 H463 0.979 . S
C461 H464 0.979 . S
H462 C461 0.979 . S
H463 C461 0.979 . S
H464 C461 0.979 . S
C465 C458 1.504 . S
C465 H466 0.981 . S
C465 H467 0.980 1_565 S
C465 H468 0.979 . S
H466 C465 0.981 . S
H467 C465 0.980 1_545 S
H468 C465 0.979 . S
C469 C471 1.402 . S
C469 N472 1.356 . S
C469 C477 1.481 . S
C470 C471 1.400 . S
C470 N473 1.325 . S
C470 C481 1.503 . S
C471 C469 1.402 . S
C471 C470 1.400 . S
N472 C469 1.356 . S
N472 N473 1.365 . S
N472 Cu631 1.941 . S
N473 C470 1.325 . S
N473 N472 1.365 . S
N473 Cu628 1.924 . S
H474 C477 0.980 . S
H475 C477 0.980 . S
H476 C477 0.980 . S
C477 C469 1.481 . S
C477 H474 0.980 . S
C477 H475 0.980 . S
C477 H476 0.980 . S
H478 C481 0.978 . S
H479 C481 0.978 . S
H480 C481 0.983 . S
C481 C470 1.503 . S
C481 H478 0.978 . S
C481 H479 0.978 . S
C481 H480 0.983 . S
C482 H636 0.979 . S
C482 H637 0.981 . S
C482 H638 0.981 . S
C482 O672 1.438 . S
C483 H639 0.980 . S
C483 H640 0.979 . S
C483 H641 0.980 . S
C483 O673 1.533 . S
C484 N485 1.338 . S
C484 C487 1.388 . S
C484 C492 1.503 . S
N485 C484 1.338 . S
N485 N486 1.361 . S
N485 Cu626 1.924 . S
N486 N485 1.361 . S
N486 C488 1.348 . S
N486 Cu627 1.964 . S
C487 C484 1.388 . S
C487 C488 1.396 . S
C488 N486 1.348 . S
C488 C487 1.396 . S
C488 C496 1.504 . S
H489 C492 0.979 . S
H490 C492 0.979 . S
H491 C492 0.979 . S
C492 C484 1.503 . S
C492 H489 0.979 . S
C492 H490 0.979 . S
C492 H491 0.979 . S
H493 C496 0.981 . S
H494 C496 0.980 . S
H495 C496 0.979 . S
C496 C488 1.504 . S
C496 H493 0.981 . S
C496 H494 0.980 . S
C496 H495 0.979 . S
C497 N499 1.356 . S
C497 C501 1.402 . S
C497 C505 1.481 . S
C498 N500 1.325 . S
C498 C501 1.400 . S
C498 C506 1.503 . S
N499 C497 1.356 . S
N499 N500 1.365 . S
N499 Cu633 1.941 . S
N500 C498 1.325 . S
N500 N499 1.365 . S
N500 Cu624 1.924 . S
C501 C497 1.402 . S
C501 C498 1.400 . S
H502 C505 0.980 . S
H503 C505 0.980 . S
H504 C505 0.980 . S
C505 C497 1.481 . S
C505 H502 0.980 . S
C505 H503 0.980 . S
C505 H504 0.980 . S
C506 C498 1.503 . S
C506 H507 0.978 . S
C506 H508 0.978 . S
C506 H509 0.983 . S
H507 C506 0.978 . S
H508 C506 0.978 . S
H509 C506 0.983 . S
C510 H642 0.979 . S
C510 H643 0.981 . S
C510 H644 0.981 . S
C510 O674 1.438 . S
C511 H645 0.980 . S
C511 H646 0.979 . S
C511 H647 0.980 1_545 S
C511 O675 1.533 . S
C512 N513 1.338 . S
C512 C514 1.388 . S
C512 C520 1.503 . S
N513 C512 1.338 . S
N513 N515 1.361 . S
N513 Cu628 1.924 . S
C514 C512 1.388 . S
C514 C516 1.396 . S
N515 N513 1.361 . S
N515 C516 1.348 . S
N515 Cu629 1.964 . S
C516 C514 1.396 . S
C516 N515 1.348 . S
C516 C522 1.504 . S
H517 C520 0.979 . S
H518 C520 0.979 . S
H519 C520 0.979 . S
C520 C512 1.503 . S
C520 H517 0.979 . S
C520 H518 0.979 . S
C520 H519 0.979 . S
H521 C522 0.981 . S
C522 C516 1.504 . S
C522 H521 0.981 . S
C522 H523 0.979 . S
C522 H524 0.980 . S
H523 C522 0.979 . S
H524 C522 0.980 . S
C525 N527 1.356 . S
C525 C529 1.402 . S
C525 C531 1.481 . S
C526 N528 1.329 . S
C526 C529 1.400 1_545 S
C526 C536 1.503 . S
N527 C525 1.356 . S
N527 N528 1.343 1_565 S
N527 Cu635 1.941 . S
N528 C526 1.329 . S
N528 N527 1.343 1_545 S
N528 Cu626 1.937 . S
C529 C525 1.402 . S
C529 C526 1.400 1_565 S
H530 C531 0.980 . S
C531 C525 1.481 . S
C531 H530 0.980 . S
C531 H532 0.980 . S
C531 H533 0.980 . S
H532 C531 0.980 . S
H533 C531 0.980 . S
H534 C536 0.978 . S
H535 C536 0.978 . S
C536 C526 1.503 . S
C536 H534 0.978 . S
C536 H535 0.978 . S
C536 H537 0.983 . S
H537 C536 0.983 . S
C538 H648 0.979 . S
C538 H649 0.981 . S
C538 H650 0.981 . S
C538 O676 1.438 . S
C539 H651 0.980 . S
C539 H652 0.979 . S
C539 H653 0.980 . S
C539 O677 1.533 . S
C540 N541 1.338 . S
C540 C542 1.388 . S
C540 C545 1.503 . S
N541 C540 1.338 . S
N541 N544 1.361 . S
N541 Cu630 1.924 . S
C542 C540 1.388 . S
C542 C543 1.396 . S
C543 C542 1.396 . S
C543 N544 1.348 . S
C543 C549 1.504 . S
N544 N541 1.361 . S
N544 C543 1.348 . S
N544 Cu631 1.964 . S
C545 C540 1.503 . S
C545 H546 0.979 . S
C545 H547 0.979 . S
C545 H548 0.979 . S
H546 C545 0.979 . S
H547 C545 0.979 . S
H548 C545 0.979 . S
C549 C543 1.504 . S
C549 H550 0.981 . S
C549 H551 0.980 1_545 S
C549 H552 0.979 . S
H550 C549 0.981 . S
H551 C549 0.980 1_565 S
H552 C549 0.979 . S
C553 C554 1.402 . S
C553 N556 1.356 . S
C553 C561 1.481 . S
C554 C553 1.402 . S
C554 C555 1.400 . S
C555 C554 1.400 . S
C555 N557 1.325 . S
C555 C562 1.503 . S
N556 C553 1.356 . S
N556 N557 1.365 . S
N556 Cu625 1.941 . S
N557 C555 1.325 . S
N557 N556 1.365 . S
N557 Cu634 1.924 . S
H558 C561 0.980 . S
H559 C561 0.980 . S
H560 C561 0.980 . S
C561 C553 1.481 . S
C561 H558 0.980 . S
C561 H559 0.980 . S
C561 H560 0.980 . S
C562 C555 1.503 . S
C562 H563 0.978 . S
C562 H564 0.978 . S
C562 H565 0.983 . S
H563 C562 0.978 . S
H564 C562 0.978 . S
H565 C562 0.983 . S
C566 H654 0.979 . S
C566 H655 0.981 . S
C566 H656 0.981 . S
C566 O678 1.438 . S
C567 H657 0.980 . S
C567 H658 0.979 . S
C567 H659 0.980 . S
C567 O679 1.533 . S
C568 C569 1.388 . S
C568 N571 1.338 . S
C568 C573 1.503 . S
C569 C568 1.388 . S
C569 C570 1.396 . S
C570 C569 1.396 . S
C570 N572 1.348 . S
C570 C577 1.504 . S
N571 C568 1.338 . S
N571 N572 1.361 . S
N571 Cu632 1.924 . S
N572 C570 1.348 . S
N572 N571 1.361 . S
N572 Cu633 1.964 . S
C573 C568 1.503 . S
C573 H574 0.979 . S
C573 H575 0.979 . S
C573 H576 0.979 . S
H574 C573 0.979 . S
H575 C573 0.979 . S
H576 C573 0.979 . S
C577 C570 1.504 . S
C577 H578 0.981 . S
C577 H579 0.980 . S
C577 H580 0.979 . S
H578 C577 0.981 . S
H579 C577 0.980 . S
H580 C577 0.979 . S
C581 C582 1.402 . S
C581 N584 1.356 . S
C581 C586 1.481 . S
C582 C581 1.402 . S
C582 C583 1.400 . S
C583 C582 1.400 . S
C583 N585 1.325 . S
C583 C590 1.503 . S
N584 C581 1.356 . S
N584 N585 1.365 . S
N584 Cu627 1.941 . S
N585 C583 1.325 . S
N585 N584 1.365 . S
N585 Cu630 1.924 . S
C586 C581 1.481 . S
C586 H587 0.980 . S
C586 H588 0.980 . S
C586 H589 0.980 . S
H587 C586 0.980 . S
H588 C586 0.980 . S
H589 C586 0.980 . S
C590 C583 1.503 . S
C590 H591 0.978 . S
C590 H592 0.978 . S
C590 H593 0.983 . S
H591 C590 0.978 . S
H592 C590 0.978 . S
H593 C590 0.983 . S
C594 H660 0.979 . S
C594 H661 0.981 . S
C594 H662 0.981 . S
C594 O680 1.438 . S
C595 H663 0.980 . S
C595 H664 0.979 . S
C595 H665 0.980 1_565 S
C595 O681 1.533 . S
C596 N597 1.338 . S
C596 C599 1.388 . S
C596 C604 1.503 . S
N597 C596 1.338 . S
N597 N598 1.361 . S
N597 Cu634 1.924 . S
N598 N597 1.361 . S
N598 C600 1.348 . S
N598 Cu635 1.964 . S
C599 C596 1.388 . S
C599 C600 1.396 . S
C600 N598 1.348 . S
C600 C599 1.396 . S
C600 C608 1.504 . S
H601 C604 0.979 . S
H602 C604 0.979 . S
H603 C604 0.979 . S
C604 C596 1.503 . S
C604 H601 0.979 . S
C604 H602 0.979 . S
C604 H603 0.979 . S
H605 C608 0.981 . S
H606 C608 0.980 . S
H607 C608 0.979 . S
C608 C600 1.504 . S
C608 H605 0.981 . S
C608 H606 0.980 . S
C608 H607 0.979 . S
C609 N610 1.356 . S
C609 C612 1.402 . S
C609 C614 1.481 . S
N610 C609 1.356 . S
N610 N611 1.349 1_545 S
N610 Cu629 1.941 . S
N611 N610 1.349 1_565 S
N611 C613 1.328 . S
N611 Cu632 1.933 . S
C612 C609 1.402 . S
C612 C613 1.400 1_545 S
C613 N611 1.328 . S
C613 C612 1.400 1_565 S
C613 C618 1.503 . S
C614 C609 1.481 . S
C614 H615 0.980 . S
C614 H616 0.980 . S
C614 H617 0.980 . S
H615 C614 0.980 . S
H616 C614 0.980 . S
H617 C614 0.980 . S
C618 C613 1.503 . S
C618 H619 0.978 . S
C618 H620 0.978 . S
C618 H621 0.983 . S
H619 C618 0.978 . S
H620 C618 0.978 . S
H621 C618 0.983 . S
C622 H666 0.979 . S
C622 H667 0.981 . S
C622 H668 0.981 . S
C622 O682 1.438 . S
C623 H669 0.980 . S
C623 H670 0.979 . S
C623 H671 0.980 . S
C623 O683 1.533 . S
Cu624 N459 1.924 . S
Cu624 N500 1.924 . S
Cu624 O672 1.923 . S
Cu624 O673 1.930 . S
Cu625 N460 1.964 . S
Cu625 N556 1.941 . S
Cu625 O672 1.905 . S
Cu625 O683 1.920 . S
Cu626 N485 1.924 . S
Cu626 N528 1.937 . S
Cu626 O674 1.923 . S
Cu626 O675 1.930 . S
Cu627 N486 1.964 . S
Cu627 N584 1.941 . S
Cu627 O674 1.905 . S
Cu627 O679 1.920 . S
Cu628 N473 1.924 . S
Cu628 N513 1.924 . S
Cu628 O676 1.923 . S
Cu628 O677 1.930 . S
Cu629 N515 1.964 . S
Cu629 N610 1.941 . S
Cu629 O676 1.905 . S
Cu629 O681 1.920 1_545 S
Cu630 N541 1.924 . S
Cu630 N585 1.924 . S
Cu630 O678 1.923 . S
Cu630 O679 1.930 . S
Cu631 N472 1.941 . S
Cu631 N544 1.964 . S
Cu631 O677 1.920 . S
Cu631 O678 1.905 . S
Cu632 N571 1.924 . S
Cu632 N611 1.933 . S
Cu632 O680 1.923 . S
Cu632 O681 1.930 . S
Cu633 N499 1.941 . S
Cu633 N572 1.964 . S
Cu633 O673 1.920 . S
Cu633 O680 1.905 . S
Cu634 N557 1.924 . S
Cu634 N597 1.924 . S
Cu634 O682 1.923 . S
Cu634 O683 1.930 . S
Cu635 N527 1.941 . S
Cu635 N598 1.964 . S
Cu635 O675 1.920 1_565 S
Cu635 O682 1.905 . S
H636 C482 0.979 . S
H637 C482 0.981 . S
H638 C482 0.981 . S
H639 C483 0.980 . S
H640 C483 0.979 . S
H641 C483 0.980 . S
H642 C510 0.979 . S
H643 C510 0.981 . S
H644 C510 0.981 . S
H645 C511 0.980 . S
H646 C511 0.979 . S
H647 C511 0.980 1_565 S
H648 C538 0.979 . S
H649 C538 0.981 . S
H650 C538 0.981 . S
H651 C539 0.980 . S
H652 C539 0.979 . S
H653 C539 0.980 . S
H654 C566 0.979 . S
H655 C566 0.981 . S
H656 C566 0.981 . S
H657 C567 0.980 . S
H658 C567 0.979 . S
H659 C567 0.980 . S
H660 C594 0.979 . S
H661 C594 0.981 . S
H662 C594 0.981 . S
H663 C595 0.980 . S
H664 C595 0.979 . S
H665 C595 0.980 1_545 S
H666 C622 0.979 . S
H667 C622 0.981 . S
H668 C622 0.981 . S
H669 C623 0.980 . S
H670 C623 0.979 . S
H671 C623 0.980 . S
O672 C482 1.438 . S
O672 Cu624 1.923 . S
O672 Cu625 1.905 . S
O673 C483 1.533 . S
O673 Cu624 1.930 . S
O673 Cu633 1.920 . S
O674 C510 1.438 . S
O674 Cu626 1.923 . S
O674 Cu627 1.905 . S
O675 C511 1.533 . S
O675 Cu626 1.930 . S
O675 Cu635 1.920 1_545 S
O676 C538 1.438 . S
O676 Cu628 1.923 . S
O676 Cu629 1.905 . S
O677 C539 1.533 . S
O677 Cu628 1.930 . S
O677 Cu631 1.920 . S
O678 C566 1.438 . S
O678 Cu630 1.923 . S
O678 Cu631 1.905 . S
O679 C567 1.533 . S
O679 Cu627 1.920 . S
O679 Cu630 1.930 . S
O680 C594 1.438 . S
O680 Cu632 1.923 . S
O680 Cu633 1.905 . S
O681 C595 1.533 . S
O681 Cu629 1.920 1_565 S
O681 Cu632 1.930 . S
O682 C622 1.438 . S
O682 Cu634 1.923 . S
O682 Cu635 1.905 . S
O683 C623 1.533 . S
O683 Cu625 1.920 . S
O683 Cu634 1.930 . S
C684 C685 1.388 . S
C684 N687 1.338 . S
C684 C689 1.503 . S
C685 C684 1.388 . S
C685 C686 1.396 . S
C686 C685 1.396 . S
C686 N688 1.348 . S
C686 C693 1.504 . S
N687 C684 1.338 . S
N687 N688 1.361 . S
N687 Cu852 1.924 . S
N688 C686 1.348 . S
N688 N687 1.361 . S
N688 Cu853 1.964 . S
C689 C684 1.503 . S
C689 H690 0.979 . S
C689 H691 0.979 . S
C689 H692 0.979 . S
H690 C689 0.979 . S
H691 C689 0.979 . S
H692 C689 0.979 . S
C693 C686 1.504 . S
C693 H694 0.981 . S
C693 H695 0.980 . S
C693 H696 0.979 . S
H694 C693 0.981 . S
H695 C693 0.980 . S
H696 C693 0.979 . S
C697 C699 1.402 . S
C697 N700 1.356 . S
C697 C705 1.481 . S
C698 C699 1.400 . S
C698 N701 1.325 . S
C698 C709 1.503 . S
C699 C697 1.402 . S
C699 C698 1.400 . S
N700 C697 1.356 . S
N700 N701 1.365 . S
N700 Cu859 1.941 . S
N701 C698 1.325 . S
N701 N700 1.365 . S
N701 Cu856 1.924 . S
H702 C705 0.980 . S
H703 C705 0.980 . S
H704 C705 0.980 . S
C705 C697 1.481 . S
C705 H702 0.980 . S
C705 H703 0.980 . S
C705 H704 0.980 . S
H706 C709 0.978 . S
H707 C709 0.978 . S
H708 C709 0.983 . S
C709 C698 1.503 . S
C709 H706 0.978 . S
C709 H707 0.978 . S
C709 H708 0.983 . S
C710 H864 0.979 . S
C710 H865 0.981 . S
C710 H866 0.981 . S
C710 O900 1.438 . S
C711 H867 0.980 . S
C711 H868 0.979 . S
C711 H869 0.980 1_554 S
C711 O901 1.533 . S
C712 N713 1.338 . S
C712 C715 1.388 . S
C712 C720 1.503 . S
N713 C712 1.338 . S
N713 N714 1.361 . S
N713 Cu854 1.924 . S
N714 N713 1.361 . S
N714 C716 1.348 . S
N714 Cu855 1.964 . S
C715 C712 1.388 . S
C715 C716 1.396 . S
C716 N714 1.348 . S
C716 C715 1.396 . S
C716 C724 1.504 . S
H717 C720 0.979 . S
H718 C720 0.979 . S
H719 C720 0.979 . S
C720 C712 1.503 . S
C720 H717 0.979 . S
C720 H718 0.979 . S
C720 H719 0.979 . S
H721 C724 0.981 . S
H722 C724 0.980 . S
H723 C724 0.979 . S
C724 C716 1.504 . S
C724 H721 0.981 . S
C724 H722 0.980 . S
C724 H723 0.979 . S
C725 N727 1.356 . S
C725 C729 1.402 . S
C725 C733 1.481 . S
C726 N728 1.329 . S
C726 C729 1.400 1_554 S
C726 C734 1.503 . S
N727 C725 1.356 . S
N727 N728 1.343 1_556 S
N727 Cu861 1.941 . S
N728 C726 1.329 . S
N728 N727 1.343 1_554 S
N728 Cu852 1.937 . S
C729 C725 1.402 . S
C729 C726 1.400 1_556 S
H730 C733 0.980 . S
H731 C733 0.980 . S
H732 C733 0.980 . S
C733 C725 1.481 . S
C733 H730 0.980 . S
C733 H731 0.980 . S
C733 H732 0.980 . S
C734 C726 1.503 . S
C734 H735 0.978 . S
C734 H736 0.978 . S
C734 H737 0.983 . S
H735 C734 0.978 . S
H736 C734 0.978 . S
H737 C734 0.983 . S
C738 H870 0.979 . S
C738 H871 0.981 . S
C738 H872 0.981 . S
C738 O902 1.438 . S
C739 H873 0.980 . S
C739 H874 0.979 . S
C739 H875 0.980 . S
C739 O903 1.533 . S
C740 N741 1.338 . S
C740 C742 1.388 . S
C740 C748 1.503 . S
N741 C740 1.338 . S
N741 N743 1.361 . S
N741 Cu856 1.924 . S
C742 C740 1.388 . S
C742 C744 1.396 . S
N743 N741 1.361 . S
N743 C744 1.348 . S
N743 Cu857 1.964 . S
C744 C742 1.396 . S
C744 N743 1.348 . S
C744 C750 1.504 . S
H745 C748 0.979 . S
H746 C748 0.979 . S
H747 C748 0.979 . S
C748 C740 1.503 . S
C748 H745 0.979 . S
C748 H746 0.979 . S
C748 H747 0.979 . S
H749 C750 0.981 . S
C750 C744 1.504 . S
C750 H749 0.981 . S
C750 H751 0.979 . S
C750 H752 0.980 1_556 S
H751 C750 0.979 . S
H752 C750 0.980 1_554 S
C753 N755 1.356 . S
C753 C757 1.402 . S
C753 C759 1.481 . S
C754 N756 1.325 . S
C754 C757 1.400 . S
C754 C764 1.503 . S
N755 C753 1.356 . S
N755 N756 1.365 . S
N755 Cu863 1.941 . S
N756 C754 1.325 . S
N756 N755 1.365 . S
N756 Cu854 1.924 . S
C757 C753 1.402 . S
C757 C754 1.400 . S
H758 C759 0.980 . S
C759 C753 1.481 . S
C759 H758 0.980 . S
C759 H760 0.980 . S
C759 H761 0.980 . S
H760 C759 0.980 . S
H761 C759 0.980 . S
H762 C764 0.978 . S
H763 C764 0.978 . S
C764 C754 1.503 . S
C764 H762 0.978 . S
C764 H763 0.978 . S
C764 H765 0.983 . S
H765 C764 0.983 . S
C766 H876 0.979 . S
C766 H877 0.981 . S
C766 H878 0.981 . S
C766 O904 1.438 . S
C767 H879 0.980 . S
C767 H880 0.979 . S
C767 H881 0.980 . S
C767 O905 1.533 . S
C768 N769 1.338 . S
C768 C770 1.388 . S
C768 C773 1.503 . S
N769 C768 1.338 . S
N769 N772 1.361 . S
N769 Cu858 1.924 . S
C770 C768 1.388 . S
C770 C771 1.396 . S
C771 C770 1.396 . S
C771 N772 1.348 . S
C771 C777 1.504 . S
N772 N769 1.361 . S
N772 C771 1.348 . S
N772 Cu859 1.964 . S
C773 C768 1.503 . S
C773 H774 0.979 . S
C773 H775 0.979 . S
C773 H776 0.979 . S
H774 C773 0.979 . S
H775 C773 0.979 . S
H776 C773 0.979 . S
C777 C771 1.504 . S
C777 H778 0.981 . S
C777 H779 0.980 . S
C777 H780 0.979 . S
H778 C777 0.981 . S
H779 C777 0.980 . S
H780 C777 0.979 . S
C781 C782 1.402 . S
C781 N784 1.356 . S
C781 C789 1.481 . S
C782 C781 1.402 . S
C782 C783 1.400 . S
C783 C782 1.400 . S
C783 N785 1.325 . S
C783 C790 1.503 . S
N784 C781 1.356 . S
N784 N785 1.365 . S
N784 Cu853 1.941 . S
N785 C783 1.325 . S
N785 N784 1.365 . S
N785 Cu862 1.924 . S
H786 C789 0.980 . S
H787 C789 0.980 . S
H788 C789 0.980 . S
C789 C781 1.481 . S
C789 H786 0.980 . S
C789 H787 0.980 . S
C789 H788 0.980 . S
C790 C783 1.503 . S
C790 H791 0.978 . S
C790 H792 0.978 . S
C790 H793 0.983 . S
H791 C790 0.978 . S
H792 C790 0.978 . S
H793 C790 0.983 . S
C794 H882 0.979 . S
C794 H883 0.981 . S
C794 H884 0.981 . S
C794 O906 1.438 . S
C795 H885 0.980 . S
C795 H886 0.979 . S
C795 H887 0.980 1_556 S
C795 O907 1.533 . S
C796 C797 1.388 . S
C796 N799 1.338 . S
C796 C801 1.503 . S
C797 C796 1.388 . S
C797 C798 1.396 . S
C798 C797 1.396 . S
C798 N800 1.348 . S
C798 C805 1.504 . S
N799 C796 1.338 . S
N799 N800 1.361 . S
N799 Cu860 1.924 . S
N800 C798 1.348 . S
N800 N799 1.361 . S
N800 Cu861 1.964 . S
C801 C796 1.503 . S
C801 H802 0.979 . S
C801 H803 0.979 . S
C801 H804 0.979 . S
H802 C801 0.979 . S
H803 C801 0.979 . S
H804 C801 0.979 . S
C805 C798 1.504 . S
C805 H806 0.981 . S
C805 H807 0.980 . S
C805 H808 0.979 . S
H806 C805 0.981 . S
H807 C805 0.980 . S
H808 C805 0.979 . S
C809 C810 1.402 . S
C809 N812 1.356 . S
C809 C814 1.481 . S
C810 C809 1.402 . S
C810 C811 1.400 1_554 S
C811 C810 1.400 1_556 S
C811 N813 1.328 . S
C811 C818 1.503 . S
N812 C809 1.356 . S
N812 N813 1.349 1_554 S
N812 Cu855 1.941 . S
N813 C811 1.328 . S
N813 N812 1.349 1_556 S
N813 Cu858 1.933 . S
C814 C809 1.481 . S
C814 H815 0.980 . S
C814 H816 0.980 . S
C814 H817 0.980 . S
H815 C814 0.980 . S
H816 C814 0.980 . S
H817 C814 0.980 . S
C818 C811 1.503 . S
C818 H819 0.978 . S
C818 H820 0.978 . S
C818 H821 0.983 . S
H819 C818 0.978 . S
H820 C818 0.978 . S
H821 C818 0.983 . S
C822 H888 0.979 . S
C822 H889 0.981 . S
C822 H890 0.981 . S
C822 O908 1.438 . S
C823 H891 0.980 . S
C823 H892 0.979 . S
C823 H893 0.980 . S
C823 O909 1.533 . S
C824 N825 1.338 . S
C824 C827 1.388 . S
C824 C832 1.503 . S
N825 C824 1.338 . S
N825 N826 1.361 . S
N825 Cu862 1.924 . S
N826 N825 1.361 . S
N826 C828 1.348 . S
N826 Cu863 1.964 . S
C827 C824 1.388 . S
C827 C828 1.396 . S
C828 N826 1.348 . S
C828 C827 1.396 . S
C828 C836 1.504 . S
H829 C832 0.979 . S
H830 C832 0.979 . S
H831 C832 0.979 . S
C832 C824 1.503 . S
C832 H829 0.979 . S
C832 H830 0.979 . S
C832 H831 0.979 . S
H833 C836 0.981 . S
H834 C836 0.980 1_556 S
H835 C836 0.979 . S
C836 C828 1.504 . S
C836 H833 0.981 . S
C836 H834 0.980 1_554 S
C836 H835 0.979 . S
C837 N838 1.356 . S
C837 C840 1.402 . S
C837 C842 1.481 . S
N838 C837 1.356 . S
N838 N839 1.365 . S
N838 Cu857 1.941 . S
N839 N838 1.365 . S
N839 C841 1.325 . S
N839 Cu860 1.924 . S
C840 C837 1.402 . S
C840 C841 1.400 . S
C841 N839 1.325 . S
C841 C840 1.400 . S
C841 C846 1.503 . S
C842 C837 1.481 . S
C842 H843 0.980 . S
C842 H844 0.980 . S
C842 H845 0.980 . S
H843 C842 0.980 . S
H844 C842 0.980 . S
H845 C842 0.980 . S
C846 C841 1.503 . S
C846 H847 0.978 . S
C846 H848 0.978 . S
C846 H849 0.983 . S
H847 C846 0.978 . S
H848 C846 0.978 . S
H849 C846 0.983 . S
C850 H894 0.979 . S
C850 H895 0.981 . S
C850 H896 0.981 . S
C850 O910 1.438 . S
C851 H897 0.980 . S
C851 H898 0.979 . S
C851 H899 0.980 . S
C851 O911 1.533 . S
Cu852 N687 1.924 . S
Cu852 N728 1.937 . S
Cu852 O900 1.923 . S
Cu852 O901 1.930 . S
Cu853 N688 1.964 . S
Cu853 N784 1.941 . S
Cu853 O900 1.905 . S
Cu853 O911 1.920 . S
Cu854 N713 1.924 . S
Cu854 N756 1.924 . S
Cu854 O902 1.923 . S
Cu854 O903 1.930 . S
Cu855 N714 1.964 . S
Cu855 N812 1.941 . S
Cu855 O902 1.905 . S
Cu855 O907 1.920 1_554 S
Cu856 N701 1.924 . S
Cu856 N741 1.924 . S
Cu856 O904 1.923 . S
Cu856 O905 1.930 . S
Cu857 N743 1.964 . S
Cu857 N838 1.941 . S
Cu857 O904 1.905 . S
Cu857 O909 1.920 . S
Cu858 N769 1.924 . S
Cu858 N813 1.933 . S
Cu858 O906 1.923 . S
Cu858 O907 1.930 . S
Cu859 N700 1.941 . S
Cu859 N772 1.964 . S
Cu859 O905 1.920 . S
Cu859 O906 1.905 . S
Cu860 N799 1.924 . S
Cu860 N839 1.924 . S
Cu860 O908 1.923 . S
Cu860 O909 1.930 . S
Cu861 N727 1.941 . S
Cu861 N800 1.964 . S
Cu861 O901 1.920 1_556 S
Cu861 O908 1.905 . S
Cu862 N785 1.924 . S
Cu862 N825 1.924 . S
Cu862 O910 1.923 . S
Cu862 O911 1.930 . S
Cu863 N755 1.941 . S
Cu863 N826 1.964 . S
Cu863 O903 1.920 . S
Cu863 O910 1.905 . S
H864 C710 0.979 . S
H865 C710 0.981 . S
H866 C710 0.981 . S
H867 C711 0.980 . S
H868 C711 0.979 . S
H869 C711 0.980 1_556 S
H870 C738 0.979 . S
H871 C738 0.981 . S
H872 C738 0.981 . S
H873 C739 0.980 . S
H874 C739 0.979 . S
H875 C739 0.980 . S
H876 C766 0.979 . S
H877 C766 0.981 . S
H878 C766 0.981 . S
H879 C767 0.980 . S
H880 C767 0.979 . S
H881 C767 0.980 . S
H882 C794 0.979 . S
H883 C794 0.981 . S
H884 C794 0.981 . S
H885 C795 0.980 . S
H886 C795 0.979 . S
H887 C795 0.980 1_554 S
H888 C822 0.979 . S
H889 C822 0.981 . S
H890 C822 0.981 . S
H891 C823 0.980 . S
H892 C823 0.979 . S
H893 C823 0.980 . S
H894 C850 0.979 . S
H895 C850 0.981 . S
H896 C850 0.981 . S
H897 C851 0.980 . S
H898 C851 0.979 . S
H899 C851 0.980 . S
O900 C710 1.438 . S
O900 Cu852 1.923 . S
O900 Cu853 1.905 . S
O901 C711 1.533 . S
O901 Cu852 1.930 . S
O901 Cu861 1.920 1_554 S
O902 C738 1.438 . S
O902 Cu854 1.923 . S
O902 Cu855 1.905 . S
O903 C739 1.533 . S
O903 Cu854 1.930 . S
O903 Cu863 1.920 . S
O904 C766 1.438 . S
O904 Cu856 1.923 . S
O904 Cu857 1.905 . S
O905 C767 1.533 . S
O905 Cu856 1.930 . S
O905 Cu859 1.920 . S
O906 C794 1.438 . S
O906 Cu858 1.923 . S
O906 Cu859 1.905 . S
O907 C795 1.533 . S
O907 Cu855 1.920 1_556 S
O907 Cu858 1.930 . S
O908 C822 1.438 . S
O908 Cu860 1.923 . S
O908 Cu861 1.905 . S
O909 C823 1.533 . S
O909 Cu857 1.920 . S
O909 Cu860 1.930 . S
O910 C850 1.438 . S
O910 Cu862 1.923 . S
O910 Cu863 1.905 . S
O911 C851 1.533 . S
O911 Cu853 1.920 . S
O911 Cu862 1.930 . S
C912 C913 1.363 1_655 S
C912 C918 1.379 . S
C912 N920 1.356 . S
C913 C912 1.363 1_455 S
C913 C919 1.363 . S
C914 C915 1.363 1_455 S
C914 C919 1.379 . S
C914 N921 1.356 . S
C915 C914 1.363 1_655 S
C915 C918 1.363 . S
N916 C918 1.356 . S
N916 H928 0.984 . S
N916 H929 0.985 . S
N917 C919 1.356 . S
N917 H922 0.984 . S
N917 H923 0.985 . S
C918 C912 1.379 . S
C918 C915 1.363 . S
C918 N916 1.356 . S
C919 C913 1.363 . S
C919 C914 1.379 . S
C919 N917 1.356 . S
N920 C912 1.356 . S
N920 H926 0.984 . S
N920 H927 0.984 . S
N921 C914 1.356 . S
N921 H924 0.984 . S
N921 H925 0.985 . S
H922 N917 0.984 . S
H923 N917 0.985 . S
H924 N921 0.984 . S
H925 N921 0.985 . S
H926 N920 0.984 . S
H927 N920 0.984 . S
H928 N916 0.984 . S
H929 N916 0.985 . S
C930 C931 1.363 1_545 S
C930 C936 1.379 . S
C930 N938 1.356 . S
C931 C930 1.363 1_565 S
C931 C937 1.363 . S
C932 C933 1.363 1_565 S
C932 C937 1.379 . S
C932 N939 1.356 . S
C933 C932 1.363 1_545 S
C933 C936 1.363 . S
N934 C936 1.356 . S
N934 H946 0.984 . S
N934 H947 0.985 . S
N935 C937 1.356 . S
N935 H940 0.984 . S
N935 H941 0.985 . S
C936 C930 1.379 . S
C936 C933 1.363 . S
C936 N934 1.356 . S
C937 C931 1.363 . S
C937 C932 1.379 . S
C937 N935 1.356 . S
N938 C930 1.356 . S
N938 H944 0.984 . S
N938 H945 0.984 1_545 S
N939 C932 1.356 . S
N939 H942 0.984 1_565 S
N939 H943 0.985 . S
H940 N935 0.984 . S
H941 N935 0.985 . S
H942 N939 0.984 1_545 S
H943 N939 0.985 . S
H944 N938 0.984 . S
H945 N938 0.984 1_565 S
H946 N934 0.984 . S
H947 N934 0.985 . S
C948 C949 1.363 . S
C948 C954 1.379 . S
C948 N956 1.356 . S
C949 C948 1.363 . S
C949 C955 1.363 1_455 S
C950 C951 1.363 . S
C950 C955 1.379 . S
C950 N957 1.356 . S
C951 C950 1.363 . S
C951 C954 1.363 1_655 S
N952 C954 1.356 . S
N952 H964 0.984 . S
N952 H965 0.985 1_455 S
N953 C955 1.356 . S
N953 H958 0.984 1_655 S
N953 H959 0.985 . S
C954 C948 1.379 . S
C954 C951 1.363 1_455 S
C954 N952 1.356 . S
C955 C949 1.363 1_655 S
C955 C950 1.379 . S
C955 N953 1.356 . S
N956 C948 1.356 . S
N956 H962 0.984 . S
N956 H963 0.984 . S
N957 C950 1.356 . S
N957 H960 0.984 . S
N957 H961 0.985 . S
H958 N953 0.984 1_455 S
H959 N953 0.985 . S
H960 N957 0.984 . S
H961 N957 0.985 . S
H962 N956 0.984 . S
H963 N956 0.984 . S
H964 N952 0.984 . S
H965 N952 0.985 1_655 S
C966 C967 1.363 1_545 S
C966 C972 1.379 . S
C966 N974 1.356 . S
C967 C966 1.363 1_565 S
C967 C973 1.363 . S
C968 C969 1.363 1_565 S
C968 C973 1.379 . S
C968 N975 1.356 . S
C969 C968 1.363 1_545 S
C969 C972 1.363 . S
N970 C972 1.356 . S
N970 H982 0.984 . S
N970 H983 0.985 . S
N971 C973 1.356 . S
N971 H976 0.984 . S
N971 H977 0.985 . S
C972 C966 1.379 . S
C972 C969 1.363 . S
C972 N970 1.356 . S
C973 C967 1.363 . S
C973 C968 1.379 . S
C973 N971 1.356 . S
N974 C966 1.356 . S
N974 H980 0.984 . S
N974 H981 0.984 . S
N975 C968 1.356 . S
N975 H978 0.984 . S
N975 H979 0.985 . S
H976 N971 0.984 . S
H977 N971 0.985 . S
H978 N975 0.984 . S
H979 N975 0.985 . S
H980 N974 0.984 . S
H981 N974 0.984 . S
H982 N970 0.984 . S
H983 N970 0.985 . S
C984 C985 1.363 1_455 S
C984 C990 1.379 . S
C984 N992 1.356 . S
C985 C984 1.363 1_655 S
C985 C991 1.363 . S
C986 C987 1.363 1_655 S
C986 C991 1.379 . S
C986 N993 1.356 . S
C987 C986 1.363 1_455 S
C987 C990 1.363 . S
N988 C990 1.356 . S
N988 H1000 0.984 . S
N988 H1001 0.985 . S
N989 C991 1.356 . S
N989 H994 0.984 . S
N989 H995 0.985 . S
C990 C984 1.379 . S
C990 C987 1.363 . S
C990 N988 1.356 . S
C991 C985 1.363 . S
C991 C986 1.379 . S
C991 N989 1.356 . S
N992 C984 1.356 . S
N992 H998 0.984 . S
N992 H999 0.984 . S
N993 C986 1.356 . S
N993 H996 0.984 . S
N993 H997 0.985 . S
H994 N989 0.984 . S
H995 N989 0.985 . S
H996 N993 0.984 . S
H997 N993 0.985 . S
H998 N992 0.984 . S
H999 N992 0.984 . S
H1000 N988 0.984 . S
H1001 N988 0.985 . S
C1002 C1003 1.363 . S
C1002 C1008 1.379 . S
C1002 N1010 1.356 . S
C1003 C1002 1.363 . S
C1003 C1009 1.363 1_545 S
C1004 C1005 1.363 . S
C1004 C1009 1.379 . S
C1004 N1011 1.356 . S
C1005 C1004 1.363 . S
C1005 C1008 1.363 1_565 S
N1006 C1008 1.356 . S
N1006 H1018 0.984 . S
N1006 H1019 0.985 1_545 S
N1007 C1009 1.356 . S
N1007 H1012 0.984 1_565 S
N1007 H1013 0.985 . S
C1008 C1002 1.379 . S
C1008 C1005 1.363 1_545 S
C1008 N1006 1.356 . S
C1009 C1003 1.363 1_565 S
C1009 C1004 1.379 . S
C1009 N1007 1.356 . S
N1010 C1002 1.356 . S
N1010 H1016 0.984 . S
N1010 H1017 0.984 . S
N1011 C1004 1.356 . S
N1011 H1014 0.984 . S
N1011 H1015 0.985 . S
H1012 N1007 0.984 1_545 S
H1013 N1007 0.985 . S
H1014 N1011 0.984 . S
H1015 N1011 0.985 . S
H1016 N1010 0.984 . S
H1017 N1010 0.984 . S
H1018 N1006 0.984 . S
H1019 N1006 0.985 1_565 S
C1020 C1021 1.363 1_655 S
C1020 C1026 1.379 . S
C1020 N1028 1.356 . S
C1021 C1020 1.363 1_455 S
C1021 C1027 1.363 . S
C1022 C1023 1.363 1_455 S
C1022 C1027 1.379 . S
C1022 N1029 1.356 . S
C1023 C1022 1.363 1_655 S
C1023 C1026 1.363 . S
N1024 C1026 1.356 . S
N1024 H1036 0.984 . S
N1024 H1037 0.985 . S
N1025 C1027 1.356 . S
N1025 H1030 0.984 . S
N1025 H1031 0.985 . S
C1026 C1020 1.379 . S
C1026 C1023 1.363 . S
C1026 N1024 1.356 . S
C1027 C1021 1.363 . S
C1027 C1022 1.379 . S
C1027 N1025 1.356 . S
N1028 C1020 1.356 . S
N1028 H1034 0.984 . S
N1028 H1035 0.984 1_655 S
N1029 C1022 1.356 . S
N1029 H1032 0.984 1_455 S
N1029 H1033 0.985 . S
H1030 N1025 0.984 . S
H1031 N1025 0.985 . S
H1032 N1029 0.984 1_655 S
H1033 N1029 0.985 . S
H1034 N1028 0.984 . S
H1035 N1028 0.984 1_455 S
H1036 N1024 0.984 . S
H1037 N1024 0.985 . S
C1038 C1039 1.363 . S
C1038 C1044 1.379 . S
C1038 N1046 1.356 . S
C1039 C1038 1.363 . S
C1039 C1045 1.363 1_545 S
C1040 C1041 1.363 . S
C1040 C1045 1.379 . S
C1040 N1047 1.356 . S
C1041 C1040 1.363 . S
C1041 C1044 1.363 1_565 S
N1042 C1044 1.356 . S
N1042 H1054 0.984 . S
N1042 H1055 0.985 . S
N1043 C1045 1.356 . S
N1043 H1048 0.984 . S
N1043 H1049 0.985 . S
C1044 C1038 1.379 . S
C1044 C1041 1.363 1_545 S
C1044 N1042 1.356 . S
C1045 C1039 1.363 1_565 S
C1045 C1040 1.379 . S
C1045 N1043 1.356 . S
N1046 C1038 1.356 . S
N1046 H1052 0.984 . S
N1046 H1053 0.984 . S
N1047 C1040 1.356 . S
N1047 H1050 0.984 . S
N1047 H1051 0.985 . S
H1048 N1043 0.984 . S
H1049 N1043 0.985 . S
H1050 N1047 0.984 . S
H1051 N1047 0.985 . S
H1052 N1046 0.984 . S
H1053 N1046 0.984 . S
H1054 N1042 0.984 . S
H1055 N1042 0.985 . S
C1056 C1057 1.363 1_554 S
C1056 C1062 1.379 . S
C1056 N1064 1.356 . S
C1057 C1056 1.363 1_556 S
C1057 C1063 1.363 . S
C1058 C1059 1.363 1_556 S
C1058 C1063 1.379 . S
C1058 N1065 1.356 . S
C1059 C1058 1.363 1_554 S
C1059 C1062 1.363 . S
N1060 C1062 1.356 . S
N1060 H1072 0.984 . S
N1060 H1073 0.985 . S
N1061 C1063 1.356 . S
N1061 H1066 0.984 . S
N1061 H1067 0.985 . S
C1062 C1056 1.379 . S
C1062 C1059 1.363 . S
C1062 N1060 1.356 . S
C1063 C1057 1.363 . S
C1063 C1058 1.379 . S
C1063 N1061 1.356 . S
N1064 C1056 1.356 . S
N1064 H1070 0.984 . S
N1064 H1071 0.984 . S
N1065 C1058 1.356 . S
N1065 H1068 0.984 . S
N1065 H1069 0.985 . S
H1066 N1061 0.984 . S
H1067 N1061 0.985 . S
H1068 N1065 0.984 . S
H1069 N1065 0.985 . S
H1070 N1064 0.984 . S
H1071 N1064 0.984 . S
H1072 N1060 0.984 . S
H1073 N1060 0.985 . S
C1074 C1075 1.363 . S
C1074 C1080 1.379 . S
C1074 N1082 1.356 . S
C1075 C1074 1.363 . S
C1075 C1081 1.363 1_554 S
C1076 C1077 1.363 . S
C1076 C1081 1.379 . S
C1076 N1083 1.356 . S
C1077 C1076 1.363 . S
C1077 C1080 1.363 1_556 S
N1078 C1080 1.356 . S
N1078 H1090 0.984 . S
N1078 H1091 0.985 1_554 S
N1079 C1081 1.356 . S
N1079 H1084 0.984 1_556 S
N1079 H1085 0.985 . S
C1080 C1074 1.379 . S
C1080 C1077 1.363 1_554 S
C1080 N1078 1.356 . S
C1081 C1075 1.363 1_556 S
C1081 C1076 1.379 . S
C1081 N1079 1.356 . S
N1082 C1074 1.356 . S
N1082 H1088 0.984 . S
N1082 H1089 0.984 . S
N1083 C1076 1.356 . S
N1083 H1086 0.984 . S
N1083 H1087 0.985 . S
H1084 N1079 0.984 1_554 S
H1085 N1079 0.985 . S
H1086 N1083 0.984 . S
H1087 N1083 0.985 . S
H1088 N1082 0.984 . S
H1089 N1082 0.984 . S
H1090 N1078 0.984 . S
H1091 N1078 0.985 1_556 S
C1092 C1093 1.363 1_554 S
C1092 C1098 1.379 . S
C1092 N1100 1.356 . S
C1093 C1092 1.363 1_556 S
C1093 C1099 1.363 . S
C1094 C1095 1.363 1_556 S
C1094 C1099 1.379 . S
C1094 N1101 1.356 . S
C1095 C1094 1.363 1_554 S
C1095 C1098 1.363 . S
N1096 C1098 1.356 . S
N1096 H1108 0.984 . S
N1096 H1109 0.985 . S
N1097 C1099 1.356 . S
N1097 H1102 0.984 . S
N1097 H1103 0.985 . S
C1098 C1092 1.379 . S
C1098 C1095 1.363 . S
C1098 N1096 1.356 . S
C1099 C1093 1.363 . S
C1099 C1094 1.379 . S
C1099 N1097 1.356 . S
N1100 C1092 1.356 . S
N1100 H1106 0.984 . S
N1100 H1107 0.984 1_554 S
N1101 C1094 1.356 . S
N1101 H1104 0.984 1_556 S
N1101 H1105 0.985 . S
H1102 N1097 0.984 . S
H1103 N1097 0.985 . S
H1104 N1101 0.984 1_554 S
H1105 N1101 0.985 . S
H1106 N1100 0.984 . S
H1107 N1100 0.984 1_556 S
H1108 N1096 0.984 . S
H1109 N1096 0.985 . S
C1110 C1111 1.363 . S
C1110 C1116 1.379 . S
C1110 N1118 1.356 . S
C1111 C1110 1.363 . S
C1111 C1117 1.363 1_556 S
C1112 C1113 1.363 . S
C1112 C1117 1.379 . S
C1112 N1119 1.356 . S
C1113 C1112 1.363 . S
C1113 C1116 1.363 1_554 S
N1114 C1116 1.356 . S
N1114 H1126 0.984 . S
N1114 H1127 0.985 . S
N1115 C1117 1.356 . S
N1115 H1120 0.984 . S
N1115 H1121 0.985 . S
C1116 C1110 1.379 . S
C1116 C1113 1.363 1_556 S
C1116 N1114 1.356 . S
C1117 C1111 1.363 1_554 S
C1117 C1112 1.379 . S
C1117 N1115 1.356 . S
N1118 C1110 1.356 . S
N1118 H1124 0.984 . S
N1118 H1125 0.984 . S
N1119 C1112 1.356 . S
N1119 H1122 0.984 . S
N1119 H1123 0.985 . S
H1120 N1115 0.984 . S
H1121 N1115 0.985 . S
H1122 N1119 0.984 . S
H1123 N1119 0.985 . S
H1124 N1118 0.984 . S
H1125 N1118 0.984 . S
H1126 N1114 0.984 . S
H1127 N1114 0.985 . S
C1128 C1129 1.363 . S
C1128 C1134 1.379 . S
C1128 N1136 1.356 . S
C1129 C1128 1.363 . S
C1129 C1135 1.363 . S
C1130 C1131 1.363 . S
C1130 C1135 1.379 . S
C1130 N1137 1.356 . S
C1131 C1130 1.363 . S
C1131 C1134 1.363 . S
N1132 C1134 1.356 . S
N1132 H1144 0.984 . S
N1132 H1145 0.985 . S
N1133 C1135 1.356 . S
N1133 H1138 0.984 . S
N1133 H1139 0.985 . S
C1134 C1128 1.379 . S
C1134 C1131 1.363 . S
C1134 N1132 1.356 . S
C1135 C1129 1.363 . S
C1135 C1130 1.379 . S
C1135 N1133 1.356 . S
N1136 C1128 1.356 . S
N1136 H1142 0.984 . S
N1136 H1143 0.984 . S
N1137 C1130 1.356 . S
N1137 H1140 0.984 . S
N1137 H1141 0.985 . S
H1138 N1133 0.984 . S
H1139 N1133 0.985 . S
H1140 N1137 0.984 . S
H1141 N1137 0.985 . S
H1142 N1136 0.984 . S
H1143 N1136 0.984 . S
H1144 N1132 0.984 . S
H1145 N1132 0.985 . S
C1146 C1147 1.363 . S
C1146 C1152 1.379 . S
C1146 N1154 1.356 . S
C1147 C1146 1.363 . S
C1147 C1153 1.363 . S
C1148 C1149 1.363 . S
C1148 C1153 1.379 . S
C1148 N1155 1.356 . S
C1149 C1148 1.363 . S
C1149 C1152 1.363 . S
N1150 C1152 1.356 . S
N1150 H1162 0.984 . S
N1150 H1163 0.985 . S
N1151 C1153 1.356 . S
N1151 H1156 0.984 . S
N1151 H1157 0.985 . S
C1152 C1146 1.379 . S
C1152 C1149 1.363 . S
C1152 N1150 1.356 . S
C1153 C1147 1.363 . S
C1153 C1148 1.379 . S
C1153 N1151 1.356 . S
N1154 C1146 1.356 . S
N1154 H1160 0.984 . S
N1154 H1161 0.984 . S
N1155 C1148 1.356 . S
N1155 H1158 0.984 . S
N1155 H1159 0.985 . S
H1156 N1151 0.984 . S
H1157 N1151 0.985 . S
H1158 N1155 0.984 . S
H1159 N1155 0.985 . S
H1160 N1154 0.984 . S
H1161 N1154 0.984 . S
H1162 N1150 0.984 . S
H1163 N1150 0.985 . S
C1164 C1165 1.363 . S
C1164 C1170 1.379 . S
C1164 N1172 1.356 . S
C1165 C1164 1.363 . S
C1165 C1171 1.363 . S
C1166 C1167 1.363 . S
C1166 C1171 1.379 . S
C1166 N1173 1.356 . S
C1167 C1166 1.363 . S
C1167 C1170 1.363 . S
N1168 C1170 1.356 . S
N1168 H1180 0.984 . S
N1168 H1181 0.985 . S
N1169 C1171 1.356 . S
N1169 H1174 0.984 . S
N1169 H1175 0.985 . S
C1170 C1164 1.379 . S
C1170 C1167 1.363 . S
C1170 N1168 1.356 . S
C1171 C1165 1.363 . S
C1171 C1166 1.379 . S
C1171 N1169 1.356 . S
N1172 C1164 1.356 . S
N1172 H1178 0.984 . S
N1172 H1179 0.984 . S
N1173 C1166 1.356 . S
N1173 H1176 0.984 . S
N1173 H1177 0.985 . S
H1174 N1169 0.984 . S
H1175 N1169 0.985 . S
H1176 N1173 0.984 . S
H1177 N1173 0.985 . S
H1178 N1172 0.984 . S
H1179 N1172 0.984 . S
H1180 N1168 0.984 . S
H1181 N1168 0.985 . S
C1182 C1183 1.363 . S
C1182 C1188 1.379 . S
C1182 N1190 1.356 . S
C1183 C1182 1.363 . S
C1183 C1189 1.363 . S
C1184 C1185 1.363 . S
C1184 C1189 1.379 . S
C1184 N1191 1.356 . S
C1185 C1184 1.363 . S
C1185 C1188 1.363 . S
N1186 C1188 1.356 . S
N1186 H1198 0.984 . S
N1186 H1199 0.985 . S
N1187 C1189 1.356 . S
N1187 H1192 0.984 . S
N1187 H1193 0.985 . S
C1188 C1182 1.379 . S
C1188 C1185 1.363 . S
C1188 N1186 1.356 . S
C1189 C1183 1.363 . S
C1189 C1184 1.379 . S
C1189 N1187 1.356 . S
N1190 C1182 1.356 . S
N1190 H1196 0.984 . S
N1190 H1197 0.984 . S
N1191 C1184 1.356 . S
N1191 H1194 0.984 . S
N1191 H1195 0.985 . S
H1192 N1187 0.984 . S
H1193 N1187 0.985 . S
H1194 N1191 0.984 . S
H1195 N1191 0.985 . S
H1196 N1190 0.984 . S
H1197 N1190 0.984 . S
H1198 N1186 0.984 . S
H1199 N1186 0.985 . S
C1200 C1201 1.363 . S
C1200 C1206 1.379 . S
C1200 N1208 1.356 . S
C1201 C1200 1.363 . S
C1201 C1207 1.363 . S
C1202 C1203 1.363 . S
C1202 C1207 1.379 . S
C1202 N1209 1.356 . S
C1203 C1202 1.363 . S
C1203 C1206 1.363 . S
N1204 C1206 1.356 . S
N1204 H1216 0.984 . S
N1204 H1217 0.985 . S
N1205 C1207 1.356 . S
N1205 H1210 0.984 . S
N1205 H1211 0.985 . S
C1206 C1200 1.379 . S
C1206 C1203 1.363 . S
C1206 N1204 1.356 . S
C1207 C1201 1.363 . S
C1207 C1202 1.379 . S
C1207 N1205 1.356 . S
N1208 C1200 1.356 . S
N1208 H1214 0.984 . S
N1208 H1215 0.984 . S
N1209 C1202 1.356 . S
N1209 H1212 0.984 . S
N1209 H1213 0.985 . S
H1210 N1205 0.984 . S
H1211 N1205 0.985 . S
H1212 N1209 0.984 . S
H1213 N1209 0.985 . S
H1214 N1208 0.984 . S
H1215 N1208 0.984 . S
H1216 N1204 0.984 . S
H1217 N1204 0.985 . S
C1218 C1219 1.363 . S
C1218 C1224 1.379 . S
C1218 N1226 1.356 . S
C1219 C1218 1.363 . S
C1219 C1225 1.363 . S
C1220 C1221 1.363 . S
C1220 C1225 1.379 . S
C1220 N1227 1.356 . S
C1221 C1220 1.363 . S
C1221 C1224 1.363 . S
N1222 C1224 1.356 . S
N1222 H1234 0.984 . S
N1222 H1235 0.985 . S
N1223 C1225 1.356 . S
N1223 H1228 0.984 . S
N1223 H1229 0.985 . S
C1224 C1218 1.379 . S
C1224 C1221 1.363 . S
C1224 N1222 1.356 . S
C1225 C1219 1.363 . S
C1225 C1220 1.379 . S
C1225 N1223 1.356 . S
N1226 C1218 1.356 . S
N1226 H1232 0.984 . S
N1226 H1233 0.984 . S
N1227 C1220 1.356 . S
N1227 H1230 0.984 . S
N1227 H1231 0.985 . S
H1228 N1223 0.984 . S
H1229 N1223 0.985 . S
H1230 N1227 0.984 . S
H1231 N1227 0.985 . S
H1232 N1226 0.984 . S
H1233 N1226 0.984 . S
H1234 N1222 0.984 . S
H1235 N1222 0.985 . S
C1236 C1237 1.363 . S
C1236 C1242 1.379 . S
C1236 N1244 1.356 . S
C1237 C1236 1.363 . S
C1237 C1243 1.363 . S
C1238 C1239 1.363 . S
C1238 C1243 1.379 . S
C1238 N1245 1.356 . S
C1239 C1238 1.363 . S
C1239 C1242 1.363 . S
N1240 C1242 1.356 . S
N1240 H1252 0.984 . S
N1240 H1253 0.985 . S
N1241 C1243 1.356 . S
N1241 H1246 0.984 . S
N1241 H1247 0.985 . S
C1242 C1236 1.379 . S
C1242 C1239 1.363 . S
C1242 N1240 1.356 . S
C1243 C1237 1.363 . S
C1243 C1238 1.379 . S
C1243 N1241 1.356 . S
N1244 C1236 1.356 . S
N1244 H1250 0.984 . S
N1244 H1251 0.984 . S
N1245 C1238 1.356 . S
N1245 H1248 0.984 . S
N1245 H1249 0.985 . S
H1246 N1241 0.984 . S
H1247 N1241 0.985 . S
H1248 N1245 0.984 . S
H1249 N1245 0.985 . S
H1250 N1244 0.984 . S
H1251 N1244 0.984 . S
H1252 N1240 0.984 . S
H1253 N1240 0.985 . S
C1254 C1255 1.363 . S
C1254 C1260 1.379 . S
C1254 N1262 1.356 . S
C1255 C1254 1.363 . S
C1255 C1261 1.363 . S
C1256 C1257 1.363 . S
C1256 C1261 1.379 . S
C1256 N1263 1.356 . S
C1257 C1256 1.363 . S
C1257 C1260 1.363 . S
N1258 C1260 1.356 . S
N1258 H1270 0.984 . S
N1258 H1271 0.985 . S
N1259 C1261 1.356 . S
N1259 H1264 0.984 . S
N1259 H1265 0.985 . S
C1260 C1254 1.379 . S
C1260 C1257 1.363 . S
C1260 N1258 1.356 . S
C1261 C1255 1.363 . S
C1261 C1256 1.379 . S
C1261 N1259 1.356 . S
N1262 C1254 1.356 . S
N1262 H1268 0.984 . S
N1262 H1269 0.984 . S
N1263 C1256 1.356 . S
N1263 H1266 0.984 . S
N1263 H1267 0.985 . S
H1264 N1259 0.984 . S
H1265 N1259 0.985 . S
H1266 N1263 0.984 . S
H1267 N1263 0.985 . S
H1268 N1262 0.984 . S
H1269 N1262 0.984 . S
H1270 N1258 0.984 . S
H1271 N1258 0.985 . S
C1272 C1273 1.363 . S
C1272 C1278 1.379 . S
C1272 N1280 1.356 . S
C1273 C1272 1.363 . S
C1273 C1279 1.363 . S
C1274 C1275 1.363 . S
C1274 C1279 1.379 . S
C1274 N1281 1.356 . S
C1275 C1274 1.363 . S
C1275 C1278 1.363 . S
N1276 C1278 1.356 . S
N1276 H1288 0.984 . S
N1276 H1289 0.985 . S
N1277 C1279 1.356 . S
N1277 H1282 0.984 . S
N1277 H1283 0.985 . S
C1278 C1272 1.379 . S
C1278 C1275 1.363 . S
C1278 N1276 1.356 . S
C1279 C1273 1.363 . S
C1279 C1274 1.379 . S
C1279 N1277 1.356 . S
N1280 C1272 1.356 . S
N1280 H1286 0.984 . S
N1280 H1287 0.984 . S
N1281 C1274 1.356 . S
N1281 H1284 0.984 . S
N1281 H1285 0.985 . S
H1282 N1277 0.984 . S
H1283 N1277 0.985 . S
H1284 N1281 0.984 . S
H1285 N1281 0.985 . S
H1286 N1280 0.984 . S
H1287 N1280 0.984 . S
H1288 N1276 0.984 . S
H1289 N1276 0.985 . S
C1290 C1291 1.363 . S
C1290 C1296 1.379 . S
C1290 N1298 1.356 . S
C1291 C1290 1.363 . S
C1291 C1297 1.363 . S
C1292 C1293 1.363 . S
C1292 C1297 1.379 . S
C1292 N1299 1.356 . S
C1293 C1292 1.363 . S
C1293 C1296 1.363 . S
N1294 C1296 1.356 . S
N1294 H1306 0.984 . S
N1294 H1307 0.985 . S
N1295 C1297 1.356 . S
N1295 H1300 0.984 . S
N1295 H1301 0.985 . S
C1296 C1290 1.379 . S
C1296 C1293 1.363 . S
C1296 N1294 1.356 . S
C1297 C1291 1.363 . S
C1297 C1292 1.379 . S
C1297 N1295 1.356 . S
N1298 C1290 1.356 . S
N1298 H1304 0.984 . S
N1298 H1305 0.984 . S
N1299 C1292 1.356 . S
N1299 H1302 0.984 . S
N1299 H1303 0.985 . S
H1300 N1295 0.984 . S
H1301 N1295 0.985 . S
H1302 N1299 0.984 . S
H1303 N1299 0.985 . S
H1304 N1298 0.984 . S
H1305 N1298 0.984 . S
H1306 N1294 0.984 . S
H1307 N1294 0.985 . S
C1308 C1309 1.363 . S
C1308 C1314 1.379 . S
C1308 N1316 1.356 . S
C1309 C1308 1.363 . S
C1309 C1315 1.363 . S
C1310 C1311 1.363 . S
C1310 C1315 1.379 . S
C1310 N1317 1.356 . S
C1311 C1310 1.363 . S
C1311 C1314 1.363 . S
N1312 C1314 1.356 . S
N1312 H1324 0.984 . S
N1312 H1325 0.985 . S
N1313 C1315 1.356 . S
N1313 H1318 0.984 . S
N1313 H1319 0.985 . S
C1314 C1308 1.379 . S
C1314 C1311 1.363 . S
C1314 N1312 1.356 . S
C1315 C1309 1.363 . S
C1315 C1310 1.379 . S
C1315 N1313 1.356 . S
N1316 C1308 1.356 . S
N1316 H1322 0.984 . S
N1316 H1323 0.984 . S
N1317 C1310 1.356 . S
N1317 H1320 0.984 . S
N1317 H1321 0.985 . S
H1318 N1313 0.984 . S
H1319 N1313 0.985 . S
H1320 N1317 0.984 . S
H1321 N1317 0.985 . S
H1322 N1316 0.984 . S
H1323 N1316 0.984 . S
H1324 N1312 0.984 . S
H1325 N1312 0.985 . S
C1326 C1327 1.363 . S
C1326 C1332 1.379 . S
C1326 N1334 1.356 . S
C1327 C1326 1.363 . S
C1327 C1333 1.363 . S
C1328 C1329 1.363 . S
C1328 C1333 1.379 . S
C1328 N1335 1.356 . S
C1329 C1328 1.363 . S
C1329 C1332 1.363 . S
N1330 C1332 1.356 . S
N1330 H1342 0.984 . S
N1330 H1343 0.985 . S
N1331 C1333 1.356 . S
N1331 H1336 0.984 . S
N1331 H1337 0.985 . S
C1332 C1326 1.379 . S
C1332 C1329 1.363 . S
C1332 N1330 1.356 . S
C1333 C1327 1.363 . S
C1333 C1328 1.379 . S
C1333 N1331 1.356 . S
N1334 C1326 1.356 . S
N1334 H1340 0.984 . S
N1334 H1341 0.984 . S
N1335 C1328 1.356 . S
N1335 H1338 0.984 . S
N1335 H1339 0.985 . S
H1336 N1331 0.984 . S
H1337 N1331 0.985 . S
H1338 N1335 0.984 . S
H1339 N1335 0.985 . S
H1340 N1334 0.984 . S
H1341 N1334 0.984 . S
H1342 N1330 0.984 . S
H1343 N1330 0.985 . S
C913 C31 1.556 1_455 S
C915 C341 1.552 1_655 S
C931 C73 1.796 . S
C933 C612 1.795 . S
C949 C98 1.796 . S
C951 C243 1.798 . S
C967 C542 1.556 1_565 S
C969 C1 1.552 1_545 S
C985 C113 1.556 1_655 S
C987 C259 1.559 1_455 S
C1003 C156 1.796 . S
C1005 C529 1.798 . S
C1021 C326 1.796 . S
C1023 C15 1.795 . S
C1039 C457 1.556 1_545 S
C1041 C86 1.559 1_565 S
C1057 C827 1.556 1_556 S
C1059 C58 1.552 1_554 S
C1075 C810 1.796 . S
C1077 C45 1.795 . S
C1093 C729 1.796 . S
C1095 C126 1.798 . S
C1111 C143 1.556 1_556 S
C1113 C742 1.559 1_554 S
C1129 C840 1.796 . S
C1131 C301 1.801 . S
C1147 C229 1.556 . S
C1149 C770 1.556 . S
C1165 C384 1.796 . S
C1167 C757 1.792 . S
C1183 C685 1.556 . S
C1185 C314 1.555 . S
C1201 C599 1.556 . S
C1203 C286 1.555 . S
C1219 C273 1.796 . S
C1221 C582 1.792 . S
C1237 C354 1.796 . S
C1239 C501 1.801 . S
C1255 C514 1.556 . S
C1257 C371 1.556 . S
C1273 C797 1.556 . S
C1275 C487 1.555 . S
C1291 C554 1.796 . S
C1293 C699 1.801 . S
C1309 C715 1.556 . S
C1311 C569 1.556 . S
C1327 C471 1.796 . S
C1329 C782 1.792 . S
