# Generated by pormake.
# Topology uoq, (4)-cn, num edge types: 1
# Building blocks:
#     Node 0, Type 0, BuildingBlock: UXUYUI_clean_sbu_0, # of connection points: 4
#     Node 1, Type 0, BuildingBlock: UXUYUI_clean_sbu_0, # of connection points: 4
#     Node 2, Type 0, BuildingBlock: UXUYUI_clean_sbu_0, # of connection points: 4
#     Node 3, Type 0, BuildingBlock: UXUYUI_clean_sbu_0, # of connection points: 4
#     Node 4, Type 0, BuildingBlock: UXUYUI_clean_sbu_0, # of connection points: 4
#     Node 5, Type 0, BuildingBlock: UXUYUI_clean_sbu_0, # of connection points: 4
#     Node 6, Type 0, BuildingBlock: UXUYUI_clean_sbu_0, # of connection points: 4
#     Node 7, Type 0, BuildingBlock: UXUYUI_clean_sbu_0, # of connection points: 4
#     Node 8, Type 0, BuildingBlock: UXUYUI_clean_sbu_0, # of connection points: 4
#     Node 9, Type 0, BuildingBlock: UXUYUI_clean_sbu_0, # of connection points: 4
#     Node 10, Type 0, BuildingBlock: UXUYUI_clean_sbu_0, # of connection points: 4
#     Node 11, Type 0, BuildingBlock: UXUYUI_clean_sbu_0, # of connection points: 4
#     Edge 12, Type (0, 0), BuildingBlock: EZIPEK_clean_linker_0, # of connection points: 2
#     Edge 13, Type (0, 0), BuildingBlock: EZIPEK_clean_linker_0, # of connection points: 2
#     Edge 14, Type (0, 0), BuildingBlock: EZIPEK_clean_linker_0, # of connection points: 2
#     Edge 15, Type (0, 0), BuildingBlock: EZIPEK_clean_linker_0, # of connection points: 2
#     Edge 16, Type (0, 0), BuildingBlock: EZIPEK_clean_linker_0, # of connection points: 2
#     Edge 17, Type (0, 0), BuildingBlock: EZIPEK_clean_linker_0, # of connection points: 2
#     Edge 18, Type (0, 0), BuildingBlock: EZIPEK_clean_linker_0, # of connection points: 2
#     Edge 19, Type (0, 0), BuildingBlock: EZIPEK_clean_linker_0, # of connection points: 2
#     Edge 20, Type (0, 0), BuildingBlock: EZIPEK_clean_linker_0, # of connection points: 2
#     Edge 21, Type (0, 0), BuildingBlock: EZIPEK_clean_linker_0, # of connection points: 2
#     Edge 22, Type (0, 0), BuildingBlock: EZIPEK_clean_linker_0, # of connection points: 2
#     Edge 23, Type (0, 0), BuildingBlock: EZIPEK_clean_linker_0, # of connection points: 2
#     Edge 24, Type (0, 0), BuildingBlock: EZIPEK_clean_linker_0, # of connection points: 2
#     Edge 25, Type (0, 0), BuildingBlock: EZIPEK_clean_linker_0, # of connection points: 2
#     Edge 26, Type (0, 0), BuildingBlock: EZIPEK_clean_linker_0, # of connection points: 2
#     Edge 27, Type (0, 0), BuildingBlock: EZIPEK_clean_linker_0, # of connection points: 2
#     Edge 28, Type (0, 0), BuildingBlock: EZIPEK_clean_linker_0, # of connection points: 2
#     Edge 29, Type (0, 0), BuildingBlock: EZIPEK_clean_linker_0, # of connection points: 2
#     Edge 30, Type (0, 0), BuildingBlock: EZIPEK_clean_linker_0, # of connection points: 2
#     Edge 31, Type (0, 0), BuildingBlock: EZIPEK_clean_linker_0, # of connection points: 2
#     Edge 32, Type (0, 0), BuildingBlock: EZIPEK_clean_linker_0, # of connection points: 2
#     Edge 33, Type (0, 0), BuildingBlock: EZIPEK_clean_linker_0, # of connection points: 2
#     Edge 34, Type (0, 0), BuildingBlock: EZIPEK_clean_linker_0, # of connection points: 2
#     Edge 35, Type (0, 0), BuildingBlock: EZIPEK_clean_linker_0, # of connection points: 2
# Relax obj value: 0.147
# Max RMSD: 0.104
# Mean RMSD: 0.104
data_MOF--net-uoq--node1-UXUYUI_clean_sbu_0--edge1-EZIPEK_clean_linker_0
_symmetry_space_group_name_H-M    P1
_symmetry_Int_Tables_number       1
_symmetry_cell_setting            triclinic
loop_
_symmetry_equiv_pos_as_xyz
'x, y, z'
_cell_length_a     69.068434
_cell_length_b     69.142877
_cell_length_c     28.821896
_cell_angle_alpha  89.950429
_cell_angle_beta   90.005141
_cell_angle_gamma 120.0644
loop_
_atom_site_label
_atom_site_type_symbol
_atom_site_fract_x
_atom_site_fract_y
_atom_site_fract_z
_atom_type_partial_charge
Li0 Li 0.29479 0.44771 0.29722 0.0
Li1 Li 0.31601 0.43352 0.26189 0.0
Li2 Li 0.33126 0.47379 0.26368 0.0
Li3 Li 0.29701 0.44747 0.21255 0.0
C4 C 0.32322 0.44403 0.35839 0.0
N5 N 0.32054 0.42498 0.4442 0.0
C6 C 0.30774 0.42147 0.36604 0.0
C7 C 0.33729 0.45693 0.39445 0.0
C8 C 0.30667 0.41213 0.4096 0.0
C9 C 0.33568 0.44699 0.43758 0.0
C10 C 0.27154 0.39992 0.24248 0.0
C11 C 0.25904 0.37156 0.18319 0.0
N12 N 0.24765 0.35561 0.21583 0.0
C13 C 0.25948 0.38326 0.27535 0.0
C14 C 0.27115 0.39406 0.19595 0.0
C15 C 0.24761 0.36095 0.26122 0.0
C16 C 0.25389 0.42922 0.34704 0.0
N17 N 0.27602 0.44482 0.34786 0.0
C18 C 0.27248 0.45718 0.42299 0.0
C19 C 0.28546 0.45869 0.38471 0.0
C20 C 0.24967 0.44122 0.42313 0.0
C21 C 0.24025 0.42709 0.38476 0.0
H22 H 0.24688 0.41849 0.31711 0.0
H23 H 0.30308 0.47101 0.38422 0.0
C24 C 0.34751 0.42315 0.29344 0.0
N25 N 0.32736 0.41323 0.27144 0.0
C26 C 0.35711 0.41061 0.30794 0.0
C27 C 0.32556 0.37774 0.27538 0.0
C28 C 0.31646 0.39097 0.26157 0.0
C29 C 0.34595 0.3876 0.29953 0.0
H30 H 0.35593 0.44086 0.30079 0.0
H31 H 0.3006 0.38332 0.24386 0.0
C32 C 0.29208 0.48302 0.27665 0.0
N33 N 0.27081 0.50142 0.3255 0.0
C34 C 0.26934 0.47525 0.26954 0.0
C35 C 0.30404 0.50024 0.30841 0.0
C36 C 0.25887 0.48473 0.29466 0.0
C37 C 0.29298 0.50932 0.33276 0.0
C38 C 0.34306 0.44797 0.19092 0.0
C39 C 0.36554 0.45855 0.20416 0.0
C40 C 0.33463 0.42971 0.16077 0.0
C41 C 0.37911 0.45037 0.18776 0.0
C42 C 0.34873 0.42204 0.14512 0.0
N43 N 0.37048 0.43241 0.15889 0.0
C44 C 0.37324 0.50127 0.30124 0.0
C45 C 0.36018 0.52144 0.25713 0.0
C46 C 0.39207 0.52107 0.31517 0.0
N47 N 0.35767 0.50181 0.27324 0.0
C48 C 0.37884 0.54173 0.27028 0.0
C49 C 0.39481 0.54155 0.30012 0.0
H50 H 0.37075 0.48541 0.31357 0.0
H51 H 0.34739 0.52136 0.23534 0.0
C52 C 0.25797 0.43648 0.16224 0.0
N53 N 0.28044 0.44536 0.1573 0.0
C54 C 0.24486 0.43584 0.12467 0.0
C55 C 0.27807 0.45265 0.07682 0.0
C56 C 0.29063 0.45322 0.11558 0.0
C57 C 0.25493 0.44415 0.08139 0.0
H58 H 0.25026 0.43014 0.19567 0.0
H59 H 0.30852 0.4602 0.11256 0.0
O60 O 0.32444 0.45359 0.31606 0.0
O61 O 0.28306 0.42186 0.25571 0.0
O62 O 0.30246 0.47342 0.2536 0.0
O63 O 0.32935 0.45526 0.20796 0.0
H64 H 0.29672 0.41129 0.33859 0.0
H65 H 0.34922 0.47447 0.38929 0.0
H66 H 0.2948 0.39468 0.41592 0.0
H67 H 0.34645 0.45678 0.46582 0.0
H68 H 0.25868 0.3668 0.14733 0.0
H69 H 0.25923 0.3875 0.31139 0.0
H70 H 0.28003 0.4067 0.16991 0.0
H71 H 0.2383 0.34788 0.28633 0.0
H72 H 0.28012 0.46831 0.4522 0.0
H73 H 0.22263 0.41463 0.38412 0.0
H74 H 0.37294 0.41873 0.32623 0.0
H75 H 0.31665 0.35999 0.2681 0.0
H76 H 0.25979 0.46186 0.24537 0.0
H77 H 0.32156 0.50624 0.31491 0.0
H78 H 0.24123 0.47876 0.28977 0.0
H79 H 0.30199 0.52255 0.35769 0.0
H80 H 0.37237 0.47275 0.2273 0.0
H81 H 0.31737 0.42149 0.14971 0.0
H82 H 0.39648 0.45827 0.19809 0.0
H83 H 0.34237 0.40782 0.12205 0.0
H84 H 0.40416 0.52046 0.33817 0.0
H85 H 0.38056 0.55736 0.25823 0.0
H86 H 0.22705 0.4291 0.12937 0.0
H87 H 0.28634 0.45913 0.04386 0.0
Li88 Li 0.85412 0.29349 0.6288 0.0
Li89 Li 0.88914 0.31373 0.59112 0.0
Li90 Li 0.86497 0.32999 0.59512 0.0
Li91 Li 0.85541 0.29532 0.54391 0.0
C92 C 0.88817 0.32179 0.68734 0.0
N93 N 0.90704 0.31959 0.77031 0.0
C94 C 0.89411 0.30542 0.69416 0.0
C95 C 0.89172 0.33697 0.72283 0.0
C96 C 0.90367 0.30461 0.73628 0.0
C97 C 0.90129 0.33559 0.76452 0.0
C98 C 0.87614 0.26841 0.57218 0.0
C99 C 0.89049 0.25473 0.51209 0.0
N100 N 0.89405 0.24242 0.5442 0.0
C101 C 0.87971 0.25542 0.60451 0.0
C102 C 0.88138 0.26791 0.52552 0.0
C103 C 0.88888 0.24248 0.58971 0.0
C104 C 0.83084 0.25277 0.67865 0.0
N105 N 0.83855 0.27512 0.68012 0.0
C106 C 0.8238 0.27214 0.75632 0.0
C107 C 0.83532 0.28495 0.71785 0.0
C108 C 0.81573 0.24911 0.75572 0.0
C109 C 0.8193 0.2393 0.71655 0.0
H110 H 0.83355 0.24544 0.64798 0.0
H111 H 0.84154 0.30275 0.71783 0.0
C112 C 0.93221 0.34489 0.6175 0.0
N113 N 0.9207 0.32402 0.59891 0.0
C114 C 0.95437 0.35374 0.63159 0.0
C115 C 0.95293 0.31977 0.60618 0.0
C116 C 0.93073 0.31156 0.59228 0.0
C117 C 0.96478 0.34095 0.62676 0.0
H118 H 0.92385 0.35439 0.62297 0.0
H119 H 0.92147 0.29505 0.57761 0.0
C120 C 0.81607 0.29112 0.60991 0.0
N121 N 0.77648 0.26967 0.6593 0.0
C122 C 0.80077 0.26858 0.60166 0.0
C123 C 0.81119 0.30279 0.64314 0.0
C124 C 0.78086 0.25802 0.62705 0.0
C125 C 0.79109 0.29164 0.66775 0.0
C126 C 0.90142 0.34101 0.52014 0.0
C127 C 0.91293 0.3638 0.5307 0.0
C128 C 0.91144 0.3322 0.49154 0.0
C129 C 0.9345 0.37733 0.5132 0.0
C130 C 0.93304 0.34627 0.47476 0.0
N131 N 0.94405 0.36835 0.4859 0.0
C132 C 0.88109 0.37243 0.63184 0.0
C133 C 0.84648 0.35917 0.59276 0.0
C134 C 0.88064 0.39136 0.64695 0.0
N135 N 0.86406 0.35671 0.60578 0.0
C136 C 0.84534 0.37791 0.6072 0.0
C137 C 0.86245 0.39404 0.63515 0.0
H138 H 0.89479 0.36997 0.64183 0.0
H139 H 0.83302 0.34624 0.57256 0.0
C140 C 0.8272 0.2561 0.4941 0.0
N141 N 0.84004 0.27867 0.48936 0.0
C142 C 0.81446 0.2429 0.45689 0.0
C143 C 0.82878 0.27626 0.40995 0.0
C144 C 0.84117 0.28889 0.44827 0.0
C145 C 0.81506 0.25299 0.41427 0.0
H146 H 0.82668 0.24838 0.52708 0.0
H147 H 0.85148 0.30686 0.44541 0.0
O148 O 0.87877 0.32291 0.64632 0.0
O149 O 0.86699 0.28101 0.58609 0.0
O150 O 0.83596 0.30157 0.58647 0.0
O151 O 0.88055 0.32739 0.53813 0.0
H152 H 0.89143 0.29352 0.66717 0.0
H153 H 0.88704 0.34963 0.71833 0.0
H154 H 0.90843 0.29207 0.74191 0.0
H155 H 0.90413 0.34724 0.79228 0.0
H156 H 0.89468 0.25425 0.4761 0.0
H157 H 0.87545 0.25532 0.64068 0.0
H158 H 0.87838 0.2775 0.49989 0.0
H159 H 0.89184 0.23245 0.6144 0.0
H160 H 0.82116 0.28006 0.78616 0.0
H161 H 0.8131 0.22149 0.7153 0.0
H162 H 0.9631 0.37015 0.64742 0.0
H163 H 0.96062 0.30954 0.60197 0.0
H164 H 0.80433 0.25927 0.57632 0.0
H165 H 0.82297 0.32015 0.65047 0.0
H166 H 0.76894 0.24054 0.62124 0.0
H167 H 0.78717 0.30041 0.69378 0.0
H168 H 0.90539 0.37093 0.5525 0.0
H169 H 0.90272 0.31469 0.4826 0.0
H170 H 0.94368 0.39496 0.52142 0.0
H171 H 0.94107 0.33964 0.4529 0.0
H172 H 0.89408 0.40356 0.66845 0.0
H173 H 0.83107 0.37956 0.59766 0.0
H174 H 0.8041 0.22499 0.46136 0.0
H175 H 0.82964 0.28455 0.37747 0.0
Li176 Li 0.57713 0.88682 0.92028 0.0
Li177 Li 0.56499 0.85208 0.95891 0.0
Li178 Li 0.56316 0.85139 0.87463 0.0
Li179 Li 0.53685 0.85931 0.92362 0.0
C180 C 0.60502 0.86257 0.93596 0.0
N181 N 0.63275 0.85154 0.984 0.0
C182 C 0.61835 0.87618 0.97213 0.0
C183 C 0.60591 0.84346 0.92396 0.0
C184 C 0.63224 0.87029 0.99607 0.0
C185 C 0.62002 0.83814 0.94873 0.0
C186 C 0.55861 0.88401 0.0167 0.0
C187 C 0.54044 0.88618 0.08646 0.0
N188 N 0.56046 0.90267 0.10262 0.0
C189 C 0.579 0.90101 0.03409 0.0
C190 C 0.53916 0.87656 0.04315 0.0
C191 C 0.57959 0.9102 0.07756 0.0
C192 C 0.58632 0.93028 0.9376 0.0
N193 N 0.5965 0.91848 0.92578 0.0
C194 C 0.63256 0.95053 0.9387 0.0
C195 C 0.61918 0.92822 0.92505 0.0
C196 C 0.62235 0.9627 0.9531 0.0
C197 C 0.599 0.95256 0.95137 0.0
H198 H 0.56825 0.92199 0.93875 0.0
H199 H 0.62683 0.91839 0.91597 0.0
C200 C 0.56408 0.81576 0.00615 0.0
N201 N 0.56988 0.8376 0.01071 0.0
C202 C 0.56575 0.80405 0.04394 0.0
C203 C 0.58042 0.83778 0.08975 0.0
C204 C 0.57841 0.8488 0.05116 0.0
C205 C 0.57369 0.8151 0.08637 0.0
H206 H 0.55779 0.80734 0.97335 0.0
H207 H 0.58363 0.86625 0.0537 0.0
C208 C 0.56204 0.89494 0.84405 0.0
N209 N 0.57826 0.93576 0.80044 0.0
C210 C 0.54944 0.90565 0.84389 0.0
C211 C 0.58282 0.90489 0.82183 0.0
C212 C 0.55795 0.92631 0.82167 0.0
C213 C 0.59075 0.92557 0.80005 0.0
C214 C 0.52219 0.81394 0.94255 0.0
C215 C 0.50999 0.79317 0.92085 0.0
C216 C 0.51695 0.81662 0.98805 0.0
C217 C 0.49269 0.77541 0.94509 0.0
C218 C 0.49956 0.79846 0.01115 0.0
N219 N 0.48788 0.7784 0.98937 0.0
C220 C 0.55914 0.81405 0.8274 0.0
C221 C 0.57164 0.84566 0.77847 0.0
C222 C 0.55974 0.80124 0.79049 0.0
N223 N 0.56498 0.8358 0.82087 0.0
C224 C 0.57266 0.83348 0.74058 0.0
C225 C 0.56658 0.81095 0.74643 0.0
H226 H 0.55407 0.80664 0.86149 0.0
H227 H 0.57614 0.86293 0.77397 0.0
C228 C 0.50923 0.87595 0.9485 0.0
N229 N 0.50838 0.857 0.93275 0.0
C230 C 0.48984 0.8755 0.96375 0.0
C231 C 0.46875 0.83623 0.94429 0.0
C232 C 0.4886 0.83745 0.92925 0.0
C233 C 0.46943 0.85535 0.96261 0.0
H234 H 0.5252 0.89122 0.95115 0.0
H235 H 0.48828 0.82263 0.91635 0.0
O236 O 0.59072 0.8676 0.91325 0.0
O237 O 0.55754 0.87519 0.97355 0.0
O238 O 0.5543 0.87503 0.86671 0.0
O239 O 0.53933 0.83144 0.91941 0.0
H240 H 0.61769 0.8909 0.98219 0.0
H241 H 0.59563 0.83271 0.89617 0.0
H242 H 0.6425 0.88055 0.02441 0.0
H243 H 0.62077 0.82332 0.94003 0.0
H244 H 0.5255 0.88056 0.10719 0.0
H245 H 0.59431 0.90683 0.01466 0.0
H246 H 0.52317 0.86352 0.03044 0.0
H247 H 0.59527 0.9233 0.09141 0.0
H248 H 0.65058 0.95798 0.93971 0.0
H249 H 0.59067 0.96152 0.9624 0.0
H250 H 0.56057 0.78651 0.04043 0.0
H251 H 0.5868 0.84673 0.12209 0.0
H252 H 0.53332 0.89816 0.86093 0.0
H253 H 0.5929 0.89693 0.82222 0.0
H254 H 0.54842 0.93484 0.8214 0.0
H255 H 0.60688 0.93356 0.78304 0.0
H256 H 0.51379 0.7908 0.8856 0.0
H257 H 0.52636 0.83248 1.00549 0.0
H258 H 0.48308 0.75924 0.92871 0.0
H259 H 0.4954 0.80031 0.04643 0.0
H260 H 0.55496 0.78392 0.79623 0.0
H261 H 0.57801 0.84148 0.70701 0.0
H262 H 0.49084 0.89052 0.97767 0.0
H263 H 0.45318 0.82046 0.9429 0.0
Li264 Li 0.72034 0.56197 0.29866 0.0
Li265 Li 0.69783 0.57448 0.26154 0.0
Li266 Li 0.68515 0.53582 0.26066 0.0
Li267 Li 0.71792 0.56247 0.21164 0.0
C268 C 0.68382 0.54142 0.35463 0.0
N269 N 0.67149 0.51486 0.43322 0.0
C270 C 0.67227 0.54488 0.39052 0.0
C271 C 0.68922 0.5245 0.35898 0.0
C272 C 0.66615 0.53126 0.42988 0.0
C273 C 0.68281 0.51126 0.3989 0.0
C274 C 0.74043 0.61017 0.25591 0.0
C275 C 0.75864 0.64542 0.21539 0.0
N276 N 0.75986 0.65612 0.25582 0.0
C277 C 0.74203 0.6215 0.29714 0.0
C278 C 0.74891 0.62218 0.21473 0.0
C279 C 0.75183 0.64474 0.29633 0.0
C280 C 0.75317 0.55769 0.34893 0.0
N281 N 0.7391 0.56608 0.34977 0.0
C282 C 0.74909 0.5782 0.42811 0.0
C283 C 0.73699 0.57637 0.38803 0.0
C284 C 0.76336 0.5693 0.42843 0.0
C285 C 0.76557 0.55911 0.38833 0.0
H286 H 0.75441 0.54955 0.31799 0.0
H287 H 0.72546 0.58266 0.38773 0.0
C288 C 0.66824 0.58582 0.30063 0.0
N289 N 0.68613 0.59448 0.27145 0.0
C290 C 0.6588 0.59859 0.31464 0.0
C291 C 0.68559 0.62882 0.26656 0.0
C292 C 0.69455 0.61539 0.25337 0.0
C293 C 0.66773 0.62046 0.29815 0.0
H294 H 0.66131 0.56894 0.3133 0.0
H295 H 0.70827 0.62179 0.22908 0.0
C296 C 0.71394 0.52077 0.22762 0.0
N297 N 0.71235 0.48704 0.17347 0.0
C298 C 0.7016 0.51448 0.1864 0.0
C299 C 0.72542 0.50986 0.24132 0.0
C300 C 0.70104 0.49742 0.15948 0.0
C301 C 0.72439 0.49283 0.21349 0.0
C302 C 0.67658 0.56521 0.18508 0.0
C303 C 0.65412 0.55865 0.19255 0.0
C304 C 0.68982 0.5838 0.15725 0.0
C305 C 0.64532 0.57098 0.17235 0.0
C306 C 0.68038 0.59564 0.13752 0.0
N307 N 0.65853 0.58906 0.1455 0.0
C308 C 0.64045 0.50787 0.28254 0.0
C309 C 0.65914 0.48747 0.26951 0.0
C310 C 0.62129 0.48856 0.29751 0.0
N311 N 0.65893 0.50706 0.26921 0.0
C312 C 0.64026 0.4677 0.28399 0.0
C313 C 0.62124 0.4683 0.29882 0.0
H314 H 0.64099 0.52376 0.28369 0.0
H315 H 0.67419 0.48722 0.26067 0.0
C316 C 0.75677 0.57009 0.16578 0.0
N317 N 0.73554 0.56564 0.15744 0.0
C318 C 0.77044 0.57076 0.12929 0.0
C319 C 0.74031 0.5626 0.07593 0.0
C320 C 0.72713 0.56195 0.11357 0.0
C321 C 0.76218 0.56686 0.08376 0.0
H322 H 0.76291 0.57263 0.20107 0.0
H323 H 0.71006 0.55802 0.1079 0.0
O324 O 0.68986 0.55469 0.31581 0.0
O325 O 0.73102 0.58746 0.25592 0.0
O326 O 0.71518 0.53778 0.25411 0.0
O327 O 0.68575 0.55389 0.20587 0.0
H328 H 0.66813 0.558 0.38813 0.0
H329 H 0.69824 0.52154 0.33198 0.0
H330 H 0.65717 0.53375 0.45783 0.0
H331 H 0.68684 0.4981 0.40259 0.0
H332 H 0.76521 0.65495 0.18377 0.0
H333 H 0.73555 0.61242 0.32926 0.0
H334 H 0.74795 0.61363 0.18262 0.0
H335 H 0.75303 0.65374 0.32789 0.0
H336 H 0.74703 0.58604 0.45877 0.0
H337 H 0.77648 0.55206 0.38786 0.0
H338 H 0.64479 0.59155 0.33849 0.0
H339 H 0.69261 0.64557 0.25267 0.0
H340 H 0.69255 0.52265 0.1752 0.0
H341 H 0.73502 0.51448 0.27313 0.0
H342 H 0.69161 0.49243 0.12746 0.0
H343 H 0.7332 0.48425 0.22368 0.0
H344 H 0.64365 0.54433 0.21403 0.0
H345 H 0.70729 0.58923 0.15151 0.0
H346 H 0.62802 0.5662 0.17811 0.0
H347 H 0.69048 0.61014 0.11614 0.0
H348 H 0.60689 0.48952 0.30923 0.0
H349 H 0.64073 0.45228 0.28517 0.0
H350 H 0.78719 0.57399 0.13654 0.0
H351 H 0.73341 0.55942 0.0412 0.0
Li352 Li 0.16419 0.71779 0.634 0.0
Li353 Li 0.12725 0.69806 0.59862 0.0
Li354 Li 0.15304 0.68198 0.60059 0.0
Li355 Li 0.16172 0.71391 0.5499 0.0
C356 C 0.13906 0.69132 0.69939 0.0
N357 N 0.14168 0.69841 0.79411 0.0
C358 C 0.12525 0.69802 0.72093 0.0
C359 C 0.154 0.68795 0.72613 0.0
C360 C 0.12686 0.70156 0.76884 0.0
C361 C 0.15515 0.69172 0.77393 0.0
C362 C 0.14256 0.74059 0.563 0.0
C363 C 0.11985 0.74022 0.49905 0.0
N364 N 0.12688 0.76216 0.50682 0.0
C365 C 0.14955 0.76312 0.57036 0.0
C366 C 0.12758 0.72902 0.52708 0.0
C367 C 0.14143 0.77373 0.54159 0.0
C368 C 0.19948 0.73918 0.6986 0.0
N369 N 0.18 0.73741 0.68364 0.0
C370 C 0.18099 0.76138 0.74438 0.0
C371 C 0.17082 0.74844 0.70507 0.0
C372 C 0.2008 0.763 0.7611 0.0
C373 C 0.21021 0.75193 0.73769 0.0
H374 H 0.20647 0.73038 0.68071 0.0
H375 H 0.15529 0.74668 0.69228 0.0
C376 C 0.08109 0.66807 0.59704 0.0
N377 N 0.09651 0.68974 0.60508 0.0
C378 C 0.05844 0.6602 0.60552 0.0
C379 C 0.06791 0.69682 0.63233 0.0
C380 C 0.09043 0.70406 0.62297 0.0
C381 C 0.05092 0.67478 0.62103 0.0
H382 H 0.08651 0.65665 0.58548 0.0
H383 H 0.10319 0.72089 0.63195 0.0
C384 C 0.19707 0.70268 0.58729 0.0
N385 N 0.22694 0.68741 0.57659 0.0
C386 C 0.20658 0.70365 0.5439 0.0
C387 C 0.20289 0.69405 0.62529 0.0
C388 C 0.22161 0.69582 0.53919 0.0
C389 C 0.21798 0.68638 0.61916 0.0
C390 C 0.13158 0.67337 0.50562 0.0
C391 C 0.14834 0.67041 0.48565 0.0
C392 C 0.11158 0.66645 0.48163 0.0
C393 C 0.1448 0.66051 0.44192 0.0
C394 C 0.10867 0.6566 0.43797 0.0
N395 N 0.1252 0.65386 0.41918 0.0
C396 C 0.13885 0.64161 0.64607 0.0
C397 C 0.1626 0.64579 0.58351 0.0
C398 C 0.13598 0.62065 0.65642 0.0
N399 N 0.15168 0.65366 0.60967 0.0
C400 C 0.16008 0.62473 0.59266 0.0
C401 C 0.14505 0.61068 0.6274 0.0
H402 H 0.1308 0.64829 0.66756 0.0
H403 H 0.17359 0.6559 0.55591 0.0
C404 C 0.19695 0.74768 0.49978 0.0
N405 N 0.17589 0.7301 0.49374 0.0
C406 C 0.20912 0.76098 0.46214 0.0
C407 C 0.17758 0.73826 0.41248 0.0
C408 C 0.16597 0.72534 0.4512 0.0
C409 C 0.19946 0.75626 0.41786 0.0
H410 H 0.20434 0.75129 0.53404 0.0
H411 H 0.14904 0.71166 0.44722 0.0
O412 O 0.13827 0.68851 0.65226 0.0
O413 O 0.15062 0.73013 0.59065 0.0
O414 O 0.1824 0.71038 0.59268 0.0
O415 O 0.1348 0.6833 0.5481 0.0
H416 H 0.11361 0.70074 0.70084 0.0
H417 H 0.16478 0.68272 0.71008 0.0
H418 H 0.11638 0.70691 0.78591 0.0
H419 H 0.1668 0.68939 0.79496 0.0
H420 H 0.10828 0.73147 0.47111 0.0
H421 H 0.16118 0.77231 0.598 0.0
H422 H 0.12199 0.7116 0.5208 0.0
H423 H 0.14671 0.79118 0.54687 0.0
H424 H 0.17337 0.76974 0.76196 0.0
H425 H 0.22552 0.75296 0.74993 0.0
H426 H 0.04719 0.64248 0.60136 0.0
H427 H 0.06471 0.70854 0.65024 0.0
H428 H 0.20232 0.71022 0.51402 0.0
H429 H 0.19564 0.69301 0.65906 0.0
H430 H 0.229 0.6964 0.50576 0.0
H431 H 0.2225 0.67954 0.64822 0.0
H432 H 0.16399 0.67598 0.50342 0.0
H433 H 0.09848 0.66874 0.49653 0.0
H434 H 0.15768 0.65819 0.42598 0.0
H435 H 0.09328 0.65118 0.41899 0.0
H436 H 0.12698 0.61286 0.68787 0.0
H437 H 0.17051 0.62026 0.573 0.0
H438 H 0.22593 0.7748 0.46746 0.0
H439 H 0.16961 0.73431 0.37874 0.0
Li440 Li 0.45155 0.15925 0.95983 0.0
Li441 Li 0.43593 0.12329 0.92058 0.0
Li442 Li 0.47713 0.14957 0.92206 0.0
Li443 Li 0.45146 0.15831 0.87607 0.0
C444 C 0.46117 0.1278 0.01441 0.0
N445 N 0.47053 0.1142 0.09752 0.0
C446 C 0.44455 0.10893 0.03736 0.0
C447 C 0.48251 0.13987 0.03405 0.0
C448 C 0.44962 0.1023 0.07925 0.0
C449 C 0.48692 0.13269 0.07599 0.0
C450 C 0.4055 0.13729 0.94286 0.0
C451 C 0.36726 0.12898 0.94905 0.0
N452 N 0.36622 0.12111 0.99279 0.0
C453 C 0.40405 0.12913 0.9879 0.0
C454 C 0.38697 0.13725 0.92328 0.0
C455 C 0.38406 0.12103 0.01256 0.0
C456 C 0.44102 0.18933 1.00368 0.0
N457 N 0.44829 0.17463 0.01196 0.0
C458 C 0.45127 0.18267 0.09309 0.0
C459 C 0.45322 0.17102 0.05568 0.0
C460 C 0.44437 0.19826 0.08528 0.0
C461 C 0.43914 0.20161 0.0401 0.0
H462 H 0.43697 0.19169 0.96866 0.0
H463 H 0.45876 0.15925 0.06183 0.0
C464 C 0.42545 0.07959 0.93613 0.0
N465 N 0.4154 0.09182 0.92724 0.0
C466 C 0.41284 0.05747 0.95118 0.0
C467 C 0.37949 0.06039 0.94496 0.0
C468 C 0.39276 0.08248 0.92975 0.0
C469 C 0.38969 0.04792 0.95697 0.0
H470 H 0.44347 0.08748 0.93413 0.0
H471 H 0.38503 0.09234 0.92195 0.0
C472 C 0.4853 0.19854 0.93694 0.0
N473 N 0.50095 0.23951 0.97939 0.0
C474 C 0.48008 0.21408 0.91856 0.0
C475 C 0.49865 0.20389 0.97662 0.0
C476 C 0.48812 0.2347 0.94059 0.0
C477 C 0.50634 0.22467 0.99766 0.0
C478 C 0.44664 0.12118 0.8283 0.0
C479 C 0.45743 0.11455 0.79647 0.0
C480 C 0.42463 0.11608 0.81994 0.0
C481 C 0.44601 0.10288 0.75668 0.0
C482 C 0.41378 0.10439 0.77975 0.0
N483 N 0.4246 0.09809 0.74921 0.0
C484 C 0.50491 0.13169 0.93987 0.0
C485 C 0.5245 0.17102 0.92912 0.0
C486 C 0.52449 0.13227 0.95433 0.0
N487 N 0.50519 0.15095 0.92872 0.0
C488 C 0.54453 0.17234 0.94305 0.0
C489 C 0.54444 0.15284 0.95686 0.0
H490 H 0.48921 0.11604 0.93997 0.0
H491 H 0.52417 0.18608 0.92064 0.0
C492 C 0.43307 0.17877 0.81956 0.0
N493 N 0.44937 0.17322 0.82159 0.0
C494 C 0.4322 0.19132 0.78231 0.0
C495 C 0.46483 0.19214 0.74971 0.0
C496 C 0.46504 0.1795 0.78753 0.0
C497 C 0.44836 0.19833 0.74709 0.0
H498 H 0.42104 0.17389 0.84744 0.0
H499 H 0.47796 0.17507 0.79025 0.0
O500 O 0.45655 0.13436 0.97296 0.0
O501 O 0.42492 0.14546 0.91797 0.0
O502 O 0.47713 0.17807 0.91653 0.0
O503 O 0.4577 0.13274 0.86722 0.0
H504 H 0.42784 0.09954 0.02321 0.0
H505 H 0.49548 0.15476 0.01743 0.0
H506 H 0.43691 0.0877 0.09728 0.0
H507 H 0.50336 0.14186 0.09152 0.0
H508 H 0.35278 0.12881 0.93428 0.0
H509 H 0.41814 0.129 1.00369 0.0
H510 H 0.38777 0.14345 0.88843 0.0
H511 H 0.38272 0.11465 0.04741 0.0
H512 H 0.45544 0.17981 0.12771 0.0
H513 H 0.43377 0.2136 0.0332 0.0
H514 H 0.42115 0.04822 0.96018 0.0
H515 H 0.36161 0.05336 0.94887 0.0
H516 H 0.46975 0.21018 0.88788 0.0
H517 H 0.50277 0.19201 0.99136 0.0
H518 H 0.48411 0.24685 0.92693 0.0
H519 H 0.51653 0.22898 0.02861 0.0
H520 H 0.47448 0.1184 0.80245 0.0
H521 H 0.41598 0.12107 0.84411 0.0
H522 H 0.45416 0.09764 0.73172 0.0
H523 H 0.39676 0.10033 0.77283 0.0
H524 H 0.52396 0.11698 0.96494 0.0
H525 H 0.55972 0.18845 0.94483 0.0
H526 H 0.4193 0.19587 0.78136 0.0
H527 H 0.47756 0.19731 0.72311 0.0
Li528 Li 0.5402 0.68469 0.40842 0.0
Li529 Li 0.56534 0.71604 0.46003 0.0
Li530 Li 0.5666 0.72112 0.37512 0.0
Li531 Li 0.58093 0.69866 0.41128 0.0
C532 C 0.5327 0.72649 0.4042 0.0
N533 N 0.51687 0.75396 0.37409 0.0
C534 C 0.53592 0.74464 0.43125 0.0
C535 C 0.52135 0.72225 0.36193 0.0
C536 C 0.52778 0.75833 0.41542 0.0
C537 C 0.51351 0.73637 0.34727 0.0
C538 C 0.55435 0.67905 0.50718 0.0
C539 C 0.56727 0.68232 0.58602 0.0
N540 N 0.54569 0.67015 0.60066 0.0
C541 C 0.5323 0.66647 0.5229 0.0
C542 C 0.572 0.68694 0.53885 0.0
C543 C 0.52827 0.66217 0.57035 0.0
C544 C 0.5107 0.63837 0.39738 0.0
N545 N 0.51172 0.65853 0.39834 0.0
C546 C 0.47357 0.64175 0.37387 0.0
C547 C 0.49355 0.66047 0.38793 0.0
C548 C 0.47243 0.62098 0.37065 0.0
C549 C 0.4911 0.61925 0.38328 0.0
H550 H 0.52538 0.63731 0.40596 0.0
H551 H 0.49471 0.67661 0.38932 0.0
C552 C 0.58583 0.751 0.52654 0.0
N553 N 0.56697 0.73124 0.51728 0.0
C554 C 0.58658 0.76397 0.56453 0.0
C555 C 0.5487 0.73579 0.58361 0.0
C556 C 0.54857 0.72349 0.54493 0.0
C557 C 0.56777 0.75647 0.59332 0.0
H558 H 0.60007 0.75706 0.50353 0.0
H559 H 0.53353 0.70812 0.53609 0.0
C560 C 0.5513 0.6747 0.32571 0.0
N561 N 0.53055 0.63985 0.26337 0.0
C562 C 0.55564 0.65701 0.32688 0.0
C563 C 0.53626 0.67456 0.29306 0.0
C564 C 0.54497 0.63954 0.2951 0.0
C565 C 0.52605 0.65687 0.26167 0.0
C566 C 0.61431 0.73972 0.41544 0.0
C567 C 0.62538 0.74982 0.37414 0.0
C568 C 0.62626 0.73769 0.45241 0.0
C569 C 0.64827 0.75752 0.37034 0.0
C570 C 0.64913 0.74558 0.44723 0.0
N571 N 0.65956 0.75524 0.40664 0.0
C572 C 0.57287 0.76106 0.33187 0.0
C573 C 0.57299 0.73393 0.28175 0.0
C574 C 0.57446 0.77439 0.29398 0.0
N575 N 0.57141 0.74091 0.32494 0.0
C576 C 0.57473 0.74675 0.24298 0.0
C577 C 0.57502 0.76697 0.24904 0.0
H578 H 0.57227 0.76653 0.36668 0.0
H579 H 0.57264 0.71826 0.27732 0.0
C580 C 0.60461 0.67492 0.42832 0.0
N581 N 0.60226 0.6893 0.39977 0.0
C582 C 0.61706 0.66509 0.41382 0.0
C583 C 0.62499 0.68565 0.34176 0.0
C584 C 0.61239 0.695 0.35751 0.0
C585 C 0.62697 0.67012 0.36963 0.0
H586 H 0.59593 0.67027 0.46126 0.0
H587 H 0.60965 0.70591 0.33495 0.0
O588 O 0.54068 0.71298 0.41898 0.0
O589 O 0.55862 0.68366 0.461 0.0
O590 O 0.56175 0.69212 0.35621 0.0
O591 O 0.59183 0.73165 0.4195 0.0
H592 H 0.5447 0.74821 0.46399 0.0
H593 H 0.51891 0.70843 0.34034 0.0
H594 H 0.5302 0.77246 0.43594 0.0
H595 H 0.50484 0.73338 0.31449 0.0
H596 H 0.58076 0.68843 0.611 0.0
H597 H 0.51846 0.66025 0.49876 0.0
H598 H 0.58915 0.69662 0.52713 0.0
H599 H 0.5113 0.65255 0.58308 0.0
H600 H 0.45936 0.64353 0.36442 0.0
H601 H 0.49066 0.60339 0.38116 0.0
H602 H 0.60151 0.77991 0.57088 0.0
H603 H 0.53385 0.72958 0.60495 0.0
H604 H 0.56694 0.6566 0.35229 0.0
H605 H 0.53253 0.688 0.2919 0.0
H606 H 0.54815 0.62573 0.29568 0.0
H607 H 0.51446 0.6566 0.2361 0.0
H608 H 0.61635 0.7515 0.34519 0.0
H609 H 0.61791 0.72995 0.48462 0.0
H610 H 0.65705 0.76526 0.3385 0.0
H611 H 0.65857 0.74401 0.47545 0.0
H612 H 0.57483 0.79007 0.29951 0.0
H613 H 0.57536 0.74077 0.20859 0.0
H614 H 0.61819 0.65302 0.43592 0.0
H615 H 0.63229 0.6897 0.30737 0.0
Li616 Li 0.85558 0.56238 0.80002 0.0
Li617 Li 0.86392 0.53842 0.74756 0.0
Li618 Li 0.88964 0.57886 0.74967 0.0
Li619 Li 0.85193 0.56283 0.71449 0.0
C620 C 0.89409 0.56662 0.84153 0.0
N621 N 0.91769 0.5859 0.92192 0.0
C622 C 0.89896 0.55406 0.87244 0.0
C623 C 0.90121 0.58896 0.85148 0.0
C624 C 0.91092 0.56411 0.91292 0.0
C625 C 0.91313 0.59842 0.89229 0.0
C626 C 0.81356 0.52788 0.74249 0.0
C627 C 0.78593 0.50808 0.68319 0.0
N628 N 0.77039 0.50974 0.70915 0.0
C629 C 0.79726 0.52923 0.76874 0.0
C630 C 0.80782 0.51708 0.69949 0.0
C631 C 0.77555 0.52001 0.75123 0.0
C632 C 0.83065 0.57629 0.85274 0.0
N633 N 0.84178 0.56474 0.85609 0.0
C634 C 0.82955 0.55484 0.93478 0.0
C635 C 0.84157 0.5542 0.89616 0.0
C636 C 0.81754 0.56625 0.93179 0.0
C637 C 0.81834 0.57723 0.8903 0.0
H638 H 0.83081 0.58425 0.8203 0.0
H639 H 0.85033 0.54491 0.89784 0.0
C640 C 0.88203 0.50993 0.73465 0.0
N641 N 0.86256 0.5103 0.738 0.0
C642 C 0.88185 0.49055 0.72014 0.0
C643 C 0.84151 0.47186 0.71552 0.0
C644 C 0.84248 0.49164 0.72982 0.0
C645 C 0.86141 0.47139 0.70967 0.0
H646 H 0.89777 0.52497 0.7415 0.0
H647 H 0.82723 0.49225 0.7331 0.0
C648 C 0.8733 0.61026 0.75272 0.0
N649 N 0.88625 0.65487 0.74215 0.0
C650 C 0.87506 0.61925 0.70843 0.0
C651 C 0.87776 0.62389 0.79168 0.0
C652 C 0.88175 0.64186 0.70379 0.0
C653 C 0.88439 0.64642 0.78561 0.0
C654 C 0.88497 0.54984 0.66449 0.0
C655 C 0.90752 0.55575 0.66505 0.0
C656 C 0.87051 0.53415 0.63223 0.0
C657 C 0.91523 0.54591 0.63324 0.0
C658 C 0.87891 0.52484 0.60074 0.0
N659 N 0.9009 0.53082 0.60195 0.0
C660 C 0.93824 0.60338 0.75979 0.0
C661 C 0.92243 0.61329 0.69762 0.0
C662 C 0.95983 0.61726 0.74208 0.0
N663 N 0.92007 0.60154 0.73715 0.0
C664 C 0.94357 0.62737 0.679 0.0
C665 C 0.96249 0.62911 0.70077 0.0
H666 H 0.936 0.59319 0.79 0.0
H667 H 0.90779 0.61064 0.67888 0.0
C668 C 0.81759 0.56875 0.67412 0.0
N669 N 0.83591 0.56683 0.6654 0.0
C670 C 0.8052 0.57024 0.63739 0.0
C671 C 0.83152 0.56901 0.58377 0.0
C672 C 0.84333 0.56751 0.62143 0.0
C673 C 0.81208 0.57004 0.59172 0.0
H674 H 0.81239 0.56872 0.70952 0.0
H675 H 0.85838 0.56678 0.61555 0.0
O676 O 0.88204 0.55685 0.80223 0.0
O677 O 0.83498 0.53706 0.75882 0.0
O678 O 0.86648 0.58807 0.75806 0.0
O679 O 0.87716 0.5596 0.69484 0.0
H680 H 0.89348 0.53669 0.86527 0.0
H681 H 0.89775 0.59892 0.82774 0.0
H682 H 0.91479 0.55459 0.93719 0.0
H683 H 0.91878 0.61572 0.90036 0.0
H684 H 0.78132 0.49982 0.64983 0.0
H685 H 0.80131 0.5373 0.80228 0.0
H686 H 0.82021 0.51591 0.67867 0.0
H687 H 0.7628 0.52102 0.77112 0.0
H688 H 0.82924 0.54616 0.96633 0.0
H689 H 0.80922 0.58613 0.88679 0.0
H690 H 0.89748 0.49064 0.71598 0.0
H691 H 0.82548 0.45728 0.70779 0.0
H692 H 0.87143 0.60894 0.67788 0.0
H693 H 0.87603 0.61715 0.82631 0.0
H694 H 0.88332 0.64905 0.66969 0.0
H695 H 0.88797 0.65717 0.81545 0.0
H696 H 0.91896 0.56765 0.68995 0.0
H697 H 0.853 0.52926 0.63135 0.0
H698 H 0.93263 0.5503 0.6334 0.0
H699 H 0.86792 0.51279 0.57542 0.0
H700 H 0.97414 0.61802 0.75922 0.0
H701 H 0.94508 0.636 0.64663 0.0
H702 H 0.79029 0.5712 0.64437 0.0
H703 H 0.8373 0.56908 0.54879 0.0
Li704 Li 0.329 0.85912 0.08282 0.0
Li705 Li 0.29602 0.85173 0.13352 0.0
Li706 Li 0.29287 0.84955 0.05142 0.0
Li707 Li 0.31449 0.88571 0.0852 0.0
C708 C 0.2874 0.81067 0.07303 0.0
N709 N 0.2606 0.77015 0.02988 0.0
C710 C 0.26502 0.79741 0.08618 0.0
C711 C 0.29619 0.80329 0.0381 0.0
C712 C 0.25173 0.77698 0.06389 0.0
C713 C 0.28235 0.78276 0.01666 0.0
C714 C 0.33954 0.87937 0.17627 0.0
C715 C 0.35652 0.89898 0.24728 0.0
N716 N 0.36318 0.88392 0.25674 0.0
C717 C 0.34668 0.86417 0.1865 0.0
C718 C 0.34462 0.89702 0.20667 0.0
C719 C 0.35856 0.86672 0.22743 0.0
C720 C 0.37297 0.87618 0.05335 0.0
N721 N 0.35536 0.85758 0.07182 0.0
C722 C 0.37443 0.83699 0.0621 0.0
C723 C 0.35584 0.83827 0.07713 0.0
C724 C 0.39247 0.85575 0.04148 0.0
C725 C 0.39183 0.87563 0.03781 0.0
H726 H 0.372 0.89123 0.04928 0.0
H727 H 0.34154 0.82369 0.0917 0.0
C728 C 0.25695 0.82919 0.18901 0.0
N729 N 0.27946 0.83732 0.18983 0.0
C730 C 0.24344 0.81663 0.22618 0.0
C731 C 0.27638 0.82096 0.26488 0.0
C732 C 0.28927 0.83346 0.22695 0.0
C733 C 0.25316 0.81224 0.26446 0.0
H734 H 0.24931 0.83182 0.15876 0.0
H735 H 0.30697 0.83947 0.22681 0.0
C736 C 0.32222 0.88426 0.9916 0.0
N737 N 0.32224 0.90667 0.91215 0.0
C738 C 0.30376 0.88662 0.98093 0.0
C739 C 0.34068 0.89329 0.96185 0.0
C740 C 0.30409 0.898 0.94062 0.0
C741 C 0.34038 0.90458 0.92186 0.0
C742 C 0.27309 0.87479 0.11977 0.0
C743 C 0.25313 0.87391 0.10709 0.0
C744 C 0.28421 0.88615 0.16007 0.0
C745 C 0.2446 0.88441 0.13503 0.0
C746 C 0.27514 0.89642 0.18711 0.0
N747 N 0.25569 0.89535 0.17414 0.0
C748 C 0.25146 0.82589 1.00314 0.0
C749 C 0.28355 0.83075 0.96265 0.0
C750 C 0.23778 0.81428 0.96554 0.0
N751 N 0.27386 0.83377 1.00091 0.0
C752 C 0.27055 0.81929 0.92441 0.0
C753 C 0.24744 0.81094 0.9258 0.0
H754 H 0.24429 0.82857 0.03413 0.0
H755 H 0.3014 0.83717 0.96204 0.0
C756 C 0.34777 0.93055 0.07782 0.0
N757 N 0.32521 0.91686 0.07587 0.0
C758 C 0.35757 0.95254 0.06172 0.0
C759 C 0.3207 0.94621 0.04319 0.0
C760 C 0.31157 0.92433 0.05985 0.0
C761 C 0.34398 0.96034 0.04317 0.0
H762 H 0.35822 0.92398 0.08963 0.0
H763 H 0.29375 0.91297 0.05742 0.0
O764 O 0.30049 0.831 0.09355 0.0
O765 O 0.32834 0.87753 0.1359 0.0
O766 O 0.32235 0.87326 0.031 0.0
O767 O 0.28156 0.86461 0.09245 0.0
H768 H 0.25792 0.80292 0.11293 0.0
H769 H 0.31338 0.81349 0.02701 0.0
H770 H 0.23435 0.76661 0.07352 0.0
H771 H 0.28887 0.77691 0.98933 0.0
H772 H 0.36051 0.91252 0.27121 0.0
H773 H 0.34276 0.85034 0.16352 0.0
H774 H 0.33949 0.90911 0.1989 0.0
H775 H 0.36406 0.85499 0.23596 0.0
H776 H 0.3745 0.82141 0.0653 0.0
H777 H 0.40553 0.89035 0.02199 0.0
H778 H 0.22554 0.80996 0.22463 0.0
H779 H 0.28436 0.81772 0.29382 0.0
H780 H 0.28934 0.8798 1.00358 0.0
H781 H 0.3551 0.8916 0.96956 0.0
H782 H 0.28993 0.89998 0.93199 0.0
H783 H 0.35456 0.91168 0.89855 0.0
H784 H 0.24435 0.86521 0.07591 0.0
H785 H 0.2996 0.88698 0.17055 0.0
H786 H 0.22918 0.88386 0.12561 0.0
H787 H 0.28355 0.90523 0.21844 0.0
H788 H 0.21993 0.80796 0.96735 0.0
H789 H 0.27838 0.81689 0.8941 0.0
H790 H 0.37561 0.96305 0.06185 0.0
H791 H 0.30982 0.95176 0.02875 0.0
Li792 Li 0.47589 0.32628 0.41125 0.0
Li793 Li 0.45089 0.29436 0.46139 0.0
Li794 Li 0.4497 0.29004 0.37639 0.0
Li795 Li 0.43498 0.31184 0.41432 0.0
C796 C 0.48458 0.28563 0.40325 0.0
N797 N 0.50221 0.26038 0.36899 0.0
C798 C 0.48167 0.26687 0.42763 0.0
C799 C 0.49651 0.29158 0.36152 0.0
C800 C 0.49074 0.25433 0.40975 0.0
C801 C 0.50525 0.27857 0.34472 0.0
C802 C 0.4615 0.32958 0.51082 0.0
C803 C 0.44839 0.32436 0.58985 0.0
N804 N 0.46993 0.33435 0.60499 0.0
C805 C 0.4835 0.3399 0.52707 0.0
C806 C 0.44379 0.32185 0.54234 0.0
C807 C 0.48742 0.34214 0.57486 0.0
C808 C 0.50484 0.3726 0.39845 0.0
N809 N 0.50429 0.3527 0.40192 0.0
C810 C 0.5429 0.36998 0.38063 0.0
C811 C 0.52294 0.35119 0.39456 0.0
C812 C 0.5435 0.39037 0.37427 0.0
C813 C 0.52437 0.39175 0.38416 0.0
H814 H 0.48984 0.37339 0.40505 0.0
H815 H 0.52219 0.33529 0.39823 0.0
C816 C 0.4296 0.26226 0.53415 0.0
N817 N 0.44958 0.27902 0.51834 0.0
C818 C 0.42876 0.24948 0.57265 0.0
C819 C 0.46902 0.27161 0.57835 0.0
C820 C 0.46909 0.284 0.53986 0.0
C821 C 0.44868 0.25394 0.59475 0.0
H822 H 0.41435 0.25841 0.51616 0.0
H823 H 0.48478 0.29716 0.52619 0.0
C824 C 0.46442 0.33653 0.3285 0.0
N825 N 0.4849 0.3716 0.26639 0.0
C826 C 0.45952 0.35386 0.32929 0.0
C827 C 0.47972 0.33705 0.29606 0.0
C828 C 0.47007 0.37145 0.29765 0.0
C829 C 0.48986 0.3549 0.26492 0.0
C830 C 0.40188 0.27037 0.41617 0.0
C831 C 0.39098 0.25912 0.3756 0.0
C832 C 0.3897 0.27311 0.45172 0.0
C833 C 0.36804 0.251 0.37107 0.0
C834 C 0.36679 0.26477 0.44581 0.0
N835 N 0.35653 0.254 0.40594 0.0
C836 C 0.4452 0.2515 0.32967 0.0
C837 C 0.44242 0.27817 0.28262 0.0
C838 C 0.44397 0.23902 0.29057 0.0
N839 N 0.44524 0.27109 0.3248 0.0
C840 C 0.44078 0.26606 0.24272 0.0
C841 C 0.44209 0.24657 0.24658 0.0
H842 H 0.4466 0.24581 0.36374 0.0
H843 H 0.44171 0.29338 0.27987 0.0
C844 C 0.41173 0.33603 0.43086 0.0
N845 N 0.41345 0.32101 0.40328 0.0
C846 C 0.39903 0.3456 0.41631 0.0
C847 C 0.3895 0.32337 0.34639 0.0
C848 C 0.40248 0.31441 0.36202 0.0
C849 C 0.38816 0.33957 0.37313 0.0
H850 H 0.42109 0.3414 0.46293 0.0
H851 H 0.40477 0.30305 0.34007 0.0
O852 O 0.47565 0.29799 0.41998 0.0
O853 O 0.45731 0.32663 0.46429 0.0
O854 O 0.45428 0.31915 0.35925 0.0
O855 O 0.42439 0.27878 0.42094 0.0
H856 H 0.47233 0.26186 0.45974 0.0
H857 H 0.49878 0.30593 0.34203 0.0
H858 H 0.48856 0.23974 0.42818 0.0
H859 H 0.51438 0.28291 0.31231 0.0
H860 H 0.43485 0.31832 0.6147 0.0
H861 H 0.49738 0.34589 0.50304 0.0
H862 H 0.42667 0.31382 0.53021 0.0
H863 H 0.50435 0.34997 0.588 0.0
H864 H 0.5575 0.3685 0.37345 0.0
H865 H 0.52441 0.40733 0.37974 0.0
H866 H 0.4128 0.23593 0.58444 0.0
H867 H 0.48469 0.27543 0.59455 0.0
H868 H 0.44793 0.35392 0.35438 0.0
H869 H 0.48371 0.32381 0.29489 0.0
H870 H 0.4665 0.385 0.29802 0.0
H871 H 0.50171 0.35549 0.23962 0.0
H872 H 0.40016 0.25684 0.34779 0.0
H873 H 0.39792 0.28181 0.48328 0.0
H874 H 0.35939 0.24237 0.33977 0.0
H875 H 0.35718 0.26691 0.47289 0.0
H876 H 0.44475 0.22385 0.29446 0.0
H877 H 0.4391 0.27211 0.20913 0.0
H878 H 0.39842 0.3582 0.43754 0.0
H879 H 0.38146 0.31853 0.31277 0.0
Li880 Li 0.15307 0.47297 0.74944 0.0
Li881 Li 0.1608 0.44853 0.79729 0.0
Li882 Li 0.16493 0.44734 0.71617 0.0
Li883 Li 0.12747 0.43057 0.7494 0.0
C884 C 0.20172 0.48175 0.77896 0.0
N885 N 0.24113 0.4968 0.82774 0.0
C886 C 0.2158 0.47317 0.76932 0.0
C887 C 0.20778 0.49814 0.8131 0.0
C888 C 0.23564 0.48096 0.79443 0.0
C889 C 0.22775 0.50548 0.83747 0.0
C890 C 0.13194 0.46146 0.84125 0.0
C891 C 0.11341 0.45726 0.91458 0.0
N892 N 0.1274 0.47932 0.92348 0.0
C893 C 0.146 0.48413 0.85093 0.0
C894 C 0.11537 0.44793 0.8731 0.0
C895 C 0.14349 0.49283 0.89276 0.0
C896 C 0.1324 0.49526 0.71627 0.0
N897 N 0.15201 0.49933 0.7357 0.0
C898 C 0.16818 0.53858 0.72206 0.0
C899 C 0.16978 0.52044 0.73918 0.0
C900 C 0.14829 0.53465 0.70051 0.0
C901 C 0.13021 0.51274 0.69812 0.0
H902 H 0.11871 0.47825 0.71336 0.0
H903 H 0.18532 0.52312 0.754 0.0
C904 C 0.1873 0.43609 0.84886 0.0
N905 N 0.17492 0.4463 0.85414 0.0
C906 C 0.20004 0.43516 0.88557 0.0
C907 C 0.18648 0.45443 0.93364 0.0
C908 C 0.1742 0.45525 0.89575 0.0
C909 C 0.19983 0.44454 0.92852 0.0
H910 H 0.1878 0.42921 0.81551 0.0
H911 H 0.16452 0.46343 0.89964 0.0
C912 C 0.14147 0.45356 0.65032 0.0
N913 N 0.14575 0.45746 0.55499 0.0
C914 C 0.12956 0.43476 0.62223 0.0
C915 C 0.15557 0.47434 0.62997 0.0
C916 C 0.13196 0.43707 0.57409 0.0
C917 C 0.15751 0.47596 0.58169 0.0
C918 C 0.14084 0.40219 0.78408 0.0
C919 C 0.14454 0.38465 0.77285 0.0
C920 C 0.12763 0.40024 0.82248 0.0
C921 C 0.13494 0.3654 0.80031 0.0
C922 C 0.11833 0.38074 0.8491 0.0
N923 N 0.12214 0.36386 0.83756 0.0
C924 C 0.19816 0.46333 0.64734 0.0
C925 C 0.17323 0.42411 0.64612 0.0
C926 C 0.20904 0.46196 0.60781 0.0
N927 N 0.18063 0.44456 0.66545 0.0
C928 C 0.18359 0.42198 0.60643 0.0
C929 C 0.20165 0.44111 0.58699 0.0
H930 H 0.2034 0.47938 0.66322 0.0
H931 H 0.15901 0.40957 0.66106 0.0
C932 C 0.08125 0.41426 0.74944 0.0
N933 N 0.09702 0.40877 0.73825 0.0
C934 C 0.05928 0.40117 0.73368 0.0
C935 C 0.07002 0.37661 0.69641 0.0
C936 C 0.0918 0.39014 0.71305 0.0
C937 C 0.05368 0.38245 0.70591 0.0
H938 H 0.08602 0.42943 0.76867 0.0
H939 H 0.10481 0.38648 0.70381 0.0
O940 O 0.18202 0.474 0.75536 0.0
O941 O 0.13389 0.45267 0.80021 0.0
O942 O 0.13962 0.45157 0.69755 0.0
O943 O 0.15026 0.42115 0.7575 0.0
H944 H 0.2113 0.46036 0.74326 0.0
H945 H 0.19714 0.50503 0.82092 0.0
H946 H 0.2466 0.47434 0.7876 0.0
H947 H 0.23258 0.51804 0.8642 0.0
H948 H 0.10072 0.44697 0.93963 0.0
H949 H 0.1588 0.49485 0.82662 0.0
H950 H 0.10409 0.43043 0.86582 0.0
H951 H 0.15435 0.51032 0.9008 0.0
H952 H 0.18243 0.55533 0.72427 0.0
H953 H 0.11468 0.50919 0.6816 0.0
H954 H 0.21018 0.42744 0.88036 0.0
H955 H 0.18595 0.46183 0.96637 0.0
H956 H 0.11869 0.41854 0.63744 0.0
H957 H 0.16511 0.48903 0.65122 0.0
H958 H 0.12288 0.42266 0.5519 0.0
H959 H 0.16841 0.49192 0.56546 0.0
H960 H 0.15475 0.38593 0.74322 0.0
H961 H 0.12464 0.41363 0.83176 0.0
H962 H 0.13767 0.35169 0.79203 0.0
H963 H 0.1081 0.37902 0.87896 0.0
H964 H 0.22289 0.47698 0.59327 0.0
H965 H 0.17751 0.40571 0.59079 0.0
H966 H 0.04702 0.40612 0.74132 0.0
H967 H 0.06617 0.36231 0.67482 0.0
Li968 Li 0.71712 0.15906 0.13102 0.0
Li969 Li 0.68682 0.15318 0.07979 0.0
Li970 Li 0.69897 0.1255 0.08134 0.0
Li971 Li 0.72301 0.16337 0.04565 0.0
C972 C 0.68075 0.12175 0.1728 0.0
N973 N 0.67243 0.0977 0.25415 0.0
C974 C 0.66493 0.1208 0.20433 0.0
C975 C 0.69222 0.11035 0.18244 0.0
C976 C 0.661 0.10859 0.24534 0.0
C977 C 0.68781 0.09831 0.22379 0.0
C978 C 0.71301 0.19623 0.11542 0.0
C979 C 0.72391 0.23403 0.13702 0.0
N980 N 0.70823 0.22605 0.17123 0.0
C981 C 0.69699 0.1884 0.15079 0.0
C982 C 0.72659 0.21922 0.10846 0.0
C983 C 0.69483 0.20374 0.17862 0.0
C984 C 0.75546 0.18808 0.18004 0.0
N985 N 0.73345 0.17294 0.18695 0.0
C986 C 0.73703 0.18193 0.26793 0.0
C987 C 0.72407 0.16966 0.22987 0.0
C988 C 0.75973 0.19785 0.2615 0.0
C989 C 0.76896 0.20079 0.21697 0.0
H990 H 0.76242 0.19059 0.14547 0.0
H991 H 0.70647 0.15795 0.23452 0.0
C992 C 0.64078 0.13603 0.06737 0.0
N993 N 0.66083 0.15537 0.06718 0.0
C994 C 0.62156 0.13579 0.05139 0.0
C995 C 0.64383 0.17551 0.03681 0.0
C996 C 0.66268 0.17495 0.05254 0.0
C997 C 0.62309 0.15567 0.03544 0.0
H998 H 0.63993 0.12064 0.07818 0.0
H999 H 0.67891 0.18994 0.05137 0.0
C1000 C 0.74585 0.13901 0.09509 0.0
N1001 N 0.77505 0.12294 0.10523 0.0
C1002 C 0.75612 0.136 0.05618 0.0
C1003 C 0.75079 0.13429 0.13926 0.0
C1004 C 0.77072 0.12772 0.06199 0.0
C1005 C 0.7655 0.12606 0.14364 0.0
C1006 C 0.68117 0.13841 0.98993 0.0
C1007 C 0.66314 0.11799 0.97572 0.0
C1008 C 0.68635 0.15794 0.96573 0.0
C1009 C 0.65058 0.11744 0.93723 0.0
C1010 C 0.67342 0.15669 0.92737 0.0
N1011 N 0.65596 0.13663 0.914 0.0
C1012 C 0.66824 0.07867 0.08471 0.0
C1013 C 0.69971 0.08974 0.03588 0.0
C1014 C 0.65843 0.05673 0.06817 0.0
N1015 N 0.68849 0.09466 0.06826 0.0
C1016 C 0.69054 0.06803 0.01849 0.0
C1017 C 0.66948 0.05139 0.03409 0.0
H1018 H 0.65921 0.08315 0.109 0.0
H1019 H 0.71522 0.10291 0.02173 0.0
C1020 C 0.75692 0.20061 0.99794 0.0
N1021 N 0.74258 0.17821 0.99599 0.0
C1022 C 0.76981 0.21189 0.95922 0.0
C1023 C 0.75318 0.17669 0.91787 0.0
C1024 C 0.74066 0.16611 0.95737 0.0
C1025 C 0.76769 0.19985 0.91859 0.0
H1026 H 0.75792 0.20974 0.02914 0.0
H1027 H 0.72895 0.14832 0.95694 0.0
O1028 O 0.6849 0.13384 0.13279 0.0
O1029 O 0.71585 0.18157 0.08839 0.0
O1030 O 0.73173 0.14737 0.09009 0.0
O1031 O 0.69377 0.13924 0.02724 0.0
H1032 H 0.6559 0.12954 0.19727 0.0
H1033 H 0.70422 0.11061 0.15807 0.0
H1034 H 0.64887 0.10779 0.27017 0.0
H1035 H 0.69657 0.0894 0.2317 0.0
H1036 H 0.73432 0.25187 0.13205 0.0
H1037 H 0.68636 0.1707 0.15687 0.0
H1038 H 0.73913 0.22555 0.08137 0.0
H1039 H 0.68254 0.19791 0.20616 0.0
H1040 H 0.72938 0.17935 0.30186 0.0
H1041 H 0.78638 0.21299 0.21078 0.0
H1042 H 0.60577 0.12021 0.05044 0.0
H1043 H 0.6455 0.19106 0.02431 0.0
H1044 H 0.75276 0.13993 0.02182 0.0
H1045 H 0.74345 0.13706 0.16989 0.0
H1046 H 0.77865 0.12514 0.03214 0.0
H1047 H 0.76939 0.12223 0.17759 0.0
H1048 H 0.65893 0.10273 0.99419 0.0
H1049 H 0.70015 0.17391 0.97659 0.0
H1050 H 0.63657 0.10176 0.92576 0.0
H1051 H 0.67721 0.17167 0.90829 0.0
H1052 H 0.64203 0.04427 0.08049 0.0
H1053 H 0.69934 0.06446 0.9918 0.0
H1054 H 0.78088 0.22982 0.96048 0.0
H1055 H 0.75123 0.16707 0.88682 0.0
C1056 C 0.37536 0.37645 0.29541 0.0
C1057 C 0.35577 0.37406 0.31674 0.0
C1058 C 0.35609 0.34723 0.37227 0.0
C1059 C 0.37693 0.35146 0.35397 0.0
N1060 N 0.40841 0.37297 0.30329 0.0
N1061 N 0.3292 0.35986 0.37978 0.0
C1062 C 0.38711 0.36685 0.31686 0.0
C1063 C 0.34653 0.36011 0.35631 0.0
N1064 N 0.38245 0.38751 0.25403 0.0
N1065 N 0.34514 0.33049 0.404 0.0
H1066 H 0.32171 0.369 0.3692 0.0
H1067 H 0.32342 0.35203 0.41174 0.0
H1068 H 0.35169 0.3208 0.41662 0.0
H1069 H 0.32882 0.32498 0.4149 0.0
H1070 H 0.39523 0.38781 0.23431 0.0
H1071 H 0.37419 0.39468 0.23721 0.0
H1072 H 0.41761 0.38588 0.27994 0.0
H1073 H 0.41774 0.36656 0.31846 0.0
C1074 C 0.99073 0.34452 0.69157 0.0
C1075 C 0.98776 0.3496 0.64527 0.0
C1076 C 0.02809 0.37573 0.63822 0.0
C1077 C 0.03117 0.37011 0.68402 0.0
N1078 N 0.01647 0.34659 0.75146 0.0
N1079 N 1.00346 0.3668 0.57166 0.0
C1080 C 0.01277 0.35367 0.70983 0.0
C1081 C 1.00645 0.3642 0.61768 0.0
N1082 N 0.97242 0.33156 0.71857 0.0
N1083 N 0.04572 0.39271 0.61509 0.0
H1084 H 0.98778 0.35888 0.55578 0.0
H1085 H 0.01657 0.37531 0.54834 0.0
H1086 H 0.06192 0.40123 0.62848 0.0
H1087 H 0.04411 0.39943 0.58398 0.0
H1088 H 0.97325 0.32936 0.7541 0.0
H1089 H 0.95607 0.32401 0.70604 0.0
H1090 H 1.00416 0.33305 0.76991 0.0
H1091 H 0.03238 0.35318 0.76601 0.0
C1092 C 0.63939 1.00433 0.94602 0.0
C1093 C 0.6358 0.98558 0.97274 0.0
C1094 C 0.65674 0.01034 0.03755 0.0
C1095 C 0.65833 0.02877 0.01257 0.0
N1096 N 0.64839 0.04303 0.94574 0.0
N1097 N 0.63812 0.97006 0.04617 0.0
C1098 C 0.64896 0.02571 0.96741 0.0
C1099 C 0.64374 0.9884 0.01912 0.0
N1100 N 0.63403 1.00172 0.8999 0.0
N1101 N 0.66809 0.01389 0.0784 0.0
H1102 H 0.62881 0.95372 0.03393 0.0
H1103 H 0.64117 0.97094 0.08171 0.0
H1104 H 0.67765 0.02972 0.09305 0.0
H1105 H 0.66959 1.0015 0.09578 0.0
H1106 H 0.63839 0.01505 0.87733 0.0
H1107 H 0.62688 0.98627 0.88322 0.0
H1108 H 0.63962 0.04122 0.91517 0.0
H1109 H 0.65516 0.05893 0.96023 0.0
C1110 C 0.63713 0.62999 0.2969 0.0
C1111 C 0.65815 0.63435 0.31431 0.0
C1112 C 0.65978 0.66375 0.36483 0.0
C1113 C 0.63781 0.65783 0.35076 0.0
N1114 N 0.60412 0.63327 0.3085 0.0
N1115 N 0.68845 0.6533 0.3688 0.0
C1116 C 0.62609 0.64041 0.31808 0.0
C1117 C 0.66926 0.65074 0.34928 0.0
N1118 N 0.62799 0.61627 0.25937 0.0
N1119 N 0.67177 0.68215 0.39212 0.0
H1120 H 0.69608 0.64434 0.3579 0.0
H1121 H 0.69595 0.66308 0.39799 0.0
H1122 H 0.66524 0.69187 0.4046 0.0
H1123 H 0.6887 0.68882 0.39945 0.0
H1124 H 0.6139 0.61425 0.2419 0.0
H1125 H 0.63562 0.60835 0.24304 0.0
H1126 H 0.59395 0.61906 0.289 0.0
H1127 H 0.59541 0.64045 0.32321 0.0
C1128 C 0.98984 0.63141 0.64055 0.0
C1129 C 0.98459 0.6417 0.67725 0.0
C1130 C 0.0181 0.67728 0.65838 0.0
C1131 C 0.02602 0.66579 0.63043 0.0
N1132 N 0.01166 0.63775 0.57075 0.0
N1133 N 0.99371 0.67495 0.72098 0.0
C1134 C 0.00964 0.64436 0.61421 0.0
C1135 C 0.99875 0.66479 0.68625 0.0
N1136 N 0.97625 0.60919 0.63141 0.0
N1137 N 0.02591 0.69944 0.65104 0.0
H1138 H 0.97937 0.6665 0.74143 0.0
H1139 H 1.00471 0.69133 0.73138 0.0
H1140 H 0.03574 0.7076 0.6221 0.0
H1141 H 0.0195 0.70836 0.66793 0.0
H1142 H 0.98062 0.60044 0.60823 0.0
H1143 H 0.96147 0.59913 0.64958 0.0
H1144 H 0.99925 0.62325 0.555 0.0
H1145 H 0.02458 0.64841 0.54851 0.0
C1146 C 0.35819 0.9846 0.97203 0.0
C1147 C 0.35435 0.98273 0.0207 0.0
C1148 C 0.37359 0.02359 0.02753 0.0
C1149 C 0.37653 0.02542 0.9786 0.0
N1150 N 0.36883 0.0081 0.90329 0.0
N1151 N 0.355 0.99976 0.09394 0.0
C1152 C 0.36794 0.00602 0.95054 0.0
C1153 C 0.36104 1.00206 0.04821 0.0
N1154 N 0.3532 0.96596 0.94666 0.0
N1155 N 0.38342 0.04245 0.05432 0.0
H1156 H 0.34612 0.98425 0.11029 0.0
H1157 H 0.35721 0.01299 0.11483 0.0
H1158 H 0.39215 0.05853 0.04044 0.0
H1159 H 0.38422 0.04221 0.09036 0.0
H1160 H 0.35788 0.96641 0.91218 0.0
H1161 H 0.34563 0.94995 0.96096 0.0
H1162 H 0.36079 0.99463 0.88067 0.0
H1163 H 0.37624 0.02355 0.8865 0.0
C1164 C 0.2093 0.42394 0.9886 0.0
C1165 C 0.21401 0.44444 0.96763 0.0
C1166 C 0.24446 0.46486 0.02352 0.0
C1167 C 0.2412 0.44428 0.04138 0.0
N1168 N 0.22325 0.40417 0.03472 0.0
N1169 N 0.23902 0.48413 0.95904 0.0
C1170 C 0.22438 0.42378 0.02212 0.0
C1171 C 0.23245 0.46484 0.98337 0.0
N1172 N 0.19 0.40469 0.97775 0.0
N1173 N 0.25836 0.48442 0.04595 0.0
H1174 H 0.23088 0.48481 0.92914 0.0
H1175 H 0.25376 0.499 0.96597 0.0
H1176 H 0.26719 0.48518 0.07589 0.0
H1177 H 0.25951 0.4996 0.03742 0.0
H1178 H 0.18452 0.3897 0.99546 0.0
H1179 H 0.17837 0.40417 0.95394 0.0
H1180 H 0.21288 0.38899 0.01835 0.0
H1181 H 0.23422 0.40341 0.05856 0.0
C1182 C 0.78225 0.24068 0.35997 0.0
C1183 C 0.80106 0.23912 0.3746 0.0
C1184 C 0.79125 0.2088 0.31858 0.0
C1185 C 0.77377 0.21187 0.30096 0.0
N1186 N 0.75528 0.23362 0.29909 0.0
N1187 N 0.82585 0.22449 0.36234 0.0
C1188 C 0.77 0.22863 0.32006 0.0
C1189 C 0.80624 0.22394 0.35233 0.0
N1190 N 0.77555 0.25303 0.38519 0.0
N1191 N 0.7931 0.19095 0.30419 0.0
H1192 H 0.83735 0.23548 0.38649 0.0
H1193 H 0.8317 0.21553 0.34377 0.0
H1194 H 0.78234 0.1794 0.27987 0.0
H1195 H 0.80396 0.18645 0.31935 0.0
H1196 H 0.76057 0.25281 0.37922 0.0
H1197 H 0.78393 0.26196 0.41481 0.0
H1198 H 0.75364 0.24729 0.30837 0.0
H1199 H 0.74612 0.22535 0.2696 0.0
C1200 C 0.58306 0.79 0.70636 0.0
C1201 C 0.56724 0.79743 0.70661 0.0
C1202 C 0.55366 0.78021 0.63014 0.0
C1203 C 0.5677 0.77067 0.63237 0.0
N1204 N 0.59307 0.76341 0.67644 0.0
N1205 N 0.53468 0.79612 0.67257 0.0
C1206 C 0.58169 0.77474 0.67156 0.0
C1207 C 0.55176 0.79158 0.66951 0.0
N1208 N 0.59986 0.7981 0.7385 0.0
N1209 N 0.54273 0.77912 0.58982 0.0
H1210 H 0.53253 0.80419 0.70099 0.0
H1211 H 0.5215 0.79008 0.64899 0.0
H1212 H 0.54397 0.77131 0.55993 0.0
H1213 H 0.53417 0.78778 0.5846 0.0
H1214 H 0.61324 0.79516 0.73712 0.0
H1215 H 0.6016 0.80951 0.76414 0.0
H1216 H 0.60162 0.76387 0.70656 0.0
H1217 H 0.5923 0.75191 0.65204 0.0
C1218 C 0.79532 0.58694 0.03006 0.0
C1219 C 0.77631 0.5667 0.04465 0.0
C1220 C 0.78342 0.54644 0.98312 0.0
C1221 C 0.80358 0.56627 0.97142 0.0
N1222 N 0.83076 0.60456 0.98899 0.0
N1223 N 0.7546 0.52646 0.04083 0.0
C1224 C 0.81011 0.58631 0.99641 0.0
C1225 C 0.77101 0.54622 0.02277 0.0
N1226 N 0.79885 0.60688 0.04724 0.0
N1227 N 0.77567 0.528 0.95536 0.0
H1228 H 0.74522 0.52555 0.06998 0.0
H1229 H 0.75164 0.51091 0.02952 0.0
H1230 H 0.78414 0.52749 0.92586 0.0
H1231 H 0.75989 0.51392 0.95917 0.0
H1232 H 0.81101 0.62232 0.03435 0.0
H1233 H 0.78833 0.60804 0.07164 0.0
H1234 H 0.83745 0.61886 0.00952 0.0
H1235 H 0.84209 0.60468 0.9649 0.0
C1236 C 0.22232 0.76207 0.34556 0.0
C1237 C 0.21241 0.77025 0.37736 0.0
C1238 C 0.23029 0.80643 0.33681 0.0
C1239 C 0.23891 0.79773 0.30319 0.0
N1240 N 0.23999 0.76617 0.27061 0.0
N1241 N 0.20375 0.7987 0.39922 0.0
C1242 C 0.23401 0.77521 0.30616 0.0
C1243 C 0.21548 0.79202 0.3718 0.0
N1244 N 0.22123 0.74208 0.35389 0.0
N1245 N 0.23683 0.82865 0.33616 0.0
H1246 H 0.19282 0.78863 0.42521 0.0
H1247 H 0.20336 0.81339 0.39378 0.0
H1248 H 0.24747 0.83964 0.31088 0.0
H1249 H 0.23317 0.83658 0.36258 0.0
H1250 H 0.23025 0.73639 0.33507 0.0
H1251 H 0.21265 0.73187 0.38205 0.0
H1252 H 0.23476 0.74923 0.2682 0.0
H1253 H 0.24866 0.77527 0.24133 0.0
C1254 C 0.45476 0.23527 0.71622 0.0
C1255 C 0.44832 0.21255 0.70805 0.0
C1256 C 0.44396 0.21757 0.62502 0.0
C1257 C 0.44838 0.23963 0.63393 0.0
N1258 N 0.45444 0.26833 0.68901 0.0
N1259 N 0.43315 0.18094 0.65629 0.0
C1260 C 0.45279 0.24816 0.67987 0.0
C1261 C 0.4419 0.20338 0.66285 0.0
N1262 N 0.46351 0.24476 0.75828 0.0
N1263 N 0.44253 0.21043 0.58026 0.0
H1264 H 0.43136 0.17001 0.68309 0.0
H1265 H 0.42589 0.17285 0.62526 0.0
H1266 H 0.44404 0.22031 0.55161 0.0
H1267 H 0.44181 0.19548 0.5714 0.0
H1268 H 0.47076 0.2618 0.76478 0.0
H1269 H 0.46533 0.23593 0.78569 0.0
H1270 H 0.4552 0.27437 0.72244 0.0
H1271 H 0.45311 0.27825 0.66332 0.0
C1272 C 0.22771 0.43122 0.5466 0.0
C1273 C 0.21264 0.43949 0.5442 0.0
C1274 C 0.22167 0.44879 0.46207 0.0
C1275 C 0.23582 0.43942 0.46388 0.0
N1276 N 0.24916 0.41789 0.50457 0.0
N1277 N 0.19176 0.45201 0.49844 0.0
C1278 C 0.23786 0.42943 0.50521 0.0
C1279 C 0.20854 0.44702 0.50149 0.0
N1280 N 0.233 0.42592 0.58866 0.0
N1281 N 0.22147 0.46015 0.42338 0.0
H1282 H 0.18181 0.45089 0.52669 0.0
H1283 H 0.18641 0.45536 0.46725 0.0
H1284 H 0.2307 0.46164 0.3936 0.0
H1285 H 0.2135 0.46954 0.42194 0.0
H1286 H 0.24576 0.42224 0.59328 0.0
H1287 H 0.2258 0.42687 0.61976 0.0
H1288 H 0.24928 0.40828 0.53228 0.0
H1289 H 0.25686 0.41631 0.47482 0.0
C1290 C 0.81475 0.23094 0.83163 0.0
C1291 C 0.80321 0.23531 0.79616 0.0
C1292 C 0.76861 0.2171 0.84164 0.0
C1293 C 0.77985 0.21168 0.87601 0.0
N1294 N 0.81228 0.21009 0.90133 0.0
N1295 N 0.76875 0.22981 0.76308 0.0
C1296 C 0.80256 0.21763 0.8703 0.0
C1297 C 0.77998 0.22753 0.79987 0.0
N1298 N 0.83745 0.24007 0.8289 0.0
N1299 N 0.74734 0.21294 0.84967 0.0
H1300 H 0.77664 0.23772 0.73221 0.0
H1301 H 0.75142 0.22238 0.76157 0.0
H1302 H 0.73831 0.205 0.87956 0.0
H1303 H 0.73915 0.21875 0.82845 0.0
H1304 H 0.84723 0.23971 0.85598 0.0
H1305 H 0.84684 0.2494 0.80045 0.0
H1306 H 0.82799 0.21178 0.89656 0.0
H1307 H 0.80391 0.20058 0.93043 0.0
C1308 C 0.55405 0.78966 0.1533 0.0
C1309 C 0.5741 0.80274 0.12796 0.0
C1310 C 0.59517 0.79422 0.1848 0.0
C1311 C 0.57484 0.77976 0.20801 0.0
N1312 N 0.53455 0.76107 0.21164 0.0
N1313 N 0.61317 0.8155 0.11522 0.0
C1314 C 0.55415 0.77675 0.19153 0.0
C1315 C 0.59455 0.80451 0.14252 0.0
N1316 N 0.53509 0.79013 0.14161 0.0
N1317 N 0.61507 0.79849 0.20383 0.0
H1318 H 0.61334 0.82343 0.08428 0.0
H1319 H 0.62797 0.8154 0.12124 0.0
H1320 H 0.61608 0.79096 0.23442 0.0
H1321 H 0.6306 0.81066 0.19139 0.0
H1322 H 0.52066 0.78302 0.16184 0.0
H1323 H 0.53424 0.79912 0.11336 0.0
H1324 H 0.51883 0.75622 0.19792 0.0
H1325 H 0.53394 0.7516 0.24039 0.0
C1326 C 0.79542 0.58958 0.48357 0.0
C1327 C 0.77533 0.56986 0.47144 0.0
C1328 C 0.77929 0.55021 0.53825 0.0
C1329 C 0.79871 0.57028 0.55182 0.0
N1330 N 0.82328 0.60995 0.54279 0.0
N1331 N 0.74579 0.53273 0.49089 0.0
C1332 C 0.80619 0.59027 0.52604 0.0
C1333 C 0.76655 0.55055 0.49993 0.0
N1334 N 0.80452 0.60738 0.45377 0.0
N1335 N 0.77353 0.53066 0.56092 0.0
H1336 H 0.73606 0.53226 0.46275 0.0
H1337 H 0.73741 0.51918 0.51326 0.0
H1338 H 0.78227 0.52976 0.58956 0.0
H1339 H 0.76112 0.51506 0.54935 0.0
H1340 H 0.82037 0.62128 0.45806 0.0
H1341 H 0.7969 0.60758 0.42266 0.0
H1342 H 0.82804 0.62548 0.52821 0.0
H1343 H 0.83159 0.61099 0.57374 0.0
C1344 C 0.20944 0.76354 0.84483 0.0
C1345 C 0.21145 0.77567 0.80402 0.0
C1346 C 0.23357 0.81093 0.8456 0.0
C1347 C 0.23357 0.7987 0.88521 0.0
N1348 N 0.22343 0.76358 0.92226 0.0
N1349 N 0.22706 0.81061 0.76276 0.0
C1350 C 0.22185 0.77498 0.885 0.0
C1351 C 0.22384 0.79933 0.80362 0.0
N1352 N 0.19508 0.74105 0.84389 0.0
N1353 N 0.24258 0.83358 0.84851 0.0
H1354 H 0.22004 0.80258 0.73146 0.0
H1355 H 0.23794 0.82771 0.75907 0.0
H1356 H 0.24995 0.84259 0.87872 0.0
H1357 H 0.24116 0.84321 0.82241 0.0
H1358 H 0.19097 0.73046 0.87249 0.0
H1359 H 0.19097 0.73046 0.87249 0.0
H1360 H 0.21763 0.74649 0.92227 0.0
H1361 H 0.232 0.77147 0.95256 0.0
C1362 C 0.46349 0.23032 0.14048 0.0
C1363 C 0.44341 0.21152 0.12464 0.0
C1364 C 0.42245 0.2155 0.18903 0.0
C1365 C 0.44242 0.23458 0.20428 0.0
N1366 N 0.48143 0.2618 0.19335 0.0
N1367 N 0.40346 0.18738 0.12936 0.0
C1368 C 0.46281 0.24249 0.17957 0.0
C1369 C 0.42276 0.20447 0.14761 0.0
N1370 N 0.48327 0.23613 0.11863 0.0
N1371 N 0.40334 0.20773 0.21485 0.0
H1372 H 0.40319 0.17841 0.10005 0.0
H1373 H 0.38751 0.18279 0.1413 0.0
H1374 H 0.40228 0.21595 0.24423 0.0
H1375 H 0.3888 0.19258 0.20892 0.0
H1376 H 0.49892 0.24786 0.13131 0.0
H1377 H 0.48425 0.22842 0.08834 0.0
H1378 H 0.49613 0.26999 0.17414 0.0
H1379 H 0.48196 0.2705 0.2233 0.0
C1380 C 0.41371 0.57023 0.36268 0.0
C1381 C 0.41415 0.56273 0.31704 0.0
C1382 C 0.45158 0.59504 0.30487 0.0
C1383 C 0.45206 0.60123 0.352 0.0
N1384 N 0.43486 0.59367 0.42758 0.0
N1385 N 0.4342 0.56619 0.24622 0.0
C1386 C 0.43343 0.58857 0.38142 0.0
C1387 C 0.43326 0.57469 0.28844 0.0
N1388 N 0.39425 0.56011 0.38764 0.0
N1389 N 0.4684 0.60895 0.27555 0.0
H1390 H 0.42096 0.55153 0.23268 0.0
H1391 H 0.44863 0.57271 0.22605 0.0
H1392 H 0.48208 0.62394 0.28649 0.0
H1393 H 0.46795 0.60664 0.23979 0.0
H1394 H 0.39212 0.5662 0.41909 0.0
H1395 H 0.37952 0.54656 0.37509 0.0
H1396 H 0.42289 0.58361 0.45193 0.0
H1397 H 0.44889 0.60722 0.44231 0.0
C1398 C 0.8651 0.45041 0.64233 0.0
C1399 C 0.86093 0.45121 0.69034 0.0
C1400 C 0.85478 0.4133 0.70048 0.0
C1401 C 0.86113 0.41343 0.65355 0.0
N1402 N 0.8751 0.43297 0.58108 0.0
N1403 N 0.85429 0.43479 0.76659 0.0
C1404 C 0.867 0.43222 0.62475 0.0
C1405 C 0.8564 0.43299 0.71985 0.0
N1406 N 0.86665 0.46679 0.61335 0.0
N1407 N 0.84663 0.39413 0.72611 0.0
H1408 H 0.85498 0.4488 0.78184 0.0
H1409 H 0.85349 0.42318 0.79066 0.0
H1410 H 0.84529 0.37943 0.71312 0.0
H1411 H 0.8395 0.39217 0.75883 0.0
H1412 H 0.86729 0.46602 0.57735 0.0
H1413 H 0.86539 0.48036 0.62511 0.0
H1414 H 0.88208 0.44721 0.5603 0.0
H1415 H 0.8764 0.41982 0.56674 0.0
C1416 C 0.43241 0.85368 0.95317 0.0
C1417 C 0.44905 0.85417 0.98277 0.0
C1418 C 0.42888 0.85619 0.05106 0.0
C1419 C 0.41161 0.85439 0.0216 0.0
N1420 N 0.39471 0.84743 0.94573 0.0
N1421 N 0.46144 0.85184 0.05976 0.0
C1422 C 0.41272 0.85194 0.97292 0.0
C1423 C 0.44678 0.85423 0.03175 0.0
N1424 N 0.4358 0.85571 0.90625 0.0
N1425 N 0.42853 0.86049 0.09726 0.0
H1426 H 0.47478 0.85039 0.04688 0.0
H1427 H 0.45935 0.84939 0.09546 0.0
H1428 H 0.4155 0.86165 0.11275 0.0
H1429 H 0.44187 0.86454 0.11962 0.0
H1430 H 0.42554 0.85803 0.88319 0.0
H1431 H 0.4499 0.85678 0.89049 0.0
H1432 H 0.39349 0.84307 0.91085 0.0
H1433 H 0.38006 0.8462 0.95891 0.0
C1434 C 0.60005 0.44411 0.36665 0.0
C1435 C 0.60164 0.44797 0.31802 0.0
C1436 C 0.56624 0.413 0.30616 0.0
C1437 C 0.5638 0.41003 0.35501 0.0
N1438 N 0.5768 0.42343 0.43234 0.0
N1439 N 0.58554 0.43787 0.24158 0.0
C1440 C 0.5803 0.42578 0.38546 0.0
C1441 C 0.58455 0.43287 0.28775 0.0
N1442 N 0.61766 0.45775 0.39465 0.0
N1443 N 0.55125 0.39659 0.27741 0.0
H1444 H 0.59899 0.45197 0.2267 0.0
H1445 H 0.57246 0.42899 0.21844 0.0
H1446 H 0.53736 0.38206 0.28962 0.0
H1447 H 0.55332 0.3965 0.24166 0.0
H1448 H 0.61868 0.45455 0.42957 0.0
H1449 H 0.63217 0.47163 0.38225 0.0
H1450 H 0.58684 0.43557 0.45637 0.0
H1451 H 0.56291 0.40981 0.44733 0.0
C1452 C 0.15178 0.5776 0.6125 0.0
C1453 C 0.14082 0.58712 0.63723 0.0
C1454 C 0.13092 0.55899 0.69803 0.0
C1455 C 0.14615 0.55306 0.67893 0.0
N1456 N 0.17026 0.55573 0.61539 0.0
N1457 N 0.10599 0.57261 0.67862 0.0
C1458 C 0.1564 0.56209 0.63538 0.0
C1459 C 0.12619 0.57383 0.67326 0.0
N1460 N 0.15373 0.57987 0.56546 0.0
N1461 N 0.12121 0.55086 0.7402 0.0
H1462 H 0.10049 0.5804 0.65531 0.0
H1463 H 0.09378 0.56155 0.70159 0.0
H1464 H 0.12446 0.54018 0.76004 0.0
H1465 H 0.11149 0.55639 0.75695 0.0
H1466 H 0.15976 0.5717 0.54474 0.0
H1467 H 0.14592 0.58703 0.54688 0.0
H1468 H 0.18001 0.56373 0.58633 0.0
H1469 H 0.17302 0.54339 0.62932 0.0
C1470 C 0.58755 0.15691 0.04488 0.0
C1471 C 0.60317 0.15546 0.01523 0.0
C1472 C 0.57988 0.15145 0.9474 0.0
C1473 C 0.56488 0.15408 0.97675 0.0
N1474 N 0.55519 0.16177 0.05216 0.0
N1475 N 0.61596 0.15384 0.93827 0.0
C1476 C 0.56894 0.15751 0.0252 0.0
C1477 C 0.59983 0.15346 0.96642 0.0
N1478 N 0.59032 0.15727 0.09194 0.0
N1479 N 0.57471 0.14647 0.90153 0.0
H1480 H 0.63037 0.15445 0.95104 0.0
H1481 H 0.6159 0.15499 0.90228 0.0
H1482 H 0.56062 0.14561 0.88614 0.0
H1483 H 0.58348 0.1418 0.87918 0.0
H1484 H 0.57832 0.1557 0.11583 0.0
H1485 H 0.60422 0.15781 0.10748 0.0
H1486 H 0.55848 0.16685 0.08662 0.0
H1487 H 0.54101 0.16163 0.03929 0.0
loop_
_geom_bond_atom_site_label_1
_geom_bond_atom_site_label_2
_geom_bond_distance
_geom_bond_site_symmetry_2
_ccdc_geom_bond_type
Li0 N17 1.990 . S
Li0 O60 1.956 . S
Li0 O61 1.970 . S
Li0 O62 1.961 . S
Li1 N25 1.990 . S
Li1 O60 1.970 . S
Li1 O61 1.956 . S
Li1 O63 1.961 . S
Li2 N47 1.990 . S
Li2 O60 1.961 . S
Li2 O62 1.956 . S
Li2 O63 1.970 . S
Li3 N53 1.990 . S
Li3 O61 1.961 . S
Li3 O62 1.970 . S
Li3 O63 1.956 . S
C4 C6 1.348 . S
C4 C7 1.356 . S
C4 O60 1.325 . S
N5 C8 1.314 . S
N5 C9 1.279 . S
C6 C4 1.348 . S
C6 C8 1.353 . S
C6 H64 0.929 . S
C7 C4 1.356 . S
C7 C9 1.358 . S
C7 H65 0.930 . S
C8 N5 1.314 . S
C8 C6 1.353 . S
C8 H66 0.930 . S
C9 N5 1.279 . S
C9 C7 1.358 . S
C9 H67 0.930 . S
C10 C13 1.348 . S
C10 C14 1.356 . S
C10 O61 1.325 . S
C11 N12 1.279 . S
C11 C14 1.358 . S
C11 H68 0.930 . S
N12 C11 1.279 . S
N12 C15 1.314 . S
C13 C10 1.348 . S
C13 C15 1.353 . S
C13 H69 0.929 . S
C14 C10 1.356 . S
C14 C11 1.358 . S
C14 H70 0.930 . S
C15 N12 1.314 . S
C15 C13 1.353 . S
C15 H71 0.930 . S
C16 N17 1.314 . S
C16 C21 1.353 . S
C16 H22 0.930 . S
N17 Li0 1.990 . S
N17 C16 1.314 . S
N17 C19 1.279 . S
C18 C19 1.358 . S
C18 C20 1.356 . S
C18 H72 0.930 . S
C19 N17 1.279 . S
C19 C18 1.358 . S
C19 H23 0.930 . S
C20 C18 1.356 . S
C20 C21 1.348 . S
C21 C16 1.353 . S
C21 C20 1.348 . S
C21 H73 0.929 . S
H22 C16 0.930 . S
H23 C19 0.930 . S
C24 N25 1.314 . S
C24 C26 1.353 . S
C24 H30 0.930 . S
N25 Li1 1.990 . S
N25 C24 1.314 . S
N25 C28 1.279 . S
C26 C24 1.353 . S
C26 C29 1.348 . S
C26 H74 0.929 . S
C27 C28 1.358 . S
C27 C29 1.356 . S
C27 H75 0.930 . S
C28 N25 1.279 . S
C28 C27 1.358 . S
C28 H31 0.930 . S
C29 C26 1.348 . S
C29 C27 1.356 . S
H30 C24 0.930 . S
H31 C28 0.930 . S
C32 C34 1.348 . S
C32 C35 1.356 . S
C32 O62 1.325 . S
N33 C36 1.314 . S
N33 C37 1.279 . S
C34 C32 1.348 . S
C34 C36 1.353 . S
C34 H76 0.929 . S
C35 C32 1.356 . S
C35 C37 1.358 . S
C35 H77 0.930 . S
C36 N33 1.314 . S
C36 C34 1.353 . S
C36 H78 0.930 . S
C37 N33 1.279 . S
C37 C35 1.358 . S
C37 H79 0.930 . S
C38 C39 1.348 . S
C38 C40 1.356 . S
C38 O63 1.325 . S
C39 C38 1.348 . S
C39 C41 1.353 . S
C39 H80 0.929 . S
C40 C38 1.356 . S
C40 C42 1.358 . S
C40 H81 0.930 . S
C41 C39 1.353 . S
C41 N43 1.314 . S
C41 H82 0.930 . S
C42 C40 1.358 . S
C42 N43 1.279 . S
C42 H83 0.930 . S
N43 C41 1.314 . S
N43 C42 1.279 . S
C44 C46 1.353 . S
C44 N47 1.314 . S
C44 H50 0.930 . S
C45 N47 1.279 . S
C45 C48 1.358 . S
C45 H51 0.930 . S
C46 C44 1.353 . S
C46 C49 1.348 . S
C46 H84 0.929 . S
N47 Li2 1.990 . S
N47 C44 1.314 . S
N47 C45 1.279 . S
C48 C45 1.358 . S
C48 C49 1.356 . S
C48 H85 0.930 . S
C49 C46 1.348 . S
C49 C48 1.356 . S
H50 C44 0.930 . S
H51 C45 0.930 . S
C52 N53 1.314 . S
C52 C54 1.353 . S
C52 H58 0.930 . S
N53 Li3 1.990 . S
N53 C52 1.314 . S
N53 C56 1.279 . S
C54 C52 1.353 . S
C54 C57 1.348 . S
C54 H86 0.929 . S
C55 C56 1.358 . S
C55 C57 1.356 . S
C55 H87 0.930 . S
C56 N53 1.279 . S
C56 C55 1.358 . S
C56 H59 0.930 . S
C57 C54 1.348 . S
C57 C55 1.356 . S
H58 C52 0.930 . S
H59 C56 0.930 . S
O60 Li0 1.956 . S
O60 Li1 1.970 . S
O60 Li2 1.961 . S
O60 C4 1.325 . S
O61 Li0 1.970 . S
O61 Li1 1.956 . S
O61 Li3 1.961 . S
O61 C10 1.325 . S
O62 Li0 1.961 . S
O62 Li2 1.956 . S
O62 Li3 1.970 . S
O62 C32 1.325 . S
O63 Li1 1.961 . S
O63 Li2 1.970 . S
O63 Li3 1.956 . S
O63 C38 1.325 . S
H64 C6 0.929 . S
H65 C7 0.930 . S
H66 C8 0.930 . S
H67 C9 0.930 . S
H68 C11 0.930 . S
H69 C13 0.929 . S
H70 C14 0.930 . S
H71 C15 0.930 . S
H72 C18 0.930 . S
H73 C21 0.929 . S
H74 C26 0.929 . S
H75 C27 0.930 . S
H76 C34 0.929 . S
H77 C35 0.930 . S
H78 C36 0.930 . S
H79 C37 0.930 . S
H80 C39 0.929 . S
H81 C40 0.930 . S
H82 C41 0.930 . S
H83 C42 0.930 . S
H84 C46 0.929 . S
H85 C48 0.930 . S
H86 C54 0.929 . S
H87 C55 0.930 . S
Li88 N105 1.990 . S
Li88 O148 1.956 . S
Li88 O149 1.970 . S
Li88 O150 1.961 . S
Li89 N113 1.990 . S
Li89 O148 1.970 . S
Li89 O149 1.956 . S
Li89 O151 1.961 . S
Li90 N135 1.990 . S
Li90 O148 1.961 . S
Li90 O150 1.956 . S
Li90 O151 1.970 . S
Li91 N141 1.990 . S
Li91 O149 1.961 . S
Li91 O150 1.970 . S
Li91 O151 1.956 . S
C92 C94 1.348 . S
C92 C95 1.356 . S
C92 O148 1.325 . S
N93 C96 1.314 . S
N93 C97 1.279 . S
C94 C92 1.348 . S
C94 C96 1.353 . S
C94 H152 0.929 . S
C95 C92 1.356 . S
C95 C97 1.358 . S
C95 H153 0.930 . S
C96 N93 1.314 . S
C96 C94 1.353 . S
C96 H154 0.930 . S
C97 N93 1.279 . S
C97 C95 1.358 . S
C97 H155 0.930 . S
C98 C101 1.348 . S
C98 C102 1.356 . S
C98 O149 1.325 . S
C99 N100 1.279 . S
C99 C102 1.358 . S
C99 H156 0.930 . S
N100 C99 1.279 . S
N100 C103 1.314 . S
C101 C98 1.348 . S
C101 C103 1.353 . S
C101 H157 0.929 . S
C102 C98 1.356 . S
C102 C99 1.358 . S
C102 H158 0.930 . S
C103 N100 1.314 . S
C103 C101 1.353 . S
C103 H159 0.930 . S
C104 N105 1.314 . S
C104 C109 1.353 . S
C104 H110 0.930 . S
N105 Li88 1.990 . S
N105 C104 1.314 . S
N105 C107 1.279 . S
C106 C107 1.358 . S
C106 C108 1.356 . S
C106 H160 0.930 . S
C107 N105 1.279 . S
C107 C106 1.358 . S
C107 H111 0.930 . S
C108 C106 1.356 . S
C108 C109 1.348 . S
C109 C104 1.353 . S
C109 C108 1.348 . S
C109 H161 0.929 . S
H110 C104 0.930 . S
H111 C107 0.930 . S
C112 N113 1.314 . S
C112 C114 1.353 . S
C112 H118 0.930 . S
N113 Li89 1.990 . S
N113 C112 1.314 . S
N113 C116 1.279 . S
C114 C112 1.353 . S
C114 C117 1.348 . S
C114 H162 0.929 . S
C115 C116 1.358 . S
C115 C117 1.356 . S
C115 H163 0.930 . S
C116 N113 1.279 . S
C116 C115 1.358 . S
C116 H119 0.930 . S
C117 C114 1.348 . S
C117 C115 1.356 . S
H118 C112 0.930 . S
H119 C116 0.930 . S
C120 C122 1.348 . S
C120 C123 1.356 . S
C120 O150 1.325 . S
N121 C124 1.314 . S
N121 C125 1.279 . S
C122 C120 1.348 . S
C122 C124 1.353 . S
C122 H164 0.929 . S
C123 C120 1.356 . S
C123 C125 1.358 . S
C123 H165 0.930 . S
C124 N121 1.314 . S
C124 C122 1.353 . S
C124 H166 0.930 . S
C125 N121 1.279 . S
C125 C123 1.358 . S
C125 H167 0.930 . S
C126 C127 1.348 . S
C126 C128 1.356 . S
C126 O151 1.325 . S
C127 C126 1.348 . S
C127 C129 1.353 . S
C127 H168 0.929 . S
C128 C126 1.356 . S
C128 C130 1.358 . S
C128 H169 0.930 . S
C129 C127 1.353 . S
C129 N131 1.314 . S
C129 H170 0.930 . S
C130 C128 1.358 . S
C130 N131 1.279 . S
C130 H171 0.930 . S
N131 C129 1.314 . S
N131 C130 1.279 . S
C132 C134 1.353 . S
C132 N135 1.314 . S
C132 H138 0.930 . S
C133 N135 1.279 . S
C133 C136 1.358 . S
C133 H139 0.930 . S
C134 C132 1.353 . S
C134 C137 1.348 . S
C134 H172 0.929 . S
N135 Li90 1.990 . S
N135 C132 1.314 . S
N135 C133 1.279 . S
C136 C133 1.358 . S
C136 C137 1.356 . S
C136 H173 0.930 . S
C137 C134 1.348 . S
C137 C136 1.356 . S
H138 C132 0.930 . S
H139 C133 0.930 . S
C140 N141 1.314 . S
C140 C142 1.353 . S
C140 H146 0.930 . S
N141 Li91 1.990 . S
N141 C140 1.314 . S
N141 C144 1.279 . S
C142 C140 1.353 . S
C142 C145 1.348 . S
C142 H174 0.929 . S
C143 C144 1.358 . S
C143 C145 1.356 . S
C143 H175 0.930 . S
C144 N141 1.279 . S
C144 C143 1.358 . S
C144 H147 0.930 . S
C145 C142 1.348 . S
C145 C143 1.356 . S
H146 C140 0.930 . S
H147 C144 0.930 . S
O148 Li88 1.956 . S
O148 Li89 1.970 . S
O148 Li90 1.961 . S
O148 C92 1.325 . S
O149 Li88 1.970 . S
O149 Li89 1.956 . S
O149 Li91 1.961 . S
O149 C98 1.325 . S
O150 Li88 1.961 . S
O150 Li90 1.956 . S
O150 Li91 1.970 . S
O150 C120 1.325 . S
O151 Li89 1.961 . S
O151 Li90 1.970 . S
O151 Li91 1.956 . S
O151 C126 1.325 . S
H152 C94 0.929 . S
H153 C95 0.930 . S
H154 C96 0.930 . S
H155 C97 0.930 . S
H156 C99 0.930 . S
H157 C101 0.929 . S
H158 C102 0.930 . S
H159 C103 0.930 . S
H160 C106 0.930 . S
H161 C109 0.929 . S
H162 C114 0.929 . S
H163 C115 0.930 . S
H164 C122 0.929 . S
H165 C123 0.930 . S
H166 C124 0.930 . S
H167 C125 0.930 . S
H168 C127 0.929 . S
H169 C128 0.930 . S
H170 C129 0.930 . S
H171 C130 0.930 . S
H172 C134 0.929 . S
H173 C136 0.930 . S
H174 C142 0.929 . S
H175 C143 0.930 . S
Li176 N193 1.990 . S
Li176 O236 1.956 . S
Li176 O237 1.970 1_556 S
Li176 O238 1.961 . S
Li177 N201 1.990 1_556 S
Li177 O236 1.970 . S
Li177 O237 1.956 1_556 S
Li177 O239 1.961 . S
Li178 N223 1.990 . S
Li178 O236 1.961 . S
Li178 O238 1.956 . S
Li178 O239 1.970 . S
Li179 N229 1.990 . S
Li179 O237 1.961 1_556 S
Li179 O238 1.970 . S
Li179 O239 1.956 . S
C180 C182 1.348 . S
C180 C183 1.356 . S
C180 O236 1.325 . S
N181 C184 1.314 . S
N181 C185 1.279 . S
C182 C180 1.348 . S
C182 C184 1.353 . S
C182 H240 0.929 1_556 S
C183 C180 1.356 . S
C183 C185 1.358 . S
C183 H241 0.930 . S
C184 N181 1.314 . S
C184 C182 1.353 . S
C184 H242 0.930 . S
C185 N181 1.279 . S
C185 C183 1.358 . S
C185 H243 0.930 . S
C186 C189 1.348 . S
C186 C190 1.356 . S
C186 O237 1.325 . S
C187 N188 1.279 . S
C187 C190 1.358 . S
C187 H244 0.930 . S
N188 C187 1.279 . S
N188 C191 1.314 . S
C189 C186 1.348 . S
C189 C191 1.353 . S
C189 H245 0.929 . S
C190 C186 1.356 . S
C190 C187 1.358 . S
C190 H246 0.930 . S
C191 N188 1.314 . S
C191 C189 1.353 . S
C191 H247 0.930 . S
C192 N193 1.314 . S
C192 C197 1.353 . S
C192 H198 0.930 . S
N193 Li176 1.990 . S
N193 C192 1.314 . S
N193 C195 1.279 . S
C194 C195 1.358 . S
C194 C196 1.356 . S
C194 H248 0.930 . S
C195 N193 1.279 . S
C195 C194 1.358 . S
C195 H199 0.930 . S
C196 C194 1.356 . S
C196 C197 1.348 . S
C197 C192 1.353 . S
C197 C196 1.348 . S
C197 H249 0.929 . S
H198 C192 0.930 . S
H199 C195 0.930 . S
C200 N201 1.314 . S
C200 C202 1.353 . S
C200 H206 0.930 . S
N201 Li177 1.990 1_554 S
N201 C200 1.314 . S
N201 C204 1.279 . S
C202 C200 1.353 . S
C202 C205 1.348 . S
C202 H250 0.929 . S
C203 C204 1.358 . S
C203 C205 1.356 . S
C203 H251 0.930 . S
C204 N201 1.279 . S
C204 C203 1.358 . S
C204 H207 0.930 . S
C205 C202 1.348 . S
C205 C203 1.356 . S
H206 C200 0.930 . S
H207 C204 0.930 . S
C208 C210 1.348 . S
C208 C211 1.356 . S
C208 O238 1.325 . S
N209 C212 1.314 . S
N209 C213 1.279 . S
C210 C208 1.348 . S
C210 C212 1.353 . S
C210 H252 0.929 . S
C211 C208 1.356 . S
C211 C213 1.358 . S
C211 H253 0.930 . S
C212 N209 1.314 . S
C212 C210 1.353 . S
C212 H254 0.930 . S
C213 N209 1.279 . S
C213 C211 1.358 . S
C213 H255 0.930 . S
C214 C215 1.348 . S
C214 C216 1.356 . S
C214 O239 1.325 . S
C215 C214 1.348 . S
C215 C217 1.353 . S
C215 H256 0.929 . S
C216 C214 1.356 . S
C216 C218 1.358 . S
C216 H257 0.930 1_556 S
C217 C215 1.353 . S
C217 N219 1.314 . S
C217 H258 0.930 . S
C218 C216 1.358 . S
C218 N219 1.279 . S
C218 H259 0.930 1_556 S
N219 C217 1.314 . S
N219 C218 1.279 . S
C220 C222 1.353 . S
C220 N223 1.314 . S
C220 H226 0.930 . S
C221 N223 1.279 . S
C221 C224 1.358 . S
C221 H227 0.930 . S
C222 C220 1.353 . S
C222 C225 1.348 . S
C222 H260 0.929 . S
N223 Li178 1.990 . S
N223 C220 1.314 . S
N223 C221 1.279 . S
C224 C221 1.358 . S
C224 C225 1.356 . S
C224 H261 0.930 . S
C225 C222 1.348 . S
C225 C224 1.356 . S
H226 C220 0.930 . S
H227 C221 0.930 . S
C228 N229 1.314 . S
C228 C230 1.353 . S
C228 H234 0.930 . S
N229 Li179 1.990 . S
N229 C228 1.314 . S
N229 C232 1.279 . S
C230 C228 1.353 . S
C230 C233 1.348 . S
C230 H262 0.929 . S
C231 C232 1.358 . S
C231 C233 1.356 . S
C231 H263 0.930 . S
C232 N229 1.279 . S
C232 C231 1.358 . S
C232 H235 0.930 . S
C233 C230 1.348 . S
C233 C231 1.356 . S
H234 C228 0.930 . S
H235 C232 0.930 . S
O236 Li176 1.956 . S
O236 Li177 1.970 . S
O236 Li178 1.961 . S
O236 C180 1.325 . S
O237 Li176 1.970 1_554 S
O237 Li177 1.956 1_554 S
O237 Li179 1.961 1_554 S
O237 C186 1.325 . S
O238 Li176 1.961 . S
O238 Li178 1.956 . S
O238 Li179 1.970 . S
O238 C208 1.325 . S
O239 Li177 1.961 . S
O239 Li178 1.970 . S
O239 Li179 1.956 . S
O239 C214 1.325 . S
H240 C182 0.929 1_554 S
H241 C183 0.930 . S
H242 C184 0.930 . S
H243 C185 0.930 . S
H244 C187 0.930 . S
H245 C189 0.929 . S
H246 C190 0.930 . S
H247 C191 0.930 . S
H248 C194 0.930 . S
H249 C197 0.929 . S
H250 C202 0.929 . S
H251 C203 0.930 . S
H252 C210 0.929 . S
H253 C211 0.930 . S
H254 C212 0.930 . S
H255 C213 0.930 . S
H256 C215 0.929 . S
H257 C216 0.930 1_554 S
H258 C217 0.930 . S
H259 C218 0.930 1_554 S
H260 C222 0.929 . S
H261 C224 0.930 . S
H262 C230 0.929 . S
H263 C231 0.930 . S
Li264 N281 1.990 . S
Li264 O324 1.956 . S
Li264 O325 1.970 . S
Li264 O326 1.961 . S
Li265 N289 1.990 . S
Li265 O324 1.970 . S
Li265 O325 1.956 . S
Li265 O327 1.961 . S
Li266 N311 1.990 . S
Li266 O324 1.961 . S
Li266 O326 1.956 . S
Li266 O327 1.970 . S
Li267 N317 1.990 . S
Li267 O325 1.961 . S
Li267 O326 1.970 . S
Li267 O327 1.956 . S
C268 C270 1.348 . S
C268 C271 1.356 . S
C268 O324 1.325 . S
N269 C272 1.314 . S
N269 C273 1.279 . S
C270 C268 1.348 . S
C270 C272 1.353 . S
C270 H328 0.929 . S
C271 C268 1.356 . S
C271 C273 1.358 . S
C271 H329 0.930 . S
C272 N269 1.314 . S
C272 C270 1.353 . S
C272 H330 0.930 . S
C273 N269 1.279 . S
C273 C271 1.358 . S
C273 H331 0.930 . S
C274 C277 1.348 . S
C274 C278 1.356 . S
C274 O325 1.325 . S
C275 N276 1.279 . S
C275 C278 1.358 . S
C275 H332 0.930 . S
N276 C275 1.279 . S
N276 C279 1.314 . S
C277 C274 1.348 . S
C277 C279 1.353 . S
C277 H333 0.929 . S
C278 C274 1.356 . S
C278 C275 1.358 . S
C278 H334 0.930 . S
C279 N276 1.314 . S
C279 C277 1.353 . S
C279 H335 0.930 . S
C280 N281 1.314 . S
C280 C285 1.353 . S
C280 H286 0.930 . S
N281 Li264 1.990 . S
N281 C280 1.314 . S
N281 C283 1.279 . S
C282 C283 1.358 . S
C282 C284 1.356 . S
C282 H336 0.930 . S
C283 N281 1.279 . S
C283 C282 1.358 . S
C283 H287 0.930 . S
C284 C282 1.356 . S
C284 C285 1.348 . S
C285 C280 1.353 . S
C285 C284 1.348 . S
C285 H337 0.929 . S
H286 C280 0.930 . S
H287 C283 0.930 . S
C288 N289 1.314 . S
C288 C290 1.353 . S
C288 H294 0.930 . S
N289 Li265 1.990 . S
N289 C288 1.314 . S
N289 C292 1.279 . S
C290 C288 1.353 . S
C290 C293 1.348 . S
C290 H338 0.929 . S
C291 C292 1.358 . S
C291 C293 1.356 . S
C291 H339 0.930 . S
C292 N289 1.279 . S
C292 C291 1.358 . S
C292 H295 0.930 . S
C293 C290 1.348 . S
C293 C291 1.356 . S
H294 C288 0.930 . S
H295 C292 0.930 . S
C296 C298 1.348 . S
C296 C299 1.356 . S
C296 O326 1.325 . S
N297 C300 1.314 . S
N297 C301 1.279 . S
C298 C296 1.348 . S
C298 C300 1.353 . S
C298 H340 0.929 . S
C299 C296 1.356 . S
C299 C301 1.358 . S
C299 H341 0.930 . S
C300 N297 1.314 . S
C300 C298 1.353 . S
C300 H342 0.930 . S
C301 N297 1.279 . S
C301 C299 1.358 . S
C301 H343 0.930 . S
C302 C303 1.348 . S
C302 C304 1.356 . S
C302 O327 1.325 . S
C303 C302 1.348 . S
C303 C305 1.353 . S
C303 H344 0.929 . S
C304 C302 1.356 . S
C304 C306 1.358 . S
C304 H345 0.930 . S
C305 C303 1.353 . S
C305 N307 1.314 . S
C305 H346 0.930 . S
C306 C304 1.358 . S
C306 N307 1.279 . S
C306 H347 0.930 . S
N307 C305 1.314 . S
N307 C306 1.279 . S
C308 C310 1.353 . S
C308 N311 1.314 . S
C308 H314 0.930 . S
C309 N311 1.279 . S
C309 C312 1.358 . S
C309 H315 0.930 . S
C310 C308 1.353 . S
C310 C313 1.348 . S
C310 H348 0.929 . S
N311 Li266 1.990 . S
N311 C308 1.314 . S
N311 C309 1.279 . S
C312 C309 1.358 . S
C312 C313 1.356 . S
C312 H349 0.930 . S
C313 C310 1.348 . S
C313 C312 1.356 . S
H314 C308 0.930 . S
H315 C309 0.930 . S
C316 N317 1.314 . S
C316 C318 1.353 . S
C316 H322 0.930 . S
N317 Li267 1.990 . S
N317 C316 1.314 . S
N317 C320 1.279 . S
C318 C316 1.353 . S
C318 C321 1.348 . S
C318 H350 0.929 . S
C319 C320 1.358 . S
C319 C321 1.356 . S
C319 H351 0.930 . S
C320 N317 1.279 . S
C320 C319 1.358 . S
C320 H323 0.930 . S
C321 C318 1.348 . S
C321 C319 1.356 . S
H322 C316 0.930 . S
H323 C320 0.930 . S
O324 Li264 1.956 . S
O324 Li265 1.970 . S
O324 Li266 1.961 . S
O324 C268 1.325 . S
O325 Li264 1.970 . S
O325 Li265 1.956 . S
O325 Li267 1.961 . S
O325 C274 1.325 . S
O326 Li264 1.961 . S
O326 Li266 1.956 . S
O326 Li267 1.970 . S
O326 C296 1.325 . S
O327 Li265 1.961 . S
O327 Li266 1.970 . S
O327 Li267 1.956 . S
O327 C302 1.325 . S
H328 C270 0.929 . S
H329 C271 0.930 . S
H330 C272 0.930 . S
H331 C273 0.930 . S
H332 C275 0.930 . S
H333 C277 0.929 . S
H334 C278 0.930 . S
H335 C279 0.930 . S
H336 C282 0.930 . S
H337 C285 0.929 . S
H338 C290 0.929 . S
H339 C291 0.930 . S
H340 C298 0.929 . S
H341 C299 0.930 . S
H342 C300 0.930 . S
H343 C301 0.930 . S
H344 C303 0.929 . S
H345 C304 0.930 . S
H346 C305 0.930 . S
H347 C306 0.930 . S
H348 C310 0.929 . S
H349 C312 0.930 . S
H350 C318 0.929 . S
H351 C319 0.930 . S
Li352 N369 1.990 . S
Li352 O412 1.956 . S
Li352 O413 1.970 . S
Li352 O414 1.961 . S
Li353 N377 1.990 . S
Li353 O412 1.970 . S
Li353 O413 1.956 . S
Li353 O415 1.961 . S
Li354 N399 1.990 . S
Li354 O412 1.961 . S
Li354 O414 1.956 . S
Li354 O415 1.970 . S
Li355 N405 1.990 . S
Li355 O413 1.961 . S
Li355 O414 1.970 . S
Li355 O415 1.956 . S
C356 C358 1.348 . S
C356 C359 1.356 . S
C356 O412 1.325 . S
N357 C360 1.314 . S
N357 C361 1.279 . S
C358 C356 1.348 . S
C358 C360 1.353 . S
C358 H416 0.929 . S
C359 C356 1.356 . S
C359 C361 1.358 . S
C359 H417 0.930 . S
C360 N357 1.314 . S
C360 C358 1.353 . S
C360 H418 0.930 . S
C361 N357 1.279 . S
C361 C359 1.358 . S
C361 H419 0.930 . S
C362 C365 1.348 . S
C362 C366 1.356 . S
C362 O413 1.325 . S
C363 N364 1.279 . S
C363 C366 1.358 . S
C363 H420 0.930 . S
N364 C363 1.279 . S
N364 C367 1.314 . S
C365 C362 1.348 . S
C365 C367 1.353 . S
C365 H421 0.929 . S
C366 C362 1.356 . S
C366 C363 1.358 . S
C366 H422 0.930 . S
C367 N364 1.314 . S
C367 C365 1.353 . S
C367 H423 0.930 . S
C368 N369 1.314 . S
C368 C373 1.353 . S
C368 H374 0.930 . S
N369 Li352 1.990 . S
N369 C368 1.314 . S
N369 C371 1.279 . S
C370 C371 1.358 . S
C370 C372 1.356 . S
C370 H424 0.930 . S
C371 N369 1.279 . S
C371 C370 1.358 . S
C371 H375 0.930 . S
C372 C370 1.356 . S
C372 C373 1.348 . S
C373 C368 1.353 . S
C373 C372 1.348 . S
C373 H425 0.929 . S
H374 C368 0.930 . S
H375 C371 0.930 . S
C376 N377 1.314 . S
C376 C378 1.353 . S
C376 H382 0.930 . S
N377 Li353 1.990 . S
N377 C376 1.314 . S
N377 C380 1.279 . S
C378 C376 1.353 . S
C378 C381 1.348 . S
C378 H426 0.929 . S
C379 C380 1.358 . S
C379 C381 1.356 . S
C379 H427 0.930 . S
C380 N377 1.279 . S
C380 C379 1.358 . S
C380 H383 0.930 . S
C381 C378 1.348 . S
C381 C379 1.356 . S
H382 C376 0.930 . S
H383 C380 0.930 . S
C384 C386 1.348 . S
C384 C387 1.356 . S
C384 O414 1.325 . S
N385 C388 1.314 . S
N385 C389 1.279 . S
C386 C384 1.348 . S
C386 C388 1.353 . S
C386 H428 0.929 . S
C387 C384 1.356 . S
C387 C389 1.358 . S
C387 H429 0.930 . S
C388 N385 1.314 . S
C388 C386 1.353 . S
C388 H430 0.930 . S
C389 N385 1.279 . S
C389 C387 1.358 . S
C389 H431 0.930 . S
C390 C391 1.348 . S
C390 C392 1.356 . S
C390 O415 1.325 . S
C391 C390 1.348 . S
C391 C393 1.353 . S
C391 H432 0.929 . S
C392 C390 1.356 . S
C392 C394 1.358 . S
C392 H433 0.930 . S
C393 C391 1.353 . S
C393 N395 1.314 . S
C393 H434 0.930 . S
C394 C392 1.358 . S
C394 N395 1.279 . S
C394 H435 0.930 . S
N395 C393 1.314 . S
N395 C394 1.279 . S
C396 C398 1.353 . S
C396 N399 1.314 . S
C396 H402 0.930 . S
C397 N399 1.279 . S
C397 C400 1.358 . S
C397 H403 0.930 . S
C398 C396 1.353 . S
C398 C401 1.348 . S
C398 H436 0.929 . S
N399 Li354 1.990 . S
N399 C396 1.314 . S
N399 C397 1.279 . S
C400 C397 1.358 . S
C400 C401 1.356 . S
C400 H437 0.930 . S
C401 C398 1.348 . S
C401 C400 1.356 . S
H402 C396 0.930 . S
H403 C397 0.930 . S
C404 N405 1.314 . S
C404 C406 1.353 . S
C404 H410 0.930 . S
N405 Li355 1.990 . S
N405 C404 1.314 . S
N405 C408 1.279 . S
C406 C404 1.353 . S
C406 C409 1.348 . S
C406 H438 0.929 . S
C407 C408 1.358 . S
C407 C409 1.356 . S
C407 H439 0.930 . S
C408 N405 1.279 . S
C408 C407 1.358 . S
C408 H411 0.930 . S
C409 C406 1.348 . S
C409 C407 1.356 . S
H410 C404 0.930 . S
H411 C408 0.930 . S
O412 Li352 1.956 . S
O412 Li353 1.970 . S
O412 Li354 1.961 . S
O412 C356 1.325 . S
O413 Li352 1.970 . S
O413 Li353 1.956 . S
O413 Li355 1.961 . S
O413 C362 1.325 . S
O414 Li352 1.961 . S
O414 Li354 1.956 . S
O414 Li355 1.970 . S
O414 C384 1.325 . S
O415 Li353 1.961 . S
O415 Li354 1.970 . S
O415 Li355 1.956 . S
O415 C390 1.325 . S
H416 C358 0.929 . S
H417 C359 0.930 . S
H418 C360 0.930 . S
H419 C361 0.930 . S
H420 C363 0.930 . S
H421 C365 0.929 . S
H422 C366 0.930 . S
H423 C367 0.930 . S
H424 C370 0.930 . S
H425 C373 0.929 . S
H426 C378 0.929 . S
H427 C379 0.930 . S
H428 C386 0.929 . S
H429 C387 0.930 . S
H430 C388 0.930 . S
H431 C389 0.930 . S
H432 C391 0.929 . S
H433 C392 0.930 . S
H434 C393 0.930 . S
H435 C394 0.930 . S
H436 C398 0.929 . S
H437 C400 0.930 . S
H438 C406 0.929 . S
H439 C407 0.930 . S
Li440 N457 1.990 1_556 S
Li440 O500 1.956 1_556 S
Li440 O501 1.970 . S
Li440 O502 1.961 . S
Li441 N465 1.990 . S
Li441 O500 1.970 1_556 S
Li441 O501 1.956 . S
Li441 O503 1.961 . S
Li442 N487 1.990 . S
Li442 O500 1.961 1_556 S
Li442 O502 1.956 . S
Li442 O503 1.970 . S
Li443 N493 1.990 . S
Li443 O501 1.961 . S
Li443 O502 1.970 . S
Li443 O503 1.956 . S
C444 C446 1.348 . S
C444 C447 1.356 . S
C444 O500 1.325 . S
N445 C448 1.314 . S
N445 C449 1.279 . S
C446 C444 1.348 . S
C446 C448 1.353 . S
C446 H504 0.929 . S
C447 C444 1.356 . S
C447 C449 1.358 . S
C447 H505 0.930 . S
C448 N445 1.314 . S
C448 C446 1.353 . S
C448 H506 0.930 . S
C449 N445 1.279 . S
C449 C447 1.358 . S
C449 H507 0.930 . S
C450 C453 1.348 . S
C450 C454 1.356 . S
C450 O501 1.325 . S
C451 N452 1.279 . S
C451 C454 1.358 . S
C451 H508 0.930 . S
N452 C451 1.279 . S
N452 C455 1.314 . S
C453 C450 1.348 . S
C453 C455 1.353 . S
C453 H509 0.929 1_556 S
C454 C450 1.356 . S
C454 C451 1.358 . S
C454 H510 0.930 . S
C455 N452 1.314 . S
C455 C453 1.353 . S
C455 H511 0.930 . S
C456 N457 1.314 . S
C456 C461 1.353 . S
C456 H462 0.930 . S
N457 Li440 1.990 1_554 S
N457 C456 1.314 . S
N457 C459 1.279 . S
C458 C459 1.358 . S
C458 C460 1.356 . S
C458 H512 0.930 . S
C459 N457 1.279 . S
C459 C458 1.358 . S
C459 H463 0.930 . S
C460 C458 1.356 . S
C460 C461 1.348 . S
C461 C456 1.353 . S
C461 C460 1.348 . S
C461 H513 0.929 . S
H462 C456 0.930 . S
H463 C459 0.930 . S
C464 N465 1.314 . S
C464 C466 1.353 . S
C464 H470 0.930 . S
N465 Li441 1.990 . S
N465 C464 1.314 . S
N465 C468 1.279 . S
C466 C464 1.353 . S
C466 C469 1.348 . S
C466 H514 0.929 . S
C467 C468 1.358 . S
C467 C469 1.356 . S
C467 H515 0.930 . S
C468 N465 1.279 . S
C468 C467 1.358 . S
C468 H471 0.930 . S
C469 C466 1.348 . S
C469 C467 1.356 . S
H470 C464 0.930 . S
H471 C468 0.930 . S
C472 C474 1.348 . S
C472 C475 1.356 . S
C472 O502 1.325 . S
N473 C476 1.314 . S
N473 C477 1.279 . S
C474 C472 1.348 . S
C474 C476 1.353 . S
C474 H516 0.929 . S
C475 C472 1.356 . S
C475 C477 1.358 . S
C475 H517 0.930 1_556 S
C476 N473 1.314 . S
C476 C474 1.353 . S
C476 H518 0.930 . S
C477 N473 1.279 . S
C477 C475 1.358 . S
C477 H519 0.930 1_556 S
C478 C479 1.348 . S
C478 C480 1.356 . S
C478 O503 1.325 . S
C479 C478 1.348 . S
C479 C481 1.353 . S
C479 H520 0.929 . S
C480 C478 1.356 . S
C480 C482 1.358 . S
C480 H521 0.930 . S
C481 C479 1.353 . S
C481 N483 1.314 . S
C481 H522 0.930 . S
C482 C480 1.358 . S
C482 N483 1.279 . S
C482 H523 0.930 . S
N483 C481 1.314 . S
N483 C482 1.279 . S
C484 C486 1.353 . S
C484 N487 1.314 . S
C484 H490 0.930 . S
C485 N487 1.279 . S
C485 C488 1.358 . S
C485 H491 0.930 . S
C486 C484 1.353 . S
C486 C489 1.348 . S
C486 H524 0.929 . S
N487 Li442 1.990 . S
N487 C484 1.314 . S
N487 C485 1.279 . S
C488 C485 1.358 . S
C488 C489 1.356 . S
C488 H525 0.930 . S
C489 C486 1.348 . S
C489 C488 1.356 . S
H490 C484 0.930 . S
H491 C485 0.930 . S
C492 N493 1.314 . S
C492 C494 1.353 . S
C492 H498 0.930 . S
N493 Li443 1.990 . S
N493 C492 1.314 . S
N493 C496 1.279 . S
C494 C492 1.353 . S
C494 C497 1.348 . S
C494 H526 0.929 . S
C495 C496 1.358 . S
C495 C497 1.356 . S
C495 H527 0.930 . S
C496 N493 1.279 . S
C496 C495 1.358 . S
C496 H499 0.930 . S
C497 C494 1.348 . S
C497 C495 1.356 . S
H498 C492 0.930 . S
H499 C496 0.930 . S
O500 Li440 1.956 1_554 S
O500 Li441 1.970 1_554 S
O500 Li442 1.961 1_554 S
O500 C444 1.325 . S
O501 Li440 1.970 . S
O501 Li441 1.956 . S
O501 Li443 1.961 . S
O501 C450 1.325 . S
O502 Li440 1.961 . S
O502 Li442 1.956 . S
O502 Li443 1.970 . S
O502 C472 1.325 . S
O503 Li441 1.961 . S
O503 Li442 1.970 . S
O503 Li443 1.956 . S
O503 C478 1.325 . S
H504 C446 0.929 . S
H505 C447 0.930 . S
H506 C448 0.930 . S
H507 C449 0.930 . S
H508 C451 0.930 . S
H509 C453 0.929 1_554 S
H510 C454 0.930 . S
H511 C455 0.930 . S
H512 C458 0.930 . S
H513 C461 0.929 . S
H514 C466 0.929 . S
H515 C467 0.930 . S
H516 C474 0.929 . S
H517 C475 0.930 1_554 S
H518 C476 0.930 . S
H519 C477 0.930 1_554 S
H520 C479 0.929 . S
H521 C480 0.930 . S
H522 C481 0.930 . S
H523 C482 0.930 . S
H524 C486 0.929 . S
H525 C488 0.930 . S
H526 C494 0.929 . S
H527 C495 0.930 . S
Li528 N545 1.990 . S
Li528 O588 1.956 . S
Li528 O589 1.970 . S
Li528 O590 1.961 . S
Li529 N553 1.990 . S
Li529 O588 1.970 . S
Li529 O589 1.956 . S
Li529 O591 1.961 . S
Li530 N575 1.990 . S
Li530 O588 1.961 . S
Li530 O590 1.956 . S
Li530 O591 1.970 . S
Li531 N581 1.990 . S
Li531 O589 1.961 . S
Li531 O590 1.970 . S
Li531 O591 1.956 . S
C532 C534 1.348 . S
C532 C535 1.356 . S
C532 O588 1.325 . S
N533 C536 1.314 . S
N533 C537 1.279 . S
C534 C532 1.348 . S
C534 C536 1.353 . S
C534 H592 0.929 . S
C535 C532 1.356 . S
C535 C537 1.358 . S
C535 H593 0.930 . S
C536 N533 1.314 . S
C536 C534 1.353 . S
C536 H594 0.930 . S
C537 N533 1.279 . S
C537 C535 1.358 . S
C537 H595 0.930 . S
C538 C541 1.348 . S
C538 C542 1.356 . S
C538 O589 1.325 . S
C539 N540 1.279 . S
C539 C542 1.358 . S
C539 H596 0.930 . S
N540 C539 1.279 . S
N540 C543 1.314 . S
C541 C538 1.348 . S
C541 C543 1.353 . S
C541 H597 0.929 . S
C542 C538 1.356 . S
C542 C539 1.358 . S
C542 H598 0.930 . S
C543 N540 1.314 . S
C543 C541 1.353 . S
C543 H599 0.930 . S
C544 N545 1.314 . S
C544 C549 1.353 . S
C544 H550 0.930 . S
N545 Li528 1.990 . S
N545 C544 1.314 . S
N545 C547 1.279 . S
C546 C547 1.358 . S
C546 C548 1.356 . S
C546 H600 0.930 . S
C547 N545 1.279 . S
C547 C546 1.358 . S
C547 H551 0.930 . S
C548 C546 1.356 . S
C548 C549 1.348 . S
C549 C544 1.353 . S
C549 C548 1.348 . S
C549 H601 0.929 . S
H550 C544 0.930 . S
H551 C547 0.930 . S
C552 N553 1.314 . S
C552 C554 1.353 . S
C552 H558 0.930 . S
N553 Li529 1.990 . S
N553 C552 1.314 . S
N553 C556 1.279 . S
C554 C552 1.353 . S
C554 C557 1.348 . S
C554 H602 0.929 . S
C555 C556 1.358 . S
C555 C557 1.356 . S
C555 H603 0.930 . S
C556 N553 1.279 . S
C556 C555 1.358 . S
C556 H559 0.930 . S
C557 C554 1.348 . S
C557 C555 1.356 . S
H558 C552 0.930 . S
H559 C556 0.930 . S
C560 C562 1.348 . S
C560 C563 1.356 . S
C560 O590 1.325 . S
N561 C564 1.314 . S
N561 C565 1.279 . S
C562 C560 1.348 . S
C562 C564 1.353 . S
C562 H604 0.929 . S
C563 C560 1.356 . S
C563 C565 1.358 . S
C563 H605 0.930 . S
C564 N561 1.314 . S
C564 C562 1.353 . S
C564 H606 0.930 . S
C565 N561 1.279 . S
C565 C563 1.358 . S
C565 H607 0.930 . S
C566 C567 1.348 . S
C566 C568 1.356 . S
C566 O591 1.325 . S
C567 C566 1.348 . S
C567 C569 1.353 . S
C567 H608 0.929 . S
C568 C566 1.356 . S
C568 C570 1.358 . S
C568 H609 0.930 . S
C569 C567 1.353 . S
C569 N571 1.314 . S
C569 H610 0.930 . S
C570 C568 1.358 . S
C570 N571 1.279 . S
C570 H611 0.930 . S
N571 C569 1.314 . S
N571 C570 1.279 . S
C572 C574 1.353 . S
C572 N575 1.314 . S
C572 H578 0.930 . S
C573 N575 1.279 . S
C573 C576 1.358 . S
C573 H579 0.930 . S
C574 C572 1.353 . S
C574 C577 1.348 . S
C574 H612 0.929 . S
N575 Li530 1.990 . S
N575 C572 1.314 . S
N575 C573 1.279 . S
C576 C573 1.358 . S
C576 C577 1.356 . S
C576 H613 0.930 . S
C577 C574 1.348 . S
C577 C576 1.356 . S
H578 C572 0.930 . S
H579 C573 0.930 . S
C580 N581 1.314 . S
C580 C582 1.353 . S
C580 H586 0.930 . S
N581 Li531 1.990 . S
N581 C580 1.314 . S
N581 C584 1.279 . S
C582 C580 1.353 . S
C582 C585 1.348 . S
C582 H614 0.929 . S
C583 C584 1.358 . S
C583 C585 1.356 . S
C583 H615 0.930 . S
C584 N581 1.279 . S
C584 C583 1.358 . S
C584 H587 0.930 . S
C585 C582 1.348 . S
C585 C583 1.356 . S
H586 C580 0.930 . S
H587 C584 0.930 . S
O588 Li528 1.956 . S
O588 Li529 1.970 . S
O588 Li530 1.961 . S
O588 C532 1.325 . S
O589 Li528 1.970 . S
O589 Li529 1.956 . S
O589 Li531 1.961 . S
O589 C538 1.325 . S
O590 Li528 1.961 . S
O590 Li530 1.956 . S
O590 Li531 1.970 . S
O590 C560 1.325 . S
O591 Li529 1.961 . S
O591 Li530 1.970 . S
O591 Li531 1.956 . S
O591 C566 1.325 . S
H592 C534 0.929 . S
H593 C535 0.930 . S
H594 C536 0.930 . S
H595 C537 0.930 . S
H596 C539 0.930 . S
H597 C541 0.929 . S
H598 C542 0.930 . S
H599 C543 0.930 . S
H600 C546 0.930 . S
H601 C549 0.929 . S
H602 C554 0.929 . S
H603 C555 0.930 . S
H604 C562 0.929 . S
H605 C563 0.930 . S
H606 C564 0.930 . S
H607 C565 0.930 . S
H608 C567 0.929 . S
H609 C568 0.930 . S
H610 C569 0.930 . S
H611 C570 0.930 . S
H612 C574 0.929 . S
H613 C576 0.930 . S
H614 C582 0.929 . S
H615 C583 0.930 . S
Li616 N633 1.990 . S
Li616 O676 1.956 . S
Li616 O677 1.970 . S
Li616 O678 1.961 . S
Li617 N641 1.990 . S
Li617 O676 1.970 . S
Li617 O677 1.956 . S
Li617 O679 1.961 . S
Li618 N663 1.990 . S
Li618 O676 1.961 . S
Li618 O678 1.956 . S
Li618 O679 1.970 . S
Li619 N669 1.990 . S
Li619 O677 1.961 . S
Li619 O678 1.970 . S
Li619 O679 1.956 . S
C620 C622 1.348 . S
C620 C623 1.356 . S
C620 O676 1.325 . S
N621 C624 1.314 . S
N621 C625 1.279 . S
C622 C620 1.348 . S
C622 C624 1.353 . S
C622 H680 0.929 . S
C623 C620 1.356 . S
C623 C625 1.358 . S
C623 H681 0.930 . S
C624 N621 1.314 . S
C624 C622 1.353 . S
C624 H682 0.930 . S
C625 N621 1.279 . S
C625 C623 1.358 . S
C625 H683 0.930 . S
C626 C629 1.348 . S
C626 C630 1.356 . S
C626 O677 1.325 . S
C627 N628 1.279 . S
C627 C630 1.358 . S
C627 H684 0.930 . S
N628 C627 1.279 . S
N628 C631 1.314 . S
C629 C626 1.348 . S
C629 C631 1.353 . S
C629 H685 0.929 . S
C630 C626 1.356 . S
C630 C627 1.358 . S
C630 H686 0.930 . S
C631 N628 1.314 . S
C631 C629 1.353 . S
C631 H687 0.930 . S
C632 N633 1.314 . S
C632 C637 1.353 . S
C632 H638 0.930 . S
N633 Li616 1.990 . S
N633 C632 1.314 . S
N633 C635 1.279 . S
C634 C635 1.358 . S
C634 C636 1.356 . S
C634 H688 0.930 . S
C635 N633 1.279 . S
C635 C634 1.358 . S
C635 H639 0.930 . S
C636 C634 1.356 . S
C636 C637 1.348 . S
C637 C632 1.353 . S
C637 C636 1.348 . S
C637 H689 0.929 . S
H638 C632 0.930 . S
H639 C635 0.930 . S
C640 N641 1.314 . S
C640 C642 1.353 . S
C640 H646 0.930 . S
N641 Li617 1.990 . S
N641 C640 1.314 . S
N641 C644 1.279 . S
C642 C640 1.353 . S
C642 C645 1.348 . S
C642 H690 0.929 . S
C643 C644 1.358 . S
C643 C645 1.356 . S
C643 H691 0.930 . S
C644 N641 1.279 . S
C644 C643 1.358 . S
C644 H647 0.930 . S
C645 C642 1.348 . S
C645 C643 1.356 . S
H646 C640 0.930 . S
H647 C644 0.930 . S
C648 C650 1.348 . S
C648 C651 1.356 . S
C648 O678 1.325 . S
N649 C652 1.314 . S
N649 C653 1.279 . S
C650 C648 1.348 . S
C650 C652 1.353 . S
C650 H692 0.929 . S
C651 C648 1.356 . S
C651 C653 1.358 . S
C651 H693 0.930 . S
C652 N649 1.314 . S
C652 C650 1.353 . S
C652 H694 0.930 . S
C653 N649 1.279 . S
C653 C651 1.358 . S
C653 H695 0.930 . S
C654 C655 1.348 . S
C654 C656 1.356 . S
C654 O679 1.325 . S
C655 C654 1.348 . S
C655 C657 1.353 . S
C655 H696 0.929 . S
C656 C654 1.356 . S
C656 C658 1.358 . S
C656 H697 0.930 . S
C657 C655 1.353 . S
C657 N659 1.314 . S
C657 H698 0.930 . S
C658 C656 1.358 . S
C658 N659 1.279 . S
C658 H699 0.930 . S
N659 C657 1.314 . S
N659 C658 1.279 . S
C660 C662 1.353 . S
C660 N663 1.314 . S
C660 H666 0.930 . S
C661 N663 1.279 . S
C661 C664 1.358 . S
C661 H667 0.930 . S
C662 C660 1.353 . S
C662 C665 1.348 . S
C662 H700 0.929 . S
N663 Li618 1.990 . S
N663 C660 1.314 . S
N663 C661 1.279 . S
C664 C661 1.358 . S
C664 C665 1.356 . S
C664 H701 0.930 . S
C665 C662 1.348 . S
C665 C664 1.356 . S
H666 C660 0.930 . S
H667 C661 0.930 . S
C668 N669 1.314 . S
C668 C670 1.353 . S
C668 H674 0.930 . S
N669 Li619 1.990 . S
N669 C668 1.314 . S
N669 C672 1.279 . S
C670 C668 1.353 . S
C670 C673 1.348 . S
C670 H702 0.929 . S
C671 C672 1.358 . S
C671 C673 1.356 . S
C671 H703 0.930 . S
C672 N669 1.279 . S
C672 C671 1.358 . S
C672 H675 0.930 . S
C673 C670 1.348 . S
C673 C671 1.356 . S
H674 C668 0.930 . S
H675 C672 0.930 . S
O676 Li616 1.956 . S
O676 Li617 1.970 . S
O676 Li618 1.961 . S
O676 C620 1.325 . S
O677 Li616 1.970 . S
O677 Li617 1.956 . S
O677 Li619 1.961 . S
O677 C626 1.325 . S
O678 Li616 1.961 . S
O678 Li618 1.956 . S
O678 Li619 1.970 . S
O678 C648 1.325 . S
O679 Li617 1.961 . S
O679 Li618 1.970 . S
O679 Li619 1.956 . S
O679 C654 1.325 . S
H680 C622 0.929 . S
H681 C623 0.930 . S
H682 C624 0.930 . S
H683 C625 0.930 . S
H684 C627 0.930 . S
H685 C629 0.929 . S
H686 C630 0.930 . S
H687 C631 0.930 . S
H688 C634 0.930 . S
H689 C637 0.929 . S
H690 C642 0.929 . S
H691 C643 0.930 . S
H692 C650 0.929 . S
H693 C651 0.930 . S
H694 C652 0.930 . S
H695 C653 0.930 . S
H696 C655 0.929 . S
H697 C656 0.930 . S
H698 C657 0.930 . S
H699 C658 0.930 . S
H700 C662 0.929 . S
H701 C664 0.930 . S
H702 C670 0.929 . S
H703 C671 0.930 . S
Li704 N721 1.990 . S
Li704 O764 1.956 . S
Li704 O765 1.970 . S
Li704 O766 1.961 1_554 S
Li705 N729 1.990 . S
Li705 O764 1.970 . S
Li705 O765 1.956 . S
Li705 O767 1.961 . S
Li706 N751 1.990 1_554 S
Li706 O764 1.961 . S
Li706 O766 1.956 1_554 S
Li706 O767 1.970 . S
Li707 N757 1.990 . S
Li707 O765 1.961 . S
Li707 O766 1.970 1_554 S
Li707 O767 1.956 . S
C708 C710 1.348 . S
C708 C711 1.356 . S
C708 O764 1.325 . S
N709 C712 1.314 . S
N709 C713 1.279 . S
C710 C708 1.348 . S
C710 C712 1.353 . S
C710 H768 0.929 . S
C711 C708 1.356 . S
C711 C713 1.358 . S
C711 H769 0.930 1_554 S
C712 N709 1.314 . S
C712 C710 1.353 . S
C712 H770 0.930 . S
C713 N709 1.279 . S
C713 C711 1.358 . S
C713 H771 0.930 1_554 S
C714 C717 1.348 . S
C714 C718 1.356 . S
C714 O765 1.325 . S
C715 N716 1.279 . S
C715 C718 1.358 . S
C715 H772 0.930 . S
N716 C715 1.279 . S
N716 C719 1.314 . S
C717 C714 1.348 . S
C717 C719 1.353 . S
C717 H773 0.929 . S
C718 C714 1.356 . S
C718 C715 1.358 . S
C718 H774 0.930 . S
C719 N716 1.314 . S
C719 C717 1.353 . S
C719 H775 0.930 . S
C720 N721 1.314 . S
C720 C725 1.353 . S
C720 H726 0.930 . S
N721 Li704 1.990 . S
N721 C720 1.314 . S
N721 C723 1.279 . S
C722 C723 1.358 . S
C722 C724 1.356 . S
C722 H776 0.930 . S
C723 N721 1.279 . S
C723 C722 1.358 . S
C723 H727 0.930 . S
C724 C722 1.356 . S
C724 C725 1.348 . S
C725 C720 1.353 . S
C725 C724 1.348 . S
C725 H777 0.929 . S
H726 C720 0.930 . S
H727 C723 0.930 . S
C728 N729 1.314 . S
C728 C730 1.353 . S
C728 H734 0.930 . S
N729 Li705 1.990 . S
N729 C728 1.314 . S
N729 C732 1.279 . S
C730 C728 1.353 . S
C730 C733 1.348 . S
C730 H778 0.929 . S
C731 C732 1.358 . S
C731 C733 1.356 . S
C731 H779 0.930 . S
C732 N729 1.279 . S
C732 C731 1.358 . S
C732 H735 0.930 . S
C733 C730 1.348 . S
C733 C731 1.356 . S
H734 C728 0.930 . S
H735 C732 0.930 . S
C736 C738 1.348 . S
C736 C739 1.356 . S
C736 O766 1.325 . S
N737 C740 1.314 . S
N737 C741 1.279 . S
C738 C736 1.348 . S
C738 C740 1.353 . S
C738 H780 0.929 . S
C739 C736 1.356 . S
C739 C741 1.358 . S
C739 H781 0.930 . S
C740 N737 1.314 . S
C740 C738 1.353 . S
C740 H782 0.930 . S
C741 N737 1.279 . S
C741 C739 1.358 . S
C741 H783 0.930 . S
C742 C743 1.348 . S
C742 C744 1.356 . S
C742 O767 1.325 . S
C743 C742 1.348 . S
C743 C745 1.353 . S
C743 H784 0.929 1_554 S
C744 C742 1.356 . S
C744 C746 1.358 . S
C744 H785 0.930 . S
C745 C743 1.353 . S
C745 N747 1.314 . S
C745 H786 0.930 . S
C746 C744 1.358 . S
C746 N747 1.279 . S
C746 H787 0.930 . S
N747 C745 1.314 . S
N747 C746 1.279 . S
C748 C750 1.353 . S
C748 N751 1.314 . S
C748 H754 0.930 . S
C749 N751 1.279 . S
C749 C752 1.358 . S
C749 H755 0.930 . S
C750 C748 1.353 . S
C750 C753 1.348 . S
C750 H788 0.929 . S
N751 Li706 1.990 1_556 S
N751 C748 1.314 . S
N751 C749 1.279 . S
C752 C749 1.358 . S
C752 C753 1.356 . S
C752 H789 0.930 . S
C753 C750 1.348 . S
C753 C752 1.356 . S
H754 C748 0.930 . S
H755 C749 0.930 . S
C756 N757 1.314 . S
C756 C758 1.353 . S
C756 H762 0.930 . S
N757 Li707 1.990 . S
N757 C756 1.314 . S
N757 C760 1.279 . S
C758 C756 1.353 . S
C758 C761 1.348 . S
C758 H790 0.929 . S
C759 C760 1.358 . S
C759 C761 1.356 . S
C759 H791 0.930 . S
C760 N757 1.279 . S
C760 C759 1.358 . S
C760 H763 0.930 . S
C761 C758 1.348 . S
C761 C759 1.356 . S
H762 C756 0.930 . S
H763 C760 0.930 . S
O764 Li704 1.956 . S
O764 Li705 1.970 . S
O764 Li706 1.961 . S
O764 C708 1.325 . S
O765 Li704 1.970 . S
O765 Li705 1.956 . S
O765 Li707 1.961 . S
O765 C714 1.325 . S
O766 Li704 1.961 1_556 S
O766 Li706 1.956 1_556 S
O766 Li707 1.970 1_556 S
O766 C736 1.325 . S
O767 Li705 1.961 . S
O767 Li706 1.970 . S
O767 Li707 1.956 . S
O767 C742 1.325 . S
H768 C710 0.929 . S
H769 C711 0.930 1_556 S
H770 C712 0.930 . S
H771 C713 0.930 1_556 S
H772 C715 0.930 . S
H773 C717 0.929 . S
H774 C718 0.930 . S
H775 C719 0.930 . S
H776 C722 0.930 . S
H777 C725 0.929 . S
H778 C730 0.929 . S
H779 C731 0.930 . S
H780 C738 0.929 . S
H781 C739 0.930 . S
H782 C740 0.930 . S
H783 C741 0.930 . S
H784 C743 0.929 1_556 S
H785 C744 0.930 . S
H786 C745 0.930 . S
H787 C746 0.930 . S
H788 C750 0.929 . S
H789 C752 0.930 . S
H790 C758 0.929 . S
H791 C759 0.930 . S
Li792 N809 1.990 . S
Li792 O852 1.956 . S
Li792 O853 1.970 . S
Li792 O854 1.961 . S
Li793 N817 1.990 . S
Li793 O852 1.970 . S
Li793 O853 1.956 . S
Li793 O855 1.961 . S
Li794 N839 1.990 . S
Li794 O852 1.961 . S
Li794 O854 1.956 . S
Li794 O855 1.970 . S
Li795 N845 1.990 . S
Li795 O853 1.961 . S
Li795 O854 1.970 . S
Li795 O855 1.956 . S
C796 C798 1.348 . S
C796 C799 1.356 . S
C796 O852 1.325 . S
N797 C800 1.314 . S
N797 C801 1.279 . S
C798 C796 1.348 . S
C798 C800 1.353 . S
C798 H856 0.929 . S
C799 C796 1.356 . S
C799 C801 1.358 . S
C799 H857 0.930 . S
C800 N797 1.314 . S
C800 C798 1.353 . S
C800 H858 0.930 . S
C801 N797 1.279 . S
C801 C799 1.358 . S
C801 H859 0.930 . S
C802 C805 1.348 . S
C802 C806 1.356 . S
C802 O853 1.325 . S
C803 N804 1.279 . S
C803 C806 1.358 . S
C803 H860 0.930 . S
N804 C803 1.279 . S
N804 C807 1.314 . S
C805 C802 1.348 . S
C805 C807 1.353 . S
C805 H861 0.929 . S
C806 C802 1.356 . S
C806 C803 1.358 . S
C806 H862 0.930 . S
C807 N804 1.314 . S
C807 C805 1.353 . S
C807 H863 0.930 . S
C808 N809 1.314 . S
C808 C813 1.353 . S
C808 H814 0.930 . S
N809 Li792 1.990 . S
N809 C808 1.314 . S
N809 C811 1.279 . S
C810 C811 1.358 . S
C810 C812 1.356 . S
C810 H864 0.930 . S
C811 N809 1.279 . S
C811 C810 1.358 . S
C811 H815 0.930 . S
C812 C810 1.356 . S
C812 C813 1.348 . S
C813 C808 1.353 . S
C813 C812 1.348 . S
C813 H865 0.929 . S
H814 C808 0.930 . S
H815 C811 0.930 . S
C816 N817 1.314 . S
C816 C818 1.353 . S
C816 H822 0.930 . S
N817 Li793 1.990 . S
N817 C816 1.314 . S
N817 C820 1.279 . S
C818 C816 1.353 . S
C818 C821 1.348 . S
C818 H866 0.929 . S
C819 C820 1.358 . S
C819 C821 1.356 . S
C819 H867 0.930 . S
C820 N817 1.279 . S
C820 C819 1.358 . S
C820 H823 0.930 . S
C821 C818 1.348 . S
C821 C819 1.356 . S
H822 C816 0.930 . S
H823 C820 0.930 . S
C824 C826 1.348 . S
C824 C827 1.356 . S
C824 O854 1.325 . S
N825 C828 1.314 . S
N825 C829 1.279 . S
C826 C824 1.348 . S
C826 C828 1.353 . S
C826 H868 0.929 . S
C827 C824 1.356 . S
C827 C829 1.358 . S
C827 H869 0.930 . S
C828 N825 1.314 . S
C828 C826 1.353 . S
C828 H870 0.930 . S
C829 N825 1.279 . S
C829 C827 1.358 . S
C829 H871 0.930 . S
C830 C831 1.348 . S
C830 C832 1.356 . S
C830 O855 1.325 . S
C831 C830 1.348 . S
C831 C833 1.353 . S
C831 H872 0.929 . S
C832 C830 1.356 . S
C832 C834 1.358 . S
C832 H873 0.930 . S
C833 C831 1.353 . S
C833 N835 1.314 . S
C833 H874 0.930 . S
C834 C832 1.358 . S
C834 N835 1.279 . S
C834 H875 0.930 . S
N835 C833 1.314 . S
N835 C834 1.279 . S
C836 C838 1.353 . S
C836 N839 1.314 . S
C836 H842 0.930 . S
C837 N839 1.279 . S
C837 C840 1.358 . S
C837 H843 0.930 . S
C838 C836 1.353 . S
C838 C841 1.348 . S
C838 H876 0.929 . S
N839 Li794 1.990 . S
N839 C836 1.314 . S
N839 C837 1.279 . S
C840 C837 1.358 . S
C840 C841 1.356 . S
C840 H877 0.930 . S
C841 C838 1.348 . S
C841 C840 1.356 . S
H842 C836 0.930 . S
H843 C837 0.930 . S
C844 N845 1.314 . S
C844 C846 1.353 . S
C844 H850 0.930 . S
N845 Li795 1.990 . S
N845 C844 1.314 . S
N845 C848 1.279 . S
C846 C844 1.353 . S
C846 C849 1.348 . S
C846 H878 0.929 . S
C847 C848 1.358 . S
C847 C849 1.356 . S
C847 H879 0.930 . S
C848 N845 1.279 . S
C848 C847 1.358 . S
C848 H851 0.930 . S
C849 C846 1.348 . S
C849 C847 1.356 . S
H850 C844 0.930 . S
H851 C848 0.930 . S
O852 Li792 1.956 . S
O852 Li793 1.970 . S
O852 Li794 1.961 . S
O852 C796 1.325 . S
O853 Li792 1.970 . S
O853 Li793 1.956 . S
O853 Li795 1.961 . S
O853 C802 1.325 . S
O854 Li792 1.961 . S
O854 Li794 1.956 . S
O854 Li795 1.970 . S
O854 C824 1.325 . S
O855 Li793 1.961 . S
O855 Li794 1.970 . S
O855 Li795 1.956 . S
O855 C830 1.325 . S
H856 C798 0.929 . S
H857 C799 0.930 . S
H858 C800 0.930 . S
H859 C801 0.930 . S
H860 C803 0.930 . S
H861 C805 0.929 . S
H862 C806 0.930 . S
H863 C807 0.930 . S
H864 C810 0.930 . S
H865 C813 0.929 . S
H866 C818 0.929 . S
H867 C819 0.930 . S
H868 C826 0.929 . S
H869 C827 0.930 . S
H870 C828 0.930 . S
H871 C829 0.930 . S
H872 C831 0.929 . S
H873 C832 0.930 . S
H874 C833 0.930 . S
H875 C834 0.930 . S
H876 C838 0.929 . S
H877 C840 0.930 . S
H878 C846 0.929 . S
H879 C847 0.930 . S
Li880 N897 1.990 . S
Li880 O940 1.956 . S
Li880 O941 1.970 . S
Li880 O942 1.961 . S
Li881 N905 1.990 . S
Li881 O940 1.970 . S
Li881 O941 1.956 . S
Li881 O943 1.961 . S
Li882 N927 1.990 . S
Li882 O940 1.961 . S
Li882 O942 1.956 . S
Li882 O943 1.970 . S
Li883 N933 1.990 . S
Li883 O941 1.961 . S
Li883 O942 1.970 . S
Li883 O943 1.956 . S
C884 C886 1.348 . S
C884 C887 1.356 . S
C884 O940 1.325 . S
N885 C888 1.314 . S
N885 C889 1.279 . S
C886 C884 1.348 . S
C886 C888 1.353 . S
C886 H944 0.929 . S
C887 C884 1.356 . S
C887 C889 1.358 . S
C887 H945 0.930 . S
C888 N885 1.314 . S
C888 C886 1.353 . S
C888 H946 0.930 . S
C889 N885 1.279 . S
C889 C887 1.358 . S
C889 H947 0.930 . S
C890 C893 1.348 . S
C890 C894 1.356 . S
C890 O941 1.325 . S
C891 N892 1.279 . S
C891 C894 1.358 . S
C891 H948 0.930 . S
N892 C891 1.279 . S
N892 C895 1.314 . S
C893 C890 1.348 . S
C893 C895 1.353 . S
C893 H949 0.929 . S
C894 C890 1.356 . S
C894 C891 1.358 . S
C894 H950 0.930 . S
C895 N892 1.314 . S
C895 C893 1.353 . S
C895 H951 0.930 . S
C896 N897 1.314 . S
C896 C901 1.353 . S
C896 H902 0.930 . S
N897 Li880 1.990 . S
N897 C896 1.314 . S
N897 C899 1.279 . S
C898 C899 1.358 . S
C898 C900 1.356 . S
C898 H952 0.930 . S
C899 N897 1.279 . S
C899 C898 1.358 . S
C899 H903 0.930 . S
C900 C898 1.356 . S
C900 C901 1.348 . S
C901 C896 1.353 . S
C901 C900 1.348 . S
C901 H953 0.929 . S
H902 C896 0.930 . S
H903 C899 0.930 . S
C904 N905 1.314 . S
C904 C906 1.353 . S
C904 H910 0.930 . S
N905 Li881 1.990 . S
N905 C904 1.314 . S
N905 C908 1.279 . S
C906 C904 1.353 . S
C906 C909 1.348 . S
C906 H954 0.929 . S
C907 C908 1.358 . S
C907 C909 1.356 . S
C907 H955 0.930 . S
C908 N905 1.279 . S
C908 C907 1.358 . S
C908 H911 0.930 . S
C909 C906 1.348 . S
C909 C907 1.356 . S
H910 C904 0.930 . S
H911 C908 0.930 . S
C912 C914 1.348 . S
C912 C915 1.356 . S
C912 O942 1.325 . S
N913 C916 1.314 . S
N913 C917 1.279 . S
C914 C912 1.348 . S
C914 C916 1.353 . S
C914 H956 0.929 . S
C915 C912 1.356 . S
C915 C917 1.358 . S
C915 H957 0.930 . S
C916 N913 1.314 . S
C916 C914 1.353 . S
C916 H958 0.930 . S
C917 N913 1.279 . S
C917 C915 1.358 . S
C917 H959 0.930 . S
C918 C919 1.348 . S
C918 C920 1.356 . S
C918 O943 1.325 . S
C919 C918 1.348 . S
C919 C921 1.353 . S
C919 H960 0.929 . S
C920 C918 1.356 . S
C920 C922 1.358 . S
C920 H961 0.930 . S
C921 C919 1.353 . S
C921 N923 1.314 . S
C921 H962 0.930 . S
C922 C920 1.358 . S
C922 N923 1.279 . S
C922 H963 0.930 . S
N923 C921 1.314 . S
N923 C922 1.279 . S
C924 C926 1.353 . S
C924 N927 1.314 . S
C924 H930 0.930 . S
C925 N927 1.279 . S
C925 C928 1.358 . S
C925 H931 0.930 . S
C926 C924 1.353 . S
C926 C929 1.348 . S
C926 H964 0.929 . S
N927 Li882 1.990 . S
N927 C924 1.314 . S
N927 C925 1.279 . S
C928 C925 1.358 . S
C928 C929 1.356 . S
C928 H965 0.930 . S
C929 C926 1.348 . S
C929 C928 1.356 . S
H930 C924 0.930 . S
H931 C925 0.930 . S
C932 N933 1.314 . S
C932 C934 1.353 . S
C932 H938 0.930 . S
N933 Li883 1.990 . S
N933 C932 1.314 . S
N933 C936 1.279 . S
C934 C932 1.353 . S
C934 C937 1.348 . S
C934 H966 0.929 . S
C935 C936 1.358 . S
C935 C937 1.356 . S
C935 H967 0.930 . S
C936 N933 1.279 . S
C936 C935 1.358 . S
C936 H939 0.930 . S
C937 C934 1.348 . S
C937 C935 1.356 . S
H938 C932 0.930 . S
H939 C936 0.930 . S
O940 Li880 1.956 . S
O940 Li881 1.970 . S
O940 Li882 1.961 . S
O940 C884 1.325 . S
O941 Li880 1.970 . S
O941 Li881 1.956 . S
O941 Li883 1.961 . S
O941 C890 1.325 . S
O942 Li880 1.961 . S
O942 Li882 1.956 . S
O942 Li883 1.970 . S
O942 C912 1.325 . S
O943 Li881 1.961 . S
O943 Li882 1.970 . S
O943 Li883 1.956 . S
O943 C918 1.325 . S
H944 C886 0.929 . S
H945 C887 0.930 . S
H946 C888 0.930 . S
H947 C889 0.930 . S
H948 C891 0.930 . S
H949 C893 0.929 . S
H950 C894 0.930 . S
H951 C895 0.930 . S
H952 C898 0.930 . S
H953 C901 0.929 . S
H954 C906 0.929 . S
H955 C907 0.930 . S
H956 C914 0.929 . S
H957 C915 0.930 . S
H958 C916 0.930 . S
H959 C917 0.930 . S
H960 C919 0.929 . S
H961 C920 0.930 . S
H962 C921 0.930 . S
H963 C922 0.930 . S
H964 C926 0.929 . S
H965 C928 0.930 . S
H966 C934 0.929 . S
H967 C935 0.930 . S
Li968 N985 1.990 . S
Li968 O1028 1.956 . S
Li968 O1029 1.970 . S
Li968 O1030 1.961 . S
Li969 N993 1.990 . S
Li969 O1028 1.970 . S
Li969 O1029 1.956 . S
Li969 O1031 1.961 1_554 S
Li970 N1015 1.990 . S
Li970 O1028 1.961 . S
Li970 O1030 1.956 . S
Li970 O1031 1.970 1_554 S
Li971 N1021 1.990 1_554 S
Li971 O1029 1.961 . S
Li971 O1030 1.970 . S
Li971 O1031 1.956 1_554 S
C972 C974 1.348 . S
C972 C975 1.356 . S
C972 O1028 1.325 . S
N973 C976 1.314 . S
N973 C977 1.279 . S
C974 C972 1.348 . S
C974 C976 1.353 . S
C974 H1032 0.929 . S
C975 C972 1.356 . S
C975 C977 1.358 . S
C975 H1033 0.930 . S
C976 N973 1.314 . S
C976 C974 1.353 . S
C976 H1034 0.930 . S
C977 N973 1.279 . S
C977 C975 1.358 . S
C977 H1035 0.930 . S
C978 C981 1.348 . S
C978 C982 1.356 . S
C978 O1029 1.325 . S
C979 N980 1.279 . S
C979 C982 1.358 . S
C979 H1036 0.930 1_554 S
N980 C979 1.279 . S
N980 C983 1.314 . S
C981 C978 1.348 . S
C981 C983 1.353 . S
C981 H1037 0.929 . S
C982 C978 1.356 . S
C982 C979 1.358 . S
C982 H1038 0.930 1_554 S
C983 N980 1.314 . S
C983 C981 1.353 . S
C983 H1039 0.930 . S
C984 N985 1.314 . S
C984 C989 1.353 . S
C984 H990 0.930 . S
N985 Li968 1.990 . S
N985 C984 1.314 . S
N985 C987 1.279 . S
C986 C987 1.358 . S
C986 C988 1.356 . S
C986 H1040 0.930 . S
C987 N985 1.279 . S
C987 C986 1.358 . S
C987 H991 0.930 . S
C988 C986 1.356 . S
C988 C989 1.348 . S
C989 C984 1.353 . S
C989 C988 1.348 . S
C989 H1041 0.929 . S
H990 C984 0.930 . S
H991 C987 0.930 . S
C992 N993 1.314 . S
C992 C994 1.353 . S
C992 H998 0.930 . S
N993 Li969 1.990 . S
N993 C992 1.314 . S
N993 C996 1.279 . S
C994 C992 1.353 . S
C994 C997 1.348 . S
C994 H1042 0.929 . S
C995 C996 1.358 . S
C995 C997 1.356 . S
C995 H1043 0.930 . S
C996 N993 1.279 . S
C996 C995 1.358 . S
C996 H999 0.930 . S
C997 C994 1.348 . S
C997 C995 1.356 . S
H998 C992 0.930 . S
H999 C996 0.930 . S
C1000 C1002 1.348 . S
C1000 C1003 1.356 . S
C1000 O1030 1.325 . S
N1001 C1004 1.314 . S
N1001 C1005 1.279 . S
C1002 C1000 1.348 . S
C1002 C1004 1.353 . S
C1002 H1044 0.929 1_554 S
C1003 C1000 1.356 . S
C1003 C1005 1.358 . S
C1003 H1045 0.930 . S
C1004 N1001 1.314 . S
C1004 C1002 1.353 . S
C1004 H1046 0.930 . S
C1005 N1001 1.279 . S
C1005 C1003 1.358 . S
C1005 H1047 0.930 . S
C1006 C1007 1.348 . S
C1006 C1008 1.356 . S
C1006 O1031 1.325 . S
C1007 C1006 1.348 . S
C1007 C1009 1.353 . S
C1007 H1048 0.929 . S
C1008 C1006 1.356 . S
C1008 C1010 1.358 . S
C1008 H1049 0.930 . S
C1009 C1007 1.353 . S
C1009 N1011 1.314 . S
C1009 H1050 0.930 . S
C1010 C1008 1.358 . S
C1010 N1011 1.279 . S
C1010 H1051 0.930 . S
N1011 C1009 1.314 . S
N1011 C1010 1.279 . S
C1012 C1014 1.353 . S
C1012 N1015 1.314 . S
C1012 H1018 0.930 . S
C1013 N1015 1.279 . S
C1013 C1016 1.358 . S
C1013 H1019 0.930 . S
C1014 C1012 1.353 . S
C1014 C1017 1.348 . S
C1014 H1052 0.929 . S
N1015 Li970 1.990 . S
N1015 C1012 1.314 . S
N1015 C1013 1.279 . S
C1016 C1013 1.358 . S
C1016 C1017 1.356 . S
C1016 H1053 0.930 . S
C1017 C1014 1.348 . S
C1017 C1016 1.356 . S
H1018 C1012 0.930 . S
H1019 C1013 0.930 . S
C1020 N1021 1.314 . S
C1020 C1022 1.353 . S
C1020 H1026 0.930 . S
N1021 Li971 1.990 1_556 S
N1021 C1020 1.314 . S
N1021 C1024 1.279 . S
C1022 C1020 1.353 . S
C1022 C1025 1.348 . S
C1022 H1054 0.929 . S
C1023 C1024 1.358 . S
C1023 C1025 1.356 . S
C1023 H1055 0.930 . S
C1024 N1021 1.279 . S
C1024 C1023 1.358 . S
C1024 H1027 0.930 . S
C1025 C1022 1.348 . S
C1025 C1023 1.356 . S
H1026 C1020 0.930 . S
H1027 C1024 0.930 . S
O1028 Li968 1.956 . S
O1028 Li969 1.970 . S
O1028 Li970 1.961 . S
O1028 C972 1.325 . S
O1029 Li968 1.970 . S
O1029 Li969 1.956 . S
O1029 Li971 1.961 . S
O1029 C978 1.325 . S
O1030 Li968 1.961 . S
O1030 Li970 1.956 . S
O1030 Li971 1.970 . S
O1030 C1000 1.325 . S
O1031 Li969 1.961 1_556 S
O1031 Li970 1.970 1_556 S
O1031 Li971 1.956 1_556 S
O1031 C1006 1.325 . S
H1032 C974 0.929 . S
H1033 C975 0.930 . S
H1034 C976 0.930 . S
H1035 C977 0.930 . S
H1036 C979 0.930 1_556 S
H1037 C981 0.929 . S
H1038 C982 0.930 1_556 S
H1039 C983 0.930 . S
H1040 C986 0.930 . S
H1041 C989 0.929 . S
H1042 C994 0.929 . S
H1043 C995 0.930 . S
H1044 C1002 0.929 1_556 S
H1045 C1003 0.930 . S
H1046 C1004 0.930 . S
H1047 C1005 0.930 . S
H1048 C1007 0.929 . S
H1049 C1008 0.930 . S
H1050 C1009 0.930 . S
H1051 C1010 0.930 . S
H1052 C1014 0.929 . S
H1053 C1016 0.930 . S
H1054 C1022 0.929 . S
H1055 C1023 0.930 . S
C1056 C1057 1.363 . S
C1056 C1062 1.379 . S
C1056 N1064 1.356 . S
C1057 C1056 1.363 . S
C1057 C1063 1.363 . S
C1058 C1059 1.363 . S
C1058 C1063 1.379 . S
C1058 N1065 1.356 . S
C1059 C1058 1.363 . S
C1059 C1062 1.363 . S
N1060 C1062 1.356 . S
N1060 H1072 0.984 . S
N1060 H1073 0.985 . S
N1061 C1063 1.356 . S
N1061 H1066 0.984 . S
N1061 H1067 0.985 . S
C1062 C1056 1.379 . S
C1062 C1059 1.363 . S
C1062 N1060 1.356 . S
C1063 C1057 1.363 . S
C1063 C1058 1.379 . S
C1063 N1061 1.356 . S
N1064 C1056 1.356 . S
N1064 H1070 0.984 . S
N1064 H1071 0.984 . S
N1065 C1058 1.356 . S
N1065 H1068 0.984 . S
N1065 H1069 0.985 . S
H1066 N1061 0.984 . S
H1067 N1061 0.985 . S
H1068 N1065 0.984 . S
H1069 N1065 0.985 . S
H1070 N1064 0.984 . S
H1071 N1064 0.984 . S
H1072 N1060 0.984 . S
H1073 N1060 0.985 . S
C1074 C1075 1.363 . S
C1074 C1080 1.379 1_655 S
C1074 N1082 1.356 . S
C1075 C1074 1.363 . S
C1075 C1081 1.363 . S
C1076 C1077 1.363 . S
C1076 C1081 1.379 1_455 S
C1076 N1083 1.356 . S
C1077 C1076 1.363 . S
C1077 C1080 1.363 . S
N1078 C1080 1.356 . S
N1078 H1090 0.984 . S
N1078 H1091 0.985 . S
N1079 C1081 1.356 . S
N1079 H1084 0.984 . S
N1079 H1085 0.985 . S
C1080 C1074 1.379 1_455 S
C1080 C1077 1.363 . S
C1080 N1078 1.356 . S
C1081 C1075 1.363 . S
C1081 C1076 1.379 1_655 S
C1081 N1079 1.356 . S
N1082 C1074 1.356 . S
N1082 H1088 0.984 . S
N1082 H1089 0.984 . S
N1083 C1076 1.356 . S
N1083 H1086 0.984 . S
N1083 H1087 0.985 . S
H1084 N1079 0.984 . S
H1085 N1079 0.985 . S
H1086 N1083 0.984 . S
H1087 N1083 0.985 . S
H1088 N1082 0.984 . S
H1089 N1082 0.984 . S
H1090 N1078 0.984 . S
H1091 N1078 0.985 . S
C1092 C1093 1.363 . S
C1092 C1098 1.379 1_565 S
C1092 N1100 1.356 . S
C1093 C1092 1.363 . S
C1093 C1099 1.363 1_556 S
C1094 C1095 1.363 . S
C1094 C1099 1.379 1_545 S
C1094 N1101 1.356 . S
C1095 C1094 1.363 . S
C1095 C1098 1.363 1_554 S
N1096 C1098 1.356 . S
N1096 H1108 0.984 . S
N1096 H1109 0.985 . S
N1097 C1099 1.356 . S
N1097 H1102 0.984 . S
N1097 H1103 0.985 . S
C1098 C1092 1.379 1_545 S
C1098 C1095 1.363 1_556 S
C1098 N1096 1.356 . S
C1099 C1093 1.363 1_554 S
C1099 C1094 1.379 1_565 S
C1099 N1097 1.356 . S
N1100 C1092 1.356 . S
N1100 H1106 0.984 . S
N1100 H1107 0.984 . S
N1101 C1094 1.356 . S
N1101 H1104 0.984 . S
N1101 H1105 0.985 . S
H1102 N1097 0.984 . S
H1103 N1097 0.985 . S
H1104 N1101 0.984 . S
H1105 N1101 0.985 . S
H1106 N1100 0.984 . S
H1107 N1100 0.984 . S
H1108 N1096 0.984 . S
H1109 N1096 0.985 . S
C1110 C1111 1.363 . S
C1110 C1116 1.379 . S
C1110 N1118 1.356 . S
C1111 C1110 1.363 . S
C1111 C1117 1.363 . S
C1112 C1113 1.363 . S
C1112 C1117 1.379 . S
C1112 N1119 1.356 . S
C1113 C1112 1.363 . S
C1113 C1116 1.363 . S
N1114 C1116 1.356 . S
N1114 H1126 0.984 . S
N1114 H1127 0.985 . S
N1115 C1117 1.356 . S
N1115 H1120 0.984 . S
N1115 H1121 0.985 . S
C1116 C1110 1.379 . S
C1116 C1113 1.363 . S
C1116 N1114 1.356 . S
C1117 C1111 1.363 . S
C1117 C1112 1.379 . S
C1117 N1115 1.356 . S
N1118 C1110 1.356 . S
N1118 H1124 0.984 . S
N1118 H1125 0.984 . S
N1119 C1112 1.356 . S
N1119 H1122 0.984 . S
N1119 H1123 0.985 . S
H1120 N1115 0.984 . S
H1121 N1115 0.985 . S
H1122 N1119 0.984 . S
H1123 N1119 0.985 . S
H1124 N1118 0.984 . S
H1125 N1118 0.984 . S
H1126 N1114 0.984 . S
H1127 N1114 0.985 . S
C1128 C1129 1.363 . S
C1128 C1134 1.379 1_655 S
C1128 N1136 1.356 . S
C1129 C1128 1.363 . S
C1129 C1135 1.363 . S
C1130 C1131 1.363 . S
C1130 C1135 1.379 1_455 S
C1130 N1137 1.356 . S
C1131 C1130 1.363 . S
C1131 C1134 1.363 . S
N1132 C1134 1.356 . S
N1132 H1144 0.984 . S
N1132 H1145 0.985 . S
N1133 C1135 1.356 . S
N1133 H1138 0.984 . S
N1133 H1139 0.985 . S
C1134 C1128 1.379 1_455 S
C1134 C1131 1.363 . S
C1134 N1132 1.356 . S
C1135 C1129 1.363 . S
C1135 C1130 1.379 1_655 S
C1135 N1133 1.356 . S
N1136 C1128 1.356 . S
N1136 H1142 0.984 . S
N1136 H1143 0.984 . S
N1137 C1130 1.356 . S
N1137 H1140 0.984 . S
N1137 H1141 0.985 . S
H1138 N1133 0.984 . S
H1139 N1133 0.985 . S
H1140 N1137 0.984 . S
H1141 N1137 0.985 . S
H1142 N1136 0.984 . S
H1143 N1136 0.984 . S
H1144 N1132 0.984 . S
H1145 N1132 0.985 . S
C1146 C1147 1.363 1_556 S
C1146 C1152 1.379 1_565 S
C1146 N1154 1.356 . S
C1147 C1146 1.363 1_554 S
C1147 C1153 1.363 . S
C1148 C1149 1.363 1_554 S
C1148 C1153 1.379 1_545 S
C1148 N1155 1.356 . S
C1149 C1148 1.363 1_556 S
C1149 C1152 1.363 . S
N1150 C1152 1.356 . S
N1150 H1162 0.984 . S
N1150 H1163 0.985 . S
N1151 C1153 1.356 . S
N1151 H1156 0.984 . S
N1151 H1157 0.985 . S
C1152 C1146 1.379 1_545 S
C1152 C1149 1.363 . S
C1152 N1150 1.356 . S
C1153 C1147 1.363 . S
C1153 C1148 1.379 1_565 S
C1153 N1151 1.356 . S
N1154 C1146 1.356 . S
N1154 H1160 0.984 . S
N1154 H1161 0.984 . S
N1155 C1148 1.356 . S
N1155 H1158 0.984 . S
N1155 H1159 0.985 . S
H1156 N1151 0.984 . S
H1157 N1151 0.985 . S
H1158 N1155 0.984 . S
H1159 N1155 0.985 . S
H1160 N1154 0.984 . S
H1161 N1154 0.984 . S
H1162 N1150 0.984 . S
H1163 N1150 0.985 . S
C1164 C1165 1.363 . S
C1164 C1170 1.379 1_556 S
C1164 N1172 1.356 . S
C1165 C1164 1.363 . S
C1165 C1171 1.363 . S
C1166 C1167 1.363 . S
C1166 C1171 1.379 1_554 S
C1166 N1173 1.356 . S
C1167 C1166 1.363 . S
C1167 C1170 1.363 . S
N1168 C1170 1.356 . S
N1168 H1180 0.984 . S
N1168 H1181 0.985 . S
N1169 C1171 1.356 . S
N1169 H1174 0.984 . S
N1169 H1175 0.985 . S
C1170 C1164 1.379 1_554 S
C1170 C1167 1.363 . S
C1170 N1168 1.356 . S
C1171 C1165 1.363 . S
C1171 C1166 1.379 1_556 S
C1171 N1169 1.356 . S
N1172 C1164 1.356 . S
N1172 H1178 0.975 1_556 S
N1172 H1179 0.984 . S
N1173 C1166 1.356 . S
N1173 H1176 0.984 . S
N1173 H1177 0.975 1_554 S
H1174 N1169 0.984 . S
H1175 N1169 0.985 . S
H1176 N1173 0.984 . S
H1177 N1173 0.975 1_556 S
H1178 N1172 0.975 1_554 S
H1179 N1172 0.984 . S
H1180 N1168 0.984 . S
H1181 N1168 0.985 . S
C1182 C1183 1.363 . S
C1182 C1188 1.379 . S
C1182 N1190 1.356 . S
C1183 C1182 1.363 . S
C1183 C1189 1.363 . S
C1184 C1185 1.363 . S
C1184 C1189 1.379 . S
C1184 N1191 1.356 . S
C1185 C1184 1.363 . S
C1185 C1188 1.363 . S
N1186 C1188 1.356 . S
N1186 H1198 0.984 . S
N1186 H1199 0.985 . S
N1187 C1189 1.356 . S
N1187 H1192 0.984 . S
N1187 H1193 0.985 . S
C1188 C1182 1.379 . S
C1188 C1185 1.363 . S
C1188 N1186 1.356 . S
C1189 C1183 1.363 . S
C1189 C1184 1.379 . S
C1189 N1187 1.356 . S
N1190 C1182 1.356 . S
N1190 H1196 0.984 . S
N1190 H1197 0.984 . S
N1191 C1184 1.356 . S
N1191 H1194 0.984 . S
N1191 H1195 0.985 . S
H1192 N1187 0.984 . S
H1193 N1187 0.985 . S
H1194 N1191 0.984 . S
H1195 N1191 0.985 . S
H1196 N1190 0.984 . S
H1197 N1190 0.984 . S
H1198 N1186 0.984 . S
H1199 N1186 0.985 . S
C1200 C1201 1.363 . S
C1200 C1206 1.379 . S
C1200 N1208 1.356 . S
C1201 C1200 1.363 . S
C1201 C1207 1.363 . S
C1202 C1203 1.363 . S
C1202 C1207 1.379 . S
C1202 N1209 1.356 . S
C1203 C1202 1.363 . S
C1203 C1206 1.363 . S
N1204 C1206 1.356 . S
N1204 H1216 0.984 . S
N1204 H1217 0.985 . S
N1205 C1207 1.356 . S
N1205 H1210 0.984 . S
N1205 H1211 0.985 . S
C1206 C1200 1.379 . S
C1206 C1203 1.363 . S
C1206 N1204 1.356 . S
C1207 C1201 1.363 . S
C1207 C1202 1.379 . S
C1207 N1205 1.356 . S
N1208 C1200 1.356 . S
N1208 H1214 0.984 . S
N1208 H1215 0.984 . S
N1209 C1202 1.356 . S
N1209 H1212 0.984 . S
N1209 H1213 0.985 . S
H1210 N1205 0.984 . S
H1211 N1205 0.985 . S
H1212 N1209 0.984 . S
H1213 N1209 0.985 . S
H1214 N1208 0.984 . S
H1215 N1208 0.984 . S
H1216 N1204 0.984 . S
H1217 N1204 0.985 . S
C1218 C1219 1.363 . S
C1218 C1224 1.379 1_554 S
C1218 N1226 1.356 . S
C1219 C1218 1.363 . S
C1219 C1225 1.363 . S
C1220 C1221 1.363 . S
C1220 C1225 1.379 1_556 S
C1220 N1227 1.356 . S
C1221 C1220 1.363 . S
C1221 C1224 1.363 . S
N1222 C1224 1.356 . S
N1222 H1234 0.984 . S
N1222 H1235 0.985 . S
N1223 C1225 1.356 . S
N1223 H1228 0.984 . S
N1223 H1229 0.985 . S
C1224 C1218 1.379 1_556 S
C1224 C1221 1.363 . S
C1224 N1222 1.356 . S
C1225 C1219 1.363 . S
C1225 C1220 1.379 1_554 S
C1225 N1223 1.356 . S
N1226 C1218 1.356 . S
N1226 H1232 0.977 1_554 S
N1226 H1233 0.984 . S
N1227 C1220 1.356 . S
N1227 H1230 0.984 . S
N1227 H1231 0.977 1_556 S
H1228 N1223 0.984 . S
H1229 N1223 0.985 . S
H1230 N1227 0.984 . S
H1231 N1227 0.977 1_554 S
H1232 N1226 0.977 1_556 S
H1233 N1226 0.984 . S
H1234 N1222 0.984 . S
H1235 N1222 0.985 . S
C1236 C1237 1.363 . S
C1236 C1242 1.379 . S
C1236 N1244 1.356 . S
C1237 C1236 1.363 . S
C1237 C1243 1.363 . S
C1238 C1239 1.363 . S
C1238 C1243 1.379 . S
C1238 N1245 1.356 . S
C1239 C1238 1.363 . S
C1239 C1242 1.363 . S
N1240 C1242 1.356 . S
N1240 H1252 0.984 . S
N1240 H1253 0.985 . S
N1241 C1243 1.356 . S
N1241 H1246 0.984 . S
N1241 H1247 0.985 . S
C1242 C1236 1.379 . S
C1242 C1239 1.363 . S
C1242 N1240 1.356 . S
C1243 C1237 1.363 . S
C1243 C1238 1.379 . S
C1243 N1241 1.356 . S
N1244 C1236 1.356 . S
N1244 H1250 0.984 . S
N1244 H1251 0.984 . S
N1245 C1238 1.356 . S
N1245 H1248 0.984 . S
N1245 H1249 0.985 . S
H1246 N1241 0.984 . S
H1247 N1241 0.985 . S
H1248 N1245 0.984 . S
H1249 N1245 0.985 . S
H1250 N1244 0.984 . S
H1251 N1244 0.984 . S
H1252 N1240 0.984 . S
H1253 N1240 0.985 . S
C1254 C1255 1.363 . S
C1254 C1260 1.379 . S
C1254 N1262 1.356 . S
C1255 C1254 1.363 . S
C1255 C1261 1.363 . S
C1256 C1257 1.363 . S
C1256 C1261 1.379 . S
C1256 N1263 1.356 . S
C1257 C1256 1.363 . S
C1257 C1260 1.363 . S
N1258 C1260 1.356 . S
N1258 H1270 0.984 . S
N1258 H1271 0.985 . S
N1259 C1261 1.356 . S
N1259 H1264 0.984 . S
N1259 H1265 0.985 . S
C1260 C1254 1.379 . S
C1260 C1257 1.363 . S
C1260 N1258 1.356 . S
C1261 C1255 1.363 . S
C1261 C1256 1.379 . S
C1261 N1259 1.356 . S
N1262 C1254 1.356 . S
N1262 H1268 0.984 . S
N1262 H1269 0.984 . S
N1263 C1256 1.356 . S
N1263 H1266 0.984 . S
N1263 H1267 0.985 . S
H1264 N1259 0.984 . S
H1265 N1259 0.985 . S
H1266 N1263 0.984 . S
H1267 N1263 0.985 . S
H1268 N1262 0.984 . S
H1269 N1262 0.984 . S
H1270 N1258 0.984 . S
H1271 N1258 0.985 . S
C1272 C1273 1.363 . S
C1272 C1278 1.379 . S
C1272 N1280 1.356 . S
C1273 C1272 1.363 . S
C1273 C1279 1.363 . S
C1274 C1275 1.363 . S
C1274 C1279 1.379 . S
C1274 N1281 1.356 . S
C1275 C1274 1.363 . S
C1275 C1278 1.363 . S
N1276 C1278 1.356 . S
N1276 H1288 0.984 . S
N1276 H1289 0.985 . S
N1277 C1279 1.356 . S
N1277 H1282 0.984 . S
N1277 H1283 0.985 . S
C1278 C1272 1.379 . S
C1278 C1275 1.363 . S
C1278 N1276 1.356 . S
C1279 C1273 1.363 . S
C1279 C1274 1.379 . S
C1279 N1277 1.356 . S
N1280 C1272 1.356 . S
N1280 H1286 0.984 . S
N1280 H1287 0.984 . S
N1281 C1274 1.356 . S
N1281 H1284 0.984 . S
N1281 H1285 0.985 . S
H1282 N1277 0.984 . S
H1283 N1277 0.985 . S
H1284 N1281 0.984 . S
H1285 N1281 0.985 . S
H1286 N1280 0.984 . S
H1287 N1280 0.984 . S
H1288 N1276 0.984 . S
H1289 N1276 0.985 . S
C1290 C1291 1.363 . S
C1290 C1296 1.379 . S
C1290 N1298 1.356 . S
C1291 C1290 1.363 . S
C1291 C1297 1.363 . S
C1292 C1293 1.363 . S
C1292 C1297 1.379 . S
C1292 N1299 1.356 . S
C1293 C1292 1.363 . S
C1293 C1296 1.363 . S
N1294 C1296 1.356 . S
N1294 H1306 0.984 . S
N1294 H1307 0.985 . S
N1295 C1297 1.356 . S
N1295 H1300 0.984 . S
N1295 H1301 0.985 . S
C1296 C1290 1.379 . S
C1296 C1293 1.363 . S
C1296 N1294 1.356 . S
C1297 C1291 1.363 . S
C1297 C1292 1.379 . S
C1297 N1295 1.356 . S
N1298 C1290 1.356 . S
N1298 H1304 0.984 . S
N1298 H1305 0.984 . S
N1299 C1292 1.356 . S
N1299 H1302 0.984 . S
N1299 H1303 0.985 . S
H1300 N1295 0.984 . S
H1301 N1295 0.985 . S
H1302 N1299 0.984 . S
H1303 N1299 0.985 . S
H1304 N1298 0.984 . S
H1305 N1298 0.984 . S
H1306 N1294 0.984 . S
H1307 N1294 0.985 . S
C1308 C1309 1.363 . S
C1308 C1314 1.379 . S
C1308 N1316 1.356 . S
C1309 C1308 1.363 . S
C1309 C1315 1.363 . S
C1310 C1311 1.363 . S
C1310 C1315 1.379 . S
C1310 N1317 1.356 . S
C1311 C1310 1.363 . S
C1311 C1314 1.363 . S
N1312 C1314 1.356 . S
N1312 H1324 0.984 . S
N1312 H1325 0.985 . S
N1313 C1315 1.356 . S
N1313 H1318 0.984 . S
N1313 H1319 0.985 . S
C1314 C1308 1.379 . S
C1314 C1311 1.363 . S
C1314 N1312 1.356 . S
C1315 C1309 1.363 . S
C1315 C1310 1.379 . S
C1315 N1313 1.356 . S
N1316 C1308 1.356 . S
N1316 H1322 0.984 . S
N1316 H1323 0.984 . S
N1317 C1310 1.356 . S
N1317 H1320 0.984 . S
N1317 H1321 0.985 . S
H1318 N1313 0.984 . S
H1319 N1313 0.985 . S
H1320 N1317 0.984 . S
H1321 N1317 0.985 . S
H1322 N1316 0.984 . S
H1323 N1316 0.984 . S
H1324 N1312 0.984 . S
H1325 N1312 0.985 . S
C1326 C1327 1.363 . S
C1326 C1332 1.379 . S
C1326 N1334 1.356 . S
C1327 C1326 1.363 . S
C1327 C1333 1.363 . S
C1328 C1329 1.363 . S
C1328 C1333 1.379 . S
C1328 N1335 1.356 . S
C1329 C1328 1.363 . S
C1329 C1332 1.363 . S
N1330 C1332 1.356 . S
N1330 H1342 0.984 . S
N1330 H1343 0.985 . S
N1331 C1333 1.356 . S
N1331 H1336 0.984 . S
N1331 H1337 0.985 . S
C1332 C1326 1.379 . S
C1332 C1329 1.363 . S
C1332 N1330 1.356 . S
C1333 C1327 1.363 . S
C1333 C1328 1.379 . S
C1333 N1331 1.356 . S
N1334 C1326 1.356 . S
N1334 H1340 0.984 . S
N1334 H1341 0.984 . S
N1335 C1328 1.356 . S
N1335 H1338 0.984 . S
N1335 H1339 0.985 . S
H1336 N1331 0.984 . S
H1337 N1331 0.985 . S
H1338 N1335 0.984 . S
H1339 N1335 0.985 . S
H1340 N1334 0.984 . S
H1341 N1334 0.984 . S
H1342 N1330 0.984 . S
H1343 N1330 0.985 . S
C1344 C1345 1.363 . S
C1344 C1350 1.379 . S
C1344 N1352 1.356 . S
C1345 C1344 1.363 . S
C1345 C1351 1.363 . S
C1346 C1347 1.363 . S
C1346 C1351 1.379 . S
C1346 N1353 1.356 . S
C1347 C1346 1.363 . S
C1347 C1350 1.363 . S
N1348 C1350 1.356 . S
N1348 H1360 0.984 . S
N1348 H1361 0.985 . S
N1349 C1351 1.356 . S
N1349 H1354 0.984 . S
N1349 H1355 0.985 . S
C1350 C1344 1.379 . S
C1350 C1347 1.363 . S
C1350 N1348 1.356 . S
C1351 C1345 1.363 . S
C1351 C1346 1.379 . S
C1351 N1349 1.356 . S
N1352 C1344 1.356 . S
N1352 H1358 0.984 . S
N1352 H1359 0.984 . S
N1353 C1346 1.356 . S
N1353 H1356 0.984 . S
N1353 H1357 0.985 . S
H1354 N1349 0.984 . S
H1355 N1349 0.985 . S
H1356 N1353 0.984 . S
H1357 N1353 0.985 . S
H1358 N1352 0.984 . S
H1359 N1352 0.984 . S
H1360 N1348 0.984 . S
H1361 N1348 0.985 . S
C1362 C1363 1.363 . S
C1362 C1368 1.379 . S
C1362 N1370 1.356 . S
C1363 C1362 1.363 . S
C1363 C1369 1.363 . S
C1364 C1365 1.363 . S
C1364 C1369 1.379 . S
C1364 N1371 1.356 . S
C1365 C1364 1.363 . S
C1365 C1368 1.363 . S
N1366 C1368 1.356 . S
N1366 H1378 0.984 . S
N1366 H1379 0.985 . S
N1367 C1369 1.356 . S
N1367 H1372 0.984 . S
N1367 H1373 0.985 . S
C1368 C1362 1.379 . S
C1368 C1365 1.363 . S
C1368 N1366 1.356 . S
C1369 C1363 1.363 . S
C1369 C1364 1.379 . S
C1369 N1367 1.356 . S
N1370 C1362 1.356 . S
N1370 H1376 0.984 . S
N1370 H1377 0.984 . S
N1371 C1364 1.356 . S
N1371 H1374 0.984 . S
N1371 H1375 0.985 . S
H1372 N1367 0.984 . S
H1373 N1367 0.985 . S
H1374 N1371 0.984 . S
H1375 N1371 0.985 . S
H1376 N1370 0.984 . S
H1377 N1370 0.984 . S
H1378 N1366 0.984 . S
H1379 N1366 0.985 . S
C1380 C1381 1.363 . S
C1380 C1386 1.379 . S
C1380 N1388 1.356 . S
C1381 C1380 1.363 . S
C1381 C1387 1.363 . S
C1382 C1383 1.363 . S
C1382 C1387 1.379 . S
C1382 N1389 1.356 . S
C1383 C1382 1.363 . S
C1383 C1386 1.363 . S
N1384 C1386 1.356 . S
N1384 H1396 0.984 . S
N1384 H1397 0.985 . S
N1385 C1387 1.356 . S
N1385 H1390 0.984 . S
N1385 H1391 0.985 . S
C1386 C1380 1.379 . S
C1386 C1383 1.363 . S
C1386 N1384 1.356 . S
C1387 C1381 1.363 . S
C1387 C1382 1.379 . S
C1387 N1385 1.356 . S
N1388 C1380 1.356 . S
N1388 H1394 0.984 . S
N1388 H1395 0.984 . S
N1389 C1382 1.356 . S
N1389 H1392 0.984 . S
N1389 H1393 0.985 . S
H1390 N1385 0.984 . S
H1391 N1385 0.985 . S
H1392 N1389 0.984 . S
H1393 N1389 0.985 . S
H1394 N1388 0.984 . S
H1395 N1388 0.984 . S
H1396 N1384 0.984 . S
H1397 N1384 0.985 . S
C1398 C1399 1.363 . S
C1398 C1404 1.379 . S
C1398 N1406 1.356 . S
C1399 C1398 1.363 . S
C1399 C1405 1.363 . S
C1400 C1401 1.363 . S
C1400 C1405 1.379 . S
C1400 N1407 1.356 . S
C1401 C1400 1.363 . S
C1401 C1404 1.363 . S
N1402 C1404 1.356 . S
N1402 H1414 0.984 . S
N1402 H1415 0.985 . S
N1403 C1405 1.356 . S
N1403 H1408 0.984 . S
N1403 H1409 0.985 . S
C1404 C1398 1.379 . S
C1404 C1401 1.363 . S
C1404 N1402 1.356 . S
C1405 C1399 1.363 . S
C1405 C1400 1.379 . S
C1405 N1403 1.356 . S
N1406 C1398 1.356 . S
N1406 H1412 0.984 . S
N1406 H1413 0.984 . S
N1407 C1400 1.356 . S
N1407 H1410 0.984 . S
N1407 H1411 0.985 . S
H1408 N1403 0.984 . S
H1409 N1403 0.985 . S
H1410 N1407 0.984 . S
H1411 N1407 0.985 . S
H1412 N1406 0.984 . S
H1413 N1406 0.984 . S
H1414 N1402 0.984 . S
H1415 N1402 0.985 . S
C1416 C1417 1.363 . S
C1416 C1422 1.379 . S
C1416 N1424 1.356 . S
C1417 C1416 1.363 . S
C1417 C1423 1.363 1_556 S
C1418 C1419 1.363 . S
C1418 C1423 1.379 . S
C1418 N1425 1.356 . S
C1419 C1418 1.363 . S
C1419 C1422 1.363 1_554 S
N1420 C1422 1.356 . S
N1420 H1432 0.984 . S
N1420 H1433 0.985 1_556 S
N1421 C1423 1.356 . S
N1421 H1426 0.984 1_554 S
N1421 H1427 0.985 . S
C1422 C1416 1.379 . S
C1422 C1419 1.363 1_556 S
C1422 N1420 1.356 . S
C1423 C1417 1.363 1_554 S
C1423 C1418 1.379 . S
C1423 N1421 1.356 . S
N1424 C1416 1.356 . S
N1424 H1430 0.984 . S
N1424 H1431 0.984 . S
N1425 C1418 1.356 . S
N1425 H1428 0.984 . S
N1425 H1429 0.985 . S
H1426 N1421 0.984 1_556 S
H1427 N1421 0.985 . S
H1428 N1425 0.984 . S
H1429 N1425 0.985 . S
H1430 N1424 0.984 . S
H1431 N1424 0.984 . S
H1432 N1420 0.984 . S
H1433 N1420 0.985 1_554 S
C1434 C1435 1.363 . S
C1434 C1440 1.379 . S
C1434 N1442 1.356 . S
C1435 C1434 1.363 . S
C1435 C1441 1.363 . S
C1436 C1437 1.363 . S
C1436 C1441 1.379 . S
C1436 N1443 1.356 . S
C1437 C1436 1.363 . S
C1437 C1440 1.363 . S
N1438 C1440 1.356 . S
N1438 H1450 0.984 . S
N1438 H1451 0.985 . S
N1439 C1441 1.356 . S
N1439 H1444 0.984 . S
N1439 H1445 0.985 . S
C1440 C1434 1.379 . S
C1440 C1437 1.363 . S
C1440 N1438 1.356 . S
C1441 C1435 1.363 . S
C1441 C1436 1.379 . S
C1441 N1439 1.356 . S
N1442 C1434 1.356 . S
N1442 H1448 0.984 . S
N1442 H1449 0.984 . S
N1443 C1436 1.356 . S
N1443 H1446 0.984 . S
N1443 H1447 0.985 . S
H1444 N1439 0.984 . S
H1445 N1439 0.985 . S
H1446 N1443 0.984 . S
H1447 N1443 0.985 . S
H1448 N1442 0.984 . S
H1449 N1442 0.984 . S
H1450 N1438 0.984 . S
H1451 N1438 0.985 . S
C1452 C1453 1.363 . S
C1452 C1458 1.379 . S
C1452 N1460 1.356 . S
C1453 C1452 1.363 . S
C1453 C1459 1.363 . S
C1454 C1455 1.363 . S
C1454 C1459 1.379 . S
C1454 N1461 1.356 . S
C1455 C1454 1.363 . S
C1455 C1458 1.363 . S
N1456 C1458 1.356 . S
N1456 H1468 0.984 . S
N1456 H1469 0.985 . S
N1457 C1459 1.356 . S
N1457 H1462 0.984 . S
N1457 H1463 0.985 . S
C1458 C1452 1.379 . S
C1458 C1455 1.363 . S
C1458 N1456 1.356 . S
C1459 C1453 1.363 . S
C1459 C1454 1.379 . S
C1459 N1457 1.356 . S
N1460 C1452 1.356 . S
N1460 H1466 0.984 . S
N1460 H1467 0.984 . S
N1461 C1454 1.356 . S
N1461 H1464 0.984 . S
N1461 H1465 0.985 . S
H1462 N1457 0.984 . S
H1463 N1457 0.985 . S
H1464 N1461 0.984 . S
H1465 N1461 0.985 . S
H1466 N1460 0.984 . S
H1467 N1460 0.984 . S
H1468 N1456 0.984 . S
H1469 N1456 0.985 . S
C1470 C1471 1.363 . S
C1470 C1476 1.379 . S
C1470 N1478 1.356 . S
C1471 C1470 1.363 . S
C1471 C1477 1.363 1_554 S
C1472 C1473 1.363 . S
C1472 C1477 1.379 . S
C1472 N1479 1.356 . S
C1473 C1472 1.363 . S
C1473 C1476 1.363 1_556 S
N1474 C1476 1.356 . S
N1474 H1486 0.984 . S
N1474 H1487 0.985 1_554 S
N1475 C1477 1.356 . S
N1475 H1480 0.984 1_556 S
N1475 H1481 0.985 . S
C1476 C1470 1.379 . S
C1476 C1473 1.363 1_554 S
C1476 N1474 1.356 . S
C1477 C1471 1.363 1_556 S
C1477 C1472 1.379 . S
C1477 N1475 1.356 . S
N1478 C1470 1.356 . S
N1478 H1484 0.984 . S
N1478 H1485 0.984 . S
N1479 C1472 1.356 . S
N1479 H1482 0.984 . S
N1479 H1483 0.985 . S
H1480 N1475 0.984 1_554 S
H1481 N1475 0.985 . S
H1482 N1479 0.984 . S
H1483 N1479 0.985 . S
H1484 N1478 0.984 . S
H1485 N1478 0.984 . S
H1486 N1474 0.984 . S
H1487 N1474 0.985 1_556 S
C1057 C29 1.497 . S
C1059 C849 1.497 . S
C1075 C117 1.497 . S
C1077 C937 1.497 . S
C1093 C196 1.497 . S
C1095 C1017 1.497 . S
C1111 C293 1.497 . S
C1113 C585 1.497 . S
C1129 C665 1.497 . S
C1131 C381 1.497 . S
C1147 C761 1.497 . S
C1149 C469 1.497 . S
C1165 C909 1.899 . S
C1167 C57 1.899 . S
C1183 C145 1.900 . S
C1185 C988 1.900 . S
C1201 C225 1.899 . S
C1203 C557 1.899 . S
C1219 C321 1.899 . S
C1221 C636 1.899 . S
C1237 C409 1.900 . S
C1239 C733 1.900 . S
C1255 C497 1.899 . S
C1257 C821 1.899 . S
C1273 C929 0.463 . S
C1275 C20 0.463 . S
C1291 C108 0.463 . S
C1293 C1025 0.463 . S
C1309 C205 0.463 . S
C1311 C577 0.463 . S
C1327 C284 0.463 . S
C1329 C673 0.463 . S
C1345 C372 0.463 . S
C1347 C753 0.463 . S
C1363 C460 0.463 . S
C1365 C841 0.463 . S
C1381 C49 1.684 . S
C1383 C548 1.684 . S
C1399 C645 1.684 . S
C1401 C137 1.684 . S
C1417 C233 1.684 . S
C1419 C724 1.684 . S
C1435 C313 1.684 . S
C1437 C812 1.684 . S
C1453 C401 1.684 . S
C1455 C900 1.684 . S
C1471 C997 1.684 . S
C1473 C489 1.684 . S
