# Generated by pormake.
# Topology uke, (4)-cn, num edge types: 1
# Building blocks:
#     Node 0, Type 0, BuildingBlock: CEKHIL_clean_sbu_0, # of connection points: 4
#     Node 1, Type 0, BuildingBlock: CEKHIL_clean_sbu_0, # of connection points: 4
#     Node 2, Type 0, BuildingBlock: CEKHIL_clean_sbu_0, # of connection points: 4
#     Node 3, Type 0, BuildingBlock: CEKHIL_clean_sbu_0, # of connection points: 4
#     Node 4, Type 0, BuildingBlock: CEKHIL_clean_sbu_0, # of connection points: 4
#     Node 5, Type 0, BuildingBlock: CEKHIL_clean_sbu_0, # of connection points: 4
#     Node 6, Type 0, BuildingBlock: CEKHIL_clean_sbu_0, # of connection points: 4
#     Node 7, Type 0, BuildingBlock: CEKHIL_clean_sbu_0, # of connection points: 4
#     Node 8, Type 0, BuildingBlock: CEKHIL_clean_sbu_0, # of connection points: 4
#     Node 9, Type 0, BuildingBlock: CEKHIL_clean_sbu_0, # of connection points: 4
#     Node 10, Type 0, BuildingBlock: CEKHIL_clean_sbu_0, # of connection points: 4
#     Node 11, Type 0, BuildingBlock: CEKHIL_clean_sbu_0, # of connection points: 4
#     Node 12, Type 0, BuildingBlock: CEKHIL_clean_sbu_0, # of connection points: 4
#     Node 13, Type 0, BuildingBlock: CEKHIL_clean_sbu_0, # of connection points: 4
#     Node 14, Type 0, BuildingBlock: CEKHIL_clean_sbu_0, # of connection points: 4
#     Node 15, Type 0, BuildingBlock: CEKHIL_clean_sbu_0, # of connection points: 4
#     Node 16, Type 0, BuildingBlock: CEKHIL_clean_sbu_0, # of connection points: 4
#     Node 17, Type 0, BuildingBlock: CEKHIL_clean_sbu_0, # of connection points: 4
#     Node 18, Type 0, BuildingBlock: CEKHIL_clean_sbu_0, # of connection points: 4
#     Node 19, Type 0, BuildingBlock: CEKHIL_clean_sbu_0, # of connection points: 4
#     Node 20, Type 0, BuildingBlock: CEKHIL_clean_sbu_0, # of connection points: 4
#     Node 21, Type 0, BuildingBlock: CEKHIL_clean_sbu_0, # of connection points: 4
#     Node 22, Type 0, BuildingBlock: CEKHIL_clean_sbu_0, # of connection points: 4
#     Node 23, Type 0, BuildingBlock: CEKHIL_clean_sbu_0, # of connection points: 4
#     Node 24, Type 0, BuildingBlock: CEKHIL_clean_sbu_0, # of connection points: 4
#     Node 25, Type 0, BuildingBlock: CEKHIL_clean_sbu_0, # of connection points: 4
#     Node 26, Type 0, BuildingBlock: CEKHIL_clean_sbu_0, # of connection points: 4
#     Node 27, Type 0, BuildingBlock: CEKHIL_clean_sbu_0, # of connection points: 4
#     Node 28, Type 0, BuildingBlock: CEKHIL_clean_sbu_0, # of connection points: 4
#     Node 29, Type 0, BuildingBlock: CEKHIL_clean_sbu_0, # of connection points: 4
#     Node 30, Type 0, BuildingBlock: CEKHIL_clean_sbu_0, # of connection points: 4
#     Node 31, Type 0, BuildingBlock: CEKHIL_clean_sbu_0, # of connection points: 4
#     Edge 32, Type (0, 0), BuildingBlock: TEMPAE_clean_linker_10, # of connection points: 2
#     Edge 33, Type (0, 0), BuildingBlock: TEMPAE_clean_linker_10, # of connection points: 2
#     Edge 34, Type (0, 0), BuildingBlock: TEMPAE_clean_linker_10, # of connection points: 2
#     Edge 35, Type (0, 0), BuildingBlock: TEMPAE_clean_linker_10, # of connection points: 2
#     Edge 36, Type (0, 0), BuildingBlock: TEMPAE_clean_linker_10, # of connection points: 2
#     Edge 37, Type (0, 0), BuildingBlock: TEMPAE_clean_linker_10, # of connection points: 2
#     Edge 38, Type (0, 0), BuildingBlock: TEMPAE_clean_linker_10, # of connection points: 2
#     Edge 39, Type (0, 0), BuildingBlock: TEMPAE_clean_linker_10, # of connection points: 2
#     Edge 40, Type (0, 0), BuildingBlock: TEMPAE_clean_linker_10, # of connection points: 2
#     Edge 41, Type (0, 0), BuildingBlock: TEMPAE_clean_linker_10, # of connection points: 2
#     Edge 42, Type (0, 0), BuildingBlock: TEMPAE_clean_linker_10, # of connection points: 2
#     Edge 43, Type (0, 0), BuildingBlock: TEMPAE_clean_linker_10, # of connection points: 2
#     Edge 44, Type (0, 0), BuildingBlock: TEMPAE_clean_linker_10, # of connection points: 2
#     Edge 45, Type (0, 0), BuildingBlock: TEMPAE_clean_linker_10, # of connection points: 2
#     Edge 46, Type (0, 0), BuildingBlock: TEMPAE_clean_linker_10, # of connection points: 2
#     Edge 47, Type (0, 0), BuildingBlock: TEMPAE_clean_linker_10, # of connection points: 2
#     Edge 48, Type (0, 0), BuildingBlock: TEMPAE_clean_linker_10, # of connection points: 2
#     Edge 49, Type (0, 0), BuildingBlock: TEMPAE_clean_linker_10, # of connection points: 2
#     Edge 50, Type (0, 0), BuildingBlock: TEMPAE_clean_linker_10, # of connection points: 2
#     Edge 51, Type (0, 0), BuildingBlock: TEMPAE_clean_linker_10, # of connection points: 2
#     Edge 52, Type (0, 0), BuildingBlock: TEMPAE_clean_linker_10, # of connection points: 2
#     Edge 53, Type (0, 0), BuildingBlock: TEMPAE_clean_linker_10, # of connection points: 2
#     Edge 54, Type (0, 0), BuildingBlock: TEMPAE_clean_linker_10, # of connection points: 2
#     Edge 55, Type (0, 0), BuildingBlock: TEMPAE_clean_linker_10, # of connection points: 2
#     Edge 56, Type (0, 0), BuildingBlock: TEMPAE_clean_linker_10, # of connection points: 2
#     Edge 57, Type (0, 0), BuildingBlock: TEMPAE_clean_linker_10, # of connection points: 2
#     Edge 58, Type (0, 0), BuildingBlock: TEMPAE_clean_linker_10, # of connection points: 2
#     Edge 59, Type (0, 0), BuildingBlock: TEMPAE_clean_linker_10, # of connection points: 2
#     Edge 60, Type (0, 0), BuildingBlock: TEMPAE_clean_linker_10, # of connection points: 2
#     Edge 61, Type (0, 0), BuildingBlock: TEMPAE_clean_linker_10, # of connection points: 2
#     Edge 62, Type (0, 0), BuildingBlock: TEMPAE_clean_linker_10, # of connection points: 2
#     Edge 63, Type (0, 0), BuildingBlock: TEMPAE_clean_linker_10, # of connection points: 2
#     Edge 64, Type (0, 0), BuildingBlock: TEMPAE_clean_linker_10, # of connection points: 2
#     Edge 65, Type (0, 0), BuildingBlock: TEMPAE_clean_linker_10, # of connection points: 2
#     Edge 66, Type (0, 0), BuildingBlock: TEMPAE_clean_linker_10, # of connection points: 2
#     Edge 67, Type (0, 0), BuildingBlock: TEMPAE_clean_linker_10, # of connection points: 2
#     Edge 68, Type (0, 0), BuildingBlock: TEMPAE_clean_linker_10, # of connection points: 2
#     Edge 69, Type (0, 0), BuildingBlock: TEMPAE_clean_linker_10, # of connection points: 2
#     Edge 70, Type (0, 0), BuildingBlock: TEMPAE_clean_linker_10, # of connection points: 2
#     Edge 71, Type (0, 0), BuildingBlock: TEMPAE_clean_linker_10, # of connection points: 2
#     Edge 72, Type (0, 0), BuildingBlock: TEMPAE_clean_linker_10, # of connection points: 2
#     Edge 73, Type (0, 0), BuildingBlock: TEMPAE_clean_linker_10, # of connection points: 2
#     Edge 74, Type (0, 0), BuildingBlock: TEMPAE_clean_linker_10, # of connection points: 2
#     Edge 75, Type (0, 0), BuildingBlock: TEMPAE_clean_linker_10, # of connection points: 2
#     Edge 76, Type (0, 0), BuildingBlock: TEMPAE_clean_linker_10, # of connection points: 2
#     Edge 77, Type (0, 0), BuildingBlock: TEMPAE_clean_linker_10, # of connection points: 2
#     Edge 78, Type (0, 0), BuildingBlock: TEMPAE_clean_linker_10, # of connection points: 2
#     Edge 79, Type (0, 0), BuildingBlock: TEMPAE_clean_linker_10, # of connection points: 2
#     Edge 80, Type (0, 0), BuildingBlock: TEMPAE_clean_linker_10, # of connection points: 2
#     Edge 81, Type (0, 0), BuildingBlock: TEMPAE_clean_linker_10, # of connection points: 2
#     Edge 82, Type (0, 0), BuildingBlock: TEMPAE_clean_linker_10, # of connection points: 2
#     Edge 83, Type (0, 0), BuildingBlock: TEMPAE_clean_linker_10, # of connection points: 2
#     Edge 84, Type (0, 0), BuildingBlock: TEMPAE_clean_linker_10, # of connection points: 2
#     Edge 85, Type (0, 0), BuildingBlock: TEMPAE_clean_linker_10, # of connection points: 2
#     Edge 86, Type (0, 0), BuildingBlock: TEMPAE_clean_linker_10, # of connection points: 2
#     Edge 87, Type (0, 0), BuildingBlock: TEMPAE_clean_linker_10, # of connection points: 2
#     Edge 88, Type (0, 0), BuildingBlock: TEMPAE_clean_linker_10, # of connection points: 2
#     Edge 89, Type (0, 0), BuildingBlock: TEMPAE_clean_linker_10, # of connection points: 2
#     Edge 90, Type (0, 0), BuildingBlock: TEMPAE_clean_linker_10, # of connection points: 2
#     Edge 91, Type (0, 0), BuildingBlock: TEMPAE_clean_linker_10, # of connection points: 2
#     Edge 92, Type (0, 0), BuildingBlock: TEMPAE_clean_linker_10, # of connection points: 2
#     Edge 93, Type (0, 0), BuildingBlock: TEMPAE_clean_linker_10, # of connection points: 2
#     Edge 94, Type (0, 0), BuildingBlock: TEMPAE_clean_linker_10, # of connection points: 2
#     Edge 95, Type (0, 0), BuildingBlock: TEMPAE_clean_linker_10, # of connection points: 2
# Relax obj value: 0.083
# Max RMSD: 0.185
# Mean RMSD: 0.185
data_MOF--net-uke--node1-CEKHIL_clean_sbu_0--edge1-TEMPAE_clean_linker_10
_symmetry_space_group_name_H-M    P1
_symmetry_Int_Tables_number       1
_symmetry_cell_setting            triclinic
loop_
_symmetry_equiv_pos_as_xyz
'x, y, z'
_cell_length_a     19.951153
_cell_length_b     110.18709
_cell_length_c     54.268423
_cell_angle_alpha  89.981777
_cell_angle_beta   89.98904
_cell_angle_gamma 90.006367
loop_
_atom_site_label
_atom_site_type_symbol
_atom_site_fract_x
_atom_site_fract_y
_atom_site_fract_z
_atom_type_partial_charge
Co0 Co 0.1112 0.05071 0.27684 0.0
O1 O 0.1026 0.05123 0.31181 0.0
O2 O 0.01722 0.05287 0.286 0.0
C3 C 0.17843 0.03456 0.27563 0.0
O4 O 0.10656 0.05036 0.23889 0.0
Co5 Co 0.25369 0.05642 0.25725 0.0
O6 O 0.21443 0.05029 0.22618 0.0
C7 C 0.16997 0.07631 0.27484 0.0
C8 C 0.0391 0.05288 0.30867 0.0
C9 C 0.15184 0.04932 0.2219 0.0
O10 O 0.12202 0.06867 0.27666 0.0
O11 O 0.22958 0.0733 0.26862 0.0
O12 O 0.11402 0.03321 0.2774 0.0
O13 O 0.20065 0.04557 0.27766 0.0
Co14 Co 0.16472 0.18457 0.2807 0.0
O15 O 0.17811 0.185 0.31547 0.0
O16 O 0.25057 0.17707 0.28909 0.0
C17 C 0.13114 0.20374 0.27652 0.0
O18 O 0.16315 0.18304 0.24287 0.0
Co19 Co 0.01749 0.18733 0.26352 0.0
O20 O 0.06229 0.19049 0.2316 0.0
C21 C 0.06177 0.16395 0.28256 0.0
C22 C 0.23385 0.17931 0.31191 0.0
C23 C 0.12127 0.18686 0.22637 0.0
O24 O 0.1206 0.16846 0.2844 0.0
O25 O 0.01088 0.16999 0.27514 0.0
O26 O 0.19464 0.20117 0.27721 0.0
O27 O 0.09057 0.19489 0.28159 0.0
Co28 Co 0.06936 0.18617 0.99179 0.0
O29 O 0.03282 0.18916 0.95992 0.0
O30 O 0.97693 0.18046 0.99056 0.0
C31 C 0.11688 0.20429 0.99617 0.0
O32 O 0.09463 0.18246 0.02782 0.0
Co33 Co 0.22356 0.1853 0.99522 0.0
O34 O 0.20432 0.18705 0.03082 0.0
C35 C 0.1534 0.16427 0.97572 0.0
C36 C 0.97831 0.18415 0.9677 0.0
C37 C 0.14813 0.18447 0.04071 0.0
O38 O 0.09857 0.16975 0.98068 0.0
O39 O 0.2112 0.16896 0.97931 0.0
O40 O 0.05382 0.20281 1.00134 0.0
O41 O 0.14688 0.1952 0.98575 0.0
Co42 Co 0.13479 0.0545 0.98437 0.0
O43 O 0.14972 0.05383 0.94978 0.0
O44 O 0.22607 0.05983 0.97672 0.0
C45 C 0.08713 0.03639 0.9878 0.0
O46 O 0.13192 0.0557 0.02228 0.0
Co47 Co 0.98601 0.05545 1.0001 0.0
O48 O 0.02573 0.0505 0.032 0.0
C49 C 0.04739 0.07722 0.97987 0.0
C50 C 0.20899 0.05809 0.95376 0.0
C51 C 0.08662 0.05239 0.03802 0.0
O52 O 0.1034 0.07157 0.98031 0.0
O53 O 0.99174 0.07236 0.98618 0.0
O54 O 0.15197 0.03735 0.98785 0.0
O55 O 0.05361 0.04612 0.98248 0.0
Co56 Co 0.89528 0.93556 0.72178 0.0
O57 O 0.89873 0.93575 0.68659 0.0
O58 O 0.98707 0.93303 0.71055 0.0
C59 C 0.83155 0.95208 0.7257 0.0
O60 O 0.90676 0.93519 0.75943 0.0
Co61 Co 0.75562 0.93081 0.7452 0.0
O62 O 0.80232 0.93613 0.77551 0.0
C63 C 0.83242 0.9103 0.72564 0.0
C64 C 0.96252 0.93388 0.68833 0.0
C65 C 0.86583 0.93634 0.77777 0.0
O66 O 0.88062 0.91767 0.72126 0.0
O67 O 0.77553 0.91373 0.73401 0.0
O68 O 0.89578 0.95309 0.72253 0.0
O69 O 0.80702 0.94126 0.72349 0.0
Co70 Co 0.84614 0.80025 0.7397 0.0
O71 O 0.82748 0.79885 0.70539 0.0
O72 O 0.75602 0.80625 0.73268 0.0
C73 C 0.889 0.78176 0.74401 0.0
O74 O 0.85175 0.80235 0.77733 0.0
Co75 Co 0.99548 0.79981 0.75486 0.0
O76 O 0.95579 0.79612 0.78743 0.0
C77 C 0.93922 0.8222 0.73504 0.0
C78 C 0.76936 0.80354 0.70977 0.0
C79 C 0.8961 0.79902 0.79338 0.0
O80 O 0.88221 0.81691 0.73399 0.0
O81 O 0.99293 0.81699 0.74235 0.0
O82 O 0.82459 0.78334 0.7449 0.0
O83 O 0.92474 0.79107 0.73775 0.0
Co84 Co 0.88925 0.80299 0.03082 0.0
O85 O 0.91207 0.80201 0.06494 0.0
O86 O 0.98154 0.8082 0.03552 0.0
C87 C 0.8407 0.78492 0.02789 0.0
O88 O 0.87966 0.80457 0.99319 0.0
Co89 Co 0.73829 0.80398 0.01817 0.0
O90 O 0.77229 0.79962 0.98507 0.0
C91 C 0.8038 0.82598 0.03577 0.0
C92 C 0.97043 0.80611 0.05882 0.0
C93 C 0.83222 0.80166 0.97804 0.0
O94 O 0.85904 0.82008 0.03595 0.0
O95 O 0.74753 0.82124 0.02985 0.0
O96 O 0.90541 0.78588 0.02638 0.0
O97 O 0.80824 0.7946 0.03438 0.0
Co98 Co 0.84263 0.93595 0.01303 0.0
O99 O 0.81157 0.93777 0.04605 0.0
O100 O 0.74881 0.93113 0.01509 0.0
C101 C 0.89438 0.95381 0.01142 0.0
O102 O 0.86149 0.9337 0.976 0.0
Co103 Co 0.99532 0.93375 0.00632 0.0
O104 O 0.97243 0.93667 0.97138 0.0
C105 C 0.92177 0.91291 0.02492 0.0
C106 C 0.75439 0.93377 0.03844 0.0
C107 C 0.91399 0.93529 0.96233 0.0
O108 O 0.8681 0.91887 0.02058 0.0
O109 O 0.98045 0.91728 0.02157 0.0
O110 O 0.83043 0.95305 0.00729 0.0
O111 O 0.92371 0.94401 0.01907 0.0
Co112 Co 0.0892 0.54969 0.77275 0.0
O113 O 0.0777 0.54957 0.8076 0.0
O114 O 0.001 0.5562 0.7814 0.0
C115 C 0.12987 0.53088 0.76978 0.0
O116 O 0.08914 0.55068 0.7348 0.0
Co117 Co 0.23746 0.54858 0.75554 0.0
O118 O 0.19365 0.54499 0.72366 0.0
C119 C 0.18449 0.57146 0.77402 0.0
C120 C 0.01971 0.55449 0.8042 0.0
C121 C 0.13304 0.54757 0.71835 0.0
O122 O 0.12706 0.56635 0.77528 0.0
O123 O 0.23787 0.56592 0.7674 0.0
O124 O 0.06562 0.53268 0.77071 0.0
O125 O 0.16704 0.54032 0.77373 0.0
Co126 Co 0.16146 0.68429 0.77171 0.0
O127 O 0.1821 0.68314 0.80597 0.0
O128 O 0.25632 0.68073 0.77588 0.0
C129 C 0.10228 0.70137 0.77433 0.0
O130 O 0.15398 0.68515 0.73395 0.0
Co131 Co 0.01179 0.68136 0.75763 0.0
O132 O 0.04408 0.68782 0.72571 0.0
C133 C 0.08915 0.65993 0.77163 0.0
C134 C 0.24298 0.68079 0.79941 0.0
C135 C 0.10527 0.68756 0.71897 0.0
O136 O 0.14161 0.66659 0.77155 0.0
O137 O 0.0301 0.66405 0.76773 0.0
O138 O 0.16719 0.70175 0.77302 0.0
O139 O 0.07576 0.69071 0.77684 0.0
Co140 Co 0.09026 0.68698 0.48095 0.0
O141 O 0.07187 0.68781 0.4465 0.0
O142 O 0.99519 0.68414 0.47519 0.0
C143 C 0.1521 0.70371 0.48323 0.0
O144 O 0.09562 0.68585 0.51875 0.0
Co145 Co 0.23799 0.68229 0.49515 0.0
O146 O 0.20549 0.688 0.52762 0.0
C147 C 0.15723 0.66203 0.47735 0.0
C148 C 0.01033 0.68533 0.45192 0.0
C149 C 0.14413 0.68769 0.53414 0.0
O150 O 0.10685 0.66921 0.47737 0.0
O151 O 0.21665 0.66545 0.48288 0.0
O152 O 0.08724 0.7044 0.48396 0.0
O153 O 0.1773 0.69319 0.47787 0.0
Co154 Co 0.15788 0.55406 0.48145 0.0
O155 O 0.18479 0.55407 0.44778 0.0
O156 O 0.24528 0.56193 0.4781 0.0
C157 C 0.12522 0.53476 0.48295 0.0
O158 O 0.14114 0.55503 0.5189 0.0
Co159 Co 0.00562 0.55082 0.48989 0.0
O160 O 0.0361 0.54789 0.52407 0.0
C161 C 0.05465 0.5743 0.47356 0.0
C162 C 0.23776 0.55991 0.45456 0.0
C163 C 0.09254 0.55123 0.53277 0.0
O164 O 0.11403 0.5701 0.47594 0.0
O165 O 0.00179 0.56801 0.47732 0.0
O166 O 0.18799 0.53753 0.48581 0.0
O167 O 0.0861 0.54351 0.47604 0.0
Co168 Co 0.87765 0.43671 0.23008 0.0
O169 O 0.88603 0.43782 0.19507 0.0
O170 O 0.96845 0.43234 0.21987 0.0
C171 C 0.8259 0.45452 0.235 0.0
O172 O 0.88345 0.43507 0.26789 0.0
Co173 Co 0.73166 0.4349 0.25023 0.0
O174 O 0.77727 0.43636 0.28238 0.0
C175 C 0.79588 0.41324 0.22987 0.0
C176 C 0.94773 0.43445 0.19745 0.0
C177 C 0.84032 0.43553 0.28572 0.0
O178 O 0.8499 0.41934 0.22691 0.0
O179 O 0.7412 0.41775 0.23807 0.0
O180 O 0.89068 0.45405 0.2331 0.0
O181 O 0.79423 0.44446 0.23101 0.0
Co182 Co 0.86979 0.30058 0.2372 0.0
O183 O 0.84597 0.2984 0.2034 0.0
O184 O 0.77313 0.30235 0.23318 0.0
C185 C 0.93805 0.28466 0.23934 0.0
O186 O 0.88044 0.30278 0.27469 0.0
Co187 Co 0.01744 0.30741 0.2471 0.0
O188 O 0.99142 0.30453 0.2818 0.0
C189 C 0.92676 0.3261 0.22894 0.0
C190 C 0.78458 0.30032 0.20986 0.0
C191 C 0.93123 0.30357 0.28947 0.0
O192 O 0.87924 0.3184 0.2316 0.0
O193 O 0.98835 0.32338 0.23249 0.0
O194 O 0.87383 0.28323 0.24173 0.0
O195 O 0.95828 0.29533 0.23268 0.0
Co196 Co 0.88988 0.30137 0.52956 0.0
O197 O 0.89285 0.30014 0.56468 0.0
O198 O 0.97852 0.30594 0.5417 0.0
C199 C 0.84032 0.2835 0.52296 0.0
O200 O 0.90135 0.30323 0.49202 0.0
Co201 Co 0.7478 0.30342 0.5068 0.0
O202 O 0.7975 0.30184 0.47548 0.0
C203 C 0.80725 0.32482 0.52966 0.0
C204 C 0.9542 0.30387 0.56364 0.0
C205 C 0.86092 0.30269 0.47338 0.0
O206 O 0.86087 0.31863 0.53273 0.0
O207 O 0.7535 0.32039 0.52047 0.0
O208 O 0.90464 0.28413 0.52628 0.0
O209 O 0.80711 0.29343 0.52674 0.0
Co210 Co 0.86698 0.43684 0.52344 0.0
O211 O 0.85099 0.43893 0.55787 0.0
O212 O 0.7723 0.43414 0.53084 0.0
C213 C 0.92882 0.45352 0.51896 0.0
O214 O 0.86947 0.43455 0.48572 0.0
Co215 Co 0.01416 0.43168 0.50887 0.0
O216 O 0.97898 0.43395 0.47518 0.0
C217 C 0.93385 0.41195 0.52913 0.0
C218 C 0.78879 0.43646 0.55364 0.0
C219 C 0.91703 0.43416 0.46947 0.0
O220 O 0.88368 0.41918 0.52897 0.0
O221 O 0.99303 0.4152 0.52288 0.0
O222 O 0.8639 0.45416 0.51862 0.0
O223 O 0.95427 0.44311 0.52496 0.0
Co224 Co 0.56692 0.04861 0.77584 0.0
O225 O 0.53536 0.04682 0.80885 0.0
O226 O 0.47759 0.05555 0.7787 0.0
C227 C 0.60642 0.02982 0.77192 0.0
O228 O 0.58617 0.05133 0.739 0.0
Co229 Co 0.71989 0.04724 0.76774 0.0
O230 O 0.69201 0.04484 0.73306 0.0
C231 C 0.66246 0.06975 0.78645 0.0
C232 C 0.48167 0.05238 0.80181 0.0
C233 C 0.63526 0.04823 0.72475 0.0
O234 O 0.60472 0.06481 0.78444 0.0
O235 O 0.71719 0.06425 0.78134 0.0
O236 O 0.54317 0.03201 0.76836 0.0
O237 O 0.64185 0.03871 0.78058 0.0
Co238 Co 0.65226 0.18219 0.778 0.0
O239 O 0.65334 0.18275 0.81312 0.0
O240 O 0.74177 0.17827 0.79033 0.0
C241 C 0.59748 0.19966 0.77271 0.0
O242 O 0.66494 0.1812 0.74035 0.0
Co243 Co 0.51181 0.17921 0.75439 0.0
O244 O 0.56155 0.18444 0.72468 0.0
C245 C 0.57603 0.15811 0.77675 0.0
C246 C 0.71568 0.17963 0.81224 0.0
C247 C 0.62482 0.18346 0.72215 0.0
O248 O 0.62835 0.16465 0.77978 0.0
O249 O 0.5212 0.16222 0.76778 0.0
O250 O 0.66183 0.19962 0.77621 0.0
O251 O 0.56744 0.18931 0.77545 0.0
Co252 Co 0.59435 0.18323 0.48804 0.0
O253 O 0.55788 0.18535 0.45583 0.0
O254 O 0.50306 0.17695 0.48708 0.0
C255 C 0.63807 0.20176 0.49108 0.0
O256 O 0.61905 0.18035 0.52444 0.0
Co257 Co 0.74801 0.18341 0.49248 0.0
O258 O 0.7274 0.1858 0.52782 0.0
C259 C 0.68309 0.16154 0.4742 0.0
C260 C 0.50414 0.18019 0.46395 0.0
C261 C 0.67133 0.18299 0.53753 0.0
O262 O 0.62695 0.16677 0.47828 0.0
O263 O 0.73972 0.16667 0.47789 0.0
O264 O 0.57531 0.19992 0.49621 0.0
O265 O 0.67035 0.1927 0.48153 0.0
Co266 Co 0.6756 0.05116 0.48755 0.0
O267 O 0.7062 0.04915 0.45446 0.0
O268 O 0.76826 0.05655 0.48491 0.0
C269 C 0.6279 0.03296 0.49089 0.0
O270 O 0.65775 0.05383 0.52451 0.0
Co271 Co 0.52293 0.052 0.49576 0.0
O272 O 0.54973 0.0486 0.53019 0.0
C273 C 0.58965 0.07361 0.47676 0.0
C274 C 0.76268 0.05362 0.46172 0.0
C275 C 0.60774 0.05108 0.53864 0.0
O276 O 0.64541 0.06799 0.47917 0.0
O277 O 0.53282 0.06882 0.4817 0.0
O278 O 0.69176 0.03425 0.49463 0.0
O279 O 0.59636 0.04237 0.48244 0.0
Co280 Co 0.4116 0.93592 0.22337 0.0
O281 O 0.41993 0.93703 0.18848 0.0
O282 O 0.49807 0.92938 0.21286 0.0
C283 C 0.3737 0.9547 0.2294 0.0
O284 O 0.41596 0.93389 0.26107 0.0
Co285 Co 0.26688 0.93706 0.24358 0.0
O286 O 0.31551 0.94059 0.27455 0.0
C287 C 0.31504 0.91426 0.22279 0.0
C288 C 0.47779 0.93187 0.19055 0.0
C289 C 0.37593 0.93737 0.27847 0.0
O290 O 0.37179 0.91942 0.21957 0.0
O291 O 0.2639 0.91973 0.23169 0.0
O292 O 0.43756 0.9527 0.22734 0.0
O293 O 0.33464 0.94561 0.22451 0.0
Co294 Co 0.31161 0.80322 0.24343 0.0
O295 O 0.29186 0.80124 0.20931 0.0
O296 O 0.21982 0.80839 0.23685 0.0
C297 C 0.35952 0.7851 0.24891 0.0
O298 O 0.31929 0.80611 0.28074 0.0
Co299 Co 0.46271 0.80478 0.25551 0.0
O300 O 0.42972 0.80499 0.28985 0.0
C301 C 0.39742 0.82583 0.23394 0.0
C302 C 0.23353 0.80578 0.21393 0.0
C303 C 0.36859 0.80618 0.29624 0.0
O304 O 0.34211 0.82009 0.23627 0.0
O305 O 0.45429 0.82119 0.23939 0.0
O306 O 0.29482 0.78627 0.24983 0.0
O307 O 0.39242 0.7946 0.24161 0.0
Co308 Co 0.38123 0.80322 0.53445 0.0
O309 O 0.39872 0.80069 0.56863 0.0
O310 O 0.46981 0.80945 0.54281 0.0
C311 C 0.3421 0.78459 0.52702 0.0
O312 O 0.3772 0.80663 0.49722 0.0
Co313 Co 0.23193 0.80272 0.51904 0.0
O314 O 0.26983 0.8035 0.48548 0.0
C315 C 0.28556 0.82478 0.54121 0.0
C316 C 0.45636 0.80576 0.56512 0.0
C317 C 0.33089 0.80587 0.4806 0.0
O318 O 0.34273 0.81954 0.542 0.0
O319 O 0.23242 0.8196 0.53328 0.0
O320 O 0.4061 0.78667 0.52731 0.0
O321 O 0.30409 0.79347 0.5342 0.0
Co322 Co 0.34633 0.93531 0.51369 0.0
O323 O 0.31498 0.93815 0.54641 0.0
O324 O 0.2502 0.9323 0.51538 0.0
C325 C 0.40796 0.95213 0.51143 0.0
O326 O 0.36501 0.93226 0.47687 0.0
Co327 Co 0.49679 0.93024 0.50761 0.0
O328 O 0.47699 0.93368 0.47261 0.0
C329 C 0.41163 0.91097 0.52662 0.0
C330 C 0.25611 0.93517 0.5386 0.0
C331 C 0.41835 0.93314 0.46338 0.0
O332 O 0.36163 0.9179 0.52224 0.0
O333 O 0.47243 0.91421 0.52309 0.0
O334 O 0.34409 0.95246 0.50699 0.0
O335 O 0.43148 0.94195 0.5198 0.0
Co336 Co 0.58839 0.55448 0.27682 0.0
O337 O 0.55851 0.55352 0.3102 0.0
O338 O 0.49944 0.5616 0.27965 0.0
C339 C 0.62633 0.53554 0.27423 0.0
O340 O 0.60579 0.55637 0.23963 0.0
Co341 Co 0.74082 0.55252 0.26769 0.0
O342 O 0.71084 0.54952 0.23345 0.0
C343 C 0.68641 0.57545 0.2854 0.0
C344 C 0.50465 0.55897 0.303 0.0
C345 C 0.65384 0.55286 0.22528 0.0
O346 O 0.62796 0.57074 0.28385 0.0
O347 O 0.74036 0.56969 0.28039 0.0
O348 O 0.56307 0.5378 0.27092 0.0
O349 O 0.66288 0.5445 0.28189 0.0
Co350 Co 0.64318 0.68789 0.27271 0.0
O351 O 0.66364 0.68848 0.30702 0.0
O352 O 0.73887 0.68527 0.27761 0.0
C353 C 0.57954 0.70442 0.27189 0.0
O354 O 0.63571 0.68704 0.23494 0.0
Co355 Co 0.49514 0.68293 0.25947 0.0
O356 O 0.52524 0.68861 0.22668 0.0
C357 C 0.5779 0.66286 0.2769 0.0
C358 C 0.72502 0.68619 0.30104 0.0
C359 C 0.58634 0.68862 0.2198 0.0
O360 O 0.62823 0.67005 0.27595 0.0
O361 O 0.5179 0.66623 0.27214 0.0
O362 O 0.6442 0.70538 0.27039 0.0
O363 O 0.55585 0.69375 0.27689 0.0
Co364 Co 0.59292 0.68669 0.98126 0.0
O365 O 0.5782 0.68606 0.94654 0.0
O366 O 0.50137 0.68154 0.97467 0.0
C367 C 0.64256 0.70481 0.98184 0.0
O368 O 0.59434 0.68673 0.01918 0.0
Co369 Co 0.74136 0.68598 0.9981 0.0
O370 O 0.701 0.69119 0.02971 0.0
C371 C 0.67825 0.66368 0.98066 0.0
C372 C 0.51813 0.68241 0.9515 0.0
C373 C 0.63942 0.68973 0.03522 0.0
O374 O 0.62256 0.66943 0.98013 0.0
O375 O 0.73412 0.66867 0.9863 0.0
O376 O 0.57767 0.70399 0.98154 0.0
O377 O 0.67513 0.69474 0.97875 0.0
Co378 Co 0.67733 0.55246 0.98732 0.0
O379 O 0.70435 0.55051 0.9538 0.0
O380 O 0.76968 0.55786 0.98335 0.0
C381 C 0.62903 0.53435 0.99102 0.0
O382 O 0.66332 0.55507 0.02452 0.0
Co383 Co 0.52523 0.55337 0.99771 0.0
O384 O 0.55575 0.54995 0.03173 0.0
C385 C 0.5912 0.57507 0.97863 0.0
C386 C 0.76154 0.555 0.96022 0.0
C387 C 0.61465 0.55241 0.03934 0.0
O388 O 0.64684 0.56932 0.97981 0.0
O389 O 0.53473 0.57031 0.98426 0.0
O390 O 0.69335 0.53546 0.99391 0.0
O391 O 0.59734 0.54387 0.98323 0.0
Co392 Co 0.40317 0.43426 0.73096 0.0
O393 O 0.42136 0.43687 0.69685 0.0
O394 O 0.49891 0.43231 0.72449 0.0
C395 C 0.33763 0.45037 0.73605 0.0
O396 O 0.39833 0.43166 0.76843 0.0
Co397 Co 0.25597 0.42803 0.7436 0.0
O398 O 0.28827 0.43018 0.77787 0.0
C399 C 0.34064 0.4092 0.72241 0.0
C400 C 0.4837 0.4348 0.70164 0.0
C401 C 0.34973 0.43093 0.78416 0.0
O402 O 0.39029 0.4165 0.72466 0.0
O403 O 0.2801 0.41232 0.72689 0.0
O404 O 0.40228 0.45153 0.73703 0.0
O405 O 0.31497 0.43998 0.72873 0.0
Co406 Co 0.325 0.29776 0.74027 0.0
O407 O 0.29184 0.29648 0.70741 0.0
O408 O 0.23217 0.30338 0.7389 0.0
C409 C 0.37175 0.27937 0.74126 0.0
O410 O 0.34683 0.29955 0.77711 0.0
Co411 Co 0.47957 0.2979 0.74551 0.0
O412 O 0.45652 0.29488 0.78062 0.0
C413 C 0.41203 0.3199 0.72906 0.0
C414 C 0.23575 0.30074 0.71549 0.0
C415 C 0.39931 0.29705 0.7902 0.0
O416 O 0.356 0.31472 0.73373 0.0
O417 O 0.46868 0.31452 0.73047 0.0
O418 O 0.30829 0.28066 0.74584 0.0
O419 O 0.40274 0.28893 0.73337 0.0
Co420 Co 0.40807 0.30028 0.03021 0.0
O421 O 0.41767 0.30041 0.06517 0.0
O422 O 0.50121 0.30365 0.03925 0.0
C423 C 0.34878 0.2831 0.02884 0.0
O424 O 0.41132 0.30025 0.9923 0.0
Co425 Co 0.26145 0.30339 0.01153 0.0
O426 O 0.30351 0.29784 0.98035 0.0
C427 C 0.33505 0.32457 0.02932 0.0
C428 C 0.48069 0.30253 0.062 0.0
C429 C 0.36616 0.2982 0.97566 0.0
O430 O 0.38806 0.31803 0.03033 0.0
O431 O 0.27683 0.32032 0.02446 0.0
O432 O 0.41365 0.28273 0.03014 0.0
O433 O 0.3219 0.29371 0.03129 0.0
Co434 Co 0.33343 0.43851 0.02149 0.0
O435 O 0.30902 0.43975 0.05546 0.0
O436 O 0.23827 0.43491 0.02555 0.0
C437 C 0.39235 0.45573 0.02035 0.0
O438 O 0.34519 0.43692 0.984 0.0
Co439 Co 0.48599 0.43498 0.01171 0.0
O440 O 0.45685 0.4363 0.97686 0.0
C441 C 0.40649 0.41442 0.02863 0.0
C442 C 0.2488 0.4369 0.04894 0.0
C443 C 0.39626 0.43642 0.96931 0.0
O444 O 0.35378 0.42088 0.02565 0.0
O445 O 0.46605 0.4186 0.02652 0.0
O446 O 0.32759 0.456 0.01811 0.0
O447 O 0.41808 0.44534 0.02608 0.0
C448 C 0.0681 0.04167 0.07771 0.0
C449 C 0.10276 0.05065 0.06446 0.0
C450 C 0.07389 0.04069 0.10338 0.0
C451 C 0.11496 0.04898 0.11632 0.0
C452 C 0.15189 0.05784 0.10299 0.0
C453 C 0.14571 0.05853 0.07713 0.0
C454 C 0.03485 0.03093 0.11667 0.0
C455 C 0.19645 0.06681 0.11614 0.0
C456 C 0.08159 0.05433 0.18484 0.0
C457 C 0.13355 0.04765 0.19566 0.0
C458 C 0.07436 0.05475 0.159 0.0
C459 C 0.11973 0.04823 0.14376 0.0
C460 C 0.16992 0.04097 0.15478 0.0
C461 C 0.17633 0.04082 0.18051 0.0
C462 C 0.01996 0.06254 0.14794 0.0
C463 C 0.21845 0.03368 0.13937 0.0
H464 H 0.03528 0.03547 0.06794 0.0
H465 H 0.17209 0.06553 0.06699 0.0
H466 H 0.06913 0.0253 0.12801 0.0
H467 H -0.00184 0.03517 0.12941 0.0
H468 H 0.00734 0.02489 0.10378 0.0
H469 H 0.22243 0.07303 0.10317 0.0
H470 H 0.16611 0.0723 0.12915 0.0
H471 H 0.23469 0.06192 0.12717 0.0
H472 H 0.04908 0.05976 0.19645 0.0
H473 H 0.21656 0.03561 0.18883 0.0
H474 H 0.98825 0.05706 0.13538 0.0
H475 H 0.0429 0.06989 0.13677 0.0
H476 H 0.98741 0.06672 0.16223 0.0
H477 H 0.19076 0.0277 0.12646 0.0
H478 H 0.2522 0.02798 0.15082 0.0
H479 H 0.24966 0.03989 0.12808 0.0
C480 C 0.0918 0.1792 0.08115 0.0
C481 C 0.14652 0.184 0.06816 0.0
C482 C 0.0915 0.17895 0.10714 0.0
C483 C 0.14682 0.18373 0.12044 0.0
C484 C 0.20226 0.18847 0.10741 0.0
C485 C 0.20151 0.18852 0.08159 0.0
C486 C 0.03153 0.17376 0.12041 0.0
C487 C 0.26177 0.19384 0.12075 0.0
C488 C 0.11352 0.19597 0.18469 0.0
C489 C 0.13816 0.18665 0.19982 0.0
C490 C 0.11682 0.19516 0.15895 0.0
C491 C 0.14482 0.1847 0.14789 0.0
C492 C 0.17184 0.17541 0.16306 0.0
C493 C 0.16858 0.17653 0.18893 0.0
C494 C 0.08883 0.20542 0.14359 0.0
C495 C 0.20202 0.16411 0.15196 0.0
H496 H 0.04928 0.17565 0.07103 0.0
H497 H 0.24411 0.19234 0.07192 0.0
H498 H 0.04788 0.16675 0.13382 0.0
H499 H 0.00604 0.18103 0.131 0.0
H500 H 0.99475 0.16963 0.10753 0.0
H501 H 0.30244 0.1966 0.10794 0.0
H502 H 0.24571 0.20193 0.13139 0.0
H503 H 0.28237 0.1872 0.13412 0.0
H504 H 0.08993 0.20381 0.19309 0.0
H505 H 0.18661 0.16923 0.20057 0.0
H506 H 0.04658 0.20206 0.13218 0.0
H507 H 0.12775 0.20889 0.13079 0.0
H508 H 0.07058 0.21309 0.15506 0.0
H509 H 0.16336 0.1592 0.14116 0.0
H510 H 0.22243 0.15787 0.16619 0.0
H511 H 0.24289 0.16657 0.13902 0.0
C512 C 0.96704 0.93721 0.92068 0.0
C513 C 0.90872 0.9355 0.9349 0.0
C514 C 0.96486 0.93755 0.89488 0.0
C515 C 0.90285 0.93612 0.88268 0.0
C516 C 0.84362 0.93439 0.89675 0.0
C517 C 0.8472 0.9341 0.92271 0.0
C518 C 0.02915 0.93946 0.88066 0.0
C519 C 0.77648 0.93281 0.88436 0.0
C520 C 0.88374 0.94755 0.81679 0.0
C521 C 0.89069 0.93682 0.80325 0.0
C522 C 0.88946 0.94753 0.84261 0.0
C523 C 0.90042 0.93642 0.85518 0.0
C524 C 0.90919 0.9256 0.84143 0.0
C525 C 0.90447 0.92594 0.81558 0.0
C526 C 0.88119 0.9593 0.85649 0.0
C527 C 0.92034 0.91356 0.85406 0.0
H528 H 0.01511 0.93832 0.92969 0.0
H529 H 0.8019 0.9328 0.93341 0.0
H530 H 0.03826 0.93164 0.86823 0.0
H531 H 0.02488 0.94766 0.86892 0.0
H532 H 0.0733 0.94053 0.89294 0.0
H533 H 0.73519 0.9315 0.89784 0.0
H534 H 0.76501 0.94089 0.87292 0.0
H535 H 0.77801 0.92486 0.87183 0.0
H536 H 0.87108 0.95589 0.80722 0.0
H537 H 0.90746 0.91758 0.80509 0.0
H538 H 0.92444 0.96076 0.869 0.0
H539 H 0.8355 0.95888 0.86811 0.0
H540 H 0.87696 0.96723 0.84394 0.0
H541 H 0.96452 0.91408 0.86642 0.0
H542 H 0.92824 0.90605 0.84072 0.0
H543 H 0.87629 0.91133 0.86571 0.0
C544 C 0.89404 0.80781 0.93951 0.0
C545 C 0.84504 0.80074 0.95118 0.0
C546 C 0.90068 0.8077 0.91365 0.0
C547 C 0.85793 0.80023 0.89925 0.0
C548 C 0.80975 0.79284 0.91107 0.0
C549 C 0.8038 0.79321 0.93679 0.0
C550 C 0.95284 0.81568 0.90168 0.0
C551 C 0.76419 0.78454 0.89656 0.0
C552 C 0.83457 0.80688 0.83067 0.0
C553 C 0.88038 0.79877 0.82009 0.0
C554 C 0.82678 0.8075 0.85647 0.0
C555 C 0.8651 0.79974 0.87189 0.0
C556 C 0.90958 0.79127 0.86116 0.0
C557 C 0.91675 0.79092 0.83549 0.0
C558 C 0.77864 0.81662 0.86726 0.0
C559 C 0.95035 0.78265 0.87681 0.0
H560 H 0.92575 0.81368 0.9505 0.0
H561 H 0.76633 0.78759 0.9457 0.0
H562 H 0.98852 0.81003 0.89098 0.0
H563 H 0.92842 0.82199 0.88851 0.0
H564 H 0.98153 0.82108 0.91537 0.0
H565 H 0.72963 0.7793 0.90859 0.0
H566 H 0.73389 0.78992 0.88336 0.0
H567 H 0.79449 0.77804 0.88561 0.0
H568 H 0.80669 0.81301 0.81889 0.0
H569 H 0.95172 0.78451 0.82743 0.0
H570 H 0.80616 0.82299 0.87945 0.0
H571 H 0.74072 0.81192 0.87878 0.0
H572 H 0.75228 0.82195 0.85283 0.0
H573 H 0.98374 0.78787 0.88925 0.0
H574 H 0.98163 0.77643 0.86554 0.0
H575 H 0.91673 0.77712 0.88861 0.0
C576 C 0.07412 0.55611 0.68106 0.0
C577 C 0.11664 0.54744 0.69168 0.0
C578 C 0.06913 0.55721 0.65521 0.0
C579 C 0.10722 0.54942 0.63976 0.0
C580 C 0.14808 0.54037 0.6505 0.0
C581 C 0.15222 0.53951 0.67621 0.0
C582 C 0.02459 0.56691 0.6444 0.0
C583 C 0.18864 0.53173 0.63485 0.0
C584 C 0.05398 0.54359 0.57369 0.0
C585 C 0.09935 0.55072 0.56008 0.0
C586 C 0.05519 0.54332 0.59949 0.0
C587 C 0.10305 0.55034 0.61232 0.0
C588 C 0.14942 0.55752 0.59883 0.0
C589 C 0.14724 0.5576 0.57283 0.0
C590 C 0.00556 0.53537 0.61301 0.0
C591 C 0.2014 0.5651 0.6119 0.0
H592 H 0.04719 0.56236 0.69289 0.0
H593 H 0.18495 0.53273 0.68429 0.0
H594 H 0.05519 0.57333 0.63336 0.0
H595 H 0.98741 0.56277 0.63175 0.0
H596 H 0.99736 0.5721 0.65882 0.0
H597 H 0.21748 0.52512 0.64611 0.0
H598 H 0.15512 0.52661 0.62228 0.0
H599 H 0.2243 0.5369 0.62319 0.0
H600 H 0.01709 0.53812 0.56412 0.0
H601 H 0.18216 0.56317 0.56254 0.0
H602 H 0.97641 0.54087 0.62636 0.0
H603 H 0.03265 0.52832 0.62369 0.0
H604 H 0.96997 0.53078 0.60032 0.0
H605 H 0.17666 0.57133 0.62514 0.0
H606 H 0.23207 0.57056 0.59888 0.0
H607 H 0.23529 0.55913 0.62266 0.0
C608 C 0.16494 0.68231 0.67968 0.0
C609 C 0.11778 0.68936 0.69233 0.0
C610 C 0.16789 0.68248 0.65375 0.0
C611 C 0.12344 0.69005 0.64028 0.0
C612 C 0.07807 0.69762 0.65311 0.0
C613 C 0.07544 0.6971 0.67891 0.0
C614 C 0.21684 0.67425 0.64071 0.0
C615 C 0.03105 0.70604 0.63957 0.0
C616 C 0.17142 0.69737 0.57421 0.0
C617 C 0.13099 0.68932 0.56076 0.0
C618 C 0.16812 0.69793 0.59998 0.0
C619 C 0.12426 0.69006 0.61278 0.0
C620 C 0.08172 0.68215 0.59927 0.0
C621 C 0.08511 0.68196 0.57333 0.0
C622 C 0.21298 0.70673 0.61352 0.0
C623 C 0.03446 0.67358 0.61226 0.0
H624 H 0.19709 0.6762 0.68997 0.0
H625 H 0.03904 0.70262 0.68866 0.0
H626 H 0.1891 0.66773 0.62893 0.0
H627 H 0.24988 0.67964 0.62844 0.0
H628 H 0.24863 0.66905 0.6538 0.0
H629 H 0.00149 0.71183 0.65233 0.0
H630 H 0.05973 0.712 0.6269 0.0
H631 H 0.99576 0.70067 0.62815 0.0
H632 H 0.20685 0.70311 0.56451 0.0
H633 H 0.05443 0.67564 0.56299 0.0
H634 H 0.25006 0.70164 0.62471 0.0
H635 H 0.18301 0.71236 0.6264 0.0
H636 H 0.24051 0.71285 0.60076 0.0
H637 H 0.06352 0.66724 0.62403 0.0
H638 H 0.00377 0.66819 0.59915 0.0
H639 H 0.00035 0.67873 0.62456 0.0
C640 C 0.94618 0.42724 0.42721 0.0
C641 C 0.90206 0.43361 0.44269 0.0
C642 C 0.93895 0.42742 0.40153 0.0
C643 C 0.88665 0.43427 0.39081 0.0
C644 C 0.84118 0.44062 0.4063 0.0
C645 C 0.84907 0.44013 0.43214 0.0
C646 C 0.98757 0.42028 0.38585 0.0
C647 C 0.78497 0.44809 0.39555 0.0
C648 C 0.90416 0.44279 0.32275 0.0
C649 C 0.86149 0.43431 0.31168 0.0
C650 C 0.9127 0.44295 0.34857 0.0
C651 C 0.87838 0.43434 0.36344 0.0
C652 C 0.83727 0.4255 0.35207 0.0
C653 C 0.82892 0.42568 0.32642 0.0
C654 C 0.9567 0.45255 0.36001 0.0
C655 C 0.80098 0.41599 0.36704 0.0
H656 H 0.98705 0.4221 0.43525 0.0
H657 H 0.81536 0.44518 0.44399 0.0
H658 H 0.95992 0.41361 0.3744 0.0
H659 H 0.0144 0.42646 0.37308 0.0
H660 H 0.02522 0.41532 0.39709 0.0
H661 H 0.7546 0.45265 0.40999 0.0
H662 H 0.80579 0.4551 0.38301 0.0
H663 H 0.75148 0.44222 0.38439 0.0
H664 H 0.92811 0.44963 0.31141 0.0
H665 H 0.79538 0.41919 0.31783 0.0
H666 H 0.9969 0.44824 0.37108 0.0
H667 H 0.92657 0.45823 0.37276 0.0
H668 H 0.98019 0.45853 0.34597 0.0
H669 H 0.83731 0.41076 0.37831 0.0
H670 H 0.77251 0.40954 0.35529 0.0
H671 H 0.76551 0.42042 0.37995 0.0
C672 C 0.97264 0.30838 0.3318 0.0
C673 C 0.92169 0.30363 0.31669 0.0
C674 C 0.96743 0.30825 0.35756 0.0
C675 C 0.91007 0.30314 0.36878 0.0
C676 C 0.8583 0.2983 0.35374 0.0
C677 C 0.86448 0.29868 0.32784 0.0
C678 C 0.0232 0.31371 0.37279 0.0
C679 C 0.7965 0.2927 0.36503 0.0
C680 C 0.91976 0.29407 0.43669 0.0
C681 C 0.88593 0.30373 0.44792 0.0
C682 C 0.92859 0.29378 0.41092 0.0
C683 C 0.90321 0.3034 0.3962 0.0
C684 C 0.87146 0.31338 0.40773 0.0
C685 C 0.86269 0.31336 0.43338 0.0
C686 C 0.96252 0.28295 0.39933 0.0
C687 C 0.84468 0.32392 0.3929 0.0
H688 H 0.01693 0.31233 0.32346 0.0
H689 H 0.82517 0.29492 0.31637 0.0
H690 H 0.0034 0.32132 0.38401 0.0
H691 H 0.04341 0.30685 0.38576 0.0
H692 H 0.06504 0.31717 0.36124 0.0
H693 H 0.76198 0.28893 0.35091 0.0
H694 H 0.81106 0.28531 0.37786 0.0
H695 H 0.76908 0.29961 0.37596 0.0
H696 H 0.93596 0.28647 0.44789 0.0
H697 H 0.83533 0.32071 0.44209 0.0
H698 H 0.00502 0.28596 0.38764 0.0
H699 H 0.92656 0.27815 0.38717 0.0
H700 H 0.98158 0.27645 0.41332 0.0
H701 H 0.88495 0.3278 0.3812 0.0
H702 H 0.82414 0.33124 0.40478 0.0
H703 H 0.80438 0.32073 0.38041 0.0
C704 C 0.58432 0.05687 0.686 0.0
C705 C 0.62819 0.04872 0.69753 0.0
C706 C 0.58236 0.05786 0.6601 0.0
C707 C 0.6244 0.05038 0.64547 0.0
C708 C 0.66779 0.04199 0.65707 0.0
C709 C 0.66938 0.04132 0.68286 0.0
C710 C 0.53564 0.06695 0.64838 0.0
C711 C 0.7123 0.03363 0.64226 0.0
C712 C 0.57233 0.04332 0.57974 0.0
C713 C 0.61545 0.05073 0.56584 0.0
C714 C 0.5746 0.04319 0.60554 0.0
C715 C 0.62071 0.05077 0.61799 0.0
C716 C 0.66482 0.05823 0.60414 0.0
C717 C 0.66209 0.05805 0.57817 0.0
C718 C 0.52779 0.03487 0.61948 0.0
C719 C 0.71444 0.06648 0.61679 0.0
H720 H 0.55282 0.06268 0.69721 0.0
H721 H 0.70302 0.0349 0.6916 0.0
H722 H 0.56443 0.0732 0.63632 0.0
H723 H 0.49871 0.06218 0.63656 0.0
H724 H 0.50802 0.0724 0.66229 0.0
H725 H 0.7436 0.02769 0.65413 0.0
H726 H 0.6812 0.02781 0.63012 0.0
H727 H 0.74587 0.03902 0.63018 0.0
H728 H 0.53659 0.03752 0.57036 0.0
H729 H 0.69519 0.06385 0.56757 0.0
H730 H 0.49579 0.04024 0.63215 0.0
H731 H 0.55717 0.02845 0.63093 0.0
H732 H 0.49481 0.02955 0.60701 0.0
H733 H 0.68771 0.07271 0.62949 0.0
H734 H 0.74393 0.07197 0.60346 0.0
H735 H 0.74962 0.06102 0.62809 0.0
C736 C 0.62491 0.19388 0.6818 0.0
C737 C 0.64951 0.18444 0.69658 0.0
C738 C 0.63212 0.19365 0.6561 0.0
C739 C 0.66381 0.18361 0.64476 0.0
C740 C 0.6916 0.17429 0.65969 0.0
C741 C 0.68439 0.17485 0.68552 0.0
C742 C 0.60307 0.20391 0.64103 0.0
C743 C 0.72573 0.16344 0.64831 0.0
C744 C 0.61429 0.17772 0.57779 0.0
C745 C 0.6684 0.18285 0.56499 0.0
C746 C 0.61294 0.17761 0.60378 0.0
C747 C 0.66659 0.18285 0.61728 0.0
C748 C 0.72124 0.18801 0.60445 0.0
C749 C 0.72155 0.18792 0.5786 0.0
C750 C 0.55378 0.17198 0.61681 0.0
C751 C 0.77894 0.19386 0.61802 0.0
H752 H 0.5973 0.20124 0.69037 0.0
H753 H 0.70206 0.16742 0.69688 0.0
H754 H 0.64147 0.20761 0.62829 0.0
H755 H 0.5611 0.20046 0.62959 0.0
H756 H 0.58402 0.21142 0.65275 0.0
H757 H 0.74839 0.15739 0.6624 0.0
H758 H 0.68871 0.15814 0.63748 0.0
H759 H 0.76551 0.16642 0.63537 0.0
H760 H 0.57316 0.17375 0.56753 0.0
H761 H 0.76359 0.19201 0.56905 0.0
H762 H 0.52698 0.17902 0.62762 0.0
H763 H 0.57128 0.16497 0.63 0.0
H764 H 0.5178 0.16775 0.60378 0.0
H765 H 0.76047 0.20172 0.62883 0.0
H766 H 0.81892 0.19707 0.60534 0.0
H767 H 0.80123 0.18733 0.63126 0.0
C768 C 0.35632 0.9298 0.42331 0.0
C769 C 0.41381 0.9336 0.43601 0.0
C770 C 0.35411 0.93002 0.39733 0.0
C771 C 0.41032 0.93427 0.38379 0.0
C772 C 0.46818 0.93816 0.39655 0.0
C773 C 0.46928 0.93774 0.42236 0.0
C774 C 0.29153 0.92575 0.38435 0.0
C775 C 0.52873 0.94296 0.38295 0.0
C776 C 0.4248 0.92682 0.31522 0.0
C777 C 0.39687 0.93723 0.30457 0.0
C778 C 0.42999 0.92573 0.34104 0.0
C779 C 0.40752 0.93534 0.35637 0.0
C780 C 0.38252 0.9461 0.34551 0.0
C781 C 0.37704 0.94687 0.3198 0.0
C782 C 0.4568 0.9141 0.35193 0.0
C783 C 0.35948 0.95668 0.36104 0.0
H784 H 0.31343 0.92654 0.43363 0.0
H785 H 0.51388 0.94083 0.43189 0.0
H786 H 0.26908 0.93336 0.37383 0.0
H787 H 0.30427 0.91852 0.3709 0.0
H788 H 0.25341 0.92217 0.3974 0.0
H789 H 0.57055 0.94533 0.39558 0.0
H790 H 0.54692 0.93613 0.36953 0.0
H791 H 0.51475 0.95119 0.37234 0.0
H792 H 0.43887 0.91928 0.30348 0.0
H793 H 0.35512 0.95491 0.31154 0.0
H794 H 0.41697 0.90961 0.36292 0.0
H795 H 0.49894 0.91608 0.36464 0.0
H796 H 0.47447 0.90767 0.33756 0.0
H797 H 0.31617 0.9539 0.37256 0.0
H798 H 0.34432 0.96461 0.34967 0.0
H799 H 0.40006 0.95956 0.37373 0.0
C800 C 0.3908 0.80039 0.44174 0.0
C801 C 0.3462 0.80795 0.45438 0.0
C802 C 0.39367 0.80055 0.4158 0.0
C803 C 0.35169 0.8086 0.4024 0.0
C804 C 0.3091 0.81666 0.4153 0.0
C805 C 0.30632 0.81613 0.44109 0.0
C806 C 0.43938 0.79175 0.4027 0.0
C807 C 0.26486 0.82559 0.40184 0.0
C808 C 0.40051 0.81539 0.33621 0.0
C809 C 0.35668 0.8079 0.32288 0.0
C810 C 0.39829 0.81592 0.362 0.0
C811 C 0.35197 0.80858 0.3749 0.0
C812 C 0.30626 0.80122 0.36152 0.0
C813 C 0.30872 0.80106 0.33556 0.0
C814 C 0.44665 0.82414 0.37543 0.0
C815 C 0.25649 0.79318 0.37465 0.0
H816 H 0.42046 0.79388 0.45202 0.0
H817 H 0.27132 0.82188 0.45095 0.0
H818 H 0.40909 0.78549 0.39118 0.0
H819 H 0.47367 0.79672 0.39016 0.0
H820 H 0.46986 0.78628 0.41574 0.0
H821 H 0.23797 0.83177 0.41465 0.0
H822 H 0.29522 0.83115 0.38894 0.0
H823 H 0.22725 0.82062 0.39067 0.0
H824 H 0.43764 0.82071 0.32637 0.0
H825 H 0.27554 0.79513 0.32528 0.0
H826 H 0.48125 0.81861 0.38685 0.0
H827 H 0.41894 0.83025 0.3881 0.0
H828 H 0.47694 0.82977 0.36261 0.0
H829 H 0.28359 0.78654 0.38636 0.0
H830 H 0.22382 0.78814 0.36162 0.0
H831 H 0.22437 0.7987 0.38701 0.0
C832 C 0.6711 0.56004 0.07791 0.0
C833 C 0.6248 0.55233 0.06643 0.0
C834 C 0.67531 0.56064 0.10382 0.0
C835 C 0.63304 0.5532 0.11849 0.0
C836 C 0.58747 0.5452 0.1069 0.0
C837 C 0.58369 0.54492 0.08111 0.0
C838 C 0.72435 0.56932 0.11553 0.0
C839 C 0.54262 0.5369 0.12172 0.0
C840 C 0.68646 0.54525 0.18369 0.0
C841 C 0.64521 0.55278 0.19808 0.0
C842 C 0.68327 0.54539 0.15789 0.0
C843 C 0.63807 0.55333 0.14595 0.0
C844 C 0.59585 0.56092 0.16029 0.0
C845 C 0.59955 0.56049 0.18623 0.0
C846 C 0.72814 0.53695 0.14341 0.0
C847 C 0.54713 0.56954 0.14821 0.0
H848 H 0.70257 0.56585 0.06668 0.0
H849 H 0.54819 0.53883 0.07237 0.0
H850 H 0.69729 0.57568 0.12788 0.0
H851 H 0.76065 0.56423 0.12707 0.0
H852 H 0.7526 0.57467 0.10163 0.0
H853 H 0.51005 0.53118 0.10986 0.0
H854 H 0.57348 0.53085 0.13349 0.0
H855 H 0.51027 0.54233 0.13415 0.0
H856 H 0.72147 0.53916 0.19265 0.0
H857 H 0.56789 0.56639 0.19719 0.0
H858 H 0.76035 0.54225 0.13069 0.0
H859 H 0.69725 0.53076 0.13195 0.0
H860 H 0.76085 0.53137 0.1555 0.0
H861 H 0.57434 0.5757 0.1355 0.0
H862 H 0.51928 0.5751 0.16187 0.0
H863 H 0.51045 0.56437 0.137 0.0
C864 C 0.64943 0.68385 0.18086 0.0
C865 C 0.59833 0.69017 0.19304 0.0
C866 C 0.65408 0.68408 0.15495 0.0
C867 C 0.60727 0.69095 0.14103 0.0
C868 C 0.5574 0.69773 0.1534 0.0
C869 C 0.55325 0.69718 0.17916 0.0
C870 C 0.70788 0.67669 0.14241 0.0
C871 C 0.50762 0.70543 0.1394 0.0
C872 C 0.65728 0.6996 0.07582 0.0
C873 C 0.6224 0.69103 0.06163 0.0
C874 C 0.65158 0.69985 0.10157 0.0
C875 C 0.61074 0.69118 0.11356 0.0
C876 C 0.57352 0.68274 0.09929 0.0
C877 C 0.57937 0.68283 0.0734 0.0
C878 C 0.69079 0.70919 0.11595 0.0
C879 C 0.52956 0.67333 0.11142 0.0
H880 H 0.68393 0.67834 0.19149 0.0
H881 H 0.51388 0.70217 0.18851 0.0
H882 H 0.68444 0.66989 0.13004 0.0
H883 H 0.73961 0.68266 0.13079 0.0
H884 H 0.74053 0.67188 0.1558 0.0
H885 H 0.47391 0.7106 0.15186 0.0
H886 H 0.53437 0.71195 0.12731 0.0
H887 H 0.47648 0.69958 0.12734 0.0
H888 H 0.69045 0.706 0.06673 0.0
H889 H 0.55307 0.67609 0.06251 0.0
H890 H 0.72854 0.7046 0.1277 0.0
H891 H 0.65688 0.71432 0.12837 0.0
H892 H 0.71712 0.71574 0.10375 0.0
H893 H 0.56059 0.66736 0.12331 0.0
H894 H 0.50274 0.6676 0.09776 0.0
H895 H 0.49204 0.6778 0.12347 0.0
C896 C 0.32603 0.42344 0.82648 0.0
C897 C 0.3633 0.43108 0.81097 0.0
C898 C 0.33077 0.42432 0.85221 0.0
C899 C 0.37259 0.43328 0.86282 0.0
C900 C 0.41083 0.44098 0.84724 0.0
C901 C 0.40631 0.43969 0.82144 0.0
C902 C 0.29062 0.41569 0.86803 0.0
C903 C 0.45521 0.45076 0.85784 0.0
C904 C 0.3361 0.44174 0.92987 0.0
C905 C 0.38664 0.43537 0.94228 0.0
C906 C 0.33169 0.44138 0.90392 0.0
C907 C 0.37782 0.43424 0.89023 0.0
C908 C 0.42782 0.42759 0.90284 0.0
C909 C 0.43201 0.42834 0.92858 0.0
C910 C 0.27832 0.44875 0.89112 0.0
C911 C 0.47678 0.41959 0.88915 0.0
H912 H 0.29253 0.41679 0.81839 0.0
H913 H 0.43409 0.44576 0.80948 0.0
H914 H 0.32451 0.41064 0.88059 0.0
H915 H 0.25499 0.42085 0.87969 0.0
H916 H 0.26183 0.40903 0.85688 0.0
H917 H 0.48071 0.45615 0.84328 0.0
H918 H 0.4249 0.457 0.86941 0.0
H919 H 0.49386 0.44666 0.86993 0.0
H920 H 0.30142 0.44727 0.94036 0.0
H921 H 0.47091 0.42332 0.93809 0.0
H922 H 0.24435 0.44266 0.88069 0.0
H923 H 0.30184 0.455 0.87761 0.0
H924 H 0.24791 0.45417 0.90427 0.0
H925 H 0.44915 0.41264 0.87838 0.0
H926 H 0.5122 0.41489 0.90173 0.0
H927 H 0.50615 0.42509 0.87586 0.0
C928 C 0.34583 0.3031 0.83053 0.0
C929 C 0.39539 0.29672 0.81758 0.0
C930 C 0.34545 0.3033 0.85652 0.0
C931 C 0.39514 0.29682 0.86985 0.0
C932 C 0.4445 0.29021 0.85683 0.0
C933 C 0.44421 0.2903 0.83097 0.0
C934 C 0.29209 0.3105 0.86973 0.0
C935 C 0.49747 0.28296 0.87021 0.0
C936 C 0.42564 0.30506 0.93737 0.0
C937 C 0.38446 0.29665 0.94943 0.0
C938 C 0.43041 0.30515 0.91144 0.0
C939 C 0.39393 0.29651 0.89739 0.0
C940 C 0.35531 0.2876 0.9097 0.0
C941 C 0.35058 0.28786 0.93548 0.0
C942 C 0.47191 0.31483 0.89901 0.0
C943 C 0.31692 0.27804 0.8956 0.0
H944 H 0.30823 0.30814 0.82038 0.0
H945 H 0.48241 0.28523 0.82118 0.0
H946 H 0.26132 0.30436 0.88134 0.0
H947 H 0.3158 0.31723 0.8822 0.0
H948 H 0.25842 0.31537 0.85677 0.0
H949 H 0.53259 0.27836 0.85737 0.0
H950 H 0.52679 0.28899 0.88253 0.0
H951 H 0.47335 0.27598 0.88199 0.0
H952 H 0.45086 0.312 0.94809 0.0
H953 H 0.31848 0.28137 0.94481 0.0
H954 H 0.43883 0.32078 0.88787 0.0
H955 H 0.5085 0.31063 0.8862 0.0
H956 H 0.49958 0.32053 0.91248 0.0
H957 H 0.27732 0.28242 0.88433 0.0
H958 H 0.29291 0.27129 0.90799 0.0
H959 H 0.35082 0.27318 0.88275 0.0
C960 C 0.38874 0.97358 0.25346 0.0
C961 C 0.34889 0.96651 0.23779 0.0
C962 C 0.36752 0.98507 0.26116 0.0
C963 C 0.30589 0.98968 0.25237 0.0
C964 C 0.26563 0.98258 0.23638 0.0
C965 C 0.28723 0.97095 0.22957 0.0
C966 C 0.41049 0.9922 0.27892 0.0
C967 C 0.19999 0.98731 0.22638 0.0
C968 C 0.20704 0.01352 0.28639 0.0
C969 C 0.2214 0.02391 0.27255 0.0
C970 C 0.23772 0.00244 0.28097 0.0
C971 C 0.28184 0.00171 0.26064 0.0
C972 C 0.29886 0.01233 0.24728 0.0
C973 C 0.26906 0.02343 0.25372 0.0
C974 C 0.22011 0.9914 0.29618 0.0
C975 C 0.34484 0.01183 0.22521 0.0
H976 H 0.43624 0.97004 0.25999 0.0
H977 H 0.25684 0.96547 0.21731 0.0
H978 H 0.42443 0.00107 0.27069 0.0
H979 H 0.38173 -0.00586 0.29597 0.0
H980 H 0.45708 0.98729 0.28401 0.0
H981 H 0.17662 0.98092 0.21306 0.0
H982 H 0.16431 0.98887 0.24173 0.0
H983 H 0.208 -0.00384 0.21706 0.0
H984 H 0.17014 0.01399 0.30104 0.0
H985 H 0.27968 0.03149 0.243 0.0
H986 H 0.26616 0.98642 0.30161 0.0
H987 H 0.18897 0.98511 0.28507 0.0
H988 H 0.1918 -0.00618 0.31311 0.0
H989 H 0.39228 0.00714 0.23 0.0
H990 H 0.35686 0.021 0.21797 0.0
H991 H 0.32055 0.0065 0.21032 0.0
C992 C 0.02575 0.273 0.26116 0.0
C993 C 0.9824 0.2742 0.24112 0.0
C994 C 0.05622 0.2618 0.2662 0.0
C995 C 0.04325 0.25178 0.25053 0.0
C996 C 0.00309 0.25328 0.22928 0.0
C997 C 0.97224 0.26447 0.22504 0.0
C998 C 0.09819 0.26047 0.28918 0.0
C999 C 0.98934 0.24288 0.21186 0.0
C1000 C 0.15014 0.22356 0.25604 0.0
C1001 C 0.10796 0.21591 0.26966 0.0
C1002 C 0.12976 0.23529 0.2496 0.0
C1003 C 0.06637 0.23949 0.25746 0.0
C1004 C 0.02374 0.23181 0.27138 0.0
C1005 C 0.04481 0.22001 0.27706 0.0
C1006 C 0.17558 0.24312 0.23416 0.0
C1007 C 0.95602 0.23608 0.28032 0.0
H1008 H 0.03226 0.28054 0.27375 0.0
H1009 H 0.93795 0.26551 0.20966 0.0
H1010 H 0.07144 0.25461 0.30261 0.0
H1011 H 0.14654 0.25598 0.28486 0.0
H1012 H 0.1086 0.26935 0.29807 0.0
H1013 H 0.96419 0.24595 0.19469 0.0
H1014 H 0.03667 0.2382 0.20687 0.0
H1015 H 0.95657 0.23612 0.22105 0.0
H1016 H 0.19885 0.22031 0.25013 0.0
H1017 H 0.01247 0.21408 0.28769 0.0
H1018 H 0.18698 0.2517 0.244 0.0
H1019 H 0.1502 0.2456 0.21668 0.0
H1020 H 0.22352 0.23849 0.22968 0.0
H1021 H 0.96167 0.24453 0.29124 0.0
H1022 H 0.9304 0.22917 0.29189 0.0
H1023 H 0.92342 0.23822 0.26435 0.0
C1024 C 0.20236 0.21992 0.98623 0.0
C1025 C 0.15068 0.21577 1.00145 0.0
C1026 C 0.23169 0.23129 0.99033 0.0
C1027 C 0.21 0.23839 0.01058 0.0
C1028 C 0.15863 0.23409 0.02627 0.0
C1029 C 0.12884 0.22287 0.02127 0.0
C1030 C 0.28553 0.23575 0.97297 0.0
C1031 C 0.13589 0.24123 0.0485 0.0
C1032 C 0.33558 0.26104 0.03461 0.0
C1033 C 0.31001 0.27196 0.02536 0.0
C1034 C 0.30234 0.25008 0.03048 0.0
C1035 C 0.24336 0.25004 0.01606 0.0
C1036 C 0.21699 0.26107 0.00677 0.0
C1037 C 0.25021 0.27199 0.01194 0.0
C1038 C 0.33069 0.23854 0.04134 0.0
C1039 C 0.15498 0.26127 0.99084 0.0
H1040 H 0.21852 0.21443 0.97076 0.0
H1041 H 0.089 0.21955 0.03309 0.0
H1042 H 0.27175 0.2448 0.96555 0.0
H1043 H 0.3335 0.23682 0.98306 0.0
H1044 H 0.29374 0.22944 0.95729 0.0
H1045 H 0.09545 0.23655 0.05887 0.0
H1046 H 0.17888 0.24275 0.0611 0.0
H1047 H 0.11736 0.25029 0.04273 0.0
H1048 H 0.38167 0.26109 0.0452 0.0
H1049 H 0.2308 0.28047 1.00476 0.0
H1050 H 0.34619 0.2323 0.02636 0.0
H1051 H 0.29177 0.2338 0.05234 0.0
H1052 H 0.37474 0.24028 0.05336 0.0
H1053 H 0.16341 0.25569 0.97409 0.0
H1054 H 0.1411 0.27061 0.98507 0.0
H1055 H 0.1121 0.2572 1.00089 0.0
C1056 C 0.07759 0.0183 0.01423 0.0
C1057 C 0.0552 0.02487 0.99379 0.0
C1058 C 0.0526 0.00668 0.01908 0.0
C1059 C 0.00636 0.00144 1.00245 0.0
C1060 C 0.98331 0.00813 0.98182 0.0
C1061 C 0.00726 0.01993 0.97798 0.0
C1062 C 0.07604 0.0 0.04181 0.0
C1063 C 0.93493 0.00271 0.96347 0.0
C1064 C 0.98963 0.9672 0.99991 0.0
C1065 C 0.92735 0.96564 0.01121 0.0
C1066 C 0.01672 0.97887 0.99714 0.0
C1067 C 0.98132 0.98899 0.00669 0.0
C1068 C 0.92013 0.98729 0.01933 0.0
C1069 C 0.89326 0.97562 0.02104 0.0
C1070 C 0.08147 0.98044 0.9831 0.0
C1071 C 0.88224 -0.00219 0.03051 0.0
H1072 H 0.11468 0.02227 0.02642 0.0
H1073 H 0.99097 0.02508 0.96203 0.0
H1074 H 0.03231 -0.0031 0.05277 0.0
H1075 H 0.1047 0.9918 0.03638 0.0
H1076 H 0.1084 0.00574 0.05373 0.0
H1077 H 0.92357 0.00902 0.94804 0.0
H1078 H 0.9562 -0.00578 0.95572 0.0
H1079 H 0.88728 0.00029 0.97277 0.0
H1080 H 0.0154 0.95941 0.99224 0.0
H1081 H 0.84521 0.97428 0.03 0.0
H1082 H 0.11865 0.98536 0.99453 0.0
H1083 H 0.07234 0.986 0.96638 0.0
H1084 H 0.10345 0.97162 0.97738 0.0
H1085 H 0.91601 0.0033 0.04232 0.0
H1086 H 0.83886 -0.00524 0.04175 0.0
H1087 H 0.86344 0.00385 0.01568 0.0
C1088 C 0.69183 0.01368 0.77809 0.0
C1089 C 0.6356 0.01804 0.76552 0.0
C1090 C 0.71908 0.00232 0.77225 0.0
C1091 C 0.69048 -0.00456 0.75287 0.0
C1092 C 0.63374 -0.00014 0.7401 0.0
C1093 C 0.60636 0.01106 0.74683 0.0
C1094 C 0.77888 -0.00224 0.78657 0.0
C1095 C 0.60336 0.99295 0.71881 0.0
C1096 C 0.81042 0.97402 0.72139 0.0
C1097 C 0.79082 0.96281 0.73114 0.0
C1098 C 0.77645 0.98466 0.72768 0.0
C1099 C 0.72309 0.98407 0.74478 0.0
C1100 C 0.70239 0.97273 0.75445 0.0
C1101 C 0.73598 0.96214 0.74713 0.0
C1102 C 0.79854 -0.00345 0.71638 0.0
C1103 C 0.6466 0.97186 0.77316 0.0
H1104 H 0.71387 0.01908 0.79269 0.0
H1105 H 0.56305 0.01452 0.73702 0.0
H1106 H 0.76915 0.98844 0.79351 0.0
H1107 H 0.82327 -0.00274 0.7743 0.0
H1108 H 0.79127 0.00371 0.80245 0.0
H1109 H 0.55782 -0.00254 0.7114 0.0
H1110 H 0.64067 0.99212 0.70374 0.0
H1111 H 0.5899 0.98361 0.72464 0.0
H1112 H 0.85263 0.97447 0.70882 0.0
H1113 H 0.72124 0.95344 0.75469 0.0
H1114 H 0.81898 0.00259 0.73089 0.0
H1115 H 0.75507 0.00127 0.70797 0.0
H1116 H 0.8376 -0.00473 0.70201 0.0
H1117 H 0.66067 0.97697 0.79 0.0
H1118 H 0.63553 0.96232 0.7784 0.0
H1119 H 0.60022 0.97606 0.7658 0.0
C1120 C 0.09215 0.7233 0.78228 0.0
C1121 C 0.06327 0.71261 0.77328 0.0
C1122 C 0.06024 0.73447 0.77921 0.0
C1123 C -0.00101 0.73495 0.76618 0.0
C1124 C 0.96847 0.72411 0.75769 0.0
C1125 C 0.00071 0.71297 0.76172 0.0
C1126 C 0.0933 0.7458 0.78915 0.0
C1127 C 0.90377 0.72436 0.74329 0.0
C1128 C 0.8957 0.76363 0.77061 0.0
C1129 C 0.9186 0.77003 0.75001 0.0
C1130 C 0.92161 0.75216 0.77622 0.0
C1131 C 0.96942 0.74688 0.76024 0.0
C1132 C 0.99177 0.75329 0.73913 0.0
C1133 C 0.96693 0.76495 0.73453 0.0
C1134 C 0.89881 0.74579 0.7994 0.0
C1135 C 0.04162 0.7478 0.72138 0.0
H1136 H 0.14038 0.72295 0.79147 0.0
H1137 H 0.9787 0.70466 0.75475 0.0
H1138 H 0.11055 0.75156 0.77363 0.0
H1139 H 0.05689 0.75121 0.80001 0.0
H1140 H 0.13717 0.7437 0.80101 0.0
H1141 H 0.8848 0.7151 0.73919 0.0
H1142 H 0.8647 0.7294 0.75361 0.0
H1143 H 0.91179 0.72922 0.72561 0.0
H1144 H 0.85837 0.76771 0.78255 0.0
H1145 H 0.98364 0.76995 0.71844 0.0
H1146 H 0.94256 0.74399 0.81149 0.0
H1147 H 0.87622 0.73689 0.79476 0.0
H1148 H 0.86154 0.75121 0.80991 0.0
H1149 H 0.09034 0.74638 0.73079 0.0
H1150 H 0.05009 0.75363 0.70498 0.0
H1151 H 0.0237 0.73878 0.71509 0.0
C1152 C 0.73708 0.71729 0.99798 0.0
C1153 C 0.675 0.71655 0.98613 0.0
C1154 C 0.76385 0.7286 1.00454 0.0
C1155 C 0.72845 0.73932 0.9983 0.0
C1156 C 0.6672 0.73859 0.98533 0.0
C1157 C 0.64073 0.72719 0.97971 0.0
C1158 C 0.8288 0.72909 0.01878 0.0
C1159 C 0.62922 0.74984 0.97767 0.0
C1160 C 0.75999 0.76813 0.0346 0.0
C1161 C 0.80746 0.77385 0.01969 0.0
C1162 C 0.7342 0.75675 0.02797 0.0
C1163 C 0.75498 0.75133 0.00554 0.0
C1164 C 0.80081 0.7574 0.98996 0.0
C1165 C 0.82753 0.76853 0.99749 0.0
C1166 C 0.68626 0.75038 0.0452 0.0
C1167 C 0.82205 0.75213 0.96548 0.0
H1168 H 0.76337 0.70904 1.00296 0.0
H1169 H 0.59288 0.72658 0.97031 0.0
H1170 H 0.86642 0.73452 0.00853 0.0
H1171 H 0.82048 0.73366 0.03674 0.0
H1172 H 0.84987 0.71991 0.02226 0.0
H1173 H 0.58442 0.74768 0.96634 0.0
H1174 H 0.61263 0.75491 0.99424 0.0
H1175 H 0.66237 0.75597 0.96694 0.0
H1176 H 0.74534 0.7723 0.05187 0.0
H1177 H 0.86415 0.7731 0.98599 0.0
H1178 H 0.70723 0.74145 0.05068 0.0
H1179 H 0.63801 0.74862 0.03571 0.0
H1180 H 0.6761 0.75576 0.06211 0.0
H1181 H 0.84981 0.74354 0.96849 0.0
H1182 H 0.85456 0.75843 0.95486 0.0
H1183 H 0.77731 0.74994 0.95418 0.0
C1184 C 0.11667 0.50853 0.76957 0.0
C1185 C 0.15713 0.51871 0.76524 0.0
C1186 C 0.1409 0.4968 0.76542 0.0
C1187 C 0.20655 0.49528 0.75618 0.0
C1188 C 0.2474 0.50554 0.75147 0.0
C1189 C 0.22238 0.51719 0.75638 0.0
C1190 C 0.09664 0.48605 0.77123 0.0
C1191 C 0.31734 0.50423 0.74117 0.0
C1192 C 0.30248 0.4661 0.76544 0.0
C1193 C 0.29452 0.46056 0.74248 0.0
C1194 C 0.27111 0.47716 0.77061 0.0
C1195 C 0.2332 0.48293 0.75195 0.0
C1196 C 0.22344 0.47714 0.72891 0.0
C1197 C 0.25371 0.46586 0.72456 0.0
C1198 C 0.2808 0.48288 0.79565 0.0
C1199 C 0.18444 0.48317 0.70845 0.0
H1200 H 0.06622 0.50972 0.7766 0.0
H1201 H 0.2534 0.52508 0.75291 0.0
H1202 H 0.08888 0.48048 0.75445 0.0
H1203 H 0.12145 0.48016 0.78509 0.0
H1204 H 0.04688 0.48882 0.77849 0.0
H1205 H 0.34133 0.51315 0.73749 0.0
H1206 H 0.34917 0.49911 0.75431 0.0
H1207 H 0.31588 0.49897 0.72374 0.0
H1208 H 0.33463 0.4619 0.77913 0.0
H1209 H 0.249 0.46156 0.70666 0.0
H1210 H 0.23178 0.48566 0.80348 0.0
H1211 H 0.31189 0.49118 0.79385 0.0
H1212 H 0.30582 0.47662 0.80881 0.0
H1213 H 0.13389 0.48583 0.71501 0.0
H1214 H 0.17879 0.47719 0.6921 0.0
H1215 H 0.21055 0.4916 0.70267 0.0
C1216 C 0.35863 0.7624 0.52406 0.0
C1217 C 0.31661 0.77247 0.52085 0.0
C1218 C 0.33666 0.7507 0.51826 0.0
C1219 C 0.27172 0.74911 0.50843 0.0
C1220 C 0.22927 0.75928 0.50484 0.0
C1221 C 0.252 0.77088 0.51145 0.0
C1222 C 0.38247 0.74003 0.52304 0.0
C1223 C 0.16006 0.75789 0.49396 0.0
C1224 C 0.23226 0.72017 0.47351 0.0
C1225 C 0.19235 0.71411 0.4907 0.0
C1226 C 0.25941 0.73159 0.47913 0.0
C1227 C 0.2474 0.73675 0.50265 0.0
C1228 C 0.21025 0.73024 0.52049 0.0
C1229 C 0.18184 0.71909 0.51406 0.0
C1230 C 0.29781 0.7384 0.45953 0.0
C1231 C 0.19835 0.73522 0.54605 0.0
H1232 H 0.40856 0.76364 0.53153 0.0
H1233 H 0.21989 0.77871 0.50881 0.0
H1234 H 0.35812 0.73363 0.53604 0.0
H1235 H 0.39179 0.73501 0.50567 0.0
H1236 H 0.43146 0.74286 0.5309 0.0
H1237 H 0.13479 0.76677 0.49117 0.0
H1238 H 0.16314 0.75313 0.47597 0.0
H1239 H 0.12851 0.75224 0.50629 0.0
H1240 H 0.23881 0.71633 0.45528 0.0
H1241 H 0.14986 0.71439 0.5271 0.0
H1242 H 0.34767 0.74116 0.4666 0.0
H1243 H 0.27036 0.74682 0.45461 0.0
H1244 H 0.30499 0.73291 0.44257 0.0
H1245 H 0.24633 0.73822 0.5544 0.0
H1246 H 0.17468 0.72843 0.55845 0.0
H1247 H 0.16513 0.74328 0.54497 0.0
C1248 C 0.02188 0.46496 0.4992 0.0
C1249 C 0.96873 0.46452 0.51594 0.0
C1250 C 0.05241 0.47609 0.49348 0.0
C1251 C 0.02998 0.4868 0.50539 0.0
C1252 C 0.9789 0.48618 0.5234 0.0
C1253 C 0.9481 0.47505 0.52815 0.0
C1254 C 0.10599 0.4765 0.47387 0.0
C1255 C 0.95508 0.49734 0.53704 0.0
C1256 C 0.13572 0.51525 0.5052 0.0
C1257 C 0.10108 0.52247 0.4882 0.0
C1258 C 0.11389 0.50349 0.51069 0.0
C1259 C 0.05716 0.4988 0.49835 0.0
C1260 C 0.02302 0.50596 0.48066 0.0
C1261 C 0.04486 0.51783 0.47606 0.0
C1262 C 0.15009 0.49626 0.53025 0.0
C1263 C 0.96297 0.50113 0.46685 0.0
H1264 H 0.03695 0.45676 0.48966 0.0
H1265 H 0.90694 0.47459 0.54118 0.0
H1266 H 0.08743 0.48175 0.45781 0.0
H1267 H 0.15124 0.48122 0.48087 0.0
H1268 H 0.12058 0.46729 0.4675 0.0
H1269 H 0.91935 0.49508 0.55206 0.0
H1270 H -0.0017 0.50228 0.54509 0.0
H1271 H 0.92983 0.50361 0.52401 0.0
H1272 H 0.17905 0.51891 0.5147 0.0
H1273 H 0.01865 0.52342 0.46274 0.0
H1274 H 0.16555 0.48731 0.52285 0.0
H1275 H 0.11577 0.49452 0.54595 0.0
H1276 H 0.19524 0.50104 0.53729 0.0
H1277 H 0.97508 0.49223 0.45836 0.0
H1278 H 0.94594 0.50744 0.45216 0.0
H1279 H 0.92084 0.49964 0.47985 0.0
C1280 C 0.62612 0.51668 0.24953 0.0
C1281 C 0.65423 0.52358 0.26855 0.0
C1282 C 0.65148 0.50519 0.24378 0.0
C1283 C 0.7047 0.5004 0.25798 0.0
C1284 C 0.73243 0.50727 0.27755 0.0
C1285 C 0.70753 0.51892 0.28233 0.0
C1286 C 0.6224 0.49831 0.22221 0.0
C1287 C 0.78829 0.5023 0.29339 0.0
C1288 C 0.73519 0.46646 0.25509 0.0
C1289 C 0.79196 0.46602 0.24002 0.0
C1290 C 0.7063 0.47765 0.26135 0.0
C1291 C 0.73378 0.48848 0.25152 0.0
C1292 C 0.78973 0.48797 0.23556 0.0
C1293 C 0.81891 0.47674 0.23037 0.0
C1294 C 0.6477 0.47793 0.27894 0.0
C1295 C 0.81894 0.49929 0.22405 0.0
H1296 H 0.58516 0.5204 0.23877 0.0
H1297 H 0.72865 0.52428 0.29718 0.0
H1298 H 0.66216 0.49656 0.20836 0.0
H1299 H 0.6032 0.48937 0.22838 0.0
H1300 H 0.58092 0.50334 0.21313 0.0
H1301 H 0.8009 0.50844 0.30894 0.0
H1302 H 0.77386 0.49331 0.30096 0.0
H1303 H 0.83395 0.50094 0.28206 0.0
H1304 H 0.71496 0.45812 0.26264 0.0
H1305 H 0.86265 0.47631 0.21852 0.0
H1306 H 0.60397 0.48235 0.27008 0.0
H1307 H 0.66084 0.48341 0.29541 0.0
H1308 H 0.6327 0.4687 0.28508 0.0
H1309 H 0.77927 0.5044 0.21416 0.0
H1310 H 0.85998 0.49721 0.21088 0.0
H1311 H 0.839 0.50534 0.23862 0.0
C1312 C 0.74921 0.27112 0.50388 0.0
C1313 C 0.80822 0.27181 0.51771 0.0
C1314 C 0.72082 0.2598 0.49819 0.0
C1315 C 0.75133 0.24908 0.50728 0.0
C1316 C 0.81031 0.24981 0.52162 0.0
C1317 C 0.83859 0.26117 0.52633 0.0
C1318 C 0.65874 0.25929 0.48233 0.0
C1319 C 0.8431 0.23861 0.53227 0.0
C1320 C 0.64568 0.22085 0.51484 0.0
C1321 C 0.66877 0.21366 0.49535 0.0
C1322 C 0.67194 0.23245 0.51885 0.0
C1323 C 0.72096 0.23705 0.5025 0.0
C1324 C 0.74375 0.22987 0.48253 0.0
C1325 C 0.71807 0.21812 0.47943 0.0
C1326 C 0.64816 0.23967 0.54083 0.0
C1327 C 0.79495 0.23462 0.46445 0.0
H1328 H 0.72629 0.27939 0.49707 0.0
H1329 H 0.88407 0.26174 0.53721 0.0
H1330 H 0.66798 0.25344 0.46604 0.0
H1331 H 0.61683 0.25516 0.49283 0.0
H1332 H 0.64295 0.26842 0.47587 0.0
H1333 H 0.88797 0.24081 0.54353 0.0
H1334 H 0.80679 0.23362 0.54401 0.0
H1335 H 0.85848 0.23239 0.51724 0.0
H1336 H 0.60764 0.21731 0.52718 0.0
H1337 H 0.7351 0.21256 0.46418 0.0
H1338 H 0.62669 0.24845 0.5347 0.0
H1339 H 0.69122 0.24177 0.55306 0.0
H1340 H 0.60966 0.23475 0.55174 0.0
H1341 H 0.778 0.24344 0.45674 0.0
H1342 H 0.80394 0.22821 0.44901 0.0
H1343 H 0.8432 0.23629 0.47401 0.0
C1344 C 0.38318 0.26016 0.7644 0.0
C1345 C 0.40539 0.26774 0.74538 0.0
C1346 C 0.41322 0.24887 0.76848 0.0
C1347 C 0.46514 0.24496 0.7526 0.0
C1348 C 0.48701 0.25252 0.73307 0.0
C1349 C 0.45752 0.26397 0.72995 0.0
C1350 C 0.3903 0.24125 0.79003 0.0
C1351 C 0.54126 0.24849 0.71548 0.0
C1352 C 0.58843 0.2219 0.77692 0.0
C1353 C 0.56202 0.21104 0.76767 0.0
C1354 C 0.55696 0.23299 0.77228 0.0
C1355 C 0.49894 0.23324 0.75735 0.0
C1356 C 0.4725 0.22231 0.74763 0.0
C1357 C 0.50384 0.21125 0.75332 0.0
C1358 C 0.58536 0.24442 0.78362 0.0
C1359 C 0.41167 0.22232 0.7311 0.0
H1360 H 0.34302 0.26318 0.77639 0.0
H1361 H 0.47397 0.26984 0.7151 0.0
H1362 H 0.3722 0.2323 0.78347 0.0
H1363 H 0.43309 0.23953 0.80262 0.0
H1364 H 0.34949 0.24567 0.80068 0.0
H1365 H 0.54928 0.25511 0.7003 0.0
H1366 H 0.58918 0.24732 0.72555 0.0
H1367 H 0.52807 0.23956 0.70736 0.0
H1368 H 0.63329 0.22169 0.78819 0.0
H1369 H 0.48388 0.20283 0.74606 0.0
H1370 H 0.54662 0.24893 0.79508 0.0
H1371 H 0.6 0.25091 0.76895 0.0
H1372 H 0.6299 0.24258 0.79532 0.0
H1373 H 0.36764 0.22588 0.74127 0.0
H1374 H 0.39945 0.21311 0.7241 0.0
H1375 H 0.42027 0.22843 0.71514 0.0
C1376 C 0.61892 0.01379 0.51439 0.0
C1377 C 0.59499 0.0213 0.49552 0.0
C1378 C 0.59127 0.00228 0.51831 0.0
C1379 C 0.54001 -0.0019 0.50246 0.0
C1380 C 0.51577 0.00567 0.48331 0.0
C1381 C 0.54293 0.01731 0.48032 0.0
C1382 C 0.61655 -0.00536 0.53947 0.0
C1383 C 0.46189 0.00139 0.46579 0.0
C1384 C 0.50662 0.96426 0.49803 0.0
C1385 C 0.44677 0.96337 0.51126 0.0
C1386 C 0.53823 0.97555 0.49513 0.0
C1387 C 0.50994 0.98597 0.50641 0.0
C1388 C 0.45127 0.98491 0.52085 0.0
C1389 C 0.41972 0.97363 0.52273 0.0
C1390 C 0.60001 0.97644 0.47917 0.0
C1391 C 0.42084 -0.00427 0.53379 0.0
H1392 H 0.65902 0.01698 0.52622 0.0
H1393 H 0.52513 0.02312 0.46559 0.0
H1394 H 0.57436 0.99226 0.5519 0.0
H1395 H 0.63773 0.98601 0.53241 0.0
H1396 H 0.65569 -0.00063 0.55042 0.0
H1397 H 0.4509 0.00818 0.4512 0.0
H1398 H 0.47753 0.99278 0.45689 0.0
H1399 H 0.415 -0.00048 0.47609 0.0
H1400 H 0.52675 0.95628 0.48901 0.0
H1401 H 0.37333 0.97282 0.53304 0.0
H1402 H 0.64177 0.98062 0.48966 0.0
H1403 H 0.58962 0.98242 0.46315 0.0
H1404 H 0.61654 0.96744 0.47224 0.0
H1405 H 0.45937 0.00044 0.54502 0.0
H1406 H 0.37852 0.99312 0.546 0.0
H1407 H 0.40211 0.00233 0.51998 0.0
C1408 C 0.52557 0.71972 0.24546 0.0
C1409 C 0.5375 0.71511 0.26902 0.0
C1410 C 0.49515 0.73106 0.24238 0.0
C1411 C 0.47828 0.738 0.26345 0.0
C1412 C 0.4897 0.73326 0.28734 0.0
C1413 C 0.51909 0.72178 0.28983 0.0
C1414 C 0.48261 0.73574 0.21662 0.0
C1415 C 0.47299 0.74047 0.31019 0.0
C1416 C 0.4608 0.77201 0.25455 0.0
C1417 C 0.39107 0.77324 0.25349 0.0
C1418 C 0.49012 0.76056 0.25819 0.0
C1419 C 0.44846 0.7502 0.26047 0.0
C1420 C 0.37807 0.75144 0.25954 0.0
C1421 C 0.35023 0.76296 0.25624 0.0
C1422 C 0.56549 0.75953 0.25943 0.0
C1423 C 0.33217 0.74058 0.26162 0.0
H1424 H 0.5416 0.71458 0.22948 0.0
H1425 H 0.53025 0.71821 0.30801 0.0
H1426 H 0.42913 0.73829 0.21446 0.0
H1427 H 0.51284 0.74403 0.21336 0.0
H1428 H 0.49554 0.72893 0.20229 0.0
H1429 H 0.48417 0.73538 0.32738 0.0
H1430 H 0.50213 0.74905 0.3103 0.0
H1431 H 0.41913 0.74297 0.31019 0.0
H1432 H 0.49235 0.77995 0.25252 0.0
H1433 H 0.29618 0.76387 0.25537 0.0
H1434 H 0.58388 0.75373 0.24416 0.0
H1435 H 0.58058 0.7551 0.27694 0.0
H1436 H 0.5906 0.76851 0.25819 0.0
H1437 H 0.34311 0.73406 0.24657 0.0
H1438 H 0.27837 0.74313 0.26063 0.0
H1439 H 0.34112 0.73579 0.2793 0.0
C1440 C 0.40641 0.47765 0.02772 0.0
C1441 C 0.43205 0.46683 0.01813 0.0
C1442 C 0.44096 0.48859 0.02471 0.0
C1443 C 0.50111 0.4887 0.01093 0.0
C1444 C 0.5276 0.47773 1.00139 0.0
C1445 C 0.49314 0.46682 0.00554 0.0
C1446 C 0.41253 0.50003 0.03591 0.0
C1447 C 0.59071 0.47759 0.98604 0.0
C1448 C 0.54306 0.51884 0.98129 0.0
C1449 C 0.59503 0.52291 0.99644 0.0
C1450 C 0.51328 0.50751 0.98541 0.0
C1451 C 0.53454 0.5004 0.0057 0.0
C1452 C 0.58599 0.50465 0.02141 0.0
C1453 C 0.61657 0.5158 0.01629 0.0
C1454 C 0.45962 0.5031 0.96794 0.0
C1455 C 0.60801 0.49753 0.04377 0.0
H1456 H 0.35925 0.47755 0.03767 0.0
H1457 H 0.51235 0.45839 0.99804 0.0
H1458 H 0.45145 0.50475 0.04695 0.0
H1459 H 0.39663 0.50634 0.0211 0.0
H1460 H 0.36867 0.49818 0.04795 0.0
H1461 H 0.60524 0.46827 0.98039 0.0
H1462 H 0.58318 0.48316 0.96922 0.0
H1463 H 0.6328 0.4817 0.99645 0.0
H1464 H 0.52717 0.52436 0.96581 0.0
H1465 H 0.6566 0.51909 0.02805 0.0
H1466 H 0.41145 0.50206 0.97792 0.0
H1467 H 0.47333 0.49404 0.96055 0.0
H1468 H 0.4518 0.50942 0.95224 0.0
H1469 H 0.56456 0.49596 0.05614 0.0
H1470 H 0.64789 0.50226 0.05434 0.0
H1471 H 0.62704 0.48849 0.0381 0.0
C1472 C 0.0967 0.14583 0.3059 0.0
C1473 C 0.05692 0.15086 0.28722 0.0
C1474 C 0.11061 0.1334 0.30641 0.0
C1475 C 0.08445 0.12588 0.28763 0.0
C1476 C 0.03961 0.13075 0.26993 0.0
C1477 C 0.02602 0.14326 0.27001 0.0
C1478 C 0.15754 0.12852 0.32588 0.0
C1479 C 0.0104 0.12296 0.24974 0.0
C1480 C 0.18857 0.0986 0.26873 0.0
C1481 C 0.15274 0.08912 0.27969 0.0
C1482 C 0.16687 0.11066 0.27126 0.0
C1483 C 0.10857 0.11322 0.2853 0.0
C1484 C 0.07371 0.10371 0.29713 0.0
C1485 C 0.09612 0.09178 0.29413 0.0
C1486 C 0.20541 0.12063 0.25847 0.0
C1487 C 0.01211 0.10611 0.31258 0.0
H1488 H 0.12052 0.15177 0.31923 0.0
H1489 H 0.99595 0.1472 0.25541 0.0
H1490 H 0.13718 0.12007 0.33409 0.0
H1491 H 0.20643 0.12623 0.31731 0.0
H1492 H 0.16651 0.1352 0.34085 0.0
H1493 H 0.97098 0.1278 0.23914 0.0
H1494 H 0.05083 0.12023 0.23683 0.0
H1495 H 0.98862 0.11453 0.25754 0.0
H1496 H 0.23209 0.09657 0.2575 0.0
H1497 H 0.06861 0.08448 0.30293 0.0
H1498 H 0.22247 0.12745 0.27213 0.0
H1499 H 0.17225 0.12539 0.24518 0.0
H1500 H 0.24985 0.11714 0.24838 0.0
H1501 H 0.02369 0.11282 0.32722 0.0
H1502 H 0.99242 0.09773 0.32137 0.0
H1503 H 0.97206 0.11009 0.30092 0.0
C1504 C 0.09276 0.14824 0.95285 0.0
C1505 C 0.14691 0.15156 0.96789 0.0
C1506 C 0.07411 0.13607 0.95022 0.0
C1507 C 0.10955 0.12708 0.96348 0.0
C1508 C 0.16714 0.13032 0.97733 0.0
C1509 C 0.18564 0.14257 0.97915 0.0
C1510 C 0.01374 0.13298 0.93466 0.0
C1511 C 0.20609 0.12097 0.9918 0.0
C1512 C 0.02066 0.09898 0.98701 0.0
C1513 C 0.05038 0.09001 0.97247 0.0
C1514 C 0.03728 0.11125 0.98353 0.0
C1515 C 0.08345 0.1145 0.96475 0.0
C1516 C 0.10896 0.10552 0.94872 0.0
C1517 C 0.09276 0.09334 0.95299 0.0
C1518 C 0.0092 0.1206 1.00103 0.0
C1519 C 0.15637 0.10867 0.92799 0.0
H1520 H 0.06287 0.15525 0.9441 0.0
H1521 H 0.22697 0.14517 0.991 0.0
H1522 H 0.02219 0.12452 0.92403 0.0
H1523 H 0.96979 0.13149 0.94681 0.0
H1524 H 0.00126 0.14042 0.9216 0.0
H1525 H 0.25197 0.12484 1.00032 0.0
H1526 H 0.17388 0.11721 0.00664 0.0
H1527 H 0.22087 0.1133 0.97972 0.0
H1528 H 0.98845 0.09635 1.00219 0.0
H1529 H 0.11546 0.08633 0.94168 0.0
H1530 H 0.98599 0.12817 0.9906 0.0
H1531 H 0.05045 0.1245 0.01224 0.0
H1532 H 0.97107 0.1167 0.01368 0.0
H1533 H 0.137 0.11651 0.91731 0.0
H1534 H 0.16419 0.10091 0.91523 0.0
H1535 H 0.20569 0.11134 0.93571 0.0
C1536 C 0.90778 0.89364 0.71151 0.0
C1537 C 0.84707 0.89722 0.72248 0.0
C1538 C 0.92767 0.88147 0.71122 0.0
C1539 C 0.88573 0.87264 0.72204 0.0
C1540 C 0.82297 0.87606 0.73211 0.0
C1541 C 0.80429 0.88834 0.73221 0.0
C1542 C 0.99462 0.87814 0.7001 0.0
C1543 C 0.77669 0.86681 0.74361 0.0
C1544 C 0.90556 0.83921 0.70817 0.0
C1545 C 0.9394 0.83517 0.72923 0.0
C1546 C 0.89073 0.85153 0.70494 0.0
C1547 C 0.9085 0.85987 0.72363 0.0
C1548 C 0.94535 0.85589 0.74445 0.0
C1549 C 0.96111 0.84354 0.74687 0.0
C1550 C 0.85302 0.85549 0.68219 0.0
C1551 C 0.96438 0.86452 0.76488 0.0
H1552 H 0.94103 0.9004 0.70368 0.0
H1553 H 0.75736 0.89102 0.74067 0.0
H1554 H 0.02852 0.8747 0.71473 0.0
H1555 H 0.98839 0.87075 0.68641 0.0
H1556 H 0.01923 0.88598 0.69094 0.0
H1557 H 0.72843 0.87087 0.74964 0.0
H1558 H 0.76592 0.85942 0.73031 0.0
H1559 H 0.80143 0.86262 0.75984 0.0
H1560 H 0.88841 0.83265 0.69468 0.0
H1561 H 0.98603 0.8403 0.76337 0.0
H1562 H 0.87784 0.86345 0.67361 0.0
H1563 H 0.80152 0.8583 0.68737 0.0
H1564 H 0.84946 0.84812 0.66828 0.0
H1565 H 0.99202 0.87242 0.75731 0.0
H1566 H 0.99589 0.8601 0.77918 0.0
H1567 H 0.91832 0.86806 0.77382 0.0
C1568 C 0.85902 0.89769 0.04916 0.0
C1569 C 0.9125 0.90033 0.03325 0.0
C1570 C 0.83913 0.88571 0.05354 0.0
C1571 C 0.87277 0.87618 0.04127 0.0
C1572 C 0.92928 0.87876 0.02626 0.0
C1573 C 0.94898 0.89086 0.0226 0.0
C1574 C 0.77983 0.88335 0.07017 0.0
C1575 C 0.96617 0.8688 0.01279 0.0
C1576 C 0.85365 0.84314 0.05876 0.0
C1577 C 0.80879 0.83906 0.0407 0.0
C1578 C 0.87217 0.85538 0.06011 0.0
C1579 C 0.84614 0.86363 0.04262 0.0
C1580 C 0.79765 0.85968 0.02528 0.0
C1581 C 0.77899 0.8474 0.02468 0.0
C1582 C 0.92236 0.85931 0.07935 0.0
C1583 C 0.76896 0.86824 0.00627 0.0
H1584 H 0.83099 0.90507 0.05747 0.0
H1585 H 0.98983 0.89295 0.01012 0.0
H1586 H 0.73587 0.88071 0.05886 0.0
H1587 H 0.79054 0.87573 0.08295 0.0
H1588 H 0.76609 0.89148 0.08116 0.0
H1589 H 0.01124 0.87224 1.00299 0.0
H1590 H 0.98192 0.86161 0.02587 0.0
H1591 H 0.9322 0.86453 0.99912 0.0
H1592 H 0.87636 0.83664 0.07121 0.0
H1593 H 0.74496 0.84418 0.01054 0.0
H1594 H 0.90522 0.86771 0.08867 0.0
H1595 H 0.97099 0.86137 0.07036 0.0
H1596 H 0.93082 0.85217 0.09348 0.0
H1597 H 0.74769 0.87639 0.01534 0.0
H1598 H 0.72916 0.8639 0.99498 0.0
H1599 H 0.80952 0.87137 0.99379 0.0
C1600 C 0.14214 0.58911 0.79726 0.0
C1601 C 0.18526 0.58454 0.77909 0.0
C1602 C 0.12808 0.60152 0.79874 0.0
C1603 C 0.15732 0.60948 0.7814 0.0
C1604 C 0.20437 0.60503 0.76403 0.0
C1605 C 0.21822 0.59254 0.76318 0.0
C1606 C 0.07888 0.60596 0.81789 0.0
C1607 C 0.23661 0.61332 0.74531 0.0
C1608 C 0.06233 0.63808 0.76408 0.0
C1609 C 0.10006 0.64692 0.77626 0.0
C1610 C 0.07998 0.62577 0.76586 0.0
C1611 C 0.13574 0.62234 0.78051 0.0
C1612 C 0.17162 0.6312 0.79387 0.0
C1613 C 0.15364 0.6434 0.79141 0.0
C1614 C 0.0406 0.6165 0.75137 0.0
C1615 C 0.23017 0.62787 0.81018 0.0
H1616 H 0.11681 0.58287 0.80962 0.0
H1617 H 0.2509 0.58896 0.74897 0.0
H1618 H 0.09927 0.61397 0.82772 0.0
H1619 H 0.03179 0.60883 0.80873 0.0
H1620 H 0.06654 0.59883 0.83165 0.0
H1621 H 0.27546 0.60859 0.73422 0.0
H1622 H 0.19769 0.61689 0.73264 0.0
H1623 H 0.26001 0.62122 0.75461 0.0
H1624 H 0.02118 0.64082 0.75228 0.0
H1625 H 0.18245 0.65026 0.80105 0.0
H1626 H 0.02108 0.60936 0.76387 0.0
H1627 H 0.07395 0.61199 0.73781 0.0
H1628 H 0.99775 0.62062 0.74133 0.0
H1629 H 0.21544 0.62064 0.82334 0.0
H1630 H 0.24932 0.63577 0.82079 0.0
H1631 H 0.27162 0.62422 0.79875 0.0
C1632 C 0.17992 0.63987 0.48277 0.0
C1633 C 0.14321 0.64919 0.47164 0.0
C1634 C 0.15972 0.62772 0.48029 0.0
C1635 C 0.10224 0.6249 0.46601 0.0
C1636 C 0.06723 0.63423 0.45367 0.0
C1637 C 0.08784 0.64628 0.45679 0.0
C1638 C 0.19831 0.61797 0.49374 0.0
C1639 C 0.00682 0.63156 0.43781 0.0
C1640 C 0.09135 0.59178 0.4487 0.0
C1641 C 0.05025 0.58724 0.4675 0.0
C1642 C 0.10515 0.60419 0.44692 0.0
C1643 C 0.07797 0.61219 0.46467 0.0
C1644 C 0.0323 0.60775 0.48258 0.0
C1645 C 0.01858 0.59526 0.48369 0.0
C1646 C 0.15283 0.60858 0.42721 0.0
C1647 C 0.00238 0.61602 0.50182 0.0
H1648 H 0.22242 0.64211 0.49436 0.0
H1649 H 0.05967 0.65348 0.44794 0.0
H1650 H 0.16509 0.61343 0.50732 0.0
H1651 H 0.21552 0.61093 0.48057 0.0
H1652 H 0.24265 0.62164 0.50362 0.0
H1653 H 0.98894 0.63972 0.42773 0.0
H1654 H 0.01876 0.62436 0.42421 0.0
H1655 H 0.96532 0.62813 0.4495 0.0
H1656 H 0.11591 0.58549 0.43627 0.0
H1657 H 0.98773 0.59168 0.49845 0.0
H1658 H 0.20158 0.61099 0.43574 0.0
H1659 H 0.13303 0.61686 0.41816 0.0
H1660 H 0.16198 0.60155 0.41291 0.0
H1661 H 0.04246 0.61916 0.51449 0.0
H1662 H 0.96301 0.61141 0.51287 0.0
H1663 H 0.9803 0.62419 0.49306 0.0
C1664 C 0.95404 0.34822 0.22379 0.0
C1665 C 0.90706 0.33877 0.22335 0.0
C1666 C 0.93332 0.36037 0.22185 0.0
C1667 C 0.86413 0.36306 0.21956 0.0
C1668 C 0.81704 0.35354 0.21762 0.0
C1669 C 0.83906 0.34153 0.21943 0.0
C1670 C 0.98506 0.37033 0.22361 0.0
C1671 C 0.74289 0.35604 0.21506 0.0
C1672 C 0.8042 0.39267 0.24722 0.0
C1673 C 0.80125 0.40013 0.22643 0.0
C1674 C 0.82435 0.38054 0.24516 0.0
C1675 C 0.84028 0.37576 0.22164 0.0
C1676 C 0.83423 0.38316 0.20042 0.0
C1677 C 0.816 0.39538 0.20315 0.0
C1678 C 0.83145 0.373 0.26827 0.0
C1679 C 0.84906 0.37828 0.17501 0.0
H1680 H 0.00663 0.34618 0.22657 0.0
H1681 H 0.80219 0.33431 0.21869 0.0
H1682 H 0.97809 0.37701 0.20853 0.0
H1683 H 0.97875 0.37526 0.24128 0.0
H1684 H 0.03705 0.36674 0.2227 0.0
H1685 H 0.71381 0.34768 0.21098 0.0
H1686 H 0.72358 0.36 0.23247 0.0
H1687 H 0.73366 0.36276 0.20021 0.0
H1688 H 0.79451 0.39654 0.26526 0.0
H1689 H 0.81476 0.40132 0.18721 0.0
H1690 H 0.88429 0.37003 0.2704 0.0
H1691 H 0.8002 0.3647 0.26688 0.0
H1692 H 0.81652 0.37807 0.28509 0.0
H1693 H 0.903 0.37595 0.17356 0.0
H1694 H 0.83658 0.38492 0.16031 0.0
H1695 H 0.82025 0.36982 0.1717 0.0
C1696 C 0.78347 0.34645 0.51946 0.0
C1697 C 0.81199 0.33785 0.53528 0.0
C1698 C 0.80152 0.35873 0.5212 0.0
C1699 C 0.84818 0.36243 0.53942 0.0
C1700 C 0.87283 0.35391 0.55665 0.0
C1701 C 0.85481 0.34169 0.55424 0.0
C1702 C 0.77425 0.36759 0.50249 0.0
C1703 C 0.92136 0.35754 0.57669 0.0
C1704 C 0.95502 0.38979 0.52339 0.0
C1705 C 0.91944 0.39914 0.53495 0.0
C1706 C 0.93315 0.37772 0.5252 0.0
C1707 C 0.8751 0.37498 0.53922 0.0
C1708 C 0.84153 0.38429 0.55216 0.0
C1709 C 0.86385 0.39628 0.54974 0.0
C1710 C 0.9702 0.36799 0.51112 0.0
C1711 C 0.78048 0.38168 0.56775 0.0
H1712 H 0.75088 0.34346 0.50467 0.0
H1713 H 0.87659 0.33502 0.56658 0.0
H1714 H 0.75309 0.37568 0.51185 0.0
H1715 H 0.81559 0.37079 0.49044 0.0
H1716 H 0.73473 0.36348 0.49074 0.0
H1717 H 0.929 0.35017 0.59039 0.0
H1718 H 0.97058 0.35981 0.56836 0.0
H1719 H 0.90324 0.36575 0.58645 0.0
H1720 H 0.99763 0.39199 0.51182 0.0
H1721 H 0.83651 0.4035 0.55888 0.0
H1722 H 0.93665 0.36401 0.49694 0.0
H1723 H 0.98518 0.36054 0.52372 0.0
H1724 H 0.01579 0.37154 0.50184 0.0
H1725 H 0.73847 0.37875 0.55576 0.0
H1726 H 0.76404 0.38975 0.57844 0.0
H1727 H 0.79088 0.37415 0.58078 0.0
C1728 C 0.70246 0.0908 0.77889 0.0
C1729 C 0.66251 0.08276 0.7924 0.0
C1730 C 0.68901 0.1033 0.77918 0.0
C1731 C 0.63516 0.10776 0.79362 0.0
C1732 C 0.5987 0.09977 0.80897 0.0
C1733 C 0.61252 0.08733 0.80802 0.0
C1734 C 0.72911 0.11159 0.76262 0.0
C1735 C 0.54197 0.10418 0.82507 0.0
C1736 C 0.62799 0.14181 0.80183 0.0
C1737 C 0.5826 0.14519 0.78328 0.0
C1738 C 0.64367 0.12962 0.80608 0.0
C1739 C 0.61388 0.1206 0.79119 0.0
C1740 C 0.56569 0.1239 0.77317 0.0
C1741 C 0.55016 0.1362 0.76954 0.0
C1742 C 0.69387 0.12643 0.82588 0.0
C1743 C 0.53285 0.11448 0.75697 0.0
H1744 H 0.74056 0.08723 0.76661 0.0
H1745 H 0.58173 0.08108 0.81853 0.0
H1746 H 0.69639 0.11509 0.74769 0.0
H1747 H 0.74778 0.11953 0.77313 0.0
H1748 H 0.77255 0.10687 0.75411 0.0
H1749 H 0.52755 0.09732 0.83912 0.0
H1750 H 0.55573 0.11273 0.83461 0.0
H1751 H 0.4975 0.1061 0.81343 0.0
H1752 H 0.65261 0.14877 0.81269 0.0
H1753 H 0.5154 0.13881 0.75513 0.0
H1754 H 0.73985 0.12267 0.8173 0.0
H1755 H 0.67316 0.11933 0.83822 0.0
H1756 H 0.70811 0.13443 0.8372 0.0
H1757 H 0.57152 0.10985 0.74567 0.0
H1758 H 0.49483 0.11849 0.74443 0.0
H1759 H 0.50821 0.10745 0.76848 0.0
C1760 C 0.71825 0.14004 0.47923 0.0
C1761 C 0.67963 0.14871 0.4669 0.0
C1762 C 0.70283 0.12764 0.47723 0.0
C1763 C 0.64863 0.12392 0.46209 0.0
C1764 C 0.61342 0.13261 0.44795 0.0
C1765 C 0.62873 0.14494 0.45082 0.0
C1766 C 0.74122 0.11864 0.49276 0.0
C1767 C 0.55696 0.129 0.43094 0.0
C1768 C 0.64014 0.08999 0.45152 0.0
C1769 C 0.59384 0.08645 0.46957 0.0
C1770 C 0.6554 0.10226 0.4477 0.0
C1771 C 0.62519 0.11113 0.46291 0.0
C1772 C 0.57582 0.10763 0.48034 0.0
C1773 C 0.56006 0.09529 0.48324 0.0
C1774 C 0.70639 0.10562 0.42831 0.0
C1775 C 0.54294 0.11682 0.49708 0.0
H1776 H 0.757 0.14299 0.49189 0.0
H1777 H 0.59893 0.15169 0.44124 0.0
H1778 H 0.70718 0.11459 0.5067 0.0
H1779 H 0.76038 0.11113 0.48113 0.0
H1780 H 0.78419 0.1229 0.50248 0.0
H1781 H 0.5435 0.13644 0.41801 0.0
H1782 H 0.57065 0.12084 0.42009 0.0
H1783 H 0.51191 0.12672 0.44199 0.0
H1784 H 0.66602 0.0831 0.44089 0.0
H1785 H 0.52488 0.09251 0.49739 0.0
H1786 H 0.75511 0.10761 0.43729 0.0
H1787 H 0.69068 0.11389 0.41816 0.0
H1788 H 0.71418 0.09815 0.41487 0.0
H1789 H 0.58139 0.12104 0.50912 0.0
H1790 H 0.50366 0.11268 0.50892 0.0
H1791 H 0.51986 0.12419 0.48605 0.0
C1792 C 0.28073 0.89332 0.23462 0.0
C1793 C 0.31325 0.90111 0.21814 0.0
C1794 C 0.29377 0.8808 0.23423 0.0
C1795 C 0.33955 0.87605 0.21671 0.0
C1796 C 0.3681 0.88377 0.19877 0.0
C1797 C 0.35491 0.89624 0.1998 0.0
C1798 C 0.26215 0.8728 0.2536 0.0
C1799 C 0.41578 0.87901 0.17944 0.0
C1800 C 0.43192 0.84758 0.23663 0.0
C1801 C 0.392 0.83856 0.22597 0.0
C1802 C 0.41662 0.8599 0.23309 0.0
C1803 C 0.36088 0.86317 0.21827 0.0
C1804 C 0.32352 0.85409 0.20609 0.0
C1805 C 0.33926 0.84189 0.21024 0.0
C1806 C 0.45768 0.86938 0.24634 0.0
C1807 C 0.26478 0.8572 0.1897 0.0
H1808 H 0.24909 0.8971 0.24893 0.0
H1809 H 0.37986 0.90228 0.18695 0.0
H1810 H 0.23776 0.86484 0.24488 0.0
H1811 H 0.3016 0.8693 0.26615 0.0
H1812 H 0.22423 0.87773 0.26476 0.0
H1813 H 0.42696 0.8859 0.16507 0.0
H1814 H 0.46359 0.8763 0.18831 0.0
H1815 H 0.39473 0.87082 0.1704 0.0
H1816 H 0.47228 0.845 0.24894 0.0
H1817 H 0.30853 0.83491 0.20188 0.0
H1818 H 0.42582 0.87412 0.26006 0.0
H1819 H 0.47597 0.87631 0.23311 0.0
H1820 H 0.50147 0.86539 0.25605 0.0
H1821 H 0.22302 0.86075 0.20111 0.0
H1822 H 0.24632 0.84919 0.17928 0.0
H1823 H 0.27872 0.86442 0.1764 0.0
C1824 C 0.43108 0.8886 0.5261 0.0
C1825 C 0.39577 0.89861 0.53514 0.0
C1826 C 0.40798 0.87676 0.53055 0.0
C1827 C 0.34923 0.87497 0.54486 0.0
C1828 C 0.3161 0.88505 0.55538 0.0
C1829 C 0.33932 0.89676 0.55013 0.0
C1830 C 0.44433 0.86621 0.51883 0.0
C1831 C 0.25463 0.88351 0.57133 0.0
C1832 C 0.25646 0.84592 0.5297 0.0
C1833 C 0.28562 0.83787 0.54651 0.0
C1834 C 0.27407 0.85825 0.52977 0.0
C1835 C 0.32062 0.86259 0.54745 0.0
C1836 C 0.34483 0.85469 0.56597 0.0
C1837 C 0.3277 0.84237 0.56507 0.0
C1838 C 0.24755 0.86638 0.5096 0.0
C1839 C 0.39273 0.85904 0.5856 0.0
H1840 H 0.47432 0.89004 0.51436 0.0
H1841 H 0.31224 0.90454 0.55729 0.0
H1842 H 0.45875 0.85948 0.53307 0.0
H1843 H 0.41052 0.86155 0.50563 0.0
H1844 H 0.4902 0.86912 0.50883 0.0
H1845 H 0.23998 0.89212 0.58056 0.0
H1846 H 0.21196 0.88041 0.55985 0.0
H1847 H 0.26345 0.87648 0.58561 0.0
H1848 H 0.22473 0.8424 0.51514 0.0
H1849 H 0.35032 0.8361 0.57806 0.0
H1850 H 0.28913 0.86886 0.49698 0.0
H1851 H 0.2274 0.87492 0.51745 0.0
H1852 H 0.20747 0.86191 0.49865 0.0
H1853 H 0.44299 0.86049 0.57736 0.0
H1854 H 0.39775 0.85237 0.60085 0.0
H1855 H 0.37587 0.86784 0.59336 0.0
C1856 C 0.5561 0.64063 0.27256 0.0
C1857 C 0.59232 0.65013 0.28325 0.0
C1858 C 0.57643 0.62854 0.27592 0.0
C1859 C 0.63332 0.62597 0.29071 0.0
C1860 C 0.6676 0.63551 0.30267 0.0
C1861 C 0.64713 0.64749 0.29856 0.0
C1862 C 0.53872 0.61856 0.26284 0.0
C1863 C 0.72696 0.63311 0.31924 0.0
C1864 C 0.64544 0.59301 0.30927 0.0
C1865 C 0.68832 0.58846 0.29103 0.0
C1866 C 0.63071 0.60541 0.31055 0.0
C1867 C 0.65833 0.61334 0.29275 0.0
C1868 C 0.70552 0.6089 0.27541 0.0
C1869 C 0.72052 0.59646 0.27492 0.0
C1870 C 0.58168 0.6098 0.32978 0.0
C1871 C 0.73583 0.61709 0.25608 0.0
H1872 H 0.51397 0.64267 0.26064 0.0
H1873 H 0.67482 0.65484 0.30705 0.0
H1874 H 0.57277 0.6138 0.24986 0.0
H1875 H 0.52073 0.61174 0.27635 0.0
H1876 H 0.49497 0.62205 0.25235 0.0
H1877 H 0.74414 0.64144 0.32891 0.0
H1878 H 0.71403 0.62614 0.33321 0.0
H1879 H 0.76924 0.6295 0.30819 0.0
H1880 H 0.62054 0.58676 0.3217 0.0
H1881 H 0.75285 0.59286 0.2606 0.0
H1882 H 0.53148 0.61086 0.32126 0.0
H1883 H 0.59686 0.61876 0.33726 0.0
H1884 H 0.57717 0.60326 0.34529 0.0
H1885 H 0.69609 0.62011 0.24315 0.0
H1886 H 0.77575 0.61246 0.24533 0.0
H1887 H 0.75734 0.62533 0.26472 0.0
C1888 C 0.71003 0.64216 0.98901 0.0
C1889 C 0.67485 0.65066 0.97492 0.0
C1890 C 0.69617 0.62972 0.98667 0.0
C1891 C 0.64704 0.6258 0.96953 0.0
C1892 C 0.61503 0.63433 0.95406 0.0
C1893 C 0.62887 0.64667 0.95713 0.0
C1894 C 0.73117 0.62085 1.00352 0.0
C1895 C 0.56387 0.63048 0.93509 0.0
C1896 C 0.64577 0.59208 0.95647 0.0
C1897 C 0.59554 0.58805 0.9726 0.0
C1898 C 0.66093 0.60444 0.95429 0.0
C1899 C 0.6259 0.6129 0.96903 0.0
C1900 C 0.57262 0.60894 0.98435 0.0
C1901 C 0.55757 0.59652 0.98577 0.0
C1902 C 0.71673 0.60832 0.93722 0.0
C1903 C 0.53423 0.61773 1.00038 0.0
H1904 H 0.74519 0.64528 1.00287 0.0
H1905 H 0.60208 0.65329 0.94607 0.0
H1906 H 0.69394 0.61657 0.016 0.0
H1907 H 0.75465 0.61347 0.9926 0.0
H1908 H 0.77047 0.62527 0.0149 0.0
H1909 H 0.54924 0.63808 0.92274 0.0
H1910 H 0.58377 0.62294 0.92368 0.0
H1911 H 0.5182 0.62709 0.9445 0.0
H1912 H 0.6749 0.5855 0.94618 0.0
H1913 H 0.51925 0.59338 0.99842 0.0
H1914 H 0.76154 0.61078 0.94824 0.0
H1915 H 0.70191 0.61645 0.92646 0.0
H1916 H 0.73103 0.60099 0.9242 0.0
H1917 H 0.56864 0.62183 0.01412 0.0
H1918 H 0.49228 0.61327 0.01036 0.0
H1919 H 0.51362 0.62523 0.98906 0.0
C1920 C 0.41998 0.39178 0.72262 0.0
C1921 C 0.35605 0.39634 0.71702 0.0
C1922 C 0.43371 0.37934 0.72125 0.0
C1923 C 0.38278 0.37129 0.71348 0.0
C1924 C 0.31979 0.37593 0.70592 0.0
C1925 C 0.30676 0.38841 0.70814 0.0
C1926 C 0.50092 0.37476 0.73009 0.0
C1927 C 0.26493 0.36763 0.69682 0.0
C1928 C 0.43168 0.33828 0.70299 0.0
C1929 C 0.40977 0.33305 0.72505 0.0
C1930 C 0.42227 0.35075 0.69861 0.0
C1931 C 0.39195 0.35804 0.71704 0.0
C1932 C 0.3714 0.35274 0.73957 0.0
C1933 C 0.37971 0.34027 0.74311 0.0
C1934 C 0.44319 0.35608 0.67418 0.0
C1935 C 0.3405 0.36021 0.75998 0.0
H1936 H 0.45844 0.39783 0.72954 0.0
H1937 H 0.2576 0.39191 0.70347 0.0
H1938 H 0.49428 0.36995 0.74789 0.0
H1939 H 0.52238 0.36818 0.71682 0.0
H1940 H 0.53748 0.38225 0.73285 0.0
H1941 H 0.22382 0.37275 0.68773 0.0
H1942 H 0.2853 0.36088 0.68362 0.0
H1943 H 0.24347 0.36253 0.7126 0.0
H1944 H 0.45394 0.33257 0.68894 0.0
H1945 H 0.36267 0.33611 0.76012 0.0
H1946 H 0.47956 0.36356 0.67706 0.0
H1947 H 0.39888 0.36004 0.66478 0.0
H1948 H 0.46627 0.3492 0.66185 0.0
H1949 H 0.37466 0.36774 0.76515 0.0
H1950 H 0.32976 0.35473 0.7767 0.0
H1951 H 0.29293 0.36434 0.75353 0.0
C1952 C 0.34955 0.39558 0.01607 0.0
C1953 C 0.39623 0.40131 0.03142 0.0
C1954 C 0.33852 0.38309 0.01755 0.0
C1955 C 0.37349 0.37623 0.03542 0.0
C1956 C 0.41928 0.38203 0.05156 0.0
C1957 C 0.43119 0.39454 0.04903 0.0
C1958 C 0.29128 0.37719 0.99936 0.0
C1959 C 0.45585 0.37501 0.07129 0.0
C1960 C 0.30063 0.34482 0.04584 0.0
C1961 C 0.34429 0.33773 0.03172 0.0
C1962 C 0.31155 0.35736 0.04836 0.0
C1963 C 0.36573 0.36286 0.03566 0.0
C1964 C 0.40962 0.35568 0.02131 0.0
C1965 C 0.39894 0.34316 0.01986 0.0
C1966 C 0.26498 0.36473 0.06436 0.0
C1967 C 0.46637 0.36124 0.00671 0.0
H1968 H 0.32297 0.40086 1.00232 0.0
H1969 H 0.46676 0.39906 0.06102 0.0
H1970 H 0.31891 0.37041 0.98816 0.0
H1971 H 0.25094 0.37227 0.00927 0.0
H1972 H 0.26781 0.38388 0.98671 0.0
H1973 H 0.48464 0.38105 0.08381 0.0
H1974 H 0.41968 0.36965 0.08238 0.0
H1975 H 0.49113 0.36849 0.06267 0.0
H1976 H 0.25887 0.34053 0.05521 0.0
H1977 H 0.4324 0.33764 0.00881 0.0
H1978 H 0.23548 0.37107 0.05278 0.0
H1979 H 0.29436 0.3703 0.07753 0.0
H1980 H 0.22961 0.35892 0.0749 0.0
H1981 H 0.44594 0.36778 0.99309 0.0
H1982 H 0.49635 0.35433 0.9967 0.0
H1983 H 0.50029 0.36637 0.0191 0.0
C1984 C 0.02638 0.05997 0.35171 0.0
C1985 C 0.99647 0.05512 0.33046 0.0
C1986 C 0.99072 0.06104 0.3738 0.0
C1987 C 0.92351 0.05706 0.37482 0.0
C1988 C 0.89196 0.05263 0.35316 0.0
C1989 C 0.92883 0.05179 0.33107 0.0
C1990 C 0.02587 0.06602 0.39629 0.0
C1991 C 0.82019 0.04832 0.35358 0.0
C1992 C 0.85533 0.04586 0.4361 0.0
C1993 C 0.81538 0.05563 0.4434 0.0
C1994 C 0.89219 0.04634 0.41409 0.0
C1995 C 0.88796 0.0568 0.39894 0.0
C1996 C 0.84961 0.0669 0.40683 0.0
C1997 C 0.81342 0.06615 0.42898 0.0
C1998 C 0.93318 0.03545 0.4065 0.0
C1999 C 0.84393 0.07822 0.3913 0.0
H2000 H 0.0785 0.06275 0.35119 0.0
H2001 H 0.9057 0.04805 0.31468 0.0
H2002 H 0.99581 0.07342 0.40466 0.0
H2003 H 0.03096 0.05877 0.41035 0.0
H2004 H 0.07659 0.06959 0.39193 0.0
H2005 H 0.80174 0.04583 0.33494 0.0
H2006 H 0.81581 0.04027 0.36577 0.0
H2007 H 0.78719 0.05548 0.36129 0.0
H2008 H 0.85497 0.0376 0.44698 0.0
H2009 H 0.78069 0.07355 0.43437 0.0
H2010 H 0.98571 0.03819 0.40276 0.0
H2011 H 0.9127 0.03158 0.38919 0.0
H2012 H 0.93336 0.02824 0.42082 0.0
H2013 H 0.89418 0.08133 0.38523 0.0
H2014 H 0.81896 0.08574 0.40137 0.0
H2015 H 0.81437 0.07619 0.37449 0.0
C2016 C 0.3432 0.17564 0.33367 0.0
C2017 C 0.27312 0.17539 0.33354 0.0
C2018 C 0.37872 0.1743 0.35595 0.0
C2019 C 0.34302 0.17257 0.37833 0.0
C2020 C 0.27264 0.17121 0.37775 0.0
C2021 C 0.2386 0.1727 0.35541 0.0
C2022 C 0.45397 0.17561 0.35581 0.0
C2023 C 0.23268 0.16912 0.40101 0.0
C2024 C 0.44122 0.16597 0.43714 0.0
C2025 C 0.44992 0.17772 0.44645 0.0
C2026 C 0.40511 0.16402 0.41521 0.0
C2027 C 0.37746 0.17409 0.40249 0.0
C2028 C 0.38336 0.18588 0.41269 0.0
C2029 C 0.42015 0.18754 0.43441 0.0
C2030 C 0.40036 0.15132 0.40496 0.0
C2031 C 0.35361 0.19684 0.40004 0.0
H2032 H 0.36988 0.17767 0.31676 0.0
H2033 H 0.18428 0.17227 0.35524 0.0
H2034 H 0.46796 0.18441 0.36435 0.0
H2035 H 0.47749 0.16831 0.3669 0.0
H2036 H 0.47486 0.17533 0.33684 0.0
H2037 H 0.17993 0.16656 0.39701 0.0
H2038 H 0.25591 0.16187 0.41234 0.0
H2039 H 0.23248 0.17754 0.4122 0.0
H2040 H 0.46641 0.15843 0.44606 0.0
H2041 H 0.42855 0.19665 0.44138 0.0
H2042 H 0.43616 0.15036 0.38943 0.0
H2043 H 0.34943 0.14947 0.39767 0.0
H2044 H 0.41279 0.14437 0.41907 0.0
H2045 H 0.37772 0.19813 0.3818 0.0
H2046 H 0.36023 0.20528 0.41097 0.0
H2047 H 0.29926 0.19543 0.39679 0.0
C2048 C 0.82276 0.17729 0.83645 0.0
C2049 C 0.75267 0.17771 0.83558 0.0
C2050 C 0.85648 0.17679 0.85925 0.0
C2051 C 0.81903 0.17668 0.88151 0.0
C2052 C 0.74833 0.17638 0.88055 0.0
C2053 C 0.71614 0.1769 0.85766 0.0
C2054 C 0.93208 0.17696 0.85959 0.0
C2055 C 0.70648 0.17618 0.90375 0.0
C2056 C 0.90903 0.1703 0.94216 0.0
C2057 C 0.92418 0.1821 0.94991 0.0
C2058 C 0.87364 0.16831 0.92008 0.0
C2059 C 0.85303 0.17839 0.90569 0.0
C2060 C 0.86526 0.19032 0.91431 0.0
C2061 C 0.90132 0.19201 0.93617 0.0
C2062 C 0.86205 0.15546 0.91148 0.0
C2063 C 0.84303 0.20133 0.89985 0.0
H2064 H 0.85118 0.17781 0.81946 0.0
H2065 H 0.66183 0.17699 0.85717 0.0
H2066 H 0.94979 0.18576 0.8671 0.0
H2067 H 0.95147 0.1697 0.87183 0.0
H2068 H 0.95377 0.17574 0.8409 0.0
H2069 H 0.65241 0.17473 0.89983 0.0
H2070 H 0.72398 0.16891 0.91634 0.0
H2071 H 0.71215 0.18494 0.91363 0.0
H2072 H 0.92891 0.16265 0.95239 0.0
H2073 H 0.91459 0.20112 0.94198 0.0
H2074 H 0.89614 0.15346 0.89584 0.0
H2075 H 0.80996 0.15427 0.90476 0.0
H2076 H 0.87176 0.14875 0.92633 0.0
H2077 H 0.86916 0.20154 0.8818 0.0
H2078 H 0.85368 0.20995 0.90972 0.0
H2079 H 0.78845 0.20084 0.89608 0.0
C2080 C 0.32148 0.05996 0.93301 0.0
C2081 C 0.25164 0.06104 0.93233 0.0
C2082 C 0.35916 0.06057 0.91107 0.0
C2083 C 0.32587 0.0623 0.8882 0.0
C2084 C 0.25609 0.06443 0.88787 0.0
C2085 C 0.21996 0.06377 0.90991 0.0
C2086 C 0.43387 0.05857 0.91213 0.0
C2087 C 0.21866 0.06647 0.86403 0.0
C2088 C 0.42546 0.0673 0.82907 0.0
C2089 C 0.43093 0.05539 0.82033 0.0
C2090 C 0.39105 0.06979 0.85113 0.0
C2091 C 0.3615 0.06012 0.8645 0.0
C2092 C 0.36472 0.04815 0.85502 0.0
C2093 C 0.40022 0.04592 0.83321 0.0
C2094 C 0.38964 0.08265 0.86072 0.0
C2095 C 0.33245 0.03761 0.8683 0.0
H2096 H 0.34607 0.05794 0.95035 0.0
H2097 H 0.16597 0.0649 0.90939 0.0
H2098 H 0.44602 0.04951 0.90439 0.0
H2099 H 0.46028 0.06544 0.90077 0.0
H2100 H 0.45331 0.059 0.93129 0.0
H2101 H 0.16605 0.06938 0.8672 0.0
H2102 H 0.24422 0.07344 0.85267 0.0
H2103 H 0.218 0.05792 0.85323 0.0
H2104 H 0.45143 0.07454 0.81946 0.0
H2105 H 0.40612 0.03669 0.82664 0.0
H2106 H 0.42576 0.08349 0.87617 0.0
H2107 H 0.33933 0.08502 0.86795 0.0
H2108 H 0.40369 0.08931 0.84625 0.0
H2109 H 0.35573 0.03645 0.88672 0.0
H2110 H 0.33759 0.02895 0.85798 0.0
H2111 H 0.27833 0.03944 0.87122 0.0
C2112 C 0.18973 0.94489 0.57132 0.0
C2113 C 0.20077 0.93474 0.55637 0.0
C2114 C 0.14882 0.94415 0.59223 0.0
C2115 C 0.11967 0.93287 0.5987 0.0
C2116 C 0.1294 0.92263 0.58327 0.0
C2117 C 0.16968 0.92371 0.56208 0.0
C2118 C 0.13873 0.95534 0.60786 0.0
C2119 C 0.09995 0.91042 0.58975 0.0
C2120 C 0.07202 0.93019 0.66646 0.0
C2121 C 0.00347 0.9329 0.66563 0.0
C2122 C 0.11017 0.92964 0.64465 0.0
C2123 C 0.07899 0.93196 0.62162 0.0
C2124 C 0.00956 0.93442 0.62072 0.0
C2125 C 0.97273 0.93482 0.64266 0.0
C2126 C 0.18413 0.92688 0.64628 0.0
C2127 C 0.9745 0.93706 0.59663 0.0
H2128 H 0.21507 0.95334 0.56704 0.0
H2129 H 0.18021 0.91579 0.55089 0.0
H2130 H 0.08443 0.95714 0.61035 0.0
H2131 H 0.16053 0.95387 0.62642 0.0
H2132 H 0.16237 0.96352 0.59961 0.0
H2133 H 0.10936 0.90353 0.57522 0.0
H2134 H 0.12213 0.90715 0.60728 0.0
H2135 H 0.0451 0.91122 0.59268 0.0
H2136 H 0.09592 0.92861 0.6841 0.0
H2137 H 0.91968 0.93689 0.64178 0.0
H2138 H 0.21339 0.93497 0.64056 0.0
H2139 H 0.19733 0.9194 0.6335 0.0
H2140 H 0.19963 0.9243 0.66523 0.0
H2141 H 0.99478 0.94555 0.58853 0.0
H2142 H 0.91947 0.93811 0.59893 0.0
H2143 H 0.98404 0.92966 0.58322 0.0
C2144 C 0.66407 0.81248 0.69149 0.0
C2145 C 0.72262 0.80557 0.68899 0.0
C2146 C 0.62087 0.81423 0.67124 0.0
C2147 C 0.63639 0.80878 0.64825 0.0
C2148 C 0.69613 0.80202 0.64563 0.0
C2149 C 0.73845 0.80056 0.66593 0.0
C2150 C 0.55795 0.82164 0.67457 0.0
C2151 C 0.71412 0.79585 0.62163 0.0
C2152 C 0.49752 0.79865 0.60561 0.0
C2153 C 0.50323 0.80689 0.58603 0.0
C2154 C 0.53925 0.79943 0.62624 0.0
C2155 C 0.58728 0.80884 0.62763 0.0
C2156 C 0.59236 0.8174 0.60818 0.0
C2157 C 0.55067 0.81623 0.58736 0.0
C2158 C 0.53335 0.7899 0.64617 0.0
C2159 C 0.64223 0.82768 0.60928 0.0
H2160 H 0.65202 0.81649 0.70918 0.0
H2161 H 0.78368 0.79522 0.66375 0.0
H2162 H 0.55343 0.82845 0.65959 0.0
H2163 H 0.51346 0.81563 0.67342 0.0
H2164 H 0.55694 0.82641 0.6926 0.0
H2165 H 0.7643 0.79149 0.62227 0.0
H2166 H 0.67629 0.78878 0.61731 0.0
H2167 H 0.71363 0.8025 0.60628 0.0
H2168 H 0.46095 0.79139 0.60461 0.0
H2169 H 0.5544 0.82271 0.57238 0.0
H2170 H 0.52516 0.79425 0.66434 0.0
H2171 H 0.58075 0.78466 0.64737 0.0
H2172 H 0.49162 0.78344 0.64269 0.0
H2173 H 0.63749 0.83259 0.62704 0.0
H2174 H 0.63535 0.83424 0.59394 0.0
H2175 H 0.69393 0.82401 0.60835 0.0
C2176 C 0.12466 0.80432 0.19127 0.0
C2177 C 0.18982 0.80888 0.19309 0.0
C2178 C 0.08928 0.80515 0.16888 0.0
C2179 C 0.11969 0.81087 0.14825 0.0
C2180 C 0.1837 0.81622 0.15073 0.0
C2181 C 0.21833 0.81499 0.173 0.0
C2182 C 0.02118 0.79928 0.16687 0.0
C2183 C 0.21728 0.82266 0.12948 0.0
C2184 C 0.06627 0.79991 0.08484 0.0
C2185 C 0.01906 0.8087 0.07832 0.0
C2186 C 0.10061 0.80067 0.10738 0.0
C2187 C 0.08706 0.81045 0.12362 0.0
C2188 C 0.04161 0.81966 0.11645 0.0
C2189 C 0.00758 0.81859 0.09393 0.0
C2190 C 0.14886 0.79068 0.11435 0.0
C2191 C 0.02669 0.83033 0.133 0.0
H2192 H 0.10323 0.79946 0.20676 0.0
H2193 H 0.26905 0.81846 0.17447 0.0
H2194 H 0.98429 0.80578 0.15917 0.0
H2195 H 0.02396 0.79147 0.154 0.0
H2196 H 0.00253 0.79597 0.18495 0.0
H2197 H 0.26293 0.82765 0.13537 0.0
H2198 H 0.23187 0.81593 0.11525 0.0
H2199 H 0.1822 0.82917 0.12072 0.0
H2200 H 0.07347 0.7921 0.07297 0.0
H2201 H 0.96975 0.82521 0.089 0.0
H2202 H 0.13036 0.78592 0.13104 0.0
H2203 H 0.19861 0.79457 0.1189 0.0
H2204 H 0.15529 0.78392 0.09936 0.0
H2205 H 0.00075 0.82713 0.14987 0.0
H2206 H 0.99451 0.8372 0.1238 0.0
H2207 H 0.07396 0.83476 0.13891 0.0
C2208 C 0.68358 0.94199 0.07145 0.0
C2209 C 0.7007 0.93212 0.05656 0.0
C2210 C 0.64582 0.94039 0.09293 0.0
C2211 C 0.62588 0.92855 0.09997 0.0
C2212 C 0.64151 0.91854 0.08457 0.0
C2213 C 0.67881 0.92046 0.06289 0.0
C2214 C 0.62923 0.95135 0.10851 0.0
C2215 C 0.62178 0.90578 0.09158 0.0
C2216 C 0.58534 0.92691 0.16835 0.0
C2217 C 0.51618 0.92903 0.16795 0.0
C2218 C 0.62162 0.92584 0.14617 0.0
C2219 C 0.58765 0.92691 0.12328 0.0
C2220 C 0.51723 0.92818 0.12294 0.0
C2221 C 0.48249 0.92922 0.14522 0.0
C2222 C 0.69669 0.92431 0.14722 0.0
C2223 C 0.47894 0.9293 0.09903 0.0
H2224 H 0.70206 0.95095 0.0667 0.0
H2225 H 0.6943 0.91279 0.05175 0.0
H2226 H 0.57425 0.95198 0.11131 0.0
H2227 H 0.65265 0.95042 0.12696 0.0
H2228 H 0.64697 0.95995 0.10005 0.0
H2229 H 0.63134 0.89921 0.07645 0.0
H2230 H 0.65095 0.9029 0.10798 0.0
H2231 H 0.56796 0.90537 0.09665 0.0
H2232 H 0.61144 0.92664 0.18586 0.0
H2233 H 0.4287 0.93059 0.14474 0.0
H2234 H 0.72126 0.9329 0.14151 0.0
H2235 H 0.71315 0.91714 0.13422 0.0
H2236 H 0.7143 0.92195 0.16604 0.0
H2237 H 0.49082 0.93813 0.09023 0.0
H2238 H 0.42385 0.92878 0.10185 0.0
H2239 H 0.49407 0.92205 0.08599 0.0
C2240 C 0.91042 0.55744 0.82661 0.0
C2241 C 0.98039 0.55819 0.826 0.0
C2242 C 0.87564 0.55877 0.84907 0.0
C2243 C 0.91197 0.56095 0.87114 0.0
C2244 C 0.98203 0.5627 0.87007 0.0
C2245 C 0.01529 0.56127 0.84757 0.0
C2246 C 0.80064 0.55706 0.84946 0.0
C2247 C 0.02264 0.56524 0.89299 0.0
C2248 C 0.81851 0.56858 0.93045 0.0
C2249 C 0.81212 0.55706 0.94109 0.0
C2250 C 0.85164 0.57009 0.90776 0.0
C2251 C 0.87869 0.55981 0.89561 0.0
C2252 C 0.87463 0.54825 0.90697 0.0
C2253 C 0.84066 0.54701 0.92944 0.0
C2254 C 0.85432 0.58255 0.89625 0.0
C2255 C 0.90398 0.53709 0.89494 0.0
H2256 H 0.8834 0.55511 0.80994 0.0
H2257 H 0.06945 0.5621 0.84705 0.0
H2258 H 0.78837 0.54835 0.8587 0.0
H2259 H 0.77643 0.56442 0.86018 0.0
H2260 H 0.77895 0.55691 0.83061 0.0
H2261 H 0.07522 0.56777 0.88863 0.0
H2262 H -0.00046 0.57267 0.90385 0.0
H2263 H 0.02331 0.55703 0.90484 0.0
H2264 H 0.79423 0.57628 0.93914 0.0
H2265 H 0.83388 0.53807 0.93745 0.0
H2266 H 0.81827 0.58296 0.8807 0.0
H2267 H 0.90487 0.58446 0.88866 0.0
H2268 H 0.84114 0.58978 0.90965 0.0
H2269 H 0.8787 0.5354 0.87706 0.0
H2270 H 0.89857 0.52886 0.90662 0.0
H2271 H 0.95801 0.53852 0.89105 0.0
C2272 C 0.3467 0.686 0.82237 0.0
C2273 C 0.29269 0.67816 0.81856 0.0
C2274 C 0.38396 0.68543 0.84432 0.0
C2275 C 0.36731 0.67663 0.86242 0.0
C2276 C 0.31568 0.66815 0.85771 0.0
C2277 C 0.27812 0.66918 0.83601 0.0
C2278 C 0.43827 0.69471 0.84879 0.0
C2279 C 0.29783 0.65837 0.87609 0.0
C2280 C 0.49857 0.672 0.91192 0.0
C2281 C 0.47334 0.67918 0.93109 0.0
C2282 C 0.46279 0.67053 0.88993 0.0
C2283 C 0.40145 0.67675 0.88677 0.0
C2284 C 0.37445 0.68365 0.90652 0.0
C2285 C 0.41054 0.68465 0.92868 0.0
C2286 C 0.4921 0.66274 0.86972 0.0
C2287 C 0.30942 0.69051 0.90375 0.0
H2288 H 0.35674 0.6931 0.80902 0.0
H2289 H 0.23561 0.66322 0.83306 0.0
H2290 H 0.42421 0.70052 0.86468 0.0
H2291 H 0.48604 0.69013 0.85357 0.0
H2292 H 0.44684 0.70061 0.8325 0.0
H2293 H 0.26319 0.65152 0.86814 0.0
H2294 H 0.34365 0.65369 0.8827 0.0
H2295 H 0.27326 0.66254 0.89236 0.0
H2296 H 0.54741 0.66779 0.91391 0.0
H2297 H 0.39178 0.69034 0.94345 0.0
H2298 H 0.50925 0.6686 0.85434 0.0
H2299 H 0.45352 0.6565 0.86224 0.0
H2300 H 0.5354 0.65729 0.87629 0.0
H2301 H 0.31481 0.69748 0.88911 0.0
H2302 H 0.2941 0.69508 0.9211 0.0
H2303 H 0.26875 0.68427 0.89797 0.0
C2304 C 0.90463 0.69022 0.4295 0.0
C2305 C 0.9627 0.68323 0.43177 0.0
C2306 C 0.86698 0.68994 0.40759 0.0
C2307 C 0.88748 0.68228 0.38794 0.0
C2308 C 0.94409 0.6747 0.39088 0.0
C2309 C 0.98161 0.67542 0.41264 0.0
C2310 C 0.80712 0.69821 0.40503 0.0
C2311 C 0.96633 0.66612 0.37078 0.0
C2312 C 0.75561 0.67577 0.33956 0.0
C2313 C 0.77365 0.68385 0.32076 0.0
C2314 C 0.79393 0.67477 0.36106 0.0
C2315 C 0.85042 0.68236 0.36417 0.0
C2316 C 0.87016 0.69028 0.34483 0.0
C2317 C 0.83174 0.69083 0.32311 0.0
C2318 C 0.77243 0.66592 0.3808 0.0
C2319 C 0.92985 0.69858 0.3476 0.0
H2320 H 0.89096 0.6964 0.44422 0.0
H2321 H 0.02694 0.67006 0.4145 0.0
H2322 H 0.81568 0.70469 0.38969 0.0
H2323 H 0.76178 0.69286 0.40039 0.0
H2324 H 0.79711 0.70345 0.42213 0.0
H2325 H 0.00751 0.66005 0.37692 0.0
H2326 H 0.92362 0.66045 0.36455 0.0
H2327 H 0.98401 0.67139 0.35462 0.0
H2328 H 0.71019 0.67044 0.33769 0.0
H2329 H 0.84476 0.69722 0.30868 0.0
H2330 H 0.75402 0.67097 0.39712 0.0
H2331 H 0.81562 0.66033 0.38688 0.0
H2332 H 0.73192 0.65977 0.37435 0.0
H2333 H 0.92105 0.70497 0.36307 0.0
H2334 H 0.93977 0.70392 0.33062 0.0
H2335 H 0.9753 0.69324 0.35215 0.0
C2336 C 0.46222 0.57335 0.33427 0.0
C2337 C 0.4547 0.56239 0.32151 0.0
C2338 C 0.42858 0.57536 0.35666 0.0
C2339 C 0.38725 0.56609 0.3665 0.0
C2340 C 0.37714 0.55524 0.35293 0.0
C2341 C 0.41151 0.55349 0.33066 0.0
C2342 C 0.44072 0.58705 0.3704 0.0
C2343 C 0.33262 0.54521 0.36252 0.0
C2344 C 0.35029 0.56126 0.43445 0.0
C2345 C 0.28273 0.56458 0.43529 0.0
C2346 C 0.38718 0.5626 0.41248 0.0
C2347 C 0.35541 0.56742 0.39119 0.0
C2348 C 0.28917 0.57187 0.39289 0.0
C2349 C 0.2535 0.57029 0.41487 0.0
C2350 C 0.45821 0.55795 0.41146 0.0
C2351 C 0.25381 0.57731 0.37091 0.0
H2352 H 0.49738 0.58007 0.32745 0.0
H2353 H 0.40741 0.5449 0.32104 0.0
H2354 H 0.39385 0.59049 0.37891 0.0
H2355 H 0.47717 0.58539 0.38547 0.0
H2356 H 0.46152 0.5942 0.35815 0.0
H2357 H 0.32773 0.5376 0.3492 0.0
H2358 H 0.35347 0.54159 0.38 0.0
H2359 H 0.28186 0.5488 0.3666 0.0
H2360 H 0.37256 0.55673 0.4502 0.0
H2361 H 0.20105 0.57284 0.41558 0.0
H2362 H 0.4913 0.56465 0.40226 0.0
H2363 H 0.45975 0.54948 0.40041 0.0
H2364 H 0.47845 0.55597 0.43011 0.0
H2365 H 0.28692 0.58383 0.3612 0.0
H2366 H 0.20685 0.58204 0.37627 0.0
H2367 H 0.24095 0.56999 0.35768 0.0
C2368 C 0.05697 0.42923 0.17649 0.0
C2369 C 0.99072 0.43341 0.17524 0.0
C2370 C 0.09725 0.42875 0.15517 0.0
C2371 C 0.07073 0.43265 0.13222 0.0
C2372 C 0.00347 0.4366 0.13085 0.0
C2373 C 0.96438 0.43687 0.15228 0.0
C2374 C 0.16864 0.42435 0.15727 0.0
C2375 C 0.97341 0.44102 0.10692 0.0
C2376 C 0.19222 0.44557 0.08529 0.0
C2377 C 0.19646 0.43619 0.06798 0.0
C2378 C 0.15098 0.44456 0.10608 0.0
C2379 C 0.11451 0.43371 0.11006 0.0
C2380 C 0.11823 0.4242 0.09248 0.0
C2381 C 0.15876 0.42561 0.0714 0.0
C2382 C 0.14707 0.45506 0.12391 0.0
C2383 C 0.08106 0.41243 0.09634 0.0
H2384 H 0.0775 0.42647 0.19411 0.0
H2385 H 0.91315 0.44008 0.15102 0.0
H2386 H 0.17879 0.41729 0.14318 0.0
H2387 H 0.20358 0.43199 0.15371 0.0
H2388 H 0.17973 0.42055 0.17579 0.0
H2389 H 0.91922 0.44317 0.10869 0.0
H2390 H 7e-05 0.44932 0.10072 0.0
H2391 H 0.97967 0.43408 0.09231 0.0
H2392 H 0.22211 0.45369 0.08269 0.0
H2393 H 0.16356 0.41824 0.05828 0.0
H2394 H 0.16533 0.45218 0.14231 0.0
H2395 H 0.09421 0.458 0.12613 0.0
H2396 H 0.17721 0.46298 0.11774 0.0
H2397 H 0.09782 0.40813 0.11379 0.0
H2398 H 0.08918 0.40592 0.08099 0.0
H2399 H 0.02653 0.41418 0.09813 0.0
C2400 C 0.68718 0.31011 0.18876 0.0
C2401 C 0.73243 0.30045 0.1907 0.0
C2402 C 0.64625 0.31133 0.16775 0.0
C2403 C 0.64994 0.30253 0.14871 0.0
C2404 C 0.69405 0.29255 0.15117 0.0
C2405 C 0.73536 0.29174 0.17196 0.0
C2406 C 0.60054 0.32219 0.16559 0.0
C2407 C 0.69814 0.28276 0.13173 0.0
C2408 C 0.50227 0.29784 0.10598 0.0
C2409 C 0.52521 0.30296 0.08381 0.0
C2410 C 0.54181 0.29788 0.12726 0.0
C2411 C 0.60581 0.30335 0.12663 0.0
C2412 C 0.62903 0.30876 0.10446 0.0
C2413 C 0.58863 0.30839 0.08315 0.0
C2414 C 0.51574 0.29172 0.15024 0.0
C2415 C 0.69671 0.31484 0.10323 0.0
H2416 H 0.68625 0.317 0.20301 0.0
H2417 H 0.77091 0.28433 0.17345 0.0
H2418 H 0.61316 0.32741 0.14872 0.0
H2419 H 0.54776 0.31916 0.16373 0.0
H2420 H 0.60439 0.32832 0.18178 0.0
H2421 H 0.73386 0.27544 0.13679 0.0
H2422 H 0.64797 0.27866 0.12881 0.0
H2423 H 0.7142 0.28675 0.11391 0.0
H2424 H 0.45343 0.29354 0.10664 0.0
H2425 H 0.60631 0.31242 0.06613 0.0
H2426 H 0.51608 0.29814 0.16597 0.0
H2427 H 0.54899 0.28403 0.15521 0.0
H2428 H 0.46396 0.28819 0.14788 0.0
H2429 H 0.70142 0.32163 0.11823 0.0
H2430 H 0.70526 0.31943 0.08528 0.0
H2431 H 0.7368 0.308 0.10602 0.0
C2432 C 0.95852 0.30479 0.60943 0.0
C2433 C 0.99245 0.30561 0.58679 0.0
C2434 C 0.99295 0.30537 0.63189 0.0
C2435 C 0.06331 0.3068 0.63185 0.0
C2436 C 0.09766 0.30824 0.60912 0.0
C2437 C 0.06174 0.30764 0.58679 0.0
C2438 C 0.9543 0.30381 0.65563 0.0
C2439 C 0.17273 0.30985 0.60835 0.0
C2440 C 0.1557 0.3137 0.69187 0.0
C2441 C 0.18023 0.30218 0.69795 0.0
C2442 C 0.11643 0.31539 0.67055 0.0
C2443 C 0.1014 0.30529 0.65528 0.0
C2444 C 0.12344 0.29357 0.66222 0.0
C2445 C 0.16309 0.2922 0.68332 0.0
C2446 C 0.09404 0.32802 0.6637 0.0
C2447 C 0.1076 0.28252 0.6468 0.0
H2448 H 0.90474 0.30339 0.60968 0.0
H2449 H 0.08815 0.30837 0.5694 0.0
H2450 H 0.96735 0.29495 0.66411 0.0
H2451 H 0.96807 0.311 0.669 0.0
H2452 H 0.89922 0.30408 0.65267 0.0
H2453 H 0.19098 0.31213 0.58956 0.0
H2454 H 0.18837 0.31714 0.62122 0.0
H2455 H 0.19748 0.30135 0.61444 0.0
H2456 H 0.1707 0.32145 0.70285 0.0
H2457 H 0.18319 0.28333 0.6879 0.0
H2458 H 0.0395 0.32814 0.65974 0.0
H2459 H 0.12021 0.33094 0.64666 0.0
H2460 H 0.10487 0.33471 0.67849 0.0
H2461 H 0.0527 0.28175 0.64397 0.0
H2462 H 0.1259 0.27399 0.65541 0.0
H2463 H 0.1311 0.28344 0.62836 0.0
C2464 C 0.51871 0.44262 0.66087 0.0
C2465 C 0.53281 0.43524 0.68129 0.0
C2466 C 0.55971 0.44255 0.63995 0.0
C2467 C 0.61585 0.43474 0.63916 0.0
C2468 C 0.63084 0.4273 0.65981 0.0
C2469 C 0.58936 0.42772 0.68082 0.0
C2470 C 0.54288 0.45087 0.61869 0.0
C2471 C 0.69 0.41877 0.6595 0.0
C2472 C 0.68634 0.42838 0.57508 0.0
C2473 C 0.74122 0.43629 0.5745 0.0
C2474 C 0.64598 0.42749 0.59632 0.0
C2475 C 0.66028 0.43488 0.6171 0.0
C2476 C 0.71501 0.44302 0.61629 0.0
C2477 C 0.75503 0.44353 0.59513 0.0
C2478 C 0.58846 0.4186 0.59665 0.0
C2479 C 0.73102 0.45129 0.63771 0.0
H2480 H 0.47508 0.44849 0.66123 0.0
H2481 H 0.59977 0.4219 0.69646 0.0
H2482 H 0.58563 0.45704 0.61494 0.0
H2483 H 0.53416 0.44547 0.60175 0.0
H2484 H 0.49761 0.45646 0.62234 0.0
H2485 H 0.69383 0.41335 0.67671 0.0
H2486 H 0.68578 0.41247 0.64363 0.0
H2487 H 0.73709 0.42398 0.65706 0.0
H2488 H 0.67627 0.42264 0.55928 0.0
H2489 H 0.79744 0.44969 0.59471 0.0
H2490 H 0.54041 0.42354 0.59892 0.0
H2491 H 0.59357 0.41238 0.61262 0.0
H2492 H 0.58587 0.41312 0.57951 0.0
H2493 H 0.68767 0.45731 0.64153 0.0
H2494 H 0.77576 0.45704 0.63418 0.0
H2495 H 0.74013 0.44585 0.65458 0.0
loop_
_geom_bond_atom_site_label_1
_geom_bond_atom_site_label_2
_geom_bond_distance
_geom_bond_site_symmetry_2
_ccdc_geom_bond_type
Co0 O1 2.216 . S
Co0 O2 2.091 1_455 S
Co0 O4 2.004 . S
Co0 O10 2.021 . S
Co0 O12 2.137 . S
Co0 O13 2.244 . S
O1 Co0 2.216 . S
O1 C8 1.247 1_455 S
O2 Co0 2.091 1_655 S
O2 C8 1.261 . S
C3 O12 1.247 . S
C3 O13 1.272 . S
O4 Co0 2.004 . S
O4 C9 1.259 . S
Co5 O6 2.061 . S
Co5 O11 2.052 . S
Co5 O13 2.135 . S
O6 Co5 2.061 . S
O6 C9 1.235 . S
C7 O10 1.238 . S
C7 O11 1.241 . S
C8 O1 1.247 1_655 S
C8 O2 1.261 . S
C9 O4 1.259 . S
C9 O6 1.235 . S
O10 Co0 2.021 . S
O10 C7 1.238 . S
O11 Co5 2.052 . S
O11 C7 1.241 . S
O12 Co0 2.137 . S
O12 C3 1.247 . S
O13 Co0 2.244 . S
O13 C3 1.272 . S
O13 Co5 2.135 . S
Co14 O15 2.216 . S
Co14 O16 2.091 . S
Co14 O18 2.004 . S
Co14 O24 2.021 . S
Co14 O26 2.137 . S
Co14 O27 2.244 . S
O15 Co14 2.216 . S
O15 C22 1.247 . S
O16 Co14 2.091 . S
O16 C22 1.261 . S
C17 O26 1.247 . S
C17 O27 1.272 . S
O18 Co14 2.004 . S
O18 C23 1.259 . S
Co19 O20 2.061 . S
Co19 O25 2.052 . S
Co19 O27 2.135 . S
O20 Co19 2.061 . S
O20 C23 1.235 . S
C21 O24 1.238 . S
C21 O25 1.241 . S
C22 O15 1.247 . S
C22 O16 1.261 . S
C23 O18 1.259 . S
C23 O20 1.235 . S
O24 Co14 2.021 . S
O24 C21 1.238 . S
O25 Co19 2.052 . S
O25 C21 1.241 . S
O26 Co14 2.137 . S
O26 C17 1.247 . S
O27 Co14 2.244 . S
O27 C17 1.272 . S
O27 Co19 2.135 . S
Co28 O29 2.216 . S
Co28 O30 2.091 1_455 S
Co28 O32 2.004 1_556 S
Co28 O38 2.021 . S
Co28 O40 2.137 . S
Co28 O41 2.244 . S
O29 Co28 2.216 . S
O29 C36 1.247 1_455 S
O30 Co28 2.091 1_655 S
O30 C36 1.261 . S
C31 O40 1.247 . S
C31 O41 1.272 . S
O32 Co28 2.004 1_554 S
O32 C37 1.259 . S
Co33 O34 2.061 . S
Co33 O39 2.052 1_554 S
Co33 O41 2.135 1_554 S
O34 Co33 2.061 . S
O34 C37 1.235 . S
C35 O38 1.238 . S
C35 O39 1.241 . S
C36 O29 1.247 1_655 S
C36 O30 1.261 . S
C37 O32 1.259 . S
C37 O34 1.235 . S
O38 Co28 2.021 . S
O38 C35 1.238 . S
O39 Co33 2.052 1_556 S
O39 C35 1.241 . S
O40 Co28 2.137 . S
O40 C31 1.247 . S
O41 Co28 2.244 . S
O41 C31 1.272 . S
O41 Co33 2.135 1_556 S
Co42 O43 2.216 . S
Co42 O44 2.091 . S
Co42 O46 2.004 1_556 S
Co42 O52 2.021 . S
Co42 O54 2.137 . S
Co42 O55 2.244 . S
O43 Co42 2.216 . S
O43 C50 1.247 . S
O44 Co42 2.091 . S
O44 C50 1.261 . S
C45 O54 1.247 . S
C45 O55 1.272 . S
O46 Co42 2.004 1_554 S
O46 C51 1.259 . S
Co47 O48 2.061 . S
Co47 O53 2.052 1_554 S
Co47 O55 2.135 1_554 S
O48 Co47 2.061 . S
O48 C51 1.235 . S
C49 O52 1.238 . S
C49 O53 1.241 . S
C50 O43 1.247 . S
C50 O44 1.261 . S
C51 O46 1.259 . S
C51 O48 1.235 . S
O52 Co42 2.021 . S
O52 C49 1.238 . S
O53 Co47 2.052 1_556 S
O53 C49 1.241 . S
O54 Co42 2.137 . S
O54 C45 1.247 . S
O55 Co42 2.244 . S
O55 C45 1.272 . S
O55 Co47 2.135 1_556 S
Co56 O57 2.216 . S
Co56 O58 2.091 1_655 S
Co56 O60 2.004 . S
Co56 O66 2.021 . S
Co56 O68 2.137 . S
Co56 O69 2.244 . S
O57 Co56 2.216 . S
O57 C64 1.247 1_655 S
O58 Co56 2.091 1_455 S
O58 C64 1.261 . S
C59 O68 1.247 . S
C59 O69 1.272 . S
O60 Co56 2.004 . S
O60 C65 1.259 . S
Co61 O62 2.061 . S
Co61 O67 2.052 . S
Co61 O69 2.135 . S
O62 Co61 2.061 . S
O62 C65 1.235 . S
C63 O66 1.238 . S
C63 O67 1.241 . S
C64 O57 1.247 1_455 S
C64 O58 1.261 . S
C65 O60 1.259 . S
C65 O62 1.235 . S
O66 Co56 2.021 . S
O66 C63 1.238 . S
O67 Co61 2.052 . S
O67 C63 1.241 . S
O68 Co56 2.137 . S
O68 C59 1.247 . S
O69 Co56 2.244 . S
O69 C59 1.272 . S
O69 Co61 2.135 . S
Co70 O71 2.216 . S
Co70 O72 2.091 . S
Co70 O74 2.004 . S
Co70 O80 2.021 . S
Co70 O82 2.137 . S
Co70 O83 2.244 . S
O71 Co70 2.216 . S
O71 C78 1.247 . S
O72 Co70 2.091 . S
O72 C78 1.261 . S
C73 O82 1.247 . S
C73 O83 1.272 . S
O74 Co70 2.004 . S
O74 C79 1.259 . S
Co75 O76 2.061 . S
Co75 O81 2.052 . S
Co75 O83 2.135 . S
O76 Co75 2.061 . S
O76 C79 1.235 . S
C77 O80 1.238 . S
C77 O81 1.241 . S
C78 O71 1.247 . S
C78 O72 1.261 . S
C79 O74 1.259 . S
C79 O76 1.235 . S
O80 Co70 2.021 . S
O80 C77 1.238 . S
O81 Co75 2.052 . S
O81 C77 1.241 . S
O82 Co70 2.137 . S
O82 C73 1.247 . S
O83 Co70 2.244 . S
O83 C73 1.272 . S
O83 Co75 2.135 . S
Co84 O85 2.216 . S
Co84 O86 2.091 1_655 S
Co84 O88 2.004 1_554 S
Co84 O94 2.021 . S
Co84 O96 2.137 . S
Co84 O97 2.244 . S
O85 Co84 2.216 . S
O85 C92 1.247 1_655 S
O86 Co84 2.091 1_455 S
O86 C92 1.261 . S
C87 O96 1.247 . S
C87 O97 1.272 . S
O88 Co84 2.004 1_556 S
O88 C93 1.259 . S
Co89 O90 2.061 . S
Co89 O95 2.052 1_556 S
Co89 O97 2.135 1_556 S
O90 Co89 2.061 . S
O90 C93 1.235 . S
C91 O94 1.238 . S
C91 O95 1.241 . S
C92 O85 1.247 1_455 S
C92 O86 1.261 . S
C93 O88 1.259 . S
C93 O90 1.235 . S
O94 Co84 2.021 . S
O94 C91 1.238 . S
O95 Co89 2.052 1_554 S
O95 C91 1.241 . S
O96 Co84 2.137 . S
O96 C87 1.247 . S
O97 Co84 2.244 . S
O97 C87 1.272 . S
O97 Co89 2.135 1_554 S
Co98 O99 2.216 . S
Co98 O100 2.091 . S
Co98 O102 2.004 1_554 S
Co98 O108 2.021 . S
Co98 O110 2.137 . S
Co98 O111 2.244 . S
O99 Co98 2.216 . S
O99 C106 1.247 . S
O100 Co98 2.091 . S
O100 C106 1.261 . S
C101 O110 1.247 . S
C101 O111 1.272 . S
O102 Co98 2.004 1_556 S
O102 C107 1.259 . S
Co103 O104 2.061 . S
Co103 O109 2.052 1_556 S
Co103 O111 2.135 1_556 S
O104 Co103 2.061 . S
O104 C107 1.235 . S
C105 O108 1.238 . S
C105 O109 1.241 . S
C106 O99 1.247 . S
C106 O100 1.261 . S
C107 O102 1.259 . S
C107 O104 1.235 . S
O108 Co98 2.021 . S
O108 C105 1.238 . S
O109 Co103 2.052 1_554 S
O109 C105 1.241 . S
O110 Co98 2.137 . S
O110 C101 1.247 . S
O111 Co98 2.244 . S
O111 C101 1.272 . S
O111 Co103 2.135 1_554 S
Co112 O113 2.216 . S
Co112 O114 2.091 1_455 S
Co112 O116 2.004 . S
Co112 O122 2.021 . S
Co112 O124 2.137 . S
Co112 O125 2.244 . S
O113 Co112 2.216 . S
O113 C120 1.247 1_455 S
O114 Co112 2.091 1_655 S
O114 C120 1.261 . S
C115 O124 1.247 . S
C115 O125 1.272 . S
O116 Co112 2.004 . S
O116 C121 1.259 . S
Co117 O118 2.061 . S
Co117 O123 2.052 . S
Co117 O125 2.135 . S
O118 Co117 2.061 . S
O118 C121 1.235 . S
C119 O122 1.238 . S
C119 O123 1.241 . S
C120 O113 1.247 1_655 S
C120 O114 1.261 . S
C121 O116 1.259 . S
C121 O118 1.235 . S
O122 Co112 2.021 . S
O122 C119 1.238 . S
O123 Co117 2.052 . S
O123 C119 1.241 . S
O124 Co112 2.137 . S
O124 C115 1.247 . S
O125 Co112 2.244 . S
O125 C115 1.272 . S
O125 Co117 2.135 . S
Co126 O127 2.216 . S
Co126 O128 2.091 . S
Co126 O130 2.004 . S
Co126 O136 2.021 . S
Co126 O138 2.137 . S
Co126 O139 2.244 . S
O127 Co126 2.216 . S
O127 C134 1.247 . S
O128 Co126 2.091 . S
O128 C134 1.261 . S
C129 O138 1.247 . S
C129 O139 1.272 . S
O130 Co126 2.004 . S
O130 C135 1.259 . S
Co131 O132 2.061 . S
Co131 O137 2.052 . S
Co131 O139 2.135 . S
O132 Co131 2.061 . S
O132 C135 1.235 . S
C133 O136 1.238 . S
C133 O137 1.241 . S
C134 O127 1.247 . S
C134 O128 1.261 . S
C135 O130 1.259 . S
C135 O132 1.235 . S
O136 Co126 2.021 . S
O136 C133 1.238 . S
O137 Co131 2.052 . S
O137 C133 1.241 . S
O138 Co126 2.137 . S
O138 C129 1.247 . S
O139 Co126 2.244 . S
O139 C129 1.272 . S
O139 Co131 2.135 . S
Co140 O141 2.216 . S
Co140 O142 2.091 1_455 S
Co140 O144 2.004 . S
Co140 O150 2.021 . S
Co140 O152 2.137 . S
Co140 O153 2.244 . S
O141 Co140 2.216 . S
O141 C148 1.247 1_455 S
O142 Co140 2.091 1_655 S
O142 C148 1.261 . S
C143 O152 1.247 . S
C143 O153 1.272 . S
O144 Co140 2.004 . S
O144 C149 1.259 . S
Co145 O146 2.061 . S
Co145 O151 2.052 . S
Co145 O153 2.135 . S
O146 Co145 2.061 . S
O146 C149 1.235 . S
C147 O150 1.238 . S
C147 O151 1.241 . S
C148 O141 1.247 1_655 S
C148 O142 1.261 . S
C149 O144 1.259 . S
C149 O146 1.235 . S
O150 Co140 2.021 . S
O150 C147 1.238 . S
O151 Co145 2.052 . S
O151 C147 1.241 . S
O152 Co140 2.137 . S
O152 C143 1.247 . S
O153 Co140 2.244 . S
O153 C143 1.272 . S
O153 Co145 2.135 . S
Co154 O155 2.216 . S
Co154 O156 2.091 . S
Co154 O158 2.004 . S
Co154 O164 2.021 . S
Co154 O166 2.137 . S
Co154 O167 2.244 . S
O155 Co154 2.216 . S
O155 C162 1.247 . S
O156 Co154 2.091 . S
O156 C162 1.261 . S
C157 O166 1.247 . S
C157 O167 1.272 . S
O158 Co154 2.004 . S
O158 C163 1.259 . S
Co159 O160 2.061 . S
Co159 O165 2.052 . S
Co159 O167 2.135 . S
O160 Co159 2.061 . S
O160 C163 1.235 . S
C161 O164 1.238 . S
C161 O165 1.241 . S
C162 O155 1.247 . S
C162 O156 1.261 . S
C163 O158 1.259 . S
C163 O160 1.235 . S
O164 Co154 2.021 . S
O164 C161 1.238 . S
O165 Co159 2.052 . S
O165 C161 1.241 . S
O166 Co154 2.137 . S
O166 C157 1.247 . S
O167 Co154 2.244 . S
O167 C157 1.272 . S
O167 Co159 2.135 . S
Co168 O169 2.216 . S
Co168 O170 2.091 1_655 S
Co168 O172 2.004 . S
Co168 O178 2.021 . S
Co168 O180 2.137 . S
Co168 O181 2.244 . S
O169 Co168 2.216 . S
O169 C176 1.247 1_655 S
O170 Co168 2.091 1_455 S
O170 C176 1.261 . S
C171 O180 1.247 . S
C171 O181 1.272 . S
O172 Co168 2.004 . S
O172 C177 1.259 . S
Co173 O174 2.061 . S
Co173 O179 2.052 . S
Co173 O181 2.135 . S
O174 Co173 2.061 . S
O174 C177 1.235 . S
C175 O178 1.238 . S
C175 O179 1.241 . S
C176 O169 1.247 1_455 S
C176 O170 1.261 . S
C177 O172 1.259 . S
C177 O174 1.235 . S
O178 Co168 2.021 . S
O178 C175 1.238 . S
O179 Co173 2.052 . S
O179 C175 1.241 . S
O180 Co168 2.137 . S
O180 C171 1.247 . S
O181 Co168 2.244 . S
O181 C171 1.272 . S
O181 Co173 2.135 . S
Co182 O183 2.216 . S
Co182 O184 2.091 . S
Co182 O186 2.004 . S
Co182 O192 2.021 . S
Co182 O194 2.137 . S
Co182 O195 2.244 . S
O183 Co182 2.216 . S
O183 C190 1.247 . S
O184 Co182 2.091 . S
O184 C190 1.261 . S
C185 O194 1.247 . S
C185 O195 1.272 . S
O186 Co182 2.004 . S
O186 C191 1.259 . S
Co187 O188 2.061 . S
Co187 O193 2.052 . S
Co187 O195 2.135 . S
O188 Co187 2.061 . S
O188 C191 1.235 . S
C189 O192 1.238 . S
C189 O193 1.241 . S
C190 O183 1.247 . S
C190 O184 1.261 . S
C191 O186 1.259 . S
C191 O188 1.235 . S
O192 Co182 2.021 . S
O192 C189 1.238 . S
O193 Co187 2.052 . S
O193 C189 1.241 . S
O194 Co182 2.137 . S
O194 C185 1.247 . S
O195 Co182 2.244 . S
O195 C185 1.272 . S
O195 Co187 2.135 . S
Co196 O197 2.216 . S
Co196 O198 2.091 1_655 S
Co196 O200 2.004 . S
Co196 O206 2.021 . S
Co196 O208 2.137 . S
Co196 O209 2.244 . S
O197 Co196 2.216 . S
O197 C204 1.247 1_655 S
O198 Co196 2.091 1_455 S
O198 C204 1.261 . S
C199 O208 1.247 . S
C199 O209 1.272 . S
O200 Co196 2.004 . S
O200 C205 1.259 . S
Co201 O202 2.061 . S
Co201 O207 2.052 . S
Co201 O209 2.135 . S
O202 Co201 2.061 . S
O202 C205 1.235 . S
C203 O206 1.238 . S
C203 O207 1.241 . S
C204 O197 1.247 1_455 S
C204 O198 1.261 . S
C205 O200 1.259 . S
C205 O202 1.235 . S
O206 Co196 2.021 . S
O206 C203 1.238 . S
O207 Co201 2.052 . S
O207 C203 1.241 . S
O208 Co196 2.137 . S
O208 C199 1.247 . S
O209 Co196 2.244 . S
O209 C199 1.272 . S
O209 Co201 2.135 . S
Co210 O211 2.216 . S
Co210 O212 2.091 . S
Co210 O214 2.004 . S
Co210 O220 2.021 . S
Co210 O222 2.137 . S
Co210 O223 2.244 . S
O211 Co210 2.216 . S
O211 C218 1.247 . S
O212 Co210 2.091 . S
O212 C218 1.261 . S
C213 O222 1.247 . S
C213 O223 1.272 . S
O214 Co210 2.004 . S
O214 C219 1.259 . S
Co215 O216 2.061 . S
Co215 O221 2.052 . S
Co215 O223 2.135 . S
O216 Co215 2.061 . S
O216 C219 1.235 . S
C217 O220 1.238 . S
C217 O221 1.241 . S
C218 O211 1.247 . S
C218 O212 1.261 . S
C219 O214 1.259 . S
C219 O216 1.235 . S
O220 Co210 2.021 . S
O220 C217 1.238 . S
O221 Co215 2.052 . S
O221 C217 1.241 . S
O222 Co210 2.137 . S
O222 C213 1.247 . S
O223 Co210 2.244 . S
O223 C213 1.272 . S
O223 Co215 2.135 . S
Co224 O225 2.216 . S
Co224 O226 2.091 . S
Co224 O228 2.004 . S
Co224 O234 2.021 . S
Co224 O236 2.137 . S
Co224 O237 2.244 . S
O225 Co224 2.216 . S
O225 C232 1.247 . S
O226 Co224 2.091 . S
O226 C232 1.261 . S
C227 O236 1.247 . S
C227 O237 1.272 . S
O228 Co224 2.004 . S
O228 C233 1.259 . S
Co229 O230 2.061 . S
Co229 O235 2.052 . S
Co229 O237 2.135 . S
O230 Co229 2.061 . S
O230 C233 1.235 . S
C231 O234 1.238 . S
C231 O235 1.241 . S
C232 O225 1.247 . S
C232 O226 1.261 . S
C233 O228 1.259 . S
C233 O230 1.235 . S
O234 Co224 2.021 . S
O234 C231 1.238 . S
O235 Co229 2.052 . S
O235 C231 1.241 . S
O236 Co224 2.137 . S
O236 C227 1.247 . S
O237 Co224 2.244 . S
O237 C227 1.272 . S
O237 Co229 2.135 . S
Co238 O239 2.216 . S
Co238 O240 2.091 . S
Co238 O242 2.004 . S
Co238 O248 2.021 . S
Co238 O250 2.137 . S
Co238 O251 2.244 . S
O239 Co238 2.216 . S
O239 C246 1.247 . S
O240 Co238 2.091 . S
O240 C246 1.261 . S
C241 O250 1.247 . S
C241 O251 1.272 . S
O242 Co238 2.004 . S
O242 C247 1.259 . S
Co243 O244 2.061 . S
Co243 O249 2.052 . S
Co243 O251 2.135 . S
O244 Co243 2.061 . S
O244 C247 1.235 . S
C245 O248 1.238 . S
C245 O249 1.241 . S
C246 O239 1.247 . S
C246 O240 1.261 . S
C247 O242 1.259 . S
C247 O244 1.235 . S
O248 Co238 2.021 . S
O248 C245 1.238 . S
O249 Co243 2.052 . S
O249 C245 1.241 . S
O250 Co238 2.137 . S
O250 C241 1.247 . S
O251 Co238 2.244 . S
O251 C241 1.272 . S
O251 Co243 2.135 . S
Co252 O253 2.216 . S
Co252 O254 2.091 . S
Co252 O256 2.004 . S
Co252 O262 2.021 . S
Co252 O264 2.137 . S
Co252 O265 2.244 . S
O253 Co252 2.216 . S
O253 C260 1.247 . S
O254 Co252 2.091 . S
O254 C260 1.261 . S
C255 O264 1.247 . S
C255 O265 1.272 . S
O256 Co252 2.004 . S
O256 C261 1.259 . S
Co257 O258 2.061 . S
Co257 O263 2.052 . S
Co257 O265 2.135 . S
O258 Co257 2.061 . S
O258 C261 1.235 . S
C259 O262 1.238 . S
C259 O263 1.241 . S
C260 O253 1.247 . S
C260 O254 1.261 . S
C261 O256 1.259 . S
C261 O258 1.235 . S
O262 Co252 2.021 . S
O262 C259 1.238 . S
O263 Co257 2.052 . S
O263 C259 1.241 . S
O264 Co252 2.137 . S
O264 C255 1.247 . S
O265 Co252 2.244 . S
O265 C255 1.272 . S
O265 Co257 2.135 . S
Co266 O267 2.216 . S
Co266 O268 2.091 . S
Co266 O270 2.004 . S
Co266 O276 2.021 . S
Co266 O278 2.137 . S
Co266 O279 2.244 . S
O267 Co266 2.216 . S
O267 C274 1.247 . S
O268 Co266 2.091 . S
O268 C274 1.261 . S
C269 O278 1.247 . S
C269 O279 1.272 . S
O270 Co266 2.004 . S
O270 C275 1.259 . S
Co271 O272 2.061 . S
Co271 O277 2.052 . S
Co271 O279 2.135 . S
O272 Co271 2.061 . S
O272 C275 1.235 . S
C273 O276 1.238 . S
C273 O277 1.241 . S
C274 O267 1.247 . S
C274 O268 1.261 . S
C275 O270 1.259 . S
C275 O272 1.235 . S
O276 Co266 2.021 . S
O276 C273 1.238 . S
O277 Co271 2.052 . S
O277 C273 1.241 . S
O278 Co266 2.137 . S
O278 C269 1.247 . S
O279 Co266 2.244 . S
O279 C269 1.272 . S
O279 Co271 2.135 . S
Co280 O281 2.216 . S
Co280 O282 2.091 . S
Co280 O284 2.004 . S
Co280 O290 2.021 . S
Co280 O292 2.137 . S
Co280 O293 2.244 . S
O281 Co280 2.216 . S
O281 C288 1.247 . S
O282 Co280 2.091 . S
O282 C288 1.261 . S
C283 O292 1.247 . S
C283 O293 1.272 . S
O284 Co280 2.004 . S
O284 C289 1.259 . S
Co285 O286 2.061 . S
Co285 O291 2.052 . S
Co285 O293 2.135 . S
O286 Co285 2.061 . S
O286 C289 1.235 . S
C287 O290 1.238 . S
C287 O291 1.241 . S
C288 O281 1.247 . S
C288 O282 1.261 . S
C289 O284 1.259 . S
C289 O286 1.235 . S
O290 Co280 2.021 . S
O290 C287 1.238 . S
O291 Co285 2.052 . S
O291 C287 1.241 . S
O292 Co280 2.137 . S
O292 C283 1.247 . S
O293 Co280 2.244 . S
O293 C283 1.272 . S
O293 Co285 2.135 . S
Co294 O295 2.216 . S
Co294 O296 2.091 . S
Co294 O298 2.004 . S
Co294 O304 2.021 . S
Co294 O306 2.137 . S
Co294 O307 2.244 . S
O295 Co294 2.216 . S
O295 C302 1.247 . S
O296 Co294 2.091 . S
O296 C302 1.261 . S
C297 O306 1.247 . S
C297 O307 1.272 . S
O298 Co294 2.004 . S
O298 C303 1.259 . S
Co299 O300 2.061 . S
Co299 O305 2.052 . S
Co299 O307 2.135 . S
O300 Co299 2.061 . S
O300 C303 1.235 . S
C301 O304 1.238 . S
C301 O305 1.241 . S
C302 O295 1.247 . S
C302 O296 1.261 . S
C303 O298 1.259 . S
C303 O300 1.235 . S
O304 Co294 2.021 . S
O304 C301 1.238 . S
O305 Co299 2.052 . S
O305 C301 1.241 . S
O306 Co294 2.137 . S
O306 C297 1.247 . S
O307 Co294 2.244 . S
O307 C297 1.272 . S
O307 Co299 2.135 . S
Co308 O309 2.216 . S
Co308 O310 2.091 . S
Co308 O312 2.004 . S
Co308 O318 2.021 . S
Co308 O320 2.137 . S
Co308 O321 2.244 . S
O309 Co308 2.216 . S
O309 C316 1.247 . S
O310 Co308 2.091 . S
O310 C316 1.261 . S
C311 O320 1.247 . S
C311 O321 1.272 . S
O312 Co308 2.004 . S
O312 C317 1.259 . S
Co313 O314 2.061 . S
Co313 O319 2.052 . S
Co313 O321 2.135 . S
O314 Co313 2.061 . S
O314 C317 1.235 . S
C315 O318 1.238 . S
C315 O319 1.241 . S
C316 O309 1.247 . S
C316 O310 1.261 . S
C317 O312 1.259 . S
C317 O314 1.235 . S
O318 Co308 2.021 . S
O318 C315 1.238 . S
O319 Co313 2.052 . S
O319 C315 1.241 . S
O320 Co308 2.137 . S
O320 C311 1.247 . S
O321 Co308 2.244 . S
O321 C311 1.272 . S
O321 Co313 2.135 . S
Co322 O323 2.216 . S
Co322 O324 2.091 . S
Co322 O326 2.004 . S
Co322 O332 2.021 . S
Co322 O334 2.137 . S
Co322 O335 2.244 . S
O323 Co322 2.216 . S
O323 C330 1.247 . S
O324 Co322 2.091 . S
O324 C330 1.261 . S
C325 O334 1.247 . S
C325 O335 1.272 . S
O326 Co322 2.004 . S
O326 C331 1.259 . S
Co327 O328 2.061 . S
Co327 O333 2.052 . S
Co327 O335 2.135 . S
O328 Co327 2.061 . S
O328 C331 1.235 . S
C329 O332 1.238 . S
C329 O333 1.241 . S
C330 O323 1.247 . S
C330 O324 1.261 . S
C331 O326 1.259 . S
C331 O328 1.235 . S
O332 Co322 2.021 . S
O332 C329 1.238 . S
O333 Co327 2.052 . S
O333 C329 1.241 . S
O334 Co322 2.137 . S
O334 C325 1.247 . S
O335 Co322 2.244 . S
O335 C325 1.272 . S
O335 Co327 2.135 . S
Co336 O337 2.216 . S
Co336 O338 2.091 . S
Co336 O340 2.004 . S
Co336 O346 2.021 . S
Co336 O348 2.137 . S
Co336 O349 2.244 . S
O337 Co336 2.216 . S
O337 C344 1.247 . S
O338 Co336 2.091 . S
O338 C344 1.261 . S
C339 O348 1.247 . S
C339 O349 1.272 . S
O340 Co336 2.004 . S
O340 C345 1.259 . S
Co341 O342 2.061 . S
Co341 O347 2.052 . S
Co341 O349 2.135 . S
O342 Co341 2.061 . S
O342 C345 1.235 . S
C343 O346 1.238 . S
C343 O347 1.241 . S
C344 O337 1.247 . S
C344 O338 1.261 . S
C345 O340 1.259 . S
C345 O342 1.235 . S
O346 Co336 2.021 . S
O346 C343 1.238 . S
O347 Co341 2.052 . S
O347 C343 1.241 . S
O348 Co336 2.137 . S
O348 C339 1.247 . S
O349 Co336 2.244 . S
O349 C339 1.272 . S
O349 Co341 2.135 . S
Co350 O351 2.216 . S
Co350 O352 2.091 . S
Co350 O354 2.004 . S
Co350 O360 2.021 . S
Co350 O362 2.137 . S
Co350 O363 2.244 . S
O351 Co350 2.216 . S
O351 C358 1.247 . S
O352 Co350 2.091 . S
O352 C358 1.261 . S
C353 O362 1.247 . S
C353 O363 1.272 . S
O354 Co350 2.004 . S
O354 C359 1.259 . S
Co355 O356 2.061 . S
Co355 O361 2.052 . S
Co355 O363 2.135 . S
O356 Co355 2.061 . S
O356 C359 1.235 . S
C357 O360 1.238 . S
C357 O361 1.241 . S
C358 O351 1.247 . S
C358 O352 1.261 . S
C359 O354 1.259 . S
C359 O356 1.235 . S
O360 Co350 2.021 . S
O360 C357 1.238 . S
O361 Co355 2.052 . S
O361 C357 1.241 . S
O362 Co350 2.137 . S
O362 C353 1.247 . S
O363 Co350 2.244 . S
O363 C353 1.272 . S
O363 Co355 2.135 . S
Co364 O365 2.216 . S
Co364 O366 2.091 . S
Co364 O368 2.004 1_556 S
Co364 O374 2.021 . S
Co364 O376 2.137 . S
Co364 O377 2.244 . S
O365 Co364 2.216 . S
O365 C372 1.247 . S
O366 Co364 2.091 . S
O366 C372 1.261 . S
C367 O376 1.247 . S
C367 O377 1.272 . S
O368 Co364 2.004 1_554 S
O368 C373 1.259 . S
Co369 O370 2.061 . S
Co369 O375 2.052 1_554 S
Co369 O377 2.135 1_554 S
O370 Co369 2.061 . S
O370 C373 1.235 . S
C371 O374 1.238 . S
C371 O375 1.241 . S
C372 O365 1.247 . S
C372 O366 1.261 . S
C373 O368 1.259 . S
C373 O370 1.235 . S
O374 Co364 2.021 . S
O374 C371 1.238 . S
O375 Co369 2.052 1_556 S
O375 C371 1.241 . S
O376 Co364 2.137 . S
O376 C367 1.247 . S
O377 Co364 2.244 . S
O377 C367 1.272 . S
O377 Co369 2.135 1_556 S
Co378 O379 2.216 . S
Co378 O380 2.091 . S
Co378 O382 2.004 1_556 S
Co378 O388 2.021 . S
Co378 O390 2.137 . S
Co378 O391 2.244 . S
O379 Co378 2.216 . S
O379 C386 1.247 . S
O380 Co378 2.091 . S
O380 C386 1.261 . S
C381 O390 1.247 . S
C381 O391 1.272 . S
O382 Co378 2.004 1_554 S
O382 C387 1.259 . S
Co383 O384 2.061 . S
Co383 O389 2.052 1_554 S
Co383 O391 2.135 1_554 S
O384 Co383 2.061 . S
O384 C387 1.235 . S
C385 O388 1.238 . S
C385 O389 1.241 . S
C386 O379 1.247 . S
C386 O380 1.261 . S
C387 O382 1.259 . S
C387 O384 1.235 . S
O388 Co378 2.021 . S
O388 C385 1.238 . S
O389 Co383 2.052 1_556 S
O389 C385 1.241 . S
O390 Co378 2.137 . S
O390 C381 1.247 . S
O391 Co378 2.244 . S
O391 C381 1.272 . S
O391 Co383 2.135 1_556 S
Co392 O393 2.216 . S
Co392 O394 2.091 . S
Co392 O396 2.004 . S
Co392 O402 2.021 . S
Co392 O404 2.137 . S
Co392 O405 2.244 . S
O393 Co392 2.216 . S
O393 C400 1.247 . S
O394 Co392 2.091 . S
O394 C400 1.261 . S
C395 O404 1.247 . S
C395 O405 1.272 . S
O396 Co392 2.004 . S
O396 C401 1.259 . S
Co397 O398 2.061 . S
Co397 O403 2.052 . S
Co397 O405 2.135 . S
O398 Co397 2.061 . S
O398 C401 1.235 . S
C399 O402 1.238 . S
C399 O403 1.241 . S
C400 O393 1.247 . S
C400 O394 1.261 . S
C401 O396 1.259 . S
C401 O398 1.235 . S
O402 Co392 2.021 . S
O402 C399 1.238 . S
O403 Co397 2.052 . S
O403 C399 1.241 . S
O404 Co392 2.137 . S
O404 C395 1.247 . S
O405 Co392 2.244 . S
O405 C395 1.272 . S
O405 Co397 2.135 . S
Co406 O407 2.216 . S
Co406 O408 2.091 . S
Co406 O410 2.004 . S
Co406 O416 2.021 . S
Co406 O418 2.137 . S
Co406 O419 2.244 . S
O407 Co406 2.216 . S
O407 C414 1.247 . S
O408 Co406 2.091 . S
O408 C414 1.261 . S
C409 O418 1.247 . S
C409 O419 1.272 . S
O410 Co406 2.004 . S
O410 C415 1.259 . S
Co411 O412 2.061 . S
Co411 O417 2.052 . S
Co411 O419 2.135 . S
O412 Co411 2.061 . S
O412 C415 1.235 . S
C413 O416 1.238 . S
C413 O417 1.241 . S
C414 O407 1.247 . S
C414 O408 1.261 . S
C415 O410 1.259 . S
C415 O412 1.235 . S
O416 Co406 2.021 . S
O416 C413 1.238 . S
O417 Co411 2.052 . S
O417 C413 1.241 . S
O418 Co406 2.137 . S
O418 C409 1.247 . S
O419 Co406 2.244 . S
O419 C409 1.272 . S
O419 Co411 2.135 . S
Co420 O421 2.216 . S
Co420 O422 2.091 . S
Co420 O424 2.004 1_554 S
Co420 O430 2.021 . S
Co420 O432 2.137 . S
Co420 O433 2.244 . S
O421 Co420 2.216 . S
O421 C428 1.247 . S
O422 Co420 2.091 . S
O422 C428 1.261 . S
C423 O432 1.247 . S
C423 O433 1.272 . S
O424 Co420 2.004 1_556 S
O424 C429 1.259 . S
Co425 O426 2.061 . S
Co425 O431 2.052 1_556 S
Co425 O433 2.135 1_556 S
O426 Co425 2.061 . S
O426 C429 1.235 . S
C427 O430 1.238 . S
C427 O431 1.241 . S
C428 O421 1.247 . S
C428 O422 1.261 . S
C429 O424 1.259 . S
C429 O426 1.235 . S
O430 Co420 2.021 . S
O430 C427 1.238 . S
O431 Co425 2.052 1_554 S
O431 C427 1.241 . S
O432 Co420 2.137 . S
O432 C423 1.247 . S
O433 Co420 2.244 . S
O433 C423 1.272 . S
O433 Co425 2.135 1_554 S
Co434 O435 2.216 . S
Co434 O436 2.091 . S
Co434 O438 2.004 1_554 S
Co434 O444 2.021 . S
Co434 O446 2.137 . S
Co434 O447 2.244 . S
O435 Co434 2.216 . S
O435 C442 1.247 . S
O436 Co434 2.091 . S
O436 C442 1.261 . S
C437 O446 1.247 . S
C437 O447 1.272 . S
O438 Co434 2.004 1_556 S
O438 C443 1.259 . S
Co439 O440 2.061 . S
Co439 O445 2.052 1_556 S
Co439 O447 2.135 1_556 S
O440 Co439 2.061 . S
O440 C443 1.235 . S
C441 O444 1.238 . S
C441 O445 1.241 . S
C442 O435 1.247 . S
C442 O436 1.261 . S
C443 O438 1.259 . S
C443 O440 1.235 . S
O444 Co434 2.021 . S
O444 C441 1.238 . S
O445 Co439 2.052 1_554 S
O445 C441 1.241 . S
O446 Co434 2.137 . S
O446 C437 1.247 . S
O447 Co434 2.244 . S
O447 C437 1.272 . S
O447 Co439 2.135 1_554 S
C448 C449 1.391 . S
C448 C450 1.394 . S
C448 H464 0.931 . S
C449 C448 1.391 . S
C449 C453 1.376 . S
C450 C448 1.394 . S
C450 C451 1.369 . S
C450 C454 1.531 . S
C451 C450 1.369 . S
C451 C452 1.410 . S
C451 C459 1.503 . S
C452 C451 1.410 . S
C452 C453 1.392 . S
C452 C455 1.511 . S
C453 C449 1.376 . S
C453 C452 1.392 . S
C453 H465 0.929 . S
C454 C450 1.531 . S
C454 H466 0.960 . S
C454 H467 0.962 . S
C454 H468 0.960 . S
C455 C452 1.511 . S
C455 H469 0.961 . S
C455 H470 0.961 . S
C455 H471 0.961 . S
C456 C457 1.370 . S
C456 C458 1.363 . S
C456 H472 0.931 . S
C457 C456 1.370 . S
C457 C461 1.408 . S
C458 C456 1.363 . S
C458 C459 1.370 . S
C458 C462 1.524 . S
C459 C451 1.503 . S
C459 C458 1.370 . S
C459 C460 1.403 . S
C460 C459 1.403 . S
C460 C461 1.404 . S
C460 C463 1.539 . S
C461 C457 1.408 . S
C461 C460 1.404 . S
C461 H473 0.930 . S
C462 C458 1.524 . S
C462 H474 0.956 . S
C462 H475 0.961 . S
C462 H476 0.961 . S
C463 C460 1.539 . S
C463 H477 0.958 . S
C463 H478 0.961 . S
C463 H479 0.960 . S
H464 C448 0.931 . S
H465 C453 0.929 . S
H466 C454 0.960 . S
H467 C454 0.962 . S
H468 C454 0.960 . S
H469 C455 0.961 . S
H470 C455 0.961 . S
H471 C455 0.961 . S
H472 C456 0.931 . S
H473 C461 0.930 . S
H474 C462 0.956 . S
H475 C462 0.961 . S
H476 C462 0.961 . S
H477 C463 0.958 . S
H478 C463 0.961 . S
H479 C463 0.960 . S
C480 C481 1.391 . S
C480 C482 1.394 . S
C480 H496 0.931 1_455 S
C481 C480 1.391 . S
C481 C485 1.376 . S
C482 C480 1.394 . S
C482 C483 1.369 . S
C482 C486 1.531 1_455 S
C483 C482 1.369 . S
C483 C484 1.410 . S
C483 C491 1.503 . S
C484 C483 1.410 . S
C484 C485 1.392 . S
C484 C487 1.511 . S
C485 C481 1.376 . S
C485 C484 1.392 . S
C485 H497 0.929 . S
C486 C482 1.531 1_655 S
C486 H498 0.960 1_655 S
C486 H499 0.962 . S
C486 H500 0.960 . S
C487 C484 1.511 . S
C487 H501 0.961 . S
C487 H502 0.961 . S
C487 H503 0.961 . S
C488 C489 1.370 . S
C488 C490 1.363 . S
C488 H504 0.931 . S
C489 C488 1.370 . S
C489 C493 1.408 . S
C490 C488 1.363 . S
C490 C491 1.370 . S
C490 C494 1.524 . S
C491 C483 1.503 . S
C491 C490 1.370 . S
C491 C492 1.403 . S
C492 C491 1.403 . S
C492 C493 1.404 . S
C492 C495 1.539 . S
C493 C489 1.408 . S
C493 C492 1.404 . S
C493 H505 0.930 . S
C494 C490 1.524 . S
C494 H506 0.956 . S
C494 H507 0.961 . S
C494 H508 0.961 . S
C495 C492 1.539 . S
C495 H509 0.958 . S
C495 H510 0.961 . S
C495 H511 0.960 . S
H496 C480 0.931 1_655 S
H497 C485 0.929 . S
H498 C486 0.960 1_455 S
H499 C486 0.962 . S
H500 C486 0.960 . S
H501 C487 0.961 . S
H502 C487 0.961 . S
H503 C487 0.961 . S
H504 C488 0.931 . S
H505 C493 0.930 . S
H506 C494 0.956 . S
H507 C494 0.961 . S
H508 C494 0.961 . S
H509 C495 0.958 . S
H510 C495 0.961 . S
H511 C495 0.960 . S
C512 C513 1.391 . S
C512 C514 1.394 . S
C512 H528 0.931 . S
C513 C512 1.391 . S
C513 C517 1.376 . S
C514 C512 1.394 . S
C514 C515 1.369 . S
C514 C518 1.531 . S
C515 C514 1.369 . S
C515 C516 1.410 . S
C515 C523 1.503 . S
C516 C515 1.410 . S
C516 C517 1.392 . S
C516 C519 1.511 . S
C517 C513 1.376 . S
C517 C516 1.392 . S
C517 H529 0.929 . S
C518 C514 1.531 . S
C518 H530 0.960 . S
C518 H531 0.962 1_655 S
C518 H532 0.960 . S
C519 C516 1.511 . S
C519 H533 0.961 . S
C519 H534 0.961 . S
C519 H535 0.961 . S
C520 C521 1.370 . S
C520 C522 1.363 . S
C520 H536 0.931 . S
C521 C520 1.370 . S
C521 C525 1.408 . S
C522 C520 1.363 . S
C522 C523 1.370 . S
C522 C526 1.524 . S
C523 C515 1.503 . S
C523 C522 1.370 . S
C523 C524 1.403 . S
C524 C523 1.403 . S
C524 C525 1.404 . S
C524 C527 1.539 . S
C525 C521 1.408 . S
C525 C524 1.404 . S
C525 H537 0.930 . S
C526 C522 1.524 . S
C526 H538 0.956 . S
C526 H539 0.961 . S
C526 H540 0.961 . S
C527 C524 1.539 . S
C527 H541 0.958 . S
C527 H542 0.961 . S
C527 H543 0.960 . S
H528 C512 0.931 . S
H529 C517 0.929 . S
H530 C518 0.960 . S
H531 C518 0.962 1_455 S
H532 C518 0.960 . S
H533 C519 0.961 . S
H534 C519 0.961 . S
H535 C519 0.961 . S
H536 C520 0.931 . S
H537 C525 0.930 . S
H538 C526 0.956 . S
H539 C526 0.961 . S
H540 C526 0.961 . S
H541 C527 0.958 . S
H542 C527 0.961 . S
H543 C527 0.960 . S
C544 C545 1.391 . S
C544 C546 1.394 . S
C544 H560 0.931 1_655 S
C545 C544 1.391 . S
C545 C549 1.376 . S
C546 C544 1.394 . S
C546 C547 1.369 . S
C546 C550 1.531 1_655 S
C547 C546 1.369 . S
C547 C548 1.410 . S
C547 C555 1.503 . S
C548 C547 1.410 . S
C548 C549 1.392 . S
C548 C551 1.511 . S
C549 C545 1.376 . S
C549 C548 1.392 . S
C549 H561 0.929 . S
C550 C546 1.531 1_455 S
C550 H562 0.960 1_455 S
C550 H563 0.962 . S
C550 H564 0.960 . S
C551 C548 1.511 . S
C551 H565 0.961 . S
C551 H566 0.961 . S
C551 H567 0.961 . S
C552 C553 1.370 . S
C552 C554 1.363 . S
C552 H568 0.931 . S
C553 C552 1.370 . S
C553 C557 1.408 . S
C554 C552 1.363 . S
C554 C555 1.370 . S
C554 C558 1.524 . S
C555 C547 1.503 . S
C555 C554 1.370 . S
C555 C556 1.403 . S
C556 C555 1.403 . S
C556 C557 1.404 . S
C556 C559 1.539 . S
C557 C553 1.408 . S
C557 C556 1.404 . S
C557 H569 0.930 . S
C558 C554 1.524 . S
C558 H570 0.956 . S
C558 H571 0.961 . S
C558 H572 0.961 . S
C559 C556 1.539 . S
C559 H573 0.958 . S
C559 H574 0.961 . S
C559 H575 0.960 . S
H560 C544 0.931 1_455 S
H561 C549 0.929 . S
H562 C550 0.960 1_655 S
H563 C550 0.962 . S
H564 C550 0.960 . S
H565 C551 0.961 . S
H566 C551 0.961 . S
H567 C551 0.961 . S
H568 C552 0.931 . S
H569 C557 0.930 . S
H570 C558 0.956 . S
H571 C558 0.961 . S
H572 C558 0.961 . S
H573 C559 0.958 . S
H574 C559 0.961 . S
H575 C559 0.960 . S
C576 C577 1.391 . S
C576 C578 1.394 . S
C576 H592 0.941 . S
C577 C576 1.391 . S
C577 C581 1.376 . S
C578 C576 1.394 . S
C578 C579 1.369 . S
C578 C582 1.531 . S
C579 C578 1.369 . S
C579 C580 1.410 . S
C579 C587 1.503 . S
C580 C579 1.410 . S
C580 C581 1.392 . S
C580 C583 1.511 . S
C581 C577 1.376 . S
C581 C580 1.392 . S
C581 H593 0.929 . S
C582 C578 1.531 . S
C582 H594 0.960 . S
C582 H595 0.962 1_455 S
C582 H596 0.960 1_455 S
C583 C580 1.511 . S
C583 H597 0.961 . S
C583 H598 0.961 . S
C583 H599 0.961 . S
C584 C585 1.370 . S
C584 C586 1.363 . S
C584 H600 0.931 . S
C585 C584 1.370 . S
C585 C589 1.408 . S
C586 C584 1.363 . S
C586 C587 1.370 . S
C586 C590 1.524 . S
C587 C579 1.503 . S
C587 C586 1.370 . S
C587 C588 1.403 . S
C588 C587 1.403 . S
C588 C589 1.404 . S
C588 C591 1.539 . S
C589 C585 1.408 . S
C589 C588 1.404 . S
C589 H601 0.930 . S
C590 C586 1.524 . S
C590 H602 0.956 . S
C590 H603 0.961 . S
C590 H604 0.961 . S
C591 C588 1.539 . S
C591 H605 0.958 . S
C591 H606 0.961 . S
C591 H607 0.960 . S
H592 C576 0.941 . S
H593 C581 0.929 . S
H594 C582 0.960 . S
H595 C582 0.962 1_655 S
H596 C582 0.960 1_655 S
H597 C583 0.961 . S
H598 C583 0.961 . S
H599 C583 0.961 . S
H600 C584 0.931 . S
H601 C589 0.930 . S
H602 C590 0.956 . S
H603 C590 0.961 . S
H604 C590 0.961 . S
H605 C591 0.958 . S
H606 C591 0.961 . S
H607 C591 0.960 . S
C608 C609 1.391 . S
C608 C610 1.394 . S
C608 H624 0.931 . S
C609 C608 1.391 . S
C609 C613 1.376 . S
C610 C608 1.394 . S
C610 C611 1.369 . S
C610 C614 1.531 . S
C611 C610 1.369 . S
C611 C612 1.410 . S
C611 C619 1.503 . S
C612 C611 1.410 . S
C612 C613 1.392 . S
C612 C615 1.511 . S
C613 C609 1.376 . S
C613 C612 1.392 . S
C613 H625 0.929 . S
C614 C610 1.531 . S
C614 H626 0.960 . S
C614 H627 0.962 . S
C614 H628 0.960 . S
C615 C612 1.511 . S
C615 H629 0.961 1_455 S
C615 H630 0.961 . S
C615 H631 0.958 1_455 S
C616 C617 1.370 . S
C616 C618 1.363 . S
C616 H632 0.931 . S
C617 C616 1.370 . S
C617 C621 1.408 . S
C618 C616 1.363 . S
C618 C619 1.370 . S
C618 C622 1.524 . S
C619 C611 1.503 . S
C619 C618 1.370 . S
C619 C620 1.403 . S
C620 C619 1.403 . S
C620 C621 1.404 . S
C620 C623 1.539 . S
C621 C617 1.408 . S
C621 C620 1.404 . S
C621 H633 0.930 . S
C622 C618 1.524 . S
C622 H634 0.956 . S
C622 H635 0.961 . S
C622 H636 0.961 . S
C623 C620 1.539 . S
C623 H637 0.958 . S
C623 H638 0.961 . S
C623 H639 0.960 . S
H624 C608 0.931 . S
H625 C613 0.929 . S
H626 C614 0.960 . S
H627 C614 0.962 . S
H628 C614 0.960 . S
H629 C615 0.961 1_655 S
H630 C615 0.961 . S
H631 C615 0.958 1_655 S
H632 C616 0.931 . S
H633 C621 0.930 . S
H634 C622 0.956 . S
H635 C622 0.961 . S
H636 C622 0.961 . S
H637 C623 0.958 . S
H638 C623 0.961 . S
H639 C623 0.960 . S
C640 C641 1.391 . S
C640 C642 1.394 . S
C640 H656 0.931 . S
C641 C640 1.391 . S
C641 C645 1.376 . S
C642 C640 1.394 . S
C642 C643 1.369 . S
C642 C646 1.531 . S
C643 C642 1.369 . S
C643 C644 1.410 . S
C643 C651 1.503 . S
C644 C643 1.410 . S
C644 C645 1.392 . S
C644 C647 1.511 . S
C645 C641 1.376 . S
C645 C644 1.392 . S
C645 H657 0.929 . S
C646 C642 1.531 . S
C646 H658 0.960 . S
C646 H659 0.962 1_655 S
C646 H660 0.960 . S
C647 C644 1.511 . S
C647 H661 0.961 . S
C647 H662 0.961 . S
C647 H663 0.961 . S
C648 C649 1.370 . S
C648 C650 1.363 . S
C648 H664 0.931 . S
C649 C648 1.370 . S
C649 C653 1.408 . S
C650 C648 1.363 . S
C650 C651 1.370 . S
C650 C654 1.524 . S
C651 C643 1.503 . S
C651 C650 1.370 . S
C651 C652 1.403 . S
C652 C651 1.403 . S
C652 C653 1.404 . S
C652 C655 1.539 . S
C653 C649 1.408 . S
C653 C652 1.404 . S
C653 H665 0.930 . S
C654 C650 1.524 . S
C654 H666 0.956 . S
C654 H667 0.961 . S
C654 H668 0.961 . S
C655 C652 1.539 . S
C655 H669 0.958 . S
C655 H670 0.961 . S
C655 H671 0.960 . S
H656 C640 0.931 . S
H657 C645 0.929 . S
H658 C646 0.960 . S
H659 C646 0.962 1_455 S
H660 C646 0.960 . S
H661 C647 0.961 . S
H662 C647 0.961 . S
H663 C647 0.961 . S
H664 C648 0.931 . S
H665 C653 0.930 . S
H666 C654 0.956 . S
H667 C654 0.961 . S
H668 C654 0.961 . S
H669 C655 0.958 . S
H670 C655 0.961 . S
H671 C655 0.960 . S
C672 C673 1.391 . S
C672 C674 1.394 . S
C672 H688 0.931 . S
C673 C672 1.391 . S
C673 C677 1.376 . S
C674 C672 1.394 . S
C674 C675 1.369 . S
C674 C678 1.531 . S
C675 C674 1.369 . S
C675 C676 1.410 . S
C675 C683 1.503 . S
C676 C675 1.410 . S
C676 C677 1.392 . S
C676 C679 1.511 . S
C677 C673 1.376 . S
C677 C676 1.392 . S
C677 H689 0.929 . S
C678 C674 1.531 . S
C678 H690 0.960 . S
C678 H691 0.962 . S
C678 H692 0.960 . S
C679 C676 1.511 . S
C679 H693 0.961 . S
C679 H694 0.961 . S
C679 H695 0.961 . S
C680 C681 1.370 . S
C680 C682 1.363 . S
C680 H696 0.931 . S
C681 C680 1.370 . S
C681 C685 1.408 . S
C682 C680 1.363 . S
C682 C683 1.370 . S
C682 C686 1.524 . S
C683 C675 1.503 . S
C683 C682 1.370 . S
C683 C684 1.403 . S
C684 C683 1.403 . S
C684 C685 1.404 . S
C684 C687 1.539 . S
C685 C681 1.408 . S
C685 C684 1.404 . S
C685 H697 0.930 . S
C686 C682 1.524 . S
C686 H698 0.956 . S
C686 H699 0.961 . S
C686 H700 0.961 . S
C687 C684 1.539 . S
C687 H701 0.958 . S
C687 H702 0.961 . S
C687 H703 0.960 . S
H688 C672 0.931 . S
H689 C677 0.929 . S
H690 C678 0.960 . S
H691 C678 0.962 . S
H692 C678 0.960 . S
H693 C679 0.961 . S
H694 C679 0.961 . S
H695 C679 0.961 . S
H696 C680 0.931 . S
H697 C685 0.930 . S
H698 C686 0.956 . S
H699 C686 0.961 . S
H700 C686 0.961 . S
H701 C687 0.958 . S
H702 C687 0.961 . S
H703 C687 0.960 . S
C704 C705 1.391 . S
C704 C706 1.394 . S
C704 H720 0.931 . S
C705 C704 1.391 . S
C705 C709 1.376 . S
C706 C704 1.394 . S
C706 C707 1.369 . S
C706 C710 1.531 . S
C707 C706 1.369 . S
C707 C708 1.410 . S
C707 C715 1.503 . S
C708 C707 1.410 . S
C708 C709 1.392 . S
C708 C711 1.511 . S
C709 C705 1.376 . S
C709 C708 1.392 . S
C709 H721 0.929 . S
C710 C706 1.531 . S
C710 H722 0.960 . S
C710 H723 0.962 . S
C710 H724 0.960 . S
C711 C708 1.511 . S
C711 H725 0.961 . S
C711 H726 0.961 . S
C711 H727 0.961 . S
C712 C713 1.370 . S
C712 C714 1.363 . S
C712 H728 0.931 . S
C713 C712 1.370 . S
C713 C717 1.408 . S
C714 C712 1.363 . S
C714 C715 1.370 . S
C714 C718 1.524 . S
C715 C707 1.503 . S
C715 C714 1.370 . S
C715 C716 1.403 . S
C716 C715 1.403 . S
C716 C717 1.404 . S
C716 C719 1.539 . S
C717 C713 1.408 . S
C717 C716 1.404 . S
C717 H729 0.930 . S
C718 C714 1.524 . S
C718 H730 0.956 . S
C718 H731 0.961 . S
C718 H732 0.961 . S
C719 C716 1.539 . S
C719 H733 0.958 . S
C719 H734 0.961 . S
C719 H735 0.960 . S
H720 C704 0.931 . S
H721 C709 0.929 . S
H722 C710 0.960 . S
H723 C710 0.962 . S
H724 C710 0.960 . S
H725 C711 0.961 . S
H726 C711 0.961 . S
H727 C711 0.961 . S
H728 C712 0.931 . S
H729 C717 0.930 . S
H730 C718 0.956 . S
H731 C718 0.961 . S
H732 C718 0.961 . S
H733 C719 0.958 . S
H734 C719 0.961 . S
H735 C719 0.960 . S
C736 C737 1.391 . S
C736 C738 1.394 . S
C736 H752 0.931 . S
C737 C736 1.391 . S
C737 C741 1.376 . S
C738 C736 1.394 . S
C738 C739 1.369 . S
C738 C742 1.531 . S
C739 C738 1.369 . S
C739 C740 1.410 . S
C739 C747 1.503 . S
C740 C739 1.410 . S
C740 C741 1.392 . S
C740 C743 1.511 . S
C741 C737 1.376 . S
C741 C740 1.392 . S
C741 H753 0.929 . S
C742 C738 1.531 . S
C742 H754 0.960 . S
C742 H755 0.962 . S
C742 H756 0.960 . S
C743 C740 1.511 . S
C743 H757 0.961 . S
C743 H758 0.961 . S
C743 H759 0.961 . S
C744 C745 1.370 . S
C744 C746 1.363 . S
C744 H760 0.931 . S
C745 C744 1.370 . S
C745 C749 1.408 . S
C746 C744 1.363 . S
C746 C747 1.370 . S
C746 C750 1.524 . S
C747 C739 1.503 . S
C747 C746 1.370 . S
C747 C748 1.403 . S
C748 C747 1.403 . S
C748 C749 1.404 . S
C748 C751 1.539 . S
C749 C745 1.408 . S
C749 C748 1.404 . S
C749 H761 0.930 . S
C750 C746 1.524 . S
C750 H762 0.956 . S
C750 H763 0.961 . S
C750 H764 0.961 . S
C751 C748 1.539 . S
C751 H765 0.958 . S
C751 H766 0.961 . S
C751 H767 0.960 . S
H752 C736 0.931 . S
H753 C741 0.929 . S
H754 C742 0.960 . S
H755 C742 0.962 . S
H756 C742 0.960 . S
H757 C743 0.961 . S
H758 C743 0.961 . S
H759 C743 0.961 . S
H760 C744 0.931 . S
H761 C749 0.930 . S
H762 C750 0.956 . S
H763 C750 0.961 . S
H764 C750 0.961 . S
H765 C751 0.958 . S
H766 C751 0.961 . S
H767 C751 0.960 . S
C768 C769 1.391 . S
C768 C770 1.394 . S
C768 H784 0.931 . S
C769 C768 1.391 . S
C769 C773 1.376 . S
C770 C768 1.394 . S
C770 C771 1.369 . S
C770 C774 1.531 . S
C771 C770 1.369 . S
C771 C772 1.410 . S
C771 C779 1.503 . S
C772 C771 1.410 . S
C772 C773 1.392 . S
C772 C775 1.511 . S
C773 C769 1.376 . S
C773 C772 1.392 . S
C773 H785 0.929 . S
C774 C770 1.531 . S
C774 H786 0.960 . S
C774 H787 0.962 . S
C774 H788 0.960 . S
C775 C772 1.511 . S
C775 H789 0.961 . S
C775 H790 0.961 . S
C775 H791 0.961 . S
C776 C777 1.370 . S
C776 C778 1.363 . S
C776 H792 0.931 . S
C777 C776 1.370 . S
C777 C781 1.408 . S
C778 C776 1.363 . S
C778 C779 1.370 . S
C778 C782 1.524 . S
C779 C771 1.503 . S
C779 C778 1.370 . S
C779 C780 1.403 . S
C780 C779 1.403 . S
C780 C781 1.404 . S
C780 C783 1.539 . S
C781 C777 1.408 . S
C781 C780 1.404 . S
C781 H793 0.930 . S
C782 C778 1.524 . S
C782 H794 0.956 . S
C782 H795 0.961 . S
C782 H796 0.961 . S
C783 C780 1.539 . S
C783 H797 0.958 . S
C783 H798 0.961 . S
C783 H799 0.960 . S
H784 C768 0.931 . S
H785 C773 0.929 . S
H786 C774 0.960 . S
H787 C774 0.962 . S
H788 C774 0.960 . S
H789 C775 0.961 . S
H790 C775 0.961 . S
H791 C775 0.961 . S
H792 C776 0.931 . S
H793 C781 0.930 . S
H794 C782 0.956 . S
H795 C782 0.961 . S
H796 C782 0.961 . S
H797 C783 0.958 . S
H798 C783 0.961 . S
H799 C783 0.960 . S
C800 C801 1.391 . S
C800 C802 1.394 . S
C800 H816 0.931 . S
C801 C800 1.391 . S
C801 C805 1.376 . S
C802 C800 1.394 . S
C802 C803 1.369 . S
C802 C806 1.531 . S
C803 C802 1.369 . S
C803 C804 1.410 . S
C803 C811 1.503 . S
C804 C803 1.410 . S
C804 C805 1.392 . S
C804 C807 1.511 . S
C805 C801 1.376 . S
C805 C804 1.392 . S
C805 H817 0.929 . S
C806 C802 1.531 . S
C806 H818 0.960 . S
C806 H819 0.962 . S
C806 H820 0.960 . S
C807 C804 1.511 . S
C807 H821 0.961 . S
C807 H822 0.961 . S
C807 H823 0.961 . S
C808 C809 1.370 . S
C808 C810 1.363 . S
C808 H824 0.931 . S
C809 C808 1.370 . S
C809 C813 1.408 . S
C810 C808 1.363 . S
C810 C811 1.370 . S
C810 C814 1.524 . S
C811 C803 1.503 . S
C811 C810 1.370 . S
C811 C812 1.403 . S
C812 C811 1.403 . S
C812 C813 1.404 . S
C812 C815 1.539 . S
C813 C809 1.408 . S
C813 C812 1.404 . S
C813 H825 0.930 . S
C814 C810 1.524 . S
C814 H826 0.956 . S
C814 H827 0.961 . S
C814 H828 0.961 . S
C815 C812 1.539 . S
C815 H829 0.958 . S
C815 H830 0.961 . S
C815 H831 0.960 . S
H816 C800 0.931 . S
H817 C805 0.929 . S
H818 C806 0.960 . S
H819 C806 0.962 . S
H820 C806 0.960 . S
H821 C807 0.961 . S
H822 C807 0.961 . S
H823 C807 0.961 . S
H824 C808 0.931 . S
H825 C813 0.930 . S
H826 C814 0.956 . S
H827 C814 0.961 . S
H828 C814 0.961 . S
H829 C815 0.958 . S
H830 C815 0.961 . S
H831 C815 0.960 . S
C832 C833 1.391 . S
C832 C834 1.394 . S
C832 H848 0.931 . S
C833 C832 1.391 . S
C833 C837 1.376 . S
C834 C832 1.394 . S
C834 C835 1.369 . S
C834 C838 1.531 . S
C835 C834 1.369 . S
C835 C836 1.410 . S
C835 C843 1.503 . S
C836 C835 1.410 . S
C836 C837 1.392 . S
C836 C839 1.511 . S
C837 C833 1.376 . S
C837 C836 1.392 . S
C837 H849 0.929 . S
C838 C834 1.531 . S
C838 H850 0.960 . S
C838 H851 0.962 . S
C838 H852 0.960 . S
C839 C836 1.511 . S
C839 H853 0.961 . S
C839 H854 0.961 . S
C839 H855 0.961 . S
C840 C841 1.370 . S
C840 C842 1.363 . S
C840 H856 0.931 . S
C841 C840 1.370 . S
C841 C845 1.408 . S
C842 C840 1.363 . S
C842 C843 1.370 . S
C842 C846 1.524 . S
C843 C835 1.503 . S
C843 C842 1.370 . S
C843 C844 1.403 . S
C844 C843 1.403 . S
C844 C845 1.404 . S
C844 C847 1.539 . S
C845 C841 1.408 . S
C845 C844 1.404 . S
C845 H857 0.930 . S
C846 C842 1.524 . S
C846 H858 0.956 . S
C846 H859 0.961 . S
C846 H860 0.961 . S
C847 C844 1.539 . S
C847 H861 0.958 . S
C847 H862 0.961 . S
C847 H863 0.960 . S
H848 C832 0.931 . S
H849 C837 0.929 . S
H850 C838 0.960 . S
H851 C838 0.962 . S
H852 C838 0.960 . S
H853 C839 0.961 . S
H854 C839 0.961 . S
H855 C839 0.961 . S
H856 C840 0.931 . S
H857 C845 0.930 . S
H858 C846 0.956 . S
H859 C846 0.961 . S
H860 C846 0.961 . S
H861 C847 0.958 . S
H862 C847 0.961 . S
H863 C847 0.960 . S
C864 C865 1.391 . S
C864 C866 1.394 . S
C864 H880 0.931 . S
C865 C864 1.391 . S
C865 C869 1.376 . S
C866 C864 1.394 . S
C866 C867 1.369 . S
C866 C870 1.531 . S
C867 C866 1.369 . S
C867 C868 1.410 . S
C867 C875 1.503 . S
C868 C867 1.410 . S
C868 C869 1.392 . S
C868 C871 1.511 . S
C869 C865 1.376 . S
C869 C868 1.392 . S
C869 H881 0.929 . S
C870 C866 1.531 . S
C870 H882 0.960 . S
C870 H883 0.962 . S
C870 H884 0.960 . S
C871 C868 1.511 . S
C871 H885 0.961 . S
C871 H886 0.961 . S
C871 H887 0.961 . S
C872 C873 1.370 . S
C872 C874 1.363 . S
C872 H888 0.931 . S
C873 C872 1.370 . S
C873 C877 1.408 . S
C874 C872 1.363 . S
C874 C875 1.370 . S
C874 C878 1.524 . S
C875 C867 1.503 . S
C875 C874 1.370 . S
C875 C876 1.403 . S
C876 C875 1.403 . S
C876 C877 1.404 . S
C876 C879 1.539 . S
C877 C873 1.408 . S
C877 C876 1.404 . S
C877 H889 0.930 . S
C878 C874 1.524 . S
C878 H890 0.956 . S
C878 H891 0.961 . S
C878 H892 0.961 . S
C879 C876 1.539 . S
C879 H893 0.958 . S
C879 H894 0.961 . S
C879 H895 0.960 . S
H880 C864 0.931 . S
H881 C869 0.929 . S
H882 C870 0.960 . S
H883 C870 0.962 . S
H884 C870 0.960 . S
H885 C871 0.961 . S
H886 C871 0.961 . S
H887 C871 0.961 . S
H888 C872 0.931 . S
H889 C877 0.930 . S
H890 C878 0.956 . S
H891 C878 0.961 . S
H892 C878 0.961 . S
H893 C879 0.958 . S
H894 C879 0.961 . S
H895 C879 0.960 . S
C896 C897 1.391 . S
C896 C898 1.394 . S
C896 H912 0.931 . S
C897 C896 1.391 . S
C897 C901 1.376 . S
C898 C896 1.394 . S
C898 C899 1.369 . S
C898 C902 1.531 . S
C899 C898 1.369 . S
C899 C900 1.410 . S
C899 C907 1.503 . S
C900 C899 1.410 . S
C900 C901 1.392 . S
C900 C903 1.511 . S
C901 C897 1.376 . S
C901 C900 1.392 . S
C901 H913 0.929 . S
C902 C898 1.531 . S
C902 H914 0.960 . S
C902 H915 0.962 . S
C902 H916 0.960 . S
C903 C900 1.511 . S
C903 H917 0.961 . S
C903 H918 0.961 . S
C903 H919 0.961 . S
C904 C905 1.370 . S
C904 C906 1.363 . S
C904 H920 0.931 . S
C905 C904 1.370 . S
C905 C909 1.408 . S
C906 C904 1.363 . S
C906 C907 1.370 . S
C906 C910 1.524 . S
C907 C899 1.503 . S
C907 C906 1.370 . S
C907 C908 1.403 . S
C908 C907 1.403 . S
C908 C909 1.404 . S
C908 C911 1.539 . S
C909 C905 1.408 . S
C909 C908 1.404 . S
C909 H921 0.930 . S
C910 C906 1.524 . S
C910 H922 0.956 . S
C910 H923 0.961 . S
C910 H924 0.961 . S
C911 C908 1.539 . S
C911 H925 0.958 . S
C911 H926 0.961 . S
C911 H927 0.960 . S
H912 C896 0.931 . S
H913 C901 0.929 . S
H914 C902 0.960 . S
H915 C902 0.962 . S
H916 C902 0.960 . S
H917 C903 0.961 . S
H918 C903 0.961 . S
H919 C903 0.961 . S
H920 C904 0.931 . S
H921 C909 0.930 . S
H922 C910 0.956 . S
H923 C910 0.961 . S
H924 C910 0.961 . S
H925 C911 0.958 . S
H926 C911 0.961 . S
H927 C911 0.960 . S
C928 C929 1.391 . S
C928 C930 1.394 . S
C928 H944 0.931 . S
C929 C928 1.391 . S
C929 C933 1.376 . S
C930 C928 1.394 . S
C930 C931 1.369 . S
C930 C934 1.531 . S
C931 C930 1.369 . S
C931 C932 1.410 . S
C931 C939 1.503 . S
C932 C931 1.410 . S
C932 C933 1.392 . S
C932 C935 1.511 . S
C933 C929 1.376 . S
C933 C932 1.392 . S
C933 H945 0.929 . S
C934 C930 1.531 . S
C934 H946 0.960 . S
C934 H947 0.962 . S
C934 H948 0.960 . S
C935 C932 1.511 . S
C935 H949 0.961 . S
C935 H950 0.961 . S
C935 H951 0.961 . S
C936 C937 1.370 . S
C936 C938 1.363 . S
C936 H952 0.931 . S
C937 C936 1.370 . S
C937 C941 1.408 . S
C938 C936 1.363 . S
C938 C939 1.370 . S
C938 C942 1.524 . S
C939 C931 1.503 . S
C939 C938 1.370 . S
C939 C940 1.403 . S
C940 C939 1.403 . S
C940 C941 1.404 . S
C940 C943 1.539 . S
C941 C937 1.408 . S
C941 C940 1.404 . S
C941 H953 0.930 . S
C942 C938 1.524 . S
C942 H954 0.956 . S
C942 H955 0.961 . S
C942 H956 0.961 . S
C943 C940 1.539 . S
C943 H957 0.958 . S
C943 H958 0.961 . S
C943 H959 0.960 . S
H944 C928 0.931 . S
H945 C933 0.929 . S
H946 C934 0.960 . S
H947 C934 0.962 . S
H948 C934 0.960 . S
H949 C935 0.961 . S
H950 C935 0.961 . S
H951 C935 0.961 . S
H952 C936 0.931 . S
H953 C941 0.930 . S
H954 C942 0.956 . S
H955 C942 0.961 . S
H956 C942 0.961 . S
H957 C943 0.958 . S
H958 C943 0.961 . S
H959 C943 0.960 . S
C960 C961 1.391 . S
C960 C962 1.394 . S
C960 H976 0.931 . S
C961 C960 1.391 . S
C961 C965 1.376 . S
C962 C960 1.394 . S
C962 C963 1.369 . S
C962 C966 1.559 . S
C963 C962 1.369 . S
C963 C964 1.410 . S
C963 C971 1.503 1_565 S
C964 C963 1.410 . S
C964 C965 1.392 . S
C964 C967 1.511 . S
C965 C961 1.376 . S
C965 C964 1.392 . S
C965 H977 0.929 . S
C966 C962 1.559 . S
C966 H978 0.919 1_565 S
C966 H979 0.960 . S
C966 H980 0.973 . S
C967 C964 1.511 . S
C967 H981 0.961 . S
C967 H982 0.961 . S
C967 H983 0.961 . S
C968 C969 1.370 . S
C968 C970 1.363 . S
C968 H984 0.931 . S
C969 C968 1.370 . S
C969 C973 1.408 . S
C970 C968 1.363 . S
C970 C971 1.370 . S
C970 C974 1.524 1_545 S
C971 C963 1.503 1_545 S
C971 C970 1.370 . S
C971 C972 1.403 . S
C972 C971 1.403 . S
C972 C973 1.404 . S
C972 C975 1.539 . S
C973 C969 1.408 . S
C973 C972 1.404 . S
C973 H985 0.930 . S
C974 C970 1.524 1_565 S
C974 H986 0.956 . S
C974 H987 0.961 . S
C974 H988 0.958 . S
C975 C972 1.539 . S
C975 H989 0.958 . S
C975 H990 0.961 . S
C975 H991 0.960 . S
H976 C960 0.931 . S
H977 C965 0.929 . S
H978 C966 0.919 1_545 S
H979 C966 0.960 . S
H980 C966 0.973 . S
H981 C967 0.961 . S
H982 C967 0.961 . S
H983 C967 0.961 . S
H984 C968 0.931 . S
H985 C973 0.930 . S
H986 C974 0.956 . S
H987 C974 0.961 . S
H988 C974 0.958 . S
H989 C975 0.958 . S
H990 C975 0.961 . S
H991 C975 0.960 . S
C992 C993 1.391 . S
C992 C994 1.394 . S
C992 H1008 0.931 . S
C993 C992 1.391 . S
C993 C997 1.376 . S
C994 C992 1.394 . S
C994 C995 1.369 . S
C994 C998 1.531 1_655 S
C995 C994 1.369 . S
C995 C996 1.410 . S
C995 C1003 1.503 1_655 S
C996 C995 1.410 . S
C996 C997 1.392 . S
C996 C999 1.511 . S
C997 C993 1.376 . S
C997 C996 1.392 . S
C997 H1009 0.929 . S
C998 C994 1.531 1_455 S
C998 H1010 0.960 . S
C998 H1011 0.962 . S
C998 H1012 0.960 . S
C999 C996 1.511 . S
C999 H1013 0.961 . S
C999 H1014 0.961 . S
C999 H1015 0.961 . S
C1000 C1001 1.370 . S
C1000 C1002 1.363 . S
C1000 H1016 0.931 . S
C1001 C1000 1.370 . S
C1001 C1005 1.408 1_455 S
C1002 C1000 1.363 . S
C1002 C1003 1.370 . S
C1002 C1006 1.524 . S
C1003 C995 1.503 1_455 S
C1003 C1002 1.370 . S
C1003 C1004 1.403 1_455 S
C1004 C1003 1.403 1_655 S
C1004 C1005 1.404 . S
C1004 C1007 1.539 . S
C1005 C1001 1.408 1_655 S
C1005 C1004 1.404 . S
C1005 H1017 0.930 . S
C1006 C1002 1.524 . S
C1006 H1018 0.956 . S
C1006 H1019 0.961 . S
C1006 H1020 0.961 . S
C1007 C1004 1.539 . S
C1007 H1021 0.958 . S
C1007 H1022 0.961 . S
C1007 H1023 0.960 . S
H1008 C992 0.931 . S
H1009 C997 0.929 . S
H1010 C998 0.960 . S
H1011 C998 0.962 . S
H1012 C998 0.960 . S
H1013 C999 0.961 . S
H1014 C999 0.961 . S
H1015 C999 0.961 . S
H1016 C1000 0.931 . S
H1017 C1005 0.930 . S
H1018 C1006 0.956 . S
H1019 C1006 0.961 . S
H1020 C1006 0.961 . S
H1021 C1007 0.958 . S
H1022 C1007 0.961 . S
H1023 C1007 0.960 . S
C1024 C1025 1.391 . S
C1024 C1026 1.394 . S
C1024 H1040 0.931 . S
C1025 C1024 1.391 . S
C1025 C1029 1.376 1_556 S
C1026 C1024 1.394 . S
C1026 C1027 1.369 . S
C1026 C1030 1.531 . S
C1027 C1026 1.369 . S
C1027 C1028 1.410 1_556 S
C1027 C1035 1.503 . S
C1028 C1027 1.410 1_554 S
C1028 C1029 1.392 . S
C1028 C1031 1.511 . S
C1029 C1025 1.376 1_554 S
C1029 C1028 1.392 . S
C1029 H1041 0.929 . S
C1030 C1026 1.531 . S
C1030 H1042 0.960 . S
C1030 H1043 0.962 . S
C1030 H1044 0.960 . S
C1031 C1028 1.511 . S
C1031 H1045 0.961 . S
C1031 H1046 0.961 . S
C1031 H1047 0.961 . S
C1032 C1033 1.370 . S
C1032 C1034 1.363 . S
C1032 H1048 0.931 . S
C1033 C1032 1.370 . S
C1033 C1037 1.408 1_554 S
C1034 C1032 1.363 . S
C1034 C1035 1.370 1_554 S
C1034 C1038 1.524 . S
C1035 C1027 1.503 . S
C1035 C1034 1.370 1_556 S
C1035 C1036 1.403 . S
C1036 C1035 1.403 . S
C1036 C1037 1.404 . S
C1036 C1039 1.539 . S
C1037 C1033 1.408 1_556 S
C1037 C1036 1.404 . S
C1037 H1049 0.930 . S
C1038 C1034 1.524 . S
C1038 H1050 0.956 . S
C1038 H1051 0.961 . S
C1038 H1052 0.961 . S
C1039 C1036 1.539 . S
C1039 H1053 0.958 . S
C1039 H1054 0.961 . S
C1039 H1055 0.960 . S
H1040 C1024 0.931 . S
H1041 C1029 0.929 . S
H1042 C1030 0.960 . S
H1043 C1030 0.962 . S
H1044 C1030 0.960 . S
H1045 C1031 0.961 . S
H1046 C1031 0.961 . S
H1047 C1031 0.961 . S
H1048 C1032 0.931 . S
H1049 C1037 0.930 . S
H1050 C1038 0.956 . S
H1051 C1038 0.961 . S
H1052 C1038 0.961 . S
H1053 C1039 0.958 . S
H1054 C1039 0.961 . S
H1055 C1039 0.960 . S
C1056 C1057 1.391 1_554 S
C1056 C1058 1.394 . S
C1056 H1072 0.931 . S
C1057 C1056 1.391 1_556 S
C1057 C1061 1.376 . S
C1058 C1056 1.394 . S
C1058 C1059 1.369 . S
C1058 C1062 1.531 . S
C1059 C1058 1.369 . S
C1059 C1060 1.410 1_454 S
C1059 C1067 1.503 1_445 S
C1060 C1059 1.410 1_656 S
C1060 C1061 1.392 1_655 S
C1060 C1063 1.511 . S
C1061 C1057 1.376 . S
C1061 C1060 1.392 1_455 S
C1061 H1073 0.929 1_455 S
C1062 C1058 1.531 . S
C1062 H1074 0.993 . S
C1062 H1075 0.996 . S
C1062 H1076 0.960 . S
C1063 C1060 1.511 . S
C1063 H1077 0.961 . S
C1063 H1078 0.965 1_545 S
C1063 H1079 0.961 . S
C1064 C1065 1.370 1_556 S
C1064 C1066 1.363 1_655 S
C1064 H1080 0.931 1_655 S
C1065 C1064 1.370 1_554 S
C1065 C1069 1.408 . S
C1066 C1064 1.363 1_455 S
C1066 C1067 1.370 1_456 S
C1066 C1070 1.524 . S
C1067 C1059 1.503 1_665 S
C1067 C1066 1.370 1_654 S
C1067 C1068 1.403 . S
C1068 C1067 1.403 . S
C1068 C1069 1.404 . S
C1068 C1071 1.539 1_565 S
C1069 C1065 1.408 . S
C1069 C1068 1.404 . S
C1069 H1081 0.930 . S
C1070 C1066 1.524 . S
C1070 H1082 0.956 . S
C1070 H1083 0.961 . S
C1070 H1084 0.961 . S
C1071 C1068 1.539 1_545 S
C1071 H1085 0.958 . S
C1071 H1086 0.962 1_545 S
C1071 H1087 0.960 . S
H1072 C1056 0.931 . S
H1073 C1061 0.929 1_655 S
H1074 C1062 0.993 . S
H1075 C1062 0.996 . S
H1076 C1062 0.960 . S
H1077 C1063 0.961 . S
H1078 C1063 0.965 1_565 S
H1079 C1063 0.961 . S
H1080 C1064 0.931 1_455 S
H1081 C1069 0.930 . S
H1082 C1070 0.956 . S
H1083 C1070 0.961 . S
H1084 C1070 0.961 . S
H1085 C1071 0.958 . S
H1086 C1071 0.962 1_565 S
H1087 C1071 0.960 . S
C1088 C1089 1.391 . S
C1088 C1090 1.394 . S
C1088 H1104 0.931 . S
C1089 C1088 1.391 . S
C1089 C1093 1.376 . S
C1090 C1088 1.394 . S
C1090 C1091 1.369 . S
C1090 C1094 1.531 . S
C1091 C1090 1.369 . S
C1091 C1092 1.410 . S
C1091 C1099 1.503 1_545 S
C1092 C1091 1.410 . S
C1092 C1093 1.392 . S
C1092 C1095 1.533 . S
C1093 C1089 1.376 . S
C1093 C1092 1.392 . S
C1093 H1105 0.929 . S
C1094 C1090 1.531 . S
C1094 H1106 1.024 . S
C1094 H1107 0.962 . S
C1094 H1108 0.960 . S
C1095 C1092 1.533 . S
C1095 H1109 0.979 . S
C1095 H1110 0.938 1_545 S
C1095 H1111 0.944 1_545 S
C1096 C1097 1.370 . S
C1096 C1098 1.363 . S
C1096 H1112 0.931 . S
C1097 C1096 1.370 . S
C1097 C1101 1.408 . S
C1098 C1096 1.363 . S
C1098 C1099 1.370 . S
C1098 C1102 1.524 1_565 S
C1099 C1091 1.503 1_565 S
C1099 C1098 1.370 . S
C1099 C1100 1.403 . S
C1100 C1099 1.403 . S
C1100 C1101 1.404 . S
C1100 C1103 1.539 . S
C1101 C1097 1.408 . S
C1101 C1100 1.404 . S
C1101 H1113 0.930 . S
C1102 C1098 1.524 1_545 S
C1102 H1114 0.956 . S
C1102 H1115 0.961 . S
C1102 H1116 0.948 1_545 S
C1103 C1100 1.539 . S
C1103 H1117 0.958 . S
C1103 H1118 0.961 . S
C1103 H1119 0.960 . S
H1104 C1088 0.931 . S
H1105 C1093 0.929 . S
H1106 C1094 1.024 . S
H1107 C1094 0.962 . S
H1108 C1094 0.960 . S
H1109 C1095 0.979 . S
H1110 C1095 0.938 1_565 S
H1111 C1095 0.944 1_565 S
H1112 C1096 0.931 . S
H1113 C1101 0.930 . S
H1114 C1102 0.956 . S
H1115 C1102 0.961 . S
H1116 C1102 0.948 1_565 S
H1117 C1103 0.958 . S
H1118 C1103 0.961 . S
H1119 C1103 0.960 . S
C1120 C1121 1.391 . S
C1120 C1122 1.394 . S
C1120 H1136 0.931 . S
C1121 C1120 1.391 . S
C1121 C1125 1.376 1_455 S
C1122 C1120 1.394 . S
C1122 C1123 1.369 . S
C1122 C1126 1.531 . S
C1123 C1122 1.369 . S
C1123 C1124 1.410 1_455 S
C1123 C1131 1.503 1_455 S
C1124 C1123 1.410 1_655 S
C1124 C1125 1.392 . S
C1124 C1127 1.511 . S
C1125 C1121 1.376 1_655 S
C1125 C1124 1.392 . S
C1125 H1137 0.929 . S
C1126 C1122 1.531 . S
C1126 H1138 0.960 . S
C1126 H1139 0.962 . S
C1126 H1140 0.960 . S
C1127 C1124 1.511 . S
C1127 H1141 0.961 . S
C1127 H1142 0.961 . S
C1127 H1143 0.961 . S
C1128 C1129 1.370 . S
C1128 C1130 1.363 . S
C1128 H1144 0.931 . S
C1129 C1128 1.370 . S
C1129 C1133 1.408 . S
C1130 C1128 1.363 . S
C1130 C1131 1.370 . S
C1130 C1134 1.524 . S
C1131 C1123 1.503 1_655 S
C1131 C1130 1.370 . S
C1131 C1132 1.403 . S
C1132 C1131 1.403 . S
C1132 C1133 1.404 . S
C1132 C1135 1.539 . S
C1133 C1129 1.408 . S
C1133 C1132 1.404 . S
C1133 H1145 0.930 . S
C1134 C1130 1.524 . S
C1134 H1146 0.956 1_655 S
C1134 H1147 0.961 . S
C1134 H1148 0.961 . S
C1135 C1132 1.539 . S
C1135 H1149 0.958 1_655 S
C1135 H1150 0.961 . S
C1135 H1151 0.960 . S
H1136 C1120 0.931 . S
H1137 C1125 0.929 . S
H1138 C1126 0.960 . S
H1139 C1126 0.962 . S
H1140 C1126 0.960 . S
H1141 C1127 0.961 . S
H1142 C1127 0.961 . S
H1143 C1127 0.961 . S
H1144 C1128 0.931 . S
H1145 C1133 0.930 . S
H1146 C1134 0.956 1_455 S
H1147 C1134 0.961 . S
H1148 C1134 0.961 . S
H1149 C1135 0.958 1_455 S
H1150 C1135 0.961 . S
H1151 C1135 0.960 . S
C1152 C1153 1.391 . S
C1152 C1154 1.394 . S
C1152 H1168 0.931 . S
C1153 C1152 1.391 . S
C1153 C1157 1.376 . S
C1154 C1152 1.394 . S
C1154 C1155 1.369 . S
C1154 C1158 1.531 . S
C1155 C1154 1.369 . S
C1155 C1156 1.410 . S
C1155 C1163 1.503 . S
C1156 C1155 1.410 . S
C1156 C1157 1.392 . S
C1156 C1159 1.511 1_556 S
C1157 C1153 1.376 . S
C1157 C1156 1.392 . S
C1157 H1169 0.929 . S
C1158 C1154 1.531 . S
C1158 H1170 0.960 . S
C1158 H1171 0.962 . S
C1158 H1172 0.960 . S
C1159 C1156 1.511 1_554 S
C1159 H1173 0.961 . S
C1159 H1174 0.961 . S
C1159 H1175 0.961 1_554 S
C1160 C1161 1.370 . S
C1160 C1162 1.363 . S
C1160 H1176 0.931 . S
C1161 C1160 1.370 . S
C1161 C1165 1.408 1_554 S
C1162 C1160 1.363 . S
C1162 C1163 1.370 1_554 S
C1162 C1166 1.524 . S
C1163 C1155 1.503 . S
C1163 C1162 1.370 1_556 S
C1163 C1164 1.403 . S
C1164 C1163 1.403 . S
C1164 C1165 1.404 . S
C1164 C1167 1.539 . S
C1165 C1161 1.408 1_556 S
C1165 C1164 1.404 . S
C1165 H1177 0.930 . S
C1166 C1162 1.524 . S
C1166 H1178 0.956 . S
C1166 H1179 0.961 . S
C1166 H1180 0.961 . S
C1167 C1164 1.539 . S
C1167 H1181 0.958 . S
C1167 H1182 0.961 . S
C1167 H1183 0.960 . S
H1168 C1152 0.931 . S
H1169 C1157 0.929 . S
H1170 C1158 0.960 . S
H1171 C1158 0.962 . S
H1172 C1158 0.960 . S
H1173 C1159 0.961 . S
H1174 C1159 0.961 . S
H1175 C1159 0.961 1_556 S
H1176 C1160 0.931 . S
H1177 C1165 0.930 . S
H1178 C1166 0.956 . S
H1179 C1166 0.961 . S
H1180 C1166 0.961 . S
H1181 C1167 0.958 . S
H1182 C1167 0.961 . S
H1183 C1167 0.960 . S
C1184 C1185 1.391 . S
C1184 C1186 1.394 . S
C1184 H1200 0.931 . S
C1185 C1184 1.391 . S
C1185 C1189 1.376 . S
C1186 C1184 1.394 . S
C1186 C1187 1.369 . S
C1186 C1190 1.531 . S
C1187 C1186 1.369 . S
C1187 C1188 1.410 . S
C1187 C1195 1.503 . S
C1188 C1187 1.410 . S
C1188 C1189 1.392 . S
C1188 C1191 1.511 . S
C1189 C1185 1.376 . S
C1189 C1188 1.392 . S
C1189 H1201 0.929 . S
C1190 C1186 1.531 . S
C1190 H1202 0.960 . S
C1190 H1203 0.962 . S
C1190 H1204 0.960 . S
C1191 C1188 1.511 . S
C1191 H1205 0.961 . S
C1191 H1206 0.961 . S
C1191 H1207 0.961 . S
C1192 C1193 1.370 . S
C1192 C1194 1.363 . S
C1192 H1208 0.931 . S
C1193 C1192 1.370 . S
C1193 C1197 1.408 . S
C1194 C1192 1.363 . S
C1194 C1195 1.370 . S
C1194 C1198 1.524 . S
C1195 C1187 1.503 . S
C1195 C1194 1.370 . S
C1195 C1196 1.403 . S
C1196 C1195 1.403 . S
C1196 C1197 1.404 . S
C1196 C1199 1.539 . S
C1197 C1193 1.408 . S
C1197 C1196 1.404 . S
C1197 H1209 0.930 . S
C1198 C1194 1.524 . S
C1198 H1210 0.956 . S
C1198 H1211 0.961 . S
C1198 H1212 0.961 . S
C1199 C1196 1.539 . S
C1199 H1213 0.958 . S
C1199 H1214 0.961 . S
C1199 H1215 0.960 . S
H1200 C1184 0.931 . S
H1201 C1189 0.929 . S
H1202 C1190 0.960 . S
H1203 C1190 0.962 . S
H1204 C1190 0.960 . S
H1205 C1191 0.961 . S
H1206 C1191 0.961 . S
H1207 C1191 0.961 . S
H1208 C1192 0.931 . S
H1209 C1197 0.930 . S
H1210 C1198 0.956 . S
H1211 C1198 0.961 . S
H1212 C1198 0.961 . S
H1213 C1199 0.958 . S
H1214 C1199 0.961 . S
H1215 C1199 0.960 . S
C1216 C1217 1.391 . S
C1216 C1218 1.394 . S
C1216 H1232 0.931 . S
C1217 C1216 1.391 . S
C1217 C1221 1.376 . S
C1218 C1216 1.394 . S
C1218 C1219 1.369 . S
C1218 C1222 1.531 . S
C1219 C1218 1.369 . S
C1219 C1220 1.410 . S
C1219 C1227 1.503 . S
C1220 C1219 1.410 . S
C1220 C1221 1.392 . S
C1220 C1223 1.511 . S
C1221 C1217 1.376 . S
C1221 C1220 1.392 . S
C1221 H1233 0.929 . S
C1222 C1218 1.531 . S
C1222 H1234 0.960 . S
C1222 H1235 0.962 . S
C1222 H1236 0.960 . S
C1223 C1220 1.511 . S
C1223 H1237 0.961 . S
C1223 H1238 0.961 . S
C1223 H1239 0.961 . S
C1224 C1225 1.370 . S
C1224 C1226 1.363 . S
C1224 H1240 0.931 . S
C1225 C1224 1.370 . S
C1225 C1229 1.408 . S
C1226 C1224 1.363 . S
C1226 C1227 1.370 . S
C1226 C1230 1.524 . S
C1227 C1219 1.503 . S
C1227 C1226 1.370 . S
C1227 C1228 1.403 . S
C1228 C1227 1.403 . S
C1228 C1229 1.404 . S
C1228 C1231 1.539 . S
C1229 C1225 1.408 . S
C1229 C1228 1.404 . S
C1229 H1241 0.930 . S
C1230 C1226 1.524 . S
C1230 H1242 0.956 . S
C1230 H1243 0.961 . S
C1230 H1244 0.961 . S
C1231 C1228 1.539 . S
C1231 H1245 0.958 . S
C1231 H1246 0.961 . S
C1231 H1247 0.960 . S
H1232 C1216 0.931 . S
H1233 C1221 0.929 . S
H1234 C1222 0.960 . S
H1235 C1222 0.962 . S
H1236 C1222 0.960 . S
H1237 C1223 0.961 . S
H1238 C1223 0.961 . S
H1239 C1223 0.961 . S
H1240 C1224 0.931 . S
H1241 C1229 0.930 . S
H1242 C1230 0.956 . S
H1243 C1230 0.961 . S
H1244 C1230 0.961 . S
H1245 C1231 0.958 . S
H1246 C1231 0.961 . S
H1247 C1231 0.960 . S
C1248 C1249 1.391 1_455 S
C1248 C1250 1.394 . S
C1248 H1264 0.931 . S
C1249 C1248 1.391 1_655 S
C1249 C1253 1.376 . S
C1250 C1248 1.394 . S
C1250 C1251 1.369 1_455 S
C1250 C1254 1.531 . S
C1251 C1250 1.369 1_655 S
C1251 C1252 1.410 . S
C1251 C1259 1.503 1_655 S
C1252 C1251 1.410 . S
C1252 C1253 1.392 . S
C1252 C1255 1.511 . S
C1253 C1249 1.376 . S
C1253 C1252 1.392 . S
C1253 H1265 0.929 . S
C1254 C1250 1.531 . S
C1254 H1266 0.960 . S
C1254 H1267 0.962 . S
C1254 H1268 0.960 . S
C1255 C1252 1.511 . S
C1255 H1269 0.961 . S
C1255 H1270 0.961 . S
C1255 H1271 0.961 . S
C1256 C1257 1.370 . S
C1256 C1258 1.363 . S
C1256 H1272 0.931 . S
C1257 C1256 1.370 . S
C1257 C1261 1.408 . S
C1258 C1256 1.363 . S
C1258 C1259 1.370 . S
C1258 C1262 1.524 . S
C1259 C1251 1.503 1_455 S
C1259 C1258 1.370 . S
C1259 C1260 1.403 . S
C1260 C1259 1.403 . S
C1260 C1261 1.404 . S
C1260 C1263 1.539 1_455 S
C1261 C1257 1.408 . S
C1261 C1260 1.404 . S
C1261 H1273 0.930 . S
C1262 C1258 1.524 . S
C1262 H1274 0.956 . S
C1262 H1275 0.961 1_455 S
C1262 H1276 0.961 . S
C1263 C1260 1.539 1_655 S
C1263 H1277 0.958 1_655 S
C1263 H1278 0.961 . S
C1263 H1279 0.960 . S
H1264 C1248 0.931 . S
H1265 C1253 0.929 . S
H1266 C1254 0.960 . S
H1267 C1254 0.962 . S
H1268 C1254 0.960 . S
H1269 C1255 0.961 . S
H1270 C1255 0.961 . S
H1271 C1255 0.961 . S
H1272 C1256 0.931 . S
H1273 C1261 0.930 . S
H1274 C1262 0.956 . S
H1275 C1262 0.961 1_655 S
H1276 C1262 0.961 . S
H1277 C1263 0.958 1_455 S
H1278 C1263 0.961 . S
H1279 C1263 0.960 . S
C1280 C1281 1.391 . S
C1280 C1282 1.394 . S
C1280 H1296 0.931 . S
C1281 C1280 1.391 . S
C1281 C1285 1.376 . S
C1282 C1280 1.394 . S
C1282 C1283 1.369 . S
C1282 C1286 1.531 . S
C1283 C1282 1.369 . S
C1283 C1284 1.410 . S
C1283 C1291 1.503 . S
C1284 C1283 1.410 . S
C1284 C1285 1.392 . S
C1284 C1287 1.511 . S
C1285 C1281 1.376 . S
C1285 C1284 1.392 . S
C1285 H1297 0.929 . S
C1286 C1282 1.531 . S
C1286 H1298 0.960 . S
C1286 H1299 0.962 . S
C1286 H1300 0.960 . S
C1287 C1284 1.511 . S
C1287 H1301 0.961 . S
C1287 H1302 0.961 . S
C1287 H1303 0.961 . S
C1288 C1289 1.370 . S
C1288 C1290 1.363 . S
C1288 H1304 0.931 . S
C1289 C1288 1.370 . S
C1289 C1293 1.408 . S
C1290 C1288 1.363 . S
C1290 C1291 1.370 . S
C1290 C1294 1.524 . S
C1291 C1283 1.503 . S
C1291 C1290 1.370 . S
C1291 C1292 1.403 . S
C1292 C1291 1.403 . S
C1292 C1293 1.404 . S
C1292 C1295 1.539 . S
C1293 C1289 1.408 . S
C1293 C1292 1.404 . S
C1293 H1305 0.930 . S
C1294 C1290 1.524 . S
C1294 H1306 0.956 . S
C1294 H1307 0.961 . S
C1294 H1308 0.961 . S
C1295 C1292 1.539 . S
C1295 H1309 0.958 . S
C1295 H1310 0.961 . S
C1295 H1311 0.960 . S
H1296 C1280 0.931 . S
H1297 C1285 0.929 . S
H1298 C1286 0.960 . S
H1299 C1286 0.962 . S
H1300 C1286 0.960 . S
H1301 C1287 0.961 . S
H1302 C1287 0.961 . S
H1303 C1287 0.961 . S
H1304 C1288 0.931 . S
H1305 C1293 0.930 . S
H1306 C1294 0.956 . S
H1307 C1294 0.961 . S
H1308 C1294 0.961 . S
H1309 C1295 0.958 . S
H1310 C1295 0.961 . S
H1311 C1295 0.960 . S
C1312 C1313 1.391 . S
C1312 C1314 1.394 . S
C1312 H1328 0.931 . S
C1313 C1312 1.391 . S
C1313 C1317 1.376 . S
C1314 C1312 1.394 . S
C1314 C1315 1.369 . S
C1314 C1318 1.531 . S
C1315 C1314 1.369 . S
C1315 C1316 1.410 . S
C1315 C1323 1.503 . S
C1316 C1315 1.410 . S
C1316 C1317 1.392 . S
C1316 C1319 1.511 . S
C1317 C1313 1.376 . S
C1317 C1316 1.392 . S
C1317 H1329 0.929 . S
C1318 C1314 1.531 . S
C1318 H1330 0.960 . S
C1318 H1331 0.962 . S
C1318 H1332 0.960 . S
C1319 C1316 1.511 . S
C1319 H1333 0.961 . S
C1319 H1334 0.961 . S
C1319 H1335 0.961 . S
C1320 C1321 1.370 . S
C1320 C1322 1.363 . S
C1320 H1336 0.931 . S
C1321 C1320 1.370 . S
C1321 C1325 1.408 . S
C1322 C1320 1.363 . S
C1322 C1323 1.370 . S
C1322 C1326 1.524 . S
C1323 C1315 1.503 . S
C1323 C1322 1.370 . S
C1323 C1324 1.403 . S
C1324 C1323 1.403 . S
C1324 C1325 1.404 . S
C1324 C1327 1.539 . S
C1325 C1321 1.408 . S
C1325 C1324 1.404 . S
C1325 H1337 0.930 . S
C1326 C1322 1.524 . S
C1326 H1338 0.956 . S
C1326 H1339 0.961 . S
C1326 H1340 0.961 . S
C1327 C1324 1.539 . S
C1327 H1341 0.958 . S
C1327 H1342 0.961 . S
C1327 H1343 0.960 . S
H1328 C1312 0.931 . S
H1329 C1317 0.929 . S
H1330 C1318 0.960 . S
H1331 C1318 0.962 . S
H1332 C1318 0.960 . S
H1333 C1319 0.961 . S
H1334 C1319 0.961 . S
H1335 C1319 0.961 . S
H1336 C1320 0.931 . S
H1337 C1325 0.930 . S
H1338 C1326 0.956 . S
H1339 C1326 0.961 . S
H1340 C1326 0.961 . S
H1341 C1327 0.958 . S
H1342 C1327 0.961 . S
H1343 C1327 0.960 . S
C1344 C1345 1.391 . S
C1344 C1346 1.394 . S
C1344 H1360 0.931 . S
C1345 C1344 1.391 . S
C1345 C1349 1.376 . S
C1346 C1344 1.394 . S
C1346 C1347 1.369 . S
C1346 C1350 1.531 . S
C1347 C1346 1.369 . S
C1347 C1348 1.410 . S
C1347 C1355 1.503 . S
C1348 C1347 1.410 . S
C1348 C1349 1.392 . S
C1348 C1351 1.511 . S
C1349 C1345 1.376 . S
C1349 C1348 1.392 . S
C1349 H1361 0.929 . S
C1350 C1346 1.531 . S
C1350 H1362 0.960 . S
C1350 H1363 0.962 . S
C1350 H1364 0.960 . S
C1351 C1348 1.511 . S
C1351 H1365 0.961 . S
C1351 H1366 0.961 . S
C1351 H1367 0.961 . S
C1352 C1353 1.370 . S
C1352 C1354 1.363 . S
C1352 H1368 0.931 . S
C1353 C1352 1.370 . S
C1353 C1357 1.408 . S
C1354 C1352 1.363 . S
C1354 C1355 1.370 . S
C1354 C1358 1.524 . S
C1355 C1347 1.503 . S
C1355 C1354 1.370 . S
C1355 C1356 1.403 . S
C1356 C1355 1.403 . S
C1356 C1357 1.404 . S
C1356 C1359 1.539 . S
C1357 C1353 1.408 . S
C1357 C1356 1.404 . S
C1357 H1369 0.930 . S
C1358 C1354 1.524 . S
C1358 H1370 0.956 . S
C1358 H1371 0.961 . S
C1358 H1372 0.961 . S
C1359 C1356 1.539 . S
C1359 H1373 0.958 . S
C1359 H1374 0.961 . S
C1359 H1375 0.960 . S
H1360 C1344 0.931 . S
H1361 C1349 0.929 . S
H1362 C1350 0.960 . S
H1363 C1350 0.962 . S
H1364 C1350 0.960 . S
H1365 C1351 0.961 . S
H1366 C1351 0.961 . S
H1367 C1351 0.961 . S
H1368 C1352 0.931 . S
H1369 C1357 0.930 . S
H1370 C1358 0.956 . S
H1371 C1358 0.961 . S
H1372 C1358 0.961 . S
H1373 C1359 0.958 . S
H1374 C1359 0.961 . S
H1375 C1359 0.960 . S
C1376 C1377 1.391 . S
C1376 C1378 1.394 . S
C1376 H1392 0.931 . S
C1377 C1376 1.391 . S
C1377 C1381 1.376 . S
C1378 C1376 1.394 . S
C1378 C1379 1.369 . S
C1378 C1382 1.531 . S
C1379 C1378 1.369 . S
C1379 C1380 1.410 . S
C1379 C1387 1.503 1_545 S
C1380 C1379 1.410 . S
C1380 C1381 1.392 . S
C1380 C1383 1.511 . S
C1381 C1377 1.376 . S
C1381 C1380 1.392 . S
C1381 H1393 0.929 . S
C1382 C1378 1.531 . S
C1382 H1394 0.960 1_545 S
C1382 H1395 0.962 1_545 S
C1382 H1396 0.960 . S
C1383 C1380 1.511 . S
C1383 H1397 0.961 . S
C1383 H1398 0.961 . S
C1383 H1399 0.961 . S
C1384 C1385 1.370 . S
C1384 C1386 1.363 . S
C1384 H1400 0.931 . S
C1385 C1384 1.370 . S
C1385 C1389 1.408 . S
C1386 C1384 1.363 . S
C1386 C1387 1.370 . S
C1386 C1390 1.524 . S
C1387 C1379 1.503 1_565 S
C1387 C1386 1.370 . S
C1387 C1388 1.403 . S
C1388 C1387 1.403 . S
C1388 C1389 1.404 . S
C1388 C1391 1.539 1_565 S
C1389 C1385 1.408 . S
C1389 C1388 1.404 . S
C1389 H1401 0.930 . S
C1390 C1386 1.524 . S
C1390 H1402 0.956 . S
C1390 H1403 0.961 . S
C1390 H1404 0.961 . S
C1391 C1388 1.539 1_545 S
C1391 H1405 0.958 . S
C1391 H1406 0.955 1_545 S
C1391 H1407 0.960 . S
H1392 C1376 0.931 . S
H1393 C1381 0.929 . S
H1394 C1382 0.960 1_565 S
H1395 C1382 0.962 1_565 S
H1396 C1382 0.960 . S
H1397 C1383 0.961 . S
H1398 C1383 0.961 . S
H1399 C1383 0.961 . S
H1400 C1384 0.931 . S
H1401 C1389 0.930 . S
H1402 C1390 0.956 . S
H1403 C1390 0.961 . S
H1404 C1390 0.961 . S
H1405 C1391 0.958 . S
H1406 C1391 0.955 1_565 S
H1407 C1391 0.960 . S
C1408 C1409 1.391 . S
C1408 C1410 1.394 . S
C1408 H1424 0.931 . S
C1409 C1408 1.391 . S
C1409 C1413 1.376 . S
C1410 C1408 1.394 . S
C1410 C1411 1.369 . S
C1410 C1414 1.531 . S
C1411 C1410 1.369 . S
C1411 C1412 1.410 . S
C1411 C1419 1.503 . S
C1412 C1411 1.410 . S
C1412 C1413 1.392 . S
C1412 C1415 1.511 . S
C1413 C1409 1.376 . S
C1413 C1412 1.392 . S
C1413 H1425 0.929 . S
C1414 C1410 1.531 . S
C1414 H1426 0.960 . S
C1414 H1427 0.962 . S
C1414 H1428 0.960 . S
C1415 C1412 1.511 . S
C1415 H1429 0.961 . S
C1415 H1430 0.961 . S
C1415 H1431 0.961 . S
C1416 C1417 1.370 . S
C1416 C1418 1.363 . S
C1416 H1432 0.931 . S
C1417 C1416 1.370 . S
C1417 C1421 1.408 . S
C1418 C1416 1.363 . S
C1418 C1419 1.370 . S
C1418 C1422 1.524 . S
C1419 C1411 1.503 . S
C1419 C1418 1.370 . S
C1419 C1420 1.403 . S
C1420 C1419 1.403 . S
C1420 C1421 1.404 . S
C1420 C1423 1.539 . S
C1421 C1417 1.408 . S
C1421 C1420 1.404 . S
C1421 H1433 0.930 . S
C1422 C1418 1.524 . S
C1422 H1434 0.956 . S
C1422 H1435 0.961 . S
C1422 H1436 0.961 . S
C1423 C1420 1.539 . S
C1423 H1437 0.958 . S
C1423 H1438 0.961 . S
C1423 H1439 0.960 . S
H1424 C1408 0.931 . S
H1425 C1413 0.929 . S
H1426 C1414 0.960 . S
H1427 C1414 0.962 . S
H1428 C1414 0.960 . S
H1429 C1415 0.961 . S
H1430 C1415 0.961 . S
H1431 C1415 0.961 . S
H1432 C1416 0.931 . S
H1433 C1421 0.930 . S
H1434 C1422 0.956 . S
H1435 C1422 0.961 . S
H1436 C1422 0.961 . S
H1437 C1423 0.958 . S
H1438 C1423 0.961 . S
H1439 C1423 0.960 . S
C1440 C1441 1.391 . S
C1440 C1442 1.394 . S
C1440 H1456 0.931 . S
C1441 C1440 1.391 . S
C1441 C1445 1.376 . S
C1442 C1440 1.394 . S
C1442 C1443 1.369 . S
C1442 C1446 1.531 . S
C1443 C1442 1.369 . S
C1443 C1444 1.414 . S
C1443 C1451 1.503 . S
C1444 C1443 1.414 . S
C1444 C1445 1.394 . S
C1444 C1447 1.505 1_554 S
C1445 C1441 1.376 . S
C1445 C1444 1.394 . S
C1445 H1457 0.929 1_554 S
C1446 C1442 1.531 . S
C1446 H1458 0.960 . S
C1446 H1459 0.962 . S
C1446 H1460 0.960 . S
C1447 C1444 1.505 1_556 S
C1447 H1461 0.961 . S
C1447 H1462 0.961 . S
C1447 H1463 0.961 1_556 S
C1448 C1449 1.370 . S
C1448 C1450 1.363 . S
C1448 H1464 0.931 . S
C1449 C1448 1.370 . S
C1449 C1453 1.408 1_556 S
C1450 C1448 1.363 . S
C1450 C1451 1.370 1_556 S
C1450 C1454 1.524 . S
C1451 C1443 1.503 . S
C1451 C1450 1.370 1_554 S
C1451 C1452 1.403 . S
C1452 C1451 1.403 . S
C1452 C1453 1.404 . S
C1452 C1455 1.539 . S
C1453 C1449 1.408 1_554 S
C1453 C1452 1.404 . S
C1453 H1465 0.930 . S
C1454 C1450 1.524 . S
C1454 H1466 0.956 . S
C1454 H1467 0.961 . S
C1454 H1468 0.961 . S
C1455 C1452 1.539 . S
C1455 H1469 0.958 . S
C1455 H1470 0.961 . S
C1455 H1471 0.960 . S
H1456 C1440 0.931 . S
H1457 C1445 0.929 1_556 S
H1458 C1446 0.960 . S
H1459 C1446 0.962 . S
H1460 C1446 0.960 . S
H1461 C1447 0.961 . S
H1462 C1447 0.961 . S
H1463 C1447 0.961 1_554 S
H1464 C1448 0.931 . S
H1465 C1453 0.930 . S
H1466 C1454 0.956 . S
H1467 C1454 0.961 . S
H1468 C1454 0.961 . S
H1469 C1455 0.958 . S
H1470 C1455 0.961 . S
H1471 C1455 0.960 . S
C1472 C1473 1.391 . S
C1472 C1474 1.394 . S
C1472 H1488 0.931 . S
C1473 C1472 1.391 . S
C1473 C1477 1.376 . S
C1474 C1472 1.394 . S
C1474 C1475 1.369 . S
C1474 C1478 1.531 . S
C1475 C1474 1.369 . S
C1475 C1476 1.410 . S
C1475 C1483 1.503 . S
C1476 C1475 1.410 . S
C1476 C1477 1.392 . S
C1476 C1479 1.511 . S
C1477 C1473 1.376 . S
C1477 C1476 1.392 . S
C1477 H1489 0.929 . S
C1478 C1474 1.531 . S
C1478 H1490 0.960 . S
C1478 H1491 0.962 . S
C1478 H1492 0.960 . S
C1479 C1476 1.511 . S
C1479 H1493 0.961 . S
C1479 H1494 0.961 . S
C1479 H1495 0.961 1_455 S
C1480 C1481 1.370 . S
C1480 C1482 1.363 . S
C1480 H1496 0.931 . S
C1481 C1480 1.370 . S
C1481 C1485 1.408 . S
C1482 C1480 1.363 . S
C1482 C1483 1.370 . S
C1482 C1486 1.524 . S
C1483 C1475 1.503 . S
C1483 C1482 1.370 . S
C1483 C1484 1.403 . S
C1484 C1483 1.403 . S
C1484 C1485 1.404 . S
C1484 C1487 1.539 . S
C1485 C1481 1.408 . S
C1485 C1484 1.404 . S
C1485 H1497 0.930 . S
C1486 C1482 1.524 . S
C1486 H1498 0.956 . S
C1486 H1499 0.961 . S
C1486 H1500 0.961 . S
C1487 C1484 1.539 . S
C1487 H1501 0.958 . S
C1487 H1502 0.961 1_455 S
C1487 H1503 0.960 1_455 S
H1488 C1472 0.931 . S
H1489 C1477 0.929 . S
H1490 C1478 0.960 . S
H1491 C1478 0.962 . S
H1492 C1478 0.960 . S
H1493 C1479 0.961 . S
H1494 C1479 0.961 . S
H1495 C1479 0.961 1_655 S
H1496 C1480 0.931 . S
H1497 C1485 0.930 . S
H1498 C1486 0.956 . S
H1499 C1486 0.961 . S
H1500 C1486 0.961 . S
H1501 C1487 0.958 . S
H1502 C1487 0.961 1_655 S
H1503 C1487 0.960 1_655 S
C1504 C1505 1.391 . S
C1504 C1506 1.394 . S
C1504 H1520 0.931 . S
C1505 C1504 1.391 . S
C1505 C1509 1.376 . S
C1506 C1504 1.394 . S
C1506 C1507 1.369 . S
C1506 C1510 1.531 . S
C1507 C1506 1.369 . S
C1507 C1508 1.410 . S
C1507 C1515 1.503 . S
C1508 C1507 1.410 . S
C1508 C1509 1.392 . S
C1508 C1511 1.511 1_556 S
C1509 C1505 1.376 . S
C1509 C1508 1.392 . S
C1509 H1521 0.929 1_556 S
C1510 C1506 1.531 . S
C1510 H1522 0.960 . S
C1510 H1523 0.962 1_455 S
C1510 H1524 0.960 . S
C1511 C1508 1.511 1_554 S
C1511 H1525 0.961 . S
C1511 H1526 0.961 . S
C1511 H1527 0.961 . S
C1512 C1513 1.370 1_554 S
C1512 C1514 1.363 . S
C1512 H1528 0.931 . S
C1513 C1512 1.370 1_556 S
C1513 C1517 1.408 . S
C1514 C1512 1.363 . S
C1514 C1515 1.370 1_554 S
C1514 C1518 1.524 . S
C1515 C1507 1.503 . S
C1515 C1514 1.370 1_556 S
C1515 C1516 1.403 . S
C1516 C1515 1.403 . S
C1516 C1517 1.404 . S
C1516 C1519 1.539 . S
C1517 C1513 1.408 . S
C1517 C1516 1.404 . S
C1517 H1529 0.930 . S
C1518 C1514 1.524 . S
C1518 H1530 0.956 . S
C1518 H1531 0.961 . S
C1518 H1532 0.961 . S
C1519 C1516 1.539 . S
C1519 H1533 0.958 . S
C1519 H1534 0.961 . S
C1519 H1535 0.960 . S
H1520 C1504 0.931 . S
H1521 C1509 0.929 1_554 S
H1522 C1510 0.960 . S
H1523 C1510 0.962 1_655 S
H1524 C1510 0.960 . S
H1525 C1511 0.961 . S
H1526 C1511 0.961 . S
H1527 C1511 0.961 . S
H1528 C1512 0.931 . S
H1529 C1517 0.930 . S
H1530 C1518 0.956 . S
H1531 C1518 0.961 . S
H1532 C1518 0.961 . S
H1533 C1519 0.958 . S
H1534 C1519 0.961 . S
H1535 C1519 0.960 . S
C1536 C1537 1.391 . S
C1536 C1538 1.394 . S
C1536 H1552 0.931 . S
C1537 C1536 1.391 . S
C1537 C1541 1.376 . S
C1538 C1536 1.394 . S
C1538 C1539 1.369 . S
C1538 C1542 1.531 . S
C1539 C1538 1.369 . S
C1539 C1540 1.410 . S
C1539 C1547 1.503 . S
C1540 C1539 1.410 . S
C1540 C1541 1.392 . S
C1540 C1543 1.511 . S
C1541 C1537 1.376 . S
C1541 C1540 1.392 . S
C1541 H1553 0.929 . S
C1542 C1538 1.531 . S
C1542 H1554 0.960 . S
C1542 H1555 0.962 1_655 S
C1542 H1556 0.960 . S
C1543 C1540 1.511 . S
C1543 H1557 0.961 . S
C1543 H1558 0.961 . S
C1543 H1559 0.961 . S
C1544 C1545 1.370 . S
C1544 C1546 1.363 . S
C1544 H1560 0.931 . S
C1545 C1544 1.370 . S
C1545 C1549 1.408 . S
C1546 C1544 1.363 . S
C1546 C1547 1.370 . S
C1546 C1550 1.524 . S
C1547 C1539 1.503 . S
C1547 C1546 1.370 . S
C1547 C1548 1.403 . S
C1548 C1547 1.403 . S
C1548 C1549 1.404 . S
C1548 C1551 1.539 . S
C1549 C1545 1.408 . S
C1549 C1548 1.404 . S
C1549 H1561 0.930 . S
C1550 C1546 1.524 . S
C1550 H1562 0.956 . S
C1550 H1563 0.961 . S
C1550 H1564 0.961 . S
C1551 C1548 1.539 . S
C1551 H1565 0.958 . S
C1551 H1566 0.961 . S
C1551 H1567 0.960 . S
H1552 C1536 0.931 . S
H1553 C1541 0.929 . S
H1554 C1542 0.960 . S
H1555 C1542 0.962 1_455 S
H1556 C1542 0.960 . S
H1557 C1543 0.961 . S
H1558 C1543 0.961 . S
H1559 C1543 0.961 . S
H1560 C1544 0.931 . S
H1561 C1549 0.930 . S
H1562 C1550 0.956 . S
H1563 C1550 0.961 . S
H1564 C1550 0.961 . S
H1565 C1551 0.958 . S
H1566 C1551 0.961 . S
H1567 C1551 0.960 . S
C1568 C1569 1.391 . S
C1568 C1570 1.394 . S
C1568 H1584 0.931 . S
C1569 C1568 1.391 . S
C1569 C1573 1.376 . S
C1570 C1568 1.394 . S
C1570 C1571 1.369 . S
C1570 C1574 1.531 . S
C1571 C1570 1.369 . S
C1571 C1572 1.410 . S
C1571 C1579 1.503 . S
C1572 C1571 1.410 . S
C1572 C1573 1.392 . S
C1572 C1575 1.516 1_655 S
C1573 C1569 1.376 . S
C1573 C1572 1.392 . S
C1573 H1585 0.929 . S
C1574 C1570 1.531 . S
C1574 H1586 0.960 . S
C1574 H1587 0.962 . S
C1574 H1588 0.960 . S
C1575 C1572 1.516 1_455 S
C1575 H1589 0.973 . S
C1575 H1590 0.976 1_455 S
C1575 H1591 0.929 1_554 S
C1576 C1577 1.370 . S
C1576 C1578 1.363 . S
C1576 H1592 0.931 . S
C1577 C1576 1.370 . S
C1577 C1581 1.408 1_554 S
C1578 C1576 1.363 . S
C1578 C1579 1.370 . S
C1578 C1582 1.524 . S
C1579 C1571 1.503 . S
C1579 C1578 1.370 . S
C1579 C1580 1.403 1_554 S
C1580 C1579 1.403 1_556 S
C1580 C1581 1.404 . S
C1580 C1583 1.539 . S
C1581 C1577 1.408 1_556 S
C1581 C1580 1.404 . S
C1581 H1593 0.930 . S
C1582 C1578 1.524 . S
C1582 H1594 0.956 . S
C1582 H1595 0.961 . S
C1582 H1596 0.961 . S
C1583 C1580 1.539 . S
C1583 H1597 0.958 . S
C1583 H1598 0.961 . S
C1583 H1599 0.960 . S
H1584 C1568 0.931 . S
H1585 C1573 0.929 . S
H1586 C1574 0.960 . S
H1587 C1574 0.962 . S
H1588 C1574 0.960 . S
H1589 C1575 0.973 . S
H1590 C1575 0.976 1_655 S
H1591 C1575 0.929 1_556 S
H1592 C1576 0.931 . S
H1593 C1581 0.930 . S
H1594 C1582 0.956 . S
H1595 C1582 0.961 . S
H1596 C1582 0.961 . S
H1597 C1583 0.958 . S
H1598 C1583 0.961 . S
H1599 C1583 0.960 . S
C1600 C1601 1.391 . S
C1600 C1602 1.394 . S
C1600 H1616 0.931 . S
C1601 C1600 1.391 . S
C1601 C1605 1.376 . S
C1602 C1600 1.394 . S
C1602 C1603 1.369 . S
C1602 C1606 1.531 . S
C1603 C1602 1.369 . S
C1603 C1604 1.410 . S
C1603 C1611 1.503 . S
C1604 C1603 1.410 . S
C1604 C1605 1.392 . S
C1604 C1607 1.511 . S
C1605 C1601 1.376 . S
C1605 C1604 1.392 . S
C1605 H1617 0.929 . S
C1606 C1602 1.531 . S
C1606 H1618 0.960 . S
C1606 H1619 0.962 1_455 S
C1606 H1620 0.960 . S
C1607 C1604 1.511 . S
C1607 H1621 0.961 . S
C1607 H1622 0.961 . S
C1607 H1623 0.961 . S
C1608 C1609 1.370 . S
C1608 C1610 1.363 . S
C1608 H1624 0.931 . S
C1609 C1608 1.370 . S
C1609 C1613 1.408 . S
C1610 C1608 1.363 . S
C1610 C1611 1.370 . S
C1610 C1614 1.524 . S
C1611 C1603 1.503 . S
C1611 C1610 1.370 . S
C1611 C1612 1.403 . S
C1612 C1611 1.403 . S
C1612 C1613 1.404 . S
C1612 C1615 1.539 . S
C1613 C1609 1.408 . S
C1613 C1612 1.404 . S
C1613 H1625 0.930 . S
C1614 C1610 1.524 . S
C1614 H1626 0.956 . S
C1614 H1627 0.961 . S
C1614 H1628 0.961 . S
C1615 C1612 1.539 . S
C1615 H1629 0.958 . S
C1615 H1630 0.961 . S
C1615 H1631 0.960 . S
H1616 C1600 0.931 . S
H1617 C1605 0.929 . S
H1618 C1606 0.960 . S
H1619 C1606 0.962 1_655 S
H1620 C1606 0.960 . S
H1621 C1607 0.961 . S
H1622 C1607 0.961 . S
H1623 C1607 0.961 . S
H1624 C1608 0.931 . S
H1625 C1613 0.930 . S
H1626 C1614 0.956 . S
H1627 C1614 0.961 . S
H1628 C1614 0.961 . S
H1629 C1615 0.958 . S
H1630 C1615 0.961 . S
H1631 C1615 0.960 . S
C1632 C1633 1.391 . S
C1632 C1634 1.394 . S
C1632 H1648 0.931 . S
C1633 C1632 1.391 . S
C1633 C1637 1.376 . S
C1634 C1632 1.394 . S
C1634 C1635 1.369 . S
C1634 C1638 1.531 . S
C1635 C1634 1.369 . S
C1635 C1636 1.410 . S
C1635 C1643 1.503 . S
C1636 C1635 1.410 . S
C1636 C1637 1.392 . S
C1636 C1639 1.511 1_455 S
C1637 C1633 1.376 . S
C1637 C1636 1.392 . S
C1637 H1649 0.929 . S
C1638 C1634 1.531 . S
C1638 H1650 0.960 . S
C1638 H1651 0.962 . S
C1638 H1652 0.960 . S
C1639 C1636 1.511 1_655 S
C1639 H1653 0.961 . S
C1639 H1654 0.961 1_655 S
C1639 H1655 0.961 . S
C1640 C1641 1.370 . S
C1640 C1642 1.363 . S
C1640 H1656 0.931 . S
C1641 C1640 1.370 . S
C1641 C1645 1.408 . S
C1642 C1640 1.363 . S
C1642 C1643 1.370 . S
C1642 C1646 1.524 . S
C1643 C1635 1.503 . S
C1643 C1642 1.370 . S
C1643 C1644 1.403 . S
C1644 C1643 1.403 . S
C1644 C1645 1.404 . S
C1644 C1647 1.539 . S
C1645 C1641 1.408 . S
C1645 C1644 1.404 . S
C1645 H1657 0.930 . S
C1646 C1642 1.524 . S
C1646 H1658 0.956 . S
C1646 H1659 0.961 . S
C1646 H1660 0.961 . S
C1647 C1644 1.539 . S
C1647 H1661 0.958 . S
C1647 H1662 0.961 . S
C1647 H1663 0.960 . S
H1648 C1632 0.931 . S
H1649 C1637 0.929 . S
H1650 C1638 0.960 . S
H1651 C1638 0.962 . S
H1652 C1638 0.960 . S
H1653 C1639 0.961 . S
H1654 C1639 0.961 1_455 S
H1655 C1639 0.961 . S
H1656 C1640 0.931 . S
H1657 C1645 0.930 . S
H1658 C1646 0.956 . S
H1659 C1646 0.961 . S
H1660 C1646 0.961 . S
H1661 C1647 0.958 . S
H1662 C1647 0.961 . S
H1663 C1647 0.960 . S
C1664 C1665 1.391 . S
C1664 C1666 1.394 . S
C1664 H1680 0.931 . S
C1665 C1664 1.391 . S
C1665 C1669 1.376 . S
C1666 C1664 1.394 . S
C1666 C1667 1.369 . S
C1666 C1670 1.531 . S
C1667 C1666 1.369 . S
C1667 C1668 1.410 . S
C1667 C1675 1.503 . S
C1668 C1667 1.410 . S
C1668 C1669 1.392 . S
C1668 C1671 1.511 . S
C1669 C1665 1.376 . S
C1669 C1668 1.392 . S
C1669 H1681 0.929 . S
C1670 C1666 1.531 . S
C1670 H1682 0.960 . S
C1670 H1683 0.962 . S
C1670 H1684 0.960 . S
C1671 C1668 1.511 . S
C1671 H1685 0.961 . S
C1671 H1686 0.961 . S
C1671 H1687 0.961 . S
C1672 C1673 1.370 . S
C1672 C1674 1.363 . S
C1672 H1688 0.931 . S
C1673 C1672 1.370 . S
C1673 C1677 1.408 . S
C1674 C1672 1.363 . S
C1674 C1675 1.370 . S
C1674 C1678 1.524 . S
C1675 C1667 1.503 . S
C1675 C1674 1.370 . S
C1675 C1676 1.403 . S
C1676 C1675 1.403 . S
C1676 C1677 1.404 . S
C1676 C1679 1.539 . S
C1677 C1673 1.408 . S
C1677 C1676 1.404 . S
C1677 H1689 0.930 . S
C1678 C1674 1.524 . S
C1678 H1690 0.956 . S
C1678 H1691 0.961 . S
C1678 H1692 0.961 . S
C1679 C1676 1.539 . S
C1679 H1693 0.958 . S
C1679 H1694 0.961 . S
C1679 H1695 0.960 . S
H1680 C1664 0.931 . S
H1681 C1669 0.929 . S
H1682 C1670 0.960 . S
H1683 C1670 0.962 . S
H1684 C1670 0.960 . S
H1685 C1671 0.961 . S
H1686 C1671 0.961 . S
H1687 C1671 0.961 . S
H1688 C1672 0.931 . S
H1689 C1677 0.930 . S
H1690 C1678 0.956 . S
H1691 C1678 0.961 . S
H1692 C1678 0.961 . S
H1693 C1679 0.958 . S
H1694 C1679 0.961 . S
H1695 C1679 0.960 . S
C1696 C1697 1.391 . S
C1696 C1698 1.394 . S
C1696 H1712 0.931 . S
C1697 C1696 1.391 . S
C1697 C1701 1.376 . S
C1698 C1696 1.394 . S
C1698 C1699 1.369 . S
C1698 C1702 1.531 . S
C1699 C1698 1.369 . S
C1699 C1700 1.410 . S
C1699 C1707 1.503 . S
C1700 C1699 1.410 . S
C1700 C1701 1.392 . S
C1700 C1703 1.511 . S
C1701 C1697 1.376 . S
C1701 C1700 1.392 . S
C1701 H1713 0.929 . S
C1702 C1698 1.531 . S
C1702 H1714 0.960 . S
C1702 H1715 0.962 . S
C1702 H1716 0.960 . S
C1703 C1700 1.511 . S
C1703 H1717 0.961 . S
C1703 H1718 0.961 . S
C1703 H1719 0.961 . S
C1704 C1705 1.370 . S
C1704 C1706 1.363 . S
C1704 H1720 0.931 . S
C1705 C1704 1.370 . S
C1705 C1709 1.408 . S
C1706 C1704 1.363 . S
C1706 C1707 1.370 . S
C1706 C1710 1.524 . S
C1707 C1699 1.503 . S
C1707 C1706 1.370 . S
C1707 C1708 1.403 . S
C1708 C1707 1.403 . S
C1708 C1709 1.404 . S
C1708 C1711 1.539 . S
C1709 C1705 1.408 . S
C1709 C1708 1.404 . S
C1709 H1721 0.930 . S
C1710 C1706 1.524 . S
C1710 H1722 0.956 . S
C1710 H1723 0.961 . S
C1710 H1724 0.961 . S
C1711 C1708 1.539 . S
C1711 H1725 0.958 . S
C1711 H1726 0.961 . S
C1711 H1727 0.960 . S
H1712 C1696 0.931 . S
H1713 C1701 0.929 . S
H1714 C1702 0.960 . S
H1715 C1702 0.962 . S
H1716 C1702 0.960 . S
H1717 C1703 0.961 . S
H1718 C1703 0.961 . S
H1719 C1703 0.961 . S
H1720 C1704 0.931 . S
H1721 C1709 0.930 . S
H1722 C1710 0.956 . S
H1723 C1710 0.961 . S
H1724 C1710 0.961 . S
H1725 C1711 0.958 . S
H1726 C1711 0.961 . S
H1727 C1711 0.960 . S
C1728 C1729 1.391 . S
C1728 C1730 1.394 . S
C1728 H1744 0.931 . S
C1729 C1728 1.391 . S
C1729 C1733 1.376 . S
C1730 C1728 1.394 . S
C1730 C1731 1.369 . S
C1730 C1734 1.531 . S
C1731 C1730 1.369 . S
C1731 C1732 1.410 . S
C1731 C1739 1.503 . S
C1732 C1731 1.410 . S
C1732 C1733 1.392 . S
C1732 C1735 1.511 . S
C1733 C1729 1.376 . S
C1733 C1732 1.392 . S
C1733 H1745 0.929 . S
C1734 C1730 1.531 . S
C1734 H1746 0.960 . S
C1734 H1747 0.962 . S
C1734 H1748 0.960 . S
C1735 C1732 1.511 . S
C1735 H1749 0.961 . S
C1735 H1750 0.961 . S
C1735 H1751 0.961 . S
C1736 C1737 1.370 . S
C1736 C1738 1.363 . S
C1736 H1752 0.931 . S
C1737 C1736 1.370 . S
C1737 C1741 1.408 . S
C1738 C1736 1.363 . S
C1738 C1739 1.370 . S
C1738 C1742 1.524 . S
C1739 C1731 1.503 . S
C1739 C1738 1.370 . S
C1739 C1740 1.403 . S
C1740 C1739 1.403 . S
C1740 C1741 1.404 . S
C1740 C1743 1.539 . S
C1741 C1737 1.408 . S
C1741 C1740 1.404 . S
C1741 H1753 0.930 . S
C1742 C1738 1.524 . S
C1742 H1754 0.956 . S
C1742 H1755 0.961 . S
C1742 H1756 0.961 . S
C1743 C1740 1.539 . S
C1743 H1757 0.958 . S
C1743 H1758 0.961 . S
C1743 H1759 0.960 . S
H1744 C1728 0.931 . S
H1745 C1733 0.929 . S
H1746 C1734 0.960 . S
H1747 C1734 0.962 . S
H1748 C1734 0.960 . S
H1749 C1735 0.961 . S
H1750 C1735 0.961 . S
H1751 C1735 0.961 . S
H1752 C1736 0.931 . S
H1753 C1741 0.930 . S
H1754 C1742 0.956 . S
H1755 C1742 0.961 . S
H1756 C1742 0.961 . S
H1757 C1743 0.958 . S
H1758 C1743 0.961 . S
H1759 C1743 0.960 . S
C1760 C1761 1.391 . S
C1760 C1762 1.394 . S
C1760 H1776 0.931 . S
C1761 C1760 1.391 . S
C1761 C1765 1.376 . S
C1762 C1760 1.394 . S
C1762 C1763 1.369 . S
C1762 C1766 1.531 . S
C1763 C1762 1.369 . S
C1763 C1764 1.410 . S
C1763 C1771 1.503 . S
C1764 C1763 1.410 . S
C1764 C1765 1.392 . S
C1764 C1767 1.511 . S
C1765 C1761 1.376 . S
C1765 C1764 1.392 . S
C1765 H1777 0.929 . S
C1766 C1762 1.531 . S
C1766 H1778 0.960 . S
C1766 H1779 0.962 . S
C1766 H1780 0.960 . S
C1767 C1764 1.511 . S
C1767 H1781 0.961 . S
C1767 H1782 0.961 . S
C1767 H1783 0.961 . S
C1768 C1769 1.370 . S
C1768 C1770 1.363 . S
C1768 H1784 0.931 . S
C1769 C1768 1.370 . S
C1769 C1773 1.408 . S
C1770 C1768 1.363 . S
C1770 C1771 1.370 . S
C1770 C1774 1.524 . S
C1771 C1763 1.503 . S
C1771 C1770 1.370 . S
C1771 C1772 1.403 . S
C1772 C1771 1.403 . S
C1772 C1773 1.404 . S
C1772 C1775 1.539 . S
C1773 C1769 1.408 . S
C1773 C1772 1.404 . S
C1773 H1785 0.930 . S
C1774 C1770 1.524 . S
C1774 H1786 0.956 . S
C1774 H1787 0.961 . S
C1774 H1788 0.961 . S
C1775 C1772 1.539 . S
C1775 H1789 0.958 . S
C1775 H1790 0.961 . S
C1775 H1791 0.960 . S
H1776 C1760 0.931 . S
H1777 C1765 0.929 . S
H1778 C1766 0.960 . S
H1779 C1766 0.962 . S
H1780 C1766 0.960 . S
H1781 C1767 0.961 . S
H1782 C1767 0.961 . S
H1783 C1767 0.961 . S
H1784 C1768 0.931 . S
H1785 C1773 0.930 . S
H1786 C1774 0.956 . S
H1787 C1774 0.961 . S
H1788 C1774 0.961 . S
H1789 C1775 0.958 . S
H1790 C1775 0.961 . S
H1791 C1775 0.960 . S
C1792 C1793 1.391 . S
C1792 C1794 1.394 . S
C1792 H1808 0.931 . S
C1793 C1792 1.391 . S
C1793 C1797 1.376 . S
C1794 C1792 1.394 . S
C1794 C1795 1.369 . S
C1794 C1798 1.531 . S
C1795 C1794 1.369 . S
C1795 C1796 1.410 . S
C1795 C1803 1.503 . S
C1796 C1795 1.410 . S
C1796 C1797 1.392 . S
C1796 C1799 1.511 . S
C1797 C1793 1.376 . S
C1797 C1796 1.392 . S
C1797 H1809 0.929 . S
C1798 C1794 1.531 . S
C1798 H1810 0.960 . S
C1798 H1811 0.962 . S
C1798 H1812 0.960 . S
C1799 C1796 1.511 . S
C1799 H1813 0.961 . S
C1799 H1814 0.961 . S
C1799 H1815 0.961 . S
C1800 C1801 1.370 . S
C1800 C1802 1.363 . S
C1800 H1816 0.931 . S
C1801 C1800 1.370 . S
C1801 C1805 1.408 . S
C1802 C1800 1.363 . S
C1802 C1803 1.370 . S
C1802 C1806 1.524 . S
C1803 C1795 1.503 . S
C1803 C1802 1.370 . S
C1803 C1804 1.403 . S
C1804 C1803 1.403 . S
C1804 C1805 1.404 . S
C1804 C1807 1.539 . S
C1805 C1801 1.408 . S
C1805 C1804 1.404 . S
C1805 H1817 0.930 . S
C1806 C1802 1.524 . S
C1806 H1818 0.956 . S
C1806 H1819 0.961 . S
C1806 H1820 0.961 . S
C1807 C1804 1.539 . S
C1807 H1821 0.958 . S
C1807 H1822 0.961 . S
C1807 H1823 0.960 . S
H1808 C1792 0.931 . S
H1809 C1797 0.929 . S
H1810 C1798 0.960 . S
H1811 C1798 0.962 . S
H1812 C1798 0.960 . S
H1813 C1799 0.961 . S
H1814 C1799 0.961 . S
H1815 C1799 0.961 . S
H1816 C1800 0.931 . S
H1817 C1805 0.930 . S
H1818 C1806 0.956 . S
H1819 C1806 0.961 . S
H1820 C1806 0.961 . S
H1821 C1807 0.958 . S
H1822 C1807 0.961 . S
H1823 C1807 0.960 . S
C1824 C1825 1.391 . S
C1824 C1826 1.394 . S
C1824 H1840 0.931 . S
C1825 C1824 1.391 . S
C1825 C1829 1.376 . S
C1826 C1824 1.394 . S
C1826 C1827 1.369 . S
C1826 C1830 1.531 . S
C1827 C1826 1.369 . S
C1827 C1828 1.410 . S
C1827 C1835 1.503 . S
C1828 C1827 1.410 . S
C1828 C1829 1.392 . S
C1828 C1831 1.511 . S
C1829 C1825 1.376 . S
C1829 C1828 1.392 . S
C1829 H1841 0.929 . S
C1830 C1826 1.531 . S
C1830 H1842 0.960 . S
C1830 H1843 0.962 . S
C1830 H1844 0.960 . S
C1831 C1828 1.511 . S
C1831 H1845 0.961 . S
C1831 H1846 0.961 . S
C1831 H1847 0.961 . S
C1832 C1833 1.370 . S
C1832 C1834 1.363 . S
C1832 H1848 0.931 . S
C1833 C1832 1.370 . S
C1833 C1837 1.408 . S
C1834 C1832 1.363 . S
C1834 C1835 1.370 . S
C1834 C1838 1.524 . S
C1835 C1827 1.503 . S
C1835 C1834 1.370 . S
C1835 C1836 1.403 . S
C1836 C1835 1.403 . S
C1836 C1837 1.404 . S
C1836 C1839 1.539 . S
C1837 C1833 1.408 . S
C1837 C1836 1.404 . S
C1837 H1849 0.930 . S
C1838 C1834 1.524 . S
C1838 H1850 0.956 . S
C1838 H1851 0.961 . S
C1838 H1852 0.961 . S
C1839 C1836 1.539 . S
C1839 H1853 0.958 . S
C1839 H1854 0.961 . S
C1839 H1855 0.960 . S
H1840 C1824 0.931 . S
H1841 C1829 0.929 . S
H1842 C1830 0.960 . S
H1843 C1830 0.962 . S
H1844 C1830 0.960 . S
H1845 C1831 0.961 . S
H1846 C1831 0.961 . S
H1847 C1831 0.961 . S
H1848 C1832 0.931 . S
H1849 C1837 0.930 . S
H1850 C1838 0.956 . S
H1851 C1838 0.961 . S
H1852 C1838 0.961 . S
H1853 C1839 0.958 . S
H1854 C1839 0.961 . S
H1855 C1839 0.960 . S
C1856 C1857 1.391 . S
C1856 C1858 1.394 . S
C1856 H1872 0.931 . S
C1857 C1856 1.391 . S
C1857 C1861 1.376 . S
C1858 C1856 1.394 . S
C1858 C1859 1.369 . S
C1858 C1862 1.531 . S
C1859 C1858 1.369 . S
C1859 C1860 1.410 . S
C1859 C1867 1.503 . S
C1860 C1859 1.410 . S
C1860 C1861 1.392 . S
C1860 C1863 1.511 . S
C1861 C1857 1.376 . S
C1861 C1860 1.392 . S
C1861 H1873 0.929 . S
C1862 C1858 1.531 . S
C1862 H1874 0.960 . S
C1862 H1875 0.962 . S
C1862 H1876 0.960 . S
C1863 C1860 1.511 . S
C1863 H1877 0.961 . S
C1863 H1878 0.961 . S
C1863 H1879 0.961 . S
C1864 C1865 1.370 . S
C1864 C1866 1.363 . S
C1864 H1880 0.931 . S
C1865 C1864 1.370 . S
C1865 C1869 1.408 . S
C1866 C1864 1.363 . S
C1866 C1867 1.370 . S
C1866 C1870 1.524 . S
C1867 C1859 1.503 . S
C1867 C1866 1.370 . S
C1867 C1868 1.403 . S
C1868 C1867 1.403 . S
C1868 C1869 1.404 . S
C1868 C1871 1.539 . S
C1869 C1865 1.408 . S
C1869 C1868 1.404 . S
C1869 H1881 0.930 . S
C1870 C1866 1.524 . S
C1870 H1882 0.956 . S
C1870 H1883 0.961 . S
C1870 H1884 0.961 . S
C1871 C1868 1.539 . S
C1871 H1885 0.958 . S
C1871 H1886 0.961 . S
C1871 H1887 0.960 . S
H1872 C1856 0.931 . S
H1873 C1861 0.929 . S
H1874 C1862 0.960 . S
H1875 C1862 0.962 . S
H1876 C1862 0.960 . S
H1877 C1863 0.961 . S
H1878 C1863 0.961 . S
H1879 C1863 0.961 . S
H1880 C1864 0.931 . S
H1881 C1869 0.930 . S
H1882 C1870 0.956 . S
H1883 C1870 0.961 . S
H1884 C1870 0.961 . S
H1885 C1871 0.958 . S
H1886 C1871 0.961 . S
H1887 C1871 0.960 . S
C1888 C1889 1.391 1_554 S
C1888 C1890 1.394 . S
C1888 H1904 0.931 . S
C1889 C1888 1.391 1_556 S
C1889 C1893 1.376 . S
C1890 C1888 1.394 . S
C1890 C1891 1.369 1_554 S
C1890 C1894 1.531 . S
C1891 C1890 1.369 1_556 S
C1891 C1892 1.410 . S
C1891 C1899 1.503 . S
C1892 C1891 1.410 . S
C1892 C1893 1.392 . S
C1892 C1895 1.511 . S
C1893 C1889 1.376 . S
C1893 C1892 1.392 . S
C1893 H1905 0.929 . S
C1894 C1890 1.531 . S
C1894 H1906 0.960 . S
C1894 H1907 0.962 . S
C1894 H1908 0.960 . S
C1895 C1892 1.511 . S
C1895 H1909 0.961 . S
C1895 H1910 0.961 . S
C1895 H1911 0.961 . S
C1896 C1897 1.370 . S
C1896 C1898 1.363 . S
C1896 H1912 0.931 . S
C1897 C1896 1.370 . S
C1897 C1901 1.408 1_556 S
C1898 C1896 1.363 . S
C1898 C1899 1.370 . S
C1898 C1902 1.524 . S
C1899 C1891 1.503 . S
C1899 C1898 1.370 . S
C1899 C1900 1.403 1_556 S
C1900 C1899 1.403 1_554 S
C1900 C1901 1.404 . S
C1900 C1903 1.539 . S
C1901 C1897 1.408 1_554 S
C1901 C1900 1.404 . S
C1901 H1913 0.930 . S
C1902 C1898 1.524 . S
C1902 H1914 0.956 . S
C1902 H1915 0.961 . S
C1902 H1916 0.961 . S
C1903 C1900 1.539 . S
C1903 H1917 0.958 . S
C1903 H1918 0.961 . S
C1903 H1919 0.960 . S
H1904 C1888 0.931 . S
H1905 C1893 0.929 . S
H1906 C1894 0.960 . S
H1907 C1894 0.962 . S
H1908 C1894 0.960 . S
H1909 C1895 0.961 . S
H1910 C1895 0.961 . S
H1911 C1895 0.961 . S
H1912 C1896 0.931 . S
H1913 C1901 0.930 . S
H1914 C1902 0.956 . S
H1915 C1902 0.961 . S
H1916 C1902 0.961 . S
H1917 C1903 0.958 . S
H1918 C1903 0.961 . S
H1919 C1903 0.960 . S
C1920 C1921 1.391 . S
C1920 C1922 1.394 . S
C1920 H1936 0.931 . S
C1921 C1920 1.391 . S
C1921 C1925 1.376 . S
C1922 C1920 1.394 . S
C1922 C1923 1.369 . S
C1922 C1926 1.531 . S
C1923 C1922 1.369 . S
C1923 C1924 1.410 . S
C1923 C1931 1.503 . S
C1924 C1923 1.410 . S
C1924 C1925 1.392 . S
C1924 C1927 1.511 . S
C1925 C1921 1.376 . S
C1925 C1924 1.392 . S
C1925 H1937 0.929 . S
C1926 C1922 1.531 . S
C1926 H1938 0.960 . S
C1926 H1939 0.962 . S
C1926 H1940 0.960 . S
C1927 C1924 1.511 . S
C1927 H1941 0.961 . S
C1927 H1942 0.961 . S
C1927 H1943 0.961 . S
C1928 C1929 1.370 . S
C1928 C1930 1.363 . S
C1928 H1944 0.931 . S
C1929 C1928 1.370 . S
C1929 C1933 1.408 . S
C1930 C1928 1.363 . S
C1930 C1931 1.370 . S
C1930 C1934 1.524 . S
C1931 C1923 1.503 . S
C1931 C1930 1.370 . S
C1931 C1932 1.403 . S
C1932 C1931 1.403 . S
C1932 C1933 1.404 . S
C1932 C1935 1.539 . S
C1933 C1929 1.408 . S
C1933 C1932 1.404 . S
C1933 H1945 0.930 . S
C1934 C1930 1.524 . S
C1934 H1946 0.956 . S
C1934 H1947 0.961 . S
C1934 H1948 0.961 . S
C1935 C1932 1.539 . S
C1935 H1949 0.958 . S
C1935 H1950 0.961 . S
C1935 H1951 0.960 . S
H1936 C1920 0.931 . S
H1937 C1925 0.929 . S
H1938 C1926 0.960 . S
H1939 C1926 0.962 . S
H1940 C1926 0.960 . S
H1941 C1927 0.961 . S
H1942 C1927 0.961 . S
H1943 C1927 0.961 . S
H1944 C1928 0.931 . S
H1945 C1933 0.930 . S
H1946 C1934 0.956 . S
H1947 C1934 0.961 . S
H1948 C1934 0.961 . S
H1949 C1935 0.958 . S
H1950 C1935 0.961 . S
H1951 C1935 0.960 . S
C1952 C1953 1.391 1_556 S
C1952 C1954 1.394 . S
C1952 H1968 0.931 . S
C1953 C1952 1.391 1_554 S
C1953 C1957 1.376 . S
C1954 C1952 1.394 . S
C1954 C1955 1.369 1_556 S
C1954 C1958 1.531 . S
C1955 C1954 1.369 1_554 S
C1955 C1956 1.410 . S
C1955 C1963 1.503 . S
C1956 C1955 1.410 . S
C1956 C1957 1.392 . S
C1956 C1959 1.511 . S
C1957 C1953 1.376 . S
C1957 C1956 1.392 . S
C1957 H1969 0.929 . S
C1958 C1954 1.531 . S
C1958 H1970 0.960 . S
C1958 H1971 0.962 . S
C1958 H1972 0.960 . S
C1959 C1956 1.511 . S
C1959 H1973 0.961 . S
C1959 H1974 0.961 . S
C1959 H1975 0.961 . S
C1960 C1961 1.370 . S
C1960 C1962 1.363 . S
C1960 H1976 0.931 . S
C1961 C1960 1.370 . S
C1961 C1965 1.408 1_554 S
C1962 C1960 1.363 . S
C1962 C1963 1.370 . S
C1962 C1966 1.524 . S
C1963 C1955 1.503 . S
C1963 C1962 1.370 . S
C1963 C1964 1.403 1_554 S
C1964 C1963 1.403 1_556 S
C1964 C1965 1.404 . S
C1964 C1967 1.539 . S
C1965 C1961 1.408 1_556 S
C1965 C1964 1.404 . S
C1965 H1977 0.930 . S
C1966 C1962 1.524 . S
C1966 H1978 0.956 . S
C1966 H1979 0.961 . S
C1966 H1980 0.961 . S
C1967 C1964 1.539 . S
C1967 H1981 0.958 . S
C1967 H1982 0.961 . S
C1967 H1983 0.960 . S
H1968 C1952 0.931 . S
H1969 C1957 0.929 . S
H1970 C1958 0.960 . S
H1971 C1958 0.962 . S
H1972 C1958 0.960 . S
H1973 C1959 0.961 . S
H1974 C1959 0.961 . S
H1975 C1959 0.961 . S
H1976 C1960 0.931 . S
H1977 C1965 0.930 . S
H1978 C1966 0.956 . S
H1979 C1966 0.961 . S
H1980 C1966 0.961 . S
H1981 C1967 0.958 . S
H1982 C1967 0.961 . S
H1983 C1967 0.960 . S
C1984 C1985 1.391 . S
C1984 C1986 1.394 . S
C1984 H2000 0.931 1_655 S
C1985 C1984 1.391 . S
C1985 C1989 1.376 . S
C1986 C1984 1.394 . S
C1986 C1987 1.369 . S
C1986 C1990 1.531 . S
C1987 C1986 1.369 . S
C1987 C1988 1.410 . S
C1987 C1995 1.503 . S
C1988 C1987 1.410 . S
C1988 C1989 1.392 . S
C1988 C1991 1.511 . S
C1989 C1985 1.376 . S
C1989 C1988 1.392 . S
C1989 H2001 0.929 . S
C1990 C1986 1.531 . S
C1990 H2002 0.960 . S
C1990 H2003 0.962 1_655 S
C1990 H2004 0.960 1_655 S
C1991 C1988 1.511 . S
C1991 H2005 0.961 . S
C1991 H2006 0.961 . S
C1991 H2007 0.961 . S
C1992 C1993 1.370 . S
C1992 C1994 1.363 . S
C1992 H2008 0.931 . S
C1993 C1992 1.370 . S
C1993 C1997 1.408 . S
C1994 C1992 1.363 . S
C1994 C1995 1.370 . S
C1994 C1998 1.524 . S
C1995 C1987 1.503 . S
C1995 C1994 1.370 . S
C1995 C1996 1.403 . S
C1996 C1995 1.403 . S
C1996 C1997 1.404 . S
C1996 C1999 1.539 . S
C1997 C1993 1.408 . S
C1997 C1996 1.404 . S
C1997 H2009 0.930 . S
C1998 C1994 1.524 . S
C1998 H2010 0.956 . S
C1998 H2011 0.961 . S
C1998 H2012 0.961 . S
C1999 C1996 1.539 . S
C1999 H2013 0.958 . S
C1999 H2014 0.961 . S
C1999 H2015 0.960 . S
H2000 C1984 0.931 1_455 S
H2001 C1989 0.929 . S
H2002 C1990 0.960 . S
H2003 C1990 0.962 1_455 S
H2004 C1990 0.960 1_455 S
H2005 C1991 0.961 . S
H2006 C1991 0.961 . S
H2007 C1991 0.961 . S
H2008 C1992 0.931 . S
H2009 C1997 0.930 . S
H2010 C1998 0.956 . S
H2011 C1998 0.961 . S
H2012 C1998 0.961 . S
H2013 C1999 0.958 . S
H2014 C1999 0.961 . S
H2015 C1999 0.960 . S
C2016 C2017 1.391 . S
C2016 C2018 1.394 . S
C2016 H2032 0.931 . S
C2017 C2016 1.391 . S
C2017 C2021 1.376 . S
C2018 C2016 1.394 . S
C2018 C2019 1.369 . S
C2018 C2022 1.531 . S
C2019 C2018 1.369 . S
C2019 C2020 1.410 . S
C2019 C2027 1.503 . S
C2020 C2019 1.410 . S
C2020 C2021 1.392 . S
C2020 C2023 1.511 . S
C2021 C2017 1.376 . S
C2021 C2020 1.392 . S
C2021 H2033 0.929 . S
C2022 C2018 1.531 . S
C2022 H2034 0.960 . S
C2022 H2035 0.962 . S
C2022 H2036 0.960 . S
C2023 C2020 1.511 . S
C2023 H2037 0.961 . S
C2023 H2038 0.961 . S
C2023 H2039 0.961 . S
C2024 C2025 1.370 . S
C2024 C2026 1.363 . S
C2024 H2040 0.931 . S
C2025 C2024 1.370 . S
C2025 C2029 1.408 . S
C2026 C2024 1.363 . S
C2026 C2027 1.370 . S
C2026 C2030 1.524 . S
C2027 C2019 1.503 . S
C2027 C2026 1.370 . S
C2027 C2028 1.403 . S
C2028 C2027 1.403 . S
C2028 C2029 1.404 . S
C2028 C2031 1.539 . S
C2029 C2025 1.408 . S
C2029 C2028 1.404 . S
C2029 H2041 0.930 . S
C2030 C2026 1.524 . S
C2030 H2042 0.956 . S
C2030 H2043 0.961 . S
C2030 H2044 0.961 . S
C2031 C2028 1.539 . S
C2031 H2045 0.958 . S
C2031 H2046 0.961 . S
C2031 H2047 0.960 . S
H2032 C2016 0.931 . S
H2033 C2021 0.929 . S
H2034 C2022 0.960 . S
H2035 C2022 0.962 . S
H2036 C2022 0.960 . S
H2037 C2023 0.961 . S
H2038 C2023 0.961 . S
H2039 C2023 0.961 . S
H2040 C2024 0.931 . S
H2041 C2029 0.930 . S
H2042 C2030 0.956 . S
H2043 C2030 0.961 . S
H2044 C2030 0.961 . S
H2045 C2031 0.958 . S
H2046 C2031 0.961 . S
H2047 C2031 0.960 . S
C2048 C2049 1.391 . S
C2048 C2050 1.394 . S
C2048 H2064 0.931 . S
C2049 C2048 1.391 . S
C2049 C2053 1.376 . S
C2050 C2048 1.394 . S
C2050 C2051 1.369 . S
C2050 C2054 1.531 . S
C2051 C2050 1.369 . S
C2051 C2052 1.410 . S
C2051 C2059 1.503 . S
C2052 C2051 1.410 . S
C2052 C2053 1.392 . S
C2052 C2055 1.511 . S
C2053 C2049 1.376 . S
C2053 C2052 1.392 . S
C2053 H2065 0.929 . S
C2054 C2050 1.531 . S
C2054 H2066 0.960 . S
C2054 H2067 0.962 . S
C2054 H2068 0.960 . S
C2055 C2052 1.511 . S
C2055 H2069 0.961 . S
C2055 H2070 0.961 . S
C2055 H2071 0.961 . S
C2056 C2057 1.370 . S
C2056 C2058 1.363 . S
C2056 H2072 0.931 . S
C2057 C2056 1.370 . S
C2057 C2061 1.408 . S
C2058 C2056 1.363 . S
C2058 C2059 1.370 . S
C2058 C2062 1.524 . S
C2059 C2051 1.503 . S
C2059 C2058 1.370 . S
C2059 C2060 1.403 . S
C2060 C2059 1.403 . S
C2060 C2061 1.404 . S
C2060 C2063 1.539 . S
C2061 C2057 1.408 . S
C2061 C2060 1.404 . S
C2061 H2073 0.930 . S
C2062 C2058 1.524 . S
C2062 H2074 0.956 . S
C2062 H2075 0.961 . S
C2062 H2076 0.961 . S
C2063 C2060 1.539 . S
C2063 H2077 0.958 . S
C2063 H2078 0.961 . S
C2063 H2079 0.960 . S
H2064 C2048 0.931 . S
H2065 C2053 0.929 . S
H2066 C2054 0.960 . S
H2067 C2054 0.962 . S
H2068 C2054 0.960 . S
H2069 C2055 0.961 . S
H2070 C2055 0.961 . S
H2071 C2055 0.961 . S
H2072 C2056 0.931 . S
H2073 C2061 0.930 . S
H2074 C2062 0.956 . S
H2075 C2062 0.961 . S
H2076 C2062 0.961 . S
H2077 C2063 0.958 . S
H2078 C2063 0.961 . S
H2079 C2063 0.960 . S
C2080 C2081 1.391 . S
C2080 C2082 1.394 . S
C2080 H2096 0.931 . S
C2081 C2080 1.391 . S
C2081 C2085 1.376 . S
C2082 C2080 1.394 . S
C2082 C2083 1.369 . S
C2082 C2086 1.531 . S
C2083 C2082 1.369 . S
C2083 C2084 1.410 . S
C2083 C2091 1.503 . S
C2084 C2083 1.410 . S
C2084 C2085 1.392 . S
C2084 C2087 1.511 . S
C2085 C2081 1.376 . S
C2085 C2084 1.392 . S
C2085 H2097 0.929 . S
C2086 C2082 1.531 . S
C2086 H2098 0.960 . S
C2086 H2099 0.962 . S
C2086 H2100 0.960 . S
C2087 C2084 1.511 . S
C2087 H2101 0.961 . S
C2087 H2102 0.961 . S
C2087 H2103 0.961 . S
C2088 C2089 1.370 . S
C2088 C2090 1.363 . S
C2088 H2104 0.931 . S
C2089 C2088 1.370 . S
C2089 C2093 1.408 . S
C2090 C2088 1.363 . S
C2090 C2091 1.370 . S
C2090 C2094 1.524 . S
C2091 C2083 1.503 . S
C2091 C2090 1.370 . S
C2091 C2092 1.403 . S
C2092 C2091 1.403 . S
C2092 C2093 1.404 . S
C2092 C2095 1.539 . S
C2093 C2089 1.408 . S
C2093 C2092 1.404 . S
C2093 H2105 0.930 . S
C2094 C2090 1.524 . S
C2094 H2106 0.956 . S
C2094 H2107 0.961 . S
C2094 H2108 0.961 . S
C2095 C2092 1.539 . S
C2095 H2109 0.958 . S
C2095 H2110 0.961 . S
C2095 H2111 0.960 . S
H2096 C2080 0.931 . S
H2097 C2085 0.929 . S
H2098 C2086 0.960 . S
H2099 C2086 0.962 . S
H2100 C2086 0.960 . S
H2101 C2087 0.961 . S
H2102 C2087 0.961 . S
H2103 C2087 0.961 . S
H2104 C2088 0.931 . S
H2105 C2093 0.930 . S
H2106 C2094 0.956 . S
H2107 C2094 0.961 . S
H2108 C2094 0.961 . S
H2109 C2095 0.958 . S
H2110 C2095 0.961 . S
H2111 C2095 0.960 . S
C2112 C2113 1.391 . S
C2112 C2114 1.394 . S
C2112 H2128 0.931 . S
C2113 C2112 1.391 . S
C2113 C2117 1.376 . S
C2114 C2112 1.394 . S
C2114 C2115 1.369 . S
C2114 C2118 1.531 . S
C2115 C2114 1.369 . S
C2115 C2116 1.410 . S
C2115 C2123 1.503 . S
C2116 C2115 1.410 . S
C2116 C2117 1.392 . S
C2116 C2119 1.511 . S
C2117 C2113 1.376 . S
C2117 C2116 1.392 . S
C2117 H2129 0.929 . S
C2118 C2114 1.531 . S
C2118 H2130 0.960 . S
C2118 H2131 0.962 . S
C2118 H2132 0.960 . S
C2119 C2116 1.511 . S
C2119 H2133 0.961 . S
C2119 H2134 0.961 . S
C2119 H2135 0.961 . S
C2120 C2121 1.370 . S
C2120 C2122 1.363 . S
C2120 H2136 0.931 . S
C2121 C2120 1.370 . S
C2121 C2125 1.408 . S
C2122 C2120 1.363 . S
C2122 C2123 1.370 . S
C2122 C2126 1.524 . S
C2123 C2115 1.503 . S
C2123 C2122 1.370 . S
C2123 C2124 1.403 . S
C2124 C2123 1.403 . S
C2124 C2125 1.404 . S
C2124 C2127 1.539 1_455 S
C2125 C2121 1.408 . S
C2125 C2124 1.404 . S
C2125 H2137 0.930 1_455 S
C2126 C2122 1.524 . S
C2126 H2138 0.956 . S
C2126 H2139 0.961 . S
C2126 H2140 0.961 . S
C2127 C2124 1.539 1_655 S
C2127 H2141 0.958 . S
C2127 H2142 0.961 . S
C2127 H2143 0.960 1_655 S
H2128 C2112 0.931 . S
H2129 C2117 0.929 . S
H2130 C2118 0.960 . S
H2131 C2118 0.962 . S
H2132 C2118 0.960 . S
H2133 C2119 0.961 . S
H2134 C2119 0.961 . S
H2135 C2119 0.961 . S
H2136 C2120 0.931 . S
H2137 C2125 0.930 1_655 S
H2138 C2126 0.956 . S
H2139 C2126 0.961 . S
H2140 C2126 0.961 . S
H2141 C2127 0.958 . S
H2142 C2127 0.961 . S
H2143 C2127 0.960 1_455 S
C2144 C2145 1.391 . S
C2144 C2146 1.394 . S
C2144 H2160 0.931 . S
C2145 C2144 1.391 . S
C2145 C2149 1.376 . S
C2146 C2144 1.394 . S
C2146 C2147 1.369 . S
C2146 C2150 1.531 . S
C2147 C2146 1.369 . S
C2147 C2148 1.410 . S
C2147 C2155 1.503 . S
C2148 C2147 1.410 . S
C2148 C2149 1.392 . S
C2148 C2151 1.511 . S
C2149 C2145 1.376 . S
C2149 C2148 1.392 . S
C2149 H2161 0.929 . S
C2150 C2146 1.531 . S
C2150 H2162 0.960 . S
C2150 H2163 0.962 . S
C2150 H2164 0.960 . S
C2151 C2148 1.511 . S
C2151 H2165 0.961 . S
C2151 H2166 0.961 . S
C2151 H2167 0.961 . S
C2152 C2153 1.370 . S
C2152 C2154 1.363 . S
C2152 H2168 0.931 . S
C2153 C2152 1.370 . S
C2153 C2157 1.408 . S
C2154 C2152 1.363 . S
C2154 C2155 1.370 . S
C2154 C2158 1.524 . S
C2155 C2147 1.503 . S
C2155 C2154 1.370 . S
C2155 C2156 1.403 . S
C2156 C2155 1.403 . S
C2156 C2157 1.404 . S
C2156 C2159 1.539 . S
C2157 C2153 1.408 . S
C2157 C2156 1.404 . S
C2157 H2169 0.930 . S
C2158 C2154 1.524 . S
C2158 H2170 0.956 . S
C2158 H2171 0.961 . S
C2158 H2172 0.961 . S
C2159 C2156 1.539 . S
C2159 H2173 0.958 . S
C2159 H2174 0.961 . S
C2159 H2175 0.960 . S
H2160 C2144 0.931 . S
H2161 C2149 0.929 . S
H2162 C2150 0.960 . S
H2163 C2150 0.962 . S
H2164 C2150 0.960 . S
H2165 C2151 0.961 . S
H2166 C2151 0.961 . S
H2167 C2151 0.961 . S
H2168 C2152 0.931 . S
H2169 C2157 0.930 . S
H2170 C2158 0.956 . S
H2171 C2158 0.961 . S
H2172 C2158 0.961 . S
H2173 C2159 0.958 . S
H2174 C2159 0.961 . S
H2175 C2159 0.960 . S
C2176 C2177 1.391 . S
C2176 C2178 1.394 . S
C2176 H2192 0.931 . S
C2177 C2176 1.391 . S
C2177 C2181 1.376 . S
C2178 C2176 1.394 . S
C2178 C2179 1.369 . S
C2178 C2182 1.531 . S
C2179 C2178 1.369 . S
C2179 C2180 1.410 . S
C2179 C2187 1.503 . S
C2180 C2179 1.410 . S
C2180 C2181 1.392 . S
C2180 C2183 1.511 . S
C2181 C2177 1.376 . S
C2181 C2180 1.392 . S
C2181 H2193 0.929 . S
C2182 C2178 1.531 . S
C2182 H2194 0.960 . S
C2182 H2195 0.962 . S
C2182 H2196 0.960 . S
C2183 C2180 1.511 . S
C2183 H2197 0.961 . S
C2183 H2198 0.961 . S
C2183 H2199 0.961 . S
C2184 C2185 1.370 . S
C2184 C2186 1.363 . S
C2184 H2200 0.931 . S
C2185 C2184 1.370 . S
C2185 C2189 1.408 . S
C2186 C2184 1.363 . S
C2186 C2187 1.370 . S
C2186 C2190 1.524 . S
C2187 C2179 1.503 . S
C2187 C2186 1.370 . S
C2187 C2188 1.403 . S
C2188 C2187 1.403 . S
C2188 C2189 1.404 . S
C2188 C2191 1.539 . S
C2189 C2185 1.408 . S
C2189 C2188 1.404 . S
C2189 H2201 0.930 1_455 S
C2190 C2186 1.524 . S
C2190 H2202 0.956 . S
C2190 H2203 0.961 . S
C2190 H2204 0.961 . S
C2191 C2188 1.539 . S
C2191 H2205 0.958 1_455 S
C2191 H2206 0.961 1_455 S
C2191 H2207 0.960 . S
H2192 C2176 0.931 . S
H2193 C2181 0.929 . S
H2194 C2182 0.960 . S
H2195 C2182 0.962 . S
H2196 C2182 0.960 . S
H2197 C2183 0.961 . S
H2198 C2183 0.961 . S
H2199 C2183 0.961 . S
H2200 C2184 0.931 . S
H2201 C2189 0.930 1_655 S
H2202 C2190 0.956 . S
H2203 C2190 0.961 . S
H2204 C2190 0.961 . S
H2205 C2191 0.958 1_655 S
H2206 C2191 0.961 1_655 S
H2207 C2191 0.960 . S
C2208 C2209 1.391 . S
C2208 C2210 1.394 . S
C2208 H2224 0.931 . S
C2209 C2208 1.391 . S
C2209 C2213 1.376 . S
C2210 C2208 1.394 . S
C2210 C2211 1.369 . S
C2210 C2214 1.531 . S
C2211 C2210 1.369 . S
C2211 C2212 1.410 . S
C2211 C2219 1.503 . S
C2212 C2211 1.410 . S
C2212 C2213 1.392 . S
C2212 C2215 1.511 . S
C2213 C2209 1.376 . S
C2213 C2212 1.392 . S
C2213 H2225 0.929 . S
C2214 C2210 1.531 . S
C2214 H2226 0.960 . S
C2214 H2227 0.962 . S
C2214 H2228 0.960 . S
C2215 C2212 1.511 . S
C2215 H2229 0.961 . S
C2215 H2230 0.961 . S
C2215 H2231 0.961 . S
C2216 C2217 1.370 . S
C2216 C2218 1.363 . S
C2216 H2232 0.931 . S
C2217 C2216 1.370 . S
C2217 C2221 1.408 . S
C2218 C2216 1.363 . S
C2218 C2219 1.370 . S
C2218 C2222 1.524 . S
C2219 C2211 1.503 . S
C2219 C2218 1.370 . S
C2219 C2220 1.403 . S
C2220 C2219 1.403 . S
C2220 C2221 1.404 . S
C2220 C2223 1.539 . S
C2221 C2217 1.408 . S
C2221 C2220 1.404 . S
C2221 H2233 0.930 . S
C2222 C2218 1.524 . S
C2222 H2234 0.956 . S
C2222 H2235 0.961 . S
C2222 H2236 0.961 . S
C2223 C2220 1.539 . S
C2223 H2237 0.958 . S
C2223 H2238 0.961 . S
C2223 H2239 0.960 . S
H2224 C2208 0.931 . S
H2225 C2213 0.929 . S
H2226 C2214 0.960 . S
H2227 C2214 0.962 . S
H2228 C2214 0.960 . S
H2229 C2215 0.961 . S
H2230 C2215 0.961 . S
H2231 C2215 0.961 . S
H2232 C2216 0.931 . S
H2233 C2221 0.930 . S
H2234 C2222 0.956 . S
H2235 C2222 0.961 . S
H2236 C2222 0.961 . S
H2237 C2223 0.958 . S
H2238 C2223 0.961 . S
H2239 C2223 0.960 . S
C2240 C2241 1.391 . S
C2240 C2242 1.394 . S
C2240 H2256 0.931 . S
C2241 C2240 1.391 . S
C2241 C2245 1.376 . S
C2242 C2240 1.394 . S
C2242 C2243 1.369 . S
C2242 C2246 1.531 . S
C2243 C2242 1.369 . S
C2243 C2244 1.410 . S
C2243 C2251 1.503 . S
C2244 C2243 1.410 . S
C2244 C2245 1.392 . S
C2244 C2247 1.511 1_655 S
C2245 C2241 1.376 . S
C2245 C2244 1.392 . S
C2245 H2257 0.929 1_655 S
C2246 C2242 1.531 . S
C2246 H2258 0.960 . S
C2246 H2259 0.962 . S
C2246 H2260 0.960 . S
C2247 C2244 1.511 1_455 S
C2247 H2261 0.961 . S
C2247 H2262 0.961 1_455 S
C2247 H2263 0.961 . S
C2248 C2249 1.370 . S
C2248 C2250 1.363 . S
C2248 H2264 0.931 . S
C2249 C2248 1.370 . S
C2249 C2253 1.408 . S
C2250 C2248 1.363 . S
C2250 C2251 1.370 . S
C2250 C2254 1.524 . S
C2251 C2243 1.503 . S
C2251 C2250 1.370 . S
C2251 C2252 1.403 . S
C2252 C2251 1.403 . S
C2252 C2253 1.404 . S
C2252 C2255 1.539 . S
C2253 C2249 1.408 . S
C2253 C2252 1.404 . S
C2253 H2265 0.930 . S
C2254 C2250 1.524 . S
C2254 H2266 0.956 . S
C2254 H2267 0.961 . S
C2254 H2268 0.961 . S
C2255 C2252 1.539 . S
C2255 H2269 0.958 . S
C2255 H2270 0.961 . S
C2255 H2271 0.960 . S
H2256 C2240 0.931 . S
H2257 C2245 0.929 1_455 S
H2258 C2246 0.960 . S
H2259 C2246 0.962 . S
H2260 C2246 0.960 . S
H2261 C2247 0.961 . S
H2262 C2247 0.961 1_655 S
H2263 C2247 0.961 . S
H2264 C2248 0.931 . S
H2265 C2253 0.930 . S
H2266 C2254 0.956 . S
H2267 C2254 0.961 . S
H2268 C2254 0.961 . S
H2269 C2255 0.958 . S
H2270 C2255 0.961 . S
H2271 C2255 0.960 . S
C2272 C2273 1.391 . S
C2272 C2274 1.394 . S
C2272 H2288 0.931 . S
C2273 C2272 1.391 . S
C2273 C2277 1.376 . S
C2274 C2272 1.394 . S
C2274 C2275 1.369 . S
C2274 C2278 1.531 . S
C2275 C2274 1.369 . S
C2275 C2276 1.410 . S
C2275 C2283 1.503 . S
C2276 C2275 1.410 . S
C2276 C2277 1.392 . S
C2276 C2279 1.511 . S
C2277 C2273 1.376 . S
C2277 C2276 1.392 . S
C2277 H2289 0.929 . S
C2278 C2274 1.531 . S
C2278 H2290 0.960 . S
C2278 H2291 0.962 . S
C2278 H2292 0.960 . S
C2279 C2276 1.511 . S
C2279 H2293 0.961 . S
C2279 H2294 0.961 . S
C2279 H2295 0.961 . S
C2280 C2281 1.370 . S
C2280 C2282 1.363 . S
C2280 H2296 0.931 . S
C2281 C2280 1.370 . S
C2281 C2285 1.408 . S
C2282 C2280 1.363 . S
C2282 C2283 1.370 . S
C2282 C2286 1.524 . S
C2283 C2275 1.503 . S
C2283 C2282 1.370 . S
C2283 C2284 1.403 . S
C2284 C2283 1.403 . S
C2284 C2285 1.404 . S
C2284 C2287 1.539 . S
C2285 C2281 1.408 . S
C2285 C2284 1.404 . S
C2285 H2297 0.930 . S
C2286 C2282 1.524 . S
C2286 H2298 0.956 . S
C2286 H2299 0.961 . S
C2286 H2300 0.961 . S
C2287 C2284 1.539 . S
C2287 H2301 0.958 . S
C2287 H2302 0.961 . S
C2287 H2303 0.960 . S
H2288 C2272 0.931 . S
H2289 C2277 0.929 . S
H2290 C2278 0.960 . S
H2291 C2278 0.962 . S
H2292 C2278 0.960 . S
H2293 C2279 0.961 . S
H2294 C2279 0.961 . S
H2295 C2279 0.961 . S
H2296 C2280 0.931 . S
H2297 C2285 0.930 . S
H2298 C2286 0.956 . S
H2299 C2286 0.961 . S
H2300 C2286 0.961 . S
H2301 C2287 0.958 . S
H2302 C2287 0.961 . S
H2303 C2287 0.960 . S
C2304 C2305 1.391 . S
C2304 C2306 1.394 . S
C2304 H2320 0.931 . S
C2305 C2304 1.391 . S
C2305 C2309 1.376 . S
C2306 C2304 1.394 . S
C2306 C2307 1.369 . S
C2306 C2310 1.531 . S
C2307 C2306 1.369 . S
C2307 C2308 1.410 . S
C2307 C2315 1.503 . S
C2308 C2307 1.410 . S
C2308 C2309 1.392 . S
C2308 C2311 1.511 . S
C2309 C2305 1.376 . S
C2309 C2308 1.392 . S
C2309 H2321 0.929 1_655 S
C2310 C2306 1.531 . S
C2310 H2322 0.960 . S
C2310 H2323 0.962 . S
C2310 H2324 0.960 . S
C2311 C2308 1.511 . S
C2311 H2325 0.961 . S
C2311 H2326 0.961 . S
C2311 H2327 0.961 1_655 S
C2312 C2313 1.370 . S
C2312 C2314 1.363 . S
C2312 H2328 0.931 . S
C2313 C2312 1.370 . S
C2313 C2317 1.408 . S
C2314 C2312 1.363 . S
C2314 C2315 1.370 . S
C2314 C2318 1.524 . S
C2315 C2307 1.503 . S
C2315 C2314 1.370 . S
C2315 C2316 1.403 . S
C2316 C2315 1.403 . S
C2316 C2317 1.404 . S
C2316 C2319 1.539 . S
C2317 C2313 1.408 . S
C2317 C2316 1.404 . S
C2317 H2329 0.930 . S
C2318 C2314 1.524 . S
C2318 H2330 0.956 . S
C2318 H2331 0.961 . S
C2318 H2332 0.961 . S
C2319 C2316 1.539 . S
C2319 H2333 0.958 . S
C2319 H2334 0.961 . S
C2319 H2335 0.960 . S
H2320 C2304 0.931 . S
H2321 C2309 0.929 1_455 S
H2322 C2310 0.960 . S
H2323 C2310 0.962 . S
H2324 C2310 0.960 . S
H2325 C2311 0.961 . S
H2326 C2311 0.961 . S
H2327 C2311 0.961 1_455 S
H2328 C2312 0.931 . S
H2329 C2317 0.930 . S
H2330 C2318 0.956 . S
H2331 C2318 0.961 . S
H2332 C2318 0.961 . S
H2333 C2319 0.958 . S
H2334 C2319 0.961 . S
H2335 C2319 0.960 . S
C2336 C2337 1.391 . S
C2336 C2338 1.394 . S
C2336 H2352 0.931 . S
C2337 C2336 1.391 . S
C2337 C2341 1.376 . S
C2338 C2336 1.394 . S
C2338 C2339 1.369 . S
C2338 C2342 1.531 . S
C2339 C2338 1.369 . S
C2339 C2340 1.410 . S
C2339 C2347 1.503 . S
C2340 C2339 1.410 . S
C2340 C2341 1.392 . S
C2340 C2343 1.511 . S
C2341 C2337 1.376 . S
C2341 C2340 1.392 . S
C2341 H2353 0.929 . S
C2342 C2338 1.531 . S
C2342 H2354 0.960 . S
C2342 H2355 0.962 . S
C2342 H2356 0.960 . S
C2343 C2340 1.511 . S
C2343 H2357 0.961 . S
C2343 H2358 0.961 . S
C2343 H2359 0.961 . S
C2344 C2345 1.370 . S
C2344 C2346 1.363 . S
C2344 H2360 0.931 . S
C2345 C2344 1.370 . S
C2345 C2349 1.408 . S
C2346 C2344 1.363 . S
C2346 C2347 1.370 . S
C2346 C2350 1.524 . S
C2347 C2339 1.503 . S
C2347 C2346 1.370 . S
C2347 C2348 1.403 . S
C2348 C2347 1.403 . S
C2348 C2349 1.404 . S
C2348 C2351 1.539 . S
C2349 C2345 1.408 . S
C2349 C2348 1.404 . S
C2349 H2361 0.930 . S
C2350 C2346 1.524 . S
C2350 H2362 0.956 . S
C2350 H2363 0.961 . S
C2350 H2364 0.961 . S
C2351 C2348 1.539 . S
C2351 H2365 0.958 . S
C2351 H2366 0.961 . S
C2351 H2367 0.960 . S
H2352 C2336 0.931 . S
H2353 C2341 0.929 . S
H2354 C2342 0.960 . S
H2355 C2342 0.962 . S
H2356 C2342 0.960 . S
H2357 C2343 0.961 . S
H2358 C2343 0.961 . S
H2359 C2343 0.961 . S
H2360 C2344 0.931 . S
H2361 C2349 0.930 . S
H2362 C2350 0.956 . S
H2363 C2350 0.961 . S
H2364 C2350 0.961 . S
H2365 C2351 0.958 . S
H2366 C2351 0.961 . S
H2367 C2351 0.960 . S
C2368 C2369 1.391 . S
C2368 C2370 1.394 . S
C2368 H2384 0.931 . S
C2369 C2368 1.391 . S
C2369 C2373 1.376 . S
C2370 C2368 1.394 . S
C2370 C2371 1.369 . S
C2370 C2374 1.531 . S
C2371 C2370 1.369 . S
C2371 C2372 1.410 . S
C2371 C2379 1.503 . S
C2372 C2371 1.410 . S
C2372 C2373 1.392 . S
C2372 C2375 1.511 1_455 S
C2373 C2369 1.376 . S
C2373 C2372 1.392 . S
C2373 H2385 0.929 1_455 S
C2374 C2370 1.531 . S
C2374 H2386 0.960 . S
C2374 H2387 0.962 . S
C2374 H2388 0.960 . S
C2375 C2372 1.511 1_655 S
C2375 H2389 0.961 . S
C2375 H2390 0.961 1_655 S
C2375 H2391 0.961 . S
C2376 C2377 1.370 . S
C2376 C2378 1.363 . S
C2376 H2392 0.931 . S
C2377 C2376 1.370 . S
C2377 C2381 1.408 . S
C2378 C2376 1.363 . S
C2378 C2379 1.370 . S
C2378 C2382 1.524 . S
C2379 C2371 1.503 . S
C2379 C2378 1.370 . S
C2379 C2380 1.403 . S
C2380 C2379 1.403 . S
C2380 C2381 1.404 . S
C2380 C2383 1.539 . S
C2381 C2377 1.408 . S
C2381 C2380 1.404 . S
C2381 H2393 0.930 . S
C2382 C2378 1.524 . S
C2382 H2394 0.956 . S
C2382 H2395 0.961 . S
C2382 H2396 0.961 . S
C2383 C2380 1.539 . S
C2383 H2397 0.958 . S
C2383 H2398 0.961 . S
C2383 H2399 0.960 . S
H2384 C2368 0.931 . S
H2385 C2373 0.929 1_655 S
H2386 C2374 0.960 . S
H2387 C2374 0.962 . S
H2388 C2374 0.960 . S
H2389 C2375 0.961 . S
H2390 C2375 0.961 1_455 S
H2391 C2375 0.961 . S
H2392 C2376 0.931 . S
H2393 C2381 0.930 . S
H2394 C2382 0.956 . S
H2395 C2382 0.961 . S
H2396 C2382 0.961 . S
H2397 C2383 0.958 . S
H2398 C2383 0.961 . S
H2399 C2383 0.960 . S
C2400 C2401 1.391 . S
C2400 C2402 1.394 . S
C2400 H2416 0.931 . S
C2401 C2400 1.391 . S
C2401 C2405 1.376 . S
C2402 C2400 1.394 . S
C2402 C2403 1.369 . S
C2402 C2406 1.531 . S
C2403 C2402 1.369 . S
C2403 C2404 1.410 . S
C2403 C2411 1.503 . S
C2404 C2403 1.410 . S
C2404 C2405 1.392 . S
C2404 C2407 1.511 . S
C2405 C2401 1.376 . S
C2405 C2404 1.392 . S
C2405 H2417 0.929 . S
C2406 C2402 1.531 . S
C2406 H2418 0.960 . S
C2406 H2419 0.962 . S
C2406 H2420 0.960 . S
C2407 C2404 1.511 . S
C2407 H2421 0.961 . S
C2407 H2422 0.961 . S
C2407 H2423 0.961 . S
C2408 C2409 1.370 . S
C2408 C2410 1.363 . S
C2408 H2424 0.931 . S
C2409 C2408 1.370 . S
C2409 C2413 1.408 . S
C2410 C2408 1.363 . S
C2410 C2411 1.370 . S
C2410 C2414 1.524 . S
C2411 C2403 1.503 . S
C2411 C2410 1.370 . S
C2411 C2412 1.403 . S
C2412 C2411 1.403 . S
C2412 C2413 1.404 . S
C2412 C2415 1.539 . S
C2413 C2409 1.408 . S
C2413 C2412 1.404 . S
C2413 H2425 0.930 . S
C2414 C2410 1.524 . S
C2414 H2426 0.956 . S
C2414 H2427 0.961 . S
C2414 H2428 0.961 . S
C2415 C2412 1.539 . S
C2415 H2429 0.958 . S
C2415 H2430 0.961 . S
C2415 H2431 0.960 . S
H2416 C2400 0.931 . S
H2417 C2405 0.929 . S
H2418 C2406 0.960 . S
H2419 C2406 0.962 . S
H2420 C2406 0.960 . S
H2421 C2407 0.961 . S
H2422 C2407 0.961 . S
H2423 C2407 0.961 . S
H2424 C2408 0.931 . S
H2425 C2413 0.930 . S
H2426 C2414 0.956 . S
H2427 C2414 0.961 . S
H2428 C2414 0.961 . S
H2429 C2415 0.958 . S
H2430 C2415 0.961 . S
H2431 C2415 0.960 . S
C2432 C2433 1.391 . S
C2432 C2434 1.394 . S
C2432 H2448 0.931 1_455 S
C2433 C2432 1.391 . S
C2433 C2437 1.376 . S
C2434 C2432 1.394 . S
C2434 C2435 1.369 . S
C2434 C2438 1.531 1_455 S
C2435 C2434 1.369 . S
C2435 C2436 1.410 . S
C2435 C2443 1.503 . S
C2436 C2435 1.410 . S
C2436 C2437 1.392 . S
C2436 C2439 1.511 . S
C2437 C2433 1.376 . S
C2437 C2436 1.392 . S
C2437 H2449 0.929 . S
C2438 C2434 1.531 1_655 S
C2438 H2450 0.960 1_655 S
C2438 H2451 0.962 . S
C2438 H2452 0.960 . S
C2439 C2436 1.511 . S
C2439 H2453 0.961 . S
C2439 H2454 0.961 . S
C2439 H2455 0.961 . S
C2440 C2441 1.370 . S
C2440 C2442 1.363 . S
C2440 H2456 0.931 . S
C2441 C2440 1.370 . S
C2441 C2445 1.408 . S
C2442 C2440 1.363 . S
C2442 C2443 1.370 . S
C2442 C2446 1.524 . S
C2443 C2435 1.503 . S
C2443 C2442 1.370 . S
C2443 C2444 1.403 . S
C2444 C2443 1.403 . S
C2444 C2445 1.404 . S
C2444 C2447 1.539 . S
C2445 C2441 1.408 . S
C2445 C2444 1.404 . S
C2445 H2457 0.930 . S
C2446 C2442 1.524 . S
C2446 H2458 0.956 . S
C2446 H2459 0.961 . S
C2446 H2460 0.961 . S
C2447 C2444 1.539 . S
C2447 H2461 0.958 . S
C2447 H2462 0.961 . S
C2447 H2463 0.960 . S
H2448 C2432 0.931 1_655 S
H2449 C2437 0.929 . S
H2450 C2438 0.960 1_455 S
H2451 C2438 0.962 . S
H2452 C2438 0.960 . S
H2453 C2439 0.961 . S
H2454 C2439 0.961 . S
H2455 C2439 0.961 . S
H2456 C2440 0.931 . S
H2457 C2445 0.930 . S
H2458 C2446 0.956 . S
H2459 C2446 0.961 . S
H2460 C2446 0.961 . S
H2461 C2447 0.958 . S
H2462 C2447 0.961 . S
H2463 C2447 0.960 . S
C2464 C2465 1.391 . S
C2464 C2466 1.394 . S
C2464 H2480 0.931 . S
C2465 C2464 1.391 . S
C2465 C2469 1.376 . S
C2466 C2464 1.394 . S
C2466 C2467 1.369 . S
C2466 C2470 1.531 . S
C2467 C2466 1.369 . S
C2467 C2468 1.410 . S
C2467 C2475 1.503 . S
C2468 C2467 1.410 . S
C2468 C2469 1.392 . S
C2468 C2471 1.511 . S
C2469 C2465 1.376 . S
C2469 C2468 1.392 . S
C2469 H2481 0.929 . S
C2470 C2466 1.531 . S
C2470 H2482 0.960 . S
C2470 H2483 0.962 . S
C2470 H2484 0.960 . S
C2471 C2468 1.511 . S
C2471 H2485 0.961 . S
C2471 H2486 0.961 . S
C2471 H2487 0.961 . S
C2472 C2473 1.370 . S
C2472 C2474 1.363 . S
C2472 H2488 0.931 . S
C2473 C2472 1.370 . S
C2473 C2477 1.408 . S
C2474 C2472 1.363 . S
C2474 C2475 1.370 . S
C2474 C2478 1.524 . S
C2475 C2467 1.503 . S
C2475 C2474 1.370 . S
C2475 C2476 1.403 . S
C2476 C2475 1.403 . S
C2476 C2477 1.404 . S
C2476 C2479 1.539 . S
C2477 C2473 1.408 . S
C2477 C2476 1.404 . S
C2477 H2489 0.930 . S
C2478 C2474 1.524 . S
C2478 H2490 0.956 . S
C2478 H2491 0.961 . S
C2478 H2492 0.961 . S
C2479 C2476 1.539 . S
C2479 H2493 0.958 . S
C2479 H2494 0.961 . S
C2479 H2495 0.960 . S
H2480 C2464 0.931 . S
H2481 C2469 0.929 . S
H2482 C2470 0.960 . S
H2483 C2470 0.962 . S
H2484 C2470 0.960 . S
H2485 C2471 0.961 . S
H2486 C2471 0.961 . S
H2487 C2471 0.961 . S
H2488 C2472 0.931 . S
H2489 C2477 0.930 . S
H2490 C2478 0.956 . S
H2491 C2478 0.961 . S
H2492 C2478 0.961 . S
H2493 C2479 0.958 . S
H2494 C2479 0.961 . S
H2495 C2479 0.960 . S
C449 C51 1.087 . S
C457 C9 1.041 . S
C481 C37 1.043 . S
C489 C23 1.061 . S
C513 C107 1.075 . S
C521 C65 1.042 . S
C545 C93 1.060 . S
C553 C79 1.059 . S
C577 C121 1.023 . S
C585 C163 1.069 . S
C609 C135 1.051 . S
C617 C149 1.058 . S
C641 C219 1.064 . S
C649 C177 1.046 . S
C673 C191 1.084 . S
C681 C205 1.038 . S
C705 C233 1.017 . S
C713 C275 1.071 . S
C737 C247 1.103 . S
C745 C261 1.034 . S
C769 C331 1.044 . S
C777 C289 1.065 . S
C801 C317 1.012 . S
C809 C303 1.076 . S
C833 C387 1.000 . S
C841 C345 1.077 . S
C865 C359 1.024 . S
C873 C373 1.069 . S
C897 C401 1.065 . S
C905 C443 1.045 . S
C929 C415 1.051 . S
C937 C429 1.063 . S
C961 C283 1.264 . S
C969 C3 1.264 . S
C993 C185 1.232 . S
C1001 C17 1.278 . S
C1025 C31 1.262 . S
C1033 C423 1.268 . S
C1057 C45 1.273 . S
C1065 C101 1.259 . S
C1089 C227 1.264 . S
C1097 C59 1.268 . S
C1121 C129 1.244 . S
C1129 C73 1.272 . S
C1153 C367 1.274 . S
C1161 C87 1.263 . S
C1185 C115 1.246 . S
C1193 C395 1.269 . S
C1217 C311 1.288 . S
C1225 C143 1.254 . S
C1249 C213 1.240 . S
C1257 C157 1.278 . S
C1281 C339 1.264 . S
C1289 C171 1.262 . S
C1313 C199 1.236 . S
C1321 C255 1.278 . S
C1345 C409 1.279 . S
C1353 C241 1.258 . S
C1377 C269 1.267 . S
C1385 C325 1.262 . S
C1409 C353 1.291 . S
C1417 C297 1.254 . S
C1441 C437 1.291 . S
C1449 C381 1.255 . S
C1473 C21 1.329 . S
C1481 C7 1.326 . S
C1505 C35 1.334 . S
C1513 C49 1.328 . S
C1537 C63 1.299 . S
C1545 C77 1.315 . S
C1569 C105 1.297 . S
C1577 C91 1.313 . S
C1601 C119 1.336 . S
C1609 C133 1.329 . S
C1633 C147 1.296 . S
C1641 C161 1.312 . S
C1665 C189 1.334 . S
C1673 C175 1.326 . S
C1697 C203 1.331 . S
C1705 C217 1.329 . S
C1729 C231 1.296 . S
C1737 C245 1.312 . S
C1761 C259 1.324 . S
C1769 C273 1.324 . S
C1793 C287 1.311 . S
C1801 C301 1.321 . S
C1825 C329 1.340 . S
C1833 C315 1.330 . S
C1857 C357 1.308 . S
C1865 C343 1.317 . S
C1889 C371 1.300 . S
C1897 C385 1.314 . S
C1921 C399 1.299 . S
C1929 C413 1.316 . S
C1953 C441 1.303 . S
C1961 C427 1.317 . S
C1985 C8 1.520 . S
C1993 C274 1.517 . S
C2017 C22 1.510 . S
C2025 C260 1.524 . S
C2049 C246 1.520 . S
C2057 C36 1.520 . S
C2081 C50 1.516 . S
C2089 C232 1.521 . S
C2113 C330 1.527 . S
C2121 C64 1.515 . S
C2145 C78 1.513 . S
C2153 C316 1.522 . S
C2177 C302 1.525 . S
C2185 C92 1.516 . S
C2209 C106 1.525 . S
C2217 C288 1.516 . S
C2241 C120 1.512 . S
C2249 C386 1.523 . S
C2273 C134 1.509 . S
C2281 C372 1.524 . S
C2305 C148 1.508 . S
C2313 C358 1.524 . S
C2337 C344 1.524 . S
C2345 C162 1.516 . S
C2369 C176 1.513 . S
C2377 C442 1.521 . S
C2401 C190 1.508 . S
C2409 C428 1.523 . S
C2433 C204 1.518 . S
C2441 C414 1.519 . S
C2465 C400 1.523 . S
C2473 C218 1.517 . S
