# Generated by pormake.
# Topology wgl, (5)-cn, num edge types: 1
# Building blocks:
#     Node 0, Type 0, BuildingBlock: XOMCOT_clean_sbu_0, # of connection points: 5
#     Node 1, Type 0, BuildingBlock: XOMCOT_clean_sbu_0, # of connection points: 5
#     Node 2, Type 0, BuildingBlock: XOMCOT_clean_sbu_0, # of connection points: 5
#     Node 3, Type 0, BuildingBlock: XOMCOT_clean_sbu_0, # of connection points: 5
#     Node 4, Type 0, BuildingBlock: XOMCOT_clean_sbu_0, # of connection points: 5
#     Node 5, Type 0, BuildingBlock: XOMCOT_clean_sbu_0, # of connection points: 5
#     Node 6, Type 0, BuildingBlock: XOMCOT_clean_sbu_0, # of connection points: 5
#     Node 7, Type 0, BuildingBlock: XOMCOT_clean_sbu_0, # of connection points: 5
#     Node 8, Type 0, BuildingBlock: XOMCOT_clean_sbu_0, # of connection points: 5
#     Node 9, Type 0, BuildingBlock: XOMCOT_clean_sbu_0, # of connection points: 5
#     Node 10, Type 0, BuildingBlock: XOMCOT_clean_sbu_0, # of connection points: 5
#     Node 11, Type 0, BuildingBlock: XOMCOT_clean_sbu_0, # of connection points: 5
#     Node 12, Type 0, BuildingBlock: XOMCOT_clean_sbu_0, # of connection points: 5
#     Node 13, Type 0, BuildingBlock: XOMCOT_clean_sbu_0, # of connection points: 5
#     Node 14, Type 0, BuildingBlock: XOMCOT_clean_sbu_0, # of connection points: 5
#     Node 15, Type 0, BuildingBlock: XOMCOT_clean_sbu_0, # of connection points: 5
#     Node 16, Type 0, BuildingBlock: XOMCOT_clean_sbu_0, # of connection points: 5
#     Node 17, Type 0, BuildingBlock: XOMCOT_clean_sbu_0, # of connection points: 5
#     Node 18, Type 0, BuildingBlock: XOMCOT_clean_sbu_0, # of connection points: 5
#     Node 19, Type 0, BuildingBlock: XOMCOT_clean_sbu_0, # of connection points: 5
#     Node 20, Type 0, BuildingBlock: XOMCOT_clean_sbu_0, # of connection points: 5
#     Node 21, Type 0, BuildingBlock: XOMCOT_clean_sbu_0, # of connection points: 5
#     Node 22, Type 0, BuildingBlock: XOMCOT_clean_sbu_0, # of connection points: 5
#     Node 23, Type 0, BuildingBlock: XOMCOT_clean_sbu_0, # of connection points: 5
#     Node 24, Type 0, BuildingBlock: XOMCOT_clean_sbu_0, # of connection points: 5
#     Node 25, Type 0, BuildingBlock: XOMCOT_clean_sbu_0, # of connection points: 5
#     Node 26, Type 0, BuildingBlock: XOMCOT_clean_sbu_0, # of connection points: 5
#     Node 27, Type 0, BuildingBlock: XOMCOT_clean_sbu_0, # of connection points: 5
#     Node 28, Type 0, BuildingBlock: XOMCOT_clean_sbu_0, # of connection points: 5
#     Node 29, Type 0, BuildingBlock: XOMCOT_clean_sbu_0, # of connection points: 5
#     Node 30, Type 0, BuildingBlock: XOMCOT_clean_sbu_0, # of connection points: 5
#     Node 31, Type 0, BuildingBlock: XOMCOT_clean_sbu_0, # of connection points: 5
#     Edge 32, Type (0, 0), BuildingBlock: OJICUG_clean_linker_0, # of connection points: 2
#     Edge 33, Type (0, 0), BuildingBlock: OJICUG_clean_linker_0, # of connection points: 2
#     Edge 34, Type (0, 0), BuildingBlock: OJICUG_clean_linker_0, # of connection points: 2
#     Edge 35, Type (0, 0), BuildingBlock: OJICUG_clean_linker_0, # of connection points: 2
#     Edge 36, Type (0, 0), BuildingBlock: OJICUG_clean_linker_0, # of connection points: 2
#     Edge 37, Type (0, 0), BuildingBlock: OJICUG_clean_linker_0, # of connection points: 2
#     Edge 38, Type (0, 0), BuildingBlock: OJICUG_clean_linker_0, # of connection points: 2
#     Edge 39, Type (0, 0), BuildingBlock: OJICUG_clean_linker_0, # of connection points: 2
#     Edge 40, Type (0, 0), BuildingBlock: OJICUG_clean_linker_0, # of connection points: 2
#     Edge 41, Type (0, 0), BuildingBlock: OJICUG_clean_linker_0, # of connection points: 2
#     Edge 42, Type (0, 0), BuildingBlock: OJICUG_clean_linker_0, # of connection points: 2
#     Edge 43, Type (0, 0), BuildingBlock: OJICUG_clean_linker_0, # of connection points: 2
#     Edge 44, Type (0, 0), BuildingBlock: OJICUG_clean_linker_0, # of connection points: 2
#     Edge 45, Type (0, 0), BuildingBlock: OJICUG_clean_linker_0, # of connection points: 2
#     Edge 46, Type (0, 0), BuildingBlock: OJICUG_clean_linker_0, # of connection points: 2
#     Edge 47, Type (0, 0), BuildingBlock: OJICUG_clean_linker_0, # of connection points: 2
#     Edge 48, Type (0, 0), BuildingBlock: OJICUG_clean_linker_0, # of connection points: 2
#     Edge 49, Type (0, 0), BuildingBlock: OJICUG_clean_linker_0, # of connection points: 2
#     Edge 50, Type (0, 0), BuildingBlock: OJICUG_clean_linker_0, # of connection points: 2
#     Edge 51, Type (0, 0), BuildingBlock: OJICUG_clean_linker_0, # of connection points: 2
#     Edge 52, Type (0, 0), BuildingBlock: OJICUG_clean_linker_0, # of connection points: 2
#     Edge 53, Type (0, 0), BuildingBlock: OJICUG_clean_linker_0, # of connection points: 2
#     Edge 54, Type (0, 0), BuildingBlock: OJICUG_clean_linker_0, # of connection points: 2
#     Edge 55, Type (0, 0), BuildingBlock: OJICUG_clean_linker_0, # of connection points: 2
#     Edge 56, Type (0, 0), BuildingBlock: OJICUG_clean_linker_0, # of connection points: 2
#     Edge 57, Type (0, 0), BuildingBlock: OJICUG_clean_linker_0, # of connection points: 2
#     Edge 58, Type (0, 0), BuildingBlock: OJICUG_clean_linker_0, # of connection points: 2
#     Edge 59, Type (0, 0), BuildingBlock: OJICUG_clean_linker_0, # of connection points: 2
#     Edge 60, Type (0, 0), BuildingBlock: OJICUG_clean_linker_0, # of connection points: 2
#     Edge 61, Type (0, 0), BuildingBlock: OJICUG_clean_linker_0, # of connection points: 2
#     Edge 62, Type (0, 0), BuildingBlock: OJICUG_clean_linker_0, # of connection points: 2
#     Edge 63, Type (0, 0), BuildingBlock: OJICUG_clean_linker_0, # of connection points: 2
#     Edge 64, Type (0, 0), BuildingBlock: OJICUG_clean_linker_0, # of connection points: 2
#     Edge 65, Type (0, 0), BuildingBlock: OJICUG_clean_linker_0, # of connection points: 2
#     Edge 66, Type (0, 0), BuildingBlock: OJICUG_clean_linker_0, # of connection points: 2
#     Edge 67, Type (0, 0), BuildingBlock: OJICUG_clean_linker_0, # of connection points: 2
#     Edge 68, Type (0, 0), BuildingBlock: OJICUG_clean_linker_0, # of connection points: 2
#     Edge 69, Type (0, 0), BuildingBlock: OJICUG_clean_linker_0, # of connection points: 2
#     Edge 70, Type (0, 0), BuildingBlock: OJICUG_clean_linker_0, # of connection points: 2
#     Edge 71, Type (0, 0), BuildingBlock: OJICUG_clean_linker_0, # of connection points: 2
#     Edge 72, Type (0, 0), BuildingBlock: OJICUG_clean_linker_0, # of connection points: 2
#     Edge 73, Type (0, 0), BuildingBlock: OJICUG_clean_linker_0, # of connection points: 2
#     Edge 74, Type (0, 0), BuildingBlock: OJICUG_clean_linker_0, # of connection points: 2
#     Edge 75, Type (0, 0), BuildingBlock: OJICUG_clean_linker_0, # of connection points: 2
#     Edge 76, Type (0, 0), BuildingBlock: OJICUG_clean_linker_0, # of connection points: 2
#     Edge 77, Type (0, 0), BuildingBlock: OJICUG_clean_linker_0, # of connection points: 2
#     Edge 78, Type (0, 0), BuildingBlock: OJICUG_clean_linker_0, # of connection points: 2
#     Edge 79, Type (0, 0), BuildingBlock: OJICUG_clean_linker_0, # of connection points: 2
#     Edge 80, Type (0, 0), BuildingBlock: OJICUG_clean_linker_0, # of connection points: 2
#     Edge 81, Type (0, 0), BuildingBlock: OJICUG_clean_linker_0, # of connection points: 2
#     Edge 82, Type (0, 0), BuildingBlock: OJICUG_clean_linker_0, # of connection points: 2
#     Edge 83, Type (0, 0), BuildingBlock: OJICUG_clean_linker_0, # of connection points: 2
#     Edge 84, Type (0, 0), BuildingBlock: OJICUG_clean_linker_0, # of connection points: 2
#     Edge 85, Type (0, 0), BuildingBlock: OJICUG_clean_linker_0, # of connection points: 2
#     Edge 86, Type (0, 0), BuildingBlock: OJICUG_clean_linker_0, # of connection points: 2
#     Edge 87, Type (0, 0), BuildingBlock: OJICUG_clean_linker_0, # of connection points: 2
#     Edge 88, Type (0, 0), BuildingBlock: OJICUG_clean_linker_0, # of connection points: 2
#     Edge 89, Type (0, 0), BuildingBlock: OJICUG_clean_linker_0, # of connection points: 2
#     Edge 90, Type (0, 0), BuildingBlock: OJICUG_clean_linker_0, # of connection points: 2
#     Edge 91, Type (0, 0), BuildingBlock: OJICUG_clean_linker_0, # of connection points: 2
#     Edge 92, Type (0, 0), BuildingBlock: OJICUG_clean_linker_0, # of connection points: 2
#     Edge 93, Type (0, 0), BuildingBlock: OJICUG_clean_linker_0, # of connection points: 2
#     Edge 94, Type (0, 0), BuildingBlock: OJICUG_clean_linker_0, # of connection points: 2
#     Edge 95, Type (0, 0), BuildingBlock: OJICUG_clean_linker_0, # of connection points: 2
#     Edge 96, Type (0, 0), BuildingBlock: OJICUG_clean_linker_0, # of connection points: 2
#     Edge 97, Type (0, 0), BuildingBlock: OJICUG_clean_linker_0, # of connection points: 2
#     Edge 98, Type (0, 0), BuildingBlock: OJICUG_clean_linker_0, # of connection points: 2
#     Edge 99, Type (0, 0), BuildingBlock: OJICUG_clean_linker_0, # of connection points: 2
#     Edge 100, Type (0, 0), BuildingBlock: OJICUG_clean_linker_0, # of connection points: 2
#     Edge 101, Type (0, 0), BuildingBlock: OJICUG_clean_linker_0, # of connection points: 2
#     Edge 102, Type (0, 0), BuildingBlock: OJICUG_clean_linker_0, # of connection points: 2
#     Edge 103, Type (0, 0), BuildingBlock: OJICUG_clean_linker_0, # of connection points: 2
#     Edge 104, Type (0, 0), BuildingBlock: OJICUG_clean_linker_0, # of connection points: 2
#     Edge 105, Type (0, 0), BuildingBlock: OJICUG_clean_linker_0, # of connection points: 2
#     Edge 106, Type (0, 0), BuildingBlock: OJICUG_clean_linker_0, # of connection points: 2
#     Edge 107, Type (0, 0), BuildingBlock: OJICUG_clean_linker_0, # of connection points: 2
#     Edge 108, Type (0, 0), BuildingBlock: OJICUG_clean_linker_0, # of connection points: 2
#     Edge 109, Type (0, 0), BuildingBlock: OJICUG_clean_linker_0, # of connection points: 2
#     Edge 110, Type (0, 0), BuildingBlock: OJICUG_clean_linker_0, # of connection points: 2
#     Edge 111, Type (0, 0), BuildingBlock: OJICUG_clean_linker_0, # of connection points: 2
# Relax obj value: 0.048
# Max RMSD: 0.092
# Mean RMSD: 0.092
data_MOF--net-wgl--node1-XOMCOT_clean_sbu_0--edge1-OJICUG_clean_linker_0
_symmetry_space_group_name_H-M    P1
_symmetry_Int_Tables_number       1
_symmetry_cell_setting            triclinic
loop_
_symmetry_equiv_pos_as_xyz
'x, y, z'
_cell_length_a     44.036156
_cell_length_b     44.075461
_cell_length_c     38.52373
_cell_angle_alpha  90.049255
_cell_angle_beta   89.940965
_cell_angle_gamma 89.986885
loop_
_atom_site_label
_atom_site_type_symbol
_atom_site_fract_x
_atom_site_fract_y
_atom_site_fract_z
_atom_type_partial_charge
Co0 Co 0.29778 0.33458 0.1473 0.0
C1 C 0.33474 0.27621 0.14777 0.0
C2 C 0.29565 0.2757 0.11478 0.0
C3 C 0.30776 0.24721 0.11503 0.0
N4 N 0.31278 0.29442 0.13448 0.0
N5 N 0.33221 0.24743 0.13584 0.0
H6 H 0.35066 0.28273 0.16767 0.0
H7 H 0.27445 0.28185 0.10253 0.0
C8 C 0.2964 0.33388 0.0707 0.0
O9 O 0.32483 0.32488 0.07234 0.0
N10 N 0.27997 0.37372 0.15904 0.0
C11 C 0.28705 0.39255 0.18538 0.0
C12 C 0.2688 0.41809 0.18325 0.0
C13 C 0.25763 0.38808 0.14131 0.0
N14 N 0.25048 0.41528 0.15533 0.0
C15 C 0.36167 0.34675 0.15035 0.0
C16 C 0.36227 0.39395 0.10325 0.0
C17 C 0.38973 0.38479 0.11846 0.0
C18 C 0.3891 0.36093 0.14243 0.0
C19 C 0.33528 0.37914 0.11203 0.0
N20 N 0.33538 0.35493 0.13421 0.0
H21 H 0.36149 0.33011 0.17069 0.0
H22 H 0.31425 0.3872 0.10094 0.0
H23 H 0.30444 0.38824 0.20455 0.0
H24 H 0.24654 0.37882 0.11862 0.0
O25 O 0.30787 0.32683 0.1951 0.0
O26 O 0.26448 0.31368 0.17031 0.0
O27 O 0.28133 0.33877 0.09859 0.0
C28 C 0.28217 0.31266 0.19753 0.0
H29 H 0.29874 0.22756 0.10168 0.0
H30 H 0.26946 0.43752 0.20042 0.0
H31 H 0.36151 0.4127 0.08513 0.0
H32 H 0.40937 0.35418 0.15633 0.0
Co33 Co 0.9584 0.04697 0.39727 0.0
C34 C 1.01501 0.08697 0.39274 0.0
C35 C 1.01665 0.04563 0.36345 0.0
C36 C 0.04381 0.06009 0.35943 0.0
N37 N 0.99792 0.06273 0.38323 0.0
N38 N 0.0428 0.08595 0.37779 0.0
H39 H 1.00809 0.10456 0.41048 0.0
H40 H 1.01113 0.02348 0.35315 0.0
C41 C 0.95782 0.04602 0.32072 0.0
O42 O 0.96613 0.07462 0.32259 0.0
N43 N 0.91994 0.0284 0.41015 0.0
C44 C 0.90148 0.03527 0.43694 0.0
C45 C 0.876 1.01691 0.43518 0.0
C46 C 0.90545 1.00611 0.39252 0.0
N47 N 0.87849 0.99879 0.40704 0.0
C48 C 0.94382 0.11026 0.40226 0.0
C49 C 0.89587 0.10971 0.35609 0.0
C50 C 0.90387 0.13714 0.37214 0.0
C51 C 0.92814 0.13712 0.39561 0.0
C52 C 0.91217 0.08333 0.36356 0.0
N53 N 0.93674 0.08406 0.38524 0.0
H54 H 0.9607 0.11033 0.4224 0.0
H55 H 0.90484 0.06223 0.35201 0.0
H56 H 0.90593 0.05268 0.45606 0.0
H57 H 0.91436 0.99531 0.36946 0.0
O58 O 0.96711 0.05704 0.44482 0.0
O59 O 0.98054 1.01404 0.41928 0.0
O60 O 0.95353 0.03066 0.34852 0.0
C61 C 0.98185 0.03164 0.44658 0.0
H62 H 0.06319 0.05196 0.34481 0.0
H63 H 0.85676 1.01745 0.45268 0.0
H64 H 0.87687 0.10847 0.33832 0.0
H65 H 0.93408 0.15735 0.41006 0.0
Co66 Co 0.24323 0.70586 0.64793 0.0
C67 C 0.20344 0.76268 0.64346 0.0
C68 C 0.24599 0.7649 0.61647 0.0
C69 C 0.23162 0.79209 0.61239 0.0
N70 N 0.22816 0.74586 0.63493 0.0
N71 N 0.205 0.79071 0.62931 0.0
H72 H 0.18496 0.75532 0.65973 0.0
H73 H 0.26843 0.75943 0.60693 0.0
C74 C 0.24465 0.70701 0.57138 0.0
O75 O 0.21623 0.716 0.57325 0.0
N76 N 0.2611 0.66687 0.65977 0.0
C77 C 0.25397 0.6481 0.68613 0.0
C78 C 0.27204 0.62245 0.68384 0.0
C79 C 0.28326 0.65238 0.64186 0.0
N80 N 0.29025 0.62515 0.65578 0.0
C81 C 0.17972 0.69197 0.65264 0.0
C82 C 0.1795 0.64553 0.60443 0.0
C83 C 0.1522 0.65336 0.62098 0.0
C84 C 0.15262 0.67685 0.64549 0.0
C85 C 0.20612 0.66124 0.61245 0.0
N86 N 0.20578 0.68511 0.63515 0.0
H87 H 0.17995 0.70819 0.67351 0.0
H88 H 0.22711 0.65392 0.60057 0.0
H89 H 0.23661 0.6525 0.70537 0.0
H90 H 0.29427 0.66153 0.61906 0.0
O91 O 0.2332 0.71384 0.69571 0.0
O92 O 0.27654 0.72689 0.67062 0.0
O93 O 0.25969 0.70171 0.59916 0.0
C94 C 0.25893 0.72799 0.69793 0.0
H95 H 0.24021 0.81168 0.59856 0.0
H96 H 0.27129 0.603 0.70095 0.0
H97 H 0.18044 0.62708 0.58588 0.0
H98 H 0.13251 0.68256 0.66033 0.0
Co99 Co 0.58239 0.99534 0.89858 0.0
C100 C 0.5248 0.95665 0.89363 0.0
C101 C 0.52386 0.99871 0.86576 0.0
C102 C 0.49653 0.98464 0.8611 0.0
N103 N 0.54218 0.98098 0.88523 0.0
N104 N 0.49714 0.95832 0.87858 0.0
H105 H 0.53153 0.93824 0.91028 0.0
H106 H 0.52996 0.02081 0.85578 0.0
C107 C 0.58271 0.99446 0.82185 0.0
O108 O 0.57312 0.9663 0.82428 0.0
N109 N 0.62177 1.01246 0.91046 0.0
C110 C 0.63992 1.00574 0.93751 0.0
C111 C 0.66588 0.02339 0.93536 0.0
C112 C 0.63696 0.03392 0.89225 0.0
N113 N 0.66401 0.04093 0.90671 0.0
C114 C 0.59383 0.93235 0.90829 0.0
C115 C 0.64077 0.92624 0.86122 0.0
C116 C 0.6317 0.90097 0.88076 0.0
C117 C 0.60785 0.90433 0.90439 0.0
C118 C 0.62601 0.95413 0.86604 0.0
N119 N 0.60196 0.95662 0.88841 0.0
H120 H 0.57732 0.9347 0.92869 0.0
H121 H 0.63437 0.97382 0.85234 0.0
H122 H 0.63482 0.98906 0.95725 0.0
H123 H 0.62834 0.04459 0.86899 0.0
O124 O 0.57351 0.98723 0.94641 0.0
O125 O 0.56167 0.02999 0.91975 0.0
O126 O 0.58791 1.00997 0.84932 0.0
C127 C 0.55977 1.01313 0.94759 0.0
H128 H 0.47741 0.99326 0.84646 0.0
H129 H 0.68491 0.0229 0.95311 0.0
H130 H 0.65994 0.92481 0.84365 0.0
H131 H 0.60068 0.88561 0.92068 0.0
Co132 Co 0.29915 0.70477 0.3596 0.0
C133 C 0.33754 0.7626 0.3641 0.0
C134 C 0.29499 0.76358 0.3912 0.0
C135 C 0.3087 0.79106 0.39563 0.0
N136 N 0.3132 0.74517 0.37233 0.0
N137 N 0.3353 0.79044 0.37863 0.0
H138 H 0.35635 0.75577 0.34803 0.0
H139 H 0.27281 0.75738 0.40095 0.0
C140 C 0.3002 0.70562 0.43629 0.0
O141 O 0.32832 0.71533 0.43363 0.0
N142 N 0.28208 0.6653 0.34847 0.0
C143 C 0.28906 0.6463 0.32223 0.0
C144 C 0.27097 0.62068 0.32494 0.0
C145 C 0.26001 0.65102 0.36667 0.0
N146 N 0.25291 0.62367 0.3531 0.0
C147 C 0.36229 0.69354 0.34998 0.0
C148 C 0.3684 0.64729 0.39779 0.0
C149 C 0.39374 0.65622 0.37822 0.0
C150 C 0.39038 0.67968 0.35416 0.0
C151 C 0.34045 0.66182 0.39263 0.0
N152 N 0.33797 0.68555 0.36992 0.0
H153 H 0.35992 0.70985 0.32941 0.0
H154 H 0.32073 0.65357 0.4064 0.0
H155 H 0.30618 0.65062 0.3027 0.0
H156 H 0.24897 0.66053 0.38928 0.0
O157 O 0.30714 0.71308 0.31159 0.0
O158 O 0.26435 0.72497 0.33846 0.0
O159 O 0.2847 0.69986 0.40899 0.0
C160 C 0.28115 0.72671 0.31051 0.0
H161 H 0.29974 0.81027 0.40989 0.0
H162 H 0.2715 0.60112 0.30794 0.0
H163 H 0.36983 0.6284 0.41568 0.0
H164 H 0.40917 0.6867 0.33785 0.0
Co165 Co 0.58562 0.0482 0.6095 0.0
C166 C 0.52805 0.08706 0.61392 0.0
C167 C 0.52624 0.04413 0.63998 0.0
C168 C 0.49887 0.05816 0.6444 0.0
N169 N 0.54507 0.06234 0.62175 0.0
N170 N 0.50002 0.085 0.62804 0.0
H171 H 0.53536 0.10607 0.59851 0.0
H172 H 0.53211 0.02178 0.64941 0.0
C173 C 0.58388 0.04889 0.68619 0.0
O174 O 0.57415 0.07699 0.68353 0.0
N175 N 0.62528 0.03124 0.5987 0.0
C176 C 0.64414 0.03807 0.57227 0.0
C177 C 0.67008 0.02049 0.57526 0.0
C178 C 0.64002 1.00978 0.61734 0.0
N179 N 0.66747 1.0029 0.6038 0.0
C180 C 0.59737 0.11121 0.6002 0.0
C181 C 0.64307 0.11696 0.64881 0.0
C182 C 0.63475 0.14227 0.62895 0.0
C183 C 0.61155 0.13912 0.6045 0.0
C184 C 0.62827 0.08921 0.64349 0.0
N185 N 0.60483 0.08689 0.62034 0.0
H186 H 0.5813 0.10896 0.57935 0.0
H187 H 0.63617 0.06946 0.65742 0.0
H188 H 0.63952 0.05479 0.55244 0.0
H189 H 0.6308 0.99904 0.64027 0.0
O190 O 0.57775 0.05634 0.56136 0.0
O191 O 0.56563 1.01352 0.58785 0.0
O192 O 0.58997 0.03349 0.65887 0.0
C193 C 0.5642 0.03034 0.55994 0.0
H194 H 0.47939 0.04927 0.65823 0.0
H195 H 0.68961 0.02107 0.55819 0.0
H196 H 0.66176 0.11824 0.66702 0.0
H197 H 0.60504 0.15789 0.58796 0.0
Co198 Co 0.24123 0.33508 0.85935 0.0
C199 C 0.20364 0.27671 0.86401 0.0
C200 C 0.24611 0.27645 0.89114 0.0
C201 C 0.2328 0.24878 0.89562 0.0
N202 N 0.22768 0.29453 0.87223 0.0
N203 N 0.20623 0.24895 0.87861 0.0
H204 H 0.18479 0.28319 0.84786 0.0
H205 H 0.2682 0.28298 0.90086 0.0
C206 C 0.24036 0.33453 0.93604 0.0
O207 O 0.21234 0.3245 0.93358 0.0
N208 N 0.25783 0.37472 0.84806 0.0
C209 C 0.25077 0.39347 0.82167 0.0
C210 C 0.26861 0.41929 0.82425 0.0
C211 C 0.27969 0.38934 0.86621 0.0
N212 N 0.28658 0.41665 0.85247 0.0
C213 C 0.1779 0.34541 0.8502 0.0
C214 C 0.1714 0.39192 0.89771 0.0
C215 C 0.14607 0.38251 0.87845 0.0
C216 C 0.14963 0.35888 0.85458 0.0
C217 C 0.19951 0.3777 0.89244 0.0
N218 N 0.20221 0.35386 0.86986 0.0
H219 H 0.18041 0.32905 0.82968 0.0
H220 H 0.21918 0.38629 0.906 0.0
H221 H 0.23379 0.38885 0.8021 0.0
H222 H 0.29077 0.38009 0.88889 0.0
O223 O 0.23322 0.32654 0.81139 0.0
O224 O 0.27622 0.31525 0.83807 0.0
O225 O 0.25573 0.34032 0.90863 0.0
C226 C 0.25939 0.31324 0.8102 0.0
H227 H 0.24205 0.22974 0.90988 0.0
H228 H 0.26798 0.43872 0.8071 0.0
H229 H 0.16983 0.41094 0.91544 0.0
H230 H 0.13087 0.35144 0.83852 0.0
Co231 Co 0.95645 0.99188 0.10872 0.0
C232 C 1.01422 0.95327 0.11324 0.0
C233 C 1.01572 0.99632 0.13913 0.0
C234 C 0.04314 0.98245 0.14368 0.0
N235 N 0.99705 0.97793 0.12092 0.0
N236 N 0.04219 0.95553 0.12743 0.0
H237 H 1.00709 0.93413 0.09792 0.0
H238 H 1.0097 1.01867 0.1485 0.0
C239 C 0.95803 0.99104 0.18536 0.0
O240 O 0.96801 0.96303 0.18259 0.0
N241 N 0.9168 1.0088 0.09804 0.0
C242 C 0.89751 1.00151 0.07222 0.0
C243 C 0.87184 1.01954 0.07514 0.0
C244 C 0.90265 0.03098 0.11619 0.0
N245 N 0.8751 0.03788 0.10299 0.0
C246 C 0.94529 0.9288 0.09955 0.0
C247 C 0.89947 0.92277 0.14806 0.0
C248 C 0.90832 0.89741 0.12849 0.0
C249 C 0.9316 0.90071 0.10412 0.0
C250 C 0.9139 0.95069 0.14259 0.0
N251 N 0.93742 0.95313 0.11951 0.0
H252 H 0.96136 0.93115 0.07869 0.0
H253 H 0.90571 0.97043 0.15636 0.0
H254 H 0.90165 0.98421 0.05287 0.0
H255 H 0.91238 0.04222 0.13852 0.0
O256 O 0.96427 0.9837 0.06063 0.0
O257 O 0.97634 0.02659 0.08708 0.0
O258 O 0.95194 1.00647 0.15811 0.0
C259 C 0.97778 1.00971 0.05918 0.0
H260 H 0.06251 0.99149 0.15756 0.0
H261 H 0.85205 1.01875 0.05851 0.0
H262 H 0.8807 0.92138 0.16617 0.0
H263 H 0.93855 0.88191 0.08781 0.0
Co264 Co 0.74082 0.70788 0.86196 0.0
C265 C 0.70239 0.76577 0.86634 0.0
C266 C 0.74452 0.76651 0.89417 0.0
C267 C 0.73083 0.79404 0.89845 0.0
N268 N 0.72654 0.74821 0.87496 0.0
N269 N 0.70448 0.7936 0.881 0.0
H270 H 0.68387 0.75904 0.84981 0.0
H271 H 0.76659 0.76027 0.90417 0.0
C272 C 0.73966 0.70822 0.93864 0.0
O273 O 0.71148 0.71779 0.93608 0.0
N274 N 0.75799 0.66849 0.85046 0.0
C275 C 0.75112 0.64984 0.82388 0.0
C276 C 0.76908 0.62411 0.8263 0.0
C277 C 0.77986 0.65389 0.8686 0.0
N278 N 0.78695 0.62668 0.85462 0.0
C279 C 0.67771 0.69624 0.85232 0.0
C280 C 0.67228 0.64936 0.89947 0.0
C281 C 0.6469 0.65796 0.87988 0.0
C282 C 0.64988 0.68173 0.85614 0.0
C283 C 0.69995 0.66443 0.89459 0.0
N284 N 0.70211 0.68841 0.87218 0.0
H285 H 0.67988 0.71282 0.832 0.0
H286 H 0.71976 0.65633 0.90825 0.0
H287 H 0.73414 0.65445 0.80432 0.0
H288 H 0.79075 0.66305 0.89147 0.0
O289 O 0.73295 0.71646 0.81399 0.0
O290 O 0.77565 0.72818 0.84112 0.0
O291 O 0.75523 0.70271 0.91128 0.0
C292 C 0.75902 0.72997 0.81309 0.0
H293 H 0.73972 0.81319 0.91283 0.0
H294 H 0.76857 0.60476 0.80899 0.0
H295 H 0.67113 0.63026 0.9171 0.0
H296 H 0.63104 0.68845 0.83979 0.0
Co297 Co 0.08693 0.99384 0.60909 0.0
C298 C 0.02791 0.95725 0.61482 0.0
C299 C 0.02755 1.00106 0.63903 0.0
C300 C 0.99978 0.98801 0.64421 0.0
N301 N 0.04571 0.98169 0.62142 0.0
N302 N 1.00002 0.96061 0.629 0.0
H303 H 0.03458 0.9374 0.60041 0.0
H304 H 0.03424 0.02343 0.64769 0.0
C305 C 0.08508 0.99416 0.68556 0.0
O306 O 0.074 0.96656 0.68301 0.0
N307 N 0.12725 1.00888 0.59819 0.0
C308 C 0.14941 0.99516 0.57988 0.0
C309 C 0.17584 1.01182 0.58349 0.0
C310 C 0.14033 0.03384 0.61219 0.0
N311 N 0.1701 0.03613 0.60388 0.0
C312 C 0.0957 0.93024 0.60074 0.0
C313 C 0.14133 0.92276 0.6491 0.0
C314 C 0.13194 0.89773 0.62931 0.0
C315 C 0.10861 0.90175 0.60519 0.0
C316 C 0.12759 0.95109 0.64386 0.0
N317 N 0.10428 0.95435 0.62066 0.0
H318 H 0.07977 0.93306 0.57984 0.0
H319 H 0.1364 0.97056 0.65761 0.0
H320 H 0.1469 0.97387 0.56619 0.0
H321 H 0.12866 0.04919 0.62963 0.0
O322 O 0.07903 0.98539 0.56112 0.0
O323 O 0.06854 0.02908 0.5867 0.0
O324 O 0.09201 1.00908 0.65818 0.0
C325 C 0.06659 1.0119 0.55909 0.0
H326 H 0.98069 0.99792 0.65787 0.0
H327 H 0.19775 1.00612 0.57251 0.0
H328 H 0.16012 0.92083 0.66708 0.0
H329 H 0.10114 0.88322 0.58879 0.0
Co330 Co 0.79835 0.33188 0.36271 0.0
C331 C 0.83386 0.27252 0.36308 0.0
C332 C 0.79447 0.27339 0.3957 0.0
C333 C 0.80606 0.24467 0.39623 0.0
N334 N 0.81206 0.29134 0.37561 0.0
N335 N 0.83072 0.24404 0.37569 0.0
H336 H 0.85037 0.27841 0.34358 0.0
H337 H 0.77351 0.28039 0.40798 0.0
C338 C 0.79946 0.33222 0.43946 0.0
O339 O 0.82752 0.32226 0.43697 0.0
N340 N 0.7819 0.37152 0.35112 0.0
C341 C 0.78874 0.38961 0.32404 0.0
C342 C 0.77115 0.41561 0.32616 0.0
C343 C 0.76042 0.38675 0.36929 0.0
N344 N 0.75354 0.41378 0.3548 0.0
C345 C 0.86186 0.34171 0.35361 0.0
C346 C 0.8682 0.38925 0.39979 0.0
C347 C 0.89359 0.37948 0.38079 0.0
C348 C 0.89012 0.3553 0.35764 0.0
C349 C 0.84012 0.37491 0.39488 0.0
N350 N 0.83745 0.35064 0.37289 0.0
H351 H 0.85943 0.32505 0.33347 0.0
H352 H 0.82041 0.38375 0.40822 0.0
H353 H 0.80537 0.38438 0.30424 0.0
H354 H 0.74958 0.37814 0.39247 0.0
O355 O 0.80607 0.32309 0.31472 0.0
O356 O 0.76317 0.31208 0.34182 0.0
O357 O 0.78396 0.33751 0.41204 0.0
C358 C 0.77973 0.31011 0.31371 0.0
H359 H 0.79673 0.22551 0.41021 0.0
H360 H 0.77166 0.43459 0.30837 0.0
H361 H 0.8697 0.40864 0.41698 0.0
H362 H 0.90892 0.34755 0.34179 0.0
Co363 Co 0.45355 0.04789 0.11088 0.0
C364 C 0.513 0.08321 0.11191 0.0
C365 C 0.51287 0.04192 0.14119 0.0
C366 C 0.54172 0.05315 0.1413 0.0
N367 N 0.4944 0.06087 0.12349 0.0
N368 N 0.54191 0.07898 0.12282 0.0
H369 H 0.50652 0.10091 0.09411 0.0
H370 H 0.5061 0.02029 0.15193 0.0
C371 C 0.45552 0.04509 0.1871 0.0
O372 O 0.46582 0.07304 0.18541 0.0
N373 N 0.41373 0.03203 0.0992 0.0
C374 C 0.39159 0.04556 0.08074 0.0
C375 C 0.36532 0.02862 0.08401 0.0
C376 C 0.40083 1.00687 0.11289 0.0
N377 N 0.37116 1.00432 0.10432 0.0
C378 C 0.44267 0.11216 0.10901 0.0
C379 C 0.39583 0.1128 0.15678 0.0
C380 C 0.40434 0.14011 0.14083 0.0
C381 C 0.4282 0.13952 0.11673 0.0
C382 C 0.41079 0.08592 0.14812 0.0
N383 N 0.43466 0.08591 0.12536 0.0
H384 H 0.45912 0.11191 0.08839 0.0
H385 H 0.40269 0.06493 0.15924 0.0
H386 H 0.39396 0.067 0.06736 0.0
H387 H 0.41246 0.99164 0.13044 0.0
O388 O 0.46123 0.05864 0.06324 0.0
O389 O 0.47289 1.01431 0.08678 0.0
O390 O 0.44914 0.03056 0.15922 0.0
C391 C 0.47446 0.0325 0.06004 0.0
H392 H 0.56128 0.04279 0.15352 0.0
H393 H 0.34342 0.03417 0.07298 0.0
H394 H 0.37723 0.11199 0.17516 0.0
H395 H 0.43457 0.15969 0.10244 0.0
Co396 Co 0.74452 0.33445 0.6515 0.0
C397 C 0.70644 0.27633 0.6463 0.0
C398 C 0.74982 0.27522 0.62103 0.0
C399 C 0.73623 0.24771 0.6162 0.0
N400 N 0.73106 0.29371 0.63905 0.0
N401 N 0.70909 0.24841 0.63206 0.0
H402 H 0.68703 0.28329 0.66133 0.0
H403 H 0.77223 0.28144 0.61199 0.0
C404 C 0.74444 0.33289 0.57488 0.0
O405 O 0.71641 0.32287 0.57734 0.0
N406 N 0.7609 0.3743 0.66246 0.0
C407 C 0.75369 0.39301 0.68888 0.0
C408 C 0.77124 0.419 0.68626 0.0
C409 C 0.78256 0.38916 0.64418 0.0
N410 N 0.7892 0.41656 0.65796 0.0
C411 C 0.68123 0.34503 0.66011 0.0
C412 C 0.67512 0.39115 0.61213 0.0
C413 C 0.64977 0.38223 0.6317 0.0
C414 C 0.65311 0.35874 0.65572 0.0
C415 C 0.70309 0.37669 0.61741 0.0
N416 N 0.70561 0.3531 0.64031 0.0
H417 H 0.68358 0.32887 0.68082 0.0
H418 H 0.72284 0.38499 0.60371 0.0
H419 H 0.7368 0.38824 0.70853 0.0
H420 H 0.79367 0.38004 0.62141 0.0
O421 O 0.73596 0.32654 0.69949 0.0
O422 O 0.77926 0.31491 0.6736 0.0
O423 O 0.75962 0.33904 0.6023 0.0
C424 C 0.76212 0.31333 0.7013 0.0
H425 H 0.74562 0.22845 0.60239 0.0
H426 H 0.77043 0.43842 0.70346 0.0
H427 H 0.67369 0.41004 0.59425 0.0
H428 H 0.63431 0.3517 0.672 0.0
Co429 Co 0.457 0.99164 0.39884 0.0
C430 C 0.51622 0.95568 0.39951 0.0
C431 C 0.5154 0.99382 0.36516 0.0
C432 C 0.54412 0.98219 0.36504 0.0
N433 N 0.49736 0.97699 0.386 0.0
N434 N 0.54473 0.95832 0.38668 0.0
H435 H 0.51038 0.94009 0.41997 0.0
H436 H 0.50858 1.01447 0.3522 0.0
C437 C 0.45637 0.99003 0.32213 0.0
O438 O 0.46582 0.96182 0.32468 0.0
N439 N 0.41764 1.00919 0.41023 0.0
C440 C 0.39891 1.00257 0.43683 0.0
C441 C 0.37335 0.02079 0.43443 0.0
C442 C 0.40322 0.03121 0.39209 0.0
N443 N 0.37605 0.03863 0.4061 0.0
C444 C 0.44639 0.92837 0.40727 0.0
C445 C 0.39829 0.92307 0.36171 0.0
C446 C 0.4081 0.89742 0.38005 0.0
C447 C 0.43251 0.90034 0.40294 0.0
C448 C 0.41289 0.95093 0.36696 0.0
N449 N 0.43742 0.95305 0.38862 0.0
H450 H 0.46336 0.93038 0.42709 0.0
H451 H 0.40416 0.97086 0.35405 0.0
H452 H 0.40336 0.98559 0.45644 0.0
H453 H 0.41248 0.04198 0.3692 0.0
O454 O 0.46536 0.98366 0.44683 0.0
O455 O 0.47767 0.02622 0.41985 0.0
O456 O 0.45172 1.00587 0.34949 0.0
C457 C 0.4792 1.00952 0.44787 0.0
H458 H 0.56332 0.99105 0.35072 0.0
H459 H 0.35401 0.0205 0.45179 0.0
H460 H 0.37873 0.9219 0.34473 0.0
H461 H 0.44022 0.88127 0.41831 0.0
Co462 Co 0.79628 0.7066 0.15016 0.0
C463 C 0.8359 0.76345 0.14537 0.0
C464 C 0.79233 0.76624 0.12073 0.0
C465 C 0.80666 0.79342 0.11636 0.0
N466 N 0.81074 0.74694 0.138 0.0
N467 N 0.83389 0.79165 0.13183 0.0
H468 H 0.85514 0.75565 0.16011 0.0
H469 H 0.76964 0.76084 0.11195 0.0
C470 C 0.79497 0.70913 0.07369 0.0
O471 O 0.82321 0.71862 0.07575 0.0
N472 N 0.77898 0.66729 0.16108 0.0
C473 C 0.7884 0.64663 0.18445 0.0
C474 C 0.77057 0.62092 0.18116 0.0
C475 C 0.75568 0.65397 0.14405 0.0
N476 N 0.75018 0.62554 0.15551 0.0
C477 C 0.85994 0.69316 0.15515 0.0
C478 C 0.86111 0.64786 0.10558 0.0
C479 C 0.88816 0.65543 0.12275 0.0
C480 C 0.88726 0.67838 0.14792 0.0
C481 C 0.83427 0.66322 0.11368 0.0
N482 N 0.83414 0.68658 0.13708 0.0
H483 H 0.85933 0.70892 0.1765 0.0
H484 H 0.81346 0.65595 0.10141 0.0
H485 H 0.80736 0.64971 0.20192 0.0
H486 H 0.74304 0.66478 0.12342 0.0
O487 O 0.80589 0.71397 0.19814 0.0
O488 O 0.76249 0.72677 0.17316 0.0
O489 O 0.78003 0.70296 0.10132 0.0
C490 C 0.77993 0.7277 0.20056 0.0
H491 H 0.79775 0.81317 0.10314 0.0
H492 H 0.77312 0.60008 0.19571 0.0
H493 H 0.8605 0.62981 0.08651 0.0
H494 H 0.90714 0.68387 0.16321 0.0
Co495 Co 0.08508 0.04729 0.89807 0.0
C496 C 0.0267 0.08491 0.89458 0.0
C497 C 0.0265 0.04342 0.86554 0.0
C498 C 0.99877 0.05684 0.86171 0.0
N499 N 0.04462 0.06125 0.88516 0.0
N500 N 0.99889 0.0828 0.87992 0.0
H501 H 0.03309 0.10306 0.9118 0.0
H502 H 0.03295 0.02159 0.85502 0.0
C503 C 0.08498 0.04818 0.82139 0.0
O504 O 0.07521 0.07628 0.82399 0.0
N505 N 0.1246 0.03042 0.90955 0.0
C506 C 0.14323 0.03752 0.93606 0.0
C507 C 0.16902 1.01962 0.93376 0.0
C508 C 0.13929 1.00848 0.89156 0.0
N509 N 0.16652 1.00155 0.90557 0.0
C510 C 0.0959 0.11044 0.90711 0.0
C511 C 0.14295 0.11628 0.86012 0.0
C512 C 0.13368 0.14166 0.87935 0.0
C513 C 0.1098 0.13848 0.90295 0.0
C514 C 0.12835 0.08839 0.86523 0.0
N515 N 0.10427 0.08602 0.88756 0.0
H516 H 0.0794 0.10819 0.92751 0.0
H517 H 0.13685 0.0686 0.85178 0.0
H518 H 0.13854 0.05459 0.95553 0.0
H519 H 0.13016 0.99739 0.8688 0.0
O520 O 0.07664 0.05559 0.94597 0.0
O521 O 0.06485 1.01264 0.91947 0.0
O522 O 0.09033 0.03262 0.84876 0.0
C523 C 0.06311 0.02959 0.9473 0.0
H524 H 0.97968 0.04801 0.84715 0.0
H525 H 0.18835 0.02028 0.95107 0.0
H526 H 0.16216 0.11763 0.8426 0.0
H527 H 0.10256 0.15733 0.91904 0.0
Co528 Co 0.79994 0.8366 0.65264 0.0
C529 C 0.83907 0.77918 0.64794 0.0
C530 C 0.79601 0.77735 0.62207 0.0
C531 C 0.81007 0.75003 0.61753 0.0
N532 N 0.81426 0.79615 0.64028 0.0
N533 N 0.83699 0.75117 0.63377 0.0
H534 H 0.85816 0.78653 0.66323 0.0
H535 H 0.77361 0.7832 0.61272 0.0
C536 C 0.80074 0.835 0.57598 0.0
O537 O 0.82889 0.8253 0.57848 0.0
N538 N 0.78275 0.87611 0.66349 0.0
C539 C 0.78949 0.89506 0.68983 0.0
C540 C 0.77157 0.92078 0.6869 0.0
C541 C 0.761 0.89054 0.64497 0.0
N542 N 0.75387 0.91792 0.65848 0.0
C543 C 0.86296 0.84868 0.66228 0.0
C544 C 0.8685 0.89434 0.61358 0.0
C545 C 0.89382 0.88625 0.63353 0.0
C546 C 0.89079 0.86314 0.65809 0.0
C547 C 0.84082 0.87939 0.61889 0.0
N548 N 0.83863 0.85596 0.64205 0.0
H549 H 0.86077 0.83251 0.68304 0.0
H550 H 0.82104 0.88716 0.60493 0.0
H551 H 0.80635 0.89065 0.70959 0.0
H552 H 0.75022 0.88115 0.62216 0.0
O553 O 0.80781 0.82855 0.70078 0.0
O554 O 0.76513 0.81656 0.67378 0.0
O555 O 0.78542 0.84107 0.60334 0.0
C556 C 0.78175 0.81502 0.70182 0.0
H557 H 0.80116 0.7306 0.60366 0.0
H558 H 0.772 0.94033 0.70392 0.0
H559 H 0.8697 0.91296 0.5953 0.0
H560 H 0.90961 0.85686 0.67471 0.0
Co561 Co 0.45594 0.54596 0.90032 0.0
C562 C 0.51373 0.58442 0.89567 0.0
C563 C 0.51542 0.54125 0.87005 0.0
C564 C 0.54281 0.55521 0.8654 0.0
N565 N 0.49667 0.55965 0.88819 0.0
N566 N 0.54173 0.58221 0.88148 0.0
H567 H 0.50647 0.60365 0.91079 0.0
H568 H 0.50945 0.51887 0.86076 0.0
C569 C 0.45776 0.54663 0.82362 0.0
O570 O 0.46783 0.5746 0.82632 0.0
N571 N 0.41605 0.52951 0.911 0.0
C572 C 0.3973 0.53661 0.93746 0.0
C573 C 0.37118 0.5193 0.93454 0.0
C574 C 0.40106 0.50817 0.8924 0.0
N575 N 0.37356 0.50162 0.90602 0.0
C576 C 0.44486 0.60905 0.90998 0.0
C577 C 0.39922 0.61554 0.86142 0.0
C578 C 0.40774 0.64064 0.88157 0.0
C579 C 0.43096 0.63712 0.90592 0.0
C580 C 0.41381 0.58761 0.86642 0.0
N581 N 0.4372 0.58492 0.8896 0.0
H582 H 0.46087 0.60652 0.93085 0.0
H583 H 0.40573 0.56803 0.85231 0.0
H584 H 0.40214 0.55329 0.9573 0.0
H585 H 0.41015 0.49727 0.86948 0.0
O586 O 0.46379 0.55392 0.94848 0.0
O587 O 0.47545 0.51097 0.92197 0.0
O588 O 0.45147 0.53132 0.85091 0.0
C589 C 0.47692 0.52771 0.94996 0.0
H590 H 0.56222 0.54618 0.85155 0.0
H591 H 0.35171 0.5201 0.95169 0.0
H592 H 0.38052 0.61709 0.84327 0.0
H593 H 0.43767 0.65571 0.92265 0.0
Co594 Co 0.74031 0.20372 0.15123 0.0
C595 C 0.69687 0.2575 0.14832 0.0
C596 C 0.73847 0.2633 0.12008 0.0
C597 C 0.72178 0.28929 0.11672 0.0
N598 N 0.72268 0.24281 0.13893 0.0
N599 N 0.69581 0.28559 0.13447 0.0
H600 H 0.67947 0.24864 0.16514 0.0
H601 H 0.761 0.25963 0.10968 0.0
C602 C 0.74092 0.20555 0.07439 0.0
O603 O 0.71217 0.21344 0.07625 0.0
N604 N 0.7601 0.16551 0.1625 0.0
C605 C 0.75467 0.14704 0.18965 0.0
C606 C 0.7732 0.12179 0.18682 0.0
C607 C 0.78169 0.15117 0.14351 0.0
N608 N 0.79 0.12437 0.15764 0.0
C609 C 0.67789 0.18655 0.15852 0.0
C610 C 0.67727 0.14292 0.10704 0.0
C611 C 0.65014 0.14971 0.12453 0.0
C612 C 0.65085 0.17154 0.15096 0.0
C613 C 0.70387 0.15852 0.11553 0.0
N614 N 0.70353 0.18137 0.13955 0.0
H615 H 0.67834 0.20165 0.18048 0.0
H616 H 0.72472 0.15216 0.10267 0.0
H617 H 0.73811 0.15134 0.20982 0.0
H618 H 0.79133 0.16009 0.1198 0.0
O619 O 0.73133 0.21147 0.19943 0.0
O620 O 0.77326 0.22624 0.17255 0.0
O621 O 0.75606 0.20045 0.10212 0.0
C622 C 0.75651 0.22672 0.20054 0.0
H623 H 0.72832 0.30962 0.10283 0.0
H624 H 0.77368 0.10264 0.2044 0.0
H625 H 0.67805 0.12557 0.08714 0.0
H626 H 0.63096 0.17618 0.16665 0.0
Co627 Co 0.08456 0.49242 0.39943 0.0
C628 C 0.02809 0.45214 0.39491 0.0
C629 C 0.02548 0.49449 0.36775 0.0
C630 C 0.99844 0.4798 0.36359 0.0
N631 N 0.04468 0.47698 0.38636 0.0
N632 N 1.00007 0.45332 0.38063 0.0
H633 H 0.03562 0.43384 0.4113 0.0
H634 H 0.03073 0.51693 0.35812 0.0
C635 C 0.08349 0.49359 0.32289 0.0
O636 O 0.0748 0.4651 0.32472 0.0
N637 N 0.12346 0.51058 0.41132 0.0
C638 C 0.14208 0.50382 0.43795 0.0
C639 C 0.16788 0.52165 0.43542 0.0
C640 C 0.1382 0.53228 0.39301 0.0
N641 N 0.16544 0.53933 0.40695 0.0
C642 C 0.09907 0.42908 0.40452 0.0
C643 C 0.14554 0.42904 0.35629 0.0
C644 C 0.138 0.40178 0.37298 0.0
C645 C 0.11448 0.4021 0.3975 0.0
C646 C 0.12954 0.45552 0.36417 0.0
N647 N 0.10565 0.45508 0.38688 0.0
H648 H 0.08281 0.42927 0.42539 0.0
H649 H 0.13665 0.47648 0.35216 0.0
H650 H 0.13752 0.48681 0.45749 0.0
H651 H 0.12928 0.54287 0.36986 0.0
O652 O 0.07642 0.48267 0.44727 0.0
O653 O 0.06322 0.5257 0.42177 0.0
O654 O 0.08869 0.50867 0.35067 0.0
C655 C 0.06207 0.5083 0.44919 0.0
H656 H 0.97878 0.4881 0.34965 0.0
H657 H 0.18728 0.52105 0.45264 0.0
H658 H 0.16398 0.43006 0.33771 0.0
H659 H 0.10897 0.38202 0.41241 0.0
Co660 Co 0.79882 0.20687 0.86357 0.0
C661 C 0.83479 0.26598 0.86368 0.0
C662 C 0.79587 0.26526 0.89702 0.0
C663 C 0.80744 0.29398 0.89724 0.0
N664 N 0.8132 0.24717 0.87673 0.0
N665 N 0.83179 0.29451 0.87625 0.0
H666 H 0.85084 0.26011 0.84366 0.0
H667 H 0.77492 0.25848 0.90942 0.0
C668 C 0.79864 0.20638 0.94032 0.0
O669 O 0.827 0.21555 0.93851 0.0
N670 N 0.78154 0.16756 0.85179 0.0
C671 C 0.78883 0.14869 0.82554 0.0
C672 C 0.77059 0.12314 0.82764 0.0
C673 C 0.75911 0.15324 0.8694 0.0
N674 N 0.75209 0.12601 0.85544 0.0
C675 C 0.8622 0.19604 0.85624 0.0
C676 C 0.86662 0.14746 0.9012 0.0
C677 C 0.89241 0.15682 0.88272 0.0
C678 C 0.88997 0.18157 0.86029 0.0
C679 C 0.839 0.16266 0.89624 0.0
N680 N 0.83726 0.18728 0.87468 0.0
H681 H 0.86053 0.21316 0.83656 0.0
H682 H 0.81889 0.15417 0.90904 0.0
H683 H 0.8063 0.15303 0.80642 0.0
H684 H 0.74778 0.16262 0.8919 0.0
O685 O 0.80774 0.2152 0.81575 0.0
O686 O 0.76462 0.22746 0.84175 0.0
O687 O 0.78345 0.20166 0.91255 0.0
C688 C 0.78184 0.22897 0.81411 0.0
H689 H 0.79819 0.31325 0.91113 0.0
H690 H 0.77134 0.10368 0.81049 0.0
H691 H 0.86744 0.1277 0.91788 0.0
H692 H 0.90918 0.18897 0.84486 0.0
Co693 Co 0.08299 0.54876 0.11162 0.0
C694 C 0.02443 0.58594 0.1123 0.0
C695 C 0.02437 0.54635 0.14451 0.0
C696 C 0.99587 0.55849 0.14508 0.0
N697 N 0.04278 0.56366 0.12463 0.0
N698 N 0.9958 0.58325 0.12479 0.0
H699 H 0.03075 0.60243 0.09298 0.0
H700 H 0.03086 0.52516 0.15652 0.0
C701 C 0.08318 0.5497 0.1883 0.0
O702 O 0.07393 0.57799 0.18597 0.0
N703 N 0.12222 0.53109 0.09999 0.0
C704 C 0.14077 0.5377 0.07322 0.0
C705 C 0.16637 0.51952 0.07543 0.0
C706 C 0.1368 0.50913 0.11808 0.0
N707 N 0.16387 0.50173 0.10382 0.0
C708 C 0.09491 0.61185 0.10281 0.0
C709 C 0.1427 0.61636 0.14894 0.0
C710 C 0.13399 0.64196 0.12986 0.0
C711 C 0.10976 0.63947 0.10667 0.0
C712 C 0.12729 0.58889 0.14401 0.0
N713 N 0.10295 0.58715 0.12203 0.0
H714 H 0.07801 0.61007 0.08285 0.0
H715 H 0.1354 0.56889 0.1573 0.0
H716 H 0.13618 0.55465 0.05364 0.0
H717 H 0.12773 0.49841 0.14109 0.0
O718 O 0.07452 0.5569 0.06369 0.0
O719 O 0.06214 0.51431 0.09057 0.0
O720 O 0.08813 0.53415 0.16082 0.0
C721 C 0.06064 0.53104 0.06259 0.0
H722 H 0.97641 0.54938 0.15876 0.0
H723 H 0.1856 0.51982 0.05791 0.0
H724 H 0.1621 0.61719 0.16618 0.0
H725 H 0.10295 0.65853 0.09071 0.0
Co726 Co 0.74318 0.83289 0.36503 0.0
C727 C 0.70545 0.77512 0.36496 0.0
C728 C 0.74394 0.77455 0.39888 0.0
C729 C 0.73155 0.74619 0.39868 0.0
N730 N 0.72737 0.79324 0.37853 0.0
N731 N 0.70748 0.74645 0.37732 0.0
H732 H 0.69004 0.78156 0.34453 0.0
H733 H 0.76505 0.78057 0.41142 0.0
C734 C 0.7442 0.83361 0.44162 0.0
O735 O 0.71558 0.82526 0.44007 0.0
N736 N 0.76167 0.87146 0.35259 0.0
C737 C 0.75457 0.89023 0.32622 0.0
C738 C 0.77304 0.9156 0.32811 0.0
C739 C 0.78424 0.88566 0.37007 0.0
N740 N 0.79149 0.91274 0.35589 0.0
C741 C 0.67947 0.84638 0.36126 0.0
C742 C 0.68001 0.89502 0.40652 0.0
C743 C 0.65243 0.88642 0.3912 0.0
C744 C 0.65246 0.86177 0.36822 0.0
C745 C 0.70655 0.879 0.39875 0.0
N746 N 0.70589 0.85422 0.37737 0.0
H747 H 0.67928 0.82909 0.3416 0.0
H748 H 0.72771 0.88669 0.40985 0.0
H749 H 0.73692 0.88604 0.30731 0.0
H750 H 0.7953 0.87644 0.39277 0.0
O751 O 0.73337 0.8245 0.31735 0.0
O752 O 0.77638 0.81111 0.34288 0.0
O753 O 0.75944 0.83767 0.4137 0.0
C754 C 0.75898 0.81005 0.31543 0.0
H755 H 0.74017 0.72653 0.41232 0.0
H756 H 0.77237 0.93502 0.31094 0.0
H757 H 0.68123 0.91424 0.42399 0.0
H758 H 0.63208 0.85527 0.35436 0.0
Co759 Co 0.45768 0.49263 0.61118 0.0
C760 C 0.51519 0.45378 0.61616 0.0
C761 C 0.51627 0.49618 0.64346 0.0
C762 C 0.54365 0.48225 0.648 0.0
N763 N 0.49785 0.4782 0.62441 0.0
N764 N 0.54298 0.45573 0.63088 0.0
H765 H 0.50831 0.43515 0.59988 0.0
H766 H 0.5102 0.51839 0.6532 0.0
C767 C 0.45771 0.49205 0.6879 0.0
O768 O 0.46711 0.46382 0.68545 0.0
N769 N 0.41842 0.50992 0.5994 0.0
C770 C 0.39987 0.50298 0.57277 0.0
C771 C 0.3741 0.52092 0.57506 0.0
C772 C 0.4037 0.5318 0.61747 0.0
N773 N 0.37653 0.53884 0.60338 0.0
C774 C 0.44556 0.42963 0.60181 0.0
C775 C 0.39849 0.4246 0.64891 0.0
C776 C 0.40694 0.39916 0.62929 0.0
C777 C 0.43081 0.40194 0.60559 0.0
C778 C 0.4138 0.45215 0.64404 0.0
N779 N 0.43787 0.45412 0.62164 0.0
H780 H 0.46222 0.4316 0.5815 0.0
H781 H 0.4058 0.47203 0.6577 0.0
H782 H 0.40456 0.48594 0.55326 0.0
H783 H 0.41274 0.54271 0.64039 0.0
O784 O 0.46639 0.48426 0.56331 0.0
O785 O 0.47843 0.52708 0.58986 0.0
O786 O 0.45243 0.50751 0.66044 0.0
C787 C 0.48018 0.51013 0.56204 0.0
H788 H 0.56287 0.49107 0.66234 0.0
H789 H 0.3548 0.52034 0.5577 0.0
H790 H 0.37933 0.42359 0.66653 0.0
H791 H 0.43743 0.38305 0.58923 0.0
Co792 Co 0.24458 0.20732 0.36092 0.0
C793 C 0.20837 0.26649 0.36165 0.0
C794 C 0.2483 0.26603 0.39332 0.0
C795 C 0.23646 0.29464 0.39415 0.0
N796 N 0.23057 0.24787 0.37363 0.0
N797 N 0.21146 0.29501 0.37422 0.0
H798 H 0.19155 0.26045 0.34261 0.0
H799 H 0.26948 0.25923 0.40517 0.0
C800 C 0.24359 0.20746 0.43761 0.0
O801 O 0.21546 0.21721 0.43512 0.0
N802 N 0.2615 0.16769 0.34966 0.0
C803 C 0.25463 0.14909 0.32304 0.0
C804 C 0.27245 0.12326 0.32548 0.0
C805 C 0.28325 0.15291 0.36787 0.0
N806 N 0.29027 0.12566 0.35386 0.0
C807 C 0.18119 0.19716 0.35253 0.0
C808 C 0.17518 0.14956 0.39857 0.0
C809 C 0.14972 0.15924 0.37972 0.0
C810 C 0.15301 0.18354 0.35674 0.0
C811 C 0.2032 0.16405 0.39358 0.0
N812 N 0.2057 0.1883 0.37158 0.0
H813 H 0.18347 0.21378 0.33235 0.0
H814 H 0.22299 0.15533 0.40682 0.0
H815 H 0.23777 0.15382 0.30337 0.0
H816 H 0.29415 0.16198 0.39078 0.0
O817 O 0.23638 0.21554 0.31293 0.0
O818 O 0.27934 0.22744 0.33925 0.0
O819 O 0.25918 0.20223 0.4102 0.0
C820 C 0.26243 0.22901 0.31139 0.0
H821 H 0.24583 0.3139 0.40793 0.0
H822 H 0.2719 0.10396 0.3081 0.0
H823 H 0.17379 0.13012 0.41567 0.0
H824 H 0.13414 0.19126 0.34103 0.0
Co825 Co 0.58394 0.49032 0.11241 0.0
C826 C 0.52709 0.45271 0.11164 0.0
C827 C 0.52718 0.48794 0.15024 0.0
C828 C 0.49904 0.47497 0.14986 0.0
N829 N 0.54494 0.47409 0.12647 0.0
N830 N 0.49884 0.45308 0.12552 0.0
H831 H 0.53392 0.43865 0.08995 0.0
H832 H 0.53346 0.50755 0.16545 0.0
C833 C 0.6075 0.49939 0.18511 0.0
O834 O 0.63133 0.48241 0.17846 0.0
N835 N 0.6226 0.50957 0.09926 0.0
C836 C 0.63631 0.51012 0.06784 0.0
C837 C 0.66126 0.52913 0.06921 0.0
C838 C 0.63897 0.52944 0.11862 0.0
N839 N 0.66297 0.54106 0.10136 0.0
C840 C 0.62296 0.44006 0.09974 0.0
C841 C 0.60645 0.40566 0.15674 0.0
C842 C 0.62647 0.39332 0.13219 0.0
C843 C 0.63492 0.4111 0.10368 0.0
C844 C 0.59481 0.43494 0.15168 0.0
N845 N 0.60357 0.45201 0.12371 0.0
H846 H 0.6284 0.45229 0.07645 0.0
H847 H 0.57853 0.44377 0.17012 0.0
H848 H 0.62849 0.49811 0.04506 0.0
H849 H 0.63271 0.53711 0.14417 0.0
O850 O 0.57483 0.48065 0.0649 0.0
O851 O 0.56187 0.5236 0.09094 0.0
O852 O 0.58857 0.50609 0.16118 0.0
C853 C 0.56034 0.50622 0.06344 0.0
H854 H 0.47975 0.48177 0.1655 0.0
H855 H 0.67678 0.53392 0.04812 0.0
H856 H 0.59916 0.39253 0.17898 0.0
H857 H 0.65044 0.40255 0.08414 0.0
Co858 Co 0.29777 0.83294 0.86124 0.0
C859 C 0.33613 0.77507 0.86615 0.0
C860 C 0.29356 0.77426 0.89317 0.0
C861 C 0.30729 0.74679 0.89777 0.0
N862 N 0.31176 0.79255 0.87423 0.0
N863 N 0.33394 0.74729 0.88084 0.0
H864 H 0.35495 0.78183 0.85005 0.0
H865 H 0.27135 0.7805 0.90284 0.0
C866 C 0.2985 0.83268 0.93793 0.0
O867 O 0.32661 0.82289 0.93539 0.0
N868 N 0.28093 0.87243 0.84969 0.0
C869 C 0.28804 0.8909 0.82304 0.0
C870 C 0.27036 0.91682 0.82536 0.0
C871 C 0.2592 0.88736 0.8678 0.0
N872 N 0.25242 0.91458 0.8537 0.0
C873 C 0.36095 0.84429 0.85194 0.0
C874 C 0.36638 0.89138 0.8989 0.0
C875 C 0.39175 0.88271 0.87925 0.0
C876 C 0.38879 0.85877 0.8557 0.0
C877 C 0.3387 0.87626 0.89415 0.0
N878 N 0.33652 0.85222 0.87177 0.0
H879 H 0.35879 0.82771 0.8316 0.0
H880 H 0.31888 0.88445 0.9078 0.0
H881 H 0.305 0.88603 0.80349 0.0
H882 H 0.2482 0.87844 0.89073 0.0
O883 O 0.30602 0.82441 0.81334 0.0
O884 O 0.26301 0.81276 0.83981 0.0
O885 O 0.28302 0.83817 0.91053 0.0
C886 C 0.2799 0.81106 0.81193 0.0
H887 H 0.29827 0.72766 0.91206 0.0
H888 H 0.2711 0.93608 0.80796 0.0
H889 H 0.36752 0.91059 0.9164 0.0
H890 H 0.40762 0.85196 0.83932 0.0
Co891 Co 0.95671 0.54866 0.61153 0.0
C892 C 1.01609 0.58438 0.61129 0.0
C893 C 1.0156 0.54477 0.64345 0.0
C894 C 0.04434 0.55633 0.6437 0.0
N895 N 0.9974 0.56248 0.62381 0.0
N896 N 0.04474 0.58112 0.62345 0.0
H897 H 1.00997 0.60107 0.59214 0.0
H898 H 1.00873 0.52376 0.65561 0.0
C899 C 0.9573 0.55006 0.68821 0.0
O900 O 0.96735 0.57804 0.68553 0.0
N901 N 0.91695 0.53197 0.60067 0.0
C902 C 0.89822 0.53886 0.57419 0.0
C903 C 0.8724 0.52103 0.57682 0.0
C904 C 0.90228 0.51022 0.61897 0.0
N905 N 0.87497 0.50321 0.60518 0.0
C906 C 0.94668 0.61206 0.6026 0.0
C907 C 0.89985 0.6185 0.64978 0.0
C908 C 0.9095 0.64387 0.63078 0.0
C909 C 0.93328 0.64034 0.60706 0.0
C910 C 0.91397 0.59038 0.64441 0.0
N911 N 0.93794 0.58769 0.62196 0.0
H912 H 0.96309 0.6096 0.58217 0.0
H913 H 0.90526 0.5707 0.65782 0.0
H914 H 0.90289 0.55568 0.55447 0.0
H915 H 0.91151 0.49928 0.64176 0.0
O916 O 0.96488 0.55633 0.56343 0.0
O917 O 0.97646 0.51356 0.59035 0.0
O918 O 0.95168 0.53448 0.66093 0.0
C919 C 0.97811 0.53013 0.56226 0.0
H920 H 0.06367 0.5469 0.65729 0.0
H921 H 0.85302 0.52153 0.55957 0.0
H922 H 0.88074 0.62007 0.66741 0.0
H923 H 0.94089 0.65914 0.59118 0.0
Co924 Co 0.24319 0.83411 0.15005 0.0
C925 C 0.20628 0.77549 0.14491 0.0
C926 C 0.24917 0.77517 0.11854 0.0
C927 C 0.23589 0.74745 0.11389 0.0
N928 N 0.23044 0.7933 0.13706 0.0
N929 N 0.20906 0.74767 0.13046 0.0
H930 H 0.18719 0.78204 0.16069 0.0
H931 H 0.27136 0.78172 0.10911 0.0
C932 C 0.24386 0.83319 0.07351 0.0
O933 O 0.21604 0.82257 0.07576 0.0
N934 N 0.25865 0.87405 0.16175 0.0
C935 C 0.24515 0.89581 0.18087 0.0
C936 C 0.26166 0.92234 0.1775 0.0
C937 C 0.28335 0.88744 0.14751 0.0
N938 N 0.28565 0.91704 0.15644 0.0
C939 C 0.1796 0.84396 0.15796 0.0
C940 C 0.17358 0.89015 0.11004 0.0
C941 C 0.14819 0.88112 0.12941 0.0
C942 C 0.15145 0.85761 0.15342 0.0
C943 C 0.20156 0.87583 0.11552 0.0
N944 N 0.20408 0.85222 0.13841 0.0
H945 H 0.18191 0.82783 0.17871 0.0
H946 H 0.22136 0.88441 0.10218 0.0
H947 H 0.22404 0.89301 0.19487 0.0
H948 H 0.29842 0.87619 0.1294 0.0
O949 O 0.23435 0.8257 0.19787 0.0
O950 O 0.27803 0.81497 0.17223 0.0
O951 O 0.2588 0.83954 0.10109 0.0
C952 C 0.2607 0.81284 0.19972 0.0
H953 H 0.24533 0.72836 0.09983 0.0
H954 H 0.25604 0.94402 0.18904 0.0
H955 H 0.1722 0.90911 0.09223 0.0
H956 H 0.13259 0.85057 0.1696 0.0
Co957 Co 0.95443 0.49413 0.89988 0.0
C958 C 1.01126 0.45425 0.89491 0.0
C959 C 1.01378 0.49725 0.86907 0.0
C960 C 0.04093 0.48282 0.86464 0.0
N961 N 0.9946 0.47922 0.88708 0.0
N962 N 0.03936 0.45594 0.88085 0.0
H963 H 1.00369 0.43543 0.91049 0.0
H964 H 1.00837 0.5198 0.85993 0.0
C965 C 0.95616 0.49513 0.82341 0.0
O966 O 0.96521 0.46677 0.8255 0.0
N967 N 0.91526 0.51186 0.91149 0.0
C968 C 0.89648 0.5049 0.93794 0.0
C969 C 0.87076 0.52287 0.93553 0.0
C970 C 0.90071 0.53381 0.8934 0.0
N971 N 0.87343 0.54084 0.90731 0.0
C972 C 0.94077 0.43067 0.90504 0.0
C973 C 0.89479 0.42974 0.85633 0.0
C974 C 0.90273 0.40264 0.87308 0.0
C975 C 0.92597 0.40341 0.89787 0.0
C976 C 0.91022 0.45653 0.86434 0.0
N977 N 0.93392 0.45652 0.88726 0.0
H978 H 0.95681 0.43118 0.92609 0.0
H979 H 0.90286 0.47737 0.85225 0.0
H980 H 0.90094 0.48776 0.95735 0.0
H981 H 0.90987 0.54467 0.87052 0.0
O982 O 0.9623 0.48446 0.94774 0.0
O983 O 0.97522 0.52766 0.92242 0.0
O984 O 0.95048 0.51027 0.85104 0.0
C985 C 0.97637 0.51023 0.94982 0.0
H986 H 0.06059 0.4915 0.85096 0.0
H987 H 0.8513 0.52223 0.9527 0.0
H988 H 0.87648 0.4304 0.8376 0.0
H989 H 0.93172 0.38345 0.91287 0.0
Co990 Co 0.29868 0.20616 0.64957 0.0
C991 C 0.33547 0.26499 0.64453 0.0
C992 C 0.29256 0.26512 0.6183 0.0
C993 C 0.30571 0.29291 0.61369 0.0
N994 N 0.31137 0.24706 0.63673 0.0
N995 N 0.33255 0.29282 0.63016 0.0
H996 H 0.35462 0.2585 0.66019 0.0
H997 H 0.2704 0.25847 0.60891 0.0
C998 C 0.29822 0.20711 0.57305 0.0
O999 O 0.32601 0.2178 0.57532 0.0
N1000 N 0.28322 0.16615 0.66107 0.0
C1001 C 0.29669 0.14431 0.68003 0.0
C1002 C 0.28011 0.11783 0.67661 0.0
C1003 C 0.25846 0.15282 0.64688 0.0
N1004 N 0.2561 0.1232 0.65569 0.0
C1005 C 0.36227 0.19655 0.65764 0.0
C1006 C 0.36867 0.1503 0.60976 0.0
C1007 C 0.39394 0.15941 0.62926 0.0
C1008 C 0.39049 0.18297 0.65323 0.0
C1009 C 0.34062 0.16457 0.6151 0.0
N1010 N 0.3379 0.18818 0.63801 0.0
H1011 H 0.35981 0.21273 0.67836 0.0
H1012 H 0.32091 0.15593 0.60165 0.0
H1013 H 0.31782 0.14705 0.69398 0.0
H1014 H 0.24337 0.16416 0.62892 0.0
O1015 O 0.30728 0.21456 0.69744 0.0
O1016 O 0.26368 0.22516 0.67167 0.0
O1017 O 0.28326 0.20071 0.6006 0.0
C1018 C 0.28087 0.22733 0.69923 0.0
H1019 H 0.29616 0.31195 0.59971 0.0
H1020 H 0.2857 0.09612 0.68806 0.0
H1021 H 0.3702 0.13133 0.59196 0.0
H1022 H 0.40924 0.19011 0.66949 0.0
Co1023 Co 0.58622 0.54642 0.39906 0.0
C1024 C 0.52866 0.58513 0.39418 0.0
C1025 C 0.52635 0.54133 0.37004 0.0
C1026 C 0.49889 0.55522 0.3658 0.0
N1027 N 0.54554 0.56018 0.38689 0.0
N1028 N 0.50034 0.58259 0.38098 0.0
H1029 H 0.53629 0.60461 0.40864 0.0
H1030 H 0.53208 0.51868 0.3614 0.0
C1031 C 0.58331 0.54497 0.32266 0.0
O1032 O 0.57161 0.57233 0.32522 0.0
N1033 N 0.62588 0.52981 0.41026 0.0
C1034 C 0.64516 0.53801 0.43573 0.0
C1035 C 0.67102 0.52022 0.43337 0.0
C1036 C 0.64024 0.50731 0.39284 0.0
N1037 N 0.6679 0.50113 0.40617 0.0
C1038 C 0.59868 0.61018 0.4041 0.0
C1039 C 0.64378 0.61202 0.35426 0.0
C1040 C 0.63598 0.63888 0.37168 0.0
C1041 C 0.6131 0.63766 0.39694 0.0
C1042 C 0.62879 0.585 0.36229 0.0
N1043 N 0.60559 0.58451 0.38593 0.0
H1044 H 0.58296 0.60936 0.4255 0.0
H1045 H 0.63635 0.56434 0.34992 0.0
H1046 H 0.64091 0.55584 0.45443 0.0
H1047 H 0.63061 0.49539 0.37093 0.0
O1048 O 0.5785 0.55617 0.44695 0.0
O1049 O 0.56648 0.51249 0.42214 0.0
O1050 O 0.59061 0.53029 0.35008 0.0
C1051 C 0.56504 0.53013 0.4494 0.0
H1052 H 0.47915 0.54589 0.35288 0.0
H1053 H 0.69085 0.5217 0.44986 0.0
H1054 H 0.66181 0.61168 0.33512 0.0
H1055 H 0.60744 0.65742 0.41238 0.0
C1056 C 0.29686 0.2912 0.25554 0.0
C1057 C 0.27634 0.29227 0.22746 0.0
H1058 H 0.30901 0.27011 0.30387 0.0
C1059 C 0.25229 0.27146 0.22665 0.0
H1060 H 0.31589 0.30672 0.25678 0.0
C1061 C 0.24874 0.25019 0.25328 0.0
C1062 C 0.2691 0.24919 0.2815 0.0
H1063 H 0.23641 0.27129 0.2052 0.0
H1064 H 0.22969 0.23471 0.25189 0.0
C1065 C 0.29324 0.26994 0.28232 0.0
C1066 C 0.04526 0.99842 0.50101 0.0
C1067 C 0.04659 1.01881 0.52919 0.0
H1068 H 0.02348 0.986 0.45333 0.0
C1069 C 0.02598 0.04306 0.53026 0.0
H1070 H 0.06065 0.97929 0.49947 0.0
C1071 C 1.00438 0.04664 0.50387 0.0
C1072 C 1.00287 0.02601 0.47591 0.0
H1073 H 0.02606 0.05885 0.55182 0.0
H1074 H 0.98889 0.06569 0.50537 0.0
C1075 C 0.02367 1.00196 0.47472 0.0
C1076 C 0.24852 0.77065 0.78286 0.0
C1077 C 0.27298 0.79101 0.78204 0.0
H1078 H 0.22528 0.73429 0.75724 0.0
C1079 C 0.29329 0.7898 0.75375 0.0
H1080 H 0.23276 0.77068 0.80447 0.0
C1081 C 0.28938 0.76868 0.72704 0.0
C1082 C 0.26501 0.74825 0.72786 0.0
H1083 H 0.31257 0.80501 0.75237 0.0
H1084 H 0.30525 0.76865 0.70554 0.0
C1085 C 0.24454 0.74953 0.75601 0.0
C1086 C 0.49677 0.04754 1.0025 0.0
C1087 C 0.49497 0.02669 0.03019 0.0
H1088 H 0.51892 0.06004 0.95485 0.0
C1089 C 0.51545 1.00236 0.031 0.0
H1090 H 0.48153 0.0668 1.00133 0.0
C1091 C 0.53718 0.99892 0.00482 0.0
C1092 C 0.53896 1.01963 0.97701 0.0
H1093 H 0.51508 0.98623 0.05219 0.0
H1094 H 0.55244 0.97968 0.00626 0.0
C1095 C 0.51847 0.04399 0.97611 0.0
C1096 C 0.24706 0.79056 0.25742 0.0
C1097 C 0.26729 0.79216 0.22906 0.0
H1098 H 0.23506 0.76829 0.30503 0.0
C1099 C 0.29122 0.77126 0.22718 0.0
H1100 H 0.22814 0.80616 0.25949 0.0
C1101 C 0.2948 0.74924 0.253 0.0
C1102 C 0.27457 0.74762 0.28136 0.0
H1103 H 0.30683 0.7715 0.20543 0.0
H1104 H 0.31371 0.73363 0.25086 0.0
C1105 C 0.25068 0.76856 0.28329 0.0
C1106 C 0.50088 0.9963 0.50595 0.0
C1107 C 0.49988 1.01616 0.47727 0.0
H1108 H 0.52231 0.98468 0.55414 0.0
C1109 C 0.52113 0.03977 0.4754 0.0
H1110 H 0.48502 0.97761 0.50806 0.0
C1111 C 0.54279 0.04349 0.50165 0.0
C1112 C 0.54375 0.02365 0.53035 0.0
H1113 H 0.52134 0.0551 0.45343 0.0
H1114 H 0.55864 0.06219 0.49959 0.0
C1115 C 0.52255 1.0 0.53217 0.0
C1116 C 0.2499 0.26861 0.72678 0.0
C1117 C 0.27405 0.24796 0.7286 0.0
H1118 H 0.22696 0.30598 0.75058 0.0
C1119 C 0.29422 0.24978 0.75695 0.0
H1120 H 0.23431 0.26819 0.70505 0.0
C1121 C 0.29034 0.27173 0.78287 0.0
C1122 C 0.26621 0.29241 0.781 0.0
H1123 H 0.31332 0.23439 0.75897 0.0
H1124 H 0.30592 0.27217 0.8046 0.0
C1125 C 0.24604 0.29057 0.75266 0.0
C1126 C 0.02099 0.9997 0.97481 0.0
C1127 C 0.04244 0.02311 0.97673 0.0
H1128 H 0.98315 0.97775 0.99888 0.0
C1129 C 0.04156 0.04304 0.00539 0.0
H1130 H 0.0207 0.98434 0.95285 0.0
C1131 C 1.01975 0.03964 0.03154 0.0
C1132 C 0.99832 1.01622 0.02964 0.0
H1133 H 0.0576 0.06157 0.00752 0.0
H1134 H 1.02007 0.05499 0.05351 0.0
C1135 C 0.99918 0.99629 1.00098 0.0
C1136 C 0.74636 0.75211 0.75513 0.0
C1137 C 0.76612 0.75059 0.78385 0.0
H1138 H 0.73529 0.77402 0.70709 0.0
C1139 C 0.79022 0.77128 0.78593 0.0
H1140 H 0.72733 0.73667 0.75287 0.0
C1141 C 0.79445 0.79298 0.75987 0.0
C1142 C 0.77468 0.79449 0.73116 0.0
H1143 H 0.80551 0.77105 0.80794 0.0
H1144 H 0.81349 0.80841 0.7621 0.0
C1145 C 0.75058 0.77381 0.72909 0.0
C1146 C 0.79182 0.28884 0.25518 0.0
C1147 C 0.77212 0.29011 0.28399 0.0
H1148 H 0.80279 0.26757 0.20674 0.0
C1149 C 0.74761 0.26982 0.28547 0.0
H1150 H 0.81111 0.304 0.25328 0.0
C1151 C 0.74305 0.24864 0.25878 0.0
C1152 C 0.76296 0.24726 0.23013 0.0
H1153 H 0.73229 0.2699 0.30749 0.0
H1154 H 0.72381 0.23342 0.26056 0.0
C1155 C 0.78732 0.26769 0.22862 0.0
C1156 C 0.79244 0.27201 0.72973 0.0
C1157 C 0.76866 0.2931 0.73109 0.0
H1158 H 0.81468 0.23468 0.75442 0.0
C1159 C 0.74846 0.29221 0.75953 0.0
H1160 H 0.80804 0.27173 0.70797 0.0
C1161 C 0.7519 0.27069 0.78593 0.0
C1162 C 0.77563 0.24953 0.78452 0.0
H1163 H 0.72965 0.30799 0.76124 0.0
H1164 H 0.73627 0.27094 0.80765 0.0
C1165 C 0.79589 0.25049 0.75615 0.0
C1166 C 0.74444 0.7882 0.25773 0.0
C1167 C 0.76519 0.78977 0.2855 0.0
H1168 H 0.7324 0.76705 0.2095 0.0
C1169 C 0.79004 0.76985 0.28571 0.0
H1170 H 0.72483 0.80302 0.25691 0.0
C1171 C 0.79412 0.74897 0.25869 0.0
C1172 C 0.77343 0.74747 0.23086 0.0
H1173 H 0.80619 0.77017 0.3069 0.0
H1174 H 0.81377 0.73419 0.25946 0.0
C1175 C 0.74851 0.7673 0.23073 0.0
C1176 C 0.51727 0.49625 0.97883 0.0
C1177 C 0.49675 0.52056 0.97995 0.0
H1178 H 0.55389 0.4731 1.00395 0.0
C1179 C 0.49778 0.54056 0.00852 0.0
H1180 H 0.51739 0.48072 0.95701 0.0
C1181 C 0.51898 0.53655 0.03516 0.0
C1182 C 0.53966 0.51239 0.03392 0.0
H1183 H 0.48243 0.55972 0.01013 0.0
H1184 H 0.51894 0.55219 0.05686 0.0
C1185 C 0.53846 0.49219 0.00554 0.0
C1186 C 0.99962 0.54291 0.50406 0.0
C1187 C 0.99827 0.52288 0.53253 0.0
H1188 H 0.02114 0.55449 0.45596 0.0
C1189 C 1.01871 0.49849 0.53377 0.0
H1190 H 0.98438 0.56214 0.50236 0.0
C1191 C 0.04006 0.49432 0.50716 0.0
C1192 C 0.04151 0.51453 0.47885 0.0
H1193 H 1.01858 0.48296 0.55554 0.0
H1194 H 0.05537 0.47513 0.50872 0.0
C1195 C 0.02099 0.53882 0.4776 0.0
C1196 C 0.0388 0.54453 0.00478 0.0
C1197 C 0.04017 0.52429 0.03305 0.0
H1198 H 1.01725 0.55644 0.95683 0.0
C1199 C 1.0196 0.50002 0.03426 0.0
H1200 H 0.05413 0.56368 1.00314 0.0
C1201 C 0.99818 0.4961 0.00774 0.0
C1202 C 0.99679 0.51644 0.97954 0.0
H1203 H 1.01974 0.48433 0.05588 0.0
H1204 H 0.98283 0.47695 0.00924 0.0
C1205 C 1.01736 0.54067 0.97839 0.0
C1206 C 0.52407 0.49972 0.47819 0.0
C1207 C 0.54464 0.52397 0.47922 0.0
H1208 H 0.48711 0.47697 0.50293 0.0
C1209 C 0.54308 0.54453 0.50724 0.0
H1210 H 0.52429 0.4838 0.45675 0.0
C1211 C 0.52147 0.54087 0.53366 0.0
C1212 C 0.50088 0.51662 0.53256 0.0
H1213 H 0.55841 0.56371 0.50864 0.0
H1214 H 0.5212 0.55675 0.55513 0.0
C1215 C 0.50245 0.49612 0.50449 0.0
C1216 C 0.38223 0.22344 0.14505 0.0
C1217 C 0.35047 0.22134 0.14384 0.0
H1218 H 0.42447 0.19918 0.1454 0.0
C1219 C 0.33674 0.19267 0.14619 0.0
H1220 H 0.39328 0.24533 0.14324 0.0
C1221 C 0.35432 0.16643 0.1471 0.0
C1222 C 0.38615 0.16821 0.1458 0.0
H1223 H 0.31225 0.1905 0.1458 0.0
H1224 H 0.3428 0.14472 0.14674 0.0
C1225 C 0.39997 0.19705 0.1459 0.0
C1226 C 0.07993 0.11624 0.41109 0.0
C1227 C 0.06704 0.10756 0.37929 0.0
H1228 H 0.11696 0.13927 0.43631 0.0
C1229 C 0.08065 0.11691 0.34824 0.0
H1230 H 0.06992 0.10872 0.43529 0.0
C1231 C 0.10712 0.13405 0.34869 0.0
C1232 C 0.12079 0.1421 0.38031 0.0
H1233 H 0.07111 0.11013 0.32351 0.0
H1234 H 0.11746 0.14017 0.32414 0.0
C1235 C 0.10689 0.13324 0.41161 0.0
C1236 C 0.15759 0.855 0.59884 0.0
C1237 C 0.14865 0.86855 0.63025 0.0
H1238 H 0.18231 0.81913 0.57431 0.0
C1239 C 0.15651 0.85444 0.66175 0.0
H1240 H 0.15228 0.8655 0.57416 0.0
C1241 C 0.17351 0.82749 0.66166 0.0
C1242 C 0.18318 0.81478 0.63012 0.0
H1243 H 0.1498 0.86441 0.6863 0.0
H1244 H 0.18031 0.81738 0.68605 0.0
C1245 C 0.17474 0.82852 0.59883 0.0
C1246 C 0.46118 0.92585 0.91087 0.0
C1247 C 0.47282 0.93675 0.87932 0.0
H1248 H 0.42561 0.90037 0.93573 0.0
C1249 C 0.45844 0.92889 0.84816 0.0
H1250 H 0.47185 0.93207 0.93516 0.0
C1251 C 0.4325 0.91089 0.84837 0.0
C1252 C 0.42014 0.90065 0.87984 0.0
H1253 H 0.46708 0.93722 0.82362 0.0
H1254 H 0.42158 0.90573 0.82388 0.0
C1255 C 0.43473 0.90812 0.91117 0.0
C1256 C 0.38312 0.85484 0.34709 0.0
C1257 C 0.39105 0.86856 0.37879 0.0
H1258 H 0.35945 0.81795 0.3223 0.0
C1259 C 0.3822 0.85477 0.41004 0.0
H1260 H 0.38982 0.86506 0.32269 0.0
C1261 C 0.36505 0.82831 0.4097 0.0
C1262 C 0.35667 0.81485 0.3782 0.0
H1263 H 0.38772 0.86501 0.43482 0.0
H1264 H 0.35759 0.81861 0.43409 0.0
C1265 C 0.36621 0.82789 0.34682 0.0
C1266 C 0.43707 0.13488 0.59659 0.0
C1267 C 0.42275 0.14216 0.62818 0.0
H1268 H 0.47412 0.11124 0.57195 0.0
C1269 C 0.43569 0.13217 0.65944 0.0
H1270 H 0.42751 0.14241 0.57218 0.0
C1271 C 0.46185 0.11452 0.65918 0.0
C1272 C 0.47589 0.10676 0.62777 0.0
H1273 H 0.42497 0.13714 0.68413 0.0
H1274 H 0.47086 0.1062 0.68354 0.0
C1275 C 0.46374 0.11747 0.59643 0.0
C1276 C 0.17778 0.20993 0.90951 0.0
C1277 C 0.18521 0.2242 0.87816 0.0
H1278 H 0.15585 0.17262 0.93428 0.0
C1279 C 0.17478 0.21189 0.84675 0.0
H1280 H 0.18584 0.21908 0.93393 0.0
C1281 C 0.15791 0.1849 0.8468 0.0
C1282 C 0.15089 0.17043 0.87833 0.0
H1283 H 0.18075 0.22247 0.82232 0.0
H1284 H 0.15048 0.17528 0.82236 0.0
C1285 C 0.16068 0.18344 0.90964 0.0
C1286 C 0.10646 0.90869 0.15932 0.0
C1287 C 0.11945 0.89842 0.12815 0.0
H1288 H 0.07125 0.93487 0.18315 0.0
C1289 C 0.10522 0.90544 0.09649 0.0
H1290 H 0.11712 0.9039 0.18405 0.0
C1291 C 0.07857 0.92286 0.09614 0.0
C1292 C 0.06637 0.93385 0.12738 0.0
H1293 H 0.11484 0.89769 0.07216 0.0
H1294 H 0.06824 0.92887 0.0716 0.0
C1295 C 0.08032 0.92636 0.15888 0.0
C1296 C 0.67539 0.8325 0.91145 0.0
C1297 C 0.68328 0.81824 0.88021 0.0
H1298 H 0.65321 0.86984 0.93596 0.0
C1299 C 0.67331 0.83062 0.84866 0.0
H1300 H 0.68311 0.82335 0.93599 0.0
C1301 C 0.65644 0.85766 0.84849 0.0
C1302 C 0.64898 0.87214 0.87992 0.0
H1303 H 0.67964 0.82009 0.8243 0.0
H1304 H 0.64937 0.8673 0.82394 0.0
C1305 C 0.65833 0.85905 0.91136 0.0
C1306 C 0.96079 0.93355 0.66146 0.0
C1307 C 0.97536 0.93944 0.62983 0.0
H1308 H 0.92364 0.91205 0.68728 0.0
C1309 C 0.96371 0.92688 0.59912 0.0
H1310 H 0.96945 0.94318 0.68536 0.0
C1311 C 0.93708 0.90945 0.60004 0.0
C1312 C 0.92233 0.9039 0.6318 0.0
H1313 H 0.97454 0.93157 0.57445 0.0
H1314 H 0.92796 0.90041 0.57606 0.0
C1315 C 0.93469 0.91578 0.66251 0.0
C1316 C 0.85337 0.16275 0.36746 0.0
C1317 C 0.88518 0.16488 0.36751 0.0
H1318 H 0.8111 0.18648 0.36931 0.0
C1319 C 0.89872 0.19381 0.36613 0.0
H1320 H 0.84215 0.14091 0.36876 0.0
C1321 C 0.88078 0.22003 0.36667 0.0
C1322 C 0.84907 0.21772 0.36891 0.0
H1323 H 0.9232 0.19615 0.36568 0.0
H1324 H 0.89169 0.24204 0.36725 0.0
C1325 C 0.83555 0.18886 0.36815 0.0
C1326 C 0.59683 0.08339 0.11288 0.0
C1327 C 0.5683 0.09731 0.1165 0.0
H1328 H 0.64497 0.08888 0.11283 0.0
C1329 C 0.56663 0.12904 0.11826 0.0
H1330 H 0.59867 0.05895 0.11095 0.0
C1331 C 0.59326 0.14636 0.11912 0.0
C1332 C 0.62193 0.13218 0.11799 0.0
H1333 H 0.54488 0.14024 0.12109 0.0
H1334 H 0.59145 0.17075 0.12191 0.0
C1335 C 0.62335 0.10059 0.11363 0.0
C1336 C 0.67599 0.21204 0.66277 0.0
C1337 C 0.68761 0.22402 0.63174 0.0
H1338 H 0.65032 0.17598 0.68636 0.0
C1339 C 0.68086 0.20976 0.60018 0.0
H1340 H 0.6814 0.22261 0.68738 0.0
C1341 C 0.66324 0.18358 0.59948 0.0
C1342 C 0.65229 0.17086 0.63045 0.0
H1343 H 0.68983 0.21864 0.57605 0.0
H1344 H 0.65895 0.17275 0.57471 0.0
C1345 C 0.65863 0.18536 0.66217 0.0
C1346 C 0.59563 0.89107 0.39776 0.0
C1347 C 0.62447 0.90486 0.39598 0.0
H1348 H 0.54727 0.8976 0.39663 0.0
C1349 C 0.62626 0.93666 0.39562 0.0
H1350 H 0.59352 0.86659 0.39856 0.0
C1351 C 0.59993 0.95418 0.39478 0.0
C1352 C 0.57118 0.94039 0.39424 0.0
H1353 H 0.64798 0.94809 0.39401 0.0
H1354 H 0.60206 0.97861 0.39316 0.0
C1355 C 0.56918 0.90872 0.39704 0.0
C1356 C 0.88139 0.85499 0.09913 0.0
C1357 C 0.89121 0.86857 0.13014 0.0
H1358 H 0.85555 0.81934 0.07576 0.0
C1359 C 0.88393 0.85481 0.16202 0.0
H1360 H 0.88633 0.86526 0.07422 0.0
C1361 C 0.86658 0.82813 0.16272 0.0
C1362 C 0.85601 0.81539 0.13162 0.0
H1363 H 0.89135 0.86484 0.18624 0.0
H1364 H 0.86023 0.81825 0.18741 0.0
C1365 C 0.86386 0.82879 0.09992 0.0
C1366 C 0.96218 0.11365 0.91327 0.0
C1367 C 0.9741 0.10378 0.88139 0.0
H1368 H 0.9261 0.13796 0.93885 0.0
C1369 C 0.95959 0.11204 0.85047 0.0
H1370 H 0.97294 0.10706 0.93737 0.0
C1371 C 0.93333 0.12952 0.8512 0.0
C1372 C 0.92077 0.13887 0.88296 0.0
H1373 H 0.96844 0.10447 0.82569 0.0
H1374 H 0.92239 0.13513 0.82686 0.0
C1375 C 0.93539 0.13089 0.91408 0.0
C1376 C 0.8851 0.68661 0.66429 0.0
C1377 C 0.89288 0.67306 0.63241 0.0
H1378 H 0.86153 0.72335 0.68962 0.0
C1379 C 0.88406 0.68724 0.60138 0.0
H1380 H 0.89174 0.67615 0.68856 0.0
C1381 C 0.86703 0.71381 0.60211 0.0
C1382 C 0.8587 0.72701 0.63379 0.0
H1383 H 0.88938 0.67717 0.57643 0.0
H1384 H 0.85948 0.72369 0.57788 0.0
C1385 C 0.86828 0.71365 0.66496 0.0
C1386 C 0.60596 0.62944 0.84975 0.0
C1387 C 0.61845 0.64016 0.88094 0.0
H1388 H 0.57136 0.60255 0.82582 0.0
C1389 C 0.604 0.63319 0.91251 0.0
H1390 H 0.61679 0.63423 0.82509 0.0
C1391 C 0.57758 0.61543 0.91276 0.0
C1392 C 0.56585 0.60399 0.88152 0.0
H1393 H 0.61323 0.64131 0.93686 0.0
H1394 H 0.56704 0.60955 0.93725 0.0
C1395 C 0.58006 0.61137 0.8501 0.0
C1396 C 0.64066 0.3436 0.10569 0.0
C1397 C 0.63868 0.36208 0.13538 0.0
H1398 H 0.66067 0.30414 0.08257 0.0
C1399 C 0.6515 0.35176 0.16667 0.0
H1400 H 0.63051 0.35065 0.0814 0.0
C1401 C 0.6683 0.32473 0.16731 0.0
C1402 C 0.67229 0.30785 0.13677 0.0
H1403 H 0.65037 0.36558 0.1899 0.0
H1404 H 0.68002 0.31819 0.19084 0.0
C1405 C 0.65754 0.3169 0.10635 0.0
C1406 C 0.96296 0.42204 0.35027 0.0
C1407 C 0.97619 0.4313 0.38157 0.0
H1408 H 0.92649 0.39866 0.32559 0.0
C1409 C 0.96308 0.4223 0.41313 0.0
H1410 H 0.97264 0.42914 0.32573 0.0
C1411 C 0.93625 0.40512 0.41322 0.0
C1412 C 0.92265 0.39641 0.3817 0.0
H1413 H 0.9728 0.42976 0.4375 0.0
H1414 H 0.92596 0.39895 0.43776 0.0
C1415 C 0.9366 0.40467 0.35029 0.0
C1416 C 0.89896 0.3458 0.86751 0.0
C1417 C 0.8848 0.37447 0.86786 0.0
H1418 H 0.89283 0.29743 0.86937 0.0
C1419 C 0.85297 0.37595 0.86641 0.0
H1420 H 0.92348 0.34395 0.86816 0.0
C1421 C 0.83568 0.34949 0.86694 0.0
C1422 C 0.84975 0.32094 0.86888 0.0
H1423 H 0.84129 0.39757 0.86689 0.0
H1424 H 0.81117 0.35137 0.86726 0.0
C1425 C 0.88154 0.31921 0.86783 0.0
C1426 C 0.91456 0.60559 0.11505 0.0
C1427 C 0.91631 0.63734 0.1175 0.0
H1428 H 0.93874 0.56356 0.11472 0.0
C1429 C 0.94516 0.65117 0.11794 0.0
H1430 H 0.89282 0.59411 0.11494 0.0
C1431 C 0.97162 0.63347 0.11794 0.0
C1432 C 0.96958 0.60171 0.11786 0.0
H1433 H 0.94725 0.67562 0.11938 0.0
H1434 H 0.99352 0.64448 0.12004 0.0
C1435 C 0.94087 0.58803 0.11523 0.0
C1436 C 0.70317 0.69186 0.36581 0.0
C1437 C 0.68929 0.72041 0.36899 0.0
H1438 H 0.69734 0.64385 0.36432 0.0
C1439 C 0.65751 0.72234 0.36855 0.0
H1440 H 0.72768 0.68987 0.36573 0.0
C1441 C 0.63993 0.69585 0.36765 0.0
C1442 C 0.65393 0.6671 0.36683 0.0
H1443 H 0.64638 0.74414 0.37107 0.0
H1444 H 0.61543 0.6978 0.36885 0.0
C1445 C 0.68573 0.66551 0.36471 0.0
C1446 C 0.6078 0.40921 0.66192 0.0
C1447 C 0.62096 0.39949 0.63061 0.0
H1448 H 0.57222 0.43453 0.68619 0.0
C1449 C 0.60667 0.40679 0.59905 0.0
H1450 H 0.61846 0.40424 0.6866 0.0
C1451 C 0.57978 0.42389 0.59898 0.0
C1452 C 0.56738 0.43427 0.6304 0.0
H1453 H 0.61637 0.39944 0.5746 0.0
H1454 H 0.56941 0.43013 0.57453 0.0
C1455 C 0.58141 0.4265 0.66176 0.0
C1456 C 0.14305 0.34503 0.36734 0.0
C1457 C 0.15657 0.37399 0.36786 0.0
H1458 H 0.15024 0.2968 0.36847 0.0
C1459 C 0.18836 0.37617 0.36634 0.0
H1460 H 0.11858 0.34264 0.36805 0.0
C1461 C 0.20624 0.35009 0.36639 0.0
C1462 C 0.19282 0.32121 0.36795 0.0
H1463 H 0.19958 0.39802 0.36697 0.0
H1464 H 0.2307 0.35252 0.36645 0.0
C1465 C 0.16106 0.31882 0.36721 0.0
C1466 C 0.47364 0.4043 0.11325 0.0
C1467 C 0.47247 0.43599 0.11578 0.0
H1468 H 0.44804 0.36293 0.11171 0.0
C1469 C 0.44423 0.45069 0.11396 0.0
H1470 H 0.49522 0.39259 0.11468 0.0
C1471 C 0.41741 0.43402 0.11253 0.0
C1472 C 0.41824 0.40218 0.11293 0.0
H1473 H 0.4429 0.47519 0.11557 0.0
H1474 H 0.39605 0.44615 0.11353 0.0
C1475 C 0.44668 0.38747 0.11195 0.0
C1476 C 0.36252 0.70834 0.91175 0.0
C1477 C 0.35531 0.72279 0.88045 0.0
H1478 H 0.38452 0.67107 0.93648 0.0
C1479 C 0.36635 0.71085 0.84909 0.0
H1480 H 0.35402 0.71718 0.93614 0.0
C1481 C 0.38356 0.68405 0.84912 0.0
C1482 C 0.39033 0.66936 0.88059 0.0
H1483 H 0.36059 0.72155 0.82468 0.0
H1484 H 0.39143 0.67472 0.82469 0.0
C1485 C 0.37994 0.68203 0.91188 0.0
C1486 C 0.09536 0.64888 0.61539 0.0
C1487 C 0.12423 0.63508 0.61583 0.0
H1488 H 0.04704 0.6422 0.61703 0.0
C1489 C 0.1261 0.6033 0.61441 0.0
H1490 H 0.09321 0.67336 0.616 0.0
C1491 C 0.09982 0.58571 0.61478 0.0
C1492 C 0.07107 0.59941 0.61658 0.0
H1493 H 0.14786 0.59187 0.61497 0.0
H1494 H 0.10202 0.56124 0.61499 0.0
C1495 C 0.06897 0.63116 0.61561 0.0
C1496 C 0.16295 0.68236 0.09944 0.0
C1497 C 0.15208 0.67019 0.13073 0.0
H1498 H 0.18965 0.7169 0.07516 0.0
C1499 C 0.15886 0.68495 0.16215 0.0
H1500 H 0.15823 0.67129 0.07491 0.0
C1501 C 0.17645 0.71148 0.16213 0.0
C1502 C 0.18792 0.72299 0.13079 0.0
H1503 H 0.15061 0.67596 0.18656 0.0
H1504 H 0.18205 0.72236 0.18651 0.0
C1505 C 0.18087 0.70834 0.09953 0.0
C1506 C 0.07644 0.42429 0.91228 0.0
C1507 C 0.06327 0.43395 0.88104 0.0
H1508 H 0.11367 0.40053 0.93608 0.0
C1509 C 0.0765 0.42544 0.84943 0.0
H1510 H 0.06672 0.43117 0.93689 0.0
C1511 C 0.10293 0.40819 0.84884 0.0
C1512 C 0.11694 0.39929 0.87995 0.0
H1513 H 0.06676 0.43306 0.82514 0.0
H1514 H 0.11304 0.40278 0.82394 0.0
C1515 C 0.10334 0.40722 0.91176 0.0
C1516 C 0.37798 0.35861 0.59902 0.0
C1517 C 0.38899 0.3708 0.63024 0.0
H1518 H 0.35143 0.3239 0.57484 0.0
C1519 C 0.38253 0.35588 0.66165 0.0
H1520 H 0.38243 0.36977 0.57449 0.0
C1521 C 0.36515 0.32919 0.66168 0.0
C1522 C 0.35357 0.31765 0.63041 0.0
H1523 H 0.39088 0.36486 0.68601 0.0
H1524 H 0.35981 0.31821 0.68606 0.0
C1525 C 0.3603 0.33246 0.59916 0.0
C1526 C 0.43614 0.62927 0.34861 0.0
C1527 C 0.42266 0.63914 0.37968 0.0
H1528 H 0.4719 0.60359 0.32505 0.0
C1529 C 0.43667 0.63206 0.41147 0.0
H1530 H 0.4257 0.63408 0.32376 0.0
C1531 C 0.46353 0.61494 0.41202 0.0
C1532 C 0.47622 0.60434 0.38086 0.0
H1533 H 0.42673 0.63952 0.43574 0.0
H1534 H 0.47364 0.60881 0.43665 0.0
C1535 C 0.46251 0.61191 0.34925 0.0
C1536 C 0.29975 0.33845 0.00637 0.0
C1537 C 0.28182 0.3368 0.03651 0.0
H1538 H 0.30066 0.33948 0.95088 0.0
C1539 C 0.25008 0.33653 0.03343 0.0
H1540 H 0.32431 0.339 0.00801 0.0
C1541 C 0.23655 0.33649 1.00067 0.0
C1542 C 0.25454 0.33717 0.97051 0.0
H1543 H 0.23573 0.33535 0.05624 0.0
H1544 H 0.21202 0.33546 0.99899 0.0
C1545 C 0.28623 0.33885 0.97367 0.0
C1546 C 0.95629 0.98672 0.24996 0.0
C1547 C 0.95527 1.00491 0.22001 0.0
H1548 H 0.95743 0.98548 0.30553 0.0
C1549 C 0.95297 0.03651 0.22356 0.0
H1550 H 0.95779 0.96225 0.24799 0.0
C1551 C 0.95307 0.04976 0.25644 0.0
C1552 C 0.95506 0.03165 0.28637 0.0
H1553 H 0.95205 0.05108 0.20096 0.0
H1554 H 0.95204 0.07426 0.25838 0.0
C1555 C 0.95596 0.99997 0.28289 0.0
C1556 C 0.24102 0.70254 0.50706 0.0
C1557 C 0.25908 0.70401 0.53707 0.0
H1558 H 0.23991 0.70142 0.45157 0.0
C1559 C 0.29081 0.70395 0.53376 0.0
H1560 H 0.21647 0.70225 0.50887 0.0
C1561 C 0.30422 0.7038 0.50091 0.0
C1562 C 0.28611 0.70324 0.47087 0.0
H1563 H 0.30526 0.705 0.55648 0.0
H1564 H 0.32875 0.70456 0.49905 0.0
C1565 C 0.25442 0.70194 0.47425 0.0
C1566 C 0.58633 0.0401 0.78368 0.0
C1567 C 0.58577 1.00843 0.78729 0.0
H1568 H 0.586 0.07774 0.74868 0.0
C1569 C 0.58664 0.99013 0.75741 0.0
H1570 H 0.58574 0.05476 0.80626 0.0
C1571 C 0.58714 1.00326 0.72445 0.0
C1572 C 0.58632 0.03493 0.72082 0.0
H1573 H 0.58649 0.96562 0.75944 0.0
H1574 H 0.58718 0.98861 0.70186 0.0
C1575 C 0.58636 0.05323 0.75072 0.0
C1576 C 0.74894 0.70567 0.03605 0.0
C1577 C 0.78066 0.7063 0.03934 0.0
H1578 H 0.71104 0.70595 1.00135 0.0
C1579 C 0.79879 0.7055 0.00931 0.0
H1580 H 0.73445 0.70619 0.05878 0.0
C1581 C 0.78545 0.70498 0.97651 0.0
C1582 C 0.75374 0.70573 0.97316 0.0
H1583 H 0.82334 0.70565 0.01111 0.0
H1584 H 0.79999 0.70499 0.95381 0.0
C1585 C 0.73558 0.70563 1.0032 0.0
C1586 C 0.08834 1.00267 0.78297 0.0
C1587 C 0.08796 0.03432 0.78676 0.0
H1588 H 0.08759 0.96515 0.74777 0.0
C1589 C 0.08886 0.05272 0.75697 0.0
H1590 H 0.08773 0.98795 0.80547 0.0
C1591 C 0.08916 0.03968 0.72393 0.0
C1592 C 0.08807 1.00804 0.72016 0.0
H1593 H 0.08885 0.07722 0.75916 0.0
H1594 H 0.08915 0.05437 0.70141 0.0
C1595 C 0.08815 0.98965 0.74995 0.0
C1596 C 0.74039 0.33584 0.5104 0.0
C1597 C 0.75858 0.33554 0.54035 0.0
H1598 H 0.73909 0.33551 0.45487 0.0
C1599 C 0.7903 0.33628 0.53685 0.0
H1600 H 0.71585 0.33556 0.51235 0.0
C1601 C 0.80359 0.33589 0.50394 0.0
C1602 C 0.78539 0.33524 0.47399 0.0
H1603 H 0.80486 0.33612 0.5595 0.0
H1604 H 0.82813 0.33564 0.50197 0.0
C1605 C 0.75368 0.33593 0.4775 0.0
C1606 C 0.45156 0.03552 0.28415 0.0
C1607 C 0.4532 1.00388 0.28756 0.0
H1608 H 0.45105 0.0733 0.24949 0.0
C1609 C 0.45324 0.98568 0.25756 0.0
H1610 H 0.45136 0.05011 0.30679 0.0
C1611 C 0.45272 0.99897 0.22466 0.0
C1612 C 0.45261 0.03065 0.22134 0.0
H1613 H 0.4542 0.96118 0.25946 0.0
H1614 H 0.45353 0.9845 0.20192 0.0
C1615 C 0.45148 0.04878 0.25133 0.0
C1616 C 0.80431 0.83616 0.51133 0.0
C1617 C 0.78645 0.83726 0.54156 0.0
H1618 H 0.80492 0.83456 0.45579 0.0
C1619 C 0.75475 0.83915 0.53855 0.0
H1620 H 0.82884 0.83495 0.51289 0.0
C1621 C 0.74109 0.83861 0.50593 0.0
C1622 C 0.7589 0.83659 0.47574 0.0
H1623 H 0.74042 0.84012 0.5614 0.0
H1624 H 0.71654 0.83936 0.50441 0.0
C1625 C 0.79065 0.83604 0.47866 0.0
C1626 C 0.45519 0.55097 0.75908 0.0
C1627 C 0.45506 0.5327 0.78897 0.0
H1628 H 0.45564 0.55243 0.70353 0.0
C1629 C 0.45374 0.50104 0.78532 0.0
H1630 H 0.45593 0.57547 0.76114 0.0
C1631 C 0.45393 0.48787 0.75235 0.0
C1632 C 0.45496 0.50613 0.72247 0.0
H1633 H 0.45355 0.48641 0.80789 0.0
H1634 H 0.4537 0.46336 0.7503 0.0
C1635 C 0.4549 0.53781 0.72611 0.0
C1636 C 0.78753 0.20281 0.03747 0.0
C1637 C 0.75575 0.20344 0.04017 0.0
H1638 H 0.82604 0.20335 1.0036 0.0
C1639 C 0.73816 0.20316 0.00975 0.0
H1640 H 0.80166 0.20291 0.06047 0.0
C1641 C 0.7521 0.20308 0.9772 0.0
C1642 C 0.78388 0.20369 0.97451 0.0
H1643 H 0.71358 0.20336 0.01103 0.0
H1644 H 0.73796 0.20343 0.95421 0.0
C1645 C 0.80147 0.20315 0.00492 0.0
C1646 C 0.08706 0.49024 0.25848 0.0
C1647 C 0.08605 0.50814 0.28866 0.0
H1648 H 0.08737 0.48939 0.20299 0.0
C1649 C 0.08612 0.53986 0.28562 0.0
H1650 H 0.08733 0.4657 0.26007 0.0
C1651 C 0.08583 0.55342 0.25289 0.0
C1652 C 0.08591 0.53548 0.22271 0.0
H1653 H 0.08542 0.55419 0.30847 0.0
H1654 H 0.08511 0.57794 0.25126 0.0
C1655 C 0.0872 0.50379 0.2258 0.0
C1656 C 0.25242 0.20347 0.53505 0.0
C1657 C 0.28412 0.20414 0.53858 0.0
H1658 H 0.2147 0.20419 0.50011 0.0
C1659 C 0.3024 0.20373 0.50865 0.0
H1660 H 0.23781 0.20374 0.55769 0.0
C1661 C 0.28922 0.20364 0.47573 0.0
C1662 C 0.25753 0.20445 0.47218 0.0
H1663 H 0.32693 0.20396 0.51063 0.0
H1664 H 0.30388 0.20399 0.45313 0.0
C1665 C 0.23923 0.20386 0.50211 0.0
C1666 C 0.61046 0.50892 0.28284 0.0
C1667 C 0.58947 0.53253 0.28785 0.0
H1668 H 0.63313 0.48016 0.24608 0.0
C1669 C 0.57499 0.54533 0.25891 0.0
H1670 H 0.62214 0.49882 0.30469 0.0
C1671 C 0.58117 0.53471 0.22562 0.0
C1672 C 0.60223 0.51122 0.22042 0.0
H1673 H 0.55868 0.56356 0.26194 0.0
H1674 H 0.56944 0.54502 0.20392 0.0
C1675 C 0.61695 0.49846 0.24931 0.0
C1676 C 0.30287 0.83621 1.00243 0.0
C1677 C 0.28457 0.83577 0.97254 0.0
H1678 H 0.3043 0.83624 0.05802 0.0
C1679 C 0.25288 0.83677 0.97618 0.0
H1680 H 0.3274 0.83573 1.00037 0.0
C1681 C 0.23971 0.83673 0.00914 0.0
C1682 C 0.25799 0.83616 0.03902 0.0
H1683 H 0.23823 0.83654 0.95361 0.0
H1684 H 0.21518 0.83665 0.01118 0.0
C1685 C 0.28969 0.83664 0.03541 0.0
C1686 C 0.95264 0.50454 0.72623 0.0
C1687 C 0.95434 0.53618 0.72278 0.0
H1688 H 0.95201 0.46677 0.76095 0.0
C1689 C 0.95458 0.55439 0.75276 0.0
H1690 H 0.95234 0.48995 0.70359 0.0
C1691 C 0.95404 0.54112 0.78565 0.0
C1692 C 0.95373 0.50944 0.78904 0.0
H1693 H 0.95561 0.57888 0.75083 0.0
H1694 H 0.95488 0.55563 0.80834 0.0
C1695 C 0.95256 0.49128 0.75907 0.0
C1696 C 0.21134 0.45496 0.16534 0.0
C1697 C 0.22861 0.43708 0.14238 0.0
H1698 H 0.17696 0.48921 0.1711 0.0
C1699 C 0.22419 0.44094 0.10645 0.0
H1700 H 0.2141 0.45245 0.19311 0.0
C1701 C 0.20328 0.46231 0.09383 0.0
C1702 C 0.18573 0.47991 0.11679 0.0
H1703 H 0.23729 0.42772 0.08807 0.0
H1704 H 0.20049 0.46478 0.06606 0.0
C1705 C 0.18993 0.47585 0.15273 0.0
C1706 C 0.83896 0.95964 0.41722 0.0
C1707 C 0.85652 0.97708 0.39417 0.0
H1708 H 0.80481 0.92524 0.4231 0.0
C1709 C 0.85219 0.97302 0.35825 0.0
H1710 H 0.84183 0.96215 0.44498 0.0
C1711 C 0.83069 0.95222 0.34572 0.0
C1712 C 0.81343 0.93447 0.36876 0.0
H1713 H 0.86516 0.9863 0.33983 0.0
H1714 H 0.82784 0.94968 0.31796 0.0
C1715 C 0.81793 0.93836 0.40467 0.0
C1716 C 0.32921 0.58533 0.66537 0.0
C1717 C 0.31188 0.60322 0.64259 0.0
H1718 H 0.3636 0.55111 0.67075 0.0
C1719 C 0.31606 0.59936 0.60661 0.0
H1720 H 0.32661 0.58786 0.69317 0.0
C1721 C 0.33689 0.57799 0.59375 0.0
C1722 C 0.35456 0.56044 0.61654 0.0
H1723 H 0.30287 0.6126 0.58838 0.0
H1724 H 0.33957 0.57554 0.56595 0.0
C1725 C 0.35052 0.56445 0.65252 0.0
C1726 C 0.70389 0.07978 0.91678 0.0
C1727 C 0.68636 0.06226 0.89377 0.0
H1728 H 0.73822 0.11401 0.92262 0.0
C1729 C 0.69102 0.06598 0.85785 0.0
H1730 H 0.70076 0.07757 0.94454 0.0
C1731 C 0.71281 0.08651 0.84529 0.0
C1732 C 0.73001 0.10436 0.8683 0.0
H1733 H 0.67807 0.05266 0.83946 0.0
H1734 H 0.71587 0.08881 0.81753 0.0
C1735 C 0.72519 0.10079 0.9042 0.0
C1736 C 0.19176 0.56388 0.35732 0.0
C1737 C 0.18766 0.56046 0.39337 0.0
H1738 H 0.21605 0.58633 0.31628 0.0
C1739 C 0.20564 0.57802 0.41585 0.0
H1740 H 0.17846 0.5505 0.33932 0.0
C1741 C 0.22683 0.59883 0.40264 0.0
C1742 C 0.23106 0.60213 0.3666 0.0
H1743 H 0.20295 0.576 0.44369 0.0
H1744 H 0.24022 0.61211 0.42065 0.0
C1745 C 0.21343 0.58421 0.34411 0.0
C1746 C 0.69313 0.97811 0.65364 0.0
C1747 C 0.68951 0.98168 0.61756 0.0
H1748 H 0.71675 0.95536 0.69492 0.0
C1749 C 0.70766 0.96408 0.59525 0.0
H1750 H 0.67967 0.99149 0.67152 0.0
C1751 C 0.72855 0.94308 0.60866 0.0
C1752 C 0.73231 0.93963 0.64474 0.0
H1753 H 0.70532 0.9662 0.56739 0.0
H1754 H 0.74208 0.92976 0.59078 0.0
C1755 C 0.71451 0.95759 0.66706 0.0
C1756 C 0.33322 0.4631 0.91504 0.0
C1757 C 0.35134 0.48046 0.8925 0.0
H1758 H 0.2987 0.42896 0.91996 0.0
C1759 C 0.3475 0.4767 0.85646 0.0
H1760 H 0.33574 0.46535 0.94287 0.0
C1761 C 0.32595 0.45621 0.84332 0.0
C1762 C 0.30821 0.43846 0.86588 0.0
H1763 H 0.36094 0.48991 0.83843 0.0
H1764 H 0.32354 0.45381 0.81549 0.0
C1765 C 0.31217 0.44212 0.9019 0.0
C1766 C 0.85079 0.06428 0.1527 0.0
C1767 C 0.85353 0.05966 0.11666 0.0
H1768 H 0.82824 0.08819 0.19394 0.0
C1769 C 0.83494 0.07675 0.09435 0.0
H1770 H 0.86458 0.05132 0.17059 0.0
C1771 C 0.81443 0.0982 0.10773 0.0
C1772 C 0.81151 0.10261 0.14379 0.0
H1773 H 0.83662 0.07384 0.06651 0.0
H1774 H 0.80047 0.11102 0.08987 0.0
C1775 C 0.82983 0.08524 0.16609 0.0
C1776 C 0.83353 0.57979 0.91676 0.0
C1777 C 0.85147 0.56236 0.89404 0.0
H1778 H 0.79924 0.61414 0.92203 0.0
C1779 C 0.84761 0.56633 0.85805 0.0
H1780 H 0.83606 0.57736 0.94457 0.0
C1781 C 0.8262 0.58706 0.84512 0.0
C1782 C 0.8086 0.60482 0.86785 0.0
H1783 H 0.86088 0.55308 0.83987 0.0
H1784 H 0.82375 0.58957 0.81731 0.0
C1785 C 0.81262 0.60099 0.90384 0.0
C1786 C 0.18303 0.08844 0.62317 0.0
C1787 C 0.19177 0.05822 0.61672 0.0
H1788 H 0.19669 0.13286 0.64023 0.0
C1789 C 0.22202 0.04985 0.62351 0.0
H1790 H 0.15996 0.09567 0.6181 0.0
C1791 C 0.2429 0.07099 0.63664 0.0
C1792 C 0.23428 0.10128 0.64278 0.0
H1793 H 0.22948 0.02675 0.61919 0.0
H1794 H 0.26598 0.06372 0.64147 0.0
C1795 C 0.2041 0.10978 0.63567 0.0
C1796 C 0.70805 0.46261 0.4162 0.0
C1797 C 0.68973 0.47929 0.39324 0.0
H1798 H 0.74242 0.42839 0.42195 0.0
C1799 C 0.69297 0.4742 0.35734 0.0
H1800 H 0.70598 0.46592 0.44395 0.0
C1801 C 0.71418 0.4531 0.34472 0.0
C1802 C 0.73215 0.43606 0.3677 0.0
H1803 H 0.67936 0.48686 0.33899 0.0
H1804 H 0.71616 0.44971 0.31697 0.0
C1805 C 0.72875 0.441 0.40361 0.0
C1806 C 0.31931 0.99044 0.12406 0.0
C1807 C 0.34959 0.98216 0.11715 0.0
H1808 H 0.27545 0.97642 0.14224 0.0
C1809 C 0.35848 0.952 0.12358 0.0
H1810 H 0.31177 1.0135 0.11977 0.0
C1811 C 0.33753 0.93062 0.1362 0.0
C1812 C 0.30734 0.93902 0.14344 0.0
H1813 H 0.38157 0.94487 0.11842 0.0
H1814 H 0.34504 0.90758 0.14076 0.0
C1815 C 0.29856 0.96924 0.13731 0.0
C1816 C 0.82801 0.45661 0.66739 0.0
C1817 C 0.81064 0.43864 0.64468 0.0
H1818 H 0.86235 0.49092 0.67261 0.0
C1819 C 0.81469 0.44249 0.60869 0.0
H1820 H 0.82555 0.45408 0.6952 0.0
C1821 C 0.8354 0.46392 0.59574 0.0
C1822 C 0.85312 0.48155 0.61845 0.0
H1823 H 0.8015 0.42917 0.59052 0.0
H1824 H 0.83796 0.46635 0.56793 0.0
C1825 C 0.84922 0.47754 0.65444 0.0
C1826 C 0.32927 0.08574 0.34419 0.0
C1827 C 0.31186 0.10363 0.36701 0.0
H1828 H 0.36357 0.05139 0.33871 0.0
C1829 C 0.31591 0.09963 0.40297 0.0
H1830 H 0.32681 0.08836 0.3164 0.0
C1831 C 0.33663 0.07812 0.41577 0.0
C1832 C 0.35434 0.06053 0.39296 0.0
H1833 H 0.30271 0.11287 0.42124 0.0
H1834 H 0.33915 0.07557 0.44356 0.0
C1835 C 0.35047 0.06472 0.35699 0.0
C1836 C 0.72011 0.60467 0.10644 0.0
C1837 C 0.72825 0.60417 0.1418 0.0
H1838 H 0.69323 0.58493 0.06581 0.0
C1839 C 0.71467 0.58237 0.16343 0.0
H1840 H 0.73037 0.62092 0.08895 0.0
C1841 C 0.69326 0.56186 0.15018 0.0
C1842 C 0.68517 0.56229 0.11482 0.0
H1843 H 0.7203 0.58144 0.19075 0.0
H1844 H 0.68326 0.54537 0.16759 0.0
C1845 C 0.69903 0.58385 0.09307 0.0
C1846 C 0.20613 0.9624 0.91544 0.0
C1847 C 0.18843 0.97982 0.89254 0.0
H1848 H 0.24006 0.92773 0.92102 0.0
C1849 C 0.19236 0.97553 0.85659 0.0
H1850 H 0.20353 0.96506 0.94322 0.0
C1851 C 0.21359 0.9545 0.84387 0.0
C1852 C 0.23095 0.93673 0.86676 0.0
H1853 H 0.17925 0.98875 0.83828 0.0
H1854 H 0.21608 0.95174 0.81608 0.0
C1855 C 0.22688 0.94088 0.90271 0.0
loop_
_geom_bond_atom_site_label_1
_geom_bond_atom_site_label_2
_geom_bond_distance
_geom_bond_site_symmetry_2
_ccdc_geom_bond_type
Co0 N4 2.148 . S
Co0 N10 2.128 . S
Co0 N20 2.194 . S
Co0 O25 2.351 . S
Co0 O26 2.155 . S
Co0 O27 2.096 . S
C1 N4 1.301 . S
C1 N5 1.328 . S
C1 H6 0.930 . S
C2 C3 1.333 . S
C2 N4 1.317 . S
C2 H7 0.930 . S
C3 C2 1.333 . S
C3 N5 1.350 . S
C3 H29 0.931 . S
N4 Co0 2.148 . S
N4 C1 1.301 . S
N4 C2 1.317 . S
N5 C1 1.328 . S
N5 C3 1.350 . S
H6 C1 0.930 . S
H7 C2 0.930 . S
C8 O9 1.224 . S
C8 O27 1.247 . S
O9 C8 1.224 . S
N10 Co0 2.128 . S
N10 C11 1.355 . S
N10 C13 1.311 . S
C11 N10 1.355 . S
C11 C12 1.363 . S
C11 H23 0.929 . S
C12 C11 1.363 . S
C12 N14 1.375 . S
C12 H30 0.931 . S
C13 N10 1.311 . S
C13 N14 1.347 . S
C13 H24 0.929 . S
N14 C12 1.375 . S
N14 C13 1.347 . S
C15 C18 1.365 . S
C15 N20 1.328 . S
C15 H21 0.929 . S
C16 C17 1.362 . S
C16 C19 1.378 . S
C16 H31 0.929 . S
C17 C16 1.362 . S
C17 C18 1.366 . S
C18 C15 1.365 . S
C18 C17 1.366 . S
C18 H32 0.930 . S
C19 C16 1.378 . S
C19 N20 1.315 . S
C19 H22 0.930 . S
N20 Co0 2.194 . S
N20 C15 1.328 . S
N20 C19 1.315 . S
H21 C15 0.929 . S
H22 C19 0.930 . S
H23 C11 0.929 . S
H24 C13 0.929 . S
O25 Co0 2.351 . S
O25 C28 1.244 . S
O26 Co0 2.155 . S
O26 C28 1.240 . S
O27 Co0 2.096 . S
O27 C8 1.247 . S
C28 O25 1.244 . S
C28 O26 1.240 . S
H29 C3 0.931 . S
H30 C12 0.931 . S
H31 C16 0.929 . S
H32 C18 0.930 . S
Co33 N37 2.148 . S
Co33 N43 2.128 . S
Co33 N53 2.194 . S
Co33 O58 2.351 . S
Co33 O59 2.155 . S
Co33 O60 2.096 . S
C34 N37 1.301 . S
C34 N38 1.328 1_655 S
C34 H39 0.930 . S
C35 C36 1.333 1_655 S
C35 N37 1.317 . S
C35 H40 0.930 . S
C36 C35 1.333 1_455 S
C36 N38 1.350 . S
C36 H62 0.931 . S
N37 Co33 2.148 . S
N37 C34 1.301 . S
N37 C35 1.317 . S
N38 C34 1.328 1_455 S
N38 C36 1.350 . S
H39 C34 0.930 . S
H40 C35 0.930 . S
C41 O42 1.224 . S
C41 O60 1.247 . S
O42 C41 1.224 . S
N43 Co33 2.128 . S
N43 C44 1.355 . S
N43 C46 1.311 1_545 S
C44 N43 1.355 . S
C44 C45 1.363 . S
C44 H56 0.929 . S
C45 C44 1.363 . S
C45 N47 1.375 1_545 S
C45 H63 0.931 . S
C46 N43 1.311 1_565 S
C46 N47 1.347 . S
C46 H57 0.929 . S
N47 C45 1.375 1_565 S
N47 C46 1.347 . S
C48 C51 1.365 . S
C48 N53 1.328 . S
C48 H54 0.929 . S
C49 C50 1.362 . S
C49 C52 1.378 . S
C49 H64 0.929 . S
C50 C49 1.362 . S
C50 C51 1.366 . S
C51 C48 1.365 . S
C51 C50 1.366 . S
C51 H65 0.930 . S
C52 C49 1.378 . S
C52 N53 1.315 . S
C52 H55 0.930 . S
N53 Co33 2.194 . S
N53 C48 1.328 . S
N53 C52 1.315 . S
H54 C48 0.929 . S
H55 C52 0.930 . S
H56 C44 0.929 . S
H57 C46 0.929 . S
O58 Co33 2.351 . S
O58 C61 1.244 . S
O59 Co33 2.155 . S
O59 C61 1.240 . S
O60 Co33 2.096 . S
O60 C41 1.247 . S
C61 O58 1.244 . S
C61 O59 1.240 . S
H62 C36 0.931 . S
H63 C45 0.931 . S
H64 C49 0.929 . S
H65 C51 0.930 . S
Co66 N70 2.148 . S
Co66 N76 2.128 . S
Co66 N86 2.194 . S
Co66 O91 2.351 . S
Co66 O92 2.155 . S
Co66 O93 2.096 . S
C67 N70 1.301 . S
C67 N71 1.328 . S
C67 H72 0.930 . S
C68 C69 1.333 . S
C68 N70 1.317 . S
C68 H73 0.930 . S
C69 C68 1.333 . S
C69 N71 1.350 . S
C69 H95 0.931 . S
N70 Co66 2.148 . S
N70 C67 1.301 . S
N70 C68 1.317 . S
N71 C67 1.328 . S
N71 C69 1.350 . S
H72 C67 0.930 . S
H73 C68 0.930 . S
C74 O75 1.224 . S
C74 O93 1.247 . S
O75 C74 1.224 . S
N76 Co66 2.128 . S
N76 C77 1.355 . S
N76 C79 1.311 . S
C77 N76 1.355 . S
C77 C78 1.363 . S
C77 H89 0.929 . S
C78 C77 1.363 . S
C78 N80 1.375 . S
C78 H96 0.931 . S
C79 N76 1.311 . S
C79 N80 1.347 . S
C79 H90 0.929 . S
N80 C78 1.375 . S
N80 C79 1.347 . S
C81 C84 1.365 . S
C81 N86 1.328 . S
C81 H87 0.929 . S
C82 C83 1.362 . S
C82 C85 1.378 . S
C82 H97 0.929 . S
C83 C82 1.362 . S
C83 C84 1.366 . S
C84 C81 1.365 . S
C84 C83 1.366 . S
C84 H98 0.930 . S
C85 C82 1.378 . S
C85 N86 1.315 . S
C85 H88 0.930 . S
N86 Co66 2.194 . S
N86 C81 1.328 . S
N86 C85 1.315 . S
H87 C81 0.929 . S
H88 C85 0.930 . S
H89 C77 0.929 . S
H90 C79 0.929 . S
O91 Co66 2.351 . S
O91 C94 1.244 . S
O92 Co66 2.155 . S
O92 C94 1.240 . S
O93 Co66 2.096 . S
O93 C74 1.247 . S
C94 O91 1.244 . S
C94 O92 1.240 . S
H95 C69 0.931 . S
H96 C78 0.931 . S
H97 C82 0.929 . S
H98 C84 0.930 . S
Co99 N103 2.148 . S
Co99 N109 2.128 . S
Co99 N119 2.194 . S
Co99 O124 2.351 . S
Co99 O125 2.155 . S
Co99 O126 2.096 . S
C100 N103 1.301 . S
C100 N104 1.328 . S
C100 H105 0.930 . S
C101 C102 1.333 . S
C101 N103 1.317 . S
C101 H106 0.930 . S
C102 C101 1.333 . S
C102 N104 1.350 . S
C102 H128 0.931 . S
N103 Co99 2.148 . S
N103 C100 1.301 . S
N103 C101 1.317 . S
N104 C100 1.328 . S
N104 C102 1.350 . S
H105 C100 0.930 . S
H106 C101 0.930 . S
C107 O108 1.224 . S
C107 O126 1.247 . S
O108 C107 1.224 . S
N109 Co99 2.128 . S
N109 C110 1.355 . S
N109 C112 1.311 1_565 S
C110 N109 1.355 . S
C110 C111 1.363 . S
C110 H122 0.929 . S
C111 C110 1.363 . S
C111 N113 1.375 1_565 S
C111 H129 0.931 . S
C112 N109 1.311 1_545 S
C112 N113 1.347 . S
C112 H123 0.929 . S
N113 C111 1.375 1_545 S
N113 C112 1.347 . S
C114 C117 1.365 . S
C114 N119 1.328 . S
C114 H120 0.929 . S
C115 C116 1.362 . S
C115 C118 1.378 . S
C115 H130 0.929 . S
C116 C115 1.362 . S
C116 C117 1.366 . S
C117 C114 1.365 . S
C117 C116 1.366 . S
C117 H131 0.930 . S
C118 C115 1.378 . S
C118 N119 1.315 . S
C118 H121 0.930 . S
N119 Co99 2.194 . S
N119 C114 1.328 . S
N119 C118 1.315 . S
H120 C114 0.929 . S
H121 C118 0.930 . S
H122 C110 0.929 . S
H123 C112 0.929 . S
O124 Co99 2.351 . S
O124 C127 1.244 . S
O125 Co99 2.155 . S
O125 C127 1.240 . S
O126 Co99 2.096 . S
O126 C107 1.247 . S
C127 O124 1.244 . S
C127 O125 1.240 . S
H128 C102 0.931 . S
H129 C111 0.931 . S
H130 C115 0.929 . S
H131 C117 0.930 . S
Co132 N136 2.148 . S
Co132 N142 2.128 . S
Co132 N152 2.194 . S
Co132 O157 2.351 . S
Co132 O158 2.155 . S
Co132 O159 2.096 . S
C133 N136 1.301 . S
C133 N137 1.328 . S
C133 H138 0.930 . S
C134 C135 1.333 . S
C134 N136 1.317 . S
C134 H139 0.930 . S
C135 C134 1.333 . S
C135 N137 1.350 . S
C135 H161 0.931 . S
N136 Co132 2.148 . S
N136 C133 1.301 . S
N136 C134 1.317 . S
N137 C133 1.328 . S
N137 C135 1.350 . S
H138 C133 0.930 . S
H139 C134 0.930 . S
C140 O141 1.224 . S
C140 O159 1.247 . S
O141 C140 1.224 . S
N142 Co132 2.128 . S
N142 C143 1.355 . S
N142 C145 1.311 . S
C143 N142 1.355 . S
C143 C144 1.363 . S
C143 H155 0.929 . S
C144 C143 1.363 . S
C144 N146 1.375 . S
C144 H162 0.931 . S
C145 N142 1.311 . S
C145 N146 1.347 . S
C145 H156 0.929 . S
N146 C144 1.375 . S
N146 C145 1.347 . S
C147 C150 1.365 . S
C147 N152 1.328 . S
C147 H153 0.929 . S
C148 C149 1.362 . S
C148 C151 1.378 . S
C148 H163 0.929 . S
C149 C148 1.362 . S
C149 C150 1.366 . S
C150 C147 1.365 . S
C150 C149 1.366 . S
C150 H164 0.930 . S
C151 C148 1.378 . S
C151 N152 1.315 . S
C151 H154 0.930 . S
N152 Co132 2.194 . S
N152 C147 1.328 . S
N152 C151 1.315 . S
H153 C147 0.929 . S
H154 C151 0.930 . S
H155 C143 0.929 . S
H156 C145 0.929 . S
O157 Co132 2.351 . S
O157 C160 1.244 . S
O158 Co132 2.155 . S
O158 C160 1.240 . S
O159 Co132 2.096 . S
O159 C140 1.247 . S
C160 O157 1.244 . S
C160 O158 1.240 . S
H161 C135 0.931 . S
H162 C144 0.931 . S
H163 C148 0.929 . S
H164 C150 0.930 . S
Co165 N169 2.148 . S
Co165 N175 2.128 . S
Co165 N185 2.194 . S
Co165 O190 2.351 . S
Co165 O191 2.155 . S
Co165 O192 2.096 . S
C166 N169 1.301 . S
C166 N170 1.328 . S
C166 H171 0.930 . S
C167 C168 1.333 . S
C167 N169 1.317 . S
C167 H172 0.930 . S
C168 C167 1.333 . S
C168 N170 1.350 . S
C168 H194 0.931 . S
N169 Co165 2.148 . S
N169 C166 1.301 . S
N169 C167 1.317 . S
N170 C166 1.328 . S
N170 C168 1.350 . S
H171 C166 0.930 . S
H172 C167 0.930 . S
C173 O174 1.224 . S
C173 O192 1.247 . S
O174 C173 1.224 . S
N175 Co165 2.128 . S
N175 C176 1.355 . S
N175 C178 1.311 1_545 S
C176 N175 1.355 . S
C176 C177 1.363 . S
C176 H188 0.929 . S
C177 C176 1.363 . S
C177 N179 1.375 1_545 S
C177 H195 0.931 . S
C178 N175 1.311 1_565 S
C178 N179 1.347 . S
C178 H189 0.929 . S
N179 C177 1.375 1_565 S
N179 C178 1.347 . S
C180 C183 1.365 . S
C180 N185 1.328 . S
C180 H186 0.929 . S
C181 C182 1.362 . S
C181 C184 1.378 . S
C181 H196 0.929 . S
C182 C181 1.362 . S
C182 C183 1.366 . S
C183 C180 1.365 . S
C183 C182 1.366 . S
C183 H197 0.930 . S
C184 C181 1.378 . S
C184 N185 1.315 . S
C184 H187 0.930 . S
N185 Co165 2.194 . S
N185 C180 1.328 . S
N185 C184 1.315 . S
H186 C180 0.929 . S
H187 C184 0.930 . S
H188 C176 0.929 . S
H189 C178 0.929 . S
O190 Co165 2.351 . S
O190 C193 1.244 . S
O191 Co165 2.155 . S
O191 C193 1.240 . S
O192 Co165 2.096 . S
O192 C173 1.247 . S
C193 O190 1.244 . S
C193 O191 1.240 . S
H194 C168 0.931 . S
H195 C177 0.931 . S
H196 C181 0.929 . S
H197 C183 0.930 . S
Co198 N202 2.148 . S
Co198 N208 2.128 . S
Co198 N218 2.194 . S
Co198 O223 2.351 . S
Co198 O224 2.155 . S
Co198 O225 2.096 . S
C199 N202 1.301 . S
C199 N203 1.328 . S
C199 H204 0.930 . S
C200 C201 1.333 . S
C200 N202 1.317 . S
C200 H205 0.930 . S
C201 C200 1.333 . S
C201 N203 1.350 . S
C201 H227 0.931 . S
N202 Co198 2.148 . S
N202 C199 1.301 . S
N202 C200 1.317 . S
N203 C199 1.328 . S
N203 C201 1.350 . S
H204 C199 0.930 . S
H205 C200 0.930 . S
C206 O207 1.224 . S
C206 O225 1.247 . S
O207 C206 1.224 . S
N208 Co198 2.128 . S
N208 C209 1.355 . S
N208 C211 1.311 . S
C209 N208 1.355 . S
C209 C210 1.363 . S
C209 H221 0.929 . S
C210 C209 1.363 . S
C210 N212 1.375 . S
C210 H228 0.931 . S
C211 N208 1.311 . S
C211 N212 1.347 . S
C211 H222 0.929 . S
N212 C210 1.375 . S
N212 C211 1.347 . S
C213 C216 1.365 . S
C213 N218 1.328 . S
C213 H219 0.929 . S
C214 C215 1.362 . S
C214 C217 1.378 . S
C214 H229 0.929 . S
C215 C214 1.362 . S
C215 C216 1.366 . S
C216 C213 1.365 . S
C216 C215 1.366 . S
C216 H230 0.930 . S
C217 C214 1.378 . S
C217 N218 1.315 . S
C217 H220 0.930 . S
N218 Co198 2.194 . S
N218 C213 1.328 . S
N218 C217 1.315 . S
H219 C213 0.929 . S
H220 C217 0.930 . S
H221 C209 0.929 . S
H222 C211 0.929 . S
O223 Co198 2.351 . S
O223 C226 1.244 . S
O224 Co198 2.155 . S
O224 C226 1.240 . S
O225 Co198 2.096 . S
O225 C206 1.247 . S
C226 O223 1.244 . S
C226 O224 1.240 . S
H227 C201 0.931 . S
H228 C210 0.931 . S
H229 C214 0.929 . S
H230 C216 0.930 . S
Co231 N235 2.148 . S
Co231 N241 2.128 . S
Co231 N251 2.194 . S
Co231 O256 2.351 . S
Co231 O257 2.155 . S
Co231 O258 2.096 . S
C232 N235 1.301 . S
C232 N236 1.328 1_655 S
C232 H237 0.930 . S
C233 C234 1.333 1_655 S
C233 N235 1.317 . S
C233 H238 0.930 . S
C234 C233 1.333 1_455 S
C234 N236 1.350 . S
C234 H260 0.931 . S
N235 Co231 2.148 . S
N235 C232 1.301 . S
N235 C233 1.317 . S
N236 C232 1.328 1_455 S
N236 C234 1.350 . S
H237 C232 0.930 . S
H238 C233 0.930 . S
C239 O240 1.224 . S
C239 O258 1.247 . S
O240 C239 1.224 . S
N241 Co231 2.128 . S
N241 C242 1.355 . S
N241 C244 1.311 1_565 S
C242 N241 1.355 . S
C242 C243 1.363 . S
C242 H254 0.929 . S
C243 C242 1.363 . S
C243 N245 1.375 1_565 S
C243 H261 0.931 . S
C244 N241 1.311 1_545 S
C244 N245 1.347 . S
C244 H255 0.929 . S
N245 C243 1.375 1_545 S
N245 C244 1.347 . S
C246 C249 1.365 . S
C246 N251 1.328 . S
C246 H252 0.929 . S
C247 C248 1.362 . S
C247 C250 1.378 . S
C247 H262 0.929 . S
C248 C247 1.362 . S
C248 C249 1.366 . S
C249 C246 1.365 . S
C249 C248 1.366 . S
C249 H263 0.930 . S
C250 C247 1.378 . S
C250 N251 1.315 . S
C250 H253 0.930 . S
N251 Co231 2.194 . S
N251 C246 1.328 . S
N251 C250 1.315 . S
H252 C246 0.929 . S
H253 C250 0.930 . S
H254 C242 0.929 . S
H255 C244 0.929 . S
O256 Co231 2.351 . S
O256 C259 1.244 . S
O257 Co231 2.155 . S
O257 C259 1.240 . S
O258 Co231 2.096 . S
O258 C239 1.247 . S
C259 O256 1.244 . S
C259 O257 1.240 . S
H260 C234 0.931 . S
H261 C243 0.931 . S
H262 C247 0.929 . S
H263 C249 0.930 . S
Co264 N268 2.148 . S
Co264 N274 2.128 . S
Co264 N284 2.194 . S
Co264 O289 2.351 . S
Co264 O290 2.155 . S
Co264 O291 2.096 . S
C265 N268 1.301 . S
C265 N269 1.328 . S
C265 H270 0.930 . S
C266 C267 1.333 . S
C266 N268 1.317 . S
C266 H271 0.930 . S
C267 C266 1.333 . S
C267 N269 1.350 . S
C267 H293 0.931 . S
N268 Co264 2.148 . S
N268 C265 1.301 . S
N268 C266 1.317 . S
N269 C265 1.328 . S
N269 C267 1.350 . S
H270 C265 0.930 . S
H271 C266 0.930 . S
C272 O273 1.224 . S
C272 O291 1.247 . S
O273 C272 1.224 . S
N274 Co264 2.128 . S
N274 C275 1.355 . S
N274 C277 1.311 . S
C275 N274 1.355 . S
C275 C276 1.363 . S
C275 H287 0.929 . S
C276 C275 1.363 . S
C276 N278 1.375 . S
C276 H294 0.931 . S
C277 N274 1.311 . S
C277 N278 1.347 . S
C277 H288 0.929 . S
N278 C276 1.375 . S
N278 C277 1.347 . S
C279 C282 1.365 . S
C279 N284 1.328 . S
C279 H285 0.929 . S
C280 C281 1.362 . S
C280 C283 1.378 . S
C280 H295 0.929 . S
C281 C280 1.362 . S
C281 C282 1.366 . S
C282 C279 1.365 . S
C282 C281 1.366 . S
C282 H296 0.930 . S
C283 C280 1.378 . S
C283 N284 1.315 . S
C283 H286 0.930 . S
N284 Co264 2.194 . S
N284 C279 1.328 . S
N284 C283 1.315 . S
H285 C279 0.929 . S
H286 C283 0.930 . S
H287 C275 0.929 . S
H288 C277 0.929 . S
O289 Co264 2.351 . S
O289 C292 1.244 . S
O290 Co264 2.155 . S
O290 C292 1.240 . S
O291 Co264 2.096 . S
O291 C272 1.247 . S
C292 O289 1.244 . S
C292 O290 1.240 . S
H293 C267 0.931 . S
H294 C276 0.931 . S
H295 C280 0.929 . S
H296 C282 0.930 . S
Co297 N301 2.148 . S
Co297 N307 2.128 . S
Co297 N317 2.194 . S
Co297 O322 2.351 . S
Co297 O323 2.155 . S
Co297 O324 2.096 . S
C298 N301 1.301 . S
C298 N302 1.328 1_455 S
C298 H303 0.930 . S
C299 C300 1.333 1_455 S
C299 N301 1.317 . S
C299 H304 0.930 . S
C300 C299 1.333 1_655 S
C300 N302 1.350 . S
C300 H326 0.931 . S
N301 Co297 2.148 . S
N301 C298 1.301 . S
N301 C299 1.317 . S
N302 C298 1.328 1_655 S
N302 C300 1.350 . S
H303 C298 0.930 . S
H304 C299 0.930 . S
C305 O306 1.224 . S
C305 O324 1.247 . S
O306 C305 1.224 . S
N307 Co297 2.128 . S
N307 C308 1.355 . S
N307 C310 1.311 1_565 S
C308 N307 1.355 . S
C308 C309 1.363 . S
C308 H320 0.929 . S
C309 C308 1.363 . S
C309 N311 1.375 1_565 S
C309 H327 0.931 . S
C310 N307 1.311 1_545 S
C310 N311 1.347 . S
C310 H321 0.929 . S
N311 C309 1.375 1_545 S
N311 C310 1.347 . S
C312 C315 1.365 . S
C312 N317 1.328 . S
C312 H318 0.929 . S
C313 C314 1.362 . S
C313 C316 1.378 . S
C313 H328 0.929 . S
C314 C313 1.362 . S
C314 C315 1.366 . S
C315 C312 1.365 . S
C315 C314 1.366 . S
C315 H329 0.930 . S
C316 C313 1.378 . S
C316 N317 1.315 . S
C316 H319 0.930 . S
N317 Co297 2.194 . S
N317 C312 1.328 . S
N317 C316 1.315 . S
H318 C312 0.929 . S
H319 C316 0.930 . S
H320 C308 0.929 . S
H321 C310 0.929 . S
O322 Co297 2.351 . S
O322 C325 1.244 . S
O323 Co297 2.155 . S
O323 C325 1.240 . S
O324 Co297 2.096 . S
O324 C305 1.247 . S
C325 O322 1.244 . S
C325 O323 1.240 . S
H326 C300 0.931 . S
H327 C309 0.931 . S
H328 C313 0.929 . S
H329 C315 0.930 . S
Co330 N334 2.148 . S
Co330 N340 2.128 . S
Co330 N350 2.194 . S
Co330 O355 2.351 . S
Co330 O356 2.155 . S
Co330 O357 2.096 . S
C331 N334 1.301 . S
C331 N335 1.328 . S
C331 H336 0.930 . S
C332 C333 1.333 . S
C332 N334 1.317 . S
C332 H337 0.930 . S
C333 C332 1.333 . S
C333 N335 1.350 . S
C333 H359 0.931 . S
N334 Co330 2.148 . S
N334 C331 1.301 . S
N334 C332 1.317 . S
N335 C331 1.328 . S
N335 C333 1.350 . S
H336 C331 0.930 . S
H337 C332 0.930 . S
C338 O339 1.224 . S
C338 O357 1.247 . S
O339 C338 1.224 . S
N340 Co330 2.128 . S
N340 C341 1.355 . S
N340 C343 1.311 . S
C341 N340 1.355 . S
C341 C342 1.363 . S
C341 H353 0.929 . S
C342 C341 1.363 . S
C342 N344 1.375 . S
C342 H360 0.931 . S
C343 N340 1.311 . S
C343 N344 1.347 . S
C343 H354 0.929 . S
N344 C342 1.375 . S
N344 C343 1.347 . S
C345 C348 1.365 . S
C345 N350 1.328 . S
C345 H351 0.929 . S
C346 C347 1.362 . S
C346 C349 1.378 . S
C346 H361 0.929 . S
C347 C346 1.362 . S
C347 C348 1.366 . S
C348 C345 1.365 . S
C348 C347 1.366 . S
C348 H362 0.930 . S
C349 C346 1.378 . S
C349 N350 1.315 . S
C349 H352 0.930 . S
N350 Co330 2.194 . S
N350 C345 1.328 . S
N350 C349 1.315 . S
H351 C345 0.929 . S
H352 C349 0.930 . S
H353 C341 0.929 . S
H354 C343 0.929 . S
O355 Co330 2.351 . S
O355 C358 1.244 . S
O356 Co330 2.155 . S
O356 C358 1.240 . S
O357 Co330 2.096 . S
O357 C338 1.247 . S
C358 O355 1.244 . S
C358 O356 1.240 . S
H359 C333 0.931 . S
H360 C342 0.931 . S
H361 C346 0.929 . S
H362 C348 0.930 . S
Co363 N367 2.148 . S
Co363 N373 2.128 . S
Co363 N383 2.194 . S
Co363 O388 2.351 . S
Co363 O389 2.155 . S
Co363 O390 2.096 . S
C364 N367 1.301 . S
C364 N368 1.328 . S
C364 H369 0.930 . S
C365 C366 1.333 . S
C365 N367 1.317 . S
C365 H370 0.930 . S
C366 C365 1.333 . S
C366 N368 1.350 . S
C366 H392 0.931 . S
N367 Co363 2.148 . S
N367 C364 1.301 . S
N367 C365 1.317 . S
N368 C364 1.328 . S
N368 C366 1.350 . S
H369 C364 0.930 . S
H370 C365 0.930 . S
C371 O372 1.224 . S
C371 O390 1.247 . S
O372 C371 1.224 . S
N373 Co363 2.128 . S
N373 C374 1.355 . S
N373 C376 1.311 1_545 S
C374 N373 1.355 . S
C374 C375 1.363 . S
C374 H386 0.929 . S
C375 C374 1.363 . S
C375 N377 1.375 1_545 S
C375 H393 0.931 . S
C376 N373 1.311 1_565 S
C376 N377 1.347 . S
C376 H387 0.929 . S
N377 C375 1.375 1_565 S
N377 C376 1.347 . S
C378 C381 1.365 . S
C378 N383 1.328 . S
C378 H384 0.929 . S
C379 C380 1.362 . S
C379 C382 1.378 . S
C379 H394 0.929 . S
C380 C379 1.362 . S
C380 C381 1.366 . S
C381 C378 1.365 . S
C381 C380 1.366 . S
C381 H395 0.930 . S
C382 C379 1.378 . S
C382 N383 1.315 . S
C382 H385 0.930 . S
N383 Co363 2.194 . S
N383 C378 1.328 . S
N383 C382 1.315 . S
H384 C378 0.929 . S
H385 C382 0.930 . S
H386 C374 0.929 . S
H387 C376 0.929 . S
O388 Co363 2.351 . S
O388 C391 1.244 . S
O389 Co363 2.155 . S
O389 C391 1.240 . S
O390 Co363 2.096 . S
O390 C371 1.247 . S
C391 O388 1.244 . S
C391 O389 1.240 . S
H392 C366 0.931 . S
H393 C375 0.931 . S
H394 C379 0.929 . S
H395 C381 0.930 . S
Co396 N400 2.148 . S
Co396 N406 2.128 . S
Co396 N416 2.194 . S
Co396 O421 2.351 . S
Co396 O422 2.155 . S
Co396 O423 2.096 . S
C397 N400 1.301 . S
C397 N401 1.328 . S
C397 H402 0.930 . S
C398 C399 1.333 . S
C398 N400 1.317 . S
C398 H403 0.930 . S
C399 C398 1.333 . S
C399 N401 1.350 . S
C399 H425 0.931 . S
N400 Co396 2.148 . S
N400 C397 1.301 . S
N400 C398 1.317 . S
N401 C397 1.328 . S
N401 C399 1.350 . S
H402 C397 0.930 . S
H403 C398 0.930 . S
C404 O405 1.224 . S
C404 O423 1.247 . S
O405 C404 1.224 . S
N406 Co396 2.128 . S
N406 C407 1.355 . S
N406 C409 1.311 . S
C407 N406 1.355 . S
C407 C408 1.363 . S
C407 H419 0.929 . S
C408 C407 1.363 . S
C408 N410 1.375 . S
C408 H426 0.931 . S
C409 N406 1.311 . S
C409 N410 1.347 . S
C409 H420 0.929 . S
N410 C408 1.375 . S
N410 C409 1.347 . S
C411 C414 1.365 . S
C411 N416 1.328 . S
C411 H417 0.929 . S
C412 C413 1.362 . S
C412 C415 1.378 . S
C412 H427 0.929 . S
C413 C412 1.362 . S
C413 C414 1.366 . S
C414 C411 1.365 . S
C414 C413 1.366 . S
C414 H428 0.930 . S
C415 C412 1.378 . S
C415 N416 1.315 . S
C415 H418 0.930 . S
N416 Co396 2.194 . S
N416 C411 1.328 . S
N416 C415 1.315 . S
H417 C411 0.929 . S
H418 C415 0.930 . S
H419 C407 0.929 . S
H420 C409 0.929 . S
O421 Co396 2.351 . S
O421 C424 1.244 . S
O422 Co396 2.155 . S
O422 C424 1.240 . S
O423 Co396 2.096 . S
O423 C404 1.247 . S
C424 O421 1.244 . S
C424 O422 1.240 . S
H425 C399 0.931 . S
H426 C408 0.931 . S
H427 C412 0.929 . S
H428 C414 0.930 . S
Co429 N433 2.148 . S
Co429 N439 2.128 . S
Co429 N449 2.194 . S
Co429 O454 2.351 . S
Co429 O455 2.155 . S
Co429 O456 2.096 . S
C430 N433 1.301 . S
C430 N434 1.328 . S
C430 H435 0.930 . S
C431 C432 1.333 . S
C431 N433 1.317 . S
C431 H436 0.930 . S
C432 C431 1.333 . S
C432 N434 1.350 . S
C432 H458 0.931 . S
N433 Co429 2.148 . S
N433 C430 1.301 . S
N433 C431 1.317 . S
N434 C430 1.328 . S
N434 C432 1.350 . S
H435 C430 0.930 . S
H436 C431 0.930 . S
C437 O438 1.224 . S
C437 O456 1.247 . S
O438 C437 1.224 . S
N439 Co429 2.128 . S
N439 C440 1.355 . S
N439 C442 1.311 1_565 S
C440 N439 1.355 . S
C440 C441 1.363 . S
C440 H452 0.929 . S
C441 C440 1.363 . S
C441 N443 1.375 1_565 S
C441 H459 0.931 . S
C442 N439 1.311 1_545 S
C442 N443 1.347 . S
C442 H453 0.929 . S
N443 C441 1.375 1_545 S
N443 C442 1.347 . S
C444 C447 1.365 . S
C444 N449 1.328 . S
C444 H450 0.929 . S
C445 C446 1.362 . S
C445 C448 1.378 . S
C445 H460 0.929 . S
C446 C445 1.362 . S
C446 C447 1.366 . S
C447 C444 1.365 . S
C447 C446 1.366 . S
C447 H461 0.930 . S
C448 C445 1.378 . S
C448 N449 1.315 . S
C448 H451 0.930 . S
N449 Co429 2.194 . S
N449 C444 1.328 . S
N449 C448 1.315 . S
H450 C444 0.929 . S
H451 C448 0.930 . S
H452 C440 0.929 . S
H453 C442 0.929 . S
O454 Co429 2.351 . S
O454 C457 1.244 . S
O455 Co429 2.155 . S
O455 C457 1.240 . S
O456 Co429 2.096 . S
O456 C437 1.247 . S
C457 O454 1.244 . S
C457 O455 1.240 . S
H458 C432 0.931 . S
H459 C441 0.931 . S
H460 C445 0.929 . S
H461 C447 0.930 . S
Co462 N466 2.148 . S
Co462 N472 2.128 . S
Co462 N482 2.194 . S
Co462 O487 2.351 . S
Co462 O488 2.155 . S
Co462 O489 2.096 . S
C463 N466 1.301 . S
C463 N467 1.328 . S
C463 H468 0.930 . S
C464 C465 1.333 . S
C464 N466 1.317 . S
C464 H469 0.930 . S
C465 C464 1.333 . S
C465 N467 1.350 . S
C465 H491 0.931 . S
N466 Co462 2.148 . S
N466 C463 1.301 . S
N466 C464 1.317 . S
N467 C463 1.328 . S
N467 C465 1.350 . S
H468 C463 0.930 . S
H469 C464 0.930 . S
C470 O471 1.224 . S
C470 O489 1.247 . S
O471 C470 1.224 . S
N472 Co462 2.128 . S
N472 C473 1.355 . S
N472 C475 1.311 . S
C473 N472 1.355 . S
C473 C474 1.363 . S
C473 H485 0.929 . S
C474 C473 1.363 . S
C474 N476 1.375 . S
C474 H492 0.931 . S
C475 N472 1.311 . S
C475 N476 1.347 . S
C475 H486 0.929 . S
N476 C474 1.375 . S
N476 C475 1.347 . S
C477 C480 1.365 . S
C477 N482 1.328 . S
C477 H483 0.929 . S
C478 C479 1.362 . S
C478 C481 1.378 . S
C478 H493 0.929 . S
C479 C478 1.362 . S
C479 C480 1.366 . S
C480 C477 1.365 . S
C480 C479 1.366 . S
C480 H494 0.930 . S
C481 C478 1.378 . S
C481 N482 1.315 . S
C481 H484 0.930 . S
N482 Co462 2.194 . S
N482 C477 1.328 . S
N482 C481 1.315 . S
H483 C477 0.929 . S
H484 C481 0.930 . S
H485 C473 0.929 . S
H486 C475 0.929 . S
O487 Co462 2.351 . S
O487 C490 1.244 . S
O488 Co462 2.155 . S
O488 C490 1.240 . S
O489 Co462 2.096 . S
O489 C470 1.247 . S
C490 O487 1.244 . S
C490 O488 1.240 . S
H491 C465 0.931 . S
H492 C474 0.931 . S
H493 C478 0.929 . S
H494 C480 0.930 . S
Co495 N499 2.148 . S
Co495 N505 2.128 . S
Co495 N515 2.194 . S
Co495 O520 2.351 . S
Co495 O521 2.155 . S
Co495 O522 2.096 . S
C496 N499 1.301 . S
C496 N500 1.328 1_455 S
C496 H501 0.930 . S
C497 C498 1.333 1_455 S
C497 N499 1.317 . S
C497 H502 0.930 . S
C498 C497 1.333 1_655 S
C498 N500 1.350 . S
C498 H524 0.931 . S
N499 Co495 2.148 . S
N499 C496 1.301 . S
N499 C497 1.317 . S
N500 C496 1.328 1_655 S
N500 C498 1.350 . S
H501 C496 0.930 . S
H502 C497 0.930 . S
C503 O504 1.224 . S
C503 O522 1.247 . S
O504 C503 1.224 . S
N505 Co495 2.128 . S
N505 C506 1.355 . S
N505 C508 1.311 1_545 S
C506 N505 1.355 . S
C506 C507 1.363 . S
C506 H518 0.929 . S
C507 C506 1.363 . S
C507 N509 1.375 1_545 S
C507 H525 0.931 . S
C508 N505 1.311 1_565 S
C508 N509 1.347 . S
C508 H519 0.929 . S
N509 C507 1.375 1_565 S
N509 C508 1.347 . S
C510 C513 1.365 . S
C510 N515 1.328 . S
C510 H516 0.929 . S
C511 C512 1.362 . S
C511 C514 1.378 . S
C511 H526 0.929 . S
C512 C511 1.362 . S
C512 C513 1.366 . S
C513 C510 1.365 . S
C513 C512 1.366 . S
C513 H527 0.930 . S
C514 C511 1.378 . S
C514 N515 1.315 . S
C514 H517 0.930 . S
N515 Co495 2.194 . S
N515 C510 1.328 . S
N515 C514 1.315 . S
H516 C510 0.929 . S
H517 C514 0.930 . S
H518 C506 0.929 . S
H519 C508 0.929 . S
O520 Co495 2.351 . S
O520 C523 1.244 . S
O521 Co495 2.155 . S
O521 C523 1.240 . S
O522 Co495 2.096 . S
O522 C503 1.247 . S
C523 O520 1.244 . S
C523 O521 1.240 . S
H524 C498 0.931 . S
H525 C507 0.931 . S
H526 C511 0.929 . S
H527 C513 0.930 . S
Co528 N532 2.148 . S
Co528 N538 2.128 . S
Co528 N548 2.194 . S
Co528 O553 2.351 . S
Co528 O554 2.155 . S
Co528 O555 2.096 . S
C529 N532 1.301 . S
C529 N533 1.328 . S
C529 H534 0.930 . S
C530 C531 1.333 . S
C530 N532 1.317 . S
C530 H535 0.930 . S
C531 C530 1.333 . S
C531 N533 1.350 . S
C531 H557 0.931 . S
N532 Co528 2.148 . S
N532 C529 1.301 . S
N532 C530 1.317 . S
N533 C529 1.328 . S
N533 C531 1.350 . S
H534 C529 0.930 . S
H535 C530 0.930 . S
C536 O537 1.224 . S
C536 O555 1.247 . S
O537 C536 1.224 . S
N538 Co528 2.128 . S
N538 C539 1.355 . S
N538 C541 1.311 . S
C539 N538 1.355 . S
C539 C540 1.363 . S
C539 H551 0.929 . S
C540 C539 1.363 . S
C540 N542 1.375 . S
C540 H558 0.931 . S
C541 N538 1.311 . S
C541 N542 1.347 . S
C541 H552 0.929 . S
N542 C540 1.375 . S
N542 C541 1.347 . S
C543 C546 1.365 . S
C543 N548 1.328 . S
C543 H549 0.929 . S
C544 C545 1.362 . S
C544 C547 1.378 . S
C544 H559 0.929 . S
C545 C544 1.362 . S
C545 C546 1.366 . S
C546 C543 1.365 . S
C546 C545 1.366 . S
C546 H560 0.930 . S
C547 C544 1.378 . S
C547 N548 1.315 . S
C547 H550 0.930 . S
N548 Co528 2.194 . S
N548 C543 1.328 . S
N548 C547 1.315 . S
H549 C543 0.929 . S
H550 C547 0.930 . S
H551 C539 0.929 . S
H552 C541 0.929 . S
O553 Co528 2.351 . S
O553 C556 1.244 . S
O554 Co528 2.155 . S
O554 C556 1.240 . S
O555 Co528 2.096 . S
O555 C536 1.247 . S
C556 O553 1.244 . S
C556 O554 1.240 . S
H557 C531 0.931 . S
H558 C540 0.931 . S
H559 C544 0.929 . S
H560 C546 0.930 . S
Co561 N565 2.148 . S
Co561 N571 2.128 . S
Co561 N581 2.194 . S
Co561 O586 2.351 . S
Co561 O587 2.155 . S
Co561 O588 2.096 . S
C562 N565 1.301 . S
C562 N566 1.328 . S
C562 H567 0.930 . S
C563 C564 1.333 . S
C563 N565 1.317 . S
C563 H568 0.930 . S
C564 C563 1.333 . S
C564 N566 1.350 . S
C564 H590 0.931 . S
N565 Co561 2.148 . S
N565 C562 1.301 . S
N565 C563 1.317 . S
N566 C562 1.328 . S
N566 C564 1.350 . S
H567 C562 0.930 . S
H568 C563 0.930 . S
C569 O570 1.224 . S
C569 O588 1.247 . S
O570 C569 1.224 . S
N571 Co561 2.128 . S
N571 C572 1.355 . S
N571 C574 1.311 . S
C572 N571 1.355 . S
C572 C573 1.363 . S
C572 H584 0.929 . S
C573 C572 1.363 . S
C573 N575 1.375 . S
C573 H591 0.931 . S
C574 N571 1.311 . S
C574 N575 1.347 . S
C574 H585 0.929 . S
N575 C573 1.375 . S
N575 C574 1.347 . S
C576 C579 1.365 . S
C576 N581 1.328 . S
C576 H582 0.929 . S
C577 C578 1.362 . S
C577 C580 1.378 . S
C577 H592 0.929 . S
C578 C577 1.362 . S
C578 C579 1.366 . S
C579 C576 1.365 . S
C579 C578 1.366 . S
C579 H593 0.930 . S
C580 C577 1.378 . S
C580 N581 1.315 . S
C580 H583 0.930 . S
N581 Co561 2.194 . S
N581 C576 1.328 . S
N581 C580 1.315 . S
H582 C576 0.929 . S
H583 C580 0.930 . S
H584 C572 0.929 . S
H585 C574 0.929 . S
O586 Co561 2.351 . S
O586 C589 1.244 . S
O587 Co561 2.155 . S
O587 C589 1.240 . S
O588 Co561 2.096 . S
O588 C569 1.247 . S
C589 O586 1.244 . S
C589 O587 1.240 . S
H590 C564 0.931 . S
H591 C573 0.931 . S
H592 C577 0.929 . S
H593 C579 0.930 . S
Co594 N598 2.148 . S
Co594 N604 2.128 . S
Co594 N614 2.194 . S
Co594 O619 2.351 . S
Co594 O620 2.155 . S
Co594 O621 2.096 . S
C595 N598 1.301 . S
C595 N599 1.328 . S
C595 H600 0.930 . S
C596 C597 1.333 . S
C596 N598 1.317 . S
C596 H601 0.930 . S
C597 C596 1.333 . S
C597 N599 1.350 . S
C597 H623 0.931 . S
N598 Co594 2.148 . S
N598 C595 1.301 . S
N598 C596 1.317 . S
N599 C595 1.328 . S
N599 C597 1.350 . S
H600 C595 0.930 . S
H601 C596 0.930 . S
C602 O603 1.224 . S
C602 O621 1.247 . S
O603 C602 1.224 . S
N604 Co594 2.128 . S
N604 C605 1.355 . S
N604 C607 1.311 . S
C605 N604 1.355 . S
C605 C606 1.363 . S
C605 H617 0.929 . S
C606 C605 1.363 . S
C606 N608 1.375 . S
C606 H624 0.931 . S
C607 N604 1.311 . S
C607 N608 1.347 . S
C607 H618 0.929 . S
N608 C606 1.375 . S
N608 C607 1.347 . S
C609 C612 1.365 . S
C609 N614 1.328 . S
C609 H615 0.929 . S
C610 C611 1.362 . S
C610 C613 1.378 . S
C610 H625 0.929 . S
C611 C610 1.362 . S
C611 C612 1.366 . S
C612 C609 1.365 . S
C612 C611 1.366 . S
C612 H626 0.930 . S
C613 C610 1.378 . S
C613 N614 1.315 . S
C613 H616 0.930 . S
N614 Co594 2.194 . S
N614 C609 1.328 . S
N614 C613 1.315 . S
H615 C609 0.929 . S
H616 C613 0.930 . S
H617 C605 0.929 . S
H618 C607 0.929 . S
O619 Co594 2.351 . S
O619 C622 1.244 . S
O620 Co594 2.155 . S
O620 C622 1.240 . S
O621 Co594 2.096 . S
O621 C602 1.247 . S
C622 O619 1.244 . S
C622 O620 1.240 . S
H623 C597 0.931 . S
H624 C606 0.931 . S
H625 C610 0.929 . S
H626 C612 0.930 . S
Co627 N631 2.148 . S
Co627 N637 2.128 . S
Co627 N647 2.194 . S
Co627 O652 2.351 . S
Co627 O653 2.155 . S
Co627 O654 2.096 . S
C628 N631 1.301 . S
C628 N632 1.328 1_455 S
C628 H633 0.930 . S
C629 C630 1.333 1_455 S
C629 N631 1.317 . S
C629 H634 0.930 . S
C630 C629 1.333 1_655 S
C630 N632 1.350 . S
C630 H656 0.931 . S
N631 Co627 2.148 . S
N631 C628 1.301 . S
N631 C629 1.317 . S
N632 C628 1.328 1_655 S
N632 C630 1.350 . S
H633 C628 0.930 . S
H634 C629 0.930 . S
C635 O636 1.224 . S
C635 O654 1.247 . S
O636 C635 1.224 . S
N637 Co627 2.128 . S
N637 C638 1.355 . S
N637 C640 1.311 . S
C638 N637 1.355 . S
C638 C639 1.363 . S
C638 H650 0.929 . S
C639 C638 1.363 . S
C639 N641 1.375 . S
C639 H657 0.931 . S
C640 N637 1.311 . S
C640 N641 1.347 . S
C640 H651 0.929 . S
N641 C639 1.375 . S
N641 C640 1.347 . S
C642 C645 1.365 . S
C642 N647 1.328 . S
C642 H648 0.929 . S
C643 C644 1.362 . S
C643 C646 1.378 . S
C643 H658 0.929 . S
C644 C643 1.362 . S
C644 C645 1.366 . S
C645 C642 1.365 . S
C645 C644 1.366 . S
C645 H659 0.930 . S
C646 C643 1.378 . S
C646 N647 1.315 . S
C646 H649 0.930 . S
N647 Co627 2.194 . S
N647 C642 1.328 . S
N647 C646 1.315 . S
H648 C642 0.929 . S
H649 C646 0.930 . S
H650 C638 0.929 . S
H651 C640 0.929 . S
O652 Co627 2.351 . S
O652 C655 1.244 . S
O653 Co627 2.155 . S
O653 C655 1.240 . S
O654 Co627 2.096 . S
O654 C635 1.247 . S
C655 O652 1.244 . S
C655 O653 1.240 . S
H656 C630 0.931 . S
H657 C639 0.931 . S
H658 C643 0.929 . S
H659 C645 0.930 . S
Co660 N664 2.148 . S
Co660 N670 2.128 . S
Co660 N680 2.194 . S
Co660 O685 2.351 . S
Co660 O686 2.155 . S
Co660 O687 2.096 . S
C661 N664 1.301 . S
C661 N665 1.328 . S
C661 H666 0.930 . S
C662 C663 1.333 . S
C662 N664 1.317 . S
C662 H667 0.930 . S
C663 C662 1.333 . S
C663 N665 1.350 . S
C663 H689 0.931 . S
N664 Co660 2.148 . S
N664 C661 1.301 . S
N664 C662 1.317 . S
N665 C661 1.328 . S
N665 C663 1.350 . S
H666 C661 0.930 . S
H667 C662 0.930 . S
C668 O669 1.224 . S
C668 O687 1.247 . S
O669 C668 1.224 . S
N670 Co660 2.128 . S
N670 C671 1.355 . S
N670 C673 1.311 . S
C671 N670 1.355 . S
C671 C672 1.363 . S
C671 H683 0.929 . S
C672 C671 1.363 . S
C672 N674 1.375 . S
C672 H690 0.931 . S
C673 N670 1.311 . S
C673 N674 1.347 . S
C673 H684 0.929 . S
N674 C672 1.375 . S
N674 C673 1.347 . S
C675 C678 1.365 . S
C675 N680 1.328 . S
C675 H681 0.929 . S
C676 C677 1.362 . S
C676 C679 1.378 . S
C676 H691 0.929 . S
C677 C676 1.362 . S
C677 C678 1.366 . S
C678 C675 1.365 . S
C678 C677 1.366 . S
C678 H692 0.930 . S
C679 C676 1.378 . S
C679 N680 1.315 . S
C679 H682 0.930 . S
N680 Co660 2.194 . S
N680 C675 1.328 . S
N680 C679 1.315 . S
H681 C675 0.929 . S
H682 C679 0.930 . S
H683 C671 0.929 . S
H684 C673 0.929 . S
O685 Co660 2.351 . S
O685 C688 1.244 . S
O686 Co660 2.155 . S
O686 C688 1.240 . S
O687 Co660 2.096 . S
O687 C668 1.247 . S
C688 O685 1.244 . S
C688 O686 1.240 . S
H689 C663 0.931 . S
H690 C672 0.931 . S
H691 C676 0.929 . S
H692 C678 0.930 . S
Co693 N697 2.148 . S
Co693 N703 2.128 . S
Co693 N713 2.194 . S
Co693 O718 2.351 . S
Co693 O719 2.155 . S
Co693 O720 2.096 . S
C694 N697 1.301 . S
C694 N698 1.328 1_455 S
C694 H699 0.930 . S
C695 C696 1.333 1_455 S
C695 N697 1.317 . S
C695 H700 0.930 . S
C696 C695 1.333 1_655 S
C696 N698 1.350 . S
C696 H722 0.931 . S
N697 Co693 2.148 . S
N697 C694 1.301 . S
N697 C695 1.317 . S
N698 C694 1.328 1_655 S
N698 C696 1.350 . S
H699 C694 0.930 . S
H700 C695 0.930 . S
C701 O702 1.224 . S
C701 O720 1.247 . S
O702 C701 1.224 . S
N703 Co693 2.128 . S
N703 C704 1.355 . S
N703 C706 1.311 . S
C704 N703 1.355 . S
C704 C705 1.363 . S
C704 H716 0.929 . S
C705 C704 1.363 . S
C705 N707 1.375 . S
C705 H723 0.931 . S
C706 N703 1.311 . S
C706 N707 1.347 . S
C706 H717 0.929 . S
N707 C705 1.375 . S
N707 C706 1.347 . S
C708 C711 1.365 . S
C708 N713 1.328 . S
C708 H714 0.929 . S
C709 C710 1.362 . S
C709 C712 1.378 . S
C709 H724 0.929 . S
C710 C709 1.362 . S
C710 C711 1.366 . S
C711 C708 1.365 . S
C711 C710 1.366 . S
C711 H725 0.930 . S
C712 C709 1.378 . S
C712 N713 1.315 . S
C712 H715 0.930 . S
N713 Co693 2.194 . S
N713 C708 1.328 . S
N713 C712 1.315 . S
H714 C708 0.929 . S
H715 C712 0.930 . S
H716 C704 0.929 . S
H717 C706 0.929 . S
O718 Co693 2.351 . S
O718 C721 1.244 . S
O719 Co693 2.155 . S
O719 C721 1.240 . S
O720 Co693 2.096 . S
O720 C701 1.247 . S
C721 O718 1.244 . S
C721 O719 1.240 . S
H722 C696 0.931 . S
H723 C705 0.931 . S
H724 C709 0.929 . S
H725 C711 0.930 . S
Co726 N730 2.148 . S
Co726 N736 2.128 . S
Co726 N746 2.194 . S
Co726 O751 2.351 . S
Co726 O752 2.155 . S
Co726 O753 2.096 . S
C727 N730 1.301 . S
C727 N731 1.328 . S
C727 H732 0.930 . S
C728 C729 1.333 . S
C728 N730 1.317 . S
C728 H733 0.930 . S
C729 C728 1.333 . S
C729 N731 1.350 . S
C729 H755 0.931 . S
N730 Co726 2.148 . S
N730 C727 1.301 . S
N730 C728 1.317 . S
N731 C727 1.328 . S
N731 C729 1.350 . S
H732 C727 0.930 . S
H733 C728 0.930 . S
C734 O735 1.224 . S
C734 O753 1.247 . S
O735 C734 1.224 . S
N736 Co726 2.128 . S
N736 C737 1.355 . S
N736 C739 1.311 . S
C737 N736 1.355 . S
C737 C738 1.363 . S
C737 H749 0.929 . S
C738 C737 1.363 . S
C738 N740 1.375 . S
C738 H756 0.931 . S
C739 N736 1.311 . S
C739 N740 1.347 . S
C739 H750 0.929 . S
N740 C738 1.375 . S
N740 C739 1.347 . S
C741 C744 1.365 . S
C741 N746 1.328 . S
C741 H747 0.929 . S
C742 C743 1.362 . S
C742 C745 1.378 . S
C742 H757 0.929 . S
C743 C742 1.362 . S
C743 C744 1.366 . S
C744 C741 1.365 . S
C744 C743 1.366 . S
C744 H758 0.930 . S
C745 C742 1.378 . S
C745 N746 1.315 . S
C745 H748 0.930 . S
N746 Co726 2.194 . S
N746 C741 1.328 . S
N746 C745 1.315 . S
H747 C741 0.929 . S
H748 C745 0.930 . S
H749 C737 0.929 . S
H750 C739 0.929 . S
O751 Co726 2.351 . S
O751 C754 1.244 . S
O752 Co726 2.155 . S
O752 C754 1.240 . S
O753 Co726 2.096 . S
O753 C734 1.247 . S
C754 O751 1.244 . S
C754 O752 1.240 . S
H755 C729 0.931 . S
H756 C738 0.931 . S
H757 C742 0.929 . S
H758 C744 0.930 . S
Co759 N763 2.148 . S
Co759 N769 2.128 . S
Co759 N779 2.194 . S
Co759 O784 2.351 . S
Co759 O785 2.155 . S
Co759 O786 2.096 . S
C760 N763 1.301 . S
C760 N764 1.328 . S
C760 H765 0.930 . S
C761 C762 1.333 . S
C761 N763 1.317 . S
C761 H766 0.930 . S
C762 C761 1.333 . S
C762 N764 1.350 . S
C762 H788 0.931 . S
N763 Co759 2.148 . S
N763 C760 1.301 . S
N763 C761 1.317 . S
N764 C760 1.328 . S
N764 C762 1.350 . S
H765 C760 0.930 . S
H766 C761 0.930 . S
C767 O768 1.224 . S
C767 O786 1.247 . S
O768 C767 1.224 . S
N769 Co759 2.128 . S
N769 C770 1.355 . S
N769 C772 1.311 . S
C770 N769 1.355 . S
C770 C771 1.363 . S
C770 H782 0.929 . S
C771 C770 1.363 . S
C771 N773 1.375 . S
C771 H789 0.931 . S
C772 N769 1.311 . S
C772 N773 1.347 . S
C772 H783 0.929 . S
N773 C771 1.375 . S
N773 C772 1.347 . S
C774 C777 1.365 . S
C774 N779 1.328 . S
C774 H780 0.929 . S
C775 C776 1.362 . S
C775 C778 1.378 . S
C775 H790 0.929 . S
C776 C775 1.362 . S
C776 C777 1.366 . S
C777 C774 1.365 . S
C777 C776 1.366 . S
C777 H791 0.930 . S
C778 C775 1.378 . S
C778 N779 1.315 . S
C778 H781 0.930 . S
N779 Co759 2.194 . S
N779 C774 1.328 . S
N779 C778 1.315 . S
H780 C774 0.929 . S
H781 C778 0.930 . S
H782 C770 0.929 . S
H783 C772 0.929 . S
O784 Co759 2.351 . S
O784 C787 1.244 . S
O785 Co759 2.155 . S
O785 C787 1.240 . S
O786 Co759 2.096 . S
O786 C767 1.247 . S
C787 O784 1.244 . S
C787 O785 1.240 . S
H788 C762 0.931 . S
H789 C771 0.931 . S
H790 C775 0.929 . S
H791 C777 0.930 . S
Co792 N796 2.148 . S
Co792 N802 2.128 . S
Co792 N812 2.194 . S
Co792 O817 2.351 . S
Co792 O818 2.155 . S
Co792 O819 2.096 . S
C793 N796 1.301 . S
C793 N797 1.328 . S
C793 H798 0.930 . S
C794 C795 1.333 . S
C794 N796 1.317 . S
C794 H799 0.930 . S
C795 C794 1.333 . S
C795 N797 1.350 . S
C795 H821 0.931 . S
N796 Co792 2.148 . S
N796 C793 1.301 . S
N796 C794 1.317 . S
N797 C793 1.328 . S
N797 C795 1.350 . S
H798 C793 0.930 . S
H799 C794 0.930 . S
C800 O801 1.224 . S
C800 O819 1.247 . S
O801 C800 1.224 . S
N802 Co792 2.128 . S
N802 C803 1.355 . S
N802 C805 1.311 . S
C803 N802 1.355 . S
C803 C804 1.363 . S
C803 H815 0.929 . S
C804 C803 1.363 . S
C804 N806 1.375 . S
C804 H822 0.931 . S
C805 N802 1.311 . S
C805 N806 1.347 . S
C805 H816 0.929 . S
N806 C804 1.375 . S
N806 C805 1.347 . S
C807 C810 1.365 . S
C807 N812 1.328 . S
C807 H813 0.929 . S
C808 C809 1.362 . S
C808 C811 1.378 . S
C808 H823 0.929 . S
C809 C808 1.362 . S
C809 C810 1.366 . S
C810 C807 1.365 . S
C810 C809 1.366 . S
C810 H824 0.930 . S
C811 C808 1.378 . S
C811 N812 1.315 . S
C811 H814 0.930 . S
N812 Co792 2.194 . S
N812 C807 1.328 . S
N812 C811 1.315 . S
H813 C807 0.929 . S
H814 C811 0.930 . S
H815 C803 0.929 . S
H816 C805 0.929 . S
O817 Co792 2.351 . S
O817 C820 1.244 . S
O818 Co792 2.155 . S
O818 C820 1.240 . S
O819 Co792 2.096 . S
O819 C800 1.247 . S
C820 O817 1.244 . S
C820 O818 1.240 . S
H821 C795 0.931 . S
H822 C804 0.931 . S
H823 C808 0.929 . S
H824 C810 0.930 . S
Co825 N829 2.148 . S
Co825 N835 2.128 . S
Co825 N845 2.194 . S
Co825 O850 2.351 . S
Co825 O851 2.155 . S
Co825 O852 2.096 . S
C826 N829 1.301 . S
C826 N830 1.328 . S
C826 H831 0.930 . S
C827 C828 1.333 . S
C827 N829 1.317 . S
C827 H832 0.930 . S
C828 C827 1.333 . S
C828 N830 1.350 . S
C828 H854 0.931 . S
N829 Co825 2.148 . S
N829 C826 1.301 . S
N829 C827 1.317 . S
N830 C826 1.328 . S
N830 C828 1.350 . S
H831 C826 0.930 . S
H832 C827 0.930 . S
C833 O834 1.224 . S
C833 O852 1.247 . S
O834 C833 1.224 . S
N835 Co825 2.128 . S
N835 C836 1.355 . S
N835 C838 1.311 . S
C836 N835 1.355 . S
C836 C837 1.363 . S
C836 H848 0.929 . S
C837 C836 1.363 . S
C837 N839 1.375 . S
C837 H855 0.931 . S
C838 N835 1.311 . S
C838 N839 1.347 . S
C838 H849 0.929 . S
N839 C837 1.375 . S
N839 C838 1.347 . S
C840 C843 1.365 . S
C840 N845 1.328 . S
C840 H846 0.929 . S
C841 C842 1.362 . S
C841 C844 1.378 . S
C841 H856 0.929 . S
C842 C841 1.362 . S
C842 C843 1.366 . S
C843 C840 1.365 . S
C843 C842 1.366 . S
C843 H857 0.930 . S
C844 C841 1.378 . S
C844 N845 1.315 . S
C844 H847 0.930 . S
N845 Co825 2.194 . S
N845 C840 1.328 . S
N845 C844 1.315 . S
H846 C840 0.929 . S
H847 C844 0.930 . S
H848 C836 0.929 . S
H849 C838 0.929 . S
O850 Co825 2.351 . S
O850 C853 1.244 . S
O851 Co825 2.155 . S
O851 C853 1.240 . S
O852 Co825 2.096 . S
O852 C833 1.247 . S
C853 O850 1.244 . S
C853 O851 1.240 . S
H854 C828 0.931 . S
H855 C837 0.931 . S
H856 C841 0.929 . S
H857 C843 0.930 . S
Co858 N862 2.148 . S
Co858 N868 2.128 . S
Co858 N878 2.194 . S
Co858 O883 2.351 . S
Co858 O884 2.155 . S
Co858 O885 2.096 . S
C859 N862 1.301 . S
C859 N863 1.328 . S
C859 H864 0.930 . S
C860 C861 1.333 . S
C860 N862 1.317 . S
C860 H865 0.930 . S
C861 C860 1.333 . S
C861 N863 1.350 . S
C861 H887 0.931 . S
N862 Co858 2.148 . S
N862 C859 1.301 . S
N862 C860 1.317 . S
N863 C859 1.328 . S
N863 C861 1.350 . S
H864 C859 0.930 . S
H865 C860 0.930 . S
C866 O867 1.224 . S
C866 O885 1.247 . S
O867 C866 1.224 . S
N868 Co858 2.128 . S
N868 C869 1.355 . S
N868 C871 1.311 . S
C869 N868 1.355 . S
C869 C870 1.363 . S
C869 H881 0.929 . S
C870 C869 1.363 . S
C870 N872 1.375 . S
C870 H888 0.931 . S
C871 N868 1.311 . S
C871 N872 1.347 . S
C871 H882 0.929 . S
N872 C870 1.375 . S
N872 C871 1.347 . S
C873 C876 1.365 . S
C873 N878 1.328 . S
C873 H879 0.929 . S
C874 C875 1.362 . S
C874 C877 1.378 . S
C874 H889 0.929 . S
C875 C874 1.362 . S
C875 C876 1.366 . S
C876 C873 1.365 . S
C876 C875 1.366 . S
C876 H890 0.930 . S
C877 C874 1.378 . S
C877 N878 1.315 . S
C877 H880 0.930 . S
N878 Co858 2.194 . S
N878 C873 1.328 . S
N878 C877 1.315 . S
H879 C873 0.929 . S
H880 C877 0.930 . S
H881 C869 0.929 . S
H882 C871 0.929 . S
O883 Co858 2.351 . S
O883 C886 1.244 . S
O884 Co858 2.155 . S
O884 C886 1.240 . S
O885 Co858 2.096 . S
O885 C866 1.247 . S
C886 O883 1.244 . S
C886 O884 1.240 . S
H887 C861 0.931 . S
H888 C870 0.931 . S
H889 C874 0.929 . S
H890 C876 0.930 . S
Co891 N895 2.148 . S
Co891 N901 2.128 . S
Co891 N911 2.194 . S
Co891 O916 2.351 . S
Co891 O917 2.155 . S
Co891 O918 2.096 . S
C892 N895 1.301 . S
C892 N896 1.328 1_655 S
C892 H897 0.930 . S
C893 C894 1.333 1_655 S
C893 N895 1.317 . S
C893 H898 0.930 . S
C894 C893 1.333 1_455 S
C894 N896 1.350 . S
C894 H920 0.931 . S
N895 Co891 2.148 . S
N895 C892 1.301 . S
N895 C893 1.317 . S
N896 C892 1.328 1_455 S
N896 C894 1.350 . S
H897 C892 0.930 . S
H898 C893 0.930 . S
C899 O900 1.224 . S
C899 O918 1.247 . S
O900 C899 1.224 . S
N901 Co891 2.128 . S
N901 C902 1.355 . S
N901 C904 1.311 . S
C902 N901 1.355 . S
C902 C903 1.363 . S
C902 H914 0.929 . S
C903 C902 1.363 . S
C903 N905 1.375 . S
C903 H921 0.931 . S
C904 N901 1.311 . S
C904 N905 1.347 . S
C904 H915 0.929 . S
N905 C903 1.375 . S
N905 C904 1.347 . S
C906 C909 1.365 . S
C906 N911 1.328 . S
C906 H912 0.929 . S
C907 C908 1.362 . S
C907 C910 1.378 . S
C907 H922 0.929 . S
C908 C907 1.362 . S
C908 C909 1.366 . S
C909 C906 1.365 . S
C909 C908 1.366 . S
C909 H923 0.930 . S
C910 C907 1.378 . S
C910 N911 1.315 . S
C910 H913 0.930 . S
N911 Co891 2.194 . S
N911 C906 1.328 . S
N911 C910 1.315 . S
H912 C906 0.929 . S
H913 C910 0.930 . S
H914 C902 0.929 . S
H915 C904 0.929 . S
O916 Co891 2.351 . S
O916 C919 1.244 . S
O917 Co891 2.155 . S
O917 C919 1.240 . S
O918 Co891 2.096 . S
O918 C899 1.247 . S
C919 O916 1.244 . S
C919 O917 1.240 . S
H920 C894 0.931 . S
H921 C903 0.931 . S
H922 C907 0.929 . S
H923 C909 0.930 . S
Co924 N928 2.148 . S
Co924 N934 2.128 . S
Co924 N944 2.194 . S
Co924 O949 2.351 . S
Co924 O950 2.155 . S
Co924 O951 2.096 . S
C925 N928 1.301 . S
C925 N929 1.328 . S
C925 H930 0.930 . S
C926 C927 1.333 . S
C926 N928 1.317 . S
C926 H931 0.930 . S
C927 C926 1.333 . S
C927 N929 1.350 . S
C927 H953 0.931 . S
N928 Co924 2.148 . S
N928 C925 1.301 . S
N928 C926 1.317 . S
N929 C925 1.328 . S
N929 C927 1.350 . S
H930 C925 0.930 . S
H931 C926 0.930 . S
C932 O933 1.224 . S
C932 O951 1.247 . S
O933 C932 1.224 . S
N934 Co924 2.128 . S
N934 C935 1.355 . S
N934 C937 1.311 . S
C935 N934 1.355 . S
C935 C936 1.363 . S
C935 H947 0.929 . S
C936 C935 1.363 . S
C936 N938 1.375 . S
C936 H954 0.931 . S
C937 N934 1.311 . S
C937 N938 1.347 . S
C937 H948 0.929 . S
N938 C936 1.375 . S
N938 C937 1.347 . S
C939 C942 1.365 . S
C939 N944 1.328 . S
C939 H945 0.929 . S
C940 C941 1.362 . S
C940 C943 1.378 . S
C940 H955 0.929 . S
C941 C940 1.362 . S
C941 C942 1.366 . S
C942 C939 1.365 . S
C942 C941 1.366 . S
C942 H956 0.930 . S
C943 C940 1.378 . S
C943 N944 1.315 . S
C943 H946 0.930 . S
N944 Co924 2.194 . S
N944 C939 1.328 . S
N944 C943 1.315 . S
H945 C939 0.929 . S
H946 C943 0.930 . S
H947 C935 0.929 . S
H948 C937 0.929 . S
O949 Co924 2.351 . S
O949 C952 1.244 . S
O950 Co924 2.155 . S
O950 C952 1.240 . S
O951 Co924 2.096 . S
O951 C932 1.247 . S
C952 O949 1.244 . S
C952 O950 1.240 . S
H953 C927 0.931 . S
H954 C936 0.931 . S
H955 C940 0.929 . S
H956 C942 0.930 . S
Co957 N961 2.148 . S
Co957 N967 2.128 . S
Co957 N977 2.194 . S
Co957 O982 2.351 . S
Co957 O983 2.155 . S
Co957 O984 2.096 . S
C958 N961 1.301 . S
C958 N962 1.328 1_655 S
C958 H963 0.930 . S
C959 C960 1.333 1_655 S
C959 N961 1.317 . S
C959 H964 0.930 . S
C960 C959 1.333 1_455 S
C960 N962 1.350 . S
C960 H986 0.931 . S
N961 Co957 2.148 . S
N961 C958 1.301 . S
N961 C959 1.317 . S
N962 C958 1.328 1_455 S
N962 C960 1.350 . S
H963 C958 0.930 . S
H964 C959 0.930 . S
C965 O966 1.224 . S
C965 O984 1.247 . S
O966 C965 1.224 . S
N967 Co957 2.128 . S
N967 C968 1.355 . S
N967 C970 1.311 . S
C968 N967 1.355 . S
C968 C969 1.363 . S
C968 H980 0.929 . S
C969 C968 1.363 . S
C969 N971 1.375 . S
C969 H987 0.931 . S
C970 N967 1.311 . S
C970 N971 1.347 . S
C970 H981 0.929 . S
N971 C969 1.375 . S
N971 C970 1.347 . S
C972 C975 1.365 . S
C972 N977 1.328 . S
C972 H978 0.929 . S
C973 C974 1.362 . S
C973 C976 1.378 . S
C973 H988 0.929 . S
C974 C973 1.362 . S
C974 C975 1.366 . S
C975 C972 1.365 . S
C975 C974 1.366 . S
C975 H989 0.930 . S
C976 C973 1.378 . S
C976 N977 1.315 . S
C976 H979 0.930 . S
N977 Co957 2.194 . S
N977 C972 1.328 . S
N977 C976 1.315 . S
H978 C972 0.929 . S
H979 C976 0.930 . S
H980 C968 0.929 . S
H981 C970 0.929 . S
O982 Co957 2.351 . S
O982 C985 1.244 . S
O983 Co957 2.155 . S
O983 C985 1.240 . S
O984 Co957 2.096 . S
O984 C965 1.247 . S
C985 O982 1.244 . S
C985 O983 1.240 . S
H986 C960 0.931 . S
H987 C969 0.931 . S
H988 C973 0.929 . S
H989 C975 0.930 . S
Co990 N994 2.148 . S
Co990 N1000 2.128 . S
Co990 N1010 2.194 . S
Co990 O1015 2.351 . S
Co990 O1016 2.155 . S
Co990 O1017 2.096 . S
C991 N994 1.301 . S
C991 N995 1.328 . S
C991 H996 0.930 . S
C992 C993 1.333 . S
C992 N994 1.317 . S
C992 H997 0.930 . S
C993 C992 1.333 . S
C993 N995 1.350 . S
C993 H1019 0.931 . S
N994 Co990 2.148 . S
N994 C991 1.301 . S
N994 C992 1.317 . S
N995 C991 1.328 . S
N995 C993 1.350 . S
H996 C991 0.930 . S
H997 C992 0.930 . S
C998 O999 1.224 . S
C998 O1017 1.247 . S
O999 C998 1.224 . S
N1000 Co990 2.128 . S
N1000 C1001 1.355 . S
N1000 C1003 1.311 . S
C1001 N1000 1.355 . S
C1001 C1002 1.363 . S
C1001 H1013 0.929 . S
C1002 C1001 1.363 . S
C1002 N1004 1.375 . S
C1002 H1020 0.931 . S
C1003 N1000 1.311 . S
C1003 N1004 1.347 . S
C1003 H1014 0.929 . S
N1004 C1002 1.375 . S
N1004 C1003 1.347 . S
C1005 C1008 1.365 . S
C1005 N1010 1.328 . S
C1005 H1011 0.929 . S
C1006 C1007 1.362 . S
C1006 C1009 1.378 . S
C1006 H1021 0.929 . S
C1007 C1006 1.362 . S
C1007 C1008 1.366 . S
C1008 C1005 1.365 . S
C1008 C1007 1.366 . S
C1008 H1022 0.930 . S
C1009 C1006 1.378 . S
C1009 N1010 1.315 . S
C1009 H1012 0.930 . S
N1010 Co990 2.194 . S
N1010 C1005 1.328 . S
N1010 C1009 1.315 . S
H1011 C1005 0.929 . S
H1012 C1009 0.930 . S
H1013 C1001 0.929 . S
H1014 C1003 0.929 . S
O1015 Co990 2.351 . S
O1015 C1018 1.244 . S
O1016 Co990 2.155 . S
O1016 C1018 1.240 . S
O1017 Co990 2.096 . S
O1017 C998 1.247 . S
C1018 O1015 1.244 . S
C1018 O1016 1.240 . S
H1019 C993 0.931 . S
H1020 C1002 0.931 . S
H1021 C1006 0.929 . S
H1022 C1008 0.930 . S
Co1023 N1027 2.148 . S
Co1023 N1033 2.128 . S
Co1023 N1043 2.194 . S
Co1023 O1048 2.351 . S
Co1023 O1049 2.155 . S
Co1023 O1050 2.096 . S
C1024 N1027 1.301 . S
C1024 N1028 1.328 . S
C1024 H1029 0.930 . S
C1025 C1026 1.333 . S
C1025 N1027 1.317 . S
C1025 H1030 0.930 . S
C1026 C1025 1.333 . S
C1026 N1028 1.350 . S
C1026 H1052 0.931 . S
N1027 Co1023 2.148 . S
N1027 C1024 1.301 . S
N1027 C1025 1.317 . S
N1028 C1024 1.328 . S
N1028 C1026 1.350 . S
H1029 C1024 0.930 . S
H1030 C1025 0.930 . S
C1031 O1032 1.224 . S
C1031 O1050 1.247 . S
O1032 C1031 1.224 . S
N1033 Co1023 2.128 . S
N1033 C1034 1.355 . S
N1033 C1036 1.311 . S
C1034 N1033 1.355 . S
C1034 C1035 1.363 . S
C1034 H1046 0.929 . S
C1035 C1034 1.363 . S
C1035 N1037 1.375 . S
C1035 H1053 0.931 . S
C1036 N1033 1.311 . S
C1036 N1037 1.347 . S
C1036 H1047 0.929 . S
N1037 C1035 1.375 . S
N1037 C1036 1.347 . S
C1038 C1041 1.365 . S
C1038 N1043 1.328 . S
C1038 H1044 0.929 . S
C1039 C1040 1.362 . S
C1039 C1042 1.378 . S
C1039 H1054 0.929 . S
C1040 C1039 1.362 . S
C1040 C1041 1.366 . S
C1041 C1038 1.365 . S
C1041 C1040 1.366 . S
C1041 H1055 0.930 . S
C1042 C1039 1.378 . S
C1042 N1043 1.315 . S
C1042 H1045 0.930 . S
N1043 Co1023 2.194 . S
N1043 C1038 1.328 . S
N1043 C1042 1.315 . S
H1044 C1038 0.929 . S
H1045 C1042 0.930 . S
H1046 C1034 0.929 . S
H1047 C1036 0.929 . S
O1048 Co1023 2.351 . S
O1048 C1051 1.244 . S
O1049 Co1023 2.155 . S
O1049 C1051 1.240 . S
O1050 Co1023 2.096 . S
O1050 C1031 1.247 . S
C1051 O1048 1.244 . S
C1051 O1049 1.240 . S
H1052 C1026 0.931 . S
H1053 C1035 0.931 . S
H1054 C1039 0.929 . S
H1055 C1041 0.930 . S
C1056 C1057 1.387 . S
C1056 H1060 0.950 . S
C1056 C1065 1.390 . S
C1057 C1056 1.387 . S
C1057 C1059 1.387 . S
H1058 C1065 0.950 . S
C1059 C1057 1.387 . S
C1059 C1061 1.390 . S
C1059 H1063 0.950 . S
H1060 C1056 0.950 . S
C1061 C1059 1.390 . S
C1061 C1062 1.387 . S
C1061 H1064 0.950 . S
C1062 C1061 1.387 . S
C1062 C1065 1.387 . S
H1063 C1059 0.950 . S
H1064 C1061 0.950 . S
C1065 C1056 1.390 . S
C1065 H1058 0.950 . S
C1065 C1062 1.387 . S
C1066 C1067 1.387 . S
C1066 H1070 0.950 . S
C1066 C1075 1.390 1_455 S
C1067 C1066 1.387 . S
C1067 C1069 1.387 1_565 S
H1068 C1075 0.950 . S
C1069 C1067 1.387 1_545 S
C1069 C1071 1.390 1_455 S
C1069 H1073 0.950 . S
H1070 C1066 0.950 . S
C1071 C1069 1.390 1_655 S
C1071 C1072 1.387 . S
C1071 H1074 0.950 . S
C1072 C1071 1.387 . S
C1072 C1075 1.387 1_545 S
H1073 C1069 0.950 . S
H1074 C1071 0.950 . S
C1075 C1066 1.390 1_655 S
C1075 H1068 0.950 . S
C1075 C1072 1.387 1_565 S
C1076 C1077 1.387 . S
C1076 H1080 0.950 . S
C1076 C1085 1.390 . S
C1077 C1076 1.387 . S
C1077 C1079 1.387 . S
H1078 C1085 0.950 . S
C1079 C1077 1.387 . S
C1079 C1081 1.390 . S
C1079 H1083 0.950 . S
H1080 C1076 0.950 . S
C1081 C1079 1.390 . S
C1081 C1082 1.387 . S
C1081 H1084 0.950 . S
C1082 C1081 1.387 . S
C1082 C1085 1.387 . S
H1083 C1079 0.950 . S
H1084 C1081 0.950 . S
C1085 C1076 1.390 . S
C1085 H1078 0.950 . S
C1085 C1082 1.387 . S
C1086 C1087 1.387 . S
C1086 H1090 0.950 . S
C1086 C1095 1.390 1_554 S
C1087 C1086 1.387 . S
C1087 C1089 1.387 1_545 S
H1088 C1095 0.950 . S
C1089 C1087 1.387 1_565 S
C1089 C1091 1.390 1_554 S
C1089 H1093 0.950 . S
H1090 C1086 0.950 . S
C1091 C1089 1.390 1_556 S
C1091 C1092 1.387 . S
C1091 H1094 0.950 . S
C1092 C1091 1.387 . S
C1092 C1095 1.387 1_565 S
H1093 C1089 0.950 . S
H1094 C1091 0.950 . S
C1095 C1086 1.390 1_556 S
C1095 H1088 0.950 . S
C1095 C1092 1.387 1_545 S
C1096 C1097 1.387 . S
C1096 H1100 0.950 . S
C1096 C1105 1.390 . S
C1097 C1096 1.387 . S
C1097 C1099 1.387 . S
H1098 C1105 0.950 . S
C1099 C1097 1.387 . S
C1099 C1101 1.390 . S
C1099 H1103 0.950 . S
H1100 C1096 0.950 . S
C1101 C1099 1.390 . S
C1101 C1102 1.387 . S
C1101 H1104 0.950 . S
C1102 C1101 1.387 . S
C1102 C1105 1.387 . S
H1103 C1099 0.950 . S
H1104 C1101 0.950 . S
C1105 C1096 1.390 . S
C1105 H1098 0.950 . S
C1105 C1102 1.387 . S
C1106 C1107 1.387 . S
C1106 H1110 0.950 . S
C1106 C1115 1.390 . S
C1107 C1106 1.387 . S
C1107 C1109 1.387 1_565 S
H1108 C1115 0.950 . S
C1109 C1107 1.387 1_545 S
C1109 C1111 1.390 . S
C1109 H1113 0.950 . S
H1110 C1106 0.950 . S
C1111 C1109 1.390 . S
C1111 C1112 1.387 . S
C1111 H1114 0.950 . S
C1112 C1111 1.387 . S
C1112 C1115 1.387 1_545 S
H1113 C1109 0.950 . S
H1114 C1111 0.950 . S
C1115 C1106 1.390 . S
C1115 H1108 0.950 . S
C1115 C1112 1.387 1_565 S
C1116 C1117 1.387 . S
C1116 H1120 0.950 . S
C1116 C1125 1.390 . S
C1117 C1116 1.387 . S
C1117 C1119 1.387 . S
H1118 C1125 0.950 . S
C1119 C1117 1.387 . S
C1119 C1121 1.390 . S
C1119 H1123 0.950 . S
H1120 C1116 0.950 . S
C1121 C1119 1.390 . S
C1121 C1122 1.387 . S
C1121 H1124 0.950 . S
C1122 C1121 1.387 . S
C1122 C1125 1.387 . S
H1123 C1119 0.950 . S
H1124 C1121 0.950 . S
C1125 C1116 1.390 . S
C1125 H1118 0.950 . S
C1125 C1122 1.387 . S
C1126 C1127 1.387 1_565 S
C1126 H1130 0.950 . S
C1126 C1135 1.390 1_456 S
C1127 C1126 1.387 1_545 S
C1127 C1129 1.387 . S
H1128 C1135 0.950 . S
C1129 C1127 1.387 . S
C1129 C1131 1.390 1_456 S
C1129 H1133 0.950 . S
H1130 C1126 0.950 . S
C1131 C1129 1.390 1_654 S
C1131 C1132 1.387 1_545 S
C1131 H1134 0.950 . S
C1132 C1131 1.387 1_565 S
C1132 C1135 1.387 . S
H1133 C1129 0.950 . S
H1134 C1131 0.950 . S
C1135 C1126 1.390 1_654 S
C1135 H1128 0.950 . S
C1135 C1132 1.387 . S
C1136 C1137 1.387 . S
C1136 H1140 0.950 . S
C1136 C1145 1.390 . S
C1137 C1136 1.387 . S
C1137 C1139 1.387 . S
H1138 C1145 0.950 . S
C1139 C1137 1.387 . S
C1139 C1141 1.390 . S
C1139 H1143 0.950 . S
H1140 C1136 0.950 . S
C1141 C1139 1.390 . S
C1141 C1142 1.387 . S
C1141 H1144 0.950 . S
C1142 C1141 1.387 . S
C1142 C1145 1.387 . S
H1143 C1139 0.950 . S
H1144 C1141 0.950 . S
C1145 C1136 1.390 . S
C1145 H1138 0.950 . S
C1145 C1142 1.387 . S
C1146 C1147 1.387 . S
C1146 H1150 0.950 . S
C1146 C1155 1.390 . S
C1147 C1146 1.387 . S
C1147 C1149 1.387 . S
H1148 C1155 0.950 . S
C1149 C1147 1.387 . S
C1149 C1151 1.390 . S
C1149 H1153 0.950 . S
H1150 C1146 0.950 . S
C1151 C1149 1.390 . S
C1151 C1152 1.387 . S
C1151 H1154 0.950 . S
C1152 C1151 1.387 . S
C1152 C1155 1.387 . S
H1153 C1149 0.950 . S
H1154 C1151 0.950 . S
C1155 C1146 1.390 . S
C1155 H1148 0.950 . S
C1155 C1152 1.387 . S
C1156 C1157 1.387 . S
C1156 H1160 0.950 . S
C1156 C1165 1.390 . S
C1157 C1156 1.387 . S
C1157 C1159 1.387 . S
H1158 C1165 0.950 . S
C1159 C1157 1.387 . S
C1159 C1161 1.390 . S
C1159 H1163 0.950 . S
H1160 C1156 0.950 . S
C1161 C1159 1.390 . S
C1161 C1162 1.387 . S
C1161 H1164 0.950 . S
C1162 C1161 1.387 . S
C1162 C1165 1.387 . S
H1163 C1159 0.950 . S
H1164 C1161 0.950 . S
C1165 C1156 1.390 . S
C1165 H1158 0.950 . S
C1165 C1162 1.387 . S
C1166 C1167 1.387 . S
C1166 H1170 0.950 . S
C1166 C1175 1.390 . S
C1167 C1166 1.387 . S
C1167 C1169 1.387 . S
H1168 C1175 0.950 . S
C1169 C1167 1.387 . S
C1169 C1171 1.390 . S
C1169 H1173 0.950 . S
H1170 C1166 0.950 . S
C1171 C1169 1.390 . S
C1171 C1172 1.387 . S
C1171 H1174 0.950 . S
C1172 C1171 1.387 . S
C1172 C1175 1.387 . S
H1173 C1169 0.950 . S
H1174 C1171 0.950 . S
C1175 C1166 1.390 . S
C1175 H1168 0.950 . S
C1175 C1172 1.387 . S
C1176 C1177 1.387 . S
C1176 H1180 0.950 . S
C1176 C1185 1.390 1_556 S
C1177 C1176 1.387 . S
C1177 C1179 1.387 . S
H1178 C1185 0.950 . S
C1179 C1177 1.387 . S
C1179 C1181 1.390 1_556 S
C1179 H1183 0.950 . S
H1180 C1176 0.950 . S
C1181 C1179 1.390 1_554 S
C1181 C1182 1.387 . S
C1181 H1184 0.950 . S
C1182 C1181 1.387 . S
C1182 C1185 1.387 . S
H1183 C1179 0.950 . S
H1184 C1181 0.950 . S
C1185 C1176 1.390 1_554 S
C1185 H1178 0.950 . S
C1185 C1182 1.387 . S
C1186 C1187 1.387 . S
C1186 H1190 0.950 . S
C1186 C1195 1.390 1_655 S
C1187 C1186 1.387 . S
C1187 C1189 1.387 . S
H1188 C1195 0.950 . S
C1189 C1187 1.387 . S
C1189 C1191 1.390 1_655 S
C1189 H1193 0.950 . S
H1190 C1186 0.950 . S
C1191 C1189 1.390 1_455 S
C1191 C1192 1.387 . S
C1191 H1194 0.950 . S
C1192 C1191 1.387 . S
C1192 C1195 1.387 . S
H1193 C1189 0.950 . S
H1194 C1191 0.950 . S
C1195 C1186 1.390 1_455 S
C1195 H1188 0.950 . S
C1195 C1192 1.387 . S
C1196 C1197 1.387 . S
C1196 H1200 0.950 . S
C1196 C1205 1.390 1_454 S
C1197 C1196 1.387 . S
C1197 C1199 1.387 . S
H1198 C1205 0.950 . S
C1199 C1197 1.387 . S
C1199 C1201 1.390 1_454 S
C1199 H1203 0.950 . S
H1200 C1196 0.950 . S
C1201 C1199 1.390 1_656 S
C1201 C1202 1.387 . S
C1201 H1204 0.950 . S
C1202 C1201 1.387 . S
C1202 C1205 1.387 . S
H1203 C1199 0.950 . S
H1204 C1201 0.950 . S
C1205 C1196 1.390 1_656 S
C1205 H1198 0.950 . S
C1205 C1202 1.387 . S
C1206 C1207 1.387 . S
C1206 H1210 0.950 . S
C1206 C1215 1.390 . S
C1207 C1206 1.387 . S
C1207 C1209 1.387 . S
H1208 C1215 0.950 . S
C1209 C1207 1.387 . S
C1209 C1211 1.390 . S
C1209 H1213 0.950 . S
H1210 C1206 0.950 . S
C1211 C1209 1.390 . S
C1211 C1212 1.387 . S
C1211 H1214 0.950 . S
C1212 C1211 1.387 . S
C1212 C1215 1.387 . S
H1213 C1209 0.950 . S
H1214 C1211 0.950 . S
C1215 C1206 1.390 . S
C1215 H1208 0.950 . S
C1215 C1212 1.387 . S
C1216 C1217 1.387 . S
C1216 H1220 0.950 . S
C1216 C1225 1.390 . S
C1217 C1216 1.387 . S
C1217 C1219 1.387 . S
H1218 C1225 0.950 . S
C1219 C1217 1.387 . S
C1219 C1221 1.390 . S
C1219 H1223 0.950 . S
H1220 C1216 0.950 . S
C1221 C1219 1.390 . S
C1221 C1222 1.387 . S
C1221 H1224 0.950 . S
C1222 C1221 1.387 . S
C1222 C1225 1.387 . S
H1223 C1219 0.950 . S
H1224 C1221 0.950 . S
C1225 C1216 1.390 . S
C1225 H1218 0.950 . S
C1225 C1222 1.387 . S
C1226 C1227 1.387 . S
C1226 H1230 0.950 . S
C1226 C1235 1.390 . S
C1227 C1226 1.387 . S
C1227 C1229 1.387 . S
H1228 C1235 0.950 . S
C1229 C1227 1.387 . S
C1229 C1231 1.390 . S
C1229 H1233 0.950 . S
H1230 C1226 0.950 . S
C1231 C1229 1.390 . S
C1231 C1232 1.387 . S
C1231 H1234 0.950 . S
C1232 C1231 1.387 . S
C1232 C1235 1.387 . S
H1233 C1229 0.950 . S
H1234 C1231 0.950 . S
C1235 C1226 1.390 . S
C1235 H1228 0.950 . S
C1235 C1232 1.387 . S
C1236 C1237 1.387 . S
C1236 H1240 0.950 . S
C1236 C1245 1.390 . S
C1237 C1236 1.387 . S
C1237 C1239 1.387 . S
H1238 C1245 0.950 . S
C1239 C1237 1.387 . S
C1239 C1241 1.390 . S
C1239 H1243 0.950 . S
H1240 C1236 0.950 . S
C1241 C1239 1.390 . S
C1241 C1242 1.387 . S
C1241 H1244 0.950 . S
C1242 C1241 1.387 . S
C1242 C1245 1.387 . S
H1243 C1239 0.950 . S
H1244 C1241 0.950 . S
C1245 C1236 1.390 . S
C1245 H1238 0.950 . S
C1245 C1242 1.387 . S
C1246 C1247 1.387 . S
C1246 H1250 0.950 . S
C1246 C1255 1.390 . S
C1247 C1246 1.387 . S
C1247 C1249 1.387 . S
H1248 C1255 0.950 . S
C1249 C1247 1.387 . S
C1249 C1251 1.390 . S
C1249 H1253 0.950 . S
H1250 C1246 0.950 . S
C1251 C1249 1.390 . S
C1251 C1252 1.387 . S
C1251 H1254 0.950 . S
C1252 C1251 1.387 . S
C1252 C1255 1.387 . S
H1253 C1249 0.950 . S
H1254 C1251 0.950 . S
C1255 C1246 1.390 . S
C1255 H1248 0.950 . S
C1255 C1252 1.387 . S
C1256 C1257 1.387 . S
C1256 H1260 0.950 . S
C1256 C1265 1.390 . S
C1257 C1256 1.387 . S
C1257 C1259 1.387 . S
H1258 C1265 0.950 . S
C1259 C1257 1.387 . S
C1259 C1261 1.390 . S
C1259 H1263 0.950 . S
H1260 C1256 0.950 . S
C1261 C1259 1.390 . S
C1261 C1262 1.387 . S
C1261 H1264 0.950 . S
C1262 C1261 1.387 . S
C1262 C1265 1.387 . S
H1263 C1259 0.950 . S
H1264 C1261 0.950 . S
C1265 C1256 1.390 . S
C1265 H1258 0.950 . S
C1265 C1262 1.387 . S
C1266 C1267 1.387 . S
C1266 H1270 0.950 . S
C1266 C1275 1.390 . S
C1267 C1266 1.387 . S
C1267 C1269 1.387 . S
H1268 C1275 0.950 . S
C1269 C1267 1.387 . S
C1269 C1271 1.390 . S
C1269 H1273 0.950 . S
H1270 C1266 0.950 . S
C1271 C1269 1.390 . S
C1271 C1272 1.387 . S
C1271 H1274 0.950 . S
C1272 C1271 1.387 . S
C1272 C1275 1.387 . S
H1273 C1269 0.950 . S
H1274 C1271 0.950 . S
C1275 C1266 1.390 . S
C1275 H1268 0.950 . S
C1275 C1272 1.387 . S
C1276 C1277 1.387 . S
C1276 H1280 0.950 . S
C1276 C1285 1.390 . S
C1277 C1276 1.387 . S
C1277 C1279 1.387 . S
H1278 C1285 0.950 . S
C1279 C1277 1.387 . S
C1279 C1281 1.390 . S
C1279 H1283 0.950 . S
H1280 C1276 0.950 . S
C1281 C1279 1.390 . S
C1281 C1282 1.387 . S
C1281 H1284 0.950 . S
C1282 C1281 1.387 . S
C1282 C1285 1.387 . S
H1283 C1279 0.950 . S
H1284 C1281 0.950 . S
C1285 C1276 1.390 . S
C1285 H1278 0.950 . S
C1285 C1282 1.387 . S
C1286 C1287 1.387 . S
C1286 H1290 0.950 . S
C1286 C1295 1.390 . S
C1287 C1286 1.387 . S
C1287 C1289 1.387 . S
H1288 C1295 0.950 . S
C1289 C1287 1.387 . S
C1289 C1291 1.390 . S
C1289 H1293 0.950 . S
H1290 C1286 0.950 . S
C1291 C1289 1.390 . S
C1291 C1292 1.387 . S
C1291 H1294 0.950 . S
C1292 C1291 1.387 . S
C1292 C1295 1.387 . S
H1293 C1289 0.950 . S
H1294 C1291 0.950 . S
C1295 C1286 1.390 . S
C1295 H1288 0.950 . S
C1295 C1292 1.387 . S
C1296 C1297 1.387 . S
C1296 H1300 0.950 . S
C1296 C1305 1.390 . S
C1297 C1296 1.387 . S
C1297 C1299 1.387 . S
H1298 C1305 0.950 . S
C1299 C1297 1.387 . S
C1299 C1301 1.390 . S
C1299 H1303 0.950 . S
H1300 C1296 0.950 . S
C1301 C1299 1.390 . S
C1301 C1302 1.387 . S
C1301 H1304 0.950 . S
C1302 C1301 1.387 . S
C1302 C1305 1.387 . S
H1303 C1299 0.950 . S
H1304 C1301 0.950 . S
C1305 C1296 1.390 . S
C1305 H1298 0.950 . S
C1305 C1302 1.387 . S
C1306 C1307 1.387 . S
C1306 H1310 0.950 . S
C1306 C1315 1.390 . S
C1307 C1306 1.387 . S
C1307 C1309 1.387 . S
H1308 C1315 0.950 . S
C1309 C1307 1.387 . S
C1309 C1311 1.390 . S
C1309 H1313 0.950 . S
H1310 C1306 0.950 . S
C1311 C1309 1.390 . S
C1311 C1312 1.387 . S
C1311 H1314 0.950 . S
C1312 C1311 1.387 . S
C1312 C1315 1.387 . S
H1313 C1309 0.950 . S
H1314 C1311 0.950 . S
C1315 C1306 1.390 . S
C1315 H1308 0.950 . S
C1315 C1312 1.387 . S
C1316 C1317 1.387 . S
C1316 H1320 0.950 . S
C1316 C1325 1.390 . S
C1317 C1316 1.387 . S
C1317 C1319 1.387 . S
H1318 C1325 0.950 . S
C1319 C1317 1.387 . S
C1319 C1321 1.390 . S
C1319 H1323 0.950 . S
H1320 C1316 0.950 . S
C1321 C1319 1.390 . S
C1321 C1322 1.387 . S
C1321 H1324 0.950 . S
C1322 C1321 1.387 . S
C1322 C1325 1.387 . S
H1323 C1319 0.950 . S
H1324 C1321 0.950 . S
C1325 C1316 1.390 . S
C1325 H1318 0.950 . S
C1325 C1322 1.387 . S
C1326 C1327 1.387 . S
C1326 H1330 0.950 . S
C1326 C1335 1.390 . S
C1327 C1326 1.387 . S
C1327 C1329 1.387 . S
H1328 C1335 0.950 . S
C1329 C1327 1.387 . S
C1329 C1331 1.390 . S
C1329 H1333 0.950 . S
H1330 C1326 0.950 . S
C1331 C1329 1.390 . S
C1331 C1332 1.387 . S
C1331 H1334 0.950 . S
C1332 C1331 1.387 . S
C1332 C1335 1.387 . S
H1333 C1329 0.950 . S
H1334 C1331 0.950 . S
C1335 C1326 1.390 . S
C1335 H1328 0.950 . S
C1335 C1332 1.387 . S
C1336 C1337 1.387 . S
C1336 H1340 0.950 . S
C1336 C1345 1.390 . S
C1337 C1336 1.387 . S
C1337 C1339 1.387 . S
H1338 C1345 0.950 . S
C1339 C1337 1.387 . S
C1339 C1341 1.390 . S
C1339 H1343 0.950 . S
H1340 C1336 0.950 . S
C1341 C1339 1.390 . S
C1341 C1342 1.387 . S
C1341 H1344 0.950 . S
C1342 C1341 1.387 . S
C1342 C1345 1.387 . S
H1343 C1339 0.950 . S
H1344 C1341 0.950 . S
C1345 C1336 1.390 . S
C1345 H1338 0.950 . S
C1345 C1342 1.387 . S
C1346 C1347 1.387 . S
C1346 H1350 0.950 . S
C1346 C1355 1.390 . S
C1347 C1346 1.387 . S
C1347 C1349 1.387 . S
H1348 C1355 0.950 . S
C1349 C1347 1.387 . S
C1349 C1351 1.390 . S
C1349 H1353 0.950 . S
H1350 C1346 0.950 . S
C1351 C1349 1.390 . S
C1351 C1352 1.387 . S
C1351 H1354 0.950 . S
C1352 C1351 1.387 . S
C1352 C1355 1.387 . S
H1353 C1349 0.950 . S
H1354 C1351 0.950 . S
C1355 C1346 1.390 . S
C1355 H1348 0.950 . S
C1355 C1352 1.387 . S
C1356 C1357 1.387 . S
C1356 H1360 0.950 . S
C1356 C1365 1.390 . S
C1357 C1356 1.387 . S
C1357 C1359 1.387 . S
H1358 C1365 0.950 . S
C1359 C1357 1.387 . S
C1359 C1361 1.390 . S
C1359 H1363 0.950 . S
H1360 C1356 0.950 . S
C1361 C1359 1.390 . S
C1361 C1362 1.387 . S
C1361 H1364 0.950 . S
C1362 C1361 1.387 . S
C1362 C1365 1.387 . S
H1363 C1359 0.950 . S
H1364 C1361 0.950 . S
C1365 C1356 1.390 . S
C1365 H1358 0.950 . S
C1365 C1362 1.387 . S
C1366 C1367 1.387 . S
C1366 H1370 0.950 . S
C1366 C1375 1.390 . S
C1367 C1366 1.387 . S
C1367 C1369 1.387 . S
H1368 C1375 0.950 . S
C1369 C1367 1.387 . S
C1369 C1371 1.390 . S
C1369 H1373 0.950 . S
H1370 C1366 0.950 . S
C1371 C1369 1.390 . S
C1371 C1372 1.387 . S
C1371 H1374 0.950 . S
C1372 C1371 1.387 . S
C1372 C1375 1.387 . S
H1373 C1369 0.950 . S
H1374 C1371 0.950 . S
C1375 C1366 1.390 . S
C1375 H1368 0.950 . S
C1375 C1372 1.387 . S
C1376 C1377 1.387 . S
C1376 H1380 0.950 . S
C1376 C1385 1.390 . S
C1377 C1376 1.387 . S
C1377 C1379 1.387 . S
H1378 C1385 0.950 . S
C1379 C1377 1.387 . S
C1379 C1381 1.390 . S
C1379 H1383 0.950 . S
H1380 C1376 0.950 . S
C1381 C1379 1.390 . S
C1381 C1382 1.387 . S
C1381 H1384 0.950 . S
C1382 C1381 1.387 . S
C1382 C1385 1.387 . S
H1383 C1379 0.950 . S
H1384 C1381 0.950 . S
C1385 C1376 1.390 . S
C1385 H1378 0.950 . S
C1385 C1382 1.387 . S
C1386 C1387 1.387 . S
C1386 H1390 0.950 . S
C1386 C1395 1.390 . S
C1387 C1386 1.387 . S
C1387 C1389 1.387 . S
H1388 C1395 0.950 . S
C1389 C1387 1.387 . S
C1389 C1391 1.390 . S
C1389 H1393 0.950 . S
H1390 C1386 0.950 . S
C1391 C1389 1.390 . S
C1391 C1392 1.387 . S
C1391 H1394 0.950 . S
C1392 C1391 1.387 . S
C1392 C1395 1.387 . S
H1393 C1389 0.950 . S
H1394 C1391 0.950 . S
C1395 C1386 1.390 . S
C1395 H1388 0.950 . S
C1395 C1392 1.387 . S
C1396 C1397 1.387 . S
C1396 H1400 0.950 . S
C1396 C1405 1.390 . S
C1397 C1396 1.387 . S
C1397 C1399 1.387 . S
H1398 C1405 0.950 . S
C1399 C1397 1.387 . S
C1399 C1401 1.390 . S
C1399 H1403 0.950 . S
H1400 C1396 0.950 . S
C1401 C1399 1.390 . S
C1401 C1402 1.387 . S
C1401 H1404 0.950 . S
C1402 C1401 1.387 . S
C1402 C1405 1.387 . S
H1403 C1399 0.950 . S
H1404 C1401 0.950 . S
C1405 C1396 1.390 . S
C1405 H1398 0.950 . S
C1405 C1402 1.387 . S
C1406 C1407 1.387 . S
C1406 H1410 0.950 . S
C1406 C1415 1.390 . S
C1407 C1406 1.387 . S
C1407 C1409 1.387 . S
H1408 C1415 0.950 . S
C1409 C1407 1.387 . S
C1409 C1411 1.390 . S
C1409 H1413 0.950 . S
H1410 C1406 0.950 . S
C1411 C1409 1.390 . S
C1411 C1412 1.387 . S
C1411 H1414 0.950 . S
C1412 C1411 1.387 . S
C1412 C1415 1.387 . S
H1413 C1409 0.950 . S
H1414 C1411 0.950 . S
C1415 C1406 1.390 . S
C1415 H1408 0.950 . S
C1415 C1412 1.387 . S
C1416 C1417 1.387 . S
C1416 H1420 0.950 . S
C1416 C1425 1.390 . S
C1417 C1416 1.387 . S
C1417 C1419 1.387 . S
H1418 C1425 0.950 . S
C1419 C1417 1.387 . S
C1419 C1421 1.390 . S
C1419 H1423 0.950 . S
H1420 C1416 0.950 . S
C1421 C1419 1.390 . S
C1421 C1422 1.387 . S
C1421 H1424 0.950 . S
C1422 C1421 1.387 . S
C1422 C1425 1.387 . S
H1423 C1419 0.950 . S
H1424 C1421 0.950 . S
C1425 C1416 1.390 . S
C1425 H1418 0.950 . S
C1425 C1422 1.387 . S
C1426 C1427 1.387 . S
C1426 H1430 0.950 . S
C1426 C1435 1.390 . S
C1427 C1426 1.387 . S
C1427 C1429 1.387 . S
H1428 C1435 0.950 . S
C1429 C1427 1.387 . S
C1429 C1431 1.390 . S
C1429 H1433 0.950 . S
H1430 C1426 0.950 . S
C1431 C1429 1.390 . S
C1431 C1432 1.387 . S
C1431 H1434 0.950 . S
C1432 C1431 1.387 . S
C1432 C1435 1.387 . S
H1433 C1429 0.950 . S
H1434 C1431 0.950 . S
C1435 C1426 1.390 . S
C1435 H1428 0.950 . S
C1435 C1432 1.387 . S
C1436 C1437 1.387 . S
C1436 H1440 0.950 . S
C1436 C1445 1.390 . S
C1437 C1436 1.387 . S
C1437 C1439 1.387 . S
H1438 C1445 0.950 . S
C1439 C1437 1.387 . S
C1439 C1441 1.390 . S
C1439 H1443 0.950 . S
H1440 C1436 0.950 . S
C1441 C1439 1.390 . S
C1441 C1442 1.387 . S
C1441 H1444 0.950 . S
C1442 C1441 1.387 . S
C1442 C1445 1.387 . S
H1443 C1439 0.950 . S
H1444 C1441 0.950 . S
C1445 C1436 1.390 . S
C1445 H1438 0.950 . S
C1445 C1442 1.387 . S
C1446 C1447 1.387 . S
C1446 H1450 0.950 . S
C1446 C1455 1.390 . S
C1447 C1446 1.387 . S
C1447 C1449 1.387 . S
H1448 C1455 0.950 . S
C1449 C1447 1.387 . S
C1449 C1451 1.390 . S
C1449 H1453 0.950 . S
H1450 C1446 0.950 . S
C1451 C1449 1.390 . S
C1451 C1452 1.387 . S
C1451 H1454 0.950 . S
C1452 C1451 1.387 . S
C1452 C1455 1.387 . S
H1453 C1449 0.950 . S
H1454 C1451 0.950 . S
C1455 C1446 1.390 . S
C1455 H1448 0.950 . S
C1455 C1452 1.387 . S
C1456 C1457 1.387 . S
C1456 H1460 0.950 . S
C1456 C1465 1.390 . S
C1457 C1456 1.387 . S
C1457 C1459 1.387 . S
H1458 C1465 0.950 . S
C1459 C1457 1.387 . S
C1459 C1461 1.390 . S
C1459 H1463 0.950 . S
H1460 C1456 0.950 . S
C1461 C1459 1.390 . S
C1461 C1462 1.387 . S
C1461 H1464 0.950 . S
C1462 C1461 1.387 . S
C1462 C1465 1.387 . S
H1463 C1459 0.950 . S
H1464 C1461 0.950 . S
C1465 C1456 1.390 . S
C1465 H1458 0.950 . S
C1465 C1462 1.387 . S
C1466 C1467 1.387 . S
C1466 H1470 0.950 . S
C1466 C1475 1.390 . S
C1467 C1466 1.387 . S
C1467 C1469 1.387 . S
H1468 C1475 0.950 . S
C1469 C1467 1.387 . S
C1469 C1471 1.390 . S
C1469 H1473 0.950 . S
H1470 C1466 0.950 . S
C1471 C1469 1.390 . S
C1471 C1472 1.387 . S
C1471 H1474 0.950 . S
C1472 C1471 1.387 . S
C1472 C1475 1.387 . S
H1473 C1469 0.950 . S
H1474 C1471 0.950 . S
C1475 C1466 1.390 . S
C1475 H1468 0.950 . S
C1475 C1472 1.387 . S
C1476 C1477 1.387 . S
C1476 H1480 0.950 . S
C1476 C1485 1.390 . S
C1477 C1476 1.387 . S
C1477 C1479 1.387 . S
H1478 C1485 0.950 . S
C1479 C1477 1.387 . S
C1479 C1481 1.390 . S
C1479 H1483 0.950 . S
H1480 C1476 0.950 . S
C1481 C1479 1.390 . S
C1481 C1482 1.387 . S
C1481 H1484 0.950 . S
C1482 C1481 1.387 . S
C1482 C1485 1.387 . S
H1483 C1479 0.950 . S
H1484 C1481 0.950 . S
C1485 C1476 1.390 . S
C1485 H1478 0.950 . S
C1485 C1482 1.387 . S
C1486 C1487 1.387 . S
C1486 H1490 0.950 . S
C1486 C1495 1.390 . S
C1487 C1486 1.387 . S
C1487 C1489 1.387 . S
H1488 C1495 0.950 . S
C1489 C1487 1.387 . S
C1489 C1491 1.390 . S
C1489 H1493 0.950 . S
H1490 C1486 0.950 . S
C1491 C1489 1.390 . S
C1491 C1492 1.387 . S
C1491 H1494 0.950 . S
C1492 C1491 1.387 . S
C1492 C1495 1.387 . S
H1493 C1489 0.950 . S
H1494 C1491 0.950 . S
C1495 C1486 1.390 . S
C1495 H1488 0.950 . S
C1495 C1492 1.387 . S
C1496 C1497 1.387 . S
C1496 H1500 0.950 . S
C1496 C1505 1.390 . S
C1497 C1496 1.387 . S
C1497 C1499 1.387 . S
H1498 C1505 0.950 . S
C1499 C1497 1.387 . S
C1499 C1501 1.390 . S
C1499 H1503 0.950 . S
H1500 C1496 0.950 . S
C1501 C1499 1.390 . S
C1501 C1502 1.387 . S
C1501 H1504 0.950 . S
C1502 C1501 1.387 . S
C1502 C1505 1.387 . S
H1503 C1499 0.950 . S
H1504 C1501 0.950 . S
C1505 C1496 1.390 . S
C1505 H1498 0.950 . S
C1505 C1502 1.387 . S
C1506 C1507 1.387 . S
C1506 H1510 0.950 . S
C1506 C1515 1.390 . S
C1507 C1506 1.387 . S
C1507 C1509 1.387 . S
H1508 C1515 0.950 . S
C1509 C1507 1.387 . S
C1509 C1511 1.390 . S
C1509 H1513 0.950 . S
H1510 C1506 0.950 . S
C1511 C1509 1.390 . S
C1511 C1512 1.387 . S
C1511 H1514 0.950 . S
C1512 C1511 1.387 . S
C1512 C1515 1.387 . S
H1513 C1509 0.950 . S
H1514 C1511 0.950 . S
C1515 C1506 1.390 . S
C1515 H1508 0.950 . S
C1515 C1512 1.387 . S
C1516 C1517 1.387 . S
C1516 H1520 0.950 . S
C1516 C1525 1.390 . S
C1517 C1516 1.387 . S
C1517 C1519 1.387 . S
H1518 C1525 0.950 . S
C1519 C1517 1.387 . S
C1519 C1521 1.390 . S
C1519 H1523 0.950 . S
H1520 C1516 0.950 . S
C1521 C1519 1.390 . S
C1521 C1522 1.387 . S
C1521 H1524 0.950 . S
C1522 C1521 1.387 . S
C1522 C1525 1.387 . S
H1523 C1519 0.950 . S
H1524 C1521 0.950 . S
C1525 C1516 1.390 . S
C1525 H1518 0.950 . S
C1525 C1522 1.387 . S
C1526 C1527 1.387 . S
C1526 H1530 0.950 . S
C1526 C1535 1.390 . S
C1527 C1526 1.387 . S
C1527 C1529 1.387 . S
H1528 C1535 0.950 . S
C1529 C1527 1.387 . S
C1529 C1531 1.390 . S
C1529 H1533 0.950 . S
H1530 C1526 0.950 . S
C1531 C1529 1.390 . S
C1531 C1532 1.387 . S
C1531 H1534 0.950 . S
C1532 C1531 1.387 . S
C1532 C1535 1.387 . S
H1533 C1529 0.950 . S
H1534 C1531 0.950 . S
C1535 C1526 1.390 . S
C1535 H1528 0.950 . S
C1535 C1532 1.387 . S
C1536 C1537 1.387 . S
C1536 H1540 0.950 . S
C1536 C1545 1.390 1_554 S
C1537 C1536 1.387 . S
C1537 C1539 1.387 . S
H1538 C1545 0.950 . S
C1539 C1537 1.387 . S
C1539 C1541 1.390 1_554 S
C1539 H1543 0.950 . S
H1540 C1536 0.950 . S
C1541 C1539 1.390 1_556 S
C1541 C1542 1.387 . S
C1541 H1544 0.950 . S
C1542 C1541 1.387 . S
C1542 C1545 1.387 . S
H1543 C1539 0.950 . S
H1544 C1541 0.950 . S
C1545 C1536 1.390 1_556 S
C1545 H1538 0.950 . S
C1545 C1542 1.387 . S
C1546 C1547 1.387 . S
C1546 H1550 0.950 . S
C1546 C1555 1.390 1_565 S
C1547 C1546 1.387 . S
C1547 C1549 1.387 . S
H1548 C1555 0.950 . S
C1549 C1547 1.387 . S
C1549 C1551 1.390 1_565 S
C1549 H1553 0.950 . S
H1550 C1546 0.950 . S
C1551 C1549 1.390 1_545 S
C1551 C1552 1.387 . S
C1551 H1554 0.950 . S
C1552 C1551 1.387 . S
C1552 C1555 1.387 . S
H1553 C1549 0.950 . S
H1554 C1551 0.950 . S
C1555 C1546 1.390 1_545 S
C1555 H1548 0.950 . S
C1555 C1552 1.387 . S
C1556 C1557 1.387 . S
C1556 H1560 0.950 . S
C1556 C1565 1.390 . S
C1557 C1556 1.387 . S
C1557 C1559 1.387 . S
H1558 C1565 0.950 . S
C1559 C1557 1.387 . S
C1559 C1561 1.390 . S
C1559 H1563 0.950 . S
H1560 C1556 0.950 . S
C1561 C1559 1.390 . S
C1561 C1562 1.387 . S
C1561 H1564 0.950 . S
C1562 C1561 1.387 . S
C1562 C1565 1.387 . S
H1563 C1559 0.950 . S
H1564 C1561 0.950 . S
C1565 C1556 1.390 . S
C1565 H1558 0.950 . S
C1565 C1562 1.387 . S
C1566 C1567 1.387 . S
C1566 H1570 0.950 . S
C1566 C1575 1.390 1_565 S
C1567 C1566 1.387 . S
C1567 C1569 1.387 . S
H1568 C1575 0.950 . S
C1569 C1567 1.387 . S
C1569 C1571 1.390 1_565 S
C1569 H1573 0.950 . S
H1570 C1566 0.950 . S
C1571 C1569 1.390 1_545 S
C1571 C1572 1.387 . S
C1571 H1574 0.950 . S
C1572 C1571 1.387 . S
C1572 C1575 1.387 . S
H1573 C1569 0.950 . S
H1574 C1571 0.950 . S
C1575 C1566 1.390 1_545 S
C1575 H1568 0.950 . S
C1575 C1572 1.387 . S
C1576 C1577 1.387 . S
C1576 H1580 0.950 . S
C1576 C1585 1.390 1_554 S
C1577 C1576 1.387 . S
C1577 C1579 1.387 . S
H1578 C1585 0.950 . S
C1579 C1577 1.387 . S
C1579 C1581 1.390 1_554 S
C1579 H1583 0.950 . S
H1580 C1576 0.950 . S
C1581 C1579 1.390 1_556 S
C1581 C1582 1.387 . S
C1581 H1584 0.950 . S
C1582 C1581 1.387 . S
C1582 C1585 1.387 . S
H1583 C1579 0.950 . S
H1584 C1581 0.950 . S
C1585 C1576 1.390 1_556 S
C1585 H1578 0.950 . S
C1585 C1582 1.387 . S
C1586 C1587 1.387 . S
C1586 H1590 0.950 . S
C1586 C1595 1.390 1_545 S
C1587 C1586 1.387 . S
C1587 C1589 1.387 . S
H1588 C1595 0.950 . S
C1589 C1587 1.387 . S
C1589 C1591 1.390 1_545 S
C1589 H1593 0.950 . S
H1590 C1586 0.950 . S
C1591 C1589 1.390 1_565 S
C1591 C1592 1.387 . S
C1591 H1594 0.950 . S
C1592 C1591 1.387 . S
C1592 C1595 1.387 . S
H1593 C1589 0.950 . S
H1594 C1591 0.950 . S
C1595 C1586 1.390 1_565 S
C1595 H1588 0.950 . S
C1595 C1592 1.387 . S
C1596 C1597 1.387 . S
C1596 H1600 0.950 . S
C1596 C1605 1.390 . S
C1597 C1596 1.387 . S
C1597 C1599 1.387 . S
H1598 C1605 0.950 . S
C1599 C1597 1.387 . S
C1599 C1601 1.390 . S
C1599 H1603 0.950 . S
H1600 C1596 0.950 . S
C1601 C1599 1.390 . S
C1601 C1602 1.387 . S
C1601 H1604 0.950 . S
C1602 C1601 1.387 . S
C1602 C1605 1.387 . S
H1603 C1599 0.950 . S
H1604 C1601 0.950 . S
C1605 C1596 1.390 . S
C1605 H1598 0.950 . S
C1605 C1602 1.387 . S
C1606 C1607 1.387 . S
C1606 H1610 0.950 . S
C1606 C1615 1.390 1_565 S
C1607 C1606 1.387 . S
C1607 C1609 1.387 . S
H1608 C1615 0.950 . S
C1609 C1607 1.387 . S
C1609 C1611 1.390 1_565 S
C1609 H1613 0.950 . S
H1610 C1606 0.950 . S
C1611 C1609 1.390 1_545 S
C1611 C1612 1.387 . S
C1611 H1614 0.950 . S
C1612 C1611 1.387 . S
C1612 C1615 1.387 . S
H1613 C1609 0.950 . S
H1614 C1611 0.950 . S
C1615 C1606 1.390 1_545 S
C1615 H1608 0.950 . S
C1615 C1612 1.387 . S
C1616 C1617 1.387 . S
C1616 H1620 0.950 . S
C1616 C1625 1.390 . S
C1617 C1616 1.387 . S
C1617 C1619 1.387 . S
H1618 C1625 0.950 . S
C1619 C1617 1.387 . S
C1619 C1621 1.390 . S
C1619 H1623 0.950 . S
H1620 C1616 0.950 . S
C1621 C1619 1.390 . S
C1621 C1622 1.387 . S
C1621 H1624 0.950 . S
C1622 C1621 1.387 . S
C1622 C1625 1.387 . S
H1623 C1619 0.950 . S
H1624 C1621 0.950 . S
C1625 C1616 1.390 . S
C1625 H1618 0.950 . S
C1625 C1622 1.387 . S
C1626 C1627 1.387 . S
C1626 H1630 0.950 . S
C1626 C1635 1.390 . S
C1627 C1626 1.387 . S
C1627 C1629 1.387 . S
H1628 C1635 0.950 . S
C1629 C1627 1.387 . S
C1629 C1631 1.390 . S
C1629 H1633 0.950 . S
H1630 C1626 0.950 . S
C1631 C1629 1.390 . S
C1631 C1632 1.387 . S
C1631 H1634 0.950 . S
C1632 C1631 1.387 . S
C1632 C1635 1.387 . S
H1633 C1629 0.950 . S
H1634 C1631 0.950 . S
C1635 C1626 1.390 . S
C1635 H1628 0.950 . S
C1635 C1632 1.387 . S
C1636 C1637 1.387 . S
C1636 H1640 0.950 . S
C1636 C1645 1.390 1_554 S
C1637 C1636 1.387 . S
C1637 C1639 1.387 . S
H1638 C1645 0.950 . S
C1639 C1637 1.387 . S
C1639 C1641 1.390 1_554 S
C1639 H1643 0.950 . S
H1640 C1636 0.950 . S
C1641 C1639 1.390 1_556 S
C1641 C1642 1.387 . S
C1641 H1644 0.950 . S
C1642 C1641 1.387 . S
C1642 C1645 1.387 . S
H1643 C1639 0.950 . S
H1644 C1641 0.950 . S
C1645 C1636 1.390 1_556 S
C1645 H1638 0.950 . S
C1645 C1642 1.387 . S
C1646 C1647 1.387 . S
C1646 H1650 0.950 . S
C1646 C1655 1.390 . S
C1647 C1646 1.387 . S
C1647 C1649 1.387 . S
H1648 C1655 0.950 . S
C1649 C1647 1.387 . S
C1649 C1651 1.390 . S
C1649 H1653 0.950 . S
H1650 C1646 0.950 . S
C1651 C1649 1.390 . S
C1651 C1652 1.387 . S
C1651 H1654 0.950 . S
C1652 C1651 1.387 . S
C1652 C1655 1.387 . S
H1653 C1649 0.950 . S
H1654 C1651 0.950 . S
C1655 C1646 1.390 . S
C1655 H1648 0.950 . S
C1655 C1652 1.387 . S
C1656 C1657 1.387 . S
C1656 H1660 0.950 . S
C1656 C1665 1.390 . S
C1657 C1656 1.387 . S
C1657 C1659 1.387 . S
H1658 C1665 0.950 . S
C1659 C1657 1.387 . S
C1659 C1661 1.390 . S
C1659 H1663 0.950 . S
H1660 C1656 0.950 . S
C1661 C1659 1.390 . S
C1661 C1662 1.387 . S
C1661 H1664 0.950 . S
C1662 C1661 1.387 . S
C1662 C1665 1.387 . S
H1663 C1659 0.950 . S
H1664 C1661 0.950 . S
C1665 C1656 1.390 . S
C1665 H1658 0.950 . S
C1665 C1662 1.387 . S
C1666 C1667 1.387 . S
C1666 H1670 0.950 . S
C1666 C1675 1.390 . S
C1667 C1666 1.387 . S
C1667 C1669 1.387 . S
H1668 C1675 0.950 . S
C1669 C1667 1.387 . S
C1669 C1671 1.390 . S
C1669 H1673 0.950 . S
H1670 C1666 0.950 . S
C1671 C1669 1.390 . S
C1671 C1672 1.387 . S
C1671 H1674 0.950 . S
C1672 C1671 1.387 . S
C1672 C1675 1.387 . S
H1673 C1669 0.950 . S
H1674 C1671 0.950 . S
C1675 C1666 1.390 . S
C1675 H1668 0.950 . S
C1675 C1672 1.387 . S
C1676 C1677 1.387 . S
C1676 H1680 0.950 . S
C1676 C1685 1.390 1_556 S
C1677 C1676 1.387 . S
C1677 C1679 1.387 . S
H1678 C1685 0.950 . S
C1679 C1677 1.387 . S
C1679 C1681 1.390 1_556 S
C1679 H1683 0.950 . S
H1680 C1676 0.950 . S
C1681 C1679 1.390 1_554 S
C1681 C1682 1.387 . S
C1681 H1684 0.950 . S
C1682 C1681 1.387 . S
C1682 C1685 1.387 . S
H1683 C1679 0.950 . S
H1684 C1681 0.950 . S
C1685 C1676 1.390 1_554 S
C1685 H1678 0.950 . S
C1685 C1682 1.387 . S
C1686 C1687 1.387 . S
C1686 H1690 0.950 . S
C1686 C1695 1.390 . S
C1687 C1686 1.387 . S
C1687 C1689 1.387 . S
H1688 C1695 0.950 . S
C1689 C1687 1.387 . S
C1689 C1691 1.390 . S
C1689 H1693 0.950 . S
H1690 C1686 0.950 . S
C1691 C1689 1.390 . S
C1691 C1692 1.387 . S
C1691 H1694 0.950 . S
C1692 C1691 1.387 . S
C1692 C1695 1.387 . S
H1693 C1689 0.950 . S
H1694 C1691 0.950 . S
C1695 C1686 1.390 . S
C1695 H1688 0.950 . S
C1695 C1692 1.387 . S
C1696 C1697 1.387 . S
C1696 H1700 0.950 . S
C1696 C1705 1.390 . S
C1697 C1696 1.387 . S
C1697 C1699 1.387 . S
H1698 C1705 0.950 . S
C1699 C1697 1.387 . S
C1699 C1701 1.390 . S
C1699 H1703 0.950 . S
H1700 C1696 0.950 . S
C1701 C1699 1.390 . S
C1701 C1702 1.387 . S
C1701 H1704 0.950 . S
C1702 C1701 1.387 . S
C1702 C1705 1.387 . S
H1703 C1699 0.950 . S
H1704 C1701 0.950 . S
C1705 C1696 1.390 . S
C1705 H1698 0.950 . S
C1705 C1702 1.387 . S
C1706 C1707 1.387 . S
C1706 H1710 0.950 . S
C1706 C1715 1.390 . S
C1707 C1706 1.387 . S
C1707 C1709 1.387 . S
H1708 C1715 0.950 . S
C1709 C1707 1.387 . S
C1709 C1711 1.390 . S
C1709 H1713 0.950 . S
H1710 C1706 0.950 . S
C1711 C1709 1.390 . S
C1711 C1712 1.387 . S
C1711 H1714 0.950 . S
C1712 C1711 1.387 . S
C1712 C1715 1.387 . S
H1713 C1709 0.950 . S
H1714 C1711 0.950 . S
C1715 C1706 1.390 . S
C1715 H1708 0.950 . S
C1715 C1712 1.387 . S
C1716 C1717 1.387 . S
C1716 H1720 0.950 . S
C1716 C1725 1.390 . S
C1717 C1716 1.387 . S
C1717 C1719 1.387 . S
H1718 C1725 0.950 . S
C1719 C1717 1.387 . S
C1719 C1721 1.390 . S
C1719 H1723 0.950 . S
H1720 C1716 0.950 . S
C1721 C1719 1.390 . S
C1721 C1722 1.387 . S
C1721 H1724 0.950 . S
C1722 C1721 1.387 . S
C1722 C1725 1.387 . S
H1723 C1719 0.950 . S
H1724 C1721 0.950 . S
C1725 C1716 1.390 . S
C1725 H1718 0.950 . S
C1725 C1722 1.387 . S
C1726 C1727 1.387 . S
C1726 H1730 0.950 . S
C1726 C1735 1.390 . S
C1727 C1726 1.387 . S
C1727 C1729 1.387 . S
H1728 C1735 0.950 . S
C1729 C1727 1.387 . S
C1729 C1731 1.390 . S
C1729 H1733 0.950 . S
H1730 C1726 0.950 . S
C1731 C1729 1.390 . S
C1731 C1732 1.387 . S
C1731 H1734 0.950 . S
C1732 C1731 1.387 . S
C1732 C1735 1.387 . S
H1733 C1729 0.950 . S
H1734 C1731 0.950 . S
C1735 C1726 1.390 . S
C1735 H1728 0.950 . S
C1735 C1732 1.387 . S
C1736 C1737 1.387 . S
C1736 H1740 0.950 . S
C1736 C1745 1.390 . S
C1737 C1736 1.387 . S
C1737 C1739 1.387 . S
H1738 C1745 0.950 . S
C1739 C1737 1.387 . S
C1739 C1741 1.390 . S
C1739 H1743 0.950 . S
H1740 C1736 0.950 . S
C1741 C1739 1.390 . S
C1741 C1742 1.387 . S
C1741 H1744 0.950 . S
C1742 C1741 1.387 . S
C1742 C1745 1.387 . S
H1743 C1739 0.950 . S
H1744 C1741 0.950 . S
C1745 C1736 1.390 . S
C1745 H1738 0.950 . S
C1745 C1742 1.387 . S
C1746 C1747 1.387 . S
C1746 H1750 0.950 . S
C1746 C1755 1.390 . S
C1747 C1746 1.387 . S
C1747 C1749 1.387 . S
H1748 C1755 0.950 . S
C1749 C1747 1.387 . S
C1749 C1751 1.390 . S
C1749 H1753 0.950 . S
H1750 C1746 0.950 . S
C1751 C1749 1.390 . S
C1751 C1752 1.387 . S
C1751 H1754 0.950 . S
C1752 C1751 1.387 . S
C1752 C1755 1.387 . S
H1753 C1749 0.950 . S
H1754 C1751 0.950 . S
C1755 C1746 1.390 . S
C1755 H1748 0.950 . S
C1755 C1752 1.387 . S
C1756 C1757 1.387 . S
C1756 H1760 0.950 . S
C1756 C1765 1.390 . S
C1757 C1756 1.387 . S
C1757 C1759 1.387 . S
H1758 C1765 0.950 . S
C1759 C1757 1.387 . S
C1759 C1761 1.390 . S
C1759 H1763 0.950 . S
H1760 C1756 0.950 . S
C1761 C1759 1.390 . S
C1761 C1762 1.387 . S
C1761 H1764 0.950 . S
C1762 C1761 1.387 . S
C1762 C1765 1.387 . S
H1763 C1759 0.950 . S
H1764 C1761 0.950 . S
C1765 C1756 1.390 . S
C1765 H1758 0.950 . S
C1765 C1762 1.387 . S
C1766 C1767 1.387 . S
C1766 H1770 0.950 . S
C1766 C1775 1.390 . S
C1767 C1766 1.387 . S
C1767 C1769 1.387 . S
H1768 C1775 0.950 . S
C1769 C1767 1.387 . S
C1769 C1771 1.390 . S
C1769 H1773 0.950 . S
H1770 C1766 0.950 . S
C1771 C1769 1.390 . S
C1771 C1772 1.387 . S
C1771 H1774 0.950 . S
C1772 C1771 1.387 . S
C1772 C1775 1.387 . S
H1773 C1769 0.950 . S
H1774 C1771 0.950 . S
C1775 C1766 1.390 . S
C1775 H1768 0.950 . S
C1775 C1772 1.387 . S
C1776 C1777 1.387 . S
C1776 H1780 0.950 . S
C1776 C1785 1.390 . S
C1777 C1776 1.387 . S
C1777 C1779 1.387 . S
H1778 C1785 0.950 . S
C1779 C1777 1.387 . S
C1779 C1781 1.390 . S
C1779 H1783 0.950 . S
H1780 C1776 0.950 . S
C1781 C1779 1.390 . S
C1781 C1782 1.387 . S
C1781 H1784 0.950 . S
C1782 C1781 1.387 . S
C1782 C1785 1.387 . S
H1783 C1779 0.950 . S
H1784 C1781 0.950 . S
C1785 C1776 1.390 . S
C1785 H1778 0.950 . S
C1785 C1782 1.387 . S
C1786 C1787 1.387 . S
C1786 H1790 0.950 . S
C1786 C1795 1.390 . S
C1787 C1786 1.387 . S
C1787 C1789 1.387 . S
H1788 C1795 0.950 . S
C1789 C1787 1.387 . S
C1789 C1791 1.390 . S
C1789 H1793 0.950 . S
H1790 C1786 0.950 . S
C1791 C1789 1.390 . S
C1791 C1792 1.387 . S
C1791 H1794 0.950 . S
C1792 C1791 1.387 . S
C1792 C1795 1.387 . S
H1793 C1789 0.950 . S
H1794 C1791 0.950 . S
C1795 C1786 1.390 . S
C1795 H1788 0.950 . S
C1795 C1792 1.387 . S
C1796 C1797 1.387 . S
C1796 H1800 0.950 . S
C1796 C1805 1.390 . S
C1797 C1796 1.387 . S
C1797 C1799 1.387 . S
H1798 C1805 0.950 . S
C1799 C1797 1.387 . S
C1799 C1801 1.390 . S
C1799 H1803 0.950 . S
H1800 C1796 0.950 . S
C1801 C1799 1.390 . S
C1801 C1802 1.387 . S
C1801 H1804 0.950 . S
C1802 C1801 1.387 . S
C1802 C1805 1.387 . S
H1803 C1799 0.950 . S
H1804 C1801 0.950 . S
C1805 C1796 1.390 . S
C1805 H1798 0.950 . S
C1805 C1802 1.387 . S
C1806 C1807 1.387 . S
C1806 H1810 0.950 . S
C1806 C1815 1.390 . S
C1807 C1806 1.387 . S
C1807 C1809 1.387 . S
H1808 C1815 0.950 . S
C1809 C1807 1.387 . S
C1809 C1811 1.390 . S
C1809 H1813 0.950 . S
H1810 C1806 0.950 . S
C1811 C1809 1.390 . S
C1811 C1812 1.387 . S
C1811 H1814 0.950 . S
C1812 C1811 1.387 . S
C1812 C1815 1.387 . S
H1813 C1809 0.950 . S
H1814 C1811 0.950 . S
C1815 C1806 1.390 . S
C1815 H1808 0.950 . S
C1815 C1812 1.387 . S
C1816 C1817 1.387 . S
C1816 H1820 0.950 . S
C1816 C1825 1.390 . S
C1817 C1816 1.387 . S
C1817 C1819 1.387 . S
H1818 C1825 0.950 . S
C1819 C1817 1.387 . S
C1819 C1821 1.390 . S
C1819 H1823 0.950 . S
H1820 C1816 0.950 . S
C1821 C1819 1.390 . S
C1821 C1822 1.387 . S
C1821 H1824 0.950 . S
C1822 C1821 1.387 . S
C1822 C1825 1.387 . S
H1823 C1819 0.950 . S
H1824 C1821 0.950 . S
C1825 C1816 1.390 . S
C1825 H1818 0.950 . S
C1825 C1822 1.387 . S
C1826 C1827 1.387 . S
C1826 H1830 0.950 . S
C1826 C1835 1.390 . S
C1827 C1826 1.387 . S
C1827 C1829 1.387 . S
H1828 C1835 0.950 . S
C1829 C1827 1.387 . S
C1829 C1831 1.390 . S
C1829 H1833 0.950 . S
H1830 C1826 0.950 . S
C1831 C1829 1.390 . S
C1831 C1832 1.387 . S
C1831 H1834 0.950 . S
C1832 C1831 1.387 . S
C1832 C1835 1.387 . S
H1833 C1829 0.950 . S
H1834 C1831 0.950 . S
C1835 C1826 1.390 . S
C1835 H1828 0.950 . S
C1835 C1832 1.387 . S
C1836 C1837 1.387 . S
C1836 H1840 0.950 . S
C1836 C1845 1.390 . S
C1837 C1836 1.387 . S
C1837 C1839 1.387 . S
H1838 C1845 0.950 . S
C1839 C1837 1.387 . S
C1839 C1841 1.390 . S
C1839 H1843 0.950 . S
H1840 C1836 0.950 . S
C1841 C1839 1.390 . S
C1841 C1842 1.387 . S
C1841 H1844 0.950 . S
C1842 C1841 1.387 . S
C1842 C1845 1.387 . S
H1843 C1839 0.950 . S
H1844 C1841 0.950 . S
C1845 C1836 1.390 . S
C1845 H1838 0.950 . S
C1845 C1842 1.387 . S
C1846 C1847 1.387 . S
C1846 H1850 0.950 . S
C1846 C1855 1.390 . S
C1847 C1846 1.387 . S
C1847 C1849 1.387 . S
H1848 C1855 0.950 . S
C1849 C1847 1.387 . S
C1849 C1851 1.390 . S
C1849 H1853 0.950 . S
H1850 C1846 0.950 . S
C1851 C1849 1.390 . S
C1851 C1852 1.387 . S
C1851 H1854 0.950 . S
C1852 C1851 1.387 . S
C1852 C1855 1.387 . S
H1853 C1849 0.950 . S
H1854 C1851 0.950 . S
C1855 C1846 1.390 . S
C1855 H1848 0.950 . S
C1855 C1852 1.387 . S
C1057 C28 1.569 . S
C1062 C820 1.569 . S
C1067 C325 1.569 . S
C1072 C61 1.569 . S
C1077 C886 1.569 . S
C1082 C94 1.569 . S
C1087 C391 1.569 . S
C1092 C127 1.569 . S
C1097 C952 1.569 . S
C1102 C160 1.569 . S
C1107 C457 1.569 . S
C1112 C193 1.569 . S
C1117 C1018 1.569 . S
C1122 C226 1.569 . S
C1127 C523 1.569 . S
C1132 C259 1.569 . S
C1137 C292 1.569 . S
C1142 C556 1.569 . S
C1147 C358 1.569 . S
C1152 C622 1.569 . S
C1157 C424 1.569 . S
C1162 C688 1.569 . S
C1167 C754 1.568 . S
C1172 C490 1.568 . S
C1177 C589 1.569 . S
C1182 C853 1.569 . S
C1187 C919 1.569 . S
C1192 C655 1.569 . S
C1197 C721 1.569 . S
C1202 C985 1.569 . S
C1207 C1051 1.568 . S
C1212 C787 1.568 . S
C1217 N5 1.322 . S
C1222 C380 1.363 . S
C1227 N38 1.325 . S
C1232 C809 1.365 . S
C1237 C314 1.363 . S
C1242 N71 1.323 . S
C1247 N104 1.325 . S
C1252 C875 1.365 . S
C1257 C446 1.365 . S
C1262 N137 1.325 . S
C1267 C1007 1.365 . S
C1272 N170 1.325 . S
C1277 N203 1.323 . S
C1282 C512 1.363 . S
C1287 C941 1.363 . S
C1292 N236 1.323 . S
C1297 N269 1.325 . S
C1302 C116 1.365 . S
C1307 N302 1.325 . S
C1312 C545 1.365 . S
C1317 C50 1.364 . S
C1322 N335 1.323 . S
C1327 N368 1.324 . S
C1332 C611 1.364 . S
C1337 N401 1.323 . S
C1342 C182 1.363 . S
C1347 C743 1.363 . S
C1352 N434 1.324 . S
C1357 C248 1.365 . S
C1362 N467 1.325 . S
C1367 N500 1.323 . S
C1372 C677 1.363 . S
C1377 C908 1.365 . S
C1382 N533 1.326 . S
C1387 C281 1.363 . S
C1392 N566 1.324 . S
C1397 C842 1.363 . S
C1402 N599 1.322 . S
C1407 N632 1.323 . S
C1412 C347 1.363 . S
C1417 C974 1.363 . S
C1422 N665 1.322 . S
C1427 C479 1.365 . S
C1432 N698 1.326 . S
C1437 N731 1.324 . S
C1442 C1040 1.363 . S
C1447 C413 1.363 . S
C1452 N764 1.323 . S
C1457 C644 1.364 . S
C1462 N797 1.325 . S
C1467 N830 1.326 . S
C1472 C17 1.365 . S
C1477 N863 1.325 . S
C1482 C578 1.365 . S
C1487 C83 1.363 . S
C1492 N896 1.324 . S
C1497 C710 1.365 . S
C1502 N929 1.326 . S
C1507 N962 1.323 . S
C1512 C215 1.363 . S
C1517 C776 1.365 . S
C1522 N995 1.326 . S
C1527 C149 1.364 . S
C1532 N1028 1.324 . S
C1537 C8 1.173 . S
C1542 C206 1.173 . S
C1547 C239 1.170 . S
C1552 C41 1.170 . S
C1557 C74 1.173 . S
C1562 C140 1.173 . S
C1567 C107 1.170 . S
C1572 C173 1.170 . S
C1577 C470 1.170 . S
C1582 C272 1.170 . S
C1587 C503 1.170 . S
C1592 C305 1.170 . S
C1597 C404 1.173 . S
C1602 C338 1.173 . S
C1607 C437 1.170 . S
C1612 C371 1.170 . S
C1617 C536 1.170 . S
C1622 C734 1.170 . S
C1627 C569 1.173 . S
C1632 C767 1.173 . S
C1637 C602 1.170 . S
C1642 C668 1.170 . S
C1647 C635 1.173 . S
C1652 C701 1.173 . S
C1657 C998 1.170 . S
C1662 C800 1.170 . S
C1667 C1031 1.170 . S
C1672 C833 1.170 . S
C1677 C866 1.173 . S
C1682 C932 1.173 . S
C1687 C899 1.173 . S
C1692 C965 1.173 . S
C1697 N14 1.787 . S
C1702 N707 1.787 . S
C1707 N47 1.786 . S
C1712 N740 1.786 . S
C1717 N80 1.787 . S
C1722 N773 1.787 . S
C1727 N113 1.787 . S
C1732 N674 1.787 . S
C1737 N641 1.786 . S
C1742 N146 1.786 . S
C1747 N179 1.786 . S
C1752 N542 1.786 . S
C1757 N575 1.786 . S
C1762 N212 1.786 . S
C1767 N245 1.786 . S
C1772 N608 1.786 . S
C1777 N971 1.786 . S
C1782 N278 1.786 . S
C1787 N311 1.786 . S
C1792 N1004 1.786 . S
C1797 N1037 1.787 . S
C1802 N344 1.787 . S
C1807 N377 1.787 . S
C1812 N938 1.787 . S
C1817 N410 1.787 . S
C1822 N905 1.787 . S
C1827 N806 1.787 . S
C1832 N443 1.787 . S
C1837 N476 1.786 . S
C1842 N839 1.786 . S
C1847 N509 1.787 . S
C1852 N872 1.787 . S
