# Generated by pormake.
# Topology utk, (3)-cn, num edge types: 1
# Building blocks:
#     Node 0, Type 0, BuildingBlock: OLANEW_clean_sbu_2, # of connection points: 3
#     Node 1, Type 0, BuildingBlock: OLANEW_clean_sbu_2, # of connection points: 3
#     Node 2, Type 0, BuildingBlock: OLANEW_clean_sbu_2, # of connection points: 3
#     Node 3, Type 0, BuildingBlock: OLANEW_clean_sbu_2, # of connection points: 3
#     Node 4, Type 0, BuildingBlock: OLANEW_clean_sbu_2, # of connection points: 3
#     Node 5, Type 0, BuildingBlock: OLANEW_clean_sbu_2, # of connection points: 3
#     Node 6, Type 0, BuildingBlock: OLANEW_clean_sbu_2, # of connection points: 3
#     Node 7, Type 0, BuildingBlock: OLANEW_clean_sbu_2, # of connection points: 3
#     Edge 8, Type (0, 0), BuildingBlock: XIVTED_clean_linker_0, # of connection points: 2
#     Edge 9, Type (0, 0), BuildingBlock: XIVTED_clean_linker_0, # of connection points: 2
#     Edge 10, Type (0, 0), BuildingBlock: XIVTED_clean_linker_0, # of connection points: 2
#     Edge 11, Type (0, 0), BuildingBlock: XIVTED_clean_linker_0, # of connection points: 2
#     Edge 12, Type (0, 0), BuildingBlock: XIVTED_clean_linker_0, # of connection points: 2
#     Edge 13, Type (0, 0), BuildingBlock: XIVTED_clean_linker_0, # of connection points: 2
#     Edge 14, Type (0, 0), BuildingBlock: XIVTED_clean_linker_0, # of connection points: 2
#     Edge 15, Type (0, 0), BuildingBlock: XIVTED_clean_linker_0, # of connection points: 2
#     Edge 16, Type (0, 0), BuildingBlock: XIVTED_clean_linker_0, # of connection points: 2
#     Edge 17, Type (0, 0), BuildingBlock: XIVTED_clean_linker_0, # of connection points: 2
#     Edge 18, Type (0, 0), BuildingBlock: XIVTED_clean_linker_0, # of connection points: 2
#     Edge 19, Type (0, 0), BuildingBlock: XIVTED_clean_linker_0, # of connection points: 2
# Relax obj value: 0.000
# Max RMSD: 0.042
# Mean RMSD: 0.042
data_MOF--net-utk--node1-OLANEW_clean_sbu_2--edge1-XIVTED_clean_linker_0
_symmetry_space_group_name_H-M    P1
_symmetry_Int_Tables_number       1
_symmetry_cell_setting            triclinic
loop_
_symmetry_equiv_pos_as_xyz
'x, y, z'
_cell_length_a     45.243386
_cell_length_b     45.060985
_cell_length_c     32.641054
_cell_angle_alpha  89.387215
_cell_angle_beta   90.212995
_cell_angle_gamma 89.501262
loop_
_atom_site_label
_atom_site_type_symbol
_atom_site_fract_x
_atom_site_fract_y
_atom_site_fract_z
_atom_type_partial_charge
O0 O 0.1359 0.35963 0.19334 0.0
Cd1 Cd 0.1419 0.30714 0.17653 0.0
O2 O 0.08744 0.36014 0.18687 0.0
Cd3 Cd 0.08272 0.31585 0.16116 0.0
O4 O 0.05817 0.29119 0.11499 0.0
C5 C 0.06827 0.28943 0.07881 0.0
O6 O 0.09461 0.30016 0.07107 0.0
C7 C 0.11131 0.37335 0.19573 0.0
C8 C 0.17166 0.27674 0.23959 0.0
O9 O 0.1858 0.29125 0.21208 0.0
O10 O 0.14338 0.27632 0.23719 0.0
O11 O 0.60749 0.13186 0.44279 0.0
Cd12 Cd 0.66008 0.13578 0.42662 0.0
O13 O 0.60106 0.0879 0.4153 0.0
Cd14 Cd 0.64528 0.08089 0.39025 0.0
O15 O 0.66955 0.0548 0.34507 0.0
C16 C 0.67372 0.02733 0.35253 0.0
O17 O 0.66571 0.01655 0.38832 0.0
C18 C 0.59082 0.11015 0.43442 0.0
C19 C 0.69039 0.1651 0.48886 0.0
O20 O 0.67631 0.1796 0.46089 0.0
O21 O 0.69037 0.13669 0.48735 0.0
O22 O 0.82103 0.60637 0.69315 0.0
Cd23 Cd 0.81566 0.65918 0.6763 0.0
O24 O 0.86919 0.60446 0.6839 0.0
Cd25 Cd 0.87376 0.64883 0.65713 0.0
O26 O 0.8962 0.6737 0.60865 0.0
C27 C 0.92364 0.67868 0.61292 0.0
O28 O 0.93659 0.67111 0.64764 0.0
C29 C 0.84527 0.59189 0.6943 0.0
C30 C 0.7885 0.68943 0.74053 0.0
O31 O 0.77322 0.67554 0.71387 0.0
O32 O 0.81669 0.6893 0.73673 0.0
O33 O 0.35581 0.84148 0.95888 0.0
Cd34 Cd 0.30229 0.84788 0.95116 0.0
O35 O 0.36475 0.88289 0.92488 0.0
Cd36 Cd 0.31982 0.8938 0.9047 0.0
O37 O 0.29457 0.91997 0.85968 0.0
C38 C 0.29143 0.94768 0.86537 0.0
O39 O 0.30105 0.95899 0.89983 0.0
C40 C 0.37406 0.86047 0.94527 0.0
C41 C 0.2707 0.81252 0.00628 0.0
O42 O 0.27563 0.80385 0.96965 0.0
O43 O 0.28075 0.83782 0.01688 0.0
O44 O 0.11975 0.60805 0.25182 0.0
Cd45 Cd 0.11607 0.66174 0.26162 0.0
O46 O 0.07274 0.60209 0.26674 0.0
Cd47 Cd 0.06355 0.64685 0.28873 0.0
O48 O 0.0394 0.67223 0.33469 0.0
C49 C 0.05156 0.67762 0.36894 0.0
O50 O 0.07944 0.67014 0.37446 0.0
C51 C 0.09737 0.59132 0.25514 0.0
C52 C 0.1513 0.69331 0.20644 0.0
O53 O 0.16066 0.68692 0.24261 0.0
O54 O 0.12537 0.68475 0.19633 0.0
O55 O 0.36236 0.14158 0.51606 0.0
Cd56 Cd 0.31028 0.14652 0.53499 0.0
O57 O 0.36118 0.09312 0.50876 0.0
Cd58 Cd 0.31761 0.08777 0.53636 0.0
O59 O 0.29275 0.06562 0.58497 0.0
C60 C 0.29146 0.07733 0.62018 0.0
O61 O 0.30286 0.10377 0.62528 0.0
C62 C 0.37512 0.11745 0.50625 0.0
C63 C 0.27809 0.1739 0.47166 0.0
O64 O 0.29259 0.18921 0.49764 0.0
O65 O 0.27852 0.14558 0.47574 0.0
O66 O 0.82411 0.35817 0.75939 0.0
Cd67 Cd 0.82046 0.30541 0.77701 0.0
O68 O 0.87063 0.36284 0.77826 0.0
Cd69 Cd 0.87753 0.31845 0.80438 0.0
O70 O 0.90357 0.29394 0.85034 0.0
C71 C 0.93081 0.28932 0.84312 0.0
O72 O 0.94136 0.29702 0.80712 0.0
C73 C 0.84707 0.37401 0.76308 0.0
C74 C 0.79204 0.2742 0.71486 0.0
O75 O 0.77726 0.28845 0.74179 0.0
O76 O 0.82032 0.27451 0.71732 0.0
O77 O 0.60331 0.82334 0.01915 0.0
Cd78 Cd 0.65553 0.81747 0.03753 0.0
O79 O 0.60636 0.87121 0.00599 0.0
Cd80 Cd 0.64989 0.87667 0.03403 0.0
O81 O 0.67365 0.90115 0.08116 0.0
C82 C 0.67488 0.89081 0.11751 0.0
O83 O 0.66414 0.8643 0.12497 0.0
C84 C 0.59147 0.8474 0.00635 0.0
C85 C 0.68621 0.78939 0.97446 0.0
O86 O 0.67187 0.77441 0.00128 0.0
O87 O 0.68637 0.81772 0.97761 0.0
H88 H 0.15782 0.41131 0.20734 0.0
H89 H 0.05285 0.55079 0.2539 0.0
H90 H 0.06248 0.40798 0.20941 0.0
H91 H 0.14711 0.55839 0.23693 0.0
H92 H 0.05672 0.4978 0.24121 0.0
H93 H 0.15508 0.46442 0.22227 0.0
C94 C 0.13633 0.42166 0.21116 0.0
C95 C 0.11033 0.40511 0.20702 0.0
C96 C 0.07659 0.511 0.24019 0.0
C97 C 0.10708 0.46587 0.22396 0.0
C98 C 0.07441 0.54135 0.24745 0.0
C99 C 0.09971 0.55917 0.24645 0.0
C100 C 0.10429 0.49815 0.23198 0.0
C101 C 0.12701 0.54555 0.2379 0.0
C102 C 0.13479 0.45201 0.21952 0.0
C103 C 0.08312 0.41978 0.2122 0.0
N104 N 0.1286 0.51582 0.23106 0.0
N105 N 0.08223 0.44925 0.22035 0.0
H106 H 0.55015 0.06597 0.42648 0.0
H107 H 0.41381 0.16407 0.50534 0.0
H108 H 0.55902 0.15624 0.46755 0.0
H109 H 0.40834 0.07054 0.47915 0.0
H110 H 0.46635 0.1626 0.48804 0.0
H111 H 0.49764 0.0681 0.44273 0.0
C112 C 0.54109 0.08625 0.43901 0.0
C113 C 0.55911 0.11097 0.44566 0.0
C114 C 0.45363 0.14243 0.48603 0.0
C115 C 0.49874 0.11359 0.46417 0.0
C116 C 0.42358 0.14326 0.49575 0.0
C117 C 0.40658 0.11737 0.49377 0.0
C118 C 0.46678 0.11555 0.47407 0.0
C119 C 0.42052 0.09105 0.48122 0.0
C120 C 0.51105 0.08744 0.44829 0.0
C121 C 0.54603 0.13662 0.462 0.0
N122 N 0.44976 0.09082 0.47188 0.0
N123 N 0.51663 0.13729 0.47059 0.0
H124 H 0.89345 0.55579 0.70722 0.0
H125 H 0.79905 0.40802 0.73973 0.0
H126 H 0.79801 0.55516 0.70745 0.0
H127 H 0.89325 0.41278 0.76 0.0
H128 H 0.79826 0.46121 0.72361 0.0
H129 H 0.89378 0.50278 0.72314 0.0
C130 C 0.87253 0.54455 0.71075 0.0
C131 C 0.84565 0.56002 0.70598 0.0
C132 C 0.81909 0.45057 0.73156 0.0
C133 C 0.8459 0.4991 0.72395 0.0
C134 C 0.81958 0.42018 0.7406 0.0
C135 C 0.84625 0.40587 0.7513 0.0
C136 C 0.84547 0.46675 0.73298 0.0
C137 C 0.87215 0.42282 0.75202 0.0
C138 C 0.87275 0.51423 0.71985 0.0
C139 C 0.81926 0.54419 0.71096 0.0
N140 N 0.8711 0.4523 0.74298 0.0
N141 N 0.82005 0.51457 0.7195 0.0
H142 H 0.56081 0.89342 0.97049 0.0
H143 H 0.40352 0.81399 -0.01663 0.0
H144 H 0.55014 0.80338 0.01417 0.0
H145 H 0.41802 0.89895 0.92471 0.0
H146 H 0.45683 0.80953 -0.00401 0.0
H147 H 0.50824 0.89563 0.95414 0.0
C148 C 0.54745 0.87403 0.97647 0.0
C149 C 0.55996 0.84819 -0.00616 0.0
C150 C 0.44829 0.82908 -0.01976 0.0
C151 C 0.49948 0.85066 0.97541 0.0
C152 C 0.41786 0.83168 0.97312 0.0
C153 C 0.40621 0.85692 0.95302 0.0
C154 C 0.46716 0.85196 0.96739 0.0
C155 C 0.4259 0.87909 0.94034 0.0
C156 C 0.51737 0.87531 0.96711 0.0
C157 C 0.54148 0.82375 0.00079 0.0
N158 N 0.45531 0.87613 0.94785 0.0
N159 N 0.51212 0.82565 -0.00822 0.0
H160 H 0.22791 0.28644 0.26667 0.0
H161 H 0.23327 0.15127 0.42508 0.0
H162 H 0.1516 0.23198 0.28944 0.0
H163 H 0.28588 0.22981 0.44062 0.0
H164 H 0.2069 0.17612 0.36831 0.0
H165 H 0.25365 0.26127 0.32347 0.0
C166 C 0.21662 0.2691 0.28351 0.0
C167 C 0.18755 0.26131 0.2734 0.0
C168 C 0.22418 0.18786 0.38429 0.0
C169 C 0.21698 0.2323 0.33803 0.0
C170 C 0.23929 0.1737 0.41651 0.0
C171 C 0.26174 0.18855 0.43761 0.0
C172 C 0.23205 0.21679 0.37257 0.0
C173 C 0.26861 0.21762 0.42532 0.0
C174 C 0.23127 0.25488 0.316 0.0
C175 C 0.17395 0.23875 0.29636 0.0
N176 N 0.25398 0.23071 0.39338 0.0
N177 N 0.18886 0.22486 0.32747 0.0
H178 H 0.73503 0.144 0.53834 0.0
H179 H 0.73568 0.28273 0.68646 0.0
H180 H 0.68095 0.22176 0.51515 0.0
H181 H 0.81382 0.229 0.66797 0.0
H182 H 0.71104 0.25613 0.63106 0.0
H183 H 0.76023 0.17052 0.59351 0.0
C184 C 0.72843 0.16661 0.54491 0.0
C185 C 0.70592 0.18075 0.52211 0.0
C186 C 0.73359 0.25022 0.63916 0.0
C187 C 0.73428 0.21092 0.58534 0.0
C188 C 0.74761 0.26526 0.67084 0.0
C189 C 0.77686 0.25808 0.68174 0.0
C190 C 0.74869 0.22741 0.61883 0.0
C191 C 0.7913 0.23533 0.66038 0.0
C192 C 0.74288 0.18173 0.57622 0.0
C193 C 0.69829 0.2101 0.53183 0.0
N194 N 0.77699 0.22062 0.63011 0.0
N195 N 0.71227 0.22414 0.56295 0.0
H196 H 0.81097 0.73325 0.78885 0.0
H197 H 0.67698 0.73352 0.94571 0.0
H198 H 0.73304 0.68037 0.77073 0.0
H199 H 0.73055 0.8111 0.92593 0.0
H200 H 0.70205 0.70932 0.88854 0.0
H201 H 0.78632 0.758 0.84617 0.0
C202 C 0.78872 0.72682 0.79697 0.0
C203 C 0.77398 0.70478 0.77497 0.0
C204 C 0.70828 0.73164 0.89676 0.0
C205 C 0.74597 0.73261 0.84065 0.0
C206 C 0.69411 0.74541 0.92946 0.0
C207 C 0.70167 0.77439 0.94051 0.0
C208 C 0.73058 0.74672 0.87546 0.0
C209 C 0.72396 0.78879 0.91828 0.0
C210 C 0.77467 0.74101 0.82952 0.0
C211 C 0.74514 0.69736 0.78672 0.0
N212 N 0.7378 0.77472 0.88694 0.0
N213 N 0.73216 0.71107 0.81898 0.0
H214 H 0.23545 0.76509 -0.01072 0.0
H215 H 0.20067 0.72585 0.22301 0.0
H216 H 0.26724 0.81782 0.0896 0.0
H217 H 0.14404 0.69933 0.12346 0.0
H218 H 0.23041 0.75443 0.17427 0.0
H219 H 0.20678 0.73538 0.03799 0.0
C220 C 0.23649 0.77035 0.02155 0.0
C221 C 0.25369 0.79402 0.0354 0.0
C222 C 0.21146 0.74234 0.16316 0.0
C223 C 0.22118 0.75999 0.09121 0.0
C224 C 0.19456 0.72594 0.1909 0.0
C225 C 0.16979 0.71025 0.17728 0.0
C226 C 0.20384 0.74266 0.12142 0.0
C227 C 0.16286 0.71122 0.13531 0.0
C228 C 0.22004 0.75347 0.04927 0.0
C229 C 0.25416 0.79987 0.07757 0.0
N230 N 0.17988 0.72704 0.10883 0.0
N231 N 0.23825 0.78288 0.10402 0.0
H232 H 0.00999 0.27318 0.08227 0.0
H233 H -0.00935 0.28047 0.83902 0.0
H234 H 0.08208 0.28484 -0.00251 0.0
H235 H 0.91764 0.2775 0.9237 0.0
H236 H 0.02483 0.27282 0.89626 0.0
H237 H 0.97661 0.2655 0.02437 0.0
C238 C 0.01892 0.2737 0.05153 0.0
C239 C 0.04884 0.28011 0.04473 0.0
C240 C 0.00131 0.2735 0.9023 0.0
C241 C 0.01065 0.27151 0.97828 0.0
C242 C 0.98174 0.27781 0.86958 0.0
C243 C 0.95121 0.28008 0.87659 0.0
C244 C -0.00967 0.27151 0.94242 0.0
C245 C 0.941 0.2762 0.91687 0.0
C246 C -0.0002 0.26939 0.01846 0.0
C247 C 0.05914 0.28032 0.00421 0.0
N248 N 0.96054 0.27246 0.94831 0.0
N249 N 0.04003 0.27642 0.97253 0.0
H250 H 0.68187 0.96713 0.35722 0.0
H251 H 0.69114 0.94934 0.11433 0.0
H252 H 0.6861 0.04102 0.27222 0.0
H253 H 0.67843 0.87643 0.19913 0.0
H254 H 0.69828 0.98244 0.1723 0.0
H255 H 0.68959 0.93316 0.30043 0.0
C256 C 0.68481 0.97627 0.32669 0.0
C257 C 0.6829 0.00699 0.31944 0.0
C258 C 0.69427 0.95913 0.17821 0.0
C259 C 0.69155 0.96812 0.25412 0.0
C260 C 0.69027 0.94017 0.14511 0.0
C261 C 0.68375 0.9101 0.15185 0.0
C262 C 0.69174 0.94797 0.21839 0.0
C263 C 0.68307 0.8995 0.19243 0.0
C264 C 0.68916 0.95682 0.29423 0.0
C265 C 0.68712 0.0175 0.27923 0.0
N266 N 0.68669 0.91846 0.22413 0.0
N267 N 0.69091 -0.00191 0.24803 0.0
H268 H 0.90515 0.6904 0.53413 0.0
H269 H 0.06978 0.68854 0.44743 0.0
H270 H -0.01668 0.68801 0.61039 0.0
H271 H -0.00818 0.68853 0.37077 0.0
H272 H 0.0385 0.69677 0.50709 0.0
H273 H 0.93639 0.69811 0.47409 0.0
C274 C 0.92884 0.69193 0.53837 0.0
C275 C 0.94165 0.68809 0.57734 0.0
C276 C 0.02824 0.69533 0.47716 0.0
C277 C 0.97758 0.69669 0.50863 0.0
C278 C 0.04612 0.69068 0.44302 0.0
C279 C 0.0334 0.68737 0.40407 0.0
C280 C -0.00263 0.69655 0.47242 0.0
C281 C 0.00259 0.69062 0.40025 0.0
C282 C 0.94669 0.69627 0.50402 0.0
C283 C 0.97247 0.69049 0.58093 0.0
N284 N -0.01438 0.69464 0.43405 0.0
N285 N -0.01061 0.69427 0.54698 0.0
H286 H 0.28555 0.0082 0.86566 0.0
H287 H 0.27267 0.01958 0.62205 0.0
H288 H 0.27593 0.93245 0.787 0.0
H289 H 0.28886 0.09434 0.7004 0.0
H290 H 0.2647 -0.01142 0.6828 0.0
H291 H 0.27764 0.04094 0.8065 0.0
C292 C 0.28137 -0.00158 0.83606 0.0
C293 C 0.28188 0.9675 0.83122 0.0
C294 C 0.26964 0.01185 0.6867 0.0
C295 C 0.27303 0.00494 0.76319 0.0
C296 C 0.27412 0.02962 0.65199 0.0
C297 C 0.28191 0.05954 0.65611 0.0
C298 C 0.273 0.02406 0.72584 0.0
C299 C 0.28326 0.07132 0.69572 0.0
C300 C 0.2769 0.01716 0.80224 0.0
C301 C 0.27605 0.95614 0.79214 0.0
N302 N 0.27921 0.05348 0.72903 0.0
N303 N 0.27224 0.97486 0.75955 0.0
loop_
_geom_bond_atom_site_label_1
_geom_bond_atom_site_label_2
_geom_bond_distance
_geom_bond_site_symmetry_2
_ccdc_geom_bond_type
O0 Cd1 2.300 . S
O0 C7 1.275 . S
Cd1 O0 2.300 . S
Cd1 O9 2.381 . S
Cd1 O10 2.378 . S
O2 Cd3 2.385 . S
O2 C7 1.255 . S
Cd3 O2 2.385 . S
Cd3 O4 2.317 . S
O4 Cd3 2.317 . S
O4 C5 1.232 . S
C5 O4 1.232 . S
C5 O6 1.218 . S
O6 C5 1.218 . S
C7 O0 1.275 . S
C7 O2 1.255 . S
C8 O9 1.258 . S
C8 O10 1.256 . S
O9 Cd1 2.381 . S
O9 C8 1.258 . S
O10 Cd1 2.378 . S
O10 C8 1.256 . S
O11 Cd12 2.300 . S
O11 C18 1.275 . S
Cd12 O11 2.300 . S
Cd12 O20 2.381 . S
Cd12 O21 2.378 . S
O13 Cd14 2.385 . S
O13 C18 1.255 . S
Cd14 O13 2.385 . S
Cd14 O15 2.317 . S
O15 Cd14 2.317 . S
O15 C16 1.232 . S
C16 O15 1.232 . S
C16 O17 1.218 . S
O17 C16 1.218 . S
C18 O11 1.275 . S
C18 O13 1.255 . S
C19 O20 1.258 . S
C19 O21 1.256 . S
O20 Cd12 2.381 . S
O20 C19 1.258 . S
O21 Cd12 2.378 . S
O21 C19 1.256 . S
O22 Cd23 2.300 . S
O22 C29 1.275 . S
Cd23 O22 2.300 . S
Cd23 O31 2.381 . S
Cd23 O32 2.378 . S
O24 Cd25 2.385 . S
O24 C29 1.255 . S
Cd25 O24 2.385 . S
Cd25 O26 2.317 . S
O26 Cd25 2.317 . S
O26 C27 1.232 . S
C27 O26 1.232 . S
C27 O28 1.218 . S
O28 C27 1.218 . S
C29 O22 1.275 . S
C29 O24 1.255 . S
C30 O31 1.258 . S
C30 O32 1.256 . S
O31 Cd23 2.381 . S
O31 C30 1.258 . S
O32 Cd23 2.378 . S
O32 C30 1.256 . S
O33 Cd34 2.300 . S
O33 C40 1.275 1_554 S
Cd34 O33 2.300 . S
Cd34 O42 2.381 . S
Cd34 O43 2.378 . S
O35 Cd36 2.385 . S
O35 C40 1.255 . S
Cd36 O35 2.385 . S
Cd36 O37 2.317 . S
O37 Cd36 2.317 . S
O37 C38 1.232 . S
C38 O37 1.232 . S
C38 O39 1.218 . S
O39 C38 1.218 . S
C40 O33 1.275 1_556 S
C40 O35 1.255 . S
C41 O42 1.258 . S
C41 O43 1.256 . S
O42 Cd34 2.381 . S
O42 C41 1.258 . S
O43 Cd34 2.378 . S
O43 C41 1.256 . S
O44 Cd45 2.300 . S
O44 C51 1.275 . S
Cd45 O44 2.300 . S
Cd45 O53 2.381 . S
Cd45 O54 2.378 . S
O46 Cd47 2.385 . S
O46 C51 1.255 . S
Cd47 O46 2.385 . S
Cd47 O48 2.317 . S
O48 Cd47 2.317 . S
O48 C49 1.232 . S
C49 O48 1.232 . S
C49 O50 1.218 . S
O50 C49 1.218 . S
C51 O44 1.275 . S
C51 O46 1.255 . S
C52 O53 1.258 . S
C52 O54 1.256 . S
O53 Cd45 2.381 . S
O53 C52 1.258 . S
O54 Cd45 2.378 . S
O54 C52 1.256 . S
O55 Cd56 2.300 . S
O55 C62 1.275 . S
Cd56 O55 2.300 . S
Cd56 O64 2.381 . S
Cd56 O65 2.378 . S
O57 Cd58 2.385 . S
O57 C62 1.255 . S
Cd58 O57 2.385 . S
Cd58 O59 2.317 . S
O59 Cd58 2.317 . S
O59 C60 1.232 . S
C60 O59 1.232 . S
C60 O61 1.218 . S
O61 C60 1.218 . S
C62 O55 1.275 . S
C62 O57 1.255 . S
C63 O64 1.258 . S
C63 O65 1.256 . S
O64 Cd56 2.381 . S
O64 C63 1.258 . S
O65 Cd56 2.378 . S
O65 C63 1.256 . S
O66 Cd67 2.300 . S
O66 C73 1.275 . S
Cd67 O66 2.300 . S
Cd67 O75 2.381 . S
Cd67 O76 2.378 . S
O68 Cd69 2.385 . S
O68 C73 1.255 . S
Cd69 O68 2.385 . S
Cd69 O70 2.317 . S
O70 Cd69 2.317 . S
O70 C71 1.232 . S
C71 O70 1.232 . S
C71 O72 1.218 . S
O72 C71 1.218 . S
C73 O66 1.275 . S
C73 O68 1.255 . S
C74 O75 1.258 . S
C74 O76 1.256 . S
O75 Cd67 2.381 . S
O75 C74 1.258 . S
O76 Cd67 2.378 . S
O76 C74 1.256 . S
O77 Cd78 2.300 . S
O77 C84 1.275 1_556 S
Cd78 O77 2.300 . S
Cd78 O86 2.381 . S
Cd78 O87 2.378 . S
O79 Cd80 2.385 . S
O79 C84 1.255 . S
Cd80 O79 2.385 . S
Cd80 O81 2.317 . S
O81 Cd80 2.317 . S
O81 C82 1.232 . S
C82 O81 1.232 . S
C82 O83 1.218 . S
O83 C82 1.218 . S
C84 O77 1.275 1_554 S
C84 O79 1.255 . S
C85 O86 1.258 . S
C85 O87 1.256 . S
O86 Cd78 2.381 . S
O86 C85 1.258 . S
O87 Cd78 2.378 . S
O87 C85 1.256 . S
H88 C94 0.930 . S
H89 C98 0.930 . S
H90 C103 0.929 . S
H91 C101 0.929 . S
H92 C96 0.929 . S
H93 C102 0.929 . S
C94 H88 0.930 . S
C94 C95 1.367 . S
C94 C102 1.378 . S
C95 C94 1.367 . S
C95 C103 1.433 . S
C96 H92 0.929 . S
C96 C98 1.378 . S
C96 C100 1.350 . S
C97 C100 1.463 . S
C97 C102 1.350 . S
C97 N105 1.427 . S
C98 H89 0.930 . S
C98 C96 1.378 . S
C98 C99 1.367 . S
C99 C98 1.367 . S
C99 C101 1.433 . S
C100 C96 1.350 . S
C100 C97 1.463 . S
C100 N104 1.427 . S
C101 H91 0.929 . S
C101 C99 1.433 . S
C101 N104 1.384 . S
C102 H93 0.929 . S
C102 C94 1.378 . S
C102 C97 1.350 . S
C103 H90 0.929 . S
C103 C95 1.433 . S
C103 N105 1.384 . S
N104 C100 1.427 . S
N104 C101 1.384 . S
N105 C97 1.427 . S
N105 C103 1.384 . S
H106 C112 0.930 . S
H107 C116 0.930 . S
H108 C121 0.929 . S
H109 C119 0.929 . S
H110 C114 0.929 . S
H111 C120 0.929 . S
C112 H106 0.930 . S
C112 C113 1.367 . S
C112 C120 1.378 . S
C113 C112 1.367 . S
C113 C121 1.433 . S
C114 H110 0.929 . S
C114 C116 1.378 . S
C114 C118 1.350 . S
C115 C118 1.463 . S
C115 C120 1.350 . S
C115 N123 1.427 . S
C116 H107 0.930 . S
C116 C114 1.378 . S
C116 C117 1.367 . S
C117 C116 1.367 . S
C117 C119 1.433 . S
C118 C114 1.350 . S
C118 C115 1.463 . S
C118 N122 1.427 . S
C119 H109 0.929 . S
C119 C117 1.433 . S
C119 N122 1.384 . S
C120 H111 0.929 . S
C120 C112 1.378 . S
C120 C115 1.350 . S
C121 H108 0.929 . S
C121 C113 1.433 . S
C121 N123 1.384 . S
N122 C118 1.427 . S
N122 C119 1.384 . S
N123 C115 1.427 . S
N123 C121 1.384 . S
H124 C130 0.930 . S
H125 C134 0.930 . S
H126 C139 0.929 . S
H127 C137 0.929 . S
H128 C132 0.929 . S
H129 C138 0.929 . S
C130 H124 0.930 . S
C130 C131 1.367 . S
C130 C138 1.378 . S
C131 C130 1.367 . S
C131 C139 1.433 . S
C132 H128 0.929 . S
C132 C134 1.378 . S
C132 C136 1.350 . S
C133 C136 1.463 . S
C133 C138 1.350 . S
C133 N141 1.427 . S
C134 H125 0.930 . S
C134 C132 1.378 . S
C134 C135 1.367 . S
C135 C134 1.367 . S
C135 C137 1.433 . S
C136 C132 1.350 . S
C136 C133 1.463 . S
C136 N140 1.427 . S
C137 H127 0.929 . S
C137 C135 1.433 . S
C137 N140 1.384 . S
C138 H129 0.929 . S
C138 C130 1.378 . S
C138 C133 1.350 . S
C139 H126 0.929 . S
C139 C131 1.433 . S
C139 N141 1.384 . S
N140 C136 1.427 . S
N140 C137 1.384 . S
N141 C133 1.427 . S
N141 C139 1.384 . S
H142 C148 0.930 . S
H143 C152 0.930 . S
H144 C157 0.929 . S
H145 C155 0.929 . S
H146 C150 0.927 1_554 S
H147 C156 0.927 1_556 S
C148 H142 0.930 . S
C148 C149 1.367 . S
C148 C156 1.379 . S
C149 C148 1.367 . S
C149 C157 1.433 . S
C150 H146 0.927 1_556 S
C150 C152 1.379 . S
C150 C154 1.351 . S
C151 C154 1.463 1_554 S
C151 C156 1.351 . S
C151 N159 1.427 . S
C152 H143 0.930 . S
C152 C150 1.379 . S
C152 C153 1.367 . S
C153 C152 1.367 . S
C153 C155 1.433 . S
C154 C150 1.351 . S
C154 C151 1.463 1_556 S
C154 N158 1.427 . S
C155 H145 0.929 . S
C155 C153 1.433 . S
C155 N158 1.384 . S
C156 H147 0.927 1_554 S
C156 C148 1.379 . S
C156 C151 1.351 . S
C157 H144 0.929 . S
C157 C149 1.433 . S
C157 N159 1.384 . S
N158 C154 1.427 . S
N158 C155 1.384 . S
N159 C151 1.427 . S
N159 C157 1.384 . S
H160 C166 0.930 . S
H161 C170 0.930 . S
H162 C175 0.929 . S
H163 C173 0.929 . S
H164 C168 0.929 . S
H165 C174 0.929 . S
C166 H160 0.930 . S
C166 C167 1.367 . S
C166 C174 1.378 . S
C167 C166 1.367 . S
C167 C175 1.433 . S
C168 H164 0.929 . S
C168 C170 1.378 . S
C168 C172 1.350 . S
C169 C172 1.463 . S
C169 C174 1.350 . S
C169 N177 1.427 . S
C170 H161 0.930 . S
C170 C168 1.378 . S
C170 C171 1.367 . S
C171 C170 1.367 . S
C171 C173 1.433 . S
C172 C168 1.350 . S
C172 C169 1.463 . S
C172 N176 1.427 . S
C173 H163 0.929 . S
C173 C171 1.433 . S
C173 N176 1.384 . S
C174 H165 0.929 . S
C174 C166 1.378 . S
C174 C169 1.350 . S
C175 H162 0.929 . S
C175 C167 1.433 . S
C175 N177 1.384 . S
N176 C172 1.427 . S
N176 C173 1.384 . S
N177 C169 1.427 . S
N177 C175 1.384 . S
H178 C184 0.930 . S
H179 C188 0.930 . S
H180 C193 0.929 . S
H181 C191 0.929 . S
H182 C186 0.929 . S
H183 C192 0.929 . S
C184 H178 0.930 . S
C184 C185 1.367 . S
C184 C192 1.378 . S
C185 C184 1.367 . S
C185 C193 1.433 . S
C186 H182 0.929 . S
C186 C188 1.378 . S
C186 C190 1.350 . S
C187 C190 1.463 . S
C187 C192 1.350 . S
C187 N195 1.427 . S
C188 H179 0.930 . S
C188 C186 1.378 . S
C188 C189 1.367 . S
C189 C188 1.367 . S
C189 C191 1.433 . S
C190 C186 1.350 . S
C190 C187 1.463 . S
C190 N194 1.427 . S
C191 H181 0.929 . S
C191 C189 1.433 . S
C191 N194 1.384 . S
C192 H183 0.929 . S
C192 C184 1.378 . S
C192 C187 1.350 . S
C193 H180 0.929 . S
C193 C185 1.433 . S
C193 N195 1.384 . S
N194 C190 1.427 . S
N194 C191 1.384 . S
N195 C187 1.427 . S
N195 C193 1.384 . S
H196 C202 0.930 . S
H197 C206 0.930 . S
H198 C211 0.929 . S
H199 C209 0.929 . S
H200 C204 0.929 . S
H201 C210 0.929 . S
C202 H196 0.930 . S
C202 C203 1.367 . S
C202 C210 1.378 . S
C203 C202 1.367 . S
C203 C211 1.433 . S
C204 H200 0.929 . S
C204 C206 1.378 . S
C204 C208 1.350 . S
C205 C208 1.463 . S
C205 C210 1.350 . S
C205 N213 1.427 . S
C206 H197 0.930 . S
C206 C204 1.378 . S
C206 C207 1.367 . S
C207 C206 1.367 . S
C207 C209 1.433 . S
C208 C204 1.350 . S
C208 C205 1.463 . S
C208 N212 1.427 . S
C209 H199 0.929 . S
C209 C207 1.433 . S
C209 N212 1.384 . S
C210 H201 0.929 . S
C210 C202 1.378 . S
C210 C205 1.350 . S
C211 H198 0.929 . S
C211 C203 1.433 . S
C211 N213 1.384 . S
N212 C208 1.427 . S
N212 C209 1.384 . S
N213 C205 1.427 . S
N213 C211 1.384 . S
H214 C220 0.930 . S
H215 C224 0.930 . S
H216 C229 0.929 . S
H217 C227 0.929 . S
H218 C222 0.929 . S
H219 C228 0.929 . S
C220 H214 0.930 . S
C220 C221 1.367 . S
C220 C228 1.378 . S
C221 C220 1.367 . S
C221 C229 1.433 . S
C222 H218 0.929 . S
C222 C224 1.378 . S
C222 C226 1.350 . S
C223 C226 1.463 . S
C223 C228 1.350 . S
C223 N231 1.427 . S
C224 H215 0.930 . S
C224 C222 1.378 . S
C224 C225 1.367 . S
C225 C224 1.367 . S
C225 C227 1.433 . S
C226 C222 1.350 . S
C226 C223 1.463 . S
C226 N230 1.427 . S
C227 H217 0.929 . S
C227 C225 1.433 . S
C227 N230 1.384 . S
C228 H219 0.929 . S
C228 C220 1.378 . S
C228 C223 1.350 . S
C229 H216 0.929 . S
C229 C221 1.433 . S
C229 N231 1.384 . S
N230 C226 1.427 . S
N230 C227 1.384 . S
N231 C223 1.427 . S
N231 C229 1.384 . S
H232 C238 0.930 . S
H233 C242 0.930 . S
H234 C247 0.929 . S
H235 C245 0.929 . S
H236 C240 0.902 1_455 S
H237 C246 0.902 1_655 S
C238 H232 0.930 . S
C238 C239 1.367 . S
C238 C246 1.397 . S
C239 C238 1.367 . S
C239 C247 1.433 . S
C240 H236 0.902 1_655 S
C240 C242 1.397 . S
C240 C244 1.359 . S
C241 C244 1.463 1_454 S
C241 C246 1.359 . S
C241 N249 1.427 . S
C242 H233 0.930 . S
C242 C240 1.397 . S
C242 C243 1.367 . S
C243 C242 1.367 . S
C243 C245 1.433 . S
C244 C240 1.359 . S
C244 C241 1.463 1_656 S
C244 N248 1.427 . S
C245 H235 0.929 . S
C245 C243 1.433 . S
C245 N248 1.384 . S
C246 H237 0.902 1_455 S
C246 C238 1.397 . S
C246 C241 1.359 . S
C247 H234 0.929 . S
C247 C239 1.433 . S
C247 N249 1.384 . S
N248 C244 1.427 . S
N248 C245 1.384 . S
N249 C241 1.427 . S
N249 C247 1.384 . S
H250 C256 0.930 . S
H251 C260 0.930 . S
H252 C265 0.929 . S
H253 C263 0.929 . S
H254 C258 0.929 . S
H255 C264 0.929 . S
C256 H250 0.930 . S
C256 C257 1.367 . S
C256 C264 1.378 1_545 S
C257 C256 1.367 . S
C257 C265 1.433 . S
C258 H254 0.929 . S
C258 C260 1.378 1_545 S
C258 C262 1.350 1_545 S
C259 C262 1.463 1_545 S
C259 C264 1.350 1_545 S
C259 N267 1.427 . S
C260 H251 0.930 . S
C260 C258 1.378 1_565 S
C260 C261 1.367 . S
C261 C260 1.367 . S
C261 C263 1.433 . S
C262 C258 1.350 1_565 S
C262 C259 1.463 1_565 S
C262 N266 1.427 . S
C263 H253 0.929 . S
C263 C261 1.433 . S
C263 N266 1.384 . S
C264 H255 0.929 . S
C264 C256 1.378 1_565 S
C264 C259 1.350 1_565 S
C265 H252 0.929 . S
C265 C257 1.433 . S
C265 N267 1.384 . S
N266 C262 1.427 . S
N266 C263 1.384 . S
N267 C259 1.427 . S
N267 C265 1.384 . S
H268 C274 0.930 . S
H269 C278 0.930 . S
H270 C283 0.929 . S
H271 C281 0.929 . S
H272 C276 0.929 . S
H273 C282 0.929 . S
C274 H268 0.930 . S
C274 C275 1.367 . S
C274 C282 1.378 . S
C275 C274 1.367 . S
C275 C283 1.433 . S
C276 H272 0.929 . S
C276 C278 1.378 . S
C276 C280 1.350 . S
C277 C280 1.463 1_655 S
C277 C282 1.350 . S
C277 N285 1.418 1_655 S
C278 H269 0.930 . S
C278 C276 1.378 . S
C278 C279 1.367 . S
C279 C278 1.367 . S
C279 C281 1.433 . S
C280 C276 1.350 . S
C280 C277 1.463 1_455 S
C280 N284 1.418 1_455 S
C281 H271 0.929 . S
C281 C279 1.433 . S
C281 N284 1.369 1_455 S
C282 H273 0.929 . S
C282 C274 1.378 . S
C282 C277 1.350 . S
C283 H270 0.929 . S
C283 C275 1.433 . S
C283 N285 1.369 1_655 S
N284 C280 1.418 1_655 S
N284 C281 1.369 1_655 S
N285 C277 1.418 1_455 S
N285 C283 1.369 1_455 S
H286 C292 0.930 . S
H287 C296 0.930 . S
H288 C301 0.929 . S
H289 C299 0.929 . S
H290 C294 0.929 . S
H291 C300 0.929 . S
C292 H286 0.930 . S
C292 C293 1.367 . S
C292 C300 1.378 1_565 S
C293 C292 1.367 . S
C293 C301 1.433 . S
C294 H290 0.929 . S
C294 C296 1.378 1_565 S
C294 C298 1.350 1_565 S
C295 C298 1.463 1_565 S
C295 C300 1.350 1_565 S
C295 N303 1.427 . S
C296 H287 0.930 . S
C296 C294 1.378 1_545 S
C296 C297 1.367 . S
C297 C296 1.367 . S
C297 C299 1.433 . S
C298 C294 1.350 1_545 S
C298 C295 1.463 1_545 S
C298 N302 1.427 . S
C299 H289 0.929 . S
C299 C297 1.433 . S
C299 N302 1.384 . S
C300 H291 0.929 . S
C300 C292 1.378 1_545 S
C300 C295 1.350 1_545 S
C301 H288 0.929 . S
C301 C293 1.433 . S
C301 N303 1.384 . S
N302 C298 1.427 . S
N302 C299 1.384 . S
N303 C295 1.427 . S
N303 C301 1.384 . S
C95 C7 1.489 . S
C99 C51 1.489 . S
C113 C18 1.491 . S
C117 C62 1.492 . S
C131 C29 1.495 . S
C135 C73 1.496 . S
C149 C84 1.492 . S
C153 C40 1.492 . S
C167 C8 1.517 . S
C171 C63 1.516 . S
C185 C19 1.514 . S
C189 C74 1.515 . S
C203 C30 1.514 . S
C207 C85 1.514 . S
C221 C41 1.517 . S
C225 C52 1.517 . S
C239 C5 1.342 . S
C243 C71 1.337 . S
C257 C16 1.336 . S
C261 C82 1.339 . S
C275 C27 1.357 . S
C279 C49 1.353 . S
C293 C38 1.336 . S
C297 C60 1.340 . S
