# Generated by pormake.
# Topology uki, (4)-cn, num edge types: 1
# Building blocks:
#     Node 0, Type 0, BuildingBlock: ESEHIV_clean_sbu_0, # of connection points: 4
#     Node 1, Type 0, BuildingBlock: ESEHIV_clean_sbu_0, # of connection points: 4
#     Node 2, Type 0, BuildingBlock: ESEHIV_clean_sbu_0, # of connection points: 4
#     Node 3, Type 0, BuildingBlock: ESEHIV_clean_sbu_0, # of connection points: 4
#     Node 4, Type 0, BuildingBlock: ESEHIV_clean_sbu_0, # of connection points: 4
#     Node 5, Type 0, BuildingBlock: ESEHIV_clean_sbu_0, # of connection points: 4
#     Node 6, Type 0, BuildingBlock: ESEHIV_clean_sbu_0, # of connection points: 4
#     Node 7, Type 0, BuildingBlock: ESEHIV_clean_sbu_0, # of connection points: 4
#     Node 8, Type 0, BuildingBlock: ESEHIV_clean_sbu_0, # of connection points: 4
#     Node 9, Type 0, BuildingBlock: ESEHIV_clean_sbu_0, # of connection points: 4
#     Node 10, Type 0, BuildingBlock: ESEHIV_clean_sbu_0, # of connection points: 4
#     Node 11, Type 0, BuildingBlock: ESEHIV_clean_sbu_0, # of connection points: 4
#     Node 12, Type 0, BuildingBlock: ESEHIV_clean_sbu_0, # of connection points: 4
#     Node 13, Type 0, BuildingBlock: ESEHIV_clean_sbu_0, # of connection points: 4
#     Node 14, Type 0, BuildingBlock: ESEHIV_clean_sbu_0, # of connection points: 4
#     Node 15, Type 0, BuildingBlock: ESEHIV_clean_sbu_0, # of connection points: 4
#     Edge 16, Type (0, 0), BuildingBlock: TEMPAE_clean_linker_10, # of connection points: 2
#     Edge 17, Type (0, 0), BuildingBlock: TEMPAE_clean_linker_10, # of connection points: 2
#     Edge 18, Type (0, 0), BuildingBlock: TEMPAE_clean_linker_10, # of connection points: 2
#     Edge 19, Type (0, 0), BuildingBlock: TEMPAE_clean_linker_10, # of connection points: 2
#     Edge 20, Type (0, 0), BuildingBlock: TEMPAE_clean_linker_10, # of connection points: 2
#     Edge 21, Type (0, 0), BuildingBlock: TEMPAE_clean_linker_10, # of connection points: 2
#     Edge 22, Type (0, 0), BuildingBlock: TEMPAE_clean_linker_10, # of connection points: 2
#     Edge 23, Type (0, 0), BuildingBlock: TEMPAE_clean_linker_10, # of connection points: 2
#     Edge 24, Type (0, 0), BuildingBlock: TEMPAE_clean_linker_10, # of connection points: 2
#     Edge 25, Type (0, 0), BuildingBlock: TEMPAE_clean_linker_10, # of connection points: 2
#     Edge 26, Type (0, 0), BuildingBlock: TEMPAE_clean_linker_10, # of connection points: 2
#     Edge 27, Type (0, 0), BuildingBlock: TEMPAE_clean_linker_10, # of connection points: 2
#     Edge 28, Type (0, 0), BuildingBlock: TEMPAE_clean_linker_10, # of connection points: 2
#     Edge 29, Type (0, 0), BuildingBlock: TEMPAE_clean_linker_10, # of connection points: 2
#     Edge 30, Type (0, 0), BuildingBlock: TEMPAE_clean_linker_10, # of connection points: 2
#     Edge 31, Type (0, 0), BuildingBlock: TEMPAE_clean_linker_10, # of connection points: 2
#     Edge 32, Type (0, 0), BuildingBlock: TEMPAE_clean_linker_10, # of connection points: 2
#     Edge 33, Type (0, 0), BuildingBlock: TEMPAE_clean_linker_10, # of connection points: 2
#     Edge 34, Type (0, 0), BuildingBlock: TEMPAE_clean_linker_10, # of connection points: 2
#     Edge 35, Type (0, 0), BuildingBlock: TEMPAE_clean_linker_10, # of connection points: 2
#     Edge 36, Type (0, 0), BuildingBlock: TEMPAE_clean_linker_10, # of connection points: 2
#     Edge 37, Type (0, 0), BuildingBlock: TEMPAE_clean_linker_10, # of connection points: 2
#     Edge 38, Type (0, 0), BuildingBlock: TEMPAE_clean_linker_10, # of connection points: 2
#     Edge 39, Type (0, 0), BuildingBlock: TEMPAE_clean_linker_10, # of connection points: 2
#     Edge 40, Type (0, 0), BuildingBlock: TEMPAE_clean_linker_10, # of connection points: 2
#     Edge 41, Type (0, 0), BuildingBlock: TEMPAE_clean_linker_10, # of connection points: 2
#     Edge 42, Type (0, 0), BuildingBlock: TEMPAE_clean_linker_10, # of connection points: 2
#     Edge 43, Type (0, 0), BuildingBlock: TEMPAE_clean_linker_10, # of connection points: 2
#     Edge 44, Type (0, 0), BuildingBlock: TEMPAE_clean_linker_10, # of connection points: 2
#     Edge 45, Type (0, 0), BuildingBlock: TEMPAE_clean_linker_10, # of connection points: 2
#     Edge 46, Type (0, 0), BuildingBlock: TEMPAE_clean_linker_10, # of connection points: 2
#     Edge 47, Type (0, 0), BuildingBlock: TEMPAE_clean_linker_10, # of connection points: 2
# Relax obj value: 0.104
# Max RMSD: 0.190
# Mean RMSD: 0.171
data_MOF--net-uki--node1-ESEHIV_clean_sbu_0--edge1-TEMPAE_clean_linker_10
_symmetry_space_group_name_H-M    P1
_symmetry_Int_Tables_number       1
_symmetry_cell_setting            triclinic
loop_
_symmetry_equiv_pos_as_xyz
'x, y, z'
_cell_length_a     36.173116
_cell_length_b     29.841504
_cell_length_c     86.696972
_cell_angle_alpha  89.985947
_cell_angle_beta   90.07446
_cell_angle_gamma 89.772308
loop_
_atom_site_label
_atom_site_type_symbol
_atom_site_fract_x
_atom_site_fract_y
_atom_site_fract_z
_atom_type_partial_charge
Cu0 Cu 0.1072 0.26428 0.31205 0.0
N1 N 0.06284 0.29534 0.30779 0.0
N2 N 0.01855 0.32999 0.2939 0.0
C3 C 0.05481 0.31859 0.29478 0.0
C4 C 1.00339 0.31339 0.30693 0.0
C5 C 0.03056 0.29192 0.31536 0.0
O6 O 0.14448 0.29374 0.29899 0.0
C7 C 0.08145 0.17515 0.31738 0.0
O8 O 0.0771 0.19087 0.33141 0.0
H9 H 0.0747 0.32458 0.2857 0.0
H10 H 0.02658 0.27305 0.32587 0.0
N11 N 0.12254 0.27018 0.333 0.0
N12 N 0.15805 0.27296 0.35444 0.0
C13 C 0.15642 0.26219 0.33921 0.0
C14 C 0.10217 0.28632 0.34473 0.0
C15 C 0.12371 0.28792 0.35784 0.0
C16 C 0.15683 0.33168 0.30352 0.0
O17 O 0.14572 0.34754 0.31686 0.0
H18 H 0.1797 0.25012 0.33255 0.0
H19 H 0.07368 0.29697 0.34381 0.0
O20 O 0.09612 0.20055 0.30717 0.0
H21 H 0.97445 0.31549 0.31 0.0
H22 H 0.11456 0.29933 0.36906 0.0
Cu23 Cu 0.25503 0.93859 0.70563 0.0
N24 N 0.20625 0.93595 0.71285 0.0
N25 N 0.14549 0.9479 0.71584 0.0
C26 C 0.17641 0.95934 0.70799 0.0
C27 C 0.15657 0.91638 0.72605 0.0
C28 C 0.1939 0.90915 0.72419 0.0
O29 O 0.25699 0.91809 0.68381 0.0
C30 C 0.30667 1.0095 0.71232 0.0
O31 O 0.33215 0.97988 0.70866 0.0
H32 H 0.17734 0.98368 0.69875 0.0
H33 H 0.21094 0.88594 0.73066 0.0
N34 N 0.28339 0.89814 0.71726 0.0
N35 N 0.32265 0.8693 0.73465 0.0
C36 C 0.30454 0.90642 0.72977 0.0
C37 C 0.2879 0.85424 0.71427 0.0
C38 C 0.31202 0.83637 0.72496 0.0
C39 C 0.23395 0.88833 0.67928 0.0
O40 O 0.20863 0.8746 0.68901 0.0
H41 H 0.30686 0.93905 0.73512 0.0
H42 H 0.27512 0.83666 0.70476 0.0
O43 O 0.27273 0.99957 0.71022 0.0
H44 H 0.1391 0.90013 0.73447 0.0
H45 H 0.32203 0.80214 0.7252 0.0
Cu46 Cu 0.92808 0.78737 0.31155 0.0
N47 N 0.97128 0.75367 0.30717 0.0
N48 N 1.01485 0.71753 0.29334 0.0
C49 C 0.97929 0.73208 0.29382 0.0
C50 C 0.02948 0.73014 0.30701 0.0
C51 C 1.00281 0.75249 0.31541 0.0
O52 O 0.88964 0.76144 0.29812 0.0
C53 C 0.96878 0.86526 0.30114 0.0
O54 O 0.98798 0.83544 0.29338 0.0
H55 H 0.96008 0.72967 0.28428 0.0
H56 H 1.00679 0.76889 0.3264 0.0
N57 N 0.91214 0.77937 0.33231 0.0
N58 N 0.87571 0.77512 0.35338 0.0
C59 C 0.87892 0.7901 0.33864 0.0
C60 C 0.9304 0.75719 0.34351 0.0
C61 C 0.90824 0.75459 0.3564 0.0
C62 C 0.87698 0.72323 0.30222 0.0
O63 O 0.8891 0.70522 0.3151 0.0
H64 H 0.85698 0.80678 0.33234 0.0
H65 H 0.95754 0.74243 0.34228 0.0
O66 O 0.94017 0.8522 0.30859 0.0
H67 H 0.05782 0.72476 0.31059 0.0
H68 H 0.91546 0.73824 0.36714 0.0
Cu69 Cu 0.78013 0.08703 0.70375 0.0
N70 N 0.829 0.0918 0.7107 0.0
N71 N 0.88937 0.07909 0.71462 0.0
C72 C 0.85845 0.06598 0.70706 0.0
C73 C 0.8788 0.11456 0.72325 0.0
C74 C 0.84172 0.12227 0.72081 0.0
O75 O 0.78047 0.10293 0.68154 0.0
C76 C 0.72889 1.01659 0.71209 0.0
O77 O 0.70306 0.04475 0.70755 0.0
H78 H 0.85703 0.03771 0.69927 0.0
H79 H 0.82512 0.14827 0.72609 0.0
N80 N 0.75252 0.13066 0.71432 0.0
N81 N 0.71359 0.16476 0.73063 0.0
C82 C 0.72899 0.12543 0.72624 0.0
C83 C 0.75248 0.17488 0.71127 0.0
C84 C 0.72848 0.19595 0.72125 0.0
C85 C 0.75371 0.12341 0.67491 0.0
O86 O 0.72219 0.12725 0.68232 0.0
H87 H 0.72346 0.09355 0.73169 0.0
H88 H 0.76849 0.19057 0.70224 0.0
O89 O 0.76273 0.0269 0.70994 0.0
H90 H 0.89666 0.13394 0.7307 0.0
H91 H 0.72177 0.23133 0.72131 0.0
Cu92 Cu 0.09534 0.29193 0.9746 0.0
N93 N 0.05198 0.25887 0.97877 0.0
N94 N 1.00949 0.21799 0.99148 0.0
C95 C 0.04587 0.22802 0.98995 0.0
C96 C 0.99229 0.24335 0.98071 0.0
C97 C 0.01833 0.26843 0.97302 0.0
O98 O 0.13608 0.26253 0.98579 0.0
C99 C 0.08806 0.38911 0.97226 0.0
O100 O 0.10805 0.38506 0.9597 0.0
H101 H 0.06748 0.21429 0.99716 0.0
H102 H 1.01285 0.294 0.96447 0.0
N103 N 0.10749 0.28897 0.95334 0.0
N104 N 0.13947 0.28983 0.93097 0.0
C105 C 0.14068 0.29601 0.94652 0.0
C106 C 0.08462 0.27766 0.94177 0.0
C107 C 0.10402 0.27811 0.9281 0.0
C108 C 0.13684 0.25549 1.00029 0.0
O109 O 0.11154 0.27445 1.00901 0.0
H110 H 0.16511 0.30566 0.95289 0.0
H111 H 0.05584 0.26897 0.94317 0.0
O112 O 0.0825 0.35441 0.9806 0.0
H113 H 0.9627 0.24592 0.97908 0.0
H114 H 0.09272 0.2693 0.91696 0.0
Cu115 Cu 0.27836 0.97665 0.08525 0.0
N116 N 0.31533 1.00998 0.09555 0.0
N117 N 0.37363 0.0288 0.10184 0.0
C118 C 0.35165 1.00263 0.09302 0.0
C119 C 0.34983 0.05389 0.11027 0.0
C120 C 0.31394 0.04219 0.1064 0.0
O121 O 0.28614 0.91459 0.09286 0.0
C122 C 0.2858 0.03561 0.06075 0.0
O123 O 0.29359 0.06143 0.07255 0.0
H124 H 0.36155 0.97848 0.08468 0.0
H125 H 0.28875 0.05576 0.11126 0.0
N126 N 0.22791 0.98861 0.089 0.0
N127 N 0.16908 0.97732 0.08138 0.0
C128 C 0.20372 0.98834 0.07708 0.0
C129 C 0.20739 0.9781 0.10144 0.0
C130 C 0.17121 0.97111 0.09678 0.0
C131 C 0.28984 0.91231 0.10758 0.0
O132 O 0.28806 0.94948 0.11563 0.0
H133 H 0.21227 0.98952 0.06517 0.0
H134 H 0.21847 0.97063 0.11274 0.0
O135 O 0.28183 0.99345 0.06316 0.0
H136 H 0.3576 0.07842 0.11886 0.0
H137 H 0.14903 0.95856 0.10393 0.0
Cu138 Cu 0.93069 0.77656 0.97686 0.0
N139 N 0.97457 0.80707 0.98201 0.0
N140 N 0.01745 0.84155 0.99658 0.0
C141 C 0.98154 0.82913 0.99534 0.0
C142 C 0.03345 0.82673 0.98345 0.0
C143 C 1.00718 0.80528 0.97462 0.0
O144 O 0.89223 0.80605 0.98941 0.0
C145 C 0.94572 0.68255 0.97116 0.0
O146 O 0.93812 0.69306 0.95679 0.0
H147 H 0.96109 0.83376 1.0043 0.0
H148 H 1.01201 0.78774 0.96389 0.0
N149 N 0.91764 0.7839 0.95571 0.0
N150 N 0.88577 0.78337 0.93331 0.0
C151 C 0.88529 0.77355 0.94862 0.0
C152 C 0.93891 0.80137 0.94452 0.0
C153 C 0.91958 0.80094 0.93081 0.0
C154 C 0.88331 0.8459 0.98535 0.0
O155 O 0.89871 0.86281 0.97294 0.0
H156 H 0.86211 0.75853 0.95454 0.0
H157 H 0.96654 0.81405 0.94617 0.0
O158 O 0.94166 0.7125 0.98162 0.0
H159 H 0.06236 0.83016 0.9805 0.0
H160 H 0.92955 0.81339 0.91986 0.0
Cu161 Cu 0.74714 0.08929 0.08249 0.0
N162 N 0.7105 0.05381 0.09188 0.0
N163 N 0.65291 0.03361 0.0986 0.0
C164 C 0.67402 0.06292 0.09066 0.0
C165 C 0.67731 1.00509 0.10525 0.0
C166 C 0.71279 1.0176 0.10109 0.0
O167 O 0.74408 0.14741 0.09325 0.0
C168 C 0.73067 0.04806 0.05417 0.0
O169 O 0.70852 0.02306 0.06246 0.0
H170 H 0.66327 0.09098 0.08411 0.0
H171 H 0.73833 1.00155 0.10456 0.0
N172 N 0.79658 0.07096 0.08398 0.0
N173 N 0.85333 0.07503 0.07336 0.0
C174 C 0.8226 0.09766 0.07777 0.0
C175 C 0.81128 0.02952 0.08368 0.0
C176 C 0.84635 0.03198 0.07731 0.0
C177 C 0.75364 0.14437 0.10744 0.0
O178 O 0.76478 0.1051 0.11255 0.0
H179 H 0.81662 0.13196 0.07455 0.0
H180 H 0.79615 0.99916 0.08612 0.0
O181 O 0.74257 0.08475 0.05996 0.0
H182 H 0.67009 0.9768 0.11244 0.0
H183 H 0.86383 1.00353 0.07467 0.0
Cu184 Cu 0.62145 0.73902 0.81461 0.0
N185 N 0.57952 0.77531 0.81714 0.0
N186 N 0.52796 0.81111 0.80955 0.0
C187 C 0.56291 0.79895 0.80582 0.0
C188 C 0.5231 0.79574 0.82408 0.0
C189 C 0.55482 0.77363 0.82869 0.0
O190 O 0.65275 0.76973 0.79924 0.0
C191 C 0.57148 0.67195 0.80243 0.0
O192 O 0.55332 0.70651 0.79687 0.0
H193 H 0.57523 0.80359 0.79459 0.0
H194 H 0.55835 0.75425 0.83914 0.0
N195 N 0.64563 0.73187 0.83388 0.0
N196 N 0.68445 0.73187 0.85424 0.0
C197 C 0.6765 0.75008 0.84022 0.0
C198 C 0.63384 0.70183 0.84432 0.0
C199 C 0.65747 0.70168 0.85675 0.0
C200 C 0.64686 0.768 0.78471 0.0
O201 O 0.62177 0.74015 0.77948 0.0
H202 H 0.69329 0.77507 0.83453 0.0
H203 H 0.60975 0.68088 0.84286 0.0
O204 O 0.60286 0.67849 0.8089 0.0
H205 H 0.49739 0.79668 0.83044 0.0
H206 H 0.65493 0.68087 0.86692 0.0
Cu207 Cu 0.74893 0.46624 0.20625 0.0
N208 N 0.71331 0.49917 0.19493 0.0
N209 N 0.65577 0.51868 0.18748 0.0
C210 C 0.67676 0.49093 0.19624 0.0
C211 C 0.68049 0.54542 0.18027 0.0
C212 C 0.71589 0.53329 0.18486 0.0
O213 O 0.74431 0.40458 0.19808 0.0
C214 C 0.73133 0.52063 0.23185 0.0
O215 O 0.71469 0.54487 0.22128 0.0
H216 H 0.66592 0.46564 0.20391 0.0
H217 H 0.74155 0.5484 0.18119 0.0
N218 N 0.79975 0.47967 0.20447 0.0
N219 N 0.8583 0.47129 0.21282 0.0
C220 C 0.82224 0.47203 0.21666 0.0
C221 C 0.82278 0.48423 0.19235 0.0
C222 C 0.85892 0.47871 0.19747 0.0
C223 C 0.74983 0.40332 0.18347 0.0
O224 O 0.75618 0.44118 0.17626 0.0
H225 H 0.81219 0.4623 0.2279 0.0
H226 H 0.81411 0.48797 0.18048 0.0
O227 O 0.74191 0.48084 0.22833 0.0
H228 H 0.67369 0.57182 0.17219 0.0
H229 H 0.8835 0.47792 0.19036 0.0
Cu230 Cu 0.40914 0.29124 0.81387 0.0
N231 N 0.4566 0.26582 0.81395 0.0
N232 N 0.51029 0.23835 0.80509 0.0
C233 C 0.47458 0.24806 0.80177 0.0
C234 C 0.51474 0.25037 0.82 0.0
C235 C 0.48173 0.26746 0.82538 0.0
O236 O 0.38109 0.25857 0.79799 0.0
C237 C 0.43296 0.37998 0.81972 0.0
O238 O 0.43628 0.36425 0.83381 0.0
H239 H 0.46194 0.2435 0.79059 0.0
H240 H 0.47682 0.28185 0.83664 0.0
N241 N 0.38669 0.28041 0.83332 0.0
N242 N 0.34746 0.27569 0.85342 0.0
C243 C 0.35599 0.29768 0.84016 0.0
C244 C 0.39761 0.24683 0.84265 0.0
C245 C 0.37382 0.24393 0.85494 0.0
C246 C 0.3852 0.26296 0.78344 0.0
O247 O 0.40679 0.29487 0.77824 0.0
H248 H 0.33937 0.32428 0.8352 0.0
H249 H 0.42067 0.22467 0.84038 0.0
O250 O 0.41835 0.35504 0.80941 0.0
H251 H 0.54046 0.24915 0.82637 0.0
H252 H 0.37544 0.21966 0.86421 0.0
Cu253 Cu 0.28196 0.58745 0.20435 0.0
N254 N 0.31839 0.55243 0.19421 0.0
N255 N 0.3761 0.53112 0.18777 0.0
C256 C 0.35497 0.559 0.19637 0.0
C257 C 0.3516 0.50595 0.1798 0.0
C258 C 0.31608 0.51906 0.18382 0.0
O259 O 0.28928 0.64865 0.19594 0.0
C260 C 0.29216 0.5321 0.22993 0.0
O261 O 0.30122 0.50459 0.21875 0.0
H262 H 0.36576 0.58452 0.20399 0.0
H263 H 0.29048 0.50545 0.17942 0.0
N264 N 0.23126 0.57554 0.20112 0.0
N265 N 0.17262 0.58686 0.20907 0.0
C266 C 0.20752 0.57596 0.21318 0.0
C267 C 0.21015 0.58591 0.18879 0.0
C268 C 0.1741 0.59292 0.19365 0.0
C269 C 0.29255 0.64962 0.18119 0.0
O270 O 0.29088 0.61172 0.17356 0.0
H271 H 0.21652 0.57484 0.22502 0.0
H272 H 0.22072 0.59323 0.17742 0.0
O273 O 0.28653 0.57352 0.22664 0.0
H274 H 0.35873 0.47957 0.17176 0.0
H275 H 0.15154 0.6053 0.18661 0.0
Cu276 Cu 0.60774 0.7728 0.46906 0.0
N277 N 0.56472 0.73834 0.47331 0.0
N278 N 0.52097 0.70013 0.4863 0.0
C279 C 0.55385 0.7217 0.48711 0.0
C280 C 0.51082 0.7034 0.47135 0.0
C281 C 0.53753 0.7269 0.46346 0.0
O282 O 0.64783 0.74363 0.48086 0.0
C283 C 0.56368 0.85236 0.47041 0.0
O284 O 0.53999 0.82525 0.46381 0.0
H285 H 0.56914 0.72643 0.49766 0.0
H286 H 0.53644 0.73621 0.45142 0.0
N287 N 0.62313 0.76592 0.44819 0.0
N288 N 0.65877 0.76643 0.42676 0.0
C289 C 0.6521 0.78527 0.4408 0.0
C290 C 0.61176 0.73338 0.43858 0.0
C291 C 0.63314 0.73386 0.42548 0.0
C292 C 0.65075 0.73914 0.49543 0.0
O293 O 0.62874 0.76234 0.50448 0.0
H294 H 0.66877 0.81141 0.4459 0.0
H295 H 0.59111 0.70862 0.44129 0.0
O296 O 0.59606 0.83721 0.47367 0.0
H297 H 0.48577 0.69 0.46636 0.0
H298 H 0.63128 0.70985 0.41616 0.0
Cu299 Cu 0.7835 0.43839 0.5766 0.0
N300 N 0.82004 0.47086 0.5876 0.0
N301 N 0.87714 0.49499 0.59373 0.0
C302 C 0.85663 0.46791 0.58459 0.0
C303 C 0.85217 0.51574 0.60292 0.0
C304 C 0.81709 0.50091 0.59911 0.0
O305 O 0.78974 0.37455 0.58293 0.0
C306 C 0.78751 0.50276 0.55391 0.0
O307 O 0.791 0.52618 0.56663 0.0
H308 H 0.86787 0.44591 0.57584 0.0
H309 H 0.79129 0.51157 0.60425 0.0
N310 N 0.73315 0.45032 0.58049 0.0
N311 N 0.67388 0.44156 0.57316 0.0
C312 C 0.70884 0.44983 0.56864 0.0
C313 C 0.71251 0.44246 0.59313 0.0
C314 C 0.67598 0.43699 0.58863 0.0
C315 C 0.79182 0.36973 0.59763 0.0
O316 O 0.79123 0.40606 0.60616 0.0
H317 H 0.71727 0.44927 0.55671 0.0
H318 H 0.72348 0.43632 0.60454 0.0
O319 O 0.78676 0.45982 0.55496 0.0
H320 H 0.85857 0.54058 0.6116 0.0
H321 H 0.65334 0.42699 0.59601 0.0
Cu322 Cu 0.42612 0.25096 0.47059 0.0
N323 N 0.47102 0.27986 0.47527 0.0
N324 N 0.51536 0.31275 0.48947 0.0
C325 C 0.47907 0.30208 0.48845 0.0
C326 C 0.53054 0.29677 0.47633 0.0
C327 C 0.50332 0.27636 0.4677 0.0
O328 O 0.38922 0.28065 0.48399 0.0
C329 C 0.45809 0.16877 0.48299 0.0
O330 O 0.47142 0.19497 0.49381 0.0
H331 H 0.45909 0.30786 0.49753 0.0
H332 H 0.50724 0.25827 0.45702 0.0
N333 N 0.41096 0.26058 0.44982 0.0
N334 N 0.37553 0.26659 0.42843 0.0
C335 C 0.37674 0.25541 0.44363 0.0
C336 C 0.43201 0.27531 0.4381 0.0
C337 C 0.41048 0.27896 0.42502 0.0
C338 C 0.38165 0.32127 0.48031 0.0
O339 O 0.39748 0.33821 0.468 0.0
H340 H 0.35307 0.24459 0.45026 0.0
H341 H 0.46103 0.28327 0.43898 0.0
O342 O 0.43579 0.18552 0.47301 0.0
H343 H 0.55948 0.29865 0.47328 0.0
H344 H 0.42013 0.28964 0.41381 0.0
Cu345 Cu 0.24915 0.58755 0.57488 0.0
N346 N 0.21234 0.5546 0.58538 0.0
N347 N 0.15537 0.53128 0.59203 0.0
C348 C 0.1755 0.56001 0.58335 0.0
C349 C 0.18085 0.50713 0.59993 0.0
C350 C 0.21579 0.52158 0.59584 0.0
O351 O 0.24606 0.6495 0.58302 0.0
C352 C 0.23744 0.53407 0.54871 0.0
O353 O 0.21884 0.5096 0.55856 0.0
H354 H 0.16383 0.58389 0.57529 0.0
H355 H 0.24183 0.50878 0.60015 0.0
N356 N 0.29835 0.57018 0.578 0.0
N357 N 0.35618 0.5726 0.5685 0.0
C358 C 0.32531 0.59607 0.57207 0.0
C359 C 0.31272 0.52855 0.5784 0.0
C360 C 0.34843 0.52999 0.57269 0.0
C361 C 0.25422 0.65093 0.59741 0.0
O362 O 0.26324 0.613 0.60417 0.0
H363 H 0.3202 0.63012 0.5683 0.0
H364 H 0.29698 0.49857 0.58074 0.0
O365 O 0.24686 0.57383 0.55265 0.0
H366 H 0.17482 0.48101 0.6082 0.0
H367 H 0.36594 0.50119 0.57055 0.0
C368 C 0.17727 0.36111 0.27768 0.0
C369 C 0.18112 0.36012 0.29376 0.0
C370 C 0.19708 0.39224 0.26868 0.0
C371 C 0.22212 0.42233 0.27586 0.0
C372 C 0.22686 0.42041 0.29206 0.0
C373 C 0.20596 0.38988 0.3008 0.0
C374 C 0.19064 0.39357 0.25148 0.0
C375 C 0.25398 0.45066 0.30019 0.0
C376 C 0.29501 0.46916 0.2487 0.0
C377 C 0.28003 0.51108 0.24466 0.0
C378 C 0.27761 0.44112 0.25948 0.0
C379 C 0.24393 0.45486 0.26632 0.0
C380 C 0.23017 0.49859 0.26322 0.0
C381 C 0.24867 0.52646 0.25257 0.0
C382 C 0.29413 0.39556 0.26278 0.0
C383 C 0.19457 0.51481 0.27035 0.0
H384 H 0.15769 0.33876 0.2722 0.0
H385 H 0.20907 0.3893 0.31324 0.0
H386 H 0.1814 0.42761 0.24798 0.0
H387 H 0.21686 0.38646 0.24531 0.0
H388 H 0.16956 0.36892 0.24769 0.0
H389 H 0.25556 0.44374 0.31277 0.0
H390 H 0.28196 0.44642 0.29516 0.0
H391 H 0.24586 0.4862 0.29852 0.0
H392 H 0.31943 0.45707 0.24274 0.0
H393 H 0.23703 0.55886 0.24969 0.0
H394 H 0.27659 0.36926 0.25751 0.0
H395 H 0.29499 0.38919 0.27538 0.0
H396 H 0.32257 0.39214 0.25809 0.0
H397 H 0.17156 0.49279 0.26665 0.0
H398 H 0.18796 0.54989 0.26703 0.0
H399 H 0.19624 0.51278 0.2831 0.0
C400 C 0.5027 0.82142 0.78315 0.0
C401 C 0.49937 0.82726 0.79918 0.0
C402 C 0.47366 0.83258 0.77307 0.0
C403 C 0.44011 0.84971 0.7791 0.0
C404 C 0.43691 0.85728 0.79516 0.0
C405 C 0.46657 0.84616 0.80499 0.0
C406 C 0.47839 0.82422 0.756 0.0
C407 C 0.40163 0.87556 0.80205 0.0
C408 C 0.37314 0.90223 0.75023 0.0
C409 C 0.35005 0.86589 0.74674 0.0
C410 C 0.40196 0.89797 0.76106 0.0
C411 C 0.4077 0.85646 0.76865 0.0
C412 C 0.38363 0.82021 0.76557 0.0
C413 C 0.35524 0.82534 0.75464 0.0
C414 C 0.42709 0.93737 0.76393 0.0
C415 C 0.38846 0.77551 0.77351 0.0
H416 H 0.52743 0.80642 0.77839 0.0
H417 H 0.46377 0.85157 0.81728 0.0
H418 H 0.45953 0.79706 0.75228 0.0
H419 H 0.4709 0.85469 0.74934 0.0
H420 H 0.50716 0.81439 0.753 0.0
H421 H 0.40445 0.88271 0.81457 0.0
H422 H 0.39319 0.9068 0.79604 0.0
H423 H 0.37904 0.85094 0.80043 0.0
H424 H 0.36958 0.93354 0.74407 0.0
H425 H 0.33716 0.79739 0.75218 0.0
H426 H 0.45525 0.92946 0.75963 0.0
H427 H 0.42948 0.94403 0.77647 0.0
H428 H 0.41713 0.96832 0.7581 0.0
H429 H 0.41538 0.76043 0.77019 0.0
H430 H 0.36614 0.75157 0.77052 0.0
H431 H 0.38885 0.7801 0.78621 0.0
C432 C 0.73206 0.58747 0.24924 0.0
C433 C 0.74655 0.54503 0.24548 0.0
C434 C 0.75076 0.61674 0.25926 0.0
C435 C 0.7851 0.60364 0.2657 0.0
C436 C 0.79863 0.55972 0.26283 0.0
C437 C 0.77912 0.53085 0.25284 0.0
C438 C 0.73455 0.66256 0.26234 0.0
C439 C 0.83488 0.54411 0.26957 0.0
C440 C 0.85359 0.69625 0.27646 0.0
C441 C 0.85089 0.69686 0.29258 0.0
C442 C 0.83246 0.666 0.26759 0.0
C443 C 0.80735 0.63644 0.27497 0.0
C444 C 0.80359 0.6383 0.29121 0.0
C445 C 0.82569 0.66795 0.29979 0.0
C446 C 0.83781 0.6647 0.25033 0.0
C447 C 0.77662 0.60845 0.29958 0.0
H448 H 0.70673 0.59876 0.24376 0.0
H449 H 0.79054 0.4982 0.25016 0.0
H450 H 0.73398 0.66939 0.27492 0.0
H451 H 0.75216 0.68853 0.25694 0.0
H452 H 0.70604 0.66607 0.2577 0.0
H453 H 0.83975 0.50782 0.26754 0.0
H454 H 0.85772 0.56339 0.26425 0.0
H455 H 0.8358 0.55051 0.28216 0.0
H456 H 0.87343 0.71794 0.27084 0.0
H457 H 0.82348 0.66824 0.31226 0.0
H458 H 0.81114 0.67127 0.24441 0.0
H459 H 0.84726 0.6308 0.24679 0.0
H460 H 0.85837 0.68968 0.24633 0.0
H461 H 0.74848 0.61265 0.29467 0.0
H462 H 0.77551 0.61572 0.31213 0.0
H463 H 0.7846 0.57282 0.298 0.0
C464 C 0.57091 0.20213 0.80018 0.0
C465 C 0.53874 0.22309 0.79458 0.0
C466 C 0.59982 0.18973 0.79021 0.0
C467 C 0.59651 0.19822 0.7742 0.0
C468 C 0.56374 0.21816 0.7684 0.0
C469 C 0.53537 0.23045 0.77863 0.0
C470 C 0.63427 0.16846 0.79686 0.0
C471 C 0.55904 0.22769 0.7514 0.0
C472 C 0.68299 0.21324 0.74989 0.0
C473 C 0.68554 0.17197 0.74222 0.0
C474 C 0.65463 0.22182 0.76054 0.0
C475 C 0.62795 0.18836 0.76359 0.0
C476 C 0.63076 0.14626 0.75613 0.0
C477 C 0.65956 0.13853 0.74556 0.0
C478 C 0.6529 0.26699 0.76837 0.0
C479 C 0.60279 0.10978 0.759 0.0
H480 H 0.57363 0.19556 0.81241 0.0
H481 H 0.51102 0.24706 0.77412 0.0
H482 H 0.64008 0.13613 0.79101 0.0
H483 H 0.65836 0.19056 0.7948 0.0
H484 H 0.63191 0.16232 0.80946 0.0
H485 H 0.53104 0.24084 0.7486 0.0
H486 H 0.57981 0.25267 0.74765 0.0
H487 H 0.56389 0.19674 0.7446 0.0
H488 H 0.70326 0.23896 0.74755 0.0
H489 H 0.66106 0.10674 0.73957 0.0
H490 H 0.65283 0.26269 0.78108 0.0
H491 H 0.62681 0.28438 0.76519 0.0
H492 H 0.6765 0.28879 0.76515 0.0
H493 H 0.60063 0.10278 0.77153 0.0
H494 H 0.60997 0.07814 0.75292 0.0
H495 H 0.57512 0.12108 0.75502 0.0
C496 C 0.24253 0.04339 0.038 0.0
C497 C 0.27299 0.05881 0.04647 0.0
C498 C 0.22263 0.07265 0.02817 0.0
C499 C 0.23361 0.11811 0.02672 0.0
C500 C 0.26664 0.13219 0.03398 0.0
C501 C 0.28587 0.10243 0.04368 0.0
C502 C 0.18829 0.05588 0.02024 0.0
C503 C 0.2799 0.17997 0.03271 0.0
C504 C 0.18868 0.1988 0.99773 0.0
C505 C 0.16263 0.2213 1.00699 0.0
C506 C 0.21155 0.16465 1.00384 0.0
C507 C 0.20833 0.15243 0.01958 0.0
C508 C 0.182 0.17493 0.02893 0.0
C509 C 0.15967 0.20896 0.02256 0.0
C510 C 0.2392 0.14173 0.99345 0.0
C511 C 0.17745 0.16313 0.04577 0.0
H512 H 0.23249 1.00972 0.03994 0.0
H513 H 0.30964 0.11456 0.05005 0.0
H514 H 0.16382 0.07432 0.02466 0.0
H515 H 0.18994 0.06251 1.00768 0.0
H516 H 0.18411 1.01941 0.02206 0.0
H517 H 0.30851 0.18396 0.03717 0.0
H518 H 0.27902 0.19157 0.02057 0.0
H519 H 0.26131 0.20214 0.03948 0.0
H520 H 0.19111 0.20769 0.98566 0.0
H521 H 0.13951 0.22564 0.02983 0.0
H522 H 0.23385 0.10517 0.99318 0.0
H523 H 0.26757 0.14633 0.99804 0.0
H524 H 0.23821 0.15483 0.98146 0.0
H525 H 0.17093 0.12699 0.04698 0.0
H526 H 0.15517 0.18292 0.0514 0.0
H527 H 0.20373 0.16924 0.05203 0.0
C528 C 0.13382 0.98575 0.05705 0.0
C529 C 0.14022 0.96271 0.07093 0.0
C530 C 0.10962 0.9687 0.04575 0.0
C531 C 0.09227 0.92673 0.04807 0.0
C532 C 0.09735 0.90431 0.06235 0.0
C533 C 0.12098 0.92269 0.07363 0.0
C534 C 0.10417 0.99469 0.03099 0.0
C535 C 0.07935 0.85965 0.06541 0.0
C536 C 0.01596 0.88957 0.02011 0.0
C537 C 0.03572 0.86264 1.00964 0.0
C538 C 0.03371 0.91033 0.03274 0.0
C539 C 0.07225 0.90421 0.03501 0.0
C540 C 0.09223 0.87689 0.02454 0.0
C541 C 0.07383 0.8565 1.01209 0.0
C542 C 1.01133 0.9396 0.04345 0.0
C543 C 0.1333 0.86929 0.02644 0.0
H544 H 0.14848 1.01675 0.05491 0.0
H545 H 0.12603 0.9044 0.08423 0.0
H546 H 0.07519 0.99257 0.02688 0.0
H547 H 0.11127 0.03057 0.03249 0.0
H548 H 0.12217 0.98026 0.02189 0.0
H549 H 0.08295 0.84864 0.07756 0.0
H550 H 0.04937 0.86136 0.06276 0.0
H551 H 0.09168 0.83387 0.05773 0.0
H552 H 0.98667 0.89508 0.0183 0.0
H553 H 0.08945 0.83523 1.00435 0.0
H554 H 0.01961 0.97509 0.04192 0.0
H555 H 0.01682 0.93052 0.05565 0.0
H556 H 0.98117 0.93689 0.04122 0.0
H557 H 0.14803 0.90177 0.02573 0.0
H558 H 0.14476 0.84642 0.01753 0.0
H559 H 0.13916 0.85484 0.03799 0.0
C560 C 0.85377 0.86894 1.01055 0.0
C561 C 0.85806 0.87492 0.99461 0.0
C562 C 0.83282 0.89954 0.01942 0.0
C563 C 0.81509 0.93653 1.01215 0.0
C564 C 0.81871 0.94201 0.99601 0.0
C565 C 0.84032 0.9115 0.9875 0.0
C566 C 0.8302 0.89281 0.03663 0.0
C567 C 0.80002 0.98042 0.98772 0.0
C568 C 0.73395 0.98857 0.03391 0.0
C569 C 0.75022 0.02585 0.04108 0.0
C570 C 0.75437 0.96021 0.02412 0.0
C571 C 0.79225 0.96898 0.02139 0.0
C572 C 0.80832 1.00804 0.02786 0.0
C573 C 0.78718 0.03596 0.03764 0.0
C574 C 0.7357 0.91976 0.01719 0.0
C575 C 0.8484 1.01919 0.02514 0.0
H576 H 0.86775 0.84119 1.01617 0.0
H577 H 0.84341 0.91644 0.97519 0.0
H578 H 0.84119 0.92271 0.04269 0.0
H579 H 0.80084 0.88914 0.04008 0.0
H580 H 0.84579 0.86277 0.04058 0.0
H581 H 0.80483 0.97945 0.97507 0.0
H582 H 0.7698 0.97963 0.98985 0.0
H583 H 0.81041 1.01278 0.99225 0.0
H584 H 0.70543 0.98042 0.03648 0.0
H585 H 0.80028 0.06421 0.04325 0.0
H586 H 0.74803 0.88874 0.02208 0.0
H587 H 0.7402 0.91884 1.00454 0.0
H588 H 0.70548 0.91945 0.01946 0.0
H589 H 0.86602 0.99595 0.03195 0.0
H590 H 0.85479 0.05412 0.0286 0.0
H591 H 0.85589 1.01487 1.01283 0.0
C592 C 0.88739 0.13862 0.06158 0.0
C593 C 0.88236 0.09217 0.06334 0.0
C594 C 0.91128 0.15624 0.05033 0.0
C595 C 0.93151 0.12694 0.04062 0.0
C596 C 0.92855 0.08006 0.04294 0.0
C597 C 0.90419 0.06328 0.05426 0.0
C598 C 0.91352 0.20645 0.04837 0.0
C599 C 0.94996 0.04749 0.03304 0.0
C600 C 0.95548 0.17518 1.00111 0.0
C601 C 0.9917 0.19094 1.00329 0.0
C602 C 0.93616 0.15312 1.01296 0.0
C603 C 0.95347 0.14569 0.02741 0.0
C604 C 0.99066 0.15936 0.02947 0.0
C605 C 1.00922 0.18195 0.01746 0.0
C606 C 0.89676 0.13874 1.01009 0.0
C607 C 1.01047 0.15158 0.04457 0.0
H608 H 0.87197 0.16159 0.06879 0.0
H609 H 0.90121 0.02742 0.05545 0.0
H610 H 0.94272 0.21754 0.04885 0.0
H611 H 0.90247 0.216 0.03688 0.0
H612 H 0.89762 0.22481 0.05734 0.0
H613 H 0.94645 1.01227 0.03689 0.0
H614 H 0.9405 0.05011 0.02089 0.0
H615 H 0.97982 0.05583 0.03323 0.0
H616 H 0.94185 0.18065 0.99015 0.0
H617 H 0.03704 0.19385 0.01944 0.0
H618 H 0.87815 0.15371 0.01887 0.0
H619 H 0.89469 0.10181 1.01116 0.0
H620 H 0.88671 0.14863 0.99846 0.0
H621 H 0.99798 0.17299 0.05365 0.0
H622 H 0.04041 0.15943 0.0438 0.0
H623 H 1.00733 0.11623 0.0483 0.0
C624 C 0.68128 0.84005 0.77947 0.0
C625 C 0.6642 0.80102 0.77392 0.0
C626 C 0.69377 0.87376 0.7693 0.0
C627 C 0.68961 0.86831 0.75313 0.0
C628 C 0.67371 0.82819 0.74746 0.0
C629 C 0.66104 0.79536 0.75788 0.0
C630 C 0.71015 0.91603 0.77592 0.0
C631 C 0.66909 0.82044 0.73036 0.0
C632 C 0.68272 0.97296 0.72771 0.0
C633 C 0.71871 0.97687 0.72176 0.0
C634 C 0.67306 0.93809 0.73789 0.0
C635 C 0.69981 0.90552 0.74219 0.0
C636 C 0.73603 0.90871 0.73601 0.0
C637 C 0.7451 0.94441 0.726 0.0
C638 C 0.63425 0.93658 0.74425 0.0
C639 C 0.76531 0.87454 0.74008 0.0
H640 H 0.6837 0.84508 0.79181 0.0
H641 H 0.64803 0.76539 0.7534 0.0
H642 H 0.73763 0.9225 0.77073 0.0
H643 H 0.69214 0.94504 0.77304 0.0
H644 H 0.7133 0.91431 0.78866 0.0
H645 H 0.65895 0.78619 0.72774 0.0
H646 H 0.64911 0.8451 0.72558 0.0
H647 H 0.69578 0.82557 0.72434 0.0
H648 H 0.66209 0.99792 0.7247 0.0
H649 H 0.773 0.94701 0.72156 0.0
H650 H 0.63507 0.93813 0.75704 0.0
H651 H 0.62092 0.90448 0.74105 0.0
H652 H 0.61677 0.96462 0.73995 0.0
H653 H 0.77051 0.87498 0.75269 0.0
H654 H 0.79181 0.88083 0.734 0.0
H655 H 0.75558 0.84042 0.73708 0.0
C656 C 0.96193 0.34136 0.2782 0.0
C657 C 0.99917 0.35141 0.28118 0.0
C658 C 0.94228 0.36232 0.26616 0.0
C659 C 0.96004 0.39456 0.25675 0.0
C660 C 0.99775 0.40468 0.25958 0.0
C661 C 0.01689 0.38282 0.27166 0.0
C662 C 0.90221 0.35034 0.26364 0.0
C663 C 0.01753 0.43964 0.25014 0.0
C664 C 0.91078 0.42044 0.21864 0.0
C665 C 0.88801 0.45658 0.22281 0.0
C666 C 0.93558 0.40102 0.22934 0.0
C667 C 0.9383 0.41876 0.24449 0.0
C668 C 0.91715 0.45727 0.24835 0.0
C669 C 0.89179 0.47506 0.2376 0.0
C670 C 0.95733 0.35996 0.22469 0.0
C671 C 0.9197 0.47854 0.2641 0.0
H672 H 0.94805 0.31665 0.28524 0.0
H673 H 0.04551 0.39116 0.27392 0.0
H674 H 0.88456 0.38025 0.26569 0.0
H675 H 0.89777 0.33969 0.25152 0.0
H676 H 0.8929 0.32302 0.27141 0.0
H677 H 0.04722 0.44237 0.25328 0.0
H678 H 0.01538 0.43159 0.23768 0.0
H679 H 1.00414 0.47278 0.25189 0.0
H680 H 0.90762 0.40578 0.20728 0.0
H681 H 0.87427 0.50306 0.24082 0.0
H682 H 0.94711 0.3305 0.2312 0.0
H683 H 0.98697 0.36415 0.22763 0.0
H684 H 0.95489 0.35278 0.21216 0.0
H685 H 0.90001 0.46168 0.27198 0.0
H686 H 0.91245 0.51468 0.26361 0.0
H687 H 0.94781 0.47531 0.26911 0.0
C688 C 0.35321 0.05512 0.72704 0.0
C689 C 0.3171 0.05045 0.72127 0.0
C690 C 0.3629 0.09091 0.73682 0.0
C691 C 0.33602 0.12352 0.74089 0.0
C692 C 0.29975 0.1197 0.73479 0.0
C693 C 0.29068 0.08319 0.72516 0.0
C694 C 0.4018 0.09318 0.74311 0.0
C695 C 0.27029 0.15381 0.73868 0.0
C696 C 0.35334 0.18944 0.77807 0.0
C697 C 0.36952 0.22905 0.77255 0.0
C698 C 0.34167 0.15536 0.76792 0.0
C699 C 0.34587 0.1609 0.75177 0.0
C700 C 0.36109 0.20138 0.7461 0.0
C701 C 0.37284 0.23474 0.75651 0.0
C702 C 0.32585 0.11275 0.77453 0.0
C703 C 0.36583 0.20904 0.72901 0.0
H704 H 0.37387 0.02997 0.72429 0.0
H705 H 0.26268 0.08 0.72084 0.0
H706 H 0.41458 0.12568 0.74 0.0
H707 H 0.4012 0.09122 0.75589 0.0
H708 H 0.41964 0.06565 0.73869 0.0
H709 H 0.24395 0.14739 0.73247 0.0
H710 H 0.2648 0.15334 0.75126 0.0
H711 H 0.27999 0.18798 0.73572 0.0
H712 H 0.35072 0.18442 0.7904 0.0
H713 H 0.3852 0.26512 0.75205 0.0
H714 H 0.34407 0.08401 0.77157 0.0
H715 H 0.29833 0.10598 0.7694 0.0
H716 H 0.32295 0.11426 0.78728 0.0
H717 H 0.38595 0.18446 0.72429 0.0
H718 H 0.37584 0.24335 0.72637 0.0
H719 H 0.33921 0.20369 0.72292 0.0
C720 C 0.07268 0.70321 0.27872 0.0
C721 C 0.0344 0.69709 0.28047 0.0
C722 C 0.09232 0.6836 0.26643 0.0
C723 C 0.07349 0.65689 0.25545 0.0
C724 C 0.03482 0.65057 0.25707 0.0
C725 C 0.01576 0.67084 0.26949 0.0
C726 C 0.13343 0.69153 0.2652 0.0
C727 C 1.01366 0.62186 0.24581 0.0
C728 C 0.12433 0.6413 0.21711 0.0
C729 C 0.14381 0.60115 0.21962 0.0
C730 C 0.10021 0.65895 0.22838 0.0
C731 C 0.09473 0.63554 0.24244 0.0
C732 C 0.11257 0.59358 0.24459 0.0
C733 C 0.13736 0.57737 0.23332 0.0
C734 C 0.08206 0.70383 0.22556 0.0
C735 C 0.10668 0.56656 0.25908 0.0
H736 H 0.08742 0.72399 0.28688 0.0
H737 H 0.98632 0.6655 0.27076 0.0
H738 H 0.14846 0.6591 0.26588 0.0
H739 H 0.14004 0.7068 0.25387 0.0
H740 H 0.14392 0.71385 0.27447 0.0
H741 H 0.98363 0.62085 0.24846 0.0
H742 H 0.01734 0.63473 0.23391 0.0
H743 H 0.0247 0.58712 0.24603 0.0
H744 H 0.12948 0.66019 0.20667 0.0
H745 H 0.15224 0.5463 0.23533 0.0
H746 H 0.09363 0.72894 0.23366 0.0
H747 H 0.05193 0.70185 0.2278 0.0
H748 H 0.08638 0.71592 0.21358 0.0
H749 H 0.12279 0.58161 0.26865 0.0
H750 H 0.11562 0.53119 0.25759 0.0
H751 H 0.07717 0.56687 0.26253 0.0
C752 C 0.74506 0.51682 0.53135 0.0
C753 C 0.7766 0.52837 0.53988 0.0
C754 C 0.72674 0.54893 0.52205 0.0
C755 C 0.74046 0.59341 0.52114 0.0
C756 C 0.77437 0.60362 0.52849 0.0
C757 C 0.79182 0.57117 0.53777 0.0
C758 C 0.69098 0.53627 0.51429 0.0
C759 C 0.79064 0.65007 0.5277 0.0
C760 C 0.69965 0.67877 0.49262 0.0
C761 C 0.67518 0.70325 0.50203 0.0
C762 C 0.72087 0.64284 0.49856 0.0
C763 C 0.71742 0.63056 0.51429 0.0
C764 C 0.69275 0.65513 0.52382 0.0
C765 C 0.67219 0.6911 0.51763 0.0
C766 C 0.74699 0.61801 0.48801 0.0
C767 C 0.6879 0.6433 0.54064 0.0
H768 H 0.73289 0.48405 0.53294 0.0
H769 H 0.81615 0.58043 0.54435 0.0
H770 H 0.66761 0.55199 0.52059 0.0
H771 H 0.69016 0.54897 0.50227 0.0
H772 H 0.6869 0.4994 0.51413 0.0
H773 H 0.81952 0.65089 0.53207 0.0
H774 H 0.7903 0.66281 0.51568 0.0
H775 H 0.77368 0.6733 0.53478 0.0
H776 H 0.70215 0.68755 0.48053 0.0
H777 H 0.6532 0.70926 0.52502 0.0
H778 H 0.73975 0.58194 0.48769 0.0
H779 H 0.77566 0.62039 0.49249 0.0
H780 H 0.74639 0.63136 0.47605 0.0
H781 H 0.67936 0.60778 0.54176 0.0
H782 H 0.66693 0.66477 0.54642 0.0
H783 H 0.71461 0.647 0.54681 0.0
C784 C 0.62232 0.39097 0.56606 0.0
C785 C 0.64405 0.42875 0.56292 0.0
C786 C 0.5977 0.37371 0.55493 0.0
C787 C 0.59425 0.39504 0.54037 0.0
C788 C 0.61424 0.435 0.5376 0.0
C789 C 0.6392 0.45094 0.54878 0.0
C790 C 0.57697 0.33114 0.55845 0.0
C791 C 0.61105 0.45977 0.52248 0.0
C792 C 0.57219 0.32363 0.50505 0.0
C793 C 0.53463 0.33306 0.5024 0.0
C794 C 0.59155 0.34318 0.5174 0.0
C795 C 0.57312 0.37311 0.52751 0.0
C796 C 0.53514 0.38272 0.52499 0.0
C797 C 0.51636 0.3625 0.51253 0.0
C798 C 0.63199 0.332 0.51955 0.0
C799 C 0.51459 0.41514 0.53525 0.0
H800 H 0.62615 0.37335 0.57687 0.0
H801 H 0.65577 0.48026 0.5463 0.0
H802 H 0.54723 0.33517 0.5556 0.0
H803 H 0.58794 0.30352 0.55118 0.0
H804 H 0.57956 0.32121 0.57075 0.0
H805 H 0.63052 0.44469 0.51405 0.0
H806 H 0.58278 0.4576 0.51757 0.0
H807 H 0.61814 0.49569 0.52387 0.0
H808 H 0.58656 0.30044 0.49754 0.0
H809 H 0.48751 0.37044 0.51053 0.0
H810 H 0.63678 0.3184 0.5313 0.0
H811 H 0.64874 0.3629 0.51845 0.0
H812 H 0.64208 0.30713 0.51099 0.0
H813 H 0.51687 0.40446 0.54748 0.0
H814 H 0.48485 0.41789 0.53215 0.0
H815 H 0.52724 0.44886 0.53437 0.0
C816 C 0.23849 0.47175 0.52952 0.0
C817 C 0.2556 0.50994 0.53569 0.0
C818 C 0.2578 0.44164 0.51994 0.0
C819 C 0.29552 0.44935 0.51651 0.0
C820 C 0.3125 0.48907 0.52207 0.0
C821 C 0.29239 0.51885 0.53159 0.0
C822 C 0.23812 0.40061 0.51398 0.0
C823 C 0.35253 0.49903 0.51869 0.0
C824 C 0.35457 0.34674 0.50578 0.0
C825 C 0.35731 0.35109 0.48971 0.0
C826 C 0.335 0.37873 0.51466 0.0
C827 C 0.31706 0.41543 0.50729 0.0
C828 C 0.31904 0.41917 0.49104 0.0
C829 C 0.33931 0.38737 0.48252 0.0
C830 C 0.33416 0.37382 0.53197 0.0
C831 C 0.30005 0.45715 0.48262 0.0
H832 H 0.21017 0.46443 0.53269 0.0
H833 H 0.30619 0.54763 0.53657 0.0
H834 H 0.24125 0.39811 0.50128 0.0
H835 H 0.25073 0.37006 0.51908 0.0
H836 H 0.20817 0.40098 0.5168 0.0
H837 H 0.35945 0.53452 0.52119 0.0
H838 H 0.37029 0.47713 0.52596 0.0
H839 H 0.35935 0.4919 0.50647 0.0
H840 H 0.36883 0.3193 0.51146 0.0
H841 H 0.34125 0.39108 0.47011 0.0
H842 H 0.30516 0.37119 0.53601 0.0
H843 H 0.34622 0.40407 0.53743 0.0
H844 H 0.34974 0.34385 0.53599 0.0
H845 H 0.27008 0.4573 0.48533 0.0
H846 H 0.30347 0.45477 0.46992 0.0
H847 H 0.31142 0.48968 0.48656 0.0
C848 C 0.46185 0.67295 0.49744 0.0
C849 C 0.50019 0.67966 0.4988 0.0
C850 C 0.44116 0.65352 0.50943 0.0
C851 C 0.45892 0.64056 0.52331 0.0
C852 C 0.49759 0.64688 0.52479 0.0
C853 C 0.51771 0.6662 0.51255 0.0
C854 C 0.40004 0.64737 0.50728 0.0
C855 C 0.51769 0.63346 0.53935 0.0
C856 C 0.39472 0.63412 0.55812 0.0
C857 C 0.38595 0.58831 0.55867 0.0
C858 C 0.41962 0.6512 0.54715 0.0
C859 C 0.4365 0.62188 0.53637 0.0
C860 C 0.42943 0.57526 0.5374 0.0
C861 C 0.40437 0.55907 0.54852 0.0
C862 C 0.4266 0.70103 0.54667 0.0
C863 C 0.44683 0.54264 0.52623 0.0
H864 H 0.44765 0.68361 0.48708 0.0
H865 H 0.54727 0.67045 0.51376 0.0
H866 H 0.3926 0.61169 0.50903 0.0
H867 H 0.3848 0.66726 0.51604 0.0
H868 H 0.39052 0.65787 0.49564 0.0
H869 H 0.54789 0.6398 0.53863 0.0
H870 H 0.50635 0.65236 0.54931 0.0
H871 H 0.51331 0.59734 0.54172 0.0
H872 H 0.38136 0.65694 0.56609 0.0
H873 H 0.39796 0.5237 0.54872 0.0
H874 H 0.41499 0.71523 0.53586 0.0
H875 H 0.45674 0.70778 0.54664 0.0
H876 H 0.4139 0.71882 0.5566 0.0
H877 H 0.43486 0.54787 0.51458 0.0
H878 H 0.44217 0.50723 0.52966 0.0
H879 H 0.47702 0.54848 0.52536 0.0
C880 C 0.34366 0.29402 0.40475 0.0
C881 C 0.344 0.26644 0.41792 0.0
C882 C 0.31384 0.29395 0.39425 0.0
C883 C 0.2831 0.26564 0.39684 0.0
C884 C 0.28312 0.23771 0.4101 0.0
C885 C 0.31339 0.2385 0.42046 0.0
C886 C 0.31513 0.32465 0.38041 0.0
C887 C 0.25107 0.20697 0.41338 0.0
C888 C 0.19115 0.29892 0.37796 0.0
C889 C 0.18958 0.27093 0.36491 0.0
C890 C 0.22099 0.29714 0.38843 0.0
C891 C 0.25051 0.26663 0.38594 0.0
C892 C 0.24925 0.23827 0.37279 0.0
C893 C 0.21899 0.24082 0.36246 0.0
C894 C 0.22106 0.32839 0.40213 0.0
C895 C 0.27995 0.20518 0.36964 0.0
H896 H 0.36659 0.3164 0.40269 0.0
H897 H 0.31325 0.21672 0.43045 0.0
H898 H 0.31208 0.3049 0.36965 0.0
H899 H 0.29171 0.34873 0.38085 0.0
H900 H 0.34133 0.34385 0.37979 0.0
H901 H 0.25546 0.18663 0.42396 0.0
H902 H 0.22534 0.22692 0.41478 0.0
H903 H 0.24671 0.184 0.40349 0.0
H904 H 0.16919 0.32295 0.37994 0.0
H905 H 0.21815 0.21873 0.35256 0.0
H906 H 0.24548 0.3507 0.40158 0.0
H907 H 0.22326 0.30884 0.41298 0.0
H908 H 0.19573 0.3495 0.40267 0.0
H909 H 0.30647 0.22322 0.36816 0.0
H910 H 0.27469 0.18486 0.35913 0.0
H911 H 0.28334 0.18225 0.37962 0.0
C912 C 0.26225 0.6895 0.6228 0.0
C913 C 0.25326 0.69272 0.60703 0.0
C914 C 0.26038 0.72663 0.63271 0.0
C915 C 0.24943 0.76896 0.62689 0.0
C916 C 0.2413 0.77309 0.61089 0.0
C917 C 0.24316 0.73492 0.60115 0.0
C918 C 0.26905 0.72002 0.64963 0.0
C919 C 0.22989 0.81761 0.60414 0.0
C920 C 0.20654 0.84027 0.65858 0.0
C921 C 0.23683 0.86513 0.66401 0.0
C922 C 0.20955 0.81159 0.64577 0.0
C923 C 0.24381 0.80718 0.63801 0.0
C924 C 0.27386 0.83454 0.64274 0.0
C925 C 0.27004 0.8632 0.65566 0.0
C926 C 0.17663 0.78345 0.64128 0.0
C927 C 0.31081 0.8314 0.63477 0.0
H928 H 0.27029 0.65739 0.62761 0.0
H929 H 0.23632 0.73805 0.58903 0.0
H930 H 0.29073 0.74387 0.65336 0.0
H931 H 0.244 0.72699 0.65662 0.0
H932 H 0.27867 0.68544 0.65224 0.0
H933 H 0.22831 0.81658 0.59135 0.0
H934 H 0.20239 0.82741 0.60871 0.0
H935 H 0.24971 0.84405 0.60762 0.0
H936 H 0.18055 0.84181 0.66478 0.0
H937 H 0.29363 0.88218 0.65969 0.0
H938 H 0.18192 0.748 0.6445 0.0
H939 H 0.17219 0.78453 0.62863 0.0
H940 H 0.15087 0.79471 0.6471 0.0
H941 H 0.32472 0.79965 0.63813 0.0
H942 H 0.32917 0.85973 0.63791 0.0
H943 H 0.30719 0.83086 0.62206 0.0
C944 C 0.68582 0.76046 0.40046 0.0
C945 C 0.68878 0.77474 0.41589 0.0
C946 C 0.71564 0.76363 0.39007 0.0
C947 C 0.7496 0.78236 0.39499 0.0
C948 C 0.75236 0.79886 0.41031 0.0
C949 C 0.72212 0.79472 0.42057 0.0
C950 C 0.71114 0.74534 0.37394 0.0
C951 C 0.78774 0.81967 0.41605 0.0
C952 C 0.83722 0.7427 0.37425 0.0
C953 C 0.84389 0.77733 0.36362 0.0
C954 C 0.80705 0.74421 0.3845 0.0
C955 C 0.78271 0.78158 0.3844 0.0
C956 C 0.78934 0.81686 0.37376 0.0
C957 C 0.81956 0.81414 0.36344 0.0
C958 C 0.80092 0.70531 0.39533 0.0
C959 C 0.76455 0.85761 0.37333 0.0
H960 H 0.66015 0.74605 0.39645 0.0
H961 H 0.72512 0.80591 0.43237 0.0
H962 H 0.71827 0.77134 0.36531 0.0
H963 H 0.73045 0.7168 0.3722 0.0
H964 H 0.68255 0.73362 0.37164 0.0
H965 H 0.7845 0.83485 0.42767 0.0
H966 H 0.80976 0.79374 0.41664 0.0
H967 H 0.79722 0.8459 0.4079 0.0
H968 H 0.85537 0.71376 0.37437 0.0
H969 H 0.82458 0.84125 0.3554 0.0
H970 H 0.77352 0.69008 0.39305 0.0
H971 H 0.80081 0.71724 0.40745 0.0
H972 H 0.82248 0.67894 0.39413 0.0
H973 H 0.73593 0.84759 0.37034 0.0
H974 H 0.77404 0.88289 0.36482 0.0
H975 H 0.76353 0.87344 0.38491 0.0
C976 C 0.79322 0.14805 0.65224 0.0
C977 C 0.75954 0.14956 0.66031 0.0
C978 C 0.80024 0.17734 0.63975 0.0
C979 C 0.77331 0.20967 0.63533 0.0
C980 C 0.73864 0.2097 0.64294 0.0
C981 C 0.73213 0.17961 0.65517 0.0
C982 C 0.83726 0.17518 0.6318 0.0
C983 C 0.70913 0.24368 0.6389 0.0
C984 C 0.80324 0.32507 0.62148 0.0
C985 C 0.79235 0.32558 0.6059 0.0
C986 C 0.79856 0.28716 0.63087 0.0
C987 C 0.78298 0.2477 0.62461 0.0
C988 C 0.77402 0.24678 0.60862 0.0
C989 C 0.77863 0.28579 0.59945 0.0
C990 C 0.80848 0.29038 0.64777 0.0
C991 C 0.75814 0.20521 0.60135 0.0
H992 H 0.8146 0.12492 0.65597 0.0
H993 H 0.70593 0.18127 0.66119 0.0
H994 H 0.8338 0.17768 0.61911 0.0
H995 H 0.85445 0.2039 0.63554 0.0
H996 H 0.85241 0.14371 0.63455 0.0
H997 H 0.68255 0.23683 0.64484 0.0
H998 H 0.7186 0.27764 0.64226 0.0
H999 H 0.70417 0.2441 0.62628 0.0
H1000 H 0.81437 0.35526 0.62663 0.0
H1001 H 0.77006 0.28563 0.58747 0.0
H1002 H 0.82753 0.26278 0.65105 0.0
H1003 H 0.78314 0.28688 0.65487 0.0
H1004 H 0.82181 0.32275 0.65072 0.0
H1005 H 0.77385 0.17505 0.60506 0.0
H1006 H 0.7584 0.20707 0.58855 0.0
H1007 H 0.72914 0.20089 0.6052 0.0
C1008 C 0.20666 0.29385 0.92432 0.0
C1009 C 0.16933 0.29335 0.91972 0.0
C1010 C 0.23563 0.29488 0.9134 0.0
C1011 C 0.22746 0.29496 0.89738 0.0
C1012 C 0.18997 0.29564 0.89266 0.0
C1013 C 0.1616 0.2952 0.90379 0.0
C1014 C 0.27513 0.29463 0.91902 0.0
C1015 C 0.17972 0.29537 0.87577 0.0
C1016 C 0.30276 0.32393 0.86771 0.0
C1017 C 0.31589 0.28129 0.86358 0.0
C1018 C 0.2742 0.3291 0.87873 0.0
C1019 C 0.25788 0.2907 0.8856 0.0
C1020 C 0.27046 0.24764 0.88108 0.0
C1021 C 0.29926 0.24354 0.87028 0.0
C1022 C 0.26203 0.37564 0.88329 0.0
C1023 C 0.25359 0.20566 0.88774 0.0
H1024 H 0.21347 0.29236 0.93646 0.0
H1025 H 0.13322 0.29597 0.89988 0.0
H1026 H 0.28861 0.26251 0.91581 0.0
H1027 H 0.29093 0.32193 0.91341 0.0
H1028 H 0.27705 0.29873 0.93173 0.0
H1029 H 0.1494 0.29819 0.87392 0.0
H1030 H 0.19346 0.32343 0.86969 0.0
H1031 H 0.18958 0.2638 0.87037 0.0
H1032 H 0.31566 0.35322 0.8627 0.0
H1033 H 0.30886 0.21045 0.867 0.0
H1034 H 0.26688 0.38073 0.8958 0.0
H1035 H 0.23194 0.37979 0.88124 0.0
H1036 H 0.277 0.40204 0.8768 0.0
H1037 H 0.25758 0.20503 0.90043 0.0
H1038 H 0.26588 0.17467 0.88279 0.0
H1039 H 0.22337 0.2054 0.88553 0.0
C1040 C 0.2757 0.72951 0.17437 0.0
C1041 C 0.29747 0.69121 0.17196 0.0
C1042 C 0.27536 0.76486 0.16348 0.0
C1043 C 0.29768 0.76207 0.15001 0.0
C1044 C 0.32085 0.72424 0.14797 0.0
C1045 C 0.32019 0.68932 0.15885 0.0
C1046 C 0.25014 0.80449 0.16611 0.0
C1047 C 0.34581 0.72007 0.13409 0.0
C1048 C 0.27276 0.83279 0.1144 0.0
C1049 C 0.29572 0.87006 0.11635 0.0
C1050 C 0.27316 0.79725 0.12521 0.0
C1051 C 0.29737 0.79884 0.13815 0.0
C1052 C 0.32173 0.83557 0.13967 0.0
C1053 C 0.32034 0.8707 0.12889 0.0
C1054 C 0.24665 0.75882 0.12314 0.0
C1055 C 0.34864 0.83845 0.15297 0.0
H1056 H 0.25756 0.73079 0.1843 0.0
H1057 H 0.337 0.65969 0.15688 0.0
H1058 H 0.26636 0.83596 0.16609 0.0
H1059 H 0.2298 0.80691 0.15655 0.0
H1060 H 0.2349 0.80206 0.17719 0.0
H1061 H 0.36336 0.68946 0.13453 0.0
H1062 H 0.32892 0.71902 0.12341 0.0
H1063 H 0.36406 0.74976 0.13325 0.0
H1064 H 0.25311 0.83257 0.10495 0.0
H1065 H 0.33798 0.89963 0.13051 0.0
H1066 H 0.22743 0.75747 0.13309 0.0
H1067 H 0.26201 0.72659 0.12288 0.0
H1068 H 0.23018 0.76191 0.11237 0.0
H1069 H 0.33326 0.84051 0.16401 0.0
H1070 H 0.36702 0.86808 0.15208 0.0
H1071 H 0.36606 0.80779 0.15345 0.0
C1072 C 0.86618 0.76946 0.90626 0.0
C1073 C 0.85695 0.77668 0.92183 0.0
C1074 C 0.83882 0.76366 0.89485 0.0
C1075 C 0.80092 0.76536 0.89893 0.0
C1076 C 0.79133 0.77284 0.91461 0.0
C1077 C 0.81935 0.77812 0.92584 0.0
C1078 C 0.85057 0.755 0.87841 0.0
C1079 C 0.75138 0.7752 0.91952 0.0
C1080 C 0.72879 0.78402 0.86687 0.0
C1081 C 0.71526 0.74053 0.86456 0.0
C1082 C 0.75646 0.79274 0.87803 0.0
C1083 C 0.77149 0.75705 0.88694 0.0
C1084 C 0.75856 0.71296 0.8843 0.0
C1085 C 0.73064 0.70536 0.87328 0.0
C1086 C 0.76912 0.8403 0.88049 0.0
C1087 C 0.77406 0.67363 0.8932 0.0
H1088 H 0.89502 0.76757 0.903 0.0
H1089 H 0.8118 0.78412 0.93775 0.0
H1090 H 0.84038 0.72175 0.87462 0.0
H1091 H 0.83812 0.78042 0.87062 0.0
H1092 H 0.88108 0.75575 0.877 0.0
H1093 H 0.74835 0.78303 0.93199 0.0
H1094 H 0.73659 0.80122 0.91273 0.0
H1095 H 0.73764 0.74274 0.91716 0.0
H1096 H 0.71688 0.8114 0.86031 0.0
H1097 H 0.72077 0.67156 0.87145 0.0
H1098 H 0.79938 0.84267 0.87862 0.0
H1099 H 0.76368 0.85049 0.89259 0.0
H1100 H 0.75498 0.8643 0.87264 0.0
H1101 H 0.80445 0.67162 0.89159 0.0
H1102 H 0.7617 0.64129 0.88956 0.0
H1103 H 0.76891 0.67827 0.90571 0.0
C1104 C 0.77155 0.17923 0.13258 0.0
C1105 C 0.75214 0.18265 0.11855 0.0
C1106 C 0.76995 0.21317 0.14379 0.0
C1107 C 0.74802 0.25178 0.14115 0.0
C1108 C 0.72804 0.25545 0.12706 0.0
C1109 C 0.73054 0.22103 0.11588 0.0
C1110 C 0.79242 0.20801 0.15839 0.0
C1111 C 0.7041 0.29586 0.1238 0.0
C1112 C 0.72542 0.32675 0.17601 0.0
C1113 C 0.75101 0.36147 0.17413 0.0
C1114 C 0.72372 0.29098 0.1653 0.0
C1115 C 0.74857 0.28961 0.1526 0.0
C1116 C 0.77518 0.32394 0.15105 0.0
C1117 C 0.77583 0.35937 0.1617 0.0
C1118 C 0.69476 0.25526 0.16732 0.0
C1119 C 0.80288 0.32359 0.13802 0.0
H1120 H 0.78848 0.14988 0.1348 0.0
H1121 H 0.71515 0.22385 0.10519 0.0
H1122 H 0.81317 0.23522 0.15913 0.0
H1123 H 0.77427 0.21103 0.16864 0.0
H1124 H 0.80714 0.1753 0.15895 0.0
H1125 H 0.68851 0.29255 0.11281 0.0
H1126 H 0.68414 0.30098 0.13336 0.0
H1127 H 0.72152 0.32631 0.12315 0.0
H1128 H 0.70579 0.32853 0.18542 0.0
H1129 H 0.79576 0.38607 0.16017 0.0
H1130 H 0.70809 0.22181 0.1682 0.0
H1131 H 0.6764 0.25457 0.15706 0.0
H1132 H 0.67758 0.26087 0.17776 0.0
H1133 H 0.81922 0.29206 0.13828 0.0
H1134 H 0.82226 0.35233 0.13861 0.0
H1135 H 0.78825 0.3248 0.12677 0.0
C1136 C 0.96197 0.94804 0.30789 0.0
C1137 C 0.98346 0.9122 0.30234 0.0
C1138 C 0.97694 0.99167 0.30938 0.0
C1139 C 1.01461 0.9997 0.30562 0.0
C1140 C 0.03626 0.9636 0.29998 0.0
C1141 C 0.02043 0.92081 0.29827 0.0
C1142 C 0.95251 0.02915 0.31513 0.0
C1143 C 0.07666 0.96979 0.29619 0.0
C1144 C 0.05229 0.11885 0.29915 0.0
C1145 C 0.06677 0.12945 0.31373 0.0
C1146 C 0.03464 0.07729 0.2964 0.0
C1147 C 0.03213 0.0449 0.30838 0.0
C1148 C 0.04762 0.05517 0.32298 0.0
C1149 C 0.06417 0.09725 0.32551 0.0
C1150 C 0.01798 0.06838 0.28074 0.0
C1151 C 0.04679 0.0216 0.33601 0.0
H1152 H 0.93344 0.94205 0.31104 0.0
H1153 H 0.03761 0.89358 0.29409 0.0
H1154 H 0.96262 0.04101 0.3265 0.0
H1155 H 0.9537 0.05803 0.30708 0.0
H1156 H 0.92326 1.01857 0.31638 0.0
H1157 H 0.08962 0.93868 0.29165 0.0
H1158 H 0.08 0.99676 0.28751 0.0
H1159 H 0.0919 0.98026 0.3067 0.0
H1160 H 0.05357 0.14365 0.29003 0.0
H1161 H 0.07523 0.10497 0.33682 0.0
H1162 H 0.98806 0.06115 0.28196 0.0
H1163 H 0.03106 0.03838 0.27549 0.0
H1164 H 0.02137 0.09717 0.27275 0.0
H1165 H 0.01778 1.01343 0.33898 0.0
H1166 H 0.06087 0.03414 0.34655 0.0
H1167 H 0.06042 0.98995 0.33236 0.0
C1168 C 0.93836 0.03735 0.70063 0.0
C1169 C 0.92594 0.05938 0.71397 0.0
C1170 C 0.97419 1.01885 0.69985 0.0
C1171 C 0.99814 0.02221 0.71275 0.0
C1172 C 0.98568 0.04422 0.72625 0.0
C1173 C 0.94986 0.06249 0.72669 0.0
C1174 C 0.98648 0.99581 0.68522 0.0
C1175 C 1.01012 0.04823 0.74032 0.0
C1176 C 0.07768 0.93989 0.71823 0.0
C1177 C 0.10846 0.96572 0.71405 0.0
C1178 C 0.04163 0.95744 0.71747 0.0
C1179 C 0.03599 1.002 0.71235 0.0
C1180 C 0.06678 0.0279 0.70769 0.0
C1181 C 0.1026 1.00947 0.70859 0.0
C1182 C 1.00963 0.92857 0.72249 0.0
C1183 C 0.06198 0.07555 0.70217 0.0
H1184 H 0.92028 0.0352 0.6907 0.0
H1185 H 0.94038 0.07874 0.73713 0.0
H1186 H 1.01156 1.01235 0.68062 0.0
H1187 H 0.99398 0.96045 0.68771 0.0
H1188 H 0.96471 0.9963 0.67617 0.0
H1189 H 0.99648 0.06691 0.74984 0.0
H1190 H 0.01776 1.01437 0.74458 0.0
H1191 H 0.03614 0.06564 0.73727 0.0
H1192 H 0.08175 0.90579 0.72216 0.0
H1193 H 0.12611 0.02984 0.70544 0.0
H1194 H 0.98857 0.92682 0.7132 0.0
H1195 H 0.99607 0.94375 0.73272 0.0
H1196 H 0.01844 0.89394 0.72549 0.0
H1197 H 0.04135 0.07699 0.6927 0.0
H1198 H 0.08832 0.09023 0.698 0.0
H1199 H 0.05126 0.09663 0.71172 0.0
C1200 C 0.03683 0.43482 0.98468 0.0
C1201 C 0.06868 0.43273 0.97542 0.0
C1202 C 0.01578 0.47475 0.98594 0.0
C1203 C 0.02693 0.51395 0.97793 0.0
C1204 C 0.06001 0.51247 0.96917 0.0
C1205 C 0.08018 0.47207 0.96794 0.0
C1206 C 0.98064 0.47437 0.99529 0.0
C1207 C 0.0735 0.55326 0.96058 0.0
C1208 C 0.95748 0.6022 0.96399 0.0
C1209 C 0.9627 0.63761 0.97445 0.0
C1210 C 0.97681 0.56131 0.96546 0.0
C1211 C 1.0028 0.55539 0.97756 0.0
C1212 C 1.00731 0.59043 0.98849 0.0
C1213 C 0.98706 0.6309 0.98688 0.0
C1214 C 0.97038 0.52497 0.95365 0.0
C1215 C 0.03485 0.58603 1.00149 0.0
H1216 H 0.02741 0.40472 0.99043 0.0
H1217 H 0.10476 0.47113 0.96081 0.0
H1218 H 0.98006 0.50309 1.0034 0.0
H1219 H 0.95652 0.47811 0.98746 0.0
H1220 H 0.97743 0.44284 1.00196 0.0
H1221 H 0.10128 0.54795 0.95543 0.0
H1222 H 0.0538 0.56173 0.9512 0.0
H1223 H 0.07474 0.58255 0.96844 0.0
H1224 H 0.93866 0.60677 0.95437 0.0
H1225 H 0.99164 0.65805 0.99495 0.0
H1226 H 0.96451 0.49266 0.95947 0.0
H1227 H 0.9957 0.52018 0.94663 0.0
H1228 H 0.94704 0.53307 0.94577 0.0
H1229 H 0.03064 0.55408 1.00778 0.0
H1230 H 0.03282 0.61422 1.00981 0.0
H1231 H 0.06327 0.58525 0.99669 0.0
C1232 C 0.43333 0.06654 0.10778 0.0
C1233 C 0.41387 0.02929 0.10212 0.0
C1234 C 0.47233 0.06765 0.10776 0.0
C1235 C 0.4927 0.03077 0.10186 0.0
C1236 C 0.47332 0.99295 0.09626 0.0
C1237 C 0.43438 0.99257 0.09653 0.0
C1238 C 0.49177 0.10861 0.11391 0.0
C1239 C 0.49374 0.95288 0.08983 0.0
C1240 C 0.59117 0.04992 0.08735 0.0
C1241 C 0.61284 0.03293 0.0995 0.0
C1242 C 0.55227 0.04956 0.088 0.0
C1243 C 0.5342 0.03205 0.10118 0.0
C1244 C 0.55587 1.01501 0.11352 0.0
C1245 C 0.59479 1.01547 0.11251 0.0
C1246 C 0.53045 0.06756 0.07448 0.0
C1247 C 0.5379 0.99635 0.12784 0.0
H1248 H 0.41813 0.09531 0.11202 0.0
H1249 H 0.42009 0.96315 0.0924 0.0
H1250 H 0.51156 0.09883 0.12311 0.0
H1251 H 0.50798 0.12456 0.10456 0.0
H1252 H 0.47215 0.13377 0.11866 0.0
H1253 H 0.47471 0.92593 0.08601 0.0
H1254 H 0.51088 0.96328 0.07986 0.0
H1255 H 0.51276 0.93894 0.09867 0.0
H1256 H 0.60466 0.06285 0.07715 0.0
H1257 H 0.61115 1.00272 0.12203 0.0
H1258 H 0.51191 0.09505 0.07833 0.0
H1259 H 0.51269 0.04076 0.06965 0.0
H1260 H 0.54855 0.08046 0.06515 0.0
H1261 H 0.51984 0.02218 0.13317 0.0
H1262 H 0.55851 0.98505 0.13653 0.0
H1263 H 0.52006 0.96755 0.12475 0.0
C1264 C 0.45693 0.45559 0.82741 0.0
C1265 C 0.45068 0.4237 0.81579 0.0
C1266 C 0.47683 0.49519 0.82448 0.0
C1267 C 0.49182 0.50302 0.80962 0.0
C1268 C 0.48543 0.47105 0.79779 0.0
C1269 C 0.46465 0.4321 0.80097 0.0
C1270 C 0.48196 0.52863 0.83737 0.0
C1271 C 0.50132 0.47748 0.78187 0.0
C1272 C 0.51479 0.62435 0.79935 0.0
C1273 C 0.55263 0.62731 0.80299 0.0
C1274 C 0.49501 0.58414 0.80116 0.0
C1275 C 0.51341 0.54513 0.8065 0.0
C1276 C 0.55192 0.54733 0.80967 0.0
C1277 C 0.57096 0.58838 0.80803 0.0
C1278 C 0.45399 0.58395 0.7979 0.0
C1279 C 0.57288 0.50646 0.8151 0.0
H1280 H 0.44633 0.44948 0.83891 0.0
H1281 H 0.46051 0.4074 0.79197 0.0
H1282 H 0.51181 0.53264 0.83992 0.0
H1283 H 0.47118 0.56192 0.83379 0.0
H1284 H 0.46765 0.51834 0.84813 0.0
H1285 H 0.49413 0.44956 0.77395 0.0
H1286 H 0.49103 0.50932 0.77681 0.0
H1287 H 0.53188 0.47998 0.7826 0.0
H1288 H 0.50007 0.65404 0.79552 0.0
H1289 H 0.6001 0.59007 0.81088 0.0
H1290 H 0.43866 0.57647 0.80867 0.0
H1291 H 0.44716 0.55725 0.78948 0.0
H1292 H 0.44397 0.61654 0.79327 0.0
H1293 H 0.56287 0.49641 0.82668 0.0
H1294 H 0.60312 0.51248 0.8158 0.0
H1295 H 0.56783 0.47791 0.80718 0.0
C1296 C 0.59429 0.48293 0.19116 0.0
C1297 C 0.61554 0.52005 0.18659 0.0
C1298 C 0.55533 0.48426 0.19101 0.0
C1299 C 0.53664 0.52351 0.18604 0.0
C1300 C 0.55777 0.56081 0.18112 0.0
C1301 C 0.59677 0.5587 0.18149 0.0
C1302 C 0.53412 0.44365 0.19636 0.0
C1303 C 0.53914 0.60331 0.17567 0.0
C1304 C 0.43488 0.51352 0.17409 0.0
C1305 C 0.41626 0.52906 0.18728 0.0
C1306 C 0.47387 0.51188 0.17346 0.0
C1307 C 0.49507 0.52583 0.18636 0.0
C1308 C 0.47644 0.5414 0.19972 0.0
C1309 C 0.43749 0.54289 0.2 0.0
C1310 C 0.49241 0.4953 0.15895 0.0
C1311 C 0.49771 0.55622 0.21381 0.0
H1312 H 0.60804 0.4525 0.19484 0.0
H1313 H 0.61248 0.5878 0.17805 0.0
H1314 H 0.51666 0.45263 0.20642 0.0
H1315 H 0.51534 0.43199 0.18708 0.0
H1316 H 0.55263 0.41549 0.19971 0.0
H1317 H 0.5593 0.6287 0.17163 0.0
H1318 H 0.51973 0.59574 0.16611 0.0
H1319 H 0.52263 0.61804 0.18519 0.0
H1320 H 0.41898 0.50323 0.16412 0.0
H1321 H 0.42363 0.5543 0.21034 0.0
H1322 H 0.50982 0.46558 0.16159 0.0
H1323 H 0.51097 0.52157 0.15432 0.0
H1324 H 0.47215 0.48604 0.14986 0.0
H1325 H 0.51487 0.52807 0.2182 0.0
H1326 H 0.47924 0.56788 0.22323 0.0
H1327 H 0.51678 0.58383 0.21073 0.0
C1328 C 0.48919 0.10045 0.4944 0.0
C1329 C 0.47241 0.12154 0.48166 0.0
C1330 C 0.50528 0.05735 0.49324 0.0
C1331 C 0.50562 0.03459 0.47888 0.0
C1332 C 0.48885 0.05579 0.46594 0.0
C1333 C 0.47218 0.09856 0.46751 0.0
C1334 C 0.52173 0.03599 0.50748 0.0
C1335 C 0.48886 0.03341 0.45033 0.0
C1336 C 0.57414 0.93654 0.47274 0.0
C1337 C 0.55094 0.89912 0.47404 0.0
C1338 C 0.55994 0.98074 0.47428 0.0
C1339 C 0.52181 0.98787 0.47756 0.0
C1340 C 0.49878 0.94997 0.47946 0.0
C1341 C 0.51342 0.90651 0.4775 0.0
C1342 C 0.58552 1.01991 0.47191 0.0
C1343 C 0.45833 0.95527 0.48339 0.0
H1344 H 0.48967 0.11769 0.5054 0.0
H1345 H 0.45984 0.11457 0.45752 0.0
H1346 H 0.50777 1.00368 0.50986 0.0
H1347 H 0.55143 0.02848 0.50557 0.0
H1348 H 0.51912 0.05775 0.51782 0.0
H1349 H 0.47629 0.05492 0.44126 0.0
H1350 H 0.51761 0.02498 0.44691 0.0
H1351 H 0.47326 1.00153 0.4509 0.0
H1352 H 0.60301 0.93137 0.4699 0.0
H1353 H 0.49519 0.87793 0.47861 0.0
H1354 H 0.58521 0.04194 0.48221 0.0
H1355 H 0.57574 0.04031 0.462 0.0
H1356 H 0.61444 1.0091 0.46967 0.0
H1357 H 0.45514 0.97609 0.49391 0.0
H1358 H 0.44458 0.92255 0.48536 0.0
H1359 H 0.44377 0.97286 0.47387 0.0
C1360 C 0.93787 0.49059 0.5803 0.0
C1361 C 0.91708 0.50082 0.59356 0.0
C1362 C 0.9766 0.49582 0.57998 0.0
C1363 C 0.99545 0.5118 0.59322 0.0
C1364 C 0.97471 0.52238 0.60661 0.0
C1365 C 0.93599 0.51678 0.60662 0.0
C1366 C 0.99739 0.48425 0.56542 0.0
C1367 C 0.9935 0.53939 0.62101 0.0
C1368 C 0.09892 0.48622 0.59719 0.0
C1369 C 0.11533 0.52662 0.59247 0.0
C1370 C 0.06018 0.48106 0.59754 0.0
C1371 C 0.03684 0.51708 0.59307 0.0
C1372 C 0.05314 0.55798 0.58835 0.0
C1373 C 0.09198 0.56224 0.58811 0.0
C1374 C 0.0442 0.43678 0.60261 0.0
C1375 C 0.02949 0.59737 0.58353 0.0
H1376 H 0.92384 0.47894 0.57003 0.0
H1377 H 0.92059 0.52436 0.617 0.0
H1378 H 1.01251 0.51408 0.56118 0.0
H1379 H 0.01826 0.45784 0.56786 0.0
H1380 H 0.9788 0.47222 0.5561 0.0
H1381 H 0.97354 0.54676 0.6304 0.0
H1382 H 1.01372 0.51414 0.62522 0.0
H1383 H 1.00915 0.57036 0.61837 0.0
H1384 H 0.11635 0.45817 0.60039 0.0
H1385 H 0.10401 0.59382 0.58464 0.0
H1386 H 0.02745 0.4222 0.59314 0.0
H1387 H 0.02545 0.44194 0.61258 0.0
H1388 H 0.06594 0.41223 0.60595 0.0
H1389 H 1.01172 0.58784 0.57363 0.0
H1390 H 0.04627 0.6269 0.58018 0.0
H1391 H 1.01087 0.6072 0.59312 0.0
loop_
_geom_bond_atom_site_label_1
_geom_bond_atom_site_label_2
_geom_bond_distance
_geom_bond_site_symmetry_2
_ccdc_geom_bond_type
Cu0 N1 1.999 . S
Cu0 O6 1.974 . S
Cu0 N11 1.985 . S
Cu0 O20 1.959 . S
N1 Cu0 1.999 . S
N1 C3 1.263 . S
N1 C5 1.389 . S
N2 C3 1.358 . S
N2 C4 1.400 1_455 S
C3 N1 1.263 . S
C3 N2 1.358 . S
C3 H9 0.930 . S
C4 N2 1.400 1_655 S
C4 C5 1.351 1_655 S
C4 H21 0.930 . S
C5 N1 1.389 . S
C5 C4 1.351 1_455 S
C5 H10 0.930 1_455 S
O6 Cu0 1.974 . S
O6 C16 1.282 . S
C7 O8 1.261 . S
C7 O20 1.251 . S
O8 C7 1.261 . S
H9 C3 0.930 . S
H10 C5 0.930 1_655 S
N11 Cu0 1.985 . S
N11 C13 1.335 . S
N11 C14 1.390 . S
N12 C13 1.345 . S
N12 C15 1.336 . S
C13 N11 1.335 . S
C13 N12 1.345 . S
C13 H18 0.930 . S
C14 N11 1.390 . S
C14 C15 1.346 . S
C14 H19 0.930 . S
C15 N12 1.336 . S
C15 C14 1.346 . S
C15 H22 0.929 . S
C16 O6 1.282 . S
C16 O17 1.216 . S
O17 C16 1.216 . S
H18 C13 0.930 . S
H19 C14 0.930 . S
O20 Cu0 1.959 . S
O20 C7 1.251 . S
H21 C4 0.930 . S
H22 C15 0.929 . S
Cu23 N24 1.999 . S
Cu23 O29 1.974 . S
Cu23 N34 1.985 . S
Cu23 O43 1.959 . S
N24 Cu23 1.999 . S
N24 C26 1.263 . S
N24 C28 1.389 . S
N25 C26 1.358 . S
N25 C27 1.400 . S
C26 N24 1.263 . S
C26 N25 1.358 . S
C26 H32 0.930 . S
C27 N25 1.400 . S
C27 C28 1.351 . S
C27 H44 0.930 1_565 S
C28 N24 1.389 . S
C28 C27 1.351 . S
C28 H33 0.930 . S
O29 Cu23 1.974 . S
O29 C39 1.282 . S
C30 O31 1.261 . S
C30 O43 1.251 1_545 S
O31 C30 1.261 . S
H32 C26 0.930 . S
H33 C28 0.930 . S
N34 Cu23 1.985 . S
N34 C36 1.335 . S
N34 C37 1.390 . S
N35 C36 1.345 . S
N35 C38 1.336 . S
C36 N34 1.335 . S
C36 N35 1.345 . S
C36 H41 0.930 . S
C37 N34 1.390 . S
C37 C38 1.346 . S
C37 H42 0.930 . S
C38 N35 1.336 . S
C38 C37 1.346 . S
C38 H45 0.929 . S
C39 O29 1.282 . S
C39 O40 1.216 . S
O40 C39 1.216 . S
H41 C36 0.930 . S
H42 C37 0.930 . S
O43 Cu23 1.959 . S
O43 C30 1.251 1_565 S
H44 C27 0.930 1_545 S
H45 C38 0.929 . S
Cu46 N47 1.999 . S
Cu46 O52 1.974 . S
Cu46 N57 1.985 . S
Cu46 O66 1.959 . S
N47 Cu46 1.999 . S
N47 C49 1.263 . S
N47 C51 1.389 . S
N48 C49 1.358 . S
N48 C50 1.400 1_655 S
C49 N47 1.263 . S
C49 N48 1.358 . S
C49 H55 0.930 . S
C50 N48 1.400 1_455 S
C50 C51 1.351 1_455 S
C50 H67 0.930 . S
C51 N47 1.389 . S
C51 C50 1.351 1_655 S
C51 H56 0.930 1_655 S
O52 Cu46 1.974 . S
O52 C62 1.282 . S
C53 O54 1.261 . S
C53 O66 1.251 . S
O54 C53 1.261 . S
H55 C49 0.930 . S
H56 C51 0.930 1_455 S
N57 Cu46 1.985 . S
N57 C59 1.335 . S
N57 C60 1.390 . S
N58 C59 1.345 . S
N58 C61 1.336 . S
C59 N57 1.335 . S
C59 N58 1.345 . S
C59 H64 0.930 . S
C60 N57 1.390 . S
C60 C61 1.346 . S
C60 H65 0.930 . S
C61 N58 1.336 . S
C61 C60 1.346 . S
C61 H68 0.929 . S
C62 O52 1.282 . S
C62 O63 1.216 . S
O63 C62 1.216 . S
H64 C59 0.930 . S
H65 C60 0.930 . S
O66 Cu46 1.959 . S
O66 C53 1.251 . S
H67 C50 0.930 . S
H68 C61 0.929 . S
Cu69 N70 1.999 . S
Cu69 O75 1.974 . S
Cu69 N80 1.985 . S
Cu69 O89 1.959 . S
N70 Cu69 1.999 . S
N70 C72 1.263 . S
N70 C74 1.389 . S
N71 C72 1.358 . S
N71 C73 1.400 . S
C72 N70 1.263 . S
C72 N71 1.358 . S
C72 H78 0.930 . S
C73 N71 1.400 . S
C73 C74 1.351 . S
C73 H90 0.930 1_545 S
C74 N70 1.389 . S
C74 C73 1.351 . S
C74 H79 0.930 . S
O75 Cu69 1.974 . S
O75 C85 1.282 . S
C76 O77 1.261 . S
C76 O89 1.251 1_565 S
O77 C76 1.261 . S
H78 C72 0.930 . S
H79 C74 0.930 . S
N80 Cu69 1.985 . S
N80 C82 1.335 . S
N80 C83 1.390 . S
N81 C82 1.345 . S
N81 C84 1.336 . S
C82 N80 1.335 . S
C82 N81 1.345 . S
C82 H87 0.930 . S
C83 N80 1.390 . S
C83 C84 1.346 . S
C83 H88 0.930 . S
C84 N81 1.336 . S
C84 C83 1.346 . S
C84 H91 0.929 . S
C85 O75 1.282 . S
C85 O86 1.216 . S
O86 C85 1.216 . S
H87 C82 0.930 . S
H88 C83 0.930 . S
O89 Cu69 1.959 . S
O89 C76 1.251 1_545 S
H90 C73 0.930 1_565 S
H91 C84 0.929 . S
Cu92 N93 1.999 . S
Cu92 O98 1.974 . S
Cu92 N103 1.985 . S
Cu92 O112 1.959 . S
N93 Cu92 1.999 . S
N93 C95 1.263 . S
N93 C97 1.389 . S
N94 C95 1.358 . S
N94 C96 1.400 1_455 S
C95 N93 1.263 . S
C95 N94 1.358 . S
C95 H101 0.930 . S
C96 N94 1.400 1_655 S
C96 C97 1.351 1_655 S
C96 H113 0.930 . S
C97 N93 1.389 . S
C97 C96 1.351 1_455 S
C97 H102 0.930 1_455 S
O98 Cu92 1.974 . S
O98 C108 1.282 . S
C99 O100 1.261 . S
C99 O112 1.251 . S
O100 C99 1.261 . S
H101 C95 0.930 . S
H102 C97 0.930 1_655 S
N103 Cu92 1.985 . S
N103 C105 1.335 . S
N103 C106 1.390 . S
N104 C105 1.345 . S
N104 C107 1.336 . S
C105 N103 1.335 . S
C105 N104 1.345 . S
C105 H110 0.930 . S
C106 N103 1.390 . S
C106 C107 1.346 . S
C106 H111 0.930 . S
C107 N104 1.336 . S
C107 C106 1.346 . S
C107 H114 0.929 . S
C108 O98 1.282 . S
C108 O109 1.216 . S
O109 C108 1.216 . S
H110 C105 0.930 . S
H111 C106 0.930 . S
O112 Cu92 1.959 . S
O112 C99 1.251 . S
H113 C96 0.930 . S
H114 C107 0.929 . S
Cu115 N116 1.999 . S
Cu115 O121 1.974 . S
Cu115 N126 1.985 . S
Cu115 O135 1.959 . S
N116 Cu115 1.999 . S
N116 C118 1.263 . S
N116 C120 1.389 . S
N117 C118 1.358 . S
N117 C119 1.400 . S
C118 N116 1.263 . S
C118 N117 1.358 . S
C118 H124 0.930 . S
C119 N117 1.400 . S
C119 C120 1.351 . S
C119 H136 0.930 1_565 S
C120 N116 1.389 . S
C120 C119 1.351 . S
C120 H125 0.930 . S
O121 Cu115 1.974 . S
O121 C131 1.282 . S
C122 O123 1.261 . S
C122 O135 1.251 1_545 S
O123 C122 1.261 . S
H124 C118 0.930 . S
H125 C120 0.930 . S
N126 Cu115 1.985 . S
N126 C128 1.335 . S
N126 C129 1.390 . S
N127 C128 1.345 . S
N127 C130 1.336 . S
C128 N126 1.335 . S
C128 N127 1.345 . S
C128 H133 0.930 . S
C129 N126 1.390 . S
C129 C130 1.346 . S
C129 H134 0.930 . S
C130 N127 1.336 . S
C130 C129 1.346 . S
C130 H137 0.929 . S
C131 O121 1.282 . S
C131 O132 1.216 . S
O132 C131 1.216 . S
H133 C128 0.930 . S
H134 C129 0.930 . S
O135 Cu115 1.959 . S
O135 C122 1.251 1_565 S
H136 C119 0.930 1_545 S
H137 C130 0.929 . S
Cu138 N139 1.999 . S
Cu138 O144 1.974 . S
Cu138 N149 1.985 . S
Cu138 O158 1.959 . S
N139 Cu138 1.999 . S
N139 C141 1.263 . S
N139 C143 1.389 . S
N140 C141 1.358 . S
N140 C142 1.400 1_655 S
C141 N139 1.263 . S
C141 N140 1.358 . S
C141 H147 0.930 . S
C142 N140 1.400 1_455 S
C142 C143 1.351 1_455 S
C142 H159 0.930 . S
C143 N139 1.389 . S
C143 C142 1.351 1_655 S
C143 H148 0.930 1_655 S
O144 Cu138 1.974 . S
O144 C154 1.282 . S
C145 O146 1.261 . S
C145 O158 1.251 . S
O146 C145 1.261 . S
H147 C141 0.930 . S
H148 C143 0.930 1_455 S
N149 Cu138 1.985 . S
N149 C151 1.335 . S
N149 C152 1.390 . S
N150 C151 1.345 . S
N150 C153 1.336 . S
C151 N149 1.335 . S
C151 N150 1.345 . S
C151 H156 0.930 . S
C152 N149 1.390 . S
C152 C153 1.346 . S
C152 H157 0.930 . S
C153 N150 1.336 . S
C153 C152 1.346 . S
C153 H160 0.929 . S
C154 O144 1.282 . S
C154 O155 1.216 . S
O155 C154 1.216 . S
H156 C151 0.930 . S
H157 C152 0.930 . S
O158 Cu138 1.959 . S
O158 C145 1.251 . S
H159 C142 0.930 . S
H160 C153 0.929 . S
Cu161 N162 1.999 . S
Cu161 O167 1.974 . S
Cu161 N172 1.985 . S
Cu161 O181 1.959 . S
N162 Cu161 1.999 . S
N162 C164 1.263 . S
N162 C166 1.389 . S
N163 C164 1.358 . S
N163 C165 1.400 . S
C164 N162 1.263 . S
C164 N163 1.358 . S
C164 H170 0.930 . S
C165 N163 1.400 . S
C165 C166 1.351 . S
C165 H182 0.930 1_545 S
C166 N162 1.389 . S
C166 C165 1.351 . S
C166 H171 0.930 . S
O167 Cu161 1.974 . S
O167 C177 1.282 . S
C168 O169 1.261 . S
C168 O181 1.251 1_565 S
O169 C168 1.261 . S
H170 C164 0.930 . S
H171 C166 0.930 . S
N172 Cu161 1.985 . S
N172 C174 1.335 . S
N172 C175 1.390 . S
N173 C174 1.345 . S
N173 C176 1.336 . S
C174 N172 1.335 . S
C174 N173 1.345 . S
C174 H179 0.930 . S
C175 N172 1.390 . S
C175 C176 1.346 . S
C175 H180 0.930 . S
C176 N173 1.336 . S
C176 C175 1.346 . S
C176 H183 0.929 . S
C177 O167 1.282 . S
C177 O178 1.216 . S
O178 C177 1.216 . S
H179 C174 0.930 . S
H180 C175 0.930 . S
O181 Cu161 1.959 . S
O181 C168 1.251 1_545 S
H182 C165 0.930 1_565 S
H183 C176 0.929 . S
Cu184 N185 1.999 . S
Cu184 O190 1.974 . S
Cu184 N195 1.985 . S
Cu184 O204 1.959 . S
N185 Cu184 1.999 . S
N185 C187 1.263 . S
N185 C189 1.389 . S
N186 C187 1.358 . S
N186 C188 1.400 . S
C187 N185 1.263 . S
C187 N186 1.358 . S
C187 H193 0.930 . S
C188 N186 1.400 . S
C188 C189 1.351 . S
C188 H205 0.930 . S
C189 N185 1.389 . S
C189 C188 1.351 . S
C189 H194 0.930 . S
O190 Cu184 1.974 . S
O190 C200 1.282 . S
C191 O192 1.261 . S
C191 O204 1.251 . S
O192 C191 1.261 . S
H193 C187 0.930 . S
H194 C189 0.930 . S
N195 Cu184 1.985 . S
N195 C197 1.335 . S
N195 C198 1.390 . S
N196 C197 1.345 . S
N196 C199 1.336 . S
C197 N195 1.335 . S
C197 N196 1.345 . S
C197 H202 0.930 . S
C198 N195 1.390 . S
C198 C199 1.346 . S
C198 H203 0.930 . S
C199 N196 1.336 . S
C199 C198 1.346 . S
C199 H206 0.929 . S
C200 O190 1.282 . S
C200 O201 1.216 . S
O201 C200 1.216 . S
H202 C197 0.930 . S
H203 C198 0.930 . S
O204 Cu184 1.959 . S
O204 C191 1.251 . S
H205 C188 0.930 . S
H206 C199 0.929 . S
Cu207 N208 1.999 . S
Cu207 O213 1.974 . S
Cu207 N218 1.985 . S
Cu207 O227 1.959 . S
N208 Cu207 1.999 . S
N208 C210 1.263 . S
N208 C212 1.389 . S
N209 C210 1.358 . S
N209 C211 1.400 . S
C210 N208 1.263 . S
C210 N209 1.358 . S
C210 H216 0.930 . S
C211 N209 1.400 . S
C211 C212 1.351 . S
C211 H228 0.930 . S
C212 N208 1.389 . S
C212 C211 1.351 . S
C212 H217 0.930 . S
O213 Cu207 1.974 . S
O213 C223 1.282 . S
C214 O215 1.261 . S
C214 O227 1.251 . S
O215 C214 1.261 . S
H216 C210 0.930 . S
H217 C212 0.930 . S
N218 Cu207 1.985 . S
N218 C220 1.335 . S
N218 C221 1.390 . S
N219 C220 1.345 . S
N219 C222 1.336 . S
C220 N218 1.335 . S
C220 N219 1.345 . S
C220 H225 0.930 . S
C221 N218 1.390 . S
C221 C222 1.346 . S
C221 H226 0.930 . S
C222 N219 1.336 . S
C222 C221 1.346 . S
C222 H229 0.929 . S
C223 O213 1.282 . S
C223 O224 1.216 . S
O224 C223 1.216 . S
H225 C220 0.930 . S
H226 C221 0.930 . S
O227 Cu207 1.959 . S
O227 C214 1.251 . S
H228 C211 0.930 . S
H229 C222 0.929 . S
Cu230 N231 1.999 . S
Cu230 O236 1.974 . S
Cu230 N241 1.985 . S
Cu230 O250 1.959 . S
N231 Cu230 1.999 . S
N231 C233 1.263 . S
N231 C235 1.389 . S
N232 C233 1.358 . S
N232 C234 1.400 . S
C233 N231 1.263 . S
C233 N232 1.358 . S
C233 H239 0.930 . S
C234 N232 1.400 . S
C234 C235 1.351 . S
C234 H251 0.930 . S
C235 N231 1.389 . S
C235 C234 1.351 . S
C235 H240 0.930 . S
O236 Cu230 1.974 . S
O236 C246 1.282 . S
C237 O238 1.261 . S
C237 O250 1.251 . S
O238 C237 1.261 . S
H239 C233 0.930 . S
H240 C235 0.930 . S
N241 Cu230 1.985 . S
N241 C243 1.335 . S
N241 C244 1.390 . S
N242 C243 1.345 . S
N242 C245 1.336 . S
C243 N241 1.335 . S
C243 N242 1.345 . S
C243 H248 0.930 . S
C244 N241 1.390 . S
C244 C245 1.346 . S
C244 H249 0.930 . S
C245 N242 1.336 . S
C245 C244 1.346 . S
C245 H252 0.929 . S
C246 O236 1.282 . S
C246 O247 1.216 . S
O247 C246 1.216 . S
H248 C243 0.930 . S
H249 C244 0.930 . S
O250 Cu230 1.959 . S
O250 C237 1.251 . S
H251 C234 0.930 . S
H252 C245 0.929 . S
Cu253 N254 1.999 . S
Cu253 O259 1.974 . S
Cu253 N264 1.985 . S
Cu253 O273 1.959 . S
N254 Cu253 1.999 . S
N254 C256 1.263 . S
N254 C258 1.389 . S
N255 C256 1.358 . S
N255 C257 1.400 . S
C256 N254 1.263 . S
C256 N255 1.358 . S
C256 H262 0.930 . S
C257 N255 1.400 . S
C257 C258 1.351 . S
C257 H274 0.930 . S
C258 N254 1.389 . S
C258 C257 1.351 . S
C258 H263 0.930 . S
O259 Cu253 1.974 . S
O259 C269 1.282 . S
C260 O261 1.261 . S
C260 O273 1.251 . S
O261 C260 1.261 . S
H262 C256 0.930 . S
H263 C258 0.930 . S
N264 Cu253 1.985 . S
N264 C266 1.335 . S
N264 C267 1.390 . S
N265 C266 1.345 . S
N265 C268 1.336 . S
C266 N264 1.335 . S
C266 N265 1.345 . S
C266 H271 0.930 . S
C267 N264 1.390 . S
C267 C268 1.346 . S
C267 H272 0.930 . S
C268 N265 1.336 . S
C268 C267 1.346 . S
C268 H275 0.929 . S
C269 O259 1.282 . S
C269 O270 1.216 . S
O270 C269 1.216 . S
H271 C266 0.930 . S
H272 C267 0.930 . S
O273 Cu253 1.959 . S
O273 C260 1.251 . S
H274 C257 0.930 . S
H275 C268 0.929 . S
Cu276 N277 1.999 . S
Cu276 O282 1.974 . S
Cu276 N287 1.985 . S
Cu276 O296 1.959 . S
N277 Cu276 1.999 . S
N277 C279 1.263 . S
N277 C281 1.389 . S
N278 C279 1.358 . S
N278 C280 1.400 . S
C279 N277 1.263 . S
C279 N278 1.358 . S
C279 H285 0.930 . S
C280 N278 1.400 . S
C280 C281 1.351 . S
C280 H297 0.930 . S
C281 N277 1.389 . S
C281 C280 1.351 . S
C281 H286 0.930 . S
O282 Cu276 1.974 . S
O282 C292 1.282 . S
C283 O284 1.261 . S
C283 O296 1.251 . S
O284 C283 1.261 . S
H285 C279 0.930 . S
H286 C281 0.930 . S
N287 Cu276 1.985 . S
N287 C289 1.335 . S
N287 C290 1.390 . S
N288 C289 1.345 . S
N288 C291 1.336 . S
C289 N287 1.335 . S
C289 N288 1.345 . S
C289 H294 0.930 . S
C290 N287 1.390 . S
C290 C291 1.346 . S
C290 H295 0.930 . S
C291 N288 1.336 . S
C291 C290 1.346 . S
C291 H298 0.929 . S
C292 O282 1.282 . S
C292 O293 1.216 . S
O293 C292 1.216 . S
H294 C289 0.930 . S
H295 C290 0.930 . S
O296 Cu276 1.959 . S
O296 C283 1.251 . S
H297 C280 0.930 . S
H298 C291 0.929 . S
Cu299 N300 1.999 . S
Cu299 O305 1.974 . S
Cu299 N310 1.985 . S
Cu299 O319 1.959 . S
N300 Cu299 1.999 . S
N300 C302 1.263 . S
N300 C304 1.389 . S
N301 C302 1.358 . S
N301 C303 1.400 . S
C302 N300 1.263 . S
C302 N301 1.358 . S
C302 H308 0.930 . S
C303 N301 1.400 . S
C303 C304 1.351 . S
C303 H320 0.930 . S
C304 N300 1.389 . S
C304 C303 1.351 . S
C304 H309 0.930 . S
O305 Cu299 1.974 . S
O305 C315 1.282 . S
C306 O307 1.261 . S
C306 O319 1.251 . S
O307 C306 1.261 . S
H308 C302 0.930 . S
H309 C304 0.930 . S
N310 Cu299 1.985 . S
N310 C312 1.335 . S
N310 C313 1.390 . S
N311 C312 1.345 . S
N311 C314 1.336 . S
C312 N310 1.335 . S
C312 N311 1.345 . S
C312 H317 0.930 . S
C313 N310 1.390 . S
C313 C314 1.346 . S
C313 H318 0.930 . S
C314 N311 1.336 . S
C314 C313 1.346 . S
C314 H321 0.929 . S
C315 O305 1.282 . S
C315 O316 1.216 . S
O316 C315 1.216 . S
H317 C312 0.930 . S
H318 C313 0.930 . S
O319 Cu299 1.959 . S
O319 C306 1.251 . S
H320 C303 0.930 . S
H321 C314 0.929 . S
Cu322 N323 1.999 . S
Cu322 O328 1.974 . S
Cu322 N333 1.985 . S
Cu322 O342 1.959 . S
N323 Cu322 1.999 . S
N323 C325 1.263 . S
N323 C327 1.389 . S
N324 C325 1.358 . S
N324 C326 1.400 . S
C325 N323 1.263 . S
C325 N324 1.358 . S
C325 H331 0.930 . S
C326 N324 1.400 . S
C326 C327 1.351 . S
C326 H343 0.930 . S
C327 N323 1.389 . S
C327 C326 1.351 . S
C327 H332 0.930 . S
O328 Cu322 1.974 . S
O328 C338 1.282 . S
C329 O330 1.261 . S
C329 O342 1.251 . S
O330 C329 1.261 . S
H331 C325 0.930 . S
H332 C327 0.930 . S
N333 Cu322 1.985 . S
N333 C335 1.335 . S
N333 C336 1.390 . S
N334 C335 1.345 . S
N334 C337 1.336 . S
C335 N333 1.335 . S
C335 N334 1.345 . S
C335 H340 0.930 . S
C336 N333 1.390 . S
C336 C337 1.346 . S
C336 H341 0.930 . S
C337 N334 1.336 . S
C337 C336 1.346 . S
C337 H344 0.929 . S
C338 O328 1.282 . S
C338 O339 1.216 . S
O339 C338 1.216 . S
H340 C335 0.930 . S
H341 C336 0.930 . S
O342 Cu322 1.959 . S
O342 C329 1.251 . S
H343 C326 0.930 . S
H344 C337 0.929 . S
Cu345 N346 1.999 . S
Cu345 O351 1.974 . S
Cu345 N356 1.985 . S
Cu345 O365 1.959 . S
N346 Cu345 1.999 . S
N346 C348 1.263 . S
N346 C350 1.389 . S
N347 C348 1.358 . S
N347 C349 1.400 . S
C348 N346 1.263 . S
C348 N347 1.358 . S
C348 H354 0.930 . S
C349 N347 1.400 . S
C349 C350 1.351 . S
C349 H366 0.930 . S
C350 N346 1.389 . S
C350 C349 1.351 . S
C350 H355 0.930 . S
O351 Cu345 1.974 . S
O351 C361 1.282 . S
C352 O353 1.261 . S
C352 O365 1.251 . S
O353 C352 1.261 . S
H354 C348 0.930 . S
H355 C350 0.930 . S
N356 Cu345 1.985 . S
N356 C358 1.335 . S
N356 C359 1.390 . S
N357 C358 1.345 . S
N357 C360 1.336 . S
C358 N356 1.335 . S
C358 N357 1.345 . S
C358 H363 0.930 . S
C359 N356 1.390 . S
C359 C360 1.346 . S
C359 H364 0.930 . S
C360 N357 1.336 . S
C360 C359 1.346 . S
C360 H367 0.929 . S
C361 O351 1.282 . S
C361 O362 1.216 . S
O362 C361 1.216 . S
H363 C358 0.930 . S
H364 C359 0.930 . S
O365 Cu345 1.959 . S
O365 C352 1.251 . S
H366 C349 0.930 . S
H367 C360 0.929 . S
C368 C369 1.391 . S
C368 C370 1.394 . S
C368 H384 0.931 . S
C369 C368 1.391 . S
C369 C373 1.376 . S
C370 C368 1.394 . S
C370 C371 1.369 . S
C370 C374 1.531 . S
C371 C370 1.369 . S
C371 C372 1.410 . S
C371 C379 1.503 . S
C372 C371 1.410 . S
C372 C373 1.392 . S
C372 C375 1.511 . S
C373 C369 1.376 . S
C373 C372 1.392 . S
C373 H385 0.929 . S
C374 C370 1.531 . S
C374 H386 0.960 . S
C374 H387 0.962 . S
C374 H388 0.960 . S
C375 C372 1.511 . S
C375 H389 0.961 . S
C375 H390 0.961 . S
C375 H391 0.961 . S
C376 C377 1.370 . S
C376 C378 1.363 . S
C376 H392 0.931 . S
C377 C376 1.370 . S
C377 C381 1.408 . S
C378 C376 1.363 . S
C378 C379 1.370 . S
C378 C382 1.524 . S
C379 C371 1.503 . S
C379 C378 1.370 . S
C379 C380 1.403 . S
C380 C379 1.403 . S
C380 C381 1.404 . S
C380 C383 1.539 . S
C381 C377 1.408 . S
C381 C380 1.404 . S
C381 H393 0.930 . S
C382 C378 1.524 . S
C382 H394 0.956 . S
C382 H395 0.961 . S
C382 H396 0.961 . S
C383 C380 1.539 . S
C383 H397 0.958 . S
C383 H398 0.961 . S
C383 H399 0.960 . S
H384 C368 0.931 . S
H385 C373 0.929 . S
H386 C374 0.960 . S
H387 C374 0.962 . S
H388 C374 0.960 . S
H389 C375 0.961 . S
H390 C375 0.961 . S
H391 C375 0.961 . S
H392 C376 0.931 . S
H393 C381 0.930 . S
H394 C382 0.956 . S
H395 C382 0.961 . S
H396 C382 0.961 . S
H397 C383 0.958 . S
H398 C383 0.961 . S
H399 C383 0.960 . S
C400 C401 1.391 . S
C400 C402 1.394 . S
C400 H416 0.931 . S
C401 C400 1.391 . S
C401 C405 1.376 . S
C402 C400 1.394 . S
C402 C403 1.369 . S
C402 C406 1.531 . S
C403 C402 1.369 . S
C403 C404 1.410 . S
C403 C411 1.503 . S
C404 C403 1.410 . S
C404 C405 1.392 . S
C404 C407 1.511 . S
C405 C401 1.376 . S
C405 C404 1.392 . S
C405 H417 0.929 . S
C406 C402 1.531 . S
C406 H418 0.960 . S
C406 H419 0.962 . S
C406 H420 0.960 . S
C407 C404 1.511 . S
C407 H421 0.961 . S
C407 H422 0.961 . S
C407 H423 0.961 . S
C408 C409 1.370 . S
C408 C410 1.363 . S
C408 H424 0.931 . S
C409 C408 1.370 . S
C409 C413 1.408 . S
C410 C408 1.363 . S
C410 C411 1.370 . S
C410 C414 1.524 . S
C411 C403 1.503 . S
C411 C410 1.370 . S
C411 C412 1.403 . S
C412 C411 1.403 . S
C412 C413 1.404 . S
C412 C415 1.539 . S
C413 C409 1.408 . S
C413 C412 1.404 . S
C413 H425 0.930 . S
C414 C410 1.524 . S
C414 H426 0.956 . S
C414 H427 0.961 . S
C414 H428 0.961 . S
C415 C412 1.539 . S
C415 H429 0.958 . S
C415 H430 0.961 . S
C415 H431 0.960 . S
H416 C400 0.931 . S
H417 C405 0.929 . S
H418 C406 0.960 . S
H419 C406 0.962 . S
H420 C406 0.960 . S
H421 C407 0.961 . S
H422 C407 0.961 . S
H423 C407 0.961 . S
H424 C408 0.931 . S
H425 C413 0.930 . S
H426 C414 0.956 . S
H427 C414 0.961 . S
H428 C414 0.961 . S
H429 C415 0.958 . S
H430 C415 0.961 . S
H431 C415 0.960 . S
C432 C433 1.391 . S
C432 C434 1.394 . S
C432 H448 0.931 . S
C433 C432 1.391 . S
C433 C437 1.376 . S
C434 C432 1.394 . S
C434 C435 1.369 . S
C434 C438 1.531 . S
C435 C434 1.369 . S
C435 C436 1.410 . S
C435 C443 1.503 . S
C436 C435 1.410 . S
C436 C437 1.392 . S
C436 C439 1.511 . S
C437 C433 1.376 . S
C437 C436 1.392 . S
C437 H449 0.929 . S
C438 C434 1.531 . S
C438 H450 0.960 . S
C438 H451 0.962 . S
C438 H452 0.960 . S
C439 C436 1.511 . S
C439 H453 0.961 . S
C439 H454 0.961 . S
C439 H455 0.961 . S
C440 C441 1.370 . S
C440 C442 1.363 . S
C440 H456 0.931 . S
C441 C440 1.370 . S
C441 C445 1.408 . S
C442 C440 1.363 . S
C442 C443 1.370 . S
C442 C446 1.524 . S
C443 C435 1.503 . S
C443 C442 1.370 . S
C443 C444 1.403 . S
C444 C443 1.403 . S
C444 C445 1.404 . S
C444 C447 1.539 . S
C445 C441 1.408 . S
C445 C444 1.404 . S
C445 H457 0.930 . S
C446 C442 1.524 . S
C446 H458 0.956 . S
C446 H459 0.961 . S
C446 H460 0.961 . S
C447 C444 1.539 . S
C447 H461 0.958 . S
C447 H462 0.961 . S
C447 H463 0.960 . S
H448 C432 0.931 . S
H449 C437 0.929 . S
H450 C438 0.960 . S
H451 C438 0.962 . S
H452 C438 0.960 . S
H453 C439 0.961 . S
H454 C439 0.961 . S
H455 C439 0.961 . S
H456 C440 0.931 . S
H457 C445 0.930 . S
H458 C446 0.956 . S
H459 C446 0.961 . S
H460 C446 0.961 . S
H461 C447 0.958 . S
H462 C447 0.961 . S
H463 C447 0.960 . S
C464 C465 1.391 . S
C464 C466 1.394 . S
C464 H480 0.931 . S
C465 C464 1.391 . S
C465 C469 1.376 . S
C466 C464 1.394 . S
C466 C467 1.369 . S
C466 C470 1.531 . S
C467 C466 1.369 . S
C467 C468 1.410 . S
C467 C475 1.503 . S
C468 C467 1.410 . S
C468 C469 1.392 . S
C468 C471 1.511 . S
C469 C465 1.376 . S
C469 C468 1.392 . S
C469 H481 0.929 . S
C470 C466 1.531 . S
C470 H482 0.960 . S
C470 H483 0.962 . S
C470 H484 0.960 . S
C471 C468 1.511 . S
C471 H485 0.961 . S
C471 H486 0.961 . S
C471 H487 0.961 . S
C472 C473 1.370 . S
C472 C474 1.363 . S
C472 H488 0.931 . S
C473 C472 1.370 . S
C473 C477 1.408 . S
C474 C472 1.363 . S
C474 C475 1.370 . S
C474 C478 1.524 . S
C475 C467 1.503 . S
C475 C474 1.370 . S
C475 C476 1.403 . S
C476 C475 1.403 . S
C476 C477 1.404 . S
C476 C479 1.539 . S
C477 C473 1.408 . S
C477 C476 1.404 . S
C477 H489 0.930 . S
C478 C474 1.524 . S
C478 H490 0.956 . S
C478 H491 0.961 . S
C478 H492 0.961 . S
C479 C476 1.539 . S
C479 H493 0.958 . S
C479 H494 0.961 . S
C479 H495 0.960 . S
H480 C464 0.931 . S
H481 C469 0.929 . S
H482 C470 0.960 . S
H483 C470 0.962 . S
H484 C470 0.960 . S
H485 C471 0.961 . S
H486 C471 0.961 . S
H487 C471 0.961 . S
H488 C472 0.931 . S
H489 C477 0.930 . S
H490 C478 0.956 . S
H491 C478 0.961 . S
H492 C478 0.961 . S
H493 C479 0.958 . S
H494 C479 0.961 . S
H495 C479 0.960 . S
C496 C497 1.391 . S
C496 C498 1.394 . S
C496 H512 0.931 . S
C497 C496 1.391 . S
C497 C501 1.376 . S
C498 C496 1.394 . S
C498 C499 1.369 . S
C498 C502 1.531 . S
C499 C498 1.369 . S
C499 C500 1.410 . S
C499 C507 1.503 . S
C500 C499 1.410 . S
C500 C501 1.392 . S
C500 C503 1.511 . S
C501 C497 1.376 . S
C501 C500 1.392 . S
C501 H513 0.929 . S
C502 C498 1.531 . S
C502 H514 0.960 . S
C502 H515 0.962 . S
C502 H516 0.960 . S
C503 C500 1.511 . S
C503 H517 0.958 1_554 S
C503 H518 0.961 1_554 S
C503 H519 0.961 . S
C504 C505 1.370 . S
C504 C506 1.363 . S
C504 H520 0.931 . S
C505 C504 1.370 . S
C505 C509 1.408 . S
C506 C504 1.363 . S
C506 C507 1.370 1_556 S
C506 C510 1.524 . S
C507 C499 1.503 . S
C507 C506 1.370 1_554 S
C507 C508 1.403 . S
C508 C507 1.403 . S
C508 C509 1.404 1_554 S
C508 C511 1.539 . S
C509 C505 1.408 . S
C509 C508 1.404 1_556 S
C509 H521 0.930 . S
C510 C506 1.524 . S
C510 H522 0.954 . S
C510 H523 0.961 . S
C510 H524 0.961 . S
C511 C508 1.539 . S
C511 H525 0.958 . S
C511 H526 0.961 . S
C511 H527 0.960 . S
H512 C496 0.931 . S
H513 C501 0.929 . S
H514 C502 0.960 . S
H515 C502 0.962 . S
H516 C502 0.960 . S
H517 C503 0.958 1_556 S
H518 C503 0.961 1_556 S
H519 C503 0.961 . S
H520 C504 0.931 . S
H521 C509 0.930 . S
H522 C510 0.954 . S
H523 C510 0.961 . S
H524 C510 0.961 . S
H525 C511 0.958 . S
H526 C511 0.961 . S
H527 C511 0.960 . S
C528 C529 1.391 . S
C528 C530 1.394 . S
C528 H544 0.931 . S
C529 C528 1.391 . S
C529 C533 1.376 . S
C530 C528 1.394 . S
C530 C531 1.369 . S
C530 C534 1.531 . S
C531 C530 1.369 . S
C531 C532 1.410 . S
C531 C539 1.503 . S
C532 C531 1.410 . S
C532 C533 1.392 . S
C532 C535 1.511 . S
C533 C529 1.376 . S
C533 C532 1.392 . S
C533 H545 0.929 . S
C534 C530 1.531 . S
C534 H546 0.960 1_554 S
C534 H547 0.962 . S
C534 H548 0.960 . S
C535 C532 1.511 . S
C535 H549 0.961 . S
C535 H550 0.961 . S
C535 H551 0.961 . S
C536 C537 1.370 1_554 S
C536 C538 1.363 . S
C536 H552 0.931 1_455 S
C537 C536 1.370 1_556 S
C537 C541 1.408 . S
C538 C536 1.363 . S
C538 C539 1.370 . S
C538 C542 1.524 . S
C539 C531 1.503 . S
C539 C538 1.370 . S
C539 C540 1.403 1_554 S
C540 C539 1.403 1_556 S
C540 C541 1.404 . S
C540 C543 1.539 . S
C541 C537 1.408 . S
C541 C540 1.404 . S
C541 H553 0.930 . S
C542 C538 1.524 . S
C542 H554 0.956 . S
C542 H555 0.961 . S
C542 H556 0.961 1_455 S
C543 C540 1.539 . S
C543 H557 0.958 . S
C543 H558 0.961 . S
C543 H559 0.960 . S
H544 C528 0.931 . S
H545 C533 0.929 . S
H546 C534 0.960 1_556 S
H547 C534 0.962 . S
H548 C534 0.960 . S
H549 C535 0.961 . S
H550 C535 0.961 . S
H551 C535 0.961 . S
H552 C536 0.931 1_655 S
H553 C541 0.930 . S
H554 C542 0.956 . S
H555 C542 0.961 . S
H556 C542 0.961 1_655 S
H557 C543 0.958 . S
H558 C543 0.961 . S
H559 C543 0.960 . S
C560 C561 1.391 . S
C560 C562 1.394 . S
C560 H576 0.931 . S
C561 C560 1.391 . S
C561 C565 1.376 . S
C562 C560 1.394 . S
C562 C563 1.341 1_556 S
C562 C566 1.531 . S
C563 C562 1.341 1_554 S
C563 C564 1.401 1_554 S
C563 C571 1.547 . S
C564 C563 1.401 1_556 S
C564 C565 1.392 . S
C564 C567 1.511 1_556 S
C565 C561 1.376 . S
C565 C564 1.392 . S
C565 H577 0.929 . S
C566 C562 1.531 . S
C566 H578 0.960 . S
C566 H579 0.962 1_556 S
C566 H580 0.960 . S
C567 C564 1.511 1_554 S
C567 H581 0.961 . S
C567 H582 0.961 . S
C567 H583 0.972 . S
C568 C569 1.370 . S
C568 C570 1.363 . S
C568 H584 0.931 . S
C569 C568 1.370 . S
C569 C573 1.408 . S
C570 C568 1.363 . S
C570 C571 1.370 . S
C570 C574 1.524 . S
C571 C563 1.547 . S
C571 C570 1.370 . S
C571 C572 1.403 . S
C572 C571 1.403 . S
C572 C573 1.404 . S
C572 C575 1.539 1_554 S
C573 C569 1.408 . S
C573 C572 1.404 . S
C573 H585 0.930 . S
C574 C570 1.524 . S
C574 H586 0.956 . S
C574 H587 0.961 . S
C574 H588 0.961 . S
C575 C572 1.539 1_556 S
C575 H589 0.958 . S
C575 H590 0.961 . S
C575 H591 0.960 . S
H576 C560 0.931 . S
H577 C565 0.929 . S
H578 C566 0.960 . S
H579 C566 0.962 1_554 S
H580 C566 0.960 . S
H581 C567 0.961 . S
H582 C567 0.961 . S
H583 C567 0.972 . S
H584 C568 0.931 . S
H585 C573 0.930 . S
H586 C574 0.956 . S
H587 C574 0.961 . S
H588 C574 0.961 . S
H589 C575 0.958 . S
H590 C575 0.961 . S
H591 C575 0.960 . S
C592 C593 1.391 . S
C592 C594 1.394 . S
C592 H608 0.931 . S
C593 C592 1.391 . S
C593 C597 1.376 . S
C594 C592 1.394 . S
C594 C595 1.369 . S
C594 C598 1.531 . S
C595 C594 1.369 . S
C595 C596 1.410 . S
C595 C603 1.503 . S
C596 C595 1.410 . S
C596 C597 1.392 . S
C596 C599 1.511 . S
C597 C593 1.376 . S
C597 C596 1.392 . S
C597 H609 0.929 . S
C598 C594 1.531 . S
C598 H610 0.960 . S
C598 H611 0.978 . S
C598 H612 0.960 . S
C599 C596 1.511 . S
C599 H613 0.961 . S
C599 H614 0.961 . S
C599 H615 0.961 . S
C600 C601 1.370 . S
C600 C602 1.366 . S
C600 H616 0.931 . S
C601 C600 1.370 . S
C601 C605 1.408 1_556 S
C602 C600 1.366 . S
C602 C603 1.367 1_556 S
C602 C606 1.525 . S
C603 C595 1.503 . S
C603 C602 1.367 1_554 S
C603 C604 1.403 . S
C604 C603 1.403 . S
C604 C605 1.404 . S
C604 C607 1.539 . S
C605 C601 1.408 1_554 S
C605 C604 1.404 . S
C605 H617 0.930 . S
C606 C602 1.525 . S
C606 H618 0.956 . S
C606 H619 0.961 1_556 S
C606 H620 0.961 . S
C607 C604 1.539 . S
C607 H621 0.958 . S
C607 H622 0.961 . S
C607 H623 0.960 . S
H608 C592 0.931 . S
H609 C597 0.929 . S
H610 C598 0.960 . S
H611 C598 0.978 . S
H612 C598 0.960 . S
H613 C599 0.961 . S
H614 C599 0.961 . S
H615 C599 0.961 . S
H616 C600 0.931 . S
H617 C605 0.930 . S
H618 C606 0.956 . S
H619 C606 0.961 1_554 S
H620 C606 0.961 . S
H621 C607 0.958 . S
H622 C607 0.961 . S
H623 C607 0.960 . S
C624 C625 1.391 . S
C624 C626 1.394 . S
C624 H640 0.931 . S
C625 C624 1.391 . S
C625 C629 1.376 . S
C626 C624 1.394 . S
C626 C627 1.369 . S
C626 C630 1.531 . S
C627 C626 1.369 . S
C627 C628 1.410 . S
C627 C635 1.503 . S
C628 C627 1.410 . S
C628 C629 1.392 . S
C628 C631 1.511 . S
C629 C625 1.376 . S
C629 C628 1.392 . S
C629 H641 0.929 . S
C630 C626 1.531 . S
C630 H642 0.960 . S
C630 H643 0.962 . S
C630 H644 0.960 . S
C631 C628 1.511 . S
C631 H645 0.961 . S
C631 H646 0.961 . S
C631 H647 0.961 . S
C632 C633 1.370 . S
C632 C634 1.363 . S
C632 H648 0.931 . S
C633 C632 1.370 . S
C633 C637 1.408 . S
C634 C632 1.363 . S
C634 C635 1.370 . S
C634 C638 1.524 . S
C635 C627 1.503 . S
C635 C634 1.370 . S
C635 C636 1.403 . S
C636 C635 1.403 . S
C636 C637 1.404 . S
C636 C639 1.539 . S
C637 C633 1.408 . S
C637 C636 1.404 . S
C637 H649 0.930 . S
C638 C634 1.524 . S
C638 H650 0.956 . S
C638 H651 0.961 . S
C638 H652 0.961 . S
C639 C636 1.539 . S
C639 H653 0.958 . S
C639 H654 0.961 . S
C639 H655 0.960 . S
H640 C624 0.931 . S
H641 C629 0.929 . S
H642 C630 0.960 . S
H643 C630 0.962 . S
H644 C630 0.960 . S
H645 C631 0.961 . S
H646 C631 0.961 . S
H647 C631 0.961 . S
H648 C632 0.931 . S
H649 C637 0.930 . S
H650 C638 0.956 . S
H651 C638 0.961 . S
H652 C638 0.961 . S
H653 C639 0.958 . S
H654 C639 0.961 . S
H655 C639 0.960 . S
C656 C657 1.391 . S
C656 C658 1.394 . S
C656 H672 0.931 . S
C657 C656 1.391 . S
C657 C661 1.376 . S
C658 C656 1.394 . S
C658 C659 1.369 . S
C658 C662 1.531 . S
C659 C658 1.369 . S
C659 C660 1.410 . S
C659 C667 1.503 . S
C660 C659 1.410 . S
C660 C661 1.392 . S
C660 C663 1.511 . S
C661 C657 1.376 . S
C661 C660 1.392 . S
C661 H673 0.929 1_655 S
C662 C658 1.531 . S
C662 H674 0.960 . S
C662 H675 0.962 . S
C662 H676 0.960 . S
C663 C660 1.511 . S
C663 H677 0.961 1_655 S
C663 H678 0.961 . S
C663 H679 0.961 . S
C664 C665 1.370 . S
C664 C666 1.363 . S
C664 H680 0.931 . S
C665 C664 1.370 . S
C665 C669 1.408 . S
C666 C664 1.363 . S
C666 C667 1.370 . S
C666 C670 1.524 . S
C667 C659 1.503 . S
C667 C666 1.370 . S
C667 C668 1.403 . S
C668 C667 1.403 . S
C668 C669 1.404 . S
C668 C671 1.539 . S
C669 C665 1.408 . S
C669 C668 1.404 . S
C669 H681 0.930 . S
C670 C666 1.524 . S
C670 H682 0.956 . S
C670 H683 0.961 . S
C670 H684 0.961 . S
C671 C668 1.539 . S
C671 H685 0.958 . S
C671 H686 0.961 . S
C671 H687 0.960 . S
H672 C656 0.931 . S
H673 C661 0.929 1_455 S
H674 C662 0.960 . S
H675 C662 0.962 . S
H676 C662 0.960 . S
H677 C663 0.961 1_455 S
H678 C663 0.961 . S
H679 C663 0.961 . S
H680 C664 0.931 . S
H681 C669 0.930 . S
H682 C670 0.956 . S
H683 C670 0.961 . S
H684 C670 0.961 . S
H685 C671 0.958 . S
H686 C671 0.961 . S
H687 C671 0.960 . S
C688 C689 1.391 . S
C688 C690 1.394 . S
C688 H704 0.931 . S
C689 C688 1.391 . S
C689 C693 1.376 . S
C690 C688 1.394 . S
C690 C691 1.369 . S
C690 C694 1.531 . S
C691 C690 1.369 . S
C691 C692 1.410 . S
C691 C699 1.503 . S
C692 C691 1.410 . S
C692 C693 1.392 . S
C692 C695 1.511 . S
C693 C689 1.376 . S
C693 C692 1.392 . S
C693 H705 0.929 . S
C694 C690 1.531 . S
C694 H706 0.960 . S
C694 H707 0.962 . S
C694 H708 0.960 . S
C695 C692 1.511 . S
C695 H709 0.961 . S
C695 H710 0.961 . S
C695 H711 0.961 . S
C696 C697 1.370 . S
C696 C698 1.363 . S
C696 H712 0.931 . S
C697 C696 1.370 . S
C697 C701 1.408 . S
C698 C696 1.363 . S
C698 C699 1.370 . S
C698 C702 1.524 . S
C699 C691 1.503 . S
C699 C698 1.370 . S
C699 C700 1.403 . S
C700 C699 1.403 . S
C700 C701 1.404 . S
C700 C703 1.539 . S
C701 C697 1.408 . S
C701 C700 1.404 . S
C701 H713 0.930 . S
C702 C698 1.524 . S
C702 H714 0.956 . S
C702 H715 0.961 . S
C702 H716 0.961 . S
C703 C700 1.539 . S
C703 H717 0.958 . S
C703 H718 0.961 . S
C703 H719 0.960 . S
H704 C688 0.931 . S
H705 C693 0.929 . S
H706 C694 0.960 . S
H707 C694 0.962 . S
H708 C694 0.960 . S
H709 C695 0.961 . S
H710 C695 0.961 . S
H711 C695 0.961 . S
H712 C696 0.931 . S
H713 C701 0.930 . S
H714 C702 0.956 . S
H715 C702 0.961 . S
H716 C702 0.961 . S
H717 C703 0.958 . S
H718 C703 0.961 . S
H719 C703 0.960 . S
C720 C721 1.391 . S
C720 C722 1.394 . S
C720 H736 0.931 . S
C721 C720 1.391 . S
C721 C725 1.376 . S
C722 C720 1.394 . S
C722 C723 1.369 . S
C722 C726 1.531 . S
C723 C722 1.369 . S
C723 C724 1.410 . S
C723 C731 1.503 . S
C724 C723 1.410 . S
C724 C725 1.392 . S
C724 C727 1.511 . S
C725 C721 1.376 . S
C725 C724 1.392 . S
C725 H737 0.929 1_455 S
C726 C722 1.531 . S
C726 H738 0.960 . S
C726 H739 0.962 . S
C726 H740 0.960 . S
C727 C724 1.511 . S
C727 H741 0.961 1_455 S
C727 H742 0.961 . S
C727 H743 0.961 . S
C728 C729 1.370 . S
C728 C730 1.363 . S
C728 H744 0.931 . S
C729 C728 1.370 . S
C729 C733 1.408 . S
C730 C728 1.363 . S
C730 C731 1.370 . S
C730 C734 1.524 . S
C731 C723 1.503 . S
C731 C730 1.370 . S
C731 C732 1.403 . S
C732 C731 1.403 . S
C732 C733 1.404 . S
C732 C735 1.539 . S
C733 C729 1.408 . S
C733 C732 1.404 . S
C733 H745 0.930 . S
C734 C730 1.524 . S
C734 H746 0.956 . S
C734 H747 0.961 . S
C734 H748 0.961 . S
C735 C732 1.539 . S
C735 H749 0.958 . S
C735 H750 0.961 . S
C735 H751 0.960 . S
H736 C720 0.931 . S
H737 C725 0.929 1_655 S
H738 C726 0.960 . S
H739 C726 0.962 . S
H740 C726 0.960 . S
H741 C727 0.961 1_655 S
H742 C727 0.961 . S
H743 C727 0.961 . S
H744 C728 0.931 . S
H745 C733 0.930 . S
H746 C734 0.956 . S
H747 C734 0.961 . S
H748 C734 0.961 . S
H749 C735 0.958 . S
H750 C735 0.961 . S
H751 C735 0.960 . S
C752 C753 1.391 . S
C752 C754 1.394 . S
C752 H768 0.931 . S
C753 C752 1.391 . S
C753 C757 1.376 . S
C754 C752 1.394 . S
C754 C755 1.369 . S
C754 C758 1.531 . S
C755 C754 1.369 . S
C755 C756 1.410 . S
C755 C763 1.503 . S
C756 C755 1.410 . S
C756 C757 1.392 . S
C756 C759 1.511 . S
C757 C753 1.376 . S
C757 C756 1.392 . S
C757 H769 0.929 . S
C758 C754 1.531 . S
C758 H770 0.960 . S
C758 H771 0.962 . S
C758 H772 0.960 . S
C759 C756 1.511 . S
C759 H773 0.961 . S
C759 H774 0.961 . S
C759 H775 0.961 . S
C760 C761 1.370 . S
C760 C762 1.363 . S
C760 H776 0.931 . S
C761 C760 1.370 . S
C761 C765 1.408 . S
C762 C760 1.363 . S
C762 C763 1.370 . S
C762 C766 1.524 . S
C763 C755 1.503 . S
C763 C762 1.370 . S
C763 C764 1.403 . S
C764 C763 1.403 . S
C764 C765 1.404 . S
C764 C767 1.539 . S
C765 C761 1.408 . S
C765 C764 1.404 . S
C765 H777 0.930 . S
C766 C762 1.524 . S
C766 H778 0.956 . S
C766 H779 0.961 . S
C766 H780 0.961 . S
C767 C764 1.539 . S
C767 H781 0.958 . S
C767 H782 0.961 . S
C767 H783 0.960 . S
H768 C752 0.931 . S
H769 C757 0.929 . S
H770 C758 0.960 . S
H771 C758 0.962 . S
H772 C758 0.960 . S
H773 C759 0.961 . S
H774 C759 0.961 . S
H775 C759 0.961 . S
H776 C760 0.931 . S
H777 C765 0.930 . S
H778 C766 0.956 . S
H779 C766 0.961 . S
H780 C766 0.961 . S
H781 C767 0.958 . S
H782 C767 0.961 . S
H783 C767 0.960 . S
C784 C785 1.391 . S
C784 C786 1.394 . S
C784 H800 0.931 . S
C785 C784 1.391 . S
C785 C789 1.376 . S
C786 C784 1.394 . S
C786 C787 1.369 . S
C786 C790 1.531 . S
C787 C786 1.369 . S
C787 C788 1.410 . S
C787 C795 1.503 . S
C788 C787 1.410 . S
C788 C789 1.392 . S
C788 C791 1.511 . S
C789 C785 1.376 . S
C789 C788 1.392 . S
C789 H801 0.929 . S
C790 C786 1.531 . S
C790 H802 0.960 . S
C790 H803 0.962 . S
C790 H804 0.960 . S
C791 C788 1.511 . S
C791 H805 0.961 . S
C791 H806 0.961 . S
C791 H807 0.961 . S
C792 C793 1.370 . S
C792 C794 1.363 . S
C792 H808 0.931 . S
C793 C792 1.370 . S
C793 C797 1.408 . S
C794 C792 1.363 . S
C794 C795 1.370 . S
C794 C798 1.524 . S
C795 C787 1.503 . S
C795 C794 1.370 . S
C795 C796 1.403 . S
C796 C795 1.403 . S
C796 C797 1.404 . S
C796 C799 1.539 . S
C797 C793 1.408 . S
C797 C796 1.404 . S
C797 H809 0.930 . S
C798 C794 1.524 . S
C798 H810 0.956 . S
C798 H811 0.961 . S
C798 H812 0.961 . S
C799 C796 1.539 . S
C799 H813 0.958 . S
C799 H814 0.961 . S
C799 H815 0.960 . S
H800 C784 0.931 . S
H801 C789 0.929 . S
H802 C790 0.960 . S
H803 C790 0.962 . S
H804 C790 0.960 . S
H805 C791 0.961 . S
H806 C791 0.961 . S
H807 C791 0.961 . S
H808 C792 0.931 . S
H809 C797 0.930 . S
H810 C798 0.956 . S
H811 C798 0.961 . S
H812 C798 0.961 . S
H813 C799 0.958 . S
H814 C799 0.961 . S
H815 C799 0.960 . S
C816 C817 1.391 . S
C816 C818 1.394 . S
C816 H832 0.931 . S
C817 C816 1.391 . S
C817 C821 1.376 . S
C818 C816 1.394 . S
C818 C819 1.369 . S
C818 C822 1.531 . S
C819 C818 1.369 . S
C819 C820 1.410 . S
C819 C827 1.503 . S
C820 C819 1.410 . S
C820 C821 1.392 . S
C820 C823 1.511 . S
C821 C817 1.376 . S
C821 C820 1.392 . S
C821 H833 0.929 . S
C822 C818 1.531 . S
C822 H834 0.960 . S
C822 H835 0.962 . S
C822 H836 0.960 . S
C823 C820 1.511 . S
C823 H837 0.961 . S
C823 H838 0.961 . S
C823 H839 0.961 . S
C824 C825 1.370 . S
C824 C826 1.363 . S
C824 H840 0.931 . S
C825 C824 1.370 . S
C825 C829 1.408 . S
C826 C824 1.363 . S
C826 C827 1.370 . S
C826 C830 1.524 . S
C827 C819 1.503 . S
C827 C826 1.370 . S
C827 C828 1.403 . S
C828 C827 1.403 . S
C828 C829 1.404 . S
C828 C831 1.539 . S
C829 C825 1.408 . S
C829 C828 1.404 . S
C829 H841 0.930 . S
C830 C826 1.524 . S
C830 H842 0.956 . S
C830 H843 0.961 . S
C830 H844 0.961 . S
C831 C828 1.539 . S
C831 H845 0.958 . S
C831 H846 0.961 . S
C831 H847 0.960 . S
H832 C816 0.931 . S
H833 C821 0.929 . S
H834 C822 0.960 . S
H835 C822 0.962 . S
H836 C822 0.960 . S
H837 C823 0.961 . S
H838 C823 0.961 . S
H839 C823 0.961 . S
H840 C824 0.931 . S
H841 C829 0.930 . S
H842 C830 0.956 . S
H843 C830 0.961 . S
H844 C830 0.961 . S
H845 C831 0.958 . S
H846 C831 0.961 . S
H847 C831 0.960 . S
C848 C849 1.391 . S
C848 C850 1.394 . S
C848 H864 0.931 . S
C849 C848 1.391 . S
C849 C853 1.376 . S
C850 C848 1.394 . S
C850 C851 1.369 . S
C850 C854 1.531 . S
C851 C850 1.369 . S
C851 C852 1.410 . S
C851 C859 1.503 . S
C852 C851 1.410 . S
C852 C853 1.392 . S
C852 C855 1.511 . S
C853 C849 1.376 . S
C853 C852 1.392 . S
C853 H865 0.929 . S
C854 C850 1.531 . S
C854 H866 0.960 . S
C854 H867 0.962 . S
C854 H868 0.960 . S
C855 C852 1.511 . S
C855 H869 0.961 . S
C855 H870 0.961 . S
C855 H871 0.961 . S
C856 C857 1.370 . S
C856 C858 1.363 . S
C856 H872 0.931 . S
C857 C856 1.370 . S
C857 C861 1.408 . S
C858 C856 1.363 . S
C858 C859 1.370 . S
C858 C862 1.524 . S
C859 C851 1.503 . S
C859 C858 1.370 . S
C859 C860 1.403 . S
C860 C859 1.403 . S
C860 C861 1.404 . S
C860 C863 1.539 . S
C861 C857 1.408 . S
C861 C860 1.404 . S
C861 H873 0.930 . S
C862 C858 1.524 . S
C862 H874 0.956 . S
C862 H875 0.961 . S
C862 H876 0.961 . S
C863 C860 1.539 . S
C863 H877 0.958 . S
C863 H878 0.961 . S
C863 H879 0.960 . S
H864 C848 0.931 . S
H865 C853 0.929 . S
H866 C854 0.960 . S
H867 C854 0.962 . S
H868 C854 0.960 . S
H869 C855 0.961 . S
H870 C855 0.961 . S
H871 C855 0.961 . S
H872 C856 0.931 . S
H873 C861 0.930 . S
H874 C862 0.956 . S
H875 C862 0.961 . S
H876 C862 0.961 . S
H877 C863 0.958 . S
H878 C863 0.961 . S
H879 C863 0.960 . S
C880 C881 1.391 . S
C880 C882 1.394 . S
C880 H896 0.931 . S
C881 C880 1.391 . S
C881 C885 1.376 . S
C882 C880 1.394 . S
C882 C883 1.369 . S
C882 C886 1.531 . S
C883 C882 1.369 . S
C883 C884 1.410 . S
C883 C891 1.503 . S
C884 C883 1.410 . S
C884 C885 1.392 . S
C884 C887 1.511 . S
C885 C881 1.376 . S
C885 C884 1.392 . S
C885 H897 0.929 . S
C886 C882 1.531 . S
C886 H898 0.960 . S
C886 H899 0.962 . S
C886 H900 0.960 . S
C887 C884 1.511 . S
C887 H901 0.961 . S
C887 H902 0.961 . S
C887 H903 0.961 . S
C888 C889 1.370 . S
C888 C890 1.363 . S
C888 H904 0.931 . S
C889 C888 1.370 . S
C889 C893 1.408 . S
C890 C888 1.363 . S
C890 C891 1.370 . S
C890 C894 1.524 . S
C891 C883 1.503 . S
C891 C890 1.370 . S
C891 C892 1.403 . S
C892 C891 1.403 . S
C892 C893 1.404 . S
C892 C895 1.539 . S
C893 C889 1.408 . S
C893 C892 1.404 . S
C893 H905 0.930 . S
C894 C890 1.524 . S
C894 H906 0.956 . S
C894 H907 0.961 . S
C894 H908 0.961 . S
C895 C892 1.539 . S
C895 H909 0.958 . S
C895 H910 0.961 . S
C895 H911 0.960 . S
H896 C880 0.931 . S
H897 C885 0.929 . S
H898 C886 0.960 . S
H899 C886 0.962 . S
H900 C886 0.960 . S
H901 C887 0.961 . S
H902 C887 0.961 . S
H903 C887 0.961 . S
H904 C888 0.931 . S
H905 C893 0.930 . S
H906 C894 0.956 . S
H907 C894 0.961 . S
H908 C894 0.961 . S
H909 C895 0.958 . S
H910 C895 0.961 . S
H911 C895 0.960 . S
C912 C913 1.391 . S
C912 C914 1.394 . S
C912 H928 0.931 . S
C913 C912 1.391 . S
C913 C917 1.376 . S
C914 C912 1.394 . S
C914 C915 1.369 . S
C914 C918 1.531 . S
C915 C914 1.369 . S
C915 C916 1.410 . S
C915 C923 1.503 . S
C916 C915 1.410 . S
C916 C917 1.392 . S
C916 C919 1.511 . S
C917 C913 1.376 . S
C917 C916 1.392 . S
C917 H929 0.929 . S
C918 C914 1.531 . S
C918 H930 0.960 . S
C918 H931 0.962 . S
C918 H932 0.960 . S
C919 C916 1.511 . S
C919 H933 0.961 . S
C919 H934 0.961 . S
C919 H935 0.961 . S
C920 C921 1.370 . S
C920 C922 1.363 . S
C920 H936 0.931 . S
C921 C920 1.370 . S
C921 C925 1.408 . S
C922 C920 1.363 . S
C922 C923 1.370 . S
C922 C926 1.524 . S
C923 C915 1.503 . S
C923 C922 1.370 . S
C923 C924 1.403 . S
C924 C923 1.403 . S
C924 C925 1.404 . S
C924 C927 1.539 . S
C925 C921 1.408 . S
C925 C924 1.404 . S
C925 H937 0.930 . S
C926 C922 1.524 . S
C926 H938 0.956 . S
C926 H939 0.961 . S
C926 H940 0.961 . S
C927 C924 1.539 . S
C927 H941 0.958 . S
C927 H942 0.961 . S
C927 H943 0.960 . S
H928 C912 0.931 . S
H929 C917 0.929 . S
H930 C918 0.960 . S
H931 C918 0.962 . S
H932 C918 0.960 . S
H933 C919 0.961 . S
H934 C919 0.961 . S
H935 C919 0.961 . S
H936 C920 0.931 . S
H937 C925 0.930 . S
H938 C926 0.956 . S
H939 C926 0.961 . S
H940 C926 0.961 . S
H941 C927 0.958 . S
H942 C927 0.961 . S
H943 C927 0.960 . S
C944 C945 1.391 . S
C944 C946 1.394 . S
C944 H960 0.931 . S
C945 C944 1.391 . S
C945 C949 1.376 . S
C946 C944 1.394 . S
C946 C947 1.369 . S
C946 C950 1.531 . S
C947 C946 1.369 . S
C947 C948 1.410 . S
C947 C955 1.503 . S
C948 C947 1.410 . S
C948 C949 1.392 . S
C948 C951 1.511 . S
C949 C945 1.376 . S
C949 C948 1.392 . S
C949 H961 0.929 . S
C950 C946 1.531 . S
C950 H962 0.960 . S
C950 H963 0.962 . S
C950 H964 0.960 . S
C951 C948 1.511 . S
C951 H965 0.961 . S
C951 H966 0.961 . S
C951 H967 0.961 . S
C952 C953 1.370 . S
C952 C954 1.363 . S
C952 H968 0.931 . S
C953 C952 1.370 . S
C953 C957 1.408 . S
C954 C952 1.363 . S
C954 C955 1.370 . S
C954 C958 1.524 . S
C955 C947 1.503 . S
C955 C954 1.370 . S
C955 C956 1.403 . S
C956 C955 1.403 . S
C956 C957 1.404 . S
C956 C959 1.539 . S
C957 C953 1.408 . S
C957 C956 1.404 . S
C957 H969 0.930 . S
C958 C954 1.524 . S
C958 H970 0.956 . S
C958 H971 0.961 . S
C958 H972 0.961 . S
C959 C956 1.539 . S
C959 H973 0.958 . S
C959 H974 0.961 . S
C959 H975 0.960 . S
H960 C944 0.931 . S
H961 C949 0.929 . S
H962 C950 0.960 . S
H963 C950 0.962 . S
H964 C950 0.960 . S
H965 C951 0.961 . S
H966 C951 0.961 . S
H967 C951 0.961 . S
H968 C952 0.931 . S
H969 C957 0.930 . S
H970 C958 0.956 . S
H971 C958 0.961 . S
H972 C958 0.961 . S
H973 C959 0.958 . S
H974 C959 0.961 . S
H975 C959 0.960 . S
C976 C977 1.391 . S
C976 C978 1.394 . S
C976 H992 0.931 . S
C977 C976 1.391 . S
C977 C981 1.376 . S
C978 C976 1.394 . S
C978 C979 1.369 . S
C978 C982 1.531 . S
C979 C978 1.369 . S
C979 C980 1.410 . S
C979 C987 1.503 . S
C980 C979 1.410 . S
C980 C981 1.392 . S
C980 C983 1.511 . S
C981 C977 1.376 . S
C981 C980 1.392 . S
C981 H993 0.929 . S
C982 C978 1.531 . S
C982 H994 0.960 . S
C982 H995 0.962 . S
C982 H996 0.960 . S
C983 C980 1.511 . S
C983 H997 0.961 . S
C983 H998 0.961 . S
C983 H999 0.961 . S
C984 C985 1.370 . S
C984 C986 1.363 . S
C984 H1000 0.931 . S
C985 C984 1.370 . S
C985 C989 1.408 . S
C986 C984 1.363 . S
C986 C987 1.370 . S
C986 C990 1.524 . S
C987 C979 1.503 . S
C987 C986 1.370 . S
C987 C988 1.403 . S
C988 C987 1.403 . S
C988 C989 1.404 . S
C988 C991 1.539 . S
C989 C985 1.408 . S
C989 C988 1.404 . S
C989 H1001 0.930 . S
C990 C986 1.524 . S
C990 H1002 0.956 . S
C990 H1003 0.961 . S
C990 H1004 0.961 . S
C991 C988 1.539 . S
C991 H1005 0.958 . S
C991 H1006 0.961 . S
C991 H1007 0.960 . S
H992 C976 0.931 . S
H993 C981 0.929 . S
H994 C982 0.960 . S
H995 C982 0.962 . S
H996 C982 0.960 . S
H997 C983 0.961 . S
H998 C983 0.961 . S
H999 C983 0.961 . S
H1000 C984 0.931 . S
H1001 C989 0.930 . S
H1002 C990 0.956 . S
H1003 C990 0.961 . S
H1004 C990 0.961 . S
H1005 C991 0.958 . S
H1006 C991 0.961 . S
H1007 C991 0.960 . S
C1008 C1009 1.391 . S
C1008 C1010 1.394 . S
C1008 H1024 0.931 . S
C1009 C1008 1.391 . S
C1009 C1013 1.376 . S
C1010 C1008 1.394 . S
C1010 C1011 1.369 . S
C1010 C1014 1.531 . S
C1011 C1010 1.369 . S
C1011 C1012 1.410 . S
C1011 C1019 1.503 . S
C1012 C1011 1.410 . S
C1012 C1013 1.392 . S
C1012 C1015 1.511 . S
C1013 C1009 1.376 . S
C1013 C1012 1.392 . S
C1013 H1025 0.929 . S
C1014 C1010 1.531 . S
C1014 H1026 0.960 . S
C1014 H1027 0.962 . S
C1014 H1028 0.960 . S
C1015 C1012 1.511 . S
C1015 H1029 0.961 . S
C1015 H1030 0.961 . S
C1015 H1031 0.961 . S
C1016 C1017 1.370 . S
C1016 C1018 1.363 . S
C1016 H1032 0.931 . S
C1017 C1016 1.370 . S
C1017 C1021 1.408 . S
C1018 C1016 1.363 . S
C1018 C1019 1.370 . S
C1018 C1022 1.524 . S
C1019 C1011 1.503 . S
C1019 C1018 1.370 . S
C1019 C1020 1.403 . S
C1020 C1019 1.403 . S
C1020 C1021 1.404 . S
C1020 C1023 1.539 . S
C1021 C1017 1.408 . S
C1021 C1020 1.404 . S
C1021 H1033 0.930 . S
C1022 C1018 1.524 . S
C1022 H1034 0.956 . S
C1022 H1035 0.961 . S
C1022 H1036 0.961 . S
C1023 C1020 1.539 . S
C1023 H1037 0.958 . S
C1023 H1038 0.961 . S
C1023 H1039 0.960 . S
H1024 C1008 0.931 . S
H1025 C1013 0.929 . S
H1026 C1014 0.960 . S
H1027 C1014 0.962 . S
H1028 C1014 0.960 . S
H1029 C1015 0.961 . S
H1030 C1015 0.961 . S
H1031 C1015 0.961 . S
H1032 C1016 0.931 . S
H1033 C1021 0.930 . S
H1034 C1022 0.956 . S
H1035 C1022 0.961 . S
H1036 C1022 0.961 . S
H1037 C1023 0.958 . S
H1038 C1023 0.961 . S
H1039 C1023 0.960 . S
C1040 C1041 1.391 . S
C1040 C1042 1.394 . S
C1040 H1056 0.931 . S
C1041 C1040 1.391 . S
C1041 C1045 1.376 . S
C1042 C1040 1.394 . S
C1042 C1043 1.369 . S
C1042 C1046 1.531 . S
C1043 C1042 1.369 . S
C1043 C1044 1.410 . S
C1043 C1051 1.503 . S
C1044 C1043 1.410 . S
C1044 C1045 1.392 . S
C1044 C1047 1.511 . S
C1045 C1041 1.376 . S
C1045 C1044 1.392 . S
C1045 H1057 0.929 . S
C1046 C1042 1.531 . S
C1046 H1058 0.960 . S
C1046 H1059 0.962 . S
C1046 H1060 0.960 . S
C1047 C1044 1.511 . S
C1047 H1061 0.961 . S
C1047 H1062 0.961 . S
C1047 H1063 0.961 . S
C1048 C1049 1.370 . S
C1048 C1050 1.363 . S
C1048 H1064 0.931 . S
C1049 C1048 1.370 . S
C1049 C1053 1.408 . S
C1050 C1048 1.363 . S
C1050 C1051 1.370 . S
C1050 C1054 1.524 . S
C1051 C1043 1.503 . S
C1051 C1050 1.370 . S
C1051 C1052 1.403 . S
C1052 C1051 1.403 . S
C1052 C1053 1.404 . S
C1052 C1055 1.539 . S
C1053 C1049 1.408 . S
C1053 C1052 1.404 . S
C1053 H1065 0.930 . S
C1054 C1050 1.524 . S
C1054 H1066 0.956 . S
C1054 H1067 0.961 . S
C1054 H1068 0.961 . S
C1055 C1052 1.539 . S
C1055 H1069 0.958 . S
C1055 H1070 0.961 . S
C1055 H1071 0.960 . S
H1056 C1040 0.931 . S
H1057 C1045 0.929 . S
H1058 C1046 0.960 . S
H1059 C1046 0.962 . S
H1060 C1046 0.960 . S
H1061 C1047 0.961 . S
H1062 C1047 0.961 . S
H1063 C1047 0.961 . S
H1064 C1048 0.931 . S
H1065 C1053 0.930 . S
H1066 C1054 0.956 . S
H1067 C1054 0.961 . S
H1068 C1054 0.961 . S
H1069 C1055 0.958 . S
H1070 C1055 0.961 . S
H1071 C1055 0.960 . S
C1072 C1073 1.391 . S
C1072 C1074 1.394 . S
C1072 H1088 0.931 . S
C1073 C1072 1.391 . S
C1073 C1077 1.376 . S
C1074 C1072 1.394 . S
C1074 C1075 1.369 . S
C1074 C1078 1.531 . S
C1075 C1074 1.369 . S
C1075 C1076 1.410 . S
C1075 C1083 1.503 . S
C1076 C1075 1.410 . S
C1076 C1077 1.392 . S
C1076 C1079 1.511 . S
C1077 C1073 1.376 . S
C1077 C1076 1.392 . S
C1077 H1089 0.929 . S
C1078 C1074 1.531 . S
C1078 H1090 0.960 . S
C1078 H1091 0.962 . S
C1078 H1092 0.960 . S
C1079 C1076 1.511 . S
C1079 H1093 0.961 . S
C1079 H1094 0.961 . S
C1079 H1095 0.961 . S
C1080 C1081 1.370 . S
C1080 C1082 1.363 . S
C1080 H1096 0.931 . S
C1081 C1080 1.370 . S
C1081 C1085 1.408 . S
C1082 C1080 1.363 . S
C1082 C1083 1.370 . S
C1082 C1086 1.524 . S
C1083 C1075 1.503 . S
C1083 C1082 1.370 . S
C1083 C1084 1.403 . S
C1084 C1083 1.403 . S
C1084 C1085 1.404 . S
C1084 C1087 1.539 . S
C1085 C1081 1.408 . S
C1085 C1084 1.404 . S
C1085 H1097 0.930 . S
C1086 C1082 1.524 . S
C1086 H1098 0.956 . S
C1086 H1099 0.961 . S
C1086 H1100 0.961 . S
C1087 C1084 1.539 . S
C1087 H1101 0.958 . S
C1087 H1102 0.961 . S
C1087 H1103 0.960 . S
H1088 C1072 0.931 . S
H1089 C1077 0.929 . S
H1090 C1078 0.960 . S
H1091 C1078 0.962 . S
H1092 C1078 0.960 . S
H1093 C1079 0.961 . S
H1094 C1079 0.961 . S
H1095 C1079 0.961 . S
H1096 C1080 0.931 . S
H1097 C1085 0.930 . S
H1098 C1086 0.956 . S
H1099 C1086 0.961 . S
H1100 C1086 0.961 . S
H1101 C1087 0.958 . S
H1102 C1087 0.961 . S
H1103 C1087 0.960 . S
C1104 C1105 1.391 . S
C1104 C1106 1.394 . S
C1104 H1120 0.931 . S
C1105 C1104 1.391 . S
C1105 C1109 1.376 . S
C1106 C1104 1.394 . S
C1106 C1107 1.369 . S
C1106 C1110 1.531 . S
C1107 C1106 1.369 . S
C1107 C1108 1.410 . S
C1107 C1115 1.503 . S
C1108 C1107 1.410 . S
C1108 C1109 1.392 . S
C1108 C1111 1.511 . S
C1109 C1105 1.376 . S
C1109 C1108 1.392 . S
C1109 H1121 0.929 . S
C1110 C1106 1.531 . S
C1110 H1122 0.960 . S
C1110 H1123 0.962 . S
C1110 H1124 0.960 . S
C1111 C1108 1.511 . S
C1111 H1125 0.961 . S
C1111 H1126 0.961 . S
C1111 H1127 0.961 . S
C1112 C1113 1.370 . S
C1112 C1114 1.363 . S
C1112 H1128 0.931 . S
C1113 C1112 1.370 . S
C1113 C1117 1.408 . S
C1114 C1112 1.363 . S
C1114 C1115 1.370 . S
C1114 C1118 1.524 . S
C1115 C1107 1.503 . S
C1115 C1114 1.370 . S
C1115 C1116 1.403 . S
C1116 C1115 1.403 . S
C1116 C1117 1.404 . S
C1116 C1119 1.539 . S
C1117 C1113 1.408 . S
C1117 C1116 1.404 . S
C1117 H1129 0.930 . S
C1118 C1114 1.524 . S
C1118 H1130 0.956 . S
C1118 H1131 0.961 . S
C1118 H1132 0.961 . S
C1119 C1116 1.539 . S
C1119 H1133 0.958 . S
C1119 H1134 0.961 . S
C1119 H1135 0.960 . S
H1120 C1104 0.931 . S
H1121 C1109 0.929 . S
H1122 C1110 0.960 . S
H1123 C1110 0.962 . S
H1124 C1110 0.960 . S
H1125 C1111 0.961 . S
H1126 C1111 0.961 . S
H1127 C1111 0.961 . S
H1128 C1112 0.931 . S
H1129 C1117 0.930 . S
H1130 C1118 0.956 . S
H1131 C1118 0.961 . S
H1132 C1118 0.961 . S
H1133 C1119 0.958 . S
H1134 C1119 0.961 . S
H1135 C1119 0.960 . S
C1136 C1137 1.391 . S
C1136 C1138 1.394 . S
C1136 H1152 0.931 . S
C1137 C1136 1.391 . S
C1137 C1141 1.376 . S
C1138 C1136 1.394 . S
C1138 C1139 1.369 . S
C1138 C1142 1.531 1_655 S
C1139 C1138 1.369 . S
C1139 C1140 1.410 . S
C1139 C1147 1.503 1_665 S
C1140 C1139 1.410 . S
C1140 C1141 1.392 . S
C1140 C1143 1.511 . S
C1141 C1137 1.376 . S
C1141 C1140 1.392 . S
C1141 H1153 0.929 . S
C1142 C1138 1.531 1_455 S
C1142 H1154 0.960 . S
C1142 H1155 0.962 1_455 S
C1142 H1156 0.960 . S
C1143 C1140 1.511 . S
C1143 H1157 0.961 . S
C1143 H1158 0.961 1_565 S
C1143 H1159 0.961 1_655 S
C1144 C1145 1.370 . S
C1144 C1146 1.363 1_455 S
C1144 H1160 0.931 1_455 S
C1145 C1144 1.370 . S
C1145 C1149 1.408 . S
C1146 C1144 1.363 1_655 S
C1146 C1147 1.370 1_655 S
C1146 C1150 1.524 . S
C1147 C1139 1.503 1_445 S
C1147 C1146 1.370 1_455 S
C1147 C1148 1.403 . S
C1148 C1147 1.403 . S
C1148 C1149 1.404 . S
C1148 C1151 1.539 1_545 S
C1149 C1145 1.408 . S
C1149 C1148 1.404 . S
C1149 H1161 0.930 . S
C1150 C1146 1.524 . S
C1150 H1162 0.956 . S
C1150 H1163 0.961 . S
C1150 H1164 0.961 . S
C1151 C1148 1.539 1_565 S
C1151 H1165 0.958 . S
C1151 H1166 0.961 . S
C1151 H1167 0.960 . S
H1152 C1136 0.931 . S
H1153 C1141 0.929 . S
H1154 C1142 0.960 . S
H1155 C1142 0.962 1_655 S
H1156 C1142 0.960 . S
H1157 C1143 0.961 . S
H1158 C1143 0.961 1_545 S
H1159 C1143 0.961 1_455 S
H1160 C1144 0.931 1_655 S
H1161 C1149 0.930 . S
H1162 C1150 0.956 . S
H1163 C1150 0.961 . S
H1164 C1150 0.961 . S
H1165 C1151 0.958 . S
H1166 C1151 0.961 . S
H1167 C1151 0.960 . S
C1168 C1169 1.391 . S
C1168 C1170 1.394 . S
C1168 H1184 0.931 . S
C1169 C1168 1.391 . S
C1169 C1173 1.379 . S
C1170 C1168 1.394 . S
C1170 C1171 1.369 . S
C1170 C1174 1.531 . S
C1171 C1170 1.369 . S
C1171 C1172 1.410 1_545 S
C1171 C1179 1.503 1_655 S
C1172 C1171 1.410 1_565 S
C1172 C1173 1.392 1_565 S
C1172 C1175 1.511 . S
C1173 C1169 1.379 . S
C1173 C1172 1.392 1_545 S
C1173 H1185 0.926 1_545 S
C1174 C1170 1.531 . S
C1174 H1186 0.960 1_655 S
C1174 H1187 0.962 . S
C1174 H1188 0.960 . S
C1175 C1172 1.511 . S
C1175 H1189 0.961 . S
C1175 H1190 0.970 . S
C1175 H1191 0.976 . S
C1176 C1177 1.370 . S
C1176 C1178 1.363 . S
C1176 H1192 0.931 . S
C1177 C1176 1.370 . S
C1177 C1181 1.408 1_565 S
C1178 C1176 1.363 . S
C1178 C1179 1.370 1_565 S
C1178 C1182 1.524 . S
C1179 C1171 1.503 1_455 S
C1179 C1178 1.370 1_545 S
C1179 C1180 1.403 . S
C1180 C1179 1.403 . S
C1180 C1181 1.404 . S
C1180 C1183 1.539 . S
C1181 C1177 1.408 1_545 S
C1181 C1180 1.404 . S
C1181 H1193 0.930 . S
C1182 C1178 1.524 . S
C1182 H1194 0.956 1_455 S
C1182 H1195 0.961 1_455 S
C1182 H1196 0.961 . S
C1183 C1180 1.539 . S
C1183 H1197 0.958 . S
C1183 H1198 0.961 . S
C1183 H1199 0.960 . S
H1184 C1168 0.931 . S
H1185 C1173 0.926 1_565 S
H1186 C1174 0.960 1_455 S
H1187 C1174 0.962 . S
H1188 C1174 0.960 . S
H1189 C1175 0.961 . S
H1190 C1175 0.970 . S
H1191 C1175 0.976 . S
H1192 C1176 0.931 . S
H1193 C1181 0.930 . S
H1194 C1182 0.956 1_655 S
H1195 C1182 0.961 1_655 S
H1196 C1182 0.961 . S
H1197 C1183 0.958 . S
H1198 C1183 0.961 . S
H1199 C1183 0.960 . S
C1200 C1201 1.391 . S
C1200 C1202 1.394 . S
C1200 H1216 0.931 . S
C1201 C1200 1.391 . S
C1201 C1205 1.376 . S
C1202 C1200 1.394 . S
C1202 C1203 1.369 . S
C1202 C1206 1.531 1_455 S
C1203 C1202 1.369 . S
C1203 C1204 1.410 . S
C1203 C1211 1.503 1_455 S
C1204 C1203 1.410 . S
C1204 C1205 1.392 . S
C1204 C1207 1.511 . S
C1205 C1201 1.376 . S
C1205 C1204 1.392 . S
C1205 H1217 0.929 . S
C1206 C1202 1.531 1_655 S
C1206 H1218 0.960 . S
C1206 H1219 0.962 . S
C1206 H1220 0.960 . S
C1207 C1204 1.511 . S
C1207 H1221 0.961 . S
C1207 H1222 0.961 . S
C1207 H1223 0.961 . S
C1208 C1209 1.370 . S
C1208 C1210 1.363 . S
C1208 H1224 0.931 . S
C1209 C1208 1.370 . S
C1209 C1213 1.408 . S
C1210 C1208 1.363 . S
C1210 C1211 1.370 . S
C1210 C1214 1.524 . S
C1211 C1203 1.503 1_655 S
C1211 C1210 1.370 . S
C1211 C1212 1.403 1_655 S
C1212 C1211 1.403 1_455 S
C1212 C1213 1.404 1_455 S
C1212 C1215 1.539 . S
C1213 C1209 1.408 . S
C1213 C1212 1.404 1_655 S
C1213 H1225 0.930 . S
C1214 C1210 1.524 . S
C1214 H1226 0.956 . S
C1214 H1227 0.961 . S
C1214 H1228 0.961 . S
C1215 C1212 1.539 . S
C1215 H1229 0.958 . S
C1215 H1230 0.961 . S
C1215 H1231 0.960 . S
H1216 C1200 0.931 . S
H1217 C1205 0.929 . S
H1218 C1206 0.960 . S
H1219 C1206 0.962 . S
H1220 C1206 0.960 . S
H1221 C1207 0.961 . S
H1222 C1207 0.961 . S
H1223 C1207 0.961 . S
H1224 C1208 0.931 . S
H1225 C1213 0.930 . S
H1226 C1214 0.956 . S
H1227 C1214 0.961 . S
H1228 C1214 0.961 . S
H1229 C1215 0.958 . S
H1230 C1215 0.961 . S
H1231 C1215 0.960 . S
C1232 C1233 1.391 1_545 S
C1232 C1234 1.394 . S
C1232 H1248 0.931 . S
C1233 C1232 1.391 1_565 S
C1233 C1237 1.376 . S
C1234 C1232 1.394 . S
C1234 C1235 1.369 1_545 S
C1234 C1238 1.531 . S
C1235 C1234 1.369 1_565 S
C1235 C1236 1.410 . S
C1235 C1243 1.503 1_565 S
C1236 C1235 1.410 . S
C1236 C1237 1.392 . S
C1236 C1239 1.511 . S
C1237 C1233 1.376 . S
C1237 C1236 1.392 . S
C1237 H1249 0.929 . S
C1238 C1234 1.531 . S
C1238 H1250 0.960 . S
C1238 H1251 0.962 . S
C1238 H1252 0.960 . S
C1239 C1236 1.511 . S
C1239 H1253 0.961 . S
C1239 H1254 0.961 . S
C1239 H1255 0.961 . S
C1240 C1241 1.370 . S
C1240 C1242 1.363 . S
C1240 H1256 0.931 . S
C1241 C1240 1.370 . S
C1241 C1245 1.408 . S
C1242 C1240 1.363 . S
C1242 C1243 1.370 . S
C1242 C1246 1.524 1_545 S
C1243 C1235 1.503 1_545 S
C1243 C1242 1.370 . S
C1243 C1244 1.403 . S
C1244 C1243 1.403 . S
C1244 C1245 1.404 . S
C1244 C1247 1.539 . S
C1245 C1241 1.408 . S
C1245 C1244 1.404 . S
C1245 H1257 0.930 . S
C1246 C1242 1.524 1_565 S
C1246 H1258 0.956 1_565 S
C1246 H1259 0.961 . S
C1246 H1260 0.961 . S
C1247 C1244 1.539 . S
C1247 H1261 0.958 . S
C1247 H1262 0.961 1_545 S
C1247 H1263 0.960 1_545 S
H1248 C1232 0.931 . S
H1249 C1237 0.929 . S
H1250 C1238 0.960 . S
H1251 C1238 0.962 . S
H1252 C1238 0.960 . S
H1253 C1239 0.961 . S
H1254 C1239 0.961 . S
H1255 C1239 0.961 . S
H1256 C1240 0.931 . S
H1257 C1245 0.930 . S
H1258 C1246 0.956 1_545 S
H1259 C1246 0.961 . S
H1260 C1246 0.961 . S
H1261 C1247 0.958 . S
H1262 C1247 0.961 1_565 S
H1263 C1247 0.960 1_565 S
C1264 C1265 1.391 . S
C1264 C1266 1.394 . S
C1264 H1280 0.931 . S
C1265 C1264 1.391 . S
C1265 C1269 1.376 . S
C1266 C1264 1.394 . S
C1266 C1267 1.369 . S
C1266 C1270 1.531 . S
C1267 C1266 1.369 . S
C1267 C1268 1.410 . S
C1267 C1275 1.503 . S
C1268 C1267 1.410 . S
C1268 C1269 1.392 . S
C1268 C1271 1.511 . S
C1269 C1265 1.376 . S
C1269 C1268 1.392 . S
C1269 H1281 0.929 . S
C1270 C1266 1.531 . S
C1270 H1282 0.960 . S
C1270 H1283 0.962 . S
C1270 H1284 0.960 . S
C1271 C1268 1.511 . S
C1271 H1285 0.961 . S
C1271 H1286 0.961 . S
C1271 H1287 0.961 . S
C1272 C1273 1.370 . S
C1272 C1274 1.363 . S
C1272 H1288 0.931 . S
C1273 C1272 1.370 . S
C1273 C1277 1.408 . S
C1274 C1272 1.363 . S
C1274 C1275 1.370 . S
C1274 C1278 1.524 . S
C1275 C1267 1.503 . S
C1275 C1274 1.370 . S
C1275 C1276 1.403 . S
C1276 C1275 1.403 . S
C1276 C1277 1.404 . S
C1276 C1279 1.539 . S
C1277 C1273 1.408 . S
C1277 C1276 1.404 . S
C1277 H1289 0.930 . S
C1278 C1274 1.524 . S
C1278 H1290 0.956 . S
C1278 H1291 0.961 . S
C1278 H1292 0.961 . S
C1279 C1276 1.539 . S
C1279 H1293 0.958 . S
C1279 H1294 0.961 . S
C1279 H1295 0.960 . S
H1280 C1264 0.931 . S
H1281 C1269 0.929 . S
H1282 C1270 0.960 . S
H1283 C1270 0.962 . S
H1284 C1270 0.960 . S
H1285 C1271 0.961 . S
H1286 C1271 0.961 . S
H1287 C1271 0.961 . S
H1288 C1272 0.931 . S
H1289 C1277 0.930 . S
H1290 C1278 0.956 . S
H1291 C1278 0.961 . S
H1292 C1278 0.961 . S
H1293 C1279 0.958 . S
H1294 C1279 0.961 . S
H1295 C1279 0.960 . S
C1296 C1297 1.391 . S
C1296 C1298 1.394 . S
C1296 H1312 0.931 . S
C1297 C1296 1.391 . S
C1297 C1301 1.376 . S
C1298 C1296 1.394 . S
C1298 C1299 1.369 . S
C1298 C1302 1.531 . S
C1299 C1298 1.369 . S
C1299 C1300 1.410 . S
C1299 C1307 1.503 . S
C1300 C1299 1.410 . S
C1300 C1301 1.392 . S
C1300 C1303 1.511 . S
C1301 C1297 1.376 . S
C1301 C1300 1.392 . S
C1301 H1313 0.929 . S
C1302 C1298 1.531 . S
C1302 H1314 0.960 . S
C1302 H1315 0.962 . S
C1302 H1316 0.960 . S
C1303 C1300 1.511 . S
C1303 H1317 0.961 . S
C1303 H1318 0.961 . S
C1303 H1319 0.961 . S
C1304 C1305 1.370 . S
C1304 C1306 1.363 . S
C1304 H1320 0.931 . S
C1305 C1304 1.370 . S
C1305 C1309 1.408 . S
C1306 C1304 1.363 . S
C1306 C1307 1.370 . S
C1306 C1310 1.524 . S
C1307 C1299 1.503 . S
C1307 C1306 1.370 . S
C1307 C1308 1.403 . S
C1308 C1307 1.403 . S
C1308 C1309 1.404 . S
C1308 C1311 1.539 . S
C1309 C1305 1.408 . S
C1309 C1308 1.404 . S
C1309 H1321 0.930 . S
C1310 C1306 1.524 . S
C1310 H1322 0.956 . S
C1310 H1323 0.961 . S
C1310 H1324 0.961 . S
C1311 C1308 1.539 . S
C1311 H1325 0.958 . S
C1311 H1326 0.961 . S
C1311 H1327 0.960 . S
H1312 C1296 0.931 . S
H1313 C1301 0.929 . S
H1314 C1302 0.960 . S
H1315 C1302 0.962 . S
H1316 C1302 0.960 . S
H1317 C1303 0.961 . S
H1318 C1303 0.961 . S
H1319 C1303 0.961 . S
H1320 C1304 0.931 . S
H1321 C1309 0.930 . S
H1322 C1310 0.956 . S
H1323 C1310 0.961 . S
H1324 C1310 0.961 . S
H1325 C1311 0.958 . S
H1326 C1311 0.961 . S
H1327 C1311 0.960 . S
C1328 C1329 1.391 . S
C1328 C1330 1.394 . S
C1328 H1344 0.931 . S
C1329 C1328 1.391 . S
C1329 C1333 1.376 . S
C1330 C1328 1.394 . S
C1330 C1331 1.369 . S
C1330 C1334 1.531 . S
C1331 C1330 1.369 . S
C1331 C1332 1.410 . S
C1331 C1339 1.503 1_545 S
C1332 C1331 1.410 . S
C1332 C1333 1.392 . S
C1332 C1335 1.511 . S
C1333 C1329 1.376 . S
C1333 C1332 1.392 . S
C1333 H1345 0.929 . S
C1334 C1330 1.531 . S
C1334 H1346 0.960 1_545 S
C1334 H1347 0.962 . S
C1334 H1348 0.960 . S
C1335 C1332 1.511 . S
C1335 H1349 0.961 . S
C1335 H1350 0.961 1_545 S
C1335 H1351 0.961 1_545 S
C1336 C1337 1.370 . S
C1336 C1338 1.363 . S
C1336 H1352 0.931 . S
C1337 C1336 1.370 . S
C1337 C1341 1.408 . S
C1338 C1336 1.363 . S
C1338 C1339 1.370 . S
C1338 C1342 1.524 1_565 S
C1339 C1331 1.503 1_565 S
C1339 C1338 1.370 . S
C1339 C1340 1.403 . S
C1340 C1339 1.403 . S
C1340 C1341 1.404 . S
C1340 C1343 1.539 . S
C1341 C1337 1.408 . S
C1341 C1340 1.404 . S
C1341 H1353 0.930 . S
C1342 C1338 1.524 1_545 S
C1342 H1354 0.956 . S
C1342 H1355 0.961 . S
C1342 H1356 0.961 . S
C1343 C1340 1.539 . S
C1343 H1357 0.958 . S
C1343 H1358 0.961 . S
C1343 H1359 0.960 . S
H1344 C1328 0.931 . S
H1345 C1333 0.929 . S
H1346 C1334 0.960 1_565 S
H1347 C1334 0.962 . S
H1348 C1334 0.960 . S
H1349 C1335 0.961 . S
H1350 C1335 0.961 1_565 S
H1351 C1335 0.961 1_565 S
H1352 C1336 0.931 . S
H1353 C1341 0.930 . S
H1354 C1342 0.956 . S
H1355 C1342 0.961 . S
H1356 C1342 0.961 . S
H1357 C1343 0.958 . S
H1358 C1343 0.961 . S
H1359 C1343 0.960 . S
C1360 C1361 1.391 . S
C1360 C1362 1.394 . S
C1360 H1376 0.931 . S
C1361 C1360 1.391 . S
C1361 C1365 1.376 . S
C1362 C1360 1.394 . S
C1362 C1363 1.369 . S
C1362 C1366 1.531 . S
C1363 C1362 1.369 . S
C1363 C1364 1.410 . S
C1363 C1371 1.503 1_655 S
C1364 C1363 1.410 . S
C1364 C1365 1.392 . S
C1364 C1367 1.511 . S
C1365 C1361 1.376 . S
C1365 C1364 1.392 . S
C1365 H1377 0.929 . S
C1366 C1362 1.531 . S
C1366 H1378 0.960 1_655 S
C1366 H1379 0.962 . S
C1366 H1380 0.960 . S
C1367 C1364 1.511 . S
C1367 H1381 0.961 . S
C1367 H1382 0.961 . S
C1367 H1383 0.961 . S
C1368 C1369 1.370 . S
C1368 C1370 1.363 . S
C1368 H1384 0.931 . S
C1369 C1368 1.370 . S
C1369 C1373 1.408 . S
C1370 C1368 1.363 . S
C1370 C1371 1.370 . S
C1370 C1374 1.524 . S
C1371 C1363 1.503 1_455 S
C1371 C1370 1.370 . S
C1371 C1372 1.403 . S
C1372 C1371 1.403 . S
C1372 C1373 1.404 . S
C1372 C1375 1.539 . S
C1373 C1369 1.408 . S
C1373 C1372 1.404 . S
C1373 H1385 0.930 . S
C1374 C1370 1.524 . S
C1374 H1386 0.956 . S
C1374 H1387 0.961 . S
C1374 H1388 0.961 . S
C1375 C1372 1.539 . S
C1375 H1389 0.958 . S
C1375 H1390 0.961 . S
C1375 H1391 0.960 1_455 S
H1376 C1360 0.931 . S
H1377 C1365 0.929 . S
H1378 C1366 0.960 1_455 S
H1379 C1366 0.962 . S
H1380 C1366 0.960 . S
H1381 C1367 0.961 . S
H1382 C1367 0.961 . S
H1383 C1367 0.961 . S
H1384 C1368 0.931 . S
H1385 C1373 0.930 . S
H1386 C1374 0.956 . S
H1387 C1374 0.961 . S
H1388 C1374 0.961 . S
H1389 C1375 0.958 . S
H1390 C1375 0.961 . S
H1391 C1375 0.960 1_655 S
C369 C16 1.746 . S
C377 C260 1.792 . S
C401 N186 1.313 . S
C409 N35 1.324 . S
C433 C214 1.795 . S
C441 C62 1.723 . S
C465 N232 1.330 . S
C473 N81 1.345 . S
C497 C122 1.794 . S
C505 C108 1.721 . S
C529 N127 1.324 . S
C537 N140 1.316 1_455 S
C561 C154 1.739 . S
C569 C168 1.793 . S
C593 N173 1.306 . S
C601 N94 1.339 1_655 S
C625 C200 1.739 . S
C633 C76 1.793 . S
C657 N2 1.306 1_655 S
C665 N219 1.345 . S
C689 C30 1.795 . S
C697 C246 1.722 . S
C721 N48 1.302 1_455 S
C729 N265 1.345 . S
C753 C306 1.794 . S
C761 C292 1.721 . S
C785 N311 1.360 . S
C793 N324 1.326 . S
C817 C352 1.781 . S
C825 C338 1.743 . S
C849 N278 1.344 . S
C857 N357 1.341 . S
C881 N334 1.776 . S
C889 N12 1.783 . S
C913 C361 1.926 . S
C921 C39 1.930 . S
C945 N288 1.795 . S
C953 N58 1.779 . S
C977 C85 1.940 . S
C985 C315 1.936 . S
C1009 N104 1.741 . S
C1017 N242 1.761 . S
C1041 C269 1.922 . S
C1049 C131 1.929 . S
C1073 N150 1.767 . S
C1081 N196 1.763 . S
C1105 C177 1.917 . S
C1113 C223 1.927 . S
C1137 C53 1.728 . S
C1145 C7 1.741 . S
C1169 N71 1.650 . S
C1177 N25 1.668 . S
C1201 C99 1.727 . S
C1209 C145 1.735 . S
C1233 N117 1.710 . S
C1241 N163 1.692 . S
C1265 C237 1.761 . S
C1273 C191 1.751 . S
C1297 N209 1.634 . S
C1305 N255 1.660 . S
C1329 C329 1.741 . S
C1337 C283 1.740 . S
C1361 N301 1.651 . S
C1369 N347 1.666 . S
