# Generated by pormake.
# Topology yfy, (5)-cn, num edge types: 1
# Building blocks:
#     Node 0, Type 0, BuildingBlock: XOMCOT_clean_sbu_0, # of connection points: 5
#     Node 1, Type 0, BuildingBlock: XOMCOT_clean_sbu_0, # of connection points: 5
#     Node 2, Type 0, BuildingBlock: XOMCOT_clean_sbu_0, # of connection points: 5
#     Node 3, Type 0, BuildingBlock: XOMCOT_clean_sbu_0, # of connection points: 5
#     Node 4, Type 0, BuildingBlock: XOMCOT_clean_sbu_0, # of connection points: 5
#     Node 5, Type 0, BuildingBlock: XOMCOT_clean_sbu_0, # of connection points: 5
#     Node 6, Type 0, BuildingBlock: XOMCOT_clean_sbu_0, # of connection points: 5
#     Node 7, Type 0, BuildingBlock: XOMCOT_clean_sbu_0, # of connection points: 5
#     Node 8, Type 0, BuildingBlock: XOMCOT_clean_sbu_0, # of connection points: 5
#     Node 9, Type 0, BuildingBlock: XOMCOT_clean_sbu_0, # of connection points: 5
#     Node 10, Type 0, BuildingBlock: XOMCOT_clean_sbu_0, # of connection points: 5
#     Node 11, Type 0, BuildingBlock: XOMCOT_clean_sbu_0, # of connection points: 5
#     Node 12, Type 0, BuildingBlock: XOMCOT_clean_sbu_0, # of connection points: 5
#     Node 13, Type 0, BuildingBlock: XOMCOT_clean_sbu_0, # of connection points: 5
#     Node 14, Type 0, BuildingBlock: XOMCOT_clean_sbu_0, # of connection points: 5
#     Node 15, Type 0, BuildingBlock: XOMCOT_clean_sbu_0, # of connection points: 5
#     Edge 16, Type (0, 0), BuildingBlock: MIFKUJ_clean_linker_0, # of connection points: 2
#     Edge 17, Type (0, 0), BuildingBlock: MIFKUJ_clean_linker_0, # of connection points: 2
#     Edge 18, Type (0, 0), BuildingBlock: MIFKUJ_clean_linker_0, # of connection points: 2
#     Edge 19, Type (0, 0), BuildingBlock: MIFKUJ_clean_linker_0, # of connection points: 2
#     Edge 20, Type (0, 0), BuildingBlock: MIFKUJ_clean_linker_0, # of connection points: 2
#     Edge 21, Type (0, 0), BuildingBlock: MIFKUJ_clean_linker_0, # of connection points: 2
#     Edge 22, Type (0, 0), BuildingBlock: MIFKUJ_clean_linker_0, # of connection points: 2
#     Edge 23, Type (0, 0), BuildingBlock: MIFKUJ_clean_linker_0, # of connection points: 2
#     Edge 24, Type (0, 0), BuildingBlock: MIFKUJ_clean_linker_0, # of connection points: 2
#     Edge 25, Type (0, 0), BuildingBlock: MIFKUJ_clean_linker_0, # of connection points: 2
#     Edge 26, Type (0, 0), BuildingBlock: MIFKUJ_clean_linker_0, # of connection points: 2
#     Edge 27, Type (0, 0), BuildingBlock: MIFKUJ_clean_linker_0, # of connection points: 2
#     Edge 28, Type (0, 0), BuildingBlock: MIFKUJ_clean_linker_0, # of connection points: 2
#     Edge 29, Type (0, 0), BuildingBlock: MIFKUJ_clean_linker_0, # of connection points: 2
#     Edge 30, Type (0, 0), BuildingBlock: MIFKUJ_clean_linker_0, # of connection points: 2
#     Edge 31, Type (0, 0), BuildingBlock: MIFKUJ_clean_linker_0, # of connection points: 2
#     Edge 32, Type (0, 0), BuildingBlock: MIFKUJ_clean_linker_0, # of connection points: 2
#     Edge 33, Type (0, 0), BuildingBlock: MIFKUJ_clean_linker_0, # of connection points: 2
#     Edge 34, Type (0, 0), BuildingBlock: MIFKUJ_clean_linker_0, # of connection points: 2
#     Edge 35, Type (0, 0), BuildingBlock: MIFKUJ_clean_linker_0, # of connection points: 2
#     Edge 36, Type (0, 0), BuildingBlock: MIFKUJ_clean_linker_0, # of connection points: 2
#     Edge 37, Type (0, 0), BuildingBlock: MIFKUJ_clean_linker_0, # of connection points: 2
#     Edge 38, Type (0, 0), BuildingBlock: MIFKUJ_clean_linker_0, # of connection points: 2
#     Edge 39, Type (0, 0), BuildingBlock: MIFKUJ_clean_linker_0, # of connection points: 2
#     Edge 40, Type (0, 0), BuildingBlock: MIFKUJ_clean_linker_0, # of connection points: 2
#     Edge 41, Type (0, 0), BuildingBlock: MIFKUJ_clean_linker_0, # of connection points: 2
#     Edge 42, Type (0, 0), BuildingBlock: MIFKUJ_clean_linker_0, # of connection points: 2
#     Edge 43, Type (0, 0), BuildingBlock: MIFKUJ_clean_linker_0, # of connection points: 2
#     Edge 44, Type (0, 0), BuildingBlock: MIFKUJ_clean_linker_0, # of connection points: 2
#     Edge 45, Type (0, 0), BuildingBlock: MIFKUJ_clean_linker_0, # of connection points: 2
#     Edge 46, Type (0, 0), BuildingBlock: MIFKUJ_clean_linker_0, # of connection points: 2
#     Edge 47, Type (0, 0), BuildingBlock: MIFKUJ_clean_linker_0, # of connection points: 2
#     Edge 48, Type (0, 0), BuildingBlock: MIFKUJ_clean_linker_0, # of connection points: 2
#     Edge 49, Type (0, 0), BuildingBlock: MIFKUJ_clean_linker_0, # of connection points: 2
#     Edge 50, Type (0, 0), BuildingBlock: MIFKUJ_clean_linker_0, # of connection points: 2
#     Edge 51, Type (0, 0), BuildingBlock: MIFKUJ_clean_linker_0, # of connection points: 2
#     Edge 52, Type (0, 0), BuildingBlock: MIFKUJ_clean_linker_0, # of connection points: 2
#     Edge 53, Type (0, 0), BuildingBlock: MIFKUJ_clean_linker_0, # of connection points: 2
#     Edge 54, Type (0, 0), BuildingBlock: MIFKUJ_clean_linker_0, # of connection points: 2
#     Edge 55, Type (0, 0), BuildingBlock: MIFKUJ_clean_linker_0, # of connection points: 2
# Relax obj value: 0.242
# Max RMSD: 0.244
# Mean RMSD: 0.244
data_MOF--net-yfy--node1-XOMCOT_clean_sbu_0--edge1-MIFKUJ_clean_linker_0
_symmetry_space_group_name_H-M    P1
_symmetry_Int_Tables_number       1
_symmetry_cell_setting            triclinic
loop_
_symmetry_equiv_pos_as_xyz
'x, y, z'
_cell_length_a     55.769144
_cell_length_b     55.770713
_cell_length_c     62.522809
_cell_angle_alpha  90.152542
_cell_angle_beta   89.949957
_cell_angle_gamma 90.009843
loop_
_atom_site_label
_atom_site_type_symbol
_atom_site_fract_x
_atom_site_fract_y
_atom_site_fract_z
_atom_type_partial_charge
Co0 Co 0.0283 0.30482 0.3168 0.0
C1 C 0.99307 0.26495 0.30802 0.0
C2 C 0.97631 0.29825 0.31659 0.0
C3 C 0.95867 0.28174 0.31229 0.0
N4 N 0.99793 0.28788 0.31384 0.0
N5 N 0.96916 0.26082 0.30687 0.0
H6 H 0.00653 0.25163 0.30434 0.0
H7 H 0.97352 0.31668 0.3214 0.0
C8 C 0.01675 0.35505 0.29872 0.0
O9 O 0.0368 0.36464 0.30561 0.0
N10 N 0.0587 0.32164 0.31946 0.0
C11 C 0.072 0.32445 0.33726 0.0
C12 C 0.09289 0.3362 0.33198 0.0
C13 C 0.0723 0.33056 0.30344 0.0
N14 N 0.09306 0.34023 0.31068 0.0
C15 C 0.01349 0.29782 0.35947 0.0
C16 C 0.0202 0.34416 0.37404 0.0
C17 C 0.01774 0.32557 0.38895 0.0
C18 C 0.01307 0.30239 0.38137 0.0
C19 C 0.02044 0.33878 0.35212 0.0
N20 N 0.01844 0.31559 0.34517 0.0
H21 H 0.01158 0.2795 0.35405 0.0
H22 H 0.02442 0.35296 0.34114 0.0
H23 H 0.06697 0.3183 0.35303 0.0
H24 H 0.06681 0.33018 0.28686 0.0
O25 O 0.04425 0.27614 0.32587 0.0
O26 O 0.0415 0.28788 0.29208 0.0
O27 O 0.01204 0.33289 0.30201 0.0
C28 C 0.04968 0.27244 0.30597 0.0
H29 H 0.93954 0.28483 0.31334 0.0
H30 H 0.10662 0.34168 0.34317 0.0
H31 H 0.02379 0.36234 0.37925 0.0
H32 H 0.0105 0.2876 0.39233 0.0
Co33 Co 0.78996 0.03132 0.30661 0.0
C34 C 0.83128 0.99568 0.30596 0.0
C35 C 0.80667 0.99212 0.2799 0.0
C36 C 0.8252 0.97648 0.2766 0.0
N37 N 0.80984 1.00382 0.2986 0.0
N38 N 0.84086 0.97874 0.29286 0.0
H39 H 0.84062 1.00299 0.31958 0.0
H40 H 0.7923 0.99552 0.26872 0.0
C41 C 0.75514 0.99237 0.29776 0.0
O42 O 0.76837 0.97962 0.31088 0.0
N43 N 0.77035 0.05904 0.31286 0.0
C44 C 0.7718 0.07399 0.32974 0.0
C45 C 0.75634 0.09294 0.32642 0.0
C46 C 0.75434 0.06909 0.29946 0.0
N47 N 0.74544 0.08989 0.3073 0.0
C48 C 0.80154 0.01787 0.34962 0.0
C49 C 0.75493 0.01741 0.36462 0.0
C50 C 0.77377 0.01704 0.37949 0.0
C51 C 0.79731 0.01652 0.37161 0.0
C52 C 0.75995 0.01873 0.3427 0.0
N53 N 0.78309 0.01927 0.33535 0.0
H54 H 0.81975 0.02016 0.34441 0.0
H55 H 0.74515 0.02137 0.33183 0.0
H56 H 0.7838 0.07169 0.34316 0.0
H57 H 0.7498 0.06149 0.28405 0.0
O58 O 0.81821 0.04929 0.31373 0.0
O59 O 0.80204 0.04804 0.28137 0.0
O60 O 0.76072 0.01432 0.29414 0.0
C61 C 0.81881 0.05624 0.29399 0.0
H62 H 0.82717 0.9647 0.26293 0.0
H63 H 0.75413 0.10827 0.33688 0.0
H64 H 0.73643 0.01785 0.36988 0.0
H65 H 0.81252 0.01699 0.38236 0.0
Co66 Co 0.05884 0.78336 0.32939 0.0
C67 C 0.093 0.82397 0.32039 0.0
C68 C 0.11034 0.79215 0.33184 0.0
C69 C 0.12766 0.80877 0.327 0.0
N70 N 0.08856 0.80153 0.32767 0.0
N71 N 0.1168 0.82874 0.31977 0.0
H72 H 0.07936 0.83632 0.31499 0.0
H73 H 0.11345 0.77415 0.33762 0.0
C74 C 0.07258 0.73414 0.31042 0.0
O75 O 0.05259 0.72413 0.31692 0.0
N76 N 0.02911 0.76523 0.33062 0.0
C77 C 0.01581 0.75998 0.348 0.0
C78 C 0.99591 0.74719 0.34159 0.0
C79 C 0.01637 0.75685 0.31379 0.0
N80 N 0.9964 0.74511 0.32009 0.0
C81 C 0.07197 0.79001 0.37256 0.0
C82 C 0.06912 0.743 0.38607 0.0
C83 C 0.07142 0.76125 0.40148 0.0
C84 C 0.07362 0.78494 0.39431 0.0
C85 C 0.06769 0.7489 0.36427 0.0
N86 N 0.06815 0.7723 0.35785 0.0
H87 H 0.07248 0.80855 0.3676 0.0
H88 H 0.06459 0.73472 0.35299 0.0
H89 H 0.02015 0.76507 0.36424 0.0
H90 H 0.02232 0.75823 0.29736 0.0
O91 O 0.04125 0.811 0.3388 0.0
O92 O 0.0458 0.80077 0.30483 0.0
O93 O 0.07686 0.75632 0.31428 0.0
C94 C 0.0363 0.8153 0.31894 0.0
H95 H 0.14683 0.80634 0.32867 0.0
H96 H 0.98213 0.74 0.35195 0.0
H97 H 0.06762 0.72441 0.39082 0.0
H98 H 0.07514 0.79975 0.40545 0.0
Co99 Co 0.29571 0.05566 0.31157 0.0
C100 C 0.25711 0.09473 0.31166 0.0
C101 C 0.27808 0.09193 0.28304 0.0
C102 C 0.26131 0.10947 0.28009 0.0
N103 N 0.27599 0.08285 0.30292 0.0
N104 N 0.2481 0.11137 0.29804 0.0
H105 H 0.24972 0.09128 0.32727 0.0
H106 H 0.29079 0.08573 0.27117 0.0
C107 C 0.32943 0.0952 0.30265 0.0
O108 O 0.31554 0.10775 0.31546 0.0
N109 N 0.31545 0.02824 0.31821 0.0
C110 C 0.31464 0.01385 0.33546 0.0
C111 C 0.32994 0.99473 0.33203 0.0
C112 C 0.33085 0.01768 0.30451 0.0
N113 N 0.33997 0.99712 0.31247 0.0
C114 C 0.28295 0.06826 0.35447 0.0
C115 C 0.32925 0.07068 0.37005 0.0
C116 C 0.31016 0.06956 0.38463 0.0
C117 C 0.28676 0.0693 0.37651 0.0
C118 C 0.32466 0.06962 0.34803 0.0
N119 N 0.30169 0.06805 0.34039 0.0
H120 H 0.26492 0.06516 0.34901 0.0
H121 H 0.33974 0.06774 0.33732 0.0
H122 H 0.30312 0.01657 0.34919 0.0
H123 H 0.33473 0.02466 0.28875 0.0
O124 O 0.26744 0.03755 0.31824 0.0
O125 O 0.28435 0.0385 0.28617 0.0
O126 O 0.32487 0.07293 0.29944 0.0
C127 C 0.2673 0.03043 0.29852 0.0
H128 H 0.25847 0.11942 0.26547 0.0
H129 H 0.33256 0.97968 0.34266 0.0
H130 H 0.34765 0.07039 0.37558 0.0
H131 H 0.27145 0.06839 0.38716 0.0
Co132 Co 0.03325 0.78857 0.70041 0.0
C133 C 0.99767 0.82958 0.70132 0.0
C134 C 0.98979 0.80162 0.7236 0.0
C135 C 0.97408 0.81999 0.72713 0.0
N136 N 1.00427 0.80699 0.70695 0.0
N137 N 0.97907 0.83774 0.7133 0.0
H138 H 0.00734 0.84065 0.69009 0.0
H139 H 0.99151 0.78615 0.73381 0.0
C140 C 0.99689 0.75011 0.70643 0.0
O141 O 0.9847 0.76105 0.69135 0.0
N142 N 0.06223 0.77031 0.69581 0.0
C143 C 0.07848 0.77228 0.67997 0.0
C144 C 0.09748 0.75723 0.68445 0.0
C145 C 0.07156 0.75449 0.70975 0.0
N146 N 0.09312 0.74614 0.70326 0.0
C147 C 0.01892 0.79918 0.6574 0.0
C148 C 0.0255 0.75338 0.64138 0.0
C149 C 0.02262 0.77239 0.62698 0.0
C150 C 0.01845 0.79537 0.63531 0.0
C151 C 0.02593 0.75798 0.66342 0.0
N152 N 0.0231 0.78078 0.67124 0.0
H153 H 0.01789 0.81732 0.66312 0.0
H154 H 0.03031 0.74342 0.6741 0.0
H155 H 0.07687 0.78421 0.66643 0.0
H156 H 0.06281 0.74953 0.72453 0.0
O157 O 0.05015 0.81753 0.69351 0.0
O158 O 0.04814 0.80208 0.72608 0.0
O159 O 0.01718 0.75862 0.71249 0.0
C160 C 0.0563 0.81885 0.71344 0.0
H161 H 0.96057 0.82056 0.73955 0.0
H162 H 0.11361 0.75529 0.67497 0.0
H163 H 0.02912 0.73539 0.63567 0.0
H164 H 0.01604 0.81059 0.6248 0.0
Co165 Co 0.30047 0.03132 0.68208 0.0
C166 C 0.26094 0.9958 0.69129 0.0
C167 C 0.29294 0.97959 0.67879 0.0
C168 C 0.27694 0.96171 0.68372 0.0
N169 N 0.28309 1.00102 0.68358 0.0
N170 N 0.25686 0.97185 0.6916 0.0
H171 H 0.24834 0.00896 0.69723 0.0
H172 H 0.31083 0.97709 0.67248 0.0
C173 C 0.35043 0.01831 0.70026 0.0
O174 O 0.36001 0.0389 0.69491 0.0
N175 N 0.31766 0.06163 0.68101 0.0
C176 C 0.32027 0.0762 0.664 0.0
C177 C 0.33191 0.0968 0.67045 0.0
C178 C 0.32665 0.0741 0.69775 0.0
N179 N 0.33614 0.09531 0.69165 0.0
C180 C 0.29392 0.0185 0.63867 0.0
C181 C 0.34064 0.02441 0.62499 0.0
C182 C 0.32251 0.02138 0.60961 0.0
C183 C 0.29901 0.01763 0.61685 0.0
C184 C 0.33476 0.02503 0.64681 0.0
N185 N 0.31147 0.02295 0.65336 0.0
H186 H 0.27546 0.01691 0.64375 0.0
H187 H 0.34874 0.02887 0.6581 0.0
H188 H 0.314 0.07227 0.648 0.0
H189 H 0.32659 0.06756 0.71404 0.0
O190 O 0.27214 0.04812 0.67338 0.0
O191 O 0.28314 0.04357 0.70714 0.0
O192 O 0.32836 0.01369 0.69624 0.0
C193 C 0.26807 0.05274 0.69337 0.0
H194 H 0.27986 0.94264 0.68173 0.0
H195 H 0.33728 0.1115 0.66025 0.0
H196 H 0.35911 0.02711 0.62019 0.0
H197 H 0.2843 0.01548 0.60572 0.0
Co198 Co 0.05973 0.30325 0.68303 0.0
C199 C 0.09474 0.2631 0.69153 0.0
C200 C 0.11135 0.29509 0.67962 0.0
C201 C 0.1289 0.27836 0.68333 0.0
N202 N 0.08986 0.28563 0.68467 0.0
N203 N 0.11856 0.25822 0.69092 0.0
H204 H 0.08134 0.25064 0.69719 0.0
H205 H 0.11411 0.31304 0.6736 0.0
C206 C 0.07192 0.35197 0.70379 0.0
O207 O 0.05114 0.36151 0.69902 0.0
N208 N 0.02951 0.32069 0.6816 0.0
C209 C 0.0167 0.32588 0.66396 0.0
C210 C 0.99611 0.33772 0.66997 0.0
C211 C 0.01577 0.32819 0.69816 0.0
N212 N 0.99557 0.33943 0.69153 0.0
C213 C 0.07294 0.2985 0.63953 0.0
C214 C 0.07063 0.34638 0.62844 0.0
C215 C 0.07287 0.32911 0.61217 0.0
C216 C 0.07482 0.30496 0.61809 0.0
C217 C 0.06892 0.33912 0.64983 0.0
N218 N 0.06913 0.31534 0.65503 0.0
H219 H 0.07332 0.2797 0.64363 0.0
H220 H 0.0657 0.35257 0.66181 0.0
H221 H 0.02187 0.32142 0.64776 0.0
H222 H 0.02092 0.32598 0.71471 0.0
O223 O 0.04306 0.27523 0.67319 0.0
O224 O 0.04692 0.28552 0.70733 0.0
O225 O 0.07702 0.33038 0.69843 0.0
C226 C 0.03812 0.27081 0.69305 0.0
H227 H 0.14784 0.28083 0.6803 0.0
H228 H 0.98291 0.34498 0.65911 0.0
H229 H 0.0693 0.36526 0.62464 0.0
H230 H 0.0763 0.29089 0.60619 0.0
Co231 Co 0.78899 0.05877 0.67827 0.0
C232 C 0.82855 0.09696 0.67887 0.0
C233 C 0.80442 0.09745 0.7055 0.0
C234 C 0.82151 0.11455 0.70889 0.0
N235 N 0.80808 0.08675 0.68639 0.0
N236 N 0.83671 0.11442 0.69218 0.0
H237 H 0.83797 0.0914 0.66467 0.0
H238 H 0.79068 0.09239 0.71684 0.0
C239 C 0.75356 0.09704 0.68664 0.0
O240 O 0.7664 0.10962 0.67306 0.0
N241 N 0.7698 0.03067 0.67253 0.0
C242 C 0.77079 0.01528 0.65592 0.0
C243 C 0.75548 0.99634 0.66011 0.0
C244 C 0.75432 0.02092 0.68657 0.0
N245 N 0.74528 0.99988 0.67948 0.0
C246 C 0.80086 0.07251 0.63563 0.0
C247 C 0.75493 0.06971 0.6193 0.0
C248 C 0.77439 0.07029 0.60504 0.0
C249 C 0.79744 0.07294 0.61357 0.0
C250 C 0.75914 0.06968 0.64146 0.0
N251 N 0.78201 0.0704 0.64943 0.0
H252 H 0.81896 0.07123 0.64129 0.0
H253 H 0.74412 0.06674 0.65207 0.0
H254 H 0.7823 0.0173 0.64211 0.0
H255 H 0.75022 0.02892 0.70192 0.0
O256 O 0.81735 0.04138 0.6709 0.0
O257 O 0.80194 0.04243 0.70349 0.0
O258 O 0.75952 0.0753 0.69066 0.0
C259 C 0.81863 0.03446 0.69059 0.0
H260 H 0.82329 0.12545 0.72316 0.0
H261 H 0.75288 0.98072 0.65007 0.0
H262 H 0.7368 0.06738 0.61347 0.0
H263 H 0.81303 0.07365 0.60324 0.0
Co264 Co 0.53439 0.79846 0.80552 0.0
C265 C 0.4996 0.75688 0.8066 0.0
C266 C 0.49095 0.78367 0.78343 0.0
C267 C 0.47597 0.7646 0.78035 0.0
N268 N 0.50549 0.77945 0.80029 0.0
N269 N 0.48148 0.74762 0.79473 0.0
H270 H 0.50964 0.74652 0.81811 0.0
H271 H 0.49236 0.79868 0.77264 0.0
C272 C 0.49724 0.83585 0.799 0.0
O273 O 0.48549 0.82468 0.81424 0.0
N274 N 0.5633 0.81719 0.8087 0.0
C275 C 0.57984 0.81648 0.82436 0.0
C276 C 0.59861 0.83139 0.81876 0.0
C277 C 0.57226 0.83207 0.79375 0.0
N278 N 0.59381 0.84106 0.79944 0.0
C279 C 0.52074 0.78994 0.84916 0.0
C280 C 0.52578 0.83673 0.86313 0.0
C281 C 0.52239 0.81862 0.87842 0.0
C282 C 0.51934 0.79503 0.87103 0.0
C283 C 0.52723 0.83083 0.84138 0.0
N284 N 0.52483 0.80761 0.83455 0.0
H285 H 0.52023 0.77147 0.84423 0.0
H286 H 0.5315 0.84485 0.8301 0.0
H287 H 0.57859 0.80552 0.83857 0.0
H288 H 0.56322 0.83594 0.77884 0.0
O289 O 0.55166 0.77012 0.81328 0.0
O290 O 0.54872 0.78355 0.78009 0.0
O291 O 0.51765 0.82773 0.79277 0.0
C292 C 0.55714 0.76747 0.79329 0.0
H293 H 0.46281 0.76287 0.76771 0.0
H294 H 0.61487 0.83423 0.82787 0.0
H295 H 0.52807 0.85525 0.86792 0.0
H296 H 0.51733 0.78026 0.88209 0.0
Co297 Co 0.29016 0.52682 0.82209 0.0
C298 C 0.32952 0.48881 0.82382 0.0
C299 C 0.30642 0.48691 0.79654 0.0
C300 C 0.32384 0.46993 0.7942 0.0
N301 N 0.30921 0.4984 0.8154 0.0
N302 N 0.33841 0.47094 0.81132 0.0
H303 H 0.33835 0.4953 0.83803 0.0
H304 H 0.29327 0.49147 0.78453 0.0
C305 C 0.25401 0.48976 0.81205 0.0
O306 O 0.26523 0.47684 0.82647 0.0
N307 N 0.2712 0.55534 0.82667 0.0
C308 C 0.27078 0.5702 0.84368 0.0
C309 C 0.25573 0.58917 0.83907 0.0
C310 C 0.25683 0.56549 0.81195 0.0
N311 N 0.2471 0.5862 0.81905 0.0
C312 C 0.29768 0.51263 0.86551 0.0
C313 C 0.25018 0.51445 0.87796 0.0
C314 C 0.26791 0.51281 0.89383 0.0
C315 C 0.2919 0.51123 0.88718 0.0
C316 C 0.25677 0.51609 0.85639 0.0
N317 N 0.28035 0.51533 0.85031 0.0
H318 H 0.31631 0.51388 0.8613 0.0
H319 H 0.24293 0.51973 0.84477 0.0
H320 H 0.28098 0.56764 0.8582 0.0
H321 H 0.25379 0.55788 0.79625 0.0
O322 O 0.31816 0.54363 0.83137 0.0
O323 O 0.30557 0.5428 0.79783 0.0
O324 O 0.26148 0.51096 0.80774 0.0
C325 C 0.32119 0.55056 0.81183 0.0
H326 H 0.3264 0.45868 0.78025 0.0
H327 H 0.25205 0.60433 0.84941 0.0
H328 H 0.23138 0.51564 0.88214 0.0
H329 H 0.30642 0.51078 0.89865 0.0
Co330 Co 0.56037 0.28161 0.81943 0.0
C331 C 0.5958 0.32206 0.81388 0.0
C332 C 0.61232 0.28821 0.82081 0.0
C333 C 0.63001 0.30516 0.81867 0.0
N334 N 0.59081 0.29868 0.81787 0.0
N335 N 0.61969 0.32649 0.81436 0.0
H336 H 0.58239 0.33565 0.811 0.0
H337 H 0.61498 0.26942 0.82433 0.0
C338 C 0.572 0.23258 0.79867 0.0
O339 O 0.55207 0.22258 0.80535 0.0
N340 N 0.5299 0.26476 0.82073 0.0
C341 C 0.51592 0.26166 0.8381 0.0
C342 C 0.49495 0.25055 0.83192 0.0
C343 C 0.51676 0.2565 0.80411 0.0
N344 N 0.49562 0.24711 0.81056 0.0
C345 C 0.57465 0.28558 0.86264 0.0
C346 C 0.56908 0.23816 0.87419 0.0
C347 C 0.57233 0.25542 0.89033 0.0
C348 C 0.57598 0.27929 0.88417 0.0
C349 C 0.56788 0.24526 0.85274 0.0
N350 N 0.56972 0.26889 0.84726 0.0
H351 H 0.57615 0.3043 0.85843 0.0
H352 H 0.56382 0.23189 0.84098 0.0
H353 H 0.52053 0.26725 0.85416 0.0
H354 H 0.52273 0.25712 0.78764 0.0
O355 O 0.54438 0.30965 0.83003 0.0
O356 O 0.54763 0.3003 0.79564 0.0
O357 O 0.57677 0.25454 0.80304 0.0
C358 C 0.53935 0.31479 0.81035 0.0
H359 H 0.64908 0.30188 0.8199 0.0
H360 H 0.48054 0.24502 0.84241 0.0
H361 H 0.56653 0.21944 0.87813 0.0
H362 H 0.57831 0.29339 0.89592 0.0
Co363 Co 0.80072 0.55372 0.824 0.0
C364 C 0.75974 0.58794 0.81507 0.0
C365 C 0.7904 0.60451 0.82967 0.0
C366 C 0.77333 0.62179 0.8264 0.0
N367 N 0.78197 0.58318 0.82282 0.0
N368 N 0.75402 0.61148 0.81725 0.0
H369 H 0.74794 0.57464 0.80815 0.0
H370 H 0.80797 0.60736 0.83654 0.0
C371 C 0.85031 0.56906 0.80696 0.0
O372 O 0.86028 0.54864 0.81223 0.0
N373 N 0.81938 0.52422 0.82501 0.0
C374 C 0.82333 0.51039 0.84232 0.0
C375 C 0.83623 0.4905 0.8362 0.0
C376 C 0.82869 0.5117 0.80838 0.0
N377 N 0.83978 0.49142 0.81488 0.0
C378 C 0.79207 0.56463 0.86751 0.0
C379 C 0.83875 0.56268 0.88216 0.0
C380 C 0.81999 0.56427 0.89711 0.0
C381 C 0.79646 0.56595 0.88941 0.0
C382 C 0.83355 0.56175 0.86019 0.0
N383 N 0.81033 0.56186 0.85318 0.0
H384 H 0.77369 0.56476 0.86205 0.0
H385 H 0.84812 0.55932 0.84915 0.0
H386 H 0.81703 0.51427 0.85832 0.0
H387 H 0.82823 0.51789 0.79199 0.0
O388 O 0.77318 0.53492 0.83152 0.0
O389 O 0.78497 0.54156 0.79819 0.0
O390 O 0.82808 0.57306 0.81084 0.0
C391 C 0.77032 0.53068 0.8113 0.0
H392 H 0.77518 0.64067 0.83012 0.0
H393 H 0.84234 0.47631 0.84664 0.0
H394 H 0.85721 0.56149 0.8874 0.0
H395 H 0.78135 0.56692 0.90027 0.0
Co396 Co 0.52698 0.28699 0.18519 0.0
C397 C 0.49138 0.32689 0.19269 0.0
C398 C 0.47512 0.29385 0.18266 0.0
C399 C 0.45736 0.31062 0.18548 0.0
N400 N 0.49652 0.30396 0.18704 0.0
N401 N 0.46753 0.33141 0.19178 0.0
H402 H 0.50466 0.34014 0.19705 0.0
H403 H 0.4726 0.27544 0.17766 0.0
C404 C 0.51511 0.23708 0.20384 0.0
O405 O 0.53526 0.22753 0.19716 0.0
N406 N 0.55744 0.27019 0.18355 0.0
C407 C 0.57121 0.26704 0.16606 0.0
C408 C 0.5917 0.25495 0.17186 0.0
C409 C 0.57039 0.26117 0.19993 0.0
N410 N 0.59107 0.25096 0.19316 0.0
C411 C 0.51417 0.29293 0.14182 0.0
C412 C 0.51937 0.24587 0.12871 0.0
C413 C 0.5178 0.26393 0.11321 0.0
C414 C 0.51408 0.28756 0.12004 0.0
C415 C 0.51948 0.25206 0.15046 0.0
N416 N 0.51808 0.27553 0.15673 0.0
H417 H 0.51264 0.31147 0.14668 0.0
H418 H 0.52262 0.23812 0.16185 0.0
H419 H 0.56674 0.27316 0.15016 0.0
H420 H 0.56411 0.26107 0.21631 0.0
O421 O 0.54321 0.31548 0.17595 0.0
O422 O 0.53943 0.30464 0.20986 0.0
O423 O 0.51027 0.25918 0.2002 0.0
C424 C 0.54804 0.31974 0.19586 0.0
H425 H 0.43834 0.30762 0.18331 0.0
H426 H 0.60595 0.24955 0.16113 0.0
H427 H 0.52225 0.22736 0.12408 0.0
H428 H 0.51228 0.302 0.10859 0.0
Co429 Co 0.79488 0.53685 0.19689 0.0
C430 C 0.75455 0.49933 0.19692 0.0
C431 C 0.77436 0.50293 0.22611 0.0
C432 C 0.75698 0.486 0.22913 0.0
N433 N 0.77326 0.51126 0.20591 0.0
N434 N 0.7445 0.48357 0.21083 0.0
H435 H 0.74826 0.50182 0.18081 0.0
H436 H 0.787 0.50905 0.23804 0.0
C437 C 0.82607 0.49499 0.20549 0.0
O438 O 0.81081 0.48279 0.19371 0.0
N439 N 0.81669 0.56259 0.18993 0.0
C440 C 0.81716 0.57675 0.17256 0.0
C441 C 0.83374 0.59475 0.17598 0.0
C442 C 0.83262 0.57219 0.20367 0.0
N443 N 0.8434 0.59198 0.19568 0.0
C444 C 0.77993 0.52542 0.15441 0.0
C445 C 0.82532 0.51899 0.13758 0.0
C446 C 0.8059 0.52153 0.1235 0.0
C447 C 0.78288 0.52375 0.1323 0.0
C448 C 0.82155 0.52051 0.15973 0.0
N449 N 0.79906 0.52409 0.16796 0.0
H450 H 0.76241 0.53006 0.16038 0.0
H451 H 0.83707 0.52111 0.17003 0.0
H452 H 0.80574 0.57463 0.1587 0.0
H453 H 0.83518 0.56533 0.21966 0.0
O454 O 0.76823 0.55758 0.19088 0.0
O455 O 0.78569 0.55458 0.22261 0.0
O456 O 0.8229 0.51752 0.20834 0.0
C457 C 0.7694 0.56454 0.21062 0.0
H458 H 0.75342 0.47665 0.24394 0.0
H459 H 0.83778 0.60904 0.1649 0.0
H460 H 0.84349 0.51772 0.13157 0.0
H461 H 0.76728 0.52565 0.12213 0.0
Co462 Co 0.55426 0.80455 0.17952 0.0
C463 C 0.59088 0.76571 0.18673 0.0
C464 C 0.60589 0.79832 0.17448 0.0
C465 C 0.62417 0.7823 0.17779 0.0
N466 N 0.58496 0.78804 0.18006 0.0
N467 N 0.61482 0.76171 0.18548 0.0
H468 H 0.57806 0.75268 0.1924 0.0
H469 H 0.60778 0.81648 0.16867 0.0
C470 C 0.56726 0.85542 0.19567 0.0
O471 O 0.5468 0.86484 0.18966 0.0
N472 N 0.52359 0.82096 0.17935 0.0
C473 C 0.50786 0.82212 0.16305 0.0
C474 C 0.48726 0.83319 0.17018 0.0
C475 C 0.51193 0.83033 0.19637 0.0
N476 N 0.48988 0.83855 0.19113 0.0
C477 C 0.56433 0.7961 0.13587 0.0
C478 C 0.55731 0.84204 0.12069 0.0
C479 C 0.5592 0.82306 0.10598 0.0
C480 C 0.56364 0.80002 0.11387 0.0
C481 C 0.55803 0.8373 0.14274 0.0
N482 N 0.56065 0.81437 0.15007 0.0
H483 H 0.56658 0.77796 0.14154 0.0
H484 H 0.55483 0.85184 0.15362 0.0
H485 H 0.51091 0.81495 0.14719 0.0
H486 H 0.5198 0.83158 0.21214 0.0
O487 O 0.53764 0.77542 0.17264 0.0
O488 O 0.5442 0.78828 0.20568 0.0
O489 O 0.57178 0.83319 0.19241 0.0
C490 C 0.53457 0.7723 0.193 0.0
H491 H 0.64301 0.78594 0.17523 0.0
H492 H 0.47146 0.83665 0.16065 0.0
H493 H 0.55385 0.86013 0.11526 0.0
H494 H 0.56571 0.7849 0.10311 0.0
Co495 Co 0.28905 0.5598 0.18953 0.0
C496 C 0.32904 0.59557 0.19633 0.0
C497 C 0.29561 0.61153 0.18705 0.0
C498 C 0.31238 0.62939 0.18908 0.0
N499 N 0.30594 0.59026 0.19145 0.0
N500 N 0.33339 0.61942 0.19489 0.0
H501 H 0.34253 0.58242 0.20032 0.0
H502 H 0.2771 0.61388 0.18235 0.0
C503 C 0.23916 0.57146 0.20833 0.0
O504 O 0.22985 0.55119 0.20165 0.0
N505 N 0.27226 0.5293 0.18754 0.0
C506 C 0.2686 0.51632 0.16961 0.0
C507 C 0.2565 0.49567 0.17485 0.0
C508 C 0.26357 0.51561 0.20363 0.0
N509 N 0.25315 0.49532 0.1962 0.0
C510 C 0.29543 0.57201 0.14604 0.0
C511 C 0.24812 0.56966 0.13324 0.0
C512 C 0.26609 0.57088 0.11749 0.0
C513 C 0.28997 0.5729 0.12431 0.0
C514 C 0.25441 0.56865 0.15493 0.0
N515 N 0.27793 0.5688 0.16104 0.0
H516 H 0.31404 0.57252 0.15079 0.0
H517 H 0.24037 0.56621 0.16642 0.0
H518 H 0.2743 0.52146 0.15374 0.0
H519 H 0.26373 0.52102 0.22027 0.0
O520 O 0.31765 0.54344 0.18061 0.0
O521 O 0.3063 0.54743 0.21437 0.0
O522 O 0.26115 0.57655 0.20449 0.0
C523 C 0.32157 0.53861 0.20057 0.0
H524 H 0.30931 0.64834 0.18655 0.0
H525 H 0.25047 0.48199 0.16377 0.0
H526 H 0.22937 0.56861 0.12887 0.0
H527 H 0.30464 0.57369 0.11299 0.0
H528 H 1.00149 0.36159 0.41557 0.0
H529 H 0.01061 0.36697 0.45376 0.0
H530 H 0.05575 0.30413 0.45191 0.0
H531 H 0.04635 0.29849 0.41425 0.0
H532 H 0.02892 0.30212 0.48543 0.0
H533 H 0.07808 0.36319 0.45301 0.0
H534 H 0.08605 0.39901 0.43108 0.0
H535 H 0.03982 0.44088 0.47149 0.0
H536 H 0.03134 0.4052 0.49351 0.0
H537 H 0.09779 0.31049 0.57815 0.0
H538 H 0.08838 0.31507 0.54022 0.0
H539 H 0.03375 0.36689 0.55585 0.0
H540 H 0.04255 0.36197 0.59394 0.0
H541 H 0.06194 0.37701 0.51674 0.0
H542 H 0.0148 0.31482 0.54996 0.0
H543 H 0.00926 0.2787 0.57209 0.0
H544 H 0.05423 0.23841 0.52935 0.0
H545 H 0.06039 0.27443 0.50717 0.0
C546 C 0.01335 0.349 0.42339 0.0
C547 C 0.02292 0.32943 0.41201 0.0
C548 C 0.01864 0.35212 0.44517 0.0
C549 C 0.03396 0.33599 0.45576 0.0
C550 C 0.04372 0.31669 0.44423 0.0
C551 C 0.03825 0.31344 0.42268 0.0
C552 C 0.03963 0.33854 0.47892 0.0
C553 C 0.03632 0.31848 0.49214 0.0
C554 C 0.04876 0.36003 0.48795 0.0
C555 C 0.05386 0.38147 0.47475 0.0
C556 C 0.06946 0.37999 0.45711 0.0
C557 C 0.0741 0.40027 0.44469 0.0
C558 C 0.06339 0.42219 0.44984 0.0
C559 C 0.04807 0.42388 0.46748 0.0
C560 C 0.04335 0.40364 0.47995 0.0
C561 C 0.08395 0.32308 0.57355 0.0
C562 C 0.07069 0.33558 0.58915 0.0
C563 C 0.0787 0.32577 0.55186 0.0
C564 C 0.06018 0.3411 0.5453 0.0
C565 C 0.04814 0.35501 0.56062 0.0
C566 C 0.05327 0.35221 0.5824 0.0
C567 C 0.05177 0.34044 0.52282 0.0
C568 C 0.05441 0.36079 0.50989 0.0
C569 C 0.04223 0.31916 0.51391 0.0
C570 C 0.03822 0.29737 0.52702 0.0
C571 C 0.02365 0.2983 0.54537 0.0
C572 C 0.02038 0.27784 0.55791 0.0
C573 C 0.03143 0.25628 0.55215 0.0
C574 C 0.04571 0.25513 0.5338 0.0
C575 C 0.04908 0.27556 0.52123 0.0
H576 H 0.02888 0.24046 0.56188 0.0
H577 H 0.06701 0.43787 0.44021 0.0
H578 H 0.73979 0.08733 0.5773 0.0
H579 H 0.73599 0.07873 0.53885 0.0
H580 H 0.79803 0.03271 0.54205 0.0
H581 H 0.80186 0.04111 0.58007 0.0
H582 H 0.80155 0.06144 0.50873 0.0
H583 H 0.74023 0.0105 0.53876 0.0
H584 H 0.70375 1.00172 0.55964 0.0
H585 H 0.66273 0.048 0.51887 0.0
H586 H 0.69907 0.0573 0.49791 0.0
H587 H 0.79769 0.99591 0.41292 0.0
H588 H 0.79417 0.00533 0.45099 0.0
H589 H 0.73626 0.05417 0.43751 0.0
H590 H 0.73995 0.04527 0.39933 0.0
H591 H 0.72856 0.0274 0.47498 0.0
H592 H 0.78962 0.07673 0.44399 0.0
H593 H 0.82604 0.0849 0.42283 0.0
H594 H 0.86758 0.0415 0.46563 0.0
H595 H 0.83132 0.03275 0.48686 0.0
C596 C 0.75252 0.07532 0.56978 0.0
C597 C 0.77135 0.06525 0.58174 0.0
C598 C 0.75033 0.07038 0.54781 0.0
C599 C 0.76675 0.05505 0.53749 0.0
C600 C 0.78529 0.04478 0.54952 0.0
C601 C 0.78752 0.04973 0.57131 0.0
C602 C 0.76521 0.04978 0.51413 0.0
C603 C 0.78563 0.05379 0.50145 0.0
C604 C 0.74426 0.04042 0.50437 0.0
C605 C 0.72242 0.03481 0.51693 0.0
C606 C 0.72347 0.01896 0.53436 0.0
C607 C 0.70282 0.01386 0.54619 0.0
C608 C 0.68095 0.02436 0.54063 0.0
C609 C 0.67969 0.03992 0.52318 0.0
C610 C 0.70031 0.0451 0.51132 0.0
C611 C 0.7841 0.00857 0.41801 0.0
C612 C 0.76927 0.01996 0.40293 0.0
C613 C 0.78206 0.01388 0.43981 0.0
C614 C 0.76516 0.03071 0.44708 0.0
C615 C 0.74942 0.04113 0.43228 0.0
C616 C 0.75151 0.0359 0.41042 0.0
C617 C 0.76508 0.03853 0.46986 0.0
C618 C 0.7444 0.03514 0.48232 0.0
C619 C 0.78579 0.04847 0.4795 0.0
C620 C 0.8077 0.05391 0.46691 0.0
C621 C 0.80649 0.06878 0.4488 0.0
C622 C 0.82711 0.07354 0.4368 0.0
C623 C 0.8491 0.06368 0.44285 0.0
C624 C 0.85053 0.0491 0.46095 0.0
C625 C 0.82995 0.04425 0.47298 0.0
H626 H 0.86504 0.06738 0.43354 0.0
H627 H 0.66498 0.02038 0.5498 0.0
H628 H 0.0056 0.73629 0.60093 0.0
H629 H 0.01326 0.73063 0.56258 0.0
H630 H 0.05708 0.79441 0.56226 0.0
H631 H 0.04909 0.80035 0.60021 0.0
H632 H 0.03027 0.7949 0.52889 0.0
H633 H 0.08055 0.73532 0.56172 0.0
H634 H 0.08953 0.70038 0.58445 0.0
H635 H 0.04245 0.65669 0.5465 0.0
H636 H 0.03295 0.69147 0.52371 0.0
H637 H 0.09647 0.78223 0.43433 0.0
H638 H 0.08761 0.78004 0.47254 0.0
H639 H 0.03309 0.72702 0.46026 0.0
H640 H 0.0413 0.72959 0.42182 0.0
H641 H 0.06234 0.71892 0.49887 0.0
H642 H 0.01407 0.77961 0.46509 0.0
H643 H 0.00753 0.81485 0.4421 0.0
H644 H 0.05354 0.85701 0.4824 0.0
H645 H 0.06068 0.82187 0.50544 0.0
C646 C 0.01684 0.74908 0.59263 0.0
C647 C 0.02654 0.76888 0.60359 0.0
C648 C 0.02131 0.74578 0.57072 0.0
C649 C 0.03597 0.76197 0.55945 0.0
C650 C 0.04561 0.78173 0.57045 0.0
C651 C 0.04094 0.78516 0.5922 0.0
C652 C 0.04121 0.75876 0.53619 0.0
C653 C 0.03749 0.77831 0.52246 0.0
C654 C 0.05013 0.73698 0.52751 0.0
C655 C 0.05583 0.71606 0.54117 0.0
C656 C 0.07197 0.7183 0.55833 0.0
C657 C 0.07717 0.69852 0.57121 0.0
C658 C 0.06651 0.67635 0.56696 0.0
C659 C 0.05066 0.67389 0.54979 0.0
C660 C 0.04537 0.69362 0.53689 0.0
C661 C 0.08271 0.76994 0.43971 0.0
C662 C 0.06935 0.75637 0.42489 0.0
C663 C 0.07776 0.76863 0.46159 0.0
C664 C 0.05948 0.75361 0.4692 0.0
C665 C 0.04727 0.73873 0.45471 0.0
C666 C 0.05208 0.74017 0.43273 0.0
C667 C 0.05183 0.75519 0.49194 0.0
C668 C 0.055 0.73539 0.50543 0.0
C669 C 0.04263 0.7768 0.50053 0.0
C670 C 0.03808 0.79805 0.48688 0.0
C671 C 0.02294 0.79634 0.46896 0.0
C672 C 0.0191 0.81631 0.45593 0.0
C673 C 0.03015 0.83814 0.46076 0.0
C674 C 0.04501 0.84007 0.47867 0.0
C675 C 0.04895 0.82015 0.49173 0.0
H676 H 0.02716 0.85358 0.45065 0.0
H677 H 0.07057 0.66105 0.57694 0.0
H678 H 0.30303 0.9959 0.57625 0.0
H679 H 0.30635 1.00434 0.53815 0.0
H680 H 0.35657 0.06127 0.55155 0.0
H681 H 0.35242 0.05365 0.58989 0.0
H682 H 0.32446 0.07668 0.52457 0.0
H683 H 0.37411 0.00751 0.52707 0.0
H684 H 0.38575 0.96613 0.53613 0.0
H685 H 0.32703 0.93881 0.49897 0.0
H686 H 0.31482 0.98005 0.48992 0.0
H687 H 0.34291 0.09196 0.41098 0.0
H688 H 0.35038 0.08397 0.44905 0.0
H689 H 0.29505 0.02994 0.44858 0.0
H690 H 0.28774 0.03757 0.41076 0.0
H691 H 0.33578 0.01438 0.46872 0.0
H692 H 0.28441 0.08447 0.46975 0.0
H693 H 0.2735 0.12608 0.46074 0.0
H694 H 0.33757 0.15171 0.49124 0.0
H695 H 0.34902 0.11018 0.50019 0.0
C696 C 0.31488 0.01016 0.57114 0.0
C697 C 0.32737 0.02413 0.58625 0.0
C698 C 0.31698 0.01482 0.54925 0.0
C699 C 0.33189 0.03334 0.54184 0.0
C700 C 0.34497 0.04685 0.55682 0.0
C701 C 0.34279 0.04228 0.57877 0.0
C702 C 0.33256 0.03945 0.51861 0.0
C703 C 0.32746 0.06311 0.51239 0.0
C704 C 0.33614 0.02178 0.50259 0.0
C705 C 0.34345 0.99691 0.50794 0.0
C706 C 0.36357 0.99269 0.52095 0.0
C707 C 0.37029 0.96925 0.52606 0.0
C708 C 0.35712 0.94986 0.51816 0.0
C709 C 0.33722 0.95386 0.50509 0.0
C710 C 0.33041 0.97727 0.49993 0.0
C711 C 0.33235 0.07841 0.41903 0.0
C712 C 0.31452 0.06564 0.40789 0.0
C713 C 0.33658 0.07391 0.44078 0.0
C714 C 0.32318 0.05642 0.45171 0.0
C715 C 0.30559 0.04352 0.44053 0.0
C716 C 0.30125 0.04812 0.41893 0.0
C717 C 0.32721 0.0514 0.47481 0.0
C718 C 0.33318 0.02795 0.48096 0.0
C719 C 0.32461 0.06927 0.49074 0.0
C720 C 0.31771 0.09421 0.4854 0.0
C721 C 0.29628 0.09896 0.47437 0.0
C722 C 0.28997 0.12253 0.46931 0.0
C723 C 0.30487 0.14152 0.47535 0.0
C724 C 0.32607 0.13698 0.48653 0.0
C725 C 0.33247 0.11343 0.49161 0.0
H726 H 0.29996 0.15976 0.47143 0.0
H727 H 0.36235 0.93172 0.52214 0.0
H728 H 0.49709 0.79765 0.91127 0.0
H729 H 0.50273 0.80314 0.94961 0.0
H730 H 0.55607 0.85745 0.93748 0.0
H731 H 0.55162 0.85102 0.89907 0.0
H732 H 0.572 0.82947 0.96687 0.0
H733 H 0.49812 0.87077 0.95746 0.0
H734 H 0.45651 0.87699 0.94541 0.0
H735 H 0.43303 0.81805 0.9842 0.0
H736 H 0.47457 0.81125 0.99627 0.0
H737 H 0.57705 0.85809 0.07934 0.0
H738 H 0.56994 0.86245 0.0407 0.0
H739 H 0.52377 0.80043 0.04177 0.0
H740 H 0.5307 0.79606 0.08011 0.0
H741 H 0.5046 0.83776 0.01817 0.0
H742 H 0.58 0.79505 0.02449 0.0
H743 H 0.62174 0.78999 0.03665 0.0
H744 H 0.64214 0.85424 0.00359 0.0
H745 H 0.60041 0.85985 0.99147 0.0
C746 C 0.51008 0.81075 0.91668 0.0
C747 C 0.5239 0.82383 0.90189 0.0
C748 C 0.51307 0.81411 0.93871 0.0
C749 C 0.52963 0.83097 0.94659 0.0
C750 C 0.54312 0.8444 0.93189 0.0
C751 C 0.54031 0.84088 0.90984 0.0
C752 C 0.53371 0.83363 0.9701 0.0
C753 C 0.55724 0.83178 0.978 0.0
C754 C 0.51455 0.83635 0.98483 0.0
C755 C 0.48951 0.84039 0.97764 0.0
C756 C 0.48412 0.85902 0.96331 0.0
C757 C 0.46053 0.86267 0.95649 0.0
C758 C 0.44215 0.84789 0.964 0.0
C759 C 0.4473 0.82947 0.97838 0.0
C760 C 0.47086 0.82573 0.98524 0.0
C761 C 0.5653 0.84551 0.07131 0.0
C762 C 0.55467 0.82657 0.08272 0.0
C763 C 0.56132 0.84795 0.04925 0.0
C764 C 0.54643 0.83166 0.0383 0.0
C765 C 0.53533 0.81319 0.04983 0.0
C766 C 0.53949 0.8106 0.07173 0.0
C767 C 0.54273 0.83324 0.01477 0.0
C768 C 0.5193 0.83583 0.00691 0.0
C769 C 0.56197 0.83144 1.00009 0.0
C770 C 0.58705 0.82802 0.0073 0.0
C771 C 0.59335 0.8082 0.01997 0.0
C772 C 0.61701 0.80522 0.02682 0.0
C773 C 0.63457 0.82183 0.02095 0.0
C774 C 0.62851 0.84142 0.00816 0.0
C775 C 0.60486 0.8445 1.00129 0.0
H776 H 0.65288 0.81948 0.02627 0.0
H777 H 0.4239 0.85074 0.95871 0.0
H778 H 0.23221 0.5401 0.91229 0.0
H779 H 0.22604 0.54855 0.9501 0.0
H780 H 0.28526 0.50219 0.96605 0.0
H781 H 0.29027 0.49201 0.92841 0.0
H782 H 0.25456 0.49837 0.99567 0.0
H783 H 0.2905 0.56573 0.96054 0.0
H784 H 0.29373 0.59776 0.93356 0.0
H785 H 0.22766 0.62849 0.95587 0.0
H786 H 0.22388 0.59644 0.98281 0.0
H787 H 0.28853 0.59175 0.08297 0.0
H788 H 0.28414 0.58122 0.04538 0.0
H789 H 0.22552 0.53396 0.06113 0.0
H790 H 0.23106 0.54288 0.09898 0.0
H791 H 0.25372 0.58452 0.01566 0.0
H792 H 0.22446 0.48595 0.02823 0.0
H793 H 0.22842 0.45391 0.05515 0.0
H794 H 0.29368 0.48572 0.07808 0.0
H795 H 0.29026 0.51774 0.05112 0.0
C796 C 0.2435 0.53104 0.92379 0.0
C797 C 0.262 0.51554 0.91706 0.0
C798 C 0.24017 0.53625 0.9455 0.0
C799 C 0.25563 0.52662 0.96099 0.0
C800 C 0.27321 0.51011 0.95446 0.0
C801 C 0.27625 0.50451 0.93281 0.0
C802 C 0.25441 0.53459 0.98377 0.0
C803 C 0.25423 0.51722 1.0 0.0
C804 C 0.25449 0.55919 0.98961 0.0
C805 C 0.25678 0.57855 0.97352 0.0
C806 C 0.27659 0.57924 0.9596 0.0
C807 C 0.27852 0.5974 0.94433 0.0
C808 C 0.26087 0.61511 0.94296 0.0
C809 C 0.24129 0.61474 0.95692 0.0
C810 C 0.23924 0.59659 0.9722 0.0
C811 C 0.27478 0.57898 0.07854 0.0
C812 C 0.26052 0.56784 0.09425 0.0
C813 C 0.27209 0.57317 0.05691 0.0
C814 C 0.25486 0.55633 0.05034 0.0
C815 C 0.23939 0.54652 0.06578 0.0
C816 C 0.24235 0.55198 0.08749 0.0
C817 C 0.254 0.5483 0.02756 0.0
C818 C 0.25375 0.56566 0.01133 0.0
C819 C 0.25455 0.52371 0.02173 0.0
C820 C 0.25693 0.50438 0.03783 0.0
C821 C 0.23968 0.48605 0.03898 0.0
C822 C 0.24183 0.4679 0.05425 0.0
C823 C 0.26124 0.46783 0.06837 0.0
C824 C 0.27861 0.48584 0.06719 0.0
C825 C 0.27656 0.504 0.05193 0.0
H826 H 0.26286 0.45378 0.08019 0.0
H827 H 0.2624 0.62916 0.93113 0.0
H828 H 0.5405 0.22393 0.90855 0.0
H829 H 0.53205 0.21838 0.94653 0.0
H830 H 0.58802 0.26873 0.96247 0.0
H831 H 0.59747 0.27337 0.92459 0.0
H832 H 0.58737 0.23458 0.99099 0.0
H833 H 0.52781 0.28536 0.95872 0.0
H834 H 0.49623 0.29586 0.93278 0.0
H835 H 0.45334 0.23684 0.95466 0.0
H836 H 0.48484 0.2258 0.98054 0.0
H837 H 0.5481 0.28804 0.08697 0.0
H838 H 0.5574 0.27977 0.04952 0.0
H839 H 0.50846 0.21991 0.05001 0.0
H840 H 0.4991 0.22807 0.08787 0.0
H841 H 0.504 0.25261 0.01375 0.0
H842 H 0.56369 0.20642 0.05022 0.0
H843 H 0.59558 0.19959 0.07679 0.0
H844 H 0.63871 0.25418 0.04747 0.0
H845 H 0.60691 0.26162 0.02092 0.0
C846 C 0.55151 0.23332 0.92011 0.0
C847 C 0.56953 0.24932 0.91342 0.0
C848 C 0.54642 0.23035 0.94187 0.0
C849 C 0.55899 0.24358 0.95739 0.0
C850 C 0.57791 0.25846 0.95083 0.0
C851 C 0.58316 0.26127 0.92911 0.0
C852 C 0.55167 0.24309 0.9803 0.0
C853 C 0.56916 0.2386 0.99593 0.0
C854 C 0.52778 0.24792 0.98684 0.0
C855 C 0.50879 0.25458 0.97137 0.0
C856 C 0.51172 0.27452 0.95788 0.0
C857 C 0.49383 0.28058 0.94321 0.0
C858 C 0.47283 0.26698 0.94203 0.0
C859 C 0.46964 0.24733 0.95556 0.0
C860 C 0.4875 0.24116 0.97023 0.0
C861 C 0.53914 0.27321 0.07909 0.0
C862 C 0.52271 0.25881 0.0903 0.0
C863 C 0.54462 0.26841 0.05774 0.0
C864 C 0.53373 0.24916 0.04705 0.0
C865 C 0.51709 0.23483 0.05804 0.0
C866 C 0.51182 0.23944 0.07961 0.0
C867 C 0.53978 0.24446 0.02431 0.0
C868 C 0.52208 0.2481 0.00874 0.0
C869 C 0.56354 0.23927 0.01783 0.0
C870 C 0.58282 0.23468 0.03366 0.0
C871 C 0.5799 0.2171 0.04953 0.0
C872 C 0.59797 0.21309 0.06458 0.0
C873 C 0.61914 0.22647 0.06384 0.0
C874 C 0.6223 0.24384 0.04803 0.0
C875 C 0.60426 0.24793 0.03295 0.0
H876 H 0.63312 0.22335 0.07551 0.0
H877 H 0.45899 0.2717 0.93066 0.0
H878 H 0.83729 0.49749 0.09679 0.0
H879 H 0.84341 0.50377 0.0583 0.0
H880 H 0.78958 0.55928 0.05888 0.0
H881 H 0.78352 0.55328 0.09702 0.0
H882 H 0.78279 0.53013 0.02591 0.0
H883 H 0.85011 0.57195 0.05699 0.0
H884 H 0.88667 0.57568 0.0789 0.0
H885 H 0.92151 0.52215 0.0404 0.0
H886 H 0.88501 0.51787 0.01842 0.0
H887 H 0.79912 0.59021 0.92935 0.0
H888 H 0.80064 0.58207 0.9677 0.0
H889 H 0.85161 0.52527 0.95655 0.0
H890 H 0.85008 0.53325 0.91802 0.0
H891 H 0.8615 0.55116 0.99397 0.0
H892 H 0.79473 0.51091 0.96184 0.0
H893 H 0.75834 0.50779 0.93965 0.0
H894 H 0.7224 0.55846 0.98037 0.0
H895 H 0.75874 0.56218 0.00261 0.0
C896 C 0.82682 0.51107 0.0887 0.0
C897 C 0.80968 0.52464 0.10002 0.0
C898 C 0.83036 0.51467 0.06671 0.0
C899 C 0.817 0.53207 0.05565 0.0
C900 C 0.79998 0.54562 0.06696 0.0
C901 C 0.79642 0.54203 0.08882 0.0
C902 C 0.82026 0.53621 0.03228 0.0
C903 C 0.79999 0.53494 0.01902 0.0
C904 C 0.8428 0.54181 0.02306 0.0
C905 C 0.86474 0.54439 0.03623 0.0
C906 C 0.8655 0.56083 0.05331 0.0
C907 C 0.88622 0.56307 0.06572 0.0
C908 C 0.90638 0.54911 0.06109 0.0
C909 C 0.90587 0.53292 0.044 0.0
C910 C 0.88517 0.53059 0.03155 0.0
C911 C 0.81087 0.57615 0.93506 0.0
C912 C 0.82425 0.56219 0.92057 0.0
C913 C 0.81174 0.57153 0.957 0.0
C914 C 0.82588 0.55275 0.96497 0.0
C915 C 0.8405 0.53979 0.95076 0.0
C916 C 0.83967 0.54444 0.92873 0.0
C917 C 0.82392 0.54565 0.98785 0.0
C918 C 0.84437 0.54622 1.00092 0.0
C919 C 0.80153 0.53939 0.99698 0.0
C920 C 0.77953 0.53697 0.98379 0.0
C921 C 0.77913 0.52151 0.96598 0.0
C922 C 0.7585 0.51962 0.9534 0.0
C923 C 0.73809 0.53296 0.95857 0.0
C924 C 0.73824 0.54816 0.97637 0.0
C925 C 0.75884 0.55015 0.98898 0.0
H926 H 0.72213 0.53148 0.94881 0.0
H927 H 0.92241 0.55087 0.07071 0.0
H928 H 0.05095 0.22894 0.32472 0.0
H929 H 0.08261 0.19888 0.3218 0.0
H930 H 0.11736 0.24117 0.27309 0.0
H931 H 0.08503 0.27107 0.27553 0.0
H932 H 0.12326 0.19406 0.26523 0.0
H933 H 0.13373 0.246 0.32558 0.0
H934 H 0.12149 0.26671 0.35872 0.0
H935 H 0.11154 0.19888 0.38984 0.0
H936 H 0.12333 0.17774 0.35674 0.0
H937 H 0.24193 0.15471 0.27973 0.0
H938 H 0.20595 0.17944 0.2803 0.0
H939 H 0.17208 0.12948 0.3233 0.0
H940 H 0.20819 0.10415 0.32245 0.0
H941 H 0.16475 0.1786 0.33409 0.0
H942 H 0.15701 0.12713 0.27278 0.0
H943 H 0.17057 0.108 0.23929 0.0
H944 H 0.17744 0.17709 0.20978 0.0
H945 H 0.16425 0.19667 0.2432 0.0
C946 C 0.06503 0.23151 0.31299 0.0
C947 C 0.06567 0.25232 0.3004 0.0
C948 C 0.0832 0.21441 0.31144 0.0
C949 C 0.10275 0.21809 0.29769 0.0
C950 C 0.10254 0.23804 0.28394 0.0
C951 C 0.08404 0.25504 0.28524 0.0
C952 C 0.12409 0.2021 0.29891 0.0
C953 C 0.13245 0.19087 0.28025 0.0
C954 C 0.13594 0.19762 0.31858 0.0
C955 C 0.12919 0.21028 0.33861 0.0
C956 C 0.12878 0.23549 0.33945 0.0
C957 C 0.12194 0.24731 0.35823 0.0
C958 C 0.11569 0.23412 0.37636 0.0
C959 C 0.11635 0.20907 0.37577 0.0
C960 C 0.12312 0.19716 0.357 0.0
C961 C 0.22684 0.14886 0.28927 0.0
C962 C 0.22781 0.1272 0.30075 0.0
C963 C 0.20628 0.16308 0.28961 0.0
C964 C 0.18616 0.15607 0.30148 0.0
C965 C 0.18739 0.13511 0.31389 0.0
C966 C 0.20805 0.12073 0.31349 0.0
C967 C 0.16385 0.17057 0.30043 0.0
C968 C 0.15539 0.18163 0.31912 0.0
C969 C 0.15211 0.17511 0.28075 0.0
C970 C 0.15982 0.16337 0.26056 0.0
C971 C 0.16158 0.13825 0.2592 0.0
C972 C 0.16917 0.12733 0.24022 0.0
C973 C 0.17491 0.14132 0.22243 0.0
C974 C 0.173 0.16627 0.22357 0.0
C975 C 0.16544 0.17729 0.24252 0.0
H976 H 0.1808 0.13283 0.20775 0.0
H977 H 0.11039 0.2433 0.39089 0.0
H978 H 0.86568 0.05571 0.30435 0.0
H979 H 0.89424 0.08872 0.30117 0.0
H980 H 0.84124 0.13045 0.26751 0.0
H981 H 0.81285 0.09676 0.2699 0.0
H982 H 0.88535 0.1411 0.25303 0.0
H983 H 0.84822 0.13561 0.32176 0.0
H984 H 0.83547 0.1156 0.355 0.0
H985 H 0.90903 0.10235 0.37141 0.0
H986 H 0.92221 0.12195 0.33806 0.0
H987 H 0.92672 0.25666 0.28631 0.0
H988 H 0.90416 0.21989 0.27938 0.0
H989 H 0.961 0.17827 0.30767 0.0
H990 H 0.98366 0.21523 0.31479 0.0
H991 H 0.91602 0.16717 0.32388 0.0
H992 H 0.95234 0.17614 0.25469 0.0
H993 H 0.96312 0.19767 0.22166 0.0
H994 H 0.88855 0.207 0.2068 0.0
H995 H 0.87731 0.18581 0.23991 0.0
C996 C 0.8604 0.07167 0.29569 0.0
C997 C 0.83714 0.07377 0.28736 0.0
C998 C 0.87665 0.0906 0.29403 0.0
C999 C 0.8697 0.11238 0.28467 0.0
C1000 C 0.84699 0.1139 0.27493 0.0
C1001 C 0.83082 0.09464 0.2762 0.0
C1002 C 0.8853 0.13398 0.28686 0.0
C1003 C 0.89187 0.14693 0.26853 0.0
C1004 C 0.89404 0.14155 0.30708 0.0
C1005 C 0.88619 0.13005 0.32731 0.0
C1006 C 0.86167 0.1283 0.33239 0.0
C1007 C 0.85437 0.11704 0.35125 0.0
C1008 C 0.87142 0.10766 0.36529 0.0
C1009 C 0.89583 0.1096 0.36051 0.0
C1010 C 0.90324 0.12079 0.34163 0.0
C1011 C 0.93448 0.23968 0.29099 0.0
C1012 C 0.95693 0.23887 0.30123 0.0
C1013 C 0.92164 0.21864 0.28685 0.0
C1014 C 0.93092 0.19628 0.29289 0.0
C1015 C 0.95352 0.19533 0.3028 0.0
C1016 C 0.96652 0.21641 0.30676 0.0
C1017 C 0.9163 0.17415 0.29005 0.0
C1018 C 0.90972 0.16121 0.30833 0.0
C1019 C 0.90727 0.1669 0.26986 0.0
C1020 C 0.91399 0.17956 0.24989 0.0
C1021 C 0.93823 0.18295 0.24447 0.0
C1022 C 0.94443 0.19506 0.22572 0.0
C1023 C 0.92653 0.20375 0.21217 0.0
C1024 C 0.9024 0.20028 0.21732 0.0
C1025 C 0.8961 0.18819 0.23607 0.0
H1026 H 0.93136 0.21312 0.19765 0.0
H1027 H 0.86573 0.09894 0.37988 0.0
H1028 H 0.86796 0.96071 0.26053 0.0
H1029 H 0.90347 0.93563 0.26353 0.0
H1030 H 0.90172 0.94332 0.33212 0.0
H1031 H 0.86548 0.96824 0.32929 0.0
H1032 H 0.94875 0.94665 0.31377 0.0
H1033 H 0.88014 0.89406 0.31154 0.0
H1034 H 0.84241 0.87829 0.29652 0.0
H1035 H 0.87865 0.86043 0.23799 0.0
H1036 H 0.91654 0.87644 0.25255 0.0
H1037 H 0.01801 0.84837 0.34623 0.0
H1038 H 0.98789 0.8787 0.33929 0.0
H1039 H 0.98647 0.85832 0.27269 0.0
H1040 H 0.01658 0.82703 0.27976 0.0
H1041 H 0.94226 0.86283 0.28753 0.0
H1042 H 0.01144 0.91242 0.28985 0.0
H1043 H 0.04949 0.92833 0.30406 0.0
H1044 H 0.0133 0.95249 0.36079 0.0
H1045 H 0.97508 0.93639 0.34709 0.0
C1046 C 0.87492 0.95704 0.27632 0.0
C1047 C 0.86346 0.96615 0.29473 0.0
C1048 C 0.89539 0.94277 0.27797 0.0
C1049 C 0.90504 0.93726 0.29805 0.0
C1050 C 0.89449 0.94728 0.31645 0.0
C1051 C 0.87382 0.96155 0.31482 0.0
C1052 C 0.9255 0.92023 0.29968 0.0
C1053 C 0.9473 0.92824 0.30829 0.0
C1054 C 0.92384 0.89645 0.29179 0.0
C1055 C 0.90111 0.88668 0.28306 0.0
C1056 C 0.88002 0.88696 0.2954 0.0
C1057 C 0.85861 0.87794 0.28698 0.0
C1058 C 0.85812 0.86843 0.26629 0.0
C1059 C 0.87905 0.86785 0.254 0.0
C1060 C 0.9005 0.87687 0.26233 0.0
C1061 C 0.01157 0.8504 0.33 0.0
C1062 C 0.01977 0.83523 0.31351 0.0
C1063 C 0.99437 0.86796 0.32603 0.0
C1064 C 0.98507 0.87116 0.30541 0.0
C1065 C 0.99346 0.8563 0.28874 0.0
C1066 C 0.01074 0.83851 0.29275 0.0
C1067 C 0.96563 0.8891 0.30184 0.0
C1068 C 0.94392 0.88128 0.29286 0.0
C1069 C 0.96747 0.91311 0.30923 0.0
C1070 C 0.9904 0.92303 0.31749 0.0
C1071 C 0.01161 0.92098 0.30542 0.0
C1072 C 0.03321 0.93005 0.31338 0.0
C1073 C 0.03382 0.94138 0.33333 0.0
C1074 C 0.0128 0.9437 0.34534 0.0
C1075 C 0.99115 0.93463 0.33747 0.0
H1076 H 0.05056 0.94838 0.33947 0.0
H1077 H 0.84153 0.86145 0.2598 0.0
H1078 H 0.22003 0.03257 0.30689 0.0
H1079 H 0.19107 0.99986 0.30418 0.0
H1080 H 0.24466 0.95543 0.27392 0.0
H1081 H 0.27356 0.98876 0.27591 0.0
H1082 H 0.19971 0.94468 0.25898 0.0
H1083 H 0.23738 0.95355 0.32718 0.0
H1084 H 0.25064 0.97546 0.35937 0.0
H1085 H 0.17738 0.99076 0.37561 0.0
H1086 H 0.1637 0.96929 0.34328 0.0
H1087 H 0.15904 0.83153 0.29877 0.0
H1088 H 0.18116 0.86787 0.28939 0.0
H1089 H 0.12386 0.91116 0.31511 0.0
H1090 H 0.10157 0.87462 0.32454 0.0
H1091 H 0.1693 0.92304 0.33104 0.0
H1092 H 0.1323 0.9103 0.26278 0.0
H1093 H 0.12093 0.88705 0.23077 0.0
H1094 H 0.19523 0.87646 0.21535 0.0
H1095 H 0.20706 0.89937 0.24746 0.0
C1096 C 0.22536 0.01609 0.29899 0.0
C1097 C 0.24894 0.0131 0.2916 0.0
C1098 C 0.20887 0.99735 0.29758 0.0
C1099 C 0.21586 0.97496 0.28938 0.0
C1100 C 0.23889 0.97252 0.2804 0.0
C1101 C 0.25535 0.99155 0.28145 0.0
C1102 C 0.20007 0.9537 0.29247 0.0
C1103 C 0.19323 0.93981 0.27474 0.0
C1104 C 0.1914 0.94742 0.31304 0.0
C1105 C 0.19953 0.96001 0.3327 0.0
C1106 C 0.2241 0.96172 0.33754 0.0
C1107 C 0.23169 0.97405 0.35581 0.0
C1108 C 0.21486 0.98454 0.3695 0.0
C1109 C 0.1904 0.98265 0.36497 0.0
C1110 C 0.18271 0.9704 0.34668 0.0
C1111 C 0.15108 0.84879 0.3023 0.0
C1112 C 0.12865 0.85024 0.31254 0.0
C1113 C 0.16365 0.86955 0.29677 0.0
C1114 C 0.15414 0.89224 0.30146 0.0
C1115 C 0.13149 0.89381 0.31128 0.0
C1116 C 0.11873 0.87298 0.31657 0.0
C1117 C 0.1687 0.91414 0.29754 0.0
C1118 C 0.17553 0.92805 0.31522 0.0
C1119 C 0.17762 0.92011 0.277 0.0
C1120 C 0.17056 0.90638 0.25765 0.0
C1121 C 0.14622 0.90285 0.25267 0.0
C1122 C 0.13969 0.88976 0.23449 0.0
C1123 C 0.15735 0.88023 0.22107 0.0
C1124 C 0.18157 0.88383 0.22578 0.0
C1125 C 0.1882 0.89689 0.24395 0.0
H1126 H 0.15226 0.87011 0.20699 0.0
H1127 H 0.22077 0.99409 0.38364 0.0
H1128 H 0.25641 0.93086 0.71432 0.0
H1129 H 0.22147 0.90703 0.72447 0.0
H1130 H 0.17499 0.95964 0.6956 0.0
H1131 H 0.21017 0.98405 0.6862 0.0
H1132 H 0.15393 0.94296 0.72965 0.0
H1133 H 0.1922 0.90595 0.66957 0.0
H1134 H 0.22546 0.88826 0.64885 0.0
H1135 H 0.23403 0.83348 0.69636 0.0
H1136 H 0.20103 0.85106 0.71753 0.0
H1137 H 0.05768 0.86485 0.70011 0.0
H1138 H 0.09102 0.89304 0.7036 0.0
H1139 H 0.12856 0.84255 0.74354 0.0
H1140 H 0.09479 0.8143 0.74034 0.0
H1141 H 0.15445 0.85756 0.70722 0.0
H1142 H 0.11131 0.89399 0.76495 0.0
H1143 H 0.0761 0.91185 0.78274 0.0
H1144 H 0.0743 0.96795 0.73587 0.0
H1145 H 0.1093 0.95023 0.7176 0.0
C1146 C 0.23872 0.9374 0.71028 0.0
C1147 C 0.236 0.95915 0.69923 0.0
C1148 C 0.21872 0.92372 0.71601 0.0
C1149 C 0.19549 0.9311 0.71031 0.0
C1150 C 0.19267 0.95341 0.7001 0.0
C1151 C 0.21274 0.96737 0.69471 0.0
C1152 C 0.17442 0.91508 0.71422 0.0
C1153 C 0.15401 0.92435 0.72456 0.0
C1154 C 0.17447 0.8906 0.70794 0.0
C1155 C 0.19433 0.87999 0.69525 0.0
C1156 C 0.20131 0.89025 0.67568 0.0
C1157 C 0.22009 0.88023 0.66385 0.0
C1158 C 0.2319 0.85981 0.67132 0.0
C1159 C 0.22491 0.84933 0.69062 0.0
C1160 C 0.20615 0.85931 0.70254 0.0
C1161 C 0.0727 0.8601 0.71024 0.0
C1162 C 0.07359 0.83751 0.72012 0.0
C1163 C 0.09176 0.87622 0.71221 0.0
C1164 C 0.11231 0.86997 0.72385 0.0
C1165 C 0.11281 0.8478 0.73457 0.0
C1166 C 0.09346 0.83178 0.73291 0.0
C1167 C 0.13407 0.88542 0.72264 0.0
C1168 C 0.15455 0.87608 0.7126 0.0
C1169 C 0.13384 0.90988 0.72879 0.0
C1170 C 0.11285 0.92066 0.73981 0.0
C1171 C 0.1033 0.91002 0.75833 0.0
C1172 C 0.08339 0.92015 0.76852 0.0
C1173 C 0.07294 0.94099 0.76042 0.0
C1174 C 0.08241 0.95179 0.74213 0.0
C1175 C 0.10231 0.94173 0.73186 0.0
H1176 H 0.05753 0.9488 0.76833 0.0
H1177 H 0.24644 0.85207 0.66213 0.0
H1178 H 0.1652 0.25331 0.7026 0.0
H1179 H 0.18721 0.21612 0.70794 0.0
H1180 H 0.1223 0.17558 0.69848 0.0
H1181 H 0.10003 0.2129 0.69244 0.0
H1182 H 0.15515 0.15774 0.73295 0.0
H1183 H 0.1542 0.17946 0.65794 0.0
H1184 H 0.1597 0.20736 0.62779 0.0
H1185 H 0.23381 0.2163 0.6446 0.0
H1186 H 0.22864 0.18873 0.67507 0.0
H1187 H 0.22889 0.06221 0.66955 0.0
H1188 H 0.20012 0.09458 0.67428 0.0
H1189 H 0.23311 0.11349 0.73435 0.0
H1190 H 0.26242 0.08077 0.72959 0.0
H1191 H 0.21478 0.14156 0.67575 0.0
H1192 H 0.18518 0.1424 0.76408 0.0
H1193 H 0.17885 0.11401 0.79376 0.0
H1194 H 0.1643 0.05757 0.74877 0.0
H1195 H 0.1702 0.08568 0.71885 0.0
C1196 C 0.15546 0.23658 0.7016 0.0
C1197 C 0.13083 0.23623 0.6966 0.0
C1198 C 0.1681 0.21529 0.70492 0.0
C1199 C 0.15645 0.19307 0.7035 0.0
C1200 C 0.13162 0.19256 0.69975 0.0
C1201 C 0.11892 0.21395 0.69627 0.0
C1202 C 0.1708 0.17059 0.70364 0.0
C1203 C 0.16821 0.15415 0.72048 0.0
C1204 C 0.18776 0.16586 0.68734 0.0
C1205 C 0.19097 0.18223 0.6689 0.0
C1206 C 0.17162 0.18753 0.65531 0.0
C1207 C 0.17468 0.20326 0.63815 0.0
C1208 C 0.19707 0.21365 0.63431 0.0
C1209 C 0.21647 0.20827 0.6476 0.0
C1210 C 0.21348 0.19259 0.66481 0.0
C1211 C 0.22983 0.07292 0.68401 0.0
C1212 C 0.24808 0.06906 0.69912 0.0
C1213 C 0.21334 0.09148 0.68666 0.0
C1214 C 0.21455 0.10663 0.70454 0.0
C1215 C 0.23179 0.10195 0.72044 0.0
C1216 C 0.24846 0.08322 0.71776 0.0
C1217 C 0.19929 0.12854 0.70509 0.0
C1218 C 0.20181 0.14505 0.68833 0.0
C1219 C 0.18225 0.13313 0.7214 0.0
C1220 C 0.17842 0.1161 0.73924 0.0
C1221 C 0.18057 0.12395 0.76053 0.0
C1222 C 0.17705 0.1079 0.77739 0.0
C1223 C 0.17127 0.08398 0.77315 0.0
C1224 C 0.16889 0.07607 0.75203 0.0
C1225 C 0.17237 0.09205 0.73512 0.0
H1226 H 0.16856 0.07159 0.78623 0.0
H1227 H 0.19941 0.22582 0.62102 0.0
H1228 H 0.84232 0.15893 0.70826 0.0
H1229 H 0.87868 0.18279 0.70906 0.0
H1230 H 0.91555 0.12858 0.67227 0.0
H1231 H 0.87904 0.1038 0.67233 0.0
H1232 H 0.94337 0.14376 0.70411 0.0
H1233 H 0.89872 0.18252 0.64972 0.0
H1234 H 0.86371 0.20127 0.63249 0.0
H1235 H 0.86286 0.25631 0.68063 0.0
H1236 H 0.89767 0.23769 0.69835 0.0
H1237 H 0.03692 0.22714 0.67429 0.0
H1238 H 1.00457 0.19757 0.67643 0.0
H1239 H 0.96905 0.24086 0.72413 0.0
H1240 H 1.00184 0.27032 0.72237 0.0
H1241 H 0.94186 0.23021 0.68566 0.0
H1242 H 0.98831 0.18977 0.73935 0.0
H1243 H 0.02461 0.17077 0.75406 0.0
H1244 H 0.02369 0.11863 0.70341 0.0
H1245 H 0.98757 0.13755 0.68819 0.0
C1246 C 0.85814 0.15195 0.70037 0.0
C1247 C 0.85778 0.12933 0.69037 0.0
C1248 C 0.87891 0.1658 0.70064 0.0
C1249 C 0.89986 0.15769 0.69052 0.0
C1250 C 0.89958 0.13526 0.68015 0.0
C1251 C 0.87866 0.12122 0.67999 0.0
C1252 C 0.92198 0.17261 0.69146 0.0
C1253 C 0.94314 0.16256 0.69972 0.0
C1254 C 0.92167 0.19728 0.68606 0.0
C1255 C 0.9007 0.20857 0.67547 0.0
C1256 C 0.89096 0.19851 0.65674 0.0
C1257 C 0.87116 0.20914 0.64686 0.0
C1258 C 0.86103 0.22994 0.65549 0.0
C1259 C 0.87071 0.24019 0.67398 0.0
C1260 C 0.89049 0.22962 0.68393 0.0
C1261 C 0.02259 0.22992 0.68574 0.0
C1262 C 0.02185 0.25087 0.69827 0.0
C1263 C 1.00413 0.21305 0.68693 0.0
C1264 C 0.98441 0.21706 0.70039 0.0
C1265 C 0.98419 0.23743 0.7137 0.0
C1266 C 1.00297 0.25411 0.71284 0.0
C1267 C 0.96296 0.20146 0.69865 0.0
C1268 C 0.94201 0.2114 0.69006 0.0
C1269 C 0.96367 0.17667 0.70334 0.0
C1270 C 0.98536 0.16524 0.7125 0.0
C1271 C 0.99597 0.1744 0.73122 0.0
C1272 C 0.01649 0.16361 0.73968 0.0
C1273 C 0.02649 0.14355 0.72964 0.0
C1274 C 0.01595 0.13419 0.71115 0.0
C1275 C 0.99544 0.14493 0.70261 0.0
H1276 H 0.04237 0.13522 0.73623 0.0
H1277 H 0.84571 0.23814 0.64782 0.0
H1278 H 0.95945 0.86125 0.74697 0.0
H1279 H 0.93515 0.89748 0.74594 0.0
H1280 H 0.94839 0.90394 0.67826 0.0
H1281 H 0.97261 0.86705 0.6791 0.0
H1282 H 0.94999 0.94852 0.70156 0.0
H1283 H 0.89808 0.87976 0.69312 0.0
H1284 H 0.88162 0.84038 0.70336 0.0
H1285 H 0.85829 0.8695 0.76353 0.0
H1286 H 0.87495 0.90898 0.75376 0.0
H1287 H 0.85503 0.01876 0.66569 0.0
H1288 H 0.88487 0.98862 0.67355 0.0
H1289 H 0.85651 0.98118 0.73742 0.0
H1290 H 0.82554 0.01136 0.7293 0.0
H1291 H 0.86399 0.93849 0.72007 0.0
H1292 H 0.912 0.0082 0.72771 0.0
H1293 H 0.92854 0.04776 0.71819 0.0
H1294 H 0.95969 0.01786 0.66124 0.0
H1295 H 0.94304 0.97818 0.67024 0.0
C1296 C 0.95722 0.87027 0.73181 0.0
C1297 C 0.96755 0.86093 0.71299 0.0
C1298 C 0.94341 0.8911 0.7313 0.0
C1299 C 0.93961 0.90317 0.71198 0.0
C1300 C 0.95104 0.8948 0.69334 0.0
C1301 C 0.96489 0.87379 0.69383 0.0
C1302 C 0.92261 0.92364 0.71119 0.0
C1303 C 0.93114 0.94635 0.70538 0.0
C1304 C 0.8982 0.92092 0.71699 0.0
C1305 C 0.88799 0.89725 0.7228 0.0
C1306 C 0.88961 0.87771 0.7086 0.0
C1307 C 0.88022 0.85538 0.71431 0.0
C1308 C 0.86898 0.85242 0.73411 0.0
C1309 C 0.86704 0.87181 0.74821 0.0
C1310 C 0.87644 0.89417 0.74259 0.0
C1311 C 0.85512 0.01098 0.68155 0.0
C1312 C 0.83783 0.01753 0.6969 0.0
C1313 C 0.87245 0.99379 0.68607 0.0
C1314 C 0.87334 0.98287 0.70621 0.0
C1315 C 0.85629 0.9895 0.72179 0.0
C1316 C 0.83868 0.00678 0.71719 0.0
C1317 C 0.8912 0.96351 0.7101 0.0
C1318 C 0.88288 0.94089 0.7165 0.0
C1319 C 0.91584 0.9664 0.705 0.0
C1320 C 0.92613 0.99021 0.69961 0.0
C1321 C 0.92225 0.01008 0.71309 0.0
C1322 C 0.93167 0.03253 0.70779 0.0
C1323 C 0.94513 0.03533 0.68911 0.0
C1324 C 0.94926 0.01566 0.67571 0.0
C1325 C 0.93986 0.99317 0.68092 0.0
H1326 H 0.95239 0.05272 0.68503 0.0
H1327 H 0.86172 0.83512 0.7385 0.0
H1328 H 0.56131 0.7248 0.81302 0.0
H1329 H 0.59321 0.69542 0.80898 0.0
H1330 H 0.62198 0.73541 0.75584 0.0
H1331 H 0.58988 0.76542 0.76015 0.0
H1332 H 0.61128 0.66512 0.78085 0.0
H1333 H 0.6836 0.73441 0.76094 0.0
H1334 H 0.6899 0.7782 0.76281 0.0
H1335 H 0.64285 0.78261 0.81709 0.0
H1336 H 0.63663 0.73882 0.81576 0.0
H1337 H 0.72511 0.60245 0.78303 0.0
H1338 H 0.69046 0.62646 0.77143 0.0
H1339 H 0.69933 0.67251 0.82643 0.0
H1340 H 0.73378 0.64895 0.83773 0.0
H1341 H 0.69221 0.69926 0.7932 0.0
H1342 H 0.65446 0.6284 0.82244 0.0
H1343 H 0.64618 0.58507 0.82508 0.0
H1344 H 0.62197 0.58412 0.7599 0.0
H1345 H 0.6304 0.62743 0.75681 0.0
C1346 C 0.57412 0.72712 0.80015 0.0
C1347 C 0.57325 0.74754 0.78703 0.0
C1348 C 0.59233 0.71018 0.79778 0.0
C1349 C 0.61029 0.71328 0.78232 0.0
C1350 C 0.60848 0.73275 0.76806 0.0
C1351 C 0.59005 0.74979 0.7704 0.0
C1352 C 0.63199 0.69762 0.78317 0.0
C1353 C 0.62905 0.67258 0.78318 0.0
C1354 C 0.65518 0.70723 0.78663 0.0
C1355 C 0.65943 0.73343 0.78805 0.0
C1356 C 0.67471 0.74473 0.77333 0.0
C1357 C 0.67826 0.76954 0.7743 0.0
C1358 C 0.66671 0.78319 0.79001 0.0
C1359 C 0.65174 0.77203 0.8049 0.0
C1360 C 0.64821 0.74723 0.80405 0.0
C1361 C 0.71943 0.61754 0.7927 0.0
C1362 C 0.7323 0.62389 0.81121 0.0
C1363 C 0.69968 0.63133 0.78604 0.0
C1364 C 0.69225 0.65148 0.79797 0.0
C1365 C 0.70481 0.65735 0.81672 0.0
C1366 C 0.72452 0.64379 0.82322 0.0
C1367 C 0.67146 0.66668 0.79132 0.0
C1368 C 0.67459 0.69169 0.79025 0.0
C1369 C 0.64835 0.65704 0.78749 0.0
C1370 C 0.64335 0.63105 0.78931 0.0
C1371 C 0.64756 0.61889 0.80862 0.0
C1372 C 0.64281 0.59435 0.81021 0.0
C1373 C 0.63363 0.58184 0.79264 0.0
C1374 C 0.62914 0.59383 0.77347 0.0
C1375 C 0.63389 0.61837 0.7718 0.0
H1376 H 0.62991 0.56287 0.79389 0.0
H1377 H 0.6694 0.8024 0.79067 0.0
H1378 H 0.46808 0.72099 0.76071 0.0
H1379 H 0.44487 0.68394 0.76121 0.0
H1380 H 0.44832 0.68299 0.8301 0.0
H1381 H 0.47172 0.72048 0.82964 0.0
H1382 H 0.45278 0.63694 0.811 0.0
H1383 H 0.40026 0.7058 0.80695 0.0
H1384 H 0.38589 0.74377 0.79142 0.0
H1385 H 0.37278 0.70831 0.73151 0.0
H1386 H 0.38741 0.67019 0.74661 0.0
H1387 H 0.35286 0.56948 0.83988 0.0
H1388 H 0.38357 0.59924 0.8336 0.0
H1389 H 0.3658 0.60017 0.76646 0.0
H1390 H 0.3339 0.57045 0.77287 0.0
H1391 H 0.37074 0.64429 0.78095 0.0
H1392 H 0.41907 0.57445 0.78547 0.0
H1393 H 0.43343 0.53621 0.80043 0.0
H1394 H 0.45509 0.57233 0.85799 0.0
H1395 H 0.44051 0.61074 0.84352 0.0
C1396 C 0.46404 0.71284 0.77598 0.0
C1397 C 0.47128 0.72388 0.79519 0.0
C1398 C 0.45084 0.69162 0.77623 0.0
C1399 C 0.44443 0.68098 0.79569 0.0
C1400 C 0.45298 0.69101 0.8149 0.0
C1401 C 0.46635 0.71234 0.81465 0.0
C1402 C 0.42743 0.66046 0.79589 0.0
C1403 C 0.43477 0.63855 0.80463 0.0
C1404 C 0.40421 0.66236 0.78685 0.0
C1405 C 0.39515 0.68521 0.77785 0.0
C1406 C 0.39447 0.70614 0.79042 0.0
C1407 C 0.38626 0.72769 0.7817 0.0
C1408 C 0.37848 0.72847 0.76048 0.0
C1409 C 0.37884 0.70769 0.74794 0.0
C1410 C 0.38707 0.68611 0.75658 0.0
C1411 C 0.35548 0.57574 0.82366 0.0
C1412 C 0.3409 0.56748 0.80683 0.0
C1413 C 0.37331 0.59272 0.82009 0.0
C1414 C 0.37746 0.60165 0.79949 0.0
C1415 C 0.36307 0.59338 0.78249 0.0
C1416 C 0.34491 0.57638 0.78612 0.0
C1417 C 0.39589 0.62067 0.79636 0.0
C1418 C 0.38884 0.64243 0.78708 0.0
C1419 C 0.41944 0.61852 0.80476 0.0
C1420 C 0.42856 0.59549 0.81343 0.0
C1421 C 0.42677 0.57423 0.80137 0.0
C1422 C 0.43496 0.55251 0.80976 0.0
C1423 C 0.44514 0.55183 0.83016 0.0
C1424 C 0.44721 0.57288 0.84219 0.0
C1425 C 0.43901 0.59464 0.83388 0.0
H1426 H 0.45145 0.535 0.83664 0.0
H1427 H 0.37214 0.74517 0.75375 0.0
H1428 H 0.53968 0.35744 0.83076 0.0
H1429 H 0.50865 0.38829 0.82977 0.0
H1430 H 0.47174 0.34898 0.7802 0.0
H1431 H 0.50346 0.31836 0.78066 0.0
H1432 H 0.46602 0.39614 0.77447 0.0
H1433 H 0.45725 0.3418 0.83307 0.0
H1434 H 0.47025 0.31959 0.86507 0.0
H1435 H 0.48178 0.38595 0.8985 0.0
H1436 H 0.46921 0.40859 0.86655 0.0
H1437 H 0.34612 0.42637 0.79598 0.0
H1438 H 0.38378 0.40437 0.79541 0.0
H1439 H 0.41746 0.4604 0.83229 0.0
H1440 H 0.37965 0.48324 0.83226 0.0
H1441 H 0.4267 0.4085 0.84495 0.0
H1442 H 0.4311 0.46218 0.78492 0.0
H1443 H 0.41542 0.48179 0.75252 0.0
H1444 H 0.40893 0.4133 0.72152 0.0
H1445 H 0.4242 0.39324 0.75388 0.0
C1446 C 0.52528 0.35575 0.81923 0.0
C1447 C 0.52385 0.33555 0.80583 0.0
C1448 C 0.50747 0.37329 0.81879 0.0
C1449 C 0.48748 0.37063 0.80537 0.0
C1450 C 0.48692 0.35134 0.7908 0.0
C1451 C 0.50507 0.33392 0.79098 0.0
C1452 C 0.46642 0.3868 0.80786 0.0
C1453 C 0.4574 0.39873 0.78986 0.0
C1454 C 0.45522 0.39045 0.82802 0.0
C1455 C 0.46254 0.37689 0.84734 0.0
C1456 C 0.46271 0.35167 0.8472 0.0
C1457 C 0.46999 0.339 0.86533 0.0
C1458 C 0.4769 0.35135 0.8838 0.0
C1459 C 0.47647 0.37641 0.88418 0.0
C1460 C 0.46926 0.38917 0.86606 0.0
C1461 C 0.36149 0.43417 0.80392 0.0
C1462 C 0.35994 0.45682 0.81382 0.0
C1463 C 0.38299 0.42148 0.80365 0.0
C1464 C 0.40345 0.43093 0.8135 0.0
C1465 C 0.40182 0.4529 0.82448 0.0
C1466 C 0.38021 0.46585 0.82456 0.0
C1467 C 0.42647 0.4178 0.8116 0.0
C1468 C 0.43568 0.40624 0.82967 0.0
C1469 C 0.43756 0.41417 0.79147 0.0
C1470 C 0.42863 0.4262 0.77189 0.0
C1471 C 0.42615 0.45128 0.77126 0.0
C1472 C 0.41736 0.46248 0.75289 0.0
C1473 C 0.41114 0.44879 0.73498 0.0
C1474 C 0.41374 0.42388 0.7354 0.0
C1475 C 0.42249 0.41259 0.75375 0.0
H1476 H 0.40434 0.4575 0.72078 0.0
H1477 H 0.48252 0.34151 0.89782 0.0
H1478 H 0.73313 0.53099 0.78201 0.0
H1479 H 0.70417 0.49808 0.77566 0.0
H1480 H 0.74301 0.45353 0.82006 0.0
H1481 H 0.77125 0.4861 0.82659 0.0
H1482 H 0.73001 0.4292 0.78292 0.0
H1483 H 0.69537 0.48328 0.8358 0.0
H1484 H 0.67871 0.52169 0.84855 0.0
H1485 H 0.62436 0.51863 0.80001 0.0
H1486 H 0.64112 0.48053 0.7866 0.0
H1487 H 0.66279 0.3395 0.83054 0.0
H1488 H 0.68528 0.37591 0.82314 0.0
H1489 H 0.62762 0.40167 0.78347 0.0
H1490 H 0.60485 0.36483 0.79076 0.0
H1491 H 0.64637 0.4375 0.80902 0.0
H1492 H 0.6771 0.38031 0.75976 0.0
H1493 H 0.69293 0.34125 0.74777 0.0
H1494 H 0.75389 0.34972 0.789 0.0
H1495 H 0.73826 0.38868 0.80149 0.0
C1496 C 0.73554 0.51398 0.79005 0.0
C1497 C 0.75434 0.51093 0.80474 0.0
C1498 C 0.719 0.4953 0.78655 0.0
C1499 C 0.7214 0.47334 0.79745 0.0
C1500 C 0.74079 0.47021 0.81143 0.0
C1501 C 0.75689 0.48885 0.81518 0.0
C1502 C 0.70356 0.4536 0.79538 0.0
C1503 C 0.71169 0.43104 0.78853 0.0
C1504 C 0.67944 0.4561 0.80215 0.0
C1505 C 0.66975 0.47927 0.80996 0.0
C1506 C 0.68011 0.491 0.82762 0.0
C1507 C 0.67062 0.5127 0.835 0.0
C1508 C 0.65058 0.52268 0.82502 0.0
C1509 C 0.63999 0.51099 0.80764 0.0
C1510 C 0.6495 0.48936 0.80012 0.0
C1511 C 0.65487 0.35273 0.82009 0.0
C1512 C 0.63211 0.34896 0.81098 0.0
C1513 C 0.66778 0.37364 0.81589 0.0
C1514 C 0.65842 0.39135 0.80236 0.0
C1515 C 0.63531 0.38818 0.79384 0.0
C1516 C 0.62228 0.36714 0.79807 0.0
C1517 C 0.67313 0.41293 0.79728 0.0
C1518 C 0.66446 0.43577 0.80281 0.0
C1519 C 0.69679 0.41074 0.78923 0.0
C1520 C 0.70642 0.38739 0.78164 0.0
C1521 C 0.69381 0.37378 0.76637 0.0
C1522 C 0.70276 0.35166 0.75947 0.0
C1523 C 0.72439 0.34299 0.76764 0.0
C1524 C 0.73714 0.35646 0.78268 0.0
C1525 C 0.72826 0.37859 0.78965 0.0
H1526 H 0.73128 0.32586 0.76228 0.0
H1527 H 0.64316 0.53939 0.83085 0.0
H1528 H 0.58114 0.32305 0.22818 0.0
H1529 H 0.61254 0.35368 0.23175 0.0
H1530 H 0.5817 0.39289 0.17907 0.0
H1531 H 0.55101 0.36202 0.17509 0.0
H1532 H 0.62675 0.38812 0.17213 0.0
H1533 H 0.58066 0.41383 0.23242 0.0
H1534 H 0.55892 0.40964 0.26656 0.0
H1535 H 0.62367 0.38666 0.29745 0.0
H1536 H 0.64575 0.3904 0.26341 0.0
H1537 H 0.70627 0.48962 0.18418 0.0
H1538 H 0.67046 0.46401 0.182 0.0
H1539 H 0.70097 0.41633 0.22884 0.0
H1540 H 0.73665 0.44135 0.23077 0.0
H1541 H 0.65458 0.42791 0.23862 0.0
H1542 H 0.69962 0.4006 0.17712 0.0
H1543 H 0.72085 0.40554 0.1428 0.0
H1544 H 0.65662 0.43307 0.11407 0.0
H1545 H 0.6351 0.42859 0.14833 0.0
C1546 C 0.58075 0.33856 0.2178 0.0
C1547 C 0.56369 0.34021 0.20138 0.0
C1548 C 0.59872 0.35606 0.21978 0.0
C1549 C 0.59959 0.37569 0.20564 0.0
C1550 C 0.58164 0.37789 0.19005 0.0
C1551 C 0.564 0.3603 0.18788 0.0
C1552 C 0.62007 0.39293 0.20587 0.0
C1553 C 0.63251 0.39713 0.18664 0.0
C1554 C 0.62801 0.40443 0.2248 0.0
C1555 C 0.61481 0.40219 0.24531 0.0
C1556 C 0.59023 0.4077 0.24645 0.0
C1557 C 0.57785 0.40544 0.2658 0.0
C1558 C 0.5899 0.39783 0.28415 0.0
C1559 C 0.61436 0.39253 0.28321 0.0
C1560 C 0.62682 0.39474 0.2639 0.0
C1561 C 0.70547 0.4735 0.19374 0.0
C1562 C 0.72426 0.46771 0.20782 0.0
C1563 C 0.68495 0.45894 0.19258 0.0
C1564 C 0.68295 0.43832 0.20541 0.0
C1565 C 0.70194 0.43228 0.21902 0.0
C1566 C 0.72235 0.44668 0.22012 0.0
C1567 C 0.66114 0.42294 0.20494 0.0
C1568 C 0.64856 0.41905 0.22411 0.0
C1569 C 0.65293 0.41187 0.18595 0.0
C1570 C 0.66584 0.41452 0.16535 0.0
C1571 C 0.69009 0.4079 0.16354 0.0
C1572 C 0.70216 0.41058 0.14408 0.0
C1573 C 0.69011 0.41969 0.12628 0.0
C1574 C 0.66594 0.42607 0.12788 0.0
C1575 C 0.6538 0.42345 0.14731 0.0
H1576 H 0.69949 0.42175 0.11123 0.0
H1577 H 0.58028 0.3961 0.29911 0.0
H1578 H 0.7283 0.56377 0.2344 0.0
H1579 H 0.69933 0.5969 0.23795 0.0
H1580 H 0.74789 0.6435 0.20391 0.0
H1581 H 0.77669 0.61064 0.2007 0.0
H1582 H 0.72529 0.66805 0.23446 0.0
H1583 H 0.7033 0.61208 0.17828 0.0
H1584 H 0.69237 0.57222 0.16413 0.0
H1585 H 0.63108 0.57018 0.20571 0.0
H1586 H 0.64186 0.60991 0.22033 0.0
H1587 H 0.65986 0.74926 0.17301 0.0
H1588 H 0.68333 0.71518 0.18494 0.0
H1589 H 0.62388 0.69057 0.22308 0.0
H1590 H 0.60022 0.72533 0.21176 0.0
H1591 H 0.64752 0.65379 0.19803 0.0
H1592 H 0.66702 0.7145 0.24907 0.0
H1593 H 0.67868 0.755 0.26106 0.0
H1594 H 0.74542 0.74874 0.22721 0.0
H1595 H 0.73401 0.70834 0.21473 0.0
C1596 C 0.733 0.58138 0.22843 0.0
C1597 C 0.75473 0.58495 0.21759 0.0
C1598 C 0.7164 0.60019 0.23022 0.0
C1599 C 0.72129 0.62265 0.22095 0.0
C1600 C 0.7437 0.62643 0.21126 0.0
C1601 C 0.76018 0.60771 0.20947 0.0
C1602 C 0.70263 0.64167 0.21945 0.0
C1603 C 0.70828 0.6649 0.22654 0.0
C1604 C 0.68016 0.63754 0.20949 0.0
C1605 C 0.67355 0.61379 0.20058 0.0
C1606 C 0.68759 0.60304 0.18451 0.0
C1607 C 0.68141 0.58049 0.17639 0.0
C1608 C 0.66109 0.56864 0.18407 0.0
C1609 C 0.64685 0.57935 0.19982 0.0
C1610 C 0.65298 0.60188 0.20803 0.0
C1611 C 0.65168 0.73692 0.18414 0.0
C1612 C 0.62811 0.74048 0.19162 0.0
C1613 C 0.66518 0.71728 0.19087 0.0
C1614 C 0.65548 0.70052 0.20513 0.0
C1615 C 0.63173 0.70339 0.21213 0.0
C1616 C 0.6182 0.72326 0.20555 0.0
C1617 C 0.67052 0.68019 0.21255 0.0
C1618 C 0.66424 0.65679 0.20648 0.0
C1619 C 0.69253 0.68419 0.22325 0.0
C1620 C 0.69958 0.70842 0.23086 0.0
C1621 C 0.68411 0.72182 0.24405 0.0
C1622 C 0.69069 0.74476 0.25096 0.0
C1623 C 0.71276 0.75445 0.24488 0.0
C1624 C 0.72832 0.74121 0.23191 0.0
C1625 C 0.72183 0.71827 0.22494 0.0
H1626 H 0.71781 0.77221 0.25024 0.0
H1627 H 0.65634 0.55118 0.17777 0.0
H1628 H 0.52563 0.73085 0.17202 0.0
H1629 H 0.49446 0.70159 0.17979 0.0
H1630 H 0.4777 0.73887 0.23848 0.0
H1631 H 0.50898 0.76868 0.23051 0.0
H1632 H 0.48137 0.67008 0.20968 0.0
H1633 H 0.41621 0.74096 0.24193 0.0
H1634 H 0.41184 0.78503 0.24221 0.0
H1635 H 0.44817 0.78936 0.18177 0.0
H1636 H 0.45233 0.74532 0.18095 0.0
H1637 H 0.3683 0.60962 0.22389 0.0
H1638 H 0.40482 0.63319 0.23054 0.0
H1639 H 0.38529 0.68123 0.17943 0.0
H1640 H 0.34882 0.6582 0.17322 0.0
H1641 H 0.40036 0.70676 0.21093 0.0
H1642 H 0.42951 0.63575 0.17463 0.0
H1643 H 0.4356 0.59226 0.16978 0.0
H1644 H 0.47226 0.58874 0.23006 0.0
H1645 H 0.46612 0.63219 0.23537 0.0
C1646 C 0.51568 0.73257 0.18684 0.0
C1647 C 0.51952 0.75221 0.20055 0.0
C1648 C 0.49793 0.7157 0.19133 0.0
C1649 C 0.48347 0.71816 0.20955 0.0
C1650 C 0.4885 0.73674 0.2242 0.0
C1651 C 0.50643 0.75368 0.21971 0.0
C1652 C 0.4615 0.70313 0.21141 0.0
C1653 C 0.46364 0.67806 0.21032 0.0
C1654 C 0.43833 0.71352 0.21174 0.0
C1655 C 0.43482 0.73989 0.21153 0.0
C1656 C 0.4231 0.75132 0.22864 0.0
C1657 C 0.42068 0.77629 0.2289 0.0
C1658 C 0.42981 0.79 0.21206 0.0
C1659 C 0.44116 0.77874 0.19482 0.0
C1660 C 0.44352 0.75378 0.19444 0.0
C1661 C 0.37199 0.62512 0.21403 0.0
C1662 C 0.35566 0.63212 0.1981 0.0
C1663 C 0.39282 0.63862 0.21784 0.0
C1664 C 0.39793 0.65908 0.20548 0.0
C1665 C 0.38172 0.66577 0.18939 0.0
C1666 C 0.36087 0.65253 0.1858 0.0
C1667 C 0.42014 0.67358 0.20885 0.0
C1668 C 0.41803 0.69863 0.21089 0.0
C1669 C 0.44334 0.6632 0.20873 0.0
C1670 C 0.4471 0.63713 0.20551 0.0
C1671 C 0.43871 0.62565 0.18691 0.0
C1672 C 0.4422 0.60103 0.18407 0.0
C1673 C 0.45423 0.58773 0.19963 0.0
C1674 C 0.46289 0.59905 0.21804 0.0
C1675 C 0.45942 0.62367 0.22097 0.0
H1676 H 0.45691 0.56866 0.19741 0.0
H1677 H 0.42806 0.80933 0.21236 0.0
H1678 H 0.42639 0.34694 0.17363 0.0
H1679 H 0.40462 0.38382 0.18144 0.0
H1680 H 0.45813 0.40328 0.22817 0.0
H1681 H 0.48027 0.36632 0.22008 0.0
H1682 H 0.3829 0.4008 0.21503 0.0
H1683 H 0.46213 0.46452 0.23073 0.0
H1684 H 0.50496 0.46869 0.22143 0.0
H1685 H 0.49315 0.43019 0.16281 0.0
H1686 H 0.45023 0.42606 0.17165 0.0
H1687 H 0.32764 0.51262 0.23762 0.0
H1688 H 0.35651 0.4799 0.24326 0.0
H1689 H 0.38814 0.49432 0.18162 0.0
H1690 H 0.36001 0.52705 0.17622 0.0
H1691 H 0.42199 0.48034 0.20824 0.0
H1692 H 0.34233 0.45292 0.18783 0.0
H1693 H 0.29858 0.45083 0.1936 0.0
H1694 H 0.3099 0.41726 0.25449 0.0
H1695 H 0.35373 0.41944 0.24918 0.0
C1696 C 0.4335 0.35897 0.18566 0.0
C1697 C 0.4551 0.35363 0.19623 0.0
C1698 C 0.42098 0.38009 0.19015 0.0
C1699 C 0.42965 0.39648 0.20538 0.0
C1700 C 0.45116 0.39114 0.21614 0.0
C1701 C 0.46386 0.37003 0.21147 0.0
C1702 C 0.41629 0.41928 0.20936 0.0
C1703 C 0.39156 0.41816 0.21375 0.0
C1704 C 0.42738 0.44207 0.20764 0.0
C1705 C 0.45306 0.44473 0.202 0.0
C1706 C 0.46868 0.45701 0.21584 0.0
C1707 C 0.49297 0.45936 0.21065 0.0
C1708 C 0.50179 0.44962 0.19159 0.0
C1709 C 0.48632 0.43763 0.17761 0.0
C1710 C 0.46202 0.43527 0.18271 0.0
C1711 C 0.34122 0.5092 0.2256 0.0
C1712 C 0.34139 0.52221 0.20638 0.0
C1713 C 0.35761 0.49042 0.22875 0.0
C1714 C 0.37427 0.48432 0.21267 0.0
C1715 C 0.3755 0.49855 0.19425 0.0
C1716 C 0.35926 0.51722 0.19113 0.0
C1717 C 0.38864 0.4618 0.21358 0.0
C1718 C 0.4135 0.46295 0.21006 0.0
C1719 C 0.37758 0.43904 0.21552 0.0
C1720 C 0.35127 0.43653 0.2182 0.0
C1721 C 0.33547 0.44508 0.20244 0.0
C1722 C 0.31067 0.44392 0.20564 0.0
C1723 C 0.30148 0.43398 0.22442 0.0
C1724 C 0.31705 0.42499 0.23996 0.0
C1725 C 0.34187 0.42616 0.23686 0.0
H1726 H 0.2823 0.43325 0.22693 0.0
H1727 H 0.52059 0.45142 0.18762 0.0
H1728 H 0.26019 0.47961 0.23678 0.0
H1729 H 0.23457 0.45158 0.25684 0.0
H1730 H 0.18759 0.44543 0.20236 0.0
H1731 H 0.2131 0.47307 0.18235 0.0
H1732 H 0.16357 0.4549 0.24135 0.0
H1733 H 0.22215 0.40038 0.21205 0.0
H1734 H 0.26277 0.38465 0.20517 0.0
H1735 H 0.27477 0.37776 0.27269 0.0
H1736 H 0.23425 0.39364 0.27999 0.0
H1737 H 0.08797 0.35992 0.27101 0.0
H1738 H 0.11684 0.38454 0.25187 0.0
H1739 H 0.16698 0.37728 0.30391 0.0
H1740 H 0.13876 0.35149 0.3227 0.0
H1741 H 0.19044 0.37546 0.26763 0.0
H1742 H 0.13158 0.42849 0.29729 0.0
H1743 H 0.09076 0.44351 0.30447 0.0
H1744 H 0.07957 0.45433 0.23725 0.0
H1745 H 0.12022 0.43906 0.22964 0.0
C1746 C 0.24441 0.47221 0.22915 0.0
C1747 C 0.2387 0.47843 0.20798 0.0
C1748 C 0.22988 0.45614 0.24054 0.0
C1749 C 0.20919 0.44639 0.23105 0.0
C1750 C 0.20347 0.4527 0.20997 0.0
C1751 C 0.21816 0.46837 0.19851 0.0
C1752 C 0.19305 0.43009 0.24313 0.0
C1753 C 0.16936 0.43743 0.24693 0.0
C1754 C 0.20079 0.40759 0.25088 0.0
C1755 C 0.22527 0.39841 0.24657 0.0
C1756 C 0.23353 0.39571 0.22544 0.0
C1757 C 0.25648 0.38664 0.22146 0.0
C1758 C 0.27131 0.38016 0.23848 0.0
C1759 C 0.26324 0.38274 0.25953 0.0
C1760 C 0.24027 0.39174 0.26359 0.0
C1761 C 0.10522 0.36312 0.27834 0.0
C1762 C 0.11073 0.35372 0.29865 0.0
C1763 C 0.12169 0.37753 0.26742 0.0
C1764 C 0.14394 0.38331 0.27663 0.0
C1765 C 0.14987 0.37331 0.29651 0.0
C1766 C 0.13352 0.35868 0.30737 0.0
C1767 C 0.16077 0.40014 0.26574 0.0
C1768 C 0.18461 0.39297 0.26219 0.0
C1769 C 0.15322 0.42293 0.25834 0.0
C1770 C 0.12887 0.43243 0.26288 0.0
C1771 C 0.12036 0.43394 0.28403 0.0
C1772 C 0.09726 0.44251 0.28818 0.0
C1773 C 0.08256 0.44981 0.27132 0.0
C1774 C 0.09097 0.44864 0.25029 0.0
C1775 C 0.11405 0.44005 0.24605 0.0
H1776 H 0.06467 0.45642 0.27457 0.0
H1777 H 0.2891 0.3732 0.23537 0.0
H1778 H 0.73724 0.09398 0.26455 0.0
H1779 H 0.7108 0.12238 0.24677 0.0
H1780 H 0.69088 0.15247 0.30785 0.0
H1781 H 0.71673 0.12344 0.3259 0.0
H1782 H 0.65218 0.14794 0.28218 0.0
H1783 H 0.73111 0.18098 0.27572 0.0
H1784 H 0.77418 0.18058 0.26676 0.0
H1785 H 0.75733 0.16606 0.20099 0.0
H1786 H 0.71415 0.16602 0.20961 0.0
H1787 H 0.59818 0.25206 0.23629 0.0
H1788 H 0.62453 0.226 0.25714 0.0
H1789 H 0.648 0.19114 0.19916 0.0
H1790 H 0.62166 0.21679 0.1783 0.0
H1791 H 0.68534 0.20004 0.22515 0.0
H1792 H 0.60669 0.16529 0.23181 0.0
H1793 H 0.56356 0.1655 0.24057 0.0
H1794 H 0.57986 0.18314 0.30585 0.0
H1795 H 0.62309 0.18344 0.29739 0.0
C1796 C 0.72705 0.10635 0.27431 0.0
C1797 C 0.72928 0.10637 0.29674 0.0
C1798 C 0.71207 0.12281 0.26406 0.0
C1799 C 0.6991 0.13986 0.27592 0.0
C1800 C 0.70081 0.1396 0.29833 0.0
C1801 C 0.71578 0.1231 0.30862 0.0
C1802 C 0.68401 0.15805 0.26487 0.0
C1803 C 0.65952 0.1596 0.26995 0.0
C1804 C 0.69344 0.17303 0.24864 0.0
C1805 C 0.7194 0.17331 0.24335 0.0
C1806 C 0.73659 0.17755 0.25937 0.0
C1807 C 0.76103 0.17742 0.25435 0.0
C1808 C 0.76849 0.17325 0.23333 0.0
C1809 C 0.75153 0.16927 0.21727 0.0
C1810 C 0.72707 0.16935 0.22221 0.0
C1811 C 0.60886 0.23883 0.22795 0.0
C1812 C 0.60764 0.23661 0.20553 0.0
C1813 C 0.62397 0.22393 0.23992 0.0
C1814 C 0.63811 0.20643 0.22975 0.0
C1815 C 0.63734 0.20455 0.20738 0.0
C1816 C 0.62227 0.21937 0.19543 0.0
C1817 C 0.65347 0.18975 0.24229 0.0
C1818 C 0.67804 0.1885 0.23748 0.0
C1819 C 0.64409 0.17506 0.25874 0.0
C1820 C 0.61812 0.17465 0.26391 0.0
C1821 C 0.60107 0.1694 0.248 0.0
C1822 C 0.57661 0.1694 0.25291 0.0
C1823 C 0.56898 0.17439 0.27374 0.0
C1824 C 0.5858 0.17932 0.28971 0.0
C1825 C 0.61028 0.1794 0.28487 0.0
H1826 H 0.55003 0.17438 0.27752 0.0
H1827 H 0.78741 0.17314 0.22948 0.0
H1828 H 0.8583 0.63675 0.18349 0.0
H1829 H 0.88462 0.66383 0.20315 0.0
H1830 H 0.89235 0.61127 0.25302 0.0
H1831 H 0.86683 0.58369 0.23336 0.0
H1832 H 0.88013 0.65782 0.26795 0.0
H1833 H 0.93714 0.61946 0.22068 0.0
H1834 H 0.95294 0.607 0.18552 0.0
H1835 H 0.95682 0.68063 0.16589 0.0
H1836 H 0.94071 0.69351 0.20085 0.0
H1837 H 0.97367 0.70413 0.33093 0.0
H1838 H 0.94759 0.67969 0.30842 0.0
H1839 H 0.95643 0.73001 0.25668 0.0
H1840 H 0.98324 0.75421 0.27914 0.0
H1841 H 0.95862 0.68701 0.24119 0.0
H1842 H 0.90339 0.72645 0.28751 0.0
H1843 H 0.88638 0.7404 0.32177 0.0
H1844 H 0.87701 0.66748 0.34199 0.0
H1845 H 0.89427 0.65308 0.30796 0.0
C1846 C 0.86571 0.63064 0.19847 0.0
C1847 C 0.85996 0.60783 0.20674 0.0
C1848 C 0.88078 0.64629 0.20974 0.0
C1849 C 0.89036 0.6396 0.22959 0.0
C1850 C 0.88498 0.61687 0.2378 0.0
C1851 C 0.87019 0.6011 0.22647 0.0
C1852 C 0.90558 0.6564 0.24211 0.0
C1853 C 0.89742 0.66403 0.26222 0.0
C1854 C 0.92771 0.66516 0.23427 0.0
C1855 C 0.93746 0.65743 0.21329 0.0
C1856 C 0.94115 0.63298 0.20879 0.0
C1857 C 0.95021 0.62585 0.18892 0.0
C1858 C 0.95582 0.64301 0.17346 0.0
C1859 C 0.95244 0.66735 0.17787 0.0
C1860 C 0.94335 0.67458 0.19772 0.0
C1861 C 0.96983 0.71015 0.31485 0.0
C1862 C 0.98032 0.73123 0.30689 0.0
C1863 C 0.95488 0.69616 0.30196 0.0
C1864 C 0.94957 0.70318 0.28091 0.0
C1865 C 0.96015 0.7242 0.27286 0.0
C1866 C 0.97544 0.73803 0.28569 0.0
C1867 C 0.93337 0.68828 0.2673 0.0
C1868 C 0.94128 0.681 0.24694 0.0
C1869 C 0.91079 0.68011 0.27478 0.0
C1870 C 0.90031 0.68869 0.29525 0.0
C1871 C 0.89785 0.71339 0.29932 0.0
C1872 C 0.88815 0.72138 0.31869 0.0
C1873 C 0.88067 0.70484 0.33406 0.0
C1874 C 0.88283 0.68027 0.33008 0.0
C1875 C 0.89255 0.67218 0.31074 0.0
H1876 H 0.87316 0.71106 0.34905 0.0
H1877 H 0.96283 0.63745 0.15808 0.0
H1878 H 0.34297 0.98941 0.2697 0.0
H1879 H 0.36835 0.96039 0.25119 0.0
H1880 H 0.39688 0.93671 0.31162 0.0
H1881 H 0.37172 0.96618 0.33032 0.0
H1882 H 0.43223 0.94223 0.28088 0.0
H1883 H 0.35631 0.903 0.28695 0.0
H1884 H 0.3124 0.8993 0.28375 0.0
H1885 H 0.31756 0.90792 0.21568 0.0
H1886 H 0.36149 0.91206 0.2185 0.0
H1887 H 0.48811 0.83927 0.23473 0.0
H1888 H 0.4622 0.86412 0.25721 0.0
H1889 H 0.42788 0.89248 0.20095 0.0
H1890 H 0.45388 0.86813 0.17836 0.0
H1891 H 0.39536 0.88232 0.23213 0.0
H1892 H 0.4705 0.92416 0.22613 0.0
H1893 H 0.51441 0.92842 0.22888 0.0
H1894 H 0.51068 0.91541 0.29646 0.0
H1895 H 0.46676 0.91065 0.29404 0.0
C1896 C 0.35481 0.97827 0.27909 0.0
C1897 C 0.35531 0.98017 0.30153 0.0
C1898 C 0.36917 0.96149 0.26847 0.0
C1899 C 0.38434 0.94618 0.28002 0.0
C1900 C 0.38524 0.94828 0.30239 0.0
C1901 C 0.37075 0.96501 0.31306 0.0
C1902 C 0.39909 0.92795 0.26861 0.0
C1903 C 0.42415 0.92885 0.27052 0.0
C1904 C 0.38859 0.91076 0.25477 0.0
C1905 C 0.36219 0.90804 0.25297 0.0
C1906 C 0.34807 0.90429 0.27131 0.0
C1907 C 0.32318 0.90208 0.26956 0.0
C1908 C 0.31219 0.90343 0.24953 0.0
C1909 C 0.32609 0.90691 0.23119 0.0
C1910 C 0.35099 0.90916 0.23285 0.0
C1911 C 0.47515 0.85083 0.22707 0.0
C1912 C 0.47337 0.85175 0.20461 0.0
C1913 C 0.46026 0.86499 0.24 0.0
C1914 C 0.44327 0.88039 0.23077 0.0
C1915 C 0.44084 0.88072 0.20844 0.0
C1916 C 0.45574 0.86666 0.19552 0.0
C1917 C 0.42851 0.89677 0.24422 0.0
C1918 C 0.40343 0.89554 0.24266 0.0
C1919 C 0.43901 0.91368 0.25833 0.0
C1920 C 0.46538 0.91676 0.25986 0.0
C1921 C 0.47907 0.922 0.24155 0.0
C1922 C 0.50395 0.92454 0.24305 0.0
C1923 C 0.51534 0.92211 0.26282 0.0
C1924 C 0.50184 0.91723 0.28115 0.0
C1925 C 0.47695 0.91461 0.27972 0.0
H1926 H 0.5346 0.92408 0.26395 0.0
H1927 H 0.29291 0.90173 0.24821 0.0
H1928 H 0.21357 0.61647 0.83528 0.0
H1929 H 0.18735 0.6435 0.81521 0.0
H1930 H 0.21906 0.61913 0.7561 0.0
H1931 H 0.24558 0.59246 0.77606 0.0
H1932 H 0.2145 0.66775 0.75706 0.0
H1933 H 0.16463 0.59941 0.77067 0.0
H1934 H 0.14496 0.5687 0.79286 0.0
H1935 H 0.10759 0.62357 0.82775 0.0
H1936 H 0.12739 0.6547 0.80601 0.0
H1937 H 0.12729 0.71692 0.68643 0.0
H1938 H 0.15366 0.68954 0.70586 0.0
H1939 H 0.12073 0.71088 0.76537 0.0
H1940 H 0.09446 0.7383 0.74612 0.0
H1941 H 0.12597 0.66333 0.76383 0.0
H1942 H 0.17614 0.73169 0.75078 0.0
H1943 H 0.19589 0.76262 0.72883 0.0
H1944 H 0.23262 0.70795 0.69311 0.0
H1945 H 0.21282 0.67666 0.71467 0.0
C1946 C 0.21506 0.61698 0.81803 0.0
C1947 C 0.23161 0.60219 0.80729 0.0
C1948 C 0.19994 0.6323 0.80655 0.0
C1949 C 0.20107 0.63318 0.78412 0.0
C1950 C 0.2178 0.6187 0.77339 0.0
C1951 C 0.23281 0.60329 0.78483 0.0
C1952 C 0.18492 0.64927 0.77181 0.0
C1953 C 0.19513 0.66658 0.75832 0.0
C1954 C 0.15965 0.64808 0.77379 0.0
C1955 C 0.14769 0.6294 0.78686 0.0
C1956 C 0.15239 0.60495 0.7832 0.0
C1957 C 0.14118 0.58746 0.79567 0.0
C1958 C 0.12507 0.59417 0.81173 0.0
C1959 C 0.1201 0.6184 0.81533 0.0
C1960 C 0.13131 0.63598 0.80293 0.0
C1961 C 0.12578 0.71594 0.70365 0.0
C1962 C 0.10869 0.72987 0.71465 0.0
C1963 C 0.14086 0.70024 0.71476 0.0
C1964 C 0.13935 0.69827 0.73713 0.0
C1965 C 0.1222 0.712 0.74812 0.0
C1966 C 0.1071 0.72765 0.73704 0.0
C1967 C 0.15554 0.6819 0.74912 0.0
C1968 C 0.14533 0.66451 0.76255 0.0
C1969 C 0.18082 0.68305 0.74713 0.0
C1970 C 0.19281 0.70183 0.7342 0.0
C1971 C 0.18829 0.72625 0.73814 0.0
C1972 C 0.19951 0.74385 0.72579 0.0
C1973 C 0.21545 0.73725 0.70955 0.0
C1974 C 0.22024 0.71304 0.70567 0.0
C1975 C 0.20904 0.69536 0.71796 0.0
H1976 H 0.22412 0.75091 0.70001 0.0
H1977 H 0.1164 0.58058 0.82136 0.0
H1978 H 0.36541 0.08456 0.72477 0.0
H1979 H 0.39072 0.11226 0.74501 0.0
H1980 H 0.36328 0.17143 0.70803 0.0
H1981 H 0.33846 0.14356 0.68734 0.0
H1982 H 0.40856 0.1769 0.71164 0.0
H1983 H 0.34634 0.16044 0.76188 0.0
H1984 H 0.31929 0.13538 0.78362 0.0
H1985 H 0.37984 0.10477 0.81597 0.0
H1986 H 0.40728 0.12942 0.79422 0.0
H1987 H 0.44758 0.24507 0.81675 0.0
H1988 H 0.41846 0.22161 0.79622 0.0
H1989 H 0.4754 0.19568 0.7555 0.0
H1990 H 0.50438 0.21958 0.77568 0.0
H1991 H 0.41256 0.17644 0.79088 0.0
H1992 H 0.45535 0.18222 0.70629 0.0
H1993 H 0.47888 0.2108 0.68472 0.0
H1994 H 0.45053 0.2695 0.72142 0.0
H1995 H 0.4266 0.24132 0.74301 0.0
C1996 C 0.36453 0.10351 0.72117 0.0
C1997 C 0.34983 0.1119 0.70453 0.0
C1998 C 0.37902 0.11939 0.73276 0.0
C1999 C 0.37878 0.1441 0.72831 0.0
C2000 C 0.36391 0.1525 0.71179 0.0
C2001 C 0.34968 0.13657 0.69999 0.0
C2002 C 0.39448 0.16105 0.74043 0.0
C2003 C 0.40936 0.1768 0.72898 0.0
C2004 C 0.39532 0.1614 0.76309 0.0
C2005 C 0.37887 0.14664 0.77629 0.0
C2006 C 0.35389 0.14825 0.77354 0.0
C2007 C 0.33849 0.13414 0.78587 0.0
C2008 C 0.34784 0.11846 0.80113 0.0
C2009 C 0.37262 0.11691 0.80413 0.0
C2010 C 0.38811 0.13097 0.79182 0.0
C2011 C 0.45383 0.23447 0.80334 0.0
C2012 C 0.47827 0.2343 0.79777 0.0
C2013 C 0.43718 0.22102 0.79161 0.0
C2014 C 0.44459 0.20697 0.77411 0.0
C2015 C 0.46904 0.20675 0.76857 0.0
C2016 C 0.48564 0.22045 0.78013 0.0
C2017 C 0.42688 0.19205 0.76208 0.0
C2018 C 0.41168 0.17661 0.77355 0.0
C2019 C 0.42525 0.19249 0.73946 0.0
C2020 C 0.43936 0.20962 0.72639 0.0
C2021 C 0.45406 0.20124 0.70969 0.0
C2022 C 0.46748 0.21736 0.69748 0.0
C2023 C 0.46626 0.24194 0.70174 0.0
C2024 C 0.45153 0.25045 0.71818 0.0
C2025 C 0.43806 0.23441 0.73043 0.0
H2026 H 0.47668 0.25439 0.69228 0.0
H2027 H 0.33589 0.10754 0.81067 0.0
H2028 H 1.0006 0.35487 0.7328 0.0
H2029 H 0.97237 0.37896 0.75347 0.0
H2030 H 0.92323 0.37909 0.70034 0.0
H2031 H 0.9509 0.35436 0.67969 0.0
H2032 H 0.93125 0.42496 0.71785 0.0
H2033 H 0.91051 0.34567 0.74189 0.0
H2034 H 0.9189 0.30565 0.75679 0.0
H2035 H 0.94577 0.33797 0.8144 0.0
H2036 H 0.93785 0.37821 0.7997 0.0
H2037 H 0.83374 0.47968 0.77303 0.0
H2038 H 0.85863 0.45242 0.75166 0.0
H2039 H 0.9036 0.43957 0.80658 0.0
H2040 H 0.87854 0.46629 0.82797 0.0
H2041 H 0.89676 0.39929 0.78727 0.0
H2042 H 0.92007 0.47773 0.76427 0.0
H2043 H 0.914 0.51856 0.75022 0.0
H2044 H 0.88552 0.48936 0.69192 0.0
H2045 H 0.89109 0.44834 0.70576 0.0
C2046 C 0.98367 0.35955 0.72552 0.0
C2047 C 0.97827 0.35252 0.70438 0.0
C2048 C 0.96755 0.37351 0.7374 0.0
C2049 C 0.94568 0.38086 0.72845 0.0
C2050 C 0.94007 0.37376 0.70752 0.0
C2051 C 0.95605 0.35961 0.69569 0.0
C2052 C 0.92887 0.39635 0.74079 0.0
C2053 C 0.9234 0.41924 0.73288 0.0
C2054 C 0.91919 0.38915 0.76068 0.0
C2055 C 0.92379 0.36496 0.76961 0.0
C2056 C 0.91838 0.34425 0.75767 0.0
C2057 C 0.92302 0.32152 0.76609 0.0
C2058 C 0.93291 0.31927 0.78651 0.0
C2059 C 0.93813 0.33975 0.79857 0.0
C2060 C 0.93354 0.36251 0.79021 0.0
C2061 C 0.84897 0.47107 0.78049 0.0
C2062 C 0.85412 0.47514 0.80221 0.0
C2063 C 0.86324 0.45551 0.76827 0.0
C2064 C 0.88326 0.44408 0.77739 0.0
C2065 C 0.88825 0.44802 0.79913 0.0
C2066 C 0.87385 0.46331 0.81138 0.0
C2067 C 0.89913 0.42809 0.76442 0.0
C2068 C 0.90448 0.40507 0.77221 0.0
C2069 C 0.90902 0.43533 0.74456 0.0
C2070 C 0.90576 0.45997 0.73615 0.0
C2071 C 0.91235 0.48002 0.74852 0.0
C2072 C 0.90902 0.50319 0.74058 0.0
C2073 C 0.89932 0.50655 0.72021 0.0
C2074 C 0.89299 0.48673 0.70771 0.0
C2075 C 0.89624 0.46351 0.71559 0.0
H2076 H 0.89676 0.5245 0.7141 0.0
H2077 H 0.9365 0.30166 0.793 0.0
H2078 H 0.62613 0.87338 0.81438 0.0
H2079 H 0.65126 0.90043 0.7932 0.0
H2080 H 0.62067 0.87185 0.73517 0.0
H2081 H 0.59586 0.84451 0.7562 0.0
H2082 H 0.66915 0.8763 0.73206 0.0
H2083 H 0.60297 0.92568 0.75307 0.0
H2084 H 0.57445 0.94426 0.77828 0.0
H2085 H 0.63257 0.97921 0.81083 0.0
H2086 H 0.66151 0.96054 0.78599 0.0
H2087 H 0.71433 0.96725 0.66268 0.0
H2088 H 0.68781 0.94011 0.68235 0.0
H2089 H 0.71391 0.96894 0.74203 0.0
H2090 H 0.74034 0.99599 0.72255 0.0
H2091 H 0.66649 0.96434 0.74341 0.0
H2092 H 0.73274 0.91397 0.72264 0.0
H2093 H 0.76102 0.89526 0.69726 0.0
H2094 H 0.70235 0.86214 0.66398 0.0
H2095 H 0.67368 0.88091 0.68902 0.0
C2096 C 0.62487 0.87275 0.79711 0.0
C2097 C 0.60886 0.85687 0.78701 0.0
C2098 C 0.63911 0.88835 0.78502 0.0
C2099 C 0.63767 0.88836 0.76258 0.0
C2100 C 0.62202 0.87224 0.75245 0.0
C2101 C 0.60768 0.85676 0.76452 0.0
C2102 C 0.65255 0.9051 0.74966 0.0
C2103 C 0.66834 0.89558 0.73434 0.0
C2104 C 0.65179 0.93023 0.75286 0.0
C2105 C 0.63444 0.94152 0.7678 0.0
C2106 C 0.6097 0.93717 0.76571 0.0
C2107 C 0.59345 0.94775 0.77991 0.0
C2108 C 0.60169 0.96286 0.79618 0.0
C2109 C 0.62621 0.96747 0.79824 0.0
C2110 C 0.64255 0.95691 0.7841 0.0
C2111 C 0.71453 0.9677 0.67999 0.0
C2112 C 0.72949 0.98388 0.69098 0.0
C2113 C 0.69934 0.95218 0.69123 0.0
C2114 C 0.69898 0.9523 0.71372 0.0
C2115 C 0.71376 0.96854 0.72471 0.0
C2116 C 0.72885 0.9841 0.7135 0.0
C2117 C 0.68329 0.93555 0.72591 0.0
C2118 C 0.6673 0.94507 0.7411 0.0
C2119 C 0.68384 0.91042 0.72256 0.0
C2120 C 0.70106 0.89904 0.70757 0.0
C2121 C 0.72586 0.90284 0.70982 0.0
C2122 C 0.74196 0.8922 0.69551 0.0
C2123 C 0.73349 0.87757 0.67899 0.0
C2124 C 0.70889 0.8735 0.67677 0.0
C2125 C 0.69271 0.88412 0.69102 0.0
H2126 H 0.74598 0.86935 0.66793 0.0
H2127 H 0.58907 0.97104 0.80715 0.0
H2128 H 0.96525 0.71833 0.68969 0.0
H2129 H 0.94215 0.68773 0.70838 0.0
H2130 H 0.97809 0.70585 0.76735 0.0
H2131 H 1.00216 0.73594 0.7483 0.0
H2132 H 0.97073 0.66029 0.76711 0.0
H2133 H 0.92026 0.72715 0.75485 0.0
H2134 H 0.90057 0.75925 0.73428 0.0
H2135 H 0.8651 0.7066 0.69532 0.0
H2136 H 0.88485 0.67417 0.71546 0.0
H2137 H 0.84262 0.61769 0.80668 0.0
H2138 H 0.86893 0.64884 0.79219 0.0
H2139 H 0.91799 0.59437 0.76988 0.0
H2140 H 0.8924 0.56339 0.78526 0.0
H2141 H 0.88268 0.66146 0.75585 0.0
H2142 H 0.9746 0.61332 0.76726 0.0
H2143 H 0.99368 0.58536 0.79257 0.0
H2144 H 0.94494 0.60769 0.84195 0.0
H2145 H 0.92578 0.63601 0.81703 0.0
C2146 C 0.96846 0.7156 0.70659 0.0
C2147 C 0.9854 0.72966 0.71756 0.0
C2148 C 0.95508 0.6982 0.71733 0.0
C2149 C 0.95775 0.69487 0.73947 0.0
C2150 C 0.97549 0.70814 0.75031 0.0
C2151 C 0.98929 0.72531 0.73942 0.0
C2152 C 0.94152 0.67805 0.7512 0.0
C2153 C 0.95148 0.66057 0.76465 0.0
C2154 C 0.91624 0.67879 0.74868 0.0
C2155 C 0.90419 0.69823 0.73657 0.0
C2156 C 0.90838 0.72241 0.74181 0.0
C2157 C 0.8972 0.74067 0.73023 0.0
C2158 C 0.88164 0.73497 0.71347 0.0
C2159 C 0.87718 0.71099 0.70829 0.0
C2160 C 0.88834 0.69266 0.7198 0.0
C2161 C 0.85905 0.61239 0.79873 0.0
C2162 C 0.8655 0.58806 0.79729 0.0
C2163 C 0.87412 0.63023 0.79041 0.0
C2164 C 0.89583 0.62415 0.78024 0.0
C2165 C 0.90183 0.59975 0.77822 0.0
C2166 C 0.88704 0.58198 0.7869 0.0
C2167 C 0.91192 0.64319 0.77133 0.0
C2168 C 0.90191 0.66115 0.7584 0.0
C2169 C 0.93704 0.64345 0.77503 0.0
C2170 C 0.94862 0.62663 0.7902 0.0
C2171 C 0.96803 0.61234 0.78354 0.0
C2172 C 0.97884 0.59641 0.79782 0.0
C2173 C 0.97048 0.59469 0.81884 0.0
C2174 C 0.95134 0.60897 0.82564 0.0
C2175 C 0.94048 0.62494 0.81144 0.0
H2176 H 0.97886 0.58234 0.82985 0.0
H2177 H 0.873 0.74913 0.70453 0.0
H2178 H 0.34545 0.96945 0.69833 0.0
H2179 H 0.37216 0.93904 0.71324 0.0
H2180 H 0.41681 0.99476 0.74002 0.0
H2181 H 0.39092 0.02514 0.72398 0.0
H2182 H 0.44473 0.96252 0.72711 0.0
H2183 H 0.37364 0.95964 0.77023 0.0
H2184 H 0.33027 0.95603 0.77734 0.0
H2185 H 0.33002 0.88561 0.7494 0.0
H2186 H 0.37334 0.88893 0.74189 0.0
H2187 H 0.4635 0.86503 0.81617 0.0
H2188 H 0.44082 0.89673 0.79878 0.0
H2189 H 0.48042 0.88478 0.74038 0.0
H2190 H 0.50393 0.85335 0.75816 0.0
H2191 H 0.41075 0.89498 0.76868 0.0
H2192 H 0.48007 0.9355 0.70982 0.0
H2193 H 0.52373 0.94241 0.70766 0.0
H2194 H 0.52814 0.9436 0.77622 0.0
H2195 H 0.48453 0.93699 0.77877 0.0
C2196 C 0.36092 0.9752 0.70745 0.0
C2197 C 0.36596 0.99972 0.71009 0.0
C2198 C 0.3762 0.95777 0.71607 0.0
C2199 C 0.39643 0.96443 0.72819 0.0
C2200 C 0.40145 0.98898 0.73075 0.0
C2201 C 0.38653 0.00639 0.72166 0.0
C2202 C 0.41217 0.94595 0.73843 0.0
C2203 C 0.43724 0.94775 0.73618 0.0
C2204 C 0.40267 0.92677 0.75065 0.0
C2205 C 0.37667 0.92463 0.75532 0.0
C2206 C 0.3643 0.94344 0.7655 0.0
C2207 C 0.33973 0.94144 0.76961 0.0
C2208 C 0.32738 0.92063 0.76377 0.0
C2209 C 0.3396 0.90174 0.75388 0.0
C2210 C 0.36416 0.90366 0.74971 0.0
C2211 C 0.46761 0.8693 0.79968 0.0
C2212 C 0.48551 0.85663 0.78853 0.0
C2213 C 0.45451 0.88742 0.78969 0.0
C2214 C 0.45871 0.89326 0.76818 0.0
C2215 C 0.47696 0.88093 0.75706 0.0
C2216 C 0.49041 0.86293 0.76722 0.0
C2217 C 0.44329 0.91164 0.7575 0.0
C2218 C 0.41825 0.90972 0.75957 0.0
C2219 C 0.45288 0.93118 0.74585 0.0
C2220 C 0.47908 0.93547 0.74446 0.0
C2221 C 0.49036 0.93731 0.72442 0.0
C2222 C 0.5151 0.94116 0.72313 0.0
C2223 C 0.52873 0.94334 0.74179 0.0
C2224 C 0.51761 0.94179 0.76178 0.0
C2225 C 0.49289 0.93797 0.76315 0.0
H2226 H 0.54788 0.94628 0.74076 0.0
H2227 H 0.30836 0.91913 0.76695 0.0
H2228 H 0.12067 0.34735 0.70152 0.0
H2229 H 0.15099 0.3729 0.71818 0.0
H2230 H 0.09514 0.41572 0.7471 0.0
H2231 H 0.06481 0.391 0.72942 0.0
H2232 H 0.12805 0.44423 0.73575 0.0
H2233 H 0.12867 0.37061 0.77508 0.0
H2234 H 0.13131 0.32682 0.78002 0.0
H2235 H 0.20239 0.32689 0.75356 0.0
H2236 H 0.20005 0.37066 0.74822 0.0
H2237 H 0.22424 0.45542 0.8271 0.0
H2238 H 0.19231 0.43453 0.80816 0.0
H2239 H 0.20587 0.47753 0.75211 0.0
H2240 H 0.23738 0.49932 0.77154 0.0
H2241 H 0.19408 0.40649 0.77667 0.0
H2242 H 0.15606 0.48004 0.7208 0.0
H2243 H 0.14993 0.52387 0.72077 0.0
H2244 H 0.14729 0.52411 0.78943 0.0
H2245 H 0.15312 0.48033 0.78983 0.0
C2246 C 0.11487 0.36219 0.71146 0.0
C2247 C 0.09035 0.36705 0.71431 0.0
C2248 C 0.13223 0.37679 0.72105 0.0
C2249 C 0.12547 0.39607 0.7343 0.0
C2250 C 0.10093 0.40103 0.73697 0.0
C2251 C 0.08357 0.38679 0.72695 0.0
C2252 C 0.14386 0.41078 0.74569 0.0
C2253 C 0.14249 0.43595 0.74469 0.0
C2254 C 0.16255 0.40015 0.75772 0.0
C2255 C 0.16409 0.37386 0.76106 0.0
C2256 C 0.1448 0.36126 0.7702 0.0
C2257 C 0.14625 0.33645 0.77308 0.0
C2258 C 0.16697 0.32408 0.76705 0.0
C2259 C 0.18633 0.3365 0.75819 0.0
C2260 C 0.18497 0.36131 0.75525 0.0
C2261 C 0.22024 0.46064 0.81081 0.0
C2262 C 0.23332 0.47898 0.80078 0.0
C2263 C 0.20202 0.44859 0.79994 0.0
C2264 C 0.19659 0.45431 0.77864 0.0
C2265 C 0.20939 0.47296 0.76863 0.0
C2266 C 0.22743 0.48539 0.77971 0.0
C2267 C 0.17819 0.43996 0.76692 0.0
C2268 C 0.17967 0.41482 0.76772 0.0
C2269 C 0.1591 0.45064 0.75545 0.0
C2270 C 0.1553 0.47695 0.75533 0.0
C2271 C 0.1541 0.48946 0.73587 0.0
C2272 C 0.15069 0.51431 0.7358 0.0
C2273 C 0.14832 0.52681 0.75508 0.0
C2274 C 0.14924 0.51447 0.77449 0.0
C2275 C 0.15263 0.48964 0.77465 0.0
H2276 H 0.14571 0.54604 0.75499 0.0
H2277 H 0.16805 0.30487 0.76928 0.0
H2278 H 0.57128 0.18401 0.79204 0.0
H2279 H 0.60088 0.15948 0.77318 0.0
H2280 H 0.64263 0.22271 0.75959 0.0
H2281 H 0.61316 0.24745 0.77856 0.0
H2282 H 0.6366 0.19276 0.72404 0.0
H2283 H 0.6604 0.18587 0.79794 0.0
H2284 H 0.654 0.17688 0.83612 0.0
H2285 H 0.63554 0.10423 0.82025 0.0
H2286 H 0.6415 0.1129 0.78193 0.0
H2287 H 0.74602 0.14495 0.69039 0.0
H2288 H 0.71413 0.16566 0.70936 0.0
H2289 H 0.68378 0.09775 0.72822 0.0
H2290 H 0.71659 0.07669 0.70972 0.0
H2291 H 0.68141 0.12777 0.76048 0.0
H2292 H 0.65878 0.1331 0.6872 0.0
H2293 H 0.66401 0.14128 0.64874 0.0
H2294 H 0.67812 0.2154 0.66259 0.0
H2295 H 0.67332 0.2076 0.70117 0.0
C2296 C 0.58673 0.19277 0.78504 0.0
C2297 C 0.58981 0.21776 0.78685 0.0
C2298 C 0.60369 0.17866 0.77432 0.0
C2299 C 0.62406 0.18922 0.7651 0.0
C2300 C 0.62705 0.21418 0.76661 0.0
C2301 C 0.6102 0.22829 0.7775 0.0
C2302 C 0.64219 0.17427 0.75376 0.0
C2303 C 0.6466 0.17872 0.73205 0.0
C2304 C 0.6546 0.15537 0.76401 0.0
C2305 C 0.65114 0.15011 0.78705 0.0
C2306 C 0.65478 0.16804 0.80258 0.0
C2307 C 0.65127 0.16299 0.82424 0.0
C2308 C 0.6443 0.14002 0.8306 0.0
C2309 C 0.6409 0.12203 0.8153 0.0
C2310 C 0.64435 0.12699 0.79361 0.0
C2311 C 0.73254 0.1343 0.69846 0.0
C2312 C 0.73373 0.1091 0.69831 0.0
C2313 C 0.71417 0.14623 0.70927 0.0
C2314 C 0.69609 0.13335 0.71983 0.0
C2315 C 0.6974 0.10813 0.72007 0.0
C2316 C 0.71611 0.0961 0.70946 0.0
C2317 C 0.67615 0.14646 0.73073 0.0
C2318 C 0.67133 0.14167 0.75236 0.0
C2319 C 0.66312 0.16491 0.72033 0.0
C2320 C 0.66585 0.16972 0.6971 0.0
C2321 C 0.66315 0.15111 0.68206 0.0
C2322 C 0.66602 0.15569 0.66023 0.0
C2323 C 0.67144 0.17883 0.65323 0.0
C2324 C 0.67394 0.19747 0.66804 0.0
C2325 C 0.67111 0.19299 0.68988 0.0
H2326 H 0.67366 0.18233 0.63632 0.0
H2327 H 0.64159 0.13614 0.84738 0.0
H2328 H 0.97331 0.34163 0.28202 0.0
H2329 H 0.94287 0.36724 0.26576 0.0
H2330 H 0.98809 0.42905 0.27535 0.0
H2331 H 0.01865 0.40359 0.2918 0.0
H2332 H 0.94161 0.43802 0.28711 0.0
H2333 H 0.98228 0.40514 0.22608 0.0
H2334 H 0.99903 0.37285 0.20357 0.0
H2335 H 0.92894 0.34189 0.19673 0.0
H2336 H 0.91182 0.37382 0.21946 0.0
H2337 H 0.86687 0.51428 0.2234 0.0
H2338 H 0.90108 0.49252 0.23854 0.0
H2339 H 0.86564 0.42532 0.22528 0.0
H2340 H 0.83202 0.4468 0.20958 0.0
H2341 H 0.90992 0.42128 0.2145 0.0
H2342 H 0.86937 0.4516 0.27709 0.0
H2343 H 0.85189 0.48281 0.30038 0.0
H2344 H 0.92049 0.51739 0.30511 0.0
H2345 H 0.93831 0.48653 0.28162 0.0
C2346 C 0.97688 0.36065 0.28063 0.0
C2347 C 0.99852 0.3705 0.2882 0.0
C2348 C 0.95945 0.37528 0.27126 0.0
C2349 C 0.96325 0.40007 0.26916 0.0
C2350 C 0.98475 0.40999 0.27678 0.0
C2351 C 1.00226 0.39536 0.28611 0.0
C2352 C 0.94466 0.41559 0.25916 0.0
C2353 C 0.93492 0.43461 0.2711 0.0
C2354 C 0.93558 0.41088 0.23844 0.0
C2355 C 0.9458 0.39177 0.22461 0.0
C2356 C 0.97047 0.39135 0.2199 0.0
C2357 C 0.98002 0.37313 0.20708 0.0
C2358 C 0.96507 0.3553 0.19876 0.0
C2359 C 0.94051 0.3557 0.2032 0.0
C2360 C 0.93086 0.37387 0.21603 0.0
C2361 C 0.86639 0.49487 0.22377 0.0
C2362 C 0.84672 0.4823 0.21526 0.0
C2363 C 0.88593 0.48243 0.23251 0.0
C2364 C 0.88594 0.45719 0.23328 0.0
C2365 C 0.86622 0.44473 0.22483 0.0
C2366 C 0.84692 0.45709 0.21588 0.0
C2367 C 0.90644 0.44352 0.24259 0.0
C2368 C 0.91663 0.42484 0.23048 0.0
C2369 C 0.91576 0.44842 0.26323 0.0
C2370 C 0.9051 0.46692 0.27741 0.0
C2371 C 0.88068 0.46596 0.28297 0.0
C2372 C 0.87072 0.48357 0.29623 0.0
C2373 C 0.88506 0.50211 0.30417 0.0
C2374 C 0.9094 0.50304 0.29892 0.0
C2375 C 0.91944 0.48549 0.28565 0.0
H2376 H 0.87732 0.51572 0.31443 0.0
H2377 H 0.9725 0.3412 0.18885 0.0
H2378 H 0.56594 0.90416 0.20204 0.0
H2379 H 0.59628 0.92948 0.2191 0.0
H2380 H 0.64051 0.86733 0.23005 0.0
H2381 H 0.61034 0.84186 0.21297 0.0
H2382 H 0.63675 0.89638 0.26581 0.0
H2383 H 0.65405 0.90563 0.19054 0.0
H2384 H 0.64417 0.91552 0.15315 0.0
H2385 H 0.62549 0.98723 0.17196 0.0
H2386 H 0.63495 0.97766 0.20954 0.0
H2387 H 0.7481 0.94455 0.29268 0.0
H2388 H 0.71499 0.92406 0.27524 0.0
H2389 H 0.68247 0.99218 0.26034 0.0
H2390 H 0.71645 0.01303 0.27727 0.0
H2391 H 0.6772 0.96299 0.22762 0.0
H2392 H 0.66147 0.95546 0.30215 0.0
H2393 H 0.67027 0.94638 0.33991 0.0
H2394 H 0.68388 0.87281 0.32352 0.0
H2395 H 0.67549 0.88151 0.2856 0.0
C2396 C 0.58213 0.89583 0.20803 0.0
C2397 C 0.58566 0.87091 0.20605 0.0
C2398 C 0.59951 0.91039 0.21773 0.0
C2399 C 0.62078 0.90036 0.22574 0.0
C2400 C 0.62425 0.87549 0.22399 0.0
C2401 C 0.60698 0.86094 0.21415 0.0
C2402 C 0.63937 0.91567 0.23615 0.0
C2403 C 0.64577 0.91079 0.25739 0.0
C2404 C 0.65053 0.93506 0.22546 0.0
C2405 C 0.64496 0.94085 0.20288 0.0
C2406 C 0.64764 0.92345 0.18673 0.0
C2407 C 0.64216 0.92901 0.1655 0.0
C2408 C 0.63414 0.95197 0.16019 0.0
C2409 C 0.63166 0.96944 0.1761 0.0
C2410 C 0.6371 0.96397 0.19736 0.0
C2411 C 0.73392 0.95528 0.28576 0.0
C2412 C 0.73482 0.98047 0.28661 0.0
C2413 C 0.71485 0.94348 0.27584 0.0
C2414 C 0.69577 0.95646 0.26691 0.0
C2415 C 0.69683 0.9817 0.26725 0.0
C2416 C 0.71623 0.99361 0.27696 0.0
C2417 C 0.67498 0.94343 0.25723 0.0
C2418 C 0.66808 0.94873 0.23615 0.0
C2419 C 0.66312 0.92456 0.26816 0.0
C2420 C 0.66801 0.91919 0.29099 0.0
C2421 C 0.66648 0.93738 0.30657 0.0
C2422 C 0.67138 0.93229 0.32801 0.0
C2423 C 0.67767 0.90905 0.3341 0.0
C2424 C 0.67902 0.89082 0.31878 0.0
C2425 C 0.67416 0.89581 0.29731 0.0
H2426 H 0.68147 0.90515 0.35071 0.0
H2427 H 0.6299 0.95624 0.14375 0.0
H2428 H 0.11948 0.74534 0.30083 0.0
H2429 H 0.14964 0.71938 0.28416 0.0
H2430 H 0.09711 0.66297 0.27822 0.0
H2431 H 0.06717 0.68848 0.29529 0.0
H2432 H 0.13703 0.64491 0.29254 0.0
H2433 H 0.11673 0.69838 0.23473 0.0
H2434 H 0.11172 0.73776 0.21744 0.0
H2435 H 0.18647 0.75296 0.22684 0.0
H2436 H 0.19185 0.71377 0.24443 0.0
H2437 H 0.19158 0.56698 0.21828 0.0
H2438 H 0.1656 0.59608 0.23594 0.0
H2439 H 0.22485 0.64542 0.24128 0.0
H2440 H 0.25103 0.61643 0.22322 0.0
H2441 H 0.18462 0.66849 0.22892 0.0
H2442 H 0.20529 0.61393 0.28482 0.0
H2443 H 0.21027 0.57438 0.30179 0.0
H2444 H 0.13469 0.5612 0.29594 0.0
H2445 H 0.1293 0.60056 0.27867 0.0
C2446 C 0.11432 0.72744 0.29588 0.0
C2447 C 0.09085 0.71903 0.29944 0.0
C2448 C 0.13159 0.71262 0.28626 0.0
C2449 C 0.12569 0.68918 0.27972 0.0
C2450 C 0.10222 0.68089 0.28315 0.0
C2451 C 0.08505 0.69558 0.29289 0.0
C2452 C 0.14388 0.67297 0.26972 0.0
C2453 C 0.14721 0.65003 0.27848 0.0
C2454 C 0.15783 0.67977 0.25176 0.0
C2455 C 0.15464 0.70326 0.2411 0.0
C2456 C 0.13206 0.7102 0.23325 0.0
C2457 C 0.12916 0.73247 0.22337 0.0
C2458 C 0.14875 0.74788 0.2211 0.0
C2459 C 0.1713 0.74102 0.22864 0.0
C2460 C 0.17429 0.71878 0.23855 0.0
C2461 C 0.1992 0.58397 0.22321 0.0
C2462 C 0.22351 0.58924 0.21939 0.0
C2463 C 0.18428 0.60061 0.23342 0.0
C2464 C 0.19328 0.62288 0.24025 0.0
C2465 C 0.21747 0.62835 0.23624 0.0
C2466 C 0.23245 0.61169 0.22597 0.0
C2467 C 0.17732 0.64032 0.25151 0.0
C2468 C 0.1745 0.66346 0.24304 0.0
C2469 C 0.16378 0.63373 0.26975 0.0
C2470 C 0.16693 0.61012 0.2803 0.0
C2471 C 0.18975 0.60254 0.28703 0.0
C2472 C 0.19265 0.58016 0.29672 0.0
C2473 C 0.17282 0.56527 0.2999 0.0
C2474 C 0.15004 0.57275 0.29345 0.0
C2475 C 0.14705 0.5951 0.28373 0.0
H2476 H 0.1751 0.54795 0.30739 0.0
H2477 H 0.14647 0.76512 0.21345 0.0
H2478 H 0.36851 0.07557 0.28181 0.0
H2479 H 0.40126 0.09737 0.26392 0.0
H2480 H 0.36759 0.16459 0.28016 0.0
H2481 H 0.33527 0.14322 0.29804 0.0
H2482 H 0.38254 0.16257 0.23773 0.0
H2483 H 0.41371 0.1463 0.30845 0.0
H2484 H 0.42541 0.12014 0.33841 0.0
H2485 H 0.47554 0.0834 0.29774 0.0
H2486 H 0.46387 0.10915 0.26744 0.0
H2487 H 0.47162 0.2501 0.22093 0.0
H2488 H 0.44133 0.22402 0.23691 0.0
H2489 H 0.48675 0.16259 0.22597 0.0
H2490 H 0.51742 0.18861 0.21057 0.0
H2491 H 0.46655 0.15848 0.26347 0.0
H2492 H 0.43779 0.17552 0.19326 0.0
H2493 H 0.42638 0.20098 0.16274 0.0
H2494 H 0.37187 0.2347 0.2009 0.0
H2495 H 0.38319 0.20967 0.23177 0.0
C2496 C 0.36814 0.09498 0.28152 0.0
C2497 C 0.34934 0.10763 0.29146 0.0
C2498 C 0.38686 0.10741 0.27135 0.0
C2499 C 0.38689 0.13264 0.27076 0.0
C2500 C 0.36795 0.14517 0.28038 0.0
C2501 C 0.34952 0.13285 0.29072 0.0
C2502 C 0.4066 0.14633 0.26035 0.0
C2503 C 0.40089 0.1618 0.24343 0.0
C2504 C 0.43065 0.14486 0.26741 0.0
C2505 C 0.4377 0.12944 0.28562 0.0
C2506 C 0.42707 0.13249 0.30584 0.0
C2507 C 0.43372 0.11777 0.3229 0.0
C2508 C 0.45115 0.10007 0.31997 0.0
C2509 C 0.462 0.09709 0.29998 0.0
C2510 C 0.45538 0.11174 0.28286 0.0
C2511 C 0.47524 0.23106 0.22199 0.0
C2512 C 0.49694 0.22149 0.21431 0.0
C2513 C 0.45781 0.21611 0.23103 0.0
C2514 C 0.46149 0.19119 0.2323 0.0
C2515 C 0.48338 0.18169 0.22511 0.0
C2516 C 0.50091 0.19664 0.21623 0.0
C2517 C 0.44247 0.17508 0.24097 0.0
C2518 C 0.44828 0.15913 0.25757 0.0
C2519 C 0.41851 0.17593 0.23347 0.0
C2520 C 0.41148 0.19086 0.21488 0.0
C2521 C 0.42347 0.18847 0.19519 0.0
C2522 C 0.41701 0.20282 0.17782 0.0
C2523 C 0.39845 0.21949 0.1799 0.0
C2524 C 0.38626 0.2218 0.19933 0.0
C2525 C 0.39267 0.20752 0.21676 0.0
H2526 H 0.39347 0.23058 0.16643 0.0
H2527 H 0.45629 0.0887 0.33319 0.0
loop_
_geom_bond_atom_site_label_1
_geom_bond_atom_site_label_2
_geom_bond_distance
_geom_bond_site_symmetry_2
_ccdc_geom_bond_type
Co0 N4 2.148 1_455 S
Co0 N10 2.128 . S
Co0 N20 2.194 . S
Co0 O25 2.351 . S
Co0 O26 2.155 . S
Co0 O27 2.096 . S
C1 N4 1.301 . S
C1 N5 1.328 . S
C1 H6 0.930 1_655 S
C2 C3 1.333 . S
C2 N4 1.317 . S
C2 H7 0.930 . S
C3 C2 1.333 . S
C3 N5 1.350 . S
C3 H29 0.931 . S
N4 Co0 2.148 1_655 S
N4 C1 1.301 . S
N4 C2 1.317 . S
N5 C1 1.328 . S
N5 C3 1.350 . S
H6 C1 0.930 1_455 S
H7 C2 0.930 . S
C8 O9 1.224 . S
C8 O27 1.247 1_655 S
O9 C8 1.224 . S
N10 Co0 2.128 . S
N10 C11 1.355 . S
N10 C13 1.311 . S
C11 N10 1.355 . S
C11 C12 1.363 . S
C11 H23 0.929 . S
C12 C11 1.363 . S
C12 N14 1.375 . S
C12 H30 0.931 . S
C13 N10 1.311 . S
C13 N14 1.347 . S
C13 H24 0.929 . S
N14 C12 1.375 . S
N14 C13 1.347 . S
C15 C18 1.365 . S
C15 N20 1.328 . S
C15 H21 0.929 . S
C16 C17 1.362 . S
C16 C19 1.378 . S
C16 H31 0.929 1_455 S
C17 C16 1.362 . S
C17 C18 1.366 . S
C18 C15 1.365 . S
C18 C17 1.366 . S
C18 H32 0.930 . S
C19 C16 1.378 . S
C19 N20 1.315 . S
C19 H22 0.928 1_455 S
N20 Co0 2.194 . S
N20 C15 1.328 . S
N20 C19 1.315 . S
H21 C15 0.929 . S
H22 C19 0.928 1_655 S
H23 C11 0.929 . S
H24 C13 0.929 . S
O25 Co0 2.351 . S
O25 C28 1.244 . S
O26 Co0 2.155 . S
O26 C28 1.240 . S
O27 Co0 2.096 . S
O27 C8 1.247 1_455 S
C28 O25 1.244 . S
C28 O26 1.240 . S
H29 C3 0.931 . S
H30 C12 0.931 . S
H31 C16 0.929 1_655 S
H32 C18 0.930 . S
Co33 N37 2.148 1_545 S
Co33 N43 2.128 . S
Co33 N53 2.194 . S
Co33 O58 2.351 . S
Co33 O59 2.155 . S
Co33 O60 2.096 . S
C34 N37 1.301 . S
C34 N38 1.328 . S
C34 H39 0.930 1_565 S
C35 C36 1.333 . S
C35 N37 1.317 . S
C35 H40 0.930 . S
C36 C35 1.333 . S
C36 N38 1.350 . S
C36 H62 0.931 . S
N37 Co33 2.148 1_565 S
N37 C34 1.301 . S
N37 C35 1.317 . S
N38 C34 1.328 . S
N38 C36 1.350 . S
H39 C34 0.930 1_545 S
H40 C35 0.930 . S
C41 O42 1.224 . S
C41 O60 1.247 1_565 S
O42 C41 1.224 . S
N43 Co33 2.128 . S
N43 C44 1.355 . S
N43 C46 1.311 . S
C44 N43 1.355 . S
C44 C45 1.363 . S
C44 H56 0.929 . S
C45 C44 1.363 . S
C45 N47 1.375 . S
C45 H63 0.931 . S
C46 N43 1.311 . S
C46 N47 1.347 . S
C46 H57 0.929 . S
N47 C45 1.375 . S
N47 C46 1.347 . S
C48 C51 1.365 . S
C48 N53 1.328 . S
C48 H54 0.929 . S
C49 C50 1.362 . S
C49 C52 1.378 . S
C49 H64 0.929 1_545 S
C50 C49 1.362 . S
C50 C51 1.366 . S
C51 C48 1.365 . S
C51 C50 1.366 . S
C51 H65 0.930 . S
C52 C49 1.378 . S
C52 N53 1.315 . S
C52 H55 0.928 1_545 S
N53 Co33 2.194 . S
N53 C48 1.328 . S
N53 C52 1.315 . S
H54 C48 0.929 . S
H55 C52 0.928 1_565 S
H56 C44 0.929 . S
H57 C46 0.929 . S
O58 Co33 2.351 . S
O58 C61 1.244 . S
O59 Co33 2.155 . S
O59 C61 1.240 . S
O60 Co33 2.096 . S
O60 C41 1.247 1_545 S
C61 O58 1.244 . S
C61 O59 1.240 . S
H62 C36 0.931 . S
H63 C45 0.931 . S
H64 C49 0.929 1_565 S
H65 C51 0.930 . S
Co66 N70 2.148 . S
Co66 N76 2.128 . S
Co66 N86 2.194 . S
Co66 O91 2.351 . S
Co66 O92 2.155 . S
Co66 O93 2.096 . S
C67 N70 1.301 . S
C67 N71 1.328 . S
C67 H72 0.930 . S
C68 C69 1.333 . S
C68 N70 1.317 . S
C68 H73 0.930 . S
C69 C68 1.333 . S
C69 N71 1.350 . S
C69 H95 0.931 . S
N70 Co66 2.148 . S
N70 C67 1.301 . S
N70 C68 1.317 . S
N71 C67 1.328 . S
N71 C69 1.350 . S
H72 C67 0.930 . S
H73 C68 0.930 . S
C74 O75 1.224 . S
C74 O93 1.247 . S
O75 C74 1.224 . S
N76 Co66 2.128 . S
N76 C77 1.355 . S
N76 C79 1.311 . S
C77 N76 1.355 . S
C77 C78 1.363 1_455 S
C77 H89 0.929 . S
C78 C77 1.363 1_655 S
C78 N80 1.375 1_655 S
C78 H96 0.931 . S
C79 N76 1.311 . S
C79 N80 1.347 . S
C79 H90 0.929 . S
N80 C78 1.375 1_455 S
N80 C79 1.347 . S
C81 C84 1.365 . S
C81 N86 1.328 . S
C81 H87 0.929 . S
C82 C83 1.362 . S
C82 C85 1.378 . S
C82 H97 0.929 . S
C83 C82 1.362 . S
C83 C84 1.366 . S
C84 C81 1.365 . S
C84 C83 1.366 . S
C84 H98 0.930 . S
C85 C82 1.378 . S
C85 N86 1.315 . S
C85 H88 0.930 . S
N86 Co66 2.194 . S
N86 C81 1.328 . S
N86 C85 1.315 . S
H87 C81 0.929 . S
H88 C85 0.930 . S
H89 C77 0.929 . S
H90 C79 0.929 . S
O91 Co66 2.351 . S
O91 C94 1.244 . S
O92 Co66 2.155 . S
O92 C94 1.240 . S
O93 Co66 2.096 . S
O93 C74 1.247 . S
C94 O91 1.244 . S
C94 O92 1.240 . S
H95 C69 0.931 . S
H96 C78 0.931 . S
H97 C82 0.929 . S
H98 C84 0.930 . S
Co99 N103 2.148 . S
Co99 N109 2.128 . S
Co99 N119 2.194 . S
Co99 O124 2.351 . S
Co99 O125 2.155 . S
Co99 O126 2.096 . S
C100 N103 1.301 . S
C100 N104 1.328 . S
C100 H105 0.930 . S
C101 C102 1.333 . S
C101 N103 1.317 . S
C101 H106 0.930 . S
C102 C101 1.333 . S
C102 N104 1.350 . S
C102 H128 0.931 . S
N103 Co99 2.148 . S
N103 C100 1.301 . S
N103 C101 1.317 . S
N104 C100 1.328 . S
N104 C102 1.350 . S
H105 C100 0.930 . S
H106 C101 0.930 . S
C107 O108 1.224 . S
C107 O126 1.247 . S
O108 C107 1.224 . S
N109 Co99 2.128 . S
N109 C110 1.355 . S
N109 C112 1.311 . S
C110 N109 1.355 . S
C110 C111 1.363 1_545 S
C110 H122 0.929 . S
C111 C110 1.363 1_565 S
C111 N113 1.375 1_565 S
C111 H129 0.931 . S
C112 N109 1.311 . S
C112 N113 1.347 . S
C112 H123 0.929 . S
N113 C111 1.375 1_545 S
N113 C112 1.347 . S
C114 C117 1.365 . S
C114 N119 1.328 . S
C114 H120 0.929 . S
C115 C116 1.362 . S
C115 C118 1.378 . S
C115 H130 0.929 . S
C116 C115 1.362 . S
C116 C117 1.366 . S
C117 C114 1.365 . S
C117 C116 1.366 . S
C117 H131 0.930 . S
C118 C115 1.378 . S
C118 N119 1.315 . S
C118 H121 0.930 . S
N119 Co99 2.194 . S
N119 C114 1.328 . S
N119 C118 1.315 . S
H120 C114 0.929 . S
H121 C118 0.930 . S
H122 C110 0.929 . S
H123 C112 0.929 . S
O124 Co99 2.351 . S
O124 C127 1.244 . S
O125 Co99 2.155 . S
O125 C127 1.240 . S
O126 Co99 2.096 . S
O126 C107 1.247 . S
C127 O124 1.244 . S
C127 O125 1.240 . S
H128 C102 0.931 . S
H129 C111 0.931 . S
H130 C115 0.929 . S
H131 C117 0.930 . S
Co132 N136 2.148 1_455 S
Co132 N142 2.128 . S
Co132 N152 2.194 . S
Co132 O157 2.351 . S
Co132 O158 2.155 . S
Co132 O159 2.096 . S
C133 N136 1.301 . S
C133 N137 1.328 . S
C133 H138 0.930 1_655 S
C134 C135 1.333 . S
C134 N136 1.317 . S
C134 H139 0.930 . S
C135 C134 1.333 . S
C135 N137 1.350 . S
C135 H161 0.931 . S
N136 Co132 2.148 1_655 S
N136 C133 1.301 . S
N136 C134 1.317 . S
N137 C133 1.328 . S
N137 C135 1.350 . S
H138 C133 0.930 1_455 S
H139 C134 0.930 . S
C140 O141 1.224 . S
C140 O159 1.247 1_655 S
O141 C140 1.224 . S
N142 Co132 2.128 . S
N142 C143 1.355 . S
N142 C145 1.311 . S
C143 N142 1.355 . S
C143 C144 1.363 . S
C143 H155 0.929 . S
C144 C143 1.363 . S
C144 N146 1.375 . S
C144 H162 0.931 . S
C145 N142 1.311 . S
C145 N146 1.347 . S
C145 H156 0.929 . S
N146 C144 1.375 . S
N146 C145 1.347 . S
C147 C150 1.365 . S
C147 N152 1.328 . S
C147 H153 0.929 . S
C148 C149 1.362 . S
C148 C151 1.378 . S
C148 H163 0.929 1_455 S
C149 C148 1.362 . S
C149 C150 1.366 . S
C150 C147 1.365 . S
C150 C149 1.366 . S
C150 H164 0.930 . S
C151 C148 1.378 . S
C151 N152 1.315 . S
C151 H154 0.928 1_455 S
N152 Co132 2.194 . S
N152 C147 1.328 . S
N152 C151 1.315 . S
H153 C147 0.929 . S
H154 C151 0.928 1_655 S
H155 C143 0.929 . S
H156 C145 0.929 . S
O157 Co132 2.351 . S
O157 C160 1.244 . S
O158 Co132 2.155 . S
O158 C160 1.240 . S
O159 Co132 2.096 . S
O159 C140 1.247 1_455 S
C160 O157 1.244 . S
C160 O158 1.240 . S
H161 C135 0.931 . S
H162 C144 0.931 . S
H163 C148 0.929 1_655 S
H164 C150 0.930 . S
Co165 N169 2.148 1_545 S
Co165 N175 2.128 . S
Co165 N185 2.194 . S
Co165 O190 2.351 . S
Co165 O191 2.155 . S
Co165 O192 2.096 . S
C166 N169 1.301 . S
C166 N170 1.328 . S
C166 H171 0.930 1_565 S
C167 C168 1.333 . S
C167 N169 1.317 . S
C167 H172 0.930 . S
C168 C167 1.333 . S
C168 N170 1.350 . S
C168 H194 0.931 . S
N169 Co165 2.148 1_565 S
N169 C166 1.301 . S
N169 C167 1.317 . S
N170 C166 1.328 . S
N170 C168 1.350 . S
H171 C166 0.930 1_545 S
H172 C167 0.930 . S
C173 O174 1.224 . S
C173 O192 1.247 1_565 S
O174 C173 1.224 . S
N175 Co165 2.128 . S
N175 C176 1.355 . S
N175 C178 1.311 . S
C176 N175 1.355 . S
C176 C177 1.363 . S
C176 H188 0.929 . S
C177 C176 1.363 . S
C177 N179 1.375 . S
C177 H195 0.931 . S
C178 N175 1.311 . S
C178 N179 1.347 . S
C178 H189 0.929 . S
N179 C177 1.375 . S
N179 C178 1.347 . S
C180 C183 1.365 . S
C180 N185 1.328 . S
C180 H186 0.929 . S
C181 C182 1.362 . S
C181 C184 1.378 . S
C181 H196 0.929 1_545 S
C182 C181 1.362 . S
C182 C183 1.366 . S
C183 C180 1.365 . S
C183 C182 1.366 . S
C183 H197 0.930 . S
C184 C181 1.378 . S
C184 N185 1.315 . S
C184 H187 0.928 1_545 S
N185 Co165 2.194 . S
N185 C180 1.328 . S
N185 C184 1.315 . S
H186 C180 0.929 . S
H187 C184 0.928 1_565 S
H188 C176 0.929 . S
H189 C178 0.929 . S
O190 Co165 2.351 . S
O190 C193 1.244 . S
O191 Co165 2.155 . S
O191 C193 1.240 . S
O192 Co165 2.096 . S
O192 C173 1.247 1_545 S
C193 O190 1.244 . S
C193 O191 1.240 . S
H194 C168 0.931 . S
H195 C177 0.931 . S
H196 C181 0.929 1_565 S
H197 C183 0.930 . S
Co198 N202 2.148 . S
Co198 N208 2.128 . S
Co198 N218 2.194 . S
Co198 O223 2.351 . S
Co198 O224 2.155 . S
Co198 O225 2.096 . S
C199 N202 1.301 . S
C199 N203 1.328 . S
C199 H204 0.930 . S
C200 C201 1.333 . S
C200 N202 1.317 . S
C200 H205 0.930 . S
C201 C200 1.333 . S
C201 N203 1.350 . S
C201 H227 0.931 . S
N202 Co198 2.148 . S
N202 C199 1.301 . S
N202 C200 1.317 . S
N203 C199 1.328 . S
N203 C201 1.350 . S
H204 C199 0.930 . S
H205 C200 0.930 . S
C206 O207 1.224 . S
C206 O225 1.247 . S
O207 C206 1.224 . S
N208 Co198 2.128 . S
N208 C209 1.355 . S
N208 C211 1.311 . S
C209 N208 1.355 . S
C209 C210 1.363 1_455 S
C209 H221 0.929 . S
C210 C209 1.363 1_655 S
C210 N212 1.375 1_655 S
C210 H228 0.931 . S
C211 N208 1.311 . S
C211 N212 1.347 . S
C211 H222 0.929 . S
N212 C210 1.375 1_455 S
N212 C211 1.347 . S
C213 C216 1.365 . S
C213 N218 1.328 . S
C213 H219 0.929 . S
C214 C215 1.362 . S
C214 C217 1.378 . S
C214 H229 0.929 . S
C215 C214 1.362 . S
C215 C216 1.366 . S
C216 C213 1.365 . S
C216 C215 1.366 . S
C216 H230 0.930 . S
C217 C214 1.378 . S
C217 N218 1.315 . S
C217 H220 0.930 . S
N218 Co198 2.194 . S
N218 C213 1.328 . S
N218 C217 1.315 . S
H219 C213 0.929 . S
H220 C217 0.930 . S
H221 C209 0.929 . S
H222 C211 0.929 . S
O223 Co198 2.351 . S
O223 C226 1.244 . S
O224 Co198 2.155 . S
O224 C226 1.240 . S
O225 Co198 2.096 . S
O225 C206 1.247 . S
C226 O223 1.244 . S
C226 O224 1.240 . S
H227 C201 0.931 . S
H228 C210 0.931 . S
H229 C214 0.929 . S
H230 C216 0.930 . S
Co231 N235 2.148 . S
Co231 N241 2.128 . S
Co231 N251 2.194 . S
Co231 O256 2.351 . S
Co231 O257 2.155 . S
Co231 O258 2.096 . S
C232 N235 1.301 . S
C232 N236 1.328 . S
C232 H237 0.930 . S
C233 C234 1.333 . S
C233 N235 1.317 . S
C233 H238 0.930 . S
C234 C233 1.333 . S
C234 N236 1.350 . S
C234 H260 0.931 . S
N235 Co231 2.148 . S
N235 C232 1.301 . S
N235 C233 1.317 . S
N236 C232 1.328 . S
N236 C234 1.350 . S
H237 C232 0.930 . S
H238 C233 0.930 . S
C239 O240 1.224 . S
C239 O258 1.247 . S
O240 C239 1.224 . S
N241 Co231 2.128 . S
N241 C242 1.355 . S
N241 C244 1.311 . S
C242 N241 1.355 . S
C242 C243 1.363 1_545 S
C242 H254 0.929 . S
C243 C242 1.363 1_565 S
C243 N245 1.375 1_565 S
C243 H261 0.931 . S
C244 N241 1.311 . S
C244 N245 1.347 . S
C244 H255 0.929 . S
N245 C243 1.375 1_545 S
N245 C244 1.347 . S
C246 C249 1.365 . S
C246 N251 1.328 . S
C246 H252 0.929 . S
C247 C248 1.362 . S
C247 C250 1.378 . S
C247 H262 0.929 . S
C248 C247 1.362 . S
C248 C249 1.366 . S
C249 C246 1.365 . S
C249 C248 1.366 . S
C249 H263 0.930 . S
C250 C247 1.378 . S
C250 N251 1.315 . S
C250 H253 0.930 . S
N251 Co231 2.194 . S
N251 C246 1.328 . S
N251 C250 1.315 . S
H252 C246 0.929 . S
H253 C250 0.930 . S
H254 C242 0.929 . S
H255 C244 0.929 . S
O256 Co231 2.351 . S
O256 C259 1.244 . S
O257 Co231 2.155 . S
O257 C259 1.240 . S
O258 Co231 2.096 . S
O258 C239 1.247 . S
C259 O256 1.244 . S
C259 O257 1.240 . S
H260 C234 0.931 . S
H261 C243 0.931 . S
H262 C247 0.929 . S
H263 C249 0.930 . S
Co264 N268 2.148 . S
Co264 N274 2.128 . S
Co264 N284 2.194 . S
Co264 O289 2.351 . S
Co264 O290 2.155 . S
Co264 O291 2.096 . S
C265 N268 1.301 . S
C265 N269 1.328 . S
C265 H270 0.930 . S
C266 C267 1.333 . S
C266 N268 1.317 . S
C266 H271 0.930 . S
C267 C266 1.333 . S
C267 N269 1.350 . S
C267 H293 0.931 . S
N268 Co264 2.148 . S
N268 C265 1.301 . S
N268 C266 1.317 . S
N269 C265 1.328 . S
N269 C267 1.350 . S
H270 C265 0.930 . S
H271 C266 0.930 . S
C272 O273 1.224 . S
C272 O291 1.247 . S
O273 C272 1.224 . S
N274 Co264 2.128 . S
N274 C275 1.355 . S
N274 C277 1.311 . S
C275 N274 1.355 . S
C275 C276 1.363 . S
C275 H287 0.929 . S
C276 C275 1.363 . S
C276 N278 1.375 . S
C276 H294 0.931 . S
C277 N274 1.311 . S
C277 N278 1.347 . S
C277 H288 0.929 . S
N278 C276 1.375 . S
N278 C277 1.347 . S
C279 C282 1.365 . S
C279 N284 1.328 . S
C279 H285 0.929 . S
C280 C281 1.362 . S
C280 C283 1.378 . S
C280 H295 0.929 . S
C281 C280 1.362 . S
C281 C282 1.366 . S
C282 C279 1.365 . S
C282 C281 1.366 . S
C282 H296 0.930 . S
C283 C280 1.378 . S
C283 N284 1.315 . S
C283 H286 0.930 . S
N284 Co264 2.194 . S
N284 C279 1.328 . S
N284 C283 1.315 . S
H285 C279 0.929 . S
H286 C283 0.930 . S
H287 C275 0.929 . S
H288 C277 0.929 . S
O289 Co264 2.351 . S
O289 C292 1.244 . S
O290 Co264 2.155 . S
O290 C292 1.240 . S
O291 Co264 2.096 . S
O291 C272 1.247 . S
C292 O289 1.244 . S
C292 O290 1.240 . S
H293 C267 0.931 . S
H294 C276 0.931 . S
H295 C280 0.929 . S
H296 C282 0.930 . S
Co297 N301 2.148 . S
Co297 N307 2.128 . S
Co297 N317 2.194 . S
Co297 O322 2.351 . S
Co297 O323 2.155 . S
Co297 O324 2.096 . S
C298 N301 1.301 . S
C298 N302 1.328 . S
C298 H303 0.930 . S
C299 C300 1.333 . S
C299 N301 1.317 . S
C299 H304 0.930 . S
C300 C299 1.333 . S
C300 N302 1.350 . S
C300 H326 0.931 . S
N301 Co297 2.148 . S
N301 C298 1.301 . S
N301 C299 1.317 . S
N302 C298 1.328 . S
N302 C300 1.350 . S
H303 C298 0.930 . S
H304 C299 0.930 . S
C305 O306 1.224 . S
C305 O324 1.247 . S
O306 C305 1.224 . S
N307 Co297 2.128 . S
N307 C308 1.355 . S
N307 C310 1.311 . S
C308 N307 1.355 . S
C308 C309 1.363 . S
C308 H320 0.929 . S
C309 C308 1.363 . S
C309 N311 1.375 . S
C309 H327 0.931 . S
C310 N307 1.311 . S
C310 N311 1.347 . S
C310 H321 0.929 . S
N311 C309 1.375 . S
N311 C310 1.347 . S
C312 C315 1.365 . S
C312 N317 1.328 . S
C312 H318 0.929 . S
C313 C314 1.362 . S
C313 C316 1.378 . S
C313 H328 0.929 . S
C314 C313 1.362 . S
C314 C315 1.366 . S
C315 C312 1.365 . S
C315 C314 1.366 . S
C315 H329 0.930 . S
C316 C313 1.378 . S
C316 N317 1.315 . S
C316 H319 0.930 . S
N317 Co297 2.194 . S
N317 C312 1.328 . S
N317 C316 1.315 . S
H318 C312 0.929 . S
H319 C316 0.930 . S
H320 C308 0.929 . S
H321 C310 0.929 . S
O322 Co297 2.351 . S
O322 C325 1.244 . S
O323 Co297 2.155 . S
O323 C325 1.240 . S
O324 Co297 2.096 . S
O324 C305 1.247 . S
C325 O322 1.244 . S
C325 O323 1.240 . S
H326 C300 0.931 . S
H327 C309 0.931 . S
H328 C313 0.929 . S
H329 C315 0.930 . S
Co330 N334 2.148 . S
Co330 N340 2.128 . S
Co330 N350 2.194 . S
Co330 O355 2.351 . S
Co330 O356 2.155 . S
Co330 O357 2.096 . S
C331 N334 1.301 . S
C331 N335 1.328 . S
C331 H336 0.930 . S
C332 C333 1.333 . S
C332 N334 1.317 . S
C332 H337 0.930 . S
C333 C332 1.333 . S
C333 N335 1.350 . S
C333 H359 0.931 . S
N334 Co330 2.148 . S
N334 C331 1.301 . S
N334 C332 1.317 . S
N335 C331 1.328 . S
N335 C333 1.350 . S
H336 C331 0.930 . S
H337 C332 0.930 . S
C338 O339 1.224 . S
C338 O357 1.247 . S
O339 C338 1.224 . S
N340 Co330 2.128 . S
N340 C341 1.355 . S
N340 C343 1.311 . S
C341 N340 1.355 . S
C341 C342 1.363 . S
C341 H353 0.929 . S
C342 C341 1.363 . S
C342 N344 1.375 . S
C342 H360 0.931 . S
C343 N340 1.311 . S
C343 N344 1.347 . S
C343 H354 0.929 . S
N344 C342 1.375 . S
N344 C343 1.347 . S
C345 C348 1.365 . S
C345 N350 1.328 . S
C345 H351 0.929 . S
C346 C347 1.362 . S
C346 C349 1.378 . S
C346 H361 0.929 . S
C347 C346 1.362 . S
C347 C348 1.366 . S
C348 C345 1.365 . S
C348 C347 1.366 . S
C348 H362 0.930 . S
C349 C346 1.378 . S
C349 N350 1.315 . S
C349 H352 0.930 . S
N350 Co330 2.194 . S
N350 C345 1.328 . S
N350 C349 1.315 . S
H351 C345 0.929 . S
H352 C349 0.930 . S
H353 C341 0.929 . S
H354 C343 0.929 . S
O355 Co330 2.351 . S
O355 C358 1.244 . S
O356 Co330 2.155 . S
O356 C358 1.240 . S
O357 Co330 2.096 . S
O357 C338 1.247 . S
C358 O355 1.244 . S
C358 O356 1.240 . S
H359 C333 0.931 . S
H360 C342 0.931 . S
H361 C346 0.929 . S
H362 C348 0.930 . S
Co363 N367 2.148 . S
Co363 N373 2.128 . S
Co363 N383 2.194 . S
Co363 O388 2.351 . S
Co363 O389 2.155 . S
Co363 O390 2.096 . S
C364 N367 1.301 . S
C364 N368 1.328 . S
C364 H369 0.930 . S
C365 C366 1.333 . S
C365 N367 1.317 . S
C365 H370 0.930 . S
C366 C365 1.333 . S
C366 N368 1.350 . S
C366 H392 0.931 . S
N367 Co363 2.148 . S
N367 C364 1.301 . S
N367 C365 1.317 . S
N368 C364 1.328 . S
N368 C366 1.350 . S
H369 C364 0.930 . S
H370 C365 0.930 . S
C371 O372 1.224 . S
C371 O390 1.247 . S
O372 C371 1.224 . S
N373 Co363 2.128 . S
N373 C374 1.355 . S
N373 C376 1.311 . S
C374 N373 1.355 . S
C374 C375 1.363 . S
C374 H386 0.929 . S
C375 C374 1.363 . S
C375 N377 1.375 . S
C375 H393 0.931 . S
C376 N373 1.311 . S
C376 N377 1.347 . S
C376 H387 0.929 . S
N377 C375 1.375 . S
N377 C376 1.347 . S
C378 C381 1.365 . S
C378 N383 1.328 . S
C378 H384 0.929 . S
C379 C380 1.362 . S
C379 C382 1.378 . S
C379 H394 0.929 . S
C380 C379 1.362 . S
C380 C381 1.366 . S
C381 C378 1.365 . S
C381 C380 1.366 . S
C381 H395 0.930 . S
C382 C379 1.378 . S
C382 N383 1.315 . S
C382 H385 0.930 . S
N383 Co363 2.194 . S
N383 C378 1.328 . S
N383 C382 1.315 . S
H384 C378 0.929 . S
H385 C382 0.930 . S
H386 C374 0.929 . S
H387 C376 0.929 . S
O388 Co363 2.351 . S
O388 C391 1.244 . S
O389 Co363 2.155 . S
O389 C391 1.240 . S
O390 Co363 2.096 . S
O390 C371 1.247 . S
C391 O388 1.244 . S
C391 O389 1.240 . S
H392 C366 0.931 . S
H393 C375 0.931 . S
H394 C379 0.929 . S
H395 C381 0.930 . S
Co396 N400 2.148 . S
Co396 N406 2.128 . S
Co396 N416 2.194 . S
Co396 O421 2.351 . S
Co396 O422 2.155 . S
Co396 O423 2.096 . S
C397 N400 1.301 . S
C397 N401 1.328 . S
C397 H402 0.930 . S
C398 C399 1.333 . S
C398 N400 1.317 . S
C398 H403 0.930 . S
C399 C398 1.333 . S
C399 N401 1.350 . S
C399 H425 0.931 . S
N400 Co396 2.148 . S
N400 C397 1.301 . S
N400 C398 1.317 . S
N401 C397 1.328 . S
N401 C399 1.350 . S
H402 C397 0.930 . S
H403 C398 0.930 . S
C404 O405 1.224 . S
C404 O423 1.247 . S
O405 C404 1.224 . S
N406 Co396 2.128 . S
N406 C407 1.355 . S
N406 C409 1.311 . S
C407 N406 1.355 . S
C407 C408 1.363 . S
C407 H419 0.929 . S
C408 C407 1.363 . S
C408 N410 1.375 . S
C408 H426 0.931 . S
C409 N406 1.311 . S
C409 N410 1.347 . S
C409 H420 0.929 . S
N410 C408 1.375 . S
N410 C409 1.347 . S
C411 C414 1.365 . S
C411 N416 1.328 . S
C411 H417 0.929 . S
C412 C413 1.362 . S
C412 C415 1.378 . S
C412 H427 0.929 . S
C413 C412 1.362 . S
C413 C414 1.366 . S
C414 C411 1.365 . S
C414 C413 1.366 . S
C414 H428 0.930 . S
C415 C412 1.378 . S
C415 N416 1.315 . S
C415 H418 0.930 . S
N416 Co396 2.194 . S
N416 C411 1.328 . S
N416 C415 1.315 . S
H417 C411 0.929 . S
H418 C415 0.930 . S
H419 C407 0.929 . S
H420 C409 0.929 . S
O421 Co396 2.351 . S
O421 C424 1.244 . S
O422 Co396 2.155 . S
O422 C424 1.240 . S
O423 Co396 2.096 . S
O423 C404 1.247 . S
C424 O421 1.244 . S
C424 O422 1.240 . S
H425 C399 0.931 . S
H426 C408 0.931 . S
H427 C412 0.929 . S
H428 C414 0.930 . S
Co429 N433 2.148 . S
Co429 N439 2.128 . S
Co429 N449 2.194 . S
Co429 O454 2.351 . S
Co429 O455 2.155 . S
Co429 O456 2.096 . S
C430 N433 1.301 . S
C430 N434 1.328 . S
C430 H435 0.930 . S
C431 C432 1.333 . S
C431 N433 1.317 . S
C431 H436 0.930 . S
C432 C431 1.333 . S
C432 N434 1.350 . S
C432 H458 0.931 . S
N433 Co429 2.148 . S
N433 C430 1.301 . S
N433 C431 1.317 . S
N434 C430 1.328 . S
N434 C432 1.350 . S
H435 C430 0.930 . S
H436 C431 0.930 . S
C437 O438 1.224 . S
C437 O456 1.247 . S
O438 C437 1.224 . S
N439 Co429 2.128 . S
N439 C440 1.355 . S
N439 C442 1.311 . S
C440 N439 1.355 . S
C440 C441 1.363 . S
C440 H452 0.929 . S
C441 C440 1.363 . S
C441 N443 1.375 . S
C441 H459 0.931 . S
C442 N439 1.311 . S
C442 N443 1.347 . S
C442 H453 0.929 . S
N443 C441 1.375 . S
N443 C442 1.347 . S
C444 C447 1.365 . S
C444 N449 1.328 . S
C444 H450 0.929 . S
C445 C446 1.362 . S
C445 C448 1.378 . S
C445 H460 0.929 . S
C446 C445 1.362 . S
C446 C447 1.366 . S
C447 C444 1.365 . S
C447 C446 1.366 . S
C447 H461 0.930 . S
C448 C445 1.378 . S
C448 N449 1.315 . S
C448 H451 0.930 . S
N449 Co429 2.194 . S
N449 C444 1.328 . S
N449 C448 1.315 . S
H450 C444 0.929 . S
H451 C448 0.930 . S
H452 C440 0.929 . S
H453 C442 0.929 . S
O454 Co429 2.351 . S
O454 C457 1.244 . S
O455 Co429 2.155 . S
O455 C457 1.240 . S
O456 Co429 2.096 . S
O456 C437 1.247 . S
C457 O454 1.244 . S
C457 O455 1.240 . S
H458 C432 0.931 . S
H459 C441 0.931 . S
H460 C445 0.929 . S
H461 C447 0.930 . S
Co462 N466 2.148 . S
Co462 N472 2.128 . S
Co462 N482 2.194 . S
Co462 O487 2.351 . S
Co462 O488 2.155 . S
Co462 O489 2.096 . S
C463 N466 1.301 . S
C463 N467 1.328 . S
C463 H468 0.930 . S
C464 C465 1.333 . S
C464 N466 1.317 . S
C464 H469 0.930 . S
C465 C464 1.333 . S
C465 N467 1.350 . S
C465 H491 0.931 . S
N466 Co462 2.148 . S
N466 C463 1.301 . S
N466 C464 1.317 . S
N467 C463 1.328 . S
N467 C465 1.350 . S
H468 C463 0.930 . S
H469 C464 0.930 . S
C470 O471 1.224 . S
C470 O489 1.247 . S
O471 C470 1.224 . S
N472 Co462 2.128 . S
N472 C473 1.355 . S
N472 C475 1.311 . S
C473 N472 1.355 . S
C473 C474 1.363 . S
C473 H485 0.929 . S
C474 C473 1.363 . S
C474 N476 1.375 . S
C474 H492 0.931 . S
C475 N472 1.311 . S
C475 N476 1.347 . S
C475 H486 0.929 . S
N476 C474 1.375 . S
N476 C475 1.347 . S
C477 C480 1.365 . S
C477 N482 1.328 . S
C477 H483 0.929 . S
C478 C479 1.362 . S
C478 C481 1.378 . S
C478 H493 0.929 . S
C479 C478 1.362 . S
C479 C480 1.366 . S
C480 C477 1.365 . S
C480 C479 1.366 . S
C480 H494 0.930 . S
C481 C478 1.378 . S
C481 N482 1.315 . S
C481 H484 0.930 . S
N482 Co462 2.194 . S
N482 C477 1.328 . S
N482 C481 1.315 . S
H483 C477 0.929 . S
H484 C481 0.930 . S
H485 C473 0.929 . S
H486 C475 0.929 . S
O487 Co462 2.351 . S
O487 C490 1.244 . S
O488 Co462 2.155 . S
O488 C490 1.240 . S
O489 Co462 2.096 . S
O489 C470 1.247 . S
C490 O487 1.244 . S
C490 O488 1.240 . S
H491 C465 0.931 . S
H492 C474 0.931 . S
H493 C478 0.929 . S
H494 C480 0.930 . S
Co495 N499 2.148 . S
Co495 N505 2.128 . S
Co495 N515 2.194 . S
Co495 O520 2.351 . S
Co495 O521 2.155 . S
Co495 O522 2.096 . S
C496 N499 1.301 . S
C496 N500 1.328 . S
C496 H501 0.930 . S
C497 C498 1.333 . S
C497 N499 1.317 . S
C497 H502 0.930 . S
C498 C497 1.333 . S
C498 N500 1.350 . S
C498 H524 0.931 . S
N499 Co495 2.148 . S
N499 C496 1.301 . S
N499 C497 1.317 . S
N500 C496 1.328 . S
N500 C498 1.350 . S
H501 C496 0.930 . S
H502 C497 0.930 . S
C503 O504 1.224 . S
C503 O522 1.247 . S
O504 C503 1.224 . S
N505 Co495 2.128 . S
N505 C506 1.355 . S
N505 C508 1.311 . S
C506 N505 1.355 . S
C506 C507 1.363 . S
C506 H518 0.929 . S
C507 C506 1.363 . S
C507 N509 1.375 . S
C507 H525 0.931 . S
C508 N505 1.311 . S
C508 N509 1.347 . S
C508 H519 0.929 . S
N509 C507 1.375 . S
N509 C508 1.347 . S
C510 C513 1.365 . S
C510 N515 1.328 . S
C510 H516 0.929 . S
C511 C512 1.362 . S
C511 C514 1.378 . S
C511 H526 0.929 . S
C512 C511 1.362 . S
C512 C513 1.366 . S
C513 C510 1.365 . S
C513 C512 1.366 . S
C513 H527 0.930 . S
C514 C511 1.378 . S
C514 N515 1.315 . S
C514 H517 0.930 . S
N515 Co495 2.194 . S
N515 C510 1.328 . S
N515 C514 1.315 . S
H516 C510 0.929 . S
H517 C514 0.930 . S
H518 C506 0.929 . S
H519 C508 0.929 . S
O520 Co495 2.351 . S
O520 C523 1.244 . S
O521 Co495 2.155 . S
O521 C523 1.240 . S
O522 Co495 2.096 . S
O522 C503 1.247 . S
C523 O520 1.244 . S
C523 O521 1.240 . S
H524 C498 0.931 . S
H525 C507 0.931 . S
H526 C511 0.929 . S
H527 C513 0.930 . S
H528 C546 0.951 1_655 S
H529 C548 0.951 . S
H530 C550 0.950 . S
H531 C551 0.950 . S
H532 C553 0.950 . S
H533 C556 0.950 . S
H534 C557 0.950 . S
H535 C559 0.950 . S
H536 C560 0.950 . S
H537 C561 0.951 . S
H538 C563 0.951 . S
H539 C565 0.950 . S
H540 C566 0.950 . S
H541 C568 0.950 . S
H542 C571 0.950 . S
H543 C572 0.950 . S
H544 C574 0.950 . S
H545 C575 0.950 . S
C546 H528 0.951 1_455 S
C546 C547 1.366 . S
C546 C548 1.388 . S
C547 C546 1.366 . S
C547 C551 1.385 . S
C548 H529 0.951 . S
C548 C546 1.388 . S
C548 C549 1.366 . S
C549 C548 1.366 . S
C549 C550 1.414 . S
C549 C552 1.499 . S
C550 H530 0.950 . S
C550 C549 1.414 . S
C550 C551 1.374 . S
C551 H531 0.950 . S
C551 C547 1.385 . S
C551 C550 1.374 . S
C552 C549 1.499 . S
C552 C553 1.373 . S
C552 C554 1.389 . S
C553 H532 0.950 . S
C553 C552 1.373 . S
C553 C569 1.377 . S
C554 C552 1.389 . S
C554 C555 1.524 . S
C554 C568 1.377 . S
C555 C554 1.524 . S
C555 C556 1.397 . S
C555 C560 1.363 . S
C556 H533 0.950 . S
C556 C555 1.397 . S
C556 C557 1.334 . S
C557 H534 0.950 . S
C557 C556 1.334 . S
C557 C558 1.287 . S
C558 C557 1.287 . S
C558 C559 1.524 . S
C558 H577 0.913 . S
C559 H535 0.950 . S
C559 C558 1.524 . S
C559 C560 1.415 . S
C560 H536 0.950 . S
C560 C555 1.363 . S
C560 C559 1.415 . S
C561 H537 0.951 . S
C561 C562 1.366 . S
C561 C563 1.388 . S
C562 C561 1.366 . S
C562 C566 1.385 . S
C563 H538 0.951 . S
C563 C561 1.388 . S
C563 C564 1.366 . S
C564 C563 1.366 . S
C564 C565 1.414 . S
C564 C567 1.499 . S
C565 H539 0.950 . S
C565 C564 1.414 . S
C565 C566 1.374 . S
C566 H540 0.950 . S
C566 C562 1.385 . S
C566 C565 1.374 . S
C567 C564 1.499 . S
C567 C568 1.373 . S
C567 C569 1.389 . S
C568 H541 0.950 . S
C568 C554 1.377 . S
C568 C567 1.373 . S
C569 C553 1.377 . S
C569 C567 1.389 . S
C569 C570 1.524 . S
C570 C569 1.524 . S
C570 C571 1.397 . S
C570 C575 1.363 . S
C571 H542 0.950 . S
C571 C570 1.397 . S
C571 C572 1.334 . S
C572 H543 0.950 . S
C572 C571 1.334 . S
C572 C573 1.287 . S
C573 C572 1.287 . S
C573 C574 1.524 . S
C573 H576 0.999 . S
C574 H544 0.950 . S
C574 C573 1.524 . S
C574 C575 1.415 . S
C575 H545 0.950 . S
C575 C570 1.363 . S
C575 C574 1.415 . S
H576 C573 0.999 . S
H577 C558 0.913 . S
H578 C596 0.951 . S
H579 C598 0.951 . S
H580 C600 0.950 . S
H581 C601 0.950 . S
H582 C603 0.950 . S
H583 C606 0.951 . S
H584 C607 0.950 . S
H585 C609 0.950 . S
H586 C610 0.950 . S
H587 C611 0.951 . S
H588 C613 0.951 . S
H589 C615 0.950 . S
H590 C616 0.950 . S
H591 C618 0.950 . S
H592 C621 0.950 . S
H593 C622 0.950 . S
H594 C624 0.950 . S
H595 C625 0.950 . S
C596 H578 0.951 . S
C596 C597 1.366 . S
C596 C598 1.388 . S
C597 C596 1.366 . S
C597 C601 1.385 . S
C598 H579 0.951 . S
C598 C596 1.388 . S
C598 C599 1.366 . S
C599 C598 1.366 . S
C599 C600 1.414 . S
C599 C602 1.499 . S
C600 H580 0.950 . S
C600 C599 1.414 . S
C600 C601 1.374 . S
C601 H581 0.950 . S
C601 C597 1.385 . S
C601 C600 1.374 . S
C602 C599 1.499 . S
C602 C603 1.373 . S
C602 C604 1.389 . S
C603 H582 0.950 . S
C603 C602 1.373 . S
C603 C619 1.377 . S
C604 C602 1.389 . S
C604 C605 1.524 . S
C604 C618 1.377 . S
C605 C604 1.524 . S
C605 C606 1.387 1_545 S
C605 C610 1.363 . S
C606 H583 0.951 . S
C606 C605 1.387 1_565 S
C606 C607 1.343 . S
C607 H584 0.950 . S
C607 C606 1.343 . S
C607 C608 1.287 . S
C608 C607 1.287 . S
C608 C609 1.524 1_565 S
C608 H627 0.913 . S
C609 H585 0.950 . S
C609 C608 1.524 1_545 S
C609 C610 1.415 . S
C610 H586 0.950 . S
C610 C605 1.363 . S
C610 C609 1.415 . S
C611 H587 0.951 . S
C611 C612 1.366 . S
C611 C613 1.388 . S
C612 C611 1.366 . S
C612 C616 1.385 . S
C613 H588 0.951 . S
C613 C611 1.388 . S
C613 C614 1.366 . S
C614 C613 1.366 . S
C614 C615 1.414 . S
C614 C617 1.499 . S
C615 H589 0.950 . S
C615 C614 1.414 . S
C615 C616 1.374 . S
C616 H590 0.950 . S
C616 C612 1.385 . S
C616 C615 1.374 . S
C617 C614 1.499 . S
C617 C618 1.373 . S
C617 C619 1.389 . S
C618 H591 0.950 . S
C618 C604 1.377 . S
C618 C617 1.373 . S
C619 C603 1.377 . S
C619 C617 1.389 . S
C619 C620 1.524 . S
C620 C619 1.524 . S
C620 C621 1.397 . S
C620 C625 1.363 . S
C621 H592 0.950 . S
C621 C620 1.397 . S
C621 C622 1.334 . S
C622 H593 0.950 . S
C622 C621 1.334 . S
C622 C623 1.287 . S
C623 C622 1.287 . S
C623 C624 1.524 . S
C623 H626 0.999 . S
C624 H594 0.950 . S
C624 C623 1.524 . S
C624 C625 1.415 . S
C625 H595 0.950 . S
C625 C620 1.363 . S
C625 C624 1.415 . S
H626 C623 0.999 . S
H627 C608 0.913 . S
H628 C646 0.951 . S
H629 C648 0.951 . S
H630 C650 0.950 . S
H631 C651 0.950 . S
H632 C653 0.950 . S
H633 C656 0.950 . S
H634 C657 0.950 . S
H635 C659 0.950 . S
H636 C660 0.950 . S
H637 C661 0.951 . S
H638 C663 0.951 . S
H639 C665 0.950 . S
H640 C666 0.950 . S
H641 C668 0.950 . S
H642 C671 0.952 . S
H643 C672 0.950 . S
H644 C674 0.950 . S
H645 C675 0.950 . S
C646 H628 0.951 . S
C646 C647 1.366 . S
C646 C648 1.388 . S
C647 C646 1.366 . S
C647 C651 1.385 . S
C648 H629 0.951 . S
C648 C646 1.388 . S
C648 C649 1.366 . S
C649 C648 1.366 . S
C649 C650 1.414 . S
C649 C652 1.499 . S
C650 H630 0.950 . S
C650 C649 1.414 . S
C650 C651 1.374 . S
C651 H631 0.950 . S
C651 C647 1.385 . S
C651 C650 1.374 . S
C652 C649 1.499 . S
C652 C653 1.373 . S
C652 C654 1.389 . S
C653 H632 0.950 . S
C653 C652 1.373 . S
C653 C669 1.377 . S
C654 C652 1.389 . S
C654 C655 1.524 . S
C654 C668 1.377 . S
C655 C654 1.524 . S
C655 C656 1.397 . S
C655 C660 1.363 . S
C656 H633 0.950 . S
C656 C655 1.397 . S
C656 C657 1.334 . S
C657 H634 0.950 . S
C657 C656 1.334 . S
C657 C658 1.287 . S
C658 C657 1.287 . S
C658 C659 1.524 . S
C658 H677 0.913 . S
C659 H635 0.950 . S
C659 C658 1.524 . S
C659 C660 1.415 . S
C660 H636 0.950 . S
C660 C655 1.363 . S
C660 C659 1.415 . S
C661 H637 0.951 . S
C661 C662 1.366 . S
C661 C663 1.388 . S
C662 C661 1.366 . S
C662 C666 1.385 . S
C663 H638 0.951 . S
C663 C661 1.388 . S
C663 C664 1.366 . S
C664 C663 1.366 . S
C664 C665 1.414 . S
C664 C667 1.499 . S
C665 H639 0.950 . S
C665 C664 1.414 . S
C665 C666 1.374 . S
C666 H640 0.950 . S
C666 C662 1.385 . S
C666 C665 1.374 . S
C667 C664 1.499 . S
C667 C668 1.373 . S
C667 C669 1.389 . S
C668 H641 0.950 . S
C668 C654 1.377 . S
C668 C667 1.373 . S
C669 C653 1.377 . S
C669 C667 1.389 . S
C669 C670 1.524 . S
C670 C669 1.524 . S
C670 C671 1.378 1_455 S
C670 C675 1.363 . S
C671 H642 0.952 . S
C671 C670 1.378 1_655 S
C671 C672 1.351 . S
C672 H643 0.950 . S
C672 C671 1.351 . S
C672 C673 1.287 . S
C673 C672 1.287 . S
C673 C674 1.524 1_655 S
C673 H676 0.999 . S
C674 H644 0.950 . S
C674 C673 1.524 1_455 S
C674 C675 1.415 . S
C675 H645 0.950 . S
C675 C670 1.363 . S
C675 C674 1.415 . S
H676 C673 0.999 . S
H677 C658 0.913 . S
H678 C696 0.951 . S
H679 C698 0.951 . S
H680 C700 0.950 . S
H681 C701 0.950 . S
H682 C703 0.950 . S
H683 C706 0.950 . S
H684 C707 0.950 . S
H685 C709 0.950 . S
H686 C710 0.950 . S
H687 C711 0.951 . S
H688 C713 0.951 . S
H689 C715 0.950 . S
H690 C716 0.950 . S
H691 C718 0.950 . S
H692 C721 0.950 . S
H693 C722 0.950 . S
H694 C724 0.950 . S
H695 C725 0.950 . S
C696 H678 0.951 . S
C696 C697 1.366 . S
C696 C698 1.388 . S
C697 C696 1.366 . S
C697 C701 1.385 . S
C698 H679 0.951 . S
C698 C696 1.388 . S
C698 C699 1.366 . S
C699 C698 1.366 . S
C699 C700 1.414 . S
C699 C702 1.499 . S
C700 H680 0.950 . S
C700 C699 1.414 . S
C700 C701 1.374 . S
C701 H681 0.950 . S
C701 C697 1.385 . S
C701 C700 1.374 . S
C702 C699 1.499 . S
C702 C703 1.373 . S
C702 C704 1.389 . S
C703 H682 0.950 . S
C703 C702 1.373 . S
C703 C719 1.377 . S
C704 C702 1.389 . S
C704 C705 1.524 1_545 S
C704 C718 1.377 . S
C705 C704 1.524 1_565 S
C705 C706 1.397 . S
C705 C710 1.363 . S
C706 H683 0.950 . S
C706 C705 1.397 . S
C706 C707 1.334 . S
C707 H684 0.950 . S
C707 C706 1.334 . S
C707 C708 1.287 . S
C708 C707 1.287 . S
C708 C709 1.524 . S
C708 H727 0.913 . S
C709 H685 0.950 . S
C709 C708 1.524 . S
C709 C710 1.415 . S
C710 H686 0.950 . S
C710 C705 1.363 . S
C710 C709 1.415 . S
C711 H687 0.951 . S
C711 C712 1.366 . S
C711 C713 1.388 . S
C712 C711 1.366 . S
C712 C716 1.385 . S
C713 H688 0.951 . S
C713 C711 1.388 . S
C713 C714 1.366 . S
C714 C713 1.366 . S
C714 C715 1.414 . S
C714 C717 1.499 . S
C715 H689 0.950 . S
C715 C714 1.414 . S
C715 C716 1.374 . S
C716 H690 0.950 . S
C716 C712 1.385 . S
C716 C715 1.374 . S
C717 C714 1.499 . S
C717 C718 1.373 . S
C717 C719 1.389 . S
C718 H691 0.950 . S
C718 C704 1.377 . S
C718 C717 1.373 . S
C719 C703 1.377 . S
C719 C717 1.389 . S
C719 C720 1.524 . S
C720 C719 1.524 . S
C720 C721 1.397 . S
C720 C725 1.363 . S
C721 H692 0.950 . S
C721 C720 1.397 . S
C721 C722 1.334 . S
C722 H693 0.950 . S
C722 C721 1.334 . S
C722 C723 1.287 . S
C723 C722 1.287 . S
C723 C724 1.524 . S
C723 H726 0.999 . S
C724 H694 0.950 . S
C724 C723 1.524 . S
C724 C725 1.415 . S
C725 H695 0.950 . S
C725 C720 1.363 . S
C725 C724 1.415 . S
H726 C723 0.999 . S
H727 C708 0.913 . S
H728 C746 0.951 . S
H729 C748 0.951 . S
H730 C750 0.950 . S
H731 C751 0.950 . S
H732 C753 0.950 . S
H733 C756 0.950 . S
H734 C757 0.950 . S
H735 C759 0.950 . S
H736 C760 0.950 1_554 S
H737 C761 0.951 . S
H738 C763 0.951 . S
H739 C765 0.950 . S
H740 C766 0.950 . S
H741 C768 0.950 . S
H742 C771 0.950 . S
H743 C772 0.950 . S
H744 C774 0.950 . S
H745 C775 0.950 1_556 S
C746 H728 0.951 . S
C746 C747 1.366 . S
C746 C748 1.388 . S
C747 C746 1.366 . S
C747 C751 1.385 . S
C748 H729 0.951 . S
C748 C746 1.388 . S
C748 C749 1.366 . S
C749 C748 1.366 . S
C749 C750 1.414 . S
C749 C752 1.499 . S
C750 H730 0.950 . S
C750 C749 1.414 . S
C750 C751 1.374 . S
C751 H731 0.950 . S
C751 C747 1.385 . S
C751 C750 1.374 . S
C752 C749 1.499 . S
C752 C753 1.373 . S
C752 C754 1.389 . S
C753 H732 0.950 . S
C753 C752 1.373 . S
C753 C769 1.377 1_556 S
C754 C752 1.389 . S
C754 C755 1.524 . S
C754 C768 1.377 1_556 S
C755 C754 1.524 . S
C755 C756 1.397 . S
C755 C760 1.363 . S
C756 H733 0.950 . S
C756 C755 1.397 . S
C756 C757 1.334 . S
C757 H734 0.950 . S
C757 C756 1.334 . S
C757 C758 1.287 . S
C758 C757 1.287 . S
C758 C759 1.524 . S
C758 H777 0.913 . S
C759 H735 0.950 . S
C759 C758 1.524 . S
C759 C760 1.415 . S
C760 H736 0.950 1_556 S
C760 C755 1.363 . S
C760 C759 1.415 . S
C761 H737 0.951 . S
C761 C762 1.366 . S
C761 C763 1.388 . S
C762 C761 1.366 . S
C762 C766 1.385 . S
C763 H738 0.951 . S
C763 C761 1.388 . S
C763 C764 1.366 . S
C764 C763 1.366 . S
C764 C765 1.414 . S
C764 C767 1.499 . S
C765 H739 0.950 . S
C765 C764 1.414 . S
C765 C766 1.374 . S
C766 H740 0.950 . S
C766 C762 1.385 . S
C766 C765 1.374 . S
C767 C764 1.499 . S
C767 C768 1.373 . S
C767 C769 1.389 . S
C768 H741 0.950 . S
C768 C754 1.377 1_554 S
C768 C767 1.373 . S
C769 C753 1.377 1_554 S
C769 C767 1.389 . S
C769 C770 1.524 . S
C770 C769 1.524 . S
C770 C771 1.397 . S
C770 C775 1.363 . S
C771 H742 0.950 . S
C771 C770 1.397 . S
C771 C772 1.334 . S
C772 H743 0.950 . S
C772 C771 1.334 . S
C772 C773 1.287 . S
C773 C772 1.287 . S
C773 C774 1.524 . S
C773 H776 0.999 . S
C774 H744 0.950 . S
C774 C773 1.524 . S
C774 C775 1.415 . S
C775 H745 0.950 1_554 S
C775 C770 1.363 . S
C775 C774 1.415 . S
H776 C773 0.999 . S
H777 C758 0.913 . S
H778 C796 0.951 . S
H779 C798 0.951 . S
H780 C800 0.950 . S
H781 C801 0.950 . S
H782 C803 0.950 . S
H783 C806 0.950 . S
H784 C807 0.950 . S
H785 C809 0.950 . S
H786 C810 0.950 . S
H787 C811 0.951 . S
H788 C813 0.951 . S
H789 C815 0.950 . S
H790 C816 0.950 . S
H791 C818 0.950 . S
H792 C821 0.950 . S
H793 C822 0.950 . S
H794 C824 0.950 . S
H795 C825 0.950 . S
C796 H778 0.951 . S
C796 C797 1.366 . S
C796 C798 1.388 . S
C797 C796 1.366 . S
C797 C801 1.385 . S
C798 H779 0.951 . S
C798 C796 1.388 . S
C798 C799 1.366 . S
C799 C798 1.366 . S
C799 C800 1.414 . S
C799 C802 1.499 . S
C800 H780 0.950 . S
C800 C799 1.414 . S
C800 C801 1.374 . S
C801 H781 0.950 . S
C801 C797 1.385 . S
C801 C800 1.374 . S
C802 C799 1.499 . S
C802 C803 1.373 . S
C802 C804 1.389 . S
C803 H782 0.950 . S
C803 C802 1.373 . S
C803 C819 1.377 1_556 S
C804 C802 1.389 . S
C804 C805 1.524 . S
C804 C818 1.377 1_556 S
C805 C804 1.524 . S
C805 C806 1.397 . S
C805 C810 1.363 . S
C806 H783 0.950 . S
C806 C805 1.397 . S
C806 C807 1.334 . S
C807 H784 0.950 . S
C807 C806 1.334 . S
C807 C808 1.287 . S
C808 C807 1.287 . S
C808 C809 1.524 . S
C808 H827 0.913 . S
C809 H785 0.950 . S
C809 C808 1.524 . S
C809 C810 1.415 . S
C810 H786 0.950 . S
C810 C805 1.363 . S
C810 C809 1.415 . S
C811 H787 0.951 . S
C811 C812 1.366 . S
C811 C813 1.388 . S
C812 C811 1.366 . S
C812 C816 1.385 . S
C813 H788 0.951 . S
C813 C811 1.388 . S
C813 C814 1.366 . S
C814 C813 1.366 . S
C814 C815 1.414 . S
C814 C817 1.499 . S
C815 H789 0.950 . S
C815 C814 1.414 . S
C815 C816 1.374 . S
C816 H790 0.950 . S
C816 C812 1.385 . S
C816 C815 1.374 . S
C817 C814 1.499 . S
C817 C818 1.373 . S
C817 C819 1.389 . S
C818 H791 0.950 . S
C818 C804 1.377 1_554 S
C818 C817 1.373 . S
C819 C803 1.377 1_554 S
C819 C817 1.389 . S
C819 C820 1.524 . S
C820 C819 1.524 . S
C820 C821 1.397 . S
C820 C825 1.363 . S
C821 H792 0.950 . S
C821 C820 1.397 . S
C821 C822 1.334 . S
C822 H793 0.950 . S
C822 C821 1.334 . S
C822 C823 1.287 . S
C823 C822 1.287 . S
C823 C824 1.524 . S
C823 H826 0.999 . S
C824 H794 0.950 . S
C824 C823 1.524 . S
C824 C825 1.415 . S
C825 H795 0.950 . S
C825 C820 1.363 . S
C825 C824 1.415 . S
H826 C823 0.999 . S
H827 C808 0.913 . S
H828 C846 0.951 . S
H829 C848 0.951 . S
H830 C850 0.950 . S
H831 C851 0.950 . S
H832 C853 0.950 . S
H833 C856 0.950 . S
H834 C857 0.950 . S
H835 C859 0.950 . S
H836 C860 0.950 . S
H837 C861 0.951 . S
H838 C863 0.951 . S
H839 C865 0.950 . S
H840 C866 0.950 . S
H841 C868 0.950 . S
H842 C871 0.950 . S
H843 C872 0.950 . S
H844 C874 0.950 . S
H845 C875 0.950 . S
C846 H828 0.951 . S
C846 C847 1.366 . S
C846 C848 1.388 . S
C847 C846 1.366 . S
C847 C851 1.385 . S
C848 H829 0.951 . S
C848 C846 1.388 . S
C848 C849 1.366 . S
C849 C848 1.366 . S
C849 C850 1.414 . S
C849 C852 1.499 . S
C850 H830 0.950 . S
C850 C849 1.414 . S
C850 C851 1.374 . S
C851 H831 0.950 . S
C851 C847 1.385 . S
C851 C850 1.374 . S
C852 C849 1.499 . S
C852 C853 1.373 . S
C852 C854 1.389 . S
C853 H832 0.950 . S
C853 C852 1.373 . S
C853 C869 1.377 1_556 S
C854 C852 1.389 . S
C854 C855 1.524 . S
C854 C868 1.377 1_556 S
C855 C854 1.524 . S
C855 C856 1.397 . S
C855 C860 1.363 . S
C856 H833 0.950 . S
C856 C855 1.397 . S
C856 C857 1.334 . S
C857 H834 0.950 . S
C857 C856 1.334 . S
C857 C858 1.287 . S
C858 C857 1.287 . S
C858 C859 1.524 . S
C858 H877 0.913 . S
C859 H835 0.950 . S
C859 C858 1.524 . S
C859 C860 1.415 . S
C860 H836 0.950 . S
C860 C855 1.363 . S
C860 C859 1.415 . S
C861 H837 0.951 . S
C861 C862 1.366 . S
C861 C863 1.388 . S
C862 C861 1.366 . S
C862 C866 1.385 . S
C863 H838 0.951 . S
C863 C861 1.388 . S
C863 C864 1.366 . S
C864 C863 1.366 . S
C864 C865 1.414 . S
C864 C867 1.499 . S
C865 H839 0.950 . S
C865 C864 1.414 . S
C865 C866 1.374 . S
C866 H840 0.950 . S
C866 C862 1.385 . S
C866 C865 1.374 . S
C867 C864 1.499 . S
C867 C868 1.373 . S
C867 C869 1.389 . S
C868 H841 0.950 . S
C868 C854 1.377 1_554 S
C868 C867 1.373 . S
C869 C853 1.377 1_554 S
C869 C867 1.389 . S
C869 C870 1.524 . S
C870 C869 1.524 . S
C870 C871 1.397 . S
C870 C875 1.363 . S
C871 H842 0.950 . S
C871 C870 1.397 . S
C871 C872 1.334 . S
C872 H843 0.950 . S
C872 C871 1.334 . S
C872 C873 1.287 . S
C873 C872 1.287 . S
C873 C874 1.524 . S
C873 H876 0.999 . S
C874 H844 0.950 . S
C874 C873 1.524 . S
C874 C875 1.415 . S
C875 H845 0.950 . S
C875 C870 1.363 . S
C875 C874 1.415 . S
H876 C873 0.999 . S
H877 C858 0.913 . S
H878 C896 0.951 . S
H879 C898 0.951 . S
H880 C900 0.950 . S
H881 C901 0.950 . S
H882 C903 0.950 . S
H883 C906 0.950 . S
H884 C907 0.950 . S
H885 C909 0.950 . S
H886 C910 0.950 . S
H887 C911 0.951 . S
H888 C913 0.951 . S
H889 C915 0.950 . S
H890 C916 0.950 . S
H891 C918 0.950 . S
H892 C921 0.950 . S
H893 C922 0.950 . S
H894 C924 0.950 . S
H895 C925 0.950 . S
C896 H878 0.951 . S
C896 C897 1.366 . S
C896 C898 1.388 . S
C897 C896 1.366 . S
C897 C901 1.385 . S
C898 H879 0.951 . S
C898 C896 1.388 . S
C898 C899 1.366 . S
C899 C898 1.366 . S
C899 C900 1.414 . S
C899 C902 1.499 . S
C900 H880 0.950 . S
C900 C899 1.414 . S
C900 C901 1.374 . S
C901 H881 0.950 . S
C901 C897 1.385 . S
C901 C900 1.374 . S
C902 C899 1.499 . S
C902 C903 1.373 . S
C902 C904 1.389 . S
C903 H882 0.950 . S
C903 C902 1.373 . S
C903 C919 1.377 1_554 S
C904 C902 1.389 . S
C904 C905 1.524 . S
C904 C918 1.377 1_554 S
C905 C904 1.524 . S
C905 C906 1.397 . S
C905 C910 1.363 . S
C906 H883 0.950 . S
C906 C905 1.397 . S
C906 C907 1.334 . S
C907 H884 0.950 . S
C907 C906 1.334 . S
C907 C908 1.287 . S
C908 C907 1.287 . S
C908 C909 1.524 . S
C908 H927 0.913 . S
C909 H885 0.950 . S
C909 C908 1.524 . S
C909 C910 1.415 . S
C910 H886 0.950 . S
C910 C905 1.363 . S
C910 C909 1.415 . S
C911 H887 0.951 . S
C911 C912 1.366 . S
C911 C913 1.388 . S
C912 C911 1.366 . S
C912 C916 1.385 . S
C913 H888 0.951 . S
C913 C911 1.388 . S
C913 C914 1.366 . S
C914 C913 1.366 . S
C914 C915 1.414 . S
C914 C917 1.499 . S
C915 H889 0.950 . S
C915 C914 1.414 . S
C915 C916 1.374 . S
C916 H890 0.950 . S
C916 C912 1.385 . S
C916 C915 1.374 . S
C917 C914 1.499 . S
C917 C918 1.373 . S
C917 C919 1.389 . S
C918 H891 0.950 . S
C918 C904 1.377 1_556 S
C918 C917 1.373 . S
C919 C903 1.377 1_556 S
C919 C917 1.389 . S
C919 C920 1.524 . S
C920 C919 1.524 . S
C920 C921 1.397 . S
C920 C925 1.363 . S
C921 H892 0.950 . S
C921 C920 1.397 . S
C921 C922 1.334 . S
C922 H893 0.950 . S
C922 C921 1.334 . S
C922 C923 1.287 . S
C923 C922 1.287 . S
C923 C924 1.524 . S
C923 H926 0.999 . S
C924 H894 0.950 . S
C924 C923 1.524 . S
C924 C925 1.415 . S
C925 H895 0.950 . S
C925 C920 1.363 . S
C925 C924 1.415 . S
H926 C923 0.999 . S
H927 C908 0.913 . S
H928 C946 0.951 . S
H929 C948 0.951 . S
H930 C950 0.950 . S
H931 C951 0.950 . S
H932 C953 0.950 . S
H933 C956 0.950 . S
H934 C957 0.950 . S
H935 C959 0.950 . S
H936 C960 0.950 . S
H937 C961 0.951 . S
H938 C963 0.951 . S
H939 C965 0.950 . S
H940 C966 0.950 . S
H941 C968 0.950 . S
H942 C971 0.950 . S
H943 C972 0.950 . S
H944 C974 0.950 . S
H945 C975 0.950 . S
C946 H928 0.951 . S
C946 C947 1.366 . S
C946 C948 1.388 . S
C947 C946 1.366 . S
C947 C951 1.385 . S
C948 H929 0.951 . S
C948 C946 1.388 . S
C948 C949 1.366 . S
C949 C948 1.366 . S
C949 C950 1.414 . S
C949 C952 1.499 . S
C950 H930 0.950 . S
C950 C949 1.414 . S
C950 C951 1.374 . S
C951 H931 0.950 . S
C951 C947 1.385 . S
C951 C950 1.374 . S
C952 C949 1.499 . S
C952 C953 1.373 . S
C952 C954 1.389 . S
C953 H932 0.950 . S
C953 C952 1.373 . S
C953 C969 1.377 . S
C954 C952 1.389 . S
C954 C955 1.524 . S
C954 C968 1.377 . S
C955 C954 1.524 . S
C955 C956 1.397 . S
C955 C960 1.363 . S
C956 H933 0.950 . S
C956 C955 1.397 . S
C956 C957 1.334 . S
C957 H934 0.950 . S
C957 C956 1.334 . S
C957 C958 1.287 . S
C958 C957 1.287 . S
C958 C959 1.524 . S
C958 H977 0.913 . S
C959 H935 0.950 . S
C959 C958 1.524 . S
C959 C960 1.415 . S
C960 H936 0.950 . S
C960 C955 1.363 . S
C960 C959 1.415 . S
C961 H937 0.951 . S
C961 C962 1.366 . S
C961 C963 1.388 . S
C962 C961 1.366 . S
C962 C966 1.385 . S
C963 H938 0.951 . S
C963 C961 1.388 . S
C963 C964 1.366 . S
C964 C963 1.366 . S
C964 C965 1.414 . S
C964 C967 1.499 . S
C965 H939 0.950 . S
C965 C964 1.414 . S
C965 C966 1.374 . S
C966 H940 0.950 . S
C966 C962 1.385 . S
C966 C965 1.374 . S
C967 C964 1.499 . S
C967 C968 1.373 . S
C967 C969 1.389 . S
C968 H941 0.950 . S
C968 C954 1.377 . S
C968 C967 1.373 . S
C969 C953 1.377 . S
C969 C967 1.389 . S
C969 C970 1.524 . S
C970 C969 1.524 . S
C970 C971 1.397 . S
C970 C975 1.363 . S
C971 H942 0.950 . S
C971 C970 1.397 . S
C971 C972 1.334 . S
C972 H943 0.950 . S
C972 C971 1.334 . S
C972 C973 1.287 . S
C973 C972 1.287 . S
C973 C974 1.524 . S
C973 H976 0.999 . S
C974 H944 0.950 . S
C974 C973 1.524 . S
C974 C975 1.415 . S
C975 H945 0.950 . S
C975 C970 1.363 . S
C975 C974 1.415 . S
H976 C973 0.999 . S
H977 C958 0.913 . S
H978 C996 0.951 . S
H979 C998 0.951 . S
H980 C1000 0.950 . S
H981 C1001 0.950 . S
H982 C1003 0.950 . S
H983 C1006 0.950 . S
H984 C1007 0.950 . S
H985 C1009 0.950 . S
H986 C1010 0.950 . S
H987 C1011 0.951 . S
H988 C1013 0.951 . S
H989 C1015 0.950 . S
H990 C1016 0.950 . S
H991 C1018 0.950 . S
H992 C1021 0.950 . S
H993 C1022 0.950 . S
H994 C1024 0.950 . S
H995 C1025 0.950 . S
C996 H978 0.951 . S
C996 C997 1.366 . S
C996 C998 1.388 . S
C997 C996 1.366 . S
C997 C1001 1.385 . S
C998 H979 0.951 . S
C998 C996 1.388 . S
C998 C999 1.366 . S
C999 C998 1.366 . S
C999 C1000 1.414 . S
C999 C1002 1.499 . S
C1000 H980 0.950 . S
C1000 C999 1.414 . S
C1000 C1001 1.374 . S
C1001 H981 0.950 . S
C1001 C997 1.385 . S
C1001 C1000 1.374 . S
C1002 C999 1.499 . S
C1002 C1003 1.373 . S
C1002 C1004 1.389 . S
C1003 H982 0.950 . S
C1003 C1002 1.373 . S
C1003 C1019 1.377 . S
C1004 C1002 1.389 . S
C1004 C1005 1.524 . S
C1004 C1018 1.377 . S
C1005 C1004 1.524 . S
C1005 C1006 1.397 . S
C1005 C1010 1.363 . S
C1006 H983 0.950 . S
C1006 C1005 1.397 . S
C1006 C1007 1.334 . S
C1007 H984 0.950 . S
C1007 C1006 1.334 . S
C1007 C1008 1.287 . S
C1008 C1007 1.287 . S
C1008 C1009 1.524 . S
C1008 H1027 0.913 . S
C1009 H985 0.950 . S
C1009 C1008 1.524 . S
C1009 C1010 1.415 . S
C1010 H986 0.950 . S
C1010 C1005 1.363 . S
C1010 C1009 1.415 . S
C1011 H987 0.951 . S
C1011 C1012 1.366 . S
C1011 C1013 1.388 . S
C1012 C1011 1.366 . S
C1012 C1016 1.385 . S
C1013 H988 0.951 . S
C1013 C1011 1.388 . S
C1013 C1014 1.366 . S
C1014 C1013 1.366 . S
C1014 C1015 1.414 . S
C1014 C1017 1.499 . S
C1015 H989 0.950 . S
C1015 C1014 1.414 . S
C1015 C1016 1.374 . S
C1016 H990 0.950 . S
C1016 C1012 1.385 . S
C1016 C1015 1.374 . S
C1017 C1014 1.499 . S
C1017 C1018 1.373 . S
C1017 C1019 1.389 . S
C1018 H991 0.950 . S
C1018 C1004 1.377 . S
C1018 C1017 1.373 . S
C1019 C1003 1.377 . S
C1019 C1017 1.389 . S
C1019 C1020 1.524 . S
C1020 C1019 1.524 . S
C1020 C1021 1.397 . S
C1020 C1025 1.363 . S
C1021 H992 0.950 . S
C1021 C1020 1.397 . S
C1021 C1022 1.334 . S
C1022 H993 0.950 . S
C1022 C1021 1.334 . S
C1022 C1023 1.287 . S
C1023 C1022 1.287 . S
C1023 C1024 1.524 . S
C1023 H1026 0.999 . S
C1024 H994 0.950 . S
C1024 C1023 1.524 . S
C1024 C1025 1.415 . S
C1025 H995 0.950 . S
C1025 C1020 1.363 . S
C1025 C1024 1.415 . S
H1026 C1023 0.999 . S
H1027 C1008 0.913 . S
H1028 C1046 0.951 . S
H1029 C1048 0.951 . S
H1030 C1050 0.950 . S
H1031 C1051 0.950 . S
H1032 C1053 0.950 . S
H1033 C1056 0.950 . S
H1034 C1057 0.950 . S
H1035 C1059 0.950 . S
H1036 C1060 0.950 . S
H1037 C1061 0.951 . S
H1038 C1063 0.951 . S
H1039 C1065 0.950 . S
H1040 C1066 0.950 1_455 S
H1041 C1068 0.950 . S
H1042 C1071 0.950 . S
H1043 C1072 0.950 . S
H1044 C1074 0.953 . S
H1045 C1075 0.950 . S
C1046 H1028 0.951 . S
C1046 C1047 1.366 . S
C1046 C1048 1.388 . S
C1047 C1046 1.366 . S
C1047 C1051 1.385 . S
C1048 H1029 0.951 . S
C1048 C1046 1.388 . S
C1048 C1049 1.366 . S
C1049 C1048 1.366 . S
C1049 C1050 1.414 . S
C1049 C1052 1.499 . S
C1050 H1030 0.950 . S
C1050 C1049 1.414 . S
C1050 C1051 1.374 . S
C1051 H1031 0.950 . S
C1051 C1047 1.385 . S
C1051 C1050 1.374 . S
C1052 C1049 1.499 . S
C1052 C1053 1.373 . S
C1052 C1054 1.389 . S
C1053 H1032 0.950 . S
C1053 C1052 1.373 . S
C1053 C1069 1.377 . S
C1054 C1052 1.389 . S
C1054 C1055 1.524 . S
C1054 C1068 1.377 . S
C1055 C1054 1.524 . S
C1055 C1056 1.397 . S
C1055 C1060 1.363 . S
C1056 H1033 0.950 . S
C1056 C1055 1.397 . S
C1056 C1057 1.334 . S
C1057 H1034 0.950 . S
C1057 C1056 1.334 . S
C1057 C1058 1.287 . S
C1058 C1057 1.287 . S
C1058 C1059 1.524 . S
C1058 H1077 0.913 . S
C1059 H1035 0.950 . S
C1059 C1058 1.524 . S
C1059 C1060 1.415 . S
C1060 H1036 0.950 . S
C1060 C1055 1.363 . S
C1060 C1059 1.415 . S
C1061 H1037 0.951 . S
C1061 C1062 1.366 . S
C1061 C1063 1.388 1_455 S
C1062 C1061 1.366 . S
C1062 C1066 1.385 1_455 S
C1063 H1038 0.951 . S
C1063 C1061 1.388 1_655 S
C1063 C1064 1.366 . S
C1064 C1063 1.366 . S
C1064 C1065 1.414 . S
C1064 C1067 1.499 . S
C1065 H1039 0.950 . S
C1065 C1064 1.414 . S
C1065 C1066 1.374 . S
C1066 H1040 0.950 1_655 S
C1066 C1062 1.385 1_655 S
C1066 C1065 1.374 . S
C1067 C1064 1.499 . S
C1067 C1068 1.373 . S
C1067 C1069 1.389 . S
C1068 H1041 0.950 . S
C1068 C1054 1.377 . S
C1068 C1067 1.373 . S
C1069 C1053 1.377 . S
C1069 C1067 1.389 . S
C1069 C1070 1.524 . S
C1070 C1069 1.524 . S
C1070 C1071 1.397 . S
C1070 C1075 1.363 . S
C1071 H1042 0.950 . S
C1071 C1070 1.397 . S
C1071 C1072 1.334 1_655 S
C1072 H1043 0.950 . S
C1072 C1071 1.334 1_455 S
C1072 C1073 1.287 . S
C1073 C1072 1.287 . S
C1073 C1074 1.539 . S
C1073 H1076 0.999 . S
C1074 H1044 0.953 . S
C1074 C1073 1.539 . S
C1074 C1075 1.396 1_455 S
C1075 H1045 0.950 . S
C1075 C1070 1.363 . S
C1075 C1074 1.396 1_655 S
H1076 C1073 0.999 . S
H1077 C1058 0.913 . S
H1078 C1096 0.951 . S
H1079 C1098 0.951 . S
H1080 C1100 0.950 . S
H1081 C1101 0.950 . S
H1082 C1103 0.950 . S
H1083 C1106 0.950 . S
H1084 C1107 0.950 . S
H1085 C1109 0.950 . S
H1086 C1110 0.950 . S
H1087 C1111 0.951 . S
H1088 C1113 0.951 . S
H1089 C1115 0.950 . S
H1090 C1116 0.950 . S
H1091 C1118 0.950 . S
H1092 C1121 0.950 . S
H1093 C1122 0.950 . S
H1094 C1124 0.950 . S
H1095 C1125 0.950 . S
C1096 H1078 0.951 . S
C1096 C1097 1.366 . S
C1096 C1098 1.388 1_545 S
C1097 C1096 1.366 . S
C1097 C1101 1.385 1_545 S
C1098 H1079 0.951 . S
C1098 C1096 1.388 1_565 S
C1098 C1099 1.366 . S
C1099 C1098 1.366 . S
C1099 C1100 1.414 . S
C1099 C1102 1.499 . S
C1100 H1080 0.950 . S
C1100 C1099 1.414 . S
C1100 C1101 1.374 . S
C1101 H1081 0.950 . S
C1101 C1097 1.385 1_565 S
C1101 C1100 1.374 . S
C1102 C1099 1.499 . S
C1102 C1103 1.373 . S
C1102 C1104 1.389 . S
C1103 H1082 0.950 . S
C1103 C1102 1.373 . S
C1103 C1119 1.377 . S
C1104 C1102 1.389 . S
C1104 C1105 1.524 . S
C1104 C1118 1.377 . S
C1105 C1104 1.524 . S
C1105 C1106 1.397 . S
C1105 C1110 1.363 . S
C1106 H1083 0.950 . S
C1106 C1105 1.397 . S
C1106 C1107 1.334 . S
C1107 H1084 0.950 . S
C1107 C1106 1.334 . S
C1107 C1108 1.287 . S
C1108 C1107 1.287 . S
C1108 C1109 1.524 . S
C1108 H1127 0.913 . S
C1109 H1085 0.950 . S
C1109 C1108 1.524 . S
C1109 C1110 1.415 . S
C1110 H1086 0.950 . S
C1110 C1105 1.363 . S
C1110 C1109 1.415 . S
C1111 H1087 0.951 . S
C1111 C1112 1.366 . S
C1111 C1113 1.388 . S
C1112 C1111 1.366 . S
C1112 C1116 1.385 . S
C1113 H1088 0.951 . S
C1113 C1111 1.388 . S
C1113 C1114 1.366 . S
C1114 C1113 1.366 . S
C1114 C1115 1.414 . S
C1114 C1117 1.499 . S
C1115 H1089 0.950 . S
C1115 C1114 1.414 . S
C1115 C1116 1.374 . S
C1116 H1090 0.950 . S
C1116 C1112 1.385 . S
C1116 C1115 1.374 . S
C1117 C1114 1.499 . S
C1117 C1118 1.373 . S
C1117 C1119 1.389 . S
C1118 H1091 0.950 . S
C1118 C1104 1.377 . S
C1118 C1117 1.373 . S
C1119 C1103 1.377 . S
C1119 C1117 1.389 . S
C1119 C1120 1.524 . S
C1120 C1119 1.524 . S
C1120 C1121 1.397 . S
C1120 C1125 1.363 . S
C1121 H1092 0.950 . S
C1121 C1120 1.397 . S
C1121 C1122 1.334 . S
C1122 H1093 0.950 . S
C1122 C1121 1.334 . S
C1122 C1123 1.287 . S
C1123 C1122 1.287 . S
C1123 C1124 1.524 . S
C1123 H1126 0.999 . S
C1124 H1094 0.950 . S
C1124 C1123 1.524 . S
C1124 C1125 1.415 . S
C1125 H1095 0.950 . S
C1125 C1120 1.363 . S
C1125 C1124 1.415 . S
H1126 C1123 0.999 . S
H1127 C1108 0.913 . S
H1128 C1146 0.951 . S
H1129 C1148 0.951 . S
H1130 C1150 0.950 . S
H1131 C1151 0.950 . S
H1132 C1153 0.950 . S
H1133 C1156 0.950 . S
H1134 C1157 0.950 . S
H1135 C1159 0.950 . S
H1136 C1160 0.950 . S
H1137 C1161 0.951 . S
H1138 C1163 0.951 . S
H1139 C1165 0.950 . S
H1140 C1166 0.950 . S
H1141 C1168 0.950 . S
H1142 C1171 0.950 . S
H1143 C1172 0.950 . S
H1144 C1174 0.950 . S
H1145 C1175 0.950 . S
C1146 H1128 0.951 . S
C1146 C1147 1.366 . S
C1146 C1148 1.388 . S
C1147 C1146 1.366 . S
C1147 C1151 1.385 . S
C1148 H1129 0.951 . S
C1148 C1146 1.388 . S
C1148 C1149 1.366 . S
C1149 C1148 1.366 . S
C1149 C1150 1.414 . S
C1149 C1152 1.499 . S
C1150 H1130 0.950 . S
C1150 C1149 1.414 . S
C1150 C1151 1.374 . S
C1151 H1131 0.950 . S
C1151 C1147 1.385 . S
C1151 C1150 1.374 . S
C1152 C1149 1.499 . S
C1152 C1153 1.373 . S
C1152 C1154 1.389 . S
C1153 H1132 0.950 . S
C1153 C1152 1.373 . S
C1153 C1169 1.377 . S
C1154 C1152 1.389 . S
C1154 C1155 1.524 . S
C1154 C1168 1.377 . S
C1155 C1154 1.524 . S
C1155 C1156 1.397 . S
C1155 C1160 1.363 . S
C1156 H1133 0.950 . S
C1156 C1155 1.397 . S
C1156 C1157 1.334 . S
C1157 H1134 0.950 . S
C1157 C1156 1.334 . S
C1157 C1158 1.287 . S
C1158 C1157 1.287 . S
C1158 C1159 1.524 . S
C1158 H1177 0.913 . S
C1159 H1135 0.950 . S
C1159 C1158 1.524 . S
C1159 C1160 1.415 . S
C1160 H1136 0.950 . S
C1160 C1155 1.363 . S
C1160 C1159 1.415 . S
C1161 H1137 0.951 . S
C1161 C1162 1.366 . S
C1161 C1163 1.388 . S
C1162 C1161 1.366 . S
C1162 C1166 1.385 . S
C1163 H1138 0.951 . S
C1163 C1161 1.388 . S
C1163 C1164 1.366 . S
C1164 C1163 1.366 . S
C1164 C1165 1.414 . S
C1164 C1167 1.499 . S
C1165 H1139 0.950 . S
C1165 C1164 1.414 . S
C1165 C1166 1.374 . S
C1166 H1140 0.950 . S
C1166 C1162 1.385 . S
C1166 C1165 1.374 . S
C1167 C1164 1.499 . S
C1167 C1168 1.373 . S
C1167 C1169 1.389 . S
C1168 H1141 0.950 . S
C1168 C1154 1.377 . S
C1168 C1167 1.373 . S
C1169 C1153 1.377 . S
C1169 C1167 1.389 . S
C1169 C1170 1.524 . S
C1170 C1169 1.524 . S
C1170 C1171 1.397 . S
C1170 C1175 1.363 . S
C1171 H1142 0.950 . S
C1171 C1170 1.397 . S
C1171 C1172 1.334 . S
C1172 H1143 0.950 . S
C1172 C1171 1.334 . S
C1172 C1173 1.287 . S
C1173 C1172 1.287 . S
C1173 C1174 1.524 . S
C1173 H1176 0.999 . S
C1174 H1144 0.950 . S
C1174 C1173 1.524 . S
C1174 C1175 1.415 . S
C1175 H1145 0.950 . S
C1175 C1170 1.363 . S
C1175 C1174 1.415 . S
H1176 C1173 0.999 . S
H1177 C1158 0.913 . S
H1178 C1196 0.951 . S
H1179 C1198 0.951 . S
H1180 C1200 0.950 . S
H1181 C1201 0.950 . S
H1182 C1203 0.950 . S
H1183 C1206 0.950 . S
H1184 C1207 0.950 . S
H1185 C1209 0.950 . S
H1186 C1210 0.950 . S
H1187 C1211 0.951 . S
H1188 C1213 0.951 . S
H1189 C1215 0.950 . S
H1190 C1216 0.950 . S
H1191 C1218 0.950 . S
H1192 C1221 0.950 . S
H1193 C1222 0.950 . S
H1194 C1224 0.950 . S
H1195 C1225 0.950 . S
C1196 H1178 0.951 . S
C1196 C1197 1.366 . S
C1196 C1198 1.388 . S
C1197 C1196 1.366 . S
C1197 C1201 1.385 . S
C1198 H1179 0.951 . S
C1198 C1196 1.388 . S
C1198 C1199 1.366 . S
C1199 C1198 1.366 . S
C1199 C1200 1.414 . S
C1199 C1202 1.499 . S
C1200 H1180 0.950 . S
C1200 C1199 1.414 . S
C1200 C1201 1.374 . S
C1201 H1181 0.950 . S
C1201 C1197 1.385 . S
C1201 C1200 1.374 . S
C1202 C1199 1.499 . S
C1202 C1203 1.373 . S
C1202 C1204 1.389 . S
C1203 H1182 0.950 . S
C1203 C1202 1.373 . S
C1203 C1219 1.377 . S
C1204 C1202 1.389 . S
C1204 C1205 1.524 . S
C1204 C1218 1.377 . S
C1205 C1204 1.524 . S
C1205 C1206 1.397 . S
C1205 C1210 1.363 . S
C1206 H1183 0.950 . S
C1206 C1205 1.397 . S
C1206 C1207 1.334 . S
C1207 H1184 0.950 . S
C1207 C1206 1.334 . S
C1207 C1208 1.287 . S
C1208 C1207 1.287 . S
C1208 C1209 1.524 . S
C1208 H1227 0.913 . S
C1209 H1185 0.950 . S
C1209 C1208 1.524 . S
C1209 C1210 1.415 . S
C1210 H1186 0.950 . S
C1210 C1205 1.363 . S
C1210 C1209 1.415 . S
C1211 H1187 0.951 . S
C1211 C1212 1.366 . S
C1211 C1213 1.388 . S
C1212 C1211 1.366 . S
C1212 C1216 1.385 . S
C1213 H1188 0.951 . S
C1213 C1211 1.388 . S
C1213 C1214 1.366 . S
C1214 C1213 1.366 . S
C1214 C1215 1.414 . S
C1214 C1217 1.499 . S
C1215 H1189 0.950 . S
C1215 C1214 1.414 . S
C1215 C1216 1.374 . S
C1216 H1190 0.950 . S
C1216 C1212 1.385 . S
C1216 C1215 1.374 . S
C1217 C1214 1.499 . S
C1217 C1218 1.373 . S
C1217 C1219 1.389 . S
C1218 H1191 0.950 . S
C1218 C1204 1.377 . S
C1218 C1217 1.373 . S
C1219 C1203 1.377 . S
C1219 C1217 1.389 . S
C1219 C1220 1.524 . S
C1220 C1219 1.524 . S
C1220 C1221 1.397 . S
C1220 C1225 1.363 . S
C1221 H1192 0.950 . S
C1221 C1220 1.397 . S
C1221 C1222 1.334 . S
C1222 H1193 0.950 . S
C1222 C1221 1.334 . S
C1222 C1223 1.287 . S
C1223 C1222 1.287 . S
C1223 C1224 1.524 . S
C1223 H1226 0.999 . S
C1224 H1194 0.950 . S
C1224 C1223 1.524 . S
C1224 C1225 1.415 . S
C1225 H1195 0.950 . S
C1225 C1220 1.363 . S
C1225 C1224 1.415 . S
H1226 C1223 0.999 . S
H1227 C1208 0.913 . S
H1228 C1246 0.951 . S
H1229 C1248 0.951 . S
H1230 C1250 0.950 . S
H1231 C1251 0.950 . S
H1232 C1253 0.950 . S
H1233 C1256 0.950 . S
H1234 C1257 0.950 . S
H1235 C1259 0.950 . S
H1236 C1260 0.950 . S
H1237 C1261 0.951 . S
H1238 C1263 0.951 . S
H1239 C1265 0.950 . S
H1240 C1266 0.950 . S
H1241 C1268 0.950 . S
H1242 C1271 0.950 . S
H1243 C1272 0.950 . S
H1244 C1274 0.950 . S
H1245 C1275 0.950 . S
C1246 H1228 0.951 . S
C1246 C1247 1.366 . S
C1246 C1248 1.388 . S
C1247 C1246 1.366 . S
C1247 C1251 1.385 . S
C1248 H1229 0.951 . S
C1248 C1246 1.388 . S
C1248 C1249 1.366 . S
C1249 C1248 1.366 . S
C1249 C1250 1.414 . S
C1249 C1252 1.499 . S
C1250 H1230 0.950 . S
C1250 C1249 1.414 . S
C1250 C1251 1.374 . S
C1251 H1231 0.950 . S
C1251 C1247 1.385 . S
C1251 C1250 1.374 . S
C1252 C1249 1.499 . S
C1252 C1253 1.373 . S
C1252 C1254 1.389 . S
C1253 H1232 0.950 . S
C1253 C1252 1.373 . S
C1253 C1269 1.377 . S
C1254 C1252 1.389 . S
C1254 C1255 1.524 . S
C1254 C1268 1.377 . S
C1255 C1254 1.524 . S
C1255 C1256 1.397 . S
C1255 C1260 1.363 . S
C1256 H1233 0.950 . S
C1256 C1255 1.397 . S
C1256 C1257 1.334 . S
C1257 H1234 0.950 . S
C1257 C1256 1.334 . S
C1257 C1258 1.287 . S
C1258 C1257 1.287 . S
C1258 C1259 1.524 . S
C1258 H1277 0.913 . S
C1259 H1235 0.950 . S
C1259 C1258 1.524 . S
C1259 C1260 1.415 . S
C1260 H1236 0.950 . S
C1260 C1255 1.363 . S
C1260 C1259 1.415 . S
C1261 H1237 0.951 . S
C1261 C1262 1.366 . S
C1261 C1263 1.388 1_455 S
C1262 C1261 1.366 . S
C1262 C1266 1.385 1_455 S
C1263 H1238 0.951 . S
C1263 C1261 1.388 1_655 S
C1263 C1264 1.366 . S
C1264 C1263 1.366 . S
C1264 C1265 1.414 . S
C1264 C1267 1.499 . S
C1265 H1239 0.950 . S
C1265 C1264 1.414 . S
C1265 C1266 1.374 . S
C1266 H1240 0.950 . S
C1266 C1262 1.385 1_655 S
C1266 C1265 1.374 . S
C1267 C1264 1.499 . S
C1267 C1268 1.373 . S
C1267 C1269 1.389 . S
C1268 H1241 0.950 . S
C1268 C1254 1.377 . S
C1268 C1267 1.373 . S
C1269 C1253 1.377 . S
C1269 C1267 1.389 . S
C1269 C1270 1.524 . S
C1270 C1269 1.524 . S
C1270 C1271 1.397 . S
C1270 C1275 1.363 . S
C1271 H1242 0.950 . S
C1271 C1270 1.397 . S
C1271 C1272 1.334 . S
C1272 H1243 0.950 . S
C1272 C1271 1.334 . S
C1272 C1273 1.287 . S
C1273 C1272 1.287 . S
C1273 C1274 1.524 . S
C1273 H1276 0.999 . S
C1274 H1244 0.950 . S
C1274 C1273 1.524 . S
C1274 C1275 1.415 . S
C1275 H1245 0.950 . S
C1275 C1270 1.363 . S
C1275 C1274 1.415 . S
H1276 C1273 0.999 . S
H1277 C1258 0.913 . S
H1278 C1296 0.951 . S
H1279 C1298 0.951 . S
H1280 C1300 0.950 . S
H1281 C1301 0.950 . S
H1282 C1303 0.950 . S
H1283 C1306 0.950 . S
H1284 C1307 0.950 . S
H1285 C1309 0.950 . S
H1286 C1310 0.950 . S
H1287 C1311 0.951 1_545 S
H1288 C1313 0.951 . S
H1289 C1315 0.950 . S
H1290 C1316 0.950 . S
H1291 C1318 0.950 . S
H1292 C1321 0.950 . S
H1293 C1322 0.950 . S
H1294 C1324 0.950 . S
H1295 C1325 0.950 . S
C1296 H1278 0.951 . S
C1296 C1297 1.366 . S
C1296 C1298 1.388 . S
C1297 C1296 1.366 . S
C1297 C1301 1.385 . S
C1298 H1279 0.951 . S
C1298 C1296 1.388 . S
C1298 C1299 1.366 . S
C1299 C1298 1.366 . S
C1299 C1300 1.414 . S
C1299 C1302 1.499 . S
C1300 H1280 0.950 . S
C1300 C1299 1.414 . S
C1300 C1301 1.374 . S
C1301 H1281 0.950 . S
C1301 C1297 1.385 . S
C1301 C1300 1.374 . S
C1302 C1299 1.499 . S
C1302 C1303 1.373 . S
C1302 C1304 1.389 . S
C1303 H1282 0.950 . S
C1303 C1302 1.373 . S
C1303 C1319 1.377 . S
C1304 C1302 1.389 . S
C1304 C1305 1.524 . S
C1304 C1318 1.377 . S
C1305 C1304 1.524 . S
C1305 C1306 1.397 . S
C1305 C1310 1.363 . S
C1306 H1283 0.950 . S
C1306 C1305 1.397 . S
C1306 C1307 1.334 . S
C1307 H1284 0.950 . S
C1307 C1306 1.334 . S
C1307 C1308 1.287 . S
C1308 C1307 1.287 . S
C1308 C1309 1.524 . S
C1308 H1327 0.913 . S
C1309 H1285 0.950 . S
C1309 C1308 1.524 . S
C1309 C1310 1.415 . S
C1310 H1286 0.950 . S
C1310 C1305 1.363 . S
C1310 C1309 1.415 . S
C1311 H1287 0.951 1_565 S
C1311 C1312 1.366 1_565 S
C1311 C1313 1.388 . S
C1312 C1311 1.366 1_545 S
C1312 C1316 1.385 . S
C1313 H1288 0.951 . S
C1313 C1311 1.388 . S
C1313 C1314 1.366 . S
C1314 C1313 1.366 . S
C1314 C1315 1.414 . S
C1314 C1317 1.499 . S
C1315 H1289 0.950 . S
C1315 C1314 1.414 . S
C1315 C1316 1.374 1_565 S
C1316 H1290 0.950 . S
C1316 C1312 1.385 . S
C1316 C1315 1.374 1_545 S
C1317 C1314 1.499 . S
C1317 C1318 1.373 . S
C1317 C1319 1.389 . S
C1318 H1291 0.950 . S
C1318 C1304 1.377 . S
C1318 C1317 1.373 . S
C1319 C1303 1.377 . S
C1319 C1317 1.389 . S
C1319 C1320 1.524 . S
C1320 C1319 1.524 . S
C1320 C1321 1.397 . S
C1320 C1325 1.363 . S
C1321 H1292 0.950 . S
C1321 C1320 1.397 . S
C1321 C1322 1.334 1_565 S
C1322 H1293 0.950 . S
C1322 C1321 1.334 1_545 S
C1322 C1323 1.287 . S
C1323 C1322 1.287 . S
C1323 C1324 1.524 1_545 S
C1323 H1326 0.999 . S
C1324 H1294 0.950 . S
C1324 C1323 1.524 1_565 S
C1324 C1325 1.415 . S
C1325 H1295 0.950 . S
C1325 C1320 1.363 . S
C1325 C1324 1.415 . S
H1326 C1323 0.999 . S
H1327 C1308 0.913 . S
H1328 C1346 0.951 . S
H1329 C1348 0.951 . S
H1330 C1350 0.950 . S
H1331 C1351 0.950 . S
H1332 C1353 0.950 . S
H1333 C1356 0.950 . S
H1334 C1357 0.950 . S
H1335 C1359 0.950 . S
H1336 C1360 0.950 . S
H1337 C1361 0.951 . S
H1338 C1363 0.951 . S
H1339 C1365 0.950 . S
H1340 C1366 0.950 . S
H1341 C1368 0.950 . S
H1342 C1371 0.950 . S
H1343 C1372 0.950 . S
H1344 C1374 0.950 . S
H1345 C1375 0.950 . S
C1346 H1328 0.951 . S
C1346 C1347 1.366 . S
C1346 C1348 1.388 . S
C1347 C1346 1.366 . S
C1347 C1351 1.385 . S
C1348 H1329 0.951 . S
C1348 C1346 1.388 . S
C1348 C1349 1.366 . S
C1349 C1348 1.366 . S
C1349 C1350 1.414 . S
C1349 C1352 1.499 . S
C1350 H1330 0.950 . S
C1350 C1349 1.414 . S
C1350 C1351 1.374 . S
C1351 H1331 0.950 . S
C1351 C1347 1.385 . S
C1351 C1350 1.374 . S
C1352 C1349 1.499 . S
C1352 C1353 1.373 . S
C1352 C1354 1.389 . S
C1353 H1332 0.950 . S
C1353 C1352 1.373 . S
C1353 C1369 1.377 . S
C1354 C1352 1.389 . S
C1354 C1355 1.524 . S
C1354 C1368 1.377 . S
C1355 C1354 1.524 . S
C1355 C1356 1.397 . S
C1355 C1360 1.363 . S
C1356 H1333 0.950 . S
C1356 C1355 1.397 . S
C1356 C1357 1.334 . S
C1357 H1334 0.950 . S
C1357 C1356 1.334 . S
C1357 C1358 1.287 . S
C1358 C1357 1.287 . S
C1358 C1359 1.524 . S
C1358 H1377 0.913 . S
C1359 H1335 0.950 . S
C1359 C1358 1.524 . S
C1359 C1360 1.415 . S
C1360 H1336 0.950 . S
C1360 C1355 1.363 . S
C1360 C1359 1.415 . S
C1361 H1337 0.951 . S
C1361 C1362 1.366 . S
C1361 C1363 1.388 . S
C1362 C1361 1.366 . S
C1362 C1366 1.385 . S
C1363 H1338 0.951 . S
C1363 C1361 1.388 . S
C1363 C1364 1.366 . S
C1364 C1363 1.366 . S
C1364 C1365 1.414 . S
C1364 C1367 1.499 . S
C1365 H1339 0.950 . S
C1365 C1364 1.414 . S
C1365 C1366 1.374 . S
C1366 H1340 0.950 . S
C1366 C1362 1.385 . S
C1366 C1365 1.374 . S
C1367 C1364 1.499 . S
C1367 C1368 1.373 . S
C1367 C1369 1.389 . S
C1368 H1341 0.950 . S
C1368 C1354 1.377 . S
C1368 C1367 1.373 . S
C1369 C1353 1.377 . S
C1369 C1367 1.389 . S
C1369 C1370 1.524 . S
C1370 C1369 1.524 . S
C1370 C1371 1.397 . S
C1370 C1375 1.363 . S
C1371 H1342 0.950 . S
C1371 C1370 1.397 . S
C1371 C1372 1.334 . S
C1372 H1343 0.950 . S
C1372 C1371 1.334 . S
C1372 C1373 1.287 . S
C1373 C1372 1.287 . S
C1373 C1374 1.524 . S
C1373 H1376 0.999 . S
C1374 H1344 0.950 . S
C1374 C1373 1.524 . S
C1374 C1375 1.415 . S
C1375 H1345 0.950 . S
C1375 C1370 1.363 . S
C1375 C1374 1.415 . S
H1376 C1373 0.999 . S
H1377 C1358 0.913 . S
H1378 C1396 0.951 . S
H1379 C1398 0.951 . S
H1380 C1400 0.950 . S
H1381 C1401 0.950 . S
H1382 C1403 0.950 . S
H1383 C1406 0.950 . S
H1384 C1407 0.950 . S
H1385 C1409 0.950 . S
H1386 C1410 0.950 . S
H1387 C1411 0.951 . S
H1388 C1413 0.951 . S
H1389 C1415 0.950 . S
H1390 C1416 0.950 . S
H1391 C1418 0.950 . S
H1392 C1421 0.950 . S
H1393 C1422 0.950 . S
H1394 C1424 0.950 . S
H1395 C1425 0.950 . S
C1396 H1378 0.951 . S
C1396 C1397 1.366 . S
C1396 C1398 1.388 . S
C1397 C1396 1.366 . S
C1397 C1401 1.385 . S
C1398 H1379 0.951 . S
C1398 C1396 1.388 . S
C1398 C1399 1.366 . S
C1399 C1398 1.366 . S
C1399 C1400 1.414 . S
C1399 C1402 1.499 . S
C1400 H1380 0.950 . S
C1400 C1399 1.414 . S
C1400 C1401 1.374 . S
C1401 H1381 0.950 . S
C1401 C1397 1.385 . S
C1401 C1400 1.374 . S
C1402 C1399 1.499 . S
C1402 C1403 1.373 . S
C1402 C1404 1.389 . S
C1403 H1382 0.950 . S
C1403 C1402 1.373 . S
C1403 C1419 1.377 . S
C1404 C1402 1.389 . S
C1404 C1405 1.524 . S
C1404 C1418 1.377 . S
C1405 C1404 1.524 . S
C1405 C1406 1.397 . S
C1405 C1410 1.363 . S
C1406 H1383 0.950 . S
C1406 C1405 1.397 . S
C1406 C1407 1.334 . S
C1407 H1384 0.950 . S
C1407 C1406 1.334 . S
C1407 C1408 1.287 . S
C1408 C1407 1.287 . S
C1408 C1409 1.524 . S
C1408 H1427 0.913 . S
C1409 H1385 0.950 . S
C1409 C1408 1.524 . S
C1409 C1410 1.415 . S
C1410 H1386 0.950 . S
C1410 C1405 1.363 . S
C1410 C1409 1.415 . S
C1411 H1387 0.951 . S
C1411 C1412 1.366 . S
C1411 C1413 1.388 . S
C1412 C1411 1.366 . S
C1412 C1416 1.385 . S
C1413 H1388 0.951 . S
C1413 C1411 1.388 . S
C1413 C1414 1.366 . S
C1414 C1413 1.366 . S
C1414 C1415 1.414 . S
C1414 C1417 1.499 . S
C1415 H1389 0.950 . S
C1415 C1414 1.414 . S
C1415 C1416 1.374 . S
C1416 H1390 0.950 . S
C1416 C1412 1.385 . S
C1416 C1415 1.374 . S
C1417 C1414 1.499 . S
C1417 C1418 1.373 . S
C1417 C1419 1.389 . S
C1418 H1391 0.950 . S
C1418 C1404 1.377 . S
C1418 C1417 1.373 . S
C1419 C1403 1.377 . S
C1419 C1417 1.389 . S
C1419 C1420 1.524 . S
C1420 C1419 1.524 . S
C1420 C1421 1.397 . S
C1420 C1425 1.363 . S
C1421 H1392 0.950 . S
C1421 C1420 1.397 . S
C1421 C1422 1.334 . S
C1422 H1393 0.950 . S
C1422 C1421 1.334 . S
C1422 C1423 1.287 . S
C1423 C1422 1.287 . S
C1423 C1424 1.524 . S
C1423 H1426 0.999 . S
C1424 H1394 0.950 . S
C1424 C1423 1.524 . S
C1424 C1425 1.415 . S
C1425 H1395 0.950 . S
C1425 C1420 1.363 . S
C1425 C1424 1.415 . S
H1426 C1423 0.999 . S
H1427 C1408 0.913 . S
H1428 C1446 0.951 . S
H1429 C1448 0.951 . S
H1430 C1450 0.950 . S
H1431 C1451 0.950 . S
H1432 C1453 0.950 . S
H1433 C1456 0.950 . S
H1434 C1457 0.950 . S
H1435 C1459 0.950 . S
H1436 C1460 0.950 . S
H1437 C1461 0.951 . S
H1438 C1463 0.951 . S
H1439 C1465 0.950 . S
H1440 C1466 0.950 . S
H1441 C1468 0.950 . S
H1442 C1471 0.950 . S
H1443 C1472 0.950 . S
H1444 C1474 0.950 . S
H1445 C1475 0.950 . S
C1446 H1428 0.951 . S
C1446 C1447 1.366 . S
C1446 C1448 1.388 . S
C1447 C1446 1.366 . S
C1447 C1451 1.385 . S
C1448 H1429 0.951 . S
C1448 C1446 1.388 . S
C1448 C1449 1.366 . S
C1449 C1448 1.366 . S
C1449 C1450 1.414 . S
C1449 C1452 1.499 . S
C1450 H1430 0.950 . S
C1450 C1449 1.414 . S
C1450 C1451 1.374 . S
C1451 H1431 0.950 . S
C1451 C1447 1.385 . S
C1451 C1450 1.374 . S
C1452 C1449 1.499 . S
C1452 C1453 1.373 . S
C1452 C1454 1.389 . S
C1453 H1432 0.950 . S
C1453 C1452 1.373 . S
C1453 C1469 1.377 . S
C1454 C1452 1.389 . S
C1454 C1455 1.524 . S
C1454 C1468 1.377 . S
C1455 C1454 1.524 . S
C1455 C1456 1.397 . S
C1455 C1460 1.363 . S
C1456 H1433 0.950 . S
C1456 C1455 1.397 . S
C1456 C1457 1.334 . S
C1457 H1434 0.950 . S
C1457 C1456 1.334 . S
C1457 C1458 1.287 . S
C1458 C1457 1.287 . S
C1458 C1459 1.524 . S
C1458 H1477 0.913 . S
C1459 H1435 0.950 . S
C1459 C1458 1.524 . S
C1459 C1460 1.415 . S
C1460 H1436 0.950 . S
C1460 C1455 1.363 . S
C1460 C1459 1.415 . S
C1461 H1437 0.951 . S
C1461 C1462 1.366 . S
C1461 C1463 1.388 . S
C1462 C1461 1.366 . S
C1462 C1466 1.385 . S
C1463 H1438 0.951 . S
C1463 C1461 1.388 . S
C1463 C1464 1.366 . S
C1464 C1463 1.366 . S
C1464 C1465 1.414 . S
C1464 C1467 1.499 . S
C1465 H1439 0.950 . S
C1465 C1464 1.414 . S
C1465 C1466 1.374 . S
C1466 H1440 0.950 . S
C1466 C1462 1.385 . S
C1466 C1465 1.374 . S
C1467 C1464 1.499 . S
C1467 C1468 1.373 . S
C1467 C1469 1.389 . S
C1468 H1441 0.950 . S
C1468 C1454 1.377 . S
C1468 C1467 1.373 . S
C1469 C1453 1.377 . S
C1469 C1467 1.389 . S
C1469 C1470 1.524 . S
C1470 C1469 1.524 . S
C1470 C1471 1.397 . S
C1470 C1475 1.363 . S
C1471 H1442 0.950 . S
C1471 C1470 1.397 . S
C1471 C1472 1.334 . S
C1472 H1443 0.950 . S
C1472 C1471 1.334 . S
C1472 C1473 1.287 . S
C1473 C1472 1.287 . S
C1473 C1474 1.524 . S
C1473 H1476 0.999 . S
C1474 H1444 0.950 . S
C1474 C1473 1.524 . S
C1474 C1475 1.415 . S
C1475 H1445 0.950 . S
C1475 C1470 1.363 . S
C1475 C1474 1.415 . S
H1476 C1473 0.999 . S
H1477 C1458 0.913 . S
H1478 C1496 0.951 . S
H1479 C1498 0.951 . S
H1480 C1500 0.950 . S
H1481 C1501 0.950 . S
H1482 C1503 0.950 . S
H1483 C1506 0.950 . S
H1484 C1507 0.950 . S
H1485 C1509 0.950 . S
H1486 C1510 0.950 . S
H1487 C1511 0.951 . S
H1488 C1513 0.951 . S
H1489 C1515 0.950 . S
H1490 C1516 0.950 . S
H1491 C1518 0.950 . S
H1492 C1521 0.950 . S
H1493 C1522 0.950 . S
H1494 C1524 0.950 . S
H1495 C1525 0.950 . S
C1496 H1478 0.951 . S
C1496 C1497 1.366 . S
C1496 C1498 1.388 . S
C1497 C1496 1.366 . S
C1497 C1501 1.385 . S
C1498 H1479 0.951 . S
C1498 C1496 1.388 . S
C1498 C1499 1.366 . S
C1499 C1498 1.366 . S
C1499 C1500 1.414 . S
C1499 C1502 1.499 . S
C1500 H1480 0.950 . S
C1500 C1499 1.414 . S
C1500 C1501 1.374 . S
C1501 H1481 0.950 . S
C1501 C1497 1.385 . S
C1501 C1500 1.374 . S
C1502 C1499 1.499 . S
C1502 C1503 1.373 . S
C1502 C1504 1.389 . S
C1503 H1482 0.950 . S
C1503 C1502 1.373 . S
C1503 C1519 1.377 . S
C1504 C1502 1.389 . S
C1504 C1505 1.524 . S
C1504 C1518 1.377 . S
C1505 C1504 1.524 . S
C1505 C1506 1.397 . S
C1505 C1510 1.363 . S
C1506 H1483 0.950 . S
C1506 C1505 1.397 . S
C1506 C1507 1.334 . S
C1507 H1484 0.950 . S
C1507 C1506 1.334 . S
C1507 C1508 1.287 . S
C1508 C1507 1.287 . S
C1508 C1509 1.524 . S
C1508 H1527 0.913 . S
C1509 H1485 0.950 . S
C1509 C1508 1.524 . S
C1509 C1510 1.415 . S
C1510 H1486 0.950 . S
C1510 C1505 1.363 . S
C1510 C1509 1.415 . S
C1511 H1487 0.951 . S
C1511 C1512 1.366 . S
C1511 C1513 1.388 . S
C1512 C1511 1.366 . S
C1512 C1516 1.385 . S
C1513 H1488 0.951 . S
C1513 C1511 1.388 . S
C1513 C1514 1.366 . S
C1514 C1513 1.366 . S
C1514 C1515 1.414 . S
C1514 C1517 1.499 . S
C1515 H1489 0.950 . S
C1515 C1514 1.414 . S
C1515 C1516 1.374 . S
C1516 H1490 0.950 . S
C1516 C1512 1.385 . S
C1516 C1515 1.374 . S
C1517 C1514 1.499 . S
C1517 C1518 1.373 . S
C1517 C1519 1.389 . S
C1518 H1491 0.950 . S
C1518 C1504 1.377 . S
C1518 C1517 1.373 . S
C1519 C1503 1.377 . S
C1519 C1517 1.389 . S
C1519 C1520 1.524 . S
C1520 C1519 1.524 . S
C1520 C1521 1.397 . S
C1520 C1525 1.363 . S
C1521 H1492 0.950 . S
C1521 C1520 1.397 . S
C1521 C1522 1.334 . S
C1522 H1493 0.950 . S
C1522 C1521 1.334 . S
C1522 C1523 1.287 . S
C1523 C1522 1.287 . S
C1523 C1524 1.524 . S
C1523 H1526 0.999 . S
C1524 H1494 0.950 . S
C1524 C1523 1.524 . S
C1524 C1525 1.415 . S
C1525 H1495 0.950 . S
C1525 C1520 1.363 . S
C1525 C1524 1.415 . S
H1526 C1523 0.999 . S
H1527 C1508 0.913 . S
H1528 C1546 0.951 . S
H1529 C1548 0.951 . S
H1530 C1550 0.950 . S
H1531 C1551 0.950 . S
H1532 C1553 0.950 . S
H1533 C1556 0.950 . S
H1534 C1557 0.950 . S
H1535 C1559 0.950 . S
H1536 C1560 0.950 . S
H1537 C1561 0.951 . S
H1538 C1563 0.951 . S
H1539 C1565 0.950 . S
H1540 C1566 0.950 . S
H1541 C1568 0.950 . S
H1542 C1571 0.950 . S
H1543 C1572 0.950 . S
H1544 C1574 0.950 . S
H1545 C1575 0.950 . S
C1546 H1528 0.951 . S
C1546 C1547 1.366 . S
C1546 C1548 1.388 . S
C1547 C1546 1.366 . S
C1547 C1551 1.385 . S
C1548 H1529 0.951 . S
C1548 C1546 1.388 . S
C1548 C1549 1.366 . S
C1549 C1548 1.366 . S
C1549 C1550 1.414 . S
C1549 C1552 1.499 . S
C1550 H1530 0.950 . S
C1550 C1549 1.414 . S
C1550 C1551 1.374 . S
C1551 H1531 0.950 . S
C1551 C1547 1.385 . S
C1551 C1550 1.374 . S
C1552 C1549 1.499 . S
C1552 C1553 1.373 . S
C1552 C1554 1.389 . S
C1553 H1532 0.950 . S
C1553 C1552 1.373 . S
C1553 C1569 1.377 . S
C1554 C1552 1.389 . S
C1554 C1555 1.524 . S
C1554 C1568 1.377 . S
C1555 C1554 1.524 . S
C1555 C1556 1.397 . S
C1555 C1560 1.363 . S
C1556 H1533 0.950 . S
C1556 C1555 1.397 . S
C1556 C1557 1.334 . S
C1557 H1534 0.950 . S
C1557 C1556 1.334 . S
C1557 C1558 1.287 . S
C1558 C1557 1.287 . S
C1558 C1559 1.524 . S
C1558 H1577 0.913 . S
C1559 H1535 0.950 . S
C1559 C1558 1.524 . S
C1559 C1560 1.415 . S
C1560 H1536 0.950 . S
C1560 C1555 1.363 . S
C1560 C1559 1.415 . S
C1561 H1537 0.951 . S
C1561 C1562 1.366 . S
C1561 C1563 1.388 . S
C1562 C1561 1.366 . S
C1562 C1566 1.385 . S
C1563 H1538 0.951 . S
C1563 C1561 1.388 . S
C1563 C1564 1.366 . S
C1564 C1563 1.366 . S
C1564 C1565 1.414 . S
C1564 C1567 1.499 . S
C1565 H1539 0.950 . S
C1565 C1564 1.414 . S
C1565 C1566 1.374 . S
C1566 H1540 0.950 . S
C1566 C1562 1.385 . S
C1566 C1565 1.374 . S
C1567 C1564 1.499 . S
C1567 C1568 1.373 . S
C1567 C1569 1.389 . S
C1568 H1541 0.950 . S
C1568 C1554 1.377 . S
C1568 C1567 1.373 . S
C1569 C1553 1.377 . S
C1569 C1567 1.389 . S
C1569 C1570 1.524 . S
C1570 C1569 1.524 . S
C1570 C1571 1.397 . S
C1570 C1575 1.363 . S
C1571 H1542 0.950 . S
C1571 C1570 1.397 . S
C1571 C1572 1.334 . S
C1572 H1543 0.950 . S
C1572 C1571 1.334 . S
C1572 C1573 1.287 . S
C1573 C1572 1.287 . S
C1573 C1574 1.524 . S
C1573 H1576 0.999 . S
C1574 H1544 0.950 . S
C1574 C1573 1.524 . S
C1574 C1575 1.415 . S
C1575 H1545 0.950 . S
C1575 C1570 1.363 . S
C1575 C1574 1.415 . S
H1576 C1573 0.999 . S
H1577 C1558 0.913 . S
H1578 C1596 0.951 . S
H1579 C1598 0.951 . S
H1580 C1600 0.950 . S
H1581 C1601 0.950 . S
H1582 C1603 0.950 . S
H1583 C1606 0.950 . S
H1584 C1607 0.950 . S
H1585 C1609 0.950 . S
H1586 C1610 0.950 . S
H1587 C1611 0.951 . S
H1588 C1613 0.951 . S
H1589 C1615 0.950 . S
H1590 C1616 0.950 . S
H1591 C1618 0.950 . S
H1592 C1621 0.950 . S
H1593 C1622 0.950 . S
H1594 C1624 0.950 . S
H1595 C1625 0.950 . S
C1596 H1578 0.951 . S
C1596 C1597 1.366 . S
C1596 C1598 1.388 . S
C1597 C1596 1.366 . S
C1597 C1601 1.385 . S
C1598 H1579 0.951 . S
C1598 C1596 1.388 . S
C1598 C1599 1.366 . S
C1599 C1598 1.366 . S
C1599 C1600 1.414 . S
C1599 C1602 1.499 . S
C1600 H1580 0.950 . S
C1600 C1599 1.414 . S
C1600 C1601 1.374 . S
C1601 H1581 0.950 . S
C1601 C1597 1.385 . S
C1601 C1600 1.374 . S
C1602 C1599 1.499 . S
C1602 C1603 1.373 . S
C1602 C1604 1.389 . S
C1603 H1582 0.950 . S
C1603 C1602 1.373 . S
C1603 C1619 1.377 . S
C1604 C1602 1.389 . S
C1604 C1605 1.524 . S
C1604 C1618 1.377 . S
C1605 C1604 1.524 . S
C1605 C1606 1.397 . S
C1605 C1610 1.363 . S
C1606 H1583 0.950 . S
C1606 C1605 1.397 . S
C1606 C1607 1.334 . S
C1607 H1584 0.950 . S
C1607 C1606 1.334 . S
C1607 C1608 1.287 . S
C1608 C1607 1.287 . S
C1608 C1609 1.524 . S
C1608 H1627 0.913 . S
C1609 H1585 0.950 . S
C1609 C1608 1.524 . S
C1609 C1610 1.415 . S
C1610 H1586 0.950 . S
C1610 C1605 1.363 . S
C1610 C1609 1.415 . S
C1611 H1587 0.951 . S
C1611 C1612 1.366 . S
C1611 C1613 1.388 . S
C1612 C1611 1.366 . S
C1612 C1616 1.385 . S
C1613 H1588 0.951 . S
C1613 C1611 1.388 . S
C1613 C1614 1.366 . S
C1614 C1613 1.366 . S
C1614 C1615 1.414 . S
C1614 C1617 1.499 . S
C1615 H1589 0.950 . S
C1615 C1614 1.414 . S
C1615 C1616 1.374 . S
C1616 H1590 0.950 . S
C1616 C1612 1.385 . S
C1616 C1615 1.374 . S
C1617 C1614 1.499 . S
C1617 C1618 1.373 . S
C1617 C1619 1.389 . S
C1618 H1591 0.950 . S
C1618 C1604 1.377 . S
C1618 C1617 1.373 . S
C1619 C1603 1.377 . S
C1619 C1617 1.389 . S
C1619 C1620 1.524 . S
C1620 C1619 1.524 . S
C1620 C1621 1.397 . S
C1620 C1625 1.363 . S
C1621 H1592 0.950 . S
C1621 C1620 1.397 . S
C1621 C1622 1.334 . S
C1622 H1593 0.950 . S
C1622 C1621 1.334 . S
C1622 C1623 1.287 . S
C1623 C1622 1.287 . S
C1623 C1624 1.524 . S
C1623 H1626 0.999 . S
C1624 H1594 0.950 . S
C1624 C1623 1.524 . S
C1624 C1625 1.415 . S
C1625 H1595 0.950 . S
C1625 C1620 1.363 . S
C1625 C1624 1.415 . S
H1626 C1623 0.999 . S
H1627 C1608 0.913 . S
H1628 C1646 0.951 . S
H1629 C1648 0.951 . S
H1630 C1650 0.950 . S
H1631 C1651 0.950 . S
H1632 C1653 0.950 . S
H1633 C1656 0.950 . S
H1634 C1657 0.950 . S
H1635 C1659 0.950 . S
H1636 C1660 0.950 . S
H1637 C1661 0.951 . S
H1638 C1663 0.951 . S
H1639 C1665 0.950 . S
H1640 C1666 0.950 . S
H1641 C1668 0.950 . S
H1642 C1671 0.950 . S
H1643 C1672 0.950 . S
H1644 C1674 0.950 . S
H1645 C1675 0.950 . S
C1646 H1628 0.951 . S
C1646 C1647 1.366 . S
C1646 C1648 1.388 . S
C1647 C1646 1.366 . S
C1647 C1651 1.385 . S
C1648 H1629 0.951 . S
C1648 C1646 1.388 . S
C1648 C1649 1.366 . S
C1649 C1648 1.366 . S
C1649 C1650 1.414 . S
C1649 C1652 1.499 . S
C1650 H1630 0.950 . S
C1650 C1649 1.414 . S
C1650 C1651 1.374 . S
C1651 H1631 0.950 . S
C1651 C1647 1.385 . S
C1651 C1650 1.374 . S
C1652 C1649 1.499 . S
C1652 C1653 1.373 . S
C1652 C1654 1.389 . S
C1653 H1632 0.950 . S
C1653 C1652 1.373 . S
C1653 C1669 1.377 . S
C1654 C1652 1.389 . S
C1654 C1655 1.524 . S
C1654 C1668 1.377 . S
C1655 C1654 1.524 . S
C1655 C1656 1.397 . S
C1655 C1660 1.363 . S
C1656 H1633 0.950 . S
C1656 C1655 1.397 . S
C1656 C1657 1.334 . S
C1657 H1634 0.950 . S
C1657 C1656 1.334 . S
C1657 C1658 1.287 . S
C1658 C1657 1.287 . S
C1658 C1659 1.524 . S
C1658 H1677 0.913 . S
C1659 H1635 0.950 . S
C1659 C1658 1.524 . S
C1659 C1660 1.415 . S
C1660 H1636 0.950 . S
C1660 C1655 1.363 . S
C1660 C1659 1.415 . S
C1661 H1637 0.951 . S
C1661 C1662 1.366 . S
C1661 C1663 1.388 . S
C1662 C1661 1.366 . S
C1662 C1666 1.385 . S
C1663 H1638 0.951 . S
C1663 C1661 1.388 . S
C1663 C1664 1.366 . S
C1664 C1663 1.366 . S
C1664 C1665 1.414 . S
C1664 C1667 1.499 . S
C1665 H1639 0.950 . S
C1665 C1664 1.414 . S
C1665 C1666 1.374 . S
C1666 H1640 0.950 . S
C1666 C1662 1.385 . S
C1666 C1665 1.374 . S
C1667 C1664 1.499 . S
C1667 C1668 1.373 . S
C1667 C1669 1.389 . S
C1668 H1641 0.950 . S
C1668 C1654 1.377 . S
C1668 C1667 1.373 . S
C1669 C1653 1.377 . S
C1669 C1667 1.389 . S
C1669 C1670 1.524 . S
C1670 C1669 1.524 . S
C1670 C1671 1.397 . S
C1670 C1675 1.363 . S
C1671 H1642 0.950 . S
C1671 C1670 1.397 . S
C1671 C1672 1.334 . S
C1672 H1643 0.950 . S
C1672 C1671 1.334 . S
C1672 C1673 1.287 . S
C1673 C1672 1.287 . S
C1673 C1674 1.524 . S
C1673 H1676 0.999 . S
C1674 H1644 0.950 . S
C1674 C1673 1.524 . S
C1674 C1675 1.415 . S
C1675 H1645 0.950 . S
C1675 C1670 1.363 . S
C1675 C1674 1.415 . S
H1676 C1673 0.999 . S
H1677 C1658 0.913 . S
H1678 C1696 0.951 . S
H1679 C1698 0.951 . S
H1680 C1700 0.950 . S
H1681 C1701 0.950 . S
H1682 C1703 0.950 . S
H1683 C1706 0.950 . S
H1684 C1707 0.950 . S
H1685 C1709 0.950 . S
H1686 C1710 0.950 . S
H1687 C1711 0.951 . S
H1688 C1713 0.951 . S
H1689 C1715 0.950 . S
H1690 C1716 0.950 . S
H1691 C1718 0.950 . S
H1692 C1721 0.950 . S
H1693 C1722 0.950 . S
H1694 C1724 0.950 . S
H1695 C1725 0.950 . S
C1696 H1678 0.951 . S
C1696 C1697 1.366 . S
C1696 C1698 1.388 . S
C1697 C1696 1.366 . S
C1697 C1701 1.385 . S
C1698 H1679 0.951 . S
C1698 C1696 1.388 . S
C1698 C1699 1.366 . S
C1699 C1698 1.366 . S
C1699 C1700 1.414 . S
C1699 C1702 1.499 . S
C1700 H1680 0.950 . S
C1700 C1699 1.414 . S
C1700 C1701 1.374 . S
C1701 H1681 0.950 . S
C1701 C1697 1.385 . S
C1701 C1700 1.374 . S
C1702 C1699 1.499 . S
C1702 C1703 1.373 . S
C1702 C1704 1.389 . S
C1703 H1682 0.950 . S
C1703 C1702 1.373 . S
C1703 C1719 1.377 . S
C1704 C1702 1.389 . S
C1704 C1705 1.524 . S
C1704 C1718 1.377 . S
C1705 C1704 1.524 . S
C1705 C1706 1.397 . S
C1705 C1710 1.363 . S
C1706 H1683 0.950 . S
C1706 C1705 1.397 . S
C1706 C1707 1.334 . S
C1707 H1684 0.950 . S
C1707 C1706 1.334 . S
C1707 C1708 1.287 . S
C1708 C1707 1.287 . S
C1708 C1709 1.524 . S
C1708 H1727 0.913 . S
C1709 H1685 0.950 . S
C1709 C1708 1.524 . S
C1709 C1710 1.415 . S
C1710 H1686 0.950 . S
C1710 C1705 1.363 . S
C1710 C1709 1.415 . S
C1711 H1687 0.951 . S
C1711 C1712 1.366 . S
C1711 C1713 1.388 . S
C1712 C1711 1.366 . S
C1712 C1716 1.385 . S
C1713 H1688 0.951 . S
C1713 C1711 1.388 . S
C1713 C1714 1.366 . S
C1714 C1713 1.366 . S
C1714 C1715 1.414 . S
C1714 C1717 1.499 . S
C1715 H1689 0.950 . S
C1715 C1714 1.414 . S
C1715 C1716 1.374 . S
C1716 H1690 0.950 . S
C1716 C1712 1.385 . S
C1716 C1715 1.374 . S
C1717 C1714 1.499 . S
C1717 C1718 1.373 . S
C1717 C1719 1.389 . S
C1718 H1691 0.950 . S
C1718 C1704 1.377 . S
C1718 C1717 1.373 . S
C1719 C1703 1.377 . S
C1719 C1717 1.389 . S
C1719 C1720 1.524 . S
C1720 C1719 1.524 . S
C1720 C1721 1.397 . S
C1720 C1725 1.363 . S
C1721 H1692 0.950 . S
C1721 C1720 1.397 . S
C1721 C1722 1.334 . S
C1722 H1693 0.950 . S
C1722 C1721 1.334 . S
C1722 C1723 1.287 . S
C1723 C1722 1.287 . S
C1723 C1724 1.524 . S
C1723 H1726 0.999 . S
C1724 H1694 0.950 . S
C1724 C1723 1.524 . S
C1724 C1725 1.415 . S
C1725 H1695 0.950 . S
C1725 C1720 1.363 . S
C1725 C1724 1.415 . S
H1726 C1723 0.999 . S
H1727 C1708 0.913 . S
H1728 C1746 0.951 . S
H1729 C1748 0.951 . S
H1730 C1750 0.950 . S
H1731 C1751 0.950 . S
H1732 C1753 0.950 . S
H1733 C1756 0.950 . S
H1734 C1757 0.950 . S
H1735 C1759 0.950 . S
H1736 C1760 0.950 . S
H1737 C1761 0.951 . S
H1738 C1763 0.951 . S
H1739 C1765 0.950 . S
H1740 C1766 0.950 . S
H1741 C1768 0.950 . S
H1742 C1771 0.950 . S
H1743 C1772 0.950 . S
H1744 C1774 0.950 . S
H1745 C1775 0.950 . S
C1746 H1728 0.951 . S
C1746 C1747 1.366 . S
C1746 C1748 1.388 . S
C1747 C1746 1.366 . S
C1747 C1751 1.385 . S
C1748 H1729 0.951 . S
C1748 C1746 1.388 . S
C1748 C1749 1.366 . S
C1749 C1748 1.366 . S
C1749 C1750 1.414 . S
C1749 C1752 1.499 . S
C1750 H1730 0.950 . S
C1750 C1749 1.414 . S
C1750 C1751 1.374 . S
C1751 H1731 0.950 . S
C1751 C1747 1.385 . S
C1751 C1750 1.374 . S
C1752 C1749 1.499 . S
C1752 C1753 1.373 . S
C1752 C1754 1.389 . S
C1753 H1732 0.950 . S
C1753 C1752 1.373 . S
C1753 C1769 1.377 . S
C1754 C1752 1.389 . S
C1754 C1755 1.524 . S
C1754 C1768 1.377 . S
C1755 C1754 1.524 . S
C1755 C1756 1.397 . S
C1755 C1760 1.363 . S
C1756 H1733 0.950 . S
C1756 C1755 1.397 . S
C1756 C1757 1.334 . S
C1757 H1734 0.950 . S
C1757 C1756 1.334 . S
C1757 C1758 1.287 . S
C1758 C1757 1.287 . S
C1758 C1759 1.524 . S
C1758 H1777 0.913 . S
C1759 H1735 0.950 . S
C1759 C1758 1.524 . S
C1759 C1760 1.415 . S
C1760 H1736 0.950 . S
C1760 C1755 1.363 . S
C1760 C1759 1.415 . S
C1761 H1737 0.951 . S
C1761 C1762 1.366 . S
C1761 C1763 1.388 . S
C1762 C1761 1.366 . S
C1762 C1766 1.385 . S
C1763 H1738 0.951 . S
C1763 C1761 1.388 . S
C1763 C1764 1.366 . S
C1764 C1763 1.366 . S
C1764 C1765 1.414 . S
C1764 C1767 1.499 . S
C1765 H1739 0.950 . S
C1765 C1764 1.414 . S
C1765 C1766 1.374 . S
C1766 H1740 0.950 . S
C1766 C1762 1.385 . S
C1766 C1765 1.374 . S
C1767 C1764 1.499 . S
C1767 C1768 1.373 . S
C1767 C1769 1.389 . S
C1768 H1741 0.950 . S
C1768 C1754 1.377 . S
C1768 C1767 1.373 . S
C1769 C1753 1.377 . S
C1769 C1767 1.389 . S
C1769 C1770 1.524 . S
C1770 C1769 1.524 . S
C1770 C1771 1.397 . S
C1770 C1775 1.363 . S
C1771 H1742 0.950 . S
C1771 C1770 1.397 . S
C1771 C1772 1.334 . S
C1772 H1743 0.950 . S
C1772 C1771 1.334 . S
C1772 C1773 1.287 . S
C1773 C1772 1.287 . S
C1773 C1774 1.524 . S
C1773 H1776 0.999 . S
C1774 H1744 0.950 . S
C1774 C1773 1.524 . S
C1774 C1775 1.415 . S
C1775 H1745 0.950 . S
C1775 C1770 1.363 . S
C1775 C1774 1.415 . S
H1776 C1773 0.999 . S
H1777 C1758 0.913 . S
H1778 C1796 0.951 . S
H1779 C1798 0.951 . S
H1780 C1800 0.950 . S
H1781 C1801 0.950 . S
H1782 C1803 0.950 . S
H1783 C1806 0.950 . S
H1784 C1807 0.950 . S
H1785 C1809 0.950 . S
H1786 C1810 0.950 . S
H1787 C1811 0.951 . S
H1788 C1813 0.951 . S
H1789 C1815 0.950 . S
H1790 C1816 0.950 . S
H1791 C1818 0.950 . S
H1792 C1821 0.950 . S
H1793 C1822 0.950 . S
H1794 C1824 0.950 . S
H1795 C1825 0.950 . S
C1796 H1778 0.951 . S
C1796 C1797 1.366 . S
C1796 C1798 1.388 . S
C1797 C1796 1.366 . S
C1797 C1801 1.385 . S
C1798 H1779 0.951 . S
C1798 C1796 1.388 . S
C1798 C1799 1.366 . S
C1799 C1798 1.366 . S
C1799 C1800 1.414 . S
C1799 C1802 1.499 . S
C1800 H1780 0.950 . S
C1800 C1799 1.414 . S
C1800 C1801 1.374 . S
C1801 H1781 0.950 . S
C1801 C1797 1.385 . S
C1801 C1800 1.374 . S
C1802 C1799 1.499 . S
C1802 C1803 1.373 . S
C1802 C1804 1.389 . S
C1803 H1782 0.950 . S
C1803 C1802 1.373 . S
C1803 C1819 1.377 . S
C1804 C1802 1.389 . S
C1804 C1805 1.524 . S
C1804 C1818 1.377 . S
C1805 C1804 1.524 . S
C1805 C1806 1.397 . S
C1805 C1810 1.363 . S
C1806 H1783 0.950 . S
C1806 C1805 1.397 . S
C1806 C1807 1.334 . S
C1807 H1784 0.950 . S
C1807 C1806 1.334 . S
C1807 C1808 1.287 . S
C1808 C1807 1.287 . S
C1808 C1809 1.524 . S
C1808 H1827 0.913 . S
C1809 H1785 0.950 . S
C1809 C1808 1.524 . S
C1809 C1810 1.415 . S
C1810 H1786 0.950 . S
C1810 C1805 1.363 . S
C1810 C1809 1.415 . S
C1811 H1787 0.951 . S
C1811 C1812 1.366 . S
C1811 C1813 1.388 . S
C1812 C1811 1.366 . S
C1812 C1816 1.385 . S
C1813 H1788 0.951 . S
C1813 C1811 1.388 . S
C1813 C1814 1.366 . S
C1814 C1813 1.366 . S
C1814 C1815 1.414 . S
C1814 C1817 1.499 . S
C1815 H1789 0.950 . S
C1815 C1814 1.414 . S
C1815 C1816 1.374 . S
C1816 H1790 0.950 . S
C1816 C1812 1.385 . S
C1816 C1815 1.374 . S
C1817 C1814 1.499 . S
C1817 C1818 1.373 . S
C1817 C1819 1.389 . S
C1818 H1791 0.950 . S
C1818 C1804 1.377 . S
C1818 C1817 1.373 . S
C1819 C1803 1.377 . S
C1819 C1817 1.389 . S
C1819 C1820 1.524 . S
C1820 C1819 1.524 . S
C1820 C1821 1.397 . S
C1820 C1825 1.363 . S
C1821 H1792 0.950 . S
C1821 C1820 1.397 . S
C1821 C1822 1.334 . S
C1822 H1793 0.950 . S
C1822 C1821 1.334 . S
C1822 C1823 1.287 . S
C1823 C1822 1.287 . S
C1823 C1824 1.524 . S
C1823 H1826 0.999 . S
C1824 H1794 0.950 . S
C1824 C1823 1.524 . S
C1824 C1825 1.415 . S
C1825 H1795 0.950 . S
C1825 C1820 1.363 . S
C1825 C1824 1.415 . S
H1826 C1823 0.999 . S
H1827 C1808 0.913 . S
H1828 C1846 0.951 . S
H1829 C1848 0.951 . S
H1830 C1850 0.950 . S
H1831 C1851 0.950 . S
H1832 C1853 0.950 . S
H1833 C1856 0.950 . S
H1834 C1857 0.950 . S
H1835 C1859 0.950 . S
H1836 C1860 0.950 . S
H1837 C1861 0.951 1_455 S
H1838 C1863 0.951 . S
H1839 C1865 0.950 . S
H1840 C1866 0.950 . S
H1841 C1868 0.950 . S
H1842 C1871 0.950 . S
H1843 C1872 0.950 . S
H1844 C1874 0.950 . S
H1845 C1875 0.950 . S
C1846 H1828 0.951 . S
C1846 C1847 1.366 . S
C1846 C1848 1.388 . S
C1847 C1846 1.366 . S
C1847 C1851 1.385 . S
C1848 H1829 0.951 . S
C1848 C1846 1.388 . S
C1848 C1849 1.366 . S
C1849 C1848 1.366 . S
C1849 C1850 1.414 . S
C1849 C1852 1.499 . S
C1850 H1830 0.950 . S
C1850 C1849 1.414 . S
C1850 C1851 1.374 . S
C1851 H1831 0.950 . S
C1851 C1847 1.385 . S
C1851 C1850 1.374 . S
C1852 C1849 1.499 . S
C1852 C1853 1.373 . S
C1852 C1854 1.389 . S
C1853 H1832 0.950 . S
C1853 C1852 1.373 . S
C1853 C1869 1.377 . S
C1854 C1852 1.389 . S
C1854 C1855 1.524 . S
C1854 C1868 1.377 . S
C1855 C1854 1.524 . S
C1855 C1856 1.397 . S
C1855 C1860 1.363 . S
C1856 H1833 0.950 . S
C1856 C1855 1.397 . S
C1856 C1857 1.334 . S
C1857 H1834 0.950 . S
C1857 C1856 1.334 . S
C1857 C1858 1.287 . S
C1858 C1857 1.287 . S
C1858 C1859 1.524 . S
C1858 H1877 0.913 . S
C1859 H1835 0.950 . S
C1859 C1858 1.524 . S
C1859 C1860 1.415 . S
C1860 H1836 0.950 . S
C1860 C1855 1.363 . S
C1860 C1859 1.415 . S
C1861 H1837 0.951 1_655 S
C1861 C1862 1.366 . S
C1861 C1863 1.388 . S
C1862 C1861 1.366 . S
C1862 C1866 1.385 . S
C1863 H1838 0.951 . S
C1863 C1861 1.388 . S
C1863 C1864 1.366 . S
C1864 C1863 1.366 . S
C1864 C1865 1.414 . S
C1864 C1867 1.499 . S
C1865 H1839 0.950 . S
C1865 C1864 1.414 . S
C1865 C1866 1.374 . S
C1866 H1840 0.950 . S
C1866 C1862 1.385 . S
C1866 C1865 1.374 . S
C1867 C1864 1.499 . S
C1867 C1868 1.373 . S
C1867 C1869 1.389 . S
C1868 H1841 0.950 . S
C1868 C1854 1.377 . S
C1868 C1867 1.373 . S
C1869 C1853 1.377 . S
C1869 C1867 1.389 . S
C1869 C1870 1.524 . S
C1870 C1869 1.524 . S
C1870 C1871 1.397 . S
C1870 C1875 1.363 . S
C1871 H1842 0.950 . S
C1871 C1870 1.397 . S
C1871 C1872 1.334 . S
C1872 H1843 0.950 . S
C1872 C1871 1.334 . S
C1872 C1873 1.287 . S
C1873 C1872 1.287 . S
C1873 C1874 1.524 . S
C1873 H1876 0.999 . S
C1874 H1844 0.950 . S
C1874 C1873 1.524 . S
C1874 C1875 1.415 . S
C1875 H1845 0.950 . S
C1875 C1870 1.363 . S
C1875 C1874 1.415 . S
H1876 C1873 0.999 . S
H1877 C1858 0.913 . S
H1878 C1896 0.951 . S
H1879 C1898 0.951 . S
H1880 C1900 0.950 . S
H1881 C1901 0.950 1_545 S
H1882 C1903 0.950 . S
H1883 C1906 0.950 . S
H1884 C1907 0.950 . S
H1885 C1909 0.950 . S
H1886 C1910 0.950 . S
H1887 C1911 0.951 . S
H1888 C1913 0.951 . S
H1889 C1915 0.950 . S
H1890 C1916 0.950 . S
H1891 C1918 0.950 . S
H1892 C1921 0.950 . S
H1893 C1922 0.950 . S
H1894 C1924 0.950 . S
H1895 C1925 0.950 . S
C1896 H1878 0.951 . S
C1896 C1897 1.366 . S
C1896 C1898 1.388 . S
C1897 C1896 1.366 . S
C1897 C1901 1.385 . S
C1898 H1879 0.951 . S
C1898 C1896 1.388 . S
C1898 C1899 1.366 . S
C1899 C1898 1.366 . S
C1899 C1900 1.414 . S
C1899 C1902 1.499 . S
C1900 H1880 0.950 . S
C1900 C1899 1.414 . S
C1900 C1901 1.374 . S
C1901 H1881 0.950 1_565 S
C1901 C1897 1.385 . S
C1901 C1900 1.374 . S
C1902 C1899 1.499 . S
C1902 C1903 1.373 . S
C1902 C1904 1.389 . S
C1903 H1882 0.950 . S
C1903 C1902 1.373 . S
C1903 C1919 1.377 . S
C1904 C1902 1.389 . S
C1904 C1905 1.524 . S
C1904 C1918 1.377 . S
C1905 C1904 1.524 . S
C1905 C1906 1.397 . S
C1905 C1910 1.363 . S
C1906 H1883 0.950 . S
C1906 C1905 1.397 . S
C1906 C1907 1.334 . S
C1907 H1884 0.950 . S
C1907 C1906 1.334 . S
C1907 C1908 1.287 . S
C1908 C1907 1.287 . S
C1908 C1909 1.524 . S
C1908 H1927 0.913 . S
C1909 H1885 0.950 . S
C1909 C1908 1.524 . S
C1909 C1910 1.415 . S
C1910 H1886 0.950 . S
C1910 C1905 1.363 . S
C1910 C1909 1.415 . S
C1911 H1887 0.951 . S
C1911 C1912 1.366 . S
C1911 C1913 1.388 . S
C1912 C1911 1.366 . S
C1912 C1916 1.385 . S
C1913 H1888 0.951 . S
C1913 C1911 1.388 . S
C1913 C1914 1.366 . S
C1914 C1913 1.366 . S
C1914 C1915 1.414 . S
C1914 C1917 1.499 . S
C1915 H1889 0.950 . S
C1915 C1914 1.414 . S
C1915 C1916 1.374 . S
C1916 H1890 0.950 . S
C1916 C1912 1.385 . S
C1916 C1915 1.374 . S
C1917 C1914 1.499 . S
C1917 C1918 1.373 . S
C1917 C1919 1.389 . S
C1918 H1891 0.950 . S
C1918 C1904 1.377 . S
C1918 C1917 1.373 . S
C1919 C1903 1.377 . S
C1919 C1917 1.389 . S
C1919 C1920 1.524 . S
C1920 C1919 1.524 . S
C1920 C1921 1.397 . S
C1920 C1925 1.363 . S
C1921 H1892 0.950 . S
C1921 C1920 1.397 . S
C1921 C1922 1.334 . S
C1922 H1893 0.950 . S
C1922 C1921 1.334 . S
C1922 C1923 1.287 . S
C1923 C1922 1.287 . S
C1923 C1924 1.524 . S
C1923 H1926 0.999 . S
C1924 H1894 0.950 . S
C1924 C1923 1.524 . S
C1924 C1925 1.415 . S
C1925 H1895 0.950 . S
C1925 C1920 1.363 . S
C1925 C1924 1.415 . S
H1926 C1923 0.999 . S
H1927 C1908 0.913 . S
H1928 C1946 0.951 . S
H1929 C1948 0.951 . S
H1930 C1950 0.950 . S
H1931 C1951 0.950 . S
H1932 C1953 0.950 . S
H1933 C1956 0.950 . S
H1934 C1957 0.950 . S
H1935 C1959 0.950 . S
H1936 C1960 0.950 . S
H1937 C1961 0.951 . S
H1938 C1963 0.951 . S
H1939 C1965 0.950 . S
H1940 C1966 0.950 . S
H1941 C1968 0.950 . S
H1942 C1971 0.950 . S
H1943 C1972 0.950 . S
H1944 C1974 0.950 . S
H1945 C1975 0.950 . S
C1946 H1928 0.951 . S
C1946 C1947 1.366 . S
C1946 C1948 1.388 . S
C1947 C1946 1.366 . S
C1947 C1951 1.385 . S
C1948 H1929 0.951 . S
C1948 C1946 1.388 . S
C1948 C1949 1.366 . S
C1949 C1948 1.366 . S
C1949 C1950 1.414 . S
C1949 C1952 1.499 . S
C1950 H1930 0.950 . S
C1950 C1949 1.414 . S
C1950 C1951 1.374 . S
C1951 H1931 0.950 . S
C1951 C1947 1.385 . S
C1951 C1950 1.374 . S
C1952 C1949 1.499 . S
C1952 C1953 1.373 . S
C1952 C1954 1.389 . S
C1953 H1932 0.950 . S
C1953 C1952 1.373 . S
C1953 C1969 1.377 . S
C1954 C1952 1.389 . S
C1954 C1955 1.524 . S
C1954 C1968 1.377 . S
C1955 C1954 1.524 . S
C1955 C1956 1.397 . S
C1955 C1960 1.363 . S
C1956 H1933 0.950 . S
C1956 C1955 1.397 . S
C1956 C1957 1.334 . S
C1957 H1934 0.950 . S
C1957 C1956 1.334 . S
C1957 C1958 1.287 . S
C1958 C1957 1.287 . S
C1958 C1959 1.524 . S
C1958 H1977 0.913 . S
C1959 H1935 0.950 . S
C1959 C1958 1.524 . S
C1959 C1960 1.415 . S
C1960 H1936 0.950 . S
C1960 C1955 1.363 . S
C1960 C1959 1.415 . S
C1961 H1937 0.951 . S
C1961 C1962 1.366 . S
C1961 C1963 1.388 . S
C1962 C1961 1.366 . S
C1962 C1966 1.385 . S
C1963 H1938 0.951 . S
C1963 C1961 1.388 . S
C1963 C1964 1.366 . S
C1964 C1963 1.366 . S
C1964 C1965 1.414 . S
C1964 C1967 1.499 . S
C1965 H1939 0.950 . S
C1965 C1964 1.414 . S
C1965 C1966 1.374 . S
C1966 H1940 0.950 . S
C1966 C1962 1.385 . S
C1966 C1965 1.374 . S
C1967 C1964 1.499 . S
C1967 C1968 1.373 . S
C1967 C1969 1.389 . S
C1968 H1941 0.950 . S
C1968 C1954 1.377 . S
C1968 C1967 1.373 . S
C1969 C1953 1.377 . S
C1969 C1967 1.389 . S
C1969 C1970 1.524 . S
C1970 C1969 1.524 . S
C1970 C1971 1.397 . S
C1970 C1975 1.363 . S
C1971 H1942 0.950 . S
C1971 C1970 1.397 . S
C1971 C1972 1.334 . S
C1972 H1943 0.950 . S
C1972 C1971 1.334 . S
C1972 C1973 1.287 . S
C1973 C1972 1.287 . S
C1973 C1974 1.524 . S
C1973 H1976 0.999 . S
C1974 H1944 0.950 . S
C1974 C1973 1.524 . S
C1974 C1975 1.415 . S
C1975 H1945 0.950 . S
C1975 C1970 1.363 . S
C1975 C1974 1.415 . S
H1976 C1973 0.999 . S
H1977 C1958 0.913 . S
H1978 C1996 0.951 . S
H1979 C1998 0.951 . S
H1980 C2000 0.950 . S
H1981 C2001 0.950 . S
H1982 C2003 0.950 . S
H1983 C2006 0.950 . S
H1984 C2007 0.950 . S
H1985 C2009 0.950 . S
H1986 C2010 0.950 . S
H1987 C2011 0.951 . S
H1988 C2013 0.951 . S
H1989 C2015 0.950 . S
H1990 C2016 0.950 . S
H1991 C2018 0.950 . S
H1992 C2021 0.950 . S
H1993 C2022 0.950 . S
H1994 C2024 0.950 . S
H1995 C2025 0.950 . S
C1996 H1978 0.951 . S
C1996 C1997 1.366 . S
C1996 C1998 1.388 . S
C1997 C1996 1.366 . S
C1997 C2001 1.385 . S
C1998 H1979 0.951 . S
C1998 C1996 1.388 . S
C1998 C1999 1.366 . S
C1999 C1998 1.366 . S
C1999 C2000 1.414 . S
C1999 C2002 1.499 . S
C2000 H1980 0.950 . S
C2000 C1999 1.414 . S
C2000 C2001 1.374 . S
C2001 H1981 0.950 . S
C2001 C1997 1.385 . S
C2001 C2000 1.374 . S
C2002 C1999 1.499 . S
C2002 C2003 1.373 . S
C2002 C2004 1.389 . S
C2003 H1982 0.950 . S
C2003 C2002 1.373 . S
C2003 C2019 1.377 . S
C2004 C2002 1.389 . S
C2004 C2005 1.524 . S
C2004 C2018 1.377 . S
C2005 C2004 1.524 . S
C2005 C2006 1.397 . S
C2005 C2010 1.363 . S
C2006 H1983 0.950 . S
C2006 C2005 1.397 . S
C2006 C2007 1.334 . S
C2007 H1984 0.950 . S
C2007 C2006 1.334 . S
C2007 C2008 1.287 . S
C2008 C2007 1.287 . S
C2008 C2009 1.524 . S
C2008 H2027 0.913 . S
C2009 H1985 0.950 . S
C2009 C2008 1.524 . S
C2009 C2010 1.415 . S
C2010 H1986 0.950 . S
C2010 C2005 1.363 . S
C2010 C2009 1.415 . S
C2011 H1987 0.951 . S
C2011 C2012 1.366 . S
C2011 C2013 1.388 . S
C2012 C2011 1.366 . S
C2012 C2016 1.385 . S
C2013 H1988 0.951 . S
C2013 C2011 1.388 . S
C2013 C2014 1.366 . S
C2014 C2013 1.366 . S
C2014 C2015 1.414 . S
C2014 C2017 1.499 . S
C2015 H1989 0.950 . S
C2015 C2014 1.414 . S
C2015 C2016 1.374 . S
C2016 H1990 0.950 . S
C2016 C2012 1.385 . S
C2016 C2015 1.374 . S
C2017 C2014 1.499 . S
C2017 C2018 1.373 . S
C2017 C2019 1.389 . S
C2018 H1991 0.950 . S
C2018 C2004 1.377 . S
C2018 C2017 1.373 . S
C2019 C2003 1.377 . S
C2019 C2017 1.389 . S
C2019 C2020 1.524 . S
C2020 C2019 1.524 . S
C2020 C2021 1.397 . S
C2020 C2025 1.363 . S
C2021 H1992 0.950 . S
C2021 C2020 1.397 . S
C2021 C2022 1.334 . S
C2022 H1993 0.950 . S
C2022 C2021 1.334 . S
C2022 C2023 1.287 . S
C2023 C2022 1.287 . S
C2023 C2024 1.524 . S
C2023 H2026 0.999 . S
C2024 H1994 0.950 . S
C2024 C2023 1.524 . S
C2024 C2025 1.415 . S
C2025 H1995 0.950 . S
C2025 C2020 1.363 . S
C2025 C2024 1.415 . S
H2026 C2023 0.999 . S
H2027 C2008 0.913 . S
H2028 C2046 0.951 . S
H2029 C2048 0.951 . S
H2030 C2050 0.950 . S
H2031 C2051 0.950 . S
H2032 C2053 0.950 . S
H2033 C2056 0.950 . S
H2034 C2057 0.950 . S
H2035 C2059 0.950 1_455 S
H2036 C2060 0.950 . S
H2037 C2061 0.951 . S
H2038 C2063 0.951 . S
H2039 C2065 0.950 . S
H2040 C2066 0.950 . S
H2041 C2068 0.950 . S
H2042 C2071 0.950 . S
H2043 C2072 0.950 . S
H2044 C2074 0.950 . S
H2045 C2075 0.950 . S
C2046 H2028 0.951 . S
C2046 C2047 1.366 1_455 S
C2046 C2048 1.388 1_455 S
C2047 C2046 1.366 1_655 S
C2047 C2051 1.385 . S
C2048 H2029 0.951 . S
C2048 C2046 1.388 1_655 S
C2048 C2049 1.366 . S
C2049 C2048 1.366 . S
C2049 C2050 1.414 . S
C2049 C2052 1.499 . S
C2050 H2030 0.950 . S
C2050 C2049 1.414 . S
C2050 C2051 1.374 . S
C2051 H2031 0.950 . S
C2051 C2047 1.385 . S
C2051 C2050 1.374 . S
C2052 C2049 1.499 . S
C2052 C2053 1.373 . S
C2052 C2054 1.389 . S
C2053 H2032 0.950 . S
C2053 C2052 1.373 . S
C2053 C2069 1.377 . S
C2054 C2052 1.389 . S
C2054 C2055 1.524 . S
C2054 C2068 1.377 . S
C2055 C2054 1.524 . S
C2055 C2056 1.397 . S
C2055 C2060 1.363 . S
C2056 H2033 0.950 . S
C2056 C2055 1.397 . S
C2056 C2057 1.334 . S
C2057 H2034 0.950 . S
C2057 C2056 1.334 . S
C2057 C2058 1.287 . S
C2058 C2057 1.287 . S
C2058 C2059 1.524 . S
C2058 H2077 0.933 . S
C2059 H2035 0.950 1_655 S
C2059 C2058 1.524 . S
C2059 C2060 1.415 . S
C2060 H2036 0.950 . S
C2060 C2055 1.363 . S
C2060 C2059 1.415 . S
C2061 H2037 0.951 . S
C2061 C2062 1.366 . S
C2061 C2063 1.388 . S
C2062 C2061 1.366 . S
C2062 C2066 1.385 . S
C2063 H2038 0.951 . S
C2063 C2061 1.388 . S
C2063 C2064 1.366 . S
C2064 C2063 1.366 . S
C2064 C2065 1.414 . S
C2064 C2067 1.499 . S
C2065 H2039 0.950 . S
C2065 C2064 1.414 . S
C2065 C2066 1.374 . S
C2066 H2040 0.950 . S
C2066 C2062 1.385 . S
C2066 C2065 1.374 . S
C2067 C2064 1.499 . S
C2067 C2068 1.373 . S
C2067 C2069 1.389 . S
C2068 H2041 0.950 . S
C2068 C2054 1.377 . S
C2068 C2067 1.373 . S
C2069 C2053 1.377 . S
C2069 C2067 1.389 . S
C2069 C2070 1.524 . S
C2070 C2069 1.524 . S
C2070 C2071 1.397 . S
C2070 C2075 1.363 . S
C2071 H2042 0.950 . S
C2071 C2070 1.397 . S
C2071 C2072 1.334 . S
C2072 H2043 0.950 . S
C2072 C2071 1.334 . S
C2072 C2073 1.287 . S
C2073 C2072 1.287 . S
C2073 C2074 1.524 . S
C2073 H2076 0.999 . S
C2074 H2044 0.950 . S
C2074 C2073 1.524 . S
C2074 C2075 1.415 . S
C2075 H2045 0.950 . S
C2075 C2070 1.363 . S
C2075 C2074 1.415 . S
H2076 C2073 0.999 . S
H2077 C2058 0.933 . S
H2078 C2096 0.951 . S
H2079 C2098 0.951 . S
H2080 C2100 0.950 . S
H2081 C2101 0.950 . S
H2082 C2103 0.950 . S
H2083 C2106 0.950 . S
H2084 C2107 0.950 . S
H2085 C2109 0.950 . S
H2086 C2110 0.950 . S
H2087 C2111 0.951 1_545 S
H2088 C2113 0.951 . S
H2089 C2115 0.950 . S
H2090 C2116 0.950 . S
H2091 C2118 0.950 . S
H2092 C2121 0.950 . S
H2093 C2122 0.950 . S
H2094 C2124 0.950 . S
H2095 C2125 0.950 . S
C2096 H2078 0.951 . S
C2096 C2097 1.366 . S
C2096 C2098 1.388 . S
C2097 C2096 1.366 . S
C2097 C2101 1.385 . S
C2098 H2079 0.951 . S
C2098 C2096 1.388 . S
C2098 C2099 1.366 . S
C2099 C2098 1.366 . S
C2099 C2100 1.414 . S
C2099 C2102 1.499 . S
C2100 H2080 0.950 . S
C2100 C2099 1.414 . S
C2100 C2101 1.374 . S
C2101 H2081 0.950 . S
C2101 C2097 1.385 . S
C2101 C2100 1.374 . S
C2102 C2099 1.499 . S
C2102 C2103 1.373 . S
C2102 C2104 1.389 . S
C2103 H2082 0.950 . S
C2103 C2102 1.373 . S
C2103 C2119 1.377 . S
C2104 C2102 1.389 . S
C2104 C2105 1.524 . S
C2104 C2118 1.377 . S
C2105 C2104 1.524 . S
C2105 C2106 1.397 . S
C2105 C2110 1.363 . S
C2106 H2083 0.950 . S
C2106 C2105 1.397 . S
C2106 C2107 1.334 . S
C2107 H2084 0.950 . S
C2107 C2106 1.334 . S
C2107 C2108 1.287 . S
C2108 C2107 1.287 . S
C2108 C2109 1.524 . S
C2108 H2127 0.913 . S
C2109 H2085 0.950 . S
C2109 C2108 1.524 . S
C2109 C2110 1.415 . S
C2110 H2086 0.950 . S
C2110 C2105 1.363 . S
C2110 C2109 1.415 . S
C2111 H2087 0.951 1_565 S
C2111 C2112 1.366 . S
C2111 C2113 1.388 . S
C2112 C2111 1.366 . S
C2112 C2116 1.385 . S
C2113 H2088 0.951 . S
C2113 C2111 1.388 . S
C2113 C2114 1.366 . S
C2114 C2113 1.366 . S
C2114 C2115 1.414 . S
C2114 C2117 1.499 . S
C2115 H2089 0.950 . S
C2115 C2114 1.414 . S
C2115 C2116 1.374 . S
C2116 H2090 0.950 . S
C2116 C2112 1.385 . S
C2116 C2115 1.374 . S
C2117 C2114 1.499 . S
C2117 C2118 1.373 . S
C2117 C2119 1.389 . S
C2118 H2091 0.950 . S
C2118 C2104 1.377 . S
C2118 C2117 1.373 . S
C2119 C2103 1.377 . S
C2119 C2117 1.389 . S
C2119 C2120 1.524 . S
C2120 C2119 1.524 . S
C2120 C2121 1.397 . S
C2120 C2125 1.363 . S
C2121 H2092 0.950 . S
C2121 C2120 1.397 . S
C2121 C2122 1.334 . S
C2122 H2093 0.950 . S
C2122 C2121 1.334 . S
C2122 C2123 1.287 . S
C2123 C2122 1.287 . S
C2123 C2124 1.524 . S
C2123 H2126 0.999 . S
C2124 H2094 0.950 . S
C2124 C2123 1.524 . S
C2124 C2125 1.415 . S
C2125 H2095 0.950 . S
C2125 C2120 1.363 . S
C2125 C2124 1.415 . S
H2126 C2123 0.999 . S
H2127 C2108 0.913 . S
H2128 C2146 0.951 . S
H2129 C2148 0.951 . S
H2130 C2150 0.950 . S
H2131 C2151 0.950 . S
H2132 C2153 0.950 . S
H2133 C2156 0.950 . S
H2134 C2157 0.950 . S
H2135 C2159 0.950 . S
H2136 C2160 0.950 . S
H2137 C2161 0.951 . S
H2138 C2163 0.951 . S
H2139 C2165 0.950 . S
H2140 C2166 0.950 . S
H2141 C2168 0.950 . S
H2142 C2171 0.950 . S
H2143 C2172 0.950 . S
H2144 C2174 0.950 . S
H2145 C2175 0.950 . S
C2146 H2128 0.951 . S
C2146 C2147 1.366 . S
C2146 C2148 1.388 . S
C2147 C2146 1.366 . S
C2147 C2151 1.385 . S
C2148 H2129 0.951 . S
C2148 C2146 1.388 . S
C2148 C2149 1.366 . S
C2149 C2148 1.366 . S
C2149 C2150 1.414 . S
C2149 C2152 1.499 . S
C2150 H2130 0.950 . S
C2150 C2149 1.414 . S
C2150 C2151 1.374 . S
C2151 H2131 0.950 . S
C2151 C2147 1.385 . S
C2151 C2150 1.374 . S
C2152 C2149 1.499 . S
C2152 C2153 1.373 . S
C2152 C2154 1.389 . S
C2153 H2132 0.950 . S
C2153 C2152 1.373 . S
C2153 C2169 1.377 . S
C2154 C2152 1.389 . S
C2154 C2155 1.524 . S
C2154 C2168 1.377 . S
C2155 C2154 1.524 . S
C2155 C2156 1.397 . S
C2155 C2160 1.363 . S
C2156 H2133 0.950 . S
C2156 C2155 1.397 . S
C2156 C2157 1.334 . S
C2157 H2134 0.950 . S
C2157 C2156 1.334 . S
C2157 C2158 1.287 . S
C2158 C2157 1.287 . S
C2158 C2159 1.524 . S
C2158 H2177 0.913 . S
C2159 H2135 0.950 . S
C2159 C2158 1.524 . S
C2159 C2160 1.415 . S
C2160 H2136 0.950 . S
C2160 C2155 1.363 . S
C2160 C2159 1.415 . S
C2161 H2137 0.951 . S
C2161 C2162 1.366 . S
C2161 C2163 1.388 . S
C2162 C2161 1.366 . S
C2162 C2166 1.385 . S
C2163 H2138 0.951 . S
C2163 C2161 1.388 . S
C2163 C2164 1.366 . S
C2164 C2163 1.366 . S
C2164 C2165 1.414 . S
C2164 C2167 1.499 . S
C2165 H2139 0.950 . S
C2165 C2164 1.414 . S
C2165 C2166 1.374 . S
C2166 H2140 0.950 . S
C2166 C2162 1.385 . S
C2166 C2165 1.374 . S
C2167 C2164 1.499 . S
C2167 C2168 1.373 . S
C2167 C2169 1.389 . S
C2168 H2141 0.950 . S
C2168 C2154 1.377 . S
C2168 C2167 1.373 . S
C2169 C2153 1.377 . S
C2169 C2167 1.389 . S
C2169 C2170 1.524 . S
C2170 C2169 1.524 . S
C2170 C2171 1.397 . S
C2170 C2175 1.363 . S
C2171 H2142 0.950 . S
C2171 C2170 1.397 . S
C2171 C2172 1.334 . S
C2172 H2143 0.950 . S
C2172 C2171 1.334 . S
C2172 C2173 1.287 . S
C2173 C2172 1.287 . S
C2173 C2174 1.524 . S
C2173 H2176 0.999 . S
C2174 H2144 0.950 . S
C2174 C2173 1.524 . S
C2174 C2175 1.415 . S
C2175 H2145 0.950 . S
C2175 C2170 1.363 . S
C2175 C2174 1.415 . S
H2176 C2173 0.999 . S
H2177 C2158 0.913 . S
H2178 C2196 0.951 . S
H2179 C2198 0.951 . S
H2180 C2200 0.950 . S
H2181 C2201 0.950 . S
H2182 C2203 0.950 . S
H2183 C2206 0.950 . S
H2184 C2207 0.950 . S
H2185 C2209 0.950 . S
H2186 C2210 0.950 . S
H2187 C2211 0.951 . S
H2188 C2213 0.951 . S
H2189 C2215 0.950 . S
H2190 C2216 0.950 . S
H2191 C2218 0.950 . S
H2192 C2221 0.950 . S
H2193 C2222 0.950 . S
H2194 C2224 0.950 . S
H2195 C2225 0.950 . S
C2196 H2178 0.951 . S
C2196 C2197 1.366 . S
C2196 C2198 1.388 . S
C2197 C2196 1.366 . S
C2197 C2201 1.385 . S
C2198 H2179 0.951 . S
C2198 C2196 1.388 . S
C2198 C2199 1.366 . S
C2199 C2198 1.366 . S
C2199 C2200 1.414 . S
C2199 C2202 1.499 . S
C2200 H2180 0.950 . S
C2200 C2199 1.414 . S
C2200 C2201 1.374 . S
C2201 H2181 0.950 . S
C2201 C2197 1.385 . S
C2201 C2200 1.374 . S
C2202 C2199 1.499 . S
C2202 C2203 1.373 . S
C2202 C2204 1.389 . S
C2203 H2182 0.950 . S
C2203 C2202 1.373 . S
C2203 C2219 1.377 . S
C2204 C2202 1.389 . S
C2204 C2205 1.524 . S
C2204 C2218 1.377 . S
C2205 C2204 1.524 . S
C2205 C2206 1.397 . S
C2205 C2210 1.363 . S
C2206 H2183 0.950 . S
C2206 C2205 1.397 . S
C2206 C2207 1.334 . S
C2207 H2184 0.950 . S
C2207 C2206 1.334 . S
C2207 C2208 1.287 . S
C2208 C2207 1.287 . S
C2208 C2209 1.524 . S
C2208 H2227 0.913 . S
C2209 H2185 0.950 . S
C2209 C2208 1.524 . S
C2209 C2210 1.415 . S
C2210 H2186 0.950 . S
C2210 C2205 1.363 . S
C2210 C2209 1.415 . S
C2211 H2187 0.951 . S
C2211 C2212 1.366 . S
C2211 C2213 1.388 . S
C2212 C2211 1.366 . S
C2212 C2216 1.385 . S
C2213 H2188 0.951 . S
C2213 C2211 1.388 . S
C2213 C2214 1.366 . S
C2214 C2213 1.366 . S
C2214 C2215 1.414 . S
C2214 C2217 1.499 . S
C2215 H2189 0.950 . S
C2215 C2214 1.414 . S
C2215 C2216 1.374 . S
C2216 H2190 0.950 . S
C2216 C2212 1.385 . S
C2216 C2215 1.374 . S
C2217 C2214 1.499 . S
C2217 C2218 1.373 . S
C2217 C2219 1.389 . S
C2218 H2191 0.950 . S
C2218 C2204 1.377 . S
C2218 C2217 1.373 . S
C2219 C2203 1.377 . S
C2219 C2217 1.389 . S
C2219 C2220 1.524 . S
C2220 C2219 1.524 . S
C2220 C2221 1.397 . S
C2220 C2225 1.363 . S
C2221 H2192 0.950 . S
C2221 C2220 1.397 . S
C2221 C2222 1.334 . S
C2222 H2193 0.950 . S
C2222 C2221 1.334 . S
C2222 C2223 1.287 . S
C2223 C2222 1.287 . S
C2223 C2224 1.524 . S
C2223 H2226 0.999 . S
C2224 H2194 0.950 . S
C2224 C2223 1.524 . S
C2224 C2225 1.415 . S
C2225 H2195 0.950 . S
C2225 C2220 1.363 . S
C2225 C2224 1.415 . S
H2226 C2223 0.999 . S
H2227 C2208 0.913 . S
H2228 C2246 0.951 . S
H2229 C2248 0.951 . S
H2230 C2250 0.950 . S
H2231 C2251 0.950 . S
H2232 C2253 0.950 . S
H2233 C2256 0.950 . S
H2234 C2257 0.950 . S
H2235 C2259 0.950 . S
H2236 C2260 0.950 . S
H2237 C2261 0.951 . S
H2238 C2263 0.951 . S
H2239 C2265 0.950 . S
H2240 C2266 0.950 . S
H2241 C2268 0.950 . S
H2242 C2271 0.950 . S
H2243 C2272 0.950 . S
H2244 C2274 0.950 . S
H2245 C2275 0.950 . S
C2246 H2228 0.951 . S
C2246 C2247 1.366 . S
C2246 C2248 1.388 . S
C2247 C2246 1.366 . S
C2247 C2251 1.385 . S
C2248 H2229 0.951 . S
C2248 C2246 1.388 . S
C2248 C2249 1.366 . S
C2249 C2248 1.366 . S
C2249 C2250 1.414 . S
C2249 C2252 1.499 . S
C2250 H2230 0.950 . S
C2250 C2249 1.414 . S
C2250 C2251 1.374 . S
C2251 H2231 0.950 . S
C2251 C2247 1.385 . S
C2251 C2250 1.374 . S
C2252 C2249 1.499 . S
C2252 C2253 1.373 . S
C2252 C2254 1.389 . S
C2253 H2232 0.950 . S
C2253 C2252 1.373 . S
C2253 C2269 1.377 . S
C2254 C2252 1.389 . S
C2254 C2255 1.524 . S
C2254 C2268 1.377 . S
C2255 C2254 1.524 . S
C2255 C2256 1.397 . S
C2255 C2260 1.363 . S
C2256 H2233 0.950 . S
C2256 C2255 1.397 . S
C2256 C2257 1.334 . S
C2257 H2234 0.950 . S
C2257 C2256 1.334 . S
C2257 C2258 1.287 . S
C2258 C2257 1.287 . S
C2258 C2259 1.524 . S
C2258 H2277 0.913 . S
C2259 H2235 0.950 . S
C2259 C2258 1.524 . S
C2259 C2260 1.415 . S
C2260 H2236 0.950 . S
C2260 C2255 1.363 . S
C2260 C2259 1.415 . S
C2261 H2237 0.951 . S
C2261 C2262 1.366 . S
C2261 C2263 1.388 . S
C2262 C2261 1.366 . S
C2262 C2266 1.385 . S
C2263 H2238 0.951 . S
C2263 C2261 1.388 . S
C2263 C2264 1.366 . S
C2264 C2263 1.366 . S
C2264 C2265 1.414 . S
C2264 C2267 1.499 . S
C2265 H2239 0.950 . S
C2265 C2264 1.414 . S
C2265 C2266 1.374 . S
C2266 H2240 0.950 . S
C2266 C2262 1.385 . S
C2266 C2265 1.374 . S
C2267 C2264 1.499 . S
C2267 C2268 1.373 . S
C2267 C2269 1.389 . S
C2268 H2241 0.950 . S
C2268 C2254 1.377 . S
C2268 C2267 1.373 . S
C2269 C2253 1.377 . S
C2269 C2267 1.389 . S
C2269 C2270 1.524 . S
C2270 C2269 1.524 . S
C2270 C2271 1.397 . S
C2270 C2275 1.363 . S
C2271 H2242 0.950 . S
C2271 C2270 1.397 . S
C2271 C2272 1.334 . S
C2272 H2243 0.950 . S
C2272 C2271 1.334 . S
C2272 C2273 1.287 . S
C2273 C2272 1.287 . S
C2273 C2274 1.524 . S
C2273 H2276 0.999 . S
C2274 H2244 0.950 . S
C2274 C2273 1.524 . S
C2274 C2275 1.415 . S
C2275 H2245 0.950 . S
C2275 C2270 1.363 . S
C2275 C2274 1.415 . S
H2276 C2273 0.999 . S
H2277 C2258 0.913 . S
H2278 C2296 0.951 . S
H2279 C2298 0.951 . S
H2280 C2300 0.950 . S
H2281 C2301 0.950 . S
H2282 C2303 0.950 . S
H2283 C2306 0.950 . S
H2284 C2307 0.950 . S
H2285 C2309 0.950 . S
H2286 C2310 0.950 . S
H2287 C2311 0.951 . S
H2288 C2313 0.951 . S
H2289 C2315 0.950 . S
H2290 C2316 0.950 . S
H2291 C2318 0.950 . S
H2292 C2321 0.950 . S
H2293 C2322 0.950 . S
H2294 C2324 0.950 . S
H2295 C2325 0.950 . S
C2296 H2278 0.951 . S
C2296 C2297 1.366 . S
C2296 C2298 1.388 . S
C2297 C2296 1.366 . S
C2297 C2301 1.385 . S
C2298 H2279 0.951 . S
C2298 C2296 1.388 . S
C2298 C2299 1.366 . S
C2299 C2298 1.366 . S
C2299 C2300 1.414 . S
C2299 C2302 1.499 . S
C2300 H2280 0.950 . S
C2300 C2299 1.414 . S
C2300 C2301 1.374 . S
C2301 H2281 0.950 . S
C2301 C2297 1.385 . S
C2301 C2300 1.374 . S
C2302 C2299 1.499 . S
C2302 C2303 1.373 . S
C2302 C2304 1.389 . S
C2303 H2282 0.950 . S
C2303 C2302 1.373 . S
C2303 C2319 1.377 . S
C2304 C2302 1.389 . S
C2304 C2305 1.524 . S
C2304 C2318 1.377 . S
C2305 C2304 1.524 . S
C2305 C2306 1.397 . S
C2305 C2310 1.363 . S
C2306 H2283 0.950 . S
C2306 C2305 1.397 . S
C2306 C2307 1.334 . S
C2307 H2284 0.950 . S
C2307 C2306 1.334 . S
C2307 C2308 1.287 . S
C2308 C2307 1.287 . S
C2308 C2309 1.524 . S
C2308 H2327 0.913 . S
C2309 H2285 0.950 . S
C2309 C2308 1.524 . S
C2309 C2310 1.415 . S
C2310 H2286 0.950 . S
C2310 C2305 1.363 . S
C2310 C2309 1.415 . S
C2311 H2287 0.951 . S
C2311 C2312 1.366 . S
C2311 C2313 1.388 . S
C2312 C2311 1.366 . S
C2312 C2316 1.385 . S
C2313 H2288 0.951 . S
C2313 C2311 1.388 . S
C2313 C2314 1.366 . S
C2314 C2313 1.366 . S
C2314 C2315 1.414 . S
C2314 C2317 1.499 . S
C2315 H2289 0.950 . S
C2315 C2314 1.414 . S
C2315 C2316 1.374 . S
C2316 H2290 0.950 . S
C2316 C2312 1.385 . S
C2316 C2315 1.374 . S
C2317 C2314 1.499 . S
C2317 C2318 1.373 . S
C2317 C2319 1.389 . S
C2318 H2291 0.950 . S
C2318 C2304 1.377 . S
C2318 C2317 1.373 . S
C2319 C2303 1.377 . S
C2319 C2317 1.389 . S
C2319 C2320 1.524 . S
C2320 C2319 1.524 . S
C2320 C2321 1.397 . S
C2320 C2325 1.363 . S
C2321 H2292 0.950 . S
C2321 C2320 1.397 . S
C2321 C2322 1.334 . S
C2322 H2293 0.950 . S
C2322 C2321 1.334 . S
C2322 C2323 1.287 . S
C2323 C2322 1.287 . S
C2323 C2324 1.524 . S
C2323 H2326 0.999 . S
C2324 H2294 0.950 . S
C2324 C2323 1.524 . S
C2324 C2325 1.415 . S
C2325 H2295 0.950 . S
C2325 C2320 1.363 . S
C2325 C2324 1.415 . S
H2326 C2323 0.999 . S
H2327 C2308 0.913 . S
H2328 C2346 0.951 . S
H2329 C2348 0.951 . S
H2330 C2350 0.950 . S
H2331 C2351 0.950 1_455 S
H2332 C2353 0.950 . S
H2333 C2356 0.950 . S
H2334 C2357 0.950 . S
H2335 C2359 0.950 . S
H2336 C2360 0.950 . S
H2337 C2361 0.951 . S
H2338 C2363 0.951 . S
H2339 C2365 0.950 . S
H2340 C2366 0.950 . S
H2341 C2368 0.950 . S
H2342 C2371 0.950 . S
H2343 C2372 0.950 . S
H2344 C2374 0.950 . S
H2345 C2375 0.950 . S
C2346 H2328 0.951 . S
C2346 C2347 1.366 . S
C2346 C2348 1.388 . S
C2347 C2346 1.366 . S
C2347 C2351 1.385 . S
C2348 H2329 0.951 . S
C2348 C2346 1.388 . S
C2348 C2349 1.366 . S
C2349 C2348 1.366 . S
C2349 C2350 1.414 . S
C2349 C2352 1.499 . S
C2350 H2330 0.950 . S
C2350 C2349 1.414 . S
C2350 C2351 1.374 . S
C2351 H2331 0.950 1_655 S
C2351 C2347 1.385 . S
C2351 C2350 1.374 . S
C2352 C2349 1.499 . S
C2352 C2353 1.373 . S
C2352 C2354 1.389 . S
C2353 H2332 0.950 . S
C2353 C2352 1.373 . S
C2353 C2369 1.377 . S
C2354 C2352 1.389 . S
C2354 C2355 1.524 . S
C2354 C2368 1.377 . S
C2355 C2354 1.524 . S
C2355 C2356 1.397 . S
C2355 C2360 1.363 . S
C2356 H2333 0.950 . S
C2356 C2355 1.397 . S
C2356 C2357 1.334 . S
C2357 H2334 0.950 . S
C2357 C2356 1.334 . S
C2357 C2358 1.287 . S
C2358 C2357 1.287 . S
C2358 C2359 1.524 . S
C2358 H2377 0.913 . S
C2359 H2335 0.950 . S
C2359 C2358 1.524 . S
C2359 C2360 1.415 . S
C2360 H2336 0.950 . S
C2360 C2355 1.363 . S
C2360 C2359 1.415 . S
C2361 H2337 0.951 . S
C2361 C2362 1.366 . S
C2361 C2363 1.388 . S
C2362 C2361 1.366 . S
C2362 C2366 1.385 . S
C2363 H2338 0.951 . S
C2363 C2361 1.388 . S
C2363 C2364 1.366 . S
C2364 C2363 1.366 . S
C2364 C2365 1.414 . S
C2364 C2367 1.499 . S
C2365 H2339 0.950 . S
C2365 C2364 1.414 . S
C2365 C2366 1.374 . S
C2366 H2340 0.950 . S
C2366 C2362 1.385 . S
C2366 C2365 1.374 . S
C2367 C2364 1.499 . S
C2367 C2368 1.373 . S
C2367 C2369 1.389 . S
C2368 H2341 0.950 . S
C2368 C2354 1.377 . S
C2368 C2367 1.373 . S
C2369 C2353 1.377 . S
C2369 C2367 1.389 . S
C2369 C2370 1.524 . S
C2370 C2369 1.524 . S
C2370 C2371 1.397 . S
C2370 C2375 1.363 . S
C2371 H2342 0.950 . S
C2371 C2370 1.397 . S
C2371 C2372 1.334 . S
C2372 H2343 0.950 . S
C2372 C2371 1.334 . S
C2372 C2373 1.287 . S
C2373 C2372 1.287 . S
C2373 C2374 1.524 . S
C2373 H2376 0.999 . S
C2374 H2344 0.950 . S
C2374 C2373 1.524 . S
C2374 C2375 1.415 . S
C2375 H2345 0.950 . S
C2375 C2370 1.363 . S
C2375 C2374 1.415 . S
H2376 C2373 0.999 . S
H2377 C2358 0.913 . S
H2378 C2396 0.951 . S
H2379 C2398 0.951 . S
H2380 C2400 0.950 . S
H2381 C2401 0.950 . S
H2382 C2403 0.950 . S
H2383 C2406 0.950 . S
H2384 C2407 0.950 . S
H2385 C2409 0.950 . S
H2386 C2410 0.950 . S
H2387 C2411 0.951 . S
H2388 C2413 0.951 . S
H2389 C2415 0.950 . S
H2390 C2416 0.950 . S
H2391 C2418 0.950 . S
H2392 C2421 0.950 . S
H2393 C2422 0.950 . S
H2394 C2424 0.950 . S
H2395 C2425 0.950 . S
C2396 H2378 0.951 . S
C2396 C2397 1.366 . S
C2396 C2398 1.388 . S
C2397 C2396 1.366 . S
C2397 C2401 1.385 . S
C2398 H2379 0.951 . S
C2398 C2396 1.388 . S
C2398 C2399 1.366 . S
C2399 C2398 1.366 . S
C2399 C2400 1.414 . S
C2399 C2402 1.499 . S
C2400 H2380 0.950 . S
C2400 C2399 1.414 . S
C2400 C2401 1.374 . S
C2401 H2381 0.950 . S
C2401 C2397 1.385 . S
C2401 C2400 1.374 . S
C2402 C2399 1.499 . S
C2402 C2403 1.373 . S
C2402 C2404 1.389 . S
C2403 H2382 0.950 . S
C2403 C2402 1.373 . S
C2403 C2419 1.377 . S
C2404 C2402 1.389 . S
C2404 C2405 1.524 . S
C2404 C2418 1.377 . S
C2405 C2404 1.524 . S
C2405 C2406 1.397 . S
C2405 C2410 1.363 . S
C2406 H2383 0.950 . S
C2406 C2405 1.397 . S
C2406 C2407 1.334 . S
C2407 H2384 0.950 . S
C2407 C2406 1.334 . S
C2407 C2408 1.287 . S
C2408 C2407 1.287 . S
C2408 C2409 1.524 . S
C2408 H2427 0.913 . S
C2409 H2385 0.950 . S
C2409 C2408 1.524 . S
C2409 C2410 1.415 . S
C2410 H2386 0.950 . S
C2410 C2405 1.363 . S
C2410 C2409 1.415 . S
C2411 H2387 0.951 . S
C2411 C2412 1.366 . S
C2411 C2413 1.388 . S
C2412 C2411 1.366 . S
C2412 C2416 1.385 . S
C2413 H2388 0.951 . S
C2413 C2411 1.388 . S
C2413 C2414 1.366 . S
C2414 C2413 1.366 . S
C2414 C2415 1.414 . S
C2414 C2417 1.499 . S
C2415 H2389 0.950 . S
C2415 C2414 1.414 . S
C2415 C2416 1.374 . S
C2416 H2390 0.950 . S
C2416 C2412 1.385 . S
C2416 C2415 1.374 . S
C2417 C2414 1.499 . S
C2417 C2418 1.373 . S
C2417 C2419 1.389 . S
C2418 H2391 0.950 . S
C2418 C2404 1.377 . S
C2418 C2417 1.373 . S
C2419 C2403 1.377 . S
C2419 C2417 1.389 . S
C2419 C2420 1.524 . S
C2420 C2419 1.524 . S
C2420 C2421 1.397 . S
C2420 C2425 1.363 . S
C2421 H2392 0.950 . S
C2421 C2420 1.397 . S
C2421 C2422 1.334 . S
C2422 H2393 0.950 . S
C2422 C2421 1.334 . S
C2422 C2423 1.287 . S
C2423 C2422 1.287 . S
C2423 C2424 1.524 . S
C2423 H2426 0.999 . S
C2424 H2394 0.950 . S
C2424 C2423 1.524 . S
C2424 C2425 1.415 . S
C2425 H2395 0.950 . S
C2425 C2420 1.363 . S
C2425 C2424 1.415 . S
H2426 C2423 0.999 . S
H2427 C2408 0.913 . S
H2428 C2446 0.951 . S
H2429 C2448 0.951 . S
H2430 C2450 0.950 . S
H2431 C2451 0.950 . S
H2432 C2453 0.950 . S
H2433 C2456 0.950 . S
H2434 C2457 0.950 . S
H2435 C2459 0.950 . S
H2436 C2460 0.950 . S
H2437 C2461 0.951 . S
H2438 C2463 0.951 . S
H2439 C2465 0.950 . S
H2440 C2466 0.950 . S
H2441 C2468 0.950 . S
H2442 C2471 0.950 . S
H2443 C2472 0.950 . S
H2444 C2474 0.950 . S
H2445 C2475 0.950 . S
C2446 H2428 0.951 . S
C2446 C2447 1.366 . S
C2446 C2448 1.388 . S
C2447 C2446 1.366 . S
C2447 C2451 1.385 . S
C2448 H2429 0.951 . S
C2448 C2446 1.388 . S
C2448 C2449 1.366 . S
C2449 C2448 1.366 . S
C2449 C2450 1.414 . S
C2449 C2452 1.499 . S
C2450 H2430 0.950 . S
C2450 C2449 1.414 . S
C2450 C2451 1.374 . S
C2451 H2431 0.950 . S
C2451 C2447 1.385 . S
C2451 C2450 1.374 . S
C2452 C2449 1.499 . S
C2452 C2453 1.373 . S
C2452 C2454 1.389 . S
C2453 H2432 0.950 . S
C2453 C2452 1.373 . S
C2453 C2469 1.377 . S
C2454 C2452 1.389 . S
C2454 C2455 1.524 . S
C2454 C2468 1.377 . S
C2455 C2454 1.524 . S
C2455 C2456 1.397 . S
C2455 C2460 1.363 . S
C2456 H2433 0.950 . S
C2456 C2455 1.397 . S
C2456 C2457 1.334 . S
C2457 H2434 0.950 . S
C2457 C2456 1.334 . S
C2457 C2458 1.287 . S
C2458 C2457 1.287 . S
C2458 C2459 1.524 . S
C2458 H2477 0.913 . S
C2459 H2435 0.950 . S
C2459 C2458 1.524 . S
C2459 C2460 1.415 . S
C2460 H2436 0.950 . S
C2460 C2455 1.363 . S
C2460 C2459 1.415 . S
C2461 H2437 0.951 . S
C2461 C2462 1.366 . S
C2461 C2463 1.388 . S
C2462 C2461 1.366 . S
C2462 C2466 1.385 . S
C2463 H2438 0.951 . S
C2463 C2461 1.388 . S
C2463 C2464 1.366 . S
C2464 C2463 1.366 . S
C2464 C2465 1.414 . S
C2464 C2467 1.499 . S
C2465 H2439 0.950 . S
C2465 C2464 1.414 . S
C2465 C2466 1.374 . S
C2466 H2440 0.950 . S
C2466 C2462 1.385 . S
C2466 C2465 1.374 . S
C2467 C2464 1.499 . S
C2467 C2468 1.373 . S
C2467 C2469 1.389 . S
C2468 H2441 0.950 . S
C2468 C2454 1.377 . S
C2468 C2467 1.373 . S
C2469 C2453 1.377 . S
C2469 C2467 1.389 . S
C2469 C2470 1.524 . S
C2470 C2469 1.524 . S
C2470 C2471 1.397 . S
C2470 C2475 1.363 . S
C2471 H2442 0.950 . S
C2471 C2470 1.397 . S
C2471 C2472 1.334 . S
C2472 H2443 0.950 . S
C2472 C2471 1.334 . S
C2472 C2473 1.287 . S
C2473 C2472 1.287 . S
C2473 C2474 1.524 . S
C2473 H2476 0.999 . S
C2474 H2444 0.950 . S
C2474 C2473 1.524 . S
C2474 C2475 1.415 . S
C2475 H2445 0.950 . S
C2475 C2470 1.363 . S
C2475 C2474 1.415 . S
H2476 C2473 0.999 . S
H2477 C2458 0.913 . S
H2478 C2496 0.951 . S
H2479 C2498 0.951 . S
H2480 C2500 0.950 . S
H2481 C2501 0.950 . S
H2482 C2503 0.950 . S
H2483 C2506 0.950 . S
H2484 C2507 0.950 . S
H2485 C2509 0.950 . S
H2486 C2510 0.950 . S
H2487 C2511 0.951 . S
H2488 C2513 0.951 . S
H2489 C2515 0.950 . S
H2490 C2516 0.950 . S
H2491 C2518 0.950 . S
H2492 C2521 0.950 . S
H2493 C2522 0.950 . S
H2494 C2524 0.950 . S
H2495 C2525 0.950 . S
C2496 H2478 0.951 . S
C2496 C2497 1.366 . S
C2496 C2498 1.388 . S
C2497 C2496 1.366 . S
C2497 C2501 1.385 . S
C2498 H2479 0.951 . S
C2498 C2496 1.388 . S
C2498 C2499 1.366 . S
C2499 C2498 1.366 . S
C2499 C2500 1.414 . S
C2499 C2502 1.499 . S
C2500 H2480 0.950 . S
C2500 C2499 1.414 . S
C2500 C2501 1.374 . S
C2501 H2481 0.950 . S
C2501 C2497 1.385 . S
C2501 C2500 1.374 . S
C2502 C2499 1.499 . S
C2502 C2503 1.373 . S
C2502 C2504 1.389 . S
C2503 H2482 0.950 . S
C2503 C2502 1.373 . S
C2503 C2519 1.377 . S
C2504 C2502 1.389 . S
C2504 C2505 1.524 . S
C2504 C2518 1.377 . S
C2505 C2504 1.524 . S
C2505 C2506 1.397 . S
C2505 C2510 1.363 . S
C2506 H2483 0.950 . S
C2506 C2505 1.397 . S
C2506 C2507 1.334 . S
C2507 H2484 0.950 . S
C2507 C2506 1.334 . S
C2507 C2508 1.287 . S
C2508 C2507 1.287 . S
C2508 C2509 1.524 . S
C2508 H2527 0.913 . S
C2509 H2485 0.950 . S
C2509 C2508 1.524 . S
C2509 C2510 1.415 . S
C2510 H2486 0.950 . S
C2510 C2505 1.363 . S
C2510 C2509 1.415 . S
C2511 H2487 0.951 . S
C2511 C2512 1.366 . S
C2511 C2513 1.388 . S
C2512 C2511 1.366 . S
C2512 C2516 1.385 . S
C2513 H2488 0.951 . S
C2513 C2511 1.388 . S
C2513 C2514 1.366 . S
C2514 C2513 1.366 . S
C2514 C2515 1.414 . S
C2514 C2517 1.499 . S
C2515 H2489 0.950 . S
C2515 C2514 1.414 . S
C2515 C2516 1.374 . S
C2516 H2490 0.950 . S
C2516 C2512 1.385 . S
C2516 C2515 1.374 . S
C2517 C2514 1.499 . S
C2517 C2518 1.373 . S
C2517 C2519 1.389 . S
C2518 H2491 0.950 . S
C2518 C2504 1.377 . S
C2518 C2517 1.373 . S
C2519 C2503 1.377 . S
C2519 C2517 1.389 . S
C2519 C2520 1.524 . S
C2520 C2519 1.524 . S
C2520 C2521 1.397 . S
C2520 C2525 1.363 . S
C2521 H2492 0.950 . S
C2521 C2520 1.397 . S
C2521 C2522 1.334 . S
C2522 H2493 0.950 . S
C2522 C2521 1.334 . S
C2522 C2523 1.287 . S
C2523 C2522 1.287 . S
C2523 C2524 1.524 . S
C2523 H2526 0.999 . S
C2524 H2494 0.950 . S
C2524 C2523 1.524 . S
C2524 C2525 1.415 . S
C2525 H2495 0.950 . S
C2525 C2520 1.363 . S
C2525 C2524 1.415 . S
H2526 C2523 0.999 . S
H2527 C2508 0.913 . S
C547 C17 1.446 . S
C562 C215 1.446 . S
C597 C248 1.446 . S
C612 C50 1.446 . S
C647 C149 1.446 . S
C662 C83 1.446 . S
C697 C182 1.446 . S
C712 C116 1.446 . S
C747 C281 1.446 . S
C762 C479 1.446 . S
C797 C314 1.446 . S
C812 C512 1.446 . S
C847 C347 1.446 . S
C862 C413 1.446 . S
C897 C446 1.446 . S
C912 C380 1.446 . S
C947 C28 1.403 . S
C962 N104 1.379 . S
C997 C61 1.403 . S
C1012 N5 1.379 . S
C1047 N38 1.378 . S
C1062 C94 1.403 . S
C1097 C127 1.404 . S
C1112 N71 1.378 . S
C1147 N170 1.377 . S
C1162 C160 1.402 . S
C1197 N203 1.377 . S
C1212 C193 1.402 . S
C1247 N236 1.377 . S
C1262 C226 1.402 . S
C1297 N137 1.378 . S
C1312 C259 1.403 . S
C1347 C292 1.403 . S
C1362 N368 1.377 . S
C1397 N269 1.379 . S
C1412 C325 1.403 . S
C1447 C358 1.403 . S
C1462 N302 1.378 . S
C1497 C391 1.403 . S
C1512 N335 1.379 . S
C1547 C424 1.402 . S
C1562 N434 1.378 . S
C1597 C457 1.403 . S
C1612 N467 1.379 . S
C1647 C490 1.404 . S
C1662 N500 1.378 . S
C1697 N401 1.377 . S
C1712 C523 1.403 . S
C1747 N509 1.218 . S
C1762 N14 1.217 . S
C1797 N47 1.218 . S
C1812 N410 1.217 . S
C1847 N443 1.217 . S
C1862 N80 1.218 1_655 S
C1897 N113 1.217 1_565 S
C1912 N476 1.216 . S
C1947 N311 1.217 . S
C1962 N146 1.218 . S
C1997 N179 1.217 . S
C2012 N344 1.217 . S
C2047 N212 1.217 1_655 S
C2062 N377 1.217 . S
C2097 N278 1.217 . S
C2112 N245 1.218 1_565 S
C2147 C140 1.295 . S
C2162 C371 1.295 . S
C2197 C173 1.295 . S
C2212 C272 1.295 . S
C2247 C206 1.294 . S
C2262 C305 1.294 . S
C2297 C338 1.294 . S
C2312 C239 1.294 . S
C2347 C8 1.294 . S
C2362 C437 1.295 . S
C2397 C470 1.295 . S
C2412 C41 1.295 . S
C2447 C74 1.294 . S
C2462 C503 1.294 . S
C2497 C107 1.295 . S
C2512 C404 1.295 . S
