# Generated by pormake.
# Topology ukf, (4)-cn, num edge types: 1
# Building blocks:
#     Node 0, Type 0, BuildingBlock: ESEHIV_clean_sbu_0, # of connection points: 4
#     Node 1, Type 0, BuildingBlock: ESEHIV_clean_sbu_0, # of connection points: 4
#     Node 2, Type 0, BuildingBlock: ESEHIV_clean_sbu_0, # of connection points: 4
#     Node 3, Type 0, BuildingBlock: ESEHIV_clean_sbu_0, # of connection points: 4
#     Node 4, Type 0, BuildingBlock: ESEHIV_clean_sbu_0, # of connection points: 4
#     Node 5, Type 0, BuildingBlock: ESEHIV_clean_sbu_0, # of connection points: 4
#     Node 6, Type 0, BuildingBlock: ESEHIV_clean_sbu_0, # of connection points: 4
#     Node 7, Type 0, BuildingBlock: ESEHIV_clean_sbu_0, # of connection points: 4
#     Node 8, Type 0, BuildingBlock: ESEHIV_clean_sbu_0, # of connection points: 4
#     Node 9, Type 0, BuildingBlock: ESEHIV_clean_sbu_0, # of connection points: 4
#     Node 10, Type 0, BuildingBlock: ESEHIV_clean_sbu_0, # of connection points: 4
#     Node 11, Type 0, BuildingBlock: ESEHIV_clean_sbu_0, # of connection points: 4
#     Edge 12, Type (0, 0), BuildingBlock: UVAHIK_clean_linker_0, # of connection points: 2
#     Edge 13, Type (0, 0), BuildingBlock: UVAHIK_clean_linker_0, # of connection points: 2
#     Edge 14, Type (0, 0), BuildingBlock: UVAHIK_clean_linker_0, # of connection points: 2
#     Edge 15, Type (0, 0), BuildingBlock: UVAHIK_clean_linker_0, # of connection points: 2
#     Edge 16, Type (0, 0), BuildingBlock: UVAHIK_clean_linker_0, # of connection points: 2
#     Edge 17, Type (0, 0), BuildingBlock: UVAHIK_clean_linker_0, # of connection points: 2
#     Edge 18, Type (0, 0), BuildingBlock: UVAHIK_clean_linker_0, # of connection points: 2
#     Edge 19, Type (0, 0), BuildingBlock: UVAHIK_clean_linker_0, # of connection points: 2
#     Edge 20, Type (0, 0), BuildingBlock: UVAHIK_clean_linker_0, # of connection points: 2
#     Edge 21, Type (0, 0), BuildingBlock: UVAHIK_clean_linker_0, # of connection points: 2
#     Edge 22, Type (0, 0), BuildingBlock: UVAHIK_clean_linker_0, # of connection points: 2
#     Edge 23, Type (0, 0), BuildingBlock: UVAHIK_clean_linker_0, # of connection points: 2
#     Edge 24, Type (0, 0), BuildingBlock: UVAHIK_clean_linker_0, # of connection points: 2
#     Edge 25, Type (0, 0), BuildingBlock: UVAHIK_clean_linker_0, # of connection points: 2
#     Edge 26, Type (0, 0), BuildingBlock: UVAHIK_clean_linker_0, # of connection points: 2
#     Edge 27, Type (0, 0), BuildingBlock: UVAHIK_clean_linker_0, # of connection points: 2
#     Edge 28, Type (0, 0), BuildingBlock: UVAHIK_clean_linker_0, # of connection points: 2
#     Edge 29, Type (0, 0), BuildingBlock: UVAHIK_clean_linker_0, # of connection points: 2
#     Edge 30, Type (0, 0), BuildingBlock: UVAHIK_clean_linker_0, # of connection points: 2
#     Edge 31, Type (0, 0), BuildingBlock: UVAHIK_clean_linker_0, # of connection points: 2
#     Edge 32, Type (0, 0), BuildingBlock: UVAHIK_clean_linker_0, # of connection points: 2
#     Edge 33, Type (0, 0), BuildingBlock: UVAHIK_clean_linker_0, # of connection points: 2
#     Edge 34, Type (0, 0), BuildingBlock: UVAHIK_clean_linker_0, # of connection points: 2
#     Edge 35, Type (0, 0), BuildingBlock: UVAHIK_clean_linker_0, # of connection points: 2
# Relax obj value: 0.095
# Max RMSD: 0.292
# Mean RMSD: 0.290
data_MOF--net-ukf--node1-ESEHIV_clean_sbu_0--edge1-UVAHIK_clean_linker_0
_symmetry_space_group_name_H-M    P1
_symmetry_Int_Tables_number       1
_symmetry_cell_setting            triclinic
loop_
_symmetry_equiv_pos_as_xyz
'x, y, z'
_cell_length_a     45.919082
_cell_length_b     46.145776
_cell_length_c     91.717661
_cell_angle_alpha  90.051469
_cell_angle_beta   89.897902
_cell_angle_gamma 119.98047
loop_
_atom_site_label
_atom_site_type_symbol
_atom_site_fract_x
_atom_site_fract_y
_atom_site_fract_z
_atom_type_partial_charge
Cu0 Cu 0.46718 0.25614 0.07159 0.0
N1 N 0.42949 0.21411 0.06783 0.0
N2 N 0.39504 0.16395 0.05802 0.0
C3 C 0.423 0.1941 0.05609 0.0
C4 C 0.38327 0.16533 0.07134 0.0
C5 C 0.40443 0.19627 0.07731 0.0
O6 O 0.50634 0.26108 0.06113 0.0
C7 C 0.47672 0.23834 0.09998 0.0
O8 O 0.47287 0.21146 0.09331 0.0
H9 H 0.43929 0.2009 0.04665 0.0
H10 H 0.40234 0.20484 0.08804 0.0
N11 N 0.45904 0.28982 0.06509 0.0
N12 N 0.46419 0.3401 0.06137 0.0
C13 C 0.47414 0.32207 0.06943 0.0
C14 C 0.43878 0.28735 0.05401 0.0
C15 C 0.44192 0.31828 0.05168 0.0
C16 C 0.51258 0.23739 0.05919 0.0
O17 O 0.49229 0.20779 0.06478 0.0
H18 H 0.49296 0.33234 0.07793 0.0
H19 H 0.42342 0.26476 0.04784 0.0
O20 O 0.47557 0.26103 0.09253 0.0
H21 H 0.36116 0.14523 0.07649 0.0
H22 H 0.42898 0.3243 0.04341 0.0
Cu23 Cu 0.22823 0.45201 0.40681 0.0
N24 N 0.1847 0.44366 0.4029 0.0
N25 N 0.13874 0.44875 0.40175 0.0
C26 C 0.17118 0.46299 0.4061 0.0
C27 C 0.13177 0.41937 0.3956 0.0
C28 C 0.16009 0.41634 0.39632 0.0
O29 O 0.23615 0.45842 0.42764 0.0
C30 C 0.25516 0.50194 0.3847 0.0
O31 O 0.2239 0.48796 0.38017 0.0
H32 H 0.1848 0.48685 0.41161 0.0
H33 H 0.16265 0.3957 0.39227 0.0
N34 N 0.23163 0.41459 0.40175 0.0
N35 N 0.24871 0.38145 0.39169 0.0
C36 C 0.25012 0.41142 0.39109 0.0
C37 C 0.21796 0.3857 0.40925 0.0
C38 C 0.22844 0.36523 0.40309 0.0
C39 C 0.24442 0.4856 0.43434 0.0
O40 O 0.24848 0.51173 0.42694 0.0
H41 H 0.26525 0.4311 0.38341 0.0
H42 H 0.20207 0.38026 0.41875 0.0
O43 O 0.26203 0.49053 0.39601 0.0
H44 H 0.10808 0.40154 0.39067 0.0
H45 H 0.22182 0.34039 0.40676 0.0
Cu46 Cu 0.78764 0.22093 0.7416 0.0
N47 N 0.82922 0.22466 0.73727 0.0
N48 N 0.87933 0.24063 0.72709 0.0
C49 C 0.8494 0.23937 0.72567 0.0
C50 C 0.87764 0.22578 0.73999 0.0
C51 C 0.84676 0.21596 0.74621 0.0
O52 O 0.78428 0.25599 0.73136 0.0
C53 C 0.77693 0.24333 0.76928 0.0
O54 O 0.76792 0.26167 0.76168 0.0
H55 H 0.84287 0.2503 0.71671 0.0
H56 H 0.83802 0.20417 0.75673 0.0
N57 N 0.75314 0.17938 0.73522 0.0
N58 N 0.70247 0.13446 0.73151 0.0
C59 C 0.72041 0.16314 0.73914 0.0
C60 C 0.756 0.16031 0.72487 0.0
C61 C 0.72486 0.13265 0.72254 0.0
C62 C 0.80866 0.28596 0.73106 0.0
O63 O 0.83593 0.29379 0.73859 0.0
H64 H 0.70983 0.17267 0.74709 0.0
H65 H 0.7791 0.16641 0.71925 0.0
O66 O 0.78526 0.22431 0.76266 0.0
H67 H 0.89746 0.22259 0.74468 0.0
H68 H 0.71914 0.11277 0.71482 0.0
Cu69 Cu 0.5812 0.77778 0.07341 0.0
N70 N 0.61842 0.81983 0.06935 0.0
N71 N 0.65227 0.87027 0.05964 0.0
C72 C 0.62452 0.83995 0.05769 0.0
C73 C 0.66418 0.8689 0.0729 0.0
C74 C 0.64334 0.83785 0.07883 0.0
O75 O 0.54192 0.77272 0.06316 0.0
C76 C 0.54886 0.76981 0.10121 0.0
O77 O 0.52256 0.76512 0.09367 0.0
H78 H 0.60808 0.83313 0.04832 0.0
H79 H 0.64553 0.82929 0.08953 0.0
N80 N 0.58925 0.74401 0.06693 0.0
N81 N 0.58326 0.69344 0.063 0.0
C82 C 0.57339 0.7116 0.07104 0.0
C83 C 0.60993 0.74646 0.056 0.0
C84 C 0.60627 0.71534 0.05353 0.0
C85 C 0.53486 0.79602 0.06209 0.0
O86 O 0.5539 0.82462 0.06875 0.0
H87 H 0.55401 0.70129 0.07934 0.0
H88 H 0.62586 0.76915 0.04998 0.0
O89 O 0.57522 0.77463 0.09451 0.0
H90 H 0.68616 0.88913 0.07806 0.0
H91 H 0.61928 0.70923 0.04531 0.0
Cu92 Cu 0.82261 0.57559 0.40845 0.0
N93 N 0.86559 0.58317 0.40393 0.0
N94 N 0.91136 0.57784 0.40228 0.0
C95 C 0.87927 0.56399 0.40713 0.0
C96 C 0.91786 0.6067 0.39576 0.0
C97 C 0.88967 0.60987 0.39678 0.0
O98 O 0.81588 0.5707 0.42944 0.0
C99 C 0.75823 0.52744 0.39872 0.0
O100 O 0.7487 0.54429 0.40711 0.0
H101 H 0.86611 0.54064 0.41307 0.0
H102 H 0.88687 0.63023 0.39258 0.0
N103 N 0.8194 0.61285 0.40272 0.0
N104 N 0.80309 0.64601 0.39197 0.0
C105 C 0.79955 0.61507 0.39246 0.0
C106 C 0.83622 0.64337 0.40882 0.0
C107 C 0.82631 0.66384 0.40223 0.0
C108 C 0.80437 0.54307 0.43622 0.0
O109 O 0.79621 0.51564 0.42884 0.0
H110 H 0.78231 0.59422 0.38576 0.0
H111 H 0.85428 0.65013 0.41756 0.0
O112 O 0.78925 0.53631 0.39807 0.0
H113 H 0.94117 0.6241 0.39041 0.0
H114 H 0.83567 0.6899 0.40481 0.0
Cu115 Cu 0.26238 0.80846 0.7398 0.0
N116 N 0.22287 0.80894 0.73555 0.0
N117 N 0.17337 0.79612 0.7256 0.0
C118 C 0.19808 0.78834 0.72644 0.0
C119 C 0.18314 0.82264 0.73457 0.0
C120 C 0.21361 0.83044 0.74068 0.0
O121 O 0.25955 0.77009 0.72978 0.0
C122 C 0.25976 0.77938 0.76751 0.0
O123 O 0.25141 0.75221 0.7599 0.0
H124 H 0.19855 0.76848 0.72035 0.0
H125 H 0.22813 0.85045 0.74829 0.0
N126 N 0.29885 0.84738 0.73229 0.0
N127 N 0.35032 0.8909 0.72827 0.0
C128 C 0.33047 0.86574 0.73748 0.0
C129 C 0.29868 0.86153 0.71951 0.0
C130 C 0.33029 0.88829 0.717 0.0
C131 C 0.28475 0.76646 0.72719 0.0
O132 O 0.31448 0.78876 0.73214 0.0
H133 H 0.33898 0.86008 0.74751 0.0
H134 H 0.27711 0.85257 0.7124 0.0
O135 O 0.2661 0.80615 0.76087 0.0
H136 H 0.16915 0.83536 0.73669 0.0
H137 H 0.33794 0.90456 0.70757 0.0
Cu138 Cu 0.7864 0.57039 0.62126 0.0
N139 N 0.74937 0.57367 0.62743 0.0
N140 N 0.69702 0.56415 0.63061 0.0
C141 C 0.71743 0.55729 0.62247 0.0
C142 C 0.71692 0.58573 0.64097 0.0
C143 C 0.74912 0.59156 0.63896 0.0
O144 O 0.78652 0.56695 0.60013 0.0
C145 C 0.80871 0.5261 0.63055 0.0
O146 O 0.8358 0.5458 0.62296 0.0
H147 H 0.70912 0.53979 0.61347 0.0
H148 H 0.77079 0.60718 0.64565 0.0
N149 N 0.8256 0.60931 0.6269 0.0
N150 N 0.87347 0.64537 0.63815 0.0
C151 C 0.84801 0.61333 0.63734 0.0
C152 C 0.83717 0.63977 0.62098 0.0
C153 C 0.86661 0.66203 0.62787 0.0
C154 C 0.77259 0.53935 0.59322 0.0
O155 O 0.75675 0.51117 0.60055 0.0
H156 H 0.84555 0.59327 0.64427 0.0
H157 H 0.82507 0.64528 0.61216 0.0
O158 O 0.78441 0.53192 0.6308 0.0
H159 H 0.70872 0.59635 0.64946 0.0
H160 H 0.88211 0.68832 0.62528 0.0
Cu161 Cu 0.22813 0.78104 0.95285 0.0
N162 N 0.229 0.82097 0.95738 0.0
N163 N 0.24425 0.87108 0.96706 0.0
C164 C 0.24708 0.84333 0.96785 0.0
C165 C 0.22347 0.86581 0.95572 0.0
C166 C 0.2141 0.83491 0.9498 0.0
O167 O 0.26623 0.78241 0.96271 0.0
C168 C 0.23754 0.75918 0.92477 0.0
O169 O 0.24084 0.73639 0.93197 0.0
H170 H 0.26301 0.83988 0.97551 0.0
H171 H 0.19822 0.82369 0.94038 0.0
N172 N 0.1878 0.74485 0.95964 0.0
N173 N 0.14425 0.69334 0.96341 0.0
C174 C 0.17088 0.71295 0.95478 0.0
C175 C 0.1711 0.74544 0.97159 0.0
C176 C 0.14433 0.71381 0.97395 0.0
C177 C 0.26712 0.75675 0.96716 0.0
O178 O 0.24168 0.7268 0.96442 0.0
H179 H 0.17872 0.70401 0.94551 0.0
H180 H 0.17844 0.76728 0.97831 0.0
O181 O 0.23196 0.77975 0.93176 0.0
H182 H 0.21579 0.88317 0.95191 0.0
H183 H 0.12648 0.70641 0.98284 0.0
Cu184 Cu 0.47418 0.22398 0.28586 0.0
N185 N 0.43573 0.22743 0.28928 0.0
N186 N 0.40019 0.24203 0.29902 0.0
C187 C 0.42832 0.24009 0.30106 0.0
C188 C 0.38921 0.22952 0.28556 0.0
C189 C 0.41105 0.22042 0.27962 0.0
O190 O 0.51237 0.25901 0.29648 0.0
C191 C 0.48347 0.25019 0.25722 0.0
O192 O 0.47913 0.27323 0.2636 0.0
H193 H 0.44415 0.24924 0.31063 0.0
H194 H 0.40968 0.21038 0.26882 0.0
N195 N 0.46637 0.18252 0.29265 0.0
N196 N 0.4701 0.13654 0.29633 0.0
C197 C 0.48105 0.16483 0.28839 0.0
C198 C 0.44539 0.16481 0.30355 0.0
C199 C 0.44762 0.13651 0.30585 0.0
C200 C 0.51664 0.28826 0.29826 0.0
O201 O 0.49559 0.29603 0.29216 0.0
H202 H 0.49996 0.17299 0.27991 0.0
H203 H 0.4298 0.17221 0.30951 0.0
O204 O 0.48296 0.227 0.26494 0.0
H205 H 0.36721 0.22754 0.28029 0.0
H206 H 0.43364 0.11732 0.31389 0.0
Cu207 Cu 0.26118 0.4555 0.61874 0.0
N208 N 0.29383 0.44554 0.62501 0.0
N209 N 0.34336 0.44838 0.62856 0.0
C210 C 0.32636 0.46021 0.62091 0.0
C211 C 0.32055 0.42535 0.63775 0.0
C212 C 0.29007 0.42364 0.63552 0.0
O213 O 0.26472 0.46215 0.59773 0.0
C214 C 0.24529 0.50347 0.6298 0.0
O215 O 0.2173 0.48632 0.62238 0.0
H216 H 0.33756 0.47995 0.61284 0.0
H217 H 0.26689 0.40801 0.64135 0.0
N218 N 0.2184 0.41928 0.62265 0.0
N219 N 0.1676 0.38627 0.63241 0.0
C220 C 0.19798 0.41411 0.63415 0.0
C221 C 0.20051 0.39374 0.61346 0.0
C222 C 0.16923 0.37339 0.61942 0.0
C223 C 0.27407 0.48979 0.59124 0.0
O224 O 0.28325 0.517 0.59895 0.0
H225 H 0.2048 0.43107 0.64332 0.0
H226 H 0.20944 0.3906 0.60298 0.0
O227 O 0.2675 0.49471 0.62929 0.0
H228 H 0.32556 0.41085 0.64558 0.0
H229 H 0.14916 0.35092 0.61452 0.0
Cu230 Cu 0.82523 0.25315 0.95381 0.0
N231 N 0.82313 0.21268 0.95839 0.0
N232 N 0.80663 0.16244 0.96823 0.0
C233 C 0.80469 0.19071 0.96893 0.0
C234 C 0.8272 0.16697 0.95687 0.0
C235 C 0.83735 0.19795 0.95084 0.0
O236 O 0.78728 0.25268 0.96344 0.0
C237 C 0.8131 0.27316 0.92595 0.0
O238 O 0.80567 0.29295 0.9334 0.0
H239 H 0.78918 0.19486 0.9766 0.0
H240 H 0.85332 0.2087 0.9414 0.0
N241 N 0.86571 0.28879 0.9607 0.0
N242 N 0.90999 0.33986 0.96441 0.0
C243 C 0.88318 0.32063 0.95583 0.0
C244 C 0.88217 0.28779 0.97262 0.0
C245 C 0.9094 0.31914 0.97494 0.0
C246 C 0.78702 0.27857 0.96804 0.0
O247 O 0.81322 0.30828 0.9657 0.0
H248 H 0.87565 0.32977 0.94653 0.0
H249 H 0.87445 0.26584 0.97932 0.0
O250 O 0.82224 0.25498 0.93272 0.0
H251 H 0.83429 0.14909 0.95312 0.0
H252 H 0.92731 0.32614 0.98376 0.0
Cu253 Cu 0.57959 0.80774 0.28681 0.0
N254 N 0.6183 0.80704 0.2925 0.0
N255 N 0.65273 0.79171 0.30282 0.0
C256 C 0.62046 0.7841 0.30083 0.0
C257 C 0.67141 0.82061 0.29546 0.0
C258 C 0.65015 0.82995 0.28913 0.0
O259 O 0.54144 0.76956 0.29594 0.0
C260 C 0.55095 0.79875 0.25828 0.0
O261 O 0.5238 0.79392 0.26517 0.0
H262 H 0.59873 0.76218 0.30521 0.0
H263 H 0.65735 0.85204 0.28261 0.0
N264 N 0.58274 0.84745 0.29366 0.0
N265 N 0.57486 0.89104 0.29724 0.0
C266 C 0.56927 0.86541 0.2883 0.0
C267 C 0.59758 0.86245 0.30625 0.0
C268 C 0.59278 0.88924 0.3085 0.0
C269 C 0.51405 0.76874 0.29913 0.0
O270 O 0.51014 0.79419 0.29565 0.0
H271 H 0.5545 0.859 0.27841 0.0
H272 H 0.61035 0.85392 0.31348 0.0
O273 O 0.57703 0.80514 0.2656 0.0
H274 H 0.69858 0.83448 0.29488 0.0
H275 H 0.60153 0.90593 0.31779 0.0
C276 C 0.26794 0.8989 0.99069 0.0
C277 C 0.26113 0.90087 0.97592 0.0
C278 C 0.28364 0.92779 0.99932 0.0
C279 C 0.3037 0.01703 1.00008 0.0
H280 H 0.36309 0.02382 0.03153 0.0
C281 C 0.38391 0.13915 0.03326 0.0
C282 C 0.38186 0.13524 0.04849 0.0
C283 C 0.37035 0.11109 0.02408 0.0
C284 C 0.34646 0.02221 0.02281 0.0
H285 H 0.26654 0.93484 0.95849 0.0
H286 H 0.29478 0.98523 0.97331 0.0
H287 H 0.33772 0.97411 0.01612 0.0
H288 H 0.36496 0.09891 0.06601 0.0
H289 H 0.34171 0.05007 0.05003 0.0
H290 H 0.31318 0.0656 1.00669 0.0
C291 C 0.28702 0.96136 0.97846 0.0
C292 C 0.3317 0.9936 0.01401 0.0
C293 C 0.2709 0.93243 0.96991 0.0
C294 C 0.36656 0.10273 0.05433 0.0
C295 C 0.35352 0.07477 0.04518 0.0
C296 C 0.31885 0.04584 1.00877 0.0
C297 C 0.29341 0.95951 0.99334 0.0
C298 C 0.30986 0.99042 1.00257 0.0
C299 C 0.35504 0.07859 0.02995 0.0
C300 C 0.34018 0.04864 0.0203 0.0
H301 H 0.26041 0.87489 0.99565 0.0
H302 H 0.28751 0.92509 1.01077 0.0
H303 H 0.28659 1.01544 0.99161 0.0
H304 H 0.39544 0.16387 0.02846 0.0
H305 H 0.37205 0.11481 1.01238 0.0
C306 C 0.27732 0.3486 0.3884 0.0
C307 C 0.26619 0.36953 0.38259 0.0
C308 C 0.29345 0.33617 0.37958 0.0
C309 C 0.33554 0.34785 0.34339 0.0
H310 H 0.31855 0.25799 0.35088 0.0
C311 C 0.37057 0.27383 0.30281 0.0
C312 C 0.38639 0.25699 0.30859 0.0
C313 C 0.35735 0.28858 0.31202 0.0
C314 C 0.32379 0.28323 0.34874 0.0
H315 H 0.26333 0.39391 0.36295 0.0
H316 H 0.29055 0.37145 0.34736 0.0
H317 H 0.29239 0.28158 0.36631 0.0
H318 H 0.40059 0.24235 0.32857 0.0
H319 H 0.37699 0.26777 0.34473 0.0
H320 H 0.36613 0.34882 0.32549 0.0
C321 C 0.28763 0.36523 0.35884 0.0
C322 C 0.30889 0.2969 0.35763 0.0
C323 C 0.27188 0.37805 0.36775 0.0
C324 C 0.38867 0.25525 0.32381 0.0
C325 C 0.37498 0.26961 0.33304 0.0
C326 C 0.35007 0.33398 0.33439 0.0
C327 C 0.2985 0.34392 0.36462 0.0
C328 C 0.31456 0.32945 0.35511 0.0
C329 C 0.35923 0.2865 0.32723 0.0
C330 C 0.34437 0.30152 0.33697 0.0
H331 H 0.27387 0.3421 0.39986 0.0
H332 H 0.30216 0.32062 0.38457 0.0
H333 H 0.34108 0.37317 0.34123 0.0
H334 H 0.36879 0.27599 0.29114 0.0
H335 H 0.34517 0.30122 0.30722 0.0
C336 C 0.90375 0.25793 0.70235 0.0
C337 C 0.90802 0.25657 0.71746 0.0
C338 C 0.93168 0.27297 0.69304 0.0
C339 C 1.02271 0.33376 0.69235 0.0
H340 H 1.0227 0.28723 0.65716 0.0
C341 C 0.14266 0.37782 0.65712 0.0
C342 C 0.13874 0.3736 0.64194 0.0
C343 C 0.1145 0.36445 0.66633 0.0
C344 C 1.02303 0.30091 0.66681 0.0
H345 H 0.94506 0.27082 0.73465 0.0
H346 H 0.99367 0.29704 0.71844 0.0
H347 H 0.97343 0.26278 0.67296 0.0
H348 H 0.10213 0.35324 0.62451 0.0
H349 H 0.05322 0.33066 0.64041 0.0
H350 H 0.07207 0.37213 0.68616 0.0
C351 C 0.96875 0.28639 0.71378 0.0
C352 C 0.99473 0.28679 0.67589 0.0
C353 C 0.94086 0.27104 0.72306 0.0
C354 C 0.10605 0.35634 0.63617 0.0
C355 C 0.07795 0.34329 0.64532 0.0
C356 C 0.05092 0.34808 0.6832 0.0
C357 C 0.96451 0.28739 0.69866 0.0
C358 C 0.99428 0.30296 0.6888 0.0
C359 C 0.08171 0.34682 0.66056 0.0
C360 C 0.05155 0.3318 0.67031 0.0
H361 H 0.8788 0.24689 0.69771 0.0
H362 H 0.9276 0.27356 0.68144 0.0
H363 H 1.02299 0.34703 0.70215 0.0
H364 H 0.16752 0.39076 0.6619 0.0
H365 H 0.11851 0.36733 0.67799 0.0
C366 C 0.66413 0.8956 0.03497 0.0
C367 C 0.66532 0.89912 0.0502 0.0
C368 C 0.67827 0.92389 0.02591 0.0
C369 C 0.73847 0.01619 0.027 0.0
H370 H 0.7003 1.01481 0.98918 0.0
C371 C 0.78247 0.13557 0.992 0.0
C372 C 0.78931 0.13296 0.97726 0.0
C373 C 0.76645 0.107 1.00082 0.0
C374 C 0.71132 1.0155 0.99969 0.0
H375 H 0.68075 0.93495 0.06786 0.0
H376 H 0.70427 0.98402 0.05223 0.0
H377 H 0.6736 0.96514 1.00464 0.0
H378 H 0.78374 0.09816 0.96014 0.0
H379 H 0.75552 0.04831 0.97549 0.0
H380 H 0.77576 0.06684 0.02212 0.0
C381 C 0.69372 0.95964 0.04716 0.0
C382 C 0.69613 0.98694 1.00855 0.0
C383 C 0.68008 0.93144 0.05617 0.0
C384 C 0.77919 0.10106 0.97149 0.0
C385 C 0.76274 0.07247 0.98024 0.0
C386 C 0.75335 0.04482 0.01823 0.0
C387 C 0.6935 0.95639 0.03189 0.0
C388 C 0.70951 0.98682 0.02235 0.0
C389 C 0.75642 0.07512 0.99504 0.0
C390 C 0.74003 0.0448 1.00446 0.0
H391 H 0.65309 0.87099 0.03008 0.0
H392 H 0.6779 0.92023 0.01424 0.0
H393 H 0.75011 0.01703 0.03737 0.0
H394 H 0.7901 0.15979 0.99678 0.0
H395 H 0.76173 0.10983 1.01216 0.0
C396 C 0.69694 0.77743 0.30837 0.0
C397 C 0.66497 0.77339 0.31119 0.0
C398 C 0.70937 0.76067 0.31673 0.0
C399 C 0.69896 0.71998 0.35262 0.0
H400 H 0.75416 0.68752 0.33506 0.0
C401 C 0.7819 0.68505 0.3871 0.0
C402 C 0.78522 0.65753 0.38284 0.0
C403 C 0.76512 0.69665 0.37825 0.0
C404 C 0.7385 0.69608 0.34014 0.0
H405 H 0.62096 0.74798 0.32507 0.0
H406 H 0.64236 0.71827 0.33947 0.0
H407 H 0.72812 0.71126 0.31966 0.0
H408 H 0.77311 0.62063 0.3658 0.0
H409 H 0.74332 0.64053 0.35046 0.0
H410 H 0.70902 0.70447 0.37308 0.0
C411 C 0.65802 0.73482 0.33087 0.0
C412 C 0.72388 0.71011 0.33131 0.0
C413 C 0.64556 0.75161 0.32249 0.0
C414 C 0.77093 0.64172 0.3695 0.0
C415 C 0.75411 0.65337 0.36062 0.0
C416 C 0.71356 0.70595 0.36144 0.0
C417 C 0.6902 0.7393 0.32817 0.0
C418 C 0.70421 0.72259 0.33745 0.0
C419 C 0.75105 0.68106 0.36487 0.0
C420 C 0.73387 0.69417 0.35535 0.0
H421 H 0.71249 0.79356 0.29966 0.0
H422 H 0.73439 0.76507 0.31441 0.0
H423 H 0.68424 0.72955 0.35777 0.0
H424 H 0.79209 0.69764 0.39735 0.0
H425 H 0.76367 0.71827 0.38182 0.0
C426 C 0.91899 0.69304 0.65152 0.0
C427 C 0.90251 0.65905 0.64759 0.0
C428 C 0.94799 0.70683 0.66011 0.0
C429 C 0.99731 0.68487 0.68534 0.0
H430 H 0.06876 0.77446 0.67595 0.0
C431 C 0.12901 0.74622 0.71272 0.0
C432 C 0.14321 0.78 0.71683 0.0
C433 C 0.09968 0.73067 0.70428 0.0
C434 C 0.04895 0.74954 0.67882 0.0
H435 H 0.90365 0.61286 0.64975 0.0
H436 H 0.95447 0.63696 0.66465 0.0
H437 H 1.01764 0.74871 0.66141 0.0
H438 H 0.13774 0.8239 0.71506 0.0
H439 H 0.08662 0.79679 0.70052 0.0
H440 H 0.02893 0.68578 0.70273 0.0
C441 C 0.94466 0.65289 0.66126 0.0
C442 C 1.01954 0.73476 0.67048 0.0
C443 C 0.91549 0.63904 0.6527 0.0
C444 C 0.12739 0.79781 0.71224 0.0
C445 C 0.09823 0.78233 0.70375 0.0
C446 C 0.02684 0.69965 0.69366 0.0
C447 C 0.96148 0.68708 0.66497 0.0
C448 C 0.99316 0.70233 0.67369 0.0
C449 C 0.08398 0.74857 0.69965 0.0
C450 C 0.05292 0.73229 0.69057 0.0
H451 H 0.90936 0.70904 0.64802 0.0
H452 H 0.95972 0.73304 0.66302 0.0
H453 H 0.97743 0.66003 0.68825 0.0
H454 H 0.14031 0.73165 0.71615 0.0
H455 H 0.08953 0.7047 0.70122 0.0
C456 C 0.75647 0.30333 0.9811 0.0
C457 C 0.75816 0.27499 0.97673 0.0
C458 C 0.72998 0.29995 0.98987 0.0
C459 C 0.66732 0.24271 0.01631 0.0
H460 H 0.62189 0.29272 1.00834 0.0
C461 C 0.54609 0.21554 0.04654 0.0
C462 C 0.54166 0.24267 0.05019 0.0
C463 C 0.57291 0.22018 0.0377 0.0
C464 C 0.63461 0.27891 1.01085 0.0
H465 H 0.73304 0.22082 0.97799 0.0
H466 H 0.68693 0.21499 0.99327 0.0
H467 H 0.66768 0.29956 0.9925 0.0
H468 H 0.56226 0.29612 0.04754 0.0
H469 H 0.60947 0.30436 0.03236 0.0
H470 H 0.63466 0.22228 0.03472 0.0
C471 C 0.70623 0.23984 0.99001 0.0
C472 C 0.66079 0.28279 1.00174 0.0
C473 C 0.73255 0.24319 0.98116 0.0
C474 C 0.56487 0.27465 0.04489 0.0
C475 C 0.59182 0.27933 0.0361 0.0
C476 C 0.64132 0.23898 0.02546 0.0
C477 C 0.70476 0.26818 0.99455 0.0
C478 C 0.67728 0.26456 1.00431 0.0
C479 C 0.59612 0.25212 0.03235 0.0
C480 C 0.62446 0.25686 0.02281 0.0
H481 H 0.77578 0.32819 0.97787 0.0
H482 H 0.72966 0.32227 0.99327 0.0
H483 H 0.67994 0.22875 0.01873 0.0
H484 H 0.52858 0.19053 0.05035 0.0
H485 H 0.57506 0.19855 0.03486 0.0
C486 C 0.316 0.53874 0.37822 0.0
C487 C 0.2822 0.52991 0.37634 0.0
C488 C 0.34129 0.56418 0.3698 0.0
C489 C 0.35377 0.61321 0.33571 0.0
H490 H 0.4421 0.67112 0.3521 0.0
C491 C 0.45467 0.73526 0.30804 0.0
C492 C 0.48738 0.74007 0.3073 0.0
C493 C 0.42972 0.70887 0.31617 0.0
C494 C 0.41761 0.65494 0.34735 0.0
H495 H 0.24851 0.54146 0.36445 0.0
H496 H 0.29253 0.58655 0.3502 0.0
H497 H 0.39845 0.62744 0.36717 0.0
H498 H 0.51956 0.72096 0.31452 0.0
H499 H 0.47601 0.67517 0.32894 0.0
H500 H 0.37289 0.64159 0.31602 0.0
C501 C 0.29959 0.57321 0.35781 0.0
C502 C 0.39257 0.62979 0.35596 0.0
C503 C 0.2743 0.54747 0.36607 0.0
C504 C 0.49457 0.71785 0.31483 0.0
C505 C 0.46974 0.69178 0.32315 0.0
C506 C 0.37867 0.63866 0.32718 0.0
C507 C 0.33343 0.58172 0.35943 0.0
C508 C 0.36026 0.60855 0.35027 0.0
C509 C 0.43708 0.68706 0.32392 0.0
C510 C 0.41083 0.65976 0.33291 0.0
H511 H 0.32288 0.5255 0.38597 0.0
H512 H 0.36692 0.56958 0.37124 0.0
H513 H 0.32953 0.59697 0.33079 0.0
H514 H 0.44833 0.75192 0.30235 0.0
H515 H 0.40481 0.70593 0.31664 0.0
C516 C 0.83726 0.34039 0.7176 0.0
C517 C 0.80748 0.31104 0.72139 0.0
C518 C 0.83664 0.36323 0.70778 0.0
C519 C 0.78312 0.37043 0.67912 0.0
H520 H 0.8463 0.46527 0.68339 0.0
C521 C 0.77714 0.47449 0.64585 0.0
C522 C 0.8077 0.49946 0.63989 0.0
C523 C 0.77652 0.45062 0.65544 0.0
C524 C 0.82868 0.43882 0.68201 0.0
H525 H 0.75354 0.28303 0.71813 0.0
H526 H 0.7522 0.32345 0.70144 0.0
H527 H 0.84562 0.42612 0.70136 0.0
H528 H 0.86152 0.51871 0.6392 0.0
H529 H 0.86042 0.47729 0.65612 0.0
H530 H 0.76567 0.38361 0.65993 0.0
C531 C 0.77626 0.32844 0.70569 0.0
C532 C 0.82833 0.41629 0.69228 0.0
C533 C 0.77695 0.30535 0.71537 0.0
C534 C 0.83755 0.49975 0.64356 0.0
C535 C 0.83698 0.4762 0.65332 0.0
C536 C 0.78317 0.39306 0.66896 0.0
C537 C 0.80615 0.35757 0.70165 0.0
C538 C 0.80572 0.38171 0.69093 0.0
C539 C 0.8065 0.45155 0.65943 0.0
C540 C 0.80612 0.42745 0.67024 0.0
H541 H 0.86126 0.34538 0.72193 0.0
H542 H 0.86028 0.38495 0.70477 0.0
H543 H 0.76574 0.34401 0.67752 0.0
H544 H 0.75371 0.47359 0.64322 0.0
H545 H 0.75269 0.43198 0.66004 0.0
C546 C 0.29803 0.73271 0.9804 0.0
C547 C 0.29566 0.76075 0.97618 0.0
C548 C 0.32408 0.73637 0.9895 0.0
C549 C 0.38358 0.79285 0.01706 0.0
H550 H 0.43142 0.74504 1.00937 0.0
C551 C 0.5018 0.81864 0.04963 0.0
C552 C 0.5064 0.79142 0.05285 0.0
C553 C 0.47586 0.81464 0.04038 0.0
C554 C 0.41802 0.75822 1.01181 0.0
H555 H 0.31913 0.81471 0.97811 0.0
H556 H 0.36449 0.82101 0.99398 0.0
H557 H 0.38699 0.73853 0.99285 0.0
H558 H 0.48684 0.73845 0.0491 0.0
H559 H 0.44117 0.73129 0.03327 0.0
H560 H 0.41418 0.81224 0.0361 0.0
C561 C 0.34606 0.79618 0.99032 0.0
C562 C 0.3926 0.75454 1.0023 0.0
C563 C 0.32018 0.79257 0.98114 0.0
C564 C 0.48413 0.75999 0.04679 0.0
C565 C 0.45805 0.75594 0.03762 0.0
C566 C 0.40882 0.79636 0.02662 0.0
C567 C 0.34819 0.76811 0.99469 0.0
C568 C 0.37517 0.7719 1.00479 0.0
C569 C 0.45371 0.78327 0.0342 0.0
C570 C 0.42646 0.77917 0.02411 0.0
H571 H 0.27957 0.70784 0.97679 0.0
H572 H 0.3249 0.71423 0.99276 0.0
H573 H 0.37024 0.80615 0.0194 0.0
H574 H 0.51862 0.84324 0.05404 0.0
H575 H 0.47363 0.83637 0.03785 0.0
C576 C 0.56971 0.30765 0.31272 0.0
C577 C 0.54351 0.31269 0.30795 0.0
C578 C 0.59443 0.33055 0.3222 0.0
C579 C 0.62955 0.41733 0.33682 0.0
H580 H 0.66518 0.38546 0.36722 0.0
C581 C 0.70251 0.49826 0.38614 0.0
C582 C 0.73369 0.50068 0.38905 0.0
C583 C 0.68023 0.4747 0.37618 0.0
C584 C 0.65558 0.39468 0.35871 0.0
H585 H 0.52249 0.34551 0.30953 0.0
H586 H 0.56459 0.38456 0.32631 0.0
H587 H 0.62477 0.34577 0.34976 0.0
H588 H 0.76549 0.47956 0.38415 0.0
H589 H 0.72601 0.43774 0.36696 0.0
H590 H 0.65956 0.46604 0.34614 0.0
C591 C 0.5669 0.36362 0.32245 0.0
C592 C 0.63255 0.37201 0.34864 0.0
C593 C 0.54253 0.34104 0.31286 0.0
C594 C 0.74168 0.47835 0.38211 0.0
C595 C 0.71909 0.45436 0.37232 0.0
C596 C 0.65211 0.43982 0.34701 0.0
C597 C 0.59327 0.3588 0.32725 0.0
C598 C 0.619 0.38299 0.33762 0.0
C599 C 0.68839 0.45269 0.3691 0.0
C600 C 0.66517 0.42871 0.35811 0.0
H601 H 0.57121 0.28609 0.3091 0.0
H602 H 0.61456 0.32619 0.32547 0.0
H603 H 0.62045 0.42697 0.3283 0.0
H604 H 0.69562 0.51515 0.39127 0.0
H605 H 0.65657 0.47372 0.374 0.0
C606 C 0.281 0.55135 0.64649 0.0
C607 C 0.25029 0.53166 0.63925 0.0
C608 C 0.28527 0.57707 0.65588 0.0
C609 C 0.24903 0.63074 0.66551 0.0
H610 H 0.29808 0.64393 0.70158 0.0
C611 C 0.24967 0.71681 0.71129 0.0
C612 C 0.28079 0.73845 0.71786 0.0
C613 C 0.24625 0.69151 0.70185 0.0
C614 C 0.28459 0.64076 0.69149 0.0
H615 H 0.2 0.52374 0.63617 0.0
H616 H 0.20722 0.56818 0.65271 0.0
H617 H 0.29166 0.60037 0.68463 0.0
H618 H 0.33257 0.75 0.71986 0.0
H619 H 0.32652 0.70571 0.70338 0.0
H620 H 0.24167 0.67092 0.67247 0.0
C621 C 0.22826 0.56415 0.65095 0.0
C622 C 0.28096 0.61584 0.68174 0.0
C623 C 0.22405 0.53853 0.64151 0.0
C624 C 0.30824 0.73376 0.71499 0.0
C625 C 0.30476 0.7083 0.70559 0.0
C626 C 0.25252 0.65554 0.67529 0.0
C627 C 0.25887 0.58366 0.65832 0.0
C628 C 0.26309 0.61047 0.66863 0.0
C629 C 0.2738 0.68711 0.6988 0.0
C630 C 0.27028 0.6608 0.6884 0.0
H631 H 0.3018 0.54684 0.64494 0.0
H632 H 0.30937 0.59192 0.66116 0.0
H633 H 0.23562 0.62775 0.65541 0.0
H634 H 0.22796 0.71965 0.71328 0.0
H635 H 0.22194 0.6753 0.69696 0.0
C636 C 0.48238 0.21607 0.12407 0.0
C637 C 0.48075 0.24119 0.11606 0.0
C638 C 0.48488 0.21781 0.13926 0.0
C639 C 0.50727 0.27616 0.17052 0.0
H640 H 0.45413 0.1946 0.19261 0.0
C641 C 0.48704 0.27595 0.23276 0.0
C642 C 0.48671 0.25024 0.24111 0.0
C643 C 0.48838 0.2754 0.21754 0.0
C644 C 0.46951 0.21753 0.18662 0.0
H645 H 0.48088 0.28813 0.1178 0.0
H646 H 0.4849 0.29101 0.14436 0.0
H647 H 0.45236 0.19282 0.16607 0.0
H648 H 0.48816 0.20403 0.23996 0.0
H649 H 0.49075 0.20319 0.21336 0.0
H650 H 0.52415 0.3009 0.19111 0.0
C651 C 0.48463 0.27011 0.13885 0.0
C652 C 0.46848 0.21653 0.17138 0.0
C653 C 0.48216 0.26838 0.12362 0.0
C654 C 0.4883 0.2242 0.23386 0.0
C655 C 0.48957 0.22361 0.21861 0.0
C656 C 0.50827 0.27717 0.18577 0.0
C657 C 0.48577 0.2447 0.14688 0.0
C658 C 0.48728 0.24584 0.16312 0.0
C659 C 0.48938 0.24909 0.21026 0.0
C660 C 0.4893 0.24789 0.19402 0.0
H661 H 0.48154 0.19484 0.11861 0.0
H662 H 0.48627 0.19808 0.14505 0.0
H663 H 0.52247 0.29912 0.16452 0.0
H664 H 0.48579 0.29638 0.23796 0.0
H665 H 0.48777 0.29521 0.21147 0.0
C666 C 0.24337 0.45895 0.45831 0.0
C667 C 0.24879 0.48735 0.45042 0.0
C668 C 0.24683 0.46021 0.47347 0.0
C669 C 0.28539 0.51847 0.50444 0.0
H670 H 0.21971 0.44317 0.52717 0.0
C671 C 0.28064 0.52043 0.5677 0.0
C672 C 0.27314 0.49078 0.57507 0.0
C673 C 0.2784 0.52086 0.55248 0.0
C674 C 0.23853 0.46425 0.52099 0.0
H675 H 0.2624 0.53948 0.45234 0.0
H676 H 0.26829 0.5416 0.47885 0.0
H677 H 0.21439 0.44244 0.50075 0.0
H678 H 0.2581 0.43847 0.57214 0.0
H679 H 0.2547 0.43935 0.54568 0.0
H680 H 0.30959 0.54022 0.52472 0.0
C681 C 0.26162 0.51842 0.47326 0.0
C682 C 0.23545 0.46384 0.50583 0.0
C683 C 0.25806 0.51715 0.45806 0.0
C684 C 0.26388 0.46172 0.56684 0.0
C685 C 0.2617 0.46217 0.55165 0.0
C686 C 0.28851 0.51887 0.51963 0.0
C687 C 0.25585 0.4899 0.48115 0.0
C688 C 0.25892 0.49085 0.49734 0.0
C689 C 0.26864 0.49165 0.54427 0.0
C690 C 0.26521 0.49166 0.5281 0.0
H691 H 0.23633 0.4356 0.45279 0.0
H692 H 0.24271 0.43792 0.47917 0.0
H693 H 0.30411 0.53953 0.49822 0.0
H694 H 0.28778 0.54325 0.57369 0.0
H695 H 0.28362 0.54393 0.54718 0.0
C696 C 0.81664 0.24905 0.90191 0.0
C697 C 0.80978 0.27108 0.90983 0.0
C698 C 0.8126 0.24629 0.88677 0.0
C699 C 0.80658 0.29029 0.85415 0.0
H700 H 0.76683 0.20224 0.83654 0.0
C701 C 0.77136 0.26789 0.7929 0.0
C702 C 0.77883 0.24575 0.78544 0.0
C703 C 0.77428 0.2709 0.8081 0.0
C704 C 0.77828 0.22705 0.84125 0.0
H705 H 0.79358 0.30775 0.90795 0.0
H706 H 0.78635 0.30278 0.88154 0.0
H707 H 0.77404 0.20801 0.8629 0.0
H708 H 0.79506 0.20926 0.78817 0.0
H709 H 0.80034 0.21467 0.81458 0.0
H710 H 0.81091 0.30932 0.83248 0.0
C711 C 0.79514 0.28783 0.88704 0.0
C712 C 0.78244 0.23037 0.85638 0.0
C713 C 0.79914 0.29056 0.9022 0.0
C714 C 0.78898 0.22648 0.79355 0.0
C715 C 0.79185 0.22946 0.80873 0.0
C716 C 0.80242 0.28697 0.83901 0.0
C717 C 0.80163 0.26551 0.87914 0.0
C718 C 0.79679 0.26204 0.86303 0.0
C719 C 0.78467 0.25179 0.8162 0.0
C720 C 0.78835 0.25531 0.83236 0.0
H721 H 0.825 0.23374 0.90741 0.0
H722 H 0.81835 0.22924 0.88102 0.0
H723 H 0.81812 0.3151 0.85887 0.0
H724 H 0.76343 0.28308 0.78701 0.0
H725 H 0.76814 0.28804 0.81351 0.0
C726 C 0.52004 0.76734 0.12488 0.0
C727 C 0.54848 0.77112 0.11739 0.0
C728 C 0.52016 0.76988 0.14009 0.0
C729 C 0.56425 0.76607 0.17328 0.0
H730 H 0.52405 0.81405 0.19105 0.0
C731 C 0.57945 0.79984 0.23468 0.0
C732 C 0.551 0.79616 0.24213 0.0
C733 C 0.57922 0.79681 0.21948 0.0
C734 C 0.53507 0.80025 0.18629 0.0
H735 H 0.59933 0.78027 0.12012 0.0
H736 H 0.5996 0.78491 0.1466 0.0
H737 H 0.52321 0.80815 0.16462 0.0
H738 H 0.5 0.78653 0.23938 0.0
H739 H 0.49954 0.78105 0.21293 0.0
H740 H 0.57616 0.75822 0.19496 0.0
C741 C 0.57703 0.77962 0.14073 0.0
C742 C 0.53456 0.79684 0.17111 0.0
C743 C 0.57692 0.77712 0.12551 0.0
C744 C 0.52239 0.78958 0.23401 0.0
C745 C 0.52219 0.78662 0.21881 0.0
C746 C 0.56478 0.76949 0.18846 0.0
C747 C 0.54872 0.77623 0.14822 0.0
C748 C 0.54912 0.77968 0.1644 0.0
C749 C 0.55056 0.79011 0.21135 0.0
C750 C 0.55017 0.78661 0.19517 0.0
H751 H 0.49766 0.76263 0.11899 0.0
H752 H 0.49774 0.76665 0.1455 0.0
H753 H 0.57528 0.75228 0.16851 0.0
H754 H 0.60196 0.805 0.24057 0.0
H755 H 0.60166 0.80009 0.21408 0.0
C756 C 0.7612 0.5087 0.56935 0.0
C757 C 0.77466 0.53906 0.57706 0.0
C758 C 0.7636 0.50851 0.55413 0.0
C759 C 0.77687 0.56078 0.52147 0.0
H760 H 0.80082 0.50011 0.50283 0.0
C761 C 0.81127 0.57166 0.46032 0.0
C762 C 0.80029 0.54199 0.45232 0.0
C763 C 0.80753 0.57076 0.47548 0.0
C764 C 0.79366 0.51692 0.50782 0.0
H765 H 0.80113 0.59308 0.57472 0.0
H766 H 0.80537 0.59272 0.54823 0.0
H767 H 0.79511 0.4994 0.52929 0.0
H768 H 0.77656 0.48801 0.45405 0.0
H769 H 0.76954 0.48638 0.48045 0.0
H770 H 0.77526 0.57824 0.50004 0.0
C771 C 0.79269 0.56902 0.55394 0.0
C772 C 0.79042 0.51653 0.52301 0.0
C773 C 0.79041 0.56921 0.56915 0.0
C774 C 0.78543 0.51137 0.45986 0.0
C775 C 0.78157 0.51045 0.47504 0.0
C776 C 0.77998 0.5611 0.50628 0.0
C777 C 0.77938 0.53867 0.54623 0.0
C778 C 0.78215 0.53857 0.53004 0.0
C779 C 0.79257 0.54015 0.48306 0.0
C780 C 0.78859 0.53929 0.49924 0.0
H781 H 0.74886 0.485 0.57508 0.0
H782 H 0.75276 0.48469 0.54853 0.0
H783 H 0.76992 0.57772 0.52649 0.0
H784 H 0.82299 0.59572 0.45489 0.0
H785 H 0.81681 0.59418 0.48129 0.0
C786 C 0.24128 0.78811 0.90108 0.0
C787 C 0.24061 0.76126 0.90863 0.0
C788 C 0.24445 0.79031 0.88589 0.0
C789 C 0.23099 0.73946 0.85294 0.0
H790 H 0.29164 0.82459 0.83474 0.0
C791 C 0.25681 0.75001 0.79095 0.0
C792 C 0.26009 0.77831 0.78368 0.0
C793 C 0.2557 0.7483 0.80618 0.0
C794 C 0.27425 0.80069 0.83961 0.0
H795 H 0.24262 0.71556 0.90606 0.0
H796 H 0.24796 0.71933 0.87952 0.0
H797 H 0.28679 0.82075 0.86124 0.0
H798 H 0.26499 0.82714 0.7868 0.0
H799 H 0.2623 0.82388 0.81333 0.0
H800 H 0.2179 0.71944 0.83137 0.0
C801 C 0.24593 0.73863 0.88538 0.0
C802 C 0.27154 0.79849 0.85482 0.0
C803 C 0.24304 0.73657 0.9006 0.0
C804 C 0.26262 0.80503 0.79204 0.0
C805 C 0.26125 0.80321 0.80729 0.0
C806 C 0.23349 0.74169 0.83773 0.0
C807 C 0.24677 0.76558 0.87785 0.0
C808 C 0.24988 0.76785 0.86167 0.0
C809 C 0.25757 0.77472 0.81458 0.0
C810 C 0.25517 0.77234 0.83083 0.0
H811 H 0.23945 0.80758 0.90691 0.0
H812 H 0.24463 0.81118 0.88041 0.0
H813 H 0.21371 0.71559 0.85786 0.0
H814 H 0.25502 0.72906 0.78486 0.0
H815 H 0.25352 0.72623 0.81137 0.0
C816 C 0.5675 0.63979 0.0508 0.0
C817 C 0.57041 0.65781 0.0636 0.0
C818 C 0.55497 0.60526 0.05128 0.0
C819 C 0.54509 0.53718 0.07493 0.0
H820 H 0.47661 0.48018 0.04721 0.0
C821 C 0.48507 0.39236 0.07571 0.0
C822 C 0.47608 0.37554 0.06226 0.0
C823 C 0.49578 0.42661 0.07651 0.0
C824 C 0.49611 0.49566 0.0549 0.0
H825 H 0.56282 0.65376 0.08698 0.0
H826 H 0.54139 0.59322 0.08788 0.0
H827 H 0.49697 0.54003 0.04737 0.0
H828 H 0.47253 0.38175 0.03905 0.0
H829 H 0.49211 0.4413 0.04031 0.0
H830 H 0.54518 0.49313 0.08217 0.0
C831 C 0.54864 0.60594 0.07746 0.0
C832 C 0.50762 0.53002 0.05503 0.0
C833 C 0.56066 0.64048 0.07694 0.0
C834 C 0.47864 0.39383 0.04961 0.0
C835 C 0.48977 0.42806 0.05037 0.0
C836 C 0.53393 0.50281 0.07467 0.0
C837 C 0.5455 0.58794 0.06461 0.0
C838 C 0.53238 0.55121 0.06498 0.0
C839 C 0.4982 0.44499 0.06385 0.0
C840 C 0.50943 0.48154 0.06456 0.0
H841 H 0.57447 0.65234 0.04035 0.0
H842 H 0.55305 0.59213 0.04121 0.0
H843 H 0.5644 0.55296 0.08265 0.0
H844 H 0.48308 0.37885 0.08565 0.0
H845 H 0.50157 0.43849 0.08712 0.0
C846 C 0.92187 0.53023 0.40457 0.0
C847 C 0.93409 0.56484 0.40357 0.0
C848 C 0.94411 0.51776 0.40516 0.0
C849 C 0.03228 0.5415 0.3963 0.0
H850 H 1.01363 0.46527 0.42049 0.0
C851 C 0.12881 0.49677 0.40366 0.0
C852 C 0.11626 0.46205 0.40309 0.0
C853 C 0.10685 0.50955 0.40438 0.0
C854 C 1.01908 0.48642 0.41358 0.0
H855 H 0.97943 0.61346 0.40305 0.0
H856 H 1.01804 0.59187 0.40419 0.0
H857 H 0.97472 0.48683 0.42055 0.0
H858 H 0.07064 0.41362 0.40327 0.0
H859 H 0.03248 0.43585 0.40434 0.0
H860 H 0.07659 0.54109 0.38933 0.0
C861 C 0.99128 0.57423 0.40414 0.0
C862 C 0.99672 0.49876 0.4136 0.0
C863 C 0.96909 0.58665 0.4035 0.0
C864 C 0.08122 0.44048 0.40351 0.0
C865 C 0.0593 0.45324 0.4043 0.0
C866 C 0.05465 0.52923 0.39632 0.0
C867 C 0.97914 0.5396 0.40482 0.0
C868 C 1.00299 0.52645 0.40494 0.0
C869 C 0.0718 0.48794 0.40463 0.0
C870 C 0.04832 0.50148 0.40493 0.0
H871 H 0.89511 0.5127 0.4045 0.0
H872 H 0.93381 0.49092 0.40551 0.0
H873 H 0.03768 0.56247 0.38929 0.0
H874 H 0.15559 0.51412 0.40325 0.0
H875 H 0.11737 0.53641 0.40478 0.0
C876 C 0.6493 0.09372 0.71959 0.0
C877 C 0.66672 0.11127 0.73214 0.0
C878 C 0.61479 0.07098 0.7201 0.0
C879 C 0.54586 0.01609 0.74459 0.0
H880 H 0.48953 0.01763 0.71353 0.0
C881 C 0.40052 0.92672 0.74339 0.0
C882 C 0.38572 0.9149 0.72966 0.0
C883 C 0.43458 0.95131 0.74453 0.0
C884 C 0.50488 0.01646 0.7222 0.0
H885 H 0.66149 0.11844 0.75513 0.0
H886 H 0.60091 0.07828 0.75608 0.0
H887 H 0.54903 0.05935 0.71398 0.0
H888 H 0.39555 0.91842 0.70643 0.0
H889 H 0.45463 0.96039 0.70837 0.0
H890 H 0.50184 0.97262 0.75262 0.0
C891 C 0.61414 0.08231 0.74582 0.0
C892 C 0.53902 0.04055 0.72248 0.0
C893 C 0.64872 0.10547 0.74527 0.0
C894 C 0.40594 0.92751 0.71715 0.0
C895 C 0.4399 0.95175 0.71828 0.0
C896 C 0.51165 0.9917 0.74425 0.0
C897 C 0.59678 0.06491 0.73321 0.0
C898 C 0.56003 0.04044 0.73357 0.0
C899 C 0.45467 0.96442 0.73196 0.0
C900 C 0.49076 0.99129 0.73292 0.0
H901 H 0.66231 0.09783 0.70928 0.0
H902 H 0.60224 0.05779 0.71022 0.0
H903 H 0.56146 1.01522 0.75323 0.0
H904 H 0.38554 0.91763 0.75322 0.0
H905 H 0.44492 0.96058 0.75525 0.0
C906 C 0.64568 0.54325 0.61549 0.0
C907 C 0.66116 0.55012 0.62925 0.0
C908 C 0.61096 0.5308 0.6143 0.0
C909 C 0.53179 0.48458 0.63466 0.0
H910 H 0.49819 0.52901 0.60964 0.0
C911 C 0.39616 0.45879 0.64025 0.0
C912 C 0.37873 0.45913 0.62774 0.0
C913 C 0.43033 0.46888 0.63954 0.0
C914 C 0.50697 0.51587 0.6165 0.0
H915 H 0.65231 0.54839 0.65253 0.0
H916 H 0.59186 0.52624 0.65047 0.0
H917 H 0.55818 0.54739 0.6097 0.0
H918 H 0.38351 0.47019 0.60464 0.0
H919 H 0.44309 0.48706 0.60326 0.0
H920 H 0.48091 0.45274 0.64136 0.0
C921 C 0.60651 0.53073 0.6406 0.0
C922 C 0.54141 0.52651 0.61654 0.0
C923 C 0.64116 0.54367 0.64178 0.0
C924 C 0.39635 0.46994 0.61449 0.0
C925 C 0.43055 0.47969 0.61373 0.0
C926 C 0.49739 0.47366 0.63448 0.0
C927 C 0.59102 0.52434 0.62686 0.0
C928 C 0.55423 0.51135 0.62582 0.0
C929 C 0.44802 0.4792 0.62626 0.0
C930 C 0.4845 0.48954 0.62562 0.0
H931 H 0.66054 0.54817 0.60567 0.0
H932 H 0.59965 0.52597 0.60357 0.0
H933 H 0.54089 0.47209 0.64176 0.0
H934 H 0.38349 0.45123 0.65068 0.0
H935 H 0.44294 0.46897 0.64952 0.0
C936 C 0.10795 0.63846 0.97506 0.0
C937 C 0.12181 0.65763 0.96238 0.0
C938 C 0.08612 0.60395 0.97421 0.0
C939 C 0.02688 0.53686 0.95007 0.0
H940 H 0.0385 0.47941 0.9774 0.0
C941 C 0.9418 0.39152 0.94962 0.0
C942 C 0.93342 0.37535 0.96324 0.0
C943 C 0.96544 0.42578 0.94859 0.0
C944 C 0.03454 0.49504 0.9698 0.0
H945 H 0.12334 0.65544 0.93882 0.0
H946 H 0.08477 0.59482 0.93731 0.0
H947 H 0.07845 0.53919 0.97727 0.0
H948 H 0.94227 0.38298 0.98649 0.0
H949 H 0.9827 0.44232 0.98478 0.0
H950 H 0.98244 0.49277 0.94283 0.0
C951 C 0.09097 0.60671 0.94792 0.0
C952 C 0.0576 0.52937 0.96969 0.0
C953 C 0.11323 0.64133 0.94878 0.0
C954 C 0.94867 0.39439 0.9758 0.0
C955 C 0.97201 0.42853 0.97479 0.0
C956 C 1.00356 0.50244 0.95025 0.0
C957 C 0.07729 0.58761 0.96065 0.0
C958 C 0.05385 0.55078 0.95997 0.0
C959 C 0.98109 0.44472 0.96117 0.0
C960 C 1.00681 0.48111 0.96027 0.0
H961 H 0.1143 0.6501 0.98571 0.0
H962 H 0.07581 0.59005 0.98422 0.0
H963 H 1.02318 0.55274 0.9425 0.0
H964 H 0.93066 0.37752 0.93973 0.0
H965 H 0.97194 0.43723 0.93789 0.0
C966 C 0.55427 0.92627 0.30832 0.0
C967 C 0.56247 0.91416 0.29582 0.0
C968 C 0.54281 0.94907 0.30714 0.0
C969 C 0.54459 1.01403 0.28359 0.0
H970 H 0.46946 1.00137 0.30754 0.0
C971 C 0.49136 0.10525 0.28197 0.0
C972 C 0.48062 0.11185 0.2953 0.0
C973 C 0.50044 0.08044 0.281 0.0
C974 C 0.49075 1.0056 0.3009 0.0
H975 H 0.56507 0.91659 0.27225 0.0
H976 H 0.54524 0.95699 0.27016 0.0
H977 H 0.48656 0.95925 0.30764 0.0
H978 H 0.4724 0.09842 0.31818 0.0
H979 H 0.48866 0.05589 0.31661 0.0
H980 H 0.54938 0.06086 0.27715 0.0
C981 C 0.5477 0.94863 0.28088 0.0
C982 C 0.50044 0.9813 0.30091 0.0
C983 C 0.55879 0.92536 0.28206 0.0
C984 C 0.47983 0.09353 0.30768 0.0
C985 C 0.4891 0.06899 0.30675 0.0
C986 C 0.53506 0.03856 0.28367 0.0
C987 C 0.53949 0.96066 0.29343 0.0
C988 C 0.52775 0.98541 0.29243 0.0
C989 C 0.4992 0.06179 0.29338 0.0
C990 C 0.5083 0.03491 0.2925 0.0
H991 H 0.55644 0.91786 0.31907 0.0
H992 H 0.537 0.95805 0.31703 0.0
H993 H 0.5659 0.01802 0.27702 0.0
H994 H 0.492 0.11873 0.27221 0.0
H995 H 0.50778 0.07545 0.27049 0.0
loop_
_geom_bond_atom_site_label_1
_geom_bond_atom_site_label_2
_geom_bond_distance
_geom_bond_site_symmetry_2
_ccdc_geom_bond_type
Cu0 N1 1.999 . S
Cu0 O6 1.974 . S
Cu0 N11 1.985 . S
Cu0 O20 1.959 . S
N1 Cu0 1.999 . S
N1 C3 1.263 . S
N1 C5 1.389 . S
N2 C3 1.358 . S
N2 C4 1.400 . S
C3 N1 1.263 . S
C3 N2 1.358 . S
C3 H9 0.930 . S
C4 N2 1.400 . S
C4 C5 1.351 . S
C4 H21 0.930 . S
C5 N1 1.389 . S
C5 C4 1.351 . S
C5 H10 0.930 . S
O6 Cu0 1.974 . S
O6 C16 1.282 . S
C7 O8 1.261 . S
C7 O20 1.251 . S
O8 C7 1.261 . S
H9 C3 0.930 . S
H10 C5 0.930 . S
N11 Cu0 1.985 . S
N11 C13 1.335 . S
N11 C14 1.390 . S
N12 C13 1.345 . S
N12 C15 1.336 . S
C13 N11 1.335 . S
C13 N12 1.345 . S
C13 H18 0.930 . S
C14 N11 1.390 . S
C14 C15 1.346 . S
C14 H19 0.930 . S
C15 N12 1.336 . S
C15 C14 1.346 . S
C15 H22 0.929 . S
C16 O6 1.282 . S
C16 O17 1.216 . S
O17 C16 1.216 . S
H18 C13 0.930 . S
H19 C14 0.930 . S
O20 Cu0 1.959 . S
O20 C7 1.251 . S
H21 C4 0.930 . S
H22 C15 0.929 . S
Cu23 N24 1.999 . S
Cu23 O29 1.974 . S
Cu23 N34 1.985 . S
Cu23 O43 1.959 . S
N24 Cu23 1.999 . S
N24 C26 1.263 . S
N24 C28 1.389 . S
N25 C26 1.358 . S
N25 C27 1.400 . S
C26 N24 1.263 . S
C26 N25 1.358 . S
C26 H32 0.930 . S
C27 N25 1.400 . S
C27 C28 1.351 . S
C27 H44 0.930 . S
C28 N24 1.389 . S
C28 C27 1.351 . S
C28 H33 0.930 . S
O29 Cu23 1.974 . S
O29 C39 1.282 . S
C30 O31 1.261 . S
C30 O43 1.251 . S
O31 C30 1.261 . S
H32 C26 0.930 . S
H33 C28 0.930 . S
N34 Cu23 1.985 . S
N34 C36 1.335 . S
N34 C37 1.390 . S
N35 C36 1.345 . S
N35 C38 1.336 . S
C36 N34 1.335 . S
C36 N35 1.345 . S
C36 H41 0.930 . S
C37 N34 1.390 . S
C37 C38 1.346 . S
C37 H42 0.930 . S
C38 N35 1.336 . S
C38 C37 1.346 . S
C38 H45 0.929 . S
C39 O29 1.282 . S
C39 O40 1.216 . S
O40 C39 1.216 . S
H41 C36 0.930 . S
H42 C37 0.930 . S
O43 Cu23 1.959 . S
O43 C30 1.251 . S
H44 C27 0.930 . S
H45 C38 0.929 . S
Cu46 N47 1.999 . S
Cu46 O52 1.974 . S
Cu46 N57 1.985 . S
Cu46 O66 1.959 . S
N47 Cu46 1.999 . S
N47 C49 1.263 . S
N47 C51 1.389 . S
N48 C49 1.358 . S
N48 C50 1.400 . S
C49 N47 1.263 . S
C49 N48 1.358 . S
C49 H55 0.930 . S
C50 N48 1.400 . S
C50 C51 1.351 . S
C50 H67 0.930 . S
C51 N47 1.389 . S
C51 C50 1.351 . S
C51 H56 0.930 . S
O52 Cu46 1.974 . S
O52 C62 1.282 . S
C53 O54 1.261 . S
C53 O66 1.251 . S
O54 C53 1.261 . S
H55 C49 0.930 . S
H56 C51 0.930 . S
N57 Cu46 1.985 . S
N57 C59 1.335 . S
N57 C60 1.390 . S
N58 C59 1.345 . S
N58 C61 1.336 . S
C59 N57 1.335 . S
C59 N58 1.345 . S
C59 H64 0.930 . S
C60 N57 1.390 . S
C60 C61 1.346 . S
C60 H65 0.930 . S
C61 N58 1.336 . S
C61 C60 1.346 . S
C61 H68 0.929 . S
C62 O52 1.282 . S
C62 O63 1.216 . S
O63 C62 1.216 . S
H64 C59 0.930 . S
H65 C60 0.930 . S
O66 Cu46 1.959 . S
O66 C53 1.251 . S
H67 C50 0.930 . S
H68 C61 0.929 . S
Cu69 N70 1.999 . S
Cu69 O75 1.974 . S
Cu69 N80 1.985 . S
Cu69 O89 1.959 . S
N70 Cu69 1.999 . S
N70 C72 1.263 . S
N70 C74 1.389 . S
N71 C72 1.358 . S
N71 C73 1.400 . S
C72 N70 1.263 . S
C72 N71 1.358 . S
C72 H78 0.930 . S
C73 N71 1.400 . S
C73 C74 1.351 . S
C73 H90 0.930 . S
C74 N70 1.389 . S
C74 C73 1.351 . S
C74 H79 0.930 . S
O75 Cu69 1.974 . S
O75 C85 1.282 . S
C76 O77 1.261 . S
C76 O89 1.251 . S
O77 C76 1.261 . S
H78 C72 0.930 . S
H79 C74 0.930 . S
N80 Cu69 1.985 . S
N80 C82 1.335 . S
N80 C83 1.390 . S
N81 C82 1.345 . S
N81 C84 1.336 . S
C82 N80 1.335 . S
C82 N81 1.345 . S
C82 H87 0.930 . S
C83 N80 1.390 . S
C83 C84 1.346 . S
C83 H88 0.930 . S
C84 N81 1.336 . S
C84 C83 1.346 . S
C84 H91 0.929 . S
C85 O75 1.282 . S
C85 O86 1.216 . S
O86 C85 1.216 . S
H87 C82 0.930 . S
H88 C83 0.930 . S
O89 Cu69 1.959 . S
O89 C76 1.251 . S
H90 C73 0.930 . S
H91 C84 0.929 . S
Cu92 N93 1.999 . S
Cu92 O98 1.974 . S
Cu92 N103 1.985 . S
Cu92 O112 1.959 . S
N93 Cu92 1.999 . S
N93 C95 1.263 . S
N93 C97 1.389 . S
N94 C95 1.358 . S
N94 C96 1.400 . S
C95 N93 1.263 . S
C95 N94 1.358 . S
C95 H101 0.930 . S
C96 N94 1.400 . S
C96 C97 1.351 . S
C96 H113 0.930 . S
C97 N93 1.389 . S
C97 C96 1.351 . S
C97 H102 0.930 . S
O98 Cu92 1.974 . S
O98 C108 1.282 . S
C99 O100 1.261 . S
C99 O112 1.251 . S
O100 C99 1.261 . S
H101 C95 0.930 . S
H102 C97 0.930 . S
N103 Cu92 1.985 . S
N103 C105 1.335 . S
N103 C106 1.390 . S
N104 C105 1.345 . S
N104 C107 1.336 . S
C105 N103 1.335 . S
C105 N104 1.345 . S
C105 H110 0.930 . S
C106 N103 1.390 . S
C106 C107 1.346 . S
C106 H111 0.930 . S
C107 N104 1.336 . S
C107 C106 1.346 . S
C107 H114 0.929 . S
C108 O98 1.282 . S
C108 O109 1.216 . S
O109 C108 1.216 . S
H110 C105 0.930 . S
H111 C106 0.930 . S
O112 Cu92 1.959 . S
O112 C99 1.251 . S
H113 C96 0.930 . S
H114 C107 0.929 . S
Cu115 N116 1.999 . S
Cu115 O121 1.974 . S
Cu115 N126 1.985 . S
Cu115 O135 1.959 . S
N116 Cu115 1.999 . S
N116 C118 1.263 . S
N116 C120 1.389 . S
N117 C118 1.358 . S
N117 C119 1.400 . S
C118 N116 1.263 . S
C118 N117 1.358 . S
C118 H124 0.930 . S
C119 N117 1.400 . S
C119 C120 1.351 . S
C119 H136 0.930 . S
C120 N116 1.389 . S
C120 C119 1.351 . S
C120 H125 0.930 . S
O121 Cu115 1.974 . S
O121 C131 1.282 . S
C122 O123 1.261 . S
C122 O135 1.251 . S
O123 C122 1.261 . S
H124 C118 0.930 . S
H125 C120 0.930 . S
N126 Cu115 1.985 . S
N126 C128 1.335 . S
N126 C129 1.390 . S
N127 C128 1.345 . S
N127 C130 1.336 . S
C128 N126 1.335 . S
C128 N127 1.345 . S
C128 H133 0.930 . S
C129 N126 1.390 . S
C129 C130 1.346 . S
C129 H134 0.930 . S
C130 N127 1.336 . S
C130 C129 1.346 . S
C130 H137 0.929 . S
C131 O121 1.282 . S
C131 O132 1.216 . S
O132 C131 1.216 . S
H133 C128 0.930 . S
H134 C129 0.930 . S
O135 Cu115 1.959 . S
O135 C122 1.251 . S
H136 C119 0.930 . S
H137 C130 0.929 . S
Cu138 N139 1.999 . S
Cu138 O144 1.974 . S
Cu138 N149 1.985 . S
Cu138 O158 1.959 . S
N139 Cu138 1.999 . S
N139 C141 1.263 . S
N139 C143 1.389 . S
N140 C141 1.358 . S
N140 C142 1.400 . S
C141 N139 1.263 . S
C141 N140 1.358 . S
C141 H147 0.930 . S
C142 N140 1.400 . S
C142 C143 1.351 . S
C142 H159 0.930 . S
C143 N139 1.389 . S
C143 C142 1.351 . S
C143 H148 0.930 . S
O144 Cu138 1.974 . S
O144 C154 1.282 . S
C145 O146 1.261 . S
C145 O158 1.251 . S
O146 C145 1.261 . S
H147 C141 0.930 . S
H148 C143 0.930 . S
N149 Cu138 1.985 . S
N149 C151 1.335 . S
N149 C152 1.390 . S
N150 C151 1.345 . S
N150 C153 1.336 . S
C151 N149 1.335 . S
C151 N150 1.345 . S
C151 H156 0.930 . S
C152 N149 1.390 . S
C152 C153 1.346 . S
C152 H157 0.930 . S
C153 N150 1.336 . S
C153 C152 1.346 . S
C153 H160 0.929 . S
C154 O144 1.282 . S
C154 O155 1.216 . S
O155 C154 1.216 . S
H156 C151 0.930 . S
H157 C152 0.930 . S
O158 Cu138 1.959 . S
O158 C145 1.251 . S
H159 C142 0.930 . S
H160 C153 0.929 . S
Cu161 N162 1.999 . S
Cu161 O167 1.974 . S
Cu161 N172 1.985 . S
Cu161 O181 1.959 . S
N162 Cu161 1.999 . S
N162 C164 1.263 . S
N162 C166 1.389 . S
N163 C164 1.358 . S
N163 C165 1.400 . S
C164 N162 1.263 . S
C164 N163 1.358 . S
C164 H170 0.930 . S
C165 N163 1.400 . S
C165 C166 1.351 . S
C165 H182 0.930 . S
C166 N162 1.389 . S
C166 C165 1.351 . S
C166 H171 0.930 . S
O167 Cu161 1.974 . S
O167 C177 1.282 . S
C168 O169 1.261 . S
C168 O181 1.251 . S
O169 C168 1.261 . S
H170 C164 0.930 . S
H171 C166 0.930 . S
N172 Cu161 1.985 . S
N172 C174 1.335 . S
N172 C175 1.390 . S
N173 C174 1.345 . S
N173 C176 1.336 . S
C174 N172 1.335 . S
C174 N173 1.345 . S
C174 H179 0.930 . S
C175 N172 1.390 . S
C175 C176 1.346 . S
C175 H180 0.930 . S
C176 N173 1.336 . S
C176 C175 1.346 . S
C176 H183 0.929 . S
C177 O167 1.282 . S
C177 O178 1.216 . S
O178 C177 1.216 . S
H179 C174 0.930 . S
H180 C175 0.930 . S
O181 Cu161 1.959 . S
O181 C168 1.251 . S
H182 C165 0.930 . S
H183 C176 0.929 . S
Cu184 N185 1.999 . S
Cu184 O190 1.974 . S
Cu184 N195 1.985 . S
Cu184 O204 1.959 . S
N185 Cu184 1.999 . S
N185 C187 1.263 . S
N185 C189 1.389 . S
N186 C187 1.358 . S
N186 C188 1.400 . S
C187 N185 1.263 . S
C187 N186 1.358 . S
C187 H193 0.930 . S
C188 N186 1.400 . S
C188 C189 1.351 . S
C188 H205 0.930 . S
C189 N185 1.389 . S
C189 C188 1.351 . S
C189 H194 0.930 . S
O190 Cu184 1.974 . S
O190 C200 1.282 . S
C191 O192 1.261 . S
C191 O204 1.251 . S
O192 C191 1.261 . S
H193 C187 0.930 . S
H194 C189 0.930 . S
N195 Cu184 1.985 . S
N195 C197 1.335 . S
N195 C198 1.390 . S
N196 C197 1.345 . S
N196 C199 1.336 . S
C197 N195 1.335 . S
C197 N196 1.345 . S
C197 H202 0.930 . S
C198 N195 1.390 . S
C198 C199 1.346 . S
C198 H203 0.930 . S
C199 N196 1.336 . S
C199 C198 1.346 . S
C199 H206 0.929 . S
C200 O190 1.282 . S
C200 O201 1.216 . S
O201 C200 1.216 . S
H202 C197 0.930 . S
H203 C198 0.930 . S
O204 Cu184 1.959 . S
O204 C191 1.251 . S
H205 C188 0.930 . S
H206 C199 0.929 . S
Cu207 N208 1.999 . S
Cu207 O213 1.974 . S
Cu207 N218 1.985 . S
Cu207 O227 1.959 . S
N208 Cu207 1.999 . S
N208 C210 1.263 . S
N208 C212 1.389 . S
N209 C210 1.358 . S
N209 C211 1.400 . S
C210 N208 1.263 . S
C210 N209 1.358 . S
C210 H216 0.930 . S
C211 N209 1.400 . S
C211 C212 1.351 . S
C211 H228 0.930 . S
C212 N208 1.389 . S
C212 C211 1.351 . S
C212 H217 0.930 . S
O213 Cu207 1.974 . S
O213 C223 1.282 . S
C214 O215 1.261 . S
C214 O227 1.251 . S
O215 C214 1.261 . S
H216 C210 0.930 . S
H217 C212 0.930 . S
N218 Cu207 1.985 . S
N218 C220 1.335 . S
N218 C221 1.390 . S
N219 C220 1.345 . S
N219 C222 1.336 . S
C220 N218 1.335 . S
C220 N219 1.345 . S
C220 H225 0.930 . S
C221 N218 1.390 . S
C221 C222 1.346 . S
C221 H226 0.930 . S
C222 N219 1.336 . S
C222 C221 1.346 . S
C222 H229 0.929 . S
C223 O213 1.282 . S
C223 O224 1.216 . S
O224 C223 1.216 . S
H225 C220 0.930 . S
H226 C221 0.930 . S
O227 Cu207 1.959 . S
O227 C214 1.251 . S
H228 C211 0.930 . S
H229 C222 0.929 . S
Cu230 N231 1.999 . S
Cu230 O236 1.974 . S
Cu230 N241 1.985 . S
Cu230 O250 1.959 . S
N231 Cu230 1.999 . S
N231 C233 1.263 . S
N231 C235 1.389 . S
N232 C233 1.358 . S
N232 C234 1.400 . S
C233 N231 1.263 . S
C233 N232 1.358 . S
C233 H239 0.930 . S
C234 N232 1.400 . S
C234 C235 1.351 . S
C234 H251 0.930 . S
C235 N231 1.389 . S
C235 C234 1.351 . S
C235 H240 0.930 . S
O236 Cu230 1.974 . S
O236 C246 1.282 . S
C237 O238 1.261 . S
C237 O250 1.251 . S
O238 C237 1.261 . S
H239 C233 0.930 . S
H240 C235 0.930 . S
N241 Cu230 1.985 . S
N241 C243 1.335 . S
N241 C244 1.390 . S
N242 C243 1.345 . S
N242 C245 1.336 . S
C243 N241 1.335 . S
C243 N242 1.345 . S
C243 H248 0.930 . S
C244 N241 1.390 . S
C244 C245 1.346 . S
C244 H249 0.930 . S
C245 N242 1.336 . S
C245 C244 1.346 . S
C245 H252 0.929 . S
C246 O236 1.282 . S
C246 O247 1.216 . S
O247 C246 1.216 . S
H248 C243 0.930 . S
H249 C244 0.930 . S
O250 Cu230 1.959 . S
O250 C237 1.251 . S
H251 C234 0.930 . S
H252 C245 0.929 . S
Cu253 N254 1.999 . S
Cu253 O259 1.974 . S
Cu253 N264 1.985 . S
Cu253 O273 1.959 . S
N254 Cu253 1.999 . S
N254 C256 1.263 . S
N254 C258 1.389 . S
N255 C256 1.358 . S
N255 C257 1.400 . S
C256 N254 1.263 . S
C256 N255 1.358 . S
C256 H262 0.930 . S
C257 N255 1.400 . S
C257 C258 1.351 . S
C257 H274 0.930 . S
C258 N254 1.389 . S
C258 C257 1.351 . S
C258 H263 0.930 . S
O259 Cu253 1.974 . S
O259 C269 1.282 . S
C260 O261 1.261 . S
C260 O273 1.251 . S
O261 C260 1.261 . S
H262 C256 0.930 . S
H263 C258 0.930 . S
N264 Cu253 1.985 . S
N264 C266 1.335 . S
N264 C267 1.390 . S
N265 C266 1.345 . S
N265 C268 1.336 . S
C266 N264 1.335 . S
C266 N265 1.345 . S
C266 H271 0.930 . S
C267 N264 1.390 . S
C267 C268 1.346 . S
C267 H272 0.930 . S
C268 N265 1.336 . S
C268 C267 1.346 . S
C268 H275 0.929 . S
C269 O259 1.282 . S
C269 O270 1.216 . S
O270 C269 1.216 . S
H271 C266 0.930 . S
H272 C267 0.930 . S
O273 Cu253 1.959 . S
O273 C260 1.251 . S
H274 C257 0.930 . S
H275 C268 0.929 . S
C276 C277 1.349 . S
C276 C278 1.327 . S
C276 H301 0.950 . S
C277 C276 1.349 . S
C277 C293 1.349 . S
C278 C276 1.327 . S
C278 C297 1.429 . S
C278 H302 0.950 . S
C279 C296 1.574 . S
C279 C298 1.368 1_545 S
C279 H303 0.949 . S
H280 C284 0.949 . S
C281 C282 1.349 . S
C281 C283 1.327 . S
C281 H304 0.950 . S
C282 C281 1.349 . S
C282 C294 1.349 . S
C283 C281 1.327 . S
C283 C299 1.429 . S
C283 H305 0.950 . S
C284 H280 0.949 . S
C284 C292 1.574 . S
C284 C300 1.368 1_565 S
H285 C293 0.950 . S
H286 C291 0.950 . S
H287 C292 0.949 . S
H288 C294 0.950 . S
H289 C295 0.950 . S
H290 C296 0.949 . S
C291 H286 0.950 . S
C291 C293 1.327 . S
C291 C297 1.429 . S
C292 C284 1.574 . S
C292 H287 0.949 . S
C292 C298 1.368 1_554 S
C293 C277 1.349 . S
C293 H285 0.950 . S
C293 C291 1.327 . S
C294 C282 1.349 . S
C294 H288 0.950 . S
C294 C295 1.327 . S
C295 H289 0.950 . S
C295 C294 1.327 . S
C295 C299 1.429 . S
C296 C279 1.574 . S
C296 H290 0.949 . S
C296 C300 1.368 1_556 S
C297 C278 1.429 . S
C297 C291 1.429 . S
C297 C298 1.523 . S
C298 C279 1.368 1_565 S
C298 C292 1.368 1_556 S
C298 C297 1.523 . S
C299 C283 1.429 . S
C299 C295 1.429 . S
C299 C300 1.523 . S
C300 C284 1.368 1_545 S
C300 C296 1.368 1_554 S
C300 C299 1.523 . S
H301 C276 0.950 . S
H302 C278 0.950 . S
H303 C279 0.949 . S
H304 C281 0.950 . S
H305 C283 0.950 . S
C306 C307 1.349 . S
C306 C308 1.327 . S
C306 H331 0.950 . S
C307 C306 1.349 . S
C307 C323 1.349 . S
C308 C306 1.327 . S
C308 C327 1.429 . S
C308 H332 0.950 . S
C309 C326 1.574 . S
C309 C328 1.368 . S
C309 H333 0.949 . S
H310 C314 0.949 . S
C311 C312 1.349 . S
C311 C313 1.327 . S
C311 H334 0.950 . S
C312 C311 1.349 . S
C312 C324 1.349 . S
C313 C311 1.327 . S
C313 C329 1.429 . S
C313 H335 0.950 . S
C314 H310 0.949 . S
C314 C322 1.574 . S
C314 C330 1.368 . S
H315 C323 0.950 . S
H316 C321 0.950 . S
H317 C322 0.949 . S
H318 C324 0.950 . S
H319 C325 0.950 . S
H320 C326 0.949 . S
C321 H316 0.950 . S
C321 C323 1.327 . S
C321 C327 1.429 . S
C322 C314 1.574 . S
C322 H317 0.949 . S
C322 C328 1.368 . S
C323 C307 1.349 . S
C323 H315 0.950 . S
C323 C321 1.327 . S
C324 C312 1.349 . S
C324 H318 0.950 . S
C324 C325 1.327 . S
C325 H319 0.950 . S
C325 C324 1.327 . S
C325 C329 1.429 . S
C326 C309 1.574 . S
C326 H320 0.949 . S
C326 C330 1.368 . S
C327 C308 1.429 . S
C327 C321 1.429 . S
C327 C328 1.523 . S
C328 C309 1.368 . S
C328 C322 1.368 . S
C328 C327 1.523 . S
C329 C313 1.429 . S
C329 C325 1.429 . S
C329 C330 1.523 . S
C330 C314 1.368 . S
C330 C326 1.368 . S
C330 C329 1.523 . S
H331 C306 0.950 . S
H332 C308 0.950 . S
H333 C309 0.949 . S
H334 C311 0.950 . S
H335 C313 0.950 . S
C336 C337 1.349 . S
C336 C338 1.327 . S
C336 H361 0.950 . S
C337 C336 1.349 . S
C337 C353 1.349 . S
C338 C336 1.327 . S
C338 C357 1.429 . S
C338 H362 0.950 . S
C339 C356 1.574 1_655 S
C339 C358 1.368 . S
C339 H363 0.949 . S
H340 C344 0.938 1_455 S
C341 C342 1.349 . S
C341 C343 1.327 . S
C341 H364 0.950 . S
C342 C341 1.349 . S
C342 C354 1.349 . S
C343 C341 1.327 . S
C343 C359 1.429 . S
C343 H365 0.950 . S
C344 H340 0.938 1_655 S
C344 C352 1.587 . S
C344 C360 1.363 1_655 S
H345 C353 0.950 . S
H346 C351 0.950 . S
H347 C352 0.949 . S
H348 C354 0.950 . S
H349 C355 0.950 . S
H350 C356 0.949 . S
C351 H346 0.950 . S
C351 C353 1.327 . S
C351 C357 1.429 . S
C352 C344 1.587 . S
C352 H347 0.949 . S
C352 C358 1.368 . S
C353 C337 1.349 . S
C353 H345 0.950 . S
C353 C351 1.327 . S
C354 C342 1.349 . S
C354 H348 0.950 . S
C354 C355 1.327 . S
C355 H349 0.950 . S
C355 C354 1.327 . S
C355 C359 1.429 . S
C356 C339 1.574 1_455 S
C356 H350 0.949 . S
C356 C360 1.368 . S
C357 C338 1.429 . S
C357 C351 1.429 . S
C357 C358 1.523 . S
C358 C339 1.368 . S
C358 C352 1.368 . S
C358 C357 1.523 . S
C359 C343 1.429 . S
C359 C355 1.429 . S
C359 C360 1.523 . S
C360 C344 1.363 1_455 S
C360 C356 1.368 . S
C360 C359 1.523 . S
H361 C336 0.950 . S
H362 C338 0.950 . S
H363 C339 0.949 . S
H364 C341 0.950 . S
H365 C343 0.950 . S
C366 C367 1.349 . S
C366 C368 1.327 . S
C366 H391 0.950 . S
C367 C366 1.349 . S
C367 C383 1.349 . S
C368 C366 1.327 . S
C368 C387 1.429 . S
C368 H392 0.950 . S
C369 C386 1.619 1_565 S
C369 C388 1.368 . S
C369 H393 0.949 . S
H370 C374 0.949 . S
C371 C372 1.349 . S
C371 C373 1.327 . S
C371 H394 0.950 . S
C372 C371 1.349 . S
C372 C384 1.349 . S
C373 C371 1.327 . S
C373 C389 1.429 . S
C373 H395 0.950 . S
C374 H370 0.949 . S
C374 C382 1.619 1_545 S
C374 C390 1.368 . S
H375 C383 0.950 . S
H376 C381 0.950 . S
H377 C382 0.953 . S
H378 C384 0.950 . S
H379 C385 0.950 . S
H380 C386 0.953 . S
C381 H376 0.950 . S
C381 C383 1.327 . S
C381 C387 1.429 . S
C382 C374 1.619 1_565 S
C382 H377 0.953 . S
C382 C388 1.323 1_556 S
C383 C367 1.349 . S
C383 H375 0.950 . S
C383 C381 1.327 . S
C384 C372 1.349 . S
C384 H378 0.950 . S
C384 C385 1.327 . S
C385 H379 0.950 . S
C385 C384 1.327 . S
C385 C389 1.429 . S
C386 C369 1.619 1_545 S
C386 H380 0.953 . S
C386 C390 1.323 1_554 S
C387 C368 1.429 . S
C387 C381 1.429 . S
C387 C388 1.523 . S
C388 C369 1.368 . S
C388 C382 1.323 1_554 S
C388 C387 1.523 . S
C389 C373 1.429 . S
C389 C385 1.429 . S
C389 C390 1.523 . S
C390 C374 1.368 . S
C390 C386 1.323 1_556 S
C390 C389 1.523 . S
H391 C366 0.950 . S
H392 C368 0.950 . S
H393 C369 0.949 . S
H394 C371 0.950 . S
H395 C373 0.950 . S
C396 C397 1.349 . S
C396 C398 1.327 . S
C396 H421 0.950 . S
C397 C396 1.349 . S
C397 C413 1.349 . S
C398 C396 1.327 . S
C398 C417 1.429 . S
C398 H422 0.950 . S
C399 C416 1.574 . S
C399 C418 1.368 . S
C399 H423 0.949 . S
H400 C404 0.949 . S
C401 C402 1.349 . S
C401 C403 1.327 . S
C401 H424 0.950 . S
C402 C401 1.349 . S
C402 C414 1.349 . S
C403 C401 1.327 . S
C403 C419 1.429 . S
C403 H425 0.950 . S
C404 H400 0.949 . S
C404 C412 1.574 . S
C404 C420 1.368 . S
H405 C413 0.950 . S
H406 C411 0.950 . S
H407 C412 0.949 . S
H408 C414 0.950 . S
H409 C415 0.950 . S
H410 C416 0.949 . S
C411 H406 0.950 . S
C411 C413 1.327 . S
C411 C417 1.429 . S
C412 C404 1.574 . S
C412 H407 0.949 . S
C412 C418 1.368 . S
C413 C397 1.349 . S
C413 H405 0.950 . S
C413 C411 1.327 . S
C414 C402 1.349 . S
C414 H408 0.950 . S
C414 C415 1.327 . S
C415 H409 0.950 . S
C415 C414 1.327 . S
C415 C419 1.429 . S
C416 C399 1.574 . S
C416 H410 0.949 . S
C416 C420 1.368 . S
C417 C398 1.429 . S
C417 C411 1.429 . S
C417 C418 1.523 . S
C418 C399 1.368 . S
C418 C412 1.368 . S
C418 C417 1.523 . S
C419 C403 1.429 . S
C419 C415 1.429 . S
C419 C420 1.523 . S
C420 C404 1.368 . S
C420 C416 1.368 . S
C420 C419 1.523 . S
H421 C396 0.950 . S
H422 C398 0.950 . S
H423 C399 0.949 . S
H424 C401 0.950 . S
H425 C403 0.950 . S
C426 C427 1.349 . S
C426 C428 1.327 . S
C426 H451 0.950 . S
C427 C426 1.349 . S
C427 C443 1.349 . S
C428 C426 1.327 . S
C428 C447 1.429 . S
C428 H452 0.950 . S
C429 C446 1.574 1_655 S
C429 C448 1.368 . S
C429 H453 0.949 . S
H430 C434 0.949 . S
C431 C432 1.349 . S
C431 C433 1.327 . S
C431 H454 0.950 . S
C432 C431 1.349 . S
C432 C444 1.349 . S
C433 C431 1.327 . S
C433 C449 1.429 . S
C433 H455 0.950 . S
C434 H430 0.949 . S
C434 C442 1.574 1_455 S
C434 C450 1.368 . S
H435 C443 0.950 . S
H436 C441 0.950 . S
H437 C442 0.949 . S
H438 C444 0.950 . S
H439 C445 0.950 . S
H440 C446 0.949 . S
C441 H436 0.950 . S
C441 C443 1.327 . S
C441 C447 1.429 . S
C442 C434 1.574 1_655 S
C442 H437 0.949 . S
C442 C448 1.368 . S
C443 C427 1.349 . S
C443 H435 0.950 . S
C443 C441 1.327 . S
C444 C432 1.349 . S
C444 H438 0.950 . S
C444 C445 1.327 . S
C445 H439 0.950 . S
C445 C444 1.327 . S
C445 C449 1.429 . S
C446 C429 1.574 1_455 S
C446 H440 0.949 . S
C446 C450 1.368 . S
C447 C428 1.429 . S
C447 C441 1.429 . S
C447 C448 1.523 . S
C448 C429 1.368 . S
C448 C442 1.368 . S
C448 C447 1.523 . S
C449 C433 1.429 . S
C449 C445 1.429 . S
C449 C450 1.523 . S
C450 C434 1.368 . S
C450 C446 1.368 . S
C450 C449 1.523 . S
H451 C426 0.950 . S
H452 C428 0.950 . S
H453 C429 0.949 . S
H454 C431 0.950 . S
H455 C433 0.950 . S
C456 C457 1.349 . S
C456 C458 1.327 . S
C456 H481 0.950 . S
C457 C456 1.349 . S
C457 C473 1.349 . S
C458 C456 1.327 . S
C458 C477 1.429 . S
C458 H482 0.950 . S
C459 C476 1.574 . S
C459 C478 1.368 1_554 S
C459 H483 0.949 . S
H460 C464 0.949 . S
C461 C462 1.349 . S
C461 C463 1.327 . S
C461 H484 0.950 . S
C462 C461 1.349 . S
C462 C474 1.349 . S
C463 C461 1.327 . S
C463 C479 1.429 . S
C463 H485 0.950 . S
C464 H460 0.949 . S
C464 C472 1.574 . S
C464 C480 1.368 1_556 S
H465 C473 0.950 . S
H466 C471 0.950 . S
H467 C472 0.949 . S
H468 C474 0.950 . S
H469 C475 0.950 . S
H470 C476 0.949 . S
C471 H466 0.950 . S
C471 C473 1.327 . S
C471 C477 1.429 . S
C472 C464 1.574 . S
C472 H467 0.949 . S
C472 C478 1.368 . S
C473 C457 1.349 . S
C473 H465 0.950 . S
C473 C471 1.327 . S
C474 C462 1.349 . S
C474 H468 0.950 . S
C474 C475 1.327 . S
C475 H469 0.950 . S
C475 C474 1.327 . S
C475 C479 1.429 . S
C476 C459 1.574 . S
C476 H470 0.949 . S
C476 C480 1.368 . S
C477 C458 1.429 . S
C477 C471 1.429 . S
C477 C478 1.523 . S
C478 C459 1.368 1_556 S
C478 C472 1.368 . S
C478 C477 1.523 . S
C479 C463 1.429 . S
C479 C475 1.429 . S
C479 C480 1.523 . S
C480 C464 1.368 1_554 S
C480 C476 1.368 . S
C480 C479 1.523 . S
H481 C456 0.950 . S
H482 C458 0.950 . S
H483 C459 0.949 . S
H484 C461 0.950 . S
H485 C463 0.950 . S
C486 C487 1.349 . S
C486 C488 1.327 . S
C486 H511 0.950 . S
C487 C486 1.349 . S
C487 C503 1.349 . S
C488 C486 1.327 . S
C488 C507 1.429 . S
C488 H512 0.950 . S
C489 C506 1.574 . S
C489 C508 1.368 . S
C489 H513 0.949 . S
H490 C494 0.949 . S
C491 C492 1.349 . S
C491 C493 1.327 . S
C491 H514 0.950 . S
C492 C491 1.349 . S
C492 C504 1.349 . S
C493 C491 1.327 . S
C493 C509 1.429 . S
C493 H515 0.950 . S
C494 H490 0.949 . S
C494 C502 1.574 . S
C494 C510 1.368 . S
H495 C503 0.950 . S
H496 C501 0.950 . S
H497 C502 0.949 . S
H498 C504 0.950 . S
H499 C505 0.950 . S
H500 C506 0.949 . S
C501 H496 0.950 . S
C501 C503 1.327 . S
C501 C507 1.429 . S
C502 C494 1.574 . S
C502 H497 0.949 . S
C502 C508 1.368 . S
C503 C487 1.349 . S
C503 H495 0.950 . S
C503 C501 1.327 . S
C504 C492 1.349 . S
C504 H498 0.950 . S
C504 C505 1.327 . S
C505 H499 0.950 . S
C505 C504 1.327 . S
C505 C509 1.429 . S
C506 C489 1.574 . S
C506 H500 0.949 . S
C506 C510 1.368 . S
C507 C488 1.429 . S
C507 C501 1.429 . S
C507 C508 1.523 . S
C508 C489 1.368 . S
C508 C502 1.368 . S
C508 C507 1.523 . S
C509 C493 1.429 . S
C509 C505 1.429 . S
C509 C510 1.523 . S
C510 C494 1.368 . S
C510 C506 1.368 . S
C510 C509 1.523 . S
H511 C486 0.950 . S
H512 C488 0.950 . S
H513 C489 0.949 . S
H514 C491 0.950 . S
H515 C493 0.950 . S
C516 C517 1.349 . S
C516 C518 1.327 . S
C516 H541 0.950 . S
C517 C516 1.349 . S
C517 C533 1.349 . S
C518 C516 1.327 . S
C518 C537 1.429 . S
C518 H542 0.950 . S
C519 C536 1.574 . S
C519 C538 1.368 . S
C519 H543 0.949 . S
H520 C524 0.949 . S
C521 C522 1.349 . S
C521 C523 1.327 . S
C521 H544 0.950 . S
C522 C521 1.349 . S
C522 C534 1.349 . S
C523 C521 1.327 . S
C523 C539 1.429 . S
C523 H545 0.950 . S
C524 H520 0.949 . S
C524 C532 1.574 . S
C524 C540 1.368 . S
H525 C533 0.950 . S
H526 C531 0.950 . S
H527 C532 0.949 . S
H528 C534 0.950 . S
H529 C535 0.950 . S
H530 C536 0.949 . S
C531 H526 0.950 . S
C531 C533 1.327 . S
C531 C537 1.429 . S
C532 C524 1.574 . S
C532 H527 0.949 . S
C532 C538 1.368 . S
C533 C517 1.349 . S
C533 H525 0.950 . S
C533 C531 1.327 . S
C534 C522 1.349 . S
C534 H528 0.950 . S
C534 C535 1.327 . S
C535 H529 0.950 . S
C535 C534 1.327 . S
C535 C539 1.429 . S
C536 C519 1.574 . S
C536 H530 0.949 . S
C536 C540 1.368 . S
C537 C518 1.429 . S
C537 C531 1.429 . S
C537 C538 1.523 . S
C538 C519 1.368 . S
C538 C532 1.368 . S
C538 C537 1.523 . S
C539 C523 1.429 . S
C539 C535 1.429 . S
C539 C540 1.523 . S
C540 C524 1.368 . S
C540 C536 1.368 . S
C540 C539 1.523 . S
H541 C516 0.950 . S
H542 C518 0.950 . S
H543 C519 0.949 . S
H544 C521 0.950 . S
H545 C523 0.950 . S
C546 C547 1.349 . S
C546 C548 1.327 . S
C546 H571 0.950 . S
C547 C546 1.349 . S
C547 C563 1.349 . S
C548 C546 1.327 . S
C548 C567 1.429 . S
C548 H572 0.950 . S
C549 C566 1.574 . S
C549 C568 1.368 1_554 S
C549 H573 0.949 . S
H550 C554 0.949 . S
C551 C552 1.349 . S
C551 C553 1.327 . S
C551 H574 0.950 . S
C552 C551 1.349 . S
C552 C564 1.349 . S
C553 C551 1.327 . S
C553 C569 1.429 . S
C553 H575 0.950 . S
C554 H550 0.949 . S
C554 C562 1.574 . S
C554 C570 1.368 1_556 S
H555 C563 0.950 . S
H556 C561 0.950 . S
H557 C562 0.949 . S
H558 C564 0.950 . S
H559 C565 0.950 . S
H560 C566 0.949 . S
C561 H556 0.950 . S
C561 C563 1.327 . S
C561 C567 1.429 . S
C562 C554 1.574 . S
C562 H557 0.949 . S
C562 C568 1.368 . S
C563 C547 1.349 . S
C563 H555 0.950 . S
C563 C561 1.327 . S
C564 C552 1.349 . S
C564 H558 0.950 . S
C564 C565 1.327 . S
C565 H559 0.950 . S
C565 C564 1.327 . S
C565 C569 1.429 . S
C566 C549 1.574 . S
C566 H560 0.949 . S
C566 C570 1.368 . S
C567 C548 1.429 . S
C567 C561 1.429 . S
C567 C568 1.523 . S
C568 C549 1.368 1_556 S
C568 C562 1.368 . S
C568 C567 1.523 . S
C569 C553 1.429 . S
C569 C565 1.429 . S
C569 C570 1.523 . S
C570 C554 1.368 1_554 S
C570 C566 1.368 . S
C570 C569 1.523 . S
H571 C546 0.950 . S
H572 C548 0.950 . S
H573 C549 0.949 . S
H574 C551 0.950 . S
H575 C553 0.950 . S
C576 C577 1.349 . S
C576 C578 1.327 . S
C576 H601 0.950 . S
C577 C576 1.349 . S
C577 C593 1.349 . S
C578 C576 1.327 . S
C578 C597 1.429 . S
C578 H602 0.950 . S
C579 C596 1.574 . S
C579 C598 1.368 . S
C579 H603 0.949 . S
H580 C584 0.949 . S
C581 C582 1.349 . S
C581 C583 1.327 . S
C581 H604 0.950 . S
C582 C581 1.349 . S
C582 C594 1.349 . S
C583 C581 1.327 . S
C583 C599 1.429 . S
C583 H605 0.950 . S
C584 H580 0.949 . S
C584 C592 1.574 . S
C584 C600 1.368 . S
H585 C593 0.950 . S
H586 C591 0.950 . S
H587 C592 0.949 . S
H588 C594 0.950 . S
H589 C595 0.950 . S
H590 C596 0.949 . S
C591 H586 0.950 . S
C591 C593 1.327 . S
C591 C597 1.429 . S
C592 C584 1.574 . S
C592 H587 0.949 . S
C592 C598 1.368 . S
C593 C577 1.349 . S
C593 H585 0.950 . S
C593 C591 1.327 . S
C594 C582 1.349 . S
C594 H588 0.950 . S
C594 C595 1.327 . S
C595 H589 0.950 . S
C595 C594 1.327 . S
C595 C599 1.429 . S
C596 C579 1.574 . S
C596 H590 0.949 . S
C596 C600 1.368 . S
C597 C578 1.429 . S
C597 C591 1.429 . S
C597 C598 1.523 . S
C598 C579 1.368 . S
C598 C592 1.368 . S
C598 C597 1.523 . S
C599 C583 1.429 . S
C599 C595 1.429 . S
C599 C600 1.523 . S
C600 C584 1.368 . S
C600 C596 1.368 . S
C600 C599 1.523 . S
H601 C576 0.950 . S
H602 C578 0.950 . S
H603 C579 0.949 . S
H604 C581 0.950 . S
H605 C583 0.950 . S
C606 C607 1.349 . S
C606 C608 1.327 . S
C606 H631 0.950 . S
C607 C606 1.349 . S
C607 C623 1.349 . S
C608 C606 1.327 . S
C608 C627 1.429 . S
C608 H632 0.950 . S
C609 C626 1.574 . S
C609 C628 1.368 . S
C609 H633 0.949 . S
H610 C614 0.949 . S
C611 C612 1.349 . S
C611 C613 1.327 . S
C611 H634 0.950 . S
C612 C611 1.349 . S
C612 C624 1.349 . S
C613 C611 1.327 . S
C613 C629 1.429 . S
C613 H635 0.950 . S
C614 H610 0.949 . S
C614 C622 1.574 . S
C614 C630 1.368 . S
H615 C623 0.950 . S
H616 C621 0.950 . S
H617 C622 0.949 . S
H618 C624 0.950 . S
H619 C625 0.950 . S
H620 C626 0.949 . S
C621 H616 0.950 . S
C621 C623 1.327 . S
C621 C627 1.429 . S
C622 C614 1.574 . S
C622 H617 0.949 . S
C622 C628 1.368 . S
C623 C607 1.349 . S
C623 H615 0.950 . S
C623 C621 1.327 . S
C624 C612 1.349 . S
C624 H618 0.950 . S
C624 C625 1.327 . S
C625 H619 0.950 . S
C625 C624 1.327 . S
C625 C629 1.429 . S
C626 C609 1.574 . S
C626 H620 0.949 . S
C626 C630 1.368 . S
C627 C608 1.429 . S
C627 C621 1.429 . S
C627 C628 1.523 . S
C628 C609 1.368 . S
C628 C622 1.368 . S
C628 C627 1.523 . S
C629 C613 1.429 . S
C629 C625 1.429 . S
C629 C630 1.523 . S
C630 C614 1.368 . S
C630 C626 1.368 . S
C630 C629 1.523 . S
H631 C606 0.950 . S
H632 C608 0.950 . S
H633 C609 0.949 . S
H634 C611 0.950 . S
H635 C613 0.950 . S
C636 C637 1.349 . S
C636 C638 1.327 . S
C636 H661 0.950 . S
C637 C636 1.349 . S
C637 C653 1.349 . S
C638 C636 1.327 . S
C638 C657 1.429 . S
C638 H662 0.950 . S
C639 C656 1.574 . S
C639 C658 1.368 . S
C639 H663 0.949 . S
H640 C644 0.949 . S
C641 C642 1.349 . S
C641 C643 1.327 . S
C641 H664 0.950 . S
C642 C641 1.349 . S
C642 C654 1.349 . S
C643 C641 1.327 . S
C643 C659 1.429 . S
C643 H665 0.950 . S
C644 H640 0.949 . S
C644 C652 1.574 . S
C644 C660 1.368 . S
H645 C653 0.950 . S
H646 C651 0.950 . S
H647 C652 0.949 . S
H648 C654 0.950 . S
H649 C655 0.950 . S
H650 C656 0.949 . S
C651 H646 0.950 . S
C651 C653 1.327 . S
C651 C657 1.429 . S
C652 C644 1.574 . S
C652 H647 0.949 . S
C652 C658 1.368 . S
C653 C637 1.349 . S
C653 H645 0.950 . S
C653 C651 1.327 . S
C654 C642 1.349 . S
C654 H648 0.950 . S
C654 C655 1.327 . S
C655 H649 0.950 . S
C655 C654 1.327 . S
C655 C659 1.429 . S
C656 C639 1.574 . S
C656 H650 0.949 . S
C656 C660 1.368 . S
C657 C638 1.429 . S
C657 C651 1.429 . S
C657 C658 1.523 . S
C658 C639 1.368 . S
C658 C652 1.368 . S
C658 C657 1.523 . S
C659 C643 1.429 . S
C659 C655 1.429 . S
C659 C660 1.523 . S
C660 C644 1.368 . S
C660 C656 1.368 . S
C660 C659 1.523 . S
H661 C636 0.950 . S
H662 C638 0.950 . S
H663 C639 0.949 . S
H664 C641 0.950 . S
H665 C643 0.950 . S
C666 C667 1.349 . S
C666 C668 1.327 . S
C666 H691 0.950 . S
C667 C666 1.349 . S
C667 C683 1.349 . S
C668 C666 1.327 . S
C668 C687 1.429 . S
C668 H692 0.950 . S
C669 C686 1.574 . S
C669 C688 1.368 . S
C669 H693 0.949 . S
H670 C674 0.949 . S
C671 C672 1.349 . S
C671 C673 1.327 . S
C671 H694 0.950 . S
C672 C671 1.349 . S
C672 C684 1.349 . S
C673 C671 1.327 . S
C673 C689 1.429 . S
C673 H695 0.950 . S
C674 H670 0.949 . S
C674 C682 1.574 . S
C674 C690 1.368 . S
H675 C683 0.950 . S
H676 C681 0.950 . S
H677 C682 0.949 . S
H678 C684 0.950 . S
H679 C685 0.950 . S
H680 C686 0.949 . S
C681 H676 0.950 . S
C681 C683 1.327 . S
C681 C687 1.429 . S
C682 C674 1.574 . S
C682 H677 0.949 . S
C682 C688 1.368 . S
C683 C667 1.349 . S
C683 H675 0.950 . S
C683 C681 1.327 . S
C684 C672 1.349 . S
C684 H678 0.950 . S
C684 C685 1.327 . S
C685 H679 0.950 . S
C685 C684 1.327 . S
C685 C689 1.429 . S
C686 C669 1.574 . S
C686 H680 0.949 . S
C686 C690 1.368 . S
C687 C668 1.429 . S
C687 C681 1.429 . S
C687 C688 1.523 . S
C688 C669 1.368 . S
C688 C682 1.368 . S
C688 C687 1.523 . S
C689 C673 1.429 . S
C689 C685 1.429 . S
C689 C690 1.523 . S
C690 C674 1.368 . S
C690 C686 1.368 . S
C690 C689 1.523 . S
H691 C666 0.950 . S
H692 C668 0.950 . S
H693 C669 0.949 . S
H694 C671 0.950 . S
H695 C673 0.950 . S
C696 C697 1.349 . S
C696 C698 1.327 . S
C696 H721 0.950 . S
C697 C696 1.349 . S
C697 C713 1.349 . S
C698 C696 1.327 . S
C698 C717 1.429 . S
C698 H722 0.950 . S
C699 C716 1.574 . S
C699 C718 1.368 . S
C699 H723 0.949 . S
H700 C704 0.949 . S
C701 C702 1.349 . S
C701 C703 1.327 . S
C701 H724 0.950 . S
C702 C701 1.349 . S
C702 C714 1.349 . S
C703 C701 1.327 . S
C703 C719 1.429 . S
C703 H725 0.950 . S
C704 H700 0.949 . S
C704 C712 1.574 . S
C704 C720 1.368 . S
H705 C713 0.950 . S
H706 C711 0.950 . S
H707 C712 0.949 . S
H708 C714 0.950 . S
H709 C715 0.950 . S
H710 C716 0.949 . S
C711 H706 0.950 . S
C711 C713 1.327 . S
C711 C717 1.429 . S
C712 C704 1.574 . S
C712 H707 0.949 . S
C712 C718 1.368 . S
C713 C697 1.349 . S
C713 H705 0.950 . S
C713 C711 1.327 . S
C714 C702 1.349 . S
C714 H708 0.950 . S
C714 C715 1.327 . S
C715 H709 0.950 . S
C715 C714 1.327 . S
C715 C719 1.429 . S
C716 C699 1.574 . S
C716 H710 0.949 . S
C716 C720 1.368 . S
C717 C698 1.429 . S
C717 C711 1.429 . S
C717 C718 1.523 . S
C718 C699 1.368 . S
C718 C712 1.368 . S
C718 C717 1.523 . S
C719 C703 1.429 . S
C719 C715 1.429 . S
C719 C720 1.523 . S
C720 C704 1.368 . S
C720 C716 1.368 . S
C720 C719 1.523 . S
H721 C696 0.950 . S
H722 C698 0.950 . S
H723 C699 0.949 . S
H724 C701 0.950 . S
H725 C703 0.950 . S
C726 C727 1.349 . S
C726 C728 1.327 . S
C726 H751 0.950 . S
C727 C726 1.349 . S
C727 C743 1.349 . S
C728 C726 1.327 . S
C728 C747 1.429 . S
C728 H752 0.950 . S
C729 C746 1.574 . S
C729 C748 1.368 . S
C729 H753 0.949 . S
H730 C734 0.949 . S
C731 C732 1.349 . S
C731 C733 1.327 . S
C731 H754 0.950 . S
C732 C731 1.349 . S
C732 C744 1.349 . S
C733 C731 1.327 . S
C733 C749 1.429 . S
C733 H755 0.950 . S
C734 H730 0.949 . S
C734 C742 1.574 . S
C734 C750 1.368 . S
H735 C743 0.950 . S
H736 C741 0.950 . S
H737 C742 0.949 . S
H738 C744 0.950 . S
H739 C745 0.950 . S
H740 C746 0.949 . S
C741 H736 0.950 . S
C741 C743 1.327 . S
C741 C747 1.429 . S
C742 C734 1.574 . S
C742 H737 0.949 . S
C742 C748 1.368 . S
C743 C727 1.349 . S
C743 H735 0.950 . S
C743 C741 1.327 . S
C744 C732 1.349 . S
C744 H738 0.950 . S
C744 C745 1.327 . S
C745 H739 0.950 . S
C745 C744 1.327 . S
C745 C749 1.429 . S
C746 C729 1.574 . S
C746 H740 0.949 . S
C746 C750 1.368 . S
C747 C728 1.429 . S
C747 C741 1.429 . S
C747 C748 1.523 . S
C748 C729 1.368 . S
C748 C742 1.368 . S
C748 C747 1.523 . S
C749 C733 1.429 . S
C749 C745 1.429 . S
C749 C750 1.523 . S
C750 C734 1.368 . S
C750 C746 1.368 . S
C750 C749 1.523 . S
H751 C726 0.950 . S
H752 C728 0.950 . S
H753 C729 0.949 . S
H754 C731 0.950 . S
H755 C733 0.950 . S
C756 C757 1.349 . S
C756 C758 1.327 . S
C756 H781 0.950 . S
C757 C756 1.349 . S
C757 C773 1.349 . S
C758 C756 1.327 . S
C758 C777 1.429 . S
C758 H782 0.950 . S
C759 C776 1.574 . S
C759 C778 1.368 . S
C759 H783 0.949 . S
H760 C764 0.949 . S
C761 C762 1.349 . S
C761 C763 1.327 . S
C761 H784 0.950 . S
C762 C761 1.349 . S
C762 C774 1.349 . S
C763 C761 1.327 . S
C763 C779 1.429 . S
C763 H785 0.950 . S
C764 H760 0.949 . S
C764 C772 1.574 . S
C764 C780 1.368 . S
H765 C773 0.950 . S
H766 C771 0.950 . S
H767 C772 0.949 . S
H768 C774 0.950 . S
H769 C775 0.950 . S
H770 C776 0.949 . S
C771 H766 0.950 . S
C771 C773 1.327 . S
C771 C777 1.429 . S
C772 C764 1.574 . S
C772 H767 0.949 . S
C772 C778 1.368 . S
C773 C757 1.349 . S
C773 H765 0.950 . S
C773 C771 1.327 . S
C774 C762 1.349 . S
C774 H768 0.950 . S
C774 C775 1.327 . S
C775 H769 0.950 . S
C775 C774 1.327 . S
C775 C779 1.429 . S
C776 C759 1.574 . S
C776 H770 0.949 . S
C776 C780 1.368 . S
C777 C758 1.429 . S
C777 C771 1.429 . S
C777 C778 1.523 . S
C778 C759 1.368 . S
C778 C772 1.368 . S
C778 C777 1.523 . S
C779 C763 1.429 . S
C779 C775 1.429 . S
C779 C780 1.523 . S
C780 C764 1.368 . S
C780 C776 1.368 . S
C780 C779 1.523 . S
H781 C756 0.950 . S
H782 C758 0.950 . S
H783 C759 0.949 . S
H784 C761 0.950 . S
H785 C763 0.950 . S
C786 C787 1.349 . S
C786 C788 1.327 . S
C786 H811 0.950 . S
C787 C786 1.349 . S
C787 C803 1.349 . S
C788 C786 1.327 . S
C788 C807 1.429 . S
C788 H812 0.950 . S
C789 C806 1.574 . S
C789 C808 1.368 . S
C789 H813 0.949 . S
H790 C794 0.949 . S
C791 C792 1.349 . S
C791 C793 1.327 . S
C791 H814 0.950 . S
C792 C791 1.349 . S
C792 C804 1.349 . S
C793 C791 1.327 . S
C793 C809 1.429 . S
C793 H815 0.950 . S
C794 H790 0.949 . S
C794 C802 1.574 . S
C794 C810 1.368 . S
H795 C803 0.950 . S
H796 C801 0.950 . S
H797 C802 0.949 . S
H798 C804 0.950 . S
H799 C805 0.950 . S
H800 C806 0.949 . S
C801 H796 0.950 . S
C801 C803 1.327 . S
C801 C807 1.429 . S
C802 C794 1.574 . S
C802 H797 0.949 . S
C802 C808 1.368 . S
C803 C787 1.349 . S
C803 H795 0.950 . S
C803 C801 1.327 . S
C804 C792 1.349 . S
C804 H798 0.950 . S
C804 C805 1.327 . S
C805 H799 0.950 . S
C805 C804 1.327 . S
C805 C809 1.429 . S
C806 C789 1.574 . S
C806 H800 0.949 . S
C806 C810 1.368 . S
C807 C788 1.429 . S
C807 C801 1.429 . S
C807 C808 1.523 . S
C808 C789 1.368 . S
C808 C802 1.368 . S
C808 C807 1.523 . S
C809 C793 1.429 . S
C809 C805 1.429 . S
C809 C810 1.523 . S
C810 C794 1.368 . S
C810 C806 1.368 . S
C810 C809 1.523 . S
H811 C786 0.950 . S
H812 C788 0.950 . S
H813 C789 0.949 . S
H814 C791 0.950 . S
H815 C793 0.950 . S
C816 C817 1.349 . S
C816 C818 1.327 . S
C816 H841 0.950 . S
C817 C816 1.349 . S
C817 C833 1.349 . S
C818 C816 1.327 . S
C818 C837 1.429 . S
C818 H842 0.950 . S
C819 C836 1.574 . S
C819 C838 1.368 . S
C819 H843 0.949 . S
H820 C824 0.949 . S
C821 C822 1.349 . S
C821 C823 1.327 . S
C821 H844 0.950 . S
C822 C821 1.349 . S
C822 C834 1.349 . S
C823 C821 1.327 . S
C823 C839 1.429 . S
C823 H845 0.950 . S
C824 H820 0.949 . S
C824 C832 1.574 . S
C824 C840 1.368 . S
H825 C833 0.950 . S
H826 C831 0.950 . S
H827 C832 0.949 . S
H828 C834 0.950 . S
H829 C835 0.950 . S
H830 C836 0.949 . S
C831 H826 0.950 . S
C831 C833 1.327 . S
C831 C837 1.429 . S
C832 C824 1.574 . S
C832 H827 0.949 . S
C832 C838 1.368 . S
C833 C817 1.349 . S
C833 H825 0.950 . S
C833 C831 1.327 . S
C834 C822 1.349 . S
C834 H828 0.950 . S
C834 C835 1.327 . S
C835 H829 0.950 . S
C835 C834 1.327 . S
C835 C839 1.429 . S
C836 C819 1.574 . S
C836 H830 0.949 . S
C836 C840 1.368 . S
C837 C818 1.429 . S
C837 C831 1.429 . S
C837 C838 1.523 . S
C838 C819 1.368 . S
C838 C832 1.368 . S
C838 C837 1.523 . S
C839 C823 1.429 . S
C839 C835 1.429 . S
C839 C840 1.523 . S
C840 C824 1.368 . S
C840 C836 1.368 . S
C840 C839 1.523 . S
H841 C816 0.950 . S
H842 C818 0.950 . S
H843 C819 0.949 . S
H844 C821 0.950 . S
H845 C823 0.950 . S
C846 C847 1.349 . S
C846 C848 1.327 . S
C846 H871 0.950 . S
C847 C846 1.349 . S
C847 C863 1.349 . S
C848 C846 1.327 . S
C848 C867 1.429 . S
C848 H872 0.950 . S
C849 C866 1.574 1_655 S
C849 C868 1.368 . S
C849 H873 0.949 . S
H850 C854 0.949 . S
C851 C852 1.349 . S
C851 C853 1.327 . S
C851 H874 0.950 . S
C852 C851 1.349 . S
C852 C864 1.349 . S
C853 C851 1.327 . S
C853 C869 1.429 . S
C853 H875 0.950 . S
C854 H850 0.949 . S
C854 C862 1.574 1_455 S
C854 C870 1.368 . S
H855 C863 0.950 . S
H856 C861 0.950 . S
H857 C862 0.949 . S
H858 C864 0.950 . S
H859 C865 0.950 . S
H860 C866 0.949 . S
C861 H856 0.950 . S
C861 C863 1.327 . S
C861 C867 1.429 . S
C862 C854 1.574 1_655 S
C862 H857 0.949 . S
C862 C868 1.368 . S
C863 C847 1.349 . S
C863 H855 0.950 . S
C863 C861 1.327 . S
C864 C852 1.349 . S
C864 H858 0.950 . S
C864 C865 1.327 . S
C865 H859 0.950 . S
C865 C864 1.327 . S
C865 C869 1.429 . S
C866 C849 1.574 1_455 S
C866 H860 0.949 . S
C866 C870 1.368 . S
C867 C848 1.429 . S
C867 C861 1.429 . S
C867 C868 1.523 . S
C868 C849 1.368 . S
C868 C862 1.368 . S
C868 C867 1.523 . S
C869 C853 1.429 . S
C869 C865 1.429 . S
C869 C870 1.523 . S
C870 C854 1.368 . S
C870 C866 1.368 . S
C870 C869 1.523 . S
H871 C846 0.950 . S
H872 C848 0.950 . S
H873 C849 0.949 . S
H874 C851 0.950 . S
H875 C853 0.950 . S
C876 C877 1.349 . S
C876 C878 1.327 . S
C876 H901 0.950 . S
C877 C876 1.349 . S
C877 C893 1.349 . S
C878 C876 1.327 . S
C878 C897 1.429 . S
C878 H902 0.950 . S
C879 C896 1.574 1_545 S
C879 C898 1.368 . S
C879 H903 0.949 . S
H880 C884 0.949 . S
C881 C882 1.349 . S
C881 C883 1.327 . S
C881 H904 0.950 . S
C882 C881 1.349 . S
C882 C894 1.349 . S
C883 C881 1.327 . S
C883 C899 1.429 . S
C883 H905 0.950 . S
C884 H880 0.949 . S
C884 C892 1.574 1_565 S
C884 C900 1.368 . S
H885 C893 0.950 . S
H886 C891 0.950 . S
H887 C892 0.949 . S
H888 C894 0.950 . S
H889 C895 0.950 . S
H890 C896 0.949 . S
C891 H886 0.950 . S
C891 C893 1.327 . S
C891 C897 1.429 . S
C892 C884 1.574 1_545 S
C892 H887 0.949 . S
C892 C898 1.368 . S
C893 C877 1.349 . S
C893 H885 0.950 . S
C893 C891 1.327 . S
C894 C882 1.349 . S
C894 H888 0.950 . S
C894 C895 1.327 . S
C895 H889 0.950 . S
C895 C894 1.327 . S
C895 C899 1.429 . S
C896 C879 1.574 1_565 S
C896 H890 0.949 . S
C896 C900 1.368 . S
C897 C878 1.429 . S
C897 C891 1.429 . S
C897 C898 1.523 . S
C898 C879 1.368 . S
C898 C892 1.368 . S
C898 C897 1.523 . S
C899 C883 1.429 . S
C899 C895 1.429 . S
C899 C900 1.523 . S
C900 C884 1.368 . S
C900 C896 1.368 . S
C900 C899 1.523 . S
H901 C876 0.950 . S
H902 C878 0.950 . S
H903 C879 0.949 . S
H904 C881 0.950 . S
H905 C883 0.950 . S
C906 C907 1.349 . S
C906 C908 1.327 . S
C906 H931 0.950 . S
C907 C906 1.349 . S
C907 C923 1.349 . S
C908 C906 1.327 . S
C908 C927 1.429 . S
C908 H932 0.950 . S
C909 C926 1.574 . S
C909 C928 1.368 . S
C909 H933 0.949 . S
H910 C914 0.949 . S
C911 C912 1.349 . S
C911 C913 1.327 . S
C911 H934 0.950 . S
C912 C911 1.349 . S
C912 C924 1.349 . S
C913 C911 1.327 . S
C913 C929 1.429 . S
C913 H935 0.950 . S
C914 H910 0.949 . S
C914 C922 1.574 . S
C914 C930 1.368 . S
H915 C923 0.950 . S
H916 C921 0.950 . S
H917 C922 0.949 . S
H918 C924 0.950 . S
H919 C925 0.950 . S
H920 C926 0.949 . S
C921 H916 0.950 . S
C921 C923 1.327 . S
C921 C927 1.429 . S
C922 C914 1.574 . S
C922 H917 0.949 . S
C922 C928 1.368 . S
C923 C907 1.349 . S
C923 H915 0.950 . S
C923 C921 1.327 . S
C924 C912 1.349 . S
C924 H918 0.950 . S
C924 C925 1.327 . S
C925 H919 0.950 . S
C925 C924 1.327 . S
C925 C929 1.429 . S
C926 C909 1.574 . S
C926 H920 0.949 . S
C926 C930 1.368 . S
C927 C908 1.429 . S
C927 C921 1.429 . S
C927 C928 1.523 . S
C928 C909 1.368 . S
C928 C922 1.368 . S
C928 C927 1.523 . S
C929 C913 1.429 . S
C929 C925 1.429 . S
C929 C930 1.523 . S
C930 C914 1.368 . S
C930 C926 1.368 . S
C930 C929 1.523 . S
H931 C906 0.950 . S
H932 C908 0.950 . S
H933 C909 0.949 . S
H934 C911 0.950 . S
H935 C913 0.950 . S
C936 C937 1.349 . S
C936 C938 1.327 . S
C936 H961 0.950 . S
C937 C936 1.349 . S
C937 C953 1.349 . S
C938 C936 1.327 . S
C938 C957 1.429 . S
C938 H962 0.950 . S
C939 C956 1.574 1_455 S
C939 C958 1.368 . S
C939 H963 0.949 . S
H940 C944 0.949 . S
C941 C942 1.349 . S
C941 C943 1.327 . S
C941 H964 0.950 . S
C942 C941 1.349 . S
C942 C954 1.349 . S
C943 C941 1.327 . S
C943 C959 1.429 . S
C943 H965 0.950 . S
C944 H940 0.949 . S
C944 C952 1.574 1_655 S
C944 C960 1.368 . S
H945 C953 0.950 . S
H946 C951 0.950 . S
H947 C952 0.949 . S
H948 C954 0.950 . S
H949 C955 0.950 . S
H950 C956 0.949 . S
C951 H946 0.950 . S
C951 C953 1.327 . S
C951 C957 1.429 . S
C952 C944 1.574 1_455 S
C952 H947 0.949 . S
C952 C958 1.368 . S
C953 C937 1.349 . S
C953 H945 0.950 . S
C953 C951 1.327 . S
C954 C942 1.349 . S
C954 H948 0.950 . S
C954 C955 1.327 . S
C955 H949 0.950 . S
C955 C954 1.327 . S
C955 C959 1.429 . S
C956 C939 1.574 1_655 S
C956 H950 0.949 . S
C956 C960 1.368 . S
C957 C938 1.429 . S
C957 C951 1.429 . S
C957 C958 1.523 . S
C958 C939 1.368 . S
C958 C952 1.368 . S
C958 C957 1.523 . S
C959 C943 1.429 . S
C959 C955 1.429 . S
C959 C960 1.523 . S
C960 C944 1.368 . S
C960 C956 1.368 . S
C960 C959 1.523 . S
H961 C936 0.950 . S
H962 C938 0.950 . S
H963 C939 0.949 . S
H964 C941 0.950 . S
H965 C943 0.950 . S
C966 C967 1.349 . S
C966 C968 1.327 . S
C966 H991 0.950 . S
C967 C966 1.349 . S
C967 C983 1.349 . S
C968 C966 1.327 . S
C968 C987 1.429 . S
C968 H992 0.950 . S
C969 C986 1.574 1_565 S
C969 C988 1.368 . S
C969 H993 0.949 . S
H970 C974 0.949 . S
C971 C972 1.349 . S
C971 C973 1.327 . S
C971 H994 0.950 . S
C972 C971 1.349 . S
C972 C984 1.349 . S
C973 C971 1.327 . S
C973 C989 1.429 . S
C973 H995 0.950 . S
C974 H970 0.949 . S
C974 C982 1.574 1_545 S
C974 C990 1.368 . S
H975 C983 0.950 . S
H976 C981 0.950 . S
H977 C982 0.949 . S
H978 C984 0.950 . S
H979 C985 0.950 . S
H980 C986 0.949 . S
C981 H976 0.950 . S
C981 C983 1.327 . S
C981 C987 1.429 . S
C982 C974 1.574 1_565 S
C982 H977 0.949 . S
C982 C988 1.368 . S
C983 C967 1.349 . S
C983 H975 0.950 . S
C983 C981 1.327 . S
C984 C972 1.349 . S
C984 H978 0.950 . S
C984 C985 1.327 . S
C985 H979 0.950 . S
C985 C984 1.327 . S
C985 C989 1.429 . S
C986 C969 1.574 1_545 S
C986 H980 0.949 . S
C986 C990 1.368 . S
C987 C968 1.429 . S
C987 C981 1.429 . S
C987 C988 1.523 . S
C988 C969 1.368 . S
C988 C982 1.368 . S
C988 C987 1.523 . S
C989 C973 1.429 . S
C989 C985 1.429 . S
C989 C990 1.523 . S
C990 C974 1.368 . S
C990 C986 1.368 . S
C990 C989 1.523 . S
H991 C966 0.950 . S
H992 C968 0.950 . S
H993 C969 0.949 . S
H994 C971 0.950 . S
H995 C973 0.950 . S
C277 N163 1.834 . S
C282 N2 1.834 . S
C307 N35 1.885 . S
C312 N186 1.794 . S
C337 N48 1.794 . S
C342 N219 1.885 . S
C367 N71 1.834 . S
C372 N232 1.834 . S
C397 N255 1.794 . S
C402 N104 1.885 . S
C427 N150 1.885 . S
C432 N117 1.794 . S
C457 C246 1.520 . S
C462 C16 1.520 . S
C487 C30 1.604 . S
C492 C269 1.555 . S
C517 C62 1.555 . S
C522 C145 1.604 . S
C547 C177 1.520 . S
C552 C85 1.520 . S
C577 C200 1.555 . S
C582 C99 1.604 . S
C607 C214 1.604 . S
C612 C131 1.555 . S
C637 C7 1.855 . S
C642 C191 1.858 . S
C667 C39 1.843 . S
C672 C223 1.843 . S
C697 C237 1.855 . S
C702 C53 1.858 . S
C727 C76 1.855 . S
C732 C260 1.858 . S
C757 C154 1.843 . S
C762 C108 1.843 . S
C787 C168 1.855 . S
C792 C122 1.858 . S
C817 N81 2.095 . S
C822 N12 2.095 . S
C847 N94 2.035 . S
C852 N25 2.035 . S
C877 N58 2.088 . S
C882 N127 2.088 . S
C907 N140 2.036 . S
C912 N209 2.036 . S
C937 N173 2.096 . S
C942 N242 2.096 . S
C967 N265 2.088 . S
C972 N196 2.088 . S
