# Generated by pormake.
# Topology loh, (5)-cn, num edge types: 1
# Building blocks:
#     Node 0, Type 0, BuildingBlock: XOMCOT_clean_sbu_1, # of connection points: 5
#     Node 1, Type 0, BuildingBlock: XOMCOT_clean_sbu_1, # of connection points: 5
#     Node 2, Type 0, BuildingBlock: XOMCOT_clean_sbu_1, # of connection points: 5
#     Node 3, Type 0, BuildingBlock: XOMCOT_clean_sbu_1, # of connection points: 5
#     Node 4, Type 0, BuildingBlock: XOMCOT_clean_sbu_1, # of connection points: 5
#     Node 5, Type 0, BuildingBlock: XOMCOT_clean_sbu_1, # of connection points: 5
#     Node 6, Type 0, BuildingBlock: XOMCOT_clean_sbu_1, # of connection points: 5
#     Node 7, Type 0, BuildingBlock: XOMCOT_clean_sbu_1, # of connection points: 5
#     Edge 8, Type (0, 0), BuildingBlock: TEMPAE_clean_linker_10, # of connection points: 2
#     Edge 9, Type (0, 0), BuildingBlock: TEMPAE_clean_linker_10, # of connection points: 2
#     Edge 10, Type (0, 0), BuildingBlock: TEMPAE_clean_linker_10, # of connection points: 2
#     Edge 11, Type (0, 0), BuildingBlock: TEMPAE_clean_linker_10, # of connection points: 2
#     Edge 12, Type (0, 0), BuildingBlock: TEMPAE_clean_linker_10, # of connection points: 2
#     Edge 13, Type (0, 0), BuildingBlock: TEMPAE_clean_linker_10, # of connection points: 2
#     Edge 14, Type (0, 0), BuildingBlock: TEMPAE_clean_linker_10, # of connection points: 2
#     Edge 15, Type (0, 0), BuildingBlock: TEMPAE_clean_linker_10, # of connection points: 2
#     Edge 16, Type (0, 0), BuildingBlock: TEMPAE_clean_linker_10, # of connection points: 2
#     Edge 17, Type (0, 0), BuildingBlock: TEMPAE_clean_linker_10, # of connection points: 2
#     Edge 18, Type (0, 0), BuildingBlock: TEMPAE_clean_linker_10, # of connection points: 2
#     Edge 19, Type (0, 0), BuildingBlock: TEMPAE_clean_linker_10, # of connection points: 2
#     Edge 20, Type (0, 0), BuildingBlock: TEMPAE_clean_linker_10, # of connection points: 2
#     Edge 21, Type (0, 0), BuildingBlock: TEMPAE_clean_linker_10, # of connection points: 2
#     Edge 22, Type (0, 0), BuildingBlock: TEMPAE_clean_linker_10, # of connection points: 2
#     Edge 23, Type (0, 0), BuildingBlock: TEMPAE_clean_linker_10, # of connection points: 2
#     Edge 24, Type (0, 0), BuildingBlock: TEMPAE_clean_linker_10, # of connection points: 2
#     Edge 25, Type (0, 0), BuildingBlock: TEMPAE_clean_linker_10, # of connection points: 2
#     Edge 26, Type (0, 0), BuildingBlock: TEMPAE_clean_linker_10, # of connection points: 2
#     Edge 27, Type (0, 0), BuildingBlock: TEMPAE_clean_linker_10, # of connection points: 2
# Relax obj value: 0.206
# Max RMSD: 0.136
# Mean RMSD: 0.136
data_MOF--net-loh--node1-XOMCOT_clean_sbu_1--edge1-TEMPAE_clean_linker_10
_symmetry_space_group_name_H-M    P1
_symmetry_Int_Tables_number       1
_symmetry_cell_setting            triclinic
loop_
_symmetry_equiv_pos_as_xyz
'x, y, z'
_cell_length_a     27.155104
_cell_length_b     25.25122
_cell_length_c     41.15564
_cell_angle_alpha  89.977749
_cell_angle_beta   90.36733
_cell_angle_gamma 89.758406
loop_
_atom_site_label
_atom_site_type_symbol
_atom_site_fract_x
_atom_site_fract_y
_atom_site_fract_z
_atom_type_partial_charge
C0 C 0.10206 0.17755 0.18611 0.0
C1 C 0.10758 0.13178 0.20355 0.0
N2 N 0.06366 0.10738 0.20492 0.0
N3 N 0.05507 0.18204 0.1755 0.0
C4 C 1.03234 0.13862 0.18761 0.0
H5 H 0.13038 0.2069 0.18243 0.0
Co6 Co 1.03009 0.24443 0.15639 0.0
C7 C 1.04529 0.28855 0.21702 0.0
O8 O 1.00741 0.25832 0.22374 0.0
N9 N 1.00525 0.3063 0.13911 0.0
C10 C 0.96028 0.37911 0.13272 0.0
C11 C 0.97042 0.3369 0.15289 0.0
C12 C 1.01572 0.33021 0.11074 0.0
N13 N 0.98873 0.37447 0.10617 0.0
O14 O 0.08868 0.24971 0.12824 0.0
H15 H 0.95328 0.32866 0.17599 0.0
H16 H 1.04265 0.31559 0.09367 0.0
O17 O 0.0639 0.28589 0.18872 0.0
C18 C 0.11566 0.21486 0.11429 0.0
O19 O 0.10386 0.16453 0.11631 0.0
N20 N 0.9923 0.20675 0.12509 0.0
C21 C 0.91336 0.19445 0.08121 0.0
C22 C 0.90617 0.19056 0.11492 0.0
C23 C 0.9461 0.19683 0.13635 0.0
C24 C 1.00061 0.20663 0.09231 0.0
C25 C 0.9619 0.19966 0.07013 0.0
H26 H 0.93905 0.19983 0.16212 0.0
H27 H 1.0356 0.21768 0.08244 0.0
H28 H 0.99318 0.13166 0.18556 0.0
H29 H 0.14131 0.11824 0.21506 0.0
H30 H 0.93343 0.41012 0.13692 0.0
H31 H 0.86951 0.18738 0.12489 0.0
H32 H 0.96965 0.20221 0.0444 0.0
C33 C 0.52285 0.85154 0.68519 0.0
C34 C 0.51579 0.89708 0.70274 0.0
N35 N 0.55825 0.92452 0.70325 0.0
N36 N 0.56929 0.85018 0.67376 0.0
C37 C 0.59012 0.89515 0.68544 0.0
H38 H 0.49605 0.82043 0.68183 0.0
Co39 Co 0.59791 0.79062 0.65356 0.0
C40 C 0.59539 0.73736 0.71106 0.0
O41 O 0.63588 0.76506 0.7149 0.0
N42 N 0.62729 0.73202 0.63518 0.0
C43 C 0.68593 0.67484 0.62206 0.0
C44 C 0.67267 0.71453 0.64312 0.0
C45 C 0.61337 0.70228 0.60959 0.0
N46 N 0.64855 0.66724 0.60082 0.0
O47 O 0.53837 0.7807 0.62594 0.0
H48 H 0.69546 0.7313 0.6621 0.0
H49 H 0.57867 0.7073 0.59709 0.0
O50 O 0.56932 0.74533 0.68567 0.0
C51 C 0.50782 0.81271 0.61234 0.0
O52 O 0.51509 0.86401 0.61463 0.0
N53 N 0.63095 0.83225 0.62246 0.0
C54 C 0.70952 0.84382 0.57908 0.0
C55 C 0.71632 0.85133 0.61263 0.0
C56 C 0.67657 0.8455 0.6338 0.0
C57 C 0.62257 0.82966 0.58968 0.0
C58 C 0.66116 0.83627 0.56766 0.0
H59 H 0.68393 0.844 0.65964 0.0
H60 H 0.588 0.81612 0.57999 0.0
H61 H 0.62853 0.90487 0.6825 0.0
H62 H 0.48198 0.90849 0.71468 0.0
H63 H 0.72124 0.6549 0.62176 0.0
H64 H 0.75277 0.85631 0.62295 0.0
H65 H 0.65364 0.83115 0.54199 0.0
C66 C 0.07397 0.88353 0.91409 0.0
C67 C 0.07852 0.93366 0.90138 0.0
N68 N 0.06868 0.93151 0.8693 0.0
N69 N 0.06129 0.84954 0.89017 0.0
C70 C 0.0585 0.88003 0.86309 0.0
H71 H 0.078 0.87283 0.93942 0.0
Co72 Co 1.04198 0.77868 0.89587 0.0
C73 C 0.0594 0.74728 0.83303 0.0
O74 O 1.0153 0.76802 0.82905 0.0
N75 N 1.02091 0.70958 0.90097 0.0
C76 C 0.9735 0.63848 0.89705 0.0
C77 C 0.98315 0.68772 0.88442 0.0
C78 C 1.03371 0.6731 0.92344 0.0
N79 N 1.00522 0.62956 0.92178 0.0
O80 O 0.09814 0.76573 0.92561 0.0
H81 H 0.96227 0.70738 0.86548 0.0
H82 H 0.06088 0.67982 0.94223 0.0
O83 O 0.0816 0.75504 0.85998 0.0
C84 C 0.14367 0.77674 0.92165 0.0
O85 O 0.15739 0.80151 0.89514 0.0
N86 N 0.99992 0.79875 0.93001 0.0
C87 C 0.91968 0.8029 0.97253 0.0
C88 C 0.91593 0.823 0.94071 0.0
C89 C 0.95635 0.82009 0.91982 0.0
C90 C 1.00574 0.78282 0.96155 0.0
C91 C 0.96604 0.78441 0.98311 0.0
H92 H 0.95198 0.83175 0.89466 0.0
H93 H 1.0398 0.76498 0.96973 0.0
H94 H 1.04701 0.8654 0.83956 0.0
H95 H 0.08782 0.96916 0.9148 0.0
H96 H 0.94422 0.61227 0.88941 0.0
H97 H 0.88148 0.83884 0.93148 0.0
H98 H 0.97104 0.76793 1.00719 0.0
C99 C 0.6048 0.13842 0.41203 0.0
C100 C 0.60026 0.08939 0.39785 0.0
N101 N 0.60677 0.09479 0.36561 0.0
N102 N 0.61415 0.17485 0.38889 0.0
C103 C 0.61506 0.14699 0.3608 0.0
H104 H 0.60206 0.14689 0.43772 0.0
Co105 Co 0.62855 0.24646 0.39593 0.0
C106 C 0.60936 0.27847 0.33322 0.0
O107 O 0.65549 0.26347 0.3301 0.0
N108 N 0.64454 0.31654 0.40249 0.0
C109 C 0.68961 0.3894 0.40387 0.0
C110 C 0.68543 0.33951 0.39087 0.0
C111 C 0.62398 0.35315 0.42202 0.0
N112 N 0.65102 0.39785 0.42374 0.0
O113 O 0.57156 0.25295 0.42508 0.0
H114 H 0.71191 0.32002 0.37537 0.0
H115 H 0.59083 0.34639 0.43565 0.0
O116 O 0.58767 0.26845 0.35989 0.0
C117 C 0.52708 0.23843 0.42003 0.0
O118 O 0.51561 0.21452 0.39267 0.0
N119 N 0.67184 0.22824 0.43024 0.0
C120 C 0.75044 0.22477 0.47464 0.0
C121 C 0.75777 0.21365 0.44161 0.0
C122 C 0.71792 0.21533 0.41988 0.0
C123 C 0.66338 0.23717 0.4625 0.0
C124 C 0.70219 0.23496 0.48515 0.0
H125 H 0.72429 0.2096 0.3942 0.0
H126 H 0.62736 0.24896 0.47083 0.0
H127 H 0.623 0.16425 0.33738 0.0
H128 H 0.59251 0.0526 0.41028 0.0
H129 H 0.72044 0.41579 0.40053 0.0
H130 H 0.79431 0.20536 0.43246 0.0
H131 H 0.69497 0.24432 0.51036 0.0
C132 C 0.61091 0.67827 0.18433 0.0
C133 C 0.61828 0.63329 0.20229 0.0
N134 N 0.57555 0.60662 0.2037 0.0
N135 N 0.56385 0.68024 0.17358 0.0
C136 C 0.543 0.63582 0.18598 0.0
H137 H 0.63806 0.70873 0.18025 0.0
Co138 Co 0.5375 0.74116 0.1531 0.0
C139 C 0.5457 0.7945 0.21032 0.0
O140 O 0.50378 0.76962 0.21441 0.0
N141 N 0.51144 0.80159 0.13424 0.0
C142 C 0.46227 0.86996 0.12367 0.0
C143 C 0.47174 0.82868 0.14471 0.0
C144 C 0.52536 0.82667 0.10691 0.0
N145 N 0.49603 0.86825 0.09985 0.0
O146 O 0.59618 0.74612 0.12499 0.0
H147 H 0.45052 0.81843 0.16593 0.0
H148 H 0.55612 0.81453 0.09213 0.0
O149 O 0.57018 0.78504 0.18465 0.0
C150 C 0.62382 0.71186 0.1111 0.0
O151 O 0.6132 0.66126 0.11342 0.0
N152 N 0.5005 0.70114 0.12275 0.0
C153 C 0.41928 0.68938 0.08088 0.0
C154 C 0.41412 0.68411 0.11463 0.0
C155 C 0.45518 0.69005 0.13507 0.0
C156 C 0.50697 0.70237 0.08979 0.0
C157 C 0.46691 0.69587 0.06849 0.0
H158 H 0.44953 0.6923 0.16102 0.0
H159 H 0.54133 0.71468 0.0794 0.0
H160 H 0.50434 0.62643 0.18364 0.0
H161 H 0.65248 0.62165 0.21397 0.0
H162 H 0.43218 0.89807 0.12527 0.0
H163 H 0.37809 0.67911 0.12531 0.0
H164 H 0.47255 0.70115 0.04266 0.0
C165 C 0.10442 0.38499 0.64505 0.0
C166 C 0.10174 0.43461 0.65854 0.0
N167 N 0.11224 0.43054 0.69042 0.0
N168 N 0.1167 0.34928 0.66821 0.0
C169 C 0.12097 0.37839 0.69578 0.0
H170 H 0.09876 0.37579 0.61966 0.0
Co171 Co 0.13187 0.27765 0.65982 0.0
C172 C 0.11761 0.24477 0.72212 0.0
O173 O 0.16244 0.26398 0.72416 0.0
N174 N 0.14813 0.20764 0.65119 0.0
C175 C 0.18595 0.12937 0.65052 0.0
C176 C 0.17856 0.1752 0.66806 0.0
C177 C 0.13776 0.18102 0.62365 0.0
N178 N 0.16058 0.1337 0.62245 0.0
O179 O 0.07385 0.27163 0.63103 0.0
H180 H 0.19639 0.18514 0.69077 0.0
H181 H 0.11555 0.19688 0.60406 0.0
O182 O 0.09308 0.25348 0.6961 0.0
C183 C 1.02914 0.28531 0.63606 0.0
O184 O 1.01747 0.3086 0.66352 0.0
N185 N 0.17376 0.29799 0.62577 0.0
C186 C 0.25097 0.30074 0.58112 0.0
C187 C 0.26016 0.30459 0.61462 0.0
C188 C 0.22102 0.30328 0.63647 0.0
C189 C 0.16345 0.29742 0.59321 0.0
C190 C 0.20171 0.29905 0.57043 0.0
H191 H 0.22858 0.30289 0.66231 0.0
H192 H 0.12612 0.29253 0.58457 0.0
H193 H 0.13205 0.36227 0.71905 0.0
H194 H 0.09296 0.47105 0.64586 0.0
H195 H 0.21022 0.0969 0.65703 0.0
H196 H 0.29749 0.30666 0.62396 0.0
H197 H 0.19293 0.29577 0.5448 0.0
C198 C 0.53451 0.39185 0.91263 0.0
C199 C 0.5388 0.44075 0.89858 0.0
N200 N 0.55203 0.43418 0.86744 0.0
N201 N 0.54587 0.35351 0.8909 0.0
C202 C 0.55654 0.38111 0.86347 0.0
H203 H 0.52035 0.38543 0.93675 0.0
Co204 Co 0.53467 0.27903 0.89537 0.0
C205 C 0.55508 0.25713 0.83184 0.0
O206 O 0.51045 0.2768 0.82836 0.0
N207 N 0.52182 0.20727 0.89843 0.0
C208 C 0.48445 0.13036 0.89057 0.0
C209 C 0.48859 0.18166 0.87984 0.0
C210 C 0.5378 0.17084 0.92006 0.0
N211 N 0.51508 0.12381 0.91618 0.0
O212 O 0.59295 0.27056 0.92461 0.0
H213 H 0.46707 0.19978 0.86062 0.0
H214 H 0.56305 0.17956 0.93972 0.0
O215 O 0.57671 0.26289 0.85922 0.0
C216 C 0.61091 0.29484 0.94929 0.0
O217 O 0.58808 0.33648 0.96088 0.0
N218 N 0.48963 0.29074 0.92957 0.0
C219 C 0.40883 0.29329 0.97172 0.0
C220 C 0.4054 0.31453 0.94022 0.0
C221 C 0.44594 0.31211 0.91946 0.0
C222 C 0.4941 0.27078 0.96033 0.0
C223 C 0.45434 0.27201 0.98177 0.0
H224 H 0.44215 0.32599 0.89469 0.0
H225 H 0.52735 0.251 0.9681 0.0
H226 H 0.56439 0.36287 0.84035 0.0
H227 H 0.5308 0.47822 0.9102 0.0
H228 H 0.45934 0.10096 0.88105 0.0
H229 H 0.37133 0.33175 0.9313 0.0
H230 H 0.45864 0.25376 1.00543 0.0
C231 C 1.01199 0.67133 0.3865 0.0
C232 C 1.00467 0.62453 0.37038 0.0
N233 N 1.04883 0.60478 0.36186 0.0
N234 N 0.06075 0.68093 0.38929 0.0
C235 C 0.08223 0.63968 0.37359 0.0
H236 H 0.98306 0.69863 0.39322 0.0
Co237 Co 0.08827 0.74696 0.40047 0.0
C238 C 0.06853 0.78066 0.33798 0.0
O239 O 0.10822 0.75233 0.33219 0.0
N240 N 0.11591 0.8118 0.40948 0.0
C241 C 0.17088 0.87646 0.40985 0.0
C242 C 0.15616 0.83071 0.39454 0.0
C243 C 0.10617 0.84679 0.43331 0.0
N244 N 0.13944 0.88621 0.43434 0.0
O245 O 1.03304 0.76185 0.43042 0.0
H246 H 0.1748 0.81109 0.37474 0.0
H247 H 0.07738 0.84164 0.45104 0.0
O248 O 0.05064 0.77984 0.36648 0.0
C249 C 1.01121 0.73409 0.45199 0.0
O250 O 1.02671 0.68568 0.45811 0.0
N251 N 0.12955 0.7173 0.4336 0.0
C252 C 0.21299 0.70844 0.47442 0.0
C253 C 0.21389 0.68986 0.44223 0.0
C254 C 0.17205 0.69519 0.42223 0.0
C255 C 0.12741 0.7331 0.46541 0.0
C256 C 0.16822 0.72846 0.48611 0.0
H257 H 0.17552 0.68665 0.39666 0.0
H258 H 0.09647 0.75511 0.4745 0.0
H259 H 0.12102 0.63766 0.36809 0.0
H260 H 0.9693 0.60788 0.36385 0.0
H261 H 0.20306 0.8997 0.40407 0.0
H262 H 0.24746 0.67411 0.4319 0.0
H263 H 0.16569 0.74501 0.51031 0.0
C264 C 0.31813 0.27764 0.97972 0.0
C265 C 0.36454 0.28961 0.99306 0.0
C266 C 0.27686 0.26993 0.99959 0.0
C267 C 0.28196 0.2736 0.03378 0.0
C268 C 0.32827 0.28709 0.04741 0.0
C269 C 0.36885 0.29514 0.02693 0.0
C270 C 0.22814 0.25591 0.984 0.0
C271 C 0.33537 0.29126 0.08373 0.0
C272 C 0.1659 0.28382 0.08541 0.0
C273 C 0.15867 0.2308 0.09443 0.0
C274 C 0.2059 0.29851 0.06578 0.0
C275 C 0.23982 0.25939 0.05525 0.0
C276 C 0.23306 0.20601 0.06472 0.0
C277 C 0.19254 0.19237 0.084 0.0
C278 C 0.21147 0.35574 0.05592 0.0
C279 C 0.2685 0.16307 0.05431 0.0
H280 H 0.31424 0.27236 0.95371 0.0
H281 H 0.4042 0.30523 0.03755 0.0
H282 H 0.21821 0.21467 0.99046 0.0
H283 H 0.19852 0.28214 0.99328 0.0
H284 H 0.22913 0.25924 0.9571 0.0
H285 H 0.37282 0.30521 0.09043 0.0
H286 H 0.30783 0.31887 0.09419 0.0
H287 H 0.32943 0.25195 0.09508 0.0
H288 H 0.13989 0.31378 0.09328 0.0
H289 H 0.18753 0.15137 0.09098 0.0
H290 H 0.24791 0.37077 0.06392 0.0
H291 H 0.1823 0.38145 0.06638 0.0
H292 H 0.20998 0.35917 0.02906 0.0
H293 H 0.26881 0.16013 0.02741 0.0
H294 H 0.25881 0.12371 0.06444 0.0
H295 H 0.30645 0.1731 0.06227 0.0
C296 C 0.42846 0.82753 0.58198 0.0
C297 C 0.46557 0.79255 0.5926 0.0
C298 C 0.38849 0.80985 0.56302 0.0
C299 C 0.38555 0.75582 0.55392 0.0
C300 C 0.42294 0.72025 0.56445 0.0
C301 C 0.46216 0.73889 0.58389 0.0
C302 C 0.34931 0.84917 0.5527 0.0
C303 C 0.42174 0.66255 0.55494 0.0
C304 C 0.25791 0.70767 0.52846 0.0
C305 C 0.25914 0.71337 0.49449 0.0
C306 C 0.29919 0.71956 0.54799 0.0
C307 C 0.3433 0.73708 0.53334 0.0
C308 C 0.34566 0.74036 0.49901 0.0
C309 C 0.30366 0.72882 0.48008 0.0
C310 C 0.29486 0.71554 0.58446 0.0
C311 C 0.39199 0.75836 0.48227 0.0
H312 H 0.43041 0.86898 0.58866 0.0
H313 H 0.49043 0.71143 0.59193 0.0
H314 H 0.34726 0.85119 0.5258 0.0
H315 H 0.31275 0.83606 0.56141 0.0
H316 H 0.35647 0.8896 0.56222 0.0
H317 H 0.45404 0.64018 0.56451 0.0
H318 H 0.38766 0.64391 0.56418 0.0
H319 H 0.42102 0.65884 0.52807 0.0
H320 H 0.22417 0.69497 0.53996 0.0
H321 H 0.30524 0.73427 0.454 0.0
H322 H 0.29799 0.75558 0.59537 0.0
H323 H 0.32536 0.69111 0.59456 0.0
H324 H 0.25928 0.69799 0.59204 0.0
H325 H 0.39864 0.80073 0.48782 0.0
H326 H 0.38966 0.75362 0.45547 0.0
H327 H 0.42429 0.73565 0.49141 0.0
C328 C 0.33694 0.73041 0.06814 0.0
C329 C 0.3751 0.69568 0.05928 0.0
C330 C 0.29738 0.74148 0.04689 0.0
C331 C 0.2953 0.71675 1.01601 0.0
C332 C 0.33284 0.68022 1.00735 0.0
C333 C 0.37249 0.67058 0.02889 0.0
C334 C 0.25889 0.78143 0.05699 0.0
C335 C 0.33177 0.65229 0.97495 0.0
C336 C 0.17298 0.72125 0.9691 0.0
C337 C 0.18146 0.76186 0.94652 0.0
C338 C 0.20976 0.70557 0.99155 0.0
C339 C 0.25581 0.73193 0.99202 0.0
C340 C 0.26412 0.77362 0.96967 0.0
C341 C 0.22719 0.7876 0.94706 0.0
C342 C 0.19953 0.66035 1.01449 0.0
C343 C 0.31207 0.80373 0.96967 0.0
H344 H 0.33904 0.7508 0.09128 0.0
H345 H 0.40171 0.64362 1.02188 0.0
H346 H 0.26028 0.81634 0.04064 0.0
H347 H 0.22154 0.7642 0.05467 0.0
H348 H 0.26429 0.79512 0.08241 0.0
H349 H 0.36116 0.62174 0.97298 0.0
H350 H 0.29552 0.63309 0.97108 0.0
H351 H 0.33663 0.68153 0.95512 0.0
H352 H 0.13797 0.70089 0.96881 0.0
H353 H 0.23408 0.81926 0.92991 0.0
H354 H 0.20313 0.67392 0.04001 0.0
H355 H 0.22711 0.62836 1.01088 0.0
H356 H 0.16212 0.64359 1.01089 0.0
H357 H 0.31885 0.82129 0.99399 0.0
H358 H 0.31235 0.83596 0.9513 0.0
H359 H 0.3431 0.77632 0.96459 0.0
C360 C 0.49427 0.28625 0.46918 0.0
C361 C 0.488 0.24839 0.44455 0.0
C362 C 0.45635 0.29727 0.49146 0.0
C363 C 0.41146 0.26888 0.48962 0.0
C364 C 0.40535 0.22995 0.46517 0.0
C365 C 0.44336 0.22061 0.44282 0.0
C366 C 0.46418 0.33963 0.5168 0.0
C367 C 0.35867 0.19783 0.46272 0.0
C368 C 0.33112 0.25869 0.56502 0.0
C369 C 0.29266 0.2943 0.55791 0.0
C370 C 0.37007 0.25047 0.54323 0.0
C371 C 0.37116 0.27895 0.51358 0.0
C372 C 0.33278 0.31551 0.50642 0.0
C373 C 0.2938 0.32239 0.52851 0.0
C374 C 0.40956 0.21038 0.55165 0.0
C375 C 0.33277 0.34716 0.4753 0.0
H376 H 0.5285 0.30799 0.47075 0.0
H377 H 0.43821 0.19099 0.42406 0.0
H378 H 0.435 0.37034 0.5146 0.0
H379 H 0.46137 0.32225 0.54147 0.0
H380 H 0.50063 0.35897 0.51451 0.0
H381 H 0.35996 0.16842 0.44267 0.0
H382 H 0.3523 0.17648 0.48588 0.0
H383 H 0.32662 0.22444 0.45864 0.0
H384 H 0.33013 0.23613 0.58742 0.0
H385 H 0.26439 0.35015 0.52291 0.0
H386 H 0.4463 0.22938 0.55139 0.0
H387 H 0.41 0.17846 0.53312 0.0
H388 H 0.40389 0.19217 0.57591 0.0
H389 H 0.36781 0.3693 0.47312 0.0
H390 H 0.3016 0.37574 0.47399 0.0
H391 H 0.33031 0.32009 0.45414 0.0
C392 C 0.70201 0.6914 0.08136 0.0
C393 C 0.6671 0.72887 0.09166 0.0
C394 C 0.74299 0.70633 0.0628 0.0
C395 C 0.74913 0.76006 0.0538 0.0
C396 C 0.71406 0.79816 0.0641 0.0
C397 C 0.67377 0.78222 0.08312 0.0
C398 C 0.77966 0.66443 0.05268 0.0
C399 C 0.71873 0.85569 0.05467 0.0
C400 C 0.878 0.80144 0.02741 0.0
C401 C 0.87492 0.7968 0.99341 0.0
C402 C 0.83717 0.79084 0.04731 0.0
C403 C 0.79174 0.77579 0.033 0.0
C404 C 0.78782 0.77287 0.99872 0.0
C405 C 0.82935 0.78294 0.97945 0.0
C406 C 0.84309 0.79421 0.08375 0.0
C407 C 0.74006 0.75741 0.98236 0.0
H408 H 0.69751 0.65016 0.08797 0.0
H409 H 0.64715 0.81155 0.09094 0.0
H410 H 0.78091 0.66188 0.02579 0.0
H411 H 0.81712 0.67529 0.06123 0.0
H412 H 0.77048 0.62471 0.06248 0.0
H413 H 0.68847 0.88044 0.06464 0.0
H414 H 0.7544 0.87157 0.06351 0.0
H415 H 0.71844 0.85949 0.02781 0.0
H416 H 0.91257 0.81287 0.03861 0.0
H417 H 0.82632 0.7781 0.95336 0.0
H418 H 0.83743 0.75452 0.09466 0.0
H419 H 0.81478 0.82104 0.09406 0.0
H420 H 0.88009 0.8087 0.09109 0.0
H421 H 0.7311 0.71578 0.98848 0.0
H422 H 0.74183 0.76114 0.95549 0.0
H423 H 0.70941 0.78254 0.99132 0.0
C424 C 0.94706 0.30626 0.61083 0.0
C425 C 0.99016 0.27538 0.61119 0.0
C426 C 0.90917 0.29705 0.58807 0.0
C427 C 0.91368 0.25498 0.56547 0.0
C428 C 0.95705 0.22344 0.56581 0.0
C429 C 0.99498 0.23443 0.58836 0.0
C430 C 0.8643 0.3326 0.58813 0.0
C431 C 0.96309 0.17755 0.54266 0.0
C432 C 0.79297 0.20569 0.52809 0.0
C433 C 0.79326 0.2299 0.4974 0.0
C434 C 0.83258 0.21206 0.55004 0.0
C435 C 0.87304 0.24448 0.54147 0.0
C436 C 0.87351 0.26885 0.51045 0.0
C437 C 0.83395 0.26088 0.48875 0.0
C438 C 0.8309 0.18451 0.58256 0.0
C439 C 0.91516 0.30467 0.50049 0.0
H440 H 0.94313 0.33822 0.62821 0.0
H441 H 1.02792 0.21008 0.58862 0.0
H442 H 0.85914 0.3509 0.56382 0.0
H443 H 0.83089 0.30895 0.59323 0.0
H444 H 0.86709 0.36464 0.60654 0.0
H445 H 0.9987 0.15644 0.54623 0.0
H446 H 0.93264 0.14894 0.54607 0.0
H447 H 0.96092 0.19178 0.5172 0.0
H448 H 0.76179 0.18149 0.53486 0.0
H449 H 0.83413 0.28032 0.46526 0.0
H450 H 0.82922 0.21432 0.60231 0.0
H451 H 0.86498 0.16084 0.58639 0.0
H452 H 0.7986 0.15791 0.5847 0.0
H453 H 0.91718 0.33904 0.51724 0.0
H454 H 0.91065 0.31966 0.47526 0.0
H455 H 0.95081 0.28325 0.50234 0.0
C456 C 0.8263 0.1726 0.06324 0.0
C457 C 0.87047 0.20018 0.05824 0.0
C458 C 0.78422 0.18253 0.04386 0.0
C459 C 0.78616 0.22088 1.01872 0.0
C460 C 0.83115 0.24717 1.01267 0.0
C461 C 0.87244 0.23679 0.03251 0.0
C462 C 0.73705 0.15365 0.05126 0.0
C463 C 0.83513 0.28834 0.98619 0.0
C464 C 0.68308 0.23156 0.95491 0.0
C465 C 0.65537 0.27436 0.96684 0.0
C466 C 0.72542 0.21315 0.97162 0.0
C467 C 0.7402 0.23776 1.00109 0.0
C468 C 0.71183 0.28032 1.01342 0.0
C469 C 0.67014 0.29811 0.99618 0.0
C470 C 0.75475 0.1679 0.95752 0.0
C471 C 0.72578 0.30759 0.04482 0.0
H472 H 0.82428 0.14383 0.08272 0.0
H473 H 0.90574 0.25935 0.02863 0.0
H474 H 0.70952 0.18206 0.06093 0.0
H475 H 0.72124 0.13629 0.02877 0.0
H476 H 0.74263 0.12156 0.0694 0.0
H477 H 0.87375 0.30112 0.9823 0.0
H478 H 0.82021 0.2727 0.96296 0.0
H479 H 0.81285 0.32364 0.99273 0.0
H480 H 0.67201 0.21277 0.93237 0.0
H481 H 0.64902 0.33094 1.00587 0.0
H482 H 0.7582 0.13541 0.97555 0.0
H483 H 0.79258 0.18142 0.95188 0.0
H484 H 0.7377 0.15192 0.93498 0.0
H485 H 0.72828 0.27822 0.06482 0.0
H486 H 0.69887 0.33879 0.05176 0.0
H487 H 0.76257 0.32608 0.04245 0.0
C488 C 0.79722 0.8635 0.56237 0.0
C489 C 0.75289 0.83613 0.55711 0.0
C490 C 0.83994 0.85127 0.54456 0.0
C491 C 0.83836 0.8112 0.52048 0.0
C492 C 0.7933 0.78508 0.51403 0.0
C493 C 0.75146 0.79743 0.53253 0.0
C494 C 0.8873 0.87971 0.55248 0.0
C495 C 0.78967 0.74243 0.4884 0.0
C496 C 0.94145 0.79924 0.45801 0.0
C497 C 0.96852 0.75598 0.47013 0.0
C498 C 0.89929 0.81807 0.47423 0.0
C499 C 0.88438 0.79377 0.50361 0.0
C500 C 0.91251 0.75112 0.5164 0.0
C501 C 0.95383 0.73248 0.49939 0.0
C502 C 0.86991 0.86295 0.45943 0.0
C503 C 0.8986 0.72461 0.54792 0.0
H504 H 0.79889 0.89388 0.58092 0.0
H505 H 0.71812 0.7749 0.52853 0.0
H506 H 0.91453 0.85109 0.56254 0.0
H507 H 0.90342 0.89676 0.53013 0.0
H508 H 0.88188 0.91201 0.57045 0.0
H509 H 0.75109 0.72956 0.48414 0.0
H510 H 0.80505 0.75675 0.4651 0.0
H511 H 0.81171 0.70743 0.49602 0.0
H512 H 0.95242 0.81751 0.43536 0.0
H513 H 0.97474 0.69935 0.5091 0.0
H514 H 0.86587 0.89566 0.47721 0.0
H515 H 0.8323 0.84902 0.45323 0.0
H516 H 0.88723 0.87881 0.43709 0.0
H517 H 0.89543 0.75456 0.56754 0.0
H518 H 0.92588 0.69407 0.55556 0.0
H519 H 0.86211 0.70545 0.54528 0.0
C520 C 1.04226 0.3299 0.27215 0.0
C521 C 0.06004 0.33077 0.24022 0.0
C522 C 1.04829 0.3735 0.29294 0.0
C523 C 0.07247 0.41943 0.28155 0.0
C524 C 0.09346 0.4192 0.25009 0.0
C525 C 0.0871 0.37481 0.22981 0.0
C526 C 1.02572 0.3717 0.32636 0.0
C527 C 0.11965 0.46719 0.23699 0.0
C528 C 1.0223 0.54776 0.31639 0.0
C529 C 0.05716 0.56024 0.3405 0.0
C530 C 1.02783 0.50308 0.29652 0.0
C531 C 0.06934 0.4696 0.30071 0.0
C532 C 0.10563 0.48279 0.32425 0.0
C533 C 0.09918 0.52812 0.34383 0.0
C534 C 0.98843 0.49103 0.27153 0.0
C535 C 0.15042 0.4482 0.32942 0.0
H536 H 1.02177 0.29583 0.28055 0.0
H537 H 0.10103 0.37587 0.2052 0.0
H538 H 0.05233 0.38592 0.34493 0.0
H539 H 0.99317 0.39839 0.32706 0.0
H540 H 1.01372 0.33116 0.33308 0.0
H541 H 0.14041 0.45801 0.21449 0.0
H542 H 0.09222 0.49861 0.23131 0.0
H543 H 0.14552 0.48343 0.25538 0.0
H544 H 0.9904 0.57308 0.31303 0.0
H545 H 0.12621 0.53758 0.36238 0.0
H546 H 0.97048 0.45287 0.27748 0.0
H547 H 1.00509 0.48677 0.24713 0.0
H548 H 0.95961 0.52234 0.27032 0.0
H549 H 0.13899 0.40928 0.33929 0.0
H550 H 0.17729 0.46626 0.34656 0.0
H551 H 0.16903 0.44059 0.30595 0.0
C552 C 0.54813 0.65568 0.7266 0.0
C553 C 0.58449 0.6933 0.73384 0.0
C554 C 0.54079 0.61147 0.74687 0.0
C555 C 0.57037 0.60484 0.7751 0.0
C556 C 0.60656 0.64314 0.78274 0.0
C557 C 0.61317 0.68674 0.76206 0.0
C558 C 0.50177 0.57157 0.73791 0.0
C559 C 0.63859 0.63795 0.81273 0.0
C560 C 0.52643 0.52172 0.84615 0.0
C561 C 0.55478 0.47532 0.84304 0.0
C562 C 0.53013 0.56338 0.82373 0.0
C563 C 0.5629 0.55877 0.7973 0.0
C564 C 0.59054 0.51144 0.79334 0.0
C565 C 0.58611 0.47025 0.81624 0.0
C566 C 0.49979 0.61293 0.82884 0.0
C567 C 0.62582 0.50493 0.76544 0.0
H568 H 0.526 0.66018 0.70475 0.0
H569 H 0.64136 0.71552 0.76792 0.0
H570 H 0.51887 0.53197 0.73461 0.0
H571 H 0.47472 0.56804 0.75787 0.0
H572 H 0.48177 0.58246 0.71522 0.0
H573 H 0.66521 0.67102 0.81516 0.0
H574 H 0.61526 0.63704 0.83475 0.0
H575 H 0.65945 0.60011 0.81198 0.0
H576 H 0.50111 0.5256 0.86622 0.0
H577 H 0.60817 0.43468 0.81366 0.0
H578 H 0.47796 0.62213 0.80666 0.0
H579 H 0.5245 0.64705 0.83339 0.0
H580 H 0.47422 0.60924 0.84968 0.0
H581 H 0.60671 0.51306 0.74204 0.0
H582 H 0.6421 0.46452 0.7645 0.0
H583 H 0.65611 0.53405 0.76781 0.0
C584 C 0.13528 0.52235 0.70368 0.0
C585 C 0.1145 0.47401 0.71313 0.0
C586 C 0.13299 0.56719 0.72382 0.0
C587 C 0.10825 0.5641 0.75395 0.0
C588 C 0.0888 0.51476 0.76418 0.0
C589 C 0.09265 0.47013 0.74377 0.0
C590 C 0.15526 0.61845 0.71222 0.0
C591 C 0.06152 0.50981 0.79586 0.0
C592 C 0.11896 0.67506 0.81686 0.0
C593 C 0.07603 0.70466 0.81054 0.0
C594 C 0.13065 0.62986 0.79826 0.0
C595 C 0.09836 0.61343 0.77303 0.0
C596 C 0.05579 0.64405 0.76601 0.0
C597 C 1.04544 0.68933 0.78459 0.0
C598 C 0.17691 0.59899 0.8061 0.0
C599 C 1.02015 0.62804 0.73947 0.0
H600 H 0.15274 0.52519 0.68014 0.0
H601 H 0.07633 0.43288 0.75098 0.0
H602 H 0.1255 0.6472 0.70634 0.0
H603 H 0.17834 0.63628 0.73164 0.0
H604 H 0.17819 0.61279 0.69022 0.0
H605 H 0.05187 0.4681 0.80148 0.0
H606 H 0.084 0.52586 0.81614 0.0
H607 H 1.02705 0.53352 0.79461 0.0
H608 H 0.1428 0.68635 0.83689 0.0
H609 H 1.01213 0.71167 0.77943 0.0
H610 H 0.19913 0.59331 0.78383 0.0
H611 H 0.16708 0.55908 0.81521 0.0
H612 H 0.19998 0.619 0.82476 0.0
H613 H 1.03943 0.62582 0.71583 0.0
H614 H 0.98876 0.65613 0.73702 0.0
H615 H 1.00536 0.58804 0.74466 0.0
C616 C 0.61296 0.32701 0.28038 0.0
C617 C 0.58845 0.31746 0.30971 0.0
C618 C 0.60159 0.37144 0.26116 0.0
C619 C 0.56464 0.40741 0.27138 0.0
C620 C 0.53673 0.39544 0.29943 0.0
C621 C 0.54899 0.35063 0.31831 0.0
C622 C 0.6322 0.38223 0.2314 0.0
C623 C 0.49653 0.43214 0.311 0.0
C624 C 0.59473 0.55013 0.25101 0.0
C625 C 0.56736 0.55901 0.22246 0.0
C626 C 0.5924 0.50188 0.26776 0.0
C627 C 0.56152 0.46104 0.25596 0.0
C628 C 0.53152 0.47066 0.2282 0.0
C629 C 0.53481 0.5196 0.21172 0.0
C630 C 0.62484 0.49387 0.29736 0.0
C631 C 0.49755 0.42854 0.21512 0.0
H632 H 0.64313 0.30133 0.27329 0.0
H633 H 0.52968 0.34362 0.34087 0.0
H634 H 0.60833 0.39346 0.21053 0.0
H635 H 0.6572 0.41599 0.23634 0.0
H636 H 0.65491 0.34742 0.22437 0.0
H637 H 0.4721 0.4125 0.32885 0.0
H638 H 0.51335 0.46718 0.32287 0.0
H639 H 0.47386 0.44661 0.29027 0.0
H640 H 0.61892 0.58086 0.26003 0.0
H641 H 0.51348 0.5262 0.18974 0.0
H642 H 0.65231 0.46224 0.29248 0.0
H643 H 0.60246 0.48085 0.31833 0.0
H644 H 0.64487 0.53046 0.30434 0.0
H645 H 0.51964 0.39651 0.20381 0.0
H646 H 0.47158 0.44454 0.19656 0.0
H647 H 0.47608 0.41048 0.23509 0.0
C648 C 0.60495 0.86442 0.22988 0.0
C649 C 0.56032 0.83717 0.23329 0.0
C650 C 0.61705 0.90698 0.25056 0.0
C651 C 0.58349 0.92304 0.27494 0.0
C652 C 0.53866 0.89534 0.2786 0.0
C653 C 0.52781 0.85271 0.25794 0.0
C654 C 0.66552 0.93501 0.24618 0.0
C655 C 0.50165 0.91123 0.30411 0.0
C656 C 0.62164 1.00189 0.34961 0.0
C657 C 0.60512 0.05303 0.34167 0.0
C658 C 0.61708 0.95977 0.32751 0.0
C659 C 0.59473 0.96873 0.2968 0.0
C660 C 0.57933 0.02066 0.28825 0.0
C661 C 0.58506 0.06226 0.3107 0.0
C662 C 0.63474 0.90532 0.33746 0.0
C663 C 0.55477 0.03184 0.25595 0.0
H664 H 0.63029 0.85274 0.21092 0.0
H665 H 0.49314 0.83217 0.26077 0.0
H666 H 0.65883 0.97716 0.23987 0.0
H667 H 0.68679 0.93438 0.26929 0.0
H668 H 0.68826 0.91671 0.22681 0.0
H669 H 0.46829 0.88591 0.30363 0.0
H670 H 0.51866 0.90862 0.32863 0.0
H671 H 0.49014 0.95301 0.30032 0.0
H672 H 0.63794 0.99476 0.37332 0.0
H673 H 0.57199 0.10161 0.30454 0.0
H674 H 0.65873 0.88822 0.31839 0.0
H675 H 0.60273 0.87856 0.34016 0.0
H676 H 0.6555 0.90593 0.36081 0.0
H677 H 0.57772 0.01656 0.2358 0.0
H678 H 0.54809 0.07482 0.25205 0.0
H679 H 0.51892 0.01097 0.25472 0.0
C680 C 0.08574 0.97074 0.8154 0.0
C681 C 0.06749 0.97582 0.84703 0.0
C682 C 0.08901 0.015 0.79464 0.0
C683 C 0.07261 0.06539 0.8055 0.0
C684 C 0.05182 0.07002 0.83686 0.0
C685 C 1.05002 0.02542 0.85731 0.0
C686 C 0.11218 1.0083 0.76165 0.0
C687 C 1.03286 0.1225 0.84924 0.0
C688 C 0.13533 0.18693 0.7702 0.0
C689 C 0.10229 0.20312 0.74568 0.0
C690 C 0.12582 0.14266 0.78981 0.0
C691 C 0.0816 0.11395 0.78544 0.0
C692 C 1.04697 0.13131 0.76172 0.0
C693 C 0.05787 0.1754 0.74194 0.0
C694 C 0.16406 0.12556 0.81455 0.0
C695 C 0.99892 0.10258 0.75673 0.0
H696 H 0.09946 0.93257 0.80744 0.0
H697 H 1.03512 0.02936 0.88155 0.0
H698 H 0.08759 0.02462 0.74246 0.0
H699 H 0.14714 0.03085 0.76076 0.0
H700 H 0.1202 0.96615 0.75597 0.0
H701 H 1.01293 0.11838 0.87259 0.0
H702 H 0.06412 0.15002 0.85299 0.0
H703 H 1.00774 0.14094 0.83108 0.0
H704 H 0.16982 0.20778 0.77341 0.0
H705 H 1.03212 0.18735 0.72306 0.0
H706 H 0.17689 0.08479 0.809 0.0
H707 H 0.14773 0.12476 0.83917 0.0
H708 H 0.19651 0.15221 0.81503 0.0
H709 H 1.00622 0.06204 0.74752 0.0
H710 H 0.97428 0.12333 0.73919 0.0
H711 H 0.97943 0.09845 0.78021 0.0
C712 C 0.53892 0.98601 0.74825 0.0
C713 C 0.56761 0.973 0.72108 0.0
C714 C 0.54502 0.03413 0.76482 0.0
C715 C 0.58117 0.07048 0.75433 0.0
C716 C 0.61166 0.05696 0.72773 0.0
C717 C 0.60444 1.00847 0.71136 0.0
C718 C 0.51173 0.0466 0.79313 0.0
C719 C 0.65102 0.09427 0.71605 0.0
C720 C 0.54765 0.21098 0.77839 0.0
C721 C 0.57196 0.21614 0.80841 0.0
C722 C 0.55334 0.16533 0.75925 0.0
C723 C 0.58427 0.12365 0.77027 0.0
C724 C 0.61229 0.13062 0.79914 0.0
C725 C 0.60579 0.17677 0.8179 0.0
C726 C 0.52286 0.15993 0.72862 0.0
C727 C 0.64617 0.08759 0.81163 0.0
H728 H 0.51132 0.95854 0.75667 0.0
H729 H 0.6268 0.999 0.69044 0.0
H730 H 0.53403 0.05553 0.81512 0.0
H731 H 0.48928 0.08233 0.78756 0.0
H732 H 0.48643 0.01348 0.79886 0.0
H733 H 0.67482 0.07588 0.69728 0.0
H734 H 0.63359 0.13028 0.70557 0.0
H735 H 0.67448 0.1072 0.73672 0.0
H736 H 0.52174 0.24133 0.77069 0.0
H737 H 0.62473 0.1802 0.84107 0.0
H738 H 0.49313 0.13068 0.73271 0.0
H739 H 0.54575 0.14502 0.70834 0.0
H740 H 0.50568 0.19809 0.72118 0.0
H741 H 0.6239 0.0554 0.82243 0.0
H742 H 0.67191 0.10259 0.83056 0.0
H743 H 0.66788 0.07013 0.79153 0.0
C744 C 1.01646 0.02459 0.2138 0.0
C745 C 0.05303 0.06038 0.22364 0.0
C746 C 1.00933 0.97658 0.23065 0.0
C747 C 1.03962 0.96417 0.25784 0.0
C748 C 0.07512 1.00125 0.26856 0.0
C749 C 0.08109 0.04877 0.25152 0.0
C750 C 0.9706 0.93845 0.21875 0.0
C751 C 0.10813 0.99003 0.2975 0.0
C752 C 1.01739 0.86019 0.32265 0.0
C753 C 0.05224 0.82145 0.31412 0.0
C754 C 1.00946 0.90505 0.30297 0.0
C755 C 1.03722 0.91146 0.27421 0.0
C756 C 0.06928 0.87031 0.26416 0.0
C757 C 0.07626 0.82581 0.28416 0.0
C758 C 0.97425 0.94746 0.31432 0.0
C759 C 0.09958 0.87529 0.23368 0.0
H760 H 0.99458 0.03331 0.19234 0.0
H761 H 0.10838 0.0768 0.25995 0.0
H762 H 0.98869 0.9032 0.20795 0.0
H763 H 0.94786 0.92439 0.2393 0.0
H764 H 0.94604 0.95662 0.20012 0.0
H765 H 0.13287 0.02371 0.30328 0.0
H766 H 0.08563 0.9813 0.31923 0.0
H767 H 0.13119 0.95456 0.29261 0.0
H768 H 0.99825 0.85705 0.34561 0.0
H769 H 0.10282 0.79586 0.2771 0.0
H770 H 0.95213 0.9632 0.29369 0.0
H771 H 0.99548 0.98092 0.32474 0.0
H772 H 0.94889 0.93248 0.33327 0.0
H773 H 0.07636 0.88889 0.21302 0.0
H774 H 0.11751 0.83727 0.22693 0.0
H775 H 0.12872 0.90537 0.23756 0.0
C776 C 1.04636 0.57361 0.96289 0.0
C777 C 1.00384 0.5873 0.94522 0.0
C778 C 1.04452 0.53662 0.98823 0.0
C779 C 0.99907 0.51262 0.99592 0.0
C780 C 0.95641 0.52468 0.97742 0.0
C781 C 0.9593 0.56198 0.9523 0.0
C782 C 0.09084 0.52454 1.0074 0.0
C783 C 0.90733 0.49968 0.98492 0.0
C784 C 1.00078 0.38845 0.04758 0.0
C785 C 0.99009 0.40894 0.07842 0.0
C786 C 1.00364 0.42169 1.02042 0.0
C787 C 0.99566 0.47669 1.02428 0.0
C788 C 0.98441 0.49759 0.05529 0.0
C789 C 0.98163 0.46336 0.08201 0.0
C790 C 1.01526 0.39801 0.98764 0.0
C791 C 0.97581 0.55616 0.06029 0.0
H792 H 0.081 0.59245 0.95719 0.0
H793 H 0.92616 0.57279 0.93909 0.0
H794 H 0.0863 0.53795 0.03288 0.0
H795 H 0.09765 0.4812 1.00805 0.0
H796 H 0.12373 0.54428 0.99709 0.0
H797 H 0.87851 0.5105 0.9668 0.0
H798 H 0.91094 0.45592 0.9856 0.0
H799 H 0.89485 0.51263 1.00929 0.0
H800 H 1.00646 0.34624 0.04465 0.0
H801 H 0.97386 0.47927 0.10588 0.0
H802 H 1.0494 0.41583 0.97791 0.0
H803 H 0.98514 0.40715 0.97016 0.0
H804 H 1.02023 0.35435 0.9888 0.0
H805 H 1.00899 0.57862 0.053 0.0
H806 H 0.96719 0.56594 0.08595 0.0
H807 H 0.94487 0.56994 0.04466 0.0
C808 C 0.68096 0.58912 0.57166 0.0
C809 C 0.6474 0.63142 0.57348 0.0
C810 C 0.68026 0.55396 0.54536 0.0
C811 C 0.64447 0.56052 0.52055 0.0
C812 C 0.61049 0.60295 0.52205 0.0
C813 C 0.61272 0.63824 0.54828 0.0
C814 C 0.7174 0.50926 0.54439 0.0
C815 C 0.57137 0.61067 0.49619 0.0
C816 C 0.66995 0.4891 0.44149 0.0
C817 C 0.64482 0.44124 0.4462 0.0
C818 C 0.66905 0.52913 0.46508 0.0
C819 C 0.64163 0.52147 0.49377 0.0
C820 C 0.61402 0.47468 0.49795 0.0
C821 C 0.6162 0.43502 0.47426 0.0
C822 C 0.69917 0.57856 0.45995 0.0
C823 C 0.58371 0.46561 0.5281 0.0
H824 H 0.7075 0.58279 0.59098 0.0
H825 H 0.58718 0.67116 0.54878 0.0
H826 H 0.69815 0.47067 0.54574 0.0
H827 H 0.73771 0.51006 0.52109 0.0
H828 H 0.74447 0.51137 0.5647 0.0
H829 H 0.5888 0.61594 0.47212 0.0
H830 H 0.54786 0.57492 0.49462 0.0
H831 H 0.54743 0.64553 0.5011 0.0
H832 H 0.69127 0.49494 0.41966 0.0
H833 H 0.59684 0.39839 0.47858 0.0
H834 H 0.72922 0.58018 0.47833 0.0
H835 H 0.67603 0.6144 0.46336 0.0
H836 H 0.71579 0.58001 0.43538 0.0
H837 H 0.60822 0.46353 0.54974 0.0
H838 H 0.56212 0.42844 0.52678 0.0
H839 H 0.55794 0.49923 0.53186 0.0
C840 C 0.55718 0.07217 0.95905 0.0
C841 C 0.51603 0.08036 0.93886 0.0
C842 C 0.55602 0.03506 0.98436 0.0
C843 C 0.51281 1.0051 0.98933 0.0
C844 C 0.47213 0.01107 0.96801 0.0
C845 C 0.47417 0.04876 0.94308 0.0
C846 C 0.60024 0.0295 1.00657 0.0
C847 C 0.42555 0.97943 0.97243 0.0
C848 C 0.51852 0.88299 0.0427 0.0
C849 C 0.49976 0.90247 0.07207 0.0
C850 C 0.52333 0.916 1.01557 0.0
C851 C 0.50896 0.96973 1.01792 0.0
C852 C 0.48992 0.98966 0.04746 0.0
C853 C 0.48543 0.95567 0.0742 0.0
C854 C 0.54338 0.89333 0.98436 0.0
C855 C 0.47443 0.04691 0.05085 0.0
H856 H 0.58997 0.0957 0.95553 0.0
H857 H 0.44199 0.05504 0.92791 0.0
H858 H 0.59033 0.04245 0.03145 0.0
H859 H 0.61188 0.98741 1.00818 0.0
H860 H 0.63199 0.05345 0.99823 0.0
H861 H 0.39889 0.98555 0.95217 0.0
H862 H 0.43427 0.93656 0.9742 0.0
H863 H 0.40755 0.99116 0.99548 0.0
H864 H 0.52883 0.84164 0.04079 0.0
H865 H 0.47148 0.9709 0.09697 0.0
H866 H 0.57621 0.91595 0.97662 0.0
H867 H 0.5154 0.89711 0.96472 0.0
H868 H 0.55384 0.85092 0.98681 0.0
H869 H 0.50592 0.07321 0.04532 0.0
H870 H 0.46097 0.05626 0.07564 0.0
H871 H 0.44473 0.05623 0.03309 0.0
C872 C 0.19093 0.94202 0.46988 0.0
C873 C 0.14424 0.92504 0.45967 0.0
C874 C 0.19621 0.97644 0.49637 0.0
C875 C 0.15373 0.99415 0.51294 0.0
C876 C 0.10646 0.97791 0.5024 0.0
C877 C 0.10231 0.9436 0.47583 0.0
C878 C 0.24719 0.99308 0.50698 0.0
C879 C 0.0603 0.99631 0.51941 0.0
C880 C 0.16436 0.04363 0.59966 0.0
C881 C 0.16151 0.09848 0.59507 0.0
C882 C 0.16275 1.00901 0.57303 0.0
C883 C 0.15851 0.03004 0.54121 0.0
C884 C 0.15705 0.08546 0.53643 0.0
C885 C 0.15861 0.119 0.56344 0.0
C886 C 0.16435 0.95001 0.57894 0.0
C887 C 0.15301 0.10932 0.50285 0.0
H888 H 0.22347 0.92712 0.45781 0.0
H889 H 0.06618 0.931 0.46773 0.0
H890 H 0.24984 0.03691 0.50724 0.0
H891 H 0.25453 0.97909 0.53211 0.0
H892 H 0.27631 0.97705 0.49084 0.0
H893 H 1.02636 0.97983 0.50817 0.0
H894 H 0.06163 0.98427 0.54533 0.0
H895 H 0.05789 0.04017 0.51878 0.0
H896 H 0.16648 0.02787 0.62412 0.0
H897 H 0.15769 0.16147 0.55978 0.0
H898 H 0.19473 0.93173 0.56489 0.0
H899 H 0.1295 0.93181 0.57034 0.0
H900 H 0.1696 0.94015 0.60504 0.0
H901 H 0.18338 0.09457 0.48734 0.0
H902 H 0.15426 0.15329 0.50331 0.0
H903 H 0.11791 0.09699 0.49122 0.0
loop_
_geom_bond_atom_site_label_1
_geom_bond_atom_site_label_2
_geom_bond_distance
_geom_bond_site_symmetry_2
_ccdc_geom_bond_type
C0 C1 1.351 . S
C0 N3 1.368 . S
C0 H5 0.931 . S
C1 C0 1.351 . S
C1 N2 1.373 . S
C1 H29 0.930 . S
N2 C1 1.373 . S
N2 C4 1.340 . S
N3 C0 1.368 . S
N3 C4 1.321 . S
N3 Co6 2.135 . S
C4 N2 1.340 . S
C4 N3 1.321 . S
C4 H28 0.930 . S
H5 C0 0.931 . S
Co6 N3 2.135 . S
Co6 N9 2.121 . S
Co6 O14 2.055 . S
Co6 O17 2.039 . S
Co6 N20 2.140 1_455 S
C7 O8 1.227 1_455 S
C7 O17 1.265 . S
O8 C7 1.227 1_655 S
N9 Co6 2.121 . S
N9 C11 1.375 . S
N9 C12 1.313 . S
C10 C11 1.338 . S
C10 N13 1.377 . S
C10 H30 0.930 . S
C11 N9 1.375 . S
C11 C10 1.338 . S
C11 H15 0.931 1_455 S
C12 N9 1.313 . S
C12 N13 1.344 . S
C12 H16 0.930 . S
N13 C10 1.377 . S
N13 C12 1.344 . S
O14 Co6 2.055 . S
O14 C18 1.253 . S
H15 C11 0.931 1_655 S
H16 C12 0.930 . S
O17 Co6 2.039 . S
O17 C7 1.265 . S
C18 O14 1.253 . S
C18 O19 1.227 . S
O19 C18 1.227 . S
N20 Co6 2.140 1_655 S
N20 C23 1.346 . S
N20 C24 1.345 . S
C21 C22 1.387 . S
C21 C25 1.391 . S
C22 C21 1.387 . S
C22 C23 1.369 . S
C22 H31 0.929 . S
C23 N20 1.346 . S
C23 C22 1.369 . S
C23 H26 0.928 . S
C24 N20 1.345 . S
C24 C25 1.371 . S
C24 H27 0.931 1_655 S
C25 C21 1.391 . S
C25 C24 1.371 . S
C25 H32 0.930 . S
H26 C23 0.928 . S
H27 C24 0.931 1_455 S
H28 C4 0.930 . S
H29 C1 0.930 . S
H30 C10 0.930 . S
H31 C22 0.929 . S
H32 C25 0.930 . S
C33 C34 1.351 . S
C33 N36 1.368 . S
C33 H38 0.931 . S
C34 C33 1.351 . S
C34 N35 1.373 . S
C34 H62 0.930 . S
N35 C34 1.373 . S
N35 C37 1.340 . S
N36 C33 1.368 . S
N36 C37 1.321 . S
N36 Co39 2.135 . S
C37 N35 1.340 . S
C37 N36 1.321 . S
C37 H61 0.930 . S
H38 C33 0.931 . S
Co39 N36 2.135 . S
Co39 N42 2.121 . S
Co39 O47 2.055 . S
Co39 O50 2.039 . S
Co39 N53 2.140 . S
C40 O41 1.227 . S
C40 O50 1.265 . S
O41 C40 1.227 . S
N42 Co39 2.121 . S
N42 C44 1.375 . S
N42 C45 1.313 . S
C43 C44 1.338 . S
C43 N46 1.377 . S
C43 H63 0.930 . S
C44 N42 1.375 . S
C44 C43 1.338 . S
C44 H48 0.931 . S
C45 N42 1.313 . S
C45 N46 1.344 . S
C45 H49 0.930 . S
N46 C43 1.377 . S
N46 C45 1.344 . S
O47 Co39 2.055 . S
O47 C51 1.253 . S
H48 C44 0.931 . S
H49 C45 0.930 . S
O50 Co39 2.039 . S
O50 C40 1.265 . S
C51 O47 1.253 . S
C51 O52 1.227 . S
O52 C51 1.227 . S
N53 Co39 2.140 . S
N53 C56 1.346 . S
N53 C57 1.345 . S
C54 C55 1.387 . S
C54 C58 1.391 . S
C55 C54 1.387 . S
C55 C56 1.369 . S
C55 H64 0.929 . S
C56 N53 1.346 . S
C56 C55 1.369 . S
C56 H59 0.928 . S
C57 N53 1.345 . S
C57 C58 1.371 . S
C57 H60 0.931 . S
C58 C54 1.391 . S
C58 C57 1.371 . S
C58 H65 0.930 . S
H59 C56 0.928 . S
H60 C57 0.931 . S
H61 C37 0.930 . S
H62 C34 0.930 . S
H63 C43 0.930 . S
H64 C55 0.929 . S
H65 C58 0.930 . S
C66 C67 1.351 . S
C66 N69 1.368 . S
C66 H71 0.931 . S
C67 C66 1.351 . S
C67 N68 1.373 . S
C67 H95 0.930 . S
N68 C67 1.373 . S
N68 C70 1.340 . S
N69 C66 1.368 . S
N69 C70 1.321 . S
N69 Co72 2.135 . S
C70 N68 1.340 . S
C70 N69 1.321 . S
C70 H94 0.930 . S
H71 C66 0.931 . S
Co72 N69 2.135 . S
Co72 N75 2.121 . S
Co72 O80 2.055 . S
Co72 O83 2.039 . S
Co72 N86 2.140 1_455 S
C73 O74 1.227 1_455 S
C73 O83 1.265 . S
O74 C73 1.227 1_655 S
N75 Co72 2.121 . S
N75 C77 1.375 . S
N75 C78 1.313 . S
C76 C77 1.338 . S
C76 N79 1.377 . S
C76 H96 0.930 . S
C77 N75 1.375 . S
C77 C76 1.338 . S
C77 H81 0.931 1_455 S
C78 N75 1.313 . S
C78 N79 1.344 . S
C78 H82 0.930 . S
N79 C76 1.377 . S
N79 C78 1.344 . S
O80 Co72 2.055 . S
O80 C84 1.253 . S
H81 C77 0.931 1_655 S
H82 C78 0.930 . S
O83 Co72 2.039 . S
O83 C73 1.265 . S
C84 O80 1.253 . S
C84 O85 1.227 . S
O85 C84 1.227 . S
N86 Co72 2.140 1_655 S
N86 C89 1.346 . S
N86 C90 1.345 . S
C87 C88 1.387 . S
C87 C91 1.391 . S
C88 C87 1.387 . S
C88 C89 1.369 . S
C88 H97 0.929 . S
C89 N86 1.346 . S
C89 C88 1.369 . S
C89 H92 0.928 . S
C90 N86 1.345 . S
C90 C91 1.371 . S
C90 H93 0.931 1_655 S
C91 C87 1.391 . S
C91 C90 1.371 . S
C91 H98 0.930 . S
H92 C89 0.928 . S
H93 C90 0.931 1_455 S
H94 C70 0.930 . S
H95 C67 0.930 . S
H96 C76 0.930 . S
H97 C88 0.929 . S
H98 C91 0.930 . S
C99 C100 1.351 . S
C99 N102 1.368 . S
C99 H104 0.931 . S
C100 C99 1.351 . S
C100 N101 1.373 . S
C100 H128 0.930 . S
N101 C100 1.373 . S
N101 C103 1.340 . S
N102 C99 1.368 . S
N102 C103 1.321 . S
N102 Co105 2.135 . S
C103 N101 1.340 . S
C103 N102 1.321 . S
C103 H127 0.930 . S
H104 C99 0.931 . S
Co105 N102 2.135 . S
Co105 N108 2.121 . S
Co105 O113 2.055 . S
Co105 O116 2.039 . S
Co105 N119 2.140 . S
C106 O107 1.227 . S
C106 O116 1.265 . S
O107 C106 1.227 . S
N108 Co105 2.121 . S
N108 C110 1.375 . S
N108 C111 1.313 . S
C109 C110 1.338 . S
C109 N112 1.377 . S
C109 H129 0.930 . S
C110 N108 1.375 . S
C110 C109 1.338 . S
C110 H114 0.931 . S
C111 N108 1.313 . S
C111 N112 1.344 . S
C111 H115 0.930 . S
N112 C109 1.377 . S
N112 C111 1.344 . S
O113 Co105 2.055 . S
O113 C117 1.253 . S
H114 C110 0.931 . S
H115 C111 0.930 . S
O116 Co105 2.039 . S
O116 C106 1.265 . S
C117 O113 1.253 . S
C117 O118 1.227 . S
O118 C117 1.227 . S
N119 Co105 2.140 . S
N119 C122 1.346 . S
N119 C123 1.345 . S
C120 C121 1.387 . S
C120 C124 1.391 . S
C121 C120 1.387 . S
C121 C122 1.369 . S
C121 H130 0.929 . S
C122 N119 1.346 . S
C122 C121 1.369 . S
C122 H125 0.928 . S
C123 N119 1.345 . S
C123 C124 1.371 . S
C123 H126 0.931 . S
C124 C120 1.391 . S
C124 C123 1.371 . S
C124 H131 0.930 . S
H125 C122 0.928 . S
H126 C123 0.931 . S
H127 C103 0.930 . S
H128 C100 0.930 . S
H129 C109 0.930 . S
H130 C121 0.929 . S
H131 C124 0.930 . S
C132 C133 1.351 . S
C132 N135 1.368 . S
C132 H137 0.931 . S
C133 C132 1.351 . S
C133 N134 1.373 . S
C133 H161 0.930 . S
N134 C133 1.373 . S
N134 C136 1.340 . S
N135 C132 1.368 . S
N135 C136 1.321 . S
N135 Co138 2.135 . S
C136 N134 1.340 . S
C136 N135 1.321 . S
C136 H160 0.930 . S
H137 C132 0.931 . S
Co138 N135 2.135 . S
Co138 N141 2.121 . S
Co138 O146 2.055 . S
Co138 O149 2.039 . S
Co138 N152 2.140 . S
C139 O140 1.227 . S
C139 O149 1.265 . S
O140 C139 1.227 . S
N141 Co138 2.121 . S
N141 C143 1.375 . S
N141 C144 1.313 . S
C142 C143 1.338 . S
C142 N145 1.377 . S
C142 H162 0.930 . S
C143 N141 1.375 . S
C143 C142 1.338 . S
C143 H147 0.931 . S
C144 N141 1.313 . S
C144 N145 1.344 . S
C144 H148 0.930 . S
N145 C142 1.377 . S
N145 C144 1.344 . S
O146 Co138 2.055 . S
O146 C150 1.253 . S
H147 C143 0.931 . S
H148 C144 0.930 . S
O149 Co138 2.039 . S
O149 C139 1.265 . S
C150 O146 1.253 . S
C150 O151 1.227 . S
O151 C150 1.227 . S
N152 Co138 2.140 . S
N152 C155 1.346 . S
N152 C156 1.345 . S
C153 C154 1.387 . S
C153 C157 1.391 . S
C154 C153 1.387 . S
C154 C155 1.369 . S
C154 H163 0.929 . S
C155 N152 1.346 . S
C155 C154 1.369 . S
C155 H158 0.928 . S
C156 N152 1.345 . S
C156 C157 1.371 . S
C156 H159 0.931 . S
C157 C153 1.391 . S
C157 C156 1.371 . S
C157 H164 0.930 . S
H158 C155 0.928 . S
H159 C156 0.931 . S
H160 C136 0.930 . S
H161 C133 0.930 . S
H162 C142 0.930 . S
H163 C154 0.929 . S
H164 C157 0.930 . S
C165 C166 1.351 . S
C165 N168 1.368 . S
C165 H170 0.931 . S
C166 C165 1.351 . S
C166 N167 1.373 . S
C166 H194 0.930 . S
N167 C166 1.373 . S
N167 C169 1.340 . S
N168 C165 1.368 . S
N168 C169 1.321 . S
N168 Co171 2.135 . S
C169 N167 1.340 . S
C169 N168 1.321 . S
C169 H193 0.930 1_655 S
H170 C165 0.931 . S
Co171 N168 2.135 . S
Co171 N174 2.121 . S
Co171 O179 2.055 . S
Co171 O182 2.039 . S
Co171 N185 2.140 1_655 S
C172 O173 1.227 . S
C172 O182 1.265 1_455 S
O173 C172 1.227 . S
N174 Co171 2.121 . S
N174 C176 1.375 1_655 S
N174 C177 1.313 . S
C175 C176 1.338 . S
C175 N178 1.377 1_455 S
C175 H195 0.930 . S
C176 N174 1.375 1_455 S
C176 C175 1.338 . S
C176 H180 0.931 . S
C177 N174 1.313 . S
C177 N178 1.344 . S
C177 H181 0.930 . S
N178 C175 1.377 1_655 S
N178 C177 1.344 . S
O179 Co171 2.055 . S
O179 C183 1.253 . S
H180 C176 0.931 . S
H181 C177 0.930 . S
O182 Co171 2.039 . S
O182 C172 1.265 1_655 S
C183 O179 1.253 . S
C183 O184 1.227 . S
O184 C183 1.227 . S
N185 Co171 2.140 1_455 S
N185 C188 1.346 . S
N185 C189 1.345 . S
C186 C187 1.387 . S
C186 C190 1.391 . S
C187 C186 1.387 . S
C187 C188 1.369 . S
C187 H196 0.929 . S
C188 N185 1.346 . S
C188 C187 1.369 . S
C188 H191 0.928 . S
C189 N185 1.345 . S
C189 C190 1.371 . S
C189 H192 0.931 . S
C190 C186 1.391 . S
C190 C189 1.371 . S
C190 H197 0.930 . S
H191 C188 0.928 . S
H192 C189 0.931 . S
H193 C169 0.930 1_455 S
H194 C166 0.930 . S
H195 C175 0.930 . S
H196 C187 0.929 . S
H197 C190 0.930 . S
C198 C199 1.351 . S
C198 N201 1.368 . S
C198 H203 0.931 . S
C199 C198 1.351 . S
C199 N200 1.373 . S
C199 H227 0.930 . S
N200 C199 1.373 . S
N200 C202 1.340 . S
N201 C198 1.368 . S
N201 C202 1.321 . S
N201 Co204 2.135 . S
C202 N200 1.340 . S
C202 N201 1.321 . S
C202 H226 0.930 . S
H203 C198 0.931 . S
Co204 N201 2.135 . S
Co204 N207 2.121 . S
Co204 O212 2.055 . S
Co204 O215 2.039 . S
Co204 N218 2.140 . S
C205 O206 1.227 . S
C205 O215 1.265 . S
O206 C205 1.227 . S
N207 Co204 2.121 . S
N207 C209 1.375 . S
N207 C210 1.313 . S
C208 C209 1.338 . S
C208 N211 1.377 . S
C208 H228 0.930 . S
C209 N207 1.375 . S
C209 C208 1.338 . S
C209 H213 0.931 . S
C210 N207 1.313 . S
C210 N211 1.344 . S
C210 H214 0.930 . S
N211 C208 1.377 . S
N211 C210 1.344 . S
O212 Co204 2.055 . S
O212 C216 1.253 . S
H213 C209 0.931 . S
H214 C210 0.930 . S
O215 Co204 2.039 . S
O215 C205 1.265 . S
C216 O212 1.253 . S
C216 O217 1.227 . S
O217 C216 1.227 . S
N218 Co204 2.140 . S
N218 C221 1.346 . S
N218 C222 1.345 . S
C219 C220 1.387 . S
C219 C223 1.391 . S
C220 C219 1.387 . S
C220 C221 1.369 . S
C220 H229 0.929 . S
C221 N218 1.346 . S
C221 C220 1.369 . S
C221 H224 0.928 . S
C222 N218 1.345 . S
C222 C223 1.371 . S
C222 H225 0.931 . S
C223 C219 1.391 . S
C223 C222 1.371 . S
C223 H230 0.930 . S
H224 C221 0.928 . S
H225 C222 0.931 . S
H226 C202 0.930 . S
H227 C199 0.930 . S
H228 C208 0.930 . S
H229 C220 0.929 . S
H230 C223 0.930 . S
C231 C232 1.351 . S
C231 N234 1.368 . S
C231 H236 0.931 . S
C232 C231 1.351 . S
C232 N233 1.373 . S
C232 H260 0.930 . S
N233 C232 1.373 . S
N233 C235 1.340 . S
N234 C231 1.368 . S
N234 C235 1.321 . S
N234 Co237 2.135 . S
C235 N233 1.340 . S
C235 N234 1.321 . S
C235 H259 0.930 1_655 S
H236 C231 0.931 . S
Co237 N234 2.135 . S
Co237 N240 2.121 . S
Co237 O245 2.055 . S
Co237 O248 2.039 . S
Co237 N251 2.140 1_655 S
C238 O239 1.227 . S
C238 O248 1.265 1_455 S
O239 C238 1.227 . S
N240 Co237 2.121 . S
N240 C242 1.375 1_655 S
N240 C243 1.313 . S
C241 C242 1.338 . S
C241 N244 1.377 1_455 S
C241 H261 0.930 . S
C242 N240 1.375 1_455 S
C242 C241 1.338 . S
C242 H246 0.931 . S
C243 N240 1.313 . S
C243 N244 1.344 . S
C243 H247 0.930 . S
N244 C241 1.377 1_655 S
N244 C243 1.344 . S
O245 Co237 2.055 . S
O245 C249 1.253 . S
H246 C242 0.931 . S
H247 C243 0.930 . S
O248 Co237 2.039 . S
O248 C238 1.265 1_655 S
C249 O245 1.253 . S
C249 O250 1.227 . S
O250 C249 1.227 . S
N251 Co237 2.140 1_455 S
N251 C254 1.346 . S
N251 C255 1.345 . S
C252 C253 1.387 . S
C252 C256 1.391 . S
C253 C252 1.387 . S
C253 C254 1.369 . S
C253 H262 0.929 . S
C254 N251 1.346 . S
C254 C253 1.369 . S
C254 H257 0.928 . S
C255 N251 1.345 . S
C255 C256 1.371 . S
C255 H258 0.931 . S
C256 C252 1.391 . S
C256 C255 1.371 . S
C256 H263 0.930 . S
H257 C254 0.928 . S
H258 C255 0.931 . S
H259 C235 0.930 1_455 S
H260 C232 0.930 . S
H261 C241 0.930 . S
H262 C253 0.929 . S
H263 C256 0.930 . S
C264 C265 1.391 . S
C264 C266 1.394 . S
C264 H280 0.931 . S
C265 C264 1.391 . S
C265 C269 1.376 . S
C266 C264 1.394 . S
C266 C267 1.369 . S
C266 C270 1.531 . S
C267 C266 1.369 . S
C267 C268 1.410 1_556 S
C267 C275 1.503 1_556 S
C268 C267 1.410 1_554 S
C268 C269 1.393 1_554 S
C268 C271 1.510 . S
C269 C265 1.376 . S
C269 C268 1.393 1_556 S
C269 H281 0.929 . S
C270 C266 1.531 . S
C270 H282 0.960 . S
C270 H283 0.962 . S
C270 H284 0.960 . S
C271 C268 1.510 . S
C271 H285 0.961 . S
C271 H286 0.961 . S
C271 H287 0.961 . S
C272 C273 1.370 . S
C272 C274 1.363 . S
C272 H288 0.931 . S
C273 C272 1.370 . S
C273 C277 1.408 . S
C274 C272 1.363 . S
C274 C275 1.370 . S
C274 C278 1.524 1_554 S
C275 C267 1.503 1_554 S
C275 C274 1.370 . S
C275 C276 1.403 . S
C276 C275 1.403 . S
C276 C277 1.404 . S
C276 C279 1.539 . S
C277 C273 1.408 . S
C277 C276 1.404 . S
C277 H289 0.930 . S
C278 C274 1.524 1_556 S
C278 H290 0.956 . S
C278 H291 0.961 . S
C278 H292 0.961 . S
C279 C276 1.539 . S
C279 H293 0.958 . S
C279 H294 0.961 . S
C279 H295 0.960 . S
H280 C264 0.931 . S
H281 C269 0.929 . S
H282 C270 0.960 . S
H283 C270 0.962 . S
H284 C270 0.960 . S
H285 C271 0.961 . S
H286 C271 0.961 . S
H287 C271 0.961 . S
H288 C272 0.931 . S
H289 C277 0.930 . S
H290 C278 0.956 . S
H291 C278 0.961 . S
H292 C278 0.961 . S
H293 C279 0.958 . S
H294 C279 0.961 . S
H295 C279 0.960 . S
C296 C297 1.391 . S
C296 C298 1.394 . S
C296 H312 0.931 . S
C297 C296 1.391 . S
C297 C301 1.376 . S
C298 C296 1.394 . S
C298 C299 1.369 . S
C298 C302 1.531 . S
C299 C298 1.369 . S
C299 C300 1.410 . S
C299 C307 1.503 . S
C300 C299 1.410 . S
C300 C301 1.392 . S
C300 C303 1.511 . S
C301 C297 1.376 . S
C301 C300 1.392 . S
C301 H313 0.929 . S
C302 C298 1.531 . S
C302 H314 0.960 . S
C302 H315 0.962 . S
C302 H316 0.960 . S
C303 C300 1.511 . S
C303 H317 0.961 . S
C303 H318 0.961 . S
C303 H319 0.961 . S
C304 C305 1.370 . S
C304 C306 1.363 . S
C304 H320 0.931 . S
C305 C304 1.370 . S
C305 C309 1.408 . S
C306 C304 1.363 . S
C306 C307 1.370 . S
C306 C310 1.524 . S
C307 C299 1.503 . S
C307 C306 1.370 . S
C307 C308 1.403 . S
C308 C307 1.403 . S
C308 C309 1.404 . S
C308 C311 1.539 . S
C309 C305 1.408 . S
C309 C308 1.404 . S
C309 H321 0.930 . S
C310 C306 1.524 . S
C310 H322 0.956 . S
C310 H323 0.961 . S
C310 H324 0.961 . S
C311 C308 1.539 . S
C311 H325 0.958 . S
C311 H326 0.961 . S
C311 H327 0.960 . S
H312 C296 0.931 . S
H313 C301 0.929 . S
H314 C302 0.960 . S
H315 C302 0.962 . S
H316 C302 0.960 . S
H317 C303 0.961 . S
H318 C303 0.961 . S
H319 C303 0.961 . S
H320 C304 0.931 . S
H321 C309 0.930 . S
H322 C310 0.956 . S
H323 C310 0.961 . S
H324 C310 0.961 . S
H325 C311 0.958 . S
H326 C311 0.961 . S
H327 C311 0.960 . S
C328 C329 1.391 . S
C328 C330 1.394 . S
C328 H344 0.931 . S
C329 C328 1.391 . S
C329 C333 1.376 . S
C330 C328 1.394 . S
C330 C331 1.369 . S
C330 C334 1.531 . S
C331 C330 1.369 . S
C331 C332 1.410 1_554 S
C331 C339 1.503 1_554 S
C332 C331 1.410 1_556 S
C332 C333 1.392 1_556 S
C332 C335 1.511 . S
C333 C329 1.376 . S
C333 C332 1.392 1_554 S
C333 H345 0.929 . S
C334 C330 1.531 . S
C334 H346 0.960 . S
C334 H347 0.962 . S
C334 H348 0.960 . S
C335 C332 1.511 . S
C335 H349 0.961 . S
C335 H350 0.961 . S
C335 H351 0.961 . S
C336 C337 1.370 . S
C336 C338 1.363 . S
C336 H352 0.931 . S
C337 C336 1.370 . S
C337 C341 1.408 . S
C338 C336 1.363 . S
C338 C339 1.370 . S
C338 C342 1.514 1_556 S
C339 C331 1.503 1_556 S
C339 C338 1.370 . S
C339 C340 1.403 . S
C340 C339 1.403 . S
C340 C341 1.404 . S
C340 C343 1.539 . S
C341 C337 1.408 . S
C341 C340 1.404 . S
C341 H353 0.930 . S
C342 C338 1.514 1_554 S
C342 H354 0.979 . S
C342 H355 0.956 1_554 S
C342 H356 0.954 1_554 S
C343 C340 1.539 . S
C343 H357 0.958 . S
C343 H358 0.961 . S
C343 H359 0.960 . S
H344 C328 0.931 . S
H345 C333 0.929 . S
H346 C334 0.960 . S
H347 C334 0.962 . S
H348 C334 0.960 . S
H349 C335 0.961 . S
H350 C335 0.961 . S
H351 C335 0.961 . S
H352 C336 0.931 . S
H353 C341 0.930 . S
H354 C342 0.979 . S
H355 C342 0.956 1_556 S
H356 C342 0.954 1_556 S
H357 C343 0.958 . S
H358 C343 0.961 . S
H359 C343 0.960 . S
C360 C361 1.391 . S
C360 C362 1.394 . S
C360 H376 0.931 . S
C361 C360 1.391 . S
C361 C365 1.376 . S
C362 C360 1.394 . S
C362 C363 1.369 . S
C362 C366 1.531 . S
C363 C362 1.369 . S
C363 C364 1.410 . S
C363 C371 1.503 . S
C364 C363 1.410 . S
C364 C365 1.392 . S
C364 C367 1.511 . S
C365 C361 1.376 . S
C365 C364 1.392 . S
C365 H377 0.929 . S
C366 C362 1.531 . S
C366 H378 0.960 . S
C366 H379 0.962 . S
C366 H380 0.960 . S
C367 C364 1.511 . S
C367 H381 0.961 . S
C367 H382 0.961 . S
C367 H383 0.961 . S
C368 C369 1.370 . S
C368 C370 1.363 . S
C368 H384 0.931 . S
C369 C368 1.370 . S
C369 C373 1.408 . S
C370 C368 1.363 . S
C370 C371 1.370 . S
C370 C374 1.524 . S
C371 C363 1.503 . S
C371 C370 1.370 . S
C371 C372 1.403 . S
C372 C371 1.403 . S
C372 C373 1.404 . S
C372 C375 1.539 . S
C373 C369 1.408 . S
C373 C372 1.404 . S
C373 H385 0.930 . S
C374 C370 1.524 . S
C374 H386 0.956 . S
C374 H387 0.961 . S
C374 H388 0.961 . S
C375 C372 1.539 . S
C375 H389 0.958 . S
C375 H390 0.961 . S
C375 H391 0.960 . S
H376 C360 0.931 . S
H377 C365 0.929 . S
H378 C366 0.960 . S
H379 C366 0.962 . S
H380 C366 0.960 . S
H381 C367 0.961 . S
H382 C367 0.961 . S
H383 C367 0.961 . S
H384 C368 0.931 . S
H385 C373 0.930 . S
H386 C374 0.956 . S
H387 C374 0.961 . S
H388 C374 0.961 . S
H389 C375 0.958 . S
H390 C375 0.961 . S
H391 C375 0.960 . S
C392 C393 1.391 . S
C392 C394 1.394 . S
C392 H408 0.931 . S
C393 C392 1.391 . S
C393 C397 1.376 . S
C394 C392 1.394 . S
C394 C395 1.369 . S
C394 C398 1.531 . S
C395 C394 1.369 . S
C395 C396 1.410 . S
C395 C403 1.503 1_554 S
C396 C395 1.410 . S
C396 C397 1.392 . S
C396 C399 1.511 1_554 S
C397 C393 1.376 . S
C397 C396 1.392 . S
C397 H409 0.929 . S
C398 C394 1.531 . S
C398 H410 0.960 . S
C398 H411 0.962 . S
C398 H412 0.960 . S
C399 C396 1.511 1_556 S
C399 H413 0.961 . S
C399 H414 0.961 . S
C399 H415 0.961 . S
C400 C401 1.370 . S
C400 C402 1.363 . S
C400 H416 0.931 . S
C401 C400 1.370 . S
C401 C405 1.408 . S
C402 C400 1.363 . S
C402 C403 1.370 . S
C402 C406 1.524 1_556 S
C403 C395 1.503 1_556 S
C403 C402 1.370 . S
C403 C404 1.403 . S
C404 C403 1.403 . S
C404 C405 1.404 . S
C404 C407 1.539 . S
C405 C401 1.408 . S
C405 C404 1.404 . S
C405 H417 0.930 . S
C406 C402 1.524 1_554 S
C406 H418 0.956 . S
C406 H419 0.961 . S
C406 H420 0.961 . S
C407 C404 1.539 . S
C407 H421 0.958 . S
C407 H422 0.961 . S
C407 H423 0.960 . S
H408 C392 0.931 . S
H409 C397 0.929 . S
H410 C398 0.960 . S
H411 C398 0.962 . S
H412 C398 0.960 . S
H413 C399 0.961 . S
H414 C399 0.961 . S
H415 C399 0.961 . S
H416 C400 0.931 . S
H417 C405 0.930 . S
H418 C406 0.956 . S
H419 C406 0.961 . S
H420 C406 0.961 . S
H421 C407 0.958 . S
H422 C407 0.961 . S
H423 C407 0.960 . S
C424 C425 1.391 . S
C424 C426 1.394 . S
C424 H440 0.931 . S
C425 C424 1.391 . S
C425 C429 1.376 . S
C426 C424 1.394 . S
C426 C427 1.369 . S
C426 C430 1.531 . S
C427 C426 1.369 . S
C427 C428 1.410 . S
C427 C435 1.503 . S
C428 C427 1.410 . S
C428 C429 1.392 . S
C428 C431 1.511 . S
C429 C425 1.376 . S
C429 C428 1.392 . S
C429 H441 0.929 . S
C430 C426 1.531 . S
C430 H442 0.960 . S
C430 H443 0.962 . S
C430 H444 0.960 . S
C431 C428 1.511 . S
C431 H445 0.961 . S
C431 H446 0.961 . S
C431 H447 0.961 . S
C432 C433 1.370 . S
C432 C434 1.363 . S
C432 H448 0.931 . S
C433 C432 1.370 . S
C433 C437 1.408 . S
C434 C432 1.363 . S
C434 C435 1.370 . S
C434 C438 1.524 . S
C435 C427 1.503 . S
C435 C434 1.370 . S
C435 C436 1.403 . S
C436 C435 1.403 . S
C436 C437 1.404 . S
C436 C439 1.539 . S
C437 C433 1.408 . S
C437 C436 1.404 . S
C437 H449 0.930 . S
C438 C434 1.524 . S
C438 H450 0.956 . S
C438 H451 0.961 . S
C438 H452 0.961 . S
C439 C436 1.539 . S
C439 H453 0.958 . S
C439 H454 0.961 . S
C439 H455 0.960 . S
H440 C424 0.931 . S
H441 C429 0.929 . S
H442 C430 0.960 . S
H443 C430 0.962 . S
H444 C430 0.960 . S
H445 C431 0.961 . S
H446 C431 0.961 . S
H447 C431 0.961 . S
H448 C432 0.931 . S
H449 C437 0.930 . S
H450 C438 0.956 . S
H451 C438 0.961 . S
H452 C438 0.961 . S
H453 C439 0.958 . S
H454 C439 0.961 . S
H455 C439 0.960 . S
C456 C457 1.391 . S
C456 C458 1.394 . S
C456 H472 0.931 . S
C457 C456 1.391 . S
C457 C461 1.376 . S
C458 C456 1.394 . S
C458 C459 1.369 . S
C458 C462 1.531 . S
C459 C458 1.369 . S
C459 C460 1.410 . S
C459 C467 1.503 1_554 S
C460 C459 1.410 . S
C460 C461 1.392 . S
C460 C463 1.511 1_554 S
C461 C457 1.376 . S
C461 C460 1.392 . S
C461 H473 0.929 . S
C462 C458 1.531 . S
C462 H474 0.960 . S
C462 H475 0.962 . S
C462 H476 0.960 . S
C463 C460 1.511 1_556 S
C463 H477 0.961 . S
C463 H478 0.961 . S
C463 H479 0.961 1_556 S
C464 C465 1.370 . S
C464 C466 1.363 . S
C464 H480 0.931 . S
C465 C464 1.370 . S
C465 C469 1.408 . S
C466 C464 1.363 . S
C466 C467 1.370 . S
C466 C470 1.524 . S
C467 C459 1.503 1_556 S
C467 C466 1.370 . S
C467 C468 1.403 1_556 S
C468 C467 1.403 1_554 S
C468 C469 1.404 1_554 S
C468 C471 1.539 . S
C469 C465 1.408 . S
C469 C468 1.404 1_556 S
C469 H481 0.930 . S
C470 C466 1.524 . S
C470 H482 0.956 . S
C470 H483 0.961 . S
C470 H484 0.961 . S
C471 C468 1.539 . S
C471 H485 0.958 . S
C471 H486 0.961 . S
C471 H487 0.960 . S
H472 C456 0.931 . S
H473 C461 0.929 . S
H474 C462 0.960 . S
H475 C462 0.962 . S
H476 C462 0.960 . S
H477 C463 0.961 . S
H478 C463 0.961 . S
H479 C463 0.961 1_554 S
H480 C464 0.931 . S
H481 C469 0.930 . S
H482 C470 0.956 . S
H483 C470 0.961 . S
H484 C470 0.961 . S
H485 C471 0.958 . S
H486 C471 0.961 . S
H487 C471 0.960 . S
C488 C489 1.391 . S
C488 C490 1.394 . S
C488 H504 0.931 . S
C489 C488 1.391 . S
C489 C493 1.376 . S
C490 C488 1.394 . S
C490 C491 1.369 . S
C490 C494 1.531 . S
C491 C490 1.369 . S
C491 C492 1.410 . S
C491 C499 1.503 . S
C492 C491 1.410 . S
C492 C493 1.392 . S
C492 C495 1.511 . S
C493 C489 1.376 . S
C493 C492 1.392 . S
C493 H505 0.929 . S
C494 C490 1.531 . S
C494 H506 0.960 . S
C494 H507 0.962 . S
C494 H508 0.960 . S
C495 C492 1.511 . S
C495 H509 0.961 . S
C495 H510 0.961 . S
C495 H511 0.961 . S
C496 C497 1.370 . S
C496 C498 1.363 . S
C496 H512 0.931 . S
C497 C496 1.370 . S
C497 C501 1.408 . S
C498 C496 1.363 . S
C498 C499 1.370 . S
C498 C502 1.524 . S
C499 C491 1.503 . S
C499 C498 1.370 . S
C499 C500 1.403 . S
C500 C499 1.403 . S
C500 C501 1.404 . S
C500 C503 1.539 . S
C501 C497 1.408 . S
C501 C500 1.404 . S
C501 H513 0.930 . S
C502 C498 1.524 . S
C502 H514 0.956 . S
C502 H515 0.961 . S
C502 H516 0.961 . S
C503 C500 1.539 . S
C503 H517 0.958 . S
C503 H518 0.961 . S
C503 H519 0.960 . S
H504 C488 0.931 . S
H505 C493 0.929 . S
H506 C494 0.960 . S
H507 C494 0.962 . S
H508 C494 0.960 . S
H509 C495 0.961 . S
H510 C495 0.961 . S
H511 C495 0.961 . S
H512 C496 0.931 . S
H513 C501 0.930 . S
H514 C502 0.956 . S
H515 C502 0.961 . S
H516 C502 0.961 . S
H517 C503 0.958 . S
H518 C503 0.961 . S
H519 C503 0.960 . S
C520 C521 1.391 . S
C520 C522 1.394 . S
C520 H536 0.931 . S
C521 C520 1.391 . S
C521 C525 1.376 . S
C522 C520 1.394 . S
C522 C523 1.369 . S
C522 C526 1.531 . S
C523 C522 1.369 . S
C523 C524 1.410 . S
C523 C531 1.503 . S
C524 C523 1.410 . S
C524 C525 1.392 . S
C524 C527 1.511 . S
C525 C521 1.376 . S
C525 C524 1.392 . S
C525 H537 0.929 . S
C526 C522 1.531 . S
C526 H538 0.960 . S
C526 H539 0.962 1_455 S
C526 H540 0.960 . S
C527 C524 1.511 . S
C527 H541 0.961 . S
C527 H542 0.961 . S
C527 H543 0.961 . S
C528 C529 1.370 1_655 S
C528 C530 1.363 . S
C528 H544 0.931 . S
C529 C528 1.370 1_455 S
C529 C533 1.408 . S
C530 C528 1.363 . S
C530 C531 1.370 1_655 S
C530 C534 1.524 . S
C531 C523 1.503 . S
C531 C530 1.370 1_455 S
C531 C532 1.403 . S
C532 C531 1.403 . S
C532 C533 1.404 . S
C532 C535 1.539 . S
C533 C529 1.408 . S
C533 C532 1.404 . S
C533 H545 0.930 . S
C534 C530 1.524 . S
C534 H546 0.956 . S
C534 H547 0.961 . S
C534 H548 0.961 . S
C535 C532 1.539 . S
C535 H549 0.958 . S
C535 H550 0.961 . S
C535 H551 0.960 . S
H536 C520 0.931 . S
H537 C525 0.929 . S
H538 C526 0.960 . S
H539 C526 0.962 1_655 S
H540 C526 0.960 . S
H541 C527 0.961 . S
H542 C527 0.961 . S
H543 C527 0.961 . S
H544 C528 0.931 . S
H545 C533 0.930 . S
H546 C534 0.956 . S
H547 C534 0.961 . S
H548 C534 0.961 . S
H549 C535 0.958 . S
H550 C535 0.961 . S
H551 C535 0.960 . S
C552 C553 1.391 . S
C552 C554 1.394 . S
C552 H568 0.931 . S
C553 C552 1.391 . S
C553 C557 1.376 . S
C554 C552 1.394 . S
C554 C555 1.369 . S
C554 C558 1.531 . S
C555 C554 1.369 . S
C555 C556 1.410 . S
C555 C563 1.503 . S
C556 C555 1.410 . S
C556 C557 1.392 . S
C556 C559 1.511 . S
C557 C553 1.376 . S
C557 C556 1.392 . S
C557 H569 0.929 . S
C558 C554 1.531 . S
C558 H570 0.960 . S
C558 H571 0.962 . S
C558 H572 0.960 . S
C559 C556 1.511 . S
C559 H573 0.961 . S
C559 H574 0.961 . S
C559 H575 0.961 . S
C560 C561 1.370 . S
C560 C562 1.363 . S
C560 H576 0.931 . S
C561 C560 1.370 . S
C561 C565 1.408 . S
C562 C560 1.363 . S
C562 C563 1.370 . S
C562 C566 1.524 . S
C563 C555 1.503 . S
C563 C562 1.370 . S
C563 C564 1.403 . S
C564 C563 1.403 . S
C564 C565 1.404 . S
C564 C567 1.539 . S
C565 C561 1.408 . S
C565 C564 1.404 . S
C565 H577 0.930 . S
C566 C562 1.524 . S
C566 H578 0.956 . S
C566 H579 0.961 . S
C566 H580 0.961 . S
C567 C564 1.539 . S
C567 H581 0.958 . S
C567 H582 0.961 . S
C567 H583 0.960 . S
H568 C552 0.931 . S
H569 C557 0.929 . S
H570 C558 0.960 . S
H571 C558 0.962 . S
H572 C558 0.960 . S
H573 C559 0.961 . S
H574 C559 0.961 . S
H575 C559 0.961 . S
H576 C560 0.931 . S
H577 C565 0.930 . S
H578 C566 0.956 . S
H579 C566 0.961 . S
H580 C566 0.961 . S
H581 C567 0.958 . S
H582 C567 0.961 . S
H583 C567 0.960 . S
C584 C585 1.391 . S
C584 C586 1.394 . S
C584 H600 0.931 . S
C585 C584 1.391 . S
C585 C589 1.376 1_455 S
C586 C584 1.394 . S
C586 C587 1.369 . S
C586 C590 1.531 . S
C587 C586 1.369 . S
C587 C588 1.410 1_455 S
C587 C595 1.503 . S
C588 C587 1.410 1_655 S
C588 C589 1.392 . S
C588 C591 1.511 . S
C589 C585 1.376 1_655 S
C589 C588 1.392 . S
C589 H601 0.929 . S
C590 C586 1.531 . S
C590 H602 0.960 . S
C590 H603 0.962 . S
C590 H604 0.960 . S
C591 C588 1.511 . S
C591 H605 0.961 . S
C591 H606 0.961 . S
C591 H607 0.961 . S
C592 C593 1.370 . S
C592 C594 1.363 . S
C592 H608 0.931 . S
C593 C592 1.370 . S
C593 C597 1.408 . S
C594 C592 1.363 . S
C594 C595 1.370 . S
C594 C598 1.524 . S
C595 C587 1.503 . S
C595 C594 1.370 . S
C595 C596 1.395 1_455 S
C596 C595 1.395 1_655 S
C596 C597 1.402 1_655 S
C596 C599 1.551 . S
C597 C593 1.408 . S
C597 C596 1.402 1_455 S
C597 H609 0.930 1_455 S
C598 C594 1.524 . S
C598 H610 0.956 . S
C598 H611 0.961 . S
C598 H612 0.961 . S
C599 C596 1.551 . S
C599 H613 0.958 . S
C599 H614 0.961 . S
C599 H615 0.960 . S
H600 C584 0.931 . S
H601 C589 0.929 . S
H602 C590 0.960 . S
H603 C590 0.962 . S
H604 C590 0.960 . S
H605 C591 0.961 . S
H606 C591 0.961 . S
H607 C591 0.961 . S
H608 C592 0.931 . S
H609 C597 0.930 1_655 S
H610 C598 0.956 . S
H611 C598 0.961 . S
H612 C598 0.961 . S
H613 C599 0.958 . S
H614 C599 0.961 . S
H615 C599 0.960 . S
C616 C617 1.391 . S
C616 C618 1.394 . S
C616 H632 0.931 . S
C617 C616 1.391 . S
C617 C621 1.376 . S
C618 C616 1.394 . S
C618 C619 1.369 . S
C618 C622 1.531 . S
C619 C618 1.369 . S
C619 C620 1.410 . S
C619 C627 1.503 . S
C620 C619 1.410 . S
C620 C621 1.392 . S
C620 C623 1.511 . S
C621 C617 1.376 . S
C621 C620 1.392 . S
C621 H633 0.929 . S
C622 C618 1.531 . S
C622 H634 0.960 . S
C622 H635 0.962 . S
C622 H636 0.960 . S
C623 C620 1.511 . S
C623 H637 0.961 . S
C623 H638 0.961 . S
C623 H639 0.961 . S
C624 C625 1.370 . S
C624 C626 1.363 . S
C624 H640 0.931 . S
C625 C624 1.370 . S
C625 C629 1.408 . S
C626 C624 1.363 . S
C626 C627 1.370 . S
C626 C630 1.524 . S
C627 C619 1.503 . S
C627 C626 1.370 . S
C627 C628 1.403 . S
C628 C627 1.403 . S
C628 C629 1.404 . S
C628 C631 1.539 . S
C629 C625 1.408 . S
C629 C628 1.404 . S
C629 H641 0.930 . S
C630 C626 1.524 . S
C630 H642 0.956 . S
C630 H643 0.961 . S
C630 H644 0.961 . S
C631 C628 1.539 . S
C631 H645 0.958 . S
C631 H646 0.961 . S
C631 H647 0.960 . S
H632 C616 0.931 . S
H633 C621 0.929 . S
H634 C622 0.960 . S
H635 C622 0.962 . S
H636 C622 0.960 . S
H637 C623 0.961 . S
H638 C623 0.961 . S
H639 C623 0.961 . S
H640 C624 0.931 . S
H641 C629 0.930 . S
H642 C630 0.956 . S
H643 C630 0.961 . S
H644 C630 0.961 . S
H645 C631 0.958 . S
H646 C631 0.961 . S
H647 C631 0.960 . S
C648 C649 1.391 . S
C648 C650 1.394 . S
C648 H664 0.931 . S
C649 C648 1.391 . S
C649 C653 1.376 . S
C650 C648 1.394 . S
C650 C651 1.369 . S
C650 C654 1.531 1_565 S
C651 C650 1.369 . S
C651 C652 1.410 . S
C651 C659 1.503 1_565 S
C652 C651 1.410 . S
C652 C653 1.392 . S
C652 C655 1.511 . S
C653 C649 1.376 . S
C653 C652 1.392 . S
C653 H665 0.929 . S
C654 C650 1.531 1_545 S
C654 H666 0.960 . S
C654 H667 0.962 . S
C654 H668 0.960 . S
C655 C652 1.511 . S
C655 H669 0.961 . S
C655 H670 0.961 . S
C655 H671 0.961 . S
C656 C657 1.370 . S
C656 C658 1.363 . S
C656 H672 0.931 . S
C657 C656 1.370 . S
C657 C661 1.408 . S
C658 C656 1.363 . S
C658 C659 1.370 . S
C658 C662 1.524 1_545 S
C659 C651 1.503 1_545 S
C659 C658 1.370 . S
C659 C660 1.403 . S
C660 C659 1.403 . S
C660 C661 1.404 . S
C660 C663 1.539 . S
C661 C657 1.408 . S
C661 C660 1.404 . S
C661 H673 0.930 . S
C662 C658 1.524 1_565 S
C662 H674 0.956 . S
C662 H675 0.961 . S
C662 H676 0.961 . S
C663 C660 1.539 . S
C663 H677 0.958 . S
C663 H678 0.961 . S
C663 H679 0.960 . S
H664 C648 0.931 . S
H665 C653 0.929 . S
H666 C654 0.960 . S
H667 C654 0.962 . S
H668 C654 0.960 . S
H669 C655 0.961 . S
H670 C655 0.961 . S
H671 C655 0.961 . S
H672 C656 0.931 . S
H673 C661 0.930 . S
H674 C662 0.956 . S
H675 C662 0.961 . S
H676 C662 0.961 . S
H677 C663 0.958 . S
H678 C663 0.961 . S
H679 C663 0.960 . S
C680 C681 1.391 . S
C680 C682 1.394 . S
C680 H696 0.931 . S
C681 C680 1.391 . S
C681 C685 1.367 1_455 S
C682 C680 1.394 . S
C682 C683 1.369 . S
C682 C686 1.531 . S
C683 C682 1.369 . S
C683 C684 1.410 1_455 S
C683 C691 1.503 1_565 S
C684 C683 1.410 1_655 S
C684 C685 1.394 . S
C684 C687 1.511 . S
C685 C681 1.367 1_655 S
C685 C684 1.394 . S
C685 H697 0.937 . S
C686 C682 1.531 . S
C686 H698 0.960 . S
C686 H699 0.962 . S
C686 H700 0.960 . S
C687 C684 1.511 . S
C687 H701 0.961 . S
C687 H702 0.961 1_565 S
C687 H703 0.961 . S
C688 C689 1.370 . S
C688 C690 1.363 . S
C688 H704 0.931 . S
C689 C688 1.370 . S
C689 C693 1.408 . S
C690 C688 1.363 . S
C690 C691 1.370 . S
C690 C694 1.524 . S
C691 C683 1.503 1_545 S
C691 C690 1.370 . S
C691 C692 1.403 . S
C692 C691 1.403 . S
C692 C693 1.404 . S
C692 C695 1.539 1_445 S
C693 C689 1.408 . S
C693 C692 1.404 . S
C693 H705 0.930 1_455 S
C694 C690 1.524 . S
C694 H706 0.956 . S
C694 H707 0.961 . S
C694 H708 0.961 . S
C695 C692 1.539 1_665 S
C695 H709 0.958 1_655 S
C695 H710 0.961 . S
C695 H711 0.960 . S
H696 C680 0.931 . S
H697 C685 0.937 . S
H698 C686 0.960 . S
H699 C686 0.962 . S
H700 C686 0.960 . S
H701 C687 0.961 . S
H702 C687 0.961 1_545 S
H703 C687 0.961 . S
H704 C688 0.931 . S
H705 C693 0.930 1_655 S
H706 C694 0.956 . S
H707 C694 0.961 . S
H708 C694 0.961 . S
H709 C695 0.958 1_455 S
H710 C695 0.961 . S
H711 C695 0.960 . S
C712 C713 1.391 . S
C712 C714 1.394 . S
C712 H728 0.931 . S
C713 C712 1.391 . S
C713 C717 1.376 . S
C714 C712 1.394 . S
C714 C715 1.369 . S
C714 C718 1.531 . S
C715 C714 1.369 . S
C715 C716 1.410 . S
C715 C723 1.503 1_565 S
C716 C715 1.410 . S
C716 C717 1.392 . S
C716 C719 1.511 . S
C717 C713 1.376 . S
C717 C716 1.392 . S
C717 H729 0.929 . S
C718 C714 1.531 . S
C718 H730 0.960 . S
C718 H731 0.962 . S
C718 H732 0.960 . S
C719 C716 1.511 . S
C719 H733 0.961 . S
C719 H734 0.961 1_565 S
C719 H735 0.961 . S
C720 C721 1.370 . S
C720 C722 1.363 . S
C720 H736 0.931 . S
C721 C720 1.370 . S
C721 C725 1.408 . S
C722 C720 1.363 . S
C722 C723 1.370 . S
C722 C726 1.524 . S
C723 C715 1.503 1_545 S
C723 C722 1.370 . S
C723 C724 1.403 . S
C724 C723 1.403 . S
C724 C725 1.404 . S
C724 C727 1.539 1_545 S
C725 C721 1.408 . S
C725 C724 1.404 . S
C725 H737 0.930 . S
C726 C722 1.524 . S
C726 H738 0.956 . S
C726 H739 0.961 . S
C726 H740 0.961 . S
C727 C724 1.539 1_565 S
C727 H741 0.958 . S
C727 H742 0.961 . S
C727 H743 0.960 . S
H728 C712 0.931 . S
H729 C717 0.929 . S
H730 C718 0.960 . S
H731 C718 0.962 . S
H732 C718 0.960 . S
H733 C719 0.961 . S
H734 C719 0.961 1_545 S
H735 C719 0.961 . S
H736 C720 0.931 . S
H737 C725 0.930 . S
H738 C726 0.956 . S
H739 C726 0.961 . S
H740 C726 0.961 . S
H741 C727 0.958 . S
H742 C727 0.961 . S
H743 C727 0.960 . S
C744 C745 1.391 . S
C744 C746 1.394 . S
C744 H760 0.931 1_455 S
C745 C744 1.391 . S
C745 C749 1.376 . S
C746 C744 1.394 . S
C746 C747 1.381 . S
C746 C750 1.518 1_445 S
C747 C746 1.381 . S
C747 C748 1.410 . S
C747 C755 1.503 1_545 S
C748 C747 1.410 . S
C748 C749 1.392 . S
C748 C751 1.511 . S
C749 C745 1.376 . S
C749 C748 1.392 . S
C749 H761 0.929 . S
C750 C746 1.518 1_665 S
C750 H762 0.960 . S
C750 H763 0.962 1_565 S
C750 H764 0.960 . S
C751 C748 1.511 . S
C751 H765 0.961 . S
C751 H766 0.961 . S
C751 H767 0.961 . S
C752 C753 1.370 . S
C752 C754 1.363 . S
C752 H768 0.929 1_455 S
C753 C752 1.370 . S
C753 C757 1.408 . S
C754 C752 1.363 . S
C754 C755 1.370 . S
C754 C758 1.524 1_565 S
C755 C747 1.503 1_565 S
C755 C754 1.370 . S
C755 C756 1.403 . S
C756 C755 1.403 . S
C756 C757 1.404 . S
C756 C759 1.539 . S
C757 C753 1.408 . S
C757 C756 1.404 . S
C757 H769 0.930 . S
C758 C754 1.524 1_545 S
C758 H770 0.956 1_455 S
C758 H771 0.961 . S
C758 H772 0.961 1_455 S
C759 C756 1.539 . S
C759 H773 0.958 . S
C759 H774 0.961 . S
C759 H775 0.960 . S
H760 C744 0.931 1_655 S
H761 C749 0.929 . S
H762 C750 0.960 . S
H763 C750 0.962 1_545 S
H764 C750 0.960 . S
H765 C751 0.961 . S
H766 C751 0.961 . S
H767 C751 0.961 . S
H768 C752 0.929 1_655 S
H769 C757 0.930 . S
H770 C758 0.956 1_655 S
H771 C758 0.961 . S
H772 C758 0.961 1_655 S
H773 C759 0.958 . S
H774 C759 0.961 . S
H775 C759 0.960 . S
C776 C777 1.391 . S
C776 C778 1.394 . S
C776 H792 0.931 . S
C777 C776 1.391 . S
C777 C781 1.376 . S
C778 C776 1.394 . S
C778 C779 1.369 . S
C778 C782 1.531 1_556 S
C779 C778 1.369 . S
C779 C780 1.410 . S
C779 C787 1.503 1_556 S
C780 C779 1.410 . S
C780 C781 1.392 . S
C780 C783 1.511 1_455 S
C781 C777 1.376 . S
C781 C780 1.392 . S
C781 H793 0.923 1_455 S
C782 C778 1.531 1_554 S
C782 H794 0.960 . S
C782 H795 0.962 . S
C782 H796 0.960 . S
C783 C780 1.511 1_655 S
C783 H797 0.961 . S
C783 H798 0.961 . S
C783 H799 0.961 . S
C784 C785 1.370 . S
C784 C786 1.363 . S
C784 H800 0.931 . S
C785 C784 1.370 . S
C785 C789 1.408 . S
C786 C784 1.363 . S
C786 C787 1.370 . S
C786 C790 1.524 1_554 S
C787 C779 1.503 1_554 S
C787 C786 1.370 . S
C787 C788 1.403 . S
C788 C787 1.403 . S
C788 C789 1.404 . S
C788 C791 1.539 . S
C789 C785 1.408 . S
C789 C788 1.404 . S
C789 H801 0.930 . S
C790 C786 1.524 1_556 S
C790 H802 0.956 . S
C790 H803 0.961 . S
C790 H804 0.961 . S
C791 C788 1.539 . S
C791 H805 0.958 . S
C791 H806 0.961 1_455 S
C791 H807 0.960 . S
H792 C776 0.931 . S
H793 C781 0.923 1_655 S
H794 C782 0.960 . S
H795 C782 0.962 . S
H796 C782 0.960 . S
H797 C783 0.961 . S
H798 C783 0.961 . S
H799 C783 0.961 . S
H800 C784 0.931 . S
H801 C789 0.930 . S
H802 C790 0.956 . S
H803 C790 0.961 . S
H804 C790 0.961 . S
H805 C791 0.958 . S
H806 C791 0.961 1_655 S
H807 C791 0.960 . S
C808 C809 1.391 . S
C808 C810 1.394 . S
C808 H824 0.931 . S
C809 C808 1.391 . S
C809 C813 1.376 . S
C810 C808 1.394 . S
C810 C811 1.369 . S
C810 C814 1.531 . S
C811 C810 1.369 . S
C811 C812 1.410 . S
C811 C819 1.503 . S
C812 C811 1.410 . S
C812 C813 1.392 . S
C812 C815 1.511 . S
C813 C809 1.376 . S
C813 C812 1.392 . S
C813 H825 0.929 . S
C814 C810 1.531 . S
C814 H826 0.960 . S
C814 H827 0.962 . S
C814 H828 0.960 . S
C815 C812 1.511 . S
C815 H829 0.961 . S
C815 H830 0.961 . S
C815 H831 0.961 . S
C816 C817 1.370 . S
C816 C818 1.363 . S
C816 H832 0.931 . S
C817 C816 1.370 . S
C817 C821 1.408 . S
C818 C816 1.363 . S
C818 C819 1.370 . S
C818 C822 1.524 . S
C819 C811 1.503 . S
C819 C818 1.370 . S
C819 C820 1.403 . S
C820 C819 1.403 . S
C820 C821 1.404 . S
C820 C823 1.539 . S
C821 C817 1.408 . S
C821 C820 1.404 . S
C821 H833 0.930 . S
C822 C818 1.524 . S
C822 H834 0.956 . S
C822 H835 0.961 . S
C822 H836 0.961 . S
C823 C820 1.539 . S
C823 H837 0.958 . S
C823 H838 0.961 . S
C823 H839 0.960 . S
H824 C808 0.931 . S
H825 C813 0.929 . S
H826 C814 0.960 . S
H827 C814 0.962 . S
H828 C814 0.960 . S
H829 C815 0.961 . S
H830 C815 0.961 . S
H831 C815 0.961 . S
H832 C816 0.931 . S
H833 C821 0.930 . S
H834 C822 0.956 . S
H835 C822 0.961 . S
H836 C822 0.961 . S
H837 C823 0.958 . S
H838 C823 0.961 . S
H839 C823 0.960 . S
C840 C841 1.391 . S
C840 C842 1.394 . S
C840 H856 0.931 . S
C841 C840 1.391 . S
C841 C845 1.376 . S
C842 C840 1.394 . S
C842 C843 1.369 . S
C842 C846 1.531 1_556 S
C843 C842 1.369 . S
C843 C844 1.410 . S
C843 C851 1.503 1_546 S
C844 C843 1.410 . S
C844 C845 1.392 . S
C844 C847 1.511 . S
C845 C841 1.376 . S
C845 C844 1.392 . S
C845 H857 0.929 . S
C846 C842 1.531 1_554 S
C846 H858 0.960 . S
C846 H859 0.962 1_554 S
C846 H860 0.960 . S
C847 C844 1.511 . S
C847 H861 0.961 . S
C847 H862 0.961 1_545 S
C847 H863 0.961 1_556 S
C848 C849 1.370 . S
C848 C850 1.363 . S
C848 H864 0.931 . S
C849 C848 1.370 . S
C849 C853 1.408 . S
C850 C848 1.363 . S
C850 C851 1.370 . S
C850 C854 1.524 1_554 S
C851 C843 1.503 1_564 S
C851 C850 1.370 . S
C851 C852 1.403 . S
C852 C851 1.403 . S
C852 C853 1.404 . S
C852 C855 1.539 1_565 S
C853 C849 1.408 . S
C853 C852 1.404 . S
C853 H865 0.930 . S
C854 C850 1.524 1_556 S
C854 H866 0.956 . S
C854 H867 0.961 . S
C854 H868 0.961 . S
C855 C852 1.539 1_545 S
C855 H869 0.958 . S
C855 H870 0.961 . S
C855 H871 0.960 . S
H856 C840 0.931 . S
H857 C845 0.929 . S
H858 C846 0.960 . S
H859 C846 0.962 1_556 S
H860 C846 0.960 . S
H861 C847 0.961 . S
H862 C847 0.961 1_565 S
H863 C847 0.961 1_554 S
H864 C848 0.931 . S
H865 C853 0.930 . S
H866 C854 0.956 . S
H867 C854 0.961 . S
H868 C854 0.961 . S
H869 C855 0.958 . S
H870 C855 0.961 . S
H871 C855 0.960 . S
C872 C873 1.391 1_455 S
C872 C874 1.394 . S
C872 H888 0.931 . S
C873 C872 1.391 1_655 S
C873 C877 1.376 . S
C874 C872 1.394 . S
C874 C875 1.369 1_455 S
C874 C878 1.531 . S
C875 C874 1.369 1_655 S
C875 C876 1.410 . S
C875 C883 1.503 1_565 S
C876 C875 1.410 . S
C876 C877 1.392 . S
C876 C879 1.511 1_565 S
C877 C873 1.376 . S
C877 C876 1.392 . S
C877 H889 0.929 . S
C878 C874 1.531 . S
C878 H890 0.960 . S
C878 H891 0.962 . S
C878 H892 0.960 . S
C879 C876 1.511 1_545 S
C879 H893 0.961 . S
C879 H894 0.961 . S
C879 H895 0.961 . S
C880 C881 1.370 . S
C880 C882 1.363 . S
C880 H896 0.931 . S
C881 C880 1.370 . S
C881 C885 1.408 1_655 S
C882 C880 1.363 . S
C882 C883 1.370 . S
C882 C886 1.524 1_545 S
C883 C875 1.503 1_545 S
C883 C882 1.370 . S
C883 C884 1.403 1_655 S
C884 C883 1.403 1_455 S
C884 C885 1.404 . S
C884 C887 1.539 . S
C885 C881 1.408 1_455 S
C885 C884 1.404 . S
C885 H897 0.930 . S
C886 C882 1.524 1_565 S
C886 H898 0.956 . S
C886 H899 0.961 . S
C886 H900 0.961 . S
C887 C884 1.539 . S
C887 H901 0.958 . S
C887 H902 0.961 . S
C887 H903 0.960 . S
H888 C872 0.931 . S
H889 C877 0.929 . S
H890 C878 0.960 . S
H891 C878 0.962 . S
H892 C878 0.960 . S
H893 C879 0.961 . S
H894 C879 0.961 . S
H895 C879 0.961 . S
H896 C880 0.931 . S
H897 C885 0.930 . S
H898 C886 0.956 . S
H899 C886 0.961 . S
H900 C886 0.961 . S
H901 C887 0.958 . S
H902 C887 0.961 . S
H903 C887 0.960 . S
C265 C219 1.755 . S
C273 C18 1.796 . S
C297 C51 1.788 . S
C305 C252 1.781 . S
C329 C153 1.754 . S
C337 C84 1.797 . S
C361 C117 1.782 . S
C369 C186 1.779 . S
C393 C150 1.792 . S
C401 C87 1.778 . S
C425 C183 1.796 . S
C433 C120 1.777 . S
C457 C21 1.776 . S
C465 C216 1.791 . S
C489 C54 1.780 . S
C497 C249 1.789 . S
C521 C7 1.986 . S
C529 N233 1.947 1_455 S
C553 C40 1.973 . S
C561 N200 1.944 . S
C585 N167 1.918 1_455 S
C593 C73 1.986 . S
C617 C106 1.987 . S
C625 N134 1.947 . S
C649 C139 1.974 . S
C657 N101 1.942 . S
C681 N68 1.958 . S
C689 C172 1.985 . S
C713 N35 1.957 . S
C721 C205 1.984 . S
C745 N2 1.918 . S
C753 C238 1.986 . S
C777 N79 0.698 . S
C785 N13 0.627 . S
C809 N46 0.661 . S
C817 N112 0.683 . S
C841 N211 0.712 . S
C849 N145 0.629 . S
C873 N244 0.602 . S
C881 N178 0.667 . S
