# Generated by pormake.
# Topology kag, (6)-cn, num edge types: 1
# Building blocks:
#     Node 0, Type 0, BuildingBlock: KUMBOL_clean_sbu_1, # of connection points: 6
#     Node 1, Type 0, BuildingBlock: KUMBOL_clean_sbu_1, # of connection points: 6
#     Node 2, Type 0, BuildingBlock: KUMBOL_clean_sbu_1, # of connection points: 6
#     Edge 3, Type (0, 0), BuildingBlock: AJUNOK_clean_linker_0, # of connection points: 2
#     Edge 4, Type (0, 0), BuildingBlock: AJUNOK_clean_linker_0, # of connection points: 2
#     Edge 5, Type (0, 0), BuildingBlock: AJUNOK_clean_linker_0, # of connection points: 2
#     Edge 6, Type (0, 0), BuildingBlock: AJUNOK_clean_linker_0, # of connection points: 2
#     Edge 7, Type (0, 0), BuildingBlock: AJUNOK_clean_linker_0, # of connection points: 2
#     Edge 8, Type (0, 0), BuildingBlock: AJUNOK_clean_linker_0, # of connection points: 2
#     Edge 9, Type (0, 0), BuildingBlock: AJUNOK_clean_linker_0, # of connection points: 2
#     Edge 10, Type (0, 0), BuildingBlock: AJUNOK_clean_linker_0, # of connection points: 2
#     Edge 11, Type (0, 0), BuildingBlock: AJUNOK_clean_linker_0, # of connection points: 2
# Relax obj value: 0.135
# Max RMSD: 0.202
# Mean RMSD: 0.147
data_MOF--net-kag--node1-KUMBOL_clean_sbu_1--edge1-AJUNOK_clean_linker_0
_symmetry_space_group_name_H-M    P1
_symmetry_Int_Tables_number       1
_symmetry_cell_setting            triclinic
loop_
_symmetry_equiv_pos_as_xyz
'x, y, z'
_cell_length_a     23.084898
_cell_length_b     32.725111
_cell_length_c     10.874157
_cell_angle_alpha  107.58873
_cell_angle_beta   97.159577
_cell_angle_gamma 93.815431
loop_
_atom_site_label
_atom_site_type_symbol
_atom_site_fract_x
_atom_site_fract_y
_atom_site_fract_z
_atom_type_partial_charge
C0 C 0.12863 0.38971 0.79202 0.0
C1 C 0.17308 0.35844 0.95258 0.0
C2 C 0.13603 0.38715 0.91889 0.0
C3 C 0.20043 0.33112 0.85687 0.0
C4 C 0.15782 0.36309 0.69682 0.0
C5 C 0.19289 0.33345 0.72946 0.0
N6 N 0.09052 0.4162 0.7598 0.0
C7 C 0.07825 0.41607 0.63361 0.0
C8 C 0.14842 0.36532 0.56949 0.0
C9 C 0.10815 0.3918 0.53779 0.0
Gd10 Gd 0.06528 0.57243 0.06805 0.0
Gd11 Gd 1.03478 0.44753 0.9227 0.0
N12 N 0.10611 0.41206 0.00852 0.0
C13 C 0.18019 0.35698 0.08076 0.0
C14 C 0.11129 0.40971 0.1326 0.0
C15 C 0.14954 0.383 0.17134 0.0
H16 H 0.08502 0.42736 0.20118 0.0
H17 H 0.15445 0.38163 0.27006 0.0
H18 H 1.01877 0.59357 0.78186 0.0
H19 H 1.04226 0.43168 0.60364 0.0
H20 H 0.94642 0.63512 0.70579 0.0
H21 H 0.20877 0.33558 0.11042 0.0
H22 H 0.22656 0.30748 0.88042 0.0
H23 H 1.05929 0.59275 0.38311 0.0
H24 H 0.17013 0.34542 0.49384 0.0
H25 H 0.09769 0.39194 0.43824 0.0
H26 H 0.87129 0.71149 0.08871 0.0
H27 H 0.21323 0.31145 0.65567 0.0
H28 H 0.93484 0.68324 0.48866 0.0
H29 H 1.00756 0.63774 0.55004 0.0
N30 N 1.012 0.60859 0.227 0.0
C31 C 0.97421 0.6345 0.19114 0.0
C32 C 1.02508 0.6102 0.35408 0.0
C33 C 0.95613 0.66233 0.41421 0.0
C34 C 0.99665 0.63646 0.44926 0.0
C35 C 0.94522 0.66212 0.28435 0.0
H36 H 0.88712 0.71217 0.31787 0.0
N37 N 0.99681 0.60903 0.97455 0.0
C38 C 0.96573 0.63426 0.06145 0.0
C39 C 0.91928 0.66077 0.89313 0.0
C40 C 0.92717 0.66139 0.02319 0.0
C41 C 0.99143 0.61022 0.84907 0.0
C42 C 0.95142 0.635 0.80581 0.0
O43 O 0.13329 0.47558 0.99709 0.0
O44 O 0.14042 0.54172 0.96566 0.0
O45 O 0.09897 0.63759 0.08954 0.0
O46 O 0.13806 0.6054 0.22126 0.0
O47 O 1.01585 0.4753 0.12799 0.0
O48 O 0.08895 0.53076 0.19313 0.0
O49 O 0.96982 0.54501 0.07458 0.0
O50 O 0.95246 0.48208 0.90315 0.0
O51 O 0.98389 0.39745 0.97215 0.0
O52 O 0.99033 0.39178 0.76816 0.0
O53 O 0.07652 0.54592 0.85713 0.0
O54 O 1.00997 0.48542 0.78549 0.0
C55 C 0.1658 0.50823 0.98149 0.0
C56 C 1.05081 0.50489 0.22109 0.0
C57 C 0.20094 0.65411 0.15984 0.0
C58 C 0.26034 0.69707 0.06264 0.0
C59 C 0.30734 0.66096 0.20758 0.0
C60 C 0.25244 0.64459 0.22415 0.0
C61 C 0.31134 0.68736 0.12847 0.0
C62 C 0.20546 0.6799 0.07835 0.0
C63 C 0.14231 0.63884 0.17998 0.0
C64 C 0.89912 0.68936 0.11631 0.0
C65 C 0.90817 0.68979 0.24648 0.0
H66 H 0.8895 0.6808 0.85984 0.0
C67 C 0.93236 0.51343 0.99011 0.0
C68 C 1.04398 0.51509 0.76259 0.0
C69 C 0.93389 0.33282 0.80359 0.0
C70 C 0.89511 0.26801 0.84365 0.0
C71 C 0.87408 0.27561 0.62778 0.0
C72 C 0.90685 0.31607 0.67272 0.0
C73 C 0.86815 0.2516 0.71274 0.0
C74 C 0.92802 0.30859 0.88854 0.0
C75 C 0.97069 0.37436 0.84948 0.0
H76 H 0.3469 0.65383 0.25814 0.0
H77 H 0.25034 0.6249 0.28795 0.0
H78 H 0.35421 0.70102 0.1216 0.0
H79 H 0.16594 0.6871 0.02758 0.0
H80 H 0.85323 0.26287 0.52701 0.0
H81 H 0.91113 0.33416 0.60514 0.0
H82 H 0.84244 0.22029 0.67658 0.0
H83 H 0.94878 0.32127 0.98962 0.0
C84 C 0.75574 0.95582 0.1436 0.0
C85 C 0.79385 0.92068 0.94427 0.0
C86 C 0.75654 0.94924 0.01067 0.0
C87 C 0.8304 0.8995 0.01245 0.0
C88 C 0.79193 0.93424 0.21178 0.0
C89 C 0.82953 0.90631 0.14569 0.0
N90 N 0.71674 0.98133 0.20411 0.0
C91 C 0.71412 0.98872 0.33325 0.0
C92 C 0.78872 0.94104 0.34423 0.0
C93 C 0.74991 0.96866 0.40529 0.0
Gd94 Gd 0.47614 0.9867 0.96459 0.0
Gd95 Gd 0.66399 0.01727 0.07979 0.0
N96 N 0.71968 0.9696 0.94597 0.0
C97 C 0.79301 0.91383 0.81077 0.0
C98 C 0.72019 0.96388 0.81631 0.0
C99 C 0.75612 0.93551 0.74679 0.0
H100 H 0.69408 0.98137 0.76511 0.0
H101 H 0.75571 0.9305 0.64376 0.0
H102 H 0.4449 0.03074 0.27204 0.0
H103 H 0.68548 0.01092 0.38106 0.0
H104 H 0.38596 0.08595 0.38356 0.0
H105 H 0.82082 0.89199 0.75624 0.0
H106 H 0.85931 0.87751 0.96271 0.0
H107 H 0.44625 0.97724 0.64958 0.0
H108 H 0.8161 0.92528 0.40025 0.0
H109 H 0.74787 0.97492 0.50803 0.0
H110 H 0.29166 0.13507 0.04396 0.0
H111 H 0.85771 0.88947 0.19647 0.0
H112 H 0.32925 0.06986 0.60734 0.0
H113 H 0.38927 0.01211 0.50925 0.0
N114 N 0.42209 0.01684 0.82463 0.0
C115 C 0.3878 0.04728 0.88016 0.0
C116 C 0.42183 1.00333 0.6932 0.0
C117 C 0.35486 0.05504 0.66926 0.0
C118 C 0.38884 0.02257 0.61354 0.0
C119 C 0.35357 0.06751 0.80394 0.0
H120 H 0.29263 0.11528 0.80731 0.0
N121 N 0.42153 0.03856 0.08504 0.0
C122 C 0.38754 0.0585 0.0141 0.0
C123 C 0.35264 0.10036 0.20912 0.0
C124 C 0.35261 0.09019 0.07454 0.0
C125 C 0.42047 0.04763 0.21582 0.0
C126 C 0.38642 0.07879 0.27977 0.0
O127 O 0.64129 0.94672 0.06668 0.0
O128 O 0.56092 0.96431 0.00136 0.0
O129 O 0.40602 0.94706 0.00359 0.0
O130 O 0.43705 0.92752 0.81512 0.0
O131 O 0.62223 0.01732 0.87668 0.0
O132 O 0.53476 0.97087 0.80725 0.0
O133 O 0.50793 0.05546 0.97466 0.0
O134 O 0.60993 0.07081 0.04778 0.0
O135 O 0.74044 0.05354 0.05376 0.0
O136 O 0.71493 0.06688 0.24923 0.0
O137 O 0.51394 0.98698 0.16973 0.0
O138 O 0.59938 0.03451 0.22645 0.0
C139 C 0.58723 0.93262 0.0239 0.0
C140 C 0.57683 0.99637 0.78648 0.0
C141 C 0.34573 0.89262 0.8305 0.0
C142 C 0.28163 0.82822 0.80907 0.0
C143 C 0.24939 0.87941 0.7001 0.0
C144 C 0.30308 0.90534 0.75036 0.0
C145 C 0.23832 0.84114 0.73034 0.0
C146 C 0.33501 0.85418 0.85835 0.0
C147 C 0.40212 0.91793 0.88974 0.0
C148 C 0.31865 0.11059 0.99902 0.0
C149 C 0.31917 0.09932 0.86419 0.0
H150 H 0.32632 0.12447 0.25912 0.0
C151 C 0.55752 0.08188 0.01153 0.0
C152 C 0.55998 0.00908 0.25553 0.0
C153 C 0.80155 0.10972 0.22718 0.0
C154 C 0.85982 0.16926 0.19453 0.0
C155 C 0.87364 0.15634 0.40416 0.0
C156 C 0.82948 0.12156 0.357 0.0
C157 C 0.88854 0.18042 0.3237 0.0
C158 C 0.81827 0.13277 0.14583 0.0
C159 C 0.75184 0.07584 0.17726 0.0
H160 H 0.21608 0.8892 0.63888 0.0
H161 H 0.31109 0.93511 0.72792 0.0
H162 H 0.19626 0.82179 0.69291 0.0
H163 H 0.36796 0.84494 0.92213 0.0
H164 H 0.89528 0.16534 0.50421 0.0
H165 H 0.817 0.10414 0.42169 0.0
H166 H 0.92094 0.20839 0.36336 0.0
H167 H 0.79682 0.12346 0.0453 0.0
C168 C 0.66707 0.63197 0.23914 0.0
C169 C 0.72335 0.65824 0.09769 0.0
C170 C 0.67649 0.63142 0.11363 0.0
C171 C 0.75885 0.68685 0.20812 0.0
C172 C 0.70512 0.65925 0.34959 0.0
C173 C 0.75083 0.68665 0.33325 0.0
N174 N 0.61983 0.60737 0.25355 0.0
C175 C 0.60694 0.61058 0.37523 0.0
C176 C 0.69441 0.6599 0.47397 0.0
C177 C 0.64489 0.63565 0.48671 0.0
Gd178 Gd 0.54125 0.44241 0.94341 0.0
Gd179 Gd 0.55541 0.57461 0.05835 0.0
N180 N 0.63975 0.60481 0.00741 0.0
C181 C 0.7325 0.65617 0.9711 0.0
C182 C 0.64758 0.60327 0.88386 0.0
C183 C 0.69485 0.62821 0.86382 0.0
H184 H 0.61649 0.58393 0.8012 0.0
H185 H 0.70137 0.62675 0.76583 0.0
H186 H 0.48742 0.42008 0.18697 0.0
H187 H 0.56591 0.59613 0.38817 0.0
H188 H 0.407 0.3698 0.20994 0.0
H189 H 0.76829 0.67617 0.95509 0.0
H190 H 0.79191 0.70998 0.19796 0.0
H191 H 0.53205 0.42453 0.61479 0.0
H192 H 0.72276 0.68036 0.56088 0.0
H193 H 0.63444 0.63773 0.58255 0.0
H194 H 0.30589 0.30579 0.77558 0.0
H195 H 0.77927 0.70874 0.41712 0.0
H196 H 0.36876 0.35127 0.43299 0.0
H197 H 0.46075 0.39175 0.41959 0.0
N198 N 0.4754 0.41503 0.74691 0.0
C199 C 0.42663 0.39088 0.75641 0.0
C200 C 0.48913 0.41302 0.62657 0.0
C201 C 0.39801 0.36923 0.52175 0.0
C202 C 0.44955 0.39218 0.51352 0.0
C203 C 0.38754 0.36654 0.64313 0.0
H204 H 0.31341 0.31732 0.56583 0.0
N205 N 0.45737 0.40942 0.98596 0.0
C206 C 0.41867 0.38671 0.87783 0.0
C207 C 0.36936 0.35118 0.00755 0.0
C208 C 0.3738 0.35675 0.88626 0.0
C209 C 0.45439 0.40342 0.10397 0.0
C210 C 0.4098 0.37459 0.11676 0.0
O211 O 0.64503 0.54498 0.04085 0.0
O212 O 0.63733 0.46976 0.96106 0.0
O213 O 0.57156 0.39169 0.02794 0.0
O214 O 0.56083 0.38126 0.81901 0.0
O215 O 0.52347 0.5393 0.8462 0.0
O216 O 0.57186 0.47827 0.80921 0.0
O217 O 0.45614 0.47415 1.001 0.0
O218 O 0.45971 0.54335 0.98253 0.0
O219 O 0.53874 0.63139 0.99208 0.0
O220 O 0.51973 0.62938 0.18131 0.0
O221 O 0.57734 0.47913 0.15299 0.0
O222 O 0.52682 0.53912 0.19511 0.0
C223 C 0.66922 0.5081 0.0025 0.0
C224 C 0.54857 0.50877 0.76976 0.0
C225 C 0.5903 0.31976 0.88317 0.0
C226 C 0.58176 0.24423 0.88982 0.0
C227 C 0.6313 0.26349 0.72655 0.0
C228 C 0.62134 0.30638 0.77732 0.0
C229 C 0.61064 0.23275 0.77993 0.0
C230 C 0.57155 0.28845 0.94234 0.0
C231 C 0.57087 0.36426 0.9122 0.0
C232 C 0.33707 0.3314 0.77259 0.0
C233 C 0.34236 0.33736 0.65243 0.0
H234 H 0.33548 0.32834 0.01752 0.0
C235 C 0.42963 0.50822 0.98957 0.0
C236 C 0.55264 0.50915 0.23273 0.0
C237 C 0.50284 0.69674 0.13498 0.0
C238 C 0.50543 0.77195 0.12413 0.0
C239 C 0.45683 0.75098 0.28659 0.0
C240 C 0.47113 0.70907 0.23992 0.0
C241 C 0.47406 0.78196 0.2308 0.0
C242 C 0.51972 0.72847 0.07587 0.0
C243 C 0.52295 0.65238 0.10272 0.0
H244 H 0.65444 0.25382 0.64344 0.0
H245 H 0.63647 0.32908 0.73027 0.0
H246 H 0.61872 0.19962 0.73664 0.0
H247 H 0.54709 0.29784 0.02335 0.0
H248 H 0.43288 0.75976 0.36857 0.0
H249 H 0.45783 0.68628 0.28827 0.0
H250 H 0.46378 0.81448 0.27483 0.0
H251 H 0.54439 0.71948 0.99525 0.0
C252 C 0.99631 0.49704 0.52961 0.0
C253 C 1.04589 0.51406 0.62595 0.0
C254 C 0.99851 0.49347 0.3984 0.0
C255 C 1.05029 0.50695 0.35897 0.0
H256 H 0.95556 0.48626 0.55581 0.0
H257 H 0.95913 0.48064 0.32771 0.0
S258 S 0.19311 0.55155 0.57228 0.0
N259 N 0.14872 0.54317 0.67211 0.0
N260 N 0.153 0.53638 0.42615 0.0
C261 C 0.1003 0.52365 0.45425 0.0
C262 C 0.09798 0.52741 0.58762 0.0
C263 C 0.54105 0.96987 0.41561 0.0
C264 C 0.56431 0.00731 0.3924 0.0
C265 C 0.54644 0.96622 0.54217 0.0
C266 C 0.5748 1.00002 0.65192 0.0
H267 H 0.51916 0.94273 0.33495 0.0
H268 H 0.52804 0.93656 0.55399 0.0
S269 S 0.64211 0.10555 0.64584 0.0
N270 N 0.61614 0.07932 0.49135 0.0
N271 N 0.62607 0.07252 0.72831 0.0
C272 C 0.59832 0.03767 0.63022 0.0
C273 C 0.59286 0.04139 0.50118 0.0
C274 C 0.50767 0.5268 0.56941 0.0
C275 C 0.55123 0.50907 0.63364 0.0
C276 C 0.50828 0.52648 0.43999 0.0
C277 C 0.55272 0.50867 0.3695 0.0
H278 H 0.47218 0.5405 0.61881 0.0
H279 H 0.47338 0.54009 0.39454 0.0
S280 S 0.67946 0.46094 0.49611 0.0
N281 N 0.64168 0.47507 0.61878 0.0
N282 N 0.64288 0.47439 0.37625 0.0
C283 C 0.59698 0.4913 0.43318 0.0
C284 C 0.59634 0.49166 0.56498 0.0
C285 C 0.266 0.53294 0.92559 0.0
C286 C 0.23308 0.50782 0.98442 0.0
C287 C 0.3282 0.53285 0.9274 0.0
C288 C 0.36223 0.50786 0.98899 0.0
H289 H 0.24346 0.55294 0.87652 0.0
H290 H 0.34979 0.55257 0.87887 0.0
S291 S 0.3006 0.44289 0.18017 0.0
N292 N 0.2423 0.46103 0.11941 0.0
N293 N 0.35691 0.46171 0.12567 0.0
C294 C 0.33009 0.48407 0.05271 0.0
C295 C 0.26676 0.48386 0.04981 0.0
C296 C 0.92624 0.20976 0.0943 0.0
C297 C 0.8693 0.19676 0.11143 0.0
C298 C 0.93468 0.23316 0.00771 0.0
C299 C 0.88641 0.24383 0.93546 0.0
H300 H 0.96425 0.20094 0.14558 0.0
H301 H 0.97904 0.24225 0.99525 0.0
S302 S 0.72972 0.2218 0.95695 0.0
N303 N 0.76461 0.19996 0.0586 0.0
N304 N 0.78074 0.24283 0.89373 0.0
C305 C 0.8297 0.23222 0.95491 0.0
C306 C 0.82109 0.20901 0.04361 0.0
C307 C 0.50658 0.88106 0.05648 0.0
C308 C 0.56287 0.88886 0.02715 0.0
C309 C 0.48709 0.84189 0.07554 0.0
C310 C 0.52396 0.80874 0.07338 0.0
H311 H 0.47861 0.90635 0.07441 0.0
H312 H 0.44314 0.83861 0.09889 0.0
S313 S 0.67698 0.81271 1.00095 0.0
N314 N 0.65524 0.85886 0.99144 0.0
N315 N 0.62065 0.78708 0.03695 0.0
C316 C 0.58037 0.81571 0.04147 0.0
C317 C 0.59945 0.85526 0.01781 0.0
C318 C 0.83889 0.5472 0.06974 0.0
C319 C 0.86511 0.51222 0.99253 0.0
C320 C 0.77681 0.54596 0.07229 0.0
C321 C 0.7364 0.50948 0.99902 0.0
H322 H 0.86652 0.57612 0.12944 0.0
H323 H 0.76063 0.57387 0.13466 0.0
S324 S 0.78045 0.4085 0.78053 0.0
N325 N 0.84326 0.43944 0.84039 0.0
N326 N 0.72943 0.43713 0.84587 0.0
C327 C 0.76216 0.47426 0.92201 0.0
C328 C 0.8251 0.47563 0.91854 0.0
C329 C 0.22323 0.75846 0.99474 0.0
C330 C 0.26335 0.7273 0.98459 0.0
C331 C 0.22665 0.78907 0.92901 0.0
C332 C 0.27084 0.79015 0.8523 0.0
H333 H 0.19022 0.76047 0.05828 0.0
H334 H 0.19662 0.81359 0.94444 0.0
S335 S 0.38383 0.7143 0.78388 0.0
N336 N 0.34575 0.69756 0.88175 0.0
N337 N 0.35367 0.75659 0.7632 0.0
C338 C 0.31009 0.75857 0.83744 0.0
C339 C 0.30611 0.72689 0.90265 0.0
C340 C 0.52701 0.17134 0.85827 0.0
C341 C 0.56371 0.20807 0.94203 0.0
C342 C 0.5225 0.13171 0.88553 0.0
C343 C 0.55596 0.12621 0.99604 0.0
H344 H 0.50389 0.1726 0.76668 0.0
H345 H 0.49539 0.10437 0.81475 0.0
S346 S 0.65376 0.21294 0.25477 0.0
N347 N 0.62918 0.23701 0.14817 0.0
N348 N 0.6233 0.16241 0.19591 0.0
C349 C 0.59061 0.16313 0.08388 0.0
C350 C 0.59371 0.20393 0.05804 0.0
loop_
_geom_bond_atom_site_label_1
_geom_bond_atom_site_label_2
_geom_bond_distance
_geom_bond_site_symmetry_2
_ccdc_geom_bond_type
C0 C2 1.422 . S
C0 C4 1.415 . S
C0 N6 1.369 . S
C1 C2 1.421 . S
C1 C3 1.417 . S
C1 C13 1.422 1_556 S
C2 C0 1.422 . S
C2 C1 1.421 . S
C2 N12 1.359 . S
C3 C1 1.417 . S
C3 C5 1.329 . S
C3 H22 0.930 . S
C4 C0 1.415 . S
C4 C5 1.437 . S
C4 C8 1.413 . S
C5 C3 1.329 . S
C5 C4 1.437 . S
C5 H27 0.929 . S
N6 C0 1.369 . S
N6 C7 1.338 . S
N6 Gd11 2.622 1_455 S
C7 N6 1.338 . S
C7 C9 1.378 . S
C7 H19 0.929 1_455 S
C8 C4 1.413 . S
C8 C9 1.348 . S
C8 H24 0.931 . S
C9 C7 1.378 . S
C9 C8 1.348 . S
C9 H25 0.930 . S
Gd10 N30 2.622 1_455 S
Gd10 N37 2.570 1_455 S
Gd10 O44 2.353 . S
Gd10 O45 2.468 1_554 S
Gd10 O46 2.427 . S
Gd10 O48 2.388 . S
Gd10 O49 2.386 1_455 S
Gd10 O53 2.307 1_454 S
Gd10 C63 2.805 . S
Gd11 N6 2.622 1_655 S
Gd11 N12 2.570 1_655 S
Gd11 O43 2.386 1_655 S
Gd11 O47 2.307 1_656 S
Gd11 O50 2.353 . S
Gd11 O51 2.468 1_556 S
Gd11 O52 2.427 . S
Gd11 O54 2.388 . S
Gd11 C75 2.805 . S
N12 C2 1.359 . S
N12 Gd11 2.570 1_455 S
N12 C14 1.343 1_556 S
C13 C1 1.422 1_554 S
C13 C15 1.321 . S
C13 H21 0.931 . S
C14 N12 1.343 1_554 S
C14 C15 1.390 . S
C14 H16 0.931 . S
C15 C13 1.321 . S
C15 C14 1.390 . S
C15 H17 0.930 . S
H16 C14 0.931 . S
H17 C15 0.930 . S
H18 C41 0.931 . S
H19 C7 0.929 1_655 S
H20 C42 0.930 . S
H21 C13 0.931 . S
H22 C3 0.930 . S
H23 C32 0.929 1_455 S
H24 C8 0.931 . S
H25 C9 0.930 . S
H26 C64 0.930 . S
H27 C5 0.929 . S
H28 C33 0.931 . S
H29 C34 0.930 . S
N30 Gd10 2.622 1_655 S
N30 C31 1.369 . S
N30 C32 1.338 . S
C31 N30 1.369 . S
C31 C35 1.415 . S
C31 C38 1.422 . S
C32 H23 0.929 1_655 S
C32 N30 1.338 . S
C32 C34 1.378 . S
C33 H28 0.931 . S
C33 C34 1.348 . S
C33 C35 1.413 . S
C34 H29 0.930 . S
C34 C32 1.378 . S
C34 C33 1.348 . S
C35 C31 1.415 . S
C35 C33 1.413 . S
C35 C65 1.437 . S
H36 C65 0.929 . S
N37 Gd10 2.570 1_655 S
N37 C38 1.359 . S
N37 C41 1.343 1_554 S
C38 C31 1.422 . S
C38 N37 1.359 . S
C38 C40 1.421 . S
C39 C40 1.422 1_556 S
C39 C42 1.321 . S
C39 H66 0.931 . S
C40 C38 1.421 . S
C40 C39 1.422 1_554 S
C40 C64 1.417 . S
C41 H18 0.931 . S
C41 N37 1.343 1_556 S
C41 C42 1.390 . S
C42 H20 0.930 . S
C42 C39 1.321 . S
C42 C41 1.390 . S
O43 Gd11 2.386 1_455 S
O43 C55 1.265 1_556 S
O44 Gd10 2.353 . S
O44 C55 1.242 . S
O45 Gd10 2.468 1_556 S
O45 C63 1.263 1_556 S
O46 Gd10 2.427 . S
O46 C63 1.252 . S
O47 Gd11 2.307 1_454 S
O47 C56 1.261 . S
O48 Gd10 2.388 . S
O48 C56 1.252 . S
O49 Gd10 2.386 1_655 S
O49 C67 1.265 1_554 S
O50 Gd11 2.353 . S
O50 C67 1.242 . S
O51 Gd11 2.468 1_554 S
O51 C75 1.263 1_554 S
O52 Gd11 2.427 . S
O52 C75 1.252 . S
O53 Gd10 2.307 1_656 S
O53 C68 1.261 . S
O54 Gd11 2.388 . S
O54 C68 1.252 . S
C55 O43 1.265 1_554 S
C55 O44 1.242 . S
C56 O47 1.261 . S
C56 O48 1.252 . S
C57 C60 1.394 . S
C57 C62 1.370 . S
C57 C63 1.500 . S
C58 C61 1.383 . S
C58 C62 1.395 . S
C59 C60 1.396 . S
C59 C61 1.365 . S
C59 H76 0.929 . S
C60 C57 1.394 . S
C60 C59 1.396 . S
C60 H77 0.930 . S
C61 C58 1.383 . S
C61 C59 1.365 . S
C61 H78 0.931 . S
C62 C57 1.370 . S
C62 C58 1.395 . S
C62 H79 0.930 1_554 S
C63 Gd10 2.805 . S
C63 O45 1.263 1_554 S
C63 O46 1.252 . S
C63 C57 1.500 . S
C64 H26 0.930 . S
C64 C40 1.417 . S
C64 C65 1.329 . S
C65 C35 1.437 . S
C65 H36 0.929 . S
C65 C64 1.329 . S
H66 C39 0.931 . S
C67 O49 1.265 1_556 S
C67 O50 1.242 . S
C68 O53 1.261 . S
C68 O54 1.252 . S
C69 C72 1.394 . S
C69 C74 1.370 . S
C69 C75 1.500 . S
C70 C73 1.383 . S
C70 C74 1.395 . S
C71 C72 1.396 . S
C71 C73 1.365 . S
C71 H80 0.929 . S
C72 C69 1.394 . S
C72 C71 1.396 . S
C72 H81 0.930 . S
C73 C70 1.383 . S
C73 C71 1.365 . S
C73 H82 0.931 . S
C74 C69 1.370 . S
C74 C70 1.395 . S
C74 H83 0.930 1_556 S
C75 Gd11 2.805 . S
C75 O51 1.263 1_556 S
C75 O52 1.252 . S
C75 C69 1.500 . S
H76 C59 0.929 . S
H77 C60 0.930 . S
H78 C61 0.931 . S
H79 C62 0.930 1_556 S
H80 C71 0.929 . S
H81 C72 0.930 . S
H82 C73 0.931 . S
H83 C74 0.930 1_554 S
C84 C86 1.422 . S
C84 C88 1.415 . S
C84 N90 1.369 1_565 S
C85 C86 1.421 1_556 S
C85 C87 1.417 1_556 S
C85 C97 1.422 . S
C86 C84 1.422 . S
C86 C85 1.421 1_554 S
C86 N96 1.359 1_554 S
C87 C85 1.417 1_554 S
C87 C89 1.329 . S
C87 H106 0.930 . S
C88 C84 1.415 . S
C88 C89 1.437 . S
C88 C92 1.413 . S
C89 C87 1.329 . S
C89 C88 1.437 . S
C89 H111 0.929 . S
N90 C84 1.369 1_545 S
N90 C91 1.338 . S
N90 Gd95 2.622 . S
C91 N90 1.338 . S
C91 C93 1.378 . S
C91 H103 0.929 . S
C92 C88 1.413 . S
C92 C93 1.348 1_565 S
C92 H108 0.931 . S
C93 C91 1.378 . S
C93 C92 1.348 1_545 S
C93 H109 0.930 . S
Gd94 N114 2.622 . S
Gd94 N121 2.570 1_566 S
Gd94 O128 2.353 . S
Gd94 O129 2.468 1_556 S
Gd94 O130 2.427 . S
Gd94 O132 2.388 . S
Gd94 O133 2.386 1_565 S
Gd94 O137 2.307 1_566 S
Gd94 C147 2.805 . S
Gd95 N90 2.622 . S
Gd95 N96 2.570 1_544 S
Gd95 O127 2.386 1_545 S
Gd95 O131 2.307 1_544 S
Gd95 O134 2.353 . S
Gd95 O135 2.468 1_554 S
Gd95 O136 2.427 . S
Gd95 O138 2.388 . S
Gd95 C159 2.805 . S
N96 C86 1.359 1_556 S
N96 Gd95 2.570 1_566 S
N96 C98 1.343 . S
C97 C85 1.422 . S
C97 C99 1.321 . S
C97 H105 0.931 . S
C98 N96 1.343 . S
C98 C99 1.390 . S
C98 H100 0.931 . S
C99 C97 1.321 . S
C99 C98 1.390 . S
C99 H101 0.930 . S
H100 C98 0.931 . S
H101 C99 0.930 . S
H102 C125 0.931 . S
H103 C91 0.929 . S
H104 C126 0.930 . S
H105 C97 0.931 . S
H106 C87 0.930 . S
H107 C116 0.929 . S
H108 C92 0.931 . S
H109 C93 0.930 . S
H110 C148 0.930 . S
H111 C89 0.929 . S
H112 C117 0.931 . S
H113 C118 0.930 . S
N114 Gd94 2.622 . S
N114 C115 1.369 1_565 S
N114 C116 1.338 . S
C115 N114 1.369 1_545 S
C115 C119 1.415 . S
C115 C122 1.422 . S
C116 H107 0.929 . S
C116 N114 1.338 . S
C116 C118 1.378 . S
C117 H112 0.931 . S
C117 C118 1.348 1_545 S
C117 C119 1.413 . S
C118 H113 0.930 . S
C118 C116 1.378 . S
C118 C117 1.348 1_565 S
C119 C115 1.415 . S
C119 C117 1.413 . S
C119 C149 1.437 . S
H120 C149 0.929 . S
N121 Gd94 2.570 1_544 S
N121 C122 1.359 1_554 S
N121 C125 1.343 . S
C122 C115 1.422 . S
C122 N121 1.359 1_556 S
C122 C124 1.421 1_556 S
C123 C124 1.422 . S
C123 C126 1.321 . S
C123 H150 0.931 . S
C124 C122 1.421 1_554 S
C124 C123 1.422 . S
C124 C148 1.417 1_554 S
C125 H102 0.931 . S
C125 N121 1.343 . S
C125 C126 1.390 . S
C126 H104 0.930 . S
C126 C123 1.321 . S
C126 C125 1.390 . S
O127 Gd95 2.386 1_565 S
O127 C139 1.265 1_554 S
O128 Gd94 2.353 . S
O128 C139 1.242 . S
O129 Gd94 2.468 1_554 S
O129 C147 1.263 1_554 S
O130 Gd94 2.427 . S
O130 C147 1.252 . S
O131 Gd95 2.307 1_566 S
O131 C140 1.261 . S
O132 Gd94 2.388 . S
O132 C140 1.252 . S
O133 Gd94 2.386 1_545 S
O133 C151 1.265 1_556 S
O134 Gd95 2.353 . S
O134 C151 1.242 . S
O135 Gd95 2.468 1_556 S
O135 C159 1.263 1_556 S
O136 Gd95 2.427 . S
O136 C159 1.252 . S
O137 Gd94 2.307 1_544 S
O137 C152 1.261 . S
O138 Gd95 2.388 . S
O138 C152 1.252 . S
C139 O127 1.265 1_556 S
C139 O128 1.242 . S
C140 O131 1.261 . S
C140 O132 1.252 . S
C141 C144 1.394 . S
C141 C146 1.370 1_556 S
C141 C147 1.500 . S
C142 C145 1.383 1_554 S
C142 C146 1.395 . S
C143 C144 1.396 . S
C143 C145 1.365 . S
C143 H160 0.929 . S
C144 C141 1.394 . S
C144 C143 1.396 . S
C144 H161 0.930 . S
C145 C142 1.383 1_556 S
C145 C143 1.365 . S
C145 H162 0.931 . S
C146 C141 1.370 1_554 S
C146 C142 1.395 . S
C146 H163 0.930 . S
C147 Gd94 2.805 . S
C147 O129 1.263 1_556 S
C147 O130 1.252 . S
C147 C141 1.500 . S
C148 H110 0.930 . S
C148 C124 1.417 1_556 S
C148 C149 1.329 . S
C149 C119 1.437 . S
C149 H120 0.929 . S
C149 C148 1.329 . S
H150 C123 0.931 . S
C151 O133 1.265 1_554 S
C151 O134 1.242 . S
C152 O137 1.261 . S
C152 O138 1.252 . S
C153 C156 1.394 . S
C153 C158 1.370 1_554 S
C153 C159 1.500 . S
C154 C157 1.383 1_556 S
C154 C158 1.395 . S
C155 C156 1.396 . S
C155 C157 1.365 . S
C155 H164 0.929 . S
C156 C153 1.394 . S
C156 C155 1.396 . S
C156 H165 0.930 . S
C157 C154 1.383 1_554 S
C157 C155 1.365 . S
C157 H166 0.931 . S
C158 C153 1.370 1_556 S
C158 C154 1.395 . S
C158 H167 0.930 . S
C159 Gd95 2.805 . S
C159 O135 1.263 1_554 S
C159 O136 1.252 . S
C159 C153 1.500 . S
H160 C143 0.929 . S
H161 C144 0.930 . S
H162 C145 0.931 . S
H163 C146 0.930 . S
H164 C155 0.929 . S
H165 C156 0.930 . S
H166 C157 0.931 . S
H167 C158 0.930 . S
C168 C170 1.422 . S
C168 C172 1.415 . S
C168 N174 1.369 . S
C169 C170 1.421 . S
C169 C171 1.417 . S
C169 C181 1.422 1_554 S
C170 C168 1.422 . S
C170 C169 1.421 . S
C170 N180 1.359 . S
C171 C169 1.417 . S
C171 C173 1.329 . S
C171 H190 0.930 . S
C172 C168 1.415 . S
C172 C173 1.437 . S
C172 C176 1.413 . S
C173 C171 1.329 . S
C173 C172 1.437 . S
C173 H195 0.929 . S
N174 C168 1.369 . S
N174 C175 1.338 . S
N174 Gd179 2.622 . S
C175 N174 1.338 . S
C175 C177 1.378 . S
C175 H187 0.929 . S
C176 C172 1.413 . S
C176 C177 1.348 . S
C176 H192 0.931 . S
C177 C175 1.378 . S
C177 C176 1.348 . S
C177 H193 0.930 . S
Gd178 N198 2.622 . S
Gd178 N205 2.570 . S
Gd178 O212 2.353 . S
Gd178 O213 2.468 1_556 S
Gd178 O214 2.427 . S
Gd178 O216 2.388 . S
Gd178 O217 2.386 . S
Gd178 O221 2.307 1_556 S
Gd178 C231 2.805 . S
Gd179 N174 2.622 . S
Gd179 N180 2.570 . S
Gd179 O211 2.386 . S
Gd179 O215 2.307 1_554 S
Gd179 O218 2.353 . S
Gd179 O219 2.468 1_554 S
Gd179 O220 2.427 . S
Gd179 O222 2.388 . S
Gd179 C243 2.805 . S
N180 C170 1.359 . S
N180 Gd179 2.570 . S
N180 C182 1.343 1_554 S
C181 C169 1.422 1_556 S
C181 C183 1.321 . S
C181 H189 0.931 . S
C182 N180 1.343 1_556 S
C182 C183 1.390 . S
C182 H184 0.931 . S
C183 C181 1.321 . S
C183 C182 1.390 . S
C183 H185 0.930 . S
H184 C182 0.931 . S
H185 C183 0.930 . S
H186 C209 0.931 . S
H187 C175 0.929 . S
H188 C210 0.930 . S
H189 C181 0.931 . S
H190 C171 0.930 . S
H191 C200 0.929 . S
H192 C176 0.931 . S
H193 C177 0.930 . S
H194 C232 0.930 . S
H195 C173 0.929 . S
H196 C201 0.931 . S
H197 C202 0.930 . S
N198 Gd178 2.622 . S
N198 C199 1.369 . S
N198 C200 1.338 . S
C199 N198 1.369 . S
C199 C203 1.415 . S
C199 C206 1.422 . S
C200 H191 0.929 . S
C200 N198 1.338 . S
C200 C202 1.378 . S
C201 H196 0.931 . S
C201 C202 1.348 . S
C201 C203 1.413 . S
C202 H197 0.930 . S
C202 C200 1.378 . S
C202 C201 1.348 . S
C203 C199 1.415 . S
C203 C201 1.413 . S
C203 C233 1.437 . S
H204 C233 0.929 . S
N205 Gd178 2.570 . S
N205 C206 1.359 . S
N205 C209 1.343 1_556 S
C206 C199 1.422 . S
C206 N205 1.359 . S
C206 C208 1.421 . S
C207 C208 1.422 1_554 S
C207 C210 1.321 . S
C207 H234 0.931 . S
C208 C206 1.421 . S
C208 C207 1.422 1_556 S
C208 C232 1.417 . S
C209 H186 0.931 . S
C209 N205 1.343 1_554 S
C209 C210 1.390 . S
C210 H188 0.930 . S
C210 C207 1.321 . S
C210 C209 1.390 . S
O211 Gd179 2.386 . S
O211 C223 1.265 . S
O212 Gd178 2.353 . S
O212 C223 1.242 1_556 S
O213 Gd178 2.468 1_554 S
O213 C231 1.263 1_554 S
O214 Gd178 2.427 . S
O214 C231 1.252 . S
O215 Gd179 2.307 1_556 S
O215 C224 1.261 . S
O216 Gd178 2.388 . S
O216 C224 1.252 . S
O217 Gd178 2.386 . S
O217 C235 1.265 . S
O218 Gd179 2.353 . S
O218 C235 1.242 1_554 S
O219 Gd179 2.468 1_556 S
O219 C243 1.263 1_556 S
O220 Gd179 2.427 . S
O220 C243 1.252 . S
O221 Gd178 2.307 1_554 S
O221 C236 1.261 . S
O222 Gd179 2.388 . S
O222 C236 1.252 . S
C223 O211 1.265 . S
C223 O212 1.242 1_554 S
C224 O215 1.261 . S
C224 O216 1.252 . S
C225 C228 1.394 . S
C225 C230 1.368 1_556 S
C225 C231 1.500 . S
C226 C229 1.383 . S
C226 C230 1.396 1_556 S
C227 C228 1.396 . S
C227 C229 1.365 . S
C227 H244 0.929 . S
C228 C225 1.394 . S
C228 C227 1.396 . S
C228 H245 0.930 . S
C229 C226 1.383 . S
C229 C227 1.365 . S
C229 H246 0.931 . S
C230 C225 1.368 1_554 S
C230 C226 1.396 1_554 S
C230 H247 0.932 . S
C231 Gd178 2.805 . S
C231 O213 1.263 1_556 S
C231 O214 1.252 . S
C231 C225 1.500 . S
C232 H194 0.930 . S
C232 C208 1.417 . S
C232 C233 1.329 . S
C233 C203 1.437 . S
C233 H204 0.929 . S
C233 C232 1.329 . S
H234 C207 0.931 . S
C235 O217 1.265 . S
C235 O218 1.242 1_556 S
C236 O221 1.261 . S
C236 O222 1.252 . S
C237 C240 1.394 . S
C237 C242 1.370 1_554 S
C237 C243 1.500 . S
C238 C241 1.383 . S
C238 C242 1.395 1_554 S
C239 C240 1.396 . S
C239 C241 1.365 . S
C239 H248 0.929 . S
C240 C237 1.394 . S
C240 C239 1.396 . S
C240 H249 0.930 . S
C241 C238 1.383 . S
C241 C239 1.365 . S
C241 H250 0.931 . S
C242 C237 1.370 1_556 S
C242 C238 1.395 1_556 S
C242 H251 0.930 . S
C243 Gd179 2.805 . S
C243 O219 1.263 1_554 S
C243 O220 1.252 . S
C243 C237 1.500 . S
H244 C227 0.929 . S
H245 C228 0.930 . S
H246 C229 0.931 . S
H247 C230 0.932 . S
H248 C239 0.929 . S
H249 C240 0.930 . S
H250 C241 0.931 . S
H251 C242 0.930 . S
C252 C253 1.369 . S
C252 C254 1.419 . S
C252 H256 0.930 . S
C253 C252 1.369 . S
C253 C262 1.429 1_655 S
C254 C252 1.419 . S
C254 C255 1.363 1_655 S
C254 H257 0.929 . S
C255 C254 1.363 1_455 S
C255 C261 1.428 . S
H256 C252 0.930 . S
H257 C254 0.929 . S
S258 N259 1.613 . S
S258 N260 1.610 . S
N259 S258 1.613 . S
N259 C262 1.350 . S
N260 S258 1.610 . S
N260 C261 1.351 . S
C261 C255 1.428 . S
C261 N260 1.351 . S
C261 C262 1.434 . S
C262 C253 1.429 1_455 S
C262 N259 1.350 . S
C262 C261 1.434 . S
C263 C264 1.369 1_565 S
C263 C265 1.419 . S
C263 H267 0.930 . S
C264 C263 1.369 1_545 S
C264 C273 1.429 . S
C265 C263 1.419 . S
C265 C266 1.363 . S
C265 H268 0.929 . S
C266 C265 1.363 . S
C266 C272 1.428 1_565 S
H267 C263 0.930 . S
H268 C265 0.929 . S
S269 N270 1.613 . S
S269 N271 1.610 . S
N270 S269 1.613 . S
N270 C273 1.350 . S
N271 S269 1.610 . S
N271 C272 1.351 . S
C272 C266 1.428 1_545 S
C272 N271 1.351 . S
C272 C273 1.434 . S
C273 C264 1.429 . S
C273 N270 1.350 . S
C273 C272 1.434 . S
C274 C275 1.369 . S
C274 C276 1.419 . S
C274 H278 0.930 . S
C275 C274 1.369 . S
C275 C284 1.429 . S
C276 C274 1.419 . S
C276 C277 1.363 . S
C276 H279 0.929 . S
C277 C276 1.363 . S
C277 C283 1.428 . S
H278 C274 0.930 . S
H279 C276 0.929 . S
S280 N281 1.613 . S
S280 N282 1.610 . S
N281 S280 1.613 . S
N281 C284 1.350 . S
N282 S280 1.610 . S
N282 C283 1.351 . S
C283 C277 1.428 . S
C283 N282 1.351 . S
C283 C284 1.434 . S
C284 C275 1.429 . S
C284 N281 1.350 . S
C284 C283 1.434 . S
C285 C286 1.369 1_556 S
C285 C287 1.419 . S
C285 H289 0.930 . S
C286 C285 1.369 1_554 S
C286 C295 1.429 . S
C287 C285 1.419 . S
C287 C288 1.363 . S
C287 H290 0.929 . S
C288 C287 1.363 . S
C288 C294 1.428 1_556 S
H289 C285 0.930 . S
H290 C287 0.929 . S
S291 N292 1.613 . S
S291 N293 1.610 . S
N292 S291 1.613 . S
N292 C295 1.350 . S
N293 S291 1.610 . S
N293 C294 1.351 . S
C294 C288 1.428 1_554 S
C294 N293 1.351 . S
C294 C295 1.434 . S
C295 C286 1.429 . S
C295 N292 1.350 . S
C295 C294 1.434 . S
C296 C297 1.369 . S
C296 C298 1.419 1_556 S
C296 H300 0.930 1_556 S
C297 C296 1.369 . S
C297 C306 1.429 . S
C298 C296 1.419 1_554 S
C298 C299 1.363 . S
C298 H301 0.929 . S
C299 C298 1.363 . S
C299 C305 1.428 1_554 S
H300 C296 0.930 1_554 S
H301 C298 0.929 . S
S302 N303 1.613 . S
S302 N304 1.610 . S
N303 S302 1.613 . S
N303 C306 1.350 . S
N304 S302 1.610 . S
N304 C305 1.351 . S
C305 C299 1.428 1_556 S
C305 N304 1.351 . S
C305 C306 1.434 . S
C306 C297 1.429 . S
C306 N303 1.350 . S
C306 C305 1.434 . S
C307 C308 1.369 1_554 S
C307 C309 1.419 . S
C307 H311 0.930 . S
C308 C307 1.369 1_556 S
C308 C317 1.429 . S
C309 C307 1.419 . S
C309 C310 1.363 1_554 S
C309 H312 0.929 . S
C310 C309 1.363 1_556 S
C310 C316 1.428 . S
H311 C307 0.930 . S
H312 C309 0.929 . S
S313 N314 1.613 . S
S313 N315 1.610 . S
N314 S313 1.613 . S
N314 C317 1.350 . S
N315 S313 1.610 . S
N315 C316 1.351 . S
C316 C310 1.428 . S
C316 N315 1.351 . S
C316 C317 1.434 . S
C317 C308 1.429 . S
C317 N314 1.350 . S
C317 C316 1.434 . S
C318 C319 1.369 1_554 S
C318 C320 1.419 . S
C318 H322 0.930 . S
C319 C318 1.369 1_556 S
C319 C328 1.429 . S
C320 C318 1.419 . S
C320 C321 1.363 . S
C320 H323 0.929 . S
C321 C320 1.363 . S
C321 C327 1.428 1_554 S
H322 C318 0.930 . S
H323 C320 0.929 . S
S324 N325 1.613 . S
S324 N326 1.610 . S
N325 S324 1.613 . S
N325 C328 1.350 . S
N326 S324 1.610 . S
N326 C327 1.351 . S
C327 C321 1.428 1_556 S
C327 N326 1.351 . S
C327 C328 1.434 . S
C328 C319 1.429 . S
C328 N325 1.350 . S
C328 C327 1.434 . S
C329 C330 1.369 1_554 S
C329 C331 1.419 . S
C329 H333 0.930 . S
C330 C329 1.369 1_556 S
C330 C339 1.429 . S
C331 C329 1.419 . S
C331 C332 1.363 . S
C331 H334 0.929 . S
C332 C331 1.363 . S
C332 C338 1.428 1_554 S
H333 C329 0.930 . S
H334 C331 0.929 . S
S335 N336 1.613 . S
S335 N337 1.610 . S
N336 S335 1.613 . S
N336 C339 1.350 . S
N337 S335 1.610 . S
N337 C338 1.351 . S
C338 C332 1.428 1_556 S
C338 N337 1.351 . S
C338 C339 1.434 . S
C339 C330 1.429 . S
C339 N336 1.350 . S
C339 C338 1.434 . S
C340 C341 1.369 . S
C340 C342 1.419 . S
C340 H344 0.930 . S
C341 C340 1.369 . S
C341 C350 1.429 . S
C342 C340 1.419 . S
C342 C343 1.363 . S
C342 H345 0.929 . S
C343 C342 1.363 . S
C343 C349 1.428 . S
H344 C340 0.930 . S
H345 C342 0.929 . S
S346 N347 1.613 . S
S346 N348 1.610 . S
N347 S346 1.613 . S
N347 C350 1.350 . S
N348 S346 1.610 . S
N348 C349 1.351 . S
C349 C343 1.428 . S
C349 N348 1.351 . S
C349 C350 1.434 . S
C350 C341 1.429 . S
C350 N347 1.350 . S
C350 C349 1.434 . S
C253 C68 1.490 . S
C255 C56 1.486 . S
C264 C152 1.535 . S
C266 C140 1.533 . S
C275 C224 1.473 . S
C277 C236 1.475 . S
C286 C55 2.373 . S
C288 C235 2.386 . S
C297 C154 0.846 . S
C299 C70 0.833 1_554 S
C308 C139 1.791 . S
C310 C238 1.682 1_556 S
C319 C67 2.373 . S
C321 C223 2.391 . S
C330 C58 0.851 1_556 S
C332 C142 0.830 . S
C341 C226 1.678 1_554 S
C343 C151 1.780 . S
