# Generated by pormake.
# Topology wla, (5)-cn, num edge types: 1
# Building blocks:
#     Node 0, Type 0, BuildingBlock: BEQFEK_clean_sbu_0, # of connection points: 5
#     Node 1, Type 0, BuildingBlock: BEQFEK_clean_sbu_0, # of connection points: 5
#     Node 2, Type 0, BuildingBlock: BEQFEK_clean_sbu_0, # of connection points: 5
#     Node 3, Type 0, BuildingBlock: BEQFEK_clean_sbu_0, # of connection points: 5
#     Node 4, Type 0, BuildingBlock: BEQFEK_clean_sbu_0, # of connection points: 5
#     Node 5, Type 0, BuildingBlock: BEQFEK_clean_sbu_0, # of connection points: 5
#     Node 6, Type 0, BuildingBlock: BEQFEK_clean_sbu_0, # of connection points: 5
#     Node 7, Type 0, BuildingBlock: BEQFEK_clean_sbu_0, # of connection points: 5
#     Node 8, Type 0, BuildingBlock: BEQFEK_clean_sbu_0, # of connection points: 5
#     Node 9, Type 0, BuildingBlock: BEQFEK_clean_sbu_0, # of connection points: 5
#     Node 10, Type 0, BuildingBlock: BEQFEK_clean_sbu_0, # of connection points: 5
#     Node 11, Type 0, BuildingBlock: BEQFEK_clean_sbu_0, # of connection points: 5
#     Node 12, Type 0, BuildingBlock: BEQFEK_clean_sbu_0, # of connection points: 5
#     Node 13, Type 0, BuildingBlock: BEQFEK_clean_sbu_0, # of connection points: 5
#     Node 14, Type 0, BuildingBlock: BEQFEK_clean_sbu_0, # of connection points: 5
#     Node 15, Type 0, BuildingBlock: BEQFEK_clean_sbu_0, # of connection points: 5
#     Node 16, Type 0, BuildingBlock: BEQFEK_clean_sbu_0, # of connection points: 5
#     Node 17, Type 0, BuildingBlock: BEQFEK_clean_sbu_0, # of connection points: 5
#     Edge 18, Type (0, 0), BuildingBlock: ZUJKAS_clean_linker_0, # of connection points: 2
#     Edge 19, Type (0, 0), BuildingBlock: ZUJKAS_clean_linker_0, # of connection points: 2
#     Edge 20, Type (0, 0), BuildingBlock: ZUJKAS_clean_linker_0, # of connection points: 2
#     Edge 21, Type (0, 0), BuildingBlock: ZUJKAS_clean_linker_0, # of connection points: 2
#     Edge 22, Type (0, 0), BuildingBlock: ZUJKAS_clean_linker_0, # of connection points: 2
#     Edge 23, Type (0, 0), BuildingBlock: ZUJKAS_clean_linker_0, # of connection points: 2
#     Edge 24, Type (0, 0), BuildingBlock: ZUJKAS_clean_linker_0, # of connection points: 2
#     Edge 25, Type (0, 0), BuildingBlock: ZUJKAS_clean_linker_0, # of connection points: 2
#     Edge 26, Type (0, 0), BuildingBlock: ZUJKAS_clean_linker_0, # of connection points: 2
#     Edge 27, Type (0, 0), BuildingBlock: ZUJKAS_clean_linker_0, # of connection points: 2
#     Edge 28, Type (0, 0), BuildingBlock: ZUJKAS_clean_linker_0, # of connection points: 2
#     Edge 29, Type (0, 0), BuildingBlock: ZUJKAS_clean_linker_0, # of connection points: 2
#     Edge 30, Type (0, 0), BuildingBlock: ZUJKAS_clean_linker_0, # of connection points: 2
#     Edge 31, Type (0, 0), BuildingBlock: ZUJKAS_clean_linker_0, # of connection points: 2
#     Edge 32, Type (0, 0), BuildingBlock: ZUJKAS_clean_linker_0, # of connection points: 2
#     Edge 33, Type (0, 0), BuildingBlock: ZUJKAS_clean_linker_0, # of connection points: 2
#     Edge 34, Type (0, 0), BuildingBlock: ZUJKAS_clean_linker_0, # of connection points: 2
#     Edge 35, Type (0, 0), BuildingBlock: ZUJKAS_clean_linker_0, # of connection points: 2
#     Edge 36, Type (0, 0), BuildingBlock: ZUJKAS_clean_linker_0, # of connection points: 2
#     Edge 37, Type (0, 0), BuildingBlock: ZUJKAS_clean_linker_0, # of connection points: 2
#     Edge 38, Type (0, 0), BuildingBlock: ZUJKAS_clean_linker_0, # of connection points: 2
#     Edge 39, Type (0, 0), BuildingBlock: ZUJKAS_clean_linker_0, # of connection points: 2
#     Edge 40, Type (0, 0), BuildingBlock: ZUJKAS_clean_linker_0, # of connection points: 2
#     Edge 41, Type (0, 0), BuildingBlock: ZUJKAS_clean_linker_0, # of connection points: 2
#     Edge 42, Type (0, 0), BuildingBlock: ZUJKAS_clean_linker_0, # of connection points: 2
#     Edge 43, Type (0, 0), BuildingBlock: ZUJKAS_clean_linker_0, # of connection points: 2
#     Edge 44, Type (0, 0), BuildingBlock: ZUJKAS_clean_linker_0, # of connection points: 2
#     Edge 45, Type (0, 0), BuildingBlock: ZUJKAS_clean_linker_0, # of connection points: 2
#     Edge 46, Type (0, 0), BuildingBlock: ZUJKAS_clean_linker_0, # of connection points: 2
#     Edge 47, Type (0, 0), BuildingBlock: ZUJKAS_clean_linker_0, # of connection points: 2
#     Edge 48, Type (0, 0), BuildingBlock: ZUJKAS_clean_linker_0, # of connection points: 2
#     Edge 49, Type (0, 0), BuildingBlock: ZUJKAS_clean_linker_0, # of connection points: 2
#     Edge 50, Type (0, 0), BuildingBlock: ZUJKAS_clean_linker_0, # of connection points: 2
#     Edge 51, Type (0, 0), BuildingBlock: ZUJKAS_clean_linker_0, # of connection points: 2
#     Edge 52, Type (0, 0), BuildingBlock: ZUJKAS_clean_linker_0, # of connection points: 2
#     Edge 53, Type (0, 0), BuildingBlock: ZUJKAS_clean_linker_0, # of connection points: 2
#     Edge 54, Type (0, 0), BuildingBlock: ZUJKAS_clean_linker_0, # of connection points: 2
#     Edge 55, Type (0, 0), BuildingBlock: ZUJKAS_clean_linker_0, # of connection points: 2
#     Edge 56, Type (0, 0), BuildingBlock: ZUJKAS_clean_linker_0, # of connection points: 2
#     Edge 57, Type (0, 0), BuildingBlock: ZUJKAS_clean_linker_0, # of connection points: 2
#     Edge 58, Type (0, 0), BuildingBlock: ZUJKAS_clean_linker_0, # of connection points: 2
#     Edge 59, Type (0, 0), BuildingBlock: ZUJKAS_clean_linker_0, # of connection points: 2
#     Edge 60, Type (0, 0), BuildingBlock: ZUJKAS_clean_linker_0, # of connection points: 2
#     Edge 61, Type (0, 0), BuildingBlock: ZUJKAS_clean_linker_0, # of connection points: 2
#     Edge 62, Type (0, 0), BuildingBlock: ZUJKAS_clean_linker_0, # of connection points: 2
# Relax obj value: 0.271
# Max RMSD: 0.180
# Mean RMSD: 0.180
data_MOF--net-wla--node1-BEQFEK_clean_sbu_0--edge1-ZUJKAS_clean_linker_0
_symmetry_space_group_name_H-M    P1
_symmetry_Int_Tables_number       1
_symmetry_cell_setting            triclinic
loop_
_symmetry_equiv_pos_as_xyz
'x, y, z'
_cell_length_a     78.119975
_cell_length_b     78.112788
_cell_length_c     38.759803
_cell_angle_alpha  89.971091
_cell_angle_beta   90.025851
_cell_angle_gamma 120.0086
loop_
_atom_site_label
_atom_site_type_symbol
_atom_site_fract_x
_atom_site_fract_y
_atom_site_fract_z
_atom_type_partial_charge
Co0 Co 0.14608 0.01179 0.28763 0.0
Co1 Co 0.18761 0.04957 0.27887 0.0
C2 C 0.17925 0.02111 0.33672 0.0
O3 O 0.16147 0.01028 0.32671 0.0
O4 O 0.19115 0.03677 0.32046 0.0
C5 C 0.11533 0.97177 0.30362 0.0
O6 O 0.12847 0.97115 0.32394 0.0
C7 C 0.22999 0.07277 0.26254 0.0
C8 C 0.23286 0.10146 0.24798 0.0
C9 C 0.24333 0.09151 0.25029 0.0
N10 N 0.21236 0.07163 0.26648 0.0
N11 N 0.21425 0.0889 0.25819 0.0
C12 C 0.23394 0.05636 0.27114 0.0
H13 H 0.22444 0.04741 0.2928 0.0
H14 H 0.23041 0.04646 0.24854 0.0
H15 H 0.2497 0.06231 0.27809 0.0
C16 C 0.1533 0.00612 0.21493 0.0
N17 N 0.15951 0.01564 0.24529 0.0
N18 N 0.17674 0.03179 0.24099 0.0
C19 C 0.18188 0.03323 0.20743 0.0
C20 C 0.16725 0.01697 0.18989 0.0
C21 C 0.13323 0.9885 0.2094 0.0
H22 H 0.12181 0.99235 0.21658 0.0
H23 H 0.13137 0.97633 0.22659 0.0
H24 H 0.1309 0.98337 0.18224 0.0
O25 O 0.14053 0.03364 0.29503 0.0
O26 O 0.17012 0.06036 0.28972 0.0
H27 H 0.19961 0.06436 0.19835 0.0
H28 H 0.20027 0.04926 0.16355 0.0
C29 C 0.19967 0.05056 0.19194 0.0
H30 H 0.21319 0.05155 0.20297 0.0
H31 H 0.20269 0.09198 0.25869 0.0
O32 O 0.12009 0.98727 0.2861 0.0
C33 C 0.15163 0.05236 0.29514 0.0
Co34 Co 0.00104 0.1439 0.27249 0.0
Co35 Co 0.96201 0.14573 0.26727 0.0
C36 C 0.99276 0.16824 0.3212 0.0
O37 O 0.00424 0.16242 0.30975 0.0
O38 O 0.97589 0.16248 0.30776 0.0
C39 C 0.03962 0.15008 0.28997 0.0
O40 O 0.03895 0.1611 0.31491 0.0
C41 C 0.93974 0.16558 0.25107 0.0
C42 C 0.90946 0.1403 0.24463 0.0
C43 C 0.9206 0.16071 0.24226 0.0
N44 N 0.9399 0.14877 0.25757 0.0
N45 N 0.92173 0.13373 0.2541 0.0
C46 C 0.95751 0.18579 0.25449 0.0
H47 H 0.96793 0.18571 0.27379 0.0
H48 H 0.96539 0.1904 0.22946 0.0
H49 H 0.9531 0.19673 0.26214 0.0
C50 C 0.00432 0.15619 0.19961 0.0
N51 N 0.99533 0.15223 0.23054 0.0
N52 N 0.97864 0.15245 0.22778 0.0
C53 C 0.97623 0.15604 0.19461 0.0
C54 C 0.99253 0.15878 0.17582 0.0
C55 C 0.0235 0.15684 0.19301 0.0
H56 H 0.03414 0.16526 0.21388 0.0
H57 H 0.02991 0.16381 0.16778 0.0
H58 H 0.02099 0.14155 0.19329 0.0
O59 O 0.97953 0.11657 0.28344 0.0
O60 O 0.95186 0.11777 0.27856 0.0
H61 H 0.94451 0.14172 0.19359 0.0
H62 H 0.95602 0.15008 0.15208 0.0
C63 C 0.95741 0.1537 0.17999 0.0
H64 H 0.95723 0.1677 0.18313 0.0
H65 H 0.9178 0.11894 0.25741 0.0
O66 O 0.0254 0.14209 0.26858 0.0
C67 C 0.96074 0.10816 0.28444 0.0
Co68 Co 0.87435 0.86488 0.2771 0.0
Co69 Co 0.8685 0.82234 0.27144 0.0
C70 C 0.84737 0.83285 0.32475 0.0
O71 O 0.85477 0.85047 0.31366 0.0
O72 O 0.85181 0.82074 0.31124 0.0
C73 C 0.86832 0.89809 0.28876 0.0
O74 O 0.85334 0.88578 0.30801 0.0
C75 C 0.8456 0.78001 0.25705 0.0
C76 C 0.86906 0.77322 0.24365 0.0
C77 C 0.84873 0.76502 0.24536 0.0
N78 N 0.86326 0.79643 0.26107 0.0
N79 N 0.87724 0.79221 0.25362 0.0
C80 C 0.82625 0.77886 0.26472 0.0
H81 H 0.82742 0.78705 0.28872 0.0
H82 H 0.82245 0.78589 0.24348 0.0
H83 H 0.81421 0.76332 0.26783 0.0
C84 C 0.86372 0.85779 0.20337 0.0
N85 N 0.86596 0.85156 0.23454 0.0
N86 N 0.86384 0.83382 0.23163 0.0
C87 C 0.86049 0.82831 0.19819 0.0
C88 C 0.86022 0.84328 0.17926 0.0
C89 C 0.86718 0.87815 0.19654 0.0
H90 H 0.8824 0.88919 0.20468 0.0
H91 H 0.85675 0.88062 0.21228 0.0
H92 H 0.86529 0.88047 0.16889 0.0
O93 O 0.90043 0.86805 0.28961 0.0
O94 O 0.89658 0.83802 0.28457 0.0
H95 H 0.87137 0.80816 0.19251 0.0
H96 H 0.85728 0.80868 0.15585 0.0
C97 C 0.85848 0.80949 0.18436 0.0
H98 H 0.84494 0.7968 0.19502 0.0
H99 H 0.89235 0.80246 0.25423 0.0
O100 O 0.87857 0.89197 0.27321 0.0
C101 C 0.90735 0.85635 0.29121 0.0
Co102 Co 0.01089 0.14951 0.71145 0.0
Co103 Co 0.04911 0.18979 0.72666 0.0
C104 C 0.02352 0.18417 0.66507 0.0
O105 O 0.01122 0.16635 0.67315 0.0
O106 O 0.03879 0.19466 0.68335 0.0
C107 C 0.97457 0.11712 0.68439 0.0
O108 O 0.97826 0.12833 0.65699 0.0
C109 C 0.07095 0.23129 0.74762 0.0
C110 C 0.10022 0.23506 0.76045 0.0
C111 C 0.08958 0.24489 0.75988 0.0
N112 N 0.07057 0.21416 0.74179 0.0
N113 N 0.08813 0.21654 0.74927 0.0
C114 C 0.05405 0.23464 0.73999 0.0
H115 H 0.04412 0.22403 0.72034 0.0
H116 H 0.04527 0.23233 0.76376 0.0
H117 H 0.05958 0.25 0.73089 0.0
C118 C 0.00151 0.15569 0.78258 0.0
N119 N 0.01308 0.16187 0.75436 0.0
N120 N 0.0294 0.17851 0.76141 0.0
C121 C 0.02894 0.1832 0.79474 0.0
C122 C 0.01114 0.16904 0.80908 0.0
C123 C 0.98194 0.13702 0.78425 0.0
H124 H 0.98436 0.12417 0.784 0.0
H125 H 0.97304 0.13594 0.76119 0.0
H126 H 0.97364 0.13643 0.80787 0.0
O127 O 0.03276 0.14363 0.70603 0.0
O128 O 0.05978 0.17221 0.71725 0.0
H129 H 0.06021 0.20034 0.80409 0.0
H130 H 0.04525 0.19579 0.842 0.0
C131 C 0.0463 0.19902 0.81396 0.0
H132 H 0.04682 0.21334 0.81041 0.0
H133 H 0.0918 0.20543 0.74711 0.0
O134 O 0.98626 0.1236 0.71002 0.0
C135 C 0.05147 0.15401 0.70926 0.0
Co136 Co 0.8638 0.87352 0.71335 0.0
Co137 Co 0.82343 0.87148 0.7267 0.0
C138 C 0.82856 0.8488 0.66924 0.0
O139 O 0.84654 0.85511 0.67725 0.0
O140 O 0.81797 0.854 0.68623 0.0
C141 C 0.89531 0.8667 0.69055 0.0
O142 O 0.88311 0.8559 0.66596 0.0
C143 C 0.78215 0.85209 0.74687 0.0
C144 C 0.77839 0.87733 0.76172 0.0
C145 C 0.76856 0.85684 0.7602 0.0
N146 N 0.79916 0.86895 0.74115 0.0
N147 N 0.79677 0.88401 0.74954 0.0
C148 C 0.77999 0.83203 0.74293 0.0
H149 H 0.79473 0.83316 0.74215 0.0
H150 H 0.77118 0.8222 0.76448 0.0
H151 H 0.77226 0.82538 0.71832 0.0
C152 C 0.85915 0.8623 0.78695 0.0
N153 N 0.85224 0.8657 0.75745 0.0
N154 N 0.8355 0.86533 0.76366 0.0
C155 C 0.8314 0.86202 0.79763 0.0
C156 C 0.84619 0.85989 0.81342 0.0
C157 C 0.87883 0.86353 0.79011 0.0
H158 H 0.89061 0.87852 0.78233 0.0
H159 H 0.87941 0.85276 0.77219 0.0
H160 H 0.88175 0.86054 0.8168 0.0
O161 O 0.86927 0.90073 0.70307 0.0
O162 O 0.84051 0.89918 0.71243 0.0
H163 H 0.81327 0.87491 0.80742 0.0
H164 H 0.81475 0.86091 0.84334 0.0
C165 C 0.81404 0.86161 0.81486 0.0
H166 H 0.80031 0.84836 0.80618 0.0
H167 H 0.80789 0.89882 0.74799 0.0
O168 O 0.88971 0.87483 0.71279 0.0
C169 C 0.85863 0.90886 0.70375 0.0
Co170 Co 0.13767 -0.00131 0.72411 0.0
Co171 Co 0.1415 0.96093 0.73159 0.0
C172 C 0.16382 0.99103 0.67737 0.0
O173 O 0.1563 0.00141 0.68711 0.0
O174 O 0.15962 0.97493 0.69254 0.0
C175 C 0.14479 0.03781 0.70686 0.0
O176 O 0.15702 0.03793 0.6835 0.0
C177 C 0.15984 0.9369 0.74534 0.0
C178 C 0.13412 0.90883 0.76269 0.0
C179 C 0.15438 0.91817 0.75765 0.0
N180 N 0.14355 0.93852 0.74346 0.0
N181 N 0.12819 0.92164 0.75341 0.0
C182 C 0.18027 0.95373 0.73883 0.0
H183 H 0.18062 0.96806 0.74123 0.0
H184 H 0.19096 0.9533 0.75719 0.0
H185 H 0.18478 0.95253 0.71221 0.0
C186 C 0.14816 0.00246 0.79804 0.0
N187 N 0.14548 0.99357 0.76717 0.0
N188 N 0.147 0.97763 0.7707 0.0
C189 C 0.15064 0.97582 0.80413 0.0
C190 C 0.15148 0.99148 0.82254 0.0
C191 C 0.14538 0.01983 0.80422 0.0
H192 H 0.13056 0.01632 0.79485 0.0
H193 H 0.15655 0.03265 0.78913 0.0
H194 H 0.14674 0.02386 0.83191 0.0
O195 O 0.11085 0.9771 0.71247 0.0
O196 O 0.11378 0.9504 0.71683 0.0
H197 H 0.13899 0.94499 0.8139 0.0
H198 H 0.15632 0.96099 0.84626 0.0
C199 C 0.15284 0.95919 0.81831 0.0
H200 H 0.16499 0.95866 0.80463 0.0
H201 H 0.11374 0.91905 0.75478 0.0
O202 O 0.13577 0.02296 0.72667 0.0
C203 C 0.10345 0.95846 0.71042 0.0
Co204 Co 0.81314 0.35301 0.61789 0.0
Co205 Co 0.85458 0.39002 0.60518 0.0
C206 C 0.84833 0.3604 0.65975 0.0
O207 O 0.83017 0.34982 0.65172 0.0
O208 O 0.85959 0.37657 0.64419 0.0
C209 C 0.78301 0.31187 0.62606 0.0
O210 O 0.79773 0.30836 0.62899 0.0
C211 C 0.89592 0.41142 0.58388 0.0
C212 C 0.8999 0.44067 0.57019 0.0
C213 C 0.90953 0.42981 0.57063 0.0
N214 N 0.87908 0.41145 0.59053 0.0
N215 N 0.88162 0.42904 0.58282 0.0
C216 C 0.8979 0.39338 0.58697 0.0
H217 H 0.8831 0.37985 0.58794 0.0
H218 H 0.90645 0.3924 0.56495 0.0
H219 H 0.90585 0.39425 0.61122 0.0
C220 C 0.81631 0.34743 0.54311 0.0
N221 N 0.82389 0.35694 0.5731 0.0
N222 N 0.84126 0.37267 0.56735 0.0
C223 C 0.84516 0.3738 0.53324 0.0
C224 C 0.82953 0.3578 0.51685 0.0
C225 C 0.79602 0.32987 0.53947 0.0
H226 H 0.78517 0.33284 0.55263 0.0
H227 H 0.79561 0.31697 0.55228 0.0
H228 H 0.7917 0.32622 0.51203 0.0
O229 O 0.80944 0.37551 0.63078 0.0
O230 O 0.83892 0.4018 0.62179 0.0
H231 H 0.86508 0.40457 0.52397 0.0
H232 H 0.86284 0.3888 0.48806 0.0
C233 C 0.86331 0.39007 0.51655 0.0
H234 H 0.8764 0.38945 0.52571 0.0
H235 H 0.87066 0.4329 0.58513 0.0
O236 O 0.78661 0.32938 0.62036 0.0
C237 C 0.82096 0.39416 0.63102 0.0
Co238 Co 0.67016 0.47951 0.60848 0.0
Co239 Co 0.63015 0.47776 0.59244 0.0
C240 C 0.65523 0.50054 0.65261 0.0
O241 O 0.66839 0.49605 0.64534 0.0
O242 O 0.63971 0.49433 0.63434 0.0
C243 C 0.70718 0.48668 0.63742 0.0
O244 O 0.70208 0.49349 0.66412 0.0
C245 C 0.6064 0.49486 0.57126 0.0
C246 C 0.57839 0.46868 0.55511 0.0
C247 C 0.58794 0.48913 0.55736 0.0
N248 N 0.60766 0.47858 0.57678 0.0
N249 N 0.59082 0.46295 0.56752 0.0
C250 C 0.62338 0.5154 0.57627 0.0
H251 H 0.63755 0.51534 0.57703 0.0
H252 H 0.62384 0.52528 0.55527 0.0
H253 H 0.62157 0.52125 0.60124 0.0
C254 C 0.6782 0.49349 0.53618 0.0
N255 N 0.66678 0.48791 0.56462 0.0
N256 N 0.64979 0.48679 0.5574 0.0
C257 C 0.64977 0.49141 0.52389 0.0
C258 C 0.66783 0.49599 0.50946 0.0
C259 C 0.69839 0.49582 0.53462 0.0
H260 H 0.70723 0.50465 0.55702 0.0
H261 H 0.70615 0.50317 0.51039 0.0
H262 H 0.69707 0.48102 0.53632 0.0
O263 O 0.6499 0.45127 0.61562 0.0
O264 O 0.62151 0.45011 0.60428 0.0
H265 H 0.63332 0.48757 0.47668 0.0
H266 H 0.63031 0.50205 0.50965 0.0
C267 C 0.63197 0.48896 0.50489 0.0
H268 H 0.61853 0.47558 0.51413 0.0
H269 H 0.58803 0.44841 0.56877 0.0
O270 O 0.69599 0.48065 0.6111 0.0
C271 C 0.63113 0.44163 0.61303 0.0
Co272 Co 0.54225 0.19654 0.61208 0.0
Co273 Co 0.5385 0.15494 0.60451 0.0
C274 C 0.51528 0.16304 0.65728 0.0
O275 O 0.52214 0.18076 0.64706 0.0
O276 O 0.52072 0.1517 0.64366 0.0
C277 C 0.54126 0.23115 0.63413 0.0
O278 O 0.53362 0.221 0.66256 0.0
C279 C 0.51815 0.11268 0.58808 0.0
C280 C 0.54322 0.10857 0.57351 0.0
C281 C 0.52277 0.0989 0.57528 0.0
N282 N 0.53508 0.12984 0.59269 0.0
N283 N 0.55002 0.12719 0.58452 0.0
C284 C 0.4981 0.10968 0.59636 0.0
H285 H 0.49863 0.11714 0.62095 0.0
H286 H 0.49346 0.11641 0.57583 0.0
H287 H 0.48696 0.09375 0.59871 0.0
C288 C 0.5326 0.19038 0.53793 0.0
N289 N 0.53508 0.18399 0.56877 0.0
N290 N 0.53371 0.1666 0.56508 0.0
C291 C 0.53057 0.16148 0.53145 0.0
C292 C 0.5297 0.17634 0.51322 0.0
C293 C 0.53504 0.21042 0.53208 0.0
H294 H 0.54997 0.22187 0.54081 0.0
H295 H 0.52404 0.21197 0.54789 0.0
H296 H 0.53322 0.21303 0.50455 0.0
O297 O 0.56858 0.20078 0.6256 0.0
O298 O 0.56624 0.17147 0.61918 0.0
H299 H 0.54221 0.14208 0.52405 0.0
H300 H 0.52727 0.14218 0.48846 0.0
C301 C 0.52893 0.14296 0.5169 0.0
H302 H 0.51579 0.13 0.52795 0.0
H303 H 0.56484 0.1383 0.58535 0.0
O304 O 0.54534 0.22321 0.60927 0.0
C305 C 0.57623 0.18972 0.62688 0.0
Co306 Co 0.67518 0.48153 0.04481 0.0
Co307 Co 0.71309 0.52302 0.05021 0.0
C308 C 0.68189 0.51358 0.99628 0.0
O309 O 0.67082 0.49616 0.00767 0.0
O310 O 0.69864 0.52507 0.0098 0.0
C311 C 0.6469 0.44446 0.02096 0.0
O312 O 0.65743 0.45203 0.99285 0.0
C313 C 0.73291 0.56491 0.0672 0.0
C314 C 0.76398 0.57218 0.07309 0.0
C315 C 0.7516 0.58005 0.07622 0.0
N316 N 0.73417 0.54877 0.0599 0.0
N317 N 0.7528 0.55326 0.063 0.0
C318 C 0.71418 0.5657 0.06453 0.0
H319 H 0.70435 0.55526 0.04458 0.0
H320 H 0.70617 0.56122 0.08945 0.0
H321 H 0.71741 0.58088 0.05815 0.0
C322 C 0.67151 0.48972 0.11803 0.0
N323 N 0.68032 0.49525 0.08698 0.0
N324 N 0.69665 0.51246 0.08983 0.0
C325 C 0.69902 0.51821 0.12314 0.0
C326 C 0.68305 0.50413 0.14196 0.0
C327 C 0.65285 0.47065 0.12461 0.0
H328 H 0.65613 0.45837 0.12422 0.0
H329 H 0.64203 0.46793 0.1038 0.0
H330 H 0.64629 0.4708 0.14991 0.0
O331 O 0.69748 0.47699 0.03361 0.0
O332 O 0.72455 0.50636 0.03866 0.0
H333 H 0.73066 0.53664 0.12353 0.0
H334 H 0.71937 0.53253 0.16545 0.0
C335 C 0.71763 0.53498 0.13778 0.0
H336 H 0.71716 0.54888 0.13559 0.0
H337 H 0.75779 0.54325 0.05913 0.0
O338 O 0.65153 0.45501 0.04804 0.0
C339 C 0.71622 0.48792 0.03256 0.0
Co340 Co 0.52743 0.19712 0.04786 0.0
Co341 Co 0.48809 0.19761 0.0596 0.0
C342 C 0.49309 0.17542 0.00075 0.0
O343 O 0.51052 0.18012 0.01013 0.0
O344 O 0.48302 0.1814 0.01737 0.0
C345 C 0.55966 0.19257 0.02249 0.0
O346 O 0.54907 0.1861 0.99419 0.0
C347 C 0.44633 0.1802 0.07816 0.0
C348 C 0.44478 0.20667 0.09336 0.0
C349 C 0.43372 0.18625 0.09147 0.0
N350 N 0.46414 0.1963 0.07327 0.0
N351 N 0.46305 0.21209 0.08191 0.0
C352 C 0.44157 0.15957 0.06965 0.0
H353 H 0.45014 0.15962 0.04688 0.0
H354 H 0.44572 0.1533 0.09163 0.0
H355 H 0.42554 0.14996 0.06439 0.0
C356 C 0.52098 0.18501 0.12094 0.0
N357 N 0.51474 0.18879 0.09103 0.0
N358 N 0.49843 0.1894 0.0965 0.0
C359 C 0.49395 0.18635 0.13037 0.0
C360 C 0.50804 0.18339 0.14691 0.0
C361 C 0.54041 0.18578 0.1251 0.0
H362 H 0.55252 0.20081 0.1183 0.0
H363 H 0.54113 0.17518 0.10694 0.0
H364 H 0.54269 0.18227 0.15183 0.0
O365 O 0.53467 0.22503 0.03962 0.0
O366 O 0.50691 0.22553 0.0488 0.0
H367 H 0.47858 0.20213 0.14029 0.0
H368 H 0.4774 0.18634 0.17549 0.0
C369 C 0.47742 0.18779 0.14705 0.0
H370 H 0.46313 0.17578 0.13729 0.0
H371 H 0.47494 0.22655 0.08087 0.0
O372 O 0.55276 0.19721 0.04825 0.0
C373 C 0.5252 0.23436 0.04121 0.0
Co374 Co 0.80301 0.33315 0.05174 0.0
Co375 Co 0.80722 0.29563 0.06152 0.0
C376 C 0.82842 0.32484 0.00491 0.0
O377 O 0.82142 0.33571 0.01442 0.0
O378 O 0.82406 0.30892 0.02083 0.0
C379 C 0.80948 0.37185 0.03297 0.0
O380 O 0.8221 0.37204 0.01039 0.0
C381 C 0.8273 0.27346 0.07896 0.0
C382 C 0.80193 0.24439 0.09322 0.0
C383 C 0.82238 0.25488 0.09139 0.0
N384 N 0.81052 0.27401 0.07449 0.0
N385 N 0.79541 0.25652 0.08262 0.0
C386 C 0.84749 0.2903 0.07073 0.0
H387 H 0.8468 0.29908 0.04892 0.0
H388 H 0.85343 0.30023 0.0934 0.0
H389 H 0.85774 0.28483 0.06414 0.0
C390 C 0.81407 0.33835 0.12541 0.0
N391 N 0.81151 0.32905 0.09499 0.0
N392 N 0.81285 0.31307 0.09961 0.0
C393 C 0.81602 0.31153 0.1334 0.0
C394 C 0.81696 0.32752 0.1508 0.0
C395 C 0.81129 0.3558 0.13043 0.0
H396 H 0.79608 0.35178 0.12252 0.0
H397 H 0.82175 0.36807 0.11353 0.0
H398 H 0.81366 0.36087 0.15763 0.0
O399 O 0.77614 0.3108 0.04166 0.0
O400 O 0.77925 0.28426 0.04819 0.0
H401 H 0.80338 0.28047 0.14235 0.0
H402 H 0.8186 0.29577 0.1775 0.0
C403 C 0.81695 0.29449 0.14906 0.0
H404 H 0.82982 0.29398 0.13841 0.0
H405 H 0.78065 0.253 0.08169 0.0
O406 O 0.80043 0.35711 0.05303 0.0
C407 C 0.76879 0.29211 0.04116 0.0
Co408 Co 0.4821 0.67679 0.95381 0.0
Co409 Co 0.52326 0.71477 0.94531 0.0
C410 C 0.51488 0.68549 0.00223 0.0
O411 O 0.49711 0.67446 0.99244 0.0
O412 O 0.52648 0.70138 0.98629 0.0
C413 C 0.4454 0.6483 0.97953 0.0
O414 O 0.45295 0.65925 0.00722 0.0
C415 C 0.56479 0.73506 0.9257 0.0
C416 C 0.5719 0.7662 0.9229 0.0
C417 C 0.57984 0.754 0.91803 0.0
N418 N 0.54863 0.73601 0.93417 0.0
N419 N 0.55299 0.75466 0.93272 0.0
C420 C 0.56588 0.71645 0.92667 0.0
H421 H 0.55443 0.70546 0.94416 0.0
H422 H 0.56315 0.70987 0.90053 0.0
H423 H 0.58077 0.71967 0.93517 0.0
C424 C 0.48979 0.67096 0.8814 0.0
N425 N 0.49557 0.68076 0.91155 0.0
N426 N 0.51234 0.69738 0.90703 0.0
C427 C 0.5174 0.69905 0.87342 0.0
C428 C 0.50343 0.68223 0.85616 0.0
C429 C 0.47117 0.65155 0.87692 0.0
H430 H 0.45841 0.65408 0.87587 0.0
H431 H 0.46906 0.64186 0.89935 0.0
H432 H 0.47157 0.64403 0.8529 0.0
O433 O 0.47703 0.69896 0.96196 0.0
O434 O 0.50632 0.72608 0.95656 0.0
H435 H 0.53517 0.7308 0.87169 0.0
H436 H 0.52908 0.71906 0.83004 0.0
C437 C 0.53308 0.71773 0.85699 0.0
H438 H 0.54721 0.71764 0.85641 0.0
H439 H 0.54297 0.75948 0.93803 0.0
O440 O 0.45583 0.65274 0.95232 0.0
C441 C 0.48784 0.71772 0.9623 0.0
Co442 Co 0.33092 0.80274 0.94356 0.0
Co443 Co 0.29505 0.80818 0.92481 0.0
C444 C 0.32213 0.83058 0.98289 0.0
O445 O 0.33268 0.82263 0.97722 0.0
O446 O 0.30705 0.82645 0.96441 0.0
C447 C 0.37146 0.81131 0.95707 0.0
O448 O 0.37629 0.82973 0.96319 0.0
C449 C 0.27291 0.82693 0.89946 0.0
C450 C 0.24675 0.80112 0.87676 0.0
C451 C 0.25578 0.82142 0.88076 0.0
N452 N 0.27404 0.81061 0.9057 0.0
N453 N 0.2582 0.79521 0.89266 0.0
C454 C 0.28905 0.84744 0.90776 0.0
H455 H 0.30328 0.84773 0.9115 0.0
H456 H 0.29058 0.85786 0.88691 0.0
H457 H 0.2853 0.85234 0.93205 0.0
C458 C 0.33936 0.81159 0.86908 0.0
N459 N 0.32895 0.80993 0.89784 0.0
N460 N 0.31388 0.81228 0.88982 0.0
C461 C 0.31425 0.81552 0.85559 0.0
C462 C 0.33033 0.81511 0.84134 0.0
C463 C 0.35642 0.80794 0.86789 0.0
H464 H 0.35213 0.79354 0.88026 0.0
H465 H 0.36892 0.81965 0.88281 0.0
H466 H 0.36132 0.80788 0.84105 0.0
O467 O 0.3078 0.77668 0.9546 0.0
O468 O 0.28243 0.78075 0.94191 0.0
H469 H 0.28459 0.80523 0.83875 0.0
H470 H 0.30318 0.82212 0.80898 0.0
C471 C 0.29936 0.81868 0.83662 0.0
H472 H 0.29868 0.83123 0.84835 0.0
H473 H 0.25562 0.78075 0.89335 0.0
O474 O 0.35384 0.79882 0.9485 0.0
C475 C 0.28927 0.77003 0.95285 0.0
Co476 Co 0.19819 0.53234 0.9538 0.0
Co477 Co 0.19833 0.49325 0.93771 0.0
C478 C 0.17668 0.49704 -0.00127 0.0
O479 O 0.18138 0.51471 0.99112 0.0
O480 O 0.18249 0.4874 0.98042 0.0
C481 C 0.19028 0.5631 0.97797 0.0
O482 O 0.17982 0.55089 0.00282 0.0
C483 C 0.18026 0.45183 0.91664 0.0
C484 C 0.20641 0.44993 0.90056 0.0
C485 C 0.18598 0.43912 0.90267 0.0
N486 N 0.19656 0.46946 0.92181 0.0
N487 N 0.21215 0.46818 0.9125 0.0
C488 C 0.15976 0.44728 0.92567 0.0
H489 H 0.16006 0.4566 0.9474 0.0
H490 H 0.15303 0.45051 0.90321 0.0
H491 H 0.15036 0.43145 0.93259 0.0
C492 C 0.18572 0.52768 0.88088 0.0
N493 N 0.18954 0.52069 0.90989 0.0
N494 N 0.19002 0.50448 0.90266 0.0
C495 C 0.18684 0.50081 0.86859 0.0
C496 C 0.18395 0.51535 0.85372 0.0
C497 C 0.18658 0.54723 0.87861 0.0
H498 H 0.2017 0.55915 0.88539 0.0
H499 H 0.17619 0.54765 0.89763 0.0
H500 H 0.18283 0.55004 0.85241 0.0
O501 O 0.22612 0.53921 0.96087 0.0
O502 O 0.22632 0.51159 0.94854 0.0
H503 H 0.20251 0.48564 0.85607 0.0
H504 H 0.18655 0.48528 0.82184 0.0
C505 C 0.18815 0.48466 0.85015 0.0
H506 H 0.17617 0.47017 0.85926 0.0
H507 H 0.22669 0.47988 0.91373 0.0
O508 O 0.19844 0.55769 0.9555 0.0
C509 C 0.2353 0.52966 0.95758 0.0
Co510 Co 0.34229 0.81313 0.37524 0.0
Co511 Co 0.38033 0.8546 0.38311 0.0
C512 C 0.34996 0.84681 0.32888 0.0
O513 O 0.33895 0.82913 0.33918 0.0
O514 O 0.3665 0.85817 0.34322 0.0
C515 C 0.30753 0.77918 0.35042 0.0
O516 O 0.31225 0.7894 0.32161 0.0
C517 C 0.4032 0.89683 0.40034 0.0
C518 C 0.43261 0.90039 0.41105 0.0
C519 C 0.42218 0.91043 0.4112 0.0
N520 N 0.40241 0.87946 0.39485 0.0
N521 N 0.42009 0.88176 0.40084 0.0
C522 C 0.38617 0.90023 0.39458 0.0
H523 H 0.37651 0.89055 0.3737 0.0
H524 H 0.37716 0.89653 0.41842 0.0
H525 H 0.39149 0.91591 0.38786 0.0
C526 C 0.33934 0.81891 0.44974 0.0
N527 N 0.34756 0.82578 0.41859 0.0
N528 N 0.36368 0.8431 0.42229 0.0
C529 C 0.36639 0.84766 0.45616 0.0
C530 C 0.35105 0.83253 0.47462 0.0
C531 C 0.32229 0.79853 0.45563 0.0
H532 H 0.32626 0.78754 0.44626 0.0
H533 H 0.3094 0.79654 0.44037 0.0
H534 H 0.31816 0.79568 0.48327 0.0
O535 O 0.36417 0.80816 0.36328 0.0
O536 O 0.39106 0.83758 0.36929 0.0
H537 H 0.39774 0.8655 0.46244 0.0
H538 H 0.38372 0.86576 0.4994 0.0
C539 C 0.38413 0.8654 0.47083 0.0
H540 H 0.38468 0.87896 0.461 0.0
H541 H 0.4235 0.87047 0.39875 0.0
O542 O 0.31809 0.78681 0.37714 0.0
C543 C 0.38289 0.81925 0.36231 0.0
Co544 Co 0.19729 0.53576 0.38774 0.0
Co545 Co 0.15623 0.53337 0.39234 0.0
C546 C 0.16381 0.50865 0.3424 0.0
O547 O 0.18139 0.51529 0.35318 0.0
O548 O 0.15274 0.5147 0.35495 0.0
C549 C 0.23138 0.53494 0.36515 0.0
O550 O 0.22148 0.52966 0.33599 0.0
C551 C 0.11407 0.51352 0.40678 0.0
C552 C 0.10897 0.53861 0.41521 0.0
C553 C 0.09971 0.51816 0.41575 0.0
N554 N 0.13114 0.53047 0.40187 0.0
N555 N 0.12797 0.54542 0.40646 0.0
C556 C 0.11176 0.49345 0.40176 0.0
H557 H 0.12198 0.49162 0.41926 0.0
H558 H 0.09635 0.48143 0.40613 0.0
H559 H 0.11601 0.49224 0.37497 0.0
C560 C 0.19043 0.52827 0.46255 0.0
N561 N 0.18433 0.52977 0.43079 0.0
N562 N 0.16713 0.52896 0.43305 0.0
C563 C 0.16181 0.52712 0.46653 0.0
C564 C 0.17638 0.5266 0.48629 0.0
C565 C 0.21035 0.53074 0.46995 0.0
H566 H 0.22194 0.54525 0.45982 0.0
H567 H 0.21181 0.51908 0.45621 0.0
H568 H 0.21279 0.52997 0.49796 0.0
O569 O 0.20257 0.56224 0.37239 0.0
O570 O 0.1735 0.56071 0.37637 0.0
H571 H 0.14309 0.5398 0.46995 0.0
H572 H 0.14256 0.5261 0.50799 0.0
C573 C 0.1435 0.52662 0.47946 0.0
H574 H 0.13036 0.51326 0.46939 0.0
H575 H 0.13889 0.56027 0.40441 0.0
O576 O 0.22347 0.53774 0.39158 0.0
C577 C 0.19188 0.57025 0.36945 0.0
Co578 Co 0.47635 0.67116 0.39034 0.0
Co579 Co 0.47872 0.63259 0.39891 0.0
C580 C 0.50076 0.66194 0.34302 0.0
O581 O 0.49403 0.67304 0.35243 0.0
O582 O 0.49611 0.64593 0.35882 0.0
C583 C 0.48164 0.70874 0.36851 0.0
O584 O 0.49164 0.70688 0.34299 0.0
C585 C 0.49841 0.61054 0.41782 0.0
C586 C 0.47326 0.57995 0.42105 0.0
C587 C 0.49356 0.59125 0.42512 0.0
N588 N 0.48168 0.61063 0.41026 0.0
N589 N 0.46671 0.59231 0.41205 0.0
C590 C 0.51862 0.62844 0.41615 0.0
H591 H 0.51854 0.64005 0.39982 0.0
H592 H 0.52342 0.63464 0.44238 0.0
H593 H 0.52943 0.62446 0.40592 0.0
C594 C 0.48942 0.67638 0.46316 0.0
N595 N 0.48514 0.66658 0.43298 0.0
N596 N 0.48508 0.64984 0.43734 0.0
C597 C 0.48864 0.64813 0.47083 0.0
C598 C 0.4918 0.66502 0.48821 0.0
C599 C 0.49079 0.69605 0.46774 0.0
H600 H 0.47566 0.69393 0.46886 0.0
H601 H 0.49851 0.70566 0.4453 0.0
H602 H 0.49885 0.70343 0.49174 0.0
O603 O 0.44903 0.64946 0.38093 0.0
O604 O 0.45084 0.62213 0.38601 0.0
H605 H 0.47442 0.61639 0.473 0.0
H606 H 0.48132 0.62835 0.5144 0.0
C607 C 0.48588 0.62948 0.487 0.0
H608 H 0.50001 0.62939 0.48612 0.0
H609 H 0.45201 0.58826 0.4073 0.0
O610 O 0.47458 0.69559 0.39194 0.0
C611 C 0.44095 0.6307 0.37994 0.0
H612 H 0.17045 0.09282 0.2946 0.0
H613 H 0.15538 0.11368 0.29782 0.0
H614 H 0.09778 0.06178 0.30809 0.0
H615 H 0.11266 0.04079 0.30536 0.0
H616 H 0.12795 0.11324 0.25241 0.0
H617 H 0.09789 0.09733 0.38527 0.0
H618 H 0.11623 0.09137 0.37057 0.0
H619 H 0.09052 0.07532 0.3605 0.0
C620 C 0.15459 0.08582 0.29802 0.0
C621 C 0.14276 0.0651 0.29975 0.0
C622 C 0.14603 0.09779 0.2998 0.0
C623 C 0.12552 0.08929 0.30361 0.0
C624 C 0.1137 0.06866 0.30588 0.0
H625 H 0.04427 0.12621 0.24396 0.0
H626 H 0.06789 0.11448 0.24714 0.0
C627 C 0.12223 0.05667 0.30411 0.0
C628 C 0.11626 0.10182 0.30289 0.0
H629 H 0.08449 0.11181 0.34698 0.0
C630 C 0.11866 0.11316 0.27327 0.0
C631 C 0.10441 0.10193 0.33034 0.0
C632 C 0.10225 0.091 0.36362 0.0
C633 C 0.10874 0.12387 0.26969 0.0
C634 C 0.09587 0.12293 0.2962 0.0
C635 C 0.09423 0.11236 0.32651 0.0
C636 C 0.08304 0.13174 0.2923 0.0
C637 C 0.11202 0.13596 0.23745 0.0
C638 C 0.08367 0.14531 0.3167 0.0
C639 C 0.07007 0.15195 0.31512 0.0
C640 C 0.05549 0.14499 0.28924 0.0
C641 C 0.05532 0.13189 0.26419 0.0
C642 C 0.06891 0.12526 0.26582 0.0
H643 H 0.12651 0.14022 0.22538 0.0
H644 H 0.10029 0.12702 0.21842 0.0
H645 H 0.11139 0.14958 0.24303 0.0
H646 H 0.09442 0.15041 0.33742 0.0
H647 H 0.07061 0.16204 0.3348 0.0
H648 H 0.85272 0.91726 0.3247 0.0
H649 H 0.86458 0.95283 0.32537 0.0
H650 H 0.90955 0.96233 0.25102 0.0
H651 H 0.89775 0.92691 0.24988 0.0
H652 H 0.90307 0.98244 0.34407 0.0
H653 H 0.88461 0.99346 0.21077 0.0
H654 H 0.87363 0.9694 0.23091 0.0
H655 H 0.89805 0.98038 0.21276 0.0
C656 C 0.86496 0.92689 0.30814 0.0
C657 C 0.87431 0.91927 0.28727 0.0
C658 C 0.87173 0.94719 0.30862 0.0
C659 C 0.88779 0.96013 0.28799 0.0
C660 C 0.8969 0.95253 0.26667 0.0
H661 H 0.97407 0.08281 0.30149 0.0
H662 H 0.95465 0.04678 0.3057 0.0
C663 C 0.8902 0.93229 0.26622 0.0
C664 C 0.89592 0.98173 0.29021 0.0
H665 H 0.90774 0.02252 0.24141 0.0
C666 C 0.90389 0.9912 0.32176 0.0
C667 C 0.89678 0.99306 0.26114 0.0
C668 C 0.88764 0.98356 0.22705 0.0
C669 C 0.91345 0.01186 0.32462 0.0
C670 C 0.91519 0.02323 0.2951 0.0
C671 C 0.90651 0.01372 0.26392 0.0
C672 C 0.9266 0.04507 0.29555 0.0
C673 C 0.92175 0.02138 0.35908 0.0
C674 C 0.91722 0.05597 0.28842 0.0
C675 C 0.92824 0.07655 0.28601 0.0
C676 C 0.9489 0.08657 0.29027 0.0
C677 C 0.95819 0.07558 0.29811 0.0
C678 C 0.94712 0.055 0.3007 0.0
H679 H 0.91494 0.01069 0.38066 0.0
H680 H 0.9379 0.02699 0.35943 0.0
H681 H 0.91939 0.03409 0.36354 0.0
H682 H 0.90139 0.04852 0.2842 0.0
H683 H 0.9206 0.08453 0.27986 0.0
H684 H 0.93499 0.89471 0.30526 0.0
H685 H 0.97051 0.90858 0.31253 0.0
H686 H 0.96348 0.85042 0.30254 0.0
H687 H 0.92784 0.83634 0.29473 0.0
H688 H 0.99303 0.90046 0.36032 0.0
H689 H 0.00251 0.88274 0.22493 0.0
H690 H 0.98008 0.88163 0.23967 0.0
H691 H 0.98529 0.86245 0.25128 0.0
C692 C 0.94091 0.8848 0.30486 0.0
C693 C 0.92857 0.86444 0.299 0.0
C694 C 0.96123 0.89276 0.30913 0.0
C695 C 0.96961 0.88055 0.30758 0.0
C696 C 0.9573 0.86011 0.30325 0.0
H697 H 0.09838 0.93842 0.34396 0.0
H698 H 0.06332 0.91293 0.34625 0.0
C699 C 0.93693 0.85211 0.29892 0.0
C700 C 0.99135 0.8896 0.30871 0.0
H701 H 0.03129 0.90108 0.25772 0.0
C702 C 0.00145 0.90037 0.33815 0.0
C703 C 0.00219 0.88948 0.27958 0.0
C704 C 0.99206 0.87859 0.24692 0.0
C705 C 0.02215 0.91172 0.33874 0.0
C706 C 0.03296 0.91208 0.30922 0.0
C707 C 0.0229 0.90064 0.28034 0.0
C708 C 0.0544 0.92614 0.30616 0.0
C709 C 0.03223 0.92414 0.37014 0.0
C710 C 0.061 0.94154 0.28204 0.0
C711 C 0.08092 0.956 0.28055 0.0
C712 C 0.09465 0.95533 0.30315 0.0
C713 C 0.08814 0.93941 0.32635 0.0
C714 C 0.06813 0.9249 0.32783 0.0
H715 H 0.02153 0.9245 0.38857 0.0
H716 H 0.04043 0.91794 0.38371 0.0
H717 H 0.04306 0.93954 0.36246 0.0
H718 H 0.05062 0.9427 0.26502 0.0
H719 H 0.08545 0.96796 0.26219 0.0
H720 H 0.15814 0.06992 0.66409 0.0
H721 H 0.14736 0.09445 0.66287 0.0
H722 H 0.10925 0.06599 0.75004 0.0
H723 H 0.12012 0.0417 0.75187 0.0
H724 H 0.10928 0.08618 0.65194 0.0
H725 H 0.1363 0.12387 0.77751 0.0
H726 H 0.14528 0.10873 0.75855 0.0
H727 H 0.12233 0.09749 0.78207 0.0
C728 C 0.14773 0.06909 0.68337 0.0
C729 C 0.13995 0.05383 0.70802 0.0
C730 C 0.14157 0.0831 0.68259 0.0
C731 C 0.12769 0.08217 0.70661 0.0
C732 C 0.12029 0.06724 0.73174 0.0
H733 H 0.03912 0.11515 0.69552 0.0
H734 H 0.05945 0.09955 0.6917 0.0
C735 C 0.12642 0.05327 0.73257 0.0
C736 C 0.11959 0.09565 0.70382 0.0
H737 H 0.10999 0.12676 0.75092 0.0
C738 C 0.10969 0.0953 0.67337 0.0
C739 C 0.12038 0.10773 0.73162 0.0
C740 C 0.13183 0.10966 0.76414 0.0
C741 C 0.09969 0.10597 0.67063 0.0
C742 C 0.09932 0.11695 0.69932 0.0
C743 C 0.11007 0.1181 0.72911 0.0
C744 C 0.08721 0.12666 0.6996 0.0
C745 C 0.08948 0.10524 0.63716 0.0
C746 C 0.09605 0.14701 0.70583 0.0
C747 C 0.08447 0.15596 0.70831 0.0
C748 C 0.06379 0.14467 0.70479 0.0
C749 C 0.055 0.1243 0.69818 0.0
C750 C 0.06661 0.11537 0.69576 0.0
H751 H 0.09609 0.10151 0.61509 0.0
H752 H 0.07368 0.09362 0.63893 0.0
H753 H 0.09026 0.11958 0.63176 0.0
H754 H 0.11192 0.15594 0.70907 0.0
H755 H 0.09174 0.17168 0.71345 0.0
H756 H 0.94726 0.09773 0.63343 0.0
H757 H 0.92206 0.06262 0.63176 0.0
H758 H 0.94014 0.05462 0.73284 0.0
H759 H 0.96489 0.08958 0.73511 0.0
H760 H 0.92865 0.03205 0.633 0.0
H761 H 0.88102 0.02523 0.74338 0.0
H762 H 0.89864 0.04887 0.72517 0.0
H763 H 0.90644 0.03698 0.75626 0.0
C764 C 0.94562 0.08855 0.65554 0.0
C765 C 0.9581 0.09644 0.68438 0.0
C766 C 0.93123 0.0685 0.65453 0.0
C767 C 0.92902 0.05606 0.68237 0.0
C768 C 0.94121 0.06402 0.71143 0.0
H769 H 0.89768 0.93559 0.69266 0.0
H770 H 0.91264 0.97106 0.68284 0.0
C771 C 0.95549 0.08402 0.71255 0.0
C772 C 0.91533 0.03446 0.6801 0.0
H773 H 0.88052 0.9952 0.72603 0.0
C774 C 0.91785 0.024 0.653 0.0
C775 C 0.90098 0.02397 0.70579 0.0
C776 C 0.89646 0.03439 0.73405 0.0
C777 C 0.90728 0.00328 0.65208 0.0
C778 C 0.89422 0.99277 0.67944 0.0
C779 C 0.89079 0.00325 0.70535 0.0
C780 C 0.8849 0.97104 0.68291 0.0
C781 C 0.91039 0.99287 0.62201 0.0
C782 C 0.86437 0.95927 0.68691 0.0
C783 C 0.85578 0.939 0.69305 0.0
C784 C 0.86759 0.93012 0.69536 0.0
C785 C 0.88813 0.94191 0.6908 0.0
C786 C 0.89671 0.96219 0.6849 0.0
H787 H 0.91499 0.0023 0.59853 0.0
H788 H 0.92234 0.98966 0.62845 0.0
H789 H 0.89676 0.9787 0.61604 0.0
H790 H 0.855 0.96583 0.6857 0.0
H791 H 0.8399 0.93035 0.6964 0.0
H792 H 0.07622 0.97014 0.69981 0.0
H793 H 0.04074 0.94915 0.69078 0.0
H794 H 0.04702 0.89736 0.69229 0.0
H795 H 0.08259 0.91822 0.70202 0.0
H796 H 0.01885 0.9217 0.63957 0.0
H797 H 0.00668 0.88635 0.76885 0.0
H798 H 0.02961 0.9081 0.75722 0.0
H799 H 0.02403 0.88428 0.74125 0.0
C800 C 0.07013 0.9543 0.69804 0.0
C801 C 0.08223 0.94586 0.70204 0.0
C802 C 0.04984 0.94233 0.69278 0.0
C803 C 0.04125 0.9217 0.69139 0.0
C804 C 0.05334 0.91323 0.69394 0.0
H805 H 0.91347 0.85417 0.64463 0.0
H806 H 0.94858 0.86398 0.64285 0.0
C807 C 0.07367 0.9252 0.69936 0.0
C808 C 0.01951 0.90926 0.68874 0.0
H809 H 0.97858 0.87753 0.73495 0.0
C810 C 0.01 0.91182 0.66015 0.0
C811 C 0.00809 0.89648 0.71581 0.0
C812 C 0.01753 0.89367 0.74769 0.0
C813 C 0.98932 0.90256 0.65851 0.0
C814 C 0.97791 0.89017 0.68598 0.0
C815 C 0.98741 0.88696 0.71388 0.0
C816 C 0.95637 0.88245 0.68834 0.0
C817 C 0.97992 0.90702 0.62838 0.0
C818 C 0.94905 0.88895 0.71526 0.0
C819 C 0.92908 0.88328 0.71653 0.0
C820 C 0.916 0.87098 0.69084 0.0
C821 C 0.92321 0.86379 0.66464 0.0
C822 C 0.94326 0.86945 0.66347 0.0
H823 H 0.99096 0.91957 0.61258 0.0
H824 H 0.97247 0.89381 0.61151 0.0
H825 H 0.96859 0.91059 0.63749 0.0
H826 H 0.95893 0.89894 0.73477 0.0
H827 H 0.92402 0.88898 0.73721 0.0
H828 H 0.73357 0.49636 0.69062 0.0
H829 H 0.75972 0.48793 0.69612 0.0
H830 H 0.74534 0.46132 0.59501 0.0
H831 H 0.71967 0.47009 0.58892 0.0
H832 H 0.75421 0.4515 0.69768 0.0
H833 H 0.8045 0.49146 0.58989 0.0
H834 H 0.78611 0.49728 0.60482 0.0
H835 H 0.7796 0.47745 0.57449 0.0
C836 C 0.73626 0.48908 0.66927 0.0
C837 C 0.72449 0.48382 0.63938 0.0
C838 C 0.75121 0.48427 0.67248 0.0
C839 C 0.75468 0.47424 0.6458 0.0
C840 C 0.74331 0.46953 0.61556 0.0
H841 H 0.78249 0.38369 0.64322 0.0
H842 H 0.76915 0.40558 0.65284 0.0
C843 C 0.72849 0.4744 0.61225 0.0
C844 C 0.76855 0.4667 0.65069 0.0
H845 H 0.80398 0.46144 0.60872 0.0
C846 C 0.76541 0.45402 0.67864 0.0
C847 C 0.78346 0.4703 0.62634 0.0
C848 C 0.78875 0.48505 0.59745 0.0
C849 C 0.77574 0.44368 0.68141 0.0
C850 C 0.78917 0.44573 0.65508 0.0
C851 C 0.7934 0.45957 0.6286 0.0
C852 C 0.79763 0.43251 0.6527 0.0
C853 C 0.77185 0.43039 0.71217 0.0
C854 C 0.81806 0.44035 0.64886 0.0
C855 C 0.82574 0.42786 0.6428 0.0
C856 C 0.81309 0.40727 0.6404 0.0
C857 C 0.79267 0.39945 0.64514 0.0
C858 C 0.78502 0.41195 0.65095 0.0
H859 H 0.76747 0.43589 0.73504 0.0
H860 H 0.75945 0.41538 0.70613 0.0
H861 H 0.78505 0.42922 0.71895 0.0
H862 H 0.82804 0.45618 0.64988 0.0
H863 H 0.84155 0.43438 0.63931 0.0
H864 H 0.64658 0.41726 0.62176 0.0
H865 H 0.62849 0.3813 0.62777 0.0
H866 H 0.57323 0.38116 0.6249 0.0
H867 H 0.59114 0.41707 0.61801 0.0
H868 H 0.60238 0.35681 0.67637 0.0
H869 H 0.56607 0.34286 0.54812 0.0
H870 H 0.58608 0.36681 0.56065 0.0
H871 H 0.56138 0.35849 0.57578 0.0
C872 C 0.63058 0.40961 0.6225 0.0
C873 C 0.6203 0.42002 0.61903 0.0
C874 C 0.62027 0.38906 0.62596 0.0
C875 C 0.59953 0.37855 0.62612 0.0
C876 C 0.58923 0.38895 0.62398 0.0
H877 H 0.53362 0.25269 0.68107 0.0
H878 H 0.54584 0.2883 0.68004 0.0
C879 C 0.59951 0.40948 0.62022 0.0
C880 C 0.58876 0.35669 0.62802 0.0
H881 H 0.55674 0.31502 0.58376 0.0
C882 C 0.59234 0.34764 0.65621 0.0
C883 C 0.57585 0.34482 0.60145 0.0
C884 C 0.57222 0.3537 0.56962 0.0
C885 C 0.58352 0.32701 0.65841 0.0
C886 C 0.5704 0.31512 0.63206 0.0
C887 C 0.56665 0.32418 0.60407 0.0
C888 C 0.56155 0.29335 0.63173 0.0
C889 C 0.58894 0.3182 0.68824 0.0
C890 C 0.56556 0.28428 0.60414 0.0
C891 C 0.55838 0.26394 0.60438 0.0
C892 C 0.54709 0.25229 0.63233 0.0
C893 C 0.54245 0.26129 0.65934 0.0
C894 C 0.54952 0.28165 0.65892 0.0
H895 H 0.60266 0.32939 0.70138 0.0
H896 H 0.5768 0.31226 0.70748 0.0
H897 H 0.59109 0.30588 0.67945 0.0
H898 H 0.57472 0.29302 0.5828 0.0
H899 H 0.56217 0.25748 0.5831 0.0
H900 H 0.60261 0.22839 0.64144 0.0
H901 H 0.63827 0.2436 0.64883 0.0
H902 H 0.63384 0.18652 0.63909 0.0
H903 H 0.59807 0.17111 0.63102 0.0
H904 H 0.66178 0.23725 0.69633 0.0
H905 H 0.67226 0.21909 0.56173 0.0
H906 H 0.64928 0.21682 0.57621 0.0
H907 H 0.65583 0.1987 0.58868 0.0
C908 C 0.60913 0.219 0.64114 0.0
C909 C 0.59749 0.19856 0.6352 0.0
C910 C 0.62953 0.22772 0.64545 0.0
C911 C 0.63869 0.21622 0.64393 0.0
C912 C 0.62706 0.19569 0.63969 0.0
H913 H 0.76875 0.27188 0.63056 0.0
H914 H 0.73419 0.24577 0.6389 0.0
C915 C 0.60662 0.18692 0.63524 0.0
C916 C 0.66052 0.22611 0.64502 0.0
H917 H 0.70081 0.23916 0.59394 0.0
C918 C 0.67034 0.23742 0.67417 0.0
C919 C 0.67163 0.22621 0.61609 0.0
C920 C 0.6618 0.21469 0.58376 0.0
C921 C 0.69095 0.24957 0.67455 0.0
C922 C 0.70191 0.25052 0.64491 0.0
C923 C 0.69227 0.23832 0.61658 0.0
C924 C 0.72285 0.26596 0.64106 0.0
C925 C 0.70081 0.26181 0.70618 0.0
C926 C 0.72771 0.28579 0.63891 0.0
C927 C 0.74723 0.3006 0.63379 0.0
C928 C 0.76234 0.29589 0.6308 0.0
C929 C 0.75744 0.27596 0.63287 0.0
C930 C 0.73777 0.26107 0.63769 0.0
H931 H 0.69153 0.25542 0.72957 0.0
H932 H 0.71544 0.26305 0.71064 0.0
H933 H 0.70317 0.27693 0.7024 0.0
H934 H 0.71631 0.28979 0.64082 0.0
H935 H 0.75046 0.31578 0.63234 0.0
H936 H 0.82289 0.40356 0.98927 0.0
H937 H 0.812 0.42798 0.9865 0.0
H938 H 0.77331 0.40006 0.07322 0.0
H939 H 0.78424 0.37583 0.07653 0.0
H940 H 0.7736 0.41947 0.97473 0.0
H941 H 0.80086 0.45841 0.09934 0.0
H942 H 0.80987 0.44315 0.08094 0.0
H943 H 0.78689 0.43205 0.10434 0.0
C944 C 0.8123 0.40281 0.0081 0.0
C945 C 0.8044 0.38772 0.03308 0.0
C946 C 0.80608 0.41675 0.00643 0.0
C947 C 0.79203 0.41595 0.02989 0.0
C948 C 0.78447 0.40119 0.05531 0.0
H949 H 0.70389 0.44909 0.01874 0.0
H950 H 0.72427 0.43361 0.01408 0.0
C951 C 0.79064 0.38726 0.057 0.0
C952 C 0.78405 0.42951 0.02635 0.0
H953 H 0.77498 0.46152 0.07177 0.0
C954 C 0.77415 0.4289 0.99573 0.0
C955 C 0.78502 0.44199 0.05358 0.0
C956 C 0.79641 0.44412 0.08627 0.0
C957 C 0.76432 0.43971 0.99231 0.0
C958 C 0.76417 0.45114 0.02044 0.0
C959 C 0.77493 0.45255 0.05037 0.0
C960 C 0.75209 0.46088 0.02021 0.0
C961 C 0.75399 0.4386 0.9588 0.0
C962 C 0.76097 0.48133 0.02543 0.0
C963 C 0.74935 0.49024 0.02829 0.0
C964 C 0.72861 0.4788 0.02629 0.0
C965 C 0.71981 0.45836 0.02031 0.0
C966 C 0.73144 0.44949 0.01741 0.0
H967 H 0.76038 0.4344 0.937 0.0
H968 H 0.73815 0.42717 0.96103 0.0
H969 H 0.75495 0.45295 0.95268 0.0
H970 H 0.77688 0.49034 0.02786 0.0
H971 H 0.75663 0.50601 0.03294 0.0
H972 H 0.63548 0.4175 0.96879 0.0
H973 H 0.6117 0.38217 0.97167 0.0
H974 H 0.59877 0.38851 0.07752 0.0
H975 H 0.62286 0.4239 0.07511 0.0
H976 H 0.60744 0.35913 0.06902 0.0
H977 H 0.55172 0.35119 0.97228 0.0
H978 H 0.57644 0.36369 0.95551 0.0
H979 H 0.56984 0.37486 0.98973 0.0
C980 C 0.62739 0.41146 0.99257 0.0
C981 C 0.6311 0.4235 0.02177 0.0
C982 C 0.61368 0.39127 0.99407 0.0
C983 C 0.60327 0.38277 0.02465 0.0
C984 C 0.60658 0.39482 0.05361 0.0
H985 H 0.51068 0.25967 0.04767 0.0
H986 H 0.52909 0.29574 0.04359 0.0
C987 C 0.62034 0.41503 0.05218 0.0
C988 C 0.59029 0.36107 0.02726 0.0
H989 H 0.55095 0.32135 0.98965 0.0
C990 C 0.59497 0.35089 0.05189 0.0
C991 C 0.57392 0.35037 0.00509 0.0
C992 C 0.56754 0.3606 0.97939 0.0
C993 C 0.58407 0.33023 0.05434 0.0
C994 C 0.56833 0.31947 0.03106 0.0
C995 C 0.56323 0.32965 0.00711 0.0
C996 C 0.55699 0.29761 0.03135 0.0
C997 C 0.58946 0.32012 0.08198 0.0
C998 C 0.5665 0.28673 0.02489 0.0
C999 C 0.55607 0.26614 0.02729 0.0
C1000 C 0.53588 0.25603 0.03596 0.0
C1001 C 0.52623 0.26697 0.04108 0.0
C1002 C 0.53671 0.28758 0.03875 0.0
H1003 H 0.5981 0.33047 0.10312 0.0
H1004 H 0.57604 0.30741 0.0932 0.0
H1005 H 0.59868 0.31447 0.07048 0.0
H1006 H 0.58207 0.29421 0.01841 0.0
H1007 H 0.56393 0.25819 0.02288 0.0
H1008 H 0.7405 0.3028 0.0359 0.0
H1009 H 0.70501 0.28114 0.02786 0.0
H1010 H 0.71334 0.23068 0.0205 0.0
H1011 H 0.74887 0.25218 0.02949 0.0
H1012 H 0.68337 0.25625 0.97582 0.0
H1013 H 0.67292 0.2142 0.09729 0.0
H1014 H 0.6956 0.23666 0.08746 0.0
H1015 H 0.69025 0.21376 0.06741 0.0
C1016 C 0.73483 0.28711 0.03245 0.0
C1017 C 0.7475 0.2792 0.03371 0.0
C1018 C 0.71454 0.27475 0.02781 0.0
C1019 C 0.70651 0.25427 0.0242 0.0
C1020 C 0.71918 0.24639 0.02407 0.0
H1021 H 0.5798 0.1853 0.97202 0.0
H1022 H 0.61529 0.19686 0.97037 0.0
C1023 C 0.73949 0.25872 0.02903 0.0
C1024 C 0.68481 0.2413 0.02142 0.0
H1025 H 0.64459 0.2051 0.06361 0.0
C1026 C 0.67486 0.24492 0.9948 0.0
C1027 C 0.67381 0.22663 0.0464 0.0
C1028 C 0.68362 0.22263 0.07644 0.0
C1029 C 0.65415 0.23478 0.99312 0.0
C1030 C 0.64313 0.22025 0.0183 0.0
C1031 C 0.65311 0.21613 0.04421 0.0
C1032 C 0.62134 0.21086 0.02054 0.0
C1033 C 0.64429 0.2405 0.96552 0.0
C1034 C 0.61286 0.21395 0.05005 0.0
C1035 C 0.59262 0.20714 0.0513 0.0
C1036 C 0.58046 0.19717 0.02294 0.0
C1037 C 0.58881 0.19313 0.99412 0.0
C1038 C 0.60909 0.19983 0.99303 0.0
H1039 H 0.65482 0.2547 0.95287 0.0
H1040 H 0.63818 0.22886 0.94536 0.0
H1041 H 0.63191 0.2419 0.97647 0.0
H1042 H 0.62203 0.22233 0.07166 0.0
H1043 H 0.58667 0.21039 0.07401 0.0
H1044 H 0.36474 0.77375 0.95136 0.0
H1045 H 0.38858 0.76247 0.95525 0.0
H1046 H 0.43546 0.82236 0.97239 0.0
H1047 H 0.41145 0.8339 0.96911 0.0
H1048 H 0.4212 0.77396 0.91271 0.0
H1049 H 0.44331 0.79113 0.05063 0.0
H1050 H 0.42145 0.7904 0.03353 0.0
H1051 H 0.44543 0.81108 0.02434 0.0
C1052 C 0.38009 0.7846 0.95612 0.0
C1053 C 0.38619 0.80476 0.95994 0.0
C1054 C 0.3937 0.77809 0.95834 0.0
C1055 C 0.41373 0.79154 0.96439 0.0
C1056 C 0.41999 0.81171 0.96827 0.0
H1057 H 0.50588 0.75819 0.96463 0.0
H1058 H 0.48981 0.77826 0.96654 0.0
C1059 C 0.40629 0.81827 0.9662 0.0
C1060 C 0.42786 0.78416 0.96525 0.0
H1061 H 0.45737 0.77543 0.01898 0.0
C1062 C 0.42927 0.77448 0.93583 0.0
C1063 C 0.4384 0.78491 0.99546 0.0
C1064 C 0.43706 0.79481 0.02794 0.0
C1065 C 0.4404 0.76494 0.93614 0.0
C1066 C 0.45028 0.76502 0.96669 0.0
C1067 C 0.44965 0.77541 0.99569 0.0
C1068 C 0.46018 0.75319 0.96928 0.0
C1069 C 0.44116 0.7544 0.90406 0.0
C1070 C 0.44876 0.73254 0.97105 0.0
C1071 C 0.45782 0.72103 0.97005 0.0
C1072 C 0.47848 0.73001 0.96713 0.0
C1073 C 0.48993 0.7508 0.96674 0.0
C1074 C 0.48082 0.76231 0.96789 0.0
H1075 H 0.43598 0.75888 0.88089 0.0
H1076 H 0.45645 0.7574 0.89936 0.0
H1077 H 0.43153 0.73821 0.90765 0.0
H1078 H 0.43278 0.72531 0.97229 0.0
H1079 H 0.44855 0.70509 0.97054 0.0
H1080 H 0.29813 0.74111 0.96742 0.0
H1081 H 0.27505 0.7062 0.97828 0.0
H1082 H 0.22607 0.71691 0.97176 0.0
H1083 H 0.24904 0.75187 0.9599 0.0
H1084 H 0.24706 0.68643 0.02835 0.0
H1085 H 0.2122 0.67472 0.89871 0.0
H1086 H 0.23463 0.69712 0.90987 0.0
H1087 H 0.21118 0.693 0.92535 0.0
C1088 C 0.28246 0.73611 0.96847 0.0
C1089 C 0.27541 0.74923 0.96235 0.0
C1090 C 0.26929 0.71614 0.97478 0.0
C1091 C 0.24884 0.70892 0.97526 0.0
C1092 C 0.24177 0.72212 0.97075 0.0
H1093 H 0.17797 0.58132 0.02439 0.0
H1094 H 0.18791 0.61649 0.02624 0.0
C1095 C 0.25494 0.74209 0.9641 0.0
C1096 C 0.23513 0.6874 0.97883 0.0
H1097 H 0.20187 0.64678 0.93364 0.0
C1098 C 0.23694 0.67773 0.00792 0.0
C1099 C 0.222 0.67617 0.95201 0.0
C1100 C 0.21991 0.68569 0.91957 0.0
C1101 C 0.22678 0.65703 0.01013 0.0
C1102 C 0.21416 0.64578 0.98278 0.0
C1103 C 0.21149 0.65549 0.9546 0.0
C1104 C 0.20605 0.62416 0.98033 0.0
C1105 C 0.23067 0.6474 0.04061 0.0
C1106 C 0.21224 0.61674 0.95311 0.0
C1107 C 0.20645 0.59676 0.95175 0.0
C1108 C 0.19438 0.58374 0.97772 0.0
C1109 C 0.18742 0.59101 0.00418 0.0
C1110 C 0.19317 0.6111 0.0054 0.0
H1111 H 0.24333 0.65823 0.05646 0.0
H1112 H 0.21736 0.64039 0.05733 0.0
H1113 H 0.23378 0.63569 0.03186 0.0
H1114 H 0.22214 0.62656 0.93343 0.0
H1115 H 0.21196 0.59166 0.93084 0.0
H1116 H 0.25967 0.56814 0.97691 0.0
H1117 H 0.29567 0.58561 0.98191 0.0
H1118 H 0.29608 0.53227 0.95492 0.0
H1119 H 0.26005 0.51454 0.95022 0.0
H1120 H 0.32152 0.55346 0.01033 0.0
H1121 H 0.33235 0.60148 0.89726 0.0
H1122 H 0.31621 0.60205 0.92966 0.0
H1123 H 0.30905 0.57953 0.90647 0.0
C1124 C 0.26737 0.56006 0.97219 0.0
C1125 C 0.25697 0.53997 0.96286 0.0
C1126 C 0.28795 0.5701 0.97493 0.0
C1127 C 0.2985 0.56029 0.96818 0.0
C1128 C 0.28817 0.54011 0.96002 0.0
H1129 H 0.42483 0.62382 0.92591 0.0
H1130 H 0.38938 0.60002 0.92352 0.0
C1131 C 0.26758 0.53003 0.95731 0.0
C1132 C 0.32035 0.57122 0.9689 0.0
H1133 H 0.36069 0.60989 0.93156 0.0
C1134 C 0.33014 0.56573 0.99301 0.0
C1135 C 0.33149 0.58696 0.94581 0.0
C1136 C 0.32178 0.59277 0.91809 0.0
C1137 C 0.35085 0.57602 0.99538 0.0
C1138 C 0.36194 0.59235 0.97334 0.0
C1139 C 0.35214 0.59743 0.94856 0.0
C1140 C 0.38367 0.60491 0.97618 0.0
C1141 C 0.36066 0.56927 0.02128 0.0
C1142 C 0.39221 0.61537 0.0067 0.0
C1143 C 0.41245 0.62893 0.00819 0.0
C1144 C 0.42447 0.63242 0.97904 0.0
C1145 C 0.41597 0.62149 0.9488 0.0
C1146 C 0.39572 0.60789 0.94737 0.0
H1147 H 0.35089 0.55352 0.02848 0.0
H1148 H 0.37477 0.57115 0.01108 0.0
H1149 H 0.36394 0.57828 0.04507 0.0
H1150 H 0.38312 0.61361 0.02899 0.0
H1151 H 0.41852 0.63714 0.03184 0.0
H1152 H 0.49197 0.73768 0.3199 0.0
H1153 H 0.48015 0.76128 0.31528 0.0
H1154 H 0.44727 0.73863 0.4098 0.0
H1155 H 0.45924 0.71527 0.41497 0.0
H1156 H 0.4414 0.75118 0.30856 0.0
H1157 H 0.47358 0.79791 0.42432 0.0
H1158 H 0.48234 0.78204 0.40785 0.0
H1159 H 0.46063 0.77206 0.43465 0.0
C1160 C 0.48252 0.73797 0.34005 0.0
C1161 C 0.47649 0.72455 0.36775 0.0
C1162 C 0.47576 0.75144 0.33732 0.0
C1163 C 0.463 0.75183 0.36236 0.0
C1164 C 0.45744 0.73887 0.39056 0.0
H1165 H 0.37126 0.78022 0.35244 0.0
H1166 H 0.39239 0.76557 0.34794 0.0
C1167 C 0.4642 0.72543 0.39335 0.0
C1168 C 0.45406 0.76449 0.35761 0.0
H1169 H 0.44554 0.79805 0.3989 0.0
C1170 C 0.44254 0.76166 0.32805 0.0
C1171 C 0.45579 0.77835 0.3828 0.0
C1172 C 0.46893 0.78294 0.41401 0.0
C1173 C 0.43191 0.77162 0.32384 0.0
C1174 C 0.43256 0.78444 0.35018 0.0
C1175 C 0.44487 0.78802 0.3789 0.0
C1176 C 0.41986 0.79351 0.34948 0.0
C1177 C 0.41995 0.76818 0.29138 0.0
C1178 C 0.42829 0.81407 0.35203 0.0
C1179 C 0.41626 0.8225 0.35489 0.0
C1180 C 0.39554 0.81049 0.35547 0.0
C1181 C 0.38714 0.78992 0.35191 0.0
C1182 C 0.39921 0.78151 0.34913 0.0
H1183 H 0.42583 0.76328 0.26976 0.0
H1184 H 0.40448 0.75635 0.29617 0.0
H1185 H 0.41981 0.78176 0.28339 0.0
H1186 H 0.44421 0.82357 0.35249 0.0
H1187 H 0.42323 0.8384 0.35756 0.0
H1188 H 0.28117 0.7588 0.29894 0.0
H1189 H 0.25679 0.72349 0.29757 0.0
H1190 H 0.27384 0.71697 0.40047 0.0
H1191 H 0.29782 0.75226 0.40242 0.0
H1192 H 0.26451 0.69384 0.30095 0.0
H1193 H 0.21457 0.68612 0.40821 0.0
H1194 H 0.23212 0.70985 0.39022 0.0
H1195 H 0.23985 0.69829 0.42205 0.0
C1196 C 0.27949 0.74991 0.32151 0.0
C1197 C 0.29145 0.75832 0.35078 0.0
C1198 C 0.26556 0.72974 0.32066 0.0
C1199 C 0.26331 0.71764 0.34906 0.0
C1200 C 0.27495 0.72609 0.37857 0.0
H1201 H 0.23124 0.59655 0.36032 0.0
H1202 H 0.24683 0.63209 0.35078 0.0
C1203 C 0.28877 0.74627 0.37955 0.0
C1204 C 0.25011 0.69593 0.34687 0.0
H1205 H 0.21428 0.65633 0.39074 0.0
C1206 C 0.2533 0.68565 0.32027 0.0
C1207 C 0.23525 0.68527 0.37171 0.0
C1208 C 0.23009 0.69549 0.39942 0.0
C1209 C 0.24275 0.66493 0.31887 0.0
C1210 C 0.22898 0.65424 0.34523 0.0
C1211 C 0.22504 0.66454 0.37079 0.0
C1212 C 0.21933 0.63245 0.34802 0.0
C1213 C 0.24656 0.65473 0.2893 0.0
C1214 C 0.19868 0.62084 0.35006 0.0
C1215 C 0.1897 0.60051 0.35594 0.0
C1216 C 0.20123 0.59141 0.36001 0.0
C1217 C 0.2219 0.60303 0.3571 0.0
C1218 C 0.23085 0.62336 0.35141 0.0
H1219 H 0.25199 0.66441 0.26616 0.0
H1220 H 0.25814 0.65121 0.29697 0.0
H1221 H 0.23301 0.64074 0.2822 0.0
H1222 H 0.18953 0.62759 0.34769 0.0
H1223 H 0.17374 0.59201 0.35802 0.0
H1224 H 0.41911 0.59058 0.37121 0.0
H1225 H 0.38335 0.57044 0.36323 0.0
H1226 H 0.3784 0.62299 0.3666 0.0
H1227 H 0.41411 0.64328 0.37379 0.0
H1228 H 0.35473 0.56634 0.40699 0.0
H1229 H 0.34584 0.59545 0.28231 0.0
H1230 H 0.36962 0.60032 0.29805 0.0
H1231 H 0.35906 0.61486 0.31301 0.0
C1232 C 0.41045 0.59789 0.36982 0.0
C1233 C 0.41949 0.61857 0.37306 0.0
C1234 C 0.39002 0.58635 0.36528 0.0
C1235 C 0.37826 0.59524 0.3638 0.0
C1236 C 0.38725 0.61586 0.36679 0.0
H1237 H 0.25788 0.55214 0.41776 0.0
H1238 H 0.29327 0.56387 0.41645 0.0
C1239 C 0.40767 0.62743 0.37112 0.0
C1240 C 0.35647 0.58294 0.36139 0.0
H1241 H 0.31656 0.5781 0.31711 0.0
C1242 C 0.34638 0.5687 0.38705 0.0
C1243 C 0.34561 0.58576 0.33502 0.0
C1244 C 0.35561 0.59978 0.30534 0.0
C1245 C 0.32565 0.55787 0.38801 0.0
C1246 C 0.31479 0.56175 0.3631 0.0
C1247 C 0.3249 0.5753 0.33647 0.0
C1248 C 0.29304 0.55282 0.36511 0.0
C1249 C 0.31564 0.54246 0.41577 0.0
C1250 C 0.28114 0.54286 0.33658 0.0
C1251 C 0.26092 0.53637 0.33706 0.0
C1252 C 0.25225 0.53978 0.36609 0.0
C1253 C 0.26408 0.54919 0.39507 0.0
C1254 C 0.28431 0.55579 0.39446 0.0
H1255 H 0.32525 0.53662 0.42473 0.0
H1256 H 0.31258 0.54929 0.4383 0.0
H1257 H 0.30142 0.52992 0.40655 0.0
H1258 H 0.28759 0.54049 0.31362 0.0
H1259 H 0.2522 0.52914 0.31435 0.0
H1260 H 0.40351 0.19388 0.08768 0.0
H1261 H 0.37105 0.17556 0.11545 0.0
H1262 H 0.38637 0.1334 0.15527 0.0
H1263 H 0.41898 0.15192 0.12859 0.0
H1264 H 0.34089 0.13503 0.10825 0.0
H1265 H 0.37113 0.15407 0.24146 0.0
H1266 H 0.38546 0.16689 0.20385 0.0
H1267 H 0.38162 0.14286 0.21472 0.0
C1268 C 0.39985 0.1806 0.10211 0.0
C1269 C 0.41359 0.17409 0.10539 0.0
C1270 C 0.38136 0.17017 0.11787 0.0
C1271 C 0.37646 0.15326 0.13753 0.0
C1272 C 0.38999 0.14651 0.14035 0.0
H1273 H 0.25819 0.07171 0.2141 0.0
H1274 H 0.29104 0.08565 0.18845 0.0
C1275 C 0.40848 0.15693 0.12459 0.0
C1276 C 0.35734 0.14299 0.15577 0.0
H1277 H 0.33671 0.13238 0.2361 0.0
C1278 C 0.33992 0.13435 0.13619 0.0
C1279 C 0.35626 0.1424 0.19221 0.0
C1280 C 0.37458 0.15218 0.21441 0.0
C1281 C 0.32133 0.12508 0.15214 0.0
C1282 C 0.32025 0.12425 0.18858 0.0
C1283 C 0.33767 0.1329 0.20817 0.0
C1284 C 0.30113 0.11535 0.20679 0.0
C1285 C 0.30302 0.11671 0.12995 0.0
C1286 C 0.29626 0.12733 0.22656 0.0
C1287 C 0.27763 0.11934 0.24172 0.0
C1288 C 0.26368 0.09921 0.2377 0.0
C1289 C 0.26881 0.08712 0.21864 0.0
C1290 C 0.28745 0.09513 0.20347 0.0
H1291 H 0.30647 0.12223 0.10299 0.0
H1292 H 0.29594 0.10036 0.12933 0.0
H1293 H 0.29217 0.12051 0.14074 0.0
H1294 H 0.30668 0.14299 0.22938 0.0
H1295 H 0.27398 0.12899 0.25609 0.0
H1296 H 0.81623 0.21762 0.08641 0.0
H1297 H 0.83592 0.2045 0.1122 0.0
H1298 H 0.8774 0.2625 0.15099 0.0
H1299 H 0.85737 0.2755 0.12668 0.0
H1300 H 0.87525 0.21469 0.10276 0.0
H1301 H 0.86058 0.22802 0.23758 0.0
H1302 H 0.84696 0.22955 0.20123 0.0
H1303 H 0.87142 0.24953 0.2104 0.0
C1304 C 0.82963 0.22759 0.10023 0.0
C1305 C 0.83545 0.24765 0.10395 0.0
C1306 C 0.84087 0.2201 0.11485 0.0
C1307 C 0.85799 0.23252 0.13371 0.0
C1308 C 0.86412 0.25266 0.13679 0.0
H1309 H 0.93971 0.19349 0.20078 0.0
H1310 H 0.92614 0.21294 0.17621 0.0
C1311 C 0.85284 0.26014 0.12229 0.0
C1312 C 0.86902 0.22414 0.15095 0.0
H1313 H 0.88206 0.21522 0.23011 0.0
C1314 C 0.87685 0.21488 0.13058 0.0
C1315 C 0.87082 0.22425 0.18727 0.0
C1316 C 0.86187 0.2332 0.2105 0.0
C1317 C 0.88632 0.2055 0.14561 0.0
C1318 C 0.88832 0.2058 0.18191 0.0
C1319 C 0.88064 0.21522 0.20226 0.0
C1320 C 0.89727 0.19536 0.19937 0.0
C1321 C 0.89348 0.19479 0.12258 0.0
C1322 C 0.88576 0.17955 0.22162 0.0
C1323 C 0.89363 0.1687 0.23639 0.0
C1324 C 0.91319 0.1736 0.2294 0.0
C1325 C 0.92483 0.18974 0.2077 0.0
C1326 C 0.91698 0.20065 0.19307 0.0
H1327 H 0.88672 0.19205 0.09648 0.0
H1328 H 0.90975 0.20392 0.11953 0.0
H1329 H 0.89007 0.18039 0.13404 0.0
H1330 H 0.8705 0.17527 0.2268 0.0
H1331 H 0.8843 0.15627 0.25287 0.0
H1332 H 0.73048 0.59052 0.11932 0.0
H1333 H 0.74168 0.6226 0.14621 0.0
H1334 H 0.79821 0.64556 0.09584 0.0
H1335 H 0.7867 0.61375 0.06736 0.0
H1336 H 0.77145 0.64003 0.19094 0.0
H1337 H 0.78667 0.68981 0.07951 0.0
H1338 H 0.77223 0.66324 0.07571 0.0
H1339 H 0.79883 0.67561 0.07507 0.0
C1340 C 0.74496 0.6026 0.11269 0.0
C1341 C 0.7575 0.59979 0.09032 0.0
C1342 C 0.75144 0.62087 0.12851 0.0
C1343 C 0.77062 0.63657 0.12247 0.0
C1344 C 0.78315 0.63382 0.10006 0.0
H1345 H 0.85016 0.73115 0.25079 0.0
H1346 H 0.82835 0.69941 0.22308 0.0
C1347 C 0.77662 0.6156 0.08406 0.0
C1348 C 0.77825 0.65522 0.14204 0.0
H1349 H 0.80328 0.70531 0.13266 0.0
C1350 C 0.77812 0.65431 0.17823 0.0
C1351 C 0.78663 0.6738 0.12545 0.0
C1352 C 0.78591 0.67568 0.0868 0.0
C1353 C 0.7871 0.67155 0.19824 0.0
C1354 C 0.79684 0.69011 0.18152 0.0
C1355 C 0.79604 0.69103 0.14542 0.0
C1356 C 0.8089 0.70872 0.20071 0.0
C1357 C 0.78619 0.66969 0.23703 0.0
C1358 C 0.80543 0.72457 0.19674 0.0
C1359 C 0.81803 0.74277 0.21213 0.0
C1360 C 0.83421 0.74534 0.23201 0.0
C1361 C 0.83758 0.72943 0.23612 0.0
C1362 C 0.82505 0.71126 0.22056 0.0
H1363 H 0.77307 0.65565 0.24544 0.0
H1364 H 0.79956 0.6696 0.24643 0.0
H1365 H 0.78564 0.68224 0.24936 0.0
H1366 H 0.79326 0.723 0.181 0.0
H1367 H 0.81555 0.75499 0.20715 0.0
H1368 H 0.12662 0.27601 0.75234 0.0
H1369 H 0.14008 0.30923 0.7765 0.0
H1370 H 0.08297 0.29292 0.81936 0.0
H1371 H 0.0696 0.25952 0.79635 0.0
H1372 H 0.12796 0.33785 0.7669 0.0
H1373 H 0.12096 0.31229 0.90293 0.0
H1374 H 0.11903 0.2969 0.86672 0.0
H1375 H 0.09871 0.3005 0.87759 0.0
C1376 C 0.11691 0.27957 0.76671 0.0
C1377 C 0.09699 0.26529 0.77195 0.0
C1378 C 0.12459 0.29852 0.78037 0.0
C1379 C 0.11251 0.3034 0.79982 0.0
C1380 C 0.09252 0.28933 0.80455 0.0
H1381 H 0.15099 0.42398 0.86738 0.0
H1382 H 0.13141 0.39069 0.84367 0.0
C1383 C 0.08482 0.27035 0.79089 0.0
C1384 C 0.12117 0.32306 0.81605 0.0
H1385 H 0.13364 0.34641 0.89404 0.0
C1386 C 0.1291 0.33978 0.79468 0.0
C1387 C 0.12275 0.32538 0.85229 0.0
C1388 C 0.11507 0.30786 0.87633 0.0
C1389 C 0.13883 0.35888 0.80865 0.0
C1390 C 0.14039 0.36119 0.84489 0.0
C1391 C 0.13226 0.34448 0.86627 0.0
C1392 C 0.1514 0.38087 0.86106 0.0
C1393 C 0.14793 0.37642 0.78456 0.0
C1394 C 0.16881 0.3861 0.87942 0.0
C1395 C 0.17985 0.40499 0.89348 0.0
C1396 C 0.17349 0.41881 0.88976 0.0
C1397 C 0.15592 0.41344 0.87169 0.0
C1398 C 0.14488 0.39455 0.85763 0.0
H1399 H 0.1489 0.37204 0.75768 0.0
H1400 H 0.1387 0.38355 0.78438 0.0
H1401 H 0.16299 0.38755 0.79338 0.0
H1402 H 0.17405 0.37569 0.88225 0.0
H1403 H 0.19342 0.40883 0.9071 0.0
H1404 H 0.59058 0.73559 0.86978 0.0
H1405 H 0.62321 0.74819 0.84366 0.0
H1406 H 0.64626 0.80019 0.90774 0.0
H1407 H 0.61373 0.7875 0.93442 0.0
H1408 H 0.64267 0.78497 0.80802 0.0
H1409 H 0.68816 0.78261 0.91579 0.0
H1410 H 0.66149 0.76786 0.91526 0.0
H1411 H 0.67343 0.79354 0.92705 0.0
C1412 C 0.60275 0.74935 0.87919 0.0
C1413 C 0.59979 0.7604 0.90466 0.0
C1414 C 0.62131 0.7566 0.864 0.0
C1415 C 0.63715 0.77492 0.87424 0.0
C1416 C 0.63429 0.7858 0.90008 0.0
H1417 H 0.75194 0.8637 0.81588 0.0
H1418 H 0.71966 0.84175 0.84148 0.0
C1419 C 0.61573 0.77863 0.91509 0.0
C1420 C 0.65615 0.7837 0.85569 0.0
H1421 H 0.7057 0.80361 0.86811 0.0
C1422 C 0.65646 0.78877 0.82088 0.0
C1423 C 0.674 0.78858 0.87272 0.0
C1424 C 0.67431 0.78272 0.90969 0.0
C1425 C 0.67436 0.79964 0.80308 0.0
C1426 C 0.69229 0.80519 0.82052 0.0
C1427 C 0.6919 0.79938 0.85492 0.0
C1428 C 0.71167 0.81824 0.80441 0.0
C1429 C 0.67399 0.80597 0.76642 0.0
C1430 C 0.71776 0.81228 0.77499 0.0
C1431 C 0.73614 0.8249 0.76006 0.0
C1432 C 0.74878 0.84351 0.77472 0.0
C1433 C 0.74252 0.84945 0.80401 0.0
C1434 C 0.72416 0.83689 0.8188 0.0
H1435 H 0.65932 0.80398 0.75929 0.0
H1436 H 0.68537 0.82172 0.76253 0.0
H1437 H 0.67731 0.79691 0.74857 0.0
H1438 H 0.70835 0.79787 0.76365 0.0
H1439 H 0.7403 0.82013 0.73694 0.0
H1440 H 0.24111 0.81767 0.81631 0.0
H1441 H 0.2279 0.83699 0.7896 0.0
H1442 H 0.24134 0.87227 0.88198 0.0
H1443 H 0.25505 0.85325 0.90846 0.0
H1444 H 0.19675 0.83832 0.8115 0.0
H1445 H 0.26062 0.91453 0.80877 0.0
H1446 H 0.26332 0.89322 0.81668 0.0
H1447 H 0.25621 0.90385 0.85109 0.0
C1448 C 0.24149 0.82975 0.8307 0.0
C1449 C 0.24918 0.8341 0.86431 0.0
C1450 C 0.23402 0.84079 0.8154 0.0
C1451 C 0.2339 0.85625 0.83359 0.0
C1452 C 0.24181 0.8608 0.86708 0.0
H1453 H 0.14986 0.89503 0.81272 0.0
H1454 H 0.1701 0.88054 0.82885 0.0
C1455 C 0.24956 0.84988 0.88226 0.0
C1456 C 0.22362 0.86615 0.81884 0.0
H1457 H 0.22851 0.91124 0.80157 0.0
C1458 C 0.2038 0.85426 0.80895 0.0
C1459 C 0.23289 0.88691 0.81508 0.0
C1460 C 0.2545 0.90035 0.82312 0.0
C1461 C 0.19277 0.86258 0.7965 0.0
C1462 C 0.20167 0.88337 0.7948 0.0
C1463 C 0.22169 0.89529 0.8034 0.0
C1464 C 0.19008 0.89291 0.78552 0.0
C1465 C 0.17167 0.849 0.78534 0.0
C1466 C 0.195 0.90511 0.75635 0.0
C1467 C 0.18351 0.91353 0.74718 0.0
C1468 C 0.16707 0.90994 0.76726 0.0
C1469 C 0.16237 0.89791 0.79665 0.0
C1470 C 0.17389 0.88961 0.80587 0.0
H1471 H 0.16911 0.8341 0.7784 0.0
H1472 H 0.1616 0.84719 0.80696 0.0
H1473 H 0.16773 0.85516 0.76287 0.0
H1474 H 0.20746 0.90778 0.74034 0.0
H1475 H 0.1872 0.92239 0.72398 0.0
H1476 H 0.93779 0.42086 0.59193 0.0
H1477 H 0.96987 0.43136 0.56499 0.0
H1478 H 0.95827 0.46502 0.48977 0.0
H1479 H 0.9259 0.45393 0.51558 0.0
H1480 H 0.97319 0.44212 0.46115 0.0
H1481 H 0.0181 0.48696 0.57275 0.0
H1482 H 0.00042 0.46158 0.58197 0.0
H1483 H 0.99197 0.47821 0.56915 0.0
C1484 C 0.9419 0.43017 0.56928 0.0
C1485 C 0.92918 0.4363 0.5555 0.0
C1486 C 0.96034 0.43639 0.55423 0.0
C1487 C 0.96643 0.44904 0.52555 0.0
C1488 C 0.95379 0.45522 0.51187 0.0
H1489 H 0.06647 0.51901 0.39894 0.0
H1490 H 0.03353 0.49934 0.42454 0.0
C1491 C 0.93538 0.44897 0.52679 0.0
C1492 C 0.98601 0.45612 0.50968 0.0
H1493 H 0.03542 0.4858 0.52398 0.0
C1494 C 0.98683 0.45156 0.47492 0.0
C1495 C 0.00371 0.46837 0.52783 0.0
C1496 C 0.00362 0.47424 0.56491 0.0
C1497 C 0.00493 0.45926 0.45756 0.0
C1498 C 0.02255 0.47198 0.47542 0.0
C1499 C 0.02181 0.476 0.51048 0.0
C1500 C 0.04183 0.48238 0.45773 0.0
C1501 C 0.00508 0.45388 0.42024 0.0
C1502 C 0.05734 0.47943 0.46824 0.0
C1503 C 0.07609 0.49063 0.45368 0.0
C1504 C 0.07955 0.50493 0.42847 0.0
C1505 C 0.06401 0.50783 0.41793 0.0
C1506 C 0.04524 0.49655 0.43236 0.0
H1507 H 0.99127 0.44013 0.41311 0.0
H1508 H 0.00631 0.46602 0.40361 0.0
H1509 H 0.01791 0.45187 0.41472 0.0
H1510 H 0.05503 0.46879 0.48823 0.0
H1511 H 0.08803 0.48864 0.46312 0.0
H1512 H 0.49129 0.55675 0.40655 0.0
H1513 H 0.51092 0.54266 0.42895 0.0
H1514 H 0.54416 0.59425 0.49253 0.0
H1515 H 0.52436 0.60824 0.47083 0.0
H1516 H 0.55506 0.56066 0.4303 0.0
H1517 H 0.51867 0.54493 0.5592 0.0
H1518 H 0.50788 0.54932 0.52141 0.0
H1519 H 0.52858 0.56957 0.54234 0.0
C1520 C 0.50292 0.56515 0.42506 0.0
C1521 C 0.50654 0.58371 0.43654 0.0
C1522 C 0.51412 0.55714 0.4377 0.0
C1523 C 0.52889 0.56745 0.46236 0.0
C1524 C 0.53279 0.58613 0.47346 0.0
H1525 H 0.59322 0.52401 0.58407 0.0
H1526 H 0.58115 0.54499 0.56014 0.0
C1527 C 0.52165 0.5942 0.4607 0.0
C1528 C 0.53951 0.55814 0.47755 0.0
H1529 H 0.54261 0.53552 0.55061 0.0
C1530 C 0.55248 0.55526 0.45665 0.0
C1531 C 0.5361 0.55127 0.51197 0.0
C1532 C 0.52197 0.55376 0.53513 0.0
C1533 C 0.56205 0.54541 0.46926 0.0
C1534 C 0.55811 0.5379 0.50332 0.0
C1535 C 0.54554 0.54128 0.52449 0.0
C1536 C 0.56609 0.52567 0.517 0.0
C1537 C 0.57632 0.54318 0.44605 0.0
C1538 C 0.56129 0.50772 0.50099 0.0
C1539 C 0.56836 0.49585 0.51435 0.0
C1540 C 0.58031 0.50172 0.54397 0.0
C1541 C 0.58467 0.51945 0.56049 0.0
C1542 C 0.57763 0.53136 0.54706 0.0
H1543 H 0.58221 0.55464 0.4255 0.0
H1544 H 0.58893 0.54418 0.46098 0.0
H1545 H 0.56851 0.5285 0.43333 0.0
H1546 H 0.55192 0.50279 0.47833 0.0
H1547 H 0.56462 0.48216 0.50128 0.0
H1548 H 0.45936 0.94142 0.40407 0.0
H1549 H 0.47359 0.97385 0.43174 0.0
H1550 H 0.41686 0.95747 0.4764 0.0
H1551 H 0.40277 0.9248 0.45013 0.0
H1552 H 0.46393 0.00383 0.42819 0.0
H1553 H 0.45352 0.97214 0.56015 0.0
H1554 H 0.45083 0.95792 0.5218 0.0
H1555 H 0.4314 0.96253 0.53467 0.0
C1556 C 0.44989 0.94483 0.41951 0.0
C1557 C 0.42989 0.93069 0.42443 0.0
C1558 C 0.45801 0.96333 0.4352 0.0
C1559 C 0.44629 0.96792 0.45633 0.0
C1560 C 0.42616 0.9541 0.46042 0.0
H1561 H 0.48911 0.08688 0.53726 0.0
H1562 H 0.46874 0.05472 0.50996 0.0
C1563 C 0.41805 0.93554 0.44483 0.0
C1564 C 0.45546 0.98688 0.47519 0.0
H1565 H 0.46699 0.00668 0.55609 0.0
C1566 C 0.46452 0.0045 0.45615 0.0
C1567 C 0.45638 0.98759 0.51165 0.0
C1568 C 0.44768 0.96906 0.53335 0.0
C1569 C 0.47466 0.02292 0.47263 0.0
C1570 C 0.47541 0.02363 0.5091 0.0
C1571 C 0.4662 0.00601 0.52814 0.0
C1572 C 0.48662 0.04249 0.52793 0.0
C1573 C 0.48505 0.04138 0.45087 0.0
C1574 C 0.50296 0.04595 0.54809 0.0
C1575 C 0.51436 0.06415 0.56437 0.0
C1576 C 0.50945 0.07907 0.56106 0.0
C1577 C 0.49286 0.07544 0.54134 0.0
C1578 C 0.48142 0.0572 0.52517 0.0
H1579 H 0.48689 0.03799 0.42373 0.0
H1580 H 0.47619 0.04889 0.45066 0.0
H1581 H 0.49986 0.05182 0.46163 0.0
H1582 H 0.50718 0.03473 0.55049 0.0
H1583 H 0.52719 0.06667 0.57915 0.0
H1584 H 0.2169 0.03698 0.36275 0.0
H1585 H 0.22645 0.03091 0.41972 0.0
H1586 H 0.16529 0.98898 0.4418 0.0
H1587 H 0.15587 0.99425 0.38496 0.0
H1588 H 0.21803 0.03937 0.47814 0.0
H1589 H 0.18898 0.95956 0.48251 0.0
H1590 H 0.19144 0.97221 0.44222 0.0
H1591 H 0.1692 0.96298 0.4678 0.0
C1592 C 0.20558 0.02612 0.37952 0.0
C1593 C 0.18561 0.01611 0.36933 0.0
C1594 C 0.21106 0.02265 0.41204 0.0
C1595 C 0.19667 0.00917 0.43494 0.0
C1596 C 0.17683 -0.00112 0.42432 0.0
H1597 H 0.16852 0.01903 0.63061 0.0
H1598 H 0.1838 0.02498 0.57429 0.0
C1599 C 0.17139 0.0021 0.39179 0.0
C1600 C 0.20158 0.00769 0.47146 0.0
H1601 H 0.18574 0.97441 0.53739 0.0
C1602 C 0.21151 0.02513 0.49096 0.0
C1603 C 0.19393 0.98924 0.48842 0.0
C1604 C 0.18554 0.97001 0.46891 0.0
C1605 C 0.21173 0.02455 0.52711 0.0
C1606 C 0.20105 0.0061 0.54412 0.0
C1607 C 0.19339 0.98866 0.52458 0.0
C1608 C 0.19478 0.00458 0.58072 0.0
C1609 C 0.22273 0.04378 0.54659 0.0
C1610 C 0.19549 0.99087 0.60333 0.0
C1611 C 0.18618 0.98701 0.63556 0.0
C1612 C 0.17608 0.99687 0.64575 0.0
C1613 C 0.17628 0.01128 0.62379 0.0
C1614 C 0.18528 0.01489 0.59153 0.0
H1615 H 0.2366 0.05415 0.53287 0.0
H1616 H 0.21351 0.05091 0.54779 0.0
H1617 H 0.22649 0.04157 0.57323 0.0
H1618 H 0.2026 0.98262 0.59552 0.0
H1619 H 0.18635 0.97586 0.65196 0.0
H1620 H 0.99142 0.16773 0.6223 0.0
H1621 H 0.98993 0.17748 0.56303 0.0
H1622 H 0.0484 0.22803 0.5733 0.0
H1623 H 0.05008 0.21854 0.63285 0.0
H1624 H 0.00247 0.22034 0.5268 0.0
H1625 H 0.04653 0.18322 0.50175 0.0
H1626 H 0.031 0.17707 0.53945 0.0
H1627 H 0.05317 0.20064 0.53667 0.0
C1628 C 0.00379 0.1812 0.61233 0.0
C1629 C 0.02102 0.19214 0.63205 0.0
C1630 C 0.00283 0.18683 0.57856 0.0
C1631 C 0.01907 0.20341 0.56401 0.0
C1632 C 0.0357 0.21524 0.58434 0.0
H1633 H 0.03007 0.19392 0.34363 0.0
H1634 H 0.03957 0.21007 0.39997 0.0
C1635 C 0.03664 0.20971 0.61826 0.0
C1636 C 0.01984 0.20594 0.52631 0.0
H1637 H 0.03249 0.18994 0.45438 0.0
C1638 C 0.00936 0.21411 0.51073 0.0
C1639 C 0.02906 0.19801 0.50568 0.0
C1640 C 0.0406 0.18919 0.52149 0.0
C1641 C 0.0071 0.2137 0.47472 0.0
C1642 C 0.01495 0.20424 0.45422 0.0
C1643 C 0.02645 0.1972 0.46992 0.0
C1644 C 0.00951 0.19903 0.41748 0.0
C1645 C 0.99611 0.22313 0.45922 0.0
C1646 C 0.98949 0.18809 0.40798 0.0
C1647 C 0.98407 0.17921 0.37554 0.0
C1648 C -0.00144 0.18062 0.35245 0.0
C1649 C 0.0186 0.19244 0.36115 0.0
C1650 C 0.02403 0.20173 0.39326 0.0
H1651 H -0.00132 0.23624 0.47448 0.0
H1652 H 0.00062 0.22777 0.4321 0.0
H1653 H 0.98 0.21239 0.45987 0.0
H1654 H 0.97795 0.18522 0.42641 0.0
H1655 H 0.9685 0.17009 0.36955 0.0
H1656 H 0.8451 0.83188 0.62982 0.0
H1657 H 0.83675 0.82078 0.57017 0.0
H1658 H 0.78653 0.8295 0.57501 0.0
H1659 H 0.79461 0.84053 0.63492 0.0
H1660 H 0.7913 0.79181 0.52916 0.0
H1661 H 0.83848 0.87315 0.50863 0.0
H1662 H 0.84344 0.86164 0.54462 0.0
H1663 H 0.82142 0.86337 0.5443 0.0
C1664 C 0.83192 0.83087 0.61864 0.0
C1665 C 0.82077 0.83749 0.63687 0.0
C1666 C 0.8271 0.82438 0.58463 0.0
C1667 C 0.8111 0.82442 0.56839 0.0
C1668 C 0.79885 0.82926 0.58737 0.0
H1669 H 0.82553 0.84866 0.34916 0.0
H1670 H 0.80982 0.84302 0.40575 0.0
C1671 C 0.80358 0.83565 0.62152 0.0
C1672 C 0.8099 0.82345 0.53046 0.0
H1673 H 0.83077 0.85278 0.46029 0.0
C1674 C 0.7996 0.8051 0.51386 0.0
C1675 C 0.82055 0.84088 0.51083 0.0
C1676 C 0.83162 0.86095 0.52777 0.0
C1677 C 0.80037 0.8037 0.47777 0.0
C1678 C 0.8122 0.82106 0.45828 0.0
C1679 C 0.82165 0.83946 0.47505 0.0
C1680 C 0.81695 0.82067 0.42132 0.0
C1681 C 0.78865 0.78368 0.46107 0.0
C1682 C 0.82549 0.80944 0.41062 0.0
C1683 C 0.83415 0.81239 0.37804 0.0
C1684 C 0.8349 0.82702 0.35596 0.0
C1685 C 0.82535 0.83743 0.36582 0.0
C1686 C 0.81631 0.83417 0.3981 0.0
H1687 H 0.77497 0.77409 0.47594 0.0
H1688 H 0.7845 0.78484 0.43412 0.0
H1689 H 0.79764 0.7763 0.46084 0.0
H1690 H 0.82672 0.79936 0.42826 0.0
H1691 H 0.84147 0.8042 0.37118 0.0
H1692 H 0.84218 0.35831 0.96579 0.0
H1693 H 0.85453 0.36296 0.90671 0.0
H1694 H 0.85267 0.30694 0.91078 0.0
H1695 H 0.84036 0.30207 0.97011 0.0
H1696 H 0.88835 0.34994 0.86838 0.0
H1697 H 0.80751 0.31257 0.84043 0.0
H1698 H 0.81728 0.32977 0.87587 0.0
H1699 H 0.81694 0.3067 0.87841 0.0
C1700 C 0.84489 0.34719 0.95456 0.0
C1701 C 0.8399 0.32963 0.97245 0.0
C1702 C 0.85209 0.34997 0.92088 0.0
C1703 C 0.85445 0.33528 0.90459 0.0
C1704 C 0.85107 0.31848 0.92318 0.0
H1705 H 0.8356 0.32338 0.68463 0.0
H1706 H 0.84155 0.31485 0.74231 0.0
C1707 C 0.84392 0.31571 0.95699 0.0
C1708 C 0.85662 0.33581 0.86678 0.0
H1709 H 0.82915 0.32639 0.79381 0.0
C1710 C 0.87547 0.34457 0.85185 0.0
C1711 C 0.83973 0.32856 0.84556 0.0
C1712 C 0.81915 0.31879 0.86063 0.0
C1713 C 0.87787 0.34684 0.81584 0.0
C1714 C 0.86098 0.34056 0.79467 0.0
C1715 C 0.84212 0.33112 0.80986 0.0
C1716 C 0.86213 0.34504 0.75725 0.0
C1717 C 0.89841 0.356 0.80096 0.0
C1718 C 0.87253 0.36473 0.74574 0.0
C1719 C 0.86946 0.36958 0.71247 0.0
C1720 C 0.85553 0.35487 0.69059 0.0
C1721 C 0.8463 0.33503 0.70113 0.0
C1722 C 0.84971 0.33014 0.73406 0.0
H1723 H 0.90819 0.35297 0.8176 0.0
H1724 H 0.89828 0.3504 0.77458 0.0
H1725 H 0.90489 0.37228 0.79967 0.0
H1726 H 0.88182 0.37657 0.76327 0.0
H1727 H 0.87668 0.38502 0.70505 0.0
H1728 H 0.70583 0.54084 0.94904 0.0
H1729 H 0.69647 0.54657 0.89217 0.0
H1730 H 0.63497 0.50701 0.91616 0.0
H1731 H 0.64444 0.50034 0.97254 0.0
H1732 H 0.64353 0.49556 0.86149 0.0
H1733 H 0.67415 0.57551 0.84452 0.0
H1734 H 0.69344 0.57133 0.85938 0.0
H1735 H 0.67225 0.5647 0.88654 0.0
C1736 C 0.69027 0.53375 0.94253 0.0
C1737 C 0.67587 0.51993 0.96496 0.0
C1738 C 0.68489 0.53724 0.91007 0.0
C1739 C 0.66496 0.52744 0.89987 0.0
C1740 C 0.65044 0.51478 0.92342 0.0
H1741 H 0.62706 0.50649 0.68334 0.0
H1742 H 0.62745 0.51729 0.74272 0.0
C1743 C 0.65586 0.51091 0.95556 0.0
C1744 C 0.65983 0.52745 0.863 0.0
H1745 H 0.67209 0.55694 0.79155 0.0
C1746 C 0.64922 0.50904 0.84648 0.0
C1747 C 0.66723 0.54498 0.84318 0.0
C1748 C 0.6772 0.5652 0.85953 0.0
C1749 C 0.64714 0.50766 0.8106 0.0
C1750 C 0.65596 0.52513 0.79068 0.0
C1751 C 0.6655 0.54359 0.80706 0.0
C1752 C 0.65736 0.52397 0.75297 0.0
C1753 C 0.63663 0.48747 0.79396 0.0
C1754 C 0.67437 0.52498 0.73892 0.0
C1755 C 0.67416 0.51863 0.70522 0.0
C1756 C 0.65693 0.51121 0.68509 0.0
C1757 C 0.64052 0.51197 0.69826 0.0
C1758 C 0.64072 0.51822 0.7321 0.0
H1759 H 0.63118 0.47531 0.8132 0.0
H1760 H 0.62381 0.48579 0.77884 0.0
H1761 H 0.64675 0.48588 0.77582 0.0
H1762 H 0.6873 0.52931 0.75484 0.0
H1763 H 0.68712 0.51848 0.69572 0.0
H1764 H 0.51103 0.13522 0.7042 0.0
H1765 H 0.49534 0.12935 0.76061 0.0
H1766 H 0.4739 0.16918 0.73541 0.0
H1767 H 0.49062 0.17597 0.67961 0.0
H1768 H 0.49383 0.18059 0.79054 0.0
H1769 H 0.44347 0.10064 0.80688 0.0
H1770 H 0.46713 0.10486 0.79303 0.0
H1771 H 0.45288 0.1115 0.76508 0.0
C1772 C 0.50251 0.1423 0.71032 0.0
C1773 C 0.50225 0.15625 0.68778 0.0
C1774 C 0.49332 0.13876 0.74252 0.0
C1775 C 0.48322 0.14866 0.75229 0.0
C1776 C 0.4816 0.16136 0.7285 0.0
H1777 H 0.46022 0.16944 0.96522 0.0
H1778 H 0.45217 0.15878 0.90513 0.0
C1779 C 0.49119 0.16527 0.69667 0.0
C1780 C 0.47779 0.1487 0.78899 0.0
H1781 H 0.45858 0.11927 0.86015 0.0
C1782 C 0.48558 0.16713 0.80544 0.0
C1783 C 0.46709 0.13119 0.80868 0.0
C1784 C 0.45701 0.11097 0.79231 0.0
C1785 C 0.48407 0.16854 0.84114 0.0
C1786 C 0.47462 0.15107 0.86102 0.0
C1787 C 0.46593 0.13261 0.84468 0.0
C1788 C 0.47579 0.15223 0.89896 0.0
C1789 C 0.4936 0.18873 0.85775 0.0
C1790 C 0.49124 0.15127 0.9155 0.0
C1791 C 0.49604 0.15754 0.94963 0.0
C1792 C 0.48542 0.16483 0.96771 0.0
C1793 C 0.4688 0.16404 0.95195 0.0
C1794 C 0.46409 0.15788 0.91769 0.0
H1795 H 0.50103 0.20087 0.83863 0.0
H1796 H 0.48221 0.19064 0.87148 0.0
H1797 H 0.50469 0.19009 0.87711 0.0
H1798 H 0.50048 0.14704 0.90126 0.0
H1799 H 0.50878 0.15773 0.96111 0.0
H1800 H 0.50265 0.68632 0.29139 0.0
H1801 H 0.51781 0.69047 0.2351 0.0
H1802 H 0.54189 0.65372 0.26633 0.0
H1803 H 0.52566 0.64857 0.32262 0.0
H1804 H 0.55344 0.70432 0.20924 0.0
H1805 H 0.51019 0.62306 0.18535 0.0
H1806 H 0.50615 0.63393 0.22316 0.0
H1807 H 0.52776 0.63141 0.22002 0.0
C1808 C 0.51135 0.67928 0.28654 0.0
C1809 C 0.51266 0.66682 0.31119 0.0
C1810 C 0.5201 0.68173 0.2543 0.0
C1811 C 0.53064 0.67204 0.24612 0.0
C1812 C 0.53332 0.66083 0.27165 0.0
H1813 H 0.55293 0.6992 0.02449 0.0
H1814 H 0.56331 0.69427 0.08161 0.0
C1815 C 0.52415 0.658 0.30383 0.0
C1816 C 0.53692 0.67254 0.20984 0.0
H1817 H 0.52386 0.64356 0.13789 0.0
C1818 C 0.54735 0.69104 0.19358 0.0
C1819 C 0.5292 0.65514 0.18961 0.0
C1820 C 0.51761 0.63474 0.20523 0.0
C1821 C 0.54804 0.69273 0.15752 0.0
C1822 C 0.53881 0.67532 0.13724 0.0
C1823 C 0.5307 0.65684 0.15357 0.0
C1824 C 0.5335 0.67574 0.10062 0.0
C1825 C 0.55686 0.71311 0.1418 0.0
C1826 C 0.5134 0.66589 0.09155 0.0
C1827 C 0.50749 0.66821 0.05885 0.0
C1828 C 0.52154 0.68072 0.03462 0.0
C1829 C 0.54176 0.68972 0.04292 0.0
C1830 C 0.54771 0.68702 0.07558 0.0
H1831 H 0.56073 0.72477 0.16158 0.0
H1832 H 0.57057 0.71658 0.12768 0.0
H1833 H 0.54638 0.71377 0.12324 0.0
H1834 H 0.50213 0.65708 0.11036 0.0
H1835 H 0.49181 0.66103 0.05328 0.0
H1836 H 0.35481 0.84602 0.02424 0.0
H1837 H 0.35712 0.85771 0.08339 0.0
H1838 H 0.30006 0.85317 0.07335 0.0
H1839 H 0.29758 0.84158 0.01391 0.0
H1840 H 0.34173 0.8891 0.12112 0.0
H1841 H 0.30429 0.80766 0.14314 0.0
H1842 H 0.32212 0.81844 0.10878 0.0
H1843 H 0.29896 0.81789 0.10563 0.0
C1844 C 0.34301 0.84811 0.03414 0.0
C1845 C 0.32583 0.84249 0.0146 0.0
C1846 C 0.34443 0.85492 0.06788 0.0
C1847 C 0.32873 0.85619 0.08257 0.0
C1848 C 0.31237 0.85239 0.06222 0.0
H1849 H 0.31302 0.83253 0.30182 0.0
H1850 H 0.3048 0.8387 0.24404 0.0
C1851 C 0.31097 0.84569 0.02831 0.0
C1852 C 0.32778 0.85737 0.12041 0.0
H1853 H 0.31676 0.82814 0.19146 0.0
C1854 C 0.336 0.87583 0.13671 0.0
C1855 C 0.32003 0.83998 0.14042 0.0
C1856 C 0.31077 0.81979 0.12384 0.0
C1857 C 0.33735 0.87733 0.1729 0.0
C1858 C 0.33081 0.85995 0.19289 0.0
C1859 C 0.32174 0.84149 0.17633 0.0
C1860 C 0.33492 0.86029 0.23038 0.0
C1861 C 0.34588 0.89748 0.1892 0.0
C1862 C 0.35444 0.871 0.24258 0.0
C1863 C 0.35911 0.86777 0.27587 0.0
C1864 C 0.3444 0.85337 0.29719 0.0
C1865 C 0.32469 0.84359 0.28582 0.0
C1866 C 0.31997 0.84714 0.25283 0.0
H1867 H 0.34263 0.90735 0.17327 0.0
H1868 H 0.33998 0.89661 0.21559 0.0
H1869 H 0.36219 0.90435 0.19076 0.0
H1870 H 0.36635 0.88081 0.22563 0.0
H1871 H 0.37445 0.87546 0.28385 0.0
H1872 H 0.13471 0.50293 0.29725 0.0
H1873 H 0.12907 0.48797 0.2404 0.0
H1874 H 0.1714 0.46918 0.26195 0.0
H1875 H 0.17794 0.48519 0.31839 0.0
H1876 H 0.18191 0.49039 0.20826 0.0
H1877 H 0.10283 0.43733 0.19018 0.0
H1878 H 0.10543 0.45993 0.20652 0.0
H1879 H 0.11333 0.44594 0.23248 0.0
C1880 C 0.1424 0.4951 0.29033 0.0
C1881 C 0.15702 0.49552 0.312 0.0
C1882 C 0.13897 0.4863 0.25783 0.0
C1883 C 0.14968 0.47726 0.24681 0.0
C1884 C 0.16296 0.47608 0.26982 0.0
H1885 H 0.16919 0.46216 0.02855 0.0
H1886 H 0.15868 0.45176 0.08805 0.0
C1887 C 0.16673 0.48527 0.30203 0.0
C1888 C 0.15006 0.47295 0.20962 0.0
H1889 H 0.12089 0.4555 0.1378 0.0
C1890 C 0.16854 0.48217 0.19311 0.0
C1891 C 0.13268 0.46229 0.18959 0.0
C1892 C 0.1125 0.45066 0.2058 0.0
C1893 C 0.17005 0.48226 0.15718 0.0
C1894 C 0.15264 0.47305 0.13717 0.0
C1895 C 0.13418 0.46275 0.15341 0.0
C1896 C 0.15376 0.47602 0.09956 0.0
C1897 C 0.19023 0.49325 0.1406 0.0
C1898 C 0.15374 0.49269 0.08627 0.0
C1899 C 0.15994 0.49884 0.0525 0.0
C1900 C 0.16625 0.48836 0.03154 0.0
C1901 C 0.16458 0.47066 0.04409 0.0
C1902 C 0.15847 0.46459 0.07799 0.0
H1903 H 0.20237 0.4991 0.15991 0.0
H1904 H 0.19222 0.48329 0.12271 0.0
H1905 H 0.19148 0.50581 0.12519 0.0
H1906 H 0.15025 0.50172 0.10279 0.0
H1907 H 0.16085 0.51241 0.04355 0.0
H1908 H 0.1643 0.98587 0.15346 0.0
H1909 H 0.16132 0.98126 0.09051 0.0
H1910 H 0.16231 0.0367 0.07929 0.0
H1911 H 0.16505 0.04118 0.14211 0.0
H1912 H 0.13223 0.00484 0.04073 0.0
H1913 H 0.20642 0.01305 0.0203 0.0
H1914 H 0.19126 0.99505 0.05209 0.0
H1915 H 0.19977 0.02076 0.05956 0.0
C1916 C 0.16388 0.997 0.13739 0.0
C1917 C 0.16514 0.01397 0.15224 0.0
C1918 C 0.16228 0.99444 0.10159 0.0
C1919 C 0.16191 0.0088 0.08031 0.0
C1920 C 0.16272 0.02554 0.09529 0.0
H1921 H 0.17843 0.02369 0.85839 0.0
H1922 H 0.18067 0.02821 0.92135 0.0
C1923 C 0.16436 0.02811 0.13101 0.0
C1924 C 0.16052 0.00639 0.04239 0.0
H1925 H 0.18524 0.0039 0.9717 0.0
C1926 C 0.1438 0.00463 0.02559 0.0
C1927 C 0.17578 0.0064 0.02278 0.0
C1928 C 0.19443 0.00908 0.03945 0.0
C1929 C 0.1418 0.00259 0.98962 0.0
C1930 C 0.15684 0.00211 0.9701 0.0
C1931 C 0.17369 0.00415 0.98684 0.0
C1932 C 0.15535 -0.00052 0.93223 0.0
C1933 C 0.12376 0.00124 0.97272 0.0
C1934 C 0.14048 0.98181 0.91771 0.0
C1935 C 0.13921 0.97926 0.88196 0.0
C1936 C 0.15286 0.99429 0.86027 0.0
C1937 C 0.16775 0.01195 0.87476 0.0
C1938 C 0.16905 0.0145 0.91055 0.0
H1939 H 0.11604 0.0065 0.9901 0.0
H1940 H 0.12781 0.01005 0.94855 0.0
H1941 H 0.11326 0.9856 0.96602 0.0
H1942 H 0.12994 0.96996 0.93404 0.0
H1943 H 0.12754 0.96556 0.87122 0.0
H1944 H -0.00058 0.13603 0.13118 0.0
H1945 H 0.00131 0.13859 0.068 0.0
H1946 H 0.99251 0.18882 0.07268 0.0
H1947 H 0.99066 0.18633 0.13591 0.0
H1948 H 0.96887 0.13883 0.0236 0.0
H1949 H 0.04401 0.20503 0.01124 0.0
H1950 H 0.03659 0.1892 0.0488 0.0
H1951 H 0.02732 0.20583 0.0424 0.0
C1952 C -0.00177 0.1478 0.11867 0.0
C1953 C 0.9951 0.16113 0.13814 0.0
C1954 C -0.00084 0.14915 0.08273 0.0
C1955 C -0.00286 0.16394 0.06593 0.0
C1956 C 0.99424 0.17742 0.08535 0.0
H1957 H 0.00939 0.19658 0.84909 0.0
H1958 H 0.00357 0.19499 0.91152 0.0
C1959 C 0.99318 0.17598 0.12128 0.0
C1960 C -0.00247 0.16493 0.02795 0.0
H1961 H 0.02622 0.1914 0.95997 0.0
C1962 C 0.98136 0.15031 0.00956 0.0
C1963 C 0.01378 0.18006 0.01003 0.0
C1964 C 0.03152 0.19593 0.02894 0.0
C1965 C 0.98102 0.15042 0.97338 0.0
C1966 C -0.00247 0.16526 0.95533 0.0
C1967 C 0.01358 0.18005 0.97387 0.0
C1968 C -0.00108 0.16538 0.91724 0.0
C1969 C 0.96289 0.13482 0.95492 0.0
C1970 C -0.00193 0.14922 0.89981 0.0
C1971 C 0.00122 0.15007 0.86424 0.0
C1972 C 0.00549 0.16719 0.84572 0.0
C1973 C 0.00602 0.18322 0.86299 0.0
C1974 C 0.00273 0.18232 0.89851 0.0
H1975 H 0.94959 0.12882 0.97168 0.0
H1976 H 0.95998 0.14077 0.931 0.0
H1977 H 0.9652 0.12236 0.94777 0.0
H1978 H 0.99571 0.13623 0.91386 0.0
H1979 H 0.00115 0.13771 0.85148 0.0
H1980 H 0.85021 0.88566 0.86395 0.0
H1981 H 0.85381 0.8824 0.92609 0.0
H1982 H 0.85228 0.82711 0.90839 0.0
H1983 H 0.84838 0.83027 0.84612 0.0
H1984 H 0.82682 0.82585 0.96157 0.0
H1985 H 0.90299 0.88912 0.97749 0.0
H1986 H 0.88639 0.89527 0.95602 0.0
H1987 H 0.89277 0.87848 0.93592 0.0
C1988 C 0.85066 0.87285 0.87346 0.0
C1989 C 0.84892 0.85814 0.85062 0.0
C1990 C 0.85287 0.87107 0.90879 0.0
C1991 C 0.85353 0.85463 0.92172 0.0
C1992 C 0.85188 0.83994 0.89884 0.0
H1993 H 0.88501 0.84191 0.13171 0.0
H1994 H 0.8832 0.84386 0.06871 0.0
C1995 C 0.8497 0.84175 0.86344 0.0
C1996 C 0.85521 0.85245 0.95928 0.0
H1997 H 0.88479 0.87473 0.029 0.0
C1998 C 0.83953 0.83645 0.97633 0.0
C1999 C 0.87192 0.86621 0.97831 0.0
C2000 C 0.88957 0.88315 0.96102 0.0
C2001 C 0.83989 0.8341 0.01217 0.0
C2002 C 0.85626 0.84829 0.03137 0.0
C2003 C 0.87217 0.86401 0.0142 0.0
C2004 C 0.85721 0.84702 0.06934 0.0
C2005 C 0.82285 0.81639 0.02914 0.0
C2006 C 0.84336 0.84842 0.09044 0.0
C2007 C 0.84435 0.84723 0.1263 0.0
C2008 C 0.85921 0.84467 0.14146 0.0
C2009 C 0.87326 0.8436 0.1204 0.0
C2010 C 0.87228 0.8448 0.08457 0.0
H2011 H 0.81404 0.80453 0.01017 0.0
H2012 H 0.8282 0.81024 0.04959 0.0
H2013 H 0.81292 0.82097 0.04132 0.0
H2014 H 0.83186 0.85053 0.07918 0.0
H2015 H 0.83348 0.84823 0.14221 0.0
H2016 H 0.84437 0.35902 0.18747 0.0
H2017 H 0.84562 0.3636 0.25038 0.0
H2018 H 0.79205 0.30732 0.26116 0.0
H2019 H 0.79069 0.30286 0.19833 0.0
H2020 H 0.79283 0.33887 0.29969 0.0
H2021 H 0.85981 0.33254 0.32087 0.0
H2022 H 0.86236 0.35031 0.28882 0.0
H2023 H 0.84551 0.32448 0.28156 0.0
C2024 C 0.83291 0.3477 0.20342 0.0
C2025 C 0.81757 0.33052 0.18843 0.0
C2026 C 0.83367 0.35025 0.2392 0.0
C2027 C 0.81908 0.33565 0.26036 0.0
C2028 C 0.80351 0.31868 0.24526 0.0
H2029 H 0.82382 0.32481 0.48334 0.0
H2030 H 0.82005 0.31853 0.42085 0.0
C2031 C 0.80278 0.31611 0.20953 0.0
C2032 C 0.81997 0.33808 0.29828 0.0
H2033 H 0.84775 0.34202 0.36903 0.0
C2034 C 0.8048 0.33952 0.31491 0.0
C2035 C 0.83547 0.33862 0.318 0.0
C2036 C 0.85165 0.33624 0.30155 0.0
C2037 C 0.80493 0.34193 0.35081 0.0
C2038 C 0.82075 0.3431 0.3704 0.0
C2039 C 0.83571 0.34124 0.35385 0.0
C2040 C 0.82223 0.34653 0.40809 0.0
C2041 C 0.78806 0.34301 0.36754 0.0
C2042 C 0.82473 0.36434 0.42142 0.0
C2043 C 0.82688 0.3679 0.4569 0.0
C2044 C 0.82671 0.35378 0.47949 0.0
C2045 C 0.82401 0.33588 0.46624 0.0
C2046 C 0.8219 0.33233 0.43072 0.0
H2047 H 0.77488 0.337 0.35046 0.0
H2048 H 0.78376 0.33473 0.39229 0.0
H2049 H 0.79278 0.35868 0.37315 0.0
H2050 H 0.82529 0.37559 0.40434 0.0
H2051 H 0.8288 0.38174 0.46672 0.0
H2052 H 0.67753 0.47455 0.18582 0.0
H2053 H 0.67606 0.47479 0.2491 0.0
H2054 H 0.68253 0.53293 0.24619 0.0
H2055 H 0.68397 0.53273 0.18288 0.0
H2056 H 0.70819 0.50803 0.2934 0.0
H2057 H 0.63194 0.49581 0.30852 0.0
H2058 H 0.63959 0.48806 0.27044 0.0
H2059 H 0.64787 0.51374 0.27716 0.0
C2060 C 0.67829 0.48721 0.19875 0.0
C2061 C 0.68066 0.50355 0.17974 0.0
C2062 C 0.67761 0.48739 0.23475 0.0
C2063 C 0.6791 0.50384 0.25208 0.0
C2064 C 0.68121 0.52007 0.23312 0.0
H2065 H 0.66803 0.52439 0.46893 0.0
H2066 H 0.67312 0.52816 0.40631 0.0
C2067 C 0.68204 0.51995 0.19714 0.0
C2068 C 0.67899 0.50424 0.29011 0.0
H2069 H 0.65055 0.50101 0.35916 0.0
C2070 C 0.69562 0.50651 0.30791 0.0
C2071 C 0.66263 0.50244 0.30865 0.0
C2072 C 0.64439 0.49977 0.29041 0.0
C2073 C 0.69636 0.50709 0.34409 0.0
C2074 C 0.6798 0.50484 0.36276 0.0
C2075 C 0.66324 0.50277 0.3448 0.0
C2076 C 0.67896 0.50396 0.40093 0.0
C2077 C 0.71499 0.51046 0.36187 0.0
C2078 C 0.68079 0.48927 0.41867 0.0
C2079 C 0.67809 0.48726 0.45437 0.0
C2080 C 0.67326 0.49974 0.47271 0.0
C2081 C 0.67184 0.51468 0.45516 0.0
C2082 C 0.67469 0.51679 0.41952 0.0
H2083 H 0.72804 0.51801 0.34458 0.0
H2084 H 0.7179 0.51946 0.3856 0.0
H2085 H 0.71332 0.49598 0.36923 0.0
H2086 H 0.68355 0.47887 0.40476 0.0
H2087 H 0.67889 0.4754 0.46739 0.0
H2088 H 0.50948 0.15443 0.18353 0.0
H2089 H 0.51376 0.15339 0.24621 0.0
H2090 H 0.51732 0.21009 0.25666 0.0
H2091 H 0.51349 0.2113 0.19406 0.0
H2092 H 0.5462 0.20718 0.29378 0.0
H2093 H 0.47149 0.14309 0.319 0.0
H2094 H 0.48557 0.13867 0.28722 0.0
H2095 H 0.47797 0.15652 0.27875 0.0
C2096 C 0.5112 0.16661 0.19938 0.0
C2097 C 0.5109 0.1828 0.18438 0.0
C2098 C 0.51351 0.16598 0.23504 0.0
C2099 C 0.51549 0.18151 0.25607 0.0
C2100 C 0.51565 0.19789 0.24089 0.0
H2101 H 0.50196 0.18076 0.47846 0.0
H2102 H 0.49898 0.18284 0.41568 0.0
C2103 C 0.51338 0.19854 0.2053 0.0
C2104 C 0.51755 0.18084 0.29391 0.0
H2105 H 0.49383 0.15475 0.36614 0.0
C2106 C 0.53476 0.19574 0.30965 0.0
C2107 C 0.50245 0.16605 0.3145 0.0
C2108 C 0.48323 0.15026 0.29914 0.0
C2109 C 0.5374 0.19611 0.3455 0.0
C2110 C 0.52255 0.18099 0.36598 0.0
C2111 C 0.50524 0.16623 0.35029 0.0
C2112 C 0.52466 0.18023 0.40378 0.0
C2113 C 0.55588 0.21287 0.36119 0.0
C2114 C 0.54001 0.17799 0.41773 0.0
C2115 C 0.54175 0.17691 0.45341 0.0
C2116 C 0.52803 0.17782 0.47559 0.0
C2117 C 0.51269 0.18007 0.46169 0.0
C2118 C 0.51097 0.18119 0.42599 0.0
H2119 H 0.56312 0.22577 0.3435 0.0
H2120 H 0.55254 0.21777 0.38591 0.0
H2121 H 0.56656 0.20777 0.36655 0.0
H2122 H 0.55052 0.17689 0.40102 0.0
H2123 H 0.55377 0.17531 0.46371 0.0
H2124 H 0.53264 0.68608 0.81325 0.0
H2125 H 0.53143 0.6833 0.75006 0.0
H2126 H 0.47025 0.66812 0.75132 0.0
H2127 H 0.47149 0.67136 0.81434 0.0
H2128 H 0.4875 0.64327 0.70736 0.0
H2129 H 0.51882 0.7242 0.6866 0.0
H2130 H 0.52869 0.71568 0.72032 0.0
H2131 H 0.50418 0.71185 0.72427 0.0
C2132 C 0.51893 0.68205 0.79997 0.0
C2133 C 0.50213 0.67881 0.81853 0.0
C2134 C 0.51825 0.68044 0.76406 0.0
C2135 C 0.50076 0.67553 0.74633 0.0
C2136 C 0.48383 0.67184 0.76478 0.0
H2137 H 0.47195 0.67661 0.53154 0.0
H2138 H 0.47501 0.6799 0.5945 0.0
C2139 C 0.48452 0.67355 0.80068 0.0
C2140 C 0.5003 0.67487 0.70836 0.0
H2141 H 0.51121 0.70418 0.63708 0.0
C2142 C 0.49272 0.65654 0.69189 0.0
C2143 C 0.50704 0.69226 0.6886 0.0
C2144 C 0.51513 0.71219 0.70561 0.0
C2145 C 0.49172 0.65515 0.65578 0.0
C2146 C 0.49859 0.67257 0.63595 0.0
C2147 C 0.50606 0.6909 0.6525 0.0
C2148 C 0.4978 0.67194 0.59791 0.0
C2149 C 0.48306 0.63508 0.63905 0.0
C2150 C 0.50996 0.66687 0.57918 0.0
C2151 C 0.50842 0.66524 0.54331 0.0
C2152 C 0.49467 0.66863 0.52573 0.0
C2153 C 0.48288 0.67423 0.54447 0.0
C2154 C 0.48451 0.67597 0.58035 0.0
H2155 H 0.4752 0.62289 0.65794 0.0
H2156 H 0.4726 0.63349 0.61822 0.0
H2157 H 0.49513 0.63349 0.62721 0.0
H2158 H 0.52047 0.66394 0.59236 0.0
H2159 H 0.51776 0.66104 0.52932 0.0
H2160 H 0.36435 0.84092 0.80815 0.0
H2161 H 0.37038 0.84345 0.7455 0.0
H2162 H 0.31239 0.7929 0.72929 0.0
H2163 H 0.30647 0.79029 0.79167 0.0
H2164 H 0.34348 0.79319 0.68888 0.0
H2165 H 0.3414 0.86326 0.68028 0.0
H2166 H 0.35856 0.86293 0.71085 0.0
H2167 H 0.33248 0.84727 0.71754 0.0
C2168 C 0.35307 0.83026 0.79108 0.0
C2169 C 0.3349 0.81556 0.80434 0.0
C2170 C 0.35645 0.83176 0.75546 0.0
C2171 C 0.34169 0.81852 0.73285 0.0
C2172 C 0.3239 0.80329 0.74633 0.0
H2173 H 0.32122 0.82801 0.5166 0.0
H2174 H 0.31931 0.82407 0.57968 0.0
C2175 C 0.32052 0.80185 0.78182 0.0
C2176 C 0.34425 0.82095 0.69504 0.0
H2177 H 0.34709 0.85098 0.62863 0.0
C2178 C 0.34441 0.80587 0.67565 0.0
C2179 C 0.34513 0.83738 0.67798 0.0
C2180 C 0.34424 0.8536 0.69757 0.0
C2181 C 0.34544 0.80679 0.63948 0.0
C2182 C 0.34649 0.8233 0.62245 0.0
C2183 C 0.34635 0.83839 0.64186 0.0
C2184 C 0.34743 0.8251 0.58442 0.0
C2185 C 0.34489 0.78988 0.61972 0.0
C2186 C 0.36387 0.82702 0.5664 0.0
C2187 C 0.36493 0.82925 0.53058 0.0
C2188 C 0.34965 0.82974 0.51235 0.0
C2189 C 0.33315 0.82768 0.53029 0.0
C2190 C 0.33209 0.82548 0.56616 0.0
H2191 H 0.33966 0.77647 0.636 0.0
H2192 H 0.3351 0.78607 0.59682 0.0
H2193 H 0.36 0.79434 0.6105 0.0
H2194 H 0.37596 0.82703 0.58008 0.0
H2195 H 0.37773 0.83069 0.51709 0.0
H2196 H 0.1802 0.5005 0.52737 0.0
H2197 H 0.18147 0.50045 0.5907 0.0
H2198 H 0.17688 0.55324 0.59336 0.0
H2199 H 0.17615 0.55357 0.5301 0.0
H2200 H 0.20524 0.55485 0.63784 0.0
H2201 H 0.13414 0.48486 0.65432 0.0
H2202 H 0.15136 0.48256 0.62677 0.0
H2203 H 0.14151 0.49805 0.61385 0.0
C2204 C 0.17955 0.51209 0.54163 0.0
C2205 C 0.17782 0.52688 0.52421 0.0
C2206 C 0.18011 0.51197 0.57766 0.0
C2207 C 0.17884 0.52661 0.59666 0.0
C2208 C 0.17768 0.54172 0.57916 0.0
H2209 H 0.15486 0.51718 0.81824 0.0
H2210 H 0.15357 0.52196 0.75573 0.0
C2211 C 0.17718 0.54186 0.54317 0.0
C2212 C 0.17888 0.52627 0.63482 0.0
H2213 H 0.15427 0.49781 0.70442 0.0
C2214 C 0.19404 0.54245 0.65244 0.0
C2215 C 0.16403 0.51024 0.65376 0.0
C2216 C 0.14672 0.49302 0.63627 0.0
C2217 C 0.1951 0.54273 0.68858 0.0
C2218 C 0.18081 0.52625 0.70743 0.0
C2219 C 0.1653 0.51036 0.68985 0.0
C2220 C 0.1821 0.52477 0.74529 0.0
C2221 C 0.21145 0.5607 0.70624 0.0
C2222 C 0.19853 0.5248 0.75995 0.0
C2223 C 0.19928 0.52215 0.79538 0.0
C2224 C 0.18348 0.51918 0.81662 0.0
C2225 C 0.16716 0.51944 0.80216 0.0
C2226 C 0.16642 0.52212 0.76663 0.0
H2227 H 0.21728 0.57402 0.68953 0.0
H2228 H 0.20628 0.56378 0.7309 0.0
H2229 H 0.22384 0.55802 0.71202 0.0
H2230 H 0.2106 0.52643 0.74388 0.0
H2231 H 0.21205 0.52211 0.80619 0.0
loop_
_geom_bond_atom_site_label_1
_geom_bond_atom_site_label_2
_geom_bond_distance
_geom_bond_site_symmetry_2
_ccdc_geom_bond_type
Co0 O3 1.970 1_545 S
Co0 N17 1.989 . S
Co0 O25 1.967 . S
Co0 O32 1.920 1_545 S
Co1 O4 1.966 . S
Co1 N10 2.022 . S
Co1 N18 1.993 . S
Co1 O26 1.941 . S
C2 O3 1.258 1_545 S
C2 O4 1.263 . S
O3 Co0 1.970 1_565 S
O3 C2 1.258 1_565 S
O4 Co1 1.966 . S
O4 C2 1.263 . S
C5 O6 1.235 . S
C5 O32 1.289 . S
O6 C5 1.235 . S
C7 C9 1.400 . S
C7 N10 1.351 . S
C7 C12 1.501 . S
C8 C9 1.387 . S
C8 N11 1.341 . S
C9 C7 1.400 . S
C9 C8 1.387 . S
N10 Co1 2.022 . S
N10 C7 1.351 . S
N10 N11 1.365 . S
N11 C8 1.341 . S
N11 N10 1.365 . S
N11 H31 0.862 . S
C12 C7 1.501 . S
C12 H13 0.961 . S
C12 H14 0.961 . S
C12 H15 0.960 . S
H13 C12 0.961 . S
H14 C12 0.961 . S
H15 C12 0.960 . S
C16 N17 1.342 1_565 S
C16 C20 1.405 1_565 S
C16 C21 1.499 . S
N17 Co0 1.989 . S
N17 C16 1.342 1_545 S
N17 N18 1.388 . S
N18 Co1 1.993 . S
N18 N17 1.388 . S
N18 C19 1.346 . S
C19 N18 1.346 . S
C19 C20 1.410 . S
C19 C29 1.510 . S
C20 C16 1.405 1_545 S
C20 C19 1.410 . S
C21 C16 1.499 . S
C21 H22 0.959 . S
C21 H23 0.960 . S
C21 H24 0.961 . S
H22 C21 0.959 . S
H23 C21 0.960 . S
H24 C21 0.961 . S
O25 Co0 1.967 . S
O25 C33 1.258 . S
O26 Co1 1.941 . S
O26 C33 1.266 . S
H27 C29 0.959 . S
H28 C29 0.961 . S
C29 C19 1.510 . S
C29 H27 0.959 . S
C29 H28 0.961 . S
C29 H30 0.960 . S
H30 C29 0.960 . S
H31 N11 0.862 . S
O32 Co0 1.920 1_565 S
O32 C5 1.289 . S
C33 O25 1.258 . S
C33 O26 1.266 . S
Co34 O37 1.970 . S
Co34 N51 1.989 . S
Co34 O59 1.967 1_455 S
Co34 O66 1.920 . S
Co35 O38 1.966 . S
Co35 N44 2.022 . S
Co35 N52 1.973 1_655 S
Co35 O60 1.941 . S
C36 O37 1.258 . S
C36 O38 1.263 1_455 S
O37 Co34 1.970 . S
O37 C36 1.258 . S
O38 Co35 1.966 . S
O38 C36 1.263 1_655 S
C39 O40 1.235 . S
C39 O66 1.289 . S
O40 C39 1.235 . S
C41 C43 1.400 . S
C41 N44 1.351 . S
C41 C46 1.501 . S
C42 C43 1.387 . S
C42 N45 1.341 . S
C43 C41 1.400 . S
C43 C42 1.387 . S
N44 Co35 2.022 . S
N44 C41 1.351 . S
N44 N45 1.365 . S
N45 C42 1.341 . S
N45 N44 1.365 . S
N45 H65 0.862 . S
C46 C41 1.501 . S
C46 H47 0.961 . S
C46 H48 0.961 . S
C46 H49 0.960 . S
H47 C46 0.961 . S
H48 C46 0.961 . S
H49 C46 0.960 . S
C50 N51 1.342 . S
C50 C54 1.401 . S
C50 C55 1.499 . S
N51 Co34 1.989 . S
N51 C50 1.342 . S
N51 N52 1.420 . S
N52 Co35 1.973 1_455 S
N52 N51 1.420 . S
N52 C53 1.341 . S
C53 N52 1.341 . S
C53 C54 1.396 . S
C53 C63 1.510 1_455 S
C54 C50 1.401 . S
C54 C53 1.396 . S
C55 C50 1.499 . S
C55 H56 0.959 . S
C55 H57 0.960 . S
C55 H58 0.961 . S
H56 C55 0.959 . S
H57 C55 0.960 . S
H58 C55 0.961 . S
O59 Co34 1.967 1_655 S
O59 C67 1.258 . S
O60 Co35 1.941 . S
O60 C67 1.266 . S
H61 C63 0.959 . S
H62 C63 0.961 . S
C63 C53 1.510 1_655 S
C63 H61 0.959 . S
C63 H62 0.961 . S
C63 H64 0.960 . S
H64 C63 0.960 . S
H65 N45 0.862 . S
O66 Co34 1.920 . S
O66 C39 1.289 . S
C67 O59 1.258 . S
C67 O60 1.266 . S
Co68 O71 1.970 . S
Co68 N85 1.989 . S
Co68 O93 1.967 . S
Co68 O100 1.920 . S
Co69 O72 1.966 . S
Co69 N78 2.022 . S
Co69 N86 1.993 . S
Co69 O94 1.941 . S
C70 O71 1.258 . S
C70 O72 1.263 . S
O71 Co68 1.970 . S
O71 C70 1.258 . S
O72 Co69 1.966 . S
O72 C70 1.263 . S
C73 O74 1.235 . S
C73 O100 1.289 . S
O74 C73 1.235 . S
C75 C77 1.400 . S
C75 N78 1.351 . S
C75 C80 1.501 . S
C76 C77 1.387 . S
C76 N79 1.341 . S
C77 C75 1.400 . S
C77 C76 1.387 . S
N78 Co69 2.022 . S
N78 C75 1.351 . S
N78 N79 1.365 . S
N79 C76 1.341 . S
N79 N78 1.365 . S
N79 H99 0.862 . S
C80 C75 1.501 . S
C80 H81 0.961 . S
C80 H82 0.961 . S
C80 H83 0.960 . S
H81 C80 0.961 . S
H82 C80 0.961 . S
H83 C80 0.960 . S
C84 N85 1.342 . S
C84 C88 1.401 . S
C84 C89 1.499 . S
N85 Co68 1.989 . S
N85 C84 1.342 . S
N85 N86 1.388 . S
N86 Co69 1.993 . S
N86 N85 1.388 . S
N86 C87 1.346 . S
C87 N86 1.346 . S
C87 C88 1.396 . S
C87 C97 1.510 . S
C88 C84 1.401 . S
C88 C87 1.396 . S
C89 C84 1.499 . S
C89 H90 0.959 . S
C89 H91 0.960 . S
C89 H92 0.961 . S
H90 C89 0.959 . S
H91 C89 0.960 . S
H92 C89 0.961 . S
O93 Co68 1.967 . S
O93 C101 1.258 . S
O94 Co69 1.941 . S
O94 C101 1.266 . S
H95 C97 0.959 . S
H96 C97 0.961 . S
C97 C87 1.510 . S
C97 H95 0.959 . S
C97 H96 0.961 . S
C97 H98 0.960 . S
H98 C97 0.960 . S
H99 N79 0.862 . S
O100 Co68 1.920 . S
O100 C73 1.289 . S
C101 O93 1.258 . S
C101 O94 1.266 . S
Co102 O105 1.970 1_455 S
Co102 N119 1.989 . S
Co102 O127 1.967 . S
Co102 O134 1.920 1_455 S
Co103 O106 1.966 . S
Co103 N112 2.022 . S
Co103 N120 1.993 . S
Co103 O128 1.941 . S
C104 O105 1.258 1_455 S
C104 O106 1.263 . S
O105 Co102 1.970 1_655 S
O105 C104 1.258 1_655 S
O106 Co103 1.966 . S
O106 C104 1.263 . S
C107 O108 1.235 . S
C107 O134 1.289 . S
O108 C107 1.235 . S
C109 C111 1.400 . S
C109 N112 1.351 . S
C109 C114 1.501 . S
C110 C111 1.387 . S
C110 N113 1.341 . S
C111 C109 1.400 . S
C111 C110 1.387 . S
N112 Co103 2.022 . S
N112 C109 1.351 . S
N112 N113 1.365 . S
N113 C110 1.341 . S
N113 N112 1.365 . S
N113 H133 0.862 . S
C114 C109 1.501 . S
C114 H115 0.961 . S
C114 H116 0.961 . S
C114 H117 0.960 . S
H115 C114 0.961 . S
H116 C114 0.961 . S
H117 C114 0.960 . S
C118 N119 1.342 1_655 S
C118 C122 1.405 1_655 S
C118 C123 1.499 . S
N119 Co102 1.989 . S
N119 C118 1.342 1_455 S
N119 N120 1.388 . S
N120 Co103 1.993 . S
N120 N119 1.388 . S
N120 C121 1.346 . S
C121 N120 1.346 . S
C121 C122 1.409 . S
C121 C131 1.510 . S
C122 C118 1.405 1_455 S
C122 C121 1.409 . S
C123 C118 1.499 . S
C123 H124 0.959 . S
C123 H125 0.960 . S
C123 H126 0.961 . S
H124 C123 0.959 . S
H125 C123 0.960 . S
H126 C123 0.961 . S
O127 Co102 1.967 . S
O127 C135 1.258 . S
O128 Co103 1.941 . S
O128 C135 1.266 . S
H129 C131 0.959 . S
H130 C131 0.961 . S
C131 C121 1.510 . S
C131 H129 0.959 . S
C131 H130 0.961 . S
C131 H132 0.960 . S
H132 C131 0.960 . S
H133 N113 0.862 . S
O134 Co102 1.920 1_655 S
O134 C107 1.289 . S
C135 O127 1.258 . S
C135 O128 1.266 . S
Co136 O139 1.970 . S
Co136 N153 1.989 . S
Co136 O161 1.967 . S
Co136 O168 1.920 . S
Co137 O140 1.966 . S
Co137 N146 2.022 . S
Co137 N154 1.993 . S
Co137 O162 1.941 . S
C138 O139 1.258 . S
C138 O140 1.263 . S
O139 Co136 1.970 . S
O139 C138 1.258 . S
O140 Co137 1.966 . S
O140 C138 1.263 . S
C141 O142 1.235 . S
C141 O168 1.289 . S
O142 C141 1.235 . S
C143 C145 1.400 . S
C143 N146 1.351 . S
C143 C148 1.501 . S
C144 C145 1.387 . S
C144 N147 1.341 . S
C145 C143 1.400 . S
C145 C144 1.387 . S
N146 Co137 2.022 . S
N146 C143 1.351 . S
N146 N147 1.365 . S
N147 C144 1.341 . S
N147 N146 1.365 . S
N147 H167 0.862 . S
C148 C143 1.501 . S
C148 H149 0.961 . S
C148 H150 0.961 . S
C148 H151 0.960 . S
H149 C148 0.961 . S
H150 C148 0.961 . S
H151 C148 0.960 . S
C152 N153 1.342 . S
C152 C156 1.401 . S
C152 C157 1.499 . S
N153 Co136 1.989 . S
N153 C152 1.342 . S
N153 N154 1.388 . S
N154 Co137 1.993 . S
N154 N153 1.388 . S
N154 C155 1.346 . S
C155 N154 1.346 . S
C155 C156 1.396 . S
C155 C165 1.510 . S
C156 C152 1.401 . S
C156 C155 1.396 . S
C157 C152 1.499 . S
C157 H158 0.959 . S
C157 H159 0.960 . S
C157 H160 0.961 . S
H158 C157 0.959 . S
H159 C157 0.960 . S
H160 C157 0.961 . S
O161 Co136 1.967 . S
O161 C169 1.258 . S
O162 Co137 1.941 . S
O162 C169 1.266 . S
H163 C165 0.959 . S
H164 C165 0.961 . S
C165 C155 1.510 . S
C165 H163 0.959 . S
C165 H164 0.961 . S
C165 H166 0.960 . S
H166 C165 0.960 . S
H167 N147 0.862 . S
O168 Co136 1.920 . S
O168 C141 1.289 . S
C169 O161 1.258 . S
C169 O162 1.266 . S
Co170 O173 1.970 . S
Co170 N187 1.989 . S
Co170 O195 1.967 1_545 S
Co170 O202 1.920 . S
Co171 O174 1.966 . S
Co171 N180 2.022 . S
Co171 N188 1.973 1_565 S
Co171 O196 1.941 . S
C172 O173 1.258 . S
C172 O174 1.263 1_545 S
O173 Co170 1.970 . S
O173 C172 1.258 . S
O174 Co171 1.966 . S
O174 C172 1.263 1_565 S
C175 O176 1.235 . S
C175 O202 1.289 . S
O176 C175 1.235 . S
C177 C179 1.400 . S
C177 N180 1.351 . S
C177 C182 1.501 . S
C178 C179 1.387 . S
C178 N181 1.341 . S
C179 C177 1.400 . S
C179 C178 1.387 . S
N180 Co171 2.022 . S
N180 C177 1.351 . S
N180 N181 1.365 . S
N181 C178 1.341 . S
N181 N180 1.365 . S
N181 H201 0.862 . S
C182 C177 1.501 . S
C182 H183 0.961 . S
C182 H184 0.961 . S
C182 H185 0.960 . S
H183 C182 0.961 . S
H184 C182 0.961 . S
H185 C182 0.960 . S
C186 N187 1.342 . S
C186 C190 1.401 . S
C186 C191 1.499 . S
N187 Co170 1.989 . S
N187 C186 1.342 . S
N187 N188 1.420 . S
N188 Co171 1.973 1_545 S
N188 N187 1.420 . S
N188 C189 1.341 . S
C189 N188 1.341 . S
C189 C190 1.396 . S
C189 C199 1.510 1_545 S
C190 C186 1.401 . S
C190 C189 1.396 . S
C191 C186 1.499 . S
C191 H192 0.959 . S
C191 H193 0.960 . S
C191 H194 0.961 . S
H192 C191 0.959 . S
H193 C191 0.960 . S
H194 C191 0.961 . S
O195 Co170 1.967 1_565 S
O195 C203 1.258 . S
O196 Co171 1.941 . S
O196 C203 1.266 . S
H197 C199 0.959 . S
H198 C199 0.961 . S
C199 C189 1.510 1_565 S
C199 H197 0.959 . S
C199 H198 0.961 . S
C199 H200 0.960 . S
H200 C199 0.960 . S
H201 N181 0.862 . S
O202 Co170 1.920 . S
O202 C175 1.289 . S
C203 O195 1.258 . S
C203 O196 1.266 . S
Co204 O207 1.970 . S
Co204 N221 1.989 . S
Co204 O229 1.967 . S
Co204 O236 1.920 . S
Co205 O208 1.966 . S
Co205 N214 2.022 . S
Co205 N222 1.993 . S
Co205 O230 1.941 . S
C206 O207 1.258 . S
C206 O208 1.263 . S
O207 Co204 1.970 . S
O207 C206 1.258 . S
O208 Co205 1.966 . S
O208 C206 1.263 . S
C209 O210 1.235 . S
C209 O236 1.289 . S
O210 C209 1.235 . S
C211 C213 1.400 . S
C211 N214 1.351 . S
C211 C216 1.501 . S
C212 C213 1.387 . S
C212 N215 1.341 . S
C213 C211 1.400 . S
C213 C212 1.387 . S
N214 Co205 2.022 . S
N214 C211 1.351 . S
N214 N215 1.365 . S
N215 C212 1.341 . S
N215 N214 1.365 . S
N215 H235 0.862 . S
C216 C211 1.501 . S
C216 H217 0.961 . S
C216 H218 0.961 . S
C216 H219 0.960 . S
H217 C216 0.961 . S
H218 C216 0.961 . S
H219 C216 0.960 . S
C220 N221 1.342 . S
C220 C224 1.401 . S
C220 C225 1.499 . S
N221 Co204 1.989 . S
N221 C220 1.342 . S
N221 N222 1.388 . S
N222 Co205 1.993 . S
N222 N221 1.388 . S
N222 C223 1.346 . S
C223 N222 1.346 . S
C223 C224 1.396 . S
C223 C233 1.510 . S
C224 C220 1.401 . S
C224 C223 1.396 . S
C225 C220 1.499 . S
C225 H226 0.959 . S
C225 H227 0.960 . S
C225 H228 0.961 . S
H226 C225 0.959 . S
H227 C225 0.960 . S
H228 C225 0.961 . S
O229 Co204 1.967 . S
O229 C237 1.258 . S
O230 Co205 1.941 . S
O230 C237 1.266 . S
H231 C233 0.959 . S
H232 C233 0.961 . S
C233 C223 1.510 . S
C233 H231 0.959 . S
C233 H232 0.961 . S
C233 H234 0.960 . S
H234 C233 0.960 . S
H235 N215 0.862 . S
O236 Co204 1.920 . S
O236 C209 1.289 . S
C237 O229 1.258 . S
C237 O230 1.266 . S
Co238 O241 1.970 . S
Co238 N255 1.989 . S
Co238 O263 1.967 . S
Co238 O270 1.920 . S
Co239 O242 1.966 . S
Co239 N248 2.022 . S
Co239 N256 1.993 . S
Co239 O264 1.941 . S
C240 O241 1.258 . S
C240 O242 1.263 . S
O241 Co238 1.970 . S
O241 C240 1.258 . S
O242 Co239 1.966 . S
O242 C240 1.263 . S
C243 O244 1.235 . S
C243 O270 1.289 . S
O244 C243 1.235 . S
C245 C247 1.400 . S
C245 N248 1.351 . S
C245 C250 1.501 . S
C246 C247 1.387 . S
C246 N249 1.341 . S
C247 C245 1.400 . S
C247 C246 1.387 . S
N248 Co239 2.022 . S
N248 C245 1.351 . S
N248 N249 1.365 . S
N249 C246 1.341 . S
N249 N248 1.365 . S
N249 H269 0.862 . S
C250 C245 1.501 . S
C250 H251 0.961 . S
C250 H252 0.961 . S
C250 H253 0.960 . S
H251 C250 0.961 . S
H252 C250 0.961 . S
H253 C250 0.960 . S
C254 N255 1.342 . S
C254 C258 1.401 . S
C254 C259 1.499 . S
N255 Co238 1.989 . S
N255 C254 1.342 . S
N255 N256 1.388 . S
N256 Co239 1.993 . S
N256 N255 1.388 . S
N256 C257 1.346 . S
C257 N256 1.346 . S
C257 C258 1.396 . S
C257 C267 1.510 . S
C258 C254 1.401 . S
C258 C257 1.396 . S
C259 C254 1.499 . S
C259 H260 0.959 . S
C259 H261 0.960 . S
C259 H262 0.961 . S
H260 C259 0.959 . S
H261 C259 0.960 . S
H262 C259 0.961 . S
O263 Co238 1.967 . S
O263 C271 1.258 . S
O264 Co239 1.941 . S
O264 C271 1.266 . S
H265 C267 0.959 . S
H266 C267 0.961 . S
C267 C257 1.510 . S
C267 H265 0.959 . S
C267 H266 0.961 . S
C267 H268 0.960 . S
H268 C267 0.960 . S
H269 N249 0.862 . S
O270 Co238 1.920 . S
O270 C243 1.289 . S
C271 O263 1.258 . S
C271 O264 1.266 . S
Co272 O275 1.970 . S
Co272 N289 1.989 . S
Co272 O297 1.967 . S
Co272 O304 1.920 . S
Co273 O276 1.966 . S
Co273 N282 2.022 . S
Co273 N290 1.993 . S
Co273 O298 1.941 . S
C274 O275 1.258 . S
C274 O276 1.263 . S
O275 Co272 1.970 . S
O275 C274 1.258 . S
O276 Co273 1.966 . S
O276 C274 1.263 . S
C277 O278 1.235 . S
C277 O304 1.289 . S
O278 C277 1.235 . S
C279 C281 1.400 . S
C279 N282 1.351 . S
C279 C284 1.501 . S
C280 C281 1.387 . S
C280 N283 1.341 . S
C281 C279 1.400 . S
C281 C280 1.387 . S
N282 Co273 2.022 . S
N282 C279 1.351 . S
N282 N283 1.365 . S
N283 C280 1.341 . S
N283 N282 1.365 . S
N283 H303 0.862 . S
C284 C279 1.501 . S
C284 H285 0.961 . S
C284 H286 0.961 . S
C284 H287 0.960 . S
H285 C284 0.961 . S
H286 C284 0.961 . S
H287 C284 0.960 . S
C288 N289 1.342 . S
C288 C292 1.401 . S
C288 C293 1.499 . S
N289 Co272 1.989 . S
N289 C288 1.342 . S
N289 N290 1.388 . S
N290 Co273 1.993 . S
N290 N289 1.388 . S
N290 C291 1.346 . S
C291 N290 1.346 . S
C291 C292 1.396 . S
C291 C301 1.510 . S
C292 C288 1.401 . S
C292 C291 1.396 . S
C293 C288 1.499 . S
C293 H294 0.959 . S
C293 H295 0.960 . S
C293 H296 0.961 . S
H294 C293 0.959 . S
H295 C293 0.960 . S
H296 C293 0.961 . S
O297 Co272 1.967 . S
O297 C305 1.258 . S
O298 Co273 1.941 . S
O298 C305 1.266 . S
H299 C301 0.959 . S
H300 C301 0.961 . S
C301 C291 1.510 . S
C301 H299 0.959 . S
C301 H300 0.961 . S
C301 H302 0.960 . S
H302 C301 0.960 . S
H303 N283 0.862 . S
O304 Co272 1.920 . S
O304 C277 1.289 . S
C305 O297 1.258 . S
C305 O298 1.266 . S
Co306 O309 1.970 . S
Co306 N323 1.989 . S
Co306 O331 1.967 . S
Co306 O338 1.920 . S
Co307 O310 1.966 . S
Co307 N316 2.022 . S
Co307 N324 1.993 . S
Co307 O332 1.941 . S
C308 O309 1.258 . S
C308 O310 1.263 . S
O309 Co306 1.970 . S
O309 C308 1.258 . S
O310 Co307 1.966 . S
O310 C308 1.263 . S
C311 O312 1.235 . S
C311 O338 1.289 . S
O312 C311 1.235 . S
C313 C315 1.400 . S
C313 N316 1.351 . S
C313 C318 1.501 . S
C314 C315 1.387 . S
C314 N317 1.341 . S
C315 C313 1.400 . S
C315 C314 1.387 . S
N316 Co307 2.022 . S
N316 C313 1.351 . S
N316 N317 1.365 . S
N317 C314 1.341 . S
N317 N316 1.365 . S
N317 H337 0.862 . S
C318 C313 1.501 . S
C318 H319 0.961 . S
C318 H320 0.961 . S
C318 H321 0.960 . S
H319 C318 0.961 . S
H320 C318 0.961 . S
H321 C318 0.960 . S
C322 N323 1.342 . S
C322 C326 1.401 . S
C322 C327 1.499 . S
N323 Co306 1.989 . S
N323 C322 1.342 . S
N323 N324 1.388 . S
N324 Co307 1.993 . S
N324 N323 1.388 . S
N324 C325 1.346 . S
C325 N324 1.346 . S
C325 C326 1.396 . S
C325 C335 1.510 . S
C326 C322 1.401 . S
C326 C325 1.396 . S
C327 C322 1.499 . S
C327 H328 0.959 . S
C327 H329 0.960 . S
C327 H330 0.961 . S
H328 C327 0.959 . S
H329 C327 0.960 . S
H330 C327 0.961 . S
O331 Co306 1.967 . S
O331 C339 1.258 . S
O332 Co307 1.941 . S
O332 C339 1.266 . S
H333 C335 0.959 . S
H334 C335 0.961 . S
C335 C325 1.510 . S
C335 H333 0.959 . S
C335 H334 0.961 . S
C335 H336 0.960 . S
H336 C335 0.960 . S
H337 N317 0.862 . S
O338 Co306 1.920 . S
O338 C311 1.289 . S
C339 O331 1.258 . S
C339 O332 1.266 . S
Co340 O343 1.970 . S
Co340 N357 1.989 . S
Co340 O365 1.967 . S
Co340 O372 1.920 . S
Co341 O344 1.966 . S
Co341 N350 2.022 . S
Co341 N358 1.993 . S
Co341 O366 1.941 . S
C342 O343 1.258 . S
C342 O344 1.263 . S
O343 Co340 1.970 . S
O343 C342 1.258 . S
O344 Co341 1.966 . S
O344 C342 1.263 . S
C345 O346 1.235 . S
C345 O372 1.289 . S
O346 C345 1.235 . S
C347 C349 1.400 . S
C347 N350 1.351 . S
C347 C352 1.501 . S
C348 C349 1.387 . S
C348 N351 1.341 . S
C349 C347 1.400 . S
C349 C348 1.387 . S
N350 Co341 2.022 . S
N350 C347 1.351 . S
N350 N351 1.365 . S
N351 C348 1.341 . S
N351 N350 1.365 . S
N351 H371 0.862 . S
C352 C347 1.501 . S
C352 H353 0.961 . S
C352 H354 0.961 . S
C352 H355 0.960 . S
H353 C352 0.961 . S
H354 C352 0.961 . S
H355 C352 0.960 . S
C356 N357 1.342 . S
C356 C360 1.401 . S
C356 C361 1.499 . S
N357 Co340 1.989 . S
N357 C356 1.342 . S
N357 N358 1.388 . S
N358 Co341 1.993 . S
N358 N357 1.388 . S
N358 C359 1.346 . S
C359 N358 1.346 . S
C359 C360 1.396 . S
C359 C369 1.510 . S
C360 C356 1.401 . S
C360 C359 1.396 . S
C361 C356 1.499 . S
C361 H362 0.959 . S
C361 H363 0.960 . S
C361 H364 0.961 . S
H362 C361 0.959 . S
H363 C361 0.960 . S
H364 C361 0.961 . S
O365 Co340 1.967 . S
O365 C373 1.258 . S
O366 Co341 1.941 . S
O366 C373 1.266 . S
H367 C369 0.959 . S
H368 C369 0.961 . S
C369 C359 1.510 . S
C369 H367 0.959 . S
C369 H368 0.961 . S
C369 H370 0.960 . S
H370 C369 0.960 . S
H371 N351 0.862 . S
O372 Co340 1.920 . S
O372 C345 1.289 . S
C373 O365 1.258 . S
C373 O366 1.266 . S
Co374 O377 1.970 . S
Co374 N391 1.989 . S
Co374 O399 1.967 . S
Co374 O406 1.920 . S
Co375 O378 1.966 . S
Co375 N384 2.022 . S
Co375 N392 1.993 . S
Co375 O400 1.941 . S
C376 O377 1.258 . S
C376 O378 1.263 . S
O377 Co374 1.970 . S
O377 C376 1.258 . S
O378 Co375 1.966 . S
O378 C376 1.263 . S
C379 O380 1.235 . S
C379 O406 1.289 . S
O380 C379 1.235 . S
C381 C383 1.400 . S
C381 N384 1.351 . S
C381 C386 1.501 . S
C382 C383 1.387 . S
C382 N385 1.341 . S
C383 C381 1.400 . S
C383 C382 1.387 . S
N384 Co375 2.022 . S
N384 C381 1.351 . S
N384 N385 1.365 . S
N385 C382 1.341 . S
N385 N384 1.365 . S
N385 H405 0.862 . S
C386 C381 1.501 . S
C386 H387 0.961 . S
C386 H388 0.961 . S
C386 H389 0.960 . S
H387 C386 0.961 . S
H388 C386 0.961 . S
H389 C386 0.960 . S
C390 N391 1.342 . S
C390 C394 1.401 . S
C390 C395 1.499 . S
N391 Co374 1.989 . S
N391 C390 1.342 . S
N391 N392 1.388 . S
N392 Co375 1.993 . S
N392 N391 1.388 . S
N392 C393 1.346 . S
C393 N392 1.346 . S
C393 C394 1.396 . S
C393 C403 1.510 . S
C394 C390 1.401 . S
C394 C393 1.396 . S
C395 C390 1.499 . S
C395 H396 0.959 . S
C395 H397 0.960 . S
C395 H398 0.961 . S
H396 C395 0.959 . S
H397 C395 0.960 . S
H398 C395 0.961 . S
O399 Co374 1.967 . S
O399 C407 1.258 . S
O400 Co375 1.941 . S
O400 C407 1.266 . S
H401 C403 0.959 . S
H402 C403 0.961 . S
C403 C393 1.510 . S
C403 H401 0.959 . S
C403 H402 0.961 . S
C403 H404 0.960 . S
H404 C403 0.960 . S
H405 N385 0.862 . S
O406 Co374 1.920 . S
O406 C379 1.289 . S
C407 O399 1.258 . S
C407 O400 1.266 . S
Co408 O411 1.970 . S
Co408 N425 1.989 . S
Co408 O433 1.967 . S
Co408 O440 1.920 . S
Co409 O412 1.966 . S
Co409 N418 2.022 . S
Co409 N426 1.993 . S
Co409 O434 1.941 . S
C410 O411 1.258 . S
C410 O412 1.263 . S
O411 Co408 1.970 . S
O411 C410 1.258 . S
O412 Co409 1.966 . S
O412 C410 1.263 . S
C413 O414 1.235 . S
C413 O440 1.289 . S
O414 C413 1.235 . S
C415 C417 1.400 . S
C415 N418 1.351 . S
C415 C420 1.501 . S
C416 C417 1.387 . S
C416 N419 1.341 . S
C417 C415 1.400 . S
C417 C416 1.387 . S
N418 Co409 2.022 . S
N418 C415 1.351 . S
N418 N419 1.365 . S
N419 C416 1.341 . S
N419 N418 1.365 . S
N419 H439 0.862 . S
C420 C415 1.501 . S
C420 H421 0.961 . S
C420 H422 0.961 . S
C420 H423 0.960 . S
H421 C420 0.961 . S
H422 C420 0.961 . S
H423 C420 0.960 . S
C424 N425 1.342 . S
C424 C428 1.401 . S
C424 C429 1.499 . S
N425 Co408 1.989 . S
N425 C424 1.342 . S
N425 N426 1.388 . S
N426 Co409 1.993 . S
N426 N425 1.388 . S
N426 C427 1.346 . S
C427 N426 1.346 . S
C427 C428 1.396 . S
C427 C437 1.510 . S
C428 C424 1.401 . S
C428 C427 1.396 . S
C429 C424 1.499 . S
C429 H430 0.959 . S
C429 H431 0.960 . S
C429 H432 0.961 . S
H430 C429 0.959 . S
H431 C429 0.960 . S
H432 C429 0.961 . S
O433 Co408 1.967 . S
O433 C441 1.258 . S
O434 Co409 1.941 . S
O434 C441 1.266 . S
H435 C437 0.959 . S
H436 C437 0.961 . S
C437 C427 1.510 . S
C437 H435 0.959 . S
C437 H436 0.961 . S
C437 H438 0.960 . S
H438 C437 0.960 . S
H439 N419 0.862 . S
O440 Co408 1.920 . S
O440 C413 1.289 . S
C441 O433 1.258 . S
C441 O434 1.266 . S
Co442 O445 1.970 . S
Co442 N459 1.989 . S
Co442 O467 1.967 . S
Co442 O474 1.920 . S
Co443 O446 1.966 . S
Co443 N452 2.022 . S
Co443 N460 1.993 . S
Co443 O468 1.941 . S
C444 O445 1.258 . S
C444 O446 1.263 . S
O445 Co442 1.970 . S
O445 C444 1.258 . S
O446 Co443 1.966 . S
O446 C444 1.263 . S
C447 O448 1.235 . S
C447 O474 1.289 . S
O448 C447 1.235 . S
C449 C451 1.400 . S
C449 N452 1.351 . S
C449 C454 1.501 . S
C450 C451 1.387 . S
C450 N453 1.341 . S
C451 C449 1.400 . S
C451 C450 1.387 . S
N452 Co443 2.022 . S
N452 C449 1.351 . S
N452 N453 1.365 . S
N453 C450 1.341 . S
N453 N452 1.365 . S
N453 H473 0.862 . S
C454 C449 1.501 . S
C454 H455 0.961 . S
C454 H456 0.961 . S
C454 H457 0.960 . S
H455 C454 0.961 . S
H456 C454 0.961 . S
H457 C454 0.960 . S
C458 N459 1.342 . S
C458 C462 1.401 . S
C458 C463 1.499 . S
N459 Co442 1.989 . S
N459 C458 1.342 . S
N459 N460 1.388 . S
N460 Co443 1.993 . S
N460 N459 1.388 . S
N460 C461 1.346 . S
C461 N460 1.346 . S
C461 C462 1.396 . S
C461 C471 1.510 . S
C462 C458 1.401 . S
C462 C461 1.396 . S
C463 C458 1.499 . S
C463 H464 0.959 . S
C463 H465 0.960 . S
C463 H466 0.961 . S
H464 C463 0.959 . S
H465 C463 0.960 . S
H466 C463 0.961 . S
O467 Co442 1.967 . S
O467 C475 1.258 . S
O468 Co443 1.941 . S
O468 C475 1.266 . S
H469 C471 0.959 . S
H470 C471 0.961 . S
C471 C461 1.510 . S
C471 H469 0.959 . S
C471 H470 0.961 . S
C471 H472 0.960 . S
H472 C471 0.960 . S
H473 N453 0.862 . S
O474 Co442 1.920 . S
O474 C447 1.289 . S
C475 O467 1.258 . S
C475 O468 1.266 . S
Co476 O479 1.970 . S
Co476 N493 1.989 . S
Co476 O501 1.967 . S
Co476 O508 1.920 . S
Co477 O480 1.966 . S
Co477 N486 2.022 . S
Co477 N494 1.993 . S
Co477 O502 1.941 . S
C478 O479 1.258 . S
C478 O480 1.263 . S
O479 Co476 1.970 . S
O479 C478 1.258 . S
O480 Co477 1.966 . S
O480 C478 1.263 . S
C481 O482 1.235 . S
C481 O508 1.289 . S
O482 C481 1.235 . S
C483 C485 1.400 . S
C483 N486 1.351 . S
C483 C488 1.501 . S
C484 C485 1.387 . S
C484 N487 1.341 . S
C485 C483 1.400 . S
C485 C484 1.387 . S
N486 Co477 2.022 . S
N486 C483 1.351 . S
N486 N487 1.365 . S
N487 C484 1.341 . S
N487 N486 1.365 . S
N487 H507 0.862 . S
C488 C483 1.501 . S
C488 H489 0.961 . S
C488 H490 0.961 . S
C488 H491 0.960 . S
H489 C488 0.961 . S
H490 C488 0.961 . S
H491 C488 0.960 . S
C492 N493 1.342 . S
C492 C496 1.401 . S
C492 C497 1.499 . S
N493 Co476 1.989 . S
N493 C492 1.342 . S
N493 N494 1.388 . S
N494 Co477 1.993 . S
N494 N493 1.388 . S
N494 C495 1.346 . S
C495 N494 1.346 . S
C495 C496 1.396 . S
C495 C505 1.510 . S
C496 C492 1.401 . S
C496 C495 1.396 . S
C497 C492 1.499 . S
C497 H498 0.959 . S
C497 H499 0.960 . S
C497 H500 0.961 . S
H498 C497 0.959 . S
H499 C497 0.960 . S
H500 C497 0.961 . S
O501 Co476 1.967 . S
O501 C509 1.258 . S
O502 Co477 1.941 . S
O502 C509 1.266 . S
H503 C505 0.959 . S
H504 C505 0.961 . S
C505 C495 1.510 . S
C505 H503 0.959 . S
C505 H504 0.961 . S
C505 H506 0.960 . S
H506 C505 0.960 . S
H507 N487 0.862 . S
O508 Co476 1.920 . S
O508 C481 1.289 . S
C509 O501 1.258 . S
C509 O502 1.266 . S
Co510 O513 1.970 . S
Co510 N527 1.989 . S
Co510 O535 1.967 . S
Co510 O542 1.920 . S
Co511 O514 1.966 . S
Co511 N520 2.022 . S
Co511 N528 1.993 . S
Co511 O536 1.941 . S
C512 O513 1.258 . S
C512 O514 1.263 . S
O513 Co510 1.970 . S
O513 C512 1.258 . S
O514 Co511 1.966 . S
O514 C512 1.263 . S
C515 O516 1.235 . S
C515 O542 1.289 . S
O516 C515 1.235 . S
C517 C519 1.400 . S
C517 N520 1.351 . S
C517 C522 1.501 . S
C518 C519 1.387 . S
C518 N521 1.341 . S
C519 C517 1.400 . S
C519 C518 1.387 . S
N520 Co511 2.022 . S
N520 C517 1.351 . S
N520 N521 1.365 . S
N521 C518 1.341 . S
N521 N520 1.365 . S
N521 H541 0.862 . S
C522 C517 1.501 . S
C522 H523 0.961 . S
C522 H524 0.961 . S
C522 H525 0.960 . S
H523 C522 0.961 . S
H524 C522 0.961 . S
H525 C522 0.960 . S
C526 N527 1.342 . S
C526 C530 1.401 . S
C526 C531 1.499 . S
N527 Co510 1.989 . S
N527 C526 1.342 . S
N527 N528 1.388 . S
N528 Co511 1.993 . S
N528 N527 1.388 . S
N528 C529 1.346 . S
C529 N528 1.346 . S
C529 C530 1.396 . S
C529 C539 1.510 . S
C530 C526 1.401 . S
C530 C529 1.396 . S
C531 C526 1.499 . S
C531 H532 0.959 . S
C531 H533 0.960 . S
C531 H534 0.961 . S
H532 C531 0.959 . S
H533 C531 0.960 . S
H534 C531 0.961 . S
O535 Co510 1.967 . S
O535 C543 1.258 . S
O536 Co511 1.941 . S
O536 C543 1.266 . S
H537 C539 0.959 . S
H538 C539 0.961 . S
C539 C529 1.510 . S
C539 H537 0.959 . S
C539 H538 0.961 . S
C539 H540 0.960 . S
H540 C539 0.960 . S
H541 N521 0.862 . S
O542 Co510 1.920 . S
O542 C515 1.289 . S
C543 O535 1.258 . S
C543 O536 1.266 . S
Co544 O547 1.970 . S
Co544 N561 1.989 . S
Co544 O569 1.967 . S
Co544 O576 1.920 . S
Co545 O548 1.966 . S
Co545 N554 2.022 . S
Co545 N562 1.993 . S
Co545 O570 1.941 . S
C546 O547 1.258 . S
C546 O548 1.263 . S
O547 Co544 1.970 . S
O547 C546 1.258 . S
O548 Co545 1.966 . S
O548 C546 1.263 . S
C549 O550 1.235 . S
C549 O576 1.289 . S
O550 C549 1.235 . S
C551 C553 1.400 . S
C551 N554 1.351 . S
C551 C556 1.501 . S
C552 C553 1.387 . S
C552 N555 1.341 . S
C553 C551 1.400 . S
C553 C552 1.387 . S
N554 Co545 2.022 . S
N554 C551 1.351 . S
N554 N555 1.365 . S
N555 C552 1.341 . S
N555 N554 1.365 . S
N555 H575 0.862 . S
C556 C551 1.501 . S
C556 H557 0.961 . S
C556 H558 0.961 . S
C556 H559 0.960 . S
H557 C556 0.961 . S
H558 C556 0.961 . S
H559 C556 0.960 . S
C560 N561 1.342 . S
C560 C564 1.401 . S
C560 C565 1.499 . S
N561 Co544 1.989 . S
N561 C560 1.342 . S
N561 N562 1.388 . S
N562 Co545 1.993 . S
N562 N561 1.388 . S
N562 C563 1.346 . S
C563 N562 1.346 . S
C563 C564 1.396 . S
C563 C573 1.510 . S
C564 C560 1.401 . S
C564 C563 1.396 . S
C565 C560 1.499 . S
C565 H566 0.959 . S
C565 H567 0.960 . S
C565 H568 0.961 . S
H566 C565 0.959 . S
H567 C565 0.960 . S
H568 C565 0.961 . S
O569 Co544 1.967 . S
O569 C577 1.258 . S
O570 Co545 1.941 . S
O570 C577 1.266 . S
H571 C573 0.959 . S
H572 C573 0.961 . S
C573 C563 1.510 . S
C573 H571 0.959 . S
C573 H572 0.961 . S
C573 H574 0.960 . S
H574 C573 0.960 . S
H575 N555 0.862 . S
O576 Co544 1.920 . S
O576 C549 1.289 . S
C577 O569 1.258 . S
C577 O570 1.266 . S
Co578 O581 1.970 . S
Co578 N595 1.989 . S
Co578 O603 1.967 . S
Co578 O610 1.920 . S
Co579 O582 1.966 . S
Co579 N588 2.022 . S
Co579 N596 1.993 . S
Co579 O604 1.941 . S
C580 O581 1.258 . S
C580 O582 1.263 . S
O581 Co578 1.970 . S
O581 C580 1.258 . S
O582 Co579 1.966 . S
O582 C580 1.263 . S
C583 O584 1.235 . S
C583 O610 1.289 . S
O584 C583 1.235 . S
C585 C587 1.400 . S
C585 N588 1.351 . S
C585 C590 1.501 . S
C586 C587 1.387 . S
C586 N589 1.341 . S
C587 C585 1.400 . S
C587 C586 1.387 . S
N588 Co579 2.022 . S
N588 C585 1.351 . S
N588 N589 1.365 . S
N589 C586 1.341 . S
N589 N588 1.365 . S
N589 H609 0.862 . S
C590 C585 1.501 . S
C590 H591 0.961 . S
C590 H592 0.961 . S
C590 H593 0.960 . S
H591 C590 0.961 . S
H592 C590 0.961 . S
H593 C590 0.960 . S
C594 N595 1.342 . S
C594 C598 1.401 . S
C594 C599 1.499 . S
N595 Co578 1.989 . S
N595 C594 1.342 . S
N595 N596 1.388 . S
N596 Co579 1.993 . S
N596 N595 1.388 . S
N596 C597 1.346 . S
C597 N596 1.346 . S
C597 C598 1.396 . S
C597 C607 1.510 . S
C598 C594 1.401 . S
C598 C597 1.396 . S
C599 C594 1.499 . S
C599 H600 0.959 . S
C599 H601 0.960 . S
C599 H602 0.961 . S
H600 C599 0.959 . S
H601 C599 0.960 . S
H602 C599 0.961 . S
O603 Co578 1.967 . S
O603 C611 1.258 . S
O604 Co579 1.941 . S
O604 C611 1.266 . S
H605 C607 0.959 . S
H606 C607 0.961 . S
C607 C597 1.510 . S
C607 H605 0.959 . S
C607 H606 0.961 . S
C607 H608 0.960 . S
H608 C607 0.960 . S
H609 N589 0.862 . S
O610 Co578 1.920 . S
O610 C583 1.289 . S
C611 O603 1.258 . S
C611 O604 1.266 . S
H612 C620 0.929 . S
H613 C622 0.930 . S
H614 C624 0.930 . S
H615 C627 0.929 . S
H616 C630 0.930 . S
H617 C632 0.960 . S
H618 C632 0.960 . S
H619 C632 0.960 . S
C620 H612 0.929 . S
C620 C621 1.377 . S
C620 C622 1.384 . S
C621 C620 1.377 . S
C621 C627 1.390 . S
C622 H613 0.930 . S
C622 C620 1.384 . S
C622 C623 1.372 . S
C623 C622 1.372 . S
C623 C624 1.400 . S
C623 C628 1.490 . S
C624 H614 0.930 . S
C624 C623 1.400 . S
C624 C627 1.386 . S
H625 C641 0.930 . S
H626 C642 0.931 . S
C627 H615 0.929 . S
C627 C621 1.390 . S
C627 C624 1.386 . S
C628 C623 1.490 . S
C628 C630 1.395 . S
C628 C631 1.403 . S
H629 C635 0.930 . S
C630 H616 0.930 . S
C630 C628 1.395 . S
C630 C633 1.403 . S
C631 C628 1.403 . S
C631 C632 1.524 . S
C631 C635 1.400 . S
C632 H617 0.960 . S
C632 H618 0.960 . S
C632 H619 0.960 . S
C632 C631 1.524 . S
C633 C630 1.403 . S
C633 C634 1.392 . S
C633 C637 1.495 . S
C634 C633 1.392 . S
C634 C635 1.385 . S
C634 C636 1.478 . S
C635 H629 0.930 . S
C635 C631 1.400 . S
C635 C634 1.385 . S
C636 C634 1.478 . S
C636 C638 1.381 . S
C636 C642 1.383 . S
C637 C633 1.495 . S
C637 H643 0.959 . S
C637 H644 0.961 . S
C637 H645 0.960 . S
C638 C636 1.381 . S
C638 C639 1.394 . S
C638 H646 0.930 . S
C639 C638 1.394 . S
C639 C640 1.383 . S
C639 H647 0.929 . S
C640 C639 1.383 . S
C640 C641 1.377 . S
C641 H625 0.930 . S
C641 C640 1.377 . S
C641 C642 1.379 . S
C642 H626 0.931 . S
C642 C636 1.383 . S
C642 C641 1.379 . S
H643 C637 0.959 . S
H644 C637 0.961 . S
H645 C637 0.960 . S
H646 C638 0.930 . S
H647 C639 0.929 . S
H648 C656 0.929 . S
H649 C658 0.930 . S
H650 C660 0.930 . S
H651 C663 0.929 . S
H652 C666 0.930 1_565 S
H653 C668 0.960 1_545 S
H654 C668 0.960 . S
H655 C668 0.960 . S
C656 H648 0.929 . S
C656 C657 1.377 . S
C656 C658 1.384 . S
C657 C656 1.377 . S
C657 C663 1.390 . S
C658 H649 0.930 . S
C658 C656 1.384 . S
C658 C659 1.372 . S
C659 C658 1.372 . S
C659 C660 1.400 . S
C659 C664 1.490 . S
C660 H650 0.930 . S
C660 C659 1.400 . S
C660 C663 1.386 . S
H661 C677 0.930 . S
H662 C678 0.931 . S
C663 H651 0.929 . S
C663 C657 1.390 . S
C663 C660 1.386 . S
C664 C659 1.490 . S
C664 C666 1.395 1_565 S
C664 C667 1.403 1_565 S
H665 C671 0.930 . S
C666 H652 0.930 1_545 S
C666 C664 1.395 1_545 S
C666 C669 1.403 . S
C667 C664 1.403 1_545 S
C667 C668 1.524 1_545 S
C667 C671 1.400 . S
C668 H653 0.960 1_565 S
C668 H654 0.960 . S
C668 H655 0.960 . S
C668 C667 1.524 1_565 S
C669 C666 1.403 . S
C669 C670 1.392 . S
C669 C673 1.495 . S
C670 C669 1.392 . S
C670 C671 1.385 . S
C670 C672 1.478 . S
C671 H665 0.930 . S
C671 C667 1.400 . S
C671 C670 1.385 . S
C672 C670 1.478 . S
C672 C674 1.381 . S
C672 C678 1.383 . S
C673 C669 1.495 . S
C673 H679 0.959 . S
C673 H680 0.961 . S
C673 H681 0.960 . S
C674 C672 1.381 . S
C674 C675 1.394 . S
C674 H682 0.930 . S
C675 C674 1.394 . S
C675 C676 1.383 . S
C675 H683 0.929 . S
C676 C675 1.383 . S
C676 C677 1.377 . S
C677 H661 0.930 . S
C677 C676 1.377 . S
C677 C678 1.379 . S
C678 H662 0.931 . S
C678 C672 1.383 . S
C678 C677 1.379 . S
H679 C673 0.959 . S
H680 C673 0.961 . S
H681 C673 0.960 . S
H682 C674 0.930 . S
H683 C675 0.929 . S
H684 C692 0.929 . S
H685 C694 0.930 . S
H686 C696 0.930 . S
H687 C699 0.929 . S
H688 C702 0.930 . S
H689 C704 0.960 . S
H690 C704 0.960 . S
H691 C704 0.960 . S
C692 H684 0.929 . S
C692 C693 1.377 . S
C692 C694 1.384 . S
C693 C692 1.377 . S
C693 C699 1.390 . S
C694 H685 0.930 . S
C694 C692 1.384 . S
C694 C695 1.372 . S
C695 C694 1.372 . S
C695 C696 1.400 . S
C695 C700 1.490 . S
C696 H686 0.930 . S
C696 C695 1.400 . S
C696 C699 1.386 . S
H697 C713 0.930 . S
H698 C714 0.931 . S
C699 H687 0.929 . S
C699 C693 1.390 . S
C699 C696 1.386 . S
C700 C695 1.490 . S
C700 C702 1.395 . S
C700 C703 1.403 . S
H701 C707 0.930 . S
C702 H688 0.930 . S
C702 C700 1.395 . S
C702 C705 1.403 1_655 S
C703 C700 1.403 . S
C703 C704 1.524 . S
C703 C707 1.400 1_655 S
C704 H689 0.960 . S
C704 H690 0.960 . S
C704 H691 0.960 . S
C704 C703 1.524 . S
C705 C702 1.403 1_455 S
C705 C706 1.392 . S
C705 C709 1.495 . S
C706 C705 1.392 . S
C706 C707 1.385 . S
C706 C708 1.478 . S
C707 H701 0.930 . S
C707 C703 1.400 1_455 S
C707 C706 1.385 . S
C708 C706 1.478 . S
C708 C710 1.381 . S
C708 C714 1.383 . S
C709 C705 1.495 . S
C709 H715 0.959 . S
C709 H716 0.961 . S
C709 H717 0.960 . S
C710 C708 1.381 . S
C710 C711 1.394 . S
C710 H718 0.930 . S
C711 C710 1.394 . S
C711 C712 1.383 . S
C711 H719 0.929 . S
C712 C711 1.383 . S
C712 C713 1.377 . S
C713 H697 0.930 . S
C713 C712 1.377 . S
C713 C714 1.379 . S
C714 H698 0.931 . S
C714 C708 1.383 . S
C714 C713 1.379 . S
H715 C709 0.959 . S
H716 C709 0.961 . S
H717 C709 0.960 . S
H718 C710 0.930 . S
H719 C711 0.929 . S
H720 C728 0.929 . S
H721 C730 0.930 . S
H722 C732 0.930 . S
H723 C735 0.929 . S
H724 C738 0.930 . S
H725 C740 0.960 . S
H726 C740 0.960 . S
H727 C740 0.960 . S
C728 H720 0.929 . S
C728 C729 1.377 . S
C728 C730 1.384 . S
C729 C728 1.377 . S
C729 C735 1.390 . S
C730 H721 0.930 . S
C730 C728 1.384 . S
C730 C731 1.372 . S
C731 C730 1.372 . S
C731 C732 1.400 . S
C731 C736 1.490 . S
C732 H722 0.930 . S
C732 C731 1.400 . S
C732 C735 1.386 . S
H733 C749 0.930 . S
H734 C750 0.931 . S
C735 H723 0.929 . S
C735 C729 1.390 . S
C735 C732 1.386 . S
C736 C731 1.490 . S
C736 C738 1.395 . S
C736 C739 1.403 . S
H737 C743 0.930 . S
C738 H724 0.930 . S
C738 C736 1.395 . S
C738 C741 1.403 . S
C739 C736 1.403 . S
C739 C740 1.524 . S
C739 C743 1.400 . S
C740 H725 0.960 . S
C740 H726 0.960 . S
C740 H727 0.960 . S
C740 C739 1.524 . S
C741 C738 1.403 . S
C741 C742 1.392 . S
C741 C745 1.495 . S
C742 C741 1.392 . S
C742 C743 1.385 . S
C742 C744 1.478 . S
C743 H737 0.930 . S
C743 C739 1.400 . S
C743 C742 1.385 . S
C744 C742 1.478 . S
C744 C746 1.381 . S
C744 C750 1.383 . S
C745 C741 1.495 . S
C745 H751 0.959 . S
C745 H752 0.961 . S
C745 H753 0.960 . S
C746 C744 1.381 . S
C746 C747 1.394 . S
C746 H754 0.930 . S
C747 C746 1.394 . S
C747 C748 1.383 . S
C747 H755 0.929 . S
C748 C747 1.383 . S
C748 C749 1.377 . S
C749 H733 0.930 . S
C749 C748 1.377 . S
C749 C750 1.379 . S
C750 H734 0.931 . S
C750 C744 1.383 . S
C750 C749 1.379 . S
H751 C745 0.959 . S
H752 C745 0.961 . S
H753 C745 0.960 . S
H754 C746 0.930 . S
H755 C747 0.929 . S
H756 C764 0.929 . S
H757 C766 0.930 . S
H758 C768 0.930 . S
H759 C771 0.929 . S
H760 C774 0.930 . S
H761 C776 0.960 . S
H762 C776 0.960 . S
H763 C776 0.960 . S
C764 H756 0.929 . S
C764 C765 1.377 . S
C764 C766 1.384 . S
C765 C764 1.377 . S
C765 C771 1.390 . S
C766 H757 0.930 . S
C766 C764 1.384 . S
C766 C767 1.372 . S
C767 C766 1.372 . S
C767 C768 1.400 . S
C767 C772 1.490 . S
C768 H758 0.930 . S
C768 C767 1.400 . S
C768 C771 1.386 . S
H769 C785 0.930 . S
H770 C786 0.931 . S
C771 H759 0.929 . S
C771 C765 1.390 . S
C771 C768 1.386 . S
C772 C767 1.490 . S
C772 C774 1.395 . S
C772 C775 1.403 . S
H773 C779 0.930 . S
C774 H760 0.930 . S
C774 C772 1.395 . S
C774 C777 1.403 1_545 S
C775 C772 1.403 . S
C775 C776 1.524 . S
C775 C779 1.400 1_545 S
C776 H761 0.960 . S
C776 H762 0.960 . S
C776 H763 0.960 . S
C776 C775 1.524 . S
C777 C774 1.403 1_565 S
C777 C778 1.392 . S
C777 C781 1.495 . S
C778 C777 1.392 . S
C778 C779 1.385 . S
C778 C780 1.478 . S
C779 H773 0.930 . S
C779 C775 1.400 1_565 S
C779 C778 1.385 . S
C780 C778 1.478 . S
C780 C782 1.381 . S
C780 C786 1.383 . S
C781 C777 1.495 . S
C781 H787 0.959 . S
C781 H788 0.961 . S
C781 H789 0.960 . S
C782 C780 1.381 . S
C782 C783 1.394 . S
C782 H790 0.930 . S
C783 C782 1.394 . S
C783 C784 1.383 . S
C783 H791 0.929 . S
C784 C783 1.383 . S
C784 C785 1.377 . S
C785 H769 0.930 . S
C785 C784 1.377 . S
C785 C786 1.379 . S
C786 H770 0.931 . S
C786 C780 1.383 . S
C786 C785 1.379 . S
H787 C781 0.959 . S
H788 C781 0.961 . S
H789 C781 0.960 . S
H790 C782 0.930 . S
H791 C783 0.929 . S
H792 C800 0.929 . S
H793 C802 0.930 . S
H794 C804 0.930 . S
H795 C807 0.929 . S
H796 C810 0.930 . S
H797 C812 0.960 . S
H798 C812 0.960 . S
H799 C812 0.960 . S
C800 H792 0.929 . S
C800 C801 1.377 . S
C800 C802 1.384 . S
C801 C800 1.377 . S
C801 C807 1.390 . S
C802 H793 0.930 . S
C802 C800 1.384 . S
C802 C803 1.372 . S
C803 C802 1.372 . S
C803 C804 1.400 . S
C803 C808 1.490 . S
C804 H794 0.930 . S
C804 C803 1.400 . S
C804 C807 1.386 . S
H805 C821 0.930 . S
H806 C822 0.931 . S
C807 H795 0.929 . S
C807 C801 1.390 . S
C807 C804 1.386 . S
C808 C803 1.490 . S
C808 C810 1.395 . S
C808 C811 1.403 . S
H809 C815 0.930 1_655 S
C810 H796 0.930 . S
C810 C808 1.395 . S
C810 C813 1.403 . S
C811 C808 1.403 . S
C811 C812 1.524 . S
C811 C815 1.400 . S
C812 H797 0.960 . S
C812 H798 0.960 . S
C812 H799 0.960 . S
C812 C811 1.524 . S
C813 C810 1.403 . S
C813 C814 1.392 1_455 S
C813 C817 1.495 1_455 S
C814 C813 1.392 1_655 S
C814 C815 1.385 1_655 S
C814 C816 1.478 . S
C815 H809 0.930 1_455 S
C815 C811 1.400 . S
C815 C814 1.385 1_455 S
C816 C814 1.478 . S
C816 C818 1.381 . S
C816 C822 1.383 . S
C817 C813 1.495 1_655 S
C817 H823 0.959 1_655 S
C817 H824 0.961 . S
C817 H825 0.960 . S
C818 C816 1.381 . S
C818 C819 1.394 . S
C818 H826 0.930 . S
C819 C818 1.394 . S
C819 C820 1.383 . S
C819 H827 0.929 . S
C820 C819 1.383 . S
C820 C821 1.377 . S
C821 H805 0.930 . S
C821 C820 1.377 . S
C821 C822 1.379 . S
C822 H806 0.931 . S
C822 C816 1.383 . S
C822 C821 1.379 . S
H823 C817 0.959 1_455 S
H824 C817 0.961 . S
H825 C817 0.960 . S
H826 C818 0.930 . S
H827 C819 0.929 . S
H828 C836 0.929 . S
H829 C838 0.930 . S
H830 C840 0.930 . S
H831 C843 0.929 . S
H832 C846 0.930 . S
H833 C848 0.960 . S
H834 C848 0.960 . S
H835 C848 0.960 . S
C836 H828 0.929 . S
C836 C837 1.377 . S
C836 C838 1.384 . S
C837 C836 1.377 . S
C837 C843 1.390 . S
C838 H829 0.930 . S
C838 C836 1.384 . S
C838 C839 1.372 . S
C839 C838 1.372 . S
C839 C840 1.400 . S
C839 C844 1.490 . S
C840 H830 0.930 . S
C840 C839 1.400 . S
C840 C843 1.386 . S
H841 C857 0.930 . S
H842 C858 0.931 . S
C843 H831 0.929 . S
C843 C837 1.390 . S
C843 C840 1.386 . S
C844 C839 1.490 . S
C844 C846 1.395 . S
C844 C847 1.403 . S
H845 C851 0.930 . S
C846 H832 0.930 . S
C846 C844 1.395 . S
C846 C849 1.403 . S
C847 C844 1.403 . S
C847 C848 1.524 . S
C847 C851 1.400 . S
C848 H833 0.960 . S
C848 H834 0.960 . S
C848 H835 0.960 . S
C848 C847 1.524 . S
C849 C846 1.403 . S
C849 C850 1.392 . S
C849 C853 1.495 . S
C850 C849 1.392 . S
C850 C851 1.385 . S
C850 C852 1.478 . S
C851 H845 0.930 . S
C851 C847 1.400 . S
C851 C850 1.385 . S
C852 C850 1.478 . S
C852 C854 1.381 . S
C852 C858 1.383 . S
C853 C849 1.495 . S
C853 H859 0.959 . S
C853 H860 0.961 . S
C853 H861 0.960 . S
C854 C852 1.381 . S
C854 C855 1.394 . S
C854 H862 0.930 . S
C855 C854 1.394 . S
C855 C856 1.383 . S
C855 H863 0.929 . S
C856 C855 1.383 . S
C856 C857 1.377 . S
C857 H841 0.930 . S
C857 C856 1.377 . S
C857 C858 1.379 . S
C858 H842 0.931 . S
C858 C852 1.383 . S
C858 C857 1.379 . S
H859 C853 0.959 . S
H860 C853 0.961 . S
H861 C853 0.960 . S
H862 C854 0.930 . S
H863 C855 0.929 . S
H864 C872 0.929 . S
H865 C874 0.930 . S
H866 C876 0.930 . S
H867 C879 0.929 . S
H868 C882 0.930 . S
H869 C884 0.960 . S
H870 C884 0.960 . S
H871 C884 0.960 . S
C872 H864 0.929 . S
C872 C873 1.377 . S
C872 C874 1.384 . S
C873 C872 1.377 . S
C873 C879 1.390 . S
C874 H865 0.930 . S
C874 C872 1.384 . S
C874 C875 1.372 . S
C875 C874 1.372 . S
C875 C876 1.400 . S
C875 C880 1.490 . S
C876 H866 0.930 . S
C876 C875 1.400 . S
C876 C879 1.386 . S
H877 C893 0.930 . S
H878 C894 0.931 . S
C879 H867 0.929 . S
C879 C873 1.390 . S
C879 C876 1.386 . S
C880 C875 1.490 . S
C880 C882 1.395 . S
C880 C883 1.403 . S
H881 C887 0.930 . S
C882 H868 0.930 . S
C882 C880 1.395 . S
C882 C885 1.403 . S
C883 C880 1.403 . S
C883 C884 1.524 . S
C883 C887 1.400 . S
C884 H869 0.960 . S
C884 H870 0.960 . S
C884 H871 0.960 . S
C884 C883 1.524 . S
C885 C882 1.403 . S
C885 C886 1.392 . S
C885 C889 1.495 . S
C886 C885 1.392 . S
C886 C887 1.385 . S
C886 C888 1.478 . S
C887 H881 0.930 . S
C887 C883 1.400 . S
C887 C886 1.385 . S
C888 C886 1.478 . S
C888 C890 1.381 . S
C888 C894 1.383 . S
C889 C885 1.495 . S
C889 H895 0.959 . S
C889 H896 0.961 . S
C889 H897 0.960 . S
C890 C888 1.381 . S
C890 C891 1.394 . S
C890 H898 0.930 . S
C891 C890 1.394 . S
C891 C892 1.383 . S
C891 H899 0.929 . S
C892 C891 1.383 . S
C892 C893 1.377 . S
C893 H877 0.930 . S
C893 C892 1.377 . S
C893 C894 1.379 . S
C894 H878 0.931 . S
C894 C888 1.383 . S
C894 C893 1.379 . S
H895 C889 0.959 . S
H896 C889 0.961 . S
H897 C889 0.960 . S
H898 C890 0.930 . S
H899 C891 0.929 . S
H900 C908 0.929 . S
H901 C910 0.930 . S
H902 C912 0.930 . S
H903 C915 0.929 . S
H904 C918 0.930 . S
H905 C920 0.960 . S
H906 C920 0.960 . S
H907 C920 0.960 . S
C908 H900 0.929 . S
C908 C909 1.377 . S
C908 C910 1.384 . S
C909 C908 1.377 . S
C909 C915 1.390 . S
C910 H901 0.930 . S
C910 C908 1.384 . S
C910 C911 1.372 . S
C911 C910 1.372 . S
C911 C912 1.400 . S
C911 C916 1.490 . S
C912 H902 0.930 . S
C912 C911 1.400 . S
C912 C915 1.386 . S
H913 C929 0.930 . S
H914 C930 0.931 . S
C915 H903 0.929 . S
C915 C909 1.390 . S
C915 C912 1.386 . S
C916 C911 1.490 . S
C916 C918 1.395 . S
C916 C919 1.403 . S
H917 C923 0.930 . S
C918 H904 0.930 . S
C918 C916 1.395 . S
C918 C921 1.403 . S
C919 C916 1.403 . S
C919 C920 1.524 . S
C919 C923 1.400 . S
C920 H905 0.960 . S
C920 H906 0.960 . S
C920 H907 0.960 . S
C920 C919 1.524 . S
C921 C918 1.403 . S
C921 C922 1.392 . S
C921 C925 1.495 . S
C922 C921 1.392 . S
C922 C923 1.385 . S
C922 C924 1.478 . S
C923 H917 0.930 . S
C923 C919 1.400 . S
C923 C922 1.385 . S
C924 C922 1.478 . S
C924 C926 1.381 . S
C924 C930 1.383 . S
C925 C921 1.495 . S
C925 H931 0.959 . S
C925 H932 0.961 . S
C925 H933 0.960 . S
C926 C924 1.381 . S
C926 C927 1.394 . S
C926 H934 0.930 . S
C927 C926 1.394 . S
C927 C928 1.383 . S
C927 H935 0.929 . S
C928 C927 1.383 . S
C928 C929 1.377 . S
C929 H913 0.930 . S
C929 C928 1.377 . S
C929 C930 1.379 . S
C930 H914 0.931 . S
C930 C924 1.383 . S
C930 C929 1.379 . S
H931 C925 0.959 . S
H932 C925 0.961 . S
H933 C925 0.960 . S
H934 C926 0.930 . S
H935 C927 0.929 . S
H936 C944 0.929 . S
H937 C946 0.930 . S
H938 C948 0.930 . S
H939 C951 0.929 . S
H940 C954 0.930 . S
H941 C956 0.960 . S
H942 C956 0.960 . S
H943 C956 0.960 . S
C944 H936 0.929 . S
C944 C945 1.377 . S
C944 C946 1.384 . S
C945 C944 1.377 . S
C945 C951 1.390 . S
C946 H937 0.930 . S
C946 C944 1.384 . S
C946 C947 1.372 . S
C947 C946 1.372 . S
C947 C948 1.400 . S
C947 C952 1.490 . S
C948 H938 0.930 . S
C948 C947 1.400 . S
C948 C951 1.386 . S
H949 C965 0.930 . S
H950 C966 0.931 . S
C951 H939 0.929 . S
C951 C945 1.390 . S
C951 C948 1.386 . S
C952 C947 1.490 . S
C952 C954 1.395 . S
C952 C955 1.403 . S
H953 C959 0.930 . S
C954 H940 0.930 . S
C954 C952 1.395 . S
C954 C957 1.403 . S
C955 C952 1.403 . S
C955 C956 1.524 . S
C955 C959 1.400 . S
C956 H941 0.960 . S
C956 H942 0.960 . S
C956 H943 0.960 . S
C956 C955 1.524 . S
C957 C954 1.403 . S
C957 C958 1.392 . S
C957 C961 1.495 . S
C958 C957 1.392 . S
C958 C959 1.385 . S
C958 C960 1.478 . S
C959 H953 0.930 . S
C959 C955 1.400 . S
C959 C958 1.385 . S
C960 C958 1.478 . S
C960 C962 1.381 . S
C960 C966 1.383 . S
C961 C957 1.495 . S
C961 H967 0.959 . S
C961 H968 0.961 . S
C961 H969 0.960 . S
C962 C960 1.381 . S
C962 C963 1.394 . S
C962 H970 0.930 . S
C963 C962 1.394 . S
C963 C964 1.383 . S
C963 H971 0.929 . S
C964 C963 1.383 . S
C964 C965 1.377 . S
C965 H949 0.930 . S
C965 C964 1.377 . S
C965 C966 1.379 . S
C966 H950 0.931 . S
C966 C960 1.383 . S
C966 C965 1.379 . S
H967 C961 0.959 . S
H968 C961 0.961 . S
H969 C961 0.960 . S
H970 C962 0.930 . S
H971 C963 0.929 . S
H972 C980 0.929 . S
H973 C982 0.930 . S
H974 C984 0.930 . S
H975 C987 0.929 . S
H976 C990 0.930 . S
H977 C992 0.960 . S
H978 C992 0.960 . S
H979 C992 0.960 . S
C980 H972 0.929 . S
C980 C981 1.377 . S
C980 C982 1.384 . S
C981 C980 1.377 . S
C981 C987 1.390 . S
C982 H973 0.930 . S
C982 C980 1.384 . S
C982 C983 1.372 . S
C983 C982 1.372 . S
C983 C984 1.400 . S
C983 C988 1.490 . S
C984 H974 0.930 . S
C984 C983 1.400 . S
C984 C987 1.386 . S
H985 C1001 0.930 . S
H986 C1002 0.931 . S
C987 H975 0.929 . S
C987 C981 1.390 . S
C987 C984 1.386 . S
C988 C983 1.490 . S
C988 C990 1.395 . S
C988 C991 1.403 . S
H989 C995 0.930 . S
C990 H976 0.930 . S
C990 C988 1.395 . S
C990 C993 1.403 . S
C991 C988 1.403 . S
C991 C992 1.524 . S
C991 C995 1.400 . S
C992 H977 0.960 . S
C992 H978 0.960 . S
C992 H979 0.960 . S
C992 C991 1.524 . S
C993 C990 1.403 . S
C993 C994 1.392 . S
C993 C997 1.495 . S
C994 C993 1.392 . S
C994 C995 1.385 . S
C994 C996 1.478 . S
C995 H989 0.930 . S
C995 C991 1.400 . S
C995 C994 1.385 . S
C996 C994 1.478 . S
C996 C998 1.381 . S
C996 C1002 1.383 . S
C997 C993 1.495 . S
C997 H1003 0.959 . S
C997 H1004 0.961 . S
C997 H1005 0.960 . S
C998 C996 1.381 . S
C998 C999 1.394 . S
C998 H1006 0.930 . S
C999 C998 1.394 . S
C999 C1000 1.383 . S
C999 H1007 0.929 . S
C1000 C999 1.383 . S
C1000 C1001 1.377 . S
C1001 H985 0.930 . S
C1001 C1000 1.377 . S
C1001 C1002 1.379 . S
C1002 H986 0.931 . S
C1002 C996 1.383 . S
C1002 C1001 1.379 . S
H1003 C997 0.959 . S
H1004 C997 0.961 . S
H1005 C997 0.960 . S
H1006 C998 0.930 . S
H1007 C999 0.929 . S
H1008 C1016 0.929 . S
H1009 C1018 0.930 . S
H1010 C1020 0.930 . S
H1011 C1023 0.929 . S
H1012 C1026 0.930 . S
H1013 C1028 0.960 . S
H1014 C1028 0.960 . S
H1015 C1028 0.960 . S
C1016 H1008 0.929 . S
C1016 C1017 1.377 . S
C1016 C1018 1.384 . S
C1017 C1016 1.377 . S
C1017 C1023 1.390 . S
C1018 H1009 0.930 . S
C1018 C1016 1.384 . S
C1018 C1019 1.372 . S
C1019 C1018 1.372 . S
C1019 C1020 1.400 . S
C1019 C1024 1.490 . S
C1020 H1010 0.930 . S
C1020 C1019 1.400 . S
C1020 C1023 1.386 . S
H1021 C1037 0.930 . S
H1022 C1038 0.931 . S
C1023 H1011 0.929 . S
C1023 C1017 1.390 . S
C1023 C1020 1.386 . S
C1024 C1019 1.490 . S
C1024 C1026 1.395 . S
C1024 C1027 1.403 . S
H1025 C1031 0.930 . S
C1026 H1012 0.930 . S
C1026 C1024 1.395 . S
C1026 C1029 1.403 . S
C1027 C1024 1.403 . S
C1027 C1028 1.524 . S
C1027 C1031 1.400 . S
C1028 H1013 0.960 . S
C1028 H1014 0.960 . S
C1028 H1015 0.960 . S
C1028 C1027 1.524 . S
C1029 C1026 1.403 . S
C1029 C1030 1.392 . S
C1029 C1033 1.495 . S
C1030 C1029 1.392 . S
C1030 C1031 1.385 . S
C1030 C1032 1.478 . S
C1031 H1025 0.930 . S
C1031 C1027 1.400 . S
C1031 C1030 1.385 . S
C1032 C1030 1.478 . S
C1032 C1034 1.381 . S
C1032 C1038 1.383 . S
C1033 C1029 1.495 . S
C1033 H1039 0.959 . S
C1033 H1040 0.961 . S
C1033 H1041 0.960 . S
C1034 C1032 1.381 . S
C1034 C1035 1.394 . S
C1034 H1042 0.930 . S
C1035 C1034 1.394 . S
C1035 C1036 1.383 . S
C1035 H1043 0.929 . S
C1036 C1035 1.383 . S
C1036 C1037 1.377 . S
C1037 H1021 0.930 . S
C1037 C1036 1.377 . S
C1037 C1038 1.379 . S
C1038 H1022 0.931 . S
C1038 C1032 1.383 . S
C1038 C1037 1.379 . S
H1039 C1033 0.959 . S
H1040 C1033 0.961 . S
H1041 C1033 0.960 . S
H1042 C1034 0.930 . S
H1043 C1035 0.929 . S
H1044 C1052 0.929 . S
H1045 C1054 0.930 . S
H1046 C1056 0.930 . S
H1047 C1059 0.929 . S
H1048 C1062 0.930 . S
H1049 C1064 0.960 . S
H1050 C1064 0.960 . S
H1051 C1064 0.960 . S
C1052 H1044 0.929 . S
C1052 C1053 1.377 . S
C1052 C1054 1.384 . S
C1053 C1052 1.377 . S
C1053 C1059 1.390 . S
C1054 H1045 0.930 . S
C1054 C1052 1.384 . S
C1054 C1055 1.372 . S
C1055 C1054 1.372 . S
C1055 C1056 1.400 . S
C1055 C1060 1.490 . S
C1056 H1046 0.930 . S
C1056 C1055 1.400 . S
C1056 C1059 1.386 . S
H1057 C1073 0.930 . S
H1058 C1074 0.931 . S
C1059 H1047 0.929 . S
C1059 C1053 1.390 . S
C1059 C1056 1.386 . S
C1060 C1055 1.490 . S
C1060 C1062 1.395 . S
C1060 C1063 1.403 . S
H1061 C1067 0.930 . S
C1062 H1048 0.930 . S
C1062 C1060 1.395 . S
C1062 C1065 1.403 . S
C1063 C1060 1.403 . S
C1063 C1064 1.524 . S
C1063 C1067 1.400 . S
C1064 H1049 0.960 . S
C1064 H1050 0.960 . S
C1064 H1051 0.960 . S
C1064 C1063 1.524 . S
C1065 C1062 1.403 . S
C1065 C1066 1.392 . S
C1065 C1069 1.495 . S
C1066 C1065 1.392 . S
C1066 C1067 1.385 . S
C1066 C1068 1.478 . S
C1067 H1061 0.930 . S
C1067 C1063 1.400 . S
C1067 C1066 1.385 . S
C1068 C1066 1.478 . S
C1068 C1070 1.381 . S
C1068 C1074 1.383 . S
C1069 C1065 1.495 . S
C1069 H1075 0.959 . S
C1069 H1076 0.961 . S
C1069 H1077 0.960 . S
C1070 C1068 1.381 . S
C1070 C1071 1.394 . S
C1070 H1078 0.930 . S
C1071 C1070 1.394 . S
C1071 C1072 1.383 . S
C1071 H1079 0.929 . S
C1072 C1071 1.383 . S
C1072 C1073 1.377 . S
C1073 H1057 0.930 . S
C1073 C1072 1.377 . S
C1073 C1074 1.379 . S
C1074 H1058 0.931 . S
C1074 C1068 1.383 . S
C1074 C1073 1.379 . S
H1075 C1069 0.959 . S
H1076 C1069 0.961 . S
H1077 C1069 0.960 . S
H1078 C1070 0.930 . S
H1079 C1071 0.929 . S
H1080 C1088 0.929 . S
H1081 C1090 0.930 . S
H1082 C1092 0.930 . S
H1083 C1095 0.929 . S
H1084 C1098 0.930 . S
H1085 C1100 0.960 . S
H1086 C1100 0.960 . S
H1087 C1100 0.960 . S
C1088 H1080 0.929 . S
C1088 C1089 1.377 . S
C1088 C1090 1.384 . S
C1089 C1088 1.377 . S
C1089 C1095 1.390 . S
C1090 H1081 0.930 . S
C1090 C1088 1.384 . S
C1090 C1091 1.372 . S
C1091 C1090 1.372 . S
C1091 C1092 1.400 . S
C1091 C1096 1.490 . S
C1092 H1082 0.930 . S
C1092 C1091 1.400 . S
C1092 C1095 1.386 . S
H1093 C1109 0.930 . S
H1094 C1110 0.931 . S
C1095 H1083 0.929 . S
C1095 C1089 1.390 . S
C1095 C1092 1.386 . S
C1096 C1091 1.490 . S
C1096 C1098 1.395 . S
C1096 C1099 1.403 . S
H1097 C1103 0.930 . S
C1098 H1084 0.930 . S
C1098 C1096 1.395 . S
C1098 C1101 1.403 . S
C1099 C1096 1.403 . S
C1099 C1100 1.524 . S
C1099 C1103 1.400 . S
C1100 H1085 0.960 . S
C1100 H1086 0.960 . S
C1100 H1087 0.960 . S
C1100 C1099 1.524 . S
C1101 C1098 1.403 . S
C1101 C1102 1.392 . S
C1101 C1105 1.495 . S
C1102 C1101 1.392 . S
C1102 C1103 1.385 . S
C1102 C1104 1.478 . S
C1103 H1097 0.930 . S
C1103 C1099 1.400 . S
C1103 C1102 1.385 . S
C1104 C1102 1.478 . S
C1104 C1106 1.381 . S
C1104 C1110 1.383 . S
C1105 C1101 1.495 . S
C1105 H1111 0.959 . S
C1105 H1112 0.961 . S
C1105 H1113 0.960 . S
C1106 C1104 1.381 . S
C1106 C1107 1.394 . S
C1106 H1114 0.930 . S
C1107 C1106 1.394 . S
C1107 C1108 1.383 . S
C1107 H1115 0.929 . S
C1108 C1107 1.383 . S
C1108 C1109 1.377 . S
C1109 H1093 0.930 . S
C1109 C1108 1.377 . S
C1109 C1110 1.379 . S
C1110 H1094 0.931 . S
C1110 C1104 1.383 . S
C1110 C1109 1.379 . S
H1111 C1105 0.959 . S
H1112 C1105 0.961 . S
H1113 C1105 0.960 . S
H1114 C1106 0.930 . S
H1115 C1107 0.929 . S
H1116 C1124 0.929 . S
H1117 C1126 0.930 . S
H1118 C1128 0.930 . S
H1119 C1131 0.929 . S
H1120 C1134 0.930 . S
H1121 C1136 0.960 . S
H1122 C1136 0.960 . S
H1123 C1136 0.960 . S
C1124 H1116 0.929 . S
C1124 C1125 1.377 . S
C1124 C1126 1.384 . S
C1125 C1124 1.377 . S
C1125 C1131 1.390 . S
C1126 H1117 0.930 . S
C1126 C1124 1.384 . S
C1126 C1127 1.372 . S
C1127 C1126 1.372 . S
C1127 C1128 1.400 . S
C1127 C1132 1.490 . S
C1128 H1118 0.930 . S
C1128 C1127 1.400 . S
C1128 C1131 1.386 . S
H1129 C1145 0.930 . S
H1130 C1146 0.931 . S
C1131 H1119 0.929 . S
C1131 C1125 1.390 . S
C1131 C1128 1.386 . S
C1132 C1127 1.490 . S
C1132 C1134 1.395 . S
C1132 C1135 1.403 . S
H1133 C1139 0.930 . S
C1134 H1120 0.930 . S
C1134 C1132 1.395 . S
C1134 C1137 1.403 . S
C1135 C1132 1.403 . S
C1135 C1136 1.524 . S
C1135 C1139 1.400 . S
C1136 H1121 0.960 . S
C1136 H1122 0.960 . S
C1136 H1123 0.960 . S
C1136 C1135 1.524 . S
C1137 C1134 1.403 . S
C1137 C1138 1.392 . S
C1137 C1141 1.495 . S
C1138 C1137 1.392 . S
C1138 C1139 1.385 . S
C1138 C1140 1.478 . S
C1139 H1133 0.930 . S
C1139 C1135 1.400 . S
C1139 C1138 1.385 . S
C1140 C1138 1.478 . S
C1140 C1142 1.381 . S
C1140 C1146 1.383 . S
C1141 C1137 1.495 . S
C1141 H1147 0.959 . S
C1141 H1148 0.961 . S
C1141 H1149 0.960 . S
C1142 C1140 1.381 . S
C1142 C1143 1.394 . S
C1142 H1150 0.930 . S
C1143 C1142 1.394 . S
C1143 C1144 1.383 . S
C1143 H1151 0.929 . S
C1144 C1143 1.383 . S
C1144 C1145 1.377 . S
C1145 H1129 0.930 . S
C1145 C1144 1.377 . S
C1145 C1146 1.379 . S
C1146 H1130 0.931 . S
C1146 C1140 1.383 . S
C1146 C1145 1.379 . S
H1147 C1141 0.959 . S
H1148 C1141 0.961 . S
H1149 C1141 0.960 . S
H1150 C1142 0.930 . S
H1151 C1143 0.929 . S
H1152 C1160 0.929 . S
H1153 C1162 0.930 . S
H1154 C1164 0.930 . S
H1155 C1167 0.929 . S
H1156 C1170 0.930 . S
H1157 C1172 0.960 . S
H1158 C1172 0.960 . S
H1159 C1172 0.960 . S
C1160 H1152 0.929 . S
C1160 C1161 1.377 . S
C1160 C1162 1.384 . S
C1161 C1160 1.377 . S
C1161 C1167 1.390 . S
C1162 H1153 0.930 . S
C1162 C1160 1.384 . S
C1162 C1163 1.372 . S
C1163 C1162 1.372 . S
C1163 C1164 1.400 . S
C1163 C1168 1.490 . S
C1164 H1154 0.930 . S
C1164 C1163 1.400 . S
C1164 C1167 1.386 . S
H1165 C1181 0.930 . S
H1166 C1182 0.931 . S
C1167 H1155 0.929 . S
C1167 C1161 1.390 . S
C1167 C1164 1.386 . S
C1168 C1163 1.490 . S
C1168 C1170 1.395 . S
C1168 C1171 1.403 . S
H1169 C1175 0.930 . S
C1170 H1156 0.930 . S
C1170 C1168 1.395 . S
C1170 C1173 1.403 . S
C1171 C1168 1.403 . S
C1171 C1172 1.524 . S
C1171 C1175 1.400 . S
C1172 H1157 0.960 . S
C1172 H1158 0.960 . S
C1172 H1159 0.960 . S
C1172 C1171 1.524 . S
C1173 C1170 1.403 . S
C1173 C1174 1.392 . S
C1173 C1177 1.495 . S
C1174 C1173 1.392 . S
C1174 C1175 1.385 . S
C1174 C1176 1.478 . S
C1175 H1169 0.930 . S
C1175 C1171 1.400 . S
C1175 C1174 1.385 . S
C1176 C1174 1.478 . S
C1176 C1178 1.381 . S
C1176 C1182 1.383 . S
C1177 C1173 1.495 . S
C1177 H1183 0.959 . S
C1177 H1184 0.961 . S
C1177 H1185 0.960 . S
C1178 C1176 1.381 . S
C1178 C1179 1.394 . S
C1178 H1186 0.930 . S
C1179 C1178 1.394 . S
C1179 C1180 1.383 . S
C1179 H1187 0.929 . S
C1180 C1179 1.383 . S
C1180 C1181 1.377 . S
C1181 H1165 0.930 . S
C1181 C1180 1.377 . S
C1181 C1182 1.379 . S
C1182 H1166 0.931 . S
C1182 C1176 1.383 . S
C1182 C1181 1.379 . S
H1183 C1177 0.959 . S
H1184 C1177 0.961 . S
H1185 C1177 0.960 . S
H1186 C1178 0.930 . S
H1187 C1179 0.929 . S
H1188 C1196 0.929 . S
H1189 C1198 0.930 . S
H1190 C1200 0.930 . S
H1191 C1203 0.929 . S
H1192 C1206 0.930 . S
H1193 C1208 0.960 . S
H1194 C1208 0.960 . S
H1195 C1208 0.960 . S
C1196 H1188 0.929 . S
C1196 C1197 1.377 . S
C1196 C1198 1.384 . S
C1197 C1196 1.377 . S
C1197 C1203 1.390 . S
C1198 H1189 0.930 . S
C1198 C1196 1.384 . S
C1198 C1199 1.372 . S
C1199 C1198 1.372 . S
C1199 C1200 1.400 . S
C1199 C1204 1.490 . S
C1200 H1190 0.930 . S
C1200 C1199 1.400 . S
C1200 C1203 1.386 . S
H1201 C1217 0.930 . S
H1202 C1218 0.931 . S
C1203 H1191 0.929 . S
C1203 C1197 1.390 . S
C1203 C1200 1.386 . S
C1204 C1199 1.490 . S
C1204 C1206 1.395 . S
C1204 C1207 1.403 . S
H1205 C1211 0.930 . S
C1206 H1192 0.930 . S
C1206 C1204 1.395 . S
C1206 C1209 1.403 . S
C1207 C1204 1.403 . S
C1207 C1208 1.524 . S
C1207 C1211 1.400 . S
C1208 H1193 0.960 . S
C1208 H1194 0.960 . S
C1208 H1195 0.960 . S
C1208 C1207 1.524 . S
C1209 C1206 1.403 . S
C1209 C1210 1.392 . S
C1209 C1213 1.495 . S
C1210 C1209 1.392 . S
C1210 C1211 1.385 . S
C1210 C1212 1.478 . S
C1211 H1205 0.930 . S
C1211 C1207 1.400 . S
C1211 C1210 1.385 . S
C1212 C1210 1.478 . S
C1212 C1214 1.381 . S
C1212 C1218 1.383 . S
C1213 C1209 1.495 . S
C1213 H1219 0.959 . S
C1213 H1220 0.961 . S
C1213 H1221 0.960 . S
C1214 C1212 1.381 . S
C1214 C1215 1.394 . S
C1214 H1222 0.930 . S
C1215 C1214 1.394 . S
C1215 C1216 1.383 . S
C1215 H1223 0.929 . S
C1216 C1215 1.383 . S
C1216 C1217 1.377 . S
C1217 H1201 0.930 . S
C1217 C1216 1.377 . S
C1217 C1218 1.379 . S
C1218 H1202 0.931 . S
C1218 C1212 1.383 . S
C1218 C1217 1.379 . S
H1219 C1213 0.959 . S
H1220 C1213 0.961 . S
H1221 C1213 0.960 . S
H1222 C1214 0.930 . S
H1223 C1215 0.929 . S
H1224 C1232 0.929 . S
H1225 C1234 0.930 . S
H1226 C1236 0.930 . S
H1227 C1239 0.929 . S
H1228 C1242 0.930 . S
H1229 C1244 0.960 . S
H1230 C1244 0.960 . S
H1231 C1244 0.960 . S
C1232 H1224 0.929 . S
C1232 C1233 1.377 . S
C1232 C1234 1.384 . S
C1233 C1232 1.377 . S
C1233 C1239 1.390 . S
C1234 H1225 0.930 . S
C1234 C1232 1.384 . S
C1234 C1235 1.372 . S
C1235 C1234 1.372 . S
C1235 C1236 1.400 . S
C1235 C1240 1.490 . S
C1236 H1226 0.930 . S
C1236 C1235 1.400 . S
C1236 C1239 1.386 . S
H1237 C1253 0.930 . S
H1238 C1254 0.931 . S
C1239 H1227 0.929 . S
C1239 C1233 1.390 . S
C1239 C1236 1.386 . S
C1240 C1235 1.490 . S
C1240 C1242 1.395 . S
C1240 C1243 1.403 . S
H1241 C1247 0.930 . S
C1242 H1228 0.930 . S
C1242 C1240 1.395 . S
C1242 C1245 1.403 . S
C1243 C1240 1.403 . S
C1243 C1244 1.524 . S
C1243 C1247 1.400 . S
C1244 H1229 0.960 . S
C1244 H1230 0.960 . S
C1244 H1231 0.960 . S
C1244 C1243 1.524 . S
C1245 C1242 1.403 . S
C1245 C1246 1.392 . S
C1245 C1249 1.495 . S
C1246 C1245 1.392 . S
C1246 C1247 1.385 . S
C1246 C1248 1.478 . S
C1247 H1241 0.930 . S
C1247 C1243 1.400 . S
C1247 C1246 1.385 . S
C1248 C1246 1.478 . S
C1248 C1250 1.381 . S
C1248 C1254 1.383 . S
C1249 C1245 1.495 . S
C1249 H1255 0.959 . S
C1249 H1256 0.961 . S
C1249 H1257 0.960 . S
C1250 C1248 1.381 . S
C1250 C1251 1.394 . S
C1250 H1258 0.930 . S
C1251 C1250 1.394 . S
C1251 C1252 1.383 . S
C1251 H1259 0.929 . S
C1252 C1251 1.383 . S
C1252 C1253 1.377 . S
C1253 H1237 0.930 . S
C1253 C1252 1.377 . S
C1253 C1254 1.379 . S
C1254 H1238 0.931 . S
C1254 C1248 1.383 . S
C1254 C1253 1.379 . S
H1255 C1249 0.959 . S
H1256 C1249 0.961 . S
H1257 C1249 0.960 . S
H1258 C1250 0.930 . S
H1259 C1251 0.929 . S
H1260 C1268 0.929 . S
H1261 C1270 0.930 . S
H1262 C1272 0.930 . S
H1263 C1275 0.929 . S
H1264 C1278 0.930 . S
H1265 C1280 0.960 . S
H1266 C1280 0.960 . S
H1267 C1280 0.960 . S
C1268 H1260 0.929 . S
C1268 C1269 1.377 . S
C1268 C1270 1.384 . S
C1269 C1268 1.377 . S
C1269 C1275 1.390 . S
C1270 H1261 0.930 . S
C1270 C1268 1.384 . S
C1270 C1271 1.372 . S
C1271 C1270 1.372 . S
C1271 C1272 1.400 . S
C1271 C1276 1.490 . S
C1272 H1262 0.930 . S
C1272 C1271 1.400 . S
C1272 C1275 1.386 . S
H1273 C1289 0.930 . S
H1274 C1290 0.931 . S
C1275 H1263 0.929 . S
C1275 C1269 1.390 . S
C1275 C1272 1.386 . S
C1276 C1271 1.490 . S
C1276 C1278 1.395 . S
C1276 C1279 1.403 . S
H1277 C1283 0.930 . S
C1278 H1264 0.930 . S
C1278 C1276 1.395 . S
C1278 C1281 1.403 . S
C1279 C1276 1.403 . S
C1279 C1280 1.524 . S
C1279 C1283 1.400 . S
C1280 H1265 0.960 . S
C1280 H1266 0.960 . S
C1280 H1267 0.960 . S
C1280 C1279 1.524 . S
C1281 C1278 1.403 . S
C1281 C1282 1.392 . S
C1281 C1285 1.495 . S
C1282 C1281 1.392 . S
C1282 C1283 1.385 . S
C1282 C1284 1.478 . S
C1283 H1277 0.930 . S
C1283 C1279 1.400 . S
C1283 C1282 1.385 . S
C1284 C1282 1.478 . S
C1284 C1286 1.381 . S
C1284 C1290 1.383 . S
C1285 C1281 1.495 . S
C1285 H1291 0.959 . S
C1285 H1292 0.961 . S
C1285 H1293 0.960 . S
C1286 C1284 1.381 . S
C1286 C1287 1.394 . S
C1286 H1294 0.930 . S
C1287 C1286 1.394 . S
C1287 C1288 1.383 . S
C1287 H1295 0.929 . S
C1288 C1287 1.383 . S
C1288 C1289 1.377 . S
C1289 H1273 0.930 . S
C1289 C1288 1.377 . S
C1289 C1290 1.379 . S
C1290 H1274 0.931 . S
C1290 C1284 1.383 . S
C1290 C1289 1.379 . S
H1291 C1285 0.959 . S
H1292 C1285 0.961 . S
H1293 C1285 0.960 . S
H1294 C1286 0.930 . S
H1295 C1287 0.929 . S
H1296 C1304 0.929 . S
H1297 C1306 0.930 . S
H1298 C1308 0.930 . S
H1299 C1311 0.929 . S
H1300 C1314 0.930 . S
H1301 C1316 0.960 . S
H1302 C1316 0.960 . S
H1303 C1316 0.960 . S
C1304 H1296 0.929 . S
C1304 C1305 1.377 . S
C1304 C1306 1.384 . S
C1305 C1304 1.377 . S
C1305 C1311 1.390 . S
C1306 H1297 0.930 . S
C1306 C1304 1.384 . S
C1306 C1307 1.372 . S
C1307 C1306 1.372 . S
C1307 C1308 1.400 . S
C1307 C1312 1.490 . S
C1308 H1298 0.930 . S
C1308 C1307 1.400 . S
C1308 C1311 1.386 . S
H1309 C1325 0.930 . S
H1310 C1326 0.931 . S
C1311 H1299 0.929 . S
C1311 C1305 1.390 . S
C1311 C1308 1.386 . S
C1312 C1307 1.490 . S
C1312 C1314 1.395 . S
C1312 C1315 1.403 . S
H1313 C1319 0.930 . S
C1314 H1300 0.930 . S
C1314 C1312 1.395 . S
C1314 C1317 1.403 . S
C1315 C1312 1.403 . S
C1315 C1316 1.524 . S
C1315 C1319 1.400 . S
C1316 H1301 0.960 . S
C1316 H1302 0.960 . S
C1316 H1303 0.960 . S
C1316 C1315 1.524 . S
C1317 C1314 1.403 . S
C1317 C1318 1.392 . S
C1317 C1321 1.495 . S
C1318 C1317 1.392 . S
C1318 C1319 1.385 . S
C1318 C1320 1.478 . S
C1319 H1313 0.930 . S
C1319 C1315 1.400 . S
C1319 C1318 1.385 . S
C1320 C1318 1.478 . S
C1320 C1322 1.381 . S
C1320 C1326 1.383 . S
C1321 C1317 1.495 . S
C1321 H1327 0.959 . S
C1321 H1328 0.961 . S
C1321 H1329 0.960 . S
C1322 C1320 1.381 . S
C1322 C1323 1.394 . S
C1322 H1330 0.930 . S
C1323 C1322 1.394 . S
C1323 C1324 1.383 . S
C1323 H1331 0.929 . S
C1324 C1323 1.383 . S
C1324 C1325 1.377 . S
C1325 H1309 0.930 . S
C1325 C1324 1.377 . S
C1325 C1326 1.379 . S
C1326 H1310 0.931 . S
C1326 C1320 1.383 . S
C1326 C1325 1.379 . S
H1327 C1321 0.959 . S
H1328 C1321 0.961 . S
H1329 C1321 0.960 . S
H1330 C1322 0.930 . S
H1331 C1323 0.929 . S
H1332 C1340 0.929 . S
H1333 C1342 0.930 . S
H1334 C1344 0.930 . S
H1335 C1347 0.929 . S
H1336 C1350 0.930 . S
H1337 C1352 0.960 . S
H1338 C1352 0.960 . S
H1339 C1352 0.960 . S
C1340 H1332 0.929 . S
C1340 C1341 1.377 . S
C1340 C1342 1.384 . S
C1341 C1340 1.377 . S
C1341 C1347 1.390 . S
C1342 H1333 0.930 . S
C1342 C1340 1.384 . S
C1342 C1343 1.372 . S
C1343 C1342 1.372 . S
C1343 C1344 1.400 . S
C1343 C1348 1.490 . S
C1344 H1334 0.930 . S
C1344 C1343 1.400 . S
C1344 C1347 1.386 . S
H1345 C1361 0.930 . S
H1346 C1362 0.931 . S
C1347 H1335 0.929 . S
C1347 C1341 1.390 . S
C1347 C1344 1.386 . S
C1348 C1343 1.490 . S
C1348 C1350 1.395 . S
C1348 C1351 1.403 . S
H1349 C1355 0.930 . S
C1350 H1336 0.930 . S
C1350 C1348 1.395 . S
C1350 C1353 1.403 . S
C1351 C1348 1.403 . S
C1351 C1352 1.524 . S
C1351 C1355 1.400 . S
C1352 H1337 0.960 . S
C1352 H1338 0.960 . S
C1352 H1339 0.960 . S
C1352 C1351 1.524 . S
C1353 C1350 1.403 . S
C1353 C1354 1.392 . S
C1353 C1357 1.495 . S
C1354 C1353 1.392 . S
C1354 C1355 1.385 . S
C1354 C1356 1.478 . S
C1355 H1349 0.930 . S
C1355 C1351 1.400 . S
C1355 C1354 1.385 . S
C1356 C1354 1.478 . S
C1356 C1358 1.381 . S
C1356 C1362 1.383 . S
C1357 C1353 1.495 . S
C1357 H1363 0.959 . S
C1357 H1364 0.961 . S
C1357 H1365 0.960 . S
C1358 C1356 1.381 . S
C1358 C1359 1.394 . S
C1358 H1366 0.930 . S
C1359 C1358 1.394 . S
C1359 C1360 1.383 . S
C1359 H1367 0.929 . S
C1360 C1359 1.383 . S
C1360 C1361 1.377 . S
C1361 H1345 0.930 . S
C1361 C1360 1.377 . S
C1361 C1362 1.379 . S
C1362 H1346 0.931 . S
C1362 C1356 1.383 . S
C1362 C1361 1.379 . S
H1363 C1357 0.959 . S
H1364 C1357 0.961 . S
H1365 C1357 0.960 . S
H1366 C1358 0.930 . S
H1367 C1359 0.929 . S
H1368 C1376 0.929 . S
H1369 C1378 0.930 . S
H1370 C1380 0.930 . S
H1371 C1383 0.929 . S
H1372 C1386 0.930 . S
H1373 C1388 0.960 . S
H1374 C1388 0.960 . S
H1375 C1388 0.960 . S
C1376 H1368 0.929 . S
C1376 C1377 1.377 . S
C1376 C1378 1.384 . S
C1377 C1376 1.377 . S
C1377 C1383 1.390 . S
C1378 H1369 0.930 . S
C1378 C1376 1.384 . S
C1378 C1379 1.372 . S
C1379 C1378 1.372 . S
C1379 C1380 1.400 . S
C1379 C1384 1.490 . S
C1380 H1370 0.930 . S
C1380 C1379 1.400 . S
C1380 C1383 1.386 . S
H1381 C1397 0.930 . S
H1382 C1398 0.931 . S
C1383 H1371 0.929 . S
C1383 C1377 1.390 . S
C1383 C1380 1.386 . S
C1384 C1379 1.490 . S
C1384 C1386 1.395 . S
C1384 C1387 1.403 . S
H1385 C1391 0.930 . S
C1386 H1372 0.930 . S
C1386 C1384 1.395 . S
C1386 C1389 1.403 . S
C1387 C1384 1.403 . S
C1387 C1388 1.524 . S
C1387 C1391 1.400 . S
C1388 H1373 0.960 . S
C1388 H1374 0.960 . S
C1388 H1375 0.960 . S
C1388 C1387 1.524 . S
C1389 C1386 1.403 . S
C1389 C1390 1.392 . S
C1389 C1393 1.495 . S
C1390 C1389 1.392 . S
C1390 C1391 1.385 . S
C1390 C1392 1.478 . S
C1391 H1385 0.930 . S
C1391 C1387 1.400 . S
C1391 C1390 1.385 . S
C1392 C1390 1.478 . S
C1392 C1394 1.381 . S
C1392 C1398 1.383 . S
C1393 C1389 1.495 . S
C1393 H1399 0.959 . S
C1393 H1400 0.961 . S
C1393 H1401 0.960 . S
C1394 C1392 1.381 . S
C1394 C1395 1.394 . S
C1394 H1402 0.930 . S
C1395 C1394 1.394 . S
C1395 C1396 1.383 . S
C1395 H1403 0.929 . S
C1396 C1395 1.383 . S
C1396 C1397 1.377 . S
C1397 H1381 0.930 . S
C1397 C1396 1.377 . S
C1397 C1398 1.379 . S
C1398 H1382 0.931 . S
C1398 C1392 1.383 . S
C1398 C1397 1.379 . S
H1399 C1393 0.959 . S
H1400 C1393 0.961 . S
H1401 C1393 0.960 . S
H1402 C1394 0.930 . S
H1403 C1395 0.929 . S
H1404 C1412 0.929 . S
H1405 C1414 0.930 . S
H1406 C1416 0.930 . S
H1407 C1419 0.929 . S
H1408 C1422 0.930 . S
H1409 C1424 0.960 . S
H1410 C1424 0.960 . S
H1411 C1424 0.960 . S
C1412 H1404 0.929 . S
C1412 C1413 1.377 . S
C1412 C1414 1.384 . S
C1413 C1412 1.377 . S
C1413 C1419 1.390 . S
C1414 H1405 0.930 . S
C1414 C1412 1.384 . S
C1414 C1415 1.372 . S
C1415 C1414 1.372 . S
C1415 C1416 1.400 . S
C1415 C1420 1.490 . S
C1416 H1406 0.930 . S
C1416 C1415 1.400 . S
C1416 C1419 1.386 . S
H1417 C1433 0.930 . S
H1418 C1434 0.931 . S
C1419 H1407 0.929 . S
C1419 C1413 1.390 . S
C1419 C1416 1.386 . S
C1420 C1415 1.490 . S
C1420 C1422 1.395 . S
C1420 C1423 1.403 . S
H1421 C1427 0.930 . S
C1422 H1408 0.930 . S
C1422 C1420 1.395 . S
C1422 C1425 1.403 . S
C1423 C1420 1.403 . S
C1423 C1424 1.524 . S
C1423 C1427 1.400 . S
C1424 H1409 0.960 . S
C1424 H1410 0.960 . S
C1424 H1411 0.960 . S
C1424 C1423 1.524 . S
C1425 C1422 1.403 . S
C1425 C1426 1.392 . S
C1425 C1429 1.495 . S
C1426 C1425 1.392 . S
C1426 C1427 1.385 . S
C1426 C1428 1.478 . S
C1427 H1421 0.930 . S
C1427 C1423 1.400 . S
C1427 C1426 1.385 . S
C1428 C1426 1.478 . S
C1428 C1430 1.381 . S
C1428 C1434 1.383 . S
C1429 C1425 1.495 . S
C1429 H1435 0.959 . S
C1429 H1436 0.961 . S
C1429 H1437 0.960 . S
C1430 C1428 1.381 . S
C1430 C1431 1.394 . S
C1430 H1438 0.930 . S
C1431 C1430 1.394 . S
C1431 C1432 1.383 . S
C1431 H1439 0.929 . S
C1432 C1431 1.383 . S
C1432 C1433 1.377 . S
C1433 H1417 0.930 . S
C1433 C1432 1.377 . S
C1433 C1434 1.379 . S
C1434 H1418 0.931 . S
C1434 C1428 1.383 . S
C1434 C1433 1.379 . S
H1435 C1429 0.959 . S
H1436 C1429 0.961 . S
H1437 C1429 0.960 . S
H1438 C1430 0.930 . S
H1439 C1431 0.929 . S
H1440 C1448 0.929 . S
H1441 C1450 0.930 . S
H1442 C1452 0.930 . S
H1443 C1455 0.929 . S
H1444 C1458 0.930 . S
H1445 C1460 0.960 . S
H1446 C1460 0.960 . S
H1447 C1460 0.960 . S
C1448 H1440 0.929 . S
C1448 C1449 1.377 . S
C1448 C1450 1.384 . S
C1449 C1448 1.377 . S
C1449 C1455 1.390 . S
C1450 H1441 0.930 . S
C1450 C1448 1.384 . S
C1450 C1451 1.372 . S
C1451 C1450 1.372 . S
C1451 C1452 1.400 . S
C1451 C1456 1.490 . S
C1452 H1442 0.930 . S
C1452 C1451 1.400 . S
C1452 C1455 1.386 . S
H1453 C1469 0.930 . S
H1454 C1470 0.931 . S
C1455 H1443 0.929 . S
C1455 C1449 1.390 . S
C1455 C1452 1.386 . S
C1456 C1451 1.490 . S
C1456 C1458 1.395 . S
C1456 C1459 1.403 . S
H1457 C1463 0.930 . S
C1458 H1444 0.930 . S
C1458 C1456 1.395 . S
C1458 C1461 1.403 . S
C1459 C1456 1.403 . S
C1459 C1460 1.524 . S
C1459 C1463 1.400 . S
C1460 H1445 0.960 . S
C1460 H1446 0.960 . S
C1460 H1447 0.960 . S
C1460 C1459 1.524 . S
C1461 C1458 1.403 . S
C1461 C1462 1.392 . S
C1461 C1465 1.495 . S
C1462 C1461 1.392 . S
C1462 C1463 1.385 . S
C1462 C1464 1.478 . S
C1463 H1457 0.930 . S
C1463 C1459 1.400 . S
C1463 C1462 1.385 . S
C1464 C1462 1.478 . S
C1464 C1466 1.381 . S
C1464 C1470 1.383 . S
C1465 C1461 1.495 . S
C1465 H1471 0.959 . S
C1465 H1472 0.961 . S
C1465 H1473 0.960 . S
C1466 C1464 1.381 . S
C1466 C1467 1.394 . S
C1466 H1474 0.930 . S
C1467 C1466 1.394 . S
C1467 C1468 1.383 . S
C1467 H1475 0.929 . S
C1468 C1467 1.383 . S
C1468 C1469 1.377 . S
C1469 H1453 0.930 . S
C1469 C1468 1.377 . S
C1469 C1470 1.379 . S
C1470 H1454 0.931 . S
C1470 C1464 1.383 . S
C1470 C1469 1.379 . S
H1471 C1465 0.959 . S
H1472 C1465 0.961 . S
H1473 C1465 0.960 . S
H1474 C1466 0.930 . S
H1475 C1467 0.929 . S
H1476 C1484 0.929 . S
H1477 C1486 0.930 . S
H1478 C1488 0.930 . S
H1479 C1491 0.929 . S
H1480 C1494 0.930 . S
H1481 C1496 0.960 1_455 S
H1482 C1496 0.960 . S
H1483 C1496 0.960 . S
C1484 H1476 0.929 . S
C1484 C1485 1.377 . S
C1484 C1486 1.384 . S
C1485 C1484 1.377 . S
C1485 C1491 1.390 . S
C1486 H1477 0.930 . S
C1486 C1484 1.384 . S
C1486 C1487 1.372 . S
C1487 C1486 1.372 . S
C1487 C1488 1.400 . S
C1487 C1492 1.490 . S
C1488 H1478 0.930 . S
C1488 C1487 1.400 . S
C1488 C1491 1.386 . S
H1489 C1505 0.930 . S
H1490 C1506 0.931 . S
C1491 H1479 0.929 . S
C1491 C1485 1.390 . S
C1491 C1488 1.386 . S
C1492 C1487 1.490 . S
C1492 C1494 1.395 . S
C1492 C1495 1.403 1_655 S
H1493 C1499 0.930 . S
C1494 H1480 0.930 . S
C1494 C1492 1.395 . S
C1494 C1497 1.403 1_655 S
C1495 C1492 1.403 1_455 S
C1495 C1496 1.524 1_455 S
C1495 C1499 1.400 . S
C1496 H1481 0.960 1_655 S
C1496 H1482 0.960 . S
C1496 H1483 0.960 . S
C1496 C1495 1.524 1_655 S
C1497 C1494 1.403 1_455 S
C1497 C1498 1.392 . S
C1497 C1501 1.495 . S
C1498 C1497 1.392 . S
C1498 C1499 1.385 . S
C1498 C1500 1.478 . S
C1499 H1493 0.930 . S
C1499 C1495 1.400 . S
C1499 C1498 1.385 . S
C1500 C1498 1.478 . S
C1500 C1502 1.381 . S
C1500 C1506 1.383 . S
C1501 C1497 1.495 . S
C1501 H1507 0.959 . S
C1501 H1508 0.961 . S
C1501 H1509 0.960 . S
C1502 C1500 1.381 . S
C1502 C1503 1.394 . S
C1502 H1510 0.930 . S
C1503 C1502 1.394 . S
C1503 C1504 1.383 . S
C1503 H1511 0.929 . S
C1504 C1503 1.383 . S
C1504 C1505 1.377 . S
C1505 H1489 0.930 . S
C1505 C1504 1.377 . S
C1505 C1506 1.379 . S
C1506 H1490 0.931 . S
C1506 C1500 1.383 . S
C1506 C1505 1.379 . S
H1507 C1501 0.959 . S
H1508 C1501 0.961 . S
H1509 C1501 0.960 . S
H1510 C1502 0.930 . S
H1511 C1503 0.929 . S
H1512 C1520 0.929 . S
H1513 C1522 0.930 . S
H1514 C1524 0.930 . S
H1515 C1527 0.929 . S
H1516 C1530 0.930 . S
H1517 C1532 0.960 . S
H1518 C1532 0.960 . S
H1519 C1532 0.960 . S
C1520 H1512 0.929 . S
C1520 C1521 1.377 . S
C1520 C1522 1.384 . S
C1521 C1520 1.377 . S
C1521 C1527 1.390 . S
C1522 H1513 0.930 . S
C1522 C1520 1.384 . S
C1522 C1523 1.372 . S
C1523 C1522 1.372 . S
C1523 C1524 1.400 . S
C1523 C1528 1.490 . S
C1524 H1514 0.930 . S
C1524 C1523 1.400 . S
C1524 C1527 1.386 . S
H1525 C1541 0.930 . S
H1526 C1542 0.931 . S
C1527 H1515 0.929 . S
C1527 C1521 1.390 . S
C1527 C1524 1.386 . S
C1528 C1523 1.490 . S
C1528 C1530 1.395 . S
C1528 C1531 1.403 . S
H1529 C1535 0.930 . S
C1530 H1516 0.930 . S
C1530 C1528 1.395 . S
C1530 C1533 1.403 . S
C1531 C1528 1.403 . S
C1531 C1532 1.524 . S
C1531 C1535 1.400 . S
C1532 H1517 0.960 . S
C1532 H1518 0.960 . S
C1532 H1519 0.960 . S
C1532 C1531 1.524 . S
C1533 C1530 1.403 . S
C1533 C1534 1.392 . S
C1533 C1537 1.495 . S
C1534 C1533 1.392 . S
C1534 C1535 1.385 . S
C1534 C1536 1.478 . S
C1535 H1529 0.930 . S
C1535 C1531 1.400 . S
C1535 C1534 1.385 . S
C1536 C1534 1.478 . S
C1536 C1538 1.381 . S
C1536 C1542 1.383 . S
C1537 C1533 1.495 . S
C1537 H1543 0.959 . S
C1537 H1544 0.961 . S
C1537 H1545 0.960 . S
C1538 C1536 1.381 . S
C1538 C1539 1.394 . S
C1538 H1546 0.930 . S
C1539 C1538 1.394 . S
C1539 C1540 1.383 . S
C1539 H1547 0.929 . S
C1540 C1539 1.383 . S
C1540 C1541 1.377 . S
C1541 H1525 0.930 . S
C1541 C1540 1.377 . S
C1541 C1542 1.379 . S
C1542 H1526 0.931 . S
C1542 C1536 1.383 . S
C1542 C1541 1.379 . S
H1543 C1537 0.959 . S
H1544 C1537 0.961 . S
H1545 C1537 0.960 . S
H1546 C1538 0.930 . S
H1547 C1539 0.929 . S
H1548 C1556 0.929 . S
H1549 C1558 0.930 . S
H1550 C1560 0.930 . S
H1551 C1563 0.929 . S
H1552 C1566 0.930 . S
H1553 C1568 0.960 . S
H1554 C1568 0.960 . S
H1555 C1568 0.960 . S
C1556 H1548 0.929 . S
C1556 C1557 1.377 . S
C1556 C1558 1.384 . S
C1557 C1556 1.377 . S
C1557 C1563 1.390 . S
C1558 H1549 0.930 . S
C1558 C1556 1.384 . S
C1558 C1559 1.372 . S
C1559 C1558 1.372 . S
C1559 C1560 1.400 . S
C1559 C1564 1.490 . S
C1560 H1550 0.930 . S
C1560 C1559 1.400 . S
C1560 C1563 1.386 . S
H1561 C1577 0.930 . S
H1562 C1578 0.931 . S
C1563 H1551 0.929 . S
C1563 C1557 1.390 . S
C1563 C1560 1.386 . S
C1564 C1559 1.490 . S
C1564 C1566 1.395 1_565 S
C1564 C1567 1.403 . S
H1565 C1571 0.930 . S
C1566 H1552 0.930 . S
C1566 C1564 1.395 1_545 S
C1566 C1569 1.403 . S
C1567 C1564 1.403 . S
C1567 C1568 1.524 . S
C1567 C1571 1.400 1_565 S
C1568 H1553 0.960 . S
C1568 H1554 0.960 . S
C1568 H1555 0.960 . S
C1568 C1567 1.524 . S
C1569 C1566 1.403 . S
C1569 C1570 1.392 . S
C1569 C1573 1.495 . S
C1570 C1569 1.392 . S
C1570 C1571 1.385 . S
C1570 C1572 1.478 . S
C1571 H1565 0.930 . S
C1571 C1567 1.400 1_545 S
C1571 C1570 1.385 . S
C1572 C1570 1.478 . S
C1572 C1574 1.381 . S
C1572 C1578 1.383 . S
C1573 C1569 1.495 . S
C1573 H1579 0.959 . S
C1573 H1580 0.961 . S
C1573 H1581 0.960 . S
C1574 C1572 1.381 . S
C1574 C1575 1.394 . S
C1574 H1582 0.930 . S
C1575 C1574 1.394 . S
C1575 C1576 1.383 . S
C1575 H1583 0.929 . S
C1576 C1575 1.383 . S
C1576 C1577 1.377 . S
C1577 H1561 0.930 . S
C1577 C1576 1.377 . S
C1577 C1578 1.379 . S
C1578 H1562 0.931 . S
C1578 C1572 1.383 . S
C1578 C1577 1.379 . S
H1579 C1573 0.959 . S
H1580 C1573 0.961 . S
H1581 C1573 0.960 . S
H1582 C1574 0.930 . S
H1583 C1575 0.929 . S
H1584 C1592 0.929 . S
H1585 C1594 0.930 . S
H1586 C1596 0.930 1_565 S
H1587 C1599 0.944 1_565 S
H1588 C1602 0.930 . S
H1589 C1604 0.960 . S
H1590 C1604 0.960 . S
H1591 C1604 0.960 . S
C1592 H1584 0.929 . S
C1592 C1593 1.377 . S
C1592 C1594 1.384 . S
C1593 C1592 1.377 . S
C1593 C1599 1.390 . S
C1594 H1585 0.930 . S
C1594 C1592 1.384 . S
C1594 C1595 1.372 . S
C1595 C1594 1.372 . S
C1595 C1596 1.400 . S
C1595 C1600 1.490 . S
C1596 H1586 0.930 1_545 S
C1596 C1595 1.400 . S
C1596 C1599 1.386 . S
H1597 C1613 0.930 . S
H1598 C1614 0.931 . S
C1599 H1587 0.944 1_545 S
C1599 C1593 1.390 . S
C1599 C1596 1.386 . S
C1600 C1595 1.490 . S
C1600 C1602 1.395 . S
C1600 C1603 1.403 1_545 S
H1601 C1607 0.930 . S
C1602 H1588 0.930 . S
C1602 C1600 1.395 . S
C1602 C1605 1.403 . S
C1603 C1600 1.403 1_565 S
C1603 C1604 1.524 . S
C1603 C1607 1.400 . S
C1604 H1589 0.960 . S
C1604 H1590 0.960 . S
C1604 H1591 0.960 . S
C1604 C1603 1.524 . S
C1605 C1602 1.403 . S
C1605 C1606 1.392 . S
C1605 C1609 1.495 . S
C1606 C1605 1.392 . S
C1606 C1607 1.385 1_545 S
C1606 C1608 1.478 . S
C1607 H1601 0.930 . S
C1607 C1603 1.400 . S
C1607 C1606 1.385 1_565 S
C1608 C1606 1.478 . S
C1608 C1610 1.381 . S
C1608 C1614 1.383 . S
C1609 C1605 1.495 . S
C1609 H1615 0.959 . S
C1609 H1616 0.961 . S
C1609 H1617 0.960 . S
C1610 C1608 1.381 . S
C1610 C1611 1.394 . S
C1610 H1618 0.930 . S
C1611 C1610 1.394 . S
C1611 C1612 1.383 . S
C1611 H1619 0.929 . S
C1612 C1611 1.383 . S
C1612 C1613 1.377 . S
C1613 H1597 0.930 . S
C1613 C1612 1.377 . S
C1613 C1614 1.379 . S
C1614 H1598 0.931 . S
C1614 C1608 1.383 . S
C1614 C1613 1.379 . S
H1615 C1609 0.959 . S
H1616 C1609 0.961 . S
H1617 C1609 0.960 . S
H1618 C1610 0.930 . S
H1619 C1611 0.929 . S
H1620 C1628 0.929 . S
H1621 C1630 0.930 . S
H1622 C1632 0.930 . S
H1623 C1635 0.929 . S
H1624 C1638 0.930 . S
H1625 C1640 0.960 . S
H1626 C1640 0.960 1_655 S
H1627 C1640 0.960 . S
C1628 H1620 0.929 . S
C1628 C1629 1.377 1_655 S
C1628 C1630 1.384 . S
C1629 C1628 1.377 1_455 S
C1629 C1635 1.390 . S
C1630 H1621 0.930 . S
C1630 C1628 1.384 . S
C1630 C1631 1.372 1_655 S
C1631 C1630 1.372 1_455 S
C1631 C1632 1.400 . S
C1631 C1636 1.490 . S
C1632 H1622 0.930 . S
C1632 C1631 1.400 . S
C1632 C1635 1.386 . S
H1633 C1649 0.930 . S
H1634 C1650 0.931 . S
C1635 H1623 0.929 . S
C1635 C1629 1.390 . S
C1635 C1632 1.386 . S
C1636 C1631 1.490 . S
C1636 C1638 1.395 . S
C1636 C1639 1.403 . S
H1637 C1643 0.930 . S
C1638 H1624 0.930 . S
C1638 C1636 1.395 . S
C1638 C1641 1.403 . S
C1639 C1636 1.403 . S
C1639 C1640 1.524 . S
C1639 C1643 1.400 . S
C1640 H1625 0.960 . S
C1640 H1626 0.960 1_455 S
C1640 H1627 0.960 . S
C1640 C1639 1.524 . S
C1641 C1638 1.403 . S
C1641 C1642 1.392 . S
C1641 C1645 1.495 . S
C1642 C1641 1.392 . S
C1642 C1643 1.385 . S
C1642 C1644 1.478 . S
C1643 H1637 0.930 . S
C1643 C1639 1.400 . S
C1643 C1642 1.385 . S
C1644 C1642 1.478 . S
C1644 C1646 1.381 1_455 S
C1644 C1650 1.383 . S
C1645 C1641 1.495 . S
C1645 H1651 0.959 . S
C1645 H1652 0.961 . S
C1645 H1653 0.960 1_455 S
C1646 C1644 1.381 1_655 S
C1646 C1647 1.394 . S
C1646 H1654 0.930 . S
C1647 C1646 1.394 . S
C1647 C1648 1.383 1_655 S
C1647 H1655 0.929 . S
C1648 C1647 1.383 1_455 S
C1648 C1649 1.377 . S
C1649 H1633 0.930 . S
C1649 C1648 1.377 . S
C1649 C1650 1.379 . S
C1650 H1634 0.931 . S
C1650 C1644 1.383 . S
C1650 C1649 1.379 . S
H1651 C1645 0.959 . S
H1652 C1645 0.961 . S
H1653 C1645 0.960 1_655 S
H1654 C1646 0.930 . S
H1655 C1647 0.929 . S
H1656 C1664 0.929 . S
H1657 C1666 0.930 . S
H1658 C1668 0.930 . S
H1659 C1671 0.929 . S
H1660 C1674 0.930 . S
H1661 C1676 0.960 . S
H1662 C1676 0.960 . S
H1663 C1676 0.960 . S
C1664 H1656 0.929 . S
C1664 C1665 1.377 . S
C1664 C1666 1.384 . S
C1665 C1664 1.377 . S
C1665 C1671 1.390 . S
C1666 H1657 0.930 . S
C1666 C1664 1.384 . S
C1666 C1667 1.372 . S
C1667 C1666 1.372 . S
C1667 C1668 1.400 . S
C1667 C1672 1.490 . S
C1668 H1658 0.930 . S
C1668 C1667 1.400 . S
C1668 C1671 1.386 . S
H1669 C1685 0.930 . S
H1670 C1686 0.931 . S
C1671 H1659 0.929 . S
C1671 C1665 1.390 . S
C1671 C1668 1.386 . S
C1672 C1667 1.490 . S
C1672 C1674 1.395 . S
C1672 C1675 1.403 . S
H1673 C1679 0.930 . S
C1674 H1660 0.930 . S
C1674 C1672 1.395 . S
C1674 C1677 1.403 . S
C1675 C1672 1.403 . S
C1675 C1676 1.524 . S
C1675 C1679 1.400 . S
C1676 H1661 0.960 . S
C1676 H1662 0.960 . S
C1676 H1663 0.960 . S
C1676 C1675 1.524 . S
C1677 C1674 1.403 . S
C1677 C1678 1.392 . S
C1677 C1681 1.495 . S
C1678 C1677 1.392 . S
C1678 C1679 1.385 . S
C1678 C1680 1.478 . S
C1679 H1673 0.930 . S
C1679 C1675 1.400 . S
C1679 C1678 1.385 . S
C1680 C1678 1.478 . S
C1680 C1682 1.381 . S
C1680 C1686 1.383 . S
C1681 C1677 1.495 . S
C1681 H1687 0.959 . S
C1681 H1688 0.961 . S
C1681 H1689 0.960 . S
C1682 C1680 1.381 . S
C1682 C1683 1.394 . S
C1682 H1690 0.930 . S
C1683 C1682 1.394 . S
C1683 C1684 1.383 . S
C1683 H1691 0.929 . S
C1684 C1683 1.383 . S
C1684 C1685 1.377 . S
C1685 H1669 0.930 . S
C1685 C1684 1.377 . S
C1685 C1686 1.379 . S
C1686 H1670 0.931 . S
C1686 C1680 1.383 . S
C1686 C1685 1.379 . S
H1687 C1681 0.959 . S
H1688 C1681 0.961 . S
H1689 C1681 0.960 . S
H1690 C1682 0.930 . S
H1691 C1683 0.929 . S
H1692 C1700 0.929 . S
H1693 C1702 0.930 . S
H1694 C1704 0.930 . S
H1695 C1707 0.929 . S
H1696 C1710 0.930 . S
H1697 C1712 0.960 . S
H1698 C1712 0.960 . S
H1699 C1712 0.960 . S
C1700 H1692 0.929 . S
C1700 C1701 1.377 . S
C1700 C1702 1.384 . S
C1701 C1700 1.377 . S
C1701 C1707 1.390 . S
C1702 H1693 0.930 . S
C1702 C1700 1.384 . S
C1702 C1703 1.372 . S
C1703 C1702 1.372 . S
C1703 C1704 1.400 . S
C1703 C1708 1.490 . S
C1704 H1694 0.930 . S
C1704 C1703 1.400 . S
C1704 C1707 1.386 . S
H1705 C1721 0.930 . S
H1706 C1722 0.931 . S
C1707 H1695 0.929 . S
C1707 C1701 1.390 . S
C1707 C1704 1.386 . S
C1708 C1703 1.490 . S
C1708 C1710 1.395 . S
C1708 C1711 1.403 . S
H1709 C1715 0.930 . S
C1710 H1696 0.930 . S
C1710 C1708 1.395 . S
C1710 C1713 1.403 . S
C1711 C1708 1.403 . S
C1711 C1712 1.524 . S
C1711 C1715 1.400 . S
C1712 H1697 0.960 . S
C1712 H1698 0.960 . S
C1712 H1699 0.960 . S
C1712 C1711 1.524 . S
C1713 C1710 1.403 . S
C1713 C1714 1.392 . S
C1713 C1717 1.495 . S
C1714 C1713 1.392 . S
C1714 C1715 1.385 . S
C1714 C1716 1.478 . S
C1715 H1709 0.930 . S
C1715 C1711 1.400 . S
C1715 C1714 1.385 . S
C1716 C1714 1.478 . S
C1716 C1718 1.381 . S
C1716 C1722 1.383 . S
C1717 C1713 1.495 . S
C1717 H1723 0.959 . S
C1717 H1724 0.961 . S
C1717 H1725 0.960 . S
C1718 C1716 1.381 . S
C1718 C1719 1.394 . S
C1718 H1726 0.930 . S
C1719 C1718 1.394 . S
C1719 C1720 1.383 . S
C1719 H1727 0.929 . S
C1720 C1719 1.383 . S
C1720 C1721 1.377 . S
C1721 H1705 0.930 . S
C1721 C1720 1.377 . S
C1721 C1722 1.379 . S
C1722 H1706 0.931 . S
C1722 C1716 1.383 . S
C1722 C1721 1.379 . S
H1723 C1717 0.959 . S
H1724 C1717 0.961 . S
H1725 C1717 0.960 . S
H1726 C1718 0.930 . S
H1727 C1719 0.929 . S
H1728 C1736 0.929 . S
H1729 C1738 0.930 . S
H1730 C1740 0.930 . S
H1731 C1743 0.929 . S
H1732 C1746 0.930 . S
H1733 C1748 0.960 . S
H1734 C1748 0.960 . S
H1735 C1748 0.960 . S
C1736 H1728 0.929 . S
C1736 C1737 1.377 . S
C1736 C1738 1.384 . S
C1737 C1736 1.377 . S
C1737 C1743 1.390 . S
C1738 H1729 0.930 . S
C1738 C1736 1.384 . S
C1738 C1739 1.372 . S
C1739 C1738 1.372 . S
C1739 C1740 1.400 . S
C1739 C1744 1.490 . S
C1740 H1730 0.930 . S
C1740 C1739 1.400 . S
C1740 C1743 1.386 . S
H1741 C1757 0.930 . S
H1742 C1758 0.931 . S
C1743 H1731 0.929 . S
C1743 C1737 1.390 . S
C1743 C1740 1.386 . S
C1744 C1739 1.490 . S
C1744 C1746 1.395 . S
C1744 C1747 1.403 . S
H1745 C1751 0.930 . S
C1746 H1732 0.930 . S
C1746 C1744 1.395 . S
C1746 C1749 1.403 . S
C1747 C1744 1.403 . S
C1747 C1748 1.524 . S
C1747 C1751 1.400 . S
C1748 H1733 0.960 . S
C1748 H1734 0.960 . S
C1748 H1735 0.960 . S
C1748 C1747 1.524 . S
C1749 C1746 1.403 . S
C1749 C1750 1.392 . S
C1749 C1753 1.495 . S
C1750 C1749 1.392 . S
C1750 C1751 1.385 . S
C1750 C1752 1.478 . S
C1751 H1745 0.930 . S
C1751 C1747 1.400 . S
C1751 C1750 1.385 . S
C1752 C1750 1.478 . S
C1752 C1754 1.381 . S
C1752 C1758 1.383 . S
C1753 C1749 1.495 . S
C1753 H1759 0.959 . S
C1753 H1760 0.961 . S
C1753 H1761 0.960 . S
C1754 C1752 1.381 . S
C1754 C1755 1.394 . S
C1754 H1762 0.930 . S
C1755 C1754 1.394 . S
C1755 C1756 1.383 . S
C1755 H1763 0.929 . S
C1756 C1755 1.383 . S
C1756 C1757 1.377 . S
C1757 H1741 0.930 . S
C1757 C1756 1.377 . S
C1757 C1758 1.379 . S
C1758 H1742 0.931 . S
C1758 C1752 1.383 . S
C1758 C1757 1.379 . S
H1759 C1753 0.959 . S
H1760 C1753 0.961 . S
H1761 C1753 0.960 . S
H1762 C1754 0.930 . S
H1763 C1755 0.929 . S
H1764 C1772 0.929 . S
H1765 C1774 0.930 . S
H1766 C1776 0.930 . S
H1767 C1779 0.929 . S
H1768 C1782 0.930 . S
H1769 C1784 0.960 . S
H1770 C1784 0.960 . S
H1771 C1784 0.960 . S
C1772 H1764 0.929 . S
C1772 C1773 1.377 . S
C1772 C1774 1.384 . S
C1773 C1772 1.377 . S
C1773 C1779 1.390 . S
C1774 H1765 0.930 . S
C1774 C1772 1.384 . S
C1774 C1775 1.372 . S
C1775 C1774 1.372 . S
C1775 C1776 1.400 . S
C1775 C1780 1.490 . S
C1776 H1766 0.930 . S
C1776 C1775 1.400 . S
C1776 C1779 1.386 . S
H1777 C1793 0.930 . S
H1778 C1794 0.931 . S
C1779 H1767 0.929 . S
C1779 C1773 1.390 . S
C1779 C1776 1.386 . S
C1780 C1775 1.490 . S
C1780 C1782 1.395 . S
C1780 C1783 1.403 . S
H1781 C1787 0.930 . S
C1782 H1768 0.930 . S
C1782 C1780 1.395 . S
C1782 C1785 1.403 . S
C1783 C1780 1.403 . S
C1783 C1784 1.524 . S
C1783 C1787 1.400 . S
C1784 H1769 0.960 . S
C1784 H1770 0.960 . S
C1784 H1771 0.960 . S
C1784 C1783 1.524 . S
C1785 C1782 1.403 . S
C1785 C1786 1.392 . S
C1785 C1789 1.495 . S
C1786 C1785 1.392 . S
C1786 C1787 1.385 . S
C1786 C1788 1.478 . S
C1787 H1781 0.930 . S
C1787 C1783 1.400 . S
C1787 C1786 1.385 . S
C1788 C1786 1.478 . S
C1788 C1790 1.381 . S
C1788 C1794 1.383 . S
C1789 C1785 1.495 . S
C1789 H1795 0.959 . S
C1789 H1796 0.961 . S
C1789 H1797 0.960 . S
C1790 C1788 1.381 . S
C1790 C1791 1.394 . S
C1790 H1798 0.930 . S
C1791 C1790 1.394 . S
C1791 C1792 1.383 . S
C1791 H1799 0.929 . S
C1792 C1791 1.383 . S
C1792 C1793 1.377 . S
C1793 H1777 0.930 . S
C1793 C1792 1.377 . S
C1793 C1794 1.379 . S
C1794 H1778 0.931 . S
C1794 C1788 1.383 . S
C1794 C1793 1.379 . S
H1795 C1789 0.959 . S
H1796 C1789 0.961 . S
H1797 C1789 0.960 . S
H1798 C1790 0.930 . S
H1799 C1791 0.929 . S
H1800 C1808 0.929 . S
H1801 C1810 0.930 . S
H1802 C1812 0.930 . S
H1803 C1815 0.929 . S
H1804 C1818 0.930 . S
H1805 C1820 0.960 . S
H1806 C1820 0.960 . S
H1807 C1820 0.960 . S
C1808 H1800 0.929 . S
C1808 C1809 1.377 . S
C1808 C1810 1.384 . S
C1809 C1808 1.377 . S
C1809 C1815 1.390 . S
C1810 H1801 0.930 . S
C1810 C1808 1.384 . S
C1810 C1811 1.372 . S
C1811 C1810 1.372 . S
C1811 C1812 1.400 . S
C1811 C1816 1.490 . S
C1812 H1802 0.930 . S
C1812 C1811 1.400 . S
C1812 C1815 1.386 . S
H1813 C1829 0.930 . S
H1814 C1830 0.931 . S
C1815 H1803 0.929 . S
C1815 C1809 1.390 . S
C1815 C1812 1.386 . S
C1816 C1811 1.490 . S
C1816 C1818 1.395 . S
C1816 C1819 1.403 . S
H1817 C1823 0.930 . S
C1818 H1804 0.930 . S
C1818 C1816 1.395 . S
C1818 C1821 1.403 . S
C1819 C1816 1.403 . S
C1819 C1820 1.524 . S
C1819 C1823 1.400 . S
C1820 H1805 0.960 . S
C1820 H1806 0.960 . S
C1820 H1807 0.960 . S
C1820 C1819 1.524 . S
C1821 C1818 1.403 . S
C1821 C1822 1.392 . S
C1821 C1825 1.495 . S
C1822 C1821 1.392 . S
C1822 C1823 1.385 . S
C1822 C1824 1.478 . S
C1823 H1817 0.930 . S
C1823 C1819 1.400 . S
C1823 C1822 1.385 . S
C1824 C1822 1.478 . S
C1824 C1826 1.381 . S
C1824 C1830 1.383 . S
C1825 C1821 1.495 . S
C1825 H1831 0.959 . S
C1825 H1832 0.961 . S
C1825 H1833 0.960 . S
C1826 C1824 1.381 . S
C1826 C1827 1.394 . S
C1826 H1834 0.930 . S
C1827 C1826 1.394 . S
C1827 C1828 1.383 . S
C1827 H1835 0.929 . S
C1828 C1827 1.383 . S
C1828 C1829 1.377 . S
C1829 H1813 0.930 . S
C1829 C1828 1.377 . S
C1829 C1830 1.379 . S
C1830 H1814 0.931 . S
C1830 C1824 1.383 . S
C1830 C1829 1.379 . S
H1831 C1825 0.959 . S
H1832 C1825 0.961 . S
H1833 C1825 0.960 . S
H1834 C1826 0.930 . S
H1835 C1827 0.929 . S
H1836 C1844 0.929 . S
H1837 C1846 0.930 . S
H1838 C1848 0.930 . S
H1839 C1851 0.929 . S
H1840 C1854 0.930 . S
H1841 C1856 0.960 . S
H1842 C1856 0.960 . S
H1843 C1856 0.960 . S
C1844 H1836 0.929 . S
C1844 C1845 1.377 . S
C1844 C1846 1.384 . S
C1845 C1844 1.377 . S
C1845 C1851 1.390 . S
C1846 H1837 0.930 . S
C1846 C1844 1.384 . S
C1846 C1847 1.372 . S
C1847 C1846 1.372 . S
C1847 C1848 1.400 . S
C1847 C1852 1.490 . S
C1848 H1838 0.930 . S
C1848 C1847 1.400 . S
C1848 C1851 1.386 . S
H1849 C1865 0.930 . S
H1850 C1866 0.931 . S
C1851 H1839 0.929 . S
C1851 C1845 1.390 . S
C1851 C1848 1.386 . S
C1852 C1847 1.490 . S
C1852 C1854 1.395 . S
C1852 C1855 1.403 . S
H1853 C1859 0.930 . S
C1854 H1840 0.930 . S
C1854 C1852 1.395 . S
C1854 C1857 1.403 . S
C1855 C1852 1.403 . S
C1855 C1856 1.524 . S
C1855 C1859 1.400 . S
C1856 H1841 0.960 . S
C1856 H1842 0.960 . S
C1856 H1843 0.960 . S
C1856 C1855 1.524 . S
C1857 C1854 1.403 . S
C1857 C1858 1.392 . S
C1857 C1861 1.495 . S
C1858 C1857 1.392 . S
C1858 C1859 1.385 . S
C1858 C1860 1.478 . S
C1859 H1853 0.930 . S
C1859 C1855 1.400 . S
C1859 C1858 1.385 . S
C1860 C1858 1.478 . S
C1860 C1862 1.381 . S
C1860 C1866 1.383 . S
C1861 C1857 1.495 . S
C1861 H1867 0.959 . S
C1861 H1868 0.961 . S
C1861 H1869 0.960 . S
C1862 C1860 1.381 . S
C1862 C1863 1.394 . S
C1862 H1870 0.930 . S
C1863 C1862 1.394 . S
C1863 C1864 1.383 . S
C1863 H1871 0.929 . S
C1864 C1863 1.383 . S
C1864 C1865 1.377 . S
C1865 H1849 0.930 . S
C1865 C1864 1.377 . S
C1865 C1866 1.379 . S
C1866 H1850 0.931 . S
C1866 C1860 1.383 . S
C1866 C1865 1.379 . S
H1867 C1861 0.959 . S
H1868 C1861 0.961 . S
H1869 C1861 0.960 . S
H1870 C1862 0.930 . S
H1871 C1863 0.929 . S
H1872 C1880 0.929 . S
H1873 C1882 0.930 . S
H1874 C1884 0.930 . S
H1875 C1887 0.929 . S
H1876 C1890 0.930 . S
H1877 C1892 0.960 . S
H1878 C1892 0.960 . S
H1879 C1892 0.960 . S
C1880 H1872 0.929 . S
C1880 C1881 1.377 . S
C1880 C1882 1.384 . S
C1881 C1880 1.377 . S
C1881 C1887 1.390 . S
C1882 H1873 0.930 . S
C1882 C1880 1.384 . S
C1882 C1883 1.372 . S
C1883 C1882 1.372 . S
C1883 C1884 1.400 . S
C1883 C1888 1.490 . S
C1884 H1874 0.930 . S
C1884 C1883 1.400 . S
C1884 C1887 1.386 . S
H1885 C1901 0.930 . S
H1886 C1902 0.931 . S
C1887 H1875 0.929 . S
C1887 C1881 1.390 . S
C1887 C1884 1.386 . S
C1888 C1883 1.490 . S
C1888 C1890 1.395 . S
C1888 C1891 1.403 . S
H1889 C1895 0.930 . S
C1890 H1876 0.930 . S
C1890 C1888 1.395 . S
C1890 C1893 1.403 . S
C1891 C1888 1.403 . S
C1891 C1892 1.524 . S
C1891 C1895 1.400 . S
C1892 H1877 0.960 . S
C1892 H1878 0.960 . S
C1892 H1879 0.960 . S
C1892 C1891 1.524 . S
C1893 C1890 1.403 . S
C1893 C1894 1.392 . S
C1893 C1897 1.495 . S
C1894 C1893 1.392 . S
C1894 C1895 1.385 . S
C1894 C1896 1.478 . S
C1895 H1889 0.930 . S
C1895 C1891 1.400 . S
C1895 C1894 1.385 . S
C1896 C1894 1.478 . S
C1896 C1898 1.381 . S
C1896 C1902 1.383 . S
C1897 C1893 1.495 . S
C1897 H1903 0.959 . S
C1897 H1904 0.961 . S
C1897 H1905 0.960 . S
C1898 C1896 1.381 . S
C1898 C1899 1.394 . S
C1898 H1906 0.930 . S
C1899 C1898 1.394 . S
C1899 C1900 1.383 . S
C1899 H1907 0.929 . S
C1900 C1899 1.383 . S
C1900 C1901 1.377 . S
C1901 H1885 0.930 . S
C1901 C1900 1.377 . S
C1901 C1902 1.379 . S
C1902 H1886 0.931 . S
C1902 C1896 1.383 . S
C1902 C1901 1.379 . S
H1903 C1897 0.959 . S
H1904 C1897 0.961 . S
H1905 C1897 0.960 . S
H1906 C1898 0.930 . S
H1907 C1899 0.929 . S
H1908 C1916 0.929 . S
H1909 C1918 0.930 . S
H1910 C1920 0.930 . S
H1911 C1923 0.929 . S
H1912 C1926 0.930 . S
H1913 C1928 0.960 . S
H1914 C1928 0.960 . S
H1915 C1928 0.960 . S
C1916 H1908 0.929 . S
C1916 C1917 1.377 . S
C1916 C1918 1.384 . S
C1917 C1916 1.377 . S
C1917 C1923 1.390 1_565 S
C1918 H1909 0.930 . S
C1918 C1916 1.384 . S
C1918 C1919 1.372 1_565 S
C1919 C1918 1.372 1_545 S
C1919 C1920 1.400 . S
C1919 C1924 1.490 . S
C1920 H1910 0.930 . S
C1920 C1919 1.400 . S
C1920 C1923 1.386 . S
H1921 C1937 0.930 . S
H1922 C1938 0.931 . S
C1923 H1911 0.929 . S
C1923 C1917 1.390 1_545 S
C1923 C1920 1.386 . S
C1924 C1919 1.490 . S
C1924 C1926 1.394 1_545 S
C1924 C1927 1.403 . S
H1925 C1931 0.930 . S
C1926 H1912 0.930 . S
C1926 C1924 1.394 1_565 S
C1926 C1929 1.404 1_564 S
C1927 C1924 1.403 . S
C1927 C1928 1.524 . S
C1927 C1931 1.400 1_554 S
C1928 H1913 0.960 . S
C1928 H1914 0.960 . S
C1928 H1915 0.960 . S
C1928 C1927 1.524 . S
C1929 C1926 1.404 1_546 S
C1929 C1930 1.392 . S
C1929 C1933 1.495 1_545 S
C1930 C1929 1.392 . S
C1930 C1931 1.385 . S
C1930 C1932 1.478 . S
C1931 H1925 0.930 . S
C1931 C1927 1.400 1_556 S
C1931 C1930 1.385 . S
C1932 C1930 1.478 . S
C1932 C1934 1.381 1_545 S
C1932 C1938 1.383 . S
C1933 C1929 1.495 1_565 S
C1933 H1939 0.959 . S
C1933 H1940 0.961 1_565 S
C1933 H1941 0.960 . S
C1934 C1932 1.381 1_565 S
C1934 C1935 1.396 . S
C1934 H1942 0.930 . S
C1935 C1934 1.396 . S
C1935 C1936 1.372 1_565 S
C1935 H1943 0.939 . S
C1936 C1935 1.372 1_545 S
C1936 C1937 1.377 . S
C1937 H1921 0.930 . S
C1937 C1936 1.377 . S
C1937 C1938 1.379 . S
C1938 H1922 0.931 . S
C1938 C1932 1.383 . S
C1938 C1937 1.379 . S
H1939 C1933 0.959 . S
H1940 C1933 0.961 1_545 S
H1941 C1933 0.960 . S
H1942 C1934 0.930 . S
H1943 C1935 0.939 . S
H1944 C1952 0.929 . S
H1945 C1954 0.930 . S
H1946 C1956 0.930 . S
H1947 C1959 0.929 . S
H1948 C1962 0.930 . S
H1949 C1964 0.960 . S
H1950 C1964 0.960 . S
H1951 C1964 0.960 . S
C1952 H1944 0.929 . S
C1952 C1953 1.377 . S
C1952 C1954 1.384 . S
C1953 C1952 1.377 . S
C1953 C1959 1.390 . S
C1954 H1945 0.930 . S
C1954 C1952 1.384 . S
C1954 C1955 1.372 . S
C1955 C1954 1.372 . S
C1955 C1956 1.400 . S
C1955 C1960 1.490 . S
C1956 H1946 0.930 . S
C1956 C1955 1.400 . S
C1956 C1959 1.386 . S
H1957 C1973 0.930 . S
H1958 C1974 0.931 . S
C1959 H1947 0.929 . S
C1959 C1953 1.390 . S
C1959 C1956 1.386 . S
C1960 C1955 1.490 . S
C1960 C1962 1.395 1_455 S
C1960 C1963 1.403 . S
H1961 C1967 0.930 . S
C1962 H1948 0.930 . S
C1962 C1960 1.395 1_655 S
C1962 C1965 1.403 1_554 S
C1963 C1960 1.403 . S
C1963 C1964 1.524 . S
C1963 C1967 1.400 1_554 S
C1964 H1949 0.960 . S
C1964 H1950 0.960 . S
C1964 H1951 0.960 . S
C1964 C1963 1.524 . S
C1965 C1962 1.403 1_556 S
C1965 C1966 1.392 1_655 S
C1965 C1969 1.495 . S
C1966 C1965 1.392 1_455 S
C1966 C1967 1.385 . S
C1966 C1968 1.476 1_455 S
C1967 H1961 0.930 . S
C1967 C1963 1.400 1_556 S
C1967 C1966 1.385 . S
C1968 C1966 1.476 1_655 S
C1968 C1970 1.377 1_655 S
C1968 C1974 1.388 . S
C1969 C1965 1.495 . S
C1969 H1975 0.959 . S
C1969 H1976 0.961 . S
C1969 H1977 0.960 . S
C1970 C1968 1.377 1_455 S
C1970 C1971 1.394 . S
C1970 H1978 0.930 . S
C1971 C1970 1.394 . S
C1971 C1972 1.383 1_455 S
C1971 H1979 0.929 . S
C1972 C1971 1.383 1_655 S
C1972 C1973 1.377 . S
C1973 H1957 0.930 . S
C1973 C1972 1.377 . S
C1973 C1974 1.379 . S
C1974 H1958 0.931 . S
C1974 C1968 1.388 . S
C1974 C1973 1.379 . S
H1975 C1969 0.959 . S
H1976 C1969 0.961 . S
H1977 C1969 0.960 . S
H1978 C1970 0.930 . S
H1979 C1971 0.929 . S
H1980 C1988 0.929 . S
H1981 C1990 0.930 . S
H1982 C1992 0.930 . S
H1983 C1995 0.929 . S
H1984 C1998 0.930 . S
H1985 C2000 0.960 . S
H1986 C2000 0.960 . S
H1987 C2000 0.960 . S
C1988 H1980 0.929 . S
C1988 C1989 1.377 . S
C1988 C1990 1.384 . S
C1989 C1988 1.377 . S
C1989 C1995 1.390 . S
C1990 H1981 0.930 . S
C1990 C1988 1.384 . S
C1990 C1991 1.372 . S
C1991 C1990 1.372 . S
C1991 C1992 1.400 . S
C1991 C1996 1.490 . S
C1992 H1982 0.930 . S
C1992 C1991 1.400 . S
C1992 C1995 1.386 . S
H1993 C2009 0.930 . S
H1994 C2010 0.931 . S
C1995 H1983 0.929 . S
C1995 C1989 1.390 . S
C1995 C1992 1.386 . S
C1996 C1991 1.490 . S
C1996 C1998 1.395 . S
C1996 C1999 1.403 . S
H1997 C2003 0.930 . S
C1998 H1984 0.930 . S
C1998 C1996 1.395 . S
C1998 C2001 1.403 1_556 S
C1999 C1996 1.403 . S
C1999 C2000 1.524 . S
C1999 C2003 1.400 1_556 S
C2000 H1985 0.960 . S
C2000 H1986 0.960 . S
C2000 H1987 0.960 . S
C2000 C1999 1.524 . S
C2001 C1998 1.403 1_554 S
C2001 C2002 1.392 . S
C2001 C2005 1.495 . S
C2002 C2001 1.392 . S
C2002 C2003 1.385 . S
C2002 C2004 1.478 . S
C2003 H1997 0.930 . S
C2003 C1999 1.400 1_554 S
C2003 C2002 1.385 . S
C2004 C2002 1.478 . S
C2004 C2006 1.381 . S
C2004 C2010 1.383 . S
C2005 C2001 1.495 . S
C2005 H2011 0.959 . S
C2005 H2012 0.961 . S
C2005 H2013 0.960 . S
C2006 C2004 1.381 . S
C2006 C2007 1.394 . S
C2006 H2014 0.930 . S
C2007 C2006 1.394 . S
C2007 C2008 1.383 . S
C2007 H2015 0.929 . S
C2008 C2007 1.383 . S
C2008 C2009 1.377 . S
C2009 H1993 0.930 . S
C2009 C2008 1.377 . S
C2009 C2010 1.379 . S
C2010 H1994 0.931 . S
C2010 C2004 1.383 . S
C2010 C2009 1.379 . S
H2011 C2005 0.959 . S
H2012 C2005 0.961 . S
H2013 C2005 0.960 . S
H2014 C2006 0.930 . S
H2015 C2007 0.929 . S
H2016 C2024 0.929 . S
H2017 C2026 0.930 . S
H2018 C2028 0.930 . S
H2019 C2031 0.929 . S
H2020 C2034 0.930 . S
H2021 C2036 0.960 . S
H2022 C2036 0.960 . S
H2023 C2036 0.960 . S
C2024 H2016 0.929 . S
C2024 C2025 1.377 . S
C2024 C2026 1.384 . S
C2025 C2024 1.377 . S
C2025 C2031 1.390 . S
C2026 H2017 0.930 . S
C2026 C2024 1.384 . S
C2026 C2027 1.372 . S
C2027 C2026 1.372 . S
C2027 C2028 1.400 . S
C2027 C2032 1.490 . S
C2028 H2018 0.930 . S
C2028 C2027 1.400 . S
C2028 C2031 1.386 . S
H2029 C2045 0.930 . S
H2030 C2046 0.931 . S
C2031 H2019 0.929 . S
C2031 C2025 1.390 . S
C2031 C2028 1.386 . S
C2032 C2027 1.490 . S
C2032 C2034 1.395 . S
C2032 C2035 1.403 . S
H2033 C2039 0.930 . S
C2034 H2020 0.930 . S
C2034 C2032 1.395 . S
C2034 C2037 1.403 . S
C2035 C2032 1.403 . S
C2035 C2036 1.524 . S
C2035 C2039 1.400 . S
C2036 H2021 0.960 . S
C2036 H2022 0.960 . S
C2036 H2023 0.960 . S
C2036 C2035 1.524 . S
C2037 C2034 1.403 . S
C2037 C2038 1.392 . S
C2037 C2041 1.495 . S
C2038 C2037 1.392 . S
C2038 C2039 1.385 . S
C2038 C2040 1.478 . S
C2039 H2033 0.930 . S
C2039 C2035 1.400 . S
C2039 C2038 1.385 . S
C2040 C2038 1.478 . S
C2040 C2042 1.381 . S
C2040 C2046 1.383 . S
C2041 C2037 1.495 . S
C2041 H2047 0.959 . S
C2041 H2048 0.961 . S
C2041 H2049 0.960 . S
C2042 C2040 1.381 . S
C2042 C2043 1.394 . S
C2042 H2050 0.930 . S
C2043 C2042 1.394 . S
C2043 C2044 1.383 . S
C2043 H2051 0.929 . S
C2044 C2043 1.383 . S
C2044 C2045 1.377 . S
C2045 H2029 0.930 . S
C2045 C2044 1.377 . S
C2045 C2046 1.379 . S
C2046 H2030 0.931 . S
C2046 C2040 1.383 . S
C2046 C2045 1.379 . S
H2047 C2041 0.959 . S
H2048 C2041 0.961 . S
H2049 C2041 0.960 . S
H2050 C2042 0.930 . S
H2051 C2043 0.929 . S
H2052 C2060 0.929 . S
H2053 C2062 0.930 . S
H2054 C2064 0.930 . S
H2055 C2067 0.929 . S
H2056 C2070 0.930 . S
H2057 C2072 0.960 . S
H2058 C2072 0.960 . S
H2059 C2072 0.960 . S
C2060 H2052 0.929 . S
C2060 C2061 1.377 . S
C2060 C2062 1.384 . S
C2061 C2060 1.377 . S
C2061 C2067 1.390 . S
C2062 H2053 0.930 . S
C2062 C2060 1.384 . S
C2062 C2063 1.372 . S
C2063 C2062 1.372 . S
C2063 C2064 1.400 . S
C2063 C2068 1.490 . S
C2064 H2054 0.930 . S
C2064 C2063 1.400 . S
C2064 C2067 1.386 . S
H2065 C2081 0.930 . S
H2066 C2082 0.931 . S
C2067 H2055 0.929 . S
C2067 C2061 1.390 . S
C2067 C2064 1.386 . S
C2068 C2063 1.490 . S
C2068 C2070 1.395 . S
C2068 C2071 1.403 . S
H2069 C2075 0.930 . S
C2070 H2056 0.930 . S
C2070 C2068 1.395 . S
C2070 C2073 1.403 . S
C2071 C2068 1.403 . S
C2071 C2072 1.524 . S
C2071 C2075 1.400 . S
C2072 H2057 0.960 . S
C2072 H2058 0.960 . S
C2072 H2059 0.960 . S
C2072 C2071 1.524 . S
C2073 C2070 1.403 . S
C2073 C2074 1.392 . S
C2073 C2077 1.495 . S
C2074 C2073 1.392 . S
C2074 C2075 1.385 . S
C2074 C2076 1.478 . S
C2075 H2069 0.930 . S
C2075 C2071 1.400 . S
C2075 C2074 1.385 . S
C2076 C2074 1.478 . S
C2076 C2078 1.381 . S
C2076 C2082 1.383 . S
C2077 C2073 1.495 . S
C2077 H2083 0.959 . S
C2077 H2084 0.961 . S
C2077 H2085 0.960 . S
C2078 C2076 1.381 . S
C2078 C2079 1.394 . S
C2078 H2086 0.930 . S
C2079 C2078 1.394 . S
C2079 C2080 1.383 . S
C2079 H2087 0.929 . S
C2080 C2079 1.383 . S
C2080 C2081 1.377 . S
C2081 H2065 0.930 . S
C2081 C2080 1.377 . S
C2081 C2082 1.379 . S
C2082 H2066 0.931 . S
C2082 C2076 1.383 . S
C2082 C2081 1.379 . S
H2083 C2077 0.959 . S
H2084 C2077 0.961 . S
H2085 C2077 0.960 . S
H2086 C2078 0.930 . S
H2087 C2079 0.929 . S
H2088 C2096 0.929 . S
H2089 C2098 0.930 . S
H2090 C2100 0.930 . S
H2091 C2103 0.929 . S
H2092 C2106 0.930 . S
H2093 C2108 0.960 . S
H2094 C2108 0.960 . S
H2095 C2108 0.960 . S
C2096 H2088 0.929 . S
C2096 C2097 1.377 . S
C2096 C2098 1.384 . S
C2097 C2096 1.377 . S
C2097 C2103 1.390 . S
C2098 H2089 0.930 . S
C2098 C2096 1.384 . S
C2098 C2099 1.372 . S
C2099 C2098 1.372 . S
C2099 C2100 1.400 . S
C2099 C2104 1.490 . S
C2100 H2090 0.930 . S
C2100 C2099 1.400 . S
C2100 C2103 1.386 . S
H2101 C2117 0.930 . S
H2102 C2118 0.931 . S
C2103 H2091 0.929 . S
C2103 C2097 1.390 . S
C2103 C2100 1.386 . S
C2104 C2099 1.490 . S
C2104 C2106 1.395 . S
C2104 C2107 1.403 . S
H2105 C2111 0.930 . S
C2106 H2092 0.930 . S
C2106 C2104 1.395 . S
C2106 C2109 1.403 . S
C2107 C2104 1.403 . S
C2107 C2108 1.524 . S
C2107 C2111 1.400 . S
C2108 H2093 0.960 . S
C2108 H2094 0.960 . S
C2108 H2095 0.960 . S
C2108 C2107 1.524 . S
C2109 C2106 1.403 . S
C2109 C2110 1.392 . S
C2109 C2113 1.495 . S
C2110 C2109 1.392 . S
C2110 C2111 1.385 . S
C2110 C2112 1.478 . S
C2111 H2105 0.930 . S
C2111 C2107 1.400 . S
C2111 C2110 1.385 . S
C2112 C2110 1.478 . S
C2112 C2114 1.381 . S
C2112 C2118 1.383 . S
C2113 C2109 1.495 . S
C2113 H2119 0.959 . S
C2113 H2120 0.961 . S
C2113 H2121 0.960 . S
C2114 C2112 1.381 . S
C2114 C2115 1.394 . S
C2114 H2122 0.930 . S
C2115 C2114 1.394 . S
C2115 C2116 1.383 . S
C2115 H2123 0.929 . S
C2116 C2115 1.383 . S
C2116 C2117 1.377 . S
C2117 H2101 0.930 . S
C2117 C2116 1.377 . S
C2117 C2118 1.379 . S
C2118 H2102 0.931 . S
C2118 C2112 1.383 . S
C2118 C2117 1.379 . S
H2119 C2113 0.959 . S
H2120 C2113 0.961 . S
H2121 C2113 0.960 . S
H2122 C2114 0.930 . S
H2123 C2115 0.929 . S
H2124 C2132 0.929 . S
H2125 C2134 0.930 . S
H2126 C2136 0.930 . S
H2127 C2139 0.929 . S
H2128 C2142 0.930 . S
H2129 C2144 0.960 . S
H2130 C2144 0.960 . S
H2131 C2144 0.960 . S
C2132 H2124 0.929 . S
C2132 C2133 1.377 . S
C2132 C2134 1.384 . S
C2133 C2132 1.377 . S
C2133 C2139 1.390 . S
C2134 H2125 0.930 . S
C2134 C2132 1.384 . S
C2134 C2135 1.372 . S
C2135 C2134 1.372 . S
C2135 C2136 1.400 . S
C2135 C2140 1.490 . S
C2136 H2126 0.930 . S
C2136 C2135 1.400 . S
C2136 C2139 1.386 . S
H2137 C2153 0.930 . S
H2138 C2154 0.931 . S
C2139 H2127 0.929 . S
C2139 C2133 1.390 . S
C2139 C2136 1.386 . S
C2140 C2135 1.490 . S
C2140 C2142 1.395 . S
C2140 C2143 1.403 . S
H2141 C2147 0.930 . S
C2142 H2128 0.930 . S
C2142 C2140 1.395 . S
C2142 C2145 1.403 . S
C2143 C2140 1.403 . S
C2143 C2144 1.524 . S
C2143 C2147 1.400 . S
C2144 H2129 0.960 . S
C2144 H2130 0.960 . S
C2144 H2131 0.960 . S
C2144 C2143 1.524 . S
C2145 C2142 1.403 . S
C2145 C2146 1.392 . S
C2145 C2149 1.495 . S
C2146 C2145 1.392 . S
C2146 C2147 1.385 . S
C2146 C2148 1.478 . S
C2147 H2141 0.930 . S
C2147 C2143 1.400 . S
C2147 C2146 1.385 . S
C2148 C2146 1.478 . S
C2148 C2150 1.381 . S
C2148 C2154 1.383 . S
C2149 C2145 1.495 . S
C2149 H2155 0.959 . S
C2149 H2156 0.961 . S
C2149 H2157 0.960 . S
C2150 C2148 1.381 . S
C2150 C2151 1.394 . S
C2150 H2158 0.930 . S
C2151 C2150 1.394 . S
C2151 C2152 1.383 . S
C2151 H2159 0.929 . S
C2152 C2151 1.383 . S
C2152 C2153 1.377 . S
C2153 H2137 0.930 . S
C2153 C2152 1.377 . S
C2153 C2154 1.379 . S
C2154 H2138 0.931 . S
C2154 C2148 1.383 . S
C2154 C2153 1.379 . S
H2155 C2149 0.959 . S
H2156 C2149 0.961 . S
H2157 C2149 0.960 . S
H2158 C2150 0.930 . S
H2159 C2151 0.929 . S
H2160 C2168 0.929 . S
H2161 C2170 0.930 . S
H2162 C2172 0.930 . S
H2163 C2175 0.929 . S
H2164 C2178 0.930 . S
H2165 C2180 0.960 . S
H2166 C2180 0.960 . S
H2167 C2180 0.960 . S
C2168 H2160 0.929 . S
C2168 C2169 1.377 . S
C2168 C2170 1.384 . S
C2169 C2168 1.377 . S
C2169 C2175 1.390 . S
C2170 H2161 0.930 . S
C2170 C2168 1.384 . S
C2170 C2171 1.372 . S
C2171 C2170 1.372 . S
C2171 C2172 1.400 . S
C2171 C2176 1.490 . S
C2172 H2162 0.930 . S
C2172 C2171 1.400 . S
C2172 C2175 1.386 . S
H2173 C2189 0.930 . S
H2174 C2190 0.931 . S
C2175 H2163 0.929 . S
C2175 C2169 1.390 . S
C2175 C2172 1.386 . S
C2176 C2171 1.490 . S
C2176 C2178 1.395 . S
C2176 C2179 1.403 . S
H2177 C2183 0.930 . S
C2178 H2164 0.930 . S
C2178 C2176 1.395 . S
C2178 C2181 1.403 . S
C2179 C2176 1.403 . S
C2179 C2180 1.524 . S
C2179 C2183 1.400 . S
C2180 H2165 0.960 . S
C2180 H2166 0.960 . S
C2180 H2167 0.960 . S
C2180 C2179 1.524 . S
C2181 C2178 1.403 . S
C2181 C2182 1.392 . S
C2181 C2185 1.495 . S
C2182 C2181 1.392 . S
C2182 C2183 1.385 . S
C2182 C2184 1.478 . S
C2183 H2177 0.930 . S
C2183 C2179 1.400 . S
C2183 C2182 1.385 . S
C2184 C2182 1.478 . S
C2184 C2186 1.381 . S
C2184 C2190 1.383 . S
C2185 C2181 1.495 . S
C2185 H2191 0.959 . S
C2185 H2192 0.961 . S
C2185 H2193 0.960 . S
C2186 C2184 1.381 . S
C2186 C2187 1.394 . S
C2186 H2194 0.930 . S
C2187 C2186 1.394 . S
C2187 C2188 1.383 . S
C2187 H2195 0.929 . S
C2188 C2187 1.383 . S
C2188 C2189 1.377 . S
C2189 H2173 0.930 . S
C2189 C2188 1.377 . S
C2189 C2190 1.379 . S
C2190 H2174 0.931 . S
C2190 C2184 1.383 . S
C2190 C2189 1.379 . S
H2191 C2185 0.959 . S
H2192 C2185 0.961 . S
H2193 C2185 0.960 . S
H2194 C2186 0.930 . S
H2195 C2187 0.929 . S
H2196 C2204 0.929 . S
H2197 C2206 0.930 . S
H2198 C2208 0.930 . S
H2199 C2211 0.929 . S
H2200 C2214 0.930 . S
H2201 C2216 0.960 . S
H2202 C2216 0.960 . S
H2203 C2216 0.960 . S
C2204 H2196 0.929 . S
C2204 C2205 1.377 . S
C2204 C2206 1.384 . S
C2205 C2204 1.377 . S
C2205 C2211 1.390 . S
C2206 H2197 0.930 . S
C2206 C2204 1.384 . S
C2206 C2207 1.372 . S
C2207 C2206 1.372 . S
C2207 C2208 1.400 . S
C2207 C2212 1.490 . S
C2208 H2198 0.930 . S
C2208 C2207 1.400 . S
C2208 C2211 1.386 . S
H2209 C2225 0.930 . S
H2210 C2226 0.931 . S
C2211 H2199 0.929 . S
C2211 C2205 1.390 . S
C2211 C2208 1.386 . S
C2212 C2207 1.490 . S
C2212 C2214 1.395 . S
C2212 C2215 1.403 . S
H2213 C2219 0.930 . S
C2214 H2200 0.930 . S
C2214 C2212 1.395 . S
C2214 C2217 1.403 . S
C2215 C2212 1.403 . S
C2215 C2216 1.524 . S
C2215 C2219 1.400 . S
C2216 H2201 0.960 . S
C2216 H2202 0.960 . S
C2216 H2203 0.960 . S
C2216 C2215 1.524 . S
C2217 C2214 1.403 . S
C2217 C2218 1.392 . S
C2217 C2221 1.495 . S
C2218 C2217 1.392 . S
C2218 C2219 1.385 . S
C2218 C2220 1.478 . S
C2219 H2213 0.930 . S
C2219 C2215 1.400 . S
C2219 C2218 1.385 . S
C2220 C2218 1.478 . S
C2220 C2222 1.381 . S
C2220 C2226 1.383 . S
C2221 C2217 1.495 . S
C2221 H2227 0.959 . S
C2221 H2228 0.961 . S
C2221 H2229 0.960 . S
C2222 C2220 1.381 . S
C2222 C2223 1.394 . S
C2222 H2230 0.930 . S
C2223 C2222 1.394 . S
C2223 C2224 1.383 . S
C2223 H2231 0.929 . S
C2224 C2223 1.383 . S
C2224 C2225 1.377 . S
C2225 H2209 0.930 . S
C2225 C2224 1.377 . S
C2225 C2226 1.379 . S
C2226 H2210 0.931 . S
C2226 C2220 1.383 . S
C2226 C2225 1.379 . S
H2227 C2221 0.959 . S
H2228 C2221 0.961 . S
H2229 C2221 0.960 . S
H2230 C2222 0.930 . S
H2231 C2223 0.929 . S
C621 C33 1.032 . S
C640 C39 1.042 . S
C657 C73 1.036 . S
C676 C67 1.042 . S
C693 C101 1.027 . S
C712 C5 1.030 . S
C729 C175 1.036 . S
C748 C135 1.047 . S
C765 C107 1.036 . S
C784 C169 1.041 . S
C801 C203 1.028 . S
C820 C141 1.029 . S
C837 C243 1.036 . S
C856 C237 1.032 . S
C873 C271 1.027 . S
C892 C277 1.030 . S
C909 C305 1.027 . S
C928 C209 1.032 . S
C945 C379 1.035 . S
C964 C339 1.042 . S
C981 C311 1.035 . S
C1000 C373 1.017 . S
C1017 C407 1.030 . S
C1036 C345 1.030 . S
C1053 C447 1.035 . S
C1072 C441 1.012 . S
C1089 C475 1.028 . S
C1108 C481 1.030 . S
C1125 C509 1.029 . S
C1144 C413 1.035 . S
C1161 C583 1.036 . S
C1180 C543 1.039 . S
C1197 C515 1.036 . S
C1216 C577 1.037 . S
C1233 C611 1.032 . S
C1252 C549 1.037 . S
C1269 C349 1.499 . S
C1288 C9 1.468 . S
C1305 C383 1.499 . S
C1324 C43 1.475 . S
C1341 C315 1.511 . S
C1360 C77 1.522 . S
C1377 C111 1.498 . S
C1396 C485 1.468 . S
C1413 C417 1.508 . S
C1432 C145 1.508 . S
C1449 C451 1.504 . S
C1468 C179 1.480 . S
C1485 C213 1.510 . S
C1504 C553 1.533 . S
C1521 C587 1.502 . S
C1540 C247 1.497 . S
C1557 C519 1.498 . S
C1576 C281 1.473 . S
C1593 C2 1.613 . S
C1612 C172 1.614 . S
C1629 C104 1.610 . S
C1648 C36 1.619 . S
C1665 C138 1.611 . S
C1684 C70 1.620 . S
C1701 C376 1.611 1_556 S
C1720 C206 1.620 . S
C1737 C308 1.611 1_556 S
C1756 C240 1.596 . S
C1773 C274 1.610 . S
C1792 C342 1.594 1_556 S
C1809 C580 1.608 . S
C1828 C410 1.595 1_554 S
C1845 C444 1.609 1_554 S
C1864 C512 1.616 . S
C1881 C546 1.610 . S
C1900 C478 1.594 1_554 S
C1917 C20 0.626 1_565 S
C1936 C190 0.601 . S
C1953 C54 0.634 . S
C1972 C122 0.642 1_655 S
C1989 C156 0.621 . S
C2008 C88 0.666 . S
C2025 C394 0.634 . S
C2044 C224 0.585 . S
C2061 C326 0.628 . S
C2080 C258 0.672 . S
C2097 C360 0.637 . S
C2116 C292 0.637 . S
C2133 C428 0.628 . S
C2152 C598 0.599 . S
C2169 C462 0.636 . S
C2188 C530 0.585 . S
C2205 C564 0.639 . S
C2224 C496 0.605 . S
