# Generated by pormake.
# Topology msp, (4)-cn, num edge types: 1
# Building blocks:
#     Node 0, Type 0, BuildingBlock: ICAMEG_clean_sbu_1, # of connection points: 4
#     Node 1, Type 0, BuildingBlock: ICAMEG_clean_sbu_1, # of connection points: 4
#     Node 2, Type 0, BuildingBlock: ICAMEG_clean_sbu_1, # of connection points: 4
#     Node 3, Type 0, BuildingBlock: ICAMEG_clean_sbu_1, # of connection points: 4
#     Node 4, Type 0, BuildingBlock: ICAMEG_clean_sbu_1, # of connection points: 4
#     Node 5, Type 0, BuildingBlock: ICAMEG_clean_sbu_1, # of connection points: 4
#     Node 6, Type 0, BuildingBlock: ICAMEG_clean_sbu_1, # of connection points: 4
#     Node 7, Type 0, BuildingBlock: ICAMEG_clean_sbu_1, # of connection points: 4
#     Edge 8, Type (0, 0), BuildingBlock: XIVTED_clean_linker_0, # of connection points: 2
#     Edge 9, Type (0, 0), BuildingBlock: XIVTED_clean_linker_0, # of connection points: 2
#     Edge 10, Type (0, 0), BuildingBlock: XIVTED_clean_linker_0, # of connection points: 2
#     Edge 11, Type (0, 0), BuildingBlock: XIVTED_clean_linker_0, # of connection points: 2
#     Edge 12, Type (0, 0), BuildingBlock: XIVTED_clean_linker_0, # of connection points: 2
#     Edge 13, Type (0, 0), BuildingBlock: XIVTED_clean_linker_0, # of connection points: 2
#     Edge 14, Type (0, 0), BuildingBlock: XIVTED_clean_linker_0, # of connection points: 2
#     Edge 15, Type (0, 0), BuildingBlock: XIVTED_clean_linker_0, # of connection points: 2
#     Edge 16, Type (0, 0), BuildingBlock: XIVTED_clean_linker_0, # of connection points: 2
#     Edge 17, Type (0, 0), BuildingBlock: XIVTED_clean_linker_0, # of connection points: 2
#     Edge 18, Type (0, 0), BuildingBlock: XIVTED_clean_linker_0, # of connection points: 2
#     Edge 19, Type (0, 0), BuildingBlock: XIVTED_clean_linker_0, # of connection points: 2
#     Edge 20, Type (0, 0), BuildingBlock: XIVTED_clean_linker_0, # of connection points: 2
#     Edge 21, Type (0, 0), BuildingBlock: XIVTED_clean_linker_0, # of connection points: 2
#     Edge 22, Type (0, 0), BuildingBlock: XIVTED_clean_linker_0, # of connection points: 2
#     Edge 23, Type (0, 0), BuildingBlock: XIVTED_clean_linker_0, # of connection points: 2
# Relax obj value: 0.052
# Max RMSD: 0.148
# Mean RMSD: 0.148
data_MOF--net-msp--node1-ICAMEG_clean_sbu_1--edge1-XIVTED_clean_linker_0
_symmetry_space_group_name_H-M    P1
_symmetry_Int_Tables_number       1
_symmetry_cell_setting            triclinic
loop_
_symmetry_equiv_pos_as_xyz
'x, y, z'
_cell_length_a     27.154103
_cell_length_b     18.883543
_cell_length_c     44.302618
_cell_angle_alpha  90.012733
_cell_angle_beta   103.87451
_cell_angle_gamma 89.992143
loop_
_atom_site_label
_atom_site_type_symbol
_atom_site_fract_x
_atom_site_fract_y
_atom_site_fract_z
_atom_type_partial_charge
Co0 Co 0.06849 0.36465 0.35365 0.0
Co1 Co -0.00709 0.22881 0.36881 0.0
O2 O 0.01996 0.28821 0.34044 0.0
C3 C 0.12 0.27425 0.31659 0.0
O4 O 0.10847 0.22005 0.33213 0.0
C5 C 0.9028 0.28666 0.32543 0.0
O6 O 0.92388 0.34938 0.33099 0.0
O7 O 0.97583 0.3132 0.39151 0.0
O8 O 0.03383 0.39434 0.38643 0.0
H9 H 0.96737 0.1498 0.47234 0.0
H10 H 0.0161 0.35165 0.28705 0.0
O11 O 0.10526 0.33624 0.32153 0.0
H12 H 0.96865 0.5872 0.31898 0.0
H13 H 0.18058 0.56513 0.33601 0.0
H14 H 0.12464 0.42164 0.41463 0.0
H15 H 0.02589 0.50957 0.3565 0.0
H16 H 0.11771 0.46966 0.32003 0.0
O17 O 0.92496 0.23226 0.33926 0.0
H18 H 0.00255 0.22457 0.43696 0.0
H19 H 0.92188 0.10604 0.3593 0.0
H20 H 0.18726 0.51695 0.43162 0.0
H21 H 0.95907 0.42775 0.24871 0.0
H22 H 0.21566 0.58944 0.39216 0.0
H23 H 0.93492 0.54642 0.26462 0.0
O24 O 0.11332 0.30169 0.38436 0.0
H25 H -0.00024 0.08487 0.27439 0.0
H26 H 0.04752 0.09339 0.389 0.0
H27 H 0.0718 0.98979 0.36185 0.0
H28 H 0.04782 0.98506 0.30414 0.0
H29 H 0.97671 0.18775 0.30244 0.0
H30 H 0.88545 0.0303 0.3938 0.0
H31 H 0.90837 0.05178 0.45078 0.0
O32 O 0.0602 0.2245 0.39891 0.0
C33 C -0.00131 0.37221 0.39863 0.0
C34 C 0.95731 0.13965 0.44758 0.0
C35 C 0.91127 0.07266 0.40349 0.0
N36 N 0.96487 0.16908 0.39617 0.0
C37 C 0.9773 0.18162 0.42745 0.0
C38 C 0.93198 0.11577 0.38407 0.0
C39 C 0.92415 0.08473 0.43546 0.0
C40 C 0.0061 0.40348 0.29407 0.0
N41 N 0.02451 0.42631 0.32391 0.0
C42 C 0.97365 0.44623 0.27229 0.0
C43 C 0.96005 0.51275 0.28125 0.0
C44 C 0.97893 0.53564 0.31175 0.0
C45 C 0.01123 0.49139 0.33292 0.0
C46 C 0.16842 0.53402 0.35342 0.0
C47 C 0.13654 0.45328 0.39731 0.0
C48 C 0.1329 0.47982 0.34451 0.0
N49 N 0.1172 0.44053 0.36638 0.0
C50 C 0.17212 0.50703 0.40708 0.0
C51 C 0.18807 0.54764 0.38493 0.0
C52 C 0.10381 0.25238 0.40181 0.0
C53 C 0.01031 0.08623 0.29955 0.0
C54 C 0.03707 0.09181 0.36387 0.0
C55 C 0.05082 0.03294 0.34863 0.0
C56 C 0.03733 0.03029 0.31625 0.0
N57 N 0.01045 0.14641 0.34733 0.0
C58 C -0.00284 0.14422 0.31557 0.0
Co59 Co 0.41024 0.37203 0.64126 0.0
Co60 Co 0.48333 0.23435 0.62482 0.0
O61 O 0.45912 0.29559 0.65379 0.0
C62 C 0.36207 0.28331 0.68058 0.0
O63 O 0.37263 0.22862 0.66495 0.0
C64 C 0.57623 0.29337 0.66513 0.0
O65 O 0.55509 0.35612 0.65983 0.0
O66 O 0.49817 0.31731 0.60052 0.0
O67 O 0.44217 0.40016 0.60701 0.0
H68 H 0.49907 0.14971 0.51995 0.0
H69 H 0.4667 0.36113 0.70722 0.0
O70 O 0.37617 0.34511 0.67485 0.0
H71 H 0.51177 0.59486 0.67211 0.0
H72 H 0.30103 0.57403 0.66101 0.0
H73 H 0.35037 0.42751 0.58089 0.0
H74 H 0.45253 0.51624 0.63626 0.0
H75 H 0.36424 0.47861 0.67594 0.0
O76 O 0.55294 0.23866 0.65235 0.0
H77 H 0.46766 0.22667 0.55625 0.0
H78 H 0.55415 0.11134 0.63316 0.0
H79 H 0.28732 0.52273 0.56493 0.0
H80 H 0.52568 0.43839 0.74395 0.0
H81 H 0.26224 0.59673 0.60514 0.0
H82 H 0.54865 0.55611 0.72641 0.0
O83 O 0.36345 0.30852 0.61182 0.0
H84 H 0.48524 0.09552 0.72192 0.0
H85 H 0.42773 0.09838 0.60754 0.0
H86 H 0.40627 0.99651 0.63681 0.0
H87 H 0.43512 0.99465 0.69441 0.0
H88 H 0.50532 0.1967 0.69179 0.0
H89 H 0.58685 0.03344 0.59771 0.0
H90 H 0.55909 0.05219 0.54065 0.0
O91 O 0.41441 0.22893 0.59675 0.0
C92 C 0.47558 0.3766 0.5937 0.0
C93 C 0.51124 0.14075 0.54476 0.0
C94 C 0.56057 0.07557 0.58841 0.0
N95 N 0.5085 0.17293 0.59676 0.0
C96 C 0.49342 0.18399 0.56542 0.0
C97 C 0.54197 0.1199 0.60836 0.0
C98 C 0.54497 0.08612 0.55639 0.0
C99 C 0.4762 0.41255 0.69951 0.0
N100 N 0.45599 0.43432 0.6697 0.0
C101 C 0.50976 0.45593 0.72037 0.0
C102 C 0.52268 0.52194 0.7105 0.0
C103 C 0.50203 0.5437 0.68003 0.0
C104 C 0.46861 0.49888 0.65981 0.0
C105 C 0.31174 0.54226 0.64327 0.0
C106 C 0.33993 0.45983 0.59852 0.0
C107 C 0.34746 0.48809 0.65158 0.0
N108 N 0.36131 0.44795 0.6293 0.0
C109 C 0.30409 0.51352 0.58934 0.0
C110 C 0.29 0.55498 0.61192 0.0
C111 C 0.37125 0.2576 0.59459 0.0
C112 C 0.47252 0.09566 0.69682 0.0
C113 C 0.4403 0.09806 0.63261 0.0
C114 C 0.42813 0.04016 0.64906 0.0
C115 C 0.44437 0.03911 0.68138 0.0
N116 N 0.468 0.15328 0.64792 0.0
C117 C 0.48399 0.15266 0.67962 0.0
Co118 Co 0.91296 0.63279 0.64106 0.0
Co119 Co 0.98647 0.77004 0.62471 0.0
O120 O 0.96187 0.70919 0.65363 0.0
C121 C 0.86433 0.7222 0.67995 0.0
O122 O 0.87505 0.77666 0.66425 0.0
C123 C 0.07913 0.71125 0.66541 0.0
O124 O 0.05803 0.64845 0.66022 0.0
O125 O 0.0015 0.68676 0.60063 0.0
O126 O 0.94533 0.60413 0.60707 0.0
H127 H 0.00332 0.85357 0.51993 0.0
H128 H 0.96874 0.64434 0.70713 0.0
O129 O 0.87846 0.66029 0.6744 0.0
H130 H 0.01405 0.40993 0.67279 0.0
H131 H 0.80325 0.43138 0.66072 0.0
H132 H 0.8537 0.57667 0.58065 0.0
H133 H 0.95529 0.48837 0.63655 0.0
H134 H 0.86639 0.52687 0.6757 0.0
O135 O 0.0559 0.76581 0.65246 0.0
H136 H 0.9715 0.77704 0.55617 0.0
H137 H 0.05737 0.89295 0.63311 0.0
H138 H 0.79075 0.48136 0.56463 0.0
H139 H 0.02724 0.56729 0.74424 0.0
H140 H 0.76511 0.40797 0.60482 0.0
H141 H 0.0503 0.44922 0.7271 0.0
O142 O 0.86648 0.69609 0.61132 0.0
H143 H 0.98724 0.90966 0.72149 0.0
H144 H 0.93113 0.90607 0.60704 0.0
H145 H 0.90936 0.00825 0.63605 0.0
H146 H 0.93752 0.01048 0.69368 0.0
H147 H 0.00773 0.80821 0.69161 0.0
H148 H 0.0905 0.97041 0.59772 0.0
H149 H 0.06326 0.95115 0.54066 0.0
O150 O 0.91776 0.7754 0.5964 0.0
C151 C 0.97892 0.62745 0.59384 0.0
C152 C 0.01528 0.86274 0.54473 0.0
C153 C 0.06426 0.92824 0.58839 0.0
N154 N 0.01201 0.83109 0.59669 0.0
C155 C -0.00279 0.81975 0.56536 0.0
C156 C 0.04542 0.88416 0.60832 0.0
C157 C 0.04895 0.91741 0.55638 0.0
C158 C 0.97829 0.59278 0.69959 0.0
N159 N 0.95841 0.5707 0.66978 0.0
C160 C 0.01158 0.54951 0.72066 0.0
C161 C 0.02456 0.4833 0.71101 0.0
C162 C 0.00425 0.46125 0.68054 0.0
C163 C 0.97111 0.50596 0.6601 0.0
C164 C 0.8142 0.46288 0.64299 0.0
C165 C 0.84301 0.54463 0.59827 0.0
C166 C 0.84987 0.51709 0.65133 0.0
N167 N 0.86404 0.55689 0.62906 0.0
C168 C 0.80723 0.49088 0.58906 0.0
C169 C 0.79282 0.44977 0.61162 0.0
C170 C 0.87454 0.7468 0.59409 0.0
C171 C 0.97486 0.90937 0.69637 0.0
C172 C 0.94342 0.90657 0.63213 0.0
C173 C 0.93107 0.96464 0.64842 0.0
C174 C 0.94692 0.96589 0.68076 0.0
N175 N 0.97094 0.85139 0.6476 0.0
C176 C 0.98655 0.85221 0.67931 0.0
Co177 Co 0.56811 0.63899 0.35466 0.0
Co178 Co 0.49254 0.77526 0.36944 0.0
O179 O 0.52006 0.7159 0.34126 0.0
C180 C 0.62119 0.72904 0.31835 0.0
O181 O 0.60996 0.78329 0.334 0.0
C182 C 0.40283 0.7186 0.32529 0.0
O183 O 0.42355 0.65563 0.33079 0.0
O184 O 0.47448 0.69082 0.39171 0.0
O185 O 0.53251 0.60938 0.38697 0.0
H186 H 0.46498 0.8536 0.47261 0.0
H187 H 0.51708 0.65279 0.28786 0.0
O188 O 0.60576 0.66727 0.32299 0.0
H189 H 0.46767 0.41749 0.31886 0.0
H190 H 0.68 0.43772 0.33754 0.0
H191 H 0.62281 0.58104 0.41577 0.0
H192 H 0.52463 0.49443 0.35687 0.0
H193 H 0.61776 0.53386 0.32133 0.0
O194 O 0.42503 0.77264 0.33943 0.0
H195 H 0.5007 0.77886 0.43746 0.0
H196 H 0.42205 0.89869 0.35968 0.0
H197 H 0.68477 0.48505 0.433 0.0
H198 H 0.4604 0.57734 0.24903 0.0
H199 H 0.71379 0.41265 0.39375 0.0
H200 H 0.43524 0.45882 0.26448 0.0
O201 O 0.61271 0.70139 0.38578 0.0
H202 H 0.50213 0.91995 0.27574 0.0
H203 H 0.54746 0.91013 0.39034 0.0
H204 H 0.57277 0.01383 0.36373 0.0
H205 H 0.54999 0.01922 0.30601 0.0
H206 H 0.47801 0.81696 0.30326 0.0
H207 H 0.38508 0.97441 0.39394 0.0
H208 H 0.40671 0.95227 0.45087 0.0
O209 O 0.55935 0.77878 0.40002 0.0
C210 C 0.49704 0.63161 0.39887 0.0
C211 C 0.45548 0.86405 0.44786 0.0
C212 C 0.41057 0.93176 0.40371 0.0
N213 N 0.46406 0.83498 0.39662 0.0
C214 C 0.47578 0.82208 0.42787 0.0
C215 C 0.43158 0.88866 0.38442 0.0
C216 C 0.42273 0.91932 0.43565 0.0
C217 C 0.50665 0.60101 0.29468 0.0
N218 N 0.52435 0.57787 0.32454 0.0
C219 C 0.47439 0.55864 0.27262 0.0
C220 C 0.46024 0.49219 0.28132 0.0
C221 C 0.47839 0.469 0.31184 0.0
C222 C 0.51053 0.51286 0.33328 0.0
C223 C 0.66756 0.4688 0.35487 0.0
C224 C 0.63498 0.54945 0.39854 0.0
C225 C 0.63239 0.52337 0.34583 0.0
N226 N 0.61635 0.56263 0.36758 0.0
C227 C 0.67019 0.4953 0.40844 0.0
C228 C 0.6865 0.45474 0.3864 0.0
C229 C 0.60292 0.75058 0.40323 0.0
C230 C 0.51215 0.91829 0.3009 0.0
C231 C 0.53753 0.91199 0.36522 0.0
C232 C 0.55188 0.97092 0.35028 0.0
C233 C 0.53906 0.97394 0.3179 0.0
N234 N 0.511 0.85771 0.34839 0.0
C235 C 0.49839 0.86025 0.31662 0.0
Co236 Co 0.56933 0.87124 0.85356 0.0
Co237 Co 0.49475 0.73427 0.8688 0.0
O238 O 0.52159 0.79384 0.84041 0.0
C239 C 0.62226 0.78154 0.81705 0.0
O240 O 0.61132 0.72732 0.83281 0.0
C241 C 0.40437 0.78998 0.82493 0.0
O242 O 0.4248 0.85314 0.83032 0.0
O243 O 0.47654 0.81858 0.8911 0.0
O244 O 0.53404 0.90054 0.88609 0.0
H245 H 0.46867 0.65601 0.97231 0.0
H246 H 0.51759 0.85678 0.78691 0.0
O247 O 0.6067 0.84325 0.82168 0.0
H248 H 0.4672 0.09149 0.81802 0.0
H249 H 0.67969 0.0736 0.8357 0.0
H250 H 0.62441 0.92981 0.91447 0.0
H251 H 0.5252 0.01538 0.85585 0.0
H252 H 0.61788 0.97682 0.81984 0.0
O253 O 0.42698 0.73615 0.83901 0.0
H254 H 0.50359 0.73097 0.93688 0.0
H255 H 0.42497 0.61009 0.85943 0.0
H256 H 0.68596 0.02644 0.93135 0.0
H257 H 0.45982 0.93134 0.74828 0.0
H258 H 0.71402 0.09909 0.89182 0.0
H259 H 0.43415 0.04956 0.76378 0.0
O260 O 0.61454 0.80934 0.88459 0.0
H261 H 0.50391 0.58943 0.77504 0.0
H262 H 0.55057 0.60003 0.88962 0.0
H263 H 0.57607 0.4965 0.86296 0.0
H264 H 0.55261 0.49071 0.80525 0.0
H265 H 0.47965 0.69227 0.80261 0.0
H266 H 0.3888 0.53412 0.89397 0.0
H267 H 0.41082 0.55668 0.95087 0.0
O268 O 0.56181 0.7315 0.89915 0.0
C269 C 0.49889 0.87796 0.89817 0.0
C270 C 0.45901 0.64537 0.94758 0.0
C271 C 0.41412 0.57705 0.90361 0.0
N272 N 0.46693 0.67433 0.89619 0.0
C273 C 0.47886 0.68746 0.92743 0.0
C274 C 0.43468 0.62029 0.88416 0.0
C275 C 0.4265 0.58973 0.93553 0.0
C276 C 0.50696 0.90844 0.79375 0.0
N277 N 0.52495 0.93187 0.82354 0.0
C278 C 0.47408 0.95031 0.77181 0.0
C279 C 0.45964 0.01659 0.78054 0.0
C280 C 0.47814 0.04011 0.81098 0.0
C281 C 0.51087 0.99673 0.83231 0.0
C282 C 0.66767 0.04243 0.85314 0.0
C283 C 0.63617 0.9615 0.89713 0.0
C284 C 0.63274 0.98749 0.8443 0.0
N285 N 0.61723 0.9481 0.86621 0.0
C286 C 0.67114 0.01602 0.90683 0.0
C287 C 0.68691 0.05671 0.88463 0.0
C288 C 0.60521 0.76013 0.90216 0.0
C289 C 0.51423 0.59125 0.8002 0.0
C290 C 0.54036 0.59799 0.86451 0.0
C291 C 0.55481 0.53917 0.84954 0.0
C292 C 0.54161 0.53592 0.81716 0.0
N293 N 0.51337 0.65197 0.84771 0.0
C294 C 0.5004 0.64921 0.81595 0.0
Co295 Co 0.91246 0.87564 0.14248 0.0
Co296 Co 0.98417 0.73664 0.12569 0.0
O297 O 0.96067 0.79834 0.15477 0.0
C298 C 0.86376 0.78712 0.18156 0.0
O299 O 0.87408 0.73253 0.16577 0.0
C300 C 0.07758 0.79503 0.16559 0.0
O301 O 0.05663 0.85789 0.16024 0.0
O302 O -0.00082 0.81922 0.10123 0.0
O303 O 0.94457 0.90353 0.10829 0.0
H304 H -0.00162 0.65104 0.02066 0.0
H305 H 0.96894 0.86307 0.20837 0.0
O306 O 0.87818 0.84887 0.17601 0.0
H307 H 0.0162 0.09636 0.17399 0.0
H308 H 0.80525 0.07927 0.16297 0.0
H309 H 0.85302 0.93273 0.08232 0.0
H310 H 0.95606 0.0192 0.13793 0.0
H311 H 0.86752 0.98258 0.17755 0.0
O312 O 0.05399 0.74036 0.15298 0.0
H313 H 0.96788 0.72872 0.05708 0.0
H314 H 0.05418 0.61276 0.13385 0.0
H315 H 0.79091 0.02922 0.0667 0.0
H316 H 0.02887 0.93878 0.24528 0.0
H317 H 0.76663 0.10325 0.10719 0.0
H318 H 0.05291 0.0563 0.22813 0.0
O319 O 0.86509 0.81321 0.11284 0.0
H320 H 0.98623 0.59859 0.22302 0.0
H321 H 0.92763 0.60128 0.10869 0.0
H322 H 0.90587 0.49995 0.13816 0.0
H323 H 0.93529 0.49817 0.19574 0.0
H324 H 0.00664 0.69922 0.1927 0.0
H325 H 0.08599 0.53413 0.09827 0.0
H326 H 0.05786 0.55283 0.04122 0.0
O327 O 0.91503 0.73198 0.09784 0.0
C328 C 0.97733 0.8791 0.09467 0.0
C329 C 0.0107 0.64209 0.04546 0.0
C330 C 0.05993 0.57655 0.08902 0.0
N331 N 0.00865 0.67469 0.09752 0.0
C332 C -0.00662 0.68573 0.06619 0.0
C333 C 0.04183 0.62129 0.10905 0.0
C334 C 0.04413 0.58707 0.05701 0.0
C335 C 0.97891 0.9144 0.20083 0.0
N336 N 0.95881 0.93688 0.17111 0.0
C337 C 0.01301 0.95692 0.22179 0.0
C338 C 0.02654 0.0228 0.21213 0.0
C339 C 0.00597 0.04529 0.18175 0.0
C340 C 0.97204 1.00131 0.16142 0.0
C341 C 0.81562 0.04749 0.14512 0.0
C342 C 0.84293 0.96503 0.10007 0.0
C343 C 0.8508 0.99261 0.15323 0.0
N344 N 0.86423 0.95247 0.1308 0.0
C345 C 0.80762 0.01946 0.09108 0.0
C346 C 0.79397 0.06093 0.11381 0.0
C347 C 0.87225 0.76185 0.09565 0.0
C348 C 0.97329 0.59868 0.19794 0.0
C349 C 0.94046 0.60098 0.13375 0.0
C350 C 0.92812 0.54339 0.15031 0.0
C351 C 0.94467 0.54239 0.18262 0.0
N352 N 0.96864 0.65595 0.14894 0.0
C353 C 0.98493 0.65537 0.18062 0.0
Co354 Co 0.41166 0.13605 0.14052 0.0
Co355 Co 0.48506 0.27386 0.12453 0.0
O356 O 0.46028 0.21267 0.15326 0.0
C357 C 0.36245 0.2253 0.17915 0.0
O358 O 0.37361 0.2798 0.16363 0.0
C359 C 0.57739 0.21447 0.16523 0.0
O360 O 0.55611 0.15185 0.15972 0.0
O361 O 0.50025 0.19092 0.10031 0.0
O362 O 0.44455 0.10759 0.10675 0.0
H363 H 0.50262 0.35871 0.02008 0.0
H364 H 0.46668 0.14786 0.20673 0.0
O365 O 0.37659 0.16336 0.17362 0.0
H366 H 0.51329 0.91383 0.1727 0.0
H367 H 0.30218 0.9339 0.15971 0.0
H368 H 0.35314 0.07969 0.07997 0.0
H369 H 0.45456 0.99189 0.13626 0.0
H370 H 0.36493 0.02979 0.17493 0.0
O371 O 0.5544 0.26935 0.15242 0.0
H372 H 0.47059 0.2816 0.05604 0.0
H373 H 0.55593 0.39682 0.13338 0.0
H374 H 0.29059 0.98398 0.06373 0.0
H375 H 0.52513 0.07116 0.24405 0.0
H376 H 0.2647 0.91033 0.10375 0.0
H377 H 0.54885 0.95329 0.22707 0.0
O378 O 0.36531 0.19912 0.11062 0.0
H379 H 0.48546 0.41248 0.22151 0.0
H380 H 0.42962 0.40989 0.10705 0.0
H381 H 0.40767 0.5117 0.1362 0.0
H382 H 0.4357 0.51343 0.19384 0.0
H383 H 0.50608 0.31139 0.1915 0.0
H384 H 0.58926 0.47485 0.09827 0.0
H385 H 0.56239 0.45624 0.04116 0.0
O386 O 0.41642 0.27932 0.09608 0.0
C387 C 0.47801 0.13137 0.09353 0.0
C388 C 0.5144 0.36761 0.04491 0.0
C389 C 0.56308 0.43272 0.08879 0.0
N390 N 0.51079 0.3353 0.09674 0.0
C391 C 0.49621 0.3243 0.06538 0.0
C392 C 0.54413 0.38832 0.10855 0.0
C393 C 0.54799 0.42225 0.05675 0.0
C394 C 0.47651 0.09637 0.19926 0.0
N395 N 0.45701 0.07419 0.16942 0.0
C396 C 0.50977 0.05331 0.22045 0.0
C397 C 0.52312 0.98721 0.21089 0.0
C398 C 0.5032 0.96506 0.18039 0.0
C399 C 0.47007 0.00956 0.15983 0.0
C400 C 0.31325 0.96551 0.14206 0.0
C401 C 0.34234 0.04755 0.09752 0.0
C402 C 0.34869 0.01995 0.15053 0.0
N403 N 0.36301 0.05989 0.12835 0.0
C404 C 0.30679 0.99356 0.08818 0.0
C405 C 0.29224 0.95231 0.11065 0.0
C406 C 0.37332 0.25018 0.09354 0.0
C407 C 0.47312 0.41241 0.19639 0.0
C408 C 0.44184 0.41016 0.13214 0.0
C409 C 0.42939 0.46803 0.14851 0.0
C410 C 0.44516 0.469 0.18086 0.0
N411 N 0.46937 0.35491 0.14754 0.0
C412 C 0.48489 0.35546 0.17926 0.0
Co413 Co 0.06678 0.13713 0.85418 0.0
Co414 Co -0.00854 0.27391 0.86881 0.0
O415 O 0.01877 0.21407 0.84069 0.0
C416 C 0.11979 0.22661 0.81764 0.0
O417 O 0.10861 0.28106 0.8332 0.0
C418 C 0.90147 0.21708 0.82493 0.0
O419 O 0.92214 0.15408 0.83047 0.0
O420 O 0.97348 0.18982 0.89134 0.0
O421 O 0.03125 0.10799 0.88659 0.0
H422 H 0.96459 0.3537 0.97195 0.0
H423 H 0.01563 0.15045 0.78739 0.0
O424 O 0.10437 0.16493 0.82242 0.0
H425 H 0.96624 0.91549 0.81876 0.0
H426 H 0.17829 0.9352 0.83727 0.0
H427 H 0.12153 0.07954 0.91536 0.0
H428 H 0.02315 0.99273 0.85666 0.0
H429 H 0.11621 0.03148 0.82096 0.0
O430 O 0.92383 0.27117 0.83893 0.0
H431 H 2e-05 0.27838 0.93686 0.0
H432 H 0.92108 0.39747 0.85891 0.0
H433 H 0.18333 0.98341 0.93269 0.0
H434 H 0.95899 0.07471 0.74867 0.0
H435 H 0.21213 0.91049 0.8935 0.0
H436 H 0.9339 0.95632 0.7643 0.0
O437 O 0.11154 0.19966 0.88519 0.0
H438 H 0.00071 0.41729 0.77469 0.0
H439 H 0.04656 0.40884 0.88931 0.0
H440 H 0.07185 0.51206 0.8624 0.0
H441 H 0.04881 0.51676 0.80467 0.0
H442 H 0.97662 0.31478 0.80252 0.0
H443 H 0.8844 0.47376 0.89311 0.0
H444 H 0.90632 0.45228 0.95009 0.0
O445 O 0.05838 0.2776 0.89925 0.0
C446 C -0.00405 0.13057 0.89855 0.0
C447 C 0.95496 0.36385 0.94718 0.0
C448 C 0.9099 0.43115 0.90293 0.0
N449 N 0.96321 0.33409 0.89594 0.0
C450 C 0.9751 0.32156 0.92722 0.0
C451 C 0.93074 0.38773 0.88368 0.0
C452 C 0.92221 0.41908 0.9349 0.0
C453 C 0.0052 0.09876 0.79429 0.0
N454 N 0.02289 0.07587 0.82419 0.0
C455 C 0.97297 0.05622 0.7723 0.0
C456 C 0.95884 0.98985 0.7811 0.0
C457 C 0.97695 0.96694 0.81166 0.0
C458 C 0.00905 0.01097 0.83304 0.0
C459 C 0.16594 0.9665 0.85457 0.0
C460 C 0.13361 0.04773 0.89816 0.0
C461 C 0.13087 0.02116 0.84547 0.0
N462 N 0.11494 0.0607 0.86718 0.0
C463 C 0.16873 0.9935 0.90812 0.0
C464 C 0.18491 0.95265 0.88612 0.0
C465 C 0.1019 0.24921 0.90251 0.0
C466 C 0.01084 0.41594 0.79985 0.0
C467 C 0.03652 0.41041 0.86419 0.0
C468 C 0.05085 0.46906 0.84908 0.0
C469 C 0.03789 0.4717 0.81669 0.0
N470 N 0.00986 0.356 0.84752 0.0
C471 C -0.00289 0.35817 0.81575 0.0
H472 H 0.94074 0.33531 0.43938 0.0
H473 H 0.0349 0.66566 0.55222 0.0
H474 H 0.03628 0.50283 0.41907 0.0
H475 H 0.94012 0.4976 0.57292 0.0
H476 H 0.03667 0.6059 0.50358 0.0
H477 H 0.93782 0.39592 0.48767 0.0
C478 C 0.96049 0.38526 0.44477 0.0
C479 C 0.98905 0.41359 0.4251 0.0
C480 C 0.01571 0.58195 0.51887 0.0
C481 C 0.98655 0.48274 0.48069 0.0
C482 C 0.01504 0.61579 0.54682 0.0
C483 C 0.98718 0.58694 0.56678 0.0
C484 C 0.98835 0.51876 0.51075 0.0
C485 C 0.962 0.52219 0.55832 0.0
C486 C 0.95915 0.41959 0.47252 0.0
C487 C 0.01397 0.47854 0.4335 0.0
N488 N 0.96297 0.49059 0.53092 0.0
N489 N 0.01239 0.51056 0.4607 0.0
H490 H 0.43864 0.66882 0.43934 0.0
H491 H 0.53136 0.33793 0.55204 0.0
H492 H 0.53348 0.50035 0.41904 0.0
H493 H 0.43666 0.50628 0.57263 0.0
H494 H 0.53318 0.39743 0.50337 0.0
H495 H 0.43497 0.60801 0.48745 0.0
C496 C 0.45806 0.61862 0.44468 0.0
C497 C 0.4867 0.5901 0.42509 0.0
C498 C 0.51221 0.4215 0.51864 0.0
C499 C 0.48335 0.52074 0.48047 0.0
C500 C 0.51151 0.3878 0.5466 0.0
C501 C 0.4837 0.41684 0.56655 0.0
C502 C 0.48493 0.48474 0.51049 0.0
C503 C 0.45851 0.48157 0.55804 0.0
C504 C 0.4563 0.58418 0.47233 0.0
C505 C 0.51116 0.52481 0.43342 0.0
N506 N 0.45954 0.51305 0.53063 0.0
N507 N 0.5092 0.49272 0.46052 0.0
H508 H 0.53362 0.17062 0.05186 0.0
H509 H 0.44101 0.84014 0.93884 0.0
H510 H 0.43996 1.00118 0.07259 0.0
H511 H 0.53532 0.00918 0.91849 0.0
H512 H 0.43778 0.90038 0.98716 0.0
H513 H 0.53544 0.11142 0.00312 0.0
C514 C 0.51402 0.12057 0.04645 0.0
C515 C 0.48645 0.09116 0.06644 0.0
C516 C 0.4589 0.92446 0.97199 0.0
C517 C 0.48767 0.02362 0.01029 0.0
C518 C 0.46041 0.89035 0.94422 0.0
C519 C 0.48877 0.91919 0.92455 0.0
C520 C 0.48591 0.98792 0.98017 0.0
C521 C 0.5132 0.98448 0.93293 0.0
C522 C 0.51472 0.08704 0.01843 0.0
C523 C 0.4616 0.02619 0.05796 0.0
N524 N 0.51148 0.01627 0.96015 0.0
N525 N 0.46259 0.99491 0.0305 0.0
H526 H 0.03171 0.83887 0.05249 0.0
H527 H 0.93856 0.169 0.93942 0.0
H528 H 0.93942 0.00942 0.07379 0.0
H529 H 0.03196 0.99914 0.91875 0.0
H530 H 0.93573 0.10914 0.98789 0.0
H531 H 0.03274 0.89749 0.00352 0.0
C532 C 0.01225 0.88904 0.04715 0.0
C533 C 0.9853 0.91894 0.06738 0.0
C534 C 0.95655 0.08479 0.97261 0.0
C535 C 0.9856 0.98583 0.01096 0.0
C536 C 0.95782 0.11869 0.94476 0.0
C537 C 0.98585 0.08952 0.92496 0.0
C538 C 0.98345 0.02124 0.98074 0.0
C539 C 0.01012 0.0241 0.93329 0.0
C540 C 0.01249 0.92224 0.019 0.0
C541 C 0.9606 0.98404 0.05898 0.0
N542 N 0.00864 0.99254 0.96059 0.0
N543 N 0.96113 0.01501 0.03139 0.0
H544 H 0.63511 0.11237 0.2013 0.0
H545 H 0.84664 0.38789 0.28796 0.0
H546 H 0.63168 0.33622 0.18078 0.0
H547 H 0.84949 0.16437 0.30907 0.0
H548 H 0.76807 0.36983 0.24813 0.0
H549 H 0.71483 0.12986 0.24023 0.0
C550 C 0.65124 0.16507 0.20485 0.0
C551 C 0.62671 0.22288 0.18779 0.0
C552 C 0.7859 0.32478 0.26153 0.0
C553 C 0.71756 0.2434 0.23237 0.0
C554 C 0.83066 0.33513 0.28432 0.0
C555 C 0.85456 0.27764 0.30192 0.0
C556 C 0.76499 0.25646 0.25631 0.0
C557 C 0.83232 0.21031 0.29609 0.0
C558 C 0.69665 0.17509 0.22713 0.0
C559 C 0.64922 0.29008 0.19343 0.0
N560 N 0.78882 0.20161 0.27378 0.0
N561 N 0.6933 0.29848 0.21527 0.0
H562 H 0.63449 0.39475 0.70138 0.0
H563 H 0.84488 0.11669 0.78714 0.0
H564 H 0.63028 0.17126 0.68006 0.0
H565 H 0.84897 0.34004 0.80873 0.0
H566 H 0.76647 0.13586 0.74729 0.0
H567 H 0.71431 0.37632 0.74013 0.0
C568 C 0.65047 0.34195 0.70471 0.0
C569 C 0.62568 0.2845 0.68749 0.0
C570 C 0.78454 0.18063 0.76079 0.0
C571 C 0.71663 0.2629 0.73185 0.0
C572 C 0.82921 0.16965 0.78359 0.0
C573 C 0.8534 0.22676 0.80134 0.0
C574 C 0.76402 0.2492 0.75573 0.0
C575 C 0.83157 0.29437 0.79564 0.0
C576 C 0.69594 0.33138 0.72688 0.0
C577 C 0.64802 0.21713 0.69284 0.0
N578 N 0.78814 0.30368 0.77333 0.0
N579 N 0.69214 0.2082 0.71459 0.0
H580 H 0.13747 0.6103 0.70195 0.0
H581 H 0.34752 0.88968 0.7869 0.0
H582 H 0.13307 0.8335 0.68007 0.0
H583 H 0.35211 0.66665 0.8091 0.0
H584 H 0.26912 0.86983 0.74716 0.0
H585 H 0.2173 0.62925 0.74064 0.0
C586 C 0.1534 0.66314 0.70514 0.0
C587 C 0.12856 0.72036 0.68778 0.0
C588 C 0.28729 0.82527 0.76077 0.0
C589 C 0.21951 0.74255 0.73207 0.0
C590 C 0.33196 0.83665 0.78351 0.0
C591 C 0.35629 0.77983 0.8014 0.0
C592 C 0.2669 0.75661 0.7559 0.0
C593 C 0.3346 0.7121 0.79589 0.0
C594 C 0.19888 0.674 0.72728 0.0
C595 C 0.15084 0.78779 0.69296 0.0
N596 N 0.29115 0.7024 0.77363 0.0
N597 N 0.19495 0.797 0.71468 0.0
H598 H 0.3465 0.61828 0.28732 0.0
H599 H 0.13622 0.89641 0.20156 0.0
H600 H 0.35034 0.84155 0.30906 0.0
H601 H 0.13149 0.67277 0.1805 0.0
H602 H 0.21615 0.87795 0.24017 0.0
H603 H 0.26819 0.63746 0.24739 0.0
C604 C 0.3308 0.67122 0.28379 0.0
C605 C 0.35487 0.7283 0.30162 0.0
C606 C 0.19765 0.83298 0.22701 0.0
C607 C 0.26563 0.75075 0.25591 0.0
C608 C 0.15212 0.84357 0.20491 0.0
C609 C 0.12714 0.78608 0.18782 0.0
C610 C 0.21823 0.76445 0.23204 0.0
C611 C 0.14937 0.71866 0.1932 0.0
C612 C 0.28619 0.68221 0.26094 0.0
C613 C 0.33302 0.79589 0.29591 0.0
N614 N 0.19357 0.70971 0.21488 0.0
N615 N 0.28965 0.80521 0.27356 0.0
H616 H 0.32154 0.34811 0.19545 0.0
H617 H 0.16225 0.15137 0.30131 0.0
H618 H 0.32739 0.12259 0.21221 0.0
H619 H 0.15552 0.37651 0.2836 0.0
H620 H 0.22272 0.13951 0.26865 0.0
H621 H 0.2618 0.35979 0.22854 0.0
C622 C 0.3105 0.30111 0.20621 0.0
C623 C 0.32936 0.23426 0.20093 0.0
C624 C 0.20791 0.19147 0.27188 0.0
C625 C 0.26071 0.24715 0.23866 0.0
C626 C 0.17327 0.19823 0.29045 0.0
C627 C 0.15388 0.26503 0.29528 0.0
C628 C 0.22331 0.25196 0.25807 0.0
C629 C 0.1695 0.32393 0.28058 0.0
C630 C 0.27626 0.30777 0.22503 0.0
C631 C 0.31377 0.17521 0.21555 0.0
N632 N 0.20337 0.31601 0.26274 0.0
N633 N 0.28024 0.18302 0.23364 0.0
H634 H 0.33012 0.38617 0.71501 0.0
H635 H 0.15303 0.12397 0.78377 0.0
H636 H 0.31911 0.16153 0.69622 0.0
H637 H 0.16487 0.34819 0.80348 0.0
H638 H 0.21356 0.13704 0.75149 0.0
H639 H 0.2708 0.37304 0.74814 0.0
C640 C 0.3155 0.33393 0.71799 0.0
C641 C 0.32947 0.27484 0.70268 0.0
C642 C 0.20289 0.18344 0.76281 0.0
C643 C 0.26116 0.25964 0.74048 0.0
C644 C 0.16816 0.1761 0.7812 0.0
C645 C 0.1539 0.23512 0.79644 0.0
C646 C 0.22362 0.25027 0.75956 0.0
C647 C 0.17481 0.30125 0.79221 0.0
C648 C 0.28147 0.32657 0.73687 0.0
C649 C 0.30931 0.20856 0.70749 0.0
N650 N 0.20871 0.30701 0.7742 0.0
N651 N 0.27601 0.20281 0.72588 0.0
H652 H 0.65547 0.88373 0.78294 0.0
H653 H 0.83217 0.61994 0.71454 0.0
H654 H 0.66718 0.6597 0.80303 0.0
H655 H 0.82137 0.84436 0.69527 0.0
H656 H 0.77287 0.63376 0.74765 0.0
H657 H 0.71587 0.87006 0.75059 0.0
C658 C 0.67053 0.83151 0.78044 0.0
C659 C 0.65628 0.77273 0.79581 0.0
C660 C 0.78357 0.68004 0.73627 0.0
C661 C 0.72585 0.75688 0.75885 0.0
C662 C 0.81758 0.67227 0.71741 0.0
C663 C 0.83163 0.7311 0.70198 0.0
C664 C 0.76333 0.74711 0.73976 0.0
C665 C 0.81152 0.79753 0.70664 0.0
C666 C 0.7052 0.82383 0.76201 0.0
C667 C 0.67711 0.70647 0.79166 0.0
N668 N 0.77823 0.80367 0.72502 0.0
N669 N 0.71094 0.70038 0.77362 0.0
H670 H 0.83182 0.88978 0.21611 0.0
H671 H 0.65437 0.62687 0.28424 0.0
H672 H 0.82064 0.6653 0.19697 0.0
H673 H 0.66643 0.85082 0.30452 0.0
H674 H 0.71495 0.64035 0.25203 0.0
H675 H 0.77242 0.87639 0.2492 0.0
C676 C 0.81714 0.83753 0.21901 0.0
C677 C 0.8311 0.77855 0.20361 0.0
C678 C 0.70432 0.68661 0.26346 0.0
C679 C 0.7627 0.76306 0.24135 0.0
C680 C 0.66956 0.67904 0.28182 0.0
C681 C 0.65534 0.73784 0.2972 0.0
C682 C 0.72513 0.75348 0.26039 0.0
C683 C 0.67633 0.80404 0.29314 0.0
C684 C 0.78307 0.83002 0.23785 0.0
C685 C 0.81086 0.71224 0.2083 0.0
N686 N 0.71027 0.81003 0.27516 0.0
N687 N 0.77753 0.70636 0.22666 0.0
H688 H 0.26912 0.27848 0.58735 0.0
H689 H 0.20659 0.26017 0.40892 0.0
H690 H 0.37855 0.1877 0.54198 0.0
H691 H 0.09211 0.19941 0.45682 0.0
H692 H 0.27157 0.24231 0.45735 0.0
H693 H 0.20273 0.25814 0.53981 0.0
C694 C 0.27905 0.25342 0.56761 0.0
C695 C 0.32949 0.23558 0.56847 0.0
C696 C 0.23221 0.23173 0.45695 0.0
C697 C 0.25443 0.21376 0.51429 0.0
C698 C 0.19526 0.24214 0.42947 0.0
C699 C 0.14399 0.23173 0.42898 0.0
C700 C 0.21741 0.21293 0.48412 0.0
C701 C 0.13121 0.20814 0.4562 0.0
C702 C 0.24124 0.24164 0.54064 0.0
C703 C 0.34027 0.20284 0.54229 0.0
N704 N 0.16764 0.20102 0.48294 0.0
N705 N 0.3032 0.19443 0.51596 0.0
H706 H 0.88257 0.81608 0.54145 0.0
H707 H 0.59015 0.80223 0.45823 0.0
H708 H 0.77221 0.72694 0.58652 0.0
H709 H 0.7059 0.74414 0.41085 0.0
H710 H 0.65576 0.81853 0.50622 0.0
H711 H 0.81553 0.83393 0.4944 0.0
C712 C 0.84415 0.80149 0.54173 0.0
C713 C 0.83305 0.76882 0.56781 0.0
C714 C 0.6666 0.80341 0.48512 0.0
C715 C 0.75658 0.79052 0.51432 0.0
C716 C 0.62941 0.79436 0.45773 0.0
C717 C 0.64269 0.77104 0.43063 0.0
C718 C 0.71734 0.79078 0.48513 0.0
C719 C 0.69414 0.76143 0.43135 0.0
C720 C 0.80612 0.81159 0.51483 0.0
C721 C 0.78247 0.75143 0.56679 0.0
N722 N 0.72979 0.77127 0.4583 0.0
N723 N 0.74593 0.76228 0.54031 0.0
H724 H 0.77039 0.7856 0.08822 0.0
H725 H 0.70808 0.76858 0.90964 0.0
H726 H 0.87886 0.69172 0.04295 0.0
H727 H 0.59311 0.70836 0.95725 0.0
H728 H 0.77279 0.75071 0.95822 0.0
H729 H 0.70398 0.76733 0.04049 0.0
C730 C 0.78009 0.76029 0.06847 0.0
C731 C 0.8303 0.74093 0.06942 0.0
C732 C 0.73337 0.74033 0.95772 0.0
C733 C 0.75526 0.72157 0.01502 0.0
C734 C 0.69658 0.75073 0.93016 0.0
C735 C 0.64526 0.74029 0.92954 0.0
C736 C 0.71835 0.72151 0.98482 0.0
C737 C 0.63225 0.71702 0.95673 0.0
C738 C 0.74228 0.74974 0.04138 0.0
C739 C 0.84078 0.70799 0.0432 0.0
N740 N 0.66852 0.70984 0.98353 0.0
N741 N 0.80375 0.70079 0.01676 0.0
H742 H 0.38165 0.31749 0.04052 0.0
H743 H 0.08935 0.30335 0.95715 0.0
H744 H 0.27099 0.231 0.08602 0.0
H745 H 0.2049 0.2413 0.91028 0.0
H746 H 0.15498 0.32082 0.00501 0.0
H747 H 0.31475 0.33391 0.99324 0.0
C748 C 0.34319 0.30326 0.04084 0.0
C749 C 0.33194 0.27173 0.06712 0.0
C750 C 0.16578 0.30455 0.98404 0.0
C751 C 0.25566 0.29176 0.01339 0.0
C752 C 0.12857 0.29481 0.95671 0.0
C753 C 0.14177 0.27007 0.9298 0.0
C754 C 0.21647 0.29119 0.98417 0.0
C755 C 0.19318 0.25969 0.93063 0.0
C756 C 0.30524 0.3125 0.01382 0.0
C757 C 0.28133 0.25464 0.06614 0.0
N758 N 0.22886 0.27024 0.95752 0.0
N759 N 0.24488 0.26468 0.03955 0.0
loop_
_geom_bond_atom_site_label_1
_geom_bond_atom_site_label_2
_geom_bond_distance
_geom_bond_site_symmetry_2
_ccdc_geom_bond_type
Co0 O2 2.143 . S
Co0 O8 2.074 . S
Co0 O11 2.093 . S
Co0 O24 2.097 . S
Co0 N41 2.151 . S
Co0 N49 2.214 . S
Co1 O2 2.160 . S
Co1 O7 2.058 1_455 S
Co1 O17 2.057 1_455 S
Co1 O32 2.037 . S
Co1 N36 2.145 1_455 S
Co1 N57 2.257 . S
O2 Co0 2.143 . S
O2 Co1 2.160 . S
C3 O4 1.278 . S
C3 O11 1.224 . S
O4 C3 1.278 . S
C5 O6 1.245 . S
C5 O17 1.232 . S
O6 C5 1.245 . S
O7 Co1 2.058 1_655 S
O7 C33 1.269 1_655 S
O8 Co0 2.074 . S
O8 C33 1.257 . S
H9 C34 0.930 . S
H10 C40 0.930 . S
O11 Co0 2.093 . S
O11 C3 1.224 . S
H12 C44 0.929 . S
H13 C46 0.930 . S
H14 C47 0.930 . S
H15 C45 0.929 . S
H16 C48 0.928 . S
O17 Co1 2.057 1_655 S
O17 C5 1.232 . S
H18 C37 0.929 1_455 S
H19 C38 0.929 . S
H20 C50 0.931 . S
H21 C42 0.929 . S
H22 C51 0.930 . S
H23 C43 0.931 . S
O24 Co0 2.097 . S
O24 C52 1.214 . S
H25 C53 0.929 . S
H26 C54 0.929 . S
H27 C55 0.930 . S
H28 C56 0.929 . S
H29 C58 0.930 . S
H30 C35 0.930 . S
H31 C39 0.930 . S
O32 Co1 2.037 . S
O32 C52 1.234 . S
C33 O7 1.269 1_455 S
C33 O8 1.257 . S
C34 H9 0.930 . S
C34 C37 1.388 . S
C34 C39 1.418 . S
C35 H30 0.930 . S
C35 C38 1.404 . S
C35 C39 1.353 . S
N36 Co1 2.145 1_655 S
N36 C37 1.397 . S
N36 C38 1.334 . S
C37 H18 0.929 1_655 S
C37 C34 1.388 . S
C37 N36 1.397 . S
C38 H19 0.929 . S
C38 C35 1.404 . S
C38 N36 1.334 . S
C39 H31 0.930 . S
C39 C34 1.418 . S
C39 C35 1.353 . S
C40 H10 0.930 . S
C40 N41 1.330 . S
C40 C42 1.446 . S
N41 Co0 2.151 . S
N41 C40 1.330 . S
N41 C45 1.418 . S
C42 H21 0.929 . S
C42 C40 1.446 . S
C42 C43 1.332 . S
C43 H23 0.931 . S
C43 C42 1.332 . S
C43 C44 1.267 . S
C44 H12 0.929 . S
C44 C43 1.267 . S
C44 C45 1.251 . S
C45 H15 0.929 . S
C45 N41 1.418 . S
C45 C44 1.251 . S
C46 H13 0.930 . S
C46 C48 1.406 . S
C46 C51 1.261 . S
C47 H14 0.930 . S
C47 N49 1.325 . S
C47 C50 1.357 . S
C48 H16 0.928 . S
C48 C46 1.406 . S
C48 N49 1.261 . S
N49 Co0 2.214 . S
N49 C47 1.325 . S
N49 C48 1.261 . S
C50 H20 0.931 . S
C50 C47 1.357 . S
C50 C51 1.312 . S
C51 H22 0.930 . S
C51 C46 1.261 . S
C51 C50 1.312 . S
C52 O24 1.214 . S
C52 O32 1.234 . S
C53 H25 0.929 . S
C53 C56 1.391 1_545 S
C53 C58 1.391 . S
C54 H26 0.929 . S
C54 C55 1.390 1_545 S
C54 N57 1.391 . S
C55 H27 0.930 . S
C55 C54 1.390 1_565 S
C55 C56 1.392 . S
C56 H28 0.929 . S
C56 C53 1.391 1_565 S
C56 C55 1.392 . S
N57 Co1 2.257 . S
N57 C54 1.391 . S
N57 C58 1.388 . S
C58 H29 0.930 . S
C58 C53 1.391 . S
C58 N57 1.388 . S
Co59 O61 2.143 . S
Co59 O67 2.074 . S
Co59 O70 2.093 . S
Co59 O83 2.097 . S
Co59 N100 2.151 . S
Co59 N108 2.214 . S
Co60 O61 2.160 . S
Co60 O66 2.058 . S
Co60 O76 2.057 . S
Co60 O91 2.037 . S
Co60 N95 2.145 . S
Co60 N116 2.257 . S
O61 Co59 2.143 . S
O61 Co60 2.160 . S
C62 O63 1.278 . S
C62 O70 1.224 . S
O63 C62 1.278 . S
C64 O65 1.245 . S
C64 O76 1.232 . S
O65 C64 1.245 . S
O66 Co60 2.058 . S
O66 C92 1.269 . S
O67 Co59 2.074 . S
O67 C92 1.257 . S
H68 C93 0.930 . S
H69 C99 0.930 . S
O70 Co59 2.093 . S
O70 C62 1.224 . S
H71 C103 0.929 . S
H72 C105 0.930 . S
H73 C106 0.930 . S
H74 C104 0.929 . S
H75 C107 0.928 . S
O76 Co60 2.057 . S
O76 C64 1.232 . S
H77 C96 0.929 . S
H78 C97 0.929 . S
H79 C109 0.931 . S
H80 C101 0.929 . S
H81 C110 0.930 . S
H82 C102 0.931 . S
O83 Co59 2.097 . S
O83 C111 1.214 . S
H84 C112 0.929 . S
H85 C113 0.929 . S
H86 C114 0.930 . S
H87 C115 0.929 . S
H88 C117 0.930 . S
H89 C94 0.930 . S
H90 C98 0.930 . S
O91 Co60 2.037 . S
O91 C111 1.234 . S
C92 O66 1.269 . S
C92 O67 1.257 . S
C93 H68 0.930 . S
C93 C96 1.388 . S
C93 C98 1.418 . S
C94 H89 0.930 . S
C94 C97 1.404 . S
C94 C98 1.353 . S
N95 Co60 2.145 . S
N95 C96 1.397 . S
N95 C97 1.334 . S
C96 H77 0.929 . S
C96 C93 1.388 . S
C96 N95 1.397 . S
C97 H78 0.929 . S
C97 C94 1.404 . S
C97 N95 1.334 . S
C98 H90 0.930 . S
C98 C93 1.418 . S
C98 C94 1.353 . S
C99 H69 0.930 . S
C99 N100 1.330 . S
C99 C101 1.446 . S
N100 Co59 2.151 . S
N100 C99 1.330 . S
N100 C104 1.418 . S
C101 H80 0.929 . S
C101 C99 1.446 . S
C101 C102 1.332 . S
C102 H82 0.931 . S
C102 C101 1.332 . S
C102 C103 1.267 . S
C103 H71 0.929 . S
C103 C102 1.267 . S
C103 C104 1.251 . S
C104 H74 0.929 . S
C104 N100 1.418 . S
C104 C103 1.251 . S
C105 H72 0.930 . S
C105 C107 1.406 . S
C105 C110 1.261 . S
C106 H73 0.930 . S
C106 N108 1.325 . S
C106 C109 1.357 . S
C107 H75 0.928 . S
C107 C105 1.406 . S
C107 N108 1.261 . S
N108 Co59 2.214 . S
N108 C106 1.325 . S
N108 C107 1.261 . S
C109 H79 0.931 . S
C109 C106 1.357 . S
C109 C110 1.312 . S
C110 H81 0.930 . S
C110 C105 1.261 . S
C110 C109 1.312 . S
C111 O83 1.214 . S
C111 O91 1.234 . S
C112 H84 0.929 . S
C112 C115 1.391 1_545 S
C112 C117 1.391 . S
C113 H85 0.929 . S
C113 C114 1.390 1_545 S
C113 N116 1.391 . S
C114 H86 0.930 . S
C114 C113 1.390 1_565 S
C114 C115 1.392 . S
C115 H87 0.929 . S
C115 C112 1.391 1_565 S
C115 C114 1.392 . S
N116 Co60 2.257 . S
N116 C113 1.391 . S
N116 C117 1.388 . S
C117 H88 0.930 . S
C117 C112 1.391 . S
C117 N116 1.388 . S
Co118 O120 2.143 . S
Co118 O126 2.074 . S
Co118 O129 2.093 . S
Co118 O142 2.097 . S
Co118 N159 2.151 . S
Co118 N167 2.214 . S
Co119 O120 2.160 . S
Co119 O125 2.058 1_655 S
Co119 O135 2.057 1_655 S
Co119 O150 2.037 . S
Co119 N154 2.145 1_655 S
Co119 N175 2.257 . S
O120 Co118 2.143 . S
O120 Co119 2.160 . S
C121 O122 1.278 . S
C121 O129 1.224 . S
O122 C121 1.278 . S
C123 O124 1.245 . S
C123 O135 1.232 . S
O124 C123 1.245 . S
O125 Co119 2.058 1_455 S
O125 C151 1.269 1_455 S
O126 Co118 2.074 . S
O126 C151 1.257 . S
H127 C152 0.930 . S
H128 C158 0.930 . S
O129 Co118 2.093 . S
O129 C121 1.224 . S
H130 C162 0.929 . S
H131 C164 0.930 . S
H132 C165 0.930 . S
H133 C163 0.929 . S
H134 C166 0.928 . S
O135 Co119 2.057 1_455 S
O135 C123 1.232 . S
H136 C155 0.929 1_655 S
H137 C156 0.929 . S
H138 C168 0.931 . S
H139 C160 0.929 . S
H140 C169 0.930 . S
H141 C161 0.931 . S
O142 Co118 2.097 . S
O142 C170 1.214 . S
H143 C171 0.929 . S
H144 C172 0.929 . S
H145 C173 0.930 . S
H146 C174 0.929 . S
H147 C176 0.930 . S
H148 C153 0.930 . S
H149 C157 0.930 . S
O150 Co119 2.037 . S
O150 C170 1.234 . S
C151 O125 1.269 1_655 S
C151 O126 1.257 . S
C152 H127 0.930 . S
C152 C155 1.388 . S
C152 C157 1.418 . S
C153 H148 0.930 . S
C153 C156 1.404 . S
C153 C157 1.353 . S
N154 Co119 2.145 1_455 S
N154 C155 1.397 . S
N154 C156 1.334 . S
C155 H136 0.929 1_455 S
C155 C152 1.388 . S
C155 N154 1.397 . S
C156 H137 0.929 . S
C156 C153 1.404 . S
C156 N154 1.334 . S
C157 H149 0.930 . S
C157 C152 1.418 . S
C157 C153 1.353 . S
C158 H128 0.930 . S
C158 N159 1.330 . S
C158 C160 1.446 . S
N159 Co118 2.151 . S
N159 C158 1.330 . S
N159 C163 1.418 . S
C160 H139 0.929 . S
C160 C158 1.446 . S
C160 C161 1.332 . S
C161 H141 0.931 . S
C161 C160 1.332 . S
C161 C162 1.267 . S
C162 H130 0.929 . S
C162 C161 1.267 . S
C162 C163 1.251 . S
C163 H133 0.929 . S
C163 N159 1.418 . S
C163 C162 1.251 . S
C164 H131 0.930 . S
C164 C166 1.406 . S
C164 C169 1.261 . S
C165 H132 0.930 . S
C165 N167 1.325 . S
C165 C168 1.357 . S
C166 H134 0.928 . S
C166 C164 1.406 . S
C166 N167 1.261 . S
N167 Co118 2.214 . S
N167 C165 1.325 . S
N167 C166 1.261 . S
C168 H138 0.931 . S
C168 C165 1.357 . S
C168 C169 1.312 . S
C169 H140 0.930 . S
C169 C164 1.261 . S
C169 C168 1.312 . S
C170 O142 1.214 . S
C170 O150 1.234 . S
C171 H143 0.929 . S
C171 C174 1.391 1_565 S
C171 C176 1.391 . S
C172 H144 0.929 . S
C172 C173 1.390 1_565 S
C172 N175 1.391 . S
C173 H145 0.930 . S
C173 C172 1.390 1_545 S
C173 C174 1.392 . S
C174 H146 0.929 . S
C174 C171 1.391 1_545 S
C174 C173 1.392 . S
N175 Co119 2.257 . S
N175 C172 1.391 . S
N175 C176 1.388 . S
C176 H147 0.930 . S
C176 C171 1.391 . S
C176 N175 1.388 . S
Co177 O179 2.143 . S
Co177 O185 2.074 . S
Co177 O188 2.093 . S
Co177 O201 2.097 . S
Co177 N218 2.151 . S
Co177 N226 2.214 . S
Co178 O179 2.160 . S
Co178 O184 2.058 . S
Co178 O194 2.057 . S
Co178 O209 2.037 . S
Co178 N213 2.145 . S
Co178 N234 2.257 . S
O179 Co177 2.143 . S
O179 Co178 2.160 . S
C180 O181 1.278 . S
C180 O188 1.224 . S
O181 C180 1.278 . S
C182 O183 1.245 . S
C182 O194 1.232 . S
O183 C182 1.245 . S
O184 Co178 2.058 . S
O184 C210 1.269 . S
O185 Co177 2.074 . S
O185 C210 1.257 . S
H186 C211 0.930 . S
H187 C217 0.930 . S
O188 Co177 2.093 . S
O188 C180 1.224 . S
H189 C221 0.929 . S
H190 C223 0.930 . S
H191 C224 0.930 . S
H192 C222 0.929 . S
H193 C225 0.928 . S
O194 Co178 2.057 . S
O194 C182 1.232 . S
H195 C214 0.929 . S
H196 C215 0.929 . S
H197 C227 0.931 . S
H198 C219 0.929 . S
H199 C228 0.930 . S
H200 C220 0.931 . S
O201 Co177 2.097 . S
O201 C229 1.214 . S
H202 C230 0.929 . S
H203 C231 0.929 . S
H204 C232 0.930 . S
H205 C233 0.929 . S
H206 C235 0.930 . S
H207 C212 0.930 . S
H208 C216 0.930 . S
O209 Co178 2.037 . S
O209 C229 1.234 . S
C210 O184 1.269 . S
C210 O185 1.257 . S
C211 H186 0.930 . S
C211 C214 1.388 . S
C211 C216 1.418 . S
C212 H207 0.930 . S
C212 C215 1.404 . S
C212 C216 1.353 . S
N213 Co178 2.145 . S
N213 C214 1.397 . S
N213 C215 1.334 . S
C214 H195 0.929 . S
C214 C211 1.388 . S
C214 N213 1.397 . S
C215 H196 0.929 . S
C215 C212 1.404 . S
C215 N213 1.334 . S
C216 H208 0.930 . S
C216 C211 1.418 . S
C216 C212 1.353 . S
C217 H187 0.930 . S
C217 N218 1.330 . S
C217 C219 1.446 . S
N218 Co177 2.151 . S
N218 C217 1.330 . S
N218 C222 1.418 . S
C219 H198 0.929 . S
C219 C217 1.446 . S
C219 C220 1.332 . S
C220 H200 0.931 . S
C220 C219 1.332 . S
C220 C221 1.267 . S
C221 H189 0.929 . S
C221 C220 1.267 . S
C221 C222 1.251 . S
C222 H192 0.929 . S
C222 N218 1.418 . S
C222 C221 1.251 . S
C223 H190 0.930 . S
C223 C225 1.406 . S
C223 C228 1.261 . S
C224 H191 0.930 . S
C224 N226 1.325 . S
C224 C227 1.357 . S
C225 H193 0.928 . S
C225 C223 1.406 . S
C225 N226 1.261 . S
N226 Co177 2.214 . S
N226 C224 1.325 . S
N226 C225 1.261 . S
C227 H197 0.931 . S
C227 C224 1.357 . S
C227 C228 1.312 . S
C228 H199 0.930 . S
C228 C223 1.261 . S
C228 C227 1.312 . S
C229 O201 1.214 . S
C229 O209 1.234 . S
C230 H202 0.929 . S
C230 C233 1.391 1_565 S
C230 C235 1.391 . S
C231 H203 0.929 . S
C231 C232 1.390 1_565 S
C231 N234 1.391 . S
C232 H204 0.930 . S
C232 C231 1.390 1_545 S
C232 C233 1.392 . S
C233 H205 0.929 . S
C233 C230 1.391 1_545 S
C233 C232 1.392 . S
N234 Co178 2.257 . S
N234 C231 1.391 . S
N234 C235 1.388 . S
C235 H206 0.930 . S
C235 C230 1.391 . S
C235 N234 1.388 . S
Co236 O238 2.143 . S
Co236 O244 2.074 . S
Co236 O247 2.093 . S
Co236 O260 2.097 . S
Co236 N277 2.151 . S
Co236 N285 2.214 . S
Co237 O238 2.160 . S
Co237 O243 2.058 . S
Co237 O253 2.057 . S
Co237 O268 2.037 . S
Co237 N272 2.145 . S
Co237 N293 2.257 . S
O238 Co236 2.143 . S
O238 Co237 2.160 . S
C239 O240 1.278 . S
C239 O247 1.224 . S
O240 C239 1.278 . S
C241 O242 1.245 . S
C241 O253 1.232 . S
O242 C241 1.245 . S
O243 Co237 2.058 . S
O243 C269 1.269 . S
O244 Co236 2.074 . S
O244 C269 1.257 . S
H245 C270 0.930 . S
H246 C276 0.930 . S
O247 Co236 2.093 . S
O247 C239 1.224 . S
H248 C280 0.929 . S
H249 C282 0.930 1_545 S
H250 C283 0.930 . S
H251 C281 0.929 . S
H252 C284 0.928 . S
O253 Co237 2.057 . S
O253 C241 1.232 . S
H254 C273 0.929 . S
H255 C274 0.929 . S
H256 C286 0.931 . S
H257 C278 0.929 . S
H258 C287 0.930 1_545 S
H259 C279 0.931 . S
O260 Co236 2.097 . S
O260 C288 1.214 . S
H261 C289 0.929 . S
H262 C290 0.929 . S
H263 C291 0.930 . S
H264 C292 0.929 . S
H265 C294 0.930 . S
H266 C271 0.930 . S
H267 C275 0.930 . S
O268 Co237 2.037 . S
O268 C288 1.234 . S
C269 O243 1.269 . S
C269 O244 1.257 . S
C270 H245 0.930 . S
C270 C273 1.388 . S
C270 C275 1.418 . S
C271 H266 0.930 . S
C271 C274 1.404 . S
C271 C275 1.353 . S
N272 Co237 2.145 . S
N272 C273 1.397 . S
N272 C274 1.334 . S
C273 H254 0.929 . S
C273 C270 1.388 . S
C273 N272 1.397 . S
C274 H255 0.929 . S
C274 C271 1.404 . S
C274 N272 1.334 . S
C275 H267 0.930 . S
C275 C270 1.418 . S
C275 C271 1.353 . S
C276 H246 0.930 . S
C276 N277 1.330 . S
C276 C278 1.446 . S
N277 Co236 2.151 . S
N277 C276 1.330 . S
N277 C281 1.418 . S
C278 H257 0.929 . S
C278 C276 1.446 . S
C278 C279 1.332 1_565 S
C279 H259 0.931 . S
C279 C278 1.332 1_545 S
C279 C280 1.267 . S
C280 H248 0.929 . S
C280 C279 1.267 . S
C280 C281 1.251 1_545 S
C281 H251 0.929 . S
C281 N277 1.418 . S
C281 C280 1.251 1_565 S
C282 H249 0.930 1_565 S
C282 C284 1.406 . S
C282 C287 1.261 . S
C283 H250 0.930 . S
C283 N285 1.325 . S
C283 C286 1.357 . S
C284 H252 0.928 . S
C284 C282 1.406 . S
C284 N285 1.261 . S
N285 Co236 2.214 . S
N285 C283 1.325 . S
N285 C284 1.261 . S
C286 H256 0.931 . S
C286 C283 1.357 . S
C286 C287 1.312 . S
C287 H258 0.930 1_565 S
C287 C282 1.261 . S
C287 C286 1.312 . S
C288 O260 1.214 . S
C288 O268 1.234 . S
C289 H261 0.929 . S
C289 C292 1.391 . S
C289 C294 1.391 . S
C290 H262 0.929 . S
C290 C291 1.390 . S
C290 N293 1.391 . S
C291 H263 0.930 . S
C291 C290 1.390 . S
C291 C292 1.392 . S
C292 H264 0.929 . S
C292 C289 1.391 . S
C292 C291 1.392 . S
N293 Co237 2.257 . S
N293 C290 1.391 . S
N293 C294 1.388 . S
C294 H265 0.930 . S
C294 C289 1.391 . S
C294 N293 1.388 . S
Co295 O297 2.143 . S
Co295 O303 2.074 . S
Co295 O306 2.093 . S
Co295 O319 2.097 . S
Co295 N336 2.151 . S
Co295 N344 2.214 . S
Co296 O297 2.160 . S
Co296 O302 2.058 1_655 S
Co296 O312 2.057 1_655 S
Co296 O327 2.037 . S
Co296 N331 2.145 1_655 S
Co296 N352 2.257 . S
O297 Co295 2.143 . S
O297 Co296 2.160 . S
C298 O299 1.278 . S
C298 O306 1.224 . S
O299 C298 1.278 . S
C300 O301 1.245 . S
C300 O312 1.232 . S
O301 C300 1.245 . S
O302 Co296 2.058 1_455 S
O302 C328 1.269 1_455 S
O303 Co295 2.074 . S
O303 C328 1.257 . S
H304 C329 0.930 . S
H305 C335 0.930 . S
O306 Co295 2.093 . S
O306 C298 1.224 . S
H307 C339 0.929 . S
H308 C341 0.930 1_545 S
H309 C342 0.930 . S
H310 C340 0.929 . S
H311 C343 0.928 . S
O312 Co296 2.057 1_455 S
O312 C300 1.232 . S
H313 C332 0.929 1_655 S
H314 C333 0.929 . S
H315 C345 0.931 . S
H316 C337 0.929 . S
H317 C346 0.930 1_545 S
H318 C338 0.931 . S
O319 Co295 2.097 . S
O319 C347 1.214 . S
H320 C348 0.929 . S
H321 C349 0.929 . S
H322 C350 0.930 . S
H323 C351 0.929 . S
H324 C353 0.930 . S
H325 C330 0.930 . S
H326 C334 0.930 . S
O327 Co296 2.037 . S
O327 C347 1.234 . S
C328 O302 1.269 1_655 S
C328 O303 1.257 . S
C329 H304 0.930 . S
C329 C332 1.388 . S
C329 C334 1.418 . S
C330 H325 0.930 . S
C330 C333 1.404 . S
C330 C334 1.353 . S
N331 Co296 2.145 1_455 S
N331 C332 1.397 . S
N331 C333 1.334 . S
C332 H313 0.929 1_455 S
C332 C329 1.388 . S
C332 N331 1.397 . S
C333 H314 0.929 . S
C333 C330 1.404 . S
C333 N331 1.334 . S
C334 H326 0.930 . S
C334 C329 1.418 . S
C334 C330 1.353 . S
C335 H305 0.930 . S
C335 N336 1.330 . S
C335 C337 1.446 . S
N336 Co295 2.151 . S
N336 C335 1.330 . S
N336 C340 1.418 . S
C337 H316 0.929 . S
C337 C335 1.446 . S
C337 C338 1.332 1_565 S
C338 H318 0.931 . S
C338 C337 1.332 1_545 S
C338 C339 1.267 . S
C339 H307 0.929 . S
C339 C338 1.267 . S
C339 C340 1.251 1_545 S
C340 H310 0.929 . S
C340 N336 1.418 . S
C340 C339 1.251 1_565 S
C341 H308 0.930 1_565 S
C341 C343 1.406 . S
C341 C346 1.261 . S
C342 H309 0.930 . S
C342 N344 1.325 . S
C342 C345 1.357 . S
C343 H311 0.928 . S
C343 C341 1.406 . S
C343 N344 1.261 . S
N344 Co295 2.214 . S
N344 C342 1.325 . S
N344 C343 1.261 . S
C345 H315 0.931 . S
C345 C342 1.357 . S
C345 C346 1.312 . S
C346 H317 0.930 1_565 S
C346 C341 1.261 . S
C346 C345 1.312 . S
C347 O319 1.214 . S
C347 O327 1.234 . S
C348 H320 0.929 . S
C348 C351 1.391 . S
C348 C353 1.391 . S
C349 H321 0.929 . S
C349 C350 1.390 . S
C349 N352 1.391 . S
C350 H322 0.930 . S
C350 C349 1.390 . S
C350 C351 1.392 . S
C351 H323 0.929 . S
C351 C348 1.391 . S
C351 C350 1.392 . S
N352 Co296 2.257 . S
N352 C349 1.391 . S
N352 C353 1.388 . S
C353 H324 0.930 . S
C353 C348 1.391 . S
C353 N352 1.388 . S
Co354 O356 2.143 . S
Co354 O362 2.074 . S
Co354 O365 2.093 . S
Co354 O378 2.097 . S
Co354 N395 2.151 . S
Co354 N403 2.214 . S
Co355 O356 2.160 . S
Co355 O361 2.058 . S
Co355 O371 2.057 . S
Co355 O386 2.037 . S
Co355 N390 2.145 . S
Co355 N411 2.257 . S
O356 Co354 2.143 . S
O356 Co355 2.160 . S
C357 O358 1.278 . S
C357 O365 1.224 . S
O358 C357 1.278 . S
C359 O360 1.245 . S
C359 O371 1.232 . S
O360 C359 1.245 . S
O361 Co355 2.058 . S
O361 C387 1.269 . S
O362 Co354 2.074 . S
O362 C387 1.257 . S
H363 C388 0.930 . S
H364 C394 0.930 . S
O365 Co354 2.093 . S
O365 C357 1.224 . S
H366 C398 0.929 . S
H367 C400 0.930 1_565 S
H368 C401 0.930 . S
H369 C399 0.929 . S
H370 C402 0.928 . S
O371 Co355 2.057 . S
O371 C359 1.232 . S
H372 C391 0.929 . S
H373 C392 0.929 . S
H374 C404 0.931 . S
H375 C396 0.929 . S
H376 C405 0.930 1_565 S
H377 C397 0.931 . S
O378 Co354 2.097 . S
O378 C406 1.214 . S
H379 C407 0.929 . S
H380 C408 0.929 . S
H381 C409 0.930 . S
H382 C410 0.929 . S
H383 C412 0.930 . S
H384 C389 0.930 . S
H385 C393 0.930 . S
O386 Co355 2.037 . S
O386 C406 1.234 . S
C387 O361 1.269 . S
C387 O362 1.257 . S
C388 H363 0.930 . S
C388 C391 1.388 . S
C388 C393 1.418 . S
C389 H384 0.930 . S
C389 C392 1.404 . S
C389 C393 1.353 . S
N390 Co355 2.145 . S
N390 C391 1.397 . S
N390 C392 1.334 . S
C391 H372 0.929 . S
C391 C388 1.388 . S
C391 N390 1.397 . S
C392 H373 0.929 . S
C392 C389 1.404 . S
C392 N390 1.334 . S
C393 H385 0.930 . S
C393 C388 1.418 . S
C393 C389 1.353 . S
C394 H364 0.930 . S
C394 N395 1.330 . S
C394 C396 1.446 . S
N395 Co354 2.151 . S
N395 C394 1.330 . S
N395 C399 1.418 . S
C396 H375 0.929 . S
C396 C394 1.446 . S
C396 C397 1.332 1_545 S
C397 H377 0.931 . S
C397 C396 1.332 1_565 S
C397 C398 1.267 . S
C398 H366 0.929 . S
C398 C397 1.267 . S
C398 C399 1.251 1_565 S
C399 H369 0.929 . S
C399 N395 1.418 . S
C399 C398 1.251 1_545 S
C400 H367 0.930 1_545 S
C400 C402 1.406 . S
C400 C405 1.261 . S
C401 H368 0.930 . S
C401 N403 1.325 . S
C401 C404 1.357 . S
C402 H370 0.928 . S
C402 C400 1.406 . S
C402 N403 1.261 . S
N403 Co354 2.214 . S
N403 C401 1.325 . S
N403 C402 1.261 . S
C404 H374 0.931 . S
C404 C401 1.357 . S
C404 C405 1.312 . S
C405 H376 0.930 1_545 S
C405 C400 1.261 . S
C405 C404 1.312 . S
C406 O378 1.214 . S
C406 O386 1.234 . S
C407 H379 0.929 . S
C407 C410 1.391 . S
C407 C412 1.391 . S
C408 H380 0.929 . S
C408 C409 1.390 . S
C408 N411 1.391 . S
C409 H381 0.930 . S
C409 C408 1.390 . S
C409 C410 1.392 . S
C410 H382 0.929 . S
C410 C407 1.391 . S
C410 C409 1.392 . S
N411 Co355 2.257 . S
N411 C408 1.391 . S
N411 C412 1.388 . S
C412 H383 0.930 . S
C412 C407 1.391 . S
C412 N411 1.388 . S
Co413 O415 2.143 . S
Co413 O421 2.074 . S
Co413 O424 2.093 . S
Co413 O437 2.097 . S
Co413 N454 2.151 . S
Co413 N462 2.214 . S
Co414 O415 2.160 . S
Co414 O420 2.058 1_455 S
Co414 O430 2.057 1_455 S
Co414 O445 2.037 . S
Co414 N449 2.145 1_455 S
Co414 N470 2.257 . S
O415 Co413 2.143 . S
O415 Co414 2.160 . S
C416 O417 1.278 . S
C416 O424 1.224 . S
O417 C416 1.278 . S
C418 O419 1.245 . S
C418 O430 1.232 . S
O419 C418 1.245 . S
O420 Co414 2.058 1_655 S
O420 C446 1.269 1_655 S
O421 Co413 2.074 . S
O421 C446 1.257 . S
H422 C447 0.930 . S
H423 C453 0.930 . S
O424 Co413 2.093 . S
O424 C416 1.224 . S
H425 C457 0.929 . S
H426 C459 0.930 1_565 S
H427 C460 0.930 . S
H428 C458 0.929 . S
H429 C461 0.928 . S
O430 Co414 2.057 1_655 S
O430 C418 1.232 . S
H431 C450 0.929 1_455 S
H432 C451 0.929 . S
H433 C463 0.931 . S
H434 C455 0.929 . S
H435 C464 0.930 1_565 S
H436 C456 0.931 . S
O437 Co413 2.097 . S
O437 C465 1.214 . S
H438 C466 0.929 . S
H439 C467 0.929 . S
H440 C468 0.930 . S
H441 C469 0.929 . S
H442 C471 0.930 . S
H443 C448 0.930 . S
H444 C452 0.930 . S
O445 Co414 2.037 . S
O445 C465 1.234 . S
C446 O420 1.269 1_455 S
C446 O421 1.257 . S
C447 H422 0.930 . S
C447 C450 1.388 . S
C447 C452 1.418 . S
C448 H443 0.930 . S
C448 C451 1.404 . S
C448 C452 1.353 . S
N449 Co414 2.145 1_655 S
N449 C450 1.397 . S
N449 C451 1.334 . S
C450 H431 0.929 1_655 S
C450 C447 1.388 . S
C450 N449 1.397 . S
C451 H432 0.929 . S
C451 C448 1.404 . S
C451 N449 1.334 . S
C452 H444 0.930 . S
C452 C447 1.418 . S
C452 C448 1.353 . S
C453 H423 0.930 . S
C453 N454 1.330 . S
C453 C455 1.446 . S
N454 Co413 2.151 . S
N454 C453 1.330 . S
N454 C458 1.418 . S
C455 H434 0.929 . S
C455 C453 1.446 . S
C455 C456 1.332 1_545 S
C456 H436 0.931 . S
C456 C455 1.332 1_565 S
C456 C457 1.267 . S
C457 H425 0.929 . S
C457 C456 1.267 . S
C457 C458 1.251 1_565 S
C458 H428 0.929 . S
C458 N454 1.418 . S
C458 C457 1.251 1_545 S
C459 H426 0.930 1_545 S
C459 C461 1.406 . S
C459 C464 1.261 . S
C460 H427 0.930 . S
C460 N462 1.325 . S
C460 C463 1.357 . S
C461 H429 0.928 . S
C461 C459 1.406 . S
C461 N462 1.261 . S
N462 Co413 2.214 . S
N462 C460 1.325 . S
N462 C461 1.261 . S
C463 H433 0.931 . S
C463 C460 1.357 . S
C463 C464 1.312 . S
C464 H435 0.930 1_545 S
C464 C459 1.261 . S
C464 C463 1.312 . S
C465 O437 1.214 . S
C465 O445 1.234 . S
C466 H438 0.929 . S
C466 C469 1.391 . S
C466 C471 1.391 . S
C467 H439 0.929 . S
C467 C468 1.390 . S
C467 N470 1.391 . S
C468 H440 0.930 . S
C468 C467 1.390 . S
C468 C469 1.392 . S
C469 H441 0.929 . S
C469 C466 1.391 . S
C469 C468 1.392 . S
N470 Co414 2.257 . S
N470 C467 1.391 . S
N470 C471 1.388 . S
C471 H442 0.930 . S
C471 C466 1.391 . S
C471 N470 1.388 . S
H472 C478 0.930 . S
H473 C482 0.930 . S
H474 C487 0.929 . S
H475 C485 0.929 . S
H476 C480 0.929 . S
H477 C486 0.929 . S
C478 H472 0.930 . S
C478 C479 1.367 1_655 S
C478 C486 1.378 . S
C479 C478 1.367 1_455 S
C479 C487 1.433 . S
C480 H476 0.929 . S
C480 C482 1.378 . S
C480 C484 1.350 1_455 S
C481 C484 1.463 1_455 S
C481 C486 1.350 1_455 S
C481 N489 1.427 . S
C482 H473 0.930 . S
C482 C480 1.378 . S
C482 C483 1.367 1_455 S
C483 C482 1.367 1_655 S
C483 C485 1.433 . S
C484 C480 1.350 1_655 S
C484 C481 1.463 1_655 S
C484 N488 1.427 . S
C485 H475 0.929 . S
C485 C483 1.433 . S
C485 N488 1.384 . S
C486 H477 0.929 . S
C486 C478 1.378 . S
C486 C481 1.350 1_655 S
C487 H474 0.929 . S
C487 C479 1.433 . S
C487 N489 1.384 . S
N488 C484 1.427 . S
N488 C485 1.384 . S
N489 C481 1.427 . S
N489 C487 1.384 . S
H490 C496 0.930 . S
H491 C500 0.930 . S
H492 C505 0.929 . S
H493 C503 0.929 . S
H494 C498 0.929 . S
H495 C504 0.929 . S
C496 H490 0.930 . S
C496 C497 1.367 . S
C496 C504 1.378 . S
C497 C496 1.367 . S
C497 C505 1.433 . S
C498 H494 0.929 . S
C498 C500 1.378 . S
C498 C502 1.350 . S
C499 C502 1.463 . S
C499 C504 1.350 . S
C499 N507 1.427 . S
C500 H491 0.930 . S
C500 C498 1.378 . S
C500 C501 1.367 . S
C501 C500 1.367 . S
C501 C503 1.433 . S
C502 C498 1.350 . S
C502 C499 1.463 . S
C502 N506 1.427 . S
C503 H493 0.929 . S
C503 C501 1.433 . S
C503 N506 1.384 . S
C504 H495 0.929 . S
C504 C496 1.378 . S
C504 C499 1.350 . S
C505 H492 0.929 . S
C505 C497 1.433 . S
C505 N507 1.384 . S
N506 C502 1.427 . S
N506 C503 1.384 . S
N507 C499 1.427 . S
N507 C505 1.384 . S
H508 C514 0.930 . S
H509 C518 0.930 . S
H510 C523 0.929 . S
H511 C521 0.929 . S
H512 C516 0.929 1_554 S
H513 C522 0.929 1_556 S
C514 H508 0.930 . S
C514 C515 1.367 . S
C514 C522 1.378 . S
C515 C514 1.367 . S
C515 C523 1.433 . S
C516 H512 0.929 1_556 S
C516 C518 1.378 . S
C516 C520 1.350 . S
C517 C520 1.463 1_544 S
C517 C522 1.350 . S
C517 N525 1.427 1_545 S
C518 H509 0.930 . S
C518 C516 1.378 . S
C518 C519 1.367 . S
C519 C518 1.367 . S
C519 C521 1.433 . S
C520 C516 1.350 . S
C520 C517 1.463 1_566 S
C520 N524 1.427 1_565 S
C521 H511 0.929 . S
C521 C519 1.433 . S
C521 N524 1.384 1_565 S
C522 H513 0.929 1_554 S
C522 C514 1.378 . S
C522 C517 1.350 . S
C523 H510 0.929 . S
C523 C515 1.433 . S
C523 N525 1.384 1_545 S
N524 C520 1.427 1_545 S
N524 C521 1.384 1_545 S
N525 C517 1.427 1_565 S
N525 C523 1.384 1_565 S
H526 C532 0.930 . S
H527 C536 0.930 . S
H528 C541 0.929 . S
H529 C539 0.929 . S
H530 C534 0.929 . S
H531 C540 0.929 . S
C532 H526 0.930 . S
C532 C533 1.367 1_455 S
C532 C540 1.378 . S
C533 C532 1.367 1_655 S
C533 C541 1.433 . S
C534 H530 0.929 . S
C534 C536 1.378 . S
C534 C538 1.350 1_655 S
C535 C538 1.463 1_664 S
C535 C540 1.350 1_655 S
C535 N543 1.427 . S
C536 H527 0.930 . S
C536 C534 1.378 . S
C536 C537 1.367 1_655 S
C537 C536 1.367 1_455 S
C537 C539 1.433 . S
C538 C534 1.350 1_455 S
C538 C535 1.463 1_446 S
C538 N542 1.427 . S
C539 H529 0.929 . S
C539 C537 1.433 . S
C539 N542 1.384 . S
C540 H531 0.929 . S
C540 C532 1.378 . S
C540 C535 1.350 1_455 S
C541 H528 0.929 . S
C541 C533 1.433 . S
C541 N543 1.384 . S
N542 C538 1.427 . S
N542 C539 1.384 . S
N543 C535 1.427 . S
N543 C541 1.384 . S
H544 C550 0.930 . S
H545 C554 0.930 . S
H546 C559 0.929 . S
H547 C557 0.929 . S
H548 C552 0.929 . S
H549 C558 0.929 . S
C550 H544 0.930 . S
C550 C551 1.367 . S
C550 C558 1.378 . S
C551 C550 1.367 . S
C551 C559 1.433 . S
C552 H548 0.929 . S
C552 C554 1.378 . S
C552 C556 1.350 . S
C553 C556 1.463 . S
C553 C558 1.350 . S
C553 N561 1.427 . S
C554 H545 0.930 . S
C554 C552 1.378 . S
C554 C555 1.367 . S
C555 C554 1.367 . S
C555 C557 1.433 . S
C556 C552 1.350 . S
C556 C553 1.463 . S
C556 N560 1.427 . S
C557 H547 0.929 . S
C557 C555 1.433 . S
C557 N560 1.384 . S
C558 H549 0.929 . S
C558 C550 1.378 . S
C558 C553 1.350 . S
C559 H546 0.929 . S
C559 C551 1.433 . S
C559 N561 1.384 . S
N560 C556 1.427 . S
N560 C557 1.384 . S
N561 C553 1.427 . S
N561 C559 1.384 . S
H562 C568 0.930 . S
H563 C572 0.930 . S
H564 C577 0.929 . S
H565 C575 0.929 . S
H566 C570 0.929 . S
H567 C576 0.929 . S
C568 H562 0.930 . S
C568 C569 1.367 . S
C568 C576 1.378 . S
C569 C568 1.367 . S
C569 C577 1.433 . S
C570 H566 0.929 . S
C570 C572 1.378 . S
C570 C574 1.350 . S
C571 C574 1.463 . S
C571 C576 1.350 . S
C571 N579 1.427 . S
C572 H563 0.930 . S
C572 C570 1.378 . S
C572 C573 1.367 . S
C573 C572 1.367 . S
C573 C575 1.433 . S
C574 C570 1.350 . S
C574 C571 1.463 . S
C574 N578 1.427 . S
C575 H565 0.929 . S
C575 C573 1.433 . S
C575 N578 1.384 . S
C576 H567 0.929 . S
C576 C568 1.378 . S
C576 C571 1.350 . S
C577 H564 0.929 . S
C577 C569 1.433 . S
C577 N579 1.384 . S
N578 C574 1.427 . S
N578 C575 1.384 . S
N579 C571 1.427 . S
N579 C577 1.384 . S
H580 C586 0.930 . S
H581 C590 0.930 . S
H582 C595 0.929 . S
H583 C593 0.929 . S
H584 C588 0.929 . S
H585 C594 0.929 . S
C586 H580 0.930 . S
C586 C587 1.367 . S
C586 C594 1.378 . S
C587 C586 1.367 . S
C587 C595 1.433 . S
C588 H584 0.929 . S
C588 C590 1.378 . S
C588 C592 1.350 . S
C589 C592 1.463 . S
C589 C594 1.350 . S
C589 N597 1.427 . S
C590 H581 0.930 . S
C590 C588 1.378 . S
C590 C591 1.367 . S
C591 C590 1.367 . S
C591 C593 1.433 . S
C592 C588 1.350 . S
C592 C589 1.463 . S
C592 N596 1.427 . S
C593 H583 0.929 . S
C593 C591 1.433 . S
C593 N596 1.384 . S
C594 H585 0.929 . S
C594 C586 1.378 . S
C594 C589 1.350 . S
C595 H582 0.929 . S
C595 C587 1.433 . S
C595 N597 1.384 . S
N596 C592 1.427 . S
N596 C593 1.384 . S
N597 C589 1.427 . S
N597 C595 1.384 . S
H598 C604 0.930 . S
H599 C608 0.930 . S
H600 C613 0.929 . S
H601 C611 0.929 . S
H602 C606 0.929 . S
H603 C612 0.929 . S
C604 H598 0.930 . S
C604 C605 1.367 . S
C604 C612 1.378 . S
C605 C604 1.367 . S
C605 C613 1.433 . S
C606 H602 0.929 . S
C606 C608 1.378 . S
C606 C610 1.350 . S
C607 C610 1.463 . S
C607 C612 1.350 . S
C607 N615 1.427 . S
C608 H599 0.930 . S
C608 C606 1.378 . S
C608 C609 1.367 . S
C609 C608 1.367 . S
C609 C611 1.433 . S
C610 C606 1.350 . S
C610 C607 1.463 . S
C610 N614 1.427 . S
C611 H601 0.929 . S
C611 C609 1.433 . S
C611 N614 1.384 . S
C612 H603 0.929 . S
C612 C604 1.378 . S
C612 C607 1.350 . S
C613 H600 0.929 . S
C613 C605 1.433 . S
C613 N615 1.384 . S
N614 C610 1.427 . S
N614 C611 1.384 . S
N615 C607 1.427 . S
N615 C613 1.384 . S
H616 C622 0.930 . S
H617 C626 0.930 . S
H618 C631 0.929 . S
H619 C629 0.929 . S
H620 C624 0.929 . S
H621 C630 0.929 . S
C622 H616 0.930 . S
C622 C623 1.367 . S
C622 C630 1.378 . S
C623 C622 1.367 . S
C623 C631 1.433 . S
C624 H620 0.929 . S
C624 C626 1.378 . S
C624 C628 1.350 . S
C625 C628 1.463 . S
C625 C630 1.350 . S
C625 N633 1.427 . S
C626 H617 0.930 . S
C626 C624 1.378 . S
C626 C627 1.367 . S
C627 C626 1.367 . S
C627 C629 1.433 . S
C628 C624 1.350 . S
C628 C625 1.463 . S
C628 N632 1.427 . S
C629 H619 0.929 . S
C629 C627 1.433 . S
C629 N632 1.384 . S
C630 H621 0.929 . S
C630 C622 1.378 . S
C630 C625 1.350 . S
C631 H618 0.929 . S
C631 C623 1.433 . S
C631 N633 1.384 . S
N632 C628 1.427 . S
N632 C629 1.384 . S
N633 C625 1.427 . S
N633 C631 1.384 . S
H634 C640 0.930 . S
H635 C644 0.930 . S
H636 C649 0.929 . S
H637 C647 0.929 . S
H638 C642 0.929 . S
H639 C648 0.929 . S
C640 H634 0.930 . S
C640 C641 1.367 . S
C640 C648 1.378 . S
C641 C640 1.367 . S
C641 C649 1.433 . S
C642 H638 0.929 . S
C642 C644 1.378 . S
C642 C646 1.350 . S
C643 C646 1.463 . S
C643 C648 1.350 . S
C643 N651 1.427 . S
C644 H635 0.930 . S
C644 C642 1.378 . S
C644 C645 1.367 . S
C645 C644 1.367 . S
C645 C647 1.433 . S
C646 C642 1.350 . S
C646 C643 1.463 . S
C646 N650 1.427 . S
C647 H637 0.929 . S
C647 C645 1.433 . S
C647 N650 1.384 . S
C648 H639 0.929 . S
C648 C640 1.378 . S
C648 C643 1.350 . S
C649 H636 0.929 . S
C649 C641 1.433 . S
C649 N651 1.384 . S
N650 C646 1.427 . S
N650 C647 1.384 . S
N651 C643 1.427 . S
N651 C649 1.384 . S
H652 C658 0.930 . S
H653 C662 0.930 . S
H654 C667 0.929 . S
H655 C665 0.929 . S
H656 C660 0.929 . S
H657 C666 0.929 . S
C658 H652 0.930 . S
C658 C659 1.367 . S
C658 C666 1.378 . S
C659 C658 1.367 . S
C659 C667 1.433 . S
C660 H656 0.929 . S
C660 C662 1.378 . S
C660 C664 1.350 . S
C661 C664 1.463 . S
C661 C666 1.350 . S
C661 N669 1.427 . S
C662 H653 0.930 . S
C662 C660 1.378 . S
C662 C663 1.367 . S
C663 C662 1.367 . S
C663 C665 1.433 . S
C664 C660 1.350 . S
C664 C661 1.463 . S
C664 N668 1.427 . S
C665 H655 0.929 . S
C665 C663 1.433 . S
C665 N668 1.384 . S
C666 H657 0.929 . S
C666 C658 1.378 . S
C666 C661 1.350 . S
C667 H654 0.929 . S
C667 C659 1.433 . S
C667 N669 1.384 . S
N668 C664 1.427 . S
N668 C665 1.384 . S
N669 C661 1.427 . S
N669 C667 1.384 . S
H670 C676 0.930 . S
H671 C680 0.930 . S
H672 C685 0.929 . S
H673 C683 0.929 . S
H674 C678 0.929 . S
H675 C684 0.929 . S
C676 H670 0.930 . S
C676 C677 1.367 . S
C676 C684 1.378 . S
C677 C676 1.367 . S
C677 C685 1.433 . S
C678 H674 0.929 . S
C678 C680 1.378 . S
C678 C682 1.350 . S
C679 C682 1.463 . S
C679 C684 1.350 . S
C679 N687 1.427 . S
C680 H671 0.930 . S
C680 C678 1.378 . S
C680 C681 1.367 . S
C681 C680 1.367 . S
C681 C683 1.433 . S
C682 C678 1.350 . S
C682 C679 1.463 . S
C682 N686 1.427 . S
C683 H673 0.929 . S
C683 C681 1.433 . S
C683 N686 1.384 . S
C684 H675 0.929 . S
C684 C676 1.378 . S
C684 C679 1.350 . S
C685 H672 0.929 . S
C685 C677 1.433 . S
C685 N687 1.384 . S
N686 C682 1.427 . S
N686 C683 1.384 . S
N687 C679 1.427 . S
N687 C685 1.384 . S
H688 C694 0.930 . S
H689 C698 0.930 . S
H690 C703 0.929 . S
H691 C701 0.929 . S
H692 C696 0.929 . S
H693 C702 0.929 . S
C694 H688 0.930 . S
C694 C695 1.367 . S
C694 C702 1.378 . S
C695 C694 1.367 . S
C695 C703 1.433 . S
C696 H692 0.929 . S
C696 C698 1.378 . S
C696 C700 1.350 . S
C697 C700 1.463 . S
C697 C702 1.350 . S
C697 N705 1.427 . S
C698 H689 0.930 . S
C698 C696 1.378 . S
C698 C699 1.367 . S
C699 C698 1.367 . S
C699 C701 1.433 . S
C700 C696 1.350 . S
C700 C697 1.463 . S
C700 N704 1.427 . S
C701 H691 0.929 . S
C701 C699 1.433 . S
C701 N704 1.384 . S
C702 H693 0.929 . S
C702 C694 1.378 . S
C702 C697 1.350 . S
C703 H690 0.929 . S
C703 C695 1.433 . S
C703 N705 1.384 . S
N704 C700 1.427 . S
N704 C701 1.384 . S
N705 C697 1.427 . S
N705 C703 1.384 . S
H706 C712 0.930 . S
H707 C716 0.930 . S
H708 C721 0.929 . S
H709 C719 0.929 . S
H710 C714 0.929 . S
H711 C720 0.929 . S
C712 H706 0.930 . S
C712 C713 1.367 . S
C712 C720 1.378 . S
C713 C712 1.367 . S
C713 C721 1.433 . S
C714 H710 0.929 . S
C714 C716 1.378 . S
C714 C718 1.350 . S
C715 C718 1.463 . S
C715 C720 1.350 . S
C715 N723 1.427 . S
C716 H707 0.930 . S
C716 C714 1.378 . S
C716 C717 1.367 . S
C717 C716 1.367 . S
C717 C719 1.433 . S
C718 C714 1.350 . S
C718 C715 1.463 . S
C718 N722 1.427 . S
C719 H709 0.929 . S
C719 C717 1.433 . S
C719 N722 1.384 . S
C720 H711 0.929 . S
C720 C712 1.378 . S
C720 C715 1.350 . S
C721 H708 0.929 . S
C721 C713 1.433 . S
C721 N723 1.384 . S
N722 C718 1.427 . S
N722 C719 1.384 . S
N723 C715 1.427 . S
N723 C721 1.384 . S
H724 C730 0.930 . S
H725 C734 0.930 . S
H726 C739 0.929 . S
H727 C737 0.929 . S
H728 C732 0.929 . S
H729 C738 0.929 . S
C730 H724 0.930 . S
C730 C731 1.367 . S
C730 C738 1.378 . S
C731 C730 1.367 . S
C731 C739 1.433 . S
C732 H728 0.929 . S
C732 C734 1.378 . S
C732 C736 1.350 . S
C733 C736 1.463 1_554 S
C733 C738 1.350 . S
C733 N741 1.427 . S
C734 H725 0.930 . S
C734 C732 1.378 . S
C734 C735 1.367 . S
C735 C734 1.367 . S
C735 C737 1.433 . S
C736 C732 1.350 . S
C736 C733 1.463 1_556 S
C736 N740 1.427 . S
C737 H727 0.929 . S
C737 C735 1.433 . S
C737 N740 1.384 . S
C738 H729 0.929 . S
C738 C730 1.378 . S
C738 C733 1.350 . S
C739 H726 0.929 . S
C739 C731 1.433 . S
C739 N741 1.384 . S
N740 C736 1.427 . S
N740 C737 1.384 . S
N741 C733 1.427 . S
N741 C739 1.384 . S
H742 C748 0.930 . S
H743 C752 0.930 . S
H744 C757 0.929 . S
H745 C755 0.929 . S
H746 C750 0.929 . S
H747 C756 0.929 . S
C748 H742 0.930 . S
C748 C749 1.367 . S
C748 C756 1.378 . S
C749 C748 1.367 . S
C749 C757 1.433 . S
C750 H746 0.929 . S
C750 C752 1.378 . S
C750 C754 1.350 . S
C751 C754 1.463 1_554 S
C751 C756 1.350 . S
C751 N759 1.427 . S
C752 H743 0.930 . S
C752 C750 1.378 . S
C752 C753 1.367 . S
C753 C752 1.367 . S
C753 C755 1.433 . S
C754 C750 1.350 . S
C754 C751 1.463 1_556 S
C754 N758 1.427 . S
C755 H745 0.929 . S
C755 C753 1.433 . S
C755 N758 1.384 . S
C756 H747 0.929 . S
C756 C748 1.378 . S
C756 C751 1.350 . S
C757 H744 0.929 . S
C757 C749 1.433 . S
C757 N759 1.384 . S
N758 C754 1.427 . S
N758 C755 1.384 . S
N759 C751 1.427 . S
N759 C757 1.384 . S
C479 C33 1.528 . S
C483 C151 1.528 . S
C497 C210 1.528 . S
C501 C92 1.528 . S
C515 C387 1.523 . S
C519 C269 1.523 . S
C533 C328 1.528 . S
C537 C446 1.528 . S
C551 C359 1.704 . S
C555 C5 1.704 . S
C569 C64 1.704 . S
C573 C418 1.704 . S
C587 C123 1.712 . S
C591 C241 1.712 . S
C605 C182 1.704 . S
C609 C300 1.704 . S
C623 C357 1.532 . S
C627 C3 1.532 . S
C641 C62 1.537 . S
C645 C416 1.537 . S
C659 C239 1.532 . S
C663 C121 1.532 . S
C677 C298 1.531 . S
C681 C180 1.531 . S
C695 C111 0.744 . S
C699 C52 0.734 . S
C713 C170 0.751 . S
C717 C229 0.741 . S
C731 C347 0.733 . S
C735 C288 0.746 . S
C749 C406 0.752 . S
C753 C465 0.735 . S
