# Generated by pormake.
# Topology snp, (6)-cn, num edge types: 1
# Building blocks:
#     Node 0, Type 0, BuildingBlock: UKALOJ_clean_sbu_0, # of connection points: 6
#     Node 1, Type 0, BuildingBlock: UKALOJ_clean_sbu_0, # of connection points: 6
#     Node 2, Type 0, BuildingBlock: UKALOJ_clean_sbu_0, # of connection points: 6
#     Node 3, Type 0, BuildingBlock: UKALOJ_clean_sbu_0, # of connection points: 6
#     Edge 4, Type (0, 0), BuildingBlock: MIFKUJ_clean_linker_0, # of connection points: 2
#     Edge 5, Type (0, 0), BuildingBlock: MIFKUJ_clean_linker_0, # of connection points: 2
#     Edge 6, Type (0, 0), BuildingBlock: MIFKUJ_clean_linker_0, # of connection points: 2
#     Edge 7, Type (0, 0), BuildingBlock: MIFKUJ_clean_linker_0, # of connection points: 2
#     Edge 8, Type (0, 0), BuildingBlock: MIFKUJ_clean_linker_0, # of connection points: 2
#     Edge 9, Type (0, 0), BuildingBlock: MIFKUJ_clean_linker_0, # of connection points: 2
#     Edge 10, Type (0, 0), BuildingBlock: MIFKUJ_clean_linker_0, # of connection points: 2
#     Edge 11, Type (0, 0), BuildingBlock: MIFKUJ_clean_linker_0, # of connection points: 2
#     Edge 12, Type (0, 0), BuildingBlock: MIFKUJ_clean_linker_0, # of connection points: 2
#     Edge 13, Type (0, 0), BuildingBlock: MIFKUJ_clean_linker_0, # of connection points: 2
#     Edge 14, Type (0, 0), BuildingBlock: MIFKUJ_clean_linker_0, # of connection points: 2
#     Edge 15, Type (0, 0), BuildingBlock: MIFKUJ_clean_linker_0, # of connection points: 2
# Relax obj value: 0.803
# Max RMSD: 0.249
# Mean RMSD: 0.247
data_MOF--net-snp--node1-UKALOJ_clean_sbu_0--edge1-MIFKUJ_clean_linker_0
_symmetry_space_group_name_H-M    P1
_symmetry_Int_Tables_number       1
_symmetry_cell_setting            triclinic
loop_
_symmetry_equiv_pos_as_xyz
'x, y, z'
_cell_length_a     40.784615
_cell_length_b     40.715072
_cell_length_c     29.474236
_cell_angle_alpha  97.52206
_cell_angle_beta   97.303563
_cell_angle_gamma 90.733965
loop_
_atom_site_label
_atom_site_type_symbol
_atom_site_fract_x
_atom_site_fract_y
_atom_site_fract_z
_atom_type_partial_charge
Zn0 Zn 0.267 0.0277 0.08331 0.0
O1 O 0.25857 0.99373 0.01871 0.0
C2 C 0.23068 0.08039 0.03457 0.0
Zn3 Zn 0.21236 0.02599 0.08264 0.0
C4 C 0.22917 0.98442 1.00061 0.0
O5 O 0.20461 0.99517 0.02009 0.0
C6 C 0.24686 0.06846 0.16583 0.0
O7 O 0.21873 0.98368 0.11454 0.0
O8 O 0.27297 0.98608 0.12291 0.0
N9 N 0.1634 0.02608 0.09043 0.0
C10 C 0.14955 0.02684 0.1298 0.0
C11 C 0.11133 0.03499 0.07648 0.0
N12 N 0.13965 0.03129 0.05736 0.0
N13 N 0.11709 0.03307 0.12213 0.0
C14 C 0.34111 0.01259 0.066 0.0
C15 C 0.36395 0.05969 0.09268 0.0
N16 N 0.31722 0.03247 0.08077 0.0
N17 N 0.33162 0.06166 0.09718 0.0
N18 N 0.3708 0.02919 0.0731 0.0
H19 H 0.31371 0.96637 0.06015 0.0
H20 H 0.35758 0.96239 0.05637 0.0
H21 H 0.33017 0.97447 0.00886 0.0
C22 C 0.33537 0.97677 0.04703 0.0
C23 C 0.16722 0.02023 0.17559 0.0
H24 H 0.15127 1.00446 0.19218 0.0
H25 H 0.17272 0.04401 0.19852 0.0
H26 H 0.19077 0.00786 0.17303 0.0
O27 O 0.21964 0.05651 0.14487 0.0
O28 O 0.27329 0.06159 0.14834 0.0
C29 C 0.24609 0.97199 0.1292 0.0
O30 O 0.25931 0.06877 0.04349 0.0
O31 O 0.20614 0.06748 0.04883 0.0
Zn32 Zn 0.01857 0.23777 0.5789 0.0
O33 O 0.05517 0.2237 0.53317 0.0
C34 C 0.96925 0.21096 0.50231 0.0
Zn35 Zn 0.01073 0.18352 0.58121 0.0
C36 C 0.06124 0.19339 0.52052 0.0
O37 O 0.04582 0.17062 0.53574 0.0
C38 C 0.96917 0.2264 0.64035 0.0
O39 O 0.04579 0.17898 0.6366 0.0
O40 O 0.05494 0.23278 0.63899 0.0
N41 N 0.99344 0.13535 0.57579 0.0
C42 C 0.96132 0.12512 0.57031 0.0
C43 C 0.98855 0.08449 0.54415 0.0
N44 N 0.01042 0.10979 0.56014 0.0
N45 N 0.95744 0.09361 0.54962 0.0
C46 C 0.03055 0.31084 0.55532 0.0
C47 C 0.04858 0.33521 0.62242 0.0
N48 N 0.0317 0.28772 0.58452 0.0
N49 N 0.04297 0.30308 0.62608 0.0
N50 N 0.0409 0.34102 0.57841 0.0
H51 H 0.02792 0.27753 0.49197 0.0
H52 H 0.03368 0.32086 0.4859 0.0
H53 H 0.99403 0.30515 0.49593 0.0
C54 C 0.02118 0.30319 0.50421 0.0
C55 C 0.93326 0.14557 0.58546 0.0
H56 H 0.93761 0.15227 0.62339 0.0
H57 H 0.90929 0.13156 0.57764 0.0
H58 H 0.93133 0.16843 0.56876 0.0
O59 O 0.97753 0.19736 0.627 0.0
O60 O 0.98209 0.25075 0.62539 0.0
C61 C 0.06125 0.20557 0.65512 0.0
O62 O 0.98211 0.23962 0.51776 0.0
O63 O 0.97661 0.18706 0.52461 0.0
Zn64 Zn 0.86262 0.9853 0.00588 0.0
O65 O 0.86139 0.94724 0.95075 0.0
C66 C 0.85239 0.0351 0.94376 0.0
Zn67 Zn 0.80815 0.99041 0.98863 0.0
C68 C 0.83577 0.93946 0.92205 0.0
O69 O 0.80878 0.95385 0.92807 0.0
C70 C 0.83752 0.03787 0.07123 0.0
O71 O 0.79605 0.95192 0.02944 0.0
O72 O 0.84946 0.95333 0.04947 0.0
N73 N 0.75815 0.99753 0.97015 0.0
C74 C 0.73248 1.00118 0.99518 0.0
C75 C 0.71247 0.99828 0.9244 0.0
N76 N 0.74555 0.99589 0.92623 0.0
N77 N 0.70344 1.0017 0.9672 0.0
C78 C 0.92096 0.94654 0.04503 0.0
C79 C 0.95605 0.98482 0.07409 0.0
N80 N 0.91057 0.97461 0.02834 0.0
N81 N 0.93287 0.99826 0.04583 0.0
N82 N 0.94893 0.95242 0.07467 0.0
H83 H 0.88618 0.91091 1.00188 0.0
H84 H 0.89077 0.90744 0.06259 0.0
H85 H 0.92274 0.89372 0.02949 0.0
C86 C 0.90392 0.91296 0.03369 0.0
C87 C 0.73577 1.00248 0.04667 0.0
H88 H 0.75954 0.99285 0.06077 0.0
H89 H 0.71518 0.98816 0.05682 0.0
H90 H 0.73474 0.02865 0.0625 0.0
O91 O 0.80966 0.02774 0.04874 0.0
O92 O 0.86377 0.02443 0.06 0.0
C93 C 0.82122 0.94217 0.05351 0.0
O94 O 0.87561 0.01929 0.96345 0.0
O95 O 0.82233 0.02844 0.94845 0.0
Zn96 Zn 0.05644 0.83882 0.49562 0.0
O97 O 0.09394 0.83464 0.45461 0.0
C98 C 0.00475 0.81293 0.41611 0.0
Zn99 Zn 0.05055 0.78361 0.48654 0.0
C100 C 0.10315 0.80745 0.43509 0.0
O101 O 0.08899 0.78045 0.44071 0.0
C102 C 1.00462 0.81747 0.54887 0.0
O103 O 0.08805 0.78509 0.54725 0.0
O104 O 0.09192 0.83954 0.55219 0.0
N105 N 0.04594 0.73229 0.47773 0.0
C106 C 0.04746 0.70857 0.50607 0.0
C107 C 0.03617 0.68419 0.43724 0.0
N108 N 0.03899 0.71689 0.43508 0.0
N109 N 0.04141 0.67807 0.48137 0.0
C110 C 0.05463 0.9072 0.46337 0.0
C111 C 0.04886 0.93905 0.52447 0.0
N112 N 0.05983 0.88915 0.49871 0.0
N113 N 0.05727 0.9093 0.53698 0.0
N114 N 0.04644 0.93835 0.47817 0.0
H115 H 0.06691 0.91069 0.39558 0.0
H116 H 0.0268 0.89308 0.39713 0.0
H117 H 0.063 0.86885 0.40724 0.0
C118 C 0.05291 0.89376 0.41321 0.0
C119 C 0.05302 0.71566 0.55763 0.0
H120 H 0.04484 0.74084 0.56947 0.0
H121 H 0.07985 0.7145 0.56957 0.0
H122 H 0.03963 0.69701 0.57324 0.0
O123 O 0.0127 0.78861 0.53223 0.0
O124 O 0.01904 0.84284 0.53862 0.0
C125 C 0.10087 0.81289 0.56742 0.0
O126 O 0.01979 0.83822 0.43928 0.0
O127 O 0.01256 0.78446 0.42679 0.0
H128 H 0.90899 0.93657 0.1355 0.0
H129 H 0.92768 0.93199 0.21584 0.0
H130 H 0.02858 0.92905 0.18519 0.0
H131 H 0.00949 0.93296 0.10512 0.0
H132 H 0.95077 0.98713 0.24922 0.0
H133 H 0.99501 0.90179 0.30627 0.0
H134 H 0.01715 0.84708 0.31769 0.0
H135 H 0.10771 0.87358 0.27037 0.0
H136 H 0.08553 0.92731 0.25514 0.0
H137 H 0.12227 0.06239 0.21188 0.0
H138 H 0.08702 0.04904 0.26895 0.0
H139 H 0.01963 0.99479 0.15927 0.0
H140 H 0.05631 1.00498 0.10334 0.0
H141 H 0.0716 0.97881 0.27947 0.0
H142 H 0.94505 0.00711 0.17753 0.0
H143 H 0.92482 0.05062 0.13236 0.0
H144 H 0.99548 0.1205 0.21407 0.0
H145 H 0.01717 0.07686 0.25891 0.0
C146 C 0.93496 0.93259 0.14537 0.0
C147 C 0.95809 0.93602 0.1145 0.0
C148 C 0.94571 0.92992 0.19166 0.0
C149 C 0.97971 0.93249 0.20789 0.0
C150 C 1.00214 0.92832 0.17481 0.0
C151 C 0.99139 0.93088 0.12856 0.0
C152 C 0.99097 0.95344 0.25294 0.0
C153 C 0.97736 0.98512 0.25533 0.0
C154 C 0.02453 0.95192 0.27168 0.0
C155 C 0.03871 0.91942 0.28068 0.0
C156 C 0.01963 0.89608 0.29809 0.0
C157 C 0.03211 0.86501 0.3049 0.0
C158 C 0.06395 0.85707 0.29549 0.0
C159 C 0.08318 0.87994 0.27827 0.0
C160 C 0.07059 0.91077 0.27043 0.0
C161 C 0.10023 0.04707 0.20022 0.0
C162 C 0.09292 0.03293 0.15362 0.0
C163 C 0.07993 0.04 0.23275 0.0
C164 C 0.05117 0.02038 0.21838 0.0
C165 C 0.04205 0.00956 0.17112 0.0
C166 C 0.0628 0.01562 0.13905 0.0
C167 C 0.03187 0.00737 0.25155 0.0
C168 C 0.04504 0.98013 0.27171 0.0
C169 C 0.9973 0.01147 0.24699 0.0
C170 C 0.98211 0.03877 0.2231 0.0
C171 C 0.95582 0.03188 0.187 0.0
C172 C 0.94432 0.05656 0.16084 0.0
C173 C 0.95854 0.0885 0.17063 0.0
C174 C 0.98428 0.09582 0.20671 0.0
C175 C 0.99627 0.07105 0.23247 0.0
H176 H 0.94999 0.10744 0.14982 0.0
H177 H 0.07357 0.83309 0.30112 0.0
H178 H 0.05197 0.96929 0.40285 0.0
H179 H 0.00589 0.99049 0.35334 0.0
H180 H 0.93831 0.96245 0.44425 0.0
H181 H 0.98348 0.94185 0.49239 0.0
H182 H 0.9066 0.95332 0.36092 0.0
H183 H 0.98432 0.03965 0.45145 0.0
H184 H 0.03497 0.07522 0.4693 0.0
H185 H 0.01959 0.10381 0.33355 0.0
H186 H 0.96898 0.06787 0.31466 0.0
H187 H 0.91351 0.12462 0.49382 0.0
H188 H 0.87718 0.09775 0.42782 0.0
H189 H 0.9013 1.0026 0.47079 0.0
H190 H 0.9368 0.02971 0.53771 0.0
H191 H 0.91621 0.07459 0.37633 0.0
H192 H 0.82176 0.02643 0.38741 0.0
H193 H 0.77255 1.00168 0.41093 0.0
H194 H 0.82436 0.91241 0.42939 0.0
H195 H 0.87414 0.93637 0.40732 0.0
C196 C 0.02715 0.96816 0.41204 0.0
C197 C 0.02127 0.95515 0.45227 0.0
C198 C 1.00081 0.97949 0.38325 0.0
C199 C 0.96835 0.97789 0.39445 0.0
C200 C 0.96281 0.964 0.43415 0.0
C201 C 0.98883 0.95299 0.46263 0.0
C202 C 0.94054 0.99523 0.37106 0.0
C203 C 0.90869 0.9801 0.36635 0.0
C204 C 0.94262 0.02997 0.37049 0.0
C205 C 0.97412 0.0496 0.38059 0.0
C206 C 0.99231 0.05278 0.42492 0.0
C207 C 0.02081 0.07318 0.43536 0.0
C208 C 0.0308 0.09128 0.40218 0.0
C209 C 0.01218 0.08918 0.3587 0.0
C210 C 0.98379 0.0686 0.34796 0.0
C211 C 0.9094 0.09808 0.49095 0.0
C212 C 0.9285 0.07906 0.52057 0.0
C213 C 0.88829 0.08265 0.45297 0.0
C214 C 0.88796 0.04802 0.44216 0.0
C215 C 0.90195 0.02938 0.47663 0.0
C216 C 0.92274 0.04478 0.51498 0.0
C217 C 0.88838 0.03361 0.39297 0.0
C218 C 0.91374 0.04783 0.37316 0.0
C219 C 0.88223 0.99911 0.38091 0.0
C220 C 0.85201 0.98327 0.39384 0.0
C221 C 0.82288 1.0014 0.39605 0.0
C222 C 0.79476 0.98751 0.40958 0.0
C223 C 0.79523 0.95539 0.42129 0.0
C224 C 0.82392 0.93719 0.41982 0.0
C225 C 0.85218 0.95097 0.40648 0.0
H226 H 0.77342 0.94466 0.4317 0.0
H227 H 0.05272 0.10726 0.4103 0.0
H228 H 0.65085 0.96718 0.91808 0.0
H229 H 0.59353 0.96749 0.93489 0.0
H230 H 0.62187 0.03767 0.05678 0.0
H231 H 0.6789 0.03835 0.03918 0.0
H232 H 0.58127 0.98505 0.07263 0.0
H233 H 0.58242 0.06384 0.96408 0.0
H234 H 0.59233 0.08252 0.89059 0.0
H235 H 0.52459 0.00685 0.81581 0.0
H236 H 0.51463 0.98741 0.88887 0.0
H237 H 0.42829 0.04716 0.12615 0.0
H238 H 0.48403 0.03711 0.10698 0.0
H239 H 0.44354 0.97909 0.97853 0.0
H240 H 0.38739 0.99039 0.99701 0.0
H241 H 0.48979 0.02013 0.9634 0.0
H242 H 0.48531 0.94298 0.07041 0.0
H243 H 0.47525 0.92279 0.14286 0.0
H244 H 0.54878 0.99215 0.21922 0.0
H245 H 0.55896 0.01311 0.14729 0.0
C246 C 0.64484 0.98273 0.94842 0.0
C247 C 0.66974 1.00208 0.97789 0.0
C248 C 0.61207 0.98286 0.95802 0.0
C249 C 0.60335 1.0025 0.99724 0.0
C250 C 0.62807 0.02199 0.02664 0.0
C251 C 0.66082 0.02209 0.0168 0.0
C252 C 0.56842 1.00295 0.00737 0.0
C253 C 0.56129 0.99305 0.04901 0.0
C254 C 0.54214 0.01225 0.97583 0.0
C255 C 0.54807 0.02394 0.9319 0.0
C256 C 0.56987 0.05099 0.93193 0.0
C257 C 0.57545 0.06176 0.89036 0.0
C258 C 0.55918 0.04582 0.84854 0.0
C259 C 0.53722 0.01914 0.84822 0.0
C260 C 0.53158 0.00825 0.8897 0.0
C261 C 0.43127 0.03185 0.0941 0.0
C262 C 0.40336 0.01907 0.06356 0.0
C263 C 0.46322 0.02593 0.08325 0.0
C264 C 0.46825 0.00684 0.04158 0.0
C265 C 0.44041 0.99364 0.0111 0.0
C266 C 0.40827 0.99969 0.02197 0.0
C267 C 0.5025 1.00257 0.02907 0.0
C268 C 0.5096 0.01179 0.98696 0.0
C269 C 0.52872 0.99233 0.06003 0.0
C270 C 0.52271 0.9798 0.10344 0.0
C271 C 0.49916 0.95411 0.10268 0.0
C272 C 0.49347 0.9425 0.14366 0.0
C273 C 0.51132 0.95623 0.18563 0.0
C274 C 0.53495 0.98156 0.18669 0.0
C275 C 0.54073 0.99328 0.14581 0.0
H276 H 0.50687 0.9472 0.21731 0.0
H277 H 0.56353 0.0542 0.81639 0.0
H278 H 0.08762 0.38878 0.60892 0.0
H279 H 0.08767 0.44605 0.59214 0.0
H280 H 0.99736 0.42488 0.49888 0.0
H281 H 0.99704 0.36753 0.51615 0.0
H282 H 0.04112 0.46415 0.46402 0.0
H283 H 0.99504 0.46445 0.60593 0.0
H284 H 0.99358 0.45268 0.68562 0.0
H285 H 0.08238 0.51203 0.7309 0.0
H286 H 0.08464 0.52376 0.6513 0.0
H287 H 0.99671 0.62925 0.44673 0.0
H288 H 0.99671 0.572 0.46347 0.0
H289 H 0.0836 0.59486 0.56313 0.0
H290 H 0.08338 0.65247 0.54654 0.0
H291 H 0.04194 0.55453 0.59472 0.0
H292 H 0.08848 0.55435 0.45363 0.0
H293 H 0.09081 0.56593 0.37404 0.0
H294 H 1.00243 0.50622 0.32721 0.0
H295 H 0.99932 0.49466 0.40669 0.0
C296 C 0.06798 0.39623 0.5844 0.0
C297 C 0.04262 0.37337 0.56338 0.0
C298 C 0.06793 0.42904 0.57499 0.0
C299 C 0.04231 0.44002 0.54463 0.0
C300 C 0.01746 0.41703 0.52234 0.0
C301 C 0.01747 0.38409 0.53186 0.0
C302 C 0.04108 0.47567 0.53735 0.0
C303 C 0.04082 0.48387 0.49252 0.0
C304 C 0.04157 0.5016 0.57463 0.0
C305 C 0.04018 0.49472 0.62256 0.0
C306 C 0.0144 0.47478 0.63281 0.0
C307 C 0.01341 0.46815 0.67797 0.0
C308 C 0.03792 0.48153 0.71328 0.0
C309 C 0.06344 0.50164 0.70351 0.0
C310 C 0.06457 0.50831 0.65838 0.0
C311 C 0.0156 0.62213 0.47259 0.0
C312 C 0.03983 0.64549 0.49562 0.0
C313 C 0.01573 0.58932 0.48194 0.0
C314 C 0.04051 0.57876 0.514 0.0
C315 C 0.0642 0.60229 0.53822 0.0
C316 C 0.06394 0.63532 0.52901 0.0
C317 C 0.04194 0.54308 0.52132 0.0
C318 C 0.04225 0.53484 0.56618 0.0
C319 C 0.04163 0.51711 0.48407 0.0
C320 C 0.0435 0.5239 0.4362 0.0
C321 C 0.06941 0.54389 0.42642 0.0
C322 C 0.07089 0.55042 0.38132 0.0
C323 C 0.04674 0.53689 0.34561 0.0
C324 C 0.0211 0.51672 0.35492 0.0
C325 C 0.01948 0.51015 0.39998 0.0
H326 H 0.04793 0.54197 0.31071 0.0
H327 H 0.03711 0.47637 0.74823 0.0
H328 H 0.08915 0.23303 0.46616 0.0
H329 H 0.12756 0.21684 0.41004 0.0
H330 H 0.12653 0.11714 0.44442 0.0
H331 H 0.08819 0.133 0.50021 0.0
H332 H 0.18975 0.1404 0.43873 0.0
H333 H 0.08151 0.13572 0.34935 0.0
H334 H 0.02832 0.15878 0.32034 0.0
H335 H 0.07984 0.23099 0.25998 0.0
H336 H 0.13334 0.2092 0.28975 0.0
H337 H 0.24639 0.04476 0.24666 0.0
H338 H 0.222 0.07188 0.3127 0.0
H339 H 0.21582 0.16249 0.25128 0.0
H340 H 0.23954 0.1348 0.18443 0.0
H341 H 0.15878 0.14872 0.27251 0.0
H342 H 0.26662 0.15386 0.35882 0.0
H343 H 0.32045 0.13252 0.38811 0.0
H344 H 0.27116 0.06136 0.45345 0.0
H345 H 0.21701 0.08203 0.42411 0.0
C346 C 0.09726 0.20771 0.46195 0.0
C347 C 0.08553 0.18433 0.4877 0.0
C348 C 0.11911 0.19845 0.42971 0.0
C349 C 0.12983 0.1657 0.42279 0.0
C350 C 0.1187 0.14255 0.44917 0.0
C351 C 0.09665 0.15167 0.481 0.0
C352 C 0.15231 0.15524 0.38776 0.0
C353 C 0.18293 0.14204 0.40232 0.0
C354 C 0.1438 0.15814 0.34037 0.0
C355 C 0.11151 0.17108 0.32233 0.0
C356 C 0.08154 0.15675 0.33034 0.0
C357 C 0.05134 0.16952 0.31369 0.0
C358 C 0.05074 0.19624 0.28837 0.0
C359 C 0.08034 0.21031 0.27967 0.0
C360 C 0.11061 0.19782 0.29649 0.0
C361 C 0.24154 0.07098 0.24855 0.0
C362 C 0.24597 0.08805 0.21127 0.0
C363 C 0.22718 0.08645 0.28614 0.0
C364 C 0.217 0.1194 0.2874 0.0
C365 C 0.22342 0.1371 0.25138 0.0
C366 C 0.2376 0.12151 0.21355 0.0
C367 C 0.1965 0.13388 0.32335 0.0
C368 C 0.16602 0.14757 0.30896 0.0
C369 C 0.20524 0.13168 0.37095 0.0
C370 C 0.23776 0.1194 0.38907 0.0
C371 C 0.26726 0.13355 0.37925 0.0
C372 C 0.29783 0.12159 0.39588 0.0
C373 C 0.29922 0.09558 0.42257 0.0
C374 C 0.27005 0.08152 0.43279 0.0
C375 C 0.23941 0.0934 0.41625 0.0
H376 H 0.32291 0.08634 0.43539 0.0
H377 H 0.02733 0.206 0.27544 0.0
H378 H 0.98789 0.24709 0.73088 0.0
H379 H 0.96212 0.22632 0.79261 0.0
H380 H 0.87857 0.18839 0.69423 0.0
H381 H 0.90419 0.20948 0.63272 0.0
H382 H 0.86256 0.20591 0.7873 0.0
H383 H 0.94083 0.13921 0.70372 0.0
H384 H 0.99482 0.13321 0.67436 0.0
H385 H 0.04487 0.15642 0.81233 0.0
H386 H 0.9911 0.16282 0.84238 0.0
H387 H 0.81391 0.05926 0.87273 0.0
H388 H 0.82944 0.10187 0.82723 0.0
H389 H 0.92475 0.11503 0.9109 0.0
H390 H 0.90999 0.0713 0.95438 0.0
H391 H 0.93516 0.11484 0.82968 0.0
H392 H 0.85767 0.17322 0.91651 0.0
H393 H 0.80468 0.18307 0.94731 0.0
H394 H 0.75439 0.18012 0.80963 0.0
H395 H 0.80702 0.16981 0.77795 0.0
C396 C 0.96304 0.23634 0.72307 0.0
C397 C 0.94785 0.23012 0.67719 0.0
C398 C 0.94851 0.22403 0.75825 0.0
C399 C 0.91871 0.2052 0.74783 0.0
C400 C 0.90153 0.20281 0.7031 0.0
C401 C 0.91609 0.21509 0.66797 0.0
C402 C 0.90903 0.18275 0.78016 0.0
C403 C 0.87829 0.18593 0.79666 0.0
C404 C 0.9298 0.15698 0.79285 0.0
C405 C 0.96204 0.15168 0.77518 0.0
C406 C 0.96339 0.14307 0.7277 0.0
C407 C 0.99391 0.13962 0.71096 0.0
C408 C 0.02325 0.14449 0.74145 0.0
C409 C 0.02211 0.15264 0.78877 0.0
C410 C 0.99163 0.15612 0.80569 0.0
C411 C 0.83811 0.07137 0.8814 0.0
C412 C 0.86076 0.0618 0.91699 0.0
C413 C 0.84693 0.09598 0.85562 0.0
C414 C 0.87821 0.11228 0.86584 0.0
C415 C 0.90055 0.10295 0.90196 0.0
C416 C 0.89206 0.07788 0.92691 0.0
C417 C 0.88846 0.13785 0.83779 0.0
C418 C 0.91938 0.13504 0.82142 0.0
C419 C 0.86795 0.1642 0.82594 0.0
C420 C 0.83626 0.17045 0.84485 0.0
C421 C 0.83527 0.17444 0.89278 0.0
C422 C 0.80531 0.18014 0.9104 0.0
C423 C 0.77618 0.18214 0.88044 0.0
C424 C 0.77697 0.17852 0.8328 0.0
C425 C 0.80687 0.17279 0.81499 0.0
H426 H 0.753 0.18655 0.89415 0.0
H427 H 0.04685 0.14188 0.72841 0.0
H428 H 0.97645 0.76811 0.3419 0.0
H429 H 0.9349 0.77971 0.27815 0.0
H430 H 0.93285 0.88141 0.34085 0.0
H431 H 0.9727 0.86979 0.40469 0.0
H432 H 0.87184 0.85881 0.31088 0.0
H433 H 0.97274 0.86668 0.22508 0.0
H434 H 0.02415 0.84327 0.19995 0.0
H435 H 0.97405 0.74872 0.15728 0.0
H436 H 0.92231 0.77212 0.18131 0.0
H437 H 0.82745 0.96291 0.14398 0.0
H438 H 0.84927 0.93059 0.20411 0.0
H439 H 0.83792 0.84157 0.10577 0.0
H440 H 0.81748 0.8747 0.04459 0.0
H441 H 0.89794 0.84607 0.14977 0.0
H442 H 0.79213 0.84922 0.20612 0.0
H443 H 0.7413 0.87769 0.22386 0.0
H444 H 0.79919 0.95118 0.31944 0.0
H445 H 0.85034 0.92256 0.3036 0.0
C446 C 0.96688 0.79281 0.34212 0.0
C447 C 0.97828 0.81804 0.37818 0.0
C448 C 0.94343 0.79957 0.30538 0.0
C449 C 0.93105 0.83165 0.30408 0.0
C450 C 0.94191 0.85649 0.34073 0.0
C451 C 0.96501 0.84978 0.37723 0.0
C452 C 0.90669 0.84004 0.26526 0.0
C453 C 0.87746 0.85569 0.27559 0.0
C454 C 0.91322 0.83546 0.21886 0.0
C455 C 0.94414 0.82097 0.20564 0.0
C456 C 0.97296 0.84092 0.21062 0.0
C457 C 1.00203 0.8277 0.19641 0.0
C458 C 1.00247 0.79442 0.17747 0.0
C459 C 0.97373 0.77444 0.1722 0.0
C460 C 0.94452 0.78772 0.18589 0.0
C461 C 0.8278 0.93617 0.13575 0.0
C462 C 0.81956 0.9211 0.09003 0.0
C463 C 0.84051 0.91762 0.17021 0.0
C464 C 0.84476 0.88336 0.16 0.0
C465 C 0.83461 0.86787 0.11474 0.0
C466 C 0.82224 0.88664 0.07995 0.0
C467 C 0.86323 0.865 0.19542 0.0
C468 C 0.89154 0.84792 0.18462 0.0
C469 C 0.85559 0.86783 0.24126 0.0
C470 C 0.82494 0.88366 0.25388 0.0
C471 C 0.79394 0.87121 0.23145 0.0
C472 C 0.76511 0.88731 0.24131 0.0
C473 C 0.76703 0.91605 0.27322 0.0
C474 C 0.79777 0.92858 0.29558 0.0
C475 C 0.82665 0.91227 0.28649 0.0
H476 H 0.74474 0.92874 0.28043 0.0
H477 H 0.02502 0.78416 0.16664 0.0
H478 H 0.15744 0.84998 0.5877 0.0
H479 H 0.1864 0.86884 0.66467 0.0
H480 H 0.12318 0.80452 0.72303 0.0
H481 H 0.09443 0.78505 0.64541 0.0
H482 H 0.12088 0.87177 0.75764 0.0
H483 H 0.20363 0.79158 0.73429 0.0
H484 H 0.24509 0.76119 0.6927 0.0
H485 H 0.30137 0.85167 0.69722 0.0
H486 H 0.26 0.88272 0.73827 0.0
H487 H 0.18401 0.93394 0.98453 0.0
H488 H 0.16869 0.89611 0.91355 0.0
H489 H 0.24262 0.94319 0.84908 0.0
H490 H 0.25936 0.98008 0.92171 0.0
H491 H 0.24013 0.88022 0.8191 0.0
H492 H 0.15664 0.96147 0.83271 0.0
H493 H 0.11447 0.99463 0.8692 0.0
H494 H 0.05888 0.90577 0.87719 0.0
H495 H 0.10092 0.87205 0.84121 0.0
C496 C 0.15067 0.83883 0.61676 0.0
C497 C 0.12392 0.81588 0.61069 0.0
C498 C 0.1672 0.84967 0.66076 0.0
C499 C 0.15697 0.83816 0.69968 0.0
C500 C 0.13158 0.81361 0.69342 0.0
C501 C 0.11538 0.80226 0.64911 0.0
C502 C 0.16948 0.85535 0.74652 0.0
C503 C 0.14686 0.87298 0.77164 0.0
C504 C 0.20356 0.85813 0.76373 0.0
C505 C 0.22854 0.83953 0.73908 0.0
C506 C 0.22469 0.80506 0.72608 0.0
C507 C 0.24822 0.7877 0.70267 0.0
C508 C 0.27581 0.8045 0.69224 0.0
C509 C 0.27998 0.83869 0.7053 0.0
C510 C 0.25651 0.85618 0.7287 0.0
C511 C 0.19724 0.936 0.95534 0.0
C512 C 0.22269 0.96007 0.95841 0.0
C513 C 0.18831 0.91449 0.9146 0.0
C514 C 0.20373 0.91732 0.87526 0.0
C515 C 0.23014 0.94057 0.87879 0.0
C516 C 0.23972 0.96165 0.92021 0.0
C517 C 0.19146 0.89669 0.83041 0.0
C518 C 0.21409 0.87869 0.80547 0.0
C519 C 0.15734 0.894 0.81276 0.0
C520 C 0.13215 0.91422 0.83476 0.0
C521 C 0.13559 0.949 0.84264 0.0
C522 C 0.11169 0.96789 0.86317 0.0
C523 C 0.08411 0.9523 0.8757 0.0
C524 C 0.08031 0.91779 0.86759 0.0
C525 C 0.10415 0.89879 0.84709 0.0
H526 H 0.06563 0.96698 0.89156 0.0
H527 H 0.294 0.79101 0.67412 0.0
H528 H 0.86372 0.87929 0.91612 0.0
H529 H 0.88379 0.8493 0.8481 0.0
H530 H 0.84082 0.92173 0.76541 0.0
H531 H 0.81887 0.95044 0.83307 0.0
H532 H 0.84014 0.86686 0.71231 0.0
H533 H 0.92389 0.9269 0.81992 0.0
H534 H 0.95773 0.9441 0.89496 0.0
H535 H 0.9929 0.84523 0.89624 0.0
H536 H 0.95878 0.82728 0.82153 0.0
H537 H 0.96547 0.8704 0.56247 0.0
H538 H 0.92853 0.88196 0.6214 0.0
H539 H 0.95125 0.78822 0.66926 0.0
H540 H 0.98788 0.77605 0.6093 0.0
H541 H 0.96071 0.8484 0.73859 0.0
H542 H 0.87818 0.79346 0.62003 0.0
H543 H 0.84764 0.78421 0.54148 0.0
H544 H 0.81452 0.88425 0.55738 0.0
H545 H 0.84522 0.89424 0.63584 0.0
C546 C 0.85751 0.888 0.88298 0.0
C547 C 0.83962 0.917 0.87966 0.0
C548 C 0.86937 0.87114 0.8442 0.0
C549 C 0.86491 0.88382 0.80175 0.0
C550 C 0.84486 0.91146 0.79769 0.0
C551 C 0.83214 0.92781 0.83631 0.0
C552 C 0.88342 0.87016 0.76314 0.0
C553 C 0.86651 0.86297 0.71819 0.0
C554 C 0.91799 0.86499 0.77036 0.0
C555 C 0.93845 0.87565 0.8154 0.0
C556 C 0.93862 0.90875 0.83639 0.0
C557 C 0.95787 0.91865 0.87884 0.0
C558 C 0.97738 0.89575 0.90042 0.0
C559 C 0.97771 0.86292 0.87954 0.0
C560 C 0.95841 0.85286 0.83715 0.0
C561 C 0.96222 0.85197 0.58505 0.0
C562 C 0.97958 0.8223 0.58128 0.0
C563 C 0.94102 0.8586 0.61862 0.0
C564 C 0.93707 0.83594 0.64962 0.0
C565 C 0.95387 0.80596 0.64549 0.0
C566 C 0.97464 0.79898 0.61117 0.0
C567 C 0.91735 0.84496 0.68826 0.0
C568 C 0.9342 0.85166 0.73311 0.0
C569 C 0.88308 0.85077 0.68063 0.0
C570 C 0.86419 0.84465 0.63373 0.0
C571 C 0.86457 0.81355 0.60668 0.0
C572 C 0.84718 0.80816 0.56219 0.0
C573 C 0.82919 0.83364 0.54442 0.0
C574 C 0.82846 0.86453 0.57118 0.0
C575 C 0.8458 0.87005 0.6157 0.0
H576 H 0.81579 0.82943 0.50995 0.0
H577 H 0.9923 0.90347 0.93326 0.0
H578 H 0.19847 0.92395 0.11707 0.0
H579 H 0.18752 0.88595 0.1711 0.0
H580 H 0.27874 0.91829 0.25678 0.0
H581 H 0.28985 0.9571 0.20256 0.0
H582 H 0.23825 0.8347 0.22715 0.0
H583 H 0.24603 0.95135 0.31598 0.0
H584 H 0.23395 0.0108 0.31868 0.0
H585 H 0.13226 0.986 0.26646 0.0
H586 H 0.14421 0.92642 0.26232 0.0
H587 H 0.16106 0.84087 0.46013 0.0
H588 H 0.19848 0.85835 0.40896 0.0
H589 H 0.14221 0.79797 0.2933 0.0
H590 H 0.10465 0.78 0.3451 0.0
H591 H 0.17317 0.89416 0.34174 0.0
H592 H 0.19642 0.78301 0.20773 0.0
H593 H 0.20433 0.72276 0.20361 0.0
H594 H 0.24173 0.73467 0.34789 0.0
H595 H 0.23449 0.79499 0.35273 0.0
C596 C 0.21675 0.92238 0.14674 0.0
C597 C 0.24495 0.94367 0.15578 0.0
C598 C 0.21046 0.90054 0.17747 0.0
C599 C 0.2322 0.89946 0.21793 0.0
C600 C 0.26172 0.91877 0.22554 0.0
C601 C 0.26813 0.94078 0.19451 0.0
C602 C 0.22103 0.88205 0.25457 0.0
C603 C 0.22446 0.84764 0.2528 0.0
C604 C 0.2026 0.89887 0.28736 0.0
C605 C 0.19597 0.9346 0.28858 0.0
C606 C 0.22122 0.95865 0.30456 0.0
C607 C 0.21441 0.99235 0.30637 0.0
C608 C 0.18234 1.0022 0.2927 0.0
C609 C 0.15707 0.97837 0.27709 0.0
C610 C 0.16386 0.94469 0.27486 0.0
C611 C 0.15744 0.83029 0.42407 0.0
C612 C 0.13016 0.80895 0.40652 0.0
C613 C 0.17872 0.84045 0.39483 0.0
C614 C 0.1731 0.82965 0.34727 0.0
C615 C 0.14726 0.80632 0.32999 0.0
C616 C 0.12592 0.79591 0.35956 0.0
C617 C 0.19113 0.84668 0.31577 0.0
C618 C 0.188 0.8811 0.31749 0.0
C619 C 0.20986 0.82971 0.28328 0.0
C620 C 0.2146 0.7935 0.28064 0.0
C621 C 0.20645 0.77278 0.23853 0.0
C622 C 0.2108 0.73861 0.23608 0.0
C623 C 0.22343 0.72489 0.27549 0.0
C624 C 0.23182 0.74531 0.31742 0.0
C625 C 0.22754 0.77949 0.32006 0.0
H626 H 0.22677 0.69843 0.27353 0.0
H627 H 0.177 0.02825 0.29418 0.0
H628 H 0.05585 0.22507 0.74539 0.0
H629 H 0.09368 0.2125 0.81206 0.0
H630 H 0.16059 0.16881 0.72038 0.0
H631 H 0.12193 0.18012 0.65387 0.0
H632 H 0.15214 0.12892 0.77798 0.0
H633 H 0.17876 0.24464 0.79532 0.0
H634 H 0.16803 0.30442 0.80136 0.0
H635 H 0.12244 0.29883 0.92378 0.0
H636 H 0.13249 0.2389 0.91813 0.0
H637 H 0.26563 0.09322 0.9651 0.0
H638 H 0.24657 0.12502 0.90201 0.0
H639 H 0.16196 0.15548 0.9694 0.0
H640 H 0.18068 0.12372 0.03209 0.0
H641 H 0.18679 0.20503 0.92237 0.0
H642 H 0.1555 0.08759 0.89773 0.0
H643 H 0.16899 0.02845 0.89312 0.0
H644 H 0.22589 0.03851 0.7825 0.0
H645 H 0.21349 0.09796 0.78733 0.0
C646 C 0.07913 0.21367 0.73982 0.0
C647 C 0.08651 0.20409 0.69491 0.0
C648 C 0.10076 0.20646 0.77783 0.0
C649 C 0.13036 0.19006 0.77146 0.0
C650 C 0.13805 0.18152 0.72633 0.0
C651 C 0.11616 0.18822 0.6884 0.0
C652 C 0.15185 0.17936 0.81136 0.0
C653 C 0.16029 0.14585 0.80907 0.0
C654 C 0.16217 0.20114 0.85245 0.0
C655 C 0.15617 0.23721 0.85609 0.0
C656 C 0.16624 0.25611 0.82335 0.0
C657 C 0.16031 0.29003 0.82673 0.0
C658 C 0.14451 0.3054 0.86288 0.0
C659 C 0.13467 0.28688 0.89578 0.0
C660 C 0.14051 0.25295 0.89254 0.0
C661 C 0.2436 0.10762 0.96718 0.0
C662 C 0.22445 0.10576 1.00321 0.0
C663 C 0.23266 0.12565 0.93106 0.0
C664 C 0.20261 0.14222 0.9308 0.0
C665 C 0.18516 0.14285 0.9689 0.0
C666 C 0.19584 0.12459 1.00461 0.0
C667 C 0.18681 0.15489 0.88861 0.0
C668 C 0.17917 0.18851 0.8907 0.0
C669 C 0.1774 0.13332 0.84716 0.0
C670 C 0.1839 0.09732 0.84327 0.0
C671 C 0.17106 0.07725 0.87262 0.0
C672 C 0.1785 0.04367 0.86997 0.0
C673 C 0.19831 0.02975 0.83757 0.0
C674 C 0.2106 0.04935 0.80764 0.0
C675 C 0.20342 0.083 0.81037 0.0
H676 H 0.20412 1.00378 0.83562 0.0
H677 H 0.13994 0.33166 0.86543 0.0
H678 H 0.88467 0.08668 0.0918 0.0
H679 H 0.89592 0.12554 0.16276 0.0
H680 H 0.80778 0.08987 0.2096 0.0
H681 H 0.79663 0.05042 0.13837 0.0
H682 H 0.87415 0.17416 0.21189 0.0
H683 H 0.81793 0.08103 0.31089 0.0
H684 H 0.80652 0.02057 0.302 0.0
H685 H 0.89289 1.00322 0.23395 0.0
H686 H 0.90433 0.06359 0.24155 0.0
H687 H 0.92182 0.24587 0.45224 0.0
H688 H 0.88903 0.22457 0.37734 0.0
H689 H 0.94419 0.13465 0.37262 0.0
H690 H 0.97568 0.15503 0.44607 0.0
H691 H 0.88337 0.11795 0.35207 0.0
H692 H 0.95709 0.19595 0.30472 0.0
H693 H 0.98332 0.25084 0.30454 0.0
H694 H 0.88859 0.28998 0.2627 0.0
H695 H 0.86175 0.23533 0.26318 0.0
C696 C 0.86752 0.08734 0.11711 0.0
C697 C 0.84029 0.06498 0.11027 0.0
C698 C 0.87391 0.10969 0.15758 0.0
C699 C 0.85344 0.10994 0.19242 0.0
C700 C 0.82454 0.08953 0.18388 0.0
C701 C 0.81801 0.06717 0.14306 0.0
C702 C 0.86459 0.12877 0.23896 0.0
C703 C 0.87577 0.162 0.24267 0.0
C704 C 0.86788 0.11281 0.27908 0.0
C705 C 0.8618 0.07665 0.27649 0.0
C706 C 0.83453 0.06426 0.29427 0.0
C707 C 0.82802 0.03006 0.28932 0.0
C708 C 0.84911 0.0081 0.26775 0.0
C709 C 0.87666 0.02026 0.25078 0.0
C710 C 0.88303 0.05442 0.25509 0.0
C711 C 0.92692 0.22176 0.43477 0.0
C712 C 0.95099 0.20202 0.45536 0.0
C713 C 0.90819 0.20952 0.39213 0.0
C714 C 0.91374 0.17768 0.36947 0.0
C715 C 0.93874 0.15887 0.38953 0.0
C716 C 0.95692 0.17075 0.43168 0.0
C717 C 0.8941 0.16302 0.32499 0.0
C718 C 0.88112 0.13047 0.32164 0.0
C719 C 0.89141 0.1789 0.28479 0.0
C720 C 0.90736 0.21175 0.28465 0.0
C721 C 0.94183 0.21635 0.2959 0.0
C722 C 0.95681 0.24738 0.29565 0.0
C723 C 0.93761 0.27392 0.28379 0.0
C724 C 0.90341 0.26943 0.27201 0.0
C725 C 0.88829 0.23844 0.27226 0.0
H726 H 0.94926 0.29793 0.28359 0.0
H727 H 0.84409 0.98167 0.26419 0.0
loop_
_geom_bond_atom_site_label_1
_geom_bond_atom_site_label_2
_geom_bond_distance
_geom_bond_site_symmetry_2
_ccdc_geom_bond_type
Zn0 O1 2.046 1_545 S
Zn0 O8 2.032 1_545 S
Zn0 N16 2.037 . S
Zn0 O28 2.063 . S
Zn0 O30 2.080 . S
O1 Zn0 2.046 1_565 S
O1 C4 1.259 1_554 S
C2 O30 1.256 . S
C2 O31 1.244 . S
Zn3 O5 2.029 1_545 S
Zn3 O7 2.037 1_545 S
Zn3 N9 2.040 . S
Zn3 O27 2.082 . S
Zn3 O31 2.072 . S
C4 O1 1.259 1_556 S
C4 O5 1.254 1_556 S
O5 Zn3 2.029 1_565 S
O5 C4 1.254 1_554 S
C6 O27 1.256 . S
C6 O28 1.244 . S
O7 Zn3 2.037 1_565 S
O7 C29 1.259 . S
O8 Zn0 2.032 1_565 S
O8 C29 1.254 . S
N9 Zn3 2.040 . S
N9 C10 1.298 . S
N9 N12 1.398 . S
C10 N9 1.298 . S
C10 N13 1.367 . S
C10 C23 1.481 1_545 S
C11 N12 1.299 . S
C11 N13 1.379 . S
N12 N9 1.398 . S
N12 C11 1.299 . S
N13 C10 1.367 . S
N13 C11 1.379 . S
C14 N16 1.298 . S
C14 N18 1.367 . S
C14 C22 1.476 1_544 S
C15 N17 1.299 . S
C15 N18 1.379 . S
N16 Zn0 2.037 . S
N16 C14 1.298 . S
N16 N17 1.398 . S
N17 C15 1.299 . S
N17 N16 1.398 . S
N18 C14 1.367 . S
N18 C15 1.379 . S
H19 C22 0.980 . S
H20 C22 0.982 . S
H21 C22 0.985 1_545 S
C22 C14 1.476 1_566 S
C22 H19 0.980 . S
C22 H20 0.982 . S
C22 H21 0.985 1_565 S
C23 C10 1.481 1_565 S
C23 H24 0.980 . S
C23 H25 0.981 . S
C23 H26 0.981 1_565 S
H24 C23 0.980 . S
H25 C23 0.981 . S
H26 C23 0.981 1_545 S
O27 Zn3 2.082 . S
O27 C6 1.256 . S
O28 Zn0 2.063 . S
O28 C6 1.244 . S
C29 O7 1.259 . S
C29 O8 1.254 . S
O30 Zn0 2.080 . S
O30 C2 1.256 . S
O31 C2 1.244 . S
O31 Zn3 2.072 . S
Zn32 O33 2.055 . S
Zn32 O40 2.046 . S
Zn32 N48 2.036 . S
Zn32 O60 2.053 1_455 S
Zn32 O62 2.066 1_455 S
O33 Zn32 2.055 . S
O33 C36 1.259 . S
C34 O62 1.256 . S
C34 O63 1.244 . S
Zn35 O37 2.046 . S
Zn35 O39 2.055 . S
Zn35 N41 2.036 . S
Zn35 O59 2.066 1_455 S
Zn35 O63 2.053 1_455 S
C36 O33 1.259 . S
C36 O37 1.254 . S
O37 Zn35 2.046 . S
O37 C36 1.254 . S
C38 O59 1.256 . S
C38 O60 1.244 . S
O39 Zn35 2.055 . S
O39 C61 1.259 . S
O40 Zn32 2.046 . S
O40 C61 1.254 . S
N41 Zn35 2.036 . S
N41 C42 1.298 . S
N41 N44 1.398 . S
C42 N41 1.298 . S
C42 N45 1.367 . S
C42 C55 1.481 . S
C43 N44 1.299 . S
C43 N45 1.379 . S
N44 N41 1.398 . S
N44 C43 1.299 . S
N45 C42 1.367 . S
N45 C43 1.379 . S
C46 N48 1.298 . S
C46 N50 1.367 . S
C46 C54 1.481 . S
C47 N49 1.299 . S
C47 N50 1.379 . S
N48 Zn32 2.036 . S
N48 C46 1.298 . S
N48 N49 1.398 . S
N49 C47 1.299 . S
N49 N48 1.398 . S
N50 C46 1.367 . S
N50 C47 1.379 . S
H51 C54 0.980 . S
H52 C54 0.981 . S
H53 C54 0.981 . S
C54 C46 1.481 . S
C54 H51 0.980 . S
C54 H52 0.981 . S
C54 H53 0.981 . S
C55 C42 1.481 . S
C55 H56 0.980 . S
C55 H57 0.981 . S
C55 H58 0.981 . S
H56 C55 0.980 . S
H57 C55 0.981 . S
H58 C55 0.981 . S
O59 Zn35 2.066 1_655 S
O59 C38 1.256 . S
O60 Zn32 2.053 1_655 S
O60 C38 1.244 . S
C61 O39 1.259 . S
C61 O40 1.254 . S
O62 Zn32 2.066 1_655 S
O62 C34 1.256 . S
O63 C34 1.244 . S
O63 Zn35 2.053 1_655 S
Zn64 O65 2.055 1_554 S
Zn64 O72 2.046 . S
Zn64 N80 2.039 . S
Zn64 O92 2.053 1_565 S
Zn64 O94 2.066 1_564 S
O65 Zn64 2.055 1_556 S
O65 C68 1.259 . S
C66 O94 1.256 . S
C66 O95 1.244 . S
Zn67 O69 2.046 1_554 S
Zn67 O71 2.055 . S
Zn67 N73 2.036 1_554 S
Zn67 O91 2.066 1_565 S
Zn67 O95 2.053 1_564 S
C68 O65 1.259 . S
C68 O69 1.254 . S
O69 Zn67 2.046 1_556 S
O69 C68 1.254 . S
C70 O91 1.256 . S
C70 O92 1.244 . S
O71 Zn67 2.055 . S
O71 C93 1.259 . S
O72 Zn64 2.046 . S
O72 C93 1.254 . S
N73 Zn67 2.036 1_556 S
N73 C74 1.298 1_556 S
N73 N76 1.398 1_565 S
C74 N73 1.298 1_554 S
C74 N77 1.367 1_565 S
C74 C87 1.481 . S
C75 N76 1.299 . S
C75 N77 1.379 1_556 S
N76 N73 1.398 1_545 S
N76 C75 1.299 . S
N77 C74 1.367 1_545 S
N77 C75 1.379 1_554 S
C78 N80 1.316 . S
C78 N82 1.374 1_565 S
C78 C86 1.459 1_554 S
C79 N81 1.299 . S
C79 N82 1.379 . S
N80 Zn64 2.039 . S
N80 C78 1.316 . S
N80 N81 1.388 1_565 S
N81 C79 1.299 . S
N81 N80 1.388 1_545 S
N82 C78 1.374 1_545 S
N82 C79 1.379 . S
H83 C86 0.980 . S
H84 C86 0.981 . S
H85 C86 0.971 1_545 S
C86 C78 1.459 1_556 S
C86 H83 0.980 . S
C86 H84 0.981 . S
C86 H85 0.971 1_565 S
C87 C74 1.481 . S
C87 H88 0.980 . S
C87 H89 0.981 . S
C87 H90 0.991 . S
H88 C87 0.980 . S
H89 C87 0.981 . S
H90 C87 0.991 . S
O91 Zn67 2.066 1_545 S
O91 C70 1.256 . S
O92 Zn64 2.053 1_545 S
O92 C70 1.244 . S
C93 O71 1.259 . S
C93 O72 1.254 . S
O94 Zn64 2.066 1_546 S
O94 C66 1.256 . S
O95 C66 1.244 . S
O95 Zn67 2.053 1_546 S
Zn96 O97 2.055 . S
Zn96 O104 2.046 . S
Zn96 N112 2.036 . S
Zn96 O124 2.053 1_455 S
Zn96 O126 2.066 1_455 S
O97 Zn96 2.055 . S
O97 C100 1.259 . S
C98 O126 1.256 . S
C98 O127 1.244 . S
Zn99 O101 2.046 . S
Zn99 O103 2.055 . S
Zn99 N105 2.036 . S
Zn99 O123 2.066 1_455 S
Zn99 O127 2.053 1_455 S
C100 O97 1.259 . S
C100 O101 1.254 . S
O101 Zn99 2.046 . S
O101 C100 1.254 . S
C102 O123 1.256 . S
C102 O124 1.244 . S
O103 Zn99 2.055 . S
O103 C125 1.259 . S
O104 Zn96 2.046 . S
O104 C125 1.254 . S
N105 Zn99 2.036 . S
N105 C106 1.298 . S
N105 N108 1.398 . S
C106 N105 1.298 . S
C106 N109 1.367 . S
C106 C119 1.481 . S
C107 N108 1.299 1_655 S
C107 N109 1.379 1_655 S
N108 N105 1.398 . S
N108 C107 1.299 1_455 S
N109 C106 1.367 . S
N109 C107 1.379 1_455 S
C110 N112 1.298 . S
C110 N114 1.367 . S
C110 C118 1.481 . S
C111 N113 1.299 1_655 S
C111 N114 1.379 1_655 S
N112 Zn96 2.036 . S
N112 C110 1.298 . S
N112 N113 1.398 . S
N113 C111 1.299 1_455 S
N113 N112 1.398 . S
N114 C110 1.367 . S
N114 C111 1.379 1_455 S
H115 C118 0.980 . S
H116 C118 0.981 . S
H117 C118 0.981 . S
C118 C110 1.481 . S
C118 H115 0.980 . S
C118 H116 0.981 . S
C118 H117 0.981 . S
C119 C106 1.481 . S
C119 H120 0.980 . S
C119 H121 0.981 . S
C119 H122 0.981 . S
H120 C119 0.980 . S
H121 C119 0.981 . S
H122 C119 0.981 . S
O123 Zn99 2.066 1_655 S
O123 C102 1.256 . S
O124 Zn96 2.053 1_655 S
O124 C102 1.244 . S
C125 O103 1.259 . S
C125 O104 1.254 . S
O126 Zn96 2.066 1_655 S
O126 C98 1.256 . S
O127 C98 1.244 . S
O127 Zn99 2.053 1_655 S
H128 C146 0.951 . S
H129 C148 0.959 . S
H130 C150 0.950 . S
H131 C151 0.950 . S
H132 C153 0.952 . S
H133 C156 0.950 . S
H134 C157 0.950 . S
H135 C159 0.950 . S
H136 C160 0.950 1_455 S
H137 C161 0.951 . S
H138 C163 0.951 . S
H139 C165 0.950 . S
H140 C166 0.950 . S
H141 C168 0.950 1_565 S
H142 C171 0.917 1_565 S
H143 C172 0.950 . S
H144 C174 0.950 . S
H145 C175 0.950 . S
C146 H128 0.951 . S
C146 C147 1.366 1_565 S
C146 C148 1.382 1_556 S
C147 C146 1.366 1_545 S
C147 C151 1.385 . S
C148 H129 0.959 . S
C148 C146 1.382 1_554 S
C148 C149 1.364 1_565 S
C149 C148 1.364 1_545 S
C149 C150 1.414 1_554 S
C149 C152 1.499 . S
C150 H130 0.950 . S
C150 C149 1.414 1_556 S
C150 C151 1.374 . S
C151 H131 0.950 . S
C151 C147 1.385 . S
C151 C150 1.374 . S
C152 C149 1.499 . S
C152 C153 1.372 1_654 S
C152 C154 1.389 1_655 S
C153 H132 0.952 . S
C153 C152 1.372 1_456 S
C153 C169 1.376 1_556 S
C154 C152 1.389 1_455 S
C154 C155 1.524 1_445 S
C154 C168 1.377 . S
C155 C154 1.524 1_665 S
C155 C156 1.397 1_565 S
C155 C160 1.363 . S
C156 H133 0.950 . S
C156 C155 1.397 1_545 S
C156 C157 1.334 . S
C157 H134 0.950 . S
C157 C156 1.334 . S
C157 C158 1.287 1_545 S
C158 C157 1.287 1_565 S
C158 C159 1.524 . S
C158 H177 0.913 . S
C159 H135 0.950 . S
C159 C158 1.524 . S
C159 C160 1.415 . S
C160 H136 0.950 1_655 S
C160 C155 1.363 . S
C160 C159 1.415 . S
C161 H137 0.951 . S
C161 C162 1.366 . S
C161 C163 1.388 . S
C162 C161 1.366 . S
C162 C166 1.385 1_545 S
C163 H138 0.951 . S
C163 C161 1.388 . S
C163 C164 1.366 . S
C164 C163 1.366 . S
C164 C165 1.414 1_545 S
C164 C167 1.499 . S
C165 H139 0.950 . S
C165 C164 1.414 1_565 S
C165 C166 1.374 . S
C166 H140 0.950 . S
C166 C162 1.385 1_565 S
C166 C165 1.374 . S
C167 C164 1.499 . S
C167 C168 1.373 . S
C167 C169 1.389 . S
C168 H141 0.950 1_545 S
C168 C154 1.377 . S
C168 C167 1.373 . S
C169 C153 1.376 1_554 S
C169 C167 1.389 . S
C169 C170 1.524 1_554 S
C170 C169 1.524 1_556 S
C170 C171 1.397 . S
C170 C175 1.363 . S
C171 H142 0.917 1_545 S
C171 C170 1.397 . S
C171 C172 1.334 . S
C172 H143 0.950 . S
C172 C171 1.334 . S
C172 C173 1.287 . S
C173 C172 1.287 . S
C173 C174 1.524 . S
C173 H176 0.999 . S
C174 H144 0.950 . S
C174 C173 1.524 . S
C174 C175 1.415 . S
C175 H145 0.950 . S
C175 C170 1.363 . S
C175 C174 1.415 . S
H176 C173 0.999 . S
H177 C158 0.913 . S
H178 C196 0.951 . S
H179 C198 0.951 . S
H180 C200 0.950 . S
H181 C201 0.950 . S
H182 C203 0.950 . S
H183 C206 0.950 . S
H184 C207 0.950 . S
H185 C209 0.950 . S
H186 C210 0.950 . S
H187 C211 0.951 . S
H188 C213 0.951 . S
H189 C215 0.950 . S
H190 C216 0.950 . S
H191 C218 0.950 . S
H192 C221 0.950 . S
H193 C222 0.950 . S
H194 C224 0.950 . S
H195 C225 0.950 . S
C196 H178 0.951 . S
C196 C197 1.366 . S
C196 C198 1.388 . S
C197 C196 1.366 . S
C197 C201 1.385 1_455 S
C198 H179 0.951 . S
C198 C196 1.388 . S
C198 C199 1.366 . S
C199 C198 1.366 . S
C199 C200 1.414 1_455 S
C199 C202 1.499 . S
C200 H180 0.950 . S
C200 C199 1.414 1_655 S
C200 C201 1.374 . S
C201 H181 0.950 . S
C201 C197 1.385 1_655 S
C201 C200 1.374 . S
C202 C199 1.499 . S
C202 C203 1.373 1_455 S
C202 C204 1.389 . S
C203 H182 0.950 . S
C203 C202 1.373 1_655 S
C203 C219 1.377 1_565 S
C204 C202 1.389 . S
C204 C205 1.524 . S
C204 C218 1.377 1_565 S
C205 C204 1.524 . S
C205 C206 1.397 . S
C205 C210 1.363 . S
C206 H183 0.950 . S
C206 C205 1.397 . S
C206 C207 1.334 . S
C207 H184 0.950 . S
C207 C206 1.334 . S
C207 C208 1.287 . S
C208 C207 1.287 . S
C208 C209 1.524 . S
C208 H227 0.913 . S
C209 H185 0.950 . S
C209 C208 1.524 . S
C209 C210 1.415 . S
C210 H186 0.950 . S
C210 C205 1.363 . S
C210 C209 1.415 . S
C211 H187 0.951 . S
C211 C212 1.366 1_655 S
C211 C213 1.388 . S
C212 C211 1.366 1_455 S
C212 C216 1.385 . S
C213 H188 0.951 . S
C213 C211 1.388 . S
C213 C214 1.366 1_655 S
C214 C213 1.366 1_455 S
C214 C215 1.414 . S
C214 C217 1.499 . S
C215 H189 0.950 . S
C215 C214 1.414 . S
C215 C216 1.374 . S
C216 H190 0.950 . S
C216 C212 1.385 . S
C216 C215 1.374 . S
C217 C214 1.499 . S
C217 C218 1.373 . S
C217 C219 1.389 1_455 S
C218 H191 0.950 . S
C218 C204 1.377 1_545 S
C218 C217 1.373 . S
C219 C203 1.377 1_545 S
C219 C217 1.389 1_655 S
C219 C220 1.524 . S
C220 C219 1.524 . S
C220 C221 1.397 . S
C220 C225 1.363 . S
C221 H192 0.950 . S
C221 C220 1.397 . S
C221 C222 1.334 . S
C222 H193 0.950 . S
C222 C221 1.334 . S
C222 C223 1.287 . S
C223 C222 1.287 . S
C223 C224 1.524 . S
C223 H226 0.999 . S
C224 H194 0.950 . S
C224 C223 1.524 . S
C224 C225 1.415 . S
C225 H195 0.950 . S
C225 C220 1.363 . S
C225 C224 1.415 . S
H226 C223 0.999 . S
H227 C208 0.913 . S
H228 C246 0.951 1_565 S
H229 C248 0.953 . S
H230 C250 0.950 . S
H231 C251 0.950 . S
H232 C253 0.950 . S
H233 C256 0.950 1_554 S
H234 C257 0.950 . S
H235 C259 0.950 . S
H236 C260 0.950 . S
H237 C261 0.951 . S
H238 C263 0.951 . S
H239 C265 0.950 1_556 S
H240 C266 0.950 1_556 S
H241 C268 0.950 1_556 S
H242 C271 0.950 . S
H243 C272 0.950 . S
H244 C274 0.950 . S
H245 C275 0.950 . S
C246 H228 0.951 1_545 S
C246 C247 1.366 1_556 S
C246 C248 1.388 . S
C247 C246 1.366 1_554 S
C247 C251 1.385 . S
C248 H229 0.953 . S
C248 C246 1.388 . S
C248 C249 1.366 1_556 S
C249 C248 1.366 1_554 S
C249 C250 1.414 . S
C249 C252 1.499 . S
C250 H230 0.950 . S
C250 C249 1.414 . S
C250 C251 1.374 . S
C251 H231 0.950 . S
C251 C247 1.385 . S
C251 C250 1.374 . S
C252 C249 1.499 . S
C252 C253 1.373 1_545 S
C252 C254 1.389 . S
C253 H232 0.950 . S
C253 C252 1.373 1_565 S
C253 C269 1.377 . S
C254 C252 1.389 . S
C254 C255 1.524 1_554 S
C254 C268 1.377 . S
C255 C254 1.524 1_556 S
C255 C256 1.397 . S
C255 C260 1.363 . S
C256 H233 0.950 1_556 S
C256 C255 1.397 . S
C256 C257 1.334 . S
C257 H234 0.950 . S
C257 C256 1.334 . S
C257 C258 1.287 . S
C258 C257 1.287 . S
C258 C259 1.524 . S
C258 H277 0.913 . S
C259 H235 0.950 . S
C259 C258 1.524 . S
C259 C260 1.415 . S
C260 H236 0.950 . S
C260 C255 1.363 . S
C260 C259 1.415 . S
C261 H237 0.951 . S
C261 C262 1.366 . S
C261 C263 1.388 . S
C262 C261 1.366 . S
C262 C266 1.385 . S
C263 H238 0.951 . S
C263 C261 1.388 . S
C263 C264 1.366 . S
C264 C263 1.366 . S
C264 C265 1.414 . S
C264 C267 1.499 . S
C265 H239 0.950 1_554 S
C265 C264 1.414 . S
C265 C266 1.374 . S
C266 H240 0.950 1_554 S
C266 C262 1.385 . S
C266 C265 1.374 . S
C267 C264 1.499 . S
C267 C268 1.373 . S
C267 C269 1.389 1_545 S
C268 H241 0.950 1_554 S
C268 C254 1.377 . S
C268 C267 1.373 . S
C269 C253 1.377 . S
C269 C267 1.389 1_565 S
C269 C270 1.524 . S
C270 C269 1.524 . S
C270 C271 1.397 . S
C270 C275 1.363 . S
C271 H242 0.950 . S
C271 C270 1.397 . S
C271 C272 1.334 . S
C272 H243 0.950 . S
C272 C271 1.334 . S
C272 C273 1.287 . S
C273 C272 1.287 . S
C273 C274 1.524 . S
C273 H276 0.999 . S
C274 H244 0.950 . S
C274 C273 1.524 . S
C274 C275 1.415 . S
C275 H245 0.950 . S
C275 C270 1.363 . S
C275 C274 1.415 . S
H276 C273 0.999 . S
H277 C258 0.913 . S
H278 C296 0.951 . S
H279 C298 0.951 . S
H280 C300 0.950 . S
H281 C301 0.962 . S
H282 C303 0.950 . S
H283 C306 0.950 . S
H284 C307 0.950 . S
H285 C309 0.950 . S
H286 C310 0.950 . S
H287 C311 0.951 . S
H288 C313 0.951 . S
H289 C315 0.950 . S
H290 C316 0.950 . S
H291 C318 0.950 1_655 S
H292 C321 0.950 . S
H293 C322 0.950 . S
H294 C324 0.950 . S
H295 C325 0.950 . S
C296 H278 0.951 . S
C296 C297 1.366 . S
C296 C298 1.388 . S
C297 C296 1.366 . S
C297 C301 1.373 1_455 S
C298 H279 0.951 . S
C298 C296 1.388 . S
C298 C299 1.366 . S
C299 C298 1.366 . S
C299 C300 1.414 1_455 S
C299 C302 1.499 . S
C300 H280 0.950 . S
C300 C299 1.414 1_655 S
C300 C301 1.375 . S
C301 H281 0.962 . S
C301 C297 1.373 1_655 S
C301 C300 1.375 . S
C302 C299 1.499 . S
C302 C303 1.373 . S
C302 C304 1.389 . S
C303 H282 0.950 . S
C303 C302 1.373 . S
C303 C319 1.377 . S
C304 C302 1.389 . S
C304 C305 1.524 1_455 S
C304 C318 1.377 . S
C305 C304 1.524 1_655 S
C305 C306 1.397 . S
C305 C310 1.363 1_655 S
C306 H283 0.950 . S
C306 C305 1.397 . S
C306 C307 1.334 . S
C307 H284 0.950 . S
C307 C306 1.334 . S
C307 C308 1.287 . S
C308 C307 1.287 . S
C308 C309 1.524 . S
C308 H327 0.913 . S
C309 H285 0.950 . S
C309 C308 1.524 . S
C309 C310 1.415 1_655 S
C310 H286 0.950 . S
C310 C305 1.363 1_455 S
C310 C309 1.415 1_455 S
C311 H287 0.951 . S
C311 C312 1.366 1_655 S
C311 C313 1.388 . S
C312 C311 1.366 1_455 S
C312 C316 1.385 . S
C313 H288 0.951 . S
C313 C311 1.388 . S
C313 C314 1.366 1_655 S
C314 C313 1.366 1_455 S
C314 C315 1.414 . S
C314 C317 1.499 . S
C315 H289 0.950 . S
C315 C314 1.414 . S
C315 C316 1.374 . S
C316 H290 0.950 . S
C316 C312 1.385 . S
C316 C315 1.374 . S
C317 C314 1.499 . S
C317 C318 1.373 . S
C317 C319 1.389 . S
C318 H291 0.950 1_455 S
C318 C304 1.377 . S
C318 C317 1.373 . S
C319 C303 1.377 . S
C319 C317 1.389 . S
C319 C320 1.524 . S
C320 C319 1.524 . S
C320 C321 1.397 . S
C320 C325 1.363 . S
C321 H292 0.950 . S
C321 C320 1.397 . S
C321 C322 1.334 . S
C322 H293 0.950 . S
C322 C321 1.334 . S
C322 C323 1.287 . S
C323 C322 1.287 . S
C323 C324 1.524 . S
C323 H326 0.999 . S
C324 H294 0.950 . S
C324 C323 1.524 . S
C324 C325 1.415 . S
C325 H295 0.950 . S
C325 C320 1.363 . S
C325 C324 1.415 . S
H326 C323 0.999 . S
H327 C308 0.913 . S
H328 C346 0.951 . S
H329 C348 0.951 . S
H330 C350 0.950 . S
H331 C351 0.950 . S
H332 C353 0.950 . S
H333 C356 0.950 . S
H334 C357 0.950 . S
H335 C359 0.950 . S
H336 C360 0.950 . S
H337 C361 0.951 . S
H338 C363 0.951 . S
H339 C365 0.950 . S
H340 C366 0.950 . S
H341 C368 0.950 . S
H342 C371 0.950 . S
H343 C372 0.950 . S
H344 C374 0.950 . S
H345 C375 0.950 . S
C346 H328 0.951 . S
C346 C347 1.366 . S
C346 C348 1.388 . S
C347 C346 1.366 . S
C347 C351 1.385 . S
C348 H329 0.951 . S
C348 C346 1.388 . S
C348 C349 1.366 . S
C349 C348 1.366 . S
C349 C350 1.414 . S
C349 C352 1.499 . S
C350 H330 0.950 . S
C350 C349 1.414 . S
C350 C351 1.374 . S
C351 H331 0.950 . S
C351 C347 1.385 . S
C351 C350 1.374 . S
C352 C349 1.499 . S
C352 C353 1.373 . S
C352 C354 1.389 . S
C353 H332 0.950 . S
C353 C352 1.373 . S
C353 C369 1.377 . S
C354 C352 1.389 . S
C354 C355 1.524 . S
C354 C368 1.377 . S
C355 C354 1.524 . S
C355 C356 1.397 . S
C355 C360 1.363 . S
C356 H333 0.950 . S
C356 C355 1.397 . S
C356 C357 1.334 . S
C357 H334 0.950 . S
C357 C356 1.334 . S
C357 C358 1.287 . S
C358 C357 1.287 . S
C358 C359 1.524 . S
C358 H377 0.913 1_455 S
C359 H335 0.950 . S
C359 C358 1.524 . S
C359 C360 1.415 . S
C360 H336 0.950 . S
C360 C355 1.363 . S
C360 C359 1.415 . S
C361 H337 0.951 . S
C361 C362 1.366 . S
C361 C363 1.388 . S
C362 C361 1.366 . S
C362 C366 1.385 . S
C363 H338 0.951 . S
C363 C361 1.388 . S
C363 C364 1.366 . S
C364 C363 1.366 . S
C364 C365 1.414 . S
C364 C367 1.499 . S
C365 H339 0.950 . S
C365 C364 1.414 . S
C365 C366 1.374 . S
C366 H340 0.950 . S
C366 C362 1.385 . S
C366 C365 1.374 . S
C367 C364 1.499 . S
C367 C368 1.373 . S
C367 C369 1.389 . S
C368 H341 0.950 . S
C368 C354 1.377 . S
C368 C367 1.373 . S
C369 C353 1.377 . S
C369 C367 1.389 . S
C369 C370 1.524 . S
C370 C369 1.524 . S
C370 C371 1.397 . S
C370 C375 1.363 . S
C371 H342 0.950 . S
C371 C370 1.397 . S
C371 C372 1.334 . S
C372 H343 0.950 . S
C372 C371 1.334 . S
C372 C373 1.287 . S
C373 C372 1.287 . S
C373 C374 1.524 . S
C373 H376 0.999 . S
C374 H344 0.950 . S
C374 C373 1.524 . S
C374 C375 1.415 . S
C375 H345 0.950 . S
C375 C370 1.363 . S
C375 C374 1.415 . S
H376 C373 0.999 . S
H377 C358 0.913 1_655 S
H378 C396 0.951 . S
H379 C398 0.951 . S
H380 C400 0.950 . S
H381 C401 0.950 . S
H382 C403 0.950 . S
H383 C406 0.950 . S
H384 C407 0.950 . S
H385 C409 0.950 . S
H386 C410 0.950 . S
H387 C411 0.951 . S
H388 C413 0.951 . S
H389 C415 0.950 . S
H390 C416 0.950 . S
H391 C418 0.950 . S
H392 C421 0.950 . S
H393 C422 0.950 . S
H394 C424 0.950 . S
H395 C425 0.950 . S
C396 H378 0.951 . S
C396 C397 1.366 . S
C396 C398 1.388 . S
C397 C396 1.366 . S
C397 C401 1.385 . S
C398 H379 0.951 . S
C398 C396 1.388 . S
C398 C399 1.366 . S
C399 C398 1.366 . S
C399 C400 1.414 . S
C399 C402 1.499 . S
C400 H380 0.950 . S
C400 C399 1.414 . S
C400 C401 1.374 . S
C401 H381 0.950 . S
C401 C397 1.385 . S
C401 C400 1.374 . S
C402 C399 1.499 . S
C402 C403 1.373 . S
C402 C404 1.389 . S
C403 H382 0.950 . S
C403 C402 1.373 . S
C403 C419 1.377 . S
C404 C402 1.389 . S
C404 C405 1.524 . S
C404 C418 1.377 . S
C405 C404 1.524 . S
C405 C406 1.397 . S
C405 C410 1.363 . S
C406 H383 0.950 . S
C406 C405 1.397 . S
C406 C407 1.334 1_655 S
C407 H384 0.950 . S
C407 C406 1.334 1_455 S
C407 C408 1.287 . S
C408 C407 1.287 . S
C408 C409 1.524 . S
C408 H427 0.913 . S
C409 H385 0.950 . S
C409 C408 1.524 . S
C409 C410 1.415 1_455 S
C410 H386 0.950 . S
C410 C405 1.363 . S
C410 C409 1.415 1_655 S
C411 H387 0.951 . S
C411 C412 1.366 . S
C411 C413 1.388 . S
C412 C411 1.366 . S
C412 C416 1.385 . S
C413 H388 0.951 . S
C413 C411 1.388 . S
C413 C414 1.366 . S
C414 C413 1.366 . S
C414 C415 1.414 . S
C414 C417 1.499 . S
C415 H389 0.950 . S
C415 C414 1.414 . S
C415 C416 1.374 . S
C416 H390 0.950 . S
C416 C412 1.385 . S
C416 C415 1.374 . S
C417 C414 1.499 . S
C417 C418 1.373 . S
C417 C419 1.389 . S
C418 H391 0.950 . S
C418 C404 1.377 . S
C418 C417 1.373 . S
C419 C403 1.377 . S
C419 C417 1.389 . S
C419 C420 1.524 . S
C420 C419 1.524 . S
C420 C421 1.397 . S
C420 C425 1.363 . S
C421 H392 0.950 . S
C421 C420 1.397 . S
C421 C422 1.334 . S
C422 H393 0.950 . S
C422 C421 1.334 . S
C422 C423 1.287 . S
C423 C422 1.287 . S
C423 C424 1.524 . S
C423 H426 0.999 . S
C424 H394 0.950 . S
C424 C423 1.524 . S
C424 C425 1.415 . S
C425 H395 0.950 . S
C425 C420 1.363 . S
C425 C424 1.415 . S
H426 C423 0.999 . S
H427 C408 0.913 . S
H428 C446 0.951 . S
H429 C448 0.951 . S
H430 C450 0.950 . S
H431 C451 0.950 . S
H432 C453 0.950 . S
H433 C456 0.950 . S
H434 C457 0.950 . S
H435 C459 0.950 . S
H436 C460 0.950 . S
H437 C461 0.951 . S
H438 C463 0.951 . S
H439 C465 0.950 . S
H440 C466 0.950 . S
H441 C468 0.950 . S
H442 C471 0.950 . S
H443 C472 0.950 . S
H444 C474 0.950 . S
H445 C475 0.950 . S
C446 H428 0.951 . S
C446 C447 1.366 . S
C446 C448 1.388 . S
C447 C446 1.366 . S
C447 C451 1.385 . S
C448 H429 0.951 . S
C448 C446 1.388 . S
C448 C449 1.366 . S
C449 C448 1.366 . S
C449 C450 1.414 . S
C449 C452 1.499 . S
C450 H430 0.950 . S
C450 C449 1.414 . S
C450 C451 1.374 . S
C451 H431 0.950 . S
C451 C447 1.385 . S
C451 C450 1.374 . S
C452 C449 1.499 . S
C452 C453 1.373 . S
C452 C454 1.389 . S
C453 H432 0.950 . S
C453 C452 1.373 . S
C453 C469 1.377 . S
C454 C452 1.389 . S
C454 C455 1.524 . S
C454 C468 1.377 . S
C455 C454 1.524 . S
C455 C456 1.397 . S
C455 C460 1.363 . S
C456 H433 0.950 . S
C456 C455 1.397 . S
C456 C457 1.334 1_655 S
C457 H434 0.950 . S
C457 C456 1.334 1_455 S
C457 C458 1.287 . S
C458 C457 1.287 . S
C458 C459 1.524 1_455 S
C458 H477 0.913 . S
C459 H435 0.950 . S
C459 C458 1.524 1_655 S
C459 C460 1.415 . S
C460 H436 0.950 . S
C460 C455 1.363 . S
C460 C459 1.415 . S
C461 H437 0.951 . S
C461 C462 1.366 . S
C461 C463 1.388 . S
C462 C461 1.366 . S
C462 C466 1.385 . S
C463 H438 0.951 . S
C463 C461 1.388 . S
C463 C464 1.366 . S
C464 C463 1.366 . S
C464 C465 1.414 . S
C464 C467 1.499 . S
C465 H439 0.950 . S
C465 C464 1.414 . S
C465 C466 1.374 . S
C466 H440 0.950 . S
C466 C462 1.385 . S
C466 C465 1.374 . S
C467 C464 1.499 . S
C467 C468 1.373 . S
C467 C469 1.389 . S
C468 H441 0.950 . S
C468 C454 1.377 . S
C468 C467 1.373 . S
C469 C453 1.377 . S
C469 C467 1.389 . S
C469 C470 1.524 . S
C470 C469 1.524 . S
C470 C471 1.397 . S
C470 C475 1.363 . S
C471 H442 0.950 . S
C471 C470 1.397 . S
C471 C472 1.334 . S
C472 H443 0.950 . S
C472 C471 1.334 . S
C472 C473 1.287 . S
C473 C472 1.287 . S
C473 C474 1.524 . S
C473 H476 0.999 . S
C474 H444 0.950 . S
C474 C473 1.524 . S
C474 C475 1.415 . S
C475 H445 0.950 . S
C475 C470 1.363 . S
C475 C474 1.415 . S
H476 C473 0.999 . S
H477 C458 0.913 . S
H478 C496 0.951 . S
H479 C498 0.951 . S
H480 C500 0.950 . S
H481 C501 0.950 . S
H482 C503 0.950 . S
H483 C506 0.950 . S
H484 C507 0.950 . S
H485 C509 0.950 . S
H486 C510 0.950 . S
H487 C511 0.951 . S
H488 C513 0.951 . S
H489 C515 0.950 . S
H490 C516 0.950 . S
H491 C518 0.950 . S
H492 C521 0.950 . S
H493 C522 0.950 1_545 S
H494 C524 0.950 . S
H495 C525 0.950 . S
C496 H478 0.951 . S
C496 C497 1.366 . S
C496 C498 1.388 . S
C497 C496 1.366 . S
C497 C501 1.385 . S
C498 H479 0.951 . S
C498 C496 1.388 . S
C498 C499 1.366 . S
C499 C498 1.366 . S
C499 C500 1.414 . S
C499 C502 1.499 . S
C500 H480 0.950 . S
C500 C499 1.414 . S
C500 C501 1.374 . S
C501 H481 0.950 . S
C501 C497 1.385 . S
C501 C500 1.374 . S
C502 C499 1.499 . S
C502 C503 1.373 . S
C502 C504 1.389 . S
C503 H482 0.950 . S
C503 C502 1.373 . S
C503 C519 1.377 . S
C504 C502 1.389 . S
C504 C505 1.524 . S
C504 C518 1.377 . S
C505 C504 1.524 . S
C505 C506 1.397 . S
C505 C510 1.363 . S
C506 H483 0.950 . S
C506 C505 1.397 . S
C506 C507 1.334 . S
C507 H484 0.950 . S
C507 C506 1.334 . S
C507 C508 1.287 . S
C508 C507 1.287 . S
C508 C509 1.524 . S
C508 H527 0.913 . S
C509 H485 0.950 . S
C509 C508 1.524 . S
C509 C510 1.415 . S
C510 H486 0.950 . S
C510 C505 1.363 . S
C510 C509 1.415 . S
C511 H487 0.951 . S
C511 C512 1.366 . S
C511 C513 1.388 . S
C512 C511 1.366 . S
C512 C516 1.385 . S
C513 H488 0.951 . S
C513 C511 1.388 . S
C513 C514 1.366 . S
C514 C513 1.366 . S
C514 C515 1.414 . S
C514 C517 1.499 . S
C515 H489 0.950 . S
C515 C514 1.414 . S
C515 C516 1.374 . S
C516 H490 0.950 . S
C516 C512 1.385 . S
C516 C515 1.374 . S
C517 C514 1.499 . S
C517 C518 1.373 . S
C517 C519 1.389 . S
C518 H491 0.950 . S
C518 C504 1.377 . S
C518 C517 1.373 . S
C519 C503 1.377 . S
C519 C517 1.389 . S
C519 C520 1.524 . S
C520 C519 1.524 . S
C520 C521 1.397 . S
C520 C525 1.363 . S
C521 H492 0.950 . S
C521 C520 1.397 . S
C521 C522 1.334 . S
C522 H493 0.950 1_565 S
C522 C521 1.334 . S
C522 C523 1.287 . S
C523 C522 1.287 . S
C523 C524 1.524 . S
C523 H526 0.999 . S
C524 H494 0.950 . S
C524 C523 1.524 . S
C524 C525 1.415 . S
C525 H495 0.950 . S
C525 C520 1.363 . S
C525 C524 1.415 . S
H526 C523 0.999 . S
H527 C508 0.913 . S
H528 C546 0.951 . S
H529 C548 0.951 . S
H530 C550 0.950 . S
H531 C551 0.950 . S
H532 C553 0.950 . S
H533 C556 0.950 . S
H534 C557 0.950 . S
H535 C559 0.946 1_455 S
H536 C560 0.950 . S
H537 C561 0.951 . S
H538 C563 0.951 . S
H539 C565 0.950 . S
H540 C566 0.950 . S
H541 C568 0.950 . S
H542 C571 0.950 . S
H543 C572 0.950 . S
H544 C574 0.950 . S
H545 C575 0.950 . S
C546 H528 0.951 . S
C546 C547 1.366 . S
C546 C548 1.388 . S
C547 C546 1.366 . S
C547 C551 1.385 . S
C548 H529 0.951 . S
C548 C546 1.388 . S
C548 C549 1.366 . S
C549 C548 1.366 . S
C549 C550 1.414 . S
C549 C552 1.499 . S
C550 H530 0.950 . S
C550 C549 1.414 . S
C550 C551 1.374 . S
C551 H531 0.950 . S
C551 C547 1.385 . S
C551 C550 1.374 . S
C552 C549 1.499 . S
C552 C553 1.373 . S
C552 C554 1.389 . S
C553 H532 0.950 . S
C553 C552 1.373 . S
C553 C569 1.377 . S
C554 C552 1.389 . S
C554 C555 1.524 . S
C554 C568 1.377 . S
C555 C554 1.524 . S
C555 C556 1.397 . S
C555 C560 1.363 . S
C556 H533 0.950 . S
C556 C555 1.397 . S
C556 C557 1.334 . S
C557 H534 0.950 . S
C557 C556 1.334 . S
C557 C558 1.287 . S
C558 C557 1.287 . S
C558 C559 1.524 . S
C558 H577 0.913 . S
C559 H535 0.946 1_655 S
C559 C558 1.524 . S
C559 C560 1.415 . S
C560 H536 0.950 . S
C560 C555 1.363 . S
C560 C559 1.415 . S
C561 H537 0.951 . S
C561 C562 1.366 . S
C561 C563 1.388 . S
C562 C561 1.366 . S
C562 C566 1.385 . S
C563 H538 0.951 . S
C563 C561 1.388 . S
C563 C564 1.366 . S
C564 C563 1.366 . S
C564 C565 1.414 . S
C564 C567 1.499 . S
C565 H539 0.950 . S
C565 C564 1.414 . S
C565 C566 1.374 . S
C566 H540 0.950 . S
C566 C562 1.385 . S
C566 C565 1.374 . S
C567 C564 1.499 . S
C567 C568 1.373 . S
C567 C569 1.389 . S
C568 H541 0.950 . S
C568 C554 1.377 . S
C568 C567 1.373 . S
C569 C553 1.377 . S
C569 C567 1.389 . S
C569 C570 1.524 . S
C570 C569 1.524 . S
C570 C571 1.397 . S
C570 C575 1.363 . S
C571 H542 0.950 . S
C571 C570 1.397 . S
C571 C572 1.334 . S
C572 H543 0.950 . S
C572 C571 1.334 . S
C572 C573 1.287 . S
C573 C572 1.287 . S
C573 C574 1.524 . S
C573 H576 0.999 . S
C574 H544 0.950 . S
C574 C573 1.524 . S
C574 C575 1.415 . S
C575 H545 0.950 . S
C575 C570 1.363 . S
C575 C574 1.415 . S
H576 C573 0.999 . S
H577 C558 0.913 . S
H578 C596 0.951 . S
H579 C598 0.951 . S
H580 C600 0.950 . S
H581 C601 0.950 . S
H582 C603 0.950 . S
H583 C606 0.950 . S
H584 C607 0.950 1_545 S
H585 C609 0.950 . S
H586 C610 0.950 . S
H587 C611 0.951 . S
H588 C613 0.951 . S
H589 C615 0.950 . S
H590 C616 0.950 . S
H591 C618 0.950 . S
H592 C621 0.950 . S
H593 C622 0.950 . S
H594 C624 0.950 . S
H595 C625 0.950 . S
C596 H578 0.951 . S
C596 C597 1.366 . S
C596 C598 1.388 . S
C597 C596 1.366 . S
C597 C601 1.385 . S
C598 H579 0.951 . S
C598 C596 1.388 . S
C598 C599 1.366 . S
C599 C598 1.366 . S
C599 C600 1.414 . S
C599 C602 1.499 . S
C600 H580 0.950 . S
C600 C599 1.414 . S
C600 C601 1.374 . S
C601 H581 0.950 . S
C601 C597 1.385 . S
C601 C600 1.374 . S
C602 C599 1.499 . S
C602 C603 1.373 . S
C602 C604 1.389 . S
C603 H582 0.950 . S
C603 C602 1.373 . S
C603 C619 1.377 . S
C604 C602 1.389 . S
C604 C605 1.524 . S
C604 C618 1.377 . S
C605 C604 1.524 . S
C605 C606 1.397 . S
C605 C610 1.363 . S
C606 H583 0.950 . S
C606 C605 1.397 . S
C606 C607 1.334 . S
C607 H584 0.950 1_565 S
C607 C606 1.334 . S
C607 C608 1.287 1_565 S
C608 C607 1.287 1_545 S
C608 C609 1.524 1_545 S
C608 H627 0.913 . S
C609 H585 0.950 . S
C609 C608 1.524 1_565 S
C609 C610 1.415 . S
C610 H586 0.950 . S
C610 C605 1.363 . S
C610 C609 1.415 . S
C611 H587 0.951 . S
C611 C612 1.366 . S
C611 C613 1.388 . S
C612 C611 1.366 . S
C612 C616 1.385 . S
C613 H588 0.951 . S
C613 C611 1.388 . S
C613 C614 1.366 . S
C614 C613 1.366 . S
C614 C615 1.414 . S
C614 C617 1.499 . S
C615 H589 0.950 . S
C615 C614 1.414 . S
C615 C616 1.374 . S
C616 H590 0.950 . S
C616 C612 1.385 . S
C616 C615 1.374 . S
C617 C614 1.499 . S
C617 C618 1.373 . S
C617 C619 1.389 . S
C618 H591 0.950 . S
C618 C604 1.377 . S
C618 C617 1.373 . S
C619 C603 1.377 . S
C619 C617 1.389 . S
C619 C620 1.524 . S
C620 C619 1.524 . S
C620 C621 1.397 . S
C620 C625 1.363 . S
C621 H592 0.950 . S
C621 C620 1.397 . S
C621 C622 1.334 . S
C622 H593 0.950 . S
C622 C621 1.334 . S
C622 C623 1.287 . S
C623 C622 1.287 . S
C623 C624 1.524 . S
C623 H626 0.999 . S
C624 H594 0.950 . S
C624 C623 1.524 . S
C624 C625 1.415 . S
C625 H595 0.950 . S
C625 C620 1.363 . S
C625 C624 1.415 . S
H626 C623 0.999 . S
H627 C608 0.913 . S
H628 C646 0.951 . S
H629 C648 0.951 . S
H630 C650 0.950 . S
H631 C651 0.950 . S
H632 C653 0.950 . S
H633 C656 0.950 . S
H634 C657 0.950 . S
H635 C659 0.950 . S
H636 C660 0.950 . S
H637 C661 0.951 . S
H638 C663 0.951 . S
H639 C665 0.950 . S
H640 C666 0.950 . S
H641 C668 0.950 . S
H642 C671 0.950 . S
H643 C672 0.950 1_565 S
H644 C674 0.950 . S
H645 C675 0.950 . S
C646 H628 0.951 . S
C646 C647 1.366 . S
C646 C648 1.388 . S
C647 C646 1.366 . S
C647 C651 1.385 . S
C648 H629 0.951 . S
C648 C646 1.388 . S
C648 C649 1.366 . S
C649 C648 1.366 . S
C649 C650 1.414 . S
C649 C652 1.499 . S
C650 H630 0.950 . S
C650 C649 1.414 . S
C650 C651 1.374 . S
C651 H631 0.950 . S
C651 C647 1.385 . S
C651 C650 1.374 . S
C652 C649 1.499 . S
C652 C653 1.373 . S
C652 C654 1.389 . S
C653 H632 0.950 . S
C653 C652 1.373 . S
C653 C669 1.377 . S
C654 C652 1.389 . S
C654 C655 1.524 . S
C654 C668 1.377 . S
C655 C654 1.524 . S
C655 C656 1.397 . S
C655 C660 1.363 . S
C656 H633 0.950 . S
C656 C655 1.397 . S
C656 C657 1.334 . S
C657 H634 0.950 . S
C657 C656 1.334 . S
C657 C658 1.287 . S
C658 C657 1.287 . S
C658 C659 1.524 . S
C658 H677 0.913 . S
C659 H635 0.950 . S
C659 C658 1.524 . S
C659 C660 1.415 . S
C660 H636 0.950 . S
C660 C655 1.363 . S
C660 C659 1.415 . S
C661 H637 0.951 . S
C661 C662 1.366 . S
C661 C663 1.388 . S
C662 C661 1.366 . S
C662 C666 1.385 . S
C663 H638 0.951 . S
C663 C661 1.388 . S
C663 C664 1.366 . S
C664 C663 1.366 . S
C664 C665 1.414 . S
C664 C667 1.499 . S
C665 H639 0.950 . S
C665 C664 1.414 . S
C665 C666 1.374 . S
C666 H640 0.950 . S
C666 C662 1.385 . S
C666 C665 1.374 . S
C667 C664 1.499 . S
C667 C668 1.373 . S
C667 C669 1.389 . S
C668 H641 0.950 . S
C668 C654 1.377 . S
C668 C667 1.373 . S
C669 C653 1.377 . S
C669 C667 1.389 . S
C669 C670 1.524 . S
C670 C669 1.524 . S
C670 C671 1.397 . S
C670 C675 1.363 . S
C671 H642 0.950 . S
C671 C670 1.397 . S
C671 C672 1.334 . S
C672 H643 0.950 1_545 S
C672 C671 1.334 . S
C672 C673 1.287 . S
C673 C672 1.287 . S
C673 C674 1.524 . S
C673 H676 0.999 . S
C674 H644 0.950 . S
C674 C673 1.524 . S
C674 C675 1.415 . S
C675 H645 0.950 . S
C675 C670 1.363 . S
C675 C674 1.415 . S
H676 C673 0.999 . S
H677 C658 0.913 . S
H678 C696 0.951 . S
H679 C698 0.951 . S
H680 C700 0.950 . S
H681 C701 0.950 . S
H682 C703 0.950 . S
H683 C706 0.950 . S
H684 C707 0.950 1_565 S
H685 C709 0.950 . S
H686 C710 0.950 . S
H687 C711 0.951 . S
H688 C713 0.951 . S
H689 C715 0.950 . S
H690 C716 0.950 1_455 S
H691 C718 0.950 . S
H692 C721 0.950 . S
H693 C722 0.950 . S
H694 C724 0.950 . S
H695 C725 0.950 . S
C696 H678 0.951 . S
C696 C697 1.366 . S
C696 C698 1.388 . S
C697 C696 1.366 . S
C697 C701 1.385 . S
C698 H679 0.951 . S
C698 C696 1.388 . S
C698 C699 1.366 . S
C699 C698 1.366 . S
C699 C700 1.414 . S
C699 C702 1.499 . S
C700 H680 0.950 . S
C700 C699 1.414 . S
C700 C701 1.374 . S
C701 H681 0.950 . S
C701 C697 1.385 . S
C701 C700 1.374 . S
C702 C699 1.499 . S
C702 C703 1.373 . S
C702 C704 1.389 . S
C703 H682 0.950 . S
C703 C702 1.373 . S
C703 C719 1.377 . S
C704 C702 1.389 . S
C704 C705 1.524 . S
C704 C718 1.377 . S
C705 C704 1.524 . S
C705 C706 1.397 . S
C705 C710 1.363 . S
C706 H683 0.950 . S
C706 C705 1.397 . S
C706 C707 1.334 . S
C707 H684 0.950 1_545 S
C707 C706 1.334 . S
C707 C708 1.287 . S
C708 C707 1.287 . S
C708 C709 1.524 . S
C708 H727 0.913 1_545 S
C709 H685 0.950 . S
C709 C708 1.524 . S
C709 C710 1.415 . S
C710 H686 0.950 . S
C710 C705 1.363 . S
C710 C709 1.415 . S
C711 H687 0.951 . S
C711 C712 1.366 . S
C711 C713 1.388 . S
C712 C711 1.366 . S
C712 C716 1.385 . S
C713 H688 0.951 . S
C713 C711 1.388 . S
C713 C714 1.366 . S
C714 C713 1.366 . S
C714 C715 1.414 . S
C714 C717 1.499 . S
C715 H689 0.950 . S
C715 C714 1.414 . S
C715 C716 1.374 . S
C716 H690 0.950 1_655 S
C716 C712 1.385 . S
C716 C715 1.374 . S
C717 C714 1.499 . S
C717 C718 1.373 . S
C717 C719 1.389 . S
C718 H691 0.950 . S
C718 C704 1.377 . S
C718 C717 1.373 . S
C719 C703 1.377 . S
C719 C717 1.389 . S
C719 C720 1.524 . S
C720 C719 1.524 . S
C720 C721 1.397 . S
C720 C725 1.363 . S
C721 H692 0.950 . S
C721 C720 1.397 . S
C721 C722 1.334 . S
C722 H693 0.950 . S
C722 C721 1.334 . S
C722 C723 1.287 . S
C723 C722 1.287 . S
C723 C724 1.524 . S
C723 H726 0.999 . S
C724 H694 0.950 . S
C724 C723 1.524 . S
C724 C725 1.415 . S
C725 H695 0.950 . S
C725 C720 1.363 . S
C725 C724 1.415 . S
H726 C723 0.999 . S
H727 C708 0.913 1_565 S
C147 N82 2.931 1_556 S
C162 N13 2.939 . S
C197 N114 2.939 . S
C212 N45 2.931 . S
C247 N77 0.911 . S
C262 N18 0.911 . S
C297 N50 0.912 . S
C312 N109 0.911 . S
C347 C36 1.622 . S
C362 C6 1.613 . S
C397 C38 2.019 . S
C412 C66 2.018 . S
C447 C98 1.614 . S
C462 C93 1.622 . S
C497 C125 1.278 . S
C512 C4 1.279 . S
C547 C68 1.724 . S
C562 C102 1.726 . S
C597 C29 1.972 . S
C612 C100 1.972 . S
C647 C61 1.723 . S
C662 C2 1.727 1_556 S
C697 C70 1.508 . S
C712 C34 1.508 . S
