# Generated by pormake.
# Topology wlk, (5)-cn, num edge types: 1
# Building blocks:
#     Node 0, Type 0, BuildingBlock: XOMCOT_clean_sbu_0, # of connection points: 5
#     Node 1, Type 0, BuildingBlock: XOMCOT_clean_sbu_0, # of connection points: 5
#     Node 2, Type 0, BuildingBlock: XOMCOT_clean_sbu_0, # of connection points: 5
#     Node 3, Type 0, BuildingBlock: XOMCOT_clean_sbu_0, # of connection points: 5
#     Node 4, Type 0, BuildingBlock: XOMCOT_clean_sbu_0, # of connection points: 5
#     Node 5, Type 0, BuildingBlock: XOMCOT_clean_sbu_0, # of connection points: 5
#     Node 6, Type 0, BuildingBlock: XOMCOT_clean_sbu_0, # of connection points: 5
#     Node 7, Type 0, BuildingBlock: XOMCOT_clean_sbu_0, # of connection points: 5
#     Node 8, Type 0, BuildingBlock: XOMCOT_clean_sbu_0, # of connection points: 5
#     Node 9, Type 0, BuildingBlock: XOMCOT_clean_sbu_0, # of connection points: 5
#     Node 10, Type 0, BuildingBlock: XOMCOT_clean_sbu_0, # of connection points: 5
#     Node 11, Type 0, BuildingBlock: XOMCOT_clean_sbu_0, # of connection points: 5
#     Node 12, Type 0, BuildingBlock: XOMCOT_clean_sbu_0, # of connection points: 5
#     Node 13, Type 0, BuildingBlock: XOMCOT_clean_sbu_0, # of connection points: 5
#     Node 14, Type 0, BuildingBlock: XOMCOT_clean_sbu_0, # of connection points: 5
#     Node 15, Type 0, BuildingBlock: XOMCOT_clean_sbu_0, # of connection points: 5
#     Node 16, Type 0, BuildingBlock: XOMCOT_clean_sbu_0, # of connection points: 5
#     Node 17, Type 0, BuildingBlock: XOMCOT_clean_sbu_0, # of connection points: 5
#     Edge 18, Type (0, 0), BuildingBlock: ZUJKAS_clean_linker_0, # of connection points: 2
#     Edge 19, Type (0, 0), BuildingBlock: ZUJKAS_clean_linker_0, # of connection points: 2
#     Edge 20, Type (0, 0), BuildingBlock: ZUJKAS_clean_linker_0, # of connection points: 2
#     Edge 21, Type (0, 0), BuildingBlock: ZUJKAS_clean_linker_0, # of connection points: 2
#     Edge 22, Type (0, 0), BuildingBlock: ZUJKAS_clean_linker_0, # of connection points: 2
#     Edge 23, Type (0, 0), BuildingBlock: ZUJKAS_clean_linker_0, # of connection points: 2
#     Edge 24, Type (0, 0), BuildingBlock: ZUJKAS_clean_linker_0, # of connection points: 2
#     Edge 25, Type (0, 0), BuildingBlock: ZUJKAS_clean_linker_0, # of connection points: 2
#     Edge 26, Type (0, 0), BuildingBlock: ZUJKAS_clean_linker_0, # of connection points: 2
#     Edge 27, Type (0, 0), BuildingBlock: ZUJKAS_clean_linker_0, # of connection points: 2
#     Edge 28, Type (0, 0), BuildingBlock: ZUJKAS_clean_linker_0, # of connection points: 2
#     Edge 29, Type (0, 0), BuildingBlock: ZUJKAS_clean_linker_0, # of connection points: 2
#     Edge 30, Type (0, 0), BuildingBlock: ZUJKAS_clean_linker_0, # of connection points: 2
#     Edge 31, Type (0, 0), BuildingBlock: ZUJKAS_clean_linker_0, # of connection points: 2
#     Edge 32, Type (0, 0), BuildingBlock: ZUJKAS_clean_linker_0, # of connection points: 2
#     Edge 33, Type (0, 0), BuildingBlock: ZUJKAS_clean_linker_0, # of connection points: 2
#     Edge 34, Type (0, 0), BuildingBlock: ZUJKAS_clean_linker_0, # of connection points: 2
#     Edge 35, Type (0, 0), BuildingBlock: ZUJKAS_clean_linker_0, # of connection points: 2
#     Edge 36, Type (0, 0), BuildingBlock: ZUJKAS_clean_linker_0, # of connection points: 2
#     Edge 37, Type (0, 0), BuildingBlock: ZUJKAS_clean_linker_0, # of connection points: 2
#     Edge 38, Type (0, 0), BuildingBlock: ZUJKAS_clean_linker_0, # of connection points: 2
#     Edge 39, Type (0, 0), BuildingBlock: ZUJKAS_clean_linker_0, # of connection points: 2
#     Edge 40, Type (0, 0), BuildingBlock: ZUJKAS_clean_linker_0, # of connection points: 2
#     Edge 41, Type (0, 0), BuildingBlock: ZUJKAS_clean_linker_0, # of connection points: 2
#     Edge 42, Type (0, 0), BuildingBlock: ZUJKAS_clean_linker_0, # of connection points: 2
#     Edge 43, Type (0, 0), BuildingBlock: ZUJKAS_clean_linker_0, # of connection points: 2
#     Edge 44, Type (0, 0), BuildingBlock: ZUJKAS_clean_linker_0, # of connection points: 2
#     Edge 45, Type (0, 0), BuildingBlock: ZUJKAS_clean_linker_0, # of connection points: 2
#     Edge 46, Type (0, 0), BuildingBlock: ZUJKAS_clean_linker_0, # of connection points: 2
#     Edge 47, Type (0, 0), BuildingBlock: ZUJKAS_clean_linker_0, # of connection points: 2
#     Edge 48, Type (0, 0), BuildingBlock: ZUJKAS_clean_linker_0, # of connection points: 2
#     Edge 49, Type (0, 0), BuildingBlock: ZUJKAS_clean_linker_0, # of connection points: 2
#     Edge 50, Type (0, 0), BuildingBlock: ZUJKAS_clean_linker_0, # of connection points: 2
#     Edge 51, Type (0, 0), BuildingBlock: ZUJKAS_clean_linker_0, # of connection points: 2
#     Edge 52, Type (0, 0), BuildingBlock: ZUJKAS_clean_linker_0, # of connection points: 2
#     Edge 53, Type (0, 0), BuildingBlock: ZUJKAS_clean_linker_0, # of connection points: 2
#     Edge 54, Type (0, 0), BuildingBlock: ZUJKAS_clean_linker_0, # of connection points: 2
#     Edge 55, Type (0, 0), BuildingBlock: ZUJKAS_clean_linker_0, # of connection points: 2
#     Edge 56, Type (0, 0), BuildingBlock: ZUJKAS_clean_linker_0, # of connection points: 2
#     Edge 57, Type (0, 0), BuildingBlock: ZUJKAS_clean_linker_0, # of connection points: 2
#     Edge 58, Type (0, 0), BuildingBlock: ZUJKAS_clean_linker_0, # of connection points: 2
#     Edge 59, Type (0, 0), BuildingBlock: ZUJKAS_clean_linker_0, # of connection points: 2
#     Edge 60, Type (0, 0), BuildingBlock: ZUJKAS_clean_linker_0, # of connection points: 2
#     Edge 61, Type (0, 0), BuildingBlock: ZUJKAS_clean_linker_0, # of connection points: 2
#     Edge 62, Type (0, 0), BuildingBlock: ZUJKAS_clean_linker_0, # of connection points: 2
# Relax obj value: 0.217
# Max RMSD: 0.252
# Mean RMSD: 0.252
data_MOF--net-wlk--node1-XOMCOT_clean_sbu_0--edge1-ZUJKAS_clean_linker_0
_symmetry_space_group_name_H-M    P1
_symmetry_Int_Tables_number       1
_symmetry_cell_setting            triclinic
loop_
_symmetry_equiv_pos_as_xyz
'x, y, z'
_cell_length_a     82.576753
_cell_length_b     82.448117
_cell_length_c     35.567552
_cell_angle_alpha  89.924776
_cell_angle_beta   90.089409
_cell_angle_gamma 120.06511
loop_
_atom_site_label
_atom_site_type_symbol
_atom_site_fract_x
_atom_site_fract_y
_atom_site_fract_z
_atom_type_partial_charge
Co0 Co 0.20524 0.27004 0.10273 0.0
C1 C 0.2119 0.24389 0.05557 0.0
C2 C 0.18279 0.23402 0.06384 0.0
C3 C 0.18457 0.22014 0.04645 0.0
N4 N 0.19989 0.24928 0.06874 0.0
N5 N 0.2029 0.22629 0.04147 0.0
H6 H 0.22686 0.25175 0.0597 0.0
H7 H 0.16986 0.23231 0.07494 0.0
C8 C 0.17181 0.265 0.06139 0.0
O9 O 0.18133 0.26635 0.03081 0.0
N10 N 0.21037 0.28991 0.13792 0.0
C11 C 0.22701 0.30559 0.143 0.0
C12 C 0.2254 0.3157 0.17198 0.0
C13 C 0.19886 0.29055 0.16402 0.0
N14 N 0.20772 0.30624 0.18533 0.0
C15 C 0.23156 0.29105 0.04506 0.0
C16 C 0.22224 0.31883 0.03897 0.0
C17 C 0.23883 0.3216 0.02255 0.0
C18 C 0.24311 0.30723 0.02471 0.0
C19 C 0.2111 0.30242 0.05951 0.0
N20 N 0.21599 0.28886 0.06294 0.0
H21 H 0.23621 0.28113 0.04906 0.0
H22 H 0.19937 0.30133 0.07509 0.0
H23 H 0.2395 0.30935 0.12685 0.0
H24 H 0.18451 0.27954 0.16793 0.0
O25 O 0.22794 0.2711 0.11808 0.0
O26 O 0.20037 0.25288 0.14467 0.0
O27 O 0.1792 0.26612 0.0937 0.0
C28 C 0.21826 0.25864 0.14335 0.0
H29 H 0.17323 0.20623 0.03986 0.0
H30 H 0.23642 0.32906 0.18227 0.0
H31 H 0.21865 0.32979 0.03828 0.0
H32 H 0.25588 0.30894 0.01247 0.0
Co33 Co 0.73601 0.93338 0.09824 0.0
C34 C 0.76465 0.96852 0.06014 0.0
C35 C 0.76373 0.94409 0.0369 0.0
C36 C 0.77719 0.95964 0.01807 0.0
N37 N 0.75598 0.94963 0.0637 0.0
N38 N 0.77767 0.97494 0.03266 0.0
H39 H 0.76158 0.97752 0.07708 0.0
H40 H 0.75968 0.92973 0.03071 0.0
C41 C 0.73697 0.89643 0.099 0.0
O42 O 0.72107 0.8873 0.11715 0.0
N43 N 0.71607 0.9177 0.13295 0.0
C44 C 0.69817 0.91376 0.13056 0.0
C45 C 0.68842 0.90302 0.16096 0.0
C46 C 0.71719 0.91024 0.16608 0.0
N47 N 0.7003 0.90055 0.1831 0.0
C48 C 0.71676 0.93723 0.036 0.0
C49 C 0.69185 0.89962 0.02406 0.0
C50 C 0.68915 0.91297 0.005 0.0
C51 C 0.70222 0.93198 0.01026 0.0
C52 C 0.70678 0.90549 0.04923 0.0
N53 N 0.71861 0.92412 0.05603 0.0
H54 H 0.72597 0.95197 0.0414 0.0
H55 H 0.70783 0.89497 0.06494 0.0
H56 H 0.69255 0.91848 0.10836 0.0
H57 H 0.72995 0.91115 0.17646 0.0
O58 O 0.73218 0.95367 0.11239 0.0
O59 O 0.75198 0.9469 0.14077 0.0
O60 O 0.74383 0.91375 0.09037 0.0
C61 C 0.74455 0.95761 0.13866 0.0
H62 H 0.78564 0.95965 0.99482 0.0
H63 H 0.67369 0.89754 0.16632 0.0
H64 H 0.68211 0.88478 0.02057 0.0
H65 H 0.70059 0.94278 0.99639 0.0
Co66 Co 0.08278 0.81051 0.09405 0.0
C67 C 0.04734 0.80521 0.05958 0.0
C68 C 0.07162 0.82432 0.02808 0.0
C69 C 0.05595 0.82212 0.00964 0.0
N70 N 0.06626 0.81379 0.05956 0.0
N71 N 0.04068 0.81008 0.02947 0.0
H72 H 0.03849 0.79505 0.08028 0.0
H73 H 0.08591 0.83268 0.01853 0.0
C74 C 0.12034 0.84745 0.08926 0.0
O75 O 0.12913 0.84041 0.10784 0.0
N76 N 0.09876 0.80662 0.12869 0.0
C77 C 0.10181 0.79203 0.12773 0.0
C78 C 0.11232 0.79293 0.15843 0.0
C79 C 0.10666 0.81565 0.16124 0.0
N80 N 0.11562 0.80793 0.17939 0.0
C81 C 0.07616 0.78421 0.03708 0.0
C82 C 0.11291 0.79496 0.02079 0.0
C83 C 0.09857 0.77764 0.00779 0.0
C84 C 0.08 0.77269 0.0148 0.0
C85 C 0.10844 0.80609 0.04343 0.0
N86 N 0.09025 0.80016 0.05279 0.0
H87 H 0.06175 0.77959 0.04387 0.0
H88 H 0.11971 0.81857 0.05544 0.0
H89 H 0.09637 0.78113 0.10665 0.0
H90 H 0.1063 0.82793 0.17069 0.0
O91 O 0.06243 0.7873 0.11194 0.0
O92 O 0.07068 0.81501 0.13672 0.0
O93 O 0.10284 0.8374 0.08191 0.0
C94 C 0.0596 0.79685 0.1374 0.0
H95 H 0.05588 0.82886 0.98357 0.0
H96 H 0.11685 0.78302 0.16503 0.0
H97 H 0.12744 0.79924 0.01571 0.0
H98 H 0.06853 0.75954 0.00463 0.0
Co99 Co 0.81651 0.74566 0.90035 0.0
C100 C 0.80951 0.7719 0.94639 0.0
C101 C 0.83865 0.78111 0.94154 0.0
C102 C 0.83681 0.79496 0.95899 0.0
N103 N 0.82153 0.76628 0.93448 0.0
N104 N 0.81846 0.78919 0.9619 0.0
H105 H 0.7947 0.7645 0.94047 0.0
H106 H 0.85174 0.78254 0.93213 0.0
C107 C 0.84805 0.74898 0.94662 0.0
O108 O 0.83776 0.74755 0.97598 0.0
N109 N 0.81166 0.72586 0.86515 0.0
C110 C 0.79484 0.71064 0.85858 0.0
C111 C 0.79672 0.7002 0.83066 0.0
C112 C 0.82355 0.72468 0.84079 0.0
N113 N 0.81476 0.709 0.81943 0.0
C114 C 0.7877 0.72479 0.95434 0.0
C115 C 0.79611 0.69661 0.96533 0.0
C116 C 0.77945 0.69447 0.98021 0.0
C117 C 0.77559 0.70905 0.97531 0.0
C118 C 0.80789 0.71265 0.94435 0.0
N119 N 0.80362 0.72654 0.93893 0.0
H120 H 0.78341 0.73482 0.94829 0.0
H121 H 0.81983 0.71331 0.93045 0.0
H122 H 0.78203 0.70747 0.87286 0.0
H123 H 0.83825 0.73507 0.83873 0.0
O124 O 0.79511 0.74621 0.88088 0.0
O125 O 0.8241 0.76343 0.85903 0.0
O126 O 0.84165 0.74828 0.91344 0.0
C127 C 0.8065 0.7587 0.85725 0.0
H128 H 0.84817 0.80856 0.96728 0.0
H129 H 0.78552 0.68738 0.81882 0.0
H130 H 0.79947 0.68553 0.96794 0.0
H131 H 0.76288 0.70799 0.98636 0.0
Co132 Co 0.28136 0.07917 0.90289 0.0
C133 C 0.25051 0.04402 0.93736 0.0
C134 C 0.25614 0.06865 0.96812 0.0
C135 C 0.24227 0.0532 0.98647 0.0
N136 N 0.26131 0.06295 0.9372 0.0
N137 N 0.23874 0.0377 0.96711 0.0
H138 H 0.25159 0.0349 0.91701 0.0
H139 H 0.26229 0.08305 0.97728 0.0
C140 C 0.28153 0.11656 0.90415 0.0
O141 O 0.29718 0.12526 0.88506 0.0
N142 N 0.30146 0.09487 0.86841 0.0
C143 C 0.31919 0.09826 0.87054 0.0
C144 C 0.32893 0.10844 0.83962 0.0
C145 C 0.30043 0.10217 0.83498 0.0
N146 N 0.31723 0.11113 0.81736 0.0
C147 C 0.30052 0.07392 0.96364 0.0
C148 C 0.32569 0.11123 0.97801 0.0
C149 C 0.32818 0.09746 0.99583 0.0
C150 C 0.315 0.07859 0.98928 0.0
C151 C 0.31086 0.10594 0.95281 0.0
N152 N 0.29889 0.08747 0.94486 0.0
H153 H 0.2911 0.0593 0.95741 0.0
H154 H 0.30995 0.11679 0.93808 0.0
H155 H 0.32464 0.09331 0.89265 0.0
H156 H 0.28776 0.10141 0.8245 0.0
O157 O 0.28441 0.05864 0.88683 0.0
O158 O 0.26512 0.06667 0.86019 0.0
O159 O 0.27435 0.09921 0.9128 0.0
C160 C 0.27225 0.05568 0.86064 0.0
H161 H 0.23537 0.05342 0.01215 0.0
H162 H 0.34349 0.11318 0.83379 0.0
H163 H 0.33547 0.12598 0.98257 0.0
H164 H 0.31643 0.06747 0.00219 0.0
Co165 Co 0.93823 0.20107 0.91337 0.0
C166 C 0.97154 0.20754 0.95903 0.0
C167 C 0.95244 0.17845 0.94951 0.0
C168 C 0.96815 0.1802 0.96669 0.0
N169 N 0.95413 0.19554 0.94569 0.0
N170 N 0.98022 0.19853 0.97255 0.0
H171 H 0.97861 0.22256 0.95549 0.0
H172 H 0.94122 0.16557 0.93808 0.0
C173 C 0.9107 0.16731 0.95491 0.0
O174 O 0.9195 0.17669 0.98526 0.0
N175 N 0.92305 0.20639 0.87968 0.0
C176 C 0.92372 0.22296 0.87605 0.0
C177 C 0.91156 0.22147 0.84804 0.0
C178 C 0.91066 0.19506 0.85357 0.0
N179 N 0.90337 0.20394 0.83369 0.0
C180 C 0.94411 0.22644 0.97379 0.0
C181 C 0.90718 0.21739 0.98076 0.0
C182 C 0.9211 0.23346 0.99891 0.0
C183 C 0.93965 0.23738 0.9965 0.0
C184 C 0.91224 0.20657 0.95869 0.0
N185 N 0.93061 0.21141 0.95464 0.0
H186 H 0.95863 0.23112 0.96945 0.0
H187 H 0.90149 0.19516 0.94248 0.0
H188 H 0.93252 0.23531 0.89261 0.0
H189 H 0.90746 0.1808 0.84869 0.0
O190 O 0.95978 0.22392 0.89792 0.0
O191 O 0.94983 0.19647 0.8701 0.0
O192 O 0.9162 0.17493 0.9225 0.0
C193 C 0.96217 0.21433 0.87187 0.0
H194 H 0.97078 0.16886 0.97273 0.0
H195 H 0.90894 0.2325 0.83916 0.0
H196 H 0.89267 0.2139 0.98144 0.0
H197 H 0.95087 0.24947 0.01046 0.0
Co198 Co 0.87487 0.60899 0.42554 0.0
C199 C 0.88038 0.58176 0.37935 0.0
C200 C 0.85147 0.5729 0.38733 0.0
C201 C 0.85269 0.55856 0.37055 0.0
N202 N 0.86881 0.58782 0.39203 0.0
N203 N 0.87089 0.56407 0.36575 0.0
H204 H 0.89536 0.58925 0.38343 0.0
H205 H 0.83872 0.57167 0.39826 0.0
C206 C 0.84151 0.6046 0.38507 0.0
O207 O 0.85093 0.60597 0.35432 0.0
N208 N 0.88067 0.62919 0.46039 0.0
C209 C 0.89756 0.6446 0.46521 0.0
C210 C 0.89627 0.65525 0.49347 0.0
C211 C 0.86936 0.6305 0.48607 0.0
N212 N 0.87855 0.64641 0.50663 0.0
C213 C 0.90003 0.62867 0.36488 0.0
C214 C 0.89238 0.65767 0.36125 0.0
C215 C 0.90802 0.65947 0.34203 0.0
C216 C 0.91127 0.64434 0.34285 0.0
C217 C 0.88133 0.6416 0.38274 0.0
N218 N 0.88547 0.62749 0.38513 0.0
H219 H 0.90405 0.61821 0.36772 0.0
H220 H 0.87026 0.64114 0.39969 0.0
H221 H 0.90999 0.64777 0.44942 0.0
H222 H 0.85477 0.62003 0.48957 0.0
O223 O 0.89748 0.60965 0.44013 0.0
O224 O 0.87006 0.59213 0.4679 0.0
O225 O 0.84893 0.60547 0.41725 0.0
C226 C 0.88784 0.59746 0.46589 0.0
H227 H 0.84104 0.54478 0.36428 0.0
H228 H 0.90767 0.66829 0.50412 0.0
H229 H 0.88941 0.66905 0.3618 0.0
H230 H 0.92301 0.64494 0.32802 0.0
Co231 Co 0.40885 0.27166 0.42038 0.0
C232 C 0.43892 0.30613 0.38283 0.0
C233 C 0.4322 0.28117 0.35217 0.0
C234 C 0.44564 0.29641 0.33251 0.0
N235 N 0.42801 0.28724 0.38387 0.0
N236 N 0.44986 0.31211 0.35185 0.0
H237 H 0.43852 0.31548 0.40352 0.0
H238 H 0.4257 0.26667 0.34355 0.0
C239 C 0.43097 0.25292 0.41987 0.0
O240 O 0.44432 0.26868 0.43412 0.0
N241 N 0.38971 0.25621 0.45635 0.0
C242 C 0.37327 0.25571 0.46081 0.0
C243 C 0.36314 0.2428 0.48816 0.0
C244 C 0.3895 0.24376 0.48133 0.0
N245 N 0.3733 0.23525 0.50104 0.0
C246 C 0.38773 0.27389 0.35985 0.0
C247 C 0.36149 0.23605 0.35725 0.0
C248 C 0.35775 0.2488 0.3384 0.0
C249 C 0.37163 0.26781 0.33827 0.0
C250 C 0.37803 0.24271 0.3781 0.0
N251 N 0.39037 0.26151 0.38061 0.0
H252 H 0.39755 0.28874 0.3619 0.0
H253 H 0.3801 0.23294 0.39482 0.0
H254 H 0.36891 0.26407 0.44495 0.0
H255 H 0.40079 0.24079 0.48456 0.0
O256 O 0.40557 0.29236 0.43401 0.0
O257 O 0.42543 0.28557 0.46198 0.0
O258 O 0.41507 0.25126 0.41274 0.0
C259 C 0.41798 0.29626 0.46011 0.0
H260 H 0.45181 0.29591 0.30603 0.0
H261 H 0.34941 0.23939 0.49811 0.0
H262 H 0.35122 0.22125 0.35813 0.0
H263 H 0.36965 0.27811 0.32318 0.0
Co264 Co 0.74807 0.14422 0.43044 0.0
C265 C 0.71339 0.14046 0.395 0.0
C266 C 0.7382 0.15943 0.36477 0.0
C267 C 0.72293 0.15806 0.34608 0.0
N268 N 0.73227 0.14845 0.39561 0.0
N269 N 0.70732 0.14611 0.36514 0.0
H270 H 0.70411 0.13016 0.41505 0.0
H271 H 0.75263 0.16757 0.35588 0.0
C272 C 0.78569 0.18127 0.4299 0.0
O273 O 0.79411 0.17404 0.44911 0.0
N274 N 0.76334 0.13954 0.46558 0.0
C275 C 0.76636 0.12491 0.46434 0.0
C276 C 0.7759 0.12505 0.49617 0.0
C277 C 0.77034 0.14784 0.49916 0.0
N278 N 0.77852 0.13954 0.51797 0.0
C279 C 0.74267 0.12015 0.36924 0.0
C280 C 0.77969 0.13073 0.3567 0.0
C281 C 0.76566 0.11496 0.33796 0.0
C282 C 0.74698 0.11008 0.34367 0.0
C283 C 0.77476 0.14063 0.38178 0.0
N284 N 0.75639 0.13488 0.38876 0.0
H285 H 0.72813 0.11547 0.37482 0.0
H286 H 0.78572 0.15202 0.39721 0.0
H287 H 0.76161 0.11455 0.4422 0.0
H288 H 0.76949 0.15973 0.50952 0.0
O289 O 0.72728 0.12067 0.44562 0.0
O290 O 0.7353 0.14784 0.47286 0.0
O291 O 0.76838 0.17129 0.42095 0.0
C292 C 0.72406 0.12972 0.47163 0.0
H293 H 0.72334 0.16528 0.32035 0.0
H294 H 0.78071 0.11532 0.50255 0.0
H295 H 0.79431 0.13503 0.3529 0.0
H296 H 0.73565 0.0979 0.33017 0.0
Co297 Co 0.47969 0.07358 0.24403 0.0
C298 C 0.47489 0.10371 0.28028 0.0
C299 C 0.49385 0.09791 0.31071 0.0
C300 C 0.49207 0.11145 0.3298 0.0
N301 N 0.48315 0.09307 0.2795 0.0
N302 N 0.48013 0.1151 0.31066 0.0
H303 H 0.46477 0.1028 0.25988 0.0
H304 H 0.50212 0.09174 0.3195 0.0
C305 C 0.51693 0.07367 0.24513 0.0
O306 O 0.50991 0.05814 0.22554 0.0
N307 N 0.47568 0.05401 0.20839 0.0
C308 C 0.46184 0.03598 0.20997 0.0
C309 C 0.4625 0.02685 0.17828 0.0
C310 C 0.48395 0.05578 0.17462 0.0
N311 N 0.47647 0.03924 0.15601 0.0
C312 C 0.45419 0.05299 0.30159 0.0
C313 C 0.46596 0.02751 0.31539 0.0
C314 C 0.44858 0.0239 0.32911 0.0
C315 C 0.44313 0.03725 0.32343 0.0
C316 C 0.47663 0.04348 0.29324 0.0
N317 N 0.47015 0.05544 0.28498 0.0
H318 H 0.44921 0.06261 0.29579 0.0
H319 H 0.48916 0.0452 0.28053 0.0
H320 H 0.45166 0.02985 0.23228 0.0
H321 H 0.4953 0.0689 0.16418 0.0
O322 O 0.45615 0.07047 0.22792 0.0
O323 O 0.48341 0.09039 0.20208 0.0
O324 O 0.50675 0.08072 0.25433 0.0
C325 C 0.46525 0.08307 0.20244 0.0
H326 H 0.49907 0.11808 0.35579 0.0
H327 H 0.45347 0.01209 0.17249 0.0
H328 H 0.4706 0.01745 0.31945 0.0
H329 H 0.42988 0.03503 0.33414 0.0
Co330 Co 0.9452 0.41188 0.23784 0.0
C331 C 0.91501 0.37741 0.27531 0.0
C332 C 0.92071 0.40253 0.30422 0.0
C333 C 0.90715 0.38736 0.32379 0.0
N334 N 0.92565 0.39633 0.27369 0.0
N335 N 0.90356 0.37156 0.30555 0.0
H336 H 0.916 0.36796 0.2557 0.0
H337 H 0.92684 0.41708 0.31226 0.0
C338 C 0.94564 0.4494 0.23692 0.0
O339 O 0.9611 0.45761 0.21713 0.0
N340 N 0.96468 0.42688 0.20169 0.0
C341 C 0.98244 0.43027 0.20251 0.0
C342 C 0.99144 0.43961 0.17023 0.0
C343 C 0.96289 0.43341 0.16793 0.0
N344 N 0.97918 0.44172 0.14862 0.0
C345 C 0.96488 0.40765 0.29877 0.0
C346 C 0.9908 0.44507 0.30979 0.0
C347 C 0.99305 0.43147 0.32902 0.0
C348 C 0.97952 0.41258 0.32407 0.0
C349 C 0.97574 0.43952 0.285 0.0
N350 N 0.96335 0.42097 0.27879 0.0
H351 H 0.95518 0.39296 0.29384 0.0
H352 H 0.97495 0.45019 0.26927 0.0
H353 H 0.98843 0.42597 0.22475 0.0
H354 H 0.94996 0.43225 0.15795 0.0
O355 O 0.94811 0.39111 0.22328 0.0
O356 O 0.92832 0.39838 0.19638 0.0
O357 O 0.93835 0.43216 0.2466 0.0
C358 C 0.93555 0.38747 0.1976 0.0
H359 H 0.90049 0.38796 0.34952 0.0
H360 H 1.00599 0.44472 0.16348 0.0
H361 H 1.00089 0.45983 0.31302 0.0
H362 H 0.98078 0.40157 0.33801 0.0
Co363 Co 0.60815 0.53993 0.23609 0.0
C364 C 0.64047 0.54697 0.28543 0.0
C365 C 0.62159 0.51774 0.27694 0.0
C366 C 0.63692 0.51978 0.29629 0.0
N367 N 0.62338 0.53475 0.27107 0.0
N368 N 0.64887 0.53819 0.30149 0.0
H369 H 0.64736 0.56195 0.28176 0.0
H370 H 0.6107 0.50471 0.26531 0.0
C371 C 0.57956 0.50615 0.2766 0.0
O372 O 0.58716 0.51575 0.30747 0.0
N373 N 0.59362 0.54495 0.2001 0.0
C374 C 0.59457 0.56158 0.19476 0.0
C375 C 0.58299 0.5599 0.1654 0.0
C376 C 0.58157 0.53338 0.17378 0.0
N377 N 0.57483 0.5422 0.15206 0.0
C378 C 0.61289 0.56628 0.29342 0.0
C379 C 0.57556 0.55597 0.2997 0.0
C380 C 0.58913 0.57243 0.31709 0.0
C381 C 0.6079 0.57732 0.31451 0.0
C382 C 0.58118 0.54533 0.27848 0.0
N383 N 0.59972 0.55057 0.27533 0.0
H384 H 0.62751 0.5714 0.28922 0.0
H385 H 0.57071 0.5336 0.26251 0.0
H386 H 0.60321 0.57409 0.21101 0.0
H387 H 0.57821 0.51901 0.17004 0.0
O388 O 0.63002 0.56271 0.22142 0.0
O389 O 0.62062 0.53509 0.19468 0.0
O390 O 0.5861 0.51371 0.24453 0.0
C391 C 0.63291 0.55295 0.19658 0.0
H392 H 0.63971 0.50862 0.30318 0.0
H393 H 0.58069 0.57091 0.15489 0.0
H394 H 0.56093 0.55204 0.30053 0.0
H395 H 0.61876 0.59018 0.32706 0.0
Co396 Co 0.54112 0.94289 0.7629 0.0
C397 C 0.54821 0.91685 0.71654 0.0
C398 C 0.51899 0.90727 0.72119 0.0
C399 C 0.52108 0.89377 0.70284 0.0
N400 N 0.53602 0.92221 0.72867 0.0
N401 N 0.53946 0.89976 0.70018 0.0
H402 H 0.56311 0.92459 0.72172 0.0
H403 H 0.5058 0.90538 0.73108 0.0
C404 C 0.50734 0.93771 0.7226 0.0
O405 O 0.5168 0.9396 0.69162 0.0
N406 N 0.54614 0.96272 0.79819 0.0
C407 C 0.56298 0.97794 0.80455 0.0
C408 C 0.56112 0.9886 0.83198 0.0
C409 C 0.53423 0.96423 0.82198 0.0
N410 N 0.54303 0.98005 0.84298 0.0
C411 C 0.56589 0.96331 0.70215 0.0
C412 C 0.55635 0.99098 0.69779 0.0
C413 C 0.57163 0.993 0.67687 0.0
C414 C 0.57607 0.97869 0.67868 0.0
C415 C 0.5464 0.97524 0.72073 0.0
N416 N 0.55127 0.96165 0.72296 0.0
H417 H 0.57066 0.95344 0.70534 0.0
H418 H 0.53532 0.97444 0.73818 0.0
H419 H 0.57577 0.98102 0.79026 0.0
H420 H 0.51948 0.954 0.82365 0.0
O421 O 0.5641 0.94434 0.77758 0.0
O422 O 0.53672 0.92587 0.80472 0.0
O423 O 0.51486 0.93849 0.75459 0.0
C424 C 0.55463 0.93179 0.8029 0.0
H425 H 0.50994 0.87997 0.69486 0.0
H426 H 0.5724 1.00148 0.8434 0.0
H427 H 0.55246 1.00172 0.6973 0.0
H428 H 0.58807 0.97989 0.66386 0.0
Co429 Co 0.07354 0.60193 0.75375 0.0
C430 C 0.09958 0.63432 0.70535 0.0
C431 C 0.10975 0.61546 0.71585 0.0
C432 C 0.12355 0.63101 0.69796 0.0
N433 N 0.09436 0.61712 0.71968 0.0
N434 N 0.11722 0.64298 0.69161 0.0
H435 H 0.09155 0.64131 0.70845 0.0
H436 H 0.11161 0.6045 0.72806 0.0
C437 C 0.0793 0.57328 0.71572 0.0
O438 O 0.07809 0.58101 0.68428 0.0
N439 N 0.05363 0.58745 0.78904 0.0
C440 C 0.03779 0.58813 0.79323 0.0
C441 C 0.0274 0.57608 0.82165 0.0
C442 C 0.05281 0.57517 0.81514 0.0
N443 N 0.03684 0.56793 0.83556 0.0
C444 C 0.05302 0.60537 0.69186 0.0
C445 C 0.02583 0.56789 0.68911 0.0
C446 C 0.02344 0.58078 0.66762 0.0
C447 C 0.03752 0.59966 0.66845 0.0
C448 C 0.04168 0.57416 0.71182 0.0
N449 N 0.05499 0.59277 0.71341 0.0
H450 H 0.06266 0.62012 0.6945 0.0
H451 H 0.04267 0.56415 0.72993 0.0
H452 H 0.03402 0.59673 0.77656 0.0
H453 H 0.06383 0.57189 0.81941 0.0
O454 O 0.07209 0.62371 0.76663 0.0
O455 O 0.09024 0.61492 0.7957 0.0
O456 O 0.07793 0.57994 0.74733 0.0
C457 C 0.08443 0.62696 0.79254 0.0
H458 H 0.13755 0.63373 0.69214 0.0
H459 H 0.01381 0.5734 0.83092 0.0
H460 H 0.01523 0.55318 0.68938 0.0
H461 H 0.03601 0.61017 0.65304 0.0
Co462 Co 0.40869 0.47533 0.766 0.0
C463 C 0.37571 0.46841 0.71862 0.0
C464 C 0.39374 0.49744 0.7311 0.0
C465 C 0.37808 0.49545 0.71329 0.0
N466 N 0.39267 0.48058 0.7336 0.0
N467 N 0.36668 0.47717 0.70559 0.0
H468 H 0.36912 0.45337 0.72063 0.0
H469 H 0.40453 0.51023 0.74376 0.0
C470 C 0.43559 0.50921 0.72381 0.0
O471 O 0.42653 0.49982 0.69366 0.0
N472 N 0.42406 0.47027 0.79965 0.0
C473 C 0.42346 0.45374 0.8036 0.0
C474 C 0.43537 0.45528 0.83222 0.0
C475 C 0.4362 0.48164 0.82605 0.0
N476 N 0.44334 0.47279 0.84649 0.0
C477 C 0.40264 0.44846 0.70894 0.0
C478 C 0.43989 0.45974 0.69692 0.0
C479 C 0.42606 0.44271 0.68185 0.0
C480 C 0.40729 0.43736 0.68721 0.0
C481 C 0.43462 0.47041 0.71897 0.0
N482 N 0.41612 0.46468 0.72501 0.0
H483 H 0.38814 0.44296 0.71549 0.0
H484 H 0.44544 0.4825 0.73351 0.0
H485 H 0.41477 0.44134 0.7871 0.0
H486 H 0.43925 0.49585 0.83094 0.0
O487 O 0.38716 0.4526 0.7821 0.0
O488 O 0.3973 0.48022 0.80934 0.0
O489 O 0.43058 0.50148 0.75625 0.0
C490 C 0.38492 0.46237 0.80793 0.0
H491 H 0.37497 0.50654 0.7081 0.0
H492 H 0.43792 0.44429 0.84176 0.0
H493 H 0.45456 0.46408 0.69394 0.0
H494 H 0.39623 0.42412 0.67638 0.0
Co495 Co 0.14062 0.4018 0.57651 0.0
C496 C 0.13424 0.42744 0.62582 0.0
C497 C 0.16331 0.43737 0.61695 0.0
C498 C 0.1616 0.45106 0.63531 0.0
N499 N 0.14619 0.42218 0.61178 0.0
N500 N 0.14329 0.4449 0.64063 0.0
H501 H 0.11926 0.41965 0.62175 0.0
H502 H 0.1762 0.43925 0.60527 0.0
C503 C 0.17448 0.40663 0.61556 0.0
O504 O 0.16509 0.40472 0.64664 0.0
N505 N 0.13523 0.38235 0.54009 0.0
C506 C 0.11854 0.36677 0.53473 0.0
C507 C 0.12004 0.35688 0.50517 0.0
C508 C 0.14666 0.38185 0.5136 0.0
N509 N 0.1377 0.36637 0.49177 0.0
C510 C 0.11606 0.38067 0.63712 0.0
C511 C 0.12578 0.35309 0.63912 0.0
C512 C 0.11058 0.35079 0.66069 0.0
C513 C 0.10605 0.36504 0.66012 0.0
C514 C 0.13559 0.36908 0.61678 0.0
N515 N 0.13062 0.38263 0.6157 0.0
H516 H 0.1112 0.39051 0.63481 0.0
H517 H 0.14658 0.37009 0.59876 0.0
H518 H 0.10612 0.36291 0.5512 0.0
H519 H 0.16106 0.39281 0.5099 0.0
O520 O 0.11765 0.40075 0.56314 0.0
O521 O 0.14492 0.41925 0.53562 0.0
O522 O 0.16687 0.40589 0.58367 0.0
C523 C 0.12707 0.41353 0.53815 0.0
H524 H 0.17297 0.46492 0.64213 0.0
H525 H 0.10897 0.34362 0.49462 0.0
H526 H 0.12971 0.34238 0.63864 0.0
H527 H 0.0941 0.36362 0.67554 0.0
Co528 Co 0.61133 0.74361 0.58362 0.0
C529 C 0.58178 0.7084 0.61983 0.0
C530 C 0.58367 0.73286 0.64514 0.0
C531 C 0.56997 0.71726 0.66344 0.0
N532 N 0.59096 0.72735 0.61738 0.0
N533 N 0.56889 0.70193 0.64756 0.0
H534 H 0.58447 0.69939 0.60206 0.0
H535 H 0.58832 0.74723 0.6525 0.0
C536 C 0.6119 0.78127 0.58322 0.0
O537 O 0.6278 0.78974 0.56494 0.0
N538 N 0.63169 0.75919 0.54953 0.0
C539 C 0.64948 0.76283 0.55231 0.0
C540 C 0.65945 0.77339 0.52189 0.0
C541 C 0.63083 0.76657 0.51608 0.0
N542 N 0.6478 0.77599 0.49931 0.0
C543 C 0.63005 0.73812 0.64461 0.0
C544 C 0.65608 0.7753 0.65776 0.0
C545 C 0.65882 0.76134 0.674 0.0
C546 C 0.645 0.74257 0.66872 0.0
C547 C 0.64073 0.77022 0.63401 0.0
N548 N 0.62851 0.75179 0.62613 0.0
H549 H 0.62032 0.72353 0.63881 0.0
H550 H 0.63978 0.78116 0.61972 0.0
H551 H 0.65488 0.75798 0.57468 0.0
H552 H 0.61821 0.76582 0.50531 0.0
O553 O 0.61434 0.72298 0.56831 0.0
O554 O 0.59544 0.73109 0.54033 0.0
O555 O 0.60449 0.76397 0.59267 0.0
C556 C 0.60236 0.71992 0.54169 0.0
H557 H 0.56185 0.71722 0.68735 0.0
H558 H 0.67417 0.77864 0.5168 0.0
H559 H 0.66638 0.79 0.66108 0.0
H560 H 0.64622 0.73131 0.68159 0.0
Co561 Co 0.27309 0.87064 0.57822 0.0
C562 C 0.30561 0.87692 0.62596 0.0
C563 C 0.28683 0.84785 0.61541 0.0
C564 C 0.30241 0.84963 0.63322 0.0
N565 N 0.28843 0.86491 0.6117 0.0
N566 N 0.31429 0.86795 0.63968 0.0
H567 H 0.31257 0.89196 0.6229 0.0
H568 H 0.27586 0.83501 0.60329 0.0
C569 C 0.2446 0.83598 0.61611 0.0
O570 O 0.25236 0.84483 0.6476 0.0
N571 N 0.25846 0.8762 0.54351 0.0
C572 C 0.25909 0.89277 0.5398 0.0
C573 C 0.24672 0.89113 0.51209 0.0
C574 C 0.24595 0.86477 0.51771 0.0
N575 N 0.23846 0.87353 0.49819 0.0
C576 C 0.27683 0.8943 0.64082 0.0
C577 C 0.23953 0.8844 0.64392 0.0
C578 C 0.25258 0.89955 0.66548 0.0
C579 C 0.27133 0.9041 0.66458 0.0
C580 C 0.24558 0.8747 0.62102 0.0
N581 N 0.26412 0.87987 0.61913 0.0
H582 H 0.29152 0.89936 0.63796 0.0
H583 H 0.23548 0.86379 0.60289 0.0
H584 H 0.26794 0.90516 0.55619 0.0
H585 H 0.24232 0.85033 0.51355 0.0
O586 O 0.29475 0.89399 0.56534 0.0
O587 O 0.28592 0.86715 0.53579 0.0
O588 O 0.2512 0.84417 0.58456 0.0
C589 C 0.29794 0.88503 0.5391 0.0
H590 H 0.30517 0.83836 0.63905 0.0
H591 H 0.24427 0.90217 0.50243 0.0
H592 H 0.22492 0.88054 0.64365 0.0
H593 H 0.28193 0.91603 0.68004 0.0
H594 H 0.25546 0.2727 0.15002 0.0
H595 H 0.27192 0.26055 0.1862 0.0
H596 H 0.21948 0.21585 0.22837 0.0
H597 H 0.20256 0.22822 0.19176 0.0
H598 H 0.24746 0.23326 0.28397 0.0
H599 H 0.27558 0.21413 0.16233 0.0
H600 H 0.27963 0.23748 0.15675 0.0
H601 H 0.25598 0.21804 0.15838 0.0
C602 C 0.24729 0.26024 0.16683 0.0
C603 C 0.22766 0.25132 0.16776 0.0
C604 C 0.25677 0.25322 0.18732 0.0
C605 C 0.24692 0.23698 0.20906 0.0
C606 C 0.22731 0.22824 0.2112 0.0
H607 H 0.33432 0.21649 0.29906 0.0
H608 H 0.30348 0.20744 0.27236 0.0
C609 C 0.21769 0.23535 0.19049 0.0
C610 C 0.25772 0.23011 0.23044 0.0
H611 H 0.29529 0.22399 0.21876 0.0
C612 C 0.25757 0.23066 0.26982 0.0
C613 C 0.27055 0.22614 0.21212 0.0
C614 C 0.27029 0.22369 0.17005 0.0
C615 C 0.27126 0.22942 0.29109 0.0
C616 C 0.2857 0.22812 0.27232 0.0
C617 C 0.28453 0.22543 0.23325 0.0
C618 C 0.30335 0.23228 0.29161 0.0
C619 C 0.27051 0.23027 0.33336 0.0
C620 C 0.31362 0.24928 0.31097 0.0
C621 C 0.33106 0.25439 0.32634 0.0
C622 C 0.33895 0.24283 0.32211 0.0
C623 C 0.32863 0.22569 0.30295 0.0
C624 C 0.31102 0.22051 0.28766 0.0
H625 H 0.25578 0.2234 0.34326 0.0
H626 H 0.2776 0.22341 0.34713 0.0
H627 H 0.27745 0.24514 0.34239 0.0
H628 H 0.30836 0.25891 0.31346 0.0
H629 H 0.33836 0.2675 0.34157 0.0
H630 H 0.77188 0.97194 0.19351 0.0
H631 H 0.78233 1.00093 0.2299 0.0
H632 H 0.74127 0.00996 0.17342 0.0
H633 H 0.73088 0.9814 0.13728 0.0
H634 H 0.77899 0.0419 0.17496 0.0
H635 H 0.7528 0.00969 0.31588 0.0
H636 H 0.76703 1.00283 0.28963 0.0
H637 H 0.74405 0.99632 0.27304 0.0
C638 C 0.76502 0.98006 0.18916 0.0
C639 C 0.75054 0.97435 0.16259 0.0
C640 C 0.77099 0.99658 0.20993 0.0
C641 C 0.76252 0.00754 0.20436 0.0
C642 C 0.74802 1.00174 0.17807 0.0
H643 H 0.75091 0.09892 0.26993 0.0
H644 H 0.75432 0.07468 0.23761 0.0
C645 C 0.74206 0.98534 0.15751 0.0
C646 C 0.7686 0.02523 0.22522 0.0
H647 H 0.76448 0.04202 0.31018 0.0
C648 C 0.77612 0.04201 0.20469 0.0
C649 C 0.76495 0.02533 0.264 0.0
C650 C 0.75669 0.00762 0.28713 0.0
C651 C 0.77932 0.05875 0.22155 0.0
C652 C 0.77454 0.05861 0.25975 0.0
C653 C 0.76807 0.04208 0.28084 0.0
C654 C 0.77429 0.07481 0.27731 0.0
C655 C 0.78741 0.07634 0.19805 0.0
C656 C 0.78437 0.08297 0.31042 0.0
C657 C 0.78237 0.09682 0.32908 0.0
C658 C 0.77006 0.10255 0.31519 0.0
C659 C 0.76046 0.09476 0.28138 0.0
C660 C 0.76252 0.08101 0.26271 0.0
H661 H 0.79594 0.07578 0.17449 0.0
H662 H 0.77582 0.07774 0.18571 0.0
H663 H 0.79626 0.08899 0.21526 0.0
H664 H 0.7934 0.07828 0.32234 0.0
H665 H 0.78975 0.10235 0.35535 0.0
H666 H 0.03864 0.75949 0.14806 0.0
H667 H 0.01059 0.74238 0.18579 0.0
H668 H 0.0156 0.7944 0.22338 0.0
H669 H 0.04418 0.81195 0.18516 0.0
H670 H 1.00677 0.76665 0.28149 0.0
H671 H 0.95937 0.73676 0.15964 0.0
H672 H 0.97939 0.73382 0.15532 0.0
H673 H 0.98251 0.75706 0.15582 0.0
C674 C 0.03389 0.76741 0.16432 0.0
C675 C 0.04357 0.7871 0.16337 0.0
C676 C 0.01774 0.75756 0.18573 0.0
C677 C 0.01074 0.76709 0.20659 0.0
C678 C 0.02068 0.7868 0.20701 0.0
H679 H 0.90147 0.68388 0.30046 0.0
H680 H 0.92479 0.7135 0.27135 0.0
C681 C 0.037 0.79678 0.18537 0.0
C682 C 0.99321 0.75599 0.22817 0.0
H683 H 0.94918 0.7186 0.21731 0.0
C684 C 0.99399 0.75645 0.26756 0.0
C685 C 0.97639 0.74297 0.21002 0.0
C686 C 0.97428 0.74275 0.16785 0.0
C687 C 0.97895 0.7431 0.28914 0.0
C688 C 0.96295 0.72871 0.27073 0.0
C689 C 0.96154 0.72938 0.23151 0.0
C690 C 0.9487 0.71173 0.29091 0.0
C691 C 0.9806 0.74421 0.33141 0.0
C692 C 0.95434 0.70081 0.31121 0.0
C693 C 0.94113 0.68402 0.32789 0.0
C694 C 0.92187 0.67752 0.3242 0.0
C695 C 0.91618 0.68852 0.304 0.0
C696 C 0.92949 0.70542 0.28733 0.0
H697 H 0.98934 0.75897 0.34083 0.0
H698 H 0.96668 0.73807 0.34508 0.0
H699 H 0.98757 0.73641 0.34106 0.0
H700 H 0.96901 0.70505 0.31354 0.0
H701 H 0.94608 0.67615 0.3438 0.0
H702 H 0.67863 0.74328 0.66644 0.0
H703 H 0.70813 0.75067 0.69607 0.0
H704 H 0.71012 0.7981 0.75162 0.0
H705 H 0.68004 0.7904 0.72279 0.0
H706 H 0.74321 0.78389 0.69101 0.0
H707 H 0.71647 0.76835 0.83809 0.0
H708 H 0.70098 0.76087 0.798 0.0
H709 H 0.71279 0.78499 0.81224 0.0
C710 C 0.68511 0.75511 0.68547 0.0
C711 C 0.67676 0.76605 0.69279 0.0
C712 C 0.70212 0.75945 0.70202 0.0
C713 C 0.71123 0.77483 0.72626 0.0
C714 C 0.70317 0.78601 0.73334 0.0
H715 H 0.80481 0.79024 0.86792 0.0
H716 H 0.78493 0.79936 0.83287 0.0
C717 C 0.68606 0.78166 0.7167 0.0
C718 C 0.72902 0.77867 0.74424 0.0
H719 H 0.74731 0.77535 0.82803 0.0
C720 C 0.74424 0.78231 0.72106 0.0
C721 C 0.73035 0.77671 0.78344 0.0
C722 C 0.71429 0.77241 0.80953 0.0
C723 C 0.76047 0.78328 0.73586 0.0
C724 C 0.76137 0.78025 0.77474 0.0
C725 C 0.7466 0.77768 0.79821 0.0
C726 C 0.77633 0.77746 0.79113 0.0
C727 C 0.77633 0.78713 0.7096 0.0
C728 C 0.77844 0.76244 0.77877 0.0
C729 C 0.78981 0.75733 0.79862 0.0
C730 C 0.7993 0.76723 0.83094 0.0
C731 C 0.79799 0.7828 0.84234 0.0
C732 C 0.78656 0.7879 0.82255 0.0
H733 H 0.7764 0.79532 0.6847 0.0
H734 H 0.79008 0.7949 0.72402 0.0
H735 H 0.77452 0.77362 0.69933 0.0
H736 H 0.7703 0.75385 0.75529 0.0
H737 H 0.79022 0.74491 0.79017 0.0
H738 H 0.29099 0.03742 0.84501 0.0
H739 H 0.28088 0.00982 0.80552 0.0
H740 H 0.23014 0.01004 0.77803 0.0
H741 H 0.24033 0.03809 0.81752 0.0
H742 H 0.23055 0.97314 0.81118 0.0
H743 H 0.27205 0.00735 0.68258 0.0
H744 H 0.28342 0.01642 0.72712 0.0
H745 H 0.26383 0.01896 0.71391 0.0
C746 C 0.27774 0.03173 0.83035 0.0
C747 C 0.26643 0.03989 0.83432 0.0
C748 C 0.27202 0.01599 0.80779 0.0
C749 C 0.25482 0.00799 0.78896 0.0
C750 C 0.2435 0.01613 0.79236 0.0
H751 H 0.23236 0.91485 0.63796 0.0
H752 H 0.22824 0.93954 0.66687 0.0
C753 C 0.24935 0.03213 0.81472 0.0
C754 C 0.24875 0.99067 0.76707 0.0
H755 H 0.26055 0.97465 0.68944 0.0
C756 C 0.23672 0.97339 0.78413 0.0
C757 C 0.25686 0.99113 0.73189 0.0
C758 C 0.26969 0.00944 0.7125 0.0
C759 C 0.23346 0.95651 0.76779 0.0
C760 C 0.24255 0.95705 0.73378 0.0
C761 C 0.25362 0.97428 0.71558 0.0
C762 C 0.24242 0.94029 0.71857 0.0
C763 C 0.22083 0.93827 0.78758 0.0
C764 C 0.25154 0.93241 0.73832 0.0
C765 C 0.25402 0.91844 0.72183 0.0
C766 C 0.24732 0.91203 0.68537 0.0
C767 C 0.23742 0.91933 0.66632 0.0
C768 C 0.23514 0.93348 0.68268 0.0
H769 H 0.21116 0.93963 0.80732 0.0
H770 H 0.21247 0.92699 0.767 0.0
H771 H 0.22951 0.93399 0.80402 0.0
H772 H 0.25752 0.93769 0.76581 0.0
H773 H 0.26171 0.91306 0.73707 0.0
H774 H 0.96968 0.20106 0.80672 0.0
H775 H 0.99728 0.21809 0.76571 0.0
H776 H 0.01915 0.26556 0.84056 0.0
H777 H 0.99211 0.24892 0.88109 0.0
H778 H 1.00902 0.25338 0.73011 0.0
H779 H 0.06407 0.258 0.82531 0.0
H780 H 0.03958 0.24099 0.83176 0.0
H781 H 0.04901 0.26463 0.84859 0.0
C782 C 0.9805 0.21505 0.81445 0.0
C783 C 0.97871 0.22366 0.84704 0.0
C784 C 0.99622 0.22474 0.79111 0.0
C785 C 0.01042 0.24295 0.80054 0.0
C786 C 1.00861 0.25138 0.83319 0.0
H787 H 0.09622 0.34661 0.73148 0.0
H788 H 0.07303 0.31752 0.76191 0.0
C789 C 0.99299 0.24187 0.85616 0.0
C790 C 0.02661 0.25409 0.77551 0.0
H791 H 0.07401 0.28286 0.77887 0.0
C792 C 0.0233 0.25942 0.74015 0.0
C793 C 0.04521 0.26194 0.78875 0.0
C794 C 0.0497 0.25593 0.82554 0.0
C795 C 0.03798 0.27358 0.7191 0.0
C796 C 0.05639 0.28241 0.73375 0.0
C797 C 0.05986 0.27615 0.76786 0.0
C798 C 0.07173 0.29955 0.71633 0.0
C799 C 0.03355 0.27992 0.68265 0.0
C800 C 0.07901 0.29899 0.68107 0.0
C801 C 0.09229 0.31561 0.66362 0.0
C802 C 0.09843 0.33304 0.68115 0.0
C803 C 0.09162 0.33343 0.71714 0.0
C804 C 0.07845 0.31683 0.7346 0.0
H805 H 0.01826 0.27304 0.67732 0.0
H806 H 0.03945 0.29535 0.68288 0.0
H807 H 0.04009 0.27654 0.65897 0.0
H808 H 0.07409 0.28576 0.66669 0.0
H809 H 0.09715 0.31488 0.63575 0.0
H810 H 0.87312 0.57281 0.5257 0.0
H811 H 0.88972 0.56115 0.56523 0.0
H812 H 0.93983 0.59368 0.49996 0.0
H813 H 0.92363 0.60512 0.4608 0.0
H814 H 0.93029 0.55551 0.51341 0.0
H815 H 0.93135 0.59376 0.64353 0.0
H816 H 0.90931 0.57896 0.62053 0.0
H817 H 0.92649 0.60012 0.59805 0.0
C818 C 0.88767 0.57741 0.51991 0.0
C819 C 0.89708 0.58996 0.4903 0.0
C820 C 0.89712 0.57079 0.54248 0.0
C821 C 0.91603 0.57664 0.53553 0.0
C822 C 0.92525 0.58895 0.50573 0.0
H823 H 0.01905 0.59081 0.59675 0.0
H824 H 0.98994 0.58488 0.56669 0.0
C825 C 0.91593 0.59555 0.48346 0.0
C826 C 0.92684 0.57061 0.55915 0.0
H827 H 0.95112 0.58104 0.64173 0.0
C828 C 0.93452 0.56069 0.54184 0.0
C829 C 0.93227 0.57733 0.59623 0.0
C830 C 0.92455 0.5882 0.61588 0.0
C831 C 0.94838 0.55837 0.5597 0.0
C832 C 0.95487 0.56637 0.59557 0.0
C833 C 0.94617 0.57501 0.6141 0.0
C834 C 0.97207 0.568 0.6123 0.0
C835 C 0.95648 0.54799 0.53943 0.0
C836 C 0.97169 0.56051 0.64793 0.0
C837 C 0.98835 0.5639 0.66518 0.0
C838 C 1.00567 0.57509 0.64728 0.0
C839 C 1.00593 0.58217 0.61121 0.0
C840 C 0.98929 0.57866 0.5939 0.0
H841 H 0.94634 0.53782 0.51888 0.0
H842 H 0.96911 0.55819 0.52367 0.0
H843 H 0.96061 0.54037 0.55951 0.0
H844 H 0.95857 0.55242 0.66273 0.0
H845 H 0.98774 0.55849 0.69323 0.0
H846 H 0.41629 0.40812 0.7071 0.0
H847 H 0.42052 0.38416 0.67564 0.0
H848 H 0.44969 0.42278 0.58504 0.0
H849 H 0.44602 0.44707 0.61747 0.0
H850 H 0.40513 0.36939 0.61107 0.0
H851 H 0.48158 0.39883 0.59745 0.0
H852 H 0.47156 0.40873 0.62863 0.0
H853 H 0.47408 0.41431 0.57927 0.0
C854 C 0.42394 0.41157 0.68083 0.0
C855 C 0.43077 0.42932 0.6645 0.0
C856 C 0.42638 0.39791 0.66291 0.0
C857 C 0.43554 0.40166 0.62807 0.0
C858 C 0.44297 0.41966 0.6123 0.0
H859 H 0.40994 0.32401 0.45045 0.0
H860 H 0.41618 0.34952 0.49319 0.0
C861 C 0.44076 0.43348 0.63061 0.0
C862 C 0.43516 0.38604 0.60646 0.0
H863 H 0.46208 0.37267 0.55721 0.0
C864 C 0.41766 0.37006 0.59981 0.0
C865 C 0.45147 0.38676 0.59198 0.0
C866 C 0.47075 0.40301 0.60002 0.0
C867 C 0.41594 0.35512 0.57813 0.0
C868 C 0.43209 0.3563 0.56183 0.0
C869 C 0.44971 0.3719 0.56951 0.0
C870 C 0.4305 0.34201 0.53457 0.0
C871 C 0.39674 0.33825 0.57237 0.0
C872 C 0.43713 0.32972 0.54309 0.0
C873 C 0.43362 0.31501 0.51844 0.0
C874 C 0.42342 0.31249 0.48514 0.0
C875 C 0.41758 0.32538 0.47614 0.0
C876 C 0.42116 0.34001 0.5005 0.0
H877 H 0.3868 0.33719 0.59456 0.0
H878 H 0.39112 0.3395 0.54483 0.0
H879 H 0.39736 0.3251 0.57224 0.0
H880 H 0.44442 0.33111 0.56928 0.0
H881 H 0.43835 0.30533 0.52597 0.0
H882 H 0.58694 0.99643 0.60719 0.0
H883 H 0.6107 0.02513 0.57666 0.0
H884 H 0.60805 0.05796 0.66817 0.0
H885 H 0.58455 0.02922 0.69943 0.0
H886 H 0.61092 0.05865 0.55414 0.0
H887 H 0.66355 0.07149 0.66567 0.0
H888 H 0.64223 0.04925 0.66089 0.0
H889 H 0.64158 0.06899 0.68035 0.0
C890 C 0.59133 0.00976 0.62073 0.0
C891 C 0.58398 0.01053 0.65588 0.0
C892 C 0.60483 0.02615 0.60317 0.0
C893 C 0.61132 0.04363 0.62044 0.0
C894 C 0.6034 0.04458 0.65465 0.0
H895 H 0.71333 0.14322 0.53198 0.0
H896 H 0.68499 0.12559 0.57076 0.0
C897 C 0.58984 0.02816 0.67225 0.0
C898 C 0.62708 0.06055 0.60321 0.0
H899 H 0.67409 0.0907 0.61224 0.0
C900 C 0.62466 0.0659 0.56713 0.0
C901 C 0.64497 0.07007 0.62034 0.0
C902 C 0.6484 0.06468 0.65885 0.0
C903 C 0.63984 0.07987 0.54694 0.0
C904 C 0.65793 0.08848 0.56305 0.0
C905 C 0.66017 0.08405 0.60006 0.0
C906 C 0.67486 0.09967 0.53991 0.0
C907 C 0.63654 0.08479 0.50789 0.0
C908 C 0.67864 0.09081 0.51046 0.0
C909 C 0.6947 0.10066 0.48879 0.0
C910 C 0.70743 0.11967 0.49603 0.0
C911 C 0.70375 0.1286 0.52575 0.0
C912 C 0.6876 0.11859 0.5478 0.0
H913 H 0.62189 0.08168 0.50432 0.0
H914 H 0.6462 0.09983 0.50154 0.0
H915 H 0.63907 0.07628 0.48708 0.0
H916 H 0.66919 0.07612 0.50441 0.0
H917 H 0.69706 0.09331 0.46616 0.0
H918 H 0.42779 0.06839 0.19871 0.0
H919 H 0.41023 0.07876 0.16074 0.0
H920 H 0.46147 0.12211 0.11155 0.0
H921 H 0.47947 0.11168 0.14998 0.0
H922 H 0.41557 0.11677 0.16097 0.0
H923 H 0.42536 0.09256 0.02085 0.0
H924 H 0.42875 0.08303 0.06394 0.0
H925 H 0.44548 0.10648 0.05012 0.0
C926 C 0.43544 0.0801 0.17977 0.0
C927 C 0.45506 0.08922 0.17735 0.0
C928 C 0.42533 0.08603 0.15814 0.0
C929 C 0.43453 0.10118 0.13342 0.0
C930 C 0.45412 0.1103 0.1304 0.0
H931 H 0.36443 0.12338 0.97914 0.0
H932 H 0.39274 0.12901 0.01272 0.0
C933 C 0.46436 0.10434 0.15228 0.0
C934 C 0.42312 0.10707 0.11145 0.0
H935 H 0.40258 0.10153 0.0255 0.0
C936 C 0.41301 0.11385 0.13114 0.0
C937 C 0.41989 0.10331 0.07258 0.0
C938 C 0.43035 0.09589 0.05038 0.0
C939 C 0.39897 0.11594 0.11344 0.0
C940 C 0.39477 0.11084 0.07524 0.0
C941 C 0.40578 0.10533 0.05487 0.0
C942 C 0.3778 0.1091 0.05709 0.0
C943 C 0.38837 0.12303 0.13611 0.0
C944 C 0.36003 0.09614 0.07107 0.0
C945 C 0.34388 0.0929 0.05202 0.0
C946 C 0.34517 0.10254 0.01855 0.0
C947 C 0.36298 0.11593 0.00517 0.0
C948 C 0.37916 0.11909 0.02415 0.0
H949 H 0.39691 0.13188 0.15998 0.0
H950 H 0.38403 0.1313 0.11839 0.0
H951 H 0.3756 0.11091 0.14793 0.0
H952 H 0.35866 0.08802 0.09605 0.0
H953 H 0.33037 0.08255 0.06306 0.0
H954 H 0.95347 0.36806 0.1864 0.0
H955 H 0.94301 0.3395 0.15032 0.0
H956 H 0.89297 0.34019 0.11809 0.0
H957 H 0.90366 0.36934 0.15409 0.0
H958 H 0.91051 0.30545 0.16194 0.0
H959 H 0.91316 0.33292 0.01748 0.0
H960 H 0.92447 0.34829 0.0569 0.0
H961 H 0.89949 0.3366 0.05218 0.0
C962 C 0.94029 0.36227 0.17145 0.0
C963 C 0.92938 0.37095 0.17305 0.0
C964 C 0.9343 0.34589 0.15091 0.0
C965 C 0.91723 0.33769 0.13152 0.0
C966 C 0.90631 0.3464 0.13252 0.0
H967 H 0.89059 0.22646 0.04246 0.0
H968 H 0.88447 0.24959 0.07285 0.0
C969 C 0.91241 0.36302 0.15305 0.0
C970 C 0.91121 0.3199 0.11102 0.0
H971 H 0.90775 0.30227 0.02276 0.0
C972 C 0.90953 0.30456 0.13151 0.0
C973 C 0.90994 0.31885 0.07138 0.0
C974 C 0.91194 0.33502 0.04797 0.0
C975 C 0.908 0.28874 0.1134 0.0
C976 C 0.90766 0.28805 0.07364 0.0
C977 C 0.908 0.30283 0.05323 0.0
C978 C 0.90991 0.2737 0.05282 0.0
C979 C 0.9082 0.27359 0.13696 0.0
C980 C 0.92584 0.27955 0.0304 0.0
C981 C 0.92921 0.26647 0.0127 0.0
C982 C 0.91681 0.24713 0.01718 0.0
C983 C 0.90049 0.24123 0.03865 0.0
C984 C 0.89704 0.25443 0.05625 0.0
H985 H 0.91179 0.27787 0.1668 0.0
H986 H 0.89413 0.26084 0.13623 0.0
H987 H 0.91843 0.26985 0.12565 0.0
H988 H 0.93593 0.29432 0.02715 0.0
H989 H 0.94161 0.27158 0.99543 0.0
H990 H 0.63698 0.54654 0.12221 0.0
H991 H 0.66369 0.56698 0.08154 0.0
H992 H 0.69327 0.60072 0.1778 0.0
H993 H 0.66669 0.58082 0.21785 0.0
H994 H 0.68843 0.62063 0.12141 0.0
H995 H 0.71792 0.57802 0.06486 0.0
H996 H 0.69299 0.56793 0.06045 0.0
H997 H 0.70331 0.57128 0.10629 0.0
C998 C 0.64943 0.55802 0.13464 0.0
C999 C 0.64979 0.56227 0.17295 0.0
C1000 C 0.66468 0.56965 0.11149 0.0
C1001 C 0.68049 0.58538 0.12669 0.0
C1002 C 0.68123 0.58872 0.16546 0.0
H1003 H 0.78524 0.67355 0.03311 0.0
H1004 H 0.76127 0.6456 0.0663 0.0
C1005 C 0.66602 0.57735 0.18829 0.0
C1006 C 0.69513 0.59991 0.10226 0.0
H1007 H 0.73015 0.60877 0.04008 0.0
C1008 C 0.69755 0.61801 0.10366 0.0
C1009 C 0.70706 0.59649 0.0793 0.0
C1010 C 0.70537 0.57743 0.07769 0.0
C1011 C 0.71159 0.6328 0.08292 0.0
C1012 C 0.72334 0.62937 0.05944 0.0
C1013 C 0.72103 0.6113 0.058 0.0
C1014 C 0.73797 0.64457 0.03626 0.0
C1015 C 0.71392 0.6521 0.08681 0.0
C1016 C 0.73279 0.65286 0.0078 0.0
C1017 C 0.74634 0.66879 0.98914 0.0
C1018 C 0.76539 0.67671 0.99839 0.0
C1019 C 0.77066 0.66779 0.02552 0.0
C1020 C 0.75702 0.65184 0.04439 0.0
H1021 H 0.70683 0.65327 0.11234 0.0
H1022 H 0.72895 0.663 0.08813 0.0
H1023 H 0.70766 0.65504 0.06195 0.0
H1024 H 0.71818 0.64729 1.00075 0.0
H1025 H 0.74188 0.67505 0.96769 0.0
H1026 H 0.53972 0.90467 0.85839 0.0
H1027 H 0.55661 0.89267 0.896 0.0
H1028 H 0.60776 0.93034 0.83807 0.0
H1029 H 0.59128 0.94215 0.80078 0.0
H1030 H 0.59995 0.89234 0.84338 0.0
H1031 H 0.59537 0.92224 0.98095 0.0
H1032 H 0.57417 0.90794 0.95491 0.0
H1033 H 0.59114 0.93049 0.93703 0.0
C1034 C 0.55457 0.91038 0.85389 0.0
C1035 C 0.56417 0.92441 0.82676 0.0
C1036 C 0.56418 0.90354 0.87534 0.0
C1037 C 0.58344 0.91068 0.86981 0.0
C1038 C 0.5929 0.92459 0.84268 0.0
H1039 H 0.68644 0.92609 0.93608 0.0
H1040 H 0.65791 0.92049 0.90391 0.0
C1041 C 0.58341 0.93139 0.82147 0.0
C1042 C 0.5943 0.90421 0.89209 0.0
H1043 H 0.61616 0.91077 0.97684 0.0
C1044 C 0.60319 0.89597 0.87282 0.0
C1045 C 0.59843 0.90889 0.93048 0.0
C1046 C 0.58939 0.91795 0.95226 0.0
C1047 C 0.61695 0.89335 0.8903 0.0
C1048 C 0.6221 0.89935 0.92783 0.0
C1049 C 0.61223 0.90628 0.94797 0.0
C1050 C 0.63907 0.90073 0.94517 0.0
C1051 C 0.62635 0.88483 0.86803 0.0
C1052 C 0.63795 0.89147 0.979 0.0
C1053 C 0.65427 0.89466 0.99745 0.0
C1054 C 0.67198 0.9074 0.98262 0.0
C1055 C 0.67301 0.91622 0.94816 0.0
C1056 C 0.65671 0.91292 0.92963 0.0
H1057 H 0.61712 0.87568 0.84517 0.0
H1058 H 0.63924 0.89621 0.85486 0.0
H1059 H 0.63035 0.87649 0.88636 0.0
H1060 H 0.62447 0.88216 0.99162 0.0
H1061 H 0.65305 0.88788 0.02424 0.0
H1062 H 0.10244 0.63427 0.86105 0.0
H1063 H 0.11001 0.66102 0.9028 0.0
H1064 H 0.08943 0.6841 0.81908 0.0
H1065 H 0.08178 0.65768 0.77779 0.0
H1066 H 0.13202 0.70419 0.88818 0.0
H1067 H 0.05602 0.67244 0.91735 0.0
H1068 H 0.06614 0.65904 0.89922 0.0
H1069 H 0.06203 0.6739 0.86843 0.0
C1070 C 0.09982 0.64522 0.85146 0.0
C1071 C 0.09124 0.64376 0.81649 0.0
C1072 C 0.10418 0.66047 0.87522 0.0
C1073 C 0.10008 0.67437 0.86404 0.0
C1074 C 0.09253 0.67341 0.82829 0.0
H1075 H 0.11893 0.78134 0.94419 0.0
H1076 H 0.12181 0.75643 0.91235 0.0
C1077 C 0.0881 0.65825 0.80483 0.0
C1078 C 0.10192 0.68907 0.89039 0.0
H1079 H 0.07549 0.70409 0.93557 0.0
C1080 C 0.11973 0.70413 0.89907 0.0
C1081 C 0.08585 0.68881 0.90467 0.0
C1082 C 0.06641 0.67262 0.89728 0.0
C1083 C 0.1218 0.71932 0.92082 0.0
C1084 C 0.10563 0.71947 0.93354 0.0
C1085 C 0.0879 0.70406 0.92571 0.0
C1086 C 0.10643 0.73535 0.95479 0.0
C1087 C 0.14123 0.73498 0.93004 0.0
C1088 C 0.09686 0.73183 0.98909 0.0
C1089 C 0.0949 0.74584 0.00667 0.0
C1090 C 0.10258 0.76374 0.99051 0.0
C1091 C 0.11297 0.76764 0.95717 0.0
C1092 C 0.11472 0.75347 0.9392 0.0
H1093 H 0.15166 0.73025 0.92827 0.0
H1094 H 0.14532 0.74653 0.90949 0.0
H1095 H 0.14181 0.74062 0.95866 0.0
H1096 H 0.09036 0.718 0.00167 0.0
H1097 H 0.087 0.74258 0.03261 0.0
H1098 H 0.27488 0.34294 0.04428 0.0
H1099 H 0.29916 0.37197 0.01581 0.0
H1100 H 0.25886 0.37046 0.93637 0.0
H1101 H 0.23429 0.34161 0.96593 0.0
H1102 H 0.31113 0.37423 0.947 0.0
H1103 H 0.2868 0.42541 0.96235 0.0
H1104 H 0.27661 0.40372 0.9885 0.0
H1105 H 0.26959 0.40399 0.94067 0.0
C1106 C 0.27117 0.34899 0.02108 0.0
C1107 C 0.25281 0.34002 0.00698 0.0
C1108 C 0.28502 0.3656 0.00493 0.0
C1109 C 0.28086 0.37354 0.97411 0.0
C1110 C 0.26235 0.36489 0.96067 0.0
H1111 H 0.35175 0.43183 0.79233 0.0
H1112 H 0.32645 0.41287 0.83585 0.0
C1113 C 0.24836 0.34834 0.97729 0.0
C1114 C 0.29636 0.38944 0.95358 0.0
H1115 H 0.31114 0.43299 0.91665 0.0
C1116 C 0.31122 0.38718 0.94098 0.0
C1117 C 0.29661 0.40642 0.9458 0.0
C1118 C 0.28164 0.41014 0.96038 0.0
C1119 C 0.32592 0.40107 0.91983 0.0
C1120 C 0.32566 0.41757 0.91037 0.0
C1121 C 0.31121 0.42025 0.9239 0.0
C1122 C 0.33945 0.43112 0.88349 0.0
C1123 C 0.34145 0.39779 0.90684 0.0
C1124 C 0.35482 0.44809 0.89567 0.0
C1125 C 0.3694 0.45911 0.87061 0.0
C1126 C 0.36872 0.45308 0.83342 0.0
C1127 C 0.35276 0.43668 0.82101 0.0
C1128 C 0.33825 0.42587 0.84574 0.0
H1129 H 0.34181 0.38647 0.92314 0.0
H1130 H 0.33924 0.39363 0.87677 0.0
H1131 H 0.35525 0.4108 0.90941 0.0
H1132 H 0.35596 0.45229 0.92483 0.0
H1133 H 0.38157 0.47169 0.8808 0.0
H1134 H 0.02945 0.45638 0.31078 0.0
H1135 H 0.0577 0.46154 0.344 0.0
H1136 H 0.02348 0.42284 0.43045 0.0
H1137 H 0.99523 0.41782 0.39777 0.0
H1138 H 0.05679 0.45742 0.45642 0.0
H1139 H 0.07161 0.41914 0.34489 0.0
H1140 H 0.06831 0.43826 0.33079 0.0
H1141 H 0.04897 0.41728 0.34946 0.0
C1142 C 0.02796 0.4493 0.3373 0.0
C1143 C 0.01011 0.4366 0.35159 0.0
C1144 C 0.0441 0.45214 0.35604 0.0
C1145 C 0.04264 0.44238 0.38936 0.0
C1146 C 0.02488 0.43044 0.40465 0.0
H1147 H 0.0918 0.40696 0.54747 0.0
H1148 H 0.07503 0.41838 0.50994 0.0
C1149 C 1.00877 0.42753 0.38589 0.0
C1150 C 0.05936 0.44355 0.40747 0.0
H1151 H 0.08979 0.42706 0.39966 0.0
C1152 C 0.06425 0.4511 0.44377 0.0
C1153 C 0.06917 0.43544 0.39073 0.0
C1154 C 0.06429 0.42696 0.3519 0.0
C1155 C 0.07812 0.44995 0.46452 0.0
C1156 C 0.08699 0.44063 0.44882 0.0
C1157 C 0.08296 0.43418 0.41161 0.0
C1158 C 0.09812 0.4349 0.47232 0.0
C1159 C 0.08272 0.4582 0.50355 0.0
C1160 C 0.11663 0.44002 0.46312 0.0
C1161 C 0.12637 0.43336 0.48467 0.0
C1162 C 0.11756 0.42127 0.51523 0.0
C1163 C 0.09904 0.41624 0.52412 0.0
C1164 C 0.08945 0.42292 0.5029 0.0
H1165 H 0.08014 0.47014 0.50615 0.0
H1166 H 0.07358 0.44735 0.52417 0.0
H1167 H 0.09753 0.46309 0.51101 0.0
H1168 H 0.12349 0.44907 0.43928 0.0
H1169 H 0.14062 0.43744 0.47713 0.0
H1170 H 0.61129 0.69258 0.54706 0.0
H1171 H 0.60429 0.66739 0.50291 0.0
H1172 H 0.57412 0.68588 0.43244 0.0
H1173 H 0.58104 0.7114 0.47713 0.0
H1174 H 0.55661 0.64415 0.44534 0.0
H1175 H 0.63042 0.67918 0.39747 0.0
H1176 H 0.62775 0.67741 0.44768 0.0
H1177 H 0.62064 0.69153 0.42174 0.0
C1178 C 0.60311 0.69134 0.52227 0.0
C1179 C 0.5969 0.70414 0.51534 0.0
C1180 C 0.59911 0.67689 0.49709 0.0
C1181 C 0.58892 0.67494 0.46425 0.0
C1182 C 0.58208 0.68724 0.45766 0.0
H1183 H 0.59701 0.60597 0.28896 0.0
H1184 H 0.59361 0.63052 0.32031 0.0
C1185 C 0.58606 0.70179 0.48309 0.0
C1186 C 0.58636 0.66048 0.43646 0.0
H1187 H 0.61151 0.64679 0.38267 0.0
C1188 C 0.56852 0.64479 0.43109 0.0
C1189 C 0.60189 0.66147 0.41766 0.0
C1190 C 0.62124 0.67838 0.42108 0.0
C1191 C 0.56598 0.62965 0.40858 0.0
C1192 C 0.58174 0.63018 0.39163 0.0
C1193 C 0.59942 0.64627 0.39582 0.0
C1194 C 0.58063 0.61414 0.37034 0.0
C1195 C 0.54648 0.61326 0.40328 0.0
C1196 C 0.57406 0.59657 0.38761 0.0
C1197 C 0.5758 0.58244 0.36944 0.0
C1198 C 0.58437 0.58583 0.33405 0.0
C1199 C 0.5903 0.6031 0.31625 0.0
C1200 C 0.58838 0.61709 0.33414 0.0
H1201 H 0.53575 0.61745 0.40747 0.0
H1202 H 0.54467 0.60706 0.37481 0.0
H1203 H 0.54393 0.6023 0.42438 0.0
H1204 H 0.56846 0.59409 0.41587 0.0
H1205 H 0.57135 0.56927 0.38375 0.0
H1206 H 0.3283 0.91879 0.55331 0.0
H1207 H 0.35469 0.93762 0.51209 0.0
H1208 H 0.33226 0.89354 0.42929 0.0
H1209 H 0.30549 0.87428 0.47094 0.0
H1210 H 0.37611 0.91596 0.44707 0.0
H1211 H 0.34246 0.95777 0.41021 0.0
H1212 H 0.34305 0.95322 0.45952 0.0
H1213 H 0.3294 0.93411 0.42809 0.0
C1214 C 0.32898 0.91295 0.52649 0.0
C1215 C 0.31467 0.89515 0.51507 0.0
C1216 C 0.34415 0.92372 0.50308 0.0
C1217 C 0.34531 0.91701 0.46766 0.0
C1218 C 0.33156 0.8989 0.45666 0.0
H1219 H 0.41479 0.99916 0.30081 0.0
H1220 H 0.3903 0.97052 0.33017 0.0
C1221 C 0.3163 0.88797 0.48034 0.0
C1222 C 0.36006 0.92986 0.44141 0.0
H1223 H 0.3744 0.97077 0.39406 0.0
C1224 C 0.3757 0.92781 0.43489 0.0
C1225 C 0.35937 0.94521 0.42553 0.0
C1226 C 0.34262 0.94772 0.43085 0.0
C1227 C 0.39102 0.94118 0.41377 0.0
C1228 C 0.39071 0.95707 0.39951 0.0
C1229 C 0.37472 0.95866 0.40508 0.0
C1230 C 0.40674 0.97255 0.37926 0.0
C1231 C 0.40734 0.93818 0.40696 0.0
C1232 C 0.42435 0.98302 0.39663 0.0
C1233 C 0.43848 0.99934 0.37956 0.0
C1234 C 0.43502 1.00553 0.34532 0.0
C1235 C 0.41769 0.99468 0.32738 0.0
C1236 C 0.40374 0.97832 0.34409 0.0
H1237 H 0.40311 0.92313 0.40931 0.0
H1238 H 0.41354 0.94335 0.37874 0.0
H1239 H 0.41828 0.94599 0.42844 0.0
H1240 H 0.42688 0.97911 0.42415 0.0
H1241 H 0.45173 0.0076 0.3939 0.0
H1242 H 0.11828 0.34428 0.43278 0.0
H1243 H 0.13045 0.33398 0.38131 0.0
H1244 H 0.18619 0.36637 0.42662 0.0
H1245 H 0.17401 0.3763 0.47909 0.0
H1246 H 0.15692 0.3549 0.32715 0.0
H1247 H 0.18026 0.31434 0.41397 0.0
H1248 H 0.16494 0.32223 0.4319 0.0
H1249 H 0.18967 0.3383 0.42823 0.0
C1250 C 0.1331 0.34907 0.43218 0.0
C1251 C 0.14512 0.36097 0.46045 0.0
C1252 C 0.14006 0.34326 0.4025 0.0
C1253 C 0.15917 0.34914 0.40041 0.0
C1254 C 0.17132 0.36136 0.42805 0.0
H1255 H 0.22709 0.32861 0.24402 0.0
H1256 H 0.21484 0.33895 0.29524 0.0
C1257 C 0.16436 0.3672 0.45783 0.0
C1258 C 0.1663 0.34256 0.36905 0.0
H1259 H 0.18831 0.31783 0.34939 0.0
C1260 C 0.16374 0.34674 0.33198 0.0
C1261 C 0.17514 0.33188 0.37541 0.0
C1262 C 0.17755 0.32625 0.41448 0.0
C1263 C 0.17009 0.34083 0.30113 0.0
C1264 C 0.17894 0.33017 0.3075 0.0
C1265 C 0.18149 0.32598 0.34456 0.0
C1266 C 0.18612 0.32363 0.27615 0.0
C1267 C 0.16766 0.34644 0.26204 0.0
C1268 C 0.174 0.31133 0.24858 0.0
C1269 C 0.18101 0.30545 0.21895 0.0
C1270 C 0.20027 0.31174 0.2164 0.0
C1271 C 0.21226 0.32377 0.24457 0.0
C1272 C 0.20526 0.3296 0.27411 0.0
H1273 H 0.16485 0.35828 0.26253 0.0
H1274 H 0.18031 0.35055 0.24468 0.0
H1275 H 0.15561 0.33435 0.24824 0.0
H1276 H 0.15912 0.30626 0.24999 0.0
H1277 H 0.17139 0.29625 0.19775 0.0
H1278 H 0.68212 0.80538 0.48268 0.0
H1279 H 0.69076 0.82627 0.42871 0.0
H1280 H 0.63414 0.7953 0.38727 0.0
H1281 H 0.62531 0.7741 0.44135 0.0
H1282 H 0.68879 0.81855 0.35222 0.0
H1283 H 0.64458 0.8494 0.38906 0.0
H1284 H 0.6495 0.83573 0.42196 0.0
H1285 H 0.63217 0.82428 0.38587 0.0
C1286 C 0.67148 0.80278 0.46198 0.0
C1287 C 0.65297 0.78796 0.46651 0.0
C1288 C 0.67646 0.81486 0.43117 0.0
C1289 C 0.66307 0.81254 0.40422 0.0
C1290 C 0.64463 0.79761 0.40817 0.0
H1291 H 0.66624 0.87083 0.19989 0.0
H1292 H 0.65794 0.85002 0.25391 0.0
C1293 C 0.63961 0.78548 0.43909 0.0
C1294 C 0.66856 0.82573 0.37197 0.0
H1295 H 0.66013 0.85815 0.33031 0.0
C1296 C 0.68257 0.82725 0.34746 0.0
C1297 C 0.66047 0.83713 0.36592 0.0
C1298 C 0.64597 0.83674 0.39223 0.0
C1299 C 0.68847 0.83959 0.31663 0.0
C1300 C 0.68035 0.85095 0.31053 0.0
C1301 C 0.66636 0.84945 0.33508 0.0
C1302 C 0.6857 0.86403 0.27811 0.0
C1303 C 0.70299 0.84 0.29032 0.0
C1304 C 0.70407 0.87905 0.27392 0.0
C1305 C 0.7089 0.89115 0.24296 0.0
C1306 C 0.6954 0.88852 0.21575 0.0
C1307 C 0.67697 0.87356 0.22045 0.0
C1308 C 0.67219 0.86152 0.25128 0.0
H1309 H 0.7045 0.82742 0.2937 0.0
H1310 H 0.69937 0.84086 0.26058 0.0
H1311 H 0.71674 0.85256 0.29648 0.0
H1312 H 0.71465 0.88148 0.2947 0.0
H1313 H 0.72314 0.90262 0.24055 0.0
H1314 H 0.1154 0.83118 0.2338 0.0
H1315 H 0.1359 0.84301 0.289 0.0
H1316 H 0.16219 0.81129 0.25669 0.0
H1317 H 0.14253 0.8001 0.20111 0.0
H1318 H 0.14037 0.8239 0.34891 0.0
H1319 H 0.20692 0.86329 0.27044 0.0
H1320 H 0.18438 0.85458 0.24832 0.0
H1321 H 0.19362 0.8392 0.25636 0.0
C1322 C 0.12567 0.82687 0.23818 0.0
C1323 C 0.12723 0.81465 0.21271 0.0
C1324 C 0.1373 0.83356 0.26991 0.0
C1325 C 0.15081 0.82829 0.27665 0.0
C1326 C 0.15216 0.81588 0.25171 0.0
H1327 H 0.23294 0.84633 0.44827 0.0
H1328 H 0.21073 0.83486 0.39566 0.0
C1329 C 0.14064 0.80925 0.22006 0.0
C1330 C 0.16339 0.83547 0.30992 0.0
H1331 H 0.20949 0.85818 0.3357 0.0
C1332 C 0.15548 0.83155 0.34604 0.0
C1333 C 0.18313 0.84546 0.30616 0.0
C1334 C 0.19252 0.85105 0.26823 0.0
C1335 C 0.16676 0.83688 0.37847 0.0
C1336 C 0.18646 0.84651 0.37462 0.0
C1337 C 0.19437 0.85063 0.33855 0.0
C1338 C 0.19917 0.85274 0.40766 0.0
C1339 C 0.15756 0.83179 0.4166 0.0
C1340 C 0.20005 0.8666 0.43178 0.0
C1341 C 0.21272 0.87318 0.46176 0.0
C1342 C 0.22481 0.86605 0.46826 0.0
C1343 C 0.22371 0.85197 0.44431 0.0
C1344 C 0.2111 0.84548 0.41413 0.0
H1345 H 0.14252 0.82094 0.41467 0.0
H1346 H 0.16474 0.82658 0.43533 0.0
H1347 H 0.15857 0.84447 0.42976 0.0
H1348 H 0.19114 0.87257 0.42703 0.0
H1349 H 0.21306 0.88389 0.47986 0.0
H1350 H 0.80245 0.67337 0.79664 0.0
H1351 H 0.81391 0.66315 0.74373 0.0
H1352 H 0.85587 0.72051 0.72127 0.0
H1353 H 0.8444 0.73088 0.77432 0.0
H1354 H 0.81509 0.67286 0.66893 0.0
H1355 H 0.88631 0.69386 0.72123 0.0
H1356 H 0.86815 0.69249 0.75153 0.0
H1357 H 0.88083 0.71237 0.72111 0.0
C1358 C 0.81412 0.68385 0.7805 0.0
C1359 C 0.82246 0.70298 0.7897 0.0
C1360 C 0.8207 0.67796 0.75031 0.0
C1361 C 0.83584 0.69102 0.72869 0.0
C1362 C 0.84439 0.71013 0.738 0.0
H1363 H 0.89141 0.68219 0.52943 0.0
H1364 H 0.88049 0.69271 0.58277 0.0
C1365 C 0.83783 0.71605 0.76835 0.0
C1366 C 0.84208 0.6846 0.69555 0.0
H1367 H 0.87949 0.68329 0.65814 0.0
C1368 C 0.82915 0.67508 0.66662 0.0
C1369 C 0.86044 0.68752 0.69255 0.0
C1370 C 0.87472 0.69697 0.72337 0.0
C1371 C 0.83414 0.66864 0.63454 0.0
C1372 C 0.85248 0.67153 0.63157 0.0
C1373 C 0.86543 0.68109 0.66046 0.0
C1374 C 0.85862 0.66494 0.59856 0.0
C1375 C 0.81985 0.65918 0.60374 0.0
C1376 C 0.84999 0.64578 0.58965 0.0
C1377 C 0.85625 0.63969 0.55911 0.0
C1378 C 0.8714 0.65263 0.53708 0.0
C1379 C 0.87991 0.6718 0.54603 0.0
C1380 C 0.87363 0.67787 0.57647 0.0
H1381 H 0.80828 0.66233 0.60581 0.0
H1382 H 0.82642 0.6636 0.57557 0.0
H1383 H 0.81369 0.64378 0.6061 0.0
H1384 H 0.83862 0.6355 0.60675 0.0
H1385 H 0.84955 0.62482 0.5534 0.0
H1386 H 0.35187 0.13857 0.79618 0.0
H1387 H 0.3603 0.15771 0.73964 0.0
H1388 H 0.30259 0.12891 0.70442 0.0
H1389 H 0.29394 0.1093 0.76093 0.0
H1390 H 0.3545 0.14634 0.66239 0.0
H1391 H 0.31825 0.18526 0.7026 0.0
H1392 H 0.3233 0.1719 0.7361 0.0
H1393 H 0.30423 0.16012 0.70361 0.0
C1394 C 0.34091 0.13601 0.77635 0.0
C1395 C 0.32216 0.12224 0.78333 0.0
C1396 C 0.3458 0.14711 0.74403 0.0
C1397 C 0.33208 0.14487 0.718 0.0
C1398 C 0.31337 0.13106 0.72447 0.0
H1399 H 0.33804 0.20797 0.51752 0.0
H1400 H 0.32819 0.1852 0.56865 0.0
C1401 C 0.30845 0.11987 0.75685 0.0
C1402 C 0.33751 0.15716 0.68434 0.0
H1403 H 0.33293 0.19212 0.64332 0.0
C1404 C 0.34977 0.15634 0.65811 0.0
C1405 C 0.33133 0.17019 0.67891 0.0
C1406 C 0.31867 0.17211 0.70686 0.0
C1407 C 0.35588 0.16808 0.62635 0.0
C1408 C 0.34991 0.1813 0.62116 0.0
C1409 C 0.33753 0.182 0.6473 0.0
C1410 C 0.35623 0.19455 0.58884 0.0
C1411 C 0.3684 0.16596 0.59834 0.0
C1412 C 0.37532 0.20741 0.583 0.0
C1413 C 0.38101 0.22047 0.5536 0.0
C1414 C 0.3677 0.22109 0.52986 0.0
C1415 C 0.34863 0.20806 0.5356 0.0
C1416 C 0.34298 0.19497 0.56475 0.0
H1417 H 0.36728 0.15199 0.60054 0.0
H1418 H 0.36494 0.1679 0.56911 0.0
H1419 H 0.38316 0.17675 0.60403 0.0
H1420 H 0.38579 0.20767 0.60173 0.0
H1421 H 0.39576 0.23046 0.55022 0.0
H1422 H 0.79881 0.17495 0.54514 0.0
H1423 H 0.8189 0.18496 0.60107 0.0
H1424 H 0.80188 0.12736 0.62564 0.0
H1425 H 0.78196 0.11734 0.56973 0.0
H1426 H 0.81188 0.17668 0.67644 0.0
H1427 H 0.85835 0.15134 0.62286 0.0
H1428 H 0.84149 0.15309 0.59336 0.0
H1429 H 0.83413 0.1335 0.62472 0.0
C1430 C 0.79919 0.16442 0.56271 0.0
C1431 C 0.78894 0.14536 0.55274 0.0
C1432 C 0.81074 0.17015 0.59457 0.0
C1433 C 0.81226 0.15695 0.61709 0.0
C1434 C 0.80139 0.13786 0.60812 0.0
H1435 H 0.8786 0.16734 0.81742 0.0
H1436 H 0.85589 0.15538 0.76576 0.0
C1437 C 0.78996 0.13214 0.57619 0.0
C1438 C 0.82534 0.16315 0.64969 0.0
H1439 H 0.8632 0.16209 0.68592 0.0
C1440 C 0.82312 0.17352 0.67845 0.0
C1441 C 0.84004 0.15903 0.65236 0.0
C1442 C 0.8438 0.14879 0.62154 0.0
C1443 C 0.83505 0.17972 0.70991 0.0
C1444 C 0.84972 0.17561 0.71251 0.0
C1445 C 0.85187 0.16511 0.68396 0.0
C1446 C 0.86348 0.18277 0.74386 0.0
C1447 C 0.83175 0.19046 0.74035 0.0
C1448 C 0.87553 0.20209 0.74823 0.0
C1449 C 0.88863 0.20896 0.77741 0.0
C1450 C 0.89003 0.19667 0.80305 0.0
C1451 C 0.87807 0.17724 0.79822 0.0
C1452 C 0.86499 0.17037 0.7688 0.0
H1453 H 0.81741 0.18842 0.7389 0.0
H1454 H 0.8339 0.18613 0.76864 0.0
H1455 H 0.84188 0.20564 0.73696 0.0
H1456 H 0.87491 0.21189 0.72878 0.0
H1457 H 0.89781 0.22395 0.77947 0.0
H1458 H 0.45628 0.00976 0.10923 0.0
H1459 H 0.46761 1.00077 0.05447 0.0
H1460 H 0.52161 0.05059 0.06654 0.0
H1461 H 0.5107 0.05921 0.1228 0.0
H1462 H 0.48092 0.0165 0.98753 0.0
H1463 H 0.53624 0.01086 0.06507 0.0
H1464 H 0.51853 0.01372 0.08871 0.0
H1465 H 0.53857 0.03364 0.06829 0.0
C1466 C 0.47064 0.01877 0.10065 0.0
C1467 C 0.48264 0.03507 0.12112 0.0
C1468 C 0.47705 0.01366 0.06899 0.0
C1469 C 0.4956 0.02474 0.05683 0.0
C1470 C 0.50738 0.04152 0.07597 0.0
H1471 H 0.55769 0.01554 0.87006 0.0
H1472 H 0.54557 0.0261 0.92105 0.0
C1473 C 0.50102 0.04658 0.10792 0.0
C1474 C 0.50254 0.01848 0.02449 0.0
H1475 H 0.53585 0.00757 0.99876 0.0
C1476 C 0.4929 0.0145 0.99006 0.0
C1477 C 0.51809 0.01569 0.02782 0.0
C1478 C 0.52836 0.01851 0.06454 0.0
C1479 C 0.49854 0.0081 0.95885 0.0
C1480 C 0.51419 1.0056 0.96214 0.0
C1481 C 0.52387 0.00958 0.9964 0.0
C1482 C 0.52095 0.99908 0.93018 0.0
C1483 C 0.48792 1.00424 0.92235 0.0
C1484 C 0.51108 0.98032 0.91837 0.0
C1485 C 0.51812 0.97408 0.88943 0.0
C1486 C 0.53517 0.98651 0.87171 0.0
C1487 C 0.54475 1.0054 0.88333 0.0
C1488 C 0.53778 0.01155 0.91238 0.0
H1489 H 0.47761 0.00916 0.9229 0.0
H1490 H 0.49777 0.01119 0.89866 0.0
H1491 H 0.4803 0.98894 0.91683 0.0
H1492 H 0.49812 0.97044 0.93205 0.0
H1493 H 0.5104 0.95944 0.88165 0.0
H1494 H 0.04877 0.54314 0.85034 0.0
H1495 H 0.03838 0.52019 0.90149 0.0
H1496 H 1.00108 0.53884 0.94073 0.0
H1497 H 0.01158 0.56202 0.8905 0.0
H1498 H 0.03952 0.52737 0.9817 0.0
H1499 H 0.96717 0.4811 0.92945 0.0
H1500 H 0.98578 0.49779 0.89962 0.0
H1501 H 0.97439 0.50558 0.93188 0.0
C1502 C 0.03846 0.5425 0.86994 0.0
C1503 C 0.03096 0.55444 0.86591 0.0
C1504 C 0.03246 0.52927 0.89905 0.0
C1505 C 0.01872 0.52759 0.92448 0.0
C1506 C 0.01138 0.5396 0.9209 0.0
H1507 H 0.96343 0.46156 0.12248 0.0
H1508 H 0.97295 0.48181 0.06681 0.0
C1509 C 0.01742 0.55287 0.892 0.0
C1510 C 0.01238 0.51369 0.95551 0.0
H1511 H 0.97389 0.47522 0.99123 0.0
C1512 C 0.02522 0.51586 0.98368 0.0
C1513 C 0.99368 0.49879 0.95811 0.0
C1514 C 0.97945 0.4955 0.92804 0.0
C1515 C 0.01975 0.50381 0.01493 0.0
C1516 C 1.00102 0.48888 0.01758 0.0
C1517 C 0.98822 0.48664 0.9892 0.0
C1518 C 0.99443 0.47561 0.04986 0.0
C1519 C 0.03395 0.50761 0.04542 0.0
C1520 C 1.0029 0.46492 0.05817 0.0
C1521 C 0.99751 0.45339 0.08996 0.0
C1522 C 0.98336 0.45211 0.11387 0.0
C1523 C 0.97428 0.46214 0.10451 0.0
C1524 C 0.97977 0.47379 0.07281 0.0
H1525 H 0.04583 0.52225 0.0443 0.0
H1526 H 0.02746 0.50504 0.07372 0.0
H1527 H 0.03971 0.49811 0.04165 0.0
H1528 H 0.01385 0.46565 0.04028 0.0
H1529 H 1.00453 0.44557 0.096 0.0
H1530 H 0.44656 0.45295 0.90407 0.0
H1531 H 0.4689 0.46494 0.95592 0.0
H1532 H 0.49192 0.52106 0.91249 0.0
H1533 H 0.46955 0.50912 0.86024 0.0
H1534 H 0.50744 0.48386 0.95341 0.0
H1535 H 0.48224 0.52746 0.02233 0.0
H1536 H 0.46878 0.51021 0.98697 0.0
H1537 H 0.48791 0.53272 0.97348 0.0
C1538 C 0.4564 0.46784 0.90533 0.0
C1539 C 0.45624 0.48006 0.8778 0.0
C1540 C 0.46913 0.47469 0.93517 0.0
C1541 C 0.48197 0.49392 0.93841 0.0
C1542 C 0.48189 0.5062 0.91105 0.0
H1543 H 0.57188 0.56157 0.09321 0.0
H1544 H 0.54941 0.54926 0.04166 0.0
C1545 C 0.46909 0.49936 0.88115 0.0
C1546 C 0.4957 0.50093 0.96991 0.0
H1547 H 0.5105 0.53037 0.04567 0.0
C1548 C 0.50806 0.49397 0.97368 0.0
C1549 C 0.49649 0.5141 0.9964 0.0
C1550 C 0.48305 0.52146 0.99493 0.0
C1551 C 0.52141 0.50008 0.00274 0.0
C1552 C 0.52224 0.5133 0.02914 0.0
C1553 C 0.50986 0.52024 0.02541 0.0
C1554 C 0.53609 0.52046 0.0604 0.0
C1555 C 0.53481 0.49268 0.00437 0.0
C1556 C 0.53609 0.50837 0.0883 0.0
C1557 C 0.54895 0.5154 0.11809 0.0
C1558 C 0.56196 0.5347 0.12074 0.0
C1559 C 0.56192 0.5467 0.09255 0.0
C1560 C 0.54911 0.53967 0.06286 0.0
H1561 H 0.53539 0.48634 0.97723 0.0
H1562 H 0.54914 0.50401 0.01172 0.0
H1563 H 0.53011 0.4817 0.02639 0.0
H1564 H 0.52594 0.49353 0.0874 0.0
H1565 H 0.54839 0.50579 0.13949 0.0
H1566 H 0.18787 0.18854 0.04588 0.0
H1567 H 0.20156 0.17014 0.02342 0.0
H1568 H 0.2503 0.22065 0.98523 0.0
H1569 H 0.23664 0.23925 0.00782 0.0
H1570 H 0.2116 0.16662 0.9521 0.0
H1571 H 0.2735 0.19576 0.04626 0.0
H1572 H 0.25411 0.19963 0.05402 0.0
H1573 H 0.27161 0.2132 0.01945 0.0
C1574 C 0.20145 0.19579 0.03253 0.0
C1575 C 0.21113 0.21542 0.02856 0.0
C1576 C 0.20931 0.18522 0.01988 0.0
C1577 C 0.22706 0.194 0.00307 0.0
C1578 C 0.23676 0.21358 0.99889 0.0
H1579 H 0.29479 0.15415 0.89643 0.0
H1580 H 0.28109 0.17234 0.92038 0.0
C1581 C 0.22893 0.2242 0.01172 0.0
C1582 C 0.23504 0.18251 0.98895 0.0
H1583 H 0.27253 0.1758 0.99704 0.0
C1584 C 0.22487 0.16856 0.96207 0.0
C1585 C 0.25235 0.18502 0.00205 0.0
C1586 C 0.26347 0.19908 0.03229 0.0
C1587 C 0.2317 0.15732 0.94742 0.0
C1588 C 0.24906 0.15994 0.96028 0.0
C1589 C 0.25922 0.17385 0.9872 0.0
C1590 C 0.25709 0.14863 0.94563 0.0
C1591 C 0.22048 0.14298 0.91768 0.0
C1592 C 0.24819 0.12923 0.95208 0.0
C1593 C 0.256 0.11872 0.93845 0.0
C1594 C 0.27289 0.12746 0.91814 0.0
C1595 C 0.28174 0.14691 0.91182 0.0
C1596 C 0.27397 0.15738 0.92557 0.0
H1597 H 0.20958 0.14546 0.90508 0.0
H1598 H 0.22974 0.14312 0.89492 0.0
H1599 H 0.21339 0.12881 0.93054 0.0
H1600 H 0.23528 0.12224 0.96797 0.0
H1601 H 0.24884 0.1038 0.94395 0.0
H1602 H 0.88336 0.14528 0.90372 0.0
H1603 H 0.858 0.11273 0.91249 0.0
H1604 H 0.87932 0.11212 0.02296 0.0
H1605 H 0.90398 0.14451 0.01504 0.0
H1606 H 0.85762 0.0808 0.92354 0.0
H1607 H 0.82596 0.09346 0.04831 0.0
H1608 H 0.84342 0.11238 0.02028 0.0
H1609 H 0.85026 0.10168 0.05655 0.0
C1610 C 0.88251 0.13819 0.92993 0.0
C1611 C 0.89551 0.14756 0.95888 0.0
C1612 C 0.86803 0.1196 0.93493 0.0
C1613 C 0.8664 0.11008 0.96885 0.0
C1614 C 0.87979 0.11931 0.99713 0.0
H1615 H 0.81354 0.99108 0.0092 0.0
H1616 H 0.83394 0.0238 0.99098 0.0
C1617 C 0.894 0.13785 0.99242 0.0
C1618 C 0.85117 0.09035 0.97468 0.0
H1619 H 0.81875 0.06158 0.03897 0.0
C1620 C 0.84893 0.07663 0.94852 0.0
C1621 C 0.83946 0.08485 0.00679 0.0
C1622 C 0.83975 0.09893 0.0343 0.0
C1623 C 0.83597 0.05753 0.95448 0.0
C1624 C 0.82539 0.0519 0.98818 0.0
C1625 C 0.82704 0.06573 0.01344 0.0
C1626 C 0.81284 0.03181 0.99833 0.0
C1627 C 0.83369 0.04369 0.92431 0.0
C1628 C 0.79435 0.02543 0.01007 0.0
C1629 C 0.78284 1.00682 0.02146 0.0
C1630 C 0.7895 0.99413 0.021 0.0
C1631 C 0.80796 1.00048 0.00921 0.0
C1632 C 0.81957 0.01916 0.99849 0.0
H1633 H 0.83727 0.05045 0.89615 0.0
H1634 H 0.84338 0.03833 0.93007 0.0
H1635 H 0.81917 0.03164 0.92335 0.0
H1636 H 0.7888 0.03487 0.01045 0.0
H1637 H 0.76864 1.00228 0.03019 0.0
H1638 H 0.02606 0.80819 0.95995 0.0
H1639 H 0.99338 0.79736 0.94418 0.0
H1640 H 0.97833 0.78516 0.06102 0.0
H1641 H 0.01103 0.79649 0.07725 0.0
H1642 H 0.96131 0.76211 0.95623 0.0
H1643 H 0.95639 0.81833 0.03174 0.0
H1644 H 0.97849 0.81983 0.02136 0.0
H1645 H 0.96457 0.80591 0.06027 0.0
C1646 C 0.01588 0.80343 0.98241 0.0
C1647 C 0.0213 0.80338 0.01996 0.0
C1648 C 0.99715 0.79709 0.97327 0.0
C1649 C 0.98344 0.79069 0.00145 0.0
C1650 C 0.98871 0.79034 0.03887 0.0
H1651 H 0.86476 0.74939 0.01306 0.0
H1652 H 0.89741 0.75862 0.02414 0.0
C1653 C 1.00743 0.79665 0.04805 0.0
C1654 C 0.96362 0.7843 0.99172 0.0
H1655 H 0.92799 0.79303 0.00862 0.0
C1656 C 0.95403 0.76891 0.96749 0.0
C1657 C 0.95416 0.79324 0.00635 0.0
C1658 C 0.96394 0.81035 0.0311 0.0
C1659 C 0.93507 0.76189 0.95837 0.0
C1660 C 0.92557 0.7707 0.97337 0.0
C1661 C 0.93525 0.78623 0.99723 0.0
C1662 C 0.90545 0.76387 0.96559 0.0
C1663 C 0.92525 0.74477 0.93366 0.0
C1664 C 0.89901 0.7636 0.92887 0.0
C1665 C 0.88022 0.75822 0.92235 0.0
C1666 C 0.86758 0.7532 0.95252 0.0
C1667 C 0.87407 0.75321 0.98914 0.0
C1668 C 0.89277 0.75851 0.99557 0.0
H1669 H 0.93302 0.73701 0.93221 0.0
H1670 H 0.91088 0.7351 0.94404 0.0
H1671 H 0.92416 0.74917 0.90472 0.0
H1672 H 0.9086 0.76801 0.90534 0.0
H1673 H 0.87572 0.75848 0.89384 0.0
H1674 H 0.72366 0.85872 0.1033 0.0
H1675 H 0.7382 0.84124 0.07976 0.0
H1676 H 0.78553 0.89262 0.04052 0.0
H1677 H 0.77117 0.91035 0.06434 0.0
H1678 H 0.74903 0.84002 0.00407 0.0
H1679 H 0.80926 0.86737 0.1029 0.0
H1680 H 0.78893 0.8696 0.11166 0.0
H1681 H 0.8063 0.88481 0.07844 0.0
C1682 C 0.73723 0.86639 0.08991 0.0
C1683 C 0.74623 0.88599 0.08573 0.0
C1684 C 0.74549 0.85633 0.07637 0.0
C1685 C 0.763 0.86562 0.05867 0.0
C1686 C 0.77211 0.88519 0.05455 0.0
H1687 H 0.8343 0.82711 0.96138 0.0
H1688 H 0.8205 0.84545 0.98389 0.0
C1689 C 0.76382 0.89529 0.06799 0.0
C1690 C 0.77143 0.8547 0.04376 0.0
H1691 H 0.80847 0.84749 0.05425 0.0
C1692 C 0.76201 0.84161 0.01505 0.0
C1693 C 0.78838 0.85686 0.05806 0.0
C1694 C 0.79879 0.8703 0.08967 0.0
C1695 C 0.76921 0.83077 0.99992 0.0
C1696 C 0.78607 0.83276 0.01452 0.0
C1697 C 0.79553 0.84594 0.04311 0.0
C1698 C 0.79421 0.8214 1.00045 0.0
C1699 C 0.75889 0.81761 0.96786 0.0
C1700 C 0.78411 0.80174 0.00253 0.0
C1701 C 0.79199 0.79117 0.98964 0.0
C1702 C 0.81023 0.80006 0.97484 0.0
C1703 C 0.82034 0.81977 0.97306 0.0
C1704 C 0.81243 0.8303 0.98577 0.0
H1705 H 0.74947 0.82155 0.95319 0.0
H1706 H 0.7688 0.81742 0.94703 0.0
H1707 H 0.75016 0.8032 0.97906 0.0
H1708 H 0.7702 0.79455 0.01457 0.0
H1709 H 0.78394 0.77606 0.99191 0.0
H1710 H 0.22151 0.00785 0.91987 0.0
H1711 H 0.1995 0.97527 0.93691 0.0
H1712 H 0.20437 0.99108 0.05366 0.0
H1713 H 0.22629 0.02359 0.0369 0.0
H1714 H 0.20431 0.95138 0.98137 0.0
H1715 H 0.14818 0.96158 0.04089 0.0
H1716 H 0.16717 0.97938 0.01349 0.0
H1717 H 0.17043 0.97647 0.06258 0.0
C1718 C 0.21793 1.00441 0.94918 0.0
C1719 C 0.22563 0.01844 0.97696 0.0
C1720 C 0.20526 0.98577 0.95887 0.0
C1721 C 0.19995 0.98074 0.99651 0.0
C1722 C 0.20778 0.99466 0.02431 0.0
H1723 H 0.15729 0.87273 0.10147 0.0
H1724 H 0.17562 0.90449 0.07689 0.0
C1725 C 0.22038 0.01329 0.01466 0.0
C1726 C 0.18689 0.96083 0.00698 0.0
H1727 H 0.14659 0.9324 0.05516 0.0
C1728 C 0.19161 0.94722 0.99721 0.0
C1729 C 0.17011 0.95527 0.0271 0.0
C1730 C 0.16355 0.96891 0.03629 0.0
C1731 C 0.18042 0.9284 0.00817 0.0
C1732 C 0.16423 0.92306 0.0302 0.0
C1733 C 0.15911 0.93651 0.03874 0.0
C1734 C 0.15278 0.90374 0.04552 0.0
C1735 C 0.18602 0.91439 0.99585 0.0
C1736 C 0.1336 0.89288 0.03724 0.0
C1737 C 0.12295 0.87465 0.05161 0.0
C1738 C 0.13127 0.86696 0.0747 0.0
C1739 C 0.1504 0.87806 0.08351 0.0
C1740 C 0.16098 0.89624 0.06924 0.0
H1741 H 0.19495 0.91923 0.9703 0.0
H1742 H 0.19421 0.91262 0.01861 0.0
H1743 H 0.17355 0.90051 0.9899 0.0
H1744 H 0.12692 0.89843 0.01927 0.0
H1745 H 0.10825 0.86657 0.04439 0.0
H1746 H 0.15232 0.26031 0.99663 0.0
H1747 H 0.1198 0.25205 0.98942 0.0
H1748 H 0.11397 0.25213 0.10987 0.0
H1749 H 0.14674 0.26014 0.11749 0.0
H1750 H 0.08519 0.22118 0.07777 0.0
H1751 H 0.09556 0.28377 1.00036 0.0
H1752 H 0.1076 0.27338 0.97797 0.0
H1753 H 0.11443 0.28305 0.02454 0.0
C1754 C 0.14426 0.25877 0.02172 0.0
C1755 C 0.15221 0.26094 0.05769 0.0
C1756 C 0.12563 0.25418 0.01748 0.0
C1757 C 0.1145 0.25184 0.04903 0.0
C1758 C 0.12235 0.25404 0.08508 0.0
H1759 H 1.00064 0.23205 0.0077 0.0
H1760 H 0.03285 0.24583 0.03105 0.0
C1761 C 0.14107 0.25862 0.08939 0.0
C1762 C 0.09439 0.24595 0.04391 0.0
H1763 H 0.06515 0.25603 0.9939 0.0
C1764 C 0.0808 0.22896 0.05992 0.0
C1765 C 0.08857 0.25622 0.02118 0.0
C1766 C 0.10232 0.27522 0.00538 0.0
C1767 C 0.06167 0.22147 0.05211 0.0
C1768 C 0.05599 0.23101 0.02694 0.0
C1769 C 0.06948 0.24853 0.01268 0.0
C1770 C 0.03632 0.22262 0.01354 0.0
C1771 C 0.04775 0.20331 0.07071 0.0
C1772 C 0.02767 0.20519 0.99529 0.0
C1773 C 0.00933 0.19732 0.98199 0.0
C1774 C 0.99923 0.20678 0.98621 0.0
C1775 C 1.00804 0.22443 0.00388 0.0
C1776 C 0.02641 0.23228 0.01738 0.0
H1777 H 0.05329 0.20122 0.09766 0.0
H1778 H 0.0343 0.20285 0.07633 0.0
H1779 H 0.04496 0.19145 0.05192 0.0
H1780 H 0.0352 0.19774 0.99084 0.0
H1781 H 1.00322 0.18395 0.96774 0.0
H1782 H 0.90439 0.5756 0.33207 0.0
H1783 H 0.91689 0.55581 0.31021 0.0
H1784 H 0.86735 0.50674 0.3506 0.0
H1785 H 0.85482 0.52629 0.37222 0.0
H1786 H 0.92494 0.53177 0.3491 0.0
H1787 H 0.86978 0.49206 0.24299 0.0
H1788 H 0.87277 0.51316 0.26473 0.0
H1789 H 0.8607 0.49112 0.28923 0.0
C1790 C 0.8962 0.5606 0.33631 0.0
C1791 C 0.87849 0.55254 0.35342 0.0
C1792 C 0.90332 0.5493 0.32372 0.0
C1793 C 0.89287 0.52973 0.32799 0.0
C1794 C 0.87542 0.52172 0.34593 0.0
H1795 H 0.91327 0.43779 0.27739 0.0
H1796 H 0.9005 0.45715 0.30043 0.0
C1797 C 0.86827 0.53296 0.3583 0.0
C1798 C 0.90033 0.51767 0.3144 0.0
H1799 H 0.89053 0.4807 0.25671 0.0
C1800 C 0.91747 0.52068 0.32874 0.0
C1801 C 0.89054 0.50314 0.28789 0.0
C1802 C 0.87252 0.49976 0.27002 0.0
C1803 C 0.92494 0.5094 0.31774 0.0
C1804 C 0.91512 0.49485 0.29137 0.0
C1805 C 0.89797 0.49179 0.27709 0.0
C1806 C 0.92274 0.48306 0.27734 0.0
C1807 C 0.94315 0.51293 0.33486 0.0
C1808 C 0.93929 0.49115 0.2562 0.0
C1809 C 0.94656 0.48016 0.24288 0.0
C1810 C 0.93744 0.46079 0.25037 0.0
C1811 C 0.9207 0.45265 0.2712 0.0
C1812 C 0.91337 0.46369 0.28438 0.0
H1813 H 0.94657 0.52141 0.36097 0.0
H1814 H 0.94265 0.49951 0.34146 0.0
H1815 H 0.95465 0.52073 0.31443 0.0
H1816 H 0.94657 0.506 0.24987 0.0
H1817 H 0.95943 0.48693 0.22684 0.0
H1818 H 0.56348 0.47977 0.22035 0.0
H1819 H 0.54097 0.44618 0.22778 0.0
H1820 H 0.53991 0.45381 0.34747 0.0
H1821 H 0.56234 0.48709 0.34046 0.0
H1822 H 0.54621 0.42459 0.32766 0.0
H1823 H 0.48457 0.41899 0.25212 0.0
H1824 H 0.50627 0.42983 0.22659 0.0
H1825 H 0.50386 0.44118 0.26748 0.0
C1826 C 0.55827 0.47431 0.24817 0.0
C1827 C 0.56478 0.48614 0.2798 0.0
C1828 C 0.54536 0.45513 0.25236 0.0
C1829 C 0.53866 0.44749 0.28819 0.0
C1830 C 0.54488 0.45937 0.31958 0.0
H1831 H 0.46778 0.3421 0.39842 0.0
H1832 H 0.4894 0.37454 0.38073 0.0
C1833 C 0.55772 0.47844 0.31546 0.0
C1834 C 0.52592 0.42704 0.29375 0.0
H1835 H 0.48166 0.39098 0.27637 0.0
C1836 C 0.53211 0.41723 0.31634 0.0
C1837 C 0.50758 0.41742 0.27877 0.0
C1838 C 0.50003 0.42735 0.2551 0.0
C1839 C 0.52044 0.39816 0.32469 0.0
C1840 C 0.50191 0.38865 0.31067 0.0
C1841 C 0.49585 0.3983 0.28722 0.0
C1842 C 0.48846 0.36889 0.32113 0.0
C1843 C 0.52813 0.38832 0.34832 0.0
C1844 C 0.48031 0.35495 0.29345 0.0
C1845 C 0.46773 0.33633 0.30347 0.0
C1846 C 0.46292 0.3313 0.34139 0.0
C1847 C 0.47099 0.3454 0.36896 0.0
C1848 C 0.48355 0.36397 0.35892 0.0
H1849 H 0.54367 0.39578 0.34755 0.0
H1850 H 0.5238 0.38793 0.37798 0.0
H1851 H 0.52267 0.37369 0.33868 0.0
H1852 H 0.48378 0.35845 0.26409 0.0
H1853 H 0.46161 0.32595 0.28141 0.0
H1854 H 0.54242 0.06264 0.22995 0.0
H1855 H 0.57435 0.07614 0.25343 0.0
H1856 H 0.56809 0.11765 0.31506 0.0
H1857 H 0.53605 0.10438 0.29116 0.0
H1858 H 0.6019 0.13274 0.27748 0.0
H1859 H 0.58963 0.07039 0.35925 0.0
H1860 H 0.58273 0.06509 0.31092 0.0
H1861 H 0.57075 0.07318 0.34107 0.0
C1862 C 0.54775 0.07462 0.24855 0.0
C1863 C 0.53654 0.08231 0.25887 0.0
C1864 C 0.56602 0.08226 0.26215 0.0
C1865 C 0.57351 0.09766 0.28665 0.0
C1866 C 0.56255 0.10566 0.29644 0.0
H1867 H 0.67734 0.13317 0.4119 0.0
H1868 H 0.64486 0.12243 0.39443 0.0
C1869 C 0.54422 0.09803 0.28276 0.0
C1870 C 0.59289 0.10554 0.30143 0.0
H1871 H 0.62154 0.09373 0.34884 0.0
C1872 C 0.60617 0.12426 0.29333 0.0
C1873 C 0.59842 0.09458 0.32267 0.0
C1874 C 0.5846 0.07476 0.33435 0.0
C1875 C 0.62493 0.13212 0.30479 0.0
C1876 C 0.63066 0.12084 0.3243 0.0
C1877 C 0.61724 0.10232 0.33349 0.0
C1878 C 0.65053 0.12786 0.33497 0.0
C1879 C 0.63839 0.15246 0.29614 0.0
C1880 C 0.66455 0.13429 0.30737 0.0
C1881 C 0.68314 0.14041 0.31727 0.0
C1882 C 0.68814 0.14006 0.355 0.0
C1883 C 0.67402 0.13348 0.38256 0.0
C1884 C 0.65543 0.12742 0.37263 0.0
H1885 H 0.63094 0.1604 0.29164 0.0
H1886 H 0.64872 0.15925 0.31919 0.0
H1887 H 0.64612 0.15344 0.26996 0.0
H1888 H 0.66107 0.13429 0.27801 0.0
H1889 H 0.69352 0.14502 0.2952 0.0
H1890 H 0.47914 0.12771 0.38073 0.0
H1891 H 0.46937 0.15017 0.39795 0.0
H1892 H 0.45683 0.15434 0.28185 0.0
H1893 H 0.46713 0.13228 0.26414 0.0
H1894 H 0.47724 0.18893 0.31627 0.0
H1895 H 0.4162 0.1414 0.40398 0.0
H1896 H 0.43748 0.14214 0.41782 0.0
H1897 H 0.42743 0.13292 0.37247 0.0
C1898 C 0.4744 0.13343 0.35875 0.0
C1899 C 0.47394 0.1281 0.32099 0.0
C1900 C 0.46858 0.14613 0.36875 0.0
C1901 C 0.46206 0.15372 0.3413 0.0
C1902 C 0.46166 0.14854 0.30357 0.0
H1903 H 0.40721 0.21907 0.38678 0.0
H1904 H 0.41438 0.19493 0.36676 0.0
C1905 C 0.46745 0.13581 0.29352 0.0
C1906 C 0.45633 0.16759 0.35184 0.0
H1907 H 0.42645 0.17403 0.40803 0.0
C1908 C 0.46606 0.18564 0.33617 0.0
C1909 C 0.44158 0.16323 0.37742 0.0
C1910 C 0.42993 0.14382 0.39365 0.0
C1911 C 0.46179 0.19957 0.34613 0.0
C1912 C 0.44759 0.19544 0.37295 0.0
C1913 C 0.43749 0.17725 0.38783 0.0
C1914 C 0.4431 0.20988 0.38603 0.0
C1915 C 0.47243 0.21854 0.32756 0.0
C1916 C 0.45673 0.22613 0.40424 0.0
C1917 C 0.45269 0.23994 0.41572 0.0
C1918 C 0.43487 0.23776 0.40943 0.0
C1919 C 0.42109 0.22124 0.392 0.0
C1920 C 0.42516 0.20741 0.38053 0.0
H1921 H 0.47902 0.21788 0.30081 0.0
H1922 H 0.46311 0.22433 0.32161 0.0
H1923 H 0.48373 0.22836 0.34668 0.0
H1924 H 0.47054 0.22816 0.40954 0.0
H1925 H 0.46361 0.25241 0.42926 0.0
H1926 H 0.82226 0.20661 0.44564 0.0
H1927 H 0.84085 0.2388 0.42326 0.0
H1928 H 0.79332 0.23294 0.36119 0.0
H1929 H 0.77442 0.20072 0.38408 0.0
H1930 H 0.85008 0.25171 0.35139 0.0
H1931 H 0.81003 0.28147 0.41846 0.0
H1932 H 0.8068 0.25884 0.43117 0.0
H1933 H 0.79623 0.26148 0.3891 0.0
C1934 C 0.81566 0.21214 0.4274 0.0
C1935 C 0.79678 0.20101 0.41675 0.0
C1936 C 0.82636 0.23058 0.41457 0.0
C1937 C 0.81846 0.23841 0.39087 0.0
C1938 C 0.79964 0.22736 0.38005 0.0
H1939 H 0.88604 0.34098 0.26034 0.0
H1940 H 0.86495 0.30856 0.27962 0.0
C1941 C 0.78887 0.20888 0.39301 0.0
C1942 C 0.8302 0.25796 0.37689 0.0
H1943 H 0.83431 0.30133 0.37674 0.0
C1944 C 0.84661 0.26256 0.35689 0.0
C1945 C 0.82579 0.27217 0.38441 0.0
C1946 C 0.80886 0.26835 0.40725 0.0
C1947 C 0.85872 0.28091 0.34425 0.0
C1948 C 0.85414 0.29505 0.35115 0.0
C1949 C 0.83774 0.29047 0.37117 0.0
C1950 C 0.86654 0.31482 0.33903 0.0
C1951 C 0.87659 0.28509 0.32458 0.0
C1952 C 0.87405 0.32927 0.36582 0.0
C1953 C 0.88605 0.34785 0.35485 0.0
C1954 C 0.89081 0.35242 0.31678 0.0
C1955 C 0.88299 0.33795 0.28993 0.0
C1956 C 0.87092 0.31937 0.30093 0.0
H1957 H 0.88034 0.27411 0.33016 0.0
H1958 H 0.87473 0.28561 0.29379 0.0
H1959 H 0.88843 0.29885 0.33356 0.0
H1960 H 0.87086 0.32612 0.39538 0.0
H1961 H 0.8919 0.35855 0.37634 0.0
H1962 H 0.67901 0.57196 0.28287 0.0
H1963 H 0.71132 0.58443 0.30392 0.0
H1964 H 0.69412 0.53572 0.37368 0.0
H1965 H 0.66172 0.52322 0.35318 0.0
H1966 H 0.72825 0.59186 0.37895 0.0
H1967 H 0.73392 0.5365 0.30087 0.0
H1968 H 0.71539 0.54161 0.29222 0.0
H1969 H 0.71455 0.52828 0.33289 0.0
C1970 C 0.68198 0.56403 0.30321 0.0
C1971 C 0.66772 0.54646 0.31608 0.0
C1972 C 0.7005 0.57117 0.31512 0.0
C1973 C 0.70515 0.56089 0.33998 0.0
C1974 C 0.69088 0.54374 0.35402 0.0
H1975 H 0.81547 0.59636 0.44121 0.0
H1976 H 0.78219 0.58645 0.43331 0.0
C1977 C 0.67238 0.5366 0.34217 0.0
C1978 C 0.72502 0.56759 0.34961 0.0
H1979 H 0.75997 0.55739 0.33722 0.0
C1980 C 0.7352 0.58431 0.37002 0.0
C1981 C 0.73407 0.55778 0.33761 0.0
C1982 C 0.72403 0.54012 0.31442 0.0
C1983 C 0.75423 0.59147 0.37873 0.0
C1984 C 0.76322 0.5816 0.36683 0.0
C1985 C 0.75299 0.56486 0.34657 0.0
C1986 C 0.78354 0.58892 0.37266 0.0
C1987 C 0.76475 0.60978 0.39964 0.0
C1988 C 0.7953 0.59361 0.34129 0.0
C1989 C 0.81418 0.59921 0.34567 0.0
C1990 C 0.82178 0.60013 0.38158 0.0
C1991 C 0.81008 0.59584 0.41318 0.0
C1992 C 0.79108 0.59024 0.40873 0.0
H1993 H 0.75665 0.6172 0.40134 0.0
H1994 H 0.76769 0.60704 0.42868 0.0
H1995 H 0.77836 0.61912 0.38578 0.0
H1996 H 0.78978 0.5927 0.31322 0.0
H1997 H 0.82273 0.60247 0.32066 0.0
H1998 H 0.58809 0.77521 0.64238 0.0
H1999 H 0.57574 0.79521 0.66285 0.0
H2000 H 0.60333 0.83247 0.56957 0.0
H2001 H 0.61635 0.81298 0.55007 0.0
H2002 H 0.60885 0.8521 0.62994 0.0
H2003 H 0.53325 0.79984 0.62313 0.0
H2004 H 0.54568 0.79263 0.65391 0.0
H2005 H 0.55082 0.79525 0.60433 0.0
C2006 C 0.59135 0.78753 0.62603 0.0
C2007 C 0.60317 0.79245 0.59455 0.0
C2008 C 0.58419 0.79895 0.63765 0.0
C2009 C 0.5883 0.81525 0.61744 0.0
C2010 C 0.59991 0.82 0.58571 0.0
H2011 H 0.52861 0.87657 0.64053 0.0
H2012 H 0.54128 0.85676 0.62027 0.0
C2013 C 0.60733 0.80881 0.57452 0.0
C2014 C 0.58119 0.82781 0.62993 0.0
H2015 H 0.54154 0.82876 0.6531 0.0
C2016 C 0.5941 0.84699 0.6348 0.0
C2017 C 0.56193 0.82126 0.63588 0.0
C2018 C 0.54711 0.80116 0.62867 0.0
C2019 C 0.58835 0.85974 0.64539 0.0
C2020 C 0.56917 0.85308 0.65275 0.0
C2021 C 0.55626 0.8339 0.64783 0.0
C2022 C 0.56207 0.86574 0.66452 0.0
C2023 C 0.60286 0.8803 0.64739 0.0
C2024 C 0.56947 0.87745 0.69613 0.0
C2025 C 0.56247 0.88906 0.70722 0.0
C2026 C 0.5476 0.88883 0.68748 0.0
C2027 C 0.54007 0.87699 0.65618 0.0
C2028 C 0.54729 0.86565 0.64469 0.0
H2029 H 0.61527 0.88364 0.62983 0.0
H2030 H 0.59706 0.8892 0.63793 0.0
H2031 H 0.60773 0.88402 0.67687 0.0
H2032 H 0.58045 0.87738 0.71269 0.0
H2033 H 0.56825 0.89775 0.73195 0.0
H2034 H 0.22991 0.81463 0.67882 0.0
H2035 H 0.2056 0.78189 0.68289 0.0
H2036 H 0.19937 0.77955 0.56228 0.0
H2037 H 0.22421 0.81253 0.5578 0.0
H2038 H 0.16895 0.7638 0.66192 0.0
H2039 H 0.20798 0.73591 0.58338 0.0
H2040 H 0.21896 0.75985 0.59949 0.0
H2041 H 0.2042 0.75273 0.55859 0.0
C2042 C 0.22342 0.80725 0.65302 0.0
C2043 C 0.22915 0.81622 0.61791 0.0
C2044 C 0.20944 0.78847 0.65546 0.0
C2045 C 0.20079 0.77815 0.62292 0.0
C2046 C 0.20609 0.78713 0.58776 0.0
H2047 H 0.10452 0.66352 0.65561 0.0
H2048 H 0.12316 0.69615 0.63434 0.0
C2049 C 0.22023 0.806 0.58525 0.0
C2050 C 0.18652 0.75794 0.62651 0.0
H2051 H 0.17852 0.71392 0.60742 0.0
C2052 C 0.17091 0.75287 0.64966 0.0
C2053 C 0.18919 0.74369 0.61077 0.0
C2054 C 0.20604 0.74822 0.5869 0.0
C2055 C 0.15829 0.73403 0.65854 0.0
C2056 C 0.1611 0.7198 0.64319 0.0
C2057 C 0.17634 0.72483 0.61901 0.0
C2058 C 0.14953 0.69983 0.65464 0.0
C2059 C 0.14264 0.72963 0.68586 0.0
C2060 C 0.15815 0.69089 0.67229 0.0
C2061 C 0.14759 0.67229 0.68415 0.0
C2062 C 0.1281 0.66212 0.67863 0.0
C2063 C 0.11946 0.67103 0.66065 0.0
C2064 C 0.13009 0.68968 0.64854 0.0
H2065 H 0.14482 0.7423 0.7012 0.0
H2066 H 0.12924 0.72383 0.67021 0.0
H2067 H 0.14129 0.719 0.70674 0.0
H2068 H 0.1731 0.69843 0.67747 0.0
H2069 H 0.15472 0.66605 0.69841 0.0
H2070 H 0.19443 0.41131 0.67955 0.0
H2071 H 0.22732 0.42088 0.68579 0.0
H2072 H 0.23268 0.4218 0.56509 0.0
H2073 H 0.19951 0.41256 0.55848 0.0
H2074 H 0.24731 0.40474 0.66358 0.0
H2075 H 0.27407 0.47398 0.59397 0.0
H2076 H 0.24989 0.45955 0.60738 0.0
H2077 H 0.25863 0.45395 0.56611 0.0
C2078 C 0.2025 0.41349 0.65417 0.0
C2079 C 0.19431 0.41132 0.61845 0.0
C2080 C 0.22136 0.41893 0.65785 0.0
C2081 C 0.23259 0.42232 0.62597 0.0
C2082 C 0.22439 0.41964 0.59013 0.0
H2083 H 0.34796 0.44477 0.66605 0.0
H2084 H 0.31579 0.43027 0.6421 0.0
C2085 C 0.20541 0.41425 0.58638 0.0
C2086 C 0.25288 0.42904 0.63108 0.0
H2087 H 0.29642 0.46707 0.61816 0.0
C2088 C 0.25809 0.41828 0.6533 0.0
C2089 C 0.26691 0.44679 0.61796 0.0
C2090 C 0.26218 0.45936 0.59528 0.0
C2091 C 0.27681 0.42504 0.66384 0.0
C2092 C 0.29082 0.44288 0.65107 0.0
C2093 C 0.28569 0.45336 0.62779 0.0
C2094 C 0.31056 0.45168 0.66421 0.0
C2095 C 0.28125 0.41341 0.69018 0.0
C2096 C 0.31851 0.46874 0.68377 0.0
C2097 C 0.33687 0.47709 0.69713 0.0
C2098 C 0.34777 0.46858 0.69129 0.0
C2099 C 0.33985 0.45154 0.67142 0.0
C2100 C 0.32146 0.44324 0.65778 0.0
H2101 H 0.26848 0.40215 0.70399 0.0
H2102 H 0.28778 0.40669 0.67403 0.0
H2103 H 0.29124 0.4223 0.71233 0.0
H2104 H 0.31038 0.4755 0.68923 0.0
H2105 H 0.34237 0.49004 0.71274 0.0
H2106 H 0.08101 0.55188 0.7736 0.0
H2107 H 0.08873 0.52678 0.76889 0.0
H2108 H 0.095 0.5349 0.64883 0.0
H2109 H 0.08695 0.55944 0.65309 0.0
H2110 H 0.07565 0.49805 0.66693 0.0
H2111 H 0.14083 0.53472 0.75201 0.0
H2112 H 0.11986 0.53076 0.77524 0.0
H2113 H 0.12856 0.54633 0.73558 0.0
C2114 C 0.08401 0.54827 0.74623 0.0
C2115 C 0.08347 0.55776 0.71377 0.0
C2116 C 0.0885 0.53398 0.74359 0.0
C2117 C 0.0927 0.52912 0.70853 0.0
C2118 C 0.09182 0.53838 0.67618 0.0
H2119 H 0.15851 0.48263 0.63612 0.0
H2120 H 0.14465 0.50111 0.6567 0.0
C2121 C 0.08725 0.55249 0.67873 0.0
C2122 C 0.09835 0.51466 0.70486 0.0
H2123 H 0.13331 0.50549 0.7265 0.0
C2124 C 0.08814 0.49954 0.68028 0.0
C2125 C 0.11476 0.51673 0.72203 0.0
C2126 C 0.12677 0.53307 0.74746 0.0
C2127 C 0.09421 0.48684 0.67138 0.0
C2128 C 0.11073 0.48904 0.68823 0.0
C2129 C 0.12059 0.50377 0.71379 0.0
C2130 C 0.11903 0.4774 0.67704 0.0
C2131 C 0.08343 0.4718 0.64252 0.0
C2132 C 0.10931 0.45785 0.68187 0.0
C2133 C 0.11724 0.44715 0.67001 0.0
C2134 C 0.13513 0.45584 0.6535 0.0
C2135 C 0.14487 0.47545 0.64925 0.0
C2136 C 0.13692 0.48607 0.66089 0.0
H2137 H 0.07344 0.47447 0.62652 0.0
H2138 H 0.09309 0.47073 0.62228 0.0
H2139 H 0.07532 0.45808 0.65693 0.0
H2140 H 0.09562 0.45087 0.6949 0.0
H2141 H 0.10948 0.43212 0.67406 0.0
H2142 H 0.44159 0.53213 0.66419 0.0
H2143 H 0.46607 0.56459 0.65604 0.0
H2144 H 0.48861 0.5638 0.76509 0.0
H2145 H 0.46344 0.5312 0.77412 0.0
H2146 H 0.48881 0.5957 0.7554 0.0
H2147 H 0.51916 0.58343 0.62805 0.0
H2148 H 0.49478 0.57525 0.62108 0.0
H2149 H 0.50201 0.56443 0.65636 0.0
C2150 C 0.4518 0.53877 0.68644 0.0
C2151 C 0.45068 0.52899 0.71966 0.0
C2152 C 0.46591 0.55735 0.6816 0.0
C2153 C 0.47959 0.56655 0.70941 0.0
C2154 C 0.47835 0.55696 0.74301 0.0
H2155 H 0.57735 0.67418 0.64788 0.0
H2156 H 0.55694 0.64152 0.66687 0.0
C2157 C 0.46398 0.53834 0.74815 0.0
C2158 C 0.49474 0.58631 0.70345 0.0
H2159 H 0.52665 0.61529 0.63861 0.0
C2160 C 0.49726 0.59995 0.7301 0.0
C2161 C 0.50614 0.59192 0.67088 0.0
C2162 C 0.50553 0.57793 0.64273 0.0
C2163 C 0.51024 0.61905 0.7243 0.0
C2164 C 0.52055 0.6248 0.69026 0.0
C2165 C 0.51857 0.61105 0.66442 0.0
C2166 C 0.53324 0.64492 0.68048 0.0
C2167 C 0.51288 0.63278 0.75501 0.0
C2168 C 0.52679 0.65779 0.68142 0.0
C2169 C 0.53856 0.67652 0.67115 0.0
C2170 C 0.55688 0.68269 0.65868 0.0
C2171 C 0.56325 0.66978 0.65711 0.0
C2172 C 0.5516 0.65113 0.66808 0.0
H2173 H 0.50942 0.62587 0.78302 0.0
H2174 H 0.52746 0.64471 0.7558 0.0
H2175 H 0.50328 0.63832 0.74999 0.0
H2176 H 0.51252 0.6533 0.68949 0.0
H2177 H 0.5332 0.68611 0.67205 0.0
H2178 H 0.33426 0.90104 0.6764 0.0
H2179 H 0.36676 0.91534 0.69825 0.0
H2180 H 0.36999 0.86824 0.65471 0.0
H2181 H 0.33767 0.8539 0.63325 0.0
H2182 H 0.3853 0.87815 0.72459 0.0
H2183 H 0.41296 0.94092 0.63239 0.0
H2184 H 0.39434 0.93764 0.66319 0.0
H2185 H 0.38983 0.92093 0.62649 0.0
C2186 C 0.34195 0.8938 0.67138 0.0
C2187 C 0.33334 0.87632 0.65309 0.0
C2188 C 0.36053 0.90199 0.68382 0.0
C2189 C 0.37092 0.89298 0.67772 0.0
C2190 C 0.36226 0.87545 0.65984 0.0
H2191 H 0.48698 0.93165 0.65859 0.0
H2192 H 0.45406 0.9221 0.65262 0.0
C2193 C 0.34372 0.86722 0.64767 0.0
C2194 C 0.39084 0.90166 0.68949 0.0
H2195 H 0.43446 0.93892 0.6729 0.0
C2196 C 0.39605 0.89151 0.71355 0.0
C2197 C 0.40487 0.91904 0.67483 0.0
C2198 C 0.40032 0.93023 0.64754 0.0
C2199 C 0.4149 0.89798 0.72251 0.0
C2200 C 0.42894 0.91531 0.70767 0.0
C2201 C 0.42368 0.92571 0.6845 0.0
C2202 C 0.44922 0.92193 0.71242 0.0
C2203 C 0.41966 0.88574 0.74623 0.0
C2204 C 0.45765 0.92532 0.74812 0.0
C2205 C 0.47662 0.93069 0.75172 0.0
C2206 C 0.4875 0.93293 0.71962 0.0
C2207 C 0.47908 0.93003 0.68397 0.0
C2208 C 0.4602 0.92459 0.68045 0.0
H2209 H 0.40768 0.8712 0.74861 0.0
H2210 H 0.43179 0.88518 0.73429 0.0
H2211 H 0.42347 0.89169 0.77498 0.0
H2212 H 0.44956 0.92374 0.77318 0.0
H2213 H 0.48271 0.93296 0.77956 0.0
loop_
_geom_bond_atom_site_label_1
_geom_bond_atom_site_label_2
_geom_bond_distance
_geom_bond_site_symmetry_2
_ccdc_geom_bond_type
Co0 N4 2.148 . S
Co0 N10 2.128 . S
Co0 N20 2.194 . S
Co0 O25 2.351 . S
Co0 O26 2.155 . S
Co0 O27 2.096 . S
C1 N4 1.301 . S
C1 N5 1.328 . S
C1 H6 0.930 . S
C2 C3 1.333 . S
C2 N4 1.317 . S
C2 H7 0.930 . S
C3 C2 1.333 . S
C3 N5 1.350 . S
C3 H29 0.931 . S
N4 Co0 2.148 . S
N4 C1 1.301 . S
N4 C2 1.317 . S
N5 C1 1.328 . S
N5 C3 1.350 . S
H6 C1 0.930 . S
H7 C2 0.930 . S
C8 O9 1.224 . S
C8 O27 1.247 . S
O9 C8 1.224 . S
N10 Co0 2.128 . S
N10 C11 1.355 . S
N10 C13 1.311 . S
C11 N10 1.355 . S
C11 C12 1.363 . S
C11 H23 0.929 . S
C12 C11 1.363 . S
C12 N14 1.375 . S
C12 H30 0.931 . S
C13 N10 1.311 . S
C13 N14 1.347 . S
C13 H24 0.929 . S
N14 C12 1.375 . S
N14 C13 1.347 . S
C15 C18 1.365 . S
C15 N20 1.328 . S
C15 H21 0.929 . S
C16 C17 1.362 . S
C16 C19 1.378 . S
C16 H31 0.929 . S
C17 C16 1.362 . S
C17 C18 1.366 . S
C18 C15 1.365 . S
C18 C17 1.366 . S
C18 H32 0.930 . S
C19 C16 1.378 . S
C19 N20 1.315 . S
C19 H22 0.930 . S
N20 Co0 2.194 . S
N20 C15 1.328 . S
N20 C19 1.315 . S
H21 C15 0.929 . S
H22 C19 0.930 . S
H23 C11 0.929 . S
H24 C13 0.929 . S
O25 Co0 2.351 . S
O25 C28 1.244 . S
O26 Co0 2.155 . S
O26 C28 1.240 . S
O27 Co0 2.096 . S
O27 C8 1.247 . S
C28 O25 1.244 . S
C28 O26 1.240 . S
H29 C3 0.931 . S
H30 C12 0.931 . S
H31 C16 0.929 . S
H32 C18 0.930 . S
Co33 N37 2.148 . S
Co33 N43 2.128 . S
Co33 N53 2.194 . S
Co33 O58 2.351 . S
Co33 O59 2.155 . S
Co33 O60 2.096 . S
C34 N37 1.301 . S
C34 N38 1.328 . S
C34 H39 0.930 . S
C35 C36 1.333 . S
C35 N37 1.317 . S
C35 H40 0.930 . S
C36 C35 1.333 . S
C36 N38 1.350 . S
C36 H62 0.931 . S
N37 Co33 2.148 . S
N37 C34 1.301 . S
N37 C35 1.317 . S
N38 C34 1.328 . S
N38 C36 1.350 . S
H39 C34 0.930 . S
H40 C35 0.930 . S
C41 O42 1.224 . S
C41 O60 1.247 . S
O42 C41 1.224 . S
N43 Co33 2.128 . S
N43 C44 1.355 . S
N43 C46 1.311 . S
C44 N43 1.355 . S
C44 C45 1.363 . S
C44 H56 0.929 . S
C45 C44 1.363 . S
C45 N47 1.375 . S
C45 H63 0.931 . S
C46 N43 1.311 . S
C46 N47 1.347 . S
C46 H57 0.929 . S
N47 C45 1.375 . S
N47 C46 1.347 . S
C48 C51 1.365 . S
C48 N53 1.328 . S
C48 H54 0.929 . S
C49 C50 1.362 . S
C49 C52 1.378 . S
C49 H64 0.929 . S
C50 C49 1.362 . S
C50 C51 1.366 . S
C51 C48 1.365 . S
C51 C50 1.366 . S
C51 H65 0.930 . S
C52 C49 1.378 . S
C52 N53 1.315 . S
C52 H55 0.930 . S
N53 Co33 2.194 . S
N53 C48 1.328 . S
N53 C52 1.315 . S
H54 C48 0.929 . S
H55 C52 0.930 . S
H56 C44 0.929 . S
H57 C46 0.929 . S
O58 Co33 2.351 . S
O58 C61 1.244 . S
O59 Co33 2.155 . S
O59 C61 1.240 . S
O60 Co33 2.096 . S
O60 C41 1.247 . S
C61 O58 1.244 . S
C61 O59 1.240 . S
H62 C36 0.931 . S
H63 C45 0.931 . S
H64 C49 0.929 . S
H65 C51 0.930 . S
Co66 N70 2.148 . S
Co66 N76 2.128 . S
Co66 N86 2.194 . S
Co66 O91 2.351 . S
Co66 O92 2.155 . S
Co66 O93 2.096 . S
C67 N70 1.301 . S
C67 N71 1.328 . S
C67 H72 0.930 . S
C68 C69 1.333 . S
C68 N70 1.317 . S
C68 H73 0.930 . S
C69 C68 1.333 . S
C69 N71 1.350 . S
C69 H95 0.931 . S
N70 Co66 2.148 . S
N70 C67 1.301 . S
N70 C68 1.317 . S
N71 C67 1.328 . S
N71 C69 1.350 . S
H72 C67 0.930 . S
H73 C68 0.930 . S
C74 O75 1.224 . S
C74 O93 1.247 . S
O75 C74 1.224 . S
N76 Co66 2.128 . S
N76 C77 1.355 . S
N76 C79 1.311 . S
C77 N76 1.355 . S
C77 C78 1.363 . S
C77 H89 0.929 . S
C78 C77 1.363 . S
C78 N80 1.375 . S
C78 H96 0.931 . S
C79 N76 1.311 . S
C79 N80 1.347 . S
C79 H90 0.929 . S
N80 C78 1.375 . S
N80 C79 1.347 . S
C81 C84 1.365 . S
C81 N86 1.328 . S
C81 H87 0.929 . S
C82 C83 1.362 . S
C82 C85 1.378 . S
C82 H97 0.929 . S
C83 C82 1.362 . S
C83 C84 1.366 . S
C84 C81 1.365 . S
C84 C83 1.366 . S
C84 H98 0.930 . S
C85 C82 1.378 . S
C85 N86 1.315 . S
C85 H88 0.930 . S
N86 Co66 2.194 . S
N86 C81 1.328 . S
N86 C85 1.315 . S
H87 C81 0.929 . S
H88 C85 0.930 . S
H89 C77 0.929 . S
H90 C79 0.929 . S
O91 Co66 2.351 . S
O91 C94 1.244 . S
O92 Co66 2.155 . S
O92 C94 1.240 . S
O93 Co66 2.096 . S
O93 C74 1.247 . S
C94 O91 1.244 . S
C94 O92 1.240 . S
H95 C69 0.931 . S
H96 C78 0.931 . S
H97 C82 0.929 . S
H98 C84 0.930 . S
Co99 N103 2.148 . S
Co99 N109 2.128 . S
Co99 N119 2.194 . S
Co99 O124 2.351 . S
Co99 O125 2.155 . S
Co99 O126 2.096 . S
C100 N103 1.301 . S
C100 N104 1.328 . S
C100 H105 0.930 . S
C101 C102 1.333 . S
C101 N103 1.317 . S
C101 H106 0.930 . S
C102 C101 1.333 . S
C102 N104 1.350 . S
C102 H128 0.931 . S
N103 Co99 2.148 . S
N103 C100 1.301 . S
N103 C101 1.317 . S
N104 C100 1.328 . S
N104 C102 1.350 . S
H105 C100 0.930 . S
H106 C101 0.930 . S
C107 O108 1.224 . S
C107 O126 1.247 . S
O108 C107 1.224 . S
N109 Co99 2.128 . S
N109 C110 1.355 . S
N109 C112 1.311 . S
C110 N109 1.355 . S
C110 C111 1.363 . S
C110 H122 0.929 . S
C111 C110 1.363 . S
C111 N113 1.375 . S
C111 H129 0.931 . S
C112 N109 1.311 . S
C112 N113 1.347 . S
C112 H123 0.929 . S
N113 C111 1.375 . S
N113 C112 1.347 . S
C114 C117 1.365 . S
C114 N119 1.328 . S
C114 H120 0.929 . S
C115 C116 1.362 . S
C115 C118 1.378 . S
C115 H130 0.929 . S
C116 C115 1.362 . S
C116 C117 1.366 . S
C117 C114 1.365 . S
C117 C116 1.366 . S
C117 H131 0.930 . S
C118 C115 1.378 . S
C118 N119 1.315 . S
C118 H121 0.930 . S
N119 Co99 2.194 . S
N119 C114 1.328 . S
N119 C118 1.315 . S
H120 C114 0.929 . S
H121 C118 0.930 . S
H122 C110 0.929 . S
H123 C112 0.929 . S
O124 Co99 2.351 . S
O124 C127 1.244 . S
O125 Co99 2.155 . S
O125 C127 1.240 . S
O126 Co99 2.096 . S
O126 C107 1.247 . S
C127 O124 1.244 . S
C127 O125 1.240 . S
H128 C102 0.931 . S
H129 C111 0.931 . S
H130 C115 0.929 . S
H131 C117 0.930 . S
Co132 N136 2.148 . S
Co132 N142 2.128 . S
Co132 N152 2.194 . S
Co132 O157 2.351 . S
Co132 O158 2.155 . S
Co132 O159 2.096 . S
C133 N136 1.301 . S
C133 N137 1.328 . S
C133 H138 0.930 . S
C134 C135 1.333 . S
C134 N136 1.317 . S
C134 H139 0.930 . S
C135 C134 1.333 . S
C135 N137 1.350 . S
C135 H161 0.931 . S
N136 Co132 2.148 . S
N136 C133 1.301 . S
N136 C134 1.317 . S
N137 C133 1.328 . S
N137 C135 1.350 . S
H138 C133 0.930 . S
H139 C134 0.930 . S
C140 O141 1.224 . S
C140 O159 1.247 . S
O141 C140 1.224 . S
N142 Co132 2.128 . S
N142 C143 1.355 . S
N142 C145 1.311 . S
C143 N142 1.355 . S
C143 C144 1.363 . S
C143 H155 0.929 . S
C144 C143 1.363 . S
C144 N146 1.375 . S
C144 H162 0.931 . S
C145 N142 1.311 . S
C145 N146 1.347 . S
C145 H156 0.929 . S
N146 C144 1.375 . S
N146 C145 1.347 . S
C147 C150 1.365 . S
C147 N152 1.328 . S
C147 H153 0.929 . S
C148 C149 1.362 . S
C148 C151 1.378 . S
C148 H163 0.929 . S
C149 C148 1.362 . S
C149 C150 1.366 . S
C150 C147 1.365 . S
C150 C149 1.366 . S
C150 H164 0.930 . S
C151 C148 1.378 . S
C151 N152 1.315 . S
C151 H154 0.930 . S
N152 Co132 2.194 . S
N152 C147 1.328 . S
N152 C151 1.315 . S
H153 C147 0.929 . S
H154 C151 0.930 . S
H155 C143 0.929 . S
H156 C145 0.929 . S
O157 Co132 2.351 . S
O157 C160 1.244 . S
O158 Co132 2.155 . S
O158 C160 1.240 . S
O159 Co132 2.096 . S
O159 C140 1.247 . S
C160 O157 1.244 . S
C160 O158 1.240 . S
H161 C135 0.931 . S
H162 C144 0.931 . S
H163 C148 0.929 . S
H164 C150 0.930 . S
Co165 N169 2.148 . S
Co165 N175 2.128 . S
Co165 N185 2.194 . S
Co165 O190 2.351 . S
Co165 O191 2.155 . S
Co165 O192 2.096 . S
C166 N169 1.301 . S
C166 N170 1.328 . S
C166 H171 0.930 . S
C167 C168 1.333 . S
C167 N169 1.317 . S
C167 H172 0.930 . S
C168 C167 1.333 . S
C168 N170 1.350 . S
C168 H194 0.931 . S
N169 Co165 2.148 . S
N169 C166 1.301 . S
N169 C167 1.317 . S
N170 C166 1.328 . S
N170 C168 1.350 . S
H171 C166 0.930 . S
H172 C167 0.930 . S
C173 O174 1.224 . S
C173 O192 1.247 . S
O174 C173 1.224 . S
N175 Co165 2.128 . S
N175 C176 1.355 . S
N175 C178 1.311 . S
C176 N175 1.355 . S
C176 C177 1.363 . S
C176 H188 0.929 . S
C177 C176 1.363 . S
C177 N179 1.375 . S
C177 H195 0.931 . S
C178 N175 1.311 . S
C178 N179 1.347 . S
C178 H189 0.929 . S
N179 C177 1.375 . S
N179 C178 1.347 . S
C180 C183 1.365 . S
C180 N185 1.328 . S
C180 H186 0.929 . S
C181 C182 1.362 . S
C181 C184 1.378 . S
C181 H196 0.929 . S
C182 C181 1.362 . S
C182 C183 1.366 . S
C183 C180 1.365 . S
C183 C182 1.366 . S
C183 H197 0.930 . S
C184 C181 1.378 . S
C184 N185 1.315 . S
C184 H187 0.930 . S
N185 Co165 2.194 . S
N185 C180 1.328 . S
N185 C184 1.315 . S
H186 C180 0.929 . S
H187 C184 0.930 . S
H188 C176 0.929 . S
H189 C178 0.929 . S
O190 Co165 2.351 . S
O190 C193 1.244 . S
O191 Co165 2.155 . S
O191 C193 1.240 . S
O192 Co165 2.096 . S
O192 C173 1.247 . S
C193 O190 1.244 . S
C193 O191 1.240 . S
H194 C168 0.931 . S
H195 C177 0.931 . S
H196 C181 0.929 . S
H197 C183 0.930 . S
Co198 N202 2.148 . S
Co198 N208 2.128 . S
Co198 N218 2.194 . S
Co198 O223 2.351 . S
Co198 O224 2.155 . S
Co198 O225 2.096 . S
C199 N202 1.301 . S
C199 N203 1.328 . S
C199 H204 0.930 . S
C200 C201 1.333 . S
C200 N202 1.317 . S
C200 H205 0.930 . S
C201 C200 1.333 . S
C201 N203 1.350 . S
C201 H227 0.931 . S
N202 Co198 2.148 . S
N202 C199 1.301 . S
N202 C200 1.317 . S
N203 C199 1.328 . S
N203 C201 1.350 . S
H204 C199 0.930 . S
H205 C200 0.930 . S
C206 O207 1.224 . S
C206 O225 1.247 . S
O207 C206 1.224 . S
N208 Co198 2.128 . S
N208 C209 1.355 . S
N208 C211 1.311 . S
C209 N208 1.355 . S
C209 C210 1.363 . S
C209 H221 0.929 . S
C210 C209 1.363 . S
C210 N212 1.375 . S
C210 H228 0.931 . S
C211 N208 1.311 . S
C211 N212 1.347 . S
C211 H222 0.929 . S
N212 C210 1.375 . S
N212 C211 1.347 . S
C213 C216 1.365 . S
C213 N218 1.328 . S
C213 H219 0.929 . S
C214 C215 1.362 . S
C214 C217 1.378 . S
C214 H229 0.929 . S
C215 C214 1.362 . S
C215 C216 1.366 . S
C216 C213 1.365 . S
C216 C215 1.366 . S
C216 H230 0.930 . S
C217 C214 1.378 . S
C217 N218 1.315 . S
C217 H220 0.930 . S
N218 Co198 2.194 . S
N218 C213 1.328 . S
N218 C217 1.315 . S
H219 C213 0.929 . S
H220 C217 0.930 . S
H221 C209 0.929 . S
H222 C211 0.929 . S
O223 Co198 2.351 . S
O223 C226 1.244 . S
O224 Co198 2.155 . S
O224 C226 1.240 . S
O225 Co198 2.096 . S
O225 C206 1.247 . S
C226 O223 1.244 . S
C226 O224 1.240 . S
H227 C201 0.931 . S
H228 C210 0.931 . S
H229 C214 0.929 . S
H230 C216 0.930 . S
Co231 N235 2.148 . S
Co231 N241 2.128 . S
Co231 N251 2.194 . S
Co231 O256 2.351 . S
Co231 O257 2.155 . S
Co231 O258 2.096 . S
C232 N235 1.301 . S
C232 N236 1.328 . S
C232 H237 0.930 . S
C233 C234 1.333 . S
C233 N235 1.317 . S
C233 H238 0.930 . S
C234 C233 1.333 . S
C234 N236 1.350 . S
C234 H260 0.931 . S
N235 Co231 2.148 . S
N235 C232 1.301 . S
N235 C233 1.317 . S
N236 C232 1.328 . S
N236 C234 1.350 . S
H237 C232 0.930 . S
H238 C233 0.930 . S
C239 O240 1.224 . S
C239 O258 1.247 . S
O240 C239 1.224 . S
N241 Co231 2.128 . S
N241 C242 1.355 . S
N241 C244 1.311 . S
C242 N241 1.355 . S
C242 C243 1.363 . S
C242 H254 0.929 . S
C243 C242 1.363 . S
C243 N245 1.375 . S
C243 H261 0.931 . S
C244 N241 1.311 . S
C244 N245 1.347 . S
C244 H255 0.929 . S
N245 C243 1.375 . S
N245 C244 1.347 . S
C246 C249 1.365 . S
C246 N251 1.328 . S
C246 H252 0.929 . S
C247 C248 1.362 . S
C247 C250 1.378 . S
C247 H262 0.929 . S
C248 C247 1.362 . S
C248 C249 1.366 . S
C249 C246 1.365 . S
C249 C248 1.366 . S
C249 H263 0.930 . S
C250 C247 1.378 . S
C250 N251 1.315 . S
C250 H253 0.930 . S
N251 Co231 2.194 . S
N251 C246 1.328 . S
N251 C250 1.315 . S
H252 C246 0.929 . S
H253 C250 0.930 . S
H254 C242 0.929 . S
H255 C244 0.929 . S
O256 Co231 2.351 . S
O256 C259 1.244 . S
O257 Co231 2.155 . S
O257 C259 1.240 . S
O258 Co231 2.096 . S
O258 C239 1.247 . S
C259 O256 1.244 . S
C259 O257 1.240 . S
H260 C234 0.931 . S
H261 C243 0.931 . S
H262 C247 0.929 . S
H263 C249 0.930 . S
Co264 N268 2.148 . S
Co264 N274 2.128 . S
Co264 N284 2.194 . S
Co264 O289 2.351 . S
Co264 O290 2.155 . S
Co264 O291 2.096 . S
C265 N268 1.301 . S
C265 N269 1.328 . S
C265 H270 0.930 . S
C266 C267 1.333 . S
C266 N268 1.317 . S
C266 H271 0.930 . S
C267 C266 1.333 . S
C267 N269 1.350 . S
C267 H293 0.931 . S
N268 Co264 2.148 . S
N268 C265 1.301 . S
N268 C266 1.317 . S
N269 C265 1.328 . S
N269 C267 1.350 . S
H270 C265 0.930 . S
H271 C266 0.930 . S
C272 O273 1.224 . S
C272 O291 1.247 . S
O273 C272 1.224 . S
N274 Co264 2.128 . S
N274 C275 1.355 . S
N274 C277 1.311 . S
C275 N274 1.355 . S
C275 C276 1.363 . S
C275 H287 0.929 . S
C276 C275 1.363 . S
C276 N278 1.375 . S
C276 H294 0.931 . S
C277 N274 1.311 . S
C277 N278 1.347 . S
C277 H288 0.929 . S
N278 C276 1.375 . S
N278 C277 1.347 . S
C279 C282 1.365 . S
C279 N284 1.328 . S
C279 H285 0.929 . S
C280 C281 1.362 . S
C280 C283 1.378 . S
C280 H295 0.929 . S
C281 C280 1.362 . S
C281 C282 1.366 . S
C282 C279 1.365 . S
C282 C281 1.366 . S
C282 H296 0.930 . S
C283 C280 1.378 . S
C283 N284 1.315 . S
C283 H286 0.930 . S
N284 Co264 2.194 . S
N284 C279 1.328 . S
N284 C283 1.315 . S
H285 C279 0.929 . S
H286 C283 0.930 . S
H287 C275 0.929 . S
H288 C277 0.929 . S
O289 Co264 2.351 . S
O289 C292 1.244 . S
O290 Co264 2.155 . S
O290 C292 1.240 . S
O291 Co264 2.096 . S
O291 C272 1.247 . S
C292 O289 1.244 . S
C292 O290 1.240 . S
H293 C267 0.931 . S
H294 C276 0.931 . S
H295 C280 0.929 . S
H296 C282 0.930 . S
Co297 N301 2.148 . S
Co297 N307 2.128 . S
Co297 N317 2.194 . S
Co297 O322 2.351 . S
Co297 O323 2.155 . S
Co297 O324 2.096 . S
C298 N301 1.301 . S
C298 N302 1.328 . S
C298 H303 0.930 . S
C299 C300 1.333 . S
C299 N301 1.317 . S
C299 H304 0.930 . S
C300 C299 1.333 . S
C300 N302 1.350 . S
C300 H326 0.931 . S
N301 Co297 2.148 . S
N301 C298 1.301 . S
N301 C299 1.317 . S
N302 C298 1.328 . S
N302 C300 1.350 . S
H303 C298 0.930 . S
H304 C299 0.930 . S
C305 O306 1.224 . S
C305 O324 1.247 . S
O306 C305 1.224 . S
N307 Co297 2.128 . S
N307 C308 1.355 . S
N307 C310 1.311 . S
C308 N307 1.355 . S
C308 C309 1.363 . S
C308 H320 0.929 . S
C309 C308 1.363 . S
C309 N311 1.375 . S
C309 H327 0.931 . S
C310 N307 1.311 . S
C310 N311 1.347 . S
C310 H321 0.929 . S
N311 C309 1.375 . S
N311 C310 1.347 . S
C312 C315 1.365 . S
C312 N317 1.328 . S
C312 H318 0.929 . S
C313 C314 1.362 . S
C313 C316 1.378 . S
C313 H328 0.929 . S
C314 C313 1.362 . S
C314 C315 1.366 . S
C315 C312 1.365 . S
C315 C314 1.366 . S
C315 H329 0.930 . S
C316 C313 1.378 . S
C316 N317 1.315 . S
C316 H319 0.930 . S
N317 Co297 2.194 . S
N317 C312 1.328 . S
N317 C316 1.315 . S
H318 C312 0.929 . S
H319 C316 0.930 . S
H320 C308 0.929 . S
H321 C310 0.929 . S
O322 Co297 2.351 . S
O322 C325 1.244 . S
O323 Co297 2.155 . S
O323 C325 1.240 . S
O324 Co297 2.096 . S
O324 C305 1.247 . S
C325 O322 1.244 . S
C325 O323 1.240 . S
H326 C300 0.931 . S
H327 C309 0.931 . S
H328 C313 0.929 . S
H329 C315 0.930 . S
Co330 N334 2.148 . S
Co330 N340 2.128 . S
Co330 N350 2.194 . S
Co330 O355 2.351 . S
Co330 O356 2.155 . S
Co330 O357 2.096 . S
C331 N334 1.301 . S
C331 N335 1.328 . S
C331 H336 0.930 . S
C332 C333 1.333 . S
C332 N334 1.317 . S
C332 H337 0.930 . S
C333 C332 1.333 . S
C333 N335 1.350 . S
C333 H359 0.931 . S
N334 Co330 2.148 . S
N334 C331 1.301 . S
N334 C332 1.317 . S
N335 C331 1.328 . S
N335 C333 1.350 . S
H336 C331 0.930 . S
H337 C332 0.930 . S
C338 O339 1.224 . S
C338 O357 1.247 . S
O339 C338 1.224 . S
N340 Co330 2.128 . S
N340 C341 1.355 . S
N340 C343 1.311 . S
C341 N340 1.355 . S
C341 C342 1.363 . S
C341 H353 0.929 . S
C342 C341 1.363 . S
C342 N344 1.375 . S
C342 H360 0.931 . S
C343 N340 1.311 . S
C343 N344 1.347 . S
C343 H354 0.929 . S
N344 C342 1.375 . S
N344 C343 1.347 . S
C345 C348 1.365 . S
C345 N350 1.328 . S
C345 H351 0.929 . S
C346 C347 1.362 . S
C346 C349 1.378 . S
C346 H361 0.929 . S
C347 C346 1.362 . S
C347 C348 1.366 . S
C348 C345 1.365 . S
C348 C347 1.366 . S
C348 H362 0.930 . S
C349 C346 1.378 . S
C349 N350 1.315 . S
C349 H352 0.930 . S
N350 Co330 2.194 . S
N350 C345 1.328 . S
N350 C349 1.315 . S
H351 C345 0.929 . S
H352 C349 0.930 . S
H353 C341 0.929 . S
H354 C343 0.929 . S
O355 Co330 2.351 . S
O355 C358 1.244 . S
O356 Co330 2.155 . S
O356 C358 1.240 . S
O357 Co330 2.096 . S
O357 C338 1.247 . S
C358 O355 1.244 . S
C358 O356 1.240 . S
H359 C333 0.931 . S
H360 C342 0.931 . S
H361 C346 0.929 . S
H362 C348 0.930 . S
Co363 N367 2.148 . S
Co363 N373 2.128 . S
Co363 N383 2.194 . S
Co363 O388 2.351 . S
Co363 O389 2.155 . S
Co363 O390 2.096 . S
C364 N367 1.301 . S
C364 N368 1.328 . S
C364 H369 0.930 . S
C365 C366 1.333 . S
C365 N367 1.317 . S
C365 H370 0.930 . S
C366 C365 1.333 . S
C366 N368 1.350 . S
C366 H392 0.931 . S
N367 Co363 2.148 . S
N367 C364 1.301 . S
N367 C365 1.317 . S
N368 C364 1.328 . S
N368 C366 1.350 . S
H369 C364 0.930 . S
H370 C365 0.930 . S
C371 O372 1.224 . S
C371 O390 1.247 . S
O372 C371 1.224 . S
N373 Co363 2.128 . S
N373 C374 1.355 . S
N373 C376 1.311 . S
C374 N373 1.355 . S
C374 C375 1.363 . S
C374 H386 0.929 . S
C375 C374 1.363 . S
C375 N377 1.375 . S
C375 H393 0.931 . S
C376 N373 1.311 . S
C376 N377 1.347 . S
C376 H387 0.929 . S
N377 C375 1.375 . S
N377 C376 1.347 . S
C378 C381 1.365 . S
C378 N383 1.328 . S
C378 H384 0.929 . S
C379 C380 1.362 . S
C379 C382 1.378 . S
C379 H394 0.929 . S
C380 C379 1.362 . S
C380 C381 1.366 . S
C381 C378 1.365 . S
C381 C380 1.366 . S
C381 H395 0.930 . S
C382 C379 1.378 . S
C382 N383 1.315 . S
C382 H385 0.930 . S
N383 Co363 2.194 . S
N383 C378 1.328 . S
N383 C382 1.315 . S
H384 C378 0.929 . S
H385 C382 0.930 . S
H386 C374 0.929 . S
H387 C376 0.929 . S
O388 Co363 2.351 . S
O388 C391 1.244 . S
O389 Co363 2.155 . S
O389 C391 1.240 . S
O390 Co363 2.096 . S
O390 C371 1.247 . S
C391 O388 1.244 . S
C391 O389 1.240 . S
H392 C366 0.931 . S
H393 C375 0.931 . S
H394 C379 0.929 . S
H395 C381 0.930 . S
Co396 N400 2.148 . S
Co396 N406 2.128 . S
Co396 N416 2.194 . S
Co396 O421 2.351 . S
Co396 O422 2.155 . S
Co396 O423 2.096 . S
C397 N400 1.301 . S
C397 N401 1.328 . S
C397 H402 0.930 . S
C398 C399 1.333 . S
C398 N400 1.317 . S
C398 H403 0.930 . S
C399 C398 1.333 . S
C399 N401 1.350 . S
C399 H425 0.931 . S
N400 Co396 2.148 . S
N400 C397 1.301 . S
N400 C398 1.317 . S
N401 C397 1.328 . S
N401 C399 1.350 . S
H402 C397 0.930 . S
H403 C398 0.930 . S
C404 O405 1.224 . S
C404 O423 1.247 . S
O405 C404 1.224 . S
N406 Co396 2.128 . S
N406 C407 1.355 . S
N406 C409 1.311 . S
C407 N406 1.355 . S
C407 C408 1.363 . S
C407 H419 0.929 . S
C408 C407 1.363 . S
C408 N410 1.375 . S
C408 H426 0.931 . S
C409 N406 1.311 . S
C409 N410 1.347 . S
C409 H420 0.929 . S
N410 C408 1.375 . S
N410 C409 1.347 . S
C411 C414 1.365 . S
C411 N416 1.328 . S
C411 H417 0.929 . S
C412 C413 1.362 . S
C412 C415 1.378 . S
C412 H427 0.929 . S
C413 C412 1.362 . S
C413 C414 1.366 . S
C414 C411 1.365 . S
C414 C413 1.366 . S
C414 H428 0.930 . S
C415 C412 1.378 . S
C415 N416 1.315 . S
C415 H418 0.930 . S
N416 Co396 2.194 . S
N416 C411 1.328 . S
N416 C415 1.315 . S
H417 C411 0.929 . S
H418 C415 0.930 . S
H419 C407 0.929 . S
H420 C409 0.929 . S
O421 Co396 2.351 . S
O421 C424 1.244 . S
O422 Co396 2.155 . S
O422 C424 1.240 . S
O423 Co396 2.096 . S
O423 C404 1.247 . S
C424 O421 1.244 . S
C424 O422 1.240 . S
H425 C399 0.931 . S
H426 C408 0.931 . S
H427 C412 0.929 . S
H428 C414 0.930 . S
Co429 N433 2.148 . S
Co429 N439 2.128 . S
Co429 N449 2.194 . S
Co429 O454 2.351 . S
Co429 O455 2.155 . S
Co429 O456 2.096 . S
C430 N433 1.301 . S
C430 N434 1.328 . S
C430 H435 0.930 . S
C431 C432 1.333 . S
C431 N433 1.317 . S
C431 H436 0.930 . S
C432 C431 1.333 . S
C432 N434 1.350 . S
C432 H458 0.931 . S
N433 Co429 2.148 . S
N433 C430 1.301 . S
N433 C431 1.317 . S
N434 C430 1.328 . S
N434 C432 1.350 . S
H435 C430 0.930 . S
H436 C431 0.930 . S
C437 O438 1.224 . S
C437 O456 1.247 . S
O438 C437 1.224 . S
N439 Co429 2.128 . S
N439 C440 1.355 . S
N439 C442 1.311 . S
C440 N439 1.355 . S
C440 C441 1.363 . S
C440 H452 0.929 . S
C441 C440 1.363 . S
C441 N443 1.375 . S
C441 H459 0.931 . S
C442 N439 1.311 . S
C442 N443 1.347 . S
C442 H453 0.929 . S
N443 C441 1.375 . S
N443 C442 1.347 . S
C444 C447 1.365 . S
C444 N449 1.328 . S
C444 H450 0.929 . S
C445 C446 1.362 . S
C445 C448 1.378 . S
C445 H460 0.929 . S
C446 C445 1.362 . S
C446 C447 1.366 . S
C447 C444 1.365 . S
C447 C446 1.366 . S
C447 H461 0.930 . S
C448 C445 1.378 . S
C448 N449 1.315 . S
C448 H451 0.930 . S
N449 Co429 2.194 . S
N449 C444 1.328 . S
N449 C448 1.315 . S
H450 C444 0.929 . S
H451 C448 0.930 . S
H452 C440 0.929 . S
H453 C442 0.929 . S
O454 Co429 2.351 . S
O454 C457 1.244 . S
O455 Co429 2.155 . S
O455 C457 1.240 . S
O456 Co429 2.096 . S
O456 C437 1.247 . S
C457 O454 1.244 . S
C457 O455 1.240 . S
H458 C432 0.931 . S
H459 C441 0.931 . S
H460 C445 0.929 . S
H461 C447 0.930 . S
Co462 N466 2.148 . S
Co462 N472 2.128 . S
Co462 N482 2.194 . S
Co462 O487 2.351 . S
Co462 O488 2.155 . S
Co462 O489 2.096 . S
C463 N466 1.301 . S
C463 N467 1.328 . S
C463 H468 0.930 . S
C464 C465 1.333 . S
C464 N466 1.317 . S
C464 H469 0.930 . S
C465 C464 1.333 . S
C465 N467 1.350 . S
C465 H491 0.931 . S
N466 Co462 2.148 . S
N466 C463 1.301 . S
N466 C464 1.317 . S
N467 C463 1.328 . S
N467 C465 1.350 . S
H468 C463 0.930 . S
H469 C464 0.930 . S
C470 O471 1.224 . S
C470 O489 1.247 . S
O471 C470 1.224 . S
N472 Co462 2.128 . S
N472 C473 1.355 . S
N472 C475 1.311 . S
C473 N472 1.355 . S
C473 C474 1.363 . S
C473 H485 0.929 . S
C474 C473 1.363 . S
C474 N476 1.375 . S
C474 H492 0.931 . S
C475 N472 1.311 . S
C475 N476 1.347 . S
C475 H486 0.929 . S
N476 C474 1.375 . S
N476 C475 1.347 . S
C477 C480 1.365 . S
C477 N482 1.328 . S
C477 H483 0.929 . S
C478 C479 1.362 . S
C478 C481 1.378 . S
C478 H493 0.929 . S
C479 C478 1.362 . S
C479 C480 1.366 . S
C480 C477 1.365 . S
C480 C479 1.366 . S
C480 H494 0.930 . S
C481 C478 1.378 . S
C481 N482 1.315 . S
C481 H484 0.930 . S
N482 Co462 2.194 . S
N482 C477 1.328 . S
N482 C481 1.315 . S
H483 C477 0.929 . S
H484 C481 0.930 . S
H485 C473 0.929 . S
H486 C475 0.929 . S
O487 Co462 2.351 . S
O487 C490 1.244 . S
O488 Co462 2.155 . S
O488 C490 1.240 . S
O489 Co462 2.096 . S
O489 C470 1.247 . S
C490 O487 1.244 . S
C490 O488 1.240 . S
H491 C465 0.931 . S
H492 C474 0.931 . S
H493 C478 0.929 . S
H494 C480 0.930 . S
Co495 N499 2.148 . S
Co495 N505 2.128 . S
Co495 N515 2.194 . S
Co495 O520 2.351 . S
Co495 O521 2.155 . S
Co495 O522 2.096 . S
C496 N499 1.301 . S
C496 N500 1.328 . S
C496 H501 0.930 . S
C497 C498 1.333 . S
C497 N499 1.317 . S
C497 H502 0.930 . S
C498 C497 1.333 . S
C498 N500 1.350 . S
C498 H524 0.931 . S
N499 Co495 2.148 . S
N499 C496 1.301 . S
N499 C497 1.317 . S
N500 C496 1.328 . S
N500 C498 1.350 . S
H501 C496 0.930 . S
H502 C497 0.930 . S
C503 O504 1.224 . S
C503 O522 1.247 . S
O504 C503 1.224 . S
N505 Co495 2.128 . S
N505 C506 1.355 . S
N505 C508 1.311 . S
C506 N505 1.355 . S
C506 C507 1.363 . S
C506 H518 0.929 . S
C507 C506 1.363 . S
C507 N509 1.375 . S
C507 H525 0.931 . S
C508 N505 1.311 . S
C508 N509 1.347 . S
C508 H519 0.929 . S
N509 C507 1.375 . S
N509 C508 1.347 . S
C510 C513 1.365 . S
C510 N515 1.328 . S
C510 H516 0.929 . S
C511 C512 1.362 . S
C511 C514 1.378 . S
C511 H526 0.929 . S
C512 C511 1.362 . S
C512 C513 1.366 . S
C513 C510 1.365 . S
C513 C512 1.366 . S
C513 H527 0.930 . S
C514 C511 1.378 . S
C514 N515 1.315 . S
C514 H517 0.930 . S
N515 Co495 2.194 . S
N515 C510 1.328 . S
N515 C514 1.315 . S
H516 C510 0.929 . S
H517 C514 0.930 . S
H518 C506 0.929 . S
H519 C508 0.929 . S
O520 Co495 2.351 . S
O520 C523 1.244 . S
O521 Co495 2.155 . S
O521 C523 1.240 . S
O522 Co495 2.096 . S
O522 C503 1.247 . S
C523 O520 1.244 . S
C523 O521 1.240 . S
H524 C498 0.931 . S
H525 C507 0.931 . S
H526 C511 0.929 . S
H527 C513 0.930 . S
Co528 N532 2.148 . S
Co528 N538 2.128 . S
Co528 N548 2.194 . S
Co528 O553 2.351 . S
Co528 O554 2.155 . S
Co528 O555 2.096 . S
C529 N532 1.301 . S
C529 N533 1.328 . S
C529 H534 0.930 . S
C530 C531 1.333 . S
C530 N532 1.317 . S
C530 H535 0.930 . S
C531 C530 1.333 . S
C531 N533 1.350 . S
C531 H557 0.931 . S
N532 Co528 2.148 . S
N532 C529 1.301 . S
N532 C530 1.317 . S
N533 C529 1.328 . S
N533 C531 1.350 . S
H534 C529 0.930 . S
H535 C530 0.930 . S
C536 O537 1.224 . S
C536 O555 1.247 . S
O537 C536 1.224 . S
N538 Co528 2.128 . S
N538 C539 1.355 . S
N538 C541 1.311 . S
C539 N538 1.355 . S
C539 C540 1.363 . S
C539 H551 0.929 . S
C540 C539 1.363 . S
C540 N542 1.375 . S
C540 H558 0.931 . S
C541 N538 1.311 . S
C541 N542 1.347 . S
C541 H552 0.929 . S
N542 C540 1.375 . S
N542 C541 1.347 . S
C543 C546 1.365 . S
C543 N548 1.328 . S
C543 H549 0.929 . S
C544 C545 1.362 . S
C544 C547 1.378 . S
C544 H559 0.929 . S
C545 C544 1.362 . S
C545 C546 1.366 . S
C546 C543 1.365 . S
C546 C545 1.366 . S
C546 H560 0.930 . S
C547 C544 1.378 . S
C547 N548 1.315 . S
C547 H550 0.930 . S
N548 Co528 2.194 . S
N548 C543 1.328 . S
N548 C547 1.315 . S
H549 C543 0.929 . S
H550 C547 0.930 . S
H551 C539 0.929 . S
H552 C541 0.929 . S
O553 Co528 2.351 . S
O553 C556 1.244 . S
O554 Co528 2.155 . S
O554 C556 1.240 . S
O555 Co528 2.096 . S
O555 C536 1.247 . S
C556 O553 1.244 . S
C556 O554 1.240 . S
H557 C531 0.931 . S
H558 C540 0.931 . S
H559 C544 0.929 . S
H560 C546 0.930 . S
Co561 N565 2.148 . S
Co561 N571 2.128 . S
Co561 N581 2.194 . S
Co561 O586 2.351 . S
Co561 O587 2.155 . S
Co561 O588 2.096 . S
C562 N565 1.301 . S
C562 N566 1.328 . S
C562 H567 0.930 . S
C563 C564 1.333 . S
C563 N565 1.317 . S
C563 H568 0.930 . S
C564 C563 1.333 . S
C564 N566 1.350 . S
C564 H590 0.931 . S
N565 Co561 2.148 . S
N565 C562 1.301 . S
N565 C563 1.317 . S
N566 C562 1.328 . S
N566 C564 1.350 . S
H567 C562 0.930 . S
H568 C563 0.930 . S
C569 O570 1.224 . S
C569 O588 1.247 . S
O570 C569 1.224 . S
N571 Co561 2.128 . S
N571 C572 1.355 . S
N571 C574 1.311 . S
C572 N571 1.355 . S
C572 C573 1.363 . S
C572 H584 0.929 . S
C573 C572 1.363 . S
C573 N575 1.375 . S
C573 H591 0.931 . S
C574 N571 1.311 . S
C574 N575 1.347 . S
C574 H585 0.929 . S
N575 C573 1.375 . S
N575 C574 1.347 . S
C576 C579 1.365 . S
C576 N581 1.328 . S
C576 H582 0.929 . S
C577 C578 1.362 . S
C577 C580 1.378 . S
C577 H592 0.929 . S
C578 C577 1.362 . S
C578 C579 1.366 . S
C579 C576 1.365 . S
C579 C578 1.366 . S
C579 H593 0.930 . S
C580 C577 1.378 . S
C580 N581 1.315 . S
C580 H583 0.930 . S
N581 Co561 2.194 . S
N581 C576 1.328 . S
N581 C580 1.315 . S
H582 C576 0.929 . S
H583 C580 0.930 . S
H584 C572 0.929 . S
H585 C574 0.929 . S
O586 Co561 2.351 . S
O586 C589 1.244 . S
O587 Co561 2.155 . S
O587 C589 1.240 . S
O588 Co561 2.096 . S
O588 C569 1.247 . S
C589 O586 1.244 . S
C589 O587 1.240 . S
H590 C564 0.931 . S
H591 C573 0.931 . S
H592 C577 0.929 . S
H593 C579 0.930 . S
H594 C602 0.929 . S
H595 C604 0.930 . S
H596 C606 0.930 . S
H597 C609 0.929 . S
H598 C612 0.930 . S
H599 C614 0.960 . S
H600 C614 0.960 . S
H601 C614 0.960 . S
C602 H594 0.929 . S
C602 C603 1.377 . S
C602 C604 1.384 . S
C603 C602 1.377 . S
C603 C609 1.390 . S
C604 H595 0.930 . S
C604 C602 1.384 . S
C604 C605 1.372 . S
C605 C604 1.372 . S
C605 C606 1.400 . S
C605 C610 1.490 . S
C606 H596 0.930 . S
C606 C605 1.400 . S
C606 C609 1.386 . S
H607 C623 0.930 . S
H608 C624 0.931 . S
C609 H597 0.929 . S
C609 C603 1.390 . S
C609 C606 1.386 . S
C610 C605 1.490 . S
C610 C612 1.395 . S
C610 C613 1.403 . S
H611 C617 0.930 . S
C612 H598 0.930 . S
C612 C610 1.395 . S
C612 C615 1.403 . S
C613 C610 1.403 . S
C613 C614 1.524 . S
C613 C617 1.400 . S
C614 H599 0.960 . S
C614 H600 0.960 . S
C614 H601 0.960 . S
C614 C613 1.524 . S
C615 C612 1.403 . S
C615 C616 1.392 . S
C615 C619 1.495 . S
C616 C615 1.392 . S
C616 C617 1.385 . S
C616 C618 1.478 . S
C617 H611 0.930 . S
C617 C613 1.400 . S
C617 C616 1.385 . S
C618 C616 1.478 . S
C618 C620 1.381 . S
C618 C624 1.383 . S
C619 C615 1.495 . S
C619 H625 0.959 . S
C619 H626 0.961 . S
C619 H627 0.960 . S
C620 C618 1.381 . S
C620 C621 1.394 . S
C620 H628 0.930 . S
C621 C620 1.394 . S
C621 C622 1.383 . S
C621 H629 0.929 . S
C622 C621 1.383 . S
C622 C623 1.377 . S
C623 H607 0.930 . S
C623 C622 1.377 . S
C623 C624 1.379 . S
C624 H608 0.931 . S
C624 C618 1.383 . S
C624 C623 1.379 . S
H625 C619 0.959 . S
H626 C619 0.961 . S
H627 C619 0.960 . S
H628 C620 0.930 . S
H629 C621 0.929 . S
H630 C638 0.929 . S
H631 C640 0.930 1_545 S
H632 C642 0.930 1_545 S
H633 C645 0.929 . S
H634 C648 0.930 . S
H635 C650 0.984 . S
H636 C650 0.960 . S
H637 C650 0.960 . S
C638 H630 0.929 . S
C638 C639 1.377 . S
C638 C640 1.384 . S
C639 C638 1.377 . S
C639 C645 1.390 . S
C640 H631 0.930 1_565 S
C640 C638 1.384 . S
C640 C641 1.372 1_565 S
C641 C640 1.372 1_545 S
C641 C642 1.400 1_545 S
C641 C646 1.490 . S
C642 H632 0.930 1_565 S
C642 C641 1.400 1_565 S
C642 C645 1.386 . S
H643 C659 0.930 . S
H644 C660 0.931 . S
C645 H633 0.929 . S
C645 C639 1.390 . S
C645 C642 1.386 . S
C646 C641 1.490 . S
C646 C648 1.395 . S
C646 C649 1.403 . S
H647 C653 0.930 . S
C648 H634 0.930 . S
C648 C646 1.395 . S
C648 C651 1.403 . S
C649 C646 1.403 . S
C649 C650 1.524 1_545 S
C649 C653 1.400 . S
C650 H635 0.984 . S
C650 H636 0.960 . S
C650 H637 0.960 . S
C650 C649 1.524 1_565 S
C651 C648 1.403 . S
C651 C652 1.392 . S
C651 C655 1.495 . S
C652 C651 1.392 . S
C652 C653 1.385 . S
C652 C654 1.478 . S
C653 H647 0.930 . S
C653 C649 1.400 . S
C653 C652 1.385 . S
C654 C652 1.478 . S
C654 C656 1.381 . S
C654 C660 1.383 . S
C655 C651 1.495 . S
C655 H661 0.959 . S
C655 H662 0.961 . S
C655 H663 0.960 . S
C656 C654 1.381 . S
C656 C657 1.394 . S
C656 H664 0.930 . S
C657 C656 1.394 . S
C657 C658 1.383 . S
C657 H665 0.929 . S
C658 C657 1.383 . S
C658 C659 1.377 . S
C659 H643 0.930 . S
C659 C658 1.377 . S
C659 C660 1.379 . S
C660 H644 0.931 . S
C660 C654 1.383 . S
C660 C659 1.379 . S
H661 C655 0.959 . S
H662 C655 0.961 . S
H663 C655 0.960 . S
H664 C656 0.930 . S
H665 C657 0.929 . S
H666 C674 0.929 . S
H667 C676 0.930 . S
H668 C678 0.930 . S
H669 C681 0.929 . S
H670 C684 0.930 . S
H671 C686 0.960 . S
H672 C686 0.960 . S
H673 C686 0.960 . S
C674 H666 0.929 . S
C674 C675 1.377 . S
C674 C676 1.384 . S
C675 C674 1.377 . S
C675 C681 1.390 . S
C676 H667 0.930 . S
C676 C674 1.384 . S
C676 C677 1.372 1_455 S
C677 C676 1.372 1_655 S
C677 C678 1.400 . S
C677 C682 1.490 . S
C678 H668 0.930 . S
C678 C677 1.400 . S
C678 C681 1.386 1_655 S
H679 C695 0.930 . S
H680 C696 0.931 . S
C681 H669 0.929 . S
C681 C675 1.390 . S
C681 C678 1.386 1_455 S
C682 C677 1.490 . S
C682 C684 1.395 . S
C682 C685 1.403 . S
H683 C689 0.930 . S
C684 H670 0.930 . S
C684 C682 1.395 . S
C684 C687 1.403 . S
C685 C682 1.403 . S
C685 C686 1.524 . S
C685 C689 1.400 . S
C686 H671 0.960 . S
C686 H672 0.960 . S
C686 H673 0.960 . S
C686 C685 1.524 . S
C687 C684 1.403 . S
C687 C688 1.392 . S
C687 C691 1.495 . S
C688 C687 1.392 . S
C688 C689 1.385 . S
C688 C690 1.478 . S
C689 H683 0.930 . S
C689 C685 1.400 . S
C689 C688 1.385 . S
C690 C688 1.478 . S
C690 C692 1.381 . S
C690 C696 1.383 . S
C691 C687 1.495 . S
C691 H697 0.959 . S
C691 H698 0.961 . S
C691 H699 0.960 . S
C692 C690 1.381 . S
C692 C693 1.394 . S
C692 H700 0.930 . S
C693 C692 1.394 . S
C693 C694 1.383 . S
C693 H701 0.929 . S
C694 C693 1.383 . S
C694 C695 1.377 . S
C695 H679 0.930 . S
C695 C694 1.377 . S
C695 C696 1.379 . S
C696 H680 0.931 . S
C696 C690 1.383 . S
C696 C695 1.379 . S
H697 C691 0.959 . S
H698 C691 0.961 . S
H699 C691 0.960 . S
H700 C692 0.930 . S
H701 C693 0.929 . S
H702 C710 0.929 . S
H703 C712 0.930 . S
H704 C714 0.930 . S
H705 C717 0.929 . S
H706 C720 0.930 . S
H707 C722 0.960 . S
H708 C722 0.960 . S
H709 C722 0.960 . S
C710 H702 0.929 . S
C710 C711 1.377 . S
C710 C712 1.384 . S
C711 C710 1.377 . S
C711 C717 1.390 . S
C712 H703 0.930 . S
C712 C710 1.384 . S
C712 C713 1.372 . S
C713 C712 1.372 . S
C713 C714 1.400 . S
C713 C718 1.490 . S
C714 H704 0.930 . S
C714 C713 1.400 . S
C714 C717 1.386 . S
H715 C731 0.930 . S
H716 C732 0.931 . S
C717 H705 0.929 . S
C717 C711 1.390 . S
C717 C714 1.386 . S
C718 C713 1.490 . S
C718 C720 1.395 . S
C718 C721 1.403 . S
H719 C725 0.930 . S
C720 H706 0.930 . S
C720 C718 1.395 . S
C720 C723 1.403 . S
C721 C718 1.403 . S
C721 C722 1.524 . S
C721 C725 1.400 . S
C722 H707 0.960 . S
C722 H708 0.960 . S
C722 H709 0.960 . S
C722 C721 1.524 . S
C723 C720 1.403 . S
C723 C724 1.392 . S
C723 C727 1.495 . S
C724 C723 1.392 . S
C724 C725 1.385 . S
C724 C726 1.478 . S
C725 H719 0.930 . S
C725 C721 1.400 . S
C725 C724 1.385 . S
C726 C724 1.478 . S
C726 C728 1.381 . S
C726 C732 1.383 . S
C727 C723 1.495 . S
C727 H733 0.959 . S
C727 H734 0.961 . S
C727 H735 0.960 . S
C728 C726 1.381 . S
C728 C729 1.394 . S
C728 H736 0.930 . S
C729 C728 1.394 . S
C729 C730 1.383 . S
C729 H737 0.929 . S
C730 C729 1.383 . S
C730 C731 1.377 . S
C731 H715 0.930 . S
C731 C730 1.377 . S
C731 C732 1.379 . S
C732 H716 0.931 . S
C732 C726 1.383 . S
C732 C731 1.379 . S
H733 C727 0.959 . S
H734 C727 0.961 . S
H735 C727 0.960 . S
H736 C728 0.930 . S
H737 C729 0.929 . S
H738 C746 0.929 . S
H739 C748 0.930 . S
H740 C750 0.930 . S
H741 C753 0.929 . S
H742 C756 0.930 . S
H743 C758 0.960 . S
H744 C758 0.960 . S
H745 C758 0.960 1_545 S
C746 H738 0.929 . S
C746 C747 1.377 . S
C746 C748 1.384 1_545 S
C747 C746 1.377 . S
C747 C753 1.390 . S
C748 H739 0.930 . S
C748 C746 1.384 1_565 S
C748 C749 1.372 . S
C749 C748 1.372 . S
C749 C750 1.400 1_565 S
C749 C754 1.490 . S
C750 H740 0.930 . S
C750 C749 1.400 1_545 S
C750 C753 1.386 . S
H751 C767 0.930 . S
H752 C768 0.931 . S
C753 H741 0.929 . S
C753 C747 1.390 . S
C753 C750 1.386 . S
C754 C749 1.490 . S
C754 C756 1.395 . S
C754 C757 1.403 . S
H755 C761 0.930 . S
C756 H742 0.930 . S
C756 C754 1.395 . S
C756 C759 1.403 . S
C757 C754 1.403 . S
C757 C758 1.524 . S
C757 C761 1.400 . S
C758 H743 0.960 . S
C758 H744 0.960 . S
C758 H745 0.960 1_565 S
C758 C757 1.524 . S
C759 C756 1.403 . S
C759 C760 1.392 . S
C759 C763 1.495 . S
C760 C759 1.392 . S
C760 C761 1.385 . S
C760 C762 1.478 . S
C761 H755 0.930 . S
C761 C757 1.400 . S
C761 C760 1.385 . S
C762 C760 1.478 . S
C762 C764 1.381 . S
C762 C768 1.383 . S
C763 C759 1.495 . S
C763 H769 0.959 . S
C763 H770 0.961 . S
C763 H771 0.960 . S
C764 C762 1.381 . S
C764 C765 1.394 . S
C764 H772 0.930 . S
C765 C764 1.394 . S
C765 C766 1.383 . S
C765 H773 0.929 . S
C766 C765 1.383 . S
C766 C767 1.377 . S
C767 H751 0.930 . S
C767 C766 1.377 . S
C767 C768 1.379 . S
C768 H752 0.931 . S
C768 C762 1.383 . S
C768 C767 1.379 . S
H769 C763 0.959 . S
H770 C763 0.961 . S
H771 C763 0.960 . S
H772 C764 0.930 . S
H773 C765 0.929 . S
H774 C782 0.929 . S
H775 C784 0.930 . S
H776 C786 0.930 . S
H777 C789 0.911 1_455 S
H778 C792 0.930 . S
H779 C794 0.960 . S
H780 C794 0.960 . S
H781 C794 0.960 . S
C782 H774 0.929 . S
C782 C783 1.377 . S
C782 C784 1.384 . S
C783 C782 1.377 . S
C783 C789 1.390 . S
C784 H775 0.930 . S
C784 C782 1.384 . S
C784 C785 1.372 1_655 S
C785 C784 1.372 1_455 S
C785 C786 1.400 . S
C785 C790 1.490 . S
C786 H776 0.930 . S
C786 C785 1.400 . S
C786 C789 1.386 1_455 S
H787 C803 0.930 . S
H788 C804 0.931 . S
C789 H777 0.911 1_655 S
C789 C783 1.390 . S
C789 C786 1.386 1_655 S
C790 C785 1.490 . S
C790 C792 1.395 . S
C790 C793 1.403 . S
H791 C797 0.930 . S
C792 H778 0.930 . S
C792 C790 1.395 . S
C792 C795 1.403 . S
C793 C790 1.403 . S
C793 C794 1.524 . S
C793 C797 1.400 . S
C794 H779 0.960 . S
C794 H780 0.960 . S
C794 H781 0.960 . S
C794 C793 1.524 . S
C795 C792 1.403 . S
C795 C796 1.392 . S
C795 C799 1.495 . S
C796 C795 1.392 . S
C796 C797 1.385 . S
C796 C798 1.478 . S
C797 H791 0.930 . S
C797 C793 1.400 . S
C797 C796 1.385 . S
C798 C796 1.478 . S
C798 C800 1.381 . S
C798 C804 1.383 . S
C799 C795 1.495 . S
C799 H805 0.959 . S
C799 H806 0.961 . S
C799 H807 0.960 . S
C800 C798 1.381 . S
C800 C801 1.394 . S
C800 H808 0.930 . S
C801 C800 1.394 . S
C801 C802 1.383 . S
C801 H809 0.929 . S
C802 C801 1.383 . S
C802 C803 1.377 . S
C803 H787 0.930 . S
C803 C802 1.377 . S
C803 C804 1.379 . S
C804 H788 0.931 . S
C804 C798 1.383 . S
C804 C803 1.379 . S
H805 C799 0.959 . S
H806 C799 0.961 . S
H807 C799 0.960 . S
H808 C800 0.930 . S
H809 C801 0.929 . S
H810 C818 0.929 . S
H811 C820 0.930 . S
H812 C822 0.930 . S
H813 C825 0.929 . S
H814 C828 0.930 . S
H815 C830 0.960 . S
H816 C830 0.960 . S
H817 C830 0.960 . S
C818 H810 0.929 . S
C818 C819 1.377 . S
C818 C820 1.384 . S
C819 C818 1.377 . S
C819 C825 1.390 . S
C820 H811 0.930 . S
C820 C818 1.384 . S
C820 C821 1.372 . S
C821 C820 1.372 . S
C821 C822 1.400 . S
C821 C826 1.490 . S
C822 H812 0.930 . S
C822 C821 1.400 . S
C822 C825 1.386 . S
H823 C839 0.930 . S
H824 C840 0.959 . S
C825 H813 0.929 . S
C825 C819 1.390 . S
C825 C822 1.386 . S
C826 C821 1.490 . S
C826 C828 1.395 . S
C826 C829 1.403 . S
H827 C833 0.930 . S
C828 H814 0.930 . S
C828 C826 1.395 . S
C828 C831 1.403 . S
C829 C826 1.403 . S
C829 C830 1.524 . S
C829 C833 1.400 . S
C830 H815 0.960 . S
C830 H816 0.960 . S
C830 H817 0.960 . S
C830 C829 1.524 . S
C831 C828 1.403 . S
C831 C832 1.392 . S
C831 C835 1.495 . S
C832 C831 1.392 . S
C832 C833 1.385 . S
C832 C834 1.478 . S
C833 H827 0.930 . S
C833 C829 1.400 . S
C833 C832 1.385 . S
C834 C832 1.478 . S
C834 C836 1.381 . S
C834 C840 1.383 1_655 S
C835 C831 1.495 . S
C835 H841 0.959 . S
C835 H842 0.961 . S
C835 H843 0.960 . S
C836 C834 1.381 . S
C836 C837 1.394 1_655 S
C836 H844 0.930 . S
C837 C836 1.394 1_455 S
C837 C838 1.383 . S
C837 H845 0.929 . S
C838 C837 1.383 . S
C838 C839 1.377 . S
C839 H823 0.930 . S
C839 C838 1.377 . S
C839 C840 1.379 . S
C840 H824 0.959 . S
C840 C834 1.383 1_455 S
C840 C839 1.379 . S
H841 C835 0.959 . S
H842 C835 0.961 . S
H843 C835 0.960 . S
H844 C836 0.930 . S
H845 C837 0.929 . S
H846 C854 0.929 . S
H847 C856 0.930 . S
H848 C858 0.930 . S
H849 C861 0.929 . S
H850 C864 0.930 . S
H851 C866 0.960 . S
H852 C866 0.960 . S
H853 C866 0.960 . S
C854 H846 0.929 . S
C854 C855 1.377 . S
C854 C856 1.384 . S
C855 C854 1.377 . S
C855 C861 1.390 . S
C856 H847 0.930 . S
C856 C854 1.384 . S
C856 C857 1.372 . S
C857 C856 1.372 . S
C857 C858 1.400 . S
C857 C862 1.490 . S
C858 H848 0.930 . S
C858 C857 1.400 . S
C858 C861 1.386 . S
H859 C875 0.930 . S
H860 C876 0.931 . S
C861 H849 0.929 . S
C861 C855 1.390 . S
C861 C858 1.386 . S
C862 C857 1.490 . S
C862 C864 1.395 . S
C862 C865 1.403 . S
H863 C869 0.930 . S
C864 H850 0.930 . S
C864 C862 1.395 . S
C864 C867 1.403 . S
C865 C862 1.403 . S
C865 C866 1.524 . S
C865 C869 1.400 . S
C866 H851 0.960 . S
C866 H852 0.960 . S
C866 H853 0.960 . S
C866 C865 1.524 . S
C867 C864 1.403 . S
C867 C868 1.392 . S
C867 C871 1.495 . S
C868 C867 1.392 . S
C868 C869 1.385 . S
C868 C870 1.478 . S
C869 H863 0.930 . S
C869 C865 1.400 . S
C869 C868 1.385 . S
C870 C868 1.478 . S
C870 C872 1.381 . S
C870 C876 1.383 . S
C871 C867 1.495 . S
C871 H877 0.959 . S
C871 H878 0.961 . S
C871 H879 0.960 . S
C872 C870 1.381 . S
C872 C873 1.394 . S
C872 H880 0.930 . S
C873 C872 1.394 . S
C873 C874 1.383 . S
C873 H881 0.929 . S
C874 C873 1.383 . S
C874 C875 1.377 . S
C875 H859 0.930 . S
C875 C874 1.377 . S
C875 C876 1.379 . S
C876 H860 0.931 . S
C876 C870 1.383 . S
C876 C875 1.379 . S
H877 C871 0.959 . S
H878 C871 0.961 . S
H879 C871 0.960 . S
H880 C872 0.930 . S
H881 C873 0.929 . S
H882 C890 0.929 . S
H883 C892 0.968 1_545 S
H884 C894 0.930 . S
H885 C897 0.929 . S
H886 C900 0.930 . S
H887 C902 0.960 . S
H888 C902 0.960 . S
H889 C902 0.960 . S
C890 H882 0.929 . S
C890 C891 1.377 . S
C890 C892 1.415 . S
C891 C890 1.377 . S
C891 C897 1.390 . S
C892 H883 0.968 1_565 S
C892 C890 1.415 . S
C892 C893 1.317 1_565 S
C893 C892 1.317 1_545 S
C893 C894 1.400 . S
C893 C898 1.490 . S
C894 H884 0.930 . S
C894 C893 1.400 . S
C894 C897 1.386 1_545 S
H895 C911 0.930 . S
H896 C912 0.931 . S
C897 H885 0.929 . S
C897 C891 1.390 . S
C897 C894 1.386 1_565 S
C898 C893 1.490 . S
C898 C900 1.395 . S
C898 C901 1.403 . S
H899 C905 0.930 . S
C900 H886 0.930 . S
C900 C898 1.395 . S
C900 C903 1.403 . S
C901 C898 1.403 . S
C901 C902 1.524 . S
C901 C905 1.400 . S
C902 H887 0.960 . S
C902 H888 0.960 . S
C902 H889 0.960 . S
C902 C901 1.524 . S
C903 C900 1.403 . S
C903 C904 1.392 . S
C903 C907 1.495 . S
C904 C903 1.392 . S
C904 C905 1.385 . S
C904 C906 1.478 . S
C905 H899 0.930 . S
C905 C901 1.400 . S
C905 C904 1.385 . S
C906 C904 1.478 . S
C906 C908 1.381 . S
C906 C912 1.383 . S
C907 C903 1.495 . S
C907 H913 0.959 . S
C907 H914 0.961 . S
C907 H915 0.960 . S
C908 C906 1.381 . S
C908 C909 1.394 . S
C908 H916 0.930 . S
C909 C908 1.394 . S
C909 C910 1.383 . S
C909 H917 0.929 . S
C910 C909 1.383 . S
C910 C911 1.377 . S
C911 H895 0.930 . S
C911 C910 1.377 . S
C911 C912 1.379 . S
C912 H896 0.931 . S
C912 C906 1.383 . S
C912 C911 1.379 . S
H913 C907 0.959 . S
H914 C907 0.961 . S
H915 C907 0.960 . S
H916 C908 0.930 . S
H917 C909 0.929 . S
H918 C926 0.929 . S
H919 C928 0.930 . S
H920 C930 0.930 . S
H921 C933 0.929 . S
H922 C936 0.930 . S
H923 C938 0.960 . S
H924 C938 0.960 . S
H925 C938 0.960 . S
C926 H918 0.929 . S
C926 C927 1.377 . S
C926 C928 1.384 . S
C927 C926 1.377 . S
C927 C933 1.390 . S
C928 H919 0.930 . S
C928 C926 1.384 . S
C928 C929 1.372 . S
C929 C928 1.372 . S
C929 C930 1.400 . S
C929 C934 1.490 . S
C930 H920 0.930 . S
C930 C929 1.400 . S
C930 C933 1.386 . S
H931 C947 0.930 . S
H932 C948 0.931 1_556 S
C933 H921 0.929 . S
C933 C927 1.390 . S
C933 C930 1.386 . S
C934 C929 1.490 . S
C934 C936 1.395 . S
C934 C937 1.403 . S
H935 C941 0.930 . S
C936 H922 0.930 . S
C936 C934 1.395 . S
C936 C939 1.403 . S
C937 C934 1.403 . S
C937 C938 1.524 . S
C937 C941 1.400 . S
C938 H923 0.960 . S
C938 H924 0.960 . S
C938 H925 0.960 . S
C938 C937 1.524 . S
C939 C936 1.403 . S
C939 C940 1.392 . S
C939 C943 1.495 . S
C940 C939 1.392 . S
C940 C941 1.385 . S
C940 C942 1.478 . S
C941 H935 0.930 . S
C941 C937 1.400 . S
C941 C940 1.385 . S
C942 C940 1.478 . S
C942 C944 1.381 . S
C942 C948 1.383 . S
C943 C939 1.495 . S
C943 H949 0.959 . S
C943 H950 0.961 . S
C943 H951 0.960 . S
C944 C942 1.381 . S
C944 C945 1.394 . S
C944 H952 0.930 . S
C945 C944 1.394 . S
C945 C946 1.383 1_554 S
C945 H953 0.929 . S
C946 C945 1.383 1_556 S
C946 C947 1.377 . S
C947 H931 0.930 . S
C947 C946 1.377 . S
C947 C948 1.379 1_556 S
C948 H932 0.931 1_554 S
C948 C942 1.383 . S
C948 C947 1.379 1_554 S
H949 C943 0.959 . S
H950 C943 0.961 . S
H951 C943 0.960 . S
H952 C944 0.930 . S
H953 C945 0.929 . S
H954 C962 0.929 . S
H955 C964 0.930 . S
H956 C966 0.930 . S
H957 C969 0.929 . S
H958 C972 0.930 . S
H959 C974 0.960 . S
H960 C974 0.960 . S
H961 C974 0.960 . S
C962 H954 0.929 . S
C962 C963 1.377 . S
C962 C964 1.384 . S
C963 C962 1.377 . S
C963 C969 1.390 . S
C964 H955 0.930 . S
C964 C962 1.384 . S
C964 C965 1.372 . S
C965 C964 1.372 . S
C965 C966 1.400 . S
C965 C970 1.490 . S
C966 H956 0.930 . S
C966 C965 1.400 . S
C966 C969 1.386 . S
H967 C983 0.930 . S
H968 C984 0.931 . S
C969 H957 0.929 . S
C969 C963 1.390 . S
C969 C966 1.386 . S
C970 C965 1.490 . S
C970 C972 1.395 . S
C970 C973 1.403 . S
H971 C977 0.930 . S
C972 H958 0.930 . S
C972 C970 1.395 . S
C972 C975 1.403 . S
C973 C970 1.403 . S
C973 C974 1.524 . S
C973 C977 1.400 . S
C974 H959 0.960 . S
C974 H960 0.960 . S
C974 H961 0.960 . S
C974 C973 1.524 . S
C975 C972 1.403 . S
C975 C976 1.392 . S
C975 C979 1.495 . S
C976 C975 1.392 . S
C976 C977 1.385 . S
C976 C978 1.478 . S
C977 H971 0.930 . S
C977 C973 1.400 . S
C977 C976 1.385 . S
C978 C976 1.478 . S
C978 C980 1.381 . S
C978 C984 1.383 . S
C979 C975 1.495 . S
C979 H985 0.959 . S
C979 H986 0.961 . S
C979 H987 0.960 . S
C980 C978 1.381 . S
C980 C981 1.394 1_554 S
C980 H988 0.930 1_554 S
C981 C980 1.394 1_556 S
C981 C982 1.383 . S
C981 H989 0.929 . S
C982 C981 1.383 . S
C982 C983 1.377 1_556 S
C983 H967 0.930 . S
C983 C982 1.377 1_554 S
C983 C984 1.379 . S
C984 H968 0.931 . S
C984 C978 1.383 . S
C984 C983 1.379 . S
H985 C979 0.959 . S
H986 C979 0.961 . S
H987 C979 0.960 . S
H988 C980 0.930 1_556 S
H989 C981 0.929 . S
H990 C998 0.929 . S
H991 C1000 0.930 . S
H992 C1002 0.930 . S
H993 C1005 0.929 . S
H994 C1008 0.930 . S
H995 C1010 0.960 . S
H996 C1010 0.960 . S
H997 C1010 0.960 . S
C998 H990 0.929 . S
C998 C999 1.377 . S
C998 C1000 1.384 . S
C999 C998 1.377 . S
C999 C1005 1.390 . S
C1000 H991 0.930 . S
C1000 C998 1.384 . S
C1000 C1001 1.372 . S
C1001 C1000 1.372 . S
C1001 C1002 1.400 . S
C1001 C1006 1.490 . S
C1002 H992 0.930 . S
C1002 C1001 1.400 . S
C1002 C1005 1.386 . S
H1003 C1019 0.930 . S
H1004 C1020 0.931 . S
C1005 H993 0.929 . S
C1005 C999 1.390 . S
C1005 C1002 1.386 . S
C1006 C1001 1.490 . S
C1006 C1008 1.395 . S
C1006 C1009 1.403 . S
H1007 C1013 0.930 . S
C1008 H994 0.930 . S
C1008 C1006 1.395 . S
C1008 C1011 1.403 . S
C1009 C1006 1.403 . S
C1009 C1010 1.524 . S
C1009 C1013 1.400 . S
C1010 H995 0.960 . S
C1010 H996 0.960 . S
C1010 H997 0.960 . S
C1010 C1009 1.524 . S
C1011 C1008 1.403 . S
C1011 C1012 1.392 . S
C1011 C1015 1.495 . S
C1012 C1011 1.392 . S
C1012 C1013 1.385 . S
C1012 C1014 1.478 . S
C1013 H1007 0.930 . S
C1013 C1009 1.400 . S
C1013 C1012 1.385 . S
C1014 C1012 1.478 . S
C1014 C1016 1.381 . S
C1014 C1020 1.383 . S
C1015 C1011 1.495 . S
C1015 H1021 0.959 . S
C1015 H1022 0.961 . S
C1015 H1023 0.960 . S
C1016 C1014 1.381 . S
C1016 C1017 1.394 1_554 S
C1016 H1024 0.930 . S
C1017 C1016 1.394 1_556 S
C1017 C1018 1.383 . S
C1017 H1025 0.929 . S
C1018 C1017 1.383 . S
C1018 C1019 1.377 1_556 S
C1019 H1003 0.930 . S
C1019 C1018 1.377 1_554 S
C1019 C1020 1.379 . S
C1020 H1004 0.931 . S
C1020 C1014 1.383 . S
C1020 C1019 1.379 . S
H1021 C1015 0.959 . S
H1022 C1015 0.961 . S
H1023 C1015 0.960 . S
H1024 C1016 0.930 . S
H1025 C1017 0.929 . S
H1026 C1034 0.929 . S
H1027 C1036 0.930 . S
H1028 C1038 0.930 . S
H1029 C1041 0.929 . S
H1030 C1044 0.930 . S
H1031 C1046 0.960 . S
H1032 C1046 0.960 . S
H1033 C1046 0.960 . S
C1034 H1026 0.929 . S
C1034 C1035 1.377 . S
C1034 C1036 1.384 . S
C1035 C1034 1.377 . S
C1035 C1041 1.390 . S
C1036 H1027 0.930 . S
C1036 C1034 1.384 . S
C1036 C1037 1.372 . S
C1037 C1036 1.372 . S
C1037 C1038 1.400 . S
C1037 C1042 1.490 . S
C1038 H1028 0.930 . S
C1038 C1037 1.400 . S
C1038 C1041 1.386 . S
H1039 C1055 0.930 . S
H1040 C1056 0.931 . S
C1041 H1029 0.929 . S
C1041 C1035 1.390 . S
C1041 C1038 1.386 . S
C1042 C1037 1.490 . S
C1042 C1044 1.395 . S
C1042 C1045 1.403 . S
H1043 C1049 0.930 . S
C1044 H1030 0.930 . S
C1044 C1042 1.395 . S
C1044 C1047 1.403 . S
C1045 C1042 1.403 . S
C1045 C1046 1.524 . S
C1045 C1049 1.400 . S
C1046 H1031 0.960 . S
C1046 H1032 0.960 . S
C1046 H1033 0.960 . S
C1046 C1045 1.524 . S
C1047 C1044 1.403 . S
C1047 C1048 1.392 . S
C1047 C1051 1.495 . S
C1048 C1047 1.392 . S
C1048 C1049 1.385 . S
C1048 C1050 1.478 . S
C1049 H1043 0.930 . S
C1049 C1045 1.400 . S
C1049 C1048 1.385 . S
C1050 C1048 1.478 . S
C1050 C1052 1.381 . S
C1050 C1056 1.383 . S
C1051 C1047 1.495 . S
C1051 H1057 0.959 . S
C1051 H1058 0.961 . S
C1051 H1059 0.960 . S
C1052 C1050 1.381 . S
C1052 C1053 1.394 . S
C1052 H1060 0.930 . S
C1053 C1052 1.394 . S
C1053 C1054 1.383 1_556 S
C1053 H1061 0.929 . S
C1054 C1053 1.383 1_554 S
C1054 C1055 1.377 . S
C1055 H1039 0.930 . S
C1055 C1054 1.377 . S
C1055 C1056 1.379 1_554 S
C1056 H1040 0.931 . S
C1056 C1050 1.383 . S
C1056 C1055 1.379 1_556 S
H1057 C1051 0.959 . S
H1058 C1051 0.961 . S
H1059 C1051 0.960 . S
H1060 C1052 0.930 . S
H1061 C1053 0.929 . S
H1062 C1070 0.929 . S
H1063 C1072 0.930 . S
H1064 C1074 0.930 . S
H1065 C1077 0.929 . S
H1066 C1080 0.930 . S
H1067 C1082 0.960 . S
H1068 C1082 0.960 . S
H1069 C1082 0.960 . S
C1070 H1062 0.929 . S
C1070 C1071 1.377 . S
C1070 C1072 1.384 . S
C1071 C1070 1.377 . S
C1071 C1077 1.390 . S
C1072 H1063 0.930 . S
C1072 C1070 1.384 . S
C1072 C1073 1.372 . S
C1073 C1072 1.372 . S
C1073 C1074 1.400 . S
C1073 C1078 1.490 . S
C1074 H1064 0.930 . S
C1074 C1073 1.400 . S
C1074 C1077 1.386 . S
H1075 C1091 0.930 . S
H1076 C1092 0.931 . S
C1077 H1065 0.929 . S
C1077 C1071 1.390 . S
C1077 C1074 1.386 . S
C1078 C1073 1.490 . S
C1078 C1080 1.395 . S
C1078 C1081 1.403 . S
H1079 C1085 0.930 . S
C1080 H1066 0.930 . S
C1080 C1078 1.395 . S
C1080 C1083 1.403 . S
C1081 C1078 1.403 . S
C1081 C1082 1.524 . S
C1081 C1085 1.400 . S
C1082 H1067 0.960 . S
C1082 H1068 0.960 . S
C1082 H1069 0.960 . S
C1082 C1081 1.524 . S
C1083 C1080 1.403 . S
C1083 C1084 1.392 . S
C1083 C1087 1.495 . S
C1084 C1083 1.392 . S
C1084 C1085 1.385 . S
C1084 C1086 1.478 . S
C1085 H1079 0.930 . S
C1085 C1081 1.400 . S
C1085 C1084 1.385 . S
C1086 C1084 1.478 . S
C1086 C1088 1.381 1_556 S
C1086 C1092 1.383 . S
C1087 C1083 1.495 . S
C1087 H1093 0.959 . S
C1087 H1094 0.961 . S
C1087 H1095 0.960 . S
C1088 C1086 1.381 1_554 S
C1088 C1089 1.394 . S
C1088 H1096 0.930 . S
C1089 C1088 1.394 . S
C1089 C1090 1.383 . S
C1089 H1097 0.929 . S
C1090 C1089 1.383 . S
C1090 C1091 1.377 1_554 S
C1091 H1075 0.930 . S
C1091 C1090 1.377 1_556 S
C1091 C1092 1.379 . S
C1092 H1076 0.931 . S
C1092 C1086 1.383 . S
C1092 C1091 1.379 . S
H1093 C1087 0.959 . S
H1094 C1087 0.961 . S
H1095 C1087 0.960 . S
H1096 C1088 0.930 . S
H1097 C1089 0.929 . S
H1098 C1106 0.929 . S
H1099 C1108 0.927 1_554 S
H1100 C1110 0.930 . S
H1101 C1113 0.929 . S
H1102 C1116 0.930 . S
H1103 C1118 0.960 . S
H1104 C1118 0.960 . S
H1105 C1118 0.960 . S
C1106 H1098 0.929 . S
C1106 C1107 1.377 . S
C1106 C1108 1.379 1_554 S
C1107 C1106 1.377 . S
C1107 C1113 1.390 1_554 S
C1108 H1099 0.927 1_556 S
C1108 C1106 1.379 1_556 S
C1108 C1109 1.379 . S
C1109 C1108 1.379 . S
C1109 C1110 1.400 . S
C1109 C1114 1.490 . S
C1110 H1100 0.930 . S
C1110 C1109 1.400 . S
C1110 C1113 1.386 . S
H1111 C1127 0.930 . S
H1112 C1128 0.931 . S
C1113 H1101 0.929 . S
C1113 C1107 1.390 1_556 S
C1113 C1110 1.386 . S
C1114 C1109 1.490 . S
C1114 C1116 1.395 . S
C1114 C1117 1.403 . S
H1115 C1121 0.930 . S
C1116 H1102 0.930 . S
C1116 C1114 1.395 . S
C1116 C1119 1.403 . S
C1117 C1114 1.403 . S
C1117 C1118 1.524 . S
C1117 C1121 1.400 . S
C1118 H1103 0.960 . S
C1118 H1104 0.960 . S
C1118 H1105 0.960 . S
C1118 C1117 1.524 . S
C1119 C1116 1.403 . S
C1119 C1120 1.392 . S
C1119 C1123 1.495 . S
C1120 C1119 1.392 . S
C1120 C1121 1.385 . S
C1120 C1122 1.478 . S
C1121 H1115 0.930 . S
C1121 C1117 1.400 . S
C1121 C1120 1.385 . S
C1122 C1120 1.478 . S
C1122 C1124 1.381 . S
C1122 C1128 1.383 . S
C1123 C1119 1.495 . S
C1123 H1129 0.959 . S
C1123 H1130 0.961 . S
C1123 H1131 0.960 . S
C1124 C1122 1.381 . S
C1124 C1125 1.394 . S
C1124 H1132 0.930 . S
C1125 C1124 1.394 . S
C1125 C1126 1.383 . S
C1125 H1133 0.929 . S
C1126 C1125 1.383 . S
C1126 C1127 1.377 . S
C1127 H1111 0.930 . S
C1127 C1126 1.377 . S
C1127 C1128 1.379 . S
C1128 H1112 0.931 . S
C1128 C1122 1.383 . S
C1128 C1127 1.379 . S
H1129 C1123 0.959 . S
H1130 C1123 0.961 . S
H1131 C1123 0.960 . S
H1132 C1124 0.930 . S
H1133 C1125 0.929 . S
H1134 C1142 0.929 . S
H1135 C1144 0.930 . S
H1136 C1146 0.930 . S
H1137 C1149 0.929 . S
H1138 C1152 0.930 . S
H1139 C1154 0.960 . S
H1140 C1154 0.960 . S
H1141 C1154 0.960 . S
C1142 H1134 0.929 . S
C1142 C1143 1.377 . S
C1142 C1144 1.384 1_655 S
C1143 C1142 1.377 . S
C1143 C1149 1.390 . S
C1144 H1135 0.930 . S
C1144 C1142 1.384 1_455 S
C1144 C1145 1.372 . S
C1145 C1144 1.372 . S
C1145 C1146 1.400 1_455 S
C1145 C1150 1.490 . S
C1146 H1136 0.930 . S
C1146 C1145 1.400 1_655 S
C1146 C1149 1.386 . S
H1147 C1163 0.930 . S
H1148 C1164 0.931 . S
C1149 H1137 0.929 . S
C1149 C1143 1.390 . S
C1149 C1146 1.386 . S
C1150 C1145 1.490 . S
C1150 C1152 1.395 . S
C1150 C1153 1.403 . S
H1151 C1157 0.930 . S
C1152 H1138 0.930 . S
C1152 C1150 1.395 . S
C1152 C1155 1.403 . S
C1153 C1150 1.403 . S
C1153 C1154 1.524 . S
C1153 C1157 1.400 . S
C1154 H1139 0.960 . S
C1154 H1140 0.960 . S
C1154 H1141 0.960 . S
C1154 C1153 1.524 . S
C1155 C1152 1.403 . S
C1155 C1156 1.392 . S
C1155 C1159 1.495 . S
C1156 C1155 1.392 . S
C1156 C1157 1.385 . S
C1156 C1158 1.478 . S
C1157 H1151 0.930 . S
C1157 C1153 1.400 . S
C1157 C1156 1.385 . S
C1158 C1156 1.478 . S
C1158 C1160 1.381 . S
C1158 C1164 1.383 . S
C1159 C1155 1.495 . S
C1159 H1165 0.959 . S
C1159 H1166 0.961 . S
C1159 H1167 0.960 . S
C1160 C1158 1.381 . S
C1160 C1161 1.394 . S
C1160 H1168 0.930 . S
C1161 C1160 1.394 . S
C1161 C1162 1.383 . S
C1161 H1169 0.929 . S
C1162 C1161 1.383 . S
C1162 C1163 1.377 . S
C1163 H1147 0.930 . S
C1163 C1162 1.377 . S
C1163 C1164 1.379 . S
C1164 H1148 0.931 . S
C1164 C1158 1.383 . S
C1164 C1163 1.379 . S
H1165 C1159 0.959 . S
H1166 C1159 0.961 . S
H1167 C1159 0.960 . S
H1168 C1160 0.930 . S
H1169 C1161 0.929 . S
H1170 C1178 0.929 . S
H1171 C1180 0.930 . S
H1172 C1182 0.930 . S
H1173 C1185 0.929 . S
H1174 C1188 0.930 . S
H1175 C1190 0.960 . S
H1176 C1190 0.960 . S
H1177 C1190 0.960 . S
C1178 H1170 0.929 . S
C1178 C1179 1.377 . S
C1178 C1180 1.384 . S
C1179 C1178 1.377 . S
C1179 C1185 1.390 . S
C1180 H1171 0.930 . S
C1180 C1178 1.384 . S
C1180 C1181 1.372 . S
C1181 C1180 1.372 . S
C1181 C1182 1.400 . S
C1181 C1186 1.490 . S
C1182 H1172 0.930 . S
C1182 C1181 1.400 . S
C1182 C1185 1.386 . S
H1183 C1199 0.930 . S
H1184 C1200 0.931 . S
C1185 H1173 0.929 . S
C1185 C1179 1.390 . S
C1185 C1182 1.386 . S
C1186 C1181 1.490 . S
C1186 C1188 1.395 . S
C1186 C1189 1.403 . S
H1187 C1193 0.930 . S
C1188 H1174 0.930 . S
C1188 C1186 1.395 . S
C1188 C1191 1.403 . S
C1189 C1186 1.403 . S
C1189 C1190 1.524 . S
C1189 C1193 1.400 . S
C1190 H1175 0.960 . S
C1190 H1176 0.960 . S
C1190 H1177 0.960 . S
C1190 C1189 1.524 . S
C1191 C1188 1.403 . S
C1191 C1192 1.392 . S
C1191 C1195 1.495 . S
C1192 C1191 1.392 . S
C1192 C1193 1.385 . S
C1192 C1194 1.478 . S
C1193 H1187 0.930 . S
C1193 C1189 1.400 . S
C1193 C1192 1.385 . S
C1194 C1192 1.478 . S
C1194 C1196 1.381 . S
C1194 C1200 1.383 . S
C1195 C1191 1.495 . S
C1195 H1201 0.959 . S
C1195 H1202 0.961 . S
C1195 H1203 0.960 . S
C1196 C1194 1.381 . S
C1196 C1197 1.394 . S
C1196 H1204 0.930 . S
C1197 C1196 1.394 . S
C1197 C1198 1.383 . S
C1197 H1205 0.929 . S
C1198 C1197 1.383 . S
C1198 C1199 1.377 . S
C1199 H1183 0.930 . S
C1199 C1198 1.377 . S
C1199 C1200 1.379 . S
C1200 H1184 0.931 . S
C1200 C1194 1.383 . S
C1200 C1199 1.379 . S
H1201 C1195 0.959 . S
H1202 C1195 0.961 . S
H1203 C1195 0.960 . S
H1204 C1196 0.930 . S
H1205 C1197 0.929 . S
H1206 C1214 0.929 . S
H1207 C1216 0.930 . S
H1208 C1218 0.930 . S
H1209 C1221 0.929 . S
H1210 C1224 0.930 . S
H1211 C1226 0.960 . S
H1212 C1226 0.960 . S
H1213 C1226 0.960 . S
C1214 H1206 0.929 . S
C1214 C1215 1.377 . S
C1214 C1216 1.384 . S
C1215 C1214 1.377 . S
C1215 C1221 1.390 . S
C1216 H1207 0.930 . S
C1216 C1214 1.384 . S
C1216 C1217 1.372 . S
C1217 C1216 1.372 . S
C1217 C1218 1.400 . S
C1217 C1222 1.490 . S
C1218 H1208 0.930 . S
C1218 C1217 1.400 . S
C1218 C1221 1.386 . S
H1219 C1235 0.930 . S
H1220 C1236 0.931 . S
C1221 H1209 0.929 . S
C1221 C1215 1.390 . S
C1221 C1218 1.386 . S
C1222 C1217 1.490 . S
C1222 C1224 1.395 . S
C1222 C1225 1.403 . S
H1223 C1229 0.930 . S
C1224 H1210 0.930 . S
C1224 C1222 1.395 . S
C1224 C1227 1.403 . S
C1225 C1222 1.403 . S
C1225 C1226 1.524 . S
C1225 C1229 1.400 . S
C1226 H1211 0.960 . S
C1226 H1212 0.960 . S
C1226 H1213 0.960 . S
C1226 C1225 1.524 . S
C1227 C1224 1.403 . S
C1227 C1228 1.392 . S
C1227 C1231 1.495 . S
C1228 C1227 1.392 . S
C1228 C1229 1.385 . S
C1228 C1230 1.478 . S
C1229 H1223 0.930 . S
C1229 C1225 1.400 . S
C1229 C1228 1.385 . S
C1230 C1228 1.478 . S
C1230 C1232 1.381 . S
C1230 C1236 1.383 . S
C1231 C1227 1.495 . S
C1231 H1237 0.959 . S
C1231 H1238 0.961 . S
C1231 H1239 0.960 . S
C1232 C1230 1.381 . S
C1232 C1233 1.394 1_565 S
C1232 H1240 0.930 . S
C1233 C1232 1.394 1_545 S
C1233 C1234 1.383 . S
C1233 H1241 0.929 . S
C1234 C1233 1.383 . S
C1234 C1235 1.377 . S
C1235 H1219 0.930 . S
C1235 C1234 1.377 . S
C1235 C1236 1.379 1_545 S
C1236 H1220 0.931 . S
C1236 C1230 1.383 . S
C1236 C1235 1.379 1_565 S
H1237 C1231 0.959 . S
H1238 C1231 0.961 . S
H1239 C1231 0.960 . S
H1240 C1232 0.930 . S
H1241 C1233 0.929 . S
H1242 C1250 0.929 . S
H1243 C1252 0.930 . S
H1244 C1254 0.930 . S
H1245 C1257 0.929 . S
H1246 C1260 0.930 . S
H1247 C1262 0.960 . S
H1248 C1262 0.960 . S
H1249 C1262 0.960 . S
C1250 H1242 0.929 . S
C1250 C1251 1.377 . S
C1250 C1252 1.384 . S
C1251 C1250 1.377 . S
C1251 C1257 1.390 . S
C1252 H1243 0.930 . S
C1252 C1250 1.384 . S
C1252 C1253 1.372 . S
C1253 C1252 1.372 . S
C1253 C1254 1.400 . S
C1253 C1258 1.490 . S
C1254 H1244 0.930 . S
C1254 C1253 1.400 . S
C1254 C1257 1.386 . S
H1255 C1271 0.930 . S
H1256 C1272 0.931 . S
C1257 H1245 0.929 . S
C1257 C1251 1.390 . S
C1257 C1254 1.386 . S
C1258 C1253 1.490 . S
C1258 C1260 1.395 . S
C1258 C1261 1.403 . S
H1259 C1265 0.930 . S
C1260 H1246 0.930 . S
C1260 C1258 1.395 . S
C1260 C1263 1.403 . S
C1261 C1258 1.403 . S
C1261 C1262 1.524 . S
C1261 C1265 1.400 . S
C1262 H1247 0.960 . S
C1262 H1248 0.960 . S
C1262 H1249 0.960 . S
C1262 C1261 1.524 . S
C1263 C1260 1.403 . S
C1263 C1264 1.392 . S
C1263 C1267 1.495 . S
C1264 C1263 1.392 . S
C1264 C1265 1.385 . S
C1264 C1266 1.478 . S
C1265 H1259 0.930 . S
C1265 C1261 1.400 . S
C1265 C1264 1.385 . S
C1266 C1264 1.478 . S
C1266 C1268 1.381 . S
C1266 C1272 1.383 . S
C1267 C1263 1.495 . S
C1267 H1273 0.959 . S
C1267 H1274 0.961 . S
C1267 H1275 0.960 . S
C1268 C1266 1.381 . S
C1268 C1269 1.394 . S
C1268 H1276 0.930 . S
C1269 C1268 1.394 . S
C1269 C1270 1.383 . S
C1269 H1277 0.929 . S
C1270 C1269 1.383 . S
C1270 C1271 1.377 . S
C1271 H1255 0.930 . S
C1271 C1270 1.377 . S
C1271 C1272 1.379 . S
C1272 H1256 0.931 . S
C1272 C1266 1.383 . S
C1272 C1271 1.379 . S
H1273 C1267 0.959 . S
H1274 C1267 0.961 . S
H1275 C1267 0.960 . S
H1276 C1268 0.930 . S
H1277 C1269 0.929 . S
H1278 C1286 0.929 . S
H1279 C1288 0.930 . S
H1280 C1290 0.930 . S
H1281 C1293 0.929 . S
H1282 C1296 0.930 . S
H1283 C1298 0.960 . S
H1284 C1298 0.960 . S
H1285 C1298 0.960 . S
C1286 H1278 0.929 . S
C1286 C1287 1.377 . S
C1286 C1288 1.384 . S
C1287 C1286 1.377 . S
C1287 C1293 1.390 . S
C1288 H1279 0.930 . S
C1288 C1286 1.384 . S
C1288 C1289 1.372 . S
C1289 C1288 1.372 . S
C1289 C1290 1.400 . S
C1289 C1294 1.490 . S
C1290 H1280 0.930 . S
C1290 C1289 1.400 . S
C1290 C1293 1.386 . S
H1291 C1307 0.930 . S
H1292 C1308 0.931 . S
C1293 H1281 0.929 . S
C1293 C1287 1.390 . S
C1293 C1290 1.386 . S
C1294 C1289 1.490 . S
C1294 C1296 1.395 . S
C1294 C1297 1.403 . S
H1295 C1301 0.930 . S
C1296 H1282 0.930 . S
C1296 C1294 1.395 . S
C1296 C1299 1.403 . S
C1297 C1294 1.403 . S
C1297 C1298 1.524 . S
C1297 C1301 1.400 . S
C1298 H1283 0.960 . S
C1298 H1284 0.960 . S
C1298 H1285 0.960 . S
C1298 C1297 1.524 . S
C1299 C1296 1.403 . S
C1299 C1300 1.392 . S
C1299 C1303 1.495 . S
C1300 C1299 1.392 . S
C1300 C1301 1.385 . S
C1300 C1302 1.478 . S
C1301 H1295 0.930 . S
C1301 C1297 1.400 . S
C1301 C1300 1.385 . S
C1302 C1300 1.478 . S
C1302 C1304 1.381 . S
C1302 C1308 1.383 . S
C1303 C1299 1.495 . S
C1303 H1309 0.959 . S
C1303 H1310 0.961 . S
C1303 H1311 0.960 . S
C1304 C1302 1.381 . S
C1304 C1305 1.394 . S
C1304 H1312 0.930 . S
C1305 C1304 1.394 . S
C1305 C1306 1.383 . S
C1305 H1313 0.929 . S
C1306 C1305 1.383 . S
C1306 C1307 1.377 . S
C1307 H1291 0.930 . S
C1307 C1306 1.377 . S
C1307 C1308 1.379 . S
C1308 H1292 0.931 . S
C1308 C1302 1.383 . S
C1308 C1307 1.379 . S
H1309 C1303 0.959 . S
H1310 C1303 0.961 . S
H1311 C1303 0.960 . S
H1312 C1304 0.930 . S
H1313 C1305 0.929 . S
H1314 C1322 0.929 . S
H1315 C1324 0.930 . S
H1316 C1326 0.930 . S
H1317 C1329 0.929 . S
H1318 C1332 0.930 . S
H1319 C1334 0.960 . S
H1320 C1334 0.960 . S
H1321 C1334 0.960 . S
C1322 H1314 0.929 . S
C1322 C1323 1.377 . S
C1322 C1324 1.384 . S
C1323 C1322 1.377 . S
C1323 C1329 1.390 . S
C1324 H1315 0.930 . S
C1324 C1322 1.384 . S
C1324 C1325 1.372 . S
C1325 C1324 1.372 . S
C1325 C1326 1.400 . S
C1325 C1330 1.490 . S
C1326 H1316 0.930 . S
C1326 C1325 1.400 . S
C1326 C1329 1.386 . S
H1327 C1343 0.930 . S
H1328 C1344 0.931 . S
C1329 H1317 0.929 . S
C1329 C1323 1.390 . S
C1329 C1326 1.386 . S
C1330 C1325 1.490 . S
C1330 C1332 1.395 . S
C1330 C1333 1.403 . S
H1331 C1337 0.930 . S
C1332 H1318 0.930 . S
C1332 C1330 1.395 . S
C1332 C1335 1.403 . S
C1333 C1330 1.403 . S
C1333 C1334 1.524 . S
C1333 C1337 1.400 . S
C1334 H1319 0.960 . S
C1334 H1320 0.960 . S
C1334 H1321 0.960 . S
C1334 C1333 1.524 . S
C1335 C1332 1.403 . S
C1335 C1336 1.392 . S
C1335 C1339 1.495 . S
C1336 C1335 1.392 . S
C1336 C1337 1.385 . S
C1336 C1338 1.478 . S
C1337 H1331 0.930 . S
C1337 C1333 1.400 . S
C1337 C1336 1.385 . S
C1338 C1336 1.478 . S
C1338 C1340 1.381 . S
C1338 C1344 1.383 . S
C1339 C1335 1.495 . S
C1339 H1345 0.959 . S
C1339 H1346 0.961 . S
C1339 H1347 0.960 . S
C1340 C1338 1.381 . S
C1340 C1341 1.394 . S
C1340 H1348 0.930 . S
C1341 C1340 1.394 . S
C1341 C1342 1.383 . S
C1341 H1349 0.929 . S
C1342 C1341 1.383 . S
C1342 C1343 1.377 . S
C1343 H1327 0.930 . S
C1343 C1342 1.377 . S
C1343 C1344 1.379 . S
C1344 H1328 0.931 . S
C1344 C1338 1.383 . S
C1344 C1343 1.379 . S
H1345 C1339 0.959 . S
H1346 C1339 0.961 . S
H1347 C1339 0.960 . S
H1348 C1340 0.930 . S
H1349 C1341 0.929 . S
H1350 C1358 0.929 . S
H1351 C1360 0.930 . S
H1352 C1362 0.930 . S
H1353 C1365 0.929 . S
H1354 C1368 0.930 . S
H1355 C1370 0.960 . S
H1356 C1370 0.960 . S
H1357 C1370 0.960 . S
C1358 H1350 0.929 . S
C1358 C1359 1.377 . S
C1358 C1360 1.384 . S
C1359 C1358 1.377 . S
C1359 C1365 1.390 . S
C1360 H1351 0.930 . S
C1360 C1358 1.384 . S
C1360 C1361 1.372 . S
C1361 C1360 1.372 . S
C1361 C1362 1.400 . S
C1361 C1366 1.490 . S
C1362 H1352 0.930 . S
C1362 C1361 1.400 . S
C1362 C1365 1.386 . S
H1363 C1379 0.930 . S
H1364 C1380 0.931 . S
C1365 H1353 0.929 . S
C1365 C1359 1.390 . S
C1365 C1362 1.386 . S
C1366 C1361 1.490 . S
C1366 C1368 1.395 . S
C1366 C1369 1.403 . S
H1367 C1373 0.930 . S
C1368 H1354 0.930 . S
C1368 C1366 1.395 . S
C1368 C1371 1.403 . S
C1369 C1366 1.403 . S
C1369 C1370 1.524 . S
C1369 C1373 1.400 . S
C1370 H1355 0.960 . S
C1370 H1356 0.960 . S
C1370 H1357 0.960 . S
C1370 C1369 1.524 . S
C1371 C1368 1.403 . S
C1371 C1372 1.392 . S
C1371 C1375 1.495 . S
C1372 C1371 1.392 . S
C1372 C1373 1.385 . S
C1372 C1374 1.478 . S
C1373 H1367 0.930 . S
C1373 C1369 1.400 . S
C1373 C1372 1.385 . S
C1374 C1372 1.478 . S
C1374 C1376 1.381 . S
C1374 C1380 1.383 . S
C1375 C1371 1.495 . S
C1375 H1381 0.959 . S
C1375 H1382 0.961 . S
C1375 H1383 0.960 . S
C1376 C1374 1.381 . S
C1376 C1377 1.394 . S
C1376 H1384 0.930 . S
C1377 C1376 1.394 . S
C1377 C1378 1.383 . S
C1377 H1385 0.929 . S
C1378 C1377 1.383 . S
C1378 C1379 1.377 . S
C1379 H1363 0.930 . S
C1379 C1378 1.377 . S
C1379 C1380 1.379 . S
C1380 H1364 0.931 . S
C1380 C1374 1.383 . S
C1380 C1379 1.379 . S
H1381 C1375 0.959 . S
H1382 C1375 0.961 . S
H1383 C1375 0.960 . S
H1384 C1376 0.930 . S
H1385 C1377 0.929 . S
H1386 C1394 0.929 . S
H1387 C1396 0.930 . S
H1388 C1398 0.930 . S
H1389 C1401 0.929 . S
H1390 C1404 0.930 . S
H1391 C1406 0.960 . S
H1392 C1406 0.960 . S
H1393 C1406 0.960 . S
C1394 H1386 0.929 . S
C1394 C1395 1.377 . S
C1394 C1396 1.384 . S
C1395 C1394 1.377 . S
C1395 C1401 1.390 . S
C1396 H1387 0.930 . S
C1396 C1394 1.384 . S
C1396 C1397 1.372 . S
C1397 C1396 1.372 . S
C1397 C1398 1.400 . S
C1397 C1402 1.490 . S
C1398 H1388 0.930 . S
C1398 C1397 1.400 . S
C1398 C1401 1.386 . S
H1399 C1415 0.930 . S
H1400 C1416 0.931 . S
C1401 H1389 0.929 . S
C1401 C1395 1.390 . S
C1401 C1398 1.386 . S
C1402 C1397 1.490 . S
C1402 C1404 1.395 . S
C1402 C1405 1.403 . S
H1403 C1409 0.930 . S
C1404 H1390 0.930 . S
C1404 C1402 1.395 . S
C1404 C1407 1.403 . S
C1405 C1402 1.403 . S
C1405 C1406 1.524 . S
C1405 C1409 1.400 . S
C1406 H1391 0.960 . S
C1406 H1392 0.960 . S
C1406 H1393 0.960 . S
C1406 C1405 1.524 . S
C1407 C1404 1.403 . S
C1407 C1408 1.392 . S
C1407 C1411 1.495 . S
C1408 C1407 1.392 . S
C1408 C1409 1.385 . S
C1408 C1410 1.478 . S
C1409 H1403 0.930 . S
C1409 C1405 1.400 . S
C1409 C1408 1.385 . S
C1410 C1408 1.478 . S
C1410 C1412 1.381 . S
C1410 C1416 1.383 . S
C1411 C1407 1.495 . S
C1411 H1417 0.959 . S
C1411 H1418 0.961 . S
C1411 H1419 0.960 . S
C1412 C1410 1.381 . S
C1412 C1413 1.394 . S
C1412 H1420 0.930 . S
C1413 C1412 1.394 . S
C1413 C1414 1.383 . S
C1413 H1421 0.929 . S
C1414 C1413 1.383 . S
C1414 C1415 1.377 . S
C1415 H1399 0.930 . S
C1415 C1414 1.377 . S
C1415 C1416 1.379 . S
C1416 H1400 0.931 . S
C1416 C1410 1.383 . S
C1416 C1415 1.379 . S
H1417 C1411 0.959 . S
H1418 C1411 0.961 . S
H1419 C1411 0.960 . S
H1420 C1412 0.930 . S
H1421 C1413 0.929 . S
H1422 C1430 0.929 . S
H1423 C1432 0.930 . S
H1424 C1434 0.930 . S
H1425 C1437 0.929 . S
H1426 C1440 0.930 . S
H1427 C1442 0.960 . S
H1428 C1442 0.960 . S
H1429 C1442 0.960 . S
C1430 H1422 0.929 . S
C1430 C1431 1.377 . S
C1430 C1432 1.384 . S
C1431 C1430 1.377 . S
C1431 C1437 1.390 . S
C1432 H1423 0.930 . S
C1432 C1430 1.384 . S
C1432 C1433 1.372 . S
C1433 C1432 1.372 . S
C1433 C1434 1.400 . S
C1433 C1438 1.490 . S
C1434 H1424 0.930 . S
C1434 C1433 1.400 . S
C1434 C1437 1.386 . S
H1435 C1451 0.930 . S
H1436 C1452 0.931 . S
C1437 H1425 0.929 . S
C1437 C1431 1.390 . S
C1437 C1434 1.386 . S
C1438 C1433 1.490 . S
C1438 C1440 1.395 . S
C1438 C1441 1.403 . S
H1439 C1445 0.930 . S
C1440 H1426 0.930 . S
C1440 C1438 1.395 . S
C1440 C1443 1.403 . S
C1441 C1438 1.403 . S
C1441 C1442 1.524 . S
C1441 C1445 1.400 . S
C1442 H1427 0.960 . S
C1442 H1428 0.960 . S
C1442 H1429 0.960 . S
C1442 C1441 1.524 . S
C1443 C1440 1.403 . S
C1443 C1444 1.392 . S
C1443 C1447 1.495 . S
C1444 C1443 1.392 . S
C1444 C1445 1.385 . S
C1444 C1446 1.478 . S
C1445 H1439 0.930 . S
C1445 C1441 1.400 . S
C1445 C1444 1.385 . S
C1446 C1444 1.478 . S
C1446 C1448 1.381 . S
C1446 C1452 1.383 . S
C1447 C1443 1.495 . S
C1447 H1453 0.959 . S
C1447 H1454 0.961 . S
C1447 H1455 0.960 . S
C1448 C1446 1.381 . S
C1448 C1449 1.394 . S
C1448 H1456 0.930 . S
C1449 C1448 1.394 . S
C1449 C1450 1.383 . S
C1449 H1457 0.929 . S
C1450 C1449 1.383 . S
C1450 C1451 1.377 . S
C1451 H1435 0.930 . S
C1451 C1450 1.377 . S
C1451 C1452 1.379 . S
C1452 H1436 0.931 . S
C1452 C1446 1.383 . S
C1452 C1451 1.379 . S
H1453 C1447 0.959 . S
H1454 C1447 0.961 . S
H1455 C1447 0.960 . S
H1456 C1448 0.930 . S
H1457 C1449 0.929 . S
H1458 C1466 0.929 . S
H1459 C1468 0.930 1_565 S
H1460 C1470 0.930 . S
H1461 C1473 0.929 . S
H1462 C1476 0.930 1_554 S
H1463 C1478 0.960 . S
H1464 C1478 0.960 1_565 S
H1465 C1478 0.960 . S
C1466 H1458 0.929 . S
C1466 C1467 1.377 . S
C1466 C1468 1.384 . S
C1467 C1466 1.377 . S
C1467 C1473 1.390 . S
C1468 H1459 0.930 1_545 S
C1468 C1466 1.384 . S
C1468 C1469 1.372 . S
C1469 C1468 1.372 . S
C1469 C1470 1.400 . S
C1469 C1474 1.490 . S
C1470 H1460 0.930 . S
C1470 C1469 1.400 . S
C1470 C1473 1.386 . S
H1471 C1487 0.930 . S
H1472 C1488 0.931 1_545 S
C1473 H1461 0.929 . S
C1473 C1467 1.390 . S
C1473 C1470 1.386 . S
C1474 C1469 1.490 . S
C1474 C1476 1.390 1_554 S
C1474 C1477 1.403 . S
H1475 C1481 0.930 . S
C1476 H1462 0.930 1_556 S
C1476 C1474 1.390 1_556 S
C1476 C1479 1.409 1_545 S
C1477 C1474 1.403 . S
C1477 C1478 1.524 . S
C1477 C1481 1.400 1_544 S
C1478 H1463 0.960 . S
C1478 H1464 0.960 1_545 S
C1478 H1465 0.960 . S
C1478 C1477 1.524 . S
C1479 C1476 1.409 1_565 S
C1479 C1480 1.392 . S
C1479 C1483 1.495 . S
C1480 C1479 1.392 . S
C1480 C1481 1.385 . S
C1480 C1482 1.478 . S
C1481 H1475 0.930 . S
C1481 C1477 1.400 1_566 S
C1481 C1480 1.385 . S
C1482 C1480 1.478 . S
C1482 C1484 1.381 . S
C1482 C1488 1.383 . S
C1483 C1479 1.495 . S
C1483 H1489 0.959 . S
C1483 H1490 0.969 . S
C1483 H1491 0.960 . S
C1484 C1482 1.381 . S
C1484 C1485 1.394 . S
C1484 H1492 0.930 . S
C1485 C1484 1.394 . S
C1485 C1486 1.383 . S
C1485 H1493 0.929 . S
C1486 C1485 1.383 . S
C1486 C1487 1.377 . S
C1487 H1471 0.930 . S
C1487 C1486 1.377 . S
C1487 C1488 1.379 . S
C1488 H1472 0.931 1_565 S
C1488 C1482 1.383 . S
C1488 C1487 1.379 . S
H1489 C1483 0.959 . S
H1490 C1483 0.969 . S
H1491 C1483 0.960 . S
H1492 C1484 0.930 . S
H1493 C1485 0.929 . S
H1494 C1502 0.929 . S
H1495 C1504 0.930 . S
H1496 C1506 0.930 . S
H1497 C1509 0.929 . S
H1498 C1512 0.930 . S
H1499 C1514 0.960 . S
H1500 C1514 0.960 . S
H1501 C1514 0.960 . S
C1502 H1494 0.929 . S
C1502 C1503 1.377 . S
C1502 C1504 1.384 . S
C1503 C1502 1.377 . S
C1503 C1509 1.390 . S
C1504 H1495 0.930 . S
C1504 C1502 1.384 . S
C1504 C1505 1.372 . S
C1505 C1504 1.372 . S
C1505 C1506 1.400 . S
C1505 C1510 1.490 . S
C1506 H1496 0.930 . S
C1506 C1505 1.400 . S
C1506 C1509 1.386 . S
H1507 C1523 0.930 . S
H1508 C1524 0.931 . S
C1509 H1497 0.929 . S
C1509 C1503 1.390 . S
C1509 C1506 1.386 . S
C1510 C1505 1.490 . S
C1510 C1512 1.395 . S
C1510 C1513 1.403 1_455 S
H1511 C1517 0.930 . S
C1512 H1498 0.930 . S
C1512 C1510 1.395 . S
C1512 C1515 1.403 1_556 S
C1513 C1510 1.403 1_655 S
C1513 C1514 1.524 . S
C1513 C1517 1.400 1_556 S
C1514 H1499 0.960 . S
C1514 H1500 0.960 . S
C1514 H1501 0.960 . S
C1514 C1513 1.524 . S
C1515 C1512 1.403 1_554 S
C1515 C1516 1.392 1_455 S
C1515 C1519 1.495 . S
C1516 C1515 1.392 1_655 S
C1516 C1517 1.385 . S
C1516 C1518 1.478 . S
C1517 H1511 0.930 . S
C1517 C1513 1.400 1_554 S
C1517 C1516 1.385 . S
C1518 C1516 1.478 . S
C1518 C1520 1.381 . S
C1518 C1524 1.383 . S
C1519 C1515 1.495 . S
C1519 H1525 0.959 . S
C1519 H1526 0.961 . S
C1519 H1527 0.960 . S
C1520 C1518 1.381 . S
C1520 C1521 1.394 . S
C1520 H1528 0.930 . S
C1521 C1520 1.394 . S
C1521 C1522 1.383 . S
C1521 H1529 0.929 . S
C1522 C1521 1.383 . S
C1522 C1523 1.377 . S
C1523 H1507 0.930 . S
C1523 C1522 1.377 . S
C1523 C1524 1.379 . S
C1524 H1508 0.931 . S
C1524 C1518 1.383 . S
C1524 C1523 1.379 . S
H1525 C1519 0.959 . S
H1526 C1519 0.961 . S
H1527 C1519 0.960 . S
H1528 C1520 0.930 . S
H1529 C1521 0.929 . S
H1530 C1538 0.929 . S
H1531 C1540 0.930 . S
H1532 C1542 0.930 . S
H1533 C1545 0.929 . S
H1534 C1548 0.930 . S
H1535 C1550 0.960 . S
H1536 C1550 0.960 . S
H1537 C1550 0.960 . S
C1538 H1530 0.929 . S
C1538 C1539 1.377 . S
C1538 C1540 1.384 . S
C1539 C1538 1.377 . S
C1539 C1545 1.390 . S
C1540 H1531 0.930 . S
C1540 C1538 1.384 . S
C1540 C1541 1.372 . S
C1541 C1540 1.372 . S
C1541 C1542 1.400 . S
C1541 C1546 1.490 . S
C1542 H1532 0.930 . S
C1542 C1541 1.400 . S
C1542 C1545 1.386 . S
H1543 C1559 0.930 . S
H1544 C1560 0.931 . S
C1545 H1533 0.929 . S
C1545 C1539 1.390 . S
C1545 C1542 1.386 . S
C1546 C1541 1.490 . S
C1546 C1548 1.395 . S
C1546 C1549 1.403 . S
H1547 C1553 0.930 . S
C1548 H1534 0.930 . S
C1548 C1546 1.395 . S
C1548 C1551 1.403 1_556 S
C1549 C1546 1.403 . S
C1549 C1550 1.524 . S
C1549 C1553 1.400 1_556 S
C1550 H1535 0.960 . S
C1550 H1536 0.960 . S
C1550 H1537 0.960 . S
C1550 C1549 1.524 . S
C1551 C1548 1.403 1_554 S
C1551 C1552 1.392 . S
C1551 C1555 1.495 . S
C1552 C1551 1.392 . S
C1552 C1553 1.385 . S
C1552 C1554 1.478 . S
C1553 H1547 0.930 . S
C1553 C1549 1.400 1_554 S
C1553 C1552 1.385 . S
C1554 C1552 1.478 . S
C1554 C1556 1.381 . S
C1554 C1560 1.383 . S
C1555 C1551 1.495 . S
C1555 H1561 0.959 . S
C1555 H1562 0.961 . S
C1555 H1563 0.960 . S
C1556 C1554 1.381 . S
C1556 C1557 1.394 . S
C1556 H1564 0.930 . S
C1557 C1556 1.394 . S
C1557 C1558 1.383 . S
C1557 H1565 0.929 . S
C1558 C1557 1.383 . S
C1558 C1559 1.377 . S
C1559 H1543 0.930 . S
C1559 C1558 1.377 . S
C1559 C1560 1.379 . S
C1560 H1544 0.931 . S
C1560 C1554 1.383 . S
C1560 C1559 1.379 . S
H1561 C1555 0.959 . S
H1562 C1555 0.961 . S
H1563 C1555 0.960 . S
H1564 C1556 0.930 . S
H1565 C1557 0.929 . S
H1566 C1574 0.929 . S
H1567 C1576 0.930 . S
H1568 C1578 0.930 . S
H1569 C1581 0.929 . S
H1570 C1584 0.930 . S
H1571 C1586 0.960 . S
H1572 C1586 0.960 1_554 S
H1573 C1586 0.960 . S
C1574 H1566 0.929 . S
C1574 C1575 1.377 . S
C1574 C1576 1.384 . S
C1575 C1574 1.377 . S
C1575 C1581 1.390 1_554 S
C1576 H1567 0.930 . S
C1576 C1574 1.384 . S
C1576 C1577 1.372 . S
C1577 C1576 1.372 . S
C1577 C1578 1.400 1_554 S
C1577 C1582 1.490 1_554 S
C1578 H1568 0.930 . S
C1578 C1577 1.400 1_556 S
C1578 C1581 1.386 . S
H1579 C1595 0.930 . S
H1580 C1596 0.931 . S
C1581 H1569 0.929 . S
C1581 C1575 1.390 1_556 S
C1581 C1578 1.386 . S
C1582 C1577 1.490 1_556 S
C1582 C1584 1.395 . S
C1582 C1585 1.403 . S
H1583 C1589 0.930 . S
C1584 H1570 0.930 . S
C1584 C1582 1.395 . S
C1584 C1587 1.403 . S
C1585 C1582 1.403 . S
C1585 C1586 1.524 . S
C1585 C1589 1.400 . S
C1586 H1571 0.960 . S
C1586 H1572 0.960 1_556 S
C1586 H1573 0.960 . S
C1586 C1585 1.524 . S
C1587 C1584 1.403 . S
C1587 C1588 1.392 . S
C1587 C1591 1.495 . S
C1588 C1587 1.392 . S
C1588 C1589 1.385 . S
C1588 C1590 1.478 . S
C1589 H1583 0.930 . S
C1589 C1585 1.400 . S
C1589 C1588 1.385 . S
C1590 C1588 1.478 . S
C1590 C1592 1.381 . S
C1590 C1596 1.383 . S
C1591 C1587 1.495 . S
C1591 H1597 0.959 . S
C1591 H1598 0.961 . S
C1591 H1599 0.960 . S
C1592 C1590 1.381 . S
C1592 C1593 1.394 . S
C1592 H1600 0.930 . S
C1593 C1592 1.394 . S
C1593 C1594 1.383 . S
C1593 H1601 0.929 . S
C1594 C1593 1.383 . S
C1594 C1595 1.377 . S
C1595 H1579 0.930 . S
C1595 C1594 1.377 . S
C1595 C1596 1.379 . S
C1596 H1580 0.931 . S
C1596 C1590 1.383 . S
C1596 C1595 1.379 . S
H1597 C1591 0.959 . S
H1598 C1591 0.961 . S
H1599 C1591 0.960 . S
H1600 C1592 0.930 . S
H1601 C1593 0.929 . S
H1602 C1610 0.929 . S
H1603 C1612 0.930 . S
H1604 C1614 0.930 . S
H1605 C1617 0.929 . S
H1606 C1620 0.930 . S
H1607 C1622 0.960 . S
H1608 C1622 0.960 . S
H1609 C1622 0.960 . S
C1610 H1602 0.929 . S
C1610 C1611 1.377 . S
C1610 C1612 1.384 . S
C1611 C1610 1.377 . S
C1611 C1617 1.390 . S
C1612 H1603 0.930 . S
C1612 C1610 1.384 . S
C1612 C1613 1.372 . S
C1613 C1612 1.372 . S
C1613 C1614 1.400 . S
C1613 C1618 1.490 . S
C1614 H1604 0.930 . S
C1614 C1613 1.400 . S
C1614 C1617 1.386 . S
H1615 C1631 0.930 . S
H1616 C1632 0.931 . S
C1617 H1605 0.929 . S
C1617 C1611 1.390 . S
C1617 C1614 1.386 . S
C1618 C1613 1.490 . S
C1618 C1620 1.395 . S
C1618 C1621 1.403 . S
H1619 C1625 0.930 . S
C1620 H1606 0.930 . S
C1620 C1618 1.395 . S
C1620 C1623 1.403 . S
C1621 C1618 1.403 . S
C1621 C1622 1.524 1_556 S
C1621 C1625 1.400 1_556 S
C1622 H1607 0.960 . S
C1622 H1608 0.960 . S
C1622 H1609 0.960 . S
C1622 C1621 1.524 1_554 S
C1623 C1620 1.403 . S
C1623 C1624 1.392 . S
C1623 C1627 1.495 . S
C1624 C1623 1.392 . S
C1624 C1625 1.385 1_556 S
C1624 C1626 1.478 . S
C1625 H1619 0.930 . S
C1625 C1621 1.400 1_554 S
C1625 C1624 1.385 1_554 S
C1626 C1624 1.478 . S
C1626 C1628 1.381 . S
C1626 C1632 1.383 1_556 S
C1627 C1623 1.495 . S
C1627 H1633 0.959 . S
C1627 H1634 0.961 . S
C1627 H1635 0.960 . S
C1628 C1626 1.381 . S
C1628 C1629 1.394 1_556 S
C1628 H1636 0.930 . S
C1629 C1628 1.394 1_554 S
C1629 C1630 1.383 . S
C1629 H1637 0.928 1_554 S
C1630 C1629 1.383 . S
C1630 C1631 1.377 . S
C1631 H1615 0.930 . S
C1631 C1630 1.377 . S
C1631 C1632 1.379 . S
C1632 H1616 0.931 . S
C1632 C1626 1.383 1_554 S
C1632 C1631 1.379 . S
H1633 C1627 0.959 . S
H1634 C1627 0.961 . S
H1635 C1627 0.960 . S
H1636 C1628 0.930 . S
H1637 C1629 0.928 1_556 S
H1638 C1646 0.911 1_456 S
H1639 C1648 0.930 . S
H1640 C1650 0.930 . S
H1641 C1653 0.929 . S
H1642 C1656 0.930 . S
H1643 C1658 0.960 . S
H1644 C1658 0.960 . S
H1645 C1658 0.960 . S
C1646 H1638 0.911 1_654 S
C1646 C1647 1.377 . S
C1646 C1648 1.384 1_554 S
C1647 C1646 1.377 . S
C1647 C1653 1.390 . S
C1648 H1639 0.930 . S
C1648 C1646 1.384 1_556 S
C1648 C1649 1.369 1_556 S
C1649 C1648 1.369 1_554 S
C1649 C1650 1.406 . S
C1649 C1654 1.487 1_554 S
C1650 H1640 0.930 . S
C1650 C1649 1.406 . S
C1650 C1653 1.386 . S
H1651 C1667 0.930 . S
H1652 C1668 0.931 . S
C1653 H1641 0.929 . S
C1653 C1647 1.390 . S
C1653 C1650 1.386 . S
C1654 C1649 1.487 1_556 S
C1654 C1656 1.395 . S
C1654 C1657 1.403 1_556 S
H1655 C1661 0.930 1_554 S
C1656 H1642 0.930 . S
C1656 C1654 1.395 . S
C1656 C1659 1.403 . S
C1657 C1654 1.403 1_554 S
C1657 C1658 1.524 . S
C1657 C1661 1.400 1_554 S
C1658 H1643 0.960 . S
C1658 H1644 0.960 . S
C1658 H1645 0.960 . S
C1658 C1657 1.524 . S
C1659 C1656 1.403 . S
C1659 C1660 1.392 . S
C1659 C1663 1.495 . S
C1660 C1659 1.392 . S
C1660 C1661 1.385 . S
C1660 C1662 1.478 . S
C1661 H1655 0.930 1_556 S
C1661 C1657 1.400 1_556 S
C1661 C1660 1.385 . S
C1662 C1660 1.478 . S
C1662 C1664 1.381 . S
C1662 C1668 1.383 . S
C1663 C1659 1.495 . S
C1663 H1669 0.959 . S
C1663 H1670 0.961 . S
C1663 H1671 0.960 . S
C1664 C1662 1.381 . S
C1664 C1665 1.394 . S
C1664 H1672 0.930 . S
C1665 C1664 1.394 . S
C1665 C1666 1.383 . S
C1665 H1673 0.929 . S
C1666 C1665 1.383 . S
C1666 C1667 1.377 . S
C1667 H1651 0.930 . S
C1667 C1666 1.377 . S
C1667 C1668 1.379 . S
C1668 H1652 0.931 . S
C1668 C1662 1.383 . S
C1668 C1667 1.379 . S
H1669 C1663 0.959 . S
H1670 C1663 0.961 . S
H1671 C1663 0.960 . S
H1672 C1664 0.930 . S
H1673 C1665 0.929 . S
H1674 C1682 0.929 . S
H1675 C1684 0.930 . S
H1676 C1686 0.930 . S
H1677 C1689 0.929 . S
H1678 C1692 0.930 . S
H1679 C1694 0.960 . S
H1680 C1694 0.960 . S
H1681 C1694 0.960 . S
C1682 H1674 0.929 . S
C1682 C1683 1.377 . S
C1682 C1684 1.384 . S
C1683 C1682 1.377 . S
C1683 C1689 1.390 . S
C1684 H1675 0.930 . S
C1684 C1682 1.384 . S
C1684 C1685 1.372 . S
C1685 C1684 1.372 . S
C1685 C1686 1.400 . S
C1685 C1690 1.490 . S
C1686 H1676 0.930 . S
C1686 C1685 1.400 . S
C1686 C1689 1.386 . S
H1687 C1703 0.930 . S
H1688 C1704 0.931 . S
C1689 H1677 0.929 . S
C1689 C1683 1.390 . S
C1689 C1686 1.386 . S
C1690 C1685 1.490 . S
C1690 C1692 1.395 . S
C1690 C1693 1.403 . S
H1691 C1697 0.930 . S
C1692 H1678 0.930 . S
C1692 C1690 1.395 . S
C1692 C1695 1.403 . S
C1693 C1690 1.403 . S
C1693 C1694 1.524 . S
C1693 C1697 1.400 . S
C1694 H1679 0.960 . S
C1694 H1680 0.960 . S
C1694 H1681 0.960 . S
C1694 C1693 1.524 . S
C1695 C1692 1.403 . S
C1695 C1696 1.392 . S
C1695 C1699 1.495 . S
C1696 C1695 1.392 . S
C1696 C1697 1.385 . S
C1696 C1698 1.481 . S
C1697 H1691 0.930 . S
C1697 C1693 1.400 . S
C1697 C1696 1.385 . S
C1698 C1696 1.481 . S
C1698 C1700 1.387 . S
C1698 C1704 1.373 1_554 S
C1699 C1695 1.495 . S
C1699 H1705 0.959 . S
C1699 H1706 0.961 . S
C1699 H1707 0.960 . S
C1700 C1698 1.387 . S
C1700 C1701 1.394 . S
C1700 H1708 0.930 . S
C1701 C1700 1.394 . S
C1701 C1702 1.383 1_554 S
C1701 H1709 0.929 . S
C1702 C1701 1.383 1_556 S
C1702 C1703 1.377 . S
C1703 H1687 0.930 . S
C1703 C1702 1.377 . S
C1703 C1704 1.379 . S
C1704 H1688 0.931 . S
C1704 C1698 1.373 1_556 S
C1704 C1703 1.379 . S
H1705 C1699 0.959 . S
H1706 C1699 0.961 . S
H1707 C1699 0.960 . S
H1708 C1700 0.930 . S
H1709 C1701 0.929 . S
H1710 C1718 0.929 . S
H1711 C1720 0.930 . S
H1712 C1722 0.930 . S
H1713 C1725 0.929 . S
H1714 C1728 0.930 . S
H1715 C1730 0.960 . S
H1716 C1730 0.960 . S
H1717 C1730 0.960 . S
C1718 H1710 0.929 . S
C1718 C1719 1.377 . S
C1718 C1720 1.384 . S
C1719 C1718 1.377 . S
C1719 C1725 1.390 1_556 S
C1720 H1711 0.930 . S
C1720 C1718 1.384 . S
C1720 C1721 1.372 . S
C1721 C1720 1.372 . S
C1721 C1722 1.400 1_556 S
C1721 C1726 1.490 1_556 S
C1722 H1712 0.930 . S
C1722 C1721 1.400 1_554 S
C1722 C1725 1.386 . S
H1723 C1739 0.930 . S
H1724 C1740 0.931 . S
C1725 H1713 0.929 . S
C1725 C1719 1.390 1_554 S
C1725 C1722 1.386 . S
C1726 C1721 1.490 1_554 S
C1726 C1728 1.395 1_554 S
C1726 C1729 1.403 . S
H1727 C1733 0.930 . S
C1728 H1714 0.930 . S
C1728 C1726 1.395 1_556 S
C1728 C1731 1.403 1_556 S
C1729 C1726 1.403 . S
C1729 C1730 1.524 . S
C1729 C1733 1.400 . S
C1730 H1715 0.960 . S
C1730 H1716 0.960 . S
C1730 H1717 0.960 . S
C1730 C1729 1.524 . S
C1731 C1728 1.403 1_554 S
C1731 C1732 1.392 . S
C1731 C1735 1.495 1_554 S
C1732 C1731 1.392 . S
C1732 C1733 1.385 . S
C1732 C1734 1.478 . S
C1733 H1727 0.930 . S
C1733 C1729 1.400 . S
C1733 C1732 1.385 . S
C1734 C1732 1.478 . S
C1734 C1736 1.381 . S
C1734 C1740 1.383 . S
C1735 C1731 1.495 1_556 S
C1735 H1741 0.959 . S
C1735 H1742 0.961 1_556 S
C1735 H1743 0.960 . S
C1736 C1734 1.381 . S
C1736 C1737 1.394 . S
C1736 H1744 0.930 . S
C1737 C1736 1.394 . S
C1737 C1738 1.383 . S
C1737 H1745 0.929 . S
C1738 C1737 1.383 . S
C1738 C1739 1.377 . S
C1739 H1723 0.930 . S
C1739 C1738 1.377 . S
C1739 C1740 1.379 . S
C1740 H1724 0.931 . S
C1740 C1734 1.383 . S
C1740 C1739 1.379 . S
H1741 C1735 0.959 . S
H1742 C1735 0.961 1_554 S
H1743 C1735 0.960 . S
H1744 C1736 0.930 . S
H1745 C1737 0.929 . S
H1746 C1754 0.929 . S
H1747 C1756 0.930 . S
H1748 C1758 0.930 . S
H1749 C1761 0.929 . S
H1750 C1764 0.930 . S
H1751 C1766 0.960 . S
H1752 C1766 0.960 . S
H1753 C1766 0.960 1_554 S
C1754 H1746 0.929 . S
C1754 C1755 1.377 . S
C1754 C1756 1.384 . S
C1755 C1754 1.377 . S
C1755 C1761 1.390 . S
C1756 H1747 0.930 . S
C1756 C1754 1.384 . S
C1756 C1757 1.372 . S
C1757 C1756 1.372 . S
C1757 C1758 1.400 . S
C1757 C1762 1.490 . S
C1758 H1748 0.930 . S
C1758 C1757 1.400 . S
C1758 C1761 1.386 . S
H1759 C1775 0.930 . S
H1760 C1776 0.931 . S
C1761 H1749 0.929 . S
C1761 C1755 1.390 . S
C1761 C1758 1.386 . S
C1762 C1757 1.490 . S
C1762 C1764 1.395 . S
C1762 C1765 1.403 . S
H1763 C1769 0.930 1_556 S
C1764 H1750 0.930 . S
C1764 C1762 1.395 . S
C1764 C1767 1.403 . S
C1765 C1762 1.403 . S
C1765 C1766 1.524 1_554 S
C1765 C1769 1.400 . S
C1766 H1751 0.960 . S
C1766 H1752 0.960 . S
C1766 H1753 0.960 1_556 S
C1766 C1765 1.524 1_556 S
C1767 C1764 1.403 . S
C1767 C1768 1.392 . S
C1767 C1771 1.495 . S
C1768 C1767 1.392 . S
C1768 C1769 1.385 . S
C1768 C1770 1.478 . S
C1769 H1763 0.930 1_554 S
C1769 C1765 1.400 . S
C1769 C1768 1.385 . S
C1770 C1768 1.478 . S
C1770 C1772 1.381 1_554 S
C1770 C1776 1.383 . S
C1771 C1767 1.495 . S
C1771 H1777 0.959 . S
C1771 H1778 0.961 . S
C1771 H1779 0.960 . S
C1772 C1770 1.381 1_556 S
C1772 C1773 1.394 . S
C1772 H1780 0.930 . S
C1773 C1772 1.394 . S
C1773 C1774 1.383 . S
C1773 H1781 0.929 . S
C1774 C1773 1.383 . S
C1774 C1775 1.377 . S
C1775 H1759 0.930 . S
C1775 C1774 1.377 . S
C1775 C1776 1.379 1_556 S
C1776 H1760 0.931 . S
C1776 C1770 1.383 . S
C1776 C1775 1.379 1_554 S
H1777 C1771 0.959 . S
H1778 C1771 0.961 . S
H1779 C1771 0.960 . S
H1780 C1772 0.930 . S
H1781 C1773 0.929 . S
H1782 C1790 0.929 . S
H1783 C1792 0.930 . S
H1784 C1794 0.930 . S
H1785 C1797 0.929 . S
H1786 C1800 0.930 . S
H1787 C1802 0.960 . S
H1788 C1802 0.960 . S
H1789 C1802 0.960 . S
C1790 H1782 0.929 . S
C1790 C1791 1.377 . S
C1790 C1792 1.384 . S
C1791 C1790 1.377 . S
C1791 C1797 1.390 . S
C1792 H1783 0.930 . S
C1792 C1790 1.384 . S
C1792 C1793 1.372 . S
C1793 C1792 1.372 . S
C1793 C1794 1.400 . S
C1793 C1798 1.490 . S
C1794 H1784 0.930 . S
C1794 C1793 1.400 . S
C1794 C1797 1.386 . S
H1795 C1811 0.930 . S
H1796 C1812 0.931 . S
C1797 H1785 0.929 . S
C1797 C1791 1.390 . S
C1797 C1794 1.386 . S
C1798 C1793 1.490 . S
C1798 C1800 1.395 . S
C1798 C1801 1.403 . S
H1799 C1805 0.930 . S
C1800 H1786 0.930 . S
C1800 C1798 1.395 . S
C1800 C1803 1.403 . S
C1801 C1798 1.403 . S
C1801 C1802 1.524 . S
C1801 C1805 1.400 . S
C1802 H1787 0.960 . S
C1802 H1788 0.960 . S
C1802 H1789 0.960 . S
C1802 C1801 1.524 . S
C1803 C1800 1.403 . S
C1803 C1804 1.392 . S
C1803 C1807 1.495 . S
C1804 C1803 1.392 . S
C1804 C1805 1.385 . S
C1804 C1806 1.478 . S
C1805 H1799 0.930 . S
C1805 C1801 1.400 . S
C1805 C1804 1.385 . S
C1806 C1804 1.478 . S
C1806 C1808 1.381 . S
C1806 C1812 1.383 . S
C1807 C1803 1.495 . S
C1807 H1813 0.959 . S
C1807 H1814 0.961 . S
C1807 H1815 0.960 . S
C1808 C1806 1.381 . S
C1808 C1809 1.394 . S
C1808 H1816 0.930 . S
C1809 C1808 1.394 . S
C1809 C1810 1.383 . S
C1809 H1817 0.929 . S
C1810 C1809 1.383 . S
C1810 C1811 1.377 . S
C1811 H1795 0.930 . S
C1811 C1810 1.377 . S
C1811 C1812 1.379 . S
C1812 H1796 0.931 . S
C1812 C1806 1.383 . S
C1812 C1811 1.379 . S
H1813 C1807 0.959 . S
H1814 C1807 0.961 . S
H1815 C1807 0.960 . S
H1816 C1808 0.930 . S
H1817 C1809 0.929 . S
H1818 C1826 0.929 . S
H1819 C1828 0.930 . S
H1820 C1830 0.930 . S
H1821 C1833 0.929 . S
H1822 C1836 0.930 . S
H1823 C1838 0.960 . S
H1824 C1838 0.960 . S
H1825 C1838 0.960 . S
C1826 H1818 0.929 . S
C1826 C1827 1.377 . S
C1826 C1828 1.384 . S
C1827 C1826 1.377 . S
C1827 C1833 1.390 . S
C1828 H1819 0.930 . S
C1828 C1826 1.384 . S
C1828 C1829 1.372 . S
C1829 C1828 1.372 . S
C1829 C1830 1.400 . S
C1829 C1834 1.490 . S
C1830 H1820 0.930 . S
C1830 C1829 1.400 . S
C1830 C1833 1.386 . S
H1831 C1847 0.930 . S
H1832 C1848 0.931 . S
C1833 H1821 0.929 . S
C1833 C1827 1.390 . S
C1833 C1830 1.386 . S
C1834 C1829 1.490 . S
C1834 C1836 1.395 . S
C1834 C1837 1.403 . S
H1835 C1841 0.930 . S
C1836 H1822 0.930 . S
C1836 C1834 1.395 . S
C1836 C1839 1.403 . S
C1837 C1834 1.403 . S
C1837 C1838 1.524 . S
C1837 C1841 1.400 . S
C1838 H1823 0.960 . S
C1838 H1824 0.960 . S
C1838 H1825 0.960 . S
C1838 C1837 1.524 . S
C1839 C1836 1.403 . S
C1839 C1840 1.392 . S
C1839 C1843 1.495 . S
C1840 C1839 1.392 . S
C1840 C1841 1.385 . S
C1840 C1842 1.478 . S
C1841 H1835 0.930 . S
C1841 C1837 1.400 . S
C1841 C1840 1.385 . S
C1842 C1840 1.478 . S
C1842 C1844 1.381 . S
C1842 C1848 1.383 . S
C1843 C1839 1.495 . S
C1843 H1849 0.959 . S
C1843 H1850 0.961 . S
C1843 H1851 0.960 . S
C1844 C1842 1.381 . S
C1844 C1845 1.394 . S
C1844 H1852 0.930 . S
C1845 C1844 1.394 . S
C1845 C1846 1.383 . S
C1845 H1853 0.929 . S
C1846 C1845 1.383 . S
C1846 C1847 1.377 . S
C1847 H1831 0.930 . S
C1847 C1846 1.377 . S
C1847 C1848 1.379 . S
C1848 H1832 0.931 . S
C1848 C1842 1.383 . S
C1848 C1847 1.379 . S
H1849 C1843 0.959 . S
H1850 C1843 0.961 . S
H1851 C1843 0.960 . S
H1852 C1844 0.930 . S
H1853 C1845 0.929 . S
H1854 C1862 0.929 . S
H1855 C1864 0.930 . S
H1856 C1866 0.930 . S
H1857 C1869 0.929 . S
H1858 C1872 0.930 . S
H1859 C1874 0.960 . S
H1860 C1874 0.960 . S
H1861 C1874 0.960 . S
C1862 H1854 0.929 . S
C1862 C1863 1.377 . S
C1862 C1864 1.384 . S
C1863 C1862 1.377 . S
C1863 C1869 1.390 . S
C1864 H1855 0.930 . S
C1864 C1862 1.384 . S
C1864 C1865 1.372 . S
C1865 C1864 1.372 . S
C1865 C1866 1.400 . S
C1865 C1870 1.490 . S
C1866 H1856 0.930 . S
C1866 C1865 1.400 . S
C1866 C1869 1.386 . S
H1867 C1883 0.930 . S
H1868 C1884 0.931 . S
C1869 H1857 0.929 . S
C1869 C1863 1.390 . S
C1869 C1866 1.386 . S
C1870 C1865 1.490 . S
C1870 C1872 1.395 . S
C1870 C1873 1.403 . S
H1871 C1877 0.930 . S
C1872 H1858 0.930 . S
C1872 C1870 1.395 . S
C1872 C1875 1.403 . S
C1873 C1870 1.403 . S
C1873 C1874 1.524 . S
C1873 C1877 1.400 . S
C1874 H1859 0.960 . S
C1874 H1860 0.960 . S
C1874 H1861 0.960 . S
C1874 C1873 1.524 . S
C1875 C1872 1.403 . S
C1875 C1876 1.392 . S
C1875 C1879 1.495 . S
C1876 C1875 1.392 . S
C1876 C1877 1.385 . S
C1876 C1878 1.478 . S
C1877 H1871 0.930 . S
C1877 C1873 1.400 . S
C1877 C1876 1.385 . S
C1878 C1876 1.478 . S
C1878 C1880 1.381 . S
C1878 C1884 1.383 . S
C1879 C1875 1.495 . S
C1879 H1885 0.959 . S
C1879 H1886 0.961 . S
C1879 H1887 0.960 . S
C1880 C1878 1.381 . S
C1880 C1881 1.394 . S
C1880 H1888 0.930 . S
C1881 C1880 1.394 . S
C1881 C1882 1.383 . S
C1881 H1889 0.929 . S
C1882 C1881 1.383 . S
C1882 C1883 1.377 . S
C1883 H1867 0.930 . S
C1883 C1882 1.377 . S
C1883 C1884 1.379 . S
C1884 H1868 0.931 . S
C1884 C1878 1.383 . S
C1884 C1883 1.379 . S
H1885 C1879 0.959 . S
H1886 C1879 0.961 . S
H1887 C1879 0.960 . S
H1888 C1880 0.930 . S
H1889 C1881 0.929 . S
H1890 C1898 0.929 . S
H1891 C1900 0.930 . S
H1892 C1902 0.930 . S
H1893 C1905 0.929 . S
H1894 C1908 0.930 . S
H1895 C1910 0.960 . S
H1896 C1910 0.960 . S
H1897 C1910 0.960 . S
C1898 H1890 0.929 . S
C1898 C1899 1.377 . S
C1898 C1900 1.384 . S
C1899 C1898 1.377 . S
C1899 C1905 1.390 . S
C1900 H1891 0.930 . S
C1900 C1898 1.384 . S
C1900 C1901 1.372 . S
C1901 C1900 1.372 . S
C1901 C1902 1.400 . S
C1901 C1906 1.490 . S
C1902 H1892 0.930 . S
C1902 C1901 1.400 . S
C1902 C1905 1.386 . S
H1903 C1919 0.930 . S
H1904 C1920 0.931 . S
C1905 H1893 0.929 . S
C1905 C1899 1.390 . S
C1905 C1902 1.386 . S
C1906 C1901 1.490 . S
C1906 C1908 1.395 . S
C1906 C1909 1.403 . S
H1907 C1913 0.930 . S
C1908 H1894 0.930 . S
C1908 C1906 1.395 . S
C1908 C1911 1.403 . S
C1909 C1906 1.403 . S
C1909 C1910 1.524 . S
C1909 C1913 1.400 . S
C1910 H1895 0.960 . S
C1910 H1896 0.960 . S
C1910 H1897 0.960 . S
C1910 C1909 1.524 . S
C1911 C1908 1.403 . S
C1911 C1912 1.392 . S
C1911 C1915 1.495 . S
C1912 C1911 1.392 . S
C1912 C1913 1.385 . S
C1912 C1914 1.478 . S
C1913 H1907 0.930 . S
C1913 C1909 1.400 . S
C1913 C1912 1.385 . S
C1914 C1912 1.478 . S
C1914 C1916 1.381 . S
C1914 C1920 1.383 . S
C1915 C1911 1.495 . S
C1915 H1921 0.959 . S
C1915 H1922 0.961 . S
C1915 H1923 0.960 . S
C1916 C1914 1.381 . S
C1916 C1917 1.394 . S
C1916 H1924 0.930 . S
C1917 C1916 1.394 . S
C1917 C1918 1.383 . S
C1917 H1925 0.929 . S
C1918 C1917 1.383 . S
C1918 C1919 1.377 . S
C1919 H1903 0.930 . S
C1919 C1918 1.377 . S
C1919 C1920 1.379 . S
C1920 H1904 0.931 . S
C1920 C1914 1.383 . S
C1920 C1919 1.379 . S
H1921 C1915 0.959 . S
H1922 C1915 0.961 . S
H1923 C1915 0.960 . S
H1924 C1916 0.930 . S
H1925 C1917 0.929 . S
H1926 C1934 0.929 . S
H1927 C1936 0.930 . S
H1928 C1938 0.930 . S
H1929 C1941 0.929 . S
H1930 C1944 0.930 . S
H1931 C1946 0.960 . S
H1932 C1946 0.960 . S
H1933 C1946 0.960 . S
C1934 H1926 0.929 . S
C1934 C1935 1.377 . S
C1934 C1936 1.384 . S
C1935 C1934 1.377 . S
C1935 C1941 1.390 . S
C1936 H1927 0.930 . S
C1936 C1934 1.384 . S
C1936 C1937 1.372 . S
C1937 C1936 1.372 . S
C1937 C1938 1.400 . S
C1937 C1942 1.490 . S
C1938 H1928 0.930 . S
C1938 C1937 1.400 . S
C1938 C1941 1.386 . S
H1939 C1955 0.930 . S
H1940 C1956 0.931 . S
C1941 H1929 0.929 . S
C1941 C1935 1.390 . S
C1941 C1938 1.386 . S
C1942 C1937 1.490 . S
C1942 C1944 1.395 . S
C1942 C1945 1.403 . S
H1943 C1949 0.930 . S
C1944 H1930 0.930 . S
C1944 C1942 1.395 . S
C1944 C1947 1.403 . S
C1945 C1942 1.403 . S
C1945 C1946 1.524 . S
C1945 C1949 1.400 . S
C1946 H1931 0.960 . S
C1946 H1932 0.960 . S
C1946 H1933 0.960 . S
C1946 C1945 1.524 . S
C1947 C1944 1.403 . S
C1947 C1948 1.392 . S
C1947 C1951 1.495 . S
C1948 C1947 1.392 . S
C1948 C1949 1.385 . S
C1948 C1950 1.478 . S
C1949 H1943 0.930 . S
C1949 C1945 1.400 . S
C1949 C1948 1.385 . S
C1950 C1948 1.478 . S
C1950 C1952 1.381 . S
C1950 C1956 1.383 . S
C1951 C1947 1.495 . S
C1951 H1957 0.959 . S
C1951 H1958 0.961 . S
C1951 H1959 0.960 . S
C1952 C1950 1.381 . S
C1952 C1953 1.394 . S
C1952 H1960 0.930 . S
C1953 C1952 1.394 . S
C1953 C1954 1.383 . S
C1953 H1961 0.929 . S
C1954 C1953 1.383 . S
C1954 C1955 1.377 . S
C1955 H1939 0.930 . S
C1955 C1954 1.377 . S
C1955 C1956 1.379 . S
C1956 H1940 0.931 . S
C1956 C1950 1.383 . S
C1956 C1955 1.379 . S
H1957 C1951 0.959 . S
H1958 C1951 0.961 . S
H1959 C1951 0.960 . S
H1960 C1952 0.930 . S
H1961 C1953 0.929 . S
H1962 C1970 0.929 . S
H1963 C1972 0.930 . S
H1964 C1974 0.930 . S
H1965 C1977 0.929 . S
H1966 C1980 0.930 . S
H1967 C1982 0.960 . S
H1968 C1982 0.960 . S
H1969 C1982 0.960 . S
C1970 H1962 0.929 . S
C1970 C1971 1.377 . S
C1970 C1972 1.384 . S
C1971 C1970 1.377 . S
C1971 C1977 1.390 . S
C1972 H1963 0.930 . S
C1972 C1970 1.384 . S
C1972 C1973 1.372 . S
C1973 C1972 1.372 . S
C1973 C1974 1.400 . S
C1973 C1978 1.490 . S
C1974 H1964 0.930 . S
C1974 C1973 1.400 . S
C1974 C1977 1.386 . S
H1975 C1991 0.930 . S
H1976 C1992 0.931 . S
C1977 H1965 0.929 . S
C1977 C1971 1.390 . S
C1977 C1974 1.386 . S
C1978 C1973 1.490 . S
C1978 C1980 1.395 . S
C1978 C1981 1.403 . S
H1979 C1985 0.930 . S
C1980 H1966 0.930 . S
C1980 C1978 1.395 . S
C1980 C1983 1.403 . S
C1981 C1978 1.403 . S
C1981 C1982 1.524 . S
C1981 C1985 1.400 . S
C1982 H1967 0.960 . S
C1982 H1968 0.960 . S
C1982 H1969 0.960 . S
C1982 C1981 1.524 . S
C1983 C1980 1.403 . S
C1983 C1984 1.392 . S
C1983 C1987 1.495 . S
C1984 C1983 1.392 . S
C1984 C1985 1.385 . S
C1984 C1986 1.478 . S
C1985 H1979 0.930 . S
C1985 C1981 1.400 . S
C1985 C1984 1.385 . S
C1986 C1984 1.478 . S
C1986 C1988 1.381 . S
C1986 C1992 1.383 . S
C1987 C1983 1.495 . S
C1987 H1993 0.959 . S
C1987 H1994 0.961 . S
C1987 H1995 0.960 . S
C1988 C1986 1.381 . S
C1988 C1989 1.394 . S
C1988 H1996 0.930 . S
C1989 C1988 1.394 . S
C1989 C1990 1.383 . S
C1989 H1997 0.929 . S
C1990 C1989 1.383 . S
C1990 C1991 1.377 . S
C1991 H1975 0.930 . S
C1991 C1990 1.377 . S
C1991 C1992 1.379 . S
C1992 H1976 0.931 . S
C1992 C1986 1.383 . S
C1992 C1991 1.379 . S
H1993 C1987 0.959 . S
H1994 C1987 0.961 . S
H1995 C1987 0.960 . S
H1996 C1988 0.930 . S
H1997 C1989 0.929 . S
H1998 C2006 0.929 . S
H1999 C2008 0.930 . S
H2000 C2010 0.930 . S
H2001 C2013 0.929 . S
H2002 C2016 0.930 . S
H2003 C2018 0.960 . S
H2004 C2018 0.960 . S
H2005 C2018 0.960 . S
C2006 H1998 0.929 . S
C2006 C2007 1.377 . S
C2006 C2008 1.384 . S
C2007 C2006 1.377 . S
C2007 C2013 1.390 . S
C2008 H1999 0.930 . S
C2008 C2006 1.384 . S
C2008 C2009 1.372 . S
C2009 C2008 1.372 . S
C2009 C2010 1.400 . S
C2009 C2014 1.490 . S
C2010 H2000 0.930 . S
C2010 C2009 1.400 . S
C2010 C2013 1.386 . S
H2011 C2027 0.930 . S
H2012 C2028 0.931 . S
C2013 H2001 0.929 . S
C2013 C2007 1.390 . S
C2013 C2010 1.386 . S
C2014 C2009 1.490 . S
C2014 C2016 1.395 . S
C2014 C2017 1.403 . S
H2015 C2021 0.930 . S
C2016 H2002 0.930 . S
C2016 C2014 1.395 . S
C2016 C2019 1.403 . S
C2017 C2014 1.403 . S
C2017 C2018 1.524 . S
C2017 C2021 1.400 . S
C2018 H2003 0.960 . S
C2018 H2004 0.960 . S
C2018 H2005 0.960 . S
C2018 C2017 1.524 . S
C2019 C2016 1.403 . S
C2019 C2020 1.392 . S
C2019 C2023 1.495 . S
C2020 C2019 1.392 . S
C2020 C2021 1.385 . S
C2020 C2022 1.478 . S
C2021 H2015 0.930 . S
C2021 C2017 1.400 . S
C2021 C2020 1.385 . S
C2022 C2020 1.478 . S
C2022 C2024 1.381 . S
C2022 C2028 1.383 . S
C2023 C2019 1.495 . S
C2023 H2029 0.959 . S
C2023 H2030 0.961 . S
C2023 H2031 0.960 . S
C2024 C2022 1.381 . S
C2024 C2025 1.394 . S
C2024 H2032 0.930 . S
C2025 C2024 1.394 . S
C2025 C2026 1.383 . S
C2025 H2033 0.929 . S
C2026 C2025 1.383 . S
C2026 C2027 1.377 . S
C2027 H2011 0.930 . S
C2027 C2026 1.377 . S
C2027 C2028 1.379 . S
C2028 H2012 0.931 . S
C2028 C2022 1.383 . S
C2028 C2027 1.379 . S
H2029 C2023 0.959 . S
H2030 C2023 0.961 . S
H2031 C2023 0.960 . S
H2032 C2024 0.930 . S
H2033 C2025 0.929 . S
H2034 C2042 0.929 . S
H2035 C2044 0.930 . S
H2036 C2046 0.930 . S
H2037 C2049 0.929 . S
H2038 C2052 0.930 . S
H2039 C2054 0.960 . S
H2040 C2054 0.960 . S
H2041 C2054 0.960 . S
C2042 H2034 0.929 . S
C2042 C2043 1.377 . S
C2042 C2044 1.384 . S
C2043 C2042 1.377 . S
C2043 C2049 1.390 . S
C2044 H2035 0.930 . S
C2044 C2042 1.384 . S
C2044 C2045 1.372 . S
C2045 C2044 1.372 . S
C2045 C2046 1.400 . S
C2045 C2050 1.490 . S
C2046 H2036 0.930 . S
C2046 C2045 1.400 . S
C2046 C2049 1.386 . S
H2047 C2063 0.930 . S
H2048 C2064 0.931 . S
C2049 H2037 0.929 . S
C2049 C2043 1.390 . S
C2049 C2046 1.386 . S
C2050 C2045 1.490 . S
C2050 C2052 1.395 . S
C2050 C2053 1.403 . S
H2051 C2057 0.930 . S
C2052 H2038 0.930 . S
C2052 C2050 1.395 . S
C2052 C2055 1.403 . S
C2053 C2050 1.403 . S
C2053 C2054 1.524 . S
C2053 C2057 1.400 . S
C2054 H2039 0.960 . S
C2054 H2040 0.960 . S
C2054 H2041 0.960 . S
C2054 C2053 1.524 . S
C2055 C2052 1.403 . S
C2055 C2056 1.392 . S
C2055 C2059 1.495 . S
C2056 C2055 1.392 . S
C2056 C2057 1.385 . S
C2056 C2058 1.478 . S
C2057 H2051 0.930 . S
C2057 C2053 1.400 . S
C2057 C2056 1.385 . S
C2058 C2056 1.478 . S
C2058 C2060 1.381 . S
C2058 C2064 1.383 . S
C2059 C2055 1.495 . S
C2059 H2065 0.959 . S
C2059 H2066 0.961 . S
C2059 H2067 0.960 . S
C2060 C2058 1.381 . S
C2060 C2061 1.394 . S
C2060 H2068 0.930 . S
C2061 C2060 1.394 . S
C2061 C2062 1.383 . S
C2061 H2069 0.929 . S
C2062 C2061 1.383 . S
C2062 C2063 1.377 . S
C2063 H2047 0.930 . S
C2063 C2062 1.377 . S
C2063 C2064 1.379 . S
C2064 H2048 0.931 . S
C2064 C2058 1.383 . S
C2064 C2063 1.379 . S
H2065 C2059 0.959 . S
H2066 C2059 0.961 . S
H2067 C2059 0.960 . S
H2068 C2060 0.930 . S
H2069 C2061 0.929 . S
H2070 C2078 0.929 . S
H2071 C2080 0.930 . S
H2072 C2082 0.930 . S
H2073 C2085 0.929 . S
H2074 C2088 0.930 . S
H2075 C2090 0.960 . S
H2076 C2090 0.960 . S
H2077 C2090 0.960 . S
C2078 H2070 0.929 . S
C2078 C2079 1.377 . S
C2078 C2080 1.384 . S
C2079 C2078 1.377 . S
C2079 C2085 1.390 . S
C2080 H2071 0.930 . S
C2080 C2078 1.384 . S
C2080 C2081 1.372 . S
C2081 C2080 1.372 . S
C2081 C2082 1.400 . S
C2081 C2086 1.490 . S
C2082 H2072 0.930 . S
C2082 C2081 1.400 . S
C2082 C2085 1.386 . S
H2083 C2099 0.930 . S
H2084 C2100 0.931 . S
C2085 H2073 0.929 . S
C2085 C2079 1.390 . S
C2085 C2082 1.386 . S
C2086 C2081 1.490 . S
C2086 C2088 1.395 . S
C2086 C2089 1.403 . S
H2087 C2093 0.930 . S
C2088 H2074 0.930 . S
C2088 C2086 1.395 . S
C2088 C2091 1.403 . S
C2089 C2086 1.403 . S
C2089 C2090 1.524 . S
C2089 C2093 1.400 . S
C2090 H2075 0.960 . S
C2090 H2076 0.960 . S
C2090 H2077 0.960 . S
C2090 C2089 1.524 . S
C2091 C2088 1.403 . S
C2091 C2092 1.392 . S
C2091 C2095 1.495 . S
C2092 C2091 1.392 . S
C2092 C2093 1.385 . S
C2092 C2094 1.478 . S
C2093 H2087 0.930 . S
C2093 C2089 1.400 . S
C2093 C2092 1.385 . S
C2094 C2092 1.478 . S
C2094 C2096 1.381 . S
C2094 C2100 1.383 . S
C2095 C2091 1.495 . S
C2095 H2101 0.959 . S
C2095 H2102 0.961 . S
C2095 H2103 0.960 . S
C2096 C2094 1.381 . S
C2096 C2097 1.394 . S
C2096 H2104 0.930 . S
C2097 C2096 1.394 . S
C2097 C2098 1.383 . S
C2097 H2105 0.929 . S
C2098 C2097 1.383 . S
C2098 C2099 1.377 . S
C2099 H2083 0.930 . S
C2099 C2098 1.377 . S
C2099 C2100 1.379 . S
C2100 H2084 0.931 . S
C2100 C2094 1.383 . S
C2100 C2099 1.379 . S
H2101 C2095 0.959 . S
H2102 C2095 0.961 . S
H2103 C2095 0.960 . S
H2104 C2096 0.930 . S
H2105 C2097 0.929 . S
H2106 C2114 0.929 . S
H2107 C2116 0.930 . S
H2108 C2118 0.930 . S
H2109 C2121 0.929 . S
H2110 C2124 0.930 . S
H2111 C2126 0.960 . S
H2112 C2126 0.960 . S
H2113 C2126 0.960 . S
C2114 H2106 0.929 . S
C2114 C2115 1.377 . S
C2114 C2116 1.384 . S
C2115 C2114 1.377 . S
C2115 C2121 1.390 . S
C2116 H2107 0.930 . S
C2116 C2114 1.384 . S
C2116 C2117 1.372 . S
C2117 C2116 1.372 . S
C2117 C2118 1.400 . S
C2117 C2122 1.490 . S
C2118 H2108 0.930 . S
C2118 C2117 1.400 . S
C2118 C2121 1.386 . S
H2119 C2135 0.930 . S
H2120 C2136 0.931 . S
C2121 H2109 0.929 . S
C2121 C2115 1.390 . S
C2121 C2118 1.386 . S
C2122 C2117 1.490 . S
C2122 C2124 1.395 . S
C2122 C2125 1.403 . S
H2123 C2129 0.930 . S
C2124 H2110 0.930 . S
C2124 C2122 1.395 . S
C2124 C2127 1.403 . S
C2125 C2122 1.403 . S
C2125 C2126 1.524 . S
C2125 C2129 1.400 . S
C2126 H2111 0.960 . S
C2126 H2112 0.960 . S
C2126 H2113 0.960 . S
C2126 C2125 1.524 . S
C2127 C2124 1.403 . S
C2127 C2128 1.392 . S
C2127 C2131 1.495 . S
C2128 C2127 1.392 . S
C2128 C2129 1.385 . S
C2128 C2130 1.478 . S
C2129 H2123 0.930 . S
C2129 C2125 1.400 . S
C2129 C2128 1.385 . S
C2130 C2128 1.478 . S
C2130 C2132 1.381 . S
C2130 C2136 1.383 . S
C2131 C2127 1.495 . S
C2131 H2137 0.959 . S
C2131 H2138 0.961 . S
C2131 H2139 0.960 . S
C2132 C2130 1.381 . S
C2132 C2133 1.394 . S
C2132 H2140 0.930 . S
C2133 C2132 1.394 . S
C2133 C2134 1.383 . S
C2133 H2141 0.929 . S
C2134 C2133 1.383 . S
C2134 C2135 1.377 . S
C2135 H2119 0.930 . S
C2135 C2134 1.377 . S
C2135 C2136 1.379 . S
C2136 H2120 0.931 . S
C2136 C2130 1.383 . S
C2136 C2135 1.379 . S
H2137 C2131 0.959 . S
H2138 C2131 0.961 . S
H2139 C2131 0.960 . S
H2140 C2132 0.930 . S
H2141 C2133 0.929 . S
H2142 C2150 0.929 . S
H2143 C2152 0.930 . S
H2144 C2154 0.930 . S
H2145 C2157 0.929 . S
H2146 C2160 0.930 . S
H2147 C2162 0.960 . S
H2148 C2162 0.960 . S
H2149 C2162 0.960 . S
C2150 H2142 0.929 . S
C2150 C2151 1.377 . S
C2150 C2152 1.384 . S
C2151 C2150 1.377 . S
C2151 C2157 1.390 . S
C2152 H2143 0.930 . S
C2152 C2150 1.384 . S
C2152 C2153 1.372 . S
C2153 C2152 1.372 . S
C2153 C2154 1.400 . S
C2153 C2158 1.490 . S
C2154 H2144 0.930 . S
C2154 C2153 1.400 . S
C2154 C2157 1.386 . S
H2155 C2171 0.930 . S
H2156 C2172 0.931 . S
C2157 H2145 0.929 . S
C2157 C2151 1.390 . S
C2157 C2154 1.386 . S
C2158 C2153 1.490 . S
C2158 C2160 1.395 . S
C2158 C2161 1.403 . S
H2159 C2165 0.930 . S
C2160 H2146 0.930 . S
C2160 C2158 1.395 . S
C2160 C2163 1.403 . S
C2161 C2158 1.403 . S
C2161 C2162 1.524 . S
C2161 C2165 1.400 . S
C2162 H2147 0.960 . S
C2162 H2148 0.960 . S
C2162 H2149 0.960 . S
C2162 C2161 1.524 . S
C2163 C2160 1.403 . S
C2163 C2164 1.392 . S
C2163 C2167 1.495 . S
C2164 C2163 1.392 . S
C2164 C2165 1.385 . S
C2164 C2166 1.478 . S
C2165 H2159 0.930 . S
C2165 C2161 1.400 . S
C2165 C2164 1.385 . S
C2166 C2164 1.478 . S
C2166 C2168 1.381 . S
C2166 C2172 1.383 . S
C2167 C2163 1.495 . S
C2167 H2173 0.959 . S
C2167 H2174 0.961 . S
C2167 H2175 0.960 . S
C2168 C2166 1.381 . S
C2168 C2169 1.394 . S
C2168 H2176 0.930 . S
C2169 C2168 1.394 . S
C2169 C2170 1.383 . S
C2169 H2177 0.929 . S
C2170 C2169 1.383 . S
C2170 C2171 1.377 . S
C2171 H2155 0.930 . S
C2171 C2170 1.377 . S
C2171 C2172 1.379 . S
C2172 H2156 0.931 . S
C2172 C2166 1.383 . S
C2172 C2171 1.379 . S
H2173 C2167 0.959 . S
H2174 C2167 0.961 . S
H2175 C2167 0.960 . S
H2176 C2168 0.930 . S
H2177 C2169 0.929 . S
H2178 C2186 0.929 . S
H2179 C2188 0.930 . S
H2180 C2190 0.930 . S
H2181 C2193 0.929 . S
H2182 C2196 0.930 . S
H2183 C2198 0.960 . S
H2184 C2198 0.960 . S
H2185 C2198 0.960 . S
C2186 H2178 0.929 . S
C2186 C2187 1.377 . S
C2186 C2188 1.384 . S
C2187 C2186 1.377 . S
C2187 C2193 1.390 . S
C2188 H2179 0.930 . S
C2188 C2186 1.384 . S
C2188 C2189 1.372 . S
C2189 C2188 1.372 . S
C2189 C2190 1.400 . S
C2189 C2194 1.490 . S
C2190 H2180 0.930 . S
C2190 C2189 1.400 . S
C2190 C2193 1.386 . S
H2191 C2207 0.930 . S
H2192 C2208 0.931 . S
C2193 H2181 0.929 . S
C2193 C2187 1.390 . S
C2193 C2190 1.386 . S
C2194 C2189 1.490 . S
C2194 C2196 1.395 . S
C2194 C2197 1.403 . S
H2195 C2201 0.930 . S
C2196 H2182 0.930 . S
C2196 C2194 1.395 . S
C2196 C2199 1.403 . S
C2197 C2194 1.403 . S
C2197 C2198 1.524 . S
C2197 C2201 1.400 . S
C2198 H2183 0.960 . S
C2198 H2184 0.960 . S
C2198 H2185 0.960 . S
C2198 C2197 1.524 . S
C2199 C2196 1.403 . S
C2199 C2200 1.392 . S
C2199 C2203 1.495 . S
C2200 C2199 1.392 . S
C2200 C2201 1.385 . S
C2200 C2202 1.478 . S
C2201 H2195 0.930 . S
C2201 C2197 1.400 . S
C2201 C2200 1.385 . S
C2202 C2200 1.478 . S
C2202 C2204 1.381 . S
C2202 C2208 1.383 . S
C2203 C2199 1.495 . S
C2203 H2209 0.959 . S
C2203 H2210 0.961 . S
C2203 H2211 0.960 . S
C2204 C2202 1.381 . S
C2204 C2205 1.394 . S
C2204 H2212 0.930 . S
C2205 C2204 1.394 . S
C2205 C2206 1.383 . S
C2205 H2213 0.929 . S
C2206 C2205 1.383 . S
C2206 C2207 1.377 . S
C2207 H2191 0.930 . S
C2207 C2206 1.377 . S
C2207 C2208 1.379 . S
C2208 H2192 0.931 . S
C2208 C2202 1.383 . S
C2208 C2207 1.379 . S
H2209 C2203 0.959 . S
H2210 C2203 0.961 . S
H2211 C2203 0.960 . S
H2212 C2204 0.930 . S
H2213 C2205 0.929 . S
C603 C28 0.807 . S
C622 C248 0.815 . S
C639 C61 0.816 . S
C658 C281 0.832 . S
C675 C94 0.809 . S
C694 C215 0.820 . S
C711 C545 0.818 . S
C730 C127 0.844 . S
C747 C160 0.808 . S
C766 C578 0.829 . S
C783 C193 0.821 . S
C802 C512 0.810 . S
C819 C226 0.823 . S
C838 C446 0.830 . S
C855 C479 0.820 . S
C874 C259 0.784 . S
C891 C413 0.817 . S
C910 C292 0.776 . S
C927 C325 0.807 . S
C946 C149 0.833 . S
C963 C358 0.819 . S
C982 C182 0.812 . S
C999 C391 0.817 . S
C1018 C116 0.816 . S
C1035 C424 0.822 . S
C1054 C50 0.827 . S
C1071 C457 0.813 . S
C1090 C83 0.828 . S
C1107 C17 0.819 . S
C1126 C490 0.775 . S
C1143 C347 0.819 . S
C1162 C523 0.819 . S
C1179 C556 0.808 . S
C1198 C380 0.828 . S
C1215 C589 0.809 . S
C1234 C314 0.827 . S
C1251 N509 1.803 . S
C1270 N14 1.819 . S
C1287 N542 1.808 . S
C1306 N47 1.807 . S
C1323 N80 1.805 . S
C1342 N575 1.822 . S
C1359 N113 1.808 . S
C1378 N212 1.802 . S
C1395 N146 1.808 . S
C1414 N245 1.804 . S
C1431 N278 1.807 . S
C1450 N179 1.805 . S
C1467 N311 1.805 . S
C1486 N410 1.823 . S
C1503 N443 1.806 . S
C1522 N344 1.791 . S
C1539 N476 1.799 . S
C1558 N377 1.807 . S
C1575 N5 1.475 . S
C1594 C140 1.492 . S
C1611 C173 1.470 . S
C1630 N38 1.469 1_545 S
C1647 N71 1.469 1_655 S
C1666 C107 1.478 . S
C1683 C41 1.479 . S
C1702 N104 1.494 . S
C1719 N137 1.470 1_565 S
C1738 C74 1.449 . S
C1755 C8 1.473 . S
C1774 N170 1.457 1_455 S
C1791 N203 1.474 . S
C1810 C338 1.449 . S
C1827 C371 1.479 . S
C1846 N236 1.455 . S
C1863 C305 1.474 . S
C1882 N269 1.450 . S
C1899 N302 1.477 . S
C1918 C239 1.491 . S
C1935 C272 1.479 . S
C1954 N335 1.494 . S
C1971 N368 1.474 . S
C1990 C206 1.462 . S
C2007 C536 1.474 . S
C2026 N401 1.493 . S
C2043 C569 1.479 . S
C2062 N434 1.471 . S
C2079 C503 1.479 . S
C2098 N467 1.465 . S
C2115 C437 1.477 . S
C2134 N500 1.487 . S
C2151 C470 1.473 . S
C2170 N533 1.455 . S
C2187 N566 1.478 . S
C2206 C404 1.487 . S
