# Generated by pormake.
# Topology wne, (6)-cn, num edge types: 1
# Building blocks:
#     Node 0, Type 0, BuildingBlock: OJICUG_clean_sbu_0, # of connection points: 6
#     Node 1, Type 0, BuildingBlock: OJICUG_clean_sbu_0, # of connection points: 6
#     Node 2, Type 0, BuildingBlock: OJICUG_clean_sbu_0, # of connection points: 6
#     Node 3, Type 0, BuildingBlock: OJICUG_clean_sbu_0, # of connection points: 6
#     Node 4, Type 0, BuildingBlock: OJICUG_clean_sbu_0, # of connection points: 6
#     Node 5, Type 0, BuildingBlock: OJICUG_clean_sbu_0, # of connection points: 6
#     Node 6, Type 0, BuildingBlock: OJICUG_clean_sbu_0, # of connection points: 6
#     Node 7, Type 0, BuildingBlock: OJICUG_clean_sbu_0, # of connection points: 6
#     Node 8, Type 0, BuildingBlock: OJICUG_clean_sbu_0, # of connection points: 6
#     Node 9, Type 0, BuildingBlock: OJICUG_clean_sbu_0, # of connection points: 6
#     Node 10, Type 0, BuildingBlock: OJICUG_clean_sbu_0, # of connection points: 6
#     Node 11, Type 0, BuildingBlock: OJICUG_clean_sbu_0, # of connection points: 6
#     Node 12, Type 0, BuildingBlock: OJICUG_clean_sbu_0, # of connection points: 6
#     Node 13, Type 0, BuildingBlock: OJICUG_clean_sbu_0, # of connection points: 6
#     Node 14, Type 0, BuildingBlock: OJICUG_clean_sbu_0, # of connection points: 6
#     Node 15, Type 0, BuildingBlock: OJICUG_clean_sbu_0, # of connection points: 6
#     Node 16, Type 0, BuildingBlock: OJICUG_clean_sbu_0, # of connection points: 6
#     Node 17, Type 0, BuildingBlock: OJICUG_clean_sbu_0, # of connection points: 6
#     Node 18, Type 0, BuildingBlock: OJICUG_clean_sbu_0, # of connection points: 6
#     Node 19, Type 0, BuildingBlock: OJICUG_clean_sbu_0, # of connection points: 6
#     Node 20, Type 0, BuildingBlock: OJICUG_clean_sbu_0, # of connection points: 6
#     Node 21, Type 0, BuildingBlock: OJICUG_clean_sbu_0, # of connection points: 6
#     Node 22, Type 0, BuildingBlock: OJICUG_clean_sbu_0, # of connection points: 6
#     Node 23, Type 0, BuildingBlock: OJICUG_clean_sbu_0, # of connection points: 6
#     Node 24, Type 0, BuildingBlock: OJICUG_clean_sbu_0, # of connection points: 6
#     Node 25, Type 0, BuildingBlock: OJICUG_clean_sbu_0, # of connection points: 6
#     Node 26, Type 0, BuildingBlock: OJICUG_clean_sbu_0, # of connection points: 6
#     Node 27, Type 0, BuildingBlock: OJICUG_clean_sbu_0, # of connection points: 6
#     Node 28, Type 0, BuildingBlock: OJICUG_clean_sbu_0, # of connection points: 6
#     Node 29, Type 0, BuildingBlock: OJICUG_clean_sbu_0, # of connection points: 6
#     Node 30, Type 0, BuildingBlock: OJICUG_clean_sbu_0, # of connection points: 6
#     Node 31, Type 0, BuildingBlock: OJICUG_clean_sbu_0, # of connection points: 6
#     Node 32, Type 0, BuildingBlock: OJICUG_clean_sbu_0, # of connection points: 6
#     Node 33, Type 0, BuildingBlock: OJICUG_clean_sbu_0, # of connection points: 6
#     Node 34, Type 0, BuildingBlock: OJICUG_clean_sbu_0, # of connection points: 6
#     Node 35, Type 0, BuildingBlock: OJICUG_clean_sbu_0, # of connection points: 6
#     Edge 36, Type (0, 0), BuildingBlock: OJICUG_clean_linker_0, # of connection points: 2
#     Edge 37, Type (0, 0), BuildingBlock: OJICUG_clean_linker_0, # of connection points: 2
#     Edge 38, Type (0, 0), BuildingBlock: OJICUG_clean_linker_0, # of connection points: 2
#     Edge 39, Type (0, 0), BuildingBlock: OJICUG_clean_linker_0, # of connection points: 2
#     Edge 40, Type (0, 0), BuildingBlock: OJICUG_clean_linker_0, # of connection points: 2
#     Edge 41, Type (0, 0), BuildingBlock: OJICUG_clean_linker_0, # of connection points: 2
#     Edge 42, Type (0, 0), BuildingBlock: OJICUG_clean_linker_0, # of connection points: 2
#     Edge 43, Type (0, 0), BuildingBlock: OJICUG_clean_linker_0, # of connection points: 2
#     Edge 44, Type (0, 0), BuildingBlock: OJICUG_clean_linker_0, # of connection points: 2
#     Edge 45, Type (0, 0), BuildingBlock: OJICUG_clean_linker_0, # of connection points: 2
#     Edge 46, Type (0, 0), BuildingBlock: OJICUG_clean_linker_0, # of connection points: 2
#     Edge 47, Type (0, 0), BuildingBlock: OJICUG_clean_linker_0, # of connection points: 2
#     Edge 48, Type (0, 0), BuildingBlock: OJICUG_clean_linker_0, # of connection points: 2
#     Edge 49, Type (0, 0), BuildingBlock: OJICUG_clean_linker_0, # of connection points: 2
#     Edge 50, Type (0, 0), BuildingBlock: OJICUG_clean_linker_0, # of connection points: 2
#     Edge 51, Type (0, 0), BuildingBlock: OJICUG_clean_linker_0, # of connection points: 2
#     Edge 52, Type (0, 0), BuildingBlock: OJICUG_clean_linker_0, # of connection points: 2
#     Edge 53, Type (0, 0), BuildingBlock: OJICUG_clean_linker_0, # of connection points: 2
#     Edge 54, Type (0, 0), BuildingBlock: OJICUG_clean_linker_0, # of connection points: 2
#     Edge 55, Type (0, 0), BuildingBlock: OJICUG_clean_linker_0, # of connection points: 2
#     Edge 56, Type (0, 0), BuildingBlock: OJICUG_clean_linker_0, # of connection points: 2
#     Edge 57, Type (0, 0), BuildingBlock: OJICUG_clean_linker_0, # of connection points: 2
#     Edge 58, Type (0, 0), BuildingBlock: OJICUG_clean_linker_0, # of connection points: 2
#     Edge 59, Type (0, 0), BuildingBlock: OJICUG_clean_linker_0, # of connection points: 2
#     Edge 60, Type (0, 0), BuildingBlock: OJICUG_clean_linker_0, # of connection points: 2
#     Edge 61, Type (0, 0), BuildingBlock: OJICUG_clean_linker_0, # of connection points: 2
#     Edge 62, Type (0, 0), BuildingBlock: OJICUG_clean_linker_0, # of connection points: 2
#     Edge 63, Type (0, 0), BuildingBlock: OJICUG_clean_linker_0, # of connection points: 2
#     Edge 64, Type (0, 0), BuildingBlock: OJICUG_clean_linker_0, # of connection points: 2
#     Edge 65, Type (0, 0), BuildingBlock: OJICUG_clean_linker_0, # of connection points: 2
#     Edge 66, Type (0, 0), BuildingBlock: OJICUG_clean_linker_0, # of connection points: 2
#     Edge 67, Type (0, 0), BuildingBlock: OJICUG_clean_linker_0, # of connection points: 2
#     Edge 68, Type (0, 0), BuildingBlock: OJICUG_clean_linker_0, # of connection points: 2
#     Edge 69, Type (0, 0), BuildingBlock: OJICUG_clean_linker_0, # of connection points: 2
#     Edge 70, Type (0, 0), BuildingBlock: OJICUG_clean_linker_0, # of connection points: 2
#     Edge 71, Type (0, 0), BuildingBlock: OJICUG_clean_linker_0, # of connection points: 2
#     Edge 72, Type (0, 0), BuildingBlock: OJICUG_clean_linker_0, # of connection points: 2
#     Edge 73, Type (0, 0), BuildingBlock: OJICUG_clean_linker_0, # of connection points: 2
#     Edge 74, Type (0, 0), BuildingBlock: OJICUG_clean_linker_0, # of connection points: 2
#     Edge 75, Type (0, 0), BuildingBlock: OJICUG_clean_linker_0, # of connection points: 2
#     Edge 76, Type (0, 0), BuildingBlock: OJICUG_clean_linker_0, # of connection points: 2
#     Edge 77, Type (0, 0), BuildingBlock: OJICUG_clean_linker_0, # of connection points: 2
#     Edge 78, Type (0, 0), BuildingBlock: OJICUG_clean_linker_0, # of connection points: 2
#     Edge 79, Type (0, 0), BuildingBlock: OJICUG_clean_linker_0, # of connection points: 2
#     Edge 80, Type (0, 0), BuildingBlock: OJICUG_clean_linker_0, # of connection points: 2
#     Edge 81, Type (0, 0), BuildingBlock: OJICUG_clean_linker_0, # of connection points: 2
#     Edge 82, Type (0, 0), BuildingBlock: OJICUG_clean_linker_0, # of connection points: 2
#     Edge 83, Type (0, 0), BuildingBlock: OJICUG_clean_linker_0, # of connection points: 2
#     Edge 84, Type (0, 0), BuildingBlock: OJICUG_clean_linker_0, # of connection points: 2
#     Edge 85, Type (0, 0), BuildingBlock: OJICUG_clean_linker_0, # of connection points: 2
#     Edge 86, Type (0, 0), BuildingBlock: OJICUG_clean_linker_0, # of connection points: 2
#     Edge 87, Type (0, 0), BuildingBlock: OJICUG_clean_linker_0, # of connection points: 2
#     Edge 88, Type (0, 0), BuildingBlock: OJICUG_clean_linker_0, # of connection points: 2
#     Edge 89, Type (0, 0), BuildingBlock: OJICUG_clean_linker_0, # of connection points: 2
#     Edge 90, Type (0, 0), BuildingBlock: OJICUG_clean_linker_0, # of connection points: 2
#     Edge 91, Type (0, 0), BuildingBlock: OJICUG_clean_linker_0, # of connection points: 2
#     Edge 92, Type (0, 0), BuildingBlock: OJICUG_clean_linker_0, # of connection points: 2
#     Edge 93, Type (0, 0), BuildingBlock: OJICUG_clean_linker_0, # of connection points: 2
#     Edge 94, Type (0, 0), BuildingBlock: OJICUG_clean_linker_0, # of connection points: 2
#     Edge 95, Type (0, 0), BuildingBlock: OJICUG_clean_linker_0, # of connection points: 2
#     Edge 96, Type (0, 0), BuildingBlock: OJICUG_clean_linker_0, # of connection points: 2
#     Edge 97, Type (0, 0), BuildingBlock: OJICUG_clean_linker_0, # of connection points: 2
#     Edge 98, Type (0, 0), BuildingBlock: OJICUG_clean_linker_0, # of connection points: 2
#     Edge 99, Type (0, 0), BuildingBlock: OJICUG_clean_linker_0, # of connection points: 2
#     Edge 100, Type (0, 0), BuildingBlock: OJICUG_clean_linker_0, # of connection points: 2
#     Edge 101, Type (0, 0), BuildingBlock: OJICUG_clean_linker_0, # of connection points: 2
#     Edge 102, Type (0, 0), BuildingBlock: OJICUG_clean_linker_0, # of connection points: 2
#     Edge 103, Type (0, 0), BuildingBlock: OJICUG_clean_linker_0, # of connection points: 2
#     Edge 104, Type (0, 0), BuildingBlock: OJICUG_clean_linker_0, # of connection points: 2
#     Edge 105, Type (0, 0), BuildingBlock: OJICUG_clean_linker_0, # of connection points: 2
#     Edge 106, Type (0, 0), BuildingBlock: OJICUG_clean_linker_0, # of connection points: 2
#     Edge 107, Type (0, 0), BuildingBlock: OJICUG_clean_linker_0, # of connection points: 2
#     Edge 108, Type (0, 0), BuildingBlock: OJICUG_clean_linker_0, # of connection points: 2
#     Edge 109, Type (0, 0), BuildingBlock: OJICUG_clean_linker_0, # of connection points: 2
#     Edge 110, Type (0, 0), BuildingBlock: OJICUG_clean_linker_0, # of connection points: 2
#     Edge 111, Type (0, 0), BuildingBlock: OJICUG_clean_linker_0, # of connection points: 2
#     Edge 112, Type (0, 0), BuildingBlock: OJICUG_clean_linker_0, # of connection points: 2
#     Edge 113, Type (0, 0), BuildingBlock: OJICUG_clean_linker_0, # of connection points: 2
#     Edge 114, Type (0, 0), BuildingBlock: OJICUG_clean_linker_0, # of connection points: 2
#     Edge 115, Type (0, 0), BuildingBlock: OJICUG_clean_linker_0, # of connection points: 2
#     Edge 116, Type (0, 0), BuildingBlock: OJICUG_clean_linker_0, # of connection points: 2
#     Edge 117, Type (0, 0), BuildingBlock: OJICUG_clean_linker_0, # of connection points: 2
#     Edge 118, Type (0, 0), BuildingBlock: OJICUG_clean_linker_0, # of connection points: 2
#     Edge 119, Type (0, 0), BuildingBlock: OJICUG_clean_linker_0, # of connection points: 2
#     Edge 120, Type (0, 0), BuildingBlock: OJICUG_clean_linker_0, # of connection points: 2
#     Edge 121, Type (0, 0), BuildingBlock: OJICUG_clean_linker_0, # of connection points: 2
#     Edge 122, Type (0, 0), BuildingBlock: OJICUG_clean_linker_0, # of connection points: 2
#     Edge 123, Type (0, 0), BuildingBlock: OJICUG_clean_linker_0, # of connection points: 2
#     Edge 124, Type (0, 0), BuildingBlock: OJICUG_clean_linker_0, # of connection points: 2
#     Edge 125, Type (0, 0), BuildingBlock: OJICUG_clean_linker_0, # of connection points: 2
#     Edge 126, Type (0, 0), BuildingBlock: OJICUG_clean_linker_0, # of connection points: 2
#     Edge 127, Type (0, 0), BuildingBlock: OJICUG_clean_linker_0, # of connection points: 2
#     Edge 128, Type (0, 0), BuildingBlock: OJICUG_clean_linker_0, # of connection points: 2
#     Edge 129, Type (0, 0), BuildingBlock: OJICUG_clean_linker_0, # of connection points: 2
#     Edge 130, Type (0, 0), BuildingBlock: OJICUG_clean_linker_0, # of connection points: 2
#     Edge 131, Type (0, 0), BuildingBlock: OJICUG_clean_linker_0, # of connection points: 2
#     Edge 132, Type (0, 0), BuildingBlock: OJICUG_clean_linker_0, # of connection points: 2
#     Edge 133, Type (0, 0), BuildingBlock: OJICUG_clean_linker_0, # of connection points: 2
#     Edge 134, Type (0, 0), BuildingBlock: OJICUG_clean_linker_0, # of connection points: 2
#     Edge 135, Type (0, 0), BuildingBlock: OJICUG_clean_linker_0, # of connection points: 2
#     Edge 136, Type (0, 0), BuildingBlock: OJICUG_clean_linker_0, # of connection points: 2
#     Edge 137, Type (0, 0), BuildingBlock: OJICUG_clean_linker_0, # of connection points: 2
#     Edge 138, Type (0, 0), BuildingBlock: OJICUG_clean_linker_0, # of connection points: 2
#     Edge 139, Type (0, 0), BuildingBlock: OJICUG_clean_linker_0, # of connection points: 2
#     Edge 140, Type (0, 0), BuildingBlock: OJICUG_clean_linker_0, # of connection points: 2
#     Edge 141, Type (0, 0), BuildingBlock: OJICUG_clean_linker_0, # of connection points: 2
#     Edge 142, Type (0, 0), BuildingBlock: OJICUG_clean_linker_0, # of connection points: 2
#     Edge 143, Type (0, 0), BuildingBlock: OJICUG_clean_linker_0, # of connection points: 2
# Relax obj value: 0.236
# Max RMSD: 0.266
# Mean RMSD: 0.266
data_MOF--net-wne--node1-OJICUG_clean_sbu_0--edge1-OJICUG_clean_linker_0
_symmetry_space_group_name_H-M    P1
_symmetry_Int_Tables_number       1
_symmetry_cell_setting            triclinic
loop_
_symmetry_equiv_pos_as_xyz
'x, y, z'
_cell_length_a     48.208597
_cell_length_b     48.38767
_cell_length_c     31.035389
_cell_angle_alpha  90.107767
_cell_angle_beta   90.058069
_cell_angle_gamma 119.94341
loop_
_atom_site_label
_atom_site_type_symbol
_atom_site_fract_x
_atom_site_fract_y
_atom_site_fract_z
_atom_type_partial_charge
Sc0 Sc 0.24794 0.21666 -0.0153 0.0
Sc1 Sc 0.30537 0.24256 0.06434 0.0
Sc2 Sc 0.23456 0.17175 0.07802 0.0
O3 O 0.26261 0.20971 0.04173 0.0
C4 C 0.18547 0.19205 0.03827 0.0
C5 C 0.28022 0.28556 0.03038 0.0
C6 C 0.26266 0.22424 0.14711 0.0
C7 C 0.3184 0.24322 0.96341 0.0
C8 C 0.22127 0.1402 -0.01334 0.0
C9 C 0.30766 0.1851 0.09557 0.0
O10 O 0.20571 0.21161 0.01202 0.0
O11 O 0.29098 0.27708 0.06175 0.0
O12 O 0.23811 0.20219 0.12888 0.0
O13 O 0.2898 0.22269 0.95431 0.0
O14 O 0.2278 0.13938 0.02632 0.0
O15 O 0.31954 0.20776 0.06868 0.0
O16 O 0.22511 0.16557 0.96818 0.0
O17 O 0.32682 0.25545 0.00082 0.0
O18 O 0.27743 0.1702 0.10423 0.0
O19 O 0.2693 0.26868 -0.00396 0.0
O20 O 0.19007 0.17212 0.05993 0.0
O21 O 0.2905 0.23591 0.13108 0.0
Sc22 Sc 0.84384 0.03797 -0.0177 0.0
Sc23 Sc 0.80855 0.06573 0.05388 0.0
Sc24 Sc 0.88208 0.07216 0.07911 0.0
O25 O 0.84594 0.06026 0.03797 0.0
C26 C 0.87264 1.0066 0.04069 0.0
C27 C 0.77428 0.99785 0.01615 0.0
C28 C 0.82024 0.03761 0.13772 0.0
C29 C 0.81434 0.08234 0.959 0.0
C30 C 0.91578 0.09254 -0.01523 0.0
C31 C 0.86561 0.12704 0.1001 0.0
O32 O 0.86831 1.01406 0.00345 0.0
O33 O 0.77458 0.02398 0.02004 0.0
O34 O 0.85042 0.0531 0.13256 0.0
O35 O 0.81953 0.05951 0.95099 0.0
O36 O 0.9167 0.09135 0.02606 0.0
O37 O 0.83675 0.10855 0.08934 0.0
O38 O 0.88976 0.07747 0.96308 0.0
O39 O 0.81531 0.09284 -0.00313 0.0
O40 O 0.88757 0.11975 0.09365 0.0
O41 O 0.79889 0.99676 0.00378 0.0
O42 O 0.87575 0.02381 0.07352 0.0
O43 O 0.80034 0.03766 0.11084 0.0
Sc44 Sc 1.01454 0.80763 -0.01124 0.0
Sc45 Sc 0.98331 0.75053 0.06831 0.0
Sc46 Sc 0.98165 0.82063 0.08107 0.0
O47 O 0.99228 0.79276 0.04529 0.0
C48 C 0.05115 0.8701 0.04185 0.0
C49 C 0.05191 0.7765 0.03487 0.0
C50 C 1.00853 0.79433 0.14964 0.0
C51 C 0.97175 0.73743 0.96676 0.0
C52 C 0.96405 0.83384 -0.01017 0.0
C53 C 0.9225 0.74737 0.09936 0.0
O54 O 0.05131 0.84966 0.01671 0.0
O55 O 1.03247 0.7656 0.0659 0.0
O56 O 1.00929 0.8181 0.1317 0.0
O57 O 0.97921 0.76581 0.95788 0.0
O58 O 0.95574 0.82652 0.02905 0.0
O59 O 0.93391 0.7353 0.0735 0.0
O60 O 0.98618 0.83044 0.97201 0.0
O61 O 0.97508 0.72901 0.00444 0.0
O62 O 0.93739 0.77767 0.10734 0.0
O63 O 0.0457 0.78679 0.00023 0.0
O64 O 1.02606 0.86538 0.06245 0.0
O65 O 0.99198 0.76616 0.13488 0.0
Sc66 Sc 0.19785 0.24607 0.3892 0.0
Sc67 Sc 0.27516 0.31038 0.39176 0.0
Sc68 Sc 0.25155 0.24779 0.46371 0.0
O69 O 0.24148 0.26893 0.41575 0.0
C70 C 0.17874 0.23266 0.48305 0.0
C71 C 0.21931 0.32093 0.37169 0.0
C72 C 0.28243 0.31815 0.49461 0.0
C73 C 0.24227 0.26637 0.3099 0.0
C74 C 0.21035 0.18861 0.41231 0.0
C75 C 0.31602 0.27721 0.40939 0.0
O76 O 0.17696 0.24693 0.44958 0.0
O77 O 0.24503 0.33104 0.39286 0.0
O78 O 0.26624 0.28858 0.50328 0.0
O79 O 0.21896 0.24435 0.33051 0.0
O80 O 0.23874 0.20797 0.42325 0.0
O81 O 0.30807 0.2935 0.38605 0.0
O82 O 0.18999 0.19792 0.40644 0.0
O83 O 0.2618 0.29361 0.32602 0.0
O84 O 0.30098 0.26355 0.44374 0.0
O85 O 0.20033 0.2909 0.36593 0.0
O86 O 0.20215 0.22758 0.48968 0.0
O87 O 0.29033 0.32913 0.45638 0.0
Sc88 Sc 0.81542 0.95872 0.37923 0.0
Sc89 Sc 0.74664 0.96393 0.38404 0.0
Sc90 Sc 0.80976 1.00848 0.45345 0.0
O91 O 0.78998 0.97635 0.40647 0.0
C92 C 0.83043 0.95492 0.47335 0.0
C93 C 0.74164 0.90117 0.36517 0.0
C94 C 0.74026 0.96627 0.4865 0.0
C95 C 0.78907 0.9762 0.30036 0.0
C96 C 0.86997 0.03027 0.40353 0.0
C97 C 0.77447 0.03721 0.39725 0.0
O98 O 0.81732 0.93848 0.43951 0.0
O99 O 0.73143 0.91471 0.39016 0.0
O100 O 0.7701 0.98105 0.49442 0.0
O101 O 0.8138 0.98003 0.32046 0.0
O102 O 0.8487 0.03718 0.41233 0.0
O103 O 0.75919 1.01218 0.37486 0.0
O104 O 0.86255 1.00122 0.39694 0.0
O105 O 0.76163 0.96528 0.31788 0.0
O106 O 0.78976 0.03804 0.43134 0.0
O107 O 0.77164 0.91444 0.35634 0.0
O108 O 0.83309 0.98238 0.48022 0.0
O109 O 0.72862 0.96179 0.44848 0.0
Sc110 Sc 0.10209 0.86454 0.38404 0.0
Sc111 Sc 0.09353 0.78922 0.38585 0.0
Sc112 Sc 0.0494 0.80866 0.45481 0.0
O113 O 0.08251 0.82082 0.40925 0.0
C114 C 0.10468 0.88139 0.47839 0.0
C115 C 0.15815 0.84622 0.36874 0.0
C116 C 0.09007 0.77954 0.48842 0.0
C117 C 0.08158 0.82117 0.30397 0.0
C118 C 1.03077 0.84945 0.40504 0.0
C119 C 1.01935 0.74548 0.39742 0.0
O120 O 0.12199 0.88462 0.44557 0.0
O121 O 0.14358 0.82161 0.39182 0.0
O122 O 0.07507 0.79438 0.49623 0.0
O123 O 0.08057 0.84336 0.32469 0.0
O124 O 1.0227 0.82088 0.4125 0.0
O125 O 0.04479 0.75454 0.37622 0.0
O126 O 0.06036 0.87059 0.40116 0.0
O127 O 0.0915 0.80335 0.32003 0.0
O128 O 1.01848 0.75987 0.43141 0.0
O129 O 0.14575 0.86386 0.36112 0.0
O130 O 0.07636 0.85737 0.4832 0.0
O131 O 0.09544 0.77316 0.45037 0.0
Sc132 Sc 0.81005 0.81125 0.95606 0.0
Sc133 Sc 0.74875 0.79235 0.8838 0.0
Sc134 Sc 0.81486 0.86788 0.886 0.0
O135 O 0.79052 0.82371 0.90931 0.0
C136 C 0.8255 0.88299 -0.0188 0.0
C137 C 0.73956 0.78125 -0.01458 0.0
C138 C 0.74083 0.84884 0.86819 0.0
C139 C 0.77816 0.74837 0.89709 0.0
C140 C 0.87061 0.85264 0.90916 0.0
C141 C 0.79476 0.82646 0.80451 0.0
O142 O 0.83113 0.85978 -0.01456 0.0
O143 O 0.72898 0.77398 0.94687 0.0
O144 O 0.77086 0.86675 0.8608 0.0
O145 O 0.79192 0.76229 0.93226 0.0
O146 O 0.86225 0.87387 0.90561 0.0
O147 O 0.76647 0.80869 0.81909 0.0
O148 O 0.84999 0.82393 0.91576 0.0
O149 O 0.76364 0.7584 0.87359 0.0
O150 O 0.81751 0.84809 0.82659 0.0
O151 O 0.76913 0.79717 -0.00521 0.0
O152 O 0.81212 0.88628 0.94765 0.0
O153 O 0.731 0.82437 0.89142 0.0
Sc154 Sc 0.24584 1.00756 0.96035 0.0
Sc155 Sc 0.26572 0.96526 0.88898 0.0
Sc156 Sc 0.19043 0.9572 0.88635 0.0
O157 O 0.23395 0.97597 0.91278 0.0
C158 C 0.1722 0.95245 -0.01932 0.0
C159 C 0.27502 0.96658 -0.00861 0.0
C160 C 0.20874 0.90137 0.87025 0.0
C161 C 0.30981 0.03851 0.90384 0.0
C162 C 0.20602 0.0281 0.91041 0.0
C163 C 0.23432 0.97819 0.80718 0.0
O164 O 0.19656 0.98028 -0.01261 0.0
O165 O 0.28218 0.96277 0.95305 0.0
O166 O 0.19121 0.91388 0.86223 0.0
O167 O 0.29534 0.03844 0.93835 0.0
O168 O 0.1847 0.99883 0.90443 0.0
O169 O 0.25169 0.96766 0.82315 0.0
O170 O 0.23431 0.03576 0.92023 0.0
O171 O 0.30035 1.01392 0.88068 0.0
O172 O 0.21234 0.97961 0.82793 0.0
O173 O 0.25931 0.98054 0.00015 0.0
O174 O 0.16915 0.9362 0.94677 0.0
O175 O 0.233 0.91556 0.89432 0.0
Sc176 Sc 0.04854 0.25051 0.95905 0.0
Sc177 Sc 0.09169 0.31301 0.88893 0.0
Sc178 Sc 0.10018 0.24627 0.88697 0.0
O179 O 0.08088 0.2707 0.91256 0.0
C180 C 0.10433 0.23331 -0.0187 0.0
C181 C 0.08973 0.32033 -0.00839 0.0
C182 C 0.15592 0.32018 0.87056 0.0
C183 C 1.01774 0.28307 0.90195 0.0
C184 C 1.0292 0.19077 0.90993 0.0
C185 C 0.07883 0.26826 0.80711 0.0
O186 O 0.07597 0.22894 -0.01318 0.0
O187 O 0.09445 0.33176 0.95345 0.0
O188 O 0.14345 0.29021 0.86276 0.0
O189 O 1.01731 0.26835 0.93624 0.0
O190 O 0.0587 0.19887 0.90526 0.0
O191 O 0.08889 0.2961 0.82301 0.0
O192 O 1.02129 0.2114 0.91766 0.0
O193 O 0.04291 0.29905 0.88018 0.0
O194 O 0.07781 0.24521 0.82806 0.0
O195 O 0.07484 0.29064 -0.00033 0.0
O196 O 0.12106 0.24697 0.94798 0.0
O197 O 0.14164 0.33023 0.8944 0.0
Sc198 Sc 0.84302 0.81006 0.48351 0.0
Sc199 Sc 0.81587 0.75547 0.56544 0.0
Sc200 Sc 0.88897 0.82394 0.57614 0.0
O201 O 0.85009 0.79641 0.54104 0.0
C202 C 0.9194 0.83493 0.48469 0.0
C203 C 0.81317 0.73987 0.46487 0.0
C204 C 0.87225 0.75002 0.59558 0.0
C205 C 0.77448 0.78108 0.52951 0.0
C206 C 0.86997 0.87353 0.53462 0.0
C207 C 0.83734 0.79984 0.64637 0.0
O208 O 0.89411 0.83198 0.46661 0.0
O209 O 0.80076 0.7332 0.50233 0.0
O210 O 0.88868 0.78036 0.60323 0.0
O211 O 0.79082 0.78926 0.49456 0.0
O212 O 0.89003 0.86871 0.55595 0.0
O213 O 0.82457 0.7716 0.63164 0.0
O214 O 0.84917 0.85297 0.50961 0.0
O215 O 0.78395 0.77329 0.56287 0.0
O216 O 0.85993 0.82326 0.62728 0.0
O217 O 0.83596 0.76725 0.45537 0.0
O218 O 0.92024 0.82817 0.5242 0.0
O219 O 0.84848 0.73841 0.5701 0.0
Sc220 Sc 0.24672 0.03851 0.48451 0.0
Sc221 Sc 0.30359 0.06713 0.56482 0.0
Sc222 Sc 0.23476 0.07128 0.57787 0.0
O223 O 0.2618 0.05985 0.54172 0.0
C224 C 0.2221 0.08993 0.48668 0.0
C225 C 0.31713 0.07925 0.4637 0.0
C226 C 0.3091 0.12886 0.59544 0.0
C227 C 0.27594 0.99924 0.52988 0.0
C228 C 0.18414 1.00256 0.53784 0.0
C229 C 0.26049 0.04439 0.6471 0.0
O230 O 0.22503 0.06781 0.46821 0.0
O231 O 0.32493 0.0745 0.50106 0.0
O232 O 0.27876 0.11486 0.60357 0.0
O233 O 0.26682 1.00666 0.49514 0.0
O234 O 0.18948 0.02733 0.55964 0.0
O235 O 0.28857 0.05946 0.63157 0.0
O236 O 0.20405 1.0024 0.51161 0.0
O237 O 0.28614 1.0177 0.56207 0.0
O238 O 0.23679 0.04374 0.6288 0.0
O239 O 0.28914 0.07346 0.45482 0.0
O240 O 0.22915 0.0975 0.52619 0.0
O241 O 0.32062 0.11666 0.56998 0.0
Sc242 Sc 1.0179 0.21759 0.48353 0.0
Sc243 Sc 0.98887 0.24531 0.56389 0.0
Sc244 Sc 0.98596 0.17314 0.57716 0.0
O245 O 0.99678 0.21128 0.54088 0.0
C246 C 0.96657 0.14149 0.48553 0.0
C247 C 0.97612 0.24632 0.46289 0.0
C248 C 0.9276 0.18891 0.59489 0.0
C249 C 0.05682 0.28627 0.52897 0.0
C250 C 0.05504 0.19198 0.53686 0.0
C251 C 1.01259 0.22604 0.64638 0.0
O252 O 0.98847 0.16664 0.46709 0.0
O253 O 0.98084 0.25883 0.50027 0.0
O254 O 0.94199 0.17296 0.60304 0.0
O255 O 0.04965 0.26952 0.49438 0.0
O256 O 1.03049 0.17264 0.55907 0.0
O257 O 0.99701 0.23844 0.63065 0.0
O258 O 0.05462 0.2115 0.51029 0.0
O259 O 0.0383 0.27799 0.56104 0.0
O260 O 1.01361 0.20316 0.62826 0.0
O261 O 0.98248 0.22461 0.45386 0.0
O262 O 0.95957 0.14082 0.52533 0.0
O263 O 0.93936 0.21221 0.56897 0.0
Sc264 Sc 0.91272 0.54875 0.31587 0.0
Sc265 Sc 0.96932 0.5768 0.39668 0.0
Sc266 Sc 0.89968 0.50511 0.41052 0.0
O267 O 0.9273 0.54279 0.37366 0.0
C268 C 0.84978 0.52389 0.36871 0.0
C269 C 0.94262 0.61765 0.36034 0.0
C270 C 0.92617 0.55872 0.47854 0.0
C271 C 0.98345 0.57707 0.296 0.0
C272 C 0.88736 0.47263 0.31957 0.0
C273 C 0.97366 0.52051 0.42918 0.0
O274 O 0.86983 0.54303 0.34192 0.0
O275 O 0.95285 0.60961 0.3927 0.0
O276 O 0.90217 0.53576 0.46063 0.0
O277 O 0.95528 0.55554 0.28665 0.0
O278 O 0.89358 0.47229 0.35949 0.0
O279 O 0.98535 0.54352 0.40281 0.0
O280 O 0.89094 0.49767 0.30044 0.0
O281 O 0.99109 0.58971 0.3333 0.0
O282 O 0.94328 0.50482 0.43729 0.0
O283 O 0.93311 0.60072 0.3259 0.0
O284 O 0.85483 0.50475 0.39164 0.0
O285 O 0.95422 0.57052 0.46325 0.0
Sc286 Sc 0.50671 0.36693 0.31719 0.0
Sc287 Sc 0.47121 0.39516 0.38743 0.0
Sc288 Sc 0.54488 0.40248 0.41331 0.0
O289 O 0.50872 0.3899 0.37214 0.0
C290 C 0.53599 0.33696 0.37675 0.0
C291 C 0.43759 0.32672 0.35179 0.0
C292 C 0.48326 0.36843 0.47225 0.0
C293 C 0.47659 0.41024 0.29213 0.0
C294 C 0.57811 0.42193 0.31855 0.0
C295 C 0.5282 0.45733 0.43236 0.0
O296 O 0.53261 0.34463 0.33919 0.0
O297 O 0.4376 0.35279 0.35424 0.0
O298 O 0.51343 0.38431 0.46712 0.0
O299 O 0.48134 0.38702 0.28496 0.0
O300 O 0.57924 0.4209 0.35985 0.0
O301 O 0.49928 0.43855 0.42206 0.0
O302 O 0.55201 0.40675 0.29707 0.0
O303 O 0.47801 0.42147 0.32965 0.0
O304 O 0.55025 0.45014 0.42613 0.0
O305 O 0.46233 0.32565 0.33996 0.0
O306 O 0.53836 0.35408 0.40931 0.0
O307 O 0.46319 0.3678 0.44507 0.0
Sc308 Sc 0.68202 0.1433 0.31794 0.0
Sc309 Sc 0.65362 0.08763 0.39876 0.0
Sc310 Sc 0.65054 0.15668 0.41136 0.0
O311 O 0.66113 0.1291 0.37528 0.0
C312 C 0.71932 0.2061 0.37033 0.0
C313 C 0.72101 0.11352 0.36326 0.0
C314 C 0.67806 0.13134 0.47977 0.0
C315 C 0.64095 0.07332 0.29782 0.0
C316 C 0.63125 0.16904 0.32072 0.0
C317 C 0.59255 0.08292 0.43012 0.0
O318 O 0.71911 0.1857 0.3447 0.0
O319 O 0.7032 0.10466 0.39608 0.0
O320 O 0.67905 0.15503 0.46136 0.0
O321 O 0.64605 0.10095 0.28884 0.0
O322 O 0.62362 0.16184 0.36013 0.0
O323 O 0.60406 0.07134 0.40363 0.0
O324 O 0.65325 0.16585 0.30213 0.0
O325 O 0.64617 0.06605 0.33523 0.0
O326 O 0.60702 0.1132 0.43835 0.0
O327 O 0.71321 0.12225 0.32845 0.0
O328 O 0.69458 0.20142 0.39182 0.0
O329 O 0.66147 0.10315 0.46525 0.0
Sc330 Sc 0.85918 0.57892 0.71771 0.0
Sc331 Sc 0.93451 0.64573 0.72042 0.0
Sc332 Sc 0.91516 0.58253 0.78925 0.0
O333 O 0.903 0.60316 0.74337 0.0
C334 C 0.84218 0.56518 0.81189 0.0
C335 C 0.87742 0.65285 0.7023 0.0
C336 C 0.94386 0.6521 0.82313 0.0
C337 C 0.90248 0.60173 0.63802 0.0
C338 C 0.8744 0.52313 0.73949 0.0
C339 C 0.97876 0.61599 0.73253 0.0
O340 O 0.83909 0.57915 0.77892 0.0
O341 O 0.90162 0.6627 0.72644 0.0
O342 O 0.92913 0.62233 0.83073 0.0
O343 O 0.88046 0.5784 0.65864 0.0
O344 O 0.90308 0.54372 0.74692 0.0
O345 O 0.96957 0.63215 0.71118 0.0
O346 O 0.85314 0.53144 0.73536 0.0
O347 O 0.92037 0.6294 0.65437 0.0
O348 O 0.96426 0.60066 0.76637 0.0
O349 O 0.8599 0.62295 0.69413 0.0
O350 O 0.86616 0.56074 0.81704 0.0
O351 O 0.95046 0.66384 0.78514 0.0
Sc352 Sc 0.4807 0.29035 0.71336 0.0
Sc353 Sc 0.41148 0.2947 0.71928 0.0
Sc354 Sc 0.47491 0.33985 0.78802 0.0
O355 O 0.45515 0.3077 0.74109 0.0
C356 C 0.49635 0.28678 0.80752 0.0
C357 C 0.40708 0.23224 0.70075 0.0
C358 C 0.40561 0.29736 0.82168 0.0
C359 C 0.45332 0.30713 0.63497 0.0
C360 C 0.535 0.36211 0.73693 0.0
C361 C 0.43875 0.36794 0.73207 0.0
O362 O 0.48348 0.27041 0.77353 0.0
O363 O 0.39698 0.24564 0.72614 0.0
O364 O 0.43547 0.3123 0.82934 0.0
O365 O 0.47832 0.31138 0.65473 0.0
O366 O 0.51376 0.36883 0.74689 0.0
O367 O 0.42342 0.34279 0.70987 0.0
O368 O 0.52775 0.33313 0.73017 0.0
O369 O 0.42596 0.29586 0.65285 0.0
O370 O 0.45447 0.36905 0.76586 0.0
O371 O 0.43694 0.24588 0.691 0.0
O372 O 0.49854 0.31401 0.81466 0.0
O373 O 0.39379 0.29272 0.78379 0.0
Sc374 Sc 0.76764 0.20064 0.71667 0.0
Sc375 Sc 0.76037 0.12595 0.71793 0.0
Sc376 Sc 0.71735 0.14473 0.78927 0.0
O377 O 0.74913 0.15714 0.74204 0.0
C378 C 0.7714 0.21826 0.81093 0.0
C379 C 0.82431 0.18327 0.70089 0.0
C380 C 0.7597 0.11715 0.81994 0.0
C381 C 0.74777 0.15767 0.63667 0.0
C382 C 0.69583 0.18357 0.74004 0.0
C383 C 0.68721 0.08104 0.73226 0.0
O384 O 0.78824 0.22146 0.77763 0.0
O385 O 0.8101 0.15892 0.72448 0.0
O386 O 0.74568 0.13277 0.82879 0.0
O387 O 0.74575 0.17916 0.6577 0.0
O388 O 0.68857 0.15534 0.74871 0.0
O389 O 0.71162 0.09119 0.70852 0.0
O390 O 0.72515 0.20523 0.73472 0.0
O391 O 0.75845 0.14045 0.65247 0.0
O392 O 0.68741 0.09512 0.76724 0.0
O393 O 0.81156 0.20058 0.69297 0.0
O394 O 0.74347 0.19385 0.81667 0.0
O395 O 0.76255 0.10914 0.78167 0.0
Sc396 Sc 0.47509 0.14256 0.29117 0.0
Sc397 Sc 0.41265 0.12302 0.22007 0.0
Sc398 Sc 0.47825 0.19899 0.22186 0.0
O399 O 0.45451 0.15472 0.24525 0.0
C400 C 0.48878 0.2136 0.31728 0.0
C401 C 0.4045 0.11109 0.32213 0.0
C402 C 0.40401 0.17928 0.20397 0.0
C403 C 0.444 0.08022 0.23171 0.0
C404 C 0.53514 0.18541 0.24375 0.0
C405 C 0.45853 0.15715 0.14042 0.0
O406 O 0.49487 0.19068 0.32126 0.0
O407 O 0.39342 0.10525 0.28367 0.0
O408 O 0.43405 0.1974 0.19702 0.0
O409 O 0.45869 0.09437 0.26623 0.0
O410 O 0.52615 0.20616 0.24088 0.0
O411 O 0.43033 0.13894 0.15509 0.0
O412 O 0.51502 0.15657 0.25029 0.0
O413 O 0.42773 0.08921 0.21012 0.0
O414 O 0.48098 0.17933 0.1623 0.0
O415 O 0.4342 0.12647 0.33097 0.0
O416 O 0.47538 0.21695 0.28377 0.0
O417 O 0.39412 0.15455 0.2267 0.0
Sc418 Sc 0.9145 0.3423 0.28972 0.0
Sc419 Sc 0.93478 0.29999 0.21888 0.0
Sc420 Sc 0.85889 0.29072 0.21706 0.0
O421 O 0.9027 0.3102 0.2428 0.0
C422 C 0.84132 0.28678 0.31128 0.0
C423 C 0.94407 0.30182 0.32153 0.0
C424 C 0.87802 0.2355 0.20025 0.0
C425 C 0.97851 0.3734 0.23355 0.0
C426 C 0.87376 0.36152 0.24049 0.0
C427 C 0.90251 0.31222 0.13733 0.0
O428 O 0.86535 0.31496 0.31709 0.0
O429 O 0.951 0.29749 0.28326 0.0
O430 O 0.85987 0.24746 0.19322 0.0
O431 O 0.96387 0.37344 0.26778 0.0
O432 O 0.85267 0.33208 0.23527 0.0
O433 O 0.92064 0.30254 0.15316 0.0
O434 O 0.9024 0.36961 0.24864 0.0
O435 O 0.96922 0.34872 0.21068 0.0
O436 O 0.88013 0.31285 0.15817 0.0
O437 O 0.92851 0.316 0.32997 0.0
O438 O 0.83845 0.27005 0.27796 0.0
O439 O 0.90274 0.25012 0.22342 0.0
Sc440 Sc 0.7101 0.58152 0.29593 0.0
Sc441 Sc 0.74925 0.64326 0.223 0.0
Sc442 Sc 0.76076 0.57811 0.22083 0.0
O443 O 0.74092 0.60178 0.24741 0.0
C444 C 0.76711 0.56525 0.31475 0.0
C445 C 0.75059 0.65192 0.32576 0.0
C446 C 0.81508 0.65262 0.2027 0.0
C447 C 0.67546 0.61132 0.24134 0.0
C448 C 0.69048 0.52171 0.24574 0.0
C449 C 0.73696 0.59858 0.14142 0.0
O450 O 0.73887 0.56076 0.32183 0.0
O451 O 0.75342 0.66263 0.28739 0.0
O452 O 0.80348 0.62251 0.19685 0.0
O453 O 0.67694 0.59799 0.27599 0.0
O454 O 0.71995 0.53038 0.23909 0.0
O455 O 0.74529 0.62601 0.15736 0.0
O456 O 0.68213 0.54161 0.25625 0.0
O457 O 0.69955 0.62698 0.2175 0.0
O458 O 0.73766 0.57633 0.16223 0.0
O459 O 0.73713 0.62242 0.33478 0.0
O460 O 0.78292 0.57907 0.28094 0.0
O461 O 0.79994 0.66308 0.22411 0.0
Sc462 Sc 0.50766 0.14199 0.82122 0.0
Sc463 Sc 0.48226 0.08608 0.90209 0.0
Sc464 Sc 0.55465 0.15597 0.9128 0.0
O465 O 0.51552 0.12791 0.87806 0.0
C466 C 0.58425 0.16751 0.82076 0.0
C467 C 0.47956 0.07153 0.80098 0.0
C468 C 0.54009 0.08272 0.93196 0.0
C469 C 0.4395 0.11165 0.86848 0.0
C470 C 0.53474 0.2053 0.8725 0.0
C471 C 0.50292 0.13068 -0.01668 0.0
O472 O 0.55862 0.16417 0.80329 0.0
O473 O 0.46786 0.06367 0.83875 0.0
O474 O 0.55587 0.11308 0.93948 0.0
O475 O 0.4557 0.12139 0.83354 0.0
O476 O 0.55511 0.2006 0.89322 0.0
O477 O 0.49036 0.10247 0.96837 0.0
O478 O 0.51365 0.18459 0.84806 0.0
O479 O 0.44849 0.10155 0.89996 0.0
O480 O 0.5255 0.15431 0.96446 0.0
O481 O 0.50067 0.09971 0.79157 0.0
O482 O 0.58569 0.16092 0.86019 0.0
O483 O 0.51616 0.07057 0.90677 0.0
Sc484 Sc 0.91412 0.37563 0.81761 0.0
Sc485 Sc 0.97115 0.40464 0.89779 0.0
Sc486 Sc 0.90205 0.40828 0.91103 0.0
O487 O 0.9292 0.39701 0.87476 0.0
C488 C 0.88961 0.42724 0.81978 0.0
C489 C 0.98475 0.4167 0.79682 0.0
C490 C 0.97639 0.46592 0.92893 0.0
C491 C 0.94329 0.33643 0.8634 0.0
C492 C 0.85134 0.33965 0.87059 0.0
C493 C 0.92794 0.38115 -0.02029 0.0
O494 O 0.89264 0.40516 0.80134 0.0
O495 O 0.99263 0.41215 0.83421 0.0
O496 O 0.94606 0.45176 0.93724 0.0
O497 O 0.93388 0.34353 0.82864 0.0
O498 O 0.85671 0.36438 0.89252 0.0
O499 O 0.95606 0.39691 0.96447 0.0
O500 O 0.87131 0.33953 0.84446 0.0
O501 O 0.95414 0.35531 0.89511 0.0
O502 O 0.90411 0.38041 0.96161 0.0
O503 O 0.95662 0.41043 0.78778 0.0
O504 O 0.89646 0.43468 0.8594 0.0
O505 O 0.98777 0.45407 0.90271 0.0
Sc506 Sc 0.68345 0.5501 0.8152 0.0
Sc507 Sc 0.65205 0.5762 0.89457 0.0
Sc508 Sc 0.65089 0.50487 0.90802 0.0
O509 O 0.66157 0.54314 0.87196 0.0
C510 C 0.63227 0.47385 0.81612 0.0
C511 C 0.64066 0.57789 0.79356 0.0
C512 C 0.59181 0.51923 0.92504 0.0
C513 C 0.72075 0.61873 0.8619 0.0
C514 C 0.72008 0.52408 0.86877 0.0
C515 C 0.67561 0.5571 -0.02248 0.0
O516 O 0.65421 0.49917 0.79798 0.0
O517 O 0.64427 0.58984 0.8311 0.0
O518 O 0.60682 0.50406 0.93395 0.0
O519 O 0.71494 0.60196 0.82746 0.0
O520 O 0.69533 0.5044 0.89026 0.0
O521 O 0.65956 0.56887 0.96137 0.0
O522 O 0.71994 0.54397 0.84265 0.0
O523 O 0.70118 0.61034 0.89284 0.0
O524 O 0.678 0.53501 0.95927 0.0
O525 O 0.64839 0.55717 0.78443 0.0
O526 O 0.625 0.47286 0.85586 0.0
O527 O 0.60286 0.54174 0.89794 0.0
Sc528 Sc 0.58246 0.88279 0.64986 0.0
Sc529 Sc 0.64011 0.90839 0.72909 0.0
Sc530 Sc 0.56973 0.83717 0.7423 0.0
O531 O 0.59741 0.87551 0.7064 0.0
C532 C 0.51989 0.85674 0.70357 0.0
C533 C 0.61422 0.95122 0.69709 0.0
C534 C 0.59749 0.88949 0.81176 0.0
C535 C 0.653 0.91053 0.62795 0.0
C536 C 0.55694 0.80643 0.65022 0.0
C537 C 0.64316 0.85132 0.75901 0.0
O538 O 0.54 0.87677 0.67764 0.0
O539 O 0.62532 0.94261 0.72791 0.0
O540 O 0.57294 0.86733 0.79359 0.0
O541 O 0.62448 0.88983 0.61879 0.0
O542 O 0.56339 0.80528 0.68988 0.0
O543 O 0.65456 0.87376 0.73182 0.0
O544 O 0.5604 0.83187 0.63238 0.0
O545 O 0.66142 0.92228 0.6656 0.0
O546 O 0.61301 0.83625 0.76815 0.0
O547 O 0.60319 0.93463 0.66251 0.0
O548 O 0.52483 0.83682 0.72466 0.0
O549 O 0.62536 0.90084 0.79592 0.0
Sc550 Sc 0.17618 0.70925 0.6518 0.0
Sc551 Sc 0.1476 0.7372 0.73231 0.0
Sc552 Sc 0.22057 0.74121 0.74573 0.0
O553 O 0.18222 0.73009 0.70931 0.0
C554 C 0.20222 0.67261 0.70478 0.0
C555 C 0.1074 0.66961 0.69638 0.0
C556 C 0.16744 0.71375 0.81441 0.0
C557 C 0.14677 0.75026 0.63139 0.0
C558 C 0.25247 0.7604 0.65484 0.0
C559 C 0.20378 0.79868 0.76396 0.0
O560 O 0.18237 0.67277 0.67837 0.0
O561 O 0.11552 0.6878 0.72883 0.0
O562 O 0.19066 0.71333 0.79628 0.0
O563 O 0.16911 0.74465 0.6227 0.0
O564 O 0.25287 0.76776 0.69443 0.0
O565 O 0.1802 0.78666 0.73816 0.0
O566 O 0.22735 0.73848 0.63613 0.0
O567 O 0.1339 0.74506 0.66855 0.0
O568 O 0.22015 0.78469 0.77193 0.0
O569 O 0.12408 0.67739 0.66177 0.0
O570 O 0.22161 0.69717 0.72708 0.0
O571 O 0.15458 0.72899 0.79902 0.0
Sc572 Sc 0.34809 0.47589 0.65189 0.0
Sc573 Sc 0.32045 0.42183 0.73431 0.0
Sc574 Sc 0.31658 0.49066 0.74416 0.0
O575 O 0.32749 0.46273 0.70947 0.0
C576 C 0.38534 0.53958 0.70219 0.0
C577 C 0.38723 0.44663 0.69843 0.0
C578 C 0.34387 0.46659 0.81476 0.0
C579 C 0.30721 0.40574 0.63392 0.0
C580 C 0.29735 0.5017 0.65265 0.0
C581 C 0.25886 0.41695 0.76402 0.0
O582 O 0.38533 0.51872 0.67763 0.0
O583 O 0.37018 0.43941 0.73192 0.0
O584 O 0.34497 0.49002 0.79537 0.0
O585 O 0.31176 0.43308 0.62433 0.0
O586 O 0.2896 0.49491 0.6921 0.0
O587 O 0.27083 0.40513 0.73869 0.0
O588 O 0.31948 0.49839 0.63471 0.0
O589 O 0.31314 0.39923 0.6714 0.0
O590 O 0.27305 0.44733 0.77155 0.0
O591 O 0.37899 0.45455 0.66329 0.0
O592 O 0.36054 0.53512 0.72341 0.0
O593 O 0.328 0.43828 0.80037 0.0
Sc594 Sc 0.533 0.91351 0.0524 0.0
Sc595 Sc 0.60981 0.97874 0.05437 0.0
Sc596 Sc 0.58747 0.91673 0.12673 0.0
O597 O 0.57671 0.93717 0.07867 0.0
C598 C 0.51429 0.90043 0.14639 0.0
C599 C 0.55316 0.98797 0.0345 0.0
C600 C 0.61722 0.98701 0.15719 0.0
C601 C 0.57718 0.93398 0.97281 0.0
C602 C 0.54697 0.85713 0.07643 0.0
C603 C 0.65185 0.94691 0.07206 0.0
O604 O 0.5121 0.91435 0.11279 0.0
O605 O 0.57891 0.99844 0.05567 0.0
O606 O 0.6015 0.95745 0.16592 0.0
O607 O 0.55409 0.91185 -0.00639 0.0
O608 O 0.57536 0.8771 0.08646 0.0
O609 O 0.64342 0.96278 0.04865 0.0
O610 O 0.5261 0.86577 0.07042 0.0
O611 O 0.59647 0.96141 -0.01131 0.0
O612 O 0.63703 0.93325 0.10654 0.0
O613 O 0.53458 0.95787 0.02868 0.0
O614 O 0.53803 0.89586 0.15299 0.0
O615 O 0.62494 0.99799 0.11891 0.0
Sc616 Sc 0.14866 0.62424 0.05214 0.0
Sc617 Sc 0.08125 0.63196 0.05443 0.0
Sc618 Sc 0.14322 0.6742 0.12627 0.0
O619 O 0.12373 0.64278 0.07847 0.0
C620 C 0.16211 0.6194 0.14648 0.0
C621 C 0.07454 0.56824 0.03557 0.0
C622 C 0.07294 0.63276 0.1568 0.0
C623 C 0.12591 0.64544 0.97289 0.0
C624 C 0.2038 0.69518 0.07685 0.0
C625 C 0.11009 0.70504 0.06979 0.0
O626 O 0.14889 0.60314 0.11255 0.0
O627 O 0.06442 0.58232 0.05964 0.0
O628 O 0.10262 0.64679 0.16573 0.0
O629 O 0.14926 0.64679 -0.00624 0.0
O630 O 0.18306 0.70271 0.08646 0.0
O631 O 0.09516 0.68057 0.04637 0.0
O632 O 0.19592 0.66597 0.07068 0.0
O633 O 0.09792 0.63475 -0.01135 0.0
O634 O 0.12438 0.70489 0.10441 0.0
O635 O 0.10461 0.58086 0.02763 0.0
O636 O 0.16543 0.64714 0.15323 0.0
O637 O 0.06204 0.62911 0.11841 0.0
Sc638 Sc 0.43678 0.53498 0.05327 0.0
Sc639 Sc 0.42716 0.45943 0.05053 0.0
Sc640 Sc 0.38491 0.4782 0.12306 0.0
O641 O 0.41685 0.49072 0.07629 0.0
C642 C 0.44158 0.54961 0.14858 0.0
C643 C 0.49163 0.516 0.03466 0.0
C644 C 0.42542 0.44811 0.15213 0.0
C645 C 0.41483 0.49366 0.97169 0.0
C646 C 0.3659 0.5199 0.0769 0.0
C647 C 0.35368 0.4154 0.06404 0.0
O648 O 0.45817 0.55301 0.11495 0.0
O649 O 0.47705 0.49148 0.0578 0.0
O650 O 0.41167 0.46388 0.16156 0.0
O651 O 0.41401 0.51536 -0.00608 0.0
O652 O 0.35769 0.49112 0.08301 0.0
O653 O 0.37823 0.42534 0.04059 0.0
O654 O 0.39556 0.54106 0.07344 0.0
O655 O 0.42537 0.47584 -0.01403 0.0
O656 O 0.35387 0.42939 0.09909 0.0
O657 O 0.4795 0.53391 0.02755 0.0
O658 O 0.41262 0.52655 0.15267 0.0
O659 O 0.42888 0.44107 0.11354 0.0
Sc660 Sc 0.14221 0.47795 0.62281 0.0
Sc661 Sc 0.0791 0.45835 0.55295 0.0
Sc662 Sc 0.14588 0.53369 0.55142 0.0
O663 O 0.12159 0.49002 0.57672 0.0
C664 C 0.15998 0.55088 0.64573 0.0
C665 C 0.07229 0.44854 0.65541 0.0
C666 C 0.0714 0.51509 0.53578 0.0
C667 C 0.10925 0.41465 0.56538 0.0
C668 C 0.20187 0.51837 0.57319 0.0
C669 C 0.12319 0.49047 0.47137 0.0
O670 O 0.16417 0.52684 0.65089 0.0
O671 O 0.06084 0.44183 0.6172 0.0
O672 O 0.10145 0.53279 0.52804 0.0
O673 O 0.12401 0.42895 0.59978 0.0
O674 O 0.19362 0.53963 0.56899 0.0
O675 O 0.09534 0.47276 0.48723 0.0
O676 O 0.18122 0.48988 0.58092 0.0
O677 O 0.09342 0.42393 0.54332 0.0
O678 O 0.14644 0.51251 0.49227 0.0
O679 O 0.10209 0.46394 0.66369 0.0
O680 O 0.14592 0.55394 0.61273 0.0
O681 O 0.06151 0.49068 0.55921 0.0
Sc682 Sc 0.5802 0.67405 0.61843 0.0
Sc683 Sc 0.59887 0.62949 0.54947 0.0
Sc684 Sc 0.52459 0.62375 0.54466 0.0
O685 O 0.5678 0.64169 0.5718 0.0
C686 C 0.50597 0.62047 0.63875 0.0
C687 C 0.60784 0.63237 0.65193 0.0
C688 C 0.54101 0.56633 0.53132 0.0
C689 C 0.64428 0.70284 0.56234 0.0
C690 C 0.5416 0.69539 0.56798 0.0
C691 C 0.56842 0.64122 0.46573 0.0
O692 O 0.53081 0.648 0.64532 0.0
O693 O 0.61498 0.62783 0.61396 0.0
O694 O 0.52411 0.5794 0.52244 0.0
O695 O 0.62978 0.70363 0.59635 0.0
O696 O 0.51993 0.66627 0.56175 0.0
O697 O 0.58499 0.63039 0.48331 0.0
O698 O 0.56984 0.70241 0.5768 0.0
O699 O 0.63447 0.67782 0.53992 0.0
O700 O 0.54738 0.64483 0.48575 0.0
O701 O 0.5926 0.64695 0.65973 0.0
O702 O 0.50255 0.60383 0.60512 0.0
O703 O 0.56506 0.58019 0.55588 0.0
Sc704 Sc 0.38293 0.91502 0.62494 0.0
Sc705 Sc 0.42646 0.97814 0.55586 0.0
Sc706 Sc 0.43532 0.91164 0.5534 0.0
O707 O 0.41569 0.93574 0.57906 0.0
C708 C 0.43879 0.89799 0.64757 0.0
C709 C 0.42326 0.98465 0.65854 0.0
C710 C 0.49086 0.98576 0.53793 0.0
C711 C 0.35234 0.94774 0.56775 0.0
C712 C 0.36434 0.85567 0.57524 0.0
C713 C 0.41471 0.93426 0.47363 0.0
O714 O 0.41034 0.89347 0.65277 0.0
O715 O 0.42825 0.99621 0.62045 0.0
O716 O 0.47855 0.95585 0.52985 0.0
O717 O 0.35174 0.93282 0.60191 0.0
O718 O 0.39394 0.86404 0.57111 0.0
O719 O 0.42461 0.96194 0.48992 0.0
O720 O 0.35624 0.87622 0.58259 0.0
O721 O 0.37764 0.96394 0.5463 0.0
O722 O 0.41334 0.91094 0.49432 0.0
O723 O 0.40863 0.95492 0.66639 0.0
O724 O 0.4558 0.91201 0.6146 0.0
O725 O 0.47646 0.99555 0.562 0.0
Sc726 Sc 0.1772 0.47598 0.15541 0.0
Sc727 Sc 0.15029 0.41961 0.23581 0.0
Sc728 Sc 0.2224 0.48938 0.24873 0.0
O729 O 0.18405 0.46152 0.21262 0.0
C730 C 0.25384 0.50203 0.15781 0.0
C731 C 0.14906 0.4058 0.13456 0.0
C732 C 0.20754 0.41597 0.2678 0.0
C733 C 0.1084 0.44569 0.20053 0.0
C734 C 0.20276 0.53871 0.2079 0.0
C735 C 0.16898 0.46352 0.31694 0.0
O736 O 0.22845 0.49854 0.13941 0.0
O737 O 0.13688 0.39787 0.17208 0.0
O738 O 0.22327 0.44632 0.2755 0.0
O739 O 0.12506 0.45527 0.16596 0.0
O740 O 0.22279 0.53402 0.22948 0.0
O741 O 0.15717 0.43534 0.30226 0.0
O742 O 0.18254 0.51829 0.18229 0.0
O743 O 0.11681 0.43542 0.23245 0.0
O744 O 0.1921 0.48719 0.29897 0.0
O745 O 0.17075 0.43387 0.12569 0.0
O746 O 0.25456 0.49506 0.19728 0.0
O747 O 0.18401 0.40392 0.2419 0.0
Sc748 Sc 0.57639 0.70311 0.14907 0.0
Sc749 Sc 0.63999 0.73098 0.21974 0.0
Sc750 Sc 0.57384 0.73867 0.24501 0.0
O751 O 0.59741 0.72606 0.20404 0.0
C752 C 0.56028 0.75811 0.15003 0.0
C753 C 0.65011 0.74574 0.12451 0.0
C754 C 0.64544 0.79334 0.2643 0.0
C755 C 0.60461 0.66247 0.18433 0.0
C756 C 0.51718 0.67326 0.20828 0.0
C757 C 0.60094 0.70453 0.30433 0.0
O758 O 0.57146 0.74315 0.12869 0.0
O759 O 0.65989 0.75712 0.16199 0.0
O760 O 0.61624 0.78629 0.2578 0.0
O761 O 0.57894 0.66163 0.17217 0.0
O762 O 0.53201 0.69016 0.24099 0.0
O763 O 0.62025 0.70366 0.27724 0.0
O764 O 0.5281 0.68141 0.17076 0.0
O765 O 0.63085 0.68841 0.18685 0.0
O766 O 0.58705 0.72076 0.29915 0.0
O767 O 0.62198 0.72275 0.11723 0.0
O768 O 0.5579 0.75691 0.1913 0.0
O769 O 0.65547 0.77446 0.25421 0.0
Sc770 Sc 0.35224 0.88349 0.15 0.0
Sc771 Sc 0.3238 0.91121 0.23127 0.0
Sc772 Sc 0.32191 0.83953 0.24446 0.0
O773 O 0.33185 0.87733 0.20792 0.0
C774 C 0.30165 0.80731 0.15337 0.0
C775 C 0.30953 0.91158 0.13073 0.0
C776 C 0.26307 0.85443 0.2635 0.0
C777 C 0.39139 0.95232 0.19477 0.0
C778 C 0.39063 0.85873 0.20231 0.0
C779 C 0.34892 0.89278 0.31302 0.0
O780 O 0.32292 0.83245 0.13422 0.0
O781 O 0.31459 0.92416 0.16806 0.0
O782 O 0.2778 0.83874 0.27122 0.0
O783 O 0.38395 0.93545 0.16028 0.0
O784 O 0.36657 0.83958 0.22545 0.0
O785 O 0.33297 0.9049 0.29771 0.0
O786 O 0.38953 0.8778 0.17558 0.0
O787 O 0.37308 0.94425 0.22707 0.0
O788 O 0.34992 0.86992 0.29487 0.0
O789 O 0.31628 0.89019 0.12123 0.0
O790 O 0.29525 0.80683 0.19334 0.0
O791 O 0.27448 0.87781 0.23771 0.0
C792 C 0.22025 0.11096 0.9189 0.0
C793 C 0.20956 0.11031 0.96117 0.0
H794 H 0.22658 0.08421 0.86839 0.0
C795 C 0.19023 0.0805 -0.01917 0.0
H796 H 0.23518 0.13351 0.90292 0.0
C797 C 0.18414 0.05218 0.96027 0.0
C798 C 0.19791 0.05313 0.92007 0.0
H799 H 0.18135 0.07921 0.01325 0.0
H800 H 0.17179 0.02998 -0.02202 0.0
C801 C 0.21488 0.08266 0.89881 0.0
C802 C 0.97461 0.14519 0.89875 0.0
C803 C 1.00408 0.15796 0.92053 0.0
H804 H 0.92372 0.11461 0.90167 0.0
C805 C 1.00475 0.14585 0.96137 0.0
H806 H 0.97325 0.15479 0.8678 0.0
C807 C 0.9762 0.12365 -0.0184 0.0
C808 C 0.94636 0.11279 0.96119 0.0
H809 H 1.02693 0.15597 -0.0205 0.0
H810 H 0.97742 0.11621 0.0141 0.0
C811 C 0.94612 0.12262 0.91862 0.0
C812 C 0.91396 0.87198 0.96305 0.0
C813 C 0.90337 0.86047 0.9212 0.0
H814 H 0.94097 0.87189 0.0179 0.0
C815 C 0.91723 0.84474 0.89957 0.0
H816 H 0.90303 0.88328 -0.019 0.0
C817 C 0.93908 0.83819 0.92067 0.0
C818 C 0.94674 0.84648 0.96422 0.0
H819 H 0.90879 0.83478 0.86775 0.0
H820 H 0.94772 0.82422 0.90413 0.0
C821 C 0.93513 0.86475 -0.01549 0.0
C822 C 0.1122 0.22296 0.55598 0.0
C823 C 0.08657 0.19396 0.54069 0.0
H824 H 0.16195 0.25825 0.54942 0.0
C825 C 0.09351 0.1749 0.51365 0.0
H826 H 0.10745 0.23863 0.57572 0.0
C827 C 0.12485 0.18618 0.49865 0.0
C828 C 0.14969 0.21676 0.51024 0.0
H829 H 0.07423 0.15307 0.5001 0.0
H830 H 0.12901 0.17237 0.47464 0.0
C831 C 0.14341 0.23441 0.54057 0.0
C832 C 0.83091 0.92249 0.53569 0.0
C833 C 0.84718 0.94328 0.50159 0.0
H834 H 0.82721 0.88467 0.57559 0.0
C835 C 0.87659 0.94674 0.48807 0.0
H836 H 0.80795 0.91899 0.54615 0.0
C837 C 0.88781 0.92728 0.50517 0.0
C838 C 0.86972 0.90393 0.53596 0.0
H839 H 0.88931 0.96231 0.46133 0.0
H840 H 0.90842 0.92776 0.49044 0.0
C841 C 0.84221 0.90312 0.55288 0.0
C842 C 0.11053 0.93441 0.49463 0.0
C843 C 0.11596 0.90953 0.50687 0.0
H844 H 0.12762 0.98473 0.49742 0.0
C845 C 0.13805 0.91506 0.5398 0.0
H846 H 0.0939 0.93078 0.46879 0.0
C847 C 0.15675 0.9458 0.55702 0.0
C848 C 0.15418 0.97165 0.54091 0.0
H849 H 0.14299 0.89641 0.54932 0.0
H850 H 0.17617 0.95014 0.5787 0.0
C851 C 0.12951 0.96526 0.51151 0.0
C852 C 0.88557 0.96419 0.02298 0.0
C853 C 0.86568 0.97326 0.04447 0.0
H854 H 0.88834 0.92763 -0.01289 0.0
C855 C 0.83381 0.94969 0.05289 0.0
H856 H 0.90984 0.98203 0.01465 0.0
C857 C 0.82116 0.91882 0.03573 0.0
C858 C 0.84041 0.91064 0.01105 0.0
H859 H 0.81759 0.9562 0.06796 0.0
H860 H 0.79574 0.90221 0.03873 0.0
C861 C 0.87314 0.93307 0.00685 0.0
C862 C 0.11801 0.94424 -0.00283 0.0
C863 C 0.14388 0.94013 0.00919 0.0
H864 H 0.06724 0.92562 0.0006 0.0
C865 C 0.13933 0.91837 0.04195 0.0
H866 H 0.12085 0.96056 0.97145 0.0
C867 C 0.10873 0.89882 0.05926 0.0
C868 C 0.08203 0.90035 0.04371 0.0
H869 H 0.15871 0.91438 0.05126 0.0
H870 H 0.10525 0.87978 0.08086 0.0
C871 C 0.08735 0.92454 0.01433 0.0
C872 C 0.12994 0.17498 0.01515 0.0
C873 C 0.15612 0.19429 0.04188 0.0
H874 H 0.09222 0.17243 0.97535 0.0
C875 C 0.15986 0.22357 0.05637 0.0
H876 H 0.1271 0.15287 0.00232 0.0
C877 C 0.14046 0.23515 0.04013 0.0
C878 C 0.11653 0.2173 0.00981 0.0
H879 H 0.1804 0.23936 0.07595 0.0
H880 H 0.14613 0.25921 0.04815 0.0
C881 C 0.11023 0.1864 -0.00069 0.0
C882 C 1.00742 0.87057 0.45744 0.0
C883 C 1.00592 0.85756 0.41646 0.0
H884 H 0.98102 0.87295 0.51153 0.0
C885 C 0.97607 0.84141 0.39536 0.0
H886 H 1.02986 0.88227 0.47502 0.0
C887 C 0.948 0.83618 0.41616 0.0
C888 C 0.94917 0.84615 0.45899 0.0
H889 H 0.97409 0.83031 0.36429 0.0
H890 H 0.92518 0.82197 0.4001 0.0
C891 C 0.97931 0.8646 0.47869 0.0
C892 C 0.22164 0.11831 0.41911 0.0
C893 C 0.21086 0.10849 0.46136 0.0
H894 H 0.22889 0.15176 0.36899 0.0
C895 C 0.19199 0.11958 0.48118 0.0
H896 H 0.23619 0.11015 0.40302 0.0
C897 C 0.18662 0.14234 0.46089 0.0
C898 C 0.20072 0.15505 0.42088 0.0
H899 H 0.18303 0.11212 0.51357 0.0
H900 H 0.17477 0.15273 0.47881 0.0
C901 C 0.21699 0.14174 0.3993 0.0
C902 C 0.9389 0.11312 0.4168 0.0
C903 C 0.94766 0.1118 0.45966 0.0
H904 H 0.90725 0.08738 0.36436 0.0
C905 C 0.93584 0.08165 0.47892 0.0
H906 H 0.94753 0.13591 0.40104 0.0
C907 C 0.91389 0.05373 0.45711 0.0
C908 C 0.90265 0.05535 0.41593 0.0
H909 H 0.94236 0.07977 0.51175 0.0
H910 H 0.9032 0.03126 0.47428 0.0
C911 C 0.91621 0.08524 0.39547 0.0
C912 C 0.85856 0.41279 0.31441 0.0
C913 C 0.87641 0.4427 0.29436 0.0
H914 H 0.84152 0.36252 0.31109 0.0
C915 C 0.88598 0.4436 0.25137 0.0
H916 H 0.85051 0.41124 0.34736 0.0
C917 C 0.88093 0.41561 0.2307 0.0
C918 C 0.86533 0.38605 0.25207 0.0
H919 H 0.89973 0.46621 0.23499 0.0
H920 H 0.89174 0.41748 0.19946 0.0
C921 C 0.85276 0.38473 0.2933 0.0
C922 C 0.66684 0.47548 0.29473 0.0
C923 C 0.66591 0.48842 0.25465 0.0
H924 H 0.63981 0.44483 0.34683 0.0
C925 C 0.63638 0.47585 0.23307 0.0
H926 H 0.68908 0.4854 0.31269 0.0
C927 C 0.60803 0.4528 0.25269 0.0
C928 C 0.60852 0.4423 0.29478 0.0
H929 H 0.63483 0.48607 0.20275 0.0
H930 H 0.58553 0.44504 0.23612 0.0
C931 C 0.63843 0.45282 0.31473 0.0
C932 C 0.57938 0.20558 0.29637 0.0
C933 C 0.56825 0.19388 0.25476 0.0
H934 H 0.60763 0.20628 0.35016 0.0
C935 C 0.58229 0.17864 0.23234 0.0
H936 H 0.56833 0.21647 0.31493 0.0
C937 C 0.60491 0.17273 0.2525 0.0
C938 C 0.61318 0.18121 0.29588 0.0
H939 H 0.57347 0.16854 0.20069 0.0
H940 H 0.61368 0.15909 0.23543 0.0
C941 C 0.60135 0.19903 0.31688 0.0
C942 C 0.78902 0.51825 0.82841 0.0
C943 C 0.81391 0.54873 0.84018 0.0
H944 H 0.73846 0.48513 0.83057 0.0
C945 C 0.8081 0.56592 0.87176 0.0
H946 H 0.79286 0.5048 0.8035 0.0
C947 C 0.77712 0.55426 0.88805 0.0
C948 C 0.75132 0.52556 0.87235 0.0
H949 H 0.82674 0.58967 0.88079 0.0
H950 H 0.7726 0.5697 0.90866 0.0
C951 C 0.75791 0.50675 0.84434 0.0
C952 C 0.55303 0.25848 0.84091 0.0
C953 C 0.53505 0.236 0.87272 0.0
H954 H 0.55459 0.29256 0.79527 0.0
C955 C 0.50787 0.23603 0.88942 0.0
H956 H 0.57335 0.25829 0.82632 0.0
C957 C 0.49682 0.25533 0.87121 0.0
C958 C 0.5129 0.27511 0.83616 0.0
H959 H 0.49293 0.21826 0.91291 0.0
H960 H 0.47412 0.25248 0.88175 0.0
C961 C 0.54197 0.27776 0.82267 0.0
C962 C 0.77793 0.27172 0.82619 0.0
C963 C 0.78278 0.24661 0.83914 0.0
H964 H 0.79548 0.32213 0.82857 0.0
C965 C 0.80445 0.252 0.87263 0.0
H966 H 0.76165 0.26821 0.79992 0.0
C967 C 0.82328 0.28278 0.88977 0.0
C968 C 0.8212 0.30879 0.87317 0.0
H969 H 0.80898 0.23319 0.8827 0.0
H970 H 0.84239 0.28697 0.91194 0.0
C971 C 0.79697 0.30256 0.84308 0.0
C972 C 0.48373 0.24944 0.37098 0.0
C973 C 0.50329 0.24102 0.34746 0.0
H974 H 0.48004 0.28702 0.40232 0.0
C975 C 0.5362 0.26308 0.34461 0.0
H976 H 0.45819 0.23309 0.37292 0.0
C977 C 0.54864 0.29417 0.36077 0.0
C978 C 0.52852 0.30352 0.38096 0.0
H979 H 0.55164 0.25745 0.32576 0.0
H980 H 0.57318 0.3118 0.35336 0.0
C981 C 0.49637 0.28026 0.38823 0.0
C982 C 0.75666 0.26056 0.34381 0.0
C983 C 0.75053 0.23592 0.37283 0.0
H984 H 0.79108 0.29661 0.30179 0.0
C985 C 0.77667 0.23352 0.38865 0.0
H986 H 0.73697 0.2623 0.3299 0.0
C987 C 0.80751 0.25261 0.37181 0.0
C988 C 0.81287 0.27486 0.33942 0.0
H989 H 0.77252 0.21412 0.40998 0.0
H990 H 0.82642 0.24793 0.38121 0.0
C991 C 0.78761 0.27989 0.32726 0.0
C992 C 0.77431 0.51866 0.33019 0.0
C993 C 0.78019 0.54925 0.3419 0.0
H994 H 0.79159 0.48541 0.33152 0.0
C995 C 0.80428 0.56683 0.37218 0.0
H996 H 0.75624 0.50491 0.3062 0.0
C997 C 0.82399 0.55529 0.38747 0.0
C998 C 0.8204 0.52622 0.37219 0.0
H999 H 0.80972 0.59069 0.38107 0.0
H1000 H 0.84451 0.5709 0.4072 0.0
C1001 C 0.7943 0.50727 0.34511 0.0
C1002 C 0.67213 0.2048 0.7917 0.0
C1003 C 0.67051 0.19108 0.75121 0.0
H1004 H 0.64591 0.20744 0.84584 0.0
C1005 C 0.64045 0.17383 0.73086 0.0
H1006 H 0.69476 0.21737 0.80874 0.0
C1007 C 0.61237 0.16828 0.75198 0.0
C1008 C 0.61378 0.17903 0.79444 0.0
H1009 H 0.63839 0.16217 0.70022 0.0
H1010 H 0.58946 0.15325 0.73659 0.0
C1011 C 0.64404 0.19851 0.81331 0.0
C1012 C 0.88218 0.4765 0.73022 0.0
C1013 C 0.86634 0.49043 0.75141 0.0
H1014 H 0.90159 0.44513 0.73497 0.0
C1015 C 0.85389 0.47948 0.79272 0.0
H1016 H 0.89286 0.48519 0.69889 0.0
C1017 C 0.86013 0.45765 0.81412 0.0
C1018 C 0.87826 0.4457 0.79425 0.0
H1019 H 0.84245 0.49042 0.81035 0.0
H1020 H 0.85219 0.45141 0.84713 0.0
C1021 C 0.88765 0.45396 0.75118 0.0
C1022 C 0.60294 0.41414 0.80898 0.0
C1023 C 0.61356 0.44423 0.79013 0.0
H1024 H 0.57087 0.36362 0.80481 0.0
C1025 C 0.60335 0.44544 0.74809 0.0
H1026 H 0.61057 0.4124 0.84121 0.0
C1027 C 0.58034 0.41741 0.7274 0.0
C1028 C 0.56789 0.38753 0.74768 0.0
H1029 H 0.61103 0.46821 0.73273 0.0
H1030 H 0.57021 0.41937 0.69716 0.0
C1031 C 0.58067 0.38609 0.78776 0.0
C1032 C 0.52683 0.74669 0.64274 0.0
C1033 C 0.54574 0.7769 0.6239 0.0
H1034 H 0.50852 0.69624 0.63777 0.0
C1035 C 0.5562 0.77836 0.58126 0.0
H1036 H 0.51814 0.74472 0.6754 0.0
C1037 C 0.55085 0.75049 0.55984 0.0
C1038 C 0.53402 0.7205 0.58 0.0
H1039 H 0.57082 0.80122 0.56585 0.0
H1040 H 0.56227 0.75268 0.52899 0.0
C1041 C 0.5207 0.71879 0.62082 0.0
C1042 C 0.28175 0.78662 0.58632 0.0
C1043 C 0.28253 0.77871 0.62967 0.0
H1044 H 0.30824 0.81738 0.53387 0.0
C1045 C 0.3125 0.79074 0.65005 0.0
H1046 H 0.25909 0.77771 0.56969 0.0
C1047 C 0.34078 0.81234 0.62882 0.0
C1048 C 0.33963 0.82296 0.58714 0.0
H1049 H 0.31394 0.78476 0.68328 0.0
H1050 H 0.36305 0.82338 0.6468 0.0
C1051 C 0.30998 0.80892 0.5655 0.0
C1052 C 0.24815 0.50989 0.56318 0.0
C1053 C 0.23481 0.52627 0.58444 0.0
H1054 H 0.27884 0.48959 0.5678 0.0
C1055 C 0.24639 0.53894 0.62557 0.0
H1056 H 0.23897 0.49904 0.53198 0.0
C1057 C 0.26811 0.53232 0.64681 0.0
C1058 C 0.27933 0.51356 0.62697 0.0
H1059 H 0.23593 0.55081 0.64328 0.0
H1060 H 0.27475 0.54041 0.67975 0.0
C1061 C 0.27057 0.504 0.58399 0.0
C1062 C 0.42933 0.84224 0.17795 0.0
C1063 C 0.4224 0.86114 0.20536 0.0
H1064 H 0.46469 0.84001 0.13826 0.0
C1065 C 0.44802 0.89027 0.22034 0.0
H1066 H 0.41005 0.82033 0.16459 0.0
C1067 C 0.47914 0.90193 0.20446 0.0
C1068 C 0.48538 0.88439 0.17387 0.0
H1069 H 0.44326 0.90584 0.24031 0.0
H1070 H 0.49763 0.92583 0.21317 0.0
C1071 C 0.46059 0.85375 0.16245 0.0
C1072 C 0.20857 0.61185 0.16229 0.0
C1073 C 0.17858 0.60744 0.17475 0.0
H1074 H 0.24129 0.59395 0.16557 0.0
C1075 C 0.16193 0.58597 0.20803 0.0
H1076 H 0.22164 0.62799 0.1362 0.0
C1077 C 0.17357 0.56696 0.2255 0.0
C1078 C 0.20181 0.56875 0.20959 0.0
H1079 H 0.13856 0.58177 0.21772 0.0
H1080 H 0.15841 0.54805 0.24755 0.0
C1081 C 0.22012 0.5927 0.1796 0.0
C1082 C 0.46189 0.63009 0.19183 0.0
C1083 C 0.49141 0.63967 0.21213 0.0
H1084 H 0.42223 0.59315 0.1568 0.0
C1085 C 0.50055 0.61663 0.21942 0.0
H1086 H 0.45479 0.64757 0.18443 0.0
C1087 C 0.48252 0.58578 0.20215 0.0
C1088 C 0.45445 0.57712 0.1786 0.0
H1089 H 0.52369 0.62358 0.23362 0.0
H1090 H 0.49188 0.56959 0.20417 0.0
C1091 C 0.44337 0.59897 0.17567 0.0
C1092 C 0.21914 0.63499 0.67849 0.0
C1093 C 0.20088 0.6415 0.7077 0.0
H1094 H 0.22028 0.60035 0.6362 0.0
C1095 C 0.17232 0.6157 0.72365 0.0
H1096 H 0.24059 0.65441 0.66448 0.0
C1097 C 0.16023 0.58489 0.70665 0.0
C1098 C 0.17686 0.5792 0.67404 0.0
H1099 H 0.15722 0.62013 0.74512 0.0
H1100 H 0.13657 0.56629 0.7161 0.0
C1101 C 0.20723 0.60407 0.66184 0.0
C1102 C 0.47349 0.58851 0.70167 0.0
C1103 C 0.47771 0.60892 0.66721 0.0
H1104 H 0.43971 0.55115 0.74248 0.0
C1105 C 0.45163 0.61222 0.65384 0.0
H1106 H 0.49306 0.58514 0.71207 0.0
C1107 C 0.42108 0.59297 0.67153 0.0
C1108 C 0.41608 0.56998 0.70277 0.0
H1109 H 0.45423 0.62751 0.62684 0.0
H1110 H 0.40081 0.59332 0.65698 0.0
C1111 C 0.44296 0.56933 0.71944 0.0
C1112 C 0.49336 0.88712 0.72309 0.0
C1113 C 0.49021 0.85834 0.7074 0.0
H1114 H 0.47931 0.9226 0.71602 0.0
C1115 C 0.46453 0.83948 0.6797 0.0
H1116 H 0.51352 0.90257 0.74347 0.0
C1117 C 0.44487 0.851 0.66405 0.0
C1118 C 0.45069 0.88155 0.67575 0.0
H1119 H 0.46215 0.8178 0.66597 0.0
H1120 H 0.42733 0.8375 0.63935 0.0
C1121 C 0.47401 0.89881 0.70705 0.0
C1122 C 0.28324 0.50633 0.08879 0.0
C1123 C 0.2839 0.51424 0.13251 0.0
H1124 H 0.30993 0.50302 0.03566 0.0
C1125 C 0.31382 0.53183 0.1531 0.0
H1126 H 0.26062 0.49289 0.07199 0.0
C1127 C 0.34216 0.53881 0.13168 0.0
C1128 C 0.34115 0.52778 0.08953 0.0
H1129 H 0.31518 0.53867 0.18663 0.0
H1130 H 0.36435 0.54959 0.1498 0.0
C1131 C 0.31156 0.51264 0.06771 0.0
C1132 C 0.53064 0.78872 0.14603 0.0
C1133 C 0.55007 0.77827 0.12614 0.0
H1134 H 0.51234 0.82105 0.14376 0.0
C1135 C 0.56084 0.78858 0.08393 0.0
H1136 H 0.52142 0.78086 0.1782 0.0
C1137 C 0.55529 0.81138 0.06412 0.0
C1138 C 0.53833 0.82393 0.08563 0.0
H1139 H 0.57557 0.78085 0.06739 0.0
H1140 H 0.5669 0.82148 0.03367 0.0
C1141 C 0.52466 0.81115 0.12584 0.0
C1142 C 0.27289 0.77795 0.08583 0.0
C1143 C 0.28273 0.77731 0.12828 0.0
H1144 H 0.23991 0.7513 0.03507 0.0
C1145 C 0.27175 0.74751 0.14819 0.0
H1146 H 0.28091 0.80049 0.06962 0.0
C1147 C 0.24936 0.71923 0.1276 0.0
C1148 C 0.23689 0.72021 0.08709 0.0
H1149 H 0.27918 0.7462 0.18072 0.0
H1150 H 0.2392 0.69705 0.14541 0.0
C1151 C 0.2498 0.74971 0.06573 0.0
C1152 C 0.36443 0.1991 0.11218 0.0
C1153 C 0.33146 0.18122 0.12242 0.0
H1154 H 0.4128 0.21348 0.12993 0.0
C1155 C 0.32288 0.16376 0.16102 0.0
H1156 H 0.37235 0.21311 0.08295 0.0
C1157 C 0.3465 0.1642 0.1883 0.0
C1158 C 0.37944 0.18239 0.17808 0.0
H1159 H 0.298 0.15018 0.17056 0.0
H1160 H 0.33889 0.15007 0.21745 0.0
C1161 C 0.38794 0.19983 0.13958 0.0
C1162 C 0.89505 0.1714 0.15519 0.0
C1163 C 0.87149 0.15681 0.1232 0.0
H1164 H 0.91493 0.20664 0.20527 0.0
C1165 C 0.84969 0.16808 0.11743 0.0
H1166 H 0.91183 0.16313 0.16124 0.0
C1167 C 0.85104 0.19272 0.143 0.0
C1168 C 0.87421 0.20702 0.17549 0.0
H1169 H 0.83104 0.15748 0.0932 0.0
H1170 H 0.83401 0.20069 0.137 0.0
C1171 C 0.89634 0.19606 0.18098 0.0
C1172 C 0.85819 0.70981 0.18738 0.0
C1173 C 0.84408 0.67678 0.17835 0.0
H1174 H 0.89333 0.7579 0.16992 0.0
C1175 C 0.8553 0.66777 0.14231 0.0
H1176 H 0.85005 0.71789 0.21459 0.0
C1177 C 0.87956 0.69081 0.11614 0.0
C1178 C 0.89387 0.72387 0.1251 0.0
H1179 H 0.8448 0.64285 0.13357 0.0
H1180 H 0.88731 0.68245 0.08882 0.0
C1181 C 0.88279 0.73296 0.16134 0.0
C1182 C 0.19307 0.35934 0.2854 0.0
C1183 C 0.21244 0.39242 0.29379 0.0
H1184 H 0.17917 0.31134 0.30339 0.0
C1185 C 0.23305 0.40151 0.32964 0.0
H1186 H 0.17659 0.35095 0.25842 0.0
C1187 C 0.23434 0.37833 0.35582 0.0
C1188 C 0.2148 0.34529 0.34733 0.0
H1189 H 0.24795 0.42649 0.33778 0.0
H1190 H 0.25093 0.3864 0.38268 0.0
C1191 C 0.19411 0.33629 0.31172 0.0
C1192 C 0.66049 0.83734 0.31966 0.0
C1193 C 0.66944 0.82314 0.28719 0.0
H1194 H 0.67587 0.87201 0.37041 0.0
C1195 C 0.70252 0.83465 0.28104 0.0
H1196 H 0.63542 0.82883 0.326 0.0
C1197 C 0.72586 0.85918 0.30677 0.0
C1198 C 0.717 0.873 0.33987 0.0
H1199 H 0.71048 0.82426 0.25646 0.0
H1200 H 0.75088 0.86736 0.30056 0.0
C1201 C 0.68389 0.8618 0.34567 0.0
C1202 C 0.21971 0.86785 0.2791 0.0
C1203 C 0.23475 0.84995 0.28954 0.0
H1204 H 0.18512 0.88164 0.29583 0.0
C1205 C 0.22507 0.83185 0.3276 0.0
H1206 H 0.22636 0.88234 0.25028 0.0
C1207 C 0.2012 0.83171 0.3541 0.0
C1208 C 0.18647 0.84989 0.34366 0.0
H1209 H 0.23626 0.81823 0.33734 0.0
H1210 H 0.19414 0.81709 0.38282 0.0
C1211 C 0.19621 0.86794 0.30569 0.0
C1212 C 0.72409 0.86766 0.80259 0.0
C1213 C 0.71606 0.85138 0.842 0.0
H1214 H 0.70771 0.87915 0.74508 0.0
C1215 C 0.68325 0.83342 0.853 0.0
H1216 H 0.74883 0.88106 0.79237 0.0
C1217 C 0.65929 0.83202 0.82555 0.0
C1218 C 0.66737 0.8483 0.78604 0.0
H1219 H 0.676 0.82016 0.88289 0.0
H1220 H 0.63453 0.81866 0.83568 0.0
C1221 C 0.70021 0.86601 0.77504 0.0
C1222 C 0.22475 0.83583 0.82898 0.0
C1223 C 0.2075 0.8266 0.79007 0.0
H1224 H 0.23792 0.8657 0.88518 0.0
C1225 C 0.18952 0.84144 0.77894 0.0
H1226 H 0.23835 0.82472 0.83925 0.0
C1227 C 0.18856 0.86438 0.80575 0.0
C1228 C 0.20574 0.87361 0.84464 0.0
H1229 H 0.17565 0.83505 0.74943 0.0
H1230 H 0.1749 0.87541 0.79541 0.0
C1231 C 0.22396 0.85903 0.85573 0.0
C1232 C 0.19839 0.37757 0.85574 0.0
C1233 C 0.18371 0.34479 0.84492 0.0
H1234 H 0.23289 0.42603 0.83899 0.0
C1235 C 0.19288 0.33661 0.80622 0.0
H1236 H 0.19174 0.385 0.88504 0.0
C1237 C 0.21586 0.36026 0.77934 0.0
C1238 C 0.23085 0.39306 0.79021 0.0
H1239 H 0.18177 0.31192 0.79608 0.0
H1240 H 0.22218 0.3526 0.74998 0.0
C1241 C 0.22167 0.40132 0.82893 0.0
C1242 C 0.85802 0.69321 0.61095 0.0
C1243 C 0.87609 0.726 0.6218 0.0
H1244 H 0.84335 0.6448 0.62774 0.0
C1245 C 0.89357 0.73416 0.66055 0.0
H1246 H 0.84399 0.68562 0.58157 0.0
C1247 C 0.89288 0.71035 0.68741 0.0
C1248 C 0.87452 0.67758 0.6766 0.0
H1249 H 0.90726 0.75887 0.67059 0.0
H1250 H 0.90699 0.7177 0.71672 0.0
C1251 C 0.85714 0.66949 0.63787 0.0
C1252 C 0.36601 0.17245 0.60931 0.0
C1253 C 0.3333 0.15704 0.62114 0.0
H1254 H 0.41463 0.20707 0.62501 0.0
C1255 C 0.32548 0.16593 0.66042 0.0
H1256 H 0.3733 0.16632 0.57947 0.0
C1257 C 0.34956 0.18928 0.68694 0.0
C1258 C 0.38227 0.20443 0.67518 0.0
H1259 H 0.30086 0.15436 0.67121 0.0
H1260 H 0.34243 0.19562 0.71675 0.0
C1261 C 0.39002 0.19561 0.63585 0.0
C1262 C 0.88445 0.20276 0.60986 0.0
C1263 C 0.89959 0.18508 0.62099 0.0
H1264 H 0.8501 0.21699 0.62625 0.0
C1265 C 0.89054 0.16802 0.65989 0.0
H1266 H 0.8907 0.21649 0.58036 0.0
C1267 C 0.86721 0.16866 0.68658 0.0
C1268 C 0.85231 0.18655 0.67545 0.0
H1269 H 0.90189 0.15465 0.67017 0.0
H1270 H 0.86066 0.15483 0.716 0.0
C1271 C 0.86138 0.20358 0.63662 0.0
C1272 C 0.98971 0.49949 0.49438 0.0
C1273 C 0.9978 0.51675 0.45562 0.0
H1274 H 1.00637 0.4861 0.55045 0.0
C1275 C 1.03069 0.53459 0.44477 0.0
H1276 H 0.96494 0.48596 0.50443 0.0
C1277 C 0.05455 0.53543 0.47165 0.0
C1278 C 0.04654 0.5182 0.51032 0.0
H1279 H 0.03827 0.54846 0.4154 0.0
H1280 H 0.07929 0.54901 0.46148 0.0
C1281 C 1.01368 0.50009 0.52118 0.0
C1282 C 0.51406 0.52356 0.474 0.0
C1283 C 0.53713 0.5378 0.50665 0.0
H1284 H 0.49395 0.48807 0.42447 0.0
C1285 C 0.55905 0.52664 0.51255 0.0
H1286 H 0.49719 0.53167 0.46773 0.0
C1287 C 0.55766 0.50185 0.48702 0.0
C1288 C 0.53417 0.48727 0.45495 0.0
H1289 H 0.57756 0.53716 0.53695 0.0
H1290 H 0.57429 0.49343 0.49337 0.0
C1291 C 0.51256 0.49871 0.44875 0.0
C1292 C 0.55017 0.02607 0.44609 0.0
C1293 C 0.56496 0.05888 0.45681 0.0
H1294 H 0.51652 0.97768 0.46316 0.0
C1295 C 0.55592 0.06708 0.49571 0.0
H1296 H 0.55639 1.01843 0.41662 0.0
C1297 C 0.53292 0.04329 0.52278 0.0
C1298 C 0.51842 1.0105 0.51206 0.0
H1299 H 0.56698 0.09181 0.50567 0.0
H1300 H 0.52634 0.05067 0.55216 0.0
C1301 C 0.52749 1.00238 0.47323 0.0
C1302 C 0.56727 0.04516 0.01943 0.0
C1303 C 0.54825 1.01214 0.01038 0.0
H1304 H 0.58024 0.09327 0.00214 0.0
C1305 C 0.52783 1.00315 0.97448 0.0
H1306 H 0.58365 0.05323 0.04654 0.0
C1307 C 0.52654 0.0262 0.94846 0.0
C1308 C 0.54539 0.05925 0.95746 0.0
H1309 H 0.51331 0.97823 0.96572 0.0
H1310 H 0.51028 1.01785 0.92123 0.0
C1311 C 0.56576 0.06833 -0.00646 0.0
C1312 C 0.99284 0.50272 -0.0057 0.0
C1313 C 1.00074 0.49367 0.9552 0.0
H1314 H 1.00972 0.53235 0.05069 0.0
C1315 C 1.03356 0.50856 0.94399 0.0
H1316 H 0.96813 0.49156 0.00464 0.0
C1317 C 0.05757 0.53142 0.97086 0.0
C1318 C 0.04972 0.54049 0.00989 0.0
H1319 H 0.04094 0.50229 0.91434 0.0
H1320 H 0.08226 0.54253 0.96044 0.0
C1321 C 1.01692 0.52581 0.02111 0.0
C1322 C 0.5337 0.50063 0.01895 0.0
C1323 C 0.51893 0.5187 0.00834 0.0
H1324 H 0.5676 0.48595 0.00122 0.0
C1325 C 0.5273 0.53535 0.9692 0.0
H1326 H 0.52762 0.48711 0.04862 0.0
C1327 C 0.54956 0.53392 0.94154 0.0
C1328 C 0.56458 0.51607 0.95214 0.0
H1329 H 0.51603 0.54887 0.95928 0.0
H1330 H 0.5553 0.54734 0.9118 0.0
C1331 C 0.55628 0.49944 -0.00861 0.0
C1332 C 0.37358 0.279 0.93527 0.0
C1333 C 0.34154 0.25571 0.92782 0.0
H1334 H 0.41908 0.31074 0.90733 0.0
C1335 C 0.33097 0.24601 0.88533 0.0
H1336 H 0.3824 0.28699 0.96765 0.0
C1337 C 0.35174 0.25986 0.85092 0.0
C1338 C 0.38363 0.28347 0.85824 0.0
H1339 H 0.3064 0.22813 0.87838 0.0
H1340 H 0.34276 0.2519 0.81859 0.0
C1341 C 0.39451 0.29269 0.90074 0.0
C1342 C 0.8047 0.08474 0.8809 0.0
C1343 C 0.80293 0.09391 0.92334 0.0
H1344 H 0.79211 0.08452 0.81505 0.0
C1345 C 0.78765 0.11158 0.93144 0.0
H1346 H 0.81653 0.07125 0.87362 0.0
C1347 C 0.77343 0.11902 0.8978 0.0
C1348 C 0.7744 0.10902 0.85552 0.0
H1349 H 0.78584 0.11887 0.96385 0.0
H1350 H 0.76149 0.1324 0.90508 0.0
C1351 C 0.79055 0.09219 0.84732 0.0
C1352 C 0.94953 0.66281 0.90244 0.0
C1353 C 0.95155 0.67389 0.86003 0.0
H1354 H 0.95403 0.67411 0.9697 0.0
C1355 C 0.95893 0.70547 0.85327 0.0
H1356 H 0.94369 0.63847 0.90866 0.0
C1357 C 0.96429 0.72562 0.88812 0.0
C1358 C 0.96275 0.71477 0.93057 0.0
H1359 H 0.9602 0.7146 0.82105 0.0
H1360 H 0.97018 0.74993 0.88157 0.0
C1361 C 0.95522 0.68312 0.93742 0.0
C1362 C 0.28821 0.33069 0.57323 0.0
C1363 C 0.28998 0.34074 0.53033 0.0
H1364 H 0.292 0.34335 0.6399 0.0
C1365 C 0.2965 0.37186 0.52194 0.0
H1366 H 0.28307 0.30672 0.5806 0.0
C1367 C 0.30099 0.39254 0.55576 0.0
C1368 C 0.29947 0.38266 0.59871 0.0
H1369 H 0.29753 0.38012 0.48923 0.0
H1370 H 0.30613 0.41647 0.54808 0.0
C1371 C 0.29309 0.35155 0.60716 0.0
C1372 C 0.7081 0.94684 0.59997 0.0
C1373 C 0.67605 0.92366 0.59232 0.0
H1374 H 0.75362 0.9788 0.57231 0.0
C1375 C 0.66542 0.91462 0.54969 0.0
H1376 H 0.71695 0.95436 0.63245 0.0
C1377 C 0.68619 0.92887 0.51537 0.0
C1378 C 0.71814 0.95224 0.52291 0.0
H1379 H 0.64083 0.89687 0.54259 0.0
H1380 H 0.6772 0.92133 0.48294 0.0
C1381 C 0.72902 0.96093 0.56553 0.0
C1382 C 0.0939 0.77224 0.56749 0.0
C1383 C 0.10384 0.77137 0.52515 0.0
H1384 H 0.09985 0.76645 0.6346 0.0
C1385 C 0.12857 0.76458 0.51834 0.0
H1386 H 0.07494 0.77756 0.5737 0.0
C1387 C 0.1431 0.75879 0.55308 0.0
C1388 C 0.13299 0.75926 0.59545 0.0
H1389 H 0.13707 0.76418 0.48617 0.0
H1390 H 0.162 0.75345 0.5465 0.0
C1391 C 0.10826 0.76608 0.60236 0.0
C1392 C 0.66196 0.74616 0.04653 0.0
C1393 C 0.67291 0.75665 0.08869 0.0
H1394 H 0.67446 0.74538 -0.01918 0.0
C1395 C 0.70583 0.77555 0.09654 0.0
H1396 H 0.63665 0.73161 0.03948 0.0
C1397 C 0.72748 0.78321 0.06296 0.0
C1398 C 0.71657 0.77225 0.0209 0.0
H1399 H 0.71495 0.78387 0.12871 0.0
H1400 H 0.75278 0.79775 0.0701 0.0
C1401 C 0.68361 0.7539 0.01293 0.0
C1402 C 0.28254 0.96155 0.07003 0.0
C1403 C 0.28395 0.95277 0.02722 0.0
H1404 H 0.28934 0.95521 0.13662 0.0
C1405 C 0.29256 0.92955 0.01898 0.0
H1406 H 0.27583 0.97933 0.07733 0.0
C1407 C 0.2998 0.91547 0.05283 0.0
C1408 C 0.29894 0.92457 0.09565 0.0
H1409 H 0.29344 0.92198 -0.01362 0.0
H1410 H 0.30665 0.89783 0.04522 0.0
C1411 C 0.29012 0.94766 0.10398 0.0
C1412 C 0.11007 0.35181 0.10553 0.0
C1413 C 0.13486 0.38314 0.09849 0.0
H1414 H 0.07596 0.30741 0.07708 0.0
C1415 C 0.14428 0.39374 0.05597 0.0
H1416 H 0.10213 0.34302 0.13785 0.0
C1417 C 0.12898 0.3736 0.02123 0.0
C1418 C 0.10419 0.34231 0.02822 0.0
H1419 H 0.16319 0.41783 0.04929 0.0
H1420 H 0.13696 0.38246 -0.01106 0.0
C1421 C 0.09495 0.33152 0.0707 0.0
C1422 C 0.80622 0.72665 0.38667 0.0
C1423 C 0.79792 0.71677 0.42964 0.0
H1424 H 0.79726 0.71408 0.32013 0.0
C1425 C 0.77335 0.68559 0.43813 0.0
H1426 H 0.82489 0.75065 0.37898 0.0
C1427 C 0.75745 0.66465 0.40424 0.0
C1428 C 0.76567 0.67466 0.36133 0.0
H1429 H 0.76629 0.67739 0.47088 0.0
H1430 H 0.73872 0.64063 0.41169 0.0
C1431 C 0.79012 0.70585 0.35286 0.0
C1432 C 0.32945 0.08734 0.38537 0.0
C1433 C 0.34 0.08831 0.42793 0.0
H1434 H 0.34136 0.09315 0.31859 0.0
C1435 C 0.37176 0.09595 0.43534 0.0
H1436 H 0.30502 0.08127 0.37844 0.0
C1437 C 0.39261 0.1027 0.4008 0.0
C1438 C 0.38196 0.10167 0.35829 0.0
H1439 H 0.3805 0.09666 0.46773 0.0
H1440 H 0.41708 0.10879 0.40746 0.0
C1441 C 0.35016 0.09379 0.35092 0.0
C1442 C 0.96742 0.25026 0.38463 0.0
C1443 C 0.96645 0.25971 0.42725 0.0
H1444 H 0.96167 0.25655 0.31787 0.0
C1445 C 0.95837 0.28342 0.43482 0.0
H1446 H 0.97373 0.23216 0.37758 0.0
C1447 C 0.95147 0.29745 0.40037 0.0
C1448 C 0.95282 0.28819 0.35778 0.0
H1449 H 0.95759 0.29129 0.46727 0.0
H1450 H 0.94523 0.31565 0.40712 0.0
C1451 C 0.96084 0.26448 0.35027 0.0
C1452 C 1.01825 0.59557 0.18419 0.0
C1453 C 0.05014 0.61874 0.19253 0.0
H1454 H 0.97238 0.56374 0.21035 0.0
C1455 C 0.06038 0.62729 0.23539 0.0
H1456 H 1.00975 0.58819 0.15154 0.0
C1457 C 0.03893 0.61323 0.26929 0.0
C1458 C 1.00696 0.59019 0.26087 0.0
H1459 H 0.08492 0.64503 0.2428 0.0
H1460 H 0.04733 0.62061 0.30196 0.0
C1461 C 0.99692 0.58132 0.218 0.0
C1462 C 0.46566 0.41097 0.21396 0.0
C1463 C 0.46555 0.42177 0.25602 0.0
H1464 H 0.45276 0.41055 0.14808 0.0
C1465 C 0.45279 0.44177 0.26347 0.0
H1466 H 0.4755 0.3956 0.20719 0.0
C1467 C 0.43957 0.45013 0.22963 0.0
C1468 C 0.43904 0.43877 0.18771 0.0
H1469 H 0.45233 0.45043 0.29553 0.0
H1470 H 0.42972 0.46547 0.23649 0.0
C1471 C 0.45254 0.41941 0.18008 0.0
C1472 C 0.63517 0.06094 0.21931 0.0
C1473 C 0.63334 0.05064 0.26211 0.0
H1474 H 0.63224 0.04911 0.15254 0.0
C1475 C 0.62695 1.01948 0.27006 0.0
H1476 H 0.64034 0.08494 0.21205 0.0
C1477 C 0.62246 0.99901 0.23584 0.0
C1478 C 0.62451 1.00942 0.19309 0.0
H1479 H 0.62563 1.01095 0.30266 0.0
H1480 H 0.61736 0.97501 0.24292 0.0
C1481 C 0.63098 0.04058 0.18513 0.0
C1482 C 0.42772 0.99602 0.73772 0.0
C1483 C 0.43698 1.00674 0.69522 0.0
H1484 H 0.43408 1.00807 0.80482 0.0
C1485 C 0.46095 0.03837 0.68811 0.0
H1486 H 0.40936 0.97165 0.74418 0.0
C1487 C 0.47537 0.05893 0.72268 0.0
C1488 C 0.46592 0.04847 0.76523 0.0
H1489 H 0.46894 0.04725 0.65583 0.0
H1490 H 0.49367 0.08325 0.7158 0.0
C1491 C 0.44198 1.01678 0.77246 0.0
C1492 C 0.0607 0.44137 0.73432 0.0
C1493 C 0.04996 0.43979 0.69174 0.0
H1494 H 0.04849 0.43548 0.80123 0.0
C1495 C 1.01805 0.43151 0.68425 0.0
H1496 H 0.08526 0.44782 0.74105 0.0
C1497 C 0.99725 0.42495 0.71859 0.0
C1498 C 1.0078 0.42619 0.7612 0.0
H1499 H 1.00916 0.43048 0.65187 0.0
H1500 H 0.97272 0.41846 0.71153 0.0
C1501 C 0.03973 0.43447 0.76878 0.0
C1502 C 0.61441 0.62768 0.73095 0.0
C1503 C 0.61621 0.61865 0.68841 0.0
H1504 H 0.62054 0.62167 0.79788 0.0
C1505 C 0.62475 0.59528 0.68101 0.0
H1506 H 0.60772 0.64557 0.7376 0.0
C1507 C 0.63161 0.58136 0.71539 0.0
C1508 C 0.63042 0.59074 0.75794 0.0
H1509 H 0.62591 0.5875 0.64864 0.0
H1510 H 0.63841 0.5636 0.70838 0.0
C1511 C 0.62158 0.61392 0.76546 0.0
C1512 C 0.22198 0.23367 0.24419 0.0
C1513 C 0.24758 0.2587 0.26624 0.0
H1514 H 0.20679 0.20298 0.18987 0.0
C1515 C 0.27837 0.2735 0.24823 0.0
H1516 H 0.19795 0.22199 0.25726 0.0
C1517 C 0.28361 0.26241 0.20927 0.0
C1518 C 0.25805 0.23653 0.18807 0.0
H1519 H 0.29852 0.29274 0.26496 0.0
H1520 H 0.3076 0.27378 0.19611 0.0
C1521 C 0.22715 0.22268 0.2056 0.0
C1522 C 0.78046 1.01175 0.19697 0.0
C1523 C 0.80867 1.01768 0.17609 0.0
H1524 H 0.75192 0.9936 0.25387 0.0
C1525 C 0.82743 1.00565 0.19332 0.0
H1526 H 0.76549 1.0205 0.18376 0.0
C1527 C 0.81971 0.99028 0.23266 0.0
C1528 C 0.7931 0.98667 0.25552 0.0
H1529 H 0.84877 1.00902 0.177 0.0
H1530 H 0.83538 0.98238 0.24595 0.0
C1531 C 0.77271 0.99631 0.23678 0.0
C1532 C 1.02969 0.77573 0.21007 0.0
C1533 C 1.02878 0.80053 0.18783 0.0
H1534 H 0.04826 0.76308 0.26468 0.0
C1535 C 0.04876 0.83224 0.20119 0.0
H1536 H 1.01499 0.75113 0.19996 0.0
C1537 C 0.06787 0.83898 0.23735 0.0
C1538 C 0.06747 0.8142 0.26097 0.0
H1539 H 0.04932 0.85207 0.18423 0.0
H1540 H 0.08207 0.86357 0.24782 0.0
C1541 C 0.04905 0.78257 0.24654 0.0
C1542 C 0.79768 0.78234 0.70651 0.0
C1543 C 0.82527 0.80628 0.68625 0.0
H1544 H 0.76577 0.77023 0.76008 0.0
C1545 C 0.84072 0.83737 0.70321 0.0
H1546 H 0.78503 0.75828 0.69372 0.0
C1547 C 0.82953 0.84421 0.74047 0.0
C1548 C 0.80267 0.82014 0.76156 0.0
H1549 H 0.86178 0.85651 0.68807 0.0
H1550 H 0.84244 0.86824 0.75337 0.0
C1551 C 0.78637 0.78927 0.74398 0.0
C1552 C 0.27226 1.00718 0.74742 0.0
C1553 C 0.24094 0.99143 0.76375 0.0
H1554 H 0.30338 0.03713 0.69751 0.0
C1555 C 0.21628 0.992 0.74069 0.0
H1556 H 0.29169 1.00724 0.76506 0.0
C1557 C 0.22289 1.00917 0.70285 0.0
C1558 C 0.25439 0.02623 0.68718 0.0
H1559 H 0.19189 0.97984 0.75255 0.0
H1560 H 0.20319 1.00936 0.6863 0.0
C1561 C 0.27899 0.0246 0.70925 0.0
C1562 C 0.04848 0.22501 0.70276 0.0
C1563 C 1.03083 0.23865 0.68656 0.0
H1564 H 0.07827 0.22448 0.75299 0.0
C1565 C 1.03189 0.2647 0.70827 0.0
H1566 H 0.04873 0.2053 0.68651 0.0
C1567 C 0.04931 0.27596 0.74655 0.0
C1568 C 0.06565 0.26117 0.76344 0.0
H1569 H 1.0189 0.27598 0.69615 0.0
H1570 H 0.04878 0.29516 0.76386 0.0
C1571 C 0.06566 0.23614 0.74073 0.0
C1572 C 0.93997 0.60881 0.57846 0.0
C1573 C 0.90859 0.59511 0.59426 0.0
H1574 H 0.97044 0.6075 0.52929 0.0
C1575 C 0.88321 0.57117 0.5706 0.0
H1576 H 0.95991 0.62717 0.59657 0.0
C1577 C 0.88913 0.55977 0.53284 0.0
C1578 C 0.92063 0.57204 0.51798 0.0
H1579 H 0.85878 0.56044 0.58209 0.0
H1580 H 0.86891 0.54083 0.51585 0.0
C1581 C 0.94599 0.59726 0.54044 0.0
C1582 C 0.49091 0.33664 0.52758 0.0
C1583 C 0.47195 0.34855 0.5107 0.0
H1584 H 0.4993 0.31345 0.57989 0.0
C1585 C 0.44379 0.34244 0.53188 0.0
H1586 H 0.5122 0.34013 0.51099 0.0
C1587 C 0.43632 0.32698 0.5717 0.0
C1588 C 0.45693 0.31749 0.5901 0.0
H1589 H 0.42865 0.35107 0.51891 0.0
H1590 H 0.41559 0.32416 0.58907 0.0
C1591 C 0.48346 0.32124 0.56688 0.0
C1592 C 0.71681 0.16918 0.53266 0.0
C1593 C 0.69758 0.13752 0.51861 0.0
H1594 H 0.74865 0.2003 0.58073 0.0
C1595 C 0.69828 0.1127 0.54105 0.0
H1596 H 0.71744 0.18899 0.51561 0.0
C1597 C 0.71674 0.11943 0.57836 0.0
C1598 C 0.7344 0.15096 0.59338 0.0
H1599 H 0.68411 0.08816 0.53044 0.0
H1600 H 0.7158 0.09992 0.59661 0.0
C1601 C 0.735 0.17579 0.56971 0.0
C1602 C 0.4938 0.17488 0.07676 0.0
C1603 C 0.46687 0.15074 0.09768 0.0
H1604 H 0.52656 0.18732 0.02495 0.0
C1605 C 0.45102 0.11979 0.08024 0.0
H1606 H 0.50642 0.19896 0.08948 0.0
C1607 C 0.46279 0.1129 0.04312 0.0
C1608 C 0.49044 0.13695 0.02305 0.0
H1609 H 0.43037 0.10069 0.09617 0.0
H1610 H 0.45044 0.08882 0.03042 0.0
C1611 C 0.50547 0.16807 0.03991 0.0
C1612 C 0.88402 0.3259 0.07109 0.0
C1613 C 0.90899 0.32593 0.09415 0.0
H1614 H 0.87049 0.34353 0.01736 0.0
C1615 C 0.94043 0.34296 0.07841 0.0
H1616 H 0.85954 0.31276 0.08251 0.0
C1617 C 0.94693 0.36111 0.04096 0.0
C1618 C 0.922 0.3622 0.01901 0.0
H1619 H 0.96009 0.34351 0.09607 0.0
H1620 H 0.97142 0.37465 0.02974 0.0
C1621 C 0.89042 0.34381 0.03394 0.0
C1622 C 0.70763 0.60533 0.07985 0.0
C1623 C 0.72429 0.59114 0.09755 0.0
H1624 H 0.67843 0.60524 0.02776 0.0
C1625 C 0.72592 0.56694 0.07487 0.0
H1626 H 0.70589 0.6239 0.09709 0.0
C1627 C 0.71016 0.55615 0.03588 0.0
C1628 C 0.69236 0.56931 0.01869 0.0
H1629 H 0.73886 0.5558 0.08773 0.0
H1630 H 0.71169 0.53714 0.01956 0.0
C1631 C 0.69164 0.5944 0.04058 0.0
C1632 C 0.61881 0.92759 0.87404 0.0
C1633 C 0.5929 0.90252 0.85215 0.0
H1634 H 0.63402 0.95786 0.92985 0.0
C1635 C 0.56177 0.89036 0.86835 0.0
H1636 H 0.64301 0.93771 0.86194 0.0
C1637 C 0.5567 0.90204 0.90647 0.0
C1638 C 0.58259 0.92614 0.92928 0.0
H1639 H 0.54116 0.87145 0.85194 0.0
H1640 H 0.53248 0.89159 0.91868 0.0
C1641 C 0.61366 0.93941 0.91246 0.0
C1642 C 0.15798 0.65972 0.90659 0.0
C1643 C 0.13277 0.65912 0.92967 0.0
H1644 H 0.18881 0.67762 0.85264 0.0
C1645 C 0.11761 0.67538 0.91377 0.0
H1646 H 0.16991 0.64718 0.91814 0.0
C1647 C 0.12871 0.69334 0.87606 0.0
C1648 C 0.15495 0.69501 0.85402 0.0
H1649 H 0.09827 0.67543 0.93145 0.0
H1650 H 0.11718 0.70627 0.86468 0.0
C1651 C 0.16895 0.67743 0.86921 0.0
C1652 C 0.39694 0.5112 0.90822 0.0
C1653 C 0.40008 0.48724 0.92901 0.0
H1654 H 0.37629 0.52329 0.8564 0.0
C1655 C 0.38531 0.45633 0.91152 0.0
H1656 H 0.40817 0.53524 0.92107 0.0
C1657 C 0.3666 0.44927 0.87443 0.0
C1658 C 0.36268 0.47312 0.85444 0.0
H1659 H 0.38712 0.43737 0.92741 0.0
H1660 H 0.3551 0.42521 0.86167 0.0
C1661 C 0.37844 0.50423 0.87133 0.0
C1662 C 0.15498 0.50829 0.40499 0.0
C1663 C 0.13034 0.48356 0.42838 0.0
H1664 H 0.1867 0.52128 0.35199 0.0
C1665 C 0.11676 0.45196 0.41369 0.0
H1666 H 0.16566 0.53285 0.41567 0.0
C1667 C 0.12914 0.44509 0.37718 0.0
C1668 C 0.15507 0.46982 0.35514 0.0
H1669 H 0.09787 0.43251 0.43166 0.0
H1670 H 0.11894 0.42051 0.36687 0.0
C1671 C 0.16723 0.50152 0.36877 0.0
C1672 C 0.56133 0.67332 0.35981 0.0
C1673 C 0.592 0.68449 0.34262 0.0
H1674 H 0.52958 0.65007 0.41189 0.0
C1675 C 0.61345 0.67715 0.36304 0.0
H1676 H 0.54393 0.67774 0.34378 0.0
C1677 C 0.60514 0.66113 0.40242 0.0
C1678 C 0.57527 0.65225 0.42114 0.0
H1679 H 0.63704 0.68516 0.3498 0.0
H1680 H 0.62265 0.6573 0.41918 0.0
C1681 C 0.55302 0.65731 0.39866 0.0
C1682 C 0.40283 0.90339 0.4064 0.0
C1683 C 0.402 0.92771 0.42981 0.0
H1684 H 0.38657 0.8732 0.35152 0.0
C1685 C 0.38516 0.94215 0.41353 0.0
H1686 H 0.41588 0.89207 0.41825 0.0
C1687 C 0.36784 0.93105 0.3752 0.0
C1688 C 0.36743 0.90555 0.35288 0.0
H1689 H 0.38406 0.96083 0.43143 0.0
H1690 H 0.35432 0.94191 0.36362 0.0
C1691 C 0.38577 0.89244 0.36833 0.0
C1692 C 0.30437 0.34016 -0.0001 0.0
C1693 C 0.28708 0.31883 0.03293 0.0
H1694 H 0.33904 0.38821 -0.01597 0.0
C1695 C 0.28561 0.33108 0.07362 0.0
H1696 H 0.30604 0.33142 0.9684 0.0
C1697 C 0.30487 0.36355 0.08296 0.0
C1698 C 0.32588 0.38419 0.05167 0.0
H1699 H 0.27227 0.315 0.09964 0.0
H1700 H 0.30567 0.37171 0.11571 0.0
C1701 C 0.32366 0.37265 0.00923 0.0
C1702 C 0.68741 0.94746 0.01378 0.0
C1703 C 0.68121 0.94677 0.05825 0.0
H1704 H 0.72322 0.96313 0.96464 0.0
C1705 C 0.70579 0.95278 0.08751 0.0
H1706 H 0.66873 0.94249 -0.00956 0.0
C1707 C 0.73707 0.96399 0.07239 0.0
C1708 C 0.744 0.9694 0.02806 0.0
H1709 H 0.70174 0.95243 0.12187 0.0
H1710 H 0.75639 0.97255 0.09568 0.0
C1711 C 0.71855 0.95871 -0.00118 0.0
C1712 C 0.09206 0.77188 0.07941 0.0
C1713 C 0.07897 0.7705 0.03823 0.0
H1714 H 0.11249 0.752 0.12212 0.0
C1715 C 0.08438 0.75407 0.00518 0.0
H1716 H 0.08833 0.78464 0.10544 0.0
C1717 C 0.09815 0.73532 0.01484 0.0
C1718 C 0.10664 0.73277 0.05763 0.0
H1719 H 0.07454 0.75254 0.97329 0.0
H1720 H 0.09933 0.72047 -0.01045 0.0
C1721 C 0.10579 0.7531 0.08911 0.0
C1722 C 0.40098 0.29367 0.40907 0.0
C1723 C 0.4075 0.29837 0.36457 0.0
H1724 H 0.36615 0.28309 0.45896 0.0
C1725 C 0.38177 0.28722 0.33572 0.0
H1726 H 0.42053 0.30256 0.43204 0.0
C1727 C 0.35079 0.27633 0.35108 0.0
C1728 C 0.34503 0.27642 0.39557 0.0
H1729 H 0.38613 0.29107 0.30141 0.0
H1730 H 0.33192 0.2711 0.32794 0.0
C1731 C 0.36986 0.28281 0.42458 0.0
C1732 C 0.76039 0.06589 0.34215 0.0
C1733 C 0.77111 0.06486 0.38418 0.0
H1734 H 0.73679 0.08366 0.30159 0.0
C1735 C 0.77394 0.08771 0.41435 0.0
H1736 H 0.75877 0.04913 0.31769 0.0
C1737 C 0.76188 0.10794 0.40462 0.0
C1738 C 0.74677 0.10553 0.36471 0.0
H1739 H 0.78254 0.0879 0.44668 0.0
H1740 H 0.76104 0.12289 0.43006 0.0
C1741 C 0.74833 0.08612 0.33246 0.0
C1742 C 0.99036 0.70408 0.34077 0.0
C1743 C 0.99114 0.7153 0.38305 0.0
H1744 H 0.97254 0.66328 0.29925 0.0
C1745 C 0.96752 0.6953 0.4123 0.0
H1746 H 1.00769 0.71929 0.31699 0.0
C1747 C 0.94689 0.66332 0.40159 0.0
C1748 C 0.94976 0.65097 0.36168 0.0
H1749 H 0.96712 0.70335 0.44476 0.0
H1750 H 0.93148 0.64736 0.42647 0.0
C1751 C 0.96974 0.67211 0.33011 0.0
C1752 C 0.7609 0.66371 0.90606 0.0
C1753 C 0.74754 0.65184 0.86504 0.0
H1754 H 0.78139 0.70404 0.94873 0.0
C1755 C 0.75225 0.67351 0.83218 0.0
H1756 H 0.75764 0.64738 0.93198 0.0
C1757 C 0.76571 0.70596 0.8419 0.0
C1758 C 0.77465 0.71717 0.88457 0.0
H1759 H 0.74212 0.66508 0.80044 0.0
H1760 H 0.76637 0.7218 0.81676 0.0
C1761 C 0.77437 0.69616 0.9158 0.0
C1762 C 0.35189 0.06874 0.84866 0.0
C1763 C 0.34087 0.06639 0.8914 0.0
H1764 H 0.3927 0.08631 0.80707 0.0
C1765 C 0.36194 0.08727 0.9226 0.0
H1766 H 0.33594 0.05347 0.82355 0.0
C1767 C 0.3944 0.10651 0.91277 0.0
C1768 C 0.40619 0.10504 0.87172 0.0
H1769 H 0.35414 0.08635 0.95556 0.0
H1770 H 0.41086 0.11975 0.93867 0.0
C1771 C 0.38436 0.08795 0.83887 0.0
C1772 C 0.96802 0.30626 0.83411 0.0
C1773 C 0.94933 0.30951 0.86594 0.0
H1774 H 1.00452 0.29471 0.82089 0.0
C1775 C 0.9468 0.29545 0.90661 0.0
H1776 H 0.97045 0.31688 0.80263 0.0
C1777 C 0.96685 0.28337 0.91759 0.0
C1778 C 0.98944 0.28505 0.88782 0.0
H1779 H 0.93232 0.29755 0.93168 0.0
H1780 H 0.96699 0.27603 0.9505 0.0
C1781 C 0.98799 0.29411 0.84501 0.0
C1782 C 0.71977 0.7522 0.49835 0.0
C1783 C 0.74041 0.77212 0.53061 0.0
H1784 H 0.67266 0.7145 0.48328 0.0
C1785 C 0.7273 0.7744 0.57019 0.0
H1786 H 0.72917 0.74981 0.46773 0.0
C1787 C 0.695 0.75376 0.57958 0.0
C1788 C 0.67536 0.73057 0.54946 0.0
H1789 H 0.74281 0.78971 0.59563 0.0
H1790 H 0.68631 0.75402 0.61167 0.0
C1791 C 0.68749 0.73153 0.50773 0.0
C1792 C 0.32284 0.95927 0.5109 0.0
C1793 C 0.32398 0.94956 0.55344 0.0
H1794 H 0.30493 0.98192 0.46895 0.0
C1795 C 0.30072 0.94673 0.5829 0.0
H1796 H 0.33989 0.96076 0.48698 0.0
C1797 C 0.28017 0.95824 0.57203 0.0
C1798 C 0.28282 0.97286 0.53178 0.0
H1799 H 0.30059 0.93884 0.61557 0.0
H1800 H 0.26508 0.95942 0.59699 0.0
C1801 C 0.30234 0.97082 0.5001 0.0
C1802 C 0.09699 0.37298 0.5092 0.0
C1803 C 0.10695 0.38421 0.55163 0.0
H1804 H 0.07399 0.33213 0.4677 0.0
C1805 C 0.10958 0.36399 0.58153 0.0
H1806 H 0.09558 0.38832 0.48497 0.0
C1807 C 0.09779 0.33188 0.57113 0.0
C1808 C 0.08311 0.31962 0.53085 0.0
H1809 H 0.1176 0.37201 0.61415 0.0
H1810 H 0.09656 0.31585 0.59636 0.0
C1811 C 0.08517 0.34088 0.49885 0.0
C1812 C 1.0298 0.61597 0.74837 0.0
C1813 C 1.0093 0.61845 0.71862 0.0
H1814 H 0.07829 0.62949 0.76318 0.0
C1815 C 1.02038 0.62856 0.67627 0.0
H1816 H 1.02188 0.60783 0.78091 0.0
C1817 C 0.05263 0.64076 0.66596 0.0
C1818 C 0.07415 0.64303 0.69793 0.0
H1819 H 1.00479 0.62983 0.65215 0.0
H1820 H 0.06124 0.65207 0.63495 0.0
C1821 C 0.06205 0.62812 0.73799 0.0
C1822 C 0.42378 0.39622 0.67734 0.0
C1823 C 0.43521 0.39552 0.71903 0.0
H1824 H 0.40038 0.41442 0.63717 0.0
C1825 C 0.43904 0.41892 0.74891 0.0
H1826 H 0.42135 0.37901 0.65308 0.0
C1827 C 0.4275 0.43961 0.73929 0.0
C1828 C 0.41198 0.4372 0.69974 0.0
H1829 H 0.44818 0.41937 0.78095 0.0
H1830 H 0.4276 0.45517 0.76455 0.0
C1831 C 0.4123 0.41695 0.66774 0.0
C1832 C 0.63897 0.0287 0.75139 0.0
C1833 C 0.65955 0.04968 0.72003 0.0
H1834 H 0.60678 0.97996 0.76762 0.0
C1835 C 0.65697 0.03848 0.67731 0.0
H1836 H 0.64006 0.0366 0.78435 0.0
C1837 C 0.63775 1.00606 0.6676 0.0
C1838 C 0.62088 0.98441 0.7005 0.0
H1839 H 0.672 0.05432 0.65208 0.0
H1840 H 0.63917 0.99763 0.63575 0.0
C1841 C 0.61977 0.99628 0.74165 0.0
C1842 C 0.44492 0.02979 0.24707 0.0
C1843 C 0.44211 0.05007 0.21746 0.0
H1844 H 0.43181 0.9816 0.26161 0.0
C1845 C 0.43197 0.03896 0.17503 0.0
H1846 H 0.45308 0.03773 0.27968 0.0
C1847 C 0.41997 1.00686 0.16455 0.0
C1848 C 0.41795 0.98552 0.19641 0.0
H1849 H 0.43045 0.05437 0.151 0.0
H1850 H 0.40856 0.99817 0.1335 0.0
C1851 C 0.43297 0.9977 0.23651 0.0
C1852 C 1.0211 0.4033 0.17887 0.0
C1853 C 1.00965 0.40122 0.22132 0.0
H1854 H 0.06233 0.42041 0.13819 0.0
C1855 C 1.03044 0.42221 0.25266 0.0
H1856 H 1.00537 0.38794 0.15365 0.0
C1857 C 0.06303 0.44123 0.24339 0.0
C1858 C 0.07519 0.43942 0.20279 0.0
H1859 H 1.02232 0.4215 0.28538 0.0
H1860 H 0.07924 0.45453 0.26948 0.0
C1861 C 0.05368 0.4223 0.16965 0.0
C1862 C 0.60803 0.62934 0.24166 0.0
C1863 C 0.60599 0.63395 0.19718 0.0
H1864 H 0.63215 0.61834 0.29134 0.0
C1865 C 0.61998 0.62232 0.16819 0.0
H1866 H 0.59783 0.6386 0.26472 0.0
C1867 C 0.63972 0.61095 0.18338 0.0
C1868 C 0.64584 0.61108 0.22782 0.0
H1869 H 0.61931 0.62609 0.13389 0.0
H1870 H 0.65292 0.6053 0.16011 0.0
C1871 C 0.62794 0.61802 0.257 0.0
loop_
_geom_bond_atom_site_label_1
_geom_bond_atom_site_label_2
_geom_bond_distance
_geom_bond_site_symmetry_2
_ccdc_geom_bond_type
Sc0 O3 2.025 . S
Sc0 O10 2.105 . S
Sc0 O13 2.105 1_554 S
Sc0 O16 2.105 1_554 S
Sc0 O19 2.105 . S
Sc1 O3 2.025 . S
Sc1 O11 2.105 . S
Sc1 O15 2.105 . S
Sc1 O17 2.105 . S
Sc1 O21 2.105 . S
Sc2 O3 2.025 . S
Sc2 O12 2.105 . S
Sc2 O14 2.105 . S
Sc2 O18 2.105 . S
Sc2 O20 2.105 . S
O3 Sc0 2.025 . S
O3 Sc1 2.025 . S
O3 Sc2 2.025 . S
C4 O10 1.268 . S
C4 O20 1.268 . S
C5 O11 1.268 . S
C5 O19 1.268 . S
C6 O12 1.268 . S
C6 O21 1.268 . S
C7 O13 1.268 1_554 S
C7 O17 1.268 . S
C8 O14 1.268 . S
C8 O16 1.268 1_554 S
C9 O15 1.268 . S
C9 O18 1.268 . S
O10 Sc0 2.105 . S
O10 C4 1.268 . S
O11 Sc1 2.105 . S
O11 C5 1.268 . S
O12 Sc2 2.105 . S
O12 C6 1.268 . S
O13 Sc0 2.105 1_556 S
O13 C7 1.268 1_556 S
O14 Sc2 2.105 . S
O14 C8 1.268 . S
O15 Sc1 2.105 . S
O15 C9 1.268 . S
O16 Sc0 2.105 1_556 S
O16 C8 1.268 1_556 S
O17 Sc1 2.105 . S
O17 C7 1.268 . S
O18 Sc2 2.105 . S
O18 C9 1.268 . S
O19 Sc0 2.105 . S
O19 C5 1.268 . S
O20 Sc2 2.105 . S
O20 C4 1.268 . S
O21 Sc1 2.105 . S
O21 C6 1.268 . S
Sc22 O25 2.025 . S
Sc22 O32 2.105 1_545 S
Sc22 O35 2.105 1_554 S
Sc22 O38 2.105 1_554 S
Sc22 O41 2.106 . S
Sc23 O25 2.025 . S
Sc23 O33 2.105 . S
Sc23 O37 2.105 . S
Sc23 O39 2.105 . S
Sc23 O43 2.105 . S
Sc24 O25 2.025 . S
Sc24 O34 2.105 . S
Sc24 O36 2.105 . S
Sc24 O40 2.105 . S
Sc24 O42 2.105 . S
O25 Sc22 2.025 . S
O25 Sc23 2.025 . S
O25 Sc24 2.025 . S
C26 O32 1.268 . S
C26 O42 1.268 1_565 S
C27 O33 1.268 1_565 S
C27 O41 1.269 1_565 S
C28 O34 1.268 . S
C28 O43 1.268 . S
C29 O35 1.268 1_554 S
C29 O39 1.268 . S
C30 O36 1.268 . S
C30 O38 1.268 1_554 S
C31 O37 1.268 . S
C31 O40 1.268 . S
O32 Sc22 2.105 1_565 S
O32 C26 1.268 . S
O33 Sc23 2.105 . S
O33 C27 1.268 1_545 S
O34 Sc24 2.105 . S
O34 C28 1.268 . S
O35 Sc22 2.105 1_556 S
O35 C29 1.268 1_556 S
O36 Sc24 2.105 . S
O36 C30 1.268 . S
O37 Sc23 2.105 . S
O37 C31 1.268 . S
O38 Sc22 2.105 1_556 S
O38 C30 1.268 1_556 S
O39 Sc23 2.105 . S
O39 C29 1.268 . S
O40 Sc24 2.105 . S
O40 C31 1.268 . S
O41 Sc22 2.106 . S
O41 C27 1.269 1_545 S
O42 Sc24 2.105 . S
O42 C26 1.268 1_545 S
O43 Sc23 2.105 . S
O43 C28 1.268 . S
Sc44 O47 2.025 . S
Sc44 O54 2.105 1_655 S
Sc44 O57 2.105 1_554 S
Sc44 O60 2.105 1_554 S
Sc44 O63 2.110 . S
Sc45 O47 2.025 . S
Sc45 O55 2.105 . S
Sc45 O59 2.105 . S
Sc45 O61 2.105 . S
Sc45 O65 2.105 . S
Sc46 O47 2.025 . S
Sc46 O56 2.105 . S
Sc46 O58 2.105 . S
Sc46 O62 2.105 . S
Sc46 O64 2.105 . S
O47 Sc44 2.025 . S
O47 Sc45 2.025 . S
O47 Sc46 2.025 . S
C48 O54 1.268 . S
C48 O64 1.268 1_455 S
C49 O55 1.268 1_455 S
C49 O63 1.266 1_455 S
C50 O56 1.268 . S
C50 O65 1.268 . S
C51 O57 1.268 1_554 S
C51 O61 1.268 . S
C52 O58 1.268 . S
C52 O60 1.268 1_554 S
C53 O59 1.268 . S
C53 O62 1.268 . S
O54 Sc44 2.105 1_455 S
O54 C48 1.268 . S
O55 Sc45 2.105 . S
O55 C49 1.268 1_655 S
O56 Sc46 2.105 . S
O56 C50 1.268 . S
O57 Sc44 2.105 1_556 S
O57 C51 1.268 1_556 S
O58 Sc46 2.105 . S
O58 C52 1.268 . S
O59 Sc45 2.105 . S
O59 C53 1.268 . S
O60 Sc44 2.105 1_556 S
O60 C52 1.268 1_556 S
O61 Sc45 2.105 . S
O61 C51 1.268 . S
O62 Sc46 2.105 . S
O62 C53 1.268 . S
O63 Sc44 2.110 . S
O63 C49 1.266 1_655 S
O64 Sc46 2.105 . S
O64 C48 1.268 1_655 S
O65 Sc45 2.105 . S
O65 C50 1.268 . S
Sc66 O69 2.025 . S
Sc66 O76 2.105 . S
Sc66 O79 2.105 . S
Sc66 O82 2.105 . S
Sc66 O85 2.105 . S
Sc67 O69 2.025 . S
Sc67 O77 2.105 . S
Sc67 O81 2.105 . S
Sc67 O83 2.105 . S
Sc67 O87 2.105 . S
Sc68 O69 2.025 . S
Sc68 O78 2.105 . S
Sc68 O80 2.105 . S
Sc68 O84 2.105 . S
Sc68 O86 2.105 . S
O69 Sc66 2.025 . S
O69 Sc67 2.025 . S
O69 Sc68 2.025 . S
C70 O76 1.268 . S
C70 O86 1.268 . S
C71 O77 1.268 . S
C71 O85 1.268 . S
C72 O78 1.268 . S
C72 O87 1.268 . S
C73 O79 1.268 . S
C73 O83 1.268 . S
C74 O80 1.268 . S
C74 O82 1.268 . S
C75 O81 1.268 . S
C75 O84 1.268 . S
O76 Sc66 2.105 . S
O76 C70 1.268 . S
O77 Sc67 2.105 . S
O77 C71 1.268 . S
O78 Sc68 2.105 . S
O78 C72 1.268 . S
O79 Sc66 2.105 . S
O79 C73 1.268 . S
O80 Sc68 2.105 . S
O80 C74 1.268 . S
O81 Sc67 2.105 . S
O81 C75 1.268 . S
O82 Sc66 2.105 . S
O82 C74 1.268 . S
O83 Sc67 2.105 . S
O83 C73 1.268 . S
O84 Sc68 2.105 . S
O84 C75 1.268 . S
O85 Sc66 2.105 . S
O85 C71 1.268 . S
O86 Sc68 2.105 . S
O86 C70 1.268 . S
O87 Sc67 2.105 . S
O87 C72 1.268 . S
Sc88 O91 2.025 . S
Sc88 O98 2.105 . S
Sc88 O101 2.105 . S
Sc88 O104 2.105 . S
Sc88 O107 2.105 . S
Sc89 O91 2.025 . S
Sc89 O99 2.105 . S
Sc89 O103 2.105 . S
Sc89 O105 2.105 . S
Sc89 O109 2.105 . S
Sc90 O91 2.025 . S
Sc90 O100 2.105 . S
Sc90 O102 2.105 1_565 S
Sc90 O106 2.110 . S
Sc90 O108 2.105 . S
O91 Sc88 2.025 . S
O91 Sc89 2.025 . S
O91 Sc90 2.025 . S
C92 O98 1.268 . S
C92 O108 1.268 . S
C93 O99 1.268 . S
C93 O107 1.268 . S
C94 O100 1.268 . S
C94 O109 1.268 . S
C95 O101 1.268 . S
C95 O105 1.268 . S
C96 O102 1.268 . S
C96 O104 1.268 1_545 S
C97 O103 1.268 1_545 S
C97 O106 1.266 1_545 S
O98 Sc88 2.105 . S
O98 C92 1.268 . S
O99 Sc89 2.105 . S
O99 C93 1.268 . S
O100 Sc90 2.105 . S
O100 C94 1.268 . S
O101 Sc88 2.105 . S
O101 C95 1.268 . S
O102 Sc90 2.105 1_545 S
O102 C96 1.268 . S
O103 Sc89 2.105 . S
O103 C97 1.268 1_565 S
O104 Sc88 2.105 . S
O104 C96 1.268 1_565 S
O105 Sc89 2.105 . S
O105 C95 1.268 . S
O106 Sc90 2.110 . S
O106 C97 1.266 1_565 S
O107 Sc88 2.105 . S
O107 C93 1.268 . S
O108 Sc90 2.105 . S
O108 C92 1.268 . S
O109 Sc89 2.105 . S
O109 C94 1.268 . S
Sc110 O113 2.025 . S
Sc110 O120 2.105 . S
Sc110 O123 2.105 . S
Sc110 O126 2.105 . S
Sc110 O129 2.105 . S
Sc111 O113 2.025 . S
Sc111 O121 2.105 . S
Sc111 O125 2.105 . S
Sc111 O127 2.105 . S
Sc111 O131 2.105 . S
Sc112 O113 2.025 . S
Sc112 O122 2.105 . S
Sc112 O124 2.105 1_455 S
Sc112 O128 2.106 . S
Sc112 O130 2.105 . S
O113 Sc110 2.025 . S
O113 Sc111 2.025 . S
O113 Sc112 2.025 . S
C114 O120 1.268 . S
C114 O130 1.268 . S
C115 O121 1.268 . S
C115 O129 1.268 . S
C116 O122 1.268 . S
C116 O131 1.268 . S
C117 O123 1.268 . S
C117 O127 1.268 . S
C118 O124 1.268 . S
C118 O126 1.268 1_655 S
C119 O125 1.268 1_655 S
C119 O128 1.269 1_655 S
O120 Sc110 2.105 . S
O120 C114 1.268 . S
O121 Sc111 2.105 . S
O121 C115 1.268 . S
O122 Sc112 2.105 . S
O122 C116 1.268 . S
O123 Sc110 2.105 . S
O123 C117 1.268 . S
O124 Sc112 2.105 1_655 S
O124 C118 1.268 . S
O125 Sc111 2.105 . S
O125 C119 1.268 1_455 S
O126 Sc110 2.105 . S
O126 C118 1.268 1_455 S
O127 Sc111 2.105 . S
O127 C117 1.268 . S
O128 Sc112 2.106 . S
O128 C119 1.269 1_455 S
O129 Sc110 2.105 . S
O129 C115 1.268 . S
O130 Sc112 2.105 . S
O130 C114 1.268 . S
O131 Sc111 2.105 . S
O131 C116 1.268 . S
Sc132 O135 2.025 . S
Sc132 O142 2.105 1_556 S
Sc132 O145 2.105 . S
Sc132 O148 2.105 . S
Sc132 O151 2.105 1_556 S
Sc133 O135 2.025 . S
Sc133 O143 2.105 . S
Sc133 O147 2.105 . S
Sc133 O149 2.105 . S
Sc133 O153 2.105 . S
Sc134 O135 2.025 . S
Sc134 O144 2.105 . S
Sc134 O146 2.105 . S
Sc134 O150 2.105 . S
Sc134 O152 2.105 . S
O135 Sc132 2.025 . S
O135 Sc133 2.025 . S
O135 Sc134 2.025 . S
C136 O142 1.268 1_556 S
C136 O152 1.268 . S
C137 O143 1.268 . S
C137 O151 1.268 1_556 S
C138 O144 1.268 . S
C138 O153 1.268 . S
C139 O145 1.268 . S
C139 O149 1.268 . S
C140 O146 1.268 . S
C140 O148 1.268 . S
C141 O147 1.268 . S
C141 O150 1.268 . S
O142 Sc132 2.105 1_554 S
O142 C136 1.268 1_554 S
O143 Sc133 2.105 . S
O143 C137 1.268 . S
O144 Sc134 2.105 . S
O144 C138 1.268 . S
O145 Sc132 2.105 . S
O145 C139 1.268 . S
O146 Sc134 2.105 . S
O146 C140 1.268 . S
O147 Sc133 2.105 . S
O147 C141 1.268 . S
O148 Sc132 2.105 . S
O148 C140 1.268 . S
O149 Sc133 2.105 . S
O149 C139 1.268 . S
O150 Sc134 2.105 . S
O150 C141 1.268 . S
O151 Sc132 2.105 1_554 S
O151 C137 1.268 1_554 S
O152 Sc134 2.105 . S
O152 C136 1.268 . S
O153 Sc133 2.105 . S
O153 C138 1.268 . S
Sc154 O157 2.025 . S
Sc154 O164 2.105 1_556 S
Sc154 O167 2.106 . S
Sc154 O170 2.105 1_565 S
Sc154 O173 2.105 1_556 S
Sc155 O157 2.025 . S
Sc155 O165 2.105 . S
Sc155 O169 2.105 . S
Sc155 O171 2.105 . S
Sc155 O175 2.105 . S
Sc156 O157 2.025 . S
Sc156 O166 2.105 . S
Sc156 O168 2.105 . S
Sc156 O172 2.105 . S
Sc156 O174 2.105 . S
O157 Sc154 2.025 . S
O157 Sc155 2.025 . S
O157 Sc156 2.025 . S
C158 O164 1.268 1_556 S
C158 O174 1.268 . S
C159 O165 1.268 . S
C159 O173 1.268 1_556 S
C160 O166 1.268 . S
C160 O175 1.268 . S
C161 O167 1.269 1_545 S
C161 O171 1.268 1_545 S
C162 O168 1.268 1_545 S
C162 O170 1.268 . S
C163 O169 1.268 . S
C163 O172 1.268 . S
O164 Sc154 2.105 1_554 S
O164 C158 1.268 1_554 S
O165 Sc155 2.105 . S
O165 C159 1.268 . S
O166 Sc156 2.105 . S
O166 C160 1.268 . S
O167 Sc154 2.106 . S
O167 C161 1.269 1_565 S
O168 Sc156 2.105 . S
O168 C162 1.268 1_565 S
O169 Sc155 2.105 . S
O169 C163 1.268 . S
O170 Sc154 2.105 1_545 S
O170 C162 1.268 . S
O171 Sc155 2.105 . S
O171 C161 1.268 1_565 S
O172 Sc156 2.105 . S
O172 C163 1.268 . S
O173 Sc154 2.105 1_554 S
O173 C159 1.268 1_554 S
O174 Sc156 2.105 . S
O174 C158 1.268 . S
O175 Sc155 2.105 . S
O175 C160 1.268 . S
Sc176 O179 2.025 . S
Sc176 O186 2.105 1_556 S
Sc176 O189 2.110 . S
Sc176 O192 2.105 1_455 S
Sc176 O195 2.105 1_556 S
Sc177 O179 2.025 . S
Sc177 O187 2.105 . S
Sc177 O191 2.105 . S
Sc177 O193 2.105 . S
Sc177 O197 2.105 . S
Sc178 O179 2.025 . S
Sc178 O188 2.105 . S
Sc178 O190 2.105 . S
Sc178 O194 2.105 . S
Sc178 O196 2.105 . S
O179 Sc176 2.025 . S
O179 Sc177 2.025 . S
O179 Sc178 2.025 . S
C180 O186 1.268 1_556 S
C180 O196 1.268 . S
C181 O187 1.268 . S
C181 O195 1.268 1_556 S
C182 O188 1.268 . S
C182 O197 1.268 . S
C183 O189 1.266 1_655 S
C183 O193 1.268 1_655 S
C184 O190 1.268 1_655 S
C184 O192 1.268 . S
C185 O191 1.268 . S
C185 O194 1.268 . S
O186 Sc176 2.105 1_554 S
O186 C180 1.268 1_554 S
O187 Sc177 2.105 . S
O187 C181 1.268 . S
O188 Sc178 2.105 . S
O188 C182 1.268 . S
O189 Sc176 2.110 . S
O189 C183 1.266 1_455 S
O190 Sc178 2.105 . S
O190 C184 1.268 1_455 S
O191 Sc177 2.105 . S
O191 C185 1.268 . S
O192 Sc176 2.105 1_655 S
O192 C184 1.268 . S
O193 Sc177 2.105 . S
O193 C183 1.268 1_455 S
O194 Sc178 2.105 . S
O194 C185 1.268 . S
O195 Sc176 2.105 1_554 S
O195 C181 1.268 1_554 S
O196 Sc178 2.105 . S
O196 C180 1.268 . S
O197 Sc177 2.105 . S
O197 C182 1.268 . S
Sc198 O201 2.025 . S
Sc198 O208 2.105 . S
Sc198 O211 2.105 . S
Sc198 O214 2.105 . S
Sc198 O217 2.105 . S
Sc199 O201 2.025 . S
Sc199 O209 2.105 . S
Sc199 O213 2.105 . S
Sc199 O215 2.105 . S
Sc199 O219 2.105 . S
Sc200 O201 2.025 . S
Sc200 O210 2.105 . S
Sc200 O212 2.105 . S
Sc200 O216 2.105 . S
Sc200 O218 2.105 . S
O201 Sc198 2.025 . S
O201 Sc199 2.025 . S
O201 Sc200 2.025 . S
C202 O208 1.268 . S
C202 O218 1.268 . S
C203 O209 1.268 . S
C203 O217 1.268 . S
C204 O210 1.268 . S
C204 O219 1.268 . S
C205 O211 1.268 . S
C205 O215 1.268 . S
C206 O212 1.268 . S
C206 O214 1.268 . S
C207 O213 1.268 . S
C207 O216 1.268 . S
O208 Sc198 2.105 . S
O208 C202 1.268 . S
O209 Sc199 2.105 . S
O209 C203 1.268 . S
O210 Sc200 2.105 . S
O210 C204 1.268 . S
O211 Sc198 2.105 . S
O211 C205 1.268 . S
O212 Sc200 2.105 . S
O212 C206 1.268 . S
O213 Sc199 2.105 . S
O213 C207 1.268 . S
O214 Sc198 2.105 . S
O214 C206 1.268 . S
O215 Sc199 2.105 . S
O215 C205 1.268 . S
O216 Sc200 2.105 . S
O216 C207 1.268 . S
O217 Sc198 2.105 . S
O217 C203 1.268 . S
O218 Sc200 2.105 . S
O218 C202 1.268 . S
O219 Sc199 2.105 . S
O219 C204 1.268 . S
Sc220 O223 2.025 . S
Sc220 O230 2.105 . S
Sc220 O233 2.110 . S
Sc220 O236 2.105 1_545 S
Sc220 O239 2.105 . S
Sc221 O223 2.025 . S
Sc221 O231 2.105 . S
Sc221 O235 2.105 . S
Sc221 O237 2.105 . S
Sc221 O241 2.105 . S
Sc222 O223 2.025 . S
Sc222 O232 2.105 . S
Sc222 O234 2.105 . S
Sc222 O238 2.105 . S
Sc222 O240 2.105 . S
O223 Sc220 2.025 . S
O223 Sc221 2.025 . S
O223 Sc222 2.025 . S
C224 O230 1.268 . S
C224 O240 1.268 . S
C225 O231 1.268 . S
C225 O239 1.268 . S
C226 O232 1.268 . S
C226 O241 1.268 . S
C227 O233 1.266 1_565 S
C227 O237 1.268 1_565 S
C228 O234 1.268 1_565 S
C228 O236 1.268 . S
C229 O235 1.268 . S
C229 O238 1.268 . S
O230 Sc220 2.105 . S
O230 C224 1.268 . S
O231 Sc221 2.105 . S
O231 C225 1.268 . S
O232 Sc222 2.105 . S
O232 C226 1.268 . S
O233 Sc220 2.110 . S
O233 C227 1.266 1_545 S
O234 Sc222 2.105 . S
O234 C228 1.268 1_545 S
O235 Sc221 2.105 . S
O235 C229 1.268 . S
O236 Sc220 2.105 1_565 S
O236 C228 1.268 . S
O237 Sc221 2.105 . S
O237 C227 1.268 1_545 S
O238 Sc222 2.105 . S
O238 C229 1.268 . S
O239 Sc220 2.105 . S
O239 C225 1.268 . S
O240 Sc222 2.105 . S
O240 C224 1.268 . S
O241 Sc221 2.105 . S
O241 C226 1.268 . S
Sc242 O245 2.025 . S
Sc242 O252 2.105 . S
Sc242 O255 2.106 . S
Sc242 O258 2.105 1_655 S
Sc242 O261 2.105 . S
Sc243 O245 2.025 . S
Sc243 O253 2.105 . S
Sc243 O257 2.105 . S
Sc243 O259 2.105 . S
Sc243 O263 2.105 . S
Sc244 O245 2.025 . S
Sc244 O254 2.105 . S
Sc244 O256 2.105 . S
Sc244 O260 2.105 . S
Sc244 O262 2.105 . S
O245 Sc242 2.025 . S
O245 Sc243 2.025 . S
O245 Sc244 2.025 . S
C246 O252 1.268 . S
C246 O262 1.268 . S
C247 O253 1.268 . S
C247 O261 1.268 . S
C248 O254 1.268 . S
C248 O263 1.268 . S
C249 O255 1.269 1_455 S
C249 O259 1.268 1_455 S
C250 O256 1.268 1_455 S
C250 O258 1.268 . S
C251 O257 1.268 . S
C251 O260 1.268 . S
O252 Sc242 2.105 . S
O252 C246 1.268 . S
O253 Sc243 2.105 . S
O253 C247 1.268 . S
O254 Sc244 2.105 . S
O254 C248 1.268 . S
O255 Sc242 2.106 . S
O255 C249 1.269 1_655 S
O256 Sc244 2.105 . S
O256 C250 1.268 1_655 S
O257 Sc243 2.105 . S
O257 C251 1.268 . S
O258 Sc242 2.105 1_455 S
O258 C250 1.268 . S
O259 Sc243 2.105 . S
O259 C249 1.268 1_655 S
O260 Sc244 2.105 . S
O260 C251 1.268 . S
O261 Sc242 2.105 . S
O261 C247 1.268 . S
O262 Sc244 2.105 . S
O262 C246 1.268 . S
O263 Sc243 2.105 . S
O263 C248 1.268 . S
Sc264 O267 2.025 . S
Sc264 O274 2.105 . S
Sc264 O277 2.105 . S
Sc264 O280 2.105 . S
Sc264 O283 2.105 . S
Sc265 O267 2.025 . S
Sc265 O275 2.105 . S
Sc265 O279 2.105 . S
Sc265 O281 2.105 . S
Sc265 O285 2.105 . S
Sc266 O267 2.025 . S
Sc266 O276 2.105 . S
Sc266 O278 2.105 . S
Sc266 O282 2.105 . S
Sc266 O284 2.105 . S
O267 Sc264 2.025 . S
O267 Sc265 2.025 . S
O267 Sc266 2.025 . S
C268 O274 1.268 . S
C268 O284 1.268 . S
C269 O275 1.268 . S
C269 O283 1.268 . S
C270 O276 1.268 . S
C270 O285 1.268 . S
C271 O277 1.268 . S
C271 O281 1.268 . S
C272 O278 1.268 . S
C272 O280 1.268 . S
C273 O279 1.268 . S
C273 O282 1.268 . S
O274 Sc264 2.105 . S
O274 C268 1.268 . S
O275 Sc265 2.105 . S
O275 C269 1.268 . S
O276 Sc266 2.105 . S
O276 C270 1.268 . S
O277 Sc264 2.105 . S
O277 C271 1.268 . S
O278 Sc266 2.105 . S
O278 C272 1.268 . S
O279 Sc265 2.105 . S
O279 C273 1.268 . S
O280 Sc264 2.105 . S
O280 C272 1.268 . S
O281 Sc265 2.105 . S
O281 C271 1.268 . S
O282 Sc266 2.105 . S
O282 C273 1.268 . S
O283 Sc264 2.105 . S
O283 C269 1.268 . S
O284 Sc266 2.105 . S
O284 C268 1.268 . S
O285 Sc265 2.105 . S
O285 C270 1.268 . S
Sc286 O289 2.025 . S
Sc286 O296 2.105 . S
Sc286 O299 2.105 . S
Sc286 O302 2.105 . S
Sc286 O305 2.105 . S
Sc287 O289 2.025 . S
Sc287 O297 2.105 . S
Sc287 O301 2.105 . S
Sc287 O303 2.105 . S
Sc287 O307 2.105 . S
Sc288 O289 2.025 . S
Sc288 O298 2.105 . S
Sc288 O300 2.105 . S
Sc288 O304 2.105 . S
Sc288 O306 2.105 . S
O289 Sc286 2.025 . S
O289 Sc287 2.025 . S
O289 Sc288 2.025 . S
C290 O296 1.268 . S
C290 O306 1.268 . S
C291 O297 1.268 . S
C291 O305 1.268 . S
C292 O298 1.268 . S
C292 O307 1.268 . S
C293 O299 1.268 . S
C293 O303 1.268 . S
C294 O300 1.268 . S
C294 O302 1.268 . S
C295 O301 1.268 . S
C295 O304 1.268 . S
O296 Sc286 2.105 . S
O296 C290 1.268 . S
O297 Sc287 2.105 . S
O297 C291 1.268 . S
O298 Sc288 2.105 . S
O298 C292 1.268 . S
O299 Sc286 2.105 . S
O299 C293 1.268 . S
O300 Sc288 2.105 . S
O300 C294 1.268 . S
O301 Sc287 2.105 . S
O301 C295 1.268 . S
O302 Sc286 2.105 . S
O302 C294 1.268 . S
O303 Sc287 2.105 . S
O303 C293 1.268 . S
O304 Sc288 2.105 . S
O304 C295 1.268 . S
O305 Sc286 2.105 . S
O305 C291 1.268 . S
O306 Sc288 2.105 . S
O306 C290 1.268 . S
O307 Sc287 2.105 . S
O307 C292 1.268 . S
Sc308 O311 2.025 . S
Sc308 O318 2.105 . S
Sc308 O321 2.105 . S
Sc308 O324 2.105 . S
Sc308 O327 2.105 . S
Sc309 O311 2.025 . S
Sc309 O319 2.105 . S
Sc309 O323 2.105 . S
Sc309 O325 2.105 . S
Sc309 O329 2.105 . S
Sc310 O311 2.025 . S
Sc310 O320 2.105 . S
Sc310 O322 2.105 . S
Sc310 O326 2.105 . S
Sc310 O328 2.105 . S
O311 Sc308 2.025 . S
O311 Sc309 2.025 . S
O311 Sc310 2.025 . S
C312 O318 1.268 . S
C312 O328 1.268 . S
C313 O319 1.268 . S
C313 O327 1.268 . S
C314 O320 1.268 . S
C314 O329 1.268 . S
C315 O321 1.268 . S
C315 O325 1.268 . S
C316 O322 1.268 . S
C316 O324 1.268 . S
C317 O323 1.268 . S
C317 O326 1.268 . S
O318 Sc308 2.105 . S
O318 C312 1.268 . S
O319 Sc309 2.105 . S
O319 C313 1.268 . S
O320 Sc310 2.105 . S
O320 C314 1.268 . S
O321 Sc308 2.105 . S
O321 C315 1.268 . S
O322 Sc310 2.105 . S
O322 C316 1.268 . S
O323 Sc309 2.105 . S
O323 C317 1.268 . S
O324 Sc308 2.105 . S
O324 C316 1.268 . S
O325 Sc309 2.105 . S
O325 C315 1.268 . S
O326 Sc310 2.105 . S
O326 C317 1.268 . S
O327 Sc308 2.105 . S
O327 C313 1.268 . S
O328 Sc310 2.105 . S
O328 C312 1.268 . S
O329 Sc309 2.105 . S
O329 C314 1.268 . S
Sc330 O333 2.025 . S
Sc330 O340 2.105 . S
Sc330 O343 2.105 . S
Sc330 O346 2.105 . S
Sc330 O349 2.105 . S
Sc331 O333 2.025 . S
Sc331 O341 2.105 . S
Sc331 O345 2.105 . S
Sc331 O347 2.105 . S
Sc331 O351 2.105 . S
Sc332 O333 2.025 . S
Sc332 O342 2.105 . S
Sc332 O344 2.105 . S
Sc332 O348 2.105 . S
Sc332 O350 2.105 . S
O333 Sc330 2.025 . S
O333 Sc331 2.025 . S
O333 Sc332 2.025 . S
C334 O340 1.268 . S
C334 O350 1.268 . S
C335 O341 1.268 . S
C335 O349 1.268 . S
C336 O342 1.268 . S
C336 O351 1.268 . S
C337 O343 1.268 . S
C337 O347 1.268 . S
C338 O344 1.268 . S
C338 O346 1.268 . S
C339 O345 1.268 . S
C339 O348 1.268 . S
O340 Sc330 2.105 . S
O340 C334 1.268 . S
O341 Sc331 2.105 . S
O341 C335 1.268 . S
O342 Sc332 2.105 . S
O342 C336 1.268 . S
O343 Sc330 2.105 . S
O343 C337 1.268 . S
O344 Sc332 2.105 . S
O344 C338 1.268 . S
O345 Sc331 2.105 . S
O345 C339 1.268 . S
O346 Sc330 2.105 . S
O346 C338 1.268 . S
O347 Sc331 2.105 . S
O347 C337 1.268 . S
O348 Sc332 2.105 . S
O348 C339 1.268 . S
O349 Sc330 2.105 . S
O349 C335 1.268 . S
O350 Sc332 2.105 . S
O350 C334 1.268 . S
O351 Sc331 2.105 . S
O351 C336 1.268 . S
Sc352 O355 2.025 . S
Sc352 O362 2.105 . S
Sc352 O365 2.105 . S
Sc352 O368 2.105 . S
Sc352 O371 2.105 . S
Sc353 O355 2.025 . S
Sc353 O363 2.105 . S
Sc353 O367 2.105 . S
Sc353 O369 2.105 . S
Sc353 O373 2.105 . S
Sc354 O355 2.025 . S
Sc354 O364 2.105 . S
Sc354 O366 2.105 . S
Sc354 O370 2.105 . S
Sc354 O372 2.105 . S
O355 Sc352 2.025 . S
O355 Sc353 2.025 . S
O355 Sc354 2.025 . S
C356 O362 1.268 . S
C356 O372 1.268 . S
C357 O363 1.268 . S
C357 O371 1.268 . S
C358 O364 1.268 . S
C358 O373 1.268 . S
C359 O365 1.268 . S
C359 O369 1.268 . S
C360 O366 1.268 . S
C360 O368 1.268 . S
C361 O367 1.268 . S
C361 O370 1.268 . S
O362 Sc352 2.105 . S
O362 C356 1.268 . S
O363 Sc353 2.105 . S
O363 C357 1.268 . S
O364 Sc354 2.105 . S
O364 C358 1.268 . S
O365 Sc352 2.105 . S
O365 C359 1.268 . S
O366 Sc354 2.105 . S
O366 C360 1.268 . S
O367 Sc353 2.105 . S
O367 C361 1.268 . S
O368 Sc352 2.105 . S
O368 C360 1.268 . S
O369 Sc353 2.105 . S
O369 C359 1.268 . S
O370 Sc354 2.105 . S
O370 C361 1.268 . S
O371 Sc352 2.105 . S
O371 C357 1.268 . S
O372 Sc354 2.105 . S
O372 C356 1.268 . S
O373 Sc353 2.105 . S
O373 C358 1.268 . S
Sc374 O377 2.025 . S
Sc374 O384 2.105 . S
Sc374 O387 2.105 . S
Sc374 O390 2.105 . S
Sc374 O393 2.105 . S
Sc375 O377 2.025 . S
Sc375 O385 2.105 . S
Sc375 O389 2.105 . S
Sc375 O391 2.105 . S
Sc375 O395 2.105 . S
Sc376 O377 2.025 . S
Sc376 O386 2.105 . S
Sc376 O388 2.105 . S
Sc376 O392 2.105 . S
Sc376 O394 2.105 . S
O377 Sc374 2.025 . S
O377 Sc375 2.025 . S
O377 Sc376 2.025 . S
C378 O384 1.268 . S
C378 O394 1.268 . S
C379 O385 1.268 . S
C379 O393 1.268 . S
C380 O386 1.268 . S
C380 O395 1.268 . S
C381 O387 1.268 . S
C381 O391 1.268 . S
C382 O388 1.268 . S
C382 O390 1.268 . S
C383 O389 1.268 . S
C383 O392 1.268 . S
O384 Sc374 2.105 . S
O384 C378 1.268 . S
O385 Sc375 2.105 . S
O385 C379 1.268 . S
O386 Sc376 2.105 . S
O386 C380 1.268 . S
O387 Sc374 2.105 . S
O387 C381 1.268 . S
O388 Sc376 2.105 . S
O388 C382 1.268 . S
O389 Sc375 2.105 . S
O389 C383 1.268 . S
O390 Sc374 2.105 . S
O390 C382 1.268 . S
O391 Sc375 2.105 . S
O391 C381 1.268 . S
O392 Sc376 2.105 . S
O392 C383 1.268 . S
O393 Sc374 2.105 . S
O393 C379 1.268 . S
O394 Sc376 2.105 . S
O394 C378 1.268 . S
O395 Sc375 2.105 . S
O395 C380 1.268 . S
Sc396 O399 2.025 . S
Sc396 O406 2.105 . S
Sc396 O409 2.105 . S
Sc396 O412 2.105 . S
Sc396 O415 2.105 . S
Sc397 O399 2.025 . S
Sc397 O407 2.105 . S
Sc397 O411 2.105 . S
Sc397 O413 2.105 . S
Sc397 O417 2.105 . S
Sc398 O399 2.025 . S
Sc398 O408 2.105 . S
Sc398 O410 2.105 . S
Sc398 O414 2.105 . S
Sc398 O416 2.105 . S
O399 Sc396 2.025 . S
O399 Sc397 2.025 . S
O399 Sc398 2.025 . S
C400 O406 1.268 . S
C400 O416 1.268 . S
C401 O407 1.268 . S
C401 O415 1.268 . S
C402 O408 1.268 . S
C402 O417 1.268 . S
C403 O409 1.268 . S
C403 O413 1.268 . S
C404 O410 1.268 . S
C404 O412 1.268 . S
C405 O411 1.268 . S
C405 O414 1.268 . S
O406 Sc396 2.105 . S
O406 C400 1.268 . S
O407 Sc397 2.105 . S
O407 C401 1.268 . S
O408 Sc398 2.105 . S
O408 C402 1.268 . S
O409 Sc396 2.105 . S
O409 C403 1.268 . S
O410 Sc398 2.105 . S
O410 C404 1.268 . S
O411 Sc397 2.105 . S
O411 C405 1.268 . S
O412 Sc396 2.105 . S
O412 C404 1.268 . S
O413 Sc397 2.105 . S
O413 C403 1.268 . S
O414 Sc398 2.105 . S
O414 C405 1.268 . S
O415 Sc396 2.105 . S
O415 C401 1.268 . S
O416 Sc398 2.105 . S
O416 C400 1.268 . S
O417 Sc397 2.105 . S
O417 C402 1.268 . S
Sc418 O421 2.025 . S
Sc418 O428 2.105 . S
Sc418 O431 2.105 . S
Sc418 O434 2.105 . S
Sc418 O437 2.105 . S
Sc419 O421 2.025 . S
Sc419 O429 2.105 . S
Sc419 O433 2.105 . S
Sc419 O435 2.105 . S
Sc419 O439 2.105 . S
Sc420 O421 2.025 . S
Sc420 O430 2.105 . S
Sc420 O432 2.105 . S
Sc420 O436 2.105 . S
Sc420 O438 2.105 . S
O421 Sc418 2.025 . S
O421 Sc419 2.025 . S
O421 Sc420 2.025 . S
C422 O428 1.268 . S
C422 O438 1.268 . S
C423 O429 1.268 . S
C423 O437 1.268 . S
C424 O430 1.268 . S
C424 O439 1.268 . S
C425 O431 1.268 . S
C425 O435 1.268 . S
C426 O432 1.268 . S
C426 O434 1.268 . S
C427 O433 1.268 . S
C427 O436 1.268 . S
O428 Sc418 2.105 . S
O428 C422 1.268 . S
O429 Sc419 2.105 . S
O429 C423 1.268 . S
O430 Sc420 2.105 . S
O430 C424 1.268 . S
O431 Sc418 2.105 . S
O431 C425 1.268 . S
O432 Sc420 2.105 . S
O432 C426 1.268 . S
O433 Sc419 2.105 . S
O433 C427 1.268 . S
O434 Sc418 2.105 . S
O434 C426 1.268 . S
O435 Sc419 2.105 . S
O435 C425 1.268 . S
O436 Sc420 2.105 . S
O436 C427 1.268 . S
O437 Sc418 2.105 . S
O437 C423 1.268 . S
O438 Sc420 2.105 . S
O438 C422 1.268 . S
O439 Sc419 2.105 . S
O439 C424 1.268 . S
Sc440 O443 2.025 . S
Sc440 O450 2.105 . S
Sc440 O453 2.105 . S
Sc440 O456 2.105 . S
Sc440 O459 2.105 . S
Sc441 O443 2.025 . S
Sc441 O451 2.105 . S
Sc441 O455 2.105 . S
Sc441 O457 2.105 . S
Sc441 O461 2.105 . S
Sc442 O443 2.025 . S
Sc442 O452 2.105 . S
Sc442 O454 2.105 . S
Sc442 O458 2.105 . S
Sc442 O460 2.105 . S
O443 Sc440 2.025 . S
O443 Sc441 2.025 . S
O443 Sc442 2.025 . S
C444 O450 1.268 . S
C444 O460 1.268 . S
C445 O451 1.268 . S
C445 O459 1.268 . S
C446 O452 1.268 . S
C446 O461 1.268 . S
C447 O453 1.268 . S
C447 O457 1.268 . S
C448 O454 1.268 . S
C448 O456 1.268 . S
C449 O455 1.268 . S
C449 O458 1.268 . S
O450 Sc440 2.105 . S
O450 C444 1.268 . S
O451 Sc441 2.105 . S
O451 C445 1.268 . S
O452 Sc442 2.105 . S
O452 C446 1.268 . S
O453 Sc440 2.105 . S
O453 C447 1.268 . S
O454 Sc442 2.105 . S
O454 C448 1.268 . S
O455 Sc441 2.105 . S
O455 C449 1.268 . S
O456 Sc440 2.105 . S
O456 C448 1.268 . S
O457 Sc441 2.105 . S
O457 C447 1.268 . S
O458 Sc442 2.105 . S
O458 C449 1.268 . S
O459 Sc440 2.105 . S
O459 C445 1.268 . S
O460 Sc442 2.105 . S
O460 C444 1.268 . S
O461 Sc441 2.105 . S
O461 C446 1.268 . S
Sc462 O465 2.025 . S
Sc462 O472 2.105 . S
Sc462 O475 2.105 . S
Sc462 O478 2.105 . S
Sc462 O481 2.105 . S
Sc463 O465 2.025 . S
Sc463 O473 2.105 . S
Sc463 O477 2.105 . S
Sc463 O479 2.105 . S
Sc463 O483 2.105 . S
Sc464 O465 2.025 . S
Sc464 O474 2.105 . S
Sc464 O476 2.105 . S
Sc464 O480 2.105 . S
Sc464 O482 2.105 . S
O465 Sc462 2.025 . S
O465 Sc463 2.025 . S
O465 Sc464 2.025 . S
C466 O472 1.268 . S
C466 O482 1.268 . S
C467 O473 1.268 . S
C467 O481 1.268 . S
C468 O474 1.268 . S
C468 O483 1.268 . S
C469 O475 1.268 . S
C469 O479 1.268 . S
C470 O476 1.268 . S
C470 O478 1.268 . S
C471 O477 1.268 1_554 S
C471 O480 1.268 1_554 S
O472 Sc462 2.105 . S
O472 C466 1.268 . S
O473 Sc463 2.105 . S
O473 C467 1.268 . S
O474 Sc464 2.105 . S
O474 C468 1.268 . S
O475 Sc462 2.105 . S
O475 C469 1.268 . S
O476 Sc464 2.105 . S
O476 C470 1.268 . S
O477 Sc463 2.105 . S
O477 C471 1.268 1_556 S
O478 Sc462 2.105 . S
O478 C470 1.268 . S
O479 Sc463 2.105 . S
O479 C469 1.268 . S
O480 Sc464 2.105 . S
O480 C471 1.268 1_556 S
O481 Sc462 2.105 . S
O481 C467 1.268 . S
O482 Sc464 2.105 . S
O482 C466 1.268 . S
O483 Sc463 2.105 . S
O483 C468 1.268 . S
Sc484 O487 2.025 . S
Sc484 O494 2.105 . S
Sc484 O497 2.105 . S
Sc484 O500 2.105 . S
Sc484 O503 2.105 . S
Sc485 O487 2.025 . S
Sc485 O495 2.105 . S
Sc485 O499 2.105 . S
Sc485 O501 2.105 . S
Sc485 O505 2.105 . S
Sc486 O487 2.025 . S
Sc486 O496 2.105 . S
Sc486 O498 2.105 . S
Sc486 O502 2.105 . S
Sc486 O504 2.105 . S
O487 Sc484 2.025 . S
O487 Sc485 2.025 . S
O487 Sc486 2.025 . S
C488 O494 1.268 . S
C488 O504 1.268 . S
C489 O495 1.268 . S
C489 O503 1.268 . S
C490 O496 1.268 . S
C490 O505 1.268 . S
C491 O497 1.268 . S
C491 O501 1.268 . S
C492 O498 1.268 . S
C492 O500 1.268 . S
C493 O499 1.268 1_554 S
C493 O502 1.268 1_554 S
O494 Sc484 2.105 . S
O494 C488 1.268 . S
O495 Sc485 2.105 . S
O495 C489 1.268 . S
O496 Sc486 2.105 . S
O496 C490 1.268 . S
O497 Sc484 2.105 . S
O497 C491 1.268 . S
O498 Sc486 2.105 . S
O498 C492 1.268 . S
O499 Sc485 2.105 . S
O499 C493 1.268 1_556 S
O500 Sc484 2.105 . S
O500 C492 1.268 . S
O501 Sc485 2.105 . S
O501 C491 1.268 . S
O502 Sc486 2.105 . S
O502 C493 1.268 1_556 S
O503 Sc484 2.105 . S
O503 C489 1.268 . S
O504 Sc486 2.105 . S
O504 C488 1.268 . S
O505 Sc485 2.105 . S
O505 C490 1.268 . S
Sc506 O509 2.025 . S
Sc506 O516 2.105 . S
Sc506 O519 2.105 . S
Sc506 O522 2.105 . S
Sc506 O525 2.105 . S
Sc507 O509 2.025 . S
Sc507 O517 2.105 . S
Sc507 O521 2.105 . S
Sc507 O523 2.105 . S
Sc507 O527 2.105 . S
Sc508 O509 2.025 . S
Sc508 O518 2.105 . S
Sc508 O520 2.105 . S
Sc508 O524 2.105 . S
Sc508 O526 2.105 . S
O509 Sc506 2.025 . S
O509 Sc507 2.025 . S
O509 Sc508 2.025 . S
C510 O516 1.268 . S
C510 O526 1.268 . S
C511 O517 1.268 . S
C511 O525 1.268 . S
C512 O518 1.268 . S
C512 O527 1.268 . S
C513 O519 1.268 . S
C513 O523 1.268 . S
C514 O520 1.268 . S
C514 O522 1.268 . S
C515 O521 1.268 1_554 S
C515 O524 1.268 1_554 S
O516 Sc506 2.105 . S
O516 C510 1.268 . S
O517 Sc507 2.105 . S
O517 C511 1.268 . S
O518 Sc508 2.105 . S
O518 C512 1.268 . S
O519 Sc506 2.105 . S
O519 C513 1.268 . S
O520 Sc508 2.105 . S
O520 C514 1.268 . S
O521 Sc507 2.105 . S
O521 C515 1.268 1_556 S
O522 Sc506 2.105 . S
O522 C514 1.268 . S
O523 Sc507 2.105 . S
O523 C513 1.268 . S
O524 Sc508 2.105 . S
O524 C515 1.268 1_556 S
O525 Sc506 2.105 . S
O525 C511 1.268 . S
O526 Sc508 2.105 . S
O526 C510 1.268 . S
O527 Sc507 2.105 . S
O527 C512 1.268 . S
Sc528 O531 2.025 . S
Sc528 O538 2.105 . S
Sc528 O541 2.105 . S
Sc528 O544 2.105 . S
Sc528 O547 2.105 . S
Sc529 O531 2.025 . S
Sc529 O539 2.105 . S
Sc529 O543 2.105 . S
Sc529 O545 2.105 . S
Sc529 O549 2.105 . S
Sc530 O531 2.025 . S
Sc530 O540 2.105 . S
Sc530 O542 2.105 . S
Sc530 O546 2.105 . S
Sc530 O548 2.105 . S
O531 Sc528 2.025 . S
O531 Sc529 2.025 . S
O531 Sc530 2.025 . S
C532 O538 1.268 . S
C532 O548 1.268 . S
C533 O539 1.268 . S
C533 O547 1.268 . S
C534 O540 1.268 . S
C534 O549 1.268 . S
C535 O541 1.268 . S
C535 O545 1.268 . S
C536 O542 1.268 . S
C536 O544 1.268 . S
C537 O543 1.268 . S
C537 O546 1.268 . S
O538 Sc528 2.105 . S
O538 C532 1.268 . S
O539 Sc529 2.105 . S
O539 C533 1.268 . S
O540 Sc530 2.105 . S
O540 C534 1.268 . S
O541 Sc528 2.105 . S
O541 C535 1.268 . S
O542 Sc530 2.105 . S
O542 C536 1.268 . S
O543 Sc529 2.105 . S
O543 C537 1.268 . S
O544 Sc528 2.105 . S
O544 C536 1.268 . S
O545 Sc529 2.105 . S
O545 C535 1.268 . S
O546 Sc530 2.105 . S
O546 C537 1.268 . S
O547 Sc528 2.105 . S
O547 C533 1.268 . S
O548 Sc530 2.105 . S
O548 C532 1.268 . S
O549 Sc529 2.105 . S
O549 C534 1.268 . S
Sc550 O553 2.025 . S
Sc550 O560 2.105 . S
Sc550 O563 2.105 . S
Sc550 O566 2.105 . S
Sc550 O569 2.105 . S
Sc551 O553 2.025 . S
Sc551 O561 2.105 . S
Sc551 O565 2.105 . S
Sc551 O567 2.105 . S
Sc551 O571 2.105 . S
Sc552 O553 2.025 . S
Sc552 O562 2.105 . S
Sc552 O564 2.105 . S
Sc552 O568 2.105 . S
Sc552 O570 2.105 . S
O553 Sc550 2.025 . S
O553 Sc551 2.025 . S
O553 Sc552 2.025 . S
C554 O560 1.268 . S
C554 O570 1.268 . S
C555 O561 1.268 . S
C555 O569 1.268 . S
C556 O562 1.268 . S
C556 O571 1.268 . S
C557 O563 1.268 . S
C557 O567 1.268 . S
C558 O564 1.268 . S
C558 O566 1.268 . S
C559 O565 1.268 . S
C559 O568 1.268 . S
O560 Sc550 2.105 . S
O560 C554 1.268 . S
O561 Sc551 2.105 . S
O561 C555 1.268 . S
O562 Sc552 2.105 . S
O562 C556 1.268 . S
O563 Sc550 2.105 . S
O563 C557 1.268 . S
O564 Sc552 2.105 . S
O564 C558 1.268 . S
O565 Sc551 2.105 . S
O565 C559 1.268 . S
O566 Sc550 2.105 . S
O566 C558 1.268 . S
O567 Sc551 2.105 . S
O567 C557 1.268 . S
O568 Sc552 2.105 . S
O568 C559 1.268 . S
O569 Sc550 2.105 . S
O569 C555 1.268 . S
O570 Sc552 2.105 . S
O570 C554 1.268 . S
O571 Sc551 2.105 . S
O571 C556 1.268 . S
Sc572 O575 2.025 . S
Sc572 O582 2.105 . S
Sc572 O585 2.105 . S
Sc572 O588 2.105 . S
Sc572 O591 2.105 . S
Sc573 O575 2.025 . S
Sc573 O583 2.105 . S
Sc573 O587 2.105 . S
Sc573 O589 2.105 . S
Sc573 O593 2.105 . S
Sc574 O575 2.025 . S
Sc574 O584 2.105 . S
Sc574 O586 2.105 . S
Sc574 O590 2.105 . S
Sc574 O592 2.105 . S
O575 Sc572 2.025 . S
O575 Sc573 2.025 . S
O575 Sc574 2.025 . S
C576 O582 1.268 . S
C576 O592 1.268 . S
C577 O583 1.268 . S
C577 O591 1.268 . S
C578 O584 1.268 . S
C578 O593 1.268 . S
C579 O585 1.268 . S
C579 O589 1.268 . S
C580 O586 1.268 . S
C580 O588 1.268 . S
C581 O587 1.268 . S
C581 O590 1.268 . S
O582 Sc572 2.105 . S
O582 C576 1.268 . S
O583 Sc573 2.105 . S
O583 C577 1.268 . S
O584 Sc574 2.105 . S
O584 C578 1.268 . S
O585 Sc572 2.105 . S
O585 C579 1.268 . S
O586 Sc574 2.105 . S
O586 C580 1.268 . S
O587 Sc573 2.105 . S
O587 C581 1.268 . S
O588 Sc572 2.105 . S
O588 C580 1.268 . S
O589 Sc573 2.105 . S
O589 C579 1.268 . S
O590 Sc574 2.105 . S
O590 C581 1.268 . S
O591 Sc572 2.105 . S
O591 C577 1.268 . S
O592 Sc574 2.105 . S
O592 C576 1.268 . S
O593 Sc573 2.105 . S
O593 C578 1.268 . S
Sc594 O597 2.025 . S
Sc594 O604 2.105 . S
Sc594 O607 2.105 . S
Sc594 O610 2.105 . S
Sc594 O613 2.105 . S
Sc595 O597 2.025 . S
Sc595 O605 2.105 . S
Sc595 O609 2.105 . S
Sc595 O611 2.105 . S
Sc595 O615 2.105 . S
Sc596 O597 2.025 . S
Sc596 O606 2.105 . S
Sc596 O608 2.105 . S
Sc596 O612 2.105 . S
Sc596 O614 2.105 . S
O597 Sc594 2.025 . S
O597 Sc595 2.025 . S
O597 Sc596 2.025 . S
C598 O604 1.268 . S
C598 O614 1.268 . S
C599 O605 1.268 . S
C599 O613 1.268 . S
C600 O606 1.268 . S
C600 O615 1.268 . S
C601 O607 1.268 1_556 S
C601 O611 1.268 1_556 S
C602 O608 1.268 . S
C602 O610 1.268 . S
C603 O609 1.268 . S
C603 O612 1.268 . S
O604 Sc594 2.105 . S
O604 C598 1.268 . S
O605 Sc595 2.105 . S
O605 C599 1.268 . S
O606 Sc596 2.105 . S
O606 C600 1.268 . S
O607 Sc594 2.105 . S
O607 C601 1.268 1_554 S
O608 Sc596 2.105 . S
O608 C602 1.268 . S
O609 Sc595 2.105 . S
O609 C603 1.268 . S
O610 Sc594 2.105 . S
O610 C602 1.268 . S
O611 Sc595 2.105 . S
O611 C601 1.268 1_554 S
O612 Sc596 2.105 . S
O612 C603 1.268 . S
O613 Sc594 2.105 . S
O613 C599 1.268 . S
O614 Sc596 2.105 . S
O614 C598 1.268 . S
O615 Sc595 2.105 . S
O615 C600 1.268 . S
Sc616 O619 2.025 . S
Sc616 O626 2.105 . S
Sc616 O629 2.105 . S
Sc616 O632 2.105 . S
Sc616 O635 2.105 . S
Sc617 O619 2.025 . S
Sc617 O627 2.105 . S
Sc617 O631 2.105 . S
Sc617 O633 2.105 . S
Sc617 O637 2.105 . S
Sc618 O619 2.025 . S
Sc618 O628 2.105 . S
Sc618 O630 2.105 . S
Sc618 O634 2.105 . S
Sc618 O636 2.105 . S
O619 Sc616 2.025 . S
O619 Sc617 2.025 . S
O619 Sc618 2.025 . S
C620 O626 1.268 . S
C620 O636 1.268 . S
C621 O627 1.268 . S
C621 O635 1.268 . S
C622 O628 1.268 . S
C622 O637 1.268 . S
C623 O629 1.268 1_556 S
C623 O633 1.268 1_556 S
C624 O630 1.268 . S
C624 O632 1.268 . S
C625 O631 1.268 . S
C625 O634 1.268 . S
O626 Sc616 2.105 . S
O626 C620 1.268 . S
O627 Sc617 2.105 . S
O627 C621 1.268 . S
O628 Sc618 2.105 . S
O628 C622 1.268 . S
O629 Sc616 2.105 . S
O629 C623 1.268 1_554 S
O630 Sc618 2.105 . S
O630 C624 1.268 . S
O631 Sc617 2.105 . S
O631 C625 1.268 . S
O632 Sc616 2.105 . S
O632 C624 1.268 . S
O633 Sc617 2.105 . S
O633 C623 1.268 1_554 S
O634 Sc618 2.105 . S
O634 C625 1.268 . S
O635 Sc616 2.105 . S
O635 C621 1.268 . S
O636 Sc618 2.105 . S
O636 C620 1.268 . S
O637 Sc617 2.105 . S
O637 C622 1.268 . S
Sc638 O641 2.025 . S
Sc638 O648 2.105 . S
Sc638 O651 2.105 . S
Sc638 O654 2.105 . S
Sc638 O657 2.105 . S
Sc639 O641 2.025 . S
Sc639 O649 2.105 . S
Sc639 O653 2.105 . S
Sc639 O655 2.105 . S
Sc639 O659 2.105 . S
Sc640 O641 2.025 . S
Sc640 O650 2.105 . S
Sc640 O652 2.105 . S
Sc640 O656 2.105 . S
Sc640 O658 2.105 . S
O641 Sc638 2.025 . S
O641 Sc639 2.025 . S
O641 Sc640 2.025 . S
C642 O648 1.268 . S
C642 O658 1.268 . S
C643 O649 1.268 . S
C643 O657 1.268 . S
C644 O650 1.268 . S
C644 O659 1.268 . S
C645 O651 1.268 1_556 S
C645 O655 1.268 1_556 S
C646 O652 1.268 . S
C646 O654 1.268 . S
C647 O653 1.268 . S
C647 O656 1.268 . S
O648 Sc638 2.105 . S
O648 C642 1.268 . S
O649 Sc639 2.105 . S
O649 C643 1.268 . S
O650 Sc640 2.105 . S
O650 C644 1.268 . S
O651 Sc638 2.105 . S
O651 C645 1.268 1_554 S
O652 Sc640 2.105 . S
O652 C646 1.268 . S
O653 Sc639 2.105 . S
O653 C647 1.268 . S
O654 Sc638 2.105 . S
O654 C646 1.268 . S
O655 Sc639 2.105 . S
O655 C645 1.268 1_554 S
O656 Sc640 2.105 . S
O656 C647 1.268 . S
O657 Sc638 2.105 . S
O657 C643 1.268 . S
O658 Sc640 2.105 . S
O658 C642 1.268 . S
O659 Sc639 2.105 . S
O659 C644 1.268 . S
Sc660 O663 2.025 . S
Sc660 O670 2.105 . S
Sc660 O673 2.105 . S
Sc660 O676 2.105 . S
Sc660 O679 2.105 . S
Sc661 O663 2.025 . S
Sc661 O671 2.105 . S
Sc661 O675 2.105 . S
Sc661 O677 2.105 . S
Sc661 O681 2.105 . S
Sc662 O663 2.025 . S
Sc662 O672 2.105 . S
Sc662 O674 2.105 . S
Sc662 O678 2.105 . S
Sc662 O680 2.105 . S
O663 Sc660 2.025 . S
O663 Sc661 2.025 . S
O663 Sc662 2.025 . S
C664 O670 1.268 . S
C664 O680 1.268 . S
C665 O671 1.268 . S
C665 O679 1.268 . S
C666 O672 1.268 . S
C666 O681 1.268 . S
C667 O673 1.268 . S
C667 O677 1.268 . S
C668 O674 1.268 . S
C668 O676 1.268 . S
C669 O675 1.268 . S
C669 O678 1.268 . S
O670 Sc660 2.105 . S
O670 C664 1.268 . S
O671 Sc661 2.105 . S
O671 C665 1.268 . S
O672 Sc662 2.105 . S
O672 C666 1.268 . S
O673 Sc660 2.105 . S
O673 C667 1.268 . S
O674 Sc662 2.105 . S
O674 C668 1.268 . S
O675 Sc661 2.105 . S
O675 C669 1.268 . S
O676 Sc660 2.105 . S
O676 C668 1.268 . S
O677 Sc661 2.105 . S
O677 C667 1.268 . S
O678 Sc662 2.105 . S
O678 C669 1.268 . S
O679 Sc660 2.105 . S
O679 C665 1.268 . S
O680 Sc662 2.105 . S
O680 C664 1.268 . S
O681 Sc661 2.105 . S
O681 C666 1.268 . S
Sc682 O685 2.025 . S
Sc682 O692 2.105 . S
Sc682 O695 2.105 . S
Sc682 O698 2.105 . S
Sc682 O701 2.105 . S
Sc683 O685 2.025 . S
Sc683 O693 2.105 . S
Sc683 O697 2.105 . S
Sc683 O699 2.105 . S
Sc683 O703 2.105 . S
Sc684 O685 2.025 . S
Sc684 O694 2.105 . S
Sc684 O696 2.105 . S
Sc684 O700 2.105 . S
Sc684 O702 2.105 . S
O685 Sc682 2.025 . S
O685 Sc683 2.025 . S
O685 Sc684 2.025 . S
C686 O692 1.268 . S
C686 O702 1.268 . S
C687 O693 1.268 . S
C687 O701 1.268 . S
C688 O694 1.268 . S
C688 O703 1.268 . S
C689 O695 1.268 . S
C689 O699 1.268 . S
C690 O696 1.268 . S
C690 O698 1.268 . S
C691 O697 1.268 . S
C691 O700 1.268 . S
O692 Sc682 2.105 . S
O692 C686 1.268 . S
O693 Sc683 2.105 . S
O693 C687 1.268 . S
O694 Sc684 2.105 . S
O694 C688 1.268 . S
O695 Sc682 2.105 . S
O695 C689 1.268 . S
O696 Sc684 2.105 . S
O696 C690 1.268 . S
O697 Sc683 2.105 . S
O697 C691 1.268 . S
O698 Sc682 2.105 . S
O698 C690 1.268 . S
O699 Sc683 2.105 . S
O699 C689 1.268 . S
O700 Sc684 2.105 . S
O700 C691 1.268 . S
O701 Sc682 2.105 . S
O701 C687 1.268 . S
O702 Sc684 2.105 . S
O702 C686 1.268 . S
O703 Sc683 2.105 . S
O703 C688 1.268 . S
Sc704 O707 2.025 . S
Sc704 O714 2.105 . S
Sc704 O717 2.105 . S
Sc704 O720 2.105 . S
Sc704 O723 2.105 . S
Sc705 O707 2.025 . S
Sc705 O715 2.105 . S
Sc705 O719 2.105 . S
Sc705 O721 2.105 . S
Sc705 O725 2.105 . S
Sc706 O707 2.025 . S
Sc706 O716 2.105 . S
Sc706 O718 2.105 . S
Sc706 O722 2.105 . S
Sc706 O724 2.105 . S
O707 Sc704 2.025 . S
O707 Sc705 2.025 . S
O707 Sc706 2.025 . S
C708 O714 1.268 . S
C708 O724 1.268 . S
C709 O715 1.268 . S
C709 O723 1.268 . S
C710 O716 1.268 . S
C710 O725 1.268 . S
C711 O717 1.268 . S
C711 O721 1.268 . S
C712 O718 1.268 . S
C712 O720 1.268 . S
C713 O719 1.268 . S
C713 O722 1.268 . S
O714 Sc704 2.105 . S
O714 C708 1.268 . S
O715 Sc705 2.105 . S
O715 C709 1.268 . S
O716 Sc706 2.105 . S
O716 C710 1.268 . S
O717 Sc704 2.105 . S
O717 C711 1.268 . S
O718 Sc706 2.105 . S
O718 C712 1.268 . S
O719 Sc705 2.105 . S
O719 C713 1.268 . S
O720 Sc704 2.105 . S
O720 C712 1.268 . S
O721 Sc705 2.105 . S
O721 C711 1.268 . S
O722 Sc706 2.105 . S
O722 C713 1.268 . S
O723 Sc704 2.105 . S
O723 C709 1.268 . S
O724 Sc706 2.105 . S
O724 C708 1.268 . S
O725 Sc705 2.105 . S
O725 C710 1.268 . S
Sc726 O729 2.025 . S
Sc726 O736 2.105 . S
Sc726 O739 2.105 . S
Sc726 O742 2.105 . S
Sc726 O745 2.105 . S
Sc727 O729 2.025 . S
Sc727 O737 2.105 . S
Sc727 O741 2.105 . S
Sc727 O743 2.105 . S
Sc727 O747 2.105 . S
Sc728 O729 2.025 . S
Sc728 O738 2.105 . S
Sc728 O740 2.105 . S
Sc728 O744 2.105 . S
Sc728 O746 2.105 . S
O729 Sc726 2.025 . S
O729 Sc727 2.025 . S
O729 Sc728 2.025 . S
C730 O736 1.268 . S
C730 O746 1.268 . S
C731 O737 1.268 . S
C731 O745 1.268 . S
C732 O738 1.268 . S
C732 O747 1.268 . S
C733 O739 1.268 . S
C733 O743 1.268 . S
C734 O740 1.268 . S
C734 O742 1.268 . S
C735 O741 1.268 . S
C735 O744 1.268 . S
O736 Sc726 2.105 . S
O736 C730 1.268 . S
O737 Sc727 2.105 . S
O737 C731 1.268 . S
O738 Sc728 2.105 . S
O738 C732 1.268 . S
O739 Sc726 2.105 . S
O739 C733 1.268 . S
O740 Sc728 2.105 . S
O740 C734 1.268 . S
O741 Sc727 2.105 . S
O741 C735 1.268 . S
O742 Sc726 2.105 . S
O742 C734 1.268 . S
O743 Sc727 2.105 . S
O743 C733 1.268 . S
O744 Sc728 2.105 . S
O744 C735 1.268 . S
O745 Sc726 2.105 . S
O745 C731 1.268 . S
O746 Sc728 2.105 . S
O746 C730 1.268 . S
O747 Sc727 2.105 . S
O747 C732 1.268 . S
Sc748 O751 2.025 . S
Sc748 O758 2.105 . S
Sc748 O761 2.105 . S
Sc748 O764 2.105 . S
Sc748 O767 2.105 . S
Sc749 O751 2.025 . S
Sc749 O759 2.105 . S
Sc749 O763 2.105 . S
Sc749 O765 2.105 . S
Sc749 O769 2.105 . S
Sc750 O751 2.025 . S
Sc750 O760 2.105 . S
Sc750 O762 2.105 . S
Sc750 O766 2.105 . S
Sc750 O768 2.105 . S
O751 Sc748 2.025 . S
O751 Sc749 2.025 . S
O751 Sc750 2.025 . S
C752 O758 1.268 . S
C752 O768 1.268 . S
C753 O759 1.268 . S
C753 O767 1.268 . S
C754 O760 1.268 . S
C754 O769 1.268 . S
C755 O761 1.268 . S
C755 O765 1.268 . S
C756 O762 1.268 . S
C756 O764 1.268 . S
C757 O763 1.268 . S
C757 O766 1.268 . S
O758 Sc748 2.105 . S
O758 C752 1.268 . S
O759 Sc749 2.105 . S
O759 C753 1.268 . S
O760 Sc750 2.105 . S
O760 C754 1.268 . S
O761 Sc748 2.105 . S
O761 C755 1.268 . S
O762 Sc750 2.105 . S
O762 C756 1.268 . S
O763 Sc749 2.105 . S
O763 C757 1.268 . S
O764 Sc748 2.105 . S
O764 C756 1.268 . S
O765 Sc749 2.105 . S
O765 C755 1.268 . S
O766 Sc750 2.105 . S
O766 C757 1.268 . S
O767 Sc748 2.105 . S
O767 C753 1.268 . S
O768 Sc750 2.105 . S
O768 C752 1.268 . S
O769 Sc749 2.105 . S
O769 C754 1.268 . S
Sc770 O773 2.025 . S
Sc770 O780 2.105 . S
Sc770 O783 2.105 . S
Sc770 O786 2.105 . S
Sc770 O789 2.105 . S
Sc771 O773 2.025 . S
Sc771 O781 2.105 . S
Sc771 O785 2.105 . S
Sc771 O787 2.105 . S
Sc771 O791 2.105 . S
Sc772 O773 2.025 . S
Sc772 O782 2.105 . S
Sc772 O784 2.105 . S
Sc772 O788 2.105 . S
Sc772 O790 2.105 . S
O773 Sc770 2.025 . S
O773 Sc771 2.025 . S
O773 Sc772 2.025 . S
C774 O780 1.268 . S
C774 O790 1.268 . S
C775 O781 1.268 . S
C775 O789 1.268 . S
C776 O782 1.268 . S
C776 O791 1.268 . S
C777 O783 1.268 . S
C777 O787 1.268 . S
C778 O784 1.268 . S
C778 O786 1.268 . S
C779 O785 1.268 . S
C779 O788 1.268 . S
O780 Sc770 2.105 . S
O780 C774 1.268 . S
O781 Sc771 2.105 . S
O781 C775 1.268 . S
O782 Sc772 2.105 . S
O782 C776 1.268 . S
O783 Sc770 2.105 . S
O783 C777 1.268 . S
O784 Sc772 2.105 . S
O784 C778 1.268 . S
O785 Sc771 2.105 . S
O785 C779 1.268 . S
O786 Sc770 2.105 . S
O786 C778 1.268 . S
O787 Sc771 2.105 . S
O787 C777 1.268 . S
O788 Sc772 2.105 . S
O788 C779 1.268 . S
O789 Sc770 2.105 . S
O789 C775 1.268 . S
O790 Sc772 2.105 . S
O790 C774 1.268 . S
O791 Sc771 2.105 . S
O791 C776 1.268 . S
C792 C793 1.387 . S
C792 H796 0.950 . S
C792 C801 1.390 . S
C793 C792 1.387 . S
C793 C795 1.387 1_556 S
H794 C801 0.950 . S
C795 C793 1.387 1_554 S
C795 C797 1.390 . S
C795 H799 0.950 . S
H796 C792 0.950 . S
C797 C795 1.390 . S
C797 C798 1.387 1_554 S
C797 H800 0.950 . S
C798 C797 1.387 1_556 S
C798 C801 1.387 . S
H799 C795 0.950 . S
H800 C797 0.950 . S
C801 C792 1.390 . S
C801 H794 0.950 . S
C801 C798 1.387 . S
C802 C803 1.387 . S
C802 H806 0.950 . S
C802 C811 1.390 . S
C803 C802 1.387 . S
C803 C805 1.387 . S
H804 C811 0.959 . S
C805 C803 1.387 . S
C805 C807 1.390 . S
C805 H809 0.950 . S
H806 C802 0.950 . S
C807 C805 1.390 . S
C807 C808 1.387 . S
C807 H810 0.950 . S
C808 C807 1.387 . S
C808 C811 1.387 . S
H809 C805 0.950 . S
H810 C807 0.950 . S
C811 C802 1.390 . S
C811 H804 0.959 . S
C811 C808 1.387 . S
C812 C813 1.387 . S
C812 H816 0.950 1_556 S
C812 C821 1.390 1_556 S
C813 C812 1.387 . S
C813 C815 1.387 . S
H814 C821 0.950 . S
C815 C813 1.387 . S
C815 C817 1.390 . S
C815 H819 0.950 . S
H816 C812 0.950 1_554 S
C817 C815 1.390 . S
C817 C818 1.387 . S
C817 H820 0.950 . S
C818 C817 1.387 . S
C818 C821 1.387 1_556 S
H819 C815 0.950 . S
H820 C817 0.950 . S
C821 C812 1.390 1_554 S
C821 H814 0.950 . S
C821 C818 1.387 1_554 S
C822 C823 1.387 . S
C822 H826 0.950 . S
C822 C831 1.390 . S
C823 C822 1.387 . S
C823 C825 1.387 . S
H824 C831 0.950 . S
C825 C823 1.387 . S
C825 C827 1.390 . S
C825 H829 0.950 . S
H826 C822 0.950 . S
C827 C825 1.390 . S
C827 C828 1.387 . S
C827 H830 0.950 . S
C828 C827 1.387 . S
C828 C831 1.387 . S
H829 C825 0.950 . S
H830 C827 0.950 . S
C831 C822 1.390 . S
C831 H824 0.950 . S
C831 C828 1.387 . S
C832 C833 1.387 . S
C832 H836 0.950 . S
C832 C841 1.390 . S
C833 C832 1.387 . S
C833 C835 1.387 . S
H834 C841 0.950 . S
C835 C833 1.387 . S
C835 C837 1.390 . S
C835 H839 0.950 . S
H836 C832 0.950 . S
C837 C835 1.390 . S
C837 C838 1.387 . S
C837 H840 0.950 . S
C838 C837 1.387 . S
C838 C841 1.387 . S
H839 C835 0.950 . S
H840 C837 0.950 . S
C841 C832 1.390 . S
C841 H834 0.950 . S
C841 C838 1.387 . S
C842 C843 1.387 . S
C842 H846 0.950 . S
C842 C851 1.390 . S
C843 C842 1.387 . S
C843 C845 1.387 . S
H844 C851 0.950 . S
C845 C843 1.387 . S
C845 C847 1.390 . S
C845 H849 0.950 . S
H846 C842 0.950 . S
C847 C845 1.390 . S
C847 C848 1.387 . S
C847 H850 0.950 . S
C848 C847 1.387 . S
C848 C851 1.387 . S
H849 C845 0.950 . S
H850 C847 0.950 . S
C851 C842 1.390 . S
C851 H844 0.950 . S
C851 C848 1.387 . S
C852 C853 1.387 . S
C852 H856 0.950 . S
C852 C861 1.390 . S
C853 C852 1.387 . S
C853 C855 1.387 . S
H854 C861 0.950 . S
C855 C853 1.387 . S
C855 C857 1.390 . S
C855 H859 0.950 . S
H856 C852 0.950 . S
C857 C855 1.390 . S
C857 C858 1.387 . S
C857 H860 0.950 . S
C858 C857 1.387 . S
C858 C861 1.387 . S
H859 C855 0.950 . S
H860 C857 0.950 . S
C861 C852 1.390 . S
C861 H854 0.950 . S
C861 C858 1.387 . S
C862 C863 1.387 1_556 S
C862 H866 0.950 . S
C862 C871 1.390 . S
C863 C862 1.387 1_554 S
C863 C865 1.387 . S
H864 C871 0.950 . S
C865 C863 1.387 . S
C865 C867 1.390 . S
C865 H869 0.950 . S
H866 C862 0.950 . S
C867 C865 1.390 . S
C867 C868 1.387 . S
C867 H870 0.950 . S
C868 C867 1.387 . S
C868 C871 1.387 1_554 S
H869 C865 0.950 . S
H870 C867 0.950 . S
C871 C862 1.390 . S
C871 H864 0.950 . S
C871 C868 1.387 1_556 S
C872 C873 1.387 . S
C872 H876 0.950 1_554 S
C872 C881 1.390 1_554 S
C873 C872 1.387 . S
C873 C875 1.387 . S
H874 C881 0.950 . S
C875 C873 1.387 . S
C875 C877 1.390 . S
C875 H879 0.950 . S
H876 C872 0.950 1_556 S
C877 C875 1.390 . S
C877 C878 1.387 . S
C877 H880 0.950 . S
C878 C877 1.387 . S
C878 C881 1.387 1_554 S
H879 C875 0.950 . S
H880 C877 0.950 . S
C881 C872 1.390 1_556 S
C881 H874 0.950 . S
C881 C878 1.387 1_556 S
C882 C883 1.387 . S
C882 H886 0.950 . S
C882 C891 1.390 . S
C883 C882 1.387 . S
C883 C885 1.387 . S
H884 C891 0.950 . S
C885 C883 1.387 . S
C885 C887 1.390 . S
C885 H889 0.950 . S
H886 C882 0.950 . S
C887 C885 1.390 . S
C887 C888 1.387 . S
C887 H890 0.950 . S
C888 C887 1.387 . S
C888 C891 1.387 . S
H889 C885 0.950 . S
H890 C887 0.950 . S
C891 C882 1.390 . S
C891 H884 0.950 . S
C891 C888 1.387 . S
C892 C893 1.387 . S
C892 H896 0.950 . S
C892 C901 1.390 . S
C893 C892 1.387 . S
C893 C895 1.387 . S
H894 C901 0.950 . S
C895 C893 1.387 . S
C895 C897 1.390 . S
C895 H899 0.950 . S
H896 C892 0.950 . S
C897 C895 1.390 . S
C897 C898 1.387 . S
C897 H900 0.950 . S
C898 C897 1.387 . S
C898 C901 1.387 . S
H899 C895 0.950 . S
H900 C897 0.950 . S
C901 C892 1.390 . S
C901 H894 0.950 . S
C901 C898 1.387 . S
C902 C903 1.387 . S
C902 H906 0.950 . S
C902 C911 1.390 . S
C903 C902 1.387 . S
C903 C905 1.387 . S
H904 C911 0.950 . S
C905 C903 1.387 . S
C905 C907 1.390 . S
C905 H909 0.950 . S
H906 C902 0.950 . S
C907 C905 1.390 . S
C907 C908 1.387 . S
C907 H910 0.950 . S
C908 C907 1.387 . S
C908 C911 1.387 . S
H909 C905 0.950 . S
H910 C907 0.950 . S
C911 C902 1.390 . S
C911 H904 0.950 . S
C911 C908 1.387 . S
C912 C913 1.387 . S
C912 H916 0.950 . S
C912 C921 1.390 . S
C913 C912 1.387 . S
C913 C915 1.387 . S
H914 C921 0.950 . S
C915 C913 1.387 . S
C915 C917 1.390 . S
C915 H919 0.950 . S
H916 C912 0.950 . S
C917 C915 1.390 . S
C917 C918 1.387 . S
C917 H920 0.950 . S
C918 C917 1.387 . S
C918 C921 1.387 . S
H919 C915 0.950 . S
H920 C917 0.950 . S
C921 C912 1.390 . S
C921 H914 0.950 . S
C921 C918 1.387 . S
C922 C923 1.387 . S
C922 H926 0.950 . S
C922 C931 1.390 . S
C923 C922 1.387 . S
C923 C925 1.387 . S
H924 C931 0.950 . S
C925 C923 1.387 . S
C925 C927 1.390 . S
C925 H929 0.950 . S
H926 C922 0.950 . S
C927 C925 1.390 . S
C927 C928 1.387 . S
C927 H930 0.950 . S
C928 C927 1.387 . S
C928 C931 1.387 . S
H929 C925 0.950 . S
H930 C927 0.950 . S
C931 C922 1.390 . S
C931 H924 0.950 . S
C931 C928 1.387 . S
C932 C933 1.387 . S
C932 H936 0.950 . S
C932 C941 1.390 . S
C933 C932 1.387 . S
C933 C935 1.387 . S
H934 C941 0.950 . S
C935 C933 1.387 . S
C935 C937 1.390 . S
C935 H939 0.950 . S
H936 C932 0.950 . S
C937 C935 1.390 . S
C937 C938 1.387 . S
C937 H940 0.950 . S
C938 C937 1.387 . S
C938 C941 1.387 . S
H939 C935 0.950 . S
H940 C937 0.950 . S
C941 C932 1.390 . S
C941 H934 0.950 . S
C941 C938 1.387 . S
C942 C943 1.387 . S
C942 H946 0.950 . S
C942 C951 1.390 . S
C943 C942 1.387 . S
C943 C945 1.387 . S
H944 C951 0.950 . S
C945 C943 1.387 . S
C945 C947 1.390 . S
C945 H949 0.950 . S
H946 C942 0.950 . S
C947 C945 1.390 . S
C947 C948 1.387 . S
C947 H950 0.950 . S
C948 C947 1.387 . S
C948 C951 1.387 . S
H949 C945 0.950 . S
H950 C947 0.950 . S
C951 C942 1.390 . S
C951 H944 0.950 . S
C951 C948 1.387 . S
C952 C953 1.387 . S
C952 H956 0.950 . S
C952 C961 1.390 . S
C953 C952 1.387 . S
C953 C955 1.387 . S
H954 C961 0.950 . S
C955 C953 1.387 . S
C955 C957 1.390 . S
C955 H959 0.950 . S
H956 C952 0.950 . S
C957 C955 1.390 . S
C957 C958 1.387 . S
C957 H960 0.950 . S
C958 C957 1.387 . S
C958 C961 1.387 . S
H959 C955 0.950 . S
H960 C957 0.950 . S
C961 C952 1.390 . S
C961 H954 0.950 . S
C961 C958 1.387 . S
C962 C963 1.387 . S
C962 H966 0.950 . S
C962 C971 1.390 . S
C963 C962 1.387 . S
C963 C965 1.387 . S
H964 C971 0.950 . S
C965 C963 1.387 . S
C965 C967 1.390 . S
C965 H969 0.950 . S
H966 C962 0.950 . S
C967 C965 1.390 . S
C967 C968 1.387 . S
C967 H970 0.950 . S
C968 C967 1.387 . S
C968 C971 1.387 . S
H969 C965 0.950 . S
H970 C967 0.950 . S
C971 C962 1.390 . S
C971 H964 0.950 . S
C971 C968 1.387 . S
C972 C973 1.387 . S
C972 H976 0.950 . S
C972 C981 1.390 . S
C973 C972 1.387 . S
C973 C975 1.387 . S
H974 C981 0.950 . S
C975 C973 1.387 . S
C975 C977 1.390 . S
C975 H979 0.950 . S
H976 C972 0.950 . S
C977 C975 1.390 . S
C977 C978 1.387 . S
C977 H980 0.950 . S
C978 C977 1.387 . S
C978 C981 1.387 . S
H979 C975 0.950 . S
H980 C977 0.950 . S
C981 C972 1.390 . S
C981 H974 0.950 . S
C981 C978 1.387 . S
C982 C983 1.387 . S
C982 H986 0.950 . S
C982 C991 1.390 . S
C983 C982 1.387 . S
C983 C985 1.387 . S
H984 C991 0.950 . S
C985 C983 1.387 . S
C985 C987 1.390 . S
C985 H989 0.950 . S
H986 C982 0.950 . S
C987 C985 1.390 . S
C987 C988 1.387 . S
C987 H990 0.950 . S
C988 C987 1.387 . S
C988 C991 1.387 . S
H989 C985 0.950 . S
H990 C987 0.950 . S
C991 C982 1.390 . S
C991 H984 0.950 . S
C991 C988 1.387 . S
C992 C993 1.387 . S
C992 H996 0.950 . S
C992 C1001 1.390 . S
C993 C992 1.387 . S
C993 C995 1.387 . S
H994 C1001 0.950 . S
C995 C993 1.387 . S
C995 C997 1.390 . S
C995 H999 0.950 . S
H996 C992 0.950 . S
C997 C995 1.390 . S
C997 C998 1.387 . S
C997 H1000 0.950 . S
C998 C997 1.387 . S
C998 C1001 1.387 . S
H999 C995 0.950 . S
H1000 C997 0.950 . S
C1001 C992 1.390 . S
C1001 H994 0.950 . S
C1001 C998 1.387 . S
C1002 C1003 1.387 . S
C1002 H1006 0.950 . S
C1002 C1011 1.390 . S
C1003 C1002 1.387 . S
C1003 C1005 1.387 . S
H1004 C1011 0.950 . S
C1005 C1003 1.387 . S
C1005 C1007 1.390 . S
C1005 H1009 0.950 . S
H1006 C1002 0.950 . S
C1007 C1005 1.390 . S
C1007 C1008 1.387 . S
C1007 H1010 0.950 . S
C1008 C1007 1.387 . S
C1008 C1011 1.387 . S
H1009 C1005 0.950 . S
H1010 C1007 0.950 . S
C1011 C1002 1.390 . S
C1011 H1004 0.950 . S
C1011 C1008 1.387 . S
C1012 C1013 1.387 . S
C1012 H1016 0.950 . S
C1012 C1021 1.390 . S
C1013 C1012 1.387 . S
C1013 C1015 1.387 . S
H1014 C1021 0.950 . S
C1015 C1013 1.387 . S
C1015 C1017 1.390 . S
C1015 H1019 0.950 . S
H1016 C1012 0.950 . S
C1017 C1015 1.390 . S
C1017 C1018 1.387 . S
C1017 H1020 0.950 . S
C1018 C1017 1.387 . S
C1018 C1021 1.387 . S
H1019 C1015 0.950 . S
H1020 C1017 0.950 . S
C1021 C1012 1.390 . S
C1021 H1014 0.950 . S
C1021 C1018 1.387 . S
C1022 C1023 1.387 . S
C1022 H1026 0.950 . S
C1022 C1031 1.390 . S
C1023 C1022 1.387 . S
C1023 C1025 1.387 . S
H1024 C1031 0.950 . S
C1025 C1023 1.387 . S
C1025 C1027 1.390 . S
C1025 H1029 0.950 . S
H1026 C1022 0.950 . S
C1027 C1025 1.390 . S
C1027 C1028 1.387 . S
C1027 H1030 0.950 . S
C1028 C1027 1.387 . S
C1028 C1031 1.387 . S
H1029 C1025 0.950 . S
H1030 C1027 0.950 . S
C1031 C1022 1.390 . S
C1031 H1024 0.950 . S
C1031 C1028 1.387 . S
C1032 C1033 1.387 . S
C1032 H1036 0.950 . S
C1032 C1041 1.390 . S
C1033 C1032 1.387 . S
C1033 C1035 1.387 . S
H1034 C1041 0.950 . S
C1035 C1033 1.387 . S
C1035 C1037 1.390 . S
C1035 H1039 0.950 . S
H1036 C1032 0.950 . S
C1037 C1035 1.390 . S
C1037 C1038 1.387 . S
C1037 H1040 0.950 . S
C1038 C1037 1.387 . S
C1038 C1041 1.387 . S
H1039 C1035 0.950 . S
H1040 C1037 0.950 . S
C1041 C1032 1.390 . S
C1041 H1034 0.950 . S
C1041 C1038 1.387 . S
C1042 C1043 1.387 . S
C1042 H1046 0.950 . S
C1042 C1051 1.390 . S
C1043 C1042 1.387 . S
C1043 C1045 1.387 . S
H1044 C1051 0.950 . S
C1045 C1043 1.387 . S
C1045 C1047 1.390 . S
C1045 H1049 0.950 . S
H1046 C1042 0.950 . S
C1047 C1045 1.390 . S
C1047 C1048 1.387 . S
C1047 H1050 0.950 . S
C1048 C1047 1.387 . S
C1048 C1051 1.387 . S
H1049 C1045 0.950 . S
H1050 C1047 0.950 . S
C1051 C1042 1.390 . S
C1051 H1044 0.950 . S
C1051 C1048 1.387 . S
C1052 C1053 1.387 . S
C1052 H1056 0.950 . S
C1052 C1061 1.390 . S
C1053 C1052 1.387 . S
C1053 C1055 1.387 . S
H1054 C1061 0.950 . S
C1055 C1053 1.387 . S
C1055 C1057 1.390 . S
C1055 H1059 0.950 . S
H1056 C1052 0.950 . S
C1057 C1055 1.390 . S
C1057 C1058 1.387 . S
C1057 H1060 0.950 . S
C1058 C1057 1.387 . S
C1058 C1061 1.387 . S
H1059 C1055 0.950 . S
H1060 C1057 0.950 . S
C1061 C1052 1.390 . S
C1061 H1054 0.950 . S
C1061 C1058 1.387 . S
C1062 C1063 1.387 . S
C1062 H1066 0.950 . S
C1062 C1071 1.390 . S
C1063 C1062 1.387 . S
C1063 C1065 1.387 . S
H1064 C1071 0.950 . S
C1065 C1063 1.387 . S
C1065 C1067 1.390 . S
C1065 H1069 0.950 . S
H1066 C1062 0.950 . S
C1067 C1065 1.390 . S
C1067 C1068 1.387 . S
C1067 H1070 0.950 . S
C1068 C1067 1.387 . S
C1068 C1071 1.387 . S
H1069 C1065 0.950 . S
H1070 C1067 0.950 . S
C1071 C1062 1.390 . S
C1071 H1064 0.950 . S
C1071 C1068 1.387 . S
C1072 C1073 1.387 . S
C1072 H1076 0.950 . S
C1072 C1081 1.390 . S
C1073 C1072 1.387 . S
C1073 C1075 1.387 . S
H1074 C1081 0.950 . S
C1075 C1073 1.387 . S
C1075 C1077 1.390 . S
C1075 H1079 0.950 . S
H1076 C1072 0.950 . S
C1077 C1075 1.390 . S
C1077 C1078 1.387 . S
C1077 H1080 0.950 . S
C1078 C1077 1.387 . S
C1078 C1081 1.387 . S
H1079 C1075 0.950 . S
H1080 C1077 0.950 . S
C1081 C1072 1.390 . S
C1081 H1074 0.950 . S
C1081 C1078 1.387 . S
C1082 C1083 1.387 . S
C1082 H1086 0.950 . S
C1082 C1091 1.390 . S
C1083 C1082 1.387 . S
C1083 C1085 1.387 . S
H1084 C1091 0.950 . S
C1085 C1083 1.387 . S
C1085 C1087 1.390 . S
C1085 H1089 0.950 . S
H1086 C1082 0.950 . S
C1087 C1085 1.390 . S
C1087 C1088 1.387 . S
C1087 H1090 0.950 . S
C1088 C1087 1.387 . S
C1088 C1091 1.387 . S
H1089 C1085 0.950 . S
H1090 C1087 0.950 . S
C1091 C1082 1.390 . S
C1091 H1084 0.950 . S
C1091 C1088 1.387 . S
C1092 C1093 1.387 . S
C1092 H1096 0.950 . S
C1092 C1101 1.390 . S
C1093 C1092 1.387 . S
C1093 C1095 1.387 . S
H1094 C1101 0.950 . S
C1095 C1093 1.387 . S
C1095 C1097 1.390 . S
C1095 H1099 0.950 . S
H1096 C1092 0.950 . S
C1097 C1095 1.390 . S
C1097 C1098 1.387 . S
C1097 H1100 0.950 . S
C1098 C1097 1.387 . S
C1098 C1101 1.387 . S
H1099 C1095 0.950 . S
H1100 C1097 0.950 . S
C1101 C1092 1.390 . S
C1101 H1094 0.950 . S
C1101 C1098 1.387 . S
C1102 C1103 1.387 . S
C1102 H1106 0.950 . S
C1102 C1111 1.390 . S
C1103 C1102 1.387 . S
C1103 C1105 1.387 . S
H1104 C1111 0.950 . S
C1105 C1103 1.387 . S
C1105 C1107 1.390 . S
C1105 H1109 0.950 . S
H1106 C1102 0.950 . S
C1107 C1105 1.390 . S
C1107 C1108 1.387 . S
C1107 H1110 0.950 . S
C1108 C1107 1.387 . S
C1108 C1111 1.387 . S
H1109 C1105 0.950 . S
H1110 C1107 0.950 . S
C1111 C1102 1.390 . S
C1111 H1104 0.950 . S
C1111 C1108 1.387 . S
C1112 C1113 1.387 . S
C1112 H1116 0.950 . S
C1112 C1121 1.390 . S
C1113 C1112 1.387 . S
C1113 C1115 1.387 . S
H1114 C1121 0.950 . S
C1115 C1113 1.387 . S
C1115 C1117 1.390 . S
C1115 H1119 0.950 . S
H1116 C1112 0.950 . S
C1117 C1115 1.390 . S
C1117 C1118 1.387 . S
C1117 H1120 0.950 . S
C1118 C1117 1.387 . S
C1118 C1121 1.387 . S
H1119 C1115 0.950 . S
H1120 C1117 0.950 . S
C1121 C1112 1.390 . S
C1121 H1114 0.950 . S
C1121 C1118 1.387 . S
C1122 C1123 1.387 . S
C1122 H1126 0.950 . S
C1122 C1131 1.390 . S
C1123 C1122 1.387 . S
C1123 C1125 1.387 . S
H1124 C1131 0.950 . S
C1125 C1123 1.387 . S
C1125 C1127 1.390 . S
C1125 H1129 0.950 . S
H1126 C1122 0.950 . S
C1127 C1125 1.390 . S
C1127 C1128 1.387 . S
C1127 H1130 0.950 . S
C1128 C1127 1.387 . S
C1128 C1131 1.387 . S
H1129 C1125 0.950 . S
H1130 C1127 0.950 . S
C1131 C1122 1.390 . S
C1131 H1124 0.950 . S
C1131 C1128 1.387 . S
C1132 C1133 1.387 . S
C1132 H1136 0.950 . S
C1132 C1141 1.390 . S
C1133 C1132 1.387 . S
C1133 C1135 1.387 . S
H1134 C1141 0.950 . S
C1135 C1133 1.387 . S
C1135 C1137 1.390 . S
C1135 H1139 0.950 . S
H1136 C1132 0.950 . S
C1137 C1135 1.390 . S
C1137 C1138 1.387 . S
C1137 H1140 0.950 . S
C1138 C1137 1.387 . S
C1138 C1141 1.387 . S
H1139 C1135 0.950 . S
H1140 C1137 0.950 . S
C1141 C1132 1.390 . S
C1141 H1134 0.950 . S
C1141 C1138 1.387 . S
C1142 C1143 1.387 . S
C1142 H1146 0.950 . S
C1142 C1151 1.390 . S
C1143 C1142 1.387 . S
C1143 C1145 1.387 . S
H1144 C1151 0.950 . S
C1145 C1143 1.387 . S
C1145 C1147 1.390 . S
C1145 H1149 0.950 . S
H1146 C1142 0.950 . S
C1147 C1145 1.390 . S
C1147 C1148 1.387 . S
C1147 H1150 0.950 . S
C1148 C1147 1.387 . S
C1148 C1151 1.387 . S
H1149 C1145 0.950 . S
H1150 C1147 0.950 . S
C1151 C1142 1.390 . S
C1151 H1144 0.950 . S
C1151 C1148 1.387 . S
C1152 C1153 1.387 . S
C1152 H1156 0.950 . S
C1152 C1161 1.390 . S
C1153 C1152 1.387 . S
C1153 C1155 1.387 . S
H1154 C1161 0.950 . S
C1155 C1153 1.387 . S
C1155 C1157 1.390 . S
C1155 H1159 0.950 . S
H1156 C1152 0.950 . S
C1157 C1155 1.390 . S
C1157 C1158 1.387 . S
C1157 H1160 0.950 . S
C1158 C1157 1.387 . S
C1158 C1161 1.387 . S
H1159 C1155 0.950 . S
H1160 C1157 0.950 . S
C1161 C1152 1.390 . S
C1161 H1154 0.950 . S
C1161 C1158 1.387 . S
C1162 C1163 1.387 . S
C1162 H1166 0.950 . S
C1162 C1171 1.390 . S
C1163 C1162 1.387 . S
C1163 C1165 1.387 . S
H1164 C1171 0.950 . S
C1165 C1163 1.387 . S
C1165 C1167 1.390 . S
C1165 H1169 0.950 . S
H1166 C1162 0.950 . S
C1167 C1165 1.390 . S
C1167 C1168 1.387 . S
C1167 H1170 0.950 . S
C1168 C1167 1.387 . S
C1168 C1171 1.387 . S
H1169 C1165 0.950 . S
H1170 C1167 0.950 . S
C1171 C1162 1.390 . S
C1171 H1164 0.950 . S
C1171 C1168 1.387 . S
C1172 C1173 1.387 . S
C1172 H1176 0.950 . S
C1172 C1181 1.390 . S
C1173 C1172 1.387 . S
C1173 C1175 1.387 . S
H1174 C1181 0.950 . S
C1175 C1173 1.387 . S
C1175 C1177 1.390 . S
C1175 H1179 0.950 . S
H1176 C1172 0.950 . S
C1177 C1175 1.390 . S
C1177 C1178 1.387 . S
C1177 H1180 0.950 . S
C1178 C1177 1.387 . S
C1178 C1181 1.387 . S
H1179 C1175 0.950 . S
H1180 C1177 0.950 . S
C1181 C1172 1.390 . S
C1181 H1174 0.950 . S
C1181 C1178 1.387 . S
C1182 C1183 1.387 . S
C1182 H1186 0.950 . S
C1182 C1191 1.390 . S
C1183 C1182 1.387 . S
C1183 C1185 1.387 . S
H1184 C1191 0.950 . S
C1185 C1183 1.387 . S
C1185 C1187 1.390 . S
C1185 H1189 0.950 . S
H1186 C1182 0.950 . S
C1187 C1185 1.390 . S
C1187 C1188 1.387 . S
C1187 H1190 0.950 . S
C1188 C1187 1.387 . S
C1188 C1191 1.387 . S
H1189 C1185 0.950 . S
H1190 C1187 0.950 . S
C1191 C1182 1.390 . S
C1191 H1184 0.950 . S
C1191 C1188 1.387 . S
C1192 C1193 1.387 . S
C1192 H1196 0.950 . S
C1192 C1201 1.390 . S
C1193 C1192 1.387 . S
C1193 C1195 1.387 . S
H1194 C1201 0.950 . S
C1195 C1193 1.387 . S
C1195 C1197 1.390 . S
C1195 H1199 0.950 . S
H1196 C1192 0.950 . S
C1197 C1195 1.390 . S
C1197 C1198 1.387 . S
C1197 H1200 0.950 . S
C1198 C1197 1.387 . S
C1198 C1201 1.387 . S
H1199 C1195 0.950 . S
H1200 C1197 0.950 . S
C1201 C1192 1.390 . S
C1201 H1194 0.950 . S
C1201 C1198 1.387 . S
C1202 C1203 1.387 . S
C1202 H1206 0.950 . S
C1202 C1211 1.390 . S
C1203 C1202 1.387 . S
C1203 C1205 1.387 . S
H1204 C1211 0.950 . S
C1205 C1203 1.387 . S
C1205 C1207 1.390 . S
C1205 H1209 0.950 . S
H1206 C1202 0.950 . S
C1207 C1205 1.390 . S
C1207 C1208 1.387 . S
C1207 H1210 0.950 . S
C1208 C1207 1.387 . S
C1208 C1211 1.387 . S
H1209 C1205 0.950 . S
H1210 C1207 0.950 . S
C1211 C1202 1.390 . S
C1211 H1204 0.950 . S
C1211 C1208 1.387 . S
C1212 C1213 1.387 . S
C1212 H1216 0.950 . S
C1212 C1221 1.390 . S
C1213 C1212 1.387 . S
C1213 C1215 1.387 . S
H1214 C1221 0.950 . S
C1215 C1213 1.387 . S
C1215 C1217 1.390 . S
C1215 H1219 0.950 . S
H1216 C1212 0.950 . S
C1217 C1215 1.390 . S
C1217 C1218 1.387 . S
C1217 H1220 0.950 . S
C1218 C1217 1.387 . S
C1218 C1221 1.387 . S
H1219 C1215 0.950 . S
H1220 C1217 0.950 . S
C1221 C1212 1.390 . S
C1221 H1214 0.950 . S
C1221 C1218 1.387 . S
C1222 C1223 1.387 . S
C1222 H1226 0.950 . S
C1222 C1231 1.390 . S
C1223 C1222 1.387 . S
C1223 C1225 1.387 . S
H1224 C1231 0.950 . S
C1225 C1223 1.387 . S
C1225 C1227 1.390 . S
C1225 H1229 0.950 . S
H1226 C1222 0.950 . S
C1227 C1225 1.390 . S
C1227 C1228 1.387 . S
C1227 H1230 0.950 . S
C1228 C1227 1.387 . S
C1228 C1231 1.387 . S
H1229 C1225 0.950 . S
H1230 C1227 0.950 . S
C1231 C1222 1.390 . S
C1231 H1224 0.950 . S
C1231 C1228 1.387 . S
C1232 C1233 1.387 . S
C1232 H1236 0.950 . S
C1232 C1241 1.390 . S
C1233 C1232 1.387 . S
C1233 C1235 1.387 . S
H1234 C1241 0.950 . S
C1235 C1233 1.387 . S
C1235 C1237 1.390 . S
C1235 H1239 0.950 . S
H1236 C1232 0.950 . S
C1237 C1235 1.390 . S
C1237 C1238 1.387 . S
C1237 H1240 0.950 . S
C1238 C1237 1.387 . S
C1238 C1241 1.387 . S
H1239 C1235 0.950 . S
H1240 C1237 0.950 . S
C1241 C1232 1.390 . S
C1241 H1234 0.950 . S
C1241 C1238 1.387 . S
C1242 C1243 1.387 . S
C1242 H1246 0.950 . S
C1242 C1251 1.390 . S
C1243 C1242 1.387 . S
C1243 C1245 1.387 . S
H1244 C1251 0.950 . S
C1245 C1243 1.387 . S
C1245 C1247 1.390 . S
C1245 H1249 0.950 . S
H1246 C1242 0.950 . S
C1247 C1245 1.390 . S
C1247 C1248 1.387 . S
C1247 H1250 0.950 . S
C1248 C1247 1.387 . S
C1248 C1251 1.387 . S
H1249 C1245 0.950 . S
H1250 C1247 0.950 . S
C1251 C1242 1.390 . S
C1251 H1244 0.950 . S
C1251 C1248 1.387 . S
C1252 C1253 1.387 . S
C1252 H1256 0.950 . S
C1252 C1261 1.390 . S
C1253 C1252 1.387 . S
C1253 C1255 1.387 . S
H1254 C1261 0.950 . S
C1255 C1253 1.387 . S
C1255 C1257 1.390 . S
C1255 H1259 0.950 . S
H1256 C1252 0.950 . S
C1257 C1255 1.390 . S
C1257 C1258 1.387 . S
C1257 H1260 0.950 . S
C1258 C1257 1.387 . S
C1258 C1261 1.387 . S
H1259 C1255 0.950 . S
H1260 C1257 0.950 . S
C1261 C1252 1.390 . S
C1261 H1254 0.950 . S
C1261 C1258 1.387 . S
C1262 C1263 1.387 . S
C1262 H1266 0.950 . S
C1262 C1271 1.390 . S
C1263 C1262 1.387 . S
C1263 C1265 1.387 . S
H1264 C1271 0.950 . S
C1265 C1263 1.387 . S
C1265 C1267 1.390 . S
C1265 H1269 0.950 . S
H1266 C1262 0.950 . S
C1267 C1265 1.390 . S
C1267 C1268 1.387 . S
C1267 H1270 0.950 . S
C1268 C1267 1.387 . S
C1268 C1271 1.387 . S
H1269 C1265 0.950 . S
H1270 C1267 0.950 . S
C1271 C1262 1.390 . S
C1271 H1264 0.950 . S
C1271 C1268 1.387 . S
C1272 C1273 1.387 . S
C1272 H1276 0.950 . S
C1272 C1281 1.390 1_655 S
C1273 C1272 1.387 . S
C1273 C1275 1.387 . S
H1274 C1281 0.950 . S
C1275 C1273 1.387 . S
C1275 C1277 1.390 1_655 S
C1275 H1279 0.950 . S
H1276 C1272 0.950 . S
C1277 C1275 1.390 1_455 S
C1277 C1278 1.387 . S
C1277 H1280 0.950 . S
C1278 C1277 1.387 . S
C1278 C1281 1.387 . S
H1279 C1275 0.950 . S
H1280 C1277 0.950 . S
C1281 C1272 1.390 1_455 S
C1281 H1274 0.950 . S
C1281 C1278 1.387 . S
C1282 C1283 1.387 . S
C1282 H1286 0.950 . S
C1282 C1291 1.390 . S
C1283 C1282 1.387 . S
C1283 C1285 1.387 . S
H1284 C1291 0.950 . S
C1285 C1283 1.387 . S
C1285 C1287 1.390 . S
C1285 H1289 0.950 . S
H1286 C1282 0.950 . S
C1287 C1285 1.390 . S
C1287 C1288 1.387 . S
C1287 H1290 0.950 . S
C1288 C1287 1.387 . S
C1288 C1291 1.387 . S
H1289 C1285 0.950 . S
H1290 C1287 0.950 . S
C1291 C1282 1.390 . S
C1291 H1284 0.950 . S
C1291 C1288 1.387 . S
C1292 C1293 1.387 . S
C1292 H1296 0.950 . S
C1292 C1301 1.390 1_545 S
C1293 C1292 1.387 . S
C1293 C1295 1.387 . S
H1294 C1301 0.950 . S
C1295 C1293 1.387 . S
C1295 C1297 1.390 1_545 S
C1295 H1299 0.950 . S
H1296 C1292 0.950 . S
C1297 C1295 1.390 1_565 S
C1297 C1298 1.387 . S
C1297 H1300 0.950 . S
C1298 C1297 1.387 . S
C1298 C1301 1.387 . S
H1299 C1295 0.950 . S
H1300 C1297 0.950 . S
C1301 C1292 1.390 1_565 S
C1301 H1294 0.950 . S
C1301 C1298 1.387 . S
C1302 C1303 1.387 1_556 S
C1302 H1306 0.950 . S
C1302 C1311 1.390 1_565 S
C1303 C1302 1.387 1_554 S
C1303 C1305 1.387 . S
H1304 C1311 0.950 . S
C1305 C1303 1.387 . S
C1305 C1307 1.390 1_565 S
C1305 H1309 0.950 . S
H1306 C1302 0.950 . S
C1307 C1305 1.390 1_545 S
C1307 C1308 1.387 1_554 S
C1307 H1310 0.950 . S
C1308 C1307 1.387 1_556 S
C1308 C1311 1.387 . S
H1309 C1305 0.950 . S
H1310 C1307 0.950 . S
C1311 C1302 1.390 1_545 S
C1311 H1304 0.950 . S
C1311 C1308 1.387 . S
C1312 C1313 1.387 1_554 S
C1312 H1316 0.950 . S
C1312 C1321 1.390 1_655 S
C1313 C1312 1.387 1_556 S
C1313 C1315 1.387 . S
H1314 C1321 0.950 . S
C1315 C1313 1.387 . S
C1315 C1317 1.390 1_655 S
C1315 H1319 0.950 . S
H1316 C1312 0.950 . S
C1317 C1315 1.390 1_455 S
C1317 C1318 1.387 1_556 S
C1317 H1320 0.950 . S
C1318 C1317 1.387 1_554 S
C1318 C1321 1.387 . S
H1319 C1315 0.950 . S
H1320 C1317 0.950 . S
C1321 C1312 1.390 1_455 S
C1321 H1314 0.950 . S
C1321 C1318 1.387 . S
C1322 C1323 1.387 . S
C1322 H1326 0.950 . S
C1322 C1331 1.390 . S
C1323 C1322 1.387 . S
C1323 C1325 1.387 1_554 S
H1324 C1331 0.950 . S
C1325 C1323 1.387 1_556 S
C1325 C1327 1.390 . S
C1325 H1329 0.950 . S
H1326 C1322 0.950 . S
C1327 C1325 1.390 . S
C1327 C1328 1.387 . S
C1327 H1330 0.950 . S
C1328 C1327 1.387 . S
C1328 C1331 1.387 1_556 S
H1329 C1325 0.950 . S
H1330 C1327 0.950 . S
C1331 C1322 1.390 . S
C1331 H1324 0.950 . S
C1331 C1328 1.387 1_554 S
C1332 C1333 1.387 . S
C1332 H1336 0.950 . S
C1332 C1341 1.390 . S
C1333 C1332 1.387 . S
C1333 C1335 1.387 . S
H1334 C1341 0.950 . S
C1335 C1333 1.387 . S
C1335 C1337 1.390 . S
C1335 H1339 0.950 . S
H1336 C1332 0.950 . S
C1337 C1335 1.390 . S
C1337 C1338 1.387 . S
C1337 H1340 0.950 . S
C1338 C1337 1.387 . S
C1338 C1341 1.387 . S
H1339 C1335 0.950 . S
H1340 C1337 0.950 . S
C1341 C1332 1.390 . S
C1341 H1334 0.950 . S
C1341 C1338 1.387 . S
C1342 C1343 1.387 . S
C1342 H1346 0.950 . S
C1342 C1351 1.390 . S
C1343 C1342 1.387 . S
C1343 C1345 1.387 . S
H1344 C1351 0.950 . S
C1345 C1343 1.387 . S
C1345 C1347 1.390 . S
C1345 H1349 0.950 . S
H1346 C1342 0.950 . S
C1347 C1345 1.390 . S
C1347 C1348 1.387 . S
C1347 H1350 0.950 . S
C1348 C1347 1.387 . S
C1348 C1351 1.387 . S
H1349 C1345 0.950 . S
H1350 C1347 0.950 . S
C1351 C1342 1.390 . S
C1351 H1344 0.950 . S
C1351 C1348 1.387 . S
C1352 C1353 1.387 . S
C1352 H1356 0.950 . S
C1352 C1361 1.390 . S
C1353 C1352 1.387 . S
C1353 C1355 1.387 . S
H1354 C1361 0.950 . S
C1355 C1353 1.387 . S
C1355 C1357 1.390 . S
C1355 H1359 0.950 . S
H1356 C1352 0.950 . S
C1357 C1355 1.390 . S
C1357 C1358 1.387 . S
C1357 H1360 0.950 . S
C1358 C1357 1.387 . S
C1358 C1361 1.387 . S
H1359 C1355 0.950 . S
H1360 C1357 0.950 . S
C1361 C1352 1.390 . S
C1361 H1354 0.950 . S
C1361 C1358 1.387 . S
C1362 C1363 1.387 . S
C1362 H1366 0.950 . S
C1362 C1371 1.390 . S
C1363 C1362 1.387 . S
C1363 C1365 1.387 . S
H1364 C1371 0.950 . S
C1365 C1363 1.387 . S
C1365 C1367 1.390 . S
C1365 H1369 0.950 . S
H1366 C1362 0.950 . S
C1367 C1365 1.390 . S
C1367 C1368 1.387 . S
C1367 H1370 0.950 . S
C1368 C1367 1.387 . S
C1368 C1371 1.387 . S
H1369 C1365 0.950 . S
H1370 C1367 0.950 . S
C1371 C1362 1.390 . S
C1371 H1364 0.950 . S
C1371 C1368 1.387 . S
C1372 C1373 1.387 . S
C1372 H1376 0.950 . S
C1372 C1381 1.390 . S
C1373 C1372 1.387 . S
C1373 C1375 1.387 . S
H1374 C1381 0.950 . S
C1375 C1373 1.387 . S
C1375 C1377 1.390 . S
C1375 H1379 0.950 . S
H1376 C1372 0.950 . S
C1377 C1375 1.390 . S
C1377 C1378 1.387 . S
C1377 H1380 0.950 . S
C1378 C1377 1.387 . S
C1378 C1381 1.387 . S
H1379 C1375 0.950 . S
H1380 C1377 0.950 . S
C1381 C1372 1.390 . S
C1381 H1374 0.950 . S
C1381 C1378 1.387 . S
C1382 C1383 1.387 . S
C1382 H1386 0.950 . S
C1382 C1391 1.390 . S
C1383 C1382 1.387 . S
C1383 C1385 1.387 . S
H1384 C1391 0.950 . S
C1385 C1383 1.387 . S
C1385 C1387 1.390 . S
C1385 H1389 0.950 . S
H1386 C1382 0.950 . S
C1387 C1385 1.390 . S
C1387 C1388 1.387 . S
C1387 H1390 0.950 . S
C1388 C1387 1.387 . S
C1388 C1391 1.387 . S
H1389 C1385 0.950 . S
H1390 C1387 0.950 . S
C1391 C1382 1.390 . S
C1391 H1384 0.950 . S
C1391 C1388 1.387 . S
C1392 C1393 1.387 . S
C1392 H1396 0.950 . S
C1392 C1401 1.390 . S
C1393 C1392 1.387 . S
C1393 C1395 1.387 . S
H1394 C1401 0.950 . S
C1395 C1393 1.387 . S
C1395 C1397 1.390 . S
C1395 H1399 0.950 . S
H1396 C1392 0.950 . S
C1397 C1395 1.390 . S
C1397 C1398 1.387 . S
C1397 H1400 0.950 . S
C1398 C1397 1.387 . S
C1398 C1401 1.387 . S
H1399 C1395 0.950 . S
H1400 C1397 0.950 . S
C1401 C1392 1.390 . S
C1401 H1394 0.950 . S
C1401 C1398 1.387 . S
C1402 C1403 1.387 . S
C1402 H1406 0.950 . S
C1402 C1411 1.390 . S
C1403 C1402 1.387 . S
C1403 C1405 1.387 . S
H1404 C1411 0.950 . S
C1405 C1403 1.387 . S
C1405 C1407 1.390 . S
C1405 H1409 0.950 . S
H1406 C1402 0.950 . S
C1407 C1405 1.390 . S
C1407 C1408 1.387 . S
C1407 H1410 0.950 . S
C1408 C1407 1.387 . S
C1408 C1411 1.387 . S
H1409 C1405 0.950 . S
H1410 C1407 0.950 . S
C1411 C1402 1.390 . S
C1411 H1404 0.950 . S
C1411 C1408 1.387 . S
C1412 C1413 1.387 . S
C1412 H1416 0.950 . S
C1412 C1421 1.390 . S
C1413 C1412 1.387 . S
C1413 C1415 1.387 . S
H1414 C1421 0.950 . S
C1415 C1413 1.387 . S
C1415 C1417 1.390 . S
C1415 H1419 0.950 . S
H1416 C1412 0.950 . S
C1417 C1415 1.390 . S
C1417 C1418 1.387 . S
C1417 H1420 0.950 . S
C1418 C1417 1.387 . S
C1418 C1421 1.387 . S
H1419 C1415 0.950 . S
H1420 C1417 0.950 . S
C1421 C1412 1.390 . S
C1421 H1414 0.950 . S
C1421 C1418 1.387 . S
C1422 C1423 1.387 . S
C1422 H1426 0.950 . S
C1422 C1431 1.390 . S
C1423 C1422 1.387 . S
C1423 C1425 1.387 . S
H1424 C1431 0.950 . S
C1425 C1423 1.387 . S
C1425 C1427 1.390 . S
C1425 H1429 0.950 . S
H1426 C1422 0.950 . S
C1427 C1425 1.390 . S
C1427 C1428 1.387 . S
C1427 H1430 0.950 . S
C1428 C1427 1.387 . S
C1428 C1431 1.387 . S
H1429 C1425 0.950 . S
H1430 C1427 0.950 . S
C1431 C1422 1.390 . S
C1431 H1424 0.950 . S
C1431 C1428 1.387 . S
C1432 C1433 1.387 . S
C1432 H1436 0.950 . S
C1432 C1441 1.390 . S
C1433 C1432 1.387 . S
C1433 C1435 1.387 . S
H1434 C1441 0.950 . S
C1435 C1433 1.387 . S
C1435 C1437 1.390 . S
C1435 H1439 0.950 . S
H1436 C1432 0.950 . S
C1437 C1435 1.390 . S
C1437 C1438 1.387 . S
C1437 H1440 0.950 . S
C1438 C1437 1.387 . S
C1438 C1441 1.387 . S
H1439 C1435 0.950 . S
H1440 C1437 0.950 . S
C1441 C1432 1.390 . S
C1441 H1434 0.950 . S
C1441 C1438 1.387 . S
C1442 C1443 1.387 . S
C1442 H1446 0.950 . S
C1442 C1451 1.390 . S
C1443 C1442 1.387 . S
C1443 C1445 1.387 . S
H1444 C1451 0.950 . S
C1445 C1443 1.387 . S
C1445 C1447 1.390 . S
C1445 H1449 0.950 . S
H1446 C1442 0.950 . S
C1447 C1445 1.390 . S
C1447 C1448 1.387 . S
C1447 H1450 0.950 . S
C1448 C1447 1.387 . S
C1448 C1451 1.387 . S
H1449 C1445 0.950 . S
H1450 C1447 0.950 . S
C1451 C1442 1.390 . S
C1451 H1444 0.950 . S
C1451 C1448 1.387 . S
C1452 C1453 1.387 1_655 S
C1452 H1456 0.952 . S
C1452 C1461 1.389 . S
C1453 C1452 1.387 1_455 S
C1453 C1455 1.387 . S
H1454 C1461 0.950 . S
C1455 C1453 1.387 . S
C1455 C1457 1.389 . S
C1455 H1459 0.950 . S
H1456 C1452 0.952 . S
C1457 C1455 1.389 . S
C1457 C1458 1.387 1_455 S
C1457 H1460 0.952 . S
C1458 C1457 1.387 1_655 S
C1458 C1461 1.387 . S
H1459 C1455 0.950 . S
H1460 C1457 0.952 . S
C1461 C1452 1.389 . S
C1461 H1454 0.950 . S
C1461 C1458 1.387 . S
C1462 C1463 1.387 . S
C1462 H1466 0.950 . S
C1462 C1471 1.390 . S
C1463 C1462 1.387 . S
C1463 C1465 1.387 . S
H1464 C1471 0.950 . S
C1465 C1463 1.387 . S
C1465 C1467 1.390 . S
C1465 H1469 0.950 . S
H1466 C1462 0.950 . S
C1467 C1465 1.390 . S
C1467 C1468 1.387 . S
C1467 H1470 0.950 . S
C1468 C1467 1.387 . S
C1468 C1471 1.387 . S
H1469 C1465 0.950 . S
H1470 C1467 0.950 . S
C1471 C1462 1.390 . S
C1471 H1464 0.950 . S
C1471 C1468 1.387 . S
C1472 C1473 1.387 . S
C1472 H1476 0.950 . S
C1472 C1481 1.390 1_545 S
C1473 C1472 1.387 . S
C1473 C1475 1.387 . S
H1474 C1481 0.950 . S
C1475 C1473 1.387 . S
C1475 C1477 1.390 1_545 S
C1475 H1479 0.950 . S
H1476 C1472 0.950 . S
C1477 C1475 1.390 1_565 S
C1477 C1478 1.387 . S
C1477 H1480 0.950 . S
C1478 C1477 1.387 . S
C1478 C1481 1.387 . S
H1479 C1475 0.950 . S
H1480 C1477 0.950 . S
C1481 C1472 1.390 1_565 S
C1481 H1474 0.950 . S
C1481 C1478 1.387 . S
C1482 C1483 1.387 . S
C1482 H1486 0.950 . S
C1482 C1491 1.390 1_565 S
C1483 C1482 1.387 . S
C1483 C1485 1.387 . S
H1484 C1491 0.950 . S
C1485 C1483 1.387 . S
C1485 C1487 1.390 1_565 S
C1485 H1489 0.950 . S
H1486 C1482 0.950 . S
C1487 C1485 1.390 1_545 S
C1487 C1488 1.387 . S
C1487 H1490 0.950 . S
C1488 C1487 1.387 . S
C1488 C1491 1.387 . S
H1489 C1485 0.950 . S
H1490 C1487 0.950 . S
C1491 C1482 1.390 1_545 S
C1491 H1484 0.950 . S
C1491 C1488 1.387 . S
C1492 C1493 1.387 . S
C1492 H1496 0.950 . S
C1492 C1501 1.390 . S
C1493 C1492 1.387 . S
C1493 C1495 1.387 1_455 S
H1494 C1501 0.950 . S
C1495 C1493 1.387 1_655 S
C1495 C1497 1.390 . S
C1495 H1499 0.950 . S
H1496 C1492 0.950 . S
C1497 C1495 1.390 . S
C1497 C1498 1.387 . S
C1497 H1500 0.950 . S
C1498 C1497 1.387 . S
C1498 C1501 1.387 1_655 S
H1499 C1495 0.950 . S
H1500 C1497 0.950 . S
C1501 C1492 1.390 . S
C1501 H1494 0.950 . S
C1501 C1498 1.387 1_455 S
C1502 C1503 1.387 . S
C1502 H1506 0.950 . S
C1502 C1511 1.390 . S
C1503 C1502 1.387 . S
C1503 C1505 1.387 . S
H1504 C1511 0.950 . S
C1505 C1503 1.387 . S
C1505 C1507 1.390 . S
C1505 H1509 0.950 . S
H1506 C1502 0.950 . S
C1507 C1505 1.390 . S
C1507 C1508 1.387 . S
C1507 H1510 0.950 . S
C1508 C1507 1.387 . S
C1508 C1511 1.387 . S
H1509 C1505 0.950 . S
H1510 C1507 0.950 . S
C1511 C1502 1.390 . S
C1511 H1504 0.950 . S
C1511 C1508 1.387 . S
C1512 C1513 1.387 . S
C1512 H1516 0.950 . S
C1512 C1521 1.390 . S
C1513 C1512 1.387 . S
C1513 C1515 1.387 . S
H1514 C1521 0.950 . S
C1515 C1513 1.387 . S
C1515 C1517 1.390 . S
C1515 H1519 0.950 . S
H1516 C1512 0.950 . S
C1517 C1515 1.390 . S
C1517 C1518 1.387 . S
C1517 H1520 0.950 . S
C1518 C1517 1.387 . S
C1518 C1521 1.387 . S
H1519 C1515 0.950 . S
H1520 C1517 0.950 . S
C1521 C1512 1.390 . S
C1521 H1514 0.950 . S
C1521 C1518 1.387 . S
C1522 C1523 1.387 . S
C1522 H1526 0.950 . S
C1522 C1531 1.390 1_545 S
C1523 C1522 1.387 . S
C1523 C1525 1.387 . S
H1524 C1531 0.950 . S
C1525 C1523 1.387 . S
C1525 C1527 1.390 1_545 S
C1525 H1529 0.950 . S
H1526 C1522 0.950 . S
C1527 C1525 1.390 1_565 S
C1527 C1528 1.387 . S
C1527 H1530 0.950 . S
C1528 C1527 1.387 . S
C1528 C1531 1.387 . S
H1529 C1525 0.950 . S
H1530 C1527 0.950 . S
C1531 C1522 1.390 1_565 S
C1531 H1524 0.950 . S
C1531 C1528 1.387 . S
C1532 C1533 1.387 . S
C1532 H1536 0.950 . S
C1532 C1541 1.390 . S
C1533 C1532 1.387 . S
C1533 C1535 1.387 1_655 S
H1534 C1541 0.950 . S
C1535 C1533 1.387 1_455 S
C1535 C1537 1.390 . S
C1535 H1539 0.950 . S
H1536 C1532 0.950 . S
C1537 C1535 1.390 . S
C1537 C1538 1.387 . S
C1537 H1540 0.950 . S
C1538 C1537 1.387 . S
C1538 C1541 1.387 1_455 S
H1539 C1535 0.950 . S
H1540 C1537 0.950 . S
C1541 C1532 1.390 . S
C1541 H1534 0.950 . S
C1541 C1538 1.387 1_655 S
C1542 C1543 1.387 . S
C1542 H1546 0.950 . S
C1542 C1551 1.390 . S
C1543 C1542 1.387 . S
C1543 C1545 1.387 . S
H1544 C1551 0.950 . S
C1545 C1543 1.387 . S
C1545 C1547 1.390 . S
C1545 H1549 0.950 . S
H1546 C1542 0.950 . S
C1547 C1545 1.390 . S
C1547 C1548 1.387 . S
C1547 H1550 0.950 . S
C1548 C1547 1.387 . S
C1548 C1551 1.387 . S
H1549 C1545 0.950 . S
H1550 C1547 0.950 . S
C1551 C1542 1.390 . S
C1551 H1544 0.950 . S
C1551 C1548 1.387 . S
C1552 C1553 1.387 . S
C1552 H1556 0.950 . S
C1552 C1561 1.390 1_565 S
C1553 C1552 1.387 . S
C1553 C1555 1.387 . S
H1554 C1561 0.950 . S
C1555 C1553 1.387 . S
C1555 C1557 1.390 1_565 S
C1555 H1559 0.950 . S
H1556 C1552 0.950 . S
C1557 C1555 1.390 1_545 S
C1557 C1558 1.387 . S
C1557 H1560 0.950 . S
C1558 C1557 1.387 . S
C1558 C1561 1.387 . S
H1559 C1555 0.950 . S
H1560 C1557 0.950 . S
C1561 C1552 1.390 1_545 S
C1561 H1554 0.950 . S
C1561 C1558 1.387 . S
C1562 C1563 1.387 . S
C1562 H1566 0.950 . S
C1562 C1571 1.390 . S
C1563 C1562 1.387 . S
C1563 C1565 1.387 1_655 S
H1564 C1571 0.950 . S
C1565 C1563 1.387 1_455 S
C1565 C1567 1.390 . S
C1565 H1569 0.950 . S
H1566 C1562 0.950 . S
C1567 C1565 1.390 . S
C1567 C1568 1.387 . S
C1567 H1570 0.950 . S
C1568 C1567 1.387 . S
C1568 C1571 1.387 1_455 S
H1569 C1565 0.950 . S
H1570 C1567 0.950 . S
C1571 C1562 1.390 . S
C1571 H1564 0.950 . S
C1571 C1568 1.387 1_655 S
C1572 C1573 1.387 . S
C1572 H1576 0.950 . S
C1572 C1581 1.390 . S
C1573 C1572 1.387 . S
C1573 C1575 1.387 . S
H1574 C1581 0.950 . S
C1575 C1573 1.387 . S
C1575 C1577 1.390 . S
C1575 H1579 0.950 . S
H1576 C1572 0.950 . S
C1577 C1575 1.390 . S
C1577 C1578 1.387 . S
C1577 H1580 0.950 . S
C1578 C1577 1.387 . S
C1578 C1581 1.387 . S
H1579 C1575 0.950 . S
H1580 C1577 0.950 . S
C1581 C1572 1.390 . S
C1581 H1574 0.950 . S
C1581 C1578 1.387 . S
C1582 C1583 1.387 . S
C1582 H1586 0.950 . S
C1582 C1591 1.390 . S
C1583 C1582 1.387 . S
C1583 C1585 1.387 . S
H1584 C1591 0.950 . S
C1585 C1583 1.387 . S
C1585 C1587 1.390 . S
C1585 H1589 0.950 . S
H1586 C1582 0.950 . S
C1587 C1585 1.390 . S
C1587 C1588 1.387 . S
C1587 H1590 0.950 . S
C1588 C1587 1.387 . S
C1588 C1591 1.387 . S
H1589 C1585 0.950 . S
H1590 C1587 0.950 . S
C1591 C1582 1.390 . S
C1591 H1584 0.950 . S
C1591 C1588 1.387 . S
C1592 C1593 1.387 . S
C1592 H1596 0.950 . S
C1592 C1601 1.390 . S
C1593 C1592 1.387 . S
C1593 C1595 1.387 . S
H1594 C1601 0.950 . S
C1595 C1593 1.387 . S
C1595 C1597 1.390 . S
C1595 H1599 0.950 . S
H1596 C1592 0.950 . S
C1597 C1595 1.390 . S
C1597 C1598 1.387 . S
C1597 H1600 0.950 . S
C1598 C1597 1.387 . S
C1598 C1601 1.387 . S
H1599 C1595 0.950 . S
H1600 C1597 0.950 . S
C1601 C1592 1.390 . S
C1601 H1594 0.950 . S
C1601 C1598 1.387 . S
C1602 C1603 1.387 . S
C1602 H1606 0.950 . S
C1602 C1611 1.390 . S
C1603 C1602 1.387 . S
C1603 C1605 1.387 . S
H1604 C1611 0.950 . S
C1605 C1603 1.387 . S
C1605 C1607 1.390 . S
C1605 H1609 0.950 . S
H1606 C1602 0.950 . S
C1607 C1605 1.390 . S
C1607 C1608 1.387 . S
C1607 H1610 0.950 . S
C1608 C1607 1.387 . S
C1608 C1611 1.387 . S
H1609 C1605 0.950 . S
H1610 C1607 0.950 . S
C1611 C1602 1.390 . S
C1611 H1604 0.950 . S
C1611 C1608 1.387 . S
C1612 C1613 1.387 . S
C1612 H1616 0.950 . S
C1612 C1621 1.390 . S
C1613 C1612 1.387 . S
C1613 C1615 1.387 . S
H1614 C1621 0.950 . S
C1615 C1613 1.387 . S
C1615 C1617 1.390 . S
C1615 H1619 0.950 . S
H1616 C1612 0.950 . S
C1617 C1615 1.390 . S
C1617 C1618 1.387 . S
C1617 H1620 0.950 . S
C1618 C1617 1.387 . S
C1618 C1621 1.387 . S
H1619 C1615 0.950 . S
H1620 C1617 0.950 . S
C1621 C1612 1.390 . S
C1621 H1614 0.950 . S
C1621 C1618 1.387 . S
C1622 C1623 1.387 . S
C1622 H1626 0.950 . S
C1622 C1631 1.390 . S
C1623 C1622 1.387 . S
C1623 C1625 1.387 . S
H1624 C1631 0.950 . S
C1625 C1623 1.387 . S
C1625 C1627 1.390 . S
C1625 H1629 0.950 . S
H1626 C1622 0.950 . S
C1627 C1625 1.390 . S
C1627 C1628 1.387 . S
C1627 H1630 0.950 . S
C1628 C1627 1.387 . S
C1628 C1631 1.387 . S
H1629 C1625 0.950 . S
H1630 C1627 0.950 . S
C1631 C1622 1.390 . S
C1631 H1624 0.950 . S
C1631 C1628 1.387 . S
C1632 C1633 1.387 . S
C1632 H1636 0.950 . S
C1632 C1641 1.390 . S
C1633 C1632 1.387 . S
C1633 C1635 1.387 . S
H1634 C1641 0.950 . S
C1635 C1633 1.387 . S
C1635 C1637 1.390 . S
C1635 H1639 0.950 . S
H1636 C1632 0.950 . S
C1637 C1635 1.390 . S
C1637 C1638 1.387 . S
C1637 H1640 0.950 . S
C1638 C1637 1.387 . S
C1638 C1641 1.387 . S
H1639 C1635 0.950 . S
H1640 C1637 0.950 . S
C1641 C1632 1.390 . S
C1641 H1634 0.950 . S
C1641 C1638 1.387 . S
C1642 C1643 1.387 . S
C1642 H1646 0.950 . S
C1642 C1651 1.390 . S
C1643 C1642 1.387 . S
C1643 C1645 1.387 . S
H1644 C1651 0.950 . S
C1645 C1643 1.387 . S
C1645 C1647 1.390 . S
C1645 H1649 0.950 . S
H1646 C1642 0.950 . S
C1647 C1645 1.390 . S
C1647 C1648 1.387 . S
C1647 H1650 0.950 . S
C1648 C1647 1.387 . S
C1648 C1651 1.387 . S
H1649 C1645 0.950 . S
H1650 C1647 0.950 . S
C1651 C1642 1.390 . S
C1651 H1644 0.950 . S
C1651 C1648 1.387 . S
C1652 C1653 1.387 . S
C1652 H1656 0.950 . S
C1652 C1661 1.390 . S
C1653 C1652 1.387 . S
C1653 C1655 1.387 . S
H1654 C1661 0.950 . S
C1655 C1653 1.387 . S
C1655 C1657 1.390 . S
C1655 H1659 0.950 . S
H1656 C1652 0.950 . S
C1657 C1655 1.390 . S
C1657 C1658 1.387 . S
C1657 H1660 0.950 . S
C1658 C1657 1.387 . S
C1658 C1661 1.387 . S
H1659 C1655 0.950 . S
H1660 C1657 0.950 . S
C1661 C1652 1.390 . S
C1661 H1654 0.950 . S
C1661 C1658 1.387 . S
C1662 C1663 1.387 . S
C1662 H1666 0.950 . S
C1662 C1671 1.390 . S
C1663 C1662 1.387 . S
C1663 C1665 1.387 . S
H1664 C1671 0.950 . S
C1665 C1663 1.387 . S
C1665 C1667 1.390 . S
C1665 H1669 0.950 . S
H1666 C1662 0.950 . S
C1667 C1665 1.390 . S
C1667 C1668 1.387 . S
C1667 H1670 0.950 . S
C1668 C1667 1.387 . S
C1668 C1671 1.387 . S
H1669 C1665 0.950 . S
H1670 C1667 0.950 . S
C1671 C1662 1.390 . S
C1671 H1664 0.950 . S
C1671 C1668 1.387 . S
C1672 C1673 1.387 . S
C1672 H1676 0.950 . S
C1672 C1681 1.390 . S
C1673 C1672 1.387 . S
C1673 C1675 1.387 . S
H1674 C1681 0.950 . S
C1675 C1673 1.387 . S
C1675 C1677 1.390 . S
C1675 H1679 0.950 . S
H1676 C1672 0.950 . S
C1677 C1675 1.390 . S
C1677 C1678 1.387 . S
C1677 H1680 0.950 . S
C1678 C1677 1.387 . S
C1678 C1681 1.387 . S
H1679 C1675 0.950 . S
H1680 C1677 0.950 . S
C1681 C1672 1.390 . S
C1681 H1674 0.950 . S
C1681 C1678 1.387 . S
C1682 C1683 1.387 . S
C1682 H1686 0.950 . S
C1682 C1691 1.390 . S
C1683 C1682 1.387 . S
C1683 C1685 1.387 . S
H1684 C1691 0.950 . S
C1685 C1683 1.387 . S
C1685 C1687 1.390 . S
C1685 H1689 0.950 . S
H1686 C1682 0.950 . S
C1687 C1685 1.390 . S
C1687 C1688 1.387 . S
C1687 H1690 0.950 . S
C1688 C1687 1.387 . S
C1688 C1691 1.387 . S
H1689 C1685 0.950 . S
H1690 C1687 0.950 . S
C1691 C1682 1.390 . S
C1691 H1684 0.950 . S
C1691 C1688 1.387 . S
C1692 C1693 1.387 . S
C1692 H1696 0.950 . S
C1692 C1701 1.390 . S
C1693 C1692 1.387 . S
C1693 C1695 1.387 . S
H1694 C1701 0.950 . S
C1695 C1693 1.387 . S
C1695 C1697 1.390 . S
C1695 H1699 0.950 . S
H1696 C1692 0.950 . S
C1697 C1695 1.390 . S
C1697 C1698 1.387 . S
C1697 H1700 0.950 . S
C1698 C1697 1.387 . S
C1698 C1701 1.387 . S
H1699 C1695 0.950 . S
H1700 C1697 0.950 . S
C1701 C1692 1.390 . S
C1701 H1694 0.950 . S
C1701 C1698 1.387 . S
C1702 C1703 1.387 . S
C1702 H1706 0.950 . S
C1702 C1711 1.390 . S
C1703 C1702 1.387 . S
C1703 C1705 1.387 . S
H1704 C1711 0.950 . S
C1705 C1703 1.387 . S
C1705 C1707 1.390 . S
C1705 H1709 0.950 . S
H1706 C1702 0.950 . S
C1707 C1705 1.390 . S
C1707 C1708 1.387 . S
C1707 H1710 0.931 1_565 S
C1708 C1707 1.387 . S
C1708 C1711 1.387 . S
H1709 C1705 0.950 . S
H1710 C1707 0.931 1_545 S
C1711 C1702 1.390 . S
C1711 H1704 0.950 . S
C1711 C1708 1.387 . S
C1712 C1713 1.387 . S
C1712 H1716 0.950 . S
C1712 C1721 1.390 . S
C1713 C1712 1.387 . S
C1713 C1715 1.387 . S
H1714 C1721 0.950 . S
C1715 C1713 1.387 . S
C1715 C1717 1.390 . S
C1715 H1719 0.950 . S
H1716 C1712 0.950 . S
C1717 C1715 1.390 . S
C1717 C1718 1.387 . S
C1717 H1720 0.950 . S
C1718 C1717 1.387 . S
C1718 C1721 1.387 . S
H1719 C1715 0.950 . S
H1720 C1717 0.950 . S
C1721 C1712 1.390 . S
C1721 H1714 0.950 . S
C1721 C1718 1.387 . S
C1722 C1723 1.387 . S
C1722 H1726 0.950 . S
C1722 C1731 1.390 . S
C1723 C1722 1.387 . S
C1723 C1725 1.387 . S
H1724 C1731 0.950 . S
C1725 C1723 1.387 . S
C1725 C1727 1.390 . S
C1725 H1729 0.950 . S
H1726 C1722 0.950 . S
C1727 C1725 1.390 . S
C1727 C1728 1.387 . S
C1727 H1730 0.950 . S
C1728 C1727 1.387 . S
C1728 C1731 1.387 . S
H1729 C1725 0.950 . S
H1730 C1727 0.950 . S
C1731 C1722 1.390 . S
C1731 H1724 0.950 . S
C1731 C1728 1.387 . S
C1732 C1733 1.387 . S
C1732 H1736 0.950 1_545 S
C1732 C1741 1.390 . S
C1733 C1732 1.387 . S
C1733 C1735 1.387 . S
H1734 C1741 0.950 . S
C1735 C1733 1.387 . S
C1735 C1737 1.390 . S
C1735 H1739 0.950 . S
H1736 C1732 0.950 1_565 S
C1737 C1735 1.390 . S
C1737 C1738 1.387 . S
C1737 H1740 0.950 . S
C1738 C1737 1.387 . S
C1738 C1741 1.387 . S
H1739 C1735 0.950 . S
H1740 C1737 0.950 . S
C1741 C1732 1.390 . S
C1741 H1734 0.950 . S
C1741 C1738 1.387 . S
C1742 C1743 1.387 . S
C1742 H1746 0.950 . S
C1742 C1751 1.390 . S
C1743 C1742 1.387 . S
C1743 C1745 1.387 . S
H1744 C1751 0.950 . S
C1745 C1743 1.387 . S
C1745 C1747 1.390 . S
C1745 H1749 0.950 1_655 S
H1746 C1742 0.950 . S
C1747 C1745 1.390 . S
C1747 C1748 1.387 . S
C1747 H1750 0.950 . S
C1748 C1747 1.387 . S
C1748 C1751 1.387 . S
H1749 C1745 0.950 1_455 S
H1750 C1747 0.950 . S
C1751 C1742 1.390 . S
C1751 H1744 0.950 . S
C1751 C1748 1.387 . S
C1752 C1753 1.387 . S
C1752 H1756 0.950 . S
C1752 C1761 1.390 . S
C1753 C1752 1.387 . S
C1753 C1755 1.387 . S
H1754 C1761 0.950 . S
C1755 C1753 1.387 . S
C1755 C1757 1.390 . S
C1755 H1759 0.950 . S
H1756 C1752 0.950 . S
C1757 C1755 1.390 . S
C1757 C1758 1.387 . S
C1757 H1760 0.950 . S
C1758 C1757 1.387 . S
C1758 C1761 1.387 . S
H1759 C1755 0.950 . S
H1760 C1757 0.950 . S
C1761 C1752 1.390 . S
C1761 H1754 0.950 . S
C1761 C1758 1.387 . S
C1762 C1763 1.387 . S
C1762 H1766 0.950 . S
C1762 C1771 1.390 . S
C1763 C1762 1.387 . S
C1763 C1765 1.387 . S
H1764 C1771 0.950 . S
C1765 C1763 1.387 . S
C1765 C1767 1.390 . S
C1765 H1769 0.950 . S
H1766 C1762 0.950 . S
C1767 C1765 1.390 . S
C1767 C1768 1.387 . S
C1767 H1770 0.950 . S
C1768 C1767 1.387 . S
C1768 C1771 1.387 . S
H1769 C1765 0.950 . S
H1770 C1767 0.950 . S
C1771 C1762 1.390 . S
C1771 H1764 0.950 . S
C1771 C1768 1.387 . S
C1772 C1773 1.387 . S
C1772 H1776 0.950 . S
C1772 C1781 1.390 . S
C1773 C1772 1.387 . S
C1773 C1775 1.387 . S
H1774 C1781 0.950 . S
C1775 C1773 1.387 . S
C1775 C1777 1.390 . S
C1775 H1779 0.950 . S
H1776 C1772 0.950 . S
C1777 C1775 1.390 . S
C1777 C1778 1.387 . S
C1777 H1780 0.950 . S
C1778 C1777 1.387 . S
C1778 C1781 1.387 . S
H1779 C1775 0.950 . S
H1780 C1777 0.950 . S
C1781 C1772 1.390 . S
C1781 H1774 0.950 . S
C1781 C1778 1.387 . S
C1782 C1783 1.387 . S
C1782 H1786 0.950 . S
C1782 C1791 1.390 . S
C1783 C1782 1.387 . S
C1783 C1785 1.387 . S
H1784 C1791 0.950 . S
C1785 C1783 1.387 . S
C1785 C1787 1.390 . S
C1785 H1789 0.950 . S
H1786 C1782 0.950 . S
C1787 C1785 1.390 . S
C1787 C1788 1.387 . S
C1787 H1790 0.950 . S
C1788 C1787 1.387 . S
C1788 C1791 1.387 . S
H1789 C1785 0.950 . S
H1790 C1787 0.950 . S
C1791 C1782 1.390 . S
C1791 H1784 0.950 . S
C1791 C1788 1.387 . S
C1792 C1793 1.387 . S
C1792 H1796 0.950 . S
C1792 C1801 1.390 . S
C1793 C1792 1.387 . S
C1793 C1795 1.387 . S
H1794 C1801 0.950 . S
C1795 C1793 1.387 . S
C1795 C1797 1.390 . S
C1795 H1799 0.950 . S
H1796 C1792 0.950 . S
C1797 C1795 1.390 . S
C1797 C1798 1.387 . S
C1797 H1800 0.950 1_565 S
C1798 C1797 1.387 . S
C1798 C1801 1.387 . S
H1799 C1795 0.950 . S
H1800 C1797 0.950 1_545 S
C1801 C1792 1.390 . S
C1801 H1794 0.950 . S
C1801 C1798 1.387 . S
C1802 C1803 1.387 . S
C1802 H1806 0.950 . S
C1802 C1811 1.390 . S
C1803 C1802 1.387 . S
C1803 C1805 1.387 . S
H1804 C1811 0.950 1_655 S
C1805 C1803 1.387 . S
C1805 C1807 1.390 . S
C1805 H1809 0.950 . S
H1806 C1802 0.950 . S
C1807 C1805 1.390 . S
C1807 C1808 1.387 . S
C1807 H1810 0.950 . S
C1808 C1807 1.387 . S
C1808 C1811 1.387 . S
H1809 C1805 0.950 . S
H1810 C1807 0.950 . S
C1811 C1802 1.390 . S
C1811 H1804 0.950 1_455 S
C1811 C1808 1.387 . S
C1812 C1813 1.387 . S
C1812 H1816 0.950 . S
C1812 C1821 1.390 1_655 S
C1813 C1812 1.387 . S
C1813 C1815 1.387 . S
H1814 C1821 0.950 . S
C1815 C1813 1.387 . S
C1815 C1817 1.390 1_655 S
C1815 H1819 0.950 . S
H1816 C1812 0.950 . S
C1817 C1815 1.390 1_455 S
C1817 C1818 1.387 . S
C1817 H1820 0.950 . S
C1818 C1817 1.387 . S
C1818 C1821 1.387 . S
H1819 C1815 0.950 . S
H1820 C1817 0.950 . S
C1821 C1812 1.390 1_455 S
C1821 H1814 0.950 . S
C1821 C1818 1.387 . S
C1822 C1823 1.387 . S
C1822 H1826 0.950 . S
C1822 C1831 1.390 . S
C1823 C1822 1.387 . S
C1823 C1825 1.387 . S
H1824 C1831 0.950 . S
C1825 C1823 1.387 . S
C1825 C1827 1.390 . S
C1825 H1829 0.950 . S
H1826 C1822 0.950 . S
C1827 C1825 1.390 . S
C1827 C1828 1.387 . S
C1827 H1830 0.950 . S
C1828 C1827 1.387 . S
C1828 C1831 1.387 . S
H1829 C1825 0.950 . S
H1830 C1827 0.950 . S
C1831 C1822 1.390 . S
C1831 H1824 0.950 . S
C1831 C1828 1.387 . S
C1832 C1833 1.387 . S
C1832 H1836 0.950 . S
C1832 C1841 1.390 1_545 S
C1833 C1832 1.387 . S
C1833 C1835 1.387 . S
H1834 C1841 0.950 . S
C1835 C1833 1.387 . S
C1835 C1837 1.390 1_545 S
C1835 H1839 0.950 . S
H1836 C1832 0.950 . S
C1837 C1835 1.390 1_565 S
C1837 C1838 1.387 . S
C1837 H1840 0.950 . S
C1838 C1837 1.387 . S
C1838 C1841 1.387 . S
H1839 C1835 0.950 . S
H1840 C1837 0.950 . S
C1841 C1832 1.390 1_565 S
C1841 H1834 0.950 . S
C1841 C1838 1.387 . S
C1842 C1843 1.387 . S
C1842 H1846 0.950 . S
C1842 C1851 1.390 1_545 S
C1843 C1842 1.387 . S
C1843 C1845 1.387 . S
H1844 C1851 0.950 . S
C1845 C1843 1.387 . S
C1845 C1847 1.390 1_545 S
C1845 H1849 0.950 . S
H1846 C1842 0.950 . S
C1847 C1845 1.390 1_565 S
C1847 C1848 1.387 . S
C1847 H1850 0.950 . S
C1848 C1847 1.387 . S
C1848 C1851 1.387 . S
H1849 C1845 0.950 . S
H1850 C1847 0.950 . S
C1851 C1842 1.390 1_565 S
C1851 H1844 0.950 . S
C1851 C1848 1.387 . S
C1852 C1853 1.387 . S
C1852 H1856 0.950 . S
C1852 C1861 1.390 1_655 S
C1853 C1852 1.387 . S
C1853 C1855 1.387 . S
H1854 C1861 0.950 . S
C1855 C1853 1.387 . S
C1855 C1857 1.390 1_655 S
C1855 H1859 0.950 . S
H1856 C1852 0.950 . S
C1857 C1855 1.390 1_455 S
C1857 C1858 1.387 . S
C1857 H1860 0.950 . S
C1858 C1857 1.387 . S
C1858 C1861 1.387 . S
H1859 C1855 0.950 . S
H1860 C1857 0.950 . S
C1861 C1852 1.390 1_455 S
C1861 H1854 0.950 . S
C1861 C1858 1.387 . S
C1862 C1863 1.387 . S
C1862 H1866 0.950 . S
C1862 C1871 1.390 . S
C1863 C1862 1.387 . S
C1863 C1865 1.387 . S
H1864 C1871 0.950 . S
C1865 C1863 1.387 . S
C1865 C1867 1.390 . S
C1865 H1869 0.950 . S
H1866 C1862 0.950 . S
C1867 C1865 1.390 . S
C1867 C1868 1.387 . S
C1867 H1870 0.950 . S
C1868 C1867 1.387 . S
C1868 C1871 1.387 . S
H1869 C1865 0.950 . S
H1870 C1867 0.950 . S
C1871 C1862 1.390 . S
C1871 H1864 0.950 . S
C1871 C1868 1.387 . S
C793 C8 1.584 1_556 S
C798 C162 1.572 . S
C803 C184 1.571 . S
C808 C30 1.585 1_556 S
C813 C140 1.573 . S
C818 C52 1.584 1_556 S
C823 C250 1.571 . S
C828 C70 1.584 . S
C833 C92 1.583 . S
C838 C206 1.572 . S
C843 C114 1.584 . S
C848 C228 1.573 . S
C853 C26 1.571 . S
C858 C136 1.585 1_554 S
C863 C158 1.584 1_554 S
C868 C48 1.572 . S
C873 C4 1.571 . S
C878 C180 1.584 1_554 S
C883 C118 1.571 . S
C888 C202 1.584 . S
C893 C224 1.583 . S
C898 C74 1.572 . S
C903 C246 1.584 . S
C908 C96 1.573 . S
C913 C272 1.583 . S
C918 C426 1.572 . S
C923 C448 1.572 . S
C928 C294 1.585 . S
C933 C404 1.572 . S
C938 C316 1.585 . S
C943 C334 1.584 . S
C948 C514 1.573 . S
C953 C470 1.572 . S
C958 C356 1.585 . S
C963 C378 1.585 . S
C968 C492 1.573 . S
C973 C400 1.585 . S
C978 C290 1.572 . S
C983 C312 1.571 . S
C988 C422 1.585 . S
C993 C444 1.585 . S
C998 C268 1.571 . S
C1003 C382 1.571 . S
C1008 C466 1.584 . S
C1013 C338 1.573 . S
C1018 C488 1.583 . S
C1023 C510 1.583 . S
C1028 C360 1.572 . S
C1033 C536 1.584 . S
C1038 C690 1.573 . S
C1043 C558 1.585 . S
C1048 C712 1.571 . S
C1053 C668 1.571 . S
C1058 C580 1.585 . S
C1063 C778 1.573 . S
C1068 C598 1.584 . S
C1073 C620 1.583 . S
C1078 C734 1.572 . S
C1083 C756 1.572 . S
C1088 C642 1.583 . S
C1093 C554 1.571 . S
C1098 C664 1.585 . S
C1103 C686 1.583 . S
C1108 C576 1.572 . S
C1113 C532 1.573 . S
C1118 C708 1.583 . S
C1123 C730 1.583 . S
C1128 C646 1.572 . S
C1133 C752 1.583 . S
C1138 C602 1.572 . S
C1143 C774 1.584 . S
C1148 C624 1.573 . S
C1153 C9 1.812 . S
C1158 C402 1.812 . S
C1163 C31 1.811 . S
C1168 C424 1.811 . S
C1173 C446 1.810 . S
C1178 C53 1.810 . S
C1183 C732 1.809 . S
C1188 C71 1.809 . S
C1193 C754 1.812 . S
C1198 C93 1.812 . S
C1203 C776 1.809 . S
C1208 C115 1.809 . S
C1213 C138 1.812 . S
C1218 C537 1.812 . S
C1223 C559 1.808 . S
C1228 C160 1.808 . S
C1233 C182 1.809 . S
C1238 C581 1.809 . S
C1243 C204 1.809 . S
C1248 C335 1.809 . S
C1253 C226 1.810 . S
C1258 C357 1.810 . S
C1263 C248 1.809 . S
C1268 C379 1.809 . S
C1273 C273 1.808 . S
C1278 C666 1.808 . S
C1283 C688 1.812 . S
C1288 C295 1.812 . S
C1293 C317 1.812 . S
C1298 C710 1.812 . S
C1303 C599 1.810 . S
C1308 C468 1.810 . S
C1313 C490 1.812 . S
C1318 C621 1.812 . S
C1323 C643 1.811 . S
C1328 C512 1.811 . S
C1333 C7 1.539 1_556 S
C1338 C358 1.541 . S
C1343 C29 1.541 1_556 S
C1348 C380 1.539 . S
C1353 C336 1.540 . S
C1358 C51 1.540 1_556 S
C1363 C72 1.540 . S
C1368 C579 1.540 . S
C1373 C535 1.539 . S
C1378 C94 1.542 . S
C1383 C116 1.543 . S
C1388 C557 1.542 . S
C1393 C753 1.539 . S
C1398 C137 1.540 1_554 S
C1403 C159 1.542 1_554 S
C1408 C775 1.543 . S
C1413 C731 1.542 . S
C1418 C181 1.543 1_554 S
C1423 C203 1.540 . S
C1428 C445 1.540 . S
C1433 C225 1.541 . S
C1438 C401 1.543 . S
C1443 C247 1.540 . S
C1448 C423 1.540 . S
C1453 C622 1.542 . S
C1458 C271 1.543 . S
C1463 C293 1.540 . S
C1468 C644 1.540 . S
C1473 C315 1.543 . S
C1478 C600 1.542 . S
C1483 C709 1.542 . S
C1488 C467 1.543 . S
C1493 C665 1.539 . S
C1498 C489 1.541 . S
C1503 C687 1.541 . S
C1508 C511 1.543 . S
C1513 C73 1.058 . S
C1518 C6 1.057 . S
C1523 C28 1.055 . S
C1528 C95 1.055 . S
C1533 C50 1.056 . S
C1538 C117 1.056 . S
C1543 C207 1.057 . S
C1548 C141 1.057 . S
C1553 C163 1.059 . S
C1558 C229 1.059 . S
C1563 C251 1.056 . S
C1568 C185 1.055 . S
C1573 C337 1.055 . S
C1578 C270 1.055 . S
C1583 C292 1.059 . S
C1588 C359 1.059 . S
C1593 C314 1.058 . S
C1598 C381 1.058 . S
C1603 C405 1.056 . S
C1608 C471 1.055 . S
C1613 C427 1.055 . S
C1618 C493 1.055 . S
C1623 C449 1.058 . S
C1628 C515 1.058 . S
C1633 C534 1.055 . S
C1638 C601 1.055 . S
C1643 C623 1.059 . S
C1648 C556 1.059 . S
C1653 C645 1.058 . S
C1658 C578 1.058 . S
C1663 C669 1.056 . S
C1668 C735 1.056 . S
C1673 C757 1.055 . S
C1678 C691 1.055 . S
C1683 C713 1.056 . S
C1688 C779 1.056 . S
C1693 C5 1.720 . S
C1698 C647 1.720 . S
C1703 C603 1.721 . S
C1708 C27 1.719 . S
C1713 C49 1.721 . S
C1718 C625 1.719 . S
C1723 C291 1.721 . S
C1728 C75 1.718 . S
C1733 C97 1.719 . S
C1738 C313 1.719 . S
C1743 C119 1.720 . S
C1748 C269 1.720 . S
C1753 C513 1.719 . S
C1758 C139 1.719 . S
C1763 C161 1.719 . S
C1768 C469 1.721 . S
C1773 C491 1.720 . S
C1778 C183 1.718 . S
C1783 C205 1.721 . S
C1788 C689 1.719 . S
C1793 C711 1.718 . S
C1798 C227 1.720 . S
C1803 C667 1.720 . S
C1808 C249 1.720 . S
C1813 C339 1.720 . S
C1818 C555 1.721 . S
C1823 C361 1.720 . S
C1828 C577 1.718 . S
C1833 C383 1.719 . S
C1838 C533 1.719 . S
C1843 C403 1.719 . S
C1848 C777 1.719 . S
C1853 C425 1.719 . S
C1858 C733 1.721 . S
C1863 C755 1.719 . S
C1868 C447 1.721 . S
