# Generated by pormake.
# Topology zfn, (5)-cn, num edge types: 1
# Building blocks:
#     Node 0, Type 0, BuildingBlock: XOMCOT_clean_sbu_1, # of connection points: 5
#     Node 1, Type 0, BuildingBlock: XOMCOT_clean_sbu_1, # of connection points: 5
#     Node 2, Type 0, BuildingBlock: XOMCOT_clean_sbu_1, # of connection points: 5
#     Node 3, Type 0, BuildingBlock: XOMCOT_clean_sbu_1, # of connection points: 5
#     Node 4, Type 0, BuildingBlock: XOMCOT_clean_sbu_1, # of connection points: 5
#     Node 5, Type 0, BuildingBlock: XOMCOT_clean_sbu_1, # of connection points: 5
#     Node 6, Type 0, BuildingBlock: XOMCOT_clean_sbu_1, # of connection points: 5
#     Node 7, Type 0, BuildingBlock: XOMCOT_clean_sbu_1, # of connection points: 5
#     Node 8, Type 0, BuildingBlock: XOMCOT_clean_sbu_1, # of connection points: 5
#     Node 9, Type 0, BuildingBlock: XOMCOT_clean_sbu_1, # of connection points: 5
#     Node 10, Type 0, BuildingBlock: XOMCOT_clean_sbu_1, # of connection points: 5
#     Node 11, Type 0, BuildingBlock: XOMCOT_clean_sbu_1, # of connection points: 5
#     Node 12, Type 0, BuildingBlock: XOMCOT_clean_sbu_1, # of connection points: 5
#     Node 13, Type 0, BuildingBlock: XOMCOT_clean_sbu_1, # of connection points: 5
#     Node 14, Type 0, BuildingBlock: XOMCOT_clean_sbu_1, # of connection points: 5
#     Node 15, Type 0, BuildingBlock: XOMCOT_clean_sbu_1, # of connection points: 5
#     Edge 16, Type (0, 0), BuildingBlock: ZUJKAS_clean_linker_0, # of connection points: 2
#     Edge 17, Type (0, 0), BuildingBlock: ZUJKAS_clean_linker_0, # of connection points: 2
#     Edge 18, Type (0, 0), BuildingBlock: ZUJKAS_clean_linker_0, # of connection points: 2
#     Edge 19, Type (0, 0), BuildingBlock: ZUJKAS_clean_linker_0, # of connection points: 2
#     Edge 20, Type (0, 0), BuildingBlock: ZUJKAS_clean_linker_0, # of connection points: 2
#     Edge 21, Type (0, 0), BuildingBlock: ZUJKAS_clean_linker_0, # of connection points: 2
#     Edge 22, Type (0, 0), BuildingBlock: ZUJKAS_clean_linker_0, # of connection points: 2
#     Edge 23, Type (0, 0), BuildingBlock: ZUJKAS_clean_linker_0, # of connection points: 2
#     Edge 24, Type (0, 0), BuildingBlock: ZUJKAS_clean_linker_0, # of connection points: 2
#     Edge 25, Type (0, 0), BuildingBlock: ZUJKAS_clean_linker_0, # of connection points: 2
#     Edge 26, Type (0, 0), BuildingBlock: ZUJKAS_clean_linker_0, # of connection points: 2
#     Edge 27, Type (0, 0), BuildingBlock: ZUJKAS_clean_linker_0, # of connection points: 2
#     Edge 28, Type (0, 0), BuildingBlock: ZUJKAS_clean_linker_0, # of connection points: 2
#     Edge 29, Type (0, 0), BuildingBlock: ZUJKAS_clean_linker_0, # of connection points: 2
#     Edge 30, Type (0, 0), BuildingBlock: ZUJKAS_clean_linker_0, # of connection points: 2
#     Edge 31, Type (0, 0), BuildingBlock: ZUJKAS_clean_linker_0, # of connection points: 2
#     Edge 32, Type (0, 0), BuildingBlock: ZUJKAS_clean_linker_0, # of connection points: 2
#     Edge 33, Type (0, 0), BuildingBlock: ZUJKAS_clean_linker_0, # of connection points: 2
#     Edge 34, Type (0, 0), BuildingBlock: ZUJKAS_clean_linker_0, # of connection points: 2
#     Edge 35, Type (0, 0), BuildingBlock: ZUJKAS_clean_linker_0, # of connection points: 2
#     Edge 36, Type (0, 0), BuildingBlock: ZUJKAS_clean_linker_0, # of connection points: 2
#     Edge 37, Type (0, 0), BuildingBlock: ZUJKAS_clean_linker_0, # of connection points: 2
#     Edge 38, Type (0, 0), BuildingBlock: ZUJKAS_clean_linker_0, # of connection points: 2
#     Edge 39, Type (0, 0), BuildingBlock: ZUJKAS_clean_linker_0, # of connection points: 2
#     Edge 40, Type (0, 0), BuildingBlock: ZUJKAS_clean_linker_0, # of connection points: 2
#     Edge 41, Type (0, 0), BuildingBlock: ZUJKAS_clean_linker_0, # of connection points: 2
#     Edge 42, Type (0, 0), BuildingBlock: ZUJKAS_clean_linker_0, # of connection points: 2
#     Edge 43, Type (0, 0), BuildingBlock: ZUJKAS_clean_linker_0, # of connection points: 2
#     Edge 44, Type (0, 0), BuildingBlock: ZUJKAS_clean_linker_0, # of connection points: 2
#     Edge 45, Type (0, 0), BuildingBlock: ZUJKAS_clean_linker_0, # of connection points: 2
#     Edge 46, Type (0, 0), BuildingBlock: ZUJKAS_clean_linker_0, # of connection points: 2
#     Edge 47, Type (0, 0), BuildingBlock: ZUJKAS_clean_linker_0, # of connection points: 2
#     Edge 48, Type (0, 0), BuildingBlock: ZUJKAS_clean_linker_0, # of connection points: 2
#     Edge 49, Type (0, 0), BuildingBlock: ZUJKAS_clean_linker_0, # of connection points: 2
#     Edge 50, Type (0, 0), BuildingBlock: ZUJKAS_clean_linker_0, # of connection points: 2
#     Edge 51, Type (0, 0), BuildingBlock: ZUJKAS_clean_linker_0, # of connection points: 2
#     Edge 52, Type (0, 0), BuildingBlock: ZUJKAS_clean_linker_0, # of connection points: 2
#     Edge 53, Type (0, 0), BuildingBlock: ZUJKAS_clean_linker_0, # of connection points: 2
#     Edge 54, Type (0, 0), BuildingBlock: ZUJKAS_clean_linker_0, # of connection points: 2
#     Edge 55, Type (0, 0), BuildingBlock: ZUJKAS_clean_linker_0, # of connection points: 2
# Relax obj value: 0.119
# Max RMSD: 0.125
# Mean RMSD: 0.125
data_MOF--net-zfn--node1-XOMCOT_clean_sbu_1--edge1-ZUJKAS_clean_linker_0
_symmetry_space_group_name_H-M    P1
_symmetry_Int_Tables_number       1
_symmetry_cell_setting            triclinic
loop_
_symmetry_equiv_pos_as_xyz
'x, y, z'
_cell_length_a     95.622368
_cell_length_b     95.627877
_cell_length_c     22.059837
_cell_angle_alpha  89.969644
_cell_angle_beta   90.025501
_cell_angle_gamma 89.991692
loop_
_atom_site_label
_atom_site_type_symbol
_atom_site_fract_x
_atom_site_fract_y
_atom_site_fract_z
_atom_type_partial_charge
C0 C 0.00296 0.34458 0.13073 0.0
C1 C 0.00073 0.3434 0.06932 0.0
N2 N 0.01316 0.34438 0.04104 0.0
N3 N 0.01671 0.34654 0.14111 0.0
C4 C 0.02272 0.34615 0.08555 0.0
H5 H 0.99501 0.3446 0.16559 0.0
Co6 Co 0.02412 0.35066 0.21739 0.0
C7 C 0.04535 0.37215 0.18773 0.0
O8 O 0.04008 0.38018 0.23039 0.0
N9 N 0.03155 0.35415 0.29616 0.0
C10 C 0.04639 0.35722 0.37331 0.0
C11 C 0.04504 0.35671 0.31138 0.0
C12 C 0.0252 0.35206 0.35049 0.0
N13 N 0.0339 0.35427 0.39782 0.0
O14 O 0.0338 0.33324 0.21734 0.0
H15 H 0.05367 0.35737 0.28002 0.0
H16 H 0.01459 0.34838 0.35563 0.0
O17 O 0.04024 0.35995 0.17875 0.0
C18 C 0.02652 0.32367 0.24203 0.0
O19 O 0.01399 0.32691 0.26211 0.0
N20 N 0.01351 0.36753 0.21745 0.0
C21 C 0.99501 0.39024 0.21274 0.0
C22 C 0.00495 0.38817 0.16696 0.0
C23 C 0.01387 0.37663 0.16947 0.0
C24 C 0.00349 0.36909 0.26087 0.0
C25 C 0.99433 0.38047 0.26006 0.0
H26 H 0.02084 0.37485 0.13176 0.0
H27 H 0.00196 0.36114 0.29462 0.0
H28 H 0.03376 0.34782 0.0775 0.0
H29 H 0.99072 0.34216 0.04701 0.0
H30 H 0.05597 0.35884 0.39849 0.0
H31 H 0.00573 0.39529 0.12893 0.0
H32 H 0.98638 0.38124 0.29485 0.0
C33 C 0.15156 0.00192 0.64039 0.0
C34 C 0.152 -0.00013 0.57876 0.0
N35 N 0.15108 0.01242 0.55108 0.0
N36 N 0.15031 0.0157 0.65183 0.0
C37 C 0.15012 0.02185 0.59664 0.0
H38 H 0.15195 0.99388 0.67481 0.0
Co39 Co 0.14885 0.02341 0.72904 0.0
C40 C 0.12942 0.04724 0.71366 0.0
O41 O 0.12286 0.0435 0.76345 0.0
N42 N 0.14788 0.03127 0.80773 0.0
C43 C 0.1507 0.04704 0.88115 0.0
C44 C 0.15106 0.04476 0.81976 0.0
C45 C 0.14609 0.02547 0.86331 0.0
N46 N 0.14759 0.03488 0.90861 0.0
O47 O 0.16676 0.03198 0.71956 0.0
H48 H 0.15389 0.05245 0.78593 0.0
H49 H 0.14407 0.01454 0.87124 0.0
O50 O 0.13988 0.04011 0.69495 0.0
C51 C 0.17705 0.0237 0.72656 0.0
O52 O 0.17453 0.0104 0.73689 0.0
N53 N 0.13163 0.01393 0.73822 0.0
C54 C 0.10878 0.9957 0.74453 0.0
C55 C 0.10858 0.00727 0.70548 0.0
C56 C 0.12023 0.01604 0.70186 0.0
C57 C 0.13225 0.00233 0.77406 0.0
C58 C 0.12085 0.99327 0.77904 0.0
H59 H 0.12025 0.02405 0.66744 0.0
H60 H 0.14195 0.9996 0.79619 0.0
H61 H 0.14935 0.03303 0.59008 0.0
H62 H 0.15262 0.98983 0.55628 0.0
H63 H 0.15314 0.05677 0.90391 0.0
H64 H 0.09964 0.00936 0.67668 0.0
H65 H 0.12179 0.98406 0.80732 0.0
C66 C 0.49806 0.15115 0.12834 0.0
C67 C 0.50015 0.15109 0.06668 0.0
N68 N 0.48759 0.15024 0.03918 0.0
N69 N 0.48425 0.15025 0.13984 0.0
C70 C 0.47812 0.14983 0.08464 0.0
H71 H 0.5061 0.15171 0.16276 0.0
Co72 Co 0.47647 0.14938 0.21713 0.0
C73 C 0.45277 0.12974 0.20425 0.0
O74 O 0.45654 0.12356 0.25496 0.0
N75 N 0.46854 0.14903 0.29579 0.0
C76 C 0.45269 0.15252 0.36829 0.0
C77 C 0.455 0.15219 0.30695 0.0
C78 C 0.4743 0.14792 0.35176 0.0
N79 N 0.46486 0.14987 0.39669 0.0
O80 O 0.46786 0.16719 0.20487 0.0
H81 H 0.44729 0.15448 0.27248 0.0
H82 H 0.48531 0.14648 0.36005 0.0
O83 O 0.45983 0.1401 0.18413 0.0
C84 C 0.47608 0.17759 0.20949 0.0
O85 O 0.48945 0.17527 0.21898 0.0
N86 N 0.48598 0.13226 0.22911 0.0
C87 C 0.50407 0.10937 0.23996 0.0
C88 C 0.49265 0.10895 0.20007 0.0
C89 C 0.48396 0.12061 0.19418 0.0
C90 C 0.49746 0.13308 0.26558 0.0
C91 C 0.50644 0.12168 0.27285 0.0
H92 H 0.47607 0.12042 0.15926 0.0
H93 H 0.50018 0.14293 0.28639 0.0
H94 H 0.46694 0.14897 0.07788 0.0
H95 H 0.51016 0.15175 0.04391 0.0
H96 H 0.44279 0.15472 0.39003 0.0
H97 H 0.49062 0.09982 0.17243 0.0
H98 H 0.51555 0.12278 0.30164 0.0
C99 C 0.34787 0.497 0.62039 0.0
C100 C 0.34796 0.49907 0.55871 0.0
N101 N 0.34908 0.48652 0.53137 0.0
N102 N 0.34901 0.48321 0.63206 0.0
C103 C 0.3496 0.47707 0.57693 0.0
H104 H 0.34713 0.50503 0.65472 0.0
Co105 Co 0.34996 0.47544 0.70937 0.0
C106 C 0.36984 0.45191 0.69639 0.0
O107 O 0.37598 0.45566 0.74719 0.0
N108 N 0.35043 0.4675 0.78804 0.0
C109 C 0.34721 0.45163 0.86075 0.0
C110 C 0.34733 0.45396 0.79939 0.0
C111 C 0.35172 0.47325 0.84393 0.0
N112 N 0.34993 0.46381 0.88898 0.0
O113 O 0.33225 0.46665 0.69715 0.0
H114 H 0.34499 0.44624 0.76502 0.0
H115 H 0.35323 0.48425 0.85212 0.0
O116 O 0.35942 0.45891 0.67638 0.0
C117 C 0.32181 0.47482 0.70221 0.0
O118 O 0.32409 0.48817 0.71227 0.0
N119 N 0.36696 0.48514 0.72132 0.0
C120 C 0.38956 0.50357 0.73239 0.0
C121 C 0.39021 0.49212 0.69278 0.0
C122 C 0.37869 0.48324 0.6868 0.0
C123 C 0.3659 0.49666 0.75742 0.0
C124 C 0.37716 0.5058 0.76482 0.0
H125 H 0.37905 0.47531 0.65211 0.0
H126 H 0.35598 0.49924 0.77792 0.0
H127 H 0.35069 0.46591 0.5703 0.0
H128 H 0.34716 0.50905 0.53582 0.0
H129 H 0.34511 0.44173 0.88264 0.0
H130 H 0.39942 0.4902 0.66545 0.0
H131 H 0.37589 0.51492 0.79337 0.0
C132 C 0.00641 0.15989 0.382 0.0
C133 C 0.00405 0.16032 0.4435 0.0
N134 N 0.01517 0.15462 0.472 0.0
N135 N 0.01894 0.15396 0.37149 0.0
C136 C 0.02405 0.15088 0.42709 0.0
H137 H 0.99944 0.16366 0.34699 0.0
Co138 Co 0.02631 0.15116 0.29449 0.0
C139 C 0.0495 0.13115 0.31188 0.0
O140 O 0.04535 0.1244 0.26317 0.0
N141 N 0.03382 0.1489 0.21549 0.0
C142 C 0.04925 0.15097 0.14032 0.0
C143 C 0.04728 0.15183 0.20177 0.0
C144 C 0.02775 0.14662 0.16078 0.0
N145 N 0.03694 0.14772 0.11431 0.0
O146 O 0.03537 0.16895 0.29914 0.0
H147 H 0.05513 0.15495 0.2344 0.0
H148 H 0.01676 0.14466 0.1544 0.0
O149 O 0.04285 0.14203 0.3294 0.0
C150 C 0.02825 0.17836 0.27244 0.0
O151 O 0.01633 0.17475 0.2472 0.0
N152 N 0.01619 0.13426 0.29009 0.0
C153 C 0.99721 0.11201 0.28746 0.0
C154 C 0.00896 0.1116 0.32549 0.0
C155 C 0.01812 0.12298 0.32732 0.0
C156 C 0.00441 0.13514 0.25554 0.0
C157 C 0.99496 0.12404 0.25239 0.0
H158 H 0.02632 0.12289 0.36088 0.0
H159 H 0.00202 0.14476 0.23207 0.0
H160 H 0.03399 0.14578 0.43453 0.0
H161 H 0.99492 0.16469 0.46534 0.0
H162 H 0.05887 0.15329 0.11654 0.0
H163 H 0.01072 0.10284 0.3557 0.0
H164 H 0.98586 0.125 0.22346 0.0
C165 C 0.3452 0.00216 0.89182 0.0
C166 C 0.34527 1e-05 0.95343 0.0
N167 N 0.34795 0.01231 0.98108 0.0
N168 N 0.3478 0.01573 0.88034 0.0
C169 C 0.34938 0.02168 0.93549 0.0
H170 H 0.34338 0.99432 0.85739 0.0
Co171 Co 0.34881 0.02339 0.80295 0.0
C172 C 0.36806 0.04739 0.8143 0.0
O173 O 0.37407 0.04371 0.76314 0.0
N174 N 0.3493 0.03117 0.72403 0.0
C175 C 0.34533 0.04668 0.65059 0.0
C176 C 0.34504 0.04436 0.71192 0.0
C177 C 0.35189 0.02563 0.66859 0.0
N178 N 0.34964 0.03488 0.62312 0.0
O179 O 0.33091 0.03189 0.81435 0.0
H180 H 0.3416 0.0518 0.74571 0.0
H181 H 0.3551 0.01499 0.66103 0.0
O182 O 0.35792 0.04016 0.83532 0.0
C183 C 0.32062 0.02367 0.80607 0.0
O184 O 0.32315 0.0105 0.79316 0.0
N185 N 0.36595 0.01394 0.79216 0.0
C186 C 0.38886 0.99587 0.78258 0.0
C187 C 0.38937 0.00757 0.8208 0.0
C188 C 0.37769 0.01627 0.82611 0.0
C189 C 0.36503 0.00218 0.75751 0.0
C190 C 0.37643 0.99319 0.75088 0.0
H191 H 0.37798 0.02443 0.85977 0.0
H192 H 0.35515 0.99942 0.73686 0.0
H193 H 0.35173 0.03263 0.94199 0.0
H194 H 0.34331 0.99015 0.97586 0.0
H195 H 0.34208 0.0562 0.62804 0.0
H196 H 0.3986 0.00985 0.84749 0.0
H197 H 0.3753 0.9839 0.72327 0.0
C198 C 0.4978 0.34498 0.37892 0.0
C199 C 0.49993 0.34483 0.44052 0.0
N200 N 0.48767 0.3476 0.46833 0.0
N201 N 0.48426 0.34781 0.36757 0.0
C202 C 0.47833 0.34932 0.42278 0.0
H203 H 0.50561 0.34313 0.3444 0.0
Co204 Co 0.4766 0.34907 0.2903 0.0
C205 C 0.45272 0.36848 0.30269 0.0
O206 O 0.45643 0.3746 0.25182 0.0
N207 N 0.46881 0.34981 0.21148 0.0
C208 C 0.45331 0.34612 0.13778 0.0
C209 C 0.45558 0.34575 0.19915 0.0
C210 C 0.47443 0.35236 0.15615 0.0
N211 N 0.46519 0.35027 0.11053 0.0
O212 O 0.46799 0.3312 0.30093 0.0
H213 H 0.44808 0.34236 0.23279 0.0
H214 H 0.48513 0.3554 0.14878 0.0
O215 O 0.45989 0.35822 0.32315 0.0
C216 C 0.47615 0.32092 0.2917 0.0
O217 O 0.4893 0.32345 0.27842 0.0
N218 N 0.48617 0.36617 0.2802 0.0
C219 C 0.50436 0.38899 0.27094 0.0
C220 C 0.49268 0.3895 0.30935 0.0
C221 C 0.48392 0.37787 0.31448 0.0
C222 C 0.49792 0.36522 0.2455 0.0
C223 C 0.50696 0.37659 0.23899 0.0
H224 H 0.47577 0.37815 0.3482 0.0
H225 H 0.50062 0.35536 0.22464 0.0
H226 H 0.46741 0.35178 0.42934 0.0
H227 H 0.50977 0.34263 0.4628 0.0
H228 H 0.44378 0.34301 0.11505 0.0
H229 H 0.49047 0.39871 0.33626 0.0
H230 H 0.51623 0.37544 0.21125 0.0
C231 C 0.15235 0.4961 0.86562 0.0
C232 C 0.15271 0.49813 0.92726 0.0
N233 N 0.15196 0.48555 0.9548 0.0
N234 N 0.15131 0.48231 0.85402 0.0
C235 C 0.15117 0.47613 0.90914 0.0
H236 H 0.15267 0.50417 0.83128 0.0
Co237 Co 0.15012 0.4746 0.77674 0.0
C238 C 0.13087 0.45061 0.79033 0.0
O239 O 0.12462 0.45424 0.73961 0.0
N240 N 0.14945 0.46676 0.698 0.0
C241 C 0.15269 0.45102 0.62475 0.0
C242 C 0.15299 0.45334 0.68611 0.0
C243 C 0.14748 0.47247 0.64236 0.0
N244 N 0.14925 0.46308 0.59718 0.0
O245 O 0.16806 0.46613 0.78734 0.0
H246 H 0.15597 0.44574 0.72006 0.0
H247 H 0.14512 0.48333 0.63434 0.0
O248 O 0.14113 0.45786 0.81022 0.0
C249 C 0.17836 0.47443 0.78128 0.0
O250 O 0.17585 0.48774 0.77119 0.0
N251 N 0.13288 0.484 0.76654 0.0
C252 C 0.10998 0.50219 0.75984 0.0
C253 C 0.10971 0.4905 0.79825 0.0
C254 C 0.12137 0.48175 0.80209 0.0
C255 C 0.13354 0.49566 0.73112 0.0
C256 C 0.12213 0.50471 0.72598 0.0
H257 H 0.12132 0.47367 0.83619 0.0
H258 H 0.14328 0.49844 0.70947 0.0
H259 H 0.15059 0.46493 0.91555 0.0
H260 H 0.15317 0.50816 0.94985 0.0
H261 H 0.15537 0.44135 0.60209 0.0
H262 H 0.10071 0.48832 0.82647 0.0
H263 H 0.12312 0.51399 0.69814 0.0
C264 C 0.99947 0.65036 0.90333 0.0
C265 C 0.00154 0.65025 0.96502 0.0
N266 N 0.98895 0.64987 0.99242 0.0
N267 N 0.98564 0.64994 0.89171 0.0
C268 C 0.97948 0.64977 0.94687 0.0
H269 H 0.00753 0.6507 0.869 0.0
Co270 Co 0.97776 0.64955 0.81451 0.0
C271 C 0.9533 0.63066 0.82597 0.0
O272 O 0.95641 0.62498 0.77343 0.0
N273 N 0.96976 0.64969 0.73593 0.0
C274 C 0.95407 0.65392 0.66345 0.0
C275 C 0.95642 0.6536 0.72478 0.0
C276 C 0.9754 0.64811 0.67995 0.0
N277 N 0.96605 0.65051 0.63501 0.0
O278 O 0.96942 0.66742 0.82832 0.0
H279 H 0.94886 0.65629 0.7593 0.0
H280 H 0.98627 0.64592 0.67166 0.0
O281 O 0.96102 0.64042 0.84728 0.0
C282 C 0.97763 0.67786 0.82458 0.0
O283 O 0.99103 0.67559 0.81584 0.0
N284 N 0.98694 0.63234 0.8008 0.0
C285 C 0.00452 0.60919 0.78605 0.0
C286 C 0.99294 0.60856 0.82497 0.0
C287 C 0.98447 0.62033 0.83279 0.0
C288 C 0.99857 0.63334 0.7654 0.0
C289 C 0.00731 0.62184 0.75625 0.0
H290 H 0.9764 0.61989 0.86683 0.0
H291 H 0.00149 0.64334 0.74647 0.0
H292 H 0.96829 0.6494 0.95351 0.0
H293 H 0.01155 0.65062 0.98786 0.0
H294 H 0.94428 0.65659 0.64174 0.0
H295 H 0.99059 0.59914 0.85026 0.0
H296 H 0.01653 0.62306 0.72825 0.0
C297 C 0.84632 0.99667 0.36996 0.0
C298 C 0.84558 0.9988 0.43154 0.0
N299 N 0.84835 0.9866 0.45987 0.0
N300 N 0.8496 0.98321 0.35923 0.0
C301 C 0.85067 0.9773 0.41474 0.0
H302 H 0.84484 0.00448 0.33507 0.0
Co303 Co 0.85244 0.97575 0.28241 0.0
C304 C 0.87251 0.95263 0.30204 0.0
O305 O 0.87961 0.95683 0.25433 0.0
N306 N 0.85479 0.96815 0.2036 0.0
C307 C 0.85349 0.95259 0.12853 0.0
C308 C 0.85264 0.95453 0.19006 0.0
C309 C 0.8564 0.97434 0.14869 0.0
N310 N 0.85581 0.96508 0.10244 0.0
O311 O 0.83464 0.96676 0.28668 0.0
H312 H 0.85004 0.94652 0.22281 0.0
H313 H 0.85748 0.98544 0.1419 0.0
O314 O 0.86148 0.95923 0.3181 0.0
C315 C 0.82526 0.97409 0.26089 0.0
O316 O 0.82894 0.98613 0.23687 0.0
N317 N 0.86942 0.9858 0.27827 0.0
C318 C 0.89169 0.00479 0.2771 0.0
C319 C 0.89184 0.99319 0.31601 0.0
C320 C 0.88044 0.98404 0.31709 0.0
C321 C 0.8688 0.99744 0.24269 0.0
C322 C 0.87992 0.00687 0.24026 0.0
H323 H 0.88026 0.97601 0.35143 0.0
H324 H 0.8593 -0.00015 0.21842 0.0
H325 H 0.85311 0.96639 0.4219 0.0
H326 H 0.84352 0.0087 0.45351 0.0
H327 H 0.85179 0.94285 0.10466 0.0
H328 H 0.90038 0.99157 0.34754 0.0
H329 H 0.87914 0.01589 0.21074 0.0
C330 C 0.50315 0.84849 0.88688 0.0
C331 C 0.50115 0.84813 0.94855 0.0
N332 N 0.51372 0.84911 0.97598 0.0
N333 N 0.51691 0.84976 0.87516 0.0
C334 C 0.52311 0.85004 0.93023 0.0
H335 H 0.49507 0.84802 0.85261 0.0
Co336 Co 0.52462 0.85105 0.79786 0.0
C337 C 0.54806 0.87096 0.81172 0.0
O338 O 0.54426 0.87715 0.7611 0.0
N339 N 0.5325 0.85186 0.71916 0.0
C340 C 0.54837 0.84905 0.64615 0.0
C341 C 0.54602 0.84872 0.70749 0.0
C342 C 0.52676 0.8536 0.66342 0.0
N343 N 0.53623 0.85209 0.61837 0.0
O344 O 0.53347 0.83331 0.80872 0.0
H345 H 0.55369 0.84601 0.74159 0.0
H346 H 0.51585 0.85562 0.65521 0.0
O347 O 0.54112 0.86047 0.83139 0.0
C348 C 0.52527 0.82293 0.80263 0.0
O349 O 0.51194 0.82531 0.79243 0.0
N350 N 0.51483 0.86805 0.78728 0.0
C351 C 0.49625 0.89058 0.77834 0.0
C352 C 0.50778 0.89115 0.8176 0.0
C353 C 0.51672 0.87966 0.82255 0.0
C354 C 0.50326 0.86706 0.75143 0.0
C355 C 0.49403 0.87829 0.74513 0.0
H356 H 0.52471 0.87994 0.85707 0.0
H357 H 0.50072 0.85721 0.73015 0.0
H358 H 0.5343 0.8508 0.93657 0.0
H359 H 0.49114 0.84751 0.97123 0.0
H360 H 0.55814 0.84666 0.62365 0.0
H361 H 0.50971 0.90027 0.84546 0.0
H362 H 0.48487 0.87707 0.71675 0.0
C363 C 0.65019 0.50364 0.38239 0.0
C364 C 0.64998 0.50158 0.44409 0.0
N365 N 0.64883 0.51415 0.47132 0.0
N366 N 0.64908 0.51742 0.37063 0.0
C367 C 0.6484 0.52358 0.42569 0.0
H368 H 0.651 0.4956 0.34813 0.0
Co369 Co 0.64835 0.5252 0.2933 0.0
C370 C 0.62873 0.54894 0.30518 0.0
O371 O 0.62282 0.54535 0.25367 0.0
N372 N 0.64812 0.53313 0.21462 0.0
C373 C 0.65169 0.54892 0.14192 0.0
C374 C 0.65156 0.54658 0.20328 0.0
C375 C 0.64662 0.52742 0.15873 0.0
N376 N 0.64861 0.53683 0.11368 0.0
O377 O 0.66611 0.5338 0.30642 0.0
H378 H 0.65408 0.55424 0.23767 0.0
H379 H 0.64477 0.51648 0.15056 0.0
O380 O 0.63897 0.54179 0.3259 0.0
C381 C 0.67637 0.52549 0.29943 0.0
O382 O 0.67378 0.51234 0.28623 0.0
N383 N 0.63129 0.51565 0.28073 0.0
C384 C 0.6086 0.49732 0.26993 0.0
C385 C 0.60793 0.50892 0.30871 0.0
C386 C 0.6195 0.51773 0.31464 0.0
C387 C 0.63233 0.50404 0.24519 0.0
C388 C 0.62105 0.49493 0.238 0.0
H389 H 0.61911 0.52574 0.34899 0.0
H390 H 0.64227 0.50136 0.22503 0.0
H391 H 0.64734 0.53474 0.43224 0.0
H392 H 0.65074 0.49161 0.46707 0.0
H393 H 0.65399 0.55878 0.12004 0.0
H394 H 0.59869 0.51099 0.33558 0.0
H395 H 0.62232 0.48571 0.21005 0.0
C396 C 0.99679 0.84606 0.63087 0.0
C397 C 0.99876 0.84548 0.56921 0.0
N398 N 0.98615 0.8461 0.54188 0.0
N399 N 0.98302 0.84712 0.64267 0.0
C400 C 0.97678 0.84705 0.58767 0.0
H401 H 0.0049 0.84587 0.66506 0.0
Co402 Co 0.97532 0.84854 0.71996 0.0
C403 C 0.95162 0.86812 0.70519 0.0
O404 O 0.95534 0.87443 0.75562 0.0
N405 N 0.96748 0.84945 0.79869 0.0
C406 C 0.95171 0.84656 0.87211 0.0
C407 C 0.95399 0.84623 0.81071 0.0
C408 C 0.97327 0.85123 0.85427 0.0
N409 N 0.96387 0.84968 0.89957 0.0
O410 O 0.96672 0.83064 0.71034 0.0
H411 H 0.94631 0.84342 0.77684 0.0
H412 H 0.98419 0.85329 0.86221 0.0
O413 O 0.95868 0.85766 0.68597 0.0
C414 C 0.97509 0.82041 0.71713 0.0
O415 O 0.98839 0.82304 0.72668 0.0
N416 N 0.98489 0.8657 0.72948 0.0
C417 C 0.00314 0.88851 0.73712 0.0
C418 C 0.99159 0.88882 0.69792 0.0
C419 C 0.98281 0.87719 0.69361 0.0
C420 C 0.99647 0.86497 0.76532 0.0
C421 C 0.00554 0.87633 0.77097 0.0
H422 H 0.97482 0.87727 0.65913 0.0
H423 H 0.99917 0.85521 0.78705 0.0
H424 H 0.96557 0.84757 0.58142 0.0
H425 H 0.00876 0.84493 0.54645 0.0
H426 H 0.942 0.84409 0.89486 0.0
H427 H 0.98952 0.89784 0.66959 0.0
H428 H 0.01474 0.87531 0.79931 0.0
C429 C 0.65607 0.99786 0.1439 0.0
C430 C 0.65666 0.00013 0.08237 0.0
N431 N 0.65475 0.9878 0.05378 0.0
N432 N 0.65372 0.9842 0.15434 0.0
C433 C 0.65305 0.9783 0.0987 0.0
H434 H 0.65707 0.00571 0.17895 0.0
Co435 Co 0.65168 0.97638 0.23099 0.0
C436 C 0.63161 0.95326 0.21326 0.0
O437 O 0.62512 0.95716 0.26298 0.0
N438 N 0.6502 0.9684 0.30955 0.0
C439 C 0.65273 0.95253 0.38282 0.0
C440 C 0.65267 0.95475 0.32138 0.0
C441 C 0.64925 0.97431 0.36528 0.0
N442 N 0.65063 0.96487 0.41064 0.0
O443 O 0.66951 0.96761 0.2229 0.0
H444 H 0.65485 0.9469 0.28737 0.0
H445 H 0.64852 0.9854 0.37314 0.0
O446 O 0.64245 0.95994 0.19546 0.0
C447 C 0.6791 0.97509 0.24635 0.0
O448 O 0.67558 0.98716 0.27037 0.0
N449 N 0.63459 0.98618 0.23889 0.0
C450 C 0.6117 0.00437 0.24595 0.0
C451 C 0.61173 0.99319 0.20483 0.0
C452 C 0.62341 0.98446 0.20087 0.0
C453 C 0.63505 0.9975 0.27635 0.0
C454 C 0.62363 0.00652 0.28173 0.0
H455 H 0.6236 0.97673 0.16529 0.0
H456 H 0.64464 6e-05 0.29961 0.0
H457 H 0.65143 0.96724 0.09134 0.0
H458 H 0.65808 0.01017 0.06061 0.0
H459 H 0.6545 0.9426 0.40509 0.0
H460 H 0.60293 0.99135 0.17497 0.0
H461 H 0.62442 0.01547 0.31158 0.0
C462 C 0.50008 0.65348 0.62937 0.0
C463 C 0.49817 0.65377 0.5676 0.0
N464 N 0.51082 0.65453 0.54115 0.0
N465 N 0.5139 0.65378 0.64171 0.0
C466 C 0.52019 0.65464 0.58694 0.0
H467 H 0.49194 0.65273 0.6632 0.0
Co468 Co 0.52167 0.65215 0.71901 0.0
C469 C 0.54422 0.6313 0.70179 0.0
O470 O 0.53999 0.62475 0.7509 0.0
N471 N 0.52957 0.65105 0.79773 0.0
C472 C 0.54553 0.65169 0.87166 0.0
C473 C 0.54343 0.65178 0.81008 0.0
C474 C 0.52348 0.65148 0.85321 0.0
N475 N 0.53295 0.65154 0.89859 0.0
O476 O 0.53093 0.66969 0.70903 0.0
H477 H 0.55159 0.65278 0.77645 0.0
H478 H 0.51238 0.65222 0.86099 0.0
O479 O 0.53792 0.64241 0.68434 0.0
C480 C 0.523 0.68033 0.71297 0.0
O481 O 0.5095 0.6784 0.72044 0.0
N482 N 0.51158 0.63518 0.72897 0.0
C483 C 0.49331 0.61236 0.73744 0.0
C484 C 0.50419 0.61245 0.69486 0.0
C485 C 0.51294 0.62408 0.69025 0.0
C486 C 0.50058 0.63557 0.76821 0.0
C487 C 0.49153 0.62418 0.77422 0.0
H488 H 0.52039 0.62434 0.65355 0.0
H489 H 0.49816 0.64509 0.79203 0.0
H490 H 0.53142 0.65486 0.58057 0.0
H491 H 0.48827 0.65339 0.54383 0.0
H492 H 0.55548 0.65232 0.89494 0.0
H493 H 0.50578 0.60374 0.6643 0.0
H494 H 0.48279 0.62494 0.80528 0.0
C495 C 0.83836 0.50263 0.11432 0.0
C496 C 0.83667 0.50078 0.05287 0.0
N497 N 0.83937 0.51301 0.02481 0.0
N498 N 0.84214 0.51596 0.12531 0.0
C499 C 0.84256 0.52208 0.06988 0.0
H500 H 0.83735 0.49465 0.14878 0.0
Co501 Co 0.84735 0.52255 0.20202 0.0
C502 C 0.85443 0.55186 0.17294 0.0
O503 O 0.8458 0.55655 0.21455 0.0
N504 N 0.85268 0.52891 0.27949 0.0
C505 C 0.86583 0.53669 0.35549 0.0
C506 C 0.86481 0.53535 0.29363 0.0
C507 C 0.84652 0.52641 0.33375 0.0
N508 N 0.85434 0.53102 0.38085 0.0
O509 O 0.82983 0.532 0.20921 0.0
H510 H 0.87274 0.53835 0.26116 0.0
H511 H 0.83686 0.52064 0.33887 0.0
O512 O 0.85585 0.53874 0.16494 0.0
C513 C 0.82024 0.52393 0.22852 0.0
O514 O 0.82343 0.51081 0.23969 0.0
N515 N 0.86401 0.51247 0.19639 0.0
C516 C 0.88749 0.4952 0.19515 0.0
C517 C 0.88608 0.50608 0.1528 0.0
C518 C 0.8742 0.51462 0.15407 0.0
C519 C 0.86504 0.50177 0.23687 0.0
C520 C 0.87674 0.49309 0.23743 0.0
H521 H 0.87314 0.52277 0.12055 0.0
H522 H 0.85666 0.49996 0.26884 0.0
H523 H 0.84574 0.53278 0.06226 0.0
H524 H 0.83387 0.4911 0.03057 0.0
H525 H 0.87452 0.54124 0.37998 0.0
H526 H 0.89411 0.50802 0.11921 0.0
H527 H 0.87722 0.48461 0.26994 0.0
H528 H 0.98544 0.40657 0.30592 0.0
H529 H 0.96795 0.42522 0.30121 0.0
H530 H 0.96429 0.41942 0.10808 0.0
H531 H 0.98159 0.40061 0.11234 0.0
H532 H 0.96641 0.44819 0.14752 0.0
H533 H 0.92565 0.41825 0.2716 0.0
H534 H 0.94233 0.41925 0.30895 0.0
H535 H 0.94081 0.41001 0.23838 0.0
C536 C 0.98086 0.40919 0.26247 0.0
C537 C 0.98488 0.40204 0.20957 0.0
C538 C 0.9709 0.41987 0.25987 0.0
C539 C 0.96473 0.42357 0.20441 0.0
C540 C 0.96894 0.41671 0.15131 0.0
H541 H 0.90047 0.48333 0.09714 0.0
H542 H 0.91984 0.46657 0.09782 0.0
C543 C 0.97888 0.406 0.15385 0.0
C544 C 0.95374 0.43446 0.20195 0.0
H545 H 0.92072 0.44199 0.25056 0.0
C546 C 0.9564 0.44685 0.16985 0.0
C547 C 0.9407 0.43263 0.23103 0.0
C548 C 0.93709 0.41928 0.26405 0.0
C549 C 0.94643 0.45764 0.16724 0.0
C550 C 0.9334 0.45582 0.19659 0.0
C551 C 0.93074 0.44338 0.22832 0.0
C552 C 0.92233 0.46668 0.19537 0.0
C553 C 0.95006 0.47099 0.13437 0.0
C554 C 0.91721 0.47219 0.24994 0.0
C555 C 0.90612 0.48169 0.24969 0.0
C556 C 0.89988 0.48584 0.19481 0.0
C557 C 0.90519 0.4805 0.14007 0.0
C558 C 0.91627 0.47093 0.14038 0.0
H559 H 0.96153 0.47217 0.12838 0.0
H560 H 0.94519 0.47084 0.08871 0.0
H561 H 0.94602 0.48025 0.15913 0.0
H562 H 0.92173 0.46903 0.29287 0.0
H563 H 0.90238 0.48574 0.29256 0.0
H564 H 0.09348 0.98587 0.64861 0.0
H565 H 0.07465 0.9686 0.65034 0.0
H566 H 0.07893 0.9648 0.84424 0.0
H567 H 0.09751 0.98241 0.84323 0.0
H568 H 0.07681 0.94102 0.69088 0.0
H569 H 0.03668 0.97019 0.82174 0.0
H570 H 0.05161 0.97866 0.78762 0.0
H571 H 0.05353 0.96917 0.85746 0.0
C572 C 0.09023 0.98159 0.69184 0.0
C573 C 0.09694 0.98561 0.74589 0.0
C574 C 0.07954 0.97164 0.69265 0.0
C575 C 0.07527 0.96555 0.74747 0.0
C576 C 0.08189 0.96955 0.80156 0.0
H577 H 0.01626 0.89946 0.83686 0.0
H578 H 0.03382 0.91811 0.83957 0.0
C579 C 0.0926 0.97951 0.80081 0.0
C580 C 0.06439 0.95452 0.74744 0.0
H581 H 0.03192 0.9463 0.80127 0.0
C582 C 0.06697 0.94219 0.71479 0.0
C583 C 0.0516 0.95606 0.77895 0.0
C584 C 0.04808 0.96927 0.81305 0.0
C585 C 0.05716 0.93129 0.7133 0.0
C586 C 0.04432 0.93286 0.74442 0.0
C587 C 0.04177 0.94514 0.77742 0.0
C588 C 0.0334 0.92187 0.74289 0.0
C589 C 0.06074 0.91806 0.67938 0.0
C590 C 0.02718 0.918 0.68779 0.0
C591 C 0.01722 0.90732 0.68603 0.0
C592 C 0.01321 0.90035 0.73947 0.0
C593 C 0.01924 0.90449 0.79482 0.0
C594 C 0.02921 0.91519 0.79651 0.0
H595 H 0.07218 0.91707 0.67166 0.0
H596 H 0.05705 0.90868 0.70438 0.0
H597 H 0.05551 0.91822 0.63448 0.0
H598 H 0.03011 0.92319 0.64601 0.0
H599 H 0.01292 0.90431 0.64254 0.0
H600 H 0.5963 0.01487 0.15145 0.0
H601 H 0.57717 0.03179 0.15593 0.0
H602 H 0.58099 0.03351 0.35053 0.0
H603 H 0.60007 0.01645 0.34663 0.0
H604 H 0.55129 0.03038 0.21908 0.0
H605 H 0.58424 0.07473 0.29746 0.0
H606 H 0.59159 0.05892 0.26612 0.0
H607 H 0.58529 0.05915 0.34282 0.0
C608 C 0.59297 0.01869 0.19533 0.0
C609 C 0.59974 0.01431 0.24873 0.0
C610 C 0.58208 0.02842 0.19774 0.0
C611 C 0.5778 0.03403 0.25345 0.0
C612 C 0.58433 0.0295 0.30695 0.0
H613 H 0.51678 0.09877 0.34146 0.0
H614 H 0.53403 0.07987 0.34701 0.0
C615 C 0.59522 0.01976 0.30462 0.0
C616 C 0.56654 0.04467 0.25528 0.0
H617 H 0.55995 0.07883 0.29012 0.0
C618 C 0.55316 0.04097 0.23464 0.0
C619 C 0.56903 0.05847 0.27574 0.0
C620 C 0.58333 0.06315 0.29636 0.0
C621 C 0.54215 0.0507 0.23417 0.0
C622 C 0.54469 0.06455 0.25383 0.0
C623 C 0.55803 0.06819 0.2752 0.0
C624 C 0.5338 0.07556 0.25075 0.0
C625 C 0.52787 0.04601 0.2133 0.0
C626 C 0.52803 0.07947 0.19475 0.0
C627 C 0.51822 0.09027 0.1914 0.0
C628 C 0.51404 0.09746 0.244 0.0
C629 C 0.51984 0.09351 0.30008 0.0
C630 C 0.52965 0.08268 0.30338 0.0
H631 H 0.52669 0.03448 0.21642 0.0
H632 H 0.51949 0.05102 0.24051 0.0
H633 H 0.5264 0.04906 0.16518 0.0
H634 H 0.53135 0.07436 0.15337 0.0
H635 H 0.51421 0.09325 0.14732 0.0
H636 H 0.40555 0.514 0.63994 0.0
H637 H 0.42414 0.53145 0.64623 0.0
H638 H 0.41852 0.53391 0.83988 0.0
H639 H 0.39989 0.51638 0.83404 0.0
H640 H 0.41929 0.55983 0.78415 0.0
H641 H 0.46403 0.52734 0.70868 0.0
H642 H 0.44948 0.52698 0.65725 0.0
H643 H 0.44757 0.51987 0.7323 0.0
C644 C 0.40844 0.51804 0.68406 0.0
C645 C 0.4013 0.51371 0.73658 0.0
C646 C 0.41907 0.52802 0.68756 0.0
C647 C 0.42287 0.53381 0.74364 0.0
C648 C 0.4158 0.52952 0.79618 0.0
H649 H 0.48166 0.6005 0.83874 0.0
H650 H 0.4647 0.58134 0.84331 0.0
C651 C 0.40513 0.51954 0.79273 0.0
C652 C 0.43373 0.54485 0.7469 0.0
H653 H 0.46774 0.55202 0.71127 0.0
C654 C 0.42993 0.55809 0.76885 0.0
C655 C 0.44759 0.54255 0.72682 0.0
C656 C 0.45248 0.52838 0.70547 0.0
C657 C 0.4395 0.56923 0.76948 0.0
C658 C 0.45328 0.56699 0.74839 0.0
C659 C 0.45715 0.5537 0.72728 0.0
C660 C 0.46372 0.57842 0.74616 0.0
C661 C 0.43466 0.58342 0.79082 0.0
C662 C 0.46899 0.58291 0.69013 0.0
C663 C 0.47864 0.59386 0.68733 0.0
C664 C 0.48331 0.60046 0.74064 0.0
C665 C 0.47814 0.59578 0.79682 0.0
C666 C 0.46846 0.58483 0.79953 0.0
H667 H 0.42308 0.58412 0.79316 0.0
H668 H 0.43889 0.58542 0.83685 0.0
H669 H 0.43857 0.59178 0.76025 0.0
H670 H 0.46544 0.57809 0.64842 0.0
H671 H 0.48221 0.59733 0.64324 0.0
H672 H 0.88968 0.03332 0.27475 0.0
H673 H 0.90867 0.0504 0.27686 0.0
H674 H 0.93886 0.01698 0.2866 0.0
H675 H 0.9199 0.99975 0.28285 0.0
H676 H 0.92911 0.05378 0.3684 0.0
H677 H 0.95309 0.04137 0.14513 0.0
H678 H 0.9357 0.03571 0.16557 0.0
H679 H 0.95072 0.0268 0.19558 0.0
C680 C 0.90036 0.02957 0.27633 0.0
C681 C 0.90328 0.01516 0.278 0.0
C682 C 0.91119 0.03936 0.27803 0.0
C683 C 0.92516 0.03495 0.28111 0.0
C684 C 0.92815 0.02059 0.28322 0.0
H685 H 0.00249 0.08383 0.28893 0.0
H686 H 0.98543 0.06469 0.29058 0.0
C687 C 0.9173 0.01077 0.28163 0.0
C688 C 0.93652 0.04547 0.28362 0.0
H689 H 0.96451 0.05833 0.20519 0.0
C690 C 0.93686 0.05478 0.33278 0.0
C691 C 0.94666 0.04667 0.23724 0.0
C692 C 0.94653 0.0372 0.18257 0.0
C693 C 0.94705 0.06529 0.33675 0.0
C694 C 0.957 0.0667 0.28969 0.0
C695 C 0.95685 0.05723 0.24113 0.0
C696 C 0.96733 0.07826 0.28904 0.0
C697 C 0.94715 0.07473 0.39156 0.0
C698 C 0.9628 0.0922 0.28684 0.0
C699 C 0.97248 0.10313 0.28616 0.0
C700 C 0.98693 0.10034 0.28722 0.0
C701 C 0.99144 0.08633 0.28876 0.0
C702 C 0.98172 0.07539 0.28938 0.0
H703 H 0.94161 0.06989 0.43055 0.0
H704 H 0.95801 0.07727 0.40563 0.0
H705 H 0.94173 0.08465 0.38023 0.0
H706 H 0.95174 0.09463 0.2855 0.0
H707 H 0.96863 0.11378 0.28568 0.0
H708 H 0.48617 0.90649 0.87191 0.0
H709 H 0.46871 0.92513 0.86714 0.0
H710 H 0.46555 0.91973 0.67359 0.0
H711 H 0.48312 0.90113 0.67779 0.0
H712 H 0.46888 0.95047 0.80082 0.0
H713 H 0.42489 0.91589 0.73243 0.0
H714 H 0.44114 0.90915 0.76223 0.0
H715 H 0.44011 0.91496 0.6849 0.0
C716 C 0.48191 0.90937 0.82816 0.0
C717 C 0.48604 0.90229 0.77519 0.0
C718 C 0.47187 0.91998 0.82561 0.0
C719 C 0.4657 0.92367 0.77017 0.0
C720 C 0.46998 0.91685 0.71701 0.0
H721 H 0.39911 0.98263 0.6818 0.0
H722 H 0.41829 0.96569 0.67658 0.0
C723 C 0.48002 0.90623 0.7195 0.0
C724 C 0.45476 0.93463 0.76828 0.0
H725 H 0.42022 0.94012 0.73685 0.0
C726 C 0.45824 0.94823 0.78681 0.0
C727 C 0.4409 0.93166 0.74988 0.0
C728 C 0.43645 0.91711 0.73169 0.0
C729 C 0.44823 0.95898 0.78714 0.0
C730 C 0.43433 0.95596 0.76948 0.0
C731 C 0.43089 0.9424 0.75024 0.0
C732 C 0.42307 0.96661 0.77235 0.0
C733 C 0.45267 0.9735 0.80571 0.0
C734 C 0.41934 0.97264 0.828 0.0
C735 C 0.40837 0.98227 0.83118 0.0
C736 C 0.40085 0.986 0.77876 0.0
C737 C 0.40462 0.97991 0.72305 0.0
C738 C 0.41561 0.97028 0.71994 0.0
H739 H 0.46415 0.97494 0.80133 0.0
H740 H 0.44731 0.98157 0.77791 0.0
H741 H 0.44983 0.97522 0.85389 0.0
H742 H 0.42472 0.96968 0.86927 0.0
H743 H 0.40556 0.98651 0.87501 0.0
H744 H 0.59855 0.48384 0.16926 0.0
H745 H 0.57986 0.46635 0.16451 0.0
H746 H 0.57351 0.47025 0.35725 0.0
H747 H 0.59221 0.48758 0.36259 0.0
H748 H 0.57886 0.44072 0.22605 0.0
H749 H 0.53384 0.47428 0.28914 0.0
H750 H 0.55043 0.48138 0.26501 0.0
H751 H 0.54822 0.47517 0.34137 0.0
C752 C 0.59315 0.48099 0.21062 0.0
C753 C 0.59682 0.48719 0.26624 0.0
C754 C 0.58245 0.47105 0.20777 0.0
C755 C 0.57515 0.46718 0.26035 0.0
C756 C 0.57877 0.47334 0.31588 0.0
H757 H 0.51386 0.40558 0.36338 0.0
H758 H 0.53077 0.42471 0.35741 0.0
C759 C 0.58946 0.48327 0.3188 0.0
C760 C 0.56424 0.45618 0.25786 0.0
H761 H 0.52991 0.44967 0.28972 0.0
C762 C 0.56812 0.44269 0.23935 0.0
C763 C 0.55026 0.4588 0.27545 0.0
C764 C 0.54537 0.47322 0.29334 0.0
C765 C 0.55848 0.43162 0.23971 0.0
C766 C 0.54453 0.43419 0.25803 0.0
C767 C 0.54061 0.44773 0.27577 0.0
C768 C 0.53395 0.42288 0.26066 0.0
C769 C 0.56341 0.41717 0.22243 0.0
C770 C 0.52995 0.41568 0.20802 0.0
C771 C 0.52024 0.40477 0.21122 0.0
C772 C 0.51427 0.40094 0.26709 0.0
C773 C 0.51811 0.40838 0.31952 0.0
C774 C 0.52783 0.41927 0.31627 0.0
H775 H 0.575 0.41632 0.2235 0.0
H776 H 0.55895 0.40915 0.2533 0.0
H777 H 0.55987 0.41477 0.17567 0.0
H778 H 0.53434 0.41851 0.16445 0.0
H779 H 0.51735 0.39939 0.16989 0.0
H780 H 0.01723 0.59963 0.68277 0.0
H781 H 0.03404 0.58043 0.6734 0.0
H782 H 0.03069 0.5724 0.86519 0.0
H783 H 0.01397 0.59157 0.87506 0.0
H784 H 0.05975 0.57805 0.73104 0.0
H785 H 0.02538 0.53353 0.79223 0.0
H786 H 0.01859 0.55053 0.77204 0.0
H787 H 0.02531 0.5474 0.84701 0.0
C788 C 0.02005 0.59375 0.72293 0.0
C789 C 0.01419 0.59709 0.77961 0.0
C790 C 0.02961 0.58275 0.71744 0.0
C791 C 0.03344 0.57484 0.76841 0.0
C792 C 0.02761 0.57813 0.82499 0.0
H793 H 0.09433 0.51159 0.85553 0.0
H794 H 0.07552 0.52888 0.85398 0.0
C795 C 0.01804 0.5891 0.83053 0.0
C796 C 0.04411 0.56365 0.7631 0.0
H797 H 0.04989 0.52892 0.78942 0.0
C798 C 0.05757 0.56727 0.74319 0.0
C799 C 0.04123 0.54961 0.77913 0.0
C800 C 0.02681 0.54497 0.79826 0.0
C801 C 0.06836 0.55733 0.74061 0.0
C802 C 0.06553 0.54333 0.75744 0.0
C803 C 0.05202 0.53966 0.7766 0.0
C804 C 0.07657 0.53245 0.75727 0.0
C805 C 0.0828 0.56197 0.72181 0.0
C806 C 0.08321 0.52853 0.70317 0.0
C807 C 0.09394 0.51858 0.7038 0.0
C808 C 0.09815 0.51229 0.75854 0.0
C809 C 0.09124 0.51606 0.81244 0.0
C810 C 0.08053 0.526 0.81174 0.0
H811 H 0.08396 0.57352 0.72371 0.0
H812 H 0.09091 0.55716 0.75125 0.0
H813 H 0.08479 0.55858 0.67449 0.0
H814 H 0.08012 0.53319 0.66046 0.0
H815 H 0.0989 0.51577 0.66141 0.0
H816 H 0.06334 0.35758 0.11394 0.0
H817 H 0.08184 0.36728 0.04916 0.0
H818 H 0.07035 0.40894 0.1054 0.0
H819 H 0.05248 0.39935 0.17173 0.0
H820 H 0.08106 0.38336 0.95523 0.0
H821 H 0.11123 0.41166 0.12827 0.0
H822 H 0.09779 0.39926 0.14831 0.0
H823 H 0.09339 0.41724 0.13201 0.0
C824 C 0.06492 0.36879 0.11294 0.0
C825 C 0.05659 0.37769 0.14855 0.0
C826 C 0.07548 0.37433 0.07595 0.0
C827 C 0.07779 0.38885 0.07364 0.0
C828 C 0.06922 0.3977 0.10817 0.0
H829 H 0.10451 0.44005 0.784 0.0
H830 H 0.09361 0.42312 0.85133 0.0
C831 C 0.05888 0.39219 0.14578 0.0
C832 C 0.08849 0.39497 0.03254 0.0
H833 H 0.11295 0.42089 0.02556 0.0
C834 C 0.08823 0.39137 0.97085 0.0
C835 C 0.09823 0.40511 0.0528 0.0
C836 C 0.10028 0.40839 0.11913 0.0
C837 C 0.09669 0.39833 0.92844 0.0
C838 C 0.10521 0.40961 0.94784 0.0
C839 C 0.10621 0.41249 0.01011 0.0
C840 C 0.11228 0.4192 0.90442 0.0
C841 C 0.0963 0.39352 0.86333 0.0
C842 C 0.12633 0.42313 0.91282 0.0
C843 C 0.13249 0.4332 0.87528 0.0
C844 C 0.12477 0.4394 0.82819 0.0
C845 C 0.11082 0.4353 0.81923 0.0
C846 C 0.10459 0.42548 0.85745 0.0
H847 H 0.0943 0.38209 0.86061 0.0
H848 H 0.08759 0.39886 0.83942 0.0
H849 H 0.10624 0.39585 0.83937 0.0
H850 H 0.13247 0.41855 0.94902 0.0
H851 H 0.14326 0.43619 0.88334 0.0
H852 H 0.14294 0.06313 0.62869 0.0
H853 H 0.13279 0.08127 0.56353 0.0
H854 H 0.09232 0.07383 0.64401 0.0
H855 H 0.10256 0.05645 0.7113 0.0
H856 H 0.11513 0.07996 0.47911 0.0
H857 H 0.09159 0.11481 0.6488 0.0
H858 H 0.1035 0.10103 0.67001 0.0
H859 H 0.08506 0.0975 0.66096 0.0
C860 C 0.13193 0.06559 0.63306 0.0
C861 C 0.12357 0.05852 0.67554 0.0
C862 C 0.12612 0.07594 0.59581 0.0
C863 C 0.11181 0.07924 0.59973 0.0
C864 C 0.10347 0.07198 0.64166 0.0
H865 H 0.05793 0.10404 0.3141 0.0
H866 H 0.07464 0.09315 0.38242 0.0
C867 C 0.10932 0.06191 0.67982 0.0
C868 C 0.1053 0.0894 0.557 0.0
H869 H 0.08063 0.11514 0.54899 0.0
C870 C 0.1078 0.08784 0.49462 0.0
C871 C 0.09603 0.10004 0.5767 0.0
C872 C 0.09405 0.10353 0.64285 0.0
C873 C 0.10065 0.09595 0.45155 0.0
C874 C 0.09019 0.10543 0.47113 0.0
C875 C 0.08837 0.10766 0.53357 0.0
C876 C 0.08041 0.11237 0.42803 0.0
C877 C 0.10443 0.0942 0.38557 0.0
C878 C 0.07752 0.12676 0.4323 0.0
C879 C 0.06756 0.13297 0.39426 0.0
C880 C 0.06045 0.12493 0.35077 0.0
C881 C 0.06343 0.11058 0.34631 0.0
C882 C 0.07311 0.10434 0.3851 0.0
H883 H 0.11566 0.09145 0.38045 0.0
H884 H 0.09824 0.08548 0.36604 0.0
H885 H 0.10233 0.10385 0.3591 0.0
H886 H 0.08289 0.13318 0.46541 0.0
H887 H 0.06541 0.14404 0.3989 0.0
H888 H 0.4364 0.14267 0.11926 0.0
H889 H 0.41826 0.13195 0.0558 0.0
H890 H 0.42683 0.09188 0.13809 0.0
H891 H 0.44419 0.10268 0.20378 0.0
H892 H 0.41951 0.11407 0.97233 0.0
H893 H 0.38592 0.0904 0.1465 0.0
H894 H 0.39957 0.10262 0.16576 0.0
H895 H 0.4034 0.08423 0.15746 0.0
C896 C 0.43419 0.13162 0.12437 0.0
C897 C 0.44155 0.12354 0.16695 0.0
C898 C 0.42385 0.12549 0.08809 0.0
C899 C 0.42086 0.11113 0.09307 0.0
C900 C 0.42844 0.10306 0.13498 0.0
H901 H 0.39502 0.05627 0.81159 0.0
H902 H 0.40622 0.07326 0.87774 0.0
C903 C 0.43849 0.10923 0.17221 0.0
C904 C 0.41063 0.1043 0.05161 0.0
H905 H 0.38529 0.07919 0.04742 0.0
C906 C 0.41184 0.10665 0.98897 0.0
C907 C 0.40027 0.0949 0.07282 0.0
C908 C 0.39712 0.09305 0.13938 0.0
C909 C 0.40362 0.09927 0.94706 0.0
C910 C 0.39441 0.08872 0.9681 0.0
C911 C 0.39256 0.08701 0.03084 0.0
C912 C 0.3873 0.07879 0.92621 0.0
C913 C 0.40494 0.10295 0.88077 0.0
C914 C 0.373 0.07568 0.93281 0.0
C915 C 0.36665 0.06554 0.89617 0.0
C916 C 0.37444 0.05851 0.85163 0.0
C917 C 0.38868 0.06172 0.84468 0.0
C918 C 0.39508 0.07156 0.88222 0.0
H919 H 0.40749 0.1142 0.8749 0.0
H920 H 0.41364 0.09685 0.86055 0.0
H921 H 0.39517 0.10066 0.85542 0.0
H922 H 0.36677 0.08099 0.96672 0.0
H923 H 0.35566 0.06321 0.90264 0.0
H924 H 0.35713 0.43573 0.6102 0.0
H925 H 0.36805 0.4179 0.54587 0.0
H926 H 0.40796 0.42639 0.62976 0.0
H927 H 0.39695 0.44345 0.69625 0.0
H928 H 0.38606 0.41961 0.46295 0.0
H929 H 0.40965 0.38545 0.63548 0.0
H930 H 0.39732 0.39896 0.65531 0.0
H931 H 0.41571 0.40293 0.64765 0.0
C932 C 0.36819 0.43356 0.61548 0.0
C933 C 0.37616 0.44082 0.65872 0.0
C934 C 0.37443 0.4234 0.5787 0.0
C935 C 0.3888 0.42048 0.58383 0.0
C936 C 0.39677 0.42794 0.62646 0.0
H937 H 0.44398 0.39549 0.30143 0.0
H938 H 0.42701 0.40656 0.36807 0.0
C939 C 0.39048 0.43782 0.66417 0.0
C940 C 0.39575 0.41045 0.54186 0.0
H941 H 0.4209 0.38515 0.53656 0.0
C942 C 0.39347 0.41189 0.47924 0.0
C943 C 0.40515 0.40003 0.5626 0.0
C944 C 0.40694 0.39666 0.62899 0.0
C945 C 0.40091 0.40383 0.43697 0.0
C946 C 0.41144 0.39454 0.45763 0.0
C947 C 0.4131 0.39248 0.52029 0.0
C948 C 0.42138 0.38752 0.41549 0.0
C949 C 0.39731 0.40539 0.37069 0.0
C950 C 0.42443 0.37319 0.42135 0.0
C951 C 0.43455 0.36691 0.38444 0.0
C952 C 0.44163 0.3748 0.34036 0.0
C953 C 0.43849 0.38907 0.33416 0.0
C954 C 0.42866 0.3954 0.37197 0.0
H955 H 0.38607 0.40801 0.36475 0.0
H956 H 0.40346 0.41414 0.35112 0.0
H957 H 0.39959 0.3957 0.3448 0.0
H958 H 0.41907 0.36688 0.45488 0.0
H959 H 0.43683 0.35589 0.39034 0.0
H960 H 0.86979 0.54606 0.07196 0.0
H961 H 0.88579 0.56151 0.01803 0.0
H962 H 0.87557 0.59514 0.14037 0.0
H963 H 0.85928 0.57972 0.1945 0.0
H964 H 0.87706 0.60357 0.01882 0.0
H965 H 0.92396 0.57298 0.08353 0.0
H966 H 0.9108 0.56247 0.04767 0.0
H967 H 0.9072 0.57055 0.11968 0.0
C968 C 0.87092 0.55673 0.08759 0.0
C969 C 0.86339 0.56161 0.1381 0.0
C970 C 0.88012 0.56554 0.05676 0.0
C971 C 0.88212 0.57936 0.0761 0.0
C972 C 0.87426 0.58446 0.1251 0.0
H973 H 0.94363 0.63969 0.93649 0.0
H974 H 0.92578 0.62855 1.00021 0.0
C975 C 0.86496 0.57564 0.15591 0.0
C976 C 0.89254 0.58836 0.0451 0.0
H977 H 0.92689 0.5895 1.00293 0.0
C978 C 0.88799 0.60062 0.01602 0.0
C979 C 0.90683 0.58454 0.04197 0.0
C980 C 0.91253 0.572 0.0754 0.0
C981 C 0.89727 0.60879 0.98152 0.0
C982 C 0.91136 0.60457 0.97622 0.0
C983 C 0.91601 0.59261 0.00688 0.0
C984 C 0.92134 0.61198 0.93644 0.0
C985 C 0.89195 0.62162 0.94919 0.0
C986 C 0.92462 0.60634 0.87961 0.0
C987 C 0.93474 0.61265 0.84313 0.0
C988 C 0.94188 0.62466 0.86312 0.0
C989 C 0.93837 0.63043 0.91981 0.0
C990 C 0.92816 0.62413 0.95621 0.0
H991 H 0.88059 0.62332 0.95657 0.0
H992 H 0.89773 0.63097 0.96545 0.0
H993 H 0.89394 0.62064 0.89978 0.0
H994 H 0.91947 0.59693 0.86385 0.0
H995 H 0.93717 0.60792 0.79981 0.0
H996 H 0.94265 0.89507 0.70634 0.0
H997 H 0.92605 0.90617 0.63806 0.0
H998 H 0.91886 0.86662 0.54912 0.0
H999 H 0.93625 0.85559 0.61551 0.0
H1000 H 0.92131 0.88508 0.46823 0.0
H1001 H 0.88507 0.90751 0.63525 0.0
H1002 H 0.90233 0.91363 0.65195 0.0
H1003 H 0.89844 0.89518 0.65686 0.0
C1004 C 0.9374 0.88867 0.67282 0.0
C1005 C 0.94067 0.87443 0.66658 0.0
C1006 C 0.92777 0.89502 0.63405 0.0
C1007 C 0.92082 0.8872 0.58938 0.0
C1008 C 0.92397 0.87289 0.58352 0.0
H1009 H 0.85869 0.93628 0.38467 0.0
H1010 H 0.86875 0.9182 0.4505 0.0
C1011 C 0.93388 0.86658 0.62149 0.0
C1012 C 0.9112 0.89428 0.54598 0.0
H1013 H 0.88595 0.91946 0.53764 0.0
C1014 C 0.91338 0.89238 0.48355 0.0
C1015 C 0.90052 0.90354 0.56532 0.0
C1016 C 0.89636 0.90493 0.63103 0.0
C1017 C 0.90585 0.9001 0.44034 0.0
C1018 C 0.89633 0.91051 0.46001 0.0
C1019 C 0.89348 0.91175 0.52224 0.0
C1020 C 0.88993 0.92078 0.41743 0.0
C1021 C 0.90824 0.89695 0.37411 0.0
C1022 C 0.89844 0.92836 0.37724 0.0
C1023 C 0.89266 0.93841 0.33877 0.0
C1024 C 0.87831 0.94145 0.34093 0.0
C1025 C 0.86978 0.93409 0.38187 0.0
C1026 C 0.87553 0.92378 0.4195 0.0
H1027 H 0.91093 0.88575 0.36742 0.0
H1028 H 0.89889 0.89942 0.34625 0.0
H1029 H 0.91722 0.90322 0.35743 0.0
H1030 H 0.90964 0.92674 0.37638 0.0
H1031 H 0.89956 0.94409 0.30858 0.0
H1032 H 0.64409 0.93697 0.12646 0.0
H1033 H 0.63267 0.92013 0.0587 0.0
H1034 H 0.59278 0.92985 0.14011 0.0
H1035 H 0.60423 0.94589 0.2099 0.0
H1036 H 0.59397 0.90353 0.12236 0.0
H1037 H 0.61152 0.92925 0.91014 0.0
H1038 H 0.62572 0.92311 0.95608 0.0
H1039 H 0.61453 0.93686 0.98363 0.0
C1040 C 0.6329 0.93539 0.12998 0.0
C1041 C 0.62505 0.94272 0.17343 0.0
C1042 C 0.62636 0.92588 0.09087 0.0
C1043 C 0.61178 0.92391 0.0932 0.0
C1044 C 0.60402 0.93113 0.13725 0.0
H1045 H 0.55566 0.8983 0.81376 0.0
H1046 H 0.57208 0.90967 0.88235 0.0
C1047 C 0.61059 0.94033 0.1772 0.0
C1048 C 0.6044 0.91449 0.05002 0.0
H1049 H 0.59842 0.90853 0.8996 0.0
C1050 C 0.59495 0.90462 0.0736 0.0
C1051 C 0.60559 0.91596 0.98632 0.0
C1052 C 0.61477 0.92695 0.95748 0.0
C1053 C 0.58629 0.89662 0.03569 0.0
C1054 C 0.5876 0.89796 0.97197 0.0
C1055 C 0.59744 0.90743 0.94836 0.0
C1056 C 0.57808 0.89064 0.92898 0.0
C1057 C 0.57531 0.88744 0.0647 0.0
C1058 C 0.57605 0.87608 0.93142 0.0
C1059 C 0.56632 0.8696 0.89316 0.0
C1060 C 0.55885 0.87749 0.85032 0.0
C1061 C 0.56134 0.89193 0.84609 0.0
C1062 C 0.57075 0.89844 0.88532 0.0
H1063 H 0.5731 0.89065 0.11215 0.0
H1064 H 0.56535 0.88775 0.03885 0.0
H1065 H 0.57912 0.87649 0.06587 0.0
H1066 H 0.5819 0.86973 0.96317 0.0
H1067 H 0.56469 0.85842 0.8969 0.0
H1068 H 0.64081 0.56478 0.39426 0.0
H1069 H 0.62922 0.58174 0.46079 0.0
H1070 H 0.58989 0.57337 0.37167 0.0
H1071 H 0.60157 0.5572 0.30303 0.0
H1072 H 0.59152 0.5996 0.39267 0.0
H1073 H 0.60662 0.57218 0.60458 0.0
H1074 H 0.62134 0.57822 0.56172 0.0
H1075 H 0.61006 0.56493 0.53077 0.0
C1076 C 0.62971 0.56669 0.38873 0.0
C1077 C 0.62208 0.55968 0.3436 0.0
C1078 C 0.62306 0.57627 0.42712 0.0
C1079 C 0.60858 0.57861 0.42241 0.0
C1080 C 0.60106 0.57178 0.37642 0.0
H1081 H 0.55085 0.60377 0.69549 0.0
H1082 H 0.5674 0.59248 0.62739 0.0
C1083 C 0.60775 0.56251 0.33714 0.0
C1084 C 0.60105 0.58795 0.46535 0.0
H1085 H 0.59397 0.59317 0.61535 0.0
C1086 C 0.59206 0.5982 0.44141 0.0
C1087 C 0.60168 0.58608 0.52902 0.0
C1088 C 0.61033 0.57468 0.55808 0.0
C1089 C 0.58331 0.60621 0.47885 0.0
C1090 C 0.58404 0.60445 0.54254 0.0
C1091 C 0.59344 0.59459 0.56661 0.0
C1092 C 0.57432 0.6117 0.58483 0.0
C1093 C 0.57284 0.61589 0.44928 0.0
C1094 C 0.57274 0.62632 0.58438 0.0
C1095 C 0.56295 0.63279 0.62238 0.0
C1096 C 0.55494 0.62477 0.66293 0.0
C1097 C 0.55693 0.61023 0.66497 0.0
C1098 C 0.56642 0.60376 0.62603 0.0
H1099 H 0.571 0.61309 0.40104 0.0
H1100 H 0.56265 0.61565 0.47333 0.0
H1101 H 0.57693 0.62674 0.45041 0.0
H1102 H 0.57901 0.63275 0.55451 0.0
H1103 H 0.5617 0.64404 0.62037 0.0
H1104 H 0.01363 0.30222 0.30007 0.0
H1105 H 0.02115 0.27805 0.30812 0.0
H1106 H 0.05863 0.28768 0.20773 0.0
H1107 H 0.051 0.31217 0.19861 0.0
H1108 H 0.0454 0.2645 0.16441 0.0
H1109 H 0.05054 0.2595 0.41218 0.0
H1110 H 0.03395 0.26707 0.39341 0.0
H1111 H 0.04982 0.27629 0.37472 0.0
C1112 C 0.02355 0.29931 0.28007 0.0
C1113 C 0.03171 0.30915 0.24863 0.0
C1114 C 0.02792 0.28546 0.28534 0.0
C1115 C 0.04061 0.2811 0.25982 0.0
C1116 C 0.04888 0.29088 0.22849 0.0
H1117 H 0.05171 0.1904 0.32325 0.0
H1118 H 0.05875 0.21512 0.31754 0.0
C1119 C 0.0445 0.30484 0.22324 0.0
C1120 C 0.04436 0.26604 0.26176 0.0
H1121 H 0.04429 0.23807 0.35798 0.0
C1122 C 0.04554 0.25875 0.20681 0.0
C1123 C 0.04489 0.25851 0.317 0.0
C1124 C 0.0449 0.2658 0.37761 0.0
C1125 C 0.04587 0.24407 0.20555 0.0
C1126 C 0.0447 0.23653 0.26055 0.0
C1127 C 0.04491 0.24383 0.3157 0.0
C1128 C 0.04127 0.22139 0.26138 0.0
C1129 C 0.0469 0.2368 0.14508 0.0
C1130 C 0.02904 0.21678 0.23256 0.0
C1131 C 0.02501 0.20281 0.23589 0.0
C1132 C 0.03304 0.19307 0.2686 0.0
C1133 C 0.04533 0.19765 0.29756 0.0
C1134 C 0.04937 0.21174 0.29426 0.0
H1135 H 0.05284 0.24324 0.11202 0.0
H1136 H 0.05205 0.22643 0.14933 0.0
H1137 H 0.03623 0.23523 0.12647 0.0
H1138 H 0.02239 0.22408 0.20847 0.0
H1139 H 0.01545 0.1997 0.21322 0.0
H1140 H 0.31092 0.05012 0.782 0.0
H1141 H 0.2863 0.0573 0.77099 0.0
H1142 H 0.27305 0.01574 0.82045 0.0
H1143 H 0.29742 0.00847 0.83036 0.0
H1144 H 0.26662 0.04113 0.68629 0.0
H1145 H 0.24869 0.04439 0.92506 0.0
H1146 H 0.26674 0.04691 0.90312 0.0
H1147 H 0.25961 0.02957 0.90818 0.0
C1148 C 0.30272 0.04262 0.79159 0.0
C1149 C 0.30604 0.02873 0.80691 0.0
C1150 C 0.28871 0.04672 0.78514 0.0
C1151 C 0.27791 0.03706 0.79543 0.0
C1152 C 0.28124 0.02338 0.813 0.0
H1153 H 0.20034 0.00874 0.70085 0.0
H1154 H 0.22468 0.01601 0.71216 0.0
C1155 C 0.29516 0.01923 0.81838 0.0
C1156 C 0.26313 0.04058 0.78268 0.0
H1157 H 0.23098 0.04038 0.84965 0.0
C1158 C 0.25883 0.04139 0.72198 0.0
C1159 C 0.25303 0.04095 0.82934 0.0
C1160 C 0.25721 0.04053 0.8952 0.0
C1161 C 0.24457 0.04141 0.70666 0.0
C1162 C 0.23447 0.04061 0.75323 0.0
C1163 C 0.23877 0.04097 0.81402 0.0
C1164 C 0.21972 0.03712 0.73996 0.0
C1165 C 0.24039 0.04148 0.64077 0.0
C1166 C 0.20888 0.04666 0.75138 0.0
C1167 C 0.19489 0.04257 0.74414 0.0
C1168 C 0.19162 0.02879 0.72687 0.0
C1169 C 0.20254 0.01941 0.71434 0.0
C1170 C 0.21645 0.02356 0.72052 0.0
H1171 H 0.24889 0.04559 0.61146 0.0
H1172 H 0.23803 0.03061 0.62628 0.0
H1173 H 0.23083 0.04788 0.63375 0.0
H1174 H 0.21123 0.05714 0.76695 0.0
H1175 H 0.18665 0.04997 0.75457 0.0
H1176 H 0.44964 0.31133 0.26813 0.0
H1177 H 0.44239 0.28675 0.25627 0.0
H1178 H 0.48403 0.27329 0.3035 0.0
H1179 H 0.49136 0.29762 0.31425 0.0
H1180 H 0.45833 0.26722 0.17013 0.0
H1181 H 0.45555 0.24879 0.40837 0.0
H1182 H 0.45302 0.26689 0.38718 0.0
H1183 H 0.47036 0.2597 0.3913 0.0
C1184 C 0.45714 0.30309 0.27704 0.0
C1185 C 0.47106 0.30634 0.292 0.0
C1186 C 0.45301 0.2891 0.2701 0.0
C1187 C 0.46267 0.27826 0.27952 0.0
C1188 C 0.47639 0.28152 0.29671 0.0
H1189 H 0.49055 0.2009 0.17907 0.0
H1190 H 0.4832 0.22521 0.19036 0.0
C1191 C 0.48057 0.29542 0.30257 0.0
C1192 C 0.45909 0.26352 0.26637 0.0
H1193 H 0.45939 0.23123 0.3322 0.0
C1194 C 0.45814 0.25935 0.20555 0.0
C1195 C 0.4588 0.25332 0.31268 0.0
C1196 C 0.45937 0.25736 0.37867 0.0
C1197 C 0.45807 0.24513 0.18972 0.0
C1198 C 0.45896 0.23492 0.2359 0.0
C1199 C 0.45873 0.2391 0.29686 0.0
C1200 C 0.4624 0.22018 0.22203 0.0
C1201 C 0.45779 0.2411 0.12368 0.0
C1202 C 0.45305 0.20929 0.2356 0.0
C1203 C 0.45719 0.19532 0.22842 0.0
C1204 C 0.47083 0.19211 0.20903 0.0
C1205 C 0.47999 0.20306 0.19416 0.0
C1206 C 0.47579 0.21695 0.20031 0.0
H1207 H 0.4534 0.2496 0.09511 0.0
H1208 H 0.46864 0.239 0.10821 0.0
H1209 H 0.45154 0.23144 0.11669 0.0
H1210 H 0.44272 0.21161 0.25299 0.0
H1211 H 0.44997 0.18706 0.24071 0.0
H1212 H 0.31236 0.4486 0.73197 0.0
H1213 H 0.28781 0.44127 0.74332 0.0
H1214 H 0.27421 0.48192 0.68252 0.0
H1215 H 0.29851 0.48934 0.67215 0.0
H1216 H 0.26804 0.45756 0.82286 0.0
H1217 H 0.24999 0.45247 0.58498 0.0
H1218 H 0.26813 0.45059 0.60686 0.0
H1219 H 0.26053 0.46769 0.59927 0.0
C1220 C 0.3041 0.45584 0.71989 0.0
C1221 C 0.30731 0.46954 0.70128 0.0
C1222 C 0.29012 0.45166 0.72654 0.0
C1223 C 0.27924 0.46103 0.71319 0.0
C1224 C 0.28247 0.47449 0.69227 0.0
H1225 H 0.20161 0.48939 0.80795 0.0
H1226 H 0.22596 0.48214 0.79729 0.0
C1227 C 0.29635 0.47873 0.68666 0.0
C1228 C 0.26448 0.45753 0.72646 0.0
H1229 H 0.23227 0.45716 0.65985 0.0
C1230 C 0.26022 0.45706 0.78728 0.0
C1231 C 0.25433 0.45681 0.67998 0.0
C1232 C 0.25845 0.45679 0.61402 0.0
C1233 C 0.24598 0.45706 0.80276 0.0
C1234 C 0.23583 0.45755 0.75623 0.0
C1235 C 0.24009 0.45683 0.69546 0.0
C1236 C 0.22106 0.46103 0.76926 0.0
C1237 C 0.24186 0.45732 0.8687 0.0
C1238 C 0.21024 0.45149 0.75744 0.0
C1239 C 0.19624 0.45557 0.76425 0.0
C1240 C 0.19294 0.46934 0.78151 0.0
C1241 C 0.20383 0.47872 0.79448 0.0
C1242 C 0.21775 0.47458 0.78869 0.0
H1243 H 0.25036 0.45323 0.89817 0.0
H1244 H 0.23966 0.46827 0.88239 0.0
H1245 H 0.23224 0.45106 0.87643 0.0
H1246 H 0.21262 0.44102 0.74184 0.0
H1247 H 0.18802 0.44818 0.75349 0.0
H1248 H 0.98996 0.79715 0.69026 0.0
H1249 H 0.98315 0.77283 0.70634 0.0
H1250 H 0.94248 0.78618 0.76767 0.0
H1251 H 0.94919 0.81074 0.75059 0.0
H1252 H 0.95942 0.76776 0.84998 0.0
H1253 H 0.95403 0.74681 0.61682 0.0
H1254 H 0.96909 0.75778 0.62779 0.0
H1255 H 0.95187 0.76515 0.63463 0.0
C1256 C 0.97946 0.79492 0.70604 0.0
C1257 C 0.9701 0.80581 0.71917 0.0
C1258 C 0.97557 0.78102 0.71494 0.0
C1259 C 0.96229 0.77772 0.73772 0.0
C1260 C 0.95274 0.78854 0.74951 0.0
H1261 H 0.95136 0.68688 0.79354 0.0
H1262 H 0.94385 0.71123 0.77812 0.0
C1263 C 0.95656 0.80252 0.73956 0.0
C1264 C 0.95921 0.76306 0.75451 0.0
H1265 H 0.9593 0.73011 0.6953 0.0
C1266 C 0.959 0.75952 0.81624 0.0
C1267 C 0.95858 0.75236 0.71044 0.0
C1268 C 0.95827 0.75569 0.64363 0.0
C1269 C 0.95932 0.74548 0.83494 0.0
C1270 C 0.95988 0.7348 0.79075 0.0
C1271 C 0.95893 0.73833 0.72912 0.0
C1272 C 0.96351 0.72022 0.8069 0.0
C1273 C 0.95975 0.74217 0.90174 0.0
C1274 C 0.97699 0.71728 0.82851 0.0
C1275 C 0.98134 0.70348 0.83655 0.0
C1276 C 0.97225 0.69234 0.82362 0.0
C1277 C 0.95853 0.69528 0.80439 0.0
C1278 C 0.95425 0.70915 0.79539 0.0
H1279 H 0.95536 0.75087 0.9292 0.0
H1280 H 0.95384 0.73245 0.91182 0.0
H1281 H 0.97077 0.74056 0.91582 0.0
H1282 H 0.98436 0.72567 0.8368 0.0
H1283 H 0.99196 0.70153 0.85142 0.0
H1284 H 0.81305 0.9506 0.31057 0.0
H1285 H 0.78824 0.94388 0.30547 0.0
H1286 H 0.77949 0.98064 0.19865 0.0
H1287 H 0.80398 0.98727 0.2028 0.0
H1288 H 0.76573 0.95854 0.34806 0.0
H1289 H 0.7595 0.95081 0.10195 0.0
H1290 H 0.77645 0.95131 0.13806 0.0
H1291 H 0.76771 0.9673 0.11699 0.0
C1292 C 0.80584 0.95714 0.28546 0.0
C1293 C 0.8105 0.96946 0.25704 0.0
C1294 C 0.79169 0.95328 0.2825 0.0
C1295 C 0.78206 0.9616 0.2505 0.0
C1296 C 0.78676 0.97384 0.22206 0.0
H1297 H 0.70093 0.98882 0.29777 0.0
H1298 H 0.72535 0.98191 0.30089 0.0
C1299 C 0.8008 0.97769 0.22506 0.0
C1300 C 0.76687 0.95838 0.25052 0.0
H1301 H 0.73849 0.95802 0.15657 0.0
C1302 C 0.75979 0.95806 0.3062 0.0
C1303 C 0.75909 0.95744 0.19604 0.0
C1304 C 0.76612 0.95657 0.13495 0.0
C1305 C 0.74512 0.95811 0.30865 0.0
C1306 C 0.73737 0.95877 0.25405 0.0
C1307 C 0.74442 0.95778 0.19847 0.0
C1308 C 0.72226 0.96233 0.25366 0.0
C1309 C 0.73808 0.95799 0.36982 0.0
C1310 C 0.71237 0.95381 0.22436 0.0
C1311 C 0.69826 0.95781 0.22205 0.0
C1312 C 0.69389 0.97047 0.2484 0.0
C1313 C 0.70387 0.97897 0.27724 0.0
C1314 C 0.71787 0.97497 0.27961 0.0
H1315 H 0.74461 0.95248 0.40399 0.0
H1316 H 0.73664 0.96891 0.38559 0.0
H1317 H 0.72767 0.95286 0.36768 0.0
H1318 H 0.71558 0.94409 0.20332 0.0
H1319 H 0.69082 0.95106 0.19936 0.0
H1320 H 0.5106 0.79964 0.83107 0.0
H1321 H 0.51786 0.77533 0.81922 0.0
H1322 H 0.55863 0.78884 0.75989 0.0
H1323 H 0.55146 0.81341 0.77269 0.0
H1324 H 0.5427 0.7696 0.67888 0.0
H1325 H 0.54659 0.75035 0.91525 0.0
H1326 H 0.53142 0.76096 0.90115 0.0
H1327 H 0.54854 0.7686 0.89535 0.0
C1328 C 0.52121 0.79745 0.81659 0.0
C1329 C 0.53047 0.80839 0.80277 0.0
C1330 C 0.52536 0.78356 0.81016 0.0
C1331 C 0.53881 0.78031 0.78923 0.0
C1332 C 0.54825 0.79118 0.77669 0.0
H1333 H 0.54927 0.68896 0.74626 0.0
H1334 H 0.55722 0.71325 0.75975 0.0
C1335 C 0.54416 0.80516 0.78416 0.0
C1336 C 0.54219 0.76557 0.77492 0.0
H1337 H 0.54163 0.73305 0.83855 0.0
C1338 C 0.54289 0.7616 0.71377 0.0
C1339 C 0.54252 0.75519 0.82049 0.0
C1340 C 0.54236 0.75896 0.88683 0.0
C1341 C 0.54268 0.74744 0.69697 0.0
C1342 C 0.54173 0.73708 0.74248 0.0
C1343 C 0.54228 0.74103 0.80369 0.0
C1344 C 0.53791 0.72247 0.72784 0.0
C1345 C 0.54271 0.74367 0.63062 0.0
C1346 C 0.52449 0.71968 0.70525 0.0
C1347 C 0.5199 0.70594 0.69839 0.0
C1348 C 0.52867 0.69469 0.71349 0.0
C1349 C 0.54234 0.69745 0.73381 0.0
C1350 C 0.54687 0.71128 0.74166 0.0
H1351 H 0.54742 0.75211 0.60267 0.0
H1352 H 0.54855 0.7338 0.62269 0.0
H1353 H 0.53177 0.74212 0.61518 0.0
H1354 H 0.51735 0.72817 0.69518 0.0
H1355 H 0.50932 0.70412 0.68257 0.0
H1356 H 0.79859 0.50883 0.27343 0.0
H1357 H 0.77474 0.51643 0.29207 0.0
H1358 H 0.78504 0.55789 0.22943 0.0
H1359 H 0.80923 0.55028 0.20989 0.0
H1360 H 0.76528 0.53866 0.3691 0.0
H1361 H 0.75035 0.54612 0.12667 0.0
H1362 H 0.76566 0.5362 0.14789 0.0
H1363 H 0.76567 0.55488 0.1551 0.0
C1364 C 0.79587 0.51959 0.26345 0.0
C1365 C 0.80582 0.52894 0.23985 0.0
C1366 C 0.78221 0.52392 0.2744 0.0
C1367 C 0.7781 0.53769 0.26192 0.0
C1368 C 0.78798 0.54717 0.23882 0.0
H1369 H 0.68659 0.55212 0.28388 0.0
H1370 H 0.71137 0.55919 0.28078 0.0
C1371 C 0.80177 0.54282 0.22783 0.0
C1372 C 0.76333 0.54166 0.27269 0.0
H1373 H 0.73225 0.54547 0.19822 0.0
C1374 C 0.75809 0.54053 0.33193 0.0
C1375 C 0.75398 0.54417 0.22418 0.0
C1376 C 0.75909 0.54539 0.15971 0.0
C1377 C 0.74367 0.54079 0.34334 0.0
C1378 C 0.73428 0.5421 0.29424 0.0
C1379 C 0.73952 0.54445 0.23571 0.0
C1380 C 0.7193 0.53852 0.30104 0.0
C1381 C 0.73853 0.53885 0.40742 0.0
C1382 C 0.71565 0.52461 0.3134 0.0
C1383 C 0.70166 0.52055 0.31442 0.0
C1384 C 0.691 0.53034 0.30353 0.0
C1385 C 0.69461 0.54439 0.29288 0.0
C1386 C 0.70872 0.54843 0.29094 0.0
H1387 H 0.74656 0.5421 0.44098 0.0
H1388 H 0.7288 0.54492 0.41545 0.0
H1389 H 0.73618 0.52762 0.41512 0.0
H1390 H 0.72367 0.51678 0.32049 0.0
H1391 H 0.6992 0.50967 0.32286 0.0
H1392 H 0.9978 0.35835 0.95852 0.0
H1393 H 0.0014 0.3591 0.84887 0.0
H1394 H 0.03694 0.33159 0.86755 0.0
H1395 H 0.03377 0.3316 0.97809 0.0
H1396 H 0.04312 0.34996 0.78971 0.0
H1397 H 0.99051 0.3315 0.7261 0.0
H1398 H 0.98916 0.34715 0.77016 0.0
H1399 H 0.99643 0.33153 0.80365 0.0
C1400 C 0.00633 0.35243 0.93901 0.0
C1401 C 0.01543 0.3448 0.97651 0.0
C1402 C 0.00832 0.35274 0.87622 0.0
C1403 C 0.01917 0.34503 0.84916 0.0
C1404 C 0.02841 0.33754 0.88692 0.0
H1405 H 0.02004 0.33321 0.45363 0.0
H1406 H 0.01693 0.3301 0.56342 0.0
C1407 C 0.02662 0.33754 0.95003 0.0
C1408 C 0.02116 0.34521 0.78192 0.0
H1409 H 0.00372 0.34265 0.647 0.0
C1410 C 0.03451 0.3482 0.75862 0.0
C1411 C 0.01008 0.34258 0.74069 0.0
C1412 C 0.9958 0.33785 0.76151 0.0
C1413 C 0.03698 0.34902 0.69588 0.0
C1414 C 0.02565 0.34751 0.65486 0.0
C1415 C 0.0124 0.3441 0.67806 0.0
C1416 C 0.02729 0.34946 0.58798 0.0
C1417 C 0.05183 0.35117 0.67461 0.0
C1418 C 0.03381 0.36149 0.56467 0.0
C1419 C 0.03586 0.36306 0.50229 0.0
C1420 C 0.03098 0.35291 0.46156 0.0
C1421 C 0.02384 0.3412 0.48426 0.0
C1422 C 0.02211 0.33943 0.54695 0.0
H1423 H 0.05946 0.34703 0.70814 0.0
H1424 H 0.05376 0.34596 0.63043 0.0
H1425 H 0.05388 0.36253 0.66962 0.0
H1426 H 0.03737 0.3697 0.59471 0.0
H1427 H 0.04122 0.37227 0.4856 0.0
H1428 H 0.13966 0.05324 0.99522 0.0
H1429 H 0.13983 0.04959 0.1049 0.0
H1430 H 0.15451 0.00739 0.07849 0.0
H1431 H 0.15425 0.01095 0.96853 0.0
H1432 H 0.13378 0.00892 0.16382 0.0
H1433 H 0.17431 0.04893 0.21134 0.0
H1434 H 0.15949 0.05569 0.17091 0.0
H1435 H 0.17056 0.04284 0.13567 0.0
C1436 C 0.143 0.04321 0.01277 0.0
C1437 C 0.14705 0.03243 0.97312 0.0
C1438 C 0.14313 0.04115 0.0755 0.0
C1439 C 0.14749 0.02833 0.10003 0.0
C1440 C 0.15119 0.01741 0.06058 0.0
H1441 H 0.161 0.99556 0.4617 0.0
H1442 H 0.15964 0.99948 0.35263 0.0
C1443 C 0.15097 0.01943 0.99772 0.0
C1444 C 0.1481 0.02628 0.16678 0.0
H1445 H 0.16275 0.03913 0.29674 0.0
C1446 C 0.14016 0.01548 0.19283 0.0
C1447 C 0.15645 0.03485 0.20467 0.0
C1448 C 0.16579 0.04614 0.17926 0.0
C1449 C 0.14018 0.01316 0.25573 0.0
C1450 C 0.14846 0.02178 0.2935 0.0
C1451 C 0.15636 0.0326 0.26761 0.0
C1452 C 0.1493 0.01951 0.3599 0.0
C1453 C 0.1312 0.00163 0.28149 0.0
C1454 C 0.1442 0.02963 0.4003 0.0
C1455 C 0.14487 0.02739 0.46298 0.0
C1456 C 0.15076 0.01502 0.48648 0.0
C1457 C 0.15612 0.00506 0.44557 0.0
C1458 C 0.15539 0.00729 0.38303 0.0
H1459 H 0.12316 0.99806 0.2486 0.0
H1460 H 0.13792 0.99256 0.29312 0.0
H1461 H 0.12589 0.00514 0.32359 0.0
H1462 H 0.13952 0.03917 0.38327 0.0
H1463 H 0.14052 0.03524 0.49278 0.0
H1464 H 0.46459 0.15951 0.97917 0.0
H1465 H 0.46055 0.15892 0.86937 0.0
H1466 H 0.50068 0.1393 0.84337 0.0
H1467 H 0.50472 0.13967 0.95279 0.0
H1468 H 0.47878 0.17145 0.77727 0.0
H1469 H 0.47245 0.11403 0.74925 0.0
H1470 H 0.4704 0.12267 0.82153 0.0
H1471 H 0.48756 0.11956 0.79145 0.0
C1472 C 0.47248 0.15492 0.95014 0.0
C1473 C 0.48499 0.14965 0.97478 0.0
C1474 C 0.47018 0.15466 0.88745 0.0
C1475 C 0.48026 0.14895 0.84838 0.0
C1476 C 0.4927 0.14361 0.8728 0.0
H1477 H 0.48607 0.13711 0.45778 0.0
H1478 H 0.4902 0.13738 0.56725 0.0
C1479 C 0.49505 0.14396 0.93532 0.0
C1480 C 0.47801 0.149 0.78187 0.0
H1481 H 0.47372 0.12755 0.65952 0.0
C1482 C 0.4776 0.16187 0.75146 0.0
C1483 C 0.47662 0.13647 0.74841 0.0
C1484 C 0.47666 0.12237 0.77917 0.0
C1485 C 0.47602 0.16256 0.68821 0.0
C1486 C 0.47447 0.15003 0.65467 0.0
C1487 C 0.47492 0.13714 0.6852 0.0
C1488 C 0.4721 0.15008 0.58807 0.0
C1489 C 0.47639 0.1767 0.65782 0.0
C1490 C 0.46049 0.157 0.56337 0.0
C1491 C 0.45819 0.15701 0.50082 0.0
C1492 C 0.46736 0.14993 0.46139 0.0
C1493 C 0.47891 0.14285 0.48643 0.0
C1494 C 0.48123 0.1429 0.54913 0.0
H1495 H 0.48177 0.1846 0.68644 0.0
H1496 H 0.48177 0.17617 0.61329 0.0
H1497 H 0.46552 0.18037 0.65016 0.0
H1498 H 0.45312 0.16235 0.59255 0.0
H1499 H 0.44926 0.16269 0.48355 0.0
H1500 H 0.33754 0.44816 0.97695 0.0
H1501 H 0.33818 0.45217 0.08603 0.0
H1502 H 0.36315 0.48913 0.05843 0.0
H1503 H 0.36288 0.48506 0.94894 0.0
H1504 H 0.36285 0.45475 0.16308 0.0
H1505 H 0.32922 0.50222 0.16368 0.0
H1506 H 0.32968 0.49017 0.1007 0.0
H1507 H 0.34372 0.50235 0.11176 0.0
C1508 C 0.34331 0.45708 0.99374 0.0
C1509 C 0.35016 0.46628 0.95367 0.0
C1510 C 0.34358 0.45939 0.05628 0.0
C1511 C 0.3506 0.471 0.08022 0.0
C1512 C 0.3575 0.48021 0.04072 0.0
H1513 H 0.35944 0.5038 0.44507 0.0
H1514 H 0.36031 0.49963 0.33591 0.0
C1515 C 0.35729 0.47788 0.97806 0.0
C1516 C 0.35077 0.47336 0.14665 0.0
H1517 H 0.33908 0.49541 0.25721 0.0
C1518 C 0.35765 0.46362 0.18381 0.0
C1519 C 0.34401 0.48496 0.17336 0.0
C1520 C 0.33613 0.4955 0.13557 0.0
C1521 C 0.35812 0.46529 0.24708 0.0
C1522 C 0.35121 0.47682 0.27397 0.0
C1523 C 0.34436 0.48657 0.23663 0.0
C1524 C 0.35098 0.47905 0.34066 0.0
C1525 C 0.36629 0.45485 0.28428 0.0
C1526 C 0.34537 0.4689 0.37981 0.0
C1527 C 0.3449 0.47125 0.44243 0.0
C1528 C 0.34984 0.48389 0.46703 0.0
C1529 C 0.35539 0.49404 0.42761 0.0
C1530 C 0.35595 0.49164 0.36517 0.0
H1531 H 0.37415 0.44922 0.25633 0.0
H1532 H 0.37177 0.46005 0.32252 0.0
H1533 H 0.35899 0.44697 0.30327 0.0
H1534 H 0.34113 0.45925 0.36189 0.0
H1535 H 0.34037 0.46332 0.47139 0.0
H1536 H 0.03975 0.15135 0.5329 0.0
H1537 H 0.04291 0.14871 0.64213 0.0
H1538 H 0.99837 0.15211 0.66827 0.0
H1539 H 0.99502 0.15415 0.55911 0.0
H1540 H 0.03625 0.16713 0.73168 0.0
H1541 H 0.00724 0.11759 0.76704 0.0
H1542 H 0.01225 0.1237 0.69273 0.0
H1543 H 0.99709 0.13083 0.7298 0.0
C1544 C 0.03058 0.15129 0.56156 0.0
C1545 C 0.01711 0.15293 0.53667 0.0
C1546 C 0.03242 0.14988 0.62421 0.0
C1547 C 0.02086 0.15 0.66343 0.0
C1548 C 0.00743 0.15168 0.63891 0.0
H1549 H 0.01208 0.15207 0.05651 0.0
H1550 H 0.00799 0.15219 0.94695 0.0
C1551 C 0.00556 0.15305 0.57629 0.0
C1552 C 0.02293 0.14898 0.73012 0.0
H1553 H 0.01377 0.13016 0.85589 0.0
C1554 C 0.03141 0.15899 0.75873 0.0
C1555 C 0.01656 0.13838 0.76551 0.0
C1556 C 0.00788 0.12693 0.7372 0.0
C1557 C 0.03354 0.1588 0.82172 0.0
C1558 C 0.02713 0.14825 0.85703 0.0
C1559 C 0.01862 0.13826 0.82864 0.0
C1560 C 0.0294 0.14733 0.92343 0.0
C1561 C 0.04245 0.17004 0.85025 0.0
C1562 C 0.0427 0.1442 0.94646 0.0
C1563 C 0.04505 0.14399 0.00897 0.0
C1564 C 0.03416 0.14694 0.04995 0.0
C1565 C 0.02071 0.14965 0.02661 0.0
C1566 C 0.01836 0.1498 0.96391 0.0
H1567 H 0.04408 0.17904 0.81918 0.0
H1568 H 0.0376 0.17391 0.89279 0.0
H1569 H 0.05284 0.1656 0.86179 0.0
H1570 H 0.0513 0.14201 0.91597 0.0
H1571 H 0.05545 0.14156 0.02513 0.0
H1572 H 0.34564 0.03723 0.0403 0.0
H1573 H 0.34746 0.04125 0.14926 0.0
H1574 H 0.35384 0.99713 0.17843 0.0
H1575 H 0.35275 0.99307 0.0697 0.0
H1576 H 0.33107 0.03137 0.2393 0.0
H1577 H 0.38546 0.0133 0.27638 0.0
H1578 H 0.37846 0.01654 0.20171 0.0
H1579 H 0.37476 0.00036 0.24022 0.0
C1580 C 0.34768 0.02839 0.06954 0.0
C1581 C 0.34908 0.01481 0.0456 0.0
C1582 C 0.34862 0.03071 0.13205 0.0
C1583 C 0.35102 0.01953 0.17203 0.0
C1584 C 0.35232 0.00598 0.14846 0.0
H1585 H 0.34871 0.00994 0.56327 0.0
H1586 H 0.3495 0.00632 0.4536 0.0
C1587 C 0.35147 0.00365 0.08603 0.0
C1588 C 0.35154 0.02195 0.23854 0.0
H1589 H 0.37155 0.01671 0.36506 0.0
C1590 C 0.33997 0.02826 0.26667 0.0
C1591 C 0.36316 0.01789 0.27433 0.0
C1592 C 0.37622 0.01177 0.24657 0.0
C1593 C 0.33961 0.03038 0.32963 0.0
C1594 C 0.35112 0.02613 0.36533 0.0
C1595 C 0.36271 0.01987 0.33742 0.0
C1596 C 0.35134 0.02828 0.43179 0.0
C1597 C 0.32681 0.03692 0.35783 0.0
C1598 C 0.35241 0.0418 0.45572 0.0
C1599 C 0.35213 0.04392 0.51837 0.0
C1600 C 0.3507 0.03254 0.55851 0.0
C1601 C 0.34994 0.01895 0.53414 0.0
C1602 C 0.35031 0.01685 0.47136 0.0
H1603 H 0.31787 0.03734 0.32572 0.0
H1604 H 0.32358 0.031 0.39884 0.0
H1605 H 0.32932 0.04777 0.37207 0.0
H1606 H 0.35342 0.05074 0.42584 0.0
H1607 H 0.35305 0.0545 0.53523 0.0
H1608 H 0.50701 0.35123 0.55768 0.0
H1609 H 0.5029 0.35194 0.66645 0.0
H1610 H 0.45857 0.34774 0.63599 0.0
H1611 H 0.46259 0.34626 0.52713 0.0
H1612 H 0.48828 0.37006 0.73497 0.0
H1613 H 0.46532 0.31706 0.75772 0.0
H1614 H 0.47401 0.3228 0.68954 0.0
H1615 H 0.45621 0.32788 0.70428 0.0
C1616 C 0.49638 0.35021 0.57373 0.0
C1617 C 0.48517 0.3485 0.53294 0.0
C1618 C 0.49405 0.35076 0.63621 0.0
C1619 C 0.48046 0.34963 0.65956 0.0
C1620 C 0.46919 0.34829 0.61917 0.0
H1621 H 0.44574 0.35384 0.02206 0.0
H1622 H 0.44966 0.35415 0.91277 0.0
C1623 C 0.47152 0.34762 0.55661 0.0
C1624 C 0.47813 0.35005 0.72613 0.0
H1625 H 0.46412 0.33173 0.84448 0.0
C1626 C 0.48305 0.36165 0.75893 0.0
C1627 C 0.47135 0.33904 0.75746 0.0
C1628 C 0.46654 0.32593 0.72559 0.0
C1629 C 0.4812 0.36262 0.82196 0.0
C1630 C 0.4743 0.35169 0.85296 0.0
C1631 C 0.46936 0.34011 0.82035 0.0
C1632 C 0.47211 0.35203 0.91939 0.0
C1633 C 0.48643 0.3754 0.85497 0.0
C1634 C 0.48346 0.35071 0.9593 0.0
C1635 C 0.48125 0.35035 0.022 0.0
C1636 C 0.46763 0.3513 0.04598 0.0
C1637 C 0.45634 0.35284 1.00551 0.0
C1638 C 0.45855 0.35311 0.94292 0.0
H1639 H 0.48922 0.38399 0.82329 0.0
H1640 H 0.47842 0.37926 0.8873 0.0
H1641 H 0.4959 0.3726 0.88144 0.0
H1642 H 0.494 0.34967 0.94188 0.0
H1643 H 0.4902 0.34895 0.05136 0.0
H1644 H 0.1418 0.46251 0.01282 0.0
H1645 H 0.14089 0.4585 0.1223 0.0
H1646 H 0.1603 0.49852 0.1534 0.0
H1647 H 0.16158 0.50253 0.04438 0.0
H1648 H 0.16427 0.45902 0.20898 0.0
H1649 H 0.12368 0.49911 0.25714 0.0
H1650 H 0.12653 0.49205 0.1822 0.0
H1651 H 0.13827 0.50494 0.21241 0.0
C1652 C 0.14602 0.47042 0.04272 0.0
C1653 C 0.15168 0.48291 0.01936 0.0
C1654 C 0.1454 0.46813 0.10537 0.0
C1655 C 0.15032 0.47831 0.14587 0.0
C1656 C 0.15618 0.49065 0.12289 0.0
H1657 H 0.15523 0.48713 0.53695 0.0
H1658 H 0.15533 0.49063 0.42694 0.0
C1659 C 0.15687 0.49293 0.06039 0.0
C1660 C 0.14954 0.476 0.21224 0.0
H1661 H 0.13459 0.48852 0.3419 0.0
C1662 C 0.15773 0.4654 0.23811 0.0
C1663 C 0.14106 0.48441 0.24999 0.0
C1664 C 0.13178 0.49571 0.22421 0.0
C1665 C 0.1579 0.46316 0.30107 0.0
C1666 C 0.14935 0.47153 0.33895 0.0
C1667 C 0.14112 0.48211 0.3129 0.0
C1668 C 0.14885 0.46951 0.40571 0.0
C1669 C 0.16754 0.45212 0.32649 0.0
C1670 C 0.14484 0.45659 0.43042 0.0
C1671 C 0.14481 0.45457 0.49317 0.0
C1672 C 0.1486 0.46547 0.53265 0.0
C1673 C 0.15216 0.47855 0.50788 0.0
C1674 C 0.15228 0.48054 0.445 0.0
H1675 H 0.17611 0.44953 0.29436 0.0
H1676 H 0.17226 0.45557 0.37001 0.0
H1677 H 0.1615 0.44242 0.33498 0.0
H1678 H 0.14174 0.44805 0.40115 0.0
H1679 H 0.14175 0.44446 0.51087 0.0
H1680 H 0.95092 0.66362 0.54723 0.0
H1681 H 0.95464 0.66264 0.43818 0.0
H1682 H 0.99078 0.63641 0.46533 0.0
H1683 H 0.98675 0.63674 0.57465 0.0
H1684 H 0.97657 0.67145 0.37163 0.0
H1685 H 0.96952 0.61436 0.33934 0.0
H1686 H 0.96482 0.62312 0.40884 0.0
H1687 H 0.98277 0.61868 0.39379 0.0
C1688 C 0.95953 0.65742 0.53032 0.0
C1689 C 0.96845 0.65015 0.57025 0.0
C1690 C 0.96171 0.65698 0.46772 0.0
C1691 C 0.97284 0.64926 0.44335 0.0
C1692 C 0.98192 0.64217 0.48291 0.0
H1693 H 0.00573 0.63906 0.07971 0.0
H1694 H 0.00161 0.63909 0.18912 0.0
C1695 C 0.97971 0.64254 0.54564 0.0
C1696 C 0.9751 0.649 0.37666 0.0
H1697 H 0.97791 0.6272 0.25448 0.0
C1698 C 0.97679 0.66177 0.34601 0.0
C1699 C 0.97536 0.63637 0.34316 0.0
C1700 C 0.97289 0.62236 0.3728 0.0
C1701 C 0.97894 0.66225 0.28305 0.0
C1702 C 0.97929 0.64963 0.24975 0.0
C1703 C 0.97764 0.63685 0.28024 0.0
C1704 C 0.98157 0.64948 0.18326 0.0
C1705 C 0.98108 0.67623 0.25271 0.0
C1706 C 0.97157 0.65515 0.14363 0.0
C1707 C 0.9739 0.65516 0.08097 0.0
C1708 C 0.9863 0.64953 0.05684 0.0
C1709 C 0.99619 0.64369 0.09679 0.0
C1710 C 0.99381 0.64361 0.15931 0.0
H1711 H 0.98333 0.68464 0.28603 0.0
H1712 H 0.98982 0.6757 0.21966 0.0
H1713 H 0.97146 0.67911 0.22752 0.0
H1714 H 0.96197 0.65958 0.16122 0.0
H1715 H 0.96611 0.6598 0.05158 0.0
H1716 H 0.86539 0.94791 0.01448 0.0
H1717 H 0.86493 0.95201 0.90506 0.0
H1718 H 0.84639 0.99254 0.93489 0.0
H1719 H 0.84698 0.98854 0.04444 0.0
H1720 H 0.84261 0.95607 0.8329 0.0
H1721 H 0.87738 0.00232 0.81853 0.0
H1722 H 0.87611 0.99172 0.88599 0.0
H1723 H 0.86303 0.00473 0.8698 0.0
C1724 C 0.86128 0.95772 0.99772 0.0
C1725 C 0.85626 0.96791 0.03819 0.0
C1726 C 0.86105 0.96007 0.93517 0.0
C1727 C 0.8558 0.97266 0.91161 0.0
C1728 C 0.85083 0.9829 0.95192 0.0
H1729 H 0.83669 0.00233 0.54941 0.0
H1730 H 0.83868 0.99871 0.65859 0.0
C1731 C 0.85116 0.98059 0.01461 0.0
C1732 C 0.85491 0.97473 0.84486 0.0
H1733 H 0.86453 0.99656 0.72939 0.0
C1734 C 0.84749 0.96487 0.81027 0.0
C1735 C 0.86128 0.98623 0.81523 0.0
C1736 C 0.87001 0.99678 0.84918 0.0
C1737 C 0.84606 0.96632 0.74718 0.0
C1738 C 0.8523 0.97787 0.71778 0.0
C1739 C 0.85973 0.98773 0.75217 0.0
C1740 C 0.85116 0.97994 0.6513 0.0
C1741 C 0.83766 0.95563 0.71252 0.0
C1742 C 0.85761 0.97063 0.61091 0.0
C1743 C 0.85662 0.97273 0.54824 0.0
C1744 C 0.84915 0.98421 0.5246 0.0
C1745 C 0.84268 0.99349 0.56554 0.0
C1746 C 0.84375 0.99141 0.62814 0.0
H1747 H 0.83122 0.949 0.74306 0.0
H1748 H 0.83066 0.96083 0.67924 0.0
H1749 H 0.84488 0.94871 0.68705 0.0
H1750 H 0.86356 0.96182 0.62792 0.0
H1751 H 0.86195 0.96548 0.51855 0.0
H1752 H 0.51238 0.84545 0.55789 0.0
H1753 H 0.50892 0.84534 0.44789 0.0
H1754 H 0.55113 0.86007 0.42246 0.0
H1755 H 0.55469 0.86009 0.5322 0.0
H1756 H 0.51048 0.86623 0.36333 0.0
H1757 H 0.55057 0.82582 0.31485 0.0
H1758 H 0.54444 0.82942 0.39059 0.0
H1759 H 0.55728 0.84058 0.35578 0.0
C1760 C 0.52089 0.84877 0.52891 0.0
C1761 C 0.53386 0.85267 0.5538 0.0
C1762 C 0.51892 0.84863 0.46602 0.0
C1763 C 0.52987 0.8524 0.42683 0.0
C1764 C 0.54267 0.85673 0.45165 0.0
H1765 H 0.53656 0.8598 0.03373 0.0
H1766 H 0.54061 0.8608 0.14318 0.0
C1767 C 0.54467 0.85677 0.51442 0.0
C1768 C 0.52785 0.85192 0.36004 0.0
H1769 H 0.54072 0.83746 0.22975 0.0
C1770 C 0.51706 0.85989 0.33417 0.0
C1771 C 0.53645 0.84365 0.32196 0.0
C1772 C 0.54775 0.83428 0.34716 0.0
C1773 C 0.51473 0.85996 0.27128 0.0
C1774 C 0.52336 0.85173 0.23333 0.0
C1775 C 0.53419 0.84381 0.25902 0.0
C1776 C 0.52102 0.85092 0.16697 0.0
C1777 C 0.50319 0.86895 0.24573 0.0
C1778 C 0.5088 0.84478 0.14412 0.0
C1779 C 0.50651 0.84405 0.08164 0.0
C1780 C 0.51639 0.84946 0.04051 0.0
C1781 C 0.52876 0.85541 0.06373 0.0
C1782 C 0.53107 0.85607 0.12636 0.0
H1783 H 0.49963 0.87697 0.27874 0.0
H1784 H 0.50667 0.8743 0.20365 0.0
H1785 H 0.4941 0.86224 0.23414 0.0
H1786 H 0.50105 0.84049 0.1747 0.0
H1787 H 0.49701 0.83913 0.06572 0.0
H1788 H 0.63514 0.51586 0.05393 0.0
H1789 H 0.63463 0.51183 0.94444 0.0
H1790 H 0.66027 0.5483 0.91632 0.0
H1791 H 0.66116 0.55226 0.02539 0.0
H1792 H 0.63529 0.54608 0.83973 0.0
H1793 H 0.6684 0.49823 0.83867 0.0
H1794 H 0.65401 0.49837 0.89115 0.0
H1795 H 0.66825 0.51036 0.9014 0.0
C1796 C 0.64082 0.52294 0.0247 0.0
C1797 C 0.64822 0.53439 0.04897 0.0
C1798 C 0.64047 0.52064 0.96204 0.0
C1799 C 0.64749 0.52972 0.9224 0.0
C1800 C 0.65477 0.54119 0.94619 0.0
H1801 H 0.65755 0.53734 0.53126 0.0
H1802 H 0.65676 0.54143 0.64073 0.0
C1803 C 0.6552 0.54347 0.00874 0.0
C1804 C 0.64721 0.52736 0.85598 0.0
H1805 H 0.65863 0.5052 0.74528 0.0
C1806 C 0.64038 0.53715 0.81893 0.0
C1807 C 0.65385 0.51569 0.82918 0.0
C1808 C 0.66165 0.50508 0.86688 0.0
C1809 C 0.63985 0.53549 0.75566 0.0
C1810 C 0.64664 0.5239 0.72867 0.0
C1811 C 0.65343 0.51409 0.76592 0.0
C1812 C 0.64684 0.52168 0.66196 0.0
C1813 C 0.63173 0.54599 0.71857 0.0
C1814 C 0.64183 0.5091 0.63746 0.0
C1815 C 0.64241 0.50669 0.57502 0.0
C1816 C 0.64802 0.5168 0.53563 0.0
C1817 C 0.65298 0.52943 0.56022 0.0
C1818 C 0.65249 0.5318 0.62281 0.0
H1819 H 0.62392 0.55165 0.7466 0.0
H1820 H 0.63907 0.55385 0.69966 0.0
H1821 H 0.62621 0.54086 0.68028 0.0
H1822 H 0.63744 0.50112 0.66671 0.0
H1823 H 0.63833 0.49693 0.55756 0.0
H1824 H 0.96317 0.85627 0.48352 0.0
H1825 H 0.95895 0.85658 0.3742 0.0
H1826 H 0.99894 0.83698 0.34391 0.0
H1827 H 0.00299 0.83605 0.4528 0.0
H1828 H 0.97392 0.86964 0.28509 0.0
H1829 H 0.97348 0.8125 0.24366 0.0
H1830 H 0.97242 0.81985 0.31883 0.0
H1831 H 0.98906 0.8183 0.28131 0.0
C1832 C 0.97097 0.85178 0.45381 0.0
C1833 C 0.98342 0.84608 0.47738 0.0
C1834 C 0.96858 0.85207 0.39119 0.0
C1835 C 0.97853 0.84661 0.35083 0.0
C1836 C 0.99097 0.84098 0.37413 0.0
H1837 H 0.98782 0.84303 0.95929 0.0
H1838 H 0.99149 0.84298 0.06927 0.0
C1839 C 0.99335 0.84064 0.43661 0.0
C1840 C 0.97617 0.84723 0.28428 0.0
H1841 H 0.97489 0.82713 0.15632 0.0
C1842 C 0.97402 0.86033 0.257 0.0
C1843 C 0.97632 0.83508 0.24759 0.0
C1844 C 0.97781 0.82063 0.27436 0.0
C1845 C 0.97232 0.86164 0.19397 0.0
C1846 C 0.97266 0.84952 0.15736 0.0
C1847 C 0.97474 0.83641 0.18454 0.0
C1848 C 0.97062 0.85016 0.09077 0.0
C1849 C 0.97044 0.876 0.1668 0.0
C1850 C 0.95768 0.8542 0.06653 0.0
C1851 C 0.95556 0.85423 1.00382 0.0
C1852 C 0.96634 0.85024 0.96407 0.0
C1853 C 0.97936 0.84634 0.98854 0.0
C1854 C 0.98145 0.84622 0.05136 0.0
H1855 H 0.97347 0.8844 0.199 0.0
H1856 H 0.97675 0.87712 0.12481 0.0
H1857 H 0.95929 0.87751 0.15459 0.0
H1858 H 0.94914 0.85711 0.09618 0.0
H1859 H 0.94545 0.85738 0.98641 0.0
H1860 H 0.66588 0.00423 0.96547 0.0
H1861 H 0.66445 0.00075 0.85625 0.0
H1862 H 0.64188 0.96226 0.88438 0.0
H1863 H 0.6427 0.96596 0.99385 0.0
H1864 H 0.67467 0.98002 0.78666 0.0
H1865 H 0.61697 0.98199 0.76304 0.0
H1866 H 0.62585 0.98725 0.83154 0.0
H1867 H 0.62289 0.96902 0.81602 0.0
C1868 C 0.66042 0.99511 0.94872 0.0
C1869 C 0.6543 0.98545 0.98898 0.0
C1870 C 0.6597 0.99309 0.88604 0.0
C1871 C 0.65285 0.98137 0.86191 0.0
C1872 C 0.64695 0.97155 0.90179 0.0
H1873 H 0.66338 0.94921 0.49753 0.0
H1874 H 0.66368 0.95349 0.60632 0.0
C1875 C 0.6476 0.9736 0.96461 0.0
C1876 C 0.65225 0.97932 0.7951 0.0
H1877 H 0.6298 0.97479 0.67602 0.0
C1878 C 0.66485 0.97892 0.76249 0.0
C1879 C 0.63943 0.9781 0.76332 0.0
C1880 C 0.62551 0.97925 0.79511 0.0
C1881 C 0.66501 0.97711 0.6993 0.0
C1882 C 0.65223 0.97536 0.66786 0.0
C1883 C 0.6396 0.97601 0.70023 0.0
C1884 C 0.65176 0.97269 0.6015 0.0
C1885 C 0.67889 0.97732 0.66671 0.0
C1886 C 0.64461 0.98184 0.56251 0.0
C1887 C 0.64424 0.97932 0.49996 0.0
C1888 C 0.65095 0.96753 0.47518 0.0
C1889 C 0.65797 0.95832 0.51469 0.0
C1890 C 0.65831 0.96084 0.57706 0.0
H1891 H 0.68707 0.98269 0.69383 0.0
H1892 H 0.6824 0.96641 0.65886 0.0
H1893 H 0.678 0.98262 0.62208 0.0
H1894 H 0.63938 0.991 0.58045 0.0
H1895 H 0.63857 0.98652 0.47116 0.0
H1896 H 0.51512 0.66873 0.95724 0.0
H1897 H 0.5119 0.6706 0.06737 0.0
H1898 H 0.54111 0.63669 0.09372 0.0
H1899 H 0.54496 0.63556 0.98411 0.0
H1900 H 0.5021 0.65486 0.1485 0.0
H1901 H 0.55739 0.66302 0.2102 0.0
H1902 H 0.55158 0.66319 0.13252 0.0
H1903 H 0.55549 0.64687 0.17007 0.0
C1904 C 0.52085 0.66176 0.9869 0.0
C1905 C 0.53037 0.6521 0.96271 0.0
C1906 C 0.51904 0.66281 0.04973 0.0
C1907 C 0.52655 0.65405 0.08942 0.0
C1908 C 0.53563 0.64399 0.06468 0.0
H1909 H 0.49954 0.63729 0.45836 0.0
H1910 H 0.50364 0.6374 0.34888 0.0
C1911 C 0.53772 0.64322 1.00207 0.0
C1912 C 0.52457 0.65513 0.15636 0.0
H1913 H 0.54216 0.65602 0.29119 0.0
C1914 C 0.51089 0.65528 0.17957 0.0
C1915 C 0.53596 0.65602 0.19736 0.0
C1916 C 0.5509 0.65744 0.17614 0.0
C1917 C 0.50829 0.65593 0.24218 0.0
C1918 C 0.5197 0.65569 0.28329 0.0
C1919 C 0.53337 0.65593 0.26007 0.0
C1920 C 0.5177 0.65519 0.35034 0.0
C1921 C 0.49332 0.65723 0.26311 0.0
C1922 C 0.52489 0.66453 0.38855 0.0
C1923 C 0.52294 0.66408 0.45148 0.0
C1924 C 0.51358 0.65446 0.47713 0.0
C1925 C 0.50661 0.64496 0.43926 0.0
C1926 C 0.50885 0.64514 0.37668 0.0
H1927 H 0.48671 0.66233 0.22804 0.0
H1928 H 0.48896 0.64663 0.27117 0.0
H1929 H 0.4925 0.66338 0.30561 0.0
H1930 H 0.53187 0.67232 0.36967 0.0
H1931 H 0.52841 0.6715 0.48 0.0
H1932 H 0.8736 0.52699 0.46905 0.0
H1933 H 0.86946 0.52449 0.57761 0.0
H1934 H 0.82509 0.52893 0.54787 0.0
H1935 H 0.82922 0.5311 0.43839 0.0
H1936 H 0.8589 0.54191 0.65767 0.0
H1937 H 0.82546 0.49457 0.65145 0.0
H1938 H 0.83484 0.50075 0.58581 0.0
H1939 H 0.81862 0.50884 0.60775 0.0
C1940 C 0.86295 0.52745 0.48553 0.0
C1941 C 0.85173 0.52926 0.44498 0.0
C1942 C 0.86059 0.52598 0.54776 0.0
C1943 C 0.84695 0.52634 0.57132 0.0
C1944 C 0.83569 0.52825 0.53096 0.0
H1945 H 0.83411 0.53732 0.96504 0.0
H1946 H 0.83508 0.54128 0.85526 0.0
C1947 C 0.83805 0.52955 0.46836 0.0
C1948 C 0.84473 0.52501 0.63816 0.0
H1949 H 0.82817 0.50559 0.74681 0.0
C1950 C 0.85216 0.53397 0.67711 0.0
C1951 C 0.83606 0.51455 0.66385 0.0
C1952 C 0.82839 0.50404 0.62515 0.0
C1953 C 0.85132 0.53269 0.74057 0.0
C1954 C 0.84244 0.52242 0.76627 0.0
C1955 C 0.83489 0.51355 0.72734 0.0
C1956 C 0.84142 0.52014 0.83318 0.0
C1957 C 0.86039 0.54203 0.77925 0.0
C1958 C 0.84421 0.50686 0.85761 0.0
C1959 C 0.84345 0.50454 0.92016 0.0
C1960 C 0.83993 0.51546 0.9601 0.0
C1961 C 0.83705 0.52874 0.93566 0.0
C1962 C 0.83765 0.53102 0.87284 0.0
H1963 H 0.86927 0.54645 0.75301 0.0
H1964 H 0.85403 0.55089 0.79633 0.0
H1965 H 0.86467 0.53625 0.81879 0.0
H1966 H 0.84716 0.49827 0.82824 0.0
H1967 H 0.84591 0.49422 0.93731 0.0
loop_
_geom_bond_atom_site_label_1
_geom_bond_atom_site_label_2
_geom_bond_distance
_geom_bond_site_symmetry_2
_ccdc_geom_bond_type
C0 C1 1.346 1_554 S
C0 N3 1.369 . S
C0 H5 0.929 1_455 S
C1 C0 1.346 1_556 S
C1 N2 1.373 . S
C1 H29 0.930 1_455 S
N2 C1 1.373 . S
N2 C4 1.340 . S
N3 C0 1.369 . S
N3 C4 1.321 1_554 S
N3 Co6 2.135 . S
C4 N2 1.340 . S
C4 N3 1.321 1_556 S
C4 H28 0.930 . S
H5 C0 0.929 1_655 S
Co6 N3 2.135 . S
Co6 N9 2.121 . S
Co6 O14 2.055 . S
Co6 O17 2.039 . S
Co6 N20 2.133 1_455 S
C7 O8 1.227 . S
C7 O17 1.265 . S
O8 C7 1.227 . S
N9 Co6 2.121 . S
N9 C11 1.375 . S
N9 C12 1.313 . S
C10 C11 1.338 . S
C10 N13 1.377 . S
C10 H30 0.930 . S
C11 N9 1.375 . S
C11 C10 1.338 . S
C11 H15 0.931 . S
C12 N9 1.313 . S
C12 N13 1.344 . S
C12 H16 0.930 . S
N13 C10 1.377 . S
N13 C12 1.344 . S
O14 Co6 2.055 . S
O14 C18 1.253 . S
H15 C11 0.931 . S
H16 C12 0.930 . S
O17 Co6 2.039 . S
O17 C7 1.265 . S
C18 O14 1.253 . S
C18 O19 1.227 . S
O19 C18 1.227 . S
N20 Co6 2.133 1_655 S
N20 C23 1.348 . S
N20 C24 1.350 . S
C21 C22 1.387 . S
C21 C25 1.391 . S
C22 C21 1.387 . S
C22 C23 1.369 . S
C22 H31 0.929 . S
C23 N20 1.348 . S
C23 C22 1.369 . S
C23 H26 0.928 1_655 S
C24 N20 1.350 . S
C24 C25 1.371 . S
C24 H27 0.931 . S
C25 C21 1.391 . S
C25 C24 1.371 . S
C25 H32 0.930 . S
H26 C23 0.928 1_455 S
H27 C24 0.931 . S
H28 C4 0.930 . S
H29 C1 0.930 1_655 S
H30 C10 0.930 . S
H31 C22 0.929 . S
H32 C25 0.930 . S
C33 C34 1.351 . S
C33 N36 1.368 . S
C33 H38 0.926 1_545 S
C34 C33 1.351 . S
C34 N35 1.373 . S
C34 H62 0.930 1_545 S
N35 C34 1.373 . S
N35 C37 1.340 . S
N36 C33 1.368 . S
N36 C37 1.321 . S
N36 Co39 2.135 . S
C37 N35 1.340 . S
C37 N36 1.321 . S
C37 H61 0.930 . S
H38 C33 0.926 1_565 S
Co39 N36 2.135 . S
Co39 N42 2.121 . S
Co39 O47 2.055 . S
Co39 O50 2.039 . S
Co39 N53 2.133 1_545 S
C40 O41 1.227 . S
C40 O50 1.265 . S
O41 C40 1.227 . S
N42 Co39 2.121 . S
N42 C44 1.375 . S
N42 C45 1.313 . S
C43 C44 1.338 . S
C43 N46 1.377 . S
C43 H63 0.930 . S
C44 N42 1.375 . S
C44 C43 1.338 . S
C44 H48 0.931 . S
C45 N42 1.313 . S
C45 N46 1.344 . S
C45 H49 0.930 . S
N46 C43 1.377 . S
N46 C45 1.344 . S
O47 Co39 2.055 . S
O47 C51 1.253 . S
H48 C44 0.931 . S
H49 C45 0.930 . S
O50 Co39 2.039 . S
O50 C40 1.265 . S
C51 O47 1.253 . S
C51 O52 1.227 . S
O52 C51 1.227 . S
N53 Co39 2.133 1_565 S
N53 C56 1.348 . S
N53 C57 1.350 . S
C54 C55 1.387 . S
C54 C58 1.391 . S
C55 C54 1.387 . S
C55 C56 1.369 . S
C55 H64 0.929 . S
C56 N53 1.348 . S
C56 C55 1.369 . S
C56 H59 0.928 1_565 S
C57 N53 1.350 . S
C57 C58 1.371 . S
C57 H60 0.931 . S
C58 C54 1.391 . S
C58 C57 1.371 . S
C58 H65 0.930 . S
H59 C56 0.928 1_545 S
H60 C57 0.931 . S
H61 C37 0.930 . S
H62 C34 0.930 1_565 S
H63 C43 0.930 . S
H64 C55 0.929 . S
H65 C58 0.930 . S
C66 C67 1.346 1_554 S
C66 N69 1.369 . S
C66 H71 0.933 . S
C67 C66 1.346 1_556 S
C67 N68 1.373 . S
C67 H95 0.930 . S
N68 C67 1.373 . S
N68 C70 1.340 . S
N69 C66 1.369 . S
N69 C70 1.321 1_554 S
N69 Co72 2.135 . S
C70 N68 1.340 . S
C70 N69 1.321 1_556 S
C70 H94 0.930 . S
H71 C66 0.933 . S
Co72 N69 2.135 . S
Co72 N75 2.121 . S
Co72 O80 2.055 . S
Co72 O83 2.039 . S
Co72 N86 2.140 . S
C73 O74 1.227 . S
C73 O83 1.265 . S
O74 C73 1.227 . S
N75 Co72 2.121 . S
N75 C77 1.375 . S
N75 C78 1.313 . S
C76 C77 1.338 . S
C76 N79 1.377 . S
C76 H96 0.930 . S
C77 N75 1.375 . S
C77 C76 1.338 . S
C77 H81 0.931 . S
C78 N75 1.313 . S
C78 N79 1.344 . S
C78 H82 0.930 . S
N79 C76 1.377 . S
N79 C78 1.344 . S
O80 Co72 2.055 . S
O80 C84 1.253 . S
H81 C77 0.931 . S
H82 C78 0.930 . S
O83 Co72 2.039 . S
O83 C73 1.265 . S
C84 O80 1.253 . S
C84 O85 1.227 . S
O85 C84 1.227 . S
N86 Co72 2.140 . S
N86 C89 1.346 . S
N86 C90 1.345 . S
C87 C88 1.387 . S
C87 C91 1.391 . S
C88 C87 1.387 . S
C88 C89 1.369 . S
C88 H97 0.929 . S
C89 N86 1.346 . S
C89 C88 1.369 . S
C89 H92 0.928 . S
C90 N86 1.345 . S
C90 C91 1.371 . S
C90 H93 0.931 . S
C91 C87 1.391 . S
C91 C90 1.371 . S
C91 H98 0.930 . S
H92 C89 0.928 . S
H93 C90 0.931 . S
H94 C70 0.930 . S
H95 C67 0.930 . S
H96 C76 0.930 . S
H97 C88 0.929 . S
H98 C91 0.930 . S
C99 C100 1.351 . S
C99 N102 1.368 . S
C99 H104 0.931 . S
C100 C99 1.351 . S
C100 N101 1.373 . S
C100 H128 0.930 . S
N101 C100 1.373 . S
N101 C103 1.340 . S
N102 C99 1.368 . S
N102 C103 1.321 . S
N102 Co105 2.135 . S
C103 N101 1.340 . S
C103 N102 1.321 . S
C103 H127 0.930 . S
H104 C99 0.931 . S
Co105 N102 2.135 . S
Co105 N108 2.121 . S
Co105 O113 2.055 . S
Co105 O116 2.039 . S
Co105 N119 2.140 . S
C106 O107 1.227 . S
C106 O116 1.265 . S
O107 C106 1.227 . S
N108 Co105 2.121 . S
N108 C110 1.375 . S
N108 C111 1.313 . S
C109 C110 1.338 . S
C109 N112 1.377 . S
C109 H129 0.930 . S
C110 N108 1.375 . S
C110 C109 1.338 . S
C110 H114 0.931 . S
C111 N108 1.313 . S
C111 N112 1.344 . S
C111 H115 0.930 . S
N112 C109 1.377 . S
N112 C111 1.344 . S
O113 Co105 2.055 . S
O113 C117 1.253 . S
H114 C110 0.931 . S
H115 C111 0.930 . S
O116 Co105 2.039 . S
O116 C106 1.265 . S
C117 O113 1.253 . S
C117 O118 1.227 . S
O118 C117 1.227 . S
N119 Co105 2.140 . S
N119 C122 1.346 . S
N119 C123 1.345 . S
C120 C121 1.387 . S
C120 C124 1.391 . S
C121 C120 1.387 . S
C121 C122 1.369 . S
C121 H130 0.929 . S
C122 N119 1.346 . S
C122 C121 1.369 . S
C122 H125 0.928 . S
C123 N119 1.345 . S
C123 C124 1.371 . S
C123 H126 0.931 . S
C124 C120 1.391 . S
C124 C123 1.371 . S
C124 H131 0.930 . S
H125 C122 0.928 . S
H126 C123 0.931 . S
H127 C103 0.930 . S
H128 C100 0.930 . S
H129 C109 0.930 . S
H130 C121 0.929 . S
H131 C124 0.930 . S
C132 C133 1.351 . S
C132 N135 1.368 . S
C132 H137 0.926 1_455 S
C133 C132 1.351 . S
C133 N134 1.373 . S
C133 H161 0.930 1_455 S
N134 C133 1.373 . S
N134 C136 1.340 . S
N135 C132 1.368 . S
N135 C136 1.321 . S
N135 Co138 2.135 . S
C136 N134 1.340 . S
C136 N135 1.321 . S
C136 H160 0.930 . S
H137 C132 0.926 1_655 S
Co138 N135 2.135 . S
Co138 N141 2.121 . S
Co138 O146 2.055 . S
Co138 O149 2.039 . S
Co138 N152 2.133 1_455 S
C139 O140 1.227 . S
C139 O149 1.265 . S
O140 C139 1.227 . S
N141 Co138 2.121 . S
N141 C143 1.375 . S
N141 C144 1.313 . S
C142 C143 1.338 . S
C142 N145 1.377 . S
C142 H162 0.930 . S
C143 N141 1.375 . S
C143 C142 1.338 . S
C143 H147 0.931 . S
C144 N141 1.313 . S
C144 N145 1.344 . S
C144 H148 0.930 . S
N145 C142 1.377 . S
N145 C144 1.344 . S
O146 Co138 2.055 . S
O146 C150 1.253 . S
H147 C143 0.931 . S
H148 C144 0.930 . S
O149 Co138 2.039 . S
O149 C139 1.265 . S
C150 O146 1.253 . S
C150 O151 1.227 . S
O151 C150 1.227 . S
N152 Co138 2.133 1_655 S
N152 C155 1.348 . S
N152 C156 1.350 . S
C153 C154 1.387 . S
C153 C157 1.391 . S
C154 C153 1.387 . S
C154 C155 1.369 . S
C154 H163 0.929 . S
C155 N152 1.348 . S
C155 C154 1.369 . S
C155 H158 0.928 1_655 S
C156 N152 1.350 . S
C156 C157 1.371 . S
C156 H159 0.931 . S
C157 C153 1.391 . S
C157 C156 1.371 . S
C157 H164 0.930 . S
H158 C155 0.928 1_455 S
H159 C156 0.931 . S
H160 C136 0.930 . S
H161 C133 0.930 1_655 S
H162 C142 0.930 . S
H163 C154 0.929 . S
H164 C157 0.930 . S
C165 C166 1.346 1_556 S
C165 N168 1.369 . S
C165 H170 0.929 1_545 S
C166 C165 1.346 1_554 S
C166 N167 1.373 . S
C166 H194 0.930 1_545 S
N167 C166 1.373 . S
N167 C169 1.340 . S
N168 C165 1.369 . S
N168 C169 1.321 1_556 S
N168 Co171 2.135 . S
C169 N167 1.340 . S
C169 N168 1.321 1_554 S
C169 H193 0.930 . S
H170 C165 0.929 1_565 S
Co171 N168 2.135 . S
Co171 N174 2.121 . S
Co171 O179 2.055 . S
Co171 O182 2.039 . S
Co171 N185 2.133 1_545 S
C172 O173 1.227 . S
C172 O182 1.265 . S
O173 C172 1.227 . S
N174 Co171 2.121 . S
N174 C176 1.375 . S
N174 C177 1.313 . S
C175 C176 1.338 . S
C175 N178 1.377 . S
C175 H195 0.930 . S
C176 N174 1.375 . S
C176 C175 1.338 . S
C176 H180 0.931 . S
C177 N174 1.313 . S
C177 N178 1.344 . S
C177 H181 0.930 . S
N178 C175 1.377 . S
N178 C177 1.344 . S
O179 Co171 2.055 . S
O179 C183 1.253 . S
H180 C176 0.931 . S
H181 C177 0.930 . S
O182 Co171 2.039 . S
O182 C172 1.265 . S
C183 O179 1.253 . S
C183 O184 1.227 . S
O184 C183 1.227 . S
N185 Co171 2.133 1_565 S
N185 C188 1.348 . S
N185 C189 1.350 . S
C186 C187 1.387 . S
C186 C190 1.391 . S
C187 C186 1.387 . S
C187 C188 1.369 . S
C187 H196 0.929 . S
C188 N185 1.348 . S
C188 C187 1.369 . S
C188 H191 0.928 1_565 S
C189 N185 1.350 . S
C189 C190 1.371 . S
C189 H192 0.931 . S
C190 C186 1.391 . S
C190 C189 1.371 . S
C190 H197 0.930 . S
H191 C188 0.928 1_545 S
H192 C189 0.931 . S
H193 C169 0.930 . S
H194 C166 0.930 1_565 S
H195 C175 0.930 . S
H196 C187 0.929 . S
H197 C190 0.930 . S
C198 C199 1.351 . S
C198 N201 1.368 . S
C198 H203 0.931 . S
C199 C198 1.351 . S
C199 N200 1.373 . S
C199 H227 0.930 . S
N200 C199 1.373 . S
N200 C202 1.340 . S
N201 C198 1.368 . S
N201 C202 1.321 . S
N201 Co204 2.135 . S
C202 N200 1.340 . S
C202 N201 1.321 . S
C202 H226 0.930 . S
H203 C198 0.931 . S
Co204 N201 2.135 . S
Co204 N207 2.121 . S
Co204 O212 2.055 . S
Co204 O215 2.039 . S
Co204 N218 2.140 . S
C205 O206 1.227 . S
C205 O215 1.265 . S
O206 C205 1.227 . S
N207 Co204 2.121 . S
N207 C209 1.375 . S
N207 C210 1.313 . S
C208 C209 1.338 . S
C208 N211 1.377 . S
C208 H228 0.930 . S
C209 N207 1.375 . S
C209 C208 1.338 . S
C209 H213 0.931 . S
C210 N207 1.313 . S
C210 N211 1.344 . S
C210 H214 0.930 . S
N211 C208 1.377 . S
N211 C210 1.344 . S
O212 Co204 2.055 . S
O212 C216 1.253 . S
H213 C209 0.931 . S
H214 C210 0.930 . S
O215 Co204 2.039 . S
O215 C205 1.265 . S
C216 O212 1.253 . S
C216 O217 1.227 . S
O217 C216 1.227 . S
N218 Co204 2.140 . S
N218 C221 1.346 . S
N218 C222 1.345 . S
C219 C220 1.387 . S
C219 C223 1.391 . S
C220 C219 1.387 . S
C220 C221 1.369 . S
C220 H229 0.929 . S
C221 N218 1.346 . S
C221 C220 1.369 . S
C221 H224 0.928 . S
C222 N218 1.345 . S
C222 C223 1.371 . S
C222 H225 0.931 . S
C223 C219 1.391 . S
C223 C222 1.371 . S
C223 H230 0.930 . S
H224 C221 0.928 . S
H225 C222 0.931 . S
H226 C202 0.930 . S
H227 C199 0.930 . S
H228 C208 0.930 . S
H229 C220 0.929 . S
H230 C223 0.930 . S
C231 C232 1.346 1_556 S
C231 N234 1.369 . S
C231 H236 0.933 . S
C232 C231 1.346 1_554 S
C232 N233 1.373 . S
C232 H260 0.930 . S
N233 C232 1.373 . S
N233 C235 1.340 . S
N234 C231 1.369 . S
N234 C235 1.321 1_556 S
N234 Co237 2.135 . S
C235 N233 1.340 . S
C235 N234 1.321 1_554 S
C235 H259 0.930 . S
H236 C231 0.933 . S
Co237 N234 2.135 . S
Co237 N240 2.121 . S
Co237 O245 2.055 . S
Co237 O248 2.039 . S
Co237 N251 2.140 . S
C238 O239 1.227 . S
C238 O248 1.265 . S
O239 C238 1.227 . S
N240 Co237 2.121 . S
N240 C242 1.375 . S
N240 C243 1.313 . S
C241 C242 1.338 . S
C241 N244 1.377 . S
C241 H261 0.930 . S
C242 N240 1.375 . S
C242 C241 1.338 . S
C242 H246 0.931 . S
C243 N240 1.313 . S
C243 N244 1.344 . S
C243 H247 0.930 . S
N244 C241 1.377 . S
N244 C243 1.344 . S
O245 Co237 2.055 . S
O245 C249 1.253 . S
H246 C242 0.931 . S
H247 C243 0.930 . S
O248 Co237 2.039 . S
O248 C238 1.265 . S
C249 O245 1.253 . S
C249 O250 1.227 . S
O250 C249 1.227 . S
N251 Co237 2.140 . S
N251 C254 1.346 . S
N251 C255 1.345 . S
C252 C253 1.387 . S
C252 C256 1.391 . S
C253 C252 1.387 . S
C253 C254 1.369 . S
C253 H262 0.929 . S
C254 N251 1.346 . S
C254 C253 1.369 . S
C254 H257 0.928 . S
C255 N251 1.345 . S
C255 C256 1.371 . S
C255 H258 0.931 . S
C256 C252 1.391 . S
C256 C255 1.371 . S
C256 H263 0.930 . S
H257 C254 0.928 . S
H258 C255 0.931 . S
H259 C235 0.930 . S
H260 C232 0.930 . S
H261 C241 0.930 . S
H262 C253 0.929 . S
H263 C256 0.930 . S
C264 C265 1.346 1_556 S
C264 N267 1.369 . S
C264 H269 0.929 1_655 S
C265 C264 1.346 1_554 S
C265 N266 1.373 . S
C265 H293 0.930 1_655 S
N266 C265 1.373 . S
N266 C268 1.340 . S
N267 C264 1.369 . S
N267 C268 1.321 1_556 S
N267 Co270 2.135 . S
C268 N266 1.340 . S
C268 N267 1.321 1_554 S
C268 H292 0.930 . S
H269 C264 0.929 1_455 S
Co270 N267 2.135 . S
Co270 N273 2.121 . S
Co270 O278 2.055 . S
Co270 O281 2.039 . S
Co270 N284 2.133 1_655 S
C271 O272 1.227 . S
C271 O281 1.265 . S
O272 C271 1.227 . S
N273 Co270 2.121 . S
N273 C275 1.375 . S
N273 C276 1.313 . S
C274 C275 1.338 . S
C274 N277 1.377 . S
C274 H294 0.930 . S
C275 N273 1.375 . S
C275 C274 1.338 . S
C275 H279 0.931 . S
C276 N273 1.313 . S
C276 N277 1.344 . S
C276 H280 0.930 . S
N277 C274 1.377 . S
N277 C276 1.344 . S
O278 Co270 2.055 . S
O278 C282 1.253 . S
H279 C275 0.931 . S
H280 C276 0.930 . S
O281 Co270 2.039 . S
O281 C271 1.265 . S
C282 O278 1.253 . S
C282 O283 1.227 . S
O283 C282 1.227 . S
N284 Co270 2.133 1_455 S
N284 C287 1.348 . S
N284 C288 1.350 . S
C285 C286 1.387 . S
C285 C289 1.391 . S
C286 C285 1.387 . S
C286 C287 1.369 . S
C286 H295 0.929 . S
C287 N284 1.348 . S
C287 C286 1.369 . S
C287 H290 0.928 1_455 S
C288 N284 1.350 . S
C288 C289 1.371 . S
C288 H291 0.931 . S
C289 C285 1.391 . S
C289 C288 1.371 . S
C289 H296 0.930 . S
H290 C287 0.928 1_655 S
H291 C288 0.931 . S
H292 C268 0.930 . S
H293 C265 0.930 1_455 S
H294 C274 0.930 . S
H295 C286 0.929 . S
H296 C289 0.930 . S
C297 C298 1.351 . S
C297 N300 1.368 . S
C297 H302 0.926 1_565 S
C298 C297 1.351 . S
C298 N299 1.373 . S
C298 H326 0.930 1_565 S
N299 C298 1.373 . S
N299 C301 1.340 . S
N300 C297 1.368 . S
N300 C301 1.321 . S
N300 Co303 2.135 . S
C301 N299 1.340 . S
C301 N300 1.321 . S
C301 H325 0.930 . S
H302 C297 0.926 1_545 S
Co303 N300 2.135 . S
Co303 N306 2.121 . S
Co303 O311 2.055 . S
Co303 O314 2.039 . S
Co303 N317 2.133 1_565 S
C304 O305 1.227 . S
C304 O314 1.265 . S
O305 C304 1.227 . S
N306 Co303 2.121 . S
N306 C308 1.375 . S
N306 C309 1.313 . S
C307 C308 1.338 . S
C307 N310 1.377 . S
C307 H327 0.930 . S
C308 N306 1.375 . S
C308 C307 1.338 . S
C308 H312 0.931 . S
C309 N306 1.313 . S
C309 N310 1.344 . S
C309 H313 0.930 . S
N310 C307 1.377 . S
N310 C309 1.344 . S
O311 Co303 2.055 . S
O311 C315 1.253 . S
H312 C308 0.931 . S
H313 C309 0.930 . S
O314 Co303 2.039 . S
O314 C304 1.265 . S
C315 O311 1.253 . S
C315 O316 1.227 . S
O316 C315 1.227 . S
N317 Co303 2.133 1_545 S
N317 C320 1.348 . S
N317 C321 1.350 . S
C318 C319 1.387 . S
C318 C322 1.391 . S
C319 C318 1.387 . S
C319 C320 1.369 . S
C319 H328 0.929 . S
C320 N317 1.348 . S
C320 C319 1.369 . S
C320 H323 0.928 1_545 S
C321 N317 1.350 . S
C321 C322 1.371 . S
C321 H324 0.931 . S
C322 C318 1.391 . S
C322 C321 1.371 . S
C322 H329 0.930 . S
H323 C320 0.928 1_565 S
H324 C321 0.931 . S
H325 C301 0.930 . S
H326 C298 0.930 1_545 S
H327 C307 0.930 . S
H328 C319 0.929 . S
H329 C322 0.930 . S
C330 C331 1.346 1_556 S
C330 N333 1.369 . S
C330 H335 0.933 . S
C331 C330 1.346 1_554 S
C331 N332 1.373 . S
C331 H359 0.930 . S
N332 C331 1.373 . S
N332 C334 1.340 . S
N333 C330 1.369 . S
N333 C334 1.321 1_556 S
N333 Co336 2.135 . S
C334 N332 1.340 . S
C334 N333 1.321 1_554 S
C334 H358 0.930 . S
H335 C330 0.933 . S
Co336 N333 2.135 . S
Co336 N339 2.121 . S
Co336 O344 2.055 . S
Co336 O347 2.039 . S
Co336 N350 2.140 . S
C337 O338 1.227 . S
C337 O347 1.265 . S
O338 C337 1.227 . S
N339 Co336 2.121 . S
N339 C341 1.375 . S
N339 C342 1.313 . S
C340 C341 1.338 . S
C340 N343 1.377 . S
C340 H360 0.930 . S
C341 N339 1.375 . S
C341 C340 1.338 . S
C341 H345 0.931 . S
C342 N339 1.313 . S
C342 N343 1.344 . S
C342 H346 0.930 . S
N343 C340 1.377 . S
N343 C342 1.344 . S
O344 Co336 2.055 . S
O344 C348 1.253 . S
H345 C341 0.931 . S
H346 C342 0.930 . S
O347 Co336 2.039 . S
O347 C337 1.265 . S
C348 O344 1.253 . S
C348 O349 1.227 . S
O349 C348 1.227 . S
N350 Co336 2.140 . S
N350 C353 1.346 . S
N350 C354 1.345 . S
C351 C352 1.387 . S
C351 C355 1.391 . S
C352 C351 1.387 . S
C352 C353 1.369 . S
C352 H361 0.929 . S
C353 N350 1.346 . S
C353 C352 1.369 . S
C353 H356 0.928 . S
C354 N350 1.345 . S
C354 C355 1.371 . S
C354 H357 0.931 . S
C355 C351 1.391 . S
C355 C354 1.371 . S
C355 H362 0.930 . S
H356 C353 0.928 . S
H357 C354 0.931 . S
H358 C334 0.930 . S
H359 C331 0.930 . S
H360 C340 0.930 . S
H361 C352 0.929 . S
H362 C355 0.930 . S
C363 C364 1.351 . S
C363 N366 1.368 . S
C363 H368 0.931 . S
C364 C363 1.351 . S
C364 N365 1.373 . S
C364 H392 0.930 . S
N365 C364 1.373 . S
N365 C367 1.340 . S
N366 C363 1.368 . S
N366 C367 1.321 . S
N366 Co369 2.135 . S
C367 N365 1.340 . S
C367 N366 1.321 . S
C367 H391 0.930 . S
H368 C363 0.931 . S
Co369 N366 2.135 . S
Co369 N372 2.121 . S
Co369 O377 2.055 . S
Co369 O380 2.039 . S
Co369 N383 2.140 . S
C370 O371 1.227 . S
C370 O380 1.265 . S
O371 C370 1.227 . S
N372 Co369 2.121 . S
N372 C374 1.375 . S
N372 C375 1.313 . S
C373 C374 1.338 . S
C373 N376 1.377 . S
C373 H393 0.930 . S
C374 N372 1.375 . S
C374 C373 1.338 . S
C374 H378 0.931 . S
C375 N372 1.313 . S
C375 N376 1.344 . S
C375 H379 0.930 . S
N376 C373 1.377 . S
N376 C375 1.344 . S
O377 Co369 2.055 . S
O377 C381 1.253 . S
H378 C374 0.931 . S
H379 C375 0.930 . S
O380 Co369 2.039 . S
O380 C370 1.265 . S
C381 O377 1.253 . S
C381 O382 1.227 . S
O382 C381 1.227 . S
N383 Co369 2.140 . S
N383 C386 1.346 . S
N383 C387 1.345 . S
C384 C385 1.387 . S
C384 C388 1.391 . S
C385 C384 1.387 . S
C385 C386 1.369 . S
C385 H394 0.929 . S
C386 N383 1.346 . S
C386 C385 1.369 . S
C386 H389 0.928 . S
C387 N383 1.345 . S
C387 C388 1.371 . S
C387 H390 0.931 . S
C388 C384 1.391 . S
C388 C387 1.371 . S
C388 H395 0.930 . S
H389 C386 0.928 . S
H390 C387 0.931 . S
H391 C367 0.930 . S
H392 C364 0.930 . S
H393 C373 0.930 . S
H394 C385 0.929 . S
H395 C388 0.930 . S
C396 C397 1.351 . S
C396 N399 1.368 . S
C396 H401 0.926 1_655 S
C397 C396 1.351 . S
C397 N398 1.373 . S
C397 H425 0.930 1_655 S
N398 C397 1.373 . S
N398 C400 1.340 . S
N399 C396 1.368 . S
N399 C400 1.321 . S
N399 Co402 2.135 . S
C400 N398 1.340 . S
C400 N399 1.321 . S
C400 H424 0.930 . S
H401 C396 0.926 1_455 S
Co402 N399 2.135 . S
Co402 N405 2.121 . S
Co402 O410 2.055 . S
Co402 O413 2.039 . S
Co402 N416 2.133 1_655 S
C403 O404 1.227 . S
C403 O413 1.265 . S
O404 C403 1.227 . S
N405 Co402 2.121 . S
N405 C407 1.375 . S
N405 C408 1.313 . S
C406 C407 1.338 . S
C406 N409 1.377 . S
C406 H426 0.930 . S
C407 N405 1.375 . S
C407 C406 1.338 . S
C407 H411 0.931 . S
C408 N405 1.313 . S
C408 N409 1.344 . S
C408 H412 0.930 . S
N409 C406 1.377 . S
N409 C408 1.344 . S
O410 Co402 2.055 . S
O410 C414 1.253 . S
H411 C407 0.931 . S
H412 C408 0.930 . S
O413 Co402 2.039 . S
O413 C403 1.265 . S
C414 O410 1.253 . S
C414 O415 1.227 . S
O415 C414 1.227 . S
N416 Co402 2.133 1_455 S
N416 C419 1.348 . S
N416 C420 1.350 . S
C417 C418 1.387 . S
C417 C421 1.391 . S
C418 C417 1.387 . S
C418 C419 1.369 . S
C418 H427 0.929 . S
C419 N416 1.348 . S
C419 C418 1.369 . S
C419 H422 0.928 1_455 S
C420 N416 1.350 . S
C420 C421 1.371 . S
C420 H423 0.931 . S
C421 C417 1.391 . S
C421 C420 1.371 . S
C421 H428 0.930 . S
H422 C419 0.928 1_655 S
H423 C420 0.931 . S
H424 C400 0.930 . S
H425 C397 0.930 1_455 S
H426 C406 0.930 . S
H427 C418 0.929 . S
H428 C421 0.930 . S
C429 C430 1.346 1_554 S
C429 N432 1.369 . S
C429 H434 0.929 1_565 S
C430 C429 1.346 1_556 S
C430 N431 1.373 . S
C430 H458 0.930 1_565 S
N431 C430 1.373 . S
N431 C433 1.340 . S
N432 C429 1.369 . S
N432 C433 1.321 1_554 S
N432 Co435 2.135 . S
C433 N431 1.340 . S
C433 N432 1.321 1_556 S
C433 H457 0.930 . S
H434 C429 0.929 1_545 S
Co435 N432 2.135 . S
Co435 N438 2.121 . S
Co435 O443 2.055 . S
Co435 O446 2.039 . S
Co435 N449 2.133 1_565 S
C436 O437 1.227 . S
C436 O446 1.265 . S
O437 C436 1.227 . S
N438 Co435 2.121 . S
N438 C440 1.375 . S
N438 C441 1.313 . S
C439 C440 1.338 . S
C439 N442 1.377 . S
C439 H459 0.930 . S
C440 N438 1.375 . S
C440 C439 1.338 . S
C440 H444 0.931 . S
C441 N438 1.313 . S
C441 N442 1.344 . S
C441 H445 0.930 . S
N442 C439 1.377 . S
N442 C441 1.344 . S
O443 Co435 2.055 . S
O443 C447 1.253 . S
H444 C440 0.931 . S
H445 C441 0.930 . S
O446 Co435 2.039 . S
O446 C436 1.265 . S
C447 O443 1.253 . S
C447 O448 1.227 . S
O448 C447 1.227 . S
N449 Co435 2.133 1_545 S
N449 C452 1.348 . S
N449 C453 1.350 . S
C450 C451 1.387 . S
C450 C454 1.391 . S
C451 C450 1.387 . S
C451 C452 1.369 . S
C451 H460 0.929 . S
C452 N449 1.348 . S
C452 C451 1.369 . S
C452 H455 0.928 1_545 S
C453 N449 1.350 . S
C453 C454 1.371 . S
C453 H456 0.931 . S
C454 C450 1.391 . S
C454 C453 1.371 . S
C454 H461 0.930 . S
H455 C452 0.928 1_565 S
H456 C453 0.931 . S
H457 C433 0.930 . S
H458 C430 0.930 1_545 S
H459 C439 0.930 . S
H460 C451 0.929 . S
H461 C454 0.930 . S
C462 C463 1.351 . S
C462 N465 1.368 . S
C462 H467 0.931 . S
C463 C462 1.351 . S
C463 N464 1.373 . S
C463 H491 0.930 . S
N464 C463 1.373 . S
N464 C466 1.340 . S
N465 C462 1.368 . S
N465 C466 1.321 . S
N465 Co468 2.135 . S
C466 N464 1.340 . S
C466 N465 1.321 . S
C466 H490 0.930 . S
H467 C462 0.931 . S
Co468 N465 2.135 . S
Co468 N471 2.121 . S
Co468 O476 2.055 . S
Co468 O479 2.039 . S
Co468 N482 2.140 . S
C469 O470 1.227 . S
C469 O479 1.265 . S
O470 C469 1.227 . S
N471 Co468 2.121 . S
N471 C473 1.375 . S
N471 C474 1.313 . S
C472 C473 1.338 . S
C472 N475 1.377 . S
C472 H492 0.930 . S
C473 N471 1.375 . S
C473 C472 1.338 . S
C473 H477 0.931 . S
C474 N471 1.313 . S
C474 N475 1.344 . S
C474 H478 0.930 . S
N475 C472 1.377 . S
N475 C474 1.344 . S
O476 Co468 2.055 . S
O476 C480 1.253 . S
H477 C473 0.931 . S
H478 C474 0.930 . S
O479 Co468 2.039 . S
O479 C469 1.265 . S
C480 O476 1.253 . S
C480 O481 1.227 . S
O481 C480 1.227 . S
N482 Co468 2.140 . S
N482 C485 1.346 . S
N482 C486 1.345 . S
C483 C484 1.387 . S
C483 C487 1.391 . S
C484 C483 1.387 . S
C484 C485 1.369 . S
C484 H493 0.929 . S
C485 N482 1.346 . S
C485 C484 1.369 . S
C485 H488 0.928 . S
C486 N482 1.345 . S
C486 C487 1.371 . S
C486 H489 0.931 . S
C487 C483 1.391 . S
C487 C486 1.371 . S
C487 H494 0.930 . S
H488 C485 0.928 . S
H489 C486 0.931 . S
H490 C466 0.930 . S
H491 C463 0.930 . S
H492 C472 0.930 . S
H493 C484 0.929 . S
H494 C487 0.930 . S
C495 C496 1.346 1_554 S
C495 N498 1.369 . S
C495 H500 0.933 . S
C496 C495 1.346 1_556 S
C496 N497 1.373 . S
C496 H524 0.930 . S
N497 C496 1.373 . S
N497 C499 1.340 . S
N498 C495 1.369 . S
N498 C499 1.321 1_554 S
N498 Co501 2.135 . S
C499 N497 1.340 . S
C499 N498 1.321 1_556 S
C499 H523 0.930 . S
H500 C495 0.933 . S
Co501 N498 2.135 . S
Co501 N504 2.121 . S
Co501 O509 2.055 . S
Co501 O512 2.039 . S
Co501 N515 2.140 . S
C502 O503 1.227 . S
C502 O512 1.265 . S
O503 C502 1.227 . S
N504 Co501 2.121 . S
N504 C506 1.375 . S
N504 C507 1.313 . S
C505 C506 1.338 . S
C505 N508 1.377 . S
C505 H525 0.930 . S
C506 N504 1.375 . S
C506 C505 1.338 . S
C506 H510 0.931 . S
C507 N504 1.313 . S
C507 N508 1.344 . S
C507 H511 0.930 . S
N508 C505 1.377 . S
N508 C507 1.344 . S
O509 Co501 2.055 . S
O509 C513 1.253 . S
H510 C506 0.931 . S
H511 C507 0.930 . S
O512 Co501 2.039 . S
O512 C502 1.265 . S
C513 O509 1.253 . S
C513 O514 1.227 . S
O514 C513 1.227 . S
N515 Co501 2.140 . S
N515 C518 1.346 . S
N515 C519 1.345 . S
C516 C517 1.387 . S
C516 C520 1.391 . S
C517 C516 1.387 . S
C517 C518 1.369 . S
C517 H526 0.929 . S
C518 N515 1.346 . S
C518 C517 1.369 . S
C518 H521 0.928 . S
C519 N515 1.345 . S
C519 C520 1.371 . S
C519 H522 0.931 . S
C520 C516 1.391 . S
C520 C519 1.371 . S
C520 H527 0.930 . S
H521 C518 0.928 . S
H522 C519 0.931 . S
H523 C499 0.930 . S
H524 C496 0.930 . S
H525 C505 0.930 . S
H526 C517 0.929 . S
H527 C520 0.930 . S
H528 C536 0.929 . S
H529 C538 0.930 . S
H530 C540 0.930 . S
H531 C543 0.929 . S
H532 C546 0.930 . S
H533 C548 0.960 . S
H534 C548 0.960 . S
H535 C548 0.960 . S
C536 H528 0.929 . S
C536 C537 1.377 . S
C536 C538 1.384 . S
C537 C536 1.377 . S
C537 C543 1.390 . S
C538 H529 0.930 . S
C538 C536 1.384 . S
C538 C539 1.372 . S
C539 C538 1.372 . S
C539 C540 1.400 . S
C539 C544 1.490 . S
C540 H530 0.930 . S
C540 C539 1.400 . S
C540 C543 1.386 . S
H541 C557 0.930 . S
H542 C558 0.931 . S
C543 H531 0.929 . S
C543 C537 1.390 . S
C543 C540 1.386 . S
C544 C539 1.490 . S
C544 C546 1.395 . S
C544 C547 1.403 . S
H545 C551 0.930 . S
C546 H532 0.930 . S
C546 C544 1.395 . S
C546 C549 1.403 . S
C547 C544 1.403 . S
C547 C548 1.524 . S
C547 C551 1.400 . S
C548 H533 0.960 . S
C548 H534 0.960 . S
C548 H535 0.960 . S
C548 C547 1.524 . S
C549 C546 1.403 . S
C549 C550 1.392 . S
C549 C553 1.495 . S
C550 C549 1.392 . S
C550 C551 1.385 . S
C550 C552 1.478 . S
C551 H545 0.930 . S
C551 C547 1.400 . S
C551 C550 1.385 . S
C552 C550 1.478 . S
C552 C554 1.381 . S
C552 C558 1.383 . S
C553 C549 1.495 . S
C553 H559 0.959 . S
C553 H560 0.961 . S
C553 H561 0.960 . S
C554 C552 1.381 . S
C554 C555 1.394 . S
C554 H562 0.930 . S
C555 C554 1.394 . S
C555 C556 1.383 . S
C555 H563 0.929 . S
C556 C555 1.383 . S
C556 C557 1.377 . S
C557 H541 0.930 . S
C557 C556 1.377 . S
C557 C558 1.379 . S
C558 H542 0.931 . S
C558 C552 1.383 . S
C558 C557 1.379 . S
H559 C553 0.959 . S
H560 C553 0.961 . S
H561 C553 0.960 . S
H562 C554 0.930 . S
H563 C555 0.929 . S
H564 C572 0.929 . S
H565 C574 0.930 . S
H566 C576 0.930 . S
H567 C579 0.929 . S
H568 C582 0.930 . S
H569 C584 0.960 . S
H570 C584 0.960 . S
H571 C584 0.960 . S
C572 H564 0.929 . S
C572 C573 1.377 . S
C572 C574 1.384 . S
C573 C572 1.377 . S
C573 C579 1.390 . S
C574 H565 0.930 . S
C574 C572 1.384 . S
C574 C575 1.372 . S
C575 C574 1.372 . S
C575 C576 1.400 . S
C575 C580 1.490 . S
C576 H566 0.930 . S
C576 C575 1.400 . S
C576 C579 1.386 . S
H577 C593 0.930 . S
H578 C594 0.931 . S
C579 H567 0.929 . S
C579 C573 1.390 . S
C579 C576 1.386 . S
C580 C575 1.490 . S
C580 C582 1.395 . S
C580 C583 1.403 . S
H581 C587 0.930 . S
C582 H568 0.930 . S
C582 C580 1.395 . S
C582 C585 1.403 . S
C583 C580 1.403 . S
C583 C584 1.524 . S
C583 C587 1.400 . S
C584 H569 0.960 . S
C584 H570 0.960 . S
C584 H571 0.960 . S
C584 C583 1.524 . S
C585 C582 1.403 . S
C585 C586 1.392 . S
C585 C589 1.495 . S
C586 C585 1.392 . S
C586 C587 1.385 . S
C586 C588 1.478 . S
C587 H581 0.930 . S
C587 C583 1.400 . S
C587 C586 1.385 . S
C588 C586 1.478 . S
C588 C590 1.381 . S
C588 C594 1.383 . S
C589 C585 1.495 . S
C589 H595 0.959 . S
C589 H596 0.961 . S
C589 H597 0.960 . S
C590 C588 1.381 . S
C590 C591 1.394 . S
C590 H598 0.930 . S
C591 C590 1.394 . S
C591 C592 1.383 . S
C591 H599 0.929 . S
C592 C591 1.383 . S
C592 C593 1.377 . S
C593 H577 0.930 . S
C593 C592 1.377 . S
C593 C594 1.379 . S
C594 H578 0.931 . S
C594 C588 1.383 . S
C594 C593 1.379 . S
H595 C589 0.959 . S
H596 C589 0.961 . S
H597 C589 0.960 . S
H598 C590 0.930 . S
H599 C591 0.929 . S
H600 C608 0.929 . S
H601 C610 0.930 . S
H602 C612 0.930 . S
H603 C615 0.929 . S
H604 C618 0.930 . S
H605 C620 0.960 . S
H606 C620 0.960 . S
H607 C620 0.960 . S
C608 H600 0.929 . S
C608 C609 1.377 . S
C608 C610 1.384 . S
C609 C608 1.377 . S
C609 C615 1.390 . S
C610 H601 0.930 . S
C610 C608 1.384 . S
C610 C611 1.372 . S
C611 C610 1.372 . S
C611 C612 1.400 . S
C611 C616 1.490 . S
C612 H602 0.930 . S
C612 C611 1.400 . S
C612 C615 1.386 . S
H613 C629 0.930 . S
H614 C630 0.931 . S
C615 H603 0.929 . S
C615 C609 1.390 . S
C615 C612 1.386 . S
C616 C611 1.490 . S
C616 C618 1.395 . S
C616 C619 1.403 . S
H617 C623 0.930 . S
C618 H604 0.930 . S
C618 C616 1.395 . S
C618 C621 1.403 . S
C619 C616 1.403 . S
C619 C620 1.524 . S
C619 C623 1.400 . S
C620 H605 0.960 . S
C620 H606 0.960 . S
C620 H607 0.960 . S
C620 C619 1.524 . S
C621 C618 1.403 . S
C621 C622 1.392 . S
C621 C625 1.495 . S
C622 C621 1.392 . S
C622 C623 1.385 . S
C622 C624 1.478 . S
C623 H617 0.930 . S
C623 C619 1.400 . S
C623 C622 1.385 . S
C624 C622 1.478 . S
C624 C626 1.381 . S
C624 C630 1.383 . S
C625 C621 1.495 . S
C625 H631 0.959 . S
C625 H632 0.961 . S
C625 H633 0.960 . S
C626 C624 1.381 . S
C626 C627 1.394 . S
C626 H634 0.930 . S
C627 C626 1.394 . S
C627 C628 1.383 . S
C627 H635 0.929 . S
C628 C627 1.383 . S
C628 C629 1.377 . S
C629 H613 0.930 . S
C629 C628 1.377 . S
C629 C630 1.379 . S
C630 H614 0.931 . S
C630 C624 1.383 . S
C630 C629 1.379 . S
H631 C625 0.959 . S
H632 C625 0.961 . S
H633 C625 0.960 . S
H634 C626 0.930 . S
H635 C627 0.929 . S
H636 C644 0.929 . S
H637 C646 0.930 . S
H638 C648 0.930 . S
H639 C651 0.929 . S
H640 C654 0.930 . S
H641 C656 0.960 . S
H642 C656 0.960 . S
H643 C656 0.960 . S
C644 H636 0.929 . S
C644 C645 1.377 . S
C644 C646 1.384 . S
C645 C644 1.377 . S
C645 C651 1.390 . S
C646 H637 0.930 . S
C646 C644 1.384 . S
C646 C647 1.372 . S
C647 C646 1.372 . S
C647 C648 1.400 . S
C647 C652 1.490 . S
C648 H638 0.930 . S
C648 C647 1.400 . S
C648 C651 1.386 . S
H649 C665 0.930 . S
H650 C666 0.931 . S
C651 H639 0.929 . S
C651 C645 1.390 . S
C651 C648 1.386 . S
C652 C647 1.490 . S
C652 C654 1.395 . S
C652 C655 1.403 . S
H653 C659 0.930 . S
C654 H640 0.930 . S
C654 C652 1.395 . S
C654 C657 1.403 . S
C655 C652 1.403 . S
C655 C656 1.524 . S
C655 C659 1.400 . S
C656 H641 0.960 . S
C656 H642 0.960 . S
C656 H643 0.960 . S
C656 C655 1.524 . S
C657 C654 1.403 . S
C657 C658 1.392 . S
C657 C661 1.495 . S
C658 C657 1.392 . S
C658 C659 1.385 . S
C658 C660 1.478 . S
C659 H653 0.930 . S
C659 C655 1.400 . S
C659 C658 1.385 . S
C660 C658 1.478 . S
C660 C662 1.381 . S
C660 C666 1.383 . S
C661 C657 1.495 . S
C661 H667 0.959 . S
C661 H668 0.961 . S
C661 H669 0.960 . S
C662 C660 1.381 . S
C662 C663 1.394 . S
C662 H670 0.930 . S
C663 C662 1.394 . S
C663 C664 1.383 . S
C663 H671 0.929 . S
C664 C663 1.383 . S
C664 C665 1.377 . S
C665 H649 0.930 . S
C665 C664 1.377 . S
C665 C666 1.379 . S
C666 H650 0.931 . S
C666 C660 1.383 . S
C666 C665 1.379 . S
H667 C661 0.959 . S
H668 C661 0.961 . S
H669 C661 0.960 . S
H670 C662 0.930 . S
H671 C663 0.929 . S
H672 C680 0.929 . S
H673 C682 0.930 . S
H674 C684 0.930 . S
H675 C687 0.929 . S
H676 C690 0.930 . S
H677 C692 0.960 . S
H678 C692 0.960 . S
H679 C692 0.960 . S
C680 H672 0.929 . S
C680 C681 1.377 . S
C680 C682 1.384 . S
C681 C680 1.377 . S
C681 C687 1.390 . S
C682 H673 0.930 . S
C682 C680 1.384 . S
C682 C683 1.372 . S
C683 C682 1.372 . S
C683 C684 1.400 . S
C683 C688 1.490 . S
C684 H674 0.930 . S
C684 C683 1.400 . S
C684 C687 1.386 . S
H685 C701 0.930 . S
H686 C702 0.931 . S
C687 H675 0.929 . S
C687 C681 1.390 . S
C687 C684 1.386 . S
C688 C683 1.490 . S
C688 C690 1.395 . S
C688 C691 1.403 . S
H689 C695 0.930 . S
C690 H676 0.930 . S
C690 C688 1.395 . S
C690 C693 1.403 . S
C691 C688 1.403 . S
C691 C692 1.524 . S
C691 C695 1.400 . S
C692 H677 0.960 . S
C692 H678 0.960 . S
C692 H679 0.960 . S
C692 C691 1.524 . S
C693 C690 1.403 . S
C693 C694 1.392 . S
C693 C697 1.495 . S
C694 C693 1.392 . S
C694 C695 1.385 . S
C694 C696 1.478 . S
C695 H689 0.930 . S
C695 C691 1.400 . S
C695 C694 1.385 . S
C696 C694 1.478 . S
C696 C698 1.381 . S
C696 C702 1.383 . S
C697 C693 1.495 . S
C697 H703 0.959 . S
C697 H704 0.961 . S
C697 H705 0.960 . S
C698 C696 1.381 . S
C698 C699 1.394 . S
C698 H706 0.930 . S
C699 C698 1.394 . S
C699 C700 1.383 . S
C699 H707 0.929 . S
C700 C699 1.383 . S
C700 C701 1.377 . S
C701 H685 0.930 . S
C701 C700 1.377 . S
C701 C702 1.379 . S
C702 H686 0.931 . S
C702 C696 1.383 . S
C702 C701 1.379 . S
H703 C697 0.959 . S
H704 C697 0.961 . S
H705 C697 0.960 . S
H706 C698 0.930 . S
H707 C699 0.929 . S
H708 C716 0.929 . S
H709 C718 0.930 . S
H710 C720 0.930 . S
H711 C723 0.929 . S
H712 C726 0.930 . S
H713 C728 0.960 . S
H714 C728 0.960 . S
H715 C728 0.960 . S
C716 H708 0.929 . S
C716 C717 1.377 . S
C716 C718 1.384 . S
C717 C716 1.377 . S
C717 C723 1.390 . S
C718 H709 0.930 . S
C718 C716 1.384 . S
C718 C719 1.372 . S
C719 C718 1.372 . S
C719 C720 1.400 . S
C719 C724 1.490 . S
C720 H710 0.930 . S
C720 C719 1.400 . S
C720 C723 1.386 . S
H721 C737 0.930 . S
H722 C738 0.931 . S
C723 H711 0.929 . S
C723 C717 1.390 . S
C723 C720 1.386 . S
C724 C719 1.490 . S
C724 C726 1.395 . S
C724 C727 1.403 . S
H725 C731 0.930 . S
C726 H712 0.930 . S
C726 C724 1.395 . S
C726 C729 1.403 . S
C727 C724 1.403 . S
C727 C728 1.524 . S
C727 C731 1.400 . S
C728 H713 0.960 . S
C728 H714 0.960 . S
C728 H715 0.960 . S
C728 C727 1.524 . S
C729 C726 1.403 . S
C729 C730 1.392 . S
C729 C733 1.495 . S
C730 C729 1.392 . S
C730 C731 1.385 . S
C730 C732 1.478 . S
C731 H725 0.930 . S
C731 C727 1.400 . S
C731 C730 1.385 . S
C732 C730 1.478 . S
C732 C734 1.381 . S
C732 C738 1.383 . S
C733 C729 1.495 . S
C733 H739 0.959 . S
C733 H740 0.961 . S
C733 H741 0.960 . S
C734 C732 1.381 . S
C734 C735 1.394 . S
C734 H742 0.930 . S
C735 C734 1.394 . S
C735 C736 1.383 . S
C735 H743 0.929 . S
C736 C735 1.383 . S
C736 C737 1.377 . S
C737 H721 0.930 . S
C737 C736 1.377 . S
C737 C738 1.379 . S
C738 H722 0.931 . S
C738 C732 1.383 . S
C738 C737 1.379 . S
H739 C733 0.959 . S
H740 C733 0.961 . S
H741 C733 0.960 . S
H742 C734 0.930 . S
H743 C735 0.929 . S
H744 C752 0.929 . S
H745 C754 0.930 . S
H746 C756 0.930 . S
H747 C759 0.929 . S
H748 C762 0.930 . S
H749 C764 0.960 . S
H750 C764 0.960 . S
H751 C764 0.960 . S
C752 H744 0.929 . S
C752 C753 1.377 . S
C752 C754 1.384 . S
C753 C752 1.377 . S
C753 C759 1.390 . S
C754 H745 0.930 . S
C754 C752 1.384 . S
C754 C755 1.372 . S
C755 C754 1.372 . S
C755 C756 1.400 . S
C755 C760 1.490 . S
C756 H746 0.930 . S
C756 C755 1.400 . S
C756 C759 1.386 . S
H757 C773 0.930 . S
H758 C774 0.931 . S
C759 H747 0.929 . S
C759 C753 1.390 . S
C759 C756 1.386 . S
C760 C755 1.490 . S
C760 C762 1.395 . S
C760 C763 1.403 . S
H761 C767 0.930 . S
C762 H748 0.930 . S
C762 C760 1.395 . S
C762 C765 1.403 . S
C763 C760 1.403 . S
C763 C764 1.524 . S
C763 C767 1.400 . S
C764 H749 0.960 . S
C764 H750 0.960 . S
C764 H751 0.960 . S
C764 C763 1.524 . S
C765 C762 1.403 . S
C765 C766 1.392 . S
C765 C769 1.495 . S
C766 C765 1.392 . S
C766 C767 1.385 . S
C766 C768 1.478 . S
C767 H761 0.930 . S
C767 C763 1.400 . S
C767 C766 1.385 . S
C768 C766 1.478 . S
C768 C770 1.381 . S
C768 C774 1.383 . S
C769 C765 1.495 . S
C769 H775 0.959 . S
C769 H776 0.961 . S
C769 H777 0.960 . S
C770 C768 1.381 . S
C770 C771 1.394 . S
C770 H778 0.930 . S
C771 C770 1.394 . S
C771 C772 1.383 . S
C771 H779 0.929 . S
C772 C771 1.383 . S
C772 C773 1.377 . S
C773 H757 0.930 . S
C773 C772 1.377 . S
C773 C774 1.379 . S
C774 H758 0.931 . S
C774 C768 1.383 . S
C774 C773 1.379 . S
H775 C769 0.959 . S
H776 C769 0.961 . S
H777 C769 0.960 . S
H778 C770 0.930 . S
H779 C771 0.929 . S
H780 C788 0.929 . S
H781 C790 0.930 . S
H782 C792 0.930 . S
H783 C795 0.929 . S
H784 C798 0.930 . S
H785 C800 0.960 . S
H786 C800 0.960 . S
H787 C800 0.960 . S
C788 H780 0.929 . S
C788 C789 1.377 . S
C788 C790 1.384 . S
C789 C788 1.377 . S
C789 C795 1.390 . S
C790 H781 0.930 . S
C790 C788 1.384 . S
C790 C791 1.372 . S
C791 C790 1.372 . S
C791 C792 1.400 . S
C791 C796 1.490 . S
C792 H782 0.930 . S
C792 C791 1.400 . S
C792 C795 1.386 . S
H793 C809 0.930 . S
H794 C810 0.931 . S
C795 H783 0.929 . S
C795 C789 1.390 . S
C795 C792 1.386 . S
C796 C791 1.490 . S
C796 C798 1.395 . S
C796 C799 1.403 . S
H797 C803 0.930 . S
C798 H784 0.930 . S
C798 C796 1.395 . S
C798 C801 1.403 . S
C799 C796 1.403 . S
C799 C800 1.524 1_556 S
C799 C803 1.400 . S
C800 H785 0.960 . S
C800 H786 0.960 . S
C800 H787 0.960 . S
C800 C799 1.524 1_554 S
C801 C798 1.403 . S
C801 C802 1.392 . S
C801 C805 1.495 . S
C802 C801 1.392 . S
C802 C803 1.385 . S
C802 C804 1.478 . S
C803 H797 0.930 . S
C803 C799 1.400 . S
C803 C802 1.385 . S
C804 C802 1.478 . S
C804 C806 1.381 . S
C804 C810 1.383 . S
C805 C801 1.495 . S
C805 H811 0.959 . S
C805 H812 0.961 . S
C805 H813 0.960 . S
C806 C804 1.381 . S
C806 C807 1.394 . S
C806 H814 0.930 . S
C807 C806 1.394 . S
C807 C808 1.383 . S
C807 H815 0.929 . S
C808 C807 1.383 . S
C808 C809 1.377 . S
C809 H793 0.930 . S
C809 C808 1.377 . S
C809 C810 1.379 . S
C810 H794 0.931 . S
C810 C804 1.383 . S
C810 C809 1.379 . S
H811 C805 0.959 . S
H812 C805 0.961 . S
H813 C805 0.960 . S
H814 C806 0.930 . S
H815 C807 0.929 . S
H816 C824 0.929 . S
H817 C826 0.930 . S
H818 C828 0.930 . S
H819 C831 0.929 . S
H820 C834 0.930 . S
H821 C836 0.960 . S
H822 C836 0.960 . S
H823 C836 0.960 . S
C824 H816 0.929 . S
C824 C825 1.377 . S
C824 C826 1.384 . S
C825 C824 1.377 . S
C825 C831 1.390 . S
C826 H817 0.930 . S
C826 C824 1.384 . S
C826 C827 1.372 . S
C827 C826 1.372 . S
C827 C828 1.400 . S
C827 C832 1.490 . S
C828 H818 0.930 . S
C828 C827 1.400 . S
C828 C831 1.386 . S
H829 C845 0.930 . S
H830 C846 0.931 . S
C831 H819 0.929 . S
C831 C825 1.390 . S
C831 C828 1.386 . S
C832 C827 1.490 . S
C832 C834 1.395 1_554 S
C832 C835 1.403 . S
H833 C839 0.930 . S
C834 H820 0.930 . S
C834 C832 1.395 1_556 S
C834 C837 1.403 . S
C835 C832 1.403 . S
C835 C836 1.524 . S
C835 C839 1.400 . S
C836 H821 0.960 . S
C836 H822 0.960 . S
C836 H823 0.960 . S
C836 C835 1.524 . S
C837 C834 1.403 . S
C837 C838 1.392 . S
C837 C841 1.495 . S
C838 C837 1.392 . S
C838 C839 1.385 1_556 S
C838 C840 1.478 . S
C839 H833 0.930 . S
C839 C835 1.400 . S
C839 C838 1.385 1_554 S
C840 C838 1.478 . S
C840 C842 1.381 . S
C840 C846 1.383 . S
C841 C837 1.495 . S
C841 H847 0.959 . S
C841 H848 0.961 . S
C841 H849 0.960 . S
C842 C840 1.381 . S
C842 C843 1.394 . S
C842 H850 0.930 . S
C843 C842 1.394 . S
C843 C844 1.383 . S
C843 H851 0.929 . S
C844 C843 1.383 . S
C844 C845 1.377 . S
C845 H829 0.930 . S
C845 C844 1.377 . S
C845 C846 1.379 . S
C846 H830 0.931 . S
C846 C840 1.383 . S
C846 C845 1.379 . S
H847 C841 0.959 . S
H848 C841 0.961 . S
H849 C841 0.960 . S
H850 C842 0.930 . S
H851 C843 0.929 . S
H852 C860 0.929 . S
H853 C862 0.930 . S
H854 C864 0.930 . S
H855 C867 0.929 . S
H856 C870 0.930 . S
H857 C872 0.960 . S
H858 C872 0.960 . S
H859 C872 0.960 . S
C860 H852 0.929 . S
C860 C861 1.377 . S
C860 C862 1.384 . S
C861 C860 1.377 . S
C861 C867 1.390 . S
C862 H853 0.930 . S
C862 C860 1.384 . S
C862 C863 1.372 . S
C863 C862 1.372 . S
C863 C864 1.400 . S
C863 C868 1.490 . S
C864 H854 0.930 . S
C864 C863 1.400 . S
C864 C867 1.386 . S
H865 C881 0.930 . S
H866 C882 0.931 . S
C867 H855 0.929 . S
C867 C861 1.390 . S
C867 C864 1.386 . S
C868 C863 1.490 . S
C868 C870 1.395 . S
C868 C871 1.403 . S
H869 C875 0.930 . S
C870 H856 0.930 . S
C870 C868 1.395 . S
C870 C873 1.403 . S
C871 C868 1.403 . S
C871 C872 1.524 . S
C871 C875 1.400 . S
C872 H857 0.960 . S
C872 H858 0.960 . S
C872 H859 0.960 . S
C872 C871 1.524 . S
C873 C870 1.403 . S
C873 C874 1.392 . S
C873 C877 1.495 . S
C874 C873 1.392 . S
C874 C875 1.385 . S
C874 C876 1.478 . S
C875 H869 0.930 . S
C875 C871 1.400 . S
C875 C874 1.385 . S
C876 C874 1.478 . S
C876 C878 1.381 . S
C876 C882 1.383 . S
C877 C873 1.495 . S
C877 H883 0.959 . S
C877 H884 0.961 . S
C877 H885 0.960 . S
C878 C876 1.381 . S
C878 C879 1.394 . S
C878 H886 0.930 . S
C879 C878 1.394 . S
C879 C880 1.383 . S
C879 H887 0.929 . S
C880 C879 1.383 . S
C880 C881 1.377 . S
C881 H865 0.930 . S
C881 C880 1.377 . S
C881 C882 1.379 . S
C882 H866 0.931 . S
C882 C876 1.383 . S
C882 C881 1.379 . S
H883 C877 0.959 . S
H884 C877 0.961 . S
H885 C877 0.960 . S
H886 C878 0.930 . S
H887 C879 0.929 . S
H888 C896 0.929 . S
H889 C898 0.930 . S
H890 C900 0.930 1_556 S
H891 C903 0.929 . S
H892 C906 0.930 . S
H893 C908 0.960 . S
H894 C908 0.960 . S
H895 C908 0.960 . S
C896 H888 0.929 . S
C896 C897 1.377 . S
C896 C898 1.384 . S
C897 C896 1.377 . S
C897 C903 1.390 . S
C898 H889 0.930 . S
C898 C896 1.384 . S
C898 C899 1.372 . S
C899 C898 1.372 . S
C899 C900 1.400 . S
C899 C904 1.490 . S
C900 H890 0.930 1_554 S
C900 C899 1.400 . S
C900 C903 1.386 . S
H901 C917 0.930 . S
H902 C918 0.931 . S
C903 H891 0.929 . S
C903 C897 1.390 . S
C903 C900 1.386 . S
C904 C899 1.490 . S
C904 C906 1.389 1_554 S
C904 C907 1.403 . S
H905 C911 0.930 . S
C906 H892 0.930 . S
C906 C904 1.389 1_556 S
C906 C909 1.408 . S
C907 C904 1.403 . S
C907 C908 1.524 . S
C907 C911 1.400 . S
C908 H893 0.960 . S
C908 H894 0.960 . S
C908 H895 0.960 . S
C908 C907 1.524 . S
C909 C906 1.408 . S
C909 C910 1.392 . S
C909 C913 1.495 . S
C910 C909 1.392 . S
C910 C911 1.385 1_556 S
C910 C912 1.478 . S
C911 H905 0.930 . S
C911 C907 1.400 . S
C911 C910 1.385 1_554 S
C912 C910 1.478 . S
C912 C914 1.381 . S
C912 C918 1.383 . S
C913 C909 1.495 . S
C913 H919 0.959 . S
C913 H920 0.961 . S
C913 H921 0.960 . S
C914 C912 1.381 . S
C914 C915 1.394 . S
C914 H922 0.930 1_556 S
C915 C914 1.394 . S
C915 C916 1.383 . S
C915 H923 0.929 . S
C916 C915 1.383 . S
C916 C917 1.377 . S
C917 H901 0.930 . S
C917 C916 1.377 . S
C917 C918 1.379 . S
C918 H902 0.931 . S
C918 C912 1.383 . S
C918 C917 1.379 . S
H919 C913 0.959 . S
H920 C913 0.961 . S
H921 C913 0.960 . S
H922 C914 0.930 1_554 S
H923 C915 0.929 . S
H924 C932 0.929 . S
H925 C934 0.930 . S
H926 C936 0.930 . S
H927 C939 0.929 . S
H928 C942 0.930 . S
H929 C944 0.960 . S
H930 C944 0.960 . S
H931 C944 0.960 . S
C932 H924 0.929 . S
C932 C933 1.377 . S
C932 C934 1.384 . S
C933 C932 1.377 . S
C933 C939 1.390 . S
C934 H925 0.930 . S
C934 C932 1.384 . S
C934 C935 1.372 . S
C935 C934 1.372 . S
C935 C936 1.400 . S
C935 C940 1.490 . S
C936 H926 0.930 . S
C936 C935 1.400 . S
C936 C939 1.386 . S
H937 C953 0.930 . S
H938 C954 0.931 . S
C939 H927 0.929 . S
C939 C933 1.390 . S
C939 C936 1.386 . S
C940 C935 1.490 . S
C940 C942 1.395 . S
C940 C943 1.403 . S
H941 C947 0.930 . S
C942 H928 0.930 . S
C942 C940 1.395 . S
C942 C945 1.403 . S
C943 C940 1.403 . S
C943 C944 1.524 . S
C943 C947 1.400 . S
C944 H929 0.960 . S
C944 H930 0.960 . S
C944 H931 0.960 . S
C944 C943 1.524 . S
C945 C942 1.403 . S
C945 C946 1.392 . S
C945 C949 1.495 . S
C946 C945 1.392 . S
C946 C947 1.385 . S
C946 C948 1.478 . S
C947 H941 0.930 . S
C947 C943 1.400 . S
C947 C946 1.385 . S
C948 C946 1.478 . S
C948 C950 1.381 . S
C948 C954 1.383 . S
C949 C945 1.495 . S
C949 H955 0.959 . S
C949 H956 0.961 . S
C949 H957 0.960 . S
C950 C948 1.381 . S
C950 C951 1.394 . S
C950 H958 0.930 . S
C951 C950 1.394 . S
C951 C952 1.383 . S
C951 H959 0.929 . S
C952 C951 1.383 . S
C952 C953 1.377 . S
C953 H937 0.930 . S
C953 C952 1.377 . S
C953 C954 1.379 . S
C954 H938 0.931 . S
C954 C948 1.383 . S
C954 C953 1.379 . S
H955 C949 0.959 . S
H956 C949 0.961 . S
H957 C949 0.960 . S
H958 C950 0.930 . S
H959 C951 0.929 . S
H960 C968 0.929 . S
H961 C970 0.930 1_556 S
H962 C972 0.930 . S
H963 C975 0.929 . S
H964 C978 0.930 . S
H965 C980 0.960 . S
H966 C980 0.960 . S
H967 C980 0.960 . S
C968 H960 0.929 . S
C968 C969 1.377 . S
C968 C970 1.384 . S
C969 C968 1.377 . S
C969 C975 1.390 . S
C970 H961 0.930 1_554 S
C970 C968 1.384 . S
C970 C971 1.372 . S
C971 C970 1.372 . S
C971 C972 1.400 . S
C971 C976 1.490 . S
C972 H962 0.930 . S
C972 C971 1.400 . S
C972 C975 1.386 . S
H973 C989 0.930 . S
H974 C990 0.931 1_554 S
C975 H963 0.929 . S
C975 C969 1.390 . S
C975 C972 1.386 . S
C976 C971 1.490 . S
C976 C978 1.395 . S
C976 C979 1.403 1_554 S
H977 C983 0.930 . S
C978 H964 0.930 . S
C978 C976 1.395 . S
C978 C981 1.403 . S
C979 C976 1.403 1_556 S
C979 C980 1.524 . S
C979 C983 1.400 . S
C980 H965 0.960 . S
C980 H966 0.960 . S
C980 H967 0.960 . S
C980 C979 1.524 . S
C981 C978 1.403 . S
C981 C982 1.392 1_554 S
C981 C985 1.495 . S
C982 C981 1.392 1_556 S
C982 C983 1.385 . S
C982 C984 1.478 . S
C983 H977 0.930 . S
C983 C979 1.400 . S
C983 C982 1.385 . S
C984 C982 1.478 . S
C984 C986 1.381 . S
C984 C990 1.383 . S
C985 C981 1.495 . S
C985 H991 0.959 . S
C985 H992 0.961 . S
C985 H993 0.960 . S
C986 C984 1.381 . S
C986 C987 1.394 . S
C986 H994 0.930 . S
C987 C986 1.394 . S
C987 C988 1.383 . S
C987 H995 0.929 . S
C988 C987 1.383 . S
C988 C989 1.377 . S
C989 H973 0.930 . S
C989 C988 1.377 . S
C989 C990 1.379 . S
C990 H974 0.931 1_556 S
C990 C984 1.383 . S
C990 C989 1.379 . S
H991 C985 0.959 . S
H992 C985 0.961 . S
H993 C985 0.960 . S
H994 C986 0.930 . S
H995 C987 0.929 . S
H996 C1004 0.929 . S
H997 C1006 0.930 . S
H998 C1008 0.930 . S
H999 C1011 0.929 . S
H1000 C1014 0.930 . S
H1001 C1016 0.960 . S
H1002 C1016 0.960 . S
H1003 C1016 0.960 . S
C1004 H996 0.929 . S
C1004 C1005 1.377 . S
C1004 C1006 1.384 . S
C1005 C1004 1.377 . S
C1005 C1011 1.390 . S
C1006 H997 0.930 . S
C1006 C1004 1.384 . S
C1006 C1007 1.372 . S
C1007 C1006 1.372 . S
C1007 C1008 1.400 . S
C1007 C1012 1.490 . S
C1008 H998 0.930 . S
C1008 C1007 1.400 . S
C1008 C1011 1.386 . S
H1009 C1025 0.930 . S
H1010 C1026 0.931 . S
C1011 H999 0.929 . S
C1011 C1005 1.390 . S
C1011 C1008 1.386 . S
C1012 C1007 1.490 . S
C1012 C1014 1.395 . S
C1012 C1015 1.403 . S
H1013 C1019 0.930 . S
C1014 H1000 0.930 . S
C1014 C1012 1.395 . S
C1014 C1017 1.403 . S
C1015 C1012 1.403 . S
C1015 C1016 1.524 . S
C1015 C1019 1.400 . S
C1016 H1001 0.960 . S
C1016 H1002 0.960 . S
C1016 H1003 0.960 . S
C1016 C1015 1.524 . S
C1017 C1014 1.403 . S
C1017 C1018 1.392 . S
C1017 C1021 1.495 . S
C1018 C1017 1.392 . S
C1018 C1019 1.385 . S
C1018 C1020 1.478 . S
C1019 H1013 0.930 . S
C1019 C1015 1.400 . S
C1019 C1018 1.385 . S
C1020 C1018 1.478 . S
C1020 C1022 1.381 . S
C1020 C1026 1.383 . S
C1021 C1017 1.495 . S
C1021 H1027 0.959 . S
C1021 H1028 0.961 . S
C1021 H1029 0.960 . S
C1022 C1020 1.381 . S
C1022 C1023 1.394 . S
C1022 H1030 0.930 . S
C1023 C1022 1.394 . S
C1023 C1024 1.383 . S
C1023 H1031 0.929 . S
C1024 C1023 1.383 . S
C1024 C1025 1.377 . S
C1025 H1009 0.930 . S
C1025 C1024 1.377 . S
C1025 C1026 1.379 . S
C1026 H1010 0.931 . S
C1026 C1020 1.383 . S
C1026 C1025 1.379 . S
H1027 C1021 0.959 . S
H1028 C1021 0.961 . S
H1029 C1021 0.960 . S
H1030 C1022 0.930 . S
H1031 C1023 0.929 . S
H1032 C1040 0.929 . S
H1033 C1042 0.930 . S
H1034 C1044 0.930 . S
H1035 C1047 0.929 1_556 S
H1036 C1050 0.930 . S
H1037 C1052 0.960 . S
H1038 C1052 0.960 1_554 S
H1039 C1052 0.960 . S
C1040 H1032 0.929 . S
C1040 C1041 1.377 . S
C1040 C1042 1.384 . S
C1041 C1040 1.377 . S
C1041 C1047 1.390 . S
C1042 H1033 0.930 . S
C1042 C1040 1.384 . S
C1042 C1043 1.372 . S
C1043 C1042 1.372 . S
C1043 C1044 1.400 1_554 S
C1043 C1048 1.490 . S
C1044 H1034 0.930 . S
C1044 C1043 1.400 1_556 S
C1044 C1047 1.386 1_556 S
H1045 C1061 0.930 . S
H1046 C1062 0.931 . S
C1047 H1035 0.929 1_554 S
C1047 C1041 1.390 . S
C1047 C1044 1.386 1_554 S
C1048 C1043 1.490 . S
C1048 C1050 1.395 . S
C1048 C1051 1.403 1_554 S
H1049 C1055 0.930 . S
C1050 H1036 0.930 . S
C1050 C1048 1.395 . S
C1050 C1053 1.403 . S
C1051 C1048 1.403 1_556 S
C1051 C1052 1.524 . S
C1051 C1055 1.400 . S
C1052 H1037 0.960 . S
C1052 H1038 0.960 1_556 S
C1052 H1039 0.960 . S
C1052 C1051 1.524 . S
C1053 C1050 1.403 . S
C1053 C1054 1.392 1_554 S
C1053 C1057 1.495 . S
C1054 C1053 1.392 1_556 S
C1054 C1055 1.385 . S
C1054 C1056 1.478 . S
C1055 H1049 0.930 . S
C1055 C1051 1.400 . S
C1055 C1054 1.385 . S
C1056 C1054 1.478 . S
C1056 C1058 1.381 1_556 S
C1056 C1062 1.383 . S
C1057 C1053 1.495 . S
C1057 H1063 0.959 . S
C1057 H1064 0.961 1_554 S
C1057 H1065 0.960 . S
C1058 C1056 1.381 1_554 S
C1058 C1059 1.394 1_554 S
C1058 H1066 0.930 . S
C1059 C1058 1.394 1_556 S
C1059 C1060 1.383 . S
C1059 H1067 0.929 1_556 S
C1060 C1059 1.383 . S
C1060 C1061 1.377 . S
C1061 H1045 0.930 . S
C1061 C1060 1.377 . S
C1061 C1062 1.379 . S
C1062 H1046 0.931 . S
C1062 C1056 1.383 . S
C1062 C1061 1.379 . S
H1063 C1057 0.959 . S
H1064 C1057 0.961 1_556 S
H1065 C1057 0.960 . S
H1066 C1058 0.930 . S
H1067 C1059 0.929 1_554 S
H1068 C1076 0.929 . S
H1069 C1078 0.930 . S
H1070 C1080 0.930 . S
H1071 C1083 0.929 . S
H1072 C1086 0.930 . S
H1073 C1088 0.960 . S
H1074 C1088 0.960 . S
H1075 C1088 0.960 . S
C1076 H1068 0.929 . S
C1076 C1077 1.377 . S
C1076 C1078 1.384 . S
C1077 C1076 1.377 . S
C1077 C1083 1.390 . S
C1078 H1069 0.930 . S
C1078 C1076 1.384 . S
C1078 C1079 1.372 . S
C1079 C1078 1.372 . S
C1079 C1080 1.400 . S
C1079 C1084 1.490 . S
C1080 H1070 0.930 . S
C1080 C1079 1.400 . S
C1080 C1083 1.386 . S
H1081 C1097 0.930 . S
H1082 C1098 0.931 . S
C1083 H1071 0.929 . S
C1083 C1077 1.390 . S
C1083 C1080 1.386 . S
C1084 C1079 1.490 . S
C1084 C1086 1.395 . S
C1084 C1087 1.403 . S
H1085 C1091 0.930 . S
C1086 H1072 0.930 . S
C1086 C1084 1.395 . S
C1086 C1089 1.403 . S
C1087 C1084 1.403 . S
C1087 C1088 1.524 . S
C1087 C1091 1.400 . S
C1088 H1073 0.960 . S
C1088 H1074 0.960 . S
C1088 H1075 0.960 . S
C1088 C1087 1.524 . S
C1089 C1086 1.403 . S
C1089 C1090 1.392 . S
C1089 C1093 1.495 . S
C1090 C1089 1.392 . S
C1090 C1091 1.385 . S
C1090 C1092 1.478 . S
C1091 H1085 0.930 . S
C1091 C1087 1.400 . S
C1091 C1090 1.385 . S
C1092 C1090 1.478 . S
C1092 C1094 1.381 . S
C1092 C1098 1.383 . S
C1093 C1089 1.495 . S
C1093 H1099 0.959 . S
C1093 H1100 0.961 . S
C1093 H1101 0.960 . S
C1094 C1092 1.381 . S
C1094 C1095 1.394 . S
C1094 H1102 0.930 . S
C1095 C1094 1.394 . S
C1095 C1096 1.383 . S
C1095 H1103 0.929 . S
C1096 C1095 1.383 . S
C1096 C1097 1.377 . S
C1097 H1081 0.930 . S
C1097 C1096 1.377 . S
C1097 C1098 1.379 . S
C1098 H1082 0.931 . S
C1098 C1092 1.383 . S
C1098 C1097 1.379 . S
H1099 C1093 0.959 . S
H1100 C1093 0.961 . S
H1101 C1093 0.960 . S
H1102 C1094 0.930 . S
H1103 C1095 0.929 . S
H1104 C1112 0.980 . S
H1105 C1114 0.930 . S
H1106 C1116 0.930 . S
H1107 C1119 0.929 . S
H1108 C1122 0.930 1_655 S
H1109 C1124 0.960 . S
H1110 C1124 0.960 . S
H1111 C1124 0.960 . S
C1112 H1104 0.980 . S
C1112 C1113 1.327 1_655 S
C1112 C1114 1.386 . S
C1113 C1112 1.327 1_455 S
C1113 C1119 1.390 . S
C1114 H1105 0.930 . S
C1114 C1112 1.386 . S
C1114 C1115 1.372 1_655 S
C1115 C1114 1.372 1_455 S
C1115 C1116 1.400 . S
C1115 C1120 1.490 . S
C1116 H1106 0.930 . S
C1116 C1115 1.400 . S
C1116 C1119 1.386 . S
H1117 C1133 0.930 . S
H1118 C1134 0.931 . S
C1119 H1107 0.929 . S
C1119 C1113 1.390 . S
C1119 C1116 1.386 . S
C1120 C1115 1.490 . S
C1120 C1122 1.395 . S
C1120 C1123 1.403 . S
H1121 C1127 0.930 . S
C1122 H1108 0.930 1_455 S
C1122 C1120 1.395 . S
C1122 C1125 1.403 . S
C1123 C1120 1.403 . S
C1123 C1124 1.524 . S
C1123 C1127 1.400 . S
C1124 H1109 0.960 . S
C1124 H1110 0.960 . S
C1124 H1111 0.960 . S
C1124 C1123 1.524 . S
C1125 C1122 1.403 . S
C1125 C1126 1.392 . S
C1125 C1129 1.495 1_455 S
C1126 C1125 1.392 . S
C1126 C1127 1.385 . S
C1126 C1128 1.478 . S
C1127 H1121 0.930 . S
C1127 C1123 1.400 . S
C1127 C1126 1.385 . S
C1128 C1126 1.478 . S
C1128 C1130 1.381 1_455 S
C1128 C1134 1.383 . S
C1129 C1125 1.495 1_655 S
C1129 H1135 0.959 . S
C1129 H1136 0.935 1_655 S
C1129 H1137 0.960 . S
C1130 C1128 1.381 1_655 S
C1130 C1131 1.394 . S
C1130 H1138 0.930 . S
C1131 C1130 1.394 . S
C1131 C1132 1.383 1_655 S
C1131 H1139 0.929 . S
C1132 C1131 1.383 1_455 S
C1132 C1133 1.377 . S
C1133 H1117 0.930 . S
C1133 C1132 1.377 . S
C1133 C1134 1.379 . S
C1134 H1118 0.931 . S
C1134 C1128 1.383 . S
C1134 C1133 1.379 . S
H1135 C1129 0.959 . S
H1136 C1129 0.935 1_455 S
H1137 C1129 0.960 . S
H1138 C1130 0.930 . S
H1139 C1131 0.929 . S
H1140 C1148 0.929 . S
H1141 C1150 0.930 . S
H1142 C1152 0.930 . S
H1143 C1155 0.929 . S
H1144 C1158 0.930 . S
H1145 C1160 0.960 . S
H1146 C1160 0.960 . S
H1147 C1160 0.960 . S
C1148 H1140 0.929 . S
C1148 C1149 1.377 . S
C1148 C1150 1.384 . S
C1149 C1148 1.377 . S
C1149 C1155 1.390 . S
C1150 H1141 0.930 . S
C1150 C1148 1.384 . S
C1150 C1151 1.372 . S
C1151 C1150 1.372 . S
C1151 C1152 1.400 . S
C1151 C1156 1.490 . S
C1152 H1142 0.930 . S
C1152 C1151 1.400 . S
C1152 C1155 1.386 . S
H1153 C1169 0.930 . S
H1154 C1170 0.931 . S
C1155 H1143 0.929 . S
C1155 C1149 1.390 . S
C1155 C1152 1.386 . S
C1156 C1151 1.490 . S
C1156 C1158 1.395 . S
C1156 C1159 1.427 . S
H1157 C1163 0.930 1_565 S
C1158 H1144 0.930 . S
C1158 C1156 1.395 . S
C1158 C1161 1.403 . S
C1159 C1156 1.427 . S
C1159 C1160 1.497 1_545 S
C1159 C1163 1.403 . S
C1160 H1145 0.960 . S
C1160 H1146 0.960 . S
C1160 H1147 0.960 . S
C1160 C1159 1.497 1_565 S
C1161 C1158 1.403 . S
C1161 C1162 1.392 . S
C1161 C1165 1.495 . S
C1162 C1161 1.392 . S
C1162 C1163 1.385 . S
C1162 C1164 1.478 . S
C1163 H1157 0.930 1_545 S
C1163 C1159 1.403 . S
C1163 C1162 1.385 . S
C1164 C1162 1.478 . S
C1164 C1166 1.381 . S
C1164 C1170 1.383 . S
C1165 C1161 1.495 . S
C1165 H1171 0.959 . S
C1165 H1172 0.961 . S
C1165 H1173 0.960 . S
C1166 C1164 1.381 . S
C1166 C1167 1.394 . S
C1166 H1174 0.930 . S
C1167 C1166 1.394 . S
C1167 C1168 1.383 . S
C1167 H1175 0.929 . S
C1168 C1167 1.383 . S
C1168 C1169 1.377 . S
C1169 H1153 0.930 . S
C1169 C1168 1.377 . S
C1169 C1170 1.379 . S
C1170 H1154 0.931 . S
C1170 C1164 1.383 . S
C1170 C1169 1.379 . S
H1171 C1165 0.959 . S
H1172 C1165 0.961 . S
H1173 C1165 0.960 . S
H1174 C1166 0.930 . S
H1175 C1167 0.929 . S
H1176 C1184 0.929 . S
H1177 C1186 0.930 . S
H1178 C1188 0.930 . S
H1179 C1191 0.929 . S
H1180 C1194 0.930 . S
H1181 C1196 0.960 . S
H1182 C1196 0.960 . S
H1183 C1196 0.960 . S
C1184 H1176 0.929 . S
C1184 C1185 1.377 . S
C1184 C1186 1.384 . S
C1185 C1184 1.377 . S
C1185 C1191 1.390 . S
C1186 H1177 0.930 . S
C1186 C1184 1.384 . S
C1186 C1187 1.372 . S
C1187 C1186 1.372 . S
C1187 C1188 1.400 . S
C1187 C1192 1.490 . S
C1188 H1178 0.930 . S
C1188 C1187 1.400 . S
C1188 C1191 1.386 . S
H1189 C1205 0.930 . S
H1190 C1206 0.931 . S
C1191 H1179 0.929 . S
C1191 C1185 1.390 . S
C1191 C1188 1.386 . S
C1192 C1187 1.490 . S
C1192 C1194 1.395 . S
C1192 C1195 1.403 . S
H1193 C1199 0.930 . S
C1194 H1180 0.930 . S
C1194 C1192 1.395 . S
C1194 C1197 1.403 . S
C1195 C1192 1.403 . S
C1195 C1196 1.524 . S
C1195 C1199 1.400 . S
C1196 H1181 0.960 . S
C1196 H1182 0.960 . S
C1196 H1183 0.960 . S
C1196 C1195 1.524 . S
C1197 C1194 1.403 . S
C1197 C1198 1.392 . S
C1197 C1201 1.495 . S
C1198 C1197 1.392 . S
C1198 C1199 1.385 . S
C1198 C1200 1.478 . S
C1199 H1193 0.930 . S
C1199 C1195 1.400 . S
C1199 C1198 1.385 . S
C1200 C1198 1.478 . S
C1200 C1202 1.381 . S
C1200 C1206 1.383 . S
C1201 C1197 1.495 . S
C1201 H1207 0.959 . S
C1201 H1208 0.961 . S
C1201 H1209 0.960 . S
C1202 C1200 1.381 . S
C1202 C1203 1.394 . S
C1202 H1210 0.930 . S
C1203 C1202 1.394 . S
C1203 C1204 1.383 . S
C1203 H1211 0.929 . S
C1204 C1203 1.383 . S
C1204 C1205 1.377 . S
C1205 H1189 0.930 . S
C1205 C1204 1.377 . S
C1205 C1206 1.379 . S
C1206 H1190 0.931 . S
C1206 C1200 1.383 . S
C1206 C1205 1.379 . S
H1207 C1201 0.959 . S
H1208 C1201 0.961 . S
H1209 C1201 0.960 . S
H1210 C1202 0.930 . S
H1211 C1203 0.929 . S
H1212 C1220 0.929 . S
H1213 C1222 0.930 . S
H1214 C1224 0.930 . S
H1215 C1227 0.929 . S
H1216 C1230 0.930 . S
H1217 C1232 0.960 . S
H1218 C1232 0.960 . S
H1219 C1232 0.960 . S
C1220 H1212 0.929 . S
C1220 C1221 1.377 . S
C1220 C1222 1.384 . S
C1221 C1220 1.377 . S
C1221 C1227 1.390 . S
C1222 H1213 0.930 . S
C1222 C1220 1.384 . S
C1222 C1223 1.372 . S
C1223 C1222 1.372 . S
C1223 C1224 1.400 . S
C1223 C1228 1.490 . S
C1224 H1214 0.930 . S
C1224 C1223 1.400 . S
C1224 C1227 1.386 . S
H1225 C1241 0.930 . S
H1226 C1242 0.931 . S
C1227 H1215 0.929 . S
C1227 C1221 1.390 . S
C1227 C1224 1.386 . S
C1228 C1223 1.490 . S
C1228 C1230 1.395 . S
C1228 C1231 1.403 . S
H1229 C1235 0.930 . S
C1230 H1216 0.930 . S
C1230 C1228 1.395 . S
C1230 C1233 1.403 . S
C1231 C1228 1.403 . S
C1231 C1232 1.524 . S
C1231 C1235 1.400 . S
C1232 H1217 0.960 . S
C1232 H1218 0.960 . S
C1232 H1219 0.960 . S
C1232 C1231 1.524 . S
C1233 C1230 1.403 . S
C1233 C1234 1.392 . S
C1233 C1237 1.495 . S
C1234 C1233 1.392 . S
C1234 C1235 1.385 . S
C1234 C1236 1.478 . S
C1235 H1229 0.930 . S
C1235 C1231 1.400 . S
C1235 C1234 1.385 . S
C1236 C1234 1.478 . S
C1236 C1238 1.381 . S
C1236 C1242 1.383 . S
C1237 C1233 1.495 . S
C1237 H1243 0.959 . S
C1237 H1244 0.961 . S
C1237 H1245 0.960 . S
C1238 C1236 1.381 . S
C1238 C1239 1.394 . S
C1238 H1246 0.930 . S
C1239 C1238 1.394 . S
C1239 C1240 1.383 . S
C1239 H1247 0.929 . S
C1240 C1239 1.383 . S
C1240 C1241 1.377 . S
C1241 H1225 0.930 . S
C1241 C1240 1.377 . S
C1241 C1242 1.379 . S
C1242 H1226 0.931 . S
C1242 C1236 1.383 . S
C1242 C1241 1.379 . S
H1243 C1237 0.959 . S
H1244 C1237 0.961 . S
H1245 C1237 0.960 . S
H1246 C1238 0.930 . S
H1247 C1239 0.929 . S
H1248 C1256 0.900 1_455 S
H1249 C1258 0.916 1_455 S
H1250 C1260 0.930 . S
H1251 C1263 0.929 . S
H1252 C1266 0.930 . S
H1253 C1268 0.960 . S
H1254 C1268 0.960 . S
H1255 C1268 0.960 . S
C1256 H1248 0.900 1_655 S
C1256 C1257 1.407 . S
C1256 C1258 1.384 . S
C1257 C1256 1.407 . S
C1257 C1263 1.390 . S
C1258 H1249 0.916 1_655 S
C1258 C1256 1.384 . S
C1258 C1259 1.386 . S
C1259 C1258 1.386 . S
C1259 C1260 1.400 . S
C1259 C1264 1.490 . S
C1260 H1250 0.930 . S
C1260 C1259 1.400 . S
C1260 C1263 1.386 . S
H1261 C1277 0.930 . S
H1262 C1278 0.931 . S
C1263 H1251 0.929 . S
C1263 C1257 1.390 . S
C1263 C1260 1.386 . S
C1264 C1259 1.490 . S
C1264 C1266 1.395 . S
C1264 C1267 1.403 . S
H1265 C1271 0.930 . S
C1266 H1252 0.930 . S
C1266 C1264 1.395 . S
C1266 C1269 1.403 . S
C1267 C1264 1.403 . S
C1267 C1268 1.524 . S
C1267 C1271 1.400 . S
C1268 H1253 0.960 . S
C1268 H1254 0.960 . S
C1268 H1255 0.960 . S
C1268 C1267 1.524 . S
C1269 C1266 1.403 . S
C1269 C1270 1.392 . S
C1269 C1273 1.495 . S
C1270 C1269 1.392 . S
C1270 C1271 1.385 . S
C1270 C1272 1.478 . S
C1271 H1265 0.930 . S
C1271 C1267 1.400 . S
C1271 C1270 1.385 . S
C1272 C1270 1.478 . S
C1272 C1274 1.387 . S
C1272 C1278 1.383 . S
C1273 C1269 1.495 . S
C1273 H1279 0.959 . S
C1273 H1280 0.961 . S
C1273 H1281 0.960 . S
C1274 C1272 1.387 . S
C1274 C1275 1.394 . S
C1274 H1282 0.924 1_655 S
C1275 C1274 1.394 . S
C1275 C1276 1.387 . S
C1275 H1283 0.925 1_655 S
C1276 C1275 1.387 . S
C1276 C1277 1.377 . S
C1277 H1261 0.930 . S
C1277 C1276 1.377 . S
C1277 C1278 1.379 . S
C1278 H1262 0.931 . S
C1278 C1272 1.383 . S
C1278 C1277 1.379 . S
H1279 C1273 0.959 . S
H1280 C1273 0.961 . S
H1281 C1273 0.960 . S
H1282 C1274 0.924 1_455 S
H1283 C1275 0.925 1_455 S
H1284 C1292 0.929 . S
H1285 C1294 0.930 . S
H1286 C1296 0.873 1_545 S
H1287 C1299 0.891 1_545 S
H1288 C1302 0.930 . S
H1289 C1304 0.960 . S
H1290 C1304 0.960 . S
H1291 C1304 0.960 . S
C1292 H1284 0.929 . S
C1292 C1293 1.377 . S
C1292 C1294 1.384 . S
C1293 C1292 1.377 . S
C1293 C1299 1.428 . S
C1294 H1285 0.930 . S
C1294 C1292 1.384 . S
C1294 C1295 1.372 . S
C1295 C1294 1.372 . S
C1295 C1296 1.459 . S
C1295 C1300 1.490 . S
C1296 H1286 0.873 1_565 S
C1296 C1295 1.459 . S
C1296 C1299 1.385 . S
H1297 C1313 0.930 1_545 S
H1298 C1314 0.931 1_545 S
C1299 H1287 0.891 1_565 S
C1299 C1293 1.428 . S
C1299 C1296 1.385 . S
C1300 C1295 1.490 . S
C1300 C1302 1.395 . S
C1300 C1303 1.403 . S
H1301 C1307 0.930 1_545 S
C1302 H1288 0.930 . S
C1302 C1300 1.395 . S
C1302 C1305 1.403 . S
C1303 C1300 1.403 . S
C1303 C1304 1.524 1_565 S
C1303 C1307 1.400 . S
C1304 H1289 0.960 . S
C1304 H1290 0.960 . S
C1304 H1291 0.960 . S
C1304 C1303 1.524 1_545 S
C1305 C1302 1.403 . S
C1305 C1306 1.392 . S
C1305 C1309 1.495 . S
C1306 C1305 1.392 . S
C1306 C1307 1.385 . S
C1306 C1308 1.478 . S
C1307 H1301 0.930 1_565 S
C1307 C1303 1.400 . S
C1307 C1306 1.385 . S
C1308 C1306 1.478 . S
C1308 C1310 1.381 . S
C1308 C1314 1.383 . S
C1309 C1305 1.495 . S
C1309 H1315 0.959 . S
C1309 H1316 0.961 . S
C1309 H1317 0.960 . S
C1310 C1308 1.381 . S
C1310 C1311 1.394 . S
C1310 H1318 0.930 . S
C1311 C1310 1.394 . S
C1311 C1312 1.383 . S
C1311 H1319 0.929 . S
C1312 C1311 1.383 . S
C1312 C1313 1.377 . S
C1313 H1297 0.930 1_565 S
C1313 C1312 1.377 . S
C1313 C1314 1.379 . S
C1314 H1298 0.931 1_565 S
C1314 C1308 1.383 . S
C1314 C1313 1.379 . S
H1315 C1309 0.959 . S
H1316 C1309 0.961 . S
H1317 C1309 0.960 . S
H1318 C1310 0.930 . S
H1319 C1311 0.929 . S
H1320 C1328 0.929 . S
H1321 C1330 0.930 . S
H1322 C1332 0.930 . S
H1323 C1335 0.929 . S
H1324 C1338 0.930 . S
H1325 C1340 0.960 . S
H1326 C1340 0.960 . S
H1327 C1340 0.960 . S
C1328 H1320 0.929 . S
C1328 C1329 1.377 . S
C1328 C1330 1.384 . S
C1329 C1328 1.377 . S
C1329 C1335 1.390 . S
C1330 H1321 0.930 . S
C1330 C1328 1.384 . S
C1330 C1331 1.372 . S
C1331 C1330 1.372 . S
C1331 C1332 1.400 . S
C1331 C1336 1.490 . S
C1332 H1322 0.930 . S
C1332 C1331 1.400 . S
C1332 C1335 1.386 . S
H1333 C1349 0.930 . S
H1334 C1350 0.931 . S
C1335 H1323 0.929 . S
C1335 C1329 1.390 . S
C1335 C1332 1.386 . S
C1336 C1331 1.490 . S
C1336 C1338 1.395 . S
C1336 C1339 1.403 . S
H1337 C1343 0.930 . S
C1338 H1324 0.930 . S
C1338 C1336 1.395 . S
C1338 C1341 1.403 . S
C1339 C1336 1.403 . S
C1339 C1340 1.524 . S
C1339 C1343 1.400 . S
C1340 H1325 0.960 . S
C1340 H1326 0.960 . S
C1340 H1327 0.960 . S
C1340 C1339 1.524 . S
C1341 C1338 1.403 . S
C1341 C1342 1.392 . S
C1341 C1345 1.495 . S
C1342 C1341 1.392 . S
C1342 C1343 1.385 . S
C1342 C1344 1.478 . S
C1343 H1337 0.930 . S
C1343 C1339 1.400 . S
C1343 C1342 1.385 . S
C1344 C1342 1.478 . S
C1344 C1346 1.381 . S
C1344 C1350 1.383 . S
C1345 C1341 1.495 . S
C1345 H1351 0.959 . S
C1345 H1352 0.961 . S
C1345 H1353 0.960 . S
C1346 C1344 1.381 . S
C1346 C1347 1.394 . S
C1346 H1354 0.930 . S
C1347 C1346 1.394 . S
C1347 C1348 1.383 . S
C1347 H1355 0.929 . S
C1348 C1347 1.383 . S
C1348 C1349 1.377 . S
C1349 H1333 0.930 . S
C1349 C1348 1.377 . S
C1349 C1350 1.379 . S
C1350 H1334 0.931 . S
C1350 C1344 1.383 . S
C1350 C1349 1.379 . S
H1351 C1345 0.959 . S
H1352 C1345 0.961 . S
H1353 C1345 0.960 . S
H1354 C1346 0.930 . S
H1355 C1347 0.929 . S
H1356 C1364 0.929 . S
H1357 C1366 0.930 . S
H1358 C1368 0.930 . S
H1359 C1371 0.929 . S
H1360 C1374 0.930 . S
H1361 C1376 0.960 . S
H1362 C1376 0.960 . S
H1363 C1376 0.960 . S
C1364 H1356 0.929 . S
C1364 C1365 1.377 . S
C1364 C1366 1.384 . S
C1365 C1364 1.377 . S
C1365 C1371 1.390 . S
C1366 H1357 0.930 . S
C1366 C1364 1.384 . S
C1366 C1367 1.372 . S
C1367 C1366 1.372 . S
C1367 C1368 1.400 . S
C1367 C1372 1.490 . S
C1368 H1358 0.930 . S
C1368 C1367 1.400 . S
C1368 C1371 1.386 . S
H1369 C1385 0.930 . S
H1370 C1386 0.931 . S
C1371 H1359 0.929 . S
C1371 C1365 1.390 . S
C1371 C1368 1.386 . S
C1372 C1367 1.490 . S
C1372 C1374 1.395 . S
C1372 C1375 1.403 . S
H1373 C1379 0.930 . S
C1374 H1360 0.930 . S
C1374 C1372 1.395 . S
C1374 C1377 1.403 . S
C1375 C1372 1.403 . S
C1375 C1376 1.524 . S
C1375 C1379 1.400 . S
C1376 H1361 0.960 . S
C1376 H1362 0.960 . S
C1376 H1363 0.960 . S
C1376 C1375 1.524 . S
C1377 C1374 1.403 . S
C1377 C1378 1.392 . S
C1377 C1381 1.495 . S
C1378 C1377 1.392 . S
C1378 C1379 1.385 . S
C1378 C1380 1.478 . S
C1379 H1373 0.930 . S
C1379 C1375 1.400 . S
C1379 C1378 1.385 . S
C1380 C1378 1.478 . S
C1380 C1382 1.381 . S
C1380 C1386 1.383 . S
C1381 C1377 1.495 . S
C1381 H1387 0.959 . S
C1381 H1388 0.961 . S
C1381 H1389 0.960 . S
C1382 C1380 1.381 . S
C1382 C1383 1.394 . S
C1382 H1390 0.930 . S
C1383 C1382 1.394 . S
C1383 C1384 1.383 . S
C1383 H1391 0.929 . S
C1384 C1383 1.383 . S
C1384 C1385 1.377 . S
C1385 H1369 0.930 . S
C1385 C1384 1.377 . S
C1385 C1386 1.379 . S
C1386 H1370 0.931 . S
C1386 C1380 1.383 . S
C1386 C1385 1.379 . S
H1387 C1381 0.959 . S
H1388 C1381 0.961 . S
H1389 C1381 0.960 . S
H1390 C1382 0.930 . S
H1391 C1383 0.929 . S
H1392 C1400 0.929 1_655 S
H1393 C1402 0.930 1_655 S
H1394 C1404 0.930 . S
H1395 C1407 0.929 . S
H1396 C1410 0.930 . S
H1397 C1412 0.960 . S
H1398 C1412 0.960 . S
H1399 C1412 0.960 . S
C1400 H1392 0.929 1_455 S
C1400 C1401 1.377 . S
C1400 C1402 1.384 . S
C1401 C1400 1.377 . S
C1401 C1407 1.390 . S
C1402 H1393 0.930 1_455 S
C1402 C1400 1.384 . S
C1402 C1403 1.372 . S
C1403 C1402 1.372 . S
C1403 C1404 1.400 . S
C1403 C1408 1.490 . S
C1404 H1394 0.930 . S
C1404 C1403 1.400 . S
C1404 C1407 1.386 . S
H1405 C1421 0.930 . S
H1406 C1422 0.931 . S
C1407 H1395 0.929 . S
C1407 C1401 1.390 . S
C1407 C1404 1.386 . S
C1408 C1403 1.490 . S
C1408 C1410 1.395 . S
C1408 C1411 1.403 . S
H1409 C1415 0.930 . S
C1410 H1396 0.930 . S
C1410 C1408 1.395 . S
C1410 C1413 1.403 . S
C1411 C1408 1.403 . S
C1411 C1412 1.524 . S
C1411 C1415 1.400 . S
C1412 H1397 0.960 . S
C1412 H1398 0.960 . S
C1412 H1399 0.960 . S
C1412 C1411 1.524 . S
C1413 C1410 1.403 . S
C1413 C1414 1.392 . S
C1413 C1417 1.495 . S
C1414 C1413 1.392 . S
C1414 C1415 1.385 . S
C1414 C1416 1.478 . S
C1415 H1409 0.930 . S
C1415 C1411 1.400 . S
C1415 C1414 1.385 . S
C1416 C1414 1.478 . S
C1416 C1418 1.381 . S
C1416 C1422 1.383 . S
C1417 C1413 1.495 . S
C1417 H1423 0.959 . S
C1417 H1424 0.961 . S
C1417 H1425 0.960 . S
C1418 C1416 1.381 . S
C1418 C1419 1.394 . S
C1418 H1426 0.930 . S
C1419 C1418 1.394 . S
C1419 C1420 1.383 . S
C1419 H1427 0.929 . S
C1420 C1419 1.383 . S
C1420 C1421 1.377 . S
C1421 H1405 0.930 . S
C1421 C1420 1.377 . S
C1421 C1422 1.379 . S
C1422 H1406 0.931 . S
C1422 C1416 1.383 . S
C1422 C1421 1.379 . S
H1423 C1417 0.959 . S
H1424 C1417 0.961 . S
H1425 C1417 0.960 . S
H1426 C1418 0.930 . S
H1427 C1419 0.929 . S
H1428 C1436 0.929 . S
H1429 C1438 0.930 . S
H1430 C1440 0.930 . S
H1431 C1443 0.929 . S
H1432 C1446 0.930 1_565 S
H1433 C1448 0.960 . S
H1434 C1448 0.960 . S
H1435 C1448 0.960 . S
C1436 H1428 0.929 . S
C1436 C1437 1.377 . S
C1436 C1438 1.384 . S
C1437 C1436 1.377 . S
C1437 C1443 1.390 . S
C1438 H1429 0.930 . S
C1438 C1436 1.384 . S
C1438 C1439 1.372 . S
C1439 C1438 1.372 . S
C1439 C1440 1.400 . S
C1439 C1444 1.490 1_556 S
C1440 H1430 0.930 . S
C1440 C1439 1.400 . S
C1440 C1443 1.386 . S
H1441 C1457 0.930 . S
H1442 C1458 0.931 . S
C1443 H1431 0.929 . S
C1443 C1437 1.390 . S
C1443 C1440 1.386 . S
C1444 C1439 1.490 1_554 S
C1444 C1446 1.395 . S
C1444 C1447 1.403 . S
H1445 C1451 0.930 . S
C1446 H1432 0.930 1_545 S
C1446 C1444 1.395 . S
C1446 C1449 1.403 . S
C1447 C1444 1.403 . S
C1447 C1448 1.524 . S
C1447 C1451 1.400 . S
C1448 H1433 0.960 . S
C1448 H1434 0.960 . S
C1448 H1435 0.960 . S
C1448 C1447 1.524 . S
C1449 C1446 1.403 . S
C1449 C1450 1.392 . S
C1449 C1453 1.495 1_545 S
C1450 C1449 1.392 . S
C1450 C1451 1.385 . S
C1450 C1452 1.478 . S
C1451 H1445 0.930 . S
C1451 C1447 1.400 . S
C1451 C1450 1.385 . S
C1452 C1450 1.478 . S
C1452 C1454 1.381 . S
C1452 C1458 1.383 . S
C1453 C1449 1.495 1_565 S
C1453 H1459 0.959 . S
C1453 H1460 0.961 . S
C1453 H1461 0.960 . S
C1454 C1452 1.381 . S
C1454 C1455 1.394 . S
C1454 H1462 0.930 . S
C1455 C1454 1.394 . S
C1455 C1456 1.383 . S
C1455 H1463 0.929 . S
C1456 C1455 1.383 . S
C1456 C1457 1.377 . S
C1457 H1441 0.930 . S
C1457 C1456 1.377 . S
C1457 C1458 1.379 . S
C1458 H1442 0.931 . S
C1458 C1452 1.383 . S
C1458 C1457 1.379 . S
H1459 C1453 0.959 . S
H1460 C1453 0.961 . S
H1461 C1453 0.960 . S
H1462 C1454 0.930 . S
H1463 C1455 0.929 . S
H1464 C1472 0.929 . S
H1465 C1474 0.930 . S
H1466 C1476 0.930 . S
H1467 C1479 0.929 . S
H1468 C1482 0.930 . S
H1469 C1484 0.960 . S
H1470 C1484 0.960 . S
H1471 C1484 0.960 . S
C1472 H1464 0.929 . S
C1472 C1473 1.377 . S
C1472 C1474 1.384 . S
C1473 C1472 1.377 . S
C1473 C1479 1.390 . S
C1474 H1465 0.930 . S
C1474 C1472 1.384 . S
C1474 C1475 1.372 . S
C1475 C1474 1.372 . S
C1475 C1476 1.400 . S
C1475 C1480 1.490 . S
C1476 H1466 0.930 . S
C1476 C1475 1.400 . S
C1476 C1479 1.386 . S
H1477 C1493 0.930 . S
H1478 C1494 0.931 . S
C1479 H1467 0.929 . S
C1479 C1473 1.390 . S
C1479 C1476 1.386 . S
C1480 C1475 1.490 . S
C1480 C1482 1.395 . S
C1480 C1483 1.403 . S
H1481 C1487 0.930 . S
C1482 H1468 0.930 . S
C1482 C1480 1.395 . S
C1482 C1485 1.403 . S
C1483 C1480 1.403 . S
C1483 C1484 1.524 . S
C1483 C1487 1.400 . S
C1484 H1469 0.960 . S
C1484 H1470 0.960 . S
C1484 H1471 0.960 . S
C1484 C1483 1.524 . S
C1485 C1482 1.403 . S
C1485 C1486 1.392 . S
C1485 C1489 1.495 . S
C1486 C1485 1.392 . S
C1486 C1487 1.385 . S
C1486 C1488 1.478 . S
C1487 H1481 0.930 . S
C1487 C1483 1.400 . S
C1487 C1486 1.385 . S
C1488 C1486 1.478 . S
C1488 C1490 1.381 . S
C1488 C1494 1.383 . S
C1489 C1485 1.495 . S
C1489 H1495 0.959 . S
C1489 H1496 0.961 . S
C1489 H1497 0.960 . S
C1490 C1488 1.381 . S
C1490 C1491 1.394 . S
C1490 H1498 0.930 . S
C1491 C1490 1.394 . S
C1491 C1492 1.383 . S
C1491 H1499 0.929 . S
C1492 C1491 1.383 . S
C1492 C1493 1.377 . S
C1493 H1477 0.930 . S
C1493 C1492 1.377 . S
C1493 C1494 1.379 . S
C1494 H1478 0.931 . S
C1494 C1488 1.383 . S
C1494 C1493 1.379 . S
H1495 C1489 0.959 . S
H1496 C1489 0.961 . S
H1497 C1489 0.960 . S
H1498 C1490 0.930 . S
H1499 C1491 0.929 . S
H1500 C1508 0.929 . S
H1501 C1510 0.930 . S
H1502 C1512 0.930 . S
H1503 C1515 0.929 . S
H1504 C1518 0.930 . S
H1505 C1520 0.960 . S
H1506 C1520 0.960 . S
H1507 C1520 0.960 . S
C1508 H1500 0.929 . S
C1508 C1509 1.377 . S
C1508 C1510 1.384 . S
C1509 C1508 1.377 . S
C1509 C1515 1.390 . S
C1510 H1501 0.930 . S
C1510 C1508 1.384 . S
C1510 C1511 1.372 . S
C1511 C1510 1.372 . S
C1511 C1512 1.400 . S
C1511 C1516 1.490 1_556 S
C1512 H1502 0.930 . S
C1512 C1511 1.400 . S
C1512 C1515 1.386 . S
H1513 C1529 0.930 . S
H1514 C1530 0.931 . S
C1515 H1503 0.929 . S
C1515 C1509 1.390 . S
C1515 C1512 1.386 . S
C1516 C1511 1.490 1_554 S
C1516 C1518 1.395 . S
C1516 C1519 1.403 . S
H1517 C1523 0.930 . S
C1518 H1504 0.930 . S
C1518 C1516 1.395 . S
C1518 C1521 1.403 . S
C1519 C1516 1.403 . S
C1519 C1520 1.524 . S
C1519 C1523 1.400 . S
C1520 H1505 0.960 . S
C1520 H1506 0.960 . S
C1520 H1507 0.960 . S
C1520 C1519 1.524 . S
C1521 C1518 1.403 . S
C1521 C1522 1.392 . S
C1521 C1525 1.495 . S
C1522 C1521 1.392 . S
C1522 C1523 1.385 . S
C1522 C1524 1.478 . S
C1523 H1517 0.930 . S
C1523 C1519 1.400 . S
C1523 C1522 1.385 . S
C1524 C1522 1.478 . S
C1524 C1526 1.381 . S
C1524 C1530 1.383 . S
C1525 C1521 1.495 . S
C1525 H1531 0.959 . S
C1525 H1532 0.961 . S
C1525 H1533 0.960 . S
C1526 C1524 1.381 . S
C1526 C1527 1.394 . S
C1526 H1534 0.930 . S
C1527 C1526 1.394 . S
C1527 C1528 1.383 . S
C1527 H1535 0.929 . S
C1528 C1527 1.383 . S
C1528 C1529 1.377 . S
C1529 H1513 0.930 . S
C1529 C1528 1.377 . S
C1529 C1530 1.379 . S
C1530 H1514 0.931 . S
C1530 C1524 1.383 . S
C1530 C1529 1.379 . S
H1531 C1525 0.959 . S
H1532 C1525 0.961 . S
H1533 C1525 0.960 . S
H1534 C1526 0.930 . S
H1535 C1527 0.929 . S
H1536 C1544 0.929 . S
H1537 C1546 0.930 . S
H1538 C1548 0.930 1_655 S
H1539 C1551 0.929 1_655 S
H1540 C1554 0.930 . S
H1541 C1556 0.932 1_655 S
H1542 C1556 0.999 . S
H1543 C1556 0.914 1_655 S
C1544 H1536 0.929 . S
C1544 C1545 1.377 . S
C1544 C1546 1.384 . S
C1545 C1544 1.377 . S
C1545 C1551 1.390 . S
C1546 H1537 0.930 . S
C1546 C1544 1.384 . S
C1546 C1547 1.372 . S
C1547 C1546 1.372 . S
C1547 C1548 1.400 . S
C1547 C1552 1.490 . S
C1548 H1538 0.930 1_455 S
C1548 C1547 1.400 . S
C1548 C1551 1.386 . S
H1549 C1565 0.993 . S
H1550 C1566 0.931 . S
C1551 H1539 0.929 1_455 S
C1551 C1545 1.390 . S
C1551 C1548 1.386 . S
C1552 C1547 1.490 . S
C1552 C1554 1.395 . S
C1552 C1555 1.403 . S
H1553 C1559 0.930 . S
C1554 H1540 0.930 . S
C1554 C1552 1.395 . S
C1554 C1557 1.403 . S
C1555 C1552 1.403 . S
C1555 C1556 1.565 . S
C1555 C1559 1.400 . S
C1556 H1541 0.932 1_455 S
C1556 H1542 0.999 . S
C1556 H1543 0.914 1_455 S
C1556 C1555 1.565 . S
C1557 C1554 1.403 . S
C1557 C1558 1.392 . S
C1557 C1561 1.495 . S
C1558 C1557 1.392 . S
C1558 C1559 1.385 . S
C1558 C1560 1.478 1_556 S
C1559 H1553 0.930 . S
C1559 C1555 1.400 . S
C1559 C1558 1.385 . S
C1560 C1558 1.478 1_554 S
C1560 C1562 1.381 . S
C1560 C1566 1.383 . S
C1561 C1557 1.495 . S
C1561 H1567 0.959 . S
C1561 H1568 0.961 . S
C1561 H1569 0.960 . S
C1562 C1560 1.381 . S
C1562 C1563 1.394 . S
C1562 H1570 0.930 . S
C1563 C1562 1.394 . S
C1563 C1564 1.383 . S
C1563 H1571 0.929 . S
C1564 C1563 1.383 . S
C1564 C1565 1.377 . S
C1565 H1549 0.993 . S
C1565 C1564 1.377 . S
C1565 C1566 1.379 . S
C1566 H1550 0.931 . S
C1566 C1560 1.383 . S
C1566 C1565 1.379 . S
H1567 C1561 0.959 . S
H1568 C1561 0.961 . S
H1569 C1561 0.960 . S
H1570 C1562 0.930 . S
H1571 C1563 0.929 . S
H1572 C1580 0.929 . S
H1573 C1582 0.930 . S
H1574 C1584 0.930 1_565 S
H1575 C1587 0.929 1_565 S
H1576 C1590 0.930 . S
H1577 C1592 0.960 1_565 S
H1578 C1592 0.960 . S
H1579 C1592 0.960 1_565 S
C1580 H1572 0.929 . S
C1580 C1581 1.377 . S
C1580 C1582 1.384 . S
C1581 C1580 1.377 . S
C1581 C1587 1.390 . S
C1582 H1573 0.930 . S
C1582 C1580 1.384 . S
C1582 C1583 1.372 . S
C1583 C1582 1.372 . S
C1583 C1584 1.400 . S
C1583 C1588 1.490 . S
C1584 H1574 0.930 1_545 S
C1584 C1583 1.400 . S
C1584 C1587 1.386 . S
H1585 C1601 0.926 . S
H1586 C1602 0.926 . S
C1587 H1575 0.929 1_545 S
C1587 C1581 1.390 . S
C1587 C1584 1.386 . S
C1588 C1583 1.490 . S
C1588 C1590 1.395 . S
C1588 C1591 1.403 . S
H1589 C1595 0.930 . S
C1590 H1576 0.930 . S
C1590 C1588 1.395 . S
C1590 C1593 1.403 . S
C1591 C1588 1.403 . S
C1591 C1592 1.524 . S
C1591 C1595 1.400 . S
C1592 H1577 0.960 1_545 S
C1592 H1578 0.960 . S
C1592 H1579 0.960 1_545 S
C1592 C1591 1.524 . S
C1593 C1590 1.403 . S
C1593 C1594 1.392 . S
C1593 C1597 1.495 . S
C1594 C1593 1.392 . S
C1594 C1595 1.385 . S
C1594 C1596 1.478 . S
C1595 H1589 0.930 . S
C1595 C1591 1.400 . S
C1595 C1594 1.385 . S
C1596 C1594 1.478 . S
C1596 C1598 1.381 . S
C1596 C1602 1.383 . S
C1597 C1593 1.495 . S
C1597 H1603 0.959 . S
C1597 H1604 0.961 . S
C1597 H1605 0.960 . S
C1598 C1596 1.381 . S
C1598 C1599 1.394 . S
C1598 H1606 0.930 . S
C1599 C1598 1.394 . S
C1599 C1600 1.383 . S
C1599 H1607 0.929 . S
C1600 C1599 1.383 . S
C1600 C1601 1.377 . S
C1601 H1585 0.926 . S
C1601 C1600 1.377 . S
C1601 C1602 1.379 . S
C1602 H1586 0.926 . S
C1602 C1596 1.383 . S
C1602 C1601 1.379 . S
H1603 C1597 0.959 . S
H1604 C1597 0.961 . S
H1605 C1597 0.960 . S
H1606 C1598 0.930 . S
H1607 C1599 0.929 . S
H1608 C1616 0.929 . S
H1609 C1618 0.930 . S
H1610 C1620 0.930 . S
H1611 C1623 0.929 . S
H1612 C1626 0.930 . S
H1613 C1628 0.960 . S
H1614 C1628 0.960 . S
H1615 C1628 0.960 . S
C1616 H1608 0.929 . S
C1616 C1617 1.377 . S
C1616 C1618 1.384 . S
C1617 C1616 1.377 . S
C1617 C1623 1.390 . S
C1618 H1609 0.930 . S
C1618 C1616 1.384 . S
C1618 C1619 1.372 . S
C1619 C1618 1.372 . S
C1619 C1620 1.400 . S
C1619 C1624 1.490 . S
C1620 H1610 0.930 . S
C1620 C1619 1.400 . S
C1620 C1623 1.386 . S
H1621 C1637 0.930 . S
H1622 C1638 0.931 . S
C1623 H1611 0.929 . S
C1623 C1617 1.390 . S
C1623 C1620 1.386 . S
C1624 C1619 1.490 . S
C1624 C1626 1.395 . S
C1624 C1627 1.403 . S
H1625 C1631 0.930 . S
C1626 H1612 0.930 . S
C1626 C1624 1.395 . S
C1626 C1629 1.403 . S
C1627 C1624 1.403 . S
C1627 C1628 1.524 . S
C1627 C1631 1.400 . S
C1628 H1613 0.960 . S
C1628 H1614 0.960 . S
C1628 H1615 0.960 . S
C1628 C1627 1.524 . S
C1629 C1626 1.403 . S
C1629 C1630 1.392 . S
C1629 C1633 1.495 . S
C1630 C1629 1.392 . S
C1630 C1631 1.385 . S
C1630 C1632 1.478 1_556 S
C1631 H1625 0.930 . S
C1631 C1627 1.400 . S
C1631 C1630 1.385 . S
C1632 C1630 1.478 1_554 S
C1632 C1634 1.381 . S
C1632 C1638 1.383 . S
C1633 C1629 1.495 . S
C1633 H1639 0.959 . S
C1633 H1640 0.961 . S
C1633 H1641 0.960 . S
C1634 C1632 1.381 . S
C1634 C1635 1.394 . S
C1634 H1642 0.930 . S
C1635 C1634 1.394 . S
C1635 C1636 1.383 . S
C1635 H1643 0.929 . S
C1636 C1635 1.383 . S
C1636 C1637 1.377 . S
C1637 H1621 0.930 . S
C1637 C1636 1.377 . S
C1637 C1638 1.379 . S
C1638 H1622 0.931 . S
C1638 C1632 1.383 . S
C1638 C1637 1.379 . S
H1639 C1633 0.959 . S
H1640 C1633 0.961 . S
H1641 C1633 0.960 . S
H1642 C1634 0.930 . S
H1643 C1635 0.929 . S
H1644 C1652 0.929 . S
H1645 C1654 0.930 . S
H1646 C1656 0.930 . S
H1647 C1659 0.929 . S
H1648 C1662 0.930 . S
H1649 C1664 0.960 . S
H1650 C1664 0.960 . S
H1651 C1664 0.960 . S
C1652 H1644 0.929 . S
C1652 C1653 1.377 . S
C1652 C1654 1.384 . S
C1653 C1652 1.377 . S
C1653 C1659 1.390 . S
C1654 H1645 0.930 . S
C1654 C1652 1.384 . S
C1654 C1655 1.372 . S
C1655 C1654 1.372 . S
C1655 C1656 1.400 . S
C1655 C1660 1.490 . S
C1656 H1646 0.930 . S
C1656 C1655 1.400 . S
C1656 C1659 1.386 . S
H1657 C1673 0.930 . S
H1658 C1674 0.931 . S
C1659 H1647 0.929 . S
C1659 C1653 1.390 . S
C1659 C1656 1.386 . S
C1660 C1655 1.490 . S
C1660 C1662 1.395 . S
C1660 C1663 1.403 . S
H1661 C1667 0.930 . S
C1662 H1648 0.930 . S
C1662 C1660 1.395 . S
C1662 C1665 1.403 . S
C1663 C1660 1.403 . S
C1663 C1664 1.524 . S
C1663 C1667 1.400 . S
C1664 H1649 0.960 . S
C1664 H1650 0.960 . S
C1664 H1651 0.960 . S
C1664 C1663 1.524 . S
C1665 C1662 1.403 . S
C1665 C1666 1.392 . S
C1665 C1669 1.495 . S
C1666 C1665 1.392 . S
C1666 C1667 1.385 . S
C1666 C1668 1.478 . S
C1667 H1661 0.930 . S
C1667 C1663 1.400 . S
C1667 C1666 1.385 . S
C1668 C1666 1.478 . S
C1668 C1670 1.381 . S
C1668 C1674 1.383 . S
C1669 C1665 1.495 . S
C1669 H1675 0.959 . S
C1669 H1676 0.961 . S
C1669 H1677 0.960 . S
C1670 C1668 1.381 . S
C1670 C1671 1.394 . S
C1670 H1678 0.930 . S
C1671 C1670 1.394 . S
C1671 C1672 1.383 . S
C1671 H1679 0.929 . S
C1672 C1671 1.383 . S
C1672 C1673 1.377 . S
C1673 H1657 0.930 . S
C1673 C1672 1.377 . S
C1673 C1674 1.379 . S
C1674 H1658 0.931 . S
C1674 C1668 1.383 . S
C1674 C1673 1.379 . S
H1675 C1669 0.959 . S
H1676 C1669 0.961 . S
H1677 C1669 0.960 . S
H1678 C1670 0.930 . S
H1679 C1671 0.929 . S
H1680 C1688 0.929 . S
H1681 C1690 0.930 . S
H1682 C1692 0.930 1_455 S
H1683 C1695 0.880 1_455 S
H1684 C1698 0.930 . S
H1685 C1700 0.960 . S
H1686 C1700 0.960 . S
H1687 C1700 0.960 . S
C1688 H1680 0.929 . S
C1688 C1689 1.377 . S
C1688 C1690 1.384 . S
C1689 C1688 1.377 . S
C1689 C1695 1.390 . S
C1690 H1681 0.930 . S
C1690 C1688 1.384 . S
C1690 C1691 1.372 . S
C1691 C1690 1.372 . S
C1691 C1692 1.400 . S
C1691 C1696 1.490 . S
C1692 H1682 0.930 1_655 S
C1692 C1691 1.400 . S
C1692 C1695 1.386 . S
H1693 C1709 0.930 1_455 S
H1694 C1710 0.931 1_455 S
C1695 H1683 0.880 1_655 S
C1695 C1689 1.390 . S
C1695 C1692 1.386 . S
C1696 C1691 1.490 . S
C1696 C1698 1.395 . S
C1696 C1699 1.403 . S
H1697 C1703 0.930 . S
C1698 H1684 0.930 . S
C1698 C1696 1.395 . S
C1698 C1701 1.403 . S
C1699 C1696 1.403 . S
C1699 C1700 1.524 . S
C1699 C1703 1.400 . S
C1700 H1685 0.960 . S
C1700 H1686 0.960 . S
C1700 H1687 0.960 . S
C1700 C1699 1.524 . S
C1701 C1698 1.403 . S
C1701 C1702 1.392 . S
C1701 C1705 1.495 . S
C1702 C1701 1.392 . S
C1702 C1703 1.385 . S
C1702 C1704 1.478 . S
C1703 H1697 0.930 . S
C1703 C1699 1.400 . S
C1703 C1702 1.385 . S
C1704 C1702 1.478 . S
C1704 C1706 1.381 . S
C1704 C1710 1.383 . S
C1705 C1701 1.495 . S
C1705 H1711 0.959 . S
C1705 H1712 0.961 . S
C1705 H1713 0.960 . S
C1706 C1704 1.381 . S
C1706 C1707 1.394 . S
C1706 H1714 0.930 . S
C1707 C1706 1.394 . S
C1707 C1708 1.383 . S
C1707 H1715 0.929 . S
C1708 C1707 1.383 . S
C1708 C1709 1.377 . S
C1709 H1693 0.930 1_655 S
C1709 C1708 1.377 . S
C1709 C1710 1.379 . S
C1710 H1694 0.931 1_655 S
C1710 C1704 1.383 . S
C1710 C1709 1.379 . S
H1711 C1705 0.959 . S
H1712 C1705 0.961 . S
H1713 C1705 0.960 . S
H1714 C1706 0.930 . S
H1715 C1707 0.929 . S
H1716 C1724 0.929 . S
H1717 C1726 0.930 . S
H1718 C1728 0.930 . S
H1719 C1731 0.929 . S
H1720 C1734 0.930 . S
H1721 C1736 0.960 . S
H1722 C1736 0.960 . S
H1723 C1736 0.960 . S
C1724 H1716 0.929 . S
C1724 C1725 1.377 . S
C1724 C1726 1.384 . S
C1725 C1724 1.377 . S
C1725 C1731 1.390 . S
C1726 H1717 0.930 . S
C1726 C1724 1.384 . S
C1726 C1727 1.372 . S
C1727 C1726 1.372 . S
C1727 C1728 1.400 . S
C1727 C1732 1.490 1_554 S
C1728 H1718 0.930 . S
C1728 C1727 1.400 . S
C1728 C1731 1.386 . S
H1729 C1745 0.930 . S
H1730 C1746 0.931 . S
C1731 H1719 0.929 . S
C1731 C1725 1.390 . S
C1731 C1728 1.386 . S
C1732 C1727 1.490 1_556 S
C1732 C1734 1.395 . S
C1732 C1735 1.403 . S
H1733 C1739 0.862 1_545 S
C1734 H1720 0.930 . S
C1734 C1732 1.395 . S
C1734 C1737 1.403 . S
C1735 C1732 1.403 . S
C1735 C1736 1.524 1_565 S
C1735 C1739 1.400 . S
C1736 H1721 0.960 . S
C1736 H1722 0.960 . S
C1736 H1723 0.960 . S
C1736 C1735 1.524 1_545 S
C1737 C1734 1.403 . S
C1737 C1738 1.392 . S
C1737 C1741 1.495 . S
C1738 C1737 1.392 . S
C1738 C1739 1.385 . S
C1738 C1740 1.478 . S
C1739 H1733 0.862 1_565 S
C1739 C1735 1.400 . S
C1739 C1738 1.385 . S
C1740 C1738 1.478 . S
C1740 C1742 1.381 . S
C1740 C1746 1.383 . S
C1741 C1737 1.495 . S
C1741 H1747 0.959 . S
C1741 H1748 0.961 . S
C1741 H1749 0.960 . S
C1742 C1740 1.381 . S
C1742 C1743 1.394 . S
C1742 H1750 0.930 . S
C1743 C1742 1.394 . S
C1743 C1744 1.383 . S
C1743 H1751 0.929 . S
C1744 C1743 1.383 . S
C1744 C1745 1.377 . S
C1745 H1729 0.930 . S
C1745 C1744 1.377 . S
C1745 C1746 1.379 . S
C1746 H1730 0.931 . S
C1746 C1740 1.383 . S
C1746 C1745 1.379 . S
H1747 C1741 0.959 . S
H1748 C1741 0.961 . S
H1749 C1741 0.960 . S
H1750 C1742 0.930 . S
H1751 C1743 0.929 . S
H1752 C1760 0.929 . S
H1753 C1762 0.930 . S
H1754 C1764 0.930 . S
H1755 C1767 0.929 . S
H1756 C1770 0.930 . S
H1757 C1772 0.960 . S
H1758 C1772 0.960 . S
H1759 C1772 0.960 . S
C1760 H1752 0.929 . S
C1760 C1761 1.377 . S
C1760 C1762 1.384 . S
C1761 C1760 1.377 . S
C1761 C1767 1.390 . S
C1762 H1753 0.930 . S
C1762 C1760 1.384 . S
C1762 C1763 1.372 . S
C1763 C1762 1.372 . S
C1763 C1764 1.400 . S
C1763 C1768 1.490 . S
C1764 H1754 0.930 . S
C1764 C1763 1.400 . S
C1764 C1767 1.386 . S
H1765 C1781 0.930 . S
H1766 C1782 0.931 . S
C1767 H1755 0.929 . S
C1767 C1761 1.390 . S
C1767 C1764 1.386 . S
C1768 C1763 1.490 . S
C1768 C1770 1.395 . S
C1768 C1771 1.403 . S
H1769 C1775 0.930 . S
C1770 H1756 0.930 . S
C1770 C1768 1.395 . S
C1770 C1773 1.403 . S
C1771 C1768 1.403 . S
C1771 C1772 1.524 . S
C1771 C1775 1.400 . S
C1772 H1757 0.960 . S
C1772 H1758 0.960 . S
C1772 H1759 0.960 . S
C1772 C1771 1.524 . S
C1773 C1770 1.403 . S
C1773 C1774 1.392 . S
C1773 C1777 1.495 . S
C1774 C1773 1.392 . S
C1774 C1775 1.385 . S
C1774 C1776 1.478 . S
C1775 H1769 0.930 . S
C1775 C1771 1.400 . S
C1775 C1774 1.385 . S
C1776 C1774 1.478 . S
C1776 C1778 1.381 . S
C1776 C1782 1.383 . S
C1777 C1773 1.495 . S
C1777 H1783 0.959 . S
C1777 H1784 0.961 . S
C1777 H1785 0.960 . S
C1778 C1776 1.381 . S
C1778 C1779 1.394 . S
C1778 H1786 0.930 . S
C1779 C1778 1.394 . S
C1779 C1780 1.383 . S
C1779 H1787 0.929 . S
C1780 C1779 1.383 . S
C1780 C1781 1.377 . S
C1781 H1765 0.930 . S
C1781 C1780 1.377 . S
C1781 C1782 1.379 . S
C1782 H1766 0.931 . S
C1782 C1776 1.383 . S
C1782 C1781 1.379 . S
H1783 C1777 0.959 . S
H1784 C1777 0.961 . S
H1785 C1777 0.960 . S
H1786 C1778 0.930 . S
H1787 C1779 0.929 . S
H1788 C1796 0.929 . S
H1789 C1798 0.930 . S
H1790 C1800 0.930 . S
H1791 C1803 0.929 . S
H1792 C1806 0.930 . S
H1793 C1808 0.960 . S
H1794 C1808 0.960 . S
H1795 C1808 0.960 . S
C1796 H1788 0.929 . S
C1796 C1797 1.377 . S
C1796 C1798 1.384 . S
C1797 C1796 1.377 . S
C1797 C1803 1.390 . S
C1798 H1789 0.930 . S
C1798 C1796 1.384 . S
C1798 C1799 1.372 . S
C1799 C1798 1.372 . S
C1799 C1800 1.400 . S
C1799 C1804 1.490 1_554 S
C1800 H1790 0.930 . S
C1800 C1799 1.400 . S
C1800 C1803 1.386 . S
H1801 C1817 0.930 . S
H1802 C1818 0.931 . S
C1803 H1791 0.929 . S
C1803 C1797 1.390 . S
C1803 C1800 1.386 . S
C1804 C1799 1.490 1_556 S
C1804 C1806 1.395 . S
C1804 C1807 1.403 . S
H1805 C1811 0.930 . S
C1806 H1792 0.930 . S
C1806 C1804 1.395 . S
C1806 C1809 1.403 . S
C1807 C1804 1.403 . S
C1807 C1808 1.524 . S
C1807 C1811 1.400 . S
C1808 H1793 0.960 . S
C1808 H1794 0.960 . S
C1808 H1795 0.960 . S
C1808 C1807 1.524 . S
C1809 C1806 1.403 . S
C1809 C1810 1.392 . S
C1809 C1813 1.495 . S
C1810 C1809 1.392 . S
C1810 C1811 1.385 . S
C1810 C1812 1.478 . S
C1811 H1805 0.930 . S
C1811 C1807 1.400 . S
C1811 C1810 1.385 . S
C1812 C1810 1.478 . S
C1812 C1814 1.381 . S
C1812 C1818 1.383 . S
C1813 C1809 1.495 . S
C1813 H1819 0.959 . S
C1813 H1820 0.961 . S
C1813 H1821 0.960 . S
C1814 C1812 1.381 . S
C1814 C1815 1.394 . S
C1814 H1822 0.930 . S
C1815 C1814 1.394 . S
C1815 C1816 1.383 . S
C1815 H1823 0.929 . S
C1816 C1815 1.383 . S
C1816 C1817 1.377 . S
C1817 H1801 0.930 . S
C1817 C1816 1.377 . S
C1817 C1818 1.379 . S
C1818 H1802 0.931 . S
C1818 C1812 1.383 . S
C1818 C1817 1.379 . S
H1819 C1813 0.959 . S
H1820 C1813 0.961 . S
H1821 C1813 0.960 . S
H1822 C1814 0.930 . S
H1823 C1815 0.929 . S
H1824 C1832 0.929 . S
H1825 C1834 0.930 . S
H1826 C1836 0.930 . S
H1827 C1839 0.929 . S
H1828 C1842 0.930 1_455 S
H1829 C1844 0.960 . S
H1830 C1844 0.960 . S
H1831 C1844 0.960 . S
C1832 H1824 0.929 . S
C1832 C1833 1.377 . S
C1832 C1834 1.384 . S
C1833 C1832 1.377 . S
C1833 C1839 1.390 . S
C1834 H1825 0.930 . S
C1834 C1832 1.384 . S
C1834 C1835 1.372 . S
C1835 C1834 1.372 . S
C1835 C1836 1.400 . S
C1835 C1840 1.490 . S
C1836 H1826 0.930 . S
C1836 C1835 1.400 . S
C1836 C1839 1.386 . S
H1837 C1853 0.930 . S
H1838 C1854 0.931 . S
C1839 H1827 0.929 . S
C1839 C1833 1.390 . S
C1839 C1836 1.386 . S
C1840 C1835 1.490 . S
C1840 C1842 1.395 . S
C1840 C1843 1.403 . S
H1841 C1847 0.930 . S
C1842 H1828 0.930 1_655 S
C1842 C1840 1.395 . S
C1842 C1845 1.403 . S
C1843 C1840 1.403 . S
C1843 C1844 1.524 . S
C1843 C1847 1.400 . S
C1844 H1829 0.960 . S
C1844 H1830 0.960 . S
C1844 H1831 0.960 . S
C1844 C1843 1.524 . S
C1845 C1842 1.403 . S
C1845 C1846 1.392 . S
C1845 C1849 1.495 1_655 S
C1846 C1845 1.392 . S
C1846 C1847 1.385 . S
C1846 C1848 1.478 1_554 S
C1847 H1841 0.930 . S
C1847 C1843 1.400 . S
C1847 C1846 1.385 . S
C1848 C1846 1.478 1_556 S
C1848 C1850 1.381 . S
C1848 C1854 1.383 . S
C1849 C1845 1.495 1_455 S
C1849 H1855 0.959 . S
C1849 H1856 0.961 . S
C1849 H1857 0.960 . S
C1850 C1848 1.381 . S
C1850 C1851 1.394 . S
C1850 H1858 0.930 . S
C1851 C1850 1.394 . S
C1851 C1852 1.383 . S
C1851 H1859 0.929 . S
C1852 C1851 1.383 . S
C1852 C1853 1.377 . S
C1853 H1837 0.930 . S
C1853 C1852 1.377 . S
C1853 C1854 1.379 . S
C1854 H1838 0.931 . S
C1854 C1848 1.383 . S
C1854 C1853 1.379 . S
H1855 C1849 0.959 . S
H1856 C1849 0.961 . S
H1857 C1849 0.960 . S
H1858 C1850 0.930 . S
H1859 C1851 0.929 . S
H1860 C1868 0.929 . S
H1861 C1870 0.930 . S
H1862 C1872 0.930 . S
H1863 C1875 0.929 . S
H1864 C1878 0.930 . S
H1865 C1880 0.960 . S
H1866 C1880 0.960 1_545 S
H1867 C1880 0.960 . S
C1868 H1860 0.929 . S
C1868 C1869 1.377 . S
C1868 C1870 1.384 . S
C1869 C1868 1.377 . S
C1869 C1875 1.390 . S
C1870 H1861 0.930 . S
C1870 C1868 1.384 . S
C1870 C1871 1.372 . S
C1871 C1870 1.372 . S
C1871 C1872 1.400 . S
C1871 C1876 1.490 . S
C1872 H1862 0.930 . S
C1872 C1871 1.400 . S
C1872 C1875 1.386 . S
H1873 C1889 0.930 . S
H1874 C1890 0.931 . S
C1875 H1863 0.929 . S
C1875 C1869 1.390 . S
C1875 C1872 1.386 . S
C1876 C1871 1.490 . S
C1876 C1878 1.395 . S
C1876 C1879 1.403 . S
H1877 C1883 0.930 . S
C1878 H1864 0.930 . S
C1878 C1876 1.395 . S
C1878 C1881 1.403 . S
C1879 C1876 1.403 . S
C1879 C1880 1.524 . S
C1879 C1883 1.400 . S
C1880 H1865 0.960 . S
C1880 H1866 0.960 1_565 S
C1880 H1867 0.960 . S
C1880 C1879 1.524 . S
C1881 C1878 1.403 . S
C1881 C1882 1.392 . S
C1881 C1885 1.495 . S
C1882 C1881 1.392 . S
C1882 C1883 1.385 . S
C1882 C1884 1.478 . S
C1883 H1877 0.930 . S
C1883 C1879 1.400 . S
C1883 C1882 1.385 . S
C1884 C1882 1.478 . S
C1884 C1886 1.381 . S
C1884 C1890 1.383 . S
C1885 C1881 1.495 . S
C1885 H1891 0.959 . S
C1885 H1892 0.961 . S
C1885 H1893 0.960 . S
C1886 C1884 1.381 . S
C1886 C1887 1.394 . S
C1886 H1894 0.930 . S
C1887 C1886 1.394 . S
C1887 C1888 1.383 . S
C1887 H1895 0.929 . S
C1888 C1887 1.383 . S
C1888 C1889 1.377 . S
C1889 H1873 0.930 . S
C1889 C1888 1.377 . S
C1889 C1890 1.379 . S
C1890 H1874 0.931 . S
C1890 C1884 1.383 . S
C1890 C1889 1.379 . S
H1891 C1885 0.959 . S
H1892 C1885 0.961 . S
H1893 C1885 0.960 . S
H1894 C1886 0.930 . S
H1895 C1887 0.929 . S
H1896 C1904 0.929 . S
H1897 C1906 0.930 . S
H1898 C1908 0.930 . S
H1899 C1911 0.929 . S
H1900 C1914 0.930 . S
H1901 C1916 0.960 . S
H1902 C1916 0.960 . S
H1903 C1916 0.960 . S
C1904 H1896 0.929 . S
C1904 C1905 1.377 . S
C1904 C1906 1.384 . S
C1905 C1904 1.377 . S
C1905 C1911 1.390 . S
C1906 H1897 0.930 . S
C1906 C1904 1.384 . S
C1906 C1907 1.372 . S
C1907 C1906 1.372 . S
C1907 C1908 1.400 . S
C1907 C1912 1.490 1_556 S
C1908 H1898 0.930 . S
C1908 C1907 1.400 . S
C1908 C1911 1.386 . S
H1909 C1925 0.930 . S
H1910 C1926 0.931 . S
C1911 H1899 0.929 . S
C1911 C1905 1.390 . S
C1911 C1908 1.386 . S
C1912 C1907 1.490 1_554 S
C1912 C1914 1.395 . S
C1912 C1915 1.403 . S
H1913 C1919 0.930 . S
C1914 H1900 0.930 . S
C1914 C1912 1.395 . S
C1914 C1917 1.403 . S
C1915 C1912 1.403 . S
C1915 C1916 1.524 . S
C1915 C1919 1.400 . S
C1916 H1901 0.960 . S
C1916 H1902 0.960 . S
C1916 H1903 0.960 . S
C1916 C1915 1.524 . S
C1917 C1914 1.403 . S
C1917 C1918 1.392 . S
C1917 C1921 1.495 . S
C1918 C1917 1.392 . S
C1918 C1919 1.385 . S
C1918 C1920 1.478 . S
C1919 H1913 0.930 . S
C1919 C1915 1.400 . S
C1919 C1918 1.385 . S
C1920 C1918 1.478 . S
C1920 C1922 1.381 . S
C1920 C1926 1.383 . S
C1921 C1917 1.495 . S
C1921 H1927 0.959 . S
C1921 H1928 0.961 . S
C1921 H1929 0.960 . S
C1922 C1920 1.381 . S
C1922 C1923 1.394 . S
C1922 H1930 0.930 . S
C1923 C1922 1.394 . S
C1923 C1924 1.383 . S
C1923 H1931 0.929 . S
C1924 C1923 1.383 . S
C1924 C1925 1.377 . S
C1925 H1909 0.930 . S
C1925 C1924 1.377 . S
C1925 C1926 1.379 . S
C1926 H1910 0.931 . S
C1926 C1920 1.383 . S
C1926 C1925 1.379 . S
H1927 C1921 0.959 . S
H1928 C1921 0.961 . S
H1929 C1921 0.960 . S
H1930 C1922 0.930 . S
H1931 C1923 0.929 . S
H1932 C1940 0.929 . S
H1933 C1942 0.930 . S
H1934 C1944 0.930 . S
H1935 C1947 0.929 . S
H1936 C1950 0.930 . S
H1937 C1952 0.960 . S
H1938 C1952 0.960 . S
H1939 C1952 0.960 . S
C1940 H1932 0.929 . S
C1940 C1941 1.377 . S
C1940 C1942 1.384 . S
C1941 C1940 1.377 . S
C1941 C1947 1.390 . S
C1942 H1933 0.930 . S
C1942 C1940 1.384 . S
C1942 C1943 1.372 . S
C1943 C1942 1.372 . S
C1943 C1944 1.400 . S
C1943 C1948 1.490 . S
C1944 H1934 0.930 . S
C1944 C1943 1.400 . S
C1944 C1947 1.386 . S
H1945 C1961 0.930 . S
H1946 C1962 0.931 . S
C1947 H1935 0.929 . S
C1947 C1941 1.390 . S
C1947 C1944 1.386 . S
C1948 C1943 1.490 . S
C1948 C1950 1.395 . S
C1948 C1951 1.403 . S
H1949 C1955 0.930 . S
C1950 H1936 0.930 . S
C1950 C1948 1.395 . S
C1950 C1953 1.403 . S
C1951 C1948 1.403 . S
C1951 C1952 1.524 . S
C1951 C1955 1.400 . S
C1952 H1937 0.960 . S
C1952 H1938 0.960 . S
C1952 H1939 0.960 . S
C1952 C1951 1.524 . S
C1953 C1950 1.403 . S
C1953 C1954 1.392 . S
C1953 C1957 1.495 . S
C1954 C1953 1.392 . S
C1954 C1955 1.385 . S
C1954 C1956 1.478 . S
C1955 H1949 0.930 . S
C1955 C1951 1.400 . S
C1955 C1954 1.385 . S
C1956 C1954 1.478 . S
C1956 C1958 1.381 . S
C1956 C1962 1.383 . S
C1957 C1953 1.495 . S
C1957 H1963 0.959 . S
C1957 H1964 0.961 . S
C1957 H1965 0.960 . S
C1958 C1956 1.381 . S
C1958 C1959 1.394 . S
C1958 H1966 0.930 . S
C1959 C1958 1.394 . S
C1959 C1960 1.383 . S
C1959 H1967 0.929 . S
C1960 C1959 1.383 . S
C1960 C1961 1.377 . S
C1961 H1945 0.930 . S
C1961 C1960 1.377 . S
C1961 C1962 1.379 . S
C1962 H1946 0.931 . S
C1962 C1956 1.383 . S
C1962 C1961 1.379 . S
H1963 C1957 0.959 . S
H1964 C1957 0.961 . S
H1965 C1957 0.960 . S
H1966 C1958 0.930 . S
H1967 C1959 0.929 . S
C537 C21 1.452 . S
C556 C516 1.438 . S
C573 C54 1.448 . S
C592 C417 1.458 . S
C609 C450 1.451 . S
C628 C87 1.436 . S
C645 C120 1.450 . S
C664 C483 1.455 . S
C681 C318 1.449 . S
C700 C153 1.457 . S
C717 C351 1.451 . S
C736 C186 1.435 . S
C753 C384 1.448 . S
C772 C219 1.456 . S
C789 C285 1.448 . S
C808 C252 1.448 . S
C825 C7 1.352 . S
C844 C238 1.366 . S
C861 C40 1.352 . S
C880 C139 1.367 . S
C897 C73 1.350 . S
C916 C172 1.366 . S
C933 C106 1.352 . S
C952 C205 1.367 . S
C969 C502 1.346 . S
C988 C271 1.352 . S
C1005 C403 1.352 . S
C1024 C304 1.332 . S
C1041 C436 1.353 . S
C1060 C337 1.325 . S
C1077 C370 1.346 . S
C1096 C469 1.355 . S
C1113 C18 1.012 . S
C1132 C150 0.999 . S
C1149 C183 1.018 . S
C1168 C51 1.010 . S
C1185 C216 1.013 . S
C1204 C84 1.023 . S
C1221 C117 1.016 . S
C1240 C249 1.030 . S
C1257 C414 1.017 . S
C1276 C282 1.030 . S
C1293 C315 1.012 . S
C1312 C447 1.002 . S
C1329 C348 1.016 . S
C1348 C480 1.029 . S
C1365 C513 1.016 . S
C1384 C381 1.029 . S
C1401 N2 1.277 . S
C1420 N13 1.259 . S
C1437 N46 1.276 . S
C1456 N35 1.270 . S
C1473 N68 1.282 . S
C1492 N79 1.293 . S
C1509 N112 1.282 . S
C1528 N101 1.295 . S
C1545 N134 1.283 . S
C1564 N145 1.290 . S
C1581 N167 1.282 . S
C1600 N178 1.291 . S
C1617 N200 1.275 . S
C1636 N211 1.270 . S
C1653 N233 1.283 . S
C1672 N244 1.282 . S
C1689 N277 1.277 . S
C1708 N266 1.259 . S
C1725 N310 1.277 . S
C1744 N299 1.280 . S
C1761 N343 1.284 . S
C1780 N332 1.278 . S
C1797 N376 1.282 . S
C1816 N365 1.295 . S
C1833 N398 1.282 . S
C1852 N409 1.275 . S
C1869 N431 1.278 . S
C1888 N442 1.291 . S
C1905 N475 1.278 . S
C1924 N464 1.256 . S
C1941 N508 1.282 . S
C1960 N497 1.295 . S
