# Generated by pormake.
# Topology unb, (4)-cn, num edge types: 1
# Building blocks:
#     Node 0, Type 0, BuildingBlock: AZAVOO_clean_sbu_0, # of connection points: 4
#     Node 1, Type 0, BuildingBlock: AZAVOO_clean_sbu_0, # of connection points: 4
#     Node 2, Type 0, BuildingBlock: AZAVOO_clean_sbu_0, # of connection points: 4
#     Node 3, Type 0, BuildingBlock: AZAVOO_clean_sbu_0, # of connection points: 4
#     Node 4, Type 0, BuildingBlock: AZAVOO_clean_sbu_0, # of connection points: 4
#     Node 5, Type 0, BuildingBlock: AZAVOO_clean_sbu_0, # of connection points: 4
#     Node 6, Type 0, BuildingBlock: AZAVOO_clean_sbu_0, # of connection points: 4
#     Node 7, Type 0, BuildingBlock: AZAVOO_clean_sbu_0, # of connection points: 4
#     Node 8, Type 0, BuildingBlock: AZAVOO_clean_sbu_0, # of connection points: 4
#     Node 9, Type 0, BuildingBlock: AZAVOO_clean_sbu_0, # of connection points: 4
#     Node 10, Type 0, BuildingBlock: AZAVOO_clean_sbu_0, # of connection points: 4
#     Node 11, Type 0, BuildingBlock: AZAVOO_clean_sbu_0, # of connection points: 4
#     Node 12, Type 0, BuildingBlock: AZAVOO_clean_sbu_0, # of connection points: 4
#     Node 13, Type 0, BuildingBlock: AZAVOO_clean_sbu_0, # of connection points: 4
#     Node 14, Type 0, BuildingBlock: AZAVOO_clean_sbu_0, # of connection points: 4
#     Node 15, Type 0, BuildingBlock: AZAVOO_clean_sbu_0, # of connection points: 4
#     Node 16, Type 0, BuildingBlock: AZAVOO_clean_sbu_0, # of connection points: 4
#     Node 17, Type 0, BuildingBlock: AZAVOO_clean_sbu_0, # of connection points: 4
#     Edge 18, Type (0, 0), BuildingBlock: KIFKEQ_clean_linker_1, # of connection points: 2
#     Edge 19, Type (0, 0), BuildingBlock: KIFKEQ_clean_linker_1, # of connection points: 2
#     Edge 20, Type (0, 0), BuildingBlock: KIFKEQ_clean_linker_1, # of connection points: 2
#     Edge 21, Type (0, 0), BuildingBlock: KIFKEQ_clean_linker_1, # of connection points: 2
#     Edge 22, Type (0, 0), BuildingBlock: KIFKEQ_clean_linker_1, # of connection points: 2
#     Edge 23, Type (0, 0), BuildingBlock: KIFKEQ_clean_linker_1, # of connection points: 2
#     Edge 24, Type (0, 0), BuildingBlock: KIFKEQ_clean_linker_1, # of connection points: 2
#     Edge 25, Type (0, 0), BuildingBlock: KIFKEQ_clean_linker_1, # of connection points: 2
#     Edge 26, Type (0, 0), BuildingBlock: KIFKEQ_clean_linker_1, # of connection points: 2
#     Edge 27, Type (0, 0), BuildingBlock: KIFKEQ_clean_linker_1, # of connection points: 2
#     Edge 28, Type (0, 0), BuildingBlock: KIFKEQ_clean_linker_1, # of connection points: 2
#     Edge 29, Type (0, 0), BuildingBlock: KIFKEQ_clean_linker_1, # of connection points: 2
#     Edge 30, Type (0, 0), BuildingBlock: KIFKEQ_clean_linker_1, # of connection points: 2
#     Edge 31, Type (0, 0), BuildingBlock: KIFKEQ_clean_linker_1, # of connection points: 2
#     Edge 32, Type (0, 0), BuildingBlock: KIFKEQ_clean_linker_1, # of connection points: 2
#     Edge 33, Type (0, 0), BuildingBlock: KIFKEQ_clean_linker_1, # of connection points: 2
#     Edge 34, Type (0, 0), BuildingBlock: KIFKEQ_clean_linker_1, # of connection points: 2
#     Edge 35, Type (0, 0), BuildingBlock: KIFKEQ_clean_linker_1, # of connection points: 2
#     Edge 36, Type (0, 0), BuildingBlock: KIFKEQ_clean_linker_1, # of connection points: 2
#     Edge 37, Type (0, 0), BuildingBlock: KIFKEQ_clean_linker_1, # of connection points: 2
#     Edge 38, Type (0, 0), BuildingBlock: KIFKEQ_clean_linker_1, # of connection points: 2
#     Edge 39, Type (0, 0), BuildingBlock: KIFKEQ_clean_linker_1, # of connection points: 2
#     Edge 40, Type (0, 0), BuildingBlock: KIFKEQ_clean_linker_1, # of connection points: 2
#     Edge 41, Type (0, 0), BuildingBlock: KIFKEQ_clean_linker_1, # of connection points: 2
#     Edge 42, Type (0, 0), BuildingBlock: KIFKEQ_clean_linker_1, # of connection points: 2
#     Edge 43, Type (0, 0), BuildingBlock: KIFKEQ_clean_linker_1, # of connection points: 2
#     Edge 44, Type (0, 0), BuildingBlock: KIFKEQ_clean_linker_1, # of connection points: 2
#     Edge 45, Type (0, 0), BuildingBlock: KIFKEQ_clean_linker_1, # of connection points: 2
#     Edge 46, Type (0, 0), BuildingBlock: KIFKEQ_clean_linker_1, # of connection points: 2
#     Edge 47, Type (0, 0), BuildingBlock: KIFKEQ_clean_linker_1, # of connection points: 2
#     Edge 48, Type (0, 0), BuildingBlock: KIFKEQ_clean_linker_1, # of connection points: 2
#     Edge 49, Type (0, 0), BuildingBlock: KIFKEQ_clean_linker_1, # of connection points: 2
#     Edge 50, Type (0, 0), BuildingBlock: KIFKEQ_clean_linker_1, # of connection points: 2
#     Edge 51, Type (0, 0), BuildingBlock: KIFKEQ_clean_linker_1, # of connection points: 2
#     Edge 52, Type (0, 0), BuildingBlock: KIFKEQ_clean_linker_1, # of connection points: 2
#     Edge 53, Type (0, 0), BuildingBlock: KIFKEQ_clean_linker_1, # of connection points: 2
# Relax obj value: 0.015
# Max RMSD: 0.022
# Mean RMSD: 0.022
data_MOF--net-unb--node1-AZAVOO_clean_sbu_0--edge1-KIFKEQ_clean_linker_1
_symmetry_space_group_name_H-M    P1
_symmetry_Int_Tables_number       1
_symmetry_cell_setting            triclinic
loop_
_symmetry_equiv_pos_as_xyz
'x, y, z'
_cell_length_a     69.538055
_cell_length_b     69.564049
_cell_length_c     23.965029
_cell_angle_alpha  90.053461
_cell_angle_beta   89.961789
_cell_angle_gamma 119.97121
loop_
_atom_site_label
_atom_site_type_symbol
_atom_site_fract_x
_atom_site_fract_y
_atom_site_fract_z
_atom_type_partial_charge
Mg0 Mg 0.13061 0.259 0.05679 0.0
O1 O 0.13856 0.28392 0.98441 0.0
O2 O 0.11608 0.29808 0.99536 0.0
Mg3 Mg 0.09644 0.28507 0.07582 0.0
C4 C 0.13099 0.2964 0.96835 0.0
C5 C 0.17164 0.25229 0.0714 0.0
O6 O 0.1677 0.25446 0.12398 0.0
O7 O 0.15103 0.28746 0.11684 0.0
O8 O 0.12893 0.30208 0.12642 0.0
O9 O 0.10261 0.23218 0.00862 0.0
O10 O 0.0988 0.255 0.06555 0.0
C11 C 0.14672 0.30176 0.13782 0.0
C12 C 0.08997 0.23901 0.02992 0.0
O13 O 0.1601 0.25466 0.03378 0.0
Mg14 Mg 0.75754 0.8742 0.07879 0.0
O15 O 0.73185 0.85819 0.00786 0.0
O16 O 0.71344 0.82157 0.02372 0.0
Mg17 Mg 0.72784 0.81403 0.10049 0.0
C18 C 0.71679 0.83846 0.99521 0.0
C19 C 0.78484 0.9219 0.04686 0.0
O20 O 0.79853 0.91427 0.05411 0.0
O21 O 0.73022 0.86855 0.14053 0.0
O22 O 0.71363 0.83179 0.15303 0.0
O23 O 0.78258 0.87075 0.02903 0.0
O24 O 0.75938 0.84509 0.0873 0.0
C25 C 0.71545 0.85065 0.16344 0.0
C26 C 0.77513 0.85137 0.05112 0.0
O27 O 0.76425 0.90893 0.05548 0.0
Mg28 Mg 0.11965 0.87855 0.07691 0.0
O29 O 0.13932 0.87273 0.00737 0.0
O30 O 0.17502 0.89817 0.01997 0.0
Mg31 Mg 0.17855 0.9196 0.09567 0.0
C32 C 0.15976 0.88172 0.99328 0.0
C33 C 0.07243 0.84112 0.09184 0.0
O34 O 0.07662 0.85393 0.13579 0.0
O35 O 0.13127 0.86191 0.14073 0.0
O36 O 0.16671 0.88866 0.15008 0.0
O37 O 0.11735 0.90409 0.02431 0.0
O38 O 0.14426 0.91175 0.08425 0.0
C39 C 0.15046 0.86957 0.16282 0.0
C40 C 0.13587 0.91864 0.04696 0.0
O41 O 0.08797 0.84602 0.05688 0.0
Mg42 Mg 0.23859 0.12056 0.90896 0.0
O43 O 0.26548 0.12631 0.97359 0.0
O44 O 0.27583 0.10114 0.95767 0.0
Mg45 Mg 0.25602 0.07948 0.88379 0.0
C46 C 0.2774 0.1176 0.98514 0.0
C47 C 0.23609 0.15586 0.98306 0.0
O48 O 0.23209 0.1403 0.01982 0.0
O49 O 0.26529 0.13703 0.84111 0.0
O50 O 0.27337 0.11005 0.8275 0.0
O51 O 0.21201 0.09501 0.9646 0.0
O52 O 0.22976 0.08728 0.9002 0.0
C53 C 0.27597 0.12911 0.8156 0.0
C54 C 0.21542 0.08044 0.93983 0.0
O55 O 0.2406 0.15331 0.93312 0.0
Mg56 Mg 0.88584 0.13204 0.92127 0.0
O57 O 0.87495 0.14742 0.99107 0.0
O58 O 0.89231 0.18403 0.97554 0.0
Mg59 Mg 0.91493 0.19218 0.89982 0.0
C60 C 0.87889 0.16693 0.00357 0.0
C61 C 0.86608 0.08428 0.95266 0.0
O62 O 0.88751 0.09227 0.94643 0.0
O63 O 0.86412 0.13692 0.85832 0.0
O64 O 0.88342 0.17374 0.84598 0.0
O65 O 0.9143 0.13632 0.97246 0.0
O66 O 0.91638 0.16162 0.91347 0.0
C67 C 0.86682 0.15462 0.83517 0.0
C68 C 0.92597 0.15573 0.95026 0.0
O69 O 0.85824 0.09705 0.94384 0.0
Mg70 Mg 0.87217 0.74515 0.92665 0.0
O71 O 0.85312 0.71965 0.99685 0.0
O72 O 0.81704 0.70737 0.98226 0.0
Mg73 Mg 0.81257 0.72336 0.90457 0.0
C74 C 0.83268 0.70749 0.01041 0.0
C75 C 0.91154 0.74845 0.9989 0.0
O76 O 0.89786 0.74628 0.0394 0.0
O77 O 0.86275 0.71672 0.86445 0.0
O78 O 0.82672 0.70548 0.85357 0.0
O79 O 0.87275 0.77248 0.97719 0.0
O80 O 0.84585 0.7515 0.91886 0.0
C81 C 0.84385 0.70392 0.84232 0.0
C82 C 0.8536 0.767 0.95584 0.0
O83 O 0.90518 0.74719 0.94861 0.0
Mg84 Mg 0.78734 0.56739 0.42132 0.0
O85 O 0.79189 0.59353 0.35594 0.0
O86 O 0.76596 0.60292 0.37112 0.0
Mg87 Mg 0.7454 0.58362 0.44676 0.0
C88 C 0.78254 0.60478 0.34364 0.0
C89 C 0.82841 0.56123 0.42459 0.0
O90 O 0.81903 0.55267 0.4728 0.0
O91 O 0.80394 0.59474 0.48751 0.0
O92 O 0.77668 0.60252 0.50016 0.0
O93 O 0.76211 0.54041 0.36661 0.0
O94 O 0.75387 0.55776 0.43115 0.0
C95 C 0.79599 0.60566 0.51161 0.0
C96 C 0.74732 0.54351 0.39127 0.0
O97 O 0.82003 0.57014 0.39422 0.0
Mg98 Mg 0.41584 0.21063 0.40429 0.0
O99 O 0.3921 0.19076 0.33175 0.0
O100 O 0.38015 0.15489 0.34781 0.0
Mg101 Mg 0.39486 0.15135 0.42919 0.0
C102 C 0.38053 0.17029 0.31807 0.0
C103 C 0.42323 0.24934 0.32679 0.0
O104 O 0.42741 0.23697 0.29304 0.0
O105 O 0.38603 0.20079 0.46217 0.0
O106 O 0.37528 0.16495 0.47486 0.0
O107 O 0.44476 0.2115 0.36009 0.0
O108 O 0.42286 0.18504 0.41825 0.0
C109 C 0.37307 0.18185 0.48386 0.0
C110 C 0.4393 0.19279 0.384 0.0
O111 O 0.41674 0.24249 0.37619 0.0
Mg112 Mg 0.78373 0.20783 0.42408 0.0
O113 O 0.80279 0.20169 0.35392 0.0
O114 O 0.83907 0.22274 0.37218 0.0
Mg115 Mg 0.84333 0.24334 0.44995 0.0
C116 C 0.82313 0.2084 0.3424 0.0
C117 C 0.73438 0.17041 0.4268 0.0
O118 O 0.73606 0.1801 0.47507 0.0
O119 O 0.79184 0.18774 0.4855 0.0
O120 O 0.82806 0.21102 0.50022 0.0
O121 O 0.78426 0.23554 0.37616 0.0
O122 O 0.81048 0.23995 0.43537 0.0
C123 C 0.81019 0.19273 0.50919 0.0
C124 C 0.80324 0.24856 0.39931 0.0
O125 O 0.75158 0.17738 0.39646 0.0
Mg126 Mg 0.91669 0.45046 0.26563 0.0
O127 O 0.93971 0.45554 0.34025 0.0
O128 O 0.94932 0.42932 0.33533 0.0
Mg129 Mg 0.93436 0.40894 0.25622 0.0
C130 C 0.9499 0.44596 0.35953 0.0
C131 C 0.90597 0.48831 0.25752 0.0
O132 O 0.89552 0.47611 0.21384 0.0
O133 O 0.94682 0.46705 0.20721 0.0
O134 O 0.95489 0.43977 0.20229 0.0
O135 O 0.88695 0.42512 0.31318 0.0
O136 O 0.90765 0.41691 0.25979 0.0
C137 C 0.9584 0.45894 0.18781 0.0
C138 C 0.89125 0.4103 0.29387 0.0
O139 O 0.91786 0.48298 0.28661 0.0
Mg140 Mg 0.54731 0.45338 0.24091 0.0
O141 O 0.54372 0.47473 0.30964 0.0
O142 O 0.57086 0.5097 0.29607 0.0
Mg143 Mg 0.59102 0.51116 0.21946 0.0
C144 C 0.55403 0.49526 0.32331 0.0
C145 C 0.50196 0.40961 0.22751 0.0
O146 O 0.50753 0.41454 0.17486 0.0
O147 O 0.53163 0.46611 0.17701 0.0
O148 O 0.5599 0.50078 0.16671 0.0
O149 O 0.57183 0.44956 0.29362 0.0
O150 O 0.58107 0.47635 0.23217 0.0
C151 C 0.54029 0.48534 0.15465 0.0
C152 C 0.5871 0.46755 0.27045 0.0
O153 O 0.51413 0.42326 0.26489 0.0
Mg154 Mg 0.53502 0.08478 0.26376 0.0
O155 O 0.51359 0.05766 0.32742 0.0
O156 O 0.47817 0.04578 0.3055 0.0
Mg157 Mg 0.4768 0.06634 0.23245 0.0
C158 C 0.49282 0.04488 0.33579 0.0
C159 C 0.58316 0.09424 0.26033 0.0
O160 O 0.58164 0.10327 0.21362 0.0
O161 O 0.52625 0.05858 0.19532 0.0
O162 O 0.49211 0.05175 0.1731 0.0
O163 O 0.53585 0.1114 0.31823 0.0
O164 O 0.51007 0.09301 0.25495 0.0
C165 C 0.50895 0.04941 0.16457 0.0
C166 C 0.51762 0.10759 0.29419 0.0
O167 O 0.56589 0.08366 0.29026 0.0
Mg168 Mg 0.44665 0.90745 0.75465 0.0
O169 O 0.44995 0.93164 0.68474 0.0
O170 O 0.42358 0.9406 0.69738 0.0
Mg171 Mg 0.40397 0.92294 0.77595 0.0
C172 C 0.44003 0.9421 0.66999 0.0
C173 C 0.4864 0.89951 0.75627 0.0
O174 O 0.47561 0.88927 0.80179 0.0
O175 O 0.46314 0.93633 0.81692 0.0
O176 O 0.43541 0.94352 0.82814 0.0
O177 O 0.42147 0.87884 0.70404 0.0
O178 O 0.41307 0.89725 0.76517 0.0
C179 C 0.45494 0.94728 0.83969 0.0
C180 C 0.40655 0.88202 0.72771 0.0
O181 O 0.47946 0.91029 0.72809 0.0
Mg182 Mg 0.09404 0.5456 0.7608 0.0
O183 O 0.06616 0.52392 0.69866 0.0
O184 O 0.05853 0.489 0.71317 0.0
Mg185 Mg 0.08078 0.48803 0.78224 0.0
C186 C 0.05525 0.50318 0.68735 0.0
C187 C 0.0936 0.58414 0.69628 0.0
O188 O 0.09725 0.57379 0.65532 0.0
O189 O 0.0689 0.53359 0.83261 0.0
O190 O 0.06506 0.50009 0.84762 0.0
O191 O 0.12043 0.5496 0.69981 0.0
O192 O 0.10468 0.52229 0.76056 0.0
C193 C 0.06134 0.51572 0.8609 0.0
C194 C 0.11814 0.53126 0.71944 0.0
O195 O 0.09003 0.57578 0.74494 0.0
Mg196 Mg 0.46702 0.55106 0.73564 0.0
O197 O 0.48639 0.54432 0.66741 0.0
O198 O 0.52234 0.56881 0.68066 0.0
Mg199 Mg 0.5262 0.59053 0.75602 0.0
C200 C 0.50682 0.55263 0.65383 0.0
C201 C 0.41906 0.51472 0.74774 0.0
O202 O 0.42315 0.52709 0.79253 0.0
O203 O 0.47729 0.53366 0.80066 0.0
O204 O 0.51298 0.55956 0.81101 0.0
O205 O 0.46601 0.57693 0.68182 0.0
O206 O 0.49238 0.58395 0.74302 0.0
C207 C 0.49625 0.54077 0.82362 0.0
C208 C 0.48462 0.59111 0.70474 0.0
O209 O 0.43492 0.51932 0.71409 0.0
Mg210 Mg 0.57946 0.7937 0.57796 0.0
O211 O 0.6059 0.80058 0.64478 0.0
O212 O 0.62109 0.77957 0.62581 0.0
Mg213 Mg 0.60406 0.7589 0.54835 0.0
C214 C 0.6197 0.79405 0.65558 0.0
C215 C 0.56642 0.8303 0.5791 0.0
O216 O 0.55816 0.82064 0.53096 0.0
O217 O 0.60644 0.81398 0.5137 0.0
O218 O 0.62009 0.7913 0.498 0.0
O219 O 0.5541 0.76589 0.62937 0.0
O220 O 0.57449 0.76183 0.56479 0.0
C221 C 0.61991 0.80932 0.48911 0.0
C222 C 0.55981 0.75314 0.60365 0.0
O223 O 0.57738 0.82373 0.60792 0.0
Mg224 Mg 0.206 0.78638 0.58106 0.0
O225 O 0.20104 0.8069 0.64974 0.0
O226 O 0.22752 0.84221 0.63716 0.0
Mg227 Mg 0.24875 0.84467 0.56191 0.0
C228 C 0.2107 0.82739 0.66369 0.0
C229 C 0.17008 0.74712 0.65017 0.0
O230 O 0.18529 0.75788 0.6884 0.0
O231 O 0.19034 0.79875 0.51629 0.0
O232 O 0.21811 0.83372 0.50691 0.0
O233 O 0.23075 0.78314 0.63476 0.0
O234 O 0.23954 0.81005 0.57405 0.0
C235 C 0.19877 0.81796 0.49391 0.0
C236 C 0.24579 0.80139 0.61213 0.0
O237 O 0.17287 0.75554 0.60172 0.0
Mg238 Mg 0.22337 0.43767 0.55544 0.0
O239 O 0.20352 0.41101 0.6224 0.0
O240 O 0.1675 0.39945 0.60931 0.0
Mg241 Mg 0.16395 0.41586 0.531 0.0
C242 C 0.18314 0.39915 0.63642 0.0
C243 C 0.26046 0.43723 0.63009 0.0
O244 O 0.24586 0.43379 0.66924 0.0
O245 O 0.21461 0.4105 0.4906 0.0
O246 O 0.17835 0.39819 0.47886 0.0
O247 O 0.22329 0.46413 0.60819 0.0
O248 O 0.19721 0.44422 0.54676 0.0
C249 C 0.19596 0.39748 0.46768 0.0
C250 C 0.20452 0.45916 0.58522 0.0
O251 O 0.25568 0.43856 0.57954 0.0
H252 H 0.16232 0.35557 0.44962 0.0
H253 H 0.2261 0.40508 0.38536 0.0
H254 H 0.1567 0.33246 0.36737 0.0
H255 H 0.21999 0.38214 0.3018 0.0
H256 H 0.15698 0.34446 0.15401 0.0
H257 H 0.17508 0.3676 0.23579 0.0
H258 H 0.1862 0.3165 0.30302 0.0
H259 H 0.16877 0.29351 0.22001 0.0
C260 C 0.17532 0.36125 0.41845 0.0
C261 C 0.19462 0.38206 0.42363 0.0
C262 C 0.17215 0.34802 0.3717 0.0
C263 C 0.18799 0.3556 0.32886 0.0
C264 C 0.20773 0.37595 0.33488 0.0
C265 C 0.21119 0.38898 0.3825 0.0
C266 C 0.16394 0.33847 0.18538 0.0
C267 C 0.16148 0.31723 0.1809 0.0
C268 C 0.17434 0.35172 0.23188 0.0
C269 C 0.18203 0.34375 0.27511 0.0
C270 C 0.18058 0.32299 0.26964 0.0
C271 C 0.17066 0.30993 0.2223 0.0
H272 H 0.66398 0.82466 0.48073 0.0
H273 H 0.60949 0.82623 0.39924 0.0
H274 H 0.68738 0.84185 0.39888 0.0
H275 H 0.63273 0.8427 0.31608 0.0
H276 H 0.67162 0.82148 0.1776 0.0
H277 H 0.64855 0.81887 0.25748 0.0
H278 H 0.7032 0.87821 0.32748 0.0
H279 H 0.72615 0.88132 0.24618 0.0
C280 C 0.65728 0.82934 0.44583 0.0
C281 C 0.63505 0.82424 0.44602 0.0
C282 C 0.67065 0.83921 0.3992 0.0
C283 C 0.66179 0.84357 0.35143 0.0
C284 C 0.63991 0.83962 0.35271 0.0
C285 C 0.62669 0.83029 0.40014 0.0
C286 C 0.67847 0.83433 0.20924 0.0
C287 C 0.70062 0.85154 0.20603 0.0
C288 C 0.66525 0.83292 0.25465 0.0
C289 C 0.67415 0.84839 0.29832 0.0
C290 C 0.69598 0.86622 0.29397 0.0
C291 C 0.70904 0.86798 0.24761 0.0
H292 H 0.16437 0.78809 0.42704 0.0
H293 H 0.20606 0.85819 0.4603 0.0
H294 H 0.14937 0.79701 0.34416 0.0
H295 H 0.19124 0.86683 0.37866 0.0
H296 H 0.11984 0.83601 0.23026 0.0
H297 H 0.12805 0.82018 0.31261 0.0
H298 H 0.19801 0.85889 0.27556 0.0
H299 H 0.19006 0.87456 0.19444 0.0
C300 C 0.16999 0.8053 0.41738 0.0
C301 C 0.18672 0.82244 0.44957 0.0
C302 C 0.16143 0.81037 0.37009 0.0
C303 C 0.16953 0.83259 0.35465 0.0
C304 C 0.18506 0.84956 0.38908 0.0
C305 C 0.19353 0.84457 0.43587 0.0
C306 C 0.13691 0.84074 0.23921 0.0
C307 C 0.15434 0.85688 0.20655 0.0
C308 C 0.14156 0.83169 0.28619 0.0
C309 C 0.16367 0.83871 0.30079 0.0
C310 C 0.18085 0.85356 0.26576 0.0
C311 C 0.17626 0.86253 0.21929 0.0
H312 H 0.37448 0.21157 0.5618 0.0
H313 H 0.3329 0.14533 0.49748 0.0
H314 H 0.34982 0.2023 0.64331 0.0
H315 H 0.30848 0.1363 0.57786 0.0
H316 H 0.30423 0.11897 0.7625 0.0
H317 H 0.32562 0.1355 0.67878 0.0
H318 H 0.30406 0.18386 0.67711 0.0
H319 H 0.28201 0.16703 0.7621 0.0
C320 C 0.35967 0.19537 0.56403 0.0
C321 C 0.35574 0.17901 0.52398 0.0
C322 C 0.34562 0.1901 0.61054 0.0
C323 C 0.32755 0.1685 0.61697 0.0
C324 C 0.32249 0.15298 0.57404 0.0
C325 C 0.33646 0.15815 0.52812 0.0
C326 C 0.304 0.13319 0.74489 0.0
C327 C 0.29105 0.14142 0.76867 0.0
C328 C 0.31628 0.14263 0.69679 0.0
C329 C 0.3161 0.16064 0.67115 0.0
C330 C 0.30428 0.16986 0.69617 0.0
C331 C 0.29172 0.16023 0.74465 0.0
H332 H 0.84023 0.179 0.5173 0.0
H333 H 0.78275 0.17458 0.59842 0.0
H334 H 0.84727 0.16241 0.59908 0.0
H335 H 0.79034 0.15873 0.68147 0.0
H336 H 0.85106 0.18283 0.81969 0.0
H337 H 0.83015 0.18437 0.7395 0.0
H338 H 0.82756 0.12573 0.67107 0.0
H339 H 0.84784 0.12366 0.7527 0.0
C340 C 0.82874 0.1738 0.55206 0.0
C341 C 0.81097 0.17797 0.55185 0.0
C342 C 0.8327 0.16427 0.59864 0.0
C343 C 0.81932 0.15934 0.6463 0.0
C344 C 0.80074 0.16227 0.64491 0.0
C345 C 0.7964 0.17124 0.59753 0.0
C346 C 0.84545 0.16991 0.7883 0.0
C347 C 0.85107 0.15319 0.79206 0.0
C348 C 0.83338 0.1707 0.74274 0.0
C349 C 0.82724 0.15511 0.69948 0.0
C350 C 0.83199 0.13779 0.7043 0.0
C351 C 0.84354 0.13663 0.75082 0.0
H352 H 0.87531 0.7049 0.7704 0.0
H353 H 0.80635 0.66558 0.81809 0.0
H354 H 0.86798 0.68098 0.68803 0.0
H355 H 0.79926 0.64205 0.7368 0.0
H356 H 0.78957 0.63877 0.54889 0.0
H357 H 0.80527 0.66159 0.63135 0.0
H358 H 0.84674 0.63267 0.6589 0.0
H359 H 0.8308 0.60929 0.57531 0.0
C360 C 0.85882 0.69084 0.76423 0.0
C361 C 0.84129 0.68734 0.79999 0.0
C362 C 0.85467 0.6772 0.71728 0.0
C363 C 0.83302 0.65996 0.7061 0.0
C364 C 0.81604 0.65542 0.74442 0.0
C365 C 0.82011 0.66894 0.7908 0.0
C366 C 0.80221 0.63734 0.57187 0.0
C367 C 0.80862 0.62188 0.55613 0.0
C368 C 0.81122 0.65048 0.61901 0.0
C369 C 0.82691 0.64858 0.65158 0.0
C370 C 0.8346 0.63432 0.6342 0.0
C371 C 0.82549 0.62101 0.58656 0.0
H372 H 0.97012 0.49906 0.13713 0.0
H373 H 0.98561 0.4461 0.14 0.0
H374 H 0.99723 0.51712 0.06178 0.0
H375 H 0.01157 0.46341 0.0648 0.0
H376 H 0.06894 0.50284 0.96003 0.0
H377 H 0.04664 0.49376 0.04428 0.0
H378 H 0.00281 0.5123 0.96287 0.0
H379 H 0.02627 0.52271 0.87899 0.0
C380 C 0.97935 0.49135 0.12208 0.0
C381 C 0.97568 0.47114 0.14487 0.0
C382 C 0.99475 0.50161 0.07868 0.0
C383 C 0.00676 0.49185 0.05745 0.0
C384 C 0.00312 0.47178 0.08081 0.0
C385 C 0.98797 0.46169 0.12394 0.0
C386 C 0.05473 0.50531 0.96053 0.0
C387 C 0.04907 0.51313 0.91303 0.0
C388 C 0.04186 0.49999 0.00864 0.0
C389 C 0.02255 0.5017 0.00994 0.0
C390 C 0.01758 0.5108 0.96335 0.0
C391 C 0.03089 0.51665 0.91529 0.0
H392 H 0.50677 0.45624 0.0846 0.0
H393 H 0.54662 0.52574 0.12675 0.0
H394 H 0.49244 0.46627 0.00224 0.0
H395 H 0.53242 0.53549 0.04564 0.0
H396 H 0.53523 0.5456 0.86056 0.0
H397 H 0.5416 0.52908 0.94234 0.0
H398 H 0.47103 0.48994 0.97078 0.0
H399 H 0.46438 0.50669 0.88777 0.0
C400 C 0.51205 0.47353 0.07708 0.0
C401 C 0.52816 0.49024 0.11144 0.0
C402 C 0.50386 0.47923 0.03011 0.0
C403 C 0.51171 0.50165 0.01728 0.0
C404 C 0.52644 0.5181 0.05412 0.0
C405 C 0.53457 0.51249 0.10054 0.0
C406 C 0.52095 0.53333 0.88367 0.0
C407 C 0.4993 0.52779 0.86821 0.0
C408 C 0.52465 0.52387 0.93054 0.0
C409 C 0.50682 0.50859 0.96328 0.0
C410 C 0.48502 0.50177 0.94614 0.0
C411 C 0.48126 0.51135 0.89879 0.0
H412 H 0.50616 0.06086 0.05952 0.0
H413 H 0.5104 0.01083 0.15594 0.0
H414 H 0.49844 0.03837 0.97567 0.0
H415 H 0.50166 0.98755 0.07198 0.0
H416 H 0.49208 0.95439 0.89865 0.0
H417 H 0.51063 0.98127 0.97438 0.0
H418 H 0.46446 0.00516 0.95273 0.0
H419 H 0.44648 0.97905 0.87768 0.0
C420 C 0.5058 0.04513 0.06232 0.0
C421 C 0.5087 0.03742 0.11382 0.0
C422 C 0.50125 0.03219 0.01449 0.0
C423 C 0.49894 0.01095 0.01737 0.0
C424 C 0.50339 0.00386 0.06835 0.0
C425 C 0.50833 0.01709 0.11637 0.0
C426 C 0.48618 0.96565 0.90969 0.0
C427 C 0.46776 0.96452 0.88218 0.0
C428 C 0.4967 0.98092 0.95322 0.0
C429 C 0.48913 0.99546 0.96937 0.0
C430 C 0.47105 0.99455 0.94081 0.0
C431 C 0.46057 0.97936 0.89791 0.0
H432 H 0.10691 0.30243 0.88926 0.0
H433 H 0.17397 0.3198 0.93134 0.0
H434 H 0.12026 0.3262 0.80771 0.0
H435 H 0.18783 0.3451 0.85152 0.0
H436 H 0.20405 0.37757 0.67762 0.0
H437 H 0.19191 0.35123 0.75524 0.0
H438 H 0.13738 0.3631 0.78607 0.0
H439 H 0.14869 0.38798 0.70683 0.0
C440 C 0.1246 0.3115 0.88098 0.0
C441 C 0.13943 0.30943 0.91661 0.0
C442 C 0.13235 0.32537 0.83453 0.0
C443 C 0.15525 0.33816 0.8234 0.0
C444 C 0.17008 0.3355 0.85831 0.0
C445 C 0.1622 0.32107 0.90419 0.0
C446 C 0.18947 0.37444 0.70122 0.0
C447 C 0.17714 0.38457 0.68584 0.0
C448 C 0.18254 0.35942 0.74588 0.0
C449 C 0.16337 0.3546 0.77673 0.0
C450 C 0.1517 0.36561 0.76236 0.0
C451 C 0.15831 0.38011 0.71713 0.0
H452 H 0.66111 0.79962 0.66836 0.0
H453 H 0.6118 0.8095 0.75281 0.0
H454 H 0.68511 0.81348 0.75062 0.0
H455 H 0.63565 0.82274 0.83572 0.0
H456 H 0.67358 0.80672 0.98253 0.0
H457 H 0.65032 0.79881 0.89962 0.0
H458 H 0.70469 0.85318 0.81317 0.0
H459 H 0.72792 0.86164 0.89701 0.0
C460 C 0.65544 0.80481 0.70443 0.0
C461 C 0.63456 0.8034 0.70434 0.0
C462 C 0.66923 0.81286 0.7512 0.0
C463 C 0.66216 0.81918 0.79913 0.0
C464 C 0.64141 0.818 0.79902 0.0
C465 C 0.62784 0.81046 0.7517 0.0
C466 C 0.68051 0.81713 0.94603 0.0
C467 C 0.70256 0.83475 0.94604 0.0
C468 C 0.66717 0.81268 0.89885 0.0
C469 C 0.67579 0.82542 0.85035 0.0
C470 C 0.69774 0.84318 0.8503 0.0
C471 C 0.71095 0.84803 0.89812 0.0
H472 H 0.2017 0.89509 0.95626 0.0
H473 H 0.13284 0.84795 0.92127 0.0
H474 H 0.21297 0.88095 0.87794 0.0
H475 H 0.14428 0.83404 0.84145 0.0
H476 H 0.17681 0.80137 0.73634 0.0
H477 H 0.16368 0.81368 0.81604 0.0
H478 H 0.21179 0.88181 0.77783 0.0
H479 H 0.22516 0.86967 0.69959 0.0
C480 C 0.1889 0.88177 0.93171 0.0
C481 C 0.16631 0.87279 0.94505 0.0
C482 C 0.1954 0.87372 0.88648 0.0
C483 C 0.17954 0.85649 0.853 0.0
C484 C 0.15693 0.84723 0.86662 0.0
C485 C 0.15038 0.8553 0.91216 0.0
C486 C 0.18458 0.81897 0.74502 0.0
C487 C 0.20218 0.83449 0.71169 0.0
C488 C 0.17696 0.82602 0.7905 0.0
C489 C 0.1868 0.84872 0.80362 0.0
C490 C 0.20412 0.86418 0.76968 0.0
C491 C 0.21173 0.85717 0.72451 0.0
H492 H 0.3551 0.12863 0.27565 0.0
H493 H 0.374 0.19709 0.24496 0.0
H494 H 0.3311 0.11729 0.19462 0.0
H495 H 0.35003 0.18559 0.16246 0.0
H496 H 0.28431 0.15082 0.05878 0.0
H497 H 0.31022 0.16474 0.13719 0.0
H498 H 0.33349 0.11952 0.09419 0.0
H499 H 0.30746 0.10533 0.01693 0.0
C500 C 0.35429 0.14134 0.25142 0.0
C501 C 0.36656 0.16382 0.26701 0.0
C502 C 0.34057 0.1348 0.20459 0.0
C503 C 0.33871 0.15052 0.1718 0.0
C504 C 0.35097 0.17304 0.18712 0.0
C505 C 0.36481 0.17964 0.23418 0.0
C506 C 0.29499 0.14388 0.06599 0.0
C507 C 0.2936 0.12678 0.03176 0.0
C508 C 0.30995 0.15198 0.11073 0.0
C509 C 0.32383 0.14314 0.12222 0.0
C510 C 0.32277 0.12642 0.08717 0.0
C511 C 0.30785 0.11833 0.04265 0.0
H512 H 0.86576 0.14287 0.10032 0.0
H513 H 0.86673 0.19823 0.01616 0.0
H514 H 0.84976 0.15034 0.18329 0.0
H515 H 0.85018 0.20518 0.09827 0.0
H516 H 0.8004 0.19416 0.24385 0.0
H517 H 0.81143 0.18148 0.16039 0.0
H518 H 0.86896 0.18879 0.24762 0.0
H519 H 0.85842 0.20206 0.33023 0.0
C520 C 0.86223 0.15637 0.09927 0.0
C521 C 0.86762 0.17008 0.05206 0.0
C522 C 0.85314 0.16064 0.1466 0.0
C523 C 0.84872 0.17826 0.14676 0.0
C524 C 0.8533 0.1914 0.09884 0.0
C525 C 0.86289 0.1875 0.05215 0.0
C526 C 0.81528 0.19287 0.24523 0.0
C527 C 0.82865 0.19924 0.29327 0.0
C528 C 0.82157 0.18567 0.19763 0.0
C529 C 0.84095 0.18412 0.19799 0.0
C530 C 0.85385 0.1897 0.24662 0.0
C531 C 0.8479 0.19742 0.29361 0.0
H532 H 0.79103 0.67953 0.04959 0.0
H533 H 0.86015 0.70206 0.0838 0.0
H534 H 0.78025 0.65541 0.1302 0.0
H535 H 0.84916 0.67792 0.16594 0.0
H536 H 0.81639 0.61259 0.27124 0.0
H537 H 0.82965 0.63804 0.1919 0.0
H538 H 0.78202 0.65869 0.2308 0.0
H539 H 0.76849 0.63312 0.30901 0.0
C540 C 0.804 0.67946 0.07443 0.0
C541 C 0.82652 0.69287 0.06013 0.0
C542 C 0.79777 0.66567 0.12101 0.0
C543 C 0.81383 0.66488 0.15484 0.0
C544 C 0.83638 0.67808 0.14048 0.0
C545 C 0.84267 0.69198 0.09361 0.0
C546 C 0.80876 0.62258 0.2629 0.0
C547 C 0.79119 0.62061 0.29628 0.0
C548 C 0.81648 0.63728 0.21764 0.0
C549 C 0.80678 0.65027 0.2048 0.0
C550 C 0.78958 0.64863 0.23893 0.0
C551 C 0.78186 0.63398 0.28398 0.0
H552 H 0.97346 0.48897 0.3956 0.0
H553 H 0.95645 0.42217 0.43939 0.0
H554 H 0.9984 0.50318 0.4757 0.0
H555 H 0.97998 0.43596 0.52143 0.0
H556 H 0.0425 0.46661 0.62312 0.0
H557 H 0.01659 0.45347 0.54595 0.0
H558 H 0.00406 0.50785 0.57135 0.0
H559 H 0.03133 0.52178 0.64682 0.0
C560 C 0.97475 0.47731 0.42309 0.0
C561 C 0.96325 0.45451 0.41099 0.0
C562 C 0.98897 0.48542 0.46929 0.0
C563 C 0.99159 0.47082 0.5051 0.0
C564 C 0.97911 0.44788 0.4941 0.0
C565 C 0.9654 0.43988 0.44726 0.0
C566 C 0.03416 0.47574 0.61235 0.0
C567 C 0.03889 0.49518 0.64123 0.0
C568 C 0.01908 0.46809 0.56819 0.0
C569 C 0.00782 0.47935 0.55236 0.0
C570 C 0.01252 0.49882 0.58158 0.0
C571 C 0.02806 0.50677 0.62515 0.0
H572 H 0.54849 0.56436 0.61765 0.0
H573 H 0.47917 0.51953 0.58135 0.0
H574 H 0.559 0.54955 0.5392 0.0
H575 H 0.48985 0.50498 0.50152 0.0
H576 H 0.57046 0.53776 0.36022 0.0
H577 H 0.55812 0.55069 0.43898 0.0
H578 H 0.50774 0.48326 0.4762 0.0
H579 H 0.51983 0.47019 0.39603 0.0
C580 C 0.53544 0.55141 0.59281 0.0
C581 C 0.51295 0.54326 0.6058 0.0
C582 C 0.5415 0.54297 0.54752 0.0
C583 C 0.52528 0.5262 0.5137 0.0
C584 C 0.50276 0.51778 0.52699 0.0
C585 C 0.49665 0.52623 0.57255 0.0
C586 C 0.55675 0.52559 0.38504 0.0
C587 C 0.54624 0.50287 0.37178 0.0
C588 C 0.54973 0.53304 0.43051 0.0
C589 C 0.53206 0.51801 0.46427 0.0
C590 C 0.52131 0.49529 0.45079 0.0
C591 C 0.52833 0.48779 0.40504 0.0
H592 H 0.42319 0.9669 0.6258 0.0
H593 H 0.47482 0.95037 0.60055 0.0
H594 H 0.43625 0.99111 0.54479 0.0
H595 H 0.48762 0.97438 0.51858 0.0
H596 H 0.51842 0.03879 0.41325 0.0
H597 H 0.50584 0.01361 0.49295 0.0
H598 H 0.43772 0.98922 0.44426 0.0
H599 H 0.45017 0.01458 0.36541 0.0
C600 C 0.43726 0.96831 0.60286 0.0
C601 C 0.44791 0.95662 0.61988 0.0
C602 C 0.44468 0.98213 0.55609 0.0
C603 C 0.46295 0.98465 0.52496 0.0
C604 C 0.47365 0.973 0.54192 0.0
C605 C 0.4662 0.95913 0.58877 0.0
C606 C 0.50076 0.02802 0.41939 0.0
C607 C 0.48534 0.02886 0.38294 0.0
C608 C 0.49355 0.01348 0.46498 0.0
C609 C 0.47076 0.99946 0.47523 0.0
C610 C 0.45538 1.00004 0.4382 0.0
C611 C 0.46257 0.01454 0.39271 0.0
H612 H 0.19991 0.24685 0.14036 0.0
H613 H 0.17717 0.23791 0.96955 0.0
H614 H 0.22043 0.22776 0.11949 0.0
H615 H 0.19701 0.2182 0.94915 0.0
H616 H 0.2418 0.19054 0.91703 0.0
H617 H 0.23115 0.21828 0.93827 0.0
H618 H 0.21028 0.19016 0.10298 0.0
H619 H 0.22155 0.16305 0.08243 0.0
C620 C 0.19947 0.24102 0.0982 0.0
C621 C 0.18669 0.24369 0.0568 0.0
C622 C 0.21113 0.22993 0.0863 0.0
C623 C 0.21016 0.22113 0.03281 0.0
C624 C 0.19835 0.22491 0.99068 0.0
C625 C 0.18683 0.23613 0.00247 0.0
C626 C 0.23528 0.19054 0.95809 0.0
C627 C 0.23233 0.17443 0.99784 0.0
C628 C 0.22903 0.20636 0.97016 0.0
C629 C 0.21963 0.20639 0.02218 0.0
C630 C 0.21769 0.1909 0.06272 0.0
C631 C 0.22402 0.17518 0.05077 0.0
H632 H 0.82072 0.05752 0.94173 0.0
H633 H 0.87955 0.05825 0.00245 0.0
H634 H 0.79872 0.01766 0.96271 0.0
H635 H 0.8578 0.01918 0.02473 0.0
H636 H 0.82332 0.94716 0.99219 0.0
H637 H 0.84066 0.98615 0.96885 0.0
H638 H 0.78464 0.98881 0.03812 0.0
H639 H 0.76671 0.949 0.06008 0.0
C640 C 0.82886 0.04925 0.96014 0.0
C641 C 0.85191 0.06088 0.96954 0.0
C642 C 0.81629 0.02649 0.97228 0.0
C643 C 0.82662 0.01516 0.99424 0.0
C644 C 0.84943 0.02721 0.0062 0.0
C645 C 0.86192 0.04968 0.99365 0.0
C646 C 0.81458 0.95596 0.00226 0.0
C647 C 0.79383 0.94513 0.02879 0.0
C648 C 0.82458 0.97838 0.9891 0.0
C649 C 0.8143 0.99074 0.00292 0.0
C650 C 0.793 0.97973 0.0271 0.0
C651 C 0.78278 0.95701 0.03979 0.0
H652 H 0.92977 0.74825 0.09969 0.0
H653 H 0.94683 0.76648 0.92695 0.0
H654 H 0.96906 0.76619 0.12337 0.0
H655 H 0.98605 0.78522 0.95083 0.0
H656 H 0.05696 0.81194 0.0035 0.0
H657 H 0.01834 0.78486 0.9818 0.0
H658 H 0.99739 0.80339 0.13252 0.0
H659 H 0.0357 0.8296 0.15493 0.0
C660 C 0.94192 0.7559 0.06666 0.0
C661 C 0.93516 0.75616 0.01158 0.0
C662 C 0.96447 0.76635 0.08028 0.0
C663 C 0.98083 0.77757 0.03926 0.0
C664 C 0.97402 0.77665 0.98355 0.0
C665 C 0.95145 0.76596 0.96984 0.0
C666 C 0.04409 0.80993 0.03235 0.0
C667 C 0.04943 0.82305 0.08076 0.0
C668 C 0.02192 0.7945 0.01976 0.0
C669 C 0.00462 0.79193 0.0552 0.0
C670 C 0.01016 0.80454 0.10457 0.0
C671 C 0.03224 0.8198 0.11726 0.0
H672 H 0.81047 0.75506 0.93123 0.0
H673 H 0.86839 0.80415 0.02011 0.0
H674 H 0.79058 0.77429 0.95717 0.0
H675 H 0.84852 0.82371 0.04464 0.0
H676 H 0.81454 0.8651 0.99916 0.0
H677 H 0.8329 0.84376 0.98003 0.0
H678 H 0.77737 0.78549 0.05116 0.0
H679 H 0.759 0.80699 0.07166 0.0
C680 C 0.81892 0.76977 0.95672 0.0
C681 C 0.84103 0.77797 0.97377 0.0
C682 C 0.80747 0.78076 0.9716 0.0
C683 C 0.81805 0.80044 0.00278 0.0
C684 C 0.84005 0.80857 0.02035 0.0
C685 C 0.85137 0.79734 0.00642 0.0
C686 C 0.80613 0.84771 0.01056 0.0
C687 C 0.78526 0.83771 0.03683 0.0
C688 C 0.81676 0.83558 -3e-05 0.0
C689 C 0.8066 0.81308 0.01451 0.0
C690 C 0.78551 0.80285 0.03962 0.0
C691 C 0.77503 0.81514 0.05129 0.0
H692 H 0.12998 0.93703 0.952 0.0
H693 H 0.16759 0.95369 0.10535 0.0
H694 H 0.1491 0.97643 0.92635 0.0
H695 H 0.18628 0.99294 0.08011 0.0
H696 H 0.1935 0.06212 0.0378 0.0
H697 H 0.17389 0.02274 0.06371 0.0
H698 H 0.1908 0.00614 0.90447 0.0
H699 H 0.21069 0.04536 0.87893 0.0
C700 C 0.14227 0.94908 0.98019 0.0
C701 C 0.14736 0.94228 0.03052 0.0
C702 C 0.15321 0.97157 0.96549 0.0
C703 C 0.16908 0.98766 0.00142 0.0
C704 C 0.17399 0.98087 0.05193 0.0
C705 C 0.1634 0.9584 0.0661 0.0
C706 C 0.19305 0.05005 0.00846 0.0
C707 C 0.20369 0.05681 0.95647 0.0
C708 C 0.1819 0.02757 0.0233 0.0
C709 C 0.1808 0.01146 0.98592 0.0
C710 C 0.19126 0.01822 0.93382 0.0
C711 C 0.20276 0.04067 0.91945 0.0
H712 H 0.95423 0.19961 0.92415 0.0
H713 H 0.95166 0.14323 0.00709 0.0
H714 H 0.99433 0.22121 0.94168 0.0
H715 H 0.99154 0.16461 0.02325 0.0
H716 H 0.06537 0.20062 0.97196 0.0
H717 H 0.02557 0.18169 0.95273 0.0
H718 H 0.02097 0.2348 0.03284 0.0
H719 H 0.06066 0.25356 0.05345 0.0
C720 C 0.96213 0.19189 0.94641 0.0
C721 C 0.94976 0.16972 0.96429 0.0
C722 C 0.98504 0.20423 0.95636 0.0
C723 C 0.99595 0.19443 0.98325 0.0
C724 C 0.98352 0.17244 0.00186 0.0
C725 C 0.96067 0.16028 0.99291 0.0
C726 C 0.05596 0.20839 0.98509 0.0
C727 C 0.06624 0.22862 0.0143 0.0
C728 C 0.03318 0.19751 0.97424 0.0
C729 C 0.02029 0.20681 0.99149 0.0
C730 C 0.03062 0.22738 0.01889 0.0
C731 C 0.05335 0.23808 0.03071 0.0
H732 H 0.84851 0.57287 0.32205 0.0
H733 H 0.84766 0.54 0.47572 0.0
H734 H 0.8726 0.56071 0.27991 0.0
H735 H 0.87126 0.52748 0.43334 0.0
H736 H 0.87952 0.50197 0.20791 0.0
H737 H 0.86566 0.52472 0.24854 0.0
H738 H 0.90678 0.5362 0.39387 0.0
H739 H 0.92035 0.51296 0.35359 0.0
C740 C 0.85372 0.56335 0.34714 0.0
C741 C 0.8459 0.55715 0.40203 0.0
C742 C 0.86744 0.55628 0.32287 0.0
C743 C 0.87366 0.54289 0.35297 0.0
C744 C 0.86698 0.53792 0.40901 0.0
C745 C 0.85328 0.54499 0.43326 0.0
C746 C 0.88593 0.50965 0.24809 0.0
C747 C 0.9008 0.50536 0.27783 0.0
C748 C 0.87808 0.52286 0.2713 0.0
C749 C 0.88493 0.53213 0.32478 0.0
C750 C 0.90089 0.529 0.35299 0.0
C751 C 0.90876 0.51578 0.32974 0.0
H752 H 0.49253 0.39078 0.33143 0.0
H753 H 0.47214 0.37679 0.15895 0.0
H754 H 0.46905 0.35173 0.35409 0.0
H755 H 0.44802 0.33776 0.18196 0.0
H756 H 0.44057 0.26975 0.22741 0.0
H757 H 0.45502 0.30847 0.20383 0.0
H758 H 0.43319 0.31943 0.36357 0.0
H759 H 0.41926 0.28059 0.38794 0.0
C760 C 0.48259 0.37947 0.29856 0.0
C761 C 0.4845 0.38687 0.24318 0.0
C762 C 0.46899 0.35702 0.31164 0.0
C763 C 0.45684 0.34146 0.26971 0.0
C764 C 0.45754 0.34918 0.21507 0.0
C765 C 0.47127 0.3716 0.20192 0.0
C766 C 0.43855 0.2803 0.25731 0.0
C767 C 0.42898 0.27209 0.30984 0.0
C768 C 0.44671 0.30255 0.24357 0.0
C769 C 0.44541 0.3172 0.28189 0.0
C770 C 0.4348 0.30872 0.3334 0.0
C771 C 0.42669 0.28641 0.34725 0.0
H772 H 0.62337 0.11858 0.20938 0.0
H773 H 0.59297 0.08219 0.36063 0.0
H774 H 0.65989 0.13258 0.25059 0.0
H775 H 0.62968 0.09585 0.40153 0.0
H776 H 0.69404 0.1547 0.47723 0.0
H777 H 0.65756 0.13177 0.43606 0.0
H778 H 0.68809 0.12521 0.2856 0.0
H779 H 0.72471 0.14865 0.32641 0.0
C780 C 0.62448 0.11317 0.25103 0.0
C781 C 0.60522 0.09951 0.28197 0.0
C782 C 0.64548 0.1211 0.27459 0.0
C783 C 0.64774 0.11552 0.32963 0.0
C784 C 0.62851 0.10077 0.35938 0.0
C785 C 0.60747 0.09283 0.33579 0.0
C786 C 0.693 0.14811 0.43568 0.0
C787 C 0.71231 0.15378 0.40486 0.0
C788 C 0.67203 0.1348 0.41215 0.0
C789 C 0.66987 0.12678 0.35728 0.0
C790 C 0.68918 0.13142 0.32761 0.0
C791 C 0.71017 0.14478 0.35112 0.0
H792 H 0.47341 0.09388 0.28499 0.0
H793 H 0.53589 0.14887 0.34005 0.0
H794 H 0.4549 0.11486 0.30731 0.0
H795 H 0.5173 0.17005 0.36163 0.0
H796 H 0.47631 0.20608 0.31928 0.0
H797 H 0.4958 0.18561 0.29987 0.0
H798 H 0.44822 0.13112 0.40048 0.0
H799 H 0.42923 0.15163 0.42147 0.0
C800 C 0.48321 0.11043 0.30172 0.0
C801 C 0.50611 0.11973 0.31061 0.0
C802 C 0.47258 0.12241 0.31471 0.0
C803 C 0.48473 0.14408 0.33584 0.0
C804 C 0.50763 0.15342 0.34494 0.0
C805 C 0.51819 0.14124 0.33303 0.0
C806 C 0.47 0.18974 0.33724 0.0
C807 C 0.45098 0.18038 0.37127 0.0
C808 C 0.48122 0.17811 0.32634 0.0
C809 C 0.4734 0.15679 0.34852 0.0
C810 C 0.45443 0.14745 0.38243 0.0
C811 C 0.44349 0.15921 0.3942 0.0
H812 H 0.84739 0.27771 0.41776 0.0
H813 H 0.78812 0.27341 0.34778 0.0
H814 H 0.86834 0.31696 0.39359 0.0
H815 H 0.80914 0.31299 0.32482 0.0
H816 H 0.85357 0.39043 0.35794 0.0
H817 H 0.83174 0.35116 0.38403 0.0
H818 H 0.87781 0.33783 0.29532 0.0
H819 H 0.89908 0.37653 0.26756 0.0
C820 C 0.8388 0.28507 0.39734 0.0
C821 C 0.81611 0.27236 0.38434 0.0
C822 C 0.85082 0.30757 0.38353 0.0
C823 C 0.84029 0.31792 0.35755 0.0
C824 C 0.81757 0.30537 0.34521 0.0
C825 C 0.80563 0.28273 0.35798 0.0
C826 C 0.85907 0.37913 0.34413 0.0
C827 C 0.8783 0.38675 0.3113 0.0
C828 C 0.84653 0.35669 0.35887 0.0
C829 C 0.85324 0.34161 0.34189 0.0
C830 C 0.87247 0.34922 0.30945 0.0
C831 C 0.8847 0.37147 0.29378 0.0
H832 H 0.62343 0.49839 0.21395 0.0
H833 H 0.60371 0.4608 0.36737 0.0
H834 H 0.66228 0.51612 0.24281 0.0
H835 H 0.64266 0.47885 0.39652 0.0
H836 H 0.71161 0.53871 0.44961 0.0
H837 H 0.67276 0.51962 0.42055 0.0
H838 H 0.69108 0.50327 0.26289 0.0
H839 H 0.73005 0.52214 0.29221 0.0
C840 C 0.62739 0.49397 0.25392 0.0
C841 C 0.61053 0.47825 0.28851 0.0
C842 C 0.64962 0.50401 0.2702 0.0
C843 C 0.65542 0.49881 0.32179 0.0
C844 C 0.63859 0.4832 0.3566 0.0
C845 C 0.61634 0.47284 0.33987 0.0
C846 C 0.70737 0.53105 0.40873 0.0
C847 C 0.72387 0.53195 0.3731 0.0
C848 C 0.68512 0.52001 0.39232 0.0
C849 C 0.67896 0.50997 0.33958 0.0
C850 C 0.69545 0.51097 0.30372 0.0
C851 C 0.71769 0.52169 0.32054 0.0
H852 H 0.57778 0.85084 0.68116 0.0
H853 H 0.54092 0.84551 0.53125 0.0
H854 H 0.56331 0.87271 0.72497 0.0
H855 H 0.52612 0.86687 0.57536 0.0
H856 H 0.5086 0.91374 0.65673 0.0
H857 H 0.53281 0.90193 0.61356 0.0
H858 H 0.52713 0.86344 0.76042 0.0
H859 H 0.50342 0.87558 0.80389 0.0
C860 C 0.56683 0.85457 0.65727 0.0
C861 C 0.5603 0.84619 0.60291 0.0
C862 C 0.55844 0.86701 0.68251 0.0
C863 C 0.54337 0.87137 0.65394 0.0
C864 C 0.53785 0.86404 0.59847 0.0
C865 C 0.54623 0.85162 0.57325 0.0
C866 C 0.51288 0.90311 0.68022 0.0
C867 C 0.50385 0.89539 0.73353 0.0
C868 C 0.52665 0.89623 0.65532 0.0
C869 C 0.53173 0.88153 0.68322 0.0
C870 C 0.52375 0.87491 0.73784 0.0
C871 C 0.51 0.88177 0.76269 0.0
H872 H 0.16269 0.72272 0.74506 0.0
H873 H 0.13781 0.71866 0.57774 0.0
H874 H 0.13883 0.68294 0.75582 0.0
H875 H 0.11335 0.67876 0.58912 0.0
H876 H 0.10677 0.60879 0.60075 0.0
H877 H 0.12006 0.6482 0.59124 0.0
H878 H 0.10268 0.65086 0.76312 0.0
H879 H 0.08993 0.61139 0.77311 0.0
C880 C 0.15172 0.71342 0.711 0.0
C881 C 0.15245 0.72385 0.66021 0.0
C882 C 0.13787 0.69054 0.71732 0.0
C883 C 0.12431 0.67752 0.67308 0.0
C884 C 0.12389 0.68821 0.62365 0.0
C885 C 0.13782 0.71112 0.61726 0.0
C886 C 0.1054 0.61765 0.6363 0.0
C887 C 0.09763 0.60698 0.68795 0.0
C888 C 0.1129 0.64031 0.63073 0.0
C889 C 0.11271 0.65284 0.67662 0.0
C890 C 0.10348 0.64182 0.72723 0.0
C891 C 0.09605 0.61914 0.73286 0.0
H892 H 0.40379 0.48822 0.65453 0.0
H893 H 0.38175 0.50378 0.80788 0.0
H894 H 0.36516 0.46451 0.62617 0.0
H895 H 0.34347 0.48089 0.77899 0.0
H896 H 0.27493 0.43138 0.73114 0.0
H897 H 0.31316 0.44512 0.76047 0.0
H898 H 0.33586 0.47017 0.59407 0.0
H899 H 0.29762 0.45568 0.56437 0.0
C900 C 0.39072 0.4864 0.68245 0.0
C901 C 0.39587 0.49806 0.73326 0.0
C902 C 0.36858 0.47293 0.66603 0.0
C903 C 0.35112 0.47087 0.70001 0.0
C904 C 0.35636 0.48176 0.75195 0.0
C905 C 0.37842 0.49509 0.76842 0.0
C906 C 0.28807 0.43949 0.7006 0.0
C907 C 0.28325 0.44269 0.64562 0.0
C908 C 0.31002 0.44749 0.71749 0.0
C909 C 0.32769 0.4591 0.67994 0.0
C910 C 0.32273 0.46116 0.6241 0.0
C911 C 0.30076 0.45296 0.60708 0.0
H912 H 0.21753 0.49382 0.65786 0.0
H913 H 0.16271 0.44914 0.55291 0.0
H914 H 0.19661 0.51182 0.68683 0.0
H915 H 0.14176 0.46679 0.58299 0.0
H916 H 0.10431 0.48706 0.71136 0.0
H917 H 0.12537 0.47001 0.6775 0.0
H918 H 0.18059 0.5348 0.63885 0.0
H919 H 0.15935 0.55195 0.67267 0.0
C920 C 0.201 0.48774 0.6412 0.0
C921 C 0.19171 0.46983 0.60352 0.0
C922 C 0.18912 0.49815 0.65753 0.0
C923 C 0.16758 0.49065 0.63717 0.0
C924 C 0.15827 0.47276 0.59965 0.0
C925 C 0.17028 0.46261 0.58258 0.0
C926 C 0.12093 0.49769 0.69589 0.0
C927 C 0.13028 0.52085 0.69529 0.0
C928 C 0.13292 0.48791 0.67603 0.0
C929 C 0.15464 0.50111 0.65594 0.0
C930 C 0.16393 0.52428 0.65462 0.0
C931 C 0.15175 0.53405 0.67356 0.0
H932 H 0.47965 0.60965 0.60893 0.0
H933 H 0.51686 0.62584 0.76287 0.0
H934 H 0.499 0.6491 0.58373 0.0
H935 H 0.53577 0.66514 0.73809 0.0
H936 H 0.53845 0.73287 0.70016 0.0
H937 H 0.52109 0.69343 0.72345 0.0
H938 H 0.54112 0.68046 0.56387 0.0
H939 H 0.55892 0.71999 0.54086 0.0
C940 C 0.49197 0.6216 0.63723 0.0
C941 C 0.49676 0.61468 0.68781 0.0
C942 C 0.50307 0.64411 0.62274 0.0
C943 C 0.51878 0.66007 0.65913 0.0
C944 C 0.52363 0.65314 0.70952 0.0
C945 C 0.51288 0.63065 0.72348 0.0
C946 C 0.53926 0.72163 0.67021 0.0
C947 C 0.55006 0.72949 0.61876 0.0
C948 C 0.52939 0.69911 0.68359 0.0
C949 C 0.52976 0.68398 0.64533 0.0
C950 C 0.54053 0.69181 0.59388 0.0
C951 C 0.5508 0.71441 0.58095 0.0
H952 H 0.26288 0.79558 0.70958 0.0
H953 H 0.28169 0.83214 0.55457 0.0
H954 H 0.302 0.81446 0.73815 0.0
H955 H 0.32061 0.85059 0.58273 0.0
H956 H 0.38901 0.8584 0.63159 0.0
H957 H 0.34983 0.83801 0.60412 0.0
H958 H 0.33175 0.85637 0.75925 0.0
H959 H 0.37084 0.87706 0.78638 0.0
C960 C 0.27535 0.80755 0.68162 0.0
C961 C 0.26925 0.81247 0.63 0.0
C962 C 0.29766 0.81836 0.69799 0.0
C963 C 0.31425 0.83389 0.66247 0.0
C964 C 0.30815 0.83855 0.61063 0.0
C965 C 0.28587 0.8281 0.59477 0.0
C966 C 0.37666 0.85805 0.65979 0.0
C967 C 0.38297 0.8694 0.71097 0.0
C968 C 0.3543 0.84644 0.64405 0.0
C969 C 0.33785 0.84561 0.67971 0.0
C970 C 0.34412 0.85663 0.73125 0.0
C971 C 0.36648 0.86858 0.74652 0.0
loop_
_geom_bond_atom_site_label_1
_geom_bond_atom_site_label_2
_geom_bond_distance
_geom_bond_site_symmetry_2
_ccdc_geom_bond_type
Mg0 O1 2.028 . S
Mg0 O7 1.986 . S
Mg0 O9 2.114 . S
Mg0 O10 2.251 . S
Mg0 O13 2.010 . S
O1 Mg0 2.028 . S
O1 C4 1.250 1_554 S
O2 Mg3 2.028 . S
O2 C4 1.248 1_554 S
Mg3 O2 2.028 . S
Mg3 O8 2.032 . S
Mg3 O10 2.079 . S
C4 O1 1.250 1_556 S
C4 O2 1.248 1_556 S
C5 O6 1.264 . S
C5 O13 1.249 . S
O6 C5 1.264 . S
O7 Mg0 1.986 . S
O7 C11 1.246 . S
O8 Mg3 2.032 . S
O8 C11 1.259 . S
O9 Mg0 2.114 . S
O9 C12 1.252 . S
O10 Mg0 2.251 . S
O10 Mg3 2.079 . S
O10 C12 1.273 . S
C11 O7 1.246 . S
C11 O8 1.259 . S
C12 O9 1.252 . S
C12 O10 1.273 . S
O13 Mg0 2.010 . S
O13 C5 1.249 . S
Mg14 O15 2.028 . S
Mg14 O21 1.986 . S
Mg14 O23 2.114 . S
Mg14 O24 2.251 . S
Mg14 O27 2.010 . S
O15 Mg14 2.028 . S
O15 C18 1.250 1_554 S
O16 Mg17 2.028 . S
O16 C18 1.248 1_554 S
Mg17 O16 2.028 . S
Mg17 O22 2.032 . S
Mg17 O24 2.079 . S
C18 O15 1.250 1_556 S
C18 O16 1.248 1_556 S
C19 O20 1.264 . S
C19 O27 1.249 . S
O20 C19 1.264 . S
O21 Mg14 1.986 . S
O21 C25 1.246 . S
O22 Mg17 2.032 . S
O22 C25 1.259 . S
O23 Mg14 2.114 . S
O23 C26 1.252 . S
O24 Mg14 2.251 . S
O24 Mg17 2.079 . S
O24 C26 1.273 . S
C25 O21 1.246 . S
C25 O22 1.259 . S
C26 O23 1.252 . S
C26 O24 1.273 . S
O27 Mg14 2.010 . S
O27 C19 1.249 . S
Mg28 O29 2.028 . S
Mg28 O35 1.986 . S
Mg28 O37 2.114 . S
Mg28 O38 2.251 . S
Mg28 O41 2.010 . S
O29 Mg28 2.028 . S
O29 C32 1.250 1_554 S
O30 Mg31 2.028 . S
O30 C32 1.248 1_554 S
Mg31 O30 2.028 . S
Mg31 O36 2.032 . S
Mg31 O38 2.079 . S
C32 O29 1.250 1_556 S
C32 O30 1.248 1_556 S
C33 O34 1.264 . S
C33 O41 1.249 . S
O34 C33 1.264 . S
O35 Mg28 1.986 . S
O35 C39 1.246 . S
O36 Mg31 2.032 . S
O36 C39 1.259 . S
O37 Mg28 2.114 . S
O37 C40 1.252 . S
O38 Mg28 2.251 . S
O38 Mg31 2.079 . S
O38 C40 1.273 . S
C39 O35 1.246 . S
C39 O36 1.259 . S
C40 O37 1.252 . S
C40 O38 1.273 . S
O41 Mg28 2.010 . S
O41 C33 1.249 . S
Mg42 O43 2.028 . S
Mg42 O49 1.986 . S
Mg42 O51 2.114 . S
Mg42 O52 2.251 . S
Mg42 O55 2.010 . S
O43 Mg42 2.028 . S
O43 C46 1.250 1_556 S
O44 Mg45 2.028 . S
O44 C46 1.248 1_556 S
Mg45 O44 2.028 . S
Mg45 O50 2.032 . S
Mg45 O52 2.079 . S
C46 O43 1.250 1_554 S
C46 O44 1.248 1_554 S
C47 O48 1.264 . S
C47 O55 1.249 . S
O48 C47 1.264 . S
O49 Mg42 1.986 . S
O49 C53 1.246 . S
O50 Mg45 2.032 . S
O50 C53 1.259 . S
O51 Mg42 2.114 . S
O51 C54 1.252 . S
O52 Mg42 2.251 . S
O52 Mg45 2.079 . S
O52 C54 1.273 . S
C53 O49 1.246 . S
C53 O50 1.259 . S
C54 O51 1.252 . S
C54 O52 1.273 . S
O55 Mg42 2.010 . S
O55 C47 1.249 . S
Mg56 O57 2.028 . S
Mg56 O63 1.986 . S
Mg56 O65 2.114 . S
Mg56 O66 2.251 . S
Mg56 O69 2.010 . S
O57 Mg56 2.028 . S
O57 C60 1.250 1_556 S
O58 Mg59 2.028 . S
O58 C60 1.248 1_556 S
Mg59 O58 2.028 . S
Mg59 O64 2.032 . S
Mg59 O66 2.079 . S
C60 O57 1.250 1_554 S
C60 O58 1.248 1_554 S
C61 O62 1.264 . S
C61 O69 1.249 . S
O62 C61 1.264 . S
O63 Mg56 1.986 . S
O63 C67 1.246 . S
O64 Mg59 2.032 . S
O64 C67 1.259 . S
O65 Mg56 2.114 . S
O65 C68 1.252 . S
O66 Mg56 2.251 . S
O66 Mg59 2.079 . S
O66 C68 1.273 . S
C67 O63 1.246 . S
C67 O64 1.259 . S
C68 O65 1.252 . S
C68 O66 1.273 . S
O69 Mg56 2.010 . S
O69 C61 1.249 . S
Mg70 O71 2.028 . S
Mg70 O77 1.986 . S
Mg70 O79 2.114 . S
Mg70 O80 2.251 . S
Mg70 O83 2.010 . S
O71 Mg70 2.028 . S
O71 C74 1.250 1_556 S
O72 Mg73 2.028 . S
O72 C74 1.248 1_556 S
Mg73 O72 2.028 . S
Mg73 O78 2.032 . S
Mg73 O80 2.079 . S
C74 O71 1.250 1_554 S
C74 O72 1.248 1_554 S
C75 O76 1.264 . S
C75 O83 1.249 . S
O76 C75 1.264 . S
O77 Mg70 1.986 . S
O77 C81 1.246 . S
O78 Mg73 2.032 . S
O78 C81 1.259 . S
O79 Mg70 2.114 . S
O79 C82 1.252 . S
O80 Mg70 2.251 . S
O80 Mg73 2.079 . S
O80 C82 1.273 . S
C81 O77 1.246 . S
C81 O78 1.259 . S
C82 O79 1.252 . S
C82 O80 1.273 . S
O83 Mg70 2.010 . S
O83 C75 1.249 . S
Mg84 O85 2.028 . S
Mg84 O91 1.986 . S
Mg84 O93 2.114 . S
Mg84 O94 2.251 . S
Mg84 O97 2.010 . S
O85 Mg84 2.028 . S
O85 C88 1.250 . S
O86 Mg87 2.028 . S
O86 C88 1.248 . S
Mg87 O86 2.028 . S
Mg87 O92 2.032 . S
Mg87 O94 2.079 . S
C88 O85 1.250 . S
C88 O86 1.248 . S
C89 O90 1.264 . S
C89 O97 1.249 . S
O90 C89 1.264 . S
O91 Mg84 1.986 . S
O91 C95 1.246 . S
O92 Mg87 2.032 . S
O92 C95 1.259 . S
O93 Mg84 2.114 . S
O93 C96 1.252 . S
O94 Mg84 2.251 . S
O94 Mg87 2.079 . S
O94 C96 1.273 . S
C95 O91 1.246 . S
C95 O92 1.259 . S
C96 O93 1.252 . S
C96 O94 1.273 . S
O97 Mg84 2.010 . S
O97 C89 1.249 . S
Mg98 O99 2.028 . S
Mg98 O105 1.986 . S
Mg98 O107 2.114 . S
Mg98 O108 2.251 . S
Mg98 O111 2.010 . S
O99 Mg98 2.028 . S
O99 C102 1.250 . S
O100 Mg101 2.028 . S
O100 C102 1.248 . S
Mg101 O100 2.028 . S
Mg101 O106 2.032 . S
Mg101 O108 2.079 . S
C102 O99 1.250 . S
C102 O100 1.248 . S
C103 O104 1.264 . S
C103 O111 1.249 . S
O104 C103 1.264 . S
O105 Mg98 1.986 . S
O105 C109 1.246 . S
O106 Mg101 2.032 . S
O106 C109 1.259 . S
O107 Mg98 2.114 . S
O107 C110 1.252 . S
O108 Mg98 2.251 . S
O108 Mg101 2.079 . S
O108 C110 1.273 . S
C109 O105 1.246 . S
C109 O106 1.259 . S
C110 O107 1.252 . S
C110 O108 1.273 . S
O111 Mg98 2.010 . S
O111 C103 1.249 . S
Mg112 O113 2.028 . S
Mg112 O119 1.986 . S
Mg112 O121 2.114 . S
Mg112 O122 2.251 . S
Mg112 O125 2.010 . S
O113 Mg112 2.028 . S
O113 C116 1.250 . S
O114 Mg115 2.028 . S
O114 C116 1.248 . S
Mg115 O114 2.028 . S
Mg115 O120 2.032 . S
Mg115 O122 2.079 . S
C116 O113 1.250 . S
C116 O114 1.248 . S
C117 O118 1.264 . S
C117 O125 1.249 . S
O118 C117 1.264 . S
O119 Mg112 1.986 . S
O119 C123 1.246 . S
O120 Mg115 2.032 . S
O120 C123 1.259 . S
O121 Mg112 2.114 . S
O121 C124 1.252 . S
O122 Mg112 2.251 . S
O122 Mg115 2.079 . S
O122 C124 1.273 . S
C123 O119 1.246 . S
C123 O120 1.259 . S
C124 O121 1.252 . S
C124 O122 1.273 . S
O125 Mg112 2.010 . S
O125 C117 1.249 . S
Mg126 O127 2.028 . S
Mg126 O133 1.986 . S
Mg126 O135 2.114 . S
Mg126 O136 2.251 . S
Mg126 O139 2.010 . S
O127 Mg126 2.028 . S
O127 C130 1.250 . S
O128 Mg129 2.028 . S
O128 C130 1.248 . S
Mg129 O128 2.028 . S
Mg129 O134 2.032 . S
Mg129 O136 2.079 . S
C130 O127 1.250 . S
C130 O128 1.248 . S
C131 O132 1.264 . S
C131 O139 1.249 . S
O132 C131 1.264 . S
O133 Mg126 1.986 . S
O133 C137 1.246 . S
O134 Mg129 2.032 . S
O134 C137 1.259 . S
O135 Mg126 2.114 . S
O135 C138 1.252 . S
O136 Mg126 2.251 . S
O136 Mg129 2.079 . S
O136 C138 1.273 . S
C137 O133 1.246 . S
C137 O134 1.259 . S
C138 O135 1.252 . S
C138 O136 1.273 . S
O139 Mg126 2.010 . S
O139 C131 1.249 . S
Mg140 O141 2.028 . S
Mg140 O147 1.986 . S
Mg140 O149 2.114 . S
Mg140 O150 2.251 . S
Mg140 O153 2.010 . S
O141 Mg140 2.028 . S
O141 C144 1.250 . S
O142 Mg143 2.028 . S
O142 C144 1.248 . S
Mg143 O142 2.028 . S
Mg143 O148 2.032 . S
Mg143 O150 2.079 . S
C144 O141 1.250 . S
C144 O142 1.248 . S
C145 O146 1.264 . S
C145 O153 1.249 . S
O146 C145 1.264 . S
O147 Mg140 1.986 . S
O147 C151 1.246 . S
O148 Mg143 2.032 . S
O148 C151 1.259 . S
O149 Mg140 2.114 . S
O149 C152 1.252 . S
O150 Mg140 2.251 . S
O150 Mg143 2.079 . S
O150 C152 1.273 . S
C151 O147 1.246 . S
C151 O148 1.259 . S
C152 O149 1.252 . S
C152 O150 1.273 . S
O153 Mg140 2.010 . S
O153 C145 1.249 . S
Mg154 O155 2.028 . S
Mg154 O161 1.986 . S
Mg154 O163 2.114 . S
Mg154 O164 2.251 . S
Mg154 O167 2.010 . S
O155 Mg154 2.028 . S
O155 C158 1.250 . S
O156 Mg157 2.028 . S
O156 C158 1.248 . S
Mg157 O156 2.028 . S
Mg157 O162 2.032 . S
Mg157 O164 2.079 . S
C158 O155 1.250 . S
C158 O156 1.248 . S
C159 O160 1.264 . S
C159 O167 1.249 . S
O160 C159 1.264 . S
O161 Mg154 1.986 . S
O161 C165 1.246 . S
O162 Mg157 2.032 . S
O162 C165 1.259 . S
O163 Mg154 2.114 . S
O163 C166 1.252 . S
O164 Mg154 2.251 . S
O164 Mg157 2.079 . S
O164 C166 1.273 . S
C165 O161 1.246 . S
C165 O162 1.259 . S
C166 O163 1.252 . S
C166 O164 1.273 . S
O167 Mg154 2.010 . S
O167 C159 1.249 . S
Mg168 O169 2.028 . S
Mg168 O175 1.986 . S
Mg168 O177 2.114 . S
Mg168 O178 2.251 . S
Mg168 O181 2.010 . S
O169 Mg168 2.028 . S
O169 C172 1.250 . S
O170 Mg171 2.028 . S
O170 C172 1.248 . S
Mg171 O170 2.028 . S
Mg171 O176 2.032 . S
Mg171 O178 2.079 . S
C172 O169 1.250 . S
C172 O170 1.248 . S
C173 O174 1.264 . S
C173 O181 1.249 . S
O174 C173 1.264 . S
O175 Mg168 1.986 . S
O175 C179 1.246 . S
O176 Mg171 2.032 . S
O176 C179 1.259 . S
O177 Mg168 2.114 . S
O177 C180 1.252 . S
O178 Mg168 2.251 . S
O178 Mg171 2.079 . S
O178 C180 1.273 . S
C179 O175 1.246 . S
C179 O176 1.259 . S
C180 O177 1.252 . S
C180 O178 1.273 . S
O181 Mg168 2.010 . S
O181 C173 1.249 . S
Mg182 O183 2.028 . S
Mg182 O189 1.986 . S
Mg182 O191 2.114 . S
Mg182 O192 2.251 . S
Mg182 O195 2.010 . S
O183 Mg182 2.028 . S
O183 C186 1.250 . S
O184 Mg185 2.028 . S
O184 C186 1.248 . S
Mg185 O184 2.028 . S
Mg185 O190 2.032 . S
Mg185 O192 2.079 . S
C186 O183 1.250 . S
C186 O184 1.248 . S
C187 O188 1.264 . S
C187 O195 1.249 . S
O188 C187 1.264 . S
O189 Mg182 1.986 . S
O189 C193 1.246 . S
O190 Mg185 2.032 . S
O190 C193 1.259 . S
O191 Mg182 2.114 . S
O191 C194 1.252 . S
O192 Mg182 2.251 . S
O192 Mg185 2.079 . S
O192 C194 1.273 . S
C193 O189 1.246 . S
C193 O190 1.259 . S
C194 O191 1.252 . S
C194 O192 1.273 . S
O195 Mg182 2.010 . S
O195 C187 1.249 . S
Mg196 O197 2.028 . S
Mg196 O203 1.986 . S
Mg196 O205 2.114 . S
Mg196 O206 2.251 . S
Mg196 O209 2.010 . S
O197 Mg196 2.028 . S
O197 C200 1.250 . S
O198 Mg199 2.028 . S
O198 C200 1.248 . S
Mg199 O198 2.028 . S
Mg199 O204 2.032 . S
Mg199 O206 2.079 . S
C200 O197 1.250 . S
C200 O198 1.248 . S
C201 O202 1.264 . S
C201 O209 1.249 . S
O202 C201 1.264 . S
O203 Mg196 1.986 . S
O203 C207 1.246 . S
O204 Mg199 2.032 . S
O204 C207 1.259 . S
O205 Mg196 2.114 . S
O205 C208 1.252 . S
O206 Mg196 2.251 . S
O206 Mg199 2.079 . S
O206 C208 1.273 . S
C207 O203 1.246 . S
C207 O204 1.259 . S
C208 O205 1.252 . S
C208 O206 1.273 . S
O209 Mg196 2.010 . S
O209 C201 1.249 . S
Mg210 O211 2.028 . S
Mg210 O217 1.986 . S
Mg210 O219 2.114 . S
Mg210 O220 2.251 . S
Mg210 O223 2.010 . S
O211 Mg210 2.028 . S
O211 C214 1.250 . S
O212 Mg213 2.028 . S
O212 C214 1.248 . S
Mg213 O212 2.028 . S
Mg213 O218 2.032 . S
Mg213 O220 2.079 . S
C214 O211 1.250 . S
C214 O212 1.248 . S
C215 O216 1.264 . S
C215 O223 1.249 . S
O216 C215 1.264 . S
O217 Mg210 1.986 . S
O217 C221 1.246 . S
O218 Mg213 2.032 . S
O218 C221 1.259 . S
O219 Mg210 2.114 . S
O219 C222 1.252 . S
O220 Mg210 2.251 . S
O220 Mg213 2.079 . S
O220 C222 1.273 . S
C221 O217 1.246 . S
C221 O218 1.259 . S
C222 O219 1.252 . S
C222 O220 1.273 . S
O223 Mg210 2.010 . S
O223 C215 1.249 . S
Mg224 O225 2.028 . S
Mg224 O231 1.986 . S
Mg224 O233 2.114 . S
Mg224 O234 2.251 . S
Mg224 O237 2.010 . S
O225 Mg224 2.028 . S
O225 C228 1.250 . S
O226 Mg227 2.028 . S
O226 C228 1.248 . S
Mg227 O226 2.028 . S
Mg227 O232 2.032 . S
Mg227 O234 2.079 . S
C228 O225 1.250 . S
C228 O226 1.248 . S
C229 O230 1.264 . S
C229 O237 1.249 . S
O230 C229 1.264 . S
O231 Mg224 1.986 . S
O231 C235 1.246 . S
O232 Mg227 2.032 . S
O232 C235 1.259 . S
O233 Mg224 2.114 . S
O233 C236 1.252 . S
O234 Mg224 2.251 . S
O234 Mg227 2.079 . S
O234 C236 1.273 . S
C235 O231 1.246 . S
C235 O232 1.259 . S
C236 O233 1.252 . S
C236 O234 1.273 . S
O237 Mg224 2.010 . S
O237 C229 1.249 . S
Mg238 O239 2.028 . S
Mg238 O245 1.986 . S
Mg238 O247 2.114 . S
Mg238 O248 2.251 . S
Mg238 O251 2.010 . S
O239 Mg238 2.028 . S
O239 C242 1.250 . S
O240 Mg241 2.028 . S
O240 C242 1.248 . S
Mg241 O240 2.028 . S
Mg241 O246 2.032 . S
Mg241 O248 2.079 . S
C242 O239 1.250 . S
C242 O240 1.248 . S
C243 O244 1.264 . S
C243 O251 1.249 . S
O244 C243 1.264 . S
O245 Mg238 1.986 . S
O245 C249 1.246 . S
O246 Mg241 2.032 . S
O246 C249 1.259 . S
O247 Mg238 2.114 . S
O247 C250 1.252 . S
O248 Mg238 2.251 . S
O248 Mg241 2.079 . S
O248 C250 1.273 . S
C249 O245 1.246 . S
C249 O246 1.259 . S
C250 O247 1.252 . S
C250 O248 1.273 . S
O251 Mg238 2.010 . S
O251 C243 1.249 . S
H252 C260 0.950 . S
H253 C265 0.950 . S
H254 C262 0.950 . S
H255 C264 0.950 . S
H256 C266 0.950 . S
H257 C268 0.950 . S
H258 C270 0.950 . S
H259 C271 0.950 . S
C260 H252 0.950 . S
C260 C261 1.386 . S
C260 C262 1.391 . S
C261 C260 1.386 . S
C261 C265 1.393 . S
C262 H254 0.950 . S
C262 C260 1.391 . S
C262 C263 1.400 . S
C263 C262 1.400 . S
C263 C264 1.398 . S
C263 C269 1.491 . S
C264 H255 0.950 . S
C264 C263 1.398 . S
C264 C265 1.391 . S
C265 H253 0.950 . S
C265 C261 1.393 . S
C265 C264 1.391 . S
C266 H256 0.950 . S
C266 C267 1.386 . S
C266 C268 1.391 . S
C267 C266 1.386 . S
C267 C271 1.393 . S
C268 H257 0.950 . S
C268 C266 1.391 . S
C268 C269 1.400 . S
C269 C263 1.491 . S
C269 C268 1.400 . S
C269 C270 1.398 . S
C270 H258 0.950 . S
C270 C269 1.398 . S
C270 C271 1.391 . S
C271 H259 0.950 . S
C271 C267 1.393 . S
C271 C270 1.391 . S
H272 C280 0.950 . S
H273 C285 0.950 . S
H274 C282 0.950 . S
H275 C284 0.950 . S
H276 C286 0.950 . S
H277 C288 0.950 . S
H278 C290 0.950 . S
H279 C291 0.950 . S
C280 H272 0.950 . S
C280 C281 1.386 . S
C280 C282 1.391 . S
C281 C280 1.386 . S
C281 C285 1.393 . S
C282 H274 0.950 . S
C282 C280 1.391 . S
C282 C283 1.400 . S
C283 C282 1.400 . S
C283 C284 1.398 . S
C283 C289 1.491 . S
C284 H275 0.950 . S
C284 C283 1.398 . S
C284 C285 1.391 . S
C285 H273 0.950 . S
C285 C281 1.393 . S
C285 C284 1.391 . S
C286 H276 0.950 . S
C286 C287 1.386 . S
C286 C288 1.391 . S
C287 C286 1.386 . S
C287 C291 1.393 . S
C288 H277 0.950 . S
C288 C286 1.391 . S
C288 C289 1.400 . S
C289 C283 1.491 . S
C289 C288 1.400 . S
C289 C290 1.398 . S
C290 H278 0.950 . S
C290 C289 1.398 . S
C290 C291 1.391 . S
C291 H279 0.950 . S
C291 C287 1.393 . S
C291 C290 1.391 . S
H292 C300 0.950 . S
H293 C305 0.950 . S
H294 C302 0.950 . S
H295 C304 0.950 . S
H296 C306 0.950 . S
H297 C308 0.950 . S
H298 C310 0.950 . S
H299 C311 0.950 . S
C300 H292 0.950 . S
C300 C301 1.386 . S
C300 C302 1.391 . S
C301 C300 1.386 . S
C301 C305 1.393 . S
C302 H294 0.950 . S
C302 C300 1.391 . S
C302 C303 1.400 . S
C303 C302 1.400 . S
C303 C304 1.398 . S
C303 C309 1.491 . S
C304 H295 0.950 . S
C304 C303 1.398 . S
C304 C305 1.391 . S
C305 H293 0.950 . S
C305 C301 1.393 . S
C305 C304 1.391 . S
C306 H296 0.950 . S
C306 C307 1.386 . S
C306 C308 1.391 . S
C307 C306 1.386 . S
C307 C311 1.393 . S
C308 H297 0.950 . S
C308 C306 1.391 . S
C308 C309 1.400 . S
C309 C303 1.491 . S
C309 C308 1.400 . S
C309 C310 1.398 . S
C310 H298 0.950 . S
C310 C309 1.398 . S
C310 C311 1.391 . S
C311 H299 0.950 . S
C311 C307 1.393 . S
C311 C310 1.391 . S
H312 C320 0.950 . S
H313 C325 0.950 . S
H314 C322 0.950 . S
H315 C324 0.950 . S
H316 C326 0.950 . S
H317 C328 0.950 . S
H318 C330 0.950 . S
H319 C331 0.950 . S
C320 H312 0.950 . S
C320 C321 1.386 . S
C320 C322 1.391 . S
C321 C320 1.386 . S
C321 C325 1.393 . S
C322 H314 0.950 . S
C322 C320 1.391 . S
C322 C323 1.400 . S
C323 C322 1.400 . S
C323 C324 1.398 . S
C323 C329 1.491 . S
C324 H315 0.950 . S
C324 C323 1.398 . S
C324 C325 1.391 . S
C325 H313 0.950 . S
C325 C321 1.393 . S
C325 C324 1.391 . S
C326 H316 0.950 . S
C326 C327 1.386 . S
C326 C328 1.391 . S
C327 C326 1.386 . S
C327 C331 1.393 . S
C328 H317 0.950 . S
C328 C326 1.391 . S
C328 C329 1.400 . S
C329 C323 1.491 . S
C329 C328 1.400 . S
C329 C330 1.398 . S
C330 H318 0.950 . S
C330 C329 1.398 . S
C330 C331 1.391 . S
C331 H319 0.950 . S
C331 C327 1.393 . S
C331 C330 1.391 . S
H332 C340 0.950 . S
H333 C345 0.950 . S
H334 C342 0.950 . S
H335 C344 0.950 . S
H336 C346 0.950 . S
H337 C348 0.950 . S
H338 C350 0.950 . S
H339 C351 0.950 . S
C340 H332 0.950 . S
C340 C341 1.386 . S
C340 C342 1.391 . S
C341 C340 1.386 . S
C341 C345 1.393 . S
C342 H334 0.950 . S
C342 C340 1.391 . S
C342 C343 1.400 . S
C343 C342 1.400 . S
C343 C344 1.398 . S
C343 C349 1.491 . S
C344 H335 0.950 . S
C344 C343 1.398 . S
C344 C345 1.391 . S
C345 H333 0.950 . S
C345 C341 1.393 . S
C345 C344 1.391 . S
C346 H336 0.950 . S
C346 C347 1.386 . S
C346 C348 1.391 . S
C347 C346 1.386 . S
C347 C351 1.393 . S
C348 H337 0.950 . S
C348 C346 1.391 . S
C348 C349 1.400 . S
C349 C343 1.491 . S
C349 C348 1.400 . S
C349 C350 1.398 . S
C350 H338 0.950 . S
C350 C349 1.398 . S
C350 C351 1.391 . S
C351 H339 0.950 . S
C351 C347 1.393 . S
C351 C350 1.391 . S
H352 C360 0.950 . S
H353 C365 0.950 . S
H354 C362 0.950 . S
H355 C364 0.950 . S
H356 C366 0.950 . S
H357 C368 0.950 . S
H358 C370 0.950 . S
H359 C371 0.950 . S
C360 H352 0.950 . S
C360 C361 1.386 . S
C360 C362 1.391 . S
C361 C360 1.386 . S
C361 C365 1.393 . S
C362 H354 0.950 . S
C362 C360 1.391 . S
C362 C363 1.400 . S
C363 C362 1.400 . S
C363 C364 1.398 . S
C363 C369 1.491 . S
C364 H355 0.950 . S
C364 C363 1.398 . S
C364 C365 1.391 . S
C365 H353 0.950 . S
C365 C361 1.393 . S
C365 C364 1.391 . S
C366 H356 0.950 . S
C366 C367 1.386 . S
C366 C368 1.391 . S
C367 C366 1.386 . S
C367 C371 1.393 . S
C368 H357 0.950 . S
C368 C366 1.391 . S
C368 C369 1.400 . S
C369 C363 1.491 . S
C369 C368 1.400 . S
C369 C370 1.398 . S
C370 H358 0.950 . S
C370 C369 1.398 . S
C370 C371 1.391 . S
C371 H359 0.950 . S
C371 C367 1.393 . S
C371 C370 1.391 . S
H372 C380 0.950 . S
H373 C385 0.950 . S
H374 C382 0.950 . S
H375 C384 0.950 . S
H376 C386 0.950 . S
H377 C388 0.950 . S
H378 C390 0.950 . S
H379 C391 0.950 . S
C380 H372 0.950 . S
C380 C381 1.386 . S
C380 C382 1.391 . S
C381 C380 1.386 . S
C381 C385 1.393 . S
C382 H374 0.950 . S
C382 C380 1.391 . S
C382 C383 1.400 . S
C383 C382 1.400 . S
C383 C384 1.398 . S
C383 C389 1.491 1_654 S
C384 H375 0.950 . S
C384 C383 1.398 . S
C384 C385 1.391 . S
C385 H373 0.950 . S
C385 C381 1.393 . S
C385 C384 1.391 . S
C386 H376 0.950 . S
C386 C387 1.386 . S
C386 C388 1.391 . S
C387 C386 1.386 . S
C387 C391 1.393 . S
C388 H377 0.950 . S
C388 C386 1.391 . S
C388 C389 1.400 . S
C389 C383 1.491 1_456 S
C389 C388 1.400 . S
C389 C390 1.398 . S
C390 H378 0.950 . S
C390 C389 1.398 . S
C390 C391 1.391 . S
C391 H379 0.950 . S
C391 C387 1.393 . S
C391 C390 1.391 . S
H392 C400 0.950 . S
H393 C405 0.950 . S
H394 C402 0.950 . S
H395 C404 0.950 . S
H396 C406 0.950 . S
H397 C408 0.950 . S
H398 C410 0.950 . S
H399 C411 0.950 . S
C400 H392 0.950 . S
C400 C401 1.386 . S
C400 C402 1.391 . S
C401 C400 1.386 . S
C401 C405 1.393 . S
C402 H394 0.950 . S
C402 C400 1.391 . S
C402 C403 1.400 . S
C403 C402 1.400 . S
C403 C404 1.398 . S
C403 C409 1.491 1_554 S
C404 H395 0.950 . S
C404 C403 1.398 . S
C404 C405 1.391 . S
C405 H393 0.950 . S
C405 C401 1.393 . S
C405 C404 1.391 . S
C406 H396 0.950 . S
C406 C407 1.386 . S
C406 C408 1.391 . S
C407 C406 1.386 . S
C407 C411 1.393 . S
C408 H397 0.950 . S
C408 C406 1.391 . S
C408 C409 1.400 . S
C409 C403 1.491 1_556 S
C409 C408 1.400 . S
C409 C410 1.398 . S
C410 H398 0.950 . S
C410 C409 1.398 . S
C410 C411 1.391 . S
C411 H399 0.950 . S
C411 C407 1.393 . S
C411 C410 1.391 . S
H412 C420 0.950 . S
H413 C425 0.950 . S
H414 C422 0.950 . S
H415 C424 0.950 . S
H416 C426 0.950 . S
H417 C428 0.950 . S
H418 C430 0.950 . S
H419 C431 0.950 . S
C420 H412 0.950 . S
C420 C421 1.386 . S
C420 C422 1.391 . S
C421 C420 1.386 . S
C421 C425 1.393 . S
C422 H414 0.950 . S
C422 C420 1.391 . S
C422 C423 1.400 . S
C423 C422 1.400 . S
C423 C424 1.398 . S
C423 C429 1.491 1_544 S
C424 H415 0.950 . S
C424 C423 1.398 . S
C424 C425 1.391 . S
C425 H413 0.950 . S
C425 C421 1.393 . S
C425 C424 1.391 . S
C426 H416 0.950 . S
C426 C427 1.386 . S
C426 C428 1.391 . S
C427 C426 1.386 . S
C427 C431 1.393 . S
C428 H417 0.950 . S
C428 C426 1.391 . S
C428 C429 1.400 . S
C429 C423 1.491 1_566 S
C429 C428 1.400 . S
C429 C430 1.398 . S
C430 H418 0.950 . S
C430 C429 1.398 . S
C430 C431 1.391 . S
C431 H419 0.950 . S
C431 C427 1.393 . S
C431 C430 1.391 . S
H432 C440 0.950 . S
H433 C445 0.950 . S
H434 C442 0.950 . S
H435 C444 0.950 . S
H436 C446 0.950 . S
H437 C448 0.950 . S
H438 C450 0.950 . S
H439 C451 0.950 . S
C440 H432 0.950 . S
C440 C441 1.386 . S
C440 C442 1.391 . S
C441 C440 1.386 . S
C441 C445 1.393 . S
C442 H434 0.950 . S
C442 C440 1.391 . S
C442 C443 1.400 . S
C443 C442 1.400 . S
C443 C444 1.398 . S
C443 C449 1.491 . S
C444 H435 0.950 . S
C444 C443 1.398 . S
C444 C445 1.391 . S
C445 H433 0.950 . S
C445 C441 1.393 . S
C445 C444 1.391 . S
C446 H436 0.950 . S
C446 C447 1.386 . S
C446 C448 1.391 . S
C447 C446 1.386 . S
C447 C451 1.393 . S
C448 H437 0.950 . S
C448 C446 1.391 . S
C448 C449 1.400 . S
C449 C443 1.491 . S
C449 C448 1.400 . S
C449 C450 1.398 . S
C450 H438 0.950 . S
C450 C449 1.398 . S
C450 C451 1.391 . S
C451 H439 0.950 . S
C451 C447 1.393 . S
C451 C450 1.391 . S
H452 C460 0.950 . S
H453 C465 0.950 . S
H454 C462 0.950 . S
H455 C464 0.950 . S
H456 C466 0.950 . S
H457 C468 0.950 . S
H458 C470 0.950 . S
H459 C471 0.950 . S
C460 H452 0.950 . S
C460 C461 1.386 . S
C460 C462 1.391 . S
C461 C460 1.386 . S
C461 C465 1.393 . S
C462 H454 0.950 . S
C462 C460 1.391 . S
C462 C463 1.400 . S
C463 C462 1.400 . S
C463 C464 1.398 . S
C463 C469 1.491 . S
C464 H455 0.950 . S
C464 C463 1.398 . S
C464 C465 1.391 . S
C465 H453 0.950 . S
C465 C461 1.393 . S
C465 C464 1.391 . S
C466 H456 0.950 . S
C466 C467 1.386 . S
C466 C468 1.391 . S
C467 C466 1.386 . S
C467 C471 1.393 . S
C468 H457 0.950 . S
C468 C466 1.391 . S
C468 C469 1.400 . S
C469 C463 1.491 . S
C469 C468 1.400 . S
C469 C470 1.398 . S
C470 H458 0.950 . S
C470 C469 1.398 . S
C470 C471 1.391 . S
C471 H459 0.950 . S
C471 C467 1.393 . S
C471 C470 1.391 . S
H472 C480 0.950 . S
H473 C485 0.950 . S
H474 C482 0.950 . S
H475 C484 0.950 . S
H476 C486 0.950 . S
H477 C488 0.950 . S
H478 C490 0.950 . S
H479 C491 0.950 . S
C480 H472 0.950 . S
C480 C481 1.386 . S
C480 C482 1.391 . S
C481 C480 1.386 . S
C481 C485 1.393 . S
C482 H474 0.950 . S
C482 C480 1.391 . S
C482 C483 1.400 . S
C483 C482 1.400 . S
C483 C484 1.398 . S
C483 C489 1.491 . S
C484 H475 0.950 . S
C484 C483 1.398 . S
C484 C485 1.391 . S
C485 H473 0.950 . S
C485 C481 1.393 . S
C485 C484 1.391 . S
C486 H476 0.950 . S
C486 C487 1.386 . S
C486 C488 1.391 . S
C487 C486 1.386 . S
C487 C491 1.393 . S
C488 H477 0.950 . S
C488 C486 1.391 . S
C488 C489 1.400 . S
C489 C483 1.491 . S
C489 C488 1.400 . S
C489 C490 1.398 . S
C490 H478 0.950 . S
C490 C489 1.398 . S
C490 C491 1.391 . S
C491 H479 0.950 . S
C491 C487 1.393 . S
C491 C490 1.391 . S
H492 C500 0.950 . S
H493 C505 0.950 . S
H494 C502 0.950 . S
H495 C504 0.950 . S
H496 C506 0.950 . S
H497 C508 0.950 . S
H498 C510 0.950 . S
H499 C511 0.950 . S
C500 H492 0.950 . S
C500 C501 1.386 . S
C500 C502 1.391 . S
C501 C500 1.386 . S
C501 C505 1.393 . S
C502 H494 0.950 . S
C502 C500 1.391 . S
C502 C503 1.400 . S
C503 C502 1.400 . S
C503 C504 1.398 . S
C503 C509 1.491 . S
C504 H495 0.950 . S
C504 C503 1.398 . S
C504 C505 1.391 . S
C505 H493 0.950 . S
C505 C501 1.393 . S
C505 C504 1.391 . S
C506 H496 0.950 . S
C506 C507 1.386 . S
C506 C508 1.391 . S
C507 C506 1.386 . S
C507 C511 1.393 . S
C508 H497 0.950 . S
C508 C506 1.391 . S
C508 C509 1.400 . S
C509 C503 1.491 . S
C509 C508 1.400 . S
C509 C510 1.398 . S
C510 H498 0.950 . S
C510 C509 1.398 . S
C510 C511 1.391 . S
C511 H499 0.950 . S
C511 C507 1.393 . S
C511 C510 1.391 . S
H512 C520 0.950 . S
H513 C525 0.950 . S
H514 C522 0.950 . S
H515 C524 0.950 . S
H516 C526 0.950 . S
H517 C528 0.950 . S
H518 C530 0.950 . S
H519 C531 0.950 . S
C520 H512 0.950 . S
C520 C521 1.386 . S
C520 C522 1.391 . S
C521 C520 1.386 . S
C521 C525 1.393 . S
C522 H514 0.950 . S
C522 C520 1.391 . S
C522 C523 1.400 . S
C523 C522 1.400 . S
C523 C524 1.398 . S
C523 C529 1.491 . S
C524 H515 0.950 . S
C524 C523 1.398 . S
C524 C525 1.391 . S
C525 H513 0.950 . S
C525 C521 1.393 . S
C525 C524 1.391 . S
C526 H516 0.950 . S
C526 C527 1.386 . S
C526 C528 1.391 . S
C527 C526 1.386 . S
C527 C531 1.393 . S
C528 H517 0.950 . S
C528 C526 1.391 . S
C528 C529 1.400 . S
C529 C523 1.491 . S
C529 C528 1.400 . S
C529 C530 1.398 . S
C530 H518 0.950 . S
C530 C529 1.398 . S
C530 C531 1.391 . S
C531 H519 0.950 . S
C531 C527 1.393 . S
C531 C530 1.391 . S
H532 C540 0.950 . S
H533 C545 0.950 . S
H534 C542 0.950 . S
H535 C544 0.950 . S
H536 C546 0.950 . S
H537 C548 0.950 . S
H538 C550 0.950 . S
H539 C551 0.950 . S
C540 H532 0.950 . S
C540 C541 1.386 . S
C540 C542 1.391 . S
C541 C540 1.386 . S
C541 C545 1.393 . S
C542 H534 0.950 . S
C542 C540 1.391 . S
C542 C543 1.400 . S
C543 C542 1.400 . S
C543 C544 1.398 . S
C543 C549 1.491 . S
C544 H535 0.950 . S
C544 C543 1.398 . S
C544 C545 1.391 . S
C545 H533 0.950 . S
C545 C541 1.393 . S
C545 C544 1.391 . S
C546 H536 0.950 . S
C546 C547 1.386 . S
C546 C548 1.391 . S
C547 C546 1.386 . S
C547 C551 1.393 . S
C548 H537 0.950 . S
C548 C546 1.391 . S
C548 C549 1.400 . S
C549 C543 1.491 . S
C549 C548 1.400 . S
C549 C550 1.398 . S
C550 H538 0.950 . S
C550 C549 1.398 . S
C550 C551 1.391 . S
C551 H539 0.950 . S
C551 C547 1.393 . S
C551 C550 1.391 . S
H552 C560 0.950 . S
H553 C565 0.950 . S
H554 C562 0.950 . S
H555 C564 0.950 . S
H556 C566 0.950 . S
H557 C568 0.950 . S
H558 C570 0.950 . S
H559 C571 0.950 . S
C560 H552 0.950 . S
C560 C561 1.386 . S
C560 C562 1.391 . S
C561 C560 1.386 . S
C561 C565 1.393 . S
C562 H554 0.950 . S
C562 C560 1.391 . S
C562 C563 1.400 . S
C563 C562 1.400 . S
C563 C564 1.398 . S
C563 C569 1.491 1_655 S
C564 H555 0.950 . S
C564 C563 1.398 . S
C564 C565 1.391 . S
C565 H553 0.950 . S
C565 C561 1.393 . S
C565 C564 1.391 . S
C566 H556 0.950 . S
C566 C567 1.386 . S
C566 C568 1.391 . S
C567 C566 1.386 . S
C567 C571 1.393 . S
C568 H557 0.950 . S
C568 C566 1.391 . S
C568 C569 1.400 . S
C569 C563 1.491 1_455 S
C569 C568 1.400 . S
C569 C570 1.398 . S
C570 H558 0.950 . S
C570 C569 1.398 . S
C570 C571 1.391 . S
C571 H559 0.950 . S
C571 C567 1.393 . S
C571 C570 1.391 . S
H572 C580 0.950 . S
H573 C585 0.950 . S
H574 C582 0.950 . S
H575 C584 0.950 . S
H576 C586 0.950 . S
H577 C588 0.950 . S
H578 C590 0.950 . S
H579 C591 0.950 . S
C580 H572 0.950 . S
C580 C581 1.386 . S
C580 C582 1.391 . S
C581 C580 1.386 . S
C581 C585 1.393 . S
C582 H574 0.950 . S
C582 C580 1.391 . S
C582 C583 1.400 . S
C583 C582 1.400 . S
C583 C584 1.398 . S
C583 C589 1.491 . S
C584 H575 0.950 . S
C584 C583 1.398 . S
C584 C585 1.391 . S
C585 H573 0.950 . S
C585 C581 1.393 . S
C585 C584 1.391 . S
C586 H576 0.950 . S
C586 C587 1.386 . S
C586 C588 1.391 . S
C587 C586 1.386 . S
C587 C591 1.393 . S
C588 H577 0.950 . S
C588 C586 1.391 . S
C588 C589 1.400 . S
C589 C583 1.491 . S
C589 C588 1.400 . S
C589 C590 1.398 . S
C590 H578 0.950 . S
C590 C589 1.398 . S
C590 C591 1.391 . S
C591 H579 0.950 . S
C591 C587 1.393 . S
C591 C590 1.391 . S
H592 C600 0.950 . S
H593 C605 0.950 . S
H594 C602 0.950 . S
H595 C604 0.950 1_545 S
H596 C606 0.950 . S
H597 C608 0.950 . S
H598 C610 0.950 1_565 S
H599 C611 0.950 . S
C600 H592 0.950 . S
C600 C601 1.386 . S
C600 C602 1.391 . S
C601 C600 1.386 . S
C601 C605 1.393 . S
C602 H594 0.950 . S
C602 C600 1.391 . S
C602 C603 1.400 . S
C603 C602 1.400 . S
C603 C604 1.398 . S
C603 C609 1.491 1_565 S
C604 H595 0.950 1_565 S
C604 C603 1.398 . S
C604 C605 1.391 . S
C605 H593 0.950 . S
C605 C601 1.393 . S
C605 C604 1.391 . S
C606 H596 0.950 . S
C606 C607 1.386 . S
C606 C608 1.391 . S
C607 C606 1.386 . S
C607 C611 1.393 . S
C608 H597 0.950 . S
C608 C606 1.391 . S
C608 C609 1.400 . S
C609 C603 1.491 1_545 S
C609 C608 1.400 . S
C609 C610 1.398 . S
C610 H598 0.950 1_545 S
C610 C609 1.398 . S
C610 C611 1.391 . S
C611 H599 0.950 . S
C611 C607 1.393 . S
C611 C610 1.391 . S
H612 C620 0.950 . S
H613 C625 0.950 . S
H614 C622 0.950 . S
H615 C624 0.950 . S
H616 C626 0.950 . S
H617 C628 0.950 . S
H618 C630 0.950 . S
H619 C631 0.950 . S
C620 H612 0.950 . S
C620 C621 1.386 . S
C620 C622 1.391 . S
C621 C620 1.386 . S
C621 C625 1.393 1_554 S
C622 H614 0.950 . S
C622 C620 1.391 . S
C622 C623 1.400 . S
C623 C622 1.400 . S
C623 C624 1.398 1_554 S
C623 C629 1.491 1_554 S
C624 H615 0.950 . S
C624 C623 1.398 1_556 S
C624 C625 1.391 . S
C625 H613 0.950 . S
C625 C621 1.393 1_556 S
C625 C624 1.391 . S
C626 H616 0.950 . S
C626 C627 1.386 . S
C626 C628 1.391 . S
C627 C626 1.386 . S
C627 C631 1.393 1_556 S
C628 H617 0.950 . S
C628 C626 1.391 . S
C628 C629 1.400 . S
C629 C623 1.491 1_556 S
C629 C628 1.400 . S
C629 C630 1.398 1_556 S
C630 H618 0.950 . S
C630 C629 1.398 1_554 S
C630 C631 1.391 . S
C631 H619 0.950 . S
C631 C627 1.393 1_554 S
C631 C630 1.391 . S
H632 C640 0.950 . S
H633 C645 0.950 . S
H634 C642 0.950 1_554 S
H635 C644 0.950 . S
H636 C646 0.950 . S
H637 C648 0.950 1_556 S
H638 C650 0.950 . S
H639 C651 0.950 . S
C640 H632 0.950 . S
C640 C641 1.386 . S
C640 C642 1.391 . S
C641 C640 1.386 . S
C641 C645 1.393 . S
C642 H634 0.950 1_556 S
C642 C640 1.391 . S
C642 C643 1.400 . S
C643 C642 1.400 . S
C643 C644 1.398 . S
C643 C649 1.491 1_546 S
C644 H635 0.950 . S
C644 C643 1.398 . S
C644 C645 1.391 . S
C645 H633 0.950 . S
C645 C641 1.393 . S
C645 C644 1.391 . S
C646 H636 0.950 . S
C646 C647 1.386 . S
C646 C648 1.391 . S
C647 C646 1.386 . S
C647 C651 1.393 . S
C648 H637 0.950 1_554 S
C648 C646 1.391 . S
C648 C649 1.400 . S
C649 C643 1.491 1_564 S
C649 C648 1.400 . S
C649 C650 1.398 . S
C650 H638 0.950 . S
C650 C649 1.398 . S
C650 C651 1.391 . S
C651 H639 0.950 . S
C651 C647 1.393 . S
C651 C650 1.391 . S
H652 C660 0.950 1_554 S
H653 C665 0.950 . S
H654 C662 0.950 . S
H655 C664 0.950 . S
H656 C666 0.950 1_556 S
H657 C668 0.950 . S
H658 C670 0.950 . S
H659 C671 0.950 . S
C660 H652 0.950 1_556 S
C660 C661 1.386 . S
C660 C662 1.391 1_556 S
C661 C660 1.386 . S
C661 C665 1.393 . S
C662 H654 0.950 . S
C662 C660 1.391 1_554 S
C662 C663 1.400 1_554 S
C663 C662 1.400 1_556 S
C663 C664 1.398 . S
C663 C669 1.491 1_656 S
C664 H655 0.950 . S
C664 C663 1.398 . S
C664 C665 1.391 . S
C665 H653 0.950 . S
C665 C661 1.393 . S
C665 C664 1.391 . S
C666 H656 0.950 1_554 S
C666 C667 1.386 . S
C666 C668 1.391 1_554 S
C667 C666 1.386 . S
C667 C671 1.393 . S
C668 H657 0.950 . S
C668 C666 1.391 1_556 S
C668 C669 1.400 1_556 S
C669 C663 1.491 1_454 S
C669 C668 1.400 1_554 S
C669 C670 1.398 . S
C670 H658 0.950 . S
C670 C669 1.398 . S
C670 C671 1.391 . S
C671 H659 0.950 . S
C671 C667 1.393 . S
C671 C670 1.391 . S
H672 C680 0.950 . S
H673 C685 0.950 . S
H674 C682 0.950 . S
H675 C684 0.950 1_554 S
H676 C686 0.950 . S
H677 C688 0.950 . S
H678 C690 0.950 1_556 S
H679 C691 0.950 . S
C680 H672 0.950 . S
C680 C681 1.386 . S
C680 C682 1.391 . S
C681 C680 1.386 . S
C681 C685 1.393 . S
C682 H674 0.950 . S
C682 C680 1.391 . S
C682 C683 1.400 . S
C683 C682 1.400 . S
C683 C684 1.398 . S
C683 C689 1.491 1_556 S
C684 H675 0.950 1_556 S
C684 C683 1.398 . S
C684 C685 1.391 . S
C685 H673 0.950 . S
C685 C681 1.393 . S
C685 C684 1.391 . S
C686 H676 0.950 . S
C686 C687 1.386 . S
C686 C688 1.391 . S
C687 C686 1.386 . S
C687 C691 1.393 . S
C688 H677 0.950 . S
C688 C686 1.391 . S
C688 C689 1.400 . S
C689 C683 1.491 1_554 S
C689 C688 1.400 . S
C689 C690 1.398 . S
C690 H678 0.950 1_554 S
C690 C689 1.398 . S
C690 C691 1.391 . S
C691 H679 0.950 . S
C691 C687 1.393 . S
C691 C690 1.391 . S
H692 C700 0.950 . S
H693 C705 0.950 . S
H694 C702 0.950 . S
H695 C704 0.950 . S
H696 C706 0.950 . S
H697 C708 0.950 . S
H698 C710 0.950 . S
H699 C711 0.950 . S
C700 H692 0.950 . S
C700 C701 1.386 1_556 S
C700 C702 1.391 . S
C701 C700 1.386 1_554 S
C701 C705 1.393 . S
C702 H694 0.950 . S
C702 C700 1.391 . S
C702 C703 1.400 1_556 S
C703 C702 1.400 1_554 S
C703 C704 1.398 . S
C703 C709 1.491 1_564 S
C704 H695 0.950 . S
C704 C703 1.398 . S
C704 C705 1.391 . S
C705 H693 0.950 . S
C705 C701 1.393 . S
C705 C704 1.391 . S
C706 H696 0.950 . S
C706 C707 1.386 1_554 S
C706 C708 1.391 . S
C707 C706 1.386 1_556 S
C707 C711 1.393 . S
C708 H697 0.950 . S
C708 C706 1.391 . S
C708 C709 1.400 1_554 S
C709 C703 1.491 1_546 S
C709 C708 1.400 1_556 S
C709 C710 1.398 . S
C710 H698 0.950 . S
C710 C709 1.398 . S
C710 C711 1.391 . S
C711 H699 0.950 . S
C711 C707 1.393 . S
C711 C710 1.391 . S
H712 C720 0.950 . S
H713 C725 0.950 . S
H714 C722 0.950 . S
H715 C724 0.950 . S
H716 C726 0.950 . S
H717 C728 0.950 . S
H718 C730 0.950 . S
H719 C731 0.950 . S
C720 H712 0.950 . S
C720 C721 1.386 . S
C720 C722 1.391 . S
C721 C720 1.386 . S
C721 C725 1.393 1_556 S
C722 H714 0.950 . S
C722 C720 1.391 . S
C722 C723 1.400 . S
C723 C722 1.400 . S
C723 C724 1.398 1_556 S
C723 C729 1.491 1_656 S
C724 H715 0.950 . S
C724 C723 1.398 1_554 S
C724 C725 1.391 . S
C725 H713 0.950 . S
C725 C721 1.393 1_554 S
C725 C724 1.391 . S
C726 H716 0.950 . S
C726 C727 1.386 . S
C726 C728 1.391 . S
C727 C726 1.386 . S
C727 C731 1.393 1_554 S
C728 H717 0.950 . S
C728 C726 1.391 . S
C728 C729 1.400 . S
C729 C723 1.491 1_454 S
C729 C728 1.400 . S
C729 C730 1.398 1_554 S
C730 H718 0.950 . S
C730 C729 1.398 1_556 S
C730 C731 1.391 . S
C731 H719 0.950 . S
C731 C727 1.393 1_556 S
C731 C730 1.391 . S
H732 C740 0.950 . S
H733 C745 0.950 . S
H734 C742 0.950 . S
H735 C744 0.950 . S
H736 C746 0.950 . S
H737 C748 0.950 . S
H738 C750 0.950 . S
H739 C751 0.950 . S
C740 H732 0.950 . S
C740 C741 1.386 . S
C740 C742 1.391 . S
C741 C740 1.386 . S
C741 C745 1.393 . S
C742 H734 0.950 . S
C742 C740 1.391 . S
C742 C743 1.400 . S
C743 C742 1.400 . S
C743 C744 1.398 . S
C743 C749 1.491 . S
C744 H735 0.950 . S
C744 C743 1.398 . S
C744 C745 1.391 . S
C745 H733 0.950 . S
C745 C741 1.393 . S
C745 C744 1.391 . S
C746 H736 0.950 . S
C746 C747 1.386 . S
C746 C748 1.391 . S
C747 C746 1.386 . S
C747 C751 1.393 . S
C748 H737 0.950 . S
C748 C746 1.391 . S
C748 C749 1.400 . S
C749 C743 1.491 . S
C749 C748 1.400 . S
C749 C750 1.398 . S
C750 H738 0.950 . S
C750 C749 1.398 . S
C750 C751 1.391 . S
C751 H739 0.950 . S
C751 C747 1.393 . S
C751 C750 1.391 . S
H752 C760 0.950 . S
H753 C765 0.950 . S
H754 C762 0.950 . S
H755 C764 0.950 . S
H756 C766 0.950 . S
H757 C768 0.950 . S
H758 C770 0.950 . S
H759 C771 0.950 . S
C760 H752 0.950 . S
C760 C761 1.386 . S
C760 C762 1.391 . S
C761 C760 1.386 . S
C761 C765 1.393 . S
C762 H754 0.950 . S
C762 C760 1.391 . S
C762 C763 1.400 . S
C763 C762 1.400 . S
C763 C764 1.398 . S
C763 C769 1.491 . S
C764 H755 0.950 . S
C764 C763 1.398 . S
C764 C765 1.391 . S
C765 H753 0.950 . S
C765 C761 1.393 . S
C765 C764 1.391 . S
C766 H756 0.950 . S
C766 C767 1.386 . S
C766 C768 1.391 . S
C767 C766 1.386 . S
C767 C771 1.393 . S
C768 H757 0.950 . S
C768 C766 1.391 . S
C768 C769 1.400 . S
C769 C763 1.491 . S
C769 C768 1.400 . S
C769 C770 1.398 . S
C770 H758 0.950 . S
C770 C769 1.398 . S
C770 C771 1.391 . S
C771 H759 0.950 . S
C771 C767 1.393 . S
C771 C770 1.391 . S
H772 C780 0.950 . S
H773 C785 0.950 . S
H774 C782 0.950 . S
H775 C784 0.950 . S
H776 C786 0.950 . S
H777 C788 0.950 . S
H778 C790 0.950 . S
H779 C791 0.950 . S
C780 H772 0.950 . S
C780 C781 1.386 . S
C780 C782 1.391 . S
C781 C780 1.386 . S
C781 C785 1.393 . S
C782 H774 0.950 . S
C782 C780 1.391 . S
C782 C783 1.400 . S
C783 C782 1.400 . S
C783 C784 1.398 . S
C783 C789 1.491 . S
C784 H775 0.950 . S
C784 C783 1.398 . S
C784 C785 1.391 . S
C785 H773 0.950 . S
C785 C781 1.393 . S
C785 C784 1.391 . S
C786 H776 0.950 . S
C786 C787 1.386 . S
C786 C788 1.391 . S
C787 C786 1.386 . S
C787 C791 1.393 . S
C788 H777 0.950 . S
C788 C786 1.391 . S
C788 C789 1.400 . S
C789 C783 1.491 . S
C789 C788 1.400 . S
C789 C790 1.398 . S
C790 H778 0.950 . S
C790 C789 1.398 . S
C790 C791 1.391 . S
C791 H779 0.950 . S
C791 C787 1.393 . S
C791 C790 1.391 . S
H792 C800 0.950 . S
H793 C805 0.950 . S
H794 C802 0.950 . S
H795 C804 0.950 . S
H796 C806 0.950 . S
H797 C808 0.950 . S
H798 C810 0.950 . S
H799 C811 0.950 . S
C800 H792 0.950 . S
C800 C801 1.386 . S
C800 C802 1.391 . S
C801 C800 1.386 . S
C801 C805 1.393 . S
C802 H794 0.950 . S
C802 C800 1.391 . S
C802 C803 1.400 . S
C803 C802 1.400 . S
C803 C804 1.398 . S
C803 C809 1.491 . S
C804 H795 0.950 . S
C804 C803 1.398 . S
C804 C805 1.391 . S
C805 H793 0.950 . S
C805 C801 1.393 . S
C805 C804 1.391 . S
C806 H796 0.950 . S
C806 C807 1.386 . S
C806 C808 1.391 . S
C807 C806 1.386 . S
C807 C811 1.393 . S
C808 H797 0.950 . S
C808 C806 1.391 . S
C808 C809 1.400 . S
C809 C803 1.491 . S
C809 C808 1.400 . S
C809 C810 1.398 . S
C810 H798 0.950 . S
C810 C809 1.398 . S
C810 C811 1.391 . S
C811 H799 0.950 . S
C811 C807 1.393 . S
C811 C810 1.391 . S
H812 C820 0.950 . S
H813 C825 0.950 . S
H814 C822 0.950 . S
H815 C824 0.950 . S
H816 C826 0.950 . S
H817 C828 0.950 . S
H818 C830 0.950 . S
H819 C831 0.950 . S
C820 H812 0.950 . S
C820 C821 1.386 . S
C820 C822 1.391 . S
C821 C820 1.386 . S
C821 C825 1.393 . S
C822 H814 0.950 . S
C822 C820 1.391 . S
C822 C823 1.400 . S
C823 C822 1.400 . S
C823 C824 1.398 . S
C823 C829 1.491 . S
C824 H815 0.950 . S
C824 C823 1.398 . S
C824 C825 1.391 . S
C825 H813 0.950 . S
C825 C821 1.393 . S
C825 C824 1.391 . S
C826 H816 0.950 . S
C826 C827 1.386 . S
C826 C828 1.391 . S
C827 C826 1.386 . S
C827 C831 1.393 . S
C828 H817 0.950 . S
C828 C826 1.391 . S
C828 C829 1.400 . S
C829 C823 1.491 . S
C829 C828 1.400 . S
C829 C830 1.398 . S
C830 H818 0.950 . S
C830 C829 1.398 . S
C830 C831 1.391 . S
C831 H819 0.950 . S
C831 C827 1.393 . S
C831 C830 1.391 . S
H832 C840 0.950 . S
H833 C845 0.950 . S
H834 C842 0.950 . S
H835 C844 0.950 . S
H836 C846 0.950 . S
H837 C848 0.950 . S
H838 C850 0.950 . S
H839 C851 0.950 . S
C840 H832 0.950 . S
C840 C841 1.386 . S
C840 C842 1.391 . S
C841 C840 1.386 . S
C841 C845 1.393 . S
C842 H834 0.950 . S
C842 C840 1.391 . S
C842 C843 1.400 . S
C843 C842 1.400 . S
C843 C844 1.398 . S
C843 C849 1.491 . S
C844 H835 0.950 . S
C844 C843 1.398 . S
C844 C845 1.391 . S
C845 H833 0.950 . S
C845 C841 1.393 . S
C845 C844 1.391 . S
C846 H836 0.950 . S
C846 C847 1.386 . S
C846 C848 1.391 . S
C847 C846 1.386 . S
C847 C851 1.393 . S
C848 H837 0.950 . S
C848 C846 1.391 . S
C848 C849 1.400 . S
C849 C843 1.491 . S
C849 C848 1.400 . S
C849 C850 1.398 . S
C850 H838 0.950 . S
C850 C849 1.398 . S
C850 C851 1.391 . S
C851 H839 0.950 . S
C851 C847 1.393 . S
C851 C850 1.391 . S
H852 C860 0.950 . S
H853 C865 0.950 . S
H854 C862 0.950 . S
H855 C864 0.950 . S
H856 C866 0.950 . S
H857 C868 0.950 . S
H858 C870 0.950 . S
H859 C871 0.950 . S
C860 H852 0.950 . S
C860 C861 1.386 . S
C860 C862 1.391 . S
C861 C860 1.386 . S
C861 C865 1.393 . S
C862 H854 0.950 . S
C862 C860 1.391 . S
C862 C863 1.400 . S
C863 C862 1.400 . S
C863 C864 1.398 . S
C863 C869 1.491 . S
C864 H855 0.950 . S
C864 C863 1.398 . S
C864 C865 1.391 . S
C865 H853 0.950 . S
C865 C861 1.393 . S
C865 C864 1.391 . S
C866 H856 0.950 . S
C866 C867 1.386 . S
C866 C868 1.391 . S
C867 C866 1.386 . S
C867 C871 1.393 . S
C868 H857 0.950 . S
C868 C866 1.391 . S
C868 C869 1.400 . S
C869 C863 1.491 . S
C869 C868 1.400 . S
C869 C870 1.398 . S
C870 H858 0.950 . S
C870 C869 1.398 . S
C870 C871 1.391 . S
C871 H859 0.950 . S
C871 C867 1.393 . S
C871 C870 1.391 . S
H872 C880 0.950 . S
H873 C885 0.950 . S
H874 C882 0.950 . S
H875 C884 0.950 . S
H876 C886 0.950 . S
H877 C888 0.950 . S
H878 C890 0.950 . S
H879 C891 0.950 . S
C880 H872 0.950 . S
C880 C881 1.386 . S
C880 C882 1.391 . S
C881 C880 1.386 . S
C881 C885 1.393 . S
C882 H874 0.950 . S
C882 C880 1.391 . S
C882 C883 1.400 . S
C883 C882 1.400 . S
C883 C884 1.398 . S
C883 C889 1.491 . S
C884 H875 0.950 . S
C884 C883 1.398 . S
C884 C885 1.391 . S
C885 H873 0.950 . S
C885 C881 1.393 . S
C885 C884 1.391 . S
C886 H876 0.950 . S
C886 C887 1.386 . S
C886 C888 1.391 . S
C887 C886 1.386 . S
C887 C891 1.393 . S
C888 H877 0.950 . S
C888 C886 1.391 . S
C888 C889 1.400 . S
C889 C883 1.491 . S
C889 C888 1.400 . S
C889 C890 1.398 . S
C890 H878 0.950 . S
C890 C889 1.398 . S
C890 C891 1.391 . S
C891 H879 0.950 . S
C891 C887 1.393 . S
C891 C890 1.391 . S
H892 C900 0.950 . S
H893 C905 0.950 . S
H894 C902 0.950 . S
H895 C904 0.950 . S
H896 C906 0.950 . S
H897 C908 0.950 . S
H898 C910 0.950 . S
H899 C911 0.950 . S
C900 H892 0.950 . S
C900 C901 1.386 . S
C900 C902 1.391 . S
C901 C900 1.386 . S
C901 C905 1.393 . S
C902 H894 0.950 . S
C902 C900 1.391 . S
C902 C903 1.400 . S
C903 C902 1.400 . S
C903 C904 1.398 . S
C903 C909 1.491 . S
C904 H895 0.950 . S
C904 C903 1.398 . S
C904 C905 1.391 . S
C905 H893 0.950 . S
C905 C901 1.393 . S
C905 C904 1.391 . S
C906 H896 0.950 . S
C906 C907 1.386 . S
C906 C908 1.391 . S
C907 C906 1.386 . S
C907 C911 1.393 . S
C908 H897 0.950 . S
C908 C906 1.391 . S
C908 C909 1.400 . S
C909 C903 1.491 . S
C909 C908 1.400 . S
C909 C910 1.398 . S
C910 H898 0.950 . S
C910 C909 1.398 . S
C910 C911 1.391 . S
C911 H899 0.950 . S
C911 C907 1.393 . S
C911 C910 1.391 . S
H912 C920 0.950 . S
H913 C925 0.950 . S
H914 C922 0.950 . S
H915 C924 0.950 . S
H916 C926 0.950 . S
H917 C928 0.950 . S
H918 C930 0.950 . S
H919 C931 0.950 . S
C920 H912 0.950 . S
C920 C921 1.386 . S
C920 C922 1.391 . S
C921 C920 1.386 . S
C921 C925 1.393 . S
C922 H914 0.950 . S
C922 C920 1.391 . S
C922 C923 1.400 . S
C923 C922 1.400 . S
C923 C924 1.398 . S
C923 C929 1.491 . S
C924 H915 0.950 . S
C924 C923 1.398 . S
C924 C925 1.391 . S
C925 H913 0.950 . S
C925 C921 1.393 . S
C925 C924 1.391 . S
C926 H916 0.950 . S
C926 C927 1.386 . S
C926 C928 1.391 . S
C927 C926 1.386 . S
C927 C931 1.393 . S
C928 H917 0.950 . S
C928 C926 1.391 . S
C928 C929 1.400 . S
C929 C923 1.491 . S
C929 C928 1.400 . S
C929 C930 1.398 . S
C930 H918 0.950 . S
C930 C929 1.398 . S
C930 C931 1.391 . S
C931 H919 0.950 . S
C931 C927 1.393 . S
C931 C930 1.391 . S
H932 C940 0.950 . S
H933 C945 0.950 . S
H934 C942 0.950 . S
H935 C944 0.950 . S
H936 C946 0.950 . S
H937 C948 0.950 . S
H938 C950 0.950 . S
H939 C951 0.950 . S
C940 H932 0.950 . S
C940 C941 1.386 . S
C940 C942 1.391 . S
C941 C940 1.386 . S
C941 C945 1.393 . S
C942 H934 0.950 . S
C942 C940 1.391 . S
C942 C943 1.400 . S
C943 C942 1.400 . S
C943 C944 1.398 . S
C943 C949 1.491 . S
C944 H935 0.950 . S
C944 C943 1.398 . S
C944 C945 1.391 . S
C945 H933 0.950 . S
C945 C941 1.393 . S
C945 C944 1.391 . S
C946 H936 0.950 . S
C946 C947 1.386 . S
C946 C948 1.391 . S
C947 C946 1.386 . S
C947 C951 1.393 . S
C948 H937 0.950 . S
C948 C946 1.391 . S
C948 C949 1.400 . S
C949 C943 1.491 . S
C949 C948 1.400 . S
C949 C950 1.398 . S
C950 H938 0.950 . S
C950 C949 1.398 . S
C950 C951 1.391 . S
C951 H939 0.950 . S
C951 C947 1.393 . S
C951 C950 1.391 . S
H952 C960 0.950 . S
H953 C965 0.950 . S
H954 C962 0.950 . S
H955 C964 0.950 . S
H956 C966 0.950 . S
H957 C968 0.950 . S
H958 C970 0.950 . S
H959 C971 0.950 . S
C960 H952 0.950 . S
C960 C961 1.386 . S
C960 C962 1.391 . S
C961 C960 1.386 . S
C961 C965 1.393 . S
C962 H954 0.950 . S
C962 C960 1.391 . S
C962 C963 1.400 . S
C963 C962 1.400 . S
C963 C964 1.398 . S
C963 C969 1.491 . S
C964 H955 0.950 . S
C964 C963 1.398 . S
C964 C965 1.391 . S
C965 H953 0.950 . S
C965 C961 1.393 . S
C965 C964 1.391 . S
C966 H956 0.950 . S
C966 C967 1.386 . S
C966 C968 1.391 . S
C967 C966 1.386 . S
C967 C971 1.393 . S
C968 H957 0.950 . S
C968 C966 1.391 . S
C968 C969 1.400 . S
C969 C963 1.491 . S
C969 C968 1.400 . S
C969 C970 1.398 . S
C970 H958 0.950 . S
C970 C969 1.398 . S
C970 C971 1.391 . S
C971 H959 0.950 . S
C971 C967 1.393 . S
C971 C970 1.391 . S
C261 C249 1.629 . S
C267 C11 1.637 . S
C281 C221 1.634 . S
C287 C25 1.635 . S
C301 C235 1.630 . S
C307 C39 1.620 . S
C321 C109 1.624 . S
C327 C53 1.621 . S
C341 C123 1.632 . S
C347 C67 1.636 . S
C361 C81 1.629 . S
C367 C95 1.620 . S
C381 C137 1.623 . S
C387 C193 1.622 . S
C401 C151 1.620 . S
C407 C207 1.627 . S
C421 C165 1.636 . S
C427 C179 1.632 . S
C441 C4 1.178 . S
C447 C242 1.181 . S
C461 C214 1.198 . S
C467 C18 1.183 . S
C481 C32 1.172 . S
C487 C228 1.193 . S
C501 C102 1.173 . S
C507 C46 1.188 . S
C521 C60 1.176 . S
C527 C116 1.198 . S
C541 C74 1.173 . S
C547 C88 1.189 . S
C561 C130 1.186 . S
C567 C186 1.196 . S
C581 C200 1.197 . S
C587 C144 1.173 . S
C601 C172 1.173 . S
C607 C158 1.188 . S
C621 C5 1.307 . S
C627 C47 1.332 . S
C641 C61 1.291 . S
C647 C19 1.289 . S
C661 C75 1.333 . S
C667 C33 1.319 . S
C681 C82 1.445 . S
C687 C26 1.445 . S
C701 C40 1.448 . S
C707 C54 1.448 . S
C721 C68 1.446 . S
C727 C12 1.446 . S
C741 C89 1.309 . S
C747 C131 1.285 . S
C761 C145 1.308 . S
C767 C103 1.285 . S
C781 C159 1.313 . S
C787 C117 1.334 . S
C801 C166 1.446 . S
C807 C110 1.446 . S
C821 C124 1.446 . S
C827 C138 1.446 . S
C841 C152 1.449 . S
C847 C96 1.449 . S
C861 C215 1.295 . S
C867 C173 1.286 . S
C881 C229 1.318 . S
C887 C187 1.289 . S
C901 C201 1.290 . S
C907 C243 1.290 . S
C921 C250 1.451 . S
C927 C194 1.451 . S
C941 C208 1.448 . S
C947 C222 1.448 . S
C961 C236 1.449 . S
C967 C180 1.449 . S
