# Generated by pormake.
# Topology snp, (6)-cn, num edge types: 1
# Building blocks:
#     Node 0, Type 0, BuildingBlock: LEVNOQ01_clean_sbu_1, # of connection points: 6
#     Node 1, Type 0, BuildingBlock: LEVNOQ01_clean_sbu_1, # of connection points: 6
#     Node 2, Type 0, BuildingBlock: LEVNOQ01_clean_sbu_1, # of connection points: 6
#     Node 3, Type 0, BuildingBlock: LEVNOQ01_clean_sbu_1, # of connection points: 6
#     Edge 4, Type (0, 0), BuildingBlock: EZIPEK_clean_linker_0, # of connection points: 2
#     Edge 5, Type (0, 0), BuildingBlock: EZIPEK_clean_linker_0, # of connection points: 2
#     Edge 6, Type (0, 0), BuildingBlock: EZIPEK_clean_linker_0, # of connection points: 2
#     Edge 7, Type (0, 0), BuildingBlock: EZIPEK_clean_linker_0, # of connection points: 2
#     Edge 8, Type (0, 0), BuildingBlock: EZIPEK_clean_linker_0, # of connection points: 2
#     Edge 9, Type (0, 0), BuildingBlock: EZIPEK_clean_linker_0, # of connection points: 2
#     Edge 10, Type (0, 0), BuildingBlock: EZIPEK_clean_linker_0, # of connection points: 2
#     Edge 11, Type (0, 0), BuildingBlock: EZIPEK_clean_linker_0, # of connection points: 2
#     Edge 12, Type (0, 0), BuildingBlock: EZIPEK_clean_linker_0, # of connection points: 2
#     Edge 13, Type (0, 0), BuildingBlock: EZIPEK_clean_linker_0, # of connection points: 2
#     Edge 14, Type (0, 0), BuildingBlock: EZIPEK_clean_linker_0, # of connection points: 2
#     Edge 15, Type (0, 0), BuildingBlock: EZIPEK_clean_linker_0, # of connection points: 2
# Relax obj value: 0.507
# Max RMSD: 0.250
# Mean RMSD: 0.247
data_MOF--net-snp--node1-LEVNOQ01_clean_sbu_1--edge1-EZIPEK_clean_linker_0
_symmetry_space_group_name_H-M    P1
_symmetry_Int_Tables_number       1
_symmetry_cell_setting            triclinic
loop_
_symmetry_equiv_pos_as_xyz
'x, y, z'
_cell_length_a     19.981348
_cell_length_b     19.511056
_cell_length_c     17.242917
_cell_angle_alpha  102.06966
_cell_angle_beta   103.95168
_cell_angle_gamma 92.229829
loop_
_atom_site_label
_atom_site_type_symbol
_atom_site_fract_x
_atom_site_fract_y
_atom_site_fract_z
_atom_type_partial_charge
O0 O 0.18999 0.00264 0.91141 0.0
Mg1 Mg 0.12032 0.9264 0.92703 0.0
O2 O 0.28132 0.02252 1.02206 0.0
Mg3 Mg 0.25269 0.9481 0.10738 0.0
O4 O 0.14645 0.95255 1.0465 0.0
O5 O 0.03928 0.95943 0.98293 0.0
O6 O 0.21374 0.87609 0.18511 0.0
O7 O 0.24921 0.04608 0.21722 0.0
Mg8 Mg 0.36929 0.94011 0.28602 0.0
O9 O 0.36182 0.94082 0.16867 0.0
O10 O 0.29659 0.85716 0.28867 0.0
O11 O 0.33611 0.04087 0.32541 0.0
O12 O 0.46376 0.93593 0.24968 0.0
C13 C 0.21307 0.80686 0.94319 0.0
C14 C 0.24884 0.03442 0.95215 0.0
C15 C 0.08687 0.9695 1.05039 0.0
C16 C 0.23409 0.84695 0.24571 0.0
C17 C 0.28436 0.07034 0.29235 0.0
C18 C 0.4276 0.9438 0.17998 0.0
O19 O 0.15395 0.82533 0.91214 0.0
O20 O 0.25673 0.84645 1.00516 0.0
O21 O 0.03076 0.33203 0.85345 0.0
Mg22 Mg 0.12169 0.37804 0.83072 0.0
O23 O -0.01149 0.25595 0.73291 0.0
Mg24 Mg 0.05333 0.27034 0.6373 0.0
O25 O 0.09292 0.37555 0.71108 0.0
O26 O 0.11514 0.47807 0.79584 0.0
O27 O 0.13765 0.27625 0.54971 0.0
O28 O 0.95188 0.31686 0.56317 0.0
Mg29 Mg 0.01905 0.23341 0.4938 0.0
O30 O 0.00515 0.16188 0.5639 0.0
O31 O 0.08945 0.19956 0.43339 0.0
O32 O 0.00325 0.33556 0.47453 0.0
O33 O 0.92582 0.17507 0.45222 0.0
C34 C 0.1956 0.24354 0.7867 0.0
C35 C -0.01271 0.28147 0.80772 0.0
C36 C 0.09062 0.44192 0.7221 0.0
C37 C 0.14108 0.23984 0.47877 0.0
C38 C 0.94992 0.34172 0.5 0.0
C39 C 0.94758 0.14098 0.50813 0.0
O40 O 0.19869 0.30473 0.83251 0.0
O41 O 0.14622 0.2232 0.72064 0.0
O42 O 0.72883 0.15545 0.92373 0.0
Mg43 Mg 0.66748 0.06012 0.90788 0.0
O44 O 0.81194 0.11967 1.01232 0.0
Mg45 Mg 0.76263 0.05656 0.09468 0.0
O46 O 0.65485 0.05713 1.01878 0.0
O47 O 0.56369 0.05449 0.91635 0.0
O48 O 0.71502 0.97749 0.17006 0.0
O49 O 0.75926 0.17219 0.18146 0.0
Mg50 Mg 0.81395 0.0704 0.24777 0.0
O51 O 0.87411 0.05582 0.16537 0.0
O52 O 0.79859 0.98091 0.28126 0.0
O53 O 0.75492 0.14528 0.2954 0.0
O54 O 0.91342 0.10804 0.29941 0.0
C55 C 0.75256 0.92833 0.92266 0.0
C56 C 0.79271 0.15503 0.95691 0.0
C57 C 0.5887 0.0502 0.99114 0.0
C58 C 0.74187 0.95298 0.23378 0.0
C59 C 0.754 0.19189 0.25531 0.0
C60 C 0.92433 0.0799 0.23 0.0
O61 O 0.71596 0.9644 0.87734 0.0
O62 O 0.77188 0.95141 1.00093 0.0
O63 O 0.81418 0.68114 0.33637 0.0
Mg64 Mg 0.90189 0.62352 0.35866 0.0
O65 O 0.84831 0.76885 0.44697 0.0
Mg66 Mg 0.9485 0.74253 0.54246 0.0
O67 O 0.92409 0.63042 0.48157 0.0
O68 O 0.9083 0.5269 0.39866 0.0
O69 O 0.04667 0.71425 0.63475 0.0
O70 O 0.88315 0.74364 0.64343 0.0
Mg71 Mg 0.02314 0.87233 0.71178 0.0
O72 O 0.97234 0.85334 0.5957 0.0
O73 O 0.10966 0.81436 0.70543 0.0
O74 O 0.94566 0.82447 0.75285 0.0
O75 O -0.0078 0.96212 0.66481 0.0
C76 C 0.03391 0.7226 0.38605 0.0
C77 C 0.80506 0.74047 0.37772 0.0
C78 C 0.92734 0.5641 0.47256 0.0
C79 C 0.10273 0.74749 0.68379 0.0
C80 C 0.89342 0.7794 0.71836 0.0
C81 C 0.9601 0.9171 0.59904 0.0
O82 O -0.00751 0.67239 0.33616 0.0
O83 O 0.02206 0.7492 0.45523 0.0
C84 C -0.00196 0.98484 0.21378 0.0
C85 C -0.008 0.05823 0.22657 0.0
C86 C 0.07743 0.07454 0.15238 0.0
C87 C 0.07342 0.00038 0.12788 0.0
N88 N 0.05128 0.88566 0.15167 0.0
N89 N 0.03432 0.17522 0.2287 0.0
C90 C 0.04208 0.95583 0.16593 0.0
C91 C 0.03663 0.10424 0.20493 0.0
N92 N 0.95477 0.9427 0.23823 0.0
N93 N 0.11672 0.11512 0.12111 0.0
H94 H 0.00452 0.19646 0.26837 0.0
H95 H 0.06215 0.21276 0.21123 0.0
H96 H 0.14804 0.09326 0.0837 0.0
H97 H 0.11982 0.16976 0.13296 0.0
H98 H 0.94957 0.88797 0.22159 0.0
H99 H 0.92174 0.96334 0.27368 0.0
H100 H 0.0336 0.8508 0.1821 0.0
H101 H 0.08136 0.86319 0.11303 0.0
C102 C 0.93906 0.94633 0.46771 0.0
C103 C 0.9115 0.93956 0.5331 0.0
C104 C 0.86916 0.05461 0.53698 0.0
C105 C 0.91892 0.0692 0.49546 0.0
N106 N 0.00126 0.02513 0.41734 0.0
N107 N 0.8291 0.97733 0.61075 0.0
C108 C 0.95222 0.01403 0.45719 0.0
C109 C 0.86706 0.98901 0.55841 0.0
N110 N 0.96039 0.88969 0.42307 0.0
N111 N 0.82839 0.10469 0.56159 0.0
H112 H 0.82795 0.93013 0.63022 0.0
H113 H 0.82795 0.93013 0.63022 0.0
H114 H 0.8298 0.15402 0.54711 0.0
H115 H 0.79153 0.09477 0.59261 0.0
H116 H 0.98404 0.89336 0.37619 0.0
H117 H 0.94846 0.83948 0.43015 0.0
H118 H 0.01696 0.07437 0.40979 0.0
H119 H 0.01696 0.07437 0.40979 0.0
C120 C 0.542 0.94949 1.03628 0.0
C121 C 0.54387 0.02222 1.03529 0.0
C122 C 0.46337 0.04143 0.12201 0.0
C123 C 0.4616 0.96883 0.12342 0.0
N124 N 0.48806 0.85125 0.07325 0.0
N125 N 0.49637 0.13394 0.06029 0.0
C126 C 0.49766 0.92196 0.0778 0.0
C127 C 0.50117 0.0671 0.07266 0.0
N128 N 0.58253 0.9071 0.99728 0.0
N129 N 0.43214 0.08653 0.17135 0.0
H130 H 0.52549 0.15536 1.02687 0.0
H131 H 0.45998 0.16645 0.07779 0.0
H132 H 0.40285 0.07003 0.20768 0.0
H133 H 0.43885 0.14108 0.18073 0.0
H134 H 0.58794 0.85492 1.00041 0.0
H135 H 0.61309 0.92462 0.96282 0.0
H136 H 0.50834 0.81283 1.0363 0.0
H137 H 0.45515 0.83002 0.10269 0.0
C138 C 0.97957 0.4867 0.66032 0.0
C139 C 0.04873 0.47325 0.65845 0.0
C140 C 0.03922 0.52514 0.53969 0.0
C141 C 0.96887 0.53469 0.53825 0.0
N142 N 0.8696 0.52267 0.5918 0.0
N143 N 0.14154 0.46898 0.59125 0.0
C144 C 0.93828 0.51515 0.59731 0.0
C145 C 0.07778 0.4894 0.59664 0.0
N146 N 0.9539 0.47258 0.72267 0.0
N147 N 0.06977 0.55244 0.48834 0.0
H148 H 0.17206 0.4443 0.63344 0.0
H149 H 0.16206 0.47154 0.54176 0.0
H150 H 0.04316 0.57854 0.44508 0.0
H151 H 0.12273 0.55439 0.49279 0.0
H152 H 0.90668 0.48717 0.73273 0.0
H153 H 0.98134 0.44843 0.76747 0.0
H154 H 0.84185 0.50445 0.62844 0.0
H155 H 0.83872 0.54473 0.54716 0.0
C156 C 0.20483 0.23912 0.37155 0.0
C157 C 0.20607 0.23184 0.45197 0.0
C158 C 0.26418 0.12547 0.43089 0.0
C159 C 0.26107 0.12941 0.34802 0.0
N160 N 0.24926 0.20395 0.25085 0.0
N161 N 0.26839 0.1918 0.56783 0.0
C162 C 0.23815 0.19096 0.32171 0.0
C163 C 0.24809 0.18394 0.48501 0.0
N164 N 0.16926 0.29062 0.3426 0.0
N165 N 0.27539 0.06425 0.4567 0.0
H166 H 0.25572 0.23467 0.60746 0.0
H167 H 0.30333 0.16045 0.59581 0.0
H168 H 0.27837 0.01641 0.41805 0.0
H169 H 0.27231 0.05891 0.5147 0.0
H170 H 0.16089 0.29626 0.28238 0.0
H171 H 0.14674 0.32682 0.38007 0.0
H172 H 0.23797 0.25027 0.23153 0.0
H173 H 0.27557 0.17099 0.21506 0.0
C174 C 0.86862 0.22424 0.80074 0.0
C175 C 0.93777 0.24819 0.84569 0.0
C176 C 0.91024 0.21872 0.96779 0.0
C177 C 0.84422 0.18628 0.91972 0.0
N178 N 0.77449 0.1363 0.78135 0.0
N179 N 0.02901 0.24451 0.96631 0.0
C180 C 0.82722 0.18272 0.83346 0.0
C181 C 0.96008 0.23878 0.92776 0.0
N182 N 0.84123 0.24218 0.72794 0.0
N183 N 0.92541 0.23244 1.05142 0.0
H184 H 0.06794 0.25186 0.93725 0.0
H185 H 0.04732 0.23241 1.02335 0.0
H186 H 0.8896 0.22219 0.08357 0.0
H187 H 0.97106 0.26131 0.0886 0.0
H188 H 0.78908 0.23018 0.69676 0.0
H189 H 0.86802 0.27586 0.70377 0.0
H190 H 0.76296 0.12982 0.71791 0.0
H191 H 0.749 0.09741 0.79984 0.0
C192 C 0.73256 0.84508 0.38168 0.0
C193 C 0.75065 0.78234 0.33684 0.0
C194 C 0.71366 0.82329 0.20941 0.0
C195 C 0.71195 0.89149 0.25653 0.0
N196 N 0.69851 0.96388 0.38155 0.0
N197 N 0.71071 0.69866 0.20652 0.0
C198 C 0.71199 0.90023 0.3406 0.0
C199 C 0.72573 0.76677 0.24984 0.0
N200 N 0.73318 0.85024 0.46196 0.0
N201 N 0.70975 0.81353 0.12773 0.0
H202 H 0.71006 0.65679 0.23538 0.0
H203 H 0.68876 0.68488 0.14345 0.0
H204 H 0.69934 0.85372 0.0964 0.0
H205 H 0.71983 0.76667 0.09251 0.0
H206 H 0.71721 0.89276 0.49819 0.0
H207 H 0.744 0.80806 0.49008 0.0
H208 H 0.70353 0.97778 0.44442 0.0
H209 H 0.68203 0.00335 0.35063 0.0
C210 C 0.22555 0.741 0.75095 0.0
C211 C 0.15608 0.7111 0.73239 0.0
C212 C 0.18 0.68688 0.86917 0.0
C213 C 0.23253 0.7429 0.89399 0.0
N214 N 0.32888 0.79336 0.85985 0.0
N215 N 0.07396 0.63625 0.76684 0.0
C216 C 0.265 0.75703 0.83438 0.0
C217 C 0.13655 0.67472 0.78807 0.0
N218 N 0.24966 0.75978 0.69013 0.0
N219 N 0.1668 0.65375 0.92666 0.0
H220 H 0.04265 0.6255 0.70725 0.0
H221 H 0.05333 0.61547 0.80791 0.0
H222 H 0.19715 0.6678 0.98715 0.0
H223 H 0.13007 0.61079 0.91336 0.0
H224 H 0.29909 0.78379 0.69864 0.0
H225 H 0.21919 0.74837 0.62969 0.0
H226 H 0.35573 0.8089 0.82073 0.0
H227 H 0.35507 0.80623 0.92203 0.0
C228 C 0.73772 0.82965 0.79742 0.0
C229 C 0.77558 0.86072 0.87943 0.0
C230 C 0.86965 0.78819 0.85476 0.0
C231 C 0.84188 0.77886 0.76884 0.0
N232 N 0.74236 0.78064 0.65782 0.0
N233 N 0.87234 0.85227 0.9922 0.0
C234 C 0.77299 0.79483 0.73989 0.0
C235 C 0.83939 0.83363 0.91069 0.0
N236 N 0.66767 0.83223 0.77548 0.0
N237 N 0.92622 0.75431 0.88179 0.0
H238 H 0.84784 0.8735 1.03728 0.0
H239 H 0.92391 0.84458 1.01557 0.0
H240 H 0.94799 0.72088 0.84076 0.0
H241 H 0.94723 0.75402 0.94314 0.0
H242 H 0.63626 0.80626 0.71851 0.0
H243 H 0.64047 0.85324 0.81823 0.0
H244 H 0.69651 0.80073 0.63292 0.0
H245 H 0.76334 0.74951 0.61454 0.0
C246 C 0.15111 0.85628 0.33449 0.0
C247 C 0.18184 0.81301 0.27843 0.0
C248 C 0.12519 0.70805 0.30341 0.0
C249 C 0.09469 0.75213 0.36038 0.0
N250 N 0.11201 0.86553 0.45726 0.0
N251 N 0.20572 0.69786 0.21585 0.0
C252 C 0.1171 0.8255 0.3841 0.0
C253 C 0.171 0.73875 0.26467 0.0
N254 N 0.15414 0.9274 0.34073 0.0
N255 N 0.11273 0.63658 0.28921 0.0
H256 H 0.23696 0.71904 0.18447 0.0
H257 H 0.20606 0.64361 0.20831 0.0
H258 H 0.09171 0.6121 0.32739 0.0
H259 H 0.12427 0.60132 0.24106 0.0
H260 H 0.12599 0.96022 0.3741 0.0
H261 H 0.17874 0.95254 0.306 0.0
H262 H 0.13224 0.91804 0.47864 0.0
H263 H 0.09842 0.84492 0.50278 0.0
C264 C 0.28254 0.211 0.90427 0.0
C265 C 0.24281 0.19181 0.82096 0.0
C266 C 0.26157 0.06899 0.82587 0.0
C267 C 0.27488 0.08765 0.91274 0.0
N268 N 0.30671 0.17977 1.03625 0.0
N269 N 0.21322 0.10039 0.6963 0.0
C270 C 0.28968 0.15966 0.95278 0.0
C271 C 0.23909 0.12009 0.77926 0.0
N272 N 0.3154 0.2771 0.93597 0.0
N273 N 0.26852 0.00152 0.78889 0.0
H274 H 0.20502 0.13662 0.65931 0.0
H275 H 0.20022 0.04822 0.66421 0.0
H276 H 0.28527 0.96432 0.82324 0.0
H277 H 0.2642 0.98457 0.72633 0.0
H278 H 0.34821 0.29217 0.99488 0.0
H279 H 0.31773 0.31284 0.89912 0.0
H280 H 0.30946 0.2321 0.06754 0.0
H281 H 0.31578 0.14405 0.07391 0.0
C282 C 0.82651 0.30796 0.28894 0.0
C283 C 0.77534 0.26576 0.30614 0.0
C284 C 0.81859 0.32192 0.45302 0.0
C285 C 0.88211 0.34249 0.4376 0.0
N286 N 0.93653 0.38054 0.34087 0.0
N287 N 0.70579 0.25346 0.39866 0.0
C288 C 0.88222 0.34499 0.35525 0.0
C289 C 0.76508 0.28143 0.38655 0.0
N290 N 0.82107 0.31243 0.20979 0.0
N291 N 0.81047 0.34053 0.53076 0.0
H292 H 0.66579 0.22662 0.34921 0.0
H293 H 0.69609 0.2565 0.45583 0.0
H294 H 0.84806 0.3734 0.57802 0.0
H295 H 0.76532 0.32875 0.54719 0.0
H296 H 0.85515 0.34362 0.19168 0.0
H297 H 0.77747 0.2897 0.16291 0.0
H298 H 0.94477 0.37778 0.28305 0.0
H299 H 0.97343 0.41423 0.38809 0.0
loop_
_geom_bond_atom_site_label_1
_geom_bond_atom_site_label_2
_geom_bond_distance
_geom_bond_site_symmetry_2
_ccdc_geom_bond_type
O0 Mg1 1.990 . S
O0 C14 1.253 . S
Mg1 O0 1.990 . S
Mg1 O4 2.180 1_556 S
Mg1 O5 2.117 . S
Mg1 O19 2.030 1_545 S
O2 Mg3 2.075 . S
O2 C14 1.257 1_554 S
Mg3 O2 2.075 . S
Mg3 O4 2.099 . S
Mg3 O6 2.079 1_545 S
Mg3 O7 2.072 . S
Mg3 O9 2.099 . S
Mg3 O20 2.079 1_544 S
O4 Mg1 2.180 1_554 S
O4 Mg3 2.099 . S
O4 C15 1.279 . S
O5 Mg1 2.117 . S
O5 C15 1.250 1_556 S
O6 Mg3 2.079 1_565 S
O6 C16 1.264 . S
O7 Mg3 2.072 . S
O7 C17 1.260 . S
Mg8 O9 2.180 . S
Mg8 O10 2.030 1_545 S
Mg8 O11 1.990 . S
Mg8 O12 2.117 . S
O9 Mg3 2.099 . S
O9 Mg8 2.180 . S
O9 C18 1.279 . S
O10 Mg8 2.030 1_565 S
O10 C16 1.248 . S
O11 Mg8 1.990 . S
O11 C17 1.253 . S
O12 Mg8 2.117 . S
O12 C18 1.250 . S
C13 O19 1.248 . S
C13 O20 1.264 . S
C14 O0 1.253 . S
C14 O2 1.257 1_556 S
C15 O4 1.279 . S
C15 O5 1.250 1_554 S
C16 O6 1.264 . S
C16 O10 1.248 . S
C17 O7 1.260 . S
C17 O11 1.253 . S
C18 O9 1.279 . S
C18 O12 1.250 . S
O19 Mg1 2.030 1_565 S
O19 C13 1.248 . S
O20 Mg3 2.079 1_566 S
O20 C13 1.264 . S
O21 Mg22 1.990 1_655 S
O21 C35 1.253 . S
Mg22 O21 1.990 1_455 S
Mg22 O25 2.180 . S
Mg22 O26 2.117 1_455 S
Mg22 O40 2.030 . S
O23 Mg24 2.072 1_655 S
O23 C35 1.260 . S
Mg24 O23 2.072 1_455 S
Mg24 O25 2.099 . S
Mg24 O27 2.079 . S
Mg24 O28 2.072 1_455 S
Mg24 O30 2.099 . S
Mg24 O41 2.079 . S
O25 Mg22 2.180 . S
O25 Mg24 2.099 . S
O25 C36 1.279 . S
O26 Mg22 2.117 1_655 S
O26 C36 1.250 1_655 S
O27 Mg24 2.079 . S
O27 C37 1.264 . S
O28 Mg24 2.072 1_655 S
O28 C38 1.260 . S
Mg29 O30 2.180 . S
Mg29 O31 2.030 . S
Mg29 O32 1.990 1_455 S
Mg29 O33 2.117 1_455 S
O30 Mg24 2.099 . S
O30 Mg29 2.180 . S
O30 C39 1.279 . S
O31 Mg29 2.030 . S
O31 C37 1.248 . S
O32 Mg29 1.990 1_655 S
O32 C38 1.253 . S
O33 Mg29 2.117 1_655 S
O33 C39 1.250 1_655 S
C34 O40 1.248 . S
C34 O41 1.264 . S
C35 O21 1.253 . S
C35 O23 1.260 . S
C36 O25 1.279 . S
C36 O26 1.250 1_455 S
C37 O27 1.264 . S
C37 O31 1.248 . S
C38 O28 1.260 . S
C38 O32 1.253 . S
C39 O30 1.279 . S
C39 O33 1.250 1_455 S
O40 Mg22 2.030 . S
O40 C34 1.248 . S
O41 Mg24 2.079 . S
O41 C34 1.264 . S
O42 Mg43 1.990 1_545 S
O42 C56 1.253 . S
Mg43 O42 1.990 1_565 S
Mg43 O46 2.180 . S
Mg43 O47 2.117 1_565 S
Mg43 O61 2.030 . S
O44 Mg45 2.072 1_546 S
O44 C56 1.260 . S
Mg45 O44 2.072 1_564 S
Mg45 O46 2.099 1_554 S
Mg45 O48 2.079 . S
Mg45 O49 2.072 1_565 S
Mg45 O51 2.099 . S
Mg45 O62 2.079 1_554 S
O46 Mg43 2.180 . S
O46 Mg45 2.099 1_556 S
O46 C57 1.279 1_565 S
O47 Mg43 2.117 1_545 S
O47 C57 1.250 . S
O48 Mg45 2.079 . S
O48 C58 1.264 . S
O49 Mg45 2.072 1_545 S
O49 C59 1.260 . S
Mg50 O51 2.181 1_545 S
Mg50 O52 2.020 1_545 S
Mg50 O53 2.003 . S
Mg50 O54 2.127 . S
O51 Mg45 2.099 . S
O51 Mg50 2.181 1_565 S
O51 C60 1.279 1_565 S
O52 Mg50 2.020 1_565 S
O52 C58 1.248 . S
O53 Mg50 2.003 . S
O53 C59 1.253 . S
O54 Mg50 2.127 . S
O54 C60 1.252 . S
C55 O61 1.248 . S
C55 O62 1.264 . S
C56 O42 1.253 . S
C56 O44 1.260 . S
C57 O46 1.279 1_545 S
C57 O47 1.250 . S
C58 O48 1.264 . S
C58 O52 1.248 . S
C59 O49 1.260 . S
C59 O53 1.253 . S
C60 O51 1.279 1_545 S
C60 O54 1.252 . S
O61 Mg43 2.030 . S
O61 C55 1.248 . S
O62 Mg45 2.079 1_556 S
O62 C55 1.264 . S
O63 Mg64 1.990 1_655 S
O63 C77 1.253 . S
Mg64 O63 1.990 1_455 S
Mg64 O67 2.180 . S
Mg64 O68 2.117 1_455 S
Mg64 O82 2.030 . S
O65 Mg66 2.072 1_655 S
O65 C77 1.260 . S
Mg66 O65 2.072 1_455 S
Mg66 O67 2.099 . S
Mg66 O69 2.079 . S
Mg66 O70 2.072 1_455 S
Mg66 O72 2.099 . S
Mg66 O83 2.079 . S
O67 Mg64 2.180 . S
O67 Mg66 2.099 . S
O67 C78 1.279 1_455 S
O68 Mg64 2.117 1_655 S
O68 C78 1.250 . S
O69 Mg66 2.079 . S
O69 C79 1.264 . S
O70 Mg66 2.072 1_655 S
O70 C80 1.260 . S
Mg71 O72 2.180 . S
Mg71 O73 2.030 . S
Mg71 O74 1.990 1_455 S
Mg71 O75 2.117 1_455 S
O72 Mg66 2.099 . S
O72 Mg71 2.180 . S
O72 C81 1.279 1_455 S
O73 Mg71 2.030 . S
O73 C79 1.248 . S
O74 Mg71 1.990 1_655 S
O74 C80 1.253 . S
O75 Mg71 2.117 1_655 S
O75 C81 1.250 . S
C76 O82 1.248 . S
C76 O83 1.264 . S
C77 O63 1.253 . S
C77 O65 1.260 . S
C78 O67 1.279 1_655 S
C78 O68 1.250 . S
C79 O69 1.264 . S
C79 O73 1.248 . S
C80 O70 1.260 . S
C80 O74 1.253 . S
C81 O72 1.279 1_655 S
C81 O75 1.250 . S
O82 Mg64 2.030 . S
O82 C76 1.248 . S
O83 Mg66 2.079 . S
O83 C76 1.264 . S
C84 C85 1.363 1_564 S
C84 C90 1.379 1_655 S
C84 N92 1.356 . S
C85 C84 1.363 1_546 S
C85 C91 1.363 1_655 S
C86 C87 1.363 . S
C86 C91 1.379 1_554 S
C86 N93 1.356 . S
C87 C86 1.363 . S
C87 C90 1.363 1_545 S
N88 C90 1.356 . S
N88 H100 0.984 . S
N88 H101 0.985 . S
N89 C91 1.356 1_655 S
N89 H94 0.984 . S
N89 H95 0.985 . S
C90 C84 1.379 1_455 S
C90 C87 1.363 1_565 S
C90 N88 1.356 . S
C91 C85 1.363 1_455 S
C91 C86 1.379 1_556 S
C91 N89 1.356 1_455 S
N92 C84 1.356 . S
N92 H98 0.984 . S
N92 H99 0.984 . S
N93 C86 1.356 . S
N93 H96 0.984 . S
N93 H97 0.985 1_554 S
H94 N89 0.984 . S
H95 N89 0.985 . S
H96 N93 0.984 . S
H97 N93 0.985 1_556 S
H98 N92 0.984 . S
H99 N92 0.984 . S
H100 N88 0.984 . S
H101 N88 0.985 . S
C102 C103 1.363 1_455 S
C102 C108 1.379 1_565 S
C102 N110 1.355 . S
C103 C102 1.363 1_655 S
C103 C109 1.363 . S
C104 C105 1.363 1_655 S
C104 C109 1.379 1_545 S
C104 N111 1.356 . S
C105 C104 1.363 1_455 S
C105 C108 1.363 . S
N106 C108 1.356 . S
N106 H118 0.984 . S
N106 H119 0.985 . S
N107 C109 1.356 . S
N107 H112 0.984 . S
N107 H113 0.985 . S
C108 C102 1.379 1_545 S
C108 C105 1.363 . S
C108 N106 1.356 . S
C109 C103 1.363 . S
C109 C104 1.379 1_565 S
C109 N107 1.356 . S
N110 C102 1.355 . S
N110 H116 0.987 . S
N110 H117 0.984 1_455 S
N111 C104 1.356 . S
N111 H114 0.984 1_655 S
N111 H115 0.985 . S
H112 N107 0.984 . S
H113 N107 0.985 . S
H114 N111 0.984 1_455 S
H115 N111 0.985 . S
H116 N110 0.987 . S
H117 N110 0.984 1_655 S
H118 N106 0.984 . S
H119 N106 0.985 . S
C120 C121 1.363 1_565 S
C120 C126 1.379 . S
C120 N128 1.356 1_554 S
C121 C120 1.363 1_545 S
C121 C127 1.363 . S
C122 C123 1.363 . S
C122 C127 1.379 . S
C122 N129 1.356 . S
C123 C122 1.363 . S
C123 C126 1.363 1_545 S
N124 C126 1.356 . S
N124 H136 0.981 1_554 S
N124 H137 0.985 . S
N125 C127 1.356 . S
N125 H130 0.984 . S
N125 H131 0.985 . S
C126 C120 1.379 . S
C126 C123 1.363 1_565 S
C126 N124 1.356 . S
C127 C121 1.363 . S
C127 C122 1.379 . S
C127 N125 1.356 . S
N128 C120 1.356 1_556 S
N128 H134 0.984 . S
N128 H135 0.984 . S
N129 C122 1.356 . S
N129 H132 0.984 . S
N129 H133 0.985 . S
H130 N125 0.984 . S
H131 N125 0.985 . S
H132 N129 0.984 . S
H133 N129 0.985 . S
H134 N128 0.984 . S
H135 N128 0.984 . S
H136 N124 0.981 1_556 S
H137 N124 0.985 . S
C138 C139 1.363 1_655 S
C138 C144 1.379 . S
C138 N146 1.356 . S
C139 C138 1.363 1_455 S
C139 C145 1.363 . S
C140 C141 1.363 1_455 S
C140 C145 1.379 . S
C140 N147 1.356 . S
C141 C140 1.363 1_655 S
C141 C144 1.363 . S
N142 C144 1.356 . S
N142 H154 0.984 . S
N142 H155 0.985 . S
N143 C145 1.356 . S
N143 H148 0.984 . S
N143 H149 0.985 . S
C144 C138 1.379 . S
C144 C141 1.363 . S
C144 N142 1.356 . S
C145 C139 1.363 . S
C145 C140 1.379 . S
C145 N143 1.356 . S
N146 C138 1.356 . S
N146 H152 0.984 . S
N146 H153 0.984 . S
N147 C140 1.356 . S
N147 H150 0.984 . S
N147 H151 0.985 . S
H148 N143 0.984 . S
H149 N143 0.985 . S
H150 N147 0.984 . S
H151 N147 0.985 . S
H152 N146 0.984 . S
H153 N146 0.984 . S
H154 N142 0.984 . S
H155 N142 0.985 . S
C156 C157 1.363 . S
C156 C162 1.379 . S
C156 N164 1.356 . S
C157 C156 1.363 . S
C157 C163 1.363 . S
C158 C159 1.363 . S
C158 C163 1.379 . S
C158 N165 1.356 . S
C159 C158 1.363 . S
C159 C162 1.363 . S
N160 C162 1.356 . S
N160 H172 0.984 . S
N160 H173 0.985 . S
N161 C163 1.356 . S
N161 H166 0.984 . S
N161 H167 0.985 . S
C162 C156 1.379 . S
C162 C159 1.363 . S
C162 N160 1.356 . S
C163 C157 1.363 . S
C163 C158 1.379 . S
C163 N161 1.356 . S
N164 C156 1.356 . S
N164 H170 0.984 . S
N164 H171 0.984 . S
N165 C158 1.356 . S
N165 H168 0.984 . S
N165 H169 0.985 . S
H166 N161 0.984 . S
H167 N161 0.985 . S
H168 N165 0.984 . S
H169 N165 0.985 . S
H170 N164 0.984 . S
H171 N164 0.984 . S
H172 N160 0.984 . S
H173 N160 0.985 . S
C174 C175 1.363 . S
C174 C180 1.379 . S
C174 N182 1.356 . S
C175 C174 1.363 . S
C175 C181 1.363 . S
C176 C177 1.363 . S
C176 C181 1.379 . S
C176 N183 1.356 . S
C177 C176 1.363 . S
C177 C180 1.363 . S
N178 C180 1.356 . S
N178 H190 0.984 . S
N178 H191 0.985 . S
N179 C181 1.356 . S
N179 H184 0.984 . S
N179 H185 0.985 . S
C180 C174 1.379 . S
C180 C177 1.363 . S
C180 N178 1.356 . S
C181 C175 1.363 . S
C181 C176 1.379 . S
C181 N179 1.356 . S
N182 C174 1.356 . S
N182 H188 0.984 . S
N182 H189 0.984 . S
N183 C176 1.356 . S
N183 H186 0.984 . S
N183 H187 0.985 . S
H184 N179 0.984 . S
H185 N179 0.985 . S
H186 N183 0.984 . S
H187 N183 0.985 . S
H188 N182 0.984 . S
H189 N182 0.984 . S
H190 N178 0.984 . S
H191 N178 0.985 . S
C192 C193 1.363 . S
C192 C198 1.379 . S
C192 N200 1.356 . S
C193 C192 1.363 . S
C193 C199 1.363 . S
C194 C195 1.363 . S
C194 C199 1.379 . S
C194 N201 1.356 . S
C195 C194 1.363 . S
C195 C198 1.363 . S
N196 C198 1.356 . S
N196 H208 0.986 1_565 S
N196 H209 0.985 . S
N197 C199 1.356 . S
N197 H202 0.984 . S
N197 H203 0.985 . S
C198 C192 1.379 . S
C198 C195 1.363 . S
C198 N196 1.356 . S
C199 C193 1.363 . S
C199 C194 1.379 . S
C199 N197 1.356 . S
N200 C192 1.356 . S
N200 H206 0.984 . S
N200 H207 0.984 . S
N201 C194 1.356 . S
N201 H204 0.984 . S
N201 H205 0.985 . S
H202 N197 0.984 . S
H203 N197 0.985 . S
H204 N201 0.984 . S
H205 N201 0.985 . S
H206 N200 0.984 . S
H207 N200 0.984 . S
H208 N196 0.986 1_545 S
H209 N196 0.985 . S
C210 C211 1.363 . S
C210 C216 1.379 . S
C210 N218 1.356 . S
C211 C210 1.363 . S
C211 C217 1.363 . S
C212 C213 1.363 . S
C212 C217 1.379 . S
C212 N219 1.356 . S
C213 C212 1.363 . S
C213 C216 1.363 . S
N214 C216 1.356 . S
N214 H226 0.984 . S
N214 H227 0.985 . S
N215 C217 1.356 . S
N215 H220 0.984 . S
N215 H221 0.985 . S
C216 C210 1.379 . S
C216 C213 1.363 . S
C216 N214 1.356 . S
C217 C211 1.363 . S
C217 C212 1.379 . S
C217 N215 1.356 . S
N218 C210 1.356 . S
N218 H224 0.984 . S
N218 H225 0.984 . S
N219 C212 1.356 . S
N219 H222 0.984 . S
N219 H223 0.985 . S
H220 N215 0.984 . S
H221 N215 0.985 . S
H222 N219 0.984 . S
H223 N219 0.985 . S
H224 N218 0.984 . S
H225 N218 0.984 . S
H226 N214 0.984 . S
H227 N214 0.985 . S
C228 C229 1.363 . S
C228 C234 1.379 . S
C228 N236 1.356 . S
C229 C228 1.363 . S
C229 C235 1.363 . S
C230 C231 1.363 . S
C230 C235 1.379 . S
C230 N237 1.356 . S
C231 C230 1.363 . S
C231 C234 1.363 . S
N232 C234 1.356 . S
N232 H244 0.984 . S
N232 H245 0.985 . S
N233 C235 1.356 . S
N233 H238 0.984 . S
N233 H239 0.985 . S
C234 C228 1.379 . S
C234 C231 1.363 . S
C234 N232 1.356 . S
C235 C229 1.363 . S
C235 C230 1.379 . S
C235 N233 1.356 . S
N236 C228 1.356 . S
N236 H242 0.984 . S
N236 H243 0.984 . S
N237 C230 1.356 . S
N237 H240 0.984 . S
N237 H241 0.985 . S
H238 N233 0.984 . S
H239 N233 0.985 . S
H240 N237 0.984 . S
H241 N237 0.985 . S
H242 N236 0.984 . S
H243 N236 0.984 . S
H244 N232 0.984 . S
H245 N232 0.985 . S
C246 C247 1.363 . S
C246 C252 1.379 . S
C246 N254 1.356 . S
C247 C246 1.363 . S
C247 C253 1.363 . S
C248 C249 1.363 . S
C248 C253 1.379 . S
C248 N255 1.356 . S
C249 C248 1.363 . S
C249 C252 1.363 . S
N250 C252 1.356 . S
N250 H262 0.984 . S
N250 H263 0.985 . S
N251 C253 1.356 . S
N251 H256 0.984 . S
N251 H257 0.985 . S
C252 C246 1.379 . S
C252 C249 1.363 . S
C252 N250 1.356 . S
C253 C247 1.363 . S
C253 C248 1.379 . S
C253 N251 1.356 . S
N254 C246 1.356 . S
N254 H260 0.984 1_565 S
N254 H261 0.984 . S
N255 C248 1.356 . S
N255 H258 0.984 . S
N255 H259 0.985 . S
H256 N251 0.984 . S
H257 N251 0.985 . S
H258 N255 0.984 . S
H259 N255 0.985 . S
H260 N254 0.984 1_545 S
H261 N254 0.984 . S
H262 N250 0.984 . S
H263 N250 0.985 . S
C264 C265 1.363 . S
C264 C270 1.379 . S
C264 N272 1.356 . S
C265 C264 1.363 . S
C265 C271 1.363 . S
C266 C267 1.363 . S
C266 C271 1.379 . S
C266 N273 1.356 . S
C267 C266 1.363 . S
C267 C270 1.363 . S
N268 C270 1.356 . S
N268 H280 0.984 1_556 S
N268 H281 0.985 1_556 S
N269 C271 1.356 . S
N269 H274 0.984 . S
N269 H275 0.985 . S
C270 C264 1.379 . S
C270 C267 1.363 . S
C270 N268 1.356 . S
C271 C265 1.363 . S
C271 C266 1.379 . S
C271 N269 1.356 . S
N272 C264 1.356 . S
N272 H278 0.984 . S
N272 H279 0.984 . S
N273 C266 1.356 . S
N273 H276 0.984 . S
N273 H277 0.985 . S
H274 N269 0.984 . S
H275 N269 0.985 . S
H276 N273 0.984 . S
H277 N273 0.985 . S
H278 N272 0.984 . S
H279 N272 0.984 . S
H280 N268 0.984 1_554 S
H281 N268 0.985 1_554 S
C282 C283 1.363 . S
C282 C288 1.379 . S
C282 N290 1.356 . S
C283 C282 1.363 . S
C283 C289 1.363 . S
C284 C285 1.363 . S
C284 C289 1.379 . S
C284 N291 1.356 . S
C285 C284 1.363 . S
C285 C288 1.363 . S
N286 C288 1.356 . S
N286 H298 0.984 . S
N286 H299 0.985 . S
N287 C289 1.356 . S
N287 H292 0.984 . S
N287 H293 0.985 . S
C288 C282 1.379 . S
C288 C285 1.363 . S
C288 N286 1.356 . S
C289 C283 1.363 . S
C289 C284 1.379 . S
C289 N287 1.356 . S
N290 C282 1.356 . S
N290 H296 0.984 . S
N290 H297 0.984 . S
N291 C284 1.356 . S
N291 H294 0.984 . S
N291 H295 0.985 . S
H292 N287 0.984 . S
H293 N287 0.985 . S
H294 N291 0.984 . S
H295 N291 0.985 . S
H296 N290 0.984 . S
H297 N290 0.984 . S
H298 N286 0.984 . S
H299 N286 0.985 . S
C85 C60 0.894 1_556 S
C87 C15 0.894 . S
C103 C81 0.894 . S
C105 C39 0.894 . S
C121 C57 0.982 1_554 S
C123 C18 0.982 . S
C139 C36 0.982 . S
C141 C78 0.982 . S
C157 C37 1.373 . S
C159 C17 1.554 . S
C175 C35 1.802 . S
C177 C56 1.801 . S
C193 C77 1.555 . S
C195 C58 1.374 . S
C211 C79 1.171 . S
C213 C13 1.171 . S
C229 C55 1.578 . S
C231 C80 1.401 . S
C247 C16 1.661 . S
C249 C76 1.661 . S
C265 C34 1.578 . S
C267 C14 1.401 . S
C283 C59 1.318 . S
C285 C38 1.318 . S
