# Generated by pormake.
# Topology wjy, (5)-cn, num edge types: 1
# Building blocks:
#     Node 0, Type 0, BuildingBlock: XOMCOT_clean_sbu_0, # of connection points: 5
#     Node 1, Type 0, BuildingBlock: XOMCOT_clean_sbu_0, # of connection points: 5
#     Node 2, Type 0, BuildingBlock: XOMCOT_clean_sbu_0, # of connection points: 5
#     Node 3, Type 0, BuildingBlock: XOMCOT_clean_sbu_0, # of connection points: 5
#     Node 4, Type 0, BuildingBlock: XOMCOT_clean_sbu_0, # of connection points: 5
#     Node 5, Type 0, BuildingBlock: XOMCOT_clean_sbu_0, # of connection points: 5
#     Node 6, Type 0, BuildingBlock: XOMCOT_clean_sbu_0, # of connection points: 5
#     Node 7, Type 0, BuildingBlock: XOMCOT_clean_sbu_0, # of connection points: 5
#     Node 8, Type 0, BuildingBlock: XOMCOT_clean_sbu_0, # of connection points: 5
#     Node 9, Type 0, BuildingBlock: XOMCOT_clean_sbu_0, # of connection points: 5
#     Node 10, Type 0, BuildingBlock: XOMCOT_clean_sbu_0, # of connection points: 5
#     Node 11, Type 0, BuildingBlock: XOMCOT_clean_sbu_0, # of connection points: 5
#     Edge 12, Type (0, 0), BuildingBlock: ZUJKAS_clean_linker_0, # of connection points: 2
#     Edge 13, Type (0, 0), BuildingBlock: ZUJKAS_clean_linker_0, # of connection points: 2
#     Edge 14, Type (0, 0), BuildingBlock: ZUJKAS_clean_linker_0, # of connection points: 2
#     Edge 15, Type (0, 0), BuildingBlock: ZUJKAS_clean_linker_0, # of connection points: 2
#     Edge 16, Type (0, 0), BuildingBlock: ZUJKAS_clean_linker_0, # of connection points: 2
#     Edge 17, Type (0, 0), BuildingBlock: ZUJKAS_clean_linker_0, # of connection points: 2
#     Edge 18, Type (0, 0), BuildingBlock: ZUJKAS_clean_linker_0, # of connection points: 2
#     Edge 19, Type (0, 0), BuildingBlock: ZUJKAS_clean_linker_0, # of connection points: 2
#     Edge 20, Type (0, 0), BuildingBlock: ZUJKAS_clean_linker_0, # of connection points: 2
#     Edge 21, Type (0, 0), BuildingBlock: ZUJKAS_clean_linker_0, # of connection points: 2
#     Edge 22, Type (0, 0), BuildingBlock: ZUJKAS_clean_linker_0, # of connection points: 2
#     Edge 23, Type (0, 0), BuildingBlock: ZUJKAS_clean_linker_0, # of connection points: 2
#     Edge 24, Type (0, 0), BuildingBlock: ZUJKAS_clean_linker_0, # of connection points: 2
#     Edge 25, Type (0, 0), BuildingBlock: ZUJKAS_clean_linker_0, # of connection points: 2
#     Edge 26, Type (0, 0), BuildingBlock: ZUJKAS_clean_linker_0, # of connection points: 2
#     Edge 27, Type (0, 0), BuildingBlock: ZUJKAS_clean_linker_0, # of connection points: 2
#     Edge 28, Type (0, 0), BuildingBlock: ZUJKAS_clean_linker_0, # of connection points: 2
#     Edge 29, Type (0, 0), BuildingBlock: ZUJKAS_clean_linker_0, # of connection points: 2
#     Edge 30, Type (0, 0), BuildingBlock: ZUJKAS_clean_linker_0, # of connection points: 2
#     Edge 31, Type (0, 0), BuildingBlock: ZUJKAS_clean_linker_0, # of connection points: 2
#     Edge 32, Type (0, 0), BuildingBlock: ZUJKAS_clean_linker_0, # of connection points: 2
#     Edge 33, Type (0, 0), BuildingBlock: ZUJKAS_clean_linker_0, # of connection points: 2
#     Edge 34, Type (0, 0), BuildingBlock: ZUJKAS_clean_linker_0, # of connection points: 2
#     Edge 35, Type (0, 0), BuildingBlock: ZUJKAS_clean_linker_0, # of connection points: 2
#     Edge 36, Type (0, 0), BuildingBlock: ZUJKAS_clean_linker_0, # of connection points: 2
#     Edge 37, Type (0, 0), BuildingBlock: ZUJKAS_clean_linker_0, # of connection points: 2
#     Edge 38, Type (0, 0), BuildingBlock: ZUJKAS_clean_linker_0, # of connection points: 2
#     Edge 39, Type (0, 0), BuildingBlock: ZUJKAS_clean_linker_0, # of connection points: 2
#     Edge 40, Type (0, 0), BuildingBlock: ZUJKAS_clean_linker_0, # of connection points: 2
#     Edge 41, Type (0, 0), BuildingBlock: ZUJKAS_clean_linker_0, # of connection points: 2
# Relax obj value: 0.081
# Max RMSD: 0.164
# Mean RMSD: 0.164
data_MOF--net-wjy--node1-XOMCOT_clean_sbu_0--edge1-ZUJKAS_clean_linker_0
_symmetry_space_group_name_H-M    P1
_symmetry_Int_Tables_number       1
_symmetry_cell_setting            triclinic
loop_
_symmetry_equiv_pos_as_xyz
'x, y, z'
_cell_length_a     95.971544
_cell_length_b     95.961699
_cell_length_c     22.119631
_cell_angle_alpha  90.033191
_cell_angle_beta   89.963664
_cell_angle_gamma 120.03539
loop_
_atom_site_label
_atom_site_type_symbol
_atom_site_fract_x
_atom_site_fract_y
_atom_site_fract_z
_atom_type_partial_charge
Co0 Co 0.45792 0.10471 0.11225 0.0
C1 C 0.46067 0.1049 0.97872 0.0
C2 C 0.47737 0.09955 0.02291 0.0
C3 C 0.47912 0.09893 0.96144 0.0
N4 N 0.46589 0.10336 0.03363 0.0
N5 N 0.46859 0.10223 0.93353 0.0
H6 H 0.45102 0.10748 0.97225 0.0
H7 H 0.48381 0.09708 0.05741 0.0
C8 C 0.4889 0.12646 0.17999 0.0
O9 O 0.48269 0.13455 0.20495 0.0
N10 N 0.4498 0.10562 0.19221 0.0
C11 C 0.43621 0.10591 0.20538 0.0
C12 C 0.43437 0.10564 0.267 0.0
C13 C 0.45553 0.1043 0.24655 0.0
N14 N 0.44658 0.10475 0.29302 0.0
C15 C 0.44681 0.12662 0.08245 0.0
C16 C 0.47671 0.15358 0.0665 0.0
C17 C 0.46305 0.15532 0.0663 0.0
C18 C 0.4479 0.14146 0.0722 0.0
C19 C 0.47502 0.13843 0.07678 0.0
N20 N 0.4603 0.12544 0.08963 0.0
H21 H 0.43505 0.11607 0.0846 0.0
H22 H 0.48561 0.13725 0.07455 0.0
H23 H 0.42764 0.10555 0.17314 0.0
H24 H 0.46604 0.10304 0.25205 0.0
O25 O 0.43614 0.09058 0.08461 0.0
O26 O 0.45192 0.08265 0.12727 0.0
O27 O 0.48062 0.11484 0.14372 0.0
C28 C 0.43816 0.07878 0.10252 0.0
H29 H 0.48755 0.09625 0.93921 0.0
H30 H 0.42447 0.10557 0.29074 0.0
H31 H 0.4886 0.16381 0.05887 0.0
H32 H 0.43694 0.14207 0.0706 0.0
Co33 Co 0.35239 0.45797 0.28715 0.0
C34 C 0.35481 0.46132 0.15165 0.0
C35 C 0.37698 0.47687 0.19704 0.0
C36 C 0.37966 0.47877 0.1358 0.0
N37 N 0.36132 0.46618 0.20731 0.0
N38 N 0.36572 0.46895 0.10715 0.0
H39 H 0.3427 0.45182 0.14328 0.0
H40 H 0.38598 0.48266 0.23192 0.0
C41 C 0.36695 0.49352 0.29593 0.0
O42 O 0.35926 0.49281 0.24582 0.0
N43 N 0.34396 0.44973 0.36658 0.0
C44 C 0.32942 0.43691 0.37852 0.0
C45 C 0.32745 0.43523 0.44018 0.0
C46 C 0.35073 0.45564 0.42095 0.0
N47 N 0.34083 0.44703 0.46687 0.0
C48 C 0.32189 0.44961 0.23287 0.0
C49 C 0.31594 0.46985 0.30339 0.0
C50 C 0.30449 0.46013 0.26033 0.0
C51 C 0.30751 0.44977 0.22522 0.0
C52 C 0.33007 0.46922 0.30978 0.0
N53 N 0.33334 0.45982 0.27263 0.0
H54 H 0.32342 0.44072 0.20869 0.0
H55 H 0.33807 0.47591 0.34636 0.0
H56 H 0.32077 0.42942 0.34465 0.0
H57 H 0.36248 0.46621 0.42672 0.0
O58 O 0.34458 0.43623 0.25854 0.0
O59 O 0.36871 0.45213 0.29803 0.0
O60 O 0.36494 0.48057 0.32046 0.0
C61 C 0.35861 0.43834 0.27388 0.0
H62 H 0.39107 0.48668 0.11425 0.0
H63 H 0.31699 0.42596 0.46351 0.0
H64 H 0.31375 0.47743 0.33361 0.0
H65 H 0.29876 0.44168 0.19269 0.0
Co66 Co 0.89287 0.35099 0.4538 0.0
C67 C 0.89167 0.35309 0.32043 0.0
C68 C 0.89515 0.37458 0.3642 0.0
C69 C 0.89539 0.37674 0.30266 0.0
N70 N 0.89275 0.35976 0.37527 0.0
N71 N 0.89329 0.36326 0.27498 0.0
H72 H 0.89027 0.34127 0.31416 0.0
H73 H 0.89698 0.38338 0.39841 0.0
C74 C 0.87159 0.35992 0.52589 0.0
O75 O 0.86334 0.34527 0.54798 0.0
N76 N 0.89347 0.34249 0.53352 0.0
C77 C 0.89489 0.32947 0.54571 0.0
C78 C 0.89557 0.32792 0.60722 0.0
C79 C 0.89429 0.34918 0.58834 0.0
N80 N 0.89507 0.34025 0.63415 0.0
C81 C 0.87024 0.31756 0.43279 0.0
C82 C 0.84354 0.32089 0.416 0.0
C83 C 0.84144 0.30536 0.42004 0.0
C84 C 0.85516 0.30384 0.42598 0.0
C85 C 0.85893 0.3343 0.4227 0.0
N86 N 0.87182 0.33247 0.43603 0.0
H87 H 0.88064 0.31612 0.435 0.0
H88 H 0.86037 0.34616 0.41839 0.0
H89 H 0.89614 0.32191 0.51271 0.0
H90 H 0.89444 0.36041 0.59482 0.0
O91 O 0.90653 0.34326 0.4217 0.0
O92 O 0.91509 0.36722 0.46347 0.0
O93 O 0.8832 0.36361 0.48916 0.0
C94 C 0.91857 0.35722 0.43713 0.0
H95 H 0.89709 0.38749 0.28024 0.0
H96 H 0.89684 0.31867 0.63023 0.0
H97 H 0.83338 0.32271 0.40953 0.0
H98 H 0.85427 0.29214 0.4255 0.0
Co99 Co 0.53641 0.89248 0.62422 0.0
C100 C 0.53266 0.89001 0.49103 0.0
C101 C 0.51628 0.89607 0.53372 0.0
C102 C 0.51466 0.89652 0.47208 0.0
N103 N 0.52755 0.89201 0.54548 0.0
N104 N 0.52497 0.89272 0.4454 0.0
H105 H 0.54233 0.88741 0.48497 0.0
H106 H 0.51014 0.89916 0.5676 0.0
C107 C 0.50548 0.87019 0.69133 0.0
O108 O 0.51153 0.86155 0.71249 0.0
N109 N 0.54552 0.89357 0.70436 0.0
C110 C 0.56098 0.89799 0.71695 0.0
C111 C 0.56324 0.89919 0.77849 0.0
C112 C 0.53883 0.89281 0.75908 0.0
N113 N 0.54928 0.89584 0.80485 0.0
C114 C 0.54763 0.86994 0.61272 0.0
C115 C 0.51827 0.84349 0.58358 0.0
C116 C 0.53148 0.84131 0.59424 0.0
C117 C 0.54643 0.85492 0.60672 0.0
C118 C 0.52007 0.85881 0.58963 0.0
N119 N 0.53436 0.87158 0.6082 0.0
H120 H 0.55929 0.88025 0.62085 0.0
H121 H 0.50981 0.86031 0.5811 0.0
H122 H 0.57035 0.90092 0.68398 0.0
H123 H 0.5269 0.89101 0.76578 0.0
O124 O 0.55777 0.90632 0.59194 0.0
O125 O 0.54204 0.91464 0.63253 0.0
O126 O 0.51397 0.8825 0.65826 0.0
C127 C 0.5556 0.91826 0.60644 0.0
H128 H 0.50676 0.89971 0.44861 0.0
H129 H 0.57436 0.90247 0.80202 0.0
H130 H 0.50655 0.83341 0.57249 0.0
H131 H 0.55716 0.854 0.61199 0.0
Co132 Co 0.64689 0.54335 0.79237 0.0
C133 C 0.64453 0.54017 0.65898 0.0
C134 C 0.62253 0.52322 0.70294 0.0
C135 C 0.62027 0.52138 0.64141 0.0
N136 N 0.63773 0.53492 0.71386 0.0
N137 N 0.63408 0.53209 0.61363 0.0
H138 H 0.65668 0.55002 0.65264 0.0
H139 H 0.61357 0.51672 0.73727 0.0
C140 C 0.63729 0.51261 0.86212 0.0
O141 O 0.65186 0.51855 0.88452 0.0
N142 N 0.65578 0.55199 0.87217 0.0
C143 C 0.66913 0.56615 0.88481 0.0
C144 C 0.67077 0.56815 0.94641 0.0
C145 C 0.64901 0.54609 0.92684 0.0
N146 N 0.65817 0.55548 0.97292 0.0
C147 C 0.68004 0.55366 0.76867 0.0
C148 C 0.67616 0.52347 0.74954 0.0
C149 C 0.69177 0.53677 0.75336 0.0
C150 C 0.69358 0.55209 0.76067 0.0
C151 C 0.66291 0.52564 0.75806 0.0
N152 N 0.66505 0.54045 0.77232 0.0
H153 H 0.68168 0.56557 0.77158 0.0
H154 H 0.65096 0.51533 0.75414 0.0
H155 H 0.67686 0.57498 0.85217 0.0
H156 H 0.63755 0.53523 0.933 0.0
O157 O 0.65495 0.56493 0.76165 0.0
O158 O 0.6311 0.5498 0.80485 0.0
O159 O 0.63394 0.52094 0.82625 0.0
C160 C 0.64122 0.56328 0.77873 0.0
H161 H 0.60923 0.51282 0.61907 0.0
H162 H 0.68026 0.57844 0.96979 0.0
H163 H 0.67419 0.51147 0.74189 0.0
H164 H 0.7054 0.56278 0.76033 0.0
Co165 Co 0.10307 0.64626 0.95658 0.0
C166 C 0.10411 0.64408 0.82319 0.0
C167 C 0.09995 0.62236 0.86689 0.0
C168 C 0.09956 0.62014 0.80534 0.0
N169 N 0.10287 0.63736 0.878 0.0
N170 N 0.10209 0.63377 0.77772 0.0
H171 H 0.10588 0.65605 0.81697 0.0
H172 H 0.09782 0.61347 0.9011 0.0
C173 C 0.12416 0.63711 0.029 0.0
O174 O 0.13227 0.65162 0.05243 0.0
N175 N 0.10281 0.65493 0.03628 0.0
C176 C 0.10235 0.66847 0.04864 0.0
C177 C 0.10172 0.67005 0.11017 0.0
C178 C 0.10152 0.64802 0.09097 0.0
N179 N 0.10134 0.65725 0.13692 0.0
C180 C 0.12542 0.67954 0.93139 0.0
C181 C 0.15239 0.67649 0.91849 0.0
C182 C 0.15428 0.69196 0.91955 0.0
C183 C 0.14042 0.6933 0.92353 0.0
C184 C 0.13709 0.66302 0.92609 0.0
N185 N 0.12404 0.66476 0.93758 0.0
H186 H 0.1149 0.68081 0.93205 0.0
H187 H 0.13583 0.65121 0.92351 0.0
H188 H 0.10179 0.67645 0.01578 0.0
H189 H 0.10073 0.63649 0.09718 0.0
O190 O 0.0892 0.65388 0.92546 0.0
O191 O 0.0809 0.63002 0.96755 0.0
O192 O 0.11281 0.63365 0.99125 0.0
C193 C 0.07726 0.63992 0.94141 0.0
H194 H 0.09746 0.60924 0.78287 0.0
H195 H 0.10115 0.67969 0.1333 0.0
H196 H 0.16265 0.67476 0.91352 0.0
H197 H 0.14113 0.70491 0.92068 0.0
Co198 Co 0.88971 0.53561 0.72594 0.0
C199 C 0.88857 0.53238 0.86127 0.0
C200 C 0.89432 0.51611 0.8166 0.0
C201 C 0.89518 0.5144 0.87789 0.0
N202 N 0.88978 0.5271 0.80584 0.0
N203 N 0.89161 0.52468 0.90608 0.0
H204 H 0.8866 0.54234 0.86915 0.0
H205 H 0.89733 0.51008 0.78205 0.0
C206 C 0.86881 0.50014 0.71435 0.0
O207 O 0.86136 0.50071 0.76338 0.0
N208 N 0.89021 0.54419 0.64657 0.0
C209 C 0.88879 0.55718 0.63463 0.0
C210 C 0.88876 0.559 0.57299 0.0
C211 C 0.89115 0.53831 0.59222 0.0
N212 N 0.8902 0.54712 0.54631 0.0
C213 C 0.86655 0.54298 0.77807 0.0
C214 C 0.84148 0.52331 0.70198 0.0
C215 C 0.83895 0.53235 0.74572 0.0
C216 C 0.85178 0.54245 0.78364 0.0
C217 C 0.85644 0.52432 0.69765 0.0
N218 N 0.86854 0.5334 0.73746 0.0
H219 H 0.87656 0.55167 0.80451 0.0
H220 H 0.85838 0.51813 0.66072 0.0
H221 H 0.88758 0.56464 0.66849 0.0
H222 H 0.89205 0.5276 0.5864 0.0
O223 O 0.90316 0.55725 0.75636 0.0
O224 O 0.91203 0.54173 0.71818 0.0
O225 O 0.88012 0.51315 0.6914 0.0
C226 C 0.91533 0.55537 0.7428 0.0
H227 H 0.89846 0.50637 0.89978 0.0
H228 H 0.88779 0.56838 0.54967 0.0
H229 H 0.83216 0.51597 0.66976 0.0
H230 H 0.85049 0.55004 0.81679 0.0
Co231 Co 0.35225 0.89051 0.89978 0.0
C232 C 0.35356 0.88848 0.033 0.0
C233 C 0.3751 0.89166 0.99058 0.0
C234 C 0.37677 0.89122 0.05221 0.0
N235 N 0.36053 0.88983 0.97864 0.0
N236 N 0.36325 0.88926 0.07888 0.0
H237 H 0.34171 0.88704 0.03872 0.0
H238 H 0.38407 0.89358 0.95698 0.0
C239 C 0.36146 0.86926 0.82854 0.0
O240 O 0.3469 0.86089 0.80583 0.0
N241 N 0.34427 0.89169 0.81976 0.0
C242 C 0.33191 0.89416 0.80712 0.0
C243 C 0.33086 0.89544 0.74565 0.0
C244 C 0.35105 0.89237 0.76532 0.0
N245 N 0.34287 0.89424 0.7192 0.0
C246 C 0.31863 0.86783 0.91604 0.0
C247 C 0.32181 0.84118 0.93693 0.0
C248 C 0.30633 0.83914 0.93215 0.0
C249 C 0.30486 0.85281 0.92331 0.0
C250 C 0.33528 0.85651 0.92985 0.0
N251 N 0.33356 0.86941 0.91521 0.0
H252 H 0.31721 0.8782 0.91171 0.0
H253 H 0.3471 0.85795 0.93557 0.0
H254 H 0.32449 0.89573 0.8399 0.0
H255 H 0.36212 0.89217 0.75947 0.0
O256 O 0.34441 0.90402 0.93244 0.0
O257 O 0.3686 0.91278 0.89247 0.0
O258 O 0.36499 0.88096 0.86462 0.0
C259 C 0.35846 0.91614 0.91846 0.0
H260 H 0.38736 0.89279 0.07563 0.0
H261 H 0.32194 0.89719 0.72245 0.0
H262 H 0.32349 0.83104 0.9463 0.0
H263 H 0.29317 0.8519 0.92082 0.0
Co264 Co 0.46094 0.35342 0.06202 0.0
C265 C 0.46484 0.35487 0.19717 0.0
C266 C 0.48109 0.37704 0.15324 0.0
C267 C 0.48317 0.37932 0.2146 0.0
N268 N 0.4699 0.36159 0.14189 0.0
N269 N 0.47293 0.36538 0.24227 0.0
H270 H 0.45505 0.34285 0.20488 0.0
H271 H 0.4869 0.38627 0.11915 0.0
C272 C 0.49637 0.36815 0.04676 0.0
O273 O 0.49619 0.35984 0.0943 0.0
N274 N 0.45192 0.34574 0.98274 0.0
C275 C 0.43874 0.33148 0.97067 0.0
C276 C 0.4365 0.33 0.9091 0.0
C277 C 0.45754 0.35279 0.92854 0.0
N278 N 0.44832 0.34339 0.88251 0.0
C279 C 0.45383 0.3226 0.11061 0.0
C280 C 0.47269 0.31742 0.02954 0.0
C281 C 0.4638 0.30553 0.07255 0.0
C282 C 0.45421 0.30824 0.11337 0.0
C283 C 0.47191 0.33153 0.02831 0.0
N284 N 0.46317 0.33438 0.07027 0.0
H285 H 0.44535 0.32382 0.13877 0.0
H286 H 0.478 0.33992 0.99202 0.0
H287 H 0.43148 0.32261 1.0043 0.0
H288 H 0.46815 0.36451 0.92301 0.0
O289 O 0.43947 0.3451 0.09449 0.0
O290 O 0.45484 0.36966 0.05747 0.0
O291 O 0.48318 0.36647 0.02593 0.0
C292 C 0.44131 0.35921 0.08239 0.0
H293 H 0.49105 0.3906 0.23711 0.0
H294 H 0.42715 0.31961 0.88577 0.0
H295 H 0.48007 0.3158 0.9964 0.0
H296 H 0.44656 0.29907 0.14554 0.0
Co297 Co 0.10597 0.4606 0.22968 0.0
C298 C 0.10673 0.46379 0.36516 0.0
C299 C 0.10015 0.47937 0.31993 0.0
C300 C 0.0992 0.48111 0.38118 0.0
N301 N 0.10521 0.46876 0.30957 0.0
N302 N 0.1033 0.47128 0.40973 0.0
H303 H 0.10932 0.45427 0.3734 0.0
H304 H 0.09694 0.48517 0.28511 0.0
C305 C 0.1266 0.49621 0.22051 0.0
O306 O 0.13374 0.49571 0.27048 0.0
N307 N 0.1062 0.4524 0.15019 0.0
C308 C 0.10804 0.43967 0.13799 0.0
C309 C 0.1083 0.43804 0.07629 0.0
C310 C 0.10524 0.4583 0.09595 0.0
N311 N 0.10658 0.44976 0.04985 0.0
C312 C 0.12824 0.45244 0.28342 0.0
C313 C 0.15432 0.47255 0.21218 0.0
C314 C 0.156 0.46262 0.25435 0.0
C315 C 0.1427 0.4524 0.29008 0.0
C316 C 0.13964 0.47213 0.20679 0.0
N317 N 0.12698 0.46269 0.244 0.0
H318 H 0.11786 0.44358 0.30784 0.0
H319 H 0.13831 0.47892 0.17064 0.0
H320 H 0.1093 0.43222 0.17171 0.0
H321 H 0.10396 0.46881 0.09038 0.0
O322 O 0.09231 0.43884 0.25832 0.0
O323 O 0.0837 0.45445 0.21916 0.0
O324 O 0.11575 0.48315 0.19626 0.0
C325 C 0.08024 0.44072 0.24327 0.0
H326 H 0.09556 0.48891 0.40279 0.0
H327 H 0.10958 0.42885 0.05277 0.0
H328 H 0.16405 0.48007 0.18165 0.0
H329 H 0.14333 0.44421 0.32213 0.0
Co330 Co 0.64345 0.10694 0.4018 0.0
C331 C 0.64186 0.10864 0.53528 0.0
C332 C 0.61982 0.10385 0.49241 0.0
C333 C 0.61793 0.10404 0.55398 0.0
N334 N 0.63484 0.10686 0.48076 0.0
N335 N 0.63176 0.10703 0.58096 0.0
H336 H 0.65403 0.11095 0.54125 0.0
H337 H 0.61071 0.10123 0.45856 0.0
C338 C 0.63384 0.12775 0.32955 0.0
O339 O 0.64785 0.13525 0.30206 0.0
N340 N 0.65179 0.10655 0.3217 0.0
C341 C 0.66539 0.10628 0.3085 0.0
C342 C 0.6664 0.10492 0.24706 0.0
C343 C 0.64436 0.10454 0.26772 0.0
N344 N 0.65321 0.10391 0.22125 0.0
C345 C 0.67677 0.12915 0.42665 0.0
C346 C 0.67405 0.15638 0.43701 0.0
C347 C 0.68943 0.15806 0.43714 0.0
C348 C 0.69063 0.14411 0.43405 0.0
C349 C 0.66049 0.14112 0.42991 0.0
N350 N 0.66207 0.12792 0.41986 0.0
H351 H 0.67793 0.11857 0.42655 0.0
H352 H 0.64876 0.14002 0.43246 0.0
H353 H 0.67383 0.1064 0.34077 0.0
H354 H 0.63254 0.10319 0.2626 0.0
O355 O 0.65115 0.09307 0.43218 0.0
O356 O 0.62713 0.08476 0.39154 0.0
O357 O 0.63078 0.11676 0.36846 0.0
C358 C 0.63713 0.08112 0.41683 0.0
H359 H 0.60699 0.10159 0.57714 0.0
H360 H 0.67617 0.10475 0.22334 0.0
H361 H 0.67251 0.16674 0.44245 0.0
H362 H 0.70221 0.14474 0.43578 0.0
Co363 Co 0.5389 0.64764 0.55599 0.0
C364 C 0.53583 0.64501 0.68938 0.0
C365 C 0.51917 0.62293 0.64523 0.0
C366 C 0.5175 0.62056 0.70676 0.0
N367 N 0.53059 0.63825 0.63442 0.0
N368 N 0.52802 0.63442 0.73467 0.0
H369 H 0.54552 0.65725 0.69581 0.0
H370 H 0.51278 0.61396 0.61081 0.0
C371 C 0.50839 0.63703 0.48344 0.0
O372 O 0.5142 0.65146 0.45985 0.0
N373 N 0.54742 0.65679 0.47644 0.0
C374 C 0.5606 0.67108 0.46395 0.0
C375 C 0.56277 0.6727 0.4024 0.0
C376 C 0.5423 0.64958 0.42187 0.0
N377 N 0.55117 0.65923 0.37577 0.0
C378 C 0.54823 0.68029 0.58525 0.0
C379 C 0.51757 0.67575 0.59671 0.0
C380 C 0.53076 0.69144 0.59904 0.0
C381 C 0.54627 0.69355 0.59535 0.0
C382 C 0.52012 0.6628 0.58717 0.0
N383 N 0.53525 0.66532 0.57659 0.0
H384 H 0.56024 0.68212 0.58464 0.0
H385 H 0.50987 0.65077 0.58818 0.0
H386 H 0.56863 0.67964 0.49669 0.0
H387 H 0.53223 0.63754 0.41592 0.0
O388 O 0.56054 0.65626 0.58683 0.0
O389 O 0.54603 0.63237 0.54334 0.0
O390 O 0.51662 0.63413 0.52151 0.0
C391 C 0.55933 0.64271 0.56987 0.0
H392 H 0.50919 0.6094 0.72902 0.0
H393 H 0.57243 0.68288 0.3792 0.0
H394 H 0.50541 0.67352 0.60236 0.0
H395 H 0.55685 0.7054 0.59868 0.0
H396 H 0.46433 0.28826 0.17041 0.0
H397 H 0.46516 0.26314 0.16987 0.0
H398 H 0.46457 0.26294 0.97498 0.0
H399 H 0.4635 0.28782 0.97497 0.0
H400 H 0.44289 0.23305 0.11653 0.0
H401 H 0.50409 0.25848 0.01817 0.0
H402 H 0.49681 0.2709 0.05079 0.0
H403 H 0.49073 0.26283 0.97594 0.0
C404 C 0.46428 0.28281 0.12746 0.0
C405 C 0.46402 0.29015 0.07274 0.0
C406 C 0.46483 0.26852 0.12724 0.0
C407 C 0.46523 0.26138 0.07237 0.0
C408 C 0.46467 0.26848 0.01777 0.0
H409 H 0.44397 0.16393 1.00263 0.0
H410 H 0.44483 0.18984 1.00463 0.0
C411 C 0.46408 0.28273 0.01791 0.0
C412 C 0.46584 0.24627 0.07198 0.0
H413 H 0.48845 0.22993 0.02462 0.0
C414 C 0.45287 0.23236 0.09672 0.0
C415 C 0.47897 0.24549 0.04663 0.0
C416 C 0.49353 0.26024 0.02183 0.0
C417 C 0.45251 0.21756 0.09551 0.0
C418 C 0.46537 0.21666 0.06825 0.0
C419 C 0.47853 0.23065 0.04484 0.0
C420 C 0.46542 0.20129 0.06425 0.0
C421 C 0.43843 0.20303 0.1239 0.0
C422 C 0.47706 0.19936 0.09541 0.0
C423 C 0.47659 0.18457 0.0945 0.0
C424 C 0.4645 0.17146 0.0621 0.0
C425 C 0.45324 0.17367 0.02899 0.0
C426 C 0.45371 0.18846 0.03004 0.0
H427 H 0.43156 0.20648 0.15497 0.0
H428 H 0.43014 0.1953 0.08777 0.0
H429 H 0.44255 0.19579 0.14944 0.0
H430 H 0.48624 0.20917 0.12186 0.0
H431 H 0.48535 0.18324 0.12096 0.0
H432 H 0.15968 0.43619 0.26193 0.0
H433 H 0.18482 0.43555 0.2631 0.0
H434 H 0.21188 0.4874 0.25508 0.0
H435 H 0.18675 0.48815 0.25362 0.0
H436 H 0.22229 0.47309 0.17267 0.0
H437 H 0.21677 0.44664 0.40058 0.0
H438 H 0.19972 0.43498 0.35264 0.0
H439 H 0.20434 0.45478 0.37621 0.0
C440 C 0.17098 0.44747 0.26147 0.0
C441 C 0.17124 0.46223 0.25806 0.0
C442 C 0.18534 0.44708 0.26214 0.0
C443 C 0.20021 0.46144 0.2601 0.0
C444 C 0.20052 0.47619 0.25688 0.0
H445 H 0.30028 0.48624 0.2592 0.0
H446 H 0.27486 0.48639 0.25664 0.0
C447 C 0.18617 0.47659 0.25592 0.0
C448 C 0.21545 0.46106 0.25886 0.0
H449 H 0.23775 0.44853 0.33781 0.0
C450 C 0.22572 0.46779 0.2089 0.0
C451 C 0.21986 0.4541 0.30615 0.0
C452 C 0.20968 0.44735 0.36221 0.0
C453 C 0.24019 0.46757 0.20458 0.0
C454 C 0.24456 0.46058 0.25175 0.0
C455 C 0.23429 0.45381 0.30161 0.0
C456 C 0.25992 0.46049 0.25091 0.0
C457 C 0.25059 0.47459 0.1492 0.0
C458 C 0.25989 0.44587 0.24914 0.0
C459 C 0.27439 0.44574 0.25078 0.0
C460 C 0.28914 0.46025 0.25489 0.0
C461 C 0.2891 0.47488 0.25634 0.0
C462 C 0.27461 0.47499 0.25439 0.0
H463 H 0.24384 0.47602 0.11124 0.0
H464 H 0.26089 0.48664 0.16043 0.0
H465 H 0.25551 0.46687 0.13395 0.0
H466 H 0.24864 0.43455 0.24688 0.0
H467 H 0.27402 0.43427 0.25048 0.0
H468 H 0.69521 0.18507 0.37507 0.0
H469 H 0.72038 0.21091 0.3704 0.0
H470 H 0.74204 0.19337 0.49764 0.0
H471 H 0.71695 0.16753 0.50267 0.0
H472 H 0.73887 0.23346 0.46009 0.0
H473 H 0.77252 0.20701 0.35197 0.0
H474 H 0.75084 0.19633 0.35745 0.0
H475 H 0.76286 0.19736 0.42149 0.0
C476 C 0.70526 0.18679 0.40273 0.0
C477 C 0.70414 0.1742 0.43881 0.0
C478 C 0.71965 0.20153 0.39976 0.0
C479 C 0.73315 0.20391 0.43268 0.0
C480 C 0.73187 0.19162 0.47071 0.0
H481 H 0.83071 0.27832 0.48886 0.0
H482 H 0.80408 0.25429 0.48883 0.0
C483 C 0.71753 0.17688 0.47357 0.0
C484 C 0.7487 0.21911 0.42651 0.0
H485 H 0.78803 0.234 0.38693 0.0
C486 C 0.74961 0.23363 0.44364 0.0
C487 C 0.76263 0.21928 0.40454 0.0
C488 C 0.76219 0.20419 0.38223 0.0
C489 C 0.76426 0.24827 0.44154 0.0
C490 C 0.77826 0.24833 0.42112 0.0
C491 C 0.77726 0.23387 0.4028 0.0
C492 C 0.79424 0.26313 0.4209 0.0
C493 C 0.7648 0.26346 0.46297 0.0
C494 C 0.79756 0.27603 0.38224 0.0
C495 C 0.81287 0.28978 0.38167 0.0
C496 C 0.82513 0.29081 0.41962 0.0
C497 C 0.82167 0.27783 0.45825 0.0
C498 C 0.80642 0.26412 0.45866 0.0
H499 H 0.75368 0.26089 0.48764 0.0
H500 H 0.77532 0.27043 0.49305 0.0
H501 H 0.76612 0.27112 0.42336 0.0
H502 H 0.78837 0.27536 0.352 0.0
H503 H 0.81518 0.29947 0.35087 0.0
H504 H 0.50934 0.69685 0.53688 0.0
H505 H 0.50772 0.72153 0.53539 0.0
H506 H 0.54539 0.74264 0.66913 0.0
H507 H 0.54714 0.71808 0.67061 0.0
H508 H 0.50192 0.73865 0.62442 0.0
H509 H 0.56344 0.77475 0.52975 0.0
H510 H 0.55294 0.75305 0.53228 0.0
H511 H 0.56281 0.76461 0.59872 0.0
C512 C 0.5171 0.70667 0.56663 0.0
C513 C 0.52849 0.70561 0.60338 0.0
C514 C 0.51621 0.72077 0.56552 0.0
C515 C 0.52669 0.73403 0.6011 0.0
C516 C 0.53749 0.7327 0.64012 0.0
H517 H 0.54563 0.82972 0.67057 0.0
H518 H 0.54345 0.80328 0.66941 0.0
C519 C 0.53845 0.71866 0.64101 0.0
C520 C 0.52667 0.74942 0.59631 0.0
H521 H 0.55091 0.78932 0.56431 0.0
C522 C 0.51258 0.74971 0.61081 0.0
C523 C 0.54056 0.76379 0.57795 0.0
C524 C 0.55575 0.76406 0.55818 0.0
C525 C 0.5122 0.76416 0.60957 0.0
C526 C 0.52623 0.77857 0.59298 0.0
C527 C 0.5402 0.77822 0.57731 0.0
C528 C 0.52695 0.79433 0.59394 0.0
C529 C 0.49699 0.76406 0.6277 0.0
C530 C 0.51842 0.79804 0.55156 0.0
C531 C 0.51979 0.81327 0.55154 0.0
C532 C 0.52974 0.82501 0.59388 0.0
C533 C 0.53811 0.8211 0.63655 0.0
C534 C 0.53679 0.80595 0.63633 0.0
H535 H 0.48799 0.75239 0.64807 0.0
H536 H 0.49975 0.77386 0.66056 0.0
H537 H 0.49154 0.76623 0.58717 0.0
H538 H 0.51094 0.78926 0.51794 0.0
H539 H 0.51332 0.81593 0.51766 0.0
H540 H 0.69796 0.51808 0.67618 0.0
H541 H 0.72203 0.51524 0.67417 0.0
H542 H 0.74195 0.54824 0.82392 0.0
H543 H 0.718 0.55103 0.82661 0.0
H544 H 0.75556 0.54191 0.66129 0.0
H545 H 0.74429 0.50734 0.87466 0.0
H546 H 0.72852 0.50834 0.83371 0.0
H547 H 0.74229 0.52495 0.87995 0.0
C548 C 0.70743 0.52461 0.70892 0.0
C549 C 0.70614 0.53481 0.75144 0.0
C550 C 0.72116 0.52303 0.70758 0.0
C551 C 0.73364 0.53142 0.7493 0.0
C552 C 0.73235 0.54154 0.79182 0.0
H553 H 0.83358 0.55768 0.75613 0.0
H554 H 0.8076 0.55677 0.75591 0.0
C555 C 0.71873 0.54322 0.7929 0.0
C556 C 0.74831 0.53007 0.74764 0.0
H557 H 0.77042 0.51824 0.83156 0.0
C558 C 0.75877 0.53662 0.6982 0.0
C559 C 0.75236 0.52307 0.79577 0.0
C560 C 0.74124 0.51539 0.84889 0.0
C561 C 0.77348 0.5368 0.69652 0.0
C562 C 0.7778 0.53035 0.74572 0.0
C563 C 0.76711 0.52333 0.79425 0.0
C564 C 0.79344 0.53086 0.74767 0.0
C565 C 0.78431 0.5439 0.64225 0.0
C566 C 0.79399 0.51655 0.74464 0.0
C567 C 0.80878 0.51703 0.74493 0.0
C568 C 0.82326 0.53182 0.74894 0.0
C569 C 0.82263 0.54611 0.75352 0.0
C570 C 0.80783 0.54562 0.7528 0.0
H571 H 0.7778 0.54519 0.60306 0.0
H572 H 0.79441 0.55602 0.65406 0.0
H573 H 0.7895 0.53631 0.6286 0.0
H574 H 0.78299 0.50504 0.74112 0.0
H575 H 0.80891 0.50582 0.74195 0.0
H576 H 0.27819 0.83021 0.99241 0.0
H577 H 0.25333 0.80415 0.98889 0.0
H578 H 0.27648 0.78544 0.87401 0.0
H579 H 0.30143 0.8115 0.87741 0.0
H580 H 0.23604 0.7895 0.88516 0.0
H581 H 0.25469 0.75008 1.0011 0.0
H582 H 0.26623 0.77176 1.00581 0.0
H583 H 0.26737 0.76162 0.93931 0.0
C584 C 0.27802 0.82052 0.96672 0.0
C585 C 0.29176 0.82292 0.93507 0.0
C586 C 0.26383 0.80563 0.96491 0.0
C587 C 0.2631 0.79283 0.93162 0.0
C588 C 0.27688 0.79505 0.90099 0.0
H589 H 0.18086 0.69732 0.85332 0.0
H590 H 0.20758 0.72156 0.85319 0.0
C591 C 0.29112 0.80995 0.90296 0.0
C592 C 0.24759 0.77754 0.92602 0.0
H593 H 0.22874 0.73725 0.95659 0.0
C594 C 0.23445 0.77808 0.90083 0.0
C595 C 0.24559 0.76264 0.946 0.0
C596 C 0.25916 0.76142 0.97505 0.0
C597 C 0.21932 0.76416 0.89545 0.0
C598 C 0.21723 0.74933 0.9165 0.0
C599 C 0.23043 0.74867 0.94047 0.0
C600 C 0.20121 0.73457 0.91686 0.0
C601 C 0.20568 0.7654 0.86712 0.0
C602 C 0.18892 0.73383 0.95337 0.0
C603 C 0.17374 0.72002 0.95392 0.0
C604 C 0.17051 0.70663 0.91794 0.0
C605 C 0.18295 0.70735 0.88186 0.0
C606 C 0.1982 0.7212 0.88152 0.0
H607 H 0.21015 0.77652 0.83963 0.0
H608 H 0.19822 0.75482 0.83791 0.0
H609 H 0.19785 0.76573 0.90336 0.0
H610 H 0.19112 0.74391 0.98187 0.0
H611 H 0.16459 0.71976 0.98336 0.0
H612 H 0.47589 0.08692 0.84645 0.0
H613 H 0.47273 0.08795 0.73761 0.0
H614 H 0.45181 0.11814 0.76416 0.0
H615 H 0.45556 0.11775 0.8734 0.0
H616 H 0.44563 0.078 0.67027 0.0
H617 H 0.48657 0.14364 0.64009 0.0
H618 H 0.48595 0.13328 0.70898 0.0
H619 H 0.47084 0.13871 0.69428 0.0
C620 C 0.47084 0.09401 0.82941 0.0
C621 C 0.46617 0.10243 0.86907 0.0
C622 C 0.46892 0.09446 0.76697 0.0
C623 C 0.4623 0.10335 0.74254 0.0
C624 C 0.45729 0.11149 0.78186 0.0
H625 H 0.43751 0.11795 0.38186 0.0
H626 H 0.44151 0.11717 0.49047 0.0
C627 C 0.45926 0.11109 0.84447 0.0
C628 C 0.46042 0.10379 0.67597 0.0
H629 H 0.47105 0.12917 0.55474 0.0
C630 C 0.45126 0.08918 0.64496 0.0
C631 C 0.46782 0.11838 0.64294 0.0
C632 C 0.47848 0.13439 0.67309 0.0
C633 C 0.44902 0.0888 0.58207 0.0
C634 C 0.4563 0.10339 0.5492 0.0
C635 C 0.4655 0.11799 0.5801 0.0
C636 C 0.45408 0.10382 0.48296 0.0
C637 C 0.43856 0.07282 0.55146 0.0
C638 C 0.46002 0.09673 0.44249 0.0
C639 C 0.4577 0.09711 0.38008 0.0
C640 C 0.44937 0.10455 0.35711 0.0
C641 C 0.44369 0.11184 0.39794 0.0
C642 C 0.44607 0.11152 0.46009 0.0
H643 H 0.43115 0.06318 0.58445 0.0
H644 H 0.43043 0.07374 0.51804 0.0
H645 H 0.44633 0.06919 0.52688 0.0
H646 H 0.46646 0.09093 0.45918 0.0
H647 H 0.46219 0.09136 0.35001 0.0
H648 H 0.36958 0.46105 0.52534 0.0
H649 H 0.37401 0.46482 0.63475 0.0
H650 H 0.32288 0.44338 0.66302 0.0
H651 H 0.31839 0.43954 0.55424 0.0
H652 H 0.36637 0.48175 0.71646 0.0
H653 H 0.33398 0.41685 0.77496 0.0
H654 H 0.33961 0.42395 0.69838 0.0
H655 H 0.32202 0.42287 0.73202 0.0
C656 C 0.3593 0.45721 0.55485 0.0
C657 C 0.34362 0.44981 0.53102 0.0
C658 C 0.36184 0.45931 0.61737 0.0
C659 C 0.34874 0.45405 0.6572 0.0
C660 C 0.33313 0.44709 0.63337 0.0
H661 H 0.33752 0.45775 0.04595 0.0
H662 H 0.33353 0.45428 0.93649 0.0
C663 C 0.33058 0.44492 0.57107 0.0
C664 C 0.35137 0.45602 0.72359 0.0
H665 H 0.34119 0.43525 0.85699 0.0
C666 C 0.36096 0.47158 0.74715 0.0
C667 C 0.34428 0.44273 0.76365 0.0
C668 C 0.33452 0.42565 0.74103 0.0
C669 C 0.36338 0.47423 0.80973 0.0
C670 C 0.35617 0.46096 0.8497 0.0
C671 C 0.34663 0.44541 0.82621 0.0
C672 C 0.35859 0.46295 0.91607 0.0
C673 C 0.37335 0.49125 0.8327 0.0
C674 C 0.37395 0.46869 0.94093 0.0
C675 C 0.37625 0.47056 1.00344 0.0
C676 C 0.36323 0.46669 0.04259 0.0
C677 C 0.3478 0.46072 0.01743 0.0
C678 C 0.3455 0.4588 0.95481 0.0
H679 H 0.37483 0.50024 0.79791 0.0
H680 H 0.36781 0.49316 0.87362 0.0
H681 H 0.3855 0.49348 0.84518 0.0
H682 H 0.38415 0.47162 0.91193 0.0
H683 H 0.38824 0.47486 0.02097 0.0
H684 H 0.88387 0.31762 0.72221 0.0
H685 H 0.88351 0.32184 0.83082 0.0
H686 H 0.90555 0.373 0.80163 0.0
H687 H 0.90587 0.36883 0.69248 0.0
H688 H 0.90823 0.33877 0.90858 0.0
H689 H 0.86749 0.36419 0.9071 0.0
H690 H 0.87016 0.35446 0.84189 0.0
H691 H 0.88491 0.37492 0.85989 0.0
C692 C 0.88873 0.32979 0.73876 0.0
C693 C 0.89492 0.34289 0.69843 0.0
C694 C 0.88844 0.33218 0.80097 0.0
C695 C 0.89429 0.34771 0.82448 0.0
C696 C 0.90061 0.36086 0.78451 0.0
H697 H 0.90696 0.38613 0.18755 0.0
H698 H 0.90701 0.38193 0.07893 0.0
C699 C 0.90082 0.35847 0.72206 0.0
C700 C 0.89408 0.35004 0.89094 0.0
H701 H 0.88 0.36496 1.00062 0.0
C702 C 0.90199 0.34443 0.9287 0.0
C703 C 0.88591 0.35741 0.91726 0.0
C704 C 0.8765 0.36296 0.87956 0.0
C705 C 0.90219 0.34621 0.99183 0.0
C706 C 0.8941 0.35364 0.01803 0.0
C707 C 0.8862 0.35927 0.98038 0.0
C708 C 0.89394 0.35596 0.08439 0.0
C709 C 0.91133 0.34044 0.02993 0.0
C710 C 0.88643 0.34272 0.1237 0.0
C711 C 0.88624 0.34507 0.18618 0.0
C712 C 0.89352 0.36072 0.21057 0.0
C713 C 0.901 0.37391 0.17073 0.0
C714 C 0.90113 0.37155 0.10843 0.0
H715 H 0.91977 0.3383 1.00239 0.0
H716 H 0.91827 0.3493 0.06592 0.0
H717 H 0.90268 0.32893 0.0521 0.0
H718 H 0.88055 0.33057 0.10599 0.0
H719 H 0.88017 0.33463 0.21515 0.0
H720 H 0.52212 0.87529 0.86482 0.0
H721 H 0.51771 0.87405 0.97431 0.0
H722 H 0.56522 0.91515 0.99832 0.0
H723 H 0.56985 0.91593 0.88927 0.0
H724 H 0.56037 0.89351 0.07889 0.0
H725 H 0.50685 0.90108 0.07785 0.0
H726 H 0.50369 0.88392 0.0347 0.0
H727 H 0.51866 0.90384 0.01085 0.0
C728 C 0.53152 0.88414 0.89359 0.0
C729 C 0.5463 0.89574 0.8687 0.0
C730 C 0.52898 0.88348 0.95611 0.0
C731 C 0.54102 0.89469 0.99474 0.0
C732 C 0.55574 0.90637 0.96964 0.0
H733 H 0.52552 0.9138 0.36366 0.0
H734 H 0.53003 0.91404 0.25485 0.0
C735 C 0.55838 0.90683 0.90735 0.0
C736 C 0.53856 0.89404 0.0614 0.0
H737 H 0.51331 0.8935 0.17141 0.0
C738 C 0.55011 0.89359 0.09911 0.0
C739 C 0.52528 0.89433 0.08802 0.0
C740 C 0.51302 0.89599 0.05078 0.0
C741 C 0.54881 0.89347 0.16242 0.0
C742 C 0.53523 0.89316 0.18896 0.0
C743 C 0.52365 0.89357 0.15123 0.0
C744 C 0.53304 0.89313 0.25565 0.0
C745 C 0.56229 0.89421 0.19997 0.0
C746 C 0.53324 0.88132 0.29272 0.0
C747 C 0.53096 0.88137 0.35528 0.0
C748 C 0.52798 0.89295 0.38156 0.0
C749 C 0.52763 0.90464 0.34443 0.0
C750 C 0.53022 0.90478 0.28226 0.0
H751 H 0.5737 0.89929 0.17386 0.0
H752 H 0.56447 0.90164 0.24117 0.0
H753 H 0.55905 0.88185 0.21406 0.0
H754 H 0.53492 0.87191 0.27327 0.0
H755 H 0.53107 0.87213 0.38295 0.0
H756 H 0.68074 0.56564 0.06092 0.0
H757 H 0.67633 0.56115 0.16952 0.0
H758 H 0.62504 0.53448 0.14008 0.0
H759 H 0.6294 0.53884 0.03093 0.0
H760 H 0.66063 0.57044 0.2467 0.0
H761 H 0.63135 0.50382 0.24651 0.0
H762 H 0.64157 0.51585 0.18106 0.0
H763 H 0.62148 0.5114 0.19908 0.0
C764 C 0.66851 0.55887 0.07745 0.0
C765 C 0.65542 0.55262 0.03709 0.0
C766 C 0.66601 0.55625 0.13963 0.0
C767 C 0.65037 0.54729 0.16306 0.0
C768 C 0.63724 0.54109 0.12302 0.0
H769 H 0.61144 0.52424 0.52613 0.0
H770 H 0.61581 0.52811 0.41744 0.0
C771 C 0.63974 0.54363 0.0606 0.0
C772 C 0.64792 0.54491 0.22952 0.0
H773 H 0.63138 0.51617 0.33969 0.0
C774 C 0.6543 0.55856 0.26702 0.0
C775 C 0.63968 0.52942 0.25611 0.0
C776 C 0.63326 0.51428 0.21873 0.0
C777 C 0.65245 0.55716 0.33014 0.0
C778 C 0.64414 0.54168 0.35661 0.0
C779 C 0.63774 0.52802 0.31924 0.0
C780 C 0.64171 0.5394 0.42296 0.0
C781 C 0.6591 0.57224 0.36797 0.0
C782 C 0.65484 0.54435 0.46231 0.0
C783 C 0.65239 0.54202 0.52481 0.0
C784 C 0.63674 0.53465 0.54919 0.0
C785 C 0.62364 0.52971 0.50932 0.0
C786 C 0.62611 0.532 0.44698 0.0
H787 H 0.662 0.583 0.34018 0.0
H788 H 0.65041 0.57096 0.40372 0.0
H789 H 0.67033 0.57434 0.39044 0.0
H790 H 0.66698 0.54985 0.44461 0.0
H791 H 0.66273 0.54577 0.55382 0.0
H792 H 0.11357 0.67985 0.22512 0.0
H793 H 0.11362 0.67547 0.33367 0.0
H794 H 0.08923 0.62418 0.30428 0.0
H795 H 0.08919 0.62849 0.19512 0.0
H796 H 0.08854 0.65943 0.41135 0.0
H797 H 0.12672 0.6311 0.40973 0.0
H798 H 0.12473 0.6413 0.34465 0.0
H799 H 0.10924 0.62111 0.36238 0.0
C800 C 0.10811 0.66761 0.24159 0.0
C801 C 0.10134 0.65452 0.20119 0.0
C802 C 0.10823 0.66514 0.30378 0.0
C803 C 0.10163 0.64951 0.32723 0.0
C804 C 0.09474 0.63637 0.2872 0.0
H805 H 0.08759 0.61096 0.69053 0.0
H806 H 0.08763 0.61519 0.58191 0.0
C807 C 0.09468 0.63885 0.22475 0.0
C808 C 0.10169 0.6471 0.39367 0.0
H809 H 0.1146 0.63111 0.50331 0.0
C810 C 0.0943 0.65329 0.43145 0.0
C811 C 0.10923 0.63912 0.41996 0.0
C812 C 0.11807 0.6329 0.38222 0.0
C813 C 0.09402 0.65151 0.49459 0.0
C814 C 0.1015 0.64348 0.52078 0.0
C815 C 0.10887 0.63726 0.4831 0.0
C816 C 0.10158 0.64115 0.58716 0.0
C817 C 0.08544 0.65793 0.53271 0.0
C818 C 0.10954 0.65435 0.62637 0.0
C819 C 0.10968 0.65199 0.68885 0.0
C820 C 0.10189 0.63634 0.71333 0.0
C821 C 0.09394 0.62317 0.67362 0.0
C822 C 0.09386 0.62555 0.61132 0.0
H823 H 0.07729 0.66049 0.50522 0.0
H824 H 0.07829 0.64926 0.56891 0.0
H825 H 0.09446 0.66932 0.55458 0.0
H826 H 0.11583 0.6665 0.60858 0.0
H827 H 0.1161 0.6624 0.71775 0.0
H828 H 0.87549 0.53683 0.96728 0.0
H829 H 0.87558 0.54093 0.07652 0.0
H830 H 0.908 0.52254 0.10068 0.0
H831 H 0.90821 0.51865 0.99177 0.0
H832 H 0.88073 0.50883 0.17935 0.0
H833 H 0.91266 0.5757 0.18004 0.0
H834 H 0.8956 0.56611 0.1303 0.0
H835 H 0.91301 0.56423 0.11588 0.0
C836 C 0.88282 0.53386 0.99564 0.0
C837 C 0.89184 0.5274 0.97044 0.0
C838 C 0.88284 0.5362 0.05812 0.0
C839 C 0.89191 0.53217 0.0966 0.0
C840 C 0.90091 0.52572 0.07175 0.0
H841 H 0.90462 0.53277 0.48808 0.0
H842 H 0.90505 0.52869 0.37889 0.0
C843 C 0.90093 0.52342 0.00937 0.0
C844 C 0.89175 0.53429 0.16297 0.0
H845 H 0.90189 0.56264 0.27335 0.0
C846 C 0.88541 0.52059 0.20004 0.0
C847 C 0.89784 0.54964 0.18967 0.0
C848 C 0.9053 0.5648 0.15212 0.0
C849 C 0.88469 0.5218 0.26314 0.0
C850 C 0.89081 0.53717 0.28994 0.0
C851 C 0.89721 0.55087 0.25277 0.0
C852 C 0.89044 0.53932 0.35632 0.0
C853 C 0.87699 0.50657 0.30033 0.0
C854 C 0.88237 0.54693 0.37988 0.0
C855 C 0.88221 0.54936 0.44208 0.0
C856 C 0.89016 0.54428 0.48221 0.0
C857 C 0.89821 0.53662 0.45854 0.0
C858 C 0.89843 0.53426 0.39613 0.0
H859 H 0.86916 0.49583 0.27233 0.0
H860 H 0.88655 0.50475 0.32047 0.0
H861 H 0.86967 0.50735 0.33766 0.0
H862 H 0.87612 0.55093 0.35007 0.0
H863 H 0.87571 0.55509 0.45875 0.0
H864 H 0.33386 0.90772 0.63056 0.0
H865 H 0.33718 0.90636 0.52184 0.0
H866 H 0.36282 0.88078 0.55242 0.0
H867 H 0.35894 0.88146 0.66142 0.0
H868 H 0.36403 0.91788 0.45181 0.0
H869 H 0.32834 0.85131 0.434 0.0
H870 H 0.32831 0.86199 0.5011 0.0
H871 H 0.34472 0.85845 0.48666 0.0
C872 C 0.34006 0.90164 0.6144 0.0
C873 C 0.34595 0.89452 0.65507 0.0
C874 C 0.34205 0.90099 0.55206 0.0
C875 C 0.34996 0.89318 0.52882 0.0
C876 C 0.35634 0.88653 0.56921 0.0
H877 H 0.37519 0.8787 0.16718 0.0
H878 H 0.37173 0.87979 0.27633 0.0
C879 C 0.3543 0.88713 0.63167 0.0
C880 C 0.35153 0.89212 0.46233 0.0
H881 H 0.34232 0.86551 0.34574 0.0
C882 C 0.35922 0.90643 0.4286 0.0
C883 C 0.34519 0.87716 0.432 0.0
C884 C 0.33604 0.86134 0.46513 0.0
C885 C 0.361 0.9062 0.3656 0.0
C886 C 0.35477 0.89125 0.33546 0.0
C887 C 0.34708 0.87694 0.36906 0.0
C888 C 0.3564 0.89024 0.26912 0.0
C889 C 0.36982 0.92195 0.33188 0.0
C890 C 0.34866 0.89547 0.22883 0.0
C891 C 0.35061 0.89485 0.16631 0.0
C892 C 0.36038 0.88903 0.14302 0.0
C893 C 0.3678 0.88348 0.18364 0.0
C894 C 0.36577 0.88401 0.24601 0.0
H895 H 0.37677 0.93227 0.36285 0.0
H896 H 0.3782 0.92159 0.29807 0.0
H897 H 0.36098 0.92407 0.30731 0.0
H898 H 0.34118 0.90012 0.24577 0.0
H899 H 0.34481 0.89931 0.13635 0.0
H900 H 0.4453 0.34448 0.30078 0.0
H901 H 0.44118 0.3411 0.41026 0.0
H902 H 0.4909 0.37699 0.43934 0.0
H903 H 0.49509 0.38044 0.33018 0.0
H904 H 0.45602 0.33208 0.4966 0.0
H905 H 0.46745 0.39372 0.54342 0.0
H906 H 0.46411 0.38546 0.46803 0.0
H907 H 0.4835 0.39332 0.50328 0.0
C908 C 0.45539 0.35157 0.33041 0.0
C909 C 0.47051 0.36283 0.30665 0.0
C910 C 0.45299 0.34968 0.39302 0.0
C911 C 0.46565 0.35903 0.43303 0.0
C912 C 0.48084 0.36997 0.40942 0.0
H913 H 0.4765 0.36316 0.82453 0.0
H914 H 0.4807 0.36708 0.71522 0.0
C915 C 0.48323 0.3719 0.34696 0.0
C916 C 0.46305 0.35718 0.49945 0.0
H917 H 0.46548 0.37779 0.62882 0.0
C918 C 0.458 0.34204 0.52546 0.0
C919 C 0.46566 0.37021 0.53711 0.0
C920 C 0.47033 0.38656 0.51158 0.0
C921 C 0.45576 0.33966 0.58818 0.0
C922 C 0.45845 0.35271 0.62579 0.0
C923 C 0.4635 0.36784 0.59987 0.0
C924 C 0.4558 0.35078 0.69208 0.0
C925 C 0.45082 0.32326 0.61387 0.0
C926 C 0.44035 0.34064 0.71531 0.0
C927 C 0.43788 0.33847 0.77766 0.0
C928 C 0.45082 0.34641 0.81829 0.0
C929 C 0.46624 0.35692 0.79481 0.0
C930 C 0.46869 0.35912 0.73229 0.0
H931 H 0.453 0.31572 0.58138 0.0
H932 H 0.45745 0.32433 0.65635 0.0
H933 H 0.43777 0.31695 0.62447 0.0
H934 H 0.43018 0.33438 0.68511 0.0
H935 H 0.42579 0.33058 0.79394 0.0
H936 H 0.12028 0.46015 0.47126 0.0
H937 H 0.12031 0.4562 0.58051 0.0
H938 H 0.08698 0.4735 0.60438 0.0
H939 H 0.08635 0.47687 0.49545 0.0
H940 H 0.12943 0.47872 0.67144 0.0
H941 H 0.06534 0.43181 0.69958 0.0
H942 H 0.07501 0.43736 0.62656 0.0
H943 H 0.06808 0.44962 0.66238 0.0
C944 C 0.11275 0.46287 0.49956 0.0
C945 C 0.10327 0.46879 0.4742 0.0
C946 C 0.11287 0.46071 0.56211 0.0
C947 C 0.10347 0.46433 0.60059 0.0
C948 C 0.09408 0.47032 0.57555 0.0
H949 H 0.09161 0.4636 0.99192 0.0
H950 H 0.0913 0.46789 0.88271 0.0
C951 C 0.09391 0.47244 0.5131 0.0
C952 C 0.10387 0.46235 0.66707 0.0
H953 H 0.08016 0.44349 0.7897 0.0
C954 C 0.11867 0.47095 0.69724 0.0
C955 C 0.08981 0.45224 0.70075 0.0
C956 C 0.07368 0.44211 0.67066 0.0
C957 C 0.11976 0.4699 0.76024 0.0
C958 C 0.10571 0.45984 0.79385 0.0
C959 C 0.0909 0.45127 0.7638 0.0
C960 C 0.10622 0.45764 0.86003 0.0
C961 C 0.13591 0.47976 0.79049 0.0
C962 C 0.11462 0.45037 0.88334 0.0
C963 C 0.11482 0.44792 0.94551 0.0
C964 C 0.10659 0.45265 0.98579 0.0
C965 C 0.09821 0.45998 0.96227 0.0
C966 C 0.09795 0.46236 0.89989 0.0
H967 H 0.14458 0.48973 0.76107 0.0
H968 H 0.13467 0.48492 0.83377 0.0
H969 H 0.14101 0.47189 0.80068 0.0
H970 H 0.1209 0.44645 0.85333 0.0
H971 H 0.12153 0.44241 0.96203 0.0
H972 H 0.65165 0.09897 0.63929 0.0
H973 H 0.65496 0.09814 0.7489 0.0
H974 H 0.62168 0.11531 0.77782 0.0
H975 H 0.61827 0.11609 0.66869 0.0
H976 H 0.66541 0.12189 0.83589 0.0
H977 H 0.60217 0.07497 0.88124 0.0
H978 H 0.61055 0.07951 0.80598 0.0
H979 H 0.604 0.09211 0.84156 0.0
C980 C 0.64514 0.10269 0.66899 0.0
C981 C 0.63456 0.10743 0.64523 0.0
C982 C 0.64698 0.10213 0.73163 0.0
C983 C 0.63827 0.10629 0.77164 0.0
C984 C 0.62815 0.11157 0.74795 0.0
H985 H 0.63474 0.11388 0.16333 0.0
H986 H 0.63087 0.11423 0.05391 0.0
C987 C 0.62624 0.11205 0.6855 0.0
C988 C 0.63988 0.10531 0.83813 0.0
H989 H 0.6184 0.08813 0.96708 0.0
C990 C 0.65515 0.11444 0.86452 0.0
C991 C 0.62647 0.09558 0.87552 0.0
C992 C 0.6099 0.08486 0.84966 0.0
C993 C 0.65733 0.11434 0.9273 0.0
C994 C 0.64391 0.1047 0.96464 0.0
C995 C 0.62865 0.09557 0.93836 0.0
C996 C 0.64557 0.10375 0.03101 0.0
C997 C 0.67393 0.12479 0.95336 0.0
C998 C 0.65472 0.09732 0.05443 0.0
C999 C 0.65685 0.09698 0.11679 0.0
C1000 C 0.64984 0.10305 0.15724 0.0
C1001 C 0.64021 0.109 0.13366 0.0
C1002 C 0.63807 0.1093 0.07111 0.0
H1003 H 0.68204 0.13426 0.92103 0.0
H1004 H 0.67335 0.13067 0.99581 0.0
H1005 H 0.6793 0.11719 0.96413 0.0
H1006 H 0.66031 0.09262 0.02436 0.0
H1007 H 0.66405 0.09199 0.13323 0.0
H1008 H 0.55997 0.68147 0.28673 0.0
H1009 H 0.55582 0.67666 0.17829 0.0
H1010 H 0.53243 0.62548 0.20919 0.0
H1011 H 0.53654 0.63022 0.31826 0.0
H1012 H 0.56673 0.66193 0.1014 0.0
H1013 H 0.49993 0.62916 0.10288 0.0
H1014 H 0.51174 0.64016 0.16768 0.0
H1015 H 0.50865 0.62047 0.15085 0.0
C1016 C 0.55404 0.66917 0.27067 0.0
C1017 C 0.54863 0.65623 0.31151 0.0
C1018 C 0.5516 0.66644 0.2085 0.0
C1019 C 0.54363 0.65071 0.18548 0.0
C1020 C 0.53829 0.63773 0.22592 0.0
H1021 H 0.52099 0.61176 0.82144 0.0
H1022 H 0.52504 0.616 0.93015 0.0
C1023 C 0.54068 0.64045 0.28834 0.0
C1024 C 0.54127 0.64805 0.11905 0.0
H1025 H 0.51255 0.63028 0.00937 0.0
C1026 C 0.55487 0.65505 0.08128 0.0
C1027 C 0.5258 0.63909 0.09273 0.0
C1028 C 0.51067 0.6319 0.13048 0.0
C1029 C 0.55346 0.65317 0.01814 0.0
C1030 C 0.538 0.64421 0.99189 0.0
C1031 C 0.52439 0.63715 0.02959 0.0
C1032 C 0.53568 0.64185 0.92543 0.0
C1033 C 0.56853 0.66051 0.9801 0.0
C1034 C 0.54019 0.65498 0.88644 0.0
C1035 C 0.53777 0.6526 0.82393 0.0
C1036 C 0.53072 0.63701 0.79912 0.0
C1037 C 0.52622 0.62391 0.83859 0.0
C1038 C 0.5286 0.62631 0.90095 0.0
H1039 H 0.57941 0.66368 1.00761 0.0
H1040 H 0.5676 0.65214 0.94358 0.0
H1041 H 0.57018 0.67169 0.95868 0.0
H1042 H 0.54541 0.66707 0.90444 0.0
H1043 H 0.54118 0.66294 0.79525 0.0
H1044 H 0.50741 0.11764 0.11575 0.0
H1045 H 0.53383 0.12173 0.14209 0.0
H1046 H 0.5349 0.14839 0.30066 0.0
H1047 H 0.50825 0.14441 0.2743 0.0
H1048 H 0.56563 0.16132 0.23065 0.0
H1049 H 0.53736 0.0965 0.28962 0.0
H1050 H 0.53227 0.10045 0.21592 0.0
H1051 H 0.5259 0.10664 0.28207 0.0
C1052 C 0.51324 0.12446 0.15611 0.0
C1053 C 0.50561 0.13048 0.19353 0.0
C1054 C 0.52838 0.12682 0.17094 0.0
C1055 C 0.53618 0.13515 0.22368 0.0
C1056 C 0.52901 0.14189 0.25977 0.0
H1057 H 0.60891 0.12268 0.40202 0.0
H1058 H 0.58642 0.12669 0.37802 0.0
C1059 C 0.51381 0.13959 0.24474 0.0
C1060 C 0.5512 0.13568 0.24282 0.0
H1061 H 0.5658 0.11125 0.28507 0.0
C1062 C 0.56572 0.15043 0.24297 0.0
C1063 C 0.55119 0.12144 0.25928 0.0
C1064 C 0.53584 0.10536 0.26232 0.0
C1065 C 0.58035 0.15123 0.25809 0.0
C1066 C 0.58037 0.13689 0.27272 0.0
C1067 C 0.56578 0.12223 0.27345 0.0
C1068 C 0.59521 0.13663 0.28916 0.0
C1069 C 0.59559 0.16739 0.25904 0.0
C1070 C 0.60783 0.14116 0.24749 0.0
C1071 C 0.62083 0.1389 0.26125 0.0
C1072 C 0.62123 0.13188 0.31649 0.0
C1073 C 0.60885 0.12789 0.35871 0.0
C1074 C 0.596 0.13025 0.34521 0.0
H1075 H 0.59302 0.17745 0.26115 0.0
H1076 H 0.60324 0.16832 0.29823 0.0
H1077 H 0.60254 0.16879 0.21714 0.0
H1078 H 0.60732 0.14583 0.2035 0.0
H1079 H 0.63017 0.14201 0.22777 0.0
H1080 H 0.38627 0.49951 0.39474 0.0
H1081 H 0.4086 0.52548 0.42737 0.0
H1082 H 0.39796 0.54923 0.28432 0.0
H1083 H 0.37552 0.52336 0.25156 0.0
H1084 H 0.43482 0.54493 0.35057 0.0
H1085 H 0.40464 0.57795 0.43316 0.0
H1086 H 0.39416 0.55631 0.42501 0.0
H1087 H 0.39857 0.56891 0.3596 0.0
C1088 C 0.38849 0.51028 0.37081 0.0
C1089 C 0.37915 0.50935 0.32036 0.0
C1090 C 0.40126 0.5251 0.38952 0.0
C1091 C 0.40485 0.53927 0.35851 0.0
C1092 C 0.39522 0.53847 0.30948 0.0
H1093 H 0.48865 0.63658 0.39229 0.0
H1094 H 0.46305 0.61345 0.35902 0.0
C1095 C 0.38245 0.52365 0.29066 0.0
C1096 C 0.41954 0.55458 0.3741 0.0
H1097 H 0.43314 0.59265 0.42756 0.0
C1098 C 0.43445 0.55536 0.36745 0.0
C1099 C 0.419 0.56821 0.39528 0.0
C1100 C 0.40325 0.56786 0.40421 0.0
C1101 C 0.44886 0.56936 0.38199 0.0
C1102 C 0.44832 0.58285 0.40477 0.0
C1103 C 0.43346 0.58226 0.41008 0.0
C1104 C 0.46305 0.59722 0.42687 0.0
C1105 C 0.46457 0.56962 0.37285 0.0
C1106 C 0.47121 0.59579 0.4768 0.0
C1107 C 0.48573 0.60885 0.4957 0.0
C1108 C 0.49239 0.6237 0.46527 0.0
C1109 C 0.48387 0.6253 0.41655 0.0
C1110 C 0.46927 0.61213 0.39753 0.0
H1111 H 0.46328 0.56017 0.34057 0.0
H1112 H 0.47405 0.58152 0.35584 0.0
H1113 H 0.46866 0.56735 0.41678 0.0
H1114 H 0.46645 0.58445 0.50062 0.0
H1115 H 0.49183 0.6072 0.53378 0.0
H1116 H 0.88634 0.39104 0.48731 0.0
H1117 H 0.88115 0.41229 0.51906 0.0
H1118 H 0.84329 0.37904 0.6371 0.0
H1119 H 0.84851 0.35752 0.60583 0.0
H1120 H 0.85256 0.4139 0.51199 0.0
H1121 H 0.87328 0.41666 0.74916 0.0
H1122 H 0.87754 0.40634 0.6901 0.0
H1123 H 0.85778 0.39734 0.72266 0.0
C1124 C 0.87686 0.38814 0.51991 0.0
C1125 C 0.86788 0.37255 0.54424 0.0
C1126 C 0.87389 0.40034 0.53789 0.0
C1127 C 0.86195 0.39727 0.58077 0.0
C1128 C 0.85272 0.38168 0.6045 0.0
H1129 H 0.84653 0.47027 0.75521 0.0
H1130 H 0.84228 0.44427 0.72023 0.0
C1131 C 0.85568 0.3694 0.58644 0.0
C1132 C 0.8596 0.41067 0.60096 0.0
H1133 H 0.86552 0.43538 0.721 0.0
C1134 C 0.85522 0.41851 0.55785 0.0
C1135 C 0.86308 0.41663 0.6608 0.0
C1136 C 0.8683 0.40893 0.70845 0.0
C1137 C 0.85455 0.43239 0.57268 0.0
C1138 C 0.85863 0.4387 0.6319 0.0
C1139 C 0.86242 0.43051 0.67559 0.0
C1140 C 0.86001 0.45428 0.64879 0.0
C1141 C 0.84959 0.44022 0.52473 0.0
C1142 C 0.87132 0.46853 0.61989 0.0
C1143 C 0.87378 0.48343 0.6397 0.0
C1144 C 0.86506 0.48435 0.68916 0.0
C1145 C 0.85345 0.47001 0.71699 0.0
C1146 C 0.851 0.45512 0.69713 0.0
H1147 H 0.84227 0.43151 0.48885 0.0
H1148 H 0.84257 0.44543 0.5445 0.0
H1149 H 0.86053 0.45008 0.50312 0.0
H1150 H 0.87865 0.46819 0.5833 0.0
H1151 H 0.88286 0.49424 0.6174 0.0
H1152 H 0.35844 0.84337 0.76372 0.0
H1153 H 0.37968 0.8369 0.74173 0.0
H1154 H 0.41409 0.87975 0.83638 0.0
H1155 H 0.39316 0.88614 0.85906 0.0
H1156 H 0.40758 0.85409 0.67842 0.0
H1157 H 0.42221 0.84619 0.91242 0.0
H1158 H 0.40401 0.84639 0.8934 0.0
H1159 H 0.42265 0.86499 0.90448 0.0
C1160 C 0.37053 0.85135 0.78007 0.0
C1161 C 0.37406 0.8652 0.81361 0.0
C1162 C 0.38262 0.84761 0.76764 0.0
C1163 C 0.39837 0.85762 0.78884 0.0
C1164 C 0.40192 0.87156 0.8213 0.0
H1165 H 0.49045 0.88681 0.66 0.0
H1166 H 0.46298 0.88009 0.68162 0.0
C1167 C 0.38992 0.87527 0.83382 0.0
C1168 C 0.41151 0.85428 0.77437 0.0
H1169 H 0.44368 0.85397 0.8387 0.0
C1170 C 0.41527 0.8537 0.71347 0.0
C1171 C 0.42136 0.85337 0.82002 0.0
C1172 C 0.41723 0.85258 0.88622 0.0
C1173 C 0.42934 0.85358 0.69706 0.0
C1174 C 0.44006 0.85442 0.74276 0.0
C1175 C 0.43562 0.85363 0.80362 0.0
C1176 C 0.4566 0.85789 0.7285 0.0
C1177 C 0.43279 0.853 0.63084 0.0
C1178 C 0.46241 0.84794 0.74959 0.0
C1179 C 0.47833 0.85186 0.73783 0.0
C1180 C 0.48868 0.86587 0.70514 0.0
C1181 C 0.48281 0.87585 0.68481 0.0
C1182 C 0.46701 0.87195 0.69665 0.0
H1183 H 0.42146 0.84661 0.60438 0.0
H1184 H 0.43974 0.86547 0.61308 0.0
H1185 H 0.43991 0.84692 0.6234 0.0
H1186 H 0.45463 0.83714 0.77501 0.0
H1187 H 0.48249 0.84394 0.75422 0.0
H1188 H 0.50135 0.38841 0.9519 0.0
H1189 H 0.5269 0.41131 0.9191 0.0
H1190 H 0.55209 0.39968 0.05314 0.0
H1191 H 0.52664 0.37666 0.08596 0.0
H1192 H 0.54663 0.43682 0.99735 0.0
H1193 H 0.57986 0.40838 0.90036 0.0
H1194 H 0.5583 0.39747 0.91113 0.0
H1195 H 0.5715 0.40155 0.97444 0.0
C1196 C 0.51234 0.39054 0.97375 0.0
C1197 C 0.51194 0.38074 0.02175 0.0
C1198 C 0.52693 0.40363 0.95495 0.0
C1199 C 0.54139 0.40711 0.98341 0.0
C1200 C 0.54111 0.39705 0.02988 0.0
H1201 H 0.63781 0.49235 0.94912 0.0
H1202 H 0.61518 0.46628 0.98145 0.0
C1203 C 0.52652 0.38393 0.04876 0.0
C1204 C 0.55646 0.4221 0.96817 0.0
H1205 H 0.59428 0.43681 0.91018 0.0
C1206 C 0.55704 0.43681 0.97824 0.0
C1207 C 0.57009 0.42204 0.94405 0.0
C1208 C 0.56996 0.40653 0.93134 0.0
C1209 C 0.57081 0.45148 0.96429 0.0
C1210 C 0.58428 0.45143 0.93864 0.0
C1211 C 0.58391 0.43676 0.92988 0.0
C1212 C 0.59834 0.46649 0.917 0.0
C1213 C 0.57084 0.46695 0.97706 0.0
C1214 C 0.59641 0.47495 0.86926 0.0
C1215 C 0.60918 0.48973 0.85092 0.0
C1216 C 0.62425 0.49637 0.8797 0.0
C1217 C 0.62636 0.48759 0.92617 0.0
C1218 C 0.61347 0.47271 0.94464 0.0
H1219 H 0.56153 0.46519 0.0109 0.0
H1220 H 0.58278 0.4764 0.99384 0.0
H1221 H 0.5682 0.47136 0.93464 0.0
H1222 H 0.58489 0.4702 0.84674 0.0
H1223 H 0.60713 0.49603 0.81457 0.0
H1224 H 0.14662 0.52621 0.26687 0.0
H1225 H 0.14903 0.5517 0.23431 0.0
H1226 H 0.11626 0.52732 0.08726 0.0
H1227 H 0.11362 0.50176 0.11962 0.0
H1228 H 0.15779 0.56894 0.12065 0.0
H1229 H 0.09453 0.5477 0.18776 0.0
H1230 H 0.10529 0.5377 0.21156 0.0
H1231 H 0.09691 0.53446 0.13677 0.0
C1232 C 0.14007 0.52628 0.22713 0.0
C1233 C 0.12976 0.5119 0.19628 0.0
C1234 C 0.14148 0.54087 0.20862 0.0
C1235 C 0.1326 0.5413 0.15912 0.0
C1236 C 0.12299 0.52715 0.12627 0.0
H1237 H 0.1116 0.60713 0.98049 0.0
H1238 H 0.11543 0.58516 0.01414 0.0
C1239 C 0.12155 0.51257 0.14472 0.0
C1240 C 0.13262 0.55632 0.14372 0.0
H1241 H 0.10785 0.57215 0.13261 0.0
C1242 C 0.14693 0.56973 0.12361 0.0
C1243 C 0.11845 0.55733 0.14841 0.0
C1244 C 0.10295 0.5436 0.17283 0.0
C1245 C 0.14726 0.58394 0.10551 0.0
C1246 C 0.13295 0.58472 0.10844 0.0
C1247 C 0.11878 0.57146 0.13017 0.0
C1248 C 0.132 0.59875 0.08591 0.0
C1249 C 0.1627 0.59779 0.08144 0.0
C1250 C 0.14019 0.61377 0.11489 0.0
C1251 C 0.13803 0.62648 0.09564 0.0
C1252 C 0.12756 0.62428 0.04742 0.0
C1253 C 0.11969 0.60928 0.01792 0.0
C1254 C 0.12187 0.59667 0.03703 0.0
H1255 H 0.17191 0.59427 0.07245 0.0
H1256 H 0.16041 0.60251 0.03902 0.0
H1257 H 0.16767 0.6077 0.11509 0.0
H1258 H 0.14788 0.61553 0.15334 0.0
H1259 H 0.14421 0.63786 0.11945 0.0
H1260 H 0.40916 0.06704 0.04511 0.0
H1261 H 0.39029 0.03897 0.01813 0.0
H1262 H 0.42104 0.02429 0.10564 0.0
H1263 H 0.43973 0.05215 0.1335 0.0
H1264 H 0.39713 0.02038 0.94547 0.0
H1265 H 0.37718 0.991 0.16837 0.0
H1266 H 0.38706 0.01258 0.15905 0.0
H1267 H 0.39871 0.00262 0.1637 0.0
C1268 C 0.41173 0.05778 0.05955 0.0
C1269 C 0.42592 0.06179 0.09144 0.0
C1270 C 0.40095 0.04176 0.04407 0.0
C1271 C 0.40414 0.0295 0.06063 0.0
C1272 C 0.41812 0.03347 0.09368 0.0
H1273 H 0.38676 0.94336 0.89317 0.0
H1274 H 0.39526 0.97081 0.92492 0.0
C1275 C 0.42887 0.04944 0.10918 0.0
C1276 C 0.39379 0.01281 0.03864 0.0
H1277 H 0.3748 0.97363 0.08488 0.0
C1278 C 0.39198 0.01016 0.97599 0.0
C1279 C 0.38684 -0.00052 0.07842 0.0
C1280 C 0.38739 0.00156 0.14613 0.0
C1281 C 0.3843 0.99452 0.95202 0.0
C1282 C 0.37855 0.98123 0.99175 0.0
C1283 C 0.37942 0.98385 0.05442 0.0
C1284 C 0.3728 0.96468 0.96937 0.0
C1285 C 0.38268 0.99241 0.88432 0.0
C1286 C 0.35742 0.95204 0.98465 0.0
C1287 C 0.35255 0.93626 0.96682 0.0
C1288 C 0.36305 0.93287 0.9339 0.0
C1289 C 0.37836 0.94558 0.91819 0.0
C1290 C 0.3832 0.96131 0.93596 0.0
H1291 H 0.38263 0.00278 0.86222 0.0
H1292 H 0.39311 0.99172 0.86633 0.0
H1293 H 0.37149 0.98119 0.87171 0.0
H1294 H 0.34927 0.95438 0.01087 0.0
H1295 H 0.3407 0.92669 0.9798 0.0
H1296 H 0.41309 0.34108 0.14426 0.0
H1297 H 0.39376 0.34929 0.1763 0.0
H1298 H 0.42278 0.39544 0.09078 0.0
H1299 H 0.44195 0.38732 0.05818 0.0
H1300 H 0.39992 0.37477 0.2509 0.0
H1301 H 0.37792 0.38234 0.02944 0.0
H1302 H 0.38852 0.37134 0.03822 0.0
H1303 H 0.39949 0.39296 0.03264 0.0
C1304 C 0.41521 0.35289 0.13159 0.0
C1305 C 0.42901 0.36354 0.09856 0.0
C1306 C 0.40418 0.35755 0.14996 0.0
C1307 C 0.4067 0.37287 0.13505 0.0
C1308 C 0.42038 0.38342 0.10153 0.0
H1309 H 0.387 0.43991 0.30143 0.0
H1310 H 0.3959 0.42112 0.27198 0.0
C1311 C 0.4314 0.3788 0.0833 0.0
C1312 C 0.39581 0.37845 0.15802 0.0
H1313 H 0.37513 0.397 0.11302 0.0
C1314 C 0.39423 0.37935 0.22078 0.0
C1315 C 0.38814 0.38415 0.11875 0.0
C1316 C 0.38845 0.38249 0.05101 0.0
C1317 C 0.3861 0.3868 0.24527 0.0
C1318 C 0.37965 0.39375 0.20592 0.0
C1319 C 0.38027 0.39186 0.14322 0.0
C1320 C 0.37351 0.40423 0.2284 0.0
C1321 C 0.38479 0.38742 0.31306 0.0
C1322 C 0.35801 0.40111 0.21304 0.0
C1323 C 0.35291 0.41194 0.22949 0.0
C1324 C 0.3633 0.42613 0.2611 0.0
C1325 C 0.37868 0.42905 0.27737 0.0
C1326 C 0.38375 0.41824 0.26096 0.0
H1327 H 0.38515 0.37721 0.33513 0.0
H1328 H 0.39514 0.39874 0.33028 0.0
H1329 H 0.3735 0.38714 0.32651 0.0
H1330 H 0.34997 0.39044 0.18746 0.0
H1331 H 0.34101 0.40939 0.21614 0.0
H1332 H 0.0695 0.41161 0.29866 0.0
H1333 H 0.04178 0.39219 0.328 0.0
H1334 H 0.02555 0.42269 0.24914 0.0
H1335 H 0.05307 0.44197 0.21897 0.0
H1336 H 0.02313 0.39795 0.40525 0.0
H1337 H 0.9928 0.37886 0.1836 0.0
H1338 H 0.01443 0.38913 0.19135 0.0
H1339 H 0.004 0.40037 0.1903 0.0
C1340 C 0.05997 0.41404 0.2867 0.0
C1341 C 0.06344 0.4283 0.25643 0.0
C1342 C 0.04416 0.40294 0.30353 0.0
C1343 C 0.03157 0.40588 0.28995 0.0
C1344 C 0.035 0.41998 0.25877 0.0
H1345 H 0.94562 0.38531 0.46584 0.0
H1346 H 0.97312 0.3944 0.43317 0.0
C1347 C 0.05077 0.43105 0.24193 0.0
C1348 C 0.01507 0.39503 0.31277 0.0
H1349 H 0.97568 0.37533 0.26929 0.0
C1350 C 0.01276 0.39274 0.37545 0.0
C1351 C 0.00157 0.38799 0.27388 0.0
C1352 C 0.00332 0.38907 0.206 0.0
C1353 C 0.99726 0.38449 0.40047 0.0
C1354 C 0.98374 0.37865 0.36182 0.0
C1355 C 0.98605 0.38001 0.29896 0.0
C1356 C 0.96724 0.37239 0.38563 0.0
C1357 C 0.9955 0.38239 0.46815 0.0
C1358 C 0.95473 0.35706 0.36914 0.0
C1359 C 0.93891 0.35185 0.3875 0.0
C1360 C 0.93537 0.36198 0.42215 0.0
C1361 C 0.94797 0.3772 0.43943 0.0
C1362 C 0.96373 0.38237 0.42114 0.0
H1363 H 0.00611 0.38245 0.48855 0.0
H1364 H 0.99466 0.39256 0.48808 0.0
H1365 H 0.98449 0.37098 0.48056 0.0
H1366 H 0.95717 0.34924 0.3413 0.0
H1367 H 0.92943 0.34008 0.37329 0.0
H1368 H 0.5533 0.94495 0.62801 0.0
H1369 H 0.57172 0.97248 0.59538 0.0
H1370 H 0.60333 0.95738 0.51824 0.0
H1371 H 0.58472 0.9296 0.54993 0.0
H1372 H 0.60401 0.99354 0.62035 0.0
H1373 H 0.59388 0.97852 0.37532 0.0
H1374 H 0.58127 0.96472 0.4332 0.0
H1375 H 0.60093 0.9675 0.41903 0.0
C1376 C 0.56421 0.94747 0.60442 0.0
C1377 C 0.5675 0.93509 0.59108 0.0
C1378 C 0.57474 0.96322 0.58591 0.0
C1379 C 0.58877 0.96692 0.55366 0.0
C1380 C 0.59242 0.95471 0.54213 0.0
H1381 H 0.65483 0.06976 0.47362 0.0
H1382 H 0.64565 0.04193 0.50445 0.0
C1383 C 0.58183 0.93888 0.56053 0.0
C1384 C 0.59911 0.9835 0.53067 0.0
H1385 H 0.61059 0.00573 0.40085 0.0
C1386 C 0.60566 0.99623 0.57238 0.0
C1387 C 0.6011 0.98693 0.46802 0.0
C1388 C 0.59385 0.97375 0.4211 0.0
C1389 C 0.61364 0.01234 0.55319 0.0
C1390 C 0.61536 0.01576 0.49053 0.0
C1391 C 0.60933 0.00303 0.44882 0.0
C1392 C 0.6217 0.03235 0.46745 0.0
C1393 C 0.61937 0.02551 0.60008 0.0
C1394 C 0.61149 0.03605 0.43446 0.0
C1395 C 0.61672 0.05184 0.41643 0.0
C1396 C 0.63229 0.06425 0.431 0.0
C1397 C 0.64274 0.06045 0.46205 0.0
C1398 C 0.63749 0.04459 0.47998 0.0
H1399 H 0.61441 0.02073 0.64566 0.0
H1400 H 0.63269 0.03175 0.60297 0.0
H1401 H 0.61589 0.03454 0.58737 0.0
H1402 H 0.59927 0.02678 0.4242 0.0
H1403 H 0.6084 0.05436 0.3924 0.0
H1404 H 0.56421 0.61994 0.51678 0.0
H1405 H 0.5817 0.60994 0.55247 0.0
H1406 H 0.599 0.64511 0.69602 0.0
H1407 H 0.58196 0.6556 0.65896 0.0
H1408 H 0.62286 0.64036 0.652 0.0
H1409 H 0.56832 0.58185 0.70105 0.0
H1410 H 0.5697 0.58733 0.62289 0.0
H1411 H 0.56733 0.59945 0.67967 0.0
C1412 C 0.57195 0.62571 0.55531 0.0
C1413 C 0.57162 0.63841 0.58556 0.0
C1414 C 0.58186 0.61994 0.57587 0.0
C1415 C 0.59128 0.62647 0.62795 0.0
C1416 C 0.59172 0.63981 0.65602 0.0
H1417 H 0.61921 0.56822 0.83742 0.0
H1418 H 0.609 0.58591 0.80677 0.0
C1419 C 0.582 0.6458 0.63479 0.0
C1420 C 0.59974 0.61867 0.65535 0.0
H1421 H 0.59334 0.5826 0.70855 0.0
C1422 C 0.61643 0.62776 0.66474 0.0
C1423 C 0.59126 0.60233 0.67338 0.0
C1424 C 0.57315 0.59222 0.66938 0.0
C1425 C 0.62494 0.6208 0.69025 0.0
C1426 C 0.61656 0.60423 0.70519 0.0
C1427 C 0.59982 0.59528 0.69681 0.0
C1428 C 0.62469 0.59565 0.72893 0.0
C1429 C 0.64273 0.63136 0.70185 0.0
C1430 C 0.63721 0.59554 0.69641 0.0
C1431 C 0.6433 0.58567 0.71474 0.0
C1432 C 0.63666 0.57546 0.7649 0.0
C1433 C 0.62449 0.57594 0.79844 0.0
C1434 C 0.61866 0.58604 0.78091 0.0
H1435 H 0.64606 0.64417 0.70741 0.0
H1436 H 0.64653 0.62748 0.7429 0.0
H1437 H 0.64953 0.63063 0.66256 0.0
H1438 H 0.64178 0.60247 0.65527 0.0
H1439 H 0.65256 0.58537 0.68771 0.0
H1440 H 0.05056 0.61127 0.96727 0.0
H1441 H 0.02306 0.60168 0.93334 0.0
H1442 H 0.03807 0.6475 0.84834 0.0
H1443 H 0.06583 0.65714 0.88128 0.0
H1444 H 0.00157 0.61259 0.95188 0.0
H1445 H 0.01789 0.61551 0.7088 0.0
H1446 H 0.03151 0.61753 0.76877 0.0
H1447 H 0.02844 0.63403 0.75042 0.0
C1448 C 0.04802 0.61939 0.94178 0.0
C1449 C 0.06039 0.63491 0.92645 0.0
C1450 C 0.03228 0.61389 0.92253 0.0
C1451 C 0.02857 0.62378 0.88753 0.0
C1452 C 0.04074 0.63956 0.87435 0.0
H1453 H 0.92597 0.58469 0.79686 0.0
H1454 H 0.9535 0.60383 0.82941 0.0
C1455 C 0.05656 0.64508 0.89351 0.0
C1456 C 0.01207 0.6171 0.86301 0.0
H1457 H 0.99053 0.6048 0.73173 0.0
C1458 C -0.00088 0.61107 0.90373 0.0
C1459 C 0.00897 0.61503 0.80014 0.0
C1460 C 0.02239 0.62074 0.75432 0.0
C1461 C 0.98313 0.60248 0.88345 0.0
C1462 C 0.98003 0.60016 0.82063 0.0
C1463 C 0.99297 0.60671 0.77982 0.0
C1464 C 0.9636 0.5895 0.79676 0.0
C1465 C 0.96974 0.59523 0.92954 0.0
C1466 C 0.96029 0.57542 0.76565 0.0
C1467 C 0.94467 0.56458 0.74659 0.0
C1468 C 0.93203 0.56761 0.75825 0.0
C1469 C 0.93545 0.58199 0.78754 0.0
C1470 C 0.95114 0.59289 0.80646 0.0
H1471 H 0.97433 0.59551 0.97588 0.0
H1472 H 0.96332 0.60215 0.93004 0.0
H1473 H 0.9609 0.58256 0.91777 0.0
H1474 H 0.96974 0.5726 0.75757 0.0
H1475 H 0.94245 0.55364 0.72402 0.0
loop_
_geom_bond_atom_site_label_1
_geom_bond_atom_site_label_2
_geom_bond_distance
_geom_bond_site_symmetry_2
_ccdc_geom_bond_type
Co0 N4 2.148 . S
Co0 N10 2.128 . S
Co0 N20 2.194 . S
Co0 O25 2.351 . S
Co0 O26 2.155 . S
Co0 O27 2.096 . S
C1 N4 1.301 1_556 S
C1 N5 1.328 . S
C1 H6 0.930 . S
C2 C3 1.333 1_554 S
C2 N4 1.317 . S
C2 H7 0.930 . S
C3 C2 1.333 1_556 S
C3 N5 1.350 . S
C3 H29 0.931 . S
N4 Co0 2.148 . S
N4 C1 1.301 1_554 S
N4 C2 1.317 . S
N5 C1 1.328 . S
N5 C3 1.350 . S
H6 C1 0.930 . S
H7 C2 0.930 . S
C8 O9 1.224 . S
C8 O27 1.247 . S
O9 C8 1.224 . S
N10 Co0 2.128 . S
N10 C11 1.355 . S
N10 C13 1.311 . S
C11 N10 1.355 . S
C11 C12 1.363 . S
C11 H23 0.929 . S
C12 C11 1.363 . S
C12 N14 1.375 . S
C12 H30 0.931 . S
C13 N10 1.311 . S
C13 N14 1.347 . S
C13 H24 0.929 . S
N14 C12 1.375 . S
N14 C13 1.347 . S
C15 C18 1.365 . S
C15 N20 1.328 . S
C15 H21 0.929 . S
C16 C17 1.362 . S
C16 C19 1.378 . S
C16 H31 0.929 . S
C17 C16 1.362 . S
C17 C18 1.366 . S
C18 C15 1.365 . S
C18 C17 1.366 . S
C18 H32 0.930 . S
C19 C16 1.378 . S
C19 N20 1.315 . S
C19 H22 0.930 . S
N20 Co0 2.194 . S
N20 C15 1.328 . S
N20 C19 1.315 . S
H21 C15 0.929 . S
H22 C19 0.930 . S
H23 C11 0.929 . S
H24 C13 0.929 . S
O25 Co0 2.351 . S
O25 C28 1.244 . S
O26 Co0 2.155 . S
O26 C28 1.240 . S
O27 Co0 2.096 . S
O27 C8 1.247 . S
C28 O25 1.244 . S
C28 O26 1.240 . S
H29 C3 0.931 . S
H30 C12 0.931 . S
H31 C16 0.929 . S
H32 C18 0.930 . S
Co33 N37 2.148 . S
Co33 N43 2.128 . S
Co33 N53 2.194 . S
Co33 O58 2.351 . S
Co33 O59 2.155 . S
Co33 O60 2.096 . S
C34 N37 1.301 . S
C34 N38 1.328 . S
C34 H39 0.930 . S
C35 C36 1.333 . S
C35 N37 1.317 . S
C35 H40 0.930 . S
C36 C35 1.333 . S
C36 N38 1.350 . S
C36 H62 0.931 . S
N37 Co33 2.148 . S
N37 C34 1.301 . S
N37 C35 1.317 . S
N38 C34 1.328 . S
N38 C36 1.350 . S
H39 C34 0.930 . S
H40 C35 0.930 . S
C41 O42 1.224 . S
C41 O60 1.247 . S
O42 C41 1.224 . S
N43 Co33 2.128 . S
N43 C44 1.355 . S
N43 C46 1.311 . S
C44 N43 1.355 . S
C44 C45 1.363 . S
C44 H56 0.929 . S
C45 C44 1.363 . S
C45 N47 1.375 . S
C45 H63 0.931 . S
C46 N43 1.311 . S
C46 N47 1.347 . S
C46 H57 0.929 . S
N47 C45 1.375 . S
N47 C46 1.347 . S
C48 C51 1.365 . S
C48 N53 1.328 . S
C48 H54 0.929 . S
C49 C50 1.362 . S
C49 C52 1.378 . S
C49 H64 0.929 . S
C50 C49 1.362 . S
C50 C51 1.366 . S
C51 C48 1.365 . S
C51 C50 1.366 . S
C51 H65 0.930 . S
C52 C49 1.378 . S
C52 N53 1.315 . S
C52 H55 0.930 . S
N53 Co33 2.194 . S
N53 C48 1.328 . S
N53 C52 1.315 . S
H54 C48 0.929 . S
H55 C52 0.930 . S
H56 C44 0.929 . S
H57 C46 0.929 . S
O58 Co33 2.351 . S
O58 C61 1.244 . S
O59 Co33 2.155 . S
O59 C61 1.240 . S
O60 Co33 2.096 . S
O60 C41 1.247 . S
C61 O58 1.244 . S
C61 O59 1.240 . S
H62 C36 0.931 . S
H63 C45 0.931 . S
H64 C49 0.929 . S
H65 C51 0.930 . S
Co66 N70 2.148 . S
Co66 N76 2.128 . S
Co66 N86 2.194 . S
Co66 O91 2.351 . S
Co66 O92 2.155 . S
Co66 O93 2.096 . S
C67 N70 1.301 . S
C67 N71 1.328 . S
C67 H72 0.930 . S
C68 C69 1.333 . S
C68 N70 1.317 . S
C68 H73 0.930 . S
C69 C68 1.333 . S
C69 N71 1.350 . S
C69 H95 0.931 . S
N70 Co66 2.148 . S
N70 C67 1.301 . S
N70 C68 1.317 . S
N71 C67 1.328 . S
N71 C69 1.350 . S
H72 C67 0.930 . S
H73 C68 0.930 . S
C74 O75 1.224 . S
C74 O93 1.247 . S
O75 C74 1.224 . S
N76 Co66 2.128 . S
N76 C77 1.355 . S
N76 C79 1.311 . S
C77 N76 1.355 . S
C77 C78 1.363 . S
C77 H89 0.929 . S
C78 C77 1.363 . S
C78 N80 1.375 . S
C78 H96 0.931 . S
C79 N76 1.311 . S
C79 N80 1.347 . S
C79 H90 0.929 . S
N80 C78 1.375 . S
N80 C79 1.347 . S
C81 C84 1.365 . S
C81 N86 1.328 . S
C81 H87 0.929 . S
C82 C83 1.362 . S
C82 C85 1.378 . S
C82 H97 0.929 . S
C83 C82 1.362 . S
C83 C84 1.366 . S
C84 C81 1.365 . S
C84 C83 1.366 . S
C84 H98 0.930 . S
C85 C82 1.378 . S
C85 N86 1.315 . S
C85 H88 0.930 . S
N86 Co66 2.194 . S
N86 C81 1.328 . S
N86 C85 1.315 . S
H87 C81 0.929 . S
H88 C85 0.930 . S
H89 C77 0.929 . S
H90 C79 0.929 . S
O91 Co66 2.351 . S
O91 C94 1.244 . S
O92 Co66 2.155 . S
O92 C94 1.240 . S
O93 Co66 2.096 . S
O93 C74 1.247 . S
C94 O91 1.244 . S
C94 O92 1.240 . S
H95 C69 0.931 . S
H96 C78 0.931 . S
H97 C82 0.929 . S
H98 C84 0.930 . S
Co99 N103 2.148 . S
Co99 N109 2.128 . S
Co99 N119 2.194 . S
Co99 O124 2.351 . S
Co99 O125 2.155 . S
Co99 O126 2.096 . S
C100 N103 1.301 . S
C100 N104 1.328 . S
C100 H105 0.930 . S
C101 C102 1.333 . S
C101 N103 1.317 . S
C101 H106 0.930 . S
C102 C101 1.333 . S
C102 N104 1.350 . S
C102 H128 0.931 . S
N103 Co99 2.148 . S
N103 C100 1.301 . S
N103 C101 1.317 . S
N104 C100 1.328 . S
N104 C102 1.350 . S
H105 C100 0.930 . S
H106 C101 0.930 . S
C107 O108 1.224 . S
C107 O126 1.247 . S
O108 C107 1.224 . S
N109 Co99 2.128 . S
N109 C110 1.355 . S
N109 C112 1.311 . S
C110 N109 1.355 . S
C110 C111 1.363 . S
C110 H122 0.929 . S
C111 C110 1.363 . S
C111 N113 1.375 . S
C111 H129 0.931 . S
C112 N109 1.311 . S
C112 N113 1.347 . S
C112 H123 0.929 . S
N113 C111 1.375 . S
N113 C112 1.347 . S
C114 C117 1.365 . S
C114 N119 1.328 . S
C114 H120 0.929 . S
C115 C116 1.362 . S
C115 C118 1.378 . S
C115 H130 0.929 . S
C116 C115 1.362 . S
C116 C117 1.366 . S
C117 C114 1.365 . S
C117 C116 1.366 . S
C117 H131 0.930 . S
C118 C115 1.378 . S
C118 N119 1.315 . S
C118 H121 0.930 . S
N119 Co99 2.194 . S
N119 C114 1.328 . S
N119 C118 1.315 . S
H120 C114 0.929 . S
H121 C118 0.930 . S
H122 C110 0.929 . S
H123 C112 0.929 . S
O124 Co99 2.351 . S
O124 C127 1.244 . S
O125 Co99 2.155 . S
O125 C127 1.240 . S
O126 Co99 2.096 . S
O126 C107 1.247 . S
C127 O124 1.244 . S
C127 O125 1.240 . S
H128 C102 0.931 . S
H129 C111 0.931 . S
H130 C115 0.929 . S
H131 C117 0.930 . S
Co132 N136 2.148 . S
Co132 N142 2.128 . S
Co132 N152 2.194 . S
Co132 O157 2.351 . S
Co132 O158 2.155 . S
Co132 O159 2.096 . S
C133 N136 1.301 . S
C133 N137 1.328 . S
C133 H138 0.930 . S
C134 C135 1.333 . S
C134 N136 1.317 . S
C134 H139 0.930 . S
C135 C134 1.333 . S
C135 N137 1.350 . S
C135 H161 0.931 . S
N136 Co132 2.148 . S
N136 C133 1.301 . S
N136 C134 1.317 . S
N137 C133 1.328 . S
N137 C135 1.350 . S
H138 C133 0.930 . S
H139 C134 0.930 . S
C140 O141 1.224 . S
C140 O159 1.247 . S
O141 C140 1.224 . S
N142 Co132 2.128 . S
N142 C143 1.355 . S
N142 C145 1.311 . S
C143 N142 1.355 . S
C143 C144 1.363 . S
C143 H155 0.929 . S
C144 C143 1.363 . S
C144 N146 1.375 . S
C144 H162 0.931 . S
C145 N142 1.311 . S
C145 N146 1.347 . S
C145 H156 0.929 . S
N146 C144 1.375 . S
N146 C145 1.347 . S
C147 C150 1.365 . S
C147 N152 1.328 . S
C147 H153 0.929 . S
C148 C149 1.362 . S
C148 C151 1.378 . S
C148 H163 0.929 . S
C149 C148 1.362 . S
C149 C150 1.366 . S
C150 C147 1.365 . S
C150 C149 1.366 . S
C150 H164 0.930 . S
C151 C148 1.378 . S
C151 N152 1.315 . S
C151 H154 0.930 . S
N152 Co132 2.194 . S
N152 C147 1.328 . S
N152 C151 1.315 . S
H153 C147 0.929 . S
H154 C151 0.930 . S
H155 C143 0.929 . S
H156 C145 0.929 . S
O157 Co132 2.351 . S
O157 C160 1.244 . S
O158 Co132 2.155 . S
O158 C160 1.240 . S
O159 Co132 2.096 . S
O159 C140 1.247 . S
C160 O157 1.244 . S
C160 O158 1.240 . S
H161 C135 0.931 . S
H162 C144 0.931 . S
H163 C148 0.929 . S
H164 C150 0.930 . S
Co165 N169 2.148 . S
Co165 N175 2.128 1_556 S
Co165 N185 2.194 . S
Co165 O190 2.351 . S
Co165 O191 2.155 . S
Co165 O192 2.096 . S
C166 N169 1.301 . S
C166 N170 1.328 . S
C166 H171 0.930 . S
C167 C168 1.333 . S
C167 N169 1.317 . S
C167 H172 0.930 . S
C168 C167 1.333 . S
C168 N170 1.350 . S
C168 H194 0.931 . S
N169 Co165 2.148 . S
N169 C166 1.301 . S
N169 C167 1.317 . S
N170 C166 1.328 . S
N170 C168 1.350 . S
H171 C166 0.930 . S
H172 C167 0.930 . S
C173 O174 1.224 . S
C173 O192 1.247 . S
O174 C173 1.224 . S
N175 Co165 2.128 1_554 S
N175 C176 1.355 . S
N175 C178 1.311 . S
C176 N175 1.355 . S
C176 C177 1.363 . S
C176 H188 0.929 . S
C177 C176 1.363 . S
C177 N179 1.375 . S
C177 H195 0.931 . S
C178 N175 1.311 . S
C178 N179 1.347 . S
C178 H189 0.929 . S
N179 C177 1.375 . S
N179 C178 1.347 . S
C180 C183 1.365 . S
C180 N185 1.328 . S
C180 H186 0.929 . S
C181 C182 1.362 . S
C181 C184 1.378 . S
C181 H196 0.929 . S
C182 C181 1.362 . S
C182 C183 1.366 . S
C183 C180 1.365 . S
C183 C182 1.366 . S
C183 H197 0.930 . S
C184 C181 1.378 . S
C184 N185 1.315 . S
C184 H187 0.930 . S
N185 Co165 2.194 . S
N185 C180 1.328 . S
N185 C184 1.315 . S
H186 C180 0.929 . S
H187 C184 0.930 . S
H188 C176 0.929 . S
H189 C178 0.929 . S
O190 Co165 2.351 . S
O190 C193 1.244 . S
O191 Co165 2.155 . S
O191 C193 1.240 . S
O192 Co165 2.096 . S
O192 C173 1.247 . S
C193 O190 1.244 . S
C193 O191 1.240 . S
H194 C168 0.931 . S
H195 C177 0.931 . S
H196 C181 0.929 . S
H197 C183 0.930 . S
Co198 N202 2.148 . S
Co198 N208 2.128 . S
Co198 N218 2.194 . S
Co198 O223 2.351 . S
Co198 O224 2.155 . S
Co198 O225 2.096 . S
C199 N202 1.301 . S
C199 N203 1.328 . S
C199 H204 0.930 . S
C200 C201 1.333 . S
C200 N202 1.317 . S
C200 H205 0.930 . S
C201 C200 1.333 . S
C201 N203 1.350 . S
C201 H227 0.931 . S
N202 Co198 2.148 . S
N202 C199 1.301 . S
N202 C200 1.317 . S
N203 C199 1.328 . S
N203 C201 1.350 . S
H204 C199 0.930 . S
H205 C200 0.930 . S
C206 O207 1.224 . S
C206 O225 1.247 . S
O207 C206 1.224 . S
N208 Co198 2.128 . S
N208 C209 1.355 . S
N208 C211 1.311 . S
C209 N208 1.355 . S
C209 C210 1.363 . S
C209 H221 0.929 . S
C210 C209 1.363 . S
C210 N212 1.375 . S
C210 H228 0.931 . S
C211 N208 1.311 . S
C211 N212 1.347 . S
C211 H222 0.929 . S
N212 C210 1.375 . S
N212 C211 1.347 . S
C213 C216 1.365 . S
C213 N218 1.328 . S
C213 H219 0.929 . S
C214 C215 1.362 . S
C214 C217 1.378 . S
C214 H229 0.929 . S
C215 C214 1.362 . S
C215 C216 1.366 . S
C216 C213 1.365 . S
C216 C215 1.366 . S
C216 H230 0.930 . S
C217 C214 1.378 . S
C217 N218 1.315 . S
C217 H220 0.930 . S
N218 Co198 2.194 . S
N218 C213 1.328 . S
N218 C217 1.315 . S
H219 C213 0.929 . S
H220 C217 0.930 . S
H221 C209 0.929 . S
H222 C211 0.929 . S
O223 Co198 2.351 . S
O223 C226 1.244 . S
O224 Co198 2.155 . S
O224 C226 1.240 . S
O225 Co198 2.096 . S
O225 C206 1.247 . S
C226 O223 1.244 . S
C226 O224 1.240 . S
H227 C201 0.931 . S
H228 C210 0.931 . S
H229 C214 0.929 . S
H230 C216 0.930 . S
Co231 N235 2.148 . S
Co231 N241 2.128 . S
Co231 N251 2.194 . S
Co231 O256 2.351 . S
Co231 O257 2.155 . S
Co231 O258 2.096 . S
C232 N235 1.301 1_554 S
C232 N236 1.328 . S
C232 H237 0.930 . S
C233 C234 1.333 1_556 S
C233 N235 1.317 . S
C233 H238 0.930 . S
C234 C233 1.333 1_554 S
C234 N236 1.350 . S
C234 H260 0.931 . S
N235 Co231 2.148 . S
N235 C232 1.301 1_556 S
N235 C233 1.317 . S
N236 C232 1.328 . S
N236 C234 1.350 . S
H237 C232 0.930 . S
H238 C233 0.930 . S
C239 O240 1.224 . S
C239 O258 1.247 . S
O240 C239 1.224 . S
N241 Co231 2.128 . S
N241 C242 1.355 . S
N241 C244 1.311 . S
C242 N241 1.355 . S
C242 C243 1.363 . S
C242 H254 0.929 . S
C243 C242 1.363 . S
C243 N245 1.375 . S
C243 H261 0.931 . S
C244 N241 1.311 . S
C244 N245 1.347 . S
C244 H255 0.929 . S
N245 C243 1.375 . S
N245 C244 1.347 . S
C246 C249 1.365 . S
C246 N251 1.328 . S
C246 H252 0.929 . S
C247 C248 1.362 . S
C247 C250 1.378 . S
C247 H262 0.929 . S
C248 C247 1.362 . S
C248 C249 1.366 . S
C249 C246 1.365 . S
C249 C248 1.366 . S
C249 H263 0.930 . S
C250 C247 1.378 . S
C250 N251 1.315 . S
C250 H253 0.930 . S
N251 Co231 2.194 . S
N251 C246 1.328 . S
N251 C250 1.315 . S
H252 C246 0.929 . S
H253 C250 0.930 . S
H254 C242 0.929 . S
H255 C244 0.929 . S
O256 Co231 2.351 . S
O256 C259 1.244 . S
O257 Co231 2.155 . S
O257 C259 1.240 . S
O258 Co231 2.096 . S
O258 C239 1.247 . S
C259 O256 1.244 . S
C259 O257 1.240 . S
H260 C234 0.931 . S
H261 C243 0.931 . S
H262 C247 0.929 . S
H263 C249 0.930 . S
Co264 N268 2.148 . S
Co264 N274 2.128 1_554 S
Co264 N284 2.194 . S
Co264 O289 2.351 . S
Co264 O290 2.155 . S
Co264 O291 2.096 . S
C265 N268 1.301 . S
C265 N269 1.328 . S
C265 H270 0.930 . S
C266 C267 1.333 . S
C266 N268 1.317 . S
C266 H271 0.930 . S
C267 C266 1.333 . S
C267 N269 1.350 . S
C267 H293 0.931 . S
N268 Co264 2.148 . S
N268 C265 1.301 . S
N268 C266 1.317 . S
N269 C265 1.328 . S
N269 C267 1.350 . S
H270 C265 0.930 . S
H271 C266 0.930 . S
C272 O273 1.224 . S
C272 O291 1.247 . S
O273 C272 1.224 . S
N274 Co264 2.128 1_556 S
N274 C275 1.355 . S
N274 C277 1.311 . S
C275 N274 1.355 . S
C275 C276 1.363 . S
C275 H287 0.929 . S
C276 C275 1.363 . S
C276 N278 1.375 . S
C276 H294 0.931 . S
C277 N274 1.311 . S
C277 N278 1.347 . S
C277 H288 0.929 . S
N278 C276 1.375 . S
N278 C277 1.347 . S
C279 C282 1.365 . S
C279 N284 1.328 . S
C279 H285 0.929 . S
C280 C281 1.362 . S
C280 C283 1.378 . S
C280 H295 0.929 . S
C281 C280 1.362 . S
C281 C282 1.366 . S
C282 C279 1.365 . S
C282 C281 1.366 . S
C282 H296 0.930 . S
C283 C280 1.378 . S
C283 N284 1.315 . S
C283 H286 0.930 . S
N284 Co264 2.194 . S
N284 C279 1.328 . S
N284 C283 1.315 . S
H285 C279 0.929 . S
H286 C283 0.930 . S
H287 C275 0.929 . S
H288 C277 0.929 . S
O289 Co264 2.351 . S
O289 C292 1.244 . S
O290 Co264 2.155 . S
O290 C292 1.240 . S
O291 Co264 2.096 . S
O291 C272 1.247 . S
C292 O289 1.244 . S
C292 O290 1.240 . S
H293 C267 0.931 . S
H294 C276 0.931 . S
H295 C280 0.929 . S
H296 C282 0.930 . S
Co297 N301 2.148 . S
Co297 N307 2.128 . S
Co297 N317 2.194 . S
Co297 O322 2.351 . S
Co297 O323 2.155 . S
Co297 O324 2.096 . S
C298 N301 1.301 . S
C298 N302 1.328 . S
C298 H303 0.930 . S
C299 C300 1.333 . S
C299 N301 1.317 . S
C299 H304 0.930 . S
C300 C299 1.333 . S
C300 N302 1.350 . S
C300 H326 0.931 . S
N301 Co297 2.148 . S
N301 C298 1.301 . S
N301 C299 1.317 . S
N302 C298 1.328 . S
N302 C300 1.350 . S
H303 C298 0.930 . S
H304 C299 0.930 . S
C305 O306 1.224 . S
C305 O324 1.247 . S
O306 C305 1.224 . S
N307 Co297 2.128 . S
N307 C308 1.355 . S
N307 C310 1.311 . S
C308 N307 1.355 . S
C308 C309 1.363 . S
C308 H320 0.929 . S
C309 C308 1.363 . S
C309 N311 1.375 . S
C309 H327 0.931 . S
C310 N307 1.311 . S
C310 N311 1.347 . S
C310 H321 0.929 . S
N311 C309 1.375 . S
N311 C310 1.347 . S
C312 C315 1.365 . S
C312 N317 1.328 . S
C312 H318 0.929 . S
C313 C314 1.362 . S
C313 C316 1.378 . S
C313 H328 0.929 . S
C314 C313 1.362 . S
C314 C315 1.366 . S
C315 C312 1.365 . S
C315 C314 1.366 . S
C315 H329 0.930 . S
C316 C313 1.378 . S
C316 N317 1.315 . S
C316 H319 0.930 . S
N317 Co297 2.194 . S
N317 C312 1.328 . S
N317 C316 1.315 . S
H318 C312 0.929 . S
H319 C316 0.930 . S
H320 C308 0.929 . S
H321 C310 0.929 . S
O322 Co297 2.351 . S
O322 C325 1.244 . S
O323 Co297 2.155 . S
O323 C325 1.240 . S
O324 Co297 2.096 . S
O324 C305 1.247 . S
C325 O322 1.244 . S
C325 O323 1.240 . S
H326 C300 0.931 . S
H327 C309 0.931 . S
H328 C313 0.929 . S
H329 C315 0.930 . S
Co330 N334 2.148 . S
Co330 N340 2.128 . S
Co330 N350 2.194 . S
Co330 O355 2.351 . S
Co330 O356 2.155 . S
Co330 O357 2.096 . S
C331 N334 1.301 . S
C331 N335 1.328 . S
C331 H336 0.930 . S
C332 C333 1.333 . S
C332 N334 1.317 . S
C332 H337 0.930 . S
C333 C332 1.333 . S
C333 N335 1.350 . S
C333 H359 0.931 . S
N334 Co330 2.148 . S
N334 C331 1.301 . S
N334 C332 1.317 . S
N335 C331 1.328 . S
N335 C333 1.350 . S
H336 C331 0.930 . S
H337 C332 0.930 . S
C338 O339 1.224 . S
C338 O357 1.247 . S
O339 C338 1.224 . S
N340 Co330 2.128 . S
N340 C341 1.355 . S
N340 C343 1.311 . S
C341 N340 1.355 . S
C341 C342 1.363 . S
C341 H353 0.929 . S
C342 C341 1.363 . S
C342 N344 1.375 . S
C342 H360 0.931 . S
C343 N340 1.311 . S
C343 N344 1.347 . S
C343 H354 0.929 . S
N344 C342 1.375 . S
N344 C343 1.347 . S
C345 C348 1.365 . S
C345 N350 1.328 . S
C345 H351 0.929 . S
C346 C347 1.362 . S
C346 C349 1.378 . S
C346 H361 0.929 . S
C347 C346 1.362 . S
C347 C348 1.366 . S
C348 C345 1.365 . S
C348 C347 1.366 . S
C348 H362 0.930 . S
C349 C346 1.378 . S
C349 N350 1.315 . S
C349 H352 0.930 . S
N350 Co330 2.194 . S
N350 C345 1.328 . S
N350 C349 1.315 . S
H351 C345 0.929 . S
H352 C349 0.930 . S
H353 C341 0.929 . S
H354 C343 0.929 . S
O355 Co330 2.351 . S
O355 C358 1.244 . S
O356 Co330 2.155 . S
O356 C358 1.240 . S
O357 Co330 2.096 . S
O357 C338 1.247 . S
C358 O355 1.244 . S
C358 O356 1.240 . S
H359 C333 0.931 . S
H360 C342 0.931 . S
H361 C346 0.929 . S
H362 C348 0.930 . S
Co363 N367 2.148 . S
Co363 N373 2.128 . S
Co363 N383 2.194 . S
Co363 O388 2.351 . S
Co363 O389 2.155 . S
Co363 O390 2.096 . S
C364 N367 1.301 . S
C364 N368 1.328 . S
C364 H369 0.930 . S
C365 C366 1.333 . S
C365 N367 1.317 . S
C365 H370 0.930 . S
C366 C365 1.333 . S
C366 N368 1.350 . S
C366 H392 0.931 . S
N367 Co363 2.148 . S
N367 C364 1.301 . S
N367 C365 1.317 . S
N368 C364 1.328 . S
N368 C366 1.350 . S
H369 C364 0.930 . S
H370 C365 0.930 . S
C371 O372 1.224 . S
C371 O390 1.247 . S
O372 C371 1.224 . S
N373 Co363 2.128 . S
N373 C374 1.355 . S
N373 C376 1.311 . S
C374 N373 1.355 . S
C374 C375 1.363 . S
C374 H386 0.929 . S
C375 C374 1.363 . S
C375 N377 1.375 . S
C375 H393 0.931 . S
C376 N373 1.311 . S
C376 N377 1.347 . S
C376 H387 0.929 . S
N377 C375 1.375 . S
N377 C376 1.347 . S
C378 C381 1.365 . S
C378 N383 1.328 . S
C378 H384 0.929 . S
C379 C380 1.362 . S
C379 C382 1.378 . S
C379 H394 0.929 . S
C380 C379 1.362 . S
C380 C381 1.366 . S
C381 C378 1.365 . S
C381 C380 1.366 . S
C381 H395 0.930 . S
C382 C379 1.378 . S
C382 N383 1.315 . S
C382 H385 0.930 . S
N383 Co363 2.194 . S
N383 C378 1.328 . S
N383 C382 1.315 . S
H384 C378 0.929 . S
H385 C382 0.930 . S
H386 C374 0.929 . S
H387 C376 0.929 . S
O388 Co363 2.351 . S
O388 C391 1.244 . S
O389 Co363 2.155 . S
O389 C391 1.240 . S
O390 Co363 2.096 . S
O390 C371 1.247 . S
C391 O388 1.244 . S
C391 O389 1.240 . S
H392 C366 0.931 . S
H393 C375 0.931 . S
H394 C379 0.929 . S
H395 C381 0.930 . S
H396 C404 0.929 . S
H397 C406 0.930 . S
H398 C408 0.930 1_556 S
H399 C411 0.929 1_556 S
H400 C414 0.930 . S
H401 C416 0.958 1_556 S
H402 C416 0.962 . S
H403 C416 0.957 1_556 S
C404 H396 0.929 . S
C404 C405 1.377 . S
C404 C406 1.384 . S
C405 C404 1.377 . S
C405 C411 1.390 . S
C406 H397 0.930 . S
C406 C404 1.384 . S
C406 C407 1.372 . S
C407 C406 1.372 . S
C407 C408 1.400 . S
C407 C412 1.490 . S
C408 H398 0.930 1_554 S
C408 C407 1.400 . S
C408 C411 1.386 . S
H409 C425 0.930 . S
H410 C426 0.931 . S
C411 H399 0.929 1_554 S
C411 C405 1.390 . S
C411 C408 1.386 . S
C412 C407 1.490 . S
C412 C414 1.395 . S
C412 C415 1.403 . S
H413 C419 0.930 . S
C414 H400 0.930 . S
C414 C412 1.395 . S
C414 C417 1.403 . S
C415 C412 1.403 . S
C415 C416 1.526 . S
C415 C419 1.400 . S
C416 H401 0.958 1_554 S
C416 H402 0.962 . S
C416 H403 0.957 1_554 S
C416 C415 1.526 . S
C417 C414 1.403 . S
C417 C418 1.392 . S
C417 C421 1.495 . S
C418 C417 1.392 . S
C418 C419 1.385 . S
C418 C420 1.478 . S
C419 H413 0.930 . S
C419 C415 1.400 . S
C419 C418 1.385 . S
C420 C418 1.478 . S
C420 C422 1.381 . S
C420 C426 1.383 . S
C421 C417 1.495 . S
C421 H427 0.959 . S
C421 H428 0.961 . S
C421 H429 0.960 . S
C422 C420 1.381 . S
C422 C423 1.394 . S
C422 H430 0.930 . S
C423 C422 1.394 . S
C423 C424 1.383 . S
C423 H431 0.929 . S
C424 C423 1.383 . S
C424 C425 1.377 . S
C425 H409 0.930 . S
C425 C424 1.377 . S
C425 C426 1.379 . S
C426 H410 0.931 . S
C426 C420 1.383 . S
C426 C425 1.379 . S
H427 C421 0.959 . S
H428 C421 0.961 . S
H429 C421 0.960 . S
H430 C422 0.930 . S
H431 C423 0.929 . S
H432 C440 0.929 . S
H433 C442 0.930 . S
H434 C444 0.930 . S
H435 C447 0.929 . S
H436 C450 0.930 . S
H437 C452 0.960 . S
H438 C452 0.960 . S
H439 C452 0.960 . S
C440 H432 0.929 . S
C440 C441 1.377 . S
C440 C442 1.384 . S
C441 C440 1.377 . S
C441 C447 1.390 . S
C442 H433 0.930 . S
C442 C440 1.384 . S
C442 C443 1.372 . S
C443 C442 1.372 . S
C443 C444 1.400 . S
C443 C448 1.490 . S
C444 H434 0.930 . S
C444 C443 1.400 . S
C444 C447 1.386 . S
H445 C461 0.930 . S
H446 C462 0.931 . S
C447 H435 0.929 . S
C447 C441 1.390 . S
C447 C444 1.386 . S
C448 C443 1.490 . S
C448 C450 1.395 . S
C448 C451 1.403 . S
H449 C455 0.930 . S
C450 H436 0.930 . S
C450 C448 1.395 . S
C450 C453 1.403 . S
C451 C448 1.403 . S
C451 C452 1.524 . S
C451 C455 1.400 . S
C452 H437 0.960 . S
C452 H438 0.960 . S
C452 H439 0.960 . S
C452 C451 1.524 . S
C453 C450 1.403 . S
C453 C454 1.392 . S
C453 C457 1.495 . S
C454 C453 1.392 . S
C454 C455 1.385 . S
C454 C456 1.478 . S
C455 H449 0.930 . S
C455 C451 1.400 . S
C455 C454 1.385 . S
C456 C454 1.478 . S
C456 C458 1.381 . S
C456 C462 1.383 . S
C457 C453 1.495 . S
C457 H463 0.959 . S
C457 H464 0.961 . S
C457 H465 0.960 . S
C458 C456 1.381 . S
C458 C459 1.394 . S
C458 H466 0.930 . S
C459 C458 1.394 . S
C459 C460 1.383 . S
C459 H467 0.929 . S
C460 C459 1.383 . S
C460 C461 1.377 . S
C461 H445 0.930 . S
C461 C460 1.377 . S
C461 C462 1.379 . S
C462 H446 0.931 . S
C462 C456 1.383 . S
C462 C461 1.379 . S
H463 C457 0.959 . S
H464 C457 0.961 . S
H465 C457 0.960 . S
H466 C458 0.930 . S
H467 C459 0.929 . S
H468 C476 0.929 . S
H469 C478 0.930 . S
H470 C480 0.930 . S
H471 C483 0.929 . S
H472 C486 0.930 . S
H473 C488 0.960 . S
H474 C488 0.960 . S
H475 C488 0.960 . S
C476 H468 0.929 . S
C476 C477 1.377 . S
C476 C478 1.384 . S
C477 C476 1.377 . S
C477 C483 1.390 . S
C478 H469 0.930 . S
C478 C476 1.384 . S
C478 C479 1.372 . S
C479 C478 1.372 . S
C479 C480 1.400 . S
C479 C484 1.490 . S
C480 H470 0.930 . S
C480 C479 1.400 . S
C480 C483 1.386 . S
H481 C497 0.930 . S
H482 C498 0.931 . S
C483 H471 0.929 . S
C483 C477 1.390 . S
C483 C480 1.386 . S
C484 C479 1.490 . S
C484 C486 1.395 . S
C484 C487 1.403 . S
H485 C491 0.930 . S
C486 H472 0.930 . S
C486 C484 1.395 . S
C486 C489 1.403 . S
C487 C484 1.403 . S
C487 C488 1.524 . S
C487 C491 1.400 . S
C488 H473 0.960 . S
C488 H474 0.960 . S
C488 H475 0.960 . S
C488 C487 1.524 . S
C489 C486 1.403 . S
C489 C490 1.392 . S
C489 C493 1.495 . S
C490 C489 1.392 . S
C490 C491 1.385 . S
C490 C492 1.478 . S
C491 H485 0.930 . S
C491 C487 1.400 . S
C491 C490 1.385 . S
C492 C490 1.478 . S
C492 C494 1.381 . S
C492 C498 1.383 . S
C493 C489 1.495 . S
C493 H499 0.959 . S
C493 H500 0.961 . S
C493 H501 0.960 . S
C494 C492 1.381 . S
C494 C495 1.394 . S
C494 H502 0.930 . S
C495 C494 1.394 . S
C495 C496 1.383 . S
C495 H503 0.929 . S
C496 C495 1.383 . S
C496 C497 1.377 . S
C497 H481 0.930 . S
C497 C496 1.377 . S
C497 C498 1.379 . S
C498 H482 0.931 . S
C498 C492 1.383 . S
C498 C497 1.379 . S
H499 C493 0.959 . S
H500 C493 0.961 . S
H501 C493 0.960 . S
H502 C494 0.930 . S
H503 C495 0.929 . S
H504 C512 0.929 . S
H505 C514 0.930 . S
H506 C516 0.930 . S
H507 C519 0.929 . S
H508 C522 0.930 . S
H509 C524 0.960 . S
H510 C524 0.960 . S
H511 C524 0.960 . S
C512 H504 0.929 . S
C512 C513 1.377 . S
C512 C514 1.384 . S
C513 C512 1.377 . S
C513 C519 1.390 . S
C514 H505 0.930 . S
C514 C512 1.384 . S
C514 C515 1.372 . S
C515 C514 1.372 . S
C515 C516 1.400 . S
C515 C520 1.490 . S
C516 H506 0.930 . S
C516 C515 1.400 . S
C516 C519 1.386 . S
H517 C533 0.930 . S
H518 C534 0.931 . S
C519 H507 0.929 . S
C519 C513 1.390 . S
C519 C516 1.386 . S
C520 C515 1.490 . S
C520 C522 1.395 . S
C520 C523 1.403 . S
H521 C527 0.930 . S
C522 H508 0.930 . S
C522 C520 1.395 . S
C522 C525 1.403 . S
C523 C520 1.403 . S
C523 C524 1.524 . S
C523 C527 1.400 . S
C524 H509 0.960 . S
C524 H510 0.960 . S
C524 H511 0.960 . S
C524 C523 1.524 . S
C525 C522 1.403 . S
C525 C526 1.392 . S
C525 C529 1.495 . S
C526 C525 1.392 . S
C526 C527 1.385 . S
C526 C528 1.478 . S
C527 H521 0.930 . S
C527 C523 1.400 . S
C527 C526 1.385 . S
C528 C526 1.478 . S
C528 C530 1.381 . S
C528 C534 1.383 . S
C529 C525 1.495 . S
C529 H535 0.959 . S
C529 H536 0.961 . S
C529 H537 0.960 . S
C530 C528 1.381 . S
C530 C531 1.394 . S
C530 H538 0.930 . S
C531 C530 1.394 . S
C531 C532 1.383 . S
C531 H539 0.929 . S
C532 C531 1.383 . S
C532 C533 1.377 . S
C533 H517 0.930 . S
C533 C532 1.377 . S
C533 C534 1.379 . S
C534 H518 0.931 . S
C534 C528 1.383 . S
C534 C533 1.379 . S
H535 C529 0.959 . S
H536 C529 0.961 . S
H537 C529 0.960 . S
H538 C530 0.930 . S
H539 C531 0.929 . S
H540 C548 0.929 . S
H541 C550 0.930 . S
H542 C552 0.930 . S
H543 C555 0.929 . S
H544 C558 0.930 . S
H545 C560 0.960 . S
H546 C560 0.960 . S
H547 C560 0.960 . S
C548 H540 0.929 . S
C548 C549 1.377 . S
C548 C550 1.384 . S
C549 C548 1.377 . S
C549 C555 1.390 . S
C550 H541 0.930 . S
C550 C548 1.384 . S
C550 C551 1.372 . S
C551 C550 1.372 . S
C551 C552 1.400 . S
C551 C556 1.490 . S
C552 H542 0.930 . S
C552 C551 1.400 . S
C552 C555 1.386 . S
H553 C569 0.930 . S
H554 C570 0.931 . S
C555 H543 0.929 . S
C555 C549 1.390 . S
C555 C552 1.386 . S
C556 C551 1.490 . S
C556 C558 1.395 . S
C556 C559 1.403 . S
H557 C563 0.930 . S
C558 H544 0.930 . S
C558 C556 1.395 . S
C558 C561 1.403 . S
C559 C556 1.403 . S
C559 C560 1.524 . S
C559 C563 1.400 . S
C560 H545 0.960 . S
C560 H546 0.960 . S
C560 H547 0.960 . S
C560 C559 1.524 . S
C561 C558 1.403 . S
C561 C562 1.392 . S
C561 C565 1.495 . S
C562 C561 1.392 . S
C562 C563 1.385 . S
C562 C564 1.478 . S
C563 H557 0.930 . S
C563 C559 1.400 . S
C563 C562 1.385 . S
C564 C562 1.478 . S
C564 C566 1.381 . S
C564 C570 1.383 . S
C565 C561 1.495 . S
C565 H571 0.959 . S
C565 H572 0.961 . S
C565 H573 0.960 . S
C566 C564 1.381 . S
C566 C567 1.394 . S
C566 H574 0.930 . S
C567 C566 1.394 . S
C567 C568 1.383 . S
C567 H575 0.929 . S
C568 C567 1.383 . S
C568 C569 1.377 . S
C569 H553 0.930 . S
C569 C568 1.377 . S
C569 C570 1.379 . S
C570 H554 0.931 . S
C570 C564 1.383 . S
C570 C569 1.379 . S
H571 C565 0.959 . S
H572 C565 0.961 . S
H573 C565 0.960 . S
H574 C566 0.930 . S
H575 C567 0.929 . S
H576 C584 0.929 . S
H577 C586 0.930 . S
H578 C588 0.930 . S
H579 C591 0.929 . S
H580 C594 0.930 . S
H581 C596 0.960 . S
H582 C596 0.960 . S
H583 C596 0.960 . S
C584 H576 0.929 . S
C584 C585 1.377 . S
C584 C586 1.384 . S
C585 C584 1.377 . S
C585 C591 1.390 . S
C586 H577 0.930 . S
C586 C584 1.384 . S
C586 C587 1.372 . S
C587 C586 1.372 . S
C587 C588 1.400 . S
C587 C592 1.490 . S
C588 H578 0.930 . S
C588 C587 1.400 . S
C588 C591 1.386 . S
H589 C605 0.930 . S
H590 C606 0.931 . S
C591 H579 0.929 . S
C591 C585 1.390 . S
C591 C588 1.386 . S
C592 C587 1.490 . S
C592 C594 1.395 . S
C592 C595 1.403 . S
H593 C599 0.930 . S
C594 H580 0.930 . S
C594 C592 1.395 . S
C594 C597 1.403 . S
C595 C592 1.403 . S
C595 C596 1.524 . S
C595 C599 1.400 . S
C596 H581 0.960 . S
C596 H582 0.960 . S
C596 H583 0.960 . S
C596 C595 1.524 . S
C597 C594 1.403 . S
C597 C598 1.392 . S
C597 C601 1.495 . S
C598 C597 1.392 . S
C598 C599 1.385 . S
C598 C600 1.478 . S
C599 H593 0.930 . S
C599 C595 1.400 . S
C599 C598 1.385 . S
C600 C598 1.478 . S
C600 C602 1.381 . S
C600 C606 1.383 . S
C601 C597 1.495 . S
C601 H607 0.959 . S
C601 H608 0.961 . S
C601 H609 0.960 . S
C602 C600 1.381 . S
C602 C603 1.394 . S
C602 H610 0.930 1_556 S
C603 C602 1.394 . S
C603 C604 1.383 . S
C603 H611 0.929 1_556 S
C604 C603 1.383 . S
C604 C605 1.377 . S
C605 H589 0.930 . S
C605 C604 1.377 . S
C605 C606 1.379 . S
C606 H590 0.931 . S
C606 C600 1.383 . S
C606 C605 1.379 . S
H607 C601 0.959 . S
H608 C601 0.961 . S
H609 C601 0.960 . S
H610 C602 0.930 1_554 S
H611 C603 0.929 1_554 S
H612 C620 0.929 . S
H613 C622 0.930 . S
H614 C624 0.930 . S
H615 C627 0.929 . S
H616 C630 0.930 . S
H617 C632 0.960 . S
H618 C632 0.960 . S
H619 C632 0.960 . S
C620 H612 0.929 . S
C620 C621 1.377 . S
C620 C622 1.384 . S
C621 C620 1.377 . S
C621 C627 1.390 . S
C622 H613 0.930 . S
C622 C620 1.384 . S
C622 C623 1.372 . S
C623 C622 1.372 . S
C623 C624 1.400 . S
C623 C628 1.490 . S
C624 H614 0.930 . S
C624 C623 1.400 . S
C624 C627 1.386 . S
H625 C641 0.930 . S
H626 C642 0.931 . S
C627 H615 0.929 . S
C627 C621 1.390 . S
C627 C624 1.386 . S
C628 C623 1.490 . S
C628 C630 1.395 . S
C628 C631 1.403 . S
H629 C635 0.930 . S
C630 H616 0.930 . S
C630 C628 1.395 . S
C630 C633 1.403 . S
C631 C628 1.403 . S
C631 C632 1.524 . S
C631 C635 1.400 . S
C632 H617 0.960 . S
C632 H618 0.960 . S
C632 H619 0.960 . S
C632 C631 1.524 . S
C633 C630 1.403 . S
C633 C634 1.392 . S
C633 C637 1.495 . S
C634 C633 1.392 . S
C634 C635 1.385 . S
C634 C636 1.478 . S
C635 H629 0.930 . S
C635 C631 1.400 . S
C635 C634 1.385 . S
C636 C634 1.478 . S
C636 C638 1.381 . S
C636 C642 1.383 . S
C637 C633 1.495 . S
C637 H643 0.959 . S
C637 H644 0.961 . S
C637 H645 0.960 . S
C638 C636 1.381 . S
C638 C639 1.394 . S
C638 H646 0.930 . S
C639 C638 1.394 . S
C639 C640 1.383 . S
C639 H647 0.929 . S
C640 C639 1.383 . S
C640 C641 1.377 . S
C641 H625 0.930 . S
C641 C640 1.377 . S
C641 C642 1.379 . S
C642 H626 0.931 . S
C642 C636 1.383 . S
C642 C641 1.379 . S
H643 C637 0.959 . S
H644 C637 0.961 . S
H645 C637 0.960 . S
H646 C638 0.930 . S
H647 C639 0.929 . S
H648 C656 0.929 . S
H649 C658 0.930 . S
H650 C660 0.930 . S
H651 C663 0.929 . S
H652 C666 0.930 . S
H653 C668 0.960 . S
H654 C668 0.960 . S
H655 C668 0.960 . S
C656 H648 0.929 . S
C656 C657 1.377 . S
C656 C658 1.384 . S
C657 C656 1.377 . S
C657 C663 1.390 . S
C658 H649 0.930 . S
C658 C656 1.384 . S
C658 C659 1.372 . S
C659 C658 1.372 . S
C659 C660 1.400 . S
C659 C664 1.490 . S
C660 H650 0.930 . S
C660 C659 1.400 . S
C660 C663 1.386 . S
H661 C677 0.930 . S
H662 C678 0.931 . S
C663 H651 0.929 . S
C663 C657 1.390 . S
C663 C660 1.386 . S
C664 C659 1.490 . S
C664 C666 1.395 . S
C664 C667 1.403 . S
H665 C671 0.930 . S
C666 H652 0.930 . S
C666 C664 1.395 . S
C666 C669 1.403 . S
C667 C664 1.403 . S
C667 C668 1.524 . S
C667 C671 1.400 . S
C668 H653 0.960 . S
C668 H654 0.960 . S
C668 H655 0.960 . S
C668 C667 1.524 . S
C669 C666 1.403 . S
C669 C670 1.392 . S
C669 C673 1.495 . S
C670 C669 1.392 . S
C670 C671 1.385 . S
C670 C672 1.478 . S
C671 H665 0.930 . S
C671 C667 1.400 . S
C671 C670 1.385 . S
C672 C670 1.478 . S
C672 C674 1.381 . S
C672 C678 1.383 . S
C673 C669 1.495 . S
C673 H679 0.959 . S
C673 H680 0.961 . S
C673 H681 0.960 . S
C674 C672 1.381 . S
C674 C675 1.394 1_556 S
C674 H682 0.930 . S
C675 C674 1.394 1_554 S
C675 C676 1.383 . S
C675 H683 0.929 . S
C676 C675 1.383 . S
C676 C677 1.377 . S
C677 H661 0.930 . S
C677 C676 1.377 . S
C677 C678 1.379 1_554 S
C678 H662 0.931 . S
C678 C672 1.383 . S
C678 C677 1.379 1_556 S
H679 C673 0.959 . S
H680 C673 0.961 . S
H681 C673 0.960 . S
H682 C674 0.930 . S
H683 C675 0.929 . S
H684 C692 0.929 . S
H685 C694 0.930 . S
H686 C696 0.930 . S
H687 C699 0.929 . S
H688 C702 0.930 . S
H689 C704 0.960 . S
H690 C704 0.960 . S
H691 C704 0.960 . S
C692 H684 0.929 . S
C692 C693 1.377 . S
C692 C694 1.384 . S
C693 C692 1.377 . S
C693 C699 1.390 . S
C694 H685 0.930 . S
C694 C692 1.384 . S
C694 C695 1.372 . S
C695 C694 1.372 . S
C695 C696 1.400 . S
C695 C700 1.490 . S
C696 H686 0.930 . S
C696 C695 1.400 . S
C696 C699 1.386 . S
H697 C713 0.930 . S
H698 C714 0.931 . S
C699 H687 0.929 . S
C699 C693 1.390 . S
C699 C696 1.386 . S
C700 C695 1.490 . S
C700 C702 1.395 . S
C700 C703 1.403 . S
H701 C707 0.930 1_554 S
C702 H688 0.930 . S
C702 C700 1.395 . S
C702 C705 1.403 . S
C703 C700 1.403 . S
C703 C704 1.524 . S
C703 C707 1.400 . S
C704 H689 0.960 . S
C704 H690 0.960 . S
C704 H691 0.960 . S
C704 C703 1.524 . S
C705 C702 1.403 . S
C705 C706 1.392 1_556 S
C705 C709 1.495 1_556 S
C706 C705 1.392 1_554 S
C706 C707 1.385 1_554 S
C706 C708 1.478 . S
C707 H701 0.930 1_556 S
C707 C703 1.400 . S
C707 C706 1.385 1_556 S
C708 C706 1.478 . S
C708 C710 1.381 . S
C708 C714 1.383 . S
C709 C705 1.495 1_554 S
C709 H715 0.959 1_554 S
C709 H716 0.961 . S
C709 H717 0.960 . S
C710 C708 1.381 . S
C710 C711 1.394 . S
C710 H718 0.930 . S
C711 C710 1.394 . S
C711 C712 1.383 . S
C711 H719 0.929 . S
C712 C711 1.383 . S
C712 C713 1.377 . S
C713 H697 0.930 . S
C713 C712 1.377 . S
C713 C714 1.379 . S
C714 H698 0.931 . S
C714 C708 1.383 . S
C714 C713 1.379 . S
H715 C709 0.959 1_556 S
H716 C709 0.961 . S
H717 C709 0.960 . S
H718 C710 0.930 . S
H719 C711 0.929 . S
H720 C728 0.929 . S
H721 C730 0.930 . S
H722 C732 0.930 . S
H723 C735 0.929 . S
H724 C738 0.930 . S
H725 C740 0.960 . S
H726 C740 0.960 . S
H727 C740 0.960 . S
C728 H720 0.929 . S
C728 C729 1.377 . S
C728 C730 1.384 . S
C729 C728 1.377 . S
C729 C735 1.390 . S
C730 H721 0.930 . S
C730 C728 1.384 . S
C730 C731 1.372 . S
C731 C730 1.372 . S
C731 C732 1.400 . S
C731 C736 1.490 1_556 S
C732 H722 0.930 . S
C732 C731 1.400 . S
C732 C735 1.386 . S
H733 C749 0.930 . S
H734 C750 0.931 . S
C735 H723 0.929 . S
C735 C729 1.390 . S
C735 C732 1.386 . S
C736 C731 1.490 1_554 S
C736 C738 1.395 . S
C736 C739 1.403 . S
H737 C743 0.930 . S
C738 H724 0.930 . S
C738 C736 1.395 . S
C738 C741 1.403 . S
C739 C736 1.403 . S
C739 C740 1.524 . S
C739 C743 1.400 . S
C740 H725 0.960 . S
C740 H726 0.960 . S
C740 H727 0.960 . S
C740 C739 1.524 . S
C741 C738 1.403 . S
C741 C742 1.392 . S
C741 C745 1.495 . S
C742 C741 1.392 . S
C742 C743 1.385 . S
C742 C744 1.478 . S
C743 H737 0.930 . S
C743 C739 1.400 . S
C743 C742 1.385 . S
C744 C742 1.478 . S
C744 C746 1.381 . S
C744 C750 1.383 . S
C745 C741 1.495 . S
C745 H751 0.959 . S
C745 H752 0.961 . S
C745 H753 0.960 . S
C746 C744 1.381 . S
C746 C747 1.394 . S
C746 H754 0.930 . S
C747 C746 1.394 . S
C747 C748 1.383 . S
C747 H755 0.929 . S
C748 C747 1.383 . S
C748 C749 1.377 . S
C749 H733 0.930 . S
C749 C748 1.377 . S
C749 C750 1.379 . S
C750 H734 0.931 . S
C750 C744 1.383 . S
C750 C749 1.379 . S
H751 C745 0.959 . S
H752 C745 0.961 . S
H753 C745 0.960 . S
H754 C746 0.930 . S
H755 C747 0.929 . S
H756 C764 0.929 . S
H757 C766 0.930 . S
H758 C768 0.930 . S
H759 C771 0.929 . S
H760 C774 0.930 . S
H761 C776 0.960 . S
H762 C776 0.960 . S
H763 C776 0.960 . S
C764 H756 0.929 . S
C764 C765 1.377 . S
C764 C766 1.384 . S
C765 C764 1.377 . S
C765 C771 1.390 . S
C766 H757 0.930 . S
C766 C764 1.384 . S
C766 C767 1.372 . S
C767 C766 1.372 . S
C767 C768 1.400 . S
C767 C772 1.490 . S
C768 H758 0.930 . S
C768 C767 1.400 . S
C768 C771 1.386 . S
H769 C785 0.930 . S
H770 C786 0.931 . S
C771 H759 0.929 . S
C771 C765 1.390 . S
C771 C768 1.386 . S
C772 C767 1.490 . S
C772 C774 1.395 . S
C772 C775 1.403 . S
H773 C779 0.930 . S
C774 H760 0.930 . S
C774 C772 1.395 . S
C774 C777 1.403 . S
C775 C772 1.403 . S
C775 C776 1.524 . S
C775 C779 1.400 . S
C776 H761 0.960 . S
C776 H762 0.960 . S
C776 H763 0.960 . S
C776 C775 1.524 . S
C777 C774 1.403 . S
C777 C778 1.392 . S
C777 C781 1.495 . S
C778 C777 1.392 . S
C778 C779 1.385 . S
C778 C780 1.478 . S
C779 H773 0.930 . S
C779 C775 1.400 . S
C779 C778 1.385 . S
C780 C778 1.478 . S
C780 C782 1.381 . S
C780 C786 1.383 . S
C781 C777 1.495 . S
C781 H787 0.959 . S
C781 H788 0.961 . S
C781 H789 0.960 . S
C782 C780 1.381 . S
C782 C783 1.394 . S
C782 H790 0.930 . S
C783 C782 1.394 . S
C783 C784 1.383 . S
C783 H791 0.929 . S
C784 C783 1.383 . S
C784 C785 1.377 . S
C785 H769 0.930 . S
C785 C784 1.377 . S
C785 C786 1.379 . S
C786 H770 0.931 . S
C786 C780 1.383 . S
C786 C785 1.379 . S
H787 C781 0.959 . S
H788 C781 0.961 . S
H789 C781 0.960 . S
H790 C782 0.930 . S
H791 C783 0.929 . S
H792 C800 0.929 . S
H793 C802 0.930 . S
H794 C804 0.930 . S
H795 C807 0.929 . S
H796 C810 0.930 . S
H797 C812 0.960 . S
H798 C812 0.960 . S
H799 C812 0.960 . S
C800 H792 0.929 . S
C800 C801 1.377 . S
C800 C802 1.384 . S
C801 C800 1.377 . S
C801 C807 1.390 . S
C802 H793 0.930 . S
C802 C800 1.384 . S
C802 C803 1.372 . S
C803 C802 1.372 . S
C803 C804 1.400 . S
C803 C808 1.490 . S
C804 H794 0.930 . S
C804 C803 1.400 . S
C804 C807 1.386 . S
H805 C821 0.930 . S
H806 C822 0.931 . S
C807 H795 0.929 . S
C807 C801 1.390 . S
C807 C804 1.386 . S
C808 C803 1.490 . S
C808 C810 1.395 . S
C808 C811 1.403 . S
H809 C815 0.930 . S
C810 H796 0.930 . S
C810 C808 1.395 . S
C810 C813 1.403 . S
C811 C808 1.403 . S
C811 C812 1.524 . S
C811 C815 1.400 . S
C812 H797 0.960 . S
C812 H798 0.960 . S
C812 H799 0.960 . S
C812 C811 1.524 . S
C813 C810 1.403 . S
C813 C814 1.392 . S
C813 C817 1.495 . S
C814 C813 1.392 . S
C814 C815 1.385 . S
C814 C816 1.478 . S
C815 H809 0.930 . S
C815 C811 1.400 . S
C815 C814 1.385 . S
C816 C814 1.478 . S
C816 C818 1.381 . S
C816 C822 1.383 . S
C817 C813 1.495 . S
C817 H823 0.959 . S
C817 H824 0.961 . S
C817 H825 0.960 . S
C818 C816 1.381 . S
C818 C819 1.394 . S
C818 H826 0.930 . S
C819 C818 1.394 . S
C819 C820 1.383 . S
C819 H827 0.929 . S
C820 C819 1.383 . S
C820 C821 1.377 . S
C821 H805 0.930 . S
C821 C820 1.377 . S
C821 C822 1.379 . S
C822 H806 0.931 . S
C822 C816 1.383 . S
C822 C821 1.379 . S
H823 C817 0.959 . S
H824 C817 0.961 . S
H825 C817 0.960 . S
H826 C818 0.930 . S
H827 C819 0.929 . S
H828 C836 0.929 . S
H829 C838 0.930 . S
H830 C840 0.930 . S
H831 C843 0.929 . S
H832 C846 0.930 . S
H833 C848 0.960 . S
H834 C848 0.960 . S
H835 C848 0.960 . S
C836 H828 0.929 . S
C836 C837 1.377 . S
C836 C838 1.384 1_556 S
C837 C836 1.377 . S
C837 C843 1.390 . S
C838 H829 0.930 . S
C838 C836 1.384 1_554 S
C838 C839 1.372 . S
C839 C838 1.372 . S
C839 C840 1.400 . S
C839 C844 1.490 . S
C840 H830 0.930 . S
C840 C839 1.400 . S
C840 C843 1.386 1_554 S
H841 C857 0.930 . S
H842 C858 0.931 . S
C843 H831 0.929 . S
C843 C837 1.390 . S
C843 C840 1.386 1_556 S
C844 C839 1.490 . S
C844 C846 1.395 . S
C844 C847 1.403 . S
H845 C851 0.930 . S
C846 H832 0.930 . S
C846 C844 1.395 . S
C846 C849 1.403 . S
C847 C844 1.403 . S
C847 C848 1.524 . S
C847 C851 1.400 . S
C848 H833 0.960 . S
C848 H834 0.960 . S
C848 H835 0.960 . S
C848 C847 1.524 . S
C849 C846 1.403 . S
C849 C850 1.392 . S
C849 C853 1.495 . S
C850 C849 1.392 . S
C850 C851 1.385 . S
C850 C852 1.478 . S
C851 H845 0.930 . S
C851 C847 1.400 . S
C851 C850 1.385 . S
C852 C850 1.478 . S
C852 C854 1.381 . S
C852 C858 1.383 . S
C853 C849 1.495 . S
C853 H859 0.959 . S
C853 H860 0.961 . S
C853 H861 0.960 . S
C854 C852 1.381 . S
C854 C855 1.394 . S
C854 H862 0.930 . S
C855 C854 1.394 . S
C855 C856 1.383 . S
C855 H863 0.929 . S
C856 C855 1.383 . S
C856 C857 1.377 . S
C857 H841 0.930 . S
C857 C856 1.377 . S
C857 C858 1.379 . S
C858 H842 0.931 . S
C858 C852 1.383 . S
C858 C857 1.379 . S
H859 C853 0.959 . S
H860 C853 0.961 . S
H861 C853 0.960 . S
H862 C854 0.930 . S
H863 C855 0.929 . S
H864 C872 0.929 . S
H865 C874 0.930 . S
H866 C876 0.930 . S
H867 C879 0.929 . S
H868 C882 0.930 . S
H869 C884 0.960 . S
H870 C884 0.960 . S
H871 C884 0.960 . S
C872 H864 0.929 . S
C872 C873 1.377 . S
C872 C874 1.384 . S
C873 C872 1.377 . S
C873 C879 1.390 . S
C874 H865 0.930 . S
C874 C872 1.384 . S
C874 C875 1.372 . S
C875 C874 1.372 . S
C875 C876 1.400 . S
C875 C880 1.490 . S
C876 H866 0.930 . S
C876 C875 1.400 . S
C876 C879 1.386 . S
H877 C893 0.930 . S
H878 C894 0.931 . S
C879 H867 0.929 . S
C879 C873 1.390 . S
C879 C876 1.386 . S
C880 C875 1.490 . S
C880 C882 1.395 . S
C880 C883 1.403 . S
H881 C887 0.930 . S
C882 H868 0.930 . S
C882 C880 1.395 . S
C882 C885 1.403 . S
C883 C880 1.403 . S
C883 C884 1.524 . S
C883 C887 1.400 . S
C884 H869 0.960 . S
C884 H870 0.960 . S
C884 H871 0.960 . S
C884 C883 1.524 . S
C885 C882 1.403 . S
C885 C886 1.392 . S
C885 C889 1.495 . S
C886 C885 1.392 . S
C886 C887 1.385 . S
C886 C888 1.478 . S
C887 H881 0.930 . S
C887 C883 1.400 . S
C887 C886 1.385 . S
C888 C886 1.478 . S
C888 C890 1.381 . S
C888 C894 1.383 . S
C889 C885 1.495 . S
C889 H895 0.959 . S
C889 H896 0.961 . S
C889 H897 0.960 . S
C890 C888 1.381 . S
C890 C891 1.394 . S
C890 H898 0.930 . S
C891 C890 1.394 . S
C891 C892 1.383 . S
C891 H899 0.929 . S
C892 C891 1.383 . S
C892 C893 1.377 . S
C893 H877 0.930 . S
C893 C892 1.377 . S
C893 C894 1.379 . S
C894 H878 0.931 . S
C894 C888 1.383 . S
C894 C893 1.379 . S
H895 C889 0.959 . S
H896 C889 0.961 . S
H897 C889 0.960 . S
H898 C890 0.930 . S
H899 C891 0.929 . S
H900 C908 0.929 . S
H901 C910 0.930 . S
H902 C912 0.930 . S
H903 C915 0.929 . S
H904 C918 0.930 . S
H905 C920 0.960 . S
H906 C920 0.960 . S
H907 C920 0.960 . S
C908 H900 0.929 . S
C908 C909 1.377 . S
C908 C910 1.384 . S
C909 C908 1.377 . S
C909 C915 1.390 . S
C910 H901 0.930 . S
C910 C908 1.384 . S
C910 C911 1.372 . S
C911 C910 1.372 . S
C911 C912 1.400 . S
C911 C916 1.490 . S
C912 H902 0.930 . S
C912 C911 1.400 . S
C912 C915 1.386 . S
H913 C929 0.930 . S
H914 C930 0.931 . S
C915 H903 0.929 . S
C915 C909 1.390 . S
C915 C912 1.386 . S
C916 C911 1.490 . S
C916 C918 1.395 . S
C916 C919 1.403 . S
H917 C923 0.930 . S
C918 H904 0.930 . S
C918 C916 1.395 . S
C918 C921 1.403 . S
C919 C916 1.403 . S
C919 C920 1.524 . S
C919 C923 1.400 . S
C920 H905 0.960 . S
C920 H906 0.960 . S
C920 H907 0.960 . S
C920 C919 1.524 . S
C921 C918 1.403 . S
C921 C922 1.392 . S
C921 C925 1.495 . S
C922 C921 1.392 . S
C922 C923 1.385 . S
C922 C924 1.478 . S
C923 H917 0.930 . S
C923 C919 1.400 . S
C923 C922 1.385 . S
C924 C922 1.478 . S
C924 C926 1.381 . S
C924 C930 1.383 . S
C925 C921 1.495 . S
C925 H931 0.959 . S
C925 H932 0.961 . S
C925 H933 0.960 . S
C926 C924 1.381 . S
C926 C927 1.394 . S
C926 H934 0.930 . S
C927 C926 1.394 . S
C927 C928 1.383 . S
C927 H935 0.929 . S
C928 C927 1.383 . S
C928 C929 1.377 . S
C929 H913 0.930 . S
C929 C928 1.377 . S
C929 C930 1.379 . S
C930 H914 0.931 . S
C930 C924 1.383 . S
C930 C929 1.379 . S
H931 C925 0.959 . S
H932 C925 0.961 . S
H933 C925 0.960 . S
H934 C926 0.930 . S
H935 C927 0.929 . S
H936 C944 0.929 . S
H937 C946 0.930 . S
H938 C948 0.930 . S
H939 C951 0.929 . S
H940 C954 0.930 . S
H941 C956 0.960 . S
H942 C956 0.960 . S
H943 C956 0.960 . S
C944 H936 0.929 . S
C944 C945 1.377 . S
C944 C946 1.384 . S
C945 C944 1.377 . S
C945 C951 1.390 . S
C946 H937 0.930 . S
C946 C944 1.384 . S
C946 C947 1.372 . S
C947 C946 1.372 . S
C947 C948 1.400 . S
C947 C952 1.490 . S
C948 H938 0.930 . S
C948 C947 1.400 . S
C948 C951 1.386 . S
H949 C965 0.930 . S
H950 C966 0.931 . S
C951 H939 0.929 . S
C951 C945 1.390 . S
C951 C948 1.386 . S
C952 C947 1.490 . S
C952 C954 1.395 . S
C952 C955 1.403 . S
H953 C959 0.930 . S
C954 H940 0.930 . S
C954 C952 1.395 . S
C954 C957 1.403 . S
C955 C952 1.403 . S
C955 C956 1.524 . S
C955 C959 1.400 . S
C956 H941 0.960 . S
C956 H942 0.960 . S
C956 H943 0.960 . S
C956 C955 1.524 . S
C957 C954 1.403 . S
C957 C958 1.392 . S
C957 C961 1.495 . S
C958 C957 1.392 . S
C958 C959 1.385 . S
C958 C960 1.478 . S
C959 H953 0.930 . S
C959 C955 1.400 . S
C959 C958 1.385 . S
C960 C958 1.478 . S
C960 C962 1.381 . S
C960 C966 1.383 . S
C961 C957 1.495 . S
C961 H967 0.959 . S
C961 H968 0.961 . S
C961 H969 0.960 . S
C962 C960 1.381 . S
C962 C963 1.394 . S
C962 H970 0.930 . S
C963 C962 1.394 . S
C963 C964 1.383 . S
C963 H971 0.929 . S
C964 C963 1.383 . S
C964 C965 1.377 . S
C965 H949 0.930 . S
C965 C964 1.377 . S
C965 C966 1.379 . S
C966 H950 0.931 . S
C966 C960 1.383 . S
C966 C965 1.379 . S
H967 C961 0.959 . S
H968 C961 0.961 . S
H969 C961 0.960 . S
H970 C962 0.930 . S
H971 C963 0.929 . S
H972 C980 0.929 . S
H973 C982 0.930 . S
H974 C984 0.930 . S
H975 C987 0.929 . S
H976 C990 0.930 . S
H977 C992 0.960 . S
H978 C992 0.960 . S
H979 C992 0.960 . S
C980 H972 0.929 . S
C980 C981 1.377 . S
C980 C982 1.384 . S
C981 C980 1.377 . S
C981 C987 1.390 . S
C982 H973 0.930 . S
C982 C980 1.384 . S
C982 C983 1.372 . S
C983 C982 1.372 . S
C983 C984 1.400 . S
C983 C988 1.490 . S
C984 H974 0.930 . S
C984 C983 1.400 . S
C984 C987 1.386 . S
H985 C1001 0.930 . S
H986 C1002 0.931 . S
C987 H975 0.929 . S
C987 C981 1.390 . S
C987 C984 1.386 . S
C988 C983 1.490 . S
C988 C990 1.395 . S
C988 C991 1.403 . S
H989 C995 0.930 . S
C990 H976 0.930 . S
C990 C988 1.395 . S
C990 C993 1.403 . S
C991 C988 1.403 . S
C991 C992 1.524 . S
C991 C995 1.400 . S
C992 H977 0.960 . S
C992 H978 0.960 . S
C992 H979 0.960 . S
C992 C991 1.524 . S
C993 C990 1.403 . S
C993 C994 1.392 . S
C993 C997 1.495 . S
C994 C993 1.392 . S
C994 C995 1.385 . S
C994 C996 1.478 1_556 S
C995 H989 0.930 . S
C995 C991 1.400 . S
C995 C994 1.385 . S
C996 C994 1.478 1_554 S
C996 C998 1.381 . S
C996 C1002 1.383 . S
C997 C993 1.495 . S
C997 H1003 0.959 . S
C997 H1004 0.961 . S
C997 H1005 0.960 . S
C998 C996 1.381 . S
C998 C999 1.394 . S
C998 H1006 0.930 . S
C999 C998 1.394 . S
C999 C1000 1.383 . S
C999 H1007 0.929 . S
C1000 C999 1.383 . S
C1000 C1001 1.377 . S
C1001 H985 0.930 . S
C1001 C1000 1.377 . S
C1001 C1002 1.379 . S
C1002 H986 0.931 . S
C1002 C996 1.383 . S
C1002 C1001 1.379 . S
H1003 C997 0.959 . S
H1004 C997 0.961 . S
H1005 C997 0.960 . S
H1006 C998 0.930 . S
H1007 C999 0.929 . S
H1008 C1016 0.929 . S
H1009 C1018 0.930 . S
H1010 C1020 0.930 . S
H1011 C1023 0.929 . S
H1012 C1026 0.930 . S
H1013 C1028 0.960 . S
H1014 C1028 0.960 . S
H1015 C1028 0.960 . S
C1016 H1008 0.929 . S
C1016 C1017 1.377 . S
C1016 C1018 1.384 . S
C1017 C1016 1.377 . S
C1017 C1023 1.390 . S
C1018 H1009 0.930 . S
C1018 C1016 1.384 . S
C1018 C1019 1.372 . S
C1019 C1018 1.372 . S
C1019 C1020 1.400 . S
C1019 C1024 1.490 . S
C1020 H1010 0.930 . S
C1020 C1019 1.400 . S
C1020 C1023 1.386 . S
H1021 C1037 0.930 . S
H1022 C1038 0.931 . S
C1023 H1011 0.929 . S
C1023 C1017 1.390 . S
C1023 C1020 1.386 . S
C1024 C1019 1.490 . S
C1024 C1026 1.395 . S
C1024 C1027 1.403 . S
H1025 C1031 0.930 1_556 S
C1026 H1012 0.930 . S
C1026 C1024 1.395 . S
C1026 C1029 1.403 . S
C1027 C1024 1.403 . S
C1027 C1028 1.524 . S
C1027 C1031 1.400 . S
C1028 H1013 0.960 . S
C1028 H1014 0.960 . S
C1028 H1015 0.960 . S
C1028 C1027 1.524 . S
C1029 C1026 1.403 . S
C1029 C1030 1.392 1_554 S
C1029 C1033 1.495 1_554 S
C1030 C1029 1.392 1_556 S
C1030 C1031 1.385 1_556 S
C1030 C1032 1.478 . S
C1031 H1025 0.930 1_554 S
C1031 C1027 1.400 . S
C1031 C1030 1.385 1_554 S
C1032 C1030 1.478 . S
C1032 C1034 1.381 . S
C1032 C1038 1.383 . S
C1033 C1029 1.495 1_556 S
C1033 H1039 0.959 1_556 S
C1033 H1040 0.961 . S
C1033 H1041 0.960 . S
C1034 C1032 1.381 . S
C1034 C1035 1.394 . S
C1034 H1042 0.930 . S
C1035 C1034 1.394 . S
C1035 C1036 1.383 . S
C1035 H1043 0.929 . S
C1036 C1035 1.383 . S
C1036 C1037 1.377 . S
C1037 H1021 0.930 . S
C1037 C1036 1.377 . S
C1037 C1038 1.379 . S
C1038 H1022 0.931 . S
C1038 C1032 1.383 . S
C1038 C1037 1.379 . S
H1039 C1033 0.959 1_554 S
H1040 C1033 0.961 . S
H1041 C1033 0.960 . S
H1042 C1034 0.930 . S
H1043 C1035 0.929 . S
H1044 C1052 0.929 . S
H1045 C1054 0.930 . S
H1046 C1056 0.930 . S
H1047 C1059 0.929 . S
H1048 C1062 0.930 . S
H1049 C1064 0.960 . S
H1050 C1064 0.960 . S
H1051 C1064 0.960 . S
C1052 H1044 0.929 . S
C1052 C1053 1.377 . S
C1052 C1054 1.384 . S
C1053 C1052 1.377 . S
C1053 C1059 1.390 . S
C1054 H1045 0.930 . S
C1054 C1052 1.384 . S
C1054 C1055 1.372 . S
C1055 C1054 1.372 . S
C1055 C1056 1.400 . S
C1055 C1060 1.490 . S
C1056 H1046 0.930 . S
C1056 C1055 1.400 . S
C1056 C1059 1.386 . S
H1057 C1073 0.930 . S
H1058 C1074 0.931 . S
C1059 H1047 0.929 . S
C1059 C1053 1.390 . S
C1059 C1056 1.386 . S
C1060 C1055 1.490 . S
C1060 C1062 1.395 . S
C1060 C1063 1.403 . S
H1061 C1067 0.930 . S
C1062 H1048 0.930 . S
C1062 C1060 1.395 . S
C1062 C1065 1.403 . S
C1063 C1060 1.403 . S
C1063 C1064 1.524 . S
C1063 C1067 1.400 . S
C1064 H1049 0.960 . S
C1064 H1050 0.960 . S
C1064 H1051 0.960 . S
C1064 C1063 1.524 . S
C1065 C1062 1.403 . S
C1065 C1066 1.392 . S
C1065 C1069 1.495 . S
C1066 C1065 1.392 . S
C1066 C1067 1.385 . S
C1066 C1068 1.478 . S
C1067 H1061 0.930 . S
C1067 C1063 1.400 . S
C1067 C1066 1.385 . S
C1068 C1066 1.478 . S
C1068 C1070 1.381 . S
C1068 C1074 1.383 . S
C1069 C1065 1.495 . S
C1069 H1075 0.959 . S
C1069 H1076 0.961 . S
C1069 H1077 0.960 . S
C1070 C1068 1.381 . S
C1070 C1071 1.394 . S
C1070 H1078 0.930 . S
C1071 C1070 1.394 . S
C1071 C1072 1.383 . S
C1071 H1079 0.929 . S
C1072 C1071 1.383 . S
C1072 C1073 1.377 . S
C1073 H1057 0.930 . S
C1073 C1072 1.377 . S
C1073 C1074 1.379 . S
C1074 H1058 0.931 . S
C1074 C1068 1.383 . S
C1074 C1073 1.379 . S
H1075 C1069 0.959 . S
H1076 C1069 0.961 . S
H1077 C1069 0.960 . S
H1078 C1070 0.930 . S
H1079 C1071 0.929 . S
H1080 C1088 0.929 . S
H1081 C1090 0.930 . S
H1082 C1092 0.930 . S
H1083 C1095 0.929 . S
H1084 C1098 0.930 . S
H1085 C1100 0.960 . S
H1086 C1100 0.960 . S
H1087 C1100 0.960 . S
C1088 H1080 0.929 . S
C1088 C1089 1.377 . S
C1088 C1090 1.384 . S
C1089 C1088 1.377 . S
C1089 C1095 1.390 . S
C1090 H1081 0.930 . S
C1090 C1088 1.384 . S
C1090 C1091 1.372 . S
C1091 C1090 1.372 . S
C1091 C1092 1.400 . S
C1091 C1096 1.490 . S
C1092 H1082 0.930 . S
C1092 C1091 1.400 . S
C1092 C1095 1.386 . S
H1093 C1109 0.930 . S
H1094 C1110 0.931 . S
C1095 H1083 0.929 . S
C1095 C1089 1.390 . S
C1095 C1092 1.386 . S
C1096 C1091 1.490 . S
C1096 C1098 1.395 . S
C1096 C1099 1.403 . S
H1097 C1103 0.930 . S
C1098 H1084 0.930 . S
C1098 C1096 1.395 . S
C1098 C1101 1.403 . S
C1099 C1096 1.403 . S
C1099 C1100 1.524 . S
C1099 C1103 1.400 . S
C1100 H1085 0.960 . S
C1100 H1086 0.960 . S
C1100 H1087 0.960 . S
C1100 C1099 1.524 . S
C1101 C1098 1.403 . S
C1101 C1102 1.392 . S
C1101 C1105 1.495 . S
C1102 C1101 1.392 . S
C1102 C1103 1.385 . S
C1102 C1104 1.478 . S
C1103 H1097 0.930 . S
C1103 C1099 1.400 . S
C1103 C1102 1.385 . S
C1104 C1102 1.478 . S
C1104 C1106 1.381 . S
C1104 C1110 1.383 . S
C1105 C1101 1.495 . S
C1105 H1111 0.959 . S
C1105 H1112 0.961 . S
C1105 H1113 0.960 . S
C1106 C1104 1.381 . S
C1106 C1107 1.394 . S
C1106 H1114 0.930 . S
C1107 C1106 1.394 . S
C1107 C1108 1.383 . S
C1107 H1115 0.929 . S
C1108 C1107 1.383 . S
C1108 C1109 1.377 . S
C1109 H1093 0.930 . S
C1109 C1108 1.377 . S
C1109 C1110 1.379 . S
C1110 H1094 0.931 . S
C1110 C1104 1.383 . S
C1110 C1109 1.379 . S
H1111 C1105 0.959 . S
H1112 C1105 0.961 . S
H1113 C1105 0.960 . S
H1114 C1106 0.930 . S
H1115 C1107 0.929 . S
H1116 C1124 0.929 . S
H1117 C1126 0.930 . S
H1118 C1128 0.930 . S
H1119 C1131 0.929 . S
H1120 C1134 0.930 . S
H1121 C1136 0.960 . S
H1122 C1136 0.960 . S
H1123 C1136 0.960 . S
C1124 H1116 0.929 . S
C1124 C1125 1.377 . S
C1124 C1126 1.384 . S
C1125 C1124 1.377 . S
C1125 C1131 1.390 . S
C1126 H1117 0.930 . S
C1126 C1124 1.384 . S
C1126 C1127 1.372 . S
C1127 C1126 1.372 . S
C1127 C1128 1.400 . S
C1127 C1132 1.490 . S
C1128 H1118 0.930 . S
C1128 C1127 1.400 . S
C1128 C1131 1.386 . S
H1129 C1145 0.930 . S
H1130 C1146 0.931 . S
C1131 H1119 0.929 . S
C1131 C1125 1.390 . S
C1131 C1128 1.386 . S
C1132 C1127 1.490 . S
C1132 C1134 1.395 . S
C1132 C1135 1.403 . S
H1133 C1139 0.930 . S
C1134 H1120 0.930 . S
C1134 C1132 1.395 . S
C1134 C1137 1.403 . S
C1135 C1132 1.403 . S
C1135 C1136 1.524 . S
C1135 C1139 1.400 . S
C1136 H1121 0.960 . S
C1136 H1122 0.960 . S
C1136 H1123 0.960 . S
C1136 C1135 1.524 . S
C1137 C1134 1.403 . S
C1137 C1138 1.392 . S
C1137 C1141 1.495 . S
C1138 C1137 1.392 . S
C1138 C1139 1.385 . S
C1138 C1140 1.478 . S
C1139 H1133 0.930 . S
C1139 C1135 1.400 . S
C1139 C1138 1.385 . S
C1140 C1138 1.478 . S
C1140 C1142 1.381 . S
C1140 C1146 1.383 . S
C1141 C1137 1.495 . S
C1141 H1147 0.959 . S
C1141 H1148 0.961 . S
C1141 H1149 0.960 . S
C1142 C1140 1.381 . S
C1142 C1143 1.394 . S
C1142 H1150 0.930 . S
C1143 C1142 1.394 . S
C1143 C1144 1.383 . S
C1143 H1151 0.929 . S
C1144 C1143 1.383 . S
C1144 C1145 1.377 . S
C1145 H1129 0.930 . S
C1145 C1144 1.377 . S
C1145 C1146 1.379 . S
C1146 H1130 0.931 . S
C1146 C1140 1.383 . S
C1146 C1145 1.379 . S
H1147 C1141 0.959 . S
H1148 C1141 0.961 . S
H1149 C1141 0.960 . S
H1150 C1142 0.930 . S
H1151 C1143 0.929 . S
H1152 C1160 0.929 . S
H1153 C1162 0.930 . S
H1154 C1164 0.930 . S
H1155 C1167 0.929 . S
H1156 C1170 0.930 . S
H1157 C1172 0.960 . S
H1158 C1172 0.960 . S
H1159 C1172 0.960 . S
C1160 H1152 0.929 . S
C1160 C1161 1.377 . S
C1160 C1162 1.384 . S
C1161 C1160 1.377 . S
C1161 C1167 1.390 . S
C1162 H1153 0.930 . S
C1162 C1160 1.384 . S
C1162 C1163 1.372 . S
C1163 C1162 1.372 . S
C1163 C1164 1.400 . S
C1163 C1168 1.490 . S
C1164 H1154 0.930 . S
C1164 C1163 1.400 . S
C1164 C1167 1.386 . S
H1165 C1181 0.930 . S
H1166 C1182 0.931 . S
C1167 H1155 0.929 . S
C1167 C1161 1.390 . S
C1167 C1164 1.386 . S
C1168 C1163 1.490 . S
C1168 C1170 1.395 . S
C1168 C1171 1.403 . S
H1169 C1175 0.930 . S
C1170 H1156 0.930 . S
C1170 C1168 1.395 . S
C1170 C1173 1.403 . S
C1171 C1168 1.403 . S
C1171 C1172 1.524 . S
C1171 C1175 1.400 . S
C1172 H1157 0.960 . S
C1172 H1158 0.960 . S
C1172 H1159 0.960 . S
C1172 C1171 1.524 . S
C1173 C1170 1.403 . S
C1173 C1174 1.392 . S
C1173 C1177 1.495 . S
C1174 C1173 1.392 . S
C1174 C1175 1.385 . S
C1174 C1176 1.478 . S
C1175 H1169 0.930 . S
C1175 C1171 1.400 . S
C1175 C1174 1.385 . S
C1176 C1174 1.478 . S
C1176 C1178 1.381 . S
C1176 C1182 1.383 . S
C1177 C1173 1.495 . S
C1177 H1183 0.959 . S
C1177 H1184 0.961 . S
C1177 H1185 0.960 . S
C1178 C1176 1.381 . S
C1178 C1179 1.394 . S
C1178 H1186 0.930 . S
C1179 C1178 1.394 . S
C1179 C1180 1.383 . S
C1179 H1187 0.929 . S
C1180 C1179 1.383 . S
C1180 C1181 1.377 . S
C1181 H1165 0.930 . S
C1181 C1180 1.377 . S
C1181 C1182 1.379 . S
C1182 H1166 0.931 . S
C1182 C1176 1.383 . S
C1182 C1181 1.379 . S
H1183 C1177 0.959 . S
H1184 C1177 0.961 . S
H1185 C1177 0.960 . S
H1186 C1178 0.930 . S
H1187 C1179 0.929 . S
H1188 C1196 0.929 . S
H1189 C1198 0.930 . S
H1190 C1200 0.930 1_554 S
H1191 C1203 0.929 . S
H1192 C1206 0.930 . S
H1193 C1208 0.960 . S
H1194 C1208 0.960 . S
H1195 C1208 0.960 . S
C1196 H1188 0.929 . S
C1196 C1197 1.377 . S
C1196 C1198 1.384 . S
C1197 C1196 1.377 . S
C1197 C1203 1.390 1_556 S
C1198 H1189 0.930 . S
C1198 C1196 1.384 . S
C1198 C1199 1.372 . S
C1199 C1198 1.372 . S
C1199 C1200 1.400 . S
C1199 C1204 1.490 . S
C1200 H1190 0.930 1_556 S
C1200 C1199 1.400 . S
C1200 C1203 1.386 1_556 S
H1201 C1217 0.930 . S
H1202 C1218 0.931 . S
C1203 H1191 0.929 . S
C1203 C1197 1.390 1_554 S
C1203 C1200 1.386 1_554 S
C1204 C1199 1.490 . S
C1204 C1206 1.395 . S
C1204 C1207 1.403 . S
H1205 C1211 0.930 . S
C1206 H1192 0.930 . S
C1206 C1204 1.395 . S
C1206 C1209 1.403 . S
C1207 C1204 1.403 . S
C1207 C1208 1.524 . S
C1207 C1211 1.400 . S
C1208 H1193 0.960 . S
C1208 H1194 0.960 . S
C1208 H1195 0.960 . S
C1208 C1207 1.524 . S
C1209 C1206 1.403 . S
C1209 C1210 1.392 . S
C1209 C1213 1.495 . S
C1210 C1209 1.392 . S
C1210 C1211 1.385 . S
C1210 C1212 1.478 . S
C1211 H1205 0.930 . S
C1211 C1207 1.400 . S
C1211 C1210 1.385 . S
C1212 C1210 1.478 . S
C1212 C1214 1.381 . S
C1212 C1218 1.383 . S
C1213 C1209 1.495 . S
C1213 H1219 0.959 . S
C1213 H1220 0.961 . S
C1213 H1221 0.960 . S
C1214 C1212 1.381 . S
C1214 C1215 1.394 . S
C1214 H1222 0.930 . S
C1215 C1214 1.394 . S
C1215 C1216 1.383 . S
C1215 H1223 0.929 . S
C1216 C1215 1.383 . S
C1216 C1217 1.377 . S
C1217 H1201 0.930 . S
C1217 C1216 1.377 . S
C1217 C1218 1.379 . S
C1218 H1202 0.931 . S
C1218 C1212 1.383 . S
C1218 C1217 1.379 . S
H1219 C1213 0.959 . S
H1220 C1213 0.961 . S
H1221 C1213 0.960 . S
H1222 C1214 0.930 . S
H1223 C1215 0.929 . S
H1224 C1232 0.929 . S
H1225 C1234 0.930 . S
H1226 C1236 0.930 . S
H1227 C1239 0.929 . S
H1228 C1242 0.930 . S
H1229 C1244 0.960 . S
H1230 C1244 0.960 . S
H1231 C1244 0.960 . S
C1232 H1224 0.929 . S
C1232 C1233 1.377 . S
C1232 C1234 1.384 . S
C1233 C1232 1.377 . S
C1233 C1239 1.390 . S
C1234 H1225 0.930 . S
C1234 C1232 1.384 . S
C1234 C1235 1.372 . S
C1235 C1234 1.372 . S
C1235 C1236 1.400 . S
C1235 C1240 1.490 . S
C1236 H1226 0.930 . S
C1236 C1235 1.400 . S
C1236 C1239 1.386 . S
H1237 C1253 0.930 . S
H1238 C1254 0.931 . S
C1239 H1227 0.929 . S
C1239 C1233 1.390 . S
C1239 C1236 1.386 . S
C1240 C1235 1.490 . S
C1240 C1242 1.395 . S
C1240 C1243 1.403 . S
H1241 C1247 0.930 . S
C1242 H1228 0.930 . S
C1242 C1240 1.395 . S
C1242 C1245 1.403 . S
C1243 C1240 1.403 . S
C1243 C1244 1.524 . S
C1243 C1247 1.400 . S
C1244 H1229 0.960 . S
C1244 H1230 0.960 . S
C1244 H1231 0.960 . S
C1244 C1243 1.524 . S
C1245 C1242 1.403 . S
C1245 C1246 1.392 . S
C1245 C1249 1.495 . S
C1246 C1245 1.392 . S
C1246 C1247 1.385 . S
C1246 C1248 1.478 . S
C1247 H1241 0.930 . S
C1247 C1243 1.400 . S
C1247 C1246 1.385 . S
C1248 C1246 1.478 . S
C1248 C1250 1.381 . S
C1248 C1254 1.383 1_554 S
C1249 C1245 1.495 . S
C1249 H1255 0.959 . S
C1249 H1256 0.961 1_554 S
C1249 H1257 0.960 . S
C1250 C1248 1.381 . S
C1250 C1251 1.394 . S
C1250 H1258 0.930 . S
C1251 C1250 1.394 . S
C1251 C1252 1.383 . S
C1251 H1259 0.929 . S
C1252 C1251 1.383 . S
C1252 C1253 1.377 1_554 S
C1253 H1237 0.930 . S
C1253 C1252 1.377 1_556 S
C1253 C1254 1.379 . S
C1254 H1238 0.931 . S
C1254 C1248 1.383 1_556 S
C1254 C1253 1.379 . S
H1255 C1249 0.959 . S
H1256 C1249 0.961 1_556 S
H1257 C1249 0.960 . S
H1258 C1250 0.930 . S
H1259 C1251 0.929 . S
H1260 C1268 0.929 . S
H1261 C1270 0.930 1_556 S
H1262 C1272 0.930 . S
H1263 C1275 0.929 . S
H1264 C1278 0.930 . S
H1265 C1280 0.960 1_565 S
H1266 C1280 0.960 . S
H1267 C1280 0.960 . S
C1268 H1260 0.929 . S
C1268 C1269 1.377 . S
C1268 C1270 1.384 . S
C1269 C1268 1.377 . S
C1269 C1275 1.390 . S
C1270 H1261 0.930 1_554 S
C1270 C1268 1.384 . S
C1270 C1271 1.372 . S
C1271 C1270 1.372 . S
C1271 C1272 1.400 . S
C1271 C1276 1.490 . S
C1272 H1262 0.930 . S
C1272 C1271 1.400 . S
C1272 C1275 1.386 . S
H1273 C1289 0.930 . S
H1274 C1290 0.931 1_554 S
C1275 H1263 0.929 . S
C1275 C1269 1.390 . S
C1275 C1272 1.386 . S
C1276 C1271 1.490 . S
C1276 C1278 1.395 1_554 S
C1276 C1279 1.403 . S
H1277 C1283 0.930 . S
C1278 H1264 0.930 . S
C1278 C1276 1.395 1_556 S
C1278 C1281 1.403 1_545 S
C1279 C1276 1.403 . S
C1279 C1280 1.524 . S
C1279 C1283 1.400 1_545 S
C1280 H1265 0.960 1_545 S
C1280 H1266 0.960 . S
C1280 H1267 0.960 . S
C1280 C1279 1.524 . S
C1281 C1278 1.403 1_565 S
C1281 C1282 1.392 . S
C1281 C1285 1.495 . S
C1282 C1281 1.392 . S
C1282 C1283 1.385 1_556 S
C1282 C1284 1.478 . S
C1283 H1277 0.930 . S
C1283 C1279 1.400 1_565 S
C1283 C1282 1.385 1_554 S
C1284 C1282 1.478 . S
C1284 C1286 1.381 . S
C1284 C1290 1.383 . S
C1285 C1281 1.495 . S
C1285 H1291 0.959 1_565 S
C1285 H1292 0.961 . S
C1285 H1293 0.960 . S
C1286 C1284 1.381 . S
C1286 C1287 1.394 . S
C1286 H1294 0.930 . S
C1287 C1286 1.394 . S
C1287 C1288 1.383 . S
C1287 H1295 0.929 . S
C1288 C1287 1.383 . S
C1288 C1289 1.377 . S
C1289 H1273 0.930 . S
C1289 C1288 1.377 . S
C1289 C1290 1.379 . S
C1290 H1274 0.931 1_556 S
C1290 C1284 1.383 . S
C1290 C1289 1.379 . S
H1291 C1285 0.959 1_545 S
H1292 C1285 0.961 . S
H1293 C1285 0.960 . S
H1294 C1286 0.930 . S
H1295 C1287 0.929 . S
H1296 C1304 0.929 . S
H1297 C1306 0.930 . S
H1298 C1308 0.930 . S
H1299 C1311 0.929 . S
H1300 C1314 0.930 . S
H1301 C1316 0.960 . S
H1302 C1316 0.960 . S
H1303 C1316 0.960 . S
C1304 H1296 0.929 . S
C1304 C1305 1.377 . S
C1304 C1306 1.384 . S
C1305 C1304 1.377 . S
C1305 C1311 1.390 . S
C1306 H1297 0.930 . S
C1306 C1304 1.384 . S
C1306 C1307 1.372 . S
C1307 C1306 1.372 . S
C1307 C1308 1.400 . S
C1307 C1312 1.490 . S
C1308 H1298 0.930 . S
C1308 C1307 1.400 . S
C1308 C1311 1.386 . S
H1309 C1325 0.930 . S
H1310 C1326 0.931 . S
C1311 H1299 0.929 . S
C1311 C1305 1.390 . S
C1311 C1308 1.386 . S
C1312 C1307 1.490 . S
C1312 C1314 1.395 . S
C1312 C1315 1.403 . S
H1313 C1319 0.930 . S
C1314 H1300 0.930 . S
C1314 C1312 1.395 . S
C1314 C1317 1.403 . S
C1315 C1312 1.403 . S
C1315 C1316 1.524 . S
C1315 C1319 1.400 . S
C1316 H1301 0.960 . S
C1316 H1302 0.960 . S
C1316 H1303 0.960 . S
C1316 C1315 1.524 . S
C1317 C1314 1.403 . S
C1317 C1318 1.392 . S
C1317 C1321 1.495 . S
C1318 C1317 1.392 . S
C1318 C1319 1.385 . S
C1318 C1320 1.478 . S
C1319 H1313 0.930 . S
C1319 C1315 1.400 . S
C1319 C1318 1.385 . S
C1320 C1318 1.478 . S
C1320 C1322 1.381 . S
C1320 C1326 1.383 . S
C1321 C1317 1.495 . S
C1321 H1327 0.959 . S
C1321 H1328 0.961 . S
C1321 H1329 0.960 . S
C1322 C1320 1.381 . S
C1322 C1323 1.394 . S
C1322 H1330 0.930 . S
C1323 C1322 1.394 . S
C1323 C1324 1.383 . S
C1323 H1331 0.929 . S
C1324 C1323 1.383 . S
C1324 C1325 1.377 . S
C1325 H1309 0.930 . S
C1325 C1324 1.377 . S
C1325 C1326 1.379 . S
C1326 H1310 0.931 . S
C1326 C1320 1.383 . S
C1326 C1325 1.379 . S
H1327 C1321 0.959 . S
H1328 C1321 0.961 . S
H1329 C1321 0.960 . S
H1330 C1322 0.930 . S
H1331 C1323 0.929 . S
H1332 C1340 0.929 . S
H1333 C1342 0.930 . S
H1334 C1344 0.930 . S
H1335 C1347 0.929 . S
H1336 C1350 0.930 . S
H1337 C1352 0.960 1_655 S
H1338 C1352 0.960 . S
H1339 C1352 0.960 . S
C1340 H1332 0.929 . S
C1340 C1341 1.377 . S
C1340 C1342 1.384 . S
C1341 C1340 1.377 . S
C1341 C1347 1.390 . S
C1342 H1333 0.930 . S
C1342 C1340 1.384 . S
C1342 C1343 1.372 . S
C1343 C1342 1.372 . S
C1343 C1344 1.400 . S
C1343 C1348 1.490 . S
C1344 H1334 0.930 . S
C1344 C1343 1.400 . S
C1344 C1347 1.386 . S
H1345 C1361 0.930 . S
H1346 C1362 0.931 . S
C1347 H1335 0.929 . S
C1347 C1341 1.390 . S
C1347 C1344 1.386 . S
C1348 C1343 1.490 . S
C1348 C1350 1.395 . S
C1348 C1351 1.403 . S
H1349 C1355 0.930 . S
C1350 H1336 0.930 . S
C1350 C1348 1.395 . S
C1350 C1353 1.403 1_455 S
C1351 C1348 1.403 . S
C1351 C1352 1.524 . S
C1351 C1355 1.400 1_455 S
C1352 H1337 0.960 1_455 S
C1352 H1338 0.960 . S
C1352 H1339 0.960 . S
C1352 C1351 1.524 . S
C1353 C1350 1.403 1_655 S
C1353 C1354 1.392 . S
C1353 C1357 1.495 . S
C1354 C1353 1.392 . S
C1354 C1355 1.385 . S
C1354 C1356 1.478 . S
C1355 H1349 0.930 . S
C1355 C1351 1.400 1_655 S
C1355 C1354 1.385 . S
C1356 C1354 1.478 . S
C1356 C1358 1.381 . S
C1356 C1362 1.383 . S
C1357 C1353 1.495 . S
C1357 H1363 0.959 1_655 S
C1357 H1364 0.961 . S
C1357 H1365 0.960 . S
C1358 C1356 1.381 . S
C1358 C1359 1.394 . S
C1358 H1366 0.930 . S
C1359 C1358 1.394 . S
C1359 C1360 1.383 . S
C1359 H1367 0.929 . S
C1360 C1359 1.383 . S
C1360 C1361 1.377 . S
C1361 H1345 0.930 . S
C1361 C1360 1.377 . S
C1361 C1362 1.379 . S
C1362 H1346 0.931 . S
C1362 C1356 1.383 . S
C1362 C1361 1.379 . S
H1363 C1357 0.959 1_455 S
H1364 C1357 0.961 . S
H1365 C1357 0.960 . S
H1366 C1358 0.930 . S
H1367 C1359 0.929 . S
H1368 C1376 0.929 . S
H1369 C1378 0.930 . S
H1370 C1380 0.930 . S
H1371 C1383 0.929 . S
H1372 C1386 0.930 . S
H1373 C1388 0.960 . S
H1374 C1388 0.960 . S
H1375 C1388 0.960 . S
C1376 H1368 0.929 . S
C1376 C1377 1.377 . S
C1376 C1378 1.384 . S
C1377 C1376 1.377 . S
C1377 C1383 1.390 . S
C1378 H1369 0.930 . S
C1378 C1376 1.384 . S
C1378 C1379 1.372 . S
C1379 C1378 1.372 . S
C1379 C1380 1.400 . S
C1379 C1384 1.490 . S
C1380 H1370 0.930 . S
C1380 C1379 1.400 . S
C1380 C1383 1.386 . S
H1381 C1397 0.930 . S
H1382 C1398 0.931 . S
C1383 H1371 0.929 . S
C1383 C1377 1.390 . S
C1383 C1380 1.386 . S
C1384 C1379 1.490 . S
C1384 C1386 1.395 . S
C1384 C1387 1.403 . S
H1385 C1391 0.930 . S
C1386 H1372 0.930 . S
C1386 C1384 1.395 . S
C1386 C1389 1.403 1_565 S
C1387 C1384 1.403 . S
C1387 C1388 1.524 . S
C1387 C1391 1.400 1_565 S
C1388 H1373 0.960 . S
C1388 H1374 0.960 . S
C1388 H1375 0.960 . S
C1388 C1387 1.524 . S
C1389 C1386 1.403 1_545 S
C1389 C1390 1.392 . S
C1389 C1393 1.495 . S
C1390 C1389 1.392 . S
C1390 C1391 1.385 . S
C1390 C1392 1.478 . S
C1391 H1385 0.930 . S
C1391 C1387 1.400 1_545 S
C1391 C1390 1.385 . S
C1392 C1390 1.478 . S
C1392 C1394 1.381 . S
C1392 C1398 1.383 . S
C1393 C1389 1.495 . S
C1393 H1399 0.959 . S
C1393 H1400 0.961 . S
C1393 H1401 0.960 . S
C1394 C1392 1.381 . S
C1394 C1395 1.394 . S
C1394 H1402 0.930 . S
C1395 C1394 1.394 . S
C1395 C1396 1.383 . S
C1395 H1403 0.929 . S
C1396 C1395 1.383 . S
C1396 C1397 1.377 . S
C1397 H1381 0.930 . S
C1397 C1396 1.377 . S
C1397 C1398 1.379 . S
C1398 H1382 0.931 . S
C1398 C1392 1.383 . S
C1398 C1397 1.379 . S
H1399 C1393 0.959 . S
H1400 C1393 0.961 . S
H1401 C1393 0.960 . S
H1402 C1394 0.930 . S
H1403 C1395 0.929 . S
H1404 C1412 0.929 . S
H1405 C1414 0.930 . S
H1406 C1416 0.930 . S
H1407 C1419 0.929 . S
H1408 C1422 0.930 . S
H1409 C1424 0.960 . S
H1410 C1424 0.960 . S
H1411 C1424 0.960 . S
C1412 H1404 0.929 . S
C1412 C1413 1.377 . S
C1412 C1414 1.384 . S
C1413 C1412 1.377 . S
C1413 C1419 1.390 . S
C1414 H1405 0.930 . S
C1414 C1412 1.384 . S
C1414 C1415 1.372 . S
C1415 C1414 1.372 . S
C1415 C1416 1.400 . S
C1415 C1420 1.490 . S
C1416 H1406 0.930 . S
C1416 C1415 1.400 . S
C1416 C1419 1.386 . S
H1417 C1433 0.930 . S
H1418 C1434 0.931 . S
C1419 H1407 0.929 . S
C1419 C1413 1.390 . S
C1419 C1416 1.386 . S
C1420 C1415 1.490 . S
C1420 C1422 1.395 . S
C1420 C1423 1.403 . S
H1421 C1427 0.930 . S
C1422 H1408 0.930 . S
C1422 C1420 1.395 . S
C1422 C1425 1.403 . S
C1423 C1420 1.403 . S
C1423 C1424 1.524 . S
C1423 C1427 1.400 . S
C1424 H1409 0.960 . S
C1424 H1410 0.960 . S
C1424 H1411 0.960 . S
C1424 C1423 1.524 . S
C1425 C1422 1.403 . S
C1425 C1426 1.392 . S
C1425 C1429 1.495 . S
C1426 C1425 1.392 . S
C1426 C1427 1.385 . S
C1426 C1428 1.478 . S
C1427 H1421 0.930 . S
C1427 C1423 1.400 . S
C1427 C1426 1.385 . S
C1428 C1426 1.478 . S
C1428 C1430 1.381 . S
C1428 C1434 1.383 . S
C1429 C1425 1.495 . S
C1429 H1435 0.959 . S
C1429 H1436 0.961 . S
C1429 H1437 0.960 . S
C1430 C1428 1.381 . S
C1430 C1431 1.394 . S
C1430 H1438 0.930 . S
C1431 C1430 1.394 . S
C1431 C1432 1.383 . S
C1431 H1439 0.929 . S
C1432 C1431 1.383 . S
C1432 C1433 1.377 . S
C1433 H1417 0.930 . S
C1433 C1432 1.377 . S
C1433 C1434 1.379 . S
C1434 H1418 0.931 . S
C1434 C1428 1.383 . S
C1434 C1433 1.379 . S
H1435 C1429 0.959 . S
H1436 C1429 0.961 . S
H1437 C1429 0.960 . S
H1438 C1430 0.930 . S
H1439 C1431 0.929 . S
H1440 C1448 0.929 . S
H1441 C1450 0.930 . S
H1442 C1452 0.930 . S
H1443 C1455 0.929 . S
H1444 C1458 0.930 . S
H1445 C1460 0.960 . S
H1446 C1460 0.960 . S
H1447 C1460 0.960 . S
C1448 H1440 0.929 . S
C1448 C1449 1.377 . S
C1448 C1450 1.384 . S
C1449 C1448 1.377 . S
C1449 C1455 1.390 . S
C1450 H1441 0.930 . S
C1450 C1448 1.384 . S
C1450 C1451 1.372 . S
C1451 C1450 1.372 . S
C1451 C1452 1.400 . S
C1451 C1456 1.490 . S
C1452 H1442 0.930 . S
C1452 C1451 1.400 . S
C1452 C1455 1.386 . S
H1453 C1469 0.930 . S
H1454 C1470 0.931 . S
C1455 H1443 0.929 . S
C1455 C1449 1.390 . S
C1455 C1452 1.386 . S
C1456 C1451 1.490 . S
C1456 C1458 1.395 . S
C1456 C1459 1.403 . S
H1457 C1463 0.930 . S
C1458 H1444 0.930 . S
C1458 C1456 1.395 . S
C1458 C1461 1.403 1_455 S
C1459 C1456 1.403 . S
C1459 C1460 1.524 . S
C1459 C1463 1.400 1_455 S
C1460 H1445 0.960 . S
C1460 H1446 0.960 . S
C1460 H1447 0.960 . S
C1460 C1459 1.524 . S
C1461 C1458 1.403 1_655 S
C1461 C1462 1.392 . S
C1461 C1465 1.495 . S
C1462 C1461 1.392 . S
C1462 C1463 1.385 . S
C1462 C1464 1.478 . S
C1463 H1457 0.930 . S
C1463 C1459 1.400 1_655 S
C1463 C1462 1.385 . S
C1464 C1462 1.478 . S
C1464 C1466 1.381 . S
C1464 C1470 1.383 . S
C1465 C1461 1.495 . S
C1465 H1471 0.959 . S
C1465 H1472 0.961 . S
C1465 H1473 0.960 . S
C1466 C1464 1.381 . S
C1466 C1467 1.394 . S
C1466 H1474 0.930 . S
C1467 C1466 1.394 . S
C1467 C1468 1.383 . S
C1467 H1475 0.929 . S
C1468 C1467 1.383 . S
C1468 C1469 1.377 . S
C1469 H1453 0.930 . S
C1469 C1468 1.377 . S
C1469 C1470 1.379 . S
C1470 H1454 0.931 . S
C1470 C1464 1.383 . S
C1470 C1469 1.379 . S
H1471 C1465 0.959 . S
H1472 C1465 0.961 . S
H1473 C1465 0.960 . S
H1474 C1466 0.930 . S
H1475 C1467 0.929 . S
C405 C281 1.209 . S
C424 C17 1.223 . S
C441 C314 1.214 . S
C460 C50 1.198 . S
C477 C347 1.214 . S
C496 C83 1.205 . S
C513 C380 1.215 . S
C532 C116 1.203 . S
C549 C149 1.212 . S
C568 C215 1.219 . S
C585 C248 1.209 . S
C604 C182 1.217 . S
C621 N5 1.389 . S
C640 N14 1.376 . S
C657 N47 1.386 . S
C676 N38 1.374 . S
C693 N80 1.389 . S
C712 N71 1.403 . S
C729 N113 1.390 . S
C748 N104 1.401 . S
C765 N146 1.388 1_554 S
C784 N137 1.403 . S
C801 N179 1.388 . S
C820 N170 1.403 . S
C837 N203 1.394 . S
C856 N212 1.399 . S
C873 N245 1.384 . S
C892 N236 1.379 . S
C909 N269 1.393 . S
C928 N278 1.374 . S
C945 N302 1.394 . S
C964 N311 1.389 1_556 S
C981 N335 1.392 . S
C1000 N344 1.370 . S
C1017 N377 1.387 . S
C1036 N368 1.402 . S
C1053 C8 1.568 . S
C1072 C338 1.570 . S
C1089 C41 1.567 . S
C1108 C371 1.559 . S
C1125 C74 1.566 . S
C1144 C206 1.562 . S
C1161 C239 1.568 . S
C1180 C107 1.568 . S
C1197 C272 1.567 1_556 S
C1216 C140 1.558 . S
C1233 C305 1.567 . S
C1252 C173 1.569 1_554 S
C1269 C28 1.050 . S
C1288 C259 1.029 . S
C1305 C292 1.050 . S
C1324 C61 1.044 . S
C1341 C325 1.047 . S
C1360 C94 1.058 . S
C1377 C127 1.043 . S
C1396 C358 1.021 . S
C1413 C391 1.041 . S
C1432 C160 1.068 . S
C1449 C193 1.039 . S
C1468 C226 1.059 . S
