# Generated by pormake.
# Topology yfb, (5)-cn, num edge types: 1
# Building blocks:
#     Node 0, Type 0, BuildingBlock: XOMCOT_clean_sbu_1, # of connection points: 5
#     Node 1, Type 0, BuildingBlock: XOMCOT_clean_sbu_1, # of connection points: 5
#     Node 2, Type 0, BuildingBlock: XOMCOT_clean_sbu_1, # of connection points: 5
#     Node 3, Type 0, BuildingBlock: XOMCOT_clean_sbu_1, # of connection points: 5
#     Node 4, Type 0, BuildingBlock: XOMCOT_clean_sbu_1, # of connection points: 5
#     Node 5, Type 0, BuildingBlock: XOMCOT_clean_sbu_1, # of connection points: 5
#     Node 6, Type 0, BuildingBlock: XOMCOT_clean_sbu_1, # of connection points: 5
#     Node 7, Type 0, BuildingBlock: XOMCOT_clean_sbu_1, # of connection points: 5
#     Node 8, Type 0, BuildingBlock: XOMCOT_clean_sbu_1, # of connection points: 5
#     Node 9, Type 0, BuildingBlock: XOMCOT_clean_sbu_1, # of connection points: 5
#     Node 10, Type 0, BuildingBlock: XOMCOT_clean_sbu_1, # of connection points: 5
#     Node 11, Type 0, BuildingBlock: XOMCOT_clean_sbu_1, # of connection points: 5
#     Node 12, Type 0, BuildingBlock: XOMCOT_clean_sbu_1, # of connection points: 5
#     Node 13, Type 0, BuildingBlock: XOMCOT_clean_sbu_1, # of connection points: 5
#     Node 14, Type 0, BuildingBlock: XOMCOT_clean_sbu_1, # of connection points: 5
#     Node 15, Type 0, BuildingBlock: XOMCOT_clean_sbu_1, # of connection points: 5
#     Edge 16, Type (0, 0), BuildingBlock: CIFDUS_clean_linker_0, # of connection points: 2
#     Edge 17, Type (0, 0), BuildingBlock: CIFDUS_clean_linker_0, # of connection points: 2
#     Edge 18, Type (0, 0), BuildingBlock: CIFDUS_clean_linker_0, # of connection points: 2
#     Edge 19, Type (0, 0), BuildingBlock: CIFDUS_clean_linker_0, # of connection points: 2
#     Edge 20, Type (0, 0), BuildingBlock: CIFDUS_clean_linker_0, # of connection points: 2
#     Edge 21, Type (0, 0), BuildingBlock: CIFDUS_clean_linker_0, # of connection points: 2
#     Edge 22, Type (0, 0), BuildingBlock: CIFDUS_clean_linker_0, # of connection points: 2
#     Edge 23, Type (0, 0), BuildingBlock: CIFDUS_clean_linker_0, # of connection points: 2
#     Edge 24, Type (0, 0), BuildingBlock: CIFDUS_clean_linker_0, # of connection points: 2
#     Edge 25, Type (0, 0), BuildingBlock: CIFDUS_clean_linker_0, # of connection points: 2
#     Edge 26, Type (0, 0), BuildingBlock: CIFDUS_clean_linker_0, # of connection points: 2
#     Edge 27, Type (0, 0), BuildingBlock: CIFDUS_clean_linker_0, # of connection points: 2
#     Edge 28, Type (0, 0), BuildingBlock: CIFDUS_clean_linker_0, # of connection points: 2
#     Edge 29, Type (0, 0), BuildingBlock: CIFDUS_clean_linker_0, # of connection points: 2
#     Edge 30, Type (0, 0), BuildingBlock: CIFDUS_clean_linker_0, # of connection points: 2
#     Edge 31, Type (0, 0), BuildingBlock: CIFDUS_clean_linker_0, # of connection points: 2
#     Edge 32, Type (0, 0), BuildingBlock: CIFDUS_clean_linker_0, # of connection points: 2
#     Edge 33, Type (0, 0), BuildingBlock: CIFDUS_clean_linker_0, # of connection points: 2
#     Edge 34, Type (0, 0), BuildingBlock: CIFDUS_clean_linker_0, # of connection points: 2
#     Edge 35, Type (0, 0), BuildingBlock: CIFDUS_clean_linker_0, # of connection points: 2
#     Edge 36, Type (0, 0), BuildingBlock: CIFDUS_clean_linker_0, # of connection points: 2
#     Edge 37, Type (0, 0), BuildingBlock: CIFDUS_clean_linker_0, # of connection points: 2
#     Edge 38, Type (0, 0), BuildingBlock: CIFDUS_clean_linker_0, # of connection points: 2
#     Edge 39, Type (0, 0), BuildingBlock: CIFDUS_clean_linker_0, # of connection points: 2
#     Edge 40, Type (0, 0), BuildingBlock: CIFDUS_clean_linker_0, # of connection points: 2
#     Edge 41, Type (0, 0), BuildingBlock: CIFDUS_clean_linker_0, # of connection points: 2
#     Edge 42, Type (0, 0), BuildingBlock: CIFDUS_clean_linker_0, # of connection points: 2
#     Edge 43, Type (0, 0), BuildingBlock: CIFDUS_clean_linker_0, # of connection points: 2
#     Edge 44, Type (0, 0), BuildingBlock: CIFDUS_clean_linker_0, # of connection points: 2
#     Edge 45, Type (0, 0), BuildingBlock: CIFDUS_clean_linker_0, # of connection points: 2
#     Edge 46, Type (0, 0), BuildingBlock: CIFDUS_clean_linker_0, # of connection points: 2
#     Edge 47, Type (0, 0), BuildingBlock: CIFDUS_clean_linker_0, # of connection points: 2
#     Edge 48, Type (0, 0), BuildingBlock: CIFDUS_clean_linker_0, # of connection points: 2
#     Edge 49, Type (0, 0), BuildingBlock: CIFDUS_clean_linker_0, # of connection points: 2
#     Edge 50, Type (0, 0), BuildingBlock: CIFDUS_clean_linker_0, # of connection points: 2
#     Edge 51, Type (0, 0), BuildingBlock: CIFDUS_clean_linker_0, # of connection points: 2
#     Edge 52, Type (0, 0), BuildingBlock: CIFDUS_clean_linker_0, # of connection points: 2
#     Edge 53, Type (0, 0), BuildingBlock: CIFDUS_clean_linker_0, # of connection points: 2
#     Edge 54, Type (0, 0), BuildingBlock: CIFDUS_clean_linker_0, # of connection points: 2
#     Edge 55, Type (0, 0), BuildingBlock: CIFDUS_clean_linker_0, # of connection points: 2
# Relax obj value: 0.751
# Max RMSD: 0.275
# Mean RMSD: 0.275
data_MOF--net-yfb--node1-XOMCOT_clean_sbu_1--edge1-CIFDUS_clean_linker_0
_symmetry_space_group_name_H-M    P1
_symmetry_Int_Tables_number       1
_symmetry_cell_setting            triclinic
loop_
_symmetry_equiv_pos_as_xyz
'x, y, z'
_cell_length_a     37.816072
_cell_length_b     37.791609
_cell_length_c     37.065924
_cell_angle_alpha  90.282962
_cell_angle_beta   90.12905
_cell_angle_gamma 89.784823
loop_
_atom_site_label
_atom_site_type_symbol
_atom_site_fract_x
_atom_site_fract_y
_atom_site_fract_z
_atom_type_partial_charge
C0 C 0.653 1.00132 0.09282 0.0
C1 C 0.6268 0.98061 0.07794 0.0
N2 N 0.59512 0.99431 0.08713 0.0
N3 N 0.6384 0.02924 0.11026 0.0
C4 C 0.6033 0.02173 0.10936 0.0
H5 H 0.68092 0.99699 0.08893 0.0
Co6 Co 0.66117 0.07338 0.12352 0.0
C7 C 0.5902 0.10127 0.10185 0.0
O8 O 0.59176 0.0822 0.07212 0.0
N9 N 0.68238 0.1167 0.13738 0.0
C10 C 0.68775 0.16742 0.1676 0.0
C11 C 0.67183 0.13493 0.1669 0.0
C12 C 0.70519 0.13883 0.12066 0.0
N13 N 0.70847 0.17014 0.1383 0.0
O14 O 0.66009 0.06001 0.17415 0.0
H15 H 0.65197 0.12607 0.18572 0.0
H16 H 0.71784 0.1329 0.09519 0.0
O17 O 0.61515 0.09895 0.12527 0.0
C18 C 0.69199 0.0514 0.18236 0.0
O19 O 0.71504 0.04881 0.15598 0.0
N20 N 0.66804 0.08522 0.07439 0.0
C21 C 0.69649 0.10217 1.00708 0.0
C22 C 0.67011 0.12348 1.02264 0.0
C23 C 0.65677 0.11499 0.0567 0.0
C24 C 0.69414 0.06494 0.05969 0.0
C25 C 0.70777 0.07207 1.02577 0.0
H26 H 0.6401 0.13422 0.06996 0.0
H27 H 0.70724 0.04528 0.07587 0.0
H28 H 0.5836 0.0376 0.1229 0.0
H29 H 0.63113 0.95909 0.0591 0.0
H30 H 0.68233 0.18842 0.18679 0.0
H31 H 0.66205 0.14803 1.01002 0.0
H32 H 0.72984 0.05628 1.01621 0.0
C33 C 0.50312 0.64271 0.14985 0.0
C34 C 0.51859 0.61373 0.13302 0.0
N35 N 0.49277 0.59285 0.11959 0.0
N36 N 0.46766 0.64022 0.14718 0.0
C37 C 0.46245 0.6094 0.12915 0.0
H38 H 0.51689 0.66551 0.16055 0.0
Co39 Co 0.43382 0.67684 0.15213 0.0
C40 C 0.36478 0.64221 0.13497 0.0
O41 O 0.35422 0.67077 0.11793 0.0
N42 N 0.39943 0.71384 0.15685 0.0
C43 C 0.36491 0.76077 0.14732 0.0
C44 C 0.39691 0.74505 0.13943 0.0
C45 C 0.36949 0.71254 0.17693 0.0
N46 N 0.34715 0.73986 0.17032 0.0
O47 O 0.43547 0.67435 0.20427 0.0
H48 H 0.41593 0.75517 0.12051 0.0
H49 H 0.36292 0.69019 0.19373 0.0
O50 O 0.39565 0.64104 0.14919 0.0
C51 C 0.45286 0.70126 0.21551 0.0
O52 O 0.4677 0.72191 0.19155 0.0
N53 N 0.43607 0.68255 0.10189 0.0
C54 C 0.44949 0.70111 0.0304 0.0
C55 C 0.42793 0.672 0.03849 0.0
C56 C 0.42176 0.66295 0.07447 0.0
C57 C 0.46003 0.70823 0.09438 0.0
C58 C 0.46668 0.7184 0.05904 0.0
H59 H 0.40575 0.64016 0.07975 0.0
H60 H 0.47303 0.72199 0.11633 0.0
H61 H 0.43697 0.60103 0.11984 0.0
H62 H 0.54667 0.60952 0.12935 0.0
H63 H 0.35439 0.78426 0.13454 0.0
H64 H 0.41515 0.65693 1.01727 0.0
H65 H 0.48353 0.74104 0.05463 0.0
C66 C 0.88497 0.51087 0.12212 0.0
C67 C 0.9155 0.52758 0.11045 0.0
N68 N 0.93053 0.50755 0.08435 0.0
N69 N 0.88079 0.4805 0.1034 0.0
C70 C 0.90892 0.47941 0.08087 0.0
H71 H 0.8664 0.52092 0.14185 0.0
Co72 Co 0.84316 0.44791 0.10031 0.0
C73 C 0.88178 0.37772 0.08897 0.0
O74 O 0.85395 0.36011 0.07788 0.0
N75 N 0.80563 0.41478 0.09621 0.0
C76 C 0.76073 0.3828 0.07496 0.0
C77 C 0.78023 0.41309 0.07052 0.0
C78 C 0.79951 0.38618 0.11717 0.0
N79 N 0.77317 0.36571 0.10412 0.0
O80 O 0.84034 0.44381 0.15273 0.0
H81 H 0.77661 0.43193 0.049 0.0
H82 H 0.81613 0.37887 0.13978 0.0
O83 O 0.87936 0.41051 0.09718 0.0
C84 C 0.81116 0.45701 0.16435 0.0
O85 O 0.79072 0.47377 0.14129 0.0
N86 N 0.84234 0.4549 0.05046 0.0
C87 C 0.81687 0.46923 0.98129 0.0
C88 C 0.8392 0.4398 0.98772 0.0
C89 C 0.85123 0.43275 1.02276 0.0
C90 C 0.82589 0.48618 0.0438 0.0
C91 C 0.81316 0.49402 1.00962 0.0
H92 H 0.86551 0.40855 0.02762 0.0
H93 H 0.81962 0.50369 0.06609 0.0
H94 H 0.91211 0.45939 0.06029 0.0
H95 H 0.92534 0.55281 0.11996 0.0
H96 H 0.73958 0.37362 0.05758 0.0
H97 H 0.84531 0.42071 0.96685 0.0
H98 H 0.79734 0.5177 1.00732 0.0
C99 C 0.98957 0.87371 0.12117 0.0
C100 C 0.97626 0.90388 0.10469 0.0
N101 N 1.00284 0.91986 0.08693 0.0
N102 N 0.02437 0.87061 0.11379 0.0
C103 C 0.03131 0.89903 0.09294 0.0
H104 H 0.97461 0.85487 0.13676 0.0
Co105 Co 0.05683 0.8338 0.12455 0.0
C106 C 0.12689 0.86279 0.10379 0.0
O107 O 0.13586 0.83153 0.09102 0.0
N108 N 0.09027 0.7971 0.13596 0.0
C109 C 0.12507 0.74934 0.13705 0.0
C110 C 0.0936 0.76324 0.12454 0.0
C111 C 0.11909 0.80206 0.15729 0.0
N112 N 0.14159 0.77413 0.15709 0.0
O113 O 0.05428 0.84366 0.1755 0.0
H114 H 0.0755 0.74955 0.1069 0.0
H115 H 0.12472 0.82697 0.17055 0.0
O116 O 0.09627 0.86758 0.11773 0.0
C117 C 0.03541 0.81864 0.18825 0.0
O118 O 0.01792 0.79861 0.16533 0.0
N119 N 0.0559 0.82058 0.07556 0.0
C120 C 0.05645 0.785 1.00971 0.0
C121 C 0.07186 0.81869 1.01309 0.0
C122 C 0.07139 0.83609 0.04642 0.0
C123 C 0.03497 0.79172 0.07068 0.0
C124 C 0.03553 0.77289 0.03828 0.0
H125 H 0.08484 0.86105 0.04868 0.0
H126 H 0.02043 0.78126 0.09331 0.0
H127 H 0.05652 0.90359 0.08074 0.0
H128 H 0.94914 0.91309 0.10558 0.0
H129 H 0.13606 0.72387 0.12957 0.0
H130 H 0.08644 0.83033 0.99105 0.0
H131 H 0.0224 0.74751 0.03717 0.0
C132 C 0.63068 0.49087 0.39397 0.0
C133 C 0.59981 0.50605 0.40689 0.0
N134 N 0.59145 0.49087 0.43869 0.0
N135 N 0.64193 0.46612 0.41741 0.0
C136 C 0.6176 0.467 0.44426 0.0
H137 H 0.64364 0.4971 0.36883 0.0
Co138 Co 0.68048 0.43402 0.41512 0.0
C139 C 0.64131 0.36369 0.42867 0.0
O140 O 0.66926 0.34342 0.43231 0.0
N141 N 0.71864 0.40136 0.41287 0.0
C142 C 0.76881 0.37258 0.42415 0.0
C143 C 0.74941 0.40269 0.43131 0.0
C144 C 0.72122 0.37144 0.39279 0.0
N145 N 0.75069 0.35248 0.40037 0.0
O146 O 0.67782 0.43157 0.36265 0.0
H147 H 0.75662 0.42343 0.45012 0.0
H148 H 0.70064 0.36262 0.37454 0.0
O149 O 0.64478 0.3967 0.42213 0.0
C150 C 0.70502 0.44808 0.35079 0.0
O151 O 0.72436 0.46581 0.37415 0.0
N152 N 0.68715 0.43929 0.46518 0.0
C153 C 0.71925 0.45171 0.5318 0.0
C154 C 0.70596 0.41801 0.52293 0.0
C155 C 0.68967 0.41242 0.48951 0.0
C156 C 0.69648 0.47283 0.47484 0.0
C157 C 0.71148 0.47982 0.50845 0.0
H158 H 0.68299 0.38579 0.48199 0.0
H159 H 0.69467 0.49394 0.45532 0.0
H160 H 0.61942 0.4504 0.4678 0.0
H161 H 0.58444 0.52617 0.39328 0.0
H162 H 0.79316 0.36498 0.43746 0.0
H163 H 0.71134 0.39523 0.53967 0.0
H164 H 0.72001 0.50652 0.51448 0.0
C165 C 1.00474 0.63557 0.43034 0.0
C166 C 0.99094 0.60507 0.44516 0.0
N167 N 0.01795 0.58339 0.45396 0.0
N168 N 0.04041 0.63371 0.43051 0.0
C169 C 0.04714 0.60064 0.44274 0.0
H170 H 0.98993 0.6595 0.42485 0.0
Co171 Co 0.06931 0.67512 0.43242 0.0
C172 C 0.1312 0.62417 0.43732 0.0
O173 O 0.12266 0.61264 0.46948 0.0
N174 N 0.09646 0.71673 0.43454 0.0
C175 C 0.11347 0.76987 0.45307 0.0
C176 C 0.08627 0.74591 0.45274 0.0
C177 C 0.12975 0.72386 0.42334 0.0
N178 N 0.14116 0.75603 0.43477 0.0
O179 O 0.06243 0.68306 0.38135 0.0
H180 H 0.06126 0.74871 0.46659 0.0
H181 H 0.14569 0.70518 0.40833 0.0
O182 O 0.11259 0.64784 0.42154 0.0
C183 C 0.0448 0.7108 0.37301 0.0
O184 O 0.02902 0.72882 0.39879 0.0
N185 N 0.07476 0.67023 0.4832 0.0
C186 C 0.07736 0.6841 0.55731 0.0
C187 C 0.10841 0.68313 0.53667 0.0
C188 C 0.10645 0.6768 0.49972 0.0
C189 C 0.04468 0.66852 0.50346 0.0
C190 C 0.04552 0.67449 0.54063 0.0
H191 H 0.13022 0.68005 0.48401 0.0
H192 H 0.01921 0.66597 0.49075 0.0
H193 H 0.07287 0.58937 0.44504 0.0
H194 H 0.96357 0.60112 0.45253 0.0
H195 H 0.11325 0.79469 0.4677 0.0
H196 H 0.13356 0.69129 0.54793 0.0
H197 H 0.02085 0.67529 0.55542 0.0
C198 C 0.86385 1.00081 0.43204 0.0
C199 C 0.89369 0.98723 0.44889 0.0
N200 N 0.90788 0.01262 0.47019 0.0
N201 N 0.85914 0.03469 0.44248 0.0
C202 C 0.88643 0.04096 0.4654 0.0
H203 H 0.84598 0.98645 0.41453 0.0
Co204 Co 0.82037 0.06563 0.43503 0.0
C205 C 0.85122 0.13756 0.44704 0.0
O206 O 0.82164 0.14901 0.46156 0.0
N207 N 0.78158 0.0971 0.42768 0.0
C208 C 0.73108 0.12722 0.43223 0.0
C209 C 0.74946 0.09777 0.44353 0.0
C210 C 0.78105 0.1254 0.40531 0.0
N211 N 0.75129 0.14504 0.40867 0.0
O212 O 0.82377 0.06152 0.38279 0.0
H213 H 0.74014 0.07902 0.46315 0.0
H214 H 0.8033 0.13283 0.38869 0.0
O215 O 0.85398 0.10547 0.43625 0.0
C216 C 0.79705 0.04391 0.37122 0.0
O217 O 0.77756 0.02738 0.39508 0.0
N218 N 0.8133 0.06635 0.48524 0.0
C219 C 0.78597 0.06211 0.55496 0.0
C220 C 0.81432 0.08485 0.54727 0.0
C221 C 0.82762 0.08665 0.51213 0.0
C222 C 0.78964 0.04065 0.49345 0.0
C223 C 0.7751 0.03845 0.52778 0.0
H224 H 0.84892 0.1047 0.50701 0.0
H225 H 0.77983 0.02354 0.47222 0.0
H226 H 0.88932 0.06538 0.48008 0.0
H227 H 0.90355 0.96045 0.44615 0.0
H228 H 0.70582 0.13613 0.44263 0.0
H229 H 0.82511 0.10233 0.56769 0.0
H230 H 0.75352 0.02018 0.5317 0.0
C231 C 0.492 0.90013 0.43109 0.0
C232 C 0.50846 0.9306 0.4436 0.0
N233 N 0.49449 0.93946 0.47593 0.0
N234 N 0.46813 0.88952 0.45572 0.0
C235 C 0.47023 0.91423 0.48218 0.0
H236 H 0.49655 0.88744 0.40533 0.0
Co237 Co 0.43258 0.85485 0.45898 0.0
C238 C 0.38477 0.90435 0.46747 0.0
O239 O 0.39324 0.89486 0.50043 0.0
N240 N 0.39545 0.8227 0.46431 0.0
C241 C 0.35495 0.78947 0.49106 0.0
C242 C 0.38635 0.80717 0.49566 0.0
C243 C 0.36888 0.81465 0.4412 0.0
N244 N 0.34417 0.79417 0.45684 0.0
O245 O 0.44015 0.83671 0.40952 0.0
H246 H 0.40091 0.80989 0.52067 0.0
H247 H 0.36666 0.82521 0.41418 0.0
O248 O 0.39941 0.88857 0.44106 0.0
C249 C 0.46504 0.82015 0.39316 0.0
O250 O 0.4958 0.81568 0.40908 0.0
N251 N 0.46463 0.82151 0.47961 0.0
C252 C 0.48735 0.77148 0.52959 0.0
C253 C 0.49502 0.8073 0.5347 0.0
C254 C 0.48277 0.83193 0.50976 0.0
C255 C 0.46213 0.78623 0.47153 0.0
C256 C 0.47345 0.76074 0.49616 0.0
H257 H 0.48438 0.85925 0.51742 0.0
H258 H 0.44702 0.77747 0.44839 0.0
H259 H 0.45469 0.91296 0.50649 0.0
H260 H 0.52851 0.94542 0.42947 0.0
H261 H 0.34019 0.77576 0.51168 0.0
H262 H 0.50606 0.81665 0.55999 0.0
H263 H 0.46675 0.73333 0.49103 0.0
C264 C 0.40088 0.9659 0.90492 0.0
C265 C 0.43204 0.97748 0.92066 0.0
N266 N 0.4413 0.95432 0.94642 0.0
N267 N 0.38989 0.93607 0.92151 0.0
C268 C 0.41591 0.92949 0.94596 0.0
H269 H 0.38768 0.97876 0.88279 0.0
Co270 Co 0.34897 0.90645 0.9189 0.0
C271 C 0.38538 0.85042 0.92386 0.0
O272 O 0.3746 0.8598 0.95621 0.0
N273 N 0.31025 0.87491 0.9173 0.0
C274 C 0.26838 0.83766 0.93471 0.0
C275 C 0.2895 0.86542 0.94516 0.0
C276 C 0.30191 0.85177 0.89052 0.0
N277 N 0.27641 0.82883 0.90044 0.0
O278 O 0.33312 0.92453 0.87122 0.0
H279 H 0.29118 0.87651 0.97207 0.0
H280 H 0.31609 0.85006 0.86523 0.0
O281 O 0.37717 0.8701 0.89725 0.0
C282 C 0.32181 0.95485 0.86083 0.0
O283 O 0.32404 0.98222 0.8827 0.0
N284 N 0.3212 0.94037 0.94463 0.0
C285 C 0.27637 0.95753 1.00138 0.0
C286 C 0.31298 0.96073 1.00544 0.0
C287 C 0.33494 0.95103 0.97701 0.0
C288 C 0.28578 0.94464 0.93812 0.0
C289 C 0.26271 0.95291 0.96643 0.0
H290 H 0.36247 0.94754 0.98317 0.0
H291 H 0.27445 0.93597 0.91279 0.0
H292 H 0.41537 0.90798 0.96497 0.0
H293 H 0.44681 1.00092 0.9136 0.0
H294 H 0.25079 0.82297 0.95207 0.0
H295 H 0.32459 0.96521 0.03183 0.0
H296 H 0.23452 0.95044 0.9619 0.0
C297 C 0.52183 0.40035 0.93362 0.0
C298 C 0.50852 0.43089 0.94953 0.0
N299 N 0.53339 0.4442 0.97176 0.0
N300 N 0.55484 0.39417 0.94621 0.0
C301 C 0.56097 0.42168 0.96893 0.0
H302 H 0.50744 0.38343 0.91541 0.0
Co303 Co 0.58776 0.3564 0.94595 0.0
C304 C 0.64334 0.40171 0.93668 0.0
O305 O 0.64321 0.39982 0.97203 0.0
N306 N 0.62222 0.32087 0.94892 0.0
C307 C 0.66298 0.28774 0.97586 0.0
C308 C 0.63227 0.30648 0.98061 0.0
C309 C 0.64746 0.31055 0.92525 0.0
N310 N 0.67265 0.29045 0.94114 0.0
O311 O 0.57138 0.33626 0.89929 0.0
H312 H 0.61985 0.31185 1.0063 0.0
H313 H 0.64921 0.32044 0.89798 0.0
O314 O 0.62018 0.38469 0.91892 0.0
C315 C 0.54393 0.32294 0.88419 0.0
O316 O 0.51417 0.321 0.90227 0.0
N317 N 0.55711 0.32829 0.97393 0.0
C318 C 0.53824 0.28129 0.02835 0.0
C319 C 0.54085 0.31761 0.03556 0.0
C320 C 0.55032 0.34071 1.0079 0.0
C321 C 0.5516 0.29342 0.96582 0.0
C322 C 0.5416 0.26964 0.99252 0.0
H323 H 0.55634 0.36775 1.0149 0.0
H324 H 0.55953 0.28267 0.94006 0.0
H325 H 0.58426 0.42367 0.98568 0.0
H326 H 0.48233 0.44194 0.94569 0.0
H327 H 0.67901 0.27619 0.99705 0.0
H328 H 0.53874 0.32761 0.06291 0.0
H329 H 0.54084 0.24171 0.98587 0.0
C330 C 0.13315 0.50399 0.90488 0.0
C331 C 0.10244 0.491 0.91946 0.0
N332 N 0.0907 0.51385 0.94488 0.0
N333 N 0.14106 0.53516 0.92061 0.0
C334 C 0.11427 0.54078 0.94442 0.0
H335 H 0.14954 0.49065 0.88517 0.0
Co336 Co 0.18451 0.55869 0.91405 0.0
C337 C 0.17328 0.6336 0.93265 0.0
O338 O 0.20403 0.63212 0.94922 0.0
N339 N 0.22847 0.58226 0.9062 0.0
C340 C 0.28177 0.60699 0.9093 0.0
C341 C 0.26071 0.57988 0.92178 0.0
C342 C 0.2316 0.6096 0.88287 0.0
N343 N 0.26303 0.62619 0.88533 0.0
O344 O 0.17892 0.55771 0.86217 0.0
H345 H 0.26807 0.56132 0.94253 0.0
H346 H 0.20976 0.61925 0.86671 0.0
O347 O 0.16036 0.60555 0.91804 0.0
C348 C 0.20152 0.53549 0.84977 0.0
O349 O 0.2177 0.51456 0.87279 0.0
N350 N 0.1925 0.55583 0.96435 0.0
C351 C 0.21761 0.5493 0.03491 0.0
C352 C 0.19088 0.57386 1.02638 0.0
C353 C 0.178 0.57598 0.99124 0.0
C354 C 0.21433 0.52842 0.97304 0.0
C355 C 0.22721 0.52456 1.00817 0.0
H356 H 0.15757 0.59514 0.98587 0.0
H357 H 0.22349 0.51068 0.95203 0.0
H358 H 0.11288 0.56323 0.96243 0.0
H359 H 0.09039 0.46595 0.91251 0.0
H360 H 0.30765 0.6139 0.91963 0.0
H361 H 0.18145 0.5932 0.04571 0.0
H362 H 0.24604 0.50361 1.01357 0.0
C363 C 0.9921 0.12384 0.91636 0.0
C364 C 0.9991 0.09011 0.9288 0.0
N365 N 0.97397 0.08141 0.95279 0.0
N366 N 0.96283 0.13664 0.93278 0.0
C367 C 0.95233 0.10982 0.95443 0.0
H368 H 0.00889 0.13843 0.89844 0.0
Co369 Co 0.9424 0.18219 0.9376 0.0
C370 C 0.87852 0.16167 0.95335 0.0
O371 O 0.89371 0.16807 0.98463 0.0
N372 N 0.92011 0.22632 0.94454 0.0
C373 C 0.8936 0.26991 0.97447 0.0
C374 C 0.91957 0.24453 0.97591 0.0
C375 C 0.89391 0.2409 0.92457 0.0
N376 N 0.87691 0.26723 0.94241 0.0
O377 O 0.95046 0.19499 0.88668 0.0
H378 H 0.93457 0.2374 0.99962 0.0
H379 H 0.88514 0.22992 0.89908 0.0
O380 O 0.89724 0.16317 0.9249 0.0
C381 C 0.97703 0.20261 0.86686 0.0
O382 O 0.00923 0.19915 0.87972 0.0
N383 N 0.986 0.2016 0.9536 0.0
C384 C 0.01154 0.24415 1.00856 0.0
C385 C 0.01357 0.20716 1.01156 0.0
C386 C 0.99931 0.18626 0.98403 0.0
C387 C 0.99412 0.23605 0.94627 0.0
C388 C 0.00695 0.25804 0.97367 0.0
H389 H 0.99372 0.15895 0.99006 0.0
H390 H 0.98374 0.24867 0.92236 0.0
H391 H 0.93088 0.11212 0.97349 0.0
H392 H 0.02173 0.07383 0.92187 0.0
H393 H 0.88498 0.28613 0.99698 0.0
H394 H 0.01968 0.19483 0.03715 0.0
H395 H 0.00641 0.28625 0.96892 0.0
C396 C 0.38239 0.49138 0.61198 0.0
C397 C 0.4119 0.47528 0.5972 0.0
N398 N 0.42895 0.49892 0.57628 0.0
N399 N 0.38071 0.52514 0.60072 0.0
C400 C 0.40935 0.52884 0.57915 0.0
H401 H 0.36286 0.47892 0.62893 0.0
Co402 Co 0.34437 0.55846 0.6083 0.0
C403 C 0.38345 0.62759 0.61263 0.0
O404 O 0.35663 0.64549 0.5994 0.0
N405 N 0.30688 0.5916 0.61583 0.0
C406 C 0.25405 0.61771 0.6121 0.0
C407 C 0.27482 0.59039 0.59968 0.0
C408 C 0.30396 0.61896 0.63955 0.0
N409 N 0.27259 0.63599 0.63683 0.0
O410 O 0.34282 0.5486 0.65932 0.0
H411 H 0.26665 0.57096 0.58 0.0
H412 H 0.32488 0.62712 0.6577 0.0
O413 O 0.38131 0.59409 0.61621 0.0
C414 C 0.31398 0.533 0.66749 0.0
O415 O 0.29396 0.52093 0.64118 0.0
N416 N 0.34268 0.56627 0.55819 0.0
C417 C 0.31642 0.58171 0.49008 0.0
C418 C 0.34608 0.59969 0.50356 0.0
C419 C 0.359 0.59143 0.53784 0.0
C420 C 0.31882 0.54412 0.5426 0.0
C421 C 0.30482 0.55161 0.50871 0.0
H422 H 0.38094 0.60641 0.54801 0.0
H423 H 0.30748 0.52301 0.55839 0.0
H424 H 0.41513 0.55293 0.56502 0.0
H425 H 0.41931 0.44786 0.60077 0.0
H426 H 0.22798 0.62479 0.60228 0.0
H427 H 0.35725 0.62189 0.4892 0.0
H428 H 0.28236 0.53632 0.49954 0.0
C429 C 0.98926 0.39278 0.64023 0.0
C430 C 0.99991 0.4235 0.62313 0.0
N431 N 0.98311 0.42554 0.59111 0.0
N432 N 0.96668 0.37493 0.61853 0.0
C433 C 0.9632 0.3961 0.58935 0.0
H434 H 0.99591 0.38558 0.66758 0.0
Co435 Co 0.9351 0.33654 0.62299 0.0
C436 C 0.88115 0.37976 0.61823 0.0
O437 O 0.88612 0.36823 0.58514 0.0
N438 N 0.90114 0.3005 0.62502 0.0
C439 C 0.86099 0.26266 0.6044 0.0
C440 C 0.89214 0.27955 0.59688 0.0
C441 C 0.87462 0.29629 0.64909 0.0
N442 N 0.84994 0.27327 0.63717 0.0
O443 O 0.95126 0.3235 0.67166 0.0
H444 H 0.9056 0.27906 0.57117 0.0
H445 H 0.87144 0.31262 0.67295 0.0
O446 O 0.90127 0.36854 0.64316 0.0
C447 C 0.98191 0.31574 0.68403 0.0
O448 O 0.00976 0.31929 0.66322 0.0
N449 N 0.96771 0.3044 0.60082 0.0
C450 C 0.98456 0.25029 0.55257 0.0
C451 C 0.98914 0.28575 0.54285 0.0
C452 C 0.97964 0.31241 0.5671 0.0
C453 C 0.97046 0.27032 0.61295 0.0
C454 C 0.97857 0.24273 0.58909 0.0
H455 H 0.9778 0.3388 0.55674 0.0
H456 H 0.96069 0.26336 0.63935 0.0
H457 H 0.94576 0.39011 0.56704 0.0
H458 H 0.01706 0.44367 0.63429 0.0
H459 H 0.84563 0.24688 0.58565 0.0
H460 H 0.99502 0.29284 0.51523 0.0
H461 H 0.97498 0.21579 0.59814 0.0
C462 C 0.1049 0.97373 0.65041 0.0
C463 C 0.07336 0.98653 0.63613 0.0
N464 N 0.06525 0.96722 0.60663 0.0
N465 N 0.11696 0.9469 0.62949 0.0
C466 C 0.09185 0.9436 0.60354 0.0
H467 H 0.11754 0.98336 0.67461 0.0
Co468 Co 0.15633 0.91575 0.62696 0.0
C469 C 0.11404 0.86048 0.62216 0.0
O470 O 0.12208 0.86659 0.58831 0.0
N471 N 0.19365 0.88301 0.62139 0.0
C472 C 0.23518 0.85133 0.59366 0.0
C473 C 0.21223 0.87929 0.59055 0.0
C474 C 0.20503 0.85603 0.64253 0.0
N475 N 0.23064 0.83653 0.62626 0.0
O476 O 0.17413 0.92641 0.67606 0.0
H477 H 0.20846 0.89518 0.56666 0.0
H478 H 0.19397 0.85008 0.66871 0.0
O479 O 0.12786 0.87941 0.64671 0.0
C480 C 0.18524 0.95319 0.69406 0.0
O481 O 0.18268 0.98496 0.68004 0.0
N482 N 0.18437 0.95121 0.60544 0.0
C483 C 0.23144 0.98475 0.55909 0.0
C484 C 0.19584 0.98091 0.5495 0.0
C485 C 0.17277 0.96386 0.57302 0.0
C486 C 0.2184 0.95722 0.61625 0.0
C487 C 0.2421 0.97453 0.5938 0.0
H488 H 0.14668 0.95753 0.56333 0.0
H489 H 0.22884 0.94494 0.64026 0.0
H490 H 0.09369 0.92484 0.58156 0.0
H491 H 0.05739 0.00787 0.64699 0.0
H492 H 0.25248 0.84133 0.57268 0.0
H493 H 0.18671 0.98797 0.52275 0.0
H494 H 0.2696 0.97583 0.60193 0.0
C495 C 0.51605 0.13232 0.66766 0.0
C496 C 0.50211 0.10021 0.65641 0.0
N497 N 0.51446 0.09282 0.62309 0.0
N498 N 0.53631 0.14567 0.64107 0.0
C499 C 0.53536 0.12043 0.61501 0.0
H500 H 0.51234 0.14423 0.69392 0.0
Co501 Co 0.56694 0.18455 0.63474 0.0
C502 C 0.62153 0.13898 0.63368 0.0
O503 O 0.61124 0.13855 0.59986 0.0
N504 N 0.59965 0.22036 0.62567 0.0
C505 C 0.63456 0.25383 0.59222 0.0
C506 C 0.60624 0.23141 0.59184 0.0
C507 C 0.62523 0.2355 0.64615 0.0
N508 N 0.64681 0.25627 0.62629 0.0
O509 O 0.55599 0.20587 0.68246 0.0
H510 H 0.59228 0.22228 0.56808 0.0
H511 H 0.62932 0.2296 0.6744 0.0
O512 O 0.60434 0.15778 0.65616 0.0
C513 C 0.52658 0.21557 0.69648 0.0
O514 O 0.49704 0.2101 0.67859 0.0
N515 N 0.53071 0.21194 0.61109 0.0
C516 C 0.51741 0.25379 0.55138 0.0
C517 C 0.50665 0.21838 0.55159 0.0
C518 C 0.51426 0.19763 0.5816 0.0
C519 C 0.53136 0.24802 0.61482 0.0
C520 C 0.52573 0.2696 0.5847 0.0
H521 H 0.51104 0.16968 0.57844 0.0
H522 H 0.54318 0.25994 0.6385 0.0
H523 H 0.54895 0.12302 0.58956 0.0
H524 H 0.48489 0.08332 0.67195 0.0
H525 H 0.64702 0.26512 0.56867 0.0
H526 H 0.49786 0.20549 0.52699 0.0
H527 H 0.53334 0.29715 0.58641 0.0
H528 H 0.75961 0.06027 0.20516 0.0
H529 H 0.65481 0.03862 0.24499 0.0
H530 H 0.67861 0.03381 0.30652 0.0
H531 H 0.72927 0.03513 0.34859 0.0
H532 H 0.83339 0.06037 0.30916 0.0
H533 H 0.80968 0.06445 0.24757 0.0
C534 C 0.74184 0.05434 0.22722 0.0
C535 C 0.70536 0.04931 0.22026 0.0
C536 C 0.75568 0.05226 0.2625 0.0
C537 C 0.68286 0.04243 0.24943 0.0
C538 C 0.69655 0.03965 0.28459 0.0
C539 C 0.74695 0.04133 0.32654 0.0
C540 C 0.78336 0.04689 0.33352 0.0
C541 C 0.73293 0.04432 0.29139 0.0
C542 C 0.80548 0.05573 0.30462 0.0
C543 C 0.79186 0.05804 0.26942 0.0
H544 H 0.49043 0.75591 0.37152 0.0
H545 H 0.42106 0.84066 0.33861 0.0
H546 H 0.4083 0.8093 0.28205 0.0
H547 H 0.41971 0.75935 0.24037 0.0
H548 H 0.48669 0.67324 0.27405 0.0
H549 H 0.49703 0.70299 0.33223 0.0
C550 C 0.47263 0.76755 0.35186 0.0
C551 C 0.45733 0.80102 0.35888 0.0
C552 C 0.46463 0.74883 0.31984 0.0
C553 C 0.43351 0.81524 0.33365 0.0
C554 C 0.42613 0.79723 0.30138 0.0
C555 C 0.43577 0.74671 0.26095 0.0
C556 C 0.45199 0.71392 0.25331 0.0
C557 C 0.44175 0.76417 0.29406 0.0
C558 C 0.4733 0.69804 0.27972 0.0
C559 C 0.47957 0.71533 0.31274 0.0
H560 H 0.77343 0.44508 0.33021 0.0
H561 H 0.66748 0.44302 0.28709 0.0
H562 H 0.69147 0.44441 0.22549 0.0
H563 H 0.74258 0.45024 0.18436 0.0
H564 H 0.84854 0.44935 0.2276 0.0
H565 H 0.82456 0.44486 0.28894 0.0
C566 C 0.75552 0.44472 0.30731 0.0
C567 C 0.71859 0.44445 0.31324 0.0
C568 C 0.76959 0.44517 0.27214 0.0
C569 C 0.69587 0.44326 0.2833 0.0
C570 C 0.70965 0.44425 0.24813 0.0
C571 C 0.76049 0.44893 0.20721 0.0
C572 C 0.79742 0.45073 0.20143 0.0
C573 C 0.74644 0.44587 0.24227 0.0
C574 C 0.82016 0.44818 0.23126 0.0
C575 C 0.80639 0.44573 0.26631 0.0
H576 H 0.04101 0.78 0.35407 0.0
H577 H 0.0509 0.67498 0.30898 0.0
H578 H 0.04977 0.69972 0.24797 0.0
H579 H 0.04389 0.75085 0.20771 0.0
H580 H 0.03775 0.85632 0.25206 0.0
H581 H 0.03994 0.83184 0.31346 0.0
C582 C 0.04283 0.76251 0.33086 0.0
C583 C 0.04541 0.72557 0.33599 0.0
C584 C 0.04295 0.77705 0.29594 0.0
C585 C 0.04865 0.70337 0.30573 0.0
C586 C 0.04799 0.71754 0.2709 0.0
C587 C 0.04306 0.76852 0.23085 0.0
C588 C 0.04007 0.80534 0.2255 0.0
C589 C 0.04482 0.75426 0.26573 0.0
C590 C 0.03992 0.82796 0.25558 0.0
C591 C 0.04101 0.81391 0.29058 0.0
H592 H 0.28365 0.90406 0.82433 0.0
H593 H 0.31058 0.01487 0.82254 0.0
H594 H 0.27 0.02434 0.77225 0.0
H595 H 0.22571 1.00192 0.72961 0.0
H596 H 0.19789 0.89131 0.73076 0.0
H597 H 0.23937 0.88123 0.78048 0.0
C598 C 0.28107 0.93013 0.81252 0.0
C599 C 0.30049 0.95866 0.82715 0.0
C600 C 0.25697 0.93563 0.78379 0.0
C601 C 0.29618 0.9924 0.81185 0.0
C602 C 0.27278 0.99791 0.78314 0.0
C603 C 0.2284 0.9756 0.74084 0.0
C604 C 0.20828 0.94752 0.72641 0.0
C605 C 0.25268 0.96987 0.76917 0.0
C606 C 0.21269 0.91357 0.74131 0.0
C607 C 0.23663 0.90771 0.7697 0.0
H608 H 0.4914 0.29144 0.84505 0.0
H609 H 0.60312 0.31392 0.84195 0.0
H610 H 0.60817 0.28208 0.78452 0.0
H611 H 0.58074 0.24715 0.73483 0.0
H612 H 0.46871 0.22602 0.73863 0.0
H613 H 0.46416 0.25763 0.79582 0.0
C614 C 0.5169 0.28957 0.83185 0.0
C615 C 0.54679 0.30524 0.84808 0.0
C616 C 0.51966 0.27113 0.79879 0.0
C617 C 0.57955 0.30234 0.83026 0.0
C618 C 0.58251 0.28396 0.79736 0.0
C619 C 0.55539 0.24929 0.74829 0.0
C620 C 0.52513 0.23398 0.73224 0.0
C621 C 0.55276 0.26805 0.78136 0.0
C622 C 0.49247 0.23745 0.75008 0.0
C623 C 0.48978 0.25561 0.78291 0.0
H624 H 0.24534 0.54228 0.68538 0.0
H625 H 0.34897 0.52877 0.73222 0.0
H626 H 0.32281 0.52896 0.79282 0.0
H627 H 0.2703 0.53073 0.83193 0.0
H628 H 0.16705 0.54825 0.78567 0.0
H629 H 0.19326 0.54906 0.72499 0.0
C630 C 0.2622 0.53925 0.70889 0.0
C631 C 0.29902 0.53475 0.7044 0.0
C632 C 0.24701 0.54016 0.7435 0.0
C633 C 0.32063 0.53194 0.73504 0.0
C634 C 0.30563 0.53201 0.76959 0.0
C635 C 0.25349 0.53466 0.80852 0.0
C636 C 0.21665 0.53872 0.81309 0.0
C637 C 0.26885 0.53569 0.77406 0.0
C638 C 0.19536 0.54483 0.78274 0.0
C639 C 0.21037 0.54518 0.74814 0.0
H640 H 0.02706 0.23359 0.82498 0.0
H641 H 0.91467 0.21509 0.83062 0.0
H642 H 0.90585 0.24971 0.77564 0.0
H643 H 0.93024 0.28552 0.72572 0.0
H644 H 0.04277 0.30386 0.72138 0.0
H645 H 0.05112 0.2695 0.77621 0.0
C646 C 1.00058 0.23683 0.81415 0.0
C647 C 0.97162 0.22142 0.83198 0.0
C648 C 0.99564 0.25718 0.78284 0.0
C649 C 0.93753 0.22637 0.81749 0.0
C650 C 0.93243 0.24636 0.78608 0.0
C651 C 0.95654 0.28234 0.737 0.0
C652 C 0.98583 0.29748 0.71935 0.0
C653 C 0.96129 0.26208 0.76858 0.0
C654 C 0.01973 0.29264 0.73425 0.0
C655 C 0.02458 0.27283 0.76562 0.0
H656 H 0.45649 0.00696 0.99296 0.0
H657 H 0.49131 0.90457 0.95619 0.0
H658 H 0.5413 0.90632 0.9986 0.0
H659 H 0.57595 0.93802 0.04501 0.0
H660 H 0.53794 0.03893 0.08454 0.0
H661 H 0.48828 0.03622 0.04334 0.0
C662 C 0.47526 0.98525 0.99422 0.0
C663 C 0.47087 0.95602 0.97103 0.0
C664 C 0.50323 0.986 1.01952 0.0
C665 C 0.49461 0.92748 0.97351 0.0
C666 C 0.52303 0.92847 0.99785 0.0
C667 C 0.55688 0.95945 0.04484 0.0
C668 C 0.56197 0.98916 0.0676 0.0
C669 C 0.52777 0.95772 1.02091 0.0
C670 C 0.53581 0.01592 0.06735 0.0
C671 C 0.50712 0.01453 0.04346 0.0
H672 H 0.47719 0.46276 1.01283 0.0
H673 H 0.58425 0.49164 0.98738 0.0
H674 H 0.58181 0.54004 0.03152 0.0
H675 H 0.54906 0.57441 0.0774 0.0
H676 H 0.44313 0.54272 0.10559 0.0
H677 H 0.44528 0.49571 0.06061 0.0
C678 C 0.49979 0.47994 1.01673 0.0
C679 C 0.53075 0.47383 0.99655 0.0
C680 C 0.49846 0.50726 0.04288 0.0
C681 C 0.56012 0.49584 1.00251 0.0
C682 C 0.55873 0.52349 0.02781 0.0
C683 C 0.52655 0.55706 0.07416 0.0
C684 C 0.49578 0.56286 0.09494 0.0
C685 C 0.52809 0.5294 0.04835 0.0
C686 C 0.46694 0.5398 0.08974 0.0
C687 C 0.46816 0.5126 0.06398 0.0
H688 H 0.05302 0.56303 0.98335 0.0
H689 H 0.06427 0.45052 0.96542 0.0
H690 H 0.01688 0.4391 1.00766 0.0
H691 H 0.97206 0.46023 0.04969 0.0
H692 H 0.9586 0.57211 0.06831 0.0
H693 H 0.00762 0.58437 1.02709 0.0
C694 C 0.04523 0.53603 0.98876 0.0
C695 C 0.06225 0.5078 0.97044 0.0
C696 C 0.01766 0.52939 1.01364 0.0
C697 C 0.05145 0.47298 0.97806 0.0
C698 C 0.0244 0.46629 1.00264 0.0
C699 C 0.97945 0.48736 0.04459 0.0
C700 C 0.96111 0.51512 0.062 0.0
C701 C 0.0072 0.49422 1.02042 0.0
C702 C 0.97214 0.55008 0.05561 0.0
C703 C 1.00009 0.55714 0.03175 0.0
H704 H 0.02907 0.05214 0.9877 0.0
H705 H 0.9168 0.04299 0.97145 0.0
H706 H 0.91506 0.99194 1.01221 0.0
H707 H 0.94615 0.9492 0.05212 0.0
H708 H 0.05777 0.96306 0.07178 0.0
H709 H 0.05914 0.01236 0.03021 0.0
C710 C 1.00432 0.03871 0.99287 0.0
C711 C 0.9732 0.05092 0.97618 0.0
C712 C 1.00344 0.01006 1.01705 0.0
C713 C 0.94111 0.03389 0.98387 0.0
C714 C 0.94015 1.00475 1.00719 0.0
C715 C 0.97069 0.96317 0.04761 0.0
C716 C 1.00205 0.95137 0.06459 0.0
C717 C 0.9712 0.99253 1.02404 0.0
C718 C 0.03348 0.97028 0.0583 0.0
C719 C 0.03428 0.9989 0.03465 0.0
H720 H 0.45416 0.54029 0.52176 0.0
H721 H 0.47571 0.44399 0.58042 0.0
H722 H 0.52731 0.43302 0.54297 0.0
H723 H 0.56641 0.45026 0.49373 0.0
H724 H 0.54638 0.54743 0.43614 0.0
H725 H 0.49448 0.55841 0.4734 0.0
C726 C 0.47011 0.51702 0.52685 0.0
C727 C 0.46032 0.49302 0.55426 0.0
C728 C 0.50029 0.51088 0.50529 0.0
C729 C 0.48175 0.46286 0.55953 0.0
C730 C 0.51161 0.45658 0.53812 0.0
C731 C 0.55108 0.47399 0.48912 0.0
C732 C 0.5608 0.49774 0.46149 0.0
C733 C 0.52113 0.48036 0.51088 0.0
C734 C 0.53978 0.52822 0.45654 0.0
C735 C 0.50997 0.53468 0.47808 0.0
H736 H 0.03826 0.46781 0.57484 0.0
H737 H 0.9293 0.44722 0.54798 0.0
H738 H 0.93062 0.49322 0.50202 0.0
H739 H 0.96279 0.53984 0.46912 0.0
H740 H 0.07158 0.5608 0.49755 0.0
H741 H 0.07024 0.51434 0.54218 0.0
C742 C 0.01477 0.47358 0.55909 0.0
C743 C 0.98385 0.45384 0.56488 0.0
C744 C 0.01571 0.5001 0.53242 0.0
C745 C 0.95369 0.46152 0.54386 0.0
C746 C 0.95436 0.488 0.51757 0.0
C747 C 0.98623 0.53425 0.48498 0.0
C748 C 0.0173 0.55394 0.4791 0.0
C749 C 0.98528 0.50746 0.51146 0.0
C750 C 0.04739 0.54594 0.50024 0.0
C751 C 0.04663 0.51942 0.52637 0.0
H752 H 0.93873 0.95266 0.49665 0.0
H753 H 0.94509 0.06666 0.50103 0.0
H754 H 0.99238 0.06287 0.54531 0.0
H755 H 0.03336 0.02721 0.58292 0.0
H756 H 0.02925 0.91352 0.57586 0.0
H757 H 0.98034 0.91721 0.5328 0.0
C758 C 0.95051 0.97676 0.50691 0.0
C759 C 0.93752 0.00993 0.4953 0.0
C760 C 0.97842 0.97448 0.53227 0.0
C761 C 0.95352 0.04067 0.50956 0.0
C762 C 0.98095 0.03858 0.53497 0.0
C763 C 0.02146 1.00332 0.57218 0.0
C764 C 0.03495 0.97012 0.58277 0.0
C765 C 0.99361 1.00565 0.5467 0.0
C766 C 0.01956 0.93938 0.56809 0.0
C767 C 0.99153 0.94149 0.54343 0.0
H768 H 0.45389 0.96756 0.52952 0.0
H769 H 0.55472 0.97881 0.4764 0.0
H770 H 0.57001 0.02703 0.51767 0.0
H771 H 0.55533 0.06525 0.56968 0.0
H772 H 0.45501 0.05285 0.62328 0.0
H773 H 0.43968 1.00478 0.58183 0.0
C774 C 0.47948 0.98002 0.52703 0.0
C775 C 0.50317 0.96897 0.49966 0.0
C776 C 0.4884 0.00739 0.55132 0.0
C777 C 0.53574 0.98661 0.49675 0.0
C778 C 0.54464 0.01413 0.52061 0.0
C779 C 0.52999 0.05226 0.57225 0.0
C780 C 0.50631 0.06299 0.59972 0.0
C781 C 0.52123 0.02467 0.54808 0.0
C782 C 0.47393 0.04511 0.60283 0.0
C783 C 0.46502 0.01774 0.57888 0.0
H784 H 0.50107 0.22014 0.03534 0.0
H785 H 0.58216 0.28272 0.08662 0.0
H786 H 0.6003 0.23208 0.12271 0.0
H787 H 0.60249 0.16732 0.1281 0.0
H788 H 0.52446 0.10406 0.07288 0.0
H789 H 0.49523 0.15739 0.05091 0.0
C790 C 0.52192 0.22292 0.0553 0.0
C791 C 0.54054 0.25494 0.05786 0.0
C792 C 0.53313 0.19328 0.07502 0.0
C793 C 0.56726 0.2584 0.08412 0.0
C794 C 0.57798 0.22927 0.10453 0.0
C795 C 0.57816 0.1653 0.11265 0.0
C796 C 0.56591 0.13188 0.10163 0.0
C797 C 0.56246 0.19611 0.09864 0.0
C798 C 0.53452 0.12958 0.08141 0.0
C799 C 0.51799 0.16007 0.06852 0.0
H800 H 0.28742 0.53226 0.04517 0.0
H801 H 0.19753 0.57705 0.10135 0.0
H802 H 0.23727 0.60627 0.14366 0.0
H803 H 0.29713 0.63011 0.15422 0.0
H804 H 0.38577 0.58274 0.0992 0.0
H805 H 0.3467 0.54203 0.06817 0.0
C806 C 0.27595 0.54698 0.0674 0.0
C807 C 0.23933 0.55413 0.06834 0.0
C808 C 0.29888 0.56348 0.09193 0.0
C809 C 0.22569 0.57283 0.09829 0.0
C810 C 0.2484 0.58942 0.1228 0.0
C811 C 0.30797 0.60986 0.13665 0.0
C812 C 0.34427 0.60977 0.12878 0.0
C813 C 0.28508 0.58686 0.11822 0.0
C814 C 0.35811 0.58333 0.10609 0.0
C815 C 0.33557 0.56024 0.08782 0.0
H816 H 0.01883 0.3161 1.02088 0.0
H817 H 0.97558 0.22144 0.06873 0.0
H818 H 0.93466 0.25653 0.1033 0.0
H819 H 0.90058 0.31162 0.10773 0.0
H820 H 0.94056 0.40609 0.05836 0.0
H821 H 0.99228 0.37379 0.03638 0.0
C822 C 1.001 0.30309 0.03939 0.0
C823 C 0.9996 0.2658 0.04033 0.0
C824 C 0.97583 0.32342 0.05829 0.0
C825 C 0.9775 0.24987 0.06628 0.0
C826 C 0.95329 0.26996 0.08596 0.0
C827 C 0.92122 0.32527 0.09309 0.0
C828 C 0.91673 0.36102 0.08431 0.0
C829 C 0.95056 0.30635 0.08014 0.0
C830 C 0.94362 0.37866 0.06563 0.0
C831 C 0.97308 0.36004 0.05277 0.0
H832 H 0.2082 0.97711 1.01806 0.0
H833 H 0.29573 0.91284 0.0549 0.0
H834 H 0.25723 0.88179 0.09587 0.0
H835 H 0.19728 0.86418 0.11111 0.0
H836 H 0.10914 0.92769 0.07627 0.0
H837 H 0.14898 0.96769 0.04499 0.0
C838 C 0.21894 0.95706 0.03586 0.0
C839 C 0.25474 0.94724 0.03299 0.0
C840 C 0.19641 0.9386 0.05928 0.0
C841 C 0.2684 0.92137 0.05655 0.0
C842 C 0.2463 0.90313 0.07982 0.0
C843 C 0.18691 0.88756 0.09789 0.0
C844 C 0.1503 0.8927 0.09555 0.0
C845 C 0.21004 0.91028 0.07998 0.0
C846 C 0.13714 0.92305 0.07836 0.0
C847 C 0.16001 0.94582 0.06016 0.0
H848 H 0.61998 0.29572 0.42825 0.0
H849 H 0.58587 0.40038 0.45877 0.0
H850 H 0.53944 0.37559 0.49663 0.0
H851 H 0.51614 0.3235 0.52935 0.0
H852 H 0.55153 0.21912 0.49711 0.0
H853 H 0.58854 0.24435 0.45107 0.0
C854 C 0.60179 0.31313 0.44246 0.0
C855 C 0.60717 0.34982 0.44182 0.0
C856 C 0.57529 0.29861 0.46415 0.0
C857 C 0.58288 0.37206 0.45958 0.0
C858 C 0.55634 0.35782 0.48134 0.0
C859 C 0.53125 0.30627 0.51164 0.0
C860 C 0.53104 0.26943 0.51728 0.0
C861 C 0.55347 0.32102 0.48525 0.0
C862 C 0.55053 0.24752 0.49357 0.0
C863 C 0.57229 0.26194 0.4673 0.0
H864 H 0.18688 0.66636 0.44296 0.0
H865 H 0.15486 0.56256 0.40834 0.0
H866 H 0.21627 0.54188 0.41119 0.0
H867 H 0.27478 0.54995 0.43868 0.0
H868 H 0.3027 0.65227 0.48252 0.0
H869 H 0.24812 0.67715 0.4599 0.0
C870 C 0.19382 0.63987 0.43401 0.0
C871 C 0.16694 0.61609 0.42487 0.0
C872 C 0.22862 0.62776 0.4381 0.0
C873 C 0.17554 0.58131 0.41487 0.0
C874 C 0.21054 0.56946 0.41694 0.0
C875 C 0.26944 0.57797 0.4422 0.0
C876 C 0.29243 0.59874 0.46337 0.0
C877 C 0.23683 0.59188 0.43082 0.0
C878 C 0.28569 0.63531 0.46657 0.0
C879 C 0.25411 0.6497 0.45385 0.0
H880 H 0.91404 0.12066 0.47815 0.0
H881 H 0.85729 0.20552 0.42661 0.0
H882 H 0.90077 0.24801 0.44845 0.0
H883 H 0.94568 0.26194 0.49259 0.0
H884 H 0.9992 0.17854 0.55052 0.0
H885 H 0.96647 0.13426 0.51555 0.0
C886 C 0.91205 0.1482 0.47065 0.0
C887 C 0.8826 0.16009 0.45084 0.0
C888 C 0.93613 0.17273 0.48514 0.0
C889 C 0.87981 0.19593 0.44176 0.0
C890 C 0.90454 0.22021 0.45448 0.0
C891 C 0.95157 0.23415 0.4967 0.0
C892 C 0.97473 0.22369 0.52455 0.0
C893 C 0.93161 0.20911 0.47776 0.0
C894 C 0.98122 0.18737 0.52962 0.0
C895 C 0.96237 0.16206 0.50972 0.0
H896 H 0.37889 0.96889 0.4963 0.0
H897 H 0.32358 0.89231 0.43117 0.0
H898 H 0.26696 0.91953 0.44742 0.0
H899 H 0.23477 0.95292 0.49373 0.0
H900 H 0.29062 0.02615 0.56272 0.0
H901 H 0.34554 0.01352 0.53053 0.0
C902 C 0.35444 0.95945 0.48428 0.0
C903 C 0.35496 0.92868 0.46298 0.0
C904 C 0.32216 0.97428 0.49506 0.0
C905 C 0.32354 0.91622 0.44745 0.0
C906 C 0.2912 0.93149 0.4572 0.0
C907 C 0.25853 0.96752 0.50055 0.0
C908 C 0.25894 0.98973 0.53118 0.0
C909 C 0.29022 0.95885 0.48301 0.0
C910 C 0.28992 0.00844 0.53965 0.0
C911 C 0.32135 1.00099 0.52145 0.0
H912 H 0.39438 0.70475 0.98374 0.0
H913 H 0.50368 0.73533 0.99492 0.0
H914 H 0.495 0.78197 0.9504 0.0
H915 H 0.4519 0.82396 0.9239 0.0
H916 H 0.34203 0.79609 0.92263 0.0
H917 H 0.35543 0.7375 0.94463 0.0
C918 C 0.41689 0.72032 0.97532 0.0
C919 C 0.44916 0.71762 0.994 0.0
C920 C 0.41138 0.74782 0.95076 0.0
C921 C 0.47802 0.73793 0.98214 0.0
C922 C 0.4731 0.76465 0.95664 0.0
C923 C 0.43143 0.80407 0.92632 0.0
C924 C 0.39611 0.81347 0.91955 0.0
C925 C 0.43917 0.77157 0.94301 0.0
C926 C 0.36945 0.78832 0.92448 0.0
C927 C 0.37712 0.75521 0.93867 0.0
H928 H 0.79992 0.41543 0.9322 0.0
H929 H 0.77442 0.52489 0.95509 0.0
H930 H 0.7138 0.51466 0.93666 0.0
H931 H 0.66599 0.46944 0.93371 0.0
H932 H 0.69331 0.36318 0.90191 0.0
H933 H 0.75589 0.37805 0.90293 0.0
C934 C 0.78198 0.43774 0.93246 0.0
C935 C 0.79084 0.4696 0.95039 0.0
C936 C 0.74722 0.43213 0.92048 0.0
C937 C 0.76745 0.49857 0.94611 0.0
C938 C 0.73262 0.49302 0.93497 0.0
C939 C 0.68558 0.45011 0.92516 0.0
C940 C 0.67544 0.4149 0.91927 0.0
C941 C 0.7216 0.45895 0.9255 0.0
C942 C 0.70071 0.39019 0.90751 0.0
C943 C 0.73658 0.39864 0.90835 0.0
H944 H 0.12127 0.78184 0.97948 0.0
H945 H 0.01973 0.73002 0.97679 0.0
H946 H 0.04654 0.67879 0.9467 0.0
H947 H 0.1013 0.64484 0.93182 0.0
H948 H 0.2019 0.69798 0.94018 0.0
H949 H 0.1727 0.75283 0.95601 0.0
C950 C 0.10436 0.76019 0.97112 0.0
C951 C 0.0686 0.7597 0.9813 0.0
C952 C 0.12003 0.73061 0.955 0.0
C953 C 0.0476 0.73084 0.97026 0.0
C954 C 0.06293 0.70145 0.95307 0.0
C955 C 0.11656 0.66874 0.93612 0.0
C956 C 0.15371 0.66731 0.93481 0.0
C957 C 0.09955 0.70029 0.94704 0.0
C958 C 0.17328 0.69832 0.9409 0.0
C959 C 0.15662 0.72978 0.9502 0.0
H960 H 0.72338 0.16765 1.00138 0.0
H961 H 0.72249 0.06588 0.94843 0.0
H962 H 0.77863 0.07939 0.91898 0.0
H963 H 0.83453 0.11336 0.92221 0.0
H964 H 0.8365 0.21117 0.98239 0.0
H965 H 0.77343 0.2067 0.99428 0.0
C966 C 0.7345 0.14909 0.98203 0.0
C967 C 0.71935 0.1155 0.97776 0.0
C968 C 0.76769 0.15613 0.96717 0.0
C969 C 0.73411 0.09175 0.95255 0.0
C970 C 0.76642 0.0993 0.93608 0.0
C971 C 0.82069 0.1341 0.93685 0.0
C972 C 0.83981 0.1623 0.95179 0.0
C973 C 0.78466 0.1303 0.94535 0.0
C974 C 0.82206 0.18905 0.971 0.0
C975 C 0.78606 0.18648 0.97787 0.0
H976 H 0.5039 0.70114 0.53636 0.0
H977 H 0.45811 0.78971 0.59387 0.0
H978 H 0.42737 0.74983 0.63374 0.0
H979 H 0.39984 0.6916 0.63913 0.0
H980 H 0.44429 0.60258 0.58206 0.0
H981 H 0.48937 0.64041 0.55577 0.0
C982 C 0.48836 0.7116 0.55858 0.0
C983 C 0.48253 0.74828 0.56134 0.0
C984 C 0.46969 0.6884 0.581 0.0
C985 C 0.46298 0.7616 0.59077 0.0
C986 C 0.44488 0.73876 0.61347 0.0
C987 C 0.42051 0.68027 0.62234 0.0
C988 C 0.41817 0.64482 0.61148 0.0
C989 C 0.44595 0.70231 0.60694 0.0
C990 C 0.4452 0.63002 0.59024 0.0
C991 C 0.47085 0.65176 0.57491 0.0
H992 H 0.72709 0.41657 0.59649 0.0
H993 H 0.77725 0.49475 0.52896 0.0
H994 H 0.83238 0.48622 0.56034 0.0
H995 H 0.86975 0.44438 0.59271 0.0
H996 H 0.82263 0.36275 0.65686 0.0
H997 H 0.76341 0.38469 0.64149 0.0
C998 C 0.74984 0.43233 0.58917 0.0
C999 C 0.74786 0.45535 0.55938 0.0
C1000 C 0.78249 0.42609 0.60629 0.0
C1001 C 0.77741 0.4766 0.55143 0.0
C1002 C 0.80946 0.47147 0.56916 0.0
C1003 C 0.84645 0.43267 0.6048 0.0
C1004 C 0.85006 0.40182 0.62518 0.0
C1005 C 0.81282 0.44453 0.59461 0.0
C1006 C 0.82011 0.38654 0.64087 0.0
C1007 C 0.78631 0.39879 0.63163 0.0
H1008 H 0.02992 0.73415 0.57692 0.0
H1009 H 0.12544 0.68258 0.61327 0.0
H1010 H 0.14062 0.73492 0.64883 0.0
H1011 H 0.13648 0.79981 0.65169 0.0
H1012 H 0.04494 0.85199 0.60754 0.0
H1013 H 0.0178 0.79492 0.5941 0.0
C1014 C 0.05316 0.73342 0.5941 0.0
C1015 C 0.07727 0.70508 0.59127 0.0
C1016 C 0.06282 0.76428 0.61258 0.0
C1017 C 0.10697 0.70456 0.61416 0.0
C1018 C 0.11587 0.7346 0.63425 0.0
C1019 C 0.10981 0.79839 0.64096 0.0
C1020 C 0.09263 0.82954 0.63028 0.0
C1021 C 0.09558 0.76552 0.63103 0.0
C1022 C 0.05838 0.828 0.61592 0.0
C1023 C 0.04311 0.79541 0.60787 0.0
H1024 H 0.64704 0.0723 0.63889 0.0
H1025 H 0.67698 0.1818 0.64007 0.0
H1026 H 0.7375 0.16615 0.62422 0.0
H1027 H 0.77462 0.12341 0.59288 0.0
H1028 H 0.74603 0.01279 0.59187 0.0
H1029 H 0.69233 0.02663 0.62529 0.0
C1030 C 0.66742 0.09238 0.63762 0.0
C1031 C 0.65801 0.12817 0.64096 0.0
C1032 C 0.70191 0.08304 0.62719 0.0
C1033 C 0.68416 0.15419 0.63869 0.0
C1034 C 0.71858 0.14518 0.62882 0.0
C1035 C 0.75779 0.10182 0.60121 0.0
C1036 C 0.76343 0.06736 0.58764 0.0
C1037 C 0.72694 0.10992 0.62048 0.0
C1038 C 0.74133 0.03998 0.59989 0.0
C1039 C 0.71059 0.0478 0.61921 0.0
H1040 H 0.75418 0.31055 0.06202 0.0
H1041 H 0.7721 0.34186 0.17253 0.0
H1042 H 0.75632 0.28244 0.19283 0.0
H1043 H 0.73522 0.22246 0.17926 0.0
H1044 H 0.7166 0.19111 0.06885 0.0
H1045 H 0.73563 0.24938 0.04821 0.0
C1046 C 0.75434 0.30439 0.09055 0.0
C1047 C 0.76382 0.33067 0.11586 0.0
C1048 C 0.7455 0.2701 0.10193 0.0
C1049 C 0.76485 0.32208 0.15264 0.0
C1050 C 0.75582 0.28815 0.16421 0.0
C1051 C 0.73546 0.22836 0.15068 0.0
C1052 C 0.72431 0.2025 0.1257 0.0
C1053 C 0.74585 0.26207 0.13911 0.0
C1054 C 0.72538 0.21032 0.08866 0.0
C1055 C 0.73589 0.24381 0.07687 0.0
H1056 H 0.18287 0.71741 0.17281 0.0
H1057 H 0.1847 0.83117 0.16414 0.0
H1058 H 0.2487 0.83094 0.17052 0.0
H1059 H 0.30507 0.79802 0.17256 0.0
H1060 H 0.30333 0.68451 0.18293 0.0
H1061 H 0.23896 0.68512 0.18242 0.0
C1062 C 0.19721 0.74218 0.17264 0.0
C1063 C 0.17869 0.77417 0.16715 0.0
C1064 C 0.23434 0.74192 0.1765 0.0
C1065 C 0.19788 0.80605 0.16796 0.0
C1066 C 0.23472 0.80598 0.1715 0.0
C1067 C 0.29063 0.77345 0.17507 0.0
C1068 C 0.30936 0.74117 0.17694 0.0
C1069 C 0.25334 0.774 0.17482 0.0
C1070 C 0.28997 0.70972 0.1811 0.0
C1071 C 0.25296 0.71003 0.18066 0.0
H1072 H 0.70184 0.30157 0.38758 0.0
H1073 H 0.81412 0.31921 0.39663 0.0
H1074 H 0.82469 0.25539 0.39517 0.0
H1075 H 0.80142 0.19478 0.39909 0.0
H1076 H 0.68896 0.17748 0.39444 0.0
H1077 H 0.67896 0.24095 0.38635 0.0
C1078 C 0.72868 0.29164 0.38868 0.0
C1079 C 0.75712 0.31539 0.39283 0.0
C1080 C 0.73445 0.25483 0.38906 0.0
C1081 C 0.79171 0.30164 0.39402 0.0
C1082 C 0.79776 0.26509 0.39324 0.0
C1083 C 0.7748 0.20476 0.39553 0.0
C1084 C 0.74597 0.18134 0.39768 0.0
C1085 C 0.76925 0.24142 0.39196 0.0
C1086 C 0.71157 0.19492 0.39328 0.0
C1087 C 0.70587 0.23122 0.38867 0.0
H1088 H 0.28578 0.8337 0.46021 0.0
H1089 H 0.32643 0.73336 0.42399 0.0
H1090 H 0.26631 0.71358 0.40896 0.0
H1091 H 0.20207 0.72222 0.4145 0.0
H1092 H 0.16164 0.82345 0.45074 0.0
H1093 H 0.22149 0.84515 0.45803 0.0
C1094 C 0.28121 0.80775 0.4485 0.0
C1095 C 0.31002 0.78489 0.44301 0.0
C1096 C 0.24659 0.79631 0.44113 0.0
C1097 C 0.30434 0.75122 0.42817 0.0
C1098 C 0.27003 0.73988 0.42003 0.0
C1099 C 0.20599 0.74912 0.42362 0.0
C1100 C 0.17671 0.77045 0.43333 0.0
C1101 C 0.2408 0.76174 0.42766 0.0
C1102 C 0.18316 0.80564 0.44432 0.0
C1103 C 0.21759 0.81834 0.44832 0.0
H1104 H 0.32003 0.78048 0.86929 0.0
H1105 H 0.21084 0.80254 0.89324 0.0
H1106 H 0.19574 0.74076 0.8807 0.0
H1107 H 0.21556 0.6791 0.87788 0.0
H1108 H 0.32673 0.65506 0.8697 0.0
H1109 H 0.33982 0.71828 0.86354 0.0
C1110 C 0.29307 0.77164 0.87234 0.0
C1111 C 0.26677 0.79574 0.88362 0.0
C1112 C 0.28534 0.73531 0.86947 0.0
C1113 C 0.23155 0.78431 0.88517 0.0
C1114 C 0.22307 0.7489 0.87859 0.0
C1115 C 0.24262 0.68748 0.87415 0.0
C1116 C 0.2702 0.66228 0.87481 0.0
C1117 C 0.25004 0.72384 0.87307 0.0
C1118 C 0.3051 0.6739 0.86975 0.0
C1119 C 0.31254 0.71004 0.86625 0.0
H1120 H 0.82375 0.2349 0.90607 0.0
H1121 H 0.85112 0.33066 0.96334 0.0
H1122 H 0.789 0.34856 0.9642 0.0
H1123 H 0.72645 0.33251 0.95669 0.0
H1124 H 0.69843 0.23627 0.9017 0.0
H1125 H 0.76137 0.22247 0.89201 0.0
C1126 C 0.81634 0.26014 0.91782 0.0
C1127 C 0.84206 0.28118 0.93515 0.0
C1128 C 0.78041 0.26975 0.91908 0.0
C1129 C 0.83177 0.31377 0.95037 0.0
C1130 C 0.79627 0.32394 0.95097 0.0
C1131 C 0.73437 0.30922 0.94149 0.0
C1132 C 0.70835 0.28566 0.92925 0.0
C1133 C 0.77031 0.3015 0.93662 0.0
C1134 C 0.71833 0.25491 0.91062 0.0
C1135 C 0.75418 0.24705 0.90535 0.0
H1136 H 0.31281 0.69375 0.63027 0.0
H1137 H 0.21217 0.65728 0.66865 0.0
H1138 H 0.19209 0.71859 0.6765 0.0
H1139 H 0.19895 0.7818 0.65989 0.0
H1140 H 0.29829 0.81703 0.61662 0.0
H1141 H 0.32286 0.75743 0.62231 0.0
C1142 C 0.2868 0.69937 0.64112 0.0
C1143 C 0.26392 0.67122 0.64887 0.0
C1144 C 0.27471 0.73457 0.64325 0.0
C1145 C 0.23008 0.67869 0.66244 0.0
C1146 C 0.21845 0.7137 0.66636 0.0
C1147 C 0.22624 0.77656 0.65276 0.0
C1148 C 0.24668 0.80367 0.63748 0.0
C1149 C 0.23985 0.74182 0.65506 0.0
C1150 C 0.28198 0.79645 0.62804 0.0
C1151 C 0.29599 0.76237 0.63121 0.0
H1152 H 0.79855 0.3155 0.61464 0.0
H1153 H 0.82069 0.22628 0.68245 0.0
H1154 H 0.75695 0.2168 0.69149 0.0
H1155 H 0.69543 0.22963 0.67289 0.0
H1156 H 0.67473 0.31632 0.60066 0.0
H1157 H 0.73707 0.33269 0.60206 0.0
C1158 C 0.78917 0.29488 0.63243 0.0
C1159 C 0.81375 0.27189 0.64836 0.0
C1160 C 0.7528 0.2893 0.6366 0.0
C1161 C 0.80188 0.24443 0.67045 0.0
C1162 C 0.76557 0.23901 0.67539 0.0
C1163 C 0.70448 0.25236 0.65793 0.0
C1164 C 0.68069 0.27107 0.63574 0.0
C1165 C 0.74076 0.2606 0.65758 0.0
C1166 C 0.69272 0.30113 0.61734 0.0
C1167 C 0.72837 0.31038 0.61798 0.0
loop_
_geom_bond_atom_site_label_1
_geom_bond_atom_site_label_2
_geom_bond_distance
_geom_bond_site_symmetry_2
_ccdc_geom_bond_type
C0 C1 1.351 1_545 S
C0 N3 1.368 . S
C0 H5 0.931 . S
C1 C0 1.351 1_565 S
C1 N2 1.373 1_565 S
C1 H29 0.930 . S
N2 C1 1.373 1_545 S
N2 C4 1.340 . S
N3 C0 1.368 . S
N3 C4 1.321 . S
N3 Co6 2.135 . S
C4 N2 1.340 . S
C4 N3 1.321 . S
C4 H28 0.930 . S
H5 C0 0.931 . S
Co6 N3 2.135 . S
Co6 N9 2.121 . S
Co6 O14 2.055 . S
Co6 O17 2.039 . S
Co6 N20 2.140 . S
C7 O8 1.227 . S
C7 O17 1.265 . S
O8 C7 1.227 . S
N9 Co6 2.121 . S
N9 C11 1.375 . S
N9 C12 1.313 . S
C10 C11 1.338 . S
C10 N13 1.377 . S
C10 H30 0.930 . S
C11 N9 1.375 . S
C11 C10 1.338 . S
C11 H15 0.931 . S
C12 N9 1.313 . S
C12 N13 1.344 . S
C12 H16 0.930 . S
N13 C10 1.377 . S
N13 C12 1.344 . S
O14 Co6 2.055 . S
O14 C18 1.253 . S
H15 C11 0.931 . S
H16 C12 0.930 . S
O17 Co6 2.039 . S
O17 C7 1.265 . S
C18 O14 1.253 . S
C18 O19 1.227 . S
O19 C18 1.227 . S
N20 Co6 2.140 . S
N20 C23 1.346 . S
N20 C24 1.345 . S
C21 C22 1.387 . S
C21 C25 1.391 . S
C22 C21 1.387 . S
C22 C23 1.369 . S
C22 H31 0.929 . S
C23 N20 1.346 . S
C23 C22 1.369 . S
C23 H26 0.928 . S
C24 N20 1.345 . S
C24 C25 1.371 . S
C24 H27 0.931 . S
C25 C21 1.391 . S
C25 C24 1.371 . S
C25 H32 0.930 . S
H26 C23 0.928 . S
H27 C24 0.931 . S
H28 C4 0.930 . S
H29 C1 0.930 . S
H30 C10 0.930 . S
H31 C22 0.929 . S
H32 C25 0.930 . S
C33 C34 1.351 . S
C33 N36 1.368 . S
C33 H38 0.931 . S
C34 C33 1.351 . S
C34 N35 1.373 . S
C34 H62 0.930 . S
N35 C34 1.373 . S
N35 C37 1.340 . S
N36 C33 1.368 . S
N36 C37 1.321 . S
N36 Co39 2.135 . S
C37 N35 1.340 . S
C37 N36 1.321 . S
C37 H61 0.930 . S
H38 C33 0.931 . S
Co39 N36 2.135 . S
Co39 N42 2.121 . S
Co39 O47 2.055 . S
Co39 O50 2.039 . S
Co39 N53 2.140 . S
C40 O41 1.227 . S
C40 O50 1.265 . S
O41 C40 1.227 . S
N42 Co39 2.121 . S
N42 C44 1.375 . S
N42 C45 1.313 . S
C43 C44 1.338 . S
C43 N46 1.377 . S
C43 H63 0.930 . S
C44 N42 1.375 . S
C44 C43 1.338 . S
C44 H48 0.931 . S
C45 N42 1.313 . S
C45 N46 1.344 . S
C45 H49 0.930 . S
N46 C43 1.377 . S
N46 C45 1.344 . S
O47 Co39 2.055 . S
O47 C51 1.253 . S
H48 C44 0.931 . S
H49 C45 0.930 . S
O50 Co39 2.039 . S
O50 C40 1.265 . S
C51 O47 1.253 . S
C51 O52 1.227 . S
O52 C51 1.227 . S
N53 Co39 2.140 . S
N53 C56 1.346 . S
N53 C57 1.345 . S
C54 C55 1.387 . S
C54 C58 1.391 . S
C55 C54 1.387 . S
C55 C56 1.369 . S
C55 H64 0.929 . S
C56 N53 1.346 . S
C56 C55 1.369 . S
C56 H59 0.928 . S
C57 N53 1.345 . S
C57 C58 1.371 . S
C57 H60 0.931 . S
C58 C54 1.391 . S
C58 C57 1.371 . S
C58 H65 0.930 . S
H59 C56 0.928 . S
H60 C57 0.931 . S
H61 C37 0.930 . S
H62 C34 0.930 . S
H63 C43 0.930 . S
H64 C55 0.929 . S
H65 C58 0.930 . S
C66 C67 1.351 . S
C66 N69 1.368 . S
C66 H71 0.931 . S
C67 C66 1.351 . S
C67 N68 1.373 . S
C67 H95 0.930 . S
N68 C67 1.373 . S
N68 C70 1.340 . S
N69 C66 1.368 . S
N69 C70 1.321 . S
N69 Co72 2.135 . S
C70 N68 1.340 . S
C70 N69 1.321 . S
C70 H94 0.930 . S
H71 C66 0.931 . S
Co72 N69 2.135 . S
Co72 N75 2.121 . S
Co72 O80 2.055 . S
Co72 O83 2.039 . S
Co72 N86 2.140 . S
C73 O74 1.227 . S
C73 O83 1.265 . S
O74 C73 1.227 . S
N75 Co72 2.121 . S
N75 C77 1.375 . S
N75 C78 1.313 . S
C76 C77 1.338 . S
C76 N79 1.377 . S
C76 H96 0.930 . S
C77 N75 1.375 . S
C77 C76 1.338 . S
C77 H81 0.931 . S
C78 N75 1.313 . S
C78 N79 1.344 . S
C78 H82 0.930 . S
N79 C76 1.377 . S
N79 C78 1.344 . S
O80 Co72 2.055 . S
O80 C84 1.253 . S
H81 C77 0.931 . S
H82 C78 0.930 . S
O83 Co72 2.039 . S
O83 C73 1.265 . S
C84 O80 1.253 . S
C84 O85 1.227 . S
O85 C84 1.227 . S
N86 Co72 2.140 . S
N86 C89 1.346 . S
N86 C90 1.345 . S
C87 C88 1.387 . S
C87 C91 1.391 . S
C88 C87 1.387 . S
C88 C89 1.369 . S
C88 H97 0.929 . S
C89 N86 1.346 . S
C89 C88 1.369 . S
C89 H92 0.928 . S
C90 N86 1.345 . S
C90 C91 1.371 . S
C90 H93 0.931 . S
C91 C87 1.391 . S
C91 C90 1.371 . S
C91 H98 0.930 . S
H92 C89 0.928 . S
H93 C90 0.931 . S
H94 C70 0.930 . S
H95 C67 0.930 . S
H96 C76 0.930 . S
H97 C88 0.929 . S
H98 C91 0.930 . S
C99 C100 1.351 1_455 S
C99 N102 1.368 . S
C99 H104 0.931 . S
C100 C99 1.351 1_655 S
C100 N101 1.373 1_655 S
C100 H128 0.930 . S
N101 C100 1.373 1_455 S
N101 C103 1.340 . S
N102 C99 1.368 . S
N102 C103 1.321 . S
N102 Co105 2.135 . S
C103 N101 1.340 . S
C103 N102 1.321 . S
C103 H127 0.930 . S
H104 C99 0.931 . S
Co105 N102 2.135 . S
Co105 N108 2.121 . S
Co105 O113 2.055 . S
Co105 O116 2.039 . S
Co105 N119 2.140 . S
C106 O107 1.227 . S
C106 O116 1.265 . S
O107 C106 1.227 . S
N108 Co105 2.121 . S
N108 C110 1.375 . S
N108 C111 1.313 . S
C109 C110 1.338 . S
C109 N112 1.377 . S
C109 H129 0.930 . S
C110 N108 1.375 . S
C110 C109 1.338 . S
C110 H114 0.931 . S
C111 N108 1.313 . S
C111 N112 1.344 . S
C111 H115 0.930 . S
N112 C109 1.377 . S
N112 C111 1.344 . S
O113 Co105 2.055 . S
O113 C117 1.253 . S
H114 C110 0.931 . S
H115 C111 0.930 . S
O116 Co105 2.039 . S
O116 C106 1.265 . S
C117 O113 1.253 . S
C117 O118 1.227 . S
O118 C117 1.227 . S
N119 Co105 2.140 . S
N119 C122 1.346 . S
N119 C123 1.345 . S
C120 C121 1.387 . S
C120 C124 1.391 . S
C121 C120 1.387 . S
C121 C122 1.369 . S
C121 H130 0.929 . S
C122 N119 1.346 . S
C122 C121 1.369 . S
C122 H125 0.928 . S
C123 N119 1.345 . S
C123 C124 1.371 . S
C123 H126 0.931 . S
C124 C120 1.391 . S
C124 C123 1.371 . S
C124 H131 0.930 . S
H125 C122 0.928 . S
H126 C123 0.931 . S
H127 C103 0.930 . S
H128 C100 0.930 . S
H129 C109 0.930 . S
H130 C121 0.929 . S
H131 C124 0.930 . S
C132 C133 1.351 . S
C132 N135 1.368 . S
C132 H137 0.931 . S
C133 C132 1.351 . S
C133 N134 1.373 . S
C133 H161 0.930 . S
N134 C133 1.373 . S
N134 C136 1.340 . S
N135 C132 1.368 . S
N135 C136 1.321 . S
N135 Co138 2.135 . S
C136 N134 1.340 . S
C136 N135 1.321 . S
C136 H160 0.930 . S
H137 C132 0.931 . S
Co138 N135 2.135 . S
Co138 N141 2.121 . S
Co138 O146 2.055 . S
Co138 O149 2.039 . S
Co138 N152 2.140 . S
C139 O140 1.227 . S
C139 O149 1.265 . S
O140 C139 1.227 . S
N141 Co138 2.121 . S
N141 C143 1.375 . S
N141 C144 1.313 . S
C142 C143 1.338 . S
C142 N145 1.377 . S
C142 H162 0.930 . S
C143 N141 1.375 . S
C143 C142 1.338 . S
C143 H147 0.931 . S
C144 N141 1.313 . S
C144 N145 1.344 . S
C144 H148 0.930 . S
N145 C142 1.377 . S
N145 C144 1.344 . S
O146 Co138 2.055 . S
O146 C150 1.253 . S
H147 C143 0.931 . S
H148 C144 0.930 . S
O149 Co138 2.039 . S
O149 C139 1.265 . S
C150 O146 1.253 . S
C150 O151 1.227 . S
O151 C150 1.227 . S
N152 Co138 2.140 . S
N152 C155 1.346 . S
N152 C156 1.345 . S
C153 C154 1.387 . S
C153 C157 1.391 . S
C154 C153 1.387 . S
C154 C155 1.369 . S
C154 H163 0.929 . S
C155 N152 1.346 . S
C155 C154 1.369 . S
C155 H158 0.928 . S
C156 N152 1.345 . S
C156 C157 1.371 . S
C156 H159 0.931 . S
C157 C153 1.391 . S
C157 C156 1.371 . S
C157 H164 0.930 . S
H158 C155 0.928 . S
H159 C156 0.931 . S
H160 C136 0.930 . S
H161 C133 0.930 . S
H162 C142 0.930 . S
H163 C154 0.929 . S
H164 C157 0.930 . S
C165 C166 1.351 1_455 S
C165 N168 1.368 . S
C165 H170 0.931 . S
C166 C165 1.351 1_655 S
C166 N167 1.373 1_655 S
C166 H194 0.930 . S
N167 C166 1.373 1_455 S
N167 C169 1.340 . S
N168 C165 1.368 . S
N168 C169 1.321 . S
N168 Co171 2.135 . S
C169 N167 1.340 . S
C169 N168 1.321 . S
C169 H193 0.930 . S
H170 C165 0.931 . S
Co171 N168 2.135 . S
Co171 N174 2.121 . S
Co171 O179 2.055 . S
Co171 O182 2.039 . S
Co171 N185 2.140 . S
C172 O173 1.227 . S
C172 O182 1.265 . S
O173 C172 1.227 . S
N174 Co171 2.121 . S
N174 C176 1.375 . S
N174 C177 1.313 . S
C175 C176 1.338 . S
C175 N178 1.377 . S
C175 H195 0.930 . S
C176 N174 1.375 . S
C176 C175 1.338 . S
C176 H180 0.931 . S
C177 N174 1.313 . S
C177 N178 1.344 . S
C177 H181 0.930 . S
N178 C175 1.377 . S
N178 C177 1.344 . S
O179 Co171 2.055 . S
O179 C183 1.253 . S
H180 C176 0.931 . S
H181 C177 0.930 . S
O182 Co171 2.039 . S
O182 C172 1.265 . S
C183 O179 1.253 . S
C183 O184 1.227 . S
O184 C183 1.227 . S
N185 Co171 2.140 . S
N185 C188 1.346 . S
N185 C189 1.345 . S
C186 C187 1.387 . S
C186 C190 1.391 . S
C187 C186 1.387 . S
C187 C188 1.369 . S
C187 H196 0.929 . S
C188 N185 1.346 . S
C188 C187 1.369 . S
C188 H191 0.928 . S
C189 N185 1.345 . S
C189 C190 1.371 . S
C189 H192 0.931 . S
C190 C186 1.391 . S
C190 C189 1.371 . S
C190 H197 0.930 . S
H191 C188 0.928 . S
H192 C189 0.931 . S
H193 C169 0.930 . S
H194 C166 0.930 . S
H195 C175 0.930 . S
H196 C187 0.929 . S
H197 C190 0.930 . S
C198 C199 1.351 1_545 S
C198 N201 1.368 . S
C198 H203 0.931 . S
C199 C198 1.351 1_565 S
C199 N200 1.373 1_565 S
C199 H227 0.930 . S
N200 C199 1.373 1_545 S
N200 C202 1.340 . S
N201 C198 1.368 . S
N201 C202 1.321 . S
N201 Co204 2.135 . S
C202 N200 1.340 . S
C202 N201 1.321 . S
C202 H226 0.930 . S
H203 C198 0.931 . S
Co204 N201 2.135 . S
Co204 N207 2.121 . S
Co204 O212 2.055 . S
Co204 O215 2.039 . S
Co204 N218 2.140 . S
C205 O206 1.227 . S
C205 O215 1.265 . S
O206 C205 1.227 . S
N207 Co204 2.121 . S
N207 C209 1.375 . S
N207 C210 1.313 . S
C208 C209 1.338 . S
C208 N211 1.377 . S
C208 H228 0.930 . S
C209 N207 1.375 . S
C209 C208 1.338 . S
C209 H213 0.931 . S
C210 N207 1.313 . S
C210 N211 1.344 . S
C210 H214 0.930 . S
N211 C208 1.377 . S
N211 C210 1.344 . S
O212 Co204 2.055 . S
O212 C216 1.253 . S
H213 C209 0.931 . S
H214 C210 0.930 . S
O215 Co204 2.039 . S
O215 C205 1.265 . S
C216 O212 1.253 . S
C216 O217 1.227 . S
O217 C216 1.227 . S
N218 Co204 2.140 . S
N218 C221 1.346 . S
N218 C222 1.345 . S
C219 C220 1.387 . S
C219 C223 1.391 . S
C220 C219 1.387 . S
C220 C221 1.369 . S
C220 H229 0.929 . S
C221 N218 1.346 . S
C221 C220 1.369 . S
C221 H224 0.928 . S
C222 N218 1.345 . S
C222 C223 1.371 . S
C222 H225 0.931 . S
C223 C219 1.391 . S
C223 C222 1.371 . S
C223 H230 0.930 . S
H224 C221 0.928 . S
H225 C222 0.931 . S
H226 C202 0.930 . S
H227 C199 0.930 . S
H228 C208 0.930 . S
H229 C220 0.929 . S
H230 C223 0.930 . S
C231 C232 1.351 . S
C231 N234 1.368 . S
C231 H236 0.931 . S
C232 C231 1.351 . S
C232 N233 1.373 . S
C232 H260 0.930 . S
N233 C232 1.373 . S
N233 C235 1.340 . S
N234 C231 1.368 . S
N234 C235 1.321 . S
N234 Co237 2.135 . S
C235 N233 1.340 . S
C235 N234 1.321 . S
C235 H259 0.930 . S
H236 C231 0.931 . S
Co237 N234 2.135 . S
Co237 N240 2.121 . S
Co237 O245 2.055 . S
Co237 O248 2.039 . S
Co237 N251 2.140 . S
C238 O239 1.227 . S
C238 O248 1.265 . S
O239 C238 1.227 . S
N240 Co237 2.121 . S
N240 C242 1.375 . S
N240 C243 1.313 . S
C241 C242 1.338 . S
C241 N244 1.377 . S
C241 H261 0.930 . S
C242 N240 1.375 . S
C242 C241 1.338 . S
C242 H246 0.931 . S
C243 N240 1.313 . S
C243 N244 1.344 . S
C243 H247 0.930 . S
N244 C241 1.377 . S
N244 C243 1.344 . S
O245 Co237 2.055 . S
O245 C249 1.253 . S
H246 C242 0.931 . S
H247 C243 0.930 . S
O248 Co237 2.039 . S
O248 C238 1.265 . S
C249 O245 1.253 . S
C249 O250 1.227 . S
O250 C249 1.227 . S
N251 Co237 2.140 . S
N251 C254 1.346 . S
N251 C255 1.345 . S
C252 C253 1.387 . S
C252 C256 1.391 . S
C253 C252 1.387 . S
C253 C254 1.369 . S
C253 H262 0.929 . S
C254 N251 1.346 . S
C254 C253 1.369 . S
C254 H257 0.928 . S
C255 N251 1.345 . S
C255 C256 1.371 . S
C255 H258 0.931 . S
C256 C252 1.391 . S
C256 C255 1.371 . S
C256 H263 0.930 . S
H257 C254 0.928 . S
H258 C255 0.931 . S
H259 C235 0.930 . S
H260 C232 0.930 . S
H261 C241 0.930 . S
H262 C253 0.929 . S
H263 C256 0.930 . S
C264 C265 1.351 1_565 S
C264 N267 1.368 . S
C264 H269 0.931 . S
C265 C264 1.351 1_545 S
C265 N266 1.373 1_545 S
C265 H293 0.930 . S
N266 C265 1.373 1_565 S
N266 C268 1.340 . S
N267 C264 1.368 . S
N267 C268 1.321 . S
N267 Co270 2.135 . S
C268 N266 1.340 . S
C268 N267 1.321 . S
C268 H292 0.930 . S
H269 C264 0.931 . S
Co270 N267 2.135 . S
Co270 N273 2.121 . S
Co270 O278 2.055 . S
Co270 O281 2.039 . S
Co270 N284 2.140 . S
C271 O272 1.227 . S
C271 O281 1.265 . S
O272 C271 1.227 . S
N273 Co270 2.121 . S
N273 C275 1.375 . S
N273 C276 1.313 . S
C274 C275 1.338 . S
C274 N277 1.377 . S
C274 H294 0.930 . S
C275 N273 1.375 . S
C275 C274 1.338 . S
C275 H279 0.931 . S
C276 N273 1.313 . S
C276 N277 1.344 . S
C276 H280 0.930 . S
N277 C274 1.377 . S
N277 C276 1.344 . S
O278 Co270 2.055 . S
O278 C282 1.253 . S
H279 C275 0.931 . S
H280 C276 0.930 . S
O281 Co270 2.039 . S
O281 C271 1.265 . S
C282 O278 1.253 . S
C282 O283 1.227 . S
O283 C282 1.227 . S
N284 Co270 2.140 . S
N284 C287 1.346 . S
N284 C288 1.345 . S
C285 C286 1.387 . S
C285 C289 1.391 . S
C286 C285 1.387 . S
C286 C287 1.369 . S
C286 H295 0.929 . S
C287 N284 1.346 . S
C287 C286 1.369 . S
C287 H290 0.928 . S
C288 N284 1.345 . S
C288 C289 1.371 . S
C288 H291 0.931 . S
C289 C285 1.391 . S
C289 C288 1.371 . S
C289 H296 0.930 . S
H290 C287 0.928 . S
H291 C288 0.931 . S
H292 C268 0.930 . S
H293 C265 0.930 . S
H294 C274 0.930 . S
H295 C286 0.929 . S
H296 C289 0.930 . S
C297 C298 1.351 . S
C297 N300 1.368 . S
C297 H302 0.931 . S
C298 C297 1.351 . S
C298 N299 1.373 . S
C298 H326 0.930 . S
N299 C298 1.373 . S
N299 C301 1.340 . S
N300 C297 1.368 . S
N300 C301 1.321 . S
N300 Co303 2.135 . S
C301 N299 1.340 . S
C301 N300 1.321 . S
C301 H325 0.930 . S
H302 C297 0.931 . S
Co303 N300 2.135 . S
Co303 N306 2.121 . S
Co303 O311 2.055 . S
Co303 O314 2.039 . S
Co303 N317 2.140 . S
C304 O305 1.227 . S
C304 O314 1.265 . S
O305 C304 1.227 . S
N306 Co303 2.121 . S
N306 C308 1.375 . S
N306 C309 1.313 . S
C307 C308 1.338 . S
C307 N310 1.377 . S
C307 H327 0.930 . S
C308 N306 1.375 . S
C308 C307 1.338 . S
C308 H312 0.931 . S
C309 N306 1.313 . S
C309 N310 1.344 . S
C309 H313 0.930 . S
N310 C307 1.377 . S
N310 C309 1.344 . S
O311 Co303 2.055 . S
O311 C315 1.253 . S
H312 C308 0.931 . S
H313 C309 0.930 . S
O314 Co303 2.039 . S
O314 C304 1.265 . S
C315 O311 1.253 . S
C315 O316 1.227 . S
O316 C315 1.227 . S
N317 Co303 2.140 . S
N317 C320 1.346 . S
N317 C321 1.345 . S
C318 C319 1.387 . S
C318 C322 1.391 . S
C319 C318 1.387 . S
C319 C320 1.369 . S
C319 H328 0.929 . S
C320 N317 1.346 . S
C320 C319 1.369 . S
C320 H323 0.928 . S
C321 N317 1.345 . S
C321 C322 1.371 . S
C321 H324 0.931 . S
C322 C318 1.391 . S
C322 C321 1.371 . S
C322 H329 0.930 . S
H323 C320 0.928 . S
H324 C321 0.931 . S
H325 C301 0.930 . S
H326 C298 0.930 . S
H327 C307 0.930 . S
H328 C319 0.929 . S
H329 C322 0.930 . S
C330 C331 1.351 . S
C330 N333 1.368 . S
C330 H335 0.931 . S
C331 C330 1.351 . S
C331 N332 1.373 . S
C331 H359 0.930 . S
N332 C331 1.373 . S
N332 C334 1.340 . S
N333 C330 1.368 . S
N333 C334 1.321 . S
N333 Co336 2.135 . S
C334 N332 1.340 . S
C334 N333 1.321 . S
C334 H358 0.930 . S
H335 C330 0.931 . S
Co336 N333 2.135 . S
Co336 N339 2.121 . S
Co336 O344 2.055 . S
Co336 O347 2.039 . S
Co336 N350 2.140 . S
C337 O338 1.227 . S
C337 O347 1.265 . S
O338 C337 1.227 . S
N339 Co336 2.121 . S
N339 C341 1.375 . S
N339 C342 1.313 . S
C340 C341 1.338 . S
C340 N343 1.377 . S
C340 H360 0.930 . S
C341 N339 1.375 . S
C341 C340 1.338 . S
C341 H345 0.931 . S
C342 N339 1.313 . S
C342 N343 1.344 . S
C342 H346 0.930 . S
N343 C340 1.377 . S
N343 C342 1.344 . S
O344 Co336 2.055 . S
O344 C348 1.253 . S
H345 C341 0.931 . S
H346 C342 0.930 . S
O347 Co336 2.039 . S
O347 C337 1.265 . S
C348 O344 1.253 . S
C348 O349 1.227 . S
O349 C348 1.227 . S
N350 Co336 2.140 . S
N350 C353 1.346 . S
N350 C354 1.345 . S
C351 C352 1.387 . S
C351 C355 1.391 . S
C352 C351 1.387 . S
C352 C353 1.369 . S
C352 H361 0.929 . S
C353 N350 1.346 . S
C353 C352 1.369 . S
C353 H356 0.928 . S
C354 N350 1.345 . S
C354 C355 1.371 . S
C354 H357 0.931 . S
C355 C351 1.391 . S
C355 C354 1.371 . S
C355 H362 0.930 . S
H356 C353 0.928 . S
H357 C354 0.931 . S
H358 C334 0.930 . S
H359 C331 0.930 . S
H360 C340 0.930 . S
H361 C352 0.929 . S
H362 C355 0.930 . S
C363 C364 1.351 1_655 S
C363 N366 1.368 . S
C363 H368 0.931 . S
C364 C363 1.351 1_455 S
C364 N365 1.373 1_455 S
C364 H392 0.930 . S
N365 C364 1.373 1_655 S
N365 C367 1.340 . S
N366 C363 1.368 . S
N366 C367 1.321 . S
N366 Co369 2.135 . S
C367 N365 1.340 . S
C367 N366 1.321 . S
C367 H391 0.930 . S
H368 C363 0.931 . S
Co369 N366 2.135 . S
Co369 N372 2.121 . S
Co369 O377 2.055 . S
Co369 O380 2.039 . S
Co369 N383 2.140 . S
C370 O371 1.227 . S
C370 O380 1.265 . S
O371 C370 1.227 . S
N372 Co369 2.121 . S
N372 C374 1.375 . S
N372 C375 1.313 . S
C373 C374 1.338 . S
C373 N376 1.377 . S
C373 H393 0.930 . S
C374 N372 1.375 . S
C374 C373 1.338 . S
C374 H378 0.931 . S
C375 N372 1.313 . S
C375 N376 1.344 . S
C375 H379 0.930 . S
N376 C373 1.377 . S
N376 C375 1.344 . S
O377 Co369 2.055 . S
O377 C381 1.253 . S
H378 C374 0.931 . S
H379 C375 0.930 . S
O380 Co369 2.039 . S
O380 C370 1.265 . S
C381 O377 1.253 . S
C381 O382 1.227 . S
O382 C381 1.227 . S
N383 Co369 2.140 . S
N383 C386 1.346 . S
N383 C387 1.345 . S
C384 C385 1.387 . S
C384 C388 1.391 . S
C385 C384 1.387 . S
C385 C386 1.369 . S
C385 H394 0.929 . S
C386 N383 1.346 . S
C386 C385 1.369 . S
C386 H389 0.928 . S
C387 N383 1.345 . S
C387 C388 1.371 . S
C387 H390 0.931 . S
C388 C384 1.391 . S
C388 C387 1.371 . S
C388 H395 0.930 . S
H389 C386 0.928 . S
H390 C387 0.931 . S
H391 C367 0.930 . S
H392 C364 0.930 . S
H393 C373 0.930 . S
H394 C385 0.929 . S
H395 C388 0.930 . S
C396 C397 1.351 . S
C396 N399 1.368 . S
C396 H401 0.931 . S
C397 C396 1.351 . S
C397 N398 1.373 . S
C397 H425 0.930 . S
N398 C397 1.373 . S
N398 C400 1.340 . S
N399 C396 1.368 . S
N399 C400 1.321 . S
N399 Co402 2.135 . S
C400 N398 1.340 . S
C400 N399 1.321 . S
C400 H424 0.930 . S
H401 C396 0.931 . S
Co402 N399 2.135 . S
Co402 N405 2.121 . S
Co402 O410 2.055 . S
Co402 O413 2.039 . S
Co402 N416 2.140 . S
C403 O404 1.227 . S
C403 O413 1.265 . S
O404 C403 1.227 . S
N405 Co402 2.121 . S
N405 C407 1.375 . S
N405 C408 1.313 . S
C406 C407 1.338 . S
C406 N409 1.377 . S
C406 H426 0.930 . S
C407 N405 1.375 . S
C407 C406 1.338 . S
C407 H411 0.931 . S
C408 N405 1.313 . S
C408 N409 1.344 . S
C408 H412 0.930 . S
N409 C406 1.377 . S
N409 C408 1.344 . S
O410 Co402 2.055 . S
O410 C414 1.253 . S
H411 C407 0.931 . S
H412 C408 0.930 . S
O413 Co402 2.039 . S
O413 C403 1.265 . S
C414 O410 1.253 . S
C414 O415 1.227 . S
O415 C414 1.227 . S
N416 Co402 2.140 . S
N416 C419 1.346 . S
N416 C420 1.345 . S
C417 C418 1.387 . S
C417 C421 1.391 . S
C418 C417 1.387 . S
C418 C419 1.369 . S
C418 H427 0.929 . S
C419 N416 1.346 . S
C419 C418 1.369 . S
C419 H422 0.928 . S
C420 N416 1.345 . S
C420 C421 1.371 . S
C420 H423 0.931 . S
C421 C417 1.391 . S
C421 C420 1.371 . S
C421 H428 0.930 . S
H422 C419 0.928 . S
H423 C420 0.931 . S
H424 C400 0.930 . S
H425 C397 0.930 . S
H426 C406 0.930 . S
H427 C418 0.929 . S
H428 C421 0.930 . S
C429 C430 1.351 1_655 S
C429 N432 1.368 . S
C429 H434 0.931 . S
C430 C429 1.351 1_455 S
C430 N431 1.373 1_455 S
C430 H458 0.930 . S
N431 C430 1.373 1_655 S
N431 C433 1.340 . S
N432 C429 1.368 . S
N432 C433 1.321 . S
N432 Co435 2.135 . S
C433 N431 1.340 . S
C433 N432 1.321 . S
C433 H457 0.930 . S
H434 C429 0.931 . S
Co435 N432 2.135 . S
Co435 N438 2.121 . S
Co435 O443 2.055 . S
Co435 O446 2.039 . S
Co435 N449 2.140 . S
C436 O437 1.227 . S
C436 O446 1.265 . S
O437 C436 1.227 . S
N438 Co435 2.121 . S
N438 C440 1.375 . S
N438 C441 1.313 . S
C439 C440 1.338 . S
C439 N442 1.377 . S
C439 H459 0.930 . S
C440 N438 1.375 . S
C440 C439 1.338 . S
C440 H444 0.931 . S
C441 N438 1.313 . S
C441 N442 1.344 . S
C441 H445 0.930 . S
N442 C439 1.377 . S
N442 C441 1.344 . S
O443 Co435 2.055 . S
O443 C447 1.253 . S
H444 C440 0.931 . S
H445 C441 0.930 . S
O446 Co435 2.039 . S
O446 C436 1.265 . S
C447 O443 1.253 . S
C447 O448 1.227 . S
O448 C447 1.227 . S
N449 Co435 2.140 . S
N449 C452 1.346 . S
N449 C453 1.345 . S
C450 C451 1.387 . S
C450 C454 1.391 . S
C451 C450 1.387 . S
C451 C452 1.369 . S
C451 H460 0.929 . S
C452 N449 1.346 . S
C452 C451 1.369 . S
C452 H455 0.928 . S
C453 N449 1.345 . S
C453 C454 1.371 . S
C453 H456 0.931 . S
C454 C450 1.391 . S
C454 C453 1.371 . S
C454 H461 0.930 . S
H455 C452 0.928 . S
H456 C453 0.931 . S
H457 C433 0.930 . S
H458 C430 0.930 . S
H459 C439 0.930 . S
H460 C451 0.929 . S
H461 C454 0.930 . S
C462 C463 1.351 1_565 S
C462 N465 1.368 . S
C462 H467 0.931 . S
C463 C462 1.351 1_545 S
C463 N464 1.373 1_545 S
C463 H491 0.930 . S
N464 C463 1.373 1_565 S
N464 C466 1.340 . S
N465 C462 1.368 . S
N465 C466 1.321 . S
N465 Co468 2.135 . S
C466 N464 1.340 . S
C466 N465 1.321 . S
C466 H490 0.930 . S
H467 C462 0.931 . S
Co468 N465 2.135 . S
Co468 N471 2.121 . S
Co468 O476 2.055 . S
Co468 O479 2.039 . S
Co468 N482 2.140 . S
C469 O470 1.227 . S
C469 O479 1.265 . S
O470 C469 1.227 . S
N471 Co468 2.121 . S
N471 C473 1.375 . S
N471 C474 1.313 . S
C472 C473 1.338 . S
C472 N475 1.377 . S
C472 H492 0.930 . S
C473 N471 1.375 . S
C473 C472 1.338 . S
C473 H477 0.931 . S
C474 N471 1.313 . S
C474 N475 1.344 . S
C474 H478 0.930 . S
N475 C472 1.377 . S
N475 C474 1.344 . S
O476 Co468 2.055 . S
O476 C480 1.253 . S
H477 C473 0.931 . S
H478 C474 0.930 . S
O479 Co468 2.039 . S
O479 C469 1.265 . S
C480 O476 1.253 . S
C480 O481 1.227 . S
O481 C480 1.227 . S
N482 Co468 2.140 . S
N482 C485 1.346 . S
N482 C486 1.345 . S
C483 C484 1.387 . S
C483 C487 1.391 . S
C484 C483 1.387 . S
C484 C485 1.369 . S
C484 H493 0.929 . S
C485 N482 1.346 . S
C485 C484 1.369 . S
C485 H488 0.928 . S
C486 N482 1.345 . S
C486 C487 1.371 . S
C486 H489 0.931 . S
C487 C483 1.391 . S
C487 C486 1.371 . S
C487 H494 0.930 . S
H488 C485 0.928 . S
H489 C486 0.931 . S
H490 C466 0.930 . S
H491 C463 0.930 . S
H492 C472 0.930 . S
H493 C484 0.929 . S
H494 C487 0.930 . S
C495 C496 1.351 . S
C495 N498 1.368 . S
C495 H500 0.931 . S
C496 C495 1.351 . S
C496 N497 1.373 . S
C496 H524 0.930 . S
N497 C496 1.373 . S
N497 C499 1.340 . S
N498 C495 1.368 . S
N498 C499 1.321 . S
N498 Co501 2.135 . S
C499 N497 1.340 . S
C499 N498 1.321 . S
C499 H523 0.930 . S
H500 C495 0.931 . S
Co501 N498 2.135 . S
Co501 N504 2.121 . S
Co501 O509 2.055 . S
Co501 O512 2.039 . S
Co501 N515 2.140 . S
C502 O503 1.227 . S
C502 O512 1.265 . S
O503 C502 1.227 . S
N504 Co501 2.121 . S
N504 C506 1.375 . S
N504 C507 1.313 . S
C505 C506 1.338 . S
C505 N508 1.377 . S
C505 H525 0.930 . S
C506 N504 1.375 . S
C506 C505 1.338 . S
C506 H510 0.931 . S
C507 N504 1.313 . S
C507 N508 1.344 . S
C507 H511 0.930 . S
N508 C505 1.377 . S
N508 C507 1.344 . S
O509 Co501 2.055 . S
O509 C513 1.253 . S
H510 C506 0.931 . S
H511 C507 0.930 . S
O512 Co501 2.039 . S
O512 C502 1.265 . S
C513 O509 1.253 . S
C513 O514 1.227 . S
O514 C513 1.227 . S
N515 Co501 2.140 . S
N515 C518 1.346 . S
N515 C519 1.345 . S
C516 C517 1.387 . S
C516 C520 1.391 . S
C517 C516 1.387 . S
C517 C518 1.369 . S
C517 H526 0.929 . S
C518 N515 1.346 . S
C518 C517 1.369 . S
C518 H521 0.928 . S
C519 N515 1.345 . S
C519 C520 1.371 . S
C519 H522 0.931 . S
C520 C516 1.391 . S
C520 C519 1.371 . S
C520 H527 0.930 . S
H521 C518 0.928 . S
H522 C519 0.931 . S
H523 C499 0.930 . S
H524 C496 0.930 . S
H525 C505 0.930 . S
H526 C517 0.929 . S
H527 C520 0.930 . S
H528 C534 0.930 . S
H529 C537 0.930 . S
H530 C538 0.930 . S
H531 C539 0.930 . S
H532 C542 0.930 . S
H533 C543 0.930 . S
C534 H528 0.930 . S
C534 C535 1.355 . S
C534 C536 1.415 . S
C535 C534 1.355 . S
C535 C537 1.419 . S
C536 C534 1.415 . S
C536 C541 1.425 . S
C536 C543 1.409 . S
C537 H529 0.930 . S
C537 C535 1.419 . S
C537 C538 1.362 . S
C538 H530 0.930 . S
C538 C537 1.362 . S
C538 C541 1.409 . S
C539 H531 0.930 . S
C539 C540 1.355 . S
C539 C541 1.415 . S
C540 C539 1.355 . S
C540 C542 1.419 . S
C541 C536 1.425 . S
C541 C538 1.409 . S
C541 C539 1.415 . S
C542 H532 0.930 . S
C542 C540 1.419 . S
C542 C543 1.362 . S
C543 H533 0.930 . S
C543 C536 1.409 . S
C543 C542 1.362 . S
H544 C550 0.930 . S
H545 C553 0.930 . S
H546 C554 0.930 . S
H547 C555 0.930 . S
H548 C558 0.930 . S
H549 C559 0.930 . S
C550 H544 0.930 . S
C550 C551 1.355 . S
C550 C552 1.415 . S
C551 C550 1.355 . S
C551 C553 1.419 . S
C552 C550 1.415 . S
C552 C557 1.425 . S
C552 C559 1.409 . S
C553 H545 0.930 . S
C553 C551 1.419 . S
C553 C554 1.362 . S
C554 H546 0.930 . S
C554 C553 1.362 . S
C554 C557 1.409 . S
C555 H547 0.930 . S
C555 C556 1.355 . S
C555 C557 1.415 . S
C556 C555 1.355 . S
C556 C558 1.419 . S
C557 C552 1.425 . S
C557 C554 1.409 . S
C557 C555 1.415 . S
C558 H548 0.930 . S
C558 C556 1.419 . S
C558 C559 1.362 . S
C559 H549 0.930 . S
C559 C552 1.409 . S
C559 C558 1.362 . S
H560 C566 0.930 . S
H561 C569 0.930 . S
H562 C570 0.930 . S
H563 C571 0.930 . S
H564 C574 0.930 . S
H565 C575 0.930 . S
C566 H560 0.930 . S
C566 C567 1.355 . S
C566 C568 1.415 . S
C567 C566 1.355 . S
C567 C569 1.419 . S
C568 C566 1.415 . S
C568 C573 1.425 . S
C568 C575 1.409 . S
C569 H561 0.930 . S
C569 C567 1.419 . S
C569 C570 1.362 . S
C570 H562 0.930 . S
C570 C569 1.362 . S
C570 C573 1.409 . S
C571 H563 0.930 . S
C571 C572 1.355 . S
C571 C573 1.415 . S
C572 C571 1.355 . S
C572 C574 1.419 . S
C573 C568 1.425 . S
C573 C570 1.409 . S
C573 C571 1.415 . S
C574 H564 0.930 . S
C574 C572 1.419 . S
C574 C575 1.362 . S
C575 H565 0.930 . S
C575 C568 1.409 . S
C575 C574 1.362 . S
H576 C582 0.930 . S
H577 C585 0.930 . S
H578 C586 0.930 . S
H579 C587 0.930 . S
H580 C590 0.930 . S
H581 C591 0.930 . S
C582 H576 0.930 . S
C582 C583 1.355 . S
C582 C584 1.415 . S
C583 C582 1.355 . S
C583 C585 1.419 . S
C584 C582 1.415 . S
C584 C589 1.425 . S
C584 C591 1.409 . S
C585 H577 0.930 . S
C585 C583 1.419 . S
C585 C586 1.362 . S
C586 H578 0.930 . S
C586 C585 1.362 . S
C586 C589 1.409 . S
C587 H579 0.930 . S
C587 C588 1.355 . S
C587 C589 1.415 . S
C588 C587 1.355 . S
C588 C590 1.419 . S
C589 C584 1.425 . S
C589 C586 1.409 . S
C589 C587 1.415 . S
C590 H580 0.930 . S
C590 C588 1.419 . S
C590 C591 1.362 . S
C591 H581 0.930 . S
C591 C584 1.409 . S
C591 C590 1.362 . S
H592 C598 0.930 . S
H593 C601 0.930 . S
H594 C602 0.930 . S
H595 C603 0.930 . S
H596 C606 0.930 . S
H597 C607 0.930 . S
C598 H592 0.930 . S
C598 C599 1.355 . S
C598 C600 1.415 . S
C599 C598 1.355 . S
C599 C601 1.419 . S
C600 C598 1.415 . S
C600 C605 1.425 . S
C600 C607 1.409 . S
C601 H593 0.930 . S
C601 C599 1.419 . S
C601 C602 1.362 . S
C602 H594 0.930 . S
C602 C601 1.362 . S
C602 C605 1.409 . S
C603 H595 0.930 . S
C603 C604 1.355 . S
C603 C605 1.415 . S
C604 C603 1.355 . S
C604 C606 1.419 . S
C605 C600 1.425 . S
C605 C602 1.409 . S
C605 C603 1.415 . S
C606 H596 0.930 . S
C606 C604 1.419 . S
C606 C607 1.362 . S
C607 H597 0.930 . S
C607 C600 1.409 . S
C607 C606 1.362 . S
H608 C614 0.930 . S
H609 C617 0.930 . S
H610 C618 0.930 . S
H611 C619 0.930 . S
H612 C622 0.930 . S
H613 C623 0.930 . S
C614 H608 0.930 . S
C614 C615 1.355 . S
C614 C616 1.415 . S
C615 C614 1.355 . S
C615 C617 1.419 . S
C616 C614 1.415 . S
C616 C621 1.425 . S
C616 C623 1.409 . S
C617 H609 0.930 . S
C617 C615 1.419 . S
C617 C618 1.362 . S
C618 H610 0.930 . S
C618 C617 1.362 . S
C618 C621 1.409 . S
C619 H611 0.930 . S
C619 C620 1.355 . S
C619 C621 1.415 . S
C620 C619 1.355 . S
C620 C622 1.419 . S
C621 C616 1.425 . S
C621 C618 1.409 . S
C621 C619 1.415 . S
C622 H612 0.930 . S
C622 C620 1.419 . S
C622 C623 1.362 . S
C623 H613 0.930 . S
C623 C616 1.409 . S
C623 C622 1.362 . S
H624 C630 0.930 . S
H625 C633 0.930 . S
H626 C634 0.930 . S
H627 C635 0.930 . S
H628 C638 0.930 . S
H629 C639 0.930 . S
C630 H624 0.930 . S
C630 C631 1.355 . S
C630 C632 1.415 . S
C631 C630 1.355 . S
C631 C633 1.419 . S
C632 C630 1.415 . S
C632 C637 1.425 . S
C632 C639 1.409 . S
C633 H625 0.930 . S
C633 C631 1.419 . S
C633 C634 1.362 . S
C634 H626 0.930 . S
C634 C633 1.362 . S
C634 C637 1.409 . S
C635 H627 0.930 . S
C635 C636 1.355 . S
C635 C637 1.415 . S
C636 C635 1.355 . S
C636 C638 1.419 . S
C637 C632 1.425 . S
C637 C634 1.409 . S
C637 C635 1.415 . S
C638 H628 0.930 . S
C638 C636 1.419 . S
C638 C639 1.362 . S
C639 H629 0.930 . S
C639 C632 1.409 . S
C639 C638 1.362 . S
H640 C646 0.930 . S
H641 C649 0.930 . S
H642 C650 0.930 . S
H643 C651 0.930 . S
H644 C654 0.930 . S
H645 C655 0.930 . S
C646 H640 0.930 . S
C646 C647 1.355 . S
C646 C648 1.415 . S
C647 C646 1.355 . S
C647 C649 1.419 . S
C648 C646 1.415 . S
C648 C653 1.425 . S
C648 C655 1.409 . S
C649 H641 0.930 . S
C649 C647 1.419 . S
C649 C650 1.362 . S
C650 H642 0.930 . S
C650 C649 1.362 . S
C650 C653 1.409 . S
C651 H643 0.930 . S
C651 C652 1.355 . S
C651 C653 1.415 . S
C652 C651 1.355 . S
C652 C654 1.419 . S
C653 C648 1.425 . S
C653 C650 1.409 . S
C653 C651 1.415 . S
C654 H644 0.930 . S
C654 C652 1.419 . S
C654 C655 1.362 . S
C655 H645 0.930 . S
C655 C648 1.409 . S
C655 C654 1.362 . S
H656 C662 0.930 . S
H657 C665 0.930 . S
H658 C666 0.930 . S
H659 C667 0.930 . S
H660 C670 0.930 . S
H661 C671 0.930 . S
C662 H656 0.930 . S
C662 C663 1.355 . S
C662 C664 1.415 1_556 S
C663 C662 1.355 . S
C663 C665 1.419 1_545 S
C664 C662 1.415 1_554 S
C664 C669 1.425 1_544 S
C664 C671 1.409 . S
C665 H657 0.930 . S
C665 C663 1.419 1_565 S
C665 C666 1.362 . S
C666 H658 0.930 . S
C666 C665 1.362 . S
C666 C669 1.409 . S
C667 H659 0.930 . S
C667 C668 1.355 . S
C667 C669 1.415 1_554 S
C668 C667 1.355 . S
C668 C670 1.419 1_565 S
C669 C664 1.425 1_566 S
C669 C666 1.409 . S
C669 C667 1.415 1_556 S
C670 H660 0.930 . S
C670 C668 1.419 1_545 S
C670 C671 1.362 . S
C671 H661 0.930 . S
C671 C664 1.409 . S
C671 C670 1.362 . S
H672 C678 0.930 . S
H673 C681 0.930 . S
H674 C682 0.930 . S
H675 C683 0.930 . S
H676 C686 0.930 . S
H677 C687 0.930 . S
C678 H672 0.930 . S
C678 C679 1.355 . S
C678 C680 1.415 . S
C679 C678 1.355 . S
C679 C681 1.419 . S
C680 C678 1.415 . S
C680 C685 1.425 1_556 S
C680 C687 1.409 . S
C681 H673 0.930 . S
C681 C679 1.419 . S
C681 C682 1.362 1_556 S
C682 H674 0.930 . S
C682 C681 1.362 1_554 S
C682 C685 1.409 . S
C683 H675 0.930 . S
C683 C684 1.355 . S
C683 C685 1.415 . S
C684 C683 1.355 . S
C684 C686 1.419 . S
C685 C680 1.425 1_554 S
C685 C682 1.409 . S
C685 C683 1.415 . S
C686 H676 0.930 . S
C686 C684 1.419 . S
C686 C687 1.362 1_554 S
C687 H677 0.930 . S
C687 C680 1.409 . S
C687 C686 1.362 1_556 S
H688 C694 0.930 . S
H689 C697 0.930 . S
H690 C698 0.930 . S
H691 C699 0.930 . S
H692 C702 0.930 . S
H693 C703 0.930 . S
C694 H688 0.930 . S
C694 C695 1.355 . S
C694 C696 1.415 1_455 S
C695 C694 1.355 . S
C695 C697 1.419 . S
C696 C694 1.415 1_655 S
C696 C701 1.425 1_656 S
C696 C703 1.409 . S
C697 H689 0.930 . S
C697 C695 1.419 . S
C697 C698 1.362 1_556 S
C698 H690 0.930 . S
C698 C697 1.362 1_554 S
C698 C701 1.409 . S
C699 H691 0.930 . S
C699 C700 1.355 . S
C699 C701 1.415 1_655 S
C700 C699 1.355 . S
C700 C702 1.419 . S
C701 C696 1.425 1_454 S
C701 C698 1.409 . S
C701 C699 1.415 1_455 S
C702 H692 0.930 . S
C702 C700 1.419 . S
C702 C703 1.362 1_554 S
C703 H693 0.930 . S
C703 C696 1.409 . S
C703 C702 1.362 1_556 S
H704 C710 0.930 . S
H705 C713 0.930 . S
H706 C714 0.930 1_565 S
H707 C715 0.930 . S
H708 C718 0.930 . S
H709 C719 0.930 1_545 S
C710 H704 0.930 . S
C710 C711 1.355 1_455 S
C710 C712 1.400 1_556 S
C711 C710 1.355 1_655 S
C711 C713 1.419 . S
C712 C710 1.400 1_554 S
C712 C717 1.424 1_444 S
C712 C719 1.425 1_545 S
C713 H705 0.930 . S
C713 C711 1.419 . S
C713 C714 1.362 . S
C714 H706 0.930 1_545 S
C714 C713 1.362 . S
C714 C717 1.425 1_545 S
C715 H707 0.930 . S
C715 C716 1.355 1_655 S
C715 C717 1.400 1_554 S
C716 C715 1.355 1_455 S
C716 C718 1.419 . S
C717 C712 1.424 1_666 S
C717 C714 1.425 1_565 S
C717 C715 1.400 1_556 S
C718 H708 0.930 . S
C718 C716 1.419 . S
C718 C719 1.362 . S
C719 H709 0.930 1_565 S
C719 C712 1.425 1_565 S
C719 C718 1.362 . S
H720 C726 0.930 . S
H721 C729 0.930 . S
H722 C730 0.930 . S
H723 C731 0.930 . S
H724 C734 0.930 . S
H725 C735 0.930 . S
C726 H720 0.930 . S
C726 C727 1.355 . S
C726 C728 1.415 . S
C727 C726 1.355 . S
C727 C729 1.419 . S
C728 C726 1.415 . S
C728 C733 1.425 . S
C728 C735 1.409 . S
C729 H721 0.930 . S
C729 C727 1.419 . S
C729 C730 1.362 . S
C730 H722 0.930 . S
C730 C729 1.362 . S
C730 C733 1.409 . S
C731 H723 0.930 . S
C731 C732 1.355 . S
C731 C733 1.415 . S
C732 C731 1.355 . S
C732 C734 1.419 . S
C733 C728 1.425 . S
C733 C730 1.409 . S
C733 C731 1.415 . S
C734 H724 0.930 . S
C734 C732 1.419 . S
C734 C735 1.362 . S
C735 H725 0.930 . S
C735 C728 1.409 . S
C735 C734 1.362 . S
H736 C742 0.930 . S
H737 C745 0.930 . S
H738 C746 0.930 . S
H739 C747 0.930 . S
H740 C750 0.930 . S
H741 C751 0.930 . S
C742 H736 0.930 . S
C742 C743 1.355 1_455 S
C742 C744 1.415 . S
C743 C742 1.355 1_655 S
C743 C745 1.419 . S
C744 C742 1.415 . S
C744 C749 1.425 1_455 S
C744 C751 1.409 . S
C745 H737 0.930 . S
C745 C743 1.419 . S
C745 C746 1.362 . S
C746 H738 0.930 . S
C746 C745 1.362 . S
C746 C749 1.409 . S
C747 H739 0.930 . S
C747 C748 1.355 1_655 S
C747 C749 1.415 . S
C748 C747 1.355 1_455 S
C748 C750 1.419 . S
C749 C744 1.425 1_655 S
C749 C746 1.409 . S
C749 C747 1.415 . S
C750 H740 0.930 . S
C750 C748 1.419 . S
C750 C751 1.362 . S
C751 H741 0.930 . S
C751 C744 1.409 . S
C751 C750 1.362 . S
H752 C758 0.930 . S
H753 C761 0.930 1_545 S
H754 C762 0.930 . S
H755 C763 0.930 . S
H756 C766 0.930 1_565 S
H757 C767 0.930 . S
C758 H752 0.930 . S
C758 C759 1.355 . S
C758 C760 1.415 1_655 S
C759 C758 1.355 . S
C759 C761 1.419 . S
C760 C758 1.415 1_455 S
C760 C765 1.425 1_465 S
C760 C767 1.409 . S
C761 H753 0.930 1_565 S
C761 C759 1.419 . S
C761 C762 1.362 1_565 S
C762 H754 0.930 . S
C762 C761 1.362 1_545 S
C762 C765 1.409 . S
C763 H755 0.930 . S
C763 C764 1.355 . S
C763 C765 1.415 1_455 S
C764 C763 1.355 . S
C764 C766 1.419 . S
C765 C760 1.425 1_645 S
C765 C762 1.409 . S
C765 C763 1.415 1_655 S
C766 H756 0.930 1_545 S
C766 C764 1.419 . S
C766 C767 1.362 1_545 S
C767 H757 0.930 . S
C767 C760 1.409 . S
C767 C766 1.362 1_565 S
H768 C774 0.930 . S
H769 C777 0.930 . S
H770 C778 0.930 . S
H771 C779 0.930 . S
H772 C782 0.930 . S
H773 C783 0.930 . S
C774 H768 0.930 . S
C774 C775 1.355 . S
C774 C776 1.415 1_565 S
C775 C774 1.355 . S
C775 C777 1.419 . S
C776 C774 1.415 1_545 S
C776 C781 1.425 1_545 S
C776 C783 1.409 . S
C777 H769 0.930 . S
C777 C775 1.419 . S
C777 C778 1.362 . S
C778 H770 0.930 . S
C778 C777 1.362 . S
C778 C781 1.409 . S
C779 H771 0.930 . S
C779 C780 1.355 . S
C779 C781 1.415 1_545 S
C780 C779 1.355 . S
C780 C782 1.419 . S
C781 C776 1.425 1_565 S
C781 C778 1.409 . S
C781 C779 1.415 1_565 S
C782 H772 0.930 . S
C782 C780 1.419 . S
C782 C783 1.362 . S
C783 H773 0.930 . S
C783 C776 1.409 . S
C783 C782 1.362 . S
H784 C790 0.930 . S
H785 C793 0.930 . S
H786 C794 0.930 . S
H787 C795 0.930 . S
H788 C798 0.930 . S
H789 C799 0.930 . S
C790 H784 0.930 . S
C790 C791 1.355 1_554 S
C790 C792 1.415 . S
C791 C790 1.355 1_556 S
C791 C793 1.419 . S
C792 C790 1.415 . S
C792 C797 1.425 . S
C792 C799 1.409 . S
C793 H785 0.930 . S
C793 C791 1.419 . S
C793 C794 1.362 . S
C794 H786 0.930 . S
C794 C793 1.362 . S
C794 C797 1.409 1_556 S
C795 H787 0.930 . S
C795 C796 1.355 . S
C795 C797 1.415 . S
C796 C795 1.355 . S
C796 C798 1.419 . S
C797 C792 1.425 . S
C797 C794 1.409 1_554 S
C797 C795 1.415 . S
C798 H788 0.930 . S
C798 C796 1.419 . S
C798 C799 1.362 . S
C799 H789 0.930 . S
C799 C792 1.409 . S
C799 C798 1.362 . S
H800 C806 0.930 . S
H801 C809 0.930 . S
H802 C810 0.930 . S
H803 C811 0.930 . S
H804 C814 0.930 . S
H805 C815 0.930 . S
C806 H800 0.930 . S
C806 C807 1.355 . S
C806 C808 1.415 1_556 S
C807 C806 1.355 . S
C807 C809 1.419 1_556 S
C808 C806 1.415 1_554 S
C808 C813 1.425 . S
C808 C815 1.409 1_554 S
C809 H801 0.930 . S
C809 C807 1.419 1_554 S
C809 C810 1.362 . S
C810 H802 0.930 . S
C810 C809 1.362 . S
C810 C813 1.409 . S
C811 H803 0.930 . S
C811 C812 1.355 . S
C811 C813 1.415 . S
C812 C811 1.355 . S
C812 C814 1.419 . S
C813 C808 1.425 . S
C813 C810 1.409 . S
C813 C811 1.415 . S
C814 H804 0.930 . S
C814 C812 1.419 . S
C814 C815 1.362 1_554 S
C815 H805 0.930 . S
C815 C808 1.409 1_556 S
C815 C814 1.362 1_556 S
H816 C822 0.930 . S
H817 C825 0.930 . S
H818 C826 0.930 . S
H819 C827 0.930 . S
H820 C830 0.930 . S
H821 C831 0.930 1_556 S
C822 H816 0.930 . S
C822 C823 1.355 . S
C822 C824 1.415 1_556 S
C823 C822 1.355 . S
C823 C825 1.419 1_556 S
C824 C822 1.415 1_554 S
C824 C829 1.425 . S
C824 C831 1.409 . S
C825 H817 0.930 . S
C825 C823 1.419 1_554 S
C825 C826 1.362 . S
C826 H818 0.930 . S
C826 C825 1.362 . S
C826 C829 1.409 . S
C827 H819 0.930 . S
C827 C828 1.355 . S
C827 C829 1.415 . S
C828 C827 1.355 . S
C828 C830 1.419 . S
C829 C824 1.425 . S
C829 C826 1.409 . S
C829 C827 1.415 . S
C830 H820 0.930 . S
C830 C828 1.419 . S
C830 C831 1.362 . S
C831 H821 0.930 1_554 S
C831 C824 1.409 . S
C831 C830 1.362 . S
H832 C838 0.930 . S
H833 C841 0.930 . S
H834 C842 0.930 . S
H835 C843 0.930 . S
H836 C846 0.930 . S
H837 C847 0.930 . S
C838 H832 0.930 . S
C838 C839 1.355 . S
C838 C840 1.415 1_556 S
C839 C838 1.355 . S
C839 C841 1.419 . S
C840 C838 1.415 1_554 S
C840 C845 1.425 . S
C840 C847 1.409 . S
C841 H833 0.930 . S
C841 C839 1.419 . S
C841 C842 1.362 1_556 S
C842 H834 0.930 . S
C842 C841 1.362 1_554 S
C842 C845 1.409 . S
C843 H835 0.930 . S
C843 C844 1.355 . S
C843 C845 1.415 . S
C844 C843 1.355 . S
C844 C846 1.419 . S
C845 C840 1.425 . S
C845 C842 1.409 . S
C845 C843 1.415 . S
C846 H836 0.930 . S
C846 C844 1.419 . S
C846 C847 1.362 . S
C847 H837 0.930 . S
C847 C840 1.409 . S
C847 C846 1.362 . S
H848 C854 0.930 . S
H849 C857 0.930 . S
H850 C858 0.930 . S
H851 C859 0.930 . S
H852 C862 0.930 . S
H853 C863 0.930 . S
C854 H848 0.930 . S
C854 C855 1.355 . S
C854 C856 1.415 . S
C855 C854 1.355 . S
C855 C857 1.419 . S
C856 C854 1.415 . S
C856 C861 1.425 . S
C856 C863 1.409 . S
C857 H849 0.930 . S
C857 C855 1.419 . S
C857 C858 1.362 . S
C858 H850 0.930 . S
C858 C857 1.362 . S
C858 C861 1.409 . S
C859 H851 0.930 . S
C859 C860 1.355 . S
C859 C861 1.415 . S
C860 C859 1.355 . S
C860 C862 1.419 . S
C861 C856 1.425 . S
C861 C858 1.409 . S
C861 C859 1.415 . S
C862 H852 0.930 . S
C862 C860 1.419 . S
C862 C863 1.362 . S
C863 H853 0.930 . S
C863 C856 1.409 . S
C863 C862 1.362 . S
H864 C870 0.930 . S
H865 C873 0.930 . S
H866 C874 0.930 . S
H867 C875 0.930 . S
H868 C878 0.930 . S
H869 C879 0.930 . S
C870 H864 0.930 . S
C870 C871 1.355 . S
C870 C872 1.415 . S
C871 C870 1.355 . S
C871 C873 1.419 . S
C872 C870 1.415 . S
C872 C877 1.425 . S
C872 C879 1.409 . S
C873 H865 0.930 . S
C873 C871 1.419 . S
C873 C874 1.362 . S
C874 H866 0.930 . S
C874 C873 1.362 . S
C874 C877 1.409 . S
C875 H867 0.930 . S
C875 C876 1.355 . S
C875 C877 1.415 . S
C876 C875 1.355 . S
C876 C878 1.419 . S
C877 C872 1.425 . S
C877 C874 1.409 . S
C877 C875 1.415 . S
C878 H868 0.930 . S
C878 C876 1.419 . S
C878 C879 1.362 . S
C879 H869 0.930 . S
C879 C872 1.409 . S
C879 C878 1.362 . S
H880 C886 0.930 . S
H881 C889 0.930 . S
H882 C890 0.930 . S
H883 C891 0.930 . S
H884 C894 0.930 . S
H885 C895 0.930 . S
C886 H880 0.930 . S
C886 C887 1.355 . S
C886 C888 1.415 . S
C887 C886 1.355 . S
C887 C889 1.419 . S
C888 C886 1.415 . S
C888 C893 1.425 . S
C888 C895 1.409 . S
C889 H881 0.930 . S
C889 C887 1.419 . S
C889 C890 1.362 . S
C890 H882 0.930 . S
C890 C889 1.362 . S
C890 C893 1.409 . S
C891 H883 0.930 . S
C891 C892 1.355 . S
C891 C893 1.415 . S
C892 C891 1.355 . S
C892 C894 1.419 . S
C893 C888 1.425 . S
C893 C890 1.409 . S
C893 C891 1.415 . S
C894 H884 0.930 . S
C894 C892 1.419 . S
C894 C895 1.362 . S
C895 H885 0.930 . S
C895 C888 1.409 . S
C895 C894 1.362 . S
H896 C902 0.930 . S
H897 C905 0.930 . S
H898 C906 0.930 . S
H899 C907 0.930 . S
H900 C910 0.930 . S
H901 C911 0.930 . S
C902 H896 0.930 . S
C902 C903 1.355 . S
C902 C904 1.415 . S
C903 C902 1.355 . S
C903 C905 1.419 . S
C904 C902 1.415 . S
C904 C909 1.425 . S
C904 C911 1.409 . S
C905 H897 0.930 . S
C905 C903 1.419 . S
C905 C906 1.362 . S
C906 H898 0.930 . S
C906 C905 1.362 . S
C906 C909 1.409 . S
C907 H899 0.930 . S
C907 C908 1.355 . S
C907 C909 1.415 . S
C908 C907 1.355 . S
C908 C910 1.419 . S
C909 C904 1.425 . S
C909 C906 1.409 . S
C909 C907 1.415 . S
C910 H900 0.930 . S
C910 C908 1.419 . S
C910 C911 1.362 . S
C911 H901 0.930 . S
C911 C904 1.409 . S
C911 C910 1.362 . S
H912 C918 0.930 . S
H913 C921 0.930 . S
H914 C922 0.930 . S
H915 C923 0.930 . S
H916 C926 0.930 . S
H917 C927 0.930 1_554 S
C918 H912 0.930 . S
C918 C919 1.355 . S
C918 C920 1.415 1_554 S
C919 C918 1.355 . S
C919 C921 1.419 1_554 S
C920 C918 1.415 1_556 S
C920 C925 1.425 . S
C920 C927 1.409 . S
C921 H913 0.930 . S
C921 C919 1.419 1_556 S
C921 C922 1.362 . S
C922 H914 0.930 . S
C922 C921 1.362 . S
C922 C925 1.409 . S
C923 H915 0.930 . S
C923 C924 1.355 . S
C923 C925 1.415 . S
C924 C923 1.355 . S
C924 C926 1.419 . S
C925 C920 1.425 . S
C925 C922 1.409 . S
C925 C923 1.415 . S
C926 H916 0.930 . S
C926 C924 1.419 . S
C926 C927 1.362 . S
C927 H917 0.930 1_556 S
C927 C920 1.409 . S
C927 C926 1.362 . S
H928 C934 0.930 . S
H929 C937 0.930 . S
H930 C938 0.930 . S
H931 C939 0.930 . S
H932 C942 0.930 . S
H933 C943 0.930 . S
C934 H928 0.930 . S
C934 C935 1.355 1_556 S
C934 C936 1.415 . S
C935 C934 1.355 1_554 S
C935 C937 1.419 . S
C936 C934 1.415 . S
C936 C941 1.425 . S
C936 C943 1.409 . S
C937 H929 0.930 . S
C937 C935 1.419 . S
C937 C938 1.362 . S
C938 H930 0.930 . S
C938 C937 1.362 . S
C938 C941 1.409 1_554 S
C939 H931 0.930 . S
C939 C940 1.355 . S
C939 C941 1.415 . S
C940 C939 1.355 . S
C940 C942 1.419 . S
C941 C936 1.425 . S
C941 C938 1.409 1_556 S
C941 C939 1.415 . S
C942 H932 0.930 . S
C942 C940 1.419 . S
C942 C943 1.362 . S
C943 H933 0.930 . S
C943 C936 1.409 . S
C943 C942 1.362 . S
H944 C950 0.930 . S
H945 C953 0.930 1_655 S
H946 C954 0.930 . S
H947 C955 0.930 . S
H948 C958 0.930 . S
H949 C959 0.930 . S
C950 H944 0.930 . S
C950 C951 1.355 . S
C950 C952 1.415 1_554 S
C951 C950 1.355 . S
C951 C953 1.419 . S
C952 C950 1.415 1_556 S
C952 C957 1.425 . S
C952 C959 1.409 . S
C953 H945 0.930 1_455 S
C953 C951 1.419 . S
C953 C954 1.362 1_554 S
C954 H946 0.930 . S
C954 C953 1.362 1_556 S
C954 C957 1.409 . S
C955 H947 0.930 . S
C955 C956 1.355 . S
C955 C957 1.415 . S
C956 C955 1.355 . S
C956 C958 1.419 . S
C957 C952 1.425 . S
C957 C954 1.409 . S
C957 C955 1.415 . S
C958 H948 0.930 . S
C958 C956 1.419 . S
C958 C959 1.362 . S
C959 H949 0.930 . S
C959 C952 1.409 . S
C959 C958 1.362 . S
H960 C966 0.930 . S
H961 C969 0.930 . S
H962 C970 0.930 . S
H963 C971 0.930 . S
H964 C974 0.930 . S
H965 C975 0.930 1_554 S
C966 H960 0.930 . S
C966 C967 1.355 . S
C966 C968 1.415 1_554 S
C967 C966 1.355 . S
C967 C969 1.419 1_554 S
C968 C966 1.415 1_556 S
C968 C973 1.425 . S
C968 C975 1.409 . S
C969 H961 0.930 . S
C969 C967 1.419 1_556 S
C969 C970 1.362 . S
C970 H962 0.930 . S
C970 C969 1.362 . S
C970 C973 1.409 . S
C971 H963 0.930 . S
C971 C972 1.355 . S
C971 C973 1.415 . S
C972 C971 1.355 . S
C972 C974 1.419 . S
C973 C968 1.425 . S
C973 C970 1.409 . S
C973 C971 1.415 . S
C974 H964 0.930 . S
C974 C972 1.419 . S
C974 C975 1.362 . S
C975 H965 0.930 1_556 S
C975 C968 1.409 . S
C975 C974 1.362 . S
H976 C982 0.930 . S
H977 C985 0.930 . S
H978 C986 0.930 . S
H979 C987 0.930 . S
H980 C990 0.930 . S
H981 C991 0.930 . S
C982 H976 0.930 . S
C982 C983 1.355 . S
C982 C984 1.415 . S
C983 C982 1.355 . S
C983 C985 1.419 . S
C984 C982 1.415 . S
C984 C989 1.425 . S
C984 C991 1.409 . S
C985 H977 0.930 . S
C985 C983 1.419 . S
C985 C986 1.362 . S
C986 H978 0.930 . S
C986 C985 1.362 . S
C986 C989 1.409 . S
C987 H979 0.930 . S
C987 C988 1.355 . S
C987 C989 1.415 . S
C988 C987 1.355 . S
C988 C990 1.419 . S
C989 C984 1.425 . S
C989 C986 1.409 . S
C989 C987 1.415 . S
C990 H980 0.930 . S
C990 C988 1.419 . S
C990 C991 1.362 . S
C991 H981 0.930 . S
C991 C984 1.409 . S
C991 C990 1.362 . S
H992 C998 0.930 . S
H993 C1001 0.930 . S
H994 C1002 0.930 . S
H995 C1003 0.930 . S
H996 C1006 0.930 . S
H997 C1007 0.930 . S
C998 H992 0.930 . S
C998 C999 1.355 . S
C998 C1000 1.415 . S
C999 C998 1.355 . S
C999 C1001 1.419 . S
C1000 C998 1.415 . S
C1000 C1005 1.425 . S
C1000 C1007 1.409 . S
C1001 H993 0.930 . S
C1001 C999 1.419 . S
C1001 C1002 1.362 . S
C1002 H994 0.930 . S
C1002 C1001 1.362 . S
C1002 C1005 1.409 . S
C1003 H995 0.930 . S
C1003 C1004 1.355 . S
C1003 C1005 1.415 . S
C1004 C1003 1.355 . S
C1004 C1006 1.419 . S
C1005 C1000 1.425 . S
C1005 C1002 1.409 . S
C1005 C1003 1.415 . S
C1006 H996 0.930 . S
C1006 C1004 1.419 . S
C1006 C1007 1.362 . S
C1007 H997 0.930 . S
C1007 C1000 1.409 . S
C1007 C1006 1.362 . S
H1008 C1014 0.930 . S
H1009 C1017 0.930 . S
H1010 C1018 0.930 . S
H1011 C1019 0.930 . S
H1012 C1022 0.930 . S
H1013 C1023 0.930 . S
C1014 H1008 0.930 . S
C1014 C1015 1.355 . S
C1014 C1016 1.415 . S
C1015 C1014 1.355 . S
C1015 C1017 1.419 . S
C1016 C1014 1.415 . S
C1016 C1021 1.425 . S
C1016 C1023 1.409 . S
C1017 H1009 0.930 . S
C1017 C1015 1.419 . S
C1017 C1018 1.362 . S
C1018 H1010 0.930 . S
C1018 C1017 1.362 . S
C1018 C1021 1.409 . S
C1019 H1011 0.930 . S
C1019 C1020 1.355 . S
C1019 C1021 1.415 . S
C1020 C1019 1.355 . S
C1020 C1022 1.419 . S
C1021 C1016 1.425 . S
C1021 C1018 1.409 . S
C1021 C1019 1.415 . S
C1022 H1012 0.930 . S
C1022 C1020 1.419 . S
C1022 C1023 1.362 . S
C1023 H1013 0.930 . S
C1023 C1016 1.409 . S
C1023 C1022 1.362 . S
H1024 C1030 0.930 . S
H1025 C1033 0.930 . S
H1026 C1034 0.930 . S
H1027 C1035 0.930 . S
H1028 C1038 0.930 . S
H1029 C1039 0.930 . S
C1030 H1024 0.930 . S
C1030 C1031 1.355 . S
C1030 C1032 1.415 . S
C1031 C1030 1.355 . S
C1031 C1033 1.419 . S
C1032 C1030 1.415 . S
C1032 C1037 1.425 . S
C1032 C1039 1.409 . S
C1033 H1025 0.930 . S
C1033 C1031 1.419 . S
C1033 C1034 1.362 . S
C1034 H1026 0.930 . S
C1034 C1033 1.362 . S
C1034 C1037 1.409 . S
C1035 H1027 0.930 . S
C1035 C1036 1.355 . S
C1035 C1037 1.415 . S
C1036 C1035 1.355 . S
C1036 C1038 1.419 . S
C1037 C1032 1.425 . S
C1037 C1034 1.409 . S
C1037 C1035 1.415 . S
C1038 H1028 0.930 . S
C1038 C1036 1.419 . S
C1038 C1039 1.362 . S
C1039 H1029 0.930 . S
C1039 C1032 1.409 . S
C1039 C1038 1.362 . S
H1040 C1046 0.930 . S
H1041 C1049 0.930 . S
H1042 C1050 0.930 . S
H1043 C1051 0.930 . S
H1044 C1054 0.930 . S
H1045 C1055 0.930 . S
C1046 H1040 0.930 . S
C1046 C1047 1.355 . S
C1046 C1048 1.415 . S
C1047 C1046 1.355 . S
C1047 C1049 1.419 . S
C1048 C1046 1.415 . S
C1048 C1053 1.425 . S
C1048 C1055 1.409 . S
C1049 H1041 0.930 . S
C1049 C1047 1.419 . S
C1049 C1050 1.362 . S
C1050 H1042 0.930 . S
C1050 C1049 1.362 . S
C1050 C1053 1.409 . S
C1051 H1043 0.930 . S
C1051 C1052 1.355 . S
C1051 C1053 1.415 . S
C1052 C1051 1.355 . S
C1052 C1054 1.419 . S
C1053 C1048 1.425 . S
C1053 C1050 1.409 . S
C1053 C1051 1.415 . S
C1054 H1044 0.930 . S
C1054 C1052 1.419 . S
C1054 C1055 1.362 . S
C1055 H1045 0.930 . S
C1055 C1048 1.409 . S
C1055 C1054 1.362 . S
H1056 C1062 0.930 . S
H1057 C1065 0.930 . S
H1058 C1066 0.930 . S
H1059 C1067 0.930 . S
H1060 C1070 0.930 . S
H1061 C1071 0.930 . S
C1062 H1056 0.930 . S
C1062 C1063 1.355 . S
C1062 C1064 1.415 . S
C1063 C1062 1.355 . S
C1063 C1065 1.419 . S
C1064 C1062 1.415 . S
C1064 C1069 1.425 . S
C1064 C1071 1.409 . S
C1065 H1057 0.930 . S
C1065 C1063 1.419 . S
C1065 C1066 1.362 . S
C1066 H1058 0.930 . S
C1066 C1065 1.362 . S
C1066 C1069 1.409 . S
C1067 H1059 0.930 . S
C1067 C1068 1.355 . S
C1067 C1069 1.415 . S
C1068 C1067 1.355 . S
C1068 C1070 1.419 . S
C1069 C1064 1.425 . S
C1069 C1066 1.409 . S
C1069 C1067 1.415 . S
C1070 H1060 0.930 . S
C1070 C1068 1.419 . S
C1070 C1071 1.362 . S
C1071 H1061 0.930 . S
C1071 C1064 1.409 . S
C1071 C1070 1.362 . S
H1072 C1078 0.930 . S
H1073 C1081 0.930 . S
H1074 C1082 0.930 . S
H1075 C1083 0.930 . S
H1076 C1086 0.930 . S
H1077 C1087 0.930 . S
C1078 H1072 0.930 . S
C1078 C1079 1.355 . S
C1078 C1080 1.415 . S
C1079 C1078 1.355 . S
C1079 C1081 1.419 . S
C1080 C1078 1.415 . S
C1080 C1085 1.425 . S
C1080 C1087 1.409 . S
C1081 H1073 0.930 . S
C1081 C1079 1.419 . S
C1081 C1082 1.362 . S
C1082 H1074 0.930 . S
C1082 C1081 1.362 . S
C1082 C1085 1.409 . S
C1083 H1075 0.930 . S
C1083 C1084 1.355 . S
C1083 C1085 1.415 . S
C1084 C1083 1.355 . S
C1084 C1086 1.419 . S
C1085 C1080 1.425 . S
C1085 C1082 1.409 . S
C1085 C1083 1.415 . S
C1086 H1076 0.930 . S
C1086 C1084 1.419 . S
C1086 C1087 1.362 . S
C1087 H1077 0.930 . S
C1087 C1080 1.409 . S
C1087 C1086 1.362 . S
H1088 C1094 0.930 . S
H1089 C1097 0.930 . S
H1090 C1098 0.930 . S
H1091 C1099 0.930 . S
H1092 C1102 0.930 . S
H1093 C1103 0.930 . S
C1094 H1088 0.930 . S
C1094 C1095 1.355 . S
C1094 C1096 1.415 . S
C1095 C1094 1.355 . S
C1095 C1097 1.419 . S
C1096 C1094 1.415 . S
C1096 C1101 1.425 . S
C1096 C1103 1.409 . S
C1097 H1089 0.930 . S
C1097 C1095 1.419 . S
C1097 C1098 1.362 . S
C1098 H1090 0.930 . S
C1098 C1097 1.362 . S
C1098 C1101 1.409 . S
C1099 H1091 0.930 . S
C1099 C1100 1.355 . S
C1099 C1101 1.415 . S
C1100 C1099 1.355 . S
C1100 C1102 1.419 . S
C1101 C1096 1.425 . S
C1101 C1098 1.409 . S
C1101 C1099 1.415 . S
C1102 H1092 0.930 . S
C1102 C1100 1.419 . S
C1102 C1103 1.362 . S
C1103 H1093 0.930 . S
C1103 C1096 1.409 . S
C1103 C1102 1.362 . S
H1104 C1110 0.930 . S
H1105 C1113 0.930 . S
H1106 C1114 0.930 . S
H1107 C1115 0.930 . S
H1108 C1118 0.930 . S
H1109 C1119 0.930 . S
C1110 H1104 0.930 . S
C1110 C1111 1.355 . S
C1110 C1112 1.415 . S
C1111 C1110 1.355 . S
C1111 C1113 1.419 . S
C1112 C1110 1.415 . S
C1112 C1117 1.425 . S
C1112 C1119 1.409 . S
C1113 H1105 0.930 . S
C1113 C1111 1.419 . S
C1113 C1114 1.362 . S
C1114 H1106 0.930 . S
C1114 C1113 1.362 . S
C1114 C1117 1.409 . S
C1115 H1107 0.930 . S
C1115 C1116 1.355 . S
C1115 C1117 1.415 . S
C1116 C1115 1.355 . S
C1116 C1118 1.419 . S
C1117 C1112 1.425 . S
C1117 C1114 1.409 . S
C1117 C1115 1.415 . S
C1118 H1108 0.930 . S
C1118 C1116 1.419 . S
C1118 C1119 1.362 . S
C1119 H1109 0.930 . S
C1119 C1112 1.409 . S
C1119 C1118 1.362 . S
H1120 C1126 0.930 . S
H1121 C1129 0.930 . S
H1122 C1130 0.930 . S
H1123 C1131 0.930 . S
H1124 C1134 0.930 . S
H1125 C1135 0.930 . S
C1126 H1120 0.930 . S
C1126 C1127 1.355 . S
C1126 C1128 1.415 . S
C1127 C1126 1.355 . S
C1127 C1129 1.419 . S
C1128 C1126 1.415 . S
C1128 C1133 1.425 . S
C1128 C1135 1.409 . S
C1129 H1121 0.930 . S
C1129 C1127 1.419 . S
C1129 C1130 1.362 . S
C1130 H1122 0.930 . S
C1130 C1129 1.362 . S
C1130 C1133 1.409 . S
C1131 H1123 0.930 . S
C1131 C1132 1.355 . S
C1131 C1133 1.415 . S
C1132 C1131 1.355 . S
C1132 C1134 1.419 . S
C1133 C1128 1.425 . S
C1133 C1130 1.409 . S
C1133 C1131 1.415 . S
C1134 H1124 0.930 . S
C1134 C1132 1.419 . S
C1134 C1135 1.362 . S
C1135 H1125 0.930 . S
C1135 C1128 1.409 . S
C1135 C1134 1.362 . S
H1136 C1142 0.930 . S
H1137 C1145 0.930 . S
H1138 C1146 0.930 . S
H1139 C1147 0.930 . S
H1140 C1150 0.930 . S
H1141 C1151 0.930 . S
C1142 H1136 0.930 . S
C1142 C1143 1.355 . S
C1142 C1144 1.415 . S
C1143 C1142 1.355 . S
C1143 C1145 1.419 . S
C1144 C1142 1.415 . S
C1144 C1149 1.425 . S
C1144 C1151 1.409 . S
C1145 H1137 0.930 . S
C1145 C1143 1.419 . S
C1145 C1146 1.362 . S
C1146 H1138 0.930 . S
C1146 C1145 1.362 . S
C1146 C1149 1.409 . S
C1147 H1139 0.930 . S
C1147 C1148 1.355 . S
C1147 C1149 1.415 . S
C1148 C1147 1.355 . S
C1148 C1150 1.419 . S
C1149 C1144 1.425 . S
C1149 C1146 1.409 . S
C1149 C1147 1.415 . S
C1150 H1140 0.930 . S
C1150 C1148 1.419 . S
C1150 C1151 1.362 . S
C1151 H1141 0.930 . S
C1151 C1144 1.409 . S
C1151 C1150 1.362 . S
H1152 C1158 0.930 . S
H1153 C1161 0.930 . S
H1154 C1162 0.930 . S
H1155 C1163 0.930 . S
H1156 C1166 0.930 . S
H1157 C1167 0.930 . S
C1158 H1152 0.930 . S
C1158 C1159 1.355 . S
C1158 C1160 1.415 . S
C1159 C1158 1.355 . S
C1159 C1161 1.419 . S
C1160 C1158 1.415 . S
C1160 C1165 1.425 . S
C1160 C1167 1.409 . S
C1161 H1153 0.930 . S
C1161 C1159 1.419 . S
C1161 C1162 1.362 . S
C1162 H1154 0.930 . S
C1162 C1161 1.362 . S
C1162 C1165 1.409 . S
C1163 H1155 0.930 . S
C1163 C1164 1.355 . S
C1163 C1165 1.415 . S
C1164 C1163 1.355 . S
C1164 C1166 1.419 . S
C1165 C1160 1.425 . S
C1165 C1162 1.409 . S
C1165 C1163 1.415 . S
C1166 H1156 0.930 . S
C1166 C1164 1.419 . S
C1166 C1167 1.362 . S
C1167 H1157 0.930 . S
C1167 C1160 1.409 . S
C1167 C1166 1.362 . S
C535 C18 1.758 . S
C540 C216 1.729 . S
C551 C249 1.701 . S
C556 C51 1.725 . S
C567 C150 1.783 . S
C572 C84 1.788 . S
C583 C183 1.773 . S
C588 C117 1.747 . S
C599 C282 1.744 . S
C604 C480 1.716 . S
C615 C315 1.692 . S
C620 C513 1.694 . S
C631 C414 1.759 . S
C636 C348 1.781 . S
C647 C381 1.762 . S
C652 C447 1.782 . S
C663 N266 2.302 1_545 S
C668 N2 2.302 1_565 S
C679 N299 2.296 . S
C684 N35 2.296 . S
C695 N332 2.305 . S
C700 N68 2.305 . S
C711 N365 2.288 . S
C716 N101 2.288 . S
C727 N398 2.323 . S
C732 N134 2.323 . S
C743 N431 2.286 . S
C748 N167 2.286 . S
C759 N200 2.313 1_565 S
C764 N464 2.313 1_545 S
C775 N233 2.325 . S
C780 N497 2.325 . S
C791 C318 0.734 . S
C796 C7 0.872 . S
C807 C351 0.849 . S
C812 C40 0.792 . S
C823 C384 0.822 . S
C828 C73 0.804 . S
C839 C285 0.746 . S
C844 C106 0.854 . S
C855 C139 0.880 . S
C860 C516 0.739 . S
C871 C172 0.881 . S
C876 C417 0.757 . S
C887 C205 0.807 . S
C892 C450 0.894 . S
C903 C238 0.784 . S
C908 C483 0.874 . S
C919 C54 0.866 . S
C924 C271 0.786 . S
C935 C87 0.835 . S
C940 C304 0.855 . S
C951 C120 0.900 . S
C956 C337 0.792 . S
C967 C21 0.866 . S
C972 C370 0.786 . S
C983 C252 0.737 . S
C988 C403 0.865 . S
C999 C153 0.809 . S
C1004 C436 0.867 . S
C1015 C186 0.792 . S
C1020 C469 0.821 . S
C1031 C502 0.867 . S
C1036 C219 0.809 . S
C1047 N79 0.757 . S
C1052 N13 0.564 . S
C1063 N112 0.628 . S
C1068 N46 0.548 . S
C1079 N145 0.671 . S
C1084 N211 0.769 . S
C1095 N244 0.769 . S
C1100 N178 0.671 . S
C1111 N277 0.772 . S
C1116 N343 0.606 . S
C1127 N376 0.749 . S
C1132 N310 0.713 . S
C1143 N409 0.713 . S
C1148 N475 0.529 . S
C1159 N442 0.774 . S
C1164 N508 0.645 . S
