# Generated by pormake.
# Topology vbm, (6)-cn, num edge types: 1
# Building blocks:
#     Node 0, Type 0, BuildingBlock: GEDQOX_clean_sbu_0, # of connection points: 6
#     Node 1, Type 0, BuildingBlock: GEDQOX_clean_sbu_0, # of connection points: 6
#     Node 2, Type 0, BuildingBlock: GEDQOX_clean_sbu_0, # of connection points: 6
#     Node 3, Type 0, BuildingBlock: GEDQOX_clean_sbu_0, # of connection points: 6
#     Node 4, Type 0, BuildingBlock: GEDQOX_clean_sbu_0, # of connection points: 6
#     Node 5, Type 0, BuildingBlock: GEDQOX_clean_sbu_0, # of connection points: 6
#     Node 6, Type 0, BuildingBlock: GEDQOX_clean_sbu_0, # of connection points: 6
#     Node 7, Type 0, BuildingBlock: GEDQOX_clean_sbu_0, # of connection points: 6
#     Node 8, Type 0, BuildingBlock: GEDQOX_clean_sbu_0, # of connection points: 6
#     Node 9, Type 0, BuildingBlock: GEDQOX_clean_sbu_0, # of connection points: 6
#     Node 10, Type 0, BuildingBlock: GEDQOX_clean_sbu_0, # of connection points: 6
#     Node 11, Type 0, BuildingBlock: GEDQOX_clean_sbu_0, # of connection points: 6
#     Node 12, Type 0, BuildingBlock: GEDQOX_clean_sbu_0, # of connection points: 6
#     Node 13, Type 0, BuildingBlock: GEDQOX_clean_sbu_0, # of connection points: 6
#     Node 14, Type 0, BuildingBlock: GEDQOX_clean_sbu_0, # of connection points: 6
#     Node 15, Type 0, BuildingBlock: GEDQOX_clean_sbu_0, # of connection points: 6
#     Edge 16, Type (0, 0), BuildingBlock: XUDNAN_clean_linker_2, # of connection points: 2
#     Edge 17, Type (0, 0), BuildingBlock: XUDNAN_clean_linker_2, # of connection points: 2
#     Edge 18, Type (0, 0), BuildingBlock: XUDNAN_clean_linker_2, # of connection points: 2
#     Edge 19, Type (0, 0), BuildingBlock: XUDNAN_clean_linker_2, # of connection points: 2
#     Edge 20, Type (0, 0), BuildingBlock: XUDNAN_clean_linker_2, # of connection points: 2
#     Edge 21, Type (0, 0), BuildingBlock: XUDNAN_clean_linker_2, # of connection points: 2
#     Edge 22, Type (0, 0), BuildingBlock: XUDNAN_clean_linker_2, # of connection points: 2
#     Edge 23, Type (0, 0), BuildingBlock: XUDNAN_clean_linker_2, # of connection points: 2
#     Edge 24, Type (0, 0), BuildingBlock: XUDNAN_clean_linker_2, # of connection points: 2
#     Edge 25, Type (0, 0), BuildingBlock: XUDNAN_clean_linker_2, # of connection points: 2
#     Edge 26, Type (0, 0), BuildingBlock: XUDNAN_clean_linker_2, # of connection points: 2
#     Edge 27, Type (0, 0), BuildingBlock: XUDNAN_clean_linker_2, # of connection points: 2
#     Edge 28, Type (0, 0), BuildingBlock: XUDNAN_clean_linker_2, # of connection points: 2
#     Edge 29, Type (0, 0), BuildingBlock: XUDNAN_clean_linker_2, # of connection points: 2
#     Edge 30, Type (0, 0), BuildingBlock: XUDNAN_clean_linker_2, # of connection points: 2
#     Edge 31, Type (0, 0), BuildingBlock: XUDNAN_clean_linker_2, # of connection points: 2
#     Edge 32, Type (0, 0), BuildingBlock: XUDNAN_clean_linker_2, # of connection points: 2
#     Edge 33, Type (0, 0), BuildingBlock: XUDNAN_clean_linker_2, # of connection points: 2
#     Edge 34, Type (0, 0), BuildingBlock: XUDNAN_clean_linker_2, # of connection points: 2
#     Edge 35, Type (0, 0), BuildingBlock: XUDNAN_clean_linker_2, # of connection points: 2
#     Edge 36, Type (0, 0), BuildingBlock: XUDNAN_clean_linker_2, # of connection points: 2
#     Edge 37, Type (0, 0), BuildingBlock: XUDNAN_clean_linker_2, # of connection points: 2
#     Edge 38, Type (0, 0), BuildingBlock: XUDNAN_clean_linker_2, # of connection points: 2
#     Edge 39, Type (0, 0), BuildingBlock: XUDNAN_clean_linker_2, # of connection points: 2
#     Edge 40, Type (0, 0), BuildingBlock: XUDNAN_clean_linker_2, # of connection points: 2
#     Edge 41, Type (0, 0), BuildingBlock: XUDNAN_clean_linker_2, # of connection points: 2
#     Edge 42, Type (0, 0), BuildingBlock: XUDNAN_clean_linker_2, # of connection points: 2
#     Edge 43, Type (0, 0), BuildingBlock: XUDNAN_clean_linker_2, # of connection points: 2
#     Edge 44, Type (0, 0), BuildingBlock: XUDNAN_clean_linker_2, # of connection points: 2
#     Edge 45, Type (0, 0), BuildingBlock: XUDNAN_clean_linker_2, # of connection points: 2
#     Edge 46, Type (0, 0), BuildingBlock: XUDNAN_clean_linker_2, # of connection points: 2
#     Edge 47, Type (0, 0), BuildingBlock: XUDNAN_clean_linker_2, # of connection points: 2
#     Edge 48, Type (0, 0), BuildingBlock: XUDNAN_clean_linker_2, # of connection points: 2
#     Edge 49, Type (0, 0), BuildingBlock: XUDNAN_clean_linker_2, # of connection points: 2
#     Edge 50, Type (0, 0), BuildingBlock: XUDNAN_clean_linker_2, # of connection points: 2
#     Edge 51, Type (0, 0), BuildingBlock: XUDNAN_clean_linker_2, # of connection points: 2
#     Edge 52, Type (0, 0), BuildingBlock: XUDNAN_clean_linker_2, # of connection points: 2
#     Edge 53, Type (0, 0), BuildingBlock: XUDNAN_clean_linker_2, # of connection points: 2
#     Edge 54, Type (0, 0), BuildingBlock: XUDNAN_clean_linker_2, # of connection points: 2
#     Edge 55, Type (0, 0), BuildingBlock: XUDNAN_clean_linker_2, # of connection points: 2
#     Edge 56, Type (0, 0), BuildingBlock: XUDNAN_clean_linker_2, # of connection points: 2
#     Edge 57, Type (0, 0), BuildingBlock: XUDNAN_clean_linker_2, # of connection points: 2
#     Edge 58, Type (0, 0), BuildingBlock: XUDNAN_clean_linker_2, # of connection points: 2
#     Edge 59, Type (0, 0), BuildingBlock: XUDNAN_clean_linker_2, # of connection points: 2
#     Edge 60, Type (0, 0), BuildingBlock: XUDNAN_clean_linker_2, # of connection points: 2
#     Edge 61, Type (0, 0), BuildingBlock: XUDNAN_clean_linker_2, # of connection points: 2
#     Edge 62, Type (0, 0), BuildingBlock: XUDNAN_clean_linker_2, # of connection points: 2
#     Edge 63, Type (0, 0), BuildingBlock: XUDNAN_clean_linker_2, # of connection points: 2
# Relax obj value: 0.191
# Max RMSD: 0.207
# Mean RMSD: 0.207
data_MOF--net-vbm--node1-GEDQOX_clean_sbu_0--edge1-XUDNAN_clean_linker_2
_symmetry_space_group_name_H-M    P1
_symmetry_Int_Tables_number       1
_symmetry_cell_setting            triclinic
loop_
_symmetry_equiv_pos_as_xyz
'x, y, z'
_cell_length_a     104.62158
_cell_length_b     15.689859
_cell_length_c     59.001868
_cell_angle_alpha  89.907969
_cell_angle_beta   90.202559
_cell_angle_gamma 90.053174
loop_
_atom_site_label
_atom_site_type_symbol
_atom_site_fract_x
_atom_site_fract_y
_atom_site_fract_z
_atom_type_partial_charge
Nd0 Nd 0.12451 0.13505 0.13159 0.0
Nd1 Nd 0.15278 0.12844 0.12629 0.0
C2 C 0.09997 0.12577 0.14323 0.0
C3 C 0.08677 0.09811 0.13782 0.0
C4 C 0.07875 0.07216 0.15556 0.0
C5 C 0.0658 0.0547 0.15161 0.0
C6 C 0.06052 0.06286 0.12975 0.0
C7 C 0.06866 0.08737 0.11187 0.0
C8 C 0.08164 0.10487 0.11585 0.0
C9 C 0.13253 0.14327 0.08661 0.0
C10 C 0.1383 0.94818 0.12806 0.0
C11 C 0.17727 0.1413 0.11447 0.0
C12 C 0.18983 0.18173 0.11941 0.0
C13 C 0.19701 0.21603 0.10152 0.0
C14 C 0.20956 0.24492 0.1051 0.0
C15 C 0.21528 0.23994 0.12671 0.0
C16 C 0.20791 0.20745 0.14475 0.0
C17 C 0.19535 0.17882 0.14116 0.0
C18 C 0.14515 0.10817 0.17088 0.0
C19 C 0.13902 0.31519 0.1331 0.0
O20 O 0.10843 0.06871 0.14927 0.0
O21 O 0.10488 0.18759 0.13124 0.0
O22 O 0.12275 0.18332 0.09462 0.0
O23 O 0.13717 0.0955 0.10168 0.0
O24 O 0.12904 0.99226 0.13771 0.0
O25 O 0.14778 0.98811 0.11772 0.0
O26 O 0.16822 0.18732 0.10524 0.0
O27 O 0.17288 0.08598 0.12906 0.0
O28 O 0.1549 0.07144 0.16175 0.0
O29 O 0.14021 0.1611 0.15713 0.0
O30 O 0.14854 0.27434 0.12324 0.0
O31 O 0.12954 0.27204 0.14226 0.0
H32 H 0.08247 0.06714 0.17268 0.0
H33 H 0.05993 1.03479 0.16575 0.0
H34 H 0.06496 0.09538 0.09484 0.0
H35 H 0.08758 0.12553 0.10187 0.0
H36 H 0.19303 0.21859 0.08456 0.0
H37 H 0.21478 0.27078 0.09086 0.0
H38 H 0.21196 0.20145 0.16159 0.0
H39 H 0.19011 0.15225 0.15532 0.0
Nd40 Nd 0.90107 0.953 0.12808 0.0
Nd41 Nd 0.87292 0.96426 0.12755 0.0
C42 C 0.92612 0.95614 0.13583 0.0
C43 C 0.9394 0.98721 0.13325 0.0
C44 C 0.94781 0.98051 0.15175 0.0
C45 C 0.96098 0.99286 0.14894 0.0
C46 C 0.96607 1.0122 0.12748 0.0
C47 C 0.95749 1.0237 0.10922 0.0
C48 C 0.94432 1.01096 0.11204 0.0
C49 C 0.8906 0.94394 0.08472 0.0
C50 C 0.88743 0.14264 0.1246 0.0
C51 C 0.84791 0.9548 0.11939 0.0
C52 C 0.83543 0.91297 0.12423 0.0
C53 C 0.82903 0.86725 0.10711 0.0
C54 C 0.81648 0.83777 0.11033 0.0
C55 C 0.80995 0.85387 0.13072 0.0
C56 C 0.8165 0.89846 0.14795 0.0
C57 C 0.82904 0.9273 0.14479 0.0
C58 C 0.88317 0.98526 0.17045 0.0
C59 C 0.88617 0.77364 0.1315 0.0
O60 O 0.91796 0.99604 0.14877 0.0
O61 O 0.92076 0.91756 0.11869 0.0
O62 O 0.89992 0.89685 0.09191 0.0
O63 O 0.88723 0.99474 0.10013 0.0
O64 O 0.89774 0.10036 0.13136 0.0
O65 O 0.87723 0.1013 0.11748 0.0
O66 O 0.85644 0.91438 0.10729 0.0
O67 O 0.85305 1.00235 0.13514 0.0
O68 O 0.87362 1.02804 0.16239 0.0
O69 O 0.88681 0.92926 0.15633 0.0
O70 O 0.87588 0.81831 0.12625 0.0
O71 O 0.89708 0.81186 0.13612 0.0
H72 H 0.94427 0.96125 0.16822 0.0
H73 H 0.96723 0.98274 0.16337 0.0
H74 H 0.96099 1.04039 0.09254 0.0
H75 H 0.93805 1.01643 0.09745 0.0
H76 H 0.83362 0.85612 0.09096 0.0
H77 H 0.8119 0.80279 0.09674 0.0
H78 H 0.81182 0.91391 0.16375 0.0
H79 H 0.83355 0.96331 0.15827 0.0
Nd80 Nd 0.12423 0.95461 0.37816 0.0
Nd81 Nd 0.15401 0.95614 0.37826 0.0
C82 C 0.09939 0.97573 0.37412 0.0
C83 C 0.08548 0.98761 0.37181 0.0
C84 C 0.08034 1.01807 0.35142 0.0
C85 C 0.06714 1.028 0.34891 0.0
C86 C 0.05871 1.00544 0.36654 0.0
C87 C 0.06397 0.97604 0.38714 0.0
C88 C 0.07724 0.96796 0.3898 0.0
C89 C 0.13572 0.93162 0.42012 0.0
C90 C 0.13932 0.13892 0.37608 0.0
C91 C 0.17829 0.94772 0.39107 0.0
C92 C 0.19098 0.90786 0.38692 0.0
C93 C 0.19526 0.84216 0.40125 0.0
C94 C 0.20796 0.81468 0.40062 0.0
C95 C 0.2168 0.8525 0.38575 0.0
C96 C 0.21235 0.91408 0.37027 0.0
C97 C 0.19959 0.94184 0.37093 0.0
C98 C 0.14572 0.96189 0.33337 0.0
C99 C 0.13838 0.77218 0.37349 0.0
O100 O 0.10633 0.94275 0.35792 0.0
O101 O 0.10566 0.99782 0.39241 0.0
O102 O 0.126 0.8879 0.41289 0.0
O103 O 0.1392 0.98434 0.40509 0.0
O104 O 0.12898 0.09537 0.37035 0.0
O105 O 0.14985 0.10022 0.38319 0.0
O106 O 0.16924 0.90036 0.3999 0.0
O107 O 0.17396 1.00405 0.37653 0.0
O108 O 0.15761 0.95736 0.33945 0.0
O109 O 0.13886 0.95823 0.35087 0.0
O110 O 0.14897 0.81106 0.38042 0.0
O111 O 0.12792 0.81532 0.36828 0.0
H112 H 0.08655 1.03477 0.33744 0.0
H113 H 0.06358 0.05342 0.33304 0.0
H114 H 0.05787 0.95709 0.40104 0.0
H115 H 0.08103 0.94424 0.4057 0.0
H116 H 0.18894 0.81463 0.4138 0.0
H117 H 0.21101 0.76606 0.41251 0.0
H118 H 0.21891 0.94458 0.35862 0.0
H119 H 0.19665 0.99276 0.35965 0.0
Nd120 Nd 0.89995 0.13624 0.37559 0.0
Nd121 Nd 0.87218 0.12319 0.37541 0.0
C122 C 0.92505 0.13473 0.36899 0.0
C123 C 0.93817 0.10046 0.37169 0.0
C124 C 0.94233 1.03111 0.35862 0.0
C125 C 0.95532 1.01078 0.35746 0.0
C126 C 0.96451 0.05977 0.36914 0.0
C127 C 0.96025 0.12585 0.3833 0.0
C128 C 0.94723 0.14608 0.3845 0.0
C129 C 0.88941 0.14476 0.41885 0.0
C130 C 0.88725 0.94469 0.37724 0.0
C131 C 0.84694 0.1281 0.38073 0.0
C132 C 0.83451 0.17395 0.38023 0.0
C133 C 0.83079 0.22771 0.39804 0.0
C134 C 0.81815 0.25661 0.3996 0.0
C135 C 0.80885 0.23173 0.38354 0.0
C136 C 0.81279 0.18231 0.36497 0.0
C137 C 0.82545 0.15367 0.36338 0.0
C138 C 0.88263 0.09734 0.3331 0.0
C139 C 0.88544 0.31254 0.37024 0.0
O140 O 0.91687 0.09479 0.35598 0.0
O141 O 0.91965 0.17513 0.38575 0.0
O142 O 0.89828 0.19505 0.41143 0.0
O143 O 0.88622 0.09289 0.4035 0.0
O144 O 0.89724 0.9914 0.37151 0.0
O145 O 0.87645 0.98147 0.38343 0.0
O146 O 0.85508 0.14197 0.39723 0.0
O147 O 0.85251 0.11054 0.36154 0.0
O148 O 0.87359 0.05166 0.34175 0.0
O149 O 0.88602 0.15632 0.34658 0.0
O150 O 0.87552 0.27108 0.37875 0.0
O151 O 0.89544 0.26968 0.36328 0.0
H152 H 0.93563 0.99483 0.34844 0.0
H153 H 0.95821 0.95823 0.34677 0.0
H154 H 0.96702 0.16527 0.39244 0.0
H155 H 0.94434 0.20054 0.39451 0.0
H156 H 0.8375 0.24463 0.41132 0.0
H157 H 0.81557 0.29627 0.41386 0.0
H158 H 0.80596 0.16138 0.35233 0.0
H159 H 0.82797 0.11172 0.34953 0.0
Nd160 Nd 0.87298 0.95565 0.87471 0.0
Nd161 Nd 0.90065 0.94314 0.87461 0.0
C162 C 0.84777 0.95108 0.88016 0.0
C163 C 0.8353 0.90558 0.8805 0.0
C164 C 0.83061 0.87115 0.90082 0.0
C165 C 0.8178 0.8462 0.9026 0.0
C166 C 0.80933 0.85567 0.88418 0.0
C167 C 0.81424 0.88427 0.86336 0.0
C168 C 0.82707 0.90932 0.86157 0.0
C169 C 0.88329 0.97886 0.83215 0.0
C170 C 0.88613 0.7663 0.87006 0.0
C171 C 0.92577 0.94521 0.86835 0.0
C172 C 0.93874 0.98184 0.87119 0.0
C173 C 0.94266 0.05258 0.85834 0.0
C174 C 0.95559 0.07507 0.85728 0.0
C175 C 0.96494 1.02687 0.86881 0.0
C176 C 0.96088 0.95957 0.88284 0.0
C177 C 0.94793 0.93724 0.88396 0.0
C178 C 0.89016 0.9367 0.91783 0.0
C179 C 0.88782 0.13448 0.87547 0.0
O180 O 0.85592 0.94058 0.89682 0.0
O181 O 0.85331 0.96502 0.86072 0.0
O182 O 0.87439 1.02563 0.84079 0.0
O183 O 0.88665 0.92054 0.84586 0.0
O184 O 0.87631 0.80815 0.87874 0.0
O185 O 0.89613 0.80874 0.86279 0.0
O186 O 0.91761 0.98272 0.8548 0.0
O187 O 0.92033 0.90645 0.88538 0.0
O188 O 0.89892 0.88536 0.91061 0.0
O189 O 0.88706 0.98815 0.90234 0.0
O190 O 0.89778 0.08807 0.8694 0.0
O191 O 0.87718 0.09734 0.88232 0.0
H192 H 0.83663 0.86761 0.91576 0.0
H193 H 0.81439 0.82283 0.91878 0.0
H194 H 0.80798 0.89262 0.84885 0.0
H195 H 0.83033 0.93629 0.8457 0.0
H196 H 0.93585 0.08824 0.84824 0.0
H197 H 0.95831 0.12853 0.84671 0.0
H198 H 0.96777 0.92069 0.89187 0.0
H199 H 0.94522 0.88187 0.89383 0.0
Nd200 Nd 0.15463 0.13245 0.87794 0.0
Nd201 Nd 0.12291 0.12989 0.87501 0.0
C202 C 0.17866 0.13975 0.89219 0.0
C203 C 0.19149 0.17222 0.88574 0.0
C204 C 0.19832 0.22449 0.90085 0.0
C205 C 0.21086 0.25028 0.896 0.0
C206 C 0.21695 0.22391 0.87594 0.0
C207 C 0.20998 0.17252 0.86067 0.0
C208 C 0.19742 0.14731 0.86546 0.0
C209 C 0.14554 0.12781 0.83346 0.0
C210 C 0.13904 0.31489 0.87299 0.0
C211 C 0.09919 0.13012 0.85945 0.0
C212 C 0.08579 0.10211 0.86284 0.0
C213 C 0.08011 0.04937 0.84648 0.0
C214 C 0.06694 1.03466 0.84661 0.0
C215 C 0.0591 0.07279 0.86302 0.0
C216 C 0.06487 0.12088 0.88036 0.0
C217 C 0.0781 0.13578 0.88022 0.0
C218 C 0.13115 0.12496 0.91974 0.0
C219 C 0.13893 0.9477 0.87756 0.0
O220 O 0.16997 0.19563 0.89812 0.0
O221 O 0.17394 0.07603 0.88046 0.0
O222 O 0.15765 0.12928 0.83852 0.0
O223 O 0.13945 0.13335 0.8517 0.0
O224 O 0.15001 0.27558 0.87714 0.0
O225 O 0.12803 0.27372 0.86999 0.0
O226 O 0.10769 0.07312 0.85341 0.0
O227 O 0.10381 0.18944 0.8728 0.0
O228 O 0.11921 0.12345 0.91353 0.0
O229 O 0.13804 0.12709 0.90218 0.0
O230 O 0.12789 0.98603 0.87294 0.0
O231 O 0.14963 0.98982 0.88244 0.0
H232 H 0.194 0.24448 0.91663 0.0
H233 H 0.21576 0.29097 0.90802 0.0
H234 H 0.21431 0.14958 0.84521 0.0
H235 H 0.19246 0.10683 0.85345 0.0
H236 H 0.08577 1.02277 0.83287 0.0
H237 H 0.06281 0.99613 0.83323 0.0
H238 H 0.05908 0.15118 0.89321 0.0
H239 H 0.08219 0.17683 0.89309 0.0
Nd240 Nd 0.87198 0.13365 0.62845 0.0
Nd241 Nd 0.90245 0.14014 0.6283 0.0
C242 C 0.84772 0.13831 0.61555 0.0
C243 C 0.83488 0.17724 0.61824 0.0
C244 C 0.82935 0.21886 0.59955 0.0
C245 C 0.81644 0.24155 0.59966 0.0
C246 C 0.8087 0.22325 0.61847 0.0
C247 C 0.81439 0.18728 0.63787 0.0
C248 C 0.82737 0.16395 0.63773 0.0
C249 C 0.88146 0.13688 0.67281 0.0
C250 C 0.887 0.31813 0.63257 0.0
C251 C 0.92728 0.13327 0.63768 0.0
C252 C 0.94035 0.10411 0.63184 0.0
C253 C 0.9476 0.05923 0.648 0.0
C254 C 0.96057 1.04172 0.64427 0.0
C255 C 0.96666 0.06932 0.62429 0.0
C256 C 0.95926 0.11295 0.60796 0.0
C257 C 0.94629 0.12981 0.61163 0.0
C258 C 0.89089 0.15131 0.58585 0.0
C259 C 0.888 0.95147 0.62655 0.0
O260 O 0.85672 0.18351 0.60578 0.0
O261 O 0.85203 0.08723 0.63143 0.0
O262 O 0.86937 0.13331 0.66787 0.0
O263 O 0.88739 0.14279 0.6544 0.0
O264 O 0.87659 0.27872 0.6251 0.0
O265 O 0.89711 0.27498 0.63965 0.0
O266 O 0.91902 0.0787 0.64591 0.0
O267 O 0.92198 0.19172 0.6249 0.0
O268 O 0.90141 0.18994 0.59145 0.0
O269 O 0.88731 0.1045 0.60213 0.0
O270 O 0.8988 0.99549 0.62837 0.0
O271 O 0.87664 0.98905 0.625 0.0
H272 H 0.83486 0.22975 0.58429 0.0
H273 H 0.81234 0.26981 0.58453 0.0
H274 H 0.80863 0.17217 0.65257 0.0
H275 H 0.83133 0.13191 0.65242 0.0
H276 H 0.94331 1.03961 0.66387 0.0
H277 H 0.96583 1.00696 0.65713 0.0
H278 H 0.96355 0.13684 0.59254 0.0
H279 H 0.94104 0.16546 0.59892 0.0
Nd280 Nd 0.15344 0.95578 0.63022 0.0
Nd281 Nd 0.12546 0.94448 0.63145 0.0
C282 C 0.17876 0.95094 0.62635 0.0
C283 C 0.19105 0.90485 0.6234 0.0
C284 C 0.19664 0.89904 0.60187 0.0
C285 C 0.20914 0.86894 0.59937 0.0
C286 C 0.21645 0.84333 0.61833 0.0
C287 C 0.21071 0.84717 0.63985 0.0
C288 C 0.1982 0.87792 0.64236 0.0
C289 C 0.14318 0.98452 0.67264 0.0
C290 C 0.14045 0.76731 0.63104 0.0
C291 C 0.10061 0.95069 0.64108 0.0
C292 C 0.0874 0.97478 0.63429 0.0
C293 C 0.08022 1.02976 0.64807 0.0
C294 C 0.06718 0.0437 0.64378 0.0
C295 C 0.06094 1.00234 0.62566 0.0
C296 C 0.06825 0.94823 0.61172 0.0
C297 C 0.08127 0.93496 0.6159 0.0
C298 C 0.1349 0.93385 0.58744 0.0
C299 C 0.13907 0.13478 0.62615 0.0
O300 O 0.17103 0.96071 0.60906 0.0
O301 O 0.17273 0.94408 0.64561 0.0
O302 O 0.15187 1.03126 0.66323 0.0
O303 O 0.13982 0.92449 0.65955 0.0
O304 O 0.14979 0.81412 0.62269 0.0
O305 O 0.13052 0.80475 0.64042 0.0
O306 O 0.1087 1.00975 0.64736 0.0
O307 O 0.1061 0.88826 0.63027 0.0
O308 O 0.12513 0.89173 0.59484 0.0
O309 O 0.1389 0.98361 0.60269 0.0
O310 O 0.12883 0.09286 0.63338 0.0
O311 O 0.14949 0.09316 0.62042 0.0
H312 H 0.19154 0.92092 0.58695 0.0
H313 H 0.21321 0.86895 0.58253 0.0
H314 H 0.21589 0.82717 0.65485 0.0
H315 H 0.19429 0.8829 0.65928 0.0
H316 H 0.08463 0.06039 0.66257 0.0
H317 H 0.062 0.08664 0.65475 0.0
H318 H 0.06385 0.91357 0.59789 0.0
H319 H 0.08643 0.8912 0.60509 0.0
Nd320 Nd 0.62261 0.62896 0.12935 0.0
Nd321 Nd 0.6544 0.6314 0.12585 0.0
C322 C 0.59887 0.62587 0.14499 0.0
C323 C 0.58546 0.60308 0.13952 0.0
C324 C 0.57748 0.57339 0.15689 0.0
C325 C 0.56452 0.55708 0.15276 0.0
C326 C 0.55918 0.57021 0.13109 0.0
C327 C 0.56728 0.59888 0.11359 0.0
C328 C 0.58028 0.61513 0.11775 0.0
C329 C 0.63094 0.62758 0.08434 0.0
C330 C 0.63862 0.44845 0.12377 0.0
C331 C 0.67837 0.64116 0.11152 0.0
C332 C 0.69156 0.66755 0.11794 0.0
C333 C 0.69776 0.73209 0.10557 0.0
C334 C 0.71054 0.75356 0.11013 0.0
C335 C 0.71751 0.71057 0.12711 0.0
C336 C 0.71121 0.64625 0.13955 0.0
C337 C 0.69843 0.62523 0.13509 0.0
C338 C 0.6456 0.62431 0.17069 0.0
C339 C 0.63842 0.81327 0.12744 0.0
O340 O 0.60703 0.56375 0.14836 0.0
O341 O 0.60386 0.69112 0.13429 0.0
O342 O 0.61896 0.62803 0.09019 0.0
O343 O 0.63754 0.62659 0.10227 0.0
O344 O 0.62808 0.48534 0.13162 0.0
O345 O 0.6488 0.49282 0.11716 0.0
O346 O 0.66991 0.70139 0.10805 0.0
O347 O 0.67351 0.57312 0.12119 0.0
O348 O 0.65764 0.62498 0.16535 0.0
O349 O 0.63941 0.63147 0.15251 0.0
O350 O 0.64893 0.77184 0.12161 0.0
O351 O 0.62786 0.7733 0.13429 0.0
H352 H 0.58126 0.56381 0.17383 0.0
H353 H 0.55869 0.53374 0.16657 0.0
H354 H 0.56354 0.61069 0.09675 0.0
H355 H 0.58621 0.63835 0.10406 0.0
H356 H 0.69276 0.7654 0.09212 0.0
H357 H 0.71492 0.80415 0.10036 0.0
H358 H 0.71623 0.61032 0.15248 0.0
H359 H 0.69402 0.57467 0.14483 0.0
Nd360 Nd 0.4015 0.45278 0.13047 0.0
Nd361 Nd 0.37138 0.45803 0.1261 0.0
C362 C 0.42523 0.45143 0.14665 0.0
C363 C 0.43869 0.47286 0.14162 0.0
C364 C 0.44781 0.46619 0.15899 0.0
C365 C 0.46081 0.47882 0.15453 0.0
C366 C 0.46504 0.49881 0.13251 0.0
C367 C 0.45577 0.50762 0.1152 0.0
C368 C 0.44273 0.49448 0.1197 0.0
C369 C 0.39488 0.46227 0.08469 0.0
C370 C 0.38671 0.63655 0.12403 0.0
C371 C 0.34698 0.44659 0.11361 0.0
C372 C 0.33424 0.40822 0.11748 0.0
C373 C 0.32533 0.40804 0.09966 0.0
C374 C 0.31256 0.3852 0.10346 0.0
C375 C 0.30837 0.36168 0.12526 0.0
C376 C 0.31754 0.35764 0.14286 0.0
C377 C 0.33031 0.38104 0.13904 0.0
C378 C 0.38067 0.49183 0.16896 0.0
C379 C 0.3854 0.26994 0.13225 0.0
O380 O 0.41722 0.51413 0.15017 0.0
O381 O 0.42016 0.38854 0.13518 0.0
O382 O 0.40656 0.46034 0.09213 0.0
O383 O 0.38747 0.46057 0.10148 0.0
O384 O 0.3966 0.59712 0.1335 0.0
O385 O 0.37704 0.59335 0.11516 0.0
O386 O 0.35602 0.40019 0.10456 0.0
O387 O 0.35127 0.49955 0.12893 0.0
O388 O 0.37043 0.52546 0.1604 0.0
O389 O 0.38523 0.43608 0.15564 0.0
O390 O 0.37463 0.31388 0.13068 0.0
O391 O 0.39675 0.30779 0.13279 0.0
H392 H 0.4449 0.44899 0.17601 0.0
H393 H 0.46757 0.47006 0.16827 0.0
H394 H 0.45856 0.52432 0.09811 0.0
H395 H 0.43585 0.49991 0.10601 0.0
H396 H 0.32812 0.42928 0.08291 0.0
H397 H 0.30587 0.39004 0.08948 0.0
H398 H 0.3148 0.338 0.15976 0.0
H399 H 0.33701 0.38045 0.15308 0.0
Nd400 Nd 0.62476 0.44672 0.37434 0.0
Nd401 Nd 0.65245 0.45913 0.37532 0.0
C402 C 0.59965 0.4501 0.36712 0.0
C403 C 0.58644 0.48376 0.3695 0.0
C404 C 0.58144 0.53883 0.3529 0.0
C405 C 0.56833 0.55563 0.35184 0.0
C406 C 0.55981 0.5173 0.36723 0.0
C407 C 0.5649 0.46676 0.38478 0.0
C408 C 0.57807 0.44984 0.38584 0.0
C409 C 0.63483 0.43768 0.41808 0.0
C410 C 0.63767 0.63761 0.37615 0.0
C411 C 0.67767 0.45421 0.38149 0.0
C412 C 0.69015 0.40932 0.37995 0.0
C413 C 0.69331 0.34181 0.39459 0.0
C414 C 0.70588 0.31109 0.3957 0.0
C415 C 0.71566 0.34772 0.38242 0.0
C416 C 0.71227 0.41185 0.36683 0.0
C417 C 0.69969 0.44226 0.36565 0.0
C418 C 0.64242 0.48199 0.33225 0.0
C419 C 0.63927 0.26967 0.3699 0.0
O420 O 0.60791 0.49038 0.35442 0.0
O421 O 0.60498 0.40852 0.38384 0.0
O422 O 0.62592 0.38846 0.4103 0.0
O423 O 0.63826 0.48961 0.40289 0.0
O424 O 0.62783 0.5914 0.36932 0.0
O425 O 0.64814 0.60007 0.38373 0.0
O426 O 0.66942 0.43213 0.39708 0.0
O427 O 0.67222 0.48012 0.3628 0.0
O428 O 0.65133 0.52822 0.34122 0.0
O429 O 0.63893 0.4239 0.34594 0.0
O430 O 0.64912 0.31146 0.37865 0.0
O431 O 0.62927 0.31212 0.36253 0.0
H432 H 0.58757 0.56557 0.33994 0.0
H433 H 0.56478 0.59624 0.33836 0.0
H434 H 0.55864 0.43598 0.39688 0.0
H435 H 0.58157 0.40639 0.39872 0.0
H436 H 0.68621 0.31478 0.40581 0.0
H437 H 0.70802 0.26017 0.40752 0.0
H438 H 0.71947 0.44213 0.35641 0.0
H439 H 0.69757 0.49477 0.3543 0.0
Nd440 Nd 0.40055 0.63595 0.37479 0.0
Nd441 Nd 0.37291 0.6228 0.37322 0.0
C442 C 0.42571 0.63438 0.36863 0.0
C443 C 0.43889 0.59998 0.3707 0.0
C444 C 0.44327 0.53587 0.35607 0.0
C445 C 0.45632 0.51646 0.35487 0.0
C446 C 0.46535 0.56125 0.36807 0.0
C447 C 0.46085 0.62188 0.38365 0.0
C448 C 0.44779 0.64112 0.3849 0.0
C449 C 0.38968 0.64539 0.41776 0.0
C450 C 0.3872 0.44508 0.37897 0.0
C451 C 0.34754 0.62599 0.37633 0.0
C452 C 0.33511 0.6715 0.37583 0.0
C453 C 0.33225 0.73657 0.39132 0.0
C454 C 0.31972 0.76737 0.39325 0.0
C455 C 0.30974 0.73333 0.3799 0.0
C456 C 0.31282 0.67178 0.3635 0.0
C457 C 0.32535 0.64124 0.36154 0.0
C458 C 0.38435 0.60157 0.33138 0.0
C459 C 0.38566 0.81336 0.37315 0.0
O460 O 0.41757 0.59992 0.35446 0.0
O461 O 0.42024 0.66859 0.38625 0.0
O462 O 0.39881 0.69417 0.41062 0.0
O463 O 0.38649 0.59374 0.4023 0.0
O464 O 0.39762 0.48697 0.37254 0.0
O465 O 0.37674 0.48717 0.38398 0.0
O466 O 0.35524 0.63697 0.39358 0.0
O467 O 0.35358 0.6128 0.35735 0.0
O468 O 0.37571 0.55139 0.33961 0.0
O469 O 0.38704 0.66018 0.3454 0.0
O470 O 0.37584 0.76618 0.37934 0.0
O471 O 0.39629 0.77674 0.36633 0.0
H472 H 0.43671 0.50316 0.34482 0.0
H473 H 0.45938 0.46805 0.34301 0.0
H474 H 0.46748 0.65813 0.39398 0.0
H475 H 0.44475 0.69163 0.39615 0.0
H476 H 0.33956 0.76147 0.40255 0.0
H477 H 0.3178 0.81622 0.40572 0.0
H478 H 0.30543 0.64354 0.35302 0.0
H479 H 0.32727 0.59063 0.34955 0.0
Nd480 Nd 0.37276 0.45938 0.87651 0.0
Nd481 Nd 0.40105 0.45074 0.87253 0.0
C482 C 0.348 0.44764 0.88646 0.0
C483 C 0.33522 0.41314 0.88011 0.0
C484 C 0.32916 0.35331 0.89423 0.0
C485 C 0.31646 0.32853 0.89021 0.0
C486 C 0.30943 0.36355 0.87205 0.0
C487 C 0.31563 0.42234 0.8577 0.0
C488 C 0.32834 0.44659 0.86164 0.0
C489 C 0.38145 0.47702 0.83244 0.0
C490 C 0.38628 0.27115 0.87374 0.0
C491 C 0.42559 0.45908 0.86082 0.0
C492 C 0.43877 0.48774 0.86631 0.0
C493 C 0.44651 0.52042 0.84893 0.0
C494 C 0.45949 0.53773 0.85277 0.0
C495 C 0.4651 0.52258 0.87413 0.0
C496 C 0.45723 0.49141 0.89166 0.0
C497 C 0.44424 0.47421 0.88781 0.0
C498 C 0.39276 0.4413 0.91734 0.0
C499 C 0.38734 0.6377 0.87912 0.0
O500 O 0.35664 0.39562 0.89459 0.0
O501 O 0.35293 0.50781 0.8739 0.0
O502 O 0.37195 0.51874 0.84087 0.0
O503 O 0.38566 0.42354 0.84666 0.0
O504 O 0.3768 0.3167 0.88203 0.0
O505 O 0.39622 0.30952 0.86451 0.0
O506 O 0.41711 0.51488 0.85409 0.0
O507 O 0.42066 0.39864 0.87326 0.0
O508 O 0.40285 0.40395 0.90958 0.0
O509 O 0.38812 0.48904 0.90222 0.0
O510 O 0.39688 0.59739 0.869 0.0
O511 O 0.37794 0.59351 0.88825 0.0
H512 H 0.33415 0.32711 0.90877 0.0
H513 H 0.31215 0.28222 0.90147 0.0
H514 H 0.31057 0.45218 0.84378 0.0
H515 H 0.33261 0.49366 0.85055 0.0
H516 H 0.44256 0.53065 0.83214 0.0
H517 H 0.46513 0.56285 0.83893 0.0
H518 H 0.46118 0.4778 0.90826 0.0
H519 H 0.43857 0.44821 0.90151 0.0
Nd520 Nd 0.65299 0.62834 0.87422 0.0
Nd521 Nd 0.62345 0.63469 0.87397 0.0
C522 C 0.67828 0.63964 0.8744 0.0
C523 C 0.69079 0.68182 0.87843 0.0
C524 C 0.69646 0.68305 0.90003 0.0
C525 C 0.70905 0.7119 0.90287 0.0
C526 C 0.7163 0.73999 0.88418 0.0
C527 C 0.71051 0.74005 0.86265 0.0
C528 C 0.69793 0.7112 0.85982 0.0
C529 C 0.64135 0.59104 0.83333 0.0
C530 C 0.63893 0.81547 0.87589 0.0
C531 C 0.59937 0.63446 0.85946 0.0
C532 C 0.58587 0.61344 0.86422 0.0
C533 C 0.57685 0.62215 0.84674 0.0
C534 C 0.5638 0.60997 0.85091 0.0
C535 C 0.55943 0.58828 0.87272 0.0
C536 C 0.56862 0.57717 0.8901 0.0
C537 C 0.58169 0.59001 0.88591 0.0
C538 C 0.63128 0.63647 0.91918 0.0
C539 C 0.63834 0.44965 0.88063 0.0
O540 O 0.67176 0.60727 0.89132 0.0
O541 O 0.67107 0.66708 0.85777 0.0
O542 O 0.6507 0.54801 0.84201 0.0
O543 O 0.63819 0.65121 0.84642 0.0
O544 O 0.6491 0.77007 0.88155 0.0
O545 O 0.62827 0.7782 0.86888 0.0
O546 O 0.60735 0.57191 0.8556 0.0
O547 O 0.60452 0.697 0.87097 0.0
O548 O 0.61945 0.63821 0.91261 0.0
O549 O 0.63847 0.63313 0.90203 0.0
O550 O 0.628 0.48846 0.87249 0.0
O551 O 0.64867 0.49321 0.88639 0.0
H552 H 0.69133 0.65947 0.91466 0.0
H553 H 0.71321 0.7096 0.91968 0.0
H554 H 0.7157 0.76208 0.84791 0.0
H555 H 0.69391 0.7097 0.84287 0.0
H556 H 0.57987 0.64066 0.82989 0.0
H557 H 0.55714 0.62049 0.83712 0.0
H558 H 0.56573 0.55895 0.90703 0.0
H559 H 0.5885 0.58289 0.89966 0.0
Nd560 Nd 0.37324 0.62866 0.62964 0.0
Nd561 Nd 0.40132 0.64005 0.62841 0.0
C562 C 0.34792 0.63486 0.62658 0.0
C563 C 0.33545 0.6796 0.62487 0.0
C564 C 0.33119 0.71529 0.60434 0.0
C565 C 0.31844 0.74112 0.6018 0.0
C566 C 0.30962 0.73116 0.61963 0.0
C567 C 0.31412 0.70061 0.64059 0.0
C568 C 0.32687 0.67494 0.64314 0.0
C569 C 0.38459 0.59803 0.67095 0.0
C570 C 0.38685 0.81715 0.6321 0.0
C571 C 0.4264 0.63482 0.63605 0.0
C572 C 0.43955 0.60597 0.63052 0.0
C573 C 0.44669 0.56011 0.64666 0.0
C574 C 0.45972 0.54319 0.64321 0.0
C575 C 0.46596 0.57234 0.62355 0.0
C576 C 0.45869 0.61736 0.6073 0.0
C577 C 0.44568 0.63363 0.61069 0.0
C578 C 0.39033 0.6504 0.58535 0.0
C579 C 0.38803 0.4486 0.62579 0.0
O580 O 0.35541 0.62944 0.6089 0.0
O581 O 0.35415 0.63724 0.64577 0.0
O582 O 0.37529 0.55366 0.66265 0.0
O583 O 0.38775 0.65821 0.65772 0.0
O584 O 0.37678 0.77475 0.6245 0.0
O585 O 0.3969 0.77551 0.63957 0.0
O586 O 0.41834 0.5822 0.64564 0.0
O587 O 0.42082 0.68955 0.62255 0.0
O588 O 0.39993 0.69593 0.59217 0.0
O589 O 0.38698 0.59997 0.60098 0.0
O590 O 0.39852 0.49386 0.62943 0.0
O591 O 0.37684 0.48602 0.62284 0.0
H592 H 0.33754 0.71983 0.58993 0.0
H593 H 0.31537 0.76605 0.58554 0.0
H594 H 0.30763 0.69148 0.65464 0.0
H595 H 0.32983 0.64691 0.65911 0.0
H596 H 0.44227 0.53919 0.6623 0.0
H597 H 0.46488 0.50756 0.65602 0.0
H598 H 0.46311 0.6427 0.59216 0.0
H599 H 0.44056 0.67039 0.59804 0.0
Nd600 Nd 0.65299 0.45963 0.62845 0.0
Nd601 Nd 0.62493 0.44693 0.62966 0.0
C602 C 0.67834 0.45511 0.62509 0.0
C603 C 0.69062 0.40819 0.623 0.0
C604 C 0.69624 0.39664 0.60166 0.0
C605 C 0.70868 0.36471 0.59979 0.0
C606 C 0.71589 0.34337 0.61921 0.0
C607 C 0.71018 0.35358 0.64059 0.0
C608 C 0.69772 0.38577 0.64246 0.0
C609 C 0.64254 0.48699 0.67065 0.0
C610 C 0.64005 0.27053 0.62972 0.0
C611 C 0.60006 0.45203 0.63924 0.0
C612 C 0.5868 0.47645 0.63279 0.0
C613 C 0.57967 0.53029 0.64697 0.0
C614 C 0.5666 0.54442 0.64293 0.0
C615 C 0.56029 0.50442 0.62468 0.0
C616 C 0.56755 0.45136 0.61037 0.0
C617 C 0.5806 0.43789 0.6143 0.0
C618 C 0.63445 0.43747 0.58567 0.0
C619 C 0.63838 0.63808 0.62491 0.0
O620 O 0.67071 0.46184 0.60754 0.0
O621 O 0.67219 0.45141 0.64427 0.0
O622 O 0.65119 0.53483 0.66159 0.0
O623 O 0.63934 0.427 0.6575 0.0
O624 O 0.64928 0.31702 0.62083 0.0
O625 O 0.63024 0.30844 0.63936 0.0
O626 O 0.60813 0.51054 0.64595 0.0
O627 O 0.60557 0.39082 0.62794 0.0
O628 O 0.62476 0.39436 0.59306 0.0
O629 O 0.63838 0.48731 0.60097 0.0
O630 O 0.62825 0.59497 0.63214 0.0
O631 O 0.64883 0.59776 0.61868 0.0
H632 H 0.6912 0.41499 0.58635 0.0
H633 H 0.71278 0.35946 0.58303 0.0
H634 H 0.71534 0.3371 0.65591 0.0
H635 H 0.69378 0.39526 0.65922 0.0
H636 H 0.58414 0.55989 0.66156 0.0
H637 H 0.56146 0.58649 0.6542 0.0
H638 H 0.5631 0.41769 0.59643 0.0
H639 H 0.58571 0.39496 0.60319 0.0
H640 H 0.23596 0.22059 0.09786 0.0
H641 H 0.22565 0.32061 0.16392 0.0
H642 H 0.24815 0.35953 0.1708 0.0
H643 H 0.26616 0.13287 0.11342 0.0
H644 H 0.27404 0.16301 0.08749 0.0
H645 H 0.25708 0.14323 0.08753 0.0
H646 H 0.25302 0.29332 0.07068 0.0
H647 H 0.26998 0.31344 0.0705 0.0
H648 H 0.2594 0.38564 0.08495 0.0
H649 H 0.27186 0.3873 0.17075 0.0
H650 H 0.29485 0.40536 0.1634 0.0
H651 H 0.29 0.28725 0.09737 0.0
C652 C 0.23836 0.25165 0.11368 0.0
C653 C 0.2289 0.26682 0.1304 0.0
C654 C 0.23263 0.30662 0.15097 0.0
C655 C 0.24542 0.32958 0.155 0.0
C656 C 0.25446 0.31296 0.13829 0.0
C657 C 0.2511 0.27538 0.11797 0.0
C658 C 0.2627 0.26488 0.10281 0.0
C659 C 0.26514 0.17037 0.09751 0.0
C660 C 0.26118 0.31746 0.08094 0.0
C661 C 0.27314 0.30141 0.11791 0.0
C662 C 0.26816 0.32899 0.13826 0.0
C663 C 0.27588 0.36553 0.1549 0.0
C664 C 0.289 0.37471 0.15063 0.0
C665 C 0.29443 0.34716 0.12987 0.0
C666 C 0.28627 0.30971 0.11337 0.0
H667 H 0.79018 0.84502 0.09899 0.0
H668 H 0.79868 0.79804 0.17009 0.0
H669 H 0.77613 0.76209 0.17669 0.0
H670 H 0.7591 0.93525 0.1062 0.0
H671 H 0.75211 0.88357 0.08187 0.0
H672 H 0.76896 0.90731 0.08234 0.0
H673 H 0.77418 0.74871 0.07478 0.0
H674 H 0.75734 0.72465 0.07404 0.0
H675 H 0.76773 0.66785 0.09324 0.0
H676 H 0.75258 0.73702 0.17633 0.0
H677 H 0.72984 0.71077 0.16834 0.0
H678 H 0.73651 0.7605 0.09685 0.0
C679 C 0.78738 0.82615 0.11591 0.0
C680 C 0.79634 0.82606 0.13409 0.0
C681 C 0.79208 0.80132 0.15595 0.0
C682 C 0.77925 0.78009 0.15988 0.0
C683 C 0.7707 0.78244 0.14177 0.0
C684 C 0.77458 0.80356 0.12013 0.0
C685 C 0.76341 0.79885 0.1036 0.0
C686 C 0.76074 0.88647 0.09288 0.0
C687 C 0.76581 0.73096 0.08534 0.0
C688 C 0.75266 0.77225 0.11942 0.0
C689 C 0.75711 0.76393 0.14137 0.0
C690 C 0.74902 0.74195 0.15913 0.0
C691 C 0.73608 0.7265 0.15435 0.0
C692 C 0.73125 0.73185 0.13188 0.0
C693 C 0.73975 0.75601 0.11425 0.0
H694 H 0.28964 0.75517 0.34929 0.0
H695 H 0.29869 0.75978 0.42122 0.0
H696 H 0.27623 0.79139 0.42979 0.0
H697 H 0.26623 0.92487 0.34987 0.0
H698 H 0.25569 0.87445 0.32971 0.0
H699 H 0.27261 0.85365 0.3288 0.0
H700 H 0.26824 0.69172 0.33209 0.0
H701 H 0.2513 0.71204 0.333 0.0
H702 H 0.25886 0.65202 0.3554 0.0
H703 H 0.25301 0.81896 0.43119 0.0
H704 H 0.23008 0.84522 0.4253 0.0
H705 H 0.23517 0.82225 0.35256 0.0
C706 C 0.28691 0.76287 0.36684 0.0
C707 C 0.29609 0.75604 0.38454 0.0
C708 C 0.29202 0.76679 0.40726 0.0
C709 C 0.27922 0.78398 0.41236 0.0
C710 C 0.27047 0.79016 0.39461 0.0
C711 C 0.27408 0.78016 0.37229 0.0
C712 C 0.26259 0.78953 0.35656 0.0
C713 C 0.26439 0.86514 0.34027 0.0
C714 C 0.2601 0.70637 0.34349 0.0
C715 C 0.25202 0.80683 0.3736 0.0
C716 C 0.25685 0.80622 0.39542 0.0
C717 C 0.24909 0.81938 0.41419 0.0
C718 C 0.23604 0.83365 0.41066 0.0
C719 C 0.23074 0.83492 0.38851 0.0
C720 C 0.23892 0.82177 0.3697 0.0
H721 H 0.78996 0.27289 0.35191 0.0
H722 H 0.79607 0.22917 0.42387 0.0
H723 H 0.77322 0.25341 0.43086 0.0
H724 H 0.7661 0.43844 0.35779 0.0
H725 H 0.75657 0.40271 0.33413 0.0
H726 H 0.77355 0.38367 0.33447 0.0
H727 H 0.76955 0.22217 0.32908 0.0
H728 H 0.75255 0.24071 0.32871 0.0
H729 H 0.75934 0.16628 0.34869 0.0
H730 H 0.74987 0.28079 0.43053 0.0
H731 H 0.72727 0.31267 0.423 0.0
H732 H 0.73545 0.33399 0.35104 0.0
C733 C 0.7865 0.26838 0.36914 0.0
C734 C 0.79498 0.25018 0.38737 0.0
C735 C 0.78996 0.24516 0.40964 0.0
C736 C 0.77693 0.25801 0.4138 0.0
C737 C 0.76889 0.27563 0.39554 0.0
C738 C 0.77343 0.28101 0.37363 0.0
C739 C 0.7626 0.30063 0.35714 0.0
C740 C 0.76484 0.38647 0.34518 0.0
C741 C 0.76092 0.22811 0.33989 0.0
C742 C 0.75131 0.30525 0.37327 0.0
C743 C 0.75521 0.29045 0.39531 0.0
C744 C 0.74666 0.29185 0.41331 0.0
C745 C 0.73377 0.30924 0.40879 0.0
C746 C 0.7294 0.32482 0.38637 0.0
C747 C 0.73839 0.32262 0.36839 0.0
H748 H 0.73706 0.71207 0.85591 0.0
H749 H 0.72636 0.83259 0.91931 0.0
H750 H 0.74878 0.87386 0.92569 0.0
H751 H 0.76715 0.62991 0.87405 0.0
H752 H 0.77533 0.65176 0.84783 0.0
H753 H 0.75836 0.63218 0.84771 0.0
H754 H 0.75455 0.77637 0.82746 0.0
H755 H 0.77152 0.79628 0.82743 0.0
H756 H 0.76079 0.87289 0.83982 0.0
H757 H 0.77216 0.89882 0.92615 0.0
H758 H 0.79532 0.91141 0.91998 0.0
H759 H 0.79142 0.77877 0.85578 0.0
C760 C 0.73938 0.74813 0.871 0.0
C761 C 0.72986 0.76825 0.88723 0.0
C762 C 0.73343 0.81471 0.90684 0.0
C763 C 0.74615 0.83906 0.91056 0.0
C764 C 0.75527 0.81728 0.89444 0.0
C765 C 0.75208 0.77352 0.87494 0.0
C766 C 0.76386 0.7582 0.86043 0.0
C767 C 0.76632 0.66231 0.85734 0.0
C768 C 0.7626 0.80366 0.83743 0.0
C769 C 0.77415 0.79924 0.87505 0.0
C770 C 0.76892 0.83281 0.89456 0.0
C771 C 0.77639 0.87276 0.91095 0.0
C772 C 0.78958 0.87885 0.90737 0.0
C773 C 0.79528 0.84517 0.88755 0.0
C774 C 0.78738 0.80523 0.8711 0.0
H775 H 0.29069 0.32721 0.90401 0.0
H776 H 0.29672 0.34694 0.83134 0.0
H777 H 0.27387 0.31858 0.82481 0.0
H778 H 0.26813 0.1507 0.90048 0.0
H779 H 0.25856 0.18835 0.92375 0.0
H780 H 0.2754 0.2122 0.92287 0.0
H781 H 0.27031 0.37315 0.92617 0.0
H782 H 0.25345 0.34985 0.92682 0.0
H783 H 0.2597 0.42214 0.90583 0.0
H784 H 0.25021 0.2932 0.82596 0.0
H785 H 0.22772 0.26055 0.8345 0.0
H786 H 0.23715 0.24442 0.90618 0.0
C787 C 0.2873 0.32454 0.88668 0.0
C788 C 0.29564 0.34076 0.86822 0.0
C789 C 0.2906 0.33721 0.84587 0.0
C790 C 0.2776 0.3205 0.84194 0.0
C791 C 0.26967 0.30622 0.86047 0.0
C792 C 0.27434 0.30686 0.88239 0.0
C793 C 0.26377 0.28734 0.89924 0.0
C794 C 0.26664 0.20473 0.91235 0.0
C795 C 0.26169 0.36262 0.91547 0.0
C796 C 0.25244 0.27612 0.88332 0.0
C797 C 0.25607 0.28795 0.86106 0.0
C798 C 0.24729 0.28258 0.84331 0.0
C799 C 0.23451 0.26333 0.84837 0.0
C800 C 0.23053 0.24852 0.87102 0.0
C801 C 0.23972 0.25583 0.88869 0.0
H802 H 0.73701 0.37745 0.64663 0.0
H803 H 0.72531 0.23635 0.5867 0.0
H804 H 0.74753 0.19103 0.58086 0.0
H805 H 0.76706 0.44966 0.626 0.0
H806 H 0.77554 0.43587 0.6524 0.0
H807 H 0.75863 0.45697 0.65253 0.0
H808 H 0.75478 0.32043 0.67618 0.0
H809 H 0.77171 0.29906 0.67622 0.0
H810 H 0.76066 0.21961 0.66598 0.0
H811 H 0.77079 0.16655 0.57988 0.0
H812 H 0.79409 0.15662 0.5851 0.0
H813 H 0.7914 0.30549 0.64681 0.0
C814 C 0.73906 0.33593 0.63248 0.0
C815 C 0.72931 0.31152 0.61695 0.0
C816 C 0.73255 0.25781 0.59855 0.0
C817 C 0.74516 0.23106 0.59516 0.0
C818 C 0.75451 0.25738 0.61046 0.0
C819 C 0.75167 0.30775 0.62892 0.0
C820 C 0.76369 0.32669 0.64268 0.0
C821 C 0.76639 0.42302 0.64343 0.0
C822 C 0.76264 0.28919 0.66669 0.0
C823 C 0.77371 0.27996 0.6288 0.0
C824 C 0.76812 0.24081 0.61028 0.0
C825 C 0.77528 0.19634 0.59439 0.0
C826 C 0.78852 0.19148 0.59744 0.0
C827 C 0.79456 0.23044 0.61627 0.0
C828 C 0.78702 0.27468 0.63232 0.0
H829 H 0.23715 0.86719 0.64749 0.0
H830 H 0.22675 0.75364 0.58282 0.0
H831 H 0.24924 0.71695 0.57627 0.0
H832 H 0.26707 0.95435 0.63179 0.0
H833 H 0.27521 0.92694 0.65778 0.0
H834 H 0.25821 0.94494 0.65783 0.0
H835 H 0.25457 0.79582 0.67547 0.0
H836 H 0.27157 0.77755 0.67561 0.0
H837 H 0.26105 0.7031 0.66166 0.0
H838 H 0.27278 0.6974 0.57556 0.0
H839 H 0.29591 0.68467 0.58221 0.0
H840 H 0.2915 0.80333 0.64819 0.0
C841 C 0.23952 0.83343 0.63209 0.0
C842 C 0.23004 0.81496 0.61549 0.0
C843 C 0.23374 0.77114 0.59555 0.0
C844 C 0.24653 0.74924 0.59171 0.0
C845 C 0.25559 0.76995 0.60813 0.0
C846 C 0.25227 0.80973 0.62811 0.0
C847 C 0.26397 0.82279 0.64311 0.0
C848 C 0.26624 0.91792 0.64789 0.0
C849 C 0.26271 0.77177 0.66527 0.0
C850 C 0.27439 0.78612 0.62811 0.0
C851 C 0.26928 0.75611 0.60802 0.0
C852 C 0.2769 0.72048 0.59124 0.0
C853 C 0.29009 0.71438 0.5951 0.0
C854 C 0.29564 0.74371 0.61562 0.0
C855 C 0.2876 0.78007 0.63234 0.0
H856 H 0.15913 0.93227 0.29498 0.0
H857 H 0.12325 1.03739 0.31817 0.0
H858 H 0.11844 0.08642 0.27887 0.0
H859 H 0.16728 0.09453 0.25732 0.0
H860 H 0.17414 1.02496 0.23636 0.0
H861 H 0.17406 0.99365 0.2657 0.0
H862 H 0.16214 0.85372 0.25544 0.0
H863 H 0.16237 0.88403 0.22598 0.0
H864 H 0.14741 0.85909 0.23955 0.0
H865 H 0.11892 0.13491 0.23569 0.0
H866 H 0.12383 0.1642 0.19506 0.0
H867 H 0.15907 1.02167 0.20202 0.0
C868 C 0.15014 0.96429 0.29177 0.0
C869 C 0.14156 0.98069 0.30965 0.0
C870 C 0.12992 1.02322 0.30469 0.0
C871 C 0.12716 0.05177 0.2824 0.0
C872 C 0.13606 1.0363 0.26519 0.0
C873 C 0.14721 0.99199 0.26975 0.0
C874 C 0.15541 0.98364 0.2488 0.0
C875 C 0.16849 1.02677 0.25226 0.0
C876 C 0.15692 0.88954 0.24205 0.0
C877 C 0.14737 1.03157 0.23169 0.0
C878 C 0.13622 0.06195 0.24119 0.0
C879 C 0.12761 0.11048 0.22823 0.0
C880 C 0.13048 0.12729 0.20517 0.0
C881 C 0.14185 0.09543 0.19528 0.0
C882 C 0.15028 0.047 0.20892 0.0
H883 H 0.88048 0.19372 0.29395 0.0
H884 H 0.89493 0.95494 0.32016 0.0
H885 H 0.89918 0.90529 0.28118 0.0
H886 H 0.8634 0.10792 0.24986 0.0
H887 H 0.86652 0.19043 0.22931 0.0
H888 H 0.86706 0.2148 0.25906 0.0
H889 H 0.89015 0.27211 0.25489 0.0
H890 H 0.88964 0.24864 0.22498 0.0
H891 H 0.90223 0.20528 0.24243 0.0
H892 H 0.89958 0.87469 0.23875 0.0
H893 H 0.89541 0.86567 0.19734 0.0
H894 H 0.87961 0.12082 0.19859 0.0
C895 C 0.88509 0.13273 0.29143 0.0
C896 C 0.88784 0.07923 0.31016 0.0
C897 C 0.89317 0.99783 0.30612 0.0
C898 C 0.89555 0.96897 0.28398 0.0
C899 C 0.89243 1.02192 0.26578 0.0
C900 C 0.88738 0.10247 0.26926 0.0
C901 C 0.88362 0.14301 0.24678 0.0
C902 C 0.8693 0.1653 0.24623 0.0
C903 C 0.8919 0.22195 0.24199 0.0
C904 C 0.88673 0.07142 0.23034 0.0
C905 C 0.89213 1.00287 0.24151 0.0
C906 C 0.89547 0.9285 0.22985 0.0
C907 C 0.89308 0.92379 0.2063 0.0
C908 C 0.88716 0.9923 0.1947 0.0
C909 C 0.88414 0.06725 0.20697 0.0
H910 H 0.88174 0.21851 0.7137 0.0
H911 H 0.89162 0.9805 0.68133 0.0
H912 H 0.89555 0.91482 0.719 0.0
H913 H 0.90587 0.19336 0.76208 0.0
H914 H 0.89525 0.24495 0.78171 0.0
H915 H 0.8952 0.27567 0.75224 0.0
H916 H 0.87087 0.24552 0.75011 0.0
H917 H 0.87086 0.21416 0.7794 0.0
H918 H 0.86494 0.14178 0.7581 0.0
H919 H 0.89559 0.87056 0.76122 0.0
H920 H 0.89221 0.85498 0.80275 0.0
H921 H 0.8827 0.12305 0.8069 0.0
C922 C 0.88521 0.15359 0.71459 0.0
C923 C 0.88666 0.105 0.69465 0.0
C924 C 0.89082 1.01939 0.69641 0.0
C925 C 0.893 0.98151 0.71777 0.0
C926 C 0.89123 1.03059 0.73726 0.0
C927 C 0.8877 0.11552 0.73577 0.0
C928 C 0.88582 0.1535 0.75914 0.0
C929 C 0.89614 0.22088 0.76408 0.0
C930 C 0.87232 0.19086 0.76183 0.0
C931 C 0.88776 0.0754 0.77392 0.0
C932 C 0.89124 1.00539 0.76117 0.0
C933 C 0.89308 0.92552 0.77132 0.0
C934 C 0.89116 0.9171 0.79493 0.0
C935 C 0.8872 0.98777 0.80802 0.0
C936 C 0.88573 0.06786 0.79731 0.0
H937 H 0.14967 0.20639 0.79294 0.0
H938 H 0.13089 0.98855 0.82316 0.0
H939 H 0.1264 0.93037 0.78481 0.0
H940 H 0.12701 0.21913 0.74253 0.0
H941 H 0.13967 0.25495 0.72422 0.0
H942 H 0.13985 0.28302 0.75384 0.0
H943 H 0.16249 0.21745 0.75781 0.0
H944 H 0.16232 0.18842 0.72837 0.0
H945 H 0.16503 0.10798 0.7497 0.0
H946 H 0.12666 0.88779 0.74226 0.0
H947 H 0.13045 0.87132 0.70088 0.0
H948 H 0.14812 0.12109 0.69933 0.0
C949 C 0.14425 0.14783 0.7914 0.0
C950 C 0.14047 0.10243 0.81093 0.0
C951 C 0.13361 1.02519 0.80836 0.0
C952 C 0.13109 0.9915 0.78663 0.0
C953 C 0.13521 1.03699 0.7676 0.0
C954 C 0.14135 0.11479 0.76986 0.0
C955 C 0.14512 0.15047 0.74695 0.0
C956 C 0.13746 0.23171 0.74158 0.0
C957 C 0.1596 0.16697 0.74565 0.0
C958 C 0.14107 0.07808 0.73157 0.0
C959 C 0.13513 1.01361 0.74357 0.0
C960 C 0.13111 0.93877 0.73275 0.0
C961 C 0.13329 0.9298 0.70923 0.0
C962 C 0.13957 0.99488 0.69687 0.0
C963 C 0.14328 0.07014 0.70828 0.0
H964 H 0.6458 0.62071 0.30546 0.0
H965 H 0.63166 0.3613 0.3034 0.0
H966 H 0.62863 0.37431 0.26166 0.0
H967 H 0.62426 0.70381 0.25993 0.0
H968 H 0.63638 0.77571 0.2497 0.0
H969 H 0.63584 0.74779 0.27934 0.0
H970 H 0.65938 0.69716 0.27749 0.0
H971 H 0.65999 0.72463 0.24793 0.0
H972 H 0.66386 0.61779 0.25692 0.0
H973 H 0.62885 0.41531 0.21881 0.0
H974 H 0.63314 0.47563 0.18063 0.0
H975 H 0.64794 0.70553 0.2115 0.0
C976 C 0.64187 0.56688 0.2963 0.0
C977 C 0.63897 0.4899 0.30774 0.0
C978 C 0.63385 0.42113 0.29509 0.0
C979 C 0.63212 0.42811 0.27134 0.0
C980 C 0.63535 0.50474 0.26052 0.0
C981 C 0.64002 0.57308 0.27278 0.0
C982 C 0.64338 0.6473 0.25737 0.0
C983 C 0.63444 0.72315 0.26185 0.0
C984 C 0.65749 0.67315 0.26009 0.0
C985 C 0.64074 0.60867 0.23428 0.0
C986 C 0.6357 0.52737 0.23637 0.0
C987 C 0.63266 0.47916 0.21716 0.0
C988 C 0.63505 0.51409 0.1955 0.0
C989 C 0.64069 0.59572 0.19312 0.0
C990 C 0.64345 0.64352 0.21282 0.0
H991 H 0.38712 0.46359 0.30342 0.0
H992 H 0.38823 0.73959 0.30364 0.0
H993 H 0.39019 0.73957 0.26179 0.0
H994 H 0.41061 0.44162 0.25474 0.0
H995 H 0.40258 0.34814 0.24409 0.0
H996 H 0.40271 0.3701 0.2741 0.0
H997 H 0.37801 0.36327 0.27464 0.0
H998 H 0.37779 0.34164 0.24472 0.0
H999 H 0.36896 0.43095 0.25577 0.0
H1000 H 0.38874 0.70977 0.21993 0.0
H1001 H 0.38507 0.65365 0.18142 0.0
H1002 H 0.38647 0.39546 0.20736 0.0
C1003 C 0.38809 0.52391 0.29464 0.0
C1004 C 0.38757 0.60175 0.30679 0.0
C1005 C 0.38878 0.67936 0.29476 0.0
C1006 C 0.38987 0.67981 0.27096 0.0
C1007 C 0.39013 0.602 0.25942 0.0
C1008 C 0.38955 0.52533 0.27091 0.0
C1009 C 0.38969 0.45076 0.25438 0.0
C1010 C 0.40213 0.39961 0.25699 0.0
C1011 C 0.3779 0.39333 0.25757 0.0
C1012 C 0.38935 0.49737 0.23173 0.0
C1013 C 0.38987 0.58467 0.23512 0.0
C1014 C 0.38868 0.64164 0.21709 0.0
C1015 C 0.38663 0.60911 0.19521 0.0
C1016 C 0.38586 0.52027 0.19123 0.0
C1017 C 0.38751 0.46353 0.20973 0.0
H1018 H 0.37654 0.61041 0.80408 0.0
H1019 H 0.39593 0.36664 0.80682 0.0
H1020 H 0.40145 0.38098 0.7661 0.0
H1021 H 0.36256 0.58962 0.75107 0.0
H1022 H 0.36484 0.69899 0.74257 0.0
H1023 H 0.36365 0.67248 0.77214 0.0
H1024 H 0.3855 0.74538 0.77965 0.0
H1025 H 0.38676 0.77179 0.74998 0.0
H1026 H 0.39932 0.7124 0.76377 0.0
H1027 H 0.4024 0.41464 0.72391 0.0
H1028 H 0.39887 0.4642 0.68453 0.0
H1029 H 0.37985 0.68972 0.70955 0.0
C1030 C 0.3821 0.5605 0.79618 0.0
C1031 C 0.38576 0.48711 0.80858 0.0
C1032 C 0.39305 0.4234 0.79767 0.0
C1033 C 0.39625 0.43122 0.77455 0.0
C1034 C 0.39232 0.50404 0.76271 0.0
C1035 C 0.38553 0.56804 0.77328 0.0
C1036 C 0.38198 0.63826 0.75668 0.0
C1037 C 0.36739 0.65048 0.75555 0.0
C1038 C 0.3888 0.72192 0.76289 0.0
C1039 C 0.38719 0.60184 0.73475 0.0
C1040 C 0.39331 0.52492 0.73866 0.0
C1041 C 0.39794 0.47575 0.7208 0.0
C1042 C 0.39597 0.50458 0.69848 0.0
C1043 C 0.38954 0.5822 0.69409 0.0
C1044 C 0.38531 0.63211 0.7125 0.0
H1045 H 0.64778 0.46268 0.80452 0.0
H1046 H 0.62652 0.69939 0.8074 0.0
H1047 H 0.62229 0.68933 0.76606 0.0
H1048 H 0.66316 0.50118 0.75327 0.0
H1049 H 0.66244 0.39253 0.74345 0.0
H1050 H 0.66252 0.41456 0.77335 0.0
H1051 H 0.64146 0.32927 0.77792 0.0
H1052 H 0.6413 0.30717 0.74794 0.0
H1053 H 0.62771 0.35747 0.761 0.0
H1054 H 0.62278 0.66156 0.72352 0.0
H1055 H 0.62753 0.61764 0.68412 0.0
H1056 H 0.64771 0.39603 0.70923 0.0
C1057 C 0.64202 0.51168 0.79655 0.0
C1058 C 0.63745 0.58181 0.8092 0.0
C1059 C 0.63004 0.64487 0.79809 0.0
C1060 C 0.62761 0.63957 0.77461 0.0
C1061 C 0.63249 0.57024 0.76255 0.0
C1062 C 0.63945 0.50702 0.77324 0.0
C1063 C 0.64426 0.44155 0.75639 0.0
C1064 C 0.65896 0.43727 0.75663 0.0
C1065 C 0.63833 0.35365 0.76109 0.0
C1066 C 0.63927 0.47888 0.73435 0.0
C1067 C 0.63243 0.55291 0.73826 0.0
C1068 C 0.62785 0.60268 0.72037 0.0
C1069 C 0.63054 0.57718 0.69804 0.0
C1070 C 0.63759 0.50212 0.69373 0.0
C1071 C 0.64185 0.45178 0.71211 0.0
H1072 H 0.11598 0.16225 0.95509 0.0
H1073 H 0.1551 0.095 0.9393 0.0
H1074 H 0.16023 0.09325 0.98065 0.0
H1075 H 0.12306 0.30308 0.00164 0.0
H1076 H 0.10907 0.27114 0.01724 0.0
H1077 H 0.10897 0.26738 0.98674 0.0
H1078 H 0.10267 0.10758 0.98821 0.0
H1079 H 0.10282 0.11058 0.01871 0.0
H1080 H 0.11253 1.034 0.00394 0.0
H1081 H 0.16006 0.08951 0.02535 0.0
H1082 H 0.15527 0.09693 0.06659 0.0
H1083 H 0.11658 0.17612 0.05105 0.0
C1084 C 0.12568 0.14744 0.96022 0.0
C1085 C 0.13513 0.12817 0.94397 0.0
C1086 C 0.14771 0.10989 0.95147 0.0
C1087 C 0.15066 0.10858 0.97492 0.0
C1088 C 0.14097 0.12681 0.99055 0.0
C1089 C 0.12877 0.14703 0.98328 0.0
C1090 C 0.11993 0.16489 0.00293 0.0
C1091 C 0.11497 0.25711 0.00208 0.0
C1092 C 0.10883 0.10043 0.00347 0.0
C1093 C 0.12894 0.15152 0.02268 0.0
C1094 C 0.14102 0.1285 0.01541 0.0
C1095 C 0.15066 0.10854 0.03103 0.0
C1096 C 0.14785 0.11265 0.05443 0.0
C1097 C 0.13559 0.13792 0.06202 0.0
C1098 C 0.1261 0.15783 0.04582 0.0
H1099 H 0.89289 0.82275 0.95299 0.0
H1100 H 0.88166 0.08279 0.9381 0.0
H1101 H 0.87914 0.1107 0.97912 0.0
H1102 H 0.87031 0.7989 0.00181 0.0
H1103 H 0.88123 0.73152 0.01727 0.0
H1104 H 0.88115 0.73045 0.9867 0.0
H1105 H 0.90534 0.76559 0.98655 0.0
H1106 H 0.90549 0.767 0.01703 0.0
H1107 H 0.91104 0.85865 0.0014 0.0
H1108 H 0.87913 0.1125 0.02231 0.0
H1109 H 0.88183 0.08817 0.06353 0.0
H1110 H 0.89312 0.82719 0.05042 0.0
C1111 C 0.88975 0.88522 0.95839 0.0
C1112 C 0.8875 0.95067 0.94233 0.0
C1113 C 0.88336 1.03152 0.95005 0.0
C1114 C 0.88191 0.04797 0.97335 0.0
C1115 C 0.88437 0.98242 0.98879 0.0
C1116 C 0.88803 0.90227 0.98159 0.0
C1117 C 0.89021 0.8432 0.00167 0.0
C1118 C 0.88013 0.77177 0.00187 0.0
C1119 C 0.90384 0.80652 0.00165 0.0
C1120 C 0.88815 0.90417 0.02128 0.0
C1121 C 0.88442 0.98356 0.01353 0.0
C1122 C 0.88196 0.05036 0.02851 0.0
C1123 C 0.8835 1.03594 0.05193 0.0
C1124 C 0.88771 0.9559 0.0602 0.0
C1125 C 0.88993 0.88913 0.04459 0.0
H1126 H 0.12762 0.82927 0.45505 0.0
H1127 H 0.15096 0.05138 0.44095 0.0
H1128 H 0.15439 0.07208 0.48216 0.0
H1129 H 0.11176 0.90838 0.50254 0.0
H1130 H 0.1118 0.80964 0.51821 0.0
H1131 H 0.1122 0.80798 0.48773 0.0
H1132 H 0.13288 0.71743 0.48885 0.0
H1133 H 0.13251 0.71829 0.5194 0.0
H1134 H 0.14652 0.75526 0.50465 0.0
H1135 H 0.154 0.07343 0.52571 0.0
H1136 H 0.14999 0.05465 0.56679 0.0
H1137 H 0.12677 0.83218 0.5523 0.0
C1138 C 0.13362 0.88154 0.46061 0.0
C1139 C 0.13902 0.93872 0.4447 0.0
C1140 C 0.14676 1.00647 0.45275 0.0
C1141 C 0.14875 1.01877 0.47617 0.0
C1142 C 0.14305 0.96224 0.49145 0.0
C1143 C 0.13574 0.8944 0.48392 0.0
C1144 C 0.13035 0.84413 0.50374 0.0
C1145 C 0.11566 0.8425 0.503 0.0
C1146 C 0.1359 0.7534 0.50418 0.0
C1147 C 0.13528 0.89615 0.52362 0.0
C1148 C 0.14277 0.96328 0.51624 0.0
C1149 C 0.14821 1.02068 0.53159 0.0
C1150 C 0.14589 1.00952 0.55494 0.0
C1151 C 0.13804 0.94206 0.56284 0.0
C1152 C 0.1328 0.88445 0.54685 0.0
H1153 H 0.89253 0.26544 0.55074 0.0
H1154 H 0.88169 1.00516 0.56602 0.0
H1155 H 0.87875 0.97684 0.52499 0.0
H1156 H 0.86931 0.28702 0.50191 0.0
H1157 H 0.88003 0.35559 0.48648 0.0
H1158 H 0.88004 0.35672 0.51704 0.0
H1159 H 0.90432 0.32458 0.51715 0.0
H1160 H 0.90436 0.32264 0.48668 0.0
H1161 H 0.91017 0.2319 0.50241 0.0
H1162 H 0.87872 0.97457 0.48146 0.0
H1163 H 0.88119 0.99925 0.44022 0.0
H1164 H 0.89195 0.2614 0.45334 0.0
C1165 C 0.8893 0.20296 0.54543 0.0
C1166 C 0.8873 0.13754 0.56162 0.0
C1167 C 0.88312 0.05655 0.55401 0.0
C1168 C 0.88147 1.03986 0.53068 0.0
C1169 C 0.88375 0.10536 0.51511 0.0
C1170 C 0.88734 0.18584 0.52225 0.0
C1171 C 0.88931 0.24498 0.50212 0.0
C1172 C 0.87907 0.31526 0.50188 0.0
C1173 C 0.90285 0.2832 0.5021 0.0
C1174 C 0.8873 0.18376 0.48251 0.0
C1175 C 0.88373 0.10406 0.4903 0.0
C1176 C 0.88139 1.03704 0.47527 0.0
C1177 C 0.8828 0.05165 0.45182 0.0
C1178 C 0.88677 0.13221 0.4435 0.0
C1179 C 0.88893 0.19907 0.45916 0.0
H1180 H 0.63735 0.51403 0.05048 0.0
H1181 H 0.63298 0.78286 0.06476 0.0
H1182 H 0.63533 0.81576 0.02394 0.0
H1183 H 0.66086 0.54499 0.00162 0.0
H1184 H 0.65416 0.45662 0.98613 0.0
H1185 H 0.65422 0.45541 0.0167 0.0
H1186 H 0.62974 0.43176 0.01659 0.0
H1187 H 0.62958 0.43347 0.98612 0.0
H1188 H 0.61958 0.5061 0.00171 0.0
H1189 H 0.63511 0.81793 0.98114 0.0
H1190 H 0.63273 0.78935 0.94009 0.0
H1191 H 0.63748 0.51927 0.95254 0.0
C1192 C 0.63742 0.57996 0.04503 0.0
C1193 C 0.63534 0.6463 0.06088 0.0
C1194 C 0.63493 0.73148 0.05302 0.0
C1195 C 0.63621 0.75065 0.02981 0.0
C1196 C 0.63799 0.68392 0.0145 0.0
C1197 C 0.6388 0.60024 0.0218 0.0
C1198 C 0.63991 0.54019 0.00161 0.0
C1199 C 0.65307 0.4967 0.00151 0.0
C1200 C 0.62905 0.47402 0.00151 0.0
C1201 C 0.63869 0.60235 0.98185 0.0
C1202 C 0.6379 0.68522 0.98971 0.0
C1203 C 0.63601 0.75348 0.97484 0.0
C1204 C 0.63471 0.73677 0.95151 0.0
C1205 C 0.63527 0.65254 0.94305 0.0
C1206 C 0.63741 0.58456 0.95846 0.0
H1207 H 0.41001 0.4446 0.9522 0.0
H1208 H 0.36941 0.45712 0.93816 0.0
H1209 H 0.36504 0.4641 0.97954 0.0
H1210 H 0.40931 0.31921 0.00194 0.0
H1211 H 0.42173 0.37824 0.01624 0.0
H1212 H 0.42139 0.37398 0.98576 0.0
H1213 H 0.42116 0.53907 0.98387 0.0
H1214 H 0.42155 0.54389 0.01437 0.0
H1215 H 0.40899 0.59707 0.9989 0.0
H1216 H 0.36548 0.46324 0.02389 0.0
H1217 H 0.37074 0.46451 0.06506 0.0
H1218 H 0.41108 0.46141 0.04873 0.0
C1219 C 0.40019 0.44876 0.95783 0.0
C1220 C 0.39003 0.44944 0.942 0.0
C1221 C 0.37733 0.45648 0.95003 0.0
C1222 C 0.37477 0.46028 0.97352 0.0
C1223 C 0.38505 0.45908 0.98876 0.0
C1224 C 0.39752 0.45495 0.98108 0.0
C1225 C 0.40695 0.458 1.0006 0.0
C1226 C 0.41534 0.37755 0.00116 0.0
C1227 C 0.41515 0.53933 0.99936 0.0
C1228 C 0.39793 0.461 0.0206 0.0
C1229 C 0.38531 0.46194 0.0136 0.0
C1230 C 0.37535 0.46328 0.02941 0.0
C1231 C 0.37841 0.46393 0.05279 0.0
C1232 C 0.39131 0.46334 0.06017 0.0
C1233 C 0.40111 0.46214 0.04371 0.0
H1234 H 0.62674 0.33563 0.45314 0.0
H1235 H 0.64933 0.56114 0.43905 0.0
H1236 H 0.65279 0.58186 0.48027 0.0
H1237 H 0.6108 0.41232 0.50125 0.0
H1238 H 0.61121 0.31295 0.51663 0.0
H1239 H 0.6114 0.31262 0.48613 0.0
H1240 H 0.6323 0.22427 0.48659 0.0
H1241 H 0.63217 0.2241 0.51714 0.0
H1242 H 0.64596 0.26315 0.50215 0.0
H1243 H 0.65276 0.58144 0.52388 0.0
H1244 H 0.64912 0.56054 0.56501 0.0
H1245 H 0.6264 0.33592 0.55044 0.0
C1246 C 0.63253 0.38892 0.4587 0.0
C1247 C 0.63775 0.44688 0.44278 0.0
C1248 C 0.64525 0.51578 0.45085 0.0
C1249 C 0.64727 0.52801 0.47428 0.0
C1250 C 0.64181 0.47039 0.48955 0.0
C1251 C 0.63467 0.40179 0.48201 0.0
C1252 C 0.62956 0.35018 0.50183 0.0
C1253 C 0.61487 0.34688 0.50143 0.0
C1254 C 0.63534 0.26008 0.50193 0.0
C1255 C 0.6345 0.40207 0.52174 0.0
C1256 C 0.64173 0.47045 0.51436 0.0
C1257 C 0.64716 0.52779 0.52975 0.0
C1258 C 0.64505 0.51541 0.55313 0.0
C1259 C 0.63744 0.44676 0.56103 0.0
C1260 C 0.63224 0.38912 0.545 0.0
H1261 H 0.39273 0.76435 0.55005 0.0
H1262 H 0.38199 0.50342 0.56489 0.0
H1263 H 0.37947 0.47519 0.52382 0.0
H1264 H 0.36991 0.78595 0.50129 0.0
H1265 H 0.38058 0.85472 0.48583 0.0
H1266 H 0.38069 0.8554 0.5164 0.0
H1267 H 0.40495 0.8229 0.51636 0.0
H1268 H 0.40492 0.82183 0.48588 0.0
H1269 H 0.41076 0.73065 0.50139 0.0
H1270 H 0.37932 0.47371 0.48032 0.0
H1271 H 0.38154 0.49932 0.43906 0.0
H1272 H 0.39229 0.76131 0.45243 0.0
C1273 C 0.3897 0.70158 0.54463 0.0
C1274 C 0.38756 0.63608 0.56076 0.0
C1275 C 0.38358 0.55485 0.55295 0.0
C1276 C 0.38215 0.53819 0.5296 0.0
C1277 C 0.38446 0.60386 0.51411 0.0
C1278 C 0.38797 0.68436 0.52136 0.0
C1279 C 0.3899 0.74382 0.50128 0.0
C1280 C 0.37967 0.81416 0.5012 0.0
C1281 C 0.40344 0.78198 0.50123 0.0
C1282 C 0.38785 0.68295 0.48157 0.0
C1283 C 0.38438 0.60299 0.48929 0.0
C1284 C 0.38195 0.53632 0.47418 0.0
C1285 C 0.3832 0.55148 0.45071 0.0
C1286 C 0.38709 0.63227 0.44244 0.0
C1287 C 0.38933 0.6988 0.4582 0.0
H1288 H 0.98508 0.07565 0.15584 0.0
H1289 H 0.9793 0.95045 0.091 0.0
H1290 H 1.00255 0.94936 0.08483 0.0
H1291 H 1.01132 0.20875 0.13895 0.0
H1292 H 0.01987 0.19803 0.16538 0.0
H1293 H 1.0027 0.18933 0.16486 0.0
H1294 H 1.00416 1.04112 0.18404 0.0
H1295 H 0.02133 0.04936 0.18462 0.0
H1296 H 0.01378 0.95905 0.17128 0.0
H1297 H 0.02647 0.96037 0.08557 0.0
H1298 H 0.04938 0.98475 0.09297 0.0
H1299 H 0.03995 0.10335 0.15724 0.0
C1300 C 0.98869 0.0477 0.14037 0.0
C1301 C 0.98023 1.01404 0.12379 0.0
C1302 C 0.98545 0.97854 0.10375 0.0
C1303 C 0.9987 0.97682 0.10017 0.0
C1304 C 1.00672 1.01055 0.11678 0.0
C1305 C 1.00194 0.04533 0.1365 0.0
C1306 C 0.01271 0.07754 0.15157 0.0
C1307 C 1.01158 0.17415 0.15541 0.0
C1308 C 0.01301 1.02884 0.17421 0.0
C1309 C 0.02426 0.05599 0.13713 0.0
C1310 C 0.02056 1.01702 0.11718 0.0
C1311 C 0.02947 0.99119 0.10109 0.0
C1312 C 0.0425 1.00591 0.1054 0.0
C1313 C 0.04659 0.04645 0.12563 0.0
C1314 C 0.03725 0.07139 0.1417 0.0
H1315 H 0.98472 0.0691 0.39972 0.0
H1316 H 0.97596 1.02388 0.32871 0.0
H1317 H 0.99881 1.00369 0.32089 0.0
H1318 H 0.01369 0.18951 0.38982 0.0
H1319 H 0.02203 0.14582 0.41396 0.0
H1320 H 1.00487 0.15466 0.41434 0.0
H1321 H 1.00307 0.99323 0.42303 0.0
H1322 H 0.02023 0.98392 0.42255 0.0
H1323 H 1.01058 0.91762 0.40435 0.0
H1324 H 0.02231 0.98504 0.32053 0.0
H1325 H 0.0454 0.97507 0.32719 0.0
H1326 H 0.03967 0.04318 0.39786 0.0
C1327 C 0.98761 0.05511 0.38252 0.0
C1328 C 0.97843 0.04658 0.36492 0.0
C1329 C 0.98268 1.02826 0.34265 0.0
C1330 C 0.99568 1.0174 0.33797 0.0
C1331 C 1.00442 1.02554 0.35566 0.0
C1332 C 1.00062 0.04442 0.37748 0.0
C1333 C 1.01211 0.05069 0.39323 0.0
C1334 C 0.01324 0.14053 0.40343 0.0
C1335 C 1.01146 0.98229 0.41189 0.0
C1336 C 0.0229 1.03275 0.37677 0.0
C1337 C 0.01819 1.01786 0.35526 0.0
C1338 C 0.02615 0.99772 0.33723 0.0
C1339 C 0.03933 0.99309 0.34119 0.0
C1340 C 0.04456 1.00985 0.36298 0.0
C1341 C 0.03611 1.02963 0.381 0.0
H1342 H 0.04053 1.0417 0.89562 0.0
H1343 H 0.04567 0.09974 0.82425 0.0
H1344 H 0.02238 0.09633 0.81855 0.0
H1345 H 0.01408 0.89588 0.88775 0.0
H1346 H 1.00562 0.92942 0.91276 0.0
H1347 H 0.02279 0.93738 0.91173 0.0
H1348 H 0.02142 0.09829 0.92105 0.0
H1349 H 1.00425 0.09079 0.92216 0.0
H1350 H 1.01172 0.16691 0.90351 0.0
H1351 H 0.99887 0.08534 0.81994 0.0
H1352 H 0.97608 0.06595 0.8283 0.0
H1353 H 0.98537 1.01731 0.89899 0.0
C1354 C 0.03672 0.05391 0.87884 0.0
C1355 C 0.04495 0.07003 0.8603 0.0
C1356 C 0.03959 0.08555 0.8386 0.0
C1357 C 0.02636 0.08436 0.8352 0.0
C1358 C 0.01853 0.06756 0.85367 0.0
C1359 C 0.02343 0.05242 0.87508 0.0
C1360 C 0.01273 1.03452 0.89181 0.0
C1361 C 0.01388 0.94392 0.90158 0.0
C1362 C 1.01252 0.10166 0.91075 0.0
C1363 C 1.00111 1.04264 0.87641 0.0
C1364 C 1.00474 0.06174 0.85451 0.0
C1365 C 0.99587 0.07123 0.83708 0.0
C1366 C 0.9829 0.06086 0.84208 0.0
C1367 C 0.97881 1.04148 0.8644 0.0
C1368 C 0.98813 1.03218 0.88177 0.0
H1369 H 0.98649 0.06769 0.65593 0.0
H1370 H 0.97873 1.03523 0.58402 0.0
H1371 H 1.00174 1.02002 0.57694 0.0
H1372 H 0.0157 0.1841 0.65094 0.0
H1373 H 0.02361 0.13118 0.67421 0.0
H1374 H 1.00646 0.14121 0.67404 0.0
H1375 H 1.00414 0.97778 0.67828 0.0
H1376 H 0.02128 0.96729 0.67868 0.0
H1377 H 1.01193 0.90856 0.65827 0.0
H1378 H 0.0255 1.01535 0.57698 0.0
H1379 H 0.04856 1.00629 0.58451 0.0
H1380 H 0.04129 1.02673 0.65682 0.0
C1381 C 0.98957 0.05628 0.63871 0.0
C1382 C 0.98064 0.05426 0.62049 0.0
C1383 C 0.98526 1.03972 0.59824 0.0
C1384 C 0.99835 1.03032 0.59402 0.0
C1385 C 1.00683 1.03423 0.61222 0.0
C1386 C 1.00266 0.04549 0.63418 0.0
C1387 C 0.01387 0.04484 0.65068 0.0
C1388 C 0.01497 0.13044 0.6632 0.0
C1389 C 0.01274 0.97016 0.66746 0.0
C1390 C 0.02497 1.03209 0.63445 0.0
C1391 C 0.02064 1.02695 0.61237 0.0
C1392 C 0.029 1.01773 0.59425 0.0
C1393 C 0.04213 1.01199 0.59877 0.0
C1394 C 0.04691 1.01406 0.62131 0.0
C1395 C 0.0381 1.02518 0.63935 0.0
H1396 H 0.48423 0.56517 0.1599 0.0
H1397 H 0.47787 0.44891 0.09404 0.0
H1398 H 0.50097 0.45717 0.08629 0.0
H1399 H 0.50946 0.70827 0.14343 0.0
H1400 H 0.51842 0.69418 0.16932 0.0
H1401 H 0.5013 0.6821 0.16939 0.0
H1402 H 0.5037 0.53072 0.18645 0.0
H1403 H 0.52083 0.5423 0.18639 0.0
H1404 H 0.51348 0.45325 0.17213 0.0
H1405 H 0.525 0.47454 0.086 0.0
H1406 H 0.54793 0.50032 0.09317 0.0
H1407 H 0.53874 0.60352 0.15939 0.0
C1408 C 0.48764 0.54097 0.14386 0.0
C1409 C 0.47906 0.5068 0.12755 0.0
C1410 C 0.48408 0.47703 0.10669 0.0
C1411 C 0.49725 0.48074 0.10218 0.0
C1412 C 0.50539 0.51409 0.11869 0.0
C1413 C 0.50078 0.54367 0.13912 0.0
C1414 C 0.5116 0.57514 0.15416 0.0
C1415 C 0.5101 0.6706 0.15937 0.0
C1416 C 0.51245 0.52218 0.17608 0.0
C1417 C 0.52301 0.55887 0.13896 0.0
C1418 C 0.51922 0.52361 0.11858 0.0
C1419 C 0.52806 0.50255 0.10187 0.0
C1420 C 0.54109 0.51799 0.10606 0.0
C1421 C 0.54525 0.5543 0.12682 0.0
C1422 C 0.53598 0.57483 0.14343 0.0
H1423 H 0.48527 0.56083 0.39949 0.0
H1424 H 0.47735 0.53964 0.32738 0.0
H1425 H 0.50033 0.52517 0.31989 0.0
H1426 H 0.51405 0.68695 0.39356 0.0
H1427 H 0.52228 0.63601 0.4168 0.0
H1428 H 0.50509 0.64285 0.41685 0.0
H1429 H 0.5036 0.47902 0.42148 0.0
H1430 H 0.52079 0.47166 0.42137 0.0
H1431 H 0.51149 0.41097 0.4013 0.0
H1432 H 0.52399 0.51455 0.3197 0.0
H1433 H 0.54713 0.5071 0.32686 0.0
H1434 H 0.54045 0.53847 0.39898 0.0
C1435 C 0.48836 0.55318 0.38212 0.0
C1436 C 0.47937 0.55013 0.36407 0.0
C1437 C 0.48391 0.53993 0.34161 0.0
C1438 C 0.497 0.53243 0.33712 0.0
C1439 C 0.50555 0.5355 0.35523 0.0
C1440 C 0.50147 0.54561 0.37729 0.0
C1441 C 0.5128 0.54741 0.39353 0.0
C1442 C 0.5136 0.63343 0.40591 0.0
C1443 C 0.51213 0.47281 0.41042 0.0
C1444 C 0.52384 0.53661 0.37709 0.0
C1445 C 0.51938 0.53013 0.3551 0.0
C1446 C 0.52762 0.52007 0.33684 0.0
C1447 C 0.54078 0.51663 0.34109 0.0
C1448 C 0.5457 0.52339 0.36345 0.0
C1449 C 0.53704 0.53306 0.3817 0.0
H1450 H 0.48537 0.49414 0.8449 0.0
H1451 H 0.47663 0.58753 0.91235 0.0
H1452 H 0.4996 0.61113 0.91943 0.0
H1453 H 0.51444 0.38544 0.85914 0.0
H1454 H 0.52259 0.41518 0.83344 0.0
H1455 H 0.50544 0.40505 0.83355 0.0
H1456 H 0.50329 0.5594 0.81844 0.0
H1457 H 0.52044 0.56995 0.81825 0.0
H1458 H 0.51084 0.64546 0.83365 0.0
H1459 H 0.52354 0.62675 0.91918 0.0
H1460 H 0.54663 0.63403 0.91156 0.0
H1461 H 0.54007 0.52841 0.84447 0.0
C1462 C 0.48824 0.52035 0.8611 0.0
C1463 C 0.47907 0.53851 0.8781 0.0
C1464 C 0.48338 0.57163 0.89915 0.0
C1465 C 0.49643 0.58583 0.9033 0.0
C1466 C 0.50517 0.56693 0.88626 0.0
C1467 C 0.50126 0.53509 0.86555 0.0
C1468 C 0.51265 0.52053 0.85009 0.0
C1469 C 0.51385 0.42591 0.84369 0.0
C1470 C 0.51175 0.57722 0.82885 0.0
C1471 C 0.52355 0.54856 0.86544 0.0
C1472 C 0.51901 0.57536 0.88618 0.0
C1473 C 0.52721 0.60532 0.90304 0.0
C1474 C 0.54039 0.60841 0.89859 0.0
C1475 C 0.54537 0.58121 0.87746 0.0
C1476 C 0.53671 0.55054 0.86075 0.0
H1477 H 0.48575 0.56777 0.6554 0.0
H1478 H 0.47811 0.54055 0.58329 0.0
H1479 H 0.50111 0.52586 0.57623 0.0
H1480 H 0.51503 0.68449 0.65111 0.0
H1481 H 0.52294 0.6298 0.67409 0.0
H1482 H 0.50579 0.63981 0.67398 0.0
H1483 H 0.50347 0.47612 0.67733 0.0
H1484 H 0.52062 0.46564 0.67766 0.0
H1485 H 0.51126 0.40846 0.65695 0.0
H1486 H 0.5248 0.52157 0.57624 0.0
H1487 H 0.54785 0.51189 0.58365 0.0
H1488 H 0.54067 0.52669 0.65608 0.0
C1489 C 0.48886 0.55766 0.63814 0.0
C1490 C 0.47996 0.55713 0.61986 0.0
C1491 C 0.48461 0.54405 0.59757 0.0
C1492 C 0.49771 0.53495 0.59336 0.0
C1493 C 0.50616 0.53758 0.6116 0.0
C1494 C 0.50197 0.54717 0.6336 0.0
C1495 C 0.5132 0.54529 0.65009 0.0
C1496 C 0.5143 0.62989 0.66308 0.0
C1497 C 0.51207 0.46934 0.66647 0.0
C1498 C 0.52431 0.53379 0.6338 0.0
C1499 C 0.51997 0.53034 0.6117 0.0
C1500 C 0.52832 0.52258 0.59351 0.0
C1501 C 0.54145 0.51646 0.59796 0.0
C1502 C 0.54625 0.51667 0.62049 0.0
C1503 C 0.53745 0.52647 0.63863 0.0
H1504 H 0.13857 0.81417 0.09691 0.0
H1505 H 0.13918 0.87091 0.16877 0.0
H1506 H 0.13983 0.71692 0.17753 0.0
H1507 H 0.11753 0.62781 0.10328 0.0
H1508 H 0.12495 0.5683 0.0808 0.0
H1509 H 0.12485 0.68314 0.0799 0.0
H1510 H 0.14947 0.68428 0.07632 0.0
H1511 H 0.14965 0.56952 0.07719 0.0
H1512 H 0.15905 0.62967 0.09725 0.0
H1513 H 0.1399 0.55741 0.1789 0.0
H1514 H 0.1396 0.40148 0.17275 0.0
H1515 H 0.13906 0.44218 0.1001 0.0
C1516 C 0.13895 0.79376 0.11444 0.0
C1517 C 0.13894 0.85456 0.13223 0.0
C1518 C 0.13918 0.82551 0.15494 0.0
C1519 C 0.13956 0.7381 0.16007 0.0
C1520 C 0.13947 0.67958 0.1423 0.0
C1521 C 0.13907 0.70584 0.11991 0.0
C1522 C 0.1385 0.62871 0.10421 0.0
C1523 C 0.1257 0.6269 0.09128 0.0
C1524 C 0.14985 0.62803 0.08778 0.0
C1525 C 0.13928 0.55541 0.12121 0.0
C1526 C 0.13958 0.58668 0.1431 0.0
C1527 C 0.13975 0.53225 0.16183 0.0
C1528 C 0.13959 0.4437 0.15821 0.0
C1529 C 0.13952 0.40961 0.13604 0.0
C1530 C 0.13938 0.46645 0.11726 0.0
H1531 H 0.90457 0.27559 0.11479 0.0
H1532 H 0.86705 0.22072 0.14238 0.0
H1533 H 0.86325 0.37376 0.14799 0.0
H1534 H 0.91242 0.4567 0.15067 0.0
H1535 H 0.91965 0.51855 0.12834 0.0
H1536 H 0.91983 0.40382 0.12701 0.0
H1537 H 0.90897 0.40929 0.08759 0.0
H1538 H 0.90874 0.52406 0.08879 0.0
H1539 H 0.8941 0.46587 0.08422 0.0
H1540 H 0.86278 0.53032 0.1495 0.0
H1541 H 0.86581 0.68581 0.1473 0.0
H1542 H 0.90364 0.64793 0.11913 0.0
C1543 C 0.89564 0.29619 0.12221 0.0
C1544 C 0.88609 0.23603 0.12819 0.0
C1545 C 0.87445 0.26547 0.13752 0.0
C1546 C 0.87221 0.35241 0.14085 0.0
C1547 C 0.88164 0.41023 0.13455 0.0
C1548 C 0.89311 0.384 0.12534 0.0
C1549 C 0.90127 0.46126 0.11919 0.0
C1550 C 0.91405 0.46 0.13208 0.0
C1551 C 0.9034 0.46535 0.09342 0.0
C1552 C 0.89273 0.5342 0.1271 0.0
C1553 C 0.88139 0.50255 0.1356 0.0
C1554 C 0.87164 0.55603 0.14302 0.0
C1555 C 0.87345 0.64439 0.14168 0.0
C1556 C 0.88498 0.67924 0.1333 0.0
C1557 C 0.89481 0.62315 0.12603 0.0
H1558 H 0.14516 0.27151 0.40589 0.0
H1559 H 0.13293 0.21817 0.33709 0.0
H1560 H 0.13175 0.37258 0.32911 0.0
H1561 H 0.12369 0.45518 0.41212 0.0
H1562 H 0.13459 0.51464 0.42975 0.0
H1563 H 0.13489 0.39976 0.43012 0.0
H1564 H 0.15893 0.40171 0.42013 0.0
H1565 H 0.15873 0.5165 0.41976 0.0
H1566 H 0.16423 0.45857 0.39529 0.0
H1567 H 0.13121 0.53208 0.32856 0.0
H1568 H 0.13177 0.68755 0.33527 0.0
H1569 H 0.14449 0.64347 0.40428 0.0
C1570 C 0.14239 0.29273 0.3891 0.0
C1571 C 0.13928 0.23273 0.37196 0.0
C1572 C 0.13538 0.26288 0.3504 0.0
C1573 C 0.13468 0.35056 0.34572 0.0
C1574 C 0.13768 0.40821 0.36291 0.0
C1575 C 0.14138 0.38087 0.38424 0.0
C1576 C 0.14346 0.45714 0.39985 0.0
C1577 C 0.13357 0.45664 0.4191 0.0
C1578 C 0.15716 0.45855 0.4093 0.0
C1579 C 0.14105 0.53132 0.38362 0.0
C1580 C 0.13745 0.50112 0.36254 0.0
C1581 C 0.1341 0.55641 0.34495 0.0
C1582 C 0.13444 0.64472 0.3489 0.0
C1583 C 0.13834 0.67783 0.37012 0.0
C1584 C 0.14172 0.62008 0.38772 0.0
H1585 H 0.87234 0.43996 0.39453 0.0
H1586 H 0.89997 0.4008 0.34072 0.0
H1587 H 0.90316 0.55484 0.33764 0.0
H1588 H 0.85808 0.63441 0.37149 0.0
H1589 H 0.85656 0.68695 0.39851 0.0
H1590 H 0.85607 0.57228 0.39698 0.0
H1591 H 0.87466 0.56294 0.42596 0.0
H1592 H 0.87518 0.67763 0.42754 0.0
H1593 H 0.88937 0.61882 0.4203 0.0
H1594 H 0.90474 0.70917 0.34116 0.0
H1595 H 0.90317 0.862 0.34887 0.0
H1596 H 0.87358 0.8134 0.39874 0.0
C1597 C 0.87888 0.46414 0.38187 0.0
C1598 C 0.88586 0.4074 0.3678 0.0
C1599 C 0.89451 0.44201 0.35176 0.0
C1600 C 0.89643 0.52985 0.34985 0.0
C1601 C 0.88964 0.5837 0.36407 0.0
C1602 C 0.88097 0.55306 0.3797 0.0
C1603 C 0.87517 0.62715 0.39295 0.0
C1604 C 0.8606 0.63038 0.38978 0.0
C1605 C 0.87881 0.62124 0.41818 0.0
C1606 C 0.88171 0.70341 0.38176 0.0
C1607 C 0.89021 0.67572 0.36552 0.0
C1608 C 0.89799 0.7319 0.35362 0.0
C1609 C 0.89702 0.81901 0.35818 0.0
C1610 C 0.88812 0.85052 0.37416 0.0
C1611 C 0.88034 0.79157 0.38617 0.0
H1612 H 0.87709 0.26565 0.90117 0.0
H1613 H 0.89965 0.21537 0.84108 0.0
H1614 H 0.9007 0.36914 0.83304 0.0
H1615 H 0.85892 0.44462 0.87994 0.0
H1616 H 0.85987 0.50589 0.90572 0.0
H1617 H 0.86051 0.3912 0.90689 0.0
H1618 H 0.88197 0.39914 0.92864 0.0
H1619 H 0.88141 0.5139 0.92757 0.0
H1620 H 0.89511 0.45806 0.91663 0.0
H1621 H 0.89963 0.5256 0.8311 0.0
H1622 H 0.89722 0.68018 0.83594 0.0
H1623 H 0.87568 0.63825 0.89772 0.0
C1624 C 0.8822 0.2874 0.88632 0.0
C1625 C 0.88831 0.22829 0.87173 0.0
C1626 C 0.89502 0.25921 0.85261 0.0
C1627 C 0.89562 0.34657 0.84782 0.0
C1628 C 0.88961 0.40319 0.86248 0.0
C1629 C 0.88314 0.3755 0.8815 0.0
C1630 C 0.8781 0.4516 0.89486 0.0
C1631 C 0.86347 0.44808 0.89697 0.0
C1632 C 0.88453 0.45593 0.91832 0.0
C1633 C 0.88235 0.52576 0.87988 0.0
C1634 C 0.88906 0.49551 0.86143 0.0
C1635 C 0.89436 0.55012 0.84542 0.0
C1636 C 0.89292 0.63809 0.84833 0.0
C1637 C 0.88615 0.67183 0.86704 0.0
C1638 C 0.88067 0.61455 0.88298 0.0
H1639 H 0.12474 0.44264 0.894 0.0
H1640 H 0.15507 0.40058 0.84542 0.0
H1641 H 0.15775 0.55601 0.84096 0.0
H1642 H 0.11082 0.63326 0.86871 0.0
H1643 H 0.10827 0.6868 0.89533 0.0
H1644 H 0.10817 0.57206 0.89418 0.0
H1645 H 0.12577 0.56674 0.92505 0.0
H1646 H 0.12594 0.68152 0.92625 0.0
H1647 H 0.1405 0.62406 0.92071 0.0
H1648 H 0.15806 0.71452 0.84277 0.0
H1649 H 0.15554 0.86851 0.85 0.0
H1650 H 0.1249 0.815 0.89722 0.0
C1651 C 0.13178 0.46651 0.88217 0.0
C1652 C 0.13961 0.40926 0.86978 0.0
C1653 C 0.14895 0.44299 0.85496 0.0
C1654 C 0.15055 0.5313 0.85233 0.0
C1655 C 0.14286 0.58607 0.86492 0.0
C1656 C 0.13367 0.55542 0.87962 0.0
C1657 C 0.12721 0.62932 0.89191 0.0
C1658 C 0.11276 0.6304 0.88724 0.0
C1659 C 0.13002 0.62513 0.9175 0.0
C1660 C 0.13386 0.70588 0.88115 0.0
C1661 C 0.14301 0.67882 0.86591 0.0
C1662 C 0.15088 0.73642 0.85457 0.0
C1663 C 0.14942 0.82384 0.85884 0.0
C1664 C 0.14002 0.85389 0.87406 0.0
C1665 C 0.13207 0.79393 0.88528 0.0
H1666 H 0.87018 0.82399 0.63753 0.0
H1667 H 0.90864 0.86337 0.61201 0.0
H1668 H 0.91189 0.70878 0.61047 0.0
H1669 H 0.87847 0.64236 0.67299 0.0
H1670 H 0.86381 0.58502 0.66788 0.0
H1671 H 0.86399 0.6998 0.66653 0.0
H1672 H 0.85472 0.6945 0.6259 0.0
H1673 H 0.85448 0.57972 0.62707 0.0
H1674 H 0.86281 0.63331 0.60446 0.0
H1675 H 0.91182 0.55271 0.61301 0.0
H1676 H 0.9081 0.39927 0.61809 0.0
H1677 H 0.86948 0.45055 0.64099 0.0
C1678 C 0.87921 0.79982 0.63139 0.0
C1679 C 0.88916 0.85664 0.6249 0.0
C1680 C 0.90089 0.82203 0.61726 0.0
C1681 C 0.90285 0.73389 0.61625 0.0
C1682 C 0.89302 0.67986 0.62303 0.0
C1683 C 0.88141 0.71081 0.63043 0.0
C1684 C 0.87269 0.63693 0.63725 0.0
C1685 C 0.86955 0.64131 0.66267 0.0
C1686 C 0.86045 0.63608 0.6228 0.0
C1687 C 0.88117 0.56018 0.63206 0.0
C1688 C 0.8929 0.58745 0.62415 0.0
C1689 C 0.90266 0.53046 0.61907 0.0
C1690 C 0.90045 0.44319 0.62213 0.0
C1691 C 0.88852 0.41236 0.62993 0.0
C1692 C 0.87867 0.47195 0.6348 0.0
H1693 H 0.12629 0.26221 0.6507 0.0
H1694 H 0.15264 0.22148 0.59503 0.0
H1695 H 0.1553 0.37582 0.59072 0.0
H1696 H 0.11113 0.45517 0.62775 0.0
H1697 H 0.11015 0.50852 0.65473 0.0
H1698 H 0.10975 0.39377 0.65348 0.0
H1699 H 0.12892 0.38596 0.68119 0.0
H1700 H 0.12939 0.50068 0.68254 0.0
H1701 H 0.14346 0.44214 0.67445 0.0
H1702 H 0.15617 0.53084 0.59271 0.0
H1703 H 0.15464 0.68404 0.59996 0.0
H1704 H 0.12748 0.63585 0.65408 0.0
C1705 C 0.13242 0.28617 0.63737 0.0
C1706 C 0.13921 0.22918 0.6231 0.0
C1707 C 0.14735 0.26322 0.6062 0.0
C1708 C 0.14894 0.35113 0.60358 0.0
C1709 C 0.14235 0.40544 0.618 0.0
C1710 C 0.13422 0.37507 0.63456 0.0
C1711 C 0.12869 0.4494 0.64806 0.0
C1712 C 0.11406 0.45186 0.64587 0.0
C1713 C 0.13286 0.44421 0.67304 0.0
C1714 C 0.13489 0.52559 0.63619 0.0
C1715 C 0.1428 0.49762 0.61907 0.0
C1716 C 0.14996 0.55376 0.60599 0.0
C1717 C 0.14905 0.64109 0.61037 0.0
C1718 C 0.14096 0.67289 0.62762 0.0
C1719 C 0.1337 0.61392 0.64068 0.0
H1720 H 0.62644 0.94616 0.15199 0.0
H1721 H 0.65117 0.89605 0.09455 0.0
H1722 H 0.65339 0.04944 0.08781 0.0
H1723 H 0.61017 0.1325 0.12841 0.0
H1724 H 0.61009 0.1919 0.15454 0.0
H1725 H 0.60999 0.07705 0.1552 0.0
H1726 H 0.63021 0.0782 0.18053 0.0
H1727 H 0.63038 0.19307 0.17987 0.0
H1728 H 0.64427 0.13414 0.17106 0.0
H1729 H 0.65384 0.20587 0.08717 0.0
H1730 H 0.65194 0.3608 0.09218 0.0
H1731 H 0.62675 0.32053 0.14954 0.0
C1732 C 0.63219 0.96773 0.13788 0.0
C1733 C 0.63864 0.90803 0.12381 0.0
C1734 C 0.64621 0.93954 0.10573 0.0
C1735 C 0.64753 1.02701 0.10168 0.0
C1736 C 0.64128 0.08394 0.11586 0.0
C1737 C 0.63376 0.05634 0.13364 0.0
C1738 C 0.62849 0.13327 0.1465 0.0
C1739 C 0.61381 0.13368 0.14613 0.0
C1740 C 0.63364 0.13473 0.17094 0.0
C1741 C 0.63395 0.20739 0.13269 0.0
C1742 C 0.64144 0.17657 0.11532 0.0
C1743 C 0.64794 0.23089 0.10063 0.0
C1744 C 0.64681 0.31915 0.10366 0.0
C1745 C 0.63912 0.35357 0.12109 0.0
C1746 C 0.63254 0.29647 0.13579 0.0
H1747 H 0.40352 0.77047 0.11381 0.0
H1748 H 0.36605 0.71439 0.14131 0.0
H1749 H 0.36234 0.86763 0.1476 0.0
H1750 H 0.41164 0.94961 0.14979 0.0
H1751 H 0.41876 1.01236 0.12752 0.0
H1752 H 0.41885 0.89771 0.12577 0.0
H1753 H 0.4077 0.90543 0.08664 0.0
H1754 H 0.40759 1.02014 0.08824 0.0
H1755 H 0.39286 0.96277 0.0838 0.0
H1756 H 0.36229 1.025 0.15074 0.0
H1757 H 0.36544 0.18016 0.14927 0.0
H1758 H 0.40274 0.1431 0.11881 0.0
C1759 C 0.39458 0.79085 0.12123 0.0
C1760 C 0.38505 0.73026 0.1271 0.0
C1761 C 0.37343 0.75945 0.13651 0.0
C1762 C 0.37125 0.84649 0.14025 0.0
C1763 C 0.38071 0.9047 0.13416 0.0
C1764 C 0.3921 0.87868 0.12462 0.0
C1765 C 0.40027 0.95615 0.11858 0.0
C1766 C 0.41314 0.95379 0.13118 0.0
C1767 C 0.40222 0.96143 0.09278 0.0
C1768 C 0.39186 1.02918 0.12694 0.0
C1769 C 0.3806 0.99727 0.1357 0.0
C1770 C 0.37107 0.05077 0.14392 0.0
C1771 C 0.37296 0.13922 0.14299 0.0
C1772 C 0.38435 0.17473 0.13404 0.0
C1773 C 0.394 0.11838 0.12607 0.0
H1774 H 0.6494 0.14249 0.3982 0.0
H1775 H 0.62852 0.18262 0.33539 0.0
H1776 H 0.6263 1.02773 0.33059 0.0
H1777 H 0.66647 0.95009 0.38169 0.0
H1778 H 0.66461 0.89723 0.40864 0.0
H1779 H 0.66507 1.01194 0.4073 0.0
H1780 H 0.64329 1.0194 0.42784 0.0
H1781 H 0.64278 0.90468 0.42924 0.0
H1782 H 0.62978 0.96247 0.41632 0.0
H1783 H 0.6254 0.8711 0.33261 0.0
H1784 H 0.62642 0.71763 0.34093 0.0
H1785 H 0.64809 0.76986 0.40223 0.0
C1786 C 0.64459 0.11832 0.38326 0.0
C1787 C 0.63927 0.17514 0.36698 0.0
C1788 C 0.63272 0.14085 0.34802 0.0
C1789 C 0.63139 0.05272 0.34513 0.0
C1790 C 0.63654 0.99855 0.36146 0.0
C1791 C 0.643 1.0294 0.38022 0.0
C1792 C 0.64709 0.95563 0.39553 0.0
C1793 C 0.66168 0.95361 0.39845 0.0
C1794 C 0.64034 0.9609 0.4186 0.0
C1795 C 0.64229 0.87908 0.382 0.0
C1796 C 0.63606 0.90618 0.3626 0.0
C1797 C 0.63029 0.84903 0.3477 0.0
C1798 C 0.63087 0.7618 0.35266 0.0
C1799 C 0.6373 0.73143 0.37222 0.0
C1800 C 0.64319 0.79108 0.38704 0.0
H1801 H 0.40161 0.94318 0.35623 0.0
H1802 H 0.36741 0.89833 0.39625 0.0
H1803 H 0.36519 0.05147 0.40244 0.0
H1804 H 0.41386 0.12168 0.38931 0.0
H1805 H 0.41921 0.18277 0.36524 0.0
H1806 H 0.41868 0.06807 0.36371 0.0
H1807 H 0.4043 0.07761 0.32803 0.0
H1808 H 0.4048 0.19231 0.32946 0.0
H1809 H 0.38964 0.13774 0.32919 0.0
H1810 H 0.36635 0.20449 0.40561 0.0
H1811 H 0.36987 0.35775 0.40339 0.0
H1812 H 0.40288 0.31714 0.3601 0.0
C1813 C 0.39367 0.96586 0.36628 0.0
C1814 C 0.38468 0.90778 0.37575 0.0
C1815 C 0.37441 0.94048 0.38868 0.0
C1816 C 0.37307 1.02781 0.39243 0.0
C1817 C 0.38201 0.08294 0.38304 0.0
C1818 C 0.39206 0.05427 0.37004 0.0
C1819 C 0.39995 0.1299 0.36153 0.0
C1820 C 0.41375 0.12528 0.37048 0.0
C1821 C 0.39965 0.13466 0.33551 0.0
C1822 C 0.39277 0.20463 0.37206 0.0
C1823 C 0.38251 0.17473 0.38444 0.0
C1824 C 0.37431 0.22894 0.3959 0.0
C1825 C 0.37643 0.31646 0.39447 0.0
C1826 C 0.38664 0.35051 0.38149 0.0
C1827 C 0.39506 0.29341 0.3703 0.0
H1828 H 0.39849 0.76496 0.85197 0.0
H1829 H 0.37524 0.72554 0.91195 0.0
H1830 H 0.37293 0.88 0.91636 0.0
H1831 H 0.41504 0.95639 0.87141 0.0
H1832 H 0.41449 1.00996 0.84437 0.0
H1833 H 0.41472 0.89519 0.84557 0.0
H1834 H 0.39397 0.88922 0.82171 0.0
H1835 H 0.39367 1.004 0.8204 0.0
H1836 H 0.38005 0.94651 0.83115 0.0
H1837 H 0.37227 1.03518 0.91446 0.0
H1838 H 0.37378 0.18842 0.90703 0.0
H1839 H 0.39774 0.13904 0.84849 0.0
C1840 C 0.39308 0.78918 0.86618 0.0
C1841 C 0.38711 0.73241 0.88172 0.0
C1842 C 0.3799 0.76693 0.8998 0.0
C1843 C 0.37852 0.85496 0.90249 0.0
C1844 C 0.38434 0.90898 0.88691 0.0
C1845 C 0.39149 0.87819 0.86908 0.0
C1846 C 0.39635 0.95228 0.85459 0.0
C1847 C 0.41102 0.95352 0.85396 0.0
C1848 C 0.39067 0.94771 0.83053 0.0
C1849 C 0.39106 1.02891 0.86751 0.0
C1850 C 0.38404 1.00126 0.8859 0.0
C1851 C 0.37778 0.0578 0.90018 0.0
C1852 C 0.37867 0.14514 0.89571 0.0
C1853 C 0.38588 0.17664 0.87719 0.0
C1854 C 0.39224 0.11732 0.86291 0.0
H1855 H 0.62648 0.32192 0.85477 0.0
H1856 H 0.65159 0.36243 0.91248 0.0
H1857 H 0.65398 0.20751 0.91707 0.0
H1858 H 0.61042 0.13175 0.87529 0.0
H1859 H 0.61031 0.07777 0.84834 0.0
H1860 H 0.61021 0.19254 0.84933 0.0
H1861 H 0.6304 0.19739 0.82426 0.0
H1862 H 0.63055 0.0826 0.82312 0.0
H1863 H 0.64447 0.13953 0.83294 0.0
H1864 H 0.65431 0.05082 0.91557 0.0
H1865 H 0.65238 0.89719 0.90837 0.0
H1866 H 0.62692 0.94828 0.8517 0.0
C1867 C 0.63231 0.29786 0.86855 0.0
C1868 C 0.63874 0.35492 0.88347 0.0
C1869 C 0.64654 0.32064 0.9009 0.0
C1870 C 0.64797 0.23244 0.90365 0.0
C1871 C 0.64165 0.17808 0.88872 0.0
C1872 C 0.634 0.20885 0.87141 0.0
C1873 C 0.62872 0.1348 0.85737 0.0
C1874 C 0.61404 0.13419 0.85761 0.0
C1875 C 0.63384 0.13885 0.83298 0.0
C1876 C 0.63424 0.05807 0.87008 0.0
C1877 C 0.64182 0.08551 0.88786 0.0
C1878 C 0.64838 1.02846 0.90174 0.0
C1879 C 0.64725 0.94098 0.89744 0.0
C1880 C 0.63949 0.90991 0.87953 0.0
C1881 C 0.63281 0.96969 0.8657 0.0
H1882 H 0.36978 0.9499 0.64219 0.0
H1883 H 0.40728 0.89623 0.61451 0.0
H1884 H 0.41108 0.04962 0.60909 0.0
H1885 H 0.36185 0.13231 0.60679 0.0
H1886 H 0.35471 0.19343 0.62928 0.0
H1887 H 0.3545 0.07866 0.63045 0.0
H1888 H 0.36551 0.08306 0.6698 0.0
H1889 H 0.36574 0.19787 0.66869 0.0
H1890 H 0.38039 0.13977 0.67305 0.0
H1891 H 0.41145 0.20641 0.60739 0.0
H1892 H 0.40834 0.36165 0.6096 0.0
H1893 H 0.37069 0.32225 0.63846 0.0
C1894 C 0.3787 0.9708 0.63478 0.0
C1895 C 0.38823 0.91081 0.62864 0.0
C1896 C 0.39988 0.94076 0.6194 0.0
C1897 C 0.40213 1.0279 0.6162 0.0
C1898 C 0.3927 0.08544 0.62259 0.0
C1899 C 0.38124 0.05879 0.63183 0.0
C1900 C 0.3731 0.13582 0.63816 0.0
C1901 C 0.36028 0.13498 0.6254 0.0
C1902 C 0.37106 0.13931 0.66396 0.0
C1903 C 0.38162 0.20904 0.63027 0.0
C1904 C 0.39293 0.17783 0.62162 0.0
C1905 C 0.40261 0.23172 0.61404 0.0
C1906 C 0.40076 0.31997 0.6154 0.0
C1907 C 0.38926 0.35432 0.62401 0.0
C1908 C 0.3795 0.29786 0.63143 0.0
H1909 H 0.6324 0.76479 0.65622 0.0
H1910 H 0.64414 0.72376 0.5867 0.0
H1911 H 0.64536 0.87927 0.58069 0.0
H1912 H 0.61338 0.9553 0.64782 0.0
H1913 H 0.61904 1.00846 0.67301 0.0
H1914 H 0.61861 0.89374 0.67196 0.0
H1915 H 0.64265 0.88782 0.68203 0.0
H1916 H 0.64318 1.00257 0.68315 0.0
H1917 H 0.65394 0.94561 0.66484 0.0
H1918 H 0.64621 1.03744 0.58217 0.0
H1919 H 0.64621 0.19117 0.59074 0.0
H1920 H 0.63375 0.13714 0.65932 0.0
C1921 C 0.63498 0.789 0.63965 0.0
C1922 C 0.63793 0.73218 0.62171 0.0
C1923 C 0.64171 0.76605 0.60053 0.0
C1924 C 0.64245 0.85436 0.59699 0.0
C1925 C 0.63961 0.90881 0.61492 0.0
C1926 C 0.63601 0.87788 0.6359 0.0
C1927 C 0.63415 0.95142 0.65249 0.0
C1928 C 0.62047 0.95228 0.66186 0.0
C1929 C 0.64407 0.94654 0.67177 0.0
C1930 C 0.63671 1.02828 0.63724 0.0
C1931 C 0.64009 1.00147 0.61577 0.0
C1932 C 0.64353 0.0592 0.59888 0.0
C1933 C 0.64355 0.14655 0.60394 0.0
C1934 C 0.63995 0.17655 0.62562 0.0
C1935 C 0.6364 0.11631 0.64249 0.0
loop_
_geom_bond_atom_site_label_1
_geom_bond_atom_site_label_2
_geom_bond_distance
_geom_bond_site_symmetry_2
_ccdc_geom_bond_type
Nd0 C2 2.836 . S
Nd0 O20 2.500 . S
Nd0 O21 2.492 . S
Nd0 O22 2.487 . S
Nd0 O23 2.682 . S
Nd0 O24 2.410 1_545 S
Nd0 O29 2.414 . S
Nd0 O31 2.424 . S
Nd1 C11 2.836 . S
Nd1 O23 2.414 . S
Nd1 O25 2.424 1_545 S
Nd1 O26 2.500 . S
Nd1 O27 2.492 . S
Nd1 O28 2.487 . S
Nd1 O29 2.682 . S
Nd1 O30 2.410 . S
C2 Nd0 2.836 . S
C2 C3 1.498 1_545 S
C2 O20 1.258 . S
C2 O21 1.239 . S
C3 C2 1.498 1_565 S
C3 C4 1.366 . S
C3 C8 1.407 . S
C4 C3 1.366 . S
C4 C5 1.392 . S
C4 H32 0.930 . S
C5 C4 1.392 . S
C5 C6 1.398 . S
C5 H33 0.929 . S
C6 C5 1.398 . S
C6 C7 1.352 . S
C7 C6 1.352 . S
C7 C8 1.384 . S
C7 H34 0.930 . S
C8 C3 1.407 . S
C8 C7 1.384 . S
C8 H35 0.929 1_565 S
C9 O22 1.241 . S
C9 O23 1.273 . S
C10 O24 1.251 . S
C10 O25 1.268 . S
C11 Nd1 2.836 . S
C11 C12 1.498 . S
C11 O26 1.258 . S
C11 O27 1.239 . S
C12 C11 1.498 . S
C12 C13 1.366 . S
C12 C17 1.407 . S
C13 C12 1.366 . S
C13 C14 1.392 . S
C13 H36 0.930 . S
C14 C13 1.392 . S
C14 C15 1.398 . S
C14 H37 0.929 . S
C15 C14 1.398 . S
C15 C16 1.352 . S
C16 C15 1.352 . S
C16 C17 1.384 . S
C16 H38 0.930 . S
C17 C12 1.407 . S
C17 C16 1.384 . S
C17 H39 0.929 . S
C18 O28 1.241 . S
C18 O29 1.273 . S
C19 O30 1.251 . S
C19 O31 1.268 . S
O20 Nd0 2.500 . S
O20 C2 1.258 . S
O21 Nd0 2.492 . S
O21 C2 1.239 . S
O22 Nd0 2.487 . S
O22 C9 1.241 . S
O23 Nd0 2.682 . S
O23 Nd1 2.414 . S
O23 C9 1.273 . S
O24 Nd0 2.410 1_565 S
O24 C10 1.251 . S
O25 Nd1 2.424 1_565 S
O25 C10 1.268 . S
O26 Nd1 2.500 . S
O26 C11 1.258 . S
O27 Nd1 2.492 . S
O27 C11 1.239 . S
O28 Nd1 2.487 . S
O28 C18 1.241 . S
O29 Nd0 2.414 . S
O29 Nd1 2.682 . S
O29 C18 1.273 . S
O30 Nd1 2.410 . S
O30 C19 1.251 . S
O31 Nd0 2.424 . S
O31 C19 1.268 . S
H32 C4 0.930 . S
H33 C5 0.929 . S
H34 C7 0.930 . S
H35 C8 0.929 1_545 S
H36 C13 0.930 . S
H37 C14 0.929 . S
H38 C16 0.930 . S
H39 C17 0.929 . S
Nd40 C42 2.836 . S
Nd40 O60 2.500 . S
Nd40 O61 2.492 . S
Nd40 O62 2.487 . S
Nd40 O63 2.682 . S
Nd40 O64 2.410 1_565 S
Nd40 O69 2.414 . S
Nd40 O71 2.424 . S
Nd41 C51 2.836 . S
Nd41 O63 2.414 . S
Nd41 O65 2.424 1_565 S
Nd41 O66 2.500 . S
Nd41 O67 2.492 . S
Nd41 O68 2.487 . S
Nd41 O69 2.682 . S
Nd41 O70 2.410 . S
C42 Nd40 2.836 . S
C42 C43 1.498 1_565 S
C42 O60 1.258 . S
C42 O61 1.239 . S
C43 C42 1.498 1_545 S
C43 C44 1.366 . S
C43 C48 1.407 . S
C44 C43 1.366 . S
C44 C45 1.392 . S
C44 H72 0.930 . S
C45 C44 1.392 . S
C45 C46 1.398 . S
C45 H73 0.929 . S
C46 C45 1.398 . S
C46 C47 1.352 . S
C47 C46 1.352 . S
C47 C48 1.384 . S
C47 H74 0.930 . S
C48 C43 1.407 . S
C48 C47 1.384 . S
C48 H75 0.929 1_545 S
C49 O62 1.241 . S
C49 O63 1.273 . S
C50 O64 1.251 . S
C50 O65 1.268 . S
C51 Nd41 2.836 . S
C51 C52 1.498 . S
C51 O66 1.258 . S
C51 O67 1.239 . S
C52 C51 1.498 . S
C52 C53 1.366 . S
C52 C57 1.407 . S
C53 C52 1.366 . S
C53 C54 1.392 . S
C53 H76 0.930 . S
C54 C53 1.392 . S
C54 C55 1.398 . S
C54 H77 0.929 . S
C55 C54 1.398 . S
C55 C56 1.352 . S
C56 C55 1.352 . S
C56 C57 1.384 . S
C56 H78 0.930 . S
C57 C52 1.407 . S
C57 C56 1.384 . S
C57 H79 0.929 . S
C58 O68 1.241 . S
C58 O69 1.273 . S
C59 O70 1.251 . S
C59 O71 1.268 . S
O60 Nd40 2.500 . S
O60 C42 1.258 . S
O61 Nd40 2.492 . S
O61 C42 1.239 . S
O62 Nd40 2.487 . S
O62 C49 1.241 . S
O63 Nd40 2.682 . S
O63 Nd41 2.414 . S
O63 C49 1.273 . S
O64 Nd40 2.410 1_545 S
O64 C50 1.251 . S
O65 Nd41 2.424 1_545 S
O65 C50 1.268 . S
O66 Nd41 2.500 . S
O66 C51 1.258 . S
O67 Nd41 2.492 . S
O67 C51 1.239 . S
O68 Nd41 2.487 . S
O68 C58 1.241 . S
O69 Nd40 2.414 . S
O69 Nd41 2.682 . S
O69 C58 1.273 . S
O70 Nd41 2.410 . S
O70 C59 1.251 . S
O71 Nd40 2.424 . S
O71 C59 1.268 . S
H72 C44 0.930 . S
H73 C45 0.929 . S
H74 C47 0.930 . S
H75 C48 0.929 1_565 S
H76 C53 0.930 . S
H77 C54 0.929 . S
H78 C56 0.930 . S
H79 C57 0.929 . S
Nd80 C82 2.836 . S
Nd80 O100 2.500 . S
Nd80 O101 2.492 . S
Nd80 O102 2.487 . S
Nd80 O103 2.682 . S
Nd80 O104 2.410 1_565 S
Nd80 O109 2.414 . S
Nd80 O111 2.424 . S
Nd81 C91 2.836 . S
Nd81 O103 2.414 . S
Nd81 O105 2.424 1_565 S
Nd81 O106 2.500 . S
Nd81 O107 2.492 . S
Nd81 O108 2.487 . S
Nd81 O109 2.682 . S
Nd81 O110 2.410 . S
C82 Nd80 2.836 . S
C82 C83 1.498 1_565 S
C82 O100 1.258 . S
C82 O101 1.239 . S
C83 C82 1.498 1_545 S
C83 C84 1.366 . S
C83 C88 1.407 . S
C84 C83 1.366 . S
C84 C85 1.392 . S
C84 H112 0.930 . S
C85 C84 1.392 . S
C85 C86 1.398 . S
C85 H113 0.929 . S
C86 C85 1.398 . S
C86 C87 1.352 . S
C87 C86 1.352 . S
C87 C88 1.384 . S
C87 H114 0.930 . S
C88 C83 1.407 . S
C88 C87 1.384 . S
C88 H115 0.929 1_545 S
C89 O102 1.241 . S
C89 O103 1.273 . S
C90 O104 1.251 . S
C90 O105 1.268 . S
C91 Nd81 2.836 . S
C91 C92 1.498 . S
C91 O106 1.258 . S
C91 O107 1.239 . S
C92 C91 1.498 . S
C92 C93 1.366 . S
C92 C97 1.407 . S
C93 C92 1.366 . S
C93 C94 1.392 . S
C93 H116 0.930 . S
C94 C93 1.392 . S
C94 C95 1.398 . S
C94 H117 0.929 . S
C95 C94 1.398 . S
C95 C96 1.352 . S
C96 C95 1.352 . S
C96 C97 1.384 . S
C96 H118 0.930 . S
C97 C92 1.407 . S
C97 C96 1.384 . S
C97 H119 0.929 . S
C98 O108 1.241 . S
C98 O109 1.273 . S
C99 O110 1.251 . S
C99 O111 1.268 . S
O100 Nd80 2.500 . S
O100 C82 1.258 . S
O101 Nd80 2.492 . S
O101 C82 1.239 . S
O102 Nd80 2.487 . S
O102 C89 1.241 . S
O103 Nd80 2.682 . S
O103 Nd81 2.414 . S
O103 C89 1.273 . S
O104 Nd80 2.410 1_545 S
O104 C90 1.251 . S
O105 Nd81 2.424 1_545 S
O105 C90 1.268 . S
O106 Nd81 2.500 . S
O106 C91 1.258 . S
O107 Nd81 2.492 . S
O107 C91 1.239 . S
O108 Nd81 2.487 . S
O108 C98 1.241 . S
O109 Nd80 2.414 . S
O109 Nd81 2.682 . S
O109 C98 1.273 . S
O110 Nd81 2.410 . S
O110 C99 1.251 . S
O111 Nd80 2.424 . S
O111 C99 1.268 . S
H112 C84 0.930 . S
H113 C85 0.929 . S
H114 C87 0.930 . S
H115 C88 0.929 1_565 S
H116 C93 0.930 . S
H117 C94 0.929 . S
H118 C96 0.930 . S
H119 C97 0.929 . S
Nd120 C122 2.836 . S
Nd120 O140 2.500 . S
Nd120 O141 2.492 . S
Nd120 O142 2.487 . S
Nd120 O143 2.682 . S
Nd120 O144 2.410 1_545 S
Nd120 O149 2.414 . S
Nd120 O151 2.424 . S
Nd121 C131 2.836 . S
Nd121 O143 2.414 . S
Nd121 O145 2.424 1_545 S
Nd121 O146 2.500 . S
Nd121 O147 2.492 . S
Nd121 O148 2.487 . S
Nd121 O149 2.682 . S
Nd121 O150 2.410 . S
C122 Nd120 2.836 . S
C122 C123 1.498 1_545 S
C122 O140 1.258 . S
C122 O141 1.239 . S
C123 C122 1.498 1_565 S
C123 C124 1.366 . S
C123 C128 1.407 . S
C124 C123 1.366 . S
C124 C125 1.392 . S
C124 H152 0.930 . S
C125 C124 1.392 . S
C125 C126 1.398 . S
C125 H153 0.929 . S
C126 C125 1.398 . S
C126 C127 1.352 . S
C127 C126 1.352 . S
C127 C128 1.384 . S
C127 H154 0.930 . S
C128 C123 1.407 . S
C128 C127 1.384 . S
C128 H155 0.929 1_565 S
C129 O142 1.241 . S
C129 O143 1.273 . S
C130 O144 1.251 . S
C130 O145 1.268 . S
C131 Nd121 2.836 . S
C131 C132 1.498 . S
C131 O146 1.258 . S
C131 O147 1.239 . S
C132 C131 1.498 . S
C132 C133 1.366 . S
C132 C137 1.407 . S
C133 C132 1.366 . S
C133 C134 1.392 . S
C133 H156 0.930 . S
C134 C133 1.392 . S
C134 C135 1.398 . S
C134 H157 0.929 . S
C135 C134 1.398 . S
C135 C136 1.352 . S
C136 C135 1.352 . S
C136 C137 1.384 . S
C136 H158 0.930 . S
C137 C132 1.407 . S
C137 C136 1.384 . S
C137 H159 0.929 . S
C138 O148 1.241 . S
C138 O149 1.273 . S
C139 O150 1.251 . S
C139 O151 1.268 . S
O140 Nd120 2.500 . S
O140 C122 1.258 . S
O141 Nd120 2.492 . S
O141 C122 1.239 . S
O142 Nd120 2.487 . S
O142 C129 1.241 . S
O143 Nd120 2.682 . S
O143 Nd121 2.414 . S
O143 C129 1.273 . S
O144 Nd120 2.410 1_565 S
O144 C130 1.251 . S
O145 Nd121 2.424 1_565 S
O145 C130 1.268 . S
O146 Nd121 2.500 . S
O146 C131 1.258 . S
O147 Nd121 2.492 . S
O147 C131 1.239 . S
O148 Nd121 2.487 . S
O148 C138 1.241 . S
O149 Nd120 2.414 . S
O149 Nd121 2.682 . S
O149 C138 1.273 . S
O150 Nd121 2.410 . S
O150 C139 1.251 . S
O151 Nd120 2.424 . S
O151 C139 1.268 . S
H152 C124 0.930 . S
H153 C125 0.929 . S
H154 C127 0.930 . S
H155 C128 0.929 1_545 S
H156 C133 0.930 . S
H157 C134 0.929 . S
H158 C136 0.930 . S
H159 C137 0.929 . S
Nd160 C162 2.836 . S
Nd160 O180 2.500 . S
Nd160 O181 2.492 . S
Nd160 O182 2.487 . S
Nd160 O183 2.682 . S
Nd160 O184 2.410 . S
Nd160 O189 2.414 . S
Nd160 O191 2.424 1_565 S
Nd161 C171 2.836 . S
Nd161 O183 2.414 . S
Nd161 O185 2.424 . S
Nd161 O186 2.500 . S
Nd161 O187 2.492 . S
Nd161 O188 2.487 . S
Nd161 O189 2.682 . S
Nd161 O190 2.410 1_565 S
C162 Nd160 2.836 . S
C162 C163 1.498 . S
C162 O180 1.258 . S
C162 O181 1.239 . S
C163 C162 1.498 . S
C163 C164 1.366 . S
C163 C168 1.407 . S
C164 C163 1.366 . S
C164 C165 1.392 . S
C164 H192 0.930 . S
C165 C164 1.392 . S
C165 C166 1.398 . S
C165 H193 0.929 . S
C166 C165 1.398 . S
C166 C167 1.352 . S
C167 C166 1.352 . S
C167 C168 1.384 . S
C167 H194 0.930 . S
C168 C163 1.407 . S
C168 C167 1.384 . S
C168 H195 0.929 . S
C169 O182 1.241 . S
C169 O183 1.273 . S
C170 O184 1.251 . S
C170 O185 1.268 . S
C171 Nd161 2.836 . S
C171 C172 1.498 1_565 S
C171 O186 1.258 . S
C171 O187 1.239 . S
C172 C171 1.498 1_545 S
C172 C173 1.366 . S
C172 C177 1.407 . S
C173 C172 1.366 . S
C173 C174 1.392 . S
C173 H196 0.930 . S
C174 C173 1.392 . S
C174 C175 1.398 . S
C174 H197 0.929 . S
C175 C174 1.398 . S
C175 C176 1.352 . S
C176 C175 1.352 . S
C176 C177 1.384 . S
C176 H198 0.930 . S
C177 C172 1.407 . S
C177 C176 1.384 . S
C177 H199 0.929 1_545 S
C178 O188 1.241 . S
C178 O189 1.273 . S
C179 O190 1.251 . S
C179 O191 1.268 . S
O180 Nd160 2.500 . S
O180 C162 1.258 . S
O181 Nd160 2.492 . S
O181 C162 1.239 . S
O182 Nd160 2.487 . S
O182 C169 1.241 . S
O183 Nd160 2.682 . S
O183 Nd161 2.414 . S
O183 C169 1.273 . S
O184 Nd160 2.410 . S
O184 C170 1.251 . S
O185 Nd161 2.424 . S
O185 C170 1.268 . S
O186 Nd161 2.500 . S
O186 C171 1.258 . S
O187 Nd161 2.492 . S
O187 C171 1.239 . S
O188 Nd161 2.487 . S
O188 C178 1.241 . S
O189 Nd160 2.414 . S
O189 Nd161 2.682 . S
O189 C178 1.273 . S
O190 Nd161 2.410 1_545 S
O190 C179 1.251 . S
O191 Nd160 2.424 1_545 S
O191 C179 1.268 . S
H192 C164 0.930 . S
H193 C165 0.929 . S
H194 C167 0.930 . S
H195 C168 0.929 . S
H196 C173 0.930 . S
H197 C174 0.929 . S
H198 C176 0.930 . S
H199 C177 0.929 1_565 S
Nd200 C202 2.836 . S
Nd200 O220 2.500 . S
Nd200 O221 2.492 . S
Nd200 O222 2.487 . S
Nd200 O223 2.682 . S
Nd200 O224 2.410 . S
Nd200 O229 2.414 . S
Nd200 O231 2.424 1_545 S
Nd201 C211 2.836 . S
Nd201 O223 2.414 . S
Nd201 O225 2.424 . S
Nd201 O226 2.500 . S
Nd201 O227 2.492 . S
Nd201 O228 2.487 . S
Nd201 O229 2.682 . S
Nd201 O230 2.410 1_545 S
C202 Nd200 2.836 . S
C202 C203 1.498 . S
C202 O220 1.258 . S
C202 O221 1.239 . S
C203 C202 1.498 . S
C203 C204 1.366 . S
C203 C208 1.407 . S
C204 C203 1.366 . S
C204 C205 1.392 . S
C204 H232 0.930 . S
C205 C204 1.392 . S
C205 C206 1.398 . S
C205 H233 0.929 . S
C206 C205 1.398 . S
C206 C207 1.352 . S
C207 C206 1.352 . S
C207 C208 1.384 . S
C207 H234 0.930 . S
C208 C203 1.407 . S
C208 C207 1.384 . S
C208 H235 0.929 . S
C209 O222 1.241 . S
C209 O223 1.273 . S
C210 O224 1.251 . S
C210 O225 1.268 . S
C211 Nd201 2.836 . S
C211 C212 1.498 1_545 S
C211 O226 1.258 . S
C211 O227 1.239 . S
C212 C211 1.498 1_565 S
C212 C213 1.366 . S
C212 C217 1.407 . S
C213 C212 1.366 . S
C213 C214 1.392 . S
C213 H236 0.930 . S
C214 C213 1.392 . S
C214 C215 1.398 . S
C214 H237 0.929 . S
C215 C214 1.398 . S
C215 C216 1.352 . S
C216 C215 1.352 . S
C216 C217 1.384 . S
C216 H238 0.930 . S
C217 C212 1.407 . S
C217 C216 1.384 . S
C217 H239 0.929 1_565 S
C218 O228 1.241 . S
C218 O229 1.273 . S
C219 O230 1.251 . S
C219 O231 1.268 . S
O220 Nd200 2.500 . S
O220 C202 1.258 . S
O221 Nd200 2.492 . S
O221 C202 1.239 . S
O222 Nd200 2.487 . S
O222 C209 1.241 . S
O223 Nd200 2.682 . S
O223 Nd201 2.414 . S
O223 C209 1.273 . S
O224 Nd200 2.410 . S
O224 C210 1.251 . S
O225 Nd201 2.424 . S
O225 C210 1.268 . S
O226 Nd201 2.500 . S
O226 C211 1.258 . S
O227 Nd201 2.492 . S
O227 C211 1.239 . S
O228 Nd201 2.487 . S
O228 C218 1.241 . S
O229 Nd200 2.414 . S
O229 Nd201 2.682 . S
O229 C218 1.273 . S
O230 Nd201 2.410 1_565 S
O230 C219 1.251 . S
O231 Nd200 2.424 1_565 S
O231 C219 1.268 . S
H232 C204 0.930 . S
H233 C205 0.929 . S
H234 C207 0.930 . S
H235 C208 0.929 . S
H236 C213 0.930 . S
H237 C214 0.929 . S
H238 C216 0.930 . S
H239 C217 0.929 1_545 S
Nd240 C242 2.836 . S
Nd240 O260 2.500 . S
Nd240 O261 2.492 . S
Nd240 O262 2.487 . S
Nd240 O263 2.682 . S
Nd240 O264 2.410 . S
Nd240 O269 2.414 . S
Nd240 O271 2.424 1_545 S
Nd241 C251 2.836 . S
Nd241 O263 2.414 . S
Nd241 O265 2.424 . S
Nd241 O266 2.500 . S
Nd241 O267 2.492 . S
Nd241 O268 2.487 . S
Nd241 O269 2.682 . S
Nd241 O270 2.410 1_545 S
C242 Nd240 2.836 . S
C242 C243 1.498 . S
C242 O260 1.258 . S
C242 O261 1.239 . S
C243 C242 1.498 . S
C243 C244 1.366 . S
C243 C248 1.407 . S
C244 C243 1.366 . S
C244 C245 1.392 . S
C244 H272 0.930 . S
C245 C244 1.392 . S
C245 C246 1.398 . S
C245 H273 0.929 . S
C246 C245 1.398 . S
C246 C247 1.352 . S
C247 C246 1.352 . S
C247 C248 1.384 . S
C247 H274 0.930 . S
C248 C243 1.407 . S
C248 C247 1.384 . S
C248 H275 0.929 . S
C249 O262 1.241 . S
C249 O263 1.273 . S
C250 O264 1.251 . S
C250 O265 1.268 . S
C251 Nd241 2.836 . S
C251 C252 1.498 1_545 S
C251 O266 1.258 . S
C251 O267 1.239 . S
C252 C251 1.498 1_565 S
C252 C253 1.366 . S
C252 C257 1.407 . S
C253 C252 1.366 . S
C253 C254 1.392 . S
C253 H276 0.930 . S
C254 C253 1.392 . S
C254 C255 1.398 . S
C254 H277 0.929 . S
C255 C254 1.398 . S
C255 C256 1.352 . S
C256 C255 1.352 . S
C256 C257 1.384 . S
C256 H278 0.930 . S
C257 C252 1.407 . S
C257 C256 1.384 . S
C257 H279 0.929 1_565 S
C258 O268 1.241 . S
C258 O269 1.273 . S
C259 O270 1.251 . S
C259 O271 1.268 . S
O260 Nd240 2.500 . S
O260 C242 1.258 . S
O261 Nd240 2.492 . S
O261 C242 1.239 . S
O262 Nd240 2.487 . S
O262 C249 1.241 . S
O263 Nd240 2.682 . S
O263 Nd241 2.414 . S
O263 C249 1.273 . S
O264 Nd240 2.410 . S
O264 C250 1.251 . S
O265 Nd241 2.424 . S
O265 C250 1.268 . S
O266 Nd241 2.500 . S
O266 C251 1.258 . S
O267 Nd241 2.492 . S
O267 C251 1.239 . S
O268 Nd241 2.487 . S
O268 C258 1.241 . S
O269 Nd240 2.414 . S
O269 Nd241 2.682 . S
O269 C258 1.273 . S
O270 Nd241 2.410 1_565 S
O270 C259 1.251 . S
O271 Nd240 2.424 1_565 S
O271 C259 1.268 . S
H272 C244 0.930 . S
H273 C245 0.929 . S
H274 C247 0.930 . S
H275 C248 0.929 . S
H276 C253 0.930 . S
H277 C254 0.929 . S
H278 C256 0.930 . S
H279 C257 0.929 1_545 S
Nd280 C282 2.836 . S
Nd280 O300 2.500 . S
Nd280 O301 2.492 . S
Nd280 O302 2.487 . S
Nd280 O303 2.682 . S
Nd280 O304 2.410 . S
Nd280 O309 2.414 . S
Nd280 O311 2.424 1_565 S
Nd281 C291 2.836 . S
Nd281 O303 2.414 . S
Nd281 O305 2.424 . S
Nd281 O306 2.500 . S
Nd281 O307 2.492 . S
Nd281 O308 2.487 . S
Nd281 O309 2.682 . S
Nd281 O310 2.410 1_565 S
C282 Nd280 2.836 . S
C282 C283 1.498 . S
C282 O300 1.258 . S
C282 O301 1.239 . S
C283 C282 1.498 . S
C283 C284 1.366 . S
C283 C288 1.407 . S
C284 C283 1.366 . S
C284 C285 1.392 . S
C284 H312 0.930 . S
C285 C284 1.392 . S
C285 C286 1.398 . S
C285 H313 0.929 . S
C286 C285 1.398 . S
C286 C287 1.352 . S
C287 C286 1.352 . S
C287 C288 1.384 . S
C287 H314 0.930 . S
C288 C283 1.407 . S
C288 C287 1.384 . S
C288 H315 0.929 . S
C289 O302 1.241 . S
C289 O303 1.273 . S
C290 O304 1.251 . S
C290 O305 1.268 . S
C291 Nd281 2.836 . S
C291 C292 1.498 1_565 S
C291 O306 1.258 . S
C291 O307 1.239 . S
C292 C291 1.498 1_545 S
C292 C293 1.366 . S
C292 C297 1.407 . S
C293 C292 1.366 . S
C293 C294 1.392 . S
C293 H316 0.930 . S
C294 C293 1.392 . S
C294 C295 1.398 . S
C294 H317 0.929 . S
C295 C294 1.398 . S
C295 C296 1.352 . S
C296 C295 1.352 . S
C296 C297 1.384 . S
C296 H318 0.930 . S
C297 C292 1.407 . S
C297 C296 1.384 . S
C297 H319 0.929 1_545 S
C298 O308 1.241 . S
C298 O309 1.273 . S
C299 O310 1.251 . S
C299 O311 1.268 . S
O300 Nd280 2.500 . S
O300 C282 1.258 . S
O301 Nd280 2.492 . S
O301 C282 1.239 . S
O302 Nd280 2.487 . S
O302 C289 1.241 . S
O303 Nd280 2.682 . S
O303 Nd281 2.414 . S
O303 C289 1.273 . S
O304 Nd280 2.410 . S
O304 C290 1.251 . S
O305 Nd281 2.424 . S
O305 C290 1.268 . S
O306 Nd281 2.500 . S
O306 C291 1.258 . S
O307 Nd281 2.492 . S
O307 C291 1.239 . S
O308 Nd281 2.487 . S
O308 C298 1.241 . S
O309 Nd280 2.414 . S
O309 Nd281 2.682 . S
O309 C298 1.273 . S
O310 Nd281 2.410 1_545 S
O310 C299 1.251 . S
O311 Nd280 2.424 1_545 S
O311 C299 1.268 . S
H312 C284 0.930 . S
H313 C285 0.929 . S
H314 C287 0.930 . S
H315 C288 0.929 . S
H316 C293 0.930 . S
H317 C294 0.929 . S
H318 C296 0.930 . S
H319 C297 0.929 1_565 S
Nd320 C322 2.836 . S
Nd320 O340 2.500 . S
Nd320 O341 2.492 . S
Nd320 O342 2.487 . S
Nd320 O343 2.682 . S
Nd320 O344 2.410 . S
Nd320 O349 2.414 . S
Nd320 O351 2.424 . S
Nd321 C331 2.836 . S
Nd321 O343 2.414 . S
Nd321 O345 2.424 . S
Nd321 O346 2.500 . S
Nd321 O347 2.492 . S
Nd321 O348 2.487 . S
Nd321 O349 2.682 . S
Nd321 O350 2.410 . S
C322 Nd320 2.836 . S
C322 C323 1.498 . S
C322 O340 1.258 . S
C322 O341 1.239 . S
C323 C322 1.498 . S
C323 C324 1.366 . S
C323 C328 1.407 . S
C324 C323 1.366 . S
C324 C325 1.392 . S
C324 H352 0.930 . S
C325 C324 1.392 . S
C325 C326 1.398 . S
C325 H353 0.929 . S
C326 C325 1.398 . S
C326 C327 1.352 . S
C327 C326 1.352 . S
C327 C328 1.384 . S
C327 H354 0.930 . S
C328 C323 1.407 . S
C328 C327 1.384 . S
C328 H355 0.929 . S
C329 O342 1.241 . S
C329 O343 1.273 . S
C330 O344 1.251 . S
C330 O345 1.268 . S
C331 Nd321 2.836 . S
C331 C332 1.498 . S
C331 O346 1.258 . S
C331 O347 1.239 . S
C332 C331 1.498 . S
C332 C333 1.366 . S
C332 C337 1.407 . S
C333 C332 1.366 . S
C333 C334 1.392 . S
C333 H356 0.930 . S
C334 C333 1.392 . S
C334 C335 1.398 . S
C334 H357 0.929 . S
C335 C334 1.398 . S
C335 C336 1.352 . S
C336 C335 1.352 . S
C336 C337 1.384 . S
C336 H358 0.930 . S
C337 C332 1.407 . S
C337 C336 1.384 . S
C337 H359 0.929 . S
C338 O348 1.241 . S
C338 O349 1.273 . S
C339 O350 1.251 . S
C339 O351 1.268 . S
O340 Nd320 2.500 . S
O340 C322 1.258 . S
O341 Nd320 2.492 . S
O341 C322 1.239 . S
O342 Nd320 2.487 . S
O342 C329 1.241 . S
O343 Nd320 2.682 . S
O343 Nd321 2.414 . S
O343 C329 1.273 . S
O344 Nd320 2.410 . S
O344 C330 1.251 . S
O345 Nd321 2.424 . S
O345 C330 1.268 . S
O346 Nd321 2.500 . S
O346 C331 1.258 . S
O347 Nd321 2.492 . S
O347 C331 1.239 . S
O348 Nd321 2.487 . S
O348 C338 1.241 . S
O349 Nd320 2.414 . S
O349 Nd321 2.682 . S
O349 C338 1.273 . S
O350 Nd321 2.410 . S
O350 C339 1.251 . S
O351 Nd320 2.424 . S
O351 C339 1.268 . S
H352 C324 0.930 . S
H353 C325 0.929 . S
H354 C327 0.930 . S
H355 C328 0.929 . S
H356 C333 0.930 . S
H357 C334 0.929 . S
H358 C336 0.930 . S
H359 C337 0.929 . S
Nd360 C362 2.836 . S
Nd360 O380 2.500 . S
Nd360 O381 2.492 . S
Nd360 O382 2.487 . S
Nd360 O383 2.682 . S
Nd360 O384 2.410 . S
Nd360 O389 2.414 . S
Nd360 O391 2.424 . S
Nd361 C371 2.836 . S
Nd361 O383 2.414 . S
Nd361 O385 2.424 . S
Nd361 O386 2.500 . S
Nd361 O387 2.492 . S
Nd361 O388 2.487 . S
Nd361 O389 2.682 . S
Nd361 O390 2.410 . S
C362 Nd360 2.836 . S
C362 C363 1.498 . S
C362 O380 1.258 . S
C362 O381 1.239 . S
C363 C362 1.498 . S
C363 C364 1.366 . S
C363 C368 1.407 . S
C364 C363 1.366 . S
C364 C365 1.392 . S
C364 H392 0.930 . S
C365 C364 1.392 . S
C365 C366 1.398 . S
C365 H393 0.929 . S
C366 C365 1.398 . S
C366 C367 1.352 . S
C367 C366 1.352 . S
C367 C368 1.384 . S
C367 H394 0.930 . S
C368 C363 1.407 . S
C368 C367 1.384 . S
C368 H395 0.929 . S
C369 O382 1.241 . S
C369 O383 1.273 . S
C370 O384 1.251 . S
C370 O385 1.268 . S
C371 Nd361 2.836 . S
C371 C372 1.498 . S
C371 O386 1.258 . S
C371 O387 1.239 . S
C372 C371 1.498 . S
C372 C373 1.366 . S
C372 C377 1.407 . S
C373 C372 1.366 . S
C373 C374 1.392 . S
C373 H396 0.930 . S
C374 C373 1.392 . S
C374 C375 1.398 . S
C374 H397 0.929 . S
C375 C374 1.398 . S
C375 C376 1.352 . S
C376 C375 1.352 . S
C376 C377 1.384 . S
C376 H398 0.930 . S
C377 C372 1.407 . S
C377 C376 1.384 . S
C377 H399 0.929 . S
C378 O388 1.241 . S
C378 O389 1.273 . S
C379 O390 1.251 . S
C379 O391 1.268 . S
O380 Nd360 2.500 . S
O380 C362 1.258 . S
O381 Nd360 2.492 . S
O381 C362 1.239 . S
O382 Nd360 2.487 . S
O382 C369 1.241 . S
O383 Nd360 2.682 . S
O383 Nd361 2.414 . S
O383 C369 1.273 . S
O384 Nd360 2.410 . S
O384 C370 1.251 . S
O385 Nd361 2.424 . S
O385 C370 1.268 . S
O386 Nd361 2.500 . S
O386 C371 1.258 . S
O387 Nd361 2.492 . S
O387 C371 1.239 . S
O388 Nd361 2.487 . S
O388 C378 1.241 . S
O389 Nd360 2.414 . S
O389 Nd361 2.682 . S
O389 C378 1.273 . S
O390 Nd361 2.410 . S
O390 C379 1.251 . S
O391 Nd360 2.424 . S
O391 C379 1.268 . S
H392 C364 0.930 . S
H393 C365 0.929 . S
H394 C367 0.930 . S
H395 C368 0.929 . S
H396 C373 0.930 . S
H397 C374 0.929 . S
H398 C376 0.930 . S
H399 C377 0.929 . S
Nd400 C402 2.836 . S
Nd400 O420 2.500 . S
Nd400 O421 2.492 . S
Nd400 O422 2.487 . S
Nd400 O423 2.682 . S
Nd400 O424 2.410 . S
Nd400 O429 2.414 . S
Nd400 O431 2.424 . S
Nd401 C411 2.836 . S
Nd401 O423 2.414 . S
Nd401 O425 2.424 . S
Nd401 O426 2.500 . S
Nd401 O427 2.492 . S
Nd401 O428 2.487 . S
Nd401 O429 2.682 . S
Nd401 O430 2.410 . S
C402 Nd400 2.836 . S
C402 C403 1.498 . S
C402 O420 1.258 . S
C402 O421 1.239 . S
C403 C402 1.498 . S
C403 C404 1.366 . S
C403 C408 1.407 . S
C404 C403 1.366 . S
C404 C405 1.392 . S
C404 H432 0.930 . S
C405 C404 1.392 . S
C405 C406 1.398 . S
C405 H433 0.929 . S
C406 C405 1.398 . S
C406 C407 1.352 . S
C407 C406 1.352 . S
C407 C408 1.384 . S
C407 H434 0.930 . S
C408 C403 1.407 . S
C408 C407 1.384 . S
C408 H435 0.929 . S
C409 O422 1.241 . S
C409 O423 1.273 . S
C410 O424 1.251 . S
C410 O425 1.268 . S
C411 Nd401 2.836 . S
C411 C412 1.498 . S
C411 O426 1.258 . S
C411 O427 1.239 . S
C412 C411 1.498 . S
C412 C413 1.366 . S
C412 C417 1.407 . S
C413 C412 1.366 . S
C413 C414 1.392 . S
C413 H436 0.930 . S
C414 C413 1.392 . S
C414 C415 1.398 . S
C414 H437 0.929 . S
C415 C414 1.398 . S
C415 C416 1.352 . S
C416 C415 1.352 . S
C416 C417 1.384 . S
C416 H438 0.930 . S
C417 C412 1.407 . S
C417 C416 1.384 . S
C417 H439 0.929 . S
C418 O428 1.241 . S
C418 O429 1.273 . S
C419 O430 1.251 . S
C419 O431 1.268 . S
O420 Nd400 2.500 . S
O420 C402 1.258 . S
O421 Nd400 2.492 . S
O421 C402 1.239 . S
O422 Nd400 2.487 . S
O422 C409 1.241 . S
O423 Nd400 2.682 . S
O423 Nd401 2.414 . S
O423 C409 1.273 . S
O424 Nd400 2.410 . S
O424 C410 1.251 . S
O425 Nd401 2.424 . S
O425 C410 1.268 . S
O426 Nd401 2.500 . S
O426 C411 1.258 . S
O427 Nd401 2.492 . S
O427 C411 1.239 . S
O428 Nd401 2.487 . S
O428 C418 1.241 . S
O429 Nd400 2.414 . S
O429 Nd401 2.682 . S
O429 C418 1.273 . S
O430 Nd401 2.410 . S
O430 C419 1.251 . S
O431 Nd400 2.424 . S
O431 C419 1.268 . S
H432 C404 0.930 . S
H433 C405 0.929 . S
H434 C407 0.930 . S
H435 C408 0.929 . S
H436 C413 0.930 . S
H437 C414 0.929 . S
H438 C416 0.930 . S
H439 C417 0.929 . S
Nd440 C442 2.836 . S
Nd440 O460 2.500 . S
Nd440 O461 2.492 . S
Nd440 O462 2.487 . S
Nd440 O463 2.682 . S
Nd440 O464 2.410 . S
Nd440 O469 2.414 . S
Nd440 O471 2.424 . S
Nd441 C451 2.836 . S
Nd441 O463 2.414 . S
Nd441 O465 2.424 . S
Nd441 O466 2.500 . S
Nd441 O467 2.492 . S
Nd441 O468 2.487 . S
Nd441 O469 2.682 . S
Nd441 O470 2.410 . S
C442 Nd440 2.836 . S
C442 C443 1.498 . S
C442 O460 1.258 . S
C442 O461 1.239 . S
C443 C442 1.498 . S
C443 C444 1.366 . S
C443 C448 1.407 . S
C444 C443 1.366 . S
C444 C445 1.392 . S
C444 H472 0.930 . S
C445 C444 1.392 . S
C445 C446 1.398 . S
C445 H473 0.929 . S
C446 C445 1.398 . S
C446 C447 1.352 . S
C447 C446 1.352 . S
C447 C448 1.384 . S
C447 H474 0.930 . S
C448 C443 1.407 . S
C448 C447 1.384 . S
C448 H475 0.929 . S
C449 O462 1.241 . S
C449 O463 1.273 . S
C450 O464 1.251 . S
C450 O465 1.268 . S
C451 Nd441 2.836 . S
C451 C452 1.498 . S
C451 O466 1.258 . S
C451 O467 1.239 . S
C452 C451 1.498 . S
C452 C453 1.366 . S
C452 C457 1.407 . S
C453 C452 1.366 . S
C453 C454 1.392 . S
C453 H476 0.930 . S
C454 C453 1.392 . S
C454 C455 1.398 . S
C454 H477 0.929 . S
C455 C454 1.398 . S
C455 C456 1.352 . S
C456 C455 1.352 . S
C456 C457 1.384 . S
C456 H478 0.930 . S
C457 C452 1.407 . S
C457 C456 1.384 . S
C457 H479 0.929 . S
C458 O468 1.241 . S
C458 O469 1.273 . S
C459 O470 1.251 . S
C459 O471 1.268 . S
O460 Nd440 2.500 . S
O460 C442 1.258 . S
O461 Nd440 2.492 . S
O461 C442 1.239 . S
O462 Nd440 2.487 . S
O462 C449 1.241 . S
O463 Nd440 2.682 . S
O463 Nd441 2.414 . S
O463 C449 1.273 . S
O464 Nd440 2.410 . S
O464 C450 1.251 . S
O465 Nd441 2.424 . S
O465 C450 1.268 . S
O466 Nd441 2.500 . S
O466 C451 1.258 . S
O467 Nd441 2.492 . S
O467 C451 1.239 . S
O468 Nd441 2.487 . S
O468 C458 1.241 . S
O469 Nd440 2.414 . S
O469 Nd441 2.682 . S
O469 C458 1.273 . S
O470 Nd441 2.410 . S
O470 C459 1.251 . S
O471 Nd440 2.424 . S
O471 C459 1.268 . S
H472 C444 0.930 . S
H473 C445 0.929 . S
H474 C447 0.930 . S
H475 C448 0.929 . S
H476 C453 0.930 . S
H477 C454 0.929 . S
H478 C456 0.930 . S
H479 C457 0.929 . S
Nd480 C482 2.836 . S
Nd480 O500 2.500 . S
Nd480 O501 2.492 . S
Nd480 O502 2.487 . S
Nd480 O503 2.682 . S
Nd480 O504 2.410 . S
Nd480 O509 2.414 . S
Nd480 O511 2.424 . S
Nd481 C491 2.836 . S
Nd481 O503 2.414 . S
Nd481 O505 2.424 . S
Nd481 O506 2.500 . S
Nd481 O507 2.492 . S
Nd481 O508 2.487 . S
Nd481 O509 2.682 . S
Nd481 O510 2.410 . S
C482 Nd480 2.836 . S
C482 C483 1.498 . S
C482 O500 1.258 . S
C482 O501 1.239 . S
C483 C482 1.498 . S
C483 C484 1.366 . S
C483 C488 1.407 . S
C484 C483 1.366 . S
C484 C485 1.392 . S
C484 H512 0.930 . S
C485 C484 1.392 . S
C485 C486 1.398 . S
C485 H513 0.929 . S
C486 C485 1.398 . S
C486 C487 1.352 . S
C487 C486 1.352 . S
C487 C488 1.384 . S
C487 H514 0.930 . S
C488 C483 1.407 . S
C488 C487 1.384 . S
C488 H515 0.929 . S
C489 O502 1.241 . S
C489 O503 1.273 . S
C490 O504 1.251 . S
C490 O505 1.268 . S
C491 Nd481 2.836 . S
C491 C492 1.498 . S
C491 O506 1.258 . S
C491 O507 1.239 . S
C492 C491 1.498 . S
C492 C493 1.366 . S
C492 C497 1.407 . S
C493 C492 1.366 . S
C493 C494 1.392 . S
C493 H516 0.930 . S
C494 C493 1.392 . S
C494 C495 1.398 . S
C494 H517 0.929 . S
C495 C494 1.398 . S
C495 C496 1.352 . S
C496 C495 1.352 . S
C496 C497 1.384 . S
C496 H518 0.930 . S
C497 C492 1.407 . S
C497 C496 1.384 . S
C497 H519 0.929 . S
C498 O508 1.241 . S
C498 O509 1.273 . S
C499 O510 1.251 . S
C499 O511 1.268 . S
O500 Nd480 2.500 . S
O500 C482 1.258 . S
O501 Nd480 2.492 . S
O501 C482 1.239 . S
O502 Nd480 2.487 . S
O502 C489 1.241 . S
O503 Nd480 2.682 . S
O503 Nd481 2.414 . S
O503 C489 1.273 . S
O504 Nd480 2.410 . S
O504 C490 1.251 . S
O505 Nd481 2.424 . S
O505 C490 1.268 . S
O506 Nd481 2.500 . S
O506 C491 1.258 . S
O507 Nd481 2.492 . S
O507 C491 1.239 . S
O508 Nd481 2.487 . S
O508 C498 1.241 . S
O509 Nd480 2.414 . S
O509 Nd481 2.682 . S
O509 C498 1.273 . S
O510 Nd481 2.410 . S
O510 C499 1.251 . S
O511 Nd480 2.424 . S
O511 C499 1.268 . S
H512 C484 0.930 . S
H513 C485 0.929 . S
H514 C487 0.930 . S
H515 C488 0.929 . S
H516 C493 0.930 . S
H517 C494 0.929 . S
H518 C496 0.930 . S
H519 C497 0.929 . S
Nd520 C522 2.836 . S
Nd520 O540 2.500 . S
Nd520 O541 2.492 . S
Nd520 O542 2.487 . S
Nd520 O543 2.682 . S
Nd520 O544 2.410 . S
Nd520 O549 2.414 . S
Nd520 O551 2.424 . S
Nd521 C531 2.836 . S
Nd521 O543 2.414 . S
Nd521 O545 2.424 . S
Nd521 O546 2.500 . S
Nd521 O547 2.492 . S
Nd521 O548 2.487 . S
Nd521 O549 2.682 . S
Nd521 O550 2.410 . S
C522 Nd520 2.836 . S
C522 C523 1.498 . S
C522 O540 1.258 . S
C522 O541 1.239 . S
C523 C522 1.498 . S
C523 C524 1.366 . S
C523 C528 1.407 . S
C524 C523 1.366 . S
C524 C525 1.392 . S
C524 H552 0.930 . S
C525 C524 1.392 . S
C525 C526 1.398 . S
C525 H553 0.929 . S
C526 C525 1.398 . S
C526 C527 1.352 . S
C527 C526 1.352 . S
C527 C528 1.384 . S
C527 H554 0.930 . S
C528 C523 1.407 . S
C528 C527 1.384 . S
C528 H555 0.929 . S
C529 O542 1.241 . S
C529 O543 1.273 . S
C530 O544 1.251 . S
C530 O545 1.268 . S
C531 Nd521 2.836 . S
C531 C532 1.498 . S
C531 O546 1.258 . S
C531 O547 1.239 . S
C532 C531 1.498 . S
C532 C533 1.366 . S
C532 C537 1.407 . S
C533 C532 1.366 . S
C533 C534 1.392 . S
C533 H556 0.930 . S
C534 C533 1.392 . S
C534 C535 1.398 . S
C534 H557 0.929 . S
C535 C534 1.398 . S
C535 C536 1.352 . S
C536 C535 1.352 . S
C536 C537 1.384 . S
C536 H558 0.930 . S
C537 C532 1.407 . S
C537 C536 1.384 . S
C537 H559 0.929 . S
C538 O548 1.241 . S
C538 O549 1.273 . S
C539 O550 1.251 . S
C539 O551 1.268 . S
O540 Nd520 2.500 . S
O540 C522 1.258 . S
O541 Nd520 2.492 . S
O541 C522 1.239 . S
O542 Nd520 2.487 . S
O542 C529 1.241 . S
O543 Nd520 2.682 . S
O543 Nd521 2.414 . S
O543 C529 1.273 . S
O544 Nd520 2.410 . S
O544 C530 1.251 . S
O545 Nd521 2.424 . S
O545 C530 1.268 . S
O546 Nd521 2.500 . S
O546 C531 1.258 . S
O547 Nd521 2.492 . S
O547 C531 1.239 . S
O548 Nd521 2.487 . S
O548 C538 1.241 . S
O549 Nd520 2.414 . S
O549 Nd521 2.682 . S
O549 C538 1.273 . S
O550 Nd521 2.410 . S
O550 C539 1.251 . S
O551 Nd520 2.424 . S
O551 C539 1.268 . S
H552 C524 0.930 . S
H553 C525 0.929 . S
H554 C527 0.930 . S
H555 C528 0.929 . S
H556 C533 0.930 . S
H557 C534 0.929 . S
H558 C536 0.930 . S
H559 C537 0.929 . S
Nd560 C562 2.836 . S
Nd560 O580 2.500 . S
Nd560 O581 2.492 . S
Nd560 O582 2.487 . S
Nd560 O583 2.682 . S
Nd560 O584 2.410 . S
Nd560 O589 2.414 . S
Nd560 O591 2.424 . S
Nd561 C571 2.836 . S
Nd561 O583 2.414 . S
Nd561 O585 2.424 . S
Nd561 O586 2.500 . S
Nd561 O587 2.492 . S
Nd561 O588 2.487 . S
Nd561 O589 2.682 . S
Nd561 O590 2.410 . S
C562 Nd560 2.836 . S
C562 C563 1.498 . S
C562 O580 1.258 . S
C562 O581 1.239 . S
C563 C562 1.498 . S
C563 C564 1.366 . S
C563 C568 1.407 . S
C564 C563 1.366 . S
C564 C565 1.392 . S
C564 H592 0.930 . S
C565 C564 1.392 . S
C565 C566 1.398 . S
C565 H593 0.929 . S
C566 C565 1.398 . S
C566 C567 1.352 . S
C567 C566 1.352 . S
C567 C568 1.384 . S
C567 H594 0.930 . S
C568 C563 1.407 . S
C568 C567 1.384 . S
C568 H595 0.929 . S
C569 O582 1.241 . S
C569 O583 1.273 . S
C570 O584 1.251 . S
C570 O585 1.268 . S
C571 Nd561 2.836 . S
C571 C572 1.498 . S
C571 O586 1.258 . S
C571 O587 1.239 . S
C572 C571 1.498 . S
C572 C573 1.366 . S
C572 C577 1.407 . S
C573 C572 1.366 . S
C573 C574 1.392 . S
C573 H596 0.930 . S
C574 C573 1.392 . S
C574 C575 1.398 . S
C574 H597 0.929 . S
C575 C574 1.398 . S
C575 C576 1.352 . S
C576 C575 1.352 . S
C576 C577 1.384 . S
C576 H598 0.930 . S
C577 C572 1.407 . S
C577 C576 1.384 . S
C577 H599 0.929 . S
C578 O588 1.241 . S
C578 O589 1.273 . S
C579 O590 1.251 . S
C579 O591 1.268 . S
O580 Nd560 2.500 . S
O580 C562 1.258 . S
O581 Nd560 2.492 . S
O581 C562 1.239 . S
O582 Nd560 2.487 . S
O582 C569 1.241 . S
O583 Nd560 2.682 . S
O583 Nd561 2.414 . S
O583 C569 1.273 . S
O584 Nd560 2.410 . S
O584 C570 1.251 . S
O585 Nd561 2.424 . S
O585 C570 1.268 . S
O586 Nd561 2.500 . S
O586 C571 1.258 . S
O587 Nd561 2.492 . S
O587 C571 1.239 . S
O588 Nd561 2.487 . S
O588 C578 1.241 . S
O589 Nd560 2.414 . S
O589 Nd561 2.682 . S
O589 C578 1.273 . S
O590 Nd561 2.410 . S
O590 C579 1.251 . S
O591 Nd560 2.424 . S
O591 C579 1.268 . S
H592 C564 0.930 . S
H593 C565 0.929 . S
H594 C567 0.930 . S
H595 C568 0.929 . S
H596 C573 0.930 . S
H597 C574 0.929 . S
H598 C576 0.930 . S
H599 C577 0.929 . S
Nd600 C602 2.836 . S
Nd600 O620 2.500 . S
Nd600 O621 2.492 . S
Nd600 O622 2.487 . S
Nd600 O623 2.682 . S
Nd600 O624 2.410 . S
Nd600 O629 2.414 . S
Nd600 O631 2.424 . S
Nd601 C611 2.836 . S
Nd601 O623 2.414 . S
Nd601 O625 2.424 . S
Nd601 O626 2.500 . S
Nd601 O627 2.492 . S
Nd601 O628 2.487 . S
Nd601 O629 2.682 . S
Nd601 O630 2.410 . S
C602 Nd600 2.836 . S
C602 C603 1.498 . S
C602 O620 1.258 . S
C602 O621 1.239 . S
C603 C602 1.498 . S
C603 C604 1.366 . S
C603 C608 1.407 . S
C604 C603 1.366 . S
C604 C605 1.392 . S
C604 H632 0.930 . S
C605 C604 1.392 . S
C605 C606 1.398 . S
C605 H633 0.929 . S
C606 C605 1.398 . S
C606 C607 1.352 . S
C607 C606 1.352 . S
C607 C608 1.384 . S
C607 H634 0.930 . S
C608 C603 1.407 . S
C608 C607 1.384 . S
C608 H635 0.929 . S
C609 O622 1.241 . S
C609 O623 1.273 . S
C610 O624 1.251 . S
C610 O625 1.268 . S
C611 Nd601 2.836 . S
C611 C612 1.498 . S
C611 O626 1.258 . S
C611 O627 1.239 . S
C612 C611 1.498 . S
C612 C613 1.366 . S
C612 C617 1.407 . S
C613 C612 1.366 . S
C613 C614 1.392 . S
C613 H636 0.930 . S
C614 C613 1.392 . S
C614 C615 1.398 . S
C614 H637 0.929 . S
C615 C614 1.398 . S
C615 C616 1.352 . S
C616 C615 1.352 . S
C616 C617 1.384 . S
C616 H638 0.930 . S
C617 C612 1.407 . S
C617 C616 1.384 . S
C617 H639 0.929 . S
C618 O628 1.241 . S
C618 O629 1.273 . S
C619 O630 1.251 . S
C619 O631 1.268 . S
O620 Nd600 2.500 . S
O620 C602 1.258 . S
O621 Nd600 2.492 . S
O621 C602 1.239 . S
O622 Nd600 2.487 . S
O622 C609 1.241 . S
O623 Nd600 2.682 . S
O623 Nd601 2.414 . S
O623 C609 1.273 . S
O624 Nd600 2.410 . S
O624 C610 1.251 . S
O625 Nd601 2.424 . S
O625 C610 1.268 . S
O626 Nd601 2.500 . S
O626 C611 1.258 . S
O627 Nd601 2.492 . S
O627 C611 1.239 . S
O628 Nd601 2.487 . S
O628 C618 1.241 . S
O629 Nd600 2.414 . S
O629 Nd601 2.682 . S
O629 C618 1.273 . S
O630 Nd601 2.410 . S
O630 C619 1.251 . S
O631 Nd600 2.424 . S
O631 C619 1.268 . S
H632 C604 0.930 . S
H633 C605 0.929 . S
H634 C607 0.930 . S
H635 C608 0.929 . S
H636 C613 0.930 . S
H637 C614 0.929 . S
H638 C616 0.930 . S
H639 C617 0.929 . S
H640 C652 0.930 . S
H641 C654 0.930 . S
H642 C655 0.930 . S
H643 C659 0.959 . S
H644 C659 0.959 . S
H645 C659 0.961 . S
H646 C660 0.960 . S
H647 C660 0.961 . S
H648 C660 0.959 . S
H649 C663 0.929 . S
H650 C664 0.931 . S
H651 C666 0.930 . S
C652 H640 0.930 . S
C652 C653 1.399 . S
C652 C657 1.399 . S
C653 C652 1.399 . S
C653 C654 1.376 . S
C654 H641 0.930 . S
C654 C653 1.376 . S
C654 C655 1.388 . S
C655 H642 0.930 . S
C655 C654 1.388 . S
C655 C656 1.390 . S
C656 C655 1.390 . S
C656 C657 1.394 . S
C656 C662 1.465 . S
C657 C652 1.399 . S
C657 C656 1.394 . S
C657 C658 1.516 . S
C658 C657 1.516 . S
C658 C659 1.502 . S
C658 C660 1.561 . S
C658 C661 1.526 . S
C659 H643 0.959 . S
C659 H644 0.959 . S
C659 H645 0.961 . S
C659 C658 1.502 . S
C660 H646 0.960 . S
C660 H647 0.961 . S
C660 H648 0.959 . S
C660 C658 1.561 . S
C661 C658 1.526 . S
C661 C662 1.396 . S
C661 C666 1.390 . S
C662 C656 1.465 . S
C662 C661 1.396 . S
C662 C663 1.399 . S
C663 H649 0.929 . S
C663 C662 1.399 . S
C663 C664 1.385 . S
C664 H650 0.931 . S
C664 C663 1.385 . S
C664 C665 1.389 . S
C665 C664 1.389 . S
C665 C666 1.387 . S
C666 H651 0.930 . S
C666 C661 1.390 . S
C666 C665 1.387 . S
H667 C679 0.930 . S
H668 C681 0.930 . S
H669 C682 0.930 . S
H670 C686 0.959 . S
H671 C686 0.959 . S
H672 C686 0.961 . S
H673 C687 0.960 . S
H674 C687 0.961 . S
H675 C687 0.959 . S
H676 C690 0.929 . S
H677 C691 0.931 . S
H678 C693 0.930 . S
C679 H667 0.930 . S
C679 C680 1.399 . S
C679 C684 1.399 . S
C680 C679 1.399 . S
C680 C681 1.376 . S
C681 H668 0.930 . S
C681 C680 1.376 . S
C681 C682 1.388 . S
C682 H669 0.930 . S
C682 C681 1.388 . S
C682 C683 1.390 . S
C683 C682 1.390 . S
C683 C684 1.394 . S
C683 C689 1.465 . S
C684 C679 1.399 . S
C684 C683 1.394 . S
C684 C685 1.516 . S
C685 C684 1.516 . S
C685 C686 1.502 . S
C685 C687 1.561 . S
C685 C688 1.526 . S
C686 H670 0.959 . S
C686 H671 0.959 . S
C686 H672 0.961 . S
C686 C685 1.502 . S
C687 H673 0.960 . S
C687 H674 0.961 . S
C687 H675 0.959 . S
C687 C685 1.561 . S
C688 C685 1.526 . S
C688 C689 1.396 . S
C688 C693 1.390 . S
C689 C683 1.465 . S
C689 C688 1.396 . S
C689 C690 1.399 . S
C690 H676 0.929 . S
C690 C689 1.399 . S
C690 C691 1.385 . S
C691 H677 0.931 . S
C691 C690 1.385 . S
C691 C692 1.389 . S
C692 C691 1.389 . S
C692 C693 1.387 . S
C693 H678 0.930 . S
C693 C688 1.390 . S
C693 C692 1.387 . S
H694 C706 0.930 . S
H695 C708 0.930 . S
H696 C709 0.930 . S
H697 C713 0.959 . S
H698 C713 0.959 . S
H699 C713 0.961 . S
H700 C714 0.960 . S
H701 C714 0.961 . S
H702 C714 0.959 . S
H703 C717 0.929 . S
H704 C718 0.931 . S
H705 C720 0.930 . S
C706 H694 0.930 . S
C706 C707 1.399 . S
C706 C711 1.399 . S
C707 C706 1.399 . S
C707 C708 1.376 . S
C708 H695 0.930 . S
C708 C707 1.376 . S
C708 C709 1.388 . S
C709 H696 0.930 . S
C709 C708 1.388 . S
C709 C710 1.390 . S
C710 C709 1.390 . S
C710 C711 1.394 . S
C710 C716 1.465 . S
C711 C706 1.399 . S
C711 C710 1.394 . S
C711 C712 1.516 . S
C712 C711 1.516 . S
C712 C713 1.502 . S
C712 C714 1.561 . S
C712 C715 1.526 . S
C713 H697 0.959 . S
C713 H698 0.959 . S
C713 H699 0.961 . S
C713 C712 1.502 . S
C714 H700 0.960 . S
C714 H701 0.961 . S
C714 H702 0.959 . S
C714 C712 1.561 . S
C715 C712 1.526 . S
C715 C716 1.396 . S
C715 C720 1.390 . S
C716 C710 1.465 . S
C716 C715 1.396 . S
C716 C717 1.399 . S
C717 H703 0.929 . S
C717 C716 1.399 . S
C717 C718 1.385 . S
C718 H704 0.931 . S
C718 C717 1.385 . S
C718 C719 1.389 . S
C719 C718 1.389 . S
C719 C720 1.387 . S
C720 H705 0.930 . S
C720 C715 1.390 . S
C720 C719 1.387 . S
H721 C733 0.930 . S
H722 C735 0.930 . S
H723 C736 0.930 . S
H724 C740 0.959 . S
H725 C740 0.959 . S
H726 C740 0.961 . S
H727 C741 0.960 . S
H728 C741 0.961 . S
H729 C741 0.959 . S
H730 C744 0.929 . S
H731 C745 0.931 . S
H732 C747 0.930 . S
C733 H721 0.930 . S
C733 C734 1.399 . S
C733 C738 1.399 . S
C734 C733 1.399 . S
C734 C735 1.376 . S
C735 H722 0.930 . S
C735 C734 1.376 . S
C735 C736 1.388 . S
C736 H723 0.930 . S
C736 C735 1.388 . S
C736 C737 1.390 . S
C737 C736 1.390 . S
C737 C738 1.394 . S
C737 C743 1.465 . S
C738 C733 1.399 . S
C738 C737 1.394 . S
C738 C739 1.516 . S
C739 C738 1.516 . S
C739 C740 1.502 . S
C739 C741 1.561 . S
C739 C742 1.526 . S
C740 H724 0.959 . S
C740 H725 0.959 . S
C740 H726 0.961 . S
C740 C739 1.502 . S
C741 H727 0.960 . S
C741 H728 0.961 . S
C741 H729 0.959 . S
C741 C739 1.561 . S
C742 C739 1.526 . S
C742 C743 1.396 . S
C742 C747 1.390 . S
C743 C737 1.465 . S
C743 C742 1.396 . S
C743 C744 1.399 . S
C744 H730 0.929 . S
C744 C743 1.399 . S
C744 C745 1.385 . S
C745 H731 0.931 . S
C745 C744 1.385 . S
C745 C746 1.389 . S
C746 C745 1.389 . S
C746 C747 1.387 . S
C747 H732 0.930 . S
C747 C742 1.390 . S
C747 C746 1.387 . S
H748 C760 0.930 . S
H749 C762 0.930 . S
H750 C763 0.930 . S
H751 C767 0.959 . S
H752 C767 0.959 . S
H753 C767 0.961 . S
H754 C768 0.960 . S
H755 C768 0.961 . S
H756 C768 0.959 . S
H757 C771 0.929 . S
H758 C772 0.931 . S
H759 C774 0.930 . S
C760 H748 0.930 . S
C760 C761 1.399 . S
C760 C765 1.399 . S
C761 C760 1.399 . S
C761 C762 1.376 . S
C762 H749 0.930 . S
C762 C761 1.376 . S
C762 C763 1.388 . S
C763 H750 0.930 . S
C763 C762 1.388 . S
C763 C764 1.390 . S
C764 C763 1.390 . S
C764 C765 1.394 . S
C764 C770 1.465 . S
C765 C760 1.399 . S
C765 C764 1.394 . S
C765 C766 1.516 . S
C766 C765 1.516 . S
C766 C767 1.502 . S
C766 C768 1.561 . S
C766 C769 1.526 . S
C767 H751 0.959 . S
C767 H752 0.959 . S
C767 H753 0.961 . S
C767 C766 1.502 . S
C768 H754 0.960 . S
C768 H755 0.961 . S
C768 H756 0.959 . S
C768 C766 1.561 . S
C769 C766 1.526 . S
C769 C770 1.396 . S
C769 C774 1.390 . S
C770 C764 1.465 . S
C770 C769 1.396 . S
C770 C771 1.399 . S
C771 H757 0.929 . S
C771 C770 1.399 . S
C771 C772 1.385 . S
C772 H758 0.931 . S
C772 C771 1.385 . S
C772 C773 1.389 . S
C773 C772 1.389 . S
C773 C774 1.387 . S
C774 H759 0.930 . S
C774 C769 1.390 . S
C774 C773 1.387 . S
H775 C787 0.930 . S
H776 C789 0.930 . S
H777 C790 0.930 . S
H778 C794 0.959 . S
H779 C794 0.959 . S
H780 C794 0.961 . S
H781 C795 0.960 . S
H782 C795 0.961 . S
H783 C795 0.959 . S
H784 C798 0.929 . S
H785 C799 0.931 . S
H786 C801 0.930 . S
C787 H775 0.930 . S
C787 C788 1.399 . S
C787 C792 1.399 . S
C788 C787 1.399 . S
C788 C789 1.376 . S
C789 H776 0.930 . S
C789 C788 1.376 . S
C789 C790 1.388 . S
C790 H777 0.930 . S
C790 C789 1.388 . S
C790 C791 1.390 . S
C791 C790 1.390 . S
C791 C792 1.394 . S
C791 C797 1.465 . S
C792 C787 1.399 . S
C792 C791 1.394 . S
C792 C793 1.516 . S
C793 C792 1.516 . S
C793 C794 1.502 . S
C793 C795 1.561 . S
C793 C796 1.526 . S
C794 H778 0.959 . S
C794 H779 0.959 . S
C794 H780 0.961 . S
C794 C793 1.502 . S
C795 H781 0.960 . S
C795 H782 0.961 . S
C795 H783 0.959 . S
C795 C793 1.561 . S
C796 C793 1.526 . S
C796 C797 1.396 . S
C796 C801 1.390 . S
C797 C791 1.465 . S
C797 C796 1.396 . S
C797 C798 1.399 . S
C798 H784 0.929 . S
C798 C797 1.399 . S
C798 C799 1.385 . S
C799 H785 0.931 . S
C799 C798 1.385 . S
C799 C800 1.389 . S
C800 C799 1.389 . S
C800 C801 1.387 . S
C801 H786 0.930 . S
C801 C796 1.390 . S
C801 C800 1.387 . S
H802 C814 0.930 . S
H803 C816 0.930 . S
H804 C817 0.930 . S
H805 C821 0.959 . S
H806 C821 0.959 . S
H807 C821 0.961 . S
H808 C822 0.960 . S
H809 C822 0.961 . S
H810 C822 0.959 . S
H811 C825 0.929 . S
H812 C826 0.931 . S
H813 C828 0.930 . S
C814 H802 0.930 . S
C814 C815 1.399 . S
C814 C819 1.399 . S
C815 C814 1.399 . S
C815 C816 1.376 . S
C816 H803 0.930 . S
C816 C815 1.376 . S
C816 C817 1.388 . S
C817 H804 0.930 . S
C817 C816 1.388 . S
C817 C818 1.390 . S
C818 C817 1.390 . S
C818 C819 1.394 . S
C818 C824 1.465 . S
C819 C814 1.399 . S
C819 C818 1.394 . S
C819 C820 1.516 . S
C820 C819 1.516 . S
C820 C821 1.502 . S
C820 C822 1.561 . S
C820 C823 1.526 . S
C821 H805 0.959 . S
C821 H806 0.959 . S
C821 H807 0.961 . S
C821 C820 1.502 . S
C822 H808 0.960 . S
C822 H809 0.961 . S
C822 H810 0.959 . S
C822 C820 1.561 . S
C823 C820 1.526 . S
C823 C824 1.396 . S
C823 C828 1.390 . S
C824 C818 1.465 . S
C824 C823 1.396 . S
C824 C825 1.399 . S
C825 H811 0.929 . S
C825 C824 1.399 . S
C825 C826 1.385 . S
C826 H812 0.931 . S
C826 C825 1.385 . S
C826 C827 1.389 . S
C827 C826 1.389 . S
C827 C828 1.387 . S
C828 H813 0.930 . S
C828 C823 1.390 . S
C828 C827 1.387 . S
H829 C841 0.930 . S
H830 C843 0.930 . S
H831 C844 0.930 . S
H832 C848 0.959 . S
H833 C848 0.959 . S
H834 C848 0.961 . S
H835 C849 0.960 . S
H836 C849 0.961 . S
H837 C849 0.959 . S
H838 C852 0.929 . S
H839 C853 0.931 . S
H840 C855 0.930 . S
C841 H829 0.930 . S
C841 C842 1.399 . S
C841 C846 1.399 . S
C842 C841 1.399 . S
C842 C843 1.376 . S
C843 H830 0.930 . S
C843 C842 1.376 . S
C843 C844 1.388 . S
C844 H831 0.930 . S
C844 C843 1.388 . S
C844 C845 1.390 . S
C845 C844 1.390 . S
C845 C846 1.394 . S
C845 C851 1.465 . S
C846 C841 1.399 . S
C846 C845 1.394 . S
C846 C847 1.516 . S
C847 C846 1.516 . S
C847 C848 1.502 . S
C847 C849 1.561 . S
C847 C850 1.526 . S
C848 H832 0.959 . S
C848 H833 0.959 . S
C848 H834 0.961 . S
C848 C847 1.502 . S
C849 H835 0.960 . S
C849 H836 0.961 . S
C849 H837 0.959 . S
C849 C847 1.561 . S
C850 C847 1.526 . S
C850 C851 1.396 . S
C850 C855 1.390 . S
C851 C845 1.465 . S
C851 C850 1.396 . S
C851 C852 1.399 . S
C852 H838 0.929 . S
C852 C851 1.399 . S
C852 C853 1.385 . S
C853 H839 0.931 . S
C853 C852 1.385 . S
C853 C854 1.389 . S
C854 C853 1.389 . S
C854 C855 1.387 . S
C855 H840 0.930 . S
C855 C850 1.390 . S
C855 C854 1.387 . S
H856 C868 0.930 . S
H857 C870 0.930 . S
H858 C871 0.930 1_545 S
H859 C875 0.959 1_545 S
H860 C875 0.959 . S
H861 C875 0.961 . S
H862 C876 0.960 . S
H863 C876 0.961 . S
H864 C876 0.959 . S
H865 C879 0.929 . S
H866 C880 0.931 . S
H867 C882 0.930 . S
C868 H856 0.930 . S
C868 C869 1.399 . S
C868 C873 1.399 . S
C869 C868 1.399 . S
C869 C870 1.376 . S
C870 H857 0.930 . S
C870 C869 1.376 . S
C870 C871 1.388 . S
C871 H858 0.930 1_565 S
C871 C870 1.388 . S
C871 C872 1.390 . S
C872 C871 1.390 . S
C872 C873 1.394 . S
C872 C878 1.465 1_565 S
C873 C868 1.399 . S
C873 C872 1.394 . S
C873 C874 1.516 . S
C874 C873 1.516 . S
C874 C875 1.502 . S
C874 C876 1.561 . S
C874 C877 1.526 1_565 S
C875 H859 0.959 1_565 S
C875 H860 0.959 . S
C875 H861 0.961 . S
C875 C874 1.502 . S
C876 H862 0.960 . S
C876 H863 0.961 . S
C876 H864 0.959 . S
C876 C874 1.561 . S
C877 C874 1.526 1_545 S
C877 C878 1.396 . S
C877 C882 1.390 . S
C878 C872 1.465 1_545 S
C878 C877 1.396 . S
C878 C879 1.399 . S
C879 H865 0.929 . S
C879 C878 1.399 . S
C879 C880 1.385 . S
C880 H866 0.931 . S
C880 C879 1.385 . S
C880 C881 1.389 . S
C881 C880 1.389 . S
C881 C882 1.387 . S
C882 H867 0.930 . S
C882 C877 1.390 . S
C882 C881 1.387 . S
H883 C895 0.930 . S
H884 C897 0.930 . S
H885 C898 0.930 . S
H886 C902 0.959 . S
H887 C902 0.959 . S
H888 C902 0.961 . S
H889 C903 0.960 . S
H890 C903 0.961 . S
H891 C903 0.959 . S
H892 C906 0.929 . S
H893 C907 0.931 . S
H894 C909 0.930 . S
C895 H883 0.930 . S
C895 C896 1.399 . S
C895 C900 1.399 . S
C896 C895 1.399 . S
C896 C897 1.376 1_545 S
C897 H884 0.930 . S
C897 C896 1.376 1_565 S
C897 C898 1.388 . S
C898 H885 0.930 . S
C898 C897 1.388 . S
C898 C899 1.390 . S
C899 C898 1.390 . S
C899 C900 1.394 1_565 S
C899 C905 1.465 . S
C900 C895 1.399 . S
C900 C899 1.394 1_545 S
C900 C901 1.516 . S
C901 C900 1.516 . S
C901 C902 1.502 . S
C901 C903 1.561 . S
C901 C904 1.526 . S
C902 H886 0.959 . S
C902 H887 0.959 . S
C902 H888 0.961 . S
C902 C901 1.502 . S
C903 H889 0.960 . S
C903 H890 0.961 . S
C903 H891 0.959 . S
C903 C901 1.561 . S
C904 C901 1.526 . S
C904 C905 1.396 1_545 S
C904 C909 1.390 . S
C905 C899 1.465 . S
C905 C904 1.396 1_565 S
C905 C906 1.399 . S
C906 H892 0.929 . S
C906 C905 1.399 . S
C906 C907 1.385 . S
C907 H893 0.931 . S
C907 C906 1.385 . S
C907 C908 1.389 . S
C908 C907 1.389 . S
C908 C909 1.387 1_565 S
C909 H894 0.930 . S
C909 C904 1.390 . S
C909 C908 1.387 1_545 S
H910 C922 0.930 . S
H911 C924 0.930 . S
H912 C925 0.930 . S
H913 C929 0.959 . S
H914 C929 0.959 . S
H915 C929 0.961 . S
H916 C930 0.960 . S
H917 C930 0.961 . S
H918 C930 0.959 . S
H919 C933 0.929 . S
H920 C934 0.931 . S
H921 C936 0.930 . S
C922 H910 0.930 . S
C922 C923 1.399 . S
C922 C927 1.399 . S
C923 C922 1.399 . S
C923 C924 1.376 1_545 S
C924 H911 0.930 . S
C924 C923 1.376 1_565 S
C924 C925 1.388 . S
C925 H912 0.930 . S
C925 C924 1.388 . S
C925 C926 1.390 . S
C926 C925 1.390 . S
C926 C927 1.394 1_565 S
C926 C932 1.465 . S
C927 C922 1.399 . S
C927 C926 1.394 1_545 S
C927 C928 1.516 . S
C928 C927 1.516 . S
C928 C929 1.502 . S
C928 C930 1.561 . S
C928 C931 1.526 . S
C929 H913 0.959 . S
C929 H914 0.959 . S
C929 H915 0.961 . S
C929 C928 1.502 . S
C930 H916 0.960 . S
C930 H917 0.961 . S
C930 H918 0.959 . S
C930 C928 1.561 . S
C931 C928 1.526 . S
C931 C932 1.396 1_545 S
C931 C936 1.390 . S
C932 C926 1.465 . S
C932 C931 1.396 1_565 S
C932 C933 1.399 . S
C933 H919 0.929 . S
C933 C932 1.399 . S
C933 C934 1.385 . S
C934 H920 0.931 . S
C934 C933 1.385 . S
C934 C935 1.389 . S
C935 C934 1.389 . S
C935 C936 1.387 1_565 S
C936 H921 0.930 . S
C936 C931 1.390 . S
C936 C935 1.387 1_545 S
H937 C949 0.930 . S
H938 C951 0.930 . S
H939 C952 0.930 . S
H940 C956 0.959 . S
H941 C956 0.959 . S
H942 C956 0.961 . S
H943 C957 0.960 . S
H944 C957 0.961 . S
H945 C957 0.959 . S
H946 C960 0.929 . S
H947 C961 0.931 . S
H948 C963 0.930 . S
C949 H937 0.930 . S
C949 C950 1.399 . S
C949 C954 1.399 . S
C950 C949 1.399 . S
C950 C951 1.376 1_545 S
C951 H938 0.930 . S
C951 C950 1.376 1_565 S
C951 C952 1.388 . S
C952 H939 0.930 . S
C952 C951 1.388 . S
C952 C953 1.390 . S
C953 C952 1.390 . S
C953 C954 1.394 1_565 S
C953 C959 1.465 . S
C954 C949 1.399 . S
C954 C953 1.394 1_545 S
C954 C955 1.516 . S
C955 C954 1.516 . S
C955 C956 1.502 . S
C955 C957 1.561 . S
C955 C958 1.526 . S
C956 H940 0.959 . S
C956 H941 0.959 . S
C956 H942 0.961 . S
C956 C955 1.502 . S
C957 H943 0.960 . S
C957 H944 0.961 . S
C957 H945 0.959 . S
C957 C955 1.561 . S
C958 C955 1.526 . S
C958 C959 1.396 1_545 S
C958 C963 1.390 . S
C959 C953 1.465 . S
C959 C958 1.396 1_565 S
C959 C960 1.399 . S
C960 H946 0.929 . S
C960 C959 1.399 . S
C960 C961 1.385 . S
C961 H947 0.931 . S
C961 C960 1.385 . S
C961 C962 1.389 . S
C962 C961 1.389 . S
C962 C963 1.387 1_565 S
C963 H948 0.930 . S
C963 C958 1.390 . S
C963 C962 1.387 1_545 S
H964 C976 0.930 . S
H965 C978 0.930 . S
H966 C979 0.930 . S
H967 C983 0.959 . S
H968 C983 0.959 . S
H969 C983 0.961 . S
H970 C984 0.960 . S
H971 C984 0.961 . S
H972 C984 0.959 . S
H973 C987 0.929 . S
H974 C988 0.931 . S
H975 C990 0.930 . S
C976 H964 0.930 . S
C976 C977 1.399 . S
C976 C981 1.399 . S
C977 C976 1.399 . S
C977 C978 1.376 . S
C978 H965 0.930 . S
C978 C977 1.376 . S
C978 C979 1.388 . S
C979 H966 0.930 . S
C979 C978 1.388 . S
C979 C980 1.390 . S
C980 C979 1.390 . S
C980 C981 1.394 . S
C980 C986 1.465 . S
C981 C976 1.399 . S
C981 C980 1.394 . S
C981 C982 1.516 . S
C982 C981 1.516 . S
C982 C983 1.502 . S
C982 C984 1.561 . S
C982 C985 1.526 . S
C983 H967 0.959 . S
C983 H968 0.959 . S
C983 H969 0.961 . S
C983 C982 1.502 . S
C984 H970 0.960 . S
C984 H971 0.961 . S
C984 H972 0.959 . S
C984 C982 1.561 . S
C985 C982 1.526 . S
C985 C986 1.396 . S
C985 C990 1.390 . S
C986 C980 1.465 . S
C986 C985 1.396 . S
C986 C987 1.399 . S
C987 H973 0.929 . S
C987 C986 1.399 . S
C987 C988 1.385 . S
C988 H974 0.931 . S
C988 C987 1.385 . S
C988 C989 1.389 . S
C989 C988 1.389 . S
C989 C990 1.387 . S
C990 H975 0.930 . S
C990 C985 1.390 . S
C990 C989 1.387 . S
H991 C1003 0.930 . S
H992 C1005 0.930 . S
H993 C1006 0.930 . S
H994 C1010 0.959 . S
H995 C1010 0.959 . S
H996 C1010 0.961 . S
H997 C1011 0.960 . S
H998 C1011 0.961 . S
H999 C1011 0.959 . S
H1000 C1014 0.929 . S
H1001 C1015 0.931 . S
H1002 C1017 0.930 . S
C1003 H991 0.930 . S
C1003 C1004 1.399 . S
C1003 C1008 1.399 . S
C1004 C1003 1.399 . S
C1004 C1005 1.376 . S
C1005 H992 0.930 . S
C1005 C1004 1.376 . S
C1005 C1006 1.388 . S
C1006 H993 0.930 . S
C1006 C1005 1.388 . S
C1006 C1007 1.390 . S
C1007 C1006 1.390 . S
C1007 C1008 1.394 . S
C1007 C1013 1.465 . S
C1008 C1003 1.399 . S
C1008 C1007 1.394 . S
C1008 C1009 1.516 . S
C1009 C1008 1.516 . S
C1009 C1010 1.502 . S
C1009 C1011 1.561 . S
C1009 C1012 1.526 . S
C1010 H994 0.959 . S
C1010 H995 0.959 . S
C1010 H996 0.961 . S
C1010 C1009 1.502 . S
C1011 H997 0.960 . S
C1011 H998 0.961 . S
C1011 H999 0.959 . S
C1011 C1009 1.561 . S
C1012 C1009 1.526 . S
C1012 C1013 1.396 . S
C1012 C1017 1.390 . S
C1013 C1007 1.465 . S
C1013 C1012 1.396 . S
C1013 C1014 1.399 . S
C1014 H1000 0.929 . S
C1014 C1013 1.399 . S
C1014 C1015 1.385 . S
C1015 H1001 0.931 . S
C1015 C1014 1.385 . S
C1015 C1016 1.389 . S
C1016 C1015 1.389 . S
C1016 C1017 1.387 . S
C1017 H1002 0.930 . S
C1017 C1012 1.390 . S
C1017 C1016 1.387 . S
H1018 C1030 0.930 . S
H1019 C1032 0.930 . S
H1020 C1033 0.930 . S
H1021 C1037 0.959 . S
H1022 C1037 0.959 . S
H1023 C1037 0.961 . S
H1024 C1038 0.960 . S
H1025 C1038 0.961 . S
H1026 C1038 0.959 . S
H1027 C1041 0.929 . S
H1028 C1042 0.931 . S
H1029 C1044 0.930 . S
C1030 H1018 0.930 . S
C1030 C1031 1.399 . S
C1030 C1035 1.399 . S
C1031 C1030 1.399 . S
C1031 C1032 1.376 . S
C1032 H1019 0.930 . S
C1032 C1031 1.376 . S
C1032 C1033 1.388 . S
C1033 H1020 0.930 . S
C1033 C1032 1.388 . S
C1033 C1034 1.390 . S
C1034 C1033 1.390 . S
C1034 C1035 1.394 . S
C1034 C1040 1.465 . S
C1035 C1030 1.399 . S
C1035 C1034 1.394 . S
C1035 C1036 1.516 . S
C1036 C1035 1.516 . S
C1036 C1037 1.502 . S
C1036 C1038 1.561 . S
C1036 C1039 1.526 . S
C1037 H1021 0.959 . S
C1037 H1022 0.959 . S
C1037 H1023 0.961 . S
C1037 C1036 1.502 . S
C1038 H1024 0.960 . S
C1038 H1025 0.961 . S
C1038 H1026 0.959 . S
C1038 C1036 1.561 . S
C1039 C1036 1.526 . S
C1039 C1040 1.396 . S
C1039 C1044 1.390 . S
C1040 C1034 1.465 . S
C1040 C1039 1.396 . S
C1040 C1041 1.399 . S
C1041 H1027 0.929 . S
C1041 C1040 1.399 . S
C1041 C1042 1.385 . S
C1042 H1028 0.931 . S
C1042 C1041 1.385 . S
C1042 C1043 1.389 . S
C1043 C1042 1.389 . S
C1043 C1044 1.387 . S
C1044 H1029 0.930 . S
C1044 C1039 1.390 . S
C1044 C1043 1.387 . S
H1045 C1057 0.930 . S
H1046 C1059 0.930 . S
H1047 C1060 0.930 . S
H1048 C1064 0.959 . S
H1049 C1064 0.959 . S
H1050 C1064 0.961 . S
H1051 C1065 0.960 . S
H1052 C1065 0.961 . S
H1053 C1065 0.959 . S
H1054 C1068 0.929 . S
H1055 C1069 0.931 . S
H1056 C1071 0.930 . S
C1057 H1045 0.930 . S
C1057 C1058 1.399 . S
C1057 C1062 1.399 . S
C1058 C1057 1.399 . S
C1058 C1059 1.376 . S
C1059 H1046 0.930 . S
C1059 C1058 1.376 . S
C1059 C1060 1.388 . S
C1060 H1047 0.930 . S
C1060 C1059 1.388 . S
C1060 C1061 1.390 . S
C1061 C1060 1.390 . S
C1061 C1062 1.394 . S
C1061 C1067 1.465 . S
C1062 C1057 1.399 . S
C1062 C1061 1.394 . S
C1062 C1063 1.516 . S
C1063 C1062 1.516 . S
C1063 C1064 1.502 . S
C1063 C1065 1.561 . S
C1063 C1066 1.526 . S
C1064 H1048 0.959 . S
C1064 H1049 0.959 . S
C1064 H1050 0.961 . S
C1064 C1063 1.502 . S
C1065 H1051 0.960 . S
C1065 H1052 0.961 . S
C1065 H1053 0.959 . S
C1065 C1063 1.561 . S
C1066 C1063 1.526 . S
C1066 C1067 1.396 . S
C1066 C1071 1.390 . S
C1067 C1061 1.465 . S
C1067 C1066 1.396 . S
C1067 C1068 1.399 . S
C1068 H1054 0.929 . S
C1068 C1067 1.399 . S
C1068 C1069 1.385 . S
C1069 H1055 0.931 . S
C1069 C1068 1.385 . S
C1069 C1070 1.389 . S
C1070 C1069 1.389 . S
C1070 C1071 1.387 . S
C1071 H1056 0.930 . S
C1071 C1066 1.390 . S
C1071 C1070 1.387 . S
H1072 C1084 0.930 . S
H1073 C1086 0.930 . S
H1074 C1087 0.930 . S
H1075 C1091 0.962 . S
H1076 C1091 0.979 . S
H1077 C1091 0.940 1_556 S
H1078 C1092 0.958 1_556 S
H1079 C1092 0.963 . S
H1080 C1092 0.959 . S
H1081 C1095 0.929 . S
H1082 C1096 0.931 . S
H1083 C1098 0.930 . S
C1084 H1072 0.930 . S
C1084 C1085 1.399 . S
C1084 C1089 1.399 . S
C1085 C1084 1.399 . S
C1085 C1086 1.376 . S
C1086 H1073 0.930 . S
C1086 C1085 1.376 . S
C1086 C1087 1.388 . S
C1087 H1074 0.930 . S
C1087 C1086 1.388 . S
C1087 C1088 1.390 . S
C1088 C1087 1.390 . S
C1088 C1089 1.394 . S
C1088 C1094 1.465 1_556 S
C1089 C1084 1.399 . S
C1089 C1088 1.394 . S
C1089 C1090 1.517 1_556 S
C1090 C1089 1.517 1_554 S
C1090 C1091 1.502 . S
C1090 C1092 1.561 . S
C1090 C1093 1.525 . S
C1091 H1075 0.962 . S
C1091 H1076 0.979 . S
C1091 H1077 0.940 1_554 S
C1091 C1090 1.502 . S
C1092 H1078 0.958 1_554 S
C1092 H1079 0.963 . S
C1092 H1080 0.959 . S
C1092 C1090 1.561 . S
C1093 C1090 1.525 . S
C1093 C1094 1.396 . S
C1093 C1098 1.390 . S
C1094 C1088 1.465 1_554 S
C1094 C1093 1.396 . S
C1094 C1095 1.399 . S
C1095 H1081 0.929 . S
C1095 C1094 1.399 . S
C1095 C1096 1.385 . S
C1096 H1082 0.931 . S
C1096 C1095 1.385 . S
C1096 C1097 1.389 . S
C1097 C1096 1.389 . S
C1097 C1098 1.387 . S
C1098 H1083 0.930 . S
C1098 C1093 1.390 . S
C1098 C1097 1.387 . S
H1099 C1111 0.930 . S
H1100 C1113 0.930 . S
H1101 C1114 0.930 1_545 S
H1102 C1118 0.962 . S
H1103 C1118 0.979 . S
H1104 C1118 0.940 1_556 S
H1105 C1119 0.958 1_556 S
H1106 C1119 0.963 . S
H1107 C1119 0.959 . S
H1108 C1122 0.929 1_545 S
H1109 C1123 0.931 . S
H1110 C1125 0.930 . S
C1111 H1099 0.930 . S
C1111 C1112 1.399 . S
C1111 C1116 1.399 . S
C1112 C1111 1.399 . S
C1112 C1113 1.376 . S
C1113 H1100 0.930 . S
C1113 C1112 1.376 . S
C1113 C1114 1.388 . S
C1114 H1101 0.930 1_565 S
C1114 C1113 1.388 . S
C1114 C1115 1.390 . S
C1115 C1114 1.390 . S
C1115 C1116 1.394 . S
C1115 C1121 1.465 1_556 S
C1116 C1111 1.399 . S
C1116 C1115 1.394 . S
C1116 C1117 1.517 1_556 S
C1117 C1116 1.517 1_554 S
C1117 C1118 1.502 . S
C1117 C1119 1.561 . S
C1117 C1120 1.525 . S
C1118 H1102 0.962 . S
C1118 H1103 0.979 . S
C1118 H1104 0.940 1_554 S
C1118 C1117 1.502 . S
C1119 H1105 0.958 1_554 S
C1119 H1106 0.963 . S
C1119 H1107 0.959 . S
C1119 C1117 1.561 . S
C1120 C1117 1.525 . S
C1120 C1121 1.396 . S
C1120 C1125 1.390 . S
C1121 C1115 1.465 1_554 S
C1121 C1120 1.396 . S
C1121 C1122 1.399 . S
C1122 H1108 0.929 1_565 S
C1122 C1121 1.399 . S
C1122 C1123 1.385 . S
C1123 H1109 0.931 . S
C1123 C1122 1.385 . S
C1123 C1124 1.389 . S
C1124 C1123 1.389 . S
C1124 C1125 1.387 . S
C1125 H1110 0.930 . S
C1125 C1120 1.390 . S
C1125 C1124 1.387 . S
H1126 C1138 0.930 . S
H1127 C1140 0.930 . S
H1128 C1141 0.930 1_545 S
H1129 C1145 0.959 . S
H1130 C1145 0.959 . S
H1131 C1145 0.961 . S
H1132 C1146 0.960 . S
H1133 C1146 0.961 . S
H1134 C1146 0.959 . S
H1135 C1149 0.929 1_545 S
H1136 C1150 0.931 . S
H1137 C1152 0.930 . S
C1138 H1126 0.930 . S
C1138 C1139 1.399 . S
C1138 C1143 1.399 . S
C1139 C1138 1.399 . S
C1139 C1140 1.376 . S
C1140 H1127 0.930 . S
C1140 C1139 1.376 . S
C1140 C1141 1.388 . S
C1141 H1128 0.930 1_565 S
C1141 C1140 1.388 . S
C1141 C1142 1.390 . S
C1142 C1141 1.390 . S
C1142 C1143 1.394 . S
C1142 C1148 1.465 . S
C1143 C1138 1.399 . S
C1143 C1142 1.394 . S
C1143 C1144 1.516 . S
C1144 C1143 1.516 . S
C1144 C1145 1.502 . S
C1144 C1146 1.561 . S
C1144 C1147 1.526 . S
C1145 H1129 0.959 . S
C1145 H1130 0.959 . S
C1145 H1131 0.961 . S
C1145 C1144 1.502 . S
C1146 H1132 0.960 . S
C1146 H1133 0.961 . S
C1146 H1134 0.959 . S
C1146 C1144 1.561 . S
C1147 C1144 1.526 . S
C1147 C1148 1.396 . S
C1147 C1152 1.390 . S
C1148 C1142 1.465 . S
C1148 C1147 1.396 . S
C1148 C1149 1.399 . S
C1149 H1135 0.929 1_565 S
C1149 C1148 1.399 . S
C1149 C1150 1.385 . S
C1150 H1136 0.931 . S
C1150 C1149 1.385 . S
C1150 C1151 1.389 . S
C1151 C1150 1.389 . S
C1151 C1152 1.387 . S
C1152 H1137 0.930 . S
C1152 C1147 1.390 . S
C1152 C1151 1.387 . S
H1153 C1165 0.930 . S
H1154 C1167 0.930 . S
H1155 C1168 0.930 1_565 S
H1156 C1172 0.959 . S
H1157 C1172 0.959 . S
H1158 C1172 0.961 . S
H1159 C1173 0.960 . S
H1160 C1173 0.961 . S
H1161 C1173 0.959 . S
H1162 C1176 0.929 1_565 S
H1163 C1177 0.931 . S
H1164 C1179 0.930 . S
C1165 H1153 0.930 . S
C1165 C1166 1.399 . S
C1165 C1170 1.399 . S
C1166 C1165 1.399 . S
C1166 C1167 1.376 . S
C1167 H1154 0.930 . S
C1167 C1166 1.376 . S
C1167 C1168 1.388 . S
C1168 H1155 0.930 1_545 S
C1168 C1167 1.388 . S
C1168 C1169 1.390 . S
C1169 C1168 1.390 . S
C1169 C1170 1.394 . S
C1169 C1175 1.465 . S
C1170 C1165 1.399 . S
C1170 C1169 1.394 . S
C1170 C1171 1.516 . S
C1171 C1170 1.516 . S
C1171 C1172 1.502 . S
C1171 C1173 1.561 . S
C1171 C1174 1.526 . S
C1172 H1156 0.959 . S
C1172 H1157 0.959 . S
C1172 H1158 0.961 . S
C1172 C1171 1.502 . S
C1173 H1159 0.960 . S
C1173 H1160 0.961 . S
C1173 H1161 0.959 . S
C1173 C1171 1.561 . S
C1174 C1171 1.526 . S
C1174 C1175 1.396 . S
C1174 C1179 1.390 . S
C1175 C1169 1.465 . S
C1175 C1174 1.396 . S
C1175 C1176 1.399 . S
C1176 H1162 0.929 1_545 S
C1176 C1175 1.399 . S
C1176 C1177 1.385 . S
C1177 H1163 0.931 . S
C1177 C1176 1.385 . S
C1177 C1178 1.389 . S
C1178 C1177 1.389 . S
C1178 C1179 1.387 . S
C1179 H1164 0.930 . S
C1179 C1174 1.390 . S
C1179 C1178 1.387 . S
H1180 C1192 0.930 . S
H1181 C1194 0.930 . S
H1182 C1195 0.930 . S
H1183 C1199 0.962 . S
H1184 C1199 0.979 . S
H1185 C1199 0.940 1_554 S
H1186 C1200 0.958 1_554 S
H1187 C1200 0.963 . S
H1188 C1200 0.959 . S
H1189 C1203 0.929 . S
H1190 C1204 0.931 . S
H1191 C1206 0.930 . S
C1192 H1180 0.930 . S
C1192 C1193 1.399 . S
C1192 C1197 1.399 . S
C1193 C1192 1.399 . S
C1193 C1194 1.376 . S
C1194 H1181 0.930 . S
C1194 C1193 1.376 . S
C1194 C1195 1.388 . S
C1195 H1182 0.930 . S
C1195 C1194 1.388 . S
C1195 C1196 1.390 . S
C1196 C1195 1.390 . S
C1196 C1197 1.394 . S
C1196 C1202 1.465 1_554 S
C1197 C1192 1.399 . S
C1197 C1196 1.394 . S
C1197 C1198 1.517 1_554 S
C1198 C1197 1.517 1_556 S
C1198 C1199 1.502 . S
C1198 C1200 1.561 . S
C1198 C1201 1.525 . S
C1199 H1183 0.962 . S
C1199 H1184 0.979 . S
C1199 H1185 0.940 1_556 S
C1199 C1198 1.502 . S
C1200 H1186 0.958 1_556 S
C1200 H1187 0.963 . S
C1200 H1188 0.959 . S
C1200 C1198 1.561 . S
C1201 C1198 1.525 . S
C1201 C1202 1.396 . S
C1201 C1206 1.390 . S
C1202 C1196 1.465 1_556 S
C1202 C1201 1.396 . S
C1202 C1203 1.399 . S
C1203 H1189 0.929 . S
C1203 C1202 1.399 . S
C1203 C1204 1.385 . S
C1204 H1190 0.931 . S
C1204 C1203 1.385 . S
C1204 C1205 1.389 . S
C1205 C1204 1.389 . S
C1205 C1206 1.387 . S
C1206 H1191 0.930 . S
C1206 C1201 1.390 . S
C1206 C1205 1.387 . S
H1207 C1219 0.930 . S
H1208 C1221 0.930 . S
H1209 C1222 0.930 . S
H1210 C1226 0.962 . S
H1211 C1226 0.979 . S
H1212 C1226 0.940 1_556 S
H1213 C1227 0.958 1_556 S
H1214 C1227 0.963 . S
H1215 C1227 0.959 . S
H1216 C1230 0.929 . S
H1217 C1231 0.931 . S
H1218 C1233 0.930 . S
C1219 H1207 0.930 . S
C1219 C1220 1.399 . S
C1219 C1224 1.399 . S
C1220 C1219 1.399 . S
C1220 C1221 1.376 . S
C1221 H1208 0.930 . S
C1221 C1220 1.376 . S
C1221 C1222 1.388 . S
C1222 H1209 0.930 . S
C1222 C1221 1.388 . S
C1222 C1223 1.390 . S
C1223 C1222 1.390 . S
C1223 C1224 1.394 . S
C1223 C1229 1.465 1_556 S
C1224 C1219 1.399 . S
C1224 C1223 1.394 . S
C1224 C1225 1.517 1_556 S
C1225 C1224 1.517 1_554 S
C1225 C1226 1.502 . S
C1225 C1227 1.561 . S
C1225 C1228 1.525 . S
C1226 H1210 0.962 . S
C1226 H1211 0.979 . S
C1226 H1212 0.940 1_554 S
C1226 C1225 1.502 . S
C1227 H1213 0.958 1_554 S
C1227 H1214 0.963 . S
C1227 H1215 0.959 . S
C1227 C1225 1.561 . S
C1228 C1225 1.525 . S
C1228 C1229 1.396 . S
C1228 C1233 1.390 . S
C1229 C1223 1.465 1_554 S
C1229 C1228 1.396 . S
C1229 C1230 1.399 . S
C1230 H1216 0.929 . S
C1230 C1229 1.399 . S
C1230 C1231 1.385 . S
C1231 H1217 0.931 . S
C1231 C1230 1.385 . S
C1231 C1232 1.389 . S
C1232 C1231 1.389 . S
C1232 C1233 1.387 . S
C1233 H1218 0.930 . S
C1233 C1228 1.390 . S
C1233 C1232 1.387 . S
H1234 C1246 0.930 . S
H1235 C1248 0.930 . S
H1236 C1249 0.930 . S
H1237 C1253 0.959 . S
H1238 C1253 0.959 . S
H1239 C1253 0.961 . S
H1240 C1254 0.960 . S
H1241 C1254 0.961 . S
H1242 C1254 0.959 . S
H1243 C1257 0.929 . S
H1244 C1258 0.931 . S
H1245 C1260 0.930 . S
C1246 H1234 0.930 . S
C1246 C1247 1.399 . S
C1246 C1251 1.399 . S
C1247 C1246 1.399 . S
C1247 C1248 1.376 . S
C1248 H1235 0.930 . S
C1248 C1247 1.376 . S
C1248 C1249 1.388 . S
C1249 H1236 0.930 . S
C1249 C1248 1.388 . S
C1249 C1250 1.390 . S
C1250 C1249 1.390 . S
C1250 C1251 1.394 . S
C1250 C1256 1.465 . S
C1251 C1246 1.399 . S
C1251 C1250 1.394 . S
C1251 C1252 1.516 . S
C1252 C1251 1.516 . S
C1252 C1253 1.502 . S
C1252 C1254 1.561 . S
C1252 C1255 1.526 . S
C1253 H1237 0.959 . S
C1253 H1238 0.959 . S
C1253 H1239 0.961 . S
C1253 C1252 1.502 . S
C1254 H1240 0.960 . S
C1254 H1241 0.961 . S
C1254 H1242 0.959 . S
C1254 C1252 1.561 . S
C1255 C1252 1.526 . S
C1255 C1256 1.396 . S
C1255 C1260 1.390 . S
C1256 C1250 1.465 . S
C1256 C1255 1.396 . S
C1256 C1257 1.399 . S
C1257 H1243 0.929 . S
C1257 C1256 1.399 . S
C1257 C1258 1.385 . S
C1258 H1244 0.931 . S
C1258 C1257 1.385 . S
C1258 C1259 1.389 . S
C1259 C1258 1.389 . S
C1259 C1260 1.387 . S
C1260 H1245 0.930 . S
C1260 C1255 1.390 . S
C1260 C1259 1.387 . S
H1261 C1273 0.930 . S
H1262 C1275 0.930 . S
H1263 C1276 0.930 . S
H1264 C1280 0.959 . S
H1265 C1280 0.959 . S
H1266 C1280 0.961 . S
H1267 C1281 0.960 . S
H1268 C1281 0.961 . S
H1269 C1281 0.959 . S
H1270 C1284 0.929 . S
H1271 C1285 0.931 . S
H1272 C1287 0.930 . S
C1273 H1261 0.930 . S
C1273 C1274 1.399 . S
C1273 C1278 1.399 . S
C1274 C1273 1.399 . S
C1274 C1275 1.376 . S
C1275 H1262 0.930 . S
C1275 C1274 1.376 . S
C1275 C1276 1.388 . S
C1276 H1263 0.930 . S
C1276 C1275 1.388 . S
C1276 C1277 1.390 . S
C1277 C1276 1.390 . S
C1277 C1278 1.394 . S
C1277 C1283 1.465 . S
C1278 C1273 1.399 . S
C1278 C1277 1.394 . S
C1278 C1279 1.516 . S
C1279 C1278 1.516 . S
C1279 C1280 1.502 . S
C1279 C1281 1.561 . S
C1279 C1282 1.526 . S
C1280 H1264 0.959 . S
C1280 H1265 0.959 . S
C1280 H1266 0.961 . S
C1280 C1279 1.502 . S
C1281 H1267 0.960 . S
C1281 H1268 0.961 . S
C1281 H1269 0.959 . S
C1281 C1279 1.561 . S
C1282 C1279 1.526 . S
C1282 C1283 1.396 . S
C1282 C1287 1.390 . S
C1283 C1277 1.465 . S
C1283 C1282 1.396 . S
C1283 C1284 1.399 . S
C1284 H1270 0.929 . S
C1284 C1283 1.399 . S
C1284 C1285 1.385 . S
C1285 H1271 0.931 . S
C1285 C1284 1.385 . S
C1285 C1286 1.389 . S
C1286 C1285 1.389 . S
C1286 C1287 1.387 . S
C1287 H1272 0.930 . S
C1287 C1282 1.390 . S
C1287 C1286 1.387 . S
H1288 C1300 0.930 . S
H1289 C1302 0.930 . S
H1290 C1303 0.930 . S
H1291 C1307 0.959 . S
H1292 C1307 0.959 . S
H1293 C1307 0.961 . S
H1294 C1308 1.009 1_545 S
H1295 C1308 0.909 1_455 S
H1296 C1308 0.979 . S
H1297 C1311 0.929 . S
H1298 C1312 0.931 . S
H1299 C1314 0.930 . S
C1300 H1288 0.930 . S
C1300 C1301 1.399 . S
C1300 C1305 1.399 . S
C1301 C1300 1.399 . S
C1301 C1302 1.376 . S
C1302 H1289 0.930 . S
C1302 C1301 1.376 . S
C1302 C1303 1.388 1_545 S
C1303 H1290 0.930 . S
C1303 C1302 1.388 1_565 S
C1303 C1304 1.390 . S
C1304 C1303 1.390 . S
C1304 C1305 1.394 1_565 S
C1304 C1310 1.465 1_655 S
C1305 C1300 1.399 . S
C1305 C1304 1.394 1_545 S
C1305 C1306 1.516 1_655 S
C1306 C1305 1.516 1_455 S
C1306 C1307 1.502 . S
C1306 C1308 1.550 1_445 S
C1306 C1309 1.526 1_545 S
C1307 H1291 0.959 . S
C1307 H1292 0.959 . S
C1307 H1293 0.961 . S
C1307 C1306 1.502 . S
C1308 H1294 1.009 1_565 S
C1308 H1295 0.909 1_655 S
C1308 H1296 0.979 . S
C1308 C1306 1.550 1_665 S
C1309 C1306 1.526 1_565 S
C1309 C1310 1.396 . S
C1309 C1314 1.390 . S
C1310 C1304 1.465 1_455 S
C1310 C1309 1.396 . S
C1310 C1311 1.399 . S
C1311 H1297 0.929 . S
C1311 C1310 1.399 . S
C1311 C1312 1.385 . S
C1312 H1298 0.931 . S
C1312 C1311 1.385 . S
C1312 C1313 1.389 . S
C1313 C1312 1.389 . S
C1313 C1314 1.387 . S
C1314 H1299 0.930 . S
C1314 C1309 1.390 . S
C1314 C1313 1.387 . S
H1315 C1327 0.930 . S
H1316 C1329 0.930 . S
H1317 C1330 0.930 . S
H1318 C1334 0.959 . S
H1319 C1334 0.959 1_455 S
H1320 C1334 0.961 . S
H1321 C1335 0.960 1_655 S
H1322 C1335 0.961 . S
H1323 C1335 0.959 . S
H1324 C1338 0.929 1_565 S
H1325 C1339 0.931 . S
H1326 C1341 0.930 . S
C1327 H1315 0.930 . S
C1327 C1328 1.399 . S
C1327 C1332 1.399 . S
C1328 C1327 1.399 . S
C1328 C1329 1.376 . S
C1329 H1316 0.930 . S
C1329 C1328 1.376 . S
C1329 C1330 1.388 . S
C1330 H1317 0.930 . S
C1330 C1329 1.388 . S
C1330 C1331 1.390 . S
C1331 C1330 1.390 . S
C1331 C1332 1.394 . S
C1331 C1337 1.468 1_655 S
C1332 C1327 1.399 . S
C1332 C1331 1.394 . S
C1332 C1333 1.565 1_565 S
C1333 C1332 1.565 1_545 S
C1333 C1334 1.525 . S
C1333 C1335 1.543 1_645 S
C1333 C1336 1.472 1_655 S
C1334 H1318 0.959 . S
C1334 H1319 0.959 1_655 S
C1334 H1320 0.961 . S
C1334 C1333 1.525 . S
C1335 H1321 0.960 1_455 S
C1335 H1322 0.961 . S
C1335 H1323 0.959 . S
C1335 C1333 1.543 1_465 S
C1336 C1333 1.472 1_455 S
C1336 C1337 1.394 1_545 S
C1336 C1341 1.390 . S
C1337 C1331 1.468 1_455 S
C1337 C1336 1.394 1_565 S
C1337 C1338 1.398 1_565 S
C1338 H1324 0.929 1_545 S
C1338 C1337 1.398 1_545 S
C1338 C1339 1.385 . S
C1339 H1325 0.931 . S
C1339 C1338 1.385 . S
C1339 C1340 1.389 . S
C1340 C1339 1.389 . S
C1340 C1341 1.387 . S
C1341 H1326 0.930 . S
C1341 C1336 1.390 . S
C1341 C1340 1.387 . S
H1342 C1354 0.930 . S
H1343 C1356 0.930 . S
H1344 C1357 0.930 . S
H1345 C1361 0.959 . S
H1346 C1361 0.959 . S
H1347 C1361 0.966 1_455 S
H1348 C1362 0.960 . S
H1349 C1362 0.961 1_655 S
H1350 C1362 0.959 . S
H1351 C1365 0.929 . S
H1352 C1366 0.931 . S
H1353 C1368 0.930 . S
C1354 H1342 0.930 . S
C1354 C1355 1.399 . S
C1354 C1359 1.399 . S
C1355 C1354 1.399 . S
C1355 C1356 1.376 . S
C1356 H1343 0.930 . S
C1356 C1355 1.376 . S
C1356 C1357 1.388 1_565 S
C1357 H1344 0.930 . S
C1357 C1356 1.388 1_545 S
C1357 C1358 1.390 . S
C1358 C1357 1.390 . S
C1358 C1359 1.394 1_545 S
C1358 C1364 1.465 1_455 S
C1359 C1354 1.399 . S
C1359 C1358 1.394 1_565 S
C1359 C1360 1.516 1_455 S
C1360 C1359 1.516 1_655 S
C1360 C1361 1.502 . S
C1360 C1362 1.561 1_665 S
C1360 C1363 1.526 1_565 S
C1361 H1345 0.959 . S
C1361 H1346 0.959 . S
C1361 H1347 0.966 1_655 S
C1361 C1360 1.502 . S
C1362 H1348 0.960 . S
C1362 H1349 0.961 1_455 S
C1362 H1350 0.959 . S
C1362 C1360 1.561 1_445 S
C1363 C1360 1.526 1_545 S
C1363 C1364 1.396 . S
C1363 C1368 1.390 . S
C1364 C1358 1.465 1_655 S
C1364 C1363 1.396 . S
C1364 C1365 1.399 . S
C1365 H1351 0.929 . S
C1365 C1364 1.399 . S
C1365 C1366 1.385 . S
C1366 H1352 0.931 . S
C1366 C1365 1.385 . S
C1366 C1367 1.389 . S
C1367 C1366 1.389 . S
C1367 C1368 1.387 . S
C1368 H1353 0.930 . S
C1368 C1363 1.390 . S
C1368 C1367 1.387 . S
H1369 C1381 0.930 . S
H1370 C1383 0.930 . S
H1371 C1384 0.930 . S
H1372 C1388 0.959 . S
H1373 C1388 0.959 1_455 S
H1374 C1388 0.961 . S
H1375 C1389 0.960 1_655 S
H1376 C1389 0.961 . S
H1377 C1389 0.959 . S
H1378 C1392 0.929 1_565 S
H1379 C1393 0.931 . S
H1380 C1395 0.930 . S
C1381 H1369 0.930 . S
C1381 C1382 1.399 . S
C1381 C1386 1.399 . S
C1382 C1381 1.399 . S
C1382 C1383 1.376 . S
C1383 H1370 0.930 . S
C1383 C1382 1.376 . S
C1383 C1384 1.388 . S
C1384 H1371 0.930 . S
C1384 C1383 1.388 . S
C1384 C1385 1.390 . S
C1385 C1384 1.390 . S
C1385 C1386 1.394 . S
C1385 C1391 1.465 1_665 S
C1386 C1381 1.399 . S
C1386 C1385 1.394 . S
C1386 C1387 1.534 1_565 S
C1387 C1386 1.534 1_545 S
C1387 C1388 1.509 . S
C1387 C1389 1.554 1_645 S
C1387 C1390 1.507 1_655 S
C1388 H1372 0.959 . S
C1388 H1373 0.959 1_655 S
C1388 H1374 0.961 . S
C1388 C1387 1.509 . S
C1389 H1375 0.960 1_455 S
C1389 H1376 0.961 . S
C1389 H1377 0.959 . S
C1389 C1387 1.554 1_465 S
C1390 C1387 1.507 1_455 S
C1390 C1391 1.396 . S
C1390 C1395 1.390 . S
C1391 C1385 1.465 1_445 S
C1391 C1390 1.396 . S
C1391 C1392 1.399 . S
C1392 H1378 0.929 1_545 S
C1392 C1391 1.399 . S
C1392 C1393 1.385 . S
C1393 H1379 0.931 . S
C1393 C1392 1.385 . S
C1393 C1394 1.389 . S
C1394 C1393 1.389 . S
C1394 C1395 1.387 . S
C1395 H1380 0.930 . S
C1395 C1390 1.390 . S
C1395 C1394 1.387 . S
H1396 C1408 0.930 . S
H1397 C1410 0.930 . S
H1398 C1411 0.930 . S
H1399 C1415 0.959 . S
H1400 C1415 0.959 . S
H1401 C1415 0.961 . S
H1402 C1416 0.960 . S
H1403 C1416 0.961 . S
H1404 C1416 0.959 . S
H1405 C1419 0.929 . S
H1406 C1420 0.931 . S
H1407 C1422 0.930 . S
C1408 H1396 0.930 . S
C1408 C1409 1.399 . S
C1408 C1413 1.399 . S
C1409 C1408 1.399 . S
C1409 C1410 1.376 . S
C1410 H1397 0.930 . S
C1410 C1409 1.376 . S
C1410 C1411 1.388 . S
C1411 H1398 0.930 . S
C1411 C1410 1.388 . S
C1411 C1412 1.390 . S
C1412 C1411 1.390 . S
C1412 C1413 1.394 . S
C1412 C1418 1.465 . S
C1413 C1408 1.399 . S
C1413 C1412 1.394 . S
C1413 C1414 1.516 . S
C1414 C1413 1.516 . S
C1414 C1415 1.502 . S
C1414 C1416 1.561 . S
C1414 C1417 1.526 . S
C1415 H1399 0.959 . S
C1415 H1400 0.959 . S
C1415 H1401 0.961 . S
C1415 C1414 1.502 . S
C1416 H1402 0.960 . S
C1416 H1403 0.961 . S
C1416 H1404 0.959 . S
C1416 C1414 1.561 . S
C1417 C1414 1.526 . S
C1417 C1418 1.396 . S
C1417 C1422 1.390 . S
C1418 C1412 1.465 . S
C1418 C1417 1.396 . S
C1418 C1419 1.399 . S
C1419 H1405 0.929 . S
C1419 C1418 1.399 . S
C1419 C1420 1.385 . S
C1420 H1406 0.931 . S
C1420 C1419 1.385 . S
C1420 C1421 1.389 . S
C1421 C1420 1.389 . S
C1421 C1422 1.387 . S
C1422 H1407 0.930 . S
C1422 C1417 1.390 . S
C1422 C1421 1.387 . S
H1423 C1435 0.930 . S
H1424 C1437 0.930 . S
H1425 C1438 0.930 . S
H1426 C1442 0.959 . S
H1427 C1442 0.959 . S
H1428 C1442 0.961 . S
H1429 C1443 0.960 . S
H1430 C1443 0.961 . S
H1431 C1443 0.959 . S
H1432 C1446 0.929 . S
H1433 C1447 0.931 . S
H1434 C1449 0.930 . S
C1435 H1423 0.930 . S
C1435 C1436 1.399 . S
C1435 C1440 1.399 . S
C1436 C1435 1.399 . S
C1436 C1437 1.376 . S
C1437 H1424 0.930 . S
C1437 C1436 1.376 . S
C1437 C1438 1.388 . S
C1438 H1425 0.930 . S
C1438 C1437 1.388 . S
C1438 C1439 1.390 . S
C1439 C1438 1.390 . S
C1439 C1440 1.394 . S
C1439 C1445 1.465 . S
C1440 C1435 1.399 . S
C1440 C1439 1.394 . S
C1440 C1441 1.516 . S
C1441 C1440 1.516 . S
C1441 C1442 1.502 . S
C1441 C1443 1.561 . S
C1441 C1444 1.526 . S
C1442 H1426 0.959 . S
C1442 H1427 0.959 . S
C1442 H1428 0.961 . S
C1442 C1441 1.502 . S
C1443 H1429 0.960 . S
C1443 H1430 0.961 . S
C1443 H1431 0.959 . S
C1443 C1441 1.561 . S
C1444 C1441 1.526 . S
C1444 C1445 1.396 . S
C1444 C1449 1.390 . S
C1445 C1439 1.465 . S
C1445 C1444 1.396 . S
C1445 C1446 1.399 . S
C1446 H1432 0.929 . S
C1446 C1445 1.399 . S
C1446 C1447 1.385 . S
C1447 H1433 0.931 . S
C1447 C1446 1.385 . S
C1447 C1448 1.389 . S
C1448 C1447 1.389 . S
C1448 C1449 1.387 . S
C1449 H1434 0.930 . S
C1449 C1444 1.390 . S
C1449 C1448 1.387 . S
H1450 C1462 0.930 . S
H1451 C1464 0.930 . S
H1452 C1465 0.930 . S
H1453 C1469 0.959 . S
H1454 C1469 0.959 . S
H1455 C1469 0.961 . S
H1456 C1470 0.960 . S
H1457 C1470 0.961 . S
H1458 C1470 0.959 . S
H1459 C1473 0.929 . S
H1460 C1474 0.931 . S
H1461 C1476 0.930 . S
C1462 H1450 0.930 . S
C1462 C1463 1.399 . S
C1462 C1467 1.399 . S
C1463 C1462 1.399 . S
C1463 C1464 1.376 . S
C1464 H1451 0.930 . S
C1464 C1463 1.376 . S
C1464 C1465 1.388 . S
C1465 H1452 0.930 . S
C1465 C1464 1.388 . S
C1465 C1466 1.390 . S
C1466 C1465 1.390 . S
C1466 C1467 1.394 . S
C1466 C1472 1.465 . S
C1467 C1462 1.399 . S
C1467 C1466 1.394 . S
C1467 C1468 1.516 . S
C1468 C1467 1.516 . S
C1468 C1469 1.502 . S
C1468 C1470 1.561 . S
C1468 C1471 1.526 . S
C1469 H1453 0.959 . S
C1469 H1454 0.959 . S
C1469 H1455 0.961 . S
C1469 C1468 1.502 . S
C1470 H1456 0.960 . S
C1470 H1457 0.961 . S
C1470 H1458 0.959 . S
C1470 C1468 1.561 . S
C1471 C1468 1.526 . S
C1471 C1472 1.396 . S
C1471 C1476 1.390 . S
C1472 C1466 1.465 . S
C1472 C1471 1.396 . S
C1472 C1473 1.399 . S
C1473 H1459 0.929 . S
C1473 C1472 1.399 . S
C1473 C1474 1.385 . S
C1474 H1460 0.931 . S
C1474 C1473 1.385 . S
C1474 C1475 1.389 . S
C1475 C1474 1.389 . S
C1475 C1476 1.387 . S
C1476 H1461 0.930 . S
C1476 C1471 1.390 . S
C1476 C1475 1.387 . S
H1477 C1489 0.930 . S
H1478 C1491 0.930 . S
H1479 C1492 0.930 . S
H1480 C1496 0.959 . S
H1481 C1496 0.959 . S
H1482 C1496 0.961 . S
H1483 C1497 0.960 . S
H1484 C1497 0.961 . S
H1485 C1497 0.959 . S
H1486 C1500 0.929 . S
H1487 C1501 0.931 . S
H1488 C1503 0.930 . S
C1489 H1477 0.930 . S
C1489 C1490 1.399 . S
C1489 C1494 1.399 . S
C1490 C1489 1.399 . S
C1490 C1491 1.376 . S
C1491 H1478 0.930 . S
C1491 C1490 1.376 . S
C1491 C1492 1.388 . S
C1492 H1479 0.930 . S
C1492 C1491 1.388 . S
C1492 C1493 1.390 . S
C1493 C1492 1.390 . S
C1493 C1494 1.394 . S
C1493 C1499 1.465 . S
C1494 C1489 1.399 . S
C1494 C1493 1.394 . S
C1494 C1495 1.516 . S
C1495 C1494 1.516 . S
C1495 C1496 1.502 . S
C1495 C1497 1.561 . S
C1495 C1498 1.526 . S
C1496 H1480 0.959 . S
C1496 H1481 0.959 . S
C1496 H1482 0.961 . S
C1496 C1495 1.502 . S
C1497 H1483 0.960 . S
C1497 H1484 0.961 . S
C1497 H1485 0.959 . S
C1497 C1495 1.561 . S
C1498 C1495 1.526 . S
C1498 C1499 1.396 . S
C1498 C1503 1.390 . S
C1499 C1493 1.465 . S
C1499 C1498 1.396 . S
C1499 C1500 1.399 . S
C1500 H1486 0.929 . S
C1500 C1499 1.399 . S
C1500 C1501 1.385 . S
C1501 H1487 0.931 . S
C1501 C1500 1.385 . S
C1501 C1502 1.389 . S
C1502 C1501 1.389 . S
C1502 C1503 1.387 . S
C1503 H1488 0.930 . S
C1503 C1498 1.390 . S
C1503 C1502 1.387 . S
H1504 C1516 0.930 . S
H1505 C1518 0.930 . S
H1506 C1519 0.930 . S
H1507 C1523 0.959 . S
H1508 C1523 0.959 . S
H1509 C1523 0.961 . S
H1510 C1524 0.960 . S
H1511 C1524 0.961 . S
H1512 C1524 0.959 . S
H1513 C1527 0.929 . S
H1514 C1528 0.931 . S
H1515 C1530 0.930 . S
C1516 H1504 0.930 . S
C1516 C1517 1.399 . S
C1516 C1521 1.399 . S
C1517 C1516 1.399 . S
C1517 C1518 1.376 . S
C1518 H1505 0.930 . S
C1518 C1517 1.376 . S
C1518 C1519 1.388 . S
C1519 H1506 0.930 . S
C1519 C1518 1.388 . S
C1519 C1520 1.390 . S
C1520 C1519 1.390 . S
C1520 C1521 1.394 . S
C1520 C1526 1.465 . S
C1521 C1516 1.399 . S
C1521 C1520 1.394 . S
C1521 C1522 1.516 . S
C1522 C1521 1.516 . S
C1522 C1523 1.502 . S
C1522 C1524 1.561 . S
C1522 C1525 1.526 . S
C1523 H1507 0.959 . S
C1523 H1508 0.959 . S
C1523 H1509 0.961 . S
C1523 C1522 1.502 . S
C1524 H1510 0.960 . S
C1524 H1511 0.961 . S
C1524 H1512 0.959 . S
C1524 C1522 1.561 . S
C1525 C1522 1.526 . S
C1525 C1526 1.396 . S
C1525 C1530 1.390 . S
C1526 C1520 1.465 . S
C1526 C1525 1.396 . S
C1526 C1527 1.399 . S
C1527 H1513 0.929 . S
C1527 C1526 1.399 . S
C1527 C1528 1.385 . S
C1528 H1514 0.931 . S
C1528 C1527 1.385 . S
C1528 C1529 1.389 . S
C1529 C1528 1.389 . S
C1529 C1530 1.387 . S
C1530 H1515 0.930 . S
C1530 C1525 1.390 . S
C1530 C1529 1.387 . S
H1531 C1543 0.930 . S
H1532 C1545 0.930 . S
H1533 C1546 0.930 . S
H1534 C1550 0.959 . S
H1535 C1550 0.959 . S
H1536 C1550 0.961 . S
H1537 C1551 0.960 . S
H1538 C1551 0.961 . S
H1539 C1551 0.959 . S
H1540 C1554 0.929 . S
H1541 C1555 0.931 . S
H1542 C1557 0.930 . S
C1543 H1531 0.930 . S
C1543 C1544 1.399 . S
C1543 C1548 1.399 . S
C1544 C1543 1.399 . S
C1544 C1545 1.376 . S
C1545 H1532 0.930 . S
C1545 C1544 1.376 . S
C1545 C1546 1.388 . S
C1546 H1533 0.930 . S
C1546 C1545 1.388 . S
C1546 C1547 1.390 . S
C1547 C1546 1.390 . S
C1547 C1548 1.394 . S
C1547 C1553 1.465 . S
C1548 C1543 1.399 . S
C1548 C1547 1.394 . S
C1548 C1549 1.516 . S
C1549 C1548 1.516 . S
C1549 C1550 1.502 . S
C1549 C1551 1.561 . S
C1549 C1552 1.526 . S
C1550 H1534 0.959 . S
C1550 H1535 0.959 . S
C1550 H1536 0.961 . S
C1550 C1549 1.502 . S
C1551 H1537 0.960 . S
C1551 H1538 0.961 . S
C1551 H1539 0.959 . S
C1551 C1549 1.561 . S
C1552 C1549 1.526 . S
C1552 C1553 1.396 . S
C1552 C1557 1.390 . S
C1553 C1547 1.465 . S
C1553 C1552 1.396 . S
C1553 C1554 1.399 . S
C1554 H1540 0.929 . S
C1554 C1553 1.399 . S
C1554 C1555 1.385 . S
C1555 H1541 0.931 . S
C1555 C1554 1.385 . S
C1555 C1556 1.389 . S
C1556 C1555 1.389 . S
C1556 C1557 1.387 . S
C1557 H1542 0.930 . S
C1557 C1552 1.390 . S
C1557 C1556 1.387 . S
H1558 C1570 0.930 . S
H1559 C1572 0.930 . S
H1560 C1573 0.930 . S
H1561 C1577 0.959 . S
H1562 C1577 0.959 . S
H1563 C1577 0.961 . S
H1564 C1578 0.960 . S
H1565 C1578 0.961 . S
H1566 C1578 0.959 . S
H1567 C1581 0.929 . S
H1568 C1582 0.931 . S
H1569 C1584 0.930 . S
C1570 H1558 0.930 . S
C1570 C1571 1.399 . S
C1570 C1575 1.399 . S
C1571 C1570 1.399 . S
C1571 C1572 1.376 . S
C1572 H1559 0.930 . S
C1572 C1571 1.376 . S
C1572 C1573 1.388 . S
C1573 H1560 0.930 . S
C1573 C1572 1.388 . S
C1573 C1574 1.390 . S
C1574 C1573 1.390 . S
C1574 C1575 1.394 . S
C1574 C1580 1.465 . S
C1575 C1570 1.399 . S
C1575 C1574 1.394 . S
C1575 C1576 1.516 . S
C1576 C1575 1.516 . S
C1576 C1577 1.502 . S
C1576 C1578 1.561 . S
C1576 C1579 1.526 . S
C1577 H1561 0.959 . S
C1577 H1562 0.959 . S
C1577 H1563 0.961 . S
C1577 C1576 1.502 . S
C1578 H1564 0.960 . S
C1578 H1565 0.961 . S
C1578 H1566 0.959 . S
C1578 C1576 1.561 . S
C1579 C1576 1.526 . S
C1579 C1580 1.396 . S
C1579 C1584 1.390 . S
C1580 C1574 1.465 . S
C1580 C1579 1.396 . S
C1580 C1581 1.399 . S
C1581 H1567 0.929 . S
C1581 C1580 1.399 . S
C1581 C1582 1.385 . S
C1582 H1568 0.931 . S
C1582 C1581 1.385 . S
C1582 C1583 1.389 . S
C1583 C1582 1.389 . S
C1583 C1584 1.387 . S
C1584 H1569 0.930 . S
C1584 C1579 1.390 . S
C1584 C1583 1.387 . S
H1585 C1597 0.930 . S
H1586 C1599 0.930 . S
H1587 C1600 0.930 . S
H1588 C1604 0.959 . S
H1589 C1604 0.959 . S
H1590 C1604 0.961 . S
H1591 C1605 0.960 . S
H1592 C1605 0.961 . S
H1593 C1605 0.959 . S
H1594 C1608 0.929 . S
H1595 C1609 0.931 . S
H1596 C1611 0.930 . S
C1597 H1585 0.930 . S
C1597 C1598 1.399 . S
C1597 C1602 1.399 . S
C1598 C1597 1.399 . S
C1598 C1599 1.376 . S
C1599 H1586 0.930 . S
C1599 C1598 1.376 . S
C1599 C1600 1.388 . S
C1600 H1587 0.930 . S
C1600 C1599 1.388 . S
C1600 C1601 1.390 . S
C1601 C1600 1.390 . S
C1601 C1602 1.394 . S
C1601 C1607 1.465 . S
C1602 C1597 1.399 . S
C1602 C1601 1.394 . S
C1602 C1603 1.516 . S
C1603 C1602 1.516 . S
C1603 C1604 1.502 . S
C1603 C1605 1.561 . S
C1603 C1606 1.526 . S
C1604 H1588 0.959 . S
C1604 H1589 0.959 . S
C1604 H1590 0.961 . S
C1604 C1603 1.502 . S
C1605 H1591 0.960 . S
C1605 H1592 0.961 . S
C1605 H1593 0.959 . S
C1605 C1603 1.561 . S
C1606 C1603 1.526 . S
C1606 C1607 1.396 . S
C1606 C1611 1.390 . S
C1607 C1601 1.465 . S
C1607 C1606 1.396 . S
C1607 C1608 1.399 . S
C1608 H1594 0.929 . S
C1608 C1607 1.399 . S
C1608 C1609 1.385 . S
C1609 H1595 0.931 . S
C1609 C1608 1.385 . S
C1609 C1610 1.389 . S
C1610 C1609 1.389 . S
C1610 C1611 1.387 . S
C1611 H1596 0.930 . S
C1611 C1606 1.390 . S
C1611 C1610 1.387 . S
H1612 C1624 0.930 . S
H1613 C1626 0.930 . S
H1614 C1627 0.930 . S
H1615 C1631 0.959 . S
H1616 C1631 0.959 . S
H1617 C1631 0.961 . S
H1618 C1632 0.960 . S
H1619 C1632 0.961 . S
H1620 C1632 0.959 . S
H1621 C1635 0.929 . S
H1622 C1636 0.931 . S
H1623 C1638 0.930 . S
C1624 H1612 0.930 . S
C1624 C1625 1.399 . S
C1624 C1629 1.399 . S
C1625 C1624 1.399 . S
C1625 C1626 1.376 . S
C1626 H1613 0.930 . S
C1626 C1625 1.376 . S
C1626 C1627 1.388 . S
C1627 H1614 0.930 . S
C1627 C1626 1.388 . S
C1627 C1628 1.390 . S
C1628 C1627 1.390 . S
C1628 C1629 1.394 . S
C1628 C1634 1.465 . S
C1629 C1624 1.399 . S
C1629 C1628 1.394 . S
C1629 C1630 1.516 . S
C1630 C1629 1.516 . S
C1630 C1631 1.502 . S
C1630 C1632 1.561 . S
C1630 C1633 1.526 . S
C1631 H1615 0.959 . S
C1631 H1616 0.959 . S
C1631 H1617 0.961 . S
C1631 C1630 1.502 . S
C1632 H1618 0.960 . S
C1632 H1619 0.961 . S
C1632 H1620 0.959 . S
C1632 C1630 1.561 . S
C1633 C1630 1.526 . S
C1633 C1634 1.396 . S
C1633 C1638 1.390 . S
C1634 C1628 1.465 . S
C1634 C1633 1.396 . S
C1634 C1635 1.399 . S
C1635 H1621 0.929 . S
C1635 C1634 1.399 . S
C1635 C1636 1.385 . S
C1636 H1622 0.931 . S
C1636 C1635 1.385 . S
C1636 C1637 1.389 . S
C1637 C1636 1.389 . S
C1637 C1638 1.387 . S
C1638 H1623 0.930 . S
C1638 C1633 1.390 . S
C1638 C1637 1.387 . S
H1639 C1651 0.930 . S
H1640 C1653 0.930 . S
H1641 C1654 0.930 . S
H1642 C1658 0.959 . S
H1643 C1658 0.959 . S
H1644 C1658 0.961 . S
H1645 C1659 0.960 . S
H1646 C1659 0.961 . S
H1647 C1659 0.959 . S
H1648 C1662 0.929 . S
H1649 C1663 0.931 . S
H1650 C1665 0.930 . S
C1651 H1639 0.930 . S
C1651 C1652 1.399 . S
C1651 C1656 1.399 . S
C1652 C1651 1.399 . S
C1652 C1653 1.376 . S
C1653 H1640 0.930 . S
C1653 C1652 1.376 . S
C1653 C1654 1.388 . S
C1654 H1641 0.930 . S
C1654 C1653 1.388 . S
C1654 C1655 1.390 . S
C1655 C1654 1.390 . S
C1655 C1656 1.394 . S
C1655 C1661 1.465 . S
C1656 C1651 1.399 . S
C1656 C1655 1.394 . S
C1656 C1657 1.516 . S
C1657 C1656 1.516 . S
C1657 C1658 1.502 . S
C1657 C1659 1.561 . S
C1657 C1660 1.526 . S
C1658 H1642 0.959 . S
C1658 H1643 0.959 . S
C1658 H1644 0.961 . S
C1658 C1657 1.502 . S
C1659 H1645 0.960 . S
C1659 H1646 0.961 . S
C1659 H1647 0.959 . S
C1659 C1657 1.561 . S
C1660 C1657 1.526 . S
C1660 C1661 1.396 . S
C1660 C1665 1.390 . S
C1661 C1655 1.465 . S
C1661 C1660 1.396 . S
C1661 C1662 1.399 . S
C1662 H1648 0.929 . S
C1662 C1661 1.399 . S
C1662 C1663 1.385 . S
C1663 H1649 0.931 . S
C1663 C1662 1.385 . S
C1663 C1664 1.389 . S
C1664 C1663 1.389 . S
C1664 C1665 1.387 . S
C1665 H1650 0.930 . S
C1665 C1660 1.390 . S
C1665 C1664 1.387 . S
H1666 C1678 0.930 . S
H1667 C1680 0.930 . S
H1668 C1681 0.930 . S
H1669 C1685 0.959 . S
H1670 C1685 0.959 . S
H1671 C1685 0.961 . S
H1672 C1686 0.960 . S
H1673 C1686 0.961 . S
H1674 C1686 0.959 . S
H1675 C1689 0.929 . S
H1676 C1690 0.931 . S
H1677 C1692 0.930 . S
C1678 H1666 0.930 . S
C1678 C1679 1.399 . S
C1678 C1683 1.399 . S
C1679 C1678 1.399 . S
C1679 C1680 1.376 . S
C1680 H1667 0.930 . S
C1680 C1679 1.376 . S
C1680 C1681 1.388 . S
C1681 H1668 0.930 . S
C1681 C1680 1.388 . S
C1681 C1682 1.390 . S
C1682 C1681 1.390 . S
C1682 C1683 1.394 . S
C1682 C1688 1.465 . S
C1683 C1678 1.399 . S
C1683 C1682 1.394 . S
C1683 C1684 1.516 . S
C1684 C1683 1.516 . S
C1684 C1685 1.502 . S
C1684 C1686 1.561 . S
C1684 C1687 1.526 . S
C1685 H1669 0.959 . S
C1685 H1670 0.959 . S
C1685 H1671 0.961 . S
C1685 C1684 1.502 . S
C1686 H1672 0.960 . S
C1686 H1673 0.961 . S
C1686 H1674 0.959 . S
C1686 C1684 1.561 . S
C1687 C1684 1.526 . S
C1687 C1688 1.396 . S
C1687 C1692 1.390 . S
C1688 C1682 1.465 . S
C1688 C1687 1.396 . S
C1688 C1689 1.399 . S
C1689 H1675 0.929 . S
C1689 C1688 1.399 . S
C1689 C1690 1.385 . S
C1690 H1676 0.931 . S
C1690 C1689 1.385 . S
C1690 C1691 1.389 . S
C1691 C1690 1.389 . S
C1691 C1692 1.387 . S
C1692 H1677 0.930 . S
C1692 C1687 1.390 . S
C1692 C1691 1.387 . S
H1693 C1705 0.930 . S
H1694 C1707 0.930 . S
H1695 C1708 0.930 . S
H1696 C1712 0.959 . S
H1697 C1712 0.959 . S
H1698 C1712 0.961 . S
H1699 C1713 0.960 . S
H1700 C1713 0.961 . S
H1701 C1713 0.959 . S
H1702 C1716 0.929 . S
H1703 C1717 0.931 . S
H1704 C1719 0.930 . S
C1705 H1693 0.930 . S
C1705 C1706 1.399 . S
C1705 C1710 1.399 . S
C1706 C1705 1.399 . S
C1706 C1707 1.376 . S
C1707 H1694 0.930 . S
C1707 C1706 1.376 . S
C1707 C1708 1.388 . S
C1708 H1695 0.930 . S
C1708 C1707 1.388 . S
C1708 C1709 1.390 . S
C1709 C1708 1.390 . S
C1709 C1710 1.394 . S
C1709 C1715 1.465 . S
C1710 C1705 1.399 . S
C1710 C1709 1.394 . S
C1710 C1711 1.516 . S
C1711 C1710 1.516 . S
C1711 C1712 1.502 . S
C1711 C1713 1.561 . S
C1711 C1714 1.526 . S
C1712 H1696 0.959 . S
C1712 H1697 0.959 . S
C1712 H1698 0.961 . S
C1712 C1711 1.502 . S
C1713 H1699 0.960 . S
C1713 H1700 0.961 . S
C1713 H1701 0.959 . S
C1713 C1711 1.561 . S
C1714 C1711 1.526 . S
C1714 C1715 1.396 . S
C1714 C1719 1.390 . S
C1715 C1709 1.465 . S
C1715 C1714 1.396 . S
C1715 C1716 1.399 . S
C1716 H1702 0.929 . S
C1716 C1715 1.399 . S
C1716 C1717 1.385 . S
C1717 H1703 0.931 . S
C1717 C1716 1.385 . S
C1717 C1718 1.389 . S
C1718 C1717 1.389 . S
C1718 C1719 1.387 . S
C1719 H1704 0.930 . S
C1719 C1714 1.390 . S
C1719 C1718 1.387 . S
H1720 C1732 0.930 . S
H1721 C1734 0.930 . S
H1722 C1735 0.930 . S
H1723 C1739 0.959 . S
H1724 C1739 0.959 . S
H1725 C1739 0.961 . S
H1726 C1740 0.960 . S
H1727 C1740 0.961 . S
H1728 C1740 0.959 . S
H1729 C1743 0.929 . S
H1730 C1744 0.931 . S
H1731 C1746 0.930 . S
C1732 H1720 0.930 . S
C1732 C1733 1.399 . S
C1732 C1737 1.399 1_565 S
C1733 C1732 1.399 . S
C1733 C1734 1.376 . S
C1734 H1721 0.930 . S
C1734 C1733 1.376 . S
C1734 C1735 1.388 1_565 S
C1735 H1722 0.930 . S
C1735 C1734 1.388 1_545 S
C1735 C1736 1.390 . S
C1736 C1735 1.390 . S
C1736 C1737 1.394 . S
C1736 C1742 1.465 . S
C1737 C1732 1.399 1_545 S
C1737 C1736 1.394 . S
C1737 C1738 1.516 . S
C1738 C1737 1.516 . S
C1738 C1739 1.502 . S
C1738 C1740 1.561 . S
C1738 C1741 1.526 . S
C1739 H1723 0.959 . S
C1739 H1724 0.959 . S
C1739 H1725 0.961 . S
C1739 C1738 1.502 . S
C1740 H1726 0.960 . S
C1740 H1727 0.961 . S
C1740 H1728 0.959 . S
C1740 C1738 1.561 . S
C1741 C1738 1.526 . S
C1741 C1742 1.396 . S
C1741 C1746 1.390 . S
C1742 C1736 1.465 . S
C1742 C1741 1.396 . S
C1742 C1743 1.399 . S
C1743 H1729 0.929 . S
C1743 C1742 1.399 . S
C1743 C1744 1.385 . S
C1744 H1730 0.931 . S
C1744 C1743 1.385 . S
C1744 C1745 1.389 . S
C1745 C1744 1.389 . S
C1745 C1746 1.387 . S
C1746 H1731 0.930 . S
C1746 C1741 1.390 . S
C1746 C1745 1.387 . S
H1747 C1759 0.930 . S
H1748 C1761 0.930 . S
H1749 C1762 0.930 . S
H1750 C1766 0.959 . S
H1751 C1766 0.959 . S
H1752 C1766 0.961 . S
H1753 C1767 0.960 . S
H1754 C1767 0.961 . S
H1755 C1767 0.959 . S
H1756 C1770 0.929 . S
H1757 C1771 0.931 . S
H1758 C1773 0.930 . S
C1759 H1747 0.930 . S
C1759 C1760 1.399 . S
C1759 C1764 1.399 . S
C1760 C1759 1.399 . S
C1760 C1761 1.376 . S
C1761 H1748 0.930 . S
C1761 C1760 1.376 . S
C1761 C1762 1.388 . S
C1762 H1749 0.930 . S
C1762 C1761 1.388 . S
C1762 C1763 1.390 . S
C1763 C1762 1.390 . S
C1763 C1764 1.394 . S
C1763 C1769 1.465 . S
C1764 C1759 1.399 . S
C1764 C1763 1.394 . S
C1764 C1765 1.516 . S
C1765 C1764 1.516 . S
C1765 C1766 1.502 . S
C1765 C1767 1.561 . S
C1765 C1768 1.526 . S
C1766 H1750 0.959 . S
C1766 H1751 0.959 . S
C1766 H1752 0.961 . S
C1766 C1765 1.502 . S
C1767 H1753 0.960 . S
C1767 H1754 0.961 . S
C1767 H1755 0.959 . S
C1767 C1765 1.561 . S
C1768 C1765 1.526 . S
C1768 C1769 1.396 . S
C1768 C1773 1.390 1_565 S
C1769 C1763 1.465 . S
C1769 C1768 1.396 . S
C1769 C1770 1.399 . S
C1770 H1756 0.929 . S
C1770 C1769 1.399 . S
C1770 C1771 1.385 1_565 S
C1771 H1757 0.931 . S
C1771 C1770 1.385 1_545 S
C1771 C1772 1.389 . S
C1772 C1771 1.389 . S
C1772 C1773 1.387 . S
C1773 H1758 0.930 . S
C1773 C1768 1.390 1_545 S
C1773 C1772 1.387 . S
H1774 C1786 0.930 . S
H1775 C1788 0.930 . S
H1776 C1789 0.930 . S
H1777 C1793 0.959 . S
H1778 C1793 0.959 . S
H1779 C1793 0.961 . S
H1780 C1794 0.960 . S
H1781 C1794 0.961 . S
H1782 C1794 0.959 . S
H1783 C1797 0.929 . S
H1784 C1798 0.931 . S
H1785 C1800 0.930 . S
C1786 H1774 0.930 . S
C1786 C1787 1.399 . S
C1786 C1791 1.399 1_545 S
C1787 C1786 1.399 . S
C1787 C1788 1.376 . S
C1788 H1775 0.930 . S
C1788 C1787 1.376 . S
C1788 C1789 1.388 1_545 S
C1789 H1776 0.930 . S
C1789 C1788 1.388 1_565 S
C1789 C1790 1.390 . S
C1790 C1789 1.390 . S
C1790 C1791 1.394 . S
C1790 C1796 1.465 . S
C1791 C1786 1.399 1_565 S
C1791 C1790 1.394 . S
C1791 C1792 1.516 . S
C1792 C1791 1.516 . S
C1792 C1793 1.502 . S
C1792 C1794 1.561 . S
C1792 C1795 1.526 . S
C1793 H1777 0.959 . S
C1793 H1778 0.959 . S
C1793 H1779 0.961 . S
C1793 C1792 1.502 . S
C1794 H1780 0.960 . S
C1794 H1781 0.961 . S
C1794 H1782 0.959 . S
C1794 C1792 1.561 . S
C1795 C1792 1.526 . S
C1795 C1796 1.396 . S
C1795 C1800 1.390 . S
C1796 C1790 1.465 . S
C1796 C1795 1.396 . S
C1796 C1797 1.399 . S
C1797 H1783 0.929 . S
C1797 C1796 1.399 . S
C1797 C1798 1.385 . S
C1798 H1784 0.931 . S
C1798 C1797 1.385 . S
C1798 C1799 1.389 . S
C1799 C1798 1.389 . S
C1799 C1800 1.387 . S
C1800 H1785 0.930 . S
C1800 C1795 1.390 . S
C1800 C1799 1.387 . S
H1801 C1813 0.930 . S
H1802 C1815 0.930 . S
H1803 C1816 0.930 . S
H1804 C1820 0.959 . S
H1805 C1820 0.959 . S
H1806 C1820 0.961 . S
H1807 C1821 0.960 . S
H1808 C1821 0.961 . S
H1809 C1821 0.959 . S
H1810 C1824 0.929 . S
H1811 C1825 0.931 . S
H1812 C1827 0.930 . S
C1813 H1801 0.930 . S
C1813 C1814 1.399 . S
C1813 C1818 1.399 1_565 S
C1814 C1813 1.399 . S
C1814 C1815 1.376 . S
C1815 H1802 0.930 . S
C1815 C1814 1.376 . S
C1815 C1816 1.388 1_565 S
C1816 H1803 0.930 . S
C1816 C1815 1.388 1_545 S
C1816 C1817 1.390 . S
C1817 C1816 1.390 . S
C1817 C1818 1.394 . S
C1817 C1823 1.465 . S
C1818 C1813 1.399 1_545 S
C1818 C1817 1.394 . S
C1818 C1819 1.516 . S
C1819 C1818 1.516 . S
C1819 C1820 1.502 . S
C1819 C1821 1.561 . S
C1819 C1822 1.526 . S
C1820 H1804 0.959 . S
C1820 H1805 0.959 . S
C1820 H1806 0.961 . S
C1820 C1819 1.502 . S
C1821 H1807 0.960 . S
C1821 H1808 0.961 . S
C1821 H1809 0.959 . S
C1821 C1819 1.561 . S
C1822 C1819 1.526 . S
C1822 C1823 1.396 . S
C1822 C1827 1.390 . S
C1823 C1817 1.465 . S
C1823 C1822 1.396 . S
C1823 C1824 1.399 . S
C1824 H1810 0.929 . S
C1824 C1823 1.399 . S
C1824 C1825 1.385 . S
C1825 H1811 0.931 . S
C1825 C1824 1.385 . S
C1825 C1826 1.389 . S
C1826 C1825 1.389 . S
C1826 C1827 1.387 . S
C1827 H1812 0.930 . S
C1827 C1822 1.390 . S
C1827 C1826 1.387 . S
H1828 C1840 0.930 . S
H1829 C1842 0.930 . S
H1830 C1843 0.930 . S
H1831 C1847 0.959 . S
H1832 C1847 0.959 . S
H1833 C1847 0.961 . S
H1834 C1848 0.960 . S
H1835 C1848 0.961 . S
H1836 C1848 0.959 . S
H1837 C1851 0.929 . S
H1838 C1852 0.931 . S
H1839 C1854 0.930 . S
C1840 H1828 0.930 . S
C1840 C1841 1.399 . S
C1840 C1845 1.399 . S
C1841 C1840 1.399 . S
C1841 C1842 1.376 . S
C1842 H1829 0.930 . S
C1842 C1841 1.376 . S
C1842 C1843 1.388 . S
C1843 H1830 0.930 . S
C1843 C1842 1.388 . S
C1843 C1844 1.390 . S
C1844 C1843 1.390 . S
C1844 C1845 1.394 . S
C1844 C1850 1.465 . S
C1845 C1840 1.399 . S
C1845 C1844 1.394 . S
C1845 C1846 1.516 . S
C1846 C1845 1.516 . S
C1846 C1847 1.502 . S
C1846 C1848 1.561 . S
C1846 C1849 1.526 . S
C1847 H1831 0.959 . S
C1847 H1832 0.959 . S
C1847 H1833 0.961 . S
C1847 C1846 1.502 . S
C1848 H1834 0.960 . S
C1848 H1835 0.961 . S
C1848 H1836 0.959 . S
C1848 C1846 1.561 . S
C1849 C1846 1.526 . S
C1849 C1850 1.396 . S
C1849 C1854 1.390 1_565 S
C1850 C1844 1.465 . S
C1850 C1849 1.396 . S
C1850 C1851 1.399 . S
C1851 H1837 0.929 . S
C1851 C1850 1.399 . S
C1851 C1852 1.385 1_565 S
C1852 H1838 0.931 . S
C1852 C1851 1.385 1_545 S
C1852 C1853 1.389 . S
C1853 C1852 1.389 . S
C1853 C1854 1.387 . S
C1854 H1839 0.930 . S
C1854 C1849 1.390 1_545 S
C1854 C1853 1.387 . S
H1855 C1867 0.930 . S
H1856 C1869 0.930 . S
H1857 C1870 0.930 . S
H1858 C1874 0.959 . S
H1859 C1874 0.959 . S
H1860 C1874 0.961 . S
H1861 C1875 0.960 . S
H1862 C1875 0.961 . S
H1863 C1875 0.959 . S
H1864 C1878 0.929 . S
H1865 C1879 0.931 . S
H1866 C1881 0.930 . S
C1867 H1855 0.930 . S
C1867 C1868 1.399 . S
C1867 C1872 1.399 . S
C1868 C1867 1.399 . S
C1868 C1869 1.376 . S
C1869 H1856 0.930 . S
C1869 C1868 1.376 . S
C1869 C1870 1.388 . S
C1870 H1857 0.930 . S
C1870 C1869 1.388 . S
C1870 C1871 1.390 . S
C1871 C1870 1.390 . S
C1871 C1872 1.394 . S
C1871 C1877 1.465 . S
C1872 C1867 1.399 . S
C1872 C1871 1.394 . S
C1872 C1873 1.516 . S
C1873 C1872 1.516 . S
C1873 C1874 1.502 . S
C1873 C1875 1.561 . S
C1873 C1876 1.526 . S
C1874 H1858 0.959 . S
C1874 H1859 0.959 . S
C1874 H1860 0.961 . S
C1874 C1873 1.502 . S
C1875 H1861 0.960 . S
C1875 H1862 0.961 . S
C1875 H1863 0.959 . S
C1875 C1873 1.561 . S
C1876 C1873 1.526 . S
C1876 C1877 1.396 . S
C1876 C1881 1.390 1_545 S
C1877 C1871 1.465 . S
C1877 C1876 1.396 . S
C1877 C1878 1.399 . S
C1878 H1864 0.929 . S
C1878 C1877 1.399 . S
C1878 C1879 1.385 1_545 S
C1879 H1865 0.931 . S
C1879 C1878 1.385 1_565 S
C1879 C1880 1.389 . S
C1880 C1879 1.389 . S
C1880 C1881 1.387 . S
C1881 H1866 0.930 . S
C1881 C1876 1.390 1_565 S
C1881 C1880 1.387 . S
H1882 C1894 0.930 . S
H1883 C1896 0.930 . S
H1884 C1897 0.930 1_545 S
H1885 C1901 0.959 . S
H1886 C1901 0.959 . S
H1887 C1901 0.961 . S
H1888 C1902 0.960 . S
H1889 C1902 0.961 . S
H1890 C1902 0.959 . S
H1891 C1905 0.929 . S
H1892 C1906 0.931 . S
H1893 C1908 0.930 . S
C1894 H1882 0.930 . S
C1894 C1895 1.399 . S
C1894 C1899 1.399 1_565 S
C1895 C1894 1.399 . S
C1895 C1896 1.376 . S
C1896 H1883 0.930 . S
C1896 C1895 1.376 . S
C1896 C1897 1.388 . S
C1897 H1884 0.930 1_565 S
C1897 C1896 1.388 . S
C1897 C1898 1.390 1_565 S
C1898 C1897 1.390 1_545 S
C1898 C1899 1.394 . S
C1898 C1904 1.465 . S
C1899 C1894 1.399 1_545 S
C1899 C1898 1.394 . S
C1899 C1900 1.516 . S
C1900 C1899 1.516 . S
C1900 C1901 1.502 . S
C1900 C1902 1.561 . S
C1900 C1903 1.526 . S
C1901 H1885 0.959 . S
C1901 H1886 0.959 . S
C1901 H1887 0.961 . S
C1901 C1900 1.502 . S
C1902 H1888 0.960 . S
C1902 H1889 0.961 . S
C1902 H1890 0.959 . S
C1902 C1900 1.561 . S
C1903 C1900 1.526 . S
C1903 C1904 1.396 . S
C1903 C1908 1.390 . S
C1904 C1898 1.465 . S
C1904 C1903 1.396 . S
C1904 C1905 1.399 . S
C1905 H1891 0.929 . S
C1905 C1904 1.399 . S
C1905 C1906 1.385 . S
C1906 H1892 0.931 . S
C1906 C1905 1.385 . S
C1906 C1907 1.389 . S
C1907 C1906 1.389 . S
C1907 C1908 1.387 . S
C1908 H1893 0.930 . S
C1908 C1903 1.390 . S
C1908 C1907 1.387 . S
H1909 C1921 0.930 . S
H1910 C1923 0.930 . S
H1911 C1924 0.930 . S
H1912 C1928 0.959 . S
H1913 C1928 0.959 . S
H1914 C1928 0.961 . S
H1915 C1929 0.960 . S
H1916 C1929 0.961 . S
H1917 C1929 0.959 . S
H1918 C1932 0.929 . S
H1919 C1933 0.931 . S
H1920 C1935 0.930 . S
C1921 H1909 0.930 . S
C1921 C1922 1.399 . S
C1921 C1926 1.399 . S
C1922 C1921 1.399 . S
C1922 C1923 1.376 . S
C1923 H1910 0.930 . S
C1923 C1922 1.376 . S
C1923 C1924 1.388 . S
C1924 H1911 0.930 . S
C1924 C1923 1.388 . S
C1924 C1925 1.390 . S
C1925 C1924 1.390 . S
C1925 C1926 1.394 . S
C1925 C1931 1.465 . S
C1926 C1921 1.399 . S
C1926 C1925 1.394 . S
C1926 C1927 1.516 . S
C1927 C1926 1.516 . S
C1927 C1928 1.502 . S
C1927 C1929 1.561 . S
C1927 C1930 1.526 . S
C1928 H1912 0.959 . S
C1928 H1913 0.959 . S
C1928 H1914 0.961 . S
C1928 C1927 1.502 . S
C1929 H1915 0.960 . S
C1929 H1916 0.961 . S
C1929 H1917 0.959 . S
C1929 C1927 1.561 . S
C1930 C1927 1.526 . S
C1930 C1931 1.396 . S
C1930 C1935 1.390 1_565 S
C1931 C1925 1.465 . S
C1931 C1930 1.396 . S
C1931 C1932 1.399 . S
C1932 H1918 0.929 . S
C1932 C1931 1.399 . S
C1932 C1933 1.385 1_565 S
C1933 H1919 0.931 . S
C1933 C1932 1.385 1_545 S
C1933 C1934 1.389 . S
C1934 C1933 1.389 . S
C1934 C1935 1.387 . S
C1935 H1920 0.930 . S
C1935 C1930 1.390 1_545 S
C1935 C1934 1.387 . S
C653 C15 2.041 . S
C665 C375 1.997 . S
C680 C55 2.039 . S
C692 C335 2.000 . S
C707 C455 2.008 . S
C719 C95 2.021 . S
C734 C135 1.996 . S
C746 C415 2.034 . S
C761 C526 2.049 . S
C773 C166 1.997 . S
C788 C486 1.991 . S
C800 C206 2.028 . S
C815 C606 2.050 . S
C827 C246 1.995 . S
C842 C286 2.046 . S
C854 C566 2.002 . S
C869 C98 1.539 . S
C881 C18 1.540 . S
C896 C138 1.508 . S
C908 C58 1.527 . S
C923 C249 1.464 . S
C935 C169 1.502 . S
C950 C209 1.471 . S
C962 C289 1.514 . S
C977 C418 1.497 . S
C989 C338 1.477 . S
C1004 C458 1.478 . S
C1016 C378 1.465 . S
C1031 C489 1.538 . S
C1043 C569 1.502 . S
C1058 C529 1.541 . S
C1070 C609 1.510 . S
C1085 C218 1.527 . S
C1097 C9 1.532 . S
C1112 C178 1.468 . S
C1124 C49 1.478 . S
C1139 C89 1.522 . S
C1151 C298 1.513 . S
C1166 C258 1.467 . S
C1178 C129 1.476 . S
C1193 C329 1.470 . S
C1205 C538 1.480 . S
C1220 C498 1.532 . S
C1232 C369 1.533 . S
C1247 C409 1.523 . S
C1259 C618 1.514 . S
C1274 C578 1.468 . S
C1286 C449 1.477 . S
C1301 C46 2.262 . S
C1313 C6 2.313 . S
C1328 C126 2.319 . S
C1340 C86 2.283 . S
C1355 C215 2.269 . S
C1367 C175 2.314 . S
C1382 C255 2.313 . S
C1394 C295 2.281 . S
C1409 C366 2.264 . S
C1421 C326 2.311 . S
C1436 C446 2.319 . S
C1448 C406 2.284 . S
C1463 C495 2.317 . S
C1475 C535 2.276 . S
C1490 C575 2.313 . S
C1502 C615 2.280 . S
C1517 C10 2.417 . S
C1529 C19 2.425 . S
C1544 C50 2.405 . S
C1556 C59 2.438 . S
C1571 C90 2.421 . S
C1583 C99 2.420 . S
C1598 C139 2.403 . S
C1610 C130 2.441 . S
C1625 C179 2.444 . S
C1637 C170 2.409 . S
C1652 C210 2.437 . S
C1664 C219 2.418 . S
C1679 C259 2.426 . S
C1691 C250 2.416 . S
C1706 C299 2.402 . S
C1718 C290 2.443 . S
C1733 C339 2.445 . S
C1745 C330 2.407 . S
C1760 C370 2.405 . S
C1772 C379 2.438 . S
C1787 C419 2.404 . S
C1799 C410 2.440 . S
C1814 C459 2.447 . S
C1826 C450 2.402 . S
C1841 C499 2.403 . S
C1853 C490 2.441 . S
C1868 C539 2.403 . S
C1880 C530 2.442 . S
C1895 C570 2.405 . S
C1907 C579 2.438 . S
C1922 C619 2.407 . S
C1934 C610 2.436 . S
