# Generated by pormake.
# Topology ume, (4)-cn, num edge types: 1
# Building blocks:
#     Node 0, Type 0, BuildingBlock: ESEHIV_clean_sbu_0, # of connection points: 4
#     Node 1, Type 0, BuildingBlock: ESEHIV_clean_sbu_0, # of connection points: 4
#     Node 2, Type 0, BuildingBlock: ESEHIV_clean_sbu_0, # of connection points: 4
#     Node 3, Type 0, BuildingBlock: ESEHIV_clean_sbu_0, # of connection points: 4
#     Node 4, Type 0, BuildingBlock: ESEHIV_clean_sbu_0, # of connection points: 4
#     Node 5, Type 0, BuildingBlock: ESEHIV_clean_sbu_0, # of connection points: 4
#     Node 6, Type 0, BuildingBlock: ESEHIV_clean_sbu_0, # of connection points: 4
#     Node 7, Type 0, BuildingBlock: ESEHIV_clean_sbu_0, # of connection points: 4
#     Node 8, Type 0, BuildingBlock: ESEHIV_clean_sbu_0, # of connection points: 4
#     Node 9, Type 0, BuildingBlock: ESEHIV_clean_sbu_0, # of connection points: 4
#     Node 10, Type 0, BuildingBlock: ESEHIV_clean_sbu_0, # of connection points: 4
#     Node 11, Type 0, BuildingBlock: ESEHIV_clean_sbu_0, # of connection points: 4
#     Node 12, Type 0, BuildingBlock: ESEHIV_clean_sbu_0, # of connection points: 4
#     Node 13, Type 0, BuildingBlock: ESEHIV_clean_sbu_0, # of connection points: 4
#     Node 14, Type 0, BuildingBlock: ESEHIV_clean_sbu_0, # of connection points: 4
#     Node 15, Type 0, BuildingBlock: ESEHIV_clean_sbu_0, # of connection points: 4
#     Edge 16, Type (0, 0), BuildingBlock: AJUNOK_clean_linker_0, # of connection points: 2
#     Edge 17, Type (0, 0), BuildingBlock: AJUNOK_clean_linker_0, # of connection points: 2
#     Edge 18, Type (0, 0), BuildingBlock: AJUNOK_clean_linker_0, # of connection points: 2
#     Edge 19, Type (0, 0), BuildingBlock: AJUNOK_clean_linker_0, # of connection points: 2
#     Edge 20, Type (0, 0), BuildingBlock: AJUNOK_clean_linker_0, # of connection points: 2
#     Edge 21, Type (0, 0), BuildingBlock: AJUNOK_clean_linker_0, # of connection points: 2
#     Edge 22, Type (0, 0), BuildingBlock: AJUNOK_clean_linker_0, # of connection points: 2
#     Edge 23, Type (0, 0), BuildingBlock: AJUNOK_clean_linker_0, # of connection points: 2
#     Edge 24, Type (0, 0), BuildingBlock: AJUNOK_clean_linker_0, # of connection points: 2
#     Edge 25, Type (0, 0), BuildingBlock: AJUNOK_clean_linker_0, # of connection points: 2
#     Edge 26, Type (0, 0), BuildingBlock: AJUNOK_clean_linker_0, # of connection points: 2
#     Edge 27, Type (0, 0), BuildingBlock: AJUNOK_clean_linker_0, # of connection points: 2
#     Edge 28, Type (0, 0), BuildingBlock: AJUNOK_clean_linker_0, # of connection points: 2
#     Edge 29, Type (0, 0), BuildingBlock: AJUNOK_clean_linker_0, # of connection points: 2
#     Edge 30, Type (0, 0), BuildingBlock: AJUNOK_clean_linker_0, # of connection points: 2
#     Edge 31, Type (0, 0), BuildingBlock: AJUNOK_clean_linker_0, # of connection points: 2
#     Edge 32, Type (0, 0), BuildingBlock: AJUNOK_clean_linker_0, # of connection points: 2
#     Edge 33, Type (0, 0), BuildingBlock: AJUNOK_clean_linker_0, # of connection points: 2
#     Edge 34, Type (0, 0), BuildingBlock: AJUNOK_clean_linker_0, # of connection points: 2
#     Edge 35, Type (0, 0), BuildingBlock: AJUNOK_clean_linker_0, # of connection points: 2
#     Edge 36, Type (0, 0), BuildingBlock: AJUNOK_clean_linker_0, # of connection points: 2
#     Edge 37, Type (0, 0), BuildingBlock: AJUNOK_clean_linker_0, # of connection points: 2
#     Edge 38, Type (0, 0), BuildingBlock: AJUNOK_clean_linker_0, # of connection points: 2
#     Edge 39, Type (0, 0), BuildingBlock: AJUNOK_clean_linker_0, # of connection points: 2
#     Edge 40, Type (0, 0), BuildingBlock: AJUNOK_clean_linker_0, # of connection points: 2
#     Edge 41, Type (0, 0), BuildingBlock: AJUNOK_clean_linker_0, # of connection points: 2
#     Edge 42, Type (0, 0), BuildingBlock: AJUNOK_clean_linker_0, # of connection points: 2
#     Edge 43, Type (0, 0), BuildingBlock: AJUNOK_clean_linker_0, # of connection points: 2
#     Edge 44, Type (0, 0), BuildingBlock: AJUNOK_clean_linker_0, # of connection points: 2
#     Edge 45, Type (0, 0), BuildingBlock: AJUNOK_clean_linker_0, # of connection points: 2
#     Edge 46, Type (0, 0), BuildingBlock: AJUNOK_clean_linker_0, # of connection points: 2
#     Edge 47, Type (0, 0), BuildingBlock: AJUNOK_clean_linker_0, # of connection points: 2
# Relax obj value: 0.042
# Max RMSD: 0.170
# Mean RMSD: 0.137
data_MOF--net-ume--node1-ESEHIV_clean_sbu_0--edge1-AJUNOK_clean_linker_0
_symmetry_space_group_name_H-M    P1
_symmetry_Int_Tables_number       1
_symmetry_cell_setting            triclinic
loop_
_symmetry_equiv_pos_as_xyz
'x, y, z'
_cell_length_a     20.517379
_cell_length_b     26.104011
_cell_length_c     90.578999
_cell_angle_alpha  89.824519
_cell_angle_beta   89.989133
_cell_angle_gamma 90.012854
loop_
_atom_site_label
_atom_site_type_symbol
_atom_site_fract_x
_atom_site_fract_y
_atom_site_fract_z
_atom_type_partial_charge
Cu0 Cu 0.28602 0.11237 0.32098 0.0
N1 N 0.29279 0.15124 0.33812 0.0
N2 N 0.29573 0.17263 0.36199 0.0
C3 C 0.2733 0.13888 0.35187 0.0
C4 C 0.32977 0.20773 0.35417 0.0
C5 C 0.32812 0.1943 0.33951 0.0
O6 O 0.2085 0.06819 0.32238 0.0
C7 C 0.39418 0.05064 0.30935 0.0
O8 O 0.3571 0.03888 0.29804 0.0
H9 H 0.24415 0.10541 0.3543 0.0
H10 H 0.3533 0.21329 0.33054 0.0
N11 N 0.27528 0.15822 0.30517 0.0
N12 N 0.2809 0.19688 0.28314 0.0
C13 C 0.29727 0.15511 0.29116 0.0
C14 C 0.2438 0.2034 0.30593 0.0
C15 C 0.24692 0.2272 0.29238 0.0
C16 C 0.15331 0.08981 0.32442 0.0
O17 O 0.15187 0.13977 0.32598 0.0
H18 H 0.32611 0.12376 0.28697 0.0
H19 H 0.22072 0.21836 0.31574 0.0
O20 O 0.37068 0.07745 0.3198 0.0
H21 H 0.35656 0.2396 0.35879 0.0
H22 H 0.2257 0.26389 0.28954 0.0
Cu23 Cu 0.95424 0.77229 0.58818 0.0
N24 N 1.00255 0.83209 0.59116 0.0
N25 N 1.0272 0.91552 0.59203 0.0
C26 C 0.99255 0.87865 0.58511 0.0
C27 C 0.06167 0.89077 0.60255 0.0
C28 C 0.04619 0.83946 0.60202 0.0
O29 O 0.901 0.77854 0.57052 0.0
C30 C 0.88629 0.79305 0.61477 0.0
O31 O 0.88826 0.84062 0.61004 0.0
H32 H 0.95933 0.88546 0.57607 0.0
H33 H 0.06248 0.81002 0.60959 0.0
N34 N 1.01053 0.71755 0.58478 0.0
N35 N 0.04542 0.63686 0.58211 0.0
C36 C 0.99851 0.66777 0.58763 0.0
C37 C 0.06677 0.71844 0.57718 0.0
C38 C 0.08834 0.66878 0.57548 0.0
C39 C 0.85858 0.81268 0.56768 0.0
O40 O 0.84332 0.84647 0.57782 0.0
H41 H 0.95505 0.65448 0.59323 0.0
H42 H 0.08875 0.7526 0.57258 0.0
O43 O 0.90664 0.75761 0.6063 0.0
H44 H 0.09287 0.90889 0.61063 0.0
H45 H 0.13026 0.65719 0.56906 0.0
Cu46 Cu 0.26624 0.44037 0.82112 0.0
N47 N 0.25415 0.40344 0.83855 0.0
N48 N 0.25189 0.38248 0.86248 0.0
C49 C 0.27279 0.41666 0.85227 0.0
C50 C 0.21953 0.34627 0.8548 0.0
C51 C 0.22082 0.35939 0.84008 0.0
O52 O 0.34305 0.4835 0.82282 0.0
C53 C 0.13405 0.4619 0.81592 0.0
O54 O 0.13078 0.41181 0.81486 0.0
H55 H 0.30159 0.45037 0.85463 0.0
H56 H 0.19829 0.33862 0.83111 0.0
N57 N 0.27649 0.39488 0.80541 0.0
N58 N 0.26984 0.35895 0.78311 0.0
C59 C 0.25644 0.40075 0.79134 0.0
C60 C 0.30331 0.3479 0.80609 0.0
C61 C 0.29905 0.32557 0.79237 0.0
C62 C 0.39979 0.46429 0.82412 0.0
O63 O 0.40617 0.41422 0.82429 0.0
H64 H 0.23044 0.43417 0.7874 0.0
H65 H 0.32354 0.33077 0.81597 0.0
O66 O 0.18936 0.48259 0.81817 0.0
H67 H 0.19557 0.3131 0.85953 0.0
H68 H 0.31565 0.28757 0.78945 0.0
Cu69 Cu 0.59156 0.77523 0.08403 0.0
N70 N 0.53718 0.71895 0.08646 0.0
N71 N 0.50905 0.63657 0.0878 0.0
C72 C 0.55012 0.67116 0.08181 0.0
C73 C 0.46823 0.66367 0.09646 0.0
C74 C 0.48612 0.71451 0.09571 0.0
O75 O 0.63799 0.76562 0.06559 0.0
C76 C 0.63964 0.80428 0.11253 0.0
O77 O 0.60481 0.846 0.11085 0.0
H78 H 0.59158 0.66143 0.07498 0.0
H79 H 0.46571 0.7456 0.10208 0.0
N80 N 0.54151 0.83484 0.08242 0.0
N81 N 0.51252 0.91723 0.08138 0.0
C82 C 0.56247 0.88376 0.08243 0.0
C83 C 0.47639 0.83753 0.0808 0.0
C84 C 0.45833 0.88828 0.0802 0.0
C85 C 0.68801 0.73746 0.06402 0.0
O86 O 0.71499 0.71653 0.07573 0.0
H87 H 0.61314 0.89461 0.08361 0.0
H88 H 0.4442 0.80487 0.08003 0.0
O89 O 0.64582 0.77346 0.10174 0.0
H90 H 0.42953 0.64777 0.10318 0.0
H91 H 0.40924 0.90269 0.07883 0.0
Cu92 Cu 0.29439 0.43324 0.96697 0.0
N93 N 0.30066 0.3981 0.94916 0.0
N94 N 0.29685 0.37939 0.92512 0.0
C95 C 0.27558 0.41098 0.93591 0.0
C96 C 0.33621 0.3453 0.93192 0.0
C97 C 0.33878 0.35714 0.9467 0.0
O98 O 0.21612 0.47651 0.96655 0.0
C99 C 0.3995 0.49571 0.97949 0.0
O100 O 0.36027 0.50648 0.9905 0.0
H101 H 0.24293 0.44302 0.93428 0.0
H102 H 0.36797 0.3382 0.95502 0.0
N103 N 0.28534 0.38473 0.98215 0.0
N104 N 0.28476 0.34715 1.00437 0.0
C105 C 0.29709 0.39053 0.99668 0.0
C106 C 0.26492 0.336 0.98063 0.0
C107 C 0.26489 0.31265 0.99428 0.0
C108 C 0.16072 0.45416 0.96599 0.0
O109 O 0.1594 0.40391 0.96546 0.0
H110 H 0.31584 0.4253 1.0015 0.0
H111 H 0.25104 0.31859 0.97027 0.0
O112 O 0.37835 0.46894 0.96877 0.0
H113 H 0.3631 0.31501 0.92651 0.0
H114 H 0.25134 0.27338 0.99663 0.0
Cu115 Cu 0.61027 0.78176 0.20331 0.0
N116 N 0.55832 0.83989 0.20148 0.0
N117 N 0.53393 0.9232 0.2003 0.0
C118 C 0.5775 0.88774 0.20483 0.0
C119 C 0.48492 0.89633 0.19406 0.0
C120 C 0.50038 0.84492 0.1947 0.0
O121 O 0.66728 0.79324 0.22013 0.0
C122 C 0.62978 0.75155 0.17383 0.0
O123 O 0.57579 0.72586 0.17623 0.0
H124 H 0.62325 0.89615 0.21023 0.0
H125 H 0.4728 0.81365 0.19 0.0
N126 N 0.55954 0.72367 0.20719 0.0
N127 N 0.52895 0.64186 0.20978 0.0
C128 C 0.57703 0.67422 0.20561 0.0
C129 C 0.49884 0.72263 0.21278 0.0
C130 C 0.47996 0.67234 0.21446 0.0
C131 C 0.63897 0.80129 0.23244 0.0
O132 O 0.57498 0.80003 0.23285 0.0
H133 H 0.6239 0.66232 0.20134 0.0
H134 H 0.47078 0.75616 0.21571 0.0
O135 O 0.65566 0.7763 0.18443 0.0
H136 H 0.44244 0.91283 0.18879 0.0
H137 H 0.43445 0.65947 0.21922 0.0
Cu138 Cu 0.29286 0.10566 0.46549 0.0
N139 N 0.28706 0.14863 0.44916 0.0
N140 N 0.28013 0.17185 0.42545 0.0
C141 C 0.30145 0.1361 0.43514 0.0
C142 C 0.25234 0.20862 0.43382 0.0
C143 C 0.25633 0.19402 0.44842 0.0
O144 O 0.36983 0.06213 0.46281 0.0
C145 C 0.17862 0.04887 0.47603 0.0
O146 O 0.20524 0.04762 0.48921 0.0
H147 H 0.32591 0.1009 0.43221 0.0
H148 H 0.23541 0.21375 0.45778 0.0
N149 N 0.30164 0.1463 0.48236 0.0
N150 N 0.27965 0.18584 0.50369 0.0
C151 C 0.25515 0.15931 0.49214 0.0
C152 C 0.35721 0.1665 0.48765 0.0
C153 C 0.34406 0.19025 0.50088 0.0
C154 C 0.40636 0.04705 0.47335 0.0
O155 O 0.38914 0.05649 0.48703 0.0
H156 H 0.2044 0.14903 0.49088 0.0
H157 H 0.40453 0.16241 0.48252 0.0
O158 O 0.21023 0.06843 0.4653 0.0
H159 H 0.22811 0.24252 0.42964 0.0
H160 H 0.37998 0.20702 0.50814 0.0
Cu161 Cu 0.9607 0.77073 0.70401 0.0
N162 N 1.01239 0.71271 0.70102 0.0
N163 N 0.04056 0.63032 0.69927 0.0
C164 C 1.0022 0.66482 0.70613 0.0
C165 C 0.07663 0.65751 0.68958 0.0
C166 C 0.05937 0.70833 0.69073 0.0
O167 O 0.90917 0.7631 0.72189 0.0
C168 C 0.89297 0.74715 0.6774 0.0
O169 O 0.90128 0.6993 0.68152 0.0
H170 H 0.96393 0.65474 0.71381 0.0
H171 H 0.07649 0.73945 0.68384 0.0
N172 N 1.01405 0.82797 0.70647 0.0
N173 N 0.04565 0.90981 0.70754 0.0
C174 C 0.99518 0.8773 0.70562 0.0
C175 C 0.07854 0.82924 0.70915 0.0
C176 C 0.09822 0.87974 0.70982 0.0
C177 C 0.86617 0.72893 0.72424 0.0
O178 O 0.85068 0.69693 0.71364 0.0
H179 H 0.94554 0.88911 0.70341 0.0
H180 H 0.10906 0.79579 0.71054 0.0
O181 O 0.91005 0.78283 0.68615 0.0
H182 H 0.11036 0.64137 0.68167 0.0
H183 H 0.14711 0.89324 0.71205 0.0
Cu184 Cu 0.76725 0.61314 0.82185 0.0
N185 N 0.77727 0.64963 0.83946 0.0
N186 N 0.7823 0.66931 0.86345 0.0
C187 C 0.77109 0.63206 0.85342 0.0
C188 C 0.79588 0.71174 0.85549 0.0
C189 C 0.79316 0.69943 0.84074 0.0
O190 O 0.68889 0.57142 0.82278 0.0
C191 C 0.89991 0.58891 0.81856 0.0
O192 O 0.9065 0.63876 0.81989 0.0
H193 H 0.75783 0.59302 0.85614 0.0
H194 H 0.80267 0.72497 0.83157 0.0
N195 N 0.76005 0.6586 0.80591 0.0
N196 N 0.77328 0.69524 0.78378 0.0
C197 C 0.78804 0.65475 0.79249 0.0
C198 C 0.72581 0.70256 0.80557 0.0
C199 C 0.73399 0.72531 0.79196 0.0
C200 C 0.63434 0.59122 0.82627 0.0
O201 O 0.63235 0.64011 0.82962 0.0
H202 H 0.81945 0.62341 0.78925 0.0
H203 H 0.69713 0.71722 0.81464 0.0
O204 O 0.84294 0.56969 0.81906 0.0
H205 H 0.80798 0.74885 0.86004 0.0
H206 H 0.71219 0.76091 0.78829 0.0
Cu207 Cu 0.45308 0.27776 0.08445 0.0
N208 N 0.50353 0.33639 0.08153 0.0
N209 N 0.53056 0.41916 0.08101 0.0
C210 C 0.4901 0.3835 0.08668 0.0
C211 C 0.57067 0.39362 0.07181 0.0
C212 C 0.55385 0.34248 0.07216 0.0
O213 O 0.39205 0.27604 0.06817 0.0
C214 C 0.44498 0.29569 0.1146 0.0
O215 O 0.50512 0.31101 0.11232 0.0
H216 H 0.44906 0.39181 0.0938 0.0
H217 H 0.57486 0.31224 0.06556 0.0
N218 N 0.50468 0.21923 0.08372 0.0
N219 N 0.53128 0.13637 0.08326 0.0
C220 C 0.48249 0.17095 0.08253 0.0
C221 C 0.56974 0.21522 0.08522 0.0
C222 C 0.58638 0.16404 0.08482 0.0
C223 C 0.35687 0.3149 0.06526 0.0
O224 O 0.35495 0.35259 0.07482 0.0
H225 H 0.43148 0.16152 0.08119 0.0
H226 H 0.60257 0.24714 0.08681 0.0
O227 O 0.41147 0.27941 0.10376 0.0
H228 H 0.60821 0.41092 0.06503 0.0
H229 H 0.6349 0.14827 0.08602 0.0
Cu230 Cu 0.77941 0.94216 0.32418 0.0
N231 N 0.77467 0.90179 0.34123 0.0
N232 N 0.77624 0.87527 0.36477 0.0
C233 C 0.79321 0.91283 0.35516 0.0
C234 C 0.74495 0.83991 0.35653 0.0
C235 C 0.74433 0.85627 0.34208 0.0
O236 O 0.85563 0.98778 0.32492 0.0
C237 C 0.67256 0.99974 0.31137 0.0
O238 O 0.71058 1.0057 0.29982 0.0
H239 H 0.81793 0.94789 0.35821 0.0
H240 H 0.72133 0.83718 0.33286 0.0
N241 N 0.78939 0.89868 0.30782 0.0
N242 N 0.77201 0.85869 0.28633 0.0
C243 C 0.74705 0.89025 0.2967 0.0
C244 C 0.84228 0.87044 0.3045 0.0
C245 C 0.83174 0.84573 0.29129 0.0
C246 C 0.91141 0.97054 0.3288 0.0
O247 O 0.91576 0.92281 0.33332 0.0
H248 H 0.69914 0.90733 0.29608 0.0
H249 H 0.88575 0.86787 0.31117 0.0
O250 O 0.695 0.97748 0.32283 0.0
H251 H 0.72158 0.80563 0.36068 0.0
H252 H 0.86513 0.8197 0.28592 0.0
Cu253 Cu 0.10476 0.27194 0.58448 0.0
N254 N 0.04764 0.2167 0.58638 0.0
N255 N 1.01449 0.13522 0.58786 0.0
C256 C 0.06397 0.16724 0.58445 0.0
C257 C 0.96522 0.16598 0.59225 0.0
C258 C 0.98585 0.21623 0.59132 0.0
O259 O 0.16221 0.25789 0.56794 0.0
C260 C 0.12237 0.29773 0.61405 0.0
O261 O 0.06567 0.31985 0.6119 0.0
H262 H 0.11182 0.15502 0.58086 0.0
H263 H 0.95869 0.2499 0.59454 0.0
N264 N 0.06031 0.33291 0.58036 0.0
N265 N 0.03781 0.41659 0.57837 0.0
C266 C 0.07947 0.38088 0.5837 0.0
C267 C 1.0048 0.33825 0.57263 0.0
C268 C 0.99067 0.3897 0.57143 0.0
C269 C 0.13589 0.24147 0.55613 0.0
O270 O 0.07242 0.23503 0.55571 0.0
H271 H 0.12255 0.38903 0.59016 0.0
H272 H 0.97707 0.30691 0.56801 0.0
O273 O 0.15053 0.27589 0.60324 0.0
H274 H 0.91878 0.15319 0.59655 0.0
H275 H 0.94944 0.40608 0.56565 0.0
Cu276 Cu 0.79202 0.92964 0.46949 0.0
N277 N 0.80686 0.89474 0.45175 0.0
N278 N 0.81167 0.87278 0.42789 0.0
C279 C 0.78525 0.90489 0.43797 0.0
C280 C 0.85213 0.84209 0.43566 0.0
C281 C 0.84881 0.85556 0.45031 0.0
O282 O 0.71264 0.97109 0.46876 0.0
C283 C 0.90943 0.98517 0.46435 0.0
O284 O 0.89107 0.98266 0.45048 0.0
H285 H 0.75163 0.93555 0.43536 0.0
H286 H 0.87674 0.83911 0.45927 0.0
N287 N 0.78043 0.88161 0.48457 0.0
N288 N 0.78435 0.8437 0.5067 0.0
C289 C 0.80026 0.88562 0.4987 0.0
C290 C 0.75045 0.8359 0.48362 0.0
C291 C 0.75278 0.81239 0.49727 0.0
C292 C 0.6602 0.95223 0.4635 0.0
O293 O 0.66141 0.90598 0.45784 0.0
H294 H 0.82673 0.91826 0.50297 0.0
H295 H 0.72845 0.82081 0.47369 0.0
O296 O 0.87116 0.96807 0.47429 0.0
H297 H 0.88408 0.81328 0.43107 0.0
H298 H 0.73215 0.77545 0.50006 0.0
Cu299 Cu 0.09438 0.27543 0.70353 0.0
N300 N 0.03639 0.33019 0.70167 0.0
N301 N 1.00702 0.41242 0.69981 0.0
C302 C 0.04543 0.37811 0.7068 0.0
C303 C 0.97225 0.38507 0.68996 0.0
C304 C 0.99056 0.33449 0.69111 0.0
O305 O 0.14418 0.28399 0.72153 0.0
C306 C 0.1496 0.24817 0.67545 0.0
O307 O 0.12885 0.20141 0.67797 0.0
H308 H 0.08403 0.38857 0.71433 0.0
H309 H 0.97636 0.30398 0.68373 0.0
N310 N 0.04864 0.21329 0.70443 0.0
N311 N 1.02665 0.12939 0.70584 0.0
C312 C 0.07354 0.16582 0.70615 0.0
C313 C 0.98376 0.2067 0.70335 0.0
C314 C 0.9701 0.15514 0.7042 0.0
C315 C 0.18597 0.31943 0.72329 0.0
O316 O 0.20074 0.34925 0.71206 0.0
H317 H 0.12501 0.15836 0.70761 0.0
H318 H 0.94865 0.23719 0.70199 0.0
O319 O 0.14666 0.2813 0.6857 0.0
H320 H 0.93975 0.40111 0.68175 0.0
H321 H 0.92229 0.13783 0.70338 0.0
Cu322 Cu 0.78833 0.60373 0.9679 0.0
N323 N 0.78942 0.64365 0.95073 0.0
N324 N 0.78755 0.66641 0.92689 0.0
C325 C 0.78336 0.62731 0.93668 0.0
C326 C 0.79604 0.70884 0.93517 0.0
C327 C 0.79728 0.69469 0.94983 0.0
O328 O 0.8627 0.55619 0.96728 0.0
C329 C 0.67707 0.54981 0.9801 0.0
O330 O 0.71279 0.54404 0.99202 0.0
H331 H 0.77509 0.58766 0.93379 0.0
H332 H 0.80387 0.7198 0.95919 0.0
N333 N 0.80057 0.64636 0.98437 0.0
N334 N 0.7882 0.6849 1.00625 0.0
C335 C 0.75921 0.65688 0.99556 0.0
C336 C 0.85709 0.66914 0.98808 0.0
C337 C 0.84972 0.69268 1.00155 0.0
C338 C 0.9179 0.57236 0.96262 0.0
O339 O 0.92184 0.61929 0.95743 0.0
H340 H 0.70985 0.64256 0.99617 0.0
H341 H 0.9014 0.66759 0.98167 0.0
O342 O 0.70217 0.57088 0.96872 0.0
H343 H 0.80193 0.74736 0.93091 0.0
H344 H 0.8871 0.71315 1.00756 0.0
Cu345 Cu 0.46484 0.28112 0.20452 0.0
N346 N 0.51874 0.22456 0.20155 0.0
N347 N 0.55098 0.14294 0.20003 0.0
C348 C 0.50999 0.17642 0.20656 0.0
C349 C 0.58714 0.17136 0.19061 0.0
C350 C 0.56724 0.22163 0.19161 0.0
O351 O 0.4082 0.27029 0.22134 0.0
C352 C 0.40478 0.26262 0.17672 0.0
O353 O 0.40605 0.21415 0.18066 0.0
H354 H 0.47246 0.16567 0.21434 0.0
H355 H 0.58383 0.25328 0.18485 0.0
N356 N 0.51464 0.33854 0.20904 0.0
N357 N 0.53943 0.42152 0.21146 0.0
C358 C 0.50198 0.38659 0.20446 0.0
C359 C 0.5624 0.34278 0.21911 0.0
C360 C 0.57809 0.39393 0.22057 0.0
C361 C 0.36674 0.23478 0.22334 0.0
O362 O 0.35531 0.20173 0.21275 0.0
H363 H 0.46494 0.39548 0.19637 0.0
H364 H 0.58216 0.31118 0.22544 0.0
O365 O 0.42099 0.29651 0.18608 0.0
H366 H 0.62207 0.15654 0.18276 0.0
H367 H 0.61294 0.40977 0.22828 0.0
C368 C 0.03368 0.97876 0.32917 0.0
C369 C 0.97199 1.00219 0.32761 0.0
C370 C 0.09191 1.00694 0.32791 0.0
C371 C 0.09117 0.06 0.3252 0.0
H372 H 0.03733 0.93803 0.33132 0.0
H373 H 0.13783 0.987 0.32927 0.0
S374 S 0.94286 0.14001 0.31989 0.0
N375 N 0.91423 0.08183 0.32291 0.0
N376 N 1.02296 0.13481 0.32067 0.0
C377 C 0.02982 0.08396 0.32355 0.0
C378 C 0.97055 0.05513 0.32471 0.0
C379 C 0.98556 0.55458 0.58124 0.0
C380 C 0.04503 0.58143 0.58177 0.0
C381 C 0.98381 0.501 0.58027 0.0
C382 C 0.04141 0.47174 0.57977 0.0
H383 H 0.93976 0.57511 0.58127 0.0
H384 H 0.93673 0.48234 0.57995 0.0
S385 S 0.21012 0.52321 0.58116 0.0
N386 N 0.16318 0.57438 0.58231 0.0
N387 N 0.15999 0.474 0.57982 0.0
C388 C 0.10134 0.49802 0.58041 0.0
C389 C 0.10311 0.55269 0.58153 0.0
C390 C 0.57717 0.50682 0.82339 0.0
C391 C 0.57371 0.55981 0.82616 0.0
C392 C 0.52085 0.47639 0.8229 0.0
C393 C 0.45848 0.49761 0.82504 0.0
H394 H 0.62381 0.4885 0.82154 0.0
H395 H 0.52641 0.4359 0.82064 0.0
S396 S 0.4222 0.63404 0.83311 0.0
N397 N 0.50225 0.63199 0.83143 0.0
N398 N 0.3967 0.57484 0.83042 0.0
C399 C 0.45418 0.55044 0.82795 0.0
C400 C 0.51163 0.58146 0.82854 0.0
C401 C 0.57264 0.05187 0.07544 0.0
C402 C 0.52579 0.08137 0.08292 0.0
C403 C 0.56801 0.99827 0.07496 0.0
C404 C 0.51636 0.9723 0.08193 0.0
H405 H 0.61266 0.07047 0.06977 0.0
H406 H 0.60461 0.97699 0.06893 0.0
S407 S 0.38551 0.03145 0.10442 0.0
N408 N 0.42907 0.08042 0.0984 0.0
N409 N 0.42034 0.97984 0.09749 0.0
C410 C 0.46999 1.00129 0.0897 0.0
C411 C 0.47472 0.05579 0.0902 0.0
C412 C 0.09819 0.53599 0.96194 0.0
C413 C 0.09827 0.48359 0.96555 0.0
C414 C 0.03972 0.56386 0.96093 0.0
C415 C 0.97856 0.54081 0.96366 0.0
H416 H 0.14361 0.55564 0.95965 0.0
H417 H 0.04282 0.60407 0.95805 0.0
S418 S 0.95171 0.40484 0.97406 0.0
N419 N 0.0315 0.40981 0.97219 0.0
N420 N 0.92219 0.46232 0.97041 0.0
C421 C 0.97793 0.48856 0.96747 0.0
C422 C 0.03749 0.46 0.96838 0.0
C423 C 0.59213 0.50664 0.21266 0.0
C424 C 0.53584 0.47676 0.21049 0.0
C425 C 0.58967 0.56035 0.21225 0.0
C426 C 0.53072 0.5865 0.2097 0.0
H427 H 0.63862 0.48832 0.21469 0.0
H428 H 0.63413 0.58155 0.21423 0.0
S429 S 0.36932 0.52653 0.20302 0.0
N430 N 0.41899 0.47775 0.2058 0.0
N431 N 0.41509 0.57829 0.20432 0.0
C432 C 0.4742 0.55715 0.20727 0.0
C433 C 0.47658 0.50245 0.2078 0.0
C434 C 0.52247 0.02988 0.48041 0.0
C435 C 0.47095 0.02345 0.47028 0.0
C436 C 0.58434 1.00862 0.47783 0.0
C437 C 0.59677 0.97904 0.46519 0.0
H438 H 0.51514 0.05185 0.4904 0.0
H439 H 0.6221 1.01409 0.48603 0.0
S440 S 0.4793 0.95155 0.43507 0.0
N441 N 0.43742 0.98673 0.44686 0.0
N442 N 0.55289 0.94539 0.44225 0.0
C443 C 0.54592 0.9726 0.45492 0.0
C444 C 0.4833 0.99518 0.45739 0.0
C445 C 0.98582 0.04432 0.71353 0.0
C446 C 0.03413 0.07442 0.70666 0.0
C447 C 0.99014 0.99071 0.71384 0.0
C448 C 0.04311 0.96502 0.70738 0.0
H449 H 0.94433 0.0624 0.71874 0.0
H450 H 0.95194 0.96913 0.71928 0.0
S451 S 0.18017 0.02537 0.68707 0.0
N452 N 0.13506 0.0741 0.69257 0.0
N453 N 0.14347 0.9734 0.69336 0.0
C454 C 0.09177 0.99448 0.70047 0.0
C455 C 0.08724 0.04914 0.70007 0.0
C456 C 0.56628 0.02339 0.32352 0.0
C457 C 0.60199 1.01356 0.31055 0.0
C458 C 0.49933 0.0351 0.32303 0.0
C459 C 0.46472 0.03628 0.30958 0.0
H460 H 0.59037 1.02251 0.33416 0.0
H461 H 0.4744 0.04296 0.33332 0.0
S462 S 0.53492 1.01185 0.27245 0.0
N463 N 0.5972 1.0052 0.28383 0.0
N464 N 0.47172 0.02616 0.28294 0.0
C465 C 0.4997 0.02586 0.29654 0.0
C466 C 0.56811 1.01486 0.29702 0.0
C467 C 0.07851 1.00103 0.5927 0.0
C468 C 1.02338 0.97039 0.59002 0.0
C469 C 0.0754 0.05458 0.59177 0.0
C470 C 1.0169 0.07989 0.58817 0.0
H471 H 0.12451 0.98341 0.59562 0.0
H472 H 0.11892 0.07634 0.59424 0.0
S473 S 0.85866 1.01765 0.57973 0.0
N474 N 0.90818 0.96961 0.58356 0.0
N475 N 0.9031 0.07008 0.5813 0.0
C476 C 0.9616 0.04978 0.58519 0.0
C477 C 0.96467 0.99514 0.5862 0.0
C478 C 0.07743 0.54677 0.81799 0.0
C479 C 0.07369 0.49358 0.81561 0.0
C480 C 1.02116 0.57717 0.81868 0.0
C481 C 0.95855 0.55576 0.81708 0.0
H482 H 0.12422 0.56521 0.81956 0.0
H483 H 1.02701 0.61776 0.82075 0.0
S484 S 0.92166 0.41887 0.80973 0.0
N485 N 1.00185 0.42111 0.81096 0.0
N486 N 0.89637 0.47817 0.81232 0.0
C487 C 0.95404 0.5028 0.81434 0.0
C488 C 1.01144 0.47179 0.8136 0.0
C489 C 0.52872 0.56011 0.07257 0.0
C490 C 0.5134 0.58182 0.08633 0.0
C491 C 0.53499 0.50698 0.07092 0.0
C492 C 0.52628 0.4737 0.083 0.0
H493 H 0.53522 0.58446 0.06298 0.0
H494 H 0.54556 0.49176 0.06008 0.0
S495 S 0.49276 0.51159 0.12168 0.0
N496 N 0.49444 0.56623 0.11245 0.0
N497 N 0.50604 0.46632 0.10935 0.0
C498 C 0.51221 0.49495 0.09688 0.0
C499 C 0.5058 0.54903 0.09855 0.0
C500 C 0.50698 0.51202 0.96683 0.0
C501 C 0.46965 0.51123 0.9799 0.0
C502 C 0.5737 0.52463 0.96697 0.0
C503 C 0.60646 0.53587 0.98023 0.0
H504 H 0.48443 0.50302 0.95634 0.0
H505 H 0.59999 0.52497 0.9566 0.0
S506 S 0.5315 0.53973 1.01756 0.0
N507 N 0.47088 0.52365 1.00652 0.0
N508 N 0.59592 0.54635 1.0068 0.0
C509 C 0.56982 0.53522 0.9934 0.0
C510 C 0.50163 0.52324 0.99323 0.0
C511 C 0.48432 1.00887 0.20287 0.0
C512 C 0.54003 0.97827 0.20091 0.0
C513 C 0.48847 0.06249 0.20294 0.0
C514 C 0.54854 0.08774 0.20097 0.0
H515 H 0.43702 0.99118 0.20433 0.0
H516 H 0.44394 0.0843 0.20415 0.0
S517 S 0.70927 0.02549 0.1956 0.0
N518 N 0.65732 0.97739 0.19686 0.0
N519 N 0.66529 0.07799 0.19752 0.0
C520 C 0.60481 0.05763 0.19923 0.0
C521 C 0.60057 1.003 0.1991 0.0
C522 C 1.01846 1.01916 0.45656 0.0
C523 C 0.97681 1.0028 0.468 0.0
C524 C 0.0833 0.03321 0.45929 0.0
C525 C 0.10995 0.03163 0.47363 0.0
H526 H 1.00117 1.02086 0.44527 0.0
H527 H 0.1127 0.04546 0.45 0.0
S528 S 1.02154 0.99243 0.50766 0.0
N529 N 0.96701 0.98635 0.49437 0.0
N530 N 0.08876 1.01291 0.49953 0.0
C531 C 0.06885 1.01563 0.48524 0.0
C532 C 1.00247 1.00129 0.48244 0.0
C533 C 1.019 0.49461 0.68662 0.0
C534 C 1.01453 0.46724 0.69998 0.0
C535 C 0.02877 0.54771 0.68649 0.0
C536 C 0.03346 0.57551 0.69972 0.0
H537 H 1.01595 0.47466 0.67618 0.0
H538 H 0.03156 0.56736 0.67597 0.0
S539 S 1.02513 0.52198 0.7376 0.0
N540 N 1.01617 0.47166 0.72675 0.0
N541 N 0.03336 0.57195 0.7265 0.0
C542 C 0.02883 0.54873 0.71315 0.0
C543 C 1.01987 0.49445 0.71328 0.0
C544 C 0.29008 0.2169 0.38602 0.0
C545 C 0.2893 0.17102 0.37789 0.0
C546 C 0.2871 0.21672 0.40146 0.0
C547 C 0.28294 0.17065 0.4095 0.0
H548 H 0.29298 0.25346 0.38039 0.0
H549 H 0.28895 0.25306 0.40716 0.0
S550 S 0.27702 0.0397 0.39359 0.0
N551 N 0.28433 0.07794 0.37914 0.0
N552 N 0.27492 0.07775 0.40809 0.0
C553 C 0.28084 0.12439 0.40153 0.0
C554 C 0.28471 0.12454 0.38577 0.0
C555 C 0.87858 0.73097 0.6359 0.0
C556 C 0.87423 0.78174 0.63069 0.0
C557 C 0.88004 0.7199 0.65106 0.0
C558 C 0.87762 0.75913 0.6617 0.0
H559 H 0.88403 0.6995 0.62823 0.0
H560 H 0.88674 0.68038 0.6544 0.0
S561 S 0.85528 0.89782 0.65398 0.0
N562 N 0.8592 0.87118 0.6375 0.0
N563 N 0.86246 0.85032 0.66594 0.0
C564 C 0.86823 0.8097 0.65667 0.0
C565 C 0.86637 0.821 0.64121 0.0
C566 C 0.26971 0.33671 0.88601 0.0
C567 C 0.26228 0.38311 0.87825 0.0
C568 C 0.28009 0.33597 0.90128 0.0
C569 C 0.2833 0.38157 0.90949 0.0
H570 H 0.26847 0.30057 0.88019 0.0
H571 H 0.2855 0.29926 0.90673 0.0
S572 S 0.26565 0.51341 0.89454 0.0
N573 N 0.25677 0.47597 0.88002 0.0
N574 N 0.27857 0.47465 0.90867 0.0
C575 C 0.27551 0.42833 0.90191 0.0
C576 C 0.26469 0.42909 0.88631 0.0
C577 C 0.66857 0.82365 0.13872 0.0
C578 C 0.65499 0.7871 0.12774 0.0
C579 C 0.66695 0.8106 0.15377 0.0
C580 C 0.64999 0.76081 0.15836 0.0
H581 H 0.67691 0.8633 0.13568 0.0
H582 H 0.67368 0.84069 0.16184 0.0
S583 S 0.61672 0.64976 0.13405 0.0
N584 N 0.63044 0.69774 0.12254 0.0
N585 N 0.62544 0.67374 0.15079 0.0
C586 C 0.64071 0.72315 0.1475 0.0
C587 C 0.64377 0.73614 0.13219 0.0
C588 C 0.75428 0.70635 0.88764 0.0
C589 C 0.78038 0.6658 0.87935 0.0
C590 C 0.75561 0.70564 0.90311 0.0
C591 C 0.78346 0.66448 0.91096 0.0
H592 H 0.73274 0.73901 0.8821 0.0
H593 H 0.73473 0.73774 0.90899 0.0
S594 S 0.86132 0.54989 0.89437 0.0
N595 N 0.83608 0.58379 0.88005 0.0
N596 N 0.83948 0.5826 0.90914 0.0
C597 C 0.80938 0.62341 0.90279 0.0
C598 C 0.80763 0.62404 0.88699 0.0
C599 C 0.38244 0.23909 0.15035 0.0
C600 C 0.40081 0.27639 0.16079 0.0
C601 C 0.39177 0.24715 0.13515 0.0
C602 C 0.42074 0.29246 0.12991 0.0
H603 H 0.3638 0.20231 0.15397 0.0
H604 H 0.38054 0.21634 0.12757 0.0
S605 S 0.46837 0.40527 0.15216 0.0
N606 N 0.44157 0.36327 0.16439 0.0
N607 N 0.46073 0.37727 0.13594 0.0
C608 C 0.43492 0.33142 0.14004 0.0
C609 C 0.42437 0.32375 0.15546 0.0
C610 C 0.78401 0.91964 0.3889 0.0
C611 C 0.78607 0.87414 0.38059 0.0
C612 C 0.79149 0.91894 0.40434 0.0
C613 C 0.80177 0.87275 0.41207 0.0
H614 H 0.77567 0.95603 0.38346 0.0
H615 H 0.79014 0.95493 0.41023 0.0
S616 S 0.81137 0.74299 0.39552 0.0
N617 N 0.80069 0.78173 0.3813 0.0
N618 N 0.81188 0.78019 0.41021 0.0
C619 C 0.80366 0.82701 0.40389 0.0
C620 C 0.79648 0.82775 0.3882 0.0
C621 C 0.17393 0.22929 0.64893 0.0
C622 C 0.1587 0.26533 0.65994 0.0
C623 C 0.16796 0.24155 0.63388 0.0
C624 C 0.1452 0.28992 0.62936 0.0
H625 H 0.18725 0.1905 0.65196 0.0
H626 H 0.17639 0.21172 0.62581 0.0
S627 S 0.10636 0.39992 0.6536 0.0
N628 N 0.12677 0.35344 0.66509 0.0
N629 N 0.11384 0.3756 0.63688 0.0
C630 C 0.13421 0.32734 0.64017 0.0
C631 C 0.14151 0.31531 0.65546 0.0
C632 C 0.29723 0.16882 0.25737 0.0
C633 C 0.29873 0.20776 0.26806 0.0
C634 C 0.31647 0.17838 0.24273 0.0
C635 C 0.3389 0.22707 0.23832 0.0
H636 H 0.28122 0.13067 0.26038 0.0
H637 H 0.31572 0.14691 0.23497 0.0
S638 S 0.35176 0.34214 0.26218 0.0
N639 N 0.32394 0.29681 0.27326 0.0
N640 N 0.35983 0.31502 0.24585 0.0
C641 C 0.33956 0.26653 0.2489 0.0
C642 C 0.31956 0.25684 0.26373 0.0
C643 C 0.79412 0.87401 0.53244 0.0
C644 C 0.79924 0.8343 0.52204 0.0
C645 C 0.81069 0.86612 0.54732 0.0
C646 C 0.83404 0.81838 0.55232 0.0
H647 H 0.77732 0.91153 0.52901 0.0
H648 H 0.8071 0.89819 0.55484 0.0
S649 S 0.85608 0.70183 0.52942 0.0
N650 N 0.8287 0.7455 0.51775 0.0
N651 N 0.85996 0.73045 0.54562 0.0
C652 C 0.83844 0.77814 0.54203 0.0
C653 C 0.82099 0.78612 0.52693 0.0
C654 C 0.20862 0.29158 0.74923 0.0
C655 C 0.21203 0.32985 0.73827 0.0
C656 C 0.22858 0.30118 0.76375 0.0
C657 C 0.25187 0.34963 0.76797 0.0
H658 H 0.18987 0.25388 0.74661 0.0
H659 H 0.22419 0.27077 0.77185 0.0
S660 S 0.27255 0.46267 0.74354 0.0
N661 N 0.24222 0.41801 0.73264 0.0
N662 N 0.27953 0.43581 0.75999 0.0
C663 C 0.25642 0.38809 0.75714 0.0
C664 C 0.23672 0.37822 0.74228 0.0
C665 C 0.80164 0.69576 0.03316 0.0
C666 C 0.76213 0.69882 1.02048 0.0
C667 C 0.77737 0.70843 0.04716 0.0
C668 C 0.71288 0.7255 0.04902 0.0
H669 H 0.8515 0.68256 0.03229 0.0
H670 H 0.80955 0.70498 0.05659 0.0
S671 S 0.58961 0.74069 1.01927 0.0
N672 N 0.65558 0.7204 1.01064 0.0
N673 N 0.60969 0.74453 0.03688 0.0
C674 C 0.67292 0.7291 0.03639 0.0
C675 C 0.69754 0.71558 1.02215 0.0
C676 C 0.3388 0.28314 0.0395 0.0
C677 C 0.32951 0.32163 0.05017 0.0
C678 C 0.32219 0.29119 1.02467 0.0
C679 C 0.29592 0.33811 1.01987 0.0
H680 H 0.36115 0.24698 0.0425 0.0
H681 H 0.33244 0.26117 1.01678 0.0
S682 S 0.25388 0.44901 0.0435 0.0
N683 N 0.2865 0.407 0.05498 0.0
N684 N 0.25519 0.42165 1.0271 0.0
C685 C 0.28329 0.37598 1.03048 0.0
C686 C 0.29992 0.3678 0.04562 0.0
C687 C 0.67321 0.83469 0.27249 0.0
C688 C 0.74087 0.84276 0.27281 0.0
C689 C 0.64136 0.82057 0.25945 0.0
C690 C 0.6757 0.81409 0.2461 0.0
H691 H 0.64457 0.83907 0.28244 0.0
H692 H 0.58908 0.81501 0.25989 0.0
S693 S 0.85365 0.83239 0.24089 0.0
N694 N 0.8413 0.84455 0.25855 0.0
N695 N 0.78157 0.81746 0.23403 0.0
C696 C 0.74359 0.82185 0.24626 0.0
C697 C 0.77611 0.83627 0.25959 0.0
C698 C 0.19006 0.1728 0.52155 0.0
C699 C 0.24505 0.20086 0.5169 0.0
C700 C 0.15557 0.1862 0.53429 0.0
C701 C 0.17524 0.22763 0.54309 0.0
H702 H 0.1737 0.13973 0.5154 0.0
H703 H 0.11344 0.1635 0.53736 0.0
S704 S 0.31313 0.31556 0.53562 0.0
N705 N 0.31517 0.27417 0.52187 0.0
N706 N 0.25166 0.29771 0.54622 0.0
C707 C 0.2301 0.25598 0.53873 0.0
C708 C 0.26468 0.243 0.52555 0.0
C709 C 0.81616 0.67355 0.74389 0.0
C710 C 0.83927 0.72193 0.73934 0.0
C711 C 0.79514 0.66496 0.75845 0.0
C712 C 0.79522 0.70463 0.76891 0.0
H713 H 0.81573 0.64169 0.73625 0.0
H714 H 0.77821 0.62713 0.76155 0.0
S715 S 0.85034 0.83824 0.7627 0.0
N716 N 0.86066 0.81005 0.74658 0.0
N717 N 0.82045 0.79382 0.77382 0.0
C718 C 0.81734 0.75325 0.76449 0.0
C719 C 0.83957 0.76189 0.74974 0.0
loop_
_geom_bond_atom_site_label_1
_geom_bond_atom_site_label_2
_geom_bond_distance
_geom_bond_site_symmetry_2
_ccdc_geom_bond_type
Cu0 N1 1.999 . S
Cu0 O6 1.974 . S
Cu0 N11 1.985 . S
Cu0 O20 1.959 . S
N1 Cu0 1.999 . S
N1 C3 1.263 . S
N1 C5 1.389 . S
N2 C3 1.358 . S
N2 C4 1.400 . S
C3 N1 1.263 . S
C3 N2 1.358 . S
C3 H9 0.930 . S
C4 N2 1.400 . S
C4 C5 1.351 . S
C4 H21 0.930 . S
C5 N1 1.389 . S
C5 C4 1.351 . S
C5 H10 0.930 . S
O6 Cu0 1.974 . S
O6 C16 1.282 . S
C7 O8 1.261 . S
C7 O20 1.251 . S
O8 C7 1.261 . S
H9 C3 0.930 . S
H10 C5 0.930 . S
N11 Cu0 1.985 . S
N11 C13 1.335 . S
N11 C14 1.390 . S
N12 C13 1.345 . S
N12 C15 1.336 . S
C13 N11 1.335 . S
C13 N12 1.345 . S
C13 H18 0.930 . S
C14 N11 1.390 . S
C14 C15 1.346 . S
C14 H19 0.930 . S
C15 N12 1.336 . S
C15 C14 1.346 . S
C15 H22 0.929 . S
C16 O6 1.282 . S
C16 O17 1.216 . S
O17 C16 1.216 . S
H18 C13 0.930 . S
H19 C14 0.930 . S
O20 Cu0 1.959 . S
O20 C7 1.251 . S
H21 C4 0.930 . S
H22 C15 0.929 . S
Cu23 N24 1.999 . S
Cu23 O29 1.974 . S
Cu23 N34 1.985 . S
Cu23 O43 1.959 . S
N24 Cu23 1.999 . S
N24 C26 1.263 . S
N24 C28 1.389 1_655 S
N25 C26 1.358 . S
N25 C27 1.400 1_655 S
C26 N24 1.263 . S
C26 N25 1.358 . S
C26 H32 0.930 . S
C27 N25 1.400 1_455 S
C27 C28 1.351 . S
C27 H44 0.930 . S
C28 N24 1.389 1_455 S
C28 C27 1.351 . S
C28 H33 0.930 . S
O29 Cu23 1.974 . S
O29 C39 1.282 . S
C30 O31 1.261 . S
C30 O43 1.251 . S
O31 C30 1.261 . S
H32 C26 0.930 . S
H33 C28 0.930 . S
N34 Cu23 1.985 . S
N34 C36 1.335 . S
N34 C37 1.390 . S
N35 C36 1.345 . S
N35 C38 1.336 . S
C36 N34 1.335 . S
C36 N35 1.345 . S
C36 H41 0.930 . S
C37 N34 1.390 . S
C37 C38 1.346 . S
C37 H42 0.930 . S
C38 N35 1.336 . S
C38 C37 1.346 . S
C38 H45 0.929 . S
C39 O29 1.282 . S
C39 O40 1.216 . S
O40 C39 1.216 . S
H41 C36 0.930 . S
H42 C37 0.930 . S
O43 Cu23 1.959 . S
O43 C30 1.251 . S
H44 C27 0.930 . S
H45 C38 0.929 . S
Cu46 N47 1.999 . S
Cu46 O52 1.974 . S
Cu46 N57 1.985 . S
Cu46 O66 1.959 . S
N47 Cu46 1.999 . S
N47 C49 1.263 . S
N47 C51 1.389 . S
N48 C49 1.358 . S
N48 C50 1.400 . S
C49 N47 1.263 . S
C49 N48 1.358 . S
C49 H55 0.930 . S
C50 N48 1.400 . S
C50 C51 1.351 . S
C50 H67 0.930 . S
C51 N47 1.389 . S
C51 C50 1.351 . S
C51 H56 0.930 . S
O52 Cu46 1.974 . S
O52 C62 1.282 . S
C53 O54 1.261 . S
C53 O66 1.251 . S
O54 C53 1.261 . S
H55 C49 0.930 . S
H56 C51 0.930 . S
N57 Cu46 1.985 . S
N57 C59 1.335 . S
N57 C60 1.390 . S
N58 C59 1.345 . S
N58 C61 1.336 . S
C59 N57 1.335 . S
C59 N58 1.345 . S
C59 H64 0.930 . S
C60 N57 1.390 . S
C60 C61 1.346 . S
C60 H65 0.930 . S
C61 N58 1.336 . S
C61 C60 1.346 . S
C61 H68 0.929 . S
C62 O52 1.282 . S
C62 O63 1.216 . S
O63 C62 1.216 . S
H64 C59 0.930 . S
H65 C60 0.930 . S
O66 Cu46 1.959 . S
O66 C53 1.251 . S
H67 C50 0.930 . S
H68 C61 0.929 . S
Cu69 N70 1.999 . S
Cu69 O75 1.974 . S
Cu69 N80 1.985 . S
Cu69 O89 1.959 . S
N70 Cu69 1.999 . S
N70 C72 1.263 . S
N70 C74 1.389 . S
N71 C72 1.358 . S
N71 C73 1.400 . S
C72 N70 1.263 . S
C72 N71 1.358 . S
C72 H78 0.930 . S
C73 N71 1.400 . S
C73 C74 1.351 . S
C73 H90 0.930 . S
C74 N70 1.389 . S
C74 C73 1.351 . S
C74 H79 0.930 . S
O75 Cu69 1.974 . S
O75 C85 1.282 . S
C76 O77 1.261 . S
C76 O89 1.251 . S
O77 C76 1.261 . S
H78 C72 0.930 . S
H79 C74 0.930 . S
N80 Cu69 1.985 . S
N80 C82 1.335 . S
N80 C83 1.390 . S
N81 C82 1.345 . S
N81 C84 1.336 . S
C82 N80 1.335 . S
C82 N81 1.345 . S
C82 H87 0.930 . S
C83 N80 1.390 . S
C83 C84 1.346 . S
C83 H88 0.930 . S
C84 N81 1.336 . S
C84 C83 1.346 . S
C84 H91 0.929 . S
C85 O75 1.282 . S
C85 O86 1.216 . S
O86 C85 1.216 . S
H87 C82 0.930 . S
H88 C83 0.930 . S
O89 Cu69 1.959 . S
O89 C76 1.251 . S
H90 C73 0.930 . S
H91 C84 0.929 . S
Cu92 N93 1.999 . S
Cu92 O98 1.974 . S
Cu92 N103 1.985 . S
Cu92 O112 1.959 . S
N93 Cu92 1.999 . S
N93 C95 1.263 . S
N93 C97 1.389 . S
N94 C95 1.358 . S
N94 C96 1.400 . S
C95 N93 1.263 . S
C95 N94 1.358 . S
C95 H101 0.930 . S
C96 N94 1.400 . S
C96 C97 1.351 . S
C96 H113 0.930 . S
C97 N93 1.389 . S
C97 C96 1.351 . S
C97 H102 0.930 . S
O98 Cu92 1.974 . S
O98 C108 1.282 . S
C99 O100 1.261 . S
C99 O112 1.251 . S
O100 C99 1.261 . S
H101 C95 0.930 . S
H102 C97 0.930 . S
N103 Cu92 1.985 . S
N103 C105 1.335 . S
N103 C106 1.390 . S
N104 C105 1.345 . S
N104 C107 1.336 . S
C105 N103 1.335 . S
C105 N104 1.345 . S
C105 H110 0.930 . S
C106 N103 1.390 . S
C106 C107 1.346 . S
C106 H111 0.930 . S
C107 N104 1.336 . S
C107 C106 1.346 . S
C107 H114 0.929 . S
C108 O98 1.282 . S
C108 O109 1.216 . S
O109 C108 1.216 . S
H110 C105 0.930 . S
H111 C106 0.930 . S
O112 Cu92 1.959 . S
O112 C99 1.251 . S
H113 C96 0.930 . S
H114 C107 0.929 . S
Cu115 N116 1.999 . S
Cu115 O121 1.974 . S
Cu115 N126 1.985 . S
Cu115 O135 1.959 . S
N116 Cu115 1.999 . S
N116 C118 1.263 . S
N116 C120 1.389 . S
N117 C118 1.358 . S
N117 C119 1.400 . S
C118 N116 1.263 . S
C118 N117 1.358 . S
C118 H124 0.930 . S
C119 N117 1.400 . S
C119 C120 1.351 . S
C119 H136 0.930 . S
C120 N116 1.389 . S
C120 C119 1.351 . S
C120 H125 0.930 . S
O121 Cu115 1.974 . S
O121 C131 1.282 . S
C122 O123 1.261 . S
C122 O135 1.251 . S
O123 C122 1.261 . S
H124 C118 0.930 . S
H125 C120 0.930 . S
N126 Cu115 1.985 . S
N126 C128 1.335 . S
N126 C129 1.390 . S
N127 C128 1.345 . S
N127 C130 1.336 . S
C128 N126 1.335 . S
C128 N127 1.345 . S
C128 H133 0.930 . S
C129 N126 1.390 . S
C129 C130 1.346 . S
C129 H134 0.930 . S
C130 N127 1.336 . S
C130 C129 1.346 . S
C130 H137 0.929 . S
C131 O121 1.282 . S
C131 O132 1.216 . S
O132 C131 1.216 . S
H133 C128 0.930 . S
H134 C129 0.930 . S
O135 Cu115 1.959 . S
O135 C122 1.251 . S
H136 C119 0.930 . S
H137 C130 0.929 . S
Cu138 N139 1.999 . S
Cu138 O144 1.974 . S
Cu138 N149 1.985 . S
Cu138 O158 1.959 . S
N139 Cu138 1.999 . S
N139 C141 1.263 . S
N139 C143 1.389 . S
N140 C141 1.358 . S
N140 C142 1.400 . S
C141 N139 1.263 . S
C141 N140 1.358 . S
C141 H147 0.930 . S
C142 N140 1.400 . S
C142 C143 1.351 . S
C142 H159 0.930 . S
C143 N139 1.389 . S
C143 C142 1.351 . S
C143 H148 0.930 . S
O144 Cu138 1.974 . S
O144 C154 1.282 . S
C145 O146 1.261 . S
C145 O158 1.251 . S
O146 C145 1.261 . S
H147 C141 0.930 . S
H148 C143 0.930 . S
N149 Cu138 1.985 . S
N149 C151 1.335 . S
N149 C152 1.390 . S
N150 C151 1.345 . S
N150 C153 1.336 . S
C151 N149 1.335 . S
C151 N150 1.345 . S
C151 H156 0.930 . S
C152 N149 1.390 . S
C152 C153 1.346 . S
C152 H157 0.930 . S
C153 N150 1.336 . S
C153 C152 1.346 . S
C153 H160 0.929 . S
C154 O144 1.282 . S
C154 O155 1.216 . S
O155 C154 1.216 . S
H156 C151 0.930 . S
H157 C152 0.930 . S
O158 Cu138 1.959 . S
O158 C145 1.251 . S
H159 C142 0.930 . S
H160 C153 0.929 . S
Cu161 N162 1.999 . S
Cu161 O167 1.974 . S
Cu161 N172 1.985 . S
Cu161 O181 1.959 . S
N162 Cu161 1.999 . S
N162 C164 1.263 . S
N162 C166 1.389 1_655 S
N163 C164 1.358 . S
N163 C165 1.400 1_655 S
C164 N162 1.263 . S
C164 N163 1.358 . S
C164 H170 0.930 . S
C165 N163 1.400 1_455 S
C165 C166 1.351 . S
C165 H182 0.930 . S
C166 N162 1.389 1_455 S
C166 C165 1.351 . S
C166 H171 0.930 . S
O167 Cu161 1.974 . S
O167 C177 1.282 . S
C168 O169 1.261 . S
C168 O181 1.251 . S
O169 C168 1.261 . S
H170 C164 0.930 . S
H171 C166 0.930 . S
N172 Cu161 1.985 . S
N172 C174 1.335 . S
N172 C175 1.390 . S
N173 C174 1.345 . S
N173 C176 1.336 . S
C174 N172 1.335 . S
C174 N173 1.345 . S
C174 H179 0.930 . S
C175 N172 1.390 . S
C175 C176 1.346 . S
C175 H180 0.930 . S
C176 N173 1.336 . S
C176 C175 1.346 . S
C176 H183 0.929 . S
C177 O167 1.282 . S
C177 O178 1.216 . S
O178 C177 1.216 . S
H179 C174 0.930 . S
H180 C175 0.930 . S
O181 Cu161 1.959 . S
O181 C168 1.251 . S
H182 C165 0.930 . S
H183 C176 0.929 . S
Cu184 N185 1.999 . S
Cu184 O190 1.974 . S
Cu184 N195 1.985 . S
Cu184 O204 1.959 . S
N185 Cu184 1.999 . S
N185 C187 1.263 . S
N185 C189 1.389 . S
N186 C187 1.358 . S
N186 C188 1.400 . S
C187 N185 1.263 . S
C187 N186 1.358 . S
C187 H193 0.930 . S
C188 N186 1.400 . S
C188 C189 1.351 . S
C188 H205 0.930 . S
C189 N185 1.389 . S
C189 C188 1.351 . S
C189 H194 0.930 . S
O190 Cu184 1.974 . S
O190 C200 1.282 . S
C191 O192 1.261 . S
C191 O204 1.251 . S
O192 C191 1.261 . S
H193 C187 0.930 . S
H194 C189 0.930 . S
N195 Cu184 1.985 . S
N195 C197 1.335 . S
N195 C198 1.390 . S
N196 C197 1.345 . S
N196 C199 1.336 . S
C197 N195 1.335 . S
C197 N196 1.345 . S
C197 H202 0.930 . S
C198 N195 1.390 . S
C198 C199 1.346 . S
C198 H203 0.930 . S
C199 N196 1.336 . S
C199 C198 1.346 . S
C199 H206 0.929 . S
C200 O190 1.282 . S
C200 O201 1.216 . S
O201 C200 1.216 . S
H202 C197 0.930 . S
H203 C198 0.930 . S
O204 Cu184 1.959 . S
O204 C191 1.251 . S
H205 C188 0.930 . S
H206 C199 0.929 . S
Cu207 N208 1.999 . S
Cu207 O213 1.974 . S
Cu207 N218 1.985 . S
Cu207 O227 1.959 . S
N208 Cu207 1.999 . S
N208 C210 1.263 . S
N208 C212 1.389 . S
N209 C210 1.358 . S
N209 C211 1.400 . S
C210 N208 1.263 . S
C210 N209 1.358 . S
C210 H216 0.930 . S
C211 N209 1.400 . S
C211 C212 1.351 . S
C211 H228 0.930 . S
C212 N208 1.389 . S
C212 C211 1.351 . S
C212 H217 0.930 . S
O213 Cu207 1.974 . S
O213 C223 1.282 . S
C214 O215 1.261 . S
C214 O227 1.251 . S
O215 C214 1.261 . S
H216 C210 0.930 . S
H217 C212 0.930 . S
N218 Cu207 1.985 . S
N218 C220 1.335 . S
N218 C221 1.390 . S
N219 C220 1.345 . S
N219 C222 1.336 . S
C220 N218 1.335 . S
C220 N219 1.345 . S
C220 H225 0.930 . S
C221 N218 1.390 . S
C221 C222 1.346 . S
C221 H226 0.930 . S
C222 N219 1.336 . S
C222 C221 1.346 . S
C222 H229 0.929 . S
C223 O213 1.282 . S
C223 O224 1.216 . S
O224 C223 1.216 . S
H225 C220 0.930 . S
H226 C221 0.930 . S
O227 Cu207 1.959 . S
O227 C214 1.251 . S
H228 C211 0.930 . S
H229 C222 0.929 . S
Cu230 N231 1.999 . S
Cu230 O236 1.974 . S
Cu230 N241 1.985 . S
Cu230 O250 1.959 . S
N231 Cu230 1.999 . S
N231 C233 1.263 . S
N231 C235 1.389 . S
N232 C233 1.358 . S
N232 C234 1.400 . S
C233 N231 1.263 . S
C233 N232 1.358 . S
C233 H239 0.930 . S
C234 N232 1.400 . S
C234 C235 1.351 . S
C234 H251 0.930 . S
C235 N231 1.389 . S
C235 C234 1.351 . S
C235 H240 0.930 . S
O236 Cu230 1.974 . S
O236 C246 1.282 . S
C237 O238 1.261 . S
C237 O250 1.251 . S
O238 C237 1.261 . S
H239 C233 0.930 . S
H240 C235 0.930 . S
N241 Cu230 1.985 . S
N241 C243 1.335 . S
N241 C244 1.390 . S
N242 C243 1.345 . S
N242 C245 1.336 . S
C243 N241 1.335 . S
C243 N242 1.345 . S
C243 H248 0.930 . S
C244 N241 1.390 . S
C244 C245 1.346 . S
C244 H249 0.930 . S
C245 N242 1.336 . S
C245 C244 1.346 . S
C245 H252 0.929 . S
C246 O236 1.282 . S
C246 O247 1.216 . S
O247 C246 1.216 . S
H248 C243 0.930 . S
H249 C244 0.930 . S
O250 Cu230 1.959 . S
O250 C237 1.251 . S
H251 C234 0.930 . S
H252 C245 0.929 . S
Cu253 N254 1.999 . S
Cu253 O259 1.974 . S
Cu253 N264 1.985 . S
Cu253 O273 1.959 . S
N254 Cu253 1.999 . S
N254 C256 1.263 . S
N254 C258 1.389 1_455 S
N255 C256 1.358 . S
N255 C257 1.400 1_455 S
C256 N254 1.263 . S
C256 N255 1.358 . S
C256 H262 0.930 . S
C257 N255 1.400 1_655 S
C257 C258 1.351 . S
C257 H274 0.930 . S
C258 N254 1.389 1_655 S
C258 C257 1.351 . S
C258 H263 0.930 . S
O259 Cu253 1.974 . S
O259 C269 1.282 . S
C260 O261 1.261 . S
C260 O273 1.251 . S
O261 C260 1.261 . S
H262 C256 0.930 . S
H263 C258 0.930 . S
N264 Cu253 1.985 . S
N264 C266 1.335 . S
N264 C267 1.390 . S
N265 C266 1.345 . S
N265 C268 1.336 . S
C266 N264 1.335 . S
C266 N265 1.345 . S
C266 H271 0.930 . S
C267 N264 1.390 . S
C267 C268 1.346 . S
C267 H272 0.930 . S
C268 N265 1.336 . S
C268 C267 1.346 . S
C268 H275 0.929 . S
C269 O259 1.282 . S
C269 O270 1.216 . S
O270 C269 1.216 . S
H271 C266 0.930 . S
H272 C267 0.930 . S
O273 Cu253 1.959 . S
O273 C260 1.251 . S
H274 C257 0.930 . S
H275 C268 0.929 . S
Cu276 N277 1.999 . S
Cu276 O282 1.974 . S
Cu276 N287 1.985 . S
Cu276 O296 1.959 . S
N277 Cu276 1.999 . S
N277 C279 1.263 . S
N277 C281 1.389 . S
N278 C279 1.358 . S
N278 C280 1.400 . S
C279 N277 1.263 . S
C279 N278 1.358 . S
C279 H285 0.930 . S
C280 N278 1.400 . S
C280 C281 1.351 . S
C280 H297 0.930 . S
C281 N277 1.389 . S
C281 C280 1.351 . S
C281 H286 0.930 . S
O282 Cu276 1.974 . S
O282 C292 1.282 . S
C283 O284 1.261 . S
C283 O296 1.251 . S
O284 C283 1.261 . S
H285 C279 0.930 . S
H286 C281 0.930 . S
N287 Cu276 1.985 . S
N287 C289 1.335 . S
N287 C290 1.390 . S
N288 C289 1.345 . S
N288 C291 1.336 . S
C289 N287 1.335 . S
C289 N288 1.345 . S
C289 H294 0.930 . S
C290 N287 1.390 . S
C290 C291 1.346 . S
C290 H295 0.930 . S
C291 N288 1.336 . S
C291 C290 1.346 . S
C291 H298 0.929 . S
C292 O282 1.282 . S
C292 O293 1.216 . S
O293 C292 1.216 . S
H294 C289 0.930 . S
H295 C290 0.930 . S
O296 Cu276 1.959 . S
O296 C283 1.251 . S
H297 C280 0.930 . S
H298 C291 0.929 . S
Cu299 N300 1.999 . S
Cu299 O305 1.974 . S
Cu299 N310 1.985 . S
Cu299 O319 1.959 . S
N300 Cu299 1.999 . S
N300 C302 1.263 . S
N300 C304 1.389 1_455 S
N301 C302 1.358 . S
N301 C303 1.400 1_455 S
C302 N300 1.263 . S
C302 N301 1.358 . S
C302 H308 0.930 . S
C303 N301 1.400 1_655 S
C303 C304 1.351 . S
C303 H320 0.930 . S
C304 N300 1.389 1_655 S
C304 C303 1.351 . S
C304 H309 0.930 . S
O305 Cu299 1.974 . S
O305 C315 1.282 . S
C306 O307 1.261 . S
C306 O319 1.251 . S
O307 C306 1.261 . S
H308 C302 0.930 . S
H309 C304 0.930 . S
N310 Cu299 1.985 . S
N310 C312 1.335 . S
N310 C313 1.390 . S
N311 C312 1.345 . S
N311 C314 1.336 . S
C312 N310 1.335 . S
C312 N311 1.345 . S
C312 H317 0.930 . S
C313 N310 1.390 . S
C313 C314 1.346 . S
C313 H318 0.930 . S
C314 N311 1.336 . S
C314 C313 1.346 . S
C314 H321 0.929 . S
C315 O305 1.282 . S
C315 O316 1.216 . S
O316 C315 1.216 . S
H317 C312 0.930 . S
H318 C313 0.930 . S
O319 Cu299 1.959 . S
O319 C306 1.251 . S
H320 C303 0.930 . S
H321 C314 0.929 . S
Cu322 N323 1.999 . S
Cu322 O328 1.974 . S
Cu322 N333 1.985 . S
Cu322 O342 1.959 . S
N323 Cu322 1.999 . S
N323 C325 1.263 . S
N323 C327 1.389 . S
N324 C325 1.358 . S
N324 C326 1.400 . S
C325 N323 1.263 . S
C325 N324 1.358 . S
C325 H331 0.930 . S
C326 N324 1.400 . S
C326 C327 1.351 . S
C326 H343 0.930 . S
C327 N323 1.389 . S
C327 C326 1.351 . S
C327 H332 0.930 . S
O328 Cu322 1.974 . S
O328 C338 1.282 . S
C329 O330 1.261 . S
C329 O342 1.251 . S
O330 C329 1.261 . S
H331 C325 0.930 . S
H332 C327 0.930 . S
N333 Cu322 1.985 . S
N333 C335 1.335 . S
N333 C336 1.390 . S
N334 C335 1.345 . S
N334 C337 1.336 . S
C335 N333 1.335 . S
C335 N334 1.345 . S
C335 H340 0.930 . S
C336 N333 1.390 . S
C336 C337 1.346 . S
C336 H341 0.930 . S
C337 N334 1.336 . S
C337 C336 1.346 . S
C337 H344 0.929 . S
C338 O328 1.282 . S
C338 O339 1.216 . S
O339 C338 1.216 . S
H340 C335 0.930 . S
H341 C336 0.930 . S
O342 Cu322 1.959 . S
O342 C329 1.251 . S
H343 C326 0.930 . S
H344 C337 0.929 . S
Cu345 N346 1.999 . S
Cu345 O351 1.974 . S
Cu345 N356 1.985 . S
Cu345 O365 1.959 . S
N346 Cu345 1.999 . S
N346 C348 1.263 . S
N346 C350 1.389 . S
N347 C348 1.358 . S
N347 C349 1.400 . S
C348 N346 1.263 . S
C348 N347 1.358 . S
C348 H354 0.930 . S
C349 N347 1.400 . S
C349 C350 1.351 . S
C349 H366 0.930 . S
C350 N346 1.389 . S
C350 C349 1.351 . S
C350 H355 0.930 . S
O351 Cu345 1.974 . S
O351 C361 1.282 . S
C352 O353 1.261 . S
C352 O365 1.251 . S
O353 C352 1.261 . S
H354 C348 0.930 . S
H355 C350 0.930 . S
N356 Cu345 1.985 . S
N356 C358 1.335 . S
N356 C359 1.390 . S
N357 C358 1.345 . S
N357 C360 1.336 . S
C358 N356 1.335 . S
C358 N357 1.345 . S
C358 H363 0.930 . S
C359 N356 1.390 . S
C359 C360 1.346 . S
C359 H364 0.930 . S
C360 N357 1.336 . S
C360 C359 1.346 . S
C360 H367 0.929 . S
C361 O351 1.282 . S
C361 O362 1.216 . S
O362 C361 1.216 . S
H363 C358 0.930 . S
H364 C359 0.930 . S
O365 Cu345 1.959 . S
O365 C352 1.251 . S
H366 C349 0.930 . S
H367 C360 0.929 . S
C368 C369 1.369 1_545 S
C368 C370 1.415 1_655 S
C368 H372 0.930 . S
C369 C368 1.369 1_565 S
C369 C378 1.434 . S
C370 C368 1.415 1_455 S
C370 C371 1.367 . S
C370 H373 0.929 1_455 S
C371 C370 1.367 . S
C371 C377 1.428 1_545 S
H372 C368 0.930 . S
H373 C370 0.929 1_655 S
S374 N375 1.613 . S
S374 N376 1.610 . S
N375 S374 1.613 . S
N375 C378 1.349 1_455 S
N376 S374 1.610 . S
N376 C377 1.351 . S
C377 C371 1.428 1_565 S
C377 N376 1.351 . S
C377 C378 1.429 1_455 S
C378 C369 1.434 . S
C378 N375 1.349 1_655 S
C378 C377 1.429 1_655 S
C379 C380 1.369 . S
C379 C381 1.419 . S
C379 H383 0.930 . S
C380 C379 1.369 . S
C380 C389 1.429 1_655 S
C381 C379 1.419 . S
C381 C382 1.363 1_655 S
C381 H384 0.929 . S
C382 C381 1.363 1_455 S
C382 C388 1.428 . S
H383 C379 0.930 . S
H384 C381 0.929 . S
S385 N386 1.613 . S
S385 N387 1.610 . S
N386 S385 1.613 . S
N386 C389 1.350 . S
N387 S385 1.610 . S
N387 C388 1.351 . S
C388 C382 1.428 . S
C388 N387 1.351 . S
C388 C389 1.434 . S
C389 C380 1.429 1_455 S
C389 N386 1.350 . S
C389 C388 1.434 . S
C390 C391 1.369 . S
C390 C392 1.419 . S
C390 H394 0.930 . S
C391 C390 1.369 . S
C391 C400 1.429 . S
C392 C390 1.419 . S
C392 C393 1.363 . S
C392 H395 0.929 . S
C393 C392 1.363 . S
C393 C399 1.428 . S
H394 C390 0.930 . S
H395 C392 0.929 . S
S396 N397 1.613 . S
S396 N398 1.610 . S
N397 S396 1.613 . S
N397 C400 1.350 . S
N398 S396 1.610 . S
N398 C399 1.351 . S
C399 C393 1.428 . S
C399 N398 1.351 . S
C399 C400 1.434 . S
C400 C391 1.429 . S
C400 N397 1.350 . S
C400 C399 1.434 . S
C401 C402 1.369 . S
C401 C403 1.419 1_545 S
C401 H405 0.930 . S
C402 C401 1.369 . S
C402 C411 1.429 . S
C403 C401 1.419 1_565 S
C403 C404 1.363 . S
C403 H406 0.929 . S
C404 C403 1.363 . S
C404 C410 1.428 . S
H405 C401 0.930 . S
H406 C403 0.929 . S
S407 N408 1.613 1_565 S
S407 N409 1.610 . S
N408 S407 1.613 1_545 S
N408 C411 1.350 . S
N409 S407 1.610 . S
N409 C410 1.351 . S
C410 C404 1.428 . S
C410 N409 1.351 . S
C410 C411 1.434 1_565 S
C411 C402 1.429 . S
C411 N408 1.350 . S
C411 C410 1.434 1_545 S
C412 C413 1.369 . S
C412 C414 1.419 1_455 S
C412 H416 0.930 . S
C413 C412 1.369 . S
C413 C422 1.429 . S
C414 C412 1.419 1_655 S
C414 C415 1.363 . S
C414 H417 0.929 . S
C415 C414 1.363 . S
C415 C421 1.428 . S
H416 C412 0.930 . S
H417 C414 0.929 . S
S418 N419 1.613 . S
S418 N420 1.610 . S
N419 S418 1.613 . S
N419 C422 1.350 . S
N420 S418 1.610 . S
N420 C421 1.351 1_455 S
C421 C415 1.428 . S
C421 N420 1.351 1_655 S
C421 C422 1.434 1_655 S
C422 C413 1.429 . S
C422 N419 1.350 . S
C422 C421 1.434 1_455 S
C423 C424 1.369 . S
C423 C425 1.419 . S
C423 H427 0.930 . S
C424 C423 1.369 . S
C424 C433 1.429 . S
C425 C423 1.419 . S
C425 C426 1.363 . S
C425 H428 0.929 . S
C426 C425 1.363 . S
C426 C432 1.428 . S
H427 C423 0.930 . S
H428 C425 0.929 . S
S429 N430 1.613 . S
S429 N431 1.610 . S
N430 S429 1.613 . S
N430 C433 1.350 . S
N431 S429 1.610 . S
N431 C432 1.351 . S
C432 C426 1.428 . S
C432 N431 1.351 . S
C432 C433 1.434 . S
C433 C424 1.429 . S
C433 N430 1.350 . S
C433 C432 1.434 . S
C434 C435 1.369 1_565 S
C434 C436 1.419 . S
C434 H438 0.930 . S
C435 C434 1.369 1_545 S
C435 C444 1.429 . S
C436 C434 1.419 . S
C436 C437 1.363 . S
C436 H439 0.929 . S
C437 C436 1.363 . S
C437 C443 1.428 1_565 S
H438 C434 0.930 . S
H439 C436 0.929 . S
S440 N441 1.613 . S
S440 N442 1.610 . S
N441 S440 1.613 . S
N441 C444 1.350 . S
N442 S440 1.610 . S
N442 C443 1.351 . S
C443 C437 1.428 1_545 S
C443 N442 1.351 . S
C443 C444 1.434 . S
C444 C435 1.429 . S
C444 N441 1.350 . S
C444 C443 1.434 . S
C445 C446 1.369 . S
C445 C447 1.419 1_445 S
C445 H449 0.930 . S
C446 C445 1.369 . S
C446 C455 1.429 . S
C447 C445 1.419 1_665 S
C447 C448 1.363 . S
C447 H450 0.929 . S
C448 C447 1.363 . S
C448 C454 1.428 . S
H449 C445 0.930 . S
H450 C447 0.929 . S
S451 N452 1.613 1_565 S
S451 N453 1.610 1_455 S
N452 S451 1.613 1_545 S
N452 C455 1.350 . S
N453 S451 1.610 1_655 S
N453 C454 1.351 . S
C454 C448 1.428 . S
C454 N453 1.351 . S
C454 C455 1.434 1_665 S
C455 C446 1.429 . S
C455 N452 1.350 . S
C455 C454 1.434 1_445 S
C456 C457 1.369 . S
C456 C458 1.419 1_565 S
C456 H460 0.930 . S
C457 C456 1.369 . S
C457 C466 1.429 . S
C458 C456 1.419 1_545 S
C458 C459 1.363 . S
C458 H461 0.929 . S
C459 C458 1.363 . S
C459 C465 1.428 . S
H460 C456 0.930 . S
H461 C458 0.929 . S
S462 N463 1.613 . S
S462 N464 1.610 1_565 S
N463 S462 1.613 . S
N463 C466 1.350 . S
N464 S462 1.610 1_545 S
N464 C465 1.351 . S
C465 C459 1.428 . S
C465 N464 1.351 . S
C465 C466 1.434 1_545 S
C466 C457 1.429 . S
C466 N463 1.350 . S
C466 C465 1.434 1_565 S
C467 C468 1.369 1_455 S
C467 C469 1.419 1_565 S
C467 H471 0.930 . S
C468 C467 1.369 1_655 S
C468 C477 1.429 . S
C469 C467 1.419 1_545 S
C469 C470 1.363 . S
C469 H472 0.929 . S
C470 C469 1.363 . S
C470 C476 1.428 1_455 S
H471 C467 0.930 . S
H472 C469 0.929 . S
S473 N474 1.613 1_545 S
S473 N475 1.610 . S
N474 S473 1.613 1_565 S
N474 C477 1.350 . S
N475 S473 1.610 . S
N475 C476 1.351 . S
C476 C470 1.428 1_655 S
C476 N475 1.351 . S
C476 C477 1.434 1_545 S
C477 C468 1.429 . S
C477 N474 1.350 . S
C477 C476 1.434 1_565 S
C478 C479 1.369 . S
C478 C480 1.419 1_455 S
C478 H482 0.930 . S
C479 C478 1.369 . S
C479 C488 1.429 . S
C480 C478 1.419 1_655 S
C480 C481 1.363 . S
C480 H483 0.929 . S
C481 C480 1.363 . S
C481 C487 1.428 . S
H482 C478 0.930 . S
H483 C480 0.929 . S
S484 N485 1.613 . S
S484 N486 1.610 1_455 S
N485 S484 1.613 . S
N485 C488 1.350 . S
N486 S484 1.610 1_655 S
N486 C487 1.351 . S
C487 C481 1.428 . S
C487 N486 1.351 . S
C487 C488 1.434 1_655 S
C488 C479 1.429 . S
C488 N485 1.350 . S
C488 C487 1.434 1_455 S
C489 C490 1.369 . S
C489 C491 1.419 . S
C489 H493 0.930 . S
C490 C489 1.369 . S
C490 C499 1.429 . S
C491 C489 1.419 . S
C491 C492 1.363 . S
C491 H494 0.929 . S
C492 C491 1.363 . S
C492 C498 1.428 . S
H493 C489 0.930 . S
H494 C491 0.929 . S
S495 N496 1.613 . S
S495 N497 1.610 . S
N496 S495 1.613 . S
N496 C499 1.350 . S
N497 S495 1.610 . S
N497 C498 1.351 . S
C498 C492 1.428 . S
C498 N497 1.351 . S
C498 C499 1.434 . S
C499 C490 1.429 . S
C499 N496 1.350 . S
C499 C498 1.434 . S
C500 C501 1.369 . S
C500 C502 1.419 . S
C500 H504 0.930 . S
C501 C500 1.369 . S
C501 C510 1.429 . S
C502 C500 1.419 . S
C502 C503 1.363 . S
C502 H505 0.929 . S
C503 C502 1.363 . S
C503 C509 1.428 . S
H504 C500 0.930 . S
H505 C502 0.929 . S
S506 N507 1.613 . S
S506 N508 1.610 . S
N507 S506 1.613 . S
N507 C510 1.350 . S
N508 S506 1.610 . S
N508 C509 1.351 . S
C509 C503 1.428 . S
C509 N508 1.351 . S
C509 C510 1.434 . S
C510 C501 1.429 . S
C510 N507 1.350 . S
C510 C509 1.434 . S
C511 C512 1.369 . S
C511 C513 1.419 1_565 S
C511 H515 0.930 . S
C512 C511 1.369 . S
C512 C521 1.429 . S
C513 C511 1.419 1_545 S
C513 C514 1.363 . S
C513 H516 0.929 . S
C514 C513 1.363 . S
C514 C520 1.428 . S
H515 C511 0.930 . S
H516 C513 0.929 . S
S517 N518 1.613 1_545 S
S517 N519 1.610 . S
N518 S517 1.613 1_565 S
N518 C521 1.350 . S
N519 S517 1.610 . S
N519 C520 1.351 . S
C520 C514 1.428 . S
C520 N519 1.351 . S
C520 C521 1.434 1_545 S
C521 C512 1.429 . S
C521 N518 1.350 . S
C521 C520 1.434 1_565 S
C522 C523 1.369 . S
C522 C524 1.419 1_665 S
C522 H526 0.930 . S
C523 C522 1.369 . S
C523 C532 1.429 . S
C524 C522 1.419 1_445 S
C524 C525 1.363 . S
C524 H527 0.929 . S
C525 C524 1.363 . S
C525 C531 1.428 . S
H526 C522 0.930 . S
H527 C524 0.929 . S
S528 N529 1.613 1_455 S
S528 N530 1.610 1_565 S
N529 S528 1.613 1_655 S
N529 C532 1.350 . S
N530 S528 1.610 1_545 S
N530 C531 1.351 . S
C531 C525 1.428 . S
C531 N530 1.351 . S
C531 C532 1.434 1_445 S
C532 C523 1.429 . S
C532 N529 1.350 . S
C532 C531 1.434 1_665 S
C533 C534 1.369 . S
C533 C535 1.419 1_455 S
C533 H537 0.930 . S
C534 C533 1.369 . S
C534 C543 1.429 . S
C535 C533 1.419 1_655 S
C535 C536 1.363 . S
C535 H538 0.929 . S
C536 C535 1.363 . S
C536 C542 1.428 . S
H537 C533 0.930 . S
H538 C535 0.929 . S
S539 N540 1.613 . S
S539 N541 1.610 1_455 S
N540 S539 1.613 . S
N540 C543 1.350 . S
N541 S539 1.610 1_655 S
N541 C542 1.351 . S
C542 C536 1.428 . S
C542 N541 1.351 . S
C542 C543 1.434 1_655 S
C543 C534 1.429 . S
C543 N540 1.350 . S
C543 C542 1.434 1_455 S
C544 C545 1.369 . S
C544 C546 1.419 . S
C544 H548 0.930 . S
C545 C544 1.369 . S
C545 C554 1.429 . S
C546 C544 1.419 . S
C546 C547 1.363 . S
C546 H549 0.929 . S
C547 C546 1.363 . S
C547 C553 1.428 . S
H548 C544 0.930 . S
H549 C546 0.929 . S
S550 N551 1.613 . S
S550 N552 1.610 . S
N551 S550 1.613 . S
N551 C554 1.350 1_565 S
N552 S550 1.610 . S
N552 C553 1.351 1_565 S
C553 C547 1.428 . S
C553 N552 1.351 1_545 S
C553 C554 1.434 . S
C554 C545 1.429 . S
C554 N551 1.350 1_545 S
C554 C553 1.434 . S
C555 C556 1.369 . S
C555 C557 1.419 . S
C555 H559 0.930 1_655 S
C556 C555 1.369 . S
C556 C565 1.429 . S
C557 C555 1.419 . S
C557 C558 1.363 . S
C557 H560 0.929 1_655 S
C558 C557 1.363 . S
C558 C564 1.428 . S
H559 C555 0.930 1_455 S
H560 C557 0.929 1_455 S
S561 N562 1.613 . S
S561 N563 1.610 . S
N562 S561 1.613 . S
N562 C565 1.350 . S
N563 S561 1.610 . S
N563 C564 1.351 . S
C564 C558 1.428 . S
C564 N563 1.351 . S
C564 C565 1.434 . S
C565 C556 1.429 . S
C565 N562 1.350 . S
C565 C564 1.434 . S
C566 C567 1.369 . S
C566 C568 1.419 . S
C566 H570 0.930 . S
C567 C566 1.369 . S
C567 C576 1.429 . S
C568 C566 1.419 . S
C568 C569 1.363 . S
C568 H571 0.929 . S
C569 C568 1.363 . S
C569 C575 1.428 . S
H570 C566 0.930 . S
H571 C568 0.929 . S
S572 N573 1.613 . S
S572 N574 1.610 . S
N573 S572 1.613 . S
N573 C576 1.350 . S
N574 S572 1.610 . S
N574 C575 1.351 . S
C575 C569 1.428 . S
C575 N574 1.351 . S
C575 C576 1.434 . S
C576 C567 1.429 . S
C576 N573 1.350 . S
C576 C575 1.434 . S
C577 C578 1.369 . S
C577 C579 1.419 . S
C577 H581 0.930 . S
C578 C577 1.369 . S
C578 C587 1.429 . S
C579 C577 1.419 . S
C579 C580 1.363 . S
C579 H582 0.929 . S
C580 C579 1.363 . S
C580 C586 1.428 . S
H581 C577 0.930 . S
H582 C579 0.929 . S
S583 N584 1.613 . S
S583 N585 1.610 . S
N584 S583 1.613 . S
N584 C587 1.350 . S
N585 S583 1.610 . S
N585 C586 1.351 . S
C586 C580 1.428 . S
C586 N585 1.351 . S
C586 C587 1.434 . S
C587 C578 1.429 . S
C587 N584 1.350 . S
C587 C586 1.434 . S
C588 C589 1.369 . S
C588 C590 1.419 . S
C588 H592 0.930 . S
C589 C588 1.369 . S
C589 C598 1.429 . S
C590 C588 1.419 . S
C590 C591 1.363 . S
C590 H593 0.929 . S
C591 C590 1.363 . S
C591 C597 1.428 . S
H592 C588 0.930 . S
H593 C590 0.929 . S
S594 N595 1.613 . S
S594 N596 1.610 . S
N595 S594 1.613 . S
N595 C598 1.350 . S
N596 S594 1.610 . S
N596 C597 1.351 . S
C597 C591 1.428 . S
C597 N596 1.351 . S
C597 C598 1.434 . S
C598 C589 1.429 . S
C598 N595 1.350 . S
C598 C597 1.434 . S
C599 C600 1.369 . S
C599 C601 1.419 . S
C599 H603 0.930 . S
C600 C599 1.369 . S
C600 C609 1.429 . S
C601 C599 1.419 . S
C601 C602 1.363 . S
C601 H604 0.929 . S
C602 C601 1.363 . S
C602 C608 1.428 . S
H603 C599 0.930 . S
H604 C601 0.929 . S
S605 N606 1.613 . S
S605 N607 1.610 . S
N606 S605 1.613 . S
N606 C609 1.350 . S
N607 S605 1.610 . S
N607 C608 1.351 . S
C608 C602 1.428 . S
C608 N607 1.351 . S
C608 C609 1.434 . S
C609 C600 1.429 . S
C609 N606 1.350 . S
C609 C608 1.434 . S
C610 C611 1.369 . S
C610 C612 1.419 . S
C610 H614 0.930 1_565 S
C611 C610 1.369 . S
C611 C620 1.429 . S
C612 C610 1.419 . S
C612 C613 1.363 . S
C612 H615 0.929 1_565 S
C613 C612 1.363 . S
C613 C619 1.428 . S
H614 C610 0.930 1_545 S
H615 C612 0.929 1_545 S
S616 N617 1.613 . S
S616 N618 1.610 . S
N617 S616 1.613 . S
N617 C620 1.350 . S
N618 S616 1.610 . S
N618 C619 1.351 . S
C619 C613 1.428 . S
C619 N618 1.351 . S
C619 C620 1.434 . S
C620 C611 1.429 . S
C620 N617 1.350 . S
C620 C619 1.434 . S
C621 C622 1.369 . S
C621 C623 1.419 . S
C621 H625 0.930 . S
C622 C621 1.369 . S
C622 C631 1.429 1_455 S
C623 C621 1.419 . S
C623 C624 1.363 . S
C623 H626 0.929 . S
C624 C623 1.363 . S
C624 C630 1.428 1_455 S
H625 C621 0.930 . S
H626 C623 0.929 . S
S627 N628 1.613 . S
S627 N629 1.610 . S
N628 S627 1.613 . S
N628 C631 1.350 . S
N629 S627 1.610 . S
N629 C630 1.351 . S
C630 C624 1.428 1_655 S
C630 N629 1.351 . S
C630 C631 1.434 . S
C631 C622 1.429 1_655 S
C631 N628 1.350 . S
C631 C630 1.434 . S
C632 C633 1.369 . S
C632 C634 1.419 . S
C632 H636 0.930 . S
C633 C632 1.369 . S
C633 C642 1.429 . S
C634 C632 1.419 . S
C634 C635 1.363 . S
C634 H637 0.929 . S
C635 C634 1.363 . S
C635 C641 1.428 . S
H636 C632 0.930 . S
H637 C634 0.929 . S
S638 N639 1.613 . S
S638 N640 1.610 . S
N639 S638 1.613 . S
N639 C642 1.350 . S
N640 S638 1.610 . S
N640 C641 1.351 . S
C641 C635 1.428 . S
C641 N640 1.351 . S
C641 C642 1.434 . S
C642 C633 1.429 . S
C642 N639 1.350 . S
C642 C641 1.434 . S
C643 C644 1.369 . S
C643 C645 1.419 . S
C643 H647 0.930 . S
C644 C643 1.369 . S
C644 C653 1.429 . S
C645 C643 1.419 . S
C645 C646 1.363 . S
C645 H648 0.929 . S
C646 C645 1.363 . S
C646 C652 1.428 . S
H647 C643 0.930 . S
H648 C645 0.929 . S
S649 N650 1.613 . S
S649 N651 1.610 . S
N650 S649 1.613 . S
N650 C653 1.350 . S
N651 S649 1.610 . S
N651 C652 1.351 . S
C652 C646 1.428 . S
C652 N651 1.351 . S
C652 C653 1.434 . S
C653 C644 1.429 . S
C653 N650 1.350 . S
C653 C652 1.434 . S
C654 C655 1.369 . S
C654 C656 1.419 . S
C654 H658 0.930 . S
C655 C654 1.369 . S
C655 C664 1.429 . S
C656 C654 1.419 . S
C656 C657 1.363 . S
C656 H659 0.929 . S
C657 C656 1.363 . S
C657 C663 1.428 . S
H658 C654 0.930 . S
H659 C656 0.929 . S
S660 N661 1.613 . S
S660 N662 1.610 . S
N661 S660 1.613 . S
N661 C664 1.350 . S
N662 S660 1.610 . S
N662 C663 1.351 . S
C663 C657 1.428 . S
C663 N662 1.351 . S
C663 C664 1.434 . S
C664 C655 1.429 . S
C664 N661 1.350 . S
C664 C663 1.434 . S
C665 C666 1.369 1_554 S
C665 C667 1.419 . S
C665 H669 0.930 . S
C666 C665 1.369 1_556 S
C666 C675 1.429 . S
C667 C665 1.419 . S
C667 C668 1.363 . S
C667 H670 0.929 . S
C668 C667 1.363 . S
C668 C674 1.428 . S
H669 C665 0.930 . S
H670 C667 0.929 . S
S671 N672 1.613 . S
S671 N673 1.610 . S
N672 S671 1.613 . S
N672 C675 1.350 . S
N673 S671 1.610 . S
N673 C674 1.351 1_556 S
C674 C668 1.428 . S
C674 N673 1.351 1_554 S
C674 C675 1.434 1_554 S
C675 C666 1.429 . S
C675 N672 1.350 . S
C675 C674 1.434 1_556 S
C676 C677 1.369 . S
C676 C678 1.419 1_554 S
C676 H680 0.937 . S
C677 C676 1.369 . S
C677 C686 1.429 . S
C678 C676 1.419 1_556 S
C678 C679 1.363 . S
C678 H681 0.929 . S
C679 C678 1.363 . S
C679 C685 1.428 1_556 S
H680 C676 0.937 . S
H681 C678 0.929 . S
S682 N683 1.613 . S
S682 N684 1.610 . S
N683 S682 1.613 . S
N683 C686 1.350 . S
N684 S682 1.610 . S
N684 C685 1.351 . S
C685 C679 1.428 1_554 S
C685 N684 1.351 . S
C685 C686 1.434 . S
C686 C677 1.429 . S
C686 N683 1.350 . S
C686 C685 1.434 . S
C687 C688 1.369 . S
C687 C689 1.419 . S
C687 H691 0.930 . S
C688 C687 1.369 . S
C688 C697 1.429 . S
C689 C687 1.419 . S
C689 C690 1.363 . S
C689 H692 0.929 . S
C690 C689 1.363 . S
C690 C696 1.428 . S
H691 C687 0.930 . S
H692 C689 0.929 . S
S693 N694 1.613 . S
S693 N695 1.610 . S
N694 S693 1.613 . S
N694 C697 1.350 . S
N695 S693 1.610 . S
N695 C696 1.351 . S
C696 C690 1.428 . S
C696 N695 1.351 . S
C696 C697 1.434 . S
C697 C688 1.429 . S
C697 N694 1.350 . S
C697 C696 1.434 . S
C698 C699 1.369 . S
C698 C700 1.419 . S
C698 H702 0.930 . S
C699 C698 1.369 . S
C699 C708 1.429 . S
C700 C698 1.419 . S
C700 C701 1.363 . S
C700 H703 0.929 . S
C701 C700 1.363 . S
C701 C707 1.428 . S
H702 C698 0.930 . S
H703 C700 0.929 . S
S704 N705 1.613 . S
S704 N706 1.610 . S
N705 S704 1.613 . S
N705 C708 1.350 . S
N706 S704 1.610 . S
N706 C707 1.351 . S
C707 C701 1.428 . S
C707 N706 1.351 . S
C707 C708 1.434 . S
C708 C699 1.429 . S
C708 N705 1.350 . S
C708 C707 1.434 . S
C709 C710 1.369 . S
C709 C711 1.419 . S
C709 H713 0.930 . S
C710 C709 1.369 . S
C710 C719 1.429 . S
C711 C709 1.419 . S
C711 C712 1.363 . S
C711 H714 0.929 . S
C712 C711 1.363 . S
C712 C718 1.428 . S
H713 C709 0.930 . S
H714 C711 0.929 . S
S715 N716 1.613 . S
S715 N717 1.610 . S
N716 S715 1.613 . S
N716 C719 1.350 . S
N717 S715 1.610 . S
N717 C718 1.351 . S
C718 C712 1.428 . S
C718 N717 1.351 . S
C718 C719 1.434 . S
C719 C710 1.429 . S
C719 N716 1.350 . S
C719 C718 1.434 . S
C369 C246 1.960 . S
C371 C16 1.954 . S
C380 N35 1.825 . S
C382 N265 1.827 . S
C391 C200 1.951 . S
C393 C62 1.959 . S
C402 N219 1.826 . S
C404 N81 1.826 . S
C413 C108 1.952 . S
C415 C338 1.960 . S
C424 N357 1.831 . S
C426 N127 1.829 . S
C435 C154 1.958 . S
C437 C292 1.956 . S
C446 N311 1.830 . S
C448 N173 1.830 . S
C457 C237 1.403 . S
C459 C7 1.403 . S
C468 N25 1.094 . S
C470 N255 1.081 . S
C479 C53 1.402 . S
C481 C191 1.401 . S
C490 N71 1.087 . S
C492 N209 1.081 . S
C501 C99 1.399 . S
C503 C329 1.405 . S
C512 N117 1.093 . S
C514 N347 1.079 . S
C523 C283 1.403 . S
C525 C145 1.403 . S
C534 N301 1.087 . S
C536 N163 1.089 . S
C545 N2 1.589 . S
C547 N140 1.589 . S
C556 C30 1.625 . S
C558 C168 1.629 . S
C567 N48 1.592 . S
C569 N94 1.585 . S
C578 C76 1.630 . S
C580 C122 1.629 . S
C589 N186 1.580 . S
C591 N324 1.589 . S
C600 C352 1.632 . S
C602 C214 1.625 . S
C611 N232 1.583 . S
C613 N278 1.582 . S
C622 C306 1.629 . S
C624 C260 1.629 . S
C633 N12 1.679 . S
C635 C361 1.655 . S
C644 N288 1.679 . S
C646 C39 1.650 . S
C655 C315 1.649 . S
C657 N58 1.681 . S
C666 N334 1.680 . S
C668 C85 1.656 . S
C677 C223 1.649 . S
C679 N104 1.679 . S
C688 N242 1.681 . S
C690 C131 1.649 . S
C699 N150 1.678 . S
C701 C269 1.650 . S
C710 C177 1.655 . S
C712 N196 1.679 . S
