# Generated by pormake.
# Topology sni, (6)-cn, num edge types: 1
# Building blocks:
#     Node 0, Type 0, BuildingBlock: OJICUG_clean_sbu_0, # of connection points: 6
#     Node 1, Type 0, BuildingBlock: OJICUG_clean_sbu_0, # of connection points: 6
#     Node 2, Type 0, BuildingBlock: OJICUG_clean_sbu_0, # of connection points: 6
#     Node 3, Type 0, BuildingBlock: OJICUG_clean_sbu_0, # of connection points: 6
#     Node 4, Type 0, BuildingBlock: OJICUG_clean_sbu_0, # of connection points: 6
#     Node 5, Type 0, BuildingBlock: OJICUG_clean_sbu_0, # of connection points: 6
#     Node 6, Type 0, BuildingBlock: OJICUG_clean_sbu_0, # of connection points: 6
#     Node 7, Type 0, BuildingBlock: OJICUG_clean_sbu_0, # of connection points: 6
#     Edge 8, Type (0, 0), BuildingBlock: FUNLAD_clean_linker_1, # of connection points: 2
#     Edge 9, Type (0, 0), BuildingBlock: FUNLAD_clean_linker_1, # of connection points: 2
#     Edge 10, Type (0, 0), BuildingBlock: FUNLAD_clean_linker_1, # of connection points: 2
#     Edge 11, Type (0, 0), BuildingBlock: FUNLAD_clean_linker_1, # of connection points: 2
#     Edge 12, Type (0, 0), BuildingBlock: FUNLAD_clean_linker_1, # of connection points: 2
#     Edge 13, Type (0, 0), BuildingBlock: FUNLAD_clean_linker_1, # of connection points: 2
#     Edge 14, Type (0, 0), BuildingBlock: FUNLAD_clean_linker_1, # of connection points: 2
#     Edge 15, Type (0, 0), BuildingBlock: FUNLAD_clean_linker_1, # of connection points: 2
#     Edge 16, Type (0, 0), BuildingBlock: FUNLAD_clean_linker_1, # of connection points: 2
#     Edge 17, Type (0, 0), BuildingBlock: FUNLAD_clean_linker_1, # of connection points: 2
#     Edge 18, Type (0, 0), BuildingBlock: FUNLAD_clean_linker_1, # of connection points: 2
#     Edge 19, Type (0, 0), BuildingBlock: FUNLAD_clean_linker_1, # of connection points: 2
#     Edge 20, Type (0, 0), BuildingBlock: FUNLAD_clean_linker_1, # of connection points: 2
#     Edge 21, Type (0, 0), BuildingBlock: FUNLAD_clean_linker_1, # of connection points: 2
#     Edge 22, Type (0, 0), BuildingBlock: FUNLAD_clean_linker_1, # of connection points: 2
#     Edge 23, Type (0, 0), BuildingBlock: FUNLAD_clean_linker_1, # of connection points: 2
#     Edge 24, Type (0, 0), BuildingBlock: FUNLAD_clean_linker_1, # of connection points: 2
#     Edge 25, Type (0, 0), BuildingBlock: FUNLAD_clean_linker_1, # of connection points: 2
#     Edge 26, Type (0, 0), BuildingBlock: FUNLAD_clean_linker_1, # of connection points: 2
#     Edge 27, Type (0, 0), BuildingBlock: FUNLAD_clean_linker_1, # of connection points: 2
#     Edge 28, Type (0, 0), BuildingBlock: FUNLAD_clean_linker_1, # of connection points: 2
#     Edge 29, Type (0, 0), BuildingBlock: FUNLAD_clean_linker_1, # of connection points: 2
#     Edge 30, Type (0, 0), BuildingBlock: FUNLAD_clean_linker_1, # of connection points: 2
#     Edge 31, Type (0, 0), BuildingBlock: FUNLAD_clean_linker_1, # of connection points: 2
# Relax obj value: 0.093
# Max RMSD: 0.105
# Mean RMSD: 0.105
data_MOF--net-sni--node1-OJICUG_clean_sbu_0--edge1-FUNLAD_clean_linker_1
_symmetry_space_group_name_H-M    P1
_symmetry_Int_Tables_number       1
_symmetry_cell_setting            triclinic
loop_
_symmetry_equiv_pos_as_xyz
'x, y, z'
_cell_length_a     41.86618
_cell_length_b     41.530318
_cell_length_c     23.1497
_cell_angle_alpha  90.097035
_cell_angle_beta   90.700953
_cell_angle_gamma 90.316888
loop_
_atom_site_label
_atom_site_type_symbol
_atom_site_fract_x
_atom_site_fract_y
_atom_site_fract_z
_atom_type_partial_charge
Sc0 Sc 0.59702 0.11511 0.97323 0.0
Sc1 Sc 0.67842 0.13565 0.98836 0.0
Sc2 Sc 0.61947 0.19594 0.99016 0.0
O3 O 0.63173 0.14888 0.98408 0.0
C4 C 0.57184 0.17235 0.89309 0.0
C5 C 0.64982 0.08979 0.88821 0.0
C6 C 0.68258 0.19955 0.9146 0.0
C7 C 0.64566 0.07985 0.05962 0.0
C8 C 0.56465 0.16112 0.06249 0.0
C9 C 0.67417 0.19131 0.08486 0.0
O10 O 0.56978 0.14401 0.9133 0.0
O11 O 0.67326 0.10136 0.9174 0.0
O12 O 0.65808 0.21191 0.9372 0.0
O13 O 0.61933 0.0819 0.03218 0.0
O14 O 0.57887 0.18615 0.04412 0.0
O15 O 0.68886 0.16858 0.05946 0.0
O16 O 0.57036 0.13296 0.04434 0.0
O17 O 0.66913 0.09878 0.0514 0.0
O18 O 0.64765 0.20245 0.06712 0.0
O19 O 0.62083 0.09438 0.90107 0.0
O20 O 0.59089 0.19359 0.91281 0.0
O21 O 0.69222 0.17125 0.92584 0.0
Sc22 Sc 0.88669 0.60714 0.97605 0.0
Sc23 Sc 0.86258 0.68779 0.98566 0.0
Sc24 Sc 0.80569 0.62559 -9e-05 0.0
O25 O 0.85159 0.64009 0.98704 0.0
C26 C 0.82862 0.57545 0.90456 0.0
C27 C 0.91072 0.66094 0.89053 0.0
C28 C 0.79862 0.6846 0.91176 0.0
C29 C 0.91873 0.65933 0.06158 0.0
C30 C 0.84488 0.57445 0.0744 0.0
C31 C 0.80876 0.6863 0.08267 0.0
O32 O 0.85824 0.57836 0.91668 0.0
O33 O 0.89785 0.68352 0.91879 0.0
O34 O 0.78771 0.66049 0.93916 0.0
O35 O 0.91874 0.63239 0.03506 0.0
O36 O 0.81918 0.58913 0.06153 0.0
O37 O 0.8302 0.70009 0.05336 0.0
O38 O 0.87103 0.579 0.04835 0.0
O39 O 0.89861 0.68146 0.05136 0.0
O40 O 0.79851 0.65809 0.0715 0.0
O41 O 0.90662 0.6314 0.90253 0.0
O42 O 0.80706 0.5913 0.93001 0.0
O43 O 0.82636 0.69659 0.92064 0.0
Sc44 Sc 0.30795 0.88023 -0.00386 0.0
Sc45 Sc 0.35882 0.81278 0.99193 0.0
Sc46 Sc 0.39117 0.89117 0.9839 0.0
O47 O 0.35261 0.8614 0.9905 0.0
C48 C 0.34002 0.92694 0.90403 0.0
C49 C 0.29794 0.82079 0.90957 0.0
C50 C 0.41184 0.83451 0.90051 0.0
C51 C 0.30208 0.8211 0.08231 0.0
C52 C 0.34862 0.92834 0.07543 0.0
C53 C 0.41528 0.83775 0.07361 0.0
O54 O 0.31592 0.91408 0.9276 0.0
O55 O 0.32303 0.80564 0.92503 0.0
O56 O 0.41187 0.86393 0.9154 0.0
O57 O 0.2942 0.84902 0.06558 0.0
O58 O 0.37509 0.92205 0.05193 0.0
O59 O 0.39437 0.81665 0.05998 0.0
O60 O 0.32231 0.91521 0.06028 0.0
O61 O 0.32413 0.80494 0.05886 0.0
O62 O 0.41782 0.86478 0.04823 0.0
O63 O 0.28924 0.84715 0.93236 0.0
O64 O 0.36865 0.92093 0.91921 0.0
O65 O 0.39482 0.81326 0.92517 0.0
Sc66 Sc 0.10115 0.38267 0.02942 0.0
Sc67 Sc 0.12258 0.30408 0.9894 0.0
Sc68 Sc 0.17926 0.36702 0.9811 0.0
O69 O 0.13436 0.35129 -5e-05 0.0
C70 C 0.135 0.42251 0.92932 0.0
C71 C 0.05963 0.33831 0.94443 0.0
C72 C 0.16705 0.31523 0.8815 0.0
C73 C 0.08762 0.32113 0.10676 0.0
C74 C 0.16422 0.40915 0.09232 0.0
C75 C 0.19228 0.30089 0.04597 0.0
O76 O 0.11145 0.41671 0.96193 0.0
O77 O 0.0793 0.31517 0.94354 0.0
O78 O 0.18176 0.33942 0.90265 0.0
O79 O 0.08771 0.35145 0.09908 0.0
O80 O 0.18351 0.3966 0.05716 0.0
O81 O 0.165 0.28881 0.03409 0.0
O82 O 0.13412 0.40598 0.08781 0.0
O83 O 0.09843 0.3013 0.07034 0.0
O84 O 0.20106 0.32877 0.02989 0.0
O85 O 0.06364 0.36345 0.97492 0.0
O86 O 0.16098 0.40671 0.93112 0.0
O87 O 0.14495 0.30048 0.90736 0.0
Sc88 Sc 0.63028 0.81255 0.50024 0.0
Sc89 Sc 0.69522 0.86607 0.48239 0.0
Sc90 Sc 0.6166 0.89597 0.48864 0.0
O91 O 0.64739 0.85822 0.49047 0.0
C92 C 0.58083 0.84288 0.41065 0.0
C93 C 0.68646 0.8015 0.40982 0.0
C94 C 0.66702 0.91707 0.39313 0.0
C95 C 0.69205 0.81224 0.58088 0.0
C96 C 0.58365 0.85173 0.58306 0.0
C97 C 0.67461 0.92396 0.56485 0.0
O98 O 0.5962 0.81904 0.43092 0.0
O99 O 0.70064 0.82819 0.41923 0.0
O100 O 0.63958 0.91805 0.41595 0.0
O101 O 0.66379 0.80249 0.56928 0.0
O102 O 0.58991 0.879 0.56128 0.0
O103 O 0.6953 0.90473 0.54494 0.0
O104 O 0.59573 0.82568 0.5648 0.0
O105 O 0.70637 0.83384 0.55215 0.0
O106 O 0.64545 0.92371 0.54863 0.0
O107 O 0.66188 0.79257 0.43712 0.0
O108 O 0.58468 0.8717 0.42846 0.0
O109 O 0.68946 0.89939 0.41195 0.0
Sc110 Sc 0.18935 0.62681 0.4966 0.0
Sc111 Sc 0.13567 0.69192 0.48534 0.0
Sc112 Sc 0.10641 0.61242 0.4939 0.0
O113 O 0.14383 0.64372 0.49203 0.0
C114 C 0.15545 0.57418 0.41602 0.0
C115 C 0.19745 0.68337 0.40609 0.0
C116 C 0.08522 0.66266 0.39616 0.0
C117 C 0.1921 0.68934 0.5779 0.0
C118 C 0.15399 0.58209 0.58744 0.0
C119 C 0.0787 0.66961 0.56784 0.0
O120 O 0.18029 0.58834 0.4357 0.0
O121 O 0.17415 0.69953 0.42533 0.0
O122 O 0.08222 0.63622 0.42333 0.0
O123 O 0.20338 0.66323 0.55825 0.0
O124 O 0.12643 0.58544 0.56466 0.0
O125 O 0.09543 0.69139 0.54401 0.0
O126 O 0.1789 0.59574 0.56827 0.0
O127 O 0.16677 0.70243 0.55817 0.0
O128 O 0.08111 0.63996 0.55612 0.0
O129 O 0.20504 0.65588 0.42551 0.0
O130 O 0.12739 0.58084 0.43197 0.0
O131 O 0.10466 0.68482 0.41128 0.0
Sc132 Sc 0.35284 0.20872 0.47721 0.0
Sc133 Sc 0.30353 0.14072 0.50126 0.0
Sc134 Sc 0.38583 0.13125 0.47651 0.0
O135 O 0.34733 0.1602 0.4851 0.0
C136 C 0.401 0.18394 0.38191 0.0
C137 C 0.28919 0.19424 0.4056 0.0
C138 C 0.33187 0.09041 0.41148 0.0
C139 C 0.30049 0.20479 0.57548 0.0
C140 C 0.41277 0.18962 0.55366 0.0
C141 C 0.34921 0.09809 0.5809 0.0
O142 O 0.3854 0.20598 0.40645 0.0
O143 O 0.2814 0.16946 0.43455 0.0
O144 O 0.36091 0.09817 0.42043 0.0
O145 O 0.3213 0.2194 0.5462 0.0
O146 O 0.41452 0.16146 0.53217 0.0
O147 O 0.3219 0.10989 0.56898 0.0
O148 O 0.39117 0.20963 0.53984 0.0
O149 O 0.29218 0.17578 0.56624 0.0
O150 O 0.37395 0.10362 0.55137 0.0
O151 O 0.31456 0.21058 0.41501 0.0
O152 O 0.40226 0.15532 0.40074 0.0
O153 O 0.3088 0.1033 0.43775 0.0
Sc154 Sc 0.80753 0.35559 0.4952 0.0
Sc155 Sc 0.87142 0.30046 0.49877 0.0
Sc156 Sc 0.88698 0.38297 0.48245 0.0
O157 O 0.8552 0.34637 0.49197 0.0
C158 C 0.8301 0.40532 0.39911 0.0
C159 C 0.81193 0.29266 0.41403 0.0
C160 C 0.91984 0.3299 0.40718 0.0
C161 C 0.81324 0.29884 0.58599 0.0
C162 C 0.83765 0.41307 0.57085 0.0
C163 C 0.92021 0.33855 0.57807 0.0
O164 O 0.80871 0.38824 0.4228 0.0
O165 O 0.83973 0.28447 0.43095 0.0
O166 O 0.9122 0.35895 0.41556 0.0
O167 O 0.80015 0.3245 0.56806 0.0
O168 O 0.86494 0.41125 0.54794 0.0
O169 O 0.90333 0.31365 0.56782 0.0
O170 O 0.81414 0.39495 0.55655 0.0
O171 O 0.83782 0.2869 0.56329 0.0
O172 O 0.91877 0.36416 0.54818 0.0
O173 O 0.7969 0.31675 0.43452 0.0
O174 O 0.85904 0.40583 0.41621 0.0
O175 O 0.90848 0.30658 0.43588 0.0
H176 H 0.42147 0.21793 0.31901 0.0
C177 C 0.41993 0.19269 0.33121 0.0
H178 H 0.43635 0.14554 0.3153 0.0
H179 H 0.48117 0.21419 0.07248 0.0
H180 H 0.42462 0.22059 0.0503 0.0
H181 H 0.38394 0.20836 0.12334 0.0
H182 H 0.39938 0.18959 0.2189 0.0
C183 C 0.4368 0.17069 0.30241 0.0
C184 C 0.46064 0.18045 0.25917 0.0
C185 C 0.45091 0.19142 0.20376 0.0
C186 C 0.47428 0.19809 0.16141 0.0
C187 C 0.46424 0.20862 0.10603 0.0
C188 C 0.43192 0.21241 0.09281 0.0
C189 C 0.409 0.20554 0.13399 0.0
C190 C 0.41822 0.19497 0.18879 0.0
H191 H 0.53121 0.14214 0.12633 0.0
C192 C 0.54075 0.16422 0.10782 0.0
H193 H 0.53863 0.21528 0.10883 0.0
H194 H 0.48721 0.16317 0.36352 0.0
H195 H 0.54376 0.15844 0.38584 0.0
H196 H 0.5842 0.17023 0.312 0.0
H197 H 0.5682 0.18684 0.21534 0.0
C198 C 0.53049 0.1927 0.12734 0.0
C199 C 0.50698 0.19316 0.17447 0.0
C200 C 0.51677 0.18427 0.23093 0.0
C201 C 0.49353 0.17767 0.27334 0.0
C202 C 0.50388 0.16831 0.32935 0.0
C203 C 0.53628 0.16559 0.34282 0.0
C204 C 0.55905 0.1722 0.30126 0.0
C205 C 0.54955 0.18151 0.24591 0.0
H206 H 0.8679 0.54139 0.13607 0.0
C207 C 0.84498 0.55099 0.12191 0.0
H208 H 0.79481 0.54872 0.13283 0.0
H209 H 0.82075 0.4077 0.23988 0.0
H210 H 0.79992 0.39284 0.14533 0.0
H211 H 0.78758 0.43434 0.07239 0.0
H212 H 0.79632 0.49105 0.09356 0.0
C213 C 0.81819 0.54062 0.14733 0.0
C214 C 0.82026 0.51643 0.19425 0.0
C215 C 0.81381 0.48359 0.182 0.0
C216 C 0.82031 0.45975 0.22449 0.0
C217 C 0.8154 0.42693 0.20994 0.0
C218 C 0.80361 0.41803 0.15564 0.0
C219 C 0.79672 0.4414 0.11452 0.0
C220 C 0.80185 0.47383 0.12721 0.0
H221 H 0.79537 0.42816 0.33932 0.0
C222 C 0.82055 0.42652 0.35092 0.0
H223 H 0.86719 0.44382 0.33524 0.0
H224 H 0.83144 0.57774 0.23324 0.0
H225 H 0.85101 0.59307 0.3286 0.0
H226 H 0.86195 0.55188 0.40284 0.0
H227 H 0.8534 0.49518 0.38221 0.0
C228 C 0.84208 0.44456 0.32283 0.0
C229 C 0.83249 0.46907 0.27952 0.0
C230 C 0.83746 0.50211 0.29256 0.0
C231 C 0.83124 0.52583 0.24988 0.0
C232 C 0.83626 0.5587 0.26395 0.0
C233 C 0.84732 0.56784 0.31858 0.0
C234 C 0.85347 0.54465 0.36036 0.0
C235 C 0.84857 0.51216 0.34784 0.0
H236 H 0.56654 0.81871 0.32977 0.0
C237 C 0.55954 0.83699 0.36072 0.0
H238 H 0.52581 0.87184 0.38367 0.0
H239 H 0.4697 0.9069 0.14134 0.0
H240 H 0.48798 0.95818 0.17876 0.0
H241 H 0.51966 0.96138 0.26908 0.0
H242 H 0.5324 0.91341 0.32325 0.0
C243 C 0.53266 0.85389 0.35199 0.0
C244 C 0.51382 0.85138 0.29693 0.0
C245 C 0.5078 0.87969 0.26434 0.0
C246 C 0.49094 0.87767 0.2107 0.0
C247 C 0.48354 0.90663 0.18106 0.0
C248 C 0.49374 0.9364 0.20222 0.0
C249 C 0.51146 0.93821 0.25314 0.0
C250 C 0.51849 0.91034 0.28398 0.0
H251 H 0.4253 0.81818 0.16026 0.0
C252 C 0.4354 0.83209 0.12516 0.0
H253 H 0.47417 0.85943 0.09536 0.0
H254 H 0.51357 0.79342 0.35396 0.0
H255 H 0.49993 0.74135 0.31273 0.0
H256 H 0.48089 0.73676 0.21173 0.0
H257 H 0.47385 0.78436 0.15258 0.0
C258 C 0.46443 0.84577 0.13115 0.0
C259 C 0.48177 0.84717 0.18786 0.0
C260 C 0.48871 0.81877 0.21964 0.0
C261 C 0.50285 0.8211 0.27572 0.0
C262 C 0.50548 0.79279 0.30945 0.0
C263 C 0.49736 0.76277 0.28654 0.0
C264 C 0.48643 0.76021 0.22985 0.0
C265 C 0.48214 0.78779 0.19657 0.0
H266 H 0.20338 0.43231 0.14247 0.0
C267 C 0.1776 0.42936 0.13914 0.0
H268 H 0.13293 0.44205 0.1739 0.0
H269 H 0.18082 0.48723 0.4174 0.0
H270 H 0.16283 0.43316 0.44161 0.0
H271 H 0.14907 0.39393 0.36488 0.0
H272 H 0.15331 0.40847 0.26361 0.0
C273 C 0.1587 0.44527 0.17568 0.0
C274 C 0.17183 0.46703 0.22094 0.0
C275 C 0.16954 0.45794 0.27967 0.0
C276 C 0.17722 0.48054 0.32379 0.0
C277 C 0.1747 0.47102 0.38226 0.0
C278 C 0.1646 0.44006 0.39668 0.0
C279 C 0.15688 0.41797 0.35348 0.0
C280 C 0.1593 0.42665 0.29556 0.0
H281 H 0.13659 0.53711 0.3571 0.0
C282 C 0.15854 0.54834 0.37311 0.0
H283 H 0.20905 0.54904 0.36707 0.0
H284 H 0.18059 0.4918 0.11216 0.0
H285 H 0.20053 0.54503 0.08888 0.0
H286 H 0.21503 0.58371 0.16601 0.0
H287 H 0.20948 0.56926 0.2671 0.0
C288 C 0.18665 0.53794 0.35336 0.0
C289 C 0.18677 0.51219 0.30892 0.0
C290 C 0.19165 0.52044 0.25041 0.0
C291 C 0.18378 0.49795 0.2061 0.0
C292 C 0.18689 0.50756 0.14774 0.0
C293 C 0.19818 0.53816 0.13372 0.0
C294 C 0.2063 0.55996 0.17714 0.0
C295 C 0.20298 0.55139 0.23491 0.0
H296 H 0.55362 0.87392 0.64947 0.0
C297 C 0.56102 0.85097 0.63145 0.0
H298 H 0.55416 0.80045 0.63368 0.0
H299 H 0.50269 0.85353 0.88861 0.0
H300 H 0.55899 0.86062 0.91162 0.0
H301 H 0.60001 0.85083 0.83812 0.0
H302 H 0.58495 0.83395 0.74108 0.0
C303 C 0.54841 0.82365 0.65254 0.0
C304 C 0.52419 0.82505 0.69907 0.0
C305 C 0.53338 0.83438 0.75581 0.0
C306 C 0.50973 0.83981 0.79822 0.0
C307 C 0.51963 0.84935 0.85449 0.0
C308 C 0.55188 0.85337 0.86838 0.0
C309 C 0.57497 0.84787 0.827 0.0
C310 C 0.56599 0.83839 0.77137 0.0
H311 H 0.4345 0.79892 0.84257 0.0
C312 C 0.43344 0.82432 0.85381 0.0
H313 H 0.45235 0.8708 0.83905 0.0
H314 H 0.49892 0.80394 0.59626 0.0
H315 H 0.44268 0.7961 0.57323 0.0
H316 H 0.40145 0.80685 0.6459 0.0
H317 H 0.41613 0.82522 0.74204 0.0
C318 C 0.45246 0.84555 0.82665 0.0
C319 C 0.4769 0.83565 0.78402 0.0
C320 C 0.46778 0.82483 0.72798 0.0
C321 C 0.49154 0.81916 0.68569 0.0
C322 C 0.48185 0.8087 0.6299 0.0
C323 C 0.44966 0.80413 0.61609 0.0
C324 C 0.42645 0.81014 0.65704 0.0
C325 C 0.43524 0.82052 0.71227 0.0
H326 H 0.10778 0.45911 0.8808 0.0
C327 C 0.13119 0.44817 0.88602 0.0
H328 H 0.17853 0.4464 0.85568 0.0
H329 H 0.14418 0.49475 0.60527 0.0
H330 H 0.15843 0.43911 0.58712 0.0
H331 H 0.1686 0.40172 0.66792 0.0
H332 H 0.16467 0.41973 0.76721 0.0
C333 C 0.15522 0.45765 0.85205 0.0
C334 C 0.14969 0.48064 0.80397 0.0
C335 C 0.15227 0.46963 0.74619 0.0
C336 C 0.14635 0.4911 0.69965 0.0
C337 C 0.14868 0.47948 0.64228 0.0
C338 C 0.15674 0.44757 0.63123 0.0
C339 C 0.16247 0.42653 0.67671 0.0
C340 C 0.16021 0.43725 0.73357 0.0
H341 H 0.18176 0.55645 0.65436 0.0
C342 C 0.15776 0.56075 0.63769 0.0
H343 H 0.10851 0.5502 0.6475 0.0
H344 H 0.14552 0.51036 0.90964 0.0
H345 H 0.13042 0.56578 0.92727 0.0
H346 H 0.11845 0.60246 0.84617 0.0
H347 H 0.12183 0.58394 0.74692 0.0
C348 C 0.13283 0.54607 0.66252 0.0
C349 C 0.13801 0.52348 0.71108 0.0
C350 C 0.13536 0.53451 0.76869 0.0
C351 C 0.14156 0.51316 0.81534 0.0
C352 C 0.14003 0.52519 0.87253 0.0
C353 C 0.13164 0.55706 0.88326 0.0
C354 C 0.12498 0.57773 0.83762 0.0
C355 C 0.12698 0.56679 0.78089 0.0
H356 H 0.4274 0.21748 0.6307 0.0
C357 C 0.43414 0.19777 0.60244 0.0
H358 H 0.46503 0.1586 0.58945 0.0
H359 H 0.52551 0.23712 0.81987 0.0
H360 H 0.53153 0.28393 0.75819 0.0
H361 H 0.51253 0.28269 0.65686 0.0
H362 H 0.48638 0.2351 0.61743 0.0
C363 C 0.45873 0.17874 0.61705 0.0
C364 C 0.47274 0.17942 0.67615 0.0
C365 C 0.48978 0.20671 0.69692 0.0
C366 C 0.5029 0.20656 0.75378 0.0
C367 C 0.51709 0.2352 0.77564 0.0
C368 C 0.52036 0.26235 0.74091 0.0
C369 C 0.50951 0.26171 0.68397 0.0
C370 C 0.49437 0.23428 0.66199 0.0
H371 H 0.56424 0.18996 0.80472 0.0
C372 C 0.55231 0.18035 0.84243 0.0
H373 H 0.50929 0.16604 0.88051 0.0
H374 H 0.43663 0.12532 0.65313 0.0
H375 H 0.43119 0.07848 0.71432 0.0
H376 H 0.45877 0.0759 0.80889 0.0
H377 H 0.49133 0.12032 0.84326 0.0
C378 C 0.52067 0.17514 0.84184 0.0
C379 C 0.5015 0.17807 0.78757 0.0
C380 C 0.48335 0.15122 0.76761 0.0
C381 C 0.46844 0.15218 0.71222 0.0
C382 C 0.44935 0.12558 0.69409 0.0
C383 C 0.44589 0.09851 0.72888 0.0
C384 C 0.46135 0.0971 0.78215 0.0
C385 C 0.47996 0.12296 0.80143 0.0
H386 H 0.79287 0.55095 0.84861 0.0
C387 C 0.81821 0.55242 0.85928 0.0
H388 H 0.86392 0.53334 0.84333 0.0
H389 H 0.81971 0.40085 0.73908 0.0
H390 H 0.83826 0.38414 0.83414 0.0
H391 H 0.85152 0.42438 0.90937 0.0
H392 H 0.84653 0.48156 0.88994 0.0
C393 C 0.8387 0.53316 0.83164 0.0
C394 C 0.82753 0.50915 0.7879 0.0
C395 C 0.82999 0.47581 0.80036 0.0
C396 C 0.82207 0.45258 0.75721 0.0
C397 C 0.82538 0.41947 0.77038 0.0
C398 C 0.83594 0.40956 0.82478 0.0
C399 C 0.84342 0.43221 0.86712 0.0
C400 C 0.84051 0.46497 0.85534 0.0
H401 H 0.85385 0.45499 0.62099 0.0
C402 C 0.83431 0.43775 0.61608 0.0
H403 H 0.79106 0.42111 0.65224 0.0
H404 H 0.82018 0.57116 0.74893 0.0
H405 H 0.79968 0.58743 0.65519 0.0
H406 H 0.78372 0.5469 0.58216 0.0
H407 H 0.78851 0.48971 0.60251 0.0
C408 C 0.81013 0.43895 0.65348 0.0
C409 C 0.81187 0.46273 0.70165 0.0
C410 C 0.80768 0.49596 0.69017 0.0
C411 C 0.81596 0.51927 0.733 0.0
C412 C 0.81329 0.55234 0.71892 0.0
C413 C 0.80173 0.56204 0.66503 0.0
C414 C 0.79283 0.53923 0.62385 0.0
C415 C 0.79581 0.50654 0.63597 0.0
H416 H 0.94668 0.69279 0.85175 0.0
C417 C 0.93438 0.66984 0.84655 0.0
H418 H 0.93001 0.62705 0.79857 0.0
H419 H 0.0304 0.72993 0.66199 0.0
H420 H 0.98763 0.76908 0.66294 0.0
H421 H 0.9357 0.75585 0.70651 0.0
H422 H 0.92682 0.70401 0.75165 0.0
C423 C 0.94252 0.64991 0.80341 0.0
C424 C 0.97113 0.65609 0.76677 0.0
C425 C 0.97483 0.68546 0.73602 0.0
C426 C 0.00367 0.69197 0.70607 0.0
C427 C 0.00815 0.72288 0.68167 0.0
C428 C 0.9839 0.7457 0.6824 0.0
C429 C 0.95475 0.73833 0.70726 0.0
C430 C 0.95011 0.70859 0.73368 0.0
H431 H 0.02987 0.68375 0.58845 0.0
C432 C 0.05313 0.67854 0.60742 0.0
H433 H 0.07924 0.66573 0.68153 0.0
H434 H 0.97301 0.59771 0.82268 0.0
H435 H 0.01293 0.55644 0.81223 0.0
H436 H 0.05901 0.56455 0.74865 0.0
H437 H 0.0662 0.61449 0.69713 0.0
C438 C 0.05597 0.67247 0.66419 0.0
C439 C 0.02728 0.66773 0.70117 0.0
C440 C 0.0229 0.63773 0.72957 0.0
C441 C 0.99532 0.63231 0.76369 0.0
C442 C 0.99268 0.60284 0.79427 0.0
C443 C 0.01557 0.57887 0.78897 0.0
C444 C 0.04161 0.58351 0.75344 0.0
C445 C 0.04543 0.6125 0.72417 0.0
H446 H 0.37707 0.06765 0.64017 0.0
C447 C 0.35308 0.07619 0.63029 0.0
H448 H 0.30416 0.07209 0.65096 0.0
H449 H 0.3313 0.93094 0.74771 0.0
H450 H 0.30124 0.91883 0.6602 0.0
H451 H 0.28555 0.96208 0.59286 0.0
H452 H 0.30007 0.01768 0.61255 0.0
C453 C 0.32855 0.06518 0.66141 0.0
C454 C 0.33422 0.04015 0.70605 0.0
C455 C 0.32447 0.00798 0.69494 0.0
C456 C 0.33284 0.98318 0.73445 0.0
C457 C 0.3245 0.95094 0.72048 0.0
C458 C 0.30749 0.94359 0.67002 0.0
C459 C 0.29872 0.96792 0.63206 0.0
C460 C 0.30718 0.99975 0.64397 0.0
H461 H 0.30912 0.95639 0.84771 0.0
C462 C 0.33385 0.95058 0.85795 0.0
H463 H 0.38224 0.96073 0.83995 0.0
H464 H 0.35464 0.09977 0.74195 0.0
H465 H 0.38504 0.11199 0.82918 0.0
H466 H 0.39956 0.06903 0.89794 0.0
H467 H 0.38374 0.01363 0.87994 0.0
C468 C 0.35736 0.96544 0.82922 0.0
C469 C 0.35 0.99085 0.78598 0.0
C470 C 0.35966 0.02308 0.79713 0.0
C471 C 0.35156 0.04781 0.75729 0.0
C472 C 0.36078 0.07993 0.77012 0.0
C473 C 0.37802 0.08733 0.82027 0.0
C474 C 0.38619 0.06315 0.85898 0.0
C475 C 0.37703 0.0314 0.84798 0.0
H476 H 0.96403 0.35226 0.62546 0.0
C477 C 0.94209 0.33821 0.62784 0.0
H478 H 0.91211 0.30956 0.67955 0.0
H479 H 0.01992 0.26178 0.85065 0.0
H480 H -0.00303 0.21178 0.81485 0.0
H481 H 0.95583 0.21193 0.73766 0.0
H482 H 0.93704 0.26202 0.69654 0.0
C483 C 0.93442 0.32297 0.67692 0.0
C484 C 0.95657 0.32299 0.72754 0.0
C485 C 0.9676 0.29334 0.75027 0.0
C486 C 0.99192 0.2932 0.79359 0.0
C487 C 0.00199 0.2633 0.81673 0.0
C488 C 0.98895 0.23439 0.79671 0.0
C489 C 0.96576 0.23448 0.75332 0.0
C490 C 0.95516 0.26349 0.73012 0.0
H491 H 0.01071 0.35108 0.91707 0.0
C492 C 0.03159 0.33701 0.90593 0.0
H493 H 0.05382 0.30811 0.84331 0.0
H494 H 0.9335 0.38373 0.7076 0.0
H495 H 0.95794 0.43396 0.73937 0.0
H496 H 0.00673 0.43383 0.80031 0.0
H497 H 0.03022 0.38371 0.8321 0.0
C498 C 0.03279 0.32186 0.85479 0.0
C499 C 0.00581 0.32264 0.81265 0.0
C500 C 0.9944 0.35236 0.7904 0.0
C501 C 0.96837 0.35247 0.75058 0.0
C502 C 0.95482 0.38236 0.73434 0.0
C503 C 0.9684 0.41134 0.75273 0.0
C504 C -0.00429 0.41126 0.78734 0.0
C505 C 0.00873 0.38221 0.80593 0.0
H506 H 0.63462 0.06312 0.81074 0.0
C507 C 0.65545 0.06966 0.8369 0.0
H508 H 0.70509 0.06229 0.84909 0.0
H509 H 0.67736 0.92749 0.71852 0.0
H510 H 0.68899 0.90916 0.81573 0.0
H511 H 0.6999 0.948 0.89436 0.0
H512 H 0.699 0.00557 0.87608 0.0
C513 C 0.68398 0.05769 0.82252 0.0
C514 C 0.68576 0.03484 0.77303 0.0
C515 C 0.68785 0.00134 0.78376 0.0
C516 C 0.68214 0.97896 0.7381 0.0
C517 C 0.68233 0.94562 0.75098 0.0
C518 C 0.68882 0.93473 0.80678 0.0
C519 C 0.6949 0.9566 0.85108 0.0
C520 C 0.6943 0.98955 0.84002 0.0
H521 H 0.71003 0.94679 0.62395 0.0
C522 C 0.68515 0.94706 0.60995 0.0
H523 H 0.64008 0.96876 0.62055 0.0
H524 H 0.68557 0.09734 0.73663 0.0
H525 H 0.67598 0.11611 0.63855 0.0
H526 H 0.66627 0.07745 0.55906 0.0
H527 H 0.66609 0.01984 0.57708 0.0
C528 C 0.66481 0.96752 0.63514 0.0
C529 C 0.67518 0.99028 0.6815 0.0
C530 C 0.67544 0.02381 0.67011 0.0
C531 C 0.68087 0.0461 0.71589 0.0
C532 C 0.68102 0.07946 0.70342 0.0
C533 C 0.67573 0.09051 0.64734 0.0
C534 C 0.67028 0.06874 0.60258 0.0
C535 C 0.67014 0.03576 0.61355 0.0
H536 H 0.0707 0.28164 0.16224 0.0
C537 C 0.07181 0.30769 0.15767 0.0
H538 H 0.0563 0.35239 0.19065 0.0
H539 H 0.93296 0.27183 0.27481 0.0
H540 H 0.91959 0.26745 0.17243 0.0
H541 H 0.95833 0.2841 0.09856 0.0
H542 H 0.01051 0.30482 0.12626 0.0
C543 C 0.0556 0.32631 0.19414 0.0
C544 C 0.03399 0.31209 0.23727 0.0
C545 C 0.00358 0.30011 0.21962 0.0
C546 C 0.98095 0.29134 0.26189 0.0
C547 C 0.9507 0.2794 0.24392 0.0
C548 C 0.94281 0.27667 0.18549 0.0
C549 C 0.96465 0.28598 0.14393 0.0
C550 C 0.99465 0.29772 0.1605 0.0
H551 H 0.94827 0.34269 0.33177 0.0
C552 C 0.94379 0.3237 0.36306 0.0
H553 H 0.95983 0.27889 0.39604 0.0
H554 H 0.09184 0.3293 0.28437 0.0
H555 H 0.10532 0.33183 0.38681 0.0
H556 H 0.06537 0.31754 0.46022 0.0
H557 H 0.01173 0.30043 0.43155 0.0
C558 C 0.96216 0.29735 0.36313 0.0
C559 C 0.98842 0.2956 0.32113 0.0
C560 C 0.0197 0.30461 0.33871 0.0
C561 C 0.04259 0.313 0.29654 0.0
C562 C 0.07351 0.32284 0.3149 0.0
C563 C 0.08154 0.32434 0.37346 0.0
C564 C 0.05904 0.31629 0.41479 0.0
C565 C 0.02838 0.30661 0.39786 0.0
H566 H 0.69723 0.93671 0.32384 0.0
C567 C 0.67379 0.93806 0.34342 0.0
H568 H 0.6294 0.96205 0.34378 0.0
H569 H 0.6754 0.08959 0.22633 0.0
H570 H 0.66943 0.10737 0.32545 0.0
H571 H 0.6603 0.06818 0.40356 0.0
H572 H 0.65648 0.01099 0.38287 0.0
C573 C 0.65243 0.95939 0.32319 0.0
C574 C 0.66061 0.98238 0.2765 0.0
C575 C 0.66347 0.01565 0.28959 0.0
C576 C 0.66928 0.03819 0.24476 0.0
C577 C 0.67124 0.07137 0.25878 0.0
C578 C 0.66793 0.08193 0.31553 0.0
C579 C 0.66271 0.05987 0.35949 0.0
C580 C 0.6605 0.0271 0.34696 0.0
H581 H 0.62751 0.03867 0.10907 0.0
C582 C 0.64801 0.0546 0.10393 0.0
H583 H 0.69363 0.06765 0.13697 0.0
H584 H 0.65545 0.92034 0.23603 0.0
H585 H 0.66371 0.90247 0.13765 0.0
H586 H 0.67724 0.94133 0.06111 0.0
H587 H 0.68207 0.99843 0.08253 0.0
C588 C 0.67337 0.05127 0.13941 0.0
C589 C 0.67224 0.02736 0.18702 0.0
C590 C 0.67105 0.99394 0.17438 0.0
C591 C 0.66456 0.97144 0.21896 0.0
C592 C 0.66148 0.93841 0.20437 0.0
C593 C 0.66598 0.92782 0.14793 0.0
C594 C 0.67349 0.94971 0.1048 0.0
C595 C 0.67601 0.98241 0.1176 0.0
H596 H 0.93483 0.68167 0.14306 0.0
C597 C 0.94136 0.66443 0.1099 0.0
H598 H 0.97518 0.63063 0.08211 0.0
H599 H 0.02998 0.71529 0.31407 0.0
H600 H 0.02331 0.76323 0.25583 0.0
H601 H 0.00334 0.75946 0.1553 0.0
H602 H 0.98852 0.70778 0.11361 0.0
C603 C 0.96868 0.64784 0.1153 0.0
C604 C 0.98838 0.64954 0.16936 0.0
C605 C -0.00017 0.67954 0.19092 0.0
C606 C 0.01428 0.68136 0.24677 0.0
C607 C 0.02142 0.71214 0.2702 0.0
C608 C 0.01731 0.73996 0.23745 0.0
C609 C 0.00587 0.73786 0.18102 0.0
C610 C -0.00284 0.70808 0.15783 0.0
H611 H 0.0776 0.68037 0.30739 0.0
C612 C 0.06673 0.66688 0.34229 0.0
H613 H 0.02706 0.6404 0.37079 0.0
H614 H 0.96933 0.58793 0.14138 0.0
H615 H 0.98108 0.53948 0.19503 0.0
H616 H 0.01248 0.54177 0.28575 0.0
H617 H 0.03158 0.59261 0.32401 0.0
C618 C 0.03763 0.65357 0.33519 0.0
C619 C 0.02074 0.65268 0.27809 0.0
C620 C 0.01106 0.62243 0.25482 0.0
C621 C 0.99418 0.62095 0.20118 0.0
C622 C 0.98311 0.59057 0.1809 0.0
C623 C 0.98961 0.56245 0.21139 0.0
C624 C 0.00719 0.56375 0.26252 0.0
C625 C 0.01788 0.59325 0.28415 0.0
H626 H 0.37192 0.9633 0.1338 0.0
C627 C 0.34905 0.95237 0.12209 0.0
H628 H 0.29967 0.95024 0.14071 0.0
H629 H 0.332 0.00164 0.39544 0.0
H630 H 0.31592 0.94659 0.41536 0.0
H631 H 0.3037 0.90869 0.33579 0.0
H632 H 0.30752 0.92566 0.2358 0.0
C633 C 0.32271 0.96137 0.15013 0.0
C634 C 0.32521 0.98541 0.19742 0.0
C635 C 0.32198 0.97529 0.25546 0.0
C636 C 0.32874 0.9972 0.30125 0.0
C637 C 0.32659 0.98617 0.35895 0.0
C638 C 0.31752 0.95458 0.371 0.0
C639 C 0.31067 0.93323 0.3262 0.0
C640 C 0.31295 0.94329 0.26901 0.0
H641 H 0.29925 0.05913 0.36067 0.0
C642 C 0.32417 0.06569 0.3678 0.0
H643 H 0.37172 0.05896 0.34059 0.0
H644 H 0.32877 0.0136 0.09075 0.0
H645 H 0.34375 0.06899 0.07066 0.0
H646 H 0.3564 0.10684 0.15011 0.0
H647 H 0.35404 0.08954 0.25005 0.0
C648 C 0.3468 0.05189 0.33576 0.0
C649 C 0.33824 0.02921 0.28858 0.0
C650 C 0.34015 0.03969 0.23053 0.0
C651 C 0.3333 0.01782 0.18481 0.0
C652 C 0.33455 0.02905 0.12713 0.0
C653 C 0.3429 0.06083 0.11501 0.0
C654 C 0.34998 0.08214 0.15973 0.0
C655 C 0.3486 0.07187 0.2169 0.0
H656 H 0.81087 0.25301 0.35074 0.0
C657 C 0.79699 0.27277 0.36816 0.0
H658 H 0.75344 0.29814 0.36233 0.0
H659 H 0.73168 0.25337 0.10196 0.0
H660 H 0.74571 0.30957 0.08865 0.0
H661 H 0.76382 0.34295 0.17113 0.0
H662 H 0.76819 0.32026 0.26733 0.0
C663 C 0.76748 0.27799 0.34708 0.0
C664 C 0.75461 0.25812 0.29846 0.0
C665 C 0.75155 0.27195 0.24276 0.0
C666 C 0.74064 0.25284 0.19541 0.0
C667 C 0.73898 0.26698 0.1398 0.0
C668 C 0.74719 0.29917 0.13145 0.0
C669 C 0.75744 0.31795 0.17785 0.0
C670 C 0.75977 0.30461 0.2329 0.0
H671 H 0.67509 0.22622 0.15635 0.0
C672 C 0.68866 0.20716 0.13588 0.0
H673 H 0.73231 0.18165 0.13693 0.0
H674 H 0.75576 0.22461 0.40035 0.0
H675 H 0.74231 0.1682 0.41334 0.0
H676 H 0.72435 0.13484 0.33076 0.0
H677 H 0.71928 0.1578 0.23471 0.0
C678 C 0.7182 0.2008 0.15569 0.0
C679 C 0.73211 0.22009 0.20414 0.0
C680 C 0.73549 0.20616 0.25966 0.0
C681 C 0.74644 0.22526 0.30705 0.0
C682 C 0.7484 0.21102 0.36252 0.0
C683 C 0.74054 0.17871 0.37066 0.0
C684 C 0.73033 0.15995 0.32419 0.0
C685 C 0.72761 0.17341 0.26929 0.0
H686 H 0.80674 0.72784 0.14146 0.0
C687 C 0.79573 0.70466 0.13151 0.0
H688 H 0.75822 0.67252 0.15227 0.0
H689 H 0.77504 0.76594 0.38585 0.0
H690 H 0.82318 0.73511 0.40398 0.0
H691 H 0.8416 0.69491 0.33338 0.0
H692 H 0.81201 0.68536 0.24413 0.0
C693 C 0.77067 0.69485 0.16262 0.0
C694 C 0.75771 0.71621 0.20831 0.0
C695 C 0.7751 0.7213 0.26051 0.0
C696 C 0.76431 0.74425 0.30145 0.0
C697 C 0.78219 0.74886 0.35317 0.0
C698 C 0.80984 0.73128 0.36419 0.0
C699 C 0.82023 0.70868 0.32442 0.0
C700 C 0.80312 0.70357 0.27319 0.0
H701 H 0.68513 0.75716 0.35742 0.0
C702 C 0.69839 0.77939 0.36511 0.0
H703 H 0.73893 0.80687 0.34215 0.0
H704 H 0.71797 0.71093 0.11406 0.0
H705 H 0.66978 0.74167 0.09572 0.0
H706 H 0.65169 0.78245 0.1655 0.0
H707 H 0.68152 0.79262 0.25411 0.0
C708 C 0.72458 0.78543 0.33396 0.0
C709 C 0.7359 0.76175 0.29049 0.0
C710 C 0.71826 0.75634 0.23858 0.0
C711 C 0.72899 0.73324 0.19781 0.0
C712 C 0.71095 0.72828 0.14637 0.0
C713 C 0.68326 0.74577 0.13528 0.0
C714 C 0.67305 0.76869 0.17461 0.0
C715 C 0.6903 0.77412 0.22557 0.0
H716 H 0.26497 0.82115 0.14912 0.0
C717 C 0.28426 0.80709 0.13093 0.0
H718 H 0.30927 0.76305 0.13448 0.0
H719 H 0.23789 0.77159 0.39051 0.0
H720 H 0.27322 0.8169 0.40995 0.0
H721 H 0.30864 0.83801 0.33433 0.0
H722 H 0.30885 0.81402 0.23884 0.0
C723 C 0.29076 0.77793 0.15309 0.0
C724 C 0.27107 0.76409 0.20022 0.0
C725 C 0.27166 0.7781 0.2562 0.0
C726 C 0.25161 0.7656 0.30009 0.0
C727 C 0.25257 0.78013 0.35551 0.0
C728 C 0.27281 0.80611 0.36734 0.0
C729 C 0.29272 0.81802 0.32475 0.0
C730 C 0.2924 0.80417 0.2699 0.0
H731 H 0.23664 0.68246 0.34317 0.0
C732 C 0.21687 0.69676 0.35892 0.0
H733 H 0.19199 0.74074 0.35113 0.0
H734 H 0.26487 0.73104 0.09817 0.0
H735 H 0.22975 0.68556 0.07891 0.0
H736 H 0.19451 0.6643 0.15465 0.0
H737 H 0.19423 0.68833 0.25007 0.0
C738 C 0.21097 0.72559 0.33488 0.0
C739 C 0.23156 0.73869 0.28838 0.0
C740 C 0.23118 0.72449 0.23255 0.0
C741 C 0.25119 0.73703 0.18863 0.0
C742 C 0.25025 0.72247 0.13322 0.0
C743 C 0.23014 0.69638 0.1215 0.0
C744 C 0.21032 0.68439 0.16415 0.0
C745 C 0.21059 0.69829 0.21896 0.0
H746 H 0.24595 0.19032 0.35056 0.0
C747 C 0.26825 0.20347 0.35712 0.0
H748 H 0.29971 0.23859 0.3235 0.0
H749 H 0.24922 0.22477 0.06771 0.0
H750 H 0.29973 0.19645 0.06157 0.0
H751 H 0.33111 0.18403 0.14964 0.0
H752 H 0.31256 0.20036 0.24408 0.0
C753 C 0.2768 0.2263 0.31937 0.0
C754 C 0.2572 0.23273 0.26717 0.0
C755 C 0.26868 0.22325 0.21239 0.0
C756 C 0.25058 0.23019 0.16178 0.0
C757 C 0.26231 0.22032 0.10748 0.0
C758 C 0.29116 0.20395 0.10339 0.0
C759 C 0.30886 0.19702 0.15295 0.0
C760 C 0.29792 0.20654 0.20692 0.0
H761 H 0.23641 0.29444 0.09721 0.0
C762 C 0.21359 0.28338 0.08561 0.0
H763 H 0.18031 0.24655 0.10518 0.0
H764 H 0.22892 0.25507 0.36578 0.0
H765 H 0.17766 0.28167 0.37186 0.0
H766 H 0.14542 0.29219 0.28406 0.0
H767 H 0.16439 0.27638 0.1897 0.0
C768 C 0.20372 0.25705 0.11391 0.0
C769 C 0.22115 0.24651 0.16635 0.0
C770 C 0.20911 0.25502 0.22124 0.0
C771 C 0.22739 0.24849 0.27182 0.0
C772 C 0.21564 0.25867 0.32599 0.0
C773 C 0.18631 0.27416 0.3301 0.0
C774 C 0.16818 0.28012 0.28067 0.0
C775 C 0.17937 0.27086 0.22675 0.0
H776 H 0.23088 0.69212 0.64258 0.0
C777 C 0.20968 0.70438 0.62643 0.0
H778 H 0.18041 0.74545 0.63525 0.0
H779 H 0.26 0.73239 0.88612 0.0
H780 H 0.22558 0.68621 0.90276 0.0
H781 H 0.18786 0.66723 0.82721 0.0
H782 H 0.18441 0.69426 0.73453 0.0
C783 C 0.20084 0.73203 0.65145 0.0
C784 C 0.2204 0.74581 0.69955 0.0
C785 C 0.22172 0.73001 0.75382 0.0
C786 C 0.24311 0.74123 0.79763 0.0
C787 C 0.24415 0.72489 0.85129 0.0
C788 C 0.2245 0.69838 0.86147 0.0
C789 C 0.20329 0.68767 0.81891 0.0
C790 C 0.20173 0.70326 0.76573 0.0
H791 H 0.25647 0.82146 0.85016 0.0
C792 C 0.27763 0.80789 0.86247 0.0
H793 H 0.3047 0.76602 0.84653 0.0
H794 H 0.22222 0.78256 0.60161 0.0
H795 H 0.25609 0.82921 0.58533 0.0
H796 H 0.29376 0.8483 0.66087 0.0
H797 H 0.29775 0.82093 0.75307 0.0
C798 C 0.28429 0.78061 0.83409 0.0
C799 C 0.26259 0.7686 0.78751 0.0
C800 C 0.26079 0.78481 0.73366 0.0
C801 C 0.23941 0.77355 0.68982 0.0
C802 C 0.2381 0.79007 0.63637 0.0
C803 C 0.25742 0.81686 0.62643 0.0
C804 C 0.2786 0.82764 0.66898 0.0
C805 C 0.28049 0.81181 0.72192 0.0
H806 H 0.29435 0.24745 0.62998 0.0
C807 C 0.28491 0.22349 0.62068 0.0
H808 H 0.24831 0.18975 0.63962 0.0
H809 H 0.24054 0.27106 0.87897 0.0
H810 H 0.273 0.22652 0.91274 0.0
H811 H 0.29231 0.18539 0.84465 0.0
H812 H 0.27905 0.18853 0.74233 0.0
C813 C 0.25872 0.21335 0.64787 0.0
C814 C 0.24341 0.23522 0.68943 0.0
C815 C 0.25122 0.23285 0.74885 0.0
C816 C 0.24019 0.25655 0.78786 0.0
C817 C 0.24836 0.25374 0.84724 0.0
C818 C 0.26699 0.22829 0.86724 0.0
C819 C 0.27787 0.20514 0.82891 0.0
C820 C 0.27016 0.20727 0.77033 0.0
H821 H 0.16293 0.28266 0.80701 0.0
C822 C 0.17798 0.30098 0.82739 0.0
H823 H 0.22418 0.32167 0.83135 0.0
H824 H 0.22247 0.24515 0.57838 0.0
H825 H 0.18994 0.28971 0.54429 0.0
H826 H 0.17156 0.33155 0.61191 0.0
H827 H 0.18554 0.32901 0.71399 0.0
C828 C 0.20784 0.30537 0.80889 0.0
C829 C 0.22111 0.28226 0.76712 0.0
C830 C 0.21287 0.28436 0.7078 0.0
C831 C 0.22387 0.26061 0.66884 0.0
C832 C 0.21512 0.26292 0.60971 0.0
C833 C 0.19638 0.28828 0.58965 0.0
C834 C 0.18598 0.3118 0.62773 0.0
C835 C 0.19406 0.31 0.6862 0.0
H836 H 0.81138 0.25934 0.64882 0.0
C837 C 0.79974 0.28149 0.63524 0.0
H838 H 0.761 0.31292 0.64965 0.0
H839 H 0.68372 0.19597 0.76037 0.0
H840 H 0.65521 0.20241 0.66928 0.0
H841 H 0.67445 0.24065 0.59584 0.0
H842 H 0.72236 0.27258 0.61304 0.0
C843 C 0.77381 0.2915 0.66328 0.0
C844 C 0.76049 0.27143 0.71008 0.0
C845 C 0.73212 0.25352 0.69963 0.0
C846 C 0.72085 0.23181 0.74214 0.0
C847 C 0.69298 0.21336 0.73003 0.0
C848 C 0.67648 0.21668 0.67777 0.0
C849 C 0.68734 0.23817 0.6364 0.0
C850 C 0.71487 0.25636 0.64686 0.0
H851 H 0.68964 0.24282 0.86184 0.0
C852 C 0.69919 0.21908 0.87145 0.0
H853 H 0.73474 0.185 0.85044 0.0
H854 H 0.81425 0.30433 0.74537 0.0
H855 H 0.8428 0.29775 0.83644 0.0
H856 H 0.82366 0.25929 0.90963 0.0
H857 H 0.77575 0.22725 0.89217 0.0
C858 C 0.72423 0.20837 0.84169 0.0
C859 C 0.73768 0.22864 0.79533 0.0
C860 C 0.766 0.24657 0.80584 0.0
C861 C 0.77729 0.2683 0.76334 0.0
C862 C 0.80507 0.28682 0.77559 0.0
C863 C 0.82156 0.28345 0.82785 0.0
C864 C 0.81076 0.26183 0.8691 0.0
C865 C 0.78324 0.24361 0.85855 0.0
H866 H 0.73351 0.80787 0.6393 0.0
C867 C 0.70979 0.79824 0.62979 0.0
H868 H 0.67538 0.76304 0.65239 0.0
H869 H 0.79015 0.67921 0.75712 0.0
H870 H 0.77675 0.64845 0.671 0.0
H871 H 0.73656 0.66828 0.60102 0.0
H872 H 0.7096 0.71908 0.61677 0.0
C873 C 0.69844 0.77405 0.66199 0.0
C874 C 0.71891 0.76012 0.7082 0.0
C875 C 0.73369 0.72998 0.69909 0.0
C876 C 0.75642 0.71831 0.73989 0.0
C877 C 0.77198 0.6888 0.72845 0.0
C878 C 0.7647 0.671 0.67892 0.0
C879 C 0.74211 0.68219 0.63948 0.0
C880 C 0.72681 0.71138 0.64906 0.0
H881 H 0.7543 0.68738 0.86011 0.0
C882 C 0.77762 0.69851 0.86711 0.0
H883 H 0.8088 0.73603 0.84168 0.0
H884 H 0.69228 0.81727 0.7411 0.0
H885 H 0.70509 0.84782 0.8279 0.0
H886 H 0.74487 0.82781 0.8985 0.0
H887 H 0.77202 0.7771 0.88279 0.0
C888 C 0.78611 0.72374 0.83459 0.0
C889 C 0.76362 0.73652 0.79037 0.0
C890 C 0.74842 0.76641 0.79992 0.0
C891 C 0.72579 0.77811 0.75898 0.0
C892 C 0.71023 0.80763 0.77021 0.0
C893 C 0.7172 0.8253 0.82003 0.0
C894 C 0.73957 0.81401 0.85981 0.0
C895 C 0.755 0.78488 0.85022 0.0
loop_
_geom_bond_atom_site_label_1
_geom_bond_atom_site_label_2
_geom_bond_distance
_geom_bond_site_symmetry_2
_ccdc_geom_bond_type
Sc0 O3 2.025 . S
Sc0 O10 2.105 1_554 S
Sc0 O13 2.105 . S
Sc0 O16 2.105 . S
Sc0 O19 2.105 1_554 S
Sc1 O3 2.025 . S
Sc1 O11 2.105 1_554 S
Sc1 O15 2.105 . S
Sc1 O17 2.105 . S
Sc1 O21 2.105 1_554 S
Sc2 O3 2.025 . S
Sc2 O12 2.105 1_554 S
Sc2 O14 2.105 . S
Sc2 O18 2.105 . S
Sc2 O20 2.105 1_554 S
O3 Sc0 2.025 . S
O3 Sc1 2.025 . S
O3 Sc2 2.025 . S
C4 O10 1.268 . S
C4 O20 1.268 . S
C5 O11 1.268 . S
C5 O19 1.268 . S
C6 O12 1.268 . S
C6 O21 1.268 . S
C7 O13 1.268 . S
C7 O17 1.268 . S
C8 O14 1.268 . S
C8 O16 1.268 . S
C9 O15 1.268 . S
C9 O18 1.268 . S
O10 Sc0 2.105 1_556 S
O10 C4 1.268 . S
O11 Sc1 2.105 1_556 S
O11 C5 1.268 . S
O12 Sc2 2.105 1_556 S
O12 C6 1.268 . S
O13 Sc0 2.105 . S
O13 C7 1.268 . S
O14 Sc2 2.105 . S
O14 C8 1.268 . S
O15 Sc1 2.105 . S
O15 C9 1.268 . S
O16 Sc0 2.105 . S
O16 C8 1.268 . S
O17 Sc1 2.105 . S
O17 C7 1.268 . S
O18 Sc2 2.105 . S
O18 C9 1.268 . S
O19 Sc0 2.105 1_556 S
O19 C5 1.268 . S
O20 Sc2 2.105 1_556 S
O20 C4 1.268 . S
O21 Sc1 2.105 1_556 S
O21 C6 1.268 . S
Sc22 O25 2.025 . S
Sc22 O32 2.105 1_554 S
Sc22 O35 2.105 . S
Sc22 O38 2.105 . S
Sc22 O41 2.105 1_554 S
Sc23 O25 2.025 . S
Sc23 O33 2.105 1_554 S
Sc23 O37 2.105 . S
Sc23 O39 2.105 . S
Sc23 O43 2.105 1_554 S
Sc24 O25 2.025 . S
Sc24 O34 2.105 1_554 S
Sc24 O36 2.105 . S
Sc24 O40 2.105 . S
Sc24 O42 2.105 1_554 S
O25 Sc22 2.025 . S
O25 Sc23 2.025 . S
O25 Sc24 2.025 . S
C26 O32 1.268 . S
C26 O42 1.268 . S
C27 O33 1.268 . S
C27 O41 1.268 . S
C28 O34 1.268 . S
C28 O43 1.268 . S
C29 O35 1.268 . S
C29 O39 1.268 . S
C30 O36 1.268 . S
C30 O38 1.268 . S
C31 O37 1.268 . S
C31 O40 1.268 . S
O32 Sc22 2.105 1_556 S
O32 C26 1.268 . S
O33 Sc23 2.105 1_556 S
O33 C27 1.268 . S
O34 Sc24 2.105 1_556 S
O34 C28 1.268 . S
O35 Sc22 2.105 . S
O35 C29 1.268 . S
O36 Sc24 2.105 . S
O36 C30 1.268 . S
O37 Sc23 2.105 . S
O37 C31 1.268 . S
O38 Sc22 2.105 . S
O38 C30 1.268 . S
O39 Sc23 2.105 . S
O39 C29 1.268 . S
O40 Sc24 2.105 . S
O40 C31 1.268 . S
O41 Sc22 2.105 1_556 S
O41 C27 1.268 . S
O42 Sc24 2.105 1_556 S
O42 C26 1.268 . S
O43 Sc23 2.105 1_556 S
O43 C28 1.268 . S
Sc44 O47 2.025 . S
Sc44 O54 2.105 1_554 S
Sc44 O57 2.105 . S
Sc44 O60 2.105 . S
Sc44 O63 2.105 1_554 S
Sc45 O47 2.025 . S
Sc45 O55 2.105 1_554 S
Sc45 O59 2.105 . S
Sc45 O61 2.105 . S
Sc45 O65 2.105 1_554 S
Sc46 O47 2.025 . S
Sc46 O56 2.105 1_554 S
Sc46 O58 2.105 . S
Sc46 O62 2.105 . S
Sc46 O64 2.105 1_554 S
O47 Sc44 2.025 . S
O47 Sc45 2.025 . S
O47 Sc46 2.025 . S
C48 O54 1.268 . S
C48 O64 1.268 . S
C49 O55 1.268 . S
C49 O63 1.268 . S
C50 O56 1.268 . S
C50 O65 1.268 . S
C51 O57 1.268 . S
C51 O61 1.268 . S
C52 O58 1.268 . S
C52 O60 1.268 . S
C53 O59 1.268 . S
C53 O62 1.268 . S
O54 Sc44 2.105 1_556 S
O54 C48 1.268 . S
O55 Sc45 2.105 1_556 S
O55 C49 1.268 . S
O56 Sc46 2.105 1_556 S
O56 C50 1.268 . S
O57 Sc44 2.105 . S
O57 C51 1.268 . S
O58 Sc46 2.105 . S
O58 C52 1.268 . S
O59 Sc45 2.105 . S
O59 C53 1.268 . S
O60 Sc44 2.105 . S
O60 C52 1.268 . S
O61 Sc45 2.105 . S
O61 C51 1.268 . S
O62 Sc46 2.105 . S
O62 C53 1.268 . S
O63 Sc44 2.105 1_556 S
O63 C49 1.268 . S
O64 Sc46 2.105 1_556 S
O64 C48 1.268 . S
O65 Sc45 2.105 1_556 S
O65 C50 1.268 . S
Sc66 O69 2.025 . S
Sc66 O76 2.105 1_554 S
Sc66 O79 2.105 . S
Sc66 O82 2.105 . S
Sc66 O85 2.105 1_554 S
Sc67 O69 2.025 . S
Sc67 O77 2.105 1_554 S
Sc67 O81 2.105 . S
Sc67 O83 2.105 . S
Sc67 O87 2.105 1_554 S
Sc68 O69 2.025 . S
Sc68 O78 2.105 1_554 S
Sc68 O80 2.105 . S
Sc68 O84 2.105 . S
Sc68 O86 2.105 1_554 S
O69 Sc66 2.025 . S
O69 Sc67 2.025 . S
O69 Sc68 2.025 . S
C70 O76 1.268 . S
C70 O86 1.268 . S
C71 O77 1.268 . S
C71 O85 1.268 . S
C72 O78 1.268 . S
C72 O87 1.268 . S
C73 O79 1.268 . S
C73 O83 1.268 . S
C74 O80 1.268 . S
C74 O82 1.268 . S
C75 O81 1.268 . S
C75 O84 1.268 . S
O76 Sc66 2.105 1_556 S
O76 C70 1.268 . S
O77 Sc67 2.105 1_556 S
O77 C71 1.268 . S
O78 Sc68 2.105 1_556 S
O78 C72 1.268 . S
O79 Sc66 2.105 . S
O79 C73 1.268 . S
O80 Sc68 2.105 . S
O80 C74 1.268 . S
O81 Sc67 2.105 . S
O81 C75 1.268 . S
O82 Sc66 2.105 . S
O82 C74 1.268 . S
O83 Sc67 2.105 . S
O83 C73 1.268 . S
O84 Sc68 2.105 . S
O84 C75 1.268 . S
O85 Sc66 2.105 1_556 S
O85 C71 1.268 . S
O86 Sc68 2.105 1_556 S
O86 C70 1.268 . S
O87 Sc67 2.105 1_556 S
O87 C72 1.268 . S
Sc88 O91 2.025 . S
Sc88 O98 2.105 . S
Sc88 O101 2.105 . S
Sc88 O104 2.105 . S
Sc88 O107 2.105 . S
Sc89 O91 2.025 . S
Sc89 O99 2.105 . S
Sc89 O103 2.105 . S
Sc89 O105 2.105 . S
Sc89 O109 2.105 . S
Sc90 O91 2.025 . S
Sc90 O100 2.105 . S
Sc90 O102 2.105 . S
Sc90 O106 2.105 . S
Sc90 O108 2.105 . S
O91 Sc88 2.025 . S
O91 Sc89 2.025 . S
O91 Sc90 2.025 . S
C92 O98 1.268 . S
C92 O108 1.268 . S
C93 O99 1.268 . S
C93 O107 1.268 . S
C94 O100 1.268 . S
C94 O109 1.268 . S
C95 O101 1.268 . S
C95 O105 1.268 . S
C96 O102 1.268 . S
C96 O104 1.268 . S
C97 O103 1.268 . S
C97 O106 1.268 . S
O98 Sc88 2.105 . S
O98 C92 1.268 . S
O99 Sc89 2.105 . S
O99 C93 1.268 . S
O100 Sc90 2.105 . S
O100 C94 1.268 . S
O101 Sc88 2.105 . S
O101 C95 1.268 . S
O102 Sc90 2.105 . S
O102 C96 1.268 . S
O103 Sc89 2.105 . S
O103 C97 1.268 . S
O104 Sc88 2.105 . S
O104 C96 1.268 . S
O105 Sc89 2.105 . S
O105 C95 1.268 . S
O106 Sc90 2.105 . S
O106 C97 1.268 . S
O107 Sc88 2.105 . S
O107 C93 1.268 . S
O108 Sc90 2.105 . S
O108 C92 1.268 . S
O109 Sc89 2.105 . S
O109 C94 1.268 . S
Sc110 O113 2.025 . S
Sc110 O120 2.105 . S
Sc110 O123 2.105 . S
Sc110 O126 2.105 . S
Sc110 O129 2.105 . S
Sc111 O113 2.025 . S
Sc111 O121 2.105 . S
Sc111 O125 2.105 . S
Sc111 O127 2.105 . S
Sc111 O131 2.105 . S
Sc112 O113 2.025 . S
Sc112 O122 2.105 . S
Sc112 O124 2.105 . S
Sc112 O128 2.105 . S
Sc112 O130 2.105 . S
O113 Sc110 2.025 . S
O113 Sc111 2.025 . S
O113 Sc112 2.025 . S
C114 O120 1.268 . S
C114 O130 1.268 . S
C115 O121 1.268 . S
C115 O129 1.268 . S
C116 O122 1.268 . S
C116 O131 1.268 . S
C117 O123 1.268 . S
C117 O127 1.268 . S
C118 O124 1.268 . S
C118 O126 1.268 . S
C119 O125 1.268 . S
C119 O128 1.268 . S
O120 Sc110 2.105 . S
O120 C114 1.268 . S
O121 Sc111 2.105 . S
O121 C115 1.268 . S
O122 Sc112 2.105 . S
O122 C116 1.268 . S
O123 Sc110 2.105 . S
O123 C117 1.268 . S
O124 Sc112 2.105 . S
O124 C118 1.268 . S
O125 Sc111 2.105 . S
O125 C119 1.268 . S
O126 Sc110 2.105 . S
O126 C118 1.268 . S
O127 Sc111 2.105 . S
O127 C117 1.268 . S
O128 Sc112 2.105 . S
O128 C119 1.268 . S
O129 Sc110 2.105 . S
O129 C115 1.268 . S
O130 Sc112 2.105 . S
O130 C114 1.268 . S
O131 Sc111 2.105 . S
O131 C116 1.268 . S
Sc132 O135 2.025 . S
Sc132 O142 2.105 . S
Sc132 O145 2.105 . S
Sc132 O148 2.105 . S
Sc132 O151 2.105 . S
Sc133 O135 2.025 . S
Sc133 O143 2.105 . S
Sc133 O147 2.105 . S
Sc133 O149 2.105 . S
Sc133 O153 2.105 . S
Sc134 O135 2.025 . S
Sc134 O144 2.105 . S
Sc134 O146 2.105 . S
Sc134 O150 2.105 . S
Sc134 O152 2.105 . S
O135 Sc132 2.025 . S
O135 Sc133 2.025 . S
O135 Sc134 2.025 . S
C136 O142 1.268 . S
C136 O152 1.268 . S
C137 O143 1.268 . S
C137 O151 1.268 . S
C138 O144 1.268 . S
C138 O153 1.268 . S
C139 O145 1.268 . S
C139 O149 1.268 . S
C140 O146 1.268 . S
C140 O148 1.268 . S
C141 O147 1.268 . S
C141 O150 1.268 . S
O142 Sc132 2.105 . S
O142 C136 1.268 . S
O143 Sc133 2.105 . S
O143 C137 1.268 . S
O144 Sc134 2.105 . S
O144 C138 1.268 . S
O145 Sc132 2.105 . S
O145 C139 1.268 . S
O146 Sc134 2.105 . S
O146 C140 1.268 . S
O147 Sc133 2.105 . S
O147 C141 1.268 . S
O148 Sc132 2.105 . S
O148 C140 1.268 . S
O149 Sc133 2.105 . S
O149 C139 1.268 . S
O150 Sc134 2.105 . S
O150 C141 1.268 . S
O151 Sc132 2.105 . S
O151 C137 1.268 . S
O152 Sc134 2.105 . S
O152 C136 1.268 . S
O153 Sc133 2.105 . S
O153 C138 1.268 . S
Sc154 O157 2.025 . S
Sc154 O164 2.105 . S
Sc154 O167 2.105 . S
Sc154 O170 2.105 . S
Sc154 O173 2.105 . S
Sc155 O157 2.025 . S
Sc155 O165 2.105 . S
Sc155 O169 2.105 . S
Sc155 O171 2.105 . S
Sc155 O175 2.105 . S
Sc156 O157 2.025 . S
Sc156 O166 2.105 . S
Sc156 O168 2.105 . S
Sc156 O172 2.105 . S
Sc156 O174 2.105 . S
O157 Sc154 2.025 . S
O157 Sc155 2.025 . S
O157 Sc156 2.025 . S
C158 O164 1.268 . S
C158 O174 1.268 . S
C159 O165 1.268 . S
C159 O173 1.268 . S
C160 O166 1.268 . S
C160 O175 1.268 . S
C161 O167 1.268 . S
C161 O171 1.268 . S
C162 O168 1.268 . S
C162 O170 1.268 . S
C163 O169 1.268 . S
C163 O172 1.268 . S
O164 Sc154 2.105 . S
O164 C158 1.268 . S
O165 Sc155 2.105 . S
O165 C159 1.268 . S
O166 Sc156 2.105 . S
O166 C160 1.268 . S
O167 Sc154 2.105 . S
O167 C161 1.268 . S
O168 Sc156 2.105 . S
O168 C162 1.268 . S
O169 Sc155 2.105 . S
O169 C163 1.268 . S
O170 Sc154 2.105 . S
O170 C162 1.268 . S
O171 Sc155 2.105 . S
O171 C161 1.268 . S
O172 Sc156 2.105 . S
O172 C163 1.268 . S
O173 Sc154 2.105 . S
O173 C159 1.268 . S
O174 Sc156 2.105 . S
O174 C158 1.268 . S
O175 Sc155 2.105 . S
O175 C160 1.268 . S
H176 C177 0.951 . S
C177 H176 0.951 . S
C177 C183 1.265 . S
H178 C183 0.950 . S
H179 C187 0.949 . S
H180 C188 0.950 . S
H181 C189 0.951 . S
H182 C190 0.951 . S
C183 C177 1.265 . S
C183 H178 0.950 . S
C183 C184 1.478 . S
C184 C183 1.478 . S
C184 C185 1.397 . S
C184 C201 1.394 . S
C185 C184 1.397 . S
C185 C186 1.438 . S
C185 C190 1.429 . S
C186 C185 1.438 . S
C186 C187 1.428 . S
C186 C199 1.394 . S
C187 H179 0.949 . S
C187 C186 1.428 . S
C187 C188 1.345 . S
C188 H180 0.950 . S
C188 C187 1.345 . S
C188 C189 1.424 . S
C189 H181 0.951 . S
C189 C188 1.424 . S
C189 C190 1.347 . S
C190 H182 0.951 . S
C190 C185 1.429 . S
C190 C189 1.347 . S
H191 C192 0.951 . S
C192 H191 0.951 . S
C192 C198 1.265 . S
H193 C198 0.950 . S
H194 C202 0.949 . S
H195 C203 0.950 . S
H196 C204 0.951 . S
H197 C205 0.951 . S
C198 C192 1.265 . S
C198 H193 0.950 . S
C198 C199 1.478 . S
C199 C186 1.394 . S
C199 C198 1.478 . S
C199 C200 1.397 . S
C200 C199 1.397 . S
C200 C201 1.438 . S
C200 C205 1.429 . S
C201 C184 1.394 . S
C201 C200 1.438 . S
C201 C202 1.428 . S
C202 H194 0.949 . S
C202 C201 1.428 . S
C202 C203 1.345 . S
C203 H195 0.950 . S
C203 C202 1.345 . S
C203 C204 1.424 . S
C204 H196 0.951 . S
C204 C203 1.424 . S
C204 C205 1.347 . S
C205 H197 0.951 . S
C205 C200 1.429 . S
C205 C204 1.347 . S
H206 C207 0.951 . S
C207 H206 0.951 . S
C207 C213 1.265 . S
H208 C213 0.950 . S
H209 C217 0.949 . S
H210 C218 0.950 . S
H211 C219 0.951 . S
H212 C220 0.951 . S
C213 C207 1.265 . S
C213 H208 0.950 . S
C213 C214 1.478 . S
C214 C213 1.478 . S
C214 C215 1.397 . S
C214 C231 1.394 . S
C215 C214 1.397 . S
C215 C216 1.438 . S
C215 C220 1.429 . S
C216 C215 1.438 . S
C216 C217 1.428 . S
C216 C229 1.394 . S
C217 H209 0.949 . S
C217 C216 1.428 . S
C217 C218 1.345 . S
C218 H210 0.950 . S
C218 C217 1.345 . S
C218 C219 1.424 . S
C219 H211 0.951 . S
C219 C218 1.424 . S
C219 C220 1.347 . S
C220 H212 0.951 . S
C220 C215 1.429 . S
C220 C219 1.347 . S
H221 C222 0.951 . S
C222 H221 0.951 . S
C222 C228 1.265 . S
H223 C228 0.950 . S
H224 C232 0.949 . S
H225 C233 0.950 . S
H226 C234 0.951 . S
H227 C235 0.951 . S
C228 C222 1.265 . S
C228 H223 0.950 . S
C228 C229 1.478 . S
C229 C216 1.394 . S
C229 C228 1.478 . S
C229 C230 1.397 . S
C230 C229 1.397 . S
C230 C231 1.438 . S
C230 C235 1.429 . S
C231 C214 1.394 . S
C231 C230 1.438 . S
C231 C232 1.428 . S
C232 H224 0.949 . S
C232 C231 1.428 . S
C232 C233 1.345 . S
C233 H225 0.950 . S
C233 C232 1.345 . S
C233 C234 1.424 . S
C234 H226 0.951 . S
C234 C233 1.424 . S
C234 C235 1.347 . S
C235 H227 0.951 . S
C235 C230 1.429 . S
C235 C234 1.347 . S
H236 C237 0.951 . S
C237 H236 0.951 . S
C237 C243 1.265 . S
H238 C243 0.950 . S
H239 C247 0.949 . S
H240 C248 0.950 . S
H241 C249 0.951 . S
H242 C250 0.951 . S
C243 C237 1.265 . S
C243 H238 0.950 . S
C243 C244 1.478 . S
C244 C243 1.478 . S
C244 C245 1.397 . S
C244 C261 1.394 . S
C245 C244 1.397 . S
C245 C246 1.438 . S
C245 C250 1.429 . S
C246 C245 1.438 . S
C246 C247 1.428 . S
C246 C259 1.394 . S
C247 H239 0.949 . S
C247 C246 1.428 . S
C247 C248 1.345 . S
C248 H240 0.950 . S
C248 C247 1.345 . S
C248 C249 1.424 . S
C249 H241 0.951 . S
C249 C248 1.424 . S
C249 C250 1.347 . S
C250 H242 0.951 . S
C250 C245 1.429 . S
C250 C249 1.347 . S
H251 C252 0.951 . S
C252 H251 0.951 . S
C252 C258 1.265 . S
H253 C258 0.950 . S
H254 C262 0.949 . S
H255 C263 0.950 . S
H256 C264 0.951 . S
H257 C265 0.951 . S
C258 C252 1.265 . S
C258 H253 0.950 . S
C258 C259 1.478 . S
C259 C246 1.394 . S
C259 C258 1.478 . S
C259 C260 1.397 . S
C260 C259 1.397 . S
C260 C261 1.438 . S
C260 C265 1.429 . S
C261 C244 1.394 . S
C261 C260 1.438 . S
C261 C262 1.428 . S
C262 H254 0.949 . S
C262 C261 1.428 . S
C262 C263 1.345 . S
C263 H255 0.950 . S
C263 C262 1.345 . S
C263 C264 1.424 . S
C264 H256 0.951 . S
C264 C263 1.424 . S
C264 C265 1.347 . S
C265 H257 0.951 . S
C265 C260 1.429 . S
C265 C264 1.347 . S
H266 C267 0.951 . S
C267 H266 0.951 . S
C267 C273 1.265 . S
H268 C273 0.950 . S
H269 C277 0.949 . S
H270 C278 0.950 . S
H271 C279 0.951 . S
H272 C280 0.951 . S
C273 C267 1.265 . S
C273 H268 0.950 . S
C273 C274 1.478 . S
C274 C273 1.478 . S
C274 C275 1.397 . S
C274 C291 1.394 . S
C275 C274 1.397 . S
C275 C276 1.438 . S
C275 C280 1.429 . S
C276 C275 1.438 . S
C276 C277 1.428 . S
C276 C289 1.394 . S
C277 H269 0.949 . S
C277 C276 1.428 . S
C277 C278 1.345 . S
C278 H270 0.950 . S
C278 C277 1.345 . S
C278 C279 1.424 . S
C279 H271 0.951 . S
C279 C278 1.424 . S
C279 C280 1.347 . S
C280 H272 0.951 . S
C280 C275 1.429 . S
C280 C279 1.347 . S
H281 C282 0.951 . S
C282 H281 0.951 . S
C282 C288 1.265 . S
H283 C288 0.950 . S
H284 C292 0.949 . S
H285 C293 0.950 . S
H286 C294 0.951 . S
H287 C295 0.951 . S
C288 C282 1.265 . S
C288 H283 0.950 . S
C288 C289 1.478 . S
C289 C276 1.394 . S
C289 C288 1.478 . S
C289 C290 1.397 . S
C290 C289 1.397 . S
C290 C291 1.438 . S
C290 C295 1.429 . S
C291 C274 1.394 . S
C291 C290 1.438 . S
C291 C292 1.428 . S
C292 H284 0.949 . S
C292 C291 1.428 . S
C292 C293 1.345 . S
C293 H285 0.950 . S
C293 C292 1.345 . S
C293 C294 1.424 . S
C294 H286 0.951 . S
C294 C293 1.424 . S
C294 C295 1.347 . S
C295 H287 0.951 . S
C295 C290 1.429 . S
C295 C294 1.347 . S
H296 C297 0.951 . S
C297 H296 0.951 . S
C297 C303 1.265 . S
H298 C303 0.950 . S
H299 C307 0.949 . S
H300 C308 0.950 . S
H301 C309 0.951 . S
H302 C310 0.951 . S
C303 C297 1.265 . S
C303 H298 0.950 . S
C303 C304 1.478 . S
C304 C303 1.478 . S
C304 C305 1.397 . S
C304 C321 1.394 . S
C305 C304 1.397 . S
C305 C306 1.438 . S
C305 C310 1.429 . S
C306 C305 1.438 . S
C306 C307 1.428 . S
C306 C319 1.394 . S
C307 H299 0.949 . S
C307 C306 1.428 . S
C307 C308 1.345 . S
C308 H300 0.950 . S
C308 C307 1.345 . S
C308 C309 1.424 . S
C309 H301 0.951 . S
C309 C308 1.424 . S
C309 C310 1.347 . S
C310 H302 0.951 . S
C310 C305 1.429 . S
C310 C309 1.347 . S
H311 C312 0.951 . S
C312 H311 0.951 . S
C312 C318 1.265 . S
H313 C318 0.950 . S
H314 C322 0.949 . S
H315 C323 0.950 . S
H316 C324 0.951 . S
H317 C325 0.951 . S
C318 C312 1.265 . S
C318 H313 0.950 . S
C318 C319 1.478 . S
C319 C306 1.394 . S
C319 C318 1.478 . S
C319 C320 1.397 . S
C320 C319 1.397 . S
C320 C321 1.438 . S
C320 C325 1.429 . S
C321 C304 1.394 . S
C321 C320 1.438 . S
C321 C322 1.428 . S
C322 H314 0.949 . S
C322 C321 1.428 . S
C322 C323 1.345 . S
C323 H315 0.950 . S
C323 C322 1.345 . S
C323 C324 1.424 . S
C324 H316 0.951 . S
C324 C323 1.424 . S
C324 C325 1.347 . S
C325 H317 0.951 . S
C325 C320 1.429 . S
C325 C324 1.347 . S
H326 C327 0.951 . S
C327 H326 0.951 . S
C327 C333 1.265 . S
H328 C333 0.950 . S
H329 C337 0.949 . S
H330 C338 0.950 . S
H331 C339 0.951 . S
H332 C340 0.951 . S
C333 C327 1.265 . S
C333 H328 0.950 . S
C333 C334 1.478 . S
C334 C333 1.478 . S
C334 C335 1.397 . S
C334 C351 1.394 . S
C335 C334 1.397 . S
C335 C336 1.438 . S
C335 C340 1.429 . S
C336 C335 1.438 . S
C336 C337 1.428 . S
C336 C349 1.394 . S
C337 H329 0.949 . S
C337 C336 1.428 . S
C337 C338 1.345 . S
C338 H330 0.950 . S
C338 C337 1.345 . S
C338 C339 1.424 . S
C339 H331 0.951 . S
C339 C338 1.424 . S
C339 C340 1.347 . S
C340 H332 0.951 . S
C340 C335 1.429 . S
C340 C339 1.347 . S
H341 C342 0.951 . S
C342 H341 0.951 . S
C342 C348 1.265 . S
H343 C348 0.950 . S
H344 C352 0.949 . S
H345 C353 0.950 . S
H346 C354 0.951 . S
H347 C355 0.951 . S
C348 C342 1.265 . S
C348 H343 0.950 . S
C348 C349 1.478 . S
C349 C336 1.394 . S
C349 C348 1.478 . S
C349 C350 1.397 . S
C350 C349 1.397 . S
C350 C351 1.438 . S
C350 C355 1.429 . S
C351 C334 1.394 . S
C351 C350 1.438 . S
C351 C352 1.428 . S
C352 H344 0.949 . S
C352 C351 1.428 . S
C352 C353 1.345 . S
C353 H345 0.950 . S
C353 C352 1.345 . S
C353 C354 1.424 . S
C354 H346 0.951 . S
C354 C353 1.424 . S
C354 C355 1.347 . S
C355 H347 0.951 . S
C355 C350 1.429 . S
C355 C354 1.347 . S
H356 C357 0.951 . S
C357 H356 0.951 . S
C357 C363 1.265 . S
H358 C363 0.950 . S
H359 C367 0.949 . S
H360 C368 0.950 . S
H361 C369 0.951 . S
H362 C370 0.951 . S
C363 C357 1.265 . S
C363 H358 0.950 . S
C363 C364 1.478 . S
C364 C363 1.478 . S
C364 C365 1.397 . S
C364 C381 1.394 . S
C365 C364 1.397 . S
C365 C366 1.438 . S
C365 C370 1.429 . S
C366 C365 1.438 . S
C366 C367 1.428 . S
C366 C379 1.394 . S
C367 H359 0.949 . S
C367 C366 1.428 . S
C367 C368 1.345 . S
C368 H360 0.950 . S
C368 C367 1.345 . S
C368 C369 1.424 . S
C369 H361 0.951 . S
C369 C368 1.424 . S
C369 C370 1.347 . S
C370 H362 0.951 . S
C370 C365 1.429 . S
C370 C369 1.347 . S
H371 C372 0.951 . S
C372 H371 0.951 . S
C372 C378 1.265 . S
H373 C378 0.950 . S
H374 C382 0.949 . S
H375 C383 0.950 . S
H376 C384 0.951 . S
H377 C385 0.951 . S
C378 C372 1.265 . S
C378 H373 0.950 . S
C378 C379 1.478 . S
C379 C366 1.394 . S
C379 C378 1.478 . S
C379 C380 1.397 . S
C380 C379 1.397 . S
C380 C381 1.438 . S
C380 C385 1.429 . S
C381 C364 1.394 . S
C381 C380 1.438 . S
C381 C382 1.428 . S
C382 H374 0.949 . S
C382 C381 1.428 . S
C382 C383 1.345 . S
C383 H375 0.950 . S
C383 C382 1.345 . S
C383 C384 1.424 . S
C384 H376 0.951 . S
C384 C383 1.424 . S
C384 C385 1.347 . S
C385 H377 0.951 . S
C385 C380 1.429 . S
C385 C384 1.347 . S
H386 C387 0.951 . S
C387 H386 0.951 . S
C387 C393 1.265 . S
H388 C393 0.950 . S
H389 C397 0.949 . S
H390 C398 0.950 . S
H391 C399 0.951 . S
H392 C400 0.951 . S
C393 C387 1.265 . S
C393 H388 0.950 . S
C393 C394 1.478 . S
C394 C393 1.478 . S
C394 C395 1.397 . S
C394 C411 1.394 . S
C395 C394 1.397 . S
C395 C396 1.438 . S
C395 C400 1.429 . S
C396 C395 1.438 . S
C396 C397 1.428 . S
C396 C409 1.394 . S
C397 H389 0.949 . S
C397 C396 1.428 . S
C397 C398 1.345 . S
C398 H390 0.950 . S
C398 C397 1.345 . S
C398 C399 1.424 . S
C399 H391 0.951 . S
C399 C398 1.424 . S
C399 C400 1.347 . S
C400 H392 0.951 . S
C400 C395 1.429 . S
C400 C399 1.347 . S
H401 C402 0.951 . S
C402 H401 0.951 . S
C402 C408 1.265 . S
H403 C408 0.950 . S
H404 C412 0.949 . S
H405 C413 0.950 . S
H406 C414 0.951 . S
H407 C415 0.951 . S
C408 C402 1.265 . S
C408 H403 0.950 . S
C408 C409 1.478 . S
C409 C396 1.394 . S
C409 C408 1.478 . S
C409 C410 1.397 . S
C410 C409 1.397 . S
C410 C411 1.438 . S
C410 C415 1.429 . S
C411 C394 1.394 . S
C411 C410 1.438 . S
C411 C412 1.428 . S
C412 H404 0.949 . S
C412 C411 1.428 . S
C412 C413 1.345 . S
C413 H405 0.950 . S
C413 C412 1.345 . S
C413 C414 1.424 . S
C414 H406 0.951 . S
C414 C413 1.424 . S
C414 C415 1.347 . S
C415 H407 0.951 . S
C415 C410 1.429 . S
C415 C414 1.347 . S
H416 C417 0.951 . S
C417 H416 0.951 . S
C417 C423 1.265 . S
H418 C423 0.950 . S
H419 C427 0.949 . S
H420 C428 0.950 . S
H421 C429 0.951 . S
H422 C430 0.951 . S
C423 C417 1.265 . S
C423 H418 0.950 . S
C423 C424 1.478 . S
C424 C423 1.478 . S
C424 C425 1.397 . S
C424 C441 1.394 . S
C425 C424 1.397 . S
C425 C426 1.438 1_655 S
C425 C430 1.429 . S
C426 C425 1.438 1_455 S
C426 C427 1.428 . S
C426 C439 1.394 . S
C427 H419 0.949 . S
C427 C426 1.428 . S
C427 C428 1.345 . S
C428 H420 0.950 . S
C428 C427 1.345 . S
C428 C429 1.424 1_455 S
C429 H421 0.951 . S
C429 C428 1.424 1_655 S
C429 C430 1.347 . S
C430 H422 0.951 . S
C430 C425 1.429 . S
C430 C429 1.347 . S
H431 C432 0.951 . S
C432 H431 0.951 . S
C432 C438 1.265 . S
H433 C438 0.950 . S
H434 C442 0.949 . S
H435 C443 0.950 . S
H436 C444 0.951 . S
H437 C445 0.951 . S
C438 C432 1.265 . S
C438 H433 0.950 . S
C438 C439 1.478 . S
C439 C426 1.394 . S
C439 C438 1.478 . S
C439 C440 1.397 . S
C440 C439 1.397 . S
C440 C441 1.438 1_455 S
C440 C445 1.429 . S
C441 C424 1.394 . S
C441 C440 1.438 1_655 S
C441 C442 1.428 . S
C442 H434 0.949 . S
C442 C441 1.428 . S
C442 C443 1.345 . S
C443 H435 0.950 . S
C443 C442 1.345 . S
C443 C444 1.424 1_655 S
C444 H436 0.951 . S
C444 C443 1.424 1_455 S
C444 C445 1.347 . S
C445 H437 0.951 . S
C445 C440 1.429 . S
C445 C444 1.347 . S
H446 C447 0.951 . S
C447 H446 0.951 . S
C447 C453 1.265 . S
H448 C453 0.950 . S
H449 C457 0.949 . S
H450 C458 0.950 . S
H451 C459 0.951 . S
H452 C460 0.951 . S
C453 C447 1.265 . S
C453 H448 0.950 . S
C453 C454 1.478 . S
C454 C453 1.478 . S
C454 C455 1.397 1_545 S
C454 C471 1.394 . S
C455 C454 1.397 1_565 S
C455 C456 1.438 . S
C455 C460 1.429 . S
C456 C455 1.438 . S
C456 C457 1.428 . S
C456 C469 1.394 . S
C457 H449 0.949 . S
C457 C456 1.428 . S
C457 C458 1.345 . S
C458 H450 0.950 . S
C458 C457 1.345 . S
C458 C459 1.424 . S
C459 H451 0.951 . S
C459 C458 1.424 . S
C459 C460 1.347 . S
C460 H452 0.951 . S
C460 C455 1.429 . S
C460 C459 1.347 . S
H461 C462 0.951 . S
C462 H461 0.951 . S
C462 C468 1.265 . S
H463 C468 0.950 . S
H464 C472 0.949 . S
H465 C473 0.950 . S
H466 C474 0.951 . S
H467 C475 0.951 . S
C468 C462 1.265 . S
C468 H463 0.950 . S
C468 C469 1.478 . S
C469 C456 1.394 . S
C469 C468 1.478 . S
C469 C470 1.397 1_565 S
C470 C469 1.397 1_545 S
C470 C471 1.438 . S
C470 C475 1.429 . S
C471 C454 1.394 . S
C471 C470 1.438 . S
C471 C472 1.428 . S
C472 H464 0.949 . S
C472 C471 1.428 . S
C472 C473 1.345 . S
C473 H465 0.950 . S
C473 C472 1.345 . S
C473 C474 1.424 . S
C474 H466 0.951 . S
C474 C473 1.424 . S
C474 C475 1.347 . S
C475 H467 0.951 . S
C475 C470 1.429 . S
C475 C474 1.347 . S
H476 C477 0.951 . S
C477 H476 0.951 . S
C477 C483 1.265 . S
H478 C483 0.950 . S
H479 C487 0.949 . S
H480 C488 0.950 . S
H481 C489 0.951 . S
H482 C490 0.951 . S
C483 C477 1.265 . S
C483 H478 0.950 . S
C483 C484 1.478 . S
C484 C483 1.478 . S
C484 C485 1.397 . S
C484 C501 1.394 . S
C485 C484 1.397 . S
C485 C486 1.438 1_655 S
C485 C490 1.429 . S
C486 C485 1.438 1_455 S
C486 C487 1.428 . S
C486 C499 1.394 . S
C487 H479 0.949 . S
C487 C486 1.428 . S
C487 C488 1.345 1_455 S
C488 H480 0.950 . S
C488 C487 1.345 1_655 S
C488 C489 1.424 . S
C489 H481 0.951 . S
C489 C488 1.424 . S
C489 C490 1.347 . S
C490 H482 0.951 . S
C490 C485 1.429 . S
C490 C489 1.347 . S
H491 C492 0.951 . S
C492 H491 0.951 . S
C492 C498 1.265 . S
H493 C498 0.950 . S
H494 C502 0.949 . S
H495 C503 0.950 . S
H496 C504 0.951 . S
H497 C505 0.951 . S
C498 C492 1.265 . S
C498 H493 0.950 . S
C498 C499 1.478 . S
C499 C486 1.394 . S
C499 C498 1.478 . S
C499 C500 1.397 . S
C500 C499 1.397 . S
C500 C501 1.438 1_455 S
C500 C505 1.429 . S
C501 C484 1.394 . S
C501 C500 1.438 1_655 S
C501 C502 1.428 . S
C502 H494 0.949 . S
C502 C501 1.428 . S
C502 C503 1.345 1_655 S
C503 H495 0.950 . S
C503 C502 1.345 1_455 S
C503 C504 1.424 . S
C504 H496 0.951 . S
C504 C503 1.424 . S
C504 C505 1.347 . S
C505 H497 0.951 . S
C505 C500 1.429 . S
C505 C504 1.347 . S
H506 C507 0.951 . S
C507 H506 0.951 . S
C507 C513 1.265 . S
H508 C513 0.950 . S
H509 C517 0.949 . S
H510 C518 0.950 . S
H511 C519 0.951 . S
H512 C520 0.951 . S
C513 C507 1.265 . S
C513 H508 0.950 . S
C513 C514 1.478 . S
C514 C513 1.478 . S
C514 C515 1.397 . S
C514 C531 1.394 . S
C515 C514 1.397 . S
C515 C516 1.438 1_545 S
C515 C520 1.429 . S
C516 C515 1.438 1_565 S
C516 C517 1.428 . S
C516 C529 1.394 . S
C517 H509 0.949 . S
C517 C516 1.428 . S
C517 C518 1.345 . S
C518 H510 0.950 . S
C518 C517 1.345 . S
C518 C519 1.424 . S
C519 H511 0.951 . S
C519 C518 1.424 . S
C519 C520 1.347 1_565 S
C520 H512 0.951 . S
C520 C515 1.429 . S
C520 C519 1.347 1_545 S
H521 C522 0.951 . S
C522 H521 0.951 . S
C522 C528 1.265 . S
H523 C528 0.950 . S
H524 C532 0.949 . S
H525 C533 0.950 . S
H526 C534 0.951 . S
H527 C535 0.951 . S
C528 C522 1.265 . S
C528 H523 0.950 . S
C528 C529 1.478 . S
C529 C516 1.394 . S
C529 C528 1.478 . S
C529 C530 1.397 . S
C530 C529 1.397 . S
C530 C531 1.438 1_565 S
C530 C535 1.429 . S
C531 C514 1.394 . S
C531 C530 1.438 1_545 S
C531 C532 1.428 . S
C532 H524 0.949 . S
C532 C531 1.428 . S
C532 C533 1.345 . S
C533 H525 0.950 . S
C533 C532 1.345 . S
C533 C534 1.424 . S
C534 H526 0.951 . S
C534 C533 1.424 . S
C534 C535 1.347 1_545 S
C535 H527 0.951 . S
C535 C530 1.429 . S
C535 C534 1.347 1_565 S
H536 C537 0.951 . S
C537 H536 0.951 . S
C537 C543 1.265 . S
H538 C543 0.950 . S
H539 C547 0.949 . S
H540 C548 0.950 . S
H541 C549 0.951 . S
H542 C550 0.951 1_455 S
C543 C537 1.265 . S
C543 H538 0.950 . S
C543 C544 1.478 . S
C544 C543 1.478 . S
C544 C545 1.397 1_455 S
C544 C561 1.394 . S
C545 C544 1.397 1_655 S
C545 C546 1.438 . S
C545 C550 1.429 . S
C546 C545 1.438 . S
C546 C547 1.428 . S
C546 C559 1.394 . S
C547 H539 0.949 . S
C547 C546 1.428 . S
C547 C548 1.345 . S
C548 H540 0.950 . S
C548 C547 1.345 . S
C548 C549 1.424 . S
C549 H541 0.951 . S
C549 C548 1.424 . S
C549 C550 1.347 . S
C550 H542 0.951 1_655 S
C550 C545 1.429 . S
C550 C549 1.347 . S
H551 C552 0.951 . S
C552 H551 0.951 . S
C552 C558 1.265 . S
H553 C558 0.950 . S
H554 C562 0.949 . S
H555 C563 0.950 . S
H556 C564 0.951 . S
H557 C565 0.951 1_655 S
C558 C552 1.265 . S
C558 H553 0.950 . S
C558 C559 1.478 . S
C559 C546 1.394 . S
C559 C558 1.478 . S
C559 C560 1.397 1_655 S
C560 C559 1.397 1_455 S
C560 C561 1.438 . S
C560 C565 1.429 . S
C561 C544 1.394 . S
C561 C560 1.438 . S
C561 C562 1.428 . S
C562 H554 0.949 . S
C562 C561 1.428 . S
C562 C563 1.345 . S
C563 H555 0.950 . S
C563 C562 1.345 . S
C563 C564 1.424 . S
C564 H556 0.951 . S
C564 C563 1.424 . S
C564 C565 1.347 . S
C565 H557 0.951 1_455 S
C565 C560 1.429 . S
C565 C564 1.347 . S
H566 C567 0.951 . S
C567 H566 0.951 . S
C567 C573 1.265 . S
H568 C573 0.950 . S
H569 C577 0.949 . S
H570 C578 0.950 . S
H571 C579 0.951 . S
H572 C580 0.951 1_565 S
C573 C567 1.265 . S
C573 H568 0.950 . S
C573 C574 1.478 . S
C574 C573 1.478 . S
C574 C575 1.397 1_565 S
C574 C591 1.394 . S
C575 C574 1.397 1_545 S
C575 C576 1.438 . S
C575 C580 1.429 . S
C576 C575 1.438 . S
C576 C577 1.428 . S
C576 C589 1.394 . S
C577 H569 0.949 . S
C577 C576 1.428 . S
C577 C578 1.345 . S
C578 H570 0.950 . S
C578 C577 1.345 . S
C578 C579 1.424 . S
C579 H571 0.951 . S
C579 C578 1.424 . S
C579 C580 1.347 . S
C580 H572 0.951 1_545 S
C580 C575 1.429 . S
C580 C579 1.347 . S
H581 C582 0.951 . S
C582 H581 0.951 . S
C582 C588 1.265 . S
H583 C588 0.950 . S
H584 C592 0.949 . S
H585 C593 0.950 . S
H586 C594 0.951 . S
H587 C595 0.951 1_545 S
C588 C582 1.265 . S
C588 H583 0.950 . S
C588 C589 1.478 . S
C589 C576 1.394 . S
C589 C588 1.478 . S
C589 C590 1.397 1_545 S
C590 C589 1.397 1_565 S
C590 C591 1.438 . S
C590 C595 1.429 . S
C591 C574 1.394 . S
C591 C590 1.438 . S
C591 C592 1.428 . S
C592 H584 0.949 . S
C592 C591 1.428 . S
C592 C593 1.345 . S
C593 H585 0.950 . S
C593 C592 1.345 . S
C593 C594 1.424 . S
C594 H586 0.951 . S
C594 C593 1.424 . S
C594 C595 1.347 . S
C595 H587 0.951 1_565 S
C595 C590 1.429 . S
C595 C594 1.347 . S
H596 C597 0.951 . S
C597 H596 0.951 . S
C597 C603 1.265 . S
H598 C603 0.950 . S
H599 C607 0.949 . S
H600 C608 0.950 . S
H601 C609 0.951 . S
H602 C610 0.951 1_655 S
C603 C597 1.265 . S
C603 H598 0.950 . S
C603 C604 1.478 . S
C604 C603 1.478 . S
C604 C605 1.385 1_655 S
C604 C621 1.394 . S
C605 C604 1.385 1_455 S
C605 C606 1.449 . S
C605 C610 1.430 . S
C606 C605 1.449 . S
C606 C607 1.428 . S
C606 C619 1.394 . S
C607 H599 0.949 . S
C607 C606 1.428 . S
C607 C608 1.345 . S
C608 H600 0.950 . S
C608 C607 1.345 . S
C608 C609 1.424 . S
C609 H601 0.951 . S
C609 C608 1.424 . S
C609 C610 1.347 . S
C610 H602 0.951 1_455 S
C610 C605 1.430 . S
C610 C609 1.347 . S
H611 C612 0.951 . S
C612 H611 0.951 . S
C612 C618 1.265 . S
H613 C618 0.950 . S
H614 C622 0.949 . S
H615 C623 0.950 . S
H616 C624 0.951 . S
H617 C625 0.951 1_455 S
C618 C612 1.265 . S
C618 H613 0.950 . S
C618 C619 1.478 . S
C619 C606 1.394 . S
C619 C618 1.478 . S
C619 C620 1.385 1_455 S
C620 C619 1.385 1_655 S
C620 C621 1.449 . S
C620 C625 1.430 . S
C621 C604 1.394 . S
C621 C620 1.449 . S
C621 C622 1.428 . S
C622 H614 0.949 . S
C622 C621 1.428 . S
C622 C623 1.345 . S
C623 H615 0.950 . S
C623 C622 1.345 . S
C623 C624 1.424 . S
C624 H616 0.951 . S
C624 C623 1.424 . S
C624 C625 1.347 . S
C625 H617 0.951 1_655 S
C625 C620 1.430 . S
C625 C624 1.347 . S
H626 C627 0.951 . S
C627 H626 0.951 . S
C627 C633 1.265 . S
H628 C633 0.950 . S
H629 C637 0.949 . S
H630 C638 0.950 . S
H631 C639 0.951 . S
H632 C640 0.951 . S
C633 C627 1.265 . S
C633 H628 0.950 . S
C633 C634 1.478 . S
C634 C633 1.478 . S
C634 C635 1.397 . S
C634 C651 1.394 . S
C635 C634 1.397 . S
C635 C636 1.438 1_565 S
C635 C640 1.429 . S
C636 C635 1.438 1_545 S
C636 C637 1.428 . S
C636 C649 1.394 . S
C637 H629 0.949 . S
C637 C636 1.428 . S
C637 C638 1.345 1_545 S
C638 H630 0.950 . S
C638 C637 1.345 1_565 S
C638 C639 1.424 . S
C639 H631 0.951 . S
C639 C638 1.424 . S
C639 C640 1.347 . S
C640 H632 0.951 . S
C640 C635 1.429 . S
C640 C639 1.347 . S
H641 C642 0.951 . S
C642 H641 0.951 . S
C642 C648 1.265 . S
H643 C648 0.950 . S
H644 C652 0.949 . S
H645 C653 0.950 . S
H646 C654 0.951 . S
H647 C655 0.951 . S
C648 C642 1.265 . S
C648 H643 0.950 . S
C648 C649 1.478 . S
C649 C636 1.394 . S
C649 C648 1.478 . S
C649 C650 1.397 . S
C650 C649 1.397 . S
C650 C651 1.438 1_545 S
C650 C655 1.429 . S
C651 C634 1.394 . S
C651 C650 1.438 1_565 S
C651 C652 1.428 . S
C652 H644 0.949 . S
C652 C651 1.428 . S
C652 C653 1.345 1_565 S
C653 H645 0.950 . S
C653 C652 1.345 1_545 S
C653 C654 1.424 . S
C654 H646 0.951 . S
C654 C653 1.424 . S
C654 C655 1.347 . S
C655 H647 0.951 . S
C655 C650 1.429 . S
C655 C654 1.347 . S
H656 C657 0.951 . S
C657 H656 0.951 . S
C657 C663 1.265 . S
H658 C663 0.950 . S
H659 C667 0.949 . S
H660 C668 0.950 . S
H661 C669 0.951 . S
H662 C670 0.951 . S
C663 C657 1.265 . S
C663 H658 0.950 . S
C663 C664 1.478 . S
C664 C663 1.478 . S
C664 C665 1.397 . S
C664 C681 1.394 . S
C665 C664 1.397 . S
C665 C666 1.438 . S
C665 C670 1.429 . S
C666 C665 1.438 . S
C666 C667 1.428 . S
C666 C679 1.394 . S
C667 H659 0.949 . S
C667 C666 1.428 . S
C667 C668 1.345 . S
C668 H660 0.950 . S
C668 C667 1.345 . S
C668 C669 1.424 . S
C669 H661 0.951 . S
C669 C668 1.424 . S
C669 C670 1.347 . S
C670 H662 0.951 . S
C670 C665 1.429 . S
C670 C669 1.347 . S
H671 C672 0.951 . S
C672 H671 0.951 . S
C672 C678 1.265 . S
H673 C678 0.950 . S
H674 C682 0.949 . S
H675 C683 0.950 . S
H676 C684 0.951 . S
H677 C685 0.951 . S
C678 C672 1.265 . S
C678 H673 0.950 . S
C678 C679 1.478 . S
C679 C666 1.394 . S
C679 C678 1.478 . S
C679 C680 1.397 . S
C680 C679 1.397 . S
C680 C681 1.438 . S
C680 C685 1.429 . S
C681 C664 1.394 . S
C681 C680 1.438 . S
C681 C682 1.428 . S
C682 H674 0.949 . S
C682 C681 1.428 . S
C682 C683 1.345 . S
C683 H675 0.950 . S
C683 C682 1.345 . S
C683 C684 1.424 . S
C684 H676 0.951 . S
C684 C683 1.424 . S
C684 C685 1.347 . S
C685 H677 0.951 . S
C685 C680 1.429 . S
C685 C684 1.347 . S
H686 C687 0.951 . S
C687 H686 0.951 . S
C687 C693 1.265 . S
H688 C693 0.950 . S
H689 C697 0.949 . S
H690 C698 0.950 . S
H691 C699 0.951 . S
H692 C700 0.951 . S
C693 C687 1.265 . S
C693 H688 0.950 . S
C693 C694 1.478 . S
C694 C693 1.478 . S
C694 C695 1.397 . S
C694 C711 1.394 . S
C695 C694 1.397 . S
C695 C696 1.438 . S
C695 C700 1.429 . S
C696 C695 1.438 . S
C696 C697 1.428 . S
C696 C709 1.394 . S
C697 H689 0.949 . S
C697 C696 1.428 . S
C697 C698 1.345 . S
C698 H690 0.950 . S
C698 C697 1.345 . S
C698 C699 1.424 . S
C699 H691 0.951 . S
C699 C698 1.424 . S
C699 C700 1.347 . S
C700 H692 0.951 . S
C700 C695 1.429 . S
C700 C699 1.347 . S
H701 C702 0.951 . S
C702 H701 0.951 . S
C702 C708 1.265 . S
H703 C708 0.950 . S
H704 C712 0.949 . S
H705 C713 0.950 . S
H706 C714 0.951 . S
H707 C715 0.951 . S
C708 C702 1.265 . S
C708 H703 0.950 . S
C708 C709 1.478 . S
C709 C696 1.394 . S
C709 C708 1.478 . S
C709 C710 1.397 . S
C710 C709 1.397 . S
C710 C711 1.438 . S
C710 C715 1.429 . S
C711 C694 1.394 . S
C711 C710 1.438 . S
C711 C712 1.428 . S
C712 H704 0.949 . S
C712 C711 1.428 . S
C712 C713 1.345 . S
C713 H705 0.950 . S
C713 C712 1.345 . S
C713 C714 1.424 . S
C714 H706 0.951 . S
C714 C713 1.424 . S
C714 C715 1.347 . S
C715 H707 0.951 . S
C715 C710 1.429 . S
C715 C714 1.347 . S
H716 C717 0.951 . S
C717 H716 0.951 . S
C717 C723 1.265 . S
H718 C723 0.950 . S
H719 C727 0.949 . S
H720 C728 0.950 . S
H721 C729 0.951 . S
H722 C730 0.951 . S
C723 C717 1.265 . S
C723 H718 0.950 . S
C723 C724 1.478 . S
C724 C723 1.478 . S
C724 C725 1.397 . S
C724 C741 1.394 . S
C725 C724 1.397 . S
C725 C726 1.438 . S
C725 C730 1.429 . S
C726 C725 1.438 . S
C726 C727 1.428 . S
C726 C739 1.394 . S
C727 H719 0.949 . S
C727 C726 1.428 . S
C727 C728 1.345 . S
C728 H720 0.950 . S
C728 C727 1.345 . S
C728 C729 1.424 . S
C729 H721 0.951 . S
C729 C728 1.424 . S
C729 C730 1.347 . S
C730 H722 0.951 . S
C730 C725 1.429 . S
C730 C729 1.347 . S
H731 C732 0.951 . S
C732 H731 0.951 . S
C732 C738 1.265 . S
H733 C738 0.950 . S
H734 C742 0.949 . S
H735 C743 0.950 . S
H736 C744 0.951 . S
H737 C745 0.951 . S
C738 C732 1.265 . S
C738 H733 0.950 . S
C738 C739 1.478 . S
C739 C726 1.394 . S
C739 C738 1.478 . S
C739 C740 1.397 . S
C740 C739 1.397 . S
C740 C741 1.438 . S
C740 C745 1.429 . S
C741 C724 1.394 . S
C741 C740 1.438 . S
C741 C742 1.428 . S
C742 H734 0.949 . S
C742 C741 1.428 . S
C742 C743 1.345 . S
C743 H735 0.950 . S
C743 C742 1.345 . S
C743 C744 1.424 . S
C744 H736 0.951 . S
C744 C743 1.424 . S
C744 C745 1.347 . S
C745 H737 0.951 . S
C745 C740 1.429 . S
C745 C744 1.347 . S
H746 C747 0.951 . S
C747 H746 0.951 . S
C747 C753 1.265 . S
H748 C753 0.950 . S
H749 C757 0.949 . S
H750 C758 0.950 . S
H751 C759 0.951 . S
H752 C760 0.951 . S
C753 C747 1.265 . S
C753 H748 0.950 . S
C753 C754 1.478 . S
C754 C753 1.478 . S
C754 C755 1.397 . S
C754 C771 1.394 . S
C755 C754 1.397 . S
C755 C756 1.438 . S
C755 C760 1.429 . S
C756 C755 1.438 . S
C756 C757 1.428 . S
C756 C769 1.394 . S
C757 H749 0.949 . S
C757 C756 1.428 . S
C757 C758 1.345 . S
C758 H750 0.950 . S
C758 C757 1.345 . S
C758 C759 1.424 . S
C759 H751 0.951 . S
C759 C758 1.424 . S
C759 C760 1.347 . S
C760 H752 0.951 . S
C760 C755 1.429 . S
C760 C759 1.347 . S
H761 C762 0.951 . S
C762 H761 0.951 . S
C762 C768 1.265 . S
H763 C768 0.950 . S
H764 C772 0.949 . S
H765 C773 0.950 . S
H766 C774 0.951 . S
H767 C775 0.951 . S
C768 C762 1.265 . S
C768 H763 0.950 . S
C768 C769 1.478 . S
C769 C756 1.394 . S
C769 C768 1.478 . S
C769 C770 1.397 . S
C770 C769 1.397 . S
C770 C771 1.438 . S
C770 C775 1.429 . S
C771 C754 1.394 . S
C771 C770 1.438 . S
C771 C772 1.428 . S
C772 H764 0.949 . S
C772 C771 1.428 . S
C772 C773 1.345 . S
C773 H765 0.950 . S
C773 C772 1.345 . S
C773 C774 1.424 . S
C774 H766 0.951 . S
C774 C773 1.424 . S
C774 C775 1.347 . S
C775 H767 0.951 . S
C775 C770 1.429 . S
C775 C774 1.347 . S
H776 C777 0.951 . S
C777 H776 0.951 . S
C777 C783 1.265 . S
H778 C783 0.950 . S
H779 C787 0.949 . S
H780 C788 0.950 . S
H781 C789 0.951 . S
H782 C790 0.951 . S
C783 C777 1.265 . S
C783 H778 0.950 . S
C783 C784 1.478 . S
C784 C783 1.478 . S
C784 C785 1.397 . S
C784 C801 1.394 . S
C785 C784 1.397 . S
C785 C786 1.438 . S
C785 C790 1.429 . S
C786 C785 1.438 . S
C786 C787 1.428 . S
C786 C799 1.394 . S
C787 H779 0.949 . S
C787 C786 1.428 . S
C787 C788 1.345 . S
C788 H780 0.950 . S
C788 C787 1.345 . S
C788 C789 1.424 . S
C789 H781 0.951 . S
C789 C788 1.424 . S
C789 C790 1.347 . S
C790 H782 0.951 . S
C790 C785 1.429 . S
C790 C789 1.347 . S
H791 C792 0.951 . S
C792 H791 0.951 . S
C792 C798 1.265 . S
H793 C798 0.950 . S
H794 C802 0.949 . S
H795 C803 0.950 . S
H796 C804 0.951 . S
H797 C805 0.951 . S
C798 C792 1.265 . S
C798 H793 0.950 . S
C798 C799 1.478 . S
C799 C786 1.394 . S
C799 C798 1.478 . S
C799 C800 1.397 . S
C800 C799 1.397 . S
C800 C801 1.438 . S
C800 C805 1.429 . S
C801 C784 1.394 . S
C801 C800 1.438 . S
C801 C802 1.428 . S
C802 H794 0.949 . S
C802 C801 1.428 . S
C802 C803 1.345 . S
C803 H795 0.950 . S
C803 C802 1.345 . S
C803 C804 1.424 . S
C804 H796 0.951 . S
C804 C803 1.424 . S
C804 C805 1.347 . S
C805 H797 0.951 . S
C805 C800 1.429 . S
C805 C804 1.347 . S
H806 C807 0.951 . S
C807 H806 0.951 . S
C807 C813 1.265 . S
H808 C813 0.950 . S
H809 C817 0.949 . S
H810 C818 0.950 . S
H811 C819 0.951 . S
H812 C820 0.951 . S
C813 C807 1.265 . S
C813 H808 0.950 . S
C813 C814 1.478 . S
C814 C813 1.478 . S
C814 C815 1.397 . S
C814 C831 1.394 . S
C815 C814 1.397 . S
C815 C816 1.438 . S
C815 C820 1.429 . S
C816 C815 1.438 . S
C816 C817 1.428 . S
C816 C829 1.394 . S
C817 H809 0.949 . S
C817 C816 1.428 . S
C817 C818 1.345 . S
C818 H810 0.950 . S
C818 C817 1.345 . S
C818 C819 1.424 . S
C819 H811 0.951 . S
C819 C818 1.424 . S
C819 C820 1.347 . S
C820 H812 0.951 . S
C820 C815 1.429 . S
C820 C819 1.347 . S
H821 C822 0.951 . S
C822 H821 0.951 . S
C822 C828 1.265 . S
H823 C828 0.950 . S
H824 C832 0.949 . S
H825 C833 0.950 . S
H826 C834 0.951 . S
H827 C835 0.951 . S
C828 C822 1.265 . S
C828 H823 0.950 . S
C828 C829 1.478 . S
C829 C816 1.394 . S
C829 C828 1.478 . S
C829 C830 1.397 . S
C830 C829 1.397 . S
C830 C831 1.438 . S
C830 C835 1.429 . S
C831 C814 1.394 . S
C831 C830 1.438 . S
C831 C832 1.428 . S
C832 H824 0.949 . S
C832 C831 1.428 . S
C832 C833 1.345 . S
C833 H825 0.950 . S
C833 C832 1.345 . S
C833 C834 1.424 . S
C834 H826 0.951 . S
C834 C833 1.424 . S
C834 C835 1.347 . S
C835 H827 0.951 . S
C835 C830 1.429 . S
C835 C834 1.347 . S
H836 C837 0.951 . S
C837 H836 0.951 . S
C837 C843 1.265 . S
H838 C843 0.950 . S
H839 C847 0.949 . S
H840 C848 0.950 . S
H841 C849 0.951 . S
H842 C850 0.951 . S
C843 C837 1.265 . S
C843 H838 0.950 . S
C843 C844 1.478 . S
C844 C843 1.478 . S
C844 C845 1.397 . S
C844 C861 1.394 . S
C845 C844 1.397 . S
C845 C846 1.438 . S
C845 C850 1.429 . S
C846 C845 1.438 . S
C846 C847 1.428 . S
C846 C859 1.394 . S
C847 H839 0.949 . S
C847 C846 1.428 . S
C847 C848 1.345 . S
C848 H840 0.950 . S
C848 C847 1.345 . S
C848 C849 1.424 . S
C849 H841 0.951 . S
C849 C848 1.424 . S
C849 C850 1.347 . S
C850 H842 0.951 . S
C850 C845 1.429 . S
C850 C849 1.347 . S
H851 C852 0.951 . S
C852 H851 0.951 . S
C852 C858 1.265 . S
H853 C858 0.950 . S
H854 C862 0.949 . S
H855 C863 0.950 . S
H856 C864 0.951 . S
H857 C865 0.951 . S
C858 C852 1.265 . S
C858 H853 0.950 . S
C858 C859 1.478 . S
C859 C846 1.394 . S
C859 C858 1.478 . S
C859 C860 1.397 . S
C860 C859 1.397 . S
C860 C861 1.438 . S
C860 C865 1.429 . S
C861 C844 1.394 . S
C861 C860 1.438 . S
C861 C862 1.428 . S
C862 H854 0.949 . S
C862 C861 1.428 . S
C862 C863 1.345 . S
C863 H855 0.950 . S
C863 C862 1.345 . S
C863 C864 1.424 . S
C864 H856 0.951 . S
C864 C863 1.424 . S
C864 C865 1.347 . S
C865 H857 0.951 . S
C865 C860 1.429 . S
C865 C864 1.347 . S
H866 C867 0.951 . S
C867 H866 0.951 . S
C867 C873 1.265 . S
H868 C873 0.950 . S
H869 C877 0.949 . S
H870 C878 0.950 . S
H871 C879 0.951 . S
H872 C880 0.951 . S
C873 C867 1.265 . S
C873 H868 0.950 . S
C873 C874 1.478 . S
C874 C873 1.478 . S
C874 C875 1.397 . S
C874 C891 1.394 . S
C875 C874 1.397 . S
C875 C876 1.438 . S
C875 C880 1.429 . S
C876 C875 1.438 . S
C876 C877 1.428 . S
C876 C889 1.394 . S
C877 H869 0.949 . S
C877 C876 1.428 . S
C877 C878 1.345 . S
C878 H870 0.950 . S
C878 C877 1.345 . S
C878 C879 1.424 . S
C879 H871 0.951 . S
C879 C878 1.424 . S
C879 C880 1.347 . S
C880 H872 0.951 . S
C880 C875 1.429 . S
C880 C879 1.347 . S
H881 C882 0.951 . S
C882 H881 0.951 . S
C882 C888 1.265 . S
H883 C888 0.950 . S
H884 C892 0.949 . S
H885 C893 0.950 . S
H886 C894 0.951 . S
H887 C895 0.951 . S
C888 C882 1.265 . S
C888 H883 0.950 . S
C888 C889 1.478 . S
C889 C876 1.394 . S
C889 C888 1.478 . S
C889 C890 1.397 . S
C890 C889 1.397 . S
C890 C891 1.438 . S
C890 C895 1.429 . S
C891 C874 1.394 . S
C891 C890 1.438 . S
C891 C892 1.428 . S
C892 H884 0.949 . S
C892 C891 1.428 . S
C892 C893 1.345 . S
C893 H885 0.950 . S
C893 C892 1.345 . S
C893 C894 1.424 . S
C894 H886 0.951 . S
C894 C893 1.424 . S
C894 C895 1.347 . S
C895 H887 0.951 . S
C895 C890 1.429 . S
C895 C894 1.347 . S
C177 C136 1.389 . S
C192 C8 1.387 . S
C207 C30 1.409 . S
C222 C158 1.431 . S
C237 C92 1.448 . S
C252 C53 1.444 . S
C267 C74 1.418 . S
C282 C114 1.394 . S
C297 C96 1.388 . S
C312 C50 1.391 . S
C327 C70 1.428 . S
C342 C118 1.448 . S
C357 C140 1.447 . S
C372 C4 1.449 . S
C387 C26 1.422 . S
C402 C162 1.400 . S
C417 C27 1.387 . S
C432 C119 1.395 . S
C447 C141 1.406 . S
C462 C48 1.432 . S
C477 C163 1.392 . S
C492 C71 1.389 . S
C507 C5 1.390 . S
C522 C97 1.410 . S
C537 C73 1.448 . S
C552 C160 1.444 . S
C567 C94 1.425 . S
C582 C7 1.400 . S
C597 C29 1.447 . S
C612 C116 1.445 . S
C627 C52 1.422 . S
C642 C138 1.441 . S
C657 C159 1.211 . S
C672 C9 1.209 . S
C687 C31 1.160 . S
C702 C93 1.159 . S
C717 C51 1.182 . S
C732 C115 1.181 . S
C747 C137 1.212 . S
C762 C75 1.210 . S
C777 C117 1.161 . S
C792 C49 1.163 . S
C807 C139 1.205 . S
C822 C72 1.207 . S
C837 C161 1.173 . S
C852 C6 1.175 . S
C867 C95 1.171 . S
C882 C28 1.173 . S
