# Generated by pormake.
# Topology zni, (4)-cn, num edge types: 1
# Building blocks:
#     Node 0, Type 0, BuildingBlock: QUQFOY_clean_sbu_1, # of connection points: 4
#     Node 1, Type 0, BuildingBlock: QUQFOY_clean_sbu_1, # of connection points: 4
#     Node 2, Type 0, BuildingBlock: QUQFOY_clean_sbu_1, # of connection points: 4
#     Node 3, Type 0, BuildingBlock: QUQFOY_clean_sbu_1, # of connection points: 4
#     Node 4, Type 0, BuildingBlock: QUQFOY_clean_sbu_1, # of connection points: 4
#     Node 5, Type 0, BuildingBlock: QUQFOY_clean_sbu_1, # of connection points: 4
#     Node 6, Type 0, BuildingBlock: QUQFOY_clean_sbu_1, # of connection points: 4
#     Node 7, Type 0, BuildingBlock: QUQFOY_clean_sbu_1, # of connection points: 4
#     Node 8, Type 0, BuildingBlock: QUQFOY_clean_sbu_1, # of connection points: 4
#     Node 9, Type 0, BuildingBlock: QUQFOY_clean_sbu_1, # of connection points: 4
#     Node 10, Type 0, BuildingBlock: QUQFOY_clean_sbu_1, # of connection points: 4
#     Node 11, Type 0, BuildingBlock: QUQFOY_clean_sbu_1, # of connection points: 4
#     Node 12, Type 0, BuildingBlock: QUQFOY_clean_sbu_1, # of connection points: 4
#     Node 13, Type 0, BuildingBlock: QUQFOY_clean_sbu_1, # of connection points: 4
#     Node 14, Type 0, BuildingBlock: QUQFOY_clean_sbu_1, # of connection points: 4
#     Node 15, Type 0, BuildingBlock: QUQFOY_clean_sbu_1, # of connection points: 4
#     Node 16, Type 0, BuildingBlock: QUQFOY_clean_sbu_1, # of connection points: 4
#     Node 17, Type 0, BuildingBlock: QUQFOY_clean_sbu_1, # of connection points: 4
#     Node 18, Type 0, BuildingBlock: QUQFOY_clean_sbu_1, # of connection points: 4
#     Node 19, Type 0, BuildingBlock: QUQFOY_clean_sbu_1, # of connection points: 4
#     Node 20, Type 0, BuildingBlock: QUQFOY_clean_sbu_1, # of connection points: 4
#     Node 21, Type 0, BuildingBlock: QUQFOY_clean_sbu_1, # of connection points: 4
#     Node 22, Type 0, BuildingBlock: QUQFOY_clean_sbu_1, # of connection points: 4
#     Node 23, Type 0, BuildingBlock: QUQFOY_clean_sbu_1, # of connection points: 4
#     Node 24, Type 0, BuildingBlock: QUQFOY_clean_sbu_1, # of connection points: 4
#     Node 25, Type 0, BuildingBlock: QUQFOY_clean_sbu_1, # of connection points: 4
#     Node 26, Type 0, BuildingBlock: QUQFOY_clean_sbu_1, # of connection points: 4
#     Node 27, Type 0, BuildingBlock: QUQFOY_clean_sbu_1, # of connection points: 4
#     Node 28, Type 0, BuildingBlock: QUQFOY_clean_sbu_1, # of connection points: 4
#     Node 29, Type 0, BuildingBlock: QUQFOY_clean_sbu_1, # of connection points: 4
#     Node 30, Type 0, BuildingBlock: QUQFOY_clean_sbu_1, # of connection points: 4
#     Node 31, Type 0, BuildingBlock: QUQFOY_clean_sbu_1, # of connection points: 4
#     Edge 32, Type (0, 0), BuildingBlock: KIFKEQ_clean_linker_1, # of connection points: 2
#     Edge 33, Type (0, 0), BuildingBlock: KIFKEQ_clean_linker_1, # of connection points: 2
#     Edge 34, Type (0, 0), BuildingBlock: KIFKEQ_clean_linker_1, # of connection points: 2
#     Edge 35, Type (0, 0), BuildingBlock: KIFKEQ_clean_linker_1, # of connection points: 2
#     Edge 36, Type (0, 0), BuildingBlock: KIFKEQ_clean_linker_1, # of connection points: 2
#     Edge 37, Type (0, 0), BuildingBlock: KIFKEQ_clean_linker_1, # of connection points: 2
#     Edge 38, Type (0, 0), BuildingBlock: KIFKEQ_clean_linker_1, # of connection points: 2
#     Edge 39, Type (0, 0), BuildingBlock: KIFKEQ_clean_linker_1, # of connection points: 2
#     Edge 40, Type (0, 0), BuildingBlock: KIFKEQ_clean_linker_1, # of connection points: 2
#     Edge 41, Type (0, 0), BuildingBlock: KIFKEQ_clean_linker_1, # of connection points: 2
#     Edge 42, Type (0, 0), BuildingBlock: KIFKEQ_clean_linker_1, # of connection points: 2
#     Edge 43, Type (0, 0), BuildingBlock: KIFKEQ_clean_linker_1, # of connection points: 2
#     Edge 44, Type (0, 0), BuildingBlock: KIFKEQ_clean_linker_1, # of connection points: 2
#     Edge 45, Type (0, 0), BuildingBlock: KIFKEQ_clean_linker_1, # of connection points: 2
#     Edge 46, Type (0, 0), BuildingBlock: KIFKEQ_clean_linker_1, # of connection points: 2
#     Edge 47, Type (0, 0), BuildingBlock: KIFKEQ_clean_linker_1, # of connection points: 2
#     Edge 48, Type (0, 0), BuildingBlock: KIFKEQ_clean_linker_1, # of connection points: 2
#     Edge 49, Type (0, 0), BuildingBlock: KIFKEQ_clean_linker_1, # of connection points: 2
#     Edge 50, Type (0, 0), BuildingBlock: KIFKEQ_clean_linker_1, # of connection points: 2
#     Edge 51, Type (0, 0), BuildingBlock: KIFKEQ_clean_linker_1, # of connection points: 2
#     Edge 52, Type (0, 0), BuildingBlock: KIFKEQ_clean_linker_1, # of connection points: 2
#     Edge 53, Type (0, 0), BuildingBlock: KIFKEQ_clean_linker_1, # of connection points: 2
#     Edge 54, Type (0, 0), BuildingBlock: KIFKEQ_clean_linker_1, # of connection points: 2
#     Edge 55, Type (0, 0), BuildingBlock: KIFKEQ_clean_linker_1, # of connection points: 2
#     Edge 56, Type (0, 0), BuildingBlock: KIFKEQ_clean_linker_1, # of connection points: 2
#     Edge 57, Type (0, 0), BuildingBlock: KIFKEQ_clean_linker_1, # of connection points: 2
#     Edge 58, Type (0, 0), BuildingBlock: KIFKEQ_clean_linker_1, # of connection points: 2
#     Edge 59, Type (0, 0), BuildingBlock: KIFKEQ_clean_linker_1, # of connection points: 2
#     Edge 60, Type (0, 0), BuildingBlock: KIFKEQ_clean_linker_1, # of connection points: 2
#     Edge 61, Type (0, 0), BuildingBlock: KIFKEQ_clean_linker_1, # of connection points: 2
#     Edge 62, Type (0, 0), BuildingBlock: KIFKEQ_clean_linker_1, # of connection points: 2
#     Edge 63, Type (0, 0), BuildingBlock: KIFKEQ_clean_linker_1, # of connection points: 2
#     Edge 64, Type (0, 0), BuildingBlock: KIFKEQ_clean_linker_1, # of connection points: 2
#     Edge 65, Type (0, 0), BuildingBlock: KIFKEQ_clean_linker_1, # of connection points: 2
#     Edge 66, Type (0, 0), BuildingBlock: KIFKEQ_clean_linker_1, # of connection points: 2
#     Edge 67, Type (0, 0), BuildingBlock: KIFKEQ_clean_linker_1, # of connection points: 2
#     Edge 68, Type (0, 0), BuildingBlock: KIFKEQ_clean_linker_1, # of connection points: 2
#     Edge 69, Type (0, 0), BuildingBlock: KIFKEQ_clean_linker_1, # of connection points: 2
#     Edge 70, Type (0, 0), BuildingBlock: KIFKEQ_clean_linker_1, # of connection points: 2
#     Edge 71, Type (0, 0), BuildingBlock: KIFKEQ_clean_linker_1, # of connection points: 2
#     Edge 72, Type (0, 0), BuildingBlock: KIFKEQ_clean_linker_1, # of connection points: 2
#     Edge 73, Type (0, 0), BuildingBlock: KIFKEQ_clean_linker_1, # of connection points: 2
#     Edge 74, Type (0, 0), BuildingBlock: KIFKEQ_clean_linker_1, # of connection points: 2
#     Edge 75, Type (0, 0), BuildingBlock: KIFKEQ_clean_linker_1, # of connection points: 2
#     Edge 76, Type (0, 0), BuildingBlock: KIFKEQ_clean_linker_1, # of connection points: 2
#     Edge 77, Type (0, 0), BuildingBlock: KIFKEQ_clean_linker_1, # of connection points: 2
#     Edge 78, Type (0, 0), BuildingBlock: KIFKEQ_clean_linker_1, # of connection points: 2
#     Edge 79, Type (0, 0), BuildingBlock: KIFKEQ_clean_linker_1, # of connection points: 2
#     Edge 80, Type (0, 0), BuildingBlock: KIFKEQ_clean_linker_1, # of connection points: 2
#     Edge 81, Type (0, 0), BuildingBlock: KIFKEQ_clean_linker_1, # of connection points: 2
#     Edge 82, Type (0, 0), BuildingBlock: KIFKEQ_clean_linker_1, # of connection points: 2
#     Edge 83, Type (0, 0), BuildingBlock: KIFKEQ_clean_linker_1, # of connection points: 2
#     Edge 84, Type (0, 0), BuildingBlock: KIFKEQ_clean_linker_1, # of connection points: 2
#     Edge 85, Type (0, 0), BuildingBlock: KIFKEQ_clean_linker_1, # of connection points: 2
#     Edge 86, Type (0, 0), BuildingBlock: KIFKEQ_clean_linker_1, # of connection points: 2
#     Edge 87, Type (0, 0), BuildingBlock: KIFKEQ_clean_linker_1, # of connection points: 2
#     Edge 88, Type (0, 0), BuildingBlock: KIFKEQ_clean_linker_1, # of connection points: 2
#     Edge 89, Type (0, 0), BuildingBlock: KIFKEQ_clean_linker_1, # of connection points: 2
#     Edge 90, Type (0, 0), BuildingBlock: KIFKEQ_clean_linker_1, # of connection points: 2
#     Edge 91, Type (0, 0), BuildingBlock: KIFKEQ_clean_linker_1, # of connection points: 2
#     Edge 92, Type (0, 0), BuildingBlock: KIFKEQ_clean_linker_1, # of connection points: 2
#     Edge 93, Type (0, 0), BuildingBlock: KIFKEQ_clean_linker_1, # of connection points: 2
#     Edge 94, Type (0, 0), BuildingBlock: KIFKEQ_clean_linker_1, # of connection points: 2
#     Edge 95, Type (0, 0), BuildingBlock: KIFKEQ_clean_linker_1, # of connection points: 2
# Relax obj value: 0.190
# Max RMSD: 0.171
# Mean RMSD: 0.171
data_MOF--net-zni--node1-QUQFOY_clean_sbu_1--edge1-KIFKEQ_clean_linker_1
_symmetry_space_group_name_H-M    P1
_symmetry_Int_Tables_number       1
_symmetry_cell_setting            triclinic
loop_
_symmetry_equiv_pos_as_xyz
'x, y, z'
_cell_length_a     60.875096
_cell_length_b     60.89861
_cell_length_c     34.823478
_cell_angle_alpha  90.01124
_cell_angle_beta   89.996465
_cell_angle_gamma 89.998772
loop_
_atom_site_label
_atom_site_type_symbol
_atom_site_fract_x
_atom_site_fract_y
_atom_site_fract_z
_atom_type_partial_charge
O0 O 0.06948 0.10082 0.36201 0.0
Cd1 Cd 0.10334 0.09986 0.35774 0.0
Cd2 Cd 0.09892 0.10349 0.43614 0.0
O3 O 0.06723 0.09374 0.42391 0.0
O4 O 0.1091 0.08786 0.30541 0.0
O5 O 0.11824 0.07033 0.35868 0.0
C6 C 0.11708 0.07057 0.32161 0.0
C7 C 0.11469 0.09314 0.49469 0.0
C8 C 0.05802 0.0963 0.39149 0.0
C9 C 0.11749 0.14197 0.39155 0.0
O10 O 0.10773 0.13511 0.4215 0.0
O11 O 0.11992 0.12936 0.36275 0.0
O12 O 0.09762 0.10552 0.49312 0.0
O13 O 0.1225 0.08558 0.46287 0.0
O14 O 0.15265 0.81546 0.61957 0.0
Cd15 Cd 0.15259 0.84932 0.6152 0.0
Cd16 Cd 0.14843 0.84533 0.69215 0.0
O17 O 0.15806 0.81337 0.68196 0.0
O18 O 0.16469 0.85527 0.56306 0.0
O19 O 0.1816 0.86519 0.61653 0.0
C20 C 0.18159 0.86392 0.57947 0.0
C21 C 0.16068 0.86385 0.74678 0.0
C22 C 0.15649 0.80407 0.64942 0.0
C23 C 0.10979 0.86288 0.64765 0.0
O24 O 0.11656 0.85359 0.67812 0.0
O25 O 0.12259 0.86508 0.61906 0.0
O26 O 0.14833 0.84676 0.74914 0.0
O27 O 0.16713 0.87006 0.71318 0.0
O28 O 0.43335 0.90125 0.86864 0.0
Cd29 Cd 0.39945 0.90222 0.8643 0.0
Cd30 Cd 0.40318 0.89517 0.94266 0.0
O31 O 0.43561 0.9026 0.93184 0.0
O32 O 0.39315 0.91489 0.81257 0.0
O33 O 0.38529 0.9321 0.86685 0.0
C34 C 0.38575 0.93212 0.82974 0.0
C35 C 0.38728 0.90606 0.00075 0.0
C36 C 0.44482 0.90263 0.89909 0.0
C37 C 0.3836 0.85907 0.89414 0.0
O38 O 0.39259 0.86462 0.9256 0.0
O39 O 0.38265 0.87259 0.86634 0.0
O40 O 0.40337 0.89241 0.99957 0.0
O41 O 0.38053 0.91447 0.96885 0.0
O42 O 0.34807 0.18669 0.11887 0.0
Cd43 Cd 0.34957 0.15315 0.11028 0.0
Cd44 Cd 0.35266 0.15412 0.18915 0.0
O45 O 0.3425 0.18615 0.18137 0.0
O46 O 0.3374 0.14853 0.05772 0.0
O47 O 0.3212 0.13614 0.11029 0.0
C48 C 0.3209 0.13874 0.07343 0.0
C49 C 0.34189 0.13556 0.2449 0.0
C50 C 0.34382 0.19672 0.15002 0.0
C51 C 0.39236 0.13953 0.14268 0.0
O52 O 0.38457 0.14662 0.1742 0.0
O53 O 0.38033 0.13871 0.11286 0.0
O54 O 0.35407 0.15277 0.24617 0.0
O55 O 0.33483 0.12911 0.21183 0.0
O56 O 0.0674 0.90461 0.12207 0.0
Cd57 Cd 0.10101 0.90382 0.12933 0.0
Cd58 Cd 0.09937 0.89861 0.0495 0.0
O59 O 0.06629 0.90429 0.05873 0.0
O60 O 0.10569 0.91606 0.18179 0.0
O61 O 0.11753 0.93252 0.12912 0.0
C62 C 0.11516 0.93271 0.16602 0.0
C63 C 0.11556 0.91107 0.99268 0.0
C64 C 0.05652 0.90523 0.09094 0.0
C65 C 0.11799 0.86143 0.09779 0.0
O66 O 0.11157 0.86843 0.06532 0.0
O67 O 0.11617 0.87335 0.12763 0.0
O68 O 0.10016 0.89664 0.99255 0.0
O69 O 0.12136 0.91942 0.0252 0.0
O70 O 0.34964 0.81795 0.38637 0.0
Cd71 Cd 0.34936 0.85183 0.39037 0.0
Cd72 Cd 0.35632 0.84728 0.3121 0.0
O73 O 0.3489 0.81487 0.3233 0.0
O74 O 0.33695 0.85733 0.44245 0.0
O75 O 0.32011 0.86736 0.38903 0.0
C76 C 0.31999 0.86584 0.42605 0.0
C77 C 0.34515 0.86314 0.25417 0.0
C78 C 0.34846 0.8061 0.35638 0.0
C79 C 0.39267 0.8669 0.36037 0.0
O80 O 0.38689 0.85798 0.32898 0.0
O81 O 0.37932 0.86795 0.38842 0.0
O82 O 0.35884 0.84707 0.25516 0.0
O83 O 0.33685 0.86986 0.28619 0.0
O84 O 0.43593 0.09382 0.62267 0.0
Cd85 Cd 0.40207 0.09473 0.6277 0.0
Cd86 Cd 0.40569 0.10026 0.54898 0.0
O87 O 0.43794 0.09196 0.55946 0.0
O88 O 0.39548 0.08285 0.6799 0.0
O89 O 0.38647 0.06559 0.62622 0.0
C90 C 0.38722 0.06582 0.66332 0.0
C91 C 0.38878 0.08883 0.4921 0.0
C92 C 0.44721 0.09172 0.59213 0.0
C93 C 0.38797 0.13804 0.59583 0.0
O94 O 0.39632 0.13145 0.56446 0.0
O95 O 0.3868 0.12518 0.62455 0.0
O96 O 0.40538 0.10189 0.49195 0.0
O97 O 0.38213 0.08126 0.5247 0.0
O98 O 0.15043 0.18316 0.88139 0.0
Cd99 Cd 0.15186 0.14933 0.88556 0.0
Cd100 Cd 0.14642 0.15373 0.8073 0.0
O101 O 0.15515 0.1858 0.81884 0.0
O102 O 0.16465 0.14387 0.93744 0.0
O103 O 0.18159 0.13477 0.88358 0.0
C104 C 0.18183 0.13605 0.92064 0.0
C105 C 0.15681 0.13801 0.74874 0.0
C106 C 0.15354 0.19483 0.85161 0.0
C107 C 0.10923 0.13435 0.85426 0.0
O108 O 0.11537 0.14389 0.82363 0.0
O109 O 0.12236 0.1325 0.88247 0.0
O110 O 0.14372 0.15454 0.75038 0.0
O111 O 0.16499 0.13072 0.78046 0.0
O112 O 0.93636 0.89388 0.6577 0.0
Cd113 Cd 0.90258 0.89509 0.65899 0.0
Cd114 Cd 0.90665 0.89143 0.57878 0.0
O115 O 0.9391 0.89604 0.59463 0.0
O116 O 0.89369 0.91029 0.70715 0.0
O117 O 0.88887 0.92446 0.64906 0.0
C118 C 0.88742 0.92652 0.68596 0.0
C119 C 0.89826 0.90112 0.51521 0.0
C120 C 0.94806 0.89533 0.62759 0.0
C121 C 0.88426 0.85459 0.62409 0.0
O122 O 0.89178 0.86208 0.59271 0.0
O123 O 0.886 0.8656 0.65496 0.0
O124 O 0.91207 0.88593 0.52347 0.0
O125 O 0.88931 0.91168 0.54323 0.0
O126 O 0.85641 0.18124 0.39809 0.0
Cd127 Cd 0.8554 0.14779 0.40615 0.0
Cd128 Cd 0.86209 0.14837 0.32333 0.0
O129 O 0.85542 0.18114 0.33472 0.0
O130 O 0.84063 0.14332 0.45653 0.0
O131 O 0.82634 0.13233 0.40131 0.0
C132 C 0.82454 0.13441 0.43814 0.0
C133 C 0.85791 0.13864 0.25838 0.0
C134 C 0.85519 0.19151 0.36641 0.0
C135 C 0.89675 0.12795 0.37788 0.0
O136 O 0.8903 0.13395 0.3448 0.0
O137 O 0.88491 0.13129 0.40734 0.0
O138 O 0.87232 0.15256 0.26978 0.0
O139 O 0.84499 0.13033 0.28387 0.0
O140 O 0.56491 0.11078 0.17384 0.0
Cd141 Cd 0.59788 0.11111 0.1866 0.0
Cd142 Cd 0.60072 0.12166 0.10395 0.0
O143 O 0.56713 0.11773 0.11167 0.0
O144 O 0.60099 0.09431 0.23533 0.0
O145 O 0.61515 0.0832 0.18009 0.0
C146 C 0.61159 0.0796 0.21616 0.0
C147 C 0.61152 0.12117 0.03904 0.0
C148 C 0.55574 0.11373 0.14148 0.0
C149 C 0.61972 0.15293 0.16605 0.0
O150 O 0.61691 0.14686 0.13152 0.0
O151 O 0.6127 0.14135 0.19379 0.0
O152 O 0.59976 0.13659 0.0534 0.0
O153 O 0.61686 0.10511 0.06128 0.0
O154 O 0.64833 0.81545 0.88977 0.0
Cd155 Cd 0.64817 0.8492 0.89674 0.0
Cd156 Cd 0.6403 0.84733 0.81717 0.0
O157 O 0.64768 0.81476 0.82646 0.0
O158 O 0.66263 0.85423 0.94729 0.0
O159 O 0.67695 0.86526 0.89219 0.0
C160 C 0.67866 0.86333 0.92905 0.0
C161 C 0.64831 0.86123 0.75599 0.0
C162 C 0.64897 0.80479 0.8584 0.0
C163 C 0.60484 0.86592 0.86982 0.0
O164 O 0.61055 0.85867 0.8371 0.0
O165 O 0.6181 0.86516 0.89801 0.0
O166 O 0.63417 0.84588 0.76125 0.0
O167 O 0.6587 0.86861 0.78558 0.0
O168 O 0.93588 0.10394 0.84871 0.0
Cd169 Cd 0.90195 0.10257 0.84742 0.0
Cd170 Cd 0.90705 0.10847 0.92675 0.0
O171 O 0.9391 0.10162 0.91168 0.0
O172 O 0.89351 0.0872 0.79915 0.0
O173 O 0.88835 0.07309 0.85714 0.0
C174 C 0.88716 0.07098 0.82024 0.0
C175 C 0.89742 0.10115 0.99079 0.0
C176 C 0.9478 0.10213 0.87853 0.0
C177 C 0.88518 0.14449 0.87907 0.0
O178 O 0.89421 0.13823 0.91005 0.0
O179 O 0.8848 0.13189 0.84998 0.0
O180 O 0.91224 0.11521 0.98172 0.0
O181 O 0.88825 0.09025 0.96338 0.0
O182 O 0.6497 0.18018 0.61579 0.0
Cd183 Cd 0.64944 0.1466 0.60688 0.0
Cd184 Cd 0.63677 0.14891 0.69015 0.0
O185 O 0.64315 0.18146 0.67822 0.0
O186 O 0.66433 0.143 0.55633 0.0
O187 O 0.67823 0.1304 0.61067 0.0
C188 C 0.6802 0.13335 0.57408 0.0
C189 C 0.63635 0.14077 0.75621 0.0
C190 C 0.64739 0.19106 0.64671 0.0
C191 C 0.60611 0.12751 0.62965 0.0
O192 O 0.61076 0.1338 0.66343 0.0
O193 O 0.61956 0.13047 0.60222 0.0
O194 O 0.62194 0.15314 0.74027 0.0
O195 O 0.65184 0.13313 0.73477 0.0
O196 O 0.56546 0.89774 0.36085 0.0
Cd197 Cd 0.5994 0.89847 0.35948 0.0
Cd198 Cd 0.59435 0.89218 0.43673 0.0
O199 O 0.56214 0.89949 0.42378 0.0
O200 O 0.60717 0.91444 0.31151 0.0
O201 O 0.6141 0.9274 0.36969 0.0
C202 C 0.61435 0.9302 0.33287 0.0
C203 C 0.6074 0.90218 0.4975 0.0
C204 C 0.55348 0.89941 0.3906 0.0
C205 C 0.61491 0.85569 0.3893 0.0
O206 O 0.60585 0.86177 0.42039 0.0
O207 O 0.61588 0.86872 0.36081 0.0
O208 O 0.5918 0.8882 0.49311 0.0
O209 O 0.61538 0.91139 0.46719 0.0
O210 O 0.85303 0.81902 0.11107 0.0
Cd211 Cd 0.8531 0.85238 0.10023 0.0
Cd212 Cd 0.86258 0.85252 0.18247 0.0
O213 O 0.85314 0.82027 0.17442 0.0
O214 O 0.83835 0.85536 0.04944 0.0
O215 O 0.82435 0.86866 0.10323 0.0
C216 C 0.82245 0.86525 0.06674 0.0
C217 C 0.86113 0.86424 0.24682 0.0
C218 C 0.85176 0.80939 0.14339 0.0
C219 C 0.89656 0.8698 0.12365 0.0
O220 O 0.89116 0.86368 0.15723 0.0
O221 O 0.88307 0.86811 0.09596 0.0
O222 O 0.87423 0.84912 0.23528 0.0
O223 O 0.84797 0.8727 0.22185 0.0
O224 O 0.56564 0.60194 0.84856 0.0
Cd225 Cd 0.59953 0.60124 0.84466 0.0
Cd226 Cd 0.59524 0.6082 0.92564 0.0
O227 O 0.56307 0.60115 0.91176 0.0
O228 O 0.60588 0.58679 0.79455 0.0
O229 O 0.61481 0.57213 0.85055 0.0
C230 C 0.61405 0.57054 0.81354 0.0
C231 C 0.6047 0.6028 0.99042 0.0
C232 C 0.55405 0.60081 0.87886 0.0
C233 C 0.61628 0.64365 0.87469 0.0
O234 O 0.60812 0.63746 0.90645 0.0
O235 O 0.61602 0.63097 0.84568 0.0
O236 O 0.59007 0.61671 0.97989 0.0
O237 O 0.61383 0.591 0.96413 0.0
O238 O 0.64108 0.32161 0.11064 0.0
Cd239 Cd 0.64078 0.35362 0.0918 0.0
Cd240 Cd 0.63266 0.36172 0.17114 0.0
O241 O 0.63627 0.32783 0.17254 0.0
O242 O 0.65729 0.35396 0.04243 0.0
O243 O 0.6688 0.37101 0.09486 0.0
C244 C 0.67217 0.36549 0.05948 0.0
C245 C 0.6406 0.37958 0.22908 0.0
C246 C 0.63926 0.31455 0.14484 0.0
C247 C 0.59887 0.37594 0.10997 0.0
O248 O 0.6055 0.37518 0.14452 0.0
O249 O 0.61045 0.36796 0.08302 0.0
O250 O 0.62319 0.36798 0.22458 0.0
O251 O 0.65422 0.38087 0.2008 0.0
O252 O 0.93488 0.39632 0.35102 0.0
Cd253 Cd 0.90138 0.39585 0.34331 0.0
Cd254 Cd 0.90151 0.38874 0.42514 0.0
O255 O 0.93451 0.39417 0.41427 0.0
O256 O 0.89585 0.41143 0.29405 0.0
O257 O 0.88491 0.42412 0.35052 0.0
C258 C 0.88664 0.42682 0.3138 0.0
C259 C 0.89177 0.39461 0.48961 0.0
C260 C 0.94501 0.39602 0.3829 0.0
C261 C 0.88194 0.35389 0.37081 0.0
O262 O 0.88688 0.36059 0.40427 0.0
O263 O 0.88608 0.36558 0.34145 0.0
O264 O 0.90523 0.37951 0.47931 0.0
O265 O 0.88367 0.40705 0.46321 0.0
O266 O 0.86178 0.68164 0.58597 0.0
Cd267 Cd 0.86032 0.64794 0.58057 0.0
Cd268 Cd 0.86655 0.6502 0.66284 0.0
O269 O 0.85821 0.68217 0.64908 0.0
O270 O 0.84392 0.64103 0.53256 0.0
O271 O 0.83107 0.63401 0.59089 0.0
C272 C 0.82816 0.63397 0.55409 0.0
C273 C 0.86389 0.64272 0.72905 0.0
C274 C 0.85895 0.69219 0.61709 0.0
C275 C 0.90186 0.62956 0.60966 0.0
O276 O 0.89531 0.63679 0.64189 0.0
O277 O 0.88963 0.63097 0.58022 0.0
O278 O 0.8779 0.65627 0.71514 0.0
O279 O 0.85052 0.63343 0.70534 0.0
O280 O 0.57291 0.39706 0.62798 0.0
Cd281 Cd 0.60606 0.39644 0.64082 0.0
Cd282 Cd 0.6077 0.38743 0.5606 0.0
O283 O 0.57417 0.39168 0.56527 0.0
O284 O 0.60804 0.41099 0.69196 0.0
O285 O 0.62276 0.425 0.63934 0.0
C286 C 0.61849 0.42684 0.67556 0.0
C287 C 0.62366 0.39598 0.50135 0.0
C288 C 0.56325 0.39511 0.59579 0.0
C289 C 0.62515 0.35338 0.61799 0.0
O290 O 0.62082 0.3594 0.58395 0.0
O291 O 0.6212 0.36607 0.64614 0.0
O292 O 0.61137 0.37905 0.5059 0.0
O293 O 0.62654 0.4089 0.53027 0.0
O294 O 0.85151 0.3159 0.89857 0.0
Cd295 Cd 0.85149 0.34956 0.90574 0.0
Cd296 Cd 0.85982 0.34802 0.8245 0.0
O297 O 0.85265 0.31549 0.83522 0.0
O298 O 0.83546 0.35498 0.9547 0.0
O299 O 0.82289 0.36548 0.89795 0.0
C300 C 0.81998 0.36381 0.93462 0.0
C301 C 0.85601 0.3583 0.75973 0.0
C302 C 0.85116 0.30539 0.86703 0.0
C303 C 0.8945 0.36709 0.87984 0.0
O304 O 0.88848 0.36067 0.84677 0.0
O305 O 0.88163 0.36531 0.90844 0.0
O306 O 0.87004 0.34396 0.77092 0.0
O307 O 0.84333 0.36684 0.78534 0.0
O308 O 0.93035 0.60665 0.14651 0.0
Cd309 Cd 0.89736 0.60607 0.15926 0.0
Cd310 Cd 0.89482 0.61762 0.07618 0.0
O311 O 0.92838 0.61387 0.08437 0.0
O312 O 0.89502 0.58961 0.20846 0.0
O313 O 0.88103 0.57753 0.15375 0.0
C314 C 0.88483 0.57439 0.18987 0.0
C315 C 0.88405 0.61797 0.01133 0.0
C316 C 0.93965 0.60986 0.11432 0.0
C317 C 0.87468 0.64764 0.13925 0.0
O318 O 0.8781 0.64216 0.1046 0.0
O319 O 0.88153 0.63576 0.16672 0.0
O320 O 0.89553 0.63339 0.02639 0.0
O321 O 0.87915 0.60137 0.03265 0.0
O322 O 0.64763 0.68316 0.39883 0.0
Cd323 Cd 0.64877 0.64929 0.40219 0.0
Cd324 Cd 0.63967 0.65306 0.3226 0.0
O325 O 0.64696 0.68531 0.33557 0.0
O326 O 0.66542 0.64182 0.44969 0.0
O327 O 0.67789 0.6352 0.39101 0.0
C328 C 0.68099 0.63481 0.42774 0.0
C329 C 0.6439 0.64312 0.25777 0.0
C330 C 0.64804 0.69455 0.36823 0.0
C331 C 0.60567 0.63209 0.37625 0.0
O332 O 0.61088 0.64021 0.34394 0.0
O333 O 0.61922 0.63248 0.40401 0.0
O334 O 0.63005 0.6577 0.26878 0.0
O335 O 0.6563 0.63434 0.28356 0.0
O336 O 0.427 0.39773 0.14355 0.0
Cd337 Cd 0.39439 0.39874 0.15905 0.0
Cd338 Cd 0.39052 0.38744 0.07392 0.0
O339 O 0.42405 0.39244 0.08088 0.0
O340 O 0.39397 0.41378 0.20986 0.0
O341 O 0.37853 0.42776 0.15783 0.0
C342 C 0.38343 0.42968 0.19379 0.0
C343 C 0.3793 0.38519 0.00944 0.0
C344 C 0.43577 0.39562 0.11062 0.0
C345 C 0.37094 0.35767 0.13876 0.0
O346 O 0.37427 0.36318 0.10408 0.0
O347 O 0.37805 0.3694 0.16622 0.0
O348 O 0.39123 0.37042 0.02539 0.0
O349 O 0.37425 0.40225 0.02949 0.0
O350 O 0.35233 0.68631 0.88917 0.0
Cd351 Cd 0.35098 0.65236 0.88899 0.0
Cd352 Cd 0.35672 0.65815 0.81301 0.0
O353 O 0.34945 0.6903 0.82647 0.0
O354 O 0.33581 0.64342 0.93725 0.0
O355 O 0.32133 0.63901 0.87937 0.0
C356 C 0.31939 0.63747 0.91626 0.0
C357 C 0.34391 0.6428 0.75581 0.0
C358 C 0.35022 0.69862 0.85991 0.0
C359 C 0.39356 0.63705 0.85722 0.0
O360 O 0.38767 0.64715 0.82701 0.0
O361 O 0.38037 0.63526 0.88537 0.0
O362 O 0.35754 0.65894 0.75598 0.0
O363 O 0.33656 0.63578 0.78833 0.0
O364 O 0.07375 0.60015 0.63165 0.0
Cd365 Cd 0.10679 0.60055 0.64427 0.0
Cd366 Cd 0.10814 0.61285 0.55999 0.0
O367 O 0.07504 0.60699 0.56933 0.0
O368 O 0.10863 0.58616 0.69554 0.0
O369 O 0.12322 0.57183 0.64307 0.0
C370 C 0.11899 0.5702 0.67933 0.0
C371 C 0.11778 0.61304 0.49449 0.0
C372 C 0.06416 0.60269 0.59956 0.0
C373 C 0.1278 0.64326 0.62278 0.0
O374 O 0.12365 0.63833 0.58809 0.0
O375 O 0.12229 0.63056 0.65008 0.0
O376 O 0.10501 0.62748 0.50937 0.0
O377 O 0.12507 0.59774 0.51669 0.0
O378 O 0.14715 0.31523 0.40785 0.0
Cd379 Cd 0.14851 0.34911 0.40931 0.0
Cd380 Cd 0.14448 0.34496 0.33086 0.0
O381 O 0.15147 0.31285 0.34515 0.0
O382 O 0.16462 0.35793 0.45661 0.0
O383 O 0.17783 0.36248 0.39774 0.0
C384 C 0.18056 0.36393 0.43451 0.0
C385 C 0.15373 0.35534 0.26805 0.0
C386 C 0.14998 0.3037 0.37782 0.0
C387 C 0.10701 0.36564 0.37633 0.0
O388 O 0.11397 0.35692 0.34552 0.0
O389 O 0.11914 0.36609 0.40603 0.0
O390 O 0.13972 0.34014 0.27519 0.0
O391 O 0.16334 0.36465 0.29675 0.0
O392 O 0.43381 0.60187 0.37459 0.0
Cd393 Cd 0.40001 0.60247 0.36851 0.0
Cd394 Cd 0.40269 0.6112 0.44616 0.0
O395 O 0.43527 0.60331 0.4378 0.0
O396 O 0.39477 0.58835 0.31774 0.0
O397 O 0.38375 0.57377 0.37262 0.0
C398 C 0.38563 0.57226 0.33573 0.0
C399 C 0.38564 0.60063 0.50332 0.0
C400 C 0.44485 0.60145 0.40557 0.0
C401 C 0.38451 0.6466 0.39424 0.0
O402 O 0.39232 0.64142 0.42684 0.0
O403 O 0.38443 0.63273 0.36693 0.0
O404 O 0.40155 0.61452 0.50288 0.0
O405 O 0.37962 0.59193 0.47121 0.0
O406 O 0.14215 0.68744 0.08034 0.0
Cd407 Cd 0.14371 0.65359 0.07947 0.0
Cd408 Cd 0.14058 0.65885 0.15832 0.0
O409 O 0.14915 0.69038 0.14222 0.0
O410 O 0.15872 0.64465 0.03109 0.0
O411 O 0.17329 0.64015 0.08893 0.0
C412 C 0.17514 0.6386 0.05202 0.0
C413 C 0.14943 0.64928 0.22179 0.0
C414 C 0.14653 0.69922 0.10949 0.0
C415 C 0.10234 0.6383 0.11396 0.0
O416 O 0.10961 0.64756 0.1441 0.0
O417 O 0.11435 0.63688 0.08421 0.0
O418 O 0.13588 0.66475 0.21377 0.0
O419 O 0.15878 0.63922 0.19359 0.0
O420 O 0.06629 0.39843 0.86617 0.0
Cd421 Cd 0.09954 0.39781 0.85496 0.0
Cd422 Cd 0.10042 0.38692 0.93737 0.0
O423 O 0.06714 0.39201 0.92861 0.0
O424 O 0.10273 0.41267 0.80436 0.0
O425 O 0.11653 0.42612 0.8582 0.0
C426 C 0.1132 0.42817 0.82171 0.0
C427 C 0.11182 0.38971 0.0017 0.0
C428 C 0.05643 0.39599 0.89805 0.0
C429 C 0.11996 0.3551 0.87734 0.0
O430 O 0.1156 0.36045 0.91175 0.0
O431 O 0.11482 0.36764 0.84959 0.0
O432 O 0.09858 0.37473 0.99003 0.0
O433 O 0.11836 0.40402 0.97692 0.0
O434 O 0.36046 0.31206 0.58785 0.0
Cd435 Cd 0.35964 0.34593 0.58488 0.0
Cd436 Cd 0.36822 0.34209 0.66521 0.0
O437 O 0.36247 0.30966 0.65102 0.0
O438 O 0.34309 0.3539 0.53757 0.0
O439 O 0.33073 0.36035 0.5964 0.0
C440 C 0.32764 0.36104 0.55967 0.0
C441 C 0.36303 0.35057 0.7305 0.0
C442 C 0.36084 0.30055 0.61831 0.0
C443 C 0.40208 0.36417 0.61227 0.0
O444 O 0.39635 0.35672 0.64481 0.0
O445 O 0.38929 0.36255 0.58358 0.0
O446 O 0.37818 0.33752 0.71885 0.0
O447 O 0.35002 0.35872 0.70498 0.0
H448 H 0.1339 0.03123 0.34633 0.0
H449 H 0.11292 0.06548 0.24411 0.0
H450 H 0.1387 0.99769 0.30881 0.0
H451 H 0.11698 0.03198 0.207 0.0
H452 H 0.13429 0.97116 0.142 0.0
H453 H 0.14003 0.00453 0.17964 0.0
H454 H 0.11467 0.9716 0.28025 0.0
H455 H 0.10966 0.93827 0.2431 0.0
C456 C 0.13054 0.03167 0.31581 0.0
C457 C 0.12285 0.051 0.29832 0.0
C458 C 0.13315 0.01241 0.2943 0.0
C459 C 0.12801 0.01199 0.25486 0.0
C460 C 0.12135 0.03164 0.23713 0.0
C461 C 0.11887 0.05089 0.25855 0.0
C462 C 0.13033 0.97097 0.17231 0.0
C463 C 0.12136 0.95209 0.18944 0.0
C464 C 0.13347 0.99014 0.19387 0.0
C465 C 0.12764 0.9909 0.233 0.0
C466 C 0.11963 0.97165 0.2504 0.0
C467 C 0.1166 0.95251 0.22894 0.0
H468 H 0.18724 0.85948 0.50219 0.0
H469 H 0.22005 0.88257 0.60451 0.0
H470 H 0.22073 0.86471 0.46554 0.0
H471 H 0.25355 0.88859 0.56739 0.0
H472 H 0.31441 0.86131 0.5033 0.0
H473 H 0.28078 0.86557 0.53988 0.0
H474 H 0.24734 0.88848 0.43797 0.0
H475 H 0.28103 0.88343 0.40091 0.0
C476 C 0.2015 0.86615 0.51674 0.0
C477 C 0.20103 0.87037 0.55642 0.0
C478 C 0.22073 0.86931 0.49556 0.0
C479 C 0.24 0.87692 0.51346 0.0
C480 C 0.23916 0.88231 0.55277 0.0
C481 C 0.21991 0.879 0.57405 0.0
C482 C 0.29999 0.86756 0.48872 0.0
C483 C 0.30036 0.87179 0.44904 0.0
C484 C 0.28066 0.87017 0.50986 0.0
C485 C 0.2612 0.87722 0.49193 0.0
C486 C 0.2619 0.88262 0.45261 0.0
C487 C 0.28125 0.87988 0.43138 0.0
H488 H 0.37255 0.06506 0.7373 0.0
H489 H 0.38818 0.02289 0.64163 0.0
H490 H 0.36671 0.03302 0.77787 0.0
H491 H 0.3841 0.99085 0.68246 0.0
H492 H 0.36948 0.93377 0.75692 0.0
H493 H 0.36428 0.96611 0.71688 0.0
H494 H 0.38597 0.00722 0.81101 0.0
H495 H 0.38939 0.97492 0.85149 0.0
C496 C 0.37463 0.04886 0.72495 0.0
C497 C 0.38083 0.04644 0.68635 0.0
C498 C 0.37155 0.03042 0.74832 0.0
C499 C 0.37525 0.00909 0.73398 0.0
C500 C 0.38069 0.0068 0.69479 0.0
C501 C 0.38317 0.02523 0.6712 0.0
C502 C 0.37266 0.94982 0.76914 0.0
C503 C 0.37987 0.95185 0.80726 0.0
C504 C 0.36994 0.96842 0.74605 0.0
C505 C 0.37505 0.98952 0.76014 0.0
C506 C 0.38149 0.99147 0.79892 0.0
C507 C 0.3836 0.97289 0.82229 0.0
H508 H 0.18756 0.13977 0.99806 0.0
H509 H 0.22134 0.12029 0.89443 0.0
H510 H 0.22144 0.13601 0.0342 0.0
H511 H 0.2553 0.11581 0.93096 0.0
H512 H 0.31484 0.14497 0.99658 0.0
H513 H 0.28133 0.1399 0.95985 0.0
H514 H 0.24936 0.11299 0.06017 0.0
H515 H 0.28287 0.11876 0.09738 0.0
C516 C 0.20214 0.13422 0.98308 0.0
C517 C 0.20176 0.13054 0.94323 0.0
C518 C 0.22161 0.13191 0.00395 0.0
C519 C 0.24125 0.12574 0.98556 0.0
C520 C 0.2406 0.12097 0.94599 0.0
C521 C 0.22109 0.12339 0.92505 0.0
C522 C 0.30078 0.13768 0.01075 0.0
C523 C 0.3015 0.13248 0.05007 0.0
C524 C 0.28153 0.13462 0.98953 0.0
C525 C 0.26249 0.12617 0.00701 0.0
C526 C 0.26357 0.1199 0.0459 0.0
C527 C 0.28284 0.12307 0.06721 0.0
H528 H 0.87063 0.93299 0.75771 0.0
H529 H 0.88995 0.96747 0.6549 0.0
H530 H 0.86472 0.96787 0.79034 0.0
H531 H 0.88557 0.00232 0.68791 0.0
H532 H 0.87072 0.06451 0.74826 0.0
H533 H 0.86493 0.02963 0.71556 0.0
H534 H 0.88529 0.99517 0.81826 0.0
H535 H 0.88956 0.03001 0.85132 0.0
C536 C 0.87347 0.94809 0.74203 0.0
C537 C 0.88083 0.94753 0.70383 0.0
C538 C 0.87032 0.96814 0.76084 0.0
C539 C 0.87499 0.98813 0.7422 0.0
C540 C 0.88144 0.98745 0.70332 0.0
C541 C 0.88409 0.9674 0.68428 0.0
C542 C 0.87349 0.0494 0.76397 0.0
C543 C 0.88068 0.04996 0.80227 0.0
C544 C 0.8704 0.02936 0.74513 0.0
C545 C 0.87497 0.00936 0.76384 0.0
C546 C 0.88125 0.01004 0.8028 0.0
C547 C 0.88384 0.03009 0.82187 0.0
H548 H 0.81571 0.13889 0.51451 0.0
H549 H 0.78691 0.11656 0.40805 0.0
H550 H 0.78071 0.13397 0.54679 0.0
H551 H 0.75186 0.11098 0.44075 0.0
H552 H 0.68905 0.13923 0.49805 0.0
H553 H 0.72404 0.13485 0.46552 0.0
H554 H 0.7528 0.10968 0.5701 0.0
H555 H 0.71774 0.11471 0.6031 0.0
C556 C 0.802 0.1325 0.49811 0.0
C557 C 0.80405 0.12835 0.45857 0.0
C558 C 0.7819 0.12951 0.51677 0.0
C559 C 0.76335 0.12221 0.49638 0.0
C560 C 0.76571 0.11698 0.45721 0.0
C561 C 0.78584 0.12005 0.43848 0.0
C562 C 0.70274 0.13246 0.51405 0.0
C563 C 0.70065 0.12754 0.55332 0.0
C564 C 0.72282 0.12979 0.49525 0.0
C565 C 0.74135 0.12205 0.51519 0.0
C566 C 0.73896 0.11604 0.55401 0.0
C567 C 0.71883 0.11878 0.5729 0.0
H568 H 0.61299 0.94169 0.2572 0.0
H569 H 0.62936 0.96718 0.36938 0.0
H570 H 0.61705 0.97813 0.2299 0.0
H571 H 0.63417 0.0037 0.34175 0.0
H572 H 0.6333 0.04462 0.18404 0.0
H573 H 0.63965 0.00858 0.21276 0.0
H574 H 0.60957 0.03094 0.31819 0.0
H575 H 0.60392 0.06693 0.29002 0.0
C576 C 0.61797 0.95499 0.27594 0.0
C577 C 0.62058 0.95156 0.31559 0.0
C578 C 0.62045 0.97594 0.26017 0.0
C579 C 0.62573 0.99399 0.28363 0.0
C580 C 0.62966 0.99027 0.32294 0.0
C581 C 0.62706 0.9693 0.33877 0.0
C582 C 0.6284 0.04192 0.21356 0.0
C583 C 0.61794 0.0586 0.23461 0.0
C584 C 0.63192 0.02121 0.22998 0.0
C585 C 0.62497 0.01672 0.26775 0.0
C586 C 0.61542 0.03379 0.28925 0.0
C587 C 0.61201 0.05446 0.27293 0.0
H588 H 0.71639 0.88106 0.89914 0.0
H589 H 0.68711 0.85948 0.00565 0.0
H590 H 0.75132 0.88679 0.93218 0.0
H591 H 0.72198 0.86457 0.03829 0.0
H592 H 0.78483 0.88415 0.09492 0.0
H593 H 0.74989 0.88897 0.06145 0.0
H594 H 0.77896 0.86293 0.95777 0.0
H595 H 0.81382 0.85872 0.99077 0.0
C596 C 0.71733 0.87779 0.92966 0.0
C597 C 0.69901 0.86963 0.94966 0.0
C598 C 0.73738 0.88094 0.94858 0.0
C599 C 0.73958 0.87595 0.98788 0.0
C600 C 0.72091 0.86884 0.00817 0.0
C601 C 0.70089 0.86576 0.98932 0.0
C602 C 0.78383 0.87983 0.06481 0.0
C603 C 0.80207 0.87088 0.04563 0.0
C604 C 0.76377 0.88246 0.04565 0.0
C605 C 0.7615 0.87616 0.00694 0.0
C606 C 0.78008 0.86821 0.98739 0.0
C607 C 0.8001 0.86564 0.00647 0.0
H608 H 0.6384 0.46435 0.64917 0.0
H609 H 0.61 0.4354 0.75096 0.0
H610 H 0.64253 0.4992 0.68317 0.0
H611 H 0.6135 0.47019 0.78443 0.0
H612 H 0.61219 0.56217 0.73667 0.0
H613 H 0.61782 0.52728 0.70437 0.0
H614 H 0.63672 0.49763 0.81216 0.0
H615 H 0.63043 0.53257 0.8448 0.0
C616 C 0.63328 0.46534 0.6789 0.0
C617 C 0.62371 0.44714 0.69722 0.0
C618 C 0.63551 0.48536 0.69834 0.0
C619 C 0.62817 0.48762 0.73649 0.0
C620 C 0.61958 0.46907 0.75527 0.0
C621 C 0.61743 0.44909 0.73592 0.0
C622 C 0.61785 0.5483 0.75347 0.0
C623 C 0.62063 0.55012 0.79343 0.0
C624 C 0.62124 0.52827 0.73483 0.0
C625 C 0.62759 0.50952 0.75563 0.0
C626 C 0.63147 0.51163 0.79533 0.0
C627 C 0.628 0.5317 0.81403 0.0
H628 H 0.78263 0.37942 0.90005 0.0
H629 H 0.80945 0.36179 0.01069 0.0
H630 H 0.74658 0.38472 0.92947 0.0
H631 H 0.77348 0.36657 0.03981 0.0
H632 H 0.68342 0.35604 0.98547 0.0
H633 H 0.71913 0.36019 0.95515 0.0
H634 H 0.74414 0.39117 0.05786 0.0
H635 H 0.70836 0.38654 0.08863 0.0
C636 C 0.78092 0.37696 0.9307 0.0
C637 C 0.79889 0.37001 0.95294 0.0
C638 C 0.76022 0.37986 0.94754 0.0
C639 C 0.75705 0.37589 0.98698 0.0
C640 C 0.77531 0.37001 0.00947 0.0
C641 C 0.79596 0.36713 0.99267 0.0
C642 C 0.69643 0.36401 0.00148 0.0
C643 C 0.69307 0.37077 0.03964 0.0
C644 C 0.71691 0.36654 0.98394 0.0
C645 C 0.7346 0.37592 0.00409 0.0
C646 C 0.73097 0.38359 0.0417 0.0
C647 C 0.71042 0.38106 0.05928 0.0
H648 H 0.86894 0.46354 0.34731 0.0
H649 H 0.8899 0.43742 0.23792 0.0
H650 H 0.86316 0.4994 0.31761 0.0
H651 H 0.88475 0.47323 0.2086 0.0
H652 H 0.8654 0.53792 0.15842 0.0
H653 H 0.86038 0.50205 0.18856 0.0
H654 H 0.88739 0.52749 0.29436 0.0
H655 H 0.89182 0.56328 0.2647 0.0
C656 C 0.87204 0.46537 0.31686 0.0
C657 C 0.88008 0.44767 0.29509 0.0
C658 C 0.86886 0.48596 0.29986 0.0
C659 C 0.87371 0.48931 0.26076 0.0
C660 C 0.88062 0.47127 0.23864 0.0
C661 C 0.88373 0.45071 0.25558 0.0
C662 C 0.8699 0.53592 0.1883 0.0
C663 C 0.87919 0.55341 0.20904 0.0
C664 C 0.86714 0.51533 0.20554 0.0
C665 C 0.87363 0.51178 0.24384 0.0
C666 C 0.88195 0.52961 0.265 0.0
C667 C 0.88465 0.55016 0.24783 0.0
H668 H 0.72131 0.63758 0.39428 0.0
H669 H 0.68894 0.61834 0.49918 0.0
H670 H 0.75682 0.63342 0.42518 0.0
H671 H 0.72446 0.61253 0.52968 0.0
H672 H 0.78779 0.63629 0.58743 0.0
H673 H 0.75233 0.63252 0.55625 0.0
H674 H 0.78482 0.61322 0.45093 0.0
H675 H 0.82031 0.61863 0.48179 0.0
C676 C 0.72186 0.63178 0.42367 0.0
C677 C 0.70239 0.62847 0.44442 0.0
C678 C 0.74229 0.62925 0.44151 0.0
C679 C 0.74377 0.62283 0.48035 0.0
C680 C 0.72415 0.61813 0.5002 0.0
C681 C 0.70372 0.62122 0.48261 0.0
C682 C 0.78729 0.63093 0.55778 0.0
C683 C 0.80679 0.62794 0.53696 0.0
C684 C 0.76688 0.62862 0.53977 0.0
C685 C 0.76545 0.62274 0.50067 0.0
C686 C 0.7851 0.61839 0.48065 0.0
C687 C 0.8055 0.62126 0.49844 0.0
H688 H 0.36347 0.46729 0.16797 0.0
H689 H 0.3923 0.43804 0.26913 0.0
H690 H 0.35886 0.50185 0.20271 0.0
H691 H 0.38822 0.47254 0.30338 0.0
H692 H 0.3692 0.53387 0.3653 0.0
H693 H 0.36377 0.49916 0.33142 0.0
H694 H 0.38335 0.53012 0.22515 0.0
H695 H 0.38821 0.56476 0.25867 0.0
C696 C 0.36862 0.46816 0.19769 0.0
C697 C 0.37841 0.44996 0.21566 0.0
C698 C 0.36609 0.48799 0.21756 0.0
C699 C 0.37329 0.49005 0.25582 0.0
C700 C 0.38222 0.47153 0.27417 0.0
C701 C 0.38473 0.45174 0.25436 0.0
C702 C 0.37194 0.53334 0.33459 0.0
C703 C 0.37932 0.55204 0.31477 0.0
C704 C 0.36897 0.51341 0.31519 0.0
C705 C 0.37332 0.51176 0.27558 0.0
C706 C 0.37961 0.53078 0.25552 0.0
C707 C 0.38255 0.55066 0.27487 0.0
H708 H 0.18133 0.62203 0.98 0.0
H709 H 0.21627 0.64097 0.08258 0.0
H710 H 0.21609 0.61603 0.94698 0.0
H711 H 0.251 0.63645 0.0492 0.0
H712 H 0.31294 0.62098 0.98823 0.0
H713 H 0.27807 0.61556 0.02123 0.0
H714 H 0.24352 0.63639 0.9189 0.0
H715 H 0.27833 0.64032 0.88555 0.0
C716 C 0.1965 0.62478 0.99555 0.0
C717 C 0.1961 0.63205 0.03381 0.0
C718 C 0.21648 0.62156 0.97651 0.0
C719 C 0.23658 0.62607 0.99499 0.0
C720 C 0.23605 0.63245 0.03391 0.0
C721 C 0.21607 0.63519 0.05316 0.0
C722 C 0.29781 0.62393 0.97265 0.0
C723 C 0.29834 0.63116 0.93438 0.0
C724 C 0.27778 0.62106 0.99168 0.0
C725 C 0.25777 0.62587 0.97317 0.0
C726 C 0.2584 0.63217 0.93422 0.0
C727 C 0.27843 0.63456 0.91498 0.0
H728 H 0.10869 0.43627 0.74515 0.0
H729 H 0.13229 0.46556 0.85037 0.0
H730 H 0.11486 0.47064 0.71149 0.0
H731 H 0.13897 0.5 0.8163 0.0
H732 H 0.13714 0.53187 0.65275 0.0
H733 H 0.14091 0.49722 0.68752 0.0
H734 H 0.11545 0.52818 0.78993 0.0
H735 H 0.11219 0.56275 0.7556 0.0
C736 C 0.11558 0.44995 0.76099 0.0
C737 C 0.11978 0.44823 0.80057 0.0
C738 C 0.11929 0.46966 0.74155 0.0
C739 C 0.12731 0.48816 0.76118 0.0
C740 C 0.13249 0.48615 0.80043 0.0
C741 C 0.12877 0.46638 0.81992 0.0
C742 C 0.13274 0.53135 0.68287 0.0
C743 C 0.12417 0.55001 0.70128 0.0
C744 C 0.13477 0.51147 0.70275 0.0
C745 C 0.12829 0.50984 0.74146 0.0
C746 C 0.12082 0.52884 0.76031 0.0
C747 C 0.11879 0.54867 0.74047 0.0
H748 H 0.18872 0.38038 0.50601 0.0
H749 H 0.22082 0.36083 0.40097 0.0
H750 H 0.22436 0.38552 0.53655 0.0
H751 H 0.25637 0.36443 0.43185 0.0
H752 H 0.32002 0.37768 0.48827 0.0
H753 H 0.2846 0.38434 0.45791 0.0
H754 H 0.25186 0.36452 0.56266 0.0
H755 H 0.28731 0.35944 0.59342 0.0
C756 C 0.20346 0.37733 0.48939 0.0
C757 C 0.20201 0.37013 0.45117 0.0
C758 C 0.22394 0.38004 0.507 0.0
C759 C 0.24347 0.37507 0.4871 0.0
C760 C 0.24189 0.36879 0.44821 0.0
C761 C 0.22143 0.36658 0.43038 0.0
C762 C 0.30519 0.37521 0.50493 0.0
C763 C 0.30639 0.36795 0.54312 0.0
C764 C 0.28483 0.37881 0.48743 0.0
C765 C 0.26513 0.37463 0.50739 0.0
C766 C 0.26649 0.36826 0.54626 0.0
C767 C 0.28688 0.3652 0.56401 0.0
H768 H 0.10872 0.17456 0.44287 0.0
H769 H 0.14389 0.16157 0.3375 0.0
H770 H 0.11959 0.21278 0.43985 0.0
H771 H 0.15562 0.1999 0.33524 0.0
H772 H 0.15281 0.27789 0.4421 0.0
H773 H 0.14852 0.23815 0.44601 0.0
H774 H 0.1409 0.23507 0.32267 0.0
H775 H 0.14614 0.27452 0.31871 0.0
C776 C 0.11906 0.1798 0.41928 0.0
C777 C 0.12533 0.165 0.39029 0.0
C778 C 0.12549 0.20177 0.41773 0.0
C779 C 0.13858 0.20954 0.38737 0.0
C780 C 0.14528 0.1946 0.35878 0.0
C781 C 0.13865 0.17259 0.36013 0.0
C782 C 0.15052 0.26866 0.41581 0.0
C783 C 0.14966 0.27941 0.38016 0.0
C784 C 0.1479 0.24588 0.41803 0.0
C785 C 0.14407 0.23334 0.3847 0.0
C786 C 0.14407 0.24406 0.34893 0.0
C787 C 0.14695 0.26677 0.34668 0.0
H788 H 0.97764 0.8893 0.56957 0.0
H789 H 0.97341 0.89935 0.69219 0.0
H790 H 0.01704 0.88379 0.57496 0.0
H791 H 0.01306 0.8947 0.69744 0.0
H792 H 0.07681 0.85492 0.69877 0.0
H793 H 0.03849 0.86545 0.694 0.0
H794 H 0.05207 0.89926 0.58745 0.0
H795 H 0.09045 0.88794 0.59156 0.0
C796 C 0.98518 0.89075 0.59763 0.0
C797 C 0.97233 0.89456 0.63051 0.0
C798 C 0.00786 0.88771 0.6007 0.0
C799 C 0.0183 0.88862 0.63669 0.0
C800 C 0.00554 0.89341 0.66936 0.0
C801 C 0.98281 0.89622 0.66634 0.0
C802 C 0.07169 0.8647 0.67438 0.0
C803 C 0.08671 0.87048 0.64542 0.0
C804 C 0.04968 0.87092 0.6718 0.0
C805 C 0.04209 0.88327 0.64036 0.0
C806 C 0.05723 0.88948 0.61179 0.0
C807 C 0.07927 0.88308 0.61421 0.0
H808 H 0.38904 0.82481 0.94352 0.0
H809 H 0.35932 0.8418 0.83482 0.0
H810 H 0.37786 0.78697 0.93505 0.0
H811 H 0.34724 0.80381 0.82696 0.0
H812 H 0.35694 0.72956 0.80435 0.0
H813 H 0.36215 0.76883 0.81296 0.0
H814 H 0.34858 0.76188 0.93424 0.0
H815 H 0.34434 0.7224 0.92579 0.0
C816 C 0.37979 0.82055 0.91802 0.0
C817 C 0.37519 0.83636 0.88974 0.0
C818 C 0.37318 0.79878 0.91329 0.0
C819 C 0.36157 0.79222 0.88033 0.0
C820 C 0.35643 0.80817 0.85246 0.0
C821 C 0.36325 0.82999 0.85704 0.0
C822 C 0.35481 0.73644 0.8328 0.0
C823 C 0.35047 0.7228 0.86447 0.0
C824 C 0.35768 0.75905 0.83772 0.0
C825 C 0.35603 0.7686 0.87439 0.0
C826 C 0.35052 0.75506 0.90572 0.0
C827 C 0.34793 0.73242 0.90087 0.0
H828 H 0.42227 0.14098 0.20078 0.0
H829 H 0.41568 0.12328 0.08112 0.0
H830 H 0.46103 0.13224 0.19844 0.0
H831 H 0.45473 0.11384 0.07908 0.0
H832 H 0.53004 0.12789 0.08182 0.0
H833 H 0.49018 0.13166 0.08075 0.0
H834 H 0.48653 0.10278 0.19392 0.0
H835 H 0.52636 0.09969 0.1955 0.0
C836 C 0.42903 0.13496 0.17399 0.0
C837 C 0.4158 0.13291 0.14108 0.0
C838 C 0.45132 0.12976 0.17275 0.0
C839 C 0.46106 0.1222 0.13863 0.0
C840 C 0.44781 0.11981 0.10575 0.0
C841 C 0.4254 0.12512 0.10696 0.0
C842 C 0.52071 0.12214 0.10632 0.0
C843 C 0.53143 0.11375 0.13896 0.0
C844 C 0.49782 0.1242 0.10561 0.0
C845 C 0.48512 0.11777 0.13743 0.0
C846 C 0.49581 0.10838 0.16926 0.0
C847 C 0.51867 0.1065 0.1701 0.0
H848 H 0.13228 0.72425 0.04936 0.0
H849 H 0.16088 0.7291 0.16259 0.0
H850 H 0.12833 0.7639 0.04718 0.0
H851 H 0.15776 0.76896 0.15985 0.0
H852 H 0.12025 0.83506 0.16139 0.0
H853 H 0.13015 0.79627 0.16357 0.0
H854 H 0.14589 0.79812 0.04252 0.0
H855 H 0.13507 0.83653 0.04014 0.0
C856 C 0.13816 0.73382 0.07348 0.0
C857 C 0.14676 0.72347 0.10623 0.0
C858 C 0.136 0.75665 0.07219 0.0
C859 C 0.14263 0.76975 0.10344 0.0
C860 C 0.15207 0.75941 0.13557 0.0
C861 C 0.15402 0.73655 0.13702 0.0
C862 C 0.12607 0.8272 0.1354 0.0
C863 C 0.12663 0.83877 0.10053 0.0
C864 C 0.13186 0.80497 0.13662 0.0
C865 C 0.13862 0.7939 0.10309 0.0
C866 C 0.14024 0.80589 0.0687 0.0
C867 C 0.13417 0.82798 0.06738 0.0
H868 H 0.52908 0.90619 0.32569 0.0
H869 H 0.52306 0.89237 0.44692 0.0
H870 H 0.48948 0.90222 0.31835 0.0
H871 H 0.48367 0.88747 0.43937 0.0
H872 H 0.4105 0.89079 0.41967 0.0
H873 H 0.44858 0.90277 0.4267 0.0
H874 H 0.46443 0.87278 0.31761 0.0
H875 H 0.42649 0.86167 0.30999 0.0
C876 C 0.51929 0.9024 0.35081 0.0
C877 C 0.52925 0.89941 0.38681 0.0
C878 C 0.49658 0.89998 0.34658 0.0
C879 C 0.48333 0.8942 0.37815 0.0
C880 C 0.49324 0.89214 0.41446 0.0
C881 C 0.5159 0.89483 0.41877 0.0
C882 C 0.42211 0.88697 0.39707 0.0
C883 C 0.41544 0.87522 0.36434 0.0
C884 C 0.44397 0.89374 0.40116 0.0
C885 C 0.45967 0.88875 0.37275 0.0
C886 C 0.45281 0.87733 0.33977 0.0
C887 C 0.431 0.87077 0.33554 0.0
H888 H 0.39264 0.17047 0.54255 0.0
H889 H 0.36671 0.15814 0.65605 0.0
H890 H 0.3832 0.20894 0.5485 0.0
H891 H 0.35644 0.19679 0.66151 0.0
H892 H 0.35177 0.27493 0.55559 0.0
H893 H 0.35464 0.23512 0.55047 0.0
H894 H 0.37362 0.23152 0.66993 0.0
H895 H 0.36989 0.27112 0.67537 0.0
C896 C 0.3846 0.1759 0.56863 0.0
C897 C 0.38056 0.16118 0.59893 0.0
C898 C 0.379 0.19803 0.57192 0.0
C899 C 0.36901 0.20608 0.60547 0.0
C900 C 0.36441 0.19125 0.63545 0.0
C901 C 0.37018 0.16905 0.63227 0.0
C902 C 0.35631 0.2656 0.58085 0.0
C903 C 0.36077 0.27625 0.61578 0.0
C904 C 0.35809 0.24277 0.57789 0.0
C905 C 0.36461 0.23005 0.60968 0.0
C906 C 0.36831 0.24067 0.64495 0.0
C907 C 0.36631 0.26347 0.648 0.0
H908 H 0.07589 0.14103 0.80338 0.0
H909 H 0.09057 0.10949 0.91154 0.0
H910 H 0.03777 0.13016 0.80924 0.0
H911 H 0.05232 0.09777 0.91674 0.0
H912 H 0.97787 0.10807 0.93578 0.0
H913 H 0.01728 0.11305 0.92944 0.0
H914 H 0.01235 0.10106 0.80737 0.0
H915 H 0.97267 0.09701 0.81356 0.0
C916 C 0.07106 0.13146 0.82821 0.0
C917 C 0.08631 0.12625 0.85712 0.0
C918 C 0.04914 0.12504 0.83141 0.0
C919 C 0.04185 0.11302 0.86343 0.0
C920 C 0.05724 0.10729 0.89193 0.0
C921 C 0.07921 0.11391 0.88889 0.0
C922 C 0.9852 0.10625 0.90761 0.0
C923 C 0.97206 0.10238 0.87509 0.0
C924 C 0.0079 0.10898 0.90401 0.0
C925 C 0.01808 0.10767 0.86783 0.0
C926 C 0.00504 0.10269 0.83557 0.0
C927 C 0.98228 0.10022 0.83912 0.0
H928 H 0.87158 0.71996 0.55956 0.0
H929 H 0.84448 0.71938 0.6742 0.0
H930 H 0.87412 0.75975 0.56199 0.0
H931 H 0.84606 0.75932 0.67609 0.0
H932 H 0.88183 0.82614 0.68471 0.0
H933 H 0.87244 0.78728 0.68245 0.0
H934 H 0.85596 0.7936 0.56214 0.0
H935 H 0.8664 0.83214 0.56416 0.0
C936 C 0.86572 0.72837 0.58498 0.0
C937 C 0.858 0.71649 0.61677 0.0
C938 C 0.86705 0.75127 0.58635 0.0
C939 C 0.86039 0.76289 0.61936 0.0
C940 C 0.85177 0.75098 0.65052 0.0
C941 C 0.85072 0.72805 0.64933 0.0
C942 C 0.87586 0.81927 0.65797 0.0
C943 C 0.87508 0.83211 0.62454 0.0
C944 C 0.87039 0.79697 0.65663 0.0
C945 C 0.86369 0.78711 0.62193 0.0
C946 C 0.86162 0.80041 0.58911 0.0
C947 C 0.86743 0.82257 0.59032 0.0
H948 H 0.92295 0.12656 0.44178 0.0
H949 H 0.92074 0.1076 0.32235 0.0
H950 H 0.96137 0.11539 0.44499 0.0
H951 H 0.95876 0.09551 0.32586 0.0
H952 H 0.03276 0.10863 0.33046 0.0
H953 H 0.99318 0.1128 0.32836 0.0
H954 H 0.98834 0.08723 0.44388 0.0
H955 H 0.02824 0.08388 0.44648 0.0
C956 C 0.93053 0.11952 0.41648 0.0
C957 C 0.91892 0.11823 0.38171 0.0
C958 C 0.95256 0.113 0.41831 0.0
C959 C 0.96334 0.10478 0.38552 0.0
C960 C 0.95122 0.10229 0.35141 0.0
C961 C 0.92935 0.10909 0.34945 0.0
C962 C 0.02327 0.10362 0.35528 0.0
C963 C 0.03372 0.09606 0.38873 0.0
C964 C 1.00047 0.10589 0.35402 0.0
C965 C 0.98744 0.10042 0.38601 0.0
C966 C 0.99784 0.09198 0.41894 0.0
C967 C 0.02072 0.0899 0.42033 0.0
H968 H 0.63936 0.29306 0.21429 0.0
H969 H 0.64082 0.28165 0.09183 0.0
H970 H 0.63941 0.25344 0.22547 0.0
H971 H 0.64013 0.24241 0.10283 0.0
H972 H 0.6517 0.17303 0.12498 0.0
H973 H 0.66052 0.21201 0.12469 0.0
H974 H 0.61554 0.22229 0.2191 0.0
H975 H 0.60762 0.18296 0.22042 0.0
C976 C 0.63973 0.28213 0.18977 0.0
C977 C 0.64007 0.29056 0.15214 0.0
C978 C 0.63968 0.25941 0.19619 0.0
C979 C 0.63991 0.24464 0.16511 0.0
C980 C 0.64049 0.25318 0.12757 0.0
C981 C 0.64067 0.27579 0.12119 0.0
C982 C 0.64422 0.18356 0.1464 0.0
C983 C 0.62887 0.17506 0.17253 0.0
C984 C 0.64906 0.20594 0.14598 0.0
C985 C 0.63827 0.22046 0.17112 0.0
C986 C 0.6242 0.21165 0.19933 0.0
C987 C 0.61965 0.18909 0.20017 0.0
H988 H 0.58722 0.8875 0.93211 0.0
H989 H 0.57115 0.86372 0.8186 0.0
H990 H 0.54948 0.90052 0.93985 0.0
H991 H 0.53361 0.8758 0.82681 0.0
H992 H 0.4704 0.91116 0.83632 0.0
H993 H 0.50993 0.90609 0.83019 0.0
H994 H 0.51346 0.88674 0.94949 0.0
H995 H 0.47414 0.89282 0.95596 0.0
C996 C 0.57567 0.88505 0.90885 0.0
C997 C 0.58224 0.87456 0.87477 0.0
C998 C 0.554 0.89242 0.91332 0.0
C999 C 0.53841 0.88931 0.88392 0.0
C1000 C 0.54516 0.87899 0.84978 0.0
C1001 C 0.56676 0.87185 0.84519 0.0
C1002 C 0.47969 0.90615 0.86137 0.0
C1003 C 0.4691 0.9022 0.89651 0.0
C1004 C 0.50235 0.90307 0.85782 0.0
C1005 C 0.51493 0.89561 0.88916 0.0
C1006 C 0.50444 0.89267 0.92479 0.0
C1007 C 0.48181 0.89606 0.92847 0.0
H1008 H 0.84119 0.27802 0.92689 0.0
H1009 H 0.86082 0.2777 0.80766 0.0
H1010 H 0.84496 0.23821 0.92902 0.0
H1011 H 0.86551 0.2381 0.81018 0.0
H1012 H 0.86313 0.16424 0.81925 0.0
H1013 H 0.85032 0.20225 0.81577 0.0
H1014 H 0.87486 0.21375 0.93054 0.0
H1015 H 0.88677 0.17596 0.93449 0.0
C1016 C 0.8462 0.26945 0.90108 0.0
C1017 C 0.85093 0.28107 0.86725 0.0
C1018 C 0.84849 0.24662 0.90233 0.0
C1019 C 0.85588 0.2349 0.86993 0.0
C1020 C 0.85959 0.24647 0.83559 0.0
C1021 C 0.85703 0.26926 0.83422 0.0
C1022 C 0.86553 0.17486 0.84385 0.0
C1023 C 0.87606 0.16704 0.87706 0.0
C1024 C 0.85829 0.19668 0.84181 0.0
C1025 C 0.86154 0.21115 0.87287 0.0
C1026 C 0.87164 0.20308 0.9063 0.0
C1027 C 0.87869 0.18134 0.90843 0.0
H1028 H 0.58968 0.10893 0.56327 0.0
H1029 H 0.57243 0.1245 0.68056 0.0
H1030 H 0.55237 0.09527 0.55242 0.0
H1031 H 0.53543 0.11199 0.66944 0.0
H1032 H 0.47677 0.10372 0.53708 0.0
H1033 H 0.5162 0.10867 0.54472 0.0
H1034 H 0.51201 0.08241 0.65988 0.0
H1035 H 0.4724 0.0787 0.65282 0.0
C1036 C 0.578 0.10937 0.58672 0.0
C1037 C 0.58409 0.11785 0.62273 0.0
C1038 C 0.55658 0.10166 0.58048 0.0
C1039 C 0.54077 0.10243 0.61005 0.0
C1040 C 0.54713 0.11057 0.64615 0.0
C1041 C 0.56845 0.118 0.65245 0.0
C1042 C 0.48435 0.09872 0.56382 0.0
C1043 C 0.47146 0.09114 0.59458 0.0
C1044 C 0.50703 0.10144 0.56816 0.0
C1045 C 0.51737 0.09631 0.60318 0.0
C1046 C 0.50459 0.08719 0.6329 0.0
C1047 C 0.48187 0.08489 0.62881 0.0
H1048 H 0.63973 0.7237 0.31041 0.0
H1049 H 0.65594 0.72045 0.43107 0.0
H1050 H 0.63485 0.76317 0.31552 0.0
H1051 H 0.65195 0.76017 0.4359 0.0
H1052 H 0.61094 0.82297 0.44213 0.0
H1053 H 0.62229 0.78504 0.43652 0.0
H1054 H 0.65023 0.79863 0.32489 0.0
H1055 H 0.63802 0.83676 0.32996 0.0
C1056 C 0.64271 0.73147 0.3379 0.0
C1057 C 0.64796 0.71886 0.37046 0.0
C1058 C 0.64003 0.7542 0.34078 0.0
C1059 C 0.64277 0.76493 0.37622 0.0
C1060 C 0.6492 0.75242 0.40832 0.0
C1061 C 0.65163 0.72964 0.40554 0.0
C1062 C 0.61964 0.81799 0.41642 0.0
C1063 C 0.62344 0.83294 0.38637 0.0
C1064 C 0.62635 0.79617 0.41335 0.0
C1065 C 0.63726 0.78867 0.38029 0.0
C1066 C 0.64161 0.80375 0.35057 0.0
C1067 C 0.63471 0.82564 0.35353 0.0
H1068 H 0.91416 0.888 0.05801 0.0
H1069 H 0.93025 0.87045 0.17493 0.0
H1070 H 0.95191 0.90062 0.04822 0.0
H1071 H 0.96773 0.88216 0.16486 0.0
H1072 H 0.02778 0.8923 0.03491 0.0
H1073 H 0.98833 0.88651 0.04136 0.0
H1074 H 0.99081 0.91268 0.1567 0.0
H1075 H 0.03034 0.91749 0.15077 0.0
C1076 C 0.9257 0.88685 0.08159 0.0
C1077 C 0.91913 0.87822 0.11725 0.0
C1078 C 0.94737 0.89399 0.07595 0.0
C1079 C 0.96292 0.89255 0.10579 0.0
C1080 C 0.95618 0.88406 0.14143 0.0
C1081 C 0.93462 0.87712 0.14713 0.0
C1082 C 0.01982 0.89711 0.06143 0.0
C1083 C 0.03222 0.90506 0.09253 0.0
C1084 C 0.99715 0.89387 0.0651 0.0
C1085 C 0.98636 0.89878 0.0998 0.0
C1086 C 0.99862 0.90812 0.12993 0.0
C1087 C 0.02129 0.91103 0.12647 0.0
H1088 H 0.65948 0.77785 0.91851 0.0
H1089 H 0.63908 0.77671 0.79971 0.0
H1090 H 0.65601 0.73803 0.92143 0.0
H1091 H 0.63462 0.73708 0.80305 0.0
H1092 H 0.63738 0.66322 0.81357 0.0
H1093 H 0.64981 0.70132 0.80887 0.0
H1094 H 0.62648 0.71336 0.92424 0.0
H1095 H 0.61499 0.67552 0.9294 0.0
C1096 C 0.65435 0.76908 0.89296 0.0
C1097 C 0.64934 0.78047 0.85903 0.0
C1098 C 0.65222 0.74625 0.89467 0.0
C1099 C 0.64467 0.73429 0.86266 0.0
C1100 C 0.64067 0.74563 0.82818 0.0
C1101 C 0.6431 0.76843 0.82633 0.0
C1102 C 0.63517 0.67399 0.83802 0.0
C1103 C 0.62512 0.66629 0.87178 0.0
C1104 C 0.64219 0.69586 0.83529 0.0
C1105 C 0.63918 0.71051 0.86618 0.0
C1106 C 0.62953 0.70257 0.90011 0.0
C1107 C 0.62272 0.68079 0.90293 0.0
H1108 H 0.46077 0.39584 0.04487 0.0
H1109 H 0.46586 0.39637 0.16865 0.0
H1110 H 0.50079 0.39521 0.03994 0.0
H1111 H 0.50553 0.39496 0.1638 0.0
H1112 H 0.57633 0.40638 0.15116 0.0
H1113 H 0.53732 0.41476 0.14736 0.0
H1114 H 0.53111 0.371 0.05017 0.0
H1115 H 0.57048 0.36346 0.05304 0.0
C1116 C 0.4704 0.39585 0.07102 0.0
C1117 C 0.46006 0.39615 0.10718 0.0
C1118 C 0.49336 0.39539 0.06818 0.0
C1119 C 0.50649 0.39511 0.10143 0.0
C1120 C 0.49607 0.39566 0.1375 0.0
C1121 C 0.47321 0.39629 0.14033 0.0
C1122 C 0.5667 0.39894 0.12845 0.0
C1123 C 0.57639 0.38411 0.10261 0.0
C1124 C 0.54428 0.40356 0.12647 0.0
C1125 C 0.53088 0.39314 0.09907 0.0
C1126 C 0.54088 0.37941 0.07159 0.0
C1127 C 0.56346 0.37505 0.0732 0.0
H1128 H 0.86329 0.21908 0.42654 0.0
H1129 H 0.84679 0.21907 0.30587 0.0
H1130 H 0.86642 0.25876 0.42535 0.0
H1131 H 0.84901 0.25906 0.30496 0.0
H1132 H 0.88514 0.32628 0.30899 0.0
H1133 H 0.87559 0.28739 0.30694 0.0
H1134 H 0.84798 0.29234 0.42105 0.0
H1135 H 0.85852 0.33083 0.42362 0.0
C1136 C 0.85991 0.22759 0.39987 0.0
C1137 C 0.8549 0.21585 0.36627 0.0
C1138 C 0.86156 0.25045 0.39921 0.0
C1139 C 0.85795 0.26226 0.36503 0.0
C1140 C 0.85224 0.25054 0.33166 0.0
C1141 C 0.85083 0.2276 0.33223 0.0
C1142 C 0.87671 0.31909 0.33333 0.0
C1143 C 0.87283 0.33151 0.36663 0.0
C1144 C 0.87116 0.29678 0.33218 0.0
C1145 C 0.86131 0.28653 0.36411 0.0
C1146 C 0.85612 0.29945 0.39635 0.0
C1147 C 0.862 0.32158 0.39773 0.0
H1148 H 0.9318 0.62553 0.66724 0.0
H1149 H 0.92358 0.6143 0.54551 0.0
H1150 H 0.97013 0.61563 0.66242 0.0
H1151 H 0.9622 0.60349 0.54089 0.0
H1152 H 0.03736 0.61802 0.54247 0.0
H1153 H 0.99746 0.62074 0.54328 0.0
H1154 H 0.996 0.58746 0.6529 0.0
H1155 H 0.03594 0.5856 0.65278 0.0
C1156 C 0.93807 0.62056 0.63945 0.0
C1157 C 0.92458 0.6209 0.60668 0.0
C1158 C 0.96013 0.61466 0.63675 0.0
C1159 C 0.96937 0.60873 0.60125 0.0
C1160 C 0.95571 0.60826 0.56861 0.0
C1161 C 0.93353 0.61431 0.57129 0.0
C1162 C 0.0285 0.61107 0.56655 0.0
C1163 C 0.03985 0.60189 0.59784 0.0
C1164 C 0.00557 0.61249 0.5669 0.0
C1165 C 0.99344 0.60455 0.59836 0.0
C1166 C 0.0048 0.59424 0.62861 0.0
C1167 C 0.02772 0.59308 0.62849 0.0
H1168 H 0.66657 0.217 0.59215 0.0
H1169 H 0.63076 0.22001 0.69909 0.0
H1170 H 0.66592 0.25691 0.58807 0.0
H1171 H 0.62906 0.25981 0.69413 0.0
H1172 H 0.63666 0.33318 0.68599 0.0
H1173 H 0.64631 0.29455 0.69534 0.0
H1174 H 0.63993 0.28354 0.57316 0.0
H1175 H 0.63142 0.32184 0.5638 0.0
C1176 C 0.65855 0.22621 0.61479 0.0
C1177 C 0.64853 0.21534 0.64571 0.0
C1178 C 0.65807 0.24911 0.6124 0.0
C1179 C 0.64715 0.2617 0.64048 0.0
C1180 C 0.63785 0.25079 0.67217 0.0
C1181 C 0.63867 0.2279 0.67488 0.0
C1182 C 0.6377 0.32253 0.66115 0.0
C1183 C 0.63316 0.33064 0.62421 0.0
C1184 C 0.64307 0.30034 0.66649 0.0
C1185 C 0.64384 0.28578 0.63504 0.0
C1186 C 0.63995 0.29418 0.59807 0.0
C1187 C 0.63484 0.31626 0.59273 0.0
H1188 H 0.02931 0.37969 0.95388 0.0
H1189 H 0.0285 0.41313 0.84452 0.0
H1190 H 0.98947 0.37612 0.95152 0.0
H1191 H 0.98862 0.41046 0.84289 0.0
H1192 H 0.92554 0.37167 0.82425 0.0
H1193 H 0.96364 0.38183 0.83137 0.0
H1194 H 0.95364 0.39234 0.9529 0.0
H1195 H 0.91518 0.38125 0.94591 0.0
C1196 C 0.02058 0.3867 0.92971 0.0
C1197 C 0.0321 0.3964 0.89909 0.0
C1198 C 0.99768 0.38477 0.92846 0.0
C1199 C 0.98576 0.39273 0.89676 0.0
C1200 C 0.99726 0.40361 0.86729 0.0
C1201 C 0.02015 0.40526 0.86829 0.0
C1202 C 0.93129 0.37631 0.85255 0.0
C1203 C 0.91724 0.3755 0.88457 0.0
C1204 C 0.95324 0.38236 0.85658 0.0
C1205 C 0.96183 0.38802 0.8927 0.0
C1206 C 0.94765 0.38784 0.92469 0.0
C1207 C 0.92557 0.38163 0.92067 0.0
H1208 H 0.84607 0.78337 0.20691 0.0
H1209 H 0.854 0.78038 0.08369 0.0
H1210 H 0.84651 0.74335 0.20994 0.0
H1211 H 0.85517 0.74061 0.08682 0.0
H1212 H 0.84559 0.6694 0.09409 0.0
H1213 H 0.8353 0.70793 0.0981 0.0
H1214 H 0.87254 0.71417 0.20325 0.0
H1215 H 0.88202 0.67526 0.19993 0.0
C1216 C 0.84778 0.77419 0.18043 0.0
C1217 C 0.85009 0.78511 0.14504 0.0
C1218 C 0.84815 0.75123 0.18222 0.0
C1219 C 0.85091 0.73867 0.14868 0.0
C1220 C 0.8526 0.74965 0.11322 0.0
C1221 C 0.85209 0.77255 0.11141 0.0
C1222 C 0.85112 0.6789 0.11856 0.0
C1223 C 0.86478 0.6694 0.14651 0.0
C1224 C 0.8454 0.70105 0.12069 0.0
C1225 C 0.85352 0.71435 0.15047 0.0
C1226 C 0.8659 0.70444 0.17996 0.0
C1227 C 0.87137 0.68212 0.1781 0.0
H1228 H 0.58749 0.61274 0.44039 0.0
H1229 H 0.57264 0.63173 0.32365 0.0
H1230 H 0.54944 0.60074 0.4489 0.0
H1231 H 0.53489 0.62066 0.33249 0.0
H1232 H 0.47412 0.61274 0.46176 0.0
H1233 H 0.51378 0.61653 0.45568 0.0
H1234 H 0.51028 0.59128 0.3398 0.0
H1235 H 0.47052 0.58845 0.34538 0.0
C1236 C 0.57618 0.61426 0.41653 0.0
C1237 C 0.58314 0.62328 0.38141 0.0
C1238 C 0.55434 0.6075 0.42145 0.0
C1239 C 0.539 0.6097 0.39139 0.0
C1240 C 0.54621 0.61825 0.35609 0.0
C1241 C 0.56795 0.62483 0.35112 0.0
C1242 C 0.48186 0.60772 0.43516 0.0
C1243 C 0.46914 0.60061 0.40384 0.0
C1244 C 0.50467 0.60978 0.43173 0.0
C1245 C 0.51529 0.60452 0.39704 0.0
C1246 C 0.50263 0.59605 0.36661 0.0
C1247 C 0.47983 0.5943 0.36985 0.0
H1248 H 0.34251 0.33575 0.09247 0.0
H1249 H 0.37634 0.33075 0.20108 0.0
H1250 H 0.33093 0.29765 0.09786 0.0
H1251 H 0.36548 0.29224 0.20589 0.0
H1252 H 0.33632 0.22406 0.21139 0.0
H1253 H 0.33782 0.26413 0.2122 0.0
H1254 H 0.3504 0.26422 0.09004 0.0
H1255 H 0.34829 0.22449 0.08904 0.0
C1256 C 0.34723 0.32655 0.11779 0.0
C1257 C 0.36055 0.33614 0.14614 0.0
C1258 C 0.34073 0.30465 0.12075 0.0
C1259 C 0.34767 0.29169 0.15186 0.0
C1260 C 0.35973 0.30173 0.18159 0.0
C1261 C 0.36601 0.32381 0.17885 0.0
C1262 C 0.33906 0.23268 0.18461 0.0
C1263 C 0.34228 0.22102 0.15016 0.0
C1264 C 0.34005 0.25565 0.18514 0.0
C1265 C 0.34428 0.26746 0.15124 0.0
C1266 C 0.34674 0.25577 0.11664 0.0
C1267 C 0.34568 0.23289 0.11609 0.0
H1268 H 0.41163 0.61158 0.91423 0.0
H1269 H 0.42685 0.64251 0.80575 0.0
H1270 H 0.44951 0.59863 0.91894 0.0
H1271 H 0.46461 0.63035 0.81108 0.0
H1272 H 0.52445 0.60741 0.93673 0.0
H1273 H 0.48509 0.61315 0.93103 0.0
H1274 H 0.489 0.6002 0.80916 0.0
H1275 H 0.52861 0.59531 0.81468 0.0
C1276 C 0.42302 0.61559 0.89139 0.0
C1277 C 0.4162 0.62816 0.8597 0.0
C1278 C 0.44477 0.60825 0.89415 0.0
C1279 C 0.46021 0.61344 0.86541 0.0
C1280 C 0.45318 0.62565 0.83344 0.0
C1281 C 0.43148 0.63282 0.83054 0.0
C1282 C 0.5169 0.6055 0.90877 0.0
C1283 C 0.52975 0.60116 0.87607 0.0
C1284 C 0.49424 0.60868 0.90553 0.0
C1285 C 0.48382 0.60739 0.86955 0.0
C1286 C 0.49653 0.60183 0.83719 0.0
C1287 C 0.51924 0.59887 0.84037 0.0
H1288 H 0.15354 0.66755 0.57524 0.0
H1289 H 0.12405 0.66818 0.688 0.0
H1290 H 0.1651 0.70547 0.5836 0.0
H1291 H 0.13479 0.70655 0.69586 0.0
H1292 H 0.16483 0.77419 0.7067 0.0
H1293 H 0.16248 0.73422 0.70274 0.0
H1294 H 0.14638 0.73931 0.58216 0.0
H1295 H 0.14946 0.7789 0.58582 0.0
C1296 C 0.14969 0.67578 0.602 0.0
C1297 C 0.13767 0.66498 0.6308 0.0
C1298 C 0.15618 0.69758 0.6067 0.0
C1299 C 0.15049 0.70929 0.64006 0.0
C1300 C 0.13958 0.69806 0.66986 0.0
C1301 C 0.13335 0.67607 0.66536 0.0
C1302 C 0.16112 0.76672 0.67923 0.0
C1303 C 0.15727 0.77979 0.64659 0.0
C1304 C 0.15962 0.7438 0.67703 0.0
C1305 C 0.15418 0.73346 0.64217 0.0
C1306 C 0.15099 0.74657 0.60937 0.0
C1307 C 0.15261 0.76939 0.61152 0.0
H1308 H 0.0858 0.38662 0.43578 0.0
H1309 H 0.0764 0.36369 0.31945 0.0
H1310 H 0.04736 0.39819 0.43802 0.0
H1311 H 0.03818 0.37439 0.32215 0.0
H1312 H 0.97297 0.40672 0.3243 0.0
H1313 H 0.01286 0.40363 0.32354 0.0
H1314 H 0.01187 0.38181 0.44166 0.0
H1315 H 0.97213 0.38579 0.44283 0.0
C1316 C 0.0756 0.38413 0.41067 0.0
C1317 C 0.08419 0.37415 0.37752 0.0
C1318 C 0.05353 0.39064 0.41201 0.0
C1319 C 0.03958 0.38722 0.38028 0.0
C1320 C 0.04842 0.37771 0.34691 0.0
C1321 C 0.07041 0.37137 0.34549 0.0
C1322 C 0.98131 0.40154 0.35024 0.0
C1323 C 0.96934 0.39629 0.38348 0.0
C1324 C 0.00419 0.39964 0.34978 0.0
C1325 C 0.01564 0.39217 0.38238 0.0
C1326 C 0.0037 0.38783 0.41612 0.0
C1327 C 0.98084 0.38997 0.41672 0.0
H1328 H 0.38744 0.68129 0.44337 0.0
H1329 H 0.36261 0.66314 0.33153 0.0
H1330 H 0.37553 0.71876 0.43311 0.0
H1331 H 0.34985 0.70077 0.32172 0.0
H1332 H 0.35812 0.77575 0.30098 0.0
H1333 H 0.36414 0.73655 0.30967 0.0
H1334 H 0.3449 0.74231 0.42875 0.0
H1335 H 0.33978 0.78166 0.42038 0.0
C1336 C 0.37915 0.68522 0.41673 0.0
C1337 C 0.37607 0.66918 0.38821 0.0
C1338 C 0.37211 0.70676 0.41095 0.0
C1339 C 0.36158 0.71287 0.37664 0.0
C1340 C 0.35813 0.69673 0.34832 0.0
C1341 C 0.36535 0.67513 0.35399 0.0
C1342 C 0.35487 0.76859 0.32889 0.0
C1343 C 0.34874 0.78188 0.36012 0.0
C1344 C 0.35824 0.74605 0.33385 0.0
C1345 C 0.35532 0.73624 0.37007 0.0
C1346 C 0.34787 0.74937 0.40069 0.0
C1347 C 0.34477 0.77193 0.39585 0.0
H1348 H 0.96891 0.59677 0.16934 0.0
H1349 H 0.96553 0.62336 0.05443 0.0
H1350 H 0.00876 0.59991 0.16797 0.0
H1351 H 0.00537 0.62714 0.05354 0.0
H1352 H 0.07955 0.61957 0.05406 0.0
H1353 H 0.04076 0.60916 0.05288 0.0
H1354 H 0.03427 0.62951 0.17124 0.0
H1355 H 0.07283 0.63925 0.17275 0.0
C1356 C 0.97666 0.60323 0.14372 0.0
C1357 C 0.96398 0.61002 0.11215 0.0
C1358 C 0.99953 0.60512 0.143 0.0
C1359 C 0.0103 0.61403 0.11082 0.0
C1360 C 0.99768 0.62002 0.07866 0.0
C1361 C 0.97479 0.61798 0.07927 0.0
C1362 C 0.06987 0.62155 0.07993 0.0
C1363 C 0.07932 0.63033 0.11344 0.0
C1364 C 0.04761 0.61572 0.07919 0.0
C1365 C 0.03434 0.61852 0.11194 0.0
C1366 C 0.044 0.62677 0.14564 0.0
C1367 C 0.06616 0.63254 0.14641 0.0
H1368 H 0.14467 0.21944 0.9152 0.0
H1369 H 0.16151 0.22522 0.79507 0.0
H1370 H 0.13997 0.25889 0.91912 0.0
H1371 H 0.15757 0.26504 0.79933 0.0
H1372 H 0.11742 0.32987 0.81229 0.0
H1373 H 0.12901 0.29171 0.80508 0.0
H1374 H 0.15728 0.29339 0.91895 0.0
H1375 H 0.14484 0.33106 0.92661 0.0
C1376 C 0.14781 0.22918 0.88975 0.0
C1377 C 0.15336 0.21911 0.85477 0.0
C1378 C 0.14524 0.25191 0.89205 0.0
C1379 C 0.14837 0.26526 0.85952 0.0
C1380 C 0.1547 0.25527 0.82481 0.0
C1381 C 0.15712 0.23244 0.82244 0.0
C1382 C 0.1264 0.32214 0.83548 0.0
C1383 C 0.12994 0.33334 0.87019 0.0
C1384 C 0.13314 0.30027 0.83135 0.0
C1385 C 0.1438 0.28928 0.86169 0.0
C1386 C 0.14858 0.30107 0.89539 0.0
C1387 C 0.14157 0.32274 0.89971 0.0
H1388 H 0.42235 0.37966 0.54685 0.0
H1389 H 0.43277 0.36931 0.66829 0.0
H1390 H 0.46057 0.39157 0.54025 0.0
H1391 H 0.47067 0.3803 0.66154 0.0
H1392 H 0.53636 0.3791 0.53937 0.0
H1393 H 0.4965 0.37545 0.54139 0.0
H1394 H 0.49532 0.40933 0.65049 0.0
H1395 H 0.53519 0.41207 0.64918 0.0
C1396 C 0.43269 0.38008 0.57214 0.0
C1397 C 0.42449 0.37342 0.60804 0.0
C1398 C 0.45463 0.38676 0.56833 0.0
C1399 C 0.46878 0.38689 0.60034 0.0
C1400 C 0.46027 0.38084 0.63633 0.0
C1401 C 0.43846 0.37431 0.64015 0.0
C1402 C 0.52754 0.386 0.56355 0.0
C1403 C 0.53895 0.39555 0.59442 0.0
C1404 C 0.50464 0.38403 0.56461 0.0
C1405 C 0.49265 0.39182 0.59637 0.0
C1406 C 0.50404 0.40262 0.62604 0.0
C1407 C 0.52691 0.4043 0.62523 0.0
H1408 H 0.09619 0.08557 0.56416 0.0
H1409 H 0.15859 0.09609 0.50837 0.0
H1410 H 0.11355 0.09092 0.6268 0.0
H1411 H 0.17581 0.10242 0.57123 0.0
H1412 H 0.15607 0.09396 0.73548 0.0
H1413 H 0.15071 0.07617 0.6728 0.0
H1414 H 0.15864 0.13875 0.61653 0.0
H1415 H 0.16301 0.15663 0.67897 0.0
C1416 C 0.11377 0.08826 0.56547 0.0
C1417 C 0.12611 0.09032 0.53162 0.0
C1418 C 0.12369 0.09128 0.60123 0.0
C1419 C 0.14598 0.09701 0.60364 0.0
C1420 C 0.15865 0.09777 0.56996 0.0
C1421 C 0.14883 0.09408 0.53415 0.0
C1422 C 0.15747 0.10372 0.70958 0.0
C1423 C 0.15997 0.12662 0.71185 0.0
C1424 C 0.15435 0.09357 0.67388 0.0
C1425 C 0.15443 0.10613 0.64006 0.0
C1426 C 0.15884 0.12872 0.64222 0.0
C1427 C 0.16128 0.13893 0.67787 0.0
H1428 H 0.17151 0.84914 0.81766 0.0
H1429 H 0.15683 0.90812 0.75407 0.0
H1430 H 0.16694 0.86916 0.87791 0.0
H1431 H 0.15135 0.92804 0.81462 0.0
H1432 H 0.09844 0.91923 0.92244 0.0
H1433 H 0.11735 0.91477 0.86108 0.0
H1434 H 0.17868 0.90516 0.92086 0.0
H1435 H 0.15979 0.91057 0.98246 0.0
C1436 C 0.16814 0.86661 0.81667 0.0
C1437 C 0.16455 0.87714 0.78141 0.0
C1438 C 0.16559 0.87808 0.85109 0.0
C1439 C 0.15878 0.90011 0.8508 0.0
C1440 C 0.15678 0.9111 0.81549 0.0
C1441 C 0.15998 0.89974 0.78095 0.0
C1442 C 0.11613 0.91726 0.92232 0.0
C1443 C 0.12772 0.91532 0.95695 0.0
C1444 C 0.12697 0.91474 0.88726 0.0
C1445 C 0.14945 0.9096 0.88635 0.0
C1446 C 0.16137 0.90929 0.9209 0.0
C1447 C 0.1506 0.91247 0.95602 0.0
H1448 H 0.34332 0.90371 0.01374 0.0
H1449 H 0.40547 0.91455 0.07008 0.0
H1450 H 0.32571 0.89831 0.07654 0.0
H1451 H 0.38776 0.91017 0.13264 0.0
H1452 H 0.34704 0.90712 0.24139 0.0
H1453 H 0.35216 0.92487 0.17865 0.0
H1454 H 0.34083 0.86281 0.1223 0.0
H1455 H 0.33673 0.84496 0.18479 0.0
C1456 C 0.35294 0.90601 0.0396 0.0
C1457 C 0.37569 0.90958 0.03731 0.0
C1458 C 0.3429 0.90286 0.07539 0.0
C1459 C 0.3554 0.90396 0.10925 0.0
C1460 C 0.37773 0.90956 0.10695 0.0
C1461 C 0.38787 0.91202 0.07124 0.0
C1462 C 0.3448 0.89752 0.21549 0.0
C1463 C 0.34146 0.87473 0.21768 0.0
C1464 C 0.34779 0.90764 0.17973 0.0
C1465 C 0.34676 0.89518 0.14582 0.0
C1466 C 0.34139 0.8728 0.14803 0.0
C1467 C 0.33908 0.86259 0.18371 0.0
H1468 H 0.4057 0.08096 0.42153 0.0
H1469 H 0.34451 0.09029 0.48184 0.0
H1470 H 0.38674 0.08562 0.36026 0.0
H1471 H 0.3256 0.09585 0.42031 0.0
H1472 H 0.34649 0.0914 0.2534 0.0
H1473 H 0.35267 0.07211 0.31438 0.0
H1474 H 0.33711 0.13144 0.37641 0.0
H1475 H 0.33183 0.15084 0.31572 0.0
C1476 C 0.38804 0.0832 0.42152 0.0
C1477 C 0.37652 0.08523 0.45622 0.0
C1478 C 0.37718 0.08581 0.3865 0.0
C1479 C 0.35473 0.0911 0.38567 0.0
C1480 C 0.34288 0.09161 0.42029 0.0
C1481 C 0.35366 0.08835 0.45538 0.0
C1482 C 0.34353 0.10001 0.28014 0.0
C1483 C 0.3387 0.12256 0.28008 0.0
C1484 C 0.34714 0.08901 0.31491 0.0
C1485 C 0.34531 0.10031 0.34997 0.0
C1486 C 0.33835 0.12229 0.34981 0.0
C1487 C 0.33538 0.13341 0.31514 0.0
H1488 H 0.88195 0.84413 0.30552 0.0
H1489 H 0.84388 0.90206 0.27881 0.0
H1490 H 0.88948 0.85848 0.369 0.0
H1491 H 0.8516 0.91658 0.34354 0.0
H1492 H 0.85756 0.91105 0.48605 0.0
H1493 H 0.84589 0.9053 0.41911 0.0
H1494 H 0.91313 0.89221 0.38717 0.0
H1495 H 0.92462 0.89749 0.45345 0.0
C1496 C 0.87502 0.8599 0.3133 0.0
C1497 C 0.86258 0.8721 0.28692 0.0
C1498 C 0.87944 0.86816 0.34967 0.0
C1499 C 0.87157 0.88886 0.36076 0.0
C1500 C 0.85799 0.90064 0.33544 0.0
C1501 C 0.85356 0.89232 0.29857 0.0
C1502 C 0.86987 0.90774 0.46434 0.0
C1503 C 0.89193 0.9044 0.4748 0.0
C1504 C 0.86319 0.9044 0.42617 0.0
C1505 C 0.87857 0.89784 0.39834 0.0
C1506 C 0.9009 0.89684 0.40829 0.0
C1507 C 0.90748 0.89995 0.44615 0.0
H1508 H 0.9218 0.10995 0.05356 0.0
H1509 H 0.85678 0.0896 0.01897 0.0
H1510 H 0.90857 0.11651 0.11839 0.0
H1511 H 0.84338 0.09645 0.08465 0.0
H1512 H 0.84281 0.09986 0.22708 0.0
H1513 H 0.85044 0.0863 0.1617 0.0
H1514 H 0.88082 0.1483 0.13375 0.0
H1515 H 0.87341 0.16168 0.19811 0.0
C1516 C 0.90475 0.10641 0.06008 0.0
C1517 C 0.89024 0.09957 0.03116 0.0
C1518 C 0.89717 0.11024 0.09714 0.0
C1519 C 0.87488 0.10746 0.10615 0.0
C1520 C 0.86064 0.09878 0.07825 0.0
C1521 C 0.86831 0.09482 0.04083 0.0
C1522 C 0.85061 0.1107 0.20654 0.0
C1523 C 0.85784 0.13169 0.21776 0.0
C1524 C 0.85501 0.10293 0.16931 0.0
C1525 C 0.86666 0.11611 0.14318 0.0
C1526 C 0.87225 0.13764 0.15367 0.0
C1527 C 0.86794 0.14532 0.19049 0.0
H1528 H 0.6028 0.15175 0.80325 0.0
H1529 H 0.66526 0.11795 0.80273 0.0
H1530 H 0.59919 0.14512 0.87136 0.0
H1531 H 0.66164 0.11151 0.8723 0.0
H1532 H 0.62822 0.08854 0.99213 0.0
H1533 H 0.63644 0.09163 0.92304 0.0
H1534 H 0.61963 0.16048 0.92688 0.0
H1535 H 0.61115 0.15742 0.99455 0.0
C1536 C 0.61586 0.14293 0.8177 0.0
C1537 C 0.63449 0.13566 0.79761 0.0
C1538 C 0.61377 0.13916 0.85686 0.0
C1539 C 0.6303 0.12813 0.87725 0.0
C1540 C 0.64868 0.1201 0.85719 0.0
C1541 C 0.65079 0.12388 0.81755 0.0
C1542 C 0.62648 0.10432 0.97809 0.0
C1543 C 0.6186 0.12262 0.99852 0.0
C1544 C 0.63128 0.1061 0.93873 0.0
C1545 C 0.62827 0.12621 0.91954 0.0
C1546 C 0.6216 0.14466 0.94068 0.0
C1547 C 0.61673 0.14287 0.97953 0.0
H1548 H 0.65054 0.90871 0.51642 0.0
H1549 H 0.58573 0.90147 0.56515 0.0
H1550 H 0.66676 0.90302 0.58042 0.0
H1551 H 0.60189 0.89633 0.62866 0.0
H1552 H 0.64471 0.84004 0.68825 0.0
H1553 H 0.63932 0.8566 0.62518 0.0
H1554 H 0.65018 0.9209 0.67338 0.0
H1555 H 0.65611 0.90423 0.73704 0.0
C1556 C 0.63979 0.90692 0.541 0.0
C1557 C 0.61692 0.90538 0.53598 0.0
C1558 C 0.64906 0.90366 0.57745 0.0
C1559 C 0.63547 0.89935 0.60911 0.0
C1560 C 0.6126 0.89984 0.60456 0.0
C1561 C 0.6034 0.90272 0.56829 0.0
C1562 C 0.64672 0.85763 0.68521 0.0
C1563 C 0.65073 0.87088 0.71743 0.0
C1564 C 0.6437 0.86706 0.64918 0.0
C1565 C 0.6444 0.88992 0.64475 0.0
C1566 C 0.64986 0.90319 0.67628 0.0
C1567 C 0.65326 0.89367 0.7125 0.0
H1568 H 0.58034 0.61441 0.05182 0.0
H1569 H 0.64474 0.59062 0.02052 0.0
H1570 H 0.59325 0.62189 0.1165 0.0
H1571 H 0.65784 0.5984 0.08607 0.0
H1572 H 0.65826 0.60386 0.22726 0.0
H1573 H 0.65052 0.59002 0.16215 0.0
H1574 H 0.62129 0.65236 0.13279 0.0
H1575 H 0.62879 0.66602 0.19693 0.0
C1576 C 0.59718 0.61038 0.05902 0.0
C1577 C 0.61162 0.60224 0.03103 0.0
C1578 C 0.60459 0.61475 0.09601 0.0
C1579 C 0.62666 0.61122 0.1059 0.0
C1580 C 0.64077 0.60136 0.07899 0.0
C1581 C 0.63326 0.59687 0.04164 0.0
C1582 C 0.65067 0.6147 0.20648 0.0
C1583 C 0.64381 0.6359 0.21727 0.0
C1584 C 0.64621 0.60677 0.16939 0.0
C1585 C 0.63484 0.61998 0.14292 0.0
C1586 C 0.6296 0.64167 0.15298 0.0
C1587 C 0.63398 0.64951 0.18968 0.0
H1588 H 0.64567 0.36619 0.45938 0.0
H1589 H 0.62443 0.43376 0.45884 0.0
H1590 H 0.65654 0.36921 0.39222 0.0
H1591 H 0.63472 0.43666 0.39065 0.0
H1592 H 0.6112 0.40301 0.26974 0.0
H1593 H 0.61392 0.41372 0.33705 0.0
H1594 H 0.68069 0.38992 0.34039 0.0
H1595 H 0.67812 0.37977 0.27217 0.0
C1596 C 0.64391 0.38188 0.44501 0.0
C1597 C 0.63417 0.39972 0.46394 0.0
C1598 C 0.65028 0.38366 0.4067 0.0
C1599 C 0.6465 0.40317 0.38632 0.0
C1600 C 0.63792 0.42149 0.40591 0.0
C1601 C 0.63206 0.41985 0.44474 0.0
C1602 C 0.62672 0.40084 0.28452 0.0
C1603 C 0.64442 0.39052 0.2661 0.0
C1604 C 0.62833 0.4071 0.32292 0.0
C1605 C 0.64751 0.40262 0.34387 0.0
C1606 C 0.66578 0.39364 0.32472 0.0
C1607 C 0.66433 0.38787 0.28583 0.0
H1608 H 0.84075 0.39702 0.72829 0.0
H1609 H 0.8716 0.33528 0.69949 0.0
H1610 H 0.8477 0.41027 0.66249 0.0
H1611 H 0.87829 0.34833 0.63477 0.0
H1612 H 0.91719 0.38533 0.55063 0.0
H1613 H 0.90534 0.37931 0.61641 0.0
H1614 H 0.83977 0.40034 0.58681 0.0
H1615 H 0.85187 0.40678 0.52019 0.0
C1616 C 0.84852 0.38615 0.70775 0.0
C1617 C 0.85596 0.36526 0.71911 0.0
C1618 C 0.85252 0.39374 0.67028 0.0
C1619 C 0.864 0.38048 0.64402 0.0
C1620 C 0.86989 0.35908 0.65476 0.0
C1621 C 0.86598 0.35159 0.69182 0.0
C1622 C 0.90037 0.38918 0.55827 0.0
C1623 C 0.88536 0.39621 0.53031 0.0
C1624 C 0.89357 0.38566 0.59587 0.0
C1625 C 0.87153 0.38886 0.60634 0.0
C1626 C 0.85683 0.39768 0.5793 0.0
C1627 C 0.86375 0.40139 0.54135 0.0
H1628 H 0.87748 0.65575 0.97297 0.0
H1629 H 0.87343 0.58538 0.9594 0.0
H1630 H 0.86906 0.66069 0.90552 0.0
H1631 H 0.8656 0.59036 0.89056 0.0
H1632 H 0.83801 0.61362 0.77 0.0
H1633 H 0.83962 0.60629 0.83949 0.0
H1634 H 0.89237 0.65333 0.85031 0.0
H1635 H 0.89055 0.66085 0.78237 0.0
C1636 C 0.87475 0.64129 0.95546 0.0
C1637 C 0.87656 0.62016 0.97121 0.0
C1638 C 0.86993 0.64413 0.91677 0.0
C1639 C 0.86717 0.62592 0.89254 0.0
C1640 C 0.86768 0.6047 0.9086 0.0
C1641 C 0.87226 0.60184 0.94783 0.0
C1642 C 0.84981 0.62243 0.78744 0.0
C1643 C 0.864 0.63797 0.77072 0.0
C1644 C 0.85081 0.61814 0.82706 0.0
C1645 C 0.86592 0.62945 0.85041 0.0
C1646 C 0.88019 0.6447 0.83335 0.0
C1647 C 0.87921 0.64894 0.7942 0.0
H1648 H 0.33754 0.38226 0.7658 0.0
H1649 H 0.3857 0.33176 0.78852 0.0
H1650 H 0.33742 0.39193 0.83445 0.0
H1651 H 0.38584 0.34151 0.8557 0.0
H1652 H 0.36967 0.34634 0.977 0.0
H1653 H 0.36128 0.33872 0.91022 0.0
H1654 H 0.36326 0.40814 0.8849 0.0
H1655 H 0.37094 0.41587 0.95301 0.0
C1656 C 0.34793 0.37316 0.78538 0.0
C1657 C 0.36154 0.35617 0.77177 0.0
C1658 C 0.34797 0.37878 0.82452 0.0
C1659 C 0.36145 0.36733 0.85054 0.0
C1660 C 0.37491 0.35037 0.83666 0.0
C1661 C 0.37492 0.34485 0.79794 0.0
C1662 C 0.36805 0.36004 0.95732 0.0
C1663 C 0.37139 0.38166 0.9699 0.0
C1664 C 0.36326 0.35567 0.91905 0.0
C1665 C 0.36214 0.37278 0.89211 0.0
C1666 C 0.36405 0.39462 0.90504 0.0
C1667 C 0.36853 0.39904 0.94387 0.0
H1668 H 0.34488 0.5988 0.74292 0.0
H1669 H 0.33475 0.66113 0.68681 0.0
H1670 H 0.34937 0.58109 0.68004 0.0
H1671 H 0.33827 0.64334 0.6242 0.0
H1672 H 0.34164 0.60386 0.51502 0.0
H1673 H 0.32354 0.60892 0.57751 0.0
H1674 H 0.38476 0.5949 0.6349 0.0
H1675 H 0.40295 0.59084 0.57271 0.0
C1676 C 0.3425 0.60846 0.71713 0.0
C1677 C 0.33949 0.63128 0.71948 0.0
C1678 C 0.34514 0.59836 0.68128 0.0
C1679 C 0.34408 0.61088 0.64745 0.0
C1680 C 0.33886 0.63329 0.64986 0.0
C1681 C 0.3369 0.64347 0.68561 0.0
C1682 C 0.35093 0.60101 0.54108 0.0
C1683 C 0.37361 0.59692 0.53933 0.0
C1684 C 0.34063 0.60396 0.57668 0.0
C1685 C 0.35278 0.60218 0.61084 0.0
C1686 C 0.37499 0.59604 0.60897 0.0
C1687 C 0.3854 0.59377 0.57348 0.0
H1688 H 0.15125 0.59185 0.45565 0.0
H1689 H 0.09889 0.63904 0.44106 0.0
H1690 H 0.16372 0.59934 0.38962 0.0
H1691 H 0.11105 0.64621 0.37615 0.0
H1692 H 0.14859 0.67583 0.28366 0.0
H1693 H 0.14413 0.66497 0.35038 0.0
H1694 H 0.15089 0.59681 0.31822 0.0
H1695 H 0.15602 0.60788 0.25088 0.0
C1696 C 0.14228 0.60357 0.43829 0.0
C1697 C 0.12427 0.61507 0.45371 0.0
C1698 C 0.14943 0.60786 0.40063 0.0
C1699 C 0.13868 0.62376 0.37814 0.0
C1700 C 0.12008 0.63435 0.39314 0.0
C1701 C 0.11302 0.63012 0.43036 0.0
C1702 C 0.14972 0.65856 0.29094 0.0
C1703 C 0.15236 0.64267 0.26218 0.0
C1704 C 0.14704 0.65232 0.32909 0.0
C1705 C 0.14655 0.63001 0.33931 0.0
C1706 C 0.15112 0.61412 0.31109 0.0
C1707 C 0.15409 0.62044 0.27265 0.0
H1708 H 0.1577 0.39742 0.24094 0.0
H1709 H 0.15514 0.32959 0.20533 0.0
H1710 H 0.15055 0.409 0.17438 0.0
H1711 H 0.14852 0.34104 0.13937 0.0
H1712 H 0.09535 0.36553 0.05995 0.0
H1713 H 0.11109 0.35951 0.12292 0.0
H1714 H 0.16272 0.40594 0.09807 0.0
H1715 H 0.14682 0.4121 0.03382 0.0
C1716 C 0.15658 0.38507 0.21863 0.0
C1717 C 0.15668 0.36263 0.2281 0.0
C1718 C 0.15244 0.39168 0.18068 0.0
C1719 C 0.14852 0.37586 0.15209 0.0
C1720 C 0.15109 0.35353 0.16107 0.0
C1721 C 0.15497 0.34698 0.19873 0.0
C1722 C 0.10996 0.37466 0.06776 0.0
C1723 C 0.12001 0.38907 0.04166 0.0
C1724 C 0.11903 0.37111 0.10382 0.0
C1725 C 0.1384 0.38185 0.1149 0.0
C1726 C 0.14787 0.39732 0.08993 0.0
C1727 C 0.13875 0.40086 0.05336 0.0
loop_
_geom_bond_atom_site_label_1
_geom_bond_atom_site_label_2
_geom_bond_distance
_geom_bond_site_symmetry_2
_ccdc_geom_bond_type
O0 Cd1 2.223 . S
O0 C8 1.315 . S
Cd1 O0 2.223 . S
Cd1 O4 2.297 . S
Cd1 O5 2.439 . S
Cd1 O11 2.240 . S
Cd2 O3 2.240 . S
Cd2 O10 2.223 . S
Cd2 O12 2.297 . S
Cd2 O13 2.439 . S
O3 Cd2 2.240 . S
O3 C8 1.279 . S
O4 Cd1 2.297 . S
O4 C6 1.247 . S
O5 Cd1 2.439 . S
O5 C6 1.208 . S
C6 O4 1.247 . S
C6 O5 1.208 . S
C7 O12 1.247 . S
C7 O13 1.208 . S
C8 O0 1.315 . S
C8 O3 1.279 . S
C9 O10 1.315 . S
C9 O11 1.279 . S
O10 Cd2 2.223 . S
O10 C9 1.315 . S
O11 Cd1 2.240 . S
O11 C9 1.279 . S
O12 Cd2 2.297 . S
O12 C7 1.247 . S
O13 Cd2 2.439 . S
O13 C7 1.208 . S
O14 Cd15 2.223 . S
O14 C22 1.315 . S
Cd15 O14 2.223 . S
Cd15 O18 2.297 . S
Cd15 O19 2.439 . S
Cd15 O25 2.240 . S
Cd16 O17 2.240 . S
Cd16 O24 2.223 . S
Cd16 O26 2.297 . S
Cd16 O27 2.439 . S
O17 Cd16 2.240 . S
O17 C22 1.279 . S
O18 Cd15 2.297 . S
O18 C20 1.247 . S
O19 Cd15 2.439 . S
O19 C20 1.208 . S
C20 O18 1.247 . S
C20 O19 1.208 . S
C21 O26 1.247 . S
C21 O27 1.208 . S
C22 O14 1.315 . S
C22 O17 1.279 . S
C23 O24 1.315 . S
C23 O25 1.279 . S
O24 Cd16 2.223 . S
O24 C23 1.315 . S
O25 Cd15 2.240 . S
O25 C23 1.279 . S
O26 Cd16 2.297 . S
O26 C21 1.247 . S
O27 Cd16 2.439 . S
O27 C21 1.208 . S
O28 Cd29 2.223 . S
O28 C36 1.315 . S
Cd29 O28 2.223 . S
Cd29 O32 2.297 . S
Cd29 O33 2.439 . S
Cd29 O39 2.240 . S
Cd30 O31 2.240 . S
Cd30 O38 2.223 . S
Cd30 O40 2.297 1_556 S
Cd30 O41 2.439 . S
O31 Cd30 2.240 . S
O31 C36 1.279 . S
O32 Cd29 2.297 . S
O32 C34 1.247 . S
O33 Cd29 2.439 . S
O33 C34 1.208 . S
C34 O32 1.247 . S
C34 O33 1.208 . S
C35 O40 1.247 1_556 S
C35 O41 1.208 . S
C36 O28 1.315 . S
C36 O31 1.279 . S
C37 O38 1.315 . S
C37 O39 1.279 . S
O38 Cd30 2.223 . S
O38 C37 1.315 . S
O39 Cd29 2.240 . S
O39 C37 1.279 . S
O40 Cd30 2.297 1_554 S
O40 C35 1.247 1_554 S
O41 Cd30 2.439 . S
O41 C35 1.208 . S
O42 Cd43 2.223 . S
O42 C50 1.315 . S
Cd43 O42 2.223 . S
Cd43 O46 2.297 . S
Cd43 O47 2.439 . S
Cd43 O53 2.240 . S
Cd44 O45 2.240 . S
Cd44 O52 2.223 . S
Cd44 O54 2.297 . S
Cd44 O55 2.439 . S
O45 Cd44 2.240 . S
O45 C50 1.279 . S
O46 Cd43 2.297 . S
O46 C48 1.247 . S
O47 Cd43 2.439 . S
O47 C48 1.208 . S
C48 O46 1.247 . S
C48 O47 1.208 . S
C49 O54 1.247 . S
C49 O55 1.208 . S
C50 O42 1.315 . S
C50 O45 1.279 . S
C51 O52 1.315 . S
C51 O53 1.279 . S
O52 Cd44 2.223 . S
O52 C51 1.315 . S
O53 Cd43 2.240 . S
O53 C51 1.279 . S
O54 Cd44 2.297 . S
O54 C49 1.247 . S
O55 Cd44 2.439 . S
O55 C49 1.208 . S
O56 Cd57 2.223 . S
O56 C64 1.315 . S
Cd57 O56 2.223 . S
Cd57 O60 2.297 . S
Cd57 O61 2.439 . S
Cd57 O67 2.240 . S
Cd58 O59 2.240 . S
Cd58 O66 2.223 . S
Cd58 O68 2.297 1_554 S
Cd58 O69 2.439 . S
O59 Cd58 2.240 . S
O59 C64 1.279 . S
O60 Cd57 2.297 . S
O60 C62 1.247 . S
O61 Cd57 2.439 . S
O61 C62 1.208 . S
C62 O60 1.247 . S
C62 O61 1.208 . S
C63 O68 1.247 1_554 S
C63 O69 1.208 . S
C64 O56 1.315 . S
C64 O59 1.279 . S
C65 O66 1.315 . S
C65 O67 1.279 . S
O66 Cd58 2.223 . S
O66 C65 1.315 . S
O67 Cd57 2.240 . S
O67 C65 1.279 . S
O68 Cd58 2.297 1_556 S
O68 C63 1.247 1_556 S
O69 Cd58 2.439 . S
O69 C63 1.208 . S
O70 Cd71 2.223 . S
O70 C78 1.315 . S
Cd71 O70 2.223 . S
Cd71 O74 2.297 . S
Cd71 O75 2.439 . S
Cd71 O81 2.240 . S
Cd72 O73 2.240 . S
Cd72 O80 2.223 . S
Cd72 O82 2.297 . S
Cd72 O83 2.439 . S
O73 Cd72 2.240 . S
O73 C78 1.279 . S
O74 Cd71 2.297 . S
O74 C76 1.247 . S
O75 Cd71 2.439 . S
O75 C76 1.208 . S
C76 O74 1.247 . S
C76 O75 1.208 . S
C77 O82 1.247 . S
C77 O83 1.208 . S
C78 O70 1.315 . S
C78 O73 1.279 . S
C79 O80 1.315 . S
C79 O81 1.279 . S
O80 Cd72 2.223 . S
O80 C79 1.315 . S
O81 Cd71 2.240 . S
O81 C79 1.279 . S
O82 Cd72 2.297 . S
O82 C77 1.247 . S
O83 Cd72 2.439 . S
O83 C77 1.208 . S
O84 Cd85 2.223 . S
O84 C92 1.315 . S
Cd85 O84 2.223 . S
Cd85 O88 2.297 . S
Cd85 O89 2.439 . S
Cd85 O95 2.240 . S
Cd86 O87 2.240 . S
Cd86 O94 2.223 . S
Cd86 O96 2.297 . S
Cd86 O97 2.439 . S
O87 Cd86 2.240 . S
O87 C92 1.279 . S
O88 Cd85 2.297 . S
O88 C90 1.247 . S
O89 Cd85 2.439 . S
O89 C90 1.208 . S
C90 O88 1.247 . S
C90 O89 1.208 . S
C91 O96 1.247 . S
C91 O97 1.208 . S
C92 O84 1.315 . S
C92 O87 1.279 . S
C93 O94 1.315 . S
C93 O95 1.279 . S
O94 Cd86 2.223 . S
O94 C93 1.315 . S
O95 Cd85 2.240 . S
O95 C93 1.279 . S
O96 Cd86 2.297 . S
O96 C91 1.247 . S
O97 Cd86 2.439 . S
O97 C91 1.208 . S
O98 Cd99 2.223 . S
O98 C106 1.315 . S
Cd99 O98 2.223 . S
Cd99 O102 2.297 . S
Cd99 O103 2.439 . S
Cd99 O109 2.240 . S
Cd100 O101 2.240 . S
Cd100 O108 2.223 . S
Cd100 O110 2.297 . S
Cd100 O111 2.439 . S
O101 Cd100 2.240 . S
O101 C106 1.279 . S
O102 Cd99 2.297 . S
O102 C104 1.247 . S
O103 Cd99 2.439 . S
O103 C104 1.208 . S
C104 O102 1.247 . S
C104 O103 1.208 . S
C105 O110 1.247 . S
C105 O111 1.208 . S
C106 O98 1.315 . S
C106 O101 1.279 . S
C107 O108 1.315 . S
C107 O109 1.279 . S
O108 Cd100 2.223 . S
O108 C107 1.315 . S
O109 Cd99 2.240 . S
O109 C107 1.279 . S
O110 Cd100 2.297 . S
O110 C105 1.247 . S
O111 Cd100 2.439 . S
O111 C105 1.208 . S
O112 Cd113 2.223 . S
O112 C120 1.315 . S
Cd113 O112 2.223 . S
Cd113 O116 2.297 . S
Cd113 O117 2.439 . S
Cd113 O123 2.240 . S
Cd114 O115 2.240 . S
Cd114 O122 2.223 . S
Cd114 O124 2.297 . S
Cd114 O125 2.439 . S
O115 Cd114 2.240 . S
O115 C120 1.279 . S
O116 Cd113 2.297 . S
O116 C118 1.247 . S
O117 Cd113 2.439 . S
O117 C118 1.208 . S
C118 O116 1.247 . S
C118 O117 1.208 . S
C119 O124 1.247 . S
C119 O125 1.208 . S
C120 O112 1.315 . S
C120 O115 1.279 . S
C121 O122 1.315 . S
C121 O123 1.279 . S
O122 Cd114 2.223 . S
O122 C121 1.315 . S
O123 Cd113 2.240 . S
O123 C121 1.279 . S
O124 Cd114 2.297 . S
O124 C119 1.247 . S
O125 Cd114 2.439 . S
O125 C119 1.208 . S
O126 Cd127 2.223 . S
O126 C134 1.315 . S
Cd127 O126 2.223 . S
Cd127 O130 2.297 . S
Cd127 O131 2.439 . S
Cd127 O137 2.240 . S
Cd128 O129 2.240 . S
Cd128 O136 2.223 . S
Cd128 O138 2.297 . S
Cd128 O139 2.439 . S
O129 Cd128 2.240 . S
O129 C134 1.279 . S
O130 Cd127 2.297 . S
O130 C132 1.247 . S
O131 Cd127 2.439 . S
O131 C132 1.208 . S
C132 O130 1.247 . S
C132 O131 1.208 . S
C133 O138 1.247 . S
C133 O139 1.208 . S
C134 O126 1.315 . S
C134 O129 1.279 . S
C135 O136 1.315 . S
C135 O137 1.279 . S
O136 Cd128 2.223 . S
O136 C135 1.315 . S
O137 Cd127 2.240 . S
O137 C135 1.279 . S
O138 Cd128 2.297 . S
O138 C133 1.247 . S
O139 Cd128 2.439 . S
O139 C133 1.208 . S
O140 Cd141 2.223 . S
O140 C148 1.315 . S
Cd141 O140 2.223 . S
Cd141 O144 2.297 . S
Cd141 O145 2.439 . S
Cd141 O151 2.240 . S
Cd142 O143 2.240 . S
Cd142 O150 2.223 . S
Cd142 O152 2.297 1_554 S
Cd142 O153 2.439 . S
O143 Cd142 2.240 . S
O143 C148 1.279 . S
O144 Cd141 2.297 . S
O144 C146 1.247 . S
O145 Cd141 2.439 . S
O145 C146 1.208 . S
C146 O144 1.247 . S
C146 O145 1.208 . S
C147 O152 1.247 1_554 S
C147 O153 1.208 . S
C148 O140 1.315 . S
C148 O143 1.279 . S
C149 O150 1.315 . S
C149 O151 1.279 . S
O150 Cd142 2.223 . S
O150 C149 1.315 . S
O151 Cd141 2.240 . S
O151 C149 1.279 . S
O152 Cd142 2.297 1_556 S
O152 C147 1.247 1_556 S
O153 Cd142 2.439 . S
O153 C147 1.208 . S
O154 Cd155 2.223 . S
O154 C162 1.315 . S
Cd155 O154 2.223 . S
Cd155 O158 2.297 . S
Cd155 O159 2.439 . S
Cd155 O165 2.240 . S
Cd156 O157 2.240 . S
Cd156 O164 2.223 . S
Cd156 O166 2.297 . S
Cd156 O167 2.439 . S
O157 Cd156 2.240 . S
O157 C162 1.279 . S
O158 Cd155 2.297 . S
O158 C160 1.247 . S
O159 Cd155 2.439 . S
O159 C160 1.208 . S
C160 O158 1.247 . S
C160 O159 1.208 . S
C161 O166 1.247 . S
C161 O167 1.208 . S
C162 O154 1.315 . S
C162 O157 1.279 . S
C163 O164 1.315 . S
C163 O165 1.279 . S
O164 Cd156 2.223 . S
O164 C163 1.315 . S
O165 Cd155 2.240 . S
O165 C163 1.279 . S
O166 Cd156 2.297 . S
O166 C161 1.247 . S
O167 Cd156 2.439 . S
O167 C161 1.208 . S
O168 Cd169 2.223 . S
O168 C176 1.315 . S
Cd169 O168 2.223 . S
Cd169 O172 2.297 . S
Cd169 O173 2.439 . S
Cd169 O179 2.240 . S
Cd170 O171 2.240 . S
Cd170 O178 2.223 . S
Cd170 O180 2.297 1_556 S
Cd170 O181 2.439 . S
O171 Cd170 2.240 . S
O171 C176 1.279 . S
O172 Cd169 2.297 . S
O172 C174 1.247 . S
O173 Cd169 2.439 . S
O173 C174 1.208 . S
C174 O172 1.247 . S
C174 O173 1.208 . S
C175 O180 1.247 1_556 S
C175 O181 1.208 . S
C176 O168 1.315 . S
C176 O171 1.279 . S
C177 O178 1.315 . S
C177 O179 1.279 . S
O178 Cd170 2.223 . S
O178 C177 1.315 . S
O179 Cd169 2.240 . S
O179 C177 1.279 . S
O180 Cd170 2.297 1_554 S
O180 C175 1.247 1_554 S
O181 Cd170 2.439 . S
O181 C175 1.208 . S
O182 Cd183 2.223 . S
O182 C190 1.315 . S
Cd183 O182 2.223 . S
Cd183 O186 2.297 . S
Cd183 O187 2.439 . S
Cd183 O193 2.240 . S
Cd184 O185 2.240 . S
Cd184 O192 2.223 . S
Cd184 O194 2.297 . S
Cd184 O195 2.439 . S
O185 Cd184 2.240 . S
O185 C190 1.279 . S
O186 Cd183 2.297 . S
O186 C188 1.247 . S
O187 Cd183 2.439 . S
O187 C188 1.208 . S
C188 O186 1.247 . S
C188 O187 1.208 . S
C189 O194 1.247 . S
C189 O195 1.208 . S
C190 O182 1.315 . S
C190 O185 1.279 . S
C191 O192 1.315 . S
C191 O193 1.279 . S
O192 Cd184 2.223 . S
O192 C191 1.315 . S
O193 Cd183 2.240 . S
O193 C191 1.279 . S
O194 Cd184 2.297 . S
O194 C189 1.247 . S
O195 Cd184 2.439 . S
O195 C189 1.208 . S
O196 Cd197 2.223 . S
O196 C204 1.315 . S
Cd197 O196 2.223 . S
Cd197 O200 2.297 . S
Cd197 O201 2.439 . S
Cd197 O207 2.240 . S
Cd198 O199 2.240 . S
Cd198 O206 2.223 . S
Cd198 O208 2.297 . S
Cd198 O209 2.439 . S
O199 Cd198 2.240 . S
O199 C204 1.279 . S
O200 Cd197 2.297 . S
O200 C202 1.247 . S
O201 Cd197 2.439 . S
O201 C202 1.208 . S
C202 O200 1.247 . S
C202 O201 1.208 . S
C203 O208 1.247 . S
C203 O209 1.208 . S
C204 O196 1.315 . S
C204 O199 1.279 . S
C205 O206 1.315 . S
C205 O207 1.279 . S
O206 Cd198 2.223 . S
O206 C205 1.315 . S
O207 Cd197 2.240 . S
O207 C205 1.279 . S
O208 Cd198 2.297 . S
O208 C203 1.247 . S
O209 Cd198 2.439 . S
O209 C203 1.208 . S
O210 Cd211 2.223 . S
O210 C218 1.315 . S
Cd211 O210 2.223 . S
Cd211 O214 2.297 . S
Cd211 O215 2.439 . S
Cd211 O221 2.240 . S
Cd212 O213 2.240 . S
Cd212 O220 2.223 . S
Cd212 O222 2.297 . S
Cd212 O223 2.439 . S
O213 Cd212 2.240 . S
O213 C218 1.279 . S
O214 Cd211 2.297 . S
O214 C216 1.247 . S
O215 Cd211 2.439 . S
O215 C216 1.208 . S
C216 O214 1.247 . S
C216 O215 1.208 . S
C217 O222 1.247 . S
C217 O223 1.208 . S
C218 O210 1.315 . S
C218 O213 1.279 . S
C219 O220 1.315 . S
C219 O221 1.279 . S
O220 Cd212 2.223 . S
O220 C219 1.315 . S
O221 Cd211 2.240 . S
O221 C219 1.279 . S
O222 Cd212 2.297 . S
O222 C217 1.247 . S
O223 Cd212 2.439 . S
O223 C217 1.208 . S
O224 Cd225 2.223 . S
O224 C232 1.315 . S
Cd225 O224 2.223 . S
Cd225 O228 2.297 . S
Cd225 O229 2.439 . S
Cd225 O235 2.240 . S
Cd226 O227 2.240 . S
Cd226 O234 2.223 . S
Cd226 O236 2.297 1_556 S
Cd226 O237 2.439 . S
O227 Cd226 2.240 . S
O227 C232 1.279 . S
O228 Cd225 2.297 . S
O228 C230 1.247 . S
O229 Cd225 2.439 . S
O229 C230 1.208 . S
C230 O228 1.247 . S
C230 O229 1.208 . S
C231 O236 1.247 1_556 S
C231 O237 1.208 . S
C232 O224 1.315 . S
C232 O227 1.279 . S
C233 O234 1.315 . S
C233 O235 1.279 . S
O234 Cd226 2.223 . S
O234 C233 1.315 . S
O235 Cd225 2.240 . S
O235 C233 1.279 . S
O236 Cd226 2.297 1_554 S
O236 C231 1.247 1_554 S
O237 Cd226 2.439 . S
O237 C231 1.208 . S
O238 Cd239 2.223 . S
O238 C246 1.315 . S
Cd239 O238 2.223 . S
Cd239 O242 2.297 . S
Cd239 O243 2.439 . S
Cd239 O249 2.240 . S
Cd240 O241 2.240 . S
Cd240 O248 2.223 . S
Cd240 O250 2.297 . S
Cd240 O251 2.439 . S
O241 Cd240 2.240 . S
O241 C246 1.279 . S
O242 Cd239 2.297 . S
O242 C244 1.247 . S
O243 Cd239 2.439 . S
O243 C244 1.208 . S
C244 O242 1.247 . S
C244 O243 1.208 . S
C245 O250 1.247 . S
C245 O251 1.208 . S
C246 O238 1.315 . S
C246 O241 1.279 . S
C247 O248 1.315 . S
C247 O249 1.279 . S
O248 Cd240 2.223 . S
O248 C247 1.315 . S
O249 Cd239 2.240 . S
O249 C247 1.279 . S
O250 Cd240 2.297 . S
O250 C245 1.247 . S
O251 Cd240 2.439 . S
O251 C245 1.208 . S
O252 Cd253 2.223 . S
O252 C260 1.315 . S
Cd253 O252 2.223 . S
Cd253 O256 2.297 . S
Cd253 O257 2.439 . S
Cd253 O263 2.240 . S
Cd254 O255 2.240 . S
Cd254 O262 2.223 . S
Cd254 O264 2.297 . S
Cd254 O265 2.439 . S
O255 Cd254 2.240 . S
O255 C260 1.279 . S
O256 Cd253 2.297 . S
O256 C258 1.247 . S
O257 Cd253 2.439 . S
O257 C258 1.208 . S
C258 O256 1.247 . S
C258 O257 1.208 . S
C259 O264 1.247 . S
C259 O265 1.208 . S
C260 O252 1.315 . S
C260 O255 1.279 . S
C261 O262 1.315 . S
C261 O263 1.279 . S
O262 Cd254 2.223 . S
O262 C261 1.315 . S
O263 Cd253 2.240 . S
O263 C261 1.279 . S
O264 Cd254 2.297 . S
O264 C259 1.247 . S
O265 Cd254 2.439 . S
O265 C259 1.208 . S
O266 Cd267 2.223 . S
O266 C274 1.315 . S
Cd267 O266 2.223 . S
Cd267 O270 2.297 . S
Cd267 O271 2.439 . S
Cd267 O277 2.240 . S
Cd268 O269 2.240 . S
Cd268 O276 2.223 . S
Cd268 O278 2.297 . S
Cd268 O279 2.439 . S
O269 Cd268 2.240 . S
O269 C274 1.279 . S
O270 Cd267 2.297 . S
O270 C272 1.247 . S
O271 Cd267 2.439 . S
O271 C272 1.208 . S
C272 O270 1.247 . S
C272 O271 1.208 . S
C273 O278 1.247 . S
C273 O279 1.208 . S
C274 O266 1.315 . S
C274 O269 1.279 . S
C275 O276 1.315 . S
C275 O277 1.279 . S
O276 Cd268 2.223 . S
O276 C275 1.315 . S
O277 Cd267 2.240 . S
O277 C275 1.279 . S
O278 Cd268 2.297 . S
O278 C273 1.247 . S
O279 Cd268 2.439 . S
O279 C273 1.208 . S
O280 Cd281 2.223 . S
O280 C288 1.315 . S
Cd281 O280 2.223 . S
Cd281 O284 2.297 . S
Cd281 O285 2.439 . S
Cd281 O291 2.240 . S
Cd282 O283 2.240 . S
Cd282 O290 2.223 . S
Cd282 O292 2.297 . S
Cd282 O293 2.439 . S
O283 Cd282 2.240 . S
O283 C288 1.279 . S
O284 Cd281 2.297 . S
O284 C286 1.247 . S
O285 Cd281 2.439 . S
O285 C286 1.208 . S
C286 O284 1.247 . S
C286 O285 1.208 . S
C287 O292 1.247 . S
C287 O293 1.208 . S
C288 O280 1.315 . S
C288 O283 1.279 . S
C289 O290 1.315 . S
C289 O291 1.279 . S
O290 Cd282 2.223 . S
O290 C289 1.315 . S
O291 Cd281 2.240 . S
O291 C289 1.279 . S
O292 Cd282 2.297 . S
O292 C287 1.247 . S
O293 Cd282 2.439 . S
O293 C287 1.208 . S
O294 Cd295 2.223 . S
O294 C302 1.315 . S
Cd295 O294 2.223 . S
Cd295 O298 2.297 . S
Cd295 O299 2.439 . S
Cd295 O305 2.240 . S
Cd296 O297 2.240 . S
Cd296 O304 2.223 . S
Cd296 O306 2.297 . S
Cd296 O307 2.439 . S
O297 Cd296 2.240 . S
O297 C302 1.279 . S
O298 Cd295 2.297 . S
O298 C300 1.247 . S
O299 Cd295 2.439 . S
O299 C300 1.208 . S
C300 O298 1.247 . S
C300 O299 1.208 . S
C301 O306 1.247 . S
C301 O307 1.208 . S
C302 O294 1.315 . S
C302 O297 1.279 . S
C303 O304 1.315 . S
C303 O305 1.279 . S
O304 Cd296 2.223 . S
O304 C303 1.315 . S
O305 Cd295 2.240 . S
O305 C303 1.279 . S
O306 Cd296 2.297 . S
O306 C301 1.247 . S
O307 Cd296 2.439 . S
O307 C301 1.208 . S
O308 Cd309 2.223 . S
O308 C316 1.315 . S
Cd309 O308 2.223 . S
Cd309 O312 2.297 . S
Cd309 O313 2.439 . S
Cd309 O319 2.240 . S
Cd310 O311 2.240 . S
Cd310 O318 2.223 . S
Cd310 O320 2.297 1_554 S
Cd310 O321 2.439 . S
O311 Cd310 2.240 . S
O311 C316 1.279 . S
O312 Cd309 2.297 . S
O312 C314 1.247 . S
O313 Cd309 2.439 . S
O313 C314 1.208 . S
C314 O312 1.247 . S
C314 O313 1.208 . S
C315 O320 1.247 1_554 S
C315 O321 1.208 . S
C316 O308 1.315 . S
C316 O311 1.279 . S
C317 O318 1.315 . S
C317 O319 1.279 . S
O318 Cd310 2.223 . S
O318 C317 1.315 . S
O319 Cd309 2.240 . S
O319 C317 1.279 . S
O320 Cd310 2.297 1_556 S
O320 C315 1.247 1_556 S
O321 Cd310 2.439 . S
O321 C315 1.208 . S
O322 Cd323 2.223 . S
O322 C330 1.315 . S
Cd323 O322 2.223 . S
Cd323 O326 2.297 . S
Cd323 O327 2.439 . S
Cd323 O333 2.240 . S
Cd324 O325 2.240 . S
Cd324 O332 2.223 . S
Cd324 O334 2.297 . S
Cd324 O335 2.439 . S
O325 Cd324 2.240 . S
O325 C330 1.279 . S
O326 Cd323 2.297 . S
O326 C328 1.247 . S
O327 Cd323 2.439 . S
O327 C328 1.208 . S
C328 O326 1.247 . S
C328 O327 1.208 . S
C329 O334 1.247 . S
C329 O335 1.208 . S
C330 O322 1.315 . S
C330 O325 1.279 . S
C331 O332 1.315 . S
C331 O333 1.279 . S
O332 Cd324 2.223 . S
O332 C331 1.315 . S
O333 Cd323 2.240 . S
O333 C331 1.279 . S
O334 Cd324 2.297 . S
O334 C329 1.247 . S
O335 Cd324 2.439 . S
O335 C329 1.208 . S
O336 Cd337 2.223 . S
O336 C344 1.315 . S
Cd337 O336 2.223 . S
Cd337 O340 2.297 . S
Cd337 O341 2.439 . S
Cd337 O347 2.240 . S
Cd338 O339 2.240 . S
Cd338 O346 2.223 . S
Cd338 O348 2.297 1_554 S
Cd338 O349 2.439 . S
O339 Cd338 2.240 . S
O339 C344 1.279 . S
O340 Cd337 2.297 . S
O340 C342 1.247 . S
O341 Cd337 2.439 . S
O341 C342 1.208 . S
C342 O340 1.247 . S
C342 O341 1.208 . S
C343 O348 1.247 1_554 S
C343 O349 1.208 . S
C344 O336 1.315 . S
C344 O339 1.279 . S
C345 O346 1.315 . S
C345 O347 1.279 . S
O346 Cd338 2.223 . S
O346 C345 1.315 . S
O347 Cd337 2.240 . S
O347 C345 1.279 . S
O348 Cd338 2.297 1_556 S
O348 C343 1.247 1_556 S
O349 Cd338 2.439 . S
O349 C343 1.208 . S
O350 Cd351 2.223 . S
O350 C358 1.315 . S
Cd351 O350 2.223 . S
Cd351 O354 2.297 . S
Cd351 O355 2.439 . S
Cd351 O361 2.240 . S
Cd352 O353 2.240 . S
Cd352 O360 2.223 . S
Cd352 O362 2.297 . S
Cd352 O363 2.439 . S
O353 Cd352 2.240 . S
O353 C358 1.279 . S
O354 Cd351 2.297 . S
O354 C356 1.247 . S
O355 Cd351 2.439 . S
O355 C356 1.208 . S
C356 O354 1.247 . S
C356 O355 1.208 . S
C357 O362 1.247 . S
C357 O363 1.208 . S
C358 O350 1.315 . S
C358 O353 1.279 . S
C359 O360 1.315 . S
C359 O361 1.279 . S
O360 Cd352 2.223 . S
O360 C359 1.315 . S
O361 Cd351 2.240 . S
O361 C359 1.279 . S
O362 Cd352 2.297 . S
O362 C357 1.247 . S
O363 Cd352 2.439 . S
O363 C357 1.208 . S
O364 Cd365 2.223 . S
O364 C372 1.315 . S
Cd365 O364 2.223 . S
Cd365 O368 2.297 . S
Cd365 O369 2.439 . S
Cd365 O375 2.240 . S
Cd366 O367 2.240 . S
Cd366 O374 2.223 . S
Cd366 O376 2.297 . S
Cd366 O377 2.439 . S
O367 Cd366 2.240 . S
O367 C372 1.279 . S
O368 Cd365 2.297 . S
O368 C370 1.247 . S
O369 Cd365 2.439 . S
O369 C370 1.208 . S
C370 O368 1.247 . S
C370 O369 1.208 . S
C371 O376 1.247 . S
C371 O377 1.208 . S
C372 O364 1.315 . S
C372 O367 1.279 . S
C373 O374 1.315 . S
C373 O375 1.279 . S
O374 Cd366 2.223 . S
O374 C373 1.315 . S
O375 Cd365 2.240 . S
O375 C373 1.279 . S
O376 Cd366 2.297 . S
O376 C371 1.247 . S
O377 Cd366 2.439 . S
O377 C371 1.208 . S
O378 Cd379 2.223 . S
O378 C386 1.315 . S
Cd379 O378 2.223 . S
Cd379 O382 2.297 . S
Cd379 O383 2.439 . S
Cd379 O389 2.240 . S
Cd380 O381 2.240 . S
Cd380 O388 2.223 . S
Cd380 O390 2.297 . S
Cd380 O391 2.439 . S
O381 Cd380 2.240 . S
O381 C386 1.279 . S
O382 Cd379 2.297 . S
O382 C384 1.247 . S
O383 Cd379 2.439 . S
O383 C384 1.208 . S
C384 O382 1.247 . S
C384 O383 1.208 . S
C385 O390 1.247 . S
C385 O391 1.208 . S
C386 O378 1.315 . S
C386 O381 1.279 . S
C387 O388 1.315 . S
C387 O389 1.279 . S
O388 Cd380 2.223 . S
O388 C387 1.315 . S
O389 Cd379 2.240 . S
O389 C387 1.279 . S
O390 Cd380 2.297 . S
O390 C385 1.247 . S
O391 Cd380 2.439 . S
O391 C385 1.208 . S
O392 Cd393 2.223 . S
O392 C400 1.315 . S
Cd393 O392 2.223 . S
Cd393 O396 2.297 . S
Cd393 O397 2.439 . S
Cd393 O403 2.240 . S
Cd394 O395 2.240 . S
Cd394 O402 2.223 . S
Cd394 O404 2.297 . S
Cd394 O405 2.439 . S
O395 Cd394 2.240 . S
O395 C400 1.279 . S
O396 Cd393 2.297 . S
O396 C398 1.247 . S
O397 Cd393 2.439 . S
O397 C398 1.208 . S
C398 O396 1.247 . S
C398 O397 1.208 . S
C399 O404 1.247 . S
C399 O405 1.208 . S
C400 O392 1.315 . S
C400 O395 1.279 . S
C401 O402 1.315 . S
C401 O403 1.279 . S
O402 Cd394 2.223 . S
O402 C401 1.315 . S
O403 Cd393 2.240 . S
O403 C401 1.279 . S
O404 Cd394 2.297 . S
O404 C399 1.247 . S
O405 Cd394 2.439 . S
O405 C399 1.208 . S
O406 Cd407 2.223 . S
O406 C414 1.315 . S
Cd407 O406 2.223 . S
Cd407 O410 2.297 . S
Cd407 O411 2.439 . S
Cd407 O417 2.240 . S
Cd408 O409 2.240 . S
Cd408 O416 2.223 . S
Cd408 O418 2.297 . S
Cd408 O419 2.439 . S
O409 Cd408 2.240 . S
O409 C414 1.279 . S
O410 Cd407 2.297 . S
O410 C412 1.247 . S
O411 Cd407 2.439 . S
O411 C412 1.208 . S
C412 O410 1.247 . S
C412 O411 1.208 . S
C413 O418 1.247 . S
C413 O419 1.208 . S
C414 O406 1.315 . S
C414 O409 1.279 . S
C415 O416 1.315 . S
C415 O417 1.279 . S
O416 Cd408 2.223 . S
O416 C415 1.315 . S
O417 Cd407 2.240 . S
O417 C415 1.279 . S
O418 Cd408 2.297 . S
O418 C413 1.247 . S
O419 Cd408 2.439 . S
O419 C413 1.208 . S
O420 Cd421 2.223 . S
O420 C428 1.315 . S
Cd421 O420 2.223 . S
Cd421 O424 2.297 . S
Cd421 O425 2.439 . S
Cd421 O431 2.240 . S
Cd422 O423 2.240 . S
Cd422 O430 2.223 . S
Cd422 O432 2.297 1_556 S
Cd422 O433 2.439 . S
O423 Cd422 2.240 . S
O423 C428 1.279 . S
O424 Cd421 2.297 . S
O424 C426 1.247 . S
O425 Cd421 2.439 . S
O425 C426 1.208 . S
C426 O424 1.247 . S
C426 O425 1.208 . S
C427 O432 1.247 1_556 S
C427 O433 1.208 . S
C428 O420 1.315 . S
C428 O423 1.279 . S
C429 O430 1.315 . S
C429 O431 1.279 . S
O430 Cd422 2.223 . S
O430 C429 1.315 . S
O431 Cd421 2.240 . S
O431 C429 1.279 . S
O432 Cd422 2.297 1_554 S
O432 C427 1.247 1_554 S
O433 Cd422 2.439 . S
O433 C427 1.208 . S
O434 Cd435 2.223 . S
O434 C442 1.315 . S
Cd435 O434 2.223 . S
Cd435 O438 2.297 . S
Cd435 O439 2.439 . S
Cd435 O445 2.240 . S
Cd436 O437 2.240 . S
Cd436 O444 2.223 . S
Cd436 O446 2.297 . S
Cd436 O447 2.439 . S
O437 Cd436 2.240 . S
O437 C442 1.279 . S
O438 Cd435 2.297 . S
O438 C440 1.247 . S
O439 Cd435 2.439 . S
O439 C440 1.208 . S
C440 O438 1.247 . S
C440 O439 1.208 . S
C441 O446 1.247 . S
C441 O447 1.208 . S
C442 O434 1.315 . S
C442 O437 1.279 . S
C443 O444 1.315 . S
C443 O445 1.279 . S
O444 Cd436 2.223 . S
O444 C443 1.315 . S
O445 Cd435 2.240 . S
O445 C443 1.279 . S
O446 Cd436 2.297 . S
O446 C441 1.247 . S
O447 Cd436 2.439 . S
O447 C441 1.208 . S
H448 C456 0.950 . S
H449 C461 0.950 . S
H450 C458 0.950 1_565 S
H451 C460 0.950 . S
H452 C462 0.950 . S
H453 C464 0.950 1_545 S
H454 C466 0.950 . S
H455 C467 0.950 . S
C456 H448 0.950 . S
C456 C457 1.386 . S
C456 C458 1.391 . S
C457 C456 1.386 . S
C457 C461 1.393 . S
C458 H450 0.950 1_545 S
C458 C456 1.391 . S
C458 C459 1.400 . S
C459 C458 1.400 . S
C459 C460 1.398 . S
C459 C465 1.491 1_545 S
C460 H451 0.950 . S
C460 C459 1.398 . S
C460 C461 1.391 . S
C461 H449 0.950 . S
C461 C457 1.393 . S
C461 C460 1.391 . S
C462 H452 0.950 . S
C462 C463 1.386 . S
C462 C464 1.391 . S
C463 C462 1.386 . S
C463 C467 1.393 . S
C464 H453 0.950 1_565 S
C464 C462 1.391 . S
C464 C465 1.400 . S
C465 C459 1.491 1_565 S
C465 C464 1.400 . S
C465 C466 1.398 . S
C466 H454 0.950 . S
C466 C465 1.398 . S
C466 C467 1.391 . S
C467 H455 0.950 . S
C467 C463 1.393 . S
C467 C466 1.391 . S
H468 C476 0.950 . S
H469 C481 0.950 . S
H470 C478 0.950 . S
H471 C480 0.950 . S
H472 C482 0.950 . S
H473 C484 0.950 . S
H474 C486 0.950 . S
H475 C487 0.950 . S
C476 H468 0.950 . S
C476 C477 1.386 . S
C476 C478 1.391 . S
C477 C476 1.386 . S
C477 C481 1.393 . S
C478 H470 0.950 . S
C478 C476 1.391 . S
C478 C479 1.400 . S
C479 C478 1.400 . S
C479 C480 1.398 . S
C479 C485 1.491 . S
C480 H471 0.950 . S
C480 C479 1.398 . S
C480 C481 1.391 . S
C481 H469 0.950 . S
C481 C477 1.393 . S
C481 C480 1.391 . S
C482 H472 0.950 . S
C482 C483 1.386 . S
C482 C484 1.391 . S
C483 C482 1.386 . S
C483 C487 1.393 . S
C484 H473 0.950 . S
C484 C482 1.391 . S
C484 C485 1.400 . S
C485 C479 1.491 . S
C485 C484 1.400 . S
C485 C486 1.398 . S
C486 H474 0.950 . S
C486 C485 1.398 . S
C486 C487 1.391 . S
C487 H475 0.950 . S
C487 C483 1.393 . S
C487 C486 1.391 . S
H488 C496 0.950 . S
H489 C501 0.950 . S
H490 C498 0.950 . S
H491 C500 0.950 1_565 S
H492 C502 0.950 . S
H493 C504 0.950 . S
H494 C506 0.950 1_545 S
H495 C507 0.950 . S
C496 H488 0.950 . S
C496 C497 1.386 . S
C496 C498 1.391 . S
C497 C496 1.386 . S
C497 C501 1.393 . S
C498 H490 0.950 . S
C498 C496 1.391 . S
C498 C499 1.400 . S
C499 C498 1.400 . S
C499 C500 1.398 . S
C499 C505 1.491 1_545 S
C500 H491 0.950 1_545 S
C500 C499 1.398 . S
C500 C501 1.391 . S
C501 H489 0.950 . S
C501 C497 1.393 . S
C501 C500 1.391 . S
C502 H492 0.950 . S
C502 C503 1.386 . S
C502 C504 1.391 . S
C503 C502 1.386 . S
C503 C507 1.393 . S
C504 H493 0.950 . S
C504 C502 1.391 . S
C504 C505 1.400 . S
C505 C499 1.491 1_565 S
C505 C504 1.400 . S
C505 C506 1.398 . S
C506 H494 0.950 1_565 S
C506 C505 1.398 . S
C506 C507 1.391 . S
C507 H495 0.950 . S
C507 C503 1.393 . S
C507 C506 1.391 . S
H508 C516 0.950 . S
H509 C521 0.950 . S
H510 C518 0.950 1_554 S
H511 C520 0.950 . S
H512 C522 0.950 . S
H513 C524 0.950 1_556 S
H514 C526 0.950 . S
H515 C527 0.950 . S
C516 H508 0.950 . S
C516 C517 1.386 . S
C516 C518 1.391 . S
C517 C516 1.386 . S
C517 C521 1.393 . S
C518 H510 0.950 1_556 S
C518 C516 1.391 . S
C518 C519 1.400 . S
C519 C518 1.400 . S
C519 C520 1.398 . S
C519 C525 1.491 1_556 S
C520 H511 0.950 . S
C520 C519 1.398 . S
C520 C521 1.391 . S
C521 H509 0.950 . S
C521 C517 1.393 . S
C521 C520 1.391 . S
C522 H512 0.950 . S
C522 C523 1.386 . S
C522 C524 1.391 . S
C523 C522 1.386 . S
C523 C527 1.393 . S
C524 H513 0.950 1_554 S
C524 C522 1.391 . S
C524 C525 1.400 . S
C525 C519 1.491 1_554 S
C525 C524 1.400 . S
C525 C526 1.398 . S
C526 H514 0.950 . S
C526 C525 1.398 . S
C526 C527 1.391 . S
C527 H515 0.950 . S
C527 C523 1.393 . S
C527 C526 1.391 . S
H528 C536 0.950 . S
H529 C541 0.950 . S
H530 C538 0.950 . S
H531 C540 0.950 . S
H532 C542 0.950 . S
H533 C544 0.950 . S
H534 C546 0.950 . S
H535 C547 0.950 . S
C536 H528 0.950 . S
C536 C537 1.386 . S
C536 C538 1.391 . S
C537 C536 1.386 . S
C537 C541 1.393 . S
C538 H530 0.950 . S
C538 C536 1.391 . S
C538 C539 1.400 . S
C539 C538 1.400 . S
C539 C540 1.398 . S
C539 C545 1.491 1_565 S
C540 H531 0.950 . S
C540 C539 1.398 . S
C540 C541 1.391 . S
C541 H529 0.950 . S
C541 C537 1.393 . S
C541 C540 1.391 . S
C542 H532 0.950 . S
C542 C543 1.386 . S
C542 C544 1.391 . S
C543 C542 1.386 . S
C543 C547 1.393 . S
C544 H533 0.950 . S
C544 C542 1.391 . S
C544 C545 1.400 . S
C545 C539 1.491 1_545 S
C545 C544 1.400 . S
C545 C546 1.398 . S
C546 H534 0.950 . S
C546 C545 1.398 . S
C546 C547 1.391 . S
C547 H535 0.950 . S
C547 C543 1.393 . S
C547 C546 1.391 . S
H548 C556 0.950 . S
H549 C561 0.950 . S
H550 C558 0.950 . S
H551 C560 0.950 . S
H552 C562 0.950 . S
H553 C564 0.950 . S
H554 C566 0.950 . S
H555 C567 0.950 . S
C556 H548 0.950 . S
C556 C557 1.386 . S
C556 C558 1.391 . S
C557 C556 1.386 . S
C557 C561 1.393 . S
C558 H550 0.950 . S
C558 C556 1.391 . S
C558 C559 1.400 . S
C559 C558 1.400 . S
C559 C560 1.398 . S
C559 C565 1.491 . S
C560 H551 0.950 . S
C560 C559 1.398 . S
C560 C561 1.391 . S
C561 H549 0.950 . S
C561 C557 1.393 . S
C561 C560 1.391 . S
C562 H552 0.950 . S
C562 C563 1.386 . S
C562 C564 1.391 . S
C563 C562 1.386 . S
C563 C567 1.393 . S
C564 H553 0.950 . S
C564 C562 1.391 . S
C564 C565 1.400 . S
C565 C559 1.491 . S
C565 C564 1.400 . S
C565 C566 1.398 . S
C566 H554 0.950 . S
C566 C565 1.398 . S
C566 C567 1.391 . S
C567 H555 0.950 . S
C567 C563 1.393 . S
C567 C566 1.391 . S
H568 C576 0.950 . S
H569 C581 0.950 . S
H570 C578 0.950 . S
H571 C580 0.950 . S
H572 C582 0.950 . S
H573 C584 0.950 . S
H574 C586 0.950 . S
H575 C587 0.950 . S
C576 H568 0.950 . S
C576 C577 1.386 . S
C576 C578 1.391 . S
C577 C576 1.386 . S
C577 C581 1.393 . S
C578 H570 0.950 . S
C578 C576 1.391 . S
C578 C579 1.400 . S
C579 C578 1.400 . S
C579 C580 1.398 . S
C579 C585 1.491 1_565 S
C580 H571 0.950 . S
C580 C579 1.398 . S
C580 C581 1.391 . S
C581 H569 0.950 . S
C581 C577 1.393 . S
C581 C580 1.391 . S
C582 H572 0.950 . S
C582 C583 1.386 . S
C582 C584 1.391 . S
C583 C582 1.386 . S
C583 C587 1.393 . S
C584 H573 0.950 . S
C584 C582 1.391 . S
C584 C585 1.400 . S
C585 C579 1.491 1_545 S
C585 C584 1.400 . S
C585 C586 1.398 . S
C586 H574 0.950 . S
C586 C585 1.398 . S
C586 C587 1.391 . S
C587 H575 0.950 . S
C587 C583 1.393 . S
C587 C586 1.391 . S
H588 C596 0.950 . S
H589 C601 0.950 . S
H590 C598 0.950 . S
H591 C600 0.950 1_554 S
H592 C602 0.950 . S
H593 C604 0.950 . S
H594 C606 0.950 1_556 S
H595 C607 0.950 . S
C596 H588 0.950 . S
C596 C597 1.386 . S
C596 C598 1.391 . S
C597 C596 1.386 . S
C597 C601 1.393 . S
C598 H590 0.950 . S
C598 C596 1.391 . S
C598 C599 1.400 . S
C599 C598 1.400 . S
C599 C600 1.398 . S
C599 C605 1.491 1_556 S
C600 H591 0.950 1_556 S
C600 C599 1.398 . S
C600 C601 1.391 . S
C601 H589 0.950 . S
C601 C597 1.393 . S
C601 C600 1.391 . S
C602 H592 0.950 . S
C602 C603 1.386 . S
C602 C604 1.391 . S
C603 C602 1.386 . S
C603 C607 1.393 . S
C604 H593 0.950 . S
C604 C602 1.391 . S
C604 C605 1.400 . S
C605 C599 1.491 1_554 S
C605 C604 1.400 . S
C605 C606 1.398 . S
C606 H594 0.950 1_554 S
C606 C605 1.398 . S
C606 C607 1.391 . S
C607 H595 0.950 . S
C607 C603 1.393 . S
C607 C606 1.391 . S
H608 C616 0.950 . S
H609 C621 0.950 . S
H610 C618 0.950 . S
H611 C620 0.950 . S
H612 C622 0.950 . S
H613 C624 0.950 . S
H614 C626 0.950 . S
H615 C627 0.950 . S
C616 H608 0.950 . S
C616 C617 1.386 . S
C616 C618 1.391 . S
C617 C616 1.386 . S
C617 C621 1.393 . S
C618 H610 0.950 . S
C618 C616 1.391 . S
C618 C619 1.400 . S
C619 C618 1.400 . S
C619 C620 1.398 . S
C619 C625 1.491 . S
C620 H611 0.950 . S
C620 C619 1.398 . S
C620 C621 1.391 . S
C621 H609 0.950 . S
C621 C617 1.393 . S
C621 C620 1.391 . S
C622 H612 0.950 . S
C622 C623 1.386 . S
C622 C624 1.391 . S
C623 C622 1.386 . S
C623 C627 1.393 . S
C624 H613 0.950 . S
C624 C622 1.391 . S
C624 C625 1.400 . S
C625 C619 1.491 . S
C625 C624 1.400 . S
C625 C626 1.398 . S
C626 H614 0.950 . S
C626 C625 1.398 . S
C626 C627 1.391 . S
C627 H615 0.950 . S
C627 C623 1.393 . S
C627 C626 1.391 . S
H628 C636 0.950 . S
H629 C641 0.950 . S
H630 C638 0.950 . S
H631 C640 0.950 . S
H632 C642 0.950 . S
H633 C644 0.950 . S
H634 C646 0.950 . S
H635 C647 0.950 . S
C636 H628 0.950 . S
C636 C637 1.386 . S
C636 C638 1.391 . S
C637 C636 1.386 . S
C637 C641 1.393 . S
C638 H630 0.950 . S
C638 C636 1.391 . S
C638 C639 1.400 . S
C639 C638 1.400 . S
C639 C640 1.398 . S
C639 C645 1.491 1_556 S
C640 H631 0.950 . S
C640 C639 1.398 . S
C640 C641 1.391 . S
C641 H629 0.950 . S
C641 C637 1.393 . S
C641 C640 1.391 . S
C642 H632 0.950 . S
C642 C643 1.386 . S
C642 C644 1.391 . S
C643 C642 1.386 . S
C643 C647 1.393 . S
C644 H633 0.950 . S
C644 C642 1.391 . S
C644 C645 1.400 . S
C645 C639 1.491 1_554 S
C645 C644 1.400 . S
C645 C646 1.398 . S
C646 H634 0.950 . S
C646 C645 1.398 . S
C646 C647 1.391 . S
C647 H635 0.950 . S
C647 C643 1.393 . S
C647 C646 1.391 . S
H648 C656 0.950 . S
H649 C661 0.950 . S
H650 C658 0.950 . S
H651 C660 0.950 . S
H652 C662 0.950 . S
H653 C664 0.950 . S
H654 C666 0.950 . S
H655 C667 0.950 . S
C656 H648 0.950 . S
C656 C657 1.386 . S
C656 C658 1.391 . S
C657 C656 1.386 . S
C657 C661 1.393 . S
C658 H650 0.950 . S
C658 C656 1.391 . S
C658 C659 1.400 . S
C659 C658 1.400 . S
C659 C660 1.398 . S
C659 C665 1.491 . S
C660 H651 0.950 . S
C660 C659 1.398 . S
C660 C661 1.391 . S
C661 H649 0.950 . S
C661 C657 1.393 . S
C661 C660 1.391 . S
C662 H652 0.950 . S
C662 C663 1.386 . S
C662 C664 1.391 . S
C663 C662 1.386 . S
C663 C667 1.393 . S
C664 H653 0.950 . S
C664 C662 1.391 . S
C664 C665 1.400 . S
C665 C659 1.491 . S
C665 C664 1.400 . S
C665 C666 1.398 . S
C666 H654 0.950 . S
C666 C665 1.398 . S
C666 C667 1.391 . S
C667 H655 0.950 . S
C667 C663 1.393 . S
C667 C666 1.391 . S
H668 C676 0.950 . S
H669 C681 0.950 . S
H670 C678 0.950 . S
H671 C680 0.950 . S
H672 C682 0.950 . S
H673 C684 0.950 . S
H674 C686 0.950 . S
H675 C687 0.950 . S
C676 H668 0.950 . S
C676 C677 1.386 . S
C676 C678 1.391 . S
C677 C676 1.386 . S
C677 C681 1.393 . S
C678 H670 0.950 . S
C678 C676 1.391 . S
C678 C679 1.400 . S
C679 C678 1.400 . S
C679 C680 1.398 . S
C679 C685 1.491 . S
C680 H671 0.950 . S
C680 C679 1.398 . S
C680 C681 1.391 . S
C681 H669 0.950 . S
C681 C677 1.393 . S
C681 C680 1.391 . S
C682 H672 0.950 . S
C682 C683 1.386 . S
C682 C684 1.391 . S
C683 C682 1.386 . S
C683 C687 1.393 . S
C684 H673 0.950 . S
C684 C682 1.391 . S
C684 C685 1.400 . S
C685 C679 1.491 . S
C685 C684 1.400 . S
C685 C686 1.398 . S
C686 H674 0.950 . S
C686 C685 1.398 . S
C686 C687 1.391 . S
C687 H675 0.950 . S
C687 C683 1.393 . S
C687 C686 1.391 . S
H688 C696 0.950 . S
H689 C701 0.950 . S
H690 C698 0.950 . S
H691 C700 0.950 . S
H692 C702 0.950 . S
H693 C704 0.950 . S
H694 C706 0.950 . S
H695 C707 0.950 . S
C696 H688 0.950 . S
C696 C697 1.386 . S
C696 C698 1.391 . S
C697 C696 1.386 . S
C697 C701 1.393 . S
C698 H690 0.950 . S
C698 C696 1.391 . S
C698 C699 1.400 . S
C699 C698 1.400 . S
C699 C700 1.398 . S
C699 C705 1.491 . S
C700 H691 0.950 . S
C700 C699 1.398 . S
C700 C701 1.391 . S
C701 H689 0.950 . S
C701 C697 1.393 . S
C701 C700 1.391 . S
C702 H692 0.950 . S
C702 C703 1.386 . S
C702 C704 1.391 . S
C703 C702 1.386 . S
C703 C707 1.393 . S
C704 H693 0.950 . S
C704 C702 1.391 . S
C704 C705 1.400 . S
C705 C699 1.491 . S
C705 C704 1.400 . S
C705 C706 1.398 . S
C706 H694 0.950 . S
C706 C705 1.398 . S
C706 C707 1.391 . S
C707 H695 0.950 . S
C707 C703 1.393 . S
C707 C706 1.391 . S
H708 C716 0.950 . S
H709 C721 0.950 . S
H710 C718 0.950 . S
H711 C720 0.950 . S
H712 C722 0.950 . S
H713 C724 0.950 . S
H714 C726 0.950 . S
H715 C727 0.950 . S
C716 H708 0.950 . S
C716 C717 1.386 . S
C716 C718 1.391 . S
C717 C716 1.386 . S
C717 C721 1.393 . S
C718 H710 0.950 . S
C718 C716 1.391 . S
C718 C719 1.400 . S
C719 C718 1.400 . S
C719 C720 1.398 . S
C719 C725 1.491 1_554 S
C720 H711 0.950 . S
C720 C719 1.398 . S
C720 C721 1.391 . S
C721 H709 0.950 . S
C721 C717 1.393 . S
C721 C720 1.391 . S
C722 H712 0.950 . S
C722 C723 1.386 . S
C722 C724 1.391 . S
C723 C722 1.386 . S
C723 C727 1.393 . S
C724 H713 0.950 . S
C724 C722 1.391 . S
C724 C725 1.400 . S
C725 C719 1.491 1_556 S
C725 C724 1.400 . S
C725 C726 1.398 . S
C726 H714 0.950 . S
C726 C725 1.398 . S
C726 C727 1.391 . S
C727 H715 0.950 . S
C727 C723 1.393 . S
C727 C726 1.391 . S
H728 C736 0.950 . S
H729 C741 0.950 . S
H730 C738 0.950 . S
H731 C740 0.950 . S
H732 C742 0.950 . S
H733 C744 0.950 . S
H734 C746 0.950 . S
H735 C747 0.950 . S
C736 H728 0.950 . S
C736 C737 1.386 . S
C736 C738 1.391 . S
C737 C736 1.386 . S
C737 C741 1.393 . S
C738 H730 0.950 . S
C738 C736 1.391 . S
C738 C739 1.400 . S
C739 C738 1.400 . S
C739 C740 1.398 . S
C739 C745 1.491 . S
C740 H731 0.950 . S
C740 C739 1.398 . S
C740 C741 1.391 . S
C741 H729 0.950 . S
C741 C737 1.393 . S
C741 C740 1.391 . S
C742 H732 0.950 . S
C742 C743 1.386 . S
C742 C744 1.391 . S
C743 C742 1.386 . S
C743 C747 1.393 . S
C744 H733 0.950 . S
C744 C742 1.391 . S
C744 C745 1.400 . S
C745 C739 1.491 . S
C745 C744 1.400 . S
C745 C746 1.398 . S
C746 H734 0.950 . S
C746 C745 1.398 . S
C746 C747 1.391 . S
C747 H735 0.950 . S
C747 C743 1.393 . S
C747 C746 1.391 . S
H748 C756 0.950 . S
H749 C761 0.950 . S
H750 C758 0.950 . S
H751 C760 0.950 . S
H752 C762 0.950 . S
H753 C764 0.950 . S
H754 C766 0.950 . S
H755 C767 0.950 . S
C756 H748 0.950 . S
C756 C757 1.386 . S
C756 C758 1.391 . S
C757 C756 1.386 . S
C757 C761 1.393 . S
C758 H750 0.950 . S
C758 C756 1.391 . S
C758 C759 1.400 . S
C759 C758 1.400 . S
C759 C760 1.398 . S
C759 C765 1.491 . S
C760 H751 0.950 . S
C760 C759 1.398 . S
C760 C761 1.391 . S
C761 H749 0.950 . S
C761 C757 1.393 . S
C761 C760 1.391 . S
C762 H752 0.950 . S
C762 C763 1.386 . S
C762 C764 1.391 . S
C763 C762 1.386 . S
C763 C767 1.393 . S
C764 H753 0.950 . S
C764 C762 1.391 . S
C764 C765 1.400 . S
C765 C759 1.491 . S
C765 C764 1.400 . S
C765 C766 1.398 . S
C766 H754 0.950 . S
C766 C765 1.398 . S
C766 C767 1.391 . S
C767 H755 0.950 . S
C767 C763 1.393 . S
C767 C766 1.391 . S
H768 C776 0.950 . S
H769 C781 0.950 . S
H770 C778 0.950 . S
H771 C780 0.950 . S
H772 C782 0.950 . S
H773 C784 0.950 . S
H774 C786 0.950 . S
H775 C787 0.950 . S
C776 H768 0.950 . S
C776 C777 1.386 . S
C776 C778 1.391 . S
C777 C776 1.386 . S
C777 C781 1.393 . S
C778 H770 0.950 . S
C778 C776 1.391 . S
C778 C779 1.400 . S
C779 C778 1.400 . S
C779 C780 1.398 . S
C779 C785 1.491 . S
C780 H771 0.950 . S
C780 C779 1.398 . S
C780 C781 1.391 . S
C781 H769 0.950 . S
C781 C777 1.393 . S
C781 C780 1.391 . S
C782 H772 0.950 . S
C782 C783 1.386 . S
C782 C784 1.391 . S
C783 C782 1.386 . S
C783 C787 1.393 . S
C784 H773 0.950 . S
C784 C782 1.391 . S
C784 C785 1.400 . S
C785 C779 1.491 . S
C785 C784 1.400 . S
C785 C786 1.398 . S
C786 H774 0.950 . S
C786 C785 1.398 . S
C786 C787 1.391 . S
C787 H775 0.950 . S
C787 C783 1.393 . S
C787 C786 1.391 . S
H788 C796 0.950 . S
H789 C801 0.950 . S
H790 C798 0.950 1_455 S
H791 C800 0.950 1_455 S
H792 C802 0.950 . S
H793 C804 0.950 . S
H794 C806 0.950 . S
H795 C807 0.950 . S
C796 H788 0.950 . S
C796 C797 1.386 . S
C796 C798 1.391 . S
C797 C796 1.386 . S
C797 C801 1.393 . S
C798 H790 0.950 1_655 S
C798 C796 1.391 . S
C798 C799 1.400 1_655 S
C799 C798 1.400 1_455 S
C799 C800 1.398 1_455 S
C799 C805 1.491 . S
C800 H791 0.950 1_655 S
C800 C799 1.398 1_655 S
C800 C801 1.391 . S
C801 H789 0.950 . S
C801 C797 1.393 . S
C801 C800 1.391 . S
C802 H792 0.950 . S
C802 C803 1.386 . S
C802 C804 1.391 . S
C803 C802 1.386 . S
C803 C807 1.393 . S
C804 H793 0.950 . S
C804 C802 1.391 . S
C804 C805 1.400 . S
C805 C799 1.491 . S
C805 C804 1.400 . S
C805 C806 1.398 . S
C806 H794 0.950 . S
C806 C805 1.398 . S
C806 C807 1.391 . S
C807 H795 0.950 . S
C807 C803 1.393 . S
C807 C806 1.391 . S
H808 C816 0.950 . S
H809 C821 0.950 . S
H810 C818 0.950 . S
H811 C820 0.950 . S
H812 C822 0.950 . S
H813 C824 0.950 . S
H814 C826 0.950 . S
H815 C827 0.950 . S
C816 H808 0.950 . S
C816 C817 1.386 . S
C816 C818 1.391 . S
C817 C816 1.386 . S
C817 C821 1.393 . S
C818 H810 0.950 . S
C818 C816 1.391 . S
C818 C819 1.400 . S
C819 C818 1.400 . S
C819 C820 1.398 . S
C819 C825 1.491 . S
C820 H811 0.950 . S
C820 C819 1.398 . S
C820 C821 1.391 . S
C821 H809 0.950 . S
C821 C817 1.393 . S
C821 C820 1.391 . S
C822 H812 0.950 . S
C822 C823 1.386 . S
C822 C824 1.391 . S
C823 C822 1.386 . S
C823 C827 1.393 . S
C824 H813 0.950 . S
C824 C822 1.391 . S
C824 C825 1.400 . S
C825 C819 1.491 . S
C825 C824 1.400 . S
C825 C826 1.398 . S
C826 H814 0.950 . S
C826 C825 1.398 . S
C826 C827 1.391 . S
C827 H815 0.950 . S
C827 C823 1.393 . S
C827 C826 1.391 . S
H828 C836 0.950 . S
H829 C841 0.950 . S
H830 C838 0.950 . S
H831 C840 0.950 . S
H832 C842 0.950 . S
H833 C844 0.950 . S
H834 C846 0.950 . S
H835 C847 0.950 . S
C836 H828 0.950 . S
C836 C837 1.386 . S
C836 C838 1.391 . S
C837 C836 1.386 . S
C837 C841 1.393 . S
C838 H830 0.950 . S
C838 C836 1.391 . S
C838 C839 1.400 . S
C839 C838 1.400 . S
C839 C840 1.398 . S
C839 C845 1.491 . S
C840 H831 0.950 . S
C840 C839 1.398 . S
C840 C841 1.391 . S
C841 H829 0.950 . S
C841 C837 1.393 . S
C841 C840 1.391 . S
C842 H832 0.950 . S
C842 C843 1.386 . S
C842 C844 1.391 . S
C843 C842 1.386 . S
C843 C847 1.393 . S
C844 H833 0.950 . S
C844 C842 1.391 . S
C844 C845 1.400 . S
C845 C839 1.491 . S
C845 C844 1.400 . S
C845 C846 1.398 . S
C846 H834 0.950 . S
C846 C845 1.398 . S
C846 C847 1.391 . S
C847 H835 0.950 . S
C847 C843 1.393 . S
C847 C846 1.391 . S
H848 C856 0.950 . S
H849 C861 0.950 . S
H850 C858 0.950 . S
H851 C860 0.950 . S
H852 C862 0.950 . S
H853 C864 0.950 . S
H854 C866 0.950 . S
H855 C867 0.950 . S
C856 H848 0.950 . S
C856 C857 1.386 . S
C856 C858 1.391 . S
C857 C856 1.386 . S
C857 C861 1.393 . S
C858 H850 0.950 . S
C858 C856 1.391 . S
C858 C859 1.400 . S
C859 C858 1.400 . S
C859 C860 1.398 . S
C859 C865 1.491 . S
C860 H851 0.950 . S
C860 C859 1.398 . S
C860 C861 1.391 . S
C861 H849 0.950 . S
C861 C857 1.393 . S
C861 C860 1.391 . S
C862 H852 0.950 . S
C862 C863 1.386 . S
C862 C864 1.391 . S
C863 C862 1.386 . S
C863 C867 1.393 . S
C864 H853 0.950 . S
C864 C862 1.391 . S
C864 C865 1.400 . S
C865 C859 1.491 . S
C865 C864 1.400 . S
C865 C866 1.398 . S
C866 H854 0.950 . S
C866 C865 1.398 . S
C866 C867 1.391 . S
C867 H855 0.950 . S
C867 C863 1.393 . S
C867 C866 1.391 . S
H868 C876 0.950 . S
H869 C881 0.950 . S
H870 C878 0.950 . S
H871 C880 0.950 . S
H872 C882 0.950 . S
H873 C884 0.950 . S
H874 C886 0.950 . S
H875 C887 0.950 . S
C876 H868 0.950 . S
C876 C877 1.386 . S
C876 C878 1.391 . S
C877 C876 1.386 . S
C877 C881 1.393 . S
C878 H870 0.950 . S
C878 C876 1.391 . S
C878 C879 1.400 . S
C879 C878 1.400 . S
C879 C880 1.398 . S
C879 C885 1.491 . S
C880 H871 0.950 . S
C880 C879 1.398 . S
C880 C881 1.391 . S
C881 H869 0.950 . S
C881 C877 1.393 . S
C881 C880 1.391 . S
C882 H872 0.950 . S
C882 C883 1.386 . S
C882 C884 1.391 . S
C883 C882 1.386 . S
C883 C887 1.393 . S
C884 H873 0.950 . S
C884 C882 1.391 . S
C884 C885 1.400 . S
C885 C879 1.491 . S
C885 C884 1.400 . S
C885 C886 1.398 . S
C886 H874 0.950 . S
C886 C885 1.398 . S
C886 C887 1.391 . S
C887 H875 0.950 . S
C887 C883 1.393 . S
C887 C886 1.391 . S
H888 C896 0.950 . S
H889 C901 0.950 . S
H890 C898 0.950 . S
H891 C900 0.950 . S
H892 C902 0.950 . S
H893 C904 0.950 . S
H894 C906 0.950 . S
H895 C907 0.950 . S
C896 H888 0.950 . S
C896 C897 1.386 . S
C896 C898 1.391 . S
C897 C896 1.386 . S
C897 C901 1.393 . S
C898 H890 0.950 . S
C898 C896 1.391 . S
C898 C899 1.400 . S
C899 C898 1.400 . S
C899 C900 1.398 . S
C899 C905 1.491 . S
C900 H891 0.950 . S
C900 C899 1.398 . S
C900 C901 1.391 . S
C901 H889 0.950 . S
C901 C897 1.393 . S
C901 C900 1.391 . S
C902 H892 0.950 . S
C902 C903 1.386 . S
C902 C904 1.391 . S
C903 C902 1.386 . S
C903 C907 1.393 . S
C904 H893 0.950 . S
C904 C902 1.391 . S
C904 C905 1.400 . S
C905 C899 1.491 . S
C905 C904 1.400 . S
C905 C906 1.398 . S
C906 H894 0.950 . S
C906 C905 1.398 . S
C906 C907 1.391 . S
C907 H895 0.950 . S
C907 C903 1.393 . S
C907 C906 1.391 . S
H908 C916 0.950 . S
H909 C921 0.950 . S
H910 C918 0.950 . S
H911 C920 0.950 . S
H912 C922 0.950 . S
H913 C924 0.950 1_455 S
H914 C926 0.950 . S
H915 C927 0.950 . S
C916 H908 0.950 . S
C916 C917 1.386 . S
C916 C918 1.391 . S
C917 C916 1.386 . S
C917 C921 1.393 . S
C918 H910 0.950 . S
C918 C916 1.391 . S
C918 C919 1.400 . S
C919 C918 1.400 . S
C919 C920 1.398 . S
C919 C925 1.491 . S
C920 H911 0.950 . S
C920 C919 1.398 . S
C920 C921 1.391 . S
C921 H909 0.950 . S
C921 C917 1.393 . S
C921 C920 1.391 . S
C922 H912 0.950 . S
C922 C923 1.386 . S
C922 C924 1.391 . S
C923 C922 1.386 . S
C923 C927 1.393 . S
C924 H913 0.950 1_655 S
C924 C922 1.391 . S
C924 C925 1.400 1_655 S
C925 C919 1.491 . S
C925 C924 1.400 1_455 S
C925 C926 1.398 1_455 S
C926 H914 0.950 . S
C926 C925 1.398 1_655 S
C926 C927 1.391 . S
C927 H915 0.950 . S
C927 C923 1.393 . S
C927 C926 1.391 . S
H928 C936 0.950 . S
H929 C941 0.950 . S
H930 C938 0.950 . S
H931 C940 0.950 . S
H932 C942 0.950 . S
H933 C944 0.950 . S
H934 C946 0.950 . S
H935 C947 0.950 . S
C936 H928 0.950 . S
C936 C937 1.386 . S
C936 C938 1.391 . S
C937 C936 1.386 . S
C937 C941 1.393 . S
C938 H930 0.950 . S
C938 C936 1.391 . S
C938 C939 1.400 . S
C939 C938 1.400 . S
C939 C940 1.398 . S
C939 C945 1.491 . S
C940 H931 0.950 . S
C940 C939 1.398 . S
C940 C941 1.391 . S
C941 H929 0.950 . S
C941 C937 1.393 . S
C941 C940 1.391 . S
C942 H932 0.950 . S
C942 C943 1.386 . S
C942 C944 1.391 . S
C943 C942 1.386 . S
C943 C947 1.393 . S
C944 H933 0.950 . S
C944 C942 1.391 . S
C944 C945 1.400 . S
C945 C939 1.491 . S
C945 C944 1.400 . S
C945 C946 1.398 . S
C946 H934 0.950 . S
C946 C945 1.398 . S
C946 C947 1.391 . S
C947 H935 0.950 . S
C947 C943 1.393 . S
C947 C946 1.391 . S
H948 C956 0.950 . S
H949 C961 0.950 . S
H950 C958 0.950 . S
H951 C960 0.950 . S
H952 C962 0.950 . S
H953 C964 0.950 1_655 S
H954 C966 0.951 . S
H955 C967 0.950 . S
C956 H948 0.950 . S
C956 C957 1.386 . S
C956 C958 1.391 . S
C957 C956 1.386 . S
C957 C961 1.393 . S
C958 H950 0.950 . S
C958 C956 1.391 . S
C958 C959 1.400 . S
C959 C958 1.400 . S
C959 C960 1.398 . S
C959 C965 1.491 . S
C960 H951 0.950 . S
C960 C959 1.398 . S
C960 C961 1.391 . S
C961 H949 0.950 . S
C961 C957 1.393 . S
C961 C960 1.391 . S
C962 H952 0.950 . S
C962 C963 1.386 . S
C962 C964 1.391 . S
C963 C962 1.386 . S
C963 C967 1.393 . S
C964 H953 0.950 1_455 S
C964 C962 1.391 . S
C964 C965 1.400 1_455 S
C965 C959 1.491 . S
C965 C964 1.400 1_655 S
C965 C966 1.398 1_655 S
C966 H954 0.951 . S
C966 C965 1.398 1_455 S
C966 C967 1.391 . S
C967 H955 0.950 . S
C967 C963 1.393 . S
C967 C966 1.391 . S
H968 C976 0.950 . S
H969 C981 0.950 . S
H970 C978 0.950 . S
H971 C980 0.950 . S
H972 C982 0.950 . S
H973 C984 0.950 . S
H974 C986 0.950 . S
H975 C987 0.950 . S
C976 H968 0.950 . S
C976 C977 1.386 . S
C976 C978 1.391 . S
C977 C976 1.386 . S
C977 C981 1.393 . S
C978 H970 0.950 . S
C978 C976 1.391 . S
C978 C979 1.400 . S
C979 C978 1.400 . S
C979 C980 1.398 . S
C979 C985 1.491 . S
C980 H971 0.950 . S
C980 C979 1.398 . S
C980 C981 1.391 . S
C981 H969 0.950 . S
C981 C977 1.393 . S
C981 C980 1.391 . S
C982 H972 0.950 . S
C982 C983 1.386 . S
C982 C984 1.391 . S
C983 C982 1.386 . S
C983 C987 1.393 . S
C984 H973 0.950 . S
C984 C982 1.391 . S
C984 C985 1.400 . S
C985 C979 1.491 . S
C985 C984 1.400 . S
C985 C986 1.398 . S
C986 H974 0.950 . S
C986 C985 1.398 . S
C986 C987 1.391 . S
C987 H975 0.950 . S
C987 C983 1.393 . S
C987 C986 1.391 . S
H988 C996 0.950 . S
H989 C1001 0.950 . S
H990 C998 0.950 . S
H991 C1000 0.950 . S
H992 C1002 0.950 . S
H993 C1004 0.950 . S
H994 C1006 0.950 . S
H995 C1007 0.950 . S
C996 H988 0.950 . S
C996 C997 1.386 . S
C996 C998 1.391 . S
C997 C996 1.386 . S
C997 C1001 1.393 . S
C998 H990 0.950 . S
C998 C996 1.391 . S
C998 C999 1.400 . S
C999 C998 1.400 . S
C999 C1000 1.398 . S
C999 C1005 1.491 . S
C1000 H991 0.950 . S
C1000 C999 1.398 . S
C1000 C1001 1.391 . S
C1001 H989 0.950 . S
C1001 C997 1.393 . S
C1001 C1000 1.391 . S
C1002 H992 0.950 . S
C1002 C1003 1.386 . S
C1002 C1004 1.391 . S
C1003 C1002 1.386 . S
C1003 C1007 1.393 . S
C1004 H993 0.950 . S
C1004 C1002 1.391 . S
C1004 C1005 1.400 . S
C1005 C999 1.491 . S
C1005 C1004 1.400 . S
C1005 C1006 1.398 . S
C1006 H994 0.950 . S
C1006 C1005 1.398 . S
C1006 C1007 1.391 . S
C1007 H995 0.950 . S
C1007 C1003 1.393 . S
C1007 C1006 1.391 . S
H1008 C1016 0.950 . S
H1009 C1021 0.950 . S
H1010 C1018 0.950 . S
H1011 C1020 0.950 . S
H1012 C1022 0.950 . S
H1013 C1024 0.950 . S
H1014 C1026 0.950 . S
H1015 C1027 0.950 . S
C1016 H1008 0.950 . S
C1016 C1017 1.386 . S
C1016 C1018 1.391 . S
C1017 C1016 1.386 . S
C1017 C1021 1.393 . S
C1018 H1010 0.950 . S
C1018 C1016 1.391 . S
C1018 C1019 1.400 . S
C1019 C1018 1.400 . S
C1019 C1020 1.398 . S
C1019 C1025 1.491 . S
C1020 H1011 0.950 . S
C1020 C1019 1.398 . S
C1020 C1021 1.391 . S
C1021 H1009 0.950 . S
C1021 C1017 1.393 . S
C1021 C1020 1.391 . S
C1022 H1012 0.950 . S
C1022 C1023 1.386 . S
C1022 C1024 1.391 . S
C1023 C1022 1.386 . S
C1023 C1027 1.393 . S
C1024 H1013 0.950 . S
C1024 C1022 1.391 . S
C1024 C1025 1.400 . S
C1025 C1019 1.491 . S
C1025 C1024 1.400 . S
C1025 C1026 1.398 . S
C1026 H1014 0.950 . S
C1026 C1025 1.398 . S
C1026 C1027 1.391 . S
C1027 H1015 0.950 . S
C1027 C1023 1.393 . S
C1027 C1026 1.391 . S
H1028 C1036 0.950 . S
H1029 C1041 0.950 . S
H1030 C1038 0.950 . S
H1031 C1040 0.950 . S
H1032 C1042 0.950 . S
H1033 C1044 0.950 . S
H1034 C1046 0.950 . S
H1035 C1047 0.950 . S
C1036 H1028 0.950 . S
C1036 C1037 1.386 . S
C1036 C1038 1.391 . S
C1037 C1036 1.386 . S
C1037 C1041 1.393 . S
C1038 H1030 0.950 . S
C1038 C1036 1.391 . S
C1038 C1039 1.400 . S
C1039 C1038 1.400 . S
C1039 C1040 1.398 . S
C1039 C1045 1.491 . S
C1040 H1031 0.950 . S
C1040 C1039 1.398 . S
C1040 C1041 1.391 . S
C1041 H1029 0.950 . S
C1041 C1037 1.393 . S
C1041 C1040 1.391 . S
C1042 H1032 0.950 . S
C1042 C1043 1.386 . S
C1042 C1044 1.391 . S
C1043 C1042 1.386 . S
C1043 C1047 1.393 . S
C1044 H1033 0.950 . S
C1044 C1042 1.391 . S
C1044 C1045 1.400 . S
C1045 C1039 1.491 . S
C1045 C1044 1.400 . S
C1045 C1046 1.398 . S
C1046 H1034 0.950 . S
C1046 C1045 1.398 . S
C1046 C1047 1.391 . S
C1047 H1035 0.950 . S
C1047 C1043 1.393 . S
C1047 C1046 1.391 . S
H1048 C1056 0.950 . S
H1049 C1061 0.950 . S
H1050 C1058 0.950 . S
H1051 C1060 0.950 . S
H1052 C1062 0.950 . S
H1053 C1064 0.950 . S
H1054 C1066 0.950 . S
H1055 C1067 0.950 . S
C1056 H1048 0.950 . S
C1056 C1057 1.386 . S
C1056 C1058 1.391 . S
C1057 C1056 1.386 . S
C1057 C1061 1.393 . S
C1058 H1050 0.950 . S
C1058 C1056 1.391 . S
C1058 C1059 1.400 . S
C1059 C1058 1.400 . S
C1059 C1060 1.398 . S
C1059 C1065 1.491 . S
C1060 H1051 0.950 . S
C1060 C1059 1.398 . S
C1060 C1061 1.391 . S
C1061 H1049 0.950 . S
C1061 C1057 1.393 . S
C1061 C1060 1.391 . S
C1062 H1052 0.950 . S
C1062 C1063 1.386 . S
C1062 C1064 1.391 . S
C1063 C1062 1.386 . S
C1063 C1067 1.393 . S
C1064 H1053 0.950 . S
C1064 C1062 1.391 . S
C1064 C1065 1.400 . S
C1065 C1059 1.491 . S
C1065 C1064 1.400 . S
C1065 C1066 1.398 . S
C1066 H1054 0.950 . S
C1066 C1065 1.398 . S
C1066 C1067 1.391 . S
C1067 H1055 0.950 . S
C1067 C1063 1.393 . S
C1067 C1066 1.391 . S
H1068 C1076 0.950 . S
H1069 C1081 0.950 . S
H1070 C1078 0.950 . S
H1071 C1080 0.950 . S
H1072 C1082 0.950 . S
H1073 C1084 0.950 . S
H1074 C1086 0.950 1_655 S
H1075 C1087 0.950 . S
C1076 H1068 0.950 . S
C1076 C1077 1.386 . S
C1076 C1078 1.391 . S
C1077 C1076 1.386 . S
C1077 C1081 1.393 . S
C1078 H1070 0.950 . S
C1078 C1076 1.391 . S
C1078 C1079 1.400 . S
C1079 C1078 1.400 . S
C1079 C1080 1.398 . S
C1079 C1085 1.491 . S
C1080 H1071 0.950 . S
C1080 C1079 1.398 . S
C1080 C1081 1.391 . S
C1081 H1069 0.950 . S
C1081 C1077 1.393 . S
C1081 C1080 1.391 . S
C1082 H1072 0.950 . S
C1082 C1083 1.386 . S
C1082 C1084 1.391 . S
C1083 C1082 1.386 . S
C1083 C1087 1.393 . S
C1084 H1073 0.950 . S
C1084 C1082 1.391 . S
C1084 C1085 1.400 1_455 S
C1085 C1079 1.491 . S
C1085 C1084 1.400 1_655 S
C1085 C1086 1.398 1_655 S
C1086 H1074 0.950 1_455 S
C1086 C1085 1.398 1_455 S
C1086 C1087 1.391 . S
C1087 H1075 0.950 . S
C1087 C1083 1.393 . S
C1087 C1086 1.391 . S
H1088 C1096 0.950 . S
H1089 C1101 0.950 . S
H1090 C1098 0.950 . S
H1091 C1100 0.950 . S
H1092 C1102 0.950 . S
H1093 C1104 0.950 . S
H1094 C1106 0.950 . S
H1095 C1107 0.950 . S
C1096 H1088 0.950 . S
C1096 C1097 1.386 . S
C1096 C1098 1.391 . S
C1097 C1096 1.386 . S
C1097 C1101 1.393 . S
C1098 H1090 0.950 . S
C1098 C1096 1.391 . S
C1098 C1099 1.400 . S
C1099 C1098 1.400 . S
C1099 C1100 1.398 . S
C1099 C1105 1.491 . S
C1100 H1091 0.950 . S
C1100 C1099 1.398 . S
C1100 C1101 1.391 . S
C1101 H1089 0.950 . S
C1101 C1097 1.393 . S
C1101 C1100 1.391 . S
C1102 H1092 0.950 . S
C1102 C1103 1.386 . S
C1102 C1104 1.391 . S
C1103 C1102 1.386 . S
C1103 C1107 1.393 . S
C1104 H1093 0.950 . S
C1104 C1102 1.391 . S
C1104 C1105 1.400 . S
C1105 C1099 1.491 . S
C1105 C1104 1.400 . S
C1105 C1106 1.398 . S
C1106 H1094 0.950 . S
C1106 C1105 1.398 . S
C1106 C1107 1.391 . S
C1107 H1095 0.950 . S
C1107 C1103 1.393 . S
C1107 C1106 1.391 . S
H1108 C1116 0.950 . S
H1109 C1121 0.950 . S
H1110 C1118 0.950 . S
H1111 C1120 0.950 . S
H1112 C1122 0.950 . S
H1113 C1124 0.950 . S
H1114 C1126 0.950 . S
H1115 C1127 0.950 . S
C1116 H1108 0.950 . S
C1116 C1117 1.386 . S
C1116 C1118 1.391 . S
C1117 C1116 1.386 . S
C1117 C1121 1.393 . S
C1118 H1110 0.950 . S
C1118 C1116 1.391 . S
C1118 C1119 1.400 . S
C1119 C1118 1.400 . S
C1119 C1120 1.398 . S
C1119 C1125 1.491 . S
C1120 H1111 0.950 . S
C1120 C1119 1.398 . S
C1120 C1121 1.391 . S
C1121 H1109 0.950 . S
C1121 C1117 1.393 . S
C1121 C1120 1.391 . S
C1122 H1112 0.950 . S
C1122 C1123 1.386 . S
C1122 C1124 1.391 . S
C1123 C1122 1.386 . S
C1123 C1127 1.393 . S
C1124 H1113 0.950 . S
C1124 C1122 1.391 . S
C1124 C1125 1.400 . S
C1125 C1119 1.491 . S
C1125 C1124 1.400 . S
C1125 C1126 1.398 . S
C1126 H1114 0.950 . S
C1126 C1125 1.398 . S
C1126 C1127 1.391 . S
C1127 H1115 0.950 . S
C1127 C1123 1.393 . S
C1127 C1126 1.391 . S
H1128 C1136 0.950 . S
H1129 C1141 0.950 . S
H1130 C1138 0.950 . S
H1131 C1140 0.950 . S
H1132 C1142 0.950 . S
H1133 C1144 0.950 . S
H1134 C1146 0.950 . S
H1135 C1147 0.950 . S
C1136 H1128 0.950 . S
C1136 C1137 1.386 . S
C1136 C1138 1.391 . S
C1137 C1136 1.386 . S
C1137 C1141 1.393 . S
C1138 H1130 0.950 . S
C1138 C1136 1.391 . S
C1138 C1139 1.400 . S
C1139 C1138 1.400 . S
C1139 C1140 1.398 . S
C1139 C1145 1.491 . S
C1140 H1131 0.950 . S
C1140 C1139 1.398 . S
C1140 C1141 1.391 . S
C1141 H1129 0.950 . S
C1141 C1137 1.393 . S
C1141 C1140 1.391 . S
C1142 H1132 0.950 . S
C1142 C1143 1.386 . S
C1142 C1144 1.391 . S
C1143 C1142 1.386 . S
C1143 C1147 1.393 . S
C1144 H1133 0.950 . S
C1144 C1142 1.391 . S
C1144 C1145 1.400 . S
C1145 C1139 1.491 . S
C1145 C1144 1.400 . S
C1145 C1146 1.398 . S
C1146 H1134 0.950 . S
C1146 C1145 1.398 . S
C1146 C1147 1.391 . S
C1147 H1135 0.950 . S
C1147 C1143 1.393 . S
C1147 C1146 1.391 . S
H1148 C1156 0.950 . S
H1149 C1161 0.950 . S
H1150 C1158 0.950 . S
H1151 C1160 0.950 . S
H1152 C1162 0.950 . S
H1153 C1164 0.950 1_655 S
H1154 C1166 0.950 . S
H1155 C1167 0.950 . S
C1156 H1148 0.950 . S
C1156 C1157 1.386 . S
C1156 C1158 1.391 . S
C1157 C1156 1.386 . S
C1157 C1161 1.393 . S
C1158 H1150 0.950 . S
C1158 C1156 1.391 . S
C1158 C1159 1.400 . S
C1159 C1158 1.400 . S
C1159 C1160 1.398 . S
C1159 C1165 1.491 . S
C1160 H1151 0.950 . S
C1160 C1159 1.398 . S
C1160 C1161 1.391 . S
C1161 H1149 0.950 . S
C1161 C1157 1.393 . S
C1161 C1160 1.391 . S
C1162 H1152 0.950 . S
C1162 C1163 1.386 . S
C1162 C1164 1.391 . S
C1163 C1162 1.386 . S
C1163 C1167 1.393 . S
C1164 H1153 0.950 1_455 S
C1164 C1162 1.391 . S
C1164 C1165 1.400 1_455 S
C1165 C1159 1.491 . S
C1165 C1164 1.400 1_655 S
C1165 C1166 1.398 1_655 S
C1166 H1154 0.950 . S
C1166 C1165 1.398 1_455 S
C1166 C1167 1.391 . S
C1167 H1155 0.950 . S
C1167 C1163 1.393 . S
C1167 C1166 1.391 . S
H1168 C1176 0.950 . S
H1169 C1181 0.950 . S
H1170 C1178 0.950 . S
H1171 C1180 0.950 . S
H1172 C1182 0.950 . S
H1173 C1184 0.950 . S
H1174 C1186 0.950 . S
H1175 C1187 0.950 . S
C1176 H1168 0.950 . S
C1176 C1177 1.386 . S
C1176 C1178 1.391 . S
C1177 C1176 1.386 . S
C1177 C1181 1.393 . S
C1178 H1170 0.950 . S
C1178 C1176 1.391 . S
C1178 C1179 1.400 . S
C1179 C1178 1.400 . S
C1179 C1180 1.398 . S
C1179 C1185 1.491 . S
C1180 H1171 0.950 . S
C1180 C1179 1.398 . S
C1180 C1181 1.391 . S
C1181 H1169 0.950 . S
C1181 C1177 1.393 . S
C1181 C1180 1.391 . S
C1182 H1172 0.950 . S
C1182 C1183 1.386 . S
C1182 C1184 1.391 . S
C1183 C1182 1.386 . S
C1183 C1187 1.393 . S
C1184 H1173 0.950 . S
C1184 C1182 1.391 . S
C1184 C1185 1.400 . S
C1185 C1179 1.491 . S
C1185 C1184 1.400 . S
C1185 C1186 1.398 . S
C1186 H1174 0.950 . S
C1186 C1185 1.398 . S
C1186 C1187 1.391 . S
C1187 H1175 0.950 . S
C1187 C1183 1.393 . S
C1187 C1186 1.391 . S
H1188 C1196 0.950 . S
H1189 C1201 0.950 . S
H1190 C1198 0.950 1_655 S
H1191 C1200 0.960 . S
H1192 C1202 0.950 . S
H1193 C1204 0.950 . S
H1194 C1206 0.950 . S
H1195 C1207 0.950 . S
C1196 H1188 0.950 . S
C1196 C1197 1.386 . S
C1196 C1198 1.391 . S
C1197 C1196 1.386 . S
C1197 C1201 1.393 . S
C1198 H1190 0.950 1_455 S
C1198 C1196 1.391 . S
C1198 C1199 1.400 1_455 S
C1199 C1198 1.400 1_655 S
C1199 C1200 1.398 1_655 S
C1199 C1205 1.491 . S
C1200 H1191 0.960 . S
C1200 C1199 1.398 1_455 S
C1200 C1201 1.391 . S
C1201 H1189 0.950 . S
C1201 C1197 1.393 . S
C1201 C1200 1.391 . S
C1202 H1192 0.950 . S
C1202 C1203 1.386 . S
C1202 C1204 1.391 . S
C1203 C1202 1.386 . S
C1203 C1207 1.393 . S
C1204 H1193 0.950 . S
C1204 C1202 1.391 . S
C1204 C1205 1.400 . S
C1205 C1199 1.491 . S
C1205 C1204 1.400 . S
C1205 C1206 1.398 . S
C1206 H1194 0.950 . S
C1206 C1205 1.398 . S
C1206 C1207 1.391 . S
C1207 H1195 0.950 . S
C1207 C1203 1.393 . S
C1207 C1206 1.391 . S
H1208 C1216 0.950 . S
H1209 C1221 0.950 . S
H1210 C1218 0.950 . S
H1211 C1220 0.950 . S
H1212 C1222 0.950 . S
H1213 C1224 0.950 . S
H1214 C1226 0.950 . S
H1215 C1227 0.950 . S
C1216 H1208 0.950 . S
C1216 C1217 1.386 . S
C1216 C1218 1.391 . S
C1217 C1216 1.386 . S
C1217 C1221 1.393 . S
C1218 H1210 0.950 . S
C1218 C1216 1.391 . S
C1218 C1219 1.400 . S
C1219 C1218 1.400 . S
C1219 C1220 1.398 . S
C1219 C1225 1.491 . S
C1220 H1211 0.950 . S
C1220 C1219 1.398 . S
C1220 C1221 1.391 . S
C1221 H1209 0.950 . S
C1221 C1217 1.393 . S
C1221 C1220 1.391 . S
C1222 H1212 0.950 . S
C1222 C1223 1.386 . S
C1222 C1224 1.391 . S
C1223 C1222 1.386 . S
C1223 C1227 1.393 . S
C1224 H1213 0.950 . S
C1224 C1222 1.391 . S
C1224 C1225 1.400 . S
C1225 C1219 1.491 . S
C1225 C1224 1.400 . S
C1225 C1226 1.398 . S
C1226 H1214 0.950 . S
C1226 C1225 1.398 . S
C1226 C1227 1.391 . S
C1227 H1215 0.950 . S
C1227 C1223 1.393 . S
C1227 C1226 1.391 . S
H1228 C1236 0.950 . S
H1229 C1241 0.950 . S
H1230 C1238 0.950 . S
H1231 C1240 0.950 . S
H1232 C1242 0.950 . S
H1233 C1244 0.950 . S
H1234 C1246 0.950 . S
H1235 C1247 0.950 . S
C1236 H1228 0.950 . S
C1236 C1237 1.386 . S
C1236 C1238 1.391 . S
C1237 C1236 1.386 . S
C1237 C1241 1.393 . S
C1238 H1230 0.950 . S
C1238 C1236 1.391 . S
C1238 C1239 1.400 . S
C1239 C1238 1.400 . S
C1239 C1240 1.398 . S
C1239 C1245 1.491 . S
C1240 H1231 0.950 . S
C1240 C1239 1.398 . S
C1240 C1241 1.391 . S
C1241 H1229 0.950 . S
C1241 C1237 1.393 . S
C1241 C1240 1.391 . S
C1242 H1232 0.950 . S
C1242 C1243 1.386 . S
C1242 C1244 1.391 . S
C1243 C1242 1.386 . S
C1243 C1247 1.393 . S
C1244 H1233 0.950 . S
C1244 C1242 1.391 . S
C1244 C1245 1.400 . S
C1245 C1239 1.491 . S
C1245 C1244 1.400 . S
C1245 C1246 1.398 . S
C1246 H1234 0.950 . S
C1246 C1245 1.398 . S
C1246 C1247 1.391 . S
C1247 H1235 0.950 . S
C1247 C1243 1.393 . S
C1247 C1246 1.391 . S
H1248 C1256 0.950 . S
H1249 C1261 0.950 . S
H1250 C1258 0.950 . S
H1251 C1260 0.950 . S
H1252 C1262 0.950 . S
H1253 C1264 0.950 . S
H1254 C1266 0.950 . S
H1255 C1267 0.950 . S
C1256 H1248 0.950 . S
C1256 C1257 1.386 . S
C1256 C1258 1.391 . S
C1257 C1256 1.386 . S
C1257 C1261 1.393 . S
C1258 H1250 0.950 . S
C1258 C1256 1.391 . S
C1258 C1259 1.400 . S
C1259 C1258 1.400 . S
C1259 C1260 1.398 . S
C1259 C1265 1.491 . S
C1260 H1251 0.950 . S
C1260 C1259 1.398 . S
C1260 C1261 1.391 . S
C1261 H1249 0.950 . S
C1261 C1257 1.393 . S
C1261 C1260 1.391 . S
C1262 H1252 0.950 . S
C1262 C1263 1.386 . S
C1262 C1264 1.391 . S
C1263 C1262 1.386 . S
C1263 C1267 1.393 . S
C1264 H1253 0.950 . S
C1264 C1262 1.391 . S
C1264 C1265 1.400 . S
C1265 C1259 1.491 . S
C1265 C1264 1.400 . S
C1265 C1266 1.398 . S
C1266 H1254 0.950 . S
C1266 C1265 1.398 . S
C1266 C1267 1.391 . S
C1267 H1255 0.950 . S
C1267 C1263 1.393 . S
C1267 C1266 1.391 . S
H1268 C1276 0.950 . S
H1269 C1281 0.950 . S
H1270 C1278 0.950 . S
H1271 C1280 0.950 . S
H1272 C1282 0.950 . S
H1273 C1284 0.950 . S
H1274 C1286 0.950 . S
H1275 C1287 0.950 . S
C1276 H1268 0.950 . S
C1276 C1277 1.386 . S
C1276 C1278 1.391 . S
C1277 C1276 1.386 . S
C1277 C1281 1.393 . S
C1278 H1270 0.950 . S
C1278 C1276 1.391 . S
C1278 C1279 1.400 . S
C1279 C1278 1.400 . S
C1279 C1280 1.398 . S
C1279 C1285 1.491 . S
C1280 H1271 0.950 . S
C1280 C1279 1.398 . S
C1280 C1281 1.391 . S
C1281 H1269 0.950 . S
C1281 C1277 1.393 . S
C1281 C1280 1.391 . S
C1282 H1272 0.950 . S
C1282 C1283 1.386 . S
C1282 C1284 1.391 . S
C1283 C1282 1.386 . S
C1283 C1287 1.393 . S
C1284 H1273 0.950 . S
C1284 C1282 1.391 . S
C1284 C1285 1.400 . S
C1285 C1279 1.491 . S
C1285 C1284 1.400 . S
C1285 C1286 1.398 . S
C1286 H1274 0.950 . S
C1286 C1285 1.398 . S
C1286 C1287 1.391 . S
C1287 H1275 0.950 . S
C1287 C1283 1.393 . S
C1287 C1286 1.391 . S
H1288 C1296 0.950 . S
H1289 C1301 0.950 . S
H1290 C1298 0.950 . S
H1291 C1300 0.950 . S
H1292 C1302 0.950 . S
H1293 C1304 0.950 . S
H1294 C1306 0.950 . S
H1295 C1307 0.950 . S
C1296 H1288 0.950 . S
C1296 C1297 1.386 . S
C1296 C1298 1.391 . S
C1297 C1296 1.386 . S
C1297 C1301 1.393 . S
C1298 H1290 0.950 . S
C1298 C1296 1.391 . S
C1298 C1299 1.400 . S
C1299 C1298 1.400 . S
C1299 C1300 1.398 . S
C1299 C1305 1.491 . S
C1300 H1291 0.950 . S
C1300 C1299 1.398 . S
C1300 C1301 1.391 . S
C1301 H1289 0.950 . S
C1301 C1297 1.393 . S
C1301 C1300 1.391 . S
C1302 H1292 0.950 . S
C1302 C1303 1.386 . S
C1302 C1304 1.391 . S
C1303 C1302 1.386 . S
C1303 C1307 1.393 . S
C1304 H1293 0.950 . S
C1304 C1302 1.391 . S
C1304 C1305 1.400 . S
C1305 C1299 1.491 . S
C1305 C1304 1.400 . S
C1305 C1306 1.398 . S
C1306 H1294 0.950 . S
C1306 C1305 1.398 . S
C1306 C1307 1.391 . S
C1307 H1295 0.950 . S
C1307 C1303 1.393 . S
C1307 C1306 1.391 . S
H1308 C1316 0.950 . S
H1309 C1321 0.950 . S
H1310 C1318 0.950 . S
H1311 C1320 0.950 . S
H1312 C1322 0.950 . S
H1313 C1324 0.950 . S
H1314 C1326 0.950 1_455 S
H1315 C1327 0.950 . S
C1316 H1308 0.950 . S
C1316 C1317 1.386 . S
C1316 C1318 1.391 . S
C1317 C1316 1.386 . S
C1317 C1321 1.393 . S
C1318 H1310 0.950 . S
C1318 C1316 1.391 . S
C1318 C1319 1.400 . S
C1319 C1318 1.400 . S
C1319 C1320 1.398 . S
C1319 C1325 1.491 . S
C1320 H1311 0.950 . S
C1320 C1319 1.398 . S
C1320 C1321 1.391 . S
C1321 H1309 0.950 . S
C1321 C1317 1.393 . S
C1321 C1320 1.391 . S
C1322 H1312 0.950 . S
C1322 C1323 1.386 . S
C1322 C1324 1.391 . S
C1323 C1322 1.386 . S
C1323 C1327 1.393 . S
C1324 H1313 0.950 . S
C1324 C1322 1.391 . S
C1324 C1325 1.400 1_655 S
C1325 C1319 1.491 . S
C1325 C1324 1.400 1_455 S
C1325 C1326 1.398 1_455 S
C1326 H1314 0.950 1_655 S
C1326 C1325 1.398 1_655 S
C1326 C1327 1.391 . S
C1327 H1315 0.950 . S
C1327 C1323 1.393 . S
C1327 C1326 1.391 . S
H1328 C1336 0.950 . S
H1329 C1341 0.950 . S
H1330 C1338 0.950 . S
H1331 C1340 0.950 . S
H1332 C1342 0.950 . S
H1333 C1344 0.950 . S
H1334 C1346 0.950 . S
H1335 C1347 0.950 . S
C1336 H1328 0.950 . S
C1336 C1337 1.386 . S
C1336 C1338 1.391 . S
C1337 C1336 1.386 . S
C1337 C1341 1.393 . S
C1338 H1330 0.950 . S
C1338 C1336 1.391 . S
C1338 C1339 1.400 . S
C1339 C1338 1.400 . S
C1339 C1340 1.398 . S
C1339 C1345 1.491 . S
C1340 H1331 0.950 . S
C1340 C1339 1.398 . S
C1340 C1341 1.391 . S
C1341 H1329 0.950 . S
C1341 C1337 1.393 . S
C1341 C1340 1.391 . S
C1342 H1332 0.950 . S
C1342 C1343 1.386 . S
C1342 C1344 1.391 . S
C1343 C1342 1.386 . S
C1343 C1347 1.393 . S
C1344 H1333 0.950 . S
C1344 C1342 1.391 . S
C1344 C1345 1.400 . S
C1345 C1339 1.491 . S
C1345 C1344 1.400 . S
C1345 C1346 1.398 . S
C1346 H1334 0.950 . S
C1346 C1345 1.398 . S
C1346 C1347 1.391 . S
C1347 H1335 0.950 . S
C1347 C1343 1.393 . S
C1347 C1346 1.391 . S
H1348 C1356 0.950 . S
H1349 C1361 0.950 . S
H1350 C1358 0.950 . S
H1351 C1360 0.950 1_455 S
H1352 C1362 0.950 . S
H1353 C1364 0.950 . S
H1354 C1366 0.950 . S
H1355 C1367 0.950 . S
C1356 H1348 0.950 . S
C1356 C1357 1.386 . S
C1356 C1358 1.391 . S
C1357 C1356 1.386 . S
C1357 C1361 1.393 . S
C1358 H1350 0.950 . S
C1358 C1356 1.391 . S
C1358 C1359 1.400 1_655 S
C1359 C1358 1.400 1_455 S
C1359 C1360 1.398 1_455 S
C1359 C1365 1.491 . S
C1360 H1351 0.950 1_655 S
C1360 C1359 1.398 1_655 S
C1360 C1361 1.391 . S
C1361 H1349 0.950 . S
C1361 C1357 1.393 . S
C1361 C1360 1.391 . S
C1362 H1352 0.950 . S
C1362 C1363 1.386 . S
C1362 C1364 1.391 . S
C1363 C1362 1.386 . S
C1363 C1367 1.393 . S
C1364 H1353 0.950 . S
C1364 C1362 1.391 . S
C1364 C1365 1.400 . S
C1365 C1359 1.491 . S
C1365 C1364 1.400 . S
C1365 C1366 1.398 . S
C1366 H1354 0.950 . S
C1366 C1365 1.398 . S
C1366 C1367 1.391 . S
C1367 H1355 0.950 . S
C1367 C1363 1.393 . S
C1367 C1366 1.391 . S
H1368 C1376 0.950 . S
H1369 C1381 0.950 . S
H1370 C1378 0.950 . S
H1371 C1380 0.950 . S
H1372 C1382 0.950 . S
H1373 C1384 0.950 . S
H1374 C1386 0.950 . S
H1375 C1387 0.950 . S
C1376 H1368 0.950 . S
C1376 C1377 1.386 . S
C1376 C1378 1.391 . S
C1377 C1376 1.386 . S
C1377 C1381 1.393 . S
C1378 H1370 0.950 . S
C1378 C1376 1.391 . S
C1378 C1379 1.400 . S
C1379 C1378 1.400 . S
C1379 C1380 1.398 . S
C1379 C1385 1.491 . S
C1380 H1371 0.950 . S
C1380 C1379 1.398 . S
C1380 C1381 1.391 . S
C1381 H1369 0.950 . S
C1381 C1377 1.393 . S
C1381 C1380 1.391 . S
C1382 H1372 0.950 . S
C1382 C1383 1.386 . S
C1382 C1384 1.391 . S
C1383 C1382 1.386 . S
C1383 C1387 1.393 . S
C1384 H1373 0.950 . S
C1384 C1382 1.391 . S
C1384 C1385 1.400 . S
C1385 C1379 1.491 . S
C1385 C1384 1.400 . S
C1385 C1386 1.398 . S
C1386 H1374 0.950 . S
C1386 C1385 1.398 . S
C1386 C1387 1.391 . S
C1387 H1375 0.950 . S
C1387 C1383 1.393 . S
C1387 C1386 1.391 . S
H1388 C1396 0.950 . S
H1389 C1401 0.950 . S
H1390 C1398 0.950 . S
H1391 C1400 0.950 . S
H1392 C1402 0.950 . S
H1393 C1404 0.950 . S
H1394 C1406 0.950 . S
H1395 C1407 0.950 . S
C1396 H1388 0.950 . S
C1396 C1397 1.386 . S
C1396 C1398 1.391 . S
C1397 C1396 1.386 . S
C1397 C1401 1.393 . S
C1398 H1390 0.950 . S
C1398 C1396 1.391 . S
C1398 C1399 1.400 . S
C1399 C1398 1.400 . S
C1399 C1400 1.398 . S
C1399 C1405 1.491 . S
C1400 H1391 0.950 . S
C1400 C1399 1.398 . S
C1400 C1401 1.391 . S
C1401 H1389 0.950 . S
C1401 C1397 1.393 . S
C1401 C1400 1.391 . S
C1402 H1392 0.950 . S
C1402 C1403 1.386 . S
C1402 C1404 1.391 . S
C1403 C1402 1.386 . S
C1403 C1407 1.393 . S
C1404 H1393 0.950 . S
C1404 C1402 1.391 . S
C1404 C1405 1.400 . S
C1405 C1399 1.491 . S
C1405 C1404 1.400 . S
C1405 C1406 1.398 . S
C1406 H1394 0.950 . S
C1406 C1405 1.398 . S
C1406 C1407 1.391 . S
C1407 H1395 0.950 . S
C1407 C1403 1.393 . S
C1407 C1406 1.391 . S
H1408 C1416 0.950 . S
H1409 C1421 0.950 . S
H1410 C1418 0.950 . S
H1411 C1420 0.950 . S
H1412 C1422 0.950 . S
H1413 C1424 0.950 . S
H1414 C1426 0.950 . S
H1415 C1427 0.950 . S
C1416 H1408 0.950 . S
C1416 C1417 1.386 . S
C1416 C1418 1.391 . S
C1417 C1416 1.386 . S
C1417 C1421 1.393 . S
C1418 H1410 0.950 . S
C1418 C1416 1.391 . S
C1418 C1419 1.400 . S
C1419 C1418 1.400 . S
C1419 C1420 1.398 . S
C1419 C1425 1.491 . S
C1420 H1411 0.950 . S
C1420 C1419 1.398 . S
C1420 C1421 1.391 . S
C1421 H1409 0.950 . S
C1421 C1417 1.393 . S
C1421 C1420 1.391 . S
C1422 H1412 0.950 . S
C1422 C1423 1.386 . S
C1422 C1424 1.391 . S
C1423 C1422 1.386 . S
C1423 C1427 1.393 . S
C1424 H1413 0.950 . S
C1424 C1422 1.391 . S
C1424 C1425 1.400 . S
C1425 C1419 1.491 . S
C1425 C1424 1.400 . S
C1425 C1426 1.398 . S
C1426 H1414 0.950 . S
C1426 C1425 1.398 . S
C1426 C1427 1.391 . S
C1427 H1415 0.950 . S
C1427 C1423 1.393 . S
C1427 C1426 1.391 . S
H1428 C1436 0.950 . S
H1429 C1441 0.950 . S
H1430 C1438 0.950 . S
H1431 C1440 0.950 . S
H1432 C1442 0.950 . S
H1433 C1444 0.950 . S
H1434 C1446 0.950 . S
H1435 C1447 0.950 . S
C1436 H1428 0.950 . S
C1436 C1437 1.386 . S
C1436 C1438 1.391 . S
C1437 C1436 1.386 . S
C1437 C1441 1.393 . S
C1438 H1430 0.950 . S
C1438 C1436 1.391 . S
C1438 C1439 1.400 . S
C1439 C1438 1.400 . S
C1439 C1440 1.398 . S
C1439 C1445 1.491 . S
C1440 H1431 0.950 . S
C1440 C1439 1.398 . S
C1440 C1441 1.391 . S
C1441 H1429 0.950 . S
C1441 C1437 1.393 . S
C1441 C1440 1.391 . S
C1442 H1432 0.950 . S
C1442 C1443 1.386 . S
C1442 C1444 1.391 . S
C1443 C1442 1.386 . S
C1443 C1447 1.393 . S
C1444 H1433 0.950 . S
C1444 C1442 1.391 . S
C1444 C1445 1.400 . S
C1445 C1439 1.491 . S
C1445 C1444 1.400 . S
C1445 C1446 1.398 . S
C1446 H1434 0.950 . S
C1446 C1445 1.398 . S
C1446 C1447 1.391 . S
C1447 H1435 0.950 . S
C1447 C1443 1.393 . S
C1447 C1446 1.391 . S
H1448 C1456 0.950 . S
H1449 C1461 0.950 . S
H1450 C1458 0.950 . S
H1451 C1460 0.950 . S
H1452 C1462 0.950 . S
H1453 C1464 0.950 . S
H1454 C1466 0.950 . S
H1455 C1467 0.950 . S
C1456 H1448 0.950 . S
C1456 C1457 1.386 . S
C1456 C1458 1.391 . S
C1457 C1456 1.386 . S
C1457 C1461 1.393 . S
C1458 H1450 0.950 . S
C1458 C1456 1.391 . S
C1458 C1459 1.400 . S
C1459 C1458 1.400 . S
C1459 C1460 1.398 . S
C1459 C1465 1.491 . S
C1460 H1451 0.950 . S
C1460 C1459 1.398 . S
C1460 C1461 1.391 . S
C1461 H1449 0.950 . S
C1461 C1457 1.393 . S
C1461 C1460 1.391 . S
C1462 H1452 0.950 . S
C1462 C1463 1.386 . S
C1462 C1464 1.391 . S
C1463 C1462 1.386 . S
C1463 C1467 1.393 . S
C1464 H1453 0.950 . S
C1464 C1462 1.391 . S
C1464 C1465 1.400 . S
C1465 C1459 1.491 . S
C1465 C1464 1.400 . S
C1465 C1466 1.398 . S
C1466 H1454 0.950 . S
C1466 C1465 1.398 . S
C1466 C1467 1.391 . S
C1467 H1455 0.950 . S
C1467 C1463 1.393 . S
C1467 C1466 1.391 . S
H1468 C1476 0.950 . S
H1469 C1481 0.950 . S
H1470 C1478 0.950 . S
H1471 C1480 0.950 . S
H1472 C1482 0.950 . S
H1473 C1484 0.950 . S
H1474 C1486 0.950 . S
H1475 C1487 0.950 . S
C1476 H1468 0.950 . S
C1476 C1477 1.386 . S
C1476 C1478 1.391 . S
C1477 C1476 1.386 . S
C1477 C1481 1.393 . S
C1478 H1470 0.950 . S
C1478 C1476 1.391 . S
C1478 C1479 1.400 . S
C1479 C1478 1.400 . S
C1479 C1480 1.398 . S
C1479 C1485 1.491 . S
C1480 H1471 0.950 . S
C1480 C1479 1.398 . S
C1480 C1481 1.391 . S
C1481 H1469 0.950 . S
C1481 C1477 1.393 . S
C1481 C1480 1.391 . S
C1482 H1472 0.950 . S
C1482 C1483 1.386 . S
C1482 C1484 1.391 . S
C1483 C1482 1.386 . S
C1483 C1487 1.393 . S
C1484 H1473 0.950 . S
C1484 C1482 1.391 . S
C1484 C1485 1.400 . S
C1485 C1479 1.491 . S
C1485 C1484 1.400 . S
C1485 C1486 1.398 . S
C1486 H1474 0.950 . S
C1486 C1485 1.398 . S
C1486 C1487 1.391 . S
C1487 H1475 0.950 . S
C1487 C1483 1.393 . S
C1487 C1486 1.391 . S
H1488 C1496 0.950 . S
H1489 C1501 0.950 . S
H1490 C1498 0.950 . S
H1491 C1500 0.950 . S
H1492 C1502 0.950 . S
H1493 C1504 0.950 . S
H1494 C1506 0.950 . S
H1495 C1507 0.950 . S
C1496 H1488 0.950 . S
C1496 C1497 1.386 . S
C1496 C1498 1.391 . S
C1497 C1496 1.386 . S
C1497 C1501 1.393 . S
C1498 H1490 0.950 . S
C1498 C1496 1.391 . S
C1498 C1499 1.400 . S
C1499 C1498 1.400 . S
C1499 C1500 1.398 . S
C1499 C1505 1.491 . S
C1500 H1491 0.950 . S
C1500 C1499 1.398 . S
C1500 C1501 1.391 . S
C1501 H1489 0.950 . S
C1501 C1497 1.393 . S
C1501 C1500 1.391 . S
C1502 H1492 0.950 . S
C1502 C1503 1.386 . S
C1502 C1504 1.391 . S
C1503 C1502 1.386 . S
C1503 C1507 1.393 . S
C1504 H1493 0.950 . S
C1504 C1502 1.391 . S
C1504 C1505 1.400 . S
C1505 C1499 1.491 . S
C1505 C1504 1.400 . S
C1505 C1506 1.398 . S
C1506 H1494 0.950 . S
C1506 C1505 1.398 . S
C1506 C1507 1.391 . S
C1507 H1495 0.950 . S
C1507 C1503 1.393 . S
C1507 C1506 1.391 . S
H1508 C1516 0.950 . S
H1509 C1521 0.950 . S
H1510 C1518 0.950 . S
H1511 C1520 0.950 . S
H1512 C1522 0.950 . S
H1513 C1524 0.950 . S
H1514 C1526 0.950 . S
H1515 C1527 0.950 . S
C1516 H1508 0.950 . S
C1516 C1517 1.386 . S
C1516 C1518 1.391 . S
C1517 C1516 1.386 . S
C1517 C1521 1.393 . S
C1518 H1510 0.950 . S
C1518 C1516 1.391 . S
C1518 C1519 1.400 . S
C1519 C1518 1.400 . S
C1519 C1520 1.398 . S
C1519 C1525 1.491 . S
C1520 H1511 0.950 . S
C1520 C1519 1.398 . S
C1520 C1521 1.391 . S
C1521 H1509 0.950 . S
C1521 C1517 1.393 . S
C1521 C1520 1.391 . S
C1522 H1512 0.950 . S
C1522 C1523 1.386 . S
C1522 C1524 1.391 . S
C1523 C1522 1.386 . S
C1523 C1527 1.393 . S
C1524 H1513 0.950 . S
C1524 C1522 1.391 . S
C1524 C1525 1.400 . S
C1525 C1519 1.491 . S
C1525 C1524 1.400 . S
C1525 C1526 1.398 . S
C1526 H1514 0.950 . S
C1526 C1525 1.398 . S
C1526 C1527 1.391 . S
C1527 H1515 0.950 . S
C1527 C1523 1.393 . S
C1527 C1526 1.391 . S
H1528 C1536 0.950 . S
H1529 C1541 0.950 . S
H1530 C1538 0.950 . S
H1531 C1540 0.950 . S
H1532 C1542 0.950 . S
H1533 C1544 0.950 . S
H1534 C1546 0.950 . S
H1535 C1547 0.950 . S
C1536 H1528 0.950 . S
C1536 C1537 1.386 . S
C1536 C1538 1.391 . S
C1537 C1536 1.386 . S
C1537 C1541 1.393 . S
C1538 H1530 0.950 . S
C1538 C1536 1.391 . S
C1538 C1539 1.400 . S
C1539 C1538 1.400 . S
C1539 C1540 1.398 . S
C1539 C1545 1.491 . S
C1540 H1531 0.950 . S
C1540 C1539 1.398 . S
C1540 C1541 1.391 . S
C1541 H1529 0.950 . S
C1541 C1537 1.393 . S
C1541 C1540 1.391 . S
C1542 H1532 0.950 . S
C1542 C1543 1.386 . S
C1542 C1544 1.391 . S
C1543 C1542 1.386 . S
C1543 C1547 1.393 . S
C1544 H1533 0.950 . S
C1544 C1542 1.391 . S
C1544 C1545 1.400 . S
C1545 C1539 1.491 . S
C1545 C1544 1.400 . S
C1545 C1546 1.398 . S
C1546 H1534 0.950 . S
C1546 C1545 1.398 . S
C1546 C1547 1.391 . S
C1547 H1535 0.950 . S
C1547 C1543 1.393 . S
C1547 C1546 1.391 . S
H1548 C1556 0.950 . S
H1549 C1561 0.950 . S
H1550 C1558 0.950 . S
H1551 C1560 0.950 . S
H1552 C1562 0.950 . S
H1553 C1564 0.950 . S
H1554 C1566 0.950 . S
H1555 C1567 0.950 . S
C1556 H1548 0.950 . S
C1556 C1557 1.386 . S
C1556 C1558 1.391 . S
C1557 C1556 1.386 . S
C1557 C1561 1.393 . S
C1558 H1550 0.950 . S
C1558 C1556 1.391 . S
C1558 C1559 1.400 . S
C1559 C1558 1.400 . S
C1559 C1560 1.398 . S
C1559 C1565 1.491 . S
C1560 H1551 0.950 . S
C1560 C1559 1.398 . S
C1560 C1561 1.391 . S
C1561 H1549 0.950 . S
C1561 C1557 1.393 . S
C1561 C1560 1.391 . S
C1562 H1552 0.950 . S
C1562 C1563 1.386 . S
C1562 C1564 1.391 . S
C1563 C1562 1.386 . S
C1563 C1567 1.393 . S
C1564 H1553 0.950 . S
C1564 C1562 1.391 . S
C1564 C1565 1.400 . S
C1565 C1559 1.491 . S
C1565 C1564 1.400 . S
C1565 C1566 1.398 . S
C1566 H1554 0.950 . S
C1566 C1565 1.398 . S
C1566 C1567 1.391 . S
C1567 H1555 0.950 . S
C1567 C1563 1.393 . S
C1567 C1566 1.391 . S
H1568 C1576 0.950 . S
H1569 C1581 0.950 . S
H1570 C1578 0.950 . S
H1571 C1580 0.950 . S
H1572 C1582 0.950 . S
H1573 C1584 0.950 . S
H1574 C1586 0.950 . S
H1575 C1587 0.950 . S
C1576 H1568 0.950 . S
C1576 C1577 1.386 . S
C1576 C1578 1.391 . S
C1577 C1576 1.386 . S
C1577 C1581 1.393 . S
C1578 H1570 0.950 . S
C1578 C1576 1.391 . S
C1578 C1579 1.400 . S
C1579 C1578 1.400 . S
C1579 C1580 1.398 . S
C1579 C1585 1.491 . S
C1580 H1571 0.950 . S
C1580 C1579 1.398 . S
C1580 C1581 1.391 . S
C1581 H1569 0.950 . S
C1581 C1577 1.393 . S
C1581 C1580 1.391 . S
C1582 H1572 0.950 . S
C1582 C1583 1.386 . S
C1582 C1584 1.391 . S
C1583 C1582 1.386 . S
C1583 C1587 1.393 . S
C1584 H1573 0.950 . S
C1584 C1582 1.391 . S
C1584 C1585 1.400 . S
C1585 C1579 1.491 . S
C1585 C1584 1.400 . S
C1585 C1586 1.398 . S
C1586 H1574 0.950 . S
C1586 C1585 1.398 . S
C1586 C1587 1.391 . S
C1587 H1575 0.950 . S
C1587 C1583 1.393 . S
C1587 C1586 1.391 . S
H1588 C1596 0.950 . S
H1589 C1601 0.950 . S
H1590 C1598 0.950 . S
H1591 C1600 0.950 . S
H1592 C1602 0.950 . S
H1593 C1604 0.950 . S
H1594 C1606 0.950 . S
H1595 C1607 0.950 . S
C1596 H1588 0.950 . S
C1596 C1597 1.386 . S
C1596 C1598 1.391 . S
C1597 C1596 1.386 . S
C1597 C1601 1.393 . S
C1598 H1590 0.950 . S
C1598 C1596 1.391 . S
C1598 C1599 1.400 . S
C1599 C1598 1.400 . S
C1599 C1600 1.398 . S
C1599 C1605 1.491 . S
C1600 H1591 0.950 . S
C1600 C1599 1.398 . S
C1600 C1601 1.391 . S
C1601 H1589 0.950 . S
C1601 C1597 1.393 . S
C1601 C1600 1.391 . S
C1602 H1592 0.950 . S
C1602 C1603 1.386 . S
C1602 C1604 1.391 . S
C1603 C1602 1.386 . S
C1603 C1607 1.393 . S
C1604 H1593 0.950 . S
C1604 C1602 1.391 . S
C1604 C1605 1.400 . S
C1605 C1599 1.491 . S
C1605 C1604 1.400 . S
C1605 C1606 1.398 . S
C1606 H1594 0.950 . S
C1606 C1605 1.398 . S
C1606 C1607 1.391 . S
C1607 H1595 0.950 . S
C1607 C1603 1.393 . S
C1607 C1606 1.391 . S
H1608 C1616 0.950 . S
H1609 C1621 0.950 . S
H1610 C1618 0.950 . S
H1611 C1620 0.950 . S
H1612 C1622 0.950 . S
H1613 C1624 0.950 . S
H1614 C1626 0.950 . S
H1615 C1627 0.950 . S
C1616 H1608 0.950 . S
C1616 C1617 1.386 . S
C1616 C1618 1.391 . S
C1617 C1616 1.386 . S
C1617 C1621 1.393 . S
C1618 H1610 0.950 . S
C1618 C1616 1.391 . S
C1618 C1619 1.400 . S
C1619 C1618 1.400 . S
C1619 C1620 1.398 . S
C1619 C1625 1.491 . S
C1620 H1611 0.950 . S
C1620 C1619 1.398 . S
C1620 C1621 1.391 . S
C1621 H1609 0.950 . S
C1621 C1617 1.393 . S
C1621 C1620 1.391 . S
C1622 H1612 0.950 . S
C1622 C1623 1.386 . S
C1622 C1624 1.391 . S
C1623 C1622 1.386 . S
C1623 C1627 1.393 . S
C1624 H1613 0.950 . S
C1624 C1622 1.391 . S
C1624 C1625 1.400 . S
C1625 C1619 1.491 . S
C1625 C1624 1.400 . S
C1625 C1626 1.398 . S
C1626 H1614 0.950 . S
C1626 C1625 1.398 . S
C1626 C1627 1.391 . S
C1627 H1615 0.950 . S
C1627 C1623 1.393 . S
C1627 C1626 1.391 . S
H1628 C1636 0.950 . S
H1629 C1641 0.950 . S
H1630 C1638 0.950 . S
H1631 C1640 0.950 . S
H1632 C1642 0.950 . S
H1633 C1644 0.950 . S
H1634 C1646 0.950 . S
H1635 C1647 0.950 . S
C1636 H1628 0.950 . S
C1636 C1637 1.386 . S
C1636 C1638 1.391 . S
C1637 C1636 1.386 . S
C1637 C1641 1.393 . S
C1638 H1630 0.950 . S
C1638 C1636 1.391 . S
C1638 C1639 1.400 . S
C1639 C1638 1.400 . S
C1639 C1640 1.398 . S
C1639 C1645 1.491 . S
C1640 H1631 0.950 . S
C1640 C1639 1.398 . S
C1640 C1641 1.391 . S
C1641 H1629 0.950 . S
C1641 C1637 1.393 . S
C1641 C1640 1.391 . S
C1642 H1632 0.950 . S
C1642 C1643 1.386 . S
C1642 C1644 1.391 . S
C1643 C1642 1.386 . S
C1643 C1647 1.393 . S
C1644 H1633 0.950 . S
C1644 C1642 1.391 . S
C1644 C1645 1.400 . S
C1645 C1639 1.491 . S
C1645 C1644 1.400 . S
C1645 C1646 1.398 . S
C1646 H1634 0.950 . S
C1646 C1645 1.398 . S
C1646 C1647 1.391 . S
C1647 H1635 0.950 . S
C1647 C1643 1.393 . S
C1647 C1646 1.391 . S
H1648 C1656 0.950 . S
H1649 C1661 0.950 . S
H1650 C1658 0.950 . S
H1651 C1660 0.950 . S
H1652 C1662 0.950 . S
H1653 C1664 0.950 . S
H1654 C1666 0.950 . S
H1655 C1667 0.950 . S
C1656 H1648 0.950 . S
C1656 C1657 1.386 . S
C1656 C1658 1.391 . S
C1657 C1656 1.386 . S
C1657 C1661 1.393 . S
C1658 H1650 0.950 . S
C1658 C1656 1.391 . S
C1658 C1659 1.400 . S
C1659 C1658 1.400 . S
C1659 C1660 1.398 . S
C1659 C1665 1.491 . S
C1660 H1651 0.950 . S
C1660 C1659 1.398 . S
C1660 C1661 1.391 . S
C1661 H1649 0.950 . S
C1661 C1657 1.393 . S
C1661 C1660 1.391 . S
C1662 H1652 0.950 . S
C1662 C1663 1.386 . S
C1662 C1664 1.391 . S
C1663 C1662 1.386 . S
C1663 C1667 1.393 . S
C1664 H1653 0.950 . S
C1664 C1662 1.391 . S
C1664 C1665 1.400 . S
C1665 C1659 1.491 . S
C1665 C1664 1.400 . S
C1665 C1666 1.398 . S
C1666 H1654 0.950 . S
C1666 C1665 1.398 . S
C1666 C1667 1.391 . S
C1667 H1655 0.950 . S
C1667 C1663 1.393 . S
C1667 C1666 1.391 . S
H1668 C1676 0.950 . S
H1669 C1681 0.950 . S
H1670 C1678 0.950 . S
H1671 C1680 0.950 . S
H1672 C1682 0.950 . S
H1673 C1684 0.950 . S
H1674 C1686 0.950 . S
H1675 C1687 0.950 . S
C1676 H1668 0.950 . S
C1676 C1677 1.386 . S
C1676 C1678 1.391 . S
C1677 C1676 1.386 . S
C1677 C1681 1.393 . S
C1678 H1670 0.950 . S
C1678 C1676 1.391 . S
C1678 C1679 1.400 . S
C1679 C1678 1.400 . S
C1679 C1680 1.398 . S
C1679 C1685 1.491 . S
C1680 H1671 0.950 . S
C1680 C1679 1.398 . S
C1680 C1681 1.391 . S
C1681 H1669 0.950 . S
C1681 C1677 1.393 . S
C1681 C1680 1.391 . S
C1682 H1672 0.950 . S
C1682 C1683 1.386 . S
C1682 C1684 1.391 . S
C1683 C1682 1.386 . S
C1683 C1687 1.393 . S
C1684 H1673 0.950 . S
C1684 C1682 1.391 . S
C1684 C1685 1.400 . S
C1685 C1679 1.491 . S
C1685 C1684 1.400 . S
C1685 C1686 1.398 . S
C1686 H1674 0.950 . S
C1686 C1685 1.398 . S
C1686 C1687 1.391 . S
C1687 H1675 0.950 . S
C1687 C1683 1.393 . S
C1687 C1686 1.391 . S
H1688 C1696 0.950 . S
H1689 C1701 0.950 . S
H1690 C1698 0.950 . S
H1691 C1700 0.950 . S
H1692 C1702 0.950 . S
H1693 C1704 0.950 . S
H1694 C1706 0.950 . S
H1695 C1707 0.950 . S
C1696 H1688 0.950 . S
C1696 C1697 1.386 . S
C1696 C1698 1.391 . S
C1697 C1696 1.386 . S
C1697 C1701 1.393 . S
C1698 H1690 0.950 . S
C1698 C1696 1.391 . S
C1698 C1699 1.400 . S
C1699 C1698 1.400 . S
C1699 C1700 1.398 . S
C1699 C1705 1.491 . S
C1700 H1691 0.950 . S
C1700 C1699 1.398 . S
C1700 C1701 1.391 . S
C1701 H1689 0.950 . S
C1701 C1697 1.393 . S
C1701 C1700 1.391 . S
C1702 H1692 0.950 . S
C1702 C1703 1.386 . S
C1702 C1704 1.391 . S
C1703 C1702 1.386 . S
C1703 C1707 1.393 . S
C1704 H1693 0.950 . S
C1704 C1702 1.391 . S
C1704 C1705 1.400 . S
C1705 C1699 1.491 . S
C1705 C1704 1.400 . S
C1705 C1706 1.398 . S
C1706 H1694 0.950 . S
C1706 C1705 1.398 . S
C1706 C1707 1.391 . S
C1707 H1695 0.950 . S
C1707 C1703 1.393 . S
C1707 C1706 1.391 . S
H1708 C1716 0.950 . S
H1709 C1721 0.950 . S
H1710 C1718 0.950 . S
H1711 C1720 0.950 . S
H1712 C1722 0.950 . S
H1713 C1724 0.950 . S
H1714 C1726 0.950 . S
H1715 C1727 0.950 . S
C1716 H1708 0.950 . S
C1716 C1717 1.386 . S
C1716 C1718 1.391 . S
C1717 C1716 1.386 . S
C1717 C1721 1.393 . S
C1718 H1710 0.950 . S
C1718 C1716 1.391 . S
C1718 C1719 1.400 . S
C1719 C1718 1.400 . S
C1719 C1720 1.398 . S
C1719 C1725 1.491 . S
C1720 H1711 0.950 . S
C1720 C1719 1.398 . S
C1720 C1721 1.391 . S
C1721 H1709 0.950 . S
C1721 C1717 1.393 . S
C1721 C1720 1.391 . S
C1722 H1712 0.950 . S
C1722 C1723 1.386 . S
C1722 C1724 1.391 . S
C1723 C1722 1.386 . S
C1723 C1727 1.393 . S
C1724 H1713 0.950 . S
C1724 C1722 1.391 . S
C1724 C1725 1.400 . S
C1725 C1719 1.491 . S
C1725 C1724 1.400 . S
C1725 C1726 1.398 . S
C1726 H1714 0.950 . S
C1726 C1725 1.398 . S
C1726 C1727 1.391 . S
C1727 H1715 0.950 . S
C1727 C1723 1.393 . S
C1727 C1726 1.391 . S
C457 C6 1.520 . S
C463 C62 1.523 . S
C477 C20 1.539 . S
C483 C76 1.536 . S
C497 C90 1.530 . S
C503 C34 1.526 . S
C517 C104 1.542 . S
C523 C48 1.539 . S
C537 C118 1.516 . S
C543 C174 1.517 . S
C557 C132 1.540 . S
C563 C188 1.542 . S
C577 C202 1.544 . S
C583 C146 1.544 . S
C597 C160 1.518 . S
C603 C216 1.516 . S
C617 C286 1.544 . S
C623 C230 1.544 . S
C637 C300 1.544 . S
C643 C244 1.544 . S
C657 C258 1.515 . S
C663 C314 1.517 . S
C677 C328 1.528 . S
C683 C272 1.532 . S
C697 C342 1.518 . S
C703 C398 1.516 . S
C717 C412 1.544 . S
C723 C356 1.544 . S
C737 C426 1.544 . S
C743 C370 1.543 . S
C757 C384 1.542 . S
C763 C440 1.543 . S
C777 C9 1.611 . S
C783 C386 1.663 . S
C797 C120 1.659 . S
C803 C23 1.616 . S
C817 C37 1.613 . S
C823 C358 1.664 . S
C837 C51 1.623 . S
C843 C148 1.664 . S
C857 C414 1.663 . S
C863 C65 1.626 . S
C877 C204 1.663 . S
C883 C79 1.626 . S
C897 C93 1.610 . S
C903 C442 1.662 . S
C917 C107 1.612 . S
C923 C176 1.663 . S
C937 C274 1.659 . S
C943 C121 1.629 . S
C957 C135 1.629 . S
C963 C8 1.662 . S
C977 C246 1.660 . S
C983 C149 1.630 . S
C997 C163 1.615 . S
C1003 C36 1.664 . S
C1017 C302 1.658 . S
C1023 C177 1.622 . S
C1037 C191 1.610 . S
C1043 C92 1.662 . S
C1057 C330 1.664 . S
C1063 C205 1.619 . S
C1077 C219 1.610 . S
C1083 C64 1.661 . S
C1097 C162 1.664 . S
C1103 C233 1.615 . S
C1117 C344 1.660 . S
C1123 C247 1.612 . S
C1137 C134 1.663 . S
C1143 C261 1.627 . S
C1157 C275 1.615 . S
C1163 C372 1.664 . S
C1177 C190 1.664 . S
C1183 C289 1.622 . S
C1197 C428 1.658 . S
C1203 C303 1.621 . S
C1217 C218 1.659 . S
C1223 C317 1.628 . S
C1237 C331 1.630 . S
C1243 C400 1.660 . S
C1257 C345 1.610 . S
C1263 C50 1.661 . S
C1277 C359 1.610 . S
C1283 C232 1.661 . S
C1297 C373 1.628 . S
C1303 C22 1.659 . S
C1317 C387 1.616 . S
C1323 C260 1.664 . S
C1337 C401 1.621 . S
C1343 C78 1.658 . S
C1357 C316 1.659 . S
C1363 C415 1.627 . S
C1377 C106 1.659 . S
C1383 C429 1.628 . S
C1397 C443 1.610 . S
C1403 C288 1.661 . S
C1417 C7 1.037 . S
C1423 C105 1.081 . S
C1437 C21 1.080 . S
C1443 C63 1.057 1_556 S
C1457 C35 1.051 1_554 S
C1463 C77 1.052 . S
C1477 C91 1.080 . S
C1483 C49 1.036 . S
C1497 C217 1.085 . S
C1503 C119 1.046 . S
C1517 C175 1.085 1_554 S
C1523 C133 1.044 . S
C1537 C189 1.075 . S
C1543 C147 1.064 1_556 S
C1557 C203 1.072 . S
C1563 C161 1.037 . S
C1577 C231 1.069 1_554 S
C1583 C329 1.039 . S
C1597 C287 1.037 . S
C1603 C245 1.074 . S
C1617 C301 1.084 . S
C1623 C259 1.048 . S
C1637 C315 1.055 1_556 S
C1643 C273 1.049 . S
C1657 C441 1.053 . S
C1663 C343 1.050 1_556 S
C1677 C357 1.058 . S
C1683 C399 1.046 . S
C1697 C371 1.039 . S
C1703 C413 1.069 . S
C1717 C385 1.080 . S
C1723 C427 1.036 1_554 S
