# Generated by pormake.
# Topology vbj, (5)-cn, num edge types: 1
# Building blocks:
#     Node 0, Type 0, BuildingBlock: XOMCOT_clean_sbu_0, # of connection points: 5
#     Node 1, Type 0, BuildingBlock: XOMCOT_clean_sbu_0, # of connection points: 5
#     Node 2, Type 0, BuildingBlock: XOMCOT_clean_sbu_0, # of connection points: 5
#     Node 3, Type 0, BuildingBlock: XOMCOT_clean_sbu_0, # of connection points: 5
#     Node 4, Type 0, BuildingBlock: XOMCOT_clean_sbu_0, # of connection points: 5
#     Node 5, Type 0, BuildingBlock: XOMCOT_clean_sbu_0, # of connection points: 5
#     Node 6, Type 0, BuildingBlock: XOMCOT_clean_sbu_0, # of connection points: 5
#     Node 7, Type 0, BuildingBlock: XOMCOT_clean_sbu_0, # of connection points: 5
#     Node 8, Type 0, BuildingBlock: XOMCOT_clean_sbu_0, # of connection points: 5
#     Node 9, Type 0, BuildingBlock: XOMCOT_clean_sbu_0, # of connection points: 5
#     Node 10, Type 0, BuildingBlock: XOMCOT_clean_sbu_0, # of connection points: 5
#     Node 11, Type 0, BuildingBlock: XOMCOT_clean_sbu_0, # of connection points: 5
#     Node 12, Type 0, BuildingBlock: XOMCOT_clean_sbu_0, # of connection points: 5
#     Node 13, Type 0, BuildingBlock: XOMCOT_clean_sbu_0, # of connection points: 5
#     Node 14, Type 0, BuildingBlock: XOMCOT_clean_sbu_0, # of connection points: 5
#     Node 15, Type 0, BuildingBlock: XOMCOT_clean_sbu_0, # of connection points: 5
#     Edge 16, Type (0, 0), BuildingBlock: MIFKUJ_clean_linker_0, # of connection points: 2
#     Edge 17, Type (0, 0), BuildingBlock: MIFKUJ_clean_linker_0, # of connection points: 2
#     Edge 18, Type (0, 0), BuildingBlock: MIFKUJ_clean_linker_0, # of connection points: 2
#     Edge 19, Type (0, 0), BuildingBlock: MIFKUJ_clean_linker_0, # of connection points: 2
#     Edge 20, Type (0, 0), BuildingBlock: MIFKUJ_clean_linker_0, # of connection points: 2
#     Edge 21, Type (0, 0), BuildingBlock: MIFKUJ_clean_linker_0, # of connection points: 2
#     Edge 22, Type (0, 0), BuildingBlock: MIFKUJ_clean_linker_0, # of connection points: 2
#     Edge 23, Type (0, 0), BuildingBlock: MIFKUJ_clean_linker_0, # of connection points: 2
#     Edge 24, Type (0, 0), BuildingBlock: MIFKUJ_clean_linker_0, # of connection points: 2
#     Edge 25, Type (0, 0), BuildingBlock: MIFKUJ_clean_linker_0, # of connection points: 2
#     Edge 26, Type (0, 0), BuildingBlock: MIFKUJ_clean_linker_0, # of connection points: 2
#     Edge 27, Type (0, 0), BuildingBlock: MIFKUJ_clean_linker_0, # of connection points: 2
#     Edge 28, Type (0, 0), BuildingBlock: MIFKUJ_clean_linker_0, # of connection points: 2
#     Edge 29, Type (0, 0), BuildingBlock: MIFKUJ_clean_linker_0, # of connection points: 2
#     Edge 30, Type (0, 0), BuildingBlock: MIFKUJ_clean_linker_0, # of connection points: 2
#     Edge 31, Type (0, 0), BuildingBlock: MIFKUJ_clean_linker_0, # of connection points: 2
#     Edge 32, Type (0, 0), BuildingBlock: MIFKUJ_clean_linker_0, # of connection points: 2
#     Edge 33, Type (0, 0), BuildingBlock: MIFKUJ_clean_linker_0, # of connection points: 2
#     Edge 34, Type (0, 0), BuildingBlock: MIFKUJ_clean_linker_0, # of connection points: 2
#     Edge 35, Type (0, 0), BuildingBlock: MIFKUJ_clean_linker_0, # of connection points: 2
#     Edge 36, Type (0, 0), BuildingBlock: MIFKUJ_clean_linker_0, # of connection points: 2
#     Edge 37, Type (0, 0), BuildingBlock: MIFKUJ_clean_linker_0, # of connection points: 2
#     Edge 38, Type (0, 0), BuildingBlock: MIFKUJ_clean_linker_0, # of connection points: 2
#     Edge 39, Type (0, 0), BuildingBlock: MIFKUJ_clean_linker_0, # of connection points: 2
#     Edge 40, Type (0, 0), BuildingBlock: MIFKUJ_clean_linker_0, # of connection points: 2
#     Edge 41, Type (0, 0), BuildingBlock: MIFKUJ_clean_linker_0, # of connection points: 2
#     Edge 42, Type (0, 0), BuildingBlock: MIFKUJ_clean_linker_0, # of connection points: 2
#     Edge 43, Type (0, 0), BuildingBlock: MIFKUJ_clean_linker_0, # of connection points: 2
#     Edge 44, Type (0, 0), BuildingBlock: MIFKUJ_clean_linker_0, # of connection points: 2
#     Edge 45, Type (0, 0), BuildingBlock: MIFKUJ_clean_linker_0, # of connection points: 2
#     Edge 46, Type (0, 0), BuildingBlock: MIFKUJ_clean_linker_0, # of connection points: 2
#     Edge 47, Type (0, 0), BuildingBlock: MIFKUJ_clean_linker_0, # of connection points: 2
#     Edge 48, Type (0, 0), BuildingBlock: MIFKUJ_clean_linker_0, # of connection points: 2
#     Edge 49, Type (0, 0), BuildingBlock: MIFKUJ_clean_linker_0, # of connection points: 2
#     Edge 50, Type (0, 0), BuildingBlock: MIFKUJ_clean_linker_0, # of connection points: 2
#     Edge 51, Type (0, 0), BuildingBlock: MIFKUJ_clean_linker_0, # of connection points: 2
#     Edge 52, Type (0, 0), BuildingBlock: MIFKUJ_clean_linker_0, # of connection points: 2
#     Edge 53, Type (0, 0), BuildingBlock: MIFKUJ_clean_linker_0, # of connection points: 2
#     Edge 54, Type (0, 0), BuildingBlock: MIFKUJ_clean_linker_0, # of connection points: 2
#     Edge 55, Type (0, 0), BuildingBlock: MIFKUJ_clean_linker_0, # of connection points: 2
# Relax obj value: 0.093
# Max RMSD: 0.166
# Mean RMSD: 0.161
data_MOF--net-vbj--node1-XOMCOT_clean_sbu_0--edge1-MIFKUJ_clean_linker_0
_symmetry_space_group_name_H-M    P1
_symmetry_Int_Tables_number       1
_symmetry_cell_setting            triclinic
loop_
_symmetry_equiv_pos_as_xyz
'x, y, z'
_cell_length_a     31.951922
_cell_length_b     82.285483
_cell_length_c     64.832806
_cell_angle_alpha  89.479184
_cell_angle_beta   90.255887
_cell_angle_gamma 89.98761
loop_
_atom_site_label
_atom_site_type_symbol
_atom_site_fract_x
_atom_site_fract_y
_atom_site_fract_z
_atom_type_partial_charge
Co0 Co 0.09364 0.127 0.07607 0.0
C1 C 0.12644 0.09332 0.07593 0.0
C2 C 0.08123 0.09713 0.05179 0.0
C3 C 0.09679 0.08156 0.0503 0.0
N4 N 0.09962 0.10447 0.06794 0.0
N5 N 0.1254 0.07918 0.06541 0.0
H6 H 0.14686 0.09561 0.08894 0.0
H7 H 0.05931 0.10284 0.04128 0.0
C8 C 0.00354 0.13588 0.06558 0.0
O9 O 1.00038 0.14458 0.08239 0.0
N10 N 0.08901 0.14975 0.08426 0.0
C11 C 0.10378 0.15607 0.10197 0.0
C12 C 0.09629 0.17246 0.10207 0.0
C13 C 0.07426 0.16274 0.07337 0.0
N14 N 0.07725 0.17672 0.08424 0.0
C15 C 0.09831 0.11921 0.11905 0.0
C16 C 0.01618 0.11005 0.12494 0.0
C17 C 0.04275 0.1112 0.14219 0.0
C18 C 0.0846 0.11543 0.13886 0.0
C19 C 0.0314 0.11393 0.10521 0.0
N20 N 0.07135 0.11955 0.10264 0.0
H21 H 0.13079 0.12234 0.11721 0.0
H22 H 0.01087 0.11226 0.09219 0.0
H23 H 0.12025 0.14952 0.11392 0.0
H24 H 0.06092 0.16194 0.05805 0.0
O25 O 0.1524 0.12743 0.0831 0.0
O26 O 0.12617 0.13374 0.05238 0.0
O27 O 0.03687 0.12779 0.06199 0.0
C28 C 0.15895 0.13189 0.06415 0.0
H29 H 0.08901 0.07291 0.0384 0.0
H30 H 0.10512 0.18069 0.11427 0.0
H31 H 0.98401 0.10614 0.12664 0.0
H32 H 0.10661 0.1164 0.15153 0.0
Co33 Co 0.41829 0.88916 0.08238 0.0
C34 C 0.38256 0.92272 0.07852 0.0
C35 C 0.44754 0.92217 0.0705 0.0
C36 C 0.43343 0.93796 0.06883 0.0
N37 N 0.41566 0.91251 0.07655 0.0
N38 N 0.39253 0.9383 0.07383 0.0
H39 H 0.35191 0.919 0.08371 0.0
H40 H 0.47918 0.91818 0.06766 0.0
C41 C 0.50611 0.87946 0.06913 0.0
O42 O 0.51052 0.86981 0.08525 0.0
N43 N 0.41991 0.8658 0.08834 0.0
C44 C 0.40348 0.85856 0.1052 0.0
C45 C 0.40976 0.84211 0.10415 0.0
C46 C 0.43429 0.85333 0.07673 0.0
N47 N 0.42968 0.83875 0.08641 0.0
C48 C 0.42091 0.89345 0.12624 0.0
C49 C 0.50526 0.90006 0.13004 0.0
C50 C 0.48142 0.898 0.14795 0.0
C51 C 0.43844 0.89521 0.14585 0.0
C52 C 0.4862 0.8985 0.11066 0.0
N53 N 0.44511 0.89399 0.10892 0.0
H54 H 0.38771 0.89131 0.12517 0.0
H55 H 0.50485 0.90104 0.09725 0.0
H56 H 0.38708 0.86462 0.11739 0.0
H57 H 0.44881 0.8549 0.06181 0.0
O58 O 0.36021 0.88943 0.09082 0.0
O59 O 0.3824 0.88491 0.05904 0.0
O60 O 0.47291 0.88797 0.06678 0.0
C61 C 0.35117 0.88632 0.07168 0.0
H62 H 0.45187 0.94837 0.06412 0.0
H63 H 0.40004 0.83327 0.11562 0.0
H64 H 0.53827 0.90296 0.13101 0.0
H65 H 0.41862 0.89391 0.15928 0.0
Co66 Co 0.58169 0.89466 0.43522 0.0
C67 C 0.55935 0.85924 0.43521 0.0
C68 C 0.60872 0.86519 0.45644 0.0
C69 C 0.59997 0.84893 0.45845 0.0
N70 N 0.58342 0.87169 0.44191 0.0
N71 N 0.56885 0.84514 0.4452 0.0
H72 H 0.53471 0.86058 0.42381 0.0
H73 H 0.63144 0.87193 0.46533 0.0
C74 C 0.67326 0.90241 0.4269 0.0
O75 O 0.66372 0.91126 0.41056 0.0
N76 N 0.58096 0.91799 0.42934 0.0
C77 C 0.55451 0.92661 0.41719 0.0
C78 C 0.56692 0.94266 0.41691 0.0
C79 C 0.60782 0.92916 0.437 0.0
N80 N 0.60083 0.94423 0.4292 0.0
C81 C 0.54423 0.89195 0.39535 0.0
C82 C 0.61423 0.8824 0.37384 0.0
C83 C 0.57809 0.88689 0.36274 0.0
C84 C 0.5422 0.89083 0.37397 0.0
C85 C 0.61462 0.88343 0.39546 0.0
N86 N 0.58096 0.88959 0.40576 0.0
H87 H 0.5161 0.89521 0.40341 0.0
H88 H 0.64228 0.87955 0.40371 0.0
H89 H 0.52794 0.92181 0.40898 0.0
H90 H 0.63246 0.92626 0.44792 0.0
O91 O 0.52211 0.89486 0.44006 0.0
O92 O 0.57024 0.89932 0.46397 0.0
O93 O 0.64474 0.89501 0.43706 0.0
C94 C 0.53078 0.898 0.45919 0.0
H95 H 0.61541 0.84052 0.46892 0.0
H96 H 0.55274 0.9523 0.40782 0.0
H97 H 0.64235 0.87862 0.36595 0.0
H98 H 0.51271 0.89338 0.36629 0.0
Co99 Co 0.89469 0.13399 0.42464 0.0
C100 C 0.86018 0.10024 0.42899 0.0
C101 C 0.90389 0.10569 0.45302 0.0
C102 C 0.88807 0.09034 0.45652 0.0
N103 N 0.8877 0.11177 0.43528 0.0
N104 N 0.86047 0.08695 0.44141 0.0
H105 H 0.83872 0.1017 0.41624 0.0
H106 H 0.92431 0.11221 0.46338 0.0
C107 C 0.98214 0.12544 0.43839 0.0
O108 O 0.97939 0.11198 0.4277 0.0
N109 N 0.90019 0.15606 0.41431 0.0
C110 C 0.88414 0.16148 0.39629 0.0
C111 C 0.89337 0.17769 0.39407 0.0
C112 C 0.91877 0.16913 0.42297 0.0
N113 N 0.91524 0.18256 0.41078 0.0
C114 C 0.89075 0.11833 0.38542 0.0
C115 C 0.96761 0.12867 0.37104 0.0
C116 C 0.94059 0.12047 0.35758 0.0
C117 C 0.90202 0.11509 0.36513 0.0
C118 C 0.95493 0.13177 0.3913 0.0
N119 N 0.91711 0.12637 0.39845 0.0
H120 H 0.85942 0.11539 0.39002 0.0
H121 H 0.97458 0.13936 0.40078 0.0
H122 H 0.8666 0.15413 0.38554 0.0
H123 H 0.93464 0.16877 0.43774 0.0
O124 O 0.83599 0.13456 0.41739 0.0
O125 O 0.86252 0.14173 0.44765 0.0
O126 O 0.95194 0.13564 0.43806 0.0
C127 C 0.82968 0.13992 0.43593 0.0
H128 H 0.89468 0.08261 0.46974 0.0
H129 H 0.88382 0.18537 0.38125 0.0
H130 H 0.9972 0.13347 0.36563 0.0
H131 H 0.87994 0.10891 0.35519 0.0
Co132 Co 0.89986 0.894 0.89072 0.0
C133 C 0.92601 0.85869 0.88777 0.0
C134 C 0.86454 0.86365 0.87597 0.0
C135 C 0.87247 0.84736 0.87375 0.0
N136 N 0.89781 0.8708 0.88499 0.0
N137 N 0.9111 0.84424 0.8812 0.0
H138 H 0.95648 0.86009 0.8946 0.0
H139 H 0.83618 0.86992 0.87139 0.0
C140 C 0.83563 0.88043 0.9188 0.0
O141 O 0.8625 0.86857 0.92203 0.0
N142 N 0.9005 0.9171 0.89556 0.0
C143 C 0.93437 0.92643 0.89887 0.0
C144 C 0.92162 0.94237 0.90023 0.0
C145 C 0.86767 0.92739 0.89484 0.0
N146 N 0.87961 0.94301 0.8977 0.0
C147 C 0.97347 0.88641 0.9141 0.0
C148 C 0.94305 0.89435 0.95253 0.0
C149 C 0.98419 0.88854 0.95093 0.0
C150 C 0.99943 0.88488 0.93128 0.0
C151 C 0.91815 0.89585 0.93478 0.0
N152 N 0.93262 0.89097 0.91598 0.0
H153 H 0.98675 0.88414 0.89914 0.0
H154 H 0.8876 0.90131 0.93622 0.0
H155 H 0.96619 0.922 0.89979 0.0
H156 H 0.83584 0.92346 0.89214 0.0
O157 O 0.94569 0.89642 0.87191 0.0
O158 O 0.87908 0.89797 0.86271 0.0
O159 O 0.84505 0.89205 0.90635 0.0
C160 C 0.91837 0.89834 0.85728 0.0
H161 H 0.85161 0.83854 0.86689 0.0
H162 H 0.94209 0.9527 0.90231 0.0
H163 H 0.9302 0.89782 0.96727 0.0
H164 H 0.03166 0.88126 0.92902 0.0
Co165 Co 0.60986 0.13711 0.88434 0.0
C166 C 0.58451 0.17261 0.88273 0.0
C167 C 0.64587 0.16792 0.87099 0.0
C168 C 0.63822 0.18432 0.86937 0.0
N169 N 0.61249 0.16052 0.8796 0.0
N170 N 0.59965 0.18726 0.87677 0.0
H171 H 0.55398 0.17103 0.88933 0.0
H172 H 0.67407 0.16174 0.86625 0.0
C173 C 0.67556 0.14903 0.91302 0.0
O174 O 0.64954 0.16101 0.91675 0.0
N175 N 0.60859 0.11385 0.88826 0.0
C176 C 0.5744 0.10452 0.8909 0.0
C177 C 0.58679 0.08851 0.89221 0.0
C178 C 0.64129 0.10348 0.88799 0.0
N179 N 0.62884 0.08787 0.89037 0.0
C180 C 0.53705 0.14401 0.90801 0.0
C181 C 0.56763 0.13431 0.94607 0.0
C182 C 0.52642 0.14015 0.94463 0.0
C183 C 0.51116 0.14473 0.92514 0.0
C184 C 0.59244 0.13359 0.92834 0.0
N185 N 0.57785 0.1393 0.90975 0.0
H186 H 0.5236 0.14697 0.89317 0.0
H187 H 0.62291 0.12801 0.92959 0.0
H188 H 0.54266 0.10905 0.89167 0.0
H189 H 0.67336 0.10727 0.88561 0.0
O190 O 0.56326 0.13561 0.86565 0.0
O191 O 0.62934 0.13417 0.85597 0.0
O192 O 0.66526 0.13811 0.89994 0.0
C193 C 0.58978 0.13407 0.85079 0.0
H194 H 0.6592 0.19332 0.86292 0.0
H195 H 0.56639 0.07816 0.8945 0.0
H196 H 0.58055 0.13016 0.96065 0.0
H197 H 0.47889 0.14838 0.92288 0.0
Co198 Co 0.38499 0.14178 0.6146 0.0
C199 C 0.40738 0.17675 0.6121 0.0
C200 C 0.34086 0.17302 0.61295 0.0
C201 C 0.34856 0.18946 0.6118 0.0
N202 N 0.37769 0.16507 0.61299 0.0
N203 N 0.39035 0.19181 0.61129 0.0
H204 H 0.44063 0.17425 0.61187 0.0
H205 H 0.31049 0.16727 0.61391 0.0
C206 C 0.32484 0.12914 0.58345 0.0
O207 O 0.35559 0.11957 0.57779 0.0
N208 N 0.39098 0.11817 0.61714 0.0
C209 C 0.4258 0.1092 0.62052 0.0
C210 C 0.4146 0.0932 0.62356 0.0
C211 C 0.35906 0.10749 0.6195 0.0
N212 N 0.37255 0.09211 0.6228 0.0
C213 C 0.45761 0.13813 0.58937 0.0
C214 C 0.42438 0.15119 0.55347 0.0
C215 C 0.46537 0.14512 0.55333 0.0
C216 C 0.48212 0.13885 0.57173 0.0
C217 C 0.40078 0.15018 0.57159 0.0
N218 N 0.4167 0.14283 0.58896 0.0
H219 H 0.47235 0.1344 0.60353 0.0
H220 H 0.36978 0.15542 0.57165 0.0
H221 H 0.45717 0.11381 0.62209 0.0
H222 H 0.32645 0.11096 0.61893 0.0
O223 O 0.43113 0.1447 0.63321 0.0
O224 O 0.3654 0.14184 0.64317 0.0
O225 O 0.33029 0.13881 0.59867 0.0
C226 C 0.40473 0.14379 0.64826 0.0
H227 H 0.32515 0.19897 0.61183 0.0
H228 H 0.43583 0.08327 0.62694 0.0
H229 H 0.41065 0.15662 0.53975 0.0
H230 H 0.51447 0.13495 0.57269 0.0
Co231 Co 0.10515 0.89844 0.61788 0.0
C232 C 0.07979 0.86381 0.61502 0.0
C233 C 0.14658 0.86669 0.61613 0.0
C234 C 0.13754 0.85038 0.61493 0.0
N235 N 0.11043 0.8751 0.61604 0.0
N236 N 0.09558 0.84856 0.61427 0.0
H237 H 0.04674 0.8667 0.61479 0.0
H238 H 0.17743 0.87201 0.61731 0.0
C239 C 0.17218 0.91173 0.59037 0.0
O240 O 0.14498 0.92265 0.58391 0.0
N241 N 0.10091 0.92199 0.62042 0.0
C242 C 0.06729 0.93182 0.61836 0.0
C243 C 0.07959 0.94764 0.62152 0.0
C244 C 0.1327 0.93201 0.6257 0.0
N245 N 0.12086 0.94778 0.62593 0.0
C246 C 0.03312 0.90147 0.59187 0.0
C247 C 0.07106 0.89448 0.55482 0.0
C248 C 0.02881 0.89918 0.55476 0.0
C249 C 0.00966 0.90207 0.57378 0.0
C250 C 0.09332 0.89377 0.5735 0.0
N251 N 0.07508 0.89846 0.59156 0.0
H252 H 0.01701 0.90331 0.60622 0.0
H253 H 0.1251 0.88935 0.5733 0.0
H254 H 0.0358 0.92805 0.61495 0.0
H255 H 0.16414 0.9278 0.62896 0.0
O256 O 0.05784 0.89586 0.63582 0.0
O257 O 0.12344 0.89747 0.64662 0.0
O258 O 0.16144 0.90098 0.60376 0.0
C259 C 0.08385 0.89608 0.6512 0.0
H260 H 0.16015 0.84058 0.61512 0.0
H261 H 0.05976 0.95826 0.6201 0.0
H262 H 0.08695 0.8915 0.54064 0.0
H263 H 0.97649 0.90463 0.57481 0.0
Co264 Co 0.59437 0.62731 0.07642 0.0
C265 C 0.63194 0.59426 0.0746 0.0
C266 C 0.57052 0.59464 0.06113 0.0
C267 C 0.58565 0.57896 0.06059 0.0
N268 N 0.59956 0.6043 0.06989 0.0
N269 N 0.6243 0.57874 0.06902 0.0
H270 H 0.66013 0.59809 0.08247 0.0
H271 H 0.54006 0.59849 0.05573 0.0
C272 C 0.5035 0.6361 0.0667 0.0
O273 O 0.50107 0.64576 0.08268 0.0
N274 N 0.59047 0.6503 0.0834 0.0
C275 C 0.60667 0.65684 0.10065 0.0
C276 C 0.59908 0.67322 0.10058 0.0
C277 C 0.57461 0.66313 0.07257 0.0
N278 N 0.57832 0.67725 0.08311 0.0
C279 C 0.60575 0.6196 0.11908 0.0
C280 C 0.52315 0.61452 0.12947 0.0
C281 C 0.5534 0.61481 0.14525 0.0
C282 C 0.59535 0.61669 0.1396 0.0
C283 C 0.53512 0.61727 0.10893 0.0
N284 N 0.57569 0.62096 0.10411 0.0
H285 H 0.63835 0.62125 0.11552 0.0
H286 H 0.51149 0.61632 0.09717 0.0
H287 H 0.62377 0.65032 0.11246 0.0
H288 H 0.55968 0.66208 0.05763 0.0
O289 O 0.654 0.62847 0.08148 0.0
O290 O 0.62349 0.63305 0.05131 0.0
O291 O 0.5363 0.62755 0.06375 0.0
C292 C 0.65784 0.63213 0.06207 0.0
H293 H 0.56947 0.56853 0.05436 0.0
H294 H 0.60871 0.68156 0.1125 0.0
H295 H 0.49041 0.61257 0.13293 0.0
H296 H 0.62021 0.61613 0.151 0.0
Co297 Co 0.91941 0.38953 0.0788 0.0
C298 C 0.88896 0.42356 0.08182 0.0
C299 C 0.93531 0.42104 0.05823 0.0
C300 C 0.92072 0.43678 0.05784 0.0
N301 N 0.91568 0.41275 0.07335 0.0
N302 N 0.89139 0.43838 0.07259 0.0
H303 H 0.86741 0.42053 0.09409 0.0
H304 H 0.95711 0.41587 0.04746 0.0
C305 C 0.01043 0.38167 0.06921 0.0
O306 O 0.01382 0.37248 0.08581 0.0
N307 N 0.92182 0.36604 0.08413 0.0
C308 C 0.9007 0.35809 0.09912 0.0
C309 C 0.90971 0.34183 0.09834 0.0
C310 C 0.94165 0.35408 0.07362 0.0
N311 N 0.93581 0.33927 0.08248 0.0
C312 C 0.91721 0.3915 0.12289 0.0
C313 C 0.99774 0.40265 0.12889 0.0
C314 C 0.97388 0.39822 0.14619 0.0
C315 C 0.93262 0.39303 0.14291 0.0
C316 C 0.98091 0.40089 0.10902 0.0
N317 N 0.94219 0.39417 0.10618 0.0
H318 H 0.88496 0.38806 0.12095 0.0
H319 H 0.99917 0.40498 0.09603 0.0
H320 H 0.87901 0.36346 0.10973 0.0
H321 H 0.96054 0.35613 0.06004 0.0
O322 O 0.86033 0.38924 0.0853 0.0
O323 O 0.88713 0.38558 0.0542 0.0
O324 O 0.97636 0.38924 0.06524 0.0
C325 C 0.85411 0.38671 0.06576 0.0
H326 H 0.92942 0.44608 0.04676 0.0
H327 H 0.89759 0.33253 0.10861 0.0
H328 H 0.02904 0.40749 0.13067 0.0
H329 H 0.91244 0.38978 0.15566 0.0
Co330 Co 0.07618 0.39571 0.43358 0.0
C331 C 0.0484 0.36082 0.43209 0.0
C332 C 0.09652 0.36546 0.45455 0.0
C333 C 0.08534 0.3494 0.45602 0.0
N334 N 0.07345 0.37266 0.43964 0.0
N335 N 0.05509 0.34644 0.44198 0.0
H336 H 0.02523 0.36276 0.42008 0.0
H337 H 0.11953 0.37159 0.46398 0.0
C338 C 0.1676 0.40053 0.42346 0.0
O339 O 0.15811 0.41056 0.40825 0.0
N340 N 0.07997 0.41916 0.42856 0.0
C341 C 0.0527 0.42896 0.41847 0.0
C342 C 0.06692 0.44472 0.41926 0.0
C343 C 0.10927 0.4294 0.43623 0.0
N344 N 0.10276 0.44502 0.4303 0.0
C345 C 0.03866 0.39597 0.39337 0.0
C346 C 0.10336 0.38127 0.37249 0.0
C347 C 0.0701 0.38807 0.36116 0.0
C348 C 0.03676 0.39494 0.37195 0.0
C349 C 0.10415 0.38276 0.39403 0.0
N350 N 0.07354 0.39121 0.40403 0.0
H351 H 0.01188 0.40072 0.40133 0.0
H352 H 0.12959 0.37722 0.40254 0.0
H353 H 0.02371 0.42527 0.41143 0.0
H354 H 0.13477 0.42549 0.44612 0.0
O355 O 0.01707 0.39782 0.43896 0.0
O356 O 0.06709 0.40002 0.46257 0.0
O357 O 0.13904 0.39385 0.43434 0.0
C358 C 0.02732 0.40025 0.45811 0.0
H359 H 0.09864 0.34052 0.46659 0.0
H360 H 0.05205 0.45511 0.41198 0.0
H361 H 0.12899 0.37527 0.36477 0.0
H362 H 0.00935 0.3995 0.36388 0.0
Co363 Co 0.40039 0.63285 0.42571 0.0
C364 C 0.36756 0.59921 0.42805 0.0
C365 C 0.41782 0.60277 0.44961 0.0
C366 C 0.40284 0.58716 0.45197 0.0
N367 N 0.39578 0.61032 0.43456 0.0
N368 N 0.37107 0.58496 0.4385 0.0
H369 H 0.34457 0.60157 0.41609 0.0
H370 H 0.44228 0.60828 0.45874 0.0
C371 C 0.49176 0.64095 0.43461 0.0
O372 O 0.49626 0.64808 0.41654 0.0
N373 N 0.40408 0.65558 0.41686 0.0
C374 C 0.38432 0.66224 0.40042 0.0
C375 C 0.39279 0.67855 0.39954 0.0
C376 C 0.42304 0.6683 0.42627 0.0
N377 N 0.41755 0.68243 0.41564 0.0
C378 C 0.396 0.62584 0.38267 0.0
C379 C 0.47584 0.61366 0.37803 0.0
C380 C 0.45003 0.6153 0.36058 0.0
C381 C 0.40932 0.62111 0.36322 0.0
C382 C 0.46086 0.61831 0.3974 0.0
N383 N 0.42234 0.62539 0.39932 0.0
H384 H 0.36408 0.62978 0.38418 0.0
H385 H 0.48021 0.61599 0.41076 0.0
H386 H 0.36363 0.65598 0.39004 0.0
H387 H 0.44052 0.66726 0.44054 0.0
O388 O 0.34137 0.63298 0.41896 0.0
O389 O 0.36821 0.6393 0.44941 0.0
O390 O 0.45718 0.63415 0.43943 0.0
C391 C 0.33517 0.63729 0.43792 0.0
H392 H 0.41342 0.57833 0.46331 0.0
H393 H 0.38051 0.68698 0.38813 0.0
H394 H 0.50703 0.60861 0.37674 0.0
H395 H 0.388 0.62231 0.35025 0.0
Co396 Co 0.39507 0.39381 0.88583 0.0
C397 C 0.41864 0.35812 0.88283 0.0
C398 C 0.35911 0.36408 0.86948 0.0
C399 C 0.36599 0.34774 0.86699 0.0
N400 N 0.39199 0.37069 0.87945 0.0
N401 N 0.40342 0.34397 0.87542 0.0
H402 H 0.44793 0.35895 0.89095 0.0
H403 H 0.3317 0.37073 0.8644 0.0
C404 C 0.33357 0.37999 0.91512 0.0
O405 O 0.36063 0.36809 0.9175 0.0
N406 N 0.39666 0.41682 0.89135 0.0
C407 C 0.43108 0.42594 0.89436 0.0
C408 C 0.41903 0.44191 0.89637 0.0
C409 C 0.36416 0.42729 0.8915 0.0
N410 N 0.37696 0.44276 0.89454 0.0
C411 C 0.47066 0.38567 0.9071 0.0
C412 C 0.44606 0.39529 0.94593 0.0
C413 C 0.48739 0.39016 0.94295 0.0
C414 C 0.49936 0.38514 0.92328 0.0
C415 C 0.41816 0.3956 0.92922 0.0
N416 N 0.43017 0.39031 0.91017 0.0
H417 H 0.48159 0.38271 0.89187 0.0
H418 H 0.38769 0.40094 0.93146 0.0
H419 H 0.46277 0.42133 0.89477 0.0
H420 H 0.33203 0.4237 0.88879 0.0
O421 O 0.43924 0.39654 0.86615 0.0
O422 O 0.37194 0.39845 0.85841 0.0
O423 O 0.34178 0.39171 0.90262 0.0
C424 C 0.41075 0.39896 0.85221 0.0
H425 H 0.34513 0.33935 0.85934 0.0
H426 H 0.43971 0.45211 0.89897 0.0
H427 H 0.43599 0.3998 0.96074 0.0
H428 H 0.53107 0.38121 0.92023 0.0
Co429 Co 0.11171 0.63741 0.88513 0.0
C430 C 0.0898 0.67328 0.88277 0.0
C431 C 0.1486 0.66725 0.8691 0.0
C432 C 0.14243 0.6837 0.86692 0.0
N433 N 0.1158 0.66064 0.87916 0.0
N434 N 0.10544 0.6875 0.87554 0.0
H435 H 0.06055 0.67247 0.89077 0.0
H436 H 0.17541 0.6605 0.86374 0.0
C437 C 0.17831 0.64956 0.91284 0.0
O438 O 0.15255 0.66169 0.91615 0.0
N439 N 0.10918 0.61429 0.89019 0.0
C440 C 0.07462 0.60529 0.89331 0.0
C441 C 0.08638 0.58927 0.89561 0.0
C442 C 0.14142 0.60372 0.89054 0.0
N443 N 0.12847 0.58824 0.89389 0.0
C444 C 0.04111 0.64621 0.90951 0.0
C445 C 0.07182 0.63551 0.94713 0.0
C446 C 0.03175 0.64238 0.94613 0.0
C447 C 0.01638 0.64765 0.92698 0.0
C448 C 0.09587 0.63453 0.9292 0.0
N449 N 0.08123 0.6406 0.9108 0.0
H450 H 0.02732 0.64931 0.89478 0.0
H451 H 0.1256 0.62831 0.93005 0.0
H452 H 0.04305 0.61003 0.89367 0.0
H453 H 0.17364 0.60736 0.88841 0.0
O454 O 0.06403 0.6359 0.86715 0.0
O455 O 0.12937 0.63333 0.8567 0.0
O456 O 0.16779 0.63841 0.90011 0.0
C457 C 0.08955 0.6336 0.85203 0.0
H458 H 0.16337 0.69216 0.85933 0.0
H459 H 0.06523 0.57916 0.89792 0.0
H460 H 0.08413 0.63069 0.96153 0.0
H461 H 0.98469 0.65219 0.92534 0.0
Co462 Co 0.88421 0.64217 0.6154 0.0
C463 C 0.91051 0.67767 0.61735 0.0
C464 C 0.84904 0.67287 0.62889 0.0
C465 C 0.8569 0.6892 0.6307 0.0
N466 N 0.88231 0.66556 0.62027 0.0
N467 N 0.89565 0.69229 0.62347 0.0
H468 H 0.94138 0.67601 0.61125 0.0
H469 H 0.82058 0.66669 0.63338 0.0
C470 C 0.8176 0.65475 0.58753 0.0
O471 O 0.84372 0.66667 0.58346 0.0
N472 N 0.88466 0.61891 0.6114 0.0
C473 C 0.91815 0.6096 0.60722 0.0
C474 C 0.90536 0.59366 0.60603 0.0
C475 C 0.85201 0.60856 0.61283 0.0
N476 N 0.86375 0.59296 0.6096 0.0
C477 C 0.95581 0.64911 0.59079 0.0
C478 C 0.92517 0.63698 0.55409 0.0
C479 C 0.96727 0.6416 0.55537 0.0
C480 C 0.98218 0.64806 0.57387 0.0
C481 C 0.89964 0.63826 0.5715 0.0
N482 N 0.9148 0.64457 0.58955 0.0
H483 H 0.9695 0.65261 0.60529 0.0
H484 H 0.86866 0.63308 0.57076 0.0
H485 H 0.94969 0.6141 0.6052 0.0
H486 H 0.82056 0.61237 0.61656 0.0
O487 O 0.93176 0.64019 0.63342 0.0
O488 O 0.86623 0.63872 0.64398 0.0
O489 O 0.82819 0.64358 0.60047 0.0
C490 C 0.90607 0.63831 0.64861 0.0
H491 H 0.83522 0.69807 0.63664 0.0
H492 H 0.92528 0.58341 0.60261 0.0
H493 H 0.91283 0.63148 0.54022 0.0
H494 H 0.01465 0.65162 0.57558 0.0
Co495 Co 0.59694 0.39828 0.61289 0.0
C496 C 0.57319 0.36329 0.61216 0.0
C497 C 0.63926 0.36685 0.61637 0.0
C498 C 0.63112 0.35045 0.61685 0.0
N499 N 0.60304 0.37488 0.61337 0.0
N500 N 0.58957 0.34817 0.61427 0.0
H501 H 0.54019 0.36591 0.61026 0.0
H502 H 0.6695 0.37254 0.61836 0.0
C503 C 0.66124 0.4082 0.5822 0.0
O504 O 0.63158 0.41696 0.57342 0.0
N505 N 0.5923 0.42206 0.61351 0.0
C506 C 0.55852 0.43113 0.61835 0.0
C507 C 0.57011 0.4472 0.61966 0.0
C508 C 0.62441 0.43283 0.61341 0.0
N509 N 0.61164 0.4483 0.61641 0.0
C510 C 0.5299 0.40403 0.58405 0.0
C511 C 0.56164 0.38566 0.55224 0.0
C512 C 0.52376 0.39393 0.54935 0.0
C513 C 0.50781 0.40311 0.56556 0.0
C514 C 0.58334 0.38723 0.57094 0.0
N515 N 0.56804 0.39679 0.58637 0.0
H516 H 0.51541 0.41015 0.59667 0.0
H517 H 0.61246 0.38072 0.57304 0.0
H518 H 0.52786 0.42647 0.62206 0.0
H519 H 0.65679 0.42939 0.61182 0.0
O520 O 0.54879 0.39632 0.63034 0.0
O521 O 0.61395 0.39889 0.64173 0.0
O522 O 0.65337 0.40012 0.59873 0.0
C523 C 0.57419 0.39736 0.64595 0.0
H524 H 0.6542 0.34094 0.61888 0.0
H525 H 0.54972 0.45717 0.62366 0.0
H526 H 0.57436 0.37812 0.54018 0.0
H527 H 0.47768 0.40908 0.56418 0.0
H528 H 0.52223 0.11876 0.97761 0.0
H529 H 0.46966 0.11811 0.00482 0.0
H530 H 0.41205 0.1612 0.97894 0.0
H531 H 0.46649 0.16281 0.95306 0.0
H532 H 0.40316 0.16258 0.01719 0.0
H533 H 0.38086 0.1194 0.96762 0.0
H534 H 0.39929 0.09464 0.94848 0.0
H535 H 0.41402 0.06829 0.00553 0.0
H536 H 0.39612 0.09296 0.02501 0.0
H537 H 0.1841 0.14935 0.03047 0.0
H538 H 0.25526 0.15137 0.0166 0.0
H539 H 0.30081 0.12009 0.06547 0.0
H540 H 0.23001 0.11834 0.07974 0.0
H541 H 0.32201 0.11131 0.02223 0.0
H542 H 0.32939 0.15513 0.07041 0.0
H543 H 0.30434 0.18012 0.08703 0.0
H544 H 0.31116 0.20575 0.02916 0.0
H545 H 0.33563 0.18084 0.01211 0.0
C546 C 0.49914 0.12838 0.97806 0.0
C547 C 0.49813 0.14065 0.96279 0.0
C548 C 0.46865 0.12784 0.99348 0.0
C549 C 0.43597 0.13929 0.99358 0.0
C550 C 0.43656 0.1521 0.97915 0.0
C551 C 0.46749 0.15287 0.9641 0.0
C552 C 0.39955 0.13756 0.00764 0.0
C553 C 0.38545 0.15136 0.01821 0.0
C554 C 0.3767 0.12284 0.00944 0.0
C555 C 0.38775 0.10806 0.99775 0.0
C556 C 0.38836 0.10835 0.97607 0.0
C557 C 0.39866 0.09434 0.96517 0.0
C558 C 0.40799 0.07992 0.97579 0.0
C559 C 0.40697 0.07949 0.99733 0.0
C560 C 0.39677 0.09348 0.00831 0.0
C561 C 0.20938 0.14303 0.03833 0.0
C562 C 0.20173 0.13375 0.05617 0.0
C563 C 0.2499 0.14423 0.03046 0.0
C564 C 0.28308 0.13593 0.04013 0.0
C565 C 0.27552 0.12663 0.05792 0.0
C566 C 0.23519 0.1257 0.06604 0.0
C567 C 0.32526 0.13643 0.03098 0.0
C568 C 0.34032 0.12241 0.02144 0.0
C569 C 0.3484 0.15101 0.02972 0.0
C570 C 0.33405 0.16607 0.03996 0.0
C571 C 0.32522 0.16606 0.06119 0.0
C572 C 0.31118 0.18022 0.0707 0.0
C573 C 0.30607 0.19451 0.05915 0.0
C574 C 0.31511 0.19467 0.03808 0.0
C575 C 0.32911 0.18054 0.0285 0.0
H576 H 0.29519 0.20546 0.06654 0.0
H577 H 0.41589 0.06908 0.96732 0.0
H578 H 0.98971 0.90865 0.98462 0.0
H579 H 0.04178 0.9076 0.01234 0.0
H580 H 0.0959 0.86465 0.98554 0.0
H581 H 0.04235 0.86493 0.9588 0.0
H582 H 0.1018 0.86191 0.02468 0.0
H583 H 0.13211 0.905 0.97558 0.0
H584 H 0.1177 0.93027 0.95604 0.0
H585 H 0.10534 0.95643 0.0127 0.0
H586 H 0.11916 0.93124 0.03258 0.0
H587 H 0.32204 0.87064 0.03782 0.0
H588 H 0.25019 0.87043 0.02446 0.0
H589 H 0.21056 0.90035 0.07502 0.0
H590 H 0.28227 0.90021 0.08886 0.0
H591 H 0.19034 0.91117 0.03096 0.0
H592 H 0.17509 0.8669 0.07893 0.0
H593 H 0.19568 0.84111 0.09577 0.0
H594 H 0.18617 0.81653 0.03781 0.0
H595 H 0.16616 0.84223 0.02054 0.0
C596 C 0.01198 0.89873 0.98493 0.0
C597 C 0.0123 0.88705 0.96921 0.0
C598 C 0.04208 0.89825 1.00068 0.0
C599 C 0.07351 0.88629 1.00075 0.0
C600 C 0.07226 0.87409 0.98578 0.0
C601 C 0.04188 0.8744 0.9703 0.0
C602 C 0.10952 0.88695 0.01532 0.0
C603 C 0.12108 0.8727 0.02604 0.0
C604 C 0.13443 0.9011 0.01747 0.0
C605 C 0.12607 0.91622 0.00555 0.0
C606 C 0.12599 0.91612 0.98386 0.0
C607 C 0.11798 0.93043 0.97273 0.0
C608 C 0.11045 0.94493 0.98312 0.0
C609 C 0.11105 0.94517 0.00467 0.0
C610 C 0.11896 0.93089 0.01588 0.0
C611 C 0.29791 0.87702 0.0462 0.0
C612 C 0.30756 0.88541 0.06436 0.0
C613 C 0.25697 0.87685 0.03861 0.0
C614 C 0.22526 0.88532 0.04884 0.0
C615 C 0.2347 0.89368 0.06702 0.0
C616 C 0.27552 0.89354 0.0749 0.0
C617 C 0.18289 0.88606 0.0397 0.0
C618 C 0.17033 0.90054 0.02998 0.0
C619 C 0.15765 0.87205 0.03808 0.0
C620 C 0.16941 0.85653 0.04842 0.0
C621 C 0.17774 0.85603 0.06974 0.0
C622 C 0.18923 0.84142 0.07937 0.0
C623 C 0.19231 0.8272 0.06786 0.0
C624 C 0.1838 0.82755 0.0467 0.0
C625 C 0.17232 0.84214 0.03699 0.0
H626 H 0.20122 0.8159 0.07534 0.0
H627 H 0.10428 0.956 0.97448 0.0
H628 H 0.70081 0.88787 0.46226 0.0
H629 H 0.77105 0.88762 0.47648 0.0
H630 H 0.81588 0.91449 0.42353 0.0
H631 H 0.74454 0.91524 0.40935 0.0
H632 H 0.84043 0.87523 0.46593 0.0
H633 H 0.89791 0.93769 0.43784 0.0
H634 H 0.87152 0.96517 0.4293 0.0
H635 H 0.767 0.95776 0.46974 0.0
H636 H 0.79255 0.93021 0.47828 0.0
H637 H 0.03317 0.88065 0.51943 0.0
H638 H 0.98631 0.88188 0.4895 0.0
H639 H 0.91962 0.92174 0.51709 0.0
H640 H 0.96822 0.92155 0.54585 0.0
H641 H 0.91706 0.92649 0.47916 0.0
H642 H 0.89122 0.87891 0.52245 0.0
H643 H 0.90994 0.85288 0.53929 0.0
H644 H 0.93665 0.83213 0.48025 0.0
H645 H 0.91847 0.85813 0.46309 0.0
C646 C 0.72548 0.89368 0.45349 0.0
C647 C 0.71693 0.90159 0.43463 0.0
C648 C 0.76585 0.89347 0.46165 0.0
C649 C 0.79892 0.90106 0.45116 0.0
C650 C 0.79082 0.90871 0.43206 0.0
C651 C 0.75007 0.90906 0.42392 0.0
C652 C 0.84122 0.90115 0.46083 0.0
C653 C 0.85743 0.88644 0.4686 0.0
C654 C 0.86356 0.91571 0.46441 0.0
C655 C 0.8468 0.93186 0.45843 0.0
C656 C 0.8691 0.9419 0.44473 0.0
C657 C 0.85429 0.95748 0.43989 0.0
C658 C 0.81748 0.96319 0.44887 0.0
C659 C 0.79529 0.95329 0.46263 0.0
C660 C 0.80979 0.93767 0.46738 0.0
C661 C 0.00925 0.88997 0.51884 0.0
C662 C 0.00387 0.90074 0.53537 0.0
C663 C 0.98213 0.89054 0.50179 0.0
C664 C 0.94858 0.90161 0.50122 0.0
C665 C 0.94495 0.91299 0.5171 0.0
C666 C 0.97246 0.91267 0.53381 0.0
C667 C 0.91488 0.90071 0.48532 0.0
C668 C 0.90069 0.91522 0.47604 0.0
C669 C 0.8931 0.88608 0.48127 0.0
C670 C 0.90407 0.87049 0.49154 0.0
C671 C 0.90135 0.86882 0.51309 0.0
C672 C 0.91182 0.85408 0.52269 0.0
C673 C 0.92463 0.84088 0.51085 0.0
C674 C 0.92685 0.84238 0.48939 0.0
C675 C 0.91648 0.85711 0.47973 0.0
H676 H 0.93271 0.82947 0.51831 0.0
H677 H 0.80626 0.9753 0.44523 0.0
H678 H 0.75682 0.14027 0.41375 0.0
H679 H 0.68602 0.14508 0.42662 0.0
H680 H 0.73572 0.15147 0.48803 0.0
H681 H 0.80644 0.14717 0.47517 0.0
H682 H 0.64127 0.1286 0.45216 0.0
H683 H 0.67878 0.17645 0.51589 0.0
H684 H 0.72547 0.19999 0.52063 0.0
H685 H 0.73383 0.20635 0.45497 0.0
H686 H 0.68669 0.18301 0.44982 0.0
H687 H 0.51691 0.12152 0.53903 0.0
H688 H 0.56849 0.12381 0.51171 0.0
H689 H 0.52504 0.17232 0.49745 0.0
H690 H 0.47419 0.17031 0.5256 0.0
H691 H 0.60561 0.17259 0.50086 0.0
H692 H 0.51188 0.14068 0.46259 0.0
H693 H 0.4622 0.11854 0.45521 0.0
H694 H 0.55971 0.0833 0.46458 0.0
H695 H 0.60987 0.10519 0.47233 0.0
C696 C 0.75263 0.14288 0.42996 0.0
C697 C 0.78714 0.14339 0.44346 0.0
C698 C 0.71217 0.14561 0.43728 0.0
C699 C 0.70553 0.14886 0.45823 0.0
C700 C 0.74007 0.14939 0.4717 0.0
C701 C 0.7805 0.14682 0.46436 0.0
C702 C 0.66247 0.15068 0.46642 0.0
C703 C 0.63328 0.13831 0.46264 0.0
C704 C 0.65139 0.16368 0.47948 0.0
C705 C 0.67933 0.1779 0.48248 0.0
C706 C 0.69033 0.18293 0.50246 0.0
C707 C 0.71694 0.19623 0.50522 0.0
C708 C 0.73267 0.20464 0.48811 0.0
C709 C 0.72172 0.1998 0.46821 0.0
C710 C 0.69509 0.18652 0.46536 0.0
C711 C 0.51805 0.13264 0.52997 0.0
C712 C 0.49181 0.1458 0.5346 0.0
C713 C 0.54723 0.13386 0.51414 0.0
C714 C 0.55044 0.14818 0.50233 0.0
C715 C 0.52302 0.16113 0.50631 0.0
C716 C 0.4938 0.15993 0.52229 0.0
C717 C 0.58539 0.15002 0.48748 0.0
C718 C 0.61313 0.16308 0.49 0.0
C719 C 0.59462 0.13789 0.47283 0.0
C720 C 0.56465 0.12461 0.46811 0.0
C721 C 0.5227 0.1282 0.4632 0.0
C722 C 0.49445 0.11569 0.45894 0.0
C723 C 0.50778 0.09953 0.45944 0.0
C724 C 0.54943 0.09583 0.46418 0.0
C725 C 0.57781 0.10829 0.46847 0.0
H726 H 0.48586 0.08986 0.45614 0.0
H727 H 0.7533 0.21492 0.49029 0.0
H728 H 0.77495 0.90429 0.92006 0.0
H729 H 0.71647 0.9061 0.94452 0.0
H730 H 0.75326 0.86029 0.97183 0.0
H731 H 0.81089 0.85827 0.94763 0.0
H732 H 0.648 0.88352 0.95407 0.0
H733 H 0.75058 0.86546 0.02429 0.0
H734 H 0.82436 0.86746 0.03535 0.0
H735 H 0.84031 0.91002 0.99739 0.0
H736 H 0.76646 0.90846 0.98641 0.0
H737 H 0.57672 0.86074 0.06574 0.0
H738 H 0.63069 0.86245 0.03913 0.0
H739 H 0.56651 0.90321 0.01109 0.0
H740 H 0.51206 0.90133 0.03725 0.0
H741 H 0.68525 0.88512 0.02844 0.0
H742 H 0.57997 0.90298 0.95903 0.0
H743 H 0.50703 0.89947 0.94722 0.0
H744 H 0.49707 0.85549 0.98301 0.0
H745 H 0.57008 0.85862 0.9948 0.0
C746 C 0.77021 0.89453 0.93112 0.0
C747 C 0.79782 0.8812 0.93196 0.0
C748 C 0.73682 0.89557 0.94505 0.0
C749 C 0.73095 0.88342 0.96013 0.0
C750 C 0.75755 0.86989 0.96047 0.0
C751 C 0.79052 0.86877 0.94656 0.0
C752 C 0.69823 0.88493 0.97617 0.0
C753 C 0.656 0.88421 0.97032 0.0
C754 C 0.70887 0.8854 0.99738 0.0
C755 C 0.75304 0.88674 0.00438 0.0
C756 C 0.76975 0.87531 0.01841 0.0
C757 C 0.8116 0.87636 0.02465 0.0
C758 C 0.83704 0.88883 0.01703 0.0
C759 C 0.82061 0.90033 0.00323 0.0
C760 C 0.77876 0.89936 0.99698 0.0
C761 C 0.57414 0.87009 0.05394 0.0
C762 C 0.53993 0.88084 0.0536 0.0
C763 C 0.60506 0.87107 0.03874 0.0
C764 C 0.60244 0.88282 0.02291 0.0
C765 C 0.56886 0.89383 0.02287 0.0
C766 C 0.5378 0.89278 0.03794 0.0
C767 C 0.63473 0.88351 0.00643 0.0
C768 C 0.67703 0.88462 0.01221 0.0
C769 C 0.62411 0.88328 0.98516 0.0
C770 C 0.58033 0.88115 0.97798 0.0
C771 C 0.56224 0.89254 0.96432 0.0
C772 C 0.52088 0.89062 0.95764 0.0
C773 C 0.49738 0.8773 0.96442 0.0
C774 C 0.51524 0.86584 0.97784 0.0
C775 C 0.55659 0.86769 0.98454 0.0
H776 H 0.46536 0.87584 0.95924 0.0
H777 H 0.86946 0.8896 0.02184 0.0
H778 H 0.70275 0.16979 0.94264 0.0
H779 H 0.76059 0.16628 0.96664 0.0
H780 H 0.79281 0.12088 0.93799 0.0
H781 H 0.73347 0.12409 0.91403 0.0
H782 H 0.79579 0.11751 0.97851 0.0
H783 H 0.85339 0.15582 0.9313 0.0
H784 H 0.85626 0.18057 0.90964 0.0
H785 H 0.84682 0.21021 0.96358 0.0
H786 H 0.84329 0.18563 0.98557 0.0
H787 H 0.99143 0.11474 0.03369 0.0
H788 H 0.93769 0.11591 0.00677 0.0
H789 H 0.88424 0.1583 0.03505 0.0
H790 H 0.93795 0.1572 0.06212 0.0
H791 H 0.89638 0.162 0.99266 0.0
H792 H 0.83556 0.12273 0.03934 0.0
H793 H 0.83473 0.09756 0.06028 0.0
H794 H 0.85377 0.06922 0.00583 0.0
H795 H 0.85531 0.09425 0.9846 0.0
C796 C 0.72221 0.15908 0.94122 0.0
C797 C 0.71342 0.14724 0.92627 0.0
C798 C 0.7556 0.15714 0.95497 0.0
C799 C 0.78167 0.14345 0.95401 0.0
C800 C 0.77329 0.13161 0.939 0.0
C801 C 0.73952 0.13349 0.92523 0.0
C802 C 0.81649 0.1414 0.96925 0.0
C803 C 0.81827 0.12713 0.9813 0.0
C804 C 0.84557 0.15402 0.97323 0.0
C805 C 0.84776 0.16886 0.96007 0.0
C806 C 0.85162 0.16761 0.93854 0.0
C807 C 0.85341 0.18162 0.9262 0.0
C808 C 0.85164 0.19695 0.93522 0.0
C809 C 0.84816 0.19832 0.95661 0.0
C810 C 0.84632 0.18436 0.96902 0.0
C811 C 0.96812 0.12426 0.0343 0.0
C812 C 0.96905 0.13587 0.05011 0.0
C813 C 0.9373 0.12487 0.0189 0.0
C814 C 0.90683 0.13717 0.0189 0.0
C815 C 0.90744 0.14871 0.03474 0.0
C816 C 0.93802 0.148 0.05028 0.0
C817 C 0.8751 0.13828 0.00206 0.0
C818 C 0.87403 0.15237 0.98971 0.0
C819 C 0.84707 0.12543 0.99767 0.0
C820 C 0.84601 0.11037 0.01041 0.0
C821 C 0.83994 0.11114 0.03186 0.0
C822 C 0.83926 0.0969 0.04377 0.0
C823 C 0.84432 0.0818 0.0344 0.0
C824 C 0.84993 0.08092 0.01308 0.0
C825 C 0.85068 0.09513 1.00109 0.0
H826 H 0.84378 0.07079 0.04365 0.0
H827 H 0.85303 0.20778 0.92565 0.0
H828 H 0.99428 0.15023 0.46587 0.0
H829 H 0.05138 0.15323 0.49088 0.0
H830 H 0.10796 0.10919 0.46865 0.0
H831 H 0.05134 0.10616 0.44356 0.0
H832 H 0.07558 0.13367 0.5227 0.0
H833 H 0.21313 0.11189 0.47162 0.0
H834 H 0.23436 0.11282 0.43509 0.0
H835 H 0.16008 0.15573 0.42536 0.0
H836 H 0.13888 0.15519 0.46187 0.0
H837 H 0.3019 0.10779 0.55372 0.0
H838 H 0.24239 0.10937 0.53025 0.0
H839 H 0.20047 0.15309 0.56001 0.0
H840 H 0.26035 0.15151 0.58389 0.0
H841 H 0.22493 0.13228 0.50228 0.0
H842 H 0.09181 0.15532 0.55383 0.0
H843 H 0.07018 0.15447 0.59032 0.0
H844 H 0.13543 0.10928 0.59902 0.0
H845 H 0.15697 0.10976 0.56254 0.0
C846 C 0.01908 0.14125 0.46616 0.0
C847 C 0.01821 0.12796 0.45261 0.0
C848 C 0.05161 0.14295 0.48056 0.0
C849 C 0.08417 0.13151 0.48162 0.0
C850 C 0.08354 0.11832 0.46799 0.0
C851 C 0.05103 0.11658 0.45364 0.0
C852 C 0.11846 0.13308 0.49716 0.0
C853 C 0.10825 0.13365 0.51822 0.0
C854 C 0.16114 0.13286 0.49141 0.0
C855 C 0.17413 0.1334 0.46946 0.0
C856 C 0.20147 0.12156 0.46171 0.0
C857 C 0.21348 0.12202 0.441 0.0
C858 C 0.19848 0.1343 0.4279 0.0
C859 C 0.17155 0.14619 0.4355 0.0
C860 C 0.15948 0.1458 0.4562 0.0
C861 C 0.27993 0.11771 0.55547 0.0
C862 C 0.28605 0.12956 0.57071 0.0
C863 C 0.2459 0.11861 0.54193 0.0
C864 C 0.21688 0.13135 0.54325 0.0
C865 C 0.22221 0.14305 0.55876 0.0
C866 C 0.25644 0.14213 0.57242 0.0
C867 C 0.18212 0.13245 0.52785 0.0
C868 C 0.19227 0.13243 0.50678 0.0
C869 C 0.13946 0.13321 0.53362 0.0
C870 C 0.12642 0.1327 0.55553 0.0
C871 C 0.10145 0.14519 0.56353 0.0
C872 C 0.08921 0.14477 0.58421 0.0
C873 C 0.10156 0.13186 0.597 0.0
C874 C 0.12605 0.11931 0.58912 0.0
C875 C 0.13833 0.11966 0.56845 0.0
H876 H 0.09208 0.13156 0.613 0.0
H877 H 0.20778 0.13462 0.41187 0.0
H878 H 0.22315 0.8853 0.58549 0.0
H879 H 0.28838 0.88406 0.5659 0.0
H880 H 0.28091 0.93571 0.5541 0.0
H881 H 0.21485 0.93681 0.57285 0.0
H882 H 0.29804 0.92231 0.52061 0.0
H883 H 0.35576 0.91723 0.58818 0.0
H884 H 0.36404 0.90608 0.62339 0.0
H885 H 0.3963 0.85951 0.59867 0.0
H886 H 0.38767 0.87033 0.56329 0.0
H887 H 0.53694 0.90929 0.4988 0.0
H888 H 0.47996 0.91284 0.52364 0.0
H889 H 0.39226 0.89344 0.47946 0.0
H890 H 0.4485 0.89038 0.45451 0.0
H891 H 0.42711 0.89339 0.54273 0.0
H892 H 0.29962 0.91155 0.48249 0.0
H893 H 0.29484 0.92565 0.44881 0.0
H894 H 0.40804 0.95172 0.46211 0.0
H895 H 0.41318 0.93796 0.49598 0.0
C896 C 0.23579 0.89641 0.57893 0.0
C897 C 0.21388 0.91114 0.58061 0.0
C898 C 0.27321 0.89571 0.5678 0.0
C899 C 0.28997 0.90982 0.55858 0.0
C900 C 0.26866 0.92463 0.56091 0.0
C901 C 0.23092 0.92526 0.57167 0.0
C902 C 0.32806 0.90902 0.54539 0.0
C903 C 0.32626 0.91603 0.52556 0.0
C904 C 0.36539 0.90112 0.55183 0.0
C905 C 0.37073 0.89457 0.57308 0.0
C906 C 0.36433 0.90458 0.59025 0.0
C907 C 0.36914 0.89832 0.61024 0.0
C908 C 0.3806 0.88209 0.61326 0.0
C909 C 0.38739 0.87208 0.5963 0.0
C910 C 0.38259 0.87828 0.57627 0.0
C911 C 0.50546 0.90582 0.49442 0.0
C912 C 0.49711 0.89974 0.47463 0.0
C913 C 0.47296 0.90779 0.50864 0.0
C914 C 0.43163 0.90366 0.50333 0.0
C915 C 0.42364 0.89709 0.48379 0.0
C916 C 0.4559 0.8953 0.46953 0.0
C917 C 0.39656 0.90642 0.51795 0.0
C918 C 0.39891 0.89976 0.53794 0.0
C919 C 0.36013 0.91509 0.51193 0.0
C920 C 0.35694 0.92361 0.4917 0.0
C921 C 0.32337 0.92035 0.47827 0.0
C922 C 0.32063 0.92827 0.45914 0.0
C923 C 0.35118 0.93954 0.4533 0.0
C924 C 0.38447 0.94295 0.46662 0.0
C925 C 0.38733 0.93509 0.48578 0.0
H926 H 0.34902 0.94564 0.43848 0.0
H927 H 0.3843 0.87726 0.62875 0.0
H928 H 0.73418 0.62987 0.0809 0.0
H929 H 0.80304 0.63239 0.06486 0.0
H930 H 0.74416 0.64208 0.006 0.0
H931 H 0.6752 0.63941 0.02188 0.0
H932 H 0.80475 0.61971 0.00275 0.0
H933 H 0.78913 0.67243 0.0333 0.0
H934 H 0.77653 0.69159 0.06164 0.0
H935 H 0.88385 0.67292 0.09416 0.0
H936 H 0.89675 0.65349 0.06612 0.0
H937 H 0.98456 0.66773 0.9594 0.0
H938 H 0.92722 0.66654 0.98423 0.0
H939 H 0.95806 0.6166 0.99833 0.0
H940 H 0.01521 0.61767 0.97328 0.0
H941 H 0.91371 0.65871 0.02553 0.0
H942 H 0.86489 0.59574 0.99649 0.0
H943 H 0.87557 0.57817 0.96629 0.0
H944 H 0.89263 0.62032 0.92769 0.0
H945 H 0.88137 0.63811 0.95757 0.0
C946 C 0.73591 0.63264 0.06456 0.0
C947 C 0.69932 0.63445 0.05262 0.0
C948 C 0.77527 0.63412 0.05545 0.0
C949 C 0.77867 0.6375 0.03427 0.0
C950 C 0.74217 0.63944 0.02237 0.0
C951 C 0.70282 0.63796 0.03147 0.0
C952 C 0.82021 0.63858 0.02432 0.0
C953 C 0.8286 0.62819 0.00783 0.0
C954 C 0.85127 0.64969 0.03089 0.0
C955 C 0.84364 0.66139 0.04771 0.0
C956 C 0.80984 0.67232 0.04657 0.0
C957 C 0.80268 0.68324 0.06257 0.0
C958 C 0.82931 0.68344 0.07972 0.0
C959 C 0.86322 0.67274 0.08088 0.0
C960 C 0.87048 0.66177 0.06494 0.0
C961 C 0.97966 0.65662 0.96816 0.0
C962 C 0.00387 0.64273 0.96427 0.0
C963 C 0.94713 0.65599 0.98242 0.0
C964 C 0.93812 0.64142 0.99286 0.0
C965 C 0.96442 0.62792 0.99027 0.0
C966 C 0.99713 0.62857 0.97605 0.0
C967 C 0.89811 0.6398 0.00409 0.0
C968 C 0.89 0.65008 0.02074 0.0
C969 C 0.86693 0.62878 0.99748 0.0
C970 C 0.87281 0.61822 0.97931 0.0
C971 C 0.87077 0.60124 0.98153 0.0
C972 C 0.87691 0.59125 0.96448 0.0
C973 C 0.88493 0.59812 0.9451 0.0
C974 C 0.88657 0.615 0.94271 0.0
C975 C 0.88032 0.62504 0.9597 0.0
H976 H 0.88976 0.59037 0.93193 0.0
H977 H 0.82372 0.6919 0.09209 0.0
H978 H 0.83251 0.39006 0.02539 0.0
H979 H 0.76203 0.39133 0.01069 0.0
H980 H 0.70912 0.38357 0.07104 0.0
H981 H 0.77991 0.38264 0.08606 0.0
H982 H 0.67593 0.36357 0.03369 0.0
H983 H 0.6948 0.41752 0.05941 0.0
H984 H 0.73452 0.44264 0.06552 0.0
H985 H 0.74585 0.4505 1.00022 0.0
H986 H 0.70624 0.42529 0.99371 0.0
H987 H 0.47943 0.38054 0.98343 0.0
H988 H 0.53392 0.38082 0.0103 0.0
H989 H 0.62078 0.40182 0.9668 0.0
H990 H 0.56657 0.402 0.9403 0.0
H991 H 0.62828 0.41602 0.00331 0.0
H992 H 0.61972 0.36079 0.97753 0.0
H993 H 0.58438 0.3348 0.97032 0.0
H994 H 0.55652 0.3288 0.03468 0.0
H995 H 0.59144 0.35485 0.04223 0.0
C996 C 0.80594 0.38849 0.03553 0.0
C997 C 0.81162 0.38626 0.05686 0.0
C998 C 0.76577 0.38926 0.02713 0.0
C999 C 0.73062 0.3876 0.03984 0.0
C1000 C 0.73603 0.38488 0.06105 0.0
C1001 C 0.77635 0.38439 0.06956 0.0
C1002 C 0.68848 0.38916 0.03064 0.0
C1003 C 0.66477 0.37508 0.0275 0.0
C1004 C 0.67461 0.40415 0.02235 0.0
C1005 C 0.69788 0.41945 0.02609 0.0
C1006 C 0.70601 0.42455 0.04635 0.0
C1007 C 0.72847 0.43882 0.04988 0.0
C1008 C 0.74298 0.44814 0.03328 0.0
C1009 C 0.73468 0.44326 0.01308 0.0
C1010 C 0.71211 0.42899 0.00945 0.0
C1011 C 0.51004 0.38539 0.97975 0.0
C1012 C 0.51897 0.39103 0.95971 0.0
C1013 C 0.54115 0.38545 0.99504 0.0
C1014 C 0.58152 0.39118 0.99046 0.0
C1015 C 0.58989 0.39732 0.97067 0.0
C1016 C 0.559 0.39725 0.95547 0.0
C1017 C 0.616 0.39031 0.00579 0.0
C1018 C 0.63853 0.40455 0.01001 0.0
C1019 C 0.62887 0.37542 0.01494 0.0
C1020 C 0.60767 0.35984 0.01039 0.0
C1021 C 0.60573 0.35399 0.99011 0.0
C1022 C 0.58584 0.33923 0.98597 0.0
C1023 C 0.56806 0.33018 0.00202 0.0
C1024 C 0.57021 0.33584 0.02226 0.0
C1025 C 0.59006 0.35059 0.02647 0.0
H1026 H 0.55274 0.31874 0.99882 0.0
H1027 H 0.7606 0.45914 0.03605 0.0
H1028 H 0.2013 0.37232 0.43751 0.0
H1029 H 0.27109 0.36826 0.45222 0.0
H1030 H 0.30164 0.41831 0.43859 0.0
H1031 H 0.23247 0.42209 0.42268 0.0
H1032 H 0.36975 0.40061 0.43566 0.0
H1033 H 0.26142 0.4061 0.48612 0.0
H1034 H 0.19422 0.39947 0.50276 0.0
H1035 H 0.23776 0.35106 0.51572 0.0
H1036 H 0.30503 0.35733 0.49885 0.0
H1037 H 0.49609 0.41839 0.52444 0.0
H1038 H 0.44488 0.41644 0.49632 0.0
H1039 H 0.44253 0.3643 0.50378 0.0
H1040 H 0.49448 0.36622 0.53174 0.0
H1041 H 0.36383 0.3805 0.50799 0.0
H1042 H 0.4784 0.37805 0.46081 0.0
H1043 H 0.54494 0.38696 0.44529 0.0
H1044 H 0.4894 0.43271 0.42831 0.0
H1045 H 0.42267 0.42418 0.444 0.0
C1046 C 0.22332 0.38233 0.43725 0.0
C1047 C 0.21154 0.39756 0.42923 0.0
C1048 C 0.26309 0.38004 0.44573 0.0
C1049 C 0.29119 0.39311 0.44709 0.0
C1050 C 0.28043 0.40807 0.43783 0.0
C1051 C 0.24092 0.41024 0.4288 0.0
C1052 C 0.32975 0.39163 0.45989 0.0
C1053 C 0.36844 0.39629 0.4515 0.0
C1054 C 0.32818 0.38585 0.48054 0.0
C1055 C 0.28807 0.38213 0.49103 0.0
C1056 C 0.25657 0.39402 0.49242 0.0
C1057 C 0.21848 0.39032 0.50189 0.0
C1058 C 0.21168 0.37484 0.51024 0.0
C1059 C 0.24304 0.36304 0.50921 0.0
C1060 C 0.28116 0.36665 0.4997 0.0
C1061 C 0.48543 0.4065 0.51966 0.0
C1062 C 0.49906 0.39245 0.53015 0.0
C1063 C 0.45635 0.40539 0.5036 0.0
C1064 C 0.44007 0.39023 0.49797 0.0
C1065 C 0.455 0.3761 0.50785 0.0
C1066 C 0.48467 0.37719 0.52371 0.0
C1067 C 0.40374 0.38945 0.48377 0.0
C1068 C 0.36528 0.38451 0.49202 0.0
C1069 C 0.40551 0.39534 0.46324 0.0
C1070 C 0.44559 0.40051 0.45373 0.0
C1071 C 0.48046 0.39007 0.45393 0.0
C1072 C 0.5182 0.39504 0.44506 0.0
C1073 C 0.52142 0.41041 0.43585 0.0
C1074 C 0.48687 0.42082 0.43545 0.0
C1075 C 0.44905 0.41591 0.44431 0.0
H1076 H 0.55067 0.41423 0.429 0.0
H1077 H 0.18215 0.372 0.51755 0.0
H1078 H 0.2618 0.64071 0.4166 0.0
H1079 H 0.19059 0.64027 0.43074 0.0
H1080 H 0.24143 0.63507 0.49216 0.0
H1081 H 0.31251 0.63591 0.47826 0.0
H1082 H 0.1749 0.61091 0.47732 0.0
H1083 H 0.20916 0.66894 0.48302 0.0
H1084 H 0.22942 0.69542 0.46799 0.0
H1085 H 0.12244 0.69419 0.42771 0.0
H1086 H 0.10191 0.66757 0.44231 0.0
H1087 H 0.04337 0.62725 0.55853 0.0
H1088 H 0.09601 0.62435 0.53189 0.0
H1089 H 0.01114 0.6453 0.48698 0.0
H1090 H 0.95816 0.64863 0.51407 0.0
H1091 H 0.08481 0.65962 0.48471 0.0
H1092 H 0.04086 0.60534 0.48336 0.0
H1093 H 0.01897 0.57819 0.4955 0.0
H1094 H 0.13951 0.5707 0.52351 0.0
H1095 H 0.16197 0.59791 0.51187 0.0
C1096 C 0.25771 0.63966 0.43313 0.0
C1097 C 0.29257 0.63839 0.44638 0.0
C1098 C 0.21715 0.63938 0.44114 0.0
C1099 C 0.21103 0.63756 0.46242 0.0
C1100 C 0.24575 0.63644 0.47566 0.0
C1101 C 0.28624 0.63703 0.46773 0.0
C1102 C 0.16852 0.63649 0.47109 0.0
C1103 C 0.15506 0.62151 0.47905 0.0
C1104 C 0.14203 0.65018 0.47222 0.0
C1105 C 0.15435 0.66618 0.46354 0.0
C1106 C 0.19023 0.67424 0.4708 0.0
C1107 C 0.2017 0.68929 0.4624 0.0
C1108 C 0.17732 0.69646 0.44685 0.0
C1109 C 0.14135 0.68861 0.43972 0.0
C1110 C 0.12978 0.67355 0.44805 0.0
C1111 C 0.03578 0.63118 0.54297 0.0
C1112 C 0.99694 0.63839 0.53841 0.0
C1113 C 0.06571 0.62931 0.52766 0.0
C1114 C 0.05742 0.63443 0.50736 0.0
C1115 C 0.0181 0.64118 0.50254 0.0
C1116 C 0.98789 0.64304 0.51796 0.0
C1117 C 0.0917 0.63411 0.49202 0.0
C1118 C 0.10381 0.64883 0.48266 0.0
C1119 C 0.11661 0.62005 0.48926 0.0
C1120 C 0.10305 0.60376 0.49678 0.0
C1121 C 0.0626 0.59799 0.49228 0.0
C1122 C 0.05011 0.58256 0.49905 0.0
C1123 C 0.07783 0.57273 0.51027 0.0
C1124 C 0.11808 0.57832 0.5148 0.0
C1125 C 0.13072 0.59375 0.50809 0.0
H1126 H 0.06814 0.56077 0.51544 0.0
H1127 H 0.18624 0.70812 0.44037 0.0
H1128 H 0.31131 0.35753 0.94409 0.0
H1129 H 0.25488 0.35892 0.96894 0.0
H1130 H 0.21544 0.40494 0.94301 0.0
H1131 H 0.27327 0.40387 0.9182 0.0
H1132 H 0.21542 0.40633 0.98378 0.0
H1133 H 0.15875 0.3695 0.93499 0.0
H1134 H 0.15714 0.3458 0.912 0.0
H1135 H 0.17284 0.31377 0.96411 0.0
H1136 H 0.17516 0.33729 0.9874 0.0
H1137 H 0.02143 0.40417 0.03844 0.0
H1138 H 0.07528 0.4047 0.01192 0.0
H1139 H 0.13185 0.36185 0.03879 0.0
H1140 H 0.07777 0.36123 0.06553 0.0
H1141 H 0.11985 0.35976 0.99617 0.0
H1142 H 0.17823 0.39772 0.04458 0.0
H1143 H 0.17739 0.42189 0.06677 0.0
H1144 H 0.1546 0.45242 0.01384 0.0
H1145 H 0.1547 0.42839 0.99136 0.0
C1146 C 0.29056 0.36794 0.94347 0.0
C1147 C 0.29683 0.38058 0.92904 0.0
C1148 C 0.25802 0.36866 0.95769 0.0
C1149 C 0.23037 0.3819 0.95771 0.0
C1150 C 0.23626 0.39455 0.94326 0.0
C1151 C 0.26917 0.39388 0.92901 0.0
C1152 C 0.19645 0.38263 0.97338 0.0
C1153 C 0.19403 0.39626 0.98622 0.0
C1154 C 0.16891 0.36939 0.97688 0.0
C1155 C 0.16747 0.35519 0.96293 0.0
C1156 C 0.16218 0.35741 0.94154 0.0
C1157 C 0.16109 0.34401 0.92845 0.0
C1158 C 0.16498 0.3283 0.93659 0.0
C1159 C 0.16987 0.32595 0.95783 0.0
C1160 C 0.17102 0.33932 0.97099 0.0
C1161 C 0.0454 0.39491 0.03886 0.0
C1162 C 0.0452 0.38265 0.05414 0.0
C1163 C 0.07632 0.39527 0.02369 0.0
C1164 C 0.10769 0.38335 0.0234 0.0
C1165 C 0.10792 0.37118 0.03874 0.0
C1166 C 0.07715 0.3709 0.05407 0.0
C1167 C 0.13934 0.38332 0.00666 0.0
C1168 C 0.14118 0.36983 0.99362 0.0
C1169 C 0.16593 0.39676 0.00283 0.0
C1170 C 0.16605 0.41123 0.01632 0.0
C1171 C 0.17268 0.40957 0.03769 0.0
C1172 C 0.17241 0.42325 0.05032 0.0
C1173 C 0.16583 0.43868 0.04172 0.0
C1174 C 0.15963 0.44046 0.02048 0.0
C1175 C 0.15983 0.42681 0.00778 0.0
H1176 H 0.16563 0.44926 0.05152 0.0
H1177 H 0.16412 0.31793 0.92643 0.0
H1178 H 0.19848 0.66805 0.94595 0.0
H1179 H 0.25595 0.66457 0.97006 0.0
H1180 H 0.30142 0.62389 0.93509 0.0
H1181 H 0.24208 0.6269 0.91107 0.0
H1182 H 0.30611 0.6166 0.97373 0.0
H1183 H 0.35028 0.66285 0.93535 0.0
H1184 H 0.3465 0.68996 0.91894 0.0
H1185 H 0.32871 0.71184 0.97813 0.0
H1186 H 0.33148 0.68485 0.99487 0.0
H1187 H 0.49752 0.61693 0.03246 0.0
H1188 H 0.44443 0.61795 0.00531 0.0
H1189 H 0.37886 0.65546 0.03812 0.0
H1190 H 0.4321 0.65462 0.06536 0.0
H1191 H 0.38978 0.66347 0.9981 0.0
H1192 H 0.3422 0.61593 0.0356 0.0
H1193 H 0.34892 0.58852 0.05098 0.0
H1194 H 0.37812 0.56895 0.99157 0.0
H1195 H 0.37239 0.5963 0.97592 0.0
C1196 C 0.2208 0.65842 0.94314 0.0
C1197 C 0.21571 0.64782 0.9264 0.0
C1198 C 0.25401 0.65652 0.95697 0.0
C1199 C 0.28383 0.64421 0.95425 0.0
C1200 C 0.27905 0.63358 0.93749 0.0
C1201 C 0.24524 0.63534 0.92371 0.0
C1202 C 0.31858 0.64215 0.96954 0.0
C1203 C 0.32492 0.62682 0.97875 0.0
C1204 C 0.34293 0.65549 0.97642 0.0
C1205 C 0.34071 0.67177 0.96635 0.0
C1206 C 0.34512 0.67342 0.94486 0.0
C1207 C 0.3432 0.68878 0.93549 0.0
C1208 C 0.33724 0.70261 0.94747 0.0
C1209 C 0.33322 0.70112 0.96885 0.0
C1210 C 0.33497 0.68579 0.97829 0.0
C1211 C 0.47153 0.62526 0.03411 0.0
C1212 C 0.46909 0.63566 0.0512 0.0
C1213 C 0.44109 0.62578 0.01853 0.0
C1214 C 0.40741 0.63669 0.0197 0.0
C1215 C 0.40451 0.64691 0.03689 0.0
C1216 C 0.43491 0.64637 0.05251 0.0
C1217 C 0.37642 0.63807 0.00254 0.0
C1218 C 0.37103 0.65328 0.99294 0.0
C1219 C 0.35344 0.6246 0.99514 0.0
C1220 C 0.35726 0.60819 0.00463 0.0
C1221 C 0.35047 0.60581 0.02586 0.0
C1222 C 0.35405 0.59028 0.03462 0.0
C1223 C 0.36406 0.57701 0.02227 0.0
C1224 C 0.37046 0.57924 1.00113 0.0
C1225 C 0.36705 0.59475 0.99231 0.0
H1226 H 0.36676 0.565 0.02909 0.0
H1227 H 0.33584 0.71449 0.94019 0.0
H1228 H 0.48632 0.63394 0.4757 0.0
H1229 H 0.54115 0.63587 0.5019 0.0
H1230 H 0.62965 0.65057 0.45535 0.0
H1231 H 0.57454 0.64892 0.42888 0.0
H1232 H 0.66016 0.62624 0.48539 0.0
H1233 H 0.5929 0.67823 0.48128 0.0
H1234 H 0.53194 0.69661 0.48084 0.0
H1235 H 0.50141 0.68195 0.54268 0.0
H1236 H 0.56133 0.66304 0.54324 0.0
H1237 H 0.78161 0.67823 0.56359 0.0
H1238 H 0.72487 0.67528 0.53867 0.0
H1239 H 0.70985 0.62509 0.55694 0.0
H1240 H 0.76738 0.62791 0.58191 0.0
H1241 H 0.64356 0.66753 0.54011 0.0
H1242 H 0.68763 0.60328 0.51316 0.0
H1243 H 0.74937 0.58525 0.51271 0.0
H1244 H 0.83061 0.62681 0.51099 0.0
H1245 H 0.76936 0.64506 0.51108 0.0
C1246 C 0.51749 0.63747 0.47092 0.0
C1247 C 0.526 0.64132 0.45015 0.0
C1248 C 0.54878 0.63857 0.48596 0.0
C1249 C 0.5894 0.64338 0.48057 0.0
C1250 C 0.59848 0.64678 0.4598 0.0
C1251 C 0.56693 0.64591 0.44473 0.0
C1252 C 0.62164 0.64558 0.49688 0.0
C1253 C 0.65654 0.63524 0.49737 0.0
C1254 C 0.61706 0.65745 0.51238 0.0
C1255 C 0.58143 0.66907 0.51222 0.0
C1256 C 0.57298 0.67879 0.49472 0.0
C1257 C 0.53863 0.68933 0.49445 0.0
C1258 C 0.51288 0.69046 0.51172 0.0
C1259 C 0.52139 0.68105 0.5293 0.0
C1260 C 0.5555 0.6704 0.52959 0.0
C1261 C 0.76601 0.66658 0.56251 0.0
C1262 C 0.77929 0.65327 0.57465 0.0
C1263 C 0.73339 0.66494 0.54828 0.0
C1264 C 0.7134 0.64992 0.5457 0.0
C1265 C 0.7252 0.63676 0.55847 0.0
C1266 C 0.75788 0.63841 0.57283 0.0
C1267 C 0.6819 0.64799 0.52888 0.0
C1268 C 0.64711 0.65843 0.52823 0.0
C1269 C 0.68688 0.63636 0.51308 0.0
C1270 C 0.72391 0.62551 0.51233 0.0
C1271 C 0.71867 0.60856 0.51256 0.0
C1272 C 0.75357 0.5983 0.51238 0.0
C1273 C 0.79389 0.60488 0.51188 0.0
C1274 C 0.79938 0.62173 0.51143 0.0
C1275 C 0.76458 0.63203 0.51155 0.0
H1276 H 0.82086 0.59692 0.51181 0.0
H1277 H 0.48635 0.69864 0.5115 0.0
H1278 H 0.03326 0.39446 0.49964 0.0
H1279 H 0.97726 0.39691 0.52534 0.0
H1280 H 0.89304 0.41446 0.47802 0.0
H1281 H 0.94828 0.41161 0.45224 0.0
H1282 H 0.8944 0.43244 0.51842 0.0
H1283 H 0.88246 0.37833 0.48825 0.0
H1284 H 0.91125 0.35148 0.47938 0.0
H1285 H 0.93783 0.34188 0.54332 0.0
H1286 H 0.9098 0.36881 0.55252 0.0
H1287 H 0.68587 0.42337 0.54681 0.0
H1288 H 0.75448 0.4231 0.53082 0.0
H1289 H 0.80196 0.3929 0.58038 0.0
H1290 H 0.73247 0.39281 0.59642 0.0
H1291 H 0.82825 0.38181 0.54468 0.0
H1292 H 0.82954 0.43323 0.57629 0.0
H1293 H 0.80408 0.46027 0.58649 0.0
H1294 H 0.80232 0.47569 0.52307 0.0
H1295 H 0.827 0.44865 0.51241 0.0
C1296 C 0.00289 0.39898 0.4948 0.0
C1297 C 0.99498 0.4028 0.47397 0.0
C1298 C 0.97102 0.40035 0.50946 0.0
C1299 C 0.93113 0.40588 0.50353 0.0
C1300 C 0.92368 0.41024 0.48288 0.0
C1301 C 0.95517 0.40852 0.46818 0.0
C1302 C 0.89622 0.40633 0.51849 0.0
C1303 C 0.87973 0.42142 0.52416 0.0
C1304 C 0.87831 0.39192 0.52653 0.0
C1305 C 0.89456 0.37565 0.52103 0.0
C1306 C 0.89481 0.37055 0.50039 0.0
C1307 C 0.91091 0.35531 0.49531 0.0
C1308 C 0.9265 0.345 0.51077 0.0
C1309 C 0.92584 0.34989 0.53136 0.0
C1310 C 0.90984 0.36514 0.53651 0.0
C1311 C 0.71084 0.41672 0.55445 0.0
C1312 C 0.70363 0.40815 0.57297 0.0
C1313 C 0.75027 0.41667 0.54532 0.0
C1314 C 0.78373 0.40824 0.55457 0.0
C1315 C 0.77671 0.39959 0.57303 0.0
C1316 C 0.73701 0.39957 0.58219 0.0
C1317 C 0.82524 0.408 0.54424 0.0
C1318 C 0.84314 0.39292 0.53937 0.0
C1319 C 0.84484 0.42248 0.53722 0.0
C1320 C 0.8299 0.43882 0.54353 0.0
C1321 C 0.82341 0.44233 0.56448 0.0
C1322 C 0.80915 0.45767 0.57036 0.0
C1323 C 0.80152 0.46967 0.55544 0.0
C1324 C 0.80822 0.46637 0.53461 0.0
C1325 C 0.82238 0.45103 0.52864 0.0
H1326 H 0.79045 0.48153 0.56 0.0
H1327 H 0.93897 0.33321 0.5068 0.0
H1328 H 0.20492 0.07811 0.08051 0.0
H1329 H 0.25036 0.05418 0.08341 0.0
H1330 H 0.15122 0.02414 0.05945 0.0
H1331 H 0.10556 0.04796 0.05676 0.0
H1332 H 0.19177 1.00949 0.09224 0.0
H1333 H 0.22913 0.03608 0.02849 0.0
H1334 H 0.25096 0.05951 0.00714 0.0
H1335 H 0.36503 0.06323 0.04203 0.0
H1336 H 0.34358 0.03994 0.0638 0.0
H1337 H 0.30886 0.93925 0.0663 0.0
H1338 H 0.26354 0.96322 0.06588 0.0
H1339 H 0.36911 0.99338 0.08179 0.0
H1340 H 0.4146 0.96948 0.08172 0.0
H1341 H 0.32574 1.00843 0.0539 0.0
H1342 H 0.28997 0.98198 0.11754 0.0
H1343 H 0.26797 0.95919 0.13995 0.0
H1344 H 0.15186 0.95576 0.10667 0.0
H1345 H 0.17339 0.97841 0.08389 0.0
C1346 C 0.1926 0.06638 0.07612 0.0
C1347 C 0.15158 0.06498 0.06833 0.0
C1348 C 0.21874 0.05272 0.07763 0.0
C1349 C 0.20441 0.03734 0.07145 0.0
C1350 C 0.16308 0.03585 0.06426 0.0
C1351 C 0.13708 0.04951 0.06259 0.0
C1352 C 0.23264 0.02288 0.072 0.0
C1353 C 0.22086 1.00919 0.08369 0.0
C1354 C 0.27112 0.02258 0.06124 0.0
C1355 C 0.28454 0.03637 0.04791 0.0
C1356 C 0.25875 0.04195 0.03169 0.0
C1357 C 0.27107 0.0552 0.01951 0.0
C1358 C 0.30928 0.06289 0.02328 0.0
C1359 C 0.3354 0.05728 0.03916 0.0
C1360 C 0.32319 0.04404 0.05142 0.0
C1361 C 0.32234 0.95096 0.06988 0.0
C1362 C 0.3654 0.9524 0.07409 0.0
C1363 C 0.29636 0.96471 0.06967 0.0
C1364 C 0.31259 0.9802 0.0741 0.0
C1365 C 0.35564 0.98164 0.07827 0.0
C1366 C 0.3817 0.96793 0.07823 0.0
C1367 C 0.28496 0.99492 0.07417 0.0
C1368 C 0.29679 1.00869 0.06256 0.0
C1369 C 0.24665 0.99534 0.08514 0.0
C1370 C 0.23347 0.98179 0.0989 0.0
C1371 C 0.25986 0.9763 0.11492 0.0
C1372 C 0.24746 0.96341 0.1277 0.0
C1373 C 0.20859 0.956 0.1247 0.0
C1374 C 0.18198 0.9615 0.10896 0.0
C1375 C 0.19424 0.97437 0.09613 0.0
H1376 H 0.19905 0.94602 0.13461 0.0
H1377 H 0.31863 0.07318 0.01387 0.0
H1378 H 0.5768 0.9758 0.42503 0.0
H1379 H 0.62143 0.99991 0.42689 0.0
H1380 H 0.72815 0.96955 0.44007 0.0
H1381 H 0.68396 0.94537 0.43833 0.0
H1382 H 0.7261 0.99605 0.46525 0.0
H1383 H 0.7155 0.98544 0.39289 0.0
H1384 H 0.67882 0.98039 0.36002 0.0
H1385 H 0.61868 0.02694 0.36374 0.0
H1386 H 0.65457 0.03217 0.3968 0.0
H1387 H 0.88277 0.05612 0.45108 0.0
H1388 H 0.83944 0.03169 0.44881 0.0
H1389 H 0.73596 0.06077 0.42657 0.0
H1390 H 0.77997 0.08511 0.42807 0.0
H1391 H 0.73666 0.03441 0.40604 0.0
H1392 H 0.74599 0.04505 0.4787 0.0
H1393 H 0.78142 0.04994 0.51194 0.0
H1394 H 0.84206 1.00348 0.50833 0.0
H1395 H 0.80741 0.9984 0.47493 0.0
C1396 C 0.60978 0.97422 0.42835 0.0
C1397 C 0.62662 0.95857 0.43157 0.0
C1398 C 0.63529 0.98804 0.4294 0.0
C1399 C 0.67832 0.98656 0.43356 0.0
C1400 C 0.69507 0.97101 0.43709 0.0
C1401 C 0.66961 0.95717 0.43612 0.0
C1402 C 0.70592 1.00119 0.43417 0.0
C1403 C 0.72878 1.00435 0.45222 0.0
C1404 C 0.70889 1.01221 0.41734 0.0
C1405 C 0.6874 1.00913 0.39742 0.0
C1406 C 0.69419 0.99455 0.38678 0.0
C1407 C 0.67359 0.99166 0.3681 0.0
C1408 C 0.64635 1.00332 0.35982 0.0
C1409 C 0.63974 0.01791 0.37018 0.0
C1410 C 0.66023 0.02085 0.38889 0.0
C1411 C 0.85074 0.05728 0.44576 0.0
C1412 C 0.83477 0.07255 0.43983 0.0
C1413 C 0.82583 0.0433 0.44455 0.0
C1414 C 0.78389 0.0443 0.43793 0.0
C1415 C 0.76809 0.05957 0.43176 0.0
C1416 C 0.79328 0.07351 0.4326 0.0
C1417 C 0.75664 0.02949 0.43728 0.0
C1418 C 0.73392 0.02621 0.41915 0.0
C1419 C 0.75361 0.0184 0.45412 0.0
C1420 C 0.77444 0.02142 0.47421 0.0
C1421 C 0.76712 0.03593 0.48492 0.0
C1422 C 0.78702 0.03873 0.5038 0.0
C1423 C 0.81407 0.02705 0.51221 0.0
C1424 C 0.82117 1.01253 0.50178 0.0
C1425 C 0.80138 1.00968 0.48288 0.0
H1426 H 0.82944 0.02924 0.52683 0.0
H1427 H 0.63044 1.00107 0.34536 0.0
H1428 H 0.60679 0.05768 0.87806 0.0
H1429 H 0.64962 0.03313 0.87932 0.0
H1430 H 0.75236 0.06062 0.90464 0.0
H1431 H 0.70961 0.08533 0.90317 0.0
H1432 H 0.78033 0.04036 0.87645 0.0
H1433 H 0.69059 0.03538 0.93513 0.0
H1434 H 0.62344 0.03492 0.95372 0.0
H1435 H 0.58243 0.99447 0.91747 0.0
H1436 H 0.64914 0.99483 0.89845 0.0
H1437 H 0.89859 0.97281 0.91313 0.0
H1438 H 0.85605 0.99734 0.91132 0.0
H1439 H 0.75831 0.9709 0.88025 0.0
H1440 H 0.801 0.9463 0.8815 0.0
H1441 H 0.72813 0.99049 0.91143 0.0
H1442 H 0.81911 0.99563 0.853 0.0
H1443 H 0.88704 0.99612 0.83511 0.0
H1444 H 0.92665 0.0364 0.87203 0.0
H1445 H 0.85914 0.036 0.89036 0.0
C1446 C 0.63838 0.0585 0.88403 0.0
C1447 C 0.65464 0.07346 0.89067 0.0
C1448 C 0.66289 0.04443 0.88475 0.0
C1449 C 0.70405 0.04492 0.89242 0.0
C1450 C 0.72068 0.0599 0.89869 0.0
C1451 C 0.69624 0.07403 0.89782 0.0
C1452 C 0.72967 0.02981 0.89383 0.0
C1453 C 0.76912 0.02954 0.88437 0.0
C1454 C 0.7148 0.01553 0.90377 0.0
C1455 C 0.67471 0.01524 0.91523 0.0
C1456 C 0.66713 0.02647 0.93102 0.0
C1457 C 0.62916 0.02621 0.94165 0.0
C1458 C 0.59864 0.0147 0.93675 0.0
C1459 C 0.60608 1.00339 0.92123 0.0
C1460 C 0.64397 1.00361 0.91054 0.0
C1461 C 0.8683 0.97214 0.90569 0.0
C1462 C 0.85363 0.95744 0.89731 0.0
C1463 C 0.8439 0.98623 0.90475 0.0
C1464 C 0.80417 0.98601 0.89546 0.0
C1465 C 0.78891 0.97135 0.88749 0.0
C1466 C 0.81341 0.95724 0.8883 0.0
C1467 C 0.77864 1.00109 0.89407 0.0
C1468 C 0.73926 1.00133 0.90354 0.0
C1469 C 0.79367 0.01537 0.88425 0.0
C1470 C 0.83422 0.01568 0.8732 0.0
C1471 C 0.84244 1.00451 0.85743 0.0
C1472 C 0.88084 1.00478 0.84718 0.0
C1473 C 0.91119 0.01626 0.85247 0.0
C1474 C 0.90314 0.02751 0.86798 0.0
C1475 C 0.8648 0.02727 0.87829 0.0
H1476 H 0.9409 0.01645 0.84452 0.0
H1477 H 0.56927 1.01452 0.945 0.0
H1478 H 0.09781 0.97763 0.63925 0.0
H1479 H 0.14105 1.0021 0.6404 0.0
H1480 H 0.24709 0.9747 0.61894 0.0
H1481 H 0.20394 0.9502 0.61758 0.0
H1482 H 0.26958 0.99545 0.64939 0.0
H1483 H 0.19192 0.99853 0.58596 0.0
H1484 H 0.12855 0.99839 0.56412 0.0
H1485 H 0.08092 0.03983 0.59623 0.0
H1486 H 0.14377 0.04008 0.61848 0.0
H1487 H 0.39651 0.06112 0.61505 0.0
H1488 H 0.35399 0.03659 0.61774 0.0
H1489 H 0.24881 0.06523 0.63758 0.0
H1490 H 0.29125 0.08986 0.63503 0.0
H1491 H 0.22533 0.04396 0.60884 0.0
H1492 H 0.30436 0.0413 0.67175 0.0
H1493 H 0.3681 0.0414 0.69333 0.0
H1494 H 0.41365 0.99923 0.66201 0.0
H1495 H 0.35041 0.999 0.64003 0.0
C1496 C 0.1303 0.97679 0.63475 0.0
C1497 C 0.14725 0.96192 0.62822 0.0
C1498 C 0.15503 0.9908 0.63544 0.0
C1499 C 0.19721 0.9903 0.62949 0.0
C1500 C 0.21463 0.97539 0.62361 0.0
C1501 C 0.18992 0.96135 0.62293 0.0
C1502 C 0.22282 1.00541 0.62888 0.0
C1503 C 0.26016 1.006 0.64034 0.0
C1504 C 0.21013 0.01931 0.61742 0.0
C1505 C 0.17235 0.01922 0.60403 0.0
C1506 C 0.16777 1.00753 0.58848 0.0
C1507 C 0.13198 1.00744 0.576 0.0
C1508 C 0.10067 0.01906 0.57882 0.0
C1509 C 0.10516 0.03082 0.59409 0.0
C1510 C 0.14087 0.03095 0.60663 0.0
C1511 C 0.36454 0.06223 0.62028 0.0
C1512 C 0.3475 0.07754 0.6249 0.0
C1513 C 0.34019 0.04815 0.62178 0.0
C1514 C 0.29827 0.049 0.6281 0.0
C1515 C 0.28107 0.06425 0.63267 0.0
C1516 C 0.3054 0.07836 0.63114 0.0
C1517 C 0.27213 0.03404 0.62938 0.0
C1518 C 0.2347 0.03346 0.61799 0.0
C1519 C 0.2848 0.02015 0.64088 0.0
C1520 C 0.32281 0.02022 0.65412 0.0
C1521 C 0.32811 0.03212 0.66935 0.0
C1522 C 0.36413 0.03219 0.68167 0.0
C1523 C 0.39495 0.02035 0.67901 0.0
C1524 C 0.38977 1.0084 0.66404 0.0
C1525 C 0.35382 1.00828 0.65166 0.0
H1526 H 0.42281 0.02043 0.68856 0.0
H1527 H 0.07298 0.01898 0.56915 0.0
H1528 H 0.91248 0.4699 0.06614 0.0
H1529 H 0.8668 0.49366 0.06843 0.0
H1530 H 0.76551 0.46302 0.08882 0.0
H1531 H 0.81088 0.43906 0.08613 0.0
H1532 H 0.74317 0.48393 0.05627 0.0
H1533 H 0.81042 0.48748 0.12233 0.0
H1534 H 0.87044 0.48851 0.14631 0.0
H1535 H 0.91464 0.53197 0.11645 0.0
H1536 H 0.85518 0.53108 0.09208 0.0
H1537 H 0.6008 0.54759 0.07627 0.0
H1538 H 0.64608 0.52375 0.07942 0.0
H1539 H 0.75456 0.55415 0.07023 0.0
H1540 H 0.70918 0.57812 0.06769 0.0
H1541 H 0.7727 0.53278 0.09813 0.0
H1542 H 0.70994 0.5293 0.03128 0.0
H1543 H 0.65311 0.52835 0.00547 0.0
H1544 H 0.60451 0.48506 0.03403 0.0
H1545 H 0.6607 0.48588 0.06022 0.0
C1546 C 0.88051 0.46819 0.07115 0.0
C1547 C 0.86537 0.45252 0.07586 0.0
C1548 C 0.85449 0.48182 0.07259 0.0
C1549 C 0.81265 0.48014 0.07877 0.0
C1550 C 0.79763 0.46458 0.08393 0.0
C1551 C 0.82373 0.45092 0.08259 0.0
C1552 C 0.78417 0.49451 0.07884 0.0
C1553 C 0.74921 0.49451 0.06567 0.0
C1554 C 0.7928 0.50854 0.09059 0.0
C1555 C 0.82853 0.50913 0.10526 0.0
C1556 C 0.83312 0.49718 0.12076 0.0
C1557 C 0.86701 0.49775 0.13445 0.0
C1558 C 0.89639 0.51027 0.13287 0.0
C1559 C 0.89188 0.52227 0.11763 0.0
C1560 C 0.85807 0.52175 0.10389 0.0
C1561 C 0.63429 0.54919 0.07486 0.0
C1562 C 0.65134 0.56475 0.07156 0.0
C1563 C 0.66024 0.53552 0.07661 0.0
C1564 C 0.7039 0.53699 0.07463 0.0
C1565 C 0.72105 0.5526 0.07178 0.0
C1566 C 0.69509 0.56633 0.07033 0.0
C1567 C 0.73154 0.52229 0.07544 0.0
C1568 C 0.76644 0.52221 0.08874 0.0
C1569 C 0.72325 0.50824 0.06353 0.0
C1570 C 0.68923 0.50778 0.04788 0.0
C1571 C 0.6869 0.51966 0.03219 0.0
C1572 C 0.65484 0.51913 0.01747 0.0
C1573 C 0.62513 0.50669 0.01816 0.0
C1574 C 0.62748 0.49472 0.03355 0.0
C1575 C 0.65943 0.49521 0.04834 0.0
H1576 H 0.60035 0.50629 0.00674 0.0
H1577 H 0.9226 0.5107 0.14349 0.0
H1578 H 0.39319 0.55363 0.44561 0.0
H1579 H 0.34763 0.52972 0.44479 0.0
H1580 H 0.2432 0.56011 0.42723 0.0
H1581 H 0.28863 0.5841 0.42821 0.0
H1582 H 0.22352 0.5386 0.4587 0.0
H1583 H 0.288 0.53649 0.39209 0.0
H1584 H 0.34689 0.53614 0.36766 0.0
H1585 H 0.39383 0.49241 0.39604 0.0
H1586 H 0.33551 0.49263 0.42086 0.0
H1587 H 0.08053 0.47695 0.42907 0.0
H1588 H 0.12661 0.50043 0.43146 0.0
H1589 H 0.23206 0.46868 0.44217 0.0
H1590 H 0.18629 0.44503 0.43894 0.0
H1591 H 0.25227 0.49086 0.41482 0.0
H1592 H 0.18701 0.49226 0.48083 0.0
H1593 H 0.12974 0.49289 0.50615 0.0
H1594 H 0.08565 0.53798 0.48025 0.0
H1595 H 0.14215 0.53747 0.45447 0.0
C1596 C 0.36054 0.55522 0.44156 0.0
C1597 C 0.3446 0.57078 0.43694 0.0
C1598 C 0.33457 0.54153 0.44098 0.0
C1599 C 0.29199 0.54309 0.43584 0.0
C1600 C 0.27595 0.5586 0.4312 0.0
C1601 C 0.30203 0.57229 0.43159 0.0
C1602 C 0.26411 0.52857 0.43571 0.0
C1603 C 0.22939 0.52824 0.4489 0.0
C1604 C 0.27254 0.51484 0.42339 0.0
C1605 C 0.30762 0.51468 0.40848 0.0
C1606 C 0.31109 0.52688 0.39325 0.0
C1607 C 0.34432 0.52669 0.3793 0.0
C1608 C 0.37415 0.51428 0.38034 0.0
C1609 C 0.37074 0.50202 0.39529 0.0
C1610 C 0.33758 0.50217 0.40929 0.0
C1611 C 0.11349 0.47488 0.43191 0.0
C1612 C 0.12953 0.45898 0.43369 0.0
C1613 C 0.13985 0.4884 0.43351 0.0
C1614 C 0.18291 0.48642 0.4372 0.0
C1615 C 0.19897 0.47058 0.43936 0.0
C1616 C 0.17261 0.45702 0.43769 0.0
C1617 C 0.21136 0.50083 0.43782 0.0
C1618 C 0.24627 0.50116 0.42469 0.0
C1619 C 0.20315 0.51454 0.45029 0.0
C1620 C 0.16859 0.51472 0.46554 0.0
C1621 C 0.16482 0.50221 0.48035 0.0
C1622 C 0.13252 0.50256 0.49482 0.0
C1623 C 0.10399 0.51543 0.49476 0.0
C1624 C 0.1077 0.52799 0.48024 0.0
C1625 C 0.13985 0.52767 0.46569 0.0
H1626 H 0.07908 0.5157 0.50601 0.0
H1627 H 0.39985 0.51415 0.36952 0.0
H1628 H 0.29593 0.44525 0.90653 0.0
H1629 H 0.25326 0.46995 0.90738 0.0
H1630 H 0.35751 0.49787 0.88423 0.0
H1631 H 0.40027 0.4733 0.88354 0.0
H1632 H 0.321 0.51389 0.91409 0.0
H1633 H 0.27369 0.4868 0.85303 0.0
H1634 H 0.24591 0.46398 0.83273 0.0
H1635 H 0.13434 0.46352 0.86941 0.0
H1636 H 0.16172 0.48621 0.89012 0.0
H1637 H 0.2086 0.58427 0.88033 0.0
H1638 H 0.25061 0.55955 0.88189 0.0
H1639 H 0.14853 0.53402 0.91089 0.0
H1640 H 0.10653 0.55872 0.90993 0.0
H1641 H 0.18302 0.51679 0.87886 0.0
H1642 H 0.23059 0.54481 0.93919 0.0
H1643 H 0.25875 0.56802 0.95863 0.0
H1644 H 0.37058 0.56719 0.92219 0.0
H1645 H 0.34283 0.5441 0.90232 0.0
C1646 C 0.30964 0.45663 0.90149 0.0
C1647 C 0.35153 0.45727 0.89495 0.0
C1648 C 0.28523 0.47076 0.90199 0.0
C1649 C 0.30198 0.48579 0.89567 0.0
C1650 C 0.34386 0.48646 0.88926 0.0
C1651 C 0.36833 0.47238 0.8889 0.0
C1652 C 0.27604 0.50085 0.89569 0.0
C1653 C 0.29107 0.51456 0.90617 0.0
C1654 C 0.23654 0.5017 0.88572 0.0
C1655 C 0.21995 0.48809 0.87326 0.0
C1656 C 0.24337 0.48175 0.85687 0.0
C1657 C 0.22767 0.46885 0.84527 0.0
C1658 C 0.18844 0.46227 0.84981 0.0
C1659 C 0.16476 0.46861 0.86593 0.0
C1660 C 0.18034 0.4815 0.87759 0.0
C1661 C 0.19504 0.57353 0.88731 0.0
C1662 C 0.15384 0.57366 0.89498 0.0
C1663 C 0.2192 0.55934 0.88812 0.0
C1664 C 0.20279 0.54495 0.89659 0.0
C1665 C 0.16179 0.54497 0.90421 0.0
C1666 C 0.1377 0.55917 0.90355 0.0
C1667 C 0.22809 0.52978 0.89717 0.0
C1668 C 0.21293 0.51607 0.88681 0.0
C1669 C 0.26756 0.52898 0.90713 0.0
C1670 C 0.28443 0.54282 0.91912 0.0
C1671 C 0.26104 0.54965 0.9352 0.0
C1672 C 0.27696 0.56277 0.94632 0.0
C1673 C 0.31637 0.5691 0.94161 0.0
C1674 C 0.34002 0.56229 0.9258 0.0
C1675 C 0.32423 0.54917 0.91462 0.0
H1676 H 0.3286 0.57927 0.95022 0.0
H1677 H 0.17633 0.45229 0.84081 0.0
H1678 H 0.88893 0.56182 0.61668 0.0
H1679 H 0.84562 0.53746 0.61714 0.0
H1680 H 0.73605 0.56658 0.60467 0.0
H1681 H 0.77935 0.5911 0.6039 0.0
H1682 H 0.72151 0.54456 0.63495 0.0
H1683 H 0.78072 0.54373 0.56731 0.0
H1684 H 0.83606 0.54395 0.54094 0.0
H1685 H 0.88816 0.50017 0.56689 0.0
H1686 H 0.83365 0.49987 0.59368 0.0
H1687 H 0.58519 0.47933 0.6099 0.0
H1688 H 0.62777 0.5039 0.60903 0.0
H1689 H 0.73849 0.47533 0.62109 0.0
H1690 H 0.69614 0.45069 0.62228 0.0
H1691 H 0.75188 0.49714 0.59073 0.0
H1692 H 0.69453 0.49824 0.6588 0.0
H1693 H 0.63846 0.4974 0.68479 0.0
H1694 H 0.5828 0.54014 0.65787 0.0
H1695 H 0.63822 0.5411 0.63151 0.0
C1696 C 0.85574 0.56311 0.61377 0.0
C1697 C 0.83783 0.57853 0.61013 0.0
C1698 C 0.83094 0.54911 0.61408 0.0
C1699 C 0.78759 0.55012 0.6107 0.0
C1700 C 0.76944 0.56547 0.60731 0.0
C1701 C 0.79427 0.57952 0.60696 0.0
C1702 C 0.76123 0.53518 0.61109 0.0
C1703 C 0.7278 0.53429 0.62506 0.0
C1704 C 0.77003 0.52157 0.59857 0.0
C1705 C 0.80337 0.5219 0.58269 0.0
C1706 C 0.80428 0.53426 0.56757 0.0
C1707 C 0.83547 0.53438 0.55251 0.0
C1708 C 0.86571 0.52212 0.55229 0.0
C1709 C 0.86482 0.5097 0.56712 0.0
C1710 C 0.83381 0.50956 0.58226 0.0
C1711 C 0.61847 0.47822 0.61268 0.0
C1712 C 0.63695 0.4629 0.61629 0.0
C1713 C 0.64286 0.49233 0.61211 0.0
C1714 C 0.68632 0.49152 0.61522 0.0
C1715 C 0.705 0.47628 0.61865 0.0
C1716 C 0.68063 0.46215 0.61926 0.0
C1717 C 0.71232 0.50654 0.61461 0.0
C1718 C 0.74564 0.50743 0.60061 0.0
C1719 C 0.70353 0.52012 0.62713 0.0
C1720 C 0.67031 0.51965 0.64305 0.0
C1721 C 0.67016 0.50739 0.65832 0.0
C1722 C 0.63852 0.5069 0.67314 0.0
C1723 C 0.60703 0.51869 0.67295 0.0
C1724 C 0.60718 0.53101 0.65798 0.0
C1725 C 0.63872 0.53154 0.6431 0.0
H1726 H 0.58256 0.51829 0.68444 0.0
H1727 H 0.88975 0.52221 0.54058 0.0
H1728 H 0.95437 0.32705 0.04459 0.0
H1729 H 0.98351 0.29987 0.03741 0.0
H1730 H 0.99045 0.28991 0.10277 0.0
H1731 H 0.9619 0.3167 0.10985 0.0
H1732 H 0.06151 0.2806 0.0831 0.0
H1733 H 0.91044 0.27559 0.07363 0.0
H1734 H 0.8432 0.28217 0.05667 0.0
H1735 H 0.89285 0.26731 0.99835 0.0
H1736 H 0.96061 0.26085 0.01495 0.0
H1737 H 0.05193 0.19982 0.11074 0.0
H1738 H 0.03334 0.22781 0.1029 0.0
H1739 H 0.0486 0.21884 0.03797 0.0
H1740 H 0.06821 0.19043 0.04584 0.0
H1741 H 0.97613 0.23856 0.04817 0.0
H1742 H 0.1232 0.23869 0.05944 0.0
H1743 H 0.18932 0.23152 0.07704 0.0
H1744 H 0.14784 0.2556 0.13176 0.0
H1745 H 0.08117 0.26269 0.11461 0.0
C1746 C 0.96256 0.31906 0.05733 0.0
C1747 C 0.95545 0.32393 0.07777 0.0
C1748 C 0.97894 0.30353 0.05325 0.0
C1749 C 0.98893 0.29277 0.06957 0.0
C1750 C 0.98299 0.29792 0.08991 0.0
C1751 C 0.96636 0.31322 0.09394 0.0
C1752 C 0.00488 0.27598 0.06604 0.0
C1753 C 0.0429 0.27144 0.07537 0.0
C1754 C 0.98137 0.26407 0.05539 0.0
C1755 C 0.94071 0.26796 0.04546 0.0
C1756 C 0.90713 0.27387 0.05715 0.0
C1757 C 0.86891 0.27755 0.04762 0.0
C1758 C 0.86381 0.27522 0.02643 0.0
C1759 C 0.89689 0.26915 0.01475 0.0
C1760 C 0.93519 0.26548 0.02421 0.0
C1761 C 0.05175 0.20372 0.09476 0.0
C1762 C 0.06257 0.1929 0.07896 0.0
C1763 C 0.04083 0.21977 0.09029 0.0
C1764 C 0.04033 0.22555 0.06989 0.0
C1765 C 0.04906 0.21466 0.05386 0.0
C1766 C 0.06019 0.19844 0.05836 0.0
C1767 C 0.03189 0.24314 0.06595 0.0
C1768 C 0.99537 0.24781 0.05532 0.0
C1769 C 0.05681 0.25524 0.07538 0.0
C1770 C 0.09707 0.25117 0.08574 0.0
C1771 C 0.12806 0.24237 0.07527 0.0
C1772 C 0.16565 0.23833 0.08516 0.0
C1773 C 0.17276 0.24309 0.10551 0.0
C1774 C 0.1423 0.25193 0.11599 0.0
C1775 C 0.10462 0.25599 0.10618 0.0
H1776 H 0.20188 0.23995 0.11315 0.0
H1777 H 0.83419 0.27806 0.01908 0.0
H1778 H 0.45381 0.81454 0.11225 0.0
H1779 H 0.48014 0.78787 0.10339 0.0
H1780 H 0.4704 0.79992 0.03871 0.0
H1781 H 0.44286 0.82701 0.04759 0.0
H1782 H 0.44139 0.76708 0.04969 0.0
H1783 H 0.56274 0.79974 0.05671 0.0
H1784 H 0.60828 0.82039 0.07254 0.0
H1785 H 0.61852 0.79117 0.12753 0.0
H1786 H 0.57243 0.77046 0.11218 0.0
H1787 H 0.56178 0.69039 0.04493 0.0
H1788 H 0.53798 0.71836 0.03739 0.0
H1789 H 0.53405 0.72813 0.10256 0.0
H1790 H 0.55653 0.70059 0.11011 0.0
H1791 H 0.5778 0.75151 0.08095 0.0
H1792 H 0.4463 0.72138 0.07496 0.0
H1793 H 0.40047 0.70093 0.05889 0.0
H1794 H 0.41124 0.7255 1.00045 0.0
H1795 H 0.45775 0.74597 0.01613 0.0
C1796 C 0.45657 0.81157 0.09609 0.0
C1797 C 0.44579 0.82297 0.08064 0.0
C1798 C 0.472 0.79627 0.09104 0.0
C1799 C 0.47744 0.79186 0.07039 0.0
C1800 C 0.46639 0.80306 0.05477 0.0
C1801 C 0.45101 0.81856 0.05986 0.0
C1802 C 0.49608 0.77566 0.06581 0.0
C1803 C 0.4717 0.76374 0.05603 0.0
C1804 C 0.53562 0.77126 0.07406 0.0
C1805 C 0.56397 0.78356 0.08329 0.0
C1806 C 0.57451 0.79775 0.07222 0.0
C1807 C 0.60043 0.80947 0.08111 0.0
C1808 C 0.61627 0.80709 0.10103 0.0
C1809 C 0.60626 0.79298 0.11209 0.0
C1810 C 0.58027 0.78123 0.10329 0.0
C1811 C 0.55543 0.69848 0.0576 0.0
C1812 C 0.56197 0.69326 0.07813 0.0
C1813 C 0.54194 0.71447 0.05328 0.0
C1814 C 0.53467 0.72544 0.06942 0.0
C1815 C 0.54005 0.72003 0.08982 0.0
C1816 C 0.55323 0.70421 0.09411 0.0
C1817 C 0.52234 0.74273 0.06572 0.0
C1818 C 0.54804 0.7549 0.07402 0.0
C1819 C 0.48428 0.74728 0.05596 0.0
C1820 C 0.45596 0.73508 0.04665 0.0
C1821 C 0.43921 0.72234 0.05865 0.0
C1822 C 0.41306 0.71076 0.04961 0.0
C1823 C 0.40308 0.71188 0.02864 0.0
C1824 C 0.4191 0.72463 0.01668 0.0
C1825 C 0.44535 0.73622 0.02563 0.0
H1826 H 0.38285 0.7029 0.02167 0.0
H1827 H 0.63632 0.81619 0.10789 0.0
H1828 H 0.53542 0.83196 0.41052 0.0
H1829 H 0.50858 0.80419 0.40662 0.0
H1830 H 0.53263 0.79468 0.47115 0.0
H1831 H 0.55969 0.82219 0.47498 0.0
H1832 H 0.55926 0.77005 0.44985 0.0
H1833 H 0.43187 0.80062 0.45152 0.0
H1834 H 0.38232 0.82217 0.44102 0.0
H1835 H 0.37716 0.80281 0.37978 0.0
H1836 H 0.42715 0.78126 0.38984 0.0
H1837 H 0.44364 0.69455 0.45271 0.0
H1838 H 0.46908 0.72217 0.45938 0.0
H1839 H 0.45529 0.73415 0.39482 0.0
H1840 H 0.43068 0.7068 0.38803 0.0
H1841 H 0.42182 0.75744 0.41803 0.0
H1842 H 0.55086 0.72704 0.41682 0.0
H1843 H 0.60026 0.70561 0.42786 0.0
H1844 H 0.60127 0.72465 0.48929 0.0
H1845 H 0.55127 0.74605 0.4787 0.0
C1846 C 0.53446 0.82399 0.42389 0.0
C1847 C 0.54995 0.82928 0.44301 0.0
C1848 C 0.51916 0.8081 0.42168 0.0
C1849 C 0.51839 0.79726 0.43863 0.0
C1850 C 0.53315 0.80268 0.45778 0.0
C1851 C 0.54867 0.81845 0.45995 0.0
C1852 C 0.50306 0.7802 0.43644 0.0
C1853 C 0.52891 0.76733 0.44316 0.0
C1854 C 0.46374 0.77652 0.42747 0.0
C1855 C 0.43357 0.78942 0.42139 0.0
C1856 C 0.42041 0.80103 0.43577 0.0
C1857 C 0.39221 0.81323 0.42991 0.0
C1858 C 0.37669 0.81388 0.40974 0.0
C1859 C 0.38926 0.8023 0.3954 0.0
C1860 C 0.4175 0.79008 0.40118 0.0
C1861 C 0.44637 0.70301 0.43992 0.0
C1862 C 0.43442 0.69842 0.41986 0.0
C1863 C 0.46087 0.71884 0.44376 0.0
C1864 C 0.46394 0.73032 0.42759 0.0
C1865 C 0.45274 0.72563 0.40759 0.0
C1866 C 0.43842 0.70992 0.40376 0.0
C1867 C 0.47817 0.74733 0.43124 0.0
C1868 C 0.45207 0.76019 0.42482 0.0
C1869 C 0.51713 0.75098 0.44059 0.0
C1870 C 0.54698 0.73805 0.44701 0.0
C1871 C 0.5613 0.72657 0.43273 0.0
C1872 C 0.58948 0.71445 0.4389 0.0
C1873 C 0.60392 0.71378 0.45926 0.0
C1874 C 0.59013 0.72521 0.47351 0.0
C1875 C 0.56183 0.73733 0.46744 0.0
H1876 H 0.62579 0.7044 0.46399 0.0
H1877 H 0.35485 0.82334 0.40523 0.0
H1878 H 0.02966 0.33337 0.4057 0.0
H1879 H 0.00352 0.30561 0.40045 0.0
H1880 H 0.00898 0.2968 0.46613 0.0
H1881 H 0.03564 0.32426 0.47126 0.0
H1882 H 0.04297 0.27238 0.44748 0.0
H1883 H 0.9146 0.30194 0.43891 0.0
H1884 H 0.86777 0.32286 0.4241 0.0
H1885 H 0.88226 0.30221 0.36396 0.0
H1886 H 0.92966 0.28128 0.37837 0.0
H1887 H 0.93085 0.19684 0.44782 0.0
H1888 H 0.95292 0.22498 0.45361 0.0
H1889 H 0.95587 0.23348 0.3879 0.0
H1890 H 0.93433 0.20551 0.38204 0.0
H1891 H 0.91667 0.25798 0.40688 0.0
H1892 H 0.04585 0.22856 0.41591 0.0
H1893 H 0.09178 0.20752 0.43116 0.0
H1894 H 0.07445 0.22799 0.49121 0.0
H1895 H 0.02792 0.24903 0.47634 0.0
C1896 C 0.02457 0.32556 0.41898 0.0
C1897 C 0.03496 0.33094 0.43886 0.0
C1898 C 0.00968 0.30968 0.41601 0.0
C1899 C 0.00419 0.29901 0.43291 0.0
C1900 C 0.01327 0.30465 0.4528 0.0
C1901 C 0.02847 0.32039 0.45573 0.0
C1902 C 0.99062 0.2818 0.42999 0.0
C1903 C 0.01498 0.26929 0.43883 0.0
C1904 C 0.95461 0.27761 0.41838 0.0
C1905 C 0.926 0.29014 0.40969 0.0
C1906 C 0.90805 0.30193 0.4225 0.0
C1907 C 0.88136 0.31378 0.41418 0.0
C1908 C 0.87213 0.31389 0.3931 0.0
C1909 C 0.88949 0.30212 0.38029 0.0
C1910 C 0.91623 0.29025 0.38853 0.0
C1911 C 0.93667 0.20463 0.43461 0.0
C1912 C 0.93047 0.19886 0.41446 0.0
C1913 C 0.94918 0.22076 0.43793 0.0
C1914 C 0.95609 0.2314 0.42117 0.0
C1915 C 0.95039 0.22559 0.40109 0.0
C1916 C 0.93794 0.20954 0.39777 0.0
C1917 C 0.96898 0.24863 0.42439 0.0
C1918 C 0.94455 0.26112 0.41558 0.0
C1919 C 0.00482 0.25281 0.4361 0.0
C1920 C 0.03307 0.24026 0.44504 0.0
C1921 C 0.05159 0.2285 0.43239 0.0
C1922 C 0.07777 0.21659 0.44096 0.0
C1923 C 0.08593 0.21639 0.46215 0.0
C1924 C 0.06804 0.22814 0.4748 0.0
C1925 C 0.04179 0.24007 0.46631 0.0
H1926 H 0.10619 0.20716 0.46876 0.0
H1927 H 0.85146 0.32307 0.38668 0.0
H1928 H 0.99471 0.83844 0.87994 0.0
H1929 H 0.02935 0.81191 0.88035 0.0
H1930 H 0.90923 0.78818 0.88413 0.0
H1931 H 0.87453 0.81464 0.88426 0.0
H1932 H 0.9656 0.77416 0.91009 0.0
H1933 H 0.95995 0.79049 0.8388 0.0
H1934 H 0.9716 0.80881 0.80908 0.0
H1935 H 0.10422 0.80701 0.81988 0.0
H1936 H 0.09329 0.78884 0.84987 0.0
H1937 H 0.02274 0.69472 0.87884 0.0
H1938 H 0.99141 0.7217 0.8812 0.0
H1939 H 0.11384 0.74353 0.87733 0.0
H1940 H 0.14552 0.71659 0.87521 0.0
H1941 H 0.05821 0.75882 0.85219 0.0
H1942 H 0.06355 0.7415 0.92294 0.0
H1943 H 0.05122 0.72279 0.95222 0.0
H1944 H 0.91857 0.72617 0.94217 0.0
H1945 H 0.93013 0.74472 0.91262 0.0
C1946 C 0.97571 0.82759 0.88109 0.0
C1947 C 0.93182 0.82867 0.88193 0.0
C1948 C 0.99552 0.81243 0.88116 0.0
C1949 C 0.97183 0.79806 0.88204 0.0
C1950 C 0.92812 0.79911 0.88337 0.0
C1951 C 0.9083 0.81424 0.88324 0.0
C1952 C 0.99246 0.78191 0.88122 0.0
C1953 C 0.98551 0.77074 0.89733 0.0
C1954 C 0.01909 0.77757 0.86477 0.0
C1955 C 0.02576 0.78845 0.84671 0.0
C1956 C 0.99157 0.79411 0.83494 0.0
C1957 C 0.99804 0.80445 0.81803 0.0
C1958 C 0.03861 0.80911 0.81263 0.0
C1959 C 0.0728 0.80341 0.8241 0.0
C1960 C 0.06649 0.79308 0.84105 0.0
C1961 C 0.04312 0.70522 0.87874 0.0
C1962 C 0.08674 0.70343 0.8769 0.0
C1963 C 0.02511 0.72066 0.88004 0.0
C1964 C 0.05032 0.73463 0.87964 0.0
C1965 C 0.09379 0.73291 0.87764 0.0
C1966 C 0.11183 0.71748 0.87635 0.0
C1967 C 0.03129 0.75104 0.88104 0.0
C1968 C 0.03849 0.76226 0.86501 0.0
C1969 C 0.00482 0.7554 0.89754 0.0
C1970 C 0.99774 0.74438 0.91544 0.0
C1971 C 0.03176 0.73816 0.92688 0.0
C1972 C 0.02491 0.7276 0.94353 0.0
C1973 C 0.98415 0.72326 0.94901 0.0
C1974 C 0.95014 0.72952 0.93789 0.0
C1975 C 0.95682 0.74007 0.9212 0.0
H1976 H 0.97891 0.71507 0.96191 0.0
H1977 H 0.04357 0.81711 0.79952 0.0
H1978 H 0.51608 0.19327 0.87531 0.0
H1979 H 0.48174 0.21984 0.87635 0.0
H1980 H 0.60209 0.24322 0.88145 0.0
H1981 H 0.63652 0.2167 0.88092 0.0
H1982 H 0.54533 0.25647 0.90761 0.0
H1983 H 0.55152 0.24251 0.83578 0.0
H1984 H 0.53981 0.22514 0.80551 0.0
H1985 H 0.40719 0.22673 0.81571 0.0
H1986 H 0.41816 0.24395 0.84623 0.0
H1987 H 0.4864 0.33702 0.87917 0.0
H1988 H 0.51866 0.31012 0.88066 0.0
H1989 H 0.39705 0.28785 0.87508 0.0
H1990 H 0.36445 0.31465 0.8739 0.0
H1991 H 0.45328 0.27383 0.84963 0.0
H1992 H 0.44613 0.28794 0.92089 0.0
H1993 H 0.45682 0.30539 0.95117 0.0
H1994 H 0.58982 0.30347 0.94236 0.0
H1995 H 0.5799 0.28616 0.91181 0.0
C1996 C 0.53521 0.20404 0.87688 0.0
C1997 C 0.57909 0.20285 0.8779 0.0
C1998 C 0.51556 0.21923 0.87731 0.0
C1999 C 0.53939 0.23353 0.87874 0.0
C2000 C 0.58309 0.23236 0.88026 0.0
C2001 C 0.60275 0.21719 0.87976 0.0
C2002 C 0.51889 0.24974 0.87828 0.0
C2003 C 0.5256 0.26034 0.89483 0.0
C2004 C 0.49238 0.25466 0.86182 0.0
C2005 C 0.4857 0.24438 0.84342 0.0
C2006 C 0.51988 0.23905 0.83167 0.0
C2007 C 0.51337 0.22925 0.81445 0.0
C2008 C 0.47279 0.22479 0.80872 0.0
C2009 C 0.43861 0.23017 0.82018 0.0
C2010 C 0.44495 0.23996 0.83743 0.0
C2011 C 0.46639 0.32644 0.87851 0.0
C2012 C 0.42272 0.32809 0.87644 0.0
C2013 C 0.48493 0.31104 0.8793 0.0
C2014 C 0.46023 0.29696 0.87811 0.0
C2015 C 0.41673 0.29854 0.87594 0.0
C2016 C 0.39816 0.31392 0.8752 0.0
C2017 C 0.47977 0.28058 0.87893 0.0
C2018 C 0.47293 0.26995 0.86245 0.0
C2019 C 0.50604 0.27562 0.89547 0.0
C2020 C 0.51224 0.28588 0.91394 0.0
C2021 C 0.47765 0.29133 0.92531 0.0
C2022 C 0.48356 0.30117 0.94253 0.0
C2023 C 0.52396 0.30556 0.94864 0.0
C2024 C 0.55855 0.30007 0.93758 0.0
C2025 C 0.5528 0.29022 0.92032 0.0
H2026 H 0.52841 0.3132 0.96196 0.0
H2027 H 0.46782 0.21721 0.79538 0.0
H2028 H 0.36266 0.21965 0.59334 0.0
H2029 H 0.39679 0.24622 0.59356 0.0
H2030 H 0.50067 0.22582 0.6277 0.0
H2031 H 0.46626 0.19916 0.62775 0.0
H2032 H 0.47302 0.25468 0.64413 0.0
H2033 H 0.5118 0.23478 0.57768 0.0
H2034 H 0.49957 0.22307 0.54331 0.0
H2035 H 0.42303 0.26403 0.52647 0.0
H2036 H 0.4343 0.27588 0.56087 0.0
H2037 H 0.61427 0.32015 0.63306 0.0
H2038 H 0.57959 0.29384 0.63202 0.0
H2039 H 0.48009 0.31453 0.59509 0.0
H2040 H 0.51555 0.34097 0.5955 0.0
H2041 H 0.50447 0.28563 0.58001 0.0
H2042 H 0.46572 0.30569 0.64617 0.0
H2043 H 0.47702 0.31741 0.68062 0.0
H2044 H 0.55215 0.27623 0.69816 0.0
H2045 H 0.54182 0.26437 0.66369 0.0
C2046 C 0.39273 0.2208 0.60093 0.0
C2047 C 0.4117 0.20727 0.61056 0.0
C2048 C 0.41236 0.23599 0.60091 0.0
C2049 C 0.45143 0.23801 0.61054 0.0
C2050 C 0.47056 0.22453 0.62014 0.0
C2051 C 0.45105 0.20928 0.62002 0.0
C2052 C 0.47171 0.2543 0.61095 0.0
C2053 C 0.48048 0.26135 0.63011 0.0
C2054 C 0.48029 0.26321 0.59266 0.0
C2055 C 0.47356 0.25614 0.57193 0.0
C2056 C 0.49207 0.24123 0.56671 0.0
C2057 C 0.48536 0.23458 0.54721 0.0
C2058 C 0.46045 0.24278 0.53273 0.0
C2059 C 0.44227 0.25768 0.53771 0.0
C2060 C 0.44884 0.26438 0.5572 0.0
C2061 C 0.58518 0.31916 0.62456 0.0
C2062 C 0.56785 0.33274 0.61429 0.0
C2063 C 0.56511 0.30408 0.62418 0.0
C2064 C 0.52695 0.30219 0.61367 0.0
C2065 C 0.50945 0.31569 0.60336 0.0
C2066 C 0.52958 0.33084 0.60375 0.0
C2067 C 0.50593 0.28602 0.61322 0.0
C2068 C 0.49698 0.27898 0.59404 0.0
C2069 C 0.49706 0.27713 0.63151 0.0
C2070 C 0.50331 0.28422 0.65227 0.0
C2071 C 0.48494 0.2992 0.65731 0.0
C2072 C 0.49112 0.30585 0.67685 0.0
C2073 C 0.51538 0.29759 0.69155 0.0
C2074 C 0.53342 0.28263 0.68675 0.0
C2075 C 0.52738 0.27593 0.66722 0.0
H2076 H 0.52011 0.30276 0.70667 0.0
H2077 H 0.4553 0.23761 0.51764 0.0
H2078 H 0.87459 0.71992 0.64398 0.0
H2079 H 0.9074 0.74651 0.64118 0.0
H2080 H 0.99751 0.72742 0.59852 0.0
H2081 H 0.96413 0.70077 0.60059 0.0
H2082 H 0.03314 0.74669 0.62987 0.0
H2083 H 0.92138 0.74992 0.58008 0.0
H2084 H 0.8483 0.74773 0.56807 0.0
H2085 H 0.81064 0.78351 0.61207 0.0
H2086 H 0.88345 0.78574 0.62457 0.0
H2087 H 0.1204 0.82077 0.59606 0.0
H2088 H 0.08527 0.79444 0.59709 0.0
H2089 H 0.98495 0.81523 0.63252 0.0
H2090 H 0.0199 0.84177 0.63123 0.0
H2091 H 0.9539 0.79496 0.605 0.0
H2092 H 0.06303 0.79187 0.65544 0.0
H2093 H 0.13502 0.79406 0.66899 0.0
H2094 H 0.1764 0.7581 0.62604 0.0
H2095 H 0.10473 0.75586 0.61203 0.0
C2096 C 0.90102 0.72127 0.63376 0.0
C2097 C 0.91625 0.708 0.62239 0.0
C2098 C 0.91989 0.73656 0.63227 0.0
C2099 C 0.95466 0.739 0.6195 0.0
C2100 C 0.97066 0.7258 0.60847 0.0
C2101 C 0.95153 0.7105 0.60977 0.0
C2102 C 0.97433 0.75534 0.61778 0.0
C2103 C 0.01605 0.7572 0.62414 0.0
C2104 C 0.95158 0.76915 0.61094 0.0
C2105 C 0.90781 0.76787 0.6034 0.0
C2106 C 0.89746 0.75722 0.58733 0.0
C2107 C 0.85609 0.75599 0.5804 0.0
C2108 C 0.82482 0.76544 0.58934 0.0
C2109 C 0.83488 0.77618 0.60518 0.0
C2110 C 0.8762 0.77744 0.61218 0.0
C2111 C 0.09088 0.81974 0.6041 0.0
C2112 C 0.07316 0.83333 0.61374 0.0
C2113 C 0.07082 0.80466 0.6047 0.0
C2114 C 0.03284 0.80271 0.61527 0.0
C2115 C 0.01431 0.81638 0.62434 0.0
C2116 C 0.03424 0.83156 0.62356 0.0
C2117 C 0.01293 0.78636 0.61701 0.0
C2118 C 0.97111 0.78447 0.61071 0.0
C2119 C 0.03545 0.77254 0.62414 0.0
C2120 C 0.07858 0.77382 0.63255 0.0
C2121 C 0.08754 0.78452 0.64878 0.0
C2122 C 0.12828 0.78576 0.65656 0.0
C2123 C 0.16028 0.77626 0.64835 0.0
C2124 C 0.15159 0.76547 0.63237 0.0
C2125 C 0.11091 0.7642 0.62451 0.0
H2126 H 0.1918 0.77723 0.6544 0.0
H2127 H 0.79282 0.76448 0.58395 0.0
H2128 H 0.96758 0.12074 0.15849 0.0
H2129 H 0.94696 0.12029 0.19475 0.0
H2130 H 0.06328 0.09671 0.21098 0.0
H2131 H 0.08297 0.09625 0.17471 0.0
H2132 H 0.00469 0.08522 0.2345 0.0
H2133 H 0.04907 0.13879 0.2147 0.0
H2134 H 0.04891 0.16402 0.19389 0.0
H2135 H 0.92101 0.17282 0.21052 0.0
H2136 H 0.92023 0.1475 0.23121 0.0
H2137 H 0.01412 0.11017 0.34027 0.0
H2138 H 0.02947 0.10704 0.30341 0.0
H2139 H 0.90521 0.12382 0.28805 0.0
H2140 H 0.88981 0.12702 0.32469 0.0
H2141 H 0.96701 0.13853 0.26438 0.0
H2142 H 0.92575 0.08457 0.28561 0.0
H2143 H 0.92962 0.05973 0.30711 0.0
H2144 H 0.05704 0.05238 0.2886 0.0
H2145 H 0.05411 0.07731 0.2672 0.0
C2146 C 0.9883 0.11508 0.16968 0.0
C2147 C 0.02728 0.10878 0.16366 0.0
C2148 C 0.97671 0.11502 0.19049 0.0
C2149 C 0.00409 0.10889 0.20572 0.0
C2150 C 0.04179 0.10168 0.19959 0.0
C2151 C 0.05319 0.10158 0.17882 0.0
C2152 C 0.99462 0.11067 0.22806 0.0
C2153 C 0.99685 0.09692 0.24103 0.0
C2154 C 0.98403 0.1259 0.23668 0.0
C2155 C 0.98446 0.14116 0.22432 0.0
C2156 C 0.02082 0.14604 0.2138 0.0
C2157 C 0.02091 0.16037 0.20204 0.0
C2158 C 0.98494 0.16999 0.20084 0.0
C2159 C 0.94883 0.16533 0.21143 0.0
C2160 C 0.94854 0.151 0.22319 0.0
C2161 C 0.9902 0.11322 0.329 0.0
C2162 C 0.95066 0.11869 0.33536 0.0
C2163 C 0.99888 0.11135 0.30799 0.0
C2164 C 0.96831 0.11507 0.29301 0.0
C2165 C 0.92916 0.12082 0.29934 0.0
C2166 C 0.92034 0.12253 0.32028 0.0
C2167 C 0.977 0.1131 0.27069 0.0
C2168 C 0.97472 0.12684 0.25777 0.0
C2169 C 0.98811 0.09793 0.26221 0.0
C2170 C 0.98984 0.08289 0.27497 0.0
C2171 C 0.9547 0.07773 0.28626 0.0
C2172 C 0.95671 0.06362 0.2984 0.0
C2173 C 0.99359 0.05451 0.29926 0.0
C2174 C 0.02851 0.05946 0.28794 0.0
C2175 C 0.02669 0.07357 0.27579 0.0
H2176 H 0.99508 0.04359 0.30867 0.0
H2177 H 0.98507 0.18108 0.19173 0.0
H2178 H 0.55091 0.88159 0.16123 0.0
H2179 H 0.57873 0.87985 0.19656 0.0
H2180 H 0.48372 0.91325 0.21684 0.0
H2181 H 0.4556 0.9149 0.18165 0.0
H2182 H 0.56621 0.91924 0.23335 0.0
H2183 H 0.46679 0.87508 0.22396 0.0
H2184 H 0.44003 0.85069 0.20644 0.0
H2185 H 0.55562 0.82579 0.21904 0.0
H2186 H 0.58329 0.85015 0.23638 0.0
H2187 H 0.53806 0.90966 0.339 0.0
H2188 H 0.53286 0.91125 0.30173 0.0
H2189 H 0.61332 0.8694 0.29648 0.0
H2190 H 0.61667 0.8671 0.33422 0.0
H2191 H 0.55091 0.86664 0.27063 0.0
H2192 H 0.64777 0.90878 0.28415 0.0
H2193 H 0.67696 0.93292 0.30125 0.0
H2194 H 0.57229 0.96144 0.28031 0.0
H2195 H 0.54212 0.93742 0.26333 0.0
C2196 C 0.53643 0.88875 0.17319 0.0
C2197 C 0.50102 0.89834 0.16875 0.0
C2198 C 0.55221 0.88769 0.19334 0.0
C2199 C 0.53312 0.89635 0.20932 0.0
C2200 C 0.4989 0.90647 0.20473 0.0
C2201 C 0.48275 0.90735 0.18467 0.0
C2202 C 0.54713 0.89427 0.23104 0.0
C2203 C 0.56277 0.90778 0.24158 0.0
C2204 C 0.54405 0.87915 0.24149 0.0
C2205 C 0.52728 0.86449 0.23123 0.0
C2206 C 0.48663 0.86445 0.22283 0.0
C2207 C 0.47127 0.85063 0.21297 0.0
C2208 C 0.49616 0.83672 0.21157 0.0
C2209 C 0.53641 0.83659 0.2201 0.0
C2210 C 0.55194 0.8504 0.22995 0.0
C2211 C 0.55437 0.90063 0.33003 0.0
C2212 C 0.5774 0.88811 0.33975 0.0
C2213 C 0.55194 0.90175 0.3086 0.0
C2214 C 0.5733 0.89064 0.29617 0.0
C2215 C 0.59675 0.87819 0.30572 0.0
C2216 C 0.5989 0.87696 0.32731 0.0
C2217 C 0.56915 0.89177 0.27328 0.0
C2218 C 0.55526 0.87807 0.26244 0.0
C2219 C 0.57442 0.90669 0.26248 0.0
C2220 C 0.59256 0.92125 0.27255 0.0
C2221 C 0.63083 0.92017 0.2833 0.0
C2222 C 0.64757 0.93384 0.29296 0.0
C2223 C 0.62646 0.9487 0.2919 0.0
C2224 C 0.58861 0.94993 0.28112 0.0
C2225 C 0.5717 0.93629 0.27145 0.0
H2226 H 0.63947 0.95927 0.2994 0.0
H2227 H 0.48422 0.82602 0.20393 0.0
H2228 H 0.99801 0.90249 0.84408 0.0
H2229 H 0.02382 0.9027 0.80888 0.0
H2230 H 0.8976 0.89776 0.78591 0.0
H2231 H 0.87128 0.89729 0.82154 0.0
H2232 H 0.95125 0.87676 0.76726 0.0
H2233 H 0.94951 0.93373 0.78106 0.0
H2234 H 0.96408 0.95855 0.80086 0.0
H2235 H 0.09616 0.94992 0.79579 0.0
H2236 H 0.08238 0.92491 0.77621 0.0
H2237 H 0.00308 0.89261 0.66321 0.0
H2238 H 0.97488 0.89327 0.69795 0.0
H2239 H 0.09948 0.899 0.72273 0.0
H2240 H 0.12816 0.89865 0.68759 0.0
H2241 H 0.04518 0.9199 0.74019 0.0
H2242 H 0.04709 0.86274 0.72697 0.0
H2243 H 0.03281 0.83788 0.7072 0.0
H2244 H 0.9007 0.84676 0.71128 0.0
H2245 H 0.9142 0.87182 0.73082 0.0
C2246 C 0.97552 0.90159 0.83159 0.0
C2247 C 0.9325 0.89991 0.83562 0.0
C2248 C 0.99041 0.90179 0.81142 0.0
C2249 C 0.96269 0.90043 0.7947 0.0
C2250 C 0.91956 0.89889 0.79859 0.0
C2251 C 0.90453 0.89871 0.81891 0.0
C2252 C 0.97941 0.9 0.77333 0.0
C2253 C 0.97116 0.88633 0.76119 0.0
C2254 C 0.00647 0.91226 0.76564 0.0
C2255 C 0.01489 0.92737 0.77729 0.0
C2256 C 0.98166 0.93706 0.78429 0.0
C2257 C 0.98978 0.95118 0.79545 0.0
C2258 C 0.03101 0.9558 0.79962 0.0
C2259 C 0.06423 0.94633 0.79257 0.0
C2260 C 0.05628 0.93219 0.78141 0.0
C2261 C 0.02469 0.8939 0.67601 0.0
C2262 C 0.06797 0.89553 0.67262 0.0
C2263 C 0.00843 0.89421 0.69592 0.0
C2264 C 0.03503 0.89598 0.71302 0.0
C2265 C 0.07836 0.89757 0.70976 0.0
C2266 C 0.09474 0.89729 0.68971 0.0
C2267 C 0.01713 0.89663 0.73414 0.0
C2268 C 0.02518 0.91035 0.74624 0.0
C2269 C 0.98992 0.8844 0.7418 0.0
C2270 C 0.98169 0.86924 0.73021 0.0
C2271 C 0.015 0.85946 0.72353 0.0
C2272 C 0.00704 0.84532 0.71238 0.0
C2273 C 0.96588 0.84076 0.70794 0.0
C2274 C 0.93257 0.85032 0.71471 0.0
C2275 C 0.94036 0.86448 0.72584 0.0
H2276 H 0.95978 0.82982 0.6993 0.0
H2277 H 0.03723 0.96673 0.80827 0.0
H2278 H 0.5119 0.1255 0.8386 0.0
H2279 H 0.48185 0.12667 0.80408 0.0
H2280 H 0.60105 0.14175 0.77952 0.0
H2281 H 0.63163 0.14067 0.81449 0.0
H2282 H 0.5356 0.16113 0.76584 0.0
H2283 H 0.56465 0.10418 0.76985 0.0
H2284 H 0.5641 0.07675 0.78545 0.0
H2285 H 0.42974 0.07653 0.78421 0.0
H2286 H 0.42945 0.10408 0.76887 0.0
H2287 H 0.48217 0.15268 0.6609 0.0
H2288 H 0.51224 0.15096 0.69531 0.0
H2289 H 0.39422 0.13392 0.71923 0.0
H2290 H 0.3637 0.13539 0.68428 0.0
H2291 H 0.45895 0.11552 0.73335 0.0
H2292 H 0.42936 0.17232 0.72956 0.0
H2293 H 0.42923 0.19986 0.71426 0.0
H2294 H 0.56358 0.20057 0.71551 0.0
H2295 H 0.56456 0.17293 0.73054 0.0
C2296 C 0.53202 0.12888 0.82585 0.0
C2297 C 0.57422 0.13299 0.82928 0.0
C2298 C 0.51473 0.12949 0.80607 0.0
C2299 C 0.53916 0.1342 0.78914 0.0
C2300 C 0.58162 0.13804 0.79237 0.0
C2301 C 0.59915 0.13731 0.81229 0.0
C2302 C 0.51935 0.13582 0.76837 0.0
C2303 C 0.5195 0.15109 0.75855 0.0
C2304 C 0.49699 0.12286 0.7592 0.0
C2305 C 0.49704 0.10626 0.76836 0.0
C2306 C 0.53498 0.09834 0.77305 0.0
C2307 C 0.53482 0.08276 0.78182 0.0
C2308 C 0.49691 0.07492 0.78586 0.0
C2309 C 0.45908 0.08263 0.78109 0.0
C2310 C 0.45906 0.09822 0.77233 0.0
C2311 C 0.46228 0.1487 0.67345 0.0
C2312 C 0.42043 0.14418 0.66982 0.0
C2313 C 0.47959 0.1478 0.69321 0.0
C2314 C 0.4555 0.14246 0.70997 0.0
C2315 C 0.41342 0.13812 0.70653 0.0
C2316 C 0.39591 0.13906 0.68661 0.0
C2317 C 0.47526 0.14083 0.73077 0.0
C2318 C 0.47507 0.12557 0.74062 0.0
C2319 C 0.49747 0.15381 0.74 0.0
C2320 C 0.49702 0.17048 0.73102 0.0
C2321 C 0.45889 0.17829 0.72642 0.0
C2322 C 0.45866 0.19393 0.71782 0.0
C2323 C 0.49637 0.20195 0.71387 0.0
C2324 C 0.53439 0.19435 0.71856 0.0
C2325 C 0.5348 0.17869 0.72714 0.0
H2326 H 0.49613 0.21406 0.70721 0.0
H2327 H 0.49685 0.06285 0.79265 0.0
H2328 H 0.52312 0.62495 0.34262 0.0
H2329 H 0.54235 0.6226 0.30619 0.0
H2330 H 0.42966 0.59527 0.29455 0.0
H2331 H 0.41041 0.59752 0.33094 0.0
H2332 H 0.49996 0.58361 0.27275 0.0
H2333 H 0.42741 0.63399 0.2851 0.0
H2334 H 0.41553 0.65999 0.30275 0.0
H2335 H 0.53698 0.67672 0.28403 0.0
H2336 H 0.54984 0.65068 0.26654 0.0
H2337 H 0.49179 0.59611 0.16356 0.0
H2338 H 0.47423 0.5945 0.20025 0.0
H2339 H 0.57262 0.6287 0.21397 0.0
H2340 H 0.58858 0.63111 0.17748 0.0
H2341 H 0.5077 0.63623 0.23498 0.0
H2342 H 0.58178 0.58637 0.22285 0.0
H2343 H 0.59589 0.56027 0.20582 0.0
H2344 H 0.47529 0.54248 0.22431 0.0
H2345 H 0.46025 0.56857 0.24123 0.0
C2346 C 0.50301 0.61811 0.33239 0.0
C2347 C 0.46512 0.61154 0.33955 0.0
C2348 C 0.51386 0.61686 0.31158 0.0
C2349 C 0.48711 0.60895 0.29764 0.0
C2350 C 0.45064 0.60147 0.30503 0.0
C2351 C 0.43961 0.60284 0.32578 0.0
C2352 C 0.49535 0.60961 0.27515 0.0
C2353 C 0.50131 0.59508 0.2644 0.0
C2354 C 0.49761 0.62461 0.26437 0.0
C2355 C 0.48975 0.64033 0.27469 0.0
C2356 C 0.45171 0.64316 0.28489 0.0
C2357 C 0.44478 0.65791 0.29484 0.0
C2358 C 0.47552 0.66998 0.29455 0.0
C2359 C 0.51322 0.66734 0.28426 0.0
C2360 C 0.52034 0.6526 0.27432 0.0
C2361 C 0.50939 0.60341 0.17436 0.0
C2362 C 0.54194 0.61361 0.16749 0.0
C2363 C 0.49965 0.60233 0.19539 0.0
C2364 C 0.52258 0.61127 0.20999 0.0
C2365 C 0.5546 0.6216 0.2031 0.0
C2366 C 0.56403 0.62281 0.18216 0.0
C2367 C 0.5131 0.6102 0.23243 0.0
C2368 C 0.50658 0.62471 0.24322 0.0
C2369 C 0.51071 0.59518 0.24323 0.0
C2370 C 0.51972 0.57948 0.23311 0.0
C2371 C 0.55815 0.57694 0.22315 0.0
C2372 C 0.56633 0.56214 0.21354 0.0
C2373 C 0.53646 0.54974 0.21393 0.0
C2374 C 0.49838 0.5521 0.22399 0.0
C2375 C 0.49001 0.56689 0.2336 0.0
H2376 H 0.54286 0.53829 0.20648 0.0
H2377 H 0.4701 0.6814 0.30227 0.0
H2378 H 0.08539 0.36292 0.33465 0.0
H2379 H 0.07984 0.36346 0.29679 0.0
H2380 H 0.04836 0.4144 0.29843 0.0
H2381 H 0.05372 0.41391 0.33604 0.0
H2382 H 0.0088 0.37129 0.27366 0.0
H2383 H 0.09021 0.43286 0.25561 0.0
H2384 H 0.14878 0.44931 0.26888 0.0
H2385 H 0.20754 0.4063 0.29335 0.0
H2386 H 0.14967 0.38956 0.27997 0.0
H2387 H 0.93464 0.40717 0.18193 0.0
H2388 H 0.96055 0.40416 0.21721 0.0
H2389 H 0.07942 0.3875 0.19442 0.0
H2390 H 0.05331 0.38995 0.15892 0.0
H2391 H 0.08531 0.40985 0.22814 0.0
H2392 H 0.01762 0.3599 0.21046 0.0
H2393 H 0.96012 0.34307 0.19685 0.0
H2394 H 0.8779 0.36122 0.24352 0.0
H2395 H 0.93475 0.37836 0.25721 0.0
C2396 C 0.07781 0.37424 0.32686 0.0
C2397 C 0.06977 0.38835 0.33826 0.0
C2398 C 0.07448 0.37453 0.30529 0.0
C2399 C 0.06393 0.38899 0.29479 0.0
C2400 C 0.05695 0.40315 0.30617 0.0
C2401 C 0.05973 0.40282 0.32766 0.0
C2402 C 0.05769 0.38925 0.27208 0.0
C2403 C 0.02578 0.37962 0.26369 0.0
C2404 C 0.08013 0.40002 0.25903 0.0
C2405 C 0.11538 0.40997 0.26691 0.0
C2406 C 0.11572 0.4269 0.26373 0.0
C2407 C 0.14879 0.43628 0.27129 0.0
C2408 C 0.1818 0.42886 0.282 0.0
C2409 C 0.18187 0.41204 0.28511 0.0
C2410 C 0.14891 0.4026 0.27757 0.0
C2411 C 0.96628 0.40282 0.18433 0.0
C2412 C 0.99162 0.39856 0.16751 0.0
C2413 C 0.9811 0.4012 0.20454 0.0
C2414 C 0.02168 0.3954 0.20842 0.0
C2415 C 0.04796 0.39197 0.19173 0.0
C2416 C 0.03301 0.39346 0.17144 0.0
C2417 C 0.03561 0.39226 0.22995 0.0
C2418 C 0.06876 0.40138 0.2381 0.0
C2419 C 0.01452 0.38095 0.24279 0.0
C2420 C 0.98038 0.37051 0.23476 0.0
C2421 C 0.9872 0.36039 0.21773 0.0
C2422 C 0.95473 0.35078 0.21002 0.0
C2423 C 0.91536 0.3511 0.2193 0.0
C2424 C 0.90841 0.36099 0.23634 0.0
C2425 C 0.94075 0.37065 0.2441 0.0
H2426 H 0.89026 0.34365 0.2133 0.0
H2427 H 0.20735 0.43615 0.28785 0.0
H2428 H 0.36238 0.39631 0.81706 0.0
H2429 H 0.3871 0.39737 0.78117 0.0
H2430 H 0.51216 0.40769 0.80271 0.0
H2431 H 0.48782 0.40682 0.8382 0.0
H2432 H 0.49429 0.42561 0.76915 0.0
H2433 H 0.48336 0.36941 0.79015 0.0
H2434 H 0.44677 0.34511 0.80338 0.0
H2435 H 0.36076 0.34741 0.75236 0.0
H2436 H 0.39647 0.3719 0.73899 0.0
H2437 H 0.61652 0.40271 0.68234 0.0
H2438 H 0.58663 0.40383 0.71715 0.0
H2439 H 0.46436 0.39328 0.69218 0.0
H2440 H 0.49385 0.39197 0.65765 0.0
H2441 H 0.47799 0.37608 0.72681 0.0
H2442 H 0.49147 0.43179 0.705 0.0
H2443 H 0.52912 0.45587 0.69184 0.0
H2444 H 0.61131 0.45432 0.74441 0.0
H2445 H 0.57453 0.43007 0.75773 0.0
C2446 C 0.39494 0.39906 0.81405 0.0
C2447 C 0.42319 0.40137 0.83043 0.0
C2448 C 0.40911 0.39956 0.79358 0.0
C2449 C 0.45165 0.40241 0.78926 0.0
C2450 C 0.47928 0.40545 0.80561 0.0
C2451 C 0.46528 0.40488 0.82594 0.0
C2452 C 0.46834 0.40147 0.76792 0.0
C2453 C 0.49094 0.41474 0.75994 0.0
C2454 C 0.46359 0.38737 0.75577 0.0
C2455 C 0.44227 0.3726 0.76371 0.0
C2456 C 0.45643 0.36481 0.78184 0.0
C2457 C 0.43589 0.35099 0.78935 0.0
C2458 C 0.40139 0.34474 0.77875 0.0
C2459 C 0.38743 0.35228 0.76058 0.0
C2460 C 0.40781 0.36613 0.75303 0.0
C2461 C 0.58335 0.40053 0.68433 0.0
C2462 C 0.55756 0.39732 0.66724 0.0
C2463 C 0.56625 0.40125 0.70419 0.0
C2464 C 0.5231 0.39881 0.70725 0.0
C2465 C 0.49765 0.39522 0.69023 0.0
C2466 C 0.51462 0.39453 0.67046 0.0
C2467 C 0.50409 0.40019 0.72806 0.0
C2468 C 0.48111 0.38699 0.73595 0.0
C2469 C 0.50859 0.41434 0.74014 0.0
C2470 C 0.53049 0.42902 0.73226 0.0
C2471 C 0.51776 0.43652 0.71368 0.0
C2472 C 0.53892 0.45021 0.7062 0.0
C2473 C 0.57265 0.4566 0.71726 0.0
C2474 C 0.58521 0.44935 0.73585 0.0
C2475 C 0.56421 0.43563 0.74338 0.0
H2476 H 0.589 0.4672 0.71144 0.0
H2477 H 0.38553 0.33404 0.78458 0.0
H2478 H 0.00789 0.63264 0.8407 0.0
H2479 H 0.97812 0.6319 0.80624 0.0
H2480 H 0.10209 0.63037 0.78025 0.0
H2481 H 0.13257 0.63146 0.81519 0.0
H2482 H 0.05317 0.65201 0.76002 0.0
H2483 H 0.03836 0.59646 0.78092 0.0
H2484 H 0.01834 0.5738 0.80397 0.0
H2485 H 0.88959 0.58853 0.80024 0.0
H2486 H 0.90891 0.61144 0.77739 0.0
H2487 H 0.98715 0.63386 0.65957 0.0
H2488 H 0.01725 0.63176 0.69395 0.0
H2489 H 0.89426 0.63582 0.72054 0.0
H2490 H 0.86339 0.63778 0.68568 0.0
H2491 H 0.94313 0.61245 0.74024 0.0
H2492 H 0.95816 0.66823 0.7199 0.0
H2493 H 0.97802 0.69084 0.69673 0.0
H2494 H 0.10648 0.6756 0.69947 0.0
H2495 H 0.08728 0.65273 0.72241 0.0
C2496 C 0.02908 0.63203 0.82773 0.0
C2497 C 0.07275 0.63207 0.83075 0.0
C2498 C 0.01185 0.63151 0.80796 0.0
C2499 C 0.03772 0.63083 0.79059 0.0
C2500 C 0.08145 0.63081 0.79345 0.0
C2501 C 0.09886 0.63136 0.81339 0.0
C2502 C 0.01862 0.6308 0.76956 0.0
C2503 C 0.02969 0.64317 0.75558 0.0
C2504 C 0.98693 0.61959 0.76393 0.0
C2505 C 0.97515 0.60575 0.77756 0.0
C2506 C 0.00582 0.59494 0.78512 0.0
C2507 C 0.99459 0.58204 0.79814 0.0
C2508 C 0.95274 0.57975 0.8036 0.0
C2509 C 0.92201 0.59033 0.79601 0.0
C2510 C 0.93307 0.60326 0.783 0.0
C2511 C 0.96624 0.63428 0.67266 0.0
C2512 C 0.92278 0.63614 0.66985 0.0
C2513 C 0.98365 0.63311 0.69236 0.0
C2514 C 0.9582 0.63393 0.70986 0.0
C2515 C 0.91456 0.63526 0.70722 0.0
C2516 C 0.89694 0.63639 0.68734 0.0
C2517 C 0.97776 0.63364 0.73076 0.0
C2518 C 0.96672 0.62124 0.7447 0.0
C2519 C 0.00948 0.64483 0.73637 0.0
C2520 C 0.02121 0.65868 0.72274 0.0
C2521 C 0.9906 0.66963 0.71545 0.0
C2522 C 1.00174 0.6825 0.70237 0.0
C2523 C 0.04347 0.68463 0.69659 0.0
C2524 C 0.07416 0.67392 0.70394 0.0
C2525 C 0.06317 0.66101 0.71699 0.0
H2526 H 0.05204 0.6946 0.68646 0.0
H2527 H 0.94411 0.56975 0.81368 0.0
loop_
_geom_bond_atom_site_label_1
_geom_bond_atom_site_label_2
_geom_bond_distance
_geom_bond_site_symmetry_2
_ccdc_geom_bond_type
Co0 N4 2.148 . S
Co0 N10 2.128 . S
Co0 N20 2.194 . S
Co0 O25 2.351 . S
Co0 O26 2.155 . S
Co0 O27 2.096 . S
C1 N4 1.301 . S
C1 N5 1.328 . S
C1 H6 0.930 . S
C2 C3 1.333 . S
C2 N4 1.317 . S
C2 H7 0.930 . S
C3 C2 1.333 . S
C3 N5 1.350 . S
C3 H29 0.931 . S
N4 Co0 2.148 . S
N4 C1 1.301 . S
N4 C2 1.317 . S
N5 C1 1.328 . S
N5 C3 1.350 . S
H6 C1 0.930 . S
H7 C2 0.930 . S
C8 O9 1.224 . S
C8 O27 1.247 1_655 S
O9 C8 1.224 . S
N10 Co0 2.128 . S
N10 C11 1.355 . S
N10 C13 1.311 . S
C11 N10 1.355 . S
C11 C12 1.363 . S
C11 H23 0.929 . S
C12 C11 1.363 . S
C12 N14 1.375 . S
C12 H30 0.931 . S
C13 N10 1.311 . S
C13 N14 1.347 . S
C13 H24 0.929 . S
N14 C12 1.375 . S
N14 C13 1.347 . S
C15 C18 1.365 . S
C15 N20 1.328 . S
C15 H21 0.929 . S
C16 C17 1.362 . S
C16 C19 1.378 . S
C16 H31 0.929 1_455 S
C17 C16 1.362 . S
C17 C18 1.366 . S
C18 C15 1.365 . S
C18 C17 1.366 . S
C18 H32 0.930 . S
C19 C16 1.378 . S
C19 N20 1.315 . S
C19 H22 0.930 . S
N20 Co0 2.194 . S
N20 C15 1.328 . S
N20 C19 1.315 . S
H21 C15 0.929 . S
H22 C19 0.930 . S
H23 C11 0.929 . S
H24 C13 0.929 . S
O25 Co0 2.351 . S
O25 C28 1.244 . S
O26 Co0 2.155 . S
O26 C28 1.240 . S
O27 Co0 2.096 . S
O27 C8 1.247 1_455 S
C28 O25 1.244 . S
C28 O26 1.240 . S
H29 C3 0.931 . S
H30 C12 0.931 . S
H31 C16 0.929 1_655 S
H32 C18 0.930 . S
Co33 N37 2.148 . S
Co33 N43 2.128 . S
Co33 N53 2.194 . S
Co33 O58 2.351 . S
Co33 O59 2.155 . S
Co33 O60 2.096 . S
C34 N37 1.301 . S
C34 N38 1.328 . S
C34 H39 0.930 . S
C35 C36 1.333 . S
C35 N37 1.317 . S
C35 H40 0.930 . S
C36 C35 1.333 . S
C36 N38 1.350 . S
C36 H62 0.931 . S
N37 Co33 2.148 . S
N37 C34 1.301 . S
N37 C35 1.317 . S
N38 C34 1.328 . S
N38 C36 1.350 . S
H39 C34 0.930 . S
H40 C35 0.930 . S
C41 O42 1.224 . S
C41 O60 1.247 . S
O42 C41 1.224 . S
N43 Co33 2.128 . S
N43 C44 1.355 . S
N43 C46 1.311 . S
C44 N43 1.355 . S
C44 C45 1.363 . S
C44 H56 0.929 . S
C45 C44 1.363 . S
C45 N47 1.375 . S
C45 H63 0.931 . S
C46 N43 1.311 . S
C46 N47 1.347 . S
C46 H57 0.929 . S
N47 C45 1.375 . S
N47 C46 1.347 . S
C48 C51 1.365 . S
C48 N53 1.328 . S
C48 H54 0.929 . S
C49 C50 1.362 . S
C49 C52 1.378 . S
C49 H64 0.929 . S
C50 C49 1.362 . S
C50 C51 1.366 . S
C51 C48 1.365 . S
C51 C50 1.366 . S
C51 H65 0.930 . S
C52 C49 1.378 . S
C52 N53 1.315 . S
C52 H55 0.930 . S
N53 Co33 2.194 . S
N53 C48 1.328 . S
N53 C52 1.315 . S
H54 C48 0.929 . S
H55 C52 0.930 . S
H56 C44 0.929 . S
H57 C46 0.929 . S
O58 Co33 2.351 . S
O58 C61 1.244 . S
O59 Co33 2.155 . S
O59 C61 1.240 . S
O60 Co33 2.096 . S
O60 C41 1.247 . S
C61 O58 1.244 . S
C61 O59 1.240 . S
H62 C36 0.931 . S
H63 C45 0.931 . S
H64 C49 0.929 . S
H65 C51 0.930 . S
Co66 N70 2.148 . S
Co66 N76 2.128 . S
Co66 N86 2.194 . S
Co66 O91 2.351 . S
Co66 O92 2.155 . S
Co66 O93 2.096 . S
C67 N70 1.301 . S
C67 N71 1.328 . S
C67 H72 0.930 . S
C68 C69 1.333 . S
C68 N70 1.317 . S
C68 H73 0.930 . S
C69 C68 1.333 . S
C69 N71 1.350 . S
C69 H95 0.931 . S
N70 Co66 2.148 . S
N70 C67 1.301 . S
N70 C68 1.317 . S
N71 C67 1.328 . S
N71 C69 1.350 . S
H72 C67 0.930 . S
H73 C68 0.930 . S
C74 O75 1.224 . S
C74 O93 1.247 . S
O75 C74 1.224 . S
N76 Co66 2.128 . S
N76 C77 1.355 . S
N76 C79 1.311 . S
C77 N76 1.355 . S
C77 C78 1.363 . S
C77 H89 0.929 . S
C78 C77 1.363 . S
C78 N80 1.375 . S
C78 H96 0.931 . S
C79 N76 1.311 . S
C79 N80 1.347 . S
C79 H90 0.929 . S
N80 C78 1.375 . S
N80 C79 1.347 . S
C81 C84 1.365 . S
C81 N86 1.328 . S
C81 H87 0.929 . S
C82 C83 1.362 . S
C82 C85 1.378 . S
C82 H97 0.929 . S
C83 C82 1.362 . S
C83 C84 1.366 . S
C84 C81 1.365 . S
C84 C83 1.366 . S
C84 H98 0.930 . S
C85 C82 1.378 . S
C85 N86 1.315 . S
C85 H88 0.930 . S
N86 Co66 2.194 . S
N86 C81 1.328 . S
N86 C85 1.315 . S
H87 C81 0.929 . S
H88 C85 0.930 . S
H89 C77 0.929 . S
H90 C79 0.929 . S
O91 Co66 2.351 . S
O91 C94 1.244 . S
O92 Co66 2.155 . S
O92 C94 1.240 . S
O93 Co66 2.096 . S
O93 C74 1.247 . S
C94 O91 1.244 . S
C94 O92 1.240 . S
H95 C69 0.931 . S
H96 C78 0.931 . S
H97 C82 0.929 . S
H98 C84 0.930 . S
Co99 N103 2.148 . S
Co99 N109 2.128 . S
Co99 N119 2.194 . S
Co99 O124 2.351 . S
Co99 O125 2.155 . S
Co99 O126 2.096 . S
C100 N103 1.301 . S
C100 N104 1.328 . S
C100 H105 0.930 . S
C101 C102 1.333 . S
C101 N103 1.317 . S
C101 H106 0.930 . S
C102 C101 1.333 . S
C102 N104 1.350 . S
C102 H128 0.931 . S
N103 Co99 2.148 . S
N103 C100 1.301 . S
N103 C101 1.317 . S
N104 C100 1.328 . S
N104 C102 1.350 . S
H105 C100 0.930 . S
H106 C101 0.930 . S
C107 O108 1.224 . S
C107 O126 1.247 1_455 S
O108 C107 1.224 . S
N109 Co99 2.128 . S
N109 C110 1.355 . S
N109 C112 1.311 . S
C110 N109 1.355 . S
C110 C111 1.363 . S
C110 H122 0.929 . S
C111 C110 1.363 . S
C111 N113 1.375 . S
C111 H129 0.931 . S
C112 N109 1.311 . S
C112 N113 1.347 . S
C112 H123 0.929 . S
N113 C111 1.375 . S
N113 C112 1.347 . S
C114 C117 1.365 . S
C114 N119 1.328 . S
C114 H120 0.929 . S
C115 C116 1.362 . S
C115 C118 1.378 . S
C115 H130 0.929 1_655 S
C116 C115 1.362 . S
C116 C117 1.366 . S
C117 C114 1.365 . S
C117 C116 1.366 . S
C117 H131 0.930 . S
C118 C115 1.378 . S
C118 N119 1.315 . S
C118 H121 0.930 . S
N119 Co99 2.194 . S
N119 C114 1.328 . S
N119 C118 1.315 . S
H120 C114 0.929 . S
H121 C118 0.930 . S
H122 C110 0.929 . S
H123 C112 0.929 . S
O124 Co99 2.351 . S
O124 C127 1.244 . S
O125 Co99 2.155 . S
O125 C127 1.240 . S
O126 Co99 2.096 . S
O126 C107 1.247 1_655 S
C127 O124 1.244 . S
C127 O125 1.240 . S
H128 C102 0.931 . S
H129 C111 0.931 . S
H130 C115 0.929 1_455 S
H131 C117 0.930 . S
Co132 N136 2.148 . S
Co132 N142 2.128 . S
Co132 N152 2.194 . S
Co132 O157 2.351 . S
Co132 O158 2.155 . S
Co132 O159 2.096 . S
C133 N136 1.301 . S
C133 N137 1.328 . S
C133 H138 0.930 . S
C134 C135 1.333 . S
C134 N136 1.317 . S
C134 H139 0.930 . S
C135 C134 1.333 . S
C135 N137 1.350 . S
C135 H161 0.931 . S
N136 Co132 2.148 . S
N136 C133 1.301 . S
N136 C134 1.317 . S
N137 C133 1.328 . S
N137 C135 1.350 . S
H138 C133 0.930 . S
H139 C134 0.930 . S
C140 O141 1.224 . S
C140 O159 1.247 . S
O141 C140 1.224 . S
N142 Co132 2.128 . S
N142 C143 1.355 . S
N142 C145 1.311 . S
C143 N142 1.355 . S
C143 C144 1.363 . S
C143 H155 0.929 . S
C144 C143 1.363 . S
C144 N146 1.375 . S
C144 H162 0.931 . S
C145 N142 1.311 . S
C145 N146 1.347 . S
C145 H156 0.929 . S
N146 C144 1.375 . S
N146 C145 1.347 . S
C147 C150 1.365 . S
C147 N152 1.328 1_455 S
C147 H153 0.929 . S
C148 C149 1.362 1_655 S
C148 C151 1.378 . S
C148 H163 0.929 . S
C149 C148 1.362 1_455 S
C149 C150 1.366 . S
C150 C147 1.365 . S
C150 C149 1.366 . S
C150 H164 0.930 . S
C151 C148 1.378 . S
C151 N152 1.315 . S
C151 H154 0.930 . S
N152 Co132 2.194 . S
N152 C147 1.328 1_655 S
N152 C151 1.315 . S
H153 C147 0.929 . S
H154 C151 0.930 . S
H155 C143 0.929 . S
H156 C145 0.929 . S
O157 Co132 2.351 . S
O157 C160 1.244 . S
O158 Co132 2.155 . S
O158 C160 1.240 . S
O159 Co132 2.096 . S
O159 C140 1.247 . S
C160 O157 1.244 . S
C160 O158 1.240 . S
H161 C135 0.931 . S
H162 C144 0.931 . S
H163 C148 0.929 . S
H164 C150 0.930 . S
Co165 N169 2.148 . S
Co165 N175 2.128 . S
Co165 N185 2.194 . S
Co165 O190 2.351 . S
Co165 O191 2.155 . S
Co165 O192 2.096 . S
C166 N169 1.301 . S
C166 N170 1.328 . S
C166 H171 0.930 . S
C167 C168 1.333 . S
C167 N169 1.317 . S
C167 H172 0.930 . S
C168 C167 1.333 . S
C168 N170 1.350 . S
C168 H194 0.931 . S
N169 Co165 2.148 . S
N169 C166 1.301 . S
N169 C167 1.317 . S
N170 C166 1.328 . S
N170 C168 1.350 . S
H171 C166 0.930 . S
H172 C167 0.930 . S
C173 O174 1.224 . S
C173 O192 1.247 . S
O174 C173 1.224 . S
N175 Co165 2.128 . S
N175 C176 1.355 . S
N175 C178 1.311 . S
C176 N175 1.355 . S
C176 C177 1.363 . S
C176 H188 0.929 . S
C177 C176 1.363 . S
C177 N179 1.375 . S
C177 H195 0.931 . S
C178 N175 1.311 . S
C178 N179 1.347 . S
C178 H189 0.929 . S
N179 C177 1.375 . S
N179 C178 1.347 . S
C180 C183 1.365 . S
C180 N185 1.328 . S
C180 H186 0.929 . S
C181 C182 1.362 . S
C181 C184 1.378 . S
C181 H196 0.929 . S
C182 C181 1.362 . S
C182 C183 1.366 . S
C183 C180 1.365 . S
C183 C182 1.366 . S
C183 H197 0.930 . S
C184 C181 1.378 . S
C184 N185 1.315 . S
C184 H187 0.930 . S
N185 Co165 2.194 . S
N185 C180 1.328 . S
N185 C184 1.315 . S
H186 C180 0.929 . S
H187 C184 0.930 . S
H188 C176 0.929 . S
H189 C178 0.929 . S
O190 Co165 2.351 . S
O190 C193 1.244 . S
O191 Co165 2.155 . S
O191 C193 1.240 . S
O192 Co165 2.096 . S
O192 C173 1.247 . S
C193 O190 1.244 . S
C193 O191 1.240 . S
H194 C168 0.931 . S
H195 C177 0.931 . S
H196 C181 0.929 . S
H197 C183 0.930 . S
Co198 N202 2.148 . S
Co198 N208 2.128 . S
Co198 N218 2.194 . S
Co198 O223 2.351 . S
Co198 O224 2.155 . S
Co198 O225 2.096 . S
C199 N202 1.301 . S
C199 N203 1.328 . S
C199 H204 0.930 . S
C200 C201 1.333 . S
C200 N202 1.317 . S
C200 H205 0.930 . S
C201 C200 1.333 . S
C201 N203 1.350 . S
C201 H227 0.931 . S
N202 Co198 2.148 . S
N202 C199 1.301 . S
N202 C200 1.317 . S
N203 C199 1.328 . S
N203 C201 1.350 . S
H204 C199 0.930 . S
H205 C200 0.930 . S
C206 O207 1.224 . S
C206 O225 1.247 . S
O207 C206 1.224 . S
N208 Co198 2.128 . S
N208 C209 1.355 . S
N208 C211 1.311 . S
C209 N208 1.355 . S
C209 C210 1.363 . S
C209 H221 0.929 . S
C210 C209 1.363 . S
C210 N212 1.375 . S
C210 H228 0.931 . S
C211 N208 1.311 . S
C211 N212 1.347 . S
C211 H222 0.929 . S
N212 C210 1.375 . S
N212 C211 1.347 . S
C213 C216 1.365 . S
C213 N218 1.328 . S
C213 H219 0.929 . S
C214 C215 1.362 . S
C214 C217 1.378 . S
C214 H229 0.929 . S
C215 C214 1.362 . S
C215 C216 1.366 . S
C216 C213 1.365 . S
C216 C215 1.366 . S
C216 H230 0.930 . S
C217 C214 1.378 . S
C217 N218 1.315 . S
C217 H220 0.930 . S
N218 Co198 2.194 . S
N218 C213 1.328 . S
N218 C217 1.315 . S
H219 C213 0.929 . S
H220 C217 0.930 . S
H221 C209 0.929 . S
H222 C211 0.929 . S
O223 Co198 2.351 . S
O223 C226 1.244 . S
O224 Co198 2.155 . S
O224 C226 1.240 . S
O225 Co198 2.096 . S
O225 C206 1.247 . S
C226 O223 1.244 . S
C226 O224 1.240 . S
H227 C201 0.931 . S
H228 C210 0.931 . S
H229 C214 0.929 . S
H230 C216 0.930 . S
Co231 N235 2.148 . S
Co231 N241 2.128 . S
Co231 N251 2.194 . S
Co231 O256 2.351 . S
Co231 O257 2.155 . S
Co231 O258 2.096 . S
C232 N235 1.301 . S
C232 N236 1.328 . S
C232 H237 0.930 . S
C233 C234 1.333 . S
C233 N235 1.317 . S
C233 H238 0.930 . S
C234 C233 1.333 . S
C234 N236 1.350 . S
C234 H260 0.931 . S
N235 Co231 2.148 . S
N235 C232 1.301 . S
N235 C233 1.317 . S
N236 C232 1.328 . S
N236 C234 1.350 . S
H237 C232 0.930 . S
H238 C233 0.930 . S
C239 O240 1.224 . S
C239 O258 1.247 . S
O240 C239 1.224 . S
N241 Co231 2.128 . S
N241 C242 1.355 . S
N241 C244 1.311 . S
C242 N241 1.355 . S
C242 C243 1.363 . S
C242 H254 0.929 . S
C243 C242 1.363 . S
C243 N245 1.375 . S
C243 H261 0.931 . S
C244 N241 1.311 . S
C244 N245 1.347 . S
C244 H255 0.929 . S
N245 C243 1.375 . S
N245 C244 1.347 . S
C246 C249 1.365 . S
C246 N251 1.328 1_655 S
C246 H252 0.929 . S
C247 C248 1.362 1_455 S
C247 C250 1.378 . S
C247 H262 0.929 . S
C248 C247 1.362 1_655 S
C248 C249 1.366 . S
C249 C246 1.365 . S
C249 C248 1.366 . S
C249 H263 0.930 . S
C250 C247 1.378 . S
C250 N251 1.315 . S
C250 H253 0.930 . S
N251 Co231 2.194 . S
N251 C246 1.328 1_455 S
N251 C250 1.315 . S
H252 C246 0.929 . S
H253 C250 0.930 . S
H254 C242 0.929 . S
H255 C244 0.929 . S
O256 Co231 2.351 . S
O256 C259 1.244 . S
O257 Co231 2.155 . S
O257 C259 1.240 . S
O258 Co231 2.096 . S
O258 C239 1.247 . S
C259 O256 1.244 . S
C259 O257 1.240 . S
H260 C234 0.931 . S
H261 C243 0.931 . S
H262 C247 0.929 . S
H263 C249 0.930 . S
Co264 N268 2.148 . S
Co264 N274 2.128 . S
Co264 N284 2.194 . S
Co264 O289 2.351 . S
Co264 O290 2.155 . S
Co264 O291 2.096 . S
C265 N268 1.301 . S
C265 N269 1.328 . S
C265 H270 0.930 . S
C266 C267 1.333 . S
C266 N268 1.317 . S
C266 H271 0.930 . S
C267 C266 1.333 . S
C267 N269 1.350 . S
C267 H293 0.931 . S
N268 Co264 2.148 . S
N268 C265 1.301 . S
N268 C266 1.317 . S
N269 C265 1.328 . S
N269 C267 1.350 . S
H270 C265 0.930 . S
H271 C266 0.930 . S
C272 O273 1.224 . S
C272 O291 1.247 . S
O273 C272 1.224 . S
N274 Co264 2.128 . S
N274 C275 1.355 . S
N274 C277 1.311 . S
C275 N274 1.355 . S
C275 C276 1.363 . S
C275 H287 0.929 . S
C276 C275 1.363 . S
C276 N278 1.375 . S
C276 H294 0.931 . S
C277 N274 1.311 . S
C277 N278 1.347 . S
C277 H288 0.929 . S
N278 C276 1.375 . S
N278 C277 1.347 . S
C279 C282 1.365 . S
C279 N284 1.328 . S
C279 H285 0.929 . S
C280 C281 1.362 . S
C280 C283 1.378 . S
C280 H295 0.929 . S
C281 C280 1.362 . S
C281 C282 1.366 . S
C282 C279 1.365 . S
C282 C281 1.366 . S
C282 H296 0.930 . S
C283 C280 1.378 . S
C283 N284 1.315 . S
C283 H286 0.930 . S
N284 Co264 2.194 . S
N284 C279 1.328 . S
N284 C283 1.315 . S
H285 C279 0.929 . S
H286 C283 0.930 . S
H287 C275 0.929 . S
H288 C277 0.929 . S
O289 Co264 2.351 . S
O289 C292 1.244 . S
O290 Co264 2.155 . S
O290 C292 1.240 . S
O291 Co264 2.096 . S
O291 C272 1.247 . S
C292 O289 1.244 . S
C292 O290 1.240 . S
H293 C267 0.931 . S
H294 C276 0.931 . S
H295 C280 0.929 . S
H296 C282 0.930 . S
Co297 N301 2.148 . S
Co297 N307 2.128 . S
Co297 N317 2.194 . S
Co297 O322 2.351 . S
Co297 O323 2.155 . S
Co297 O324 2.096 . S
C298 N301 1.301 . S
C298 N302 1.328 . S
C298 H303 0.930 . S
C299 C300 1.333 . S
C299 N301 1.317 . S
C299 H304 0.930 . S
C300 C299 1.333 . S
C300 N302 1.350 . S
C300 H326 0.931 . S
N301 Co297 2.148 . S
N301 C298 1.301 . S
N301 C299 1.317 . S
N302 C298 1.328 . S
N302 C300 1.350 . S
H303 C298 0.930 . S
H304 C299 0.930 . S
C305 O306 1.224 . S
C305 O324 1.247 1_455 S
O306 C305 1.224 . S
N307 Co297 2.128 . S
N307 C308 1.355 . S
N307 C310 1.311 . S
C308 N307 1.355 . S
C308 C309 1.363 . S
C308 H320 0.929 . S
C309 C308 1.363 . S
C309 N311 1.375 . S
C309 H327 0.931 . S
C310 N307 1.311 . S
C310 N311 1.347 . S
C310 H321 0.929 . S
N311 C309 1.375 . S
N311 C310 1.347 . S
C312 C315 1.365 . S
C312 N317 1.328 . S
C312 H318 0.929 . S
C313 C314 1.362 . S
C313 C316 1.378 . S
C313 H328 0.929 1_655 S
C314 C313 1.362 . S
C314 C315 1.366 . S
C315 C312 1.365 . S
C315 C314 1.366 . S
C315 H329 0.930 . S
C316 C313 1.378 . S
C316 N317 1.315 . S
C316 H319 0.930 . S
N317 Co297 2.194 . S
N317 C312 1.328 . S
N317 C316 1.315 . S
H318 C312 0.929 . S
H319 C316 0.930 . S
H320 C308 0.929 . S
H321 C310 0.929 . S
O322 Co297 2.351 . S
O322 C325 1.244 . S
O323 Co297 2.155 . S
O323 C325 1.240 . S
O324 Co297 2.096 . S
O324 C305 1.247 1_655 S
C325 O322 1.244 . S
C325 O323 1.240 . S
H326 C300 0.931 . S
H327 C309 0.931 . S
H328 C313 0.929 1_455 S
H329 C315 0.930 . S
Co330 N334 2.148 . S
Co330 N340 2.128 . S
Co330 N350 2.194 . S
Co330 O355 2.351 1_455 S
Co330 O356 2.155 . S
Co330 O357 2.096 . S
C331 N334 1.301 . S
C331 N335 1.328 . S
C331 H336 0.930 . S
C332 C333 1.333 . S
C332 N334 1.317 . S
C332 H337 0.930 . S
C333 C332 1.333 . S
C333 N335 1.350 . S
C333 H359 0.931 . S
N334 Co330 2.148 . S
N334 C331 1.301 . S
N334 C332 1.317 . S
N335 C331 1.328 . S
N335 C333 1.350 . S
H336 C331 0.930 . S
H337 C332 0.930 . S
C338 O339 1.224 . S
C338 O357 1.247 . S
O339 C338 1.224 . S
N340 Co330 2.128 . S
N340 C341 1.355 . S
N340 C343 1.311 . S
C341 N340 1.355 . S
C341 C342 1.363 . S
C341 H353 0.929 . S
C342 C341 1.363 . S
C342 N344 1.375 . S
C342 H360 0.931 . S
C343 N340 1.311 . S
C343 N344 1.347 . S
C343 H354 0.929 . S
N344 C342 1.375 . S
N344 C343 1.347 . S
C345 C348 1.365 . S
C345 N350 1.328 . S
C345 H351 0.929 1_455 S
C346 C347 1.362 . S
C346 C349 1.378 . S
C346 H361 0.929 . S
C347 C346 1.362 . S
C347 C348 1.366 . S
C348 C345 1.365 . S
C348 C347 1.366 . S
C348 H362 0.930 1_455 S
C349 C346 1.378 . S
C349 N350 1.315 . S
C349 H352 0.930 . S
N350 Co330 2.194 . S
N350 C345 1.328 . S
N350 C349 1.315 . S
H351 C345 0.929 1_655 S
H352 C349 0.930 . S
H353 C341 0.929 . S
H354 C343 0.929 . S
O355 Co330 2.351 1_655 S
O355 C358 1.244 . S
O356 Co330 2.155 . S
O356 C358 1.240 1_455 S
O357 Co330 2.096 . S
O357 C338 1.247 . S
C358 O355 1.244 . S
C358 O356 1.240 1_655 S
H359 C333 0.931 . S
H360 C342 0.931 . S
H361 C346 0.929 . S
H362 C348 0.930 1_655 S
Co363 N367 2.148 . S
Co363 N373 2.128 . S
Co363 N383 2.194 . S
Co363 O388 2.351 . S
Co363 O389 2.155 . S
Co363 O390 2.096 . S
C364 N367 1.301 . S
C364 N368 1.328 . S
C364 H369 0.930 . S
C365 C366 1.333 . S
C365 N367 1.317 . S
C365 H370 0.930 . S
C366 C365 1.333 . S
C366 N368 1.350 . S
C366 H392 0.931 . S
N367 Co363 2.148 . S
N367 C364 1.301 . S
N367 C365 1.317 . S
N368 C364 1.328 . S
N368 C366 1.350 . S
H369 C364 0.930 . S
H370 C365 0.930 . S
C371 O372 1.224 . S
C371 O390 1.247 . S
O372 C371 1.224 . S
N373 Co363 2.128 . S
N373 C374 1.355 . S
N373 C376 1.311 . S
C374 N373 1.355 . S
C374 C375 1.363 . S
C374 H386 0.929 . S
C375 C374 1.363 . S
C375 N377 1.375 . S
C375 H393 0.931 . S
C376 N373 1.311 . S
C376 N377 1.347 . S
C376 H387 0.929 . S
N377 C375 1.375 . S
N377 C376 1.347 . S
C378 C381 1.365 . S
C378 N383 1.328 . S
C378 H384 0.929 . S
C379 C380 1.362 . S
C379 C382 1.378 . S
C379 H394 0.929 . S
C380 C379 1.362 . S
C380 C381 1.366 . S
C381 C378 1.365 . S
C381 C380 1.366 . S
C381 H395 0.930 . S
C382 C379 1.378 . S
C382 N383 1.315 . S
C382 H385 0.930 . S
N383 Co363 2.194 . S
N383 C378 1.328 . S
N383 C382 1.315 . S
H384 C378 0.929 . S
H385 C382 0.930 . S
H386 C374 0.929 . S
H387 C376 0.929 . S
O388 Co363 2.351 . S
O388 C391 1.244 . S
O389 Co363 2.155 . S
O389 C391 1.240 . S
O390 Co363 2.096 . S
O390 C371 1.247 . S
C391 O388 1.244 . S
C391 O389 1.240 . S
H392 C366 0.931 . S
H393 C375 0.931 . S
H394 C379 0.929 . S
H395 C381 0.930 . S
Co396 N400 2.148 . S
Co396 N406 2.128 . S
Co396 N416 2.194 . S
Co396 O421 2.351 . S
Co396 O422 2.155 . S
Co396 O423 2.096 . S
C397 N400 1.301 . S
C397 N401 1.328 . S
C397 H402 0.930 . S
C398 C399 1.333 . S
C398 N400 1.317 . S
C398 H403 0.930 . S
C399 C398 1.333 . S
C399 N401 1.350 . S
C399 H425 0.931 . S
N400 Co396 2.148 . S
N400 C397 1.301 . S
N400 C398 1.317 . S
N401 C397 1.328 . S
N401 C399 1.350 . S
H402 C397 0.930 . S
H403 C398 0.930 . S
C404 O405 1.224 . S
C404 O423 1.247 . S
O405 C404 1.224 . S
N406 Co396 2.128 . S
N406 C407 1.355 . S
N406 C409 1.311 . S
C407 N406 1.355 . S
C407 C408 1.363 . S
C407 H419 0.929 . S
C408 C407 1.363 . S
C408 N410 1.375 . S
C408 H426 0.931 . S
C409 N406 1.311 . S
C409 N410 1.347 . S
C409 H420 0.929 . S
N410 C408 1.375 . S
N410 C409 1.347 . S
C411 C414 1.365 . S
C411 N416 1.328 . S
C411 H417 0.929 . S
C412 C413 1.362 . S
C412 C415 1.378 . S
C412 H427 0.929 . S
C413 C412 1.362 . S
C413 C414 1.366 . S
C414 C411 1.365 . S
C414 C413 1.366 . S
C414 H428 0.930 . S
C415 C412 1.378 . S
C415 N416 1.315 . S
C415 H418 0.930 . S
N416 Co396 2.194 . S
N416 C411 1.328 . S
N416 C415 1.315 . S
H417 C411 0.929 . S
H418 C415 0.930 . S
H419 C407 0.929 . S
H420 C409 0.929 . S
O421 Co396 2.351 . S
O421 C424 1.244 . S
O422 Co396 2.155 . S
O422 C424 1.240 . S
O423 Co396 2.096 . S
O423 C404 1.247 . S
C424 O421 1.244 . S
C424 O422 1.240 . S
H425 C399 0.931 . S
H426 C408 0.931 . S
H427 C412 0.929 . S
H428 C414 0.930 . S
Co429 N433 2.148 . S
Co429 N439 2.128 . S
Co429 N449 2.194 . S
Co429 O454 2.351 . S
Co429 O455 2.155 . S
Co429 O456 2.096 . S
C430 N433 1.301 . S
C430 N434 1.328 . S
C430 H435 0.930 . S
C431 C432 1.333 . S
C431 N433 1.317 . S
C431 H436 0.930 . S
C432 C431 1.333 . S
C432 N434 1.350 . S
C432 H458 0.931 . S
N433 Co429 2.148 . S
N433 C430 1.301 . S
N433 C431 1.317 . S
N434 C430 1.328 . S
N434 C432 1.350 . S
H435 C430 0.930 . S
H436 C431 0.930 . S
C437 O438 1.224 . S
C437 O456 1.247 . S
O438 C437 1.224 . S
N439 Co429 2.128 . S
N439 C440 1.355 . S
N439 C442 1.311 . S
C440 N439 1.355 . S
C440 C441 1.363 . S
C440 H452 0.929 . S
C441 C440 1.363 . S
C441 N443 1.375 . S
C441 H459 0.931 . S
C442 N439 1.311 . S
C442 N443 1.347 . S
C442 H453 0.929 . S
N443 C441 1.375 . S
N443 C442 1.347 . S
C444 C447 1.365 . S
C444 N449 1.328 1_655 S
C444 H450 0.929 . S
C445 C446 1.362 1_455 S
C445 C448 1.378 . S
C445 H460 0.929 . S
C446 C445 1.362 1_655 S
C446 C447 1.366 . S
C447 C444 1.365 . S
C447 C446 1.366 . S
C447 H461 0.930 . S
C448 C445 1.378 . S
C448 N449 1.315 . S
C448 H451 0.930 . S
N449 Co429 2.194 . S
N449 C444 1.328 1_455 S
N449 C448 1.315 . S
H450 C444 0.929 . S
H451 C448 0.930 . S
H452 C440 0.929 . S
H453 C442 0.929 . S
O454 Co429 2.351 . S
O454 C457 1.244 . S
O455 Co429 2.155 . S
O455 C457 1.240 . S
O456 Co429 2.096 . S
O456 C437 1.247 . S
C457 O454 1.244 . S
C457 O455 1.240 . S
H458 C432 0.931 . S
H459 C441 0.931 . S
H460 C445 0.929 . S
H461 C447 0.930 . S
Co462 N466 2.148 . S
Co462 N472 2.128 . S
Co462 N482 2.194 . S
Co462 O487 2.351 . S
Co462 O488 2.155 . S
Co462 O489 2.096 . S
C463 N466 1.301 . S
C463 N467 1.328 . S
C463 H468 0.930 . S
C464 C465 1.333 . S
C464 N466 1.317 . S
C464 H469 0.930 . S
C465 C464 1.333 . S
C465 N467 1.350 . S
C465 H491 0.931 . S
N466 Co462 2.148 . S
N466 C463 1.301 . S
N466 C464 1.317 . S
N467 C463 1.328 . S
N467 C465 1.350 . S
H468 C463 0.930 . S
H469 C464 0.930 . S
C470 O471 1.224 . S
C470 O489 1.247 . S
O471 C470 1.224 . S
N472 Co462 2.128 . S
N472 C473 1.355 . S
N472 C475 1.311 . S
C473 N472 1.355 . S
C473 C474 1.363 . S
C473 H485 0.929 . S
C474 C473 1.363 . S
C474 N476 1.375 . S
C474 H492 0.931 . S
C475 N472 1.311 . S
C475 N476 1.347 . S
C475 H486 0.929 . S
N476 C474 1.375 . S
N476 C475 1.347 . S
C477 C480 1.365 . S
C477 N482 1.328 1_455 S
C477 H483 0.929 . S
C478 C479 1.362 1_655 S
C478 C481 1.378 . S
C478 H493 0.929 . S
C479 C478 1.362 1_455 S
C479 C480 1.366 . S
C480 C477 1.365 . S
C480 C479 1.366 . S
C480 H494 0.930 . S
C481 C478 1.378 . S
C481 N482 1.315 . S
C481 H484 0.930 . S
N482 Co462 2.194 . S
N482 C477 1.328 1_655 S
N482 C481 1.315 . S
H483 C477 0.929 . S
H484 C481 0.930 . S
H485 C473 0.929 . S
H486 C475 0.929 . S
O487 Co462 2.351 . S
O487 C490 1.244 . S
O488 Co462 2.155 . S
O488 C490 1.240 . S
O489 Co462 2.096 . S
O489 C470 1.247 . S
C490 O487 1.244 . S
C490 O488 1.240 . S
H491 C465 0.931 . S
H492 C474 0.931 . S
H493 C478 0.929 . S
H494 C480 0.930 . S
Co495 N499 2.148 . S
Co495 N505 2.128 . S
Co495 N515 2.194 . S
Co495 O520 2.351 . S
Co495 O521 2.155 . S
Co495 O522 2.096 . S
C496 N499 1.301 . S
C496 N500 1.328 . S
C496 H501 0.930 . S
C497 C498 1.333 . S
C497 N499 1.317 . S
C497 H502 0.930 . S
C498 C497 1.333 . S
C498 N500 1.350 . S
C498 H524 0.931 . S
N499 Co495 2.148 . S
N499 C496 1.301 . S
N499 C497 1.317 . S
N500 C496 1.328 . S
N500 C498 1.350 . S
H501 C496 0.930 . S
H502 C497 0.930 . S
C503 O504 1.224 . S
C503 O522 1.247 . S
O504 C503 1.224 . S
N505 Co495 2.128 . S
N505 C506 1.355 . S
N505 C508 1.311 . S
C506 N505 1.355 . S
C506 C507 1.363 . S
C506 H518 0.929 . S
C507 C506 1.363 . S
C507 N509 1.375 . S
C507 H525 0.931 . S
C508 N505 1.311 . S
C508 N509 1.347 . S
C508 H519 0.929 . S
N509 C507 1.375 . S
N509 C508 1.347 . S
C510 C513 1.365 . S
C510 N515 1.328 . S
C510 H516 0.929 . S
C511 C512 1.362 . S
C511 C514 1.378 . S
C511 H526 0.929 . S
C512 C511 1.362 . S
C512 C513 1.366 . S
C513 C510 1.365 . S
C513 C512 1.366 . S
C513 H527 0.930 . S
C514 C511 1.378 . S
C514 N515 1.315 . S
C514 H517 0.930 . S
N515 Co495 2.194 . S
N515 C510 1.328 . S
N515 C514 1.315 . S
H516 C510 0.929 . S
H517 C514 0.930 . S
H518 C506 0.929 . S
H519 C508 0.929 . S
O520 Co495 2.351 . S
O520 C523 1.244 . S
O521 Co495 2.155 . S
O521 C523 1.240 . S
O522 Co495 2.096 . S
O522 C503 1.247 . S
C523 O520 1.244 . S
C523 O521 1.240 . S
H524 C498 0.931 . S
H525 C507 0.931 . S
H526 C511 0.929 . S
H527 C513 0.930 . S
H528 C546 0.951 . S
H529 C548 0.951 . S
H530 C550 0.950 . S
H531 C551 0.950 . S
H532 C553 0.950 . S
H533 C556 0.950 . S
H534 C557 0.950 . S
H535 C559 0.950 . S
H536 C560 0.950 . S
H537 C561 0.951 . S
H538 C563 0.951 . S
H539 C565 0.950 . S
H540 C566 0.950 . S
H541 C568 0.950 . S
H542 C571 0.950 . S
H543 C572 0.950 . S
H544 C574 0.950 . S
H545 C575 0.950 . S
C546 H528 0.951 . S
C546 C547 1.366 . S
C546 C548 1.388 . S
C547 C546 1.366 . S
C547 C551 1.385 . S
C548 H529 0.951 . S
C548 C546 1.388 . S
C548 C549 1.366 . S
C549 C548 1.366 . S
C549 C550 1.414 . S
C549 C552 1.499 . S
C550 H530 0.950 . S
C550 C549 1.414 . S
C550 C551 1.374 . S
C551 H531 0.950 . S
C551 C547 1.385 . S
C551 C550 1.374 . S
C552 C549 1.499 . S
C552 C553 1.373 . S
C552 C554 1.389 . S
C553 H532 0.950 . S
C553 C552 1.373 . S
C553 C569 1.377 . S
C554 C552 1.389 . S
C554 C555 1.524 . S
C554 C568 1.377 1_556 S
C555 C554 1.524 . S
C555 C556 1.397 . S
C555 C560 1.363 1_556 S
C556 H533 0.950 . S
C556 C555 1.397 . S
C556 C557 1.334 . S
C557 H534 0.950 . S
C557 C556 1.334 . S
C557 C558 1.287 . S
C558 C557 1.287 . S
C558 C559 1.524 1_556 S
C558 H577 0.913 . S
C559 H535 0.950 . S
C559 C558 1.524 1_554 S
C559 C560 1.415 . S
C560 H536 0.950 . S
C560 C555 1.363 1_554 S
C560 C559 1.415 . S
C561 H537 0.951 . S
C561 C562 1.366 . S
C561 C563 1.388 . S
C562 C561 1.366 . S
C562 C566 1.385 . S
C563 H538 0.951 . S
C563 C561 1.388 . S
C563 C564 1.366 . S
C564 C563 1.366 . S
C564 C565 1.414 . S
C564 C567 1.499 . S
C565 H539 0.950 . S
C565 C564 1.414 . S
C565 C566 1.374 . S
C566 H540 0.950 . S
C566 C562 1.385 . S
C566 C565 1.374 . S
C567 C564 1.499 . S
C567 C568 1.373 . S
C567 C569 1.389 1_554 S
C568 H541 0.950 . S
C568 C554 1.377 1_554 S
C568 C567 1.373 . S
C569 C553 1.377 . S
C569 C567 1.389 1_556 S
C569 C570 1.522 1_556 S
C570 C569 1.522 1_554 S
C570 C571 1.424 . S
C570 C575 1.339 1_554 S
C571 H542 0.950 . S
C571 C570 1.424 . S
C571 C572 1.334 . S
C572 H543 0.950 . S
C572 C571 1.334 . S
C572 C573 1.287 . S
C573 C572 1.287 . S
C573 C574 1.524 1_554 S
C573 H576 0.999 . S
C574 H544 0.950 . S
C574 C573 1.524 1_556 S
C574 C575 1.415 . S
C575 H545 0.950 . S
C575 C570 1.339 1_556 S
C575 C574 1.415 . S
H576 C573 0.999 . S
H577 C558 0.913 . S
H578 C596 0.951 . S
H579 C598 0.951 . S
H580 C600 0.950 . S
H581 C601 0.950 . S
H582 C603 0.950 . S
H583 C606 0.950 . S
H584 C607 0.950 . S
H585 C609 0.950 . S
H586 C610 0.950 . S
H587 C611 0.951 . S
H588 C613 0.951 . S
H589 C615 0.950 . S
H590 C616 0.950 . S
H591 C618 0.946 1_554 S
H592 C621 0.950 . S
H593 C622 0.950 . S
H594 C624 0.950 . S
H595 C625 0.977 . S
C596 H578 0.951 . S
C596 C597 1.366 . S
C596 C598 1.388 . S
C597 C596 1.366 . S
C597 C601 1.385 . S
C598 H579 0.951 . S
C598 C596 1.388 . S
C598 C599 1.366 . S
C599 C598 1.366 . S
C599 C600 1.414 . S
C599 C602 1.499 . S
C600 H580 0.950 . S
C600 C599 1.414 . S
C600 C601 1.374 . S
C601 H581 0.950 . S
C601 C597 1.385 . S
C601 C600 1.374 . S
C602 C599 1.499 . S
C602 C603 1.373 . S
C602 C604 1.389 . S
C603 H582 0.950 . S
C603 C602 1.373 . S
C603 C619 1.377 1_556 S
C604 C602 1.389 . S
C604 C605 1.524 . S
C604 C618 1.396 . S
C605 C604 1.524 . S
C605 C606 1.397 . S
C605 C610 1.363 . S
C606 H583 0.950 . S
C606 C605 1.397 . S
C606 C607 1.334 . S
C607 H584 0.950 . S
C607 C606 1.334 . S
C607 C608 1.287 . S
C608 C607 1.287 . S
C608 C609 1.524 . S
C608 H627 0.913 . S
C609 H585 0.950 . S
C609 C608 1.524 . S
C609 C610 1.415 . S
C610 H586 0.950 . S
C610 C605 1.363 . S
C610 C609 1.415 . S
C611 H587 0.951 . S
C611 C612 1.366 . S
C611 C613 1.388 . S
C612 C611 1.366 . S
C612 C616 1.385 . S
C613 H588 0.951 . S
C613 C611 1.388 . S
C613 C614 1.366 . S
C614 C613 1.366 . S
C614 C615 1.414 . S
C614 C617 1.499 . S
C615 H589 0.950 . S
C615 C614 1.414 . S
C615 C616 1.374 . S
C616 H590 0.950 . S
C616 C612 1.385 . S
C616 C615 1.374 . S
C617 C614 1.499 . S
C617 C618 1.357 1_554 S
C617 C619 1.389 . S
C618 H591 0.946 1_556 S
C618 C604 1.396 . S
C618 C617 1.357 1_556 S
C619 C603 1.377 1_554 S
C619 C617 1.389 . S
C619 C620 1.524 . S
C620 C619 1.524 . S
C620 C621 1.397 . S
C620 C625 1.363 . S
C621 H592 0.950 . S
C621 C620 1.397 . S
C621 C622 1.334 . S
C622 H593 0.950 . S
C622 C621 1.334 . S
C622 C623 1.287 . S
C623 C622 1.287 . S
C623 C624 1.524 . S
C623 H626 0.999 . S
C624 H594 0.950 . S
C624 C623 1.524 . S
C624 C625 1.415 . S
C625 H595 0.977 . S
C625 C620 1.363 . S
C625 C624 1.415 . S
H626 C623 0.999 . S
H627 C608 0.913 . S
H628 C646 0.951 . S
H629 C648 0.951 . S
H630 C650 0.950 . S
H631 C651 0.950 . S
H632 C653 0.950 . S
H633 C656 0.950 . S
H634 C657 0.950 . S
H635 C659 0.950 . S
H636 C660 0.950 . S
H637 C661 0.951 . S
H638 C663 0.951 . S
H639 C665 0.950 . S
H640 C666 0.950 . S
H641 C668 0.950 . S
H642 C671 0.950 . S
H643 C672 0.950 . S
H644 C674 0.950 . S
H645 C675 0.950 . S
C646 H628 0.951 . S
C646 C647 1.366 . S
C646 C648 1.388 . S
C647 C646 1.366 . S
C647 C651 1.385 . S
C648 H629 0.951 . S
C648 C646 1.388 . S
C648 C649 1.366 . S
C649 C648 1.366 . S
C649 C650 1.414 . S
C649 C652 1.499 . S
C650 H630 0.950 . S
C650 C649 1.414 . S
C650 C651 1.374 . S
C651 H631 0.950 . S
C651 C647 1.385 . S
C651 C650 1.374 . S
C652 C649 1.499 . S
C652 C653 1.373 . S
C652 C654 1.389 . S
C653 H632 0.950 . S
C653 C652 1.373 . S
C653 C669 1.377 . S
C654 C652 1.389 . S
C654 C655 1.524 . S
C654 C668 1.377 . S
C655 C654 1.524 . S
C655 C656 1.397 . S
C655 C660 1.363 . S
C656 H633 0.950 . S
C656 C655 1.397 . S
C656 C657 1.334 . S
C657 H634 0.950 . S
C657 C656 1.334 . S
C657 C658 1.287 . S
C658 C657 1.287 . S
C658 C659 1.524 . S
C658 H677 0.913 . S
C659 H635 0.950 . S
C659 C658 1.524 . S
C659 C660 1.415 . S
C660 H636 0.950 . S
C660 C655 1.363 . S
C660 C659 1.415 . S
C661 H637 0.951 . S
C661 C662 1.366 . S
C661 C663 1.388 . S
C662 C661 1.366 . S
C662 C666 1.385 . S
C663 H638 0.951 . S
C663 C661 1.388 . S
C663 C664 1.366 . S
C664 C663 1.366 . S
C664 C665 1.414 . S
C664 C667 1.499 . S
C665 H639 0.950 . S
C665 C664 1.414 . S
C665 C666 1.374 . S
C666 H640 0.950 . S
C666 C662 1.385 . S
C666 C665 1.374 . S
C667 C664 1.499 . S
C667 C668 1.373 . S
C667 C669 1.389 . S
C668 H641 0.950 . S
C668 C654 1.377 . S
C668 C667 1.373 . S
C669 C653 1.377 . S
C669 C667 1.389 . S
C669 C670 1.524 . S
C670 C669 1.524 . S
C670 C671 1.397 . S
C670 C675 1.363 . S
C671 H642 0.950 . S
C671 C670 1.397 . S
C671 C672 1.334 . S
C672 H643 0.950 . S
C672 C671 1.334 . S
C672 C673 1.287 . S
C673 C672 1.287 . S
C673 C674 1.524 . S
C673 H676 0.999 . S
C674 H644 0.950 . S
C674 C673 1.524 . S
C674 C675 1.415 . S
C675 H645 0.950 . S
C675 C670 1.363 . S
C675 C674 1.415 . S
H676 C673 0.999 . S
H677 C658 0.913 . S
H678 C696 0.951 . S
H679 C698 0.951 . S
H680 C700 0.950 . S
H681 C701 0.950 . S
H682 C703 0.950 . S
H683 C706 0.950 . S
H684 C707 0.950 . S
H685 C709 0.950 . S
H686 C710 0.950 . S
H687 C711 0.951 . S
H688 C713 0.951 . S
H689 C715 0.950 . S
H690 C716 0.950 . S
H691 C718 0.950 . S
H692 C721 0.950 . S
H693 C722 0.950 . S
H694 C724 0.950 . S
H695 C725 0.950 . S
C696 H678 0.951 . S
C696 C697 1.366 . S
C696 C698 1.388 . S
C697 C696 1.366 . S
C697 C701 1.385 . S
C698 H679 0.951 . S
C698 C696 1.388 . S
C698 C699 1.366 . S
C699 C698 1.366 . S
C699 C700 1.414 . S
C699 C702 1.499 . S
C700 H680 0.950 . S
C700 C699 1.414 . S
C700 C701 1.374 . S
C701 H681 0.950 . S
C701 C697 1.385 . S
C701 C700 1.374 . S
C702 C699 1.499 . S
C702 C703 1.373 . S
C702 C704 1.389 . S
C703 H682 0.950 . S
C703 C702 1.373 . S
C703 C719 1.377 . S
C704 C702 1.389 . S
C704 C705 1.524 . S
C704 C718 1.377 . S
C705 C704 1.524 . S
C705 C706 1.397 . S
C705 C710 1.363 . S
C706 H683 0.950 . S
C706 C705 1.397 . S
C706 C707 1.334 . S
C707 H684 0.950 . S
C707 C706 1.334 . S
C707 C708 1.287 . S
C708 C707 1.287 . S
C708 C709 1.524 . S
C708 H727 0.913 . S
C709 H685 0.950 . S
C709 C708 1.524 . S
C709 C710 1.415 . S
C710 H686 0.950 . S
C710 C705 1.363 . S
C710 C709 1.415 . S
C711 H687 0.951 . S
C711 C712 1.366 . S
C711 C713 1.388 . S
C712 C711 1.366 . S
C712 C716 1.385 . S
C713 H688 0.951 . S
C713 C711 1.388 . S
C713 C714 1.366 . S
C714 C713 1.366 . S
C714 C715 1.414 . S
C714 C717 1.499 . S
C715 H689 0.950 . S
C715 C714 1.414 . S
C715 C716 1.374 . S
C716 H690 0.950 . S
C716 C712 1.385 . S
C716 C715 1.374 . S
C717 C714 1.499 . S
C717 C718 1.373 . S
C717 C719 1.389 . S
C718 H691 0.950 . S
C718 C704 1.377 . S
C718 C717 1.373 . S
C719 C703 1.377 . S
C719 C717 1.389 . S
C719 C720 1.524 . S
C720 C719 1.524 . S
C720 C721 1.397 . S
C720 C725 1.363 . S
C721 H692 0.950 . S
C721 C720 1.397 . S
C721 C722 1.334 . S
C722 H693 0.950 . S
C722 C721 1.334 . S
C722 C723 1.287 . S
C723 C722 1.287 . S
C723 C724 1.524 . S
C723 H726 0.999 . S
C724 H694 0.950 . S
C724 C723 1.524 . S
C724 C725 1.415 . S
C725 H695 0.950 . S
C725 C720 1.363 . S
C725 C724 1.415 . S
H726 C723 0.999 . S
H727 C708 0.913 . S
H728 C746 0.951 . S
H729 C748 0.951 . S
H730 C750 0.950 . S
H731 C751 0.950 . S
H732 C753 0.950 . S
H733 C756 0.950 . S
H734 C757 0.950 . S
H735 C759 0.950 . S
H736 C760 0.950 . S
H737 C761 0.951 . S
H738 C763 0.961 . S
H739 C765 0.950 . S
H740 C766 0.950 . S
H741 C768 0.950 . S
H742 C771 0.950 . S
H743 C772 0.950 . S
H744 C774 0.950 . S
H745 C775 0.950 . S
C746 H728 0.951 . S
C746 C747 1.366 . S
C746 C748 1.388 . S
C747 C746 1.366 . S
C747 C751 1.385 . S
C748 H729 0.951 . S
C748 C746 1.388 . S
C748 C749 1.366 . S
C749 C748 1.366 . S
C749 C750 1.414 . S
C749 C752 1.499 . S
C750 H730 0.950 . S
C750 C749 1.414 . S
C750 C751 1.374 . S
C751 H731 0.950 . S
C751 C747 1.385 . S
C751 C750 1.374 . S
C752 C749 1.499 . S
C752 C753 1.373 . S
C752 C754 1.389 . S
C753 H732 0.950 . S
C753 C752 1.373 . S
C753 C769 1.377 . S
C754 C752 1.389 . S
C754 C755 1.524 1_556 S
C754 C768 1.377 1_556 S
C755 C754 1.524 1_554 S
C755 C756 1.397 1_554 S
C755 C760 1.363 . S
C756 H733 0.950 . S
C756 C755 1.397 1_556 S
C756 C757 1.334 1_556 S
C757 H734 0.950 . S
C757 C756 1.334 1_554 S
C757 C758 1.287 . S
C758 C757 1.287 . S
C758 C759 1.524 . S
C758 H777 0.913 . S
C759 H735 0.950 . S
C759 C758 1.524 . S
C759 C760 1.415 . S
C760 H736 0.950 . S
C760 C755 1.363 . S
C760 C759 1.415 . S
C761 H737 0.951 . S
C761 C762 1.366 . S
C761 C763 1.388 . S
C762 C761 1.366 . S
C762 C766 1.385 . S
C763 H738 0.961 . S
C763 C761 1.388 . S
C763 C764 1.366 . S
C764 C763 1.366 . S
C764 C765 1.414 . S
C764 C767 1.499 1_554 S
C765 H739 0.950 . S
C765 C764 1.414 . S
C765 C766 1.374 . S
C766 H740 0.950 . S
C766 C762 1.385 . S
C766 C765 1.374 . S
C767 C764 1.499 1_556 S
C767 C768 1.373 1_556 S
C767 C769 1.389 . S
C768 H741 0.950 . S
C768 C754 1.377 1_554 S
C768 C767 1.373 1_554 S
C769 C753 1.377 . S
C769 C767 1.389 . S
C769 C770 1.524 . S
C770 C769 1.524 . S
C770 C771 1.397 . S
C770 C775 1.363 . S
C771 H742 0.950 . S
C771 C770 1.397 . S
C771 C772 1.334 . S
C772 H743 0.950 . S
C772 C771 1.334 . S
C772 C773 1.287 . S
C773 C772 1.287 . S
C773 C774 1.524 . S
C773 H776 0.999 . S
C774 H744 0.950 . S
C774 C773 1.524 . S
C774 C775 1.415 . S
C775 H745 0.950 . S
C775 C770 1.363 . S
C775 C774 1.415 . S
H776 C773 0.999 . S
H777 C758 0.913 . S
H778 C796 0.951 . S
H779 C798 0.951 . S
H780 C800 0.950 . S
H781 C801 0.950 . S
H782 C803 0.950 . S
H783 C806 0.950 . S
H784 C807 0.950 . S
H785 C809 0.950 . S
H786 C810 0.950 . S
H787 C811 0.951 . S
H788 C813 0.951 . S
H789 C815 0.950 . S
H790 C816 0.950 . S
H791 C818 0.950 . S
H792 C821 0.950 . S
H793 C822 0.950 . S
H794 C824 0.950 . S
H795 C825 0.950 . S
C796 H778 0.951 . S
C796 C797 1.366 . S
C796 C798 1.388 . S
C797 C796 1.366 . S
C797 C801 1.385 . S
C798 H779 0.951 . S
C798 C796 1.388 . S
C798 C799 1.366 . S
C799 C798 1.366 . S
C799 C800 1.414 . S
C799 C802 1.499 . S
C800 H780 0.950 . S
C800 C799 1.414 . S
C800 C801 1.374 . S
C801 H781 0.950 . S
C801 C797 1.385 . S
C801 C800 1.374 . S
C802 C799 1.499 . S
C802 C803 1.373 . S
C802 C804 1.389 . S
C803 H782 0.950 . S
C803 C802 1.373 . S
C803 C819 1.377 1_556 S
C804 C802 1.389 . S
C804 C805 1.524 . S
C804 C818 1.377 . S
C805 C804 1.524 . S
C805 C806 1.397 . S
C805 C810 1.363 . S
C806 H783 0.950 . S
C806 C805 1.397 . S
C806 C807 1.334 . S
C807 H784 0.950 . S
C807 C806 1.334 . S
C807 C808 1.287 . S
C808 C807 1.287 . S
C808 C809 1.524 . S
C808 H827 0.913 . S
C809 H785 0.950 . S
C809 C808 1.524 . S
C809 C810 1.415 . S
C810 H786 0.950 . S
C810 C805 1.363 . S
C810 C809 1.415 . S
C811 H787 0.951 . S
C811 C812 1.366 . S
C811 C813 1.388 . S
C812 C811 1.366 . S
C812 C816 1.385 . S
C813 H788 0.951 . S
C813 C811 1.388 . S
C813 C814 1.366 . S
C814 C813 1.366 . S
C814 C815 1.414 . S
C814 C817 1.499 1_554 S
C815 H789 0.950 . S
C815 C814 1.414 . S
C815 C816 1.374 . S
C816 H790 0.950 . S
C816 C812 1.385 . S
C816 C815 1.374 . S
C817 C814 1.499 1_556 S
C817 C818 1.373 . S
C817 C819 1.389 1_556 S
C818 H791 0.950 . S
C818 C804 1.377 . S
C818 C817 1.373 . S
C819 C803 1.377 1_554 S
C819 C817 1.389 1_554 S
C819 C820 1.524 . S
C820 C819 1.524 . S
C820 C821 1.397 . S
C820 C825 1.363 . S
C821 H792 0.950 . S
C821 C820 1.397 . S
C821 C822 1.334 . S
C822 H793 0.950 . S
C822 C821 1.334 . S
C822 C823 1.287 . S
C823 C822 1.287 . S
C823 C824 1.524 . S
C823 H826 0.999 . S
C824 H794 0.950 . S
C824 C823 1.524 . S
C824 C825 1.415 . S
C825 H795 0.950 . S
C825 C820 1.363 . S
C825 C824 1.415 . S
H826 C823 0.999 . S
H827 C808 0.913 . S
H828 C846 0.951 . S
H829 C848 0.951 . S
H830 C850 0.950 . S
H831 C851 0.950 . S
H832 C853 0.950 . S
H833 C856 0.950 . S
H834 C857 0.950 . S
H835 C859 0.950 . S
H836 C860 0.950 . S
H837 C861 0.951 . S
H838 C863 0.951 . S
H839 C865 0.950 . S
H840 C866 0.950 . S
H841 C868 0.950 . S
H842 C871 0.950 . S
H843 C872 0.950 . S
H844 C874 0.950 . S
H845 C875 0.950 . S
C846 H828 0.951 . S
C846 C847 1.366 . S
C846 C848 1.388 . S
C847 C846 1.366 . S
C847 C851 1.385 . S
C848 H829 0.951 . S
C848 C846 1.388 . S
C848 C849 1.366 . S
C849 C848 1.366 . S
C849 C850 1.414 . S
C849 C852 1.499 . S
C850 H830 0.950 . S
C850 C849 1.414 . S
C850 C851 1.374 . S
C851 H831 0.950 . S
C851 C847 1.385 . S
C851 C850 1.374 . S
C852 C849 1.499 . S
C852 C853 1.373 . S
C852 C854 1.389 . S
C853 H832 0.950 . S
C853 C852 1.373 . S
C853 C869 1.377 . S
C854 C852 1.389 . S
C854 C855 1.524 . S
C854 C868 1.377 . S
C855 C854 1.524 . S
C855 C856 1.397 . S
C855 C860 1.363 . S
C856 H833 0.950 . S
C856 C855 1.397 . S
C856 C857 1.334 . S
C857 H834 0.950 . S
C857 C856 1.334 . S
C857 C858 1.287 . S
C858 C857 1.287 . S
C858 C859 1.524 . S
C858 H877 0.913 . S
C859 H835 0.950 . S
C859 C858 1.524 . S
C859 C860 1.415 . S
C860 H836 0.950 . S
C860 C855 1.363 . S
C860 C859 1.415 . S
C861 H837 0.951 . S
C861 C862 1.366 . S
C861 C863 1.388 . S
C862 C861 1.366 . S
C862 C866 1.385 . S
C863 H838 0.951 . S
C863 C861 1.388 . S
C863 C864 1.366 . S
C864 C863 1.366 . S
C864 C865 1.414 . S
C864 C867 1.499 . S
C865 H839 0.950 . S
C865 C864 1.414 . S
C865 C866 1.374 . S
C866 H840 0.950 . S
C866 C862 1.385 . S
C866 C865 1.374 . S
C867 C864 1.499 . S
C867 C868 1.373 . S
C867 C869 1.389 . S
C868 H841 0.950 . S
C868 C854 1.377 . S
C868 C867 1.373 . S
C869 C853 1.377 . S
C869 C867 1.389 . S
C869 C870 1.524 . S
C870 C869 1.524 . S
C870 C871 1.397 . S
C870 C875 1.363 . S
C871 H842 0.950 . S
C871 C870 1.397 . S
C871 C872 1.334 . S
C872 H843 0.950 . S
C872 C871 1.334 . S
C872 C873 1.287 . S
C873 C872 1.287 . S
C873 C874 1.524 . S
C873 H876 0.999 . S
C874 H844 0.950 . S
C874 C873 1.524 . S
C874 C875 1.415 . S
C875 H845 0.950 . S
C875 C870 1.363 . S
C875 C874 1.415 . S
H876 C873 0.999 . S
H877 C858 0.913 . S
H878 C896 0.951 . S
H879 C898 0.951 . S
H880 C900 0.950 . S
H881 C901 0.950 . S
H882 C903 0.950 . S
H883 C906 0.950 . S
H884 C907 0.950 . S
H885 C909 0.950 . S
H886 C910 0.950 . S
H887 C911 0.951 . S
H888 C913 0.951 . S
H889 C915 0.950 . S
H890 C916 0.950 . S
H891 C918 0.950 . S
H892 C921 0.950 . S
H893 C922 0.950 . S
H894 C924 0.950 . S
H895 C925 0.950 . S
C896 H878 0.951 . S
C896 C897 1.366 . S
C896 C898 1.388 . S
C897 C896 1.366 . S
C897 C901 1.385 . S
C898 H879 0.951 . S
C898 C896 1.388 . S
C898 C899 1.366 . S
C899 C898 1.366 . S
C899 C900 1.414 . S
C899 C902 1.499 . S
C900 H880 0.950 . S
C900 C899 1.414 . S
C900 C901 1.374 . S
C901 H881 0.950 . S
C901 C897 1.385 . S
C901 C900 1.374 . S
C902 C899 1.499 . S
C902 C903 1.373 . S
C902 C904 1.389 . S
C903 H882 0.950 . S
C903 C902 1.373 . S
C903 C919 1.377 . S
C904 C902 1.389 . S
C904 C905 1.524 . S
C904 C918 1.377 . S
C905 C904 1.524 . S
C905 C906 1.397 . S
C905 C910 1.363 . S
C906 H883 0.950 . S
C906 C905 1.397 . S
C906 C907 1.334 . S
C907 H884 0.950 . S
C907 C906 1.334 . S
C907 C908 1.287 . S
C908 C907 1.287 . S
C908 C909 1.524 . S
C908 H927 0.913 . S
C909 H885 0.950 . S
C909 C908 1.524 . S
C909 C910 1.415 . S
C910 H886 0.950 . S
C910 C905 1.363 . S
C910 C909 1.415 . S
C911 H887 0.951 . S
C911 C912 1.366 . S
C911 C913 1.388 . S
C912 C911 1.366 . S
C912 C916 1.385 . S
C913 H888 0.951 . S
C913 C911 1.388 . S
C913 C914 1.366 . S
C914 C913 1.366 . S
C914 C915 1.414 . S
C914 C917 1.499 . S
C915 H889 0.950 . S
C915 C914 1.414 . S
C915 C916 1.374 . S
C916 H890 0.950 . S
C916 C912 1.385 . S
C916 C915 1.374 . S
C917 C914 1.499 . S
C917 C918 1.373 . S
C917 C919 1.389 . S
C918 H891 0.950 . S
C918 C904 1.377 . S
C918 C917 1.373 . S
C919 C903 1.377 . S
C919 C917 1.389 . S
C919 C920 1.524 . S
C920 C919 1.524 . S
C920 C921 1.397 . S
C920 C925 1.363 . S
C921 H892 0.950 . S
C921 C920 1.397 . S
C921 C922 1.334 . S
C922 H893 0.950 . S
C922 C921 1.334 . S
C922 C923 1.287 . S
C923 C922 1.287 . S
C923 C924 1.524 . S
C923 H926 0.999 . S
C924 H894 0.950 . S
C924 C923 1.524 . S
C924 C925 1.415 . S
C925 H895 0.950 . S
C925 C920 1.363 . S
C925 C924 1.415 . S
H926 C923 0.999 . S
H927 C908 0.913 . S
H928 C946 0.951 . S
H929 C948 0.951 . S
H930 C950 0.950 . S
H931 C951 0.950 . S
H932 C953 0.950 . S
H933 C956 0.950 . S
H934 C957 0.950 . S
H935 C959 0.950 . S
H936 C960 0.950 . S
H937 C961 0.951 . S
H938 C963 0.951 . S
H939 C965 0.950 . S
H940 C966 0.950 . S
H941 C968 0.950 . S
H942 C971 0.950 . S
H943 C972 0.950 . S
H944 C974 0.950 . S
H945 C975 0.950 . S
C946 H928 0.951 . S
C946 C947 1.366 . S
C946 C948 1.388 . S
C947 C946 1.366 . S
C947 C951 1.385 . S
C948 H929 0.951 . S
C948 C946 1.388 . S
C948 C949 1.366 . S
C949 C948 1.366 . S
C949 C950 1.414 . S
C949 C952 1.499 . S
C950 H930 0.950 . S
C950 C949 1.414 . S
C950 C951 1.374 . S
C951 H931 0.950 . S
C951 C947 1.385 . S
C951 C950 1.374 . S
C952 C949 1.499 . S
C952 C953 1.373 1_554 S
C952 C954 1.389 . S
C953 H932 0.950 . S
C953 C952 1.373 1_556 S
C953 C969 1.377 . S
C954 C952 1.389 . S
C954 C955 1.524 . S
C954 C968 1.377 . S
C955 C954 1.524 . S
C955 C956 1.397 . S
C955 C960 1.363 . S
C956 H933 0.950 . S
C956 C955 1.397 . S
C956 C957 1.334 . S
C957 H934 0.950 . S
C957 C956 1.334 . S
C957 C958 1.287 . S
C958 C957 1.287 . S
C958 C959 1.524 . S
C958 H977 0.913 . S
C959 H935 0.950 . S
C959 C958 1.524 . S
C959 C960 1.415 . S
C960 H936 0.950 . S
C960 C955 1.363 . S
C960 C959 1.415 . S
C961 H937 0.951 . S
C961 C962 1.366 . S
C961 C963 1.388 . S
C962 C961 1.366 . S
C962 C966 1.385 . S
C963 H938 0.951 . S
C963 C961 1.388 . S
C963 C964 1.366 . S
C964 C963 1.366 . S
C964 C965 1.414 . S
C964 C967 1.499 . S
C965 H939 0.950 . S
C965 C964 1.414 . S
C965 C966 1.374 . S
C966 H940 0.950 . S
C966 C962 1.385 . S
C966 C965 1.374 . S
C967 C964 1.499 . S
C967 C968 1.373 1_556 S
C967 C969 1.389 . S
C968 H941 0.950 . S
C968 C954 1.377 . S
C968 C967 1.373 1_554 S
C969 C953 1.377 . S
C969 C967 1.389 . S
C969 C970 1.524 . S
C970 C969 1.524 . S
C970 C971 1.397 . S
C970 C975 1.363 . S
C971 H942 0.950 . S
C971 C970 1.397 . S
C971 C972 1.334 . S
C972 H943 0.950 . S
C972 C971 1.334 . S
C972 C973 1.287 . S
C973 C972 1.287 . S
C973 C974 1.524 . S
C973 H976 0.999 . S
C974 H944 0.950 . S
C974 C973 1.524 . S
C974 C975 1.415 . S
C975 H945 0.950 . S
C975 C970 1.363 . S
C975 C974 1.415 . S
H976 C973 0.999 . S
H977 C958 0.913 . S
H978 C996 0.951 . S
H979 C998 0.951 . S
H980 C1000 0.950 . S
H981 C1001 0.950 . S
H982 C1003 0.950 . S
H983 C1006 0.950 . S
H984 C1007 0.950 . S
H985 C1009 0.950 . S
H986 C1010 0.950 . S
H987 C1011 0.951 . S
H988 C1013 0.951 . S
H989 C1015 0.950 . S
H990 C1016 0.950 . S
H991 C1018 0.950 . S
H992 C1021 0.950 . S
H993 C1022 0.950 . S
H994 C1024 0.950 . S
H995 C1025 0.950 . S
C996 H978 0.951 . S
C996 C997 1.366 . S
C996 C998 1.388 . S
C997 C996 1.366 . S
C997 C1001 1.385 . S
C998 H979 0.951 . S
C998 C996 1.388 . S
C998 C999 1.366 . S
C999 C998 1.366 . S
C999 C1000 1.414 . S
C999 C1002 1.499 . S
C1000 H980 0.950 . S
C1000 C999 1.414 . S
C1000 C1001 1.374 . S
C1001 H981 0.950 . S
C1001 C997 1.385 . S
C1001 C1000 1.374 . S
C1002 C999 1.499 . S
C1002 C1003 1.373 . S
C1002 C1004 1.389 1_554 S
C1003 H982 0.950 . S
C1003 C1002 1.373 . S
C1003 C1019 1.377 1_554 S
C1004 C1002 1.389 1_556 S
C1004 C1005 1.524 . S
C1004 C1018 1.377 . S
C1005 C1004 1.524 . S
C1005 C1006 1.397 1_556 S
C1005 C1010 1.363 . S
C1006 H983 0.950 . S
C1006 C1005 1.397 1_554 S
C1006 C1007 1.334 . S
C1007 H984 0.950 . S
C1007 C1006 1.334 . S
C1007 C1008 1.287 1_554 S
C1008 C1007 1.287 1_556 S
C1008 C1009 1.524 . S
C1008 H1027 0.913 . S
C1009 H985 0.950 . S
C1009 C1008 1.524 . S
C1009 C1010 1.415 . S
C1010 H986 0.950 . S
C1010 C1005 1.363 . S
C1010 C1009 1.415 . S
C1011 H987 0.951 . S
C1011 C1012 1.366 . S
C1011 C1013 1.388 . S
C1012 C1011 1.366 . S
C1012 C1016 1.385 . S
C1013 H988 0.951 . S
C1013 C1011 1.388 . S
C1013 C1014 1.366 . S
C1014 C1013 1.366 . S
C1014 C1015 1.414 . S
C1014 C1017 1.499 . S
C1015 H989 0.950 . S
C1015 C1014 1.414 . S
C1015 C1016 1.374 . S
C1016 H990 0.950 . S
C1016 C1012 1.385 . S
C1016 C1015 1.374 . S
C1017 C1014 1.499 . S
C1017 C1018 1.373 . S
C1017 C1019 1.389 . S
C1018 H991 0.950 . S
C1018 C1004 1.377 . S
C1018 C1017 1.373 . S
C1019 C1003 1.377 1_556 S
C1019 C1017 1.389 . S
C1019 C1020 1.525 1_556 S
C1020 C1019 1.525 1_554 S
C1020 C1021 1.399 1_554 S
C1020 C1025 1.360 . S
C1021 H992 0.950 . S
C1021 C1020 1.399 1_556 S
C1021 C1022 1.334 . S
C1022 H993 0.950 . S
C1022 C1021 1.334 . S
C1022 C1023 1.328 . S
C1023 C1022 1.328 . S
C1023 C1024 1.482 1_556 S
C1023 H1026 0.998 1_556 S
C1024 H994 0.950 . S
C1024 C1023 1.482 1_554 S
C1024 C1025 1.415 . S
C1025 H995 0.950 . S
C1025 C1020 1.360 . S
C1025 C1024 1.415 . S
H1026 C1023 0.998 1_554 S
H1027 C1008 0.913 . S
H1028 C1046 0.951 . S
H1029 C1048 0.951 . S
H1030 C1050 0.950 . S
H1031 C1051 0.950 . S
H1032 C1053 0.950 . S
H1033 C1056 0.950 . S
H1034 C1057 0.950 . S
H1035 C1059 0.950 . S
H1036 C1060 0.950 . S
H1037 C1061 0.951 . S
H1038 C1063 0.951 . S
H1039 C1065 0.950 . S
H1040 C1066 0.950 . S
H1041 C1068 0.950 . S
H1042 C1071 0.950 . S
H1043 C1072 0.950 . S
H1044 C1074 0.950 . S
H1045 C1075 0.950 . S
C1046 H1028 0.951 . S
C1046 C1047 1.366 . S
C1046 C1048 1.388 . S
C1047 C1046 1.366 . S
C1047 C1051 1.385 . S
C1048 H1029 0.951 . S
C1048 C1046 1.388 . S
C1048 C1049 1.366 . S
C1049 C1048 1.366 . S
C1049 C1050 1.414 . S
C1049 C1052 1.499 . S
C1050 H1030 0.950 . S
C1050 C1049 1.414 . S
C1050 C1051 1.374 . S
C1051 H1031 0.950 . S
C1051 C1047 1.385 . S
C1051 C1050 1.374 . S
C1052 C1049 1.499 . S
C1052 C1053 1.373 . S
C1052 C1054 1.389 . S
C1053 H1032 0.950 . S
C1053 C1052 1.373 . S
C1053 C1069 1.377 . S
C1054 C1052 1.389 . S
C1054 C1055 1.524 . S
C1054 C1068 1.377 . S
C1055 C1054 1.524 . S
C1055 C1056 1.397 . S
C1055 C1060 1.363 . S
C1056 H1033 0.950 . S
C1056 C1055 1.397 . S
C1056 C1057 1.334 . S
C1057 H1034 0.950 . S
C1057 C1056 1.334 . S
C1057 C1058 1.287 . S
C1058 C1057 1.287 . S
C1058 C1059 1.524 . S
C1058 H1077 0.913 . S
C1059 H1035 0.950 . S
C1059 C1058 1.524 . S
C1059 C1060 1.415 . S
C1060 H1036 0.950 . S
C1060 C1055 1.363 . S
C1060 C1059 1.415 . S
C1061 H1037 0.951 . S
C1061 C1062 1.366 . S
C1061 C1063 1.388 . S
C1062 C1061 1.366 . S
C1062 C1066 1.385 . S
C1063 H1038 0.951 . S
C1063 C1061 1.388 . S
C1063 C1064 1.366 . S
C1064 C1063 1.366 . S
C1064 C1065 1.414 . S
C1064 C1067 1.499 . S
C1065 H1039 0.950 . S
C1065 C1064 1.414 . S
C1065 C1066 1.374 . S
C1066 H1040 0.950 . S
C1066 C1062 1.385 . S
C1066 C1065 1.374 . S
C1067 C1064 1.499 . S
C1067 C1068 1.373 . S
C1067 C1069 1.389 . S
C1068 H1041 0.950 . S
C1068 C1054 1.377 . S
C1068 C1067 1.373 . S
C1069 C1053 1.377 . S
C1069 C1067 1.389 . S
C1069 C1070 1.524 . S
C1070 C1069 1.524 . S
C1070 C1071 1.397 . S
C1070 C1075 1.363 . S
C1071 H1042 0.950 . S
C1071 C1070 1.397 . S
C1071 C1072 1.334 . S
C1072 H1043 0.950 . S
C1072 C1071 1.334 . S
C1072 C1073 1.287 . S
C1073 C1072 1.287 . S
C1073 C1074 1.524 . S
C1073 H1076 0.999 . S
C1074 H1044 0.950 . S
C1074 C1073 1.524 . S
C1074 C1075 1.415 . S
C1075 H1045 0.950 . S
C1075 C1070 1.363 . S
C1075 C1074 1.415 . S
H1076 C1073 0.999 . S
H1077 C1058 0.913 . S
H1078 C1096 0.951 . S
H1079 C1098 0.951 . S
H1080 C1100 0.950 . S
H1081 C1101 0.950 . S
H1082 C1103 0.950 . S
H1083 C1106 0.950 . S
H1084 C1107 0.950 . S
H1085 C1109 0.950 . S
H1086 C1110 0.950 . S
H1087 C1111 0.951 . S
H1088 C1113 0.951 . S
H1089 C1115 0.950 . S
H1090 C1116 0.950 . S
H1091 C1118 0.950 . S
H1092 C1121 0.950 . S
H1093 C1122 0.950 . S
H1094 C1124 0.950 . S
H1095 C1125 0.950 . S
C1096 H1078 0.951 . S
C1096 C1097 1.366 . S
C1096 C1098 1.388 . S
C1097 C1096 1.366 . S
C1097 C1101 1.385 . S
C1098 H1079 0.951 . S
C1098 C1096 1.388 . S
C1098 C1099 1.366 . S
C1099 C1098 1.366 . S
C1099 C1100 1.414 . S
C1099 C1102 1.499 . S
C1100 H1080 0.950 . S
C1100 C1099 1.414 . S
C1100 C1101 1.374 . S
C1101 H1081 0.950 . S
C1101 C1097 1.385 . S
C1101 C1100 1.374 . S
C1102 C1099 1.499 . S
C1102 C1103 1.373 . S
C1102 C1104 1.389 . S
C1103 H1082 0.950 . S
C1103 C1102 1.373 . S
C1103 C1119 1.377 . S
C1104 C1102 1.389 . S
C1104 C1105 1.524 . S
C1104 C1118 1.377 . S
C1105 C1104 1.524 . S
C1105 C1106 1.397 . S
C1105 C1110 1.363 . S
C1106 H1083 0.950 . S
C1106 C1105 1.397 . S
C1106 C1107 1.334 . S
C1107 H1084 0.950 . S
C1107 C1106 1.334 . S
C1107 C1108 1.287 . S
C1108 C1107 1.287 . S
C1108 C1109 1.524 . S
C1108 H1127 0.913 . S
C1109 H1085 0.950 . S
C1109 C1108 1.524 . S
C1109 C1110 1.415 . S
C1110 H1086 0.950 . S
C1110 C1105 1.363 . S
C1110 C1109 1.415 . S
C1111 H1087 0.951 . S
C1111 C1112 1.366 . S
C1111 C1113 1.388 . S
C1112 C1111 1.366 . S
C1112 C1116 1.385 . S
C1113 H1088 0.951 . S
C1113 C1111 1.388 . S
C1113 C1114 1.366 . S
C1114 C1113 1.366 . S
C1114 C1115 1.414 . S
C1114 C1117 1.499 . S
C1115 H1089 0.950 . S
C1115 C1114 1.414 . S
C1115 C1116 1.374 . S
C1116 H1090 0.950 . S
C1116 C1112 1.385 . S
C1116 C1115 1.374 . S
C1117 C1114 1.499 . S
C1117 C1118 1.373 . S
C1117 C1119 1.389 . S
C1118 H1091 0.950 . S
C1118 C1104 1.377 . S
C1118 C1117 1.373 . S
C1119 C1103 1.377 . S
C1119 C1117 1.389 . S
C1119 C1120 1.524 . S
C1120 C1119 1.524 . S
C1120 C1121 1.397 . S
C1120 C1125 1.363 . S
C1121 H1092 0.950 . S
C1121 C1120 1.397 . S
C1121 C1122 1.334 . S
C1122 H1093 0.950 . S
C1122 C1121 1.334 . S
C1122 C1123 1.287 . S
C1123 C1122 1.287 . S
C1123 C1124 1.524 . S
C1123 H1126 0.999 . S
C1124 H1094 0.950 . S
C1124 C1123 1.524 . S
C1124 C1125 1.415 . S
C1125 H1095 0.950 . S
C1125 C1120 1.363 . S
C1125 C1124 1.415 . S
H1126 C1123 0.999 . S
H1127 C1108 0.913 . S
H1128 C1146 0.951 . S
H1129 C1148 0.951 . S
H1130 C1150 0.950 . S
H1131 C1151 0.950 . S
H1132 C1153 0.950 . S
H1133 C1156 0.950 . S
H1134 C1157 0.950 . S
H1135 C1159 0.950 . S
H1136 C1160 0.950 . S
H1137 C1161 0.951 . S
H1138 C1163 0.951 . S
H1139 C1165 0.950 . S
H1140 C1166 0.950 . S
H1141 C1168 0.950 . S
H1142 C1171 0.950 . S
H1143 C1172 0.950 . S
H1144 C1174 0.950 . S
H1145 C1175 0.950 . S
C1146 H1128 0.951 . S
C1146 C1147 1.366 . S
C1146 C1148 1.388 . S
C1147 C1146 1.366 . S
C1147 C1151 1.385 . S
C1148 H1129 0.951 . S
C1148 C1146 1.388 . S
C1148 C1149 1.366 . S
C1149 C1148 1.366 . S
C1149 C1150 1.414 . S
C1149 C1152 1.499 . S
C1150 H1130 0.950 . S
C1150 C1149 1.414 . S
C1150 C1151 1.374 . S
C1151 H1131 0.950 . S
C1151 C1147 1.385 . S
C1151 C1150 1.374 . S
C1152 C1149 1.499 . S
C1152 C1153 1.373 . S
C1152 C1154 1.389 . S
C1153 H1132 0.950 . S
C1153 C1152 1.373 . S
C1153 C1169 1.377 1_556 S
C1154 C1152 1.389 . S
C1154 C1155 1.524 . S
C1154 C1168 1.377 . S
C1155 C1154 1.524 . S
C1155 C1156 1.397 . S
C1155 C1160 1.363 . S
C1156 H1133 0.950 . S
C1156 C1155 1.397 . S
C1156 C1157 1.334 . S
C1157 H1134 0.950 . S
C1157 C1156 1.334 . S
C1157 C1158 1.287 . S
C1158 C1157 1.287 . S
C1158 C1159 1.524 . S
C1158 H1177 0.913 . S
C1159 H1135 0.950 . S
C1159 C1158 1.524 . S
C1159 C1160 1.415 . S
C1160 H1136 0.950 . S
C1160 C1155 1.363 . S
C1160 C1159 1.415 . S
C1161 H1137 0.951 . S
C1161 C1162 1.366 . S
C1161 C1163 1.388 . S
C1162 C1161 1.366 . S
C1162 C1166 1.385 . S
C1163 H1138 0.951 . S
C1163 C1161 1.388 . S
C1163 C1164 1.366 . S
C1164 C1163 1.366 . S
C1164 C1165 1.414 . S
C1164 C1167 1.499 1_554 S
C1165 H1139 0.950 . S
C1165 C1164 1.414 . S
C1165 C1166 1.374 . S
C1166 H1140 0.950 . S
C1166 C1162 1.385 . S
C1166 C1165 1.374 . S
C1167 C1164 1.499 1_556 S
C1167 C1168 1.373 . S
C1167 C1169 1.389 1_556 S
C1168 H1141 0.950 . S
C1168 C1154 1.377 . S
C1168 C1167 1.373 . S
C1169 C1153 1.377 1_554 S
C1169 C1167 1.389 1_554 S
C1169 C1170 1.524 . S
C1170 C1169 1.524 . S
C1170 C1171 1.397 . S
C1170 C1175 1.363 . S
C1171 H1142 0.950 . S
C1171 C1170 1.397 . S
C1171 C1172 1.334 . S
C1172 H1143 0.950 . S
C1172 C1171 1.334 . S
C1172 C1173 1.287 . S
C1173 C1172 1.287 . S
C1173 C1174 1.524 . S
C1173 H1176 0.999 . S
C1174 H1144 0.950 . S
C1174 C1173 1.524 . S
C1174 C1175 1.415 . S
C1175 H1145 0.950 . S
C1175 C1170 1.363 . S
C1175 C1174 1.415 . S
H1176 C1173 0.999 . S
H1177 C1158 0.913 . S
H1178 C1196 0.951 . S
H1179 C1198 0.951 . S
H1180 C1200 0.950 . S
H1181 C1201 0.950 . S
H1182 C1203 0.950 . S
H1183 C1206 0.950 . S
H1184 C1207 0.950 . S
H1185 C1209 0.950 . S
H1186 C1210 0.950 . S
H1187 C1211 0.951 . S
H1188 C1213 0.951 1_556 S
H1189 C1215 0.950 . S
H1190 C1216 0.950 . S
H1191 C1218 0.950 . S
H1192 C1221 0.950 . S
H1193 C1222 0.950 . S
H1194 C1224 0.950 . S
H1195 C1225 0.950 . S
C1196 H1178 0.951 . S
C1196 C1197 1.366 . S
C1196 C1198 1.388 . S
C1197 C1196 1.366 . S
C1197 C1201 1.385 . S
C1198 H1179 0.951 . S
C1198 C1196 1.388 . S
C1198 C1199 1.366 . S
C1199 C1198 1.366 . S
C1199 C1200 1.414 . S
C1199 C1202 1.499 . S
C1200 H1180 0.950 . S
C1200 C1199 1.414 . S
C1200 C1201 1.374 . S
C1201 H1181 0.950 . S
C1201 C1197 1.385 . S
C1201 C1200 1.374 . S
C1202 C1199 1.499 . S
C1202 C1203 1.373 . S
C1202 C1204 1.389 . S
C1203 H1182 0.950 . S
C1203 C1202 1.373 . S
C1203 C1219 1.377 . S
C1204 C1202 1.389 . S
C1204 C1205 1.522 1_556 S
C1204 C1218 1.377 1_556 S
C1205 C1204 1.522 1_554 S
C1205 C1206 1.394 1_554 S
C1205 C1210 1.368 . S
C1206 H1183 0.950 . S
C1206 C1205 1.394 1_556 S
C1206 C1207 1.334 . S
C1207 H1184 0.950 . S
C1207 C1206 1.334 . S
C1207 C1208 1.287 1_556 S
C1208 C1207 1.287 1_554 S
C1208 C1209 1.524 . S
C1208 H1227 0.913 . S
C1209 H1185 0.950 . S
C1209 C1208 1.524 . S
C1209 C1210 1.415 . S
C1210 H1186 0.950 . S
C1210 C1205 1.368 . S
C1210 C1209 1.415 . S
C1211 H1187 0.951 . S
C1211 C1212 1.366 . S
C1211 C1213 1.388 . S
C1212 C1211 1.366 . S
C1212 C1216 1.385 . S
C1213 H1188 0.951 1_554 S
C1213 C1211 1.388 . S
C1213 C1214 1.366 . S
C1214 C1213 1.366 . S
C1214 C1215 1.414 . S
C1214 C1217 1.499 1_554 S
C1215 H1189 0.950 . S
C1215 C1214 1.414 . S
C1215 C1216 1.374 . S
C1216 H1190 0.950 . S
C1216 C1212 1.385 . S
C1216 C1215 1.374 . S
C1217 C1214 1.499 1_556 S
C1217 C1218 1.373 1_556 S
C1217 C1219 1.389 . S
C1218 H1191 0.950 . S
C1218 C1204 1.377 1_554 S
C1218 C1217 1.373 1_554 S
C1219 C1203 1.377 . S
C1219 C1217 1.389 . S
C1219 C1220 1.524 . S
C1220 C1219 1.524 . S
C1220 C1221 1.397 . S
C1220 C1225 1.363 . S
C1221 H1192 0.950 . S
C1221 C1220 1.397 . S
C1221 C1222 1.334 . S
C1222 H1193 0.950 . S
C1222 C1221 1.334 . S
C1222 C1223 1.287 . S
C1223 C1222 1.287 . S
C1223 C1224 1.524 . S
C1223 H1226 0.999 . S
C1224 H1194 0.950 . S
C1224 C1223 1.524 . S
C1224 C1225 1.415 . S
C1225 H1195 0.950 . S
C1225 C1220 1.363 . S
C1225 C1224 1.415 . S
H1226 C1223 0.999 . S
H1227 C1208 0.913 . S
H1228 C1246 0.951 . S
H1229 C1248 0.951 . S
H1230 C1250 0.950 . S
H1231 C1251 0.950 . S
H1232 C1253 0.950 . S
H1233 C1256 0.950 . S
H1234 C1257 0.950 . S
H1235 C1259 0.950 . S
H1236 C1260 0.950 . S
H1237 C1261 0.951 . S
H1238 C1263 0.951 . S
H1239 C1265 0.950 . S
H1240 C1266 0.950 . S
H1241 C1268 0.950 . S
H1242 C1271 0.950 . S
H1243 C1272 0.950 . S
H1244 C1274 0.950 . S
H1245 C1275 0.950 . S
C1246 H1228 0.951 . S
C1246 C1247 1.366 . S
C1246 C1248 1.388 . S
C1247 C1246 1.366 . S
C1247 C1251 1.385 . S
C1248 H1229 0.951 . S
C1248 C1246 1.388 . S
C1248 C1249 1.366 . S
C1249 C1248 1.366 . S
C1249 C1250 1.414 . S
C1249 C1252 1.499 . S
C1250 H1230 0.950 . S
C1250 C1249 1.414 . S
C1250 C1251 1.374 . S
C1251 H1231 0.950 . S
C1251 C1247 1.385 . S
C1251 C1250 1.374 . S
C1252 C1249 1.499 . S
C1252 C1253 1.373 . S
C1252 C1254 1.389 . S
C1253 H1232 0.950 . S
C1253 C1252 1.373 . S
C1253 C1269 1.377 . S
C1254 C1252 1.389 . S
C1254 C1255 1.524 . S
C1254 C1268 1.377 . S
C1255 C1254 1.524 . S
C1255 C1256 1.397 . S
C1255 C1260 1.363 . S
C1256 H1233 0.950 . S
C1256 C1255 1.397 . S
C1256 C1257 1.334 . S
C1257 H1234 0.950 . S
C1257 C1256 1.334 . S
C1257 C1258 1.287 . S
C1258 C1257 1.287 . S
C1258 C1259 1.524 . S
C1258 H1277 0.913 . S
C1259 H1235 0.950 . S
C1259 C1258 1.524 . S
C1259 C1260 1.415 . S
C1260 H1236 0.950 . S
C1260 C1255 1.363 . S
C1260 C1259 1.415 . S
C1261 H1237 0.951 . S
C1261 C1262 1.366 . S
C1261 C1263 1.388 . S
C1262 C1261 1.366 . S
C1262 C1266 1.385 . S
C1263 H1238 0.951 . S
C1263 C1261 1.388 . S
C1263 C1264 1.366 . S
C1264 C1263 1.366 . S
C1264 C1265 1.414 . S
C1264 C1267 1.499 . S
C1265 H1239 0.950 . S
C1265 C1264 1.414 . S
C1265 C1266 1.374 . S
C1266 H1240 0.950 . S
C1266 C1262 1.385 . S
C1266 C1265 1.374 . S
C1267 C1264 1.499 . S
C1267 C1268 1.373 . S
C1267 C1269 1.389 . S
C1268 H1241 0.950 . S
C1268 C1254 1.377 . S
C1268 C1267 1.373 . S
C1269 C1253 1.377 . S
C1269 C1267 1.389 . S
C1269 C1270 1.524 . S
C1270 C1269 1.524 . S
C1270 C1271 1.397 . S
C1270 C1275 1.363 . S
C1271 H1242 0.950 . S
C1271 C1270 1.397 . S
C1271 C1272 1.334 . S
C1272 H1243 0.950 . S
C1272 C1271 1.334 . S
C1272 C1273 1.287 . S
C1273 C1272 1.287 . S
C1273 C1274 1.524 . S
C1273 H1276 0.999 . S
C1274 H1244 0.950 . S
C1274 C1273 1.524 . S
C1274 C1275 1.415 . S
C1275 H1245 0.950 . S
C1275 C1270 1.363 . S
C1275 C1274 1.415 . S
H1276 C1273 0.999 . S
H1277 C1258 0.913 . S
H1278 C1296 0.951 . S
H1279 C1298 0.951 . S
H1280 C1300 0.950 . S
H1281 C1301 0.950 . S
H1282 C1303 0.950 . S
H1283 C1306 0.950 . S
H1284 C1307 0.950 . S
H1285 C1309 0.950 . S
H1286 C1310 0.950 . S
H1287 C1311 0.951 . S
H1288 C1313 0.951 . S
H1289 C1315 0.950 . S
H1290 C1316 0.950 . S
H1291 C1318 0.950 . S
H1292 C1321 0.950 . S
H1293 C1322 0.950 . S
H1294 C1324 0.950 . S
H1295 C1325 0.950 . S
C1296 H1278 0.951 . S
C1296 C1297 1.366 . S
C1296 C1298 1.388 . S
C1297 C1296 1.366 . S
C1297 C1301 1.385 . S
C1298 H1279 0.951 . S
C1298 C1296 1.388 . S
C1298 C1299 1.366 . S
C1299 C1298 1.366 . S
C1299 C1300 1.414 . S
C1299 C1302 1.499 . S
C1300 H1280 0.950 . S
C1300 C1299 1.414 . S
C1300 C1301 1.374 . S
C1301 H1281 0.950 . S
C1301 C1297 1.385 . S
C1301 C1300 1.374 . S
C1302 C1299 1.499 . S
C1302 C1303 1.373 . S
C1302 C1304 1.389 . S
C1303 H1282 0.950 . S
C1303 C1302 1.373 . S
C1303 C1319 1.377 . S
C1304 C1302 1.389 . S
C1304 C1305 1.524 . S
C1304 C1318 1.377 . S
C1305 C1304 1.524 . S
C1305 C1306 1.397 . S
C1305 C1310 1.363 . S
C1306 H1283 0.950 . S
C1306 C1305 1.397 . S
C1306 C1307 1.334 . S
C1307 H1284 0.950 . S
C1307 C1306 1.334 . S
C1307 C1308 1.287 . S
C1308 C1307 1.287 . S
C1308 C1309 1.524 . S
C1308 H1327 0.913 . S
C1309 H1285 0.950 . S
C1309 C1308 1.524 . S
C1309 C1310 1.415 . S
C1310 H1286 0.950 . S
C1310 C1305 1.363 . S
C1310 C1309 1.415 . S
C1311 H1287 0.951 . S
C1311 C1312 1.366 . S
C1311 C1313 1.388 . S
C1312 C1311 1.366 . S
C1312 C1316 1.385 . S
C1313 H1288 0.951 . S
C1313 C1311 1.388 . S
C1313 C1314 1.366 . S
C1314 C1313 1.366 . S
C1314 C1315 1.414 . S
C1314 C1317 1.499 . S
C1315 H1289 0.950 . S
C1315 C1314 1.414 . S
C1315 C1316 1.374 . S
C1316 H1290 0.950 . S
C1316 C1312 1.385 . S
C1316 C1315 1.374 . S
C1317 C1314 1.499 . S
C1317 C1318 1.373 . S
C1317 C1319 1.389 . S
C1318 H1291 0.950 . S
C1318 C1304 1.377 . S
C1318 C1317 1.373 . S
C1319 C1303 1.377 . S
C1319 C1317 1.389 . S
C1319 C1320 1.524 . S
C1320 C1319 1.524 . S
C1320 C1321 1.397 . S
C1320 C1325 1.363 . S
C1321 H1292 0.950 . S
C1321 C1320 1.397 . S
C1321 C1322 1.334 . S
C1322 H1293 0.950 . S
C1322 C1321 1.334 . S
C1322 C1323 1.287 . S
C1323 C1322 1.287 . S
C1323 C1324 1.524 . S
C1323 H1326 0.999 . S
C1324 H1294 0.950 . S
C1324 C1323 1.524 . S
C1324 C1325 1.415 . S
C1325 H1295 0.950 . S
C1325 C1320 1.363 . S
C1325 C1324 1.415 . S
H1326 C1323 0.999 . S
H1327 C1308 0.913 . S
H1328 C1346 0.951 . S
H1329 C1348 0.951 . S
H1330 C1350 0.950 . S
H1331 C1351 0.950 . S
H1332 C1353 0.950 . S
H1333 C1356 0.950 . S
H1334 C1357 0.952 . S
H1335 C1359 0.946 . S
H1336 C1360 0.950 . S
H1337 C1361 0.951 . S
H1338 C1363 0.951 . S
H1339 C1365 0.950 . S
H1340 C1366 0.950 . S
H1341 C1368 0.950 . S
H1342 C1371 0.950 . S
H1343 C1372 0.950 . S
H1344 C1374 0.950 . S
H1345 C1375 0.950 . S
C1346 H1328 0.951 . S
C1346 C1347 1.366 . S
C1346 C1348 1.388 . S
C1347 C1346 1.366 . S
C1347 C1351 1.385 . S
C1348 H1329 0.951 . S
C1348 C1346 1.388 . S
C1348 C1349 1.366 . S
C1349 C1348 1.366 . S
C1349 C1350 1.414 . S
C1349 C1352 1.499 . S
C1350 H1330 0.950 . S
C1350 C1349 1.414 . S
C1350 C1351 1.374 . S
C1351 H1331 0.950 . S
C1351 C1347 1.385 . S
C1351 C1350 1.374 . S
C1352 C1349 1.499 . S
C1352 C1353 1.373 . S
C1352 C1354 1.389 . S
C1353 H1332 0.950 . S
C1353 C1352 1.373 . S
C1353 C1369 1.377 1_545 S
C1354 C1352 1.389 . S
C1354 C1355 1.524 . S
C1354 C1368 1.377 1_545 S
C1355 C1354 1.524 . S
C1355 C1356 1.397 . S
C1355 C1360 1.363 . S
C1356 H1333 0.950 . S
C1356 C1355 1.397 . S
C1356 C1357 1.334 . S
C1357 H1334 0.952 . S
C1357 C1356 1.334 . S
C1357 C1358 1.287 1_554 S
C1358 C1357 1.287 1_556 S
C1358 C1359 1.522 . S
C1358 H1377 0.913 . S
C1359 H1335 0.946 . S
C1359 C1358 1.522 . S
C1359 C1360 1.421 1_556 S
C1360 H1336 0.950 . S
C1360 C1355 1.363 . S
C1360 C1359 1.421 1_554 S
C1361 H1337 0.951 . S
C1361 C1362 1.366 . S
C1361 C1363 1.388 . S
C1362 C1361 1.366 . S
C1362 C1366 1.385 . S
C1363 H1338 0.951 . S
C1363 C1361 1.388 . S
C1363 C1364 1.366 . S
C1364 C1363 1.366 . S
C1364 C1365 1.414 . S
C1364 C1367 1.499 . S
C1365 H1339 0.950 . S
C1365 C1364 1.414 . S
C1365 C1366 1.374 . S
C1366 H1340 0.950 . S
C1366 C1362 1.385 . S
C1366 C1365 1.374 . S
C1367 C1364 1.499 . S
C1367 C1368 1.373 . S
C1367 C1369 1.389 . S
C1368 H1341 0.950 . S
C1368 C1354 1.377 1_565 S
C1368 C1367 1.373 . S
C1369 C1353 1.377 1_565 S
C1369 C1367 1.389 . S
C1369 C1370 1.524 . S
C1370 C1369 1.524 . S
C1370 C1371 1.397 . S
C1370 C1375 1.363 . S
C1371 H1342 0.950 . S
C1371 C1370 1.397 . S
C1371 C1372 1.334 . S
C1372 H1343 0.950 . S
C1372 C1371 1.334 . S
C1372 C1373 1.287 . S
C1373 C1372 1.287 . S
C1373 C1374 1.524 . S
C1373 H1376 0.999 . S
C1374 H1344 0.950 . S
C1374 C1373 1.524 . S
C1374 C1375 1.415 . S
C1375 H1345 0.950 . S
C1375 C1370 1.363 . S
C1375 C1374 1.415 . S
H1376 C1373 0.999 . S
H1377 C1358 0.913 . S
H1378 C1396 0.951 . S
H1379 C1398 0.951 . S
H1380 C1400 0.950 . S
H1381 C1401 0.950 . S
H1382 C1403 0.950 . S
H1383 C1406 0.950 . S
H1384 C1407 0.950 . S
H1385 C1409 0.950 . S
H1386 C1410 0.950 . S
H1387 C1411 0.951 . S
H1388 C1413 0.951 . S
H1389 C1415 0.950 . S
H1390 C1416 0.950 . S
H1391 C1418 0.950 . S
H1392 C1421 0.950 . S
H1393 C1422 0.950 . S
H1394 C1424 0.950 . S
H1395 C1425 0.950 . S
C1396 H1378 0.951 . S
C1396 C1397 1.366 . S
C1396 C1398 1.388 . S
C1397 C1396 1.366 . S
C1397 C1401 1.385 . S
C1398 H1379 0.951 . S
C1398 C1396 1.388 . S
C1398 C1399 1.366 . S
C1399 C1398 1.366 . S
C1399 C1400 1.414 . S
C1399 C1402 1.499 . S
C1400 H1380 0.950 . S
C1400 C1399 1.414 . S
C1400 C1401 1.374 . S
C1401 H1381 0.950 . S
C1401 C1397 1.385 . S
C1401 C1400 1.374 . S
C1402 C1399 1.499 . S
C1402 C1403 1.373 . S
C1402 C1404 1.443 . S
C1403 H1382 0.950 . S
C1403 C1402 1.373 . S
C1403 C1419 1.390 . S
C1404 C1402 1.443 . S
C1404 C1405 1.524 . S
C1404 C1418 1.323 1_565 S
C1405 C1404 1.524 . S
C1405 C1406 1.450 . S
C1405 C1410 1.311 1_565 S
C1406 H1383 0.950 . S
C1406 C1405 1.450 . S
C1406 C1407 1.334 . S
C1407 H1384 0.950 . S
C1407 C1406 1.334 . S
C1407 C1408 1.287 . S
C1408 C1407 1.287 . S
C1408 C1409 1.524 1_565 S
C1408 H1427 0.913 . S
C1409 H1385 0.950 . S
C1409 C1408 1.524 1_545 S
C1409 C1410 1.415 . S
C1410 H1386 0.950 . S
C1410 C1405 1.311 1_545 S
C1410 C1409 1.415 . S
C1411 H1387 0.951 . S
C1411 C1412 1.366 . S
C1411 C1413 1.388 . S
C1412 C1411 1.366 . S
C1412 C1416 1.385 . S
C1413 H1388 0.951 . S
C1413 C1411 1.388 . S
C1413 C1414 1.366 . S
C1414 C1413 1.366 . S
C1414 C1415 1.414 . S
C1414 C1417 1.499 . S
C1415 H1389 0.950 . S
C1415 C1414 1.414 . S
C1415 C1416 1.374 . S
C1416 H1390 0.950 . S
C1416 C1412 1.385 . S
C1416 C1415 1.374 . S
C1417 C1414 1.499 . S
C1417 C1418 1.373 . S
C1417 C1419 1.376 1_545 S
C1418 H1391 0.950 . S
C1418 C1404 1.323 1_545 S
C1418 C1417 1.373 . S
C1419 C1403 1.390 . S
C1419 C1417 1.376 1_565 S
C1419 C1420 1.524 . S
C1420 C1419 1.524 . S
C1420 C1421 1.378 1_565 S
C1420 C1425 1.382 . S
C1421 H1392 0.950 . S
C1421 C1420 1.378 1_545 S
C1421 C1422 1.334 . S
C1422 H1393 0.950 . S
C1422 C1421 1.334 . S
C1422 C1423 1.287 . S
C1423 C1422 1.287 . S
C1423 C1424 1.524 1_545 S
C1423 H1426 0.999 . S
C1424 H1394 0.950 . S
C1424 C1423 1.524 1_565 S
C1424 C1425 1.415 . S
C1425 H1395 0.950 . S
C1425 C1420 1.382 . S
C1425 C1424 1.415 . S
H1426 C1423 0.999 . S
H1427 C1408 0.913 . S
H1428 C1446 0.951 . S
H1429 C1448 0.951 . S
H1430 C1450 0.950 . S
H1431 C1451 0.950 . S
H1432 C1453 0.950 . S
H1433 C1456 0.950 . S
H1434 C1457 0.950 . S
H1435 C1459 0.950 . S
H1436 C1460 0.950 . S
H1437 C1461 0.951 . S
H1438 C1463 0.951 . S
H1439 C1465 0.950 . S
H1440 C1466 0.950 . S
H1441 C1468 0.950 . S
H1442 C1471 0.950 . S
H1443 C1472 0.950 . S
H1444 C1474 0.950 . S
H1445 C1475 0.950 . S
C1446 H1428 0.951 . S
C1446 C1447 1.366 . S
C1446 C1448 1.388 . S
C1447 C1446 1.366 . S
C1447 C1451 1.385 . S
C1448 H1429 0.951 . S
C1448 C1446 1.388 . S
C1448 C1449 1.366 . S
C1449 C1448 1.366 . S
C1449 C1450 1.414 . S
C1449 C1452 1.499 . S
C1450 H1430 0.950 . S
C1450 C1449 1.414 . S
C1450 C1451 1.374 . S
C1451 H1431 0.950 . S
C1451 C1447 1.385 . S
C1451 C1450 1.374 . S
C1452 C1449 1.499 . S
C1452 C1453 1.373 . S
C1452 C1454 1.389 1_545 S
C1453 H1432 0.950 . S
C1453 C1452 1.373 . S
C1453 C1469 1.377 . S
C1454 C1452 1.389 1_565 S
C1454 C1455 1.524 . S
C1454 C1468 1.377 . S
C1455 C1454 1.524 . S
C1455 C1456 1.397 1_565 S
C1455 C1460 1.363 . S
C1456 H1433 0.950 . S
C1456 C1455 1.397 1_545 S
C1456 C1457 1.334 . S
C1457 H1434 0.950 . S
C1457 C1456 1.334 . S
C1457 C1458 1.287 1_545 S
C1458 C1457 1.287 1_565 S
C1458 C1459 1.524 . S
C1458 H1477 0.913 . S
C1459 H1435 0.950 . S
C1459 C1458 1.524 . S
C1459 C1460 1.415 . S
C1460 H1436 0.950 . S
C1460 C1455 1.363 . S
C1460 C1459 1.415 . S
C1461 H1437 0.951 . S
C1461 C1462 1.366 . S
C1461 C1463 1.388 . S
C1462 C1461 1.366 . S
C1462 C1466 1.385 . S
C1463 H1438 0.951 . S
C1463 C1461 1.388 . S
C1463 C1464 1.366 . S
C1464 C1463 1.366 . S
C1464 C1465 1.414 . S
C1464 C1467 1.499 . S
C1465 H1439 0.950 . S
C1465 C1464 1.414 . S
C1465 C1466 1.374 . S
C1466 H1440 0.950 . S
C1466 C1462 1.385 . S
C1466 C1465 1.374 . S
C1467 C1464 1.499 . S
C1467 C1468 1.373 . S
C1467 C1469 1.389 1_565 S
C1468 H1441 0.950 . S
C1468 C1454 1.377 . S
C1468 C1467 1.373 . S
C1469 C1453 1.377 . S
C1469 C1467 1.389 1_545 S
C1469 C1470 1.524 . S
C1470 C1469 1.524 . S
C1470 C1471 1.397 1_545 S
C1470 C1475 1.363 . S
C1471 H1442 0.950 . S
C1471 C1470 1.397 1_565 S
C1471 C1472 1.334 . S
C1472 H1443 0.950 . S
C1472 C1471 1.334 . S
C1472 C1473 1.287 1_565 S
C1473 C1472 1.287 1_545 S
C1473 C1474 1.524 . S
C1473 H1476 0.999 . S
C1474 H1444 0.950 . S
C1474 C1473 1.524 . S
C1474 C1475 1.415 . S
C1475 H1445 0.950 . S
C1475 C1470 1.363 . S
C1475 C1474 1.415 . S
H1476 C1473 0.999 . S
H1477 C1458 0.913 . S
H1478 C1496 0.951 . S
H1479 C1498 0.951 . S
H1480 C1500 0.950 . S
H1481 C1501 0.950 . S
H1482 C1503 0.950 . S
H1483 C1506 0.950 . S
H1484 C1507 0.950 . S
H1485 C1509 0.950 . S
H1486 C1510 0.950 . S
H1487 C1511 0.951 . S
H1488 C1513 0.951 . S
H1489 C1515 0.950 . S
H1490 C1516 0.950 . S
H1491 C1518 0.950 . S
H1492 C1521 0.950 . S
H1493 C1522 0.950 . S
H1494 C1524 0.950 . S
H1495 C1525 0.950 . S
C1496 H1478 0.951 . S
C1496 C1497 1.366 . S
C1496 C1498 1.388 . S
C1497 C1496 1.366 . S
C1497 C1501 1.385 . S
C1498 H1479 0.951 . S
C1498 C1496 1.388 . S
C1498 C1499 1.366 . S
C1499 C1498 1.366 . S
C1499 C1500 1.414 . S
C1499 C1502 1.499 . S
C1500 H1480 0.950 . S
C1500 C1499 1.414 . S
C1500 C1501 1.374 . S
C1501 H1481 0.950 . S
C1501 C1497 1.385 . S
C1501 C1500 1.374 . S
C1502 C1499 1.499 . S
C1502 C1503 1.373 . S
C1502 C1504 1.389 1_565 S
C1503 H1482 0.950 . S
C1503 C1502 1.373 . S
C1503 C1519 1.377 1_565 S
C1504 C1502 1.389 1_545 S
C1504 C1505 1.524 . S
C1504 C1518 1.377 . S
C1505 C1504 1.524 . S
C1505 C1506 1.397 1_545 S
C1505 C1510 1.363 . S
C1506 H1483 0.950 . S
C1506 C1505 1.397 1_565 S
C1506 C1507 1.334 . S
C1507 H1484 0.950 . S
C1507 C1506 1.334 . S
C1507 C1508 1.287 1_565 S
C1508 C1507 1.287 1_545 S
C1508 C1509 1.524 . S
C1508 H1527 0.913 . S
C1509 H1485 0.950 . S
C1509 C1508 1.524 . S
C1509 C1510 1.415 . S
C1510 H1486 0.950 . S
C1510 C1505 1.363 . S
C1510 C1509 1.415 . S
C1511 H1487 0.951 . S
C1511 C1512 1.366 . S
C1511 C1513 1.388 . S
C1512 C1511 1.366 . S
C1512 C1516 1.385 . S
C1513 H1488 0.951 . S
C1513 C1511 1.388 . S
C1513 C1514 1.366 . S
C1514 C1513 1.366 . S
C1514 C1515 1.414 . S
C1514 C1517 1.499 . S
C1515 H1489 0.950 . S
C1515 C1514 1.414 . S
C1515 C1516 1.374 . S
C1516 H1490 0.950 . S
C1516 C1512 1.385 . S
C1516 C1515 1.374 . S
C1517 C1514 1.499 . S
C1517 C1518 1.373 . S
C1517 C1519 1.389 . S
C1518 H1491 0.950 . S
C1518 C1504 1.377 . S
C1518 C1517 1.373 . S
C1519 C1503 1.377 1_545 S
C1519 C1517 1.389 . S
C1519 C1520 1.518 1_545 S
C1520 C1519 1.518 1_565 S
C1520 C1521 1.353 1_565 S
C1520 C1525 1.418 . S
C1521 H1492 0.950 . S
C1521 C1520 1.353 1_545 S
C1521 C1522 1.334 . S
C1522 H1493 0.950 . S
C1522 C1521 1.334 . S
C1522 C1523 1.287 1_545 S
C1523 C1522 1.287 1_565 S
C1523 C1524 1.524 . S
C1523 H1526 0.999 . S
C1524 H1494 0.950 . S
C1524 C1523 1.524 . S
C1524 C1525 1.415 . S
C1525 H1495 0.950 . S
C1525 C1520 1.418 . S
C1525 C1524 1.415 . S
H1526 C1523 0.999 . S
H1527 C1508 0.913 . S
H1528 C1546 0.951 . S
H1529 C1548 0.951 . S
H1530 C1550 0.950 . S
H1531 C1551 0.950 . S
H1532 C1553 0.950 . S
H1533 C1556 0.950 . S
H1534 C1557 0.950 . S
H1535 C1559 0.950 . S
H1536 C1560 0.950 . S
H1537 C1561 0.951 . S
H1538 C1563 0.951 . S
H1539 C1565 0.950 . S
H1540 C1566 0.950 . S
H1541 C1568 0.950 . S
H1542 C1571 0.950 . S
H1543 C1572 0.950 . S
H1544 C1574 0.950 . S
H1545 C1575 0.950 . S
C1546 H1528 0.951 . S
C1546 C1547 1.366 . S
C1546 C1548 1.388 . S
C1547 C1546 1.366 . S
C1547 C1551 1.385 . S
C1548 H1529 0.951 . S
C1548 C1546 1.388 . S
C1548 C1549 1.366 . S
C1549 C1548 1.366 . S
C1549 C1550 1.414 . S
C1549 C1552 1.499 . S
C1550 H1530 0.950 . S
C1550 C1549 1.414 . S
C1550 C1551 1.374 . S
C1551 H1531 0.950 . S
C1551 C1547 1.385 . S
C1551 C1550 1.374 . S
C1552 C1549 1.499 . S
C1552 C1553 1.373 . S
C1552 C1554 1.389 . S
C1553 H1532 0.950 . S
C1553 C1552 1.373 . S
C1553 C1569 1.377 . S
C1554 C1552 1.389 . S
C1554 C1555 1.524 . S
C1554 C1568 1.377 . S
C1555 C1554 1.524 . S
C1555 C1556 1.397 . S
C1555 C1560 1.363 . S
C1556 H1533 0.950 . S
C1556 C1555 1.397 . S
C1556 C1557 1.334 . S
C1557 H1534 0.950 . S
C1557 C1556 1.334 . S
C1557 C1558 1.287 . S
C1558 C1557 1.287 . S
C1558 C1559 1.524 . S
C1558 H1577 0.913 . S
C1559 H1535 0.950 . S
C1559 C1558 1.524 . S
C1559 C1560 1.415 . S
C1560 H1536 0.950 . S
C1560 C1555 1.363 . S
C1560 C1559 1.415 . S
C1561 H1537 0.951 . S
C1561 C1562 1.366 . S
C1561 C1563 1.388 . S
C1562 C1561 1.366 . S
C1562 C1566 1.385 . S
C1563 H1538 0.951 . S
C1563 C1561 1.388 . S
C1563 C1564 1.366 . S
C1564 C1563 1.366 . S
C1564 C1565 1.414 . S
C1564 C1567 1.499 . S
C1565 H1539 0.950 . S
C1565 C1564 1.414 . S
C1565 C1566 1.374 . S
C1566 H1540 0.950 . S
C1566 C1562 1.385 . S
C1566 C1565 1.374 . S
C1567 C1564 1.499 . S
C1567 C1568 1.373 . S
C1567 C1569 1.389 . S
C1568 H1541 0.950 . S
C1568 C1554 1.377 . S
C1568 C1567 1.373 . S
C1569 C1553 1.377 . S
C1569 C1567 1.389 . S
C1569 C1570 1.524 . S
C1570 C1569 1.524 . S
C1570 C1571 1.397 . S
C1570 C1575 1.363 . S
C1571 H1542 0.950 . S
C1571 C1570 1.397 . S
C1571 C1572 1.334 . S
C1572 H1543 0.950 . S
C1572 C1571 1.334 . S
C1572 C1573 1.287 . S
C1573 C1572 1.287 . S
C1573 C1574 1.524 . S
C1573 H1576 0.999 . S
C1574 H1544 0.950 . S
C1574 C1573 1.524 . S
C1574 C1575 1.415 . S
C1575 H1545 0.950 . S
C1575 C1570 1.363 . S
C1575 C1574 1.415 . S
H1576 C1573 0.999 . S
H1577 C1558 0.913 . S
H1578 C1596 0.951 . S
H1579 C1598 0.951 . S
H1580 C1600 0.950 . S
H1581 C1601 0.950 . S
H1582 C1603 0.950 . S
H1583 C1606 0.950 . S
H1584 C1607 0.950 . S
H1585 C1609 0.950 . S
H1586 C1610 0.950 . S
H1587 C1611 0.951 . S
H1588 C1613 0.951 . S
H1589 C1615 0.950 . S
H1590 C1616 0.950 . S
H1591 C1618 0.950 . S
H1592 C1621 0.950 . S
H1593 C1622 0.950 . S
H1594 C1624 0.950 . S
H1595 C1625 0.950 . S
C1596 H1578 0.951 . S
C1596 C1597 1.366 . S
C1596 C1598 1.388 . S
C1597 C1596 1.366 . S
C1597 C1601 1.385 . S
C1598 H1579 0.951 . S
C1598 C1596 1.388 . S
C1598 C1599 1.366 . S
C1599 C1598 1.366 . S
C1599 C1600 1.414 . S
C1599 C1602 1.499 . S
C1600 H1580 0.950 . S
C1600 C1599 1.414 . S
C1600 C1601 1.374 . S
C1601 H1581 0.950 . S
C1601 C1597 1.385 . S
C1601 C1600 1.374 . S
C1602 C1599 1.499 . S
C1602 C1603 1.373 . S
C1602 C1604 1.389 . S
C1603 H1582 0.950 . S
C1603 C1602 1.373 . S
C1603 C1619 1.377 . S
C1604 C1602 1.389 . S
C1604 C1605 1.524 . S
C1604 C1618 1.377 . S
C1605 C1604 1.524 . S
C1605 C1606 1.397 . S
C1605 C1610 1.363 . S
C1606 H1583 0.950 . S
C1606 C1605 1.397 . S
C1606 C1607 1.334 . S
C1607 H1584 0.950 . S
C1607 C1606 1.334 . S
C1607 C1608 1.287 . S
C1608 C1607 1.287 . S
C1608 C1609 1.524 . S
C1608 H1627 0.913 . S
C1609 H1585 0.950 . S
C1609 C1608 1.524 . S
C1609 C1610 1.415 . S
C1610 H1586 0.950 . S
C1610 C1605 1.363 . S
C1610 C1609 1.415 . S
C1611 H1587 0.951 . S
C1611 C1612 1.366 . S
C1611 C1613 1.388 . S
C1612 C1611 1.366 . S
C1612 C1616 1.385 . S
C1613 H1588 0.951 . S
C1613 C1611 1.388 . S
C1613 C1614 1.366 . S
C1614 C1613 1.366 . S
C1614 C1615 1.414 . S
C1614 C1617 1.499 . S
C1615 H1589 0.950 . S
C1615 C1614 1.414 . S
C1615 C1616 1.374 . S
C1616 H1590 0.950 . S
C1616 C1612 1.385 . S
C1616 C1615 1.374 . S
C1617 C1614 1.499 . S
C1617 C1618 1.373 . S
C1617 C1619 1.389 . S
C1618 H1591 0.950 . S
C1618 C1604 1.377 . S
C1618 C1617 1.373 . S
C1619 C1603 1.377 . S
C1619 C1617 1.389 . S
C1619 C1620 1.524 . S
C1620 C1619 1.524 . S
C1620 C1621 1.397 . S
C1620 C1625 1.363 . S
C1621 H1592 0.950 . S
C1621 C1620 1.397 . S
C1621 C1622 1.334 . S
C1622 H1593 0.950 . S
C1622 C1621 1.334 . S
C1622 C1623 1.287 . S
C1623 C1622 1.287 . S
C1623 C1624 1.524 . S
C1623 H1626 0.999 . S
C1624 H1594 0.950 . S
C1624 C1623 1.524 . S
C1624 C1625 1.415 . S
C1625 H1595 0.950 . S
C1625 C1620 1.363 . S
C1625 C1624 1.415 . S
H1626 C1623 0.999 . S
H1627 C1608 0.913 . S
H1628 C1646 0.951 . S
H1629 C1648 0.951 . S
H1630 C1650 0.950 . S
H1631 C1651 0.950 . S
H1632 C1653 0.950 . S
H1633 C1656 0.950 . S
H1634 C1657 0.950 . S
H1635 C1659 0.950 . S
H1636 C1660 0.950 . S
H1637 C1661 0.951 . S
H1638 C1663 0.951 . S
H1639 C1665 0.950 . S
H1640 C1666 0.950 . S
H1641 C1668 0.950 . S
H1642 C1671 0.950 . S
H1643 C1672 0.950 . S
H1644 C1674 0.950 . S
H1645 C1675 0.950 . S
C1646 H1628 0.951 . S
C1646 C1647 1.366 . S
C1646 C1648 1.388 . S
C1647 C1646 1.366 . S
C1647 C1651 1.385 . S
C1648 H1629 0.951 . S
C1648 C1646 1.388 . S
C1648 C1649 1.366 . S
C1649 C1648 1.366 . S
C1649 C1650 1.414 . S
C1649 C1652 1.499 . S
C1650 H1630 0.950 . S
C1650 C1649 1.414 . S
C1650 C1651 1.374 . S
C1651 H1631 0.950 . S
C1651 C1647 1.385 . S
C1651 C1650 1.374 . S
C1652 C1649 1.499 . S
C1652 C1653 1.373 . S
C1652 C1654 1.389 . S
C1653 H1632 0.950 . S
C1653 C1652 1.373 . S
C1653 C1669 1.377 . S
C1654 C1652 1.389 . S
C1654 C1655 1.524 . S
C1654 C1668 1.377 . S
C1655 C1654 1.524 . S
C1655 C1656 1.397 . S
C1655 C1660 1.363 . S
C1656 H1633 0.950 . S
C1656 C1655 1.397 . S
C1656 C1657 1.334 . S
C1657 H1634 0.950 . S
C1657 C1656 1.334 . S
C1657 C1658 1.287 . S
C1658 C1657 1.287 . S
C1658 C1659 1.524 . S
C1658 H1677 0.913 . S
C1659 H1635 0.950 . S
C1659 C1658 1.524 . S
C1659 C1660 1.415 . S
C1660 H1636 0.950 . S
C1660 C1655 1.363 . S
C1660 C1659 1.415 . S
C1661 H1637 0.951 . S
C1661 C1662 1.366 . S
C1661 C1663 1.388 . S
C1662 C1661 1.366 . S
C1662 C1666 1.385 . S
C1663 H1638 0.951 . S
C1663 C1661 1.388 . S
C1663 C1664 1.366 . S
C1664 C1663 1.366 . S
C1664 C1665 1.414 . S
C1664 C1667 1.499 . S
C1665 H1639 0.950 . S
C1665 C1664 1.414 . S
C1665 C1666 1.374 . S
C1666 H1640 0.950 . S
C1666 C1662 1.385 . S
C1666 C1665 1.374 . S
C1667 C1664 1.499 . S
C1667 C1668 1.373 . S
C1667 C1669 1.389 . S
C1668 H1641 0.950 . S
C1668 C1654 1.377 . S
C1668 C1667 1.373 . S
C1669 C1653 1.377 . S
C1669 C1667 1.389 . S
C1669 C1670 1.524 . S
C1670 C1669 1.524 . S
C1670 C1671 1.397 . S
C1670 C1675 1.363 . S
C1671 H1642 0.950 . S
C1671 C1670 1.397 . S
C1671 C1672 1.334 . S
C1672 H1643 0.950 . S
C1672 C1671 1.334 . S
C1672 C1673 1.287 . S
C1673 C1672 1.287 . S
C1673 C1674 1.524 . S
C1673 H1676 0.999 . S
C1674 H1644 0.950 . S
C1674 C1673 1.524 . S
C1674 C1675 1.415 . S
C1675 H1645 0.950 . S
C1675 C1670 1.363 . S
C1675 C1674 1.415 . S
H1676 C1673 0.999 . S
H1677 C1658 0.913 . S
H1678 C1696 0.951 . S
H1679 C1698 0.951 . S
H1680 C1700 0.950 . S
H1681 C1701 0.950 . S
H1682 C1703 0.950 . S
H1683 C1706 0.950 . S
H1684 C1707 0.950 . S
H1685 C1709 0.950 . S
H1686 C1710 0.950 . S
H1687 C1711 0.951 . S
H1688 C1713 0.951 . S
H1689 C1715 0.950 . S
H1690 C1716 0.950 . S
H1691 C1718 0.950 . S
H1692 C1721 0.950 . S
H1693 C1722 0.950 . S
H1694 C1724 0.950 . S
H1695 C1725 0.950 . S
C1696 H1678 0.951 . S
C1696 C1697 1.366 . S
C1696 C1698 1.388 . S
C1697 C1696 1.366 . S
C1697 C1701 1.385 . S
C1698 H1679 0.951 . S
C1698 C1696 1.388 . S
C1698 C1699 1.366 . S
C1699 C1698 1.366 . S
C1699 C1700 1.414 . S
C1699 C1702 1.499 . S
C1700 H1680 0.950 . S
C1700 C1699 1.414 . S
C1700 C1701 1.374 . S
C1701 H1681 0.950 . S
C1701 C1697 1.385 . S
C1701 C1700 1.374 . S
C1702 C1699 1.499 . S
C1702 C1703 1.373 . S
C1702 C1704 1.389 . S
C1703 H1682 0.950 . S
C1703 C1702 1.373 . S
C1703 C1719 1.377 . S
C1704 C1702 1.389 . S
C1704 C1705 1.524 . S
C1704 C1718 1.377 . S
C1705 C1704 1.524 . S
C1705 C1706 1.397 . S
C1705 C1710 1.363 . S
C1706 H1683 0.950 . S
C1706 C1705 1.397 . S
C1706 C1707 1.334 . S
C1707 H1684 0.950 . S
C1707 C1706 1.334 . S
C1707 C1708 1.287 . S
C1708 C1707 1.287 . S
C1708 C1709 1.524 . S
C1708 H1727 0.913 . S
C1709 H1685 0.950 . S
C1709 C1708 1.524 . S
C1709 C1710 1.415 . S
C1710 H1686 0.950 . S
C1710 C1705 1.363 . S
C1710 C1709 1.415 . S
C1711 H1687 0.951 . S
C1711 C1712 1.366 . S
C1711 C1713 1.388 . S
C1712 C1711 1.366 . S
C1712 C1716 1.385 . S
C1713 H1688 0.951 . S
C1713 C1711 1.388 . S
C1713 C1714 1.366 . S
C1714 C1713 1.366 . S
C1714 C1715 1.414 . S
C1714 C1717 1.499 . S
C1715 H1689 0.950 . S
C1715 C1714 1.414 . S
C1715 C1716 1.374 . S
C1716 H1690 0.950 . S
C1716 C1712 1.385 . S
C1716 C1715 1.374 . S
C1717 C1714 1.499 . S
C1717 C1718 1.373 . S
C1717 C1719 1.389 . S
C1718 H1691 0.950 . S
C1718 C1704 1.377 . S
C1718 C1717 1.373 . S
C1719 C1703 1.377 . S
C1719 C1717 1.389 . S
C1719 C1720 1.524 . S
C1720 C1719 1.524 . S
C1720 C1721 1.397 . S
C1720 C1725 1.363 . S
C1721 H1692 0.950 . S
C1721 C1720 1.397 . S
C1721 C1722 1.334 . S
C1722 H1693 0.950 . S
C1722 C1721 1.334 . S
C1722 C1723 1.287 . S
C1723 C1722 1.287 . S
C1723 C1724 1.524 . S
C1723 H1726 0.999 . S
C1724 H1694 0.950 . S
C1724 C1723 1.524 . S
C1724 C1725 1.415 . S
C1725 H1695 0.950 . S
C1725 C1720 1.363 . S
C1725 C1724 1.415 . S
H1726 C1723 0.999 . S
H1727 C1708 0.913 . S
H1728 C1746 0.951 . S
H1729 C1748 0.951 . S
H1730 C1750 0.950 . S
H1731 C1751 0.950 . S
H1732 C1753 0.950 . S
H1733 C1756 0.950 . S
H1734 C1757 0.950 . S
H1735 C1759 0.950 . S
H1736 C1760 0.950 . S
H1737 C1761 0.951 . S
H1738 C1763 0.951 . S
H1739 C1765 0.950 . S
H1740 C1766 0.950 . S
H1741 C1768 0.950 . S
H1742 C1771 0.950 . S
H1743 C1772 0.950 . S
H1744 C1774 0.950 . S
H1745 C1775 0.950 . S
C1746 H1728 0.951 . S
C1746 C1747 1.366 . S
C1746 C1748 1.388 . S
C1747 C1746 1.366 . S
C1747 C1751 1.385 . S
C1748 H1729 0.951 . S
C1748 C1746 1.388 . S
C1748 C1749 1.366 . S
C1749 C1748 1.366 . S
C1749 C1750 1.414 . S
C1749 C1752 1.499 . S
C1750 H1730 0.950 . S
C1750 C1749 1.414 . S
C1750 C1751 1.374 . S
C1751 H1731 0.950 . S
C1751 C1747 1.385 . S
C1751 C1750 1.374 . S
C1752 C1749 1.499 . S
C1752 C1753 1.373 1_655 S
C1752 C1754 1.389 . S
C1753 H1732 0.950 . S
C1753 C1752 1.373 1_455 S
C1753 C1769 1.377 . S
C1754 C1752 1.389 . S
C1754 C1755 1.524 . S
C1754 C1768 1.377 . S
C1755 C1754 1.524 . S
C1755 C1756 1.397 . S
C1755 C1760 1.363 . S
C1756 H1733 0.950 . S
C1756 C1755 1.397 . S
C1756 C1757 1.334 . S
C1757 H1734 0.950 . S
C1757 C1756 1.334 . S
C1757 C1758 1.287 . S
C1758 C1757 1.287 . S
C1758 C1759 1.524 . S
C1758 H1777 0.913 . S
C1759 H1735 0.950 . S
C1759 C1758 1.524 . S
C1759 C1760 1.415 . S
C1760 H1736 0.950 . S
C1760 C1755 1.363 . S
C1760 C1759 1.415 . S
C1761 H1737 0.951 . S
C1761 C1762 1.366 . S
C1761 C1763 1.388 . S
C1762 C1761 1.366 . S
C1762 C1766 1.385 . S
C1763 H1738 0.951 . S
C1763 C1761 1.388 . S
C1763 C1764 1.366 . S
C1764 C1763 1.366 . S
C1764 C1765 1.414 . S
C1764 C1767 1.499 . S
C1765 H1739 0.950 . S
C1765 C1764 1.414 . S
C1765 C1766 1.374 . S
C1766 H1740 0.950 . S
C1766 C1762 1.385 . S
C1766 C1765 1.374 . S
C1767 C1764 1.499 . S
C1767 C1768 1.373 1_455 S
C1767 C1769 1.389 . S
C1768 H1741 0.950 . S
C1768 C1754 1.377 . S
C1768 C1767 1.373 1_655 S
C1769 C1753 1.377 . S
C1769 C1767 1.389 . S
C1769 C1770 1.524 . S
C1770 C1769 1.524 . S
C1770 C1771 1.397 . S
C1770 C1775 1.363 . S
C1771 H1742 0.950 . S
C1771 C1770 1.397 . S
C1771 C1772 1.334 . S
C1772 H1743 0.950 . S
C1772 C1771 1.334 . S
C1772 C1773 1.287 . S
C1773 C1772 1.287 . S
C1773 C1774 1.524 . S
C1773 H1776 0.999 . S
C1774 H1744 0.950 . S
C1774 C1773 1.524 . S
C1774 C1775 1.415 . S
C1775 H1745 0.950 . S
C1775 C1770 1.363 . S
C1775 C1774 1.415 . S
H1776 C1773 0.999 . S
H1777 C1758 0.913 . S
H1778 C1796 0.951 . S
H1779 C1798 0.951 . S
H1780 C1800 0.950 . S
H1781 C1801 0.950 . S
H1782 C1803 0.950 . S
H1783 C1806 0.950 . S
H1784 C1807 0.950 . S
H1785 C1809 0.950 . S
H1786 C1810 0.950 . S
H1787 C1811 0.951 . S
H1788 C1813 0.951 . S
H1789 C1815 0.950 . S
H1790 C1816 0.950 . S
H1791 C1818 0.950 . S
H1792 C1821 0.950 . S
H1793 C1822 0.950 . S
H1794 C1824 0.950 . S
H1795 C1825 0.950 . S
C1796 H1778 0.951 . S
C1796 C1797 1.366 . S
C1796 C1798 1.388 . S
C1797 C1796 1.366 . S
C1797 C1801 1.385 . S
C1798 H1779 0.951 . S
C1798 C1796 1.388 . S
C1798 C1799 1.366 . S
C1799 C1798 1.366 . S
C1799 C1800 1.414 . S
C1799 C1802 1.499 . S
C1800 H1780 0.950 . S
C1800 C1799 1.414 . S
C1800 C1801 1.374 . S
C1801 H1781 0.950 . S
C1801 C1797 1.385 . S
C1801 C1800 1.374 . S
C1802 C1799 1.499 . S
C1802 C1803 1.373 . S
C1802 C1804 1.389 . S
C1803 H1782 0.950 . S
C1803 C1802 1.373 . S
C1803 C1819 1.377 . S
C1804 C1802 1.389 . S
C1804 C1805 1.524 . S
C1804 C1818 1.377 . S
C1805 C1804 1.524 . S
C1805 C1806 1.397 . S
C1805 C1810 1.363 . S
C1806 H1783 0.950 . S
C1806 C1805 1.397 . S
C1806 C1807 1.334 . S
C1807 H1784 0.950 . S
C1807 C1806 1.334 . S
C1807 C1808 1.287 . S
C1808 C1807 1.287 . S
C1808 C1809 1.524 . S
C1808 H1827 0.913 . S
C1809 H1785 0.950 . S
C1809 C1808 1.524 . S
C1809 C1810 1.415 . S
C1810 H1786 0.950 . S
C1810 C1805 1.363 . S
C1810 C1809 1.415 . S
C1811 H1787 0.951 . S
C1811 C1812 1.366 . S
C1811 C1813 1.388 . S
C1812 C1811 1.366 . S
C1812 C1816 1.385 . S
C1813 H1788 0.951 . S
C1813 C1811 1.388 . S
C1813 C1814 1.366 . S
C1814 C1813 1.366 . S
C1814 C1815 1.414 . S
C1814 C1817 1.499 . S
C1815 H1789 0.950 . S
C1815 C1814 1.414 . S
C1815 C1816 1.374 . S
C1816 H1790 0.950 . S
C1816 C1812 1.385 . S
C1816 C1815 1.374 . S
C1817 C1814 1.499 . S
C1817 C1818 1.373 . S
C1817 C1819 1.389 . S
C1818 H1791 0.950 . S
C1818 C1804 1.377 . S
C1818 C1817 1.373 . S
C1819 C1803 1.377 . S
C1819 C1817 1.389 . S
C1819 C1820 1.524 . S
C1820 C1819 1.524 . S
C1820 C1821 1.397 . S
C1820 C1825 1.363 . S
C1821 H1792 0.950 . S
C1821 C1820 1.397 . S
C1821 C1822 1.334 . S
C1822 H1793 0.950 . S
C1822 C1821 1.334 . S
C1822 C1823 1.287 . S
C1823 C1822 1.287 . S
C1823 C1824 1.524 . S
C1823 H1826 0.999 . S
C1824 H1794 0.950 . S
C1824 C1823 1.524 . S
C1824 C1825 1.415 . S
C1825 H1795 0.950 . S
C1825 C1820 1.363 . S
C1825 C1824 1.415 . S
H1826 C1823 0.999 . S
H1827 C1808 0.913 . S
H1828 C1846 0.951 . S
H1829 C1848 0.951 . S
H1830 C1850 0.950 . S
H1831 C1851 0.950 . S
H1832 C1853 0.950 . S
H1833 C1856 0.950 . S
H1834 C1857 0.950 . S
H1835 C1859 0.950 . S
H1836 C1860 0.950 . S
H1837 C1861 0.951 . S
H1838 C1863 0.951 . S
H1839 C1865 0.950 . S
H1840 C1866 0.950 . S
H1841 C1868 0.950 . S
H1842 C1871 0.950 . S
H1843 C1872 0.950 . S
H1844 C1874 0.950 . S
H1845 C1875 0.950 . S
C1846 H1828 0.951 . S
C1846 C1847 1.366 . S
C1846 C1848 1.388 . S
C1847 C1846 1.366 . S
C1847 C1851 1.385 . S
C1848 H1829 0.951 . S
C1848 C1846 1.388 . S
C1848 C1849 1.366 . S
C1849 C1848 1.366 . S
C1849 C1850 1.414 . S
C1849 C1852 1.499 . S
C1850 H1830 0.950 . S
C1850 C1849 1.414 . S
C1850 C1851 1.374 . S
C1851 H1831 0.950 . S
C1851 C1847 1.385 . S
C1851 C1850 1.374 . S
C1852 C1849 1.499 . S
C1852 C1853 1.373 . S
C1852 C1854 1.389 . S
C1853 H1832 0.950 . S
C1853 C1852 1.373 . S
C1853 C1869 1.377 . S
C1854 C1852 1.389 . S
C1854 C1855 1.524 . S
C1854 C1868 1.377 . S
C1855 C1854 1.524 . S
C1855 C1856 1.397 . S
C1855 C1860 1.363 . S
C1856 H1833 0.950 . S
C1856 C1855 1.397 . S
C1856 C1857 1.334 . S
C1857 H1834 0.950 . S
C1857 C1856 1.334 . S
C1857 C1858 1.287 . S
C1858 C1857 1.287 . S
C1858 C1859 1.524 . S
C1858 H1877 0.913 . S
C1859 H1835 0.950 . S
C1859 C1858 1.524 . S
C1859 C1860 1.415 . S
C1860 H1836 0.950 . S
C1860 C1855 1.363 . S
C1860 C1859 1.415 . S
C1861 H1837 0.951 . S
C1861 C1862 1.366 . S
C1861 C1863 1.388 . S
C1862 C1861 1.366 . S
C1862 C1866 1.385 . S
C1863 H1838 0.951 . S
C1863 C1861 1.388 . S
C1863 C1864 1.366 . S
C1864 C1863 1.366 . S
C1864 C1865 1.414 . S
C1864 C1867 1.499 . S
C1865 H1839 0.950 . S
C1865 C1864 1.414 . S
C1865 C1866 1.374 . S
C1866 H1840 0.950 . S
C1866 C1862 1.385 . S
C1866 C1865 1.374 . S
C1867 C1864 1.499 . S
C1867 C1868 1.373 . S
C1867 C1869 1.389 . S
C1868 H1841 0.950 . S
C1868 C1854 1.377 . S
C1868 C1867 1.373 . S
C1869 C1853 1.377 . S
C1869 C1867 1.389 . S
C1869 C1870 1.524 . S
C1870 C1869 1.524 . S
C1870 C1871 1.397 . S
C1870 C1875 1.363 . S
C1871 H1842 0.950 . S
C1871 C1870 1.397 . S
C1871 C1872 1.334 . S
C1872 H1843 0.950 . S
C1872 C1871 1.334 . S
C1872 C1873 1.287 . S
C1873 C1872 1.287 . S
C1873 C1874 1.524 . S
C1873 H1876 0.999 . S
C1874 H1844 0.950 . S
C1874 C1873 1.524 . S
C1874 C1875 1.415 . S
C1875 H1845 0.950 . S
C1875 C1870 1.363 . S
C1875 C1874 1.415 . S
H1876 C1873 0.999 . S
H1877 C1858 0.913 . S
H1878 C1896 0.951 . S
H1879 C1898 0.951 . S
H1880 C1900 0.950 . S
H1881 C1901 0.951 . S
H1882 C1903 0.950 . S
H1883 C1906 0.950 . S
H1884 C1907 0.950 . S
H1885 C1909 0.950 . S
H1886 C1910 0.950 . S
H1887 C1911 0.951 . S
H1888 C1913 0.951 . S
H1889 C1915 0.950 . S
H1890 C1916 0.950 . S
H1891 C1918 0.950 . S
H1892 C1921 0.950 . S
H1893 C1922 0.950 . S
H1894 C1924 0.950 . S
H1895 C1925 0.950 . S
C1896 H1878 0.951 . S
C1896 C1897 1.366 . S
C1896 C1898 1.388 . S
C1897 C1896 1.366 . S
C1897 C1901 1.383 1_455 S
C1898 H1879 0.951 . S
C1898 C1896 1.388 . S
C1898 C1899 1.366 . S
C1899 C1898 1.366 . S
C1899 C1900 1.414 1_455 S
C1899 C1902 1.499 . S
C1900 H1880 0.950 . S
C1900 C1899 1.414 1_655 S
C1900 C1901 1.374 . S
C1901 H1881 0.951 . S
C1901 C1897 1.383 1_655 S
C1901 C1900 1.374 . S
C1902 C1899 1.499 . S
C1902 C1903 1.373 . S
C1902 C1904 1.389 1_455 S
C1903 H1882 0.950 . S
C1903 C1902 1.373 . S
C1903 C1919 1.377 . S
C1904 C1902 1.389 1_655 S
C1904 C1905 1.524 . S
C1904 C1918 1.377 . S
C1905 C1904 1.524 . S
C1905 C1906 1.397 . S
C1905 C1910 1.363 . S
C1906 H1883 0.950 . S
C1906 C1905 1.397 . S
C1906 C1907 1.334 . S
C1907 H1884 0.950 . S
C1907 C1906 1.334 . S
C1907 C1908 1.287 . S
C1908 C1907 1.287 . S
C1908 C1909 1.524 . S
C1908 H1927 0.913 . S
C1909 H1885 0.950 . S
C1909 C1908 1.524 . S
C1909 C1910 1.415 . S
C1910 H1886 0.950 . S
C1910 C1905 1.363 . S
C1910 C1909 1.415 . S
C1911 H1887 0.951 . S
C1911 C1912 1.366 . S
C1911 C1913 1.388 . S
C1912 C1911 1.366 . S
C1912 C1916 1.385 1_655 S
C1913 H1888 0.951 . S
C1913 C1911 1.388 . S
C1913 C1914 1.366 . S
C1914 C1913 1.366 . S
C1914 C1915 1.414 1_655 S
C1914 C1917 1.501 . S
C1915 H1889 0.950 . S
C1915 C1914 1.414 1_455 S
C1915 C1916 1.374 . S
C1916 H1890 0.950 . S
C1916 C1912 1.385 1_455 S
C1916 C1915 1.374 . S
C1917 C1914 1.501 . S
C1917 C1918 1.381 . S
C1917 C1919 1.382 1_655 S
C1918 H1891 0.950 . S
C1918 C1904 1.377 . S
C1918 C1917 1.381 . S
C1919 C1903 1.377 . S
C1919 C1917 1.382 1_455 S
C1919 C1920 1.524 . S
C1920 C1919 1.524 . S
C1920 C1921 1.397 . S
C1920 C1925 1.363 . S
C1921 H1892 0.950 . S
C1921 C1920 1.397 . S
C1921 C1922 1.334 . S
C1922 H1893 0.950 . S
C1922 C1921 1.334 . S
C1922 C1923 1.287 . S
C1923 C1922 1.287 . S
C1923 C1924 1.524 . S
C1923 H1926 0.999 . S
C1924 H1894 0.950 . S
C1924 C1923 1.524 . S
C1924 C1925 1.415 . S
C1925 H1895 0.950 . S
C1925 C1920 1.363 . S
C1925 C1924 1.415 . S
H1926 C1923 0.999 . S
H1927 C1908 0.913 . S
H1928 C1946 0.951 1_455 S
H1929 C1948 0.951 . S
H1930 C1950 0.950 . S
H1931 C1951 0.950 . S
H1932 C1953 0.950 . S
H1933 C1956 0.950 . S
H1934 C1957 0.950 . S
H1935 C1959 0.950 . S
H1936 C1960 0.950 . S
H1937 C1961 0.951 1_655 S
H1938 C1963 0.951 . S
H1939 C1965 0.950 . S
H1940 C1966 0.950 . S
H1941 C1968 0.950 . S
H1942 C1971 0.950 . S
H1943 C1972 0.950 . S
H1944 C1974 0.950 . S
H1945 C1975 0.950 . S
C1946 H1928 0.951 1_655 S
C1946 C1947 1.366 . S
C1946 C1948 1.388 1_655 S
C1947 C1946 1.366 . S
C1947 C1951 1.385 . S
C1948 H1929 0.951 . S
C1948 C1946 1.388 1_455 S
C1948 C1949 1.366 1_455 S
C1949 C1948 1.366 1_655 S
C1949 C1950 1.414 . S
C1949 C1952 1.499 . S
C1950 H1930 0.950 . S
C1950 C1949 1.414 . S
C1950 C1951 1.374 . S
C1951 H1931 0.950 . S
C1951 C1947 1.385 . S
C1951 C1950 1.374 . S
C1952 C1949 1.499 . S
C1952 C1953 1.373 . S
C1952 C1954 1.389 . S
C1953 H1932 0.950 . S
C1953 C1952 1.373 . S
C1953 C1969 1.377 1_655 S
C1954 C1952 1.389 . S
C1954 C1955 1.524 . S
C1954 C1968 1.377 1_655 S
C1955 C1954 1.524 . S
C1955 C1956 1.397 . S
C1955 C1960 1.363 1_655 S
C1956 H1933 0.950 . S
C1956 C1955 1.397 . S
C1956 C1957 1.334 . S
C1957 H1934 0.950 . S
C1957 C1956 1.334 . S
C1957 C1958 1.287 . S
C1958 C1957 1.287 . S
C1958 C1959 1.524 1_655 S
C1958 H1977 0.913 . S
C1959 H1935 0.950 . S
C1959 C1958 1.524 1_455 S
C1959 C1960 1.415 . S
C1960 H1936 0.950 . S
C1960 C1955 1.363 1_455 S
C1960 C1959 1.415 . S
C1961 H1937 0.951 1_455 S
C1961 C1962 1.366 . S
C1961 C1963 1.388 1_455 S
C1962 C1961 1.366 . S
C1962 C1966 1.385 . S
C1963 H1938 0.951 . S
C1963 C1961 1.388 1_655 S
C1963 C1964 1.366 1_655 S
C1964 C1963 1.366 1_455 S
C1964 C1965 1.414 . S
C1964 C1967 1.499 . S
C1965 H1939 0.950 . S
C1965 C1964 1.414 . S
C1965 C1966 1.374 . S
C1966 H1940 0.950 . S
C1966 C1962 1.385 . S
C1966 C1965 1.374 . S
C1967 C1964 1.499 . S
C1967 C1968 1.373 . S
C1967 C1969 1.389 . S
C1968 H1941 0.950 . S
C1968 C1954 1.377 1_455 S
C1968 C1967 1.373 . S
C1969 C1953 1.377 1_455 S
C1969 C1967 1.389 . S
C1969 C1970 1.524 . S
C1970 C1969 1.524 . S
C1970 C1971 1.397 . S
C1970 C1975 1.363 1_455 S
C1971 H1942 0.950 . S
C1971 C1970 1.397 . S
C1971 C1972 1.334 . S
C1972 H1943 0.950 . S
C1972 C1971 1.334 . S
C1972 C1973 1.287 . S
C1973 C1972 1.287 . S
C1973 C1974 1.524 1_455 S
C1973 H1976 0.999 . S
C1974 H1944 0.950 . S
C1974 C1973 1.524 1_655 S
C1974 C1975 1.415 . S
C1975 H1945 0.950 . S
C1975 C1970 1.363 1_655 S
C1975 C1974 1.415 . S
H1976 C1973 0.999 . S
H1977 C1958 0.913 . S
H1978 C1996 0.951 . S
H1979 C1998 0.951 . S
H1980 C2000 0.950 . S
H1981 C2001 0.950 . S
H1982 C2003 0.950 . S
H1983 C2006 0.950 . S
H1984 C2007 0.950 . S
H1985 C2009 0.950 . S
H1986 C2010 0.950 . S
H1987 C2011 0.951 . S
H1988 C2013 0.951 . S
H1989 C2015 0.950 . S
H1990 C2016 0.950 . S
H1991 C2018 0.950 . S
H1992 C2021 0.950 . S
H1993 C2022 0.950 . S
H1994 C2024 0.950 . S
H1995 C2025 0.950 . S
C1996 H1978 0.951 . S
C1996 C1997 1.366 . S
C1996 C1998 1.388 . S
C1997 C1996 1.366 . S
C1997 C2001 1.385 . S
C1998 H1979 0.951 . S
C1998 C1996 1.388 . S
C1998 C1999 1.366 . S
C1999 C1998 1.366 . S
C1999 C2000 1.414 . S
C1999 C2002 1.499 . S
C2000 H1980 0.950 . S
C2000 C1999 1.414 . S
C2000 C2001 1.374 . S
C2001 H1981 0.950 . S
C2001 C1997 1.385 . S
C2001 C2000 1.374 . S
C2002 C1999 1.499 . S
C2002 C2003 1.373 . S
C2002 C2004 1.389 . S
C2003 H1982 0.950 . S
C2003 C2002 1.373 . S
C2003 C2019 1.377 . S
C2004 C2002 1.389 . S
C2004 C2005 1.524 . S
C2004 C2018 1.377 . S
C2005 C2004 1.524 . S
C2005 C2006 1.397 . S
C2005 C2010 1.363 . S
C2006 H1983 0.950 . S
C2006 C2005 1.397 . S
C2006 C2007 1.334 . S
C2007 H1984 0.950 . S
C2007 C2006 1.334 . S
C2007 C2008 1.287 . S
C2008 C2007 1.287 . S
C2008 C2009 1.524 . S
C2008 H2027 0.913 . S
C2009 H1985 0.950 . S
C2009 C2008 1.524 . S
C2009 C2010 1.415 . S
C2010 H1986 0.950 . S
C2010 C2005 1.363 . S
C2010 C2009 1.415 . S
C2011 H1987 0.951 . S
C2011 C2012 1.366 . S
C2011 C2013 1.388 . S
C2012 C2011 1.366 . S
C2012 C2016 1.385 . S
C2013 H1988 0.951 . S
C2013 C2011 1.388 . S
C2013 C2014 1.366 . S
C2014 C2013 1.366 . S
C2014 C2015 1.414 . S
C2014 C2017 1.499 . S
C2015 H1989 0.950 . S
C2015 C2014 1.414 . S
C2015 C2016 1.374 . S
C2016 H1990 0.950 . S
C2016 C2012 1.385 . S
C2016 C2015 1.374 . S
C2017 C2014 1.499 . S
C2017 C2018 1.373 . S
C2017 C2019 1.389 . S
C2018 H1991 0.950 . S
C2018 C2004 1.377 . S
C2018 C2017 1.373 . S
C2019 C2003 1.377 . S
C2019 C2017 1.389 . S
C2019 C2020 1.524 . S
C2020 C2019 1.524 . S
C2020 C2021 1.397 . S
C2020 C2025 1.363 . S
C2021 H1992 0.950 . S
C2021 C2020 1.397 . S
C2021 C2022 1.334 . S
C2022 H1993 0.950 . S
C2022 C2021 1.334 . S
C2022 C2023 1.287 . S
C2023 C2022 1.287 . S
C2023 C2024 1.524 . S
C2023 H2026 0.999 . S
C2024 H1994 0.950 . S
C2024 C2023 1.524 . S
C2024 C2025 1.415 . S
C2025 H1995 0.950 . S
C2025 C2020 1.363 . S
C2025 C2024 1.415 . S
H2026 C2023 0.999 . S
H2027 C2008 0.913 . S
H2028 C2046 0.951 . S
H2029 C2048 0.951 . S
H2030 C2050 0.950 . S
H2031 C2051 0.950 . S
H2032 C2053 0.950 . S
H2033 C2056 0.950 . S
H2034 C2057 0.950 . S
H2035 C2059 0.950 . S
H2036 C2060 0.950 . S
H2037 C2061 0.951 . S
H2038 C2063 0.951 . S
H2039 C2065 0.950 . S
H2040 C2066 0.950 . S
H2041 C2068 0.950 . S
H2042 C2071 0.950 . S
H2043 C2072 0.950 . S
H2044 C2074 0.950 . S
H2045 C2075 0.950 . S
C2046 H2028 0.951 . S
C2046 C2047 1.366 . S
C2046 C2048 1.388 . S
C2047 C2046 1.366 . S
C2047 C2051 1.385 . S
C2048 H2029 0.951 . S
C2048 C2046 1.388 . S
C2048 C2049 1.366 . S
C2049 C2048 1.366 . S
C2049 C2050 1.414 . S
C2049 C2052 1.499 . S
C2050 H2030 0.950 . S
C2050 C2049 1.414 . S
C2050 C2051 1.374 . S
C2051 H2031 0.950 . S
C2051 C2047 1.385 . S
C2051 C2050 1.374 . S
C2052 C2049 1.499 . S
C2052 C2053 1.373 . S
C2052 C2054 1.389 . S
C2053 H2032 0.950 . S
C2053 C2052 1.373 . S
C2053 C2069 1.377 . S
C2054 C2052 1.389 . S
C2054 C2055 1.524 . S
C2054 C2068 1.377 . S
C2055 C2054 1.524 . S
C2055 C2056 1.397 . S
C2055 C2060 1.363 . S
C2056 H2033 0.950 . S
C2056 C2055 1.397 . S
C2056 C2057 1.334 . S
C2057 H2034 0.950 . S
C2057 C2056 1.334 . S
C2057 C2058 1.287 . S
C2058 C2057 1.287 . S
C2058 C2059 1.524 . S
C2058 H2077 0.913 . S
C2059 H2035 0.950 . S
C2059 C2058 1.524 . S
C2059 C2060 1.415 . S
C2060 H2036 0.950 . S
C2060 C2055 1.363 . S
C2060 C2059 1.415 . S
C2061 H2037 0.951 . S
C2061 C2062 1.366 . S
C2061 C2063 1.388 . S
C2062 C2061 1.366 . S
C2062 C2066 1.385 . S
C2063 H2038 0.951 . S
C2063 C2061 1.388 . S
C2063 C2064 1.366 . S
C2064 C2063 1.366 . S
C2064 C2065 1.414 . S
C2064 C2067 1.499 . S
C2065 H2039 0.950 . S
C2065 C2064 1.414 . S
C2065 C2066 1.374 . S
C2066 H2040 0.950 . S
C2066 C2062 1.385 . S
C2066 C2065 1.374 . S
C2067 C2064 1.499 . S
C2067 C2068 1.373 . S
C2067 C2069 1.389 . S
C2068 H2041 0.950 . S
C2068 C2054 1.377 . S
C2068 C2067 1.373 . S
C2069 C2053 1.377 . S
C2069 C2067 1.389 . S
C2069 C2070 1.524 . S
C2070 C2069 1.524 . S
C2070 C2071 1.397 . S
C2070 C2075 1.363 . S
C2071 H2042 0.950 . S
C2071 C2070 1.397 . S
C2071 C2072 1.334 . S
C2072 H2043 0.950 . S
C2072 C2071 1.334 . S
C2072 C2073 1.287 . S
C2073 C2072 1.287 . S
C2073 C2074 1.524 . S
C2073 H2076 0.999 . S
C2074 H2044 0.950 . S
C2074 C2073 1.524 . S
C2074 C2075 1.415 . S
C2075 H2045 0.950 . S
C2075 C2070 1.363 . S
C2075 C2074 1.415 . S
H2076 C2073 0.999 . S
H2077 C2058 0.913 . S
H2078 C2096 0.951 . S
H2079 C2098 0.951 . S
H2080 C2100 0.950 . S
H2081 C2101 0.950 1_455 S
H2082 C2103 0.950 . S
H2083 C2106 0.950 . S
H2084 C2107 0.950 . S
H2085 C2109 0.950 . S
H2086 C2110 0.950 . S
H2087 C2111 0.951 . S
H2088 C2113 0.951 . S
H2089 C2115 0.950 . S
H2090 C2116 0.950 1_655 S
H2091 C2118 0.950 . S
H2092 C2121 0.950 . S
H2093 C2122 0.950 . S
H2094 C2124 0.950 . S
H2095 C2125 0.950 . S
C2096 H2078 0.951 . S
C2096 C2097 1.366 . S
C2096 C2098 1.388 . S
C2097 C2096 1.366 . S
C2097 C2101 1.385 . S
C2098 H2079 0.951 . S
C2098 C2096 1.388 . S
C2098 C2099 1.366 . S
C2099 C2098 1.366 . S
C2099 C2100 1.414 1_655 S
C2099 C2102 1.499 . S
C2100 H2080 0.950 . S
C2100 C2099 1.414 1_455 S
C2100 C2101 1.374 1_455 S
C2101 H2081 0.950 1_655 S
C2101 C2097 1.385 . S
C2101 C2100 1.374 1_655 S
C2102 C2099 1.499 . S
C2102 C2103 1.373 1_655 S
C2102 C2104 1.389 . S
C2103 H2082 0.950 . S
C2103 C2102 1.373 1_455 S
C2103 C2119 1.377 . S
C2104 C2102 1.389 . S
C2104 C2105 1.524 . S
C2104 C2118 1.377 . S
C2105 C2104 1.524 . S
C2105 C2106 1.397 . S
C2105 C2110 1.363 . S
C2106 H2083 0.950 . S
C2106 C2105 1.397 . S
C2106 C2107 1.334 . S
C2107 H2084 0.950 . S
C2107 C2106 1.334 . S
C2107 C2108 1.287 . S
C2108 C2107 1.287 . S
C2108 C2109 1.524 . S
C2108 H2127 0.913 . S
C2109 H2085 0.950 . S
C2109 C2108 1.524 . S
C2109 C2110 1.415 . S
C2110 H2086 0.950 . S
C2110 C2105 1.363 . S
C2110 C2109 1.415 . S
C2111 H2087 0.951 . S
C2111 C2112 1.366 . S
C2111 C2113 1.388 . S
C2112 C2111 1.366 . S
C2112 C2116 1.385 . S
C2113 H2088 0.951 . S
C2113 C2111 1.388 . S
C2113 C2114 1.366 . S
C2114 C2113 1.366 . S
C2114 C2115 1.414 1_455 S
C2114 C2117 1.499 . S
C2115 H2089 0.950 . S
C2115 C2114 1.414 1_655 S
C2115 C2116 1.374 1_655 S
C2116 H2090 0.950 1_455 S
C2116 C2112 1.385 . S
C2116 C2115 1.374 1_455 S
C2117 C2114 1.499 . S
C2117 C2118 1.373 1_455 S
C2117 C2119 1.389 . S
C2118 H2091 0.950 . S
C2118 C2104 1.377 . S
C2118 C2117 1.373 1_655 S
C2119 C2103 1.377 . S
C2119 C2117 1.389 . S
C2119 C2120 1.524 . S
C2120 C2119 1.524 . S
C2120 C2121 1.397 . S
C2120 C2125 1.363 . S
C2121 H2092 0.950 . S
C2121 C2120 1.397 . S
C2121 C2122 1.334 . S
C2122 H2093 0.950 . S
C2122 C2121 1.334 . S
C2122 C2123 1.287 . S
C2123 C2122 1.287 . S
C2123 C2124 1.524 . S
C2123 H2126 0.999 . S
C2124 H2094 0.950 . S
C2124 C2123 1.524 . S
C2124 C2125 1.415 . S
C2125 H2095 0.950 . S
C2125 C2120 1.363 . S
C2125 C2124 1.415 . S
H2126 C2123 0.999 . S
H2127 C2108 0.913 . S
H2128 C2146 0.951 1_655 S
H2129 C2148 0.951 . S
H2130 C2150 0.950 . S
H2131 C2151 0.950 . S
H2132 C2153 0.950 . S
H2133 C2156 0.950 . S
H2134 C2157 0.950 1_455 S
H2135 C2159 0.950 . S
H2136 C2160 0.950 . S
H2137 C2161 0.951 1_455 S
H2138 C2163 0.951 . S
H2139 C2165 0.950 . S
H2140 C2166 0.950 . S
H2141 C2168 0.950 . S
H2142 C2171 0.950 . S
H2143 C2172 0.950 1_655 S
H2144 C2174 0.950 . S
H2145 C2175 0.950 . S
C2146 H2128 0.951 1_455 S
C2146 C2147 1.366 . S
C2146 C2148 1.388 1_455 S
C2147 C2146 1.366 . S
C2147 C2151 1.385 . S
C2148 H2129 0.951 . S
C2148 C2146 1.388 1_655 S
C2148 C2149 1.366 1_655 S
C2149 C2148 1.366 1_455 S
C2149 C2150 1.414 . S
C2149 C2152 1.499 . S
C2150 H2130 0.950 . S
C2150 C2149 1.414 . S
C2150 C2151 1.374 . S
C2151 H2131 0.950 . S
C2151 C2147 1.385 . S
C2151 C2150 1.374 . S
C2152 C2149 1.499 . S
C2152 C2153 1.373 . S
C2152 C2154 1.389 1_455 S
C2153 H2132 0.950 . S
C2153 C2152 1.373 . S
C2153 C2169 1.377 . S
C2154 C2152 1.389 1_655 S
C2154 C2155 1.524 . S
C2154 C2168 1.377 . S
C2155 C2154 1.524 . S
C2155 C2156 1.397 1_655 S
C2155 C2160 1.363 . S
C2156 H2133 0.950 . S
C2156 C2155 1.397 1_455 S
C2156 C2157 1.334 1_455 S
C2157 H2134 0.950 1_655 S
C2157 C2156 1.334 1_655 S
C2157 C2158 1.287 . S
C2158 C2157 1.287 . S
C2158 C2159 1.524 . S
C2158 H2177 0.913 . S
C2159 H2135 0.950 . S
C2159 C2158 1.524 . S
C2159 C2160 1.415 . S
C2160 H2136 0.950 . S
C2160 C2155 1.363 . S
C2160 C2159 1.415 . S
C2161 H2137 0.951 1_655 S
C2161 C2162 1.366 . S
C2161 C2163 1.388 1_655 S
C2162 C2161 1.366 . S
C2162 C2166 1.385 . S
C2163 H2138 0.951 . S
C2163 C2161 1.388 1_455 S
C2163 C2164 1.366 1_455 S
C2164 C2163 1.366 1_655 S
C2164 C2165 1.414 . S
C2164 C2167 1.499 . S
C2165 H2139 0.950 . S
C2165 C2164 1.414 . S
C2165 C2166 1.374 . S
C2166 H2140 0.950 . S
C2166 C2162 1.385 . S
C2166 C2165 1.374 . S
C2167 C2164 1.499 . S
C2167 C2168 1.373 . S
C2167 C2169 1.389 1_655 S
C2168 H2141 0.950 . S
C2168 C2154 1.377 . S
C2168 C2167 1.373 . S
C2169 C2153 1.377 . S
C2169 C2167 1.389 1_455 S
C2169 C2170 1.524 . S
C2170 C2169 1.524 . S
C2170 C2171 1.397 1_455 S
C2170 C2175 1.363 . S
C2171 H2142 0.950 . S
C2171 C2170 1.397 1_655 S
C2171 C2172 1.334 1_655 S
C2172 H2143 0.950 1_455 S
C2172 C2171 1.334 1_455 S
C2172 C2173 1.287 . S
C2173 C2172 1.287 . S
C2173 C2174 1.524 . S
C2173 H2176 0.999 . S
C2174 H2144 0.950 . S
C2174 C2173 1.524 . S
C2174 C2175 1.415 . S
C2175 H2145 0.950 . S
C2175 C2170 1.363 . S
C2175 C2174 1.415 . S
H2176 C2173 0.999 . S
H2177 C2158 0.913 . S
H2178 C2196 0.951 . S
H2179 C2198 0.951 . S
H2180 C2200 0.950 . S
H2181 C2201 0.950 . S
H2182 C2203 0.950 . S
H2183 C2206 0.950 . S
H2184 C2207 0.950 . S
H2185 C2209 0.950 . S
H2186 C2210 0.950 . S
H2187 C2211 0.951 . S
H2188 C2213 0.951 . S
H2189 C2215 0.950 . S
H2190 C2216 0.950 . S
H2191 C2218 0.950 . S
H2192 C2221 0.950 . S
H2193 C2222 0.950 . S
H2194 C2224 0.950 . S
H2195 C2225 0.950 . S
C2196 H2178 0.951 . S
C2196 C2197 1.366 . S
C2196 C2198 1.388 . S
C2197 C2196 1.366 . S
C2197 C2201 1.385 . S
C2198 H2179 0.951 . S
C2198 C2196 1.388 . S
C2198 C2199 1.366 . S
C2199 C2198 1.366 . S
C2199 C2200 1.414 . S
C2199 C2202 1.499 . S
C2200 H2180 0.950 . S
C2200 C2199 1.414 . S
C2200 C2201 1.374 . S
C2201 H2181 0.950 . S
C2201 C2197 1.385 . S
C2201 C2200 1.374 . S
C2202 C2199 1.499 . S
C2202 C2203 1.373 . S
C2202 C2204 1.389 . S
C2203 H2182 0.950 . S
C2203 C2202 1.373 . S
C2203 C2219 1.377 . S
C2204 C2202 1.389 . S
C2204 C2205 1.524 . S
C2204 C2218 1.377 . S
C2205 C2204 1.524 . S
C2205 C2206 1.397 . S
C2205 C2210 1.363 . S
C2206 H2183 0.950 . S
C2206 C2205 1.397 . S
C2206 C2207 1.334 . S
C2207 H2184 0.950 . S
C2207 C2206 1.334 . S
C2207 C2208 1.287 . S
C2208 C2207 1.287 . S
C2208 C2209 1.524 . S
C2208 H2227 0.913 . S
C2209 H2185 0.950 . S
C2209 C2208 1.524 . S
C2209 C2210 1.415 . S
C2210 H2186 0.950 . S
C2210 C2205 1.363 . S
C2210 C2209 1.415 . S
C2211 H2187 0.951 . S
C2211 C2212 1.366 . S
C2211 C2213 1.388 . S
C2212 C2211 1.366 . S
C2212 C2216 1.385 . S
C2213 H2188 0.951 . S
C2213 C2211 1.388 . S
C2213 C2214 1.366 . S
C2214 C2213 1.366 . S
C2214 C2215 1.414 . S
C2214 C2217 1.499 . S
C2215 H2189 0.950 . S
C2215 C2214 1.414 . S
C2215 C2216 1.374 . S
C2216 H2190 0.950 . S
C2216 C2212 1.385 . S
C2216 C2215 1.374 . S
C2217 C2214 1.499 . S
C2217 C2218 1.373 . S
C2217 C2219 1.389 . S
C2218 H2191 0.950 . S
C2218 C2204 1.377 . S
C2218 C2217 1.373 . S
C2219 C2203 1.377 . S
C2219 C2217 1.389 . S
C2219 C2220 1.524 . S
C2220 C2219 1.524 . S
C2220 C2221 1.397 . S
C2220 C2225 1.363 . S
C2221 H2192 0.950 . S
C2221 C2220 1.397 . S
C2221 C2222 1.334 . S
C2222 H2193 0.950 . S
C2222 C2221 1.334 . S
C2222 C2223 1.287 . S
C2223 C2222 1.287 . S
C2223 C2224 1.524 . S
C2223 H2226 0.999 . S
C2224 H2194 0.950 . S
C2224 C2223 1.524 . S
C2224 C2225 1.415 . S
C2225 H2195 0.950 . S
C2225 C2220 1.363 . S
C2225 C2224 1.415 . S
H2226 C2223 0.999 . S
H2227 C2208 0.913 . S
H2228 C2246 0.951 . S
H2229 C2248 0.951 1_455 S
H2230 C2250 0.950 . S
H2231 C2251 0.950 . S
H2232 C2253 0.950 . S
H2233 C2256 0.950 . S
H2234 C2257 0.950 . S
H2235 C2259 0.950 . S
H2236 C2260 0.950 . S
H2237 C2261 0.951 . S
H2238 C2263 0.951 1_655 S
H2239 C2265 0.950 . S
H2240 C2266 0.950 . S
H2241 C2268 0.950 . S
H2242 C2271 0.950 . S
H2243 C2272 0.950 . S
H2244 C2274 0.950 . S
H2245 C2275 0.950 . S
C2246 H2228 0.951 . S
C2246 C2247 1.366 . S
C2246 C2248 1.388 . S
C2247 C2246 1.366 . S
C2247 C2251 1.385 . S
C2248 H2229 0.951 1_655 S
C2248 C2246 1.388 . S
C2248 C2249 1.366 . S
C2249 C2248 1.366 . S
C2249 C2250 1.414 . S
C2249 C2252 1.499 . S
C2250 H2230 0.950 . S
C2250 C2249 1.414 . S
C2250 C2251 1.374 . S
C2251 H2231 0.950 . S
C2251 C2247 1.385 . S
C2251 C2250 1.374 . S
C2252 C2249 1.499 . S
C2252 C2253 1.373 . S
C2252 C2254 1.389 1_655 S
C2253 H2232 0.950 . S
C2253 C2252 1.373 . S
C2253 C2269 1.377 . S
C2254 C2252 1.389 1_455 S
C2254 C2255 1.524 . S
C2254 C2268 1.377 . S
C2255 C2254 1.524 . S
C2255 C2256 1.397 . S
C2255 C2260 1.363 . S
C2256 H2233 0.950 . S
C2256 C2255 1.397 . S
C2256 C2257 1.334 . S
C2257 H2234 0.950 . S
C2257 C2256 1.334 . S
C2257 C2258 1.287 . S
C2258 C2257 1.287 . S
C2258 C2259 1.524 . S
C2258 H2277 0.913 . S
C2259 H2235 0.950 . S
C2259 C2258 1.524 . S
C2259 C2260 1.415 . S
C2260 H2236 0.950 . S
C2260 C2255 1.363 . S
C2260 C2259 1.415 . S
C2261 H2237 0.951 . S
C2261 C2262 1.366 . S
C2261 C2263 1.388 . S
C2262 C2261 1.366 . S
C2262 C2266 1.385 . S
C2263 H2238 0.951 1_455 S
C2263 C2261 1.388 . S
C2263 C2264 1.366 . S
C2264 C2263 1.366 . S
C2264 C2265 1.414 . S
C2264 C2267 1.499 . S
C2265 H2239 0.950 . S
C2265 C2264 1.414 . S
C2265 C2266 1.374 . S
C2266 H2240 0.950 . S
C2266 C2262 1.385 . S
C2266 C2265 1.374 . S
C2267 C2264 1.499 . S
C2267 C2268 1.373 . S
C2267 C2269 1.389 1_455 S
C2268 H2241 0.950 . S
C2268 C2254 1.377 . S
C2268 C2267 1.373 . S
C2269 C2253 1.377 . S
C2269 C2267 1.389 1_655 S
C2269 C2270 1.524 . S
C2270 C2269 1.524 . S
C2270 C2271 1.397 . S
C2270 C2275 1.363 . S
C2271 H2242 0.950 . S
C2271 C2270 1.397 . S
C2271 C2272 1.334 . S
C2272 H2243 0.950 . S
C2272 C2271 1.334 . S
C2272 C2273 1.287 . S
C2273 C2272 1.287 . S
C2273 C2274 1.524 . S
C2273 H2276 0.999 . S
C2274 H2244 0.950 . S
C2274 C2273 1.524 . S
C2274 C2275 1.415 . S
C2275 H2245 0.950 . S
C2275 C2270 1.363 . S
C2275 C2274 1.415 . S
H2276 C2273 0.999 . S
H2277 C2258 0.913 . S
H2278 C2296 0.951 . S
H2279 C2298 0.951 . S
H2280 C2300 0.950 . S
H2281 C2301 0.950 . S
H2282 C2303 0.950 . S
H2283 C2306 0.950 . S
H2284 C2307 0.950 . S
H2285 C2309 0.950 . S
H2286 C2310 0.950 . S
H2287 C2311 0.951 . S
H2288 C2313 0.951 . S
H2289 C2315 0.950 . S
H2290 C2316 0.950 . S
H2291 C2318 0.950 . S
H2292 C2321 0.950 . S
H2293 C2322 0.950 . S
H2294 C2324 0.950 . S
H2295 C2325 0.950 . S
C2296 H2278 0.951 . S
C2296 C2297 1.366 . S
C2296 C2298 1.388 . S
C2297 C2296 1.366 . S
C2297 C2301 1.385 . S
C2298 H2279 0.951 . S
C2298 C2296 1.388 . S
C2298 C2299 1.366 . S
C2299 C2298 1.366 . S
C2299 C2300 1.414 . S
C2299 C2302 1.499 . S
C2300 H2280 0.950 . S
C2300 C2299 1.414 . S
C2300 C2301 1.374 . S
C2301 H2281 0.950 . S
C2301 C2297 1.385 . S
C2301 C2300 1.374 . S
C2302 C2299 1.499 . S
C2302 C2303 1.373 . S
C2302 C2304 1.389 . S
C2303 H2282 0.950 . S
C2303 C2302 1.373 . S
C2303 C2319 1.377 . S
C2304 C2302 1.389 . S
C2304 C2305 1.524 . S
C2304 C2318 1.377 . S
C2305 C2304 1.524 . S
C2305 C2306 1.397 . S
C2305 C2310 1.363 . S
C2306 H2283 0.950 . S
C2306 C2305 1.397 . S
C2306 C2307 1.334 . S
C2307 H2284 0.950 . S
C2307 C2306 1.334 . S
C2307 C2308 1.287 . S
C2308 C2307 1.287 . S
C2308 C2309 1.524 . S
C2308 H2327 0.913 . S
C2309 H2285 0.950 . S
C2309 C2308 1.524 . S
C2309 C2310 1.415 . S
C2310 H2286 0.950 . S
C2310 C2305 1.363 . S
C2310 C2309 1.415 . S
C2311 H2287 0.951 . S
C2311 C2312 1.366 . S
C2311 C2313 1.388 . S
C2312 C2311 1.366 . S
C2312 C2316 1.385 . S
C2313 H2288 0.951 . S
C2313 C2311 1.388 . S
C2313 C2314 1.366 . S
C2314 C2313 1.366 . S
C2314 C2315 1.414 . S
C2314 C2317 1.499 . S
C2315 H2289 0.950 . S
C2315 C2314 1.414 . S
C2315 C2316 1.374 . S
C2316 H2290 0.950 . S
C2316 C2312 1.385 . S
C2316 C2315 1.374 . S
C2317 C2314 1.499 . S
C2317 C2318 1.373 . S
C2317 C2319 1.389 . S
C2318 H2291 0.950 . S
C2318 C2304 1.377 . S
C2318 C2317 1.373 . S
C2319 C2303 1.377 . S
C2319 C2317 1.389 . S
C2319 C2320 1.524 . S
C2320 C2319 1.524 . S
C2320 C2321 1.397 . S
C2320 C2325 1.363 . S
C2321 H2292 0.950 . S
C2321 C2320 1.397 . S
C2321 C2322 1.334 . S
C2322 H2293 0.950 . S
C2322 C2321 1.334 . S
C2322 C2323 1.287 . S
C2323 C2322 1.287 . S
C2323 C2324 1.524 . S
C2323 H2326 0.999 . S
C2324 H2294 0.950 . S
C2324 C2323 1.524 . S
C2324 C2325 1.415 . S
C2325 H2295 0.950 . S
C2325 C2320 1.363 . S
C2325 C2324 1.415 . S
H2326 C2323 0.999 . S
H2327 C2308 0.913 . S
H2328 C2346 0.951 . S
H2329 C2348 0.951 . S
H2330 C2350 0.950 . S
H2331 C2351 0.950 . S
H2332 C2353 0.950 . S
H2333 C2356 0.950 . S
H2334 C2357 0.950 . S
H2335 C2359 0.950 . S
H2336 C2360 0.950 . S
H2337 C2361 0.951 . S
H2338 C2363 0.951 . S
H2339 C2365 0.950 . S
H2340 C2366 0.950 . S
H2341 C2368 0.950 . S
H2342 C2371 0.950 . S
H2343 C2372 0.950 . S
H2344 C2374 0.950 . S
H2345 C2375 0.950 . S
C2346 H2328 0.951 . S
C2346 C2347 1.366 . S
C2346 C2348 1.388 . S
C2347 C2346 1.366 . S
C2347 C2351 1.385 . S
C2348 H2329 0.951 . S
C2348 C2346 1.388 . S
C2348 C2349 1.366 . S
C2349 C2348 1.366 . S
C2349 C2350 1.414 . S
C2349 C2352 1.499 . S
C2350 H2330 0.950 . S
C2350 C2349 1.414 . S
C2350 C2351 1.374 . S
C2351 H2331 0.950 . S
C2351 C2347 1.385 . S
C2351 C2350 1.374 . S
C2352 C2349 1.499 . S
C2352 C2353 1.373 . S
C2352 C2354 1.389 . S
C2353 H2332 0.950 . S
C2353 C2352 1.373 . S
C2353 C2369 1.377 . S
C2354 C2352 1.389 . S
C2354 C2355 1.524 . S
C2354 C2368 1.377 . S
C2355 C2354 1.524 . S
C2355 C2356 1.397 . S
C2355 C2360 1.363 . S
C2356 H2333 0.950 . S
C2356 C2355 1.397 . S
C2356 C2357 1.334 . S
C2357 H2334 0.950 . S
C2357 C2356 1.334 . S
C2357 C2358 1.287 . S
C2358 C2357 1.287 . S
C2358 C2359 1.524 . S
C2358 H2377 0.913 . S
C2359 H2335 0.950 . S
C2359 C2358 1.524 . S
C2359 C2360 1.415 . S
C2360 H2336 0.950 . S
C2360 C2355 1.363 . S
C2360 C2359 1.415 . S
C2361 H2337 0.951 . S
C2361 C2362 1.366 . S
C2361 C2363 1.388 . S
C2362 C2361 1.366 . S
C2362 C2366 1.385 . S
C2363 H2338 0.951 . S
C2363 C2361 1.388 . S
C2363 C2364 1.366 . S
C2364 C2363 1.366 . S
C2364 C2365 1.414 . S
C2364 C2367 1.499 . S
C2365 H2339 0.950 . S
C2365 C2364 1.414 . S
C2365 C2366 1.374 . S
C2366 H2340 0.950 . S
C2366 C2362 1.385 . S
C2366 C2365 1.374 . S
C2367 C2364 1.499 . S
C2367 C2368 1.373 . S
C2367 C2369 1.389 . S
C2368 H2341 0.950 . S
C2368 C2354 1.377 . S
C2368 C2367 1.373 . S
C2369 C2353 1.377 . S
C2369 C2367 1.389 . S
C2369 C2370 1.524 . S
C2370 C2369 1.524 . S
C2370 C2371 1.397 . S
C2370 C2375 1.363 . S
C2371 H2342 0.950 . S
C2371 C2370 1.397 . S
C2371 C2372 1.334 . S
C2372 H2343 0.950 . S
C2372 C2371 1.334 . S
C2372 C2373 1.287 . S
C2373 C2372 1.287 . S
C2373 C2374 1.524 . S
C2373 H2376 0.999 . S
C2374 H2344 0.950 . S
C2374 C2373 1.524 . S
C2374 C2375 1.415 . S
C2375 H2345 0.950 . S
C2375 C2370 1.363 . S
C2375 C2374 1.415 . S
H2376 C2373 0.999 . S
H2377 C2358 0.913 . S
H2378 C2396 0.951 . S
H2379 C2398 0.951 . S
H2380 C2400 0.950 . S
H2381 C2401 0.950 1_655 S
H2382 C2403 0.950 . S
H2383 C2406 0.950 . S
H2384 C2407 0.950 . S
H2385 C2409 0.950 . S
H2386 C2410 0.950 . S
H2387 C2411 0.951 . S
H2388 C2413 0.951 . S
H2389 C2415 0.950 . S
H2390 C2416 0.950 1_455 S
H2391 C2418 0.950 . S
H2392 C2421 0.950 . S
H2393 C2422 0.950 . S
H2394 C2424 0.950 . S
H2395 C2425 0.950 . S
C2396 H2378 0.951 . S
C2396 C2397 1.366 . S
C2396 C2398 1.388 . S
C2397 C2396 1.366 . S
C2397 C2401 1.385 . S
C2398 H2379 0.951 . S
C2398 C2396 1.388 . S
C2398 C2399 1.366 . S
C2399 C2398 1.366 . S
C2399 C2400 1.414 1_455 S
C2399 C2402 1.499 . S
C2400 H2380 0.950 . S
C2400 C2399 1.414 1_655 S
C2400 C2401 1.374 1_655 S
C2401 H2381 0.950 1_455 S
C2401 C2397 1.385 . S
C2401 C2400 1.374 1_455 S
C2402 C2399 1.499 . S
C2402 C2403 1.373 1_455 S
C2402 C2404 1.389 . S
C2403 H2382 0.950 . S
C2403 C2402 1.373 1_655 S
C2403 C2419 1.377 . S
C2404 C2402 1.389 . S
C2404 C2405 1.524 . S
C2404 C2418 1.377 . S
C2405 C2404 1.524 . S
C2405 C2406 1.397 . S
C2405 C2410 1.363 . S
C2406 H2383 0.950 . S
C2406 C2405 1.397 . S
C2406 C2407 1.334 . S
C2407 H2384 0.950 . S
C2407 C2406 1.334 . S
C2407 C2408 1.287 . S
C2408 C2407 1.287 . S
C2408 C2409 1.524 . S
C2408 H2427 0.913 . S
C2409 H2385 0.950 . S
C2409 C2408 1.524 . S
C2409 C2410 1.415 . S
C2410 H2386 0.950 . S
C2410 C2405 1.363 . S
C2410 C2409 1.415 . S
C2411 H2387 0.951 . S
C2411 C2412 1.366 . S
C2411 C2413 1.388 . S
C2412 C2411 1.366 . S
C2412 C2416 1.385 . S
C2413 H2388 0.951 . S
C2413 C2411 1.388 . S
C2413 C2414 1.366 . S
C2414 C2413 1.366 . S
C2414 C2415 1.414 1_655 S
C2414 C2417 1.499 . S
C2415 H2389 0.950 . S
C2415 C2414 1.414 1_455 S
C2415 C2416 1.374 1_455 S
C2416 H2390 0.950 1_655 S
C2416 C2412 1.385 . S
C2416 C2415 1.374 1_655 S
C2417 C2414 1.499 . S
C2417 C2418 1.373 1_655 S
C2417 C2419 1.389 . S
C2418 H2391 0.950 . S
C2418 C2404 1.377 . S
C2418 C2417 1.373 1_455 S
C2419 C2403 1.377 . S
C2419 C2417 1.389 . S
C2419 C2420 1.524 . S
C2420 C2419 1.524 . S
C2420 C2421 1.397 . S
C2420 C2425 1.363 . S
C2421 H2392 0.950 . S
C2421 C2420 1.397 . S
C2421 C2422 1.334 . S
C2422 H2393 0.950 . S
C2422 C2421 1.334 . S
C2422 C2423 1.287 . S
C2423 C2422 1.287 . S
C2423 C2424 1.524 . S
C2423 H2426 0.999 . S
C2424 H2394 0.950 . S
C2424 C2423 1.524 . S
C2424 C2425 1.415 . S
C2425 H2395 0.950 . S
C2425 C2420 1.363 . S
C2425 C2424 1.415 . S
H2426 C2423 0.999 . S
H2427 C2408 0.913 . S
H2428 C2446 0.951 . S
H2429 C2448 0.951 . S
H2430 C2450 0.950 . S
H2431 C2451 0.950 . S
H2432 C2453 0.950 . S
H2433 C2456 0.950 . S
H2434 C2457 0.950 . S
H2435 C2459 0.950 . S
H2436 C2460 0.950 . S
H2437 C2461 0.951 . S
H2438 C2463 0.951 . S
H2439 C2465 0.950 . S
H2440 C2466 0.950 . S
H2441 C2468 0.950 . S
H2442 C2471 0.950 . S
H2443 C2472 0.950 . S
H2444 C2474 0.950 . S
H2445 C2475 0.950 . S
C2446 H2428 0.951 . S
C2446 C2447 1.366 . S
C2446 C2448 1.388 . S
C2447 C2446 1.366 . S
C2447 C2451 1.385 . S
C2448 H2429 0.951 . S
C2448 C2446 1.388 . S
C2448 C2449 1.366 . S
C2449 C2448 1.366 . S
C2449 C2450 1.414 . S
C2449 C2452 1.499 . S
C2450 H2430 0.950 . S
C2450 C2449 1.414 . S
C2450 C2451 1.374 . S
C2451 H2431 0.950 . S
C2451 C2447 1.385 . S
C2451 C2450 1.374 . S
C2452 C2449 1.499 . S
C2452 C2453 1.373 . S
C2452 C2454 1.389 . S
C2453 H2432 0.950 . S
C2453 C2452 1.373 . S
C2453 C2469 1.377 . S
C2454 C2452 1.389 . S
C2454 C2455 1.524 . S
C2454 C2468 1.377 . S
C2455 C2454 1.524 . S
C2455 C2456 1.397 . S
C2455 C2460 1.363 . S
C2456 H2433 0.950 . S
C2456 C2455 1.397 . S
C2456 C2457 1.334 . S
C2457 H2434 0.950 . S
C2457 C2456 1.334 . S
C2457 C2458 1.287 . S
C2458 C2457 1.287 . S
C2458 C2459 1.524 . S
C2458 H2477 0.913 . S
C2459 H2435 0.950 . S
C2459 C2458 1.524 . S
C2459 C2460 1.415 . S
C2460 H2436 0.950 . S
C2460 C2455 1.363 . S
C2460 C2459 1.415 . S
C2461 H2437 0.951 . S
C2461 C2462 1.366 . S
C2461 C2463 1.388 . S
C2462 C2461 1.366 . S
C2462 C2466 1.385 . S
C2463 H2438 0.951 . S
C2463 C2461 1.388 . S
C2463 C2464 1.366 . S
C2464 C2463 1.366 . S
C2464 C2465 1.414 . S
C2464 C2467 1.499 . S
C2465 H2439 0.950 . S
C2465 C2464 1.414 . S
C2465 C2466 1.374 . S
C2466 H2440 0.950 . S
C2466 C2462 1.385 . S
C2466 C2465 1.374 . S
C2467 C2464 1.499 . S
C2467 C2468 1.373 . S
C2467 C2469 1.389 . S
C2468 H2441 0.950 . S
C2468 C2454 1.377 . S
C2468 C2467 1.373 . S
C2469 C2453 1.377 . S
C2469 C2467 1.389 . S
C2469 C2470 1.524 . S
C2470 C2469 1.524 . S
C2470 C2471 1.397 . S
C2470 C2475 1.363 . S
C2471 H2442 0.950 . S
C2471 C2470 1.397 . S
C2471 C2472 1.334 . S
C2472 H2443 0.950 . S
C2472 C2471 1.334 . S
C2472 C2473 1.287 . S
C2473 C2472 1.287 . S
C2473 C2474 1.524 . S
C2473 H2476 0.999 . S
C2474 H2444 0.950 . S
C2474 C2473 1.524 . S
C2474 C2475 1.415 . S
C2475 H2445 0.950 . S
C2475 C2470 1.363 . S
C2475 C2474 1.415 . S
H2476 C2473 0.999 . S
H2477 C2458 0.913 . S
H2478 C2496 0.951 . S
H2479 C2498 0.951 1_655 S
H2480 C2500 0.950 . S
H2481 C2501 0.950 . S
H2482 C2503 0.950 . S
H2483 C2506 0.950 . S
H2484 C2507 0.950 . S
H2485 C2509 0.950 . S
H2486 C2510 0.950 . S
H2487 C2511 0.951 . S
H2488 C2513 0.951 1_455 S
H2489 C2515 0.950 . S
H2490 C2516 0.950 . S
H2491 C2518 0.950 . S
H2492 C2521 0.950 . S
H2493 C2522 0.950 . S
H2494 C2524 0.950 . S
H2495 C2525 0.950 . S
C2496 H2478 0.951 . S
C2496 C2497 1.366 . S
C2496 C2498 1.388 . S
C2497 C2496 1.366 . S
C2497 C2501 1.385 . S
C2498 H2479 0.951 1_455 S
C2498 C2496 1.388 . S
C2498 C2499 1.366 . S
C2499 C2498 1.366 . S
C2499 C2500 1.414 . S
C2499 C2502 1.499 . S
C2500 H2480 0.950 . S
C2500 C2499 1.414 . S
C2500 C2501 1.374 . S
C2501 H2481 0.950 . S
C2501 C2497 1.385 . S
C2501 C2500 1.374 . S
C2502 C2499 1.499 . S
C2502 C2503 1.373 . S
C2502 C2504 1.389 1_455 S
C2503 H2482 0.950 . S
C2503 C2502 1.373 . S
C2503 C2519 1.377 . S
C2504 C2502 1.389 1_655 S
C2504 C2505 1.524 . S
C2504 C2518 1.377 . S
C2505 C2504 1.524 . S
C2505 C2506 1.397 . S
C2505 C2510 1.363 . S
C2506 H2483 0.950 . S
C2506 C2505 1.397 . S
C2506 C2507 1.334 . S
C2507 H2484 0.950 . S
C2507 C2506 1.334 . S
C2507 C2508 1.287 . S
C2508 C2507 1.287 . S
C2508 C2509 1.524 . S
C2508 H2527 0.913 . S
C2509 H2485 0.950 . S
C2509 C2508 1.524 . S
C2509 C2510 1.415 . S
C2510 H2486 0.950 . S
C2510 C2505 1.363 . S
C2510 C2509 1.415 . S
C2511 H2487 0.951 . S
C2511 C2512 1.366 . S
C2511 C2513 1.388 . S
C2512 C2511 1.366 . S
C2512 C2516 1.385 . S
C2513 H2488 0.951 1_655 S
C2513 C2511 1.388 . S
C2513 C2514 1.366 . S
C2514 C2513 1.366 . S
C2514 C2515 1.414 . S
C2514 C2517 1.499 . S
C2515 H2489 0.950 . S
C2515 C2514 1.414 . S
C2515 C2516 1.374 . S
C2516 H2490 0.950 . S
C2516 C2512 1.385 . S
C2516 C2515 1.374 . S
C2517 C2514 1.499 . S
C2517 C2518 1.373 . S
C2517 C2519 1.389 1_655 S
C2518 H2491 0.950 . S
C2518 C2504 1.377 . S
C2518 C2517 1.373 . S
C2519 C2503 1.377 . S
C2519 C2517 1.389 1_455 S
C2519 C2520 1.524 . S
C2520 C2519 1.524 . S
C2520 C2521 1.397 . S
C2520 C2525 1.363 . S
C2521 H2492 0.950 . S
C2521 C2520 1.397 . S
C2521 C2522 1.334 . S
C2522 H2493 0.950 . S
C2522 C2521 1.334 . S
C2522 C2523 1.287 . S
C2523 C2522 1.287 . S
C2523 C2524 1.524 . S
C2523 H2526 0.999 . S
C2524 H2494 0.950 . S
C2524 C2523 1.524 . S
C2524 C2525 1.415 . S
C2525 H2495 0.950 . S
C2525 C2520 1.363 . S
C2525 C2524 1.415 . S
H2526 C2523 0.999 . S
H2527 C2508 0.913 . S
C547 C182 0.708 . S
C562 C28 0.708 . S
C597 C149 0.708 . S
C612 C61 0.708 . S
C647 C74 0.731 . S
C662 C248 0.732 . S
C697 C127 0.719 . S
C712 C215 0.718 . S
C747 C140 1.176 . S
C762 C41 1.187 . S
C797 C173 1.179 . S
C812 C8 1.191 . S
C847 C107 1.174 . S
C862 C206 1.162 . S
C897 C239 1.159 . S
C912 C94 1.168 . S
C947 C292 0.708 . S
C962 C446 0.708 . S
C997 C325 0.709 . S
C1012 C413 0.710 . S
C1047 C338 0.731 . S
C1062 C512 0.731 . S
C1097 C391 0.718 . S
C1112 C479 0.718 . S
C1147 C404 1.175 . S
C1162 C305 1.187 . S
C1197 C437 1.179 . S
C1212 C272 1.191 . S
C1247 C371 1.174 . S
C1262 C470 1.163 . S
C1297 C358 1.169 . S
C1312 C503 1.160 . S
C1347 N5 1.664 . S
C1362 N38 1.665 . S
C1397 N80 1.687 . S
C1412 N104 1.685 . S
C1447 N179 1.796 . S
C1462 N146 1.796 . S
C1497 N245 1.769 . S
C1512 N212 1.770 . S
C1547 N302 1.665 . S
C1562 N269 1.664 . S
C1597 N368 1.685 . S
C1612 N344 1.686 . S
C1647 N410 1.796 . S
C1662 N443 1.796 . S
C1697 N476 1.770 . S
C1712 N509 1.769 . S
C1747 N311 1.783 . S
C1762 N14 1.782 . S
C1797 N47 1.782 . S
C1812 N278 1.781 . S
C1847 N71 1.796 . S
C1862 N377 1.790 . S
C1897 N335 1.796 . S
C1912 N113 1.790 . S
C1947 N137 1.315 . S
C1962 N434 1.316 . S
C1997 N170 1.316 . S
C2012 N401 1.316 . S
C2047 N203 1.372 . S
C2062 N500 1.371 . S
C2097 N467 1.373 . S
C2112 N236 1.371 . S
C2147 C17 1.518 . S
C2162 C116 1.518 . S
C2197 C50 1.521 . S
C2212 C83 1.512 . S
C2247 C160 1.515 . S
C2262 C259 1.516 . S
C2297 C193 1.516 . S
C2312 C226 1.516 . S
C2347 C380 1.518 . S
C2362 C281 1.519 . S
C2397 C347 1.512 . S
C2412 C314 1.521 . S
C2447 C424 1.515 . S
C2462 C523 1.516 . S
C2497 C457 1.516 . S
C2512 C490 1.516 . S
