# Generated by pormake.
# Topology rac, (4)-cn, num edge types: 1
# Building blocks:
#     Node 0, Type 0, BuildingBlock: NAHDIM_clean_sbu_0, # of connection points: 4
#     Node 1, Type 0, BuildingBlock: NAHDIM_clean_sbu_0, # of connection points: 4
#     Node 2, Type 0, BuildingBlock: NAHDIM_clean_sbu_0, # of connection points: 4
#     Node 3, Type 0, BuildingBlock: NAHDIM_clean_sbu_0, # of connection points: 4
#     Node 4, Type 0, BuildingBlock: NAHDIM_clean_sbu_0, # of connection points: 4
#     Node 5, Type 0, BuildingBlock: NAHDIM_clean_sbu_0, # of connection points: 4
#     Node 6, Type 0, BuildingBlock: NAHDIM_clean_sbu_0, # of connection points: 4
#     Node 7, Type 0, BuildingBlock: NAHDIM_clean_sbu_0, # of connection points: 4
#     Edge 8, Type (0, 0), BuildingBlock: UVAHIK_clean_linker_0, # of connection points: 2
#     Edge 9, Type (0, 0), BuildingBlock: UVAHIK_clean_linker_0, # of connection points: 2
#     Edge 10, Type (0, 0), BuildingBlock: UVAHIK_clean_linker_0, # of connection points: 2
#     Edge 11, Type (0, 0), BuildingBlock: UVAHIK_clean_linker_0, # of connection points: 2
#     Edge 12, Type (0, 0), BuildingBlock: UVAHIK_clean_linker_0, # of connection points: 2
#     Edge 13, Type (0, 0), BuildingBlock: UVAHIK_clean_linker_0, # of connection points: 2
#     Edge 14, Type (0, 0), BuildingBlock: UVAHIK_clean_linker_0, # of connection points: 2
#     Edge 15, Type (0, 0), BuildingBlock: UVAHIK_clean_linker_0, # of connection points: 2
#     Edge 16, Type (0, 0), BuildingBlock: UVAHIK_clean_linker_0, # of connection points: 2
#     Edge 17, Type (0, 0), BuildingBlock: UVAHIK_clean_linker_0, # of connection points: 2
#     Edge 18, Type (0, 0), BuildingBlock: UVAHIK_clean_linker_0, # of connection points: 2
#     Edge 19, Type (0, 0), BuildingBlock: UVAHIK_clean_linker_0, # of connection points: 2
#     Edge 20, Type (0, 0), BuildingBlock: UVAHIK_clean_linker_0, # of connection points: 2
#     Edge 21, Type (0, 0), BuildingBlock: UVAHIK_clean_linker_0, # of connection points: 2
#     Edge 22, Type (0, 0), BuildingBlock: UVAHIK_clean_linker_0, # of connection points: 2
#     Edge 23, Type (0, 0), BuildingBlock: UVAHIK_clean_linker_0, # of connection points: 2
# Relax obj value: 0.231
# Max RMSD: 0.117
# Mean RMSD: 0.117
data_MOF--net-rac--node1-NAHDIM_clean_sbu_0--edge1-UVAHIK_clean_linker_0
_symmetry_space_group_name_H-M    P1
_symmetry_Int_Tables_number       1
_symmetry_cell_setting            triclinic
loop_
_symmetry_equiv_pos_as_xyz
'x, y, z'
_cell_length_a     51.027808
_cell_length_b     26.711748
_cell_length_c     53.682163
_cell_angle_alpha  89.953461
_cell_angle_beta   90.025773
_cell_angle_gamma 89.899486
loop_
_atom_site_label
_atom_site_type_symbol
_atom_site_fract_x
_atom_site_fract_y
_atom_site_fract_z
_atom_type_partial_charge
C0 C 0.43792 0.27771 0.04688 0.0
O1 O 0.44563 0.26178 0.06885 0.0
O2 O 0.39955 0.23187 0.09761 0.0
Zn3 Zn 0.38692 0.23958 0.06214 0.0
O4 O 0.35911 0.29223 0.06249 0.0
C5 C 0.36359 0.14097 0.06312 0.0
O6 O 0.37337 0.1399 0.08575 0.0
O7 O 0.41482 0.26776 0.03955 0.0
C8 C 0.34052 0.29246 0.0782 0.0
O9 O 0.33926 0.25689 0.09508 0.0
C10 C 0.40369 0.27166 0.10999 0.0
O11 O 0.40094 0.31518 0.09884 0.0
O12 O 0.36879 0.17795 0.04905 0.0
C13 C 0.05914 0.70972 0.05566 0.0
O14 O 0.04953 0.72952 0.0761 0.0
O15 O 0.09357 0.76957 0.10589 0.0
Zn16 Zn 0.10869 0.75312 0.07217 0.0
O17 O 0.13642 0.70151 0.07803 0.0
C18 C 0.13224 0.85156 0.0681 0.0
O19 O 0.12148 0.85846 0.09005 0.0
O20 O 0.08273 0.71893 0.04962 0.0
C21 C 0.15181 0.6904 0.06031 0.0
O22 O 0.14938 0.71376 0.03888 0.0
C23 C 0.08888 0.73265 0.12017 0.0
O24 O 0.09252 0.68705 0.11166 0.0
O25 O 0.12758 0.81128 0.05633 0.0
C26 C 0.43388 0.21106 0.43986 0.0
O27 O 0.44263 0.22711 0.41828 0.0
O28 O 0.39857 0.26786 0.38903 0.0
Zn29 Zn 0.38394 0.25251 0.42312 0.0
O30 O 0.35706 0.19911 0.41818 0.0
C31 C 0.35931 0.35058 0.42598 0.0
O32 O 0.37051 0.35746 0.40422 0.0
O33 O 0.41055 0.22157 0.44632 0.0
C34 C 0.34185 0.18802 0.43605 0.0
O35 O 0.34395 0.2124 0.45721 0.0
C36 C 0.40293 0.23066 0.37483 0.0
O37 O 0.39936 0.18524 0.3836 0.0
O38 O 0.36403 0.31057 0.43801 0.0
C39 C 0.05427 0.78131 0.44722 0.0
O40 O 0.04631 0.76435 0.42554 0.0
O41 O 0.09249 0.73478 0.39673 0.0
Zn42 Zn 0.10511 0.74174 0.43218 0.0
O43 O 0.13334 0.79336 0.43202 0.0
C44 C 0.12781 0.64257 0.43105 0.0
O45 O 0.11812 0.64221 0.40837 0.0
O46 O 0.07738 0.77114 0.45454 0.0
C47 C 0.15206 0.79337 0.41646 0.0
O48 O 0.15322 0.75818 0.3994 0.0
C49 C 0.08844 0.7748 0.38445 0.0
O50 O 0.09142 0.81813 0.39567 0.0
O51 O 0.12272 0.67937 0.44525 0.0
C52 C 0.5589 0.715 0.94352 0.0
O53 O 0.5526 0.72814 0.92071 0.0
O54 O 0.59836 0.7655 0.8949 0.0
Zn55 Zn 0.60949 0.75765 0.93079 0.0
O56 O 0.63819 0.7068 0.93178 0.0
C57 C 0.62487 0.86142 0.931 0.0
O58 O 0.60992 0.86297 0.91108 0.0
O59 O 0.58098 0.72827 0.95228 0.0
C60 C 0.65823 0.70892 0.91782 0.0
O61 O 0.66042 0.7457 0.90169 0.0
C62 C 0.59667 0.7275 0.88075 0.0
O63 O 0.60104 0.68278 0.89009 0.0
O64 O 0.62576 0.82131 0.94373 0.0
C65 C 0.93944 0.27291 0.95163 0.0
O66 O 0.94927 0.25486 0.93088 0.0
O67 O 0.90715 0.23768 0.89561 0.0
Zn68 Zn 0.88965 0.24794 0.92884 0.0
O69 O 0.86576 0.30698 0.92498 0.0
C70 C 0.8482 0.18509 0.92045 0.0
O71 O 0.84894 0.2147 0.9009 0.0
O72 O 0.91502 0.26838 0.9557 0.0
C73 C 0.84963 0.31663 0.94232 0.0
O74 O 0.84928 0.2879 0.9622 0.0
C75 C 0.91511 0.2761 0.88387 0.0
O76 O 0.91321 0.32021 0.89455 0.0
O77 O 0.86597 0.1896 0.93693 0.0
C78 C 0.5572 0.78325 0.55182 0.0
O79 O 0.55017 0.76988 0.57439 0.0
O80 O 0.59629 0.73663 0.60195 0.0
Zn81 Zn 0.60785 0.74192 0.56609 0.0
O82 O 0.6369 0.79186 0.56498 0.0
C83 C 0.62326 0.63811 0.56774 0.0
O84 O 0.60857 0.63824 0.58783 0.0
O85 O 0.57976 0.77084 0.54387 0.0
C86 C 0.65624 0.79009 0.57984 0.0
O87 O 0.65733 0.75446 0.5967 0.0
C88 C 0.59372 0.77597 0.61504 0.0
O89 O 0.59727 0.81987 0.60452 0.0
O90 O 0.62398 0.67717 0.55422 0.0
C91 C 0.93718 0.21865 0.5536 0.0
O92 O 0.94656 0.23218 0.57535 0.0
O93 O 0.90526 0.26174 0.60838 0.0
Zn94 Zn 0.88788 0.24946 0.5752 0.0
O95 O 0.86391 0.19072 0.57925 0.0
C96 C 0.84627 0.31266 0.58265 0.0
O97 O 0.8469 0.28377 0.60248 0.0
O98 O 0.91333 0.228 0.54854 0.0
C99 C 0.84885 0.18012 0.56119 0.0
O100 O 0.84974 0.20765 0.54091 0.0
C101 C 0.9109 0.22438 0.62207 0.0
O102 O 0.90659 0.17901 0.61358 0.0
O103 O 0.86417 0.30748 0.56636 0.0
C104 C 0.33771 0.06292 0.07084 0.0
C105 C 0.34281 0.10511 0.05597 0.0
C106 C 0.31558 0.03342 0.06647 0.0
C107 C 0.24904 0.04556 0.04306 0.0
H108 H 0.24774 0.90082 0.04853 0.0
C109 C 0.17116 0.86934 0.04106 0.0
C110 C 0.15343 0.88524 0.05952 0.0
C111 C 0.19369 0.89718 0.0359 0.0
C112 C 0.24781 0.9412 0.04664 0.0
H113 H 0.32931 0.14796 0.02405 0.0
H114 H 0.29055 0.09663 0.01663 0.0
H115 H 0.28977 0.94464 0.04783 0.0
H116 H 0.14462 0.9444 0.08586 0.0
H117 H 0.18376 0.99338 0.07655 0.0
H118 H 0.20706 0.04224 0.04272 0.0
C119 C 0.30368 0.08657 0.0317 0.0
C120 C 0.27184 0.96625 0.04643 0.0
C121 C 0.32598 0.11572 0.03587 0.0
C122 C 0.15791 0.93109 0.07159 0.0
C123 C 0.18028 0.95923 0.0662 0.0
C124 C 0.225 0.02056 0.04358 0.0
C125 C 0.29794 0.04581 0.04731 0.0
C126 C 0.27269 0.01872 0.04498 0.0
C127 C 0.19877 0.94183 0.04882 0.0
C128 C 0.22414 0.96818 0.04571 0.0
H129 H 0.35031 0.05369 0.08644 0.0
H130 H 0.31158 0.00238 0.0789 0.0
H131 H 0.24909 0.08607 0.04215 0.0
H132 H 0.16832 0.83416 0.03142 0.0
H133 H 0.20748 0.88318 0.02223 0.0
C134 C 0.15341 0.56416 0.42303 0.0
C135 C 0.1485 0.60623 0.43804 0.0
C136 C 0.17552 0.5343 0.42719 0.0
C137 C 0.24224 0.54529 0.4502 0.0
H138 H 0.24328 0.40058 0.44462 0.0
C139 C 0.31996 0.3684 0.45247 0.0
C140 C 0.33784 0.38416 0.43413 0.0
C141 C 0.29736 0.39633 0.4574 0.0
C142 C 0.24328 0.44095 0.44652 0.0
H143 H 0.16229 0.64847 0.46998 0.0
H144 H 0.201 0.59651 0.47704 0.0
H145 H 0.20132 0.44493 0.44551 0.0
H146 H 0.34676 0.44308 0.40767 0.0
H147 H 0.30748 0.49222 0.41658 0.0
H148 H 0.28421 0.54143 0.45038 0.0
C149 C 0.18775 0.58682 0.46203 0.0
C150 C 0.21929 0.4663 0.44684 0.0
C151 C 0.16547 0.61633 0.45807 0.0
C152 C 0.33336 0.42988 0.42186 0.0
C153 C 0.31091 0.45811 0.42703 0.0
C154 C 0.26624 0.51999 0.44956 0.0
C155 C 0.19331 0.54621 0.44628 0.0
C156 C 0.21853 0.51877 0.44838 0.0
C157 C 0.29234 0.44093 0.44436 0.0
C158 C 0.26701 0.4676 0.4474 0.0
H159 H 0.14071 0.55533 0.40748 0.0
H160 H 0.17937 0.50338 0.41467 0.0
H161 H 0.24226 0.5858 0.45116 0.0
H162 H 0.32279 0.33332 0.46226 0.0
H163 H 0.2835 0.38249 0.47103 0.0
C164 C 0.64634 0.94176 0.91869 0.0
C165 C 0.64449 0.9013 0.93534 0.0
C166 C 0.6677 0.97428 0.91971 0.0
C167 C 0.72355 0.01803 0.95741 0.0
H168 H 0.75616 0.03655 0.89283 0.0
C169 C 0.82403 0.11811 0.94428 0.0
C170 C 0.82585 0.15037 0.92365 0.0
C171 C 0.80217 0.08689 0.94721 0.0
C172 C 0.74718 0.03234 0.91099 0.0
H173 H 0.66263 0.86562 0.96736 0.0
H174 H 0.6999 0.92283 0.96917 0.0
H175 H 0.71626 0.98754 0.89613 0.0
H176 H 0.806 0.17546 0.89009 0.0
H177 H 0.76809 0.12227 0.89538 0.0
H178 H 0.75444 0.06358 0.97219 0.0
C179 C 0.68485 0.92908 0.95527 0.0
C180 C 0.72428 0.00424 0.91286 0.0
C181 C 0.66351 0.89629 0.95418 0.0
C182 C 0.80542 0.15077 0.90609 0.0
C183 C 0.78366 0.11996 0.90906 0.0
C184 C 0.74646 0.04665 0.95551 0.0
C185 C 0.68761 0.96729 0.93748 0.0
C186 C 0.71204 0.99719 0.93601 0.0
C187 C 0.78174 0.08745 0.92956 0.0
C188 C 0.75837 0.0546 0.9322 0.0
H189 H 0.63195 0.94702 0.90408 0.0
H190 H 0.66907 0.00405 0.90605 0.0
H191 H 0.71452 0.01311 0.97551 0.0
H192 H 0.83943 0.11704 0.95817 0.0
H193 H 0.80139 0.062 0.96312 0.0
C194 C 0.64472 0.55839 0.58128 0.0
C195 C 0.64284 0.59778 0.564 0.0
C196 C 0.66603 0.52558 0.58072 0.0
C197 C 0.72175 0.47904 0.54355 0.0
H198 H 0.7544 0.46351 0.60835 0.0
C199 C 0.82217 0.37872 0.55801 0.0
C200 C 0.82395 0.34742 0.57901 0.0
C201 C 0.80033 0.41 0.55468 0.0
C202 C 0.74541 0.46689 0.59015 0.0
H203 H 0.6609 0.63121 0.53139 0.0
H204 H 0.69811 0.57355 0.53041 0.0
H205 H 0.71457 0.51281 0.60442 0.0
H206 H 0.80404 0.32411 0.61283 0.0
H207 H 0.76619 0.37743 0.60685 0.0
H208 H 0.75259 0.43241 0.52937 0.0
C209 C 0.68311 0.56832 0.54443 0.0
C210 C 0.72255 0.49515 0.58791 0.0
C211 C 0.6618 0.60138 0.54505 0.0
C212 C 0.8035 0.34804 0.59653 0.0
C213 C 0.78177 0.37892 0.59317 0.0
C214 C 0.74464 0.45028 0.54582 0.0
C215 C 0.68589 0.53122 0.56281 0.0
C216 C 0.71029 0.50113 0.56467 0.0
C217 C 0.77989 0.41047 0.57229 0.0
C218 C 0.75655 0.44342 0.56923 0.0
H219 H 0.63037 0.55421 0.596 0.0
H220 H 0.66741 0.49667 0.59483 0.0
H221 H 0.71272 0.48309 0.5254 0.0
H222 H 0.83759 0.37899 0.54414 0.0
H223 H 0.79959 0.43414 0.53848 0.0
C224 C 0.41271 0.31386 0.15067 0.0
C225 C 0.40974 0.26945 0.13692 0.0
C226 C 0.41641 0.31221 0.17643 0.0
C227 C 0.43502 0.22904 0.22866 0.0
H228 H 0.39135 0.31841 0.26766 0.0
C229 C 0.41283 0.1964 0.33257 0.0
C230 C 0.40974 0.23802 0.3483 0.0
C231 C 0.41681 0.20285 0.30705 0.0
C232 C 0.40408 0.29384 0.25711 0.0
H233 H 0.40916 0.18839 0.13935 0.0
H234 H 0.41551 0.18554 0.18439 0.0
H235 H 0.39107 0.32456 0.22244 0.0
H236 H 0.40954 0.31917 0.34973 0.0
H237 H 0.41685 0.33047 0.30513 0.0
H238 H 0.44774 0.19782 0.26337 0.0
C239 C 0.41516 0.22164 0.17519 0.0
C240 C 0.40387 0.29731 0.23115 0.0
C241 C 0.41138 0.22328 0.1494 0.0
C242 C 0.41171 0.28632 0.33809 0.0
C243 C 0.41574 0.29279 0.31251 0.0
C244 C 0.4353 0.22568 0.25465 0.0
C245 C 0.4173 0.26612 0.18903 0.0
C246 C 0.41906 0.26452 0.21663 0.0
C247 C 0.41787 0.2511 0.29663 0.0
C248 C 0.41953 0.25756 0.26917 0.0
H249 H 0.41168 0.35007 0.14162 0.0
H250 H 0.41835 0.34709 0.18653 0.0
H251 H 0.44722 0.20374 0.21798 0.0
H252 H 0.41144 0.15865 0.33982 0.0
H253 H 0.41804 0.16991 0.29536 0.0
C254 C 0.08006 0.72694 0.34509 0.0
C255 C 0.08213 0.77298 0.35758 0.0
C256 C 0.07599 0.72557 0.31935 0.0
C257 C 0.08729 0.80109 0.26337 0.0
H258 H 0.04279 0.70262 0.23145 0.0
C259 C 0.07977 0.78903 0.15652 0.0
C260 C 0.08169 0.74053 0.14656 0.0
C261 C 0.0755 0.79599 0.18202 0.0
C262 C 0.05539 0.73021 0.24009 0.0
H263 H 0.08062 0.85368 0.35297 0.0
H264 H 0.07343 0.85117 0.30812 0.0
H265 H 0.04343 0.7088 0.27684 0.0
H266 H 0.07958 0.66133 0.15538 0.0
H267 H 0.07256 0.67343 0.19972 0.0
H268 H 0.09988 0.82159 0.2268 0.0
C269 C 0.07527 0.81618 0.31818 0.0
C270 C 0.05574 0.73373 0.26607 0.0
C271 C 0.07927 0.81756 0.3439 0.0
C272 C 0.07824 0.69922 0.16244 0.0
C273 C 0.07402 0.70616 0.18789 0.0
C274 C 0.08701 0.79747 0.23743 0.0
C275 C 0.07396 0.77019 0.30556 0.0
C276 C 0.07196 0.76876 0.27799 0.0
C277 C 0.07307 0.75459 0.19807 0.0
C278 C 0.07134 0.76151 0.22548 0.0
H279 H 0.08217 0.69193 0.35509 0.0
H280 H 0.07533 0.68954 0.31013 0.0
H281 H 0.10029 0.82799 0.272 0.0
H282 H 0.08219 0.82165 0.14475 0.0
H283 H 0.07447 0.8338 0.18922 0.0
C284 C 0.58829 0.78181 0.84348 0.0
C285 C 0.59136 0.73379 0.85382 0.0
C286 C 0.58501 0.78787 0.81781 0.0
C287 C 0.56773 0.72024 0.75986 0.0
H288 H 0.60939 0.82344 0.72813 0.0
C289 C 0.58758 0.72535 0.65393 0.0
C290 C 0.58871 0.77229 0.64213 0.0
C291 C 0.58487 0.72204 0.67978 0.0
C292 C 0.59728 0.79497 0.7367 0.0
H293 H 0.59268 0.6544 0.84538 0.0
H294 H 0.58718 0.66504 0.80061 0.0
H295 H 0.60998 0.81529 0.77328 0.0
H296 H 0.58691 0.85254 0.64813 0.0
H297 H 0.58186 0.84671 0.69317 0.0
H298 H 0.55534 0.6995 0.72317 0.0
C299 C 0.58706 0.69798 0.81236 0.0
C300 C 0.59763 0.79029 0.7626 0.0
C301 C 0.59037 0.69192 0.83802 0.0
C302 C 0.58627 0.8158 0.65665 0.0
C303 C 0.58353 0.81248 0.68249 0.0
C304 C 0.56736 0.72495 0.73392 0.0
C305 C 0.58468 0.74606 0.80192 0.0
C306 C 0.58304 0.75261 0.77448 0.0
C307 C 0.58319 0.76558 0.6944 0.0
C308 C 0.58232 0.76212 0.72202 0.0
H309 H 0.58884 0.81486 0.85515 0.0
H310 H 0.58286 0.82536 0.81038 0.0
H311 H 0.556 0.69125 0.76848 0.0
H312 H 0.58944 0.6911 0.64328 0.0
H313 H 0.58496 0.68535 0.68838 0.0
C314 C 0.92229 0.19069 0.66418 0.0
C315 C 0.91993 0.2318 0.64799 0.0
C316 C 0.92811 0.1979 0.68934 0.0
C317 C 0.92171 0.29391 0.73793 0.0
H318 H 0.96093 0.19816 0.77757 0.0
C319 C 0.93003 0.31533 0.84401 0.0
C320 C 0.92372 0.27206 0.85764 0.0
C321 C 0.9351 0.31243 0.81849 0.0
C322 C 0.94992 0.22518 0.76672 0.0
H323 H 0.92328 0.31255 0.64518 0.0
H324 H 0.93393 0.32509 0.68902 0.0
H325 H 0.96022 0.19006 0.73224 0.0
H326 H 0.91917 0.19143 0.85546 0.0
H327 H 0.92788 0.18645 0.81088 0.0
H328 H 0.91097 0.32843 0.77235 0.0
C329 C 0.93069 0.28732 0.68239 0.0
C330 C 0.94948 0.22053 0.74078 0.0
C331 C 0.92472 0.28012 0.65723 0.0
C332 C 0.9239 0.22549 0.84547 0.0
C333 C 0.92904 0.22259 0.81995 0.0
C334 C 0.92226 0.29868 0.76381 0.0
C335 C 0.93187 0.24639 0.69886 0.0
C336 C 0.93493 0.2543 0.72612 0.0
C337 C 0.93405 0.26619 0.80607 0.0
C338 C 0.93597 0.26386 0.77852 0.0
H339 H 0.91873 0.15294 0.65766 0.0
H340 H 0.92854 0.16556 0.70151 0.0
H341 H 0.90993 0.32008 0.72731 0.0
H342 H 0.93026 0.35176 0.85285 0.0
H343 H 0.93928 0.34657 0.80835 0.0
C344 C 0.44399 0.33676 0.01108 0.0
C345 C 0.4534 0.31604 0.03345 0.0
C346 C 0.45592 0.37896 0.00072 0.0
C347 C 0.51548 0.45832 0.00307 0.0
H348 H 0.46788 0.56229 0.98047 0.0
C349 C 0.55242 0.6559 0.97926 0.0
C350 C 0.54342 0.67622 0.95664 0.0
C351 C 0.54054 0.61344 0.98942 0.0
C352 C 0.48143 0.5335 0.98653 0.0
H353 H 0.48371 0.32171 0.06167 0.0
H354 H 0.5044 0.39538 0.04368 0.0
H355 H 0.45039 0.48254 0.99495 0.0
H356 H 0.51386 0.66956 0.92776 0.0
H357 H 0.49317 0.59557 0.94551 0.0
H358 H 0.54652 0.5094 0.99472 0.0
C359 C 0.48786 0.37894 0.03407 0.0
C360 C 0.47144 0.48768 0.99473 0.0
C361 C 0.47596 0.33667 0.04441 0.0
C362 C 0.52131 0.65489 0.9452 0.0
C363 C 0.50941 0.61246 0.9554 0.0
C364 C 0.52548 0.50417 0.99491 0.0
C365 C 0.47753 0.40141 0.01248 0.0
C366 C 0.48834 0.44951 0.00307 0.0
C367 C 0.51936 0.59045 0.97725 0.0
C368 C 0.50857 0.54231 0.98657 0.0
H369 H 0.42677 0.32161 0.00204 0.0
H370 H 0.44785 0.39467 0.98376 0.0
H371 H 0.52906 0.42954 0.0091 0.0
H372 H 0.56932 0.67153 0.98865 0.0
H373 H 0.54832 0.59797 0.00656 0.0
C374 C 0.05661 0.64334 0.02284 0.0
C375 C 0.04479 0.66924 0.04268 0.0
C376 C 0.04509 0.60015 0.01314 0.0
C377 C -0.00012 0.49897 0.03121 0.0
H378 H 0.00192 0.46666 0.96086 0.0
C379 C 0.94305 0.33429 0.98672 0.0
C380 C 0.95479 0.30898 0.96663 0.0
C381 C 0.95536 0.37556 0.99758 0.0
C382 C 0.00156 0.47479 0.98062 0.0
H383 H 0.01082 0.67154 0.06696 0.0
H384 H 0.99049 0.59664 0.0497 0.0
H385 H 0.0189 0.54682 0.97515 0.0
H386 H 0.98962 0.30481 0.94354 0.0
H387 H 0.0112 0.37641 0.96273 0.0
H388 H 0.98231 0.42698 0.0366 0.0
C389 C 0.00898 0.60916 0.04203 0.0
C390 C 0.0112 0.52084 0.98879 0.0
C391 C 0.02051 0.6524 0.05175 0.0
C392 C 0.97993 0.32363 0.95886 0.0
C393 C 0.99221 0.36497 0.96969 0.0
C394 C 0.99017 0.45292 0.02302 0.0
C395 C 0.02144 0.58189 0.02301 0.0
C396 C 0.01048 0.53351 0.01419 0.0
C397 C 0.97967 0.39238 0.98859 0.0
C398 C 0.99094 0.44029 0.99763 0.0
H399 H 0.07533 0.65522 0.01541 0.0
H400 H 0.05531 0.57993 0.99861 0.0
H401 H -0.00053 0.50715 0.05097 0.0
H402 H 0.92371 0.32393 0.99322 0.0
H403 H 0.94515 0.39589 0.01209 0.0
C404 C 0.55118 0.84132 0.51558 0.0
C405 C 0.54165 0.82106 0.538 0.0
C406 C 0.53898 0.88279 0.50471 0.0
C407 C 0.47836 0.95893 0.50458 0.0
H408 H 0.52493 0.06507 0.48298 0.0
C409 C 0.4385 0.15231 0.47603 0.0
C410 C 0.44888 0.17305 0.45407 0.0
C411 C 0.45049 0.11102 0.48729 0.0
C412 C 0.51165 0.03565 0.48871 0.0
H413 H 0.5109 0.82679 0.56576 0.0
H414 H 0.48962 0.89908 0.54674 0.0
H415 H 0.54324 0.98706 0.49896 0.0
H416 H 0.48079 0.16817 0.42747 0.0
H417 H 0.50156 0.09604 0.44701 0.0
H418 H 0.44676 0.00737 0.49421 0.0
C419 C 0.50653 0.88288 0.53758 0.0
C420 C 0.52214 0.99087 0.4978 0.0
C421 C 0.51877 0.84144 0.54851 0.0
C422 C 0.47227 0.15319 0.44438 0.0
C423 C 0.48423 0.11182 0.45563 0.0
C424 C 0.46786 0.00368 0.49542 0.0
C425 C 0.51692 0.90484 0.51593 0.0
C426 C 0.50562 0.95195 0.5058 0.0
C427 C 0.47312 0.08949 0.47687 0.0
C428 C 0.48438 0.04259 0.48736 0.0
H429 H 0.56868 0.82641 0.5069 0.0
H430 H 0.54714 0.89823 0.48774 0.0
H431 H 0.46511 0.92949 0.51036 0.0
H432 H 0.42058 0.16687 0.48408 0.0
H433 H 0.44174 0.0954 0.50395 0.0
C434 C 0.97613 0.16358 0.5463 0.0
C435 C 0.95187 0.18235 0.53809 0.0
C436 C 0.98757 0.12225 0.53463 0.0
C437 C 0.96833 0.01166 0.49812 0.0
H438 H 0.04334 0.99279 0.4916 0.0
C439 C 0.01605 0.84023 0.44949 0.0
C440 C 0.03921 0.82109 0.46007 0.0
C441 C 0.00445 0.88364 0.45905 0.0
C442 C 0.02234 0.9973 0.49357 0.0
H443 H 0.92159 0.17477 0.50994 0.0
H444 H 0.94186 0.10331 0.48927 0.0
H445 H 0.0263 0.07315 0.50579 0.0
H446 H 0.06735 0.83075 0.49002 0.0
H447 H 0.04693 0.90596 0.50679 0.0
H448 H 0.96443 0.93571 0.48588 0.0
C449 C 0.95169 0.11975 0.50515 0.0
C450 C 0.01258 0.04342 0.50162 0.0
C451 C 0.94021 0.16105 0.51686 0.0
C452 C 0.04962 0.84462 0.4813 0.0
C453 C 0.03807 0.88802 0.49079 0.0
C454 C 0.9781 0.96557 0.48998 0.0
C455 C 0.97507 0.09887 0.5144 0.0
C456 C 0.98546 0.05106 0.50418 0.0
C457 C 0.01579 0.9088 0.47934 0.0
C458 C 0.00523 0.95774 0.48784 0.0
H459 H 0.98567 0.17907 0.56258 0.0
H460 H 0.00552 0.10705 0.54233 0.0
H461 H 0.94734 0.01593 0.5003 0.0
H462 H 0.00751 0.82307 0.43313 0.0
H463 H 0.9873 0.89875 0.4498 0.0
C464 C 0.17195 0.62105 0.08518 0.0
C465 C 0.17168 0.65071 0.06354 0.0
C466 C 0.19034 0.5827 0.08795 0.0
C467 C 0.2547 0.54063 0.06586 0.0
H468 H 0.23178 0.40937 0.08772 0.0
C469 C 0.32103 0.36792 0.05793 0.0
C470 C 0.32085 0.33303 0.07752 0.0
C471 C 0.30281 0.4068 0.05726 0.0
C472 C 0.23856 0.44598 0.08195 0.0
H473 H 0.19061 0.66377 0.02794 0.0
H474 H 0.22278 0.59687 0.03284 0.0
H475 H 0.20012 0.47775 0.08484 0.0
H476 H 0.30139 0.31147 0.11179 0.0
H477 H 0.26971 0.38009 0.11083 0.0
H478 H 0.29311 0.5092 0.06303 0.0
C479 C 0.20883 0.60348 0.04769 0.0
C480 C 0.22043 0.48507 0.08026 0.0
C481 C 0.19032 0.64159 0.04484 0.0
C482 C 0.30196 0.3377 0.09641 0.0
C483 C 0.28375 0.37686 0.0958 0.0
C484 C 0.27284 0.50169 0.06768 0.0
C485 C 0.20894 0.57355 0.06922 0.0
C486 C 0.2283 0.53262 0.07197 0.0
C487 C 0.28406 0.41194 0.07625 0.0
C488 C 0.26493 0.45378 0.07548 0.0
H489 H 0.15782 0.62715 0.09992 0.0
H490 H 0.19016 0.56045 0.10483 0.0
H491 H 0.26137 0.57715 0.0598 0.0
H492 H 0.33521 0.36518 0.04298 0.0
H493 H 0.30326 0.43258 0.04168 0.0
C494 C 0.30373 0.13875 0.45189 0.0
C495 C 0.32233 0.14776 0.43315 0.0
C496 C 0.28533 0.10056 0.44917 0.0
C497 C 0.2735 0.98221 0.41662 0.0
H498 H 0.20078 0.00799 0.43326 0.0
C499 C 0.1912 0.8377 0.39893 0.0
C500 C 0.17203 0.83322 0.41756 0.0
C501 C 0.2097 0.87619 0.39997 0.0
C502 C 0.22106 1e-05 0.42879 0.0
H503 H 0.33632 0.12372 0.39688 0.0
H504 H 0.30415 0.05691 0.3922 0.0
H505 H 0.23284 0.07506 0.43694 0.0
H506 H 0.15749 0.86499 0.45212 0.0
H507 H 0.18993 0.93122 0.45416 0.0
H508 H 0.26182 0.90692 0.40882 0.0
C509 C 0.30392 0.0793 0.40902 0.0
C510 C 0.23938 0.03845 0.43087 0.0
C511 C 0.32221 0.11772 0.41165 0.0
C512 C 0.17188 0.8676 0.43736 0.0
C513 C 0.19039 0.90582 0.43845 0.0
C514 C 0.25518 0.94362 0.41466 0.0
C515 C 0.28527 0.07043 0.42773 0.0
C516 C 0.2658 0.02986 0.42494 0.0
C517 C 0.20941 0.91079 0.41971 0.0
C518 C 0.22879 0.95203 0.42089 0.0
H519 H 0.30334 0.16122 0.46868 0.0
H520 H 0.27134 0.09416 0.464 0.0
H521 H 0.29381 0.97446 0.41216 0.0
H522 H 0.19177 0.81184 0.38341 0.0
H523 H 0.22396 0.87932 0.38511 0.0
C524 C 0.67729 0.63384 0.93881 0.0
C525 C 0.6787 0.66996 0.91982 0.0
C526 C 0.69632 0.59658 0.94077 0.0
C527 C 0.76376 0.56402 0.92189 0.0
H528 H 0.7415 0.42965 0.93923 0.0
C529 C 0.83268 0.39171 0.91949 0.0
C530 C 0.83099 0.35864 0.93981 0.0
C531 C 0.81462 0.43069 0.91681 0.0
C532 C 0.74802 0.46709 0.9346 0.0
H533 H 0.70123 0.69543 0.88801 0.0
H534 H 0.73435 0.62959 0.89119 0.0
H535 H 0.70889 0.49561 0.93443 0.0
H536 H 0.80925 0.34081 0.97338 0.0
H537 H 0.77772 0.40883 0.96864 0.0
H538 H 0.80294 0.53503 0.92187 0.0
C539 C 0.71869 0.63063 0.90478 0.0
C540 C 0.72937 0.5049 0.93187 0.0
C541 C 0.69965 0.66817 0.90288 0.0
C542 C 0.81104 0.36559 0.9575 0.0
C543 C 0.7929 0.40435 0.95472 0.0
C544 C 0.78243 0.52605 0.92449 0.0
C545 C 0.71715 0.5943 0.9237 0.0
C546 C 0.73702 0.5539 0.9257 0.0
C547 C 0.79444 0.43711 0.93429 0.0
C548 C 0.77473 0.47732 0.93106 0.0
H549 H 0.66151 0.63437 0.9523 0.0
H550 H 0.69483 0.56977 0.95585 0.0
H551 H 0.77032 0.6015 0.91742 0.0
H552 H 0.84786 0.38736 0.90555 0.0
H553 H 0.81613 0.45518 0.90078 0.0
C554 C 0.69686 0.83108 0.59631 0.0
C555 C 0.67699 0.82841 0.57824 0.0
C556 C 0.71605 0.86827 0.59492 0.0
C557 C 0.72841 0.99225 0.56669 0.0
H558 H 0.80117 0.96289 0.58181 0.0
C559 C 0.81142 0.13028 0.54441 0.0
C560 C 0.8301 0.1383 0.56321 0.0
C561 C 0.7932 0.09165 0.54659 0.0
C562 C 0.78087 0.97167 0.57775 0.0
H563 H 0.66198 0.8619 0.54423 0.0
H564 H 0.69561 0.9259 0.54157 0.0
H565 H 0.76842 0.89658 0.58504 0.0
H566 H 0.84463 0.11164 0.59885 0.0
H567 H 0.81275 0.044 0.60259 0.0
H568 H 0.7409 0.06711 0.55913 0.0
C569 C 0.6961 0.90009 0.55713 0.0
C570 C 0.76213 0.93379 0.57965 0.0
C571 C 0.6769 0.86317 0.55858 0.0
C572 C 0.83044 0.10644 0.58406 0.0
C573 C 0.81231 0.06757 0.58616 0.0
C574 C 0.74715 0.02995 0.56467 0.0
C575 C 0.71577 0.90336 0.57537 0.0
C576 C 0.7357 0.94362 0.574 0.0
C577 C 0.79338 0.06008 0.56753 0.0
C578 C 0.77357 0.02 0.57006 0.0
H579 H 0.69741 0.80487 0.61171 0.0
H580 H 0.7308 0.8701 0.6094 0.0
H581 H 0.70815 0.00134 0.56271 0.0
H582 H 0.81068 0.1541 0.52809 0.0
H583 H 0.77902 0.08631 0.53181 0.0
loop_
_geom_bond_atom_site_label_1
_geom_bond_atom_site_label_2
_geom_bond_distance
_geom_bond_site_symmetry_2
_ccdc_geom_bond_type
C0 O1 1.160 . S
C0 O7 1.185 . S
O1 C0 1.160 . S
O2 Zn3 1.899 . S
O2 C10 1.284 . S
Zn3 O2 1.899 . S
Zn3 O4 2.032 . S
Zn3 O7 2.086 . S
Zn3 O12 1.977 . S
O4 Zn3 2.032 . S
O4 C8 1.278 . S
C5 O6 1.203 . S
C5 O12 1.267 . S
O6 C5 1.203 . S
O7 C0 1.185 . S
O7 Zn3 2.086 . S
C8 O4 1.278 . S
C8 O9 1.211 . S
O9 C8 1.211 . S
C10 O2 1.284 . S
C10 O11 1.273 . S
O11 C10 1.273 . S
O12 Zn3 1.977 . S
O12 C5 1.267 . S
C13 O14 1.160 . S
C13 O20 1.185 . S
O14 C13 1.160 . S
O15 Zn16 1.899 . S
O15 C23 1.284 . S
Zn16 O15 1.899 . S
Zn16 O17 2.032 . S
Zn16 O20 2.086 . S
Zn16 O25 1.977 . S
O17 Zn16 2.032 . S
O17 C21 1.278 . S
C18 O19 1.203 . S
C18 O25 1.267 . S
O19 C18 1.203 . S
O20 C13 1.185 . S
O20 Zn16 2.086 . S
C21 O17 1.278 . S
C21 O22 1.211 . S
O22 C21 1.211 . S
C23 O15 1.284 . S
C23 O24 1.273 . S
O24 C23 1.273 . S
O25 Zn16 1.977 . S
O25 C18 1.267 . S
C26 O27 1.160 . S
C26 O33 1.185 . S
O27 C26 1.160 . S
O28 Zn29 1.899 . S
O28 C36 1.284 . S
Zn29 O28 1.899 . S
Zn29 O30 2.032 . S
Zn29 O33 2.086 . S
Zn29 O38 1.977 . S
O30 Zn29 2.032 . S
O30 C34 1.278 . S
C31 O32 1.203 . S
C31 O38 1.267 . S
O32 C31 1.203 . S
O33 C26 1.185 . S
O33 Zn29 2.086 . S
C34 O30 1.278 . S
C34 O35 1.211 . S
O35 C34 1.211 . S
C36 O28 1.284 . S
C36 O37 1.273 . S
O37 C36 1.273 . S
O38 Zn29 1.977 . S
O38 C31 1.267 . S
C39 O40 1.160 . S
C39 O46 1.185 . S
O40 C39 1.160 . S
O41 Zn42 1.899 . S
O41 C49 1.284 . S
Zn42 O41 1.899 . S
Zn42 O43 2.032 . S
Zn42 O46 2.086 . S
Zn42 O51 1.977 . S
O43 Zn42 2.032 . S
O43 C47 1.278 . S
C44 O45 1.203 . S
C44 O51 1.267 . S
O45 C44 1.203 . S
O46 C39 1.185 . S
O46 Zn42 2.086 . S
C47 O43 1.278 . S
C47 O48 1.211 . S
O48 C47 1.211 . S
C49 O41 1.284 . S
C49 O50 1.273 . S
O50 C49 1.273 . S
O51 Zn42 1.977 . S
O51 C44 1.267 . S
C52 O53 1.160 . S
C52 O59 1.185 . S
O53 C52 1.160 . S
O54 Zn55 1.899 . S
O54 C62 1.284 . S
Zn55 O54 1.899 . S
Zn55 O56 2.032 . S
Zn55 O59 2.086 . S
Zn55 O64 1.977 . S
O56 Zn55 2.032 . S
O56 C60 1.278 . S
C57 O58 1.203 . S
C57 O64 1.267 . S
O58 C57 1.203 . S
O59 C52 1.185 . S
O59 Zn55 2.086 . S
C60 O56 1.278 . S
C60 O61 1.211 . S
O61 C60 1.211 . S
C62 O54 1.284 . S
C62 O63 1.273 . S
O63 C62 1.273 . S
O64 Zn55 1.977 . S
O64 C57 1.267 . S
C65 O66 1.160 . S
C65 O72 1.185 . S
O66 C65 1.160 . S
O67 Zn68 1.899 . S
O67 C75 1.284 . S
Zn68 O67 1.899 . S
Zn68 O69 2.032 . S
Zn68 O72 2.086 . S
Zn68 O77 1.977 . S
O69 Zn68 2.032 . S
O69 C73 1.278 . S
C70 O71 1.203 . S
C70 O77 1.267 . S
O71 C70 1.203 . S
O72 C65 1.185 . S
O72 Zn68 2.086 . S
C73 O69 1.278 . S
C73 O74 1.211 . S
O74 C73 1.211 . S
C75 O67 1.284 . S
C75 O76 1.273 . S
O76 C75 1.273 . S
O77 Zn68 1.977 . S
O77 C70 1.267 . S
C78 O79 1.160 . S
C78 O85 1.185 . S
O79 C78 1.160 . S
O80 Zn81 1.899 . S
O80 C88 1.284 . S
Zn81 O80 1.899 . S
Zn81 O82 2.032 . S
Zn81 O85 2.086 . S
Zn81 O90 1.977 . S
O82 Zn81 2.032 . S
O82 C86 1.278 . S
C83 O84 1.203 . S
C83 O90 1.267 . S
O84 C83 1.203 . S
O85 C78 1.185 . S
O85 Zn81 2.086 . S
C86 O82 1.278 . S
C86 O87 1.211 . S
O87 C86 1.211 . S
C88 O80 1.284 . S
C88 O89 1.273 . S
O89 C88 1.273 . S
O90 Zn81 1.977 . S
O90 C83 1.267 . S
C91 O92 1.160 . S
C91 O98 1.185 . S
O92 C91 1.160 . S
O93 Zn94 1.899 . S
O93 C101 1.284 . S
Zn94 O93 1.899 . S
Zn94 O95 2.032 . S
Zn94 O98 2.086 . S
Zn94 O103 1.977 . S
O95 Zn94 2.032 . S
O95 C99 1.278 . S
C96 O97 1.203 . S
C96 O103 1.267 . S
O97 C96 1.203 . S
O98 C91 1.185 . S
O98 Zn94 2.086 . S
C99 O95 1.278 . S
C99 O100 1.211 . S
O100 C99 1.211 . S
C101 O93 1.284 . S
C101 O102 1.273 . S
O102 C101 1.273 . S
O103 Zn94 1.977 . S
O103 C96 1.267 . S
C104 C105 1.349 . S
C104 C106 1.327 . S
C104 H129 0.950 . S
C105 C104 1.349 . S
C105 C121 1.349 . S
C106 C104 1.327 . S
C106 C125 1.429 . S
C106 H130 0.950 . S
C107 C124 1.575 . S
C107 C126 1.367 1_565 S
C107 H131 0.949 1_565 S
H108 C112 0.949 1_565 S
C109 C110 1.349 . S
C109 C111 1.327 . S
C109 H132 0.950 . S
C110 C109 1.349 . S
C110 C122 1.349 . S
C111 C109 1.327 . S
C111 C127 1.429 . S
C111 H133 0.950 . S
C112 H108 0.949 1_545 S
C112 C120 1.575 . S
C112 C128 1.367 1_545 S
H113 C121 0.950 . S
H114 C119 0.950 . S
H115 C120 0.949 . S
H116 C122 0.950 . S
H117 C123 0.950 . S
H118 C124 0.949 . S
C119 H114 0.950 . S
C119 C121 1.327 . S
C119 C125 1.429 . S
C120 C112 1.575 . S
C120 H115 0.949 . S
C120 C126 1.368 . S
C121 C105 1.349 . S
C121 H113 0.950 . S
C121 C119 1.327 . S
C122 C110 1.349 . S
C122 H116 0.950 . S
C122 C123 1.327 . S
C123 H117 0.950 . S
C123 C122 1.327 . S
C123 C127 1.429 . S
C124 C107 1.575 . S
C124 H118 0.949 . S
C124 C128 1.368 . S
C125 C106 1.429 . S
C125 C119 1.429 . S
C125 C126 1.523 . S
C126 C107 1.367 1_545 S
C126 C120 1.368 . S
C126 C125 1.523 . S
C127 C111 1.429 . S
C127 C123 1.429 . S
C127 C128 1.523 . S
C128 C112 1.367 1_565 S
C128 C124 1.368 . S
C128 C127 1.523 . S
H129 C104 0.950 . S
H130 C106 0.950 . S
H131 C107 0.949 1_545 S
H132 C109 0.950 . S
H133 C111 0.950 . S
C134 C135 1.349 . S
C134 C136 1.327 . S
C134 H159 0.950 . S
C135 C134 1.349 . S
C135 C151 1.349 . S
C136 C134 1.327 . S
C136 C155 1.429 . S
C136 H160 0.950 . S
C137 C154 1.574 . S
C137 C156 1.368 . S
C137 H161 0.949 . S
H138 C142 0.949 . S
C139 C140 1.349 . S
C139 C141 1.327 . S
C139 H162 0.950 . S
C140 C139 1.349 . S
C140 C152 1.349 . S
C141 C139 1.327 . S
C141 C157 1.429 . S
C141 H163 0.950 . S
C142 H138 0.949 . S
C142 C150 1.574 . S
C142 C158 1.368 . S
H143 C151 0.950 . S
H144 C149 0.950 . S
H145 C150 0.949 . S
H146 C152 0.950 . S
H147 C153 0.950 . S
H148 C154 0.949 . S
C149 H144 0.950 . S
C149 C151 1.327 . S
C149 C155 1.429 . S
C150 C142 1.574 . S
C150 H145 0.949 . S
C150 C156 1.368 . S
C151 C135 1.349 . S
C151 H143 0.950 . S
C151 C149 1.327 . S
C152 C140 1.349 . S
C152 H146 0.950 . S
C152 C153 1.327 . S
C153 H147 0.950 . S
C153 C152 1.327 . S
C153 C157 1.429 . S
C154 C137 1.574 . S
C154 H148 0.949 . S
C154 C158 1.368 . S
C155 C136 1.429 . S
C155 C149 1.429 . S
C155 C156 1.523 . S
C156 C137 1.368 . S
C156 C150 1.368 . S
C156 C155 1.523 . S
C157 C141 1.429 . S
C157 C153 1.429 . S
C157 C158 1.523 . S
C158 C142 1.368 . S
C158 C154 1.368 . S
C158 C157 1.523 . S
H159 C134 0.950 . S
H160 C136 0.950 . S
H161 C137 0.949 . S
H162 C139 0.950 . S
H163 C141 0.950 . S
C164 C165 1.349 . S
C164 C166 1.327 . S
C164 H189 0.950 . S
C165 C164 1.349 . S
C165 C181 1.349 . S
C166 C164 1.327 . S
C166 C185 1.429 . S
C166 H190 0.950 . S
C167 C184 1.575 . S
C167 C186 1.368 . S
C167 H191 0.949 . S
H168 C172 0.949 . S
C169 C170 1.349 . S
C169 C171 1.327 . S
C169 H192 0.950 . S
C170 C169 1.349 . S
C170 C182 1.349 . S
C171 C169 1.327 . S
C171 C187 1.429 . S
C171 H193 0.950 . S
C172 H168 0.949 . S
C172 C180 1.575 . S
C172 C188 1.368 . S
H173 C181 0.950 . S
H174 C179 0.950 . S
H175 C180 0.949 1_565 S
H176 C182 0.950 . S
H177 C183 0.950 . S
H178 C184 0.949 1_545 S
C179 H174 0.950 . S
C179 C181 1.327 . S
C179 C185 1.429 . S
C180 C172 1.575 . S
C180 H175 0.949 1_545 S
C180 C186 1.367 1_545 S
C181 C165 1.349 . S
C181 H173 0.950 . S
C181 C179 1.327 . S
C182 C170 1.349 . S
C182 H176 0.950 . S
C182 C183 1.327 . S
C183 H177 0.950 . S
C183 C182 1.327 . S
C183 C187 1.429 . S
C184 C167 1.575 . S
C184 H178 0.949 1_565 S
C184 C188 1.367 1_565 S
C185 C166 1.429 . S
C185 C179 1.429 . S
C185 C186 1.523 . S
C186 C167 1.368 . S
C186 C180 1.367 1_565 S
C186 C185 1.523 . S
C187 C171 1.429 . S
C187 C183 1.429 . S
C187 C188 1.523 . S
C188 C172 1.368 . S
C188 C184 1.367 1_545 S
C188 C187 1.523 . S
H189 C164 0.950 . S
H190 C166 0.950 . S
H191 C167 0.949 . S
H192 C169 0.950 . S
H193 C171 0.950 . S
C194 C195 1.349 . S
C194 C196 1.327 . S
C194 H219 0.950 . S
C195 C194 1.349 . S
C195 C211 1.349 . S
C196 C194 1.327 . S
C196 C215 1.429 . S
C196 H220 0.950 . S
C197 C214 1.574 . S
C197 C216 1.368 . S
C197 H221 0.949 . S
H198 C202 0.949 . S
C199 C200 1.349 . S
C199 C201 1.327 . S
C199 H222 0.950 . S
C200 C199 1.349 . S
C200 C212 1.349 . S
C201 C199 1.327 . S
C201 C217 1.429 . S
C201 H223 0.950 . S
C202 H198 0.949 . S
C202 C210 1.574 . S
C202 C218 1.368 . S
H203 C211 0.950 . S
H204 C209 0.950 . S
H205 C210 0.949 . S
H206 C212 0.950 . S
H207 C213 0.950 . S
H208 C214 0.949 . S
C209 H204 0.950 . S
C209 C211 1.327 . S
C209 C215 1.429 . S
C210 C202 1.574 . S
C210 H205 0.949 . S
C210 C216 1.368 . S
C211 C195 1.349 . S
C211 H203 0.950 . S
C211 C209 1.327 . S
C212 C200 1.349 . S
C212 H206 0.950 . S
C212 C213 1.327 . S
C213 H207 0.950 . S
C213 C212 1.327 . S
C213 C217 1.429 . S
C214 C197 1.574 . S
C214 H208 0.949 . S
C214 C218 1.368 . S
C215 C196 1.429 . S
C215 C209 1.429 . S
C215 C216 1.523 . S
C216 C197 1.368 . S
C216 C210 1.368 . S
C216 C215 1.523 . S
C217 C201 1.429 . S
C217 C213 1.429 . S
C217 C218 1.523 . S
C218 C202 1.368 . S
C218 C214 1.368 . S
C218 C217 1.523 . S
H219 C194 0.950 . S
H220 C196 0.950 . S
H221 C197 0.949 . S
H222 C199 0.950 . S
H223 C201 0.950 . S
C224 C225 1.349 . S
C224 C226 1.327 . S
C224 H249 0.950 . S
C225 C224 1.349 . S
C225 C241 1.349 . S
C226 C224 1.327 . S
C226 C245 1.429 . S
C226 H250 0.950 . S
C227 C244 1.574 . S
C227 C246 1.368 . S
C227 H251 0.949 . S
H228 C232 0.949 . S
C229 C230 1.349 . S
C229 C231 1.327 . S
C229 H252 0.950 . S
C230 C229 1.349 . S
C230 C242 1.349 . S
C231 C229 1.327 . S
C231 C247 1.429 . S
C231 H253 0.950 . S
C232 H228 0.949 . S
C232 C240 1.574 . S
C232 C248 1.368 . S
H233 C241 0.950 . S
H234 C239 0.950 . S
H235 C240 0.949 . S
H236 C242 0.950 . S
H237 C243 0.950 . S
H238 C244 0.949 . S
C239 H234 0.950 . S
C239 C241 1.327 . S
C239 C245 1.429 . S
C240 C232 1.574 . S
C240 H235 0.949 . S
C240 C246 1.368 . S
C241 C225 1.349 . S
C241 H233 0.950 . S
C241 C239 1.327 . S
C242 C230 1.349 . S
C242 H236 0.950 . S
C242 C243 1.327 . S
C243 H237 0.950 . S
C243 C242 1.327 . S
C243 C247 1.429 . S
C244 C227 1.574 . S
C244 H238 0.949 . S
C244 C248 1.368 . S
C245 C226 1.429 . S
C245 C239 1.429 . S
C245 C246 1.523 . S
C246 C227 1.368 . S
C246 C240 1.368 . S
C246 C245 1.523 . S
C247 C231 1.429 . S
C247 C243 1.429 . S
C247 C248 1.523 . S
C248 C232 1.368 . S
C248 C244 1.368 . S
C248 C247 1.523 . S
H249 C224 0.950 . S
H250 C226 0.950 . S
H251 C227 0.949 . S
H252 C229 0.950 . S
H253 C231 0.950 . S
C254 C255 1.349 . S
C254 C256 1.327 . S
C254 H279 0.950 . S
C255 C254 1.349 . S
C255 C271 1.349 . S
C256 C254 1.327 . S
C256 C275 1.429 . S
C256 H280 0.950 . S
C257 C274 1.574 . S
C257 C276 1.368 . S
C257 H281 0.949 . S
H258 C262 0.949 . S
C259 C260 1.349 . S
C259 C261 1.327 . S
C259 H282 0.950 . S
C260 C259 1.349 . S
C260 C272 1.349 . S
C261 C259 1.327 . S
C261 C277 1.429 . S
C261 H283 0.950 . S
C262 H258 0.949 . S
C262 C270 1.574 . S
C262 C278 1.368 . S
H263 C271 0.950 . S
H264 C269 0.950 . S
H265 C270 0.949 . S
H266 C272 0.950 . S
H267 C273 0.950 . S
H268 C274 0.949 . S
C269 H264 0.950 . S
C269 C271 1.327 . S
C269 C275 1.429 . S
C270 C262 1.574 . S
C270 H265 0.949 . S
C270 C276 1.368 . S
C271 C255 1.349 . S
C271 H263 0.950 . S
C271 C269 1.327 . S
C272 C260 1.349 . S
C272 H266 0.950 . S
C272 C273 1.327 . S
C273 H267 0.950 . S
C273 C272 1.327 . S
C273 C277 1.429 . S
C274 C257 1.574 . S
C274 H268 0.949 . S
C274 C278 1.368 . S
C275 C256 1.429 . S
C275 C269 1.429 . S
C275 C276 1.523 . S
C276 C257 1.368 . S
C276 C270 1.368 . S
C276 C275 1.523 . S
C277 C261 1.429 . S
C277 C273 1.429 . S
C277 C278 1.523 . S
C278 C262 1.368 . S
C278 C274 1.368 . S
C278 C277 1.523 . S
H279 C254 0.950 . S
H280 C256 0.950 . S
H281 C257 0.949 . S
H282 C259 0.950 . S
H283 C261 0.950 . S
C284 C285 1.349 . S
C284 C286 1.327 . S
C284 H309 0.950 . S
C285 C284 1.349 . S
C285 C301 1.349 . S
C286 C284 1.327 . S
C286 C305 1.429 . S
C286 H310 0.950 . S
C287 C304 1.574 . S
C287 C306 1.368 . S
C287 H311 0.949 . S
H288 C292 0.949 . S
C289 C290 1.349 . S
C289 C291 1.327 . S
C289 H312 0.950 . S
C290 C289 1.349 . S
C290 C302 1.349 . S
C291 C289 1.327 . S
C291 C307 1.429 . S
C291 H313 0.950 . S
C292 H288 0.949 . S
C292 C300 1.574 . S
C292 C308 1.368 . S
H293 C301 0.950 . S
H294 C299 0.950 . S
H295 C300 0.949 . S
H296 C302 0.950 . S
H297 C303 0.950 . S
H298 C304 0.949 . S
C299 H294 0.950 . S
C299 C301 1.327 . S
C299 C305 1.429 . S
C300 C292 1.574 . S
C300 H295 0.949 . S
C300 C306 1.368 . S
C301 C285 1.349 . S
C301 H293 0.950 . S
C301 C299 1.327 . S
C302 C290 1.349 . S
C302 H296 0.950 . S
C302 C303 1.327 . S
C303 H297 0.950 . S
C303 C302 1.327 . S
C303 C307 1.429 . S
C304 C287 1.574 . S
C304 H298 0.949 . S
C304 C308 1.368 . S
C305 C286 1.429 . S
C305 C299 1.429 . S
C305 C306 1.523 . S
C306 C287 1.368 . S
C306 C300 1.368 . S
C306 C305 1.523 . S
C307 C291 1.429 . S
C307 C303 1.429 . S
C307 C308 1.523 . S
C308 C292 1.368 . S
C308 C304 1.368 . S
C308 C307 1.523 . S
H309 C284 0.950 . S
H310 C286 0.950 . S
H311 C287 0.949 . S
H312 C289 0.950 . S
H313 C291 0.950 . S
C314 C315 1.349 . S
C314 C316 1.327 . S
C314 H339 0.950 . S
C315 C314 1.349 . S
C315 C331 1.349 . S
C316 C314 1.327 . S
C316 C335 1.429 . S
C316 H340 0.950 . S
C317 C334 1.574 . S
C317 C336 1.368 . S
C317 H341 0.949 . S
H318 C322 0.949 . S
C319 C320 1.349 . S
C319 C321 1.327 . S
C319 H342 0.950 . S
C320 C319 1.349 . S
C320 C332 1.349 . S
C321 C319 1.327 . S
C321 C337 1.429 . S
C321 H343 0.950 . S
C322 H318 0.949 . S
C322 C330 1.574 . S
C322 C338 1.368 . S
H323 C331 0.950 . S
H324 C329 0.950 . S
H325 C330 0.949 . S
H326 C332 0.950 . S
H327 C333 0.950 . S
H328 C334 0.949 . S
C329 H324 0.950 . S
C329 C331 1.327 . S
C329 C335 1.429 . S
C330 C322 1.574 . S
C330 H325 0.949 . S
C330 C336 1.368 . S
C331 C315 1.349 . S
C331 H323 0.950 . S
C331 C329 1.327 . S
C332 C320 1.349 . S
C332 H326 0.950 . S
C332 C333 1.327 . S
C333 H327 0.950 . S
C333 C332 1.327 . S
C333 C337 1.429 . S
C334 C317 1.574 . S
C334 H328 0.949 . S
C334 C338 1.368 . S
C335 C316 1.429 . S
C335 C329 1.429 . S
C335 C336 1.523 . S
C336 C317 1.368 . S
C336 C330 1.368 . S
C336 C335 1.523 . S
C337 C321 1.429 . S
C337 C333 1.429 . S
C337 C338 1.523 . S
C338 C322 1.368 . S
C338 C334 1.368 . S
C338 C337 1.523 . S
H339 C314 0.950 . S
H340 C316 0.950 . S
H341 C317 0.949 . S
H342 C319 0.950 . S
H343 C321 0.950 . S
C344 C345 1.349 . S
C344 C346 1.327 . S
C344 H369 0.950 . S
C345 C344 1.349 . S
C345 C361 1.349 . S
C346 C344 1.327 . S
C346 C365 1.429 . S
C346 H370 0.950 1_554 S
C347 C364 1.574 . S
C347 C366 1.368 . S
C347 H371 0.949 . S
H348 C352 0.949 . S
C349 C350 1.349 . S
C349 C351 1.327 . S
C349 H372 0.950 . S
C350 C349 1.349 . S
C350 C362 1.349 . S
C351 C349 1.327 . S
C351 C367 1.429 . S
C351 H373 0.950 1_556 S
C352 H348 0.949 . S
C352 C360 1.574 . S
C352 C368 1.368 . S
H353 C361 0.950 . S
H354 C359 0.950 . S
H355 C360 0.949 . S
H356 C362 0.950 . S
H357 C363 0.950 . S
H358 C364 0.949 . S
C359 H354 0.950 . S
C359 C361 1.327 . S
C359 C365 1.429 . S
C360 C352 1.574 . S
C360 H355 0.949 . S
C360 C366 1.368 1_556 S
C361 C345 1.349 . S
C361 H353 0.950 . S
C361 C359 1.327 . S
C362 C350 1.349 . S
C362 H356 0.950 . S
C362 C363 1.327 . S
C363 H357 0.950 . S
C363 C362 1.327 . S
C363 C367 1.429 . S
C364 C347 1.574 . S
C364 H358 0.949 . S
C364 C368 1.368 1_554 S
C365 C346 1.429 . S
C365 C359 1.429 . S
C365 C366 1.523 . S
C366 C347 1.368 . S
C366 C360 1.368 1_554 S
C366 C365 1.523 . S
C367 C351 1.429 . S
C367 C363 1.429 . S
C367 C368 1.523 . S
C368 C352 1.368 . S
C368 C364 1.368 1_556 S
C368 C367 1.523 . S
H369 C344 0.950 . S
H370 C346 0.950 1_556 S
H371 C347 0.949 . S
H372 C349 0.950 . S
H373 C351 0.950 1_554 S
C374 C375 1.349 . S
C374 C376 1.343 . S
C374 H399 0.950 1_554 S
C375 C374 1.349 . S
C375 C391 1.349 . S
C376 C374 1.343 . S
C376 C395 1.456 . S
C376 H400 0.907 1_554 S
C377 C394 1.574 . S
C377 C396 1.368 1_655 S
C377 H401 0.949 . S
H378 C382 0.949 . S
C379 C380 1.349 . S
C379 C381 1.343 . S
C379 H402 0.950 1_556 S
C380 C379 1.349 . S
C380 C392 1.349 . S
C381 C379 1.343 . S
C381 C397 1.456 . S
C381 H403 0.907 1_556 S
C382 H378 0.949 . S
C382 C390 1.574 . S
C382 C398 1.368 1_455 S
H383 C391 0.950 . S
H384 C389 0.950 . S
H385 C390 0.949 . S
H386 C392 0.950 . S
H387 C393 0.950 . S
H388 C394 0.949 . S
C389 H384 0.950 . S
C389 C391 1.327 . S
C389 C395 1.429 . S
C390 C382 1.574 . S
C390 H385 0.949 . S
C390 C396 1.368 1_556 S
C391 C375 1.349 . S
C391 H383 0.950 . S
C391 C389 1.327 . S
C392 C380 1.349 . S
C392 H386 0.950 . S
C392 C393 1.327 . S
C393 H387 0.950 . S
C393 C392 1.327 . S
C393 C397 1.429 . S
C394 C377 1.574 . S
C394 H388 0.949 . S
C394 C398 1.368 1_554 S
C395 C376 1.456 . S
C395 C389 1.429 . S
C395 C396 1.523 . S
C396 C377 1.368 1_455 S
C396 C390 1.368 1_554 S
C396 C395 1.523 . S
C397 C381 1.456 . S
C397 C393 1.429 . S
C397 C398 1.523 . S
C398 C382 1.368 1_655 S
C398 C394 1.368 1_556 S
C398 C397 1.523 . S
H399 C374 0.950 1_556 S
H400 C376 0.907 1_556 S
H401 C377 0.949 . S
H402 C379 0.950 1_554 S
H403 C381 0.907 1_554 S
C404 C405 1.349 . S
C404 C406 1.327 . S
C404 H429 0.950 . S
C405 C404 1.349 . S
C405 C421 1.349 . S
C406 C404 1.327 . S
C406 C425 1.429 . S
C406 H430 0.950 . S
C407 C424 1.574 . S
C407 C426 1.368 1_545 S
C407 H431 0.949 . S
H408 C412 0.949 . S
C409 C410 1.349 . S
C409 C411 1.327 . S
C409 H432 0.950 . S
C410 C409 1.349 . S
C410 C422 1.349 . S
C411 C409 1.327 . S
C411 C427 1.429 . S
C411 H433 0.950 . S
C412 H408 0.949 . S
C412 C420 1.574 . S
C412 C428 1.368 1_565 S
H413 C421 0.950 . S
H414 C419 0.950 . S
H415 C420 0.949 . S
H416 C422 0.950 . S
H417 C423 0.950 . S
H418 C424 0.949 . S
C419 H414 0.950 . S
C419 C421 1.327 . S
C419 C425 1.429 . S
C420 C412 1.574 . S
C420 H415 0.949 . S
C420 C426 1.368 . S
C421 C405 1.349 . S
C421 H413 0.950 . S
C421 C419 1.327 . S
C422 C410 1.349 . S
C422 H416 0.950 . S
C422 C423 1.327 . S
C423 H417 0.950 . S
C423 C422 1.327 . S
C423 C427 1.429 . S
C424 C407 1.574 . S
C424 H418 0.949 . S
C424 C428 1.368 . S
C425 C406 1.429 . S
C425 C419 1.429 . S
C425 C426 1.523 . S
C426 C407 1.368 1_565 S
C426 C420 1.368 . S
C426 C425 1.523 . S
C427 C411 1.429 . S
C427 C423 1.429 . S
C427 C428 1.523 . S
C428 C412 1.368 1_545 S
C428 C424 1.368 . S
C428 C427 1.523 . S
H429 C404 0.950 . S
H430 C406 0.950 . S
H431 C407 0.949 . S
H432 C409 0.950 . S
H433 C411 0.950 . S
C434 C435 1.349 . S
C434 C436 1.327 . S
C434 H459 0.950 . S
C435 C434 1.349 . S
C435 C451 1.349 . S
C436 C434 1.327 . S
C436 C455 1.429 . S
C436 H460 0.950 . S
C437 C454 1.574 . S
C437 C456 1.368 1_455 S
C437 H461 0.949 . S
H438 C442 0.949 . S
C439 C440 1.349 . S
C439 C441 1.327 . S
C439 H462 0.950 . S
C440 C439 1.349 . S
C440 C452 1.349 . S
C441 C439 1.327 . S
C441 C457 1.429 . S
C441 H463 0.950 . S
C442 H438 0.949 . S
C442 C450 1.574 . S
C442 C458 1.368 1_655 S
H443 C451 0.950 . S
H444 C449 0.950 . S
H445 C450 0.949 . S
H446 C452 0.950 . S
H447 C453 0.950 . S
H448 C454 0.949 . S
C449 H444 0.950 . S
C449 C451 1.327 . S
C449 C455 1.429 . S
C450 C442 1.574 . S
C450 H445 0.949 . S
C450 C456 1.368 1_565 S
C451 C435 1.349 . S
C451 H443 0.950 . S
C451 C449 1.327 . S
C452 C440 1.349 . S
C452 H446 0.950 . S
C452 C453 1.327 . S
C453 H447 0.950 . S
C453 C452 1.327 . S
C453 C457 1.429 . S
C454 C437 1.574 . S
C454 H448 0.949 . S
C454 C458 1.368 1_545 S
C455 C436 1.429 . S
C455 C449 1.429 . S
C455 C456 1.523 . S
C456 C437 1.368 1_655 S
C456 C450 1.368 1_545 S
C456 C455 1.523 . S
C457 C441 1.429 . S
C457 C453 1.429 . S
C457 C458 1.523 . S
C458 C442 1.368 1_455 S
C458 C454 1.368 1_565 S
C458 C457 1.523 . S
H459 C434 0.950 . S
H460 C436 0.950 . S
H461 C437 0.949 . S
H462 C439 0.950 . S
H463 C441 0.950 . S
C464 C465 1.349 . S
C464 C466 1.327 . S
C464 H489 0.950 . S
C465 C464 1.349 . S
C465 C481 1.349 . S
C466 C464 1.327 . S
C466 C485 1.429 . S
C466 H490 0.950 . S
C467 C484 1.574 . S
C467 C486 1.368 . S
C467 H491 0.949 . S
H468 C472 0.949 . S
C469 C470 1.349 . S
C469 C471 1.327 . S
C469 H492 0.950 . S
C470 C469 1.349 . S
C470 C482 1.349 . S
C471 C469 1.327 . S
C471 C487 1.429 . S
C471 H493 0.950 . S
C472 H468 0.949 . S
C472 C480 1.574 . S
C472 C488 1.368 . S
H473 C481 0.950 . S
H474 C479 0.950 . S
H475 C480 0.949 . S
H476 C482 0.950 . S
H477 C483 0.950 . S
H478 C484 0.949 . S
C479 H474 0.950 . S
C479 C481 1.327 . S
C479 C485 1.429 . S
C480 C472 1.574 . S
C480 H475 0.949 . S
C480 C486 1.368 . S
C481 C465 1.349 . S
C481 H473 0.950 . S
C481 C479 1.327 . S
C482 C470 1.349 . S
C482 H476 0.950 . S
C482 C483 1.327 . S
C483 H477 0.950 . S
C483 C482 1.327 . S
C483 C487 1.429 . S
C484 C467 1.574 . S
C484 H478 0.949 . S
C484 C488 1.368 . S
C485 C466 1.429 . S
C485 C479 1.429 . S
C485 C486 1.523 . S
C486 C467 1.368 . S
C486 C480 1.368 . S
C486 C485 1.523 . S
C487 C471 1.429 . S
C487 C483 1.429 . S
C487 C488 1.523 . S
C488 C472 1.368 . S
C488 C484 1.368 . S
C488 C487 1.523 . S
H489 C464 0.950 . S
H490 C466 0.950 . S
H491 C467 0.949 . S
H492 C469 0.950 . S
H493 C471 0.950 . S
C494 C495 1.349 . S
C494 C496 1.327 . S
C494 H519 0.950 . S
C495 C494 1.349 . S
C495 C511 1.349 . S
C496 C494 1.327 . S
C496 C515 1.429 . S
C496 H520 0.950 . S
C497 C514 1.574 1_545 S
C497 C516 1.368 . S
C497 H521 0.949 . S
H498 C502 0.949 . S
C499 C500 1.349 . S
C499 C501 1.327 . S
C499 H522 0.950 . S
C500 C499 1.349 . S
C500 C512 1.349 . S
C501 C499 1.327 . S
C501 C517 1.429 . S
C501 H523 0.950 . S
C502 H498 0.949 . S
C502 C510 1.574 1_565 S
C502 C518 1.368 . S
H503 C511 0.950 . S
H504 C509 0.950 . S
H505 C510 0.949 . S
H506 C512 0.950 . S
H507 C513 0.950 . S
H508 C514 0.949 . S
C509 H504 0.950 . S
C509 C511 1.327 . S
C509 C515 1.429 . S
C510 C502 1.574 1_545 S
C510 H505 0.949 . S
C510 C516 1.368 . S
C511 C495 1.349 . S
C511 H503 0.950 . S
C511 C509 1.327 . S
C512 C500 1.349 . S
C512 H506 0.950 . S
C512 C513 1.327 . S
C513 H507 0.950 . S
C513 C512 1.327 . S
C513 C517 1.429 . S
C514 C497 1.574 1_565 S
C514 H508 0.949 . S
C514 C518 1.368 . S
C515 C496 1.429 . S
C515 C509 1.429 . S
C515 C516 1.523 . S
C516 C497 1.368 . S
C516 C510 1.368 . S
C516 C515 1.523 . S
C517 C501 1.429 . S
C517 C513 1.429 . S
C517 C518 1.523 . S
C518 C502 1.368 . S
C518 C514 1.368 . S
C518 C517 1.523 . S
H519 C494 0.950 . S
H520 C496 0.950 . S
H521 C497 0.949 . S
H522 C499 0.950 . S
H523 C501 0.950 . S
C524 C525 1.349 . S
C524 C526 1.327 . S
C524 H549 0.950 . S
C525 C524 1.349 . S
C525 C541 1.349 . S
C526 C524 1.327 . S
C526 C545 1.429 . S
C526 H550 0.950 . S
C527 C544 1.574 . S
C527 C546 1.368 . S
C527 H551 0.949 . S
H528 C532 0.949 . S
C529 C530 1.349 . S
C529 C531 1.327 . S
C529 H552 0.950 . S
C530 C529 1.349 . S
C530 C542 1.349 . S
C531 C529 1.327 . S
C531 C547 1.429 . S
C531 H553 0.950 . S
C532 H528 0.949 . S
C532 C540 1.574 . S
C532 C548 1.368 . S
H533 C541 0.950 . S
H534 C539 0.950 . S
H535 C540 0.949 . S
H536 C542 0.950 . S
H537 C543 0.950 . S
H538 C544 0.949 . S
C539 H534 0.950 . S
C539 C541 1.327 . S
C539 C545 1.429 . S
C540 C532 1.574 . S
C540 H535 0.949 . S
C540 C546 1.368 . S
C541 C525 1.349 . S
C541 H533 0.950 . S
C541 C539 1.327 . S
C542 C530 1.349 . S
C542 H536 0.950 . S
C542 C543 1.327 . S
C543 H537 0.950 . S
C543 C542 1.327 . S
C543 C547 1.429 . S
C544 C527 1.574 . S
C544 H538 0.949 . S
C544 C548 1.368 . S
C545 C526 1.429 . S
C545 C539 1.429 . S
C545 C546 1.523 . S
C546 C527 1.368 . S
C546 C540 1.368 . S
C546 C545 1.523 . S
C547 C531 1.429 . S
C547 C543 1.429 . S
C547 C548 1.523 . S
C548 C532 1.368 . S
C548 C544 1.368 . S
C548 C547 1.523 . S
H549 C524 0.950 . S
H550 C526 0.950 . S
H551 C527 0.949 . S
H552 C529 0.950 . S
H553 C531 0.950 . S
C554 C555 1.349 . S
C554 C556 1.327 . S
C554 H579 0.950 . S
C555 C554 1.349 . S
C555 C571 1.349 . S
C556 C554 1.327 . S
C556 C575 1.429 . S
C556 H580 0.950 . S
C557 C574 1.574 1_565 S
C557 C576 1.368 . S
C557 H581 0.949 . S
H558 C562 0.949 . S
C559 C560 1.349 . S
C559 C561 1.327 . S
C559 H582 0.950 . S
C560 C559 1.349 . S
C560 C572 1.349 . S
C561 C559 1.327 . S
C561 C577 1.429 . S
C561 H583 0.950 . S
C562 H558 0.949 . S
C562 C570 1.574 1_545 S
C562 C578 1.368 . S
H563 C571 0.950 . S
H564 C569 0.950 . S
H565 C570 0.949 . S
H566 C572 0.950 . S
H567 C573 0.950 . S
H568 C574 0.949 . S
C569 H564 0.950 . S
C569 C571 1.327 . S
C569 C575 1.429 . S
C570 C562 1.574 1_565 S
C570 H565 0.949 . S
C570 C576 1.368 . S
C571 C555 1.349 . S
C571 H563 0.950 . S
C571 C569 1.327 . S
C572 C560 1.349 . S
C572 H566 0.950 . S
C572 C573 1.327 . S
C573 H567 0.950 . S
C573 C572 1.327 . S
C573 C577 1.429 . S
C574 C557 1.574 1_545 S
C574 H568 0.949 . S
C574 C578 1.368 . S
C575 C556 1.429 . S
C575 C569 1.429 . S
C575 C576 1.523 . S
C576 C557 1.368 . S
C576 C570 1.368 . S
C576 C575 1.523 . S
C577 C561 1.429 . S
C577 C573 1.429 . S
C577 C578 1.523 . S
C578 C562 1.368 . S
C578 C574 1.368 . S
C578 C577 1.523 . S
H579 C554 0.950 . S
H580 C556 0.950 . S
H581 C557 0.949 . S
H582 C559 0.950 . S
H583 C561 0.950 . S
C105 C5 1.242 . S
C110 C18 1.242 . S
C135 C44 1.242 . S
C140 C31 1.242 . S
C165 C57 1.242 . S
C170 C70 1.242 . S
C195 C83 1.242 . S
C200 C96 1.242 . S
C225 C10 1.479 . S
C230 C36 1.479 . S
C255 C49 1.479 . S
C260 C23 1.479 . S
C285 C62 1.479 . S
C290 C88 1.479 . S
C315 C101 1.479 . S
C320 C75 1.479 . S
C345 C0 1.405 . S
C350 C52 1.405 . S
C375 C13 1.405 . S
C380 C65 1.405 . S
C405 C78 1.405 . S
C410 C26 1.405 . S
C435 C91 1.405 . S
C440 C39 1.405 . S
C465 C21 0.450 . S
C470 C8 0.450 . S
C495 C34 0.449 . S
C500 C47 0.449 . S
C525 C60 0.450 . S
C530 C73 0.450 . S
C555 C86 0.449 . S
C560 C99 0.449 . S
