# Generated by pormake.
# Topology uoc, (4)-cn, num edge types: 1
# Building blocks:
#     Node 0, Type 0, BuildingBlock: ICAMEG_clean_sbu_1, # of connection points: 4
#     Node 1, Type 0, BuildingBlock: ICAMEG_clean_sbu_1, # of connection points: 4
#     Node 2, Type 0, BuildingBlock: ICAMEG_clean_sbu_1, # of connection points: 4
#     Node 3, Type 0, BuildingBlock: ICAMEG_clean_sbu_1, # of connection points: 4
#     Node 4, Type 0, BuildingBlock: ICAMEG_clean_sbu_1, # of connection points: 4
#     Node 5, Type 0, BuildingBlock: ICAMEG_clean_sbu_1, # of connection points: 4
#     Node 6, Type 0, BuildingBlock: ICAMEG_clean_sbu_1, # of connection points: 4
#     Node 7, Type 0, BuildingBlock: ICAMEG_clean_sbu_1, # of connection points: 4
#     Edge 8, Type (0, 0), BuildingBlock: CIFDUS_clean_linker_0, # of connection points: 2
#     Edge 9, Type (0, 0), BuildingBlock: CIFDUS_clean_linker_0, # of connection points: 2
#     Edge 10, Type (0, 0), BuildingBlock: CIFDUS_clean_linker_0, # of connection points: 2
#     Edge 11, Type (0, 0), BuildingBlock: CIFDUS_clean_linker_0, # of connection points: 2
#     Edge 12, Type (0, 0), BuildingBlock: CIFDUS_clean_linker_0, # of connection points: 2
#     Edge 13, Type (0, 0), BuildingBlock: CIFDUS_clean_linker_0, # of connection points: 2
#     Edge 14, Type (0, 0), BuildingBlock: CIFDUS_clean_linker_0, # of connection points: 2
#     Edge 15, Type (0, 0), BuildingBlock: CIFDUS_clean_linker_0, # of connection points: 2
#     Edge 16, Type (0, 0), BuildingBlock: CIFDUS_clean_linker_0, # of connection points: 2
#     Edge 17, Type (0, 0), BuildingBlock: CIFDUS_clean_linker_0, # of connection points: 2
#     Edge 18, Type (0, 0), BuildingBlock: CIFDUS_clean_linker_0, # of connection points: 2
#     Edge 19, Type (0, 0), BuildingBlock: CIFDUS_clean_linker_0, # of connection points: 2
#     Edge 20, Type (0, 0), BuildingBlock: CIFDUS_clean_linker_0, # of connection points: 2
#     Edge 21, Type (0, 0), BuildingBlock: CIFDUS_clean_linker_0, # of connection points: 2
#     Edge 22, Type (0, 0), BuildingBlock: CIFDUS_clean_linker_0, # of connection points: 2
#     Edge 23, Type (0, 0), BuildingBlock: CIFDUS_clean_linker_0, # of connection points: 2
# Relax obj value: 0.094
# Max RMSD: 0.099
# Mean RMSD: 0.099
data_MOF--net-uoc--node1-ICAMEG_clean_sbu_1--edge1-CIFDUS_clean_linker_0
_symmetry_space_group_name_H-M    P1
_symmetry_Int_Tables_number       1
_symmetry_cell_setting            triclinic
loop_
_symmetry_equiv_pos_as_xyz
'x, y, z'
_cell_length_a     25.144228
_cell_length_b     25.214946
_cell_length_c     51.488178
_cell_angle_alpha  90.115626
_cell_angle_beta   89.9155
_cell_angle_gamma 100.55074
loop_
_atom_site_label
_atom_site_type_symbol
_atom_site_fract_x
_atom_site_fract_y
_atom_site_fract_z
_atom_type_partial_charge
Co0 Co 0.14263 0.24875 0.13147 0.0
Co1 Co 0.02679 0.27187 0.10151 0.0
O2 O 0.08803 0.29355 0.12502 0.0
C3 C 0.10613 0.27567 0.18397 0.0
O4 O 0.05647 0.26382 0.17509 0.0
C5 C 0.0728 0.38374 0.08527 0.0
O6 O 0.12161 0.37224 0.08636 0.0
O7 O 0.07692 0.25995 0.07311 0.0
O8 O 0.14147 0.22554 0.09385 0.0
H9 H 0.91948 0.15448 0.03383 0.0
H10 H 0.16438 0.36365 0.14746 0.0
O11 O 0.1458 0.2712 0.16917 0.0
H12 H 0.31032 0.34461 0.086 0.0
H13 H 0.31229 0.20687 0.172 0.0
H14 H 0.15624 0.13904 0.11557 0.0
H15 H 0.24041 0.26607 0.09737 0.0
H16 H 0.2442 0.26333 0.16266 0.0
O17 O 0.0316 0.34795 0.0903 0.0
H18 H 0.99482 0.18145 0.06456 0.0
H19 H 0.92975 0.3185 0.08734 0.0
H20 H 0.22358 0.08139 0.12423 0.0
H21 H 0.23375 0.44316 0.13679 0.0
H22 H 0.3023 0.11527 0.15264 0.0
H23 H 0.30732 0.43392 0.1058 0.0
O24 O 0.08538 0.18566 0.14 0.0
H25 H 0.96513 0.37677 0.17521 0.0
H26 H 0.92413 0.20942 0.12361 0.0
H27 H 0.86362 0.22376 0.15962 0.0
H28 H 0.88392 0.30803 0.18569 0.0
H29 H 0.02495 0.36039 0.13924 0.0
H30 H 0.85395 0.29324 0.05672 0.0
H31 H 0.84841 0.21059 0.02975 0.0
O32 O 0.01891 0.19507 0.11236 0.0
C33 C 0.11791 0.23667 0.07307 0.0
C34 C 0.92137 0.19049 0.04553 0.0
C35 C 0.88463 0.26841 0.05835 0.0
N36 N 0.96649 0.25127 0.07786 0.0
C37 C 0.96385 0.20589 0.06301 0.0
C38 C 0.92772 0.28257 0.07561 0.0
C39 C 0.88153 0.22202 0.04323 0.0
C40 C 0.19656 0.35921 0.13415 0.0
N41 N 0.19847 0.31024 0.12315 0.0
C42 C 0.2356 0.40442 0.1281 0.0
C43 C 0.27681 0.39923 0.11068 0.0
C44 C 0.27849 0.34913 0.09954 0.0
C45 C 0.23871 0.30484 0.10601 0.0
C46 C 0.27824 0.19171 0.15954 0.0
C47 C 0.19059 0.15419 0.1278 0.0
C48 C 0.23952 0.22346 0.15422 0.0
N49 N 0.19657 0.20465 0.1384 0.0
C50 C 0.22849 0.12131 0.1327 0.0
C51 C 0.27262 0.14032 0.14867 0.0
C52 C 0.04024 0.16799 0.12895 0.0
C53 C 0.9558 0.33992 0.16397 0.0
C54 C 0.93352 0.24592 0.13498 0.0
C55 C 0.89894 0.25397 0.15528 0.0
C56 C 0.9103 0.3013 0.16987 0.0
N57 N 0.97815 0.28391 0.12935 0.0
C58 C 0.98941 0.33051 0.14351 0.0
Co59 Co 0.75038 0.65472 0.38441 0.0
Co60 Co 0.7282 0.53067 0.41379 0.0
O61 O 0.77015 0.58428 0.39073 0.0
C62 C 0.76269 0.61945 0.32981 0.0
O63 O 0.72674 0.57585 0.33468 0.0
C64 C 0.84199 0.53371 0.43093 0.0
O65 O 0.84878 0.58649 0.43272 0.0
O66 O 0.73442 0.58475 0.4427 0.0
O67 O 0.72221 0.65828 0.4207 0.0
H68 H 0.58392 0.46505 0.47986 0.0
H69 H 0.86155 0.63878 0.3722 0.0
O70 O 0.77782 0.6537 0.34777 0.0
H71 H 0.8836 0.78548 0.43697 0.0
H72 H 0.77973 0.84247 0.34731 0.0
H73 H 0.65543 0.70499 0.3967 0.0
H74 H 0.79279 0.74341 0.42155 0.0
H75 H 0.80392 0.75398 0.35663 0.0
O76 O 0.79604 0.50644 0.42487 0.0
H77 H 0.6358 0.53072 0.44961 0.0
H78 H 0.73319 0.41675 0.42803 0.0
H79 H 0.62976 0.79308 0.38803 0.0
H80 H 0.95317 0.68004 0.38691 0.0
H81 H 0.69218 0.86259 0.36315 0.0
H82 H 0.96459 0.75386 0.41958 0.0
O83 O 0.67655 0.6193 0.37324 0.0
H84 H 0.79675 0.4345 0.33872 0.0
H85 H 0.63709 0.45068 0.39179 0.0
H86 H 0.62747 0.38601 0.35537 0.0
H87 H 0.70773 0.37752 0.32857 0.0
H88 H 0.80444 0.49901 0.37519 0.0
H89 H 0.6826 0.35001 0.4582 0.0
H90 H 0.6073 0.37399 0.48435 0.0
O91 O 0.65916 0.55157 0.40228 0.0
C92 C 0.7223 0.63178 0.44179 0.0
C93 C 0.61658 0.45409 0.46853 0.0
C94 C 0.67202 0.38957 0.45641 0.0
N95 N 0.68736 0.47757 0.43698 0.0
C96 C 0.64603 0.49107 0.45132 0.0
C97 C 0.70063 0.4276 0.43941 0.0
C98 C 0.62974 0.40302 0.47106 0.0
C99 C 0.86626 0.67122 0.38623 0.0
N100 N 0.82193 0.68884 0.39591 0.0
C101 C 0.9182 0.69428 0.39457 0.0
C102 C 0.92457 0.73564 0.41293 0.0
C103 C 0.87915 0.75337 0.42271 0.0
C104 C 0.82782 0.7293 0.41396 0.0
C105 C 0.75225 0.81258 0.35823 0.0
C106 C 0.68293 0.73513 0.38605 0.0
C107 C 0.76569 0.76236 0.36354 0.0
N108 N 0.73131 0.7245 0.37744 0.0
C109 C 0.66812 0.7849 0.38111 0.0
C110 C 0.70313 0.82385 0.36713 0.0
C111 C 0.64467 0.58102 0.3845 0.0
C112 C 0.76151 0.43775 0.35028 0.0
C113 C 0.67218 0.44734 0.38018 0.0
C114 C 0.6665 0.41055 0.35961 0.0
C115 C 0.71154 0.40582 0.34458 0.0
N116 N 0.7213 0.47856 0.38564 0.0
C117 C 0.76564 0.47413 0.37099 0.0
Co118 Co 0.33834 0.25733 0.63804 0.0
Co119 Co 0.45794 0.24906 0.60676 0.0
O120 O 0.3981 0.21866 0.63038 0.0
C121 C 0.36062 0.20602 0.6897 0.0
O122 O 0.39952 0.18403 0.6798 0.0
C123 C 0.43234 0.13116 0.5919 0.0
O124 O 0.38107 0.1278 0.59785 0.0
O125 O 0.40513 0.256 0.57855 0.0
O126 O 0.33942 0.28423 0.60128 0.0
H127 H 0.54978 0.38125 0.54056 0.0
H128 H 0.32431 0.13936 0.64943 0.0
O129 O 0.33423 0.23371 0.6756 0.0
H130 H 0.17632 0.15826 0.58959 0.0
H131 H 0.16108 0.28168 0.67776 0.0
H132 H 0.31756 0.36618 0.62502 0.0
H133 H 0.24182 0.23815 0.60351 0.0
H134 H 0.23454 0.2321 0.66768 0.0
O135 O 0.46503 0.1758 0.5939 0.0
H136 H 0.4773 0.3427 0.57105 0.0
H137 H 0.56404 0.21961 0.59193 0.0
H138 H 0.24481 0.41702 0.63446 0.0
H139 H 0.2593 0.05867 0.63637 0.0
H140 H 0.16584 0.37475 0.66101 0.0
H141 H 0.1846 0.06769 0.60615 0.0
O142 O 0.39082 0.32249 0.64866 0.0
H143 H 0.53505 0.15119 0.67838 0.0
H144 H 0.555 0.32109 0.62924 0.0
H145 H 0.6187 0.31296 0.66466 0.0
H146 H 0.60907 0.22736 0.68949 0.0
H147 H 0.47171 0.16158 0.64308 0.0
H148 H 0.63723 0.25661 0.56152 0.0
H149 H 0.63043 0.33811 0.5356 0.0
O150 O 0.45587 0.32386 0.61885 0.0
C151 C 0.36287 0.27733 0.57984 0.0
C152 C 0.55324 0.34577 0.55176 0.0
C153 C 0.60227 0.27577 0.56349 0.0
N154 N 0.51638 0.27897 0.58331 0.0
C155 C 0.51235 0.32378 0.5691 0.0
C156 C 0.56058 0.25488 0.58062 0.0
C157 C 0.59846 0.32152 0.54898 0.0
C158 C 0.29156 0.144 0.6367 0.0
N159 N 0.28661 0.19375 0.62767 0.0
C160 C 0.255 0.09796 0.62917 0.0
C161 C 0.21319 0.10302 0.61217 0.0
C162 C 0.20855 0.15381 0.60286 0.0
C163 C 0.24589 0.19891 0.61079 0.0
C164 C 0.19521 0.30048 0.66611 0.0
C165 C 0.28315 0.34735 0.63643 0.0
C166 C 0.23698 0.27265 0.66038 0.0
N167 N 0.28007 0.29603 0.64555 0.0
C168 C 0.24216 0.37641 0.64178 0.0
C169 C 0.1979 0.35269 0.65671 0.0
C170 C 0.43319 0.34606 0.63696 0.0
C171 C 0.53959 0.18876 0.66777 0.0
C172 C 0.5499 0.28418 0.64021 0.0
C173 C 0.58642 0.27958 0.66012 0.0
C174 C 0.58107 0.23152 0.67401 0.0
N175 N 0.5091 0.24221 0.63428 0.0
C176 C 0.50387 0.19487 0.64771 0.0
Co177 Co 0.76062 0.83095 0.89814 0.0
Co178 Co 0.75538 0.96284 0.9139 0.0
O179 O 0.72518 0.89384 0.89753 0.0
C180 C 0.73625 0.84297 0.84196 0.0
O181 O 0.75503 0.89493 0.84406 0.0
C182 C 0.64427 0.93633 0.93514 0.0
O183 O 0.65303 0.88752 0.9399 0.0
O184 O 0.76567 0.92622 0.94742 0.0
O185 O 0.78631 0.84724 0.93458 0.0
H186 H 0.89006 0.08897 0.9675 0.0
H187 H 0.64525 0.8174 0.88294 0.0
O188 O 0.73577 0.81234 0.86166 0.0
H189 H 0.64799 0.70203 0.95996 0.0
H190 H 0.77376 0.63781 0.87907 0.0
H191 H 0.8659 0.80961 0.91729 0.0
H192 H 0.73283 0.75404 0.94221 0.0
H193 H 0.7298 0.71759 0.87921 0.0
O194 O 0.68132 0.9715 0.92513 0.0
H195 H 0.85219 0.00278 0.94602 0.0
H196 H 0.72075 0.06979 0.91724 0.0
H197 H 0.91114 0.73073 0.9178 0.0
H198 H 0.55949 0.76572 0.89993 0.0
H199 H 0.86501 0.64403 0.89856 0.0
H200 H 0.56051 0.70763 0.93877 0.0
O201 O 0.82923 0.87463 0.8848 0.0
H202 H 0.65131 0.99799 0.8345 0.0
H203 H 0.82384 0.04723 0.88161 0.0
H204 H 0.81219 0.09065 0.83966 0.0
H205 H 0.72531 0.06612 0.81581 0.0
H206 H 0.66505 0.95512 0.87636 0.0
H207 H 0.75693 0.15653 0.9386 0.0
H208 H 0.84227 0.16656 0.9639 0.0
O209 O 0.83008 0.95631 0.90265 0.0
C210 C 0.78275 0.88251 0.95198 0.0
C211 C 0.85292 0.08514 0.95648 0.0
C212 C 0.77816 0.12303 0.94029 0.0
N213 N 0.78453 0.03137 0.93026 0.0
C214 C 0.83137 0.0365 0.94421 0.0
C215 C 0.75779 0.07377 0.9283 0.0
C216 C 0.82606 0.12864 0.95447 0.0
C217 C 0.64607 0.79177 0.89967 0.0
N218 N 0.69401 0.78853 0.91147 0.0
C219 C 0.59736 0.76278 0.90928 0.0
C220 C 0.59796 0.73028 0.9311 0.0
C221 C 0.64702 0.72715 0.94301 0.0
C222 C 0.69493 0.75679 0.9329 0.0
C223 C 0.79427 0.67535 0.88752 0.0
C224 C 0.84546 0.77197 0.909 0.0
C225 C 0.76964 0.72071 0.88758 0.0
N226 N 0.79519 0.76818 0.89833 0.0
C227 C 0.87133 0.72747 0.90929 0.0
C228 C 0.84545 0.67885 0.89848 0.0
C229 C 0.85288 0.92255 0.89033 0.0
C230 C 0.68935 0.00902 0.8447 0.0
C231 C 0.78621 0.03598 0.87124 0.0
C232 C 0.77969 0.06091 0.84755 0.0
C233 C 0.73091 0.04719 0.83421 0.0
N234 N 0.74534 0.99847 0.88137 0.0
C235 C 0.69731 0.985 0.86845 0.0
Co236 Co 0.65255 0.75455 0.63886 0.0
Co237 Co 0.52955 0.73513 0.60787 0.0
O238 O 0.58239 0.7751 0.63206 0.0
C239 C 0.6552 0.75191 0.69616 0.0
O240 O 0.66128 0.70155 0.69348 0.0
C241 C 0.53439 0.84963 0.59171 0.0
O242 O 0.58736 0.85631 0.5904 0.0
O243 O 0.58535 0.74234 0.5797 0.0
O244 O 0.65802 0.72884 0.60221 0.0
H245 H 0.46623 0.596 0.53921 0.0
H246 H 0.63682 0.86476 0.65264 0.0
O247 O 0.64866 0.77965 0.67603 0.0
H248 H 0.78633 0.89035 0.58916 0.0
H249 H 0.84088 0.78143 0.67619 0.0
H250 H 0.70182 0.65926 0.62656 0.0
H251 H 0.74313 0.79894 0.60292 0.0
H252 H 0.75266 0.8068 0.66688 0.0
O253 O 0.50665 0.80375 0.59732 0.0
H254 H 0.53074 0.64519 0.57081 0.0
H255 H 0.41638 0.74216 0.5925 0.0
H256 H 0.78949 0.63229 0.63534 0.0
H257 H 0.67925 0.95693 0.63961 0.0
H258 H 0.85978 0.69363 0.66035 0.0
H259 H 0.7545 0.97014 0.6076 0.0
O260 O 0.61534 0.68051 0.64848 0.0
H261 H 0.42867 0.80046 0.6822 0.0
H262 H 0.44756 0.64359 0.62795 0.0
H263 H 0.38013 0.63267 0.66325 0.0
H264 H 0.37022 0.71155 0.69063 0.0
H265 H 0.49602 0.80944 0.64684 0.0
H266 H 0.35078 0.69422 0.56099 0.0
H267 H 0.37553 0.62049 0.5341 0.0
O268 O 0.54893 0.66529 0.61865 0.0
C269 C 0.63235 0.72989 0.58089 0.0
C270 C 0.45492 0.62797 0.55085 0.0
C271 C 0.39017 0.68316 0.56305 0.0
N272 N 0.47732 0.69637 0.58359 0.0
C273 C 0.49125 0.65591 0.56882 0.0
C274 C 0.42756 0.71027 0.58081 0.0
C275 C 0.40406 0.64177 0.54798 0.0
C276 C 0.66992 0.87022 0.63891 0.0
N277 N 0.68772 0.82655 0.62871 0.0
C278 C 0.69363 0.92249 0.63152 0.0
C279 C 0.73578 0.92987 0.61352 0.0
C280 C 0.75363 0.88512 0.60315 0.0
C281 C 0.7289 0.83344 0.61097 0.0
C282 C 0.81063 0.7544 0.66523 0.0
C283 C 0.73223 0.68619 0.63736 0.0
C284 C 0.76062 0.76855 0.65988 0.0
N285 N 0.72219 0.73462 0.64604 0.0
C286 C 0.78179 0.6707 0.64231 0.0
C287 C 0.8212 0.70513 0.65635 0.0
C288 C 0.57739 0.64963 0.63652 0.0
C289 C 0.43255 0.76582 0.67038 0.0
C290 C 0.44368 0.67805 0.63984 0.0
C291 C 0.40531 0.67165 0.65976 0.0
C292 C 0.39978 0.71591 0.67511 0.0
N293 N 0.47566 0.72713 0.6353 0.0
C294 C 0.47055 0.77068 0.6503 0.0
Co295 Co 0.25836 0.15016 0.88878 0.0
Co296 Co 0.26036 0.0231 0.91358 0.0
O297 O 0.2911 0.08596 0.89272 0.0
C298 C 0.27488 0.11392 0.83499 0.0
O299 O 0.25592 0.06472 0.84301 0.0
C300 C 0.3723 0.05506 0.93306 0.0
O301 O 0.36425 0.10504 0.93393 0.0
O302 O 0.2509 0.06986 0.94395 0.0
O303 O 0.23789 0.14826 0.92658 0.0
H304 H 0.12505 0.91626 0.97426 0.0
H305 H 0.37075 0.15231 0.87071 0.0
O306 O 0.27804 0.15352 0.85073 0.0
H307 H 0.38419 0.29535 0.9371 0.0
H308 H 0.2496 0.33484 0.85403 0.0
H309 H 0.15856 0.18403 0.90819 0.0
H310 H 0.29549 0.24133 0.92532 0.0
H311 H 0.28988 0.25352 0.85989 0.0
O312 O 0.33436 0.01725 0.92599 0.0
H313 H 0.16376 0.99466 0.94728 0.0
H314 H 0.29366 0.9178 0.92497 0.0
H315 H 0.11708 0.26477 0.90307 0.0
H316 H 0.46022 0.20558 0.88178 0.0
H317 H 0.16268 0.34091 0.87581 0.0
H318 H 0.46734 0.27761 0.91525 0.0
O319 O 0.18661 0.10545 0.88038 0.0
H320 H 0.36274 0.96178 0.83878 0.0
H321 H 0.19042 0.9304 0.88706 0.0
H322 H 0.20084 0.87406 0.84884 0.0
H323 H 0.28759 0.88958 0.82444 0.0
H324 H 0.35023 0.01761 0.8769 0.0
H325 H 0.25662 0.83878 0.95188 0.0
H326 H 0.1716 0.83761 0.97669 0.0
O327 O 0.18587 0.02695 0.90124 0.0
C328 C 0.23877 0.11674 0.94593 0.0
C329 C 0.16203 0.91622 0.96348 0.0
C330 C 0.23592 0.87277 0.95095 0.0
N331 N 0.23067 0.96063 0.93442 0.0
C332 C 0.18405 0.96042 0.94811 0.0
C333 C 0.25677 0.91768 0.9358 0.0
C334 C 0.1882 0.87213 0.96485 0.0
C335 C 0.37347 0.18396 0.88509 0.0
N336 N 0.32794 0.19392 0.89723 0.0
C337 C 0.42426 0.21384 0.89137 0.0
C338 C 0.42823 0.25417 0.91018 0.0
C339 C 0.3816 0.26412 0.92246 0.0
C340 C 0.3315 0.23335 0.91574 0.0
C341 C 0.22936 0.30195 0.86598 0.0
C342 C 0.17876 0.2171 0.89641 0.0
C343 C 0.2519 0.25574 0.86931 0.0
N344 N 0.22668 0.21417 0.88447 0.0
C345 C 0.15502 0.26267 0.89353 0.0
C346 C 0.18061 0.30535 0.87821 0.0
C347 C 0.16285 0.05892 0.88793 0.0
C348 C 0.32476 0.9546 0.84926 0.0
C349 C 0.22802 0.93772 0.87639 0.0
C350 C 0.23384 0.9055 0.85485 0.0
C351 C 0.28255 0.91416 0.8412 0.0
N352 N 0.2695 0.97745 0.88412 0.0
C353 C 0.3175 0.98597 0.87092 0.0
Co354 Co 0.8576 0.75995 0.13994 0.0
Co355 Co 0.98951 0.7632 0.11982 0.0
O356 O 0.92346 0.72919 0.13757 0.0
C357 C 0.88487 0.74341 0.19492 0.0
O358 O 0.93359 0.77012 0.18972 0.0
C359 C 0.96228 0.65702 0.0944 0.0
O360 O 0.91282 0.66609 0.09162 0.0
O361 O 0.94774 0.77695 0.08838 0.0
O362 O 0.86487 0.7843 0.10284 0.0
H363 H 0.10528 0.9077 0.06715 0.0
H364 H 0.85572 0.64642 0.15555 0.0
O365 O 0.84894 0.73577 0.17718 0.0
H366 H 0.72297 0.6371 0.08452 0.0
H367 H 0.66623 0.76007 0.16875 0.0
H368 H 0.82379 0.86017 0.12154 0.0
H369 H 0.77276 0.72498 0.09989 0.0
H370 H 0.7501 0.72295 0.16477 0.0
O371 O 0.9982 0.69199 0.10529 0.0
H372 H 0.02257 0.86452 0.09021 0.0
H373 H 0.09737 0.73272 0.11101 0.0
H374 H 0.74063 0.89862 0.12487 0.0
H375 H 0.80656 0.55772 0.1409 0.0
H376 H 0.66107 0.84843 0.14862 0.0
H377 H 0.73975 0.55267 0.10508 0.0
O378 O 0.8993 0.8316 0.15103 0.0
H379 H 0.03893 0.65092 0.19336 0.0
H380 H 0.07631 0.82969 0.15157 0.0
H381 H 0.12606 0.81406 0.19124 0.0
H382 H 0.10751 0.72409 0.21238 0.0
H383 H 0.98974 0.6685 0.1538 0.0
H384 H 0.18072 0.77423 0.088 0.0
H385 H 0.18508 0.86245 0.06593 0.0
O386 O 0.98264 0.83456 0.13427 0.0
C387 C 0.90033 0.78712 0.08488 0.0
C388 C 0.10393 0.86933 0.07675 0.0
C389 C 0.14624 0.79438 0.08842 0.0
N390 N 0.0553 0.79637 0.10208 0.0
C391 C 0.05727 0.84477 0.0899 0.0
C392 C 0.0989 0.771 0.10137 0.0
C393 C 0.14867 0.84389 0.07606 0.0
C394 C 0.82632 0.64458 0.14013 0.0
N395 N 0.81689 0.69084 0.1287 0.0
C396 C 0.79877 0.59423 0.13185 0.0
C397 C 0.76135 0.59142 0.11172 0.0
C398 C 0.75194 0.63878 0.10017 0.0
C399 C 0.78031 0.68842 0.10893 0.0
C400 C 0.70061 0.7823 0.15834 0.0
C401 C 0.7893 0.83803 0.13182 0.0
C402 C 0.74826 0.76156 0.15608 0.0
N403 N 0.79172 0.7893 0.14284 0.0
C404 C 0.74234 0.86004 0.13368 0.0
C405 C 0.69773 0.83187 0.14703 0.0
C406 C 0.94766 0.85562 0.14647 0.0
C407 C 0.04743 0.69026 0.1843 0.0
C408 C 0.06785 0.79053 0.16073 0.0
C409 C 0.09626 0.78186 0.18314 0.0
C410 C 0.08586 0.73136 0.19498 0.0
N411 N 0.0302 0.75004 0.15038 0.0
C412 C 0.01984 0.7004 0.16185 0.0
Co413 Co 0.2529 0.3412 0.3808 0.0
Co414 Co 0.24308 0.46032 0.41187 0.0
O415 O 0.21317 0.40014 0.38839 0.0
C416 C 0.20092 0.36207 0.32904 0.0
O417 O 0.17958 0.4016 0.33866 0.0
C418 C 0.12499 0.43354 0.42719 0.0
O419 O 0.12183 0.38247 0.42114 0.0
O420 O 0.2511 0.40819 0.44017 0.0
O421 O 0.28037 0.34315 0.41749 0.0
H422 H 0.37553 0.55434 0.47757 0.0
H423 H 0.13459 0.32548 0.36951 0.0
O424 O 0.22864 0.33605 0.34332 0.0
H425 H 0.15584 0.17948 0.42986 0.0
H426 H 0.27944 0.16462 0.34157 0.0
H427 H 0.36282 0.32234 0.39363 0.0
H428 H 0.23521 0.24545 0.41567 0.0
H429 H 0.22866 0.2371 0.35154 0.0
O430 O 0.16949 0.46646 0.42492 0.0
H431 H 0.33734 0.48128 0.44736 0.0
H432 H 0.21218 0.56562 0.42653 0.0
H433 H 0.41488 0.25059 0.38429 0.0
H434 H 0.05437 0.25997 0.38285 0.0
H435 H 0.37317 0.17099 0.35809 0.0
H436 H 0.0646 0.18628 0.41332 0.0
O437 O 0.3176 0.39424 0.36994 0.0
H438 H 0.14263 0.53494 0.34041 0.0
H439 H 0.31395 0.55746 0.38898 0.0
H440 H 0.30439 0.62033 0.35347 0.0
H441 H 0.21807 0.60941 0.32893 0.0
H442 H 0.15444 0.47245 0.37579 0.0
H443 H 0.24877 0.63934 0.45668 0.0
H444 H 0.33113 0.63405 0.48242 0.0
O445 O 0.31818 0.45921 0.39964 0.0
C446 C 0.27318 0.36649 0.43891 0.0
C447 C 0.33966 0.55713 0.46644 0.0
C448 C 0.26848 0.60479 0.45475 0.0
N449 N 0.27259 0.51912 0.43514 0.0
C450 C 0.31787 0.51592 0.44927 0.0
C451 C 0.24782 0.5628 0.43777 0.0
C452 C 0.31471 0.60183 0.46917 0.0
C453 C 0.13972 0.29317 0.38237 0.0
N454 N 0.18983 0.28903 0.39141 0.0
C455 C 0.09397 0.25633 0.39004 0.0
C456 C 0.0997 0.21508 0.40719 0.0
C457 C 0.15086 0.21127 0.41649 0.0
C458 C 0.19567 0.24887 0.40841 0.0
C459 C 0.298 0.19903 0.35307 0.0
C460 C 0.34425 0.28766 0.38237 0.0
C461 C 0.26948 0.24025 0.35874 0.0
N462 N 0.29257 0.2837 0.37337 0.0
C463 C 0.37399 0.24723 0.37707 0.0
C464 C 0.35059 0.20262 0.36234 0.0
C465 C 0.34077 0.43682 0.38157 0.0
C466 C 0.1805 0.54006 0.3509 0.0
C467 C 0.27672 0.55182 0.37814 0.0
C468 C 0.27131 0.58786 0.35818 0.0
C469 C 0.22285 0.58179 0.34446 0.0
N470 N 0.23514 0.51079 0.38428 0.0
C471 C 0.18741 0.50483 0.371 0.0
H472 H 0.18123 0.16136 0.06306 0.0
H473 H 0.10132 0.27805 0.02547 0.0
H474 H 0.13375 0.25323 0.9833 0.0
H475 H 0.18291 0.19721 0.9568 0.0
H476 H 0.2585 0.07659 0.99371 0.0
H477 H 0.22987 0.10427 0.03627 0.0
C478 C 0.17111 0.18155 0.04566 0.0
C479 C 0.13883 0.22162 0.04755 0.0
C480 C 0.1891 0.16634 0.02126 0.0
C481 C 0.12581 0.24693 0.02469 0.0
C482 C 0.14445 0.23283 1.0005 0.0
C483 C 0.19349 0.17711 0.97412 0.0
C484 C 0.22308 0.13493 0.97193 0.0
C485 C 0.17587 0.19242 0.99852 0.0
C486 C 0.23577 0.10912 0.99471 0.0
C487 C 0.21939 0.12494 0.01911 0.0
H488 H 0.8504 0.69261 0.31451 0.0
H489 H 0.71784 0.57537 0.28452 0.0
H490 H 0.74409 0.60301 0.24013 0.0
H491 H 0.80226 0.66355 0.20985 0.0
H492 H 0.93703 0.77797 0.23993 0.0
H493 H 0.91234 0.74836 0.28419 0.0
C494 C 0.82745 0.67281 0.29826 0.0
C495 C 0.78195 0.63221 0.30288 0.0
C496 C 0.84296 0.68866 0.27277 0.0
C497 C 0.75305 0.60664 0.28156 0.0
C498 C 0.76789 0.62262 0.25615 0.0
C499 C 0.82627 0.68192 0.2261 0.0
C500 C 0.8711 0.72334 0.22159 0.0
C501 C 0.81232 0.66411 0.25153 0.0
C502 C 0.90228 0.74613 0.24283 0.0
C503 C 0.88814 0.72927 0.26817 0.0
H504 H 0.38572 0.25622 0.52909 0.0
H505 H 0.28954 0.34468 0.57619 0.0
H506 H 0.25414 0.38052 0.53732 0.0
H507 H 0.25035 0.3877 0.48965 0.0
H508 H 0.34321 0.29583 0.44256 0.0
H509 H 0.37945 0.26085 0.48143 0.0
C510 C 0.35698 0.28327 0.53088 0.0
C511 C 0.34065 0.29761 0.5557 0.0
C512 C 0.33592 0.3034 0.5083 0.0
C513 C 0.303 0.33259 0.55747 0.0
C514 C 0.28265 0.35335 0.53517 0.0
C515 C 0.27848 0.36001 0.48787 0.0
C516 C 0.29391 0.34474 0.46305 0.0
C517 C 0.29883 0.33916 0.51045 0.0
C518 C 0.33025 0.30843 0.46128 0.0
C519 C 0.35124 0.28832 0.48358 0.0
H520 H 0.71956 0.89469 0.79661 0.0
H521 H 0.7085 0.73619 0.83022 0.0
H522 H 0.67943 0.69474 0.78873 0.0
H523 H 0.66077 0.70264 0.74254 0.0
H524 H 0.67103 0.86 0.70806 0.0
H525 H 0.69597 0.90246 0.75021 0.0
C526 C 0.71069 0.8511 0.79485 0.0
C527 C 0.71672 0.81877 0.81658 0.0
C528 C 0.69364 0.82716 0.77076 0.0
C529 C 0.70448 0.76228 0.81394 0.0
C530 C 0.68779 0.73837 0.79015 0.0
C531 C 0.66803 0.74625 0.74421 0.0
C532 C 0.66423 0.77799 0.72208 0.0
C533 C 0.68273 0.77034 0.76839 0.0
C534 C 0.67347 0.83448 0.72475 0.0
C535 C 0.68806 0.85883 0.74885 0.0
H536 H 0.11462 0.37137 0.2982 0.0
H537 H 0.26617 0.31423 0.29817 0.0
H538 H 0.2513 0.28417 0.25321 0.0
H539 H 0.19466 0.27256 0.21395 0.0
H540 H 0.03988 0.32327 0.21481 0.0
H541 H 0.05642 0.35709 0.25919 0.0
C542 C 0.14449 0.35267 0.28826 0.0
C543 C 0.19162 0.34545 0.30148 0.0
C544 C 0.13497 0.334 0.26253 0.0
C545 C 0.22955 0.32031 0.28846 0.0
C546 C 0.2211 0.30309 0.26272 0.0
C547 C 0.16461 0.29113 0.22384 0.0
C548 C 0.11618 0.29549 0.21103 0.0
C549 C 0.17386 0.30947 0.24958 0.0
C550 C 0.07741 0.31916 0.22424 0.0
C551 C 0.08691 0.33868 0.24961 0.0
H552 H 0.6074 0.74539 0.52995 0.0
H553 H 0.71202 0.66975 0.57829 0.0
H554 H 0.74837 0.63192 0.5401 0.0
H555 H 0.74957 0.61818 0.4926 0.0
H556 H 0.64903 0.6984 0.44421 0.0
H557 H 0.61249 0.73611 0.48243 0.0
C558 C 0.63837 0.72092 0.53212 0.0
C559 C 0.65668 0.71059 0.55708 0.0
C560 C 0.65998 0.69973 0.50992 0.0
C561 C 0.69714 0.67886 0.5594 0.0
C562 C 0.71795 0.65685 0.53751 0.0
C563 C 0.71978 0.64401 0.49047 0.0
C564 C 0.70223 0.65538 0.46553 0.0
C565 C 0.69949 0.66667 0.51264 0.0
C566 C 0.66379 0.6893 0.46312 0.0
C567 C 0.64259 0.71081 0.48502 0.0
H568 H 0.3636 0.11729 0.7196 0.0
H569 H 0.32174 0.2756 0.72175 0.0
H570 H 0.29367 0.26224 0.7671 0.0
H571 H 0.27926 0.20491 0.80607 0.0
H572 H 0.31327 0.04349 0.80287 0.0
H573 H 0.3459 0.0585 0.75822 0.0
C574 C 0.34869 0.14892 0.7301 0.0
C575 C 0.34522 0.19755 0.71741 0.0
C576 C 0.33089 0.14026 0.756 0.0
C577 C 0.32487 0.23784 0.7311 0.0
C578 C 0.3088 0.23023 0.75704 0.0
C579 C 0.29395 0.1731 0.7956 0.0
C580 C 0.29401 0.12324 0.80781 0.0
C581 C 0.31135 0.18152 0.76967 0.0
C582 C 0.31257 0.08217 0.79389 0.0
C583 C 0.3314 0.09078 0.76836 0.0
H584 H 0.82644 0.84904 0.07138 0.0
H585 H 0.94023 0.75814 0.03881 0.0
H586 H 0.91351 0.77935 0.99499 0.0
H587 H 0.85709 0.82247 0.96594 0.0
H588 H 0.74731 0.91833 0.99802 0.0
H589 H 0.77337 0.89669 0.04205 0.0
C590 C 0.84535 0.83388 0.05469 0.0
C591 C 0.88504 0.80172 0.05838 0.0
C592 C 0.83055 0.84716 0.02949 0.0
C593 C 0.90971 0.78304 0.03653 0.0
C594 C 0.89434 0.79503 1.01146 0.0
C595 C 0.83878 0.83862 0.98255 0.0
C596 C 0.79991 0.87157 0.97869 0.0
C597 C 0.85468 0.82685 1.00771 0.0
C598 C 0.77732 0.8929 1.00045 0.0
C599 C 0.7921 0.8804 0.02562 0.0
H600 H 0.07618 0.09027 0.15735 0.0
H601 H 0.93884 0.12092 0.11328 0.0
H602 H 0.89324 0.02841 0.11962 0.0
H603 H 0.89674 0.93598 0.13283 0.0
H604 H 0.03686 0.90262 0.1731 0.0
H605 H 0.07643 0.99882 0.17363 0.0
C606 C 0.036 0.07695 0.14943 0.0
C607 C 0.01128 0.11272 0.13479 0.0
C608 C 0.01033 0.02299 0.15251 0.0
C609 C 0.95913 0.09454 0.12463 0.0
C610 C 0.93282 0.04145 0.12821 0.0
C611 C 0.93502 0.95016 0.14248 0.0
C612 C 0.96381 0.91285 0.15307 0.0
C613 C 0.95854 0.00501 0.14155 0.0
C614 C 0.01409 0.9311 0.16493 0.0
C615 C 0.03683 0.98592 0.16505 0.0
H616 H 0.01853 0.3855 0.42202 0.0
H617 H 0.12135 0.53338 0.44651 0.0
H618 H 0.04312 0.57675 0.45109 0.0
H619 H 0.94607 0.57544 0.44494 0.0
H620 H 0.84273 0.42748 0.42092 0.0
H621 H 0.92005 0.38188 0.41964 0.0
C622 C 0.02372 0.4269 0.42876 0.0
C623 C 0.07598 0.45616 0.43353 0.0
C624 C 0.97831 0.45204 0.43128 0.0
C625 C 0.08179 0.5099 0.44229 0.0
C626 C 0.03697 0.53493 0.44495 0.0
C627 C 0.94036 0.5331 0.43969 0.0
C628 C 0.88862 0.50529 0.43287 0.0
C629 C 0.98515 0.50684 0.43893 0.0
C630 C 0.88204 0.4502 0.42624 0.0
C631 C 0.92635 0.42392 0.42542 0.0
H632 H 0.53094 0.40222 0.62224 0.0
H633 H 0.38827 0.41777 0.66628 0.0
H634 H 0.42491 0.51345 0.67352 0.0
H635 H 0.49373 0.59409 0.66343 0.0
H636 H 0.63531 0.57666 0.61941 0.0
H637 H 0.60404 0.47906 0.61711 0.0
C638 C 0.50818 0.42584 0.63399 0.0
C639 C 0.4568 0.40262 0.64365 0.0
C640 C 0.52968 0.48029 0.63831 0.0
C641 C 0.42786 0.43454 0.65856 0.0
C642 C 0.4488 0.48923 0.66272 0.0
C643 C 0.51823 0.56846 0.65402 0.0
C644 C 0.56686 0.59181 0.64184 0.0
C645 C 0.49918 0.5127 0.65222 0.0
C646 C 0.59839 0.55899 0.6294 0.0
C647 C 0.58008 0.50345 0.62776 0.0
H648 H 0.6184 0.03614 0.93645 0.0
H649 H 0.54825 0.86702 0.9424 0.0
H650 H 0.45771 0.88943 0.9441 0.0
H651 H 0.39852 0.95649 0.94063 0.0
H652 H 0.46876 0.12561 0.93471 0.0
H653 H 0.55944 0.10369 0.93651 0.0
C654 C 0.58334 0.00416 0.93832 0.0
C655 C 0.59003 0.94993 0.93906 0.0
C656 C 0.5315 0.01732 0.93921 0.0
C657 C 0.54424 0.90906 0.9418 0.0
C658 C 0.49245 0.92184 0.94266 0.0
C659 C 0.43365 0.98864 0.93997 0.0
C660 C 0.42688 0.0426 0.93732 0.0
C661 C 0.4856 0.97574 0.94089 0.0
C662 C 0.4728 0.08378 0.93677 0.0
C663 C 0.52467 0.07125 0.93767 0.0
H664 H 0.0618 0.6296 0.09394 0.0
H665 H 0.89326 0.56632 0.07844 0.0
H666 H 0.91461 0.47687 0.07104 0.0
H667 H 0.97916 0.41557 0.07317 0.0
H668 H 0.14712 0.47741 0.09029 0.0
H669 H 0.12804 0.56916 0.09232 0.0
C670 C 0.02974 0.59637 0.08871 0.0
C671 C 0.97586 0.60445 0.08706 0.0
C672 C 0.04219 0.54498 0.08479 0.0
C673 C 0.93498 0.56115 0.07996 0.0
C674 C 0.94714 0.50998 0.07578 0.0
C675 C 0.01182 0.44916 0.07707 0.0
C676 C 0.06436 0.43971 0.08192 0.0
C677 C 1.00032 0.50128 0.07877 0.0
C678 C 0.10635 0.48367 0.08651 0.0
C679 C 0.09536 0.53602 0.08786 0.0
H680 H 0.3961 0.53482 0.39628 0.0
H681 H 0.41361 0.3927 0.35252 0.0
H682 H 0.50965 0.42968 0.34589 0.0
H683 H 0.59003 0.49837 0.35666 0.0
H684 H 0.57087 0.63902 0.40072 0.0
H685 H 0.47289 0.60785 0.40203 0.0
C686 C 0.42025 0.51224 0.38472 0.0
C687 C 0.39744 0.46087 0.37499 0.0
C688 C 0.47497 0.53387 0.38082 0.0
C689 C 0.43002 0.43225 0.3603 0.0
C690 C 0.48493 0.45338 0.35649 0.0
C691 C 0.56399 0.52269 0.36588 0.0
C692 C 0.58697 0.57099 0.37838 0.0
C693 C 0.50801 0.50362 0.36717 0.0
C694 C 0.55355 0.60234 0.3905 0.0
C695 C 0.49777 0.58408 0.39158 0.0
H696 H 0.38475 0.02515 0.59793 0.0
H697 H 0.53303 0.12741 0.57329 0.0
H698 H 0.57721 0.0496 0.56998 0.0
H699 H 0.57632 0.95314 0.5772 0.0
H700 H 0.42783 0.8505 0.60134 0.0
H701 H 0.38169 0.92729 0.6015 0.0
C702 C 0.42643 0.03029 0.59143 0.0
C703 C 0.45552 0.08229 0.58623 0.0
C704 C 0.45202 0.98517 0.58966 0.0
C705 C 0.50964 0.08805 0.5778 0.0
C706 C 0.53514 0.04348 0.57589 0.0
C707 C 0.53377 0.94748 0.58226 0.0
C708 C 0.50595 0.89608 0.58941 0.0
C709 C 0.50715 0.99197 0.58234 0.0
C710 C 0.45057 0.88955 0.59578 0.0
C711 C 0.42397 0.93355 0.59593 0.0
H712 H 0.9095 0.0245 0.88458 0.0
H713 H 0.92755 0.85759 0.88255 0.0
H714 H 0.02567 0.88529 0.87984 0.0
H715 H 0.1062 0.95689 0.88245 0.0
H716 H 0.0878 0.12367 0.88213 0.0
H717 H 0.98956 0.09595 0.88095 0.0
C718 C 0.93469 0.9941 0.88313 0.0
C719 C 0.91111 0.93903 0.88422 0.0
C720 C 0.99098 0.01029 0.88129 0.0
C721 C 0.94452 0.90024 0.88196 0.0
C722 C 0.0007 0.91605 0.88049 0.0
C723 C 0.08077 0.98718 0.88179 0.0
C724 C 0.10431 0.04225 0.88284 0.0
C725 C 0.02437 0.97095 0.88085 0.0
C726 C 0.07078 0.08103 0.88148 0.0
C727 C 0.01457 0.0652 0.88091 0.0
loop_
_geom_bond_atom_site_label_1
_geom_bond_atom_site_label_2
_geom_bond_distance
_geom_bond_site_symmetry_2
_ccdc_geom_bond_type
Co0 O2 2.143 . S
Co0 O8 2.074 . S
Co0 O11 2.093 . S
Co0 O24 2.097 . S
Co0 N41 2.151 . S
Co0 N49 2.214 . S
Co1 O2 2.160 . S
Co1 O7 2.058 . S
Co1 O17 2.057 . S
Co1 O32 2.037 . S
Co1 N36 2.145 . S
Co1 N57 2.257 . S
O2 Co0 2.143 . S
O2 Co1 2.160 . S
C3 O4 1.278 . S
C3 O11 1.224 . S
O4 C3 1.278 . S
C5 O6 1.245 . S
C5 O17 1.232 . S
O6 C5 1.245 . S
O7 Co1 2.058 . S
O7 C33 1.269 . S
O8 Co0 2.074 . S
O8 C33 1.257 . S
H9 C34 0.930 . S
H10 C40 0.930 . S
O11 Co0 2.093 . S
O11 C3 1.224 . S
H12 C44 0.929 . S
H13 C46 0.930 . S
H14 C47 0.930 . S
H15 C45 0.929 . S
H16 C48 0.928 . S
O17 Co1 2.057 . S
O17 C5 1.232 . S
H18 C37 0.929 1_455 S
H19 C38 0.929 . S
H20 C50 0.931 . S
H21 C42 0.929 . S
H22 C51 0.930 . S
H23 C43 0.931 . S
O24 Co0 2.097 . S
O24 C52 1.214 . S
H25 C53 0.929 . S
H26 C54 0.929 . S
H27 C55 0.930 . S
H28 C56 0.929 . S
H29 C58 0.930 . S
H30 C35 0.930 . S
H31 C39 0.930 . S
O32 Co1 2.037 . S
O32 C52 1.234 . S
C33 O7 1.269 . S
C33 O8 1.257 . S
C34 H9 0.930 . S
C34 C37 1.388 . S
C34 C39 1.418 . S
C35 H30 0.930 . S
C35 C38 1.404 . S
C35 C39 1.353 . S
N36 Co1 2.145 . S
N36 C37 1.397 1_455 S
N36 C38 1.334 1_455 S
C37 H18 0.929 1_655 S
C37 C34 1.388 . S
C37 N36 1.397 1_655 S
C38 H19 0.929 . S
C38 C35 1.404 . S
C38 N36 1.334 1_655 S
C39 H31 0.930 . S
C39 C34 1.418 . S
C39 C35 1.353 . S
C40 H10 0.930 . S
C40 N41 1.330 . S
C40 C42 1.446 . S
N41 Co0 2.151 . S
N41 C40 1.330 . S
N41 C45 1.418 . S
C42 H21 0.929 . S
C42 C40 1.446 . S
C42 C43 1.332 . S
C43 H23 0.931 . S
C43 C42 1.332 . S
C43 C44 1.267 . S
C44 H12 0.929 . S
C44 C43 1.267 . S
C44 C45 1.251 . S
C45 H15 0.929 . S
C45 N41 1.418 . S
C45 C44 1.251 . S
C46 H13 0.930 . S
C46 C48 1.406 . S
C46 C51 1.261 . S
C47 H14 0.930 . S
C47 N49 1.325 . S
C47 C50 1.357 . S
C48 H16 0.928 . S
C48 C46 1.406 . S
C48 N49 1.261 . S
N49 Co0 2.214 . S
N49 C47 1.325 . S
N49 C48 1.261 . S
C50 H20 0.931 . S
C50 C47 1.357 . S
C50 C51 1.312 . S
C51 H22 0.930 . S
C51 C46 1.261 . S
C51 C50 1.312 . S
C52 O24 1.214 . S
C52 O32 1.234 . S
C53 H25 0.929 . S
C53 C56 1.391 . S
C53 C58 1.391 1_655 S
C54 H26 0.929 . S
C54 C55 1.390 . S
C54 N57 1.391 1_655 S
C55 H27 0.930 . S
C55 C54 1.390 . S
C55 C56 1.392 . S
C56 H28 0.929 . S
C56 C53 1.391 . S
C56 C55 1.392 . S
N57 Co1 2.257 . S
N57 C54 1.391 1_455 S
N57 C58 1.388 . S
C58 H29 0.930 . S
C58 C53 1.391 1_455 S
C58 N57 1.388 . S
Co59 O61 2.143 . S
Co59 O67 2.074 . S
Co59 O70 2.093 . S
Co59 O83 2.097 . S
Co59 N100 2.151 . S
Co59 N108 2.214 . S
Co60 O61 2.160 . S
Co60 O66 2.058 . S
Co60 O76 2.057 . S
Co60 O91 2.037 . S
Co60 N95 2.145 . S
Co60 N116 2.257 . S
O61 Co59 2.143 . S
O61 Co60 2.160 . S
C62 O63 1.278 . S
C62 O70 1.224 . S
O63 C62 1.278 . S
C64 O65 1.245 . S
C64 O76 1.232 . S
O65 C64 1.245 . S
O66 Co60 2.058 . S
O66 C92 1.269 . S
O67 Co59 2.074 . S
O67 C92 1.257 . S
H68 C93 0.930 . S
H69 C99 0.930 . S
O70 Co59 2.093 . S
O70 C62 1.224 . S
H71 C103 0.929 . S
H72 C105 0.930 . S
H73 C106 0.930 . S
H74 C104 0.929 . S
H75 C107 0.928 . S
O76 Co60 2.057 . S
O76 C64 1.232 . S
H77 C96 0.929 . S
H78 C97 0.929 . S
H79 C109 0.931 . S
H80 C101 0.929 . S
H81 C110 0.930 . S
H82 C102 0.931 . S
O83 Co59 2.097 . S
O83 C111 1.214 . S
H84 C112 0.929 . S
H85 C113 0.929 . S
H86 C114 0.930 . S
H87 C115 0.929 . S
H88 C117 0.930 . S
H89 C94 0.930 . S
H90 C98 0.930 . S
O91 Co60 2.037 . S
O91 C111 1.234 . S
C92 O66 1.269 . S
C92 O67 1.257 . S
C93 H68 0.930 . S
C93 C96 1.388 . S
C93 C98 1.418 . S
C94 H89 0.930 . S
C94 C97 1.404 . S
C94 C98 1.353 . S
N95 Co60 2.145 . S
N95 C96 1.397 . S
N95 C97 1.334 . S
C96 H77 0.929 . S
C96 C93 1.388 . S
C96 N95 1.397 . S
C97 H78 0.929 . S
C97 C94 1.404 . S
C97 N95 1.334 . S
C98 H90 0.930 . S
C98 C93 1.418 . S
C98 C94 1.353 . S
C99 H69 0.930 . S
C99 N100 1.330 . S
C99 C101 1.446 . S
N100 Co59 2.151 . S
N100 C99 1.330 . S
N100 C104 1.418 . S
C101 H80 0.929 . S
C101 C99 1.446 . S
C101 C102 1.332 . S
C102 H82 0.931 . S
C102 C101 1.332 . S
C102 C103 1.267 . S
C103 H71 0.929 . S
C103 C102 1.267 . S
C103 C104 1.251 . S
C104 H74 0.929 . S
C104 N100 1.418 . S
C104 C103 1.251 . S
C105 H72 0.930 . S
C105 C107 1.406 . S
C105 C110 1.261 . S
C106 H73 0.930 . S
C106 N108 1.325 . S
C106 C109 1.357 . S
C107 H75 0.928 . S
C107 C105 1.406 . S
C107 N108 1.261 . S
N108 Co59 2.214 . S
N108 C106 1.325 . S
N108 C107 1.261 . S
C109 H79 0.931 . S
C109 C106 1.357 . S
C109 C110 1.312 . S
C110 H81 0.930 . S
C110 C105 1.261 . S
C110 C109 1.312 . S
C111 O83 1.214 . S
C111 O91 1.234 . S
C112 H84 0.929 . S
C112 C115 1.391 . S
C112 C117 1.391 . S
C113 H85 0.929 . S
C113 C114 1.390 . S
C113 N116 1.391 . S
C114 H86 0.930 . S
C114 C113 1.390 . S
C114 C115 1.392 . S
C115 H87 0.929 . S
C115 C112 1.391 . S
C115 C114 1.392 . S
N116 Co60 2.257 . S
N116 C113 1.391 . S
N116 C117 1.388 . S
C117 H88 0.930 . S
C117 C112 1.391 . S
C117 N116 1.388 . S
Co118 O120 2.143 . S
Co118 O126 2.074 . S
Co118 O129 2.093 . S
Co118 O142 2.097 . S
Co118 N159 2.151 . S
Co118 N167 2.214 . S
Co119 O120 2.160 . S
Co119 O125 2.058 . S
Co119 O135 2.057 . S
Co119 O150 2.037 . S
Co119 N154 2.145 . S
Co119 N175 2.257 . S
O120 Co118 2.143 . S
O120 Co119 2.160 . S
C121 O122 1.278 . S
C121 O129 1.224 . S
O122 C121 1.278 . S
C123 O124 1.245 . S
C123 O135 1.232 . S
O124 C123 1.245 . S
O125 Co119 2.058 . S
O125 C151 1.269 . S
O126 Co118 2.074 . S
O126 C151 1.257 . S
H127 C152 0.930 . S
H128 C158 0.930 . S
O129 Co118 2.093 . S
O129 C121 1.224 . S
H130 C162 0.929 . S
H131 C164 0.930 . S
H132 C165 0.930 . S
H133 C163 0.929 . S
H134 C166 0.928 . S
O135 Co119 2.057 . S
O135 C123 1.232 . S
H136 C155 0.929 . S
H137 C156 0.929 . S
H138 C168 0.931 . S
H139 C160 0.929 . S
H140 C169 0.930 . S
H141 C161 0.931 . S
O142 Co118 2.097 . S
O142 C170 1.214 . S
H143 C171 0.929 . S
H144 C172 0.929 . S
H145 C173 0.930 . S
H146 C174 0.929 . S
H147 C176 0.930 . S
H148 C153 0.930 . S
H149 C157 0.930 . S
O150 Co119 2.037 . S
O150 C170 1.234 . S
C151 O125 1.269 . S
C151 O126 1.257 . S
C152 H127 0.930 . S
C152 C155 1.388 . S
C152 C157 1.418 . S
C153 H148 0.930 . S
C153 C156 1.404 . S
C153 C157 1.353 . S
N154 Co119 2.145 . S
N154 C155 1.397 . S
N154 C156 1.334 . S
C155 H136 0.929 . S
C155 C152 1.388 . S
C155 N154 1.397 . S
C156 H137 0.929 . S
C156 C153 1.404 . S
C156 N154 1.334 . S
C157 H149 0.930 . S
C157 C152 1.418 . S
C157 C153 1.353 . S
C158 H128 0.930 . S
C158 N159 1.330 . S
C158 C160 1.446 . S
N159 Co118 2.151 . S
N159 C158 1.330 . S
N159 C163 1.418 . S
C160 H139 0.929 . S
C160 C158 1.446 . S
C160 C161 1.332 . S
C161 H141 0.931 . S
C161 C160 1.332 . S
C161 C162 1.267 . S
C162 H130 0.929 . S
C162 C161 1.267 . S
C162 C163 1.251 . S
C163 H133 0.929 . S
C163 N159 1.418 . S
C163 C162 1.251 . S
C164 H131 0.930 . S
C164 C166 1.406 . S
C164 C169 1.261 . S
C165 H132 0.930 . S
C165 N167 1.325 . S
C165 C168 1.357 . S
C166 H134 0.928 . S
C166 C164 1.406 . S
C166 N167 1.261 . S
N167 Co118 2.214 . S
N167 C165 1.325 . S
N167 C166 1.261 . S
C168 H138 0.931 . S
C168 C165 1.357 . S
C168 C169 1.312 . S
C169 H140 0.930 . S
C169 C164 1.261 . S
C169 C168 1.312 . S
C170 O142 1.214 . S
C170 O150 1.234 . S
C171 H143 0.929 . S
C171 C174 1.391 . S
C171 C176 1.391 . S
C172 H144 0.929 . S
C172 C173 1.390 . S
C172 N175 1.391 . S
C173 H145 0.930 . S
C173 C172 1.390 . S
C173 C174 1.392 . S
C174 H146 0.929 . S
C174 C171 1.391 . S
C174 C173 1.392 . S
N175 Co119 2.257 . S
N175 C172 1.391 . S
N175 C176 1.388 . S
C176 H147 0.930 . S
C176 C171 1.391 . S
C176 N175 1.388 . S
Co177 O179 2.143 . S
Co177 O185 2.074 . S
Co177 O188 2.093 . S
Co177 O201 2.097 . S
Co177 N218 2.151 . S
Co177 N226 2.214 . S
Co178 O179 2.160 . S
Co178 O184 2.058 . S
Co178 O194 2.057 . S
Co178 O209 2.037 . S
Co178 N213 2.145 . S
Co178 N234 2.257 . S
O179 Co177 2.143 . S
O179 Co178 2.160 . S
C180 O181 1.278 . S
C180 O188 1.224 . S
O181 C180 1.278 . S
C182 O183 1.245 . S
C182 O194 1.232 . S
O183 C182 1.245 . S
O184 Co178 2.058 . S
O184 C210 1.269 . S
O185 Co177 2.074 . S
O185 C210 1.257 . S
H186 C211 0.930 . S
H187 C217 0.930 . S
O188 Co177 2.093 . S
O188 C180 1.224 . S
H189 C221 0.929 . S
H190 C223 0.930 . S
H191 C224 0.930 . S
H192 C222 0.929 . S
H193 C225 0.928 . S
O194 Co178 2.057 . S
O194 C182 1.232 . S
H195 C214 0.929 1_565 S
H196 C215 0.929 . S
H197 C227 0.931 . S
H198 C219 0.929 . S
H199 C228 0.930 . S
H200 C220 0.931 . S
O201 Co177 2.097 . S
O201 C229 1.214 . S
H202 C230 0.929 . S
H203 C231 0.929 . S
H204 C232 0.930 . S
H205 C233 0.929 . S
H206 C235 0.930 . S
H207 C212 0.930 . S
H208 C216 0.930 . S
O209 Co178 2.037 . S
O209 C229 1.234 . S
C210 O184 1.269 . S
C210 O185 1.257 . S
C211 H186 0.930 . S
C211 C214 1.388 . S
C211 C216 1.418 . S
C212 H207 0.930 . S
C212 C215 1.404 . S
C212 C216 1.353 . S
N213 Co178 2.145 . S
N213 C214 1.397 1_565 S
N213 C215 1.334 1_565 S
C214 H195 0.929 1_545 S
C214 C211 1.388 . S
C214 N213 1.397 1_545 S
C215 H196 0.929 . S
C215 C212 1.404 . S
C215 N213 1.334 1_545 S
C216 H208 0.930 . S
C216 C211 1.418 . S
C216 C212 1.353 . S
C217 H187 0.930 . S
C217 N218 1.330 . S
C217 C219 1.446 . S
N218 Co177 2.151 . S
N218 C217 1.330 . S
N218 C222 1.418 . S
C219 H198 0.929 . S
C219 C217 1.446 . S
C219 C220 1.332 . S
C220 H200 0.931 . S
C220 C219 1.332 . S
C220 C221 1.267 . S
C221 H189 0.929 . S
C221 C220 1.267 . S
C221 C222 1.251 . S
C222 H192 0.929 . S
C222 N218 1.418 . S
C222 C221 1.251 . S
C223 H190 0.930 . S
C223 C225 1.406 . S
C223 C228 1.261 . S
C224 H191 0.930 . S
C224 N226 1.325 . S
C224 C227 1.357 . S
C225 H193 0.928 . S
C225 C223 1.406 . S
C225 N226 1.261 . S
N226 Co177 2.214 . S
N226 C224 1.325 . S
N226 C225 1.261 . S
C227 H197 0.931 . S
C227 C224 1.357 . S
C227 C228 1.312 . S
C228 H199 0.930 . S
C228 C223 1.261 . S
C228 C227 1.312 . S
C229 O201 1.214 . S
C229 O209 1.234 . S
C230 H202 0.929 . S
C230 C233 1.391 . S
C230 C235 1.391 1_545 S
C231 H203 0.929 . S
C231 C232 1.390 . S
C231 N234 1.391 1_545 S
C232 H204 0.930 . S
C232 C231 1.390 . S
C232 C233 1.392 . S
C233 H205 0.929 . S
C233 C230 1.391 . S
C233 C232 1.392 . S
N234 Co178 2.257 . S
N234 C231 1.391 1_565 S
N234 C235 1.388 . S
C235 H206 0.930 . S
C235 C230 1.391 1_565 S
C235 N234 1.388 . S
Co236 O238 2.143 . S
Co236 O244 2.074 . S
Co236 O247 2.093 . S
Co236 O260 2.097 . S
Co236 N277 2.151 . S
Co236 N285 2.214 . S
Co237 O238 2.160 . S
Co237 O243 2.058 . S
Co237 O253 2.057 . S
Co237 O268 2.037 . S
Co237 N272 2.145 . S
Co237 N293 2.257 . S
O238 Co236 2.143 . S
O238 Co237 2.160 . S
C239 O240 1.278 . S
C239 O247 1.224 . S
O240 C239 1.278 . S
C241 O242 1.245 . S
C241 O253 1.232 . S
O242 C241 1.245 . S
O243 Co237 2.058 . S
O243 C269 1.269 . S
O244 Co236 2.074 . S
O244 C269 1.257 . S
H245 C270 0.930 . S
H246 C276 0.930 . S
O247 Co236 2.093 . S
O247 C239 1.224 . S
H248 C280 0.929 . S
H249 C282 0.930 . S
H250 C283 0.930 . S
H251 C281 0.929 . S
H252 C284 0.928 . S
O253 Co237 2.057 . S
O253 C241 1.232 . S
H254 C273 0.929 . S
H255 C274 0.929 . S
H256 C286 0.931 . S
H257 C278 0.929 . S
H258 C287 0.930 . S
H259 C279 0.931 . S
O260 Co236 2.097 . S
O260 C288 1.214 . S
H261 C289 0.929 . S
H262 C290 0.929 . S
H263 C291 0.930 . S
H264 C292 0.929 . S
H265 C294 0.930 . S
H266 C271 0.930 . S
H267 C275 0.930 . S
O268 Co237 2.037 . S
O268 C288 1.234 . S
C269 O243 1.269 . S
C269 O244 1.257 . S
C270 H245 0.930 . S
C270 C273 1.388 . S
C270 C275 1.418 . S
C271 H266 0.930 . S
C271 C274 1.404 . S
C271 C275 1.353 . S
N272 Co237 2.145 . S
N272 C273 1.397 . S
N272 C274 1.334 . S
C273 H254 0.929 . S
C273 C270 1.388 . S
C273 N272 1.397 . S
C274 H255 0.929 . S
C274 C271 1.404 . S
C274 N272 1.334 . S
C275 H267 0.930 . S
C275 C270 1.418 . S
C275 C271 1.353 . S
C276 H246 0.930 . S
C276 N277 1.330 . S
C276 C278 1.446 . S
N277 Co236 2.151 . S
N277 C276 1.330 . S
N277 C281 1.418 . S
C278 H257 0.929 . S
C278 C276 1.446 . S
C278 C279 1.332 . S
C279 H259 0.931 . S
C279 C278 1.332 . S
C279 C280 1.267 . S
C280 H248 0.929 . S
C280 C279 1.267 . S
C280 C281 1.251 . S
C281 H251 0.929 . S
C281 N277 1.418 . S
C281 C280 1.251 . S
C282 H249 0.930 . S
C282 C284 1.406 . S
C282 C287 1.261 . S
C283 H250 0.930 . S
C283 N285 1.325 . S
C283 C286 1.357 . S
C284 H252 0.928 . S
C284 C282 1.406 . S
C284 N285 1.261 . S
N285 Co236 2.214 . S
N285 C283 1.325 . S
N285 C284 1.261 . S
C286 H256 0.931 . S
C286 C283 1.357 . S
C286 C287 1.312 . S
C287 H258 0.930 . S
C287 C282 1.261 . S
C287 C286 1.312 . S
C288 O260 1.214 . S
C288 O268 1.234 . S
C289 H261 0.929 . S
C289 C292 1.391 . S
C289 C294 1.391 . S
C290 H262 0.929 . S
C290 C291 1.390 . S
C290 N293 1.391 . S
C291 H263 0.930 . S
C291 C290 1.390 . S
C291 C292 1.392 . S
C292 H264 0.929 . S
C292 C289 1.391 . S
C292 C291 1.392 . S
N293 Co237 2.257 . S
N293 C290 1.391 . S
N293 C294 1.388 . S
C294 H265 0.930 . S
C294 C289 1.391 . S
C294 N293 1.388 . S
Co295 O297 2.143 . S
Co295 O303 2.074 . S
Co295 O306 2.093 . S
Co295 O319 2.097 . S
Co295 N336 2.151 . S
Co295 N344 2.214 . S
Co296 O297 2.160 . S
Co296 O302 2.058 . S
Co296 O312 2.057 . S
Co296 O327 2.037 . S
Co296 N331 2.145 . S
Co296 N352 2.257 . S
O297 Co295 2.143 . S
O297 Co296 2.160 . S
C298 O299 1.278 . S
C298 O306 1.224 . S
O299 C298 1.278 . S
C300 O301 1.245 . S
C300 O312 1.232 . S
O301 C300 1.245 . S
O302 Co296 2.058 . S
O302 C328 1.269 . S
O303 Co295 2.074 . S
O303 C328 1.257 . S
H304 C329 0.930 . S
H305 C335 0.930 . S
O306 Co295 2.093 . S
O306 C298 1.224 . S
H307 C339 0.929 . S
H308 C341 0.930 . S
H309 C342 0.930 . S
H310 C340 0.929 . S
H311 C343 0.928 . S
O312 Co296 2.057 . S
O312 C300 1.232 . S
H313 C332 0.929 1_545 S
H314 C333 0.929 . S
H315 C345 0.931 . S
H316 C337 0.929 . S
H317 C346 0.930 . S
H318 C338 0.931 . S
O319 Co295 2.097 . S
O319 C347 1.214 . S
H320 C348 0.929 . S
H321 C349 0.929 . S
H322 C350 0.930 . S
H323 C351 0.929 . S
H324 C353 0.930 . S
H325 C330 0.930 . S
H326 C334 0.930 . S
O327 Co296 2.037 . S
O327 C347 1.234 . S
C328 O302 1.269 . S
C328 O303 1.257 . S
C329 H304 0.930 . S
C329 C332 1.388 . S
C329 C334 1.418 . S
C330 H325 0.930 . S
C330 C333 1.404 . S
C330 C334 1.353 . S
N331 Co296 2.145 . S
N331 C332 1.397 1_545 S
N331 C333 1.334 1_545 S
C332 H313 0.929 1_565 S
C332 C329 1.388 . S
C332 N331 1.397 1_565 S
C333 H314 0.929 . S
C333 C330 1.404 . S
C333 N331 1.334 1_565 S
C334 H326 0.930 . S
C334 C329 1.418 . S
C334 C330 1.353 . S
C335 H305 0.930 . S
C335 N336 1.330 . S
C335 C337 1.446 . S
N336 Co295 2.151 . S
N336 C335 1.330 . S
N336 C340 1.418 . S
C337 H316 0.929 . S
C337 C335 1.446 . S
C337 C338 1.332 . S
C338 H318 0.931 . S
C338 C337 1.332 . S
C338 C339 1.267 . S
C339 H307 0.929 . S
C339 C338 1.267 . S
C339 C340 1.251 . S
C340 H310 0.929 . S
C340 N336 1.418 . S
C340 C339 1.251 . S
C341 H308 0.930 . S
C341 C343 1.406 . S
C341 C346 1.261 . S
C342 H309 0.930 . S
C342 N344 1.325 . S
C342 C345 1.357 . S
C343 H311 0.928 . S
C343 C341 1.406 . S
C343 N344 1.261 . S
N344 Co295 2.214 . S
N344 C342 1.325 . S
N344 C343 1.261 . S
C345 H315 0.931 . S
C345 C342 1.357 . S
C345 C346 1.312 . S
C346 H317 0.930 . S
C346 C341 1.261 . S
C346 C345 1.312 . S
C347 O319 1.214 . S
C347 O327 1.234 . S
C348 H320 0.929 . S
C348 C351 1.391 . S
C348 C353 1.391 1_565 S
C349 H321 0.929 . S
C349 C350 1.390 . S
C349 N352 1.391 1_565 S
C350 H322 0.930 . S
C350 C349 1.390 . S
C350 C351 1.392 . S
C351 H323 0.929 . S
C351 C348 1.391 . S
C351 C350 1.392 . S
N352 Co296 2.257 . S
N352 C349 1.391 1_545 S
N352 C353 1.388 . S
C353 H324 0.930 . S
C353 C348 1.391 1_545 S
C353 N352 1.388 . S
Co354 O356 2.143 . S
Co354 O362 2.074 . S
Co354 O365 2.093 . S
Co354 O378 2.097 . S
Co354 N395 2.151 . S
Co354 N403 2.214 . S
Co355 O356 2.160 . S
Co355 O361 2.058 . S
Co355 O371 2.057 . S
Co355 O386 2.037 . S
Co355 N390 2.145 . S
Co355 N411 2.257 . S
O356 Co354 2.143 . S
O356 Co355 2.160 . S
C357 O358 1.278 . S
C357 O365 1.224 . S
O358 C357 1.278 . S
C359 O360 1.245 . S
C359 O371 1.232 . S
O360 C359 1.245 . S
O361 Co355 2.058 . S
O361 C387 1.269 . S
O362 Co354 2.074 . S
O362 C387 1.257 . S
H363 C388 0.930 . S
H364 C394 0.930 . S
O365 Co354 2.093 . S
O365 C357 1.224 . S
H366 C398 0.929 . S
H367 C400 0.930 . S
H368 C401 0.930 . S
H369 C399 0.929 . S
H370 C402 0.928 . S
O371 Co355 2.057 . S
O371 C359 1.232 . S
H372 C391 0.929 1_655 S
H373 C392 0.929 . S
H374 C404 0.931 . S
H375 C396 0.929 . S
H376 C405 0.930 . S
H377 C397 0.931 . S
O378 Co354 2.097 . S
O378 C406 1.214 . S
H379 C407 0.929 . S
H380 C408 0.929 . S
H381 C409 0.930 . S
H382 C410 0.929 . S
H383 C412 0.930 . S
H384 C389 0.930 . S
H385 C393 0.930 . S
O386 Co355 2.037 . S
O386 C406 1.234 . S
C387 O361 1.269 . S
C387 O362 1.257 . S
C388 H363 0.930 . S
C388 C391 1.388 . S
C388 C393 1.418 . S
C389 H384 0.930 . S
C389 C392 1.404 . S
C389 C393 1.353 . S
N390 Co355 2.145 . S
N390 C391 1.397 1_655 S
N390 C392 1.334 1_655 S
C391 H372 0.929 1_455 S
C391 C388 1.388 . S
C391 N390 1.397 1_455 S
C392 H373 0.929 . S
C392 C389 1.404 . S
C392 N390 1.334 1_455 S
C393 H385 0.930 . S
C393 C388 1.418 . S
C393 C389 1.353 . S
C394 H364 0.930 . S
C394 N395 1.330 . S
C394 C396 1.446 . S
N395 Co354 2.151 . S
N395 C394 1.330 . S
N395 C399 1.418 . S
C396 H375 0.929 . S
C396 C394 1.446 . S
C396 C397 1.332 . S
C397 H377 0.931 . S
C397 C396 1.332 . S
C397 C398 1.267 . S
C398 H366 0.929 . S
C398 C397 1.267 . S
C398 C399 1.251 . S
C399 H369 0.929 . S
C399 N395 1.418 . S
C399 C398 1.251 . S
C400 H367 0.930 . S
C400 C402 1.406 . S
C400 C405 1.261 . S
C401 H368 0.930 . S
C401 N403 1.325 . S
C401 C404 1.357 . S
C402 H370 0.928 . S
C402 C400 1.406 . S
C402 N403 1.261 . S
N403 Co354 2.214 . S
N403 C401 1.325 . S
N403 C402 1.261 . S
C404 H374 0.931 . S
C404 C401 1.357 . S
C404 C405 1.312 . S
C405 H376 0.930 . S
C405 C400 1.261 . S
C405 C404 1.312 . S
C406 O378 1.214 . S
C406 O386 1.234 . S
C407 H379 0.929 . S
C407 C410 1.391 . S
C407 C412 1.391 1_455 S
C408 H380 0.929 . S
C408 C409 1.390 . S
C408 N411 1.391 1_455 S
C409 H381 0.930 . S
C409 C408 1.390 . S
C409 C410 1.392 . S
C410 H382 0.929 . S
C410 C407 1.391 . S
C410 C409 1.392 . S
N411 Co355 2.257 . S
N411 C408 1.391 1_655 S
N411 C412 1.388 . S
C412 H383 0.930 . S
C412 C407 1.391 1_655 S
C412 N411 1.388 . S
Co413 O415 2.143 . S
Co413 O421 2.074 . S
Co413 O424 2.093 . S
Co413 O437 2.097 . S
Co413 N454 2.151 . S
Co413 N462 2.214 . S
Co414 O415 2.160 . S
Co414 O420 2.058 . S
Co414 O430 2.057 . S
Co414 O445 2.037 . S
Co414 N449 2.145 . S
Co414 N470 2.257 . S
O415 Co413 2.143 . S
O415 Co414 2.160 . S
C416 O417 1.278 . S
C416 O424 1.224 . S
O417 C416 1.278 . S
C418 O419 1.245 . S
C418 O430 1.232 . S
O419 C418 1.245 . S
O420 Co414 2.058 . S
O420 C446 1.269 . S
O421 Co413 2.074 . S
O421 C446 1.257 . S
H422 C447 0.930 . S
H423 C453 0.930 . S
O424 Co413 2.093 . S
O424 C416 1.224 . S
H425 C457 0.929 . S
H426 C459 0.930 . S
H427 C460 0.930 . S
H428 C458 0.929 . S
H429 C461 0.928 . S
O430 Co414 2.057 . S
O430 C418 1.232 . S
H431 C450 0.929 . S
H432 C451 0.929 . S
H433 C463 0.931 . S
H434 C455 0.929 . S
H435 C464 0.930 . S
H436 C456 0.931 . S
O437 Co413 2.097 . S
O437 C465 1.214 . S
H438 C466 0.929 . S
H439 C467 0.929 . S
H440 C468 0.930 . S
H441 C469 0.929 . S
H442 C471 0.930 . S
H443 C448 0.930 . S
H444 C452 0.930 . S
O445 Co414 2.037 . S
O445 C465 1.234 . S
C446 O420 1.269 . S
C446 O421 1.257 . S
C447 H422 0.930 . S
C447 C450 1.388 . S
C447 C452 1.418 . S
C448 H443 0.930 . S
C448 C451 1.404 . S
C448 C452 1.353 . S
N449 Co414 2.145 . S
N449 C450 1.397 . S
N449 C451 1.334 . S
C450 H431 0.929 . S
C450 C447 1.388 . S
C450 N449 1.397 . S
C451 H432 0.929 . S
C451 C448 1.404 . S
C451 N449 1.334 . S
C452 H444 0.930 . S
C452 C447 1.418 . S
C452 C448 1.353 . S
C453 H423 0.930 . S
C453 N454 1.330 . S
C453 C455 1.446 . S
N454 Co413 2.151 . S
N454 C453 1.330 . S
N454 C458 1.418 . S
C455 H434 0.929 . S
C455 C453 1.446 . S
C455 C456 1.332 . S
C456 H436 0.931 . S
C456 C455 1.332 . S
C456 C457 1.267 . S
C457 H425 0.929 . S
C457 C456 1.267 . S
C457 C458 1.251 . S
C458 H428 0.929 . S
C458 N454 1.418 . S
C458 C457 1.251 . S
C459 H426 0.930 . S
C459 C461 1.406 . S
C459 C464 1.261 . S
C460 H427 0.930 . S
C460 N462 1.325 . S
C460 C463 1.357 . S
C461 H429 0.928 . S
C461 C459 1.406 . S
C461 N462 1.261 . S
N462 Co413 2.214 . S
N462 C460 1.325 . S
N462 C461 1.261 . S
C463 H433 0.931 . S
C463 C460 1.357 . S
C463 C464 1.312 . S
C464 H435 0.930 . S
C464 C459 1.261 . S
C464 C463 1.312 . S
C465 O437 1.214 . S
C465 O445 1.234 . S
C466 H438 0.929 . S
C466 C469 1.391 . S
C466 C471 1.391 . S
C467 H439 0.929 . S
C467 C468 1.390 . S
C467 N470 1.391 . S
C468 H440 0.930 . S
C468 C467 1.390 . S
C468 C469 1.392 . S
C469 H441 0.929 . S
C469 C466 1.391 . S
C469 C468 1.392 . S
N470 Co414 2.257 . S
N470 C467 1.391 . S
N470 C471 1.388 . S
C471 H442 0.930 . S
C471 C466 1.391 . S
C471 N470 1.388 . S
H472 C478 0.930 . S
H473 C481 0.930 . S
H474 C482 0.911 1_556 S
H475 C483 0.930 . S
H476 C486 0.930 . S
H477 C487 0.911 1_554 S
C478 H472 0.930 . S
C478 C479 1.355 . S
C478 C480 1.415 . S
C479 C478 1.355 . S
C479 C481 1.419 . S
C480 C478 1.415 . S
C480 C485 1.425 1_554 S
C480 C487 1.399 1_554 S
C481 H473 0.930 . S
C481 C479 1.419 . S
C481 C482 1.392 . S
C482 H474 0.911 1_554 S
C482 C481 1.392 . S
C482 C485 1.399 1_554 S
C483 H475 0.930 . S
C483 C484 1.355 . S
C483 C485 1.415 . S
C484 C483 1.355 . S
C484 C486 1.419 . S
C485 C480 1.425 1_556 S
C485 C482 1.399 1_556 S
C485 C483 1.415 . S
C486 H476 0.930 . S
C486 C484 1.419 . S
C486 C487 1.392 . S
C487 H477 0.911 1_556 S
C487 C480 1.399 1_556 S
C487 C486 1.392 . S
H488 C494 0.930 . S
H489 C497 0.930 . S
H490 C498 0.930 . S
H491 C499 0.930 . S
H492 C502 0.930 . S
H493 C503 0.930 . S
C494 H488 0.930 . S
C494 C495 1.355 . S
C494 C496 1.415 . S
C495 C494 1.355 . S
C495 C497 1.419 . S
C496 C494 1.415 . S
C496 C501 1.425 . S
C496 C503 1.409 . S
C497 H489 0.930 . S
C497 C495 1.419 . S
C497 C498 1.362 . S
C498 H490 0.930 . S
C498 C497 1.362 . S
C498 C501 1.409 . S
C499 H491 0.930 . S
C499 C500 1.355 . S
C499 C501 1.415 . S
C500 C499 1.355 . S
C500 C502 1.419 . S
C501 C496 1.425 . S
C501 C498 1.409 . S
C501 C499 1.415 . S
C502 H492 0.930 . S
C502 C500 1.419 . S
C502 C503 1.362 . S
C503 H493 0.930 . S
C503 C496 1.409 . S
C503 C502 1.362 . S
H504 C510 0.930 . S
H505 C513 0.930 . S
H506 C514 0.930 . S
H507 C515 0.930 . S
H508 C518 0.930 . S
H509 C519 0.930 . S
C510 H504 0.930 . S
C510 C511 1.355 . S
C510 C512 1.415 . S
C511 C510 1.355 . S
C511 C513 1.419 . S
C512 C510 1.415 . S
C512 C517 1.425 . S
C512 C519 1.409 . S
C513 H505 0.930 . S
C513 C511 1.419 . S
C513 C514 1.362 . S
C514 H506 0.930 . S
C514 C513 1.362 . S
C514 C517 1.409 . S
C515 H507 0.930 . S
C515 C516 1.355 . S
C515 C517 1.415 . S
C516 C515 1.355 . S
C516 C518 1.419 . S
C517 C512 1.425 . S
C517 C514 1.409 . S
C517 C515 1.415 . S
C518 H508 0.930 . S
C518 C516 1.419 . S
C518 C519 1.362 . S
C519 H509 0.930 . S
C519 C512 1.409 . S
C519 C518 1.362 . S
H520 C526 0.930 . S
H521 C529 0.930 . S
H522 C530 0.930 . S
H523 C531 0.930 . S
H524 C534 0.930 . S
H525 C535 0.930 . S
C526 H520 0.930 . S
C526 C527 1.355 . S
C526 C528 1.415 . S
C527 C526 1.355 . S
C527 C529 1.419 . S
C528 C526 1.415 . S
C528 C533 1.425 . S
C528 C535 1.409 . S
C529 H521 0.930 . S
C529 C527 1.419 . S
C529 C530 1.362 . S
C530 H522 0.930 . S
C530 C529 1.362 . S
C530 C533 1.409 . S
C531 H523 0.930 . S
C531 C532 1.355 . S
C531 C533 1.415 . S
C532 C531 1.355 . S
C532 C534 1.419 . S
C533 C528 1.425 . S
C533 C530 1.409 . S
C533 C531 1.415 . S
C534 H524 0.930 . S
C534 C532 1.419 . S
C534 C535 1.362 . S
C535 H525 0.930 . S
C535 C528 1.409 . S
C535 C534 1.362 . S
H536 C542 0.930 . S
H537 C545 0.930 . S
H538 C546 0.930 . S
H539 C547 0.930 . S
H540 C550 0.930 . S
H541 C551 0.930 . S
C542 H536 0.930 . S
C542 C543 1.355 . S
C542 C544 1.415 . S
C543 C542 1.355 . S
C543 C545 1.419 . S
C544 C542 1.415 . S
C544 C549 1.425 . S
C544 C551 1.409 . S
C545 H537 0.930 . S
C545 C543 1.419 . S
C545 C546 1.362 . S
C546 H538 0.930 . S
C546 C545 1.362 . S
C546 C549 1.409 . S
C547 H539 0.930 . S
C547 C548 1.355 . S
C547 C549 1.415 . S
C548 C547 1.355 . S
C548 C550 1.419 . S
C549 C544 1.425 . S
C549 C546 1.409 . S
C549 C547 1.415 . S
C550 H540 0.930 . S
C550 C548 1.419 . S
C550 C551 1.362 . S
C551 H541 0.930 . S
C551 C544 1.409 . S
C551 C550 1.362 . S
H552 C558 0.930 . S
H553 C561 0.930 . S
H554 C562 0.930 . S
H555 C563 0.930 . S
H556 C566 0.930 . S
H557 C567 0.930 . S
C558 H552 0.930 . S
C558 C559 1.355 . S
C558 C560 1.415 . S
C559 C558 1.355 . S
C559 C561 1.419 . S
C560 C558 1.415 . S
C560 C565 1.425 . S
C560 C567 1.409 . S
C561 H553 0.930 . S
C561 C559 1.419 . S
C561 C562 1.362 . S
C562 H554 0.930 . S
C562 C561 1.362 . S
C562 C565 1.409 . S
C563 H555 0.930 . S
C563 C564 1.355 . S
C563 C565 1.415 . S
C564 C563 1.355 . S
C564 C566 1.419 . S
C565 C560 1.425 . S
C565 C562 1.409 . S
C565 C563 1.415 . S
C566 H556 0.930 . S
C566 C564 1.419 . S
C566 C567 1.362 . S
C567 H557 0.930 . S
C567 C560 1.409 . S
C567 C566 1.362 . S
H568 C574 0.930 . S
H569 C577 0.930 . S
H570 C578 0.930 . S
H571 C579 0.930 . S
H572 C582 0.930 . S
H573 C583 0.930 . S
C574 H568 0.930 . S
C574 C575 1.355 . S
C574 C576 1.415 . S
C575 C574 1.355 . S
C575 C577 1.419 . S
C576 C574 1.415 . S
C576 C581 1.425 . S
C576 C583 1.409 . S
C577 H569 0.930 . S
C577 C575 1.419 . S
C577 C578 1.362 . S
C578 H570 0.930 . S
C578 C577 1.362 . S
C578 C581 1.409 . S
C579 H571 0.930 . S
C579 C580 1.355 . S
C579 C581 1.415 . S
C580 C579 1.355 . S
C580 C582 1.419 . S
C581 C576 1.425 . S
C581 C578 1.409 . S
C581 C579 1.415 . S
C582 H572 0.930 . S
C582 C580 1.419 . S
C582 C583 1.362 . S
C583 H573 0.930 . S
C583 C576 1.409 . S
C583 C582 1.362 . S
H584 C590 0.930 . S
H585 C593 0.930 . S
H586 C594 0.930 1_556 S
H587 C595 0.930 . S
H588 C598 0.930 . S
H589 C599 0.930 1_554 S
C590 H584 0.930 . S
C590 C591 1.355 . S
C590 C592 1.415 . S
C591 C590 1.355 . S
C591 C593 1.419 . S
C592 C590 1.415 . S
C592 C597 1.425 1_554 S
C592 C599 1.409 1_554 S
C593 H585 0.930 . S
C593 C591 1.419 . S
C593 C594 1.362 . S
C594 H586 0.930 1_554 S
C594 C593 1.362 . S
C594 C597 1.409 1_554 S
C595 H587 0.930 . S
C595 C596 1.355 . S
C595 C597 1.415 . S
C596 C595 1.355 . S
C596 C598 1.419 . S
C597 C592 1.425 1_556 S
C597 C594 1.409 1_556 S
C597 C595 1.415 . S
C598 H588 0.930 . S
C598 C596 1.419 . S
C598 C599 1.362 . S
C599 H589 0.930 1_556 S
C599 C592 1.409 1_556 S
C599 C598 1.362 . S
H600 C606 0.930 . S
H601 C609 0.931 . S
H602 C610 0.930 . S
H603 C611 0.930 . S
H604 C614 0.931 . S
H605 C615 0.930 . S
C606 H600 0.930 . S
C606 C607 1.355 . S
C606 C608 1.415 1_545 S
C607 C606 1.355 . S
C607 C609 1.419 . S
C608 C606 1.415 1_565 S
C608 C613 1.425 1_465 S
C608 C615 1.409 . S
C609 H601 0.931 . S
C609 C607 1.419 . S
C609 C610 1.362 1_455 S
C610 H602 0.930 . S
C610 C609 1.362 1_655 S
C610 C613 1.409 . S
C611 H603 0.930 . S
C611 C612 1.355 . S
C611 C613 1.415 1_565 S
C612 C611 1.355 . S
C612 C614 1.419 . S
C613 C608 1.425 1_645 S
C613 C610 1.409 . S
C613 C611 1.415 1_545 S
C614 H604 0.931 . S
C614 C612 1.419 . S
C614 C615 1.362 1_655 S
C615 H605 0.930 . S
C615 C608 1.409 . S
C615 C614 1.362 1_455 S
H616 C622 0.930 . S
H617 C625 0.930 . S
H618 C626 0.930 . S
H619 C627 0.930 . S
H620 C630 0.930 . S
H621 C631 0.930 . S
C622 H616 0.930 . S
C622 C623 1.355 . S
C622 C624 1.415 1_455 S
C623 C622 1.355 . S
C623 C625 1.419 . S
C624 C622 1.415 1_655 S
C624 C629 1.425 1_655 S
C624 C631 1.409 . S
C625 H617 0.930 . S
C625 C623 1.419 . S
C625 C626 1.362 . S
C626 H618 0.930 . S
C626 C625 1.362 . S
C626 C629 1.409 . S
C627 H619 0.930 . S
C627 C628 1.355 . S
C627 C629 1.415 1_655 S
C628 C627 1.355 . S
C628 C630 1.419 . S
C629 C624 1.425 1_455 S
C629 C626 1.409 . S
C629 C627 1.415 1_455 S
C630 H620 0.930 . S
C630 C628 1.419 . S
C630 C631 1.362 . S
C631 H621 0.930 . S
C631 C624 1.409 . S
C631 C630 1.362 . S
H632 C638 0.930 . S
H633 C641 0.930 . S
H634 C642 0.930 . S
H635 C643 0.930 . S
H636 C646 0.930 . S
H637 C647 0.930 . S
C638 H632 0.930 . S
C638 C639 1.355 . S
C638 C640 1.415 . S
C639 C638 1.355 . S
C639 C641 1.419 . S
C640 C638 1.415 . S
C640 C645 1.425 . S
C640 C647 1.409 . S
C641 H633 0.930 . S
C641 C639 1.419 . S
C641 C642 1.362 . S
C642 H634 0.930 . S
C642 C641 1.362 . S
C642 C645 1.409 . S
C643 H635 0.930 . S
C643 C644 1.355 . S
C643 C645 1.415 . S
C644 C643 1.355 . S
C644 C646 1.419 . S
C645 C640 1.425 . S
C645 C642 1.409 . S
C645 C643 1.415 . S
C646 H636 0.930 . S
C646 C644 1.419 . S
C646 C647 1.362 . S
C647 H637 0.930 . S
C647 C640 1.409 . S
C647 C646 1.362 . S
H648 C654 0.930 . S
H649 C657 0.930 . S
H650 C658 0.930 . S
H651 C659 0.930 . S
H652 C662 0.930 . S
H653 C663 0.930 . S
C654 H648 0.930 . S
C654 C655 1.355 . S
C654 C656 1.415 . S
C655 C654 1.355 . S
C655 C657 1.419 . S
C656 C654 1.415 . S
C656 C661 1.425 1_565 S
C656 C663 1.409 . S
C657 H649 0.930 . S
C657 C655 1.419 . S
C657 C658 1.362 1_565 S
C658 H650 0.930 . S
C658 C657 1.362 1_545 S
C658 C661 1.409 . S
C659 H651 0.930 . S
C659 C660 1.355 . S
C659 C661 1.415 . S
C660 C659 1.355 . S
C660 C662 1.419 . S
C661 C656 1.425 1_545 S
C661 C658 1.409 . S
C661 C659 1.415 . S
C662 H652 0.930 . S
C662 C660 1.419 . S
C662 C663 1.362 1_545 S
C663 H653 0.930 . S
C663 C656 1.409 . S
C663 C662 1.362 1_565 S
H664 C670 0.930 . S
H665 C673 0.930 . S
H666 C674 0.930 . S
H667 C675 0.930 . S
H668 C678 0.930 . S
H669 C679 0.930 . S
C670 H664 0.930 . S
C670 C671 1.355 . S
C670 C672 1.415 1_655 S
C671 C670 1.355 . S
C671 C673 1.419 . S
C672 C670 1.415 1_455 S
C672 C677 1.425 1_455 S
C672 C679 1.409 . S
C673 H665 0.930 . S
C673 C671 1.419 . S
C673 C674 1.362 . S
C674 H666 0.930 . S
C674 C673 1.362 . S
C674 C677 1.409 . S
C675 H667 0.930 . S
C675 C676 1.355 . S
C675 C677 1.415 1_455 S
C676 C675 1.355 . S
C676 C678 1.419 . S
C677 C672 1.425 1_655 S
C677 C674 1.409 . S
C677 C675 1.415 1_655 S
C678 H668 0.930 . S
C678 C676 1.419 . S
C678 C679 1.362 . S
C679 H669 0.930 . S
C679 C672 1.409 . S
C679 C678 1.362 . S
H680 C686 0.930 . S
H681 C689 0.930 . S
H682 C690 0.930 . S
H683 C691 0.930 . S
H684 C694 0.930 . S
H685 C695 0.930 . S
C686 H680 0.930 . S
C686 C687 1.355 . S
C686 C688 1.415 . S
C687 C686 1.355 . S
C687 C689 1.419 . S
C688 C686 1.415 . S
C688 C693 1.425 . S
C688 C695 1.409 . S
C689 H681 0.930 . S
C689 C687 1.419 . S
C689 C690 1.362 . S
C690 H682 0.930 . S
C690 C689 1.362 . S
C690 C693 1.409 . S
C691 H683 0.930 . S
C691 C692 1.355 . S
C691 C693 1.415 . S
C692 C691 1.355 . S
C692 C694 1.419 . S
C693 C688 1.425 . S
C693 C690 1.409 . S
C693 C691 1.415 . S
C694 H684 0.930 . S
C694 C692 1.419 . S
C694 C695 1.362 . S
C695 H685 0.930 . S
C695 C688 1.409 . S
C695 C694 1.362 . S
H696 C702 0.930 . S
H697 C705 0.930 . S
H698 C706 0.930 . S
H699 C707 0.930 . S
H700 C710 0.930 . S
H701 C711 0.930 . S
C702 H696 0.930 . S
C702 C703 1.355 . S
C702 C704 1.415 1_545 S
C703 C702 1.355 . S
C703 C705 1.419 . S
C704 C702 1.415 1_565 S
C704 C709 1.425 1_565 S
C704 C711 1.409 . S
C705 H697 0.930 . S
C705 C703 1.419 . S
C705 C706 1.362 . S
C706 H698 0.930 . S
C706 C705 1.362 . S
C706 C709 1.409 . S
C707 H699 0.930 . S
C707 C708 1.355 . S
C707 C709 1.415 1_565 S
C708 C707 1.355 . S
C708 C710 1.419 . S
C709 C704 1.425 1_545 S
C709 C706 1.409 . S
C709 C707 1.415 1_545 S
C710 H700 0.930 . S
C710 C708 1.419 . S
C710 C711 1.362 . S
C711 H701 0.930 . S
C711 C704 1.409 . S
C711 C710 1.362 . S
H712 C718 0.930 . S
H713 C721 0.933 . S
H714 C722 0.930 . S
H715 C723 0.930 . S
H716 C726 0.933 . S
H717 C727 0.930 . S
C718 H712 0.930 . S
C718 C719 1.355 . S
C718 C720 1.415 1_655 S
C719 C718 1.355 . S
C719 C721 1.419 . S
C720 C718 1.415 1_455 S
C720 C725 1.425 1_465 S
C720 C727 1.409 . S
C721 H713 0.933 . S
C721 C719 1.419 . S
C721 C722 1.362 1_565 S
C722 H714 0.930 . S
C722 C721 1.362 1_545 S
C722 C725 1.409 . S
C723 H715 0.930 . S
C723 C724 1.355 . S
C723 C725 1.415 1_455 S
C724 C723 1.355 . S
C724 C726 1.419 . S
C725 C720 1.425 1_645 S
C725 C722 1.409 . S
C725 C723 1.415 1_655 S
C726 H716 0.933 . S
C726 C724 1.419 . S
C726 C727 1.362 1_545 S
C727 H717 0.930 . S
C727 C720 1.409 . S
C727 C726 1.362 1_565 S
C479 C33 1.312 . S
C484 C328 1.306 . S
C495 C62 1.402 . S
C500 C357 1.402 . S
C511 C151 1.296 . S
C516 C446 1.327 . S
C527 C180 1.437 . S
C532 C239 1.438 . S
C543 C416 1.417 . S
C548 C3 1.414 . S
C559 C269 1.320 . S
C564 C92 1.307 . S
C575 C121 1.412 . S
C580 C298 1.410 . S
C591 C387 1.305 . S
C596 C210 1.314 . S
C607 C52 1.621 . S
C612 C406 1.618 . S
C623 C418 1.613 . S
C628 C64 1.613 . S
C639 C170 1.633 . S
C644 C288 1.640 . S
C655 C182 1.615 . S
C660 C300 1.612 . S
C671 C359 1.639 . S
C676 C5 1.628 . S
C687 C465 1.621 . S
C692 C111 1.626 . S
C703 C123 1.613 . S
C708 C241 1.613 . S
C719 C229 1.620 . S
C724 C347 1.618 . S
