# Generated by pormake.
# Topology crs, (6)-cn, num edge types: 1
# Building blocks:
#     Node 0, Type 0, BuildingBlock: MAKGUD_clean_sbu_1, # of connection points: 6
#     Node 1, Type 0, BuildingBlock: MAKGUD_clean_sbu_1, # of connection points: 6
#     Node 2, Type 0, BuildingBlock: MAKGUD_clean_sbu_1, # of connection points: 6
#     Node 3, Type 0, BuildingBlock: MAKGUD_clean_sbu_1, # of connection points: 6
#     Node 4, Type 0, BuildingBlock: MAKGUD_clean_sbu_1, # of connection points: 6
#     Node 5, Type 0, BuildingBlock: MAKGUD_clean_sbu_1, # of connection points: 6
#     Node 6, Type 0, BuildingBlock: MAKGUD_clean_sbu_1, # of connection points: 6
#     Node 7, Type 0, BuildingBlock: MAKGUD_clean_sbu_1, # of connection points: 6
#     Node 8, Type 0, BuildingBlock: MAKGUD_clean_sbu_1, # of connection points: 6
#     Node 9, Type 0, BuildingBlock: MAKGUD_clean_sbu_1, # of connection points: 6
#     Node 10, Type 0, BuildingBlock: MAKGUD_clean_sbu_1, # of connection points: 6
#     Node 11, Type 0, BuildingBlock: MAKGUD_clean_sbu_1, # of connection points: 6
#     Node 12, Type 0, BuildingBlock: MAKGUD_clean_sbu_1, # of connection points: 6
#     Node 13, Type 0, BuildingBlock: MAKGUD_clean_sbu_1, # of connection points: 6
#     Node 14, Type 0, BuildingBlock: MAKGUD_clean_sbu_1, # of connection points: 6
#     Node 15, Type 0, BuildingBlock: MAKGUD_clean_sbu_1, # of connection points: 6
#     Edge 16, Type (0, 0), BuildingBlock: AJUNOK_clean_linker_0, # of connection points: 2
#     Edge 17, Type (0, 0), BuildingBlock: AJUNOK_clean_linker_0, # of connection points: 2
#     Edge 18, Type (0, 0), BuildingBlock: AJUNOK_clean_linker_0, # of connection points: 2
#     Edge 19, Type (0, 0), BuildingBlock: AJUNOK_clean_linker_0, # of connection points: 2
#     Edge 20, Type (0, 0), BuildingBlock: AJUNOK_clean_linker_0, # of connection points: 2
#     Edge 21, Type (0, 0), BuildingBlock: AJUNOK_clean_linker_0, # of connection points: 2
#     Edge 22, Type (0, 0), BuildingBlock: AJUNOK_clean_linker_0, # of connection points: 2
#     Edge 23, Type (0, 0), BuildingBlock: AJUNOK_clean_linker_0, # of connection points: 2
#     Edge 24, Type (0, 0), BuildingBlock: AJUNOK_clean_linker_0, # of connection points: 2
#     Edge 25, Type (0, 0), BuildingBlock: AJUNOK_clean_linker_0, # of connection points: 2
#     Edge 26, Type (0, 0), BuildingBlock: AJUNOK_clean_linker_0, # of connection points: 2
#     Edge 27, Type (0, 0), BuildingBlock: AJUNOK_clean_linker_0, # of connection points: 2
#     Edge 28, Type (0, 0), BuildingBlock: AJUNOK_clean_linker_0, # of connection points: 2
#     Edge 29, Type (0, 0), BuildingBlock: AJUNOK_clean_linker_0, # of connection points: 2
#     Edge 30, Type (0, 0), BuildingBlock: AJUNOK_clean_linker_0, # of connection points: 2
#     Edge 31, Type (0, 0), BuildingBlock: AJUNOK_clean_linker_0, # of connection points: 2
#     Edge 32, Type (0, 0), BuildingBlock: AJUNOK_clean_linker_0, # of connection points: 2
#     Edge 33, Type (0, 0), BuildingBlock: AJUNOK_clean_linker_0, # of connection points: 2
#     Edge 34, Type (0, 0), BuildingBlock: AJUNOK_clean_linker_0, # of connection points: 2
#     Edge 35, Type (0, 0), BuildingBlock: AJUNOK_clean_linker_0, # of connection points: 2
#     Edge 36, Type (0, 0), BuildingBlock: AJUNOK_clean_linker_0, # of connection points: 2
#     Edge 37, Type (0, 0), BuildingBlock: AJUNOK_clean_linker_0, # of connection points: 2
#     Edge 38, Type (0, 0), BuildingBlock: AJUNOK_clean_linker_0, # of connection points: 2
#     Edge 39, Type (0, 0), BuildingBlock: AJUNOK_clean_linker_0, # of connection points: 2
#     Edge 40, Type (0, 0), BuildingBlock: AJUNOK_clean_linker_0, # of connection points: 2
#     Edge 41, Type (0, 0), BuildingBlock: AJUNOK_clean_linker_0, # of connection points: 2
#     Edge 42, Type (0, 0), BuildingBlock: AJUNOK_clean_linker_0, # of connection points: 2
#     Edge 43, Type (0, 0), BuildingBlock: AJUNOK_clean_linker_0, # of connection points: 2
#     Edge 44, Type (0, 0), BuildingBlock: AJUNOK_clean_linker_0, # of connection points: 2
#     Edge 45, Type (0, 0), BuildingBlock: AJUNOK_clean_linker_0, # of connection points: 2
#     Edge 46, Type (0, 0), BuildingBlock: AJUNOK_clean_linker_0, # of connection points: 2
#     Edge 47, Type (0, 0), BuildingBlock: AJUNOK_clean_linker_0, # of connection points: 2
#     Edge 48, Type (0, 0), BuildingBlock: AJUNOK_clean_linker_0, # of connection points: 2
#     Edge 49, Type (0, 0), BuildingBlock: AJUNOK_clean_linker_0, # of connection points: 2
#     Edge 50, Type (0, 0), BuildingBlock: AJUNOK_clean_linker_0, # of connection points: 2
#     Edge 51, Type (0, 0), BuildingBlock: AJUNOK_clean_linker_0, # of connection points: 2
#     Edge 52, Type (0, 0), BuildingBlock: AJUNOK_clean_linker_0, # of connection points: 2
#     Edge 53, Type (0, 0), BuildingBlock: AJUNOK_clean_linker_0, # of connection points: 2
#     Edge 54, Type (0, 0), BuildingBlock: AJUNOK_clean_linker_0, # of connection points: 2
#     Edge 55, Type (0, 0), BuildingBlock: AJUNOK_clean_linker_0, # of connection points: 2
#     Edge 56, Type (0, 0), BuildingBlock: AJUNOK_clean_linker_0, # of connection points: 2
#     Edge 57, Type (0, 0), BuildingBlock: AJUNOK_clean_linker_0, # of connection points: 2
#     Edge 58, Type (0, 0), BuildingBlock: AJUNOK_clean_linker_0, # of connection points: 2
#     Edge 59, Type (0, 0), BuildingBlock: AJUNOK_clean_linker_0, # of connection points: 2
#     Edge 60, Type (0, 0), BuildingBlock: AJUNOK_clean_linker_0, # of connection points: 2
#     Edge 61, Type (0, 0), BuildingBlock: AJUNOK_clean_linker_0, # of connection points: 2
#     Edge 62, Type (0, 0), BuildingBlock: AJUNOK_clean_linker_0, # of connection points: 2
#     Edge 63, Type (0, 0), BuildingBlock: AJUNOK_clean_linker_0, # of connection points: 2
# Relax obj value: 0.079
# Max RMSD: 0.253
# Mean RMSD: 0.240
data_MOF--net-crs--node1-MAKGUD_clean_sbu_1--edge1-AJUNOK_clean_linker_0
_symmetry_space_group_name_H-M    P1
_symmetry_Int_Tables_number       1
_symmetry_cell_setting            triclinic
loop_
_symmetry_equiv_pos_as_xyz
'x, y, z'
_cell_length_a     30.925227
_cell_length_b     40.509406
_cell_length_c     37.10131
_cell_angle_alpha  91.434576
_cell_angle_beta   90.074482
_cell_angle_gamma 72.089936
loop_
_atom_site_label
_atom_site_type_symbol
_atom_site_fract_x
_atom_site_fract_y
_atom_site_fract_z
_atom_type_partial_charge
O0 O 0.00671 0.16736 1.07199 0.0
Tb1 Tb -0.01847 0.12994 0.09978 0.0
C2 C 0.03113 0.05154 0.11651 0.0
O3 O -0.01566 0.07551 1.0437 0.0
Tb4 Tb -0.0042 1.0205 1.05203 0.0
C5 C 0.01887 0.98276 0.99125 0.0
O6 O 0.93567 0.12836 1.05537 0.0
O7 O 0.94207 1.00305 0.07496 0.0
C8 C 0.90892 1.00002 1.05418 0.0
O9 O 0.9047 1.01325 1.02195 0.0
O10 O -0.00813 0.07501 0.1103 0.0
O11 O 0.04192 1.02264 0.09644 0.0
O12 O 0.95087 0.16233 0.14601 0.0
C13 C 0.94519 0.09872 1.03712 0.0
C14 C 0.04963 0.15249 0.07821 0.0
O15 O -0.01053 1.01354 0.99437 0.0
O16 O 0.03801 0.97413 1.02255 0.0
C17 C 0.97808 0.16559 0.17213 0.0
O18 O 0.02088 0.14648 0.17066 0.0
O19 O 0.05442 0.12398 0.09568 0.0
O20 O -0.00392 0.30224 0.24515 0.0
Tb21 Tb 0.02339 0.31963 0.29381 0.0
C22 C 0.06519 0.26144 0.34655 0.0
O23 O 0.92948 0.34754 0.33814 0.0
Tb24 Tb 0.97528 0.31612 0.37738 0.0
C25 C 0.92248 0.30551 0.43004 0.0
O26 O -0.01924 0.36988 0.31296 0.0
O27 O 0.00489 0.3557 0.39685 0.0
C28 C 0.97677 0.38638 0.40635 0.0
O29 O 0.93289 0.39168 0.40289 0.0
O30 O 0.07456 0.28579 0.32795 0.0
O31 O 0.02485 0.26655 0.36147 0.0
O32 O 0.06523 0.33259 0.25256 0.0
C33 C 0.93894 0.37344 0.32299 0.0
C34 C 0.97694 0.28203 0.26088 0.0
O35 O 0.91621 0.30188 0.39569 0.0
O36 O 0.95899 0.31456 0.43468 0.0
C37 C 0.1024 0.3094 0.24025 0.0
O38 O 0.11688 0.27934 0.25597 0.0
O39 O -0.0166 0.2834 0.29541 0.0
O40 O 0.73668 0.20602 0.54646 0.0
Tb41 Tb 0.74558 0.24825 0.58048 0.0
C42 C 0.69589 0.32785 0.60585 0.0
O43 O 0.79754 0.30391 0.57484 0.0
Tb44 Tb 0.76146 0.35959 0.57151 0.0
C45 C 0.75511 0.38851 0.50688 0.0
O46 O 0.8017 0.2526 0.54696 0.0
O47 O 0.78602 0.39363 0.60567 0.0
C48 C 0.82959 0.38962 0.60742 0.0
O49 O 0.85854 0.35956 0.59773 0.0
O50 O 0.71864 0.30444 0.58206 0.0
O51 O 0.70184 0.35843 0.60281 0.0
O52 O 0.76382 0.22271 0.63191 0.0
C53 C 0.81219 0.28188 0.54751 0.0
C54 C 0.69276 0.21887 0.54364 0.0
O55 O 0.79214 0.3689 0.52139 0.0
O56 O 0.72081 0.39035 0.52823 0.0
C57 C 0.79053 0.19033 0.631 0.0
O58 O 0.80947 0.17737 0.59999 0.0
O59 O 0.67881 0.24836 0.56138 0.0
O60 O 0.78951 0.07322 0.92598 0.0
Tb61 Tb 0.77543 0.06726 0.8686 0.0
C62 C 0.80889 1.00831 0.81247 0.0
O63 O 0.67735 0.09696 0.81893 0.0
Tb64 Tb 0.72622 0.06331 0.78166 0.0
C65 C 0.76882 0.09845 0.74218 0.0
O66 O 0.72724 0.1164 0.85336 0.0
O67 O 0.67552 0.05291 0.74633 0.0
C68 C 0.65262 0.07663 0.72398 0.0
O69 O 0.65872 0.10735 0.72538 0.0
O70 O 0.82026 1.03366 0.82848 0.0
O71 O 0.76712 1.01338 0.80142 0.0
O72 O 0.74271 1.03021 0.88754 0.0
C73 C 0.68677 0.12089 0.83931 0.0
C74 C 0.82786 0.07954 0.92137 0.0
O75 O 0.75508 0.10621 0.77536 0.0
O76 O 0.7598 0.07039 0.73191 0.0
C77 C 0.7689 0.99973 0.89782 0.0
O78 O 0.81314 0.99266 0.89466 0.0
O79 O 0.83634 0.0792 0.88702 0.0
O80 O 0.47798 0.79968 0.24195 0.0
Tb81 Tb 0.52246 0.80821 0.28479 0.0
C82 C 0.55862 0.7574 0.34659 0.0
O83 O 0.42705 0.83956 0.3314 0.0
Tb84 Tb 0.46901 0.81276 0.37515 0.0
C85 C 0.41704 0.8022 0.42838 0.0
O86 O 0.48008 0.85898 0.30409 0.0
O87 O 0.4938 0.85507 0.39387 0.0
C88 C 0.46301 0.88478 0.40262 0.0
O89 O 0.42006 0.88752 0.39713 0.0
O90 O 0.56854 0.78002 0.32581 0.0
O91 O 0.51792 0.76294 0.3607 0.0
O92 O 0.57302 0.8142 0.24656 0.0
C93 C 0.43796 0.86407 0.31468 0.0
C94 C 0.47792 0.76907 0.25139 0.0
O95 O 0.40589 0.80526 0.39451 0.0
O96 O 0.4575 0.80507 0.43218 0.0
C97 C 0.56032 0.83121 0.21654 0.0
O98 O 0.51678 0.84616 0.2111 0.0
O99 O 0.50216 0.76079 0.28028 0.0
O100 O 0.23034 0.72863 0.56108 0.0
Tb101 Tb 0.25371 0.75869 0.60211 0.0
C102 C 0.19547 0.83641 0.61193 0.0
O103 O 0.25489 0.80585 0.54306 0.0
Tb104 Tb 0.23865 0.86171 0.55046 0.0
C105 C 0.22889 0.89669 0.48964 0.0
O106 O 0.30675 0.75824 0.56314 0.0
O107 O 0.2803 0.88267 0.58537 0.0
C108 C 0.32156 0.88149 0.57586 0.0
O109 O 0.34086 0.86197 0.54795 0.0
O110 O 0.23726 0.81479 0.61112 0.0
O111 O 0.18552 0.86211 0.58903 0.0
O112 O 0.27664 0.72462 0.64764 0.0
C113 C 0.29649 0.78454 0.54125 0.0
C114 C 0.18739 0.74091 0.56923 0.0
O115 O 0.26354 0.87042 0.49805 0.0
O116 O 0.19821 0.90262 0.51532 0.0
C117 C 0.28988 0.69089 0.64081 0.0
O118 O 0.2942 0.68021 0.60689 0.0
O119 O 0.18184 0.76351 0.59574 0.0
O120 O 0.28863 0.56626 0.93035 0.0
Tb121 Tb 0.27286 0.56343 0.87301 0.0
C122 C 0.30294 0.50428 0.81669 0.0
O123 O 0.17448 0.59516 0.82552 0.0
Tb124 Tb 0.22205 0.56149 0.7875 0.0
C125 C 0.26634 0.59458 0.74692 0.0
O126 O 0.22615 0.61363 0.85841 0.0
O127 O 0.16896 0.55553 0.75187 0.0
C128 C 0.14605 0.58255 0.73334 0.0
O129 O 0.15288 0.6125 0.7403 0.0
O130 O 0.3157 0.52921 0.83228 0.0
O131 O 0.26122 0.51043 0.80506 0.0
O132 O 0.23897 0.52708 0.89214 0.0
C133 C 0.18515 0.61889 0.84516 0.0
C134 C 0.32668 0.57307 0.92607 0.0
O135 O 0.25894 0.59979 0.78152 0.0
O136 O 0.25046 0.56988 0.73602 0.0
C137 C 0.26488 0.49633 0.90207 0.0
O138 O 0.30913 0.48883 0.89836 0.0
O139 O 0.33414 0.57488 0.89178 0.0
O140 O 0.01398 0.68352 0.56431 0.0
Tb141 Tb 0.0064 0.63297 0.5754 0.0
C142 C 0.0518 0.55671 0.60425 0.0
O143 O 0.9588 0.58087 0.56753 0.0
Tb144 Tb -0.0137 0.52455 0.56636 0.0
C145 C 0.00783 0.48923 0.50374 0.0
O146 O 0.94937 0.63158 0.54166 0.0
O147 O 0.94095 0.50278 0.59468 0.0
C148 C 0.90782 0.4967 0.57636 0.0
O149 O 0.9024 0.50573 0.54253 0.0
O150 O 0.0406 0.57704 0.57628 0.0
O151 O 0.04101 0.52761 0.60251 0.0
O152 O -0.00923 0.64946 0.63131 0.0
C153 C 0.93977 0.6022 0.54189 0.0
C154 C 0.05308 0.67208 0.54798 0.0
O155 O 0.97717 0.51941 0.50829 0.0
O156 O 0.02814 0.48002 0.53437 0.0
C157 C 0.956 0.6773 0.63785 0.0
O158 O 0.92868 0.69012 0.61104 0.0
O159 O 0.06524 0.63834 0.54609 0.0
O160 O 0.23182 0.20705 1.06775 0.0
Tb161 Tb 0.25274 0.24854 0.09361 0.0
C162 C 0.2015 0.32732 0.11212 0.0
O163 O 0.2518 0.30192 1.03841 0.0
Tb164 Tb 0.24009 0.35698 1.05055 0.0
C165 C 0.22219 0.39633 0.99236 0.0
O166 O 0.30096 0.24978 1.05099 0.0
O167 O 0.29269 0.37244 0.07879 0.0
C168 C 0.3283 0.37502 1.0611 0.0
O169 O 0.33561 0.36239 1.02796 0.0
O170 O 0.24077 0.30392 0.10483 0.0
O171 O 0.19158 0.35614 0.09355 0.0
O172 O 0.27763 0.2201 0.14216 0.0
C173 C 0.29187 0.27884 1.03313 0.0
C174 C 0.18819 0.22212 1.07045 0.0
O175 O 0.25224 0.36588 0.99446 0.0
O176 O 0.19983 0.40388 1.02293 0.0
C177 C 0.24598 0.21397 0.16214 0.0
O178 O 0.20348 0.22774 0.15256 0.0
O179 O 0.18077 0.25334 0.08447 0.0
O180 O 0.28504 0.06666 0.42558 0.0
Tb181 Tb 0.27524 0.06198 0.3676 0.0
C182 C 0.30748 1.00257 0.31214 0.0
O183 O 0.17618 0.09536 0.32369 0.0
Tb184 Tb 0.22347 0.05945 0.28656 0.0
C185 C 0.2673 0.09594 0.24997 0.0
O186 O 0.23104 0.11289 0.35267 0.0
O187 O 0.17709 0.04691 0.24818 0.0
C188 C 0.13773 0.0696 0.24057 0.0
O189 O 0.12443 0.09939 0.25853 0.0
O190 O 0.31979 1.02766 0.32783 0.0
O191 O 0.26526 1.00824 0.30182 0.0
O192 O 0.24155 1.02495 0.38481 0.0
C193 C 0.1891 0.11953 0.341 0.0
C194 C 0.32494 0.07085 0.42367 0.0
O195 O 0.26828 0.09215 0.2847 0.0
O196 O 0.24232 0.0783 0.23632 0.0
C197 C 0.26822 0.99486 0.39574 0.0
O198 O 0.3124 0.98891 0.3938 0.0
O199 O 0.33678 0.0704 0.38997 0.0
O200 O 0.49072 0.29322 0.73648 0.0
Tb201 Tb 0.51865 0.31083 0.78486 0.0
C202 C 0.56053 0.25994 0.84446 0.0
O203 O 0.42421 0.34086 0.83206 0.0
Tb204 Tb 0.46891 0.31278 0.87391 0.0
C205 C 0.41593 0.30076 0.92561 0.0
O206 O 0.47428 0.36142 0.80203 0.0
O207 O 0.49413 0.35473 0.89314 0.0
C208 C 0.46413 0.38455 0.90272 0.0
O209 O 0.42081 0.38806 0.89821 0.0
O210 O 0.56829 0.28328 0.82352 0.0
O211 O 0.52047 0.26398 0.85928 0.0
O212 O 0.56694 0.32134 0.74758 0.0
C213 C 0.43344 0.36593 0.81507 0.0
C214 C 0.48071 0.26763 0.75107 0.0
O215 O 0.4072 0.30189 0.8913 0.0
O216 O 0.45481 0.30616 0.93082 0.0
C217 C 0.59199 0.29696 0.72553 0.0
O218 O 0.59 0.26516 0.72816 0.0
O219 O 0.49039 0.26727 0.78521 0.0
O220 O -0.01897 0.79953 0.7398 0.0
Tb221 Tb 0.01854 0.8102 0.78634 0.0
C222 C 0.05711 0.75757 0.84458 0.0
O223 O 0.92425 0.84498 0.83387 0.0
Tb224 Tb 0.96823 0.81176 0.87334 0.0
C225 C 0.91641 0.80267 0.9274 0.0
O226 O -0.02166 0.86175 0.80434 0.0
O227 O 0.00172 0.84912 0.89156 0.0
C228 C 0.97545 0.88023 0.90133 0.0
O229 O 0.9312 0.88691 0.89902 0.0
O230 O 0.06574 0.78231 0.82646 0.0
O231 O 0.01636 0.7617 0.858 0.0
O232 O 0.07098 0.81424 0.74936 0.0
C233 C 0.93676 0.86871 0.81684 0.0
C234 C 0.97552 0.77111 0.75138 0.0
O235 O 0.90657 0.80235 0.89331 0.0
O236 O 0.95557 0.80797 0.93099 0.0
C237 C 0.06037 0.83294 0.72028 0.0
O238 O 0.01773 0.85115 0.7152 0.0
O239 O -0.00721 0.76534 0.78342 0.0
O240 O 0.78759 0.56519 0.43582 0.0
Tb241 Tb 0.76857 0.562 0.37918 0.0
C242 C 0.80308 0.50877 0.31801 0.0
O243 O 0.66969 0.59251 0.32795 0.0
Tb244 Tb 0.71977 0.56399 0.28858 0.0
C245 C 0.75935 0.60643 0.25754 0.0
O246 O 0.71584 0.61056 0.368 0.0
O247 O 0.67164 0.55327 0.25063 0.0
C248 C 0.647 0.57763 0.22969 0.0
O249 O 0.64979 0.60923 0.23371 0.0
O250 O 0.81251 0.53419 0.33546 0.0
O251 O 0.76275 0.51338 0.30418 0.0
O252 O 0.74557 0.51951 0.3984 0.0
C253 C 0.67721 0.61568 0.35059 0.0
C254 C 0.82298 0.57519 0.42982 0.0
O255 O 0.74868 0.60713 0.29152 0.0
O256 O 0.74909 0.58098 0.24142 0.0
C257 C 0.77693 0.4907 0.40764 0.0
O258 O 0.81972 0.48845 0.40223 0.0
O259 O 0.82728 0.57814 0.3953 0.0
O260 O 0.7279 0.72757 1.06534 0.0
Tb261 Tb 0.75195 0.7613 0.10172 0.0
C262 C 0.6975 0.84047 0.11253 0.0
O263 O 0.75512 0.81254 1.04563 0.0
Tb264 Tb 0.74247 0.86822 1.05202 0.0
C265 C 0.72506 0.90239 0.99053 0.0
O266 O 0.80279 0.76092 1.06046 0.0
O267 O 0.79114 0.88938 0.07884 0.0
C268 C 0.82793 0.88984 1.06137 0.0
O269 O 0.83916 0.87121 1.03144 0.0
O270 O 0.73822 0.81725 0.11183 0.0
O271 O 0.69029 0.86785 0.09184 0.0
O272 O 0.78009 0.72744 0.14635 0.0
C273 C 0.79492 0.78911 1.04139 0.0
C274 C 0.68509 0.74008 0.07396 0.0
O275 O 0.7564 0.87295 0.99532 0.0
O276 O 0.7012 0.91158 1.02025 0.0
C277 C 0.75277 0.72459 0.17248 0.0
O278 O 0.71079 0.74534 0.17312 0.0
O279 O 0.67977 0.76537 0.09762 0.0
O280 O 0.52178 0.15652 0.53706 0.0
Tb281 Tb 0.50424 0.124 0.57698 0.0
C282 C 0.54198 1.04599 0.60737 0.0
O283 O 0.44198 0.0741 0.57296 0.0
Tb284 Tb 0.47348 1.01747 0.57125 0.0
C285 C 0.48387 0.98789 0.50538 0.0
O286 O 0.4489 0.12017 0.54212 0.0
O287 O 0.44237 0.98585 0.60167 0.0
C288 C 0.39823 0.99217 0.60086 0.0
O289 O 0.37315 1.02165 0.58784 0.0
O290 O 0.5221 0.06836 0.58293 0.0
O291 O 0.53186 1.01679 0.60521 0.0
O292 O 0.48018 0.16109 0.62167 0.0
C293 C 0.43238 0.09383 0.54444 0.0
C294 C 0.56564 0.14387 0.54061 0.0
O295 O 0.44626 1.00857 0.51901 0.0
O296 O 0.51656 0.98501 0.52859 0.0
C297 C 0.47416 0.15436 0.65546 0.0
O298 O 0.47868 0.12242 0.6648 0.0
O299 O 0.57475 0.11929 0.56398 0.0
O300 O 0.51331 0.67361 1.06327 0.0
Tb301 Tb 0.50511 0.62541 0.08295 0.0
C302 C 0.54684 0.5465 0.10587 0.0
O303 O 0.44968 0.57367 1.07217 0.0
Tb304 Tb 0.47884 0.51703 1.06781 0.0
C305 C 0.49153 0.48844 1.00152 0.0
O306 O 0.45119 0.62312 1.04576 0.0
O307 O 0.44624 0.48411 0.09508 0.0
C308 C 0.40363 0.48664 0.08846 0.0
O309 O 0.37802 0.51412 1.0722 0.0
O310 O 0.53175 0.56895 0.08019 0.0
O311 O 0.53621 0.51742 0.10266 0.0
O312 O 0.48269 0.64518 0.13701 0.0
C313 C 0.43766 0.59519 1.04523 0.0
C314 C 0.55729 0.6623 1.05956 0.0
O315 O 0.45468 0.51142 1.01353 0.0
O316 O 0.52258 0.4832 1.02648 0.0
C317 C 0.45157 0.67572 0.13989 0.0
O318 O 0.43014 0.68895 0.11049 0.0
O319 O 0.57166 0.62954 1.06732 0.0
C320 C -0.01948 0.19154 0.23318 0.0
C321 C 0.96512 0.19563 0.19742 0.0
C322 C -0.0205 0.22037 0.25522 0.0
C323 C 0.96461 0.25406 0.24167 0.0
H324 H -0.00406 0.16584 0.2435 0.0
H325 H -0.00575 0.21595 0.28187 0.0
S326 S 0.91773 0.27885 0.1509 0.0
N327 N 0.93079 0.23611 0.15054 0.0
N328 N 0.93099 0.29024 0.1915 0.0
C329 C 0.94665 0.25866 0.20676 0.0
C330 C 0.94637 0.22939 0.18469 0.0
C331 C 0.87464 0.30254 0.52379 0.0
C332 C 0.83785 0.28984 0.51711 0.0
C333 C 0.90163 0.30778 0.49541 0.0
C334 C 0.8927 0.30055 0.45934 0.0
H335 H 0.88345 0.30746 0.55119 0.0
H336 H 0.92998 0.31721 0.50186 0.0
S337 S 0.7988 0.26829 0.42762 0.0
N338 N 0.79299 0.27104 0.47194 0.0
N339 N 0.84328 0.28115 0.41854 0.0
C340 C 0.8554 0.28846 0.45231 0.0
C341 C 0.82818 0.2829 0.48123 0.0
C342 C 0.76462 0.1579 0.72175 0.0
C343 C 0.78213 0.12162 0.71715 0.0
C344 C 0.7693 0.18019 0.6945 0.0
C345 C 0.79227 0.167 0.6619 0.0
H346 H 0.74483 0.16911 0.7456 0.0
H347 H 0.75321 0.20784 0.69849 0.0
S348 S 0.84953 0.07373 0.63919 0.0
N349 N 0.82649 0.07357 0.67926 0.0
N350 N 0.83672 0.11495 0.62863 0.0
C351 C 0.81262 0.13072 0.65828 0.0
C352 C 0.80713 0.10817 0.68573 0.0
C353 C 0.87065 0.09418 1.01482 0.0
C354 C 0.91562 0.09331 1.00788 0.0
C355 C 0.84245 0.08942 0.98667 0.0
C356 C 0.85789 0.08488 0.95061 0.0
H357 H 0.85752 0.09793 1.04218 0.0
H358 H 0.80827 0.08952 0.99318 0.0
S359 S 0.97205 0.08358 0.91852 0.0
N360 N 0.97395 0.0887 0.96273 0.0
N361 N 0.92054 0.0816 0.90966 0.0
C362 C 0.90244 0.08509 0.94342 0.0
C363 C 0.93141 0.08889 0.97213 0.0
C364 C 0.10609 1.04331 0.14735 0.0
C365 C 0.05833 0.05536 0.14835 0.0
C366 C 0.13174 0.04715 0.17768 0.0
C367 C 0.11041 0.0631 0.20994 0.0
H368 H 0.12371 1.03146 0.12284 0.0
H369 H 0.16847 1.03839 0.17554 0.0
S370 S -0.01352 0.09339 0.22827 0.0
N371 N -0.00908 0.07985 0.18568 0.0
N372 N 0.039 0.08763 0.24212 0.0
C373 C 0.06278 0.07391 0.21164 0.0
C374 C 0.03677 0.06981 0.181 0.0
C375 C 0.03405 0.42949 0.47522 0.0
C376 C 0.00822 0.46476 0.47312 0.0
C377 C 0.02649 0.40422 0.45143 0.0
C378 C -0.00754 0.41335 0.42507 0.0
H379 H 0.05829 0.42101 0.49678 0.0
H380 H 0.04506 0.37717 0.45546 0.0
S381 S 0.92148 0.50258 0.40403 0.0
N382 N 0.95203 0.50786 0.43897 0.0
N383 N 0.93711 0.46042 0.39513 0.0
C384 C 0.96908 0.44875 0.42087 0.0
C385 C 0.9772 0.47446 0.44464 0.0
C386 C 0.66815 0.28668 0.64262 0.0
C387 C 0.66946 0.32049 0.6367 0.0
C388 C 0.64384 0.27928 0.67164 0.0
C389 C 0.6194 0.30548 0.69614 0.0
H390 H 0.68597 0.26559 0.62481 0.0
H391 H 0.64402 0.2527 0.6746 0.0
S392 S 0.61141 0.39877 0.69315 0.0
N393 N 0.64387 0.38072 0.65825 0.0
N394 N 0.59824 0.36692 0.71259 0.0
C395 C 0.62047 0.33951 0.69077 0.0
C396 C 0.64536 0.347 0.66117 0.0
C397 C 0.77615 0.93926 0.91512 0.0
C398 C 0.75051 0.97459 0.91596 0.0
C399 C 0.76486 0.91546 0.93709 0.0
C400 C 0.7279 0.92609 0.96135 0.0
H401 H 0.80643 0.93009 0.89843 0.0
H402 H 0.78717 0.88893 0.93664 0.0
S403 S 0.6471 1.01501 0.97134 0.0
N404 N 0.68388 1.01848 0.94053 0.0
N405 N 0.66322 0.97381 0.98255 0.0
C406 C 0.70011 0.96086 0.96074 0.0
C407 C 0.71128 0.98511 0.93786 0.0
C408 C 0.19639 0.30198 0.17193 0.0
C409 C 0.17436 0.32348 0.14391 0.0
C410 C 0.17295 0.29799 0.203 0.0
C411 C 0.12653 0.31591 0.20784 0.0
H412 H 0.2324 0.28824 0.17009 0.0
H413 H 0.19157 0.28086 0.22355 0.0
S414 S 0.05301 0.37655 0.14323 0.0
N415 N 0.10345 0.36365 0.1234 0.0
N416 N 0.05927 0.35664 0.18211 0.0
C417 C 0.10413 0.33826 0.18048 0.0
C418 C 0.12806 0.34201 0.14852 0.0
C419 C 0.8004 0.43075 0.43197 0.0
C420 C 0.76618 0.46273 0.42783 0.0
C421 C 0.79506 0.40587 0.45576 0.0
C422 C 0.75518 0.41173 0.47643 0.0
H423 H 0.83253 0.42533 0.41777 0.0
H424 H 0.82334 0.38247 0.45916 0.0
S425 S 0.65344 0.48956 0.47331 0.0
N426 N 0.68943 0.49763 0.44454 0.0
N427 N 0.67938 0.45078 0.48919 0.0
C428 C 0.71946 0.44252 0.47089 0.0
C429 C 0.72495 0.46802 0.44661 0.0
C430 C 0.57499 0.08638 0.64266 0.0
C431 C 0.5701 0.05326 0.63746 0.0
C432 C 0.60083 0.09382 0.67101 0.0
C433 C 0.62335 0.06829 0.69549 0.0
H434 H 0.55801 0.10712 0.62522 0.0
H435 H 0.60322 0.1199 0.67356 0.0
S436 S 0.6215 0.97701 0.69441 0.0
N437 N 0.58995 0.99446 0.65975 0.0
N438 N 0.63858 1.00829 0.7129 0.0
C439 C 0.6186 1.03497 0.69091 0.0
C440 C 0.5921 1.02747 0.66198 0.0
C441 C 0.04102 0.92224 0.96441 0.0
C442 C 0.01657 0.95773 0.96194 0.0
C443 C 0.03012 0.89705 0.94251 0.0
C444 C -0.00614 0.90659 0.91802 0.0
H445 H 0.06678 0.91367 0.98488 0.0
H446 H 0.04793 0.86989 0.94668 0.0
S447 S 0.9236 0.99608 0.89759 0.0
N448 N 0.95841 1.0011 0.92951 0.0
N449 N 0.93696 0.95387 0.88982 0.0
C450 C 0.97149 0.94202 0.91352 0.0
C451 C -0.01683 0.96759 0.93506 0.0
C452 C 0.074 0.20486 1.06667 0.0
C453 C 0.08581 0.16884 1.07203 0.0
C454 C 0.10731 0.22189 1.06501 0.0
C455 C 0.15376 0.20341 1.06769 0.0
H456 H 0.0386 0.22032 1.06522 0.0
H457 H 0.09657 0.24981 1.06233 0.0
S458 S 0.20263 0.10846 0.08044 0.0
N459 N 0.14721 0.11522 0.07928 0.0
N460 N 0.20985 0.14676 0.07496 0.0
C461 C 0.16607 0.16716 1.07166 0.0
C462 C 0.1321 0.15 0.07416 0.0
C463 C 0.63774 0.66924 0.3178 0.0
C464 C 0.64588 0.65135 0.35035 0.0
C465 C 0.61106 0.70418 0.31704 0.0
C466 C 0.59083 0.72207 0.3487 0.0
H467 H 0.6528 0.65633 0.29286 0.0
H468 H 0.60521 0.71697 0.29137 0.0
S469 S 0.6021 0.68683 0.44068 0.0
N470 N 0.63296 0.65417 0.415 0.0
N471 N 0.58076 0.71939 0.41338 0.0
C472 C 0.59858 0.70438 0.38134 0.0
C473 C 0.62676 0.66912 0.38224 0.0
C474 C 0.38839 0.90199 0.58855 0.0
C475 C 0.34124 0.90797 0.59043 0.0
C476 C 0.40713 0.92892 0.59533 0.0
C477 C 0.37922 0.96298 0.60339 0.0
H478 H 0.41081 0.8767 0.58019 0.0
H479 H 0.44342 0.92341 0.59163 0.0
S480 S 0.25404 0.99154 0.61511 0.0
N481 N 0.26734 0.94982 0.60431 0.0
N482 N 0.30262 1.0005 0.61612 0.0
C483 C 0.33234 0.9688 0.60762 0.0
C484 C 0.31331 0.94126 0.60137 0.0
C485 C 0.09222 0.70061 0.87389 0.0
C486 C 0.09142 0.72286 0.84514 0.0
C487 C 0.12318 0.66695 0.87413 0.0
C488 C 0.15371 0.65442 0.84538 0.0
H489 H 0.0688 0.70928 0.89636 0.0
H490 H 0.12291 0.65053 0.89668 0.0
S491 S 0.16382 0.70116 0.76281 0.0
N492 N 0.12322 0.72923 0.78665 0.0
N493 N 0.1808 0.66597 0.78716 0.0
C494 C 0.1531 0.67614 0.81643 0.0
C495 C 0.12209 0.71043 0.81629 0.0
C496 C 0.88656 0.42033 0.62068 0.0
C497 C 0.84438 0.42081 0.60626 0.0
C498 C 0.90539 0.44685 0.6134 0.0
C499 C 0.88314 0.47403 0.5906 0.0
H500 H 0.90595 0.3986 0.63638 0.0
H501 H 0.93896 0.44469 0.62361 0.0
S502 S 0.77084 0.48816 0.54765 0.0
N503 N 0.77959 0.45197 0.56996 0.0
N504 N 0.81565 0.50115 0.55564 0.0
C505 C 0.83997 0.4757 0.57751 0.0
C506 C 0.82038 0.44921 0.5855 0.0
C507 C 0.38691 0.96194 0.30923 0.0
C508 C 0.33987 0.96695 0.31056 0.0
C509 C 0.41835 0.92853 0.30953 0.0
C510 C 0.40396 0.89889 0.31198 0.0
H511 H 0.3996 0.98402 0.30803 0.0
H512 H 0.45424 0.92603 0.30881 0.0
S513 S 0.28446 0.89796 0.31688 0.0
N514 N 0.28038 0.93943 0.31445 0.0
N515 N 0.33938 0.87679 0.31574 0.0
C516 C 0.35699 0.90356 0.31333 0.0
C517 C 0.32497 0.93752 0.31239 0.0
C518 C 0.38207 0.46374 0.81265 0.0
C519 C 0.33512 0.46869 0.81466 0.0
C520 C 0.41346 0.43037 0.81189 0.0
C521 C 0.39915 0.40067 0.81395 0.0
H522 H 0.39473 0.48585 0.81156 0.0
H523 H 0.44931 0.42791 0.81056 0.0
S524 S 0.27989 0.39959 0.82065 0.0
N525 N 0.27569 0.44115 0.81895 0.0
N526 N 0.3348 0.37841 0.81845 0.0
C527 C 0.35227 0.40525 0.81623 0.0
C528 C 0.32023 0.43925 0.81629 0.0
C529 C 0.11527 0.85199 0.63469 0.0
C530 C 0.16144 0.83317 0.63873 0.0
C531 C 0.08296 0.85161 0.66106 0.0
C532 C 0.09547 0.83255 0.69272 0.0
H533 H 0.10394 0.86743 0.61108 0.0
H534 H 0.04789 0.86666 0.65659 0.0
S535 S 0.21221 0.7792 0.71663 0.0
N536 N 0.21814 0.79511 0.67708 0.0
N537 N 0.15753 0.79419 0.72642 0.0
C538 C 0.14151 0.81333 0.69695 0.0
C539 C 0.17441 0.81367 0.67003 0.0
C540 C 0.27832 0.93434 0.41397 0.0
C541 C 0.25074 0.96917 0.41372 0.0
C542 C 0.26847 0.9104 0.43655 0.0
C543 C 0.23089 0.92033 0.46021 0.0
H544 H 0.3091 0.9258 0.39779 0.0
H545 H 0.29215 0.88437 0.43694 0.0
S546 S 0.14506 1.00743 0.46712 0.0
N547 N 0.18171 1.01165 0.43656 0.0
N548 N 0.16347 0.96661 0.47955 0.0
C549 C 0.2011 0.9544 0.45839 0.0
C550 C 0.21098 0.97885 0.43501 0.0
C551 C 0.9343 0.75738 0.69846 0.0
C552 C 0.96335 0.74558 0.72765 0.0
C553 C 0.92944 0.73445 0.67099 0.0
C554 C 0.95448 0.69889 0.67112 0.0
H555 H 0.91665 0.78483 0.69602 0.0
H556 H 0.90801 0.74524 0.64838 0.0
S557 S 0.03237 0.65457 0.7434 0.0
N558 N 0.01469 0.69574 0.75687 0.0
N559 N 0.00667 0.6526 0.7047 0.0
C560 C -0.01822 0.68643 0.70128 0.0
C561 C -0.01406 0.70979 0.72969 0.0
C562 C 0.31252 0.79751 0.47849 0.0
C563 C 0.32855 0.78866 0.51353 0.0
C564 C 0.34152 0.80157 0.45114 0.0
C565 C 0.38766 0.79712 0.45785 0.0
H566 H 0.27717 0.80122 0.47208 0.0
H567 H 0.3275 0.80857 0.42461 0.0
S568 S 0.44657 0.77335 0.54508 0.0
N569 N 0.39354 0.77479 0.55343 0.0
N570 N 0.44823 0.78305 0.50221 0.0
C571 C 0.40427 0.78803 0.49278 0.0
C572 C 0.37472 0.78343 0.52054 0.0
C573 C 0.30235 0.13014 0.21019 0.0
C574 C 0.26751 0.12847 0.23361 0.0
C575 C 0.29709 0.15953 0.18906 0.0
C576 C 0.25646 0.18754 0.19038 0.0
H577 H 0.33268 0.10806 0.20689 0.0
H578 H 0.32357 0.15921 0.16985 0.0
S579 S 0.15609 0.19523 0.24863 0.0
N580 N 0.19234 0.15715 0.25801 0.0
N581 N 0.18215 0.21211 0.21879 0.0
C582 C 0.22257 0.18656 0.21524 0.0
C583 C 0.22813 0.15698 0.23667 0.0
C584 C 0.81135 0.79994 0.97811 0.0
C585 C 0.827 0.79268 1.01349 0.0
C586 C 0.84068 0.80283 0.95045 0.0
C587 C 0.88669 0.79889 0.95725 0.0
H588 H 0.77614 0.80311 0.97167 0.0
H589 H 0.82704 0.80851 0.9236 0.0
S590 S 0.94437 0.77947 1.04551 0.0
N591 N 0.89133 0.78099 1.05394 0.0
N592 N 0.94658 0.78727 1.00215 0.0
C593 C 0.90281 0.7916 0.9926 0.0
C594 C 0.87297 0.78808 1.02067 0.0
C595 C 0.2832 0.60901 0.6848 0.0
C596 C 0.28035 0.61752 0.72187 0.0
C597 C 0.28862 0.6323 0.65924 0.0
C598 C 0.29104 0.66542 0.66946 0.0
H599 H 0.27945 0.58456 0.67519 0.0
H600 H 0.28883 0.62466 0.63103 0.0
S601 S 0.29143 0.69869 0.76357 0.0
N602 N 0.28496 0.65999 0.76795 0.0
N603 N 0.29489 0.70404 0.71977 0.0
C604 C 0.29083 0.67357 0.70662 0.0
C605 C 0.28562 0.64957 0.73282 0.0
C606 C 0.39592 0.07873 0.44956 0.0
C607 C 0.35238 0.07553 0.45495 0.0
C608 C 0.42198 0.08422 0.47878 0.0
C609 C 0.40562 0.08615 0.51434 0.0
H610 H 0.40984 0.0773 0.42259 0.0
H611 H 0.45518 0.08691 0.47355 0.0
S612 S 0.29296 0.08158 0.54288 0.0
N613 N 0.29364 0.07576 0.49864 0.0
N614 N 0.34259 0.08651 0.55329 0.0
C615 C 0.36225 0.08313 0.52012 0.0
C616 C 0.33562 0.07765 0.49046 0.0
C617 C 0.88728 0.9167 0.0814 0.0
C618 C 0.84456 0.92011 1.06622 0.0
C619 C 0.90647 0.944 0.08013 0.0
C620 C 0.88405 0.97513 1.06271 0.0
H621 H 0.90667 0.89239 0.09304 0.0
H622 H 0.94035 0.93978 0.09073 0.0
S623 S 0.77051 0.99703 1.02021 0.0
N624 N 0.77939 0.9574 1.03505 0.0
N625 N 0.81587 1.00814 1.03163 0.0
C626 C 0.84061 0.97911 1.04862 0.0
C627 C 0.8208 0.9517 1.05057 0.0
C628 C 0.67683 0.16284 0.5345 0.0
C629 C 0.66238 0.19912 0.53171 0.0
C630 C 0.64533 0.1443 0.53394 0.0
C631 C 0.59866 0.16143 0.52982 0.0
H632 H 0.712 0.14904 0.54038 0.0
H633 H 0.65722 0.11681 0.53931 0.0
S634 S 0.54526 0.25524 0.51409 0.0
N635 N 0.59972 0.25084 0.51963 0.0
N636 N 0.54054 0.21591 0.51737 0.0
C637 C 0.58461 0.1971 0.52285 0.0
C638 C 0.61656 0.21604 0.52416 0.0
C639 C 0.88307 0.47022 0.31336 0.0
C640 C 0.83667 0.47394 0.3173 0.0
C641 C 0.91578 0.43745 0.31415 0.0
C642 C 0.9033 0.40736 0.3199 0.0
H643 H 0.8942 0.4928 0.30968 0.0
H644 H 0.9512 0.4359 0.31124 0.0
S645 S 0.78582 0.40371 0.33303 0.0
N646 N 0.77956 0.4452 0.32732 0.0
N647 N 0.84096 0.38366 0.32991 0.0
C648 C 0.85683 0.41085 0.32399 0.0
C649 C 0.82352 0.44415 0.32239 0.0
C650 C 0.07335 0.72591 0.56092 0.0
C651 C 0.0846 0.69272 0.54434 0.0
C652 C 0.10644 0.74249 0.56679 0.0
C653 C 0.15172 0.72663 0.55584 0.0
H654 H 0.03955 0.73816 0.5718 0.0
H655 H 0.09697 0.76702 0.58172 0.0
S656 S 0.19678 0.6425 0.50587 0.0
N657 N 0.14273 0.64646 0.51319 0.0
N658 N 0.20489 0.67791 0.52361 0.0
C659 C 0.16246 0.69493 0.53627 0.0
C660 C 0.12884 0.67788 0.53064 0.0
C661 C 0.63254 0.17166 0.8102 0.0
C662 C 0.65348 0.15583 0.8417 0.0
C663 C 0.60347 0.2059 0.81126 0.0
C664 C 0.59359 0.22501 0.84397 0.0
H665 H 0.6395 0.15778 0.78445 0.0
H666 H 0.58799 0.21729 0.78644 0.0
S667 S 0.6381 0.19492 0.93401 0.0
N668 N 0.6622 0.16167 0.90642 0.0
N669 N 0.60555 0.22559 0.90859 0.0
C670 C 0.61343 0.2093 0.87571 0.0
C671 C 0.64403 0.17478 0.8745 0.0
C672 C 0.75005 0.66956 0.25285 0.0
C673 C 0.76783 0.63557 0.23849 0.0
C674 C 0.74797 0.69844 0.23195 0.0
C675 C 0.76487 0.69438 0.19638 0.0
H676 H 0.73464 0.674 0.27946 0.0
H677 H 0.73117 0.72416 0.24317 0.0
S678 S 0.81914 0.61079 0.14769 0.0
N679 N 0.80534 0.59943 0.18747 0.0
N680 N 0.80309 0.65366 0.14871 0.0
C681 C 0.7858 0.66052 0.1827 0.0
C682 C 0.78683 0.63111 0.20364 0.0
C683 C 0.87636 0.58055 0.52123 0.0
C684 C 0.91244 0.59327 0.51284 0.0
C685 C 0.84761 0.57463 0.49416 0.0
C686 C 0.85403 0.5813 0.45781 0.0
H687 H 0.86962 0.576 0.54901 0.0
H688 H 0.81999 0.565 0.50184 0.0
S689 S 0.945 0.61366 0.42194 0.0
N690 N 0.95383 0.61166 0.46585 0.0
N691 N 0.90016 0.60043 0.41491 0.0
C692 C 0.89046 0.59362 0.44912 0.0
C693 C 0.9195 0.59976 0.47669 0.0
C694 C 0.10096 0.55039 0.69905 0.0
C695 C 0.11901 0.57822 0.70152 0.0
C696 C 0.07828 0.54443 0.66792 0.0
C697 C 0.07324 0.56573 0.63766 0.0
H698 H 0.10467 0.53288 0.72125 0.0
H699 H 0.06527 0.52247 0.66747 0.0
S700 S 0.11595 0.64156 0.63024 0.0
N701 N 0.1304 0.62743 0.67117 0.0
N702 N 0.08954 0.61537 0.61249 0.0
C703 C 0.09111 0.59371 0.64 0.0
C704 C 0.11349 0.60018 0.67193 0.0
C705 C 0.64125 0.82106 0.19693 0.0
C706 C 0.59454 0.83324 0.18904 0.0
C707 C 0.67417 0.82302 0.17173 0.0
C708 C 0.66186 0.8371 0.13758 0.0
H709 H 0.65262 0.8102 0.22293 0.0
H710 H 0.70963 0.81398 0.17935 0.0
S711 S 0.54476 0.87101 0.10235 0.0
N712 N 0.53798 0.85885 0.14357 0.0
N713 N 0.60008 0.86252 0.09661 0.0
C714 C 0.6155 0.84909 0.12908 0.0
C715 C 0.58185 0.84705 0.15464 0.0
C716 C 0.60029 0.59436 0.174 0.0
C717 C 0.61968 0.56921 0.19971 0.0
C718 C 0.57689 0.58679 0.14411 0.0
C719 C 0.57111 0.55399 0.1385 0.0
H720 H 0.60378 0.62012 0.17649 0.0
H721 H 0.56343 0.60702 0.12534 0.0
S722 S 0.614 0.47892 0.19861 0.0
N723 N 0.63073 0.50996 0.21807 0.0
N724 N 0.58635 0.49597 0.16209 0.0
C725 C 0.58965 0.52864 0.16441 0.0
C726 C 0.61391 0.53622 0.19487 0.0
C727 C 0.34659 0.45631 0.10194 0.0
C728 C 0.38927 0.45508 0.08805 0.0
C729 C 0.32871 0.42872 0.09571 0.0
C730 C 0.35227 0.3995 0.07428 0.0
H731 H 0.32617 0.47928 0.11659 0.0
H732 H 0.29486 0.43147 0.1057 0.0
S733 S 0.46595 0.3836 1.03236 0.0
N734 N 0.45559 0.42174 1.0533 0.0
N735 N 0.42143 0.3705 1.04054 0.0
C736 C 0.39575 0.39749 1.06135 0.0
C737 C 0.41438 0.42517 1.06845 0.0
C738 C 0.08133 0.19687 0.34706 0.0
C739 C 0.0978 0.2257 0.34622 0.0
C740 C 0.1109 0.16267 0.34518 0.0
C741 C 0.15823 0.15588 0.34335 0.0
H742 H 0.04512 0.20069 0.34837 0.0
H743 H 0.09656 0.14141 0.34542 0.0
S744 S 0.21875 0.22207 0.33932 0.0
N745 N 0.16451 0.24503 0.34227 0.0
N746 N 0.22021 0.181 0.33996 0.0
C747 C 0.1752 0.18447 0.3428 0.0
C748 C 0.14499 0.21928 0.34382 0.0
C749 C 0.26005 0.41126 0.93878 0.0
C750 C 0.2247 0.42147 0.96452 0.0
C751 C 0.27101 0.43557 0.91735 0.0
C752 C 0.24647 0.47109 0.92006 0.0
H753 H 0.28144 0.38449 0.93661 0.0
H754 H 0.30024 0.42657 0.89952 0.0
S755 S 0.14734 0.51095 0.98009 0.0
N756 N 0.16278 0.46928 0.98945 0.0
N757 N 0.1826 0.51496 0.94826 0.0
C758 C 0.20882 0.48141 0.94365 0.0
C759 C 0.19811 0.45661 0.96609 0.0
C760 C 0.30985 0.2939 0.97168 0.0
C761 C 0.32439 0.28477 1.00696 0.0
C762 C 0.33986 0.29883 0.94559 0.0
C763 C 0.3854 0.29526 0.95398 0.0
H764 H 0.27505 0.29684 0.96405 0.0
H765 H 0.32713 0.30572 0.9187 0.0
S766 S 0.43979 0.27266 1.04301 0.0
N767 N 0.38696 0.27245 1.04919 0.0
N768 N 0.44335 0.28273 1.00046 0.0
C769 C 0.40027 0.2865 0.98935 0.0
C770 C 0.3698 0.28081 1.01575 0.0
C771 C 0.37182 0.57894 1.02048 0.0
C772 C 0.41143 0.58804 1.01436 0.0
C773 C 0.34484 0.57388 0.9917 0.0
C774 C 0.35651 0.57782 0.95575 0.0
H775 H 0.36095 0.57668 1.04778 0.0
H776 H 0.31435 0.56719 0.99775 0.0
S777 S 0.45794 0.60047 0.92551 0.0
N778 N 0.46161 0.60027 0.96993 0.0
N779 N 0.41121 0.59057 0.91571 0.0
C780 C 0.39642 0.58655 0.9493 0.0
C781 C 0.4237 0.59188 0.97865 0.0
C782 C 0.66402 0.68874 1.05072 0.0
C783 C 0.65027 0.72312 1.06453 0.0
C784 C 0.63312 0.66972 1.04738 0.0
C785 C 0.58712 0.68461 1.0569 0.0
H786 H 0.69943 0.67574 1.04427 0.0
H787 H 0.64568 0.64276 1.03848 0.0
S788 S 0.53313 0.77474 0.09154 0.0
N789 N 0.58713 0.77191 0.08589 0.0
N790 N 0.52873 0.73659 0.07862 0.0
C791 C 0.57236 0.71965 1.06866 0.0
C792 C 0.60404 0.7388 0.07274 0.0
C793 C 0.85756 0.91039 0.81845 0.0
C794 C 0.90457 0.90436 0.81381 0.0
C795 C 0.82668 0.94397 0.81681 0.0
C796 C 0.84172 0.97291 0.81133 0.0
H797 H 0.84443 0.88902 0.82347 0.0
H798 H 0.79088 0.9474 0.821 0.0
S799 S 0.96087 0.97157 0.79718 0.0
N800 N 0.96436 0.93051 0.80263 0.0
N801 N 0.9063 0.9935 0.80053 0.0
C802 C 0.88843 0.96734 0.80643 0.0
C803 C 0.91984 0.93312 0.80737 0.0
C804 C 0.45547 0.24504 0.69452 0.0
C805 C 0.47086 0.2392 0.73011 0.0
C806 C 0.45394 0.21754 0.67142 0.0
C807 C 0.46811 0.18294 0.68282 0.0
H808 H 0.44623 0.27095 0.68392 0.0
H809 H 0.44326 0.2234 0.64387 0.0
S810 S 0.50974 0.15394 0.77417 0.0
N811 N 0.49858 0.19652 0.77644 0.0
N812 N 0.49632 0.14465 0.73286 0.0
C813 C 0.48147 0.1769 0.71898 0.0
C814 C 0.48273 0.20508 0.74266 0.0
C815 C 0.4458 0.44607 0.92497 0.0
C816 C 0.47722 0.4125 0.92234 0.0
C817 C 0.45284 0.47155 0.94848 0.0
C818 C 0.49151 0.46451 0.97053 0.0
H819 H 0.4144 0.45235 0.90988 0.0
H820 H 0.42641 0.49633 0.95087 0.0
S821 S 0.58658 0.38205 0.97118 0.0
N822 N 0.55059 0.37465 0.94149 0.0
N823 N 0.56367 0.42252 0.98587 0.0
C824 C 0.52482 0.43193 0.96631 0.0
C825 C 0.51771 0.40592 0.94218 0.0
C826 C 0.44083 0.94563 0.42728 0.0
C827 C 0.47436 0.91311 0.42306 0.0
C828 C 0.44603 0.97083 0.45202 0.0
C829 C 0.485 0.96466 0.47358 0.0
H830 H 0.40917 0.95115 0.41262 0.0
H831 H 0.41808 0.99461 0.45565 0.0
S832 S 0.58562 0.88585 0.46956 0.0
N833 N 0.55018 0.87766 0.43985 0.0
N834 N 0.55991 0.92516 0.48637 0.0
C835 C 0.52044 0.93348 0.4676 0.0
C836 C 0.51513 0.90767 0.44232 0.0
C837 C 0.4792 0.68611 0.2016 0.0
C838 C 0.44986 0.6984 0.17244 0.0
C839 C 0.48547 0.70886 0.2289 0.0
C840 C 0.46303 0.74474 0.22779 0.0
H841 H 0.49941 0.65904 0.2024 0.0
H842 H 0.51035 0.69857 0.24963 0.0
S843 S 0.37723 0.78954 0.161 0.0
N844 N 0.39354 0.74849 0.14717 0.0
N845 N 0.40651 0.79099 0.1979 0.0
C846 C 0.43118 0.75699 0.20046 0.0
C847 C 0.42424 0.73388 0.17297 0.0
loop_
_geom_bond_atom_site_label_1
_geom_bond_atom_site_label_2
_geom_bond_distance
_geom_bond_site_symmetry_2
_ccdc_geom_bond_type
O0 Tb1 2.506 1_556 S
O0 C14 1.265 1_556 S
Tb1 O0 2.506 1_554 S
Tb1 O6 2.312 1_454 S
Tb1 O10 2.271 . S
Tb1 O12 2.338 1_455 S
Tb1 O19 2.441 . S
C2 O10 1.252 . S
C2 O11 1.253 1_545 S
O3 Tb4 2.271 1_656 S
O3 C13 1.252 1_565 S
Tb4 O3 2.271 1_454 S
Tb4 O7 2.338 1_455 S
Tb4 O11 2.312 . S
Tb4 O15 2.441 1_554 S
Tb4 O16 2.506 1_554 S
C5 O15 1.244 . S
C5 O16 1.265 . S
O6 Tb1 2.312 1_656 S
O6 C13 1.253 . S
O7 Tb4 2.338 1_655 S
O7 C8 1.258 1_554 S
C8 O7 1.258 1_556 S
C8 O9 1.251 1_556 S
O9 C8 1.251 1_554 S
O10 Tb1 2.271 . S
O10 C2 1.252 . S
O11 C2 1.253 1_565 S
O11 Tb4 2.312 . S
O12 Tb1 2.338 1_655 S
O12 C17 1.258 . S
C13 O3 1.252 1_545 S
C13 O6 1.253 . S
C14 O0 1.265 1_554 S
C14 O19 1.244 . S
O15 Tb4 2.441 1_556 S
O15 C5 1.244 . S
O16 Tb4 2.506 1_556 S
O16 C5 1.265 . S
C17 O12 1.258 . S
C17 O18 1.251 . S
O18 C17 1.251 . S
O19 Tb1 2.441 . S
O19 C14 1.244 . S
O20 Tb21 2.506 . S
O20 C34 1.265 . S
Tb21 O20 2.506 . S
Tb21 O26 2.312 1_455 S
Tb21 O30 2.271 . S
Tb21 O32 2.338 . S
Tb21 O39 2.441 . S
C22 O30 1.252 . S
C22 O31 1.253 . S
O23 Tb24 2.271 1_655 S
O23 C33 1.252 . S
Tb24 O23 2.271 1_455 S
Tb24 O27 2.338 . S
Tb24 O31 2.312 . S
Tb24 O35 2.441 1_455 S
Tb24 O36 2.499 1_455 S
C25 O35 1.244 . S
C25 O36 1.285 . S
O26 Tb21 2.312 1_655 S
O26 C33 1.253 . S
O27 Tb24 2.338 . S
O27 C28 1.258 . S
C28 O27 1.258 . S
C28 O29 1.251 . S
O29 C28 1.251 . S
O30 Tb21 2.271 . S
O30 C22 1.252 . S
O31 C22 1.253 . S
O31 Tb24 2.312 . S
O32 Tb21 2.338 . S
O32 C37 1.258 . S
C33 O23 1.252 . S
C33 O26 1.253 . S
C34 O20 1.265 . S
C34 O39 1.244 . S
O35 Tb24 2.441 1_655 S
O35 C25 1.244 . S
O36 Tb24 2.499 1_655 S
O36 C25 1.285 . S
C37 O32 1.258 . S
C37 O38 1.251 . S
O38 C37 1.251 . S
O39 Tb21 2.441 . S
O39 C34 1.244 . S
O40 Tb41 2.506 . S
O40 C54 1.265 . S
Tb41 O40 2.506 . S
Tb41 O46 2.312 . S
Tb41 O50 2.271 . S
Tb41 O52 2.338 . S
Tb41 O59 2.441 . S
C42 O50 1.252 . S
C42 O51 1.253 . S
O43 Tb44 2.271 . S
O43 C53 1.252 . S
Tb44 O43 2.271 . S
Tb44 O47 2.338 . S
Tb44 O51 2.312 . S
Tb44 O55 2.441 . S
Tb44 O56 2.506 . S
C45 O55 1.244 . S
C45 O56 1.265 . S
O46 Tb41 2.312 . S
O46 C53 1.253 . S
O47 Tb44 2.338 . S
O47 C48 1.258 . S
C48 O47 1.258 . S
C48 O49 1.251 . S
O49 C48 1.251 . S
O50 Tb41 2.271 . S
O50 C42 1.252 . S
O51 C42 1.253 . S
O51 Tb44 2.312 . S
O52 Tb41 2.338 . S
O52 C57 1.258 . S
C53 O43 1.252 . S
C53 O46 1.253 . S
C54 O40 1.265 . S
C54 O59 1.244 . S
O55 Tb44 2.441 . S
O55 C45 1.244 . S
O56 Tb44 2.506 . S
O56 C45 1.265 . S
C57 O52 1.258 . S
C57 O58 1.251 . S
O58 C57 1.251 . S
O59 Tb41 2.441 . S
O59 C54 1.244 . S
O60 Tb61 2.506 . S
O60 C74 1.265 . S
Tb61 O60 2.506 . S
Tb61 O66 2.312 . S
Tb61 O70 2.271 1_545 S
Tb61 O72 2.338 1_545 S
Tb61 O79 2.441 1_545 S
C62 O70 1.252 . S
C62 O71 1.253 . S
O63 Tb64 2.271 . S
O63 C73 1.252 . S
Tb64 O63 2.271 . S
Tb64 O67 2.338 . S
Tb64 O71 2.312 1_545 S
Tb64 O75 2.441 . S
Tb64 O76 2.506 . S
C65 O75 1.244 . S
C65 O76 1.265 . S
O66 Tb61 2.312 . S
O66 C73 1.253 . S
O67 Tb64 2.338 . S
O67 C68 1.258 . S
C68 O67 1.258 . S
C68 O69 1.251 . S
O69 C68 1.251 . S
O70 Tb61 2.271 1_565 S
O70 C62 1.252 . S
O71 C62 1.253 . S
O71 Tb64 2.312 1_565 S
O72 Tb61 2.338 1_565 S
O72 C77 1.258 . S
C73 O63 1.252 . S
C73 O66 1.253 . S
C74 O60 1.265 . S
C74 O79 1.244 1_545 S
O75 Tb64 2.441 . S
O75 C65 1.244 . S
O76 Tb64 2.506 . S
O76 C65 1.265 . S
C77 O72 1.258 . S
C77 O78 1.251 . S
O78 C77 1.251 . S
O79 Tb61 2.441 1_565 S
O79 C74 1.244 1_565 S
O80 Tb81 2.506 . S
O80 C94 1.265 . S
Tb81 O80 2.506 . S
Tb81 O86 2.312 . S
Tb81 O90 2.271 . S
Tb81 O92 2.338 . S
Tb81 O99 2.441 . S
C82 O90 1.252 . S
C82 O91 1.253 . S
O83 Tb84 2.271 . S
O83 C93 1.252 . S
Tb84 O83 2.271 . S
Tb84 O87 2.338 . S
Tb84 O91 2.312 . S
Tb84 O95 2.441 . S
Tb84 O96 2.506 . S
C85 O95 1.244 . S
C85 O96 1.265 . S
O86 Tb81 2.312 . S
O86 C93 1.253 . S
O87 Tb84 2.338 . S
O87 C88 1.258 . S
C88 O87 1.258 . S
C88 O89 1.251 . S
O89 C88 1.251 . S
O90 Tb81 2.271 . S
O90 C82 1.252 . S
O91 C82 1.253 . S
O91 Tb84 2.312 . S
O92 Tb81 2.338 . S
O92 C97 1.258 . S
C93 O83 1.252 . S
C93 O86 1.253 . S
C94 O80 1.265 . S
C94 O99 1.244 . S
O95 Tb84 2.441 . S
O95 C85 1.244 . S
O96 Tb84 2.506 . S
O96 C85 1.265 . S
C97 O92 1.258 . S
C97 O98 1.251 . S
O98 C97 1.251 . S
O99 Tb81 2.441 . S
O99 C94 1.244 . S
O100 Tb101 2.506 . S
O100 C114 1.265 . S
Tb101 O100 2.506 . S
Tb101 O106 2.312 . S
Tb101 O110 2.271 . S
Tb101 O112 2.338 . S
Tb101 O119 2.441 . S
C102 O110 1.252 . S
C102 O111 1.253 . S
O103 Tb104 2.271 . S
O103 C113 1.252 . S
Tb104 O103 2.271 . S
Tb104 O107 2.338 . S
Tb104 O111 2.312 . S
Tb104 O115 2.441 . S
Tb104 O116 2.506 . S
C105 O115 1.244 . S
C105 O116 1.265 . S
O106 Tb101 2.312 . S
O106 C113 1.253 . S
O107 Tb104 2.338 . S
O107 C108 1.258 . S
C108 O107 1.258 . S
C108 O109 1.251 . S
O109 C108 1.251 . S
O110 Tb101 2.271 . S
O110 C102 1.252 . S
O111 C102 1.253 . S
O111 Tb104 2.312 . S
O112 Tb101 2.338 . S
O112 C117 1.258 . S
C113 O103 1.252 . S
C113 O106 1.253 . S
C114 O100 1.265 . S
C114 O119 1.244 . S
O115 Tb104 2.441 . S
O115 C105 1.244 . S
O116 Tb104 2.506 . S
O116 C105 1.265 . S
C117 O112 1.258 . S
C117 O118 1.251 . S
O118 C117 1.251 . S
O119 Tb101 2.441 . S
O119 C114 1.244 . S
O120 Tb121 2.506 . S
O120 C134 1.265 . S
Tb121 O120 2.506 . S
Tb121 O126 2.312 . S
Tb121 O130 2.271 . S
Tb121 O132 2.338 . S
Tb121 O139 2.441 . S
C122 O130 1.252 . S
C122 O131 1.253 . S
O123 Tb124 2.271 . S
O123 C133 1.252 . S
Tb124 O123 2.271 . S
Tb124 O127 2.338 . S
Tb124 O131 2.312 . S
Tb124 O135 2.441 . S
Tb124 O136 2.506 . S
C125 O135 1.244 . S
C125 O136 1.265 . S
O126 Tb121 2.312 . S
O126 C133 1.253 . S
O127 Tb124 2.338 . S
O127 C128 1.258 . S
C128 O127 1.258 . S
C128 O129 1.251 . S
O129 C128 1.251 . S
O130 Tb121 2.271 . S
O130 C122 1.252 . S
O131 C122 1.253 . S
O131 Tb124 2.312 . S
O132 Tb121 2.338 . S
O132 C137 1.258 . S
C133 O123 1.252 . S
C133 O126 1.253 . S
C134 O120 1.265 . S
C134 O139 1.244 . S
O135 Tb124 2.441 . S
O135 C125 1.244 . S
O136 Tb124 2.506 . S
O136 C125 1.265 . S
C137 O132 1.258 . S
C137 O138 1.251 . S
O138 C137 1.251 . S
O139 Tb121 2.441 . S
O139 C134 1.244 . S
O140 Tb141 2.506 . S
O140 C154 1.265 . S
Tb141 O140 2.506 . S
Tb141 O146 2.312 1_455 S
Tb141 O150 2.271 . S
Tb141 O152 2.338 1_455 S
Tb141 O159 2.441 . S
C142 O150 1.252 . S
C142 O151 1.253 . S
O143 Tb144 2.271 1_655 S
O143 C153 1.252 . S
Tb144 O143 2.271 1_455 S
Tb144 O147 2.338 1_455 S
Tb144 O151 2.312 . S
Tb144 O155 2.441 . S
Tb144 O156 2.506 . S
C145 O155 1.244 . S
C145 O156 1.265 . S
O146 Tb141 2.312 1_655 S
O146 C153 1.253 . S
O147 Tb144 2.338 1_655 S
O147 C148 1.258 . S
C148 O147 1.258 . S
C148 O149 1.251 . S
O149 C148 1.251 . S
O150 Tb141 2.271 . S
O150 C142 1.252 . S
O151 C142 1.253 . S
O151 Tb144 2.312 . S
O152 Tb141 2.338 1_655 S
O152 C157 1.258 . S
C153 O143 1.252 . S
C153 O146 1.253 . S
C154 O140 1.265 . S
C154 O159 1.244 . S
O155 Tb144 2.441 . S
O155 C145 1.244 . S
O156 Tb144 2.506 . S
O156 C145 1.265 . S
C157 O152 1.258 . S
C157 O158 1.251 . S
O158 C157 1.251 . S
O159 Tb141 2.441 . S
O159 C154 1.244 . S
O160 Tb161 2.506 1_556 S
O160 C174 1.265 1_556 S
Tb161 O160 2.506 1_554 S
Tb161 O166 2.312 1_554 S
Tb161 O170 2.271 . S
Tb161 O172 2.338 . S
Tb161 O179 2.441 . S
C162 O170 1.252 . S
C162 O171 1.253 . S
O163 Tb164 2.271 1_556 S
O163 C173 1.252 . S
Tb164 O163 2.271 1_554 S
Tb164 O167 2.338 . S
Tb164 O171 2.312 . S
Tb164 O175 2.441 1_554 S
Tb164 O176 2.506 1_554 S
C165 O175 1.244 . S
C165 O176 1.265 . S
O166 Tb161 2.312 1_556 S
O166 C173 1.253 . S
O167 Tb164 2.338 . S
O167 C168 1.258 1_554 S
C168 O167 1.258 1_556 S
C168 O169 1.251 1_556 S
O169 C168 1.251 1_554 S
O170 Tb161 2.271 . S
O170 C162 1.252 . S
O171 C162 1.253 . S
O171 Tb164 2.312 . S
O172 Tb161 2.338 . S
O172 C177 1.258 . S
C173 O163 1.252 . S
C173 O166 1.253 . S
C174 O160 1.265 1_554 S
C174 O179 1.244 . S
O175 Tb164 2.441 1_556 S
O175 C165 1.244 . S
O176 Tb164 2.506 1_556 S
O176 C165 1.265 . S
C177 O172 1.258 . S
C177 O178 1.251 . S
O178 C177 1.251 . S
O179 Tb161 2.441 . S
O179 C174 1.244 . S
O180 Tb181 2.506 . S
O180 C194 1.265 . S
Tb181 O180 2.506 . S
Tb181 O186 2.312 . S
Tb181 O190 2.271 1_545 S
Tb181 O192 2.338 1_545 S
Tb181 O199 2.441 1_545 S
C182 O190 1.252 . S
C182 O191 1.253 . S
O183 Tb184 2.271 . S
O183 C193 1.252 . S
Tb184 O183 2.271 . S
Tb184 O187 2.338 . S
Tb184 O191 2.312 1_545 S
Tb184 O195 2.441 . S
Tb184 O196 2.506 . S
C185 O195 1.244 . S
C185 O196 1.265 . S
O186 Tb181 2.312 . S
O186 C193 1.253 . S
O187 Tb184 2.338 . S
O187 C188 1.258 . S
C188 O187 1.258 . S
C188 O189 1.251 . S
O189 C188 1.251 . S
O190 Tb181 2.271 1_565 S
O190 C182 1.252 . S
O191 C182 1.253 . S
O191 Tb184 2.312 1_565 S
O192 Tb181 2.338 1_565 S
O192 C197 1.258 . S
C193 O183 1.252 . S
C193 O186 1.253 . S
C194 O180 1.265 . S
C194 O199 1.244 1_545 S
O195 Tb184 2.441 . S
O195 C185 1.244 . S
O196 Tb184 2.506 . S
O196 C185 1.265 . S
C197 O192 1.258 . S
C197 O198 1.251 . S
O198 C197 1.251 . S
O199 Tb181 2.441 1_565 S
O199 C194 1.244 1_565 S
O200 Tb201 2.506 . S
O200 C214 1.265 . S
Tb201 O200 2.506 . S
Tb201 O206 2.312 . S
Tb201 O210 2.271 . S
Tb201 O212 2.338 . S
Tb201 O219 2.441 . S
C202 O210 1.252 . S
C202 O211 1.253 . S
O203 Tb204 2.271 . S
O203 C213 1.252 . S
Tb204 O203 2.271 . S
Tb204 O207 2.338 . S
Tb204 O211 2.312 . S
Tb204 O215 2.441 . S
Tb204 O216 2.506 . S
C205 O215 1.244 . S
C205 O216 1.265 . S
O206 Tb201 2.312 . S
O206 C213 1.253 . S
O207 Tb204 2.338 . S
O207 C208 1.258 . S
C208 O207 1.258 . S
C208 O209 1.251 . S
O209 C208 1.251 . S
O210 Tb201 2.271 . S
O210 C202 1.252 . S
O211 C202 1.253 . S
O211 Tb204 2.312 . S
O212 Tb201 2.338 . S
O212 C217 1.258 . S
C213 O203 1.252 . S
C213 O206 1.253 . S
C214 O200 1.265 . S
C214 O219 1.244 . S
O215 Tb204 2.441 . S
O215 C205 1.244 . S
O216 Tb204 2.506 . S
O216 C205 1.265 . S
C217 O212 1.258 . S
C217 O218 1.251 . S
O218 C217 1.251 . S
O219 Tb201 2.441 . S
O219 C214 1.244 . S
O220 Tb221 2.506 . S
O220 C234 1.265 . S
Tb221 O220 2.506 . S
Tb221 O226 2.312 1_455 S
Tb221 O230 2.271 . S
Tb221 O232 2.338 . S
Tb221 O239 2.441 . S
C222 O230 1.252 . S
C222 O231 1.253 . S
O223 Tb224 2.271 1_655 S
O223 C233 1.252 . S
Tb224 O223 2.271 1_455 S
Tb224 O227 2.338 . S
Tb224 O231 2.312 . S
Tb224 O235 2.441 1_455 S
Tb224 O236 2.499 1_455 S
C225 O235 1.244 . S
C225 O236 1.285 . S
O226 Tb221 2.312 1_655 S
O226 C233 1.253 . S
O227 Tb224 2.338 . S
O227 C228 1.258 . S
C228 O227 1.258 . S
C228 O229 1.251 . S
O229 C228 1.251 . S
O230 Tb221 2.271 . S
O230 C222 1.252 . S
O231 C222 1.253 . S
O231 Tb224 2.312 . S
O232 Tb221 2.338 . S
O232 C237 1.258 . S
C233 O223 1.252 . S
C233 O226 1.253 . S
C234 O220 1.265 . S
C234 O239 1.244 . S
O235 Tb224 2.441 1_655 S
O235 C225 1.244 . S
O236 Tb224 2.499 1_655 S
O236 C225 1.285 . S
C237 O232 1.258 . S
C237 O238 1.251 . S
O238 C237 1.251 . S
O239 Tb221 2.441 . S
O239 C234 1.244 . S
O240 Tb241 2.506 . S
O240 C254 1.265 . S
Tb241 O240 2.506 . S
Tb241 O246 2.312 . S
Tb241 O250 2.271 . S
Tb241 O252 2.338 . S
Tb241 O259 2.441 . S
C242 O250 1.252 . S
C242 O251 1.253 . S
O243 Tb244 2.271 . S
O243 C253 1.252 . S
Tb244 O243 2.271 . S
Tb244 O247 2.338 . S
Tb244 O251 2.312 . S
Tb244 O255 2.441 . S
Tb244 O256 2.506 . S
C245 O255 1.244 . S
C245 O256 1.265 . S
O246 Tb241 2.312 . S
O246 C253 1.253 . S
O247 Tb244 2.338 . S
O247 C248 1.258 . S
C248 O247 1.258 . S
C248 O249 1.251 . S
O249 C248 1.251 . S
O250 Tb241 2.271 . S
O250 C242 1.252 . S
O251 C242 1.253 . S
O251 Tb244 2.312 . S
O252 Tb241 2.338 . S
O252 C257 1.258 . S
C253 O243 1.252 . S
C253 O246 1.253 . S
C254 O240 1.265 . S
C254 O259 1.244 . S
O255 Tb244 2.441 . S
O255 C245 1.244 . S
O256 Tb244 2.506 . S
O256 C245 1.265 . S
C257 O252 1.258 . S
C257 O258 1.251 . S
O258 C257 1.251 . S
O259 Tb241 2.441 . S
O259 C254 1.244 . S
O260 Tb261 2.506 1_556 S
O260 C274 1.265 1_556 S
Tb261 O260 2.506 1_554 S
Tb261 O266 2.312 1_554 S
Tb261 O270 2.271 . S
Tb261 O272 2.338 . S
Tb261 O279 2.441 . S
C262 O270 1.252 . S
C262 O271 1.253 . S
O263 Tb264 2.271 1_556 S
O263 C273 1.252 . S
Tb264 O263 2.271 1_554 S
Tb264 O267 2.338 . S
Tb264 O271 2.312 . S
Tb264 O275 2.441 1_554 S
Tb264 O276 2.506 1_554 S
C265 O275 1.244 . S
C265 O276 1.265 . S
O266 Tb261 2.312 1_556 S
O266 C273 1.253 . S
O267 Tb264 2.338 . S
O267 C268 1.258 1_554 S
C268 O267 1.258 1_556 S
C268 O269 1.251 1_556 S
O269 C268 1.251 1_554 S
O270 Tb261 2.271 . S
O270 C262 1.252 . S
O271 C262 1.253 . S
O271 Tb264 2.312 . S
O272 Tb261 2.338 . S
O272 C277 1.258 . S
C273 O263 1.252 . S
C273 O266 1.253 . S
C274 O260 1.265 1_554 S
C274 O279 1.244 . S
O275 Tb264 2.441 1_556 S
O275 C265 1.244 . S
O276 Tb264 2.506 1_556 S
O276 C265 1.265 . S
C277 O272 1.258 . S
C277 O278 1.251 . S
O278 C277 1.251 . S
O279 Tb261 2.441 . S
O279 C274 1.244 . S
O280 Tb281 2.506 . S
O280 C294 1.265 . S
Tb281 O280 2.506 . S
Tb281 O286 2.312 . S
Tb281 O290 2.271 . S
Tb281 O292 2.338 . S
Tb281 O299 2.441 . S
C282 O290 1.252 . S
C282 O291 1.253 1_545 S
O283 Tb284 2.271 . S
O283 C293 1.252 1_565 S
Tb284 O283 2.271 . S
Tb284 O287 2.338 . S
Tb284 O291 2.312 . S
Tb284 O295 2.441 . S
Tb284 O296 2.506 . S
C285 O295 1.244 . S
C285 O296 1.265 . S
O286 Tb281 2.312 . S
O286 C293 1.253 . S
O287 Tb284 2.338 . S
O287 C288 1.258 . S
C288 O287 1.258 . S
C288 O289 1.251 . S
O289 C288 1.251 . S
O290 Tb281 2.271 . S
O290 C282 1.252 . S
O291 C282 1.253 1_565 S
O291 Tb284 2.312 . S
O292 Tb281 2.338 . S
O292 C297 1.258 . S
C293 O283 1.252 1_545 S
C293 O286 1.253 . S
C294 O280 1.265 . S
C294 O299 1.244 . S
O295 Tb284 2.441 . S
O295 C285 1.244 . S
O296 Tb284 2.506 . S
O296 C285 1.265 . S
C297 O292 1.258 . S
C297 O298 1.251 . S
O298 C297 1.251 . S
O299 Tb281 2.441 . S
O299 C294 1.244 . S
O300 Tb301 2.506 1_556 S
O300 C314 1.265 1_556 S
Tb301 O300 2.506 1_554 S
Tb301 O306 2.312 1_554 S
Tb301 O310 2.271 . S
Tb301 O312 2.338 . S
Tb301 O319 2.441 . S
C302 O310 1.252 . S
C302 O311 1.253 . S
O303 Tb304 2.271 1_556 S
O303 C313 1.252 . S
Tb304 O303 2.271 1_554 S
Tb304 O307 2.338 . S
Tb304 O311 2.312 . S
Tb304 O315 2.441 1_554 S
Tb304 O316 2.506 1_554 S
C305 O315 1.244 . S
C305 O316 1.265 . S
O306 Tb301 2.312 1_556 S
O306 C313 1.253 . S
O307 Tb304 2.338 . S
O307 C308 1.258 1_554 S
C308 O307 1.258 1_556 S
C308 O309 1.251 1_556 S
O309 C308 1.251 1_554 S
O310 Tb301 2.271 . S
O310 C302 1.252 . S
O311 C302 1.253 . S
O311 Tb304 2.312 . S
O312 Tb301 2.338 . S
O312 C317 1.258 . S
C313 O303 1.252 . S
C313 O306 1.253 . S
C314 O300 1.265 1_554 S
C314 O319 1.244 . S
O315 Tb304 2.441 1_556 S
O315 C305 1.244 . S
O316 Tb304 2.506 1_556 S
O316 C305 1.265 . S
C317 O312 1.258 . S
C317 O318 1.251 . S
O318 C317 1.251 . S
O319 Tb301 2.441 . S
O319 C314 1.244 . S
C320 C321 1.369 1_655 S
C320 C322 1.419 . S
C320 H324 0.930 . S
C321 C320 1.369 1_455 S
C321 C330 1.429 . S
C322 C320 1.419 . S
C322 C323 1.363 1_655 S
C322 H325 0.929 . S
C323 C322 1.363 1_455 S
C323 C329 1.428 . S
H324 C320 0.930 . S
H325 C322 0.929 . S
S326 N327 1.613 . S
S326 N328 1.610 . S
N327 S326 1.613 . S
N327 C330 1.350 . S
N328 S326 1.610 . S
N328 C329 1.351 . S
C329 C323 1.428 . S
C329 N328 1.351 . S
C329 C330 1.434 . S
C330 C321 1.429 . S
C330 N327 1.350 . S
C330 C329 1.434 . S
C331 C332 1.369 . S
C331 C333 1.419 . S
C331 H335 0.930 . S
C332 C331 1.369 . S
C332 C341 1.429 . S
C333 C331 1.419 . S
C333 C334 1.363 . S
C333 H336 0.929 . S
C334 C333 1.363 . S
C334 C340 1.428 . S
H335 C331 0.930 . S
H336 C333 0.929 . S
S337 N338 1.613 . S
S337 N339 1.610 . S
N338 S337 1.613 . S
N338 C341 1.350 . S
N339 S337 1.610 . S
N339 C340 1.351 . S
C340 C334 1.428 . S
C340 N339 1.351 . S
C340 C341 1.434 . S
C341 C332 1.429 . S
C341 N338 1.350 . S
C341 C340 1.434 . S
C342 C343 1.369 . S
C342 C344 1.419 . S
C342 H346 0.930 . S
C343 C342 1.369 . S
C343 C352 1.429 . S
C344 C342 1.419 . S
C344 C345 1.363 . S
C344 H347 0.929 . S
C345 C344 1.363 . S
C345 C351 1.428 . S
H346 C342 0.930 . S
H347 C344 0.929 . S
S348 N349 1.613 . S
S348 N350 1.610 . S
N349 S348 1.613 . S
N349 C352 1.350 . S
N350 S348 1.610 . S
N350 C351 1.351 . S
C351 C345 1.428 . S
C351 N350 1.351 . S
C351 C352 1.434 . S
C352 C343 1.429 . S
C352 N349 1.350 . S
C352 C351 1.434 . S
C353 C354 1.369 . S
C353 C355 1.419 . S
C353 H357 0.930 . S
C354 C353 1.369 . S
C354 C363 1.429 1_545 S
C355 C353 1.419 . S
C355 C356 1.363 . S
C355 H358 0.929 . S
C356 C355 1.363 . S
C356 C362 1.428 1_545 S
H357 C353 0.930 . S
H358 C355 0.929 . S
S359 N360 1.613 . S
S359 N361 1.610 . S
N360 S359 1.613 . S
N360 C363 1.350 . S
N361 S359 1.610 . S
N361 C362 1.351 . S
C362 C356 1.428 1_565 S
C362 N361 1.351 . S
C362 C363 1.434 . S
C363 C354 1.429 1_565 S
C363 N360 1.350 . S
C363 C362 1.434 . S
C364 C365 1.369 . S
C364 C366 1.419 . S
C364 H368 0.930 1_545 S
C365 C364 1.369 . S
C365 C374 1.429 . S
C366 C364 1.419 . S
C366 C367 1.363 . S
C366 H369 0.929 . S
C367 C366 1.363 . S
C367 C373 1.428 . S
H368 C364 0.930 1_565 S
H369 C366 0.929 . S
S370 N371 1.613 . S
S370 N372 1.610 . S
N371 S370 1.613 . S
N371 C374 1.350 . S
N372 S370 1.610 . S
N372 C373 1.351 . S
C373 C367 1.428 . S
C373 N372 1.351 . S
C373 C374 1.434 . S
C374 C365 1.429 . S
C374 N371 1.350 . S
C374 C373 1.434 . S
C375 C376 1.369 1_655 S
C375 C377 1.419 . S
C375 H379 0.930 . S
C376 C375 1.369 1_455 S
C376 C385 1.429 . S
C377 C375 1.419 . S
C377 C378 1.363 1_655 S
C377 H380 0.929 . S
C378 C377 1.363 1_455 S
C378 C384 1.428 . S
H379 C375 0.930 . S
H380 C377 0.929 . S
S381 N382 1.613 . S
S381 N383 1.610 . S
N382 S381 1.613 . S
N382 C385 1.350 . S
N383 S381 1.610 . S
N383 C384 1.351 . S
C384 C378 1.428 . S
C384 N383 1.351 . S
C384 C385 1.434 . S
C385 C376 1.429 . S
C385 N382 1.350 . S
C385 C384 1.434 . S
C386 C387 1.369 . S
C386 C388 1.419 . S
C386 H390 0.930 . S
C387 C386 1.369 . S
C387 C396 1.429 . S
C388 C386 1.419 . S
C388 C389 1.363 . S
C388 H391 0.929 . S
C389 C388 1.363 . S
C389 C395 1.428 . S
H390 C386 0.930 . S
H391 C388 0.929 . S
S392 N393 1.613 . S
S392 N394 1.610 . S
N393 S392 1.613 . S
N393 C396 1.350 . S
N394 S392 1.610 . S
N394 C395 1.351 . S
C395 C389 1.428 . S
C395 N394 1.351 . S
C395 C396 1.434 . S
C396 C387 1.429 . S
C396 N393 1.350 . S
C396 C395 1.434 . S
C397 C398 1.369 . S
C397 C399 1.419 . S
C397 H401 0.930 . S
C398 C397 1.369 . S
C398 C407 1.429 . S
C399 C397 1.419 . S
C399 C400 1.363 . S
C399 H402 0.929 . S
C400 C399 1.363 . S
C400 C406 1.428 . S
H401 C397 0.930 . S
H402 C399 0.929 . S
S403 N404 1.613 . S
S403 N405 1.610 . S
N404 S403 1.613 . S
N404 C407 1.350 . S
N405 S403 1.610 . S
N405 C406 1.351 . S
C406 C400 1.428 . S
C406 N405 1.351 . S
C406 C407 1.434 . S
C407 C398 1.429 . S
C407 N404 1.350 . S
C407 C406 1.434 . S
C408 C409 1.369 . S
C408 C410 1.419 . S
C408 H412 0.930 . S
C409 C408 1.369 . S
C409 C418 1.429 . S
C410 C408 1.419 . S
C410 C411 1.363 . S
C410 H413 0.929 . S
C411 C410 1.363 . S
C411 C417 1.428 . S
H412 C408 0.930 . S
H413 C410 0.929 . S
S414 N415 1.613 . S
S414 N416 1.610 . S
N415 S414 1.613 . S
N415 C418 1.350 . S
N416 S414 1.610 . S
N416 C417 1.351 . S
C417 C411 1.428 . S
C417 N416 1.351 . S
C417 C418 1.434 . S
C418 C409 1.429 . S
C418 N415 1.350 . S
C418 C417 1.434 . S
C419 C420 1.369 . S
C419 C421 1.419 . S
C419 H423 0.930 . S
C420 C419 1.369 . S
C420 C429 1.429 . S
C421 C419 1.419 . S
C421 C422 1.363 . S
C421 H424 0.929 . S
C422 C421 1.363 . S
C422 C428 1.428 . S
H423 C419 0.930 . S
H424 C421 0.929 . S
S425 N426 1.613 . S
S425 N427 1.610 . S
N426 S425 1.613 . S
N426 C429 1.350 . S
N427 S425 1.610 . S
N427 C428 1.351 . S
C428 C422 1.428 . S
C428 N427 1.351 . S
C428 C429 1.434 . S
C429 C420 1.429 . S
C429 N426 1.350 . S
C429 C428 1.434 . S
C430 C431 1.369 . S
C430 C432 1.419 . S
C430 H434 0.930 . S
C431 C430 1.369 . S
C431 C440 1.429 1_545 S
C432 C430 1.419 . S
C432 C433 1.363 . S
C432 H435 0.929 . S
C433 C432 1.363 . S
C433 C439 1.428 . S
H434 C430 0.930 . S
H435 C432 0.929 . S
S436 N437 1.613 . S
S436 N438 1.610 . S
N437 S436 1.613 . S
N437 C440 1.350 . S
N438 S436 1.610 . S
N438 C439 1.351 1_565 S
C439 C433 1.428 . S
C439 N438 1.351 1_545 S
C439 C440 1.434 1_545 S
C440 C431 1.429 1_565 S
C440 N437 1.350 . S
C440 C439 1.434 1_565 S
C441 C442 1.369 . S
C441 C443 1.419 1_455 S
C441 H445 0.930 1_455 S
C442 C441 1.369 . S
C442 C451 1.429 . S
C443 C441 1.419 1_655 S
C443 C444 1.363 1_655 S
C443 H446 0.929 . S
C444 C443 1.363 1_455 S
C444 C450 1.428 . S
H445 C441 0.930 1_655 S
H446 C443 0.929 . S
S447 N448 1.613 . S
S447 N449 1.610 . S
N448 S447 1.613 . S
N448 C451 1.350 . S
N449 S447 1.610 . S
N449 C450 1.351 . S
C450 C444 1.428 . S
C450 N449 1.351 . S
C450 C451 1.434 . S
C451 C442 1.429 . S
C451 N448 1.350 . S
C451 C450 1.434 . S
C452 C453 1.369 1_556 S
C452 C454 1.419 . S
C452 H456 0.930 . S
C453 C452 1.369 1_554 S
C453 C462 1.429 . S
C454 C452 1.419 . S
C454 C455 1.363 1_556 S
C454 H457 0.929 . S
C455 C454 1.363 1_554 S
C455 C461 1.428 . S
H456 C452 0.930 . S
H457 C454 0.929 . S
S458 N459 1.613 . S
S458 N460 1.610 . S
N459 S458 1.613 . S
N459 C462 1.350 . S
N460 S458 1.610 . S
N460 C461 1.351 . S
C461 C455 1.428 . S
C461 N460 1.351 . S
C461 C462 1.434 . S
C462 C453 1.429 . S
C462 N459 1.350 . S
C462 C461 1.434 . S
C463 C464 1.369 . S
C463 C465 1.419 . S
C463 H467 0.930 . S
C464 C463 1.369 . S
C464 C473 1.429 . S
C465 C463 1.419 . S
C465 C466 1.363 . S
C465 H468 0.929 . S
C466 C465 1.363 . S
C466 C472 1.428 . S
H467 C463 0.930 . S
H468 C465 0.929 . S
S469 N470 1.613 . S
S469 N471 1.610 . S
N470 S469 1.613 . S
N470 C473 1.350 . S
N471 S469 1.610 . S
N471 C472 1.351 . S
C472 C466 1.428 . S
C472 N471 1.351 . S
C472 C473 1.434 . S
C473 C464 1.429 . S
C473 N470 1.350 . S
C473 C472 1.434 . S
C474 C475 1.369 . S
C474 C476 1.419 . S
C474 H478 0.930 . S
C475 C474 1.369 . S
C475 C484 1.429 . S
C476 C474 1.419 . S
C476 C477 1.363 . S
C476 H479 0.929 . S
C477 C476 1.363 . S
C477 C483 1.428 . S
H478 C474 0.930 . S
H479 C476 0.929 . S
S480 N481 1.613 . S
S480 N482 1.610 . S
N481 S480 1.613 . S
N481 C484 1.350 . S
N482 S480 1.610 . S
N482 C483 1.351 . S
C483 C477 1.428 . S
C483 N482 1.351 . S
C483 C484 1.434 . S
C484 C475 1.429 . S
C484 N481 1.350 . S
C484 C483 1.434 . S
C485 C486 1.369 . S
C485 C487 1.419 . S
C485 H489 0.930 . S
C486 C485 1.369 . S
C486 C495 1.429 . S
C487 C485 1.419 . S
C487 C488 1.363 . S
C487 H490 0.929 . S
C488 C487 1.363 . S
C488 C494 1.428 . S
H489 C485 0.930 . S
H490 C487 0.929 . S
S491 N492 1.613 . S
S491 N493 1.610 . S
N492 S491 1.613 . S
N492 C495 1.350 . S
N493 S491 1.610 . S
N493 C494 1.351 . S
C494 C488 1.428 . S
C494 N493 1.351 . S
C494 C495 1.434 . S
C495 C486 1.429 . S
C495 N492 1.350 . S
C495 C494 1.434 . S
C496 C497 1.369 . S
C496 C498 1.419 . S
C496 H500 0.930 . S
C497 C496 1.369 . S
C497 C506 1.429 . S
C498 C496 1.419 . S
C498 C499 1.363 . S
C498 H501 0.929 . S
C499 C498 1.363 . S
C499 C505 1.428 . S
H500 C496 0.930 . S
H501 C498 0.929 . S
S502 N503 1.613 . S
S502 N504 1.610 . S
N503 S502 1.613 . S
N503 C506 1.350 . S
N504 S502 1.610 . S
N504 C505 1.351 . S
C505 C499 1.428 . S
C505 N504 1.351 . S
C505 C506 1.434 . S
C506 C497 1.429 . S
C506 N503 1.350 . S
C506 C505 1.434 . S
C507 C508 1.369 . S
C507 C509 1.419 . S
C507 H511 0.930 . S
C508 C507 1.369 . S
C508 C517 1.429 . S
C509 C507 1.419 . S
C509 C510 1.363 . S
C509 H512 0.929 . S
C510 C509 1.363 . S
C510 C516 1.428 . S
H511 C507 0.930 . S
H512 C509 0.929 . S
S513 N514 1.613 . S
S513 N515 1.610 . S
N514 S513 1.613 . S
N514 C517 1.350 . S
N515 S513 1.610 . S
N515 C516 1.351 . S
C516 C510 1.428 . S
C516 N515 1.351 . S
C516 C517 1.434 . S
C517 C508 1.429 . S
C517 N514 1.350 . S
C517 C516 1.434 . S
C518 C519 1.369 . S
C518 C520 1.419 . S
C518 H522 0.930 . S
C519 C518 1.369 . S
C519 C528 1.429 . S
C520 C518 1.419 . S
C520 C521 1.363 . S
C520 H523 0.929 . S
C521 C520 1.363 . S
C521 C527 1.428 . S
H522 C518 0.930 . S
H523 C520 0.929 . S
S524 N525 1.613 . S
S524 N526 1.610 . S
N525 S524 1.613 . S
N525 C528 1.350 . S
N526 S524 1.610 . S
N526 C527 1.351 . S
C527 C521 1.428 . S
C527 N526 1.351 . S
C527 C528 1.434 . S
C528 C519 1.429 . S
C528 N525 1.350 . S
C528 C527 1.434 . S
C529 C530 1.369 . S
C529 C531 1.419 . S
C529 H533 0.930 . S
C530 C529 1.369 . S
C530 C539 1.429 . S
C531 C529 1.419 . S
C531 C532 1.363 . S
C531 H534 0.929 . S
C532 C531 1.363 . S
C532 C538 1.428 . S
H533 C529 0.930 . S
H534 C531 0.929 . S
S535 N536 1.613 . S
S535 N537 1.610 . S
N536 S535 1.613 . S
N536 C539 1.350 . S
N537 S535 1.610 . S
N537 C538 1.351 . S
C538 C532 1.428 . S
C538 N537 1.351 . S
C538 C539 1.434 . S
C539 C530 1.429 . S
C539 N536 1.350 . S
C539 C538 1.434 . S
C540 C541 1.369 . S
C540 C542 1.419 . S
C540 H544 0.930 . S
C541 C540 1.369 . S
C541 C550 1.429 . S
C542 C540 1.419 . S
C542 C543 1.363 . S
C542 H545 0.929 . S
C543 C542 1.363 . S
C543 C549 1.428 . S
H544 C540 0.930 . S
H545 C542 0.929 . S
S546 N547 1.613 . S
S546 N548 1.610 . S
N547 S546 1.613 . S
N547 C550 1.350 . S
N548 S546 1.610 . S
N548 C549 1.351 . S
C549 C543 1.428 . S
C549 N548 1.351 . S
C549 C550 1.434 . S
C550 C541 1.429 . S
C550 N547 1.350 . S
C550 C549 1.434 . S
C551 C552 1.369 . S
C551 C553 1.419 . S
C551 H555 0.930 . S
C552 C551 1.369 . S
C552 C561 1.429 1_455 S
C553 C551 1.419 . S
C553 C554 1.363 . S
C553 H556 0.929 . S
C554 C553 1.363 . S
C554 C560 1.428 1_455 S
H555 C551 0.930 . S
H556 C553 0.929 . S
S557 N558 1.613 . S
S557 N559 1.610 . S
N558 S557 1.613 . S
N558 C561 1.350 . S
N559 S557 1.610 . S
N559 C560 1.351 . S
C560 C554 1.428 1_655 S
C560 N559 1.351 . S
C560 C561 1.434 . S
C561 C552 1.429 1_655 S
C561 N558 1.350 . S
C561 C560 1.434 . S
C562 C563 1.369 . S
C562 C564 1.419 . S
C562 H566 0.930 . S
C563 C562 1.369 . S
C563 C572 1.429 . S
C564 C562 1.419 . S
C564 C565 1.363 . S
C564 H567 0.929 . S
C565 C564 1.363 . S
C565 C571 1.428 . S
H566 C562 0.930 . S
H567 C564 0.929 . S
S568 N569 1.613 . S
S568 N570 1.610 . S
N569 S568 1.613 . S
N569 C572 1.350 . S
N570 S568 1.610 . S
N570 C571 1.351 . S
C571 C565 1.428 . S
C571 N570 1.351 . S
C571 C572 1.434 . S
C572 C563 1.429 . S
C572 N569 1.350 . S
C572 C571 1.434 . S
C573 C574 1.369 . S
C573 C575 1.419 . S
C573 H577 0.930 . S
C574 C573 1.369 . S
C574 C583 1.429 . S
C575 C573 1.419 . S
C575 C576 1.363 . S
C575 H578 0.929 . S
C576 C575 1.363 . S
C576 C582 1.428 . S
H577 C573 0.930 . S
H578 C575 0.929 . S
S579 N580 1.613 . S
S579 N581 1.610 . S
N580 S579 1.613 . S
N580 C583 1.350 . S
N581 S579 1.610 . S
N581 C582 1.351 . S
C582 C576 1.428 . S
C582 N581 1.351 . S
C582 C583 1.434 . S
C583 C574 1.429 . S
C583 N580 1.350 . S
C583 C582 1.434 . S
C584 C585 1.369 . S
C584 C586 1.419 . S
C584 H588 0.930 . S
C585 C584 1.369 . S
C585 C594 1.429 . S
C586 C584 1.419 . S
C586 C587 1.363 . S
C586 H589 0.929 . S
C587 C586 1.363 . S
C587 C593 1.428 . S
H588 C584 0.930 . S
H589 C586 0.929 . S
S590 N591 1.613 . S
S590 N592 1.610 . S
N591 S590 1.613 . S
N591 C594 1.350 . S
N592 S590 1.610 . S
N592 C593 1.351 . S
C593 C587 1.428 . S
C593 N592 1.351 . S
C593 C594 1.434 . S
C594 C585 1.429 . S
C594 N591 1.350 . S
C594 C593 1.434 . S
C595 C596 1.369 . S
C595 C597 1.419 . S
C595 H599 0.930 . S
C596 C595 1.369 . S
C596 C605 1.429 . S
C597 C595 1.419 . S
C597 C598 1.363 . S
C597 H600 0.929 . S
C598 C597 1.363 . S
C598 C604 1.428 . S
H599 C595 0.930 . S
H600 C597 0.929 . S
S601 N602 1.613 . S
S601 N603 1.610 . S
N602 S601 1.613 . S
N602 C605 1.350 . S
N603 S601 1.610 . S
N603 C604 1.351 . S
C604 C598 1.428 . S
C604 N603 1.351 . S
C604 C605 1.434 . S
C605 C596 1.429 . S
C605 N602 1.350 . S
C605 C604 1.434 . S
C606 C607 1.370 1_565 S
C606 C608 1.414 1_565 S
C606 H610 0.934 . S
C607 C606 1.370 1_545 S
C607 C616 1.429 . S
C608 C606 1.414 1_545 S
C608 C609 1.363 . S
C608 H611 0.929 . S
C609 C608 1.363 . S
C609 C615 1.428 . S
H610 C606 0.934 . S
H611 C608 0.929 . S
S612 N613 1.613 . S
S612 N614 1.610 . S
N613 S612 1.613 . S
N613 C616 1.350 . S
N614 S612 1.610 . S
N614 C615 1.351 . S
C615 C609 1.428 . S
C615 N614 1.351 . S
C615 C616 1.434 . S
C616 C607 1.429 . S
C616 N613 1.350 . S
C616 C615 1.434 . S
C617 C618 1.369 . S
C617 C619 1.419 . S
C617 H621 0.930 . S
C618 C617 1.369 . S
C618 C627 1.429 . S
C619 C617 1.419 . S
C619 C620 1.363 . S
C619 H622 0.929 . S
C620 C619 1.363 . S
C620 C626 1.428 . S
H621 C617 0.930 . S
H622 C619 0.929 . S
S623 N624 1.613 . S
S623 N625 1.610 . S
N624 S623 1.613 . S
N624 C627 1.350 . S
N625 S623 1.610 . S
N625 C626 1.351 . S
C626 C620 1.428 . S
C626 N625 1.351 . S
C626 C627 1.434 . S
C627 C618 1.429 . S
C627 N624 1.350 . S
C627 C626 1.434 . S
C628 C629 1.369 . S
C628 C630 1.419 . S
C628 H632 0.930 . S
C629 C628 1.369 . S
C629 C638 1.429 . S
C630 C628 1.419 . S
C630 C631 1.363 . S
C630 H633 0.929 . S
C631 C630 1.363 . S
C631 C637 1.428 . S
H632 C628 0.930 . S
H633 C630 0.929 . S
S634 N635 1.613 . S
S634 N636 1.610 . S
N635 S634 1.613 . S
N635 C638 1.350 . S
N636 S634 1.610 . S
N636 C637 1.351 . S
C637 C631 1.428 . S
C637 N636 1.351 . S
C637 C638 1.434 . S
C638 C629 1.429 . S
C638 N635 1.350 . S
C638 C637 1.434 . S
C639 C640 1.369 . S
C639 C641 1.419 . S
C639 H643 0.930 . S
C640 C639 1.369 . S
C640 C649 1.429 . S
C641 C639 1.419 . S
C641 C642 1.363 . S
C641 H644 0.929 . S
C642 C641 1.363 . S
C642 C648 1.428 . S
H643 C639 0.930 . S
H644 C641 0.929 . S
S645 N646 1.613 . S
S645 N647 1.610 . S
N646 S645 1.613 . S
N646 C649 1.350 . S
N647 S645 1.610 . S
N647 C648 1.351 . S
C648 C642 1.428 . S
C648 N647 1.351 . S
C648 C649 1.434 . S
C649 C640 1.429 . S
C649 N646 1.350 . S
C649 C648 1.434 . S
C650 C651 1.369 . S
C650 C652 1.419 . S
C650 H654 0.930 . S
C651 C650 1.369 . S
C651 C660 1.429 . S
C652 C650 1.419 . S
C652 C653 1.363 . S
C652 H655 0.929 . S
C653 C652 1.363 . S
C653 C659 1.428 . S
H654 C650 0.930 . S
H655 C652 0.929 . S
S656 N657 1.613 . S
S656 N658 1.610 . S
N657 S656 1.613 . S
N657 C660 1.350 . S
N658 S656 1.610 . S
N658 C659 1.351 . S
C659 C653 1.428 . S
C659 N658 1.351 . S
C659 C660 1.434 . S
C660 C651 1.429 . S
C660 N657 1.350 . S
C660 C659 1.434 . S
C661 C662 1.369 . S
C661 C663 1.419 . S
C661 H665 0.930 . S
C662 C661 1.369 . S
C662 C671 1.429 . S
C663 C661 1.419 . S
C663 C664 1.363 . S
C663 H666 0.929 . S
C664 C663 1.363 . S
C664 C670 1.428 . S
H665 C661 0.930 . S
H666 C663 0.929 . S
S667 N668 1.613 . S
S667 N669 1.610 . S
N668 S667 1.613 . S
N668 C671 1.350 . S
N669 S667 1.610 . S
N669 C670 1.351 . S
C670 C664 1.428 . S
C670 N669 1.351 . S
C670 C671 1.434 . S
C671 C662 1.429 . S
C671 N668 1.350 . S
C671 C670 1.434 . S
C672 C673 1.369 . S
C672 C674 1.419 . S
C672 H676 0.930 . S
C673 C672 1.369 . S
C673 C682 1.429 . S
C674 C672 1.419 . S
C674 C675 1.363 . S
C674 H677 0.929 . S
C675 C674 1.363 . S
C675 C681 1.428 . S
H676 C672 0.930 . S
H677 C674 0.929 . S
S678 N679 1.613 . S
S678 N680 1.610 . S
N679 S678 1.613 . S
N679 C682 1.350 . S
N680 S678 1.610 . S
N680 C681 1.351 . S
C681 C675 1.428 . S
C681 N680 1.351 . S
C681 C682 1.434 . S
C682 C673 1.429 . S
C682 N679 1.350 . S
C682 C681 1.434 . S
C683 C684 1.369 . S
C683 C685 1.419 . S
C683 H687 0.930 . S
C684 C683 1.369 . S
C684 C693 1.429 . S
C685 C683 1.419 . S
C685 C686 1.363 . S
C685 H688 0.929 . S
C686 C685 1.363 . S
C686 C692 1.428 . S
H687 C683 0.930 . S
H688 C685 0.929 . S
S689 N690 1.613 . S
S689 N691 1.610 . S
N690 S689 1.613 . S
N690 C693 1.350 . S
N691 S689 1.610 . S
N691 C692 1.351 . S
C692 C686 1.428 . S
C692 N691 1.351 . S
C692 C693 1.434 . S
C693 C684 1.429 . S
C693 N690 1.350 . S
C693 C692 1.434 . S
C694 C695 1.369 . S
C694 C696 1.419 . S
C694 H698 0.930 . S
C695 C694 1.369 . S
C695 C704 1.429 . S
C696 C694 1.419 . S
C696 C697 1.363 . S
C696 H699 0.929 . S
C697 C696 1.363 . S
C697 C703 1.428 . S
H698 C694 0.930 . S
H699 C696 0.929 . S
S700 N701 1.613 . S
S700 N702 1.610 . S
N701 S700 1.613 . S
N701 C704 1.350 . S
N702 S700 1.610 . S
N702 C703 1.351 . S
C703 C697 1.428 . S
C703 N702 1.351 . S
C703 C704 1.434 . S
C704 C695 1.429 . S
C704 N701 1.350 . S
C704 C703 1.434 . S
C705 C706 1.369 . S
C705 C707 1.419 . S
C705 H709 0.930 . S
C706 C705 1.369 . S
C706 C715 1.429 . S
C707 C705 1.419 . S
C707 C708 1.363 . S
C707 H710 0.929 . S
C708 C707 1.363 . S
C708 C714 1.428 . S
H709 C705 0.930 . S
H710 C707 0.929 . S
S711 N712 1.613 . S
S711 N713 1.610 . S
N712 S711 1.613 . S
N712 C715 1.350 . S
N713 S711 1.610 . S
N713 C714 1.351 . S
C714 C708 1.428 . S
C714 N713 1.351 . S
C714 C715 1.434 . S
C715 C706 1.429 . S
C715 N712 1.350 . S
C715 C714 1.434 . S
C716 C717 1.369 . S
C716 C718 1.419 . S
C716 H720 0.930 . S
C717 C716 1.369 . S
C717 C726 1.429 . S
C718 C716 1.419 . S
C718 C719 1.363 . S
C718 H721 0.929 . S
C719 C718 1.363 . S
C719 C725 1.428 . S
H720 C716 0.930 . S
H721 C718 0.929 . S
S722 N723 1.613 . S
S722 N724 1.610 . S
N723 S722 1.613 . S
N723 C726 1.350 . S
N724 S722 1.610 . S
N724 C725 1.351 . S
C725 C719 1.428 . S
C725 N724 1.351 . S
C725 C726 1.434 . S
C726 C717 1.429 . S
C726 N723 1.350 . S
C726 C725 1.434 . S
C727 C728 1.380 . S
C727 C729 1.418 . S
C727 H731 0.919 1_556 S
C728 C727 1.380 . S
C728 C737 1.429 . S
C729 C727 1.418 . S
C729 C730 1.379 . S
C729 H732 0.914 1_556 S
C730 C729 1.379 . S
C730 C736 1.428 . S
H731 C727 0.919 1_554 S
H732 C729 0.914 1_554 S
S733 N734 1.613 . S
S733 N735 1.610 . S
N734 S733 1.613 . S
N734 C737 1.350 . S
N735 S733 1.610 . S
N735 C736 1.351 . S
C736 C730 1.428 . S
C736 N735 1.351 . S
C736 C737 1.434 . S
C737 C728 1.429 . S
C737 N734 1.350 . S
C737 C736 1.434 . S
C738 C739 1.369 . S
C738 C740 1.419 . S
C738 H742 0.930 . S
C739 C738 1.369 . S
C739 C748 1.429 . S
C740 C738 1.419 . S
C740 C741 1.363 . S
C740 H743 0.929 . S
C741 C740 1.363 . S
C741 C747 1.428 . S
H742 C738 0.930 . S
H743 C740 0.929 . S
S744 N745 1.613 . S
S744 N746 1.610 . S
N745 S744 1.613 . S
N745 C748 1.350 . S
N746 S744 1.610 . S
N746 C747 1.351 . S
C747 C741 1.428 . S
C747 N746 1.351 . S
C747 C748 1.434 . S
C748 C739 1.429 . S
C748 N745 1.350 . S
C748 C747 1.434 . S
C749 C750 1.369 . S
C749 C751 1.419 . S
C749 H753 0.930 . S
C750 C749 1.369 . S
C750 C759 1.429 . S
C751 C749 1.419 . S
C751 C752 1.363 . S
C751 H754 0.929 . S
C752 C751 1.363 . S
C752 C758 1.428 . S
H753 C749 0.930 . S
H754 C751 0.929 . S
S755 N756 1.613 . S
S755 N757 1.610 . S
N756 S755 1.613 . S
N756 C759 1.350 . S
N757 S755 1.610 . S
N757 C758 1.351 . S
C758 C752 1.428 . S
C758 N757 1.351 . S
C758 C759 1.434 . S
C759 C750 1.429 . S
C759 N756 1.350 . S
C759 C758 1.434 . S
C760 C761 1.369 . S
C760 C762 1.419 . S
C760 H764 0.930 . S
C761 C760 1.369 . S
C761 C770 1.429 . S
C762 C760 1.419 . S
C762 C763 1.363 . S
C762 H765 0.929 . S
C763 C762 1.363 . S
C763 C769 1.428 . S
H764 C760 0.930 . S
H765 C762 0.929 . S
S766 N767 1.613 . S
S766 N768 1.610 . S
N767 S766 1.613 . S
N767 C770 1.350 . S
N768 S766 1.610 . S
N768 C769 1.351 . S
C769 C763 1.428 . S
C769 N768 1.351 . S
C769 C770 1.434 . S
C770 C761 1.429 . S
C770 N767 1.350 . S
C770 C769 1.434 . S
C771 C772 1.369 . S
C771 C773 1.419 . S
C771 H775 0.930 . S
C772 C771 1.369 . S
C772 C781 1.429 . S
C773 C771 1.419 . S
C773 C774 1.363 . S
C773 H776 0.929 . S
C774 C773 1.363 . S
C774 C780 1.428 . S
H775 C771 0.930 . S
H776 C773 0.929 . S
S777 N778 1.613 . S
S777 N779 1.610 . S
N778 S777 1.613 . S
N778 C781 1.350 . S
N779 S777 1.610 . S
N779 C780 1.351 . S
C780 C774 1.428 . S
C780 N779 1.351 . S
C780 C781 1.434 . S
C781 C772 1.429 . S
C781 N778 1.350 . S
C781 C780 1.434 . S
C782 C783 1.369 . S
C782 C784 1.419 . S
C782 H786 0.930 . S
C783 C782 1.369 . S
C783 C792 1.429 1_554 S
C784 C782 1.419 . S
C784 C785 1.363 . S
C784 H787 0.929 . S
C785 C784 1.363 . S
C785 C791 1.428 1_554 S
H786 C782 0.930 . S
H787 C784 0.929 . S
S788 N789 1.613 . S
S788 N790 1.610 . S
N789 S788 1.613 . S
N789 C792 1.350 . S
N790 S788 1.610 . S
N790 C791 1.351 . S
C791 C785 1.428 1_556 S
C791 N790 1.351 . S
C791 C792 1.434 . S
C792 C783 1.429 1_556 S
C792 N789 1.350 . S
C792 C791 1.434 . S
C793 C794 1.369 . S
C793 C795 1.419 . S
C793 H797 0.930 . S
C794 C793 1.369 . S
C794 C803 1.429 . S
C795 C793 1.419 . S
C795 C796 1.363 . S
C795 H798 0.929 . S
C796 C795 1.363 . S
C796 C802 1.428 . S
H797 C793 0.930 . S
H798 C795 0.929 . S
S799 N800 1.613 . S
S799 N801 1.610 . S
N800 S799 1.613 . S
N800 C803 1.350 . S
N801 S799 1.610 . S
N801 C802 1.351 . S
C802 C796 1.428 . S
C802 N801 1.351 . S
C802 C803 1.434 . S
C803 C794 1.429 . S
C803 N800 1.350 . S
C803 C802 1.434 . S
C804 C805 1.369 . S
C804 C806 1.419 . S
C804 H808 0.930 . S
C805 C804 1.369 . S
C805 C814 1.429 . S
C806 C804 1.419 . S
C806 C807 1.363 . S
C806 H809 0.929 . S
C807 C806 1.363 . S
C807 C813 1.428 . S
H808 C804 0.930 . S
H809 C806 0.929 . S
S810 N811 1.613 . S
S810 N812 1.610 . S
N811 S810 1.613 . S
N811 C814 1.350 . S
N812 S810 1.610 . S
N812 C813 1.351 . S
C813 C807 1.428 . S
C813 N812 1.351 . S
C813 C814 1.434 . S
C814 C805 1.429 . S
C814 N811 1.350 . S
C814 C813 1.434 . S
C815 C816 1.369 . S
C815 C817 1.419 . S
C815 H819 0.930 . S
C816 C815 1.369 . S
C816 C825 1.429 . S
C817 C815 1.419 . S
C817 C818 1.363 . S
C817 H820 0.929 . S
C818 C817 1.363 . S
C818 C824 1.428 . S
H819 C815 0.930 . S
H820 C817 0.929 . S
S821 N822 1.613 . S
S821 N823 1.610 . S
N822 S821 1.613 . S
N822 C825 1.350 . S
N823 S821 1.610 . S
N823 C824 1.351 . S
C824 C818 1.428 . S
C824 N823 1.351 . S
C824 C825 1.434 . S
C825 C816 1.429 . S
C825 N822 1.350 . S
C825 C824 1.434 . S
C826 C827 1.369 . S
C826 C828 1.419 . S
C826 H830 0.930 . S
C827 C826 1.369 . S
C827 C836 1.429 . S
C828 C826 1.419 . S
C828 C829 1.363 . S
C828 H831 0.929 . S
C829 C828 1.363 . S
C829 C835 1.428 . S
H830 C826 0.930 . S
H831 C828 0.929 . S
S832 N833 1.613 . S
S832 N834 1.610 . S
N833 S832 1.613 . S
N833 C836 1.350 . S
N834 S832 1.610 . S
N834 C835 1.351 . S
C835 C829 1.428 . S
C835 N834 1.351 . S
C835 C836 1.434 . S
C836 C827 1.429 . S
C836 N833 1.350 . S
C836 C835 1.434 . S
C837 C838 1.369 . S
C837 C839 1.419 . S
C837 H841 0.930 . S
C838 C837 1.369 . S
C838 C847 1.429 . S
C839 C837 1.419 . S
C839 C840 1.363 . S
C839 H842 0.929 . S
C840 C839 1.363 . S
C840 C846 1.428 . S
H841 C837 0.930 . S
H842 C839 0.929 . S
S843 N844 1.613 . S
S843 N845 1.610 . S
N844 S843 1.613 . S
N844 C847 1.350 . S
N845 S843 1.610 . S
N845 C846 1.351 . S
C846 C840 1.428 . S
C846 N845 1.351 . S
C846 C847 1.434 . S
C847 C838 1.429 . S
C847 N844 1.350 . S
C847 C846 1.434 . S
C321 C17 1.831 1_455 S
C323 C34 1.844 . S
C332 C53 1.746 . S
C334 C25 1.665 . S
C343 C65 1.842 . S
C345 C57 1.825 . S
C354 C13 1.745 . S
C356 C74 1.666 . S
C365 C2 2.153 . S
C367 C188 1.828 . S
C376 C145 1.800 . S
C378 C28 1.679 . S
C387 C42 2.157 . S
C389 C217 1.821 . S
C398 C77 1.674 . S
C400 C265 1.804 . S
C409 C162 2.158 . S
C411 C37 1.820 . S
C420 C257 1.673 . S
C422 C45 1.807 . S
C431 C282 2.158 . S
C433 C68 1.818 . S
C442 C5 1.800 . S
C444 C228 1.681 . S
C453 C14 1.462 . S
C455 C174 1.461 . S
C464 C253 1.975 . S
C466 C82 1.978 . S
C475 C108 1.540 . S
C477 C288 1.545 . S
C486 C222 1.979 . S
C488 C133 1.976 . S
C497 C48 1.545 . S
C499 C148 1.546 . S
C508 C182 2.353 . S
C510 C93 2.353 . S
C519 C122 2.352 . S
C521 C213 2.352 . S
C530 C102 2.153 . S
C532 C237 1.828 . S
C541 C197 1.675 . S
C543 C105 1.807 . S
C552 C234 1.838 . S
C554 C157 1.830 1_455 S
C563 C113 1.745 . S
C565 C85 1.665 . S
C574 C185 1.845 . S
C576 C177 1.831 . S
C585 C273 1.746 . S
C587 C225 1.665 . S
C596 C125 1.839 . S
C598 C117 1.832 . S
C607 C194 1.664 . S
C609 C293 1.746 . S
C618 C268 1.540 . S
C620 C8 1.545 . S
C629 C54 1.458 . S
C631 C294 1.463 . S
C640 C242 2.353 . S
C642 C33 2.353 . S
C651 C154 1.454 . S
C653 C114 1.463 . S
C662 C73 1.976 . S
C664 C202 1.977 . S
C673 C245 1.847 . S
C675 C277 1.826 . S
C684 C153 1.745 . S
C686 C254 1.666 . S
C695 C128 1.827 . S
C697 C142 2.155 . S
C706 C97 1.827 . S
C708 C262 2.155 . S
C717 C248 1.818 . S
C719 C302 2.156 . S
C728 C308 1.544 . S
C730 C168 1.546 . S
C739 C22 1.978 . S
C741 C193 1.977 . S
C750 C165 1.808 . S
C752 C137 1.676 . S
C761 C173 1.745 . S
C763 C205 1.665 . S
C772 C313 1.748 . S
C774 C134 1.661 . S
C783 C274 1.454 . S
C785 C314 1.461 . S
C794 C233 2.352 . S
C796 C62 2.352 . S
C805 C214 1.838 . S
C807 C297 1.830 . S
C816 C208 1.682 . S
C818 C305 1.806 . S
C827 C88 1.675 . S
C829 C285 1.807 . S
C838 C317 1.825 . S
C840 C94 1.846 . S
