# Generated by pormake.
# Topology ukc, (4)-cn, num edge types: 1
# Building blocks:
#     Node 0, Type 0, BuildingBlock: KUFVIS_clean_sbu_0, # of connection points: 4
#     Node 1, Type 0, BuildingBlock: KUFVIS_clean_sbu_0, # of connection points: 4
#     Node 2, Type 0, BuildingBlock: KUFVIS_clean_sbu_0, # of connection points: 4
#     Node 3, Type 0, BuildingBlock: KUFVIS_clean_sbu_0, # of connection points: 4
#     Node 4, Type 0, BuildingBlock: KUFVIS_clean_sbu_0, # of connection points: 4
#     Node 5, Type 0, BuildingBlock: KUFVIS_clean_sbu_0, # of connection points: 4
#     Node 6, Type 0, BuildingBlock: KUFVIS_clean_sbu_0, # of connection points: 4
#     Node 7, Type 0, BuildingBlock: KUFVIS_clean_sbu_0, # of connection points: 4
#     Node 8, Type 0, BuildingBlock: KUFVIS_clean_sbu_0, # of connection points: 4
#     Node 9, Type 0, BuildingBlock: KUFVIS_clean_sbu_0, # of connection points: 4
#     Node 10, Type 0, BuildingBlock: KUFVIS_clean_sbu_0, # of connection points: 4
#     Node 11, Type 0, BuildingBlock: KUFVIS_clean_sbu_0, # of connection points: 4
#     Node 12, Type 0, BuildingBlock: KUFVIS_clean_sbu_0, # of connection points: 4
#     Node 13, Type 0, BuildingBlock: KUFVIS_clean_sbu_0, # of connection points: 4
#     Node 14, Type 0, BuildingBlock: KUFVIS_clean_sbu_0, # of connection points: 4
#     Node 15, Type 0, BuildingBlock: KUFVIS_clean_sbu_0, # of connection points: 4
#     Node 16, Type 0, BuildingBlock: KUFVIS_clean_sbu_0, # of connection points: 4
#     Node 17, Type 0, BuildingBlock: KUFVIS_clean_sbu_0, # of connection points: 4
#     Node 18, Type 0, BuildingBlock: KUFVIS_clean_sbu_0, # of connection points: 4
#     Node 19, Type 0, BuildingBlock: KUFVIS_clean_sbu_0, # of connection points: 4
#     Node 20, Type 0, BuildingBlock: KUFVIS_clean_sbu_0, # of connection points: 4
#     Node 21, Type 0, BuildingBlock: KUFVIS_clean_sbu_0, # of connection points: 4
#     Node 22, Type 0, BuildingBlock: KUFVIS_clean_sbu_0, # of connection points: 4
#     Node 23, Type 0, BuildingBlock: KUFVIS_clean_sbu_0, # of connection points: 4
#     Node 24, Type 0, BuildingBlock: KUFVIS_clean_sbu_0, # of connection points: 4
#     Node 25, Type 0, BuildingBlock: KUFVIS_clean_sbu_0, # of connection points: 4
#     Node 26, Type 0, BuildingBlock: KUFVIS_clean_sbu_0, # of connection points: 4
#     Node 27, Type 0, BuildingBlock: KUFVIS_clean_sbu_0, # of connection points: 4
#     Node 28, Type 0, BuildingBlock: KUFVIS_clean_sbu_0, # of connection points: 4
#     Node 29, Type 0, BuildingBlock: KUFVIS_clean_sbu_0, # of connection points: 4
#     Node 30, Type 0, BuildingBlock: KUFVIS_clean_sbu_0, # of connection points: 4
#     Node 31, Type 0, BuildingBlock: KUFVIS_clean_sbu_0, # of connection points: 4
#     Edge 32, Type (0, 0), BuildingBlock: CIFDUS_clean_linker_0, # of connection points: 2
#     Edge 33, Type (0, 0), BuildingBlock: CIFDUS_clean_linker_0, # of connection points: 2
#     Edge 34, Type (0, 0), BuildingBlock: CIFDUS_clean_linker_0, # of connection points: 2
#     Edge 35, Type (0, 0), BuildingBlock: CIFDUS_clean_linker_0, # of connection points: 2
#     Edge 36, Type (0, 0), BuildingBlock: CIFDUS_clean_linker_0, # of connection points: 2
#     Edge 37, Type (0, 0), BuildingBlock: CIFDUS_clean_linker_0, # of connection points: 2
#     Edge 38, Type (0, 0), BuildingBlock: CIFDUS_clean_linker_0, # of connection points: 2
#     Edge 39, Type (0, 0), BuildingBlock: CIFDUS_clean_linker_0, # of connection points: 2
#     Edge 40, Type (0, 0), BuildingBlock: CIFDUS_clean_linker_0, # of connection points: 2
#     Edge 41, Type (0, 0), BuildingBlock: CIFDUS_clean_linker_0, # of connection points: 2
#     Edge 42, Type (0, 0), BuildingBlock: CIFDUS_clean_linker_0, # of connection points: 2
#     Edge 43, Type (0, 0), BuildingBlock: CIFDUS_clean_linker_0, # of connection points: 2
#     Edge 44, Type (0, 0), BuildingBlock: CIFDUS_clean_linker_0, # of connection points: 2
#     Edge 45, Type (0, 0), BuildingBlock: CIFDUS_clean_linker_0, # of connection points: 2
#     Edge 46, Type (0, 0), BuildingBlock: CIFDUS_clean_linker_0, # of connection points: 2
#     Edge 47, Type (0, 0), BuildingBlock: CIFDUS_clean_linker_0, # of connection points: 2
#     Edge 48, Type (0, 0), BuildingBlock: CIFDUS_clean_linker_0, # of connection points: 2
#     Edge 49, Type (0, 0), BuildingBlock: CIFDUS_clean_linker_0, # of connection points: 2
#     Edge 50, Type (0, 0), BuildingBlock: CIFDUS_clean_linker_0, # of connection points: 2
#     Edge 51, Type (0, 0), BuildingBlock: CIFDUS_clean_linker_0, # of connection points: 2
#     Edge 52, Type (0, 0), BuildingBlock: CIFDUS_clean_linker_0, # of connection points: 2
#     Edge 53, Type (0, 0), BuildingBlock: CIFDUS_clean_linker_0, # of connection points: 2
#     Edge 54, Type (0, 0), BuildingBlock: CIFDUS_clean_linker_0, # of connection points: 2
#     Edge 55, Type (0, 0), BuildingBlock: CIFDUS_clean_linker_0, # of connection points: 2
#     Edge 56, Type (0, 0), BuildingBlock: CIFDUS_clean_linker_0, # of connection points: 2
#     Edge 57, Type (0, 0), BuildingBlock: CIFDUS_clean_linker_0, # of connection points: 2
#     Edge 58, Type (0, 0), BuildingBlock: CIFDUS_clean_linker_0, # of connection points: 2
#     Edge 59, Type (0, 0), BuildingBlock: CIFDUS_clean_linker_0, # of connection points: 2
#     Edge 60, Type (0, 0), BuildingBlock: CIFDUS_clean_linker_0, # of connection points: 2
#     Edge 61, Type (0, 0), BuildingBlock: CIFDUS_clean_linker_0, # of connection points: 2
#     Edge 62, Type (0, 0), BuildingBlock: CIFDUS_clean_linker_0, # of connection points: 2
#     Edge 63, Type (0, 0), BuildingBlock: CIFDUS_clean_linker_0, # of connection points: 2
#     Edge 64, Type (0, 0), BuildingBlock: CIFDUS_clean_linker_0, # of connection points: 2
#     Edge 65, Type (0, 0), BuildingBlock: CIFDUS_clean_linker_0, # of connection points: 2
#     Edge 66, Type (0, 0), BuildingBlock: CIFDUS_clean_linker_0, # of connection points: 2
#     Edge 67, Type (0, 0), BuildingBlock: CIFDUS_clean_linker_0, # of connection points: 2
#     Edge 68, Type (0, 0), BuildingBlock: CIFDUS_clean_linker_0, # of connection points: 2
#     Edge 69, Type (0, 0), BuildingBlock: CIFDUS_clean_linker_0, # of connection points: 2
#     Edge 70, Type (0, 0), BuildingBlock: CIFDUS_clean_linker_0, # of connection points: 2
#     Edge 71, Type (0, 0), BuildingBlock: CIFDUS_clean_linker_0, # of connection points: 2
#     Edge 72, Type (0, 0), BuildingBlock: CIFDUS_clean_linker_0, # of connection points: 2
#     Edge 73, Type (0, 0), BuildingBlock: CIFDUS_clean_linker_0, # of connection points: 2
#     Edge 74, Type (0, 0), BuildingBlock: CIFDUS_clean_linker_0, # of connection points: 2
#     Edge 75, Type (0, 0), BuildingBlock: CIFDUS_clean_linker_0, # of connection points: 2
#     Edge 76, Type (0, 0), BuildingBlock: CIFDUS_clean_linker_0, # of connection points: 2
#     Edge 77, Type (0, 0), BuildingBlock: CIFDUS_clean_linker_0, # of connection points: 2
#     Edge 78, Type (0, 0), BuildingBlock: CIFDUS_clean_linker_0, # of connection points: 2
#     Edge 79, Type (0, 0), BuildingBlock: CIFDUS_clean_linker_0, # of connection points: 2
#     Edge 80, Type (0, 0), BuildingBlock: CIFDUS_clean_linker_0, # of connection points: 2
#     Edge 81, Type (0, 0), BuildingBlock: CIFDUS_clean_linker_0, # of connection points: 2
#     Edge 82, Type (0, 0), BuildingBlock: CIFDUS_clean_linker_0, # of connection points: 2
#     Edge 83, Type (0, 0), BuildingBlock: CIFDUS_clean_linker_0, # of connection points: 2
#     Edge 84, Type (0, 0), BuildingBlock: CIFDUS_clean_linker_0, # of connection points: 2
#     Edge 85, Type (0, 0), BuildingBlock: CIFDUS_clean_linker_0, # of connection points: 2
#     Edge 86, Type (0, 0), BuildingBlock: CIFDUS_clean_linker_0, # of connection points: 2
#     Edge 87, Type (0, 0), BuildingBlock: CIFDUS_clean_linker_0, # of connection points: 2
#     Edge 88, Type (0, 0), BuildingBlock: CIFDUS_clean_linker_0, # of connection points: 2
#     Edge 89, Type (0, 0), BuildingBlock: CIFDUS_clean_linker_0, # of connection points: 2
#     Edge 90, Type (0, 0), BuildingBlock: CIFDUS_clean_linker_0, # of connection points: 2
#     Edge 91, Type (0, 0), BuildingBlock: CIFDUS_clean_linker_0, # of connection points: 2
#     Edge 92, Type (0, 0), BuildingBlock: CIFDUS_clean_linker_0, # of connection points: 2
#     Edge 93, Type (0, 0), BuildingBlock: CIFDUS_clean_linker_0, # of connection points: 2
#     Edge 94, Type (0, 0), BuildingBlock: CIFDUS_clean_linker_0, # of connection points: 2
#     Edge 95, Type (0, 0), BuildingBlock: CIFDUS_clean_linker_0, # of connection points: 2
# Relax obj value: 0.036
# Max RMSD: 0.054
# Mean RMSD: 0.054
data_MOF--net-ukc--node1-KUFVIS_clean_sbu_0--edge1-CIFDUS_clean_linker_0
_symmetry_space_group_name_H-M    P1
_symmetry_Int_Tables_number       1
_symmetry_cell_setting            triclinic
loop_
_symmetry_equiv_pos_as_xyz
'x, y, z'
_cell_length_a     38.240615
_cell_length_b     38.296929
_cell_length_c     76.697133
_cell_angle_alpha  90.092719
_cell_angle_beta   89.746864
_cell_angle_gamma 89.918527
loop_
_atom_site_label
_atom_site_type_symbol
_atom_site_fract_x
_atom_site_fract_y
_atom_site_fract_z
_atom_type_partial_charge
Mn0 Mn 0.11771 0.38241 0.06782 0.0
Mn1 Mn 0.11442 0.36287 0.02481 0.0
C2 C 0.07724 0.34102 0.0576 0.0
C3 C 0.13575 0.37641 0.09692 0.0
C4 C 0.08453 0.42943 0.04012 0.0
O5 O 0.16605 0.39914 0.05906 0.0
O6 O 0.15988 0.38353 0.03097 0.0
C7 C 0.16788 0.30689 0.02458 0.0
N8 N 0.13528 0.31844 0.02044 0.0
C9 C 0.12445 0.26791 1.00268 0.0
C10 C 0.15784 0.25523 1.00681 0.0
C11 C 0.17949 0.27463 1.01798 0.0
C12 C 0.11366 0.29926 1.01041 0.0
H13 H 0.18495 0.32237 0.03268 0.0
C14 C 0.17767 0.39666 0.04339 0.0
O15 O 0.12346 0.40538 0.09086 0.0
O16 O 0.13963 0.35094 0.08581 0.0
N17 N 0.07244 0.34279 1.01584 0.0
C18 C 0.04182 0.35969 1.01242 0.0
C19 C 0.01874 0.34593 1.0 0.0
C20 C 0.02724 0.31483 0.99121 0.0
C21 C 0.05877 0.29778 0.99496 0.0
C22 C 0.08085 0.31285 1.0074 0.0
H23 H 0.0356 0.38424 1.01863 0.0
O24 O 0.07172 0.35865 0.07181 0.0
O25 O 0.106 0.34872 0.04933 0.0
O26 O 0.09314 0.42286 0.05573 0.0
O27 O 0.09156 0.40892 0.02749 0.0
C28 C 0.06948 0.2667 0.98658 0.0
C29 C 0.10193 0.25131 0.99078 0.0
H30 H 0.16728 0.23089 1.00132 0.0
H31 H 0.20536 0.26515 0.02115 0.0
H32 H 0.99452 0.35936 0.99713 0.0
H33 H 0.00936 0.30427 0.98165 0.0
H34 H 0.05279 0.25423 0.97706 0.0
H35 H 0.10968 0.2272 0.98444 0.0
Mn36 Mn 0.87149 0.85652 0.31569 0.0
Mn37 Mn 0.901 0.84112 0.27481 0.0
C38 C 0.91481 0.8145 0.31083 0.0
C39 C 0.87224 0.88346 0.34312 0.0
C40 C 0.83278 0.8123 0.28825 0.0
O41 O 0.8554 0.90073 0.30262 0.0
O42 O 0.87445 0.88526 0.27594 0.0
C43 C 0.95062 0.90039 0.2736 0.0
N44 N 0.94427 0.86547 0.27229 0.0
C45 C 1.00538 0.85319 0.26826 0.0
C46 C 0.01261 0.88898 0.26946 0.0
C47 C 0.98505 0.9127 0.27207 0.0
C48 C 0.97047 0.84249 0.26953 0.0
H49 H 0.92966 0.91873 0.27593 0.0
C50 C 0.85874 0.90637 0.28623 0.0
O51 O 0.8443 0.86887 0.33701 0.0
O52 O 0.89928 0.88458 0.33281 0.0
N53 N 0.92757 0.79952 0.27151 0.0
C54 C 0.91608 0.76592 0.27046 0.0
C55 C 0.94042 0.73893 0.26787 0.0
C56 C 0.97613 0.7469 0.26651 0.0
C57 C 0.98701 0.78184 0.26685 0.0
C58 C 0.96153 0.80763 0.26887 0.0
H59 H 0.8887 0.75971 0.27195 0.0
O60 O 0.89485 0.8131 0.32451 0.0
O61 O 0.90883 0.84042 0.30023 0.0
O62 O 0.83456 0.82724 0.30308 0.0
O63 O 0.85673 0.81484 0.27665 0.0
C64 C 0.02228 0.79199 0.26643 0.0
C65 C 0.03155 0.82756 0.26668 0.0
H66 H 0.03923 0.89848 0.2686 0.0
H67 H 0.99039 0.94037 0.27312 0.0
H68 H 0.93183 0.71203 0.2675 0.0
H69 H 0.99501 0.72597 0.26568 0.0
H70 H 0.04248 0.77259 0.26727 0.0
H71 H 0.05892 0.83479 0.26645 0.0
Mn72 Mn 0.4009 0.6284 0.56418 0.0
Mn73 Mn 0.40318 0.66205 0.52344 0.0
C74 C 0.44144 0.6715 0.55737 0.0
C75 C 0.37933 0.6282 0.59288 0.0
C76 C 0.43573 0.59254 0.53256 0.0
O77 O 0.3539 0.61296 0.55402 0.0
O78 O 0.35868 0.63708 0.52741 0.0
C79 C 0.34647 0.71394 0.52822 0.0
N80 N 0.38026 0.70635 0.52395 0.0
C81 C 0.39349 0.76703 0.5196 0.0
C82 C 0.3588 0.77553 0.5238 0.0
C83 C 0.33516 0.74883 0.5281 0.0
C84 C 0.4031 0.73174 0.51961 0.0
H85 H 0.32832 0.69357 0.53178 0.0
C86 C 0.34196 0.61938 0.53881 0.0
O87 O 0.39339 0.60055 0.58596 0.0
O88 O 0.37663 0.65546 0.58296 0.0
N89 N 0.44445 0.68719 0.51758 0.0
C90 C 0.47714 0.67456 0.51428 0.0
C91 C 0.50429 0.698 0.51062 0.0
C92 C 0.49732 0.73395 0.51036 0.0
C93 C 0.46303 0.74611 0.51268 0.0
C94 C 0.43701 0.72153 0.51609 0.0
H95 H 0.48272 0.64696 0.51499 0.0
O96 O 0.44612 0.65098 0.57057 0.0
O97 O 0.41262 0.66672 0.5486 0.0
O98 O 0.42714 0.59285 0.5487 0.0
O99 O 0.42782 0.617 0.52199 0.0
C100 C 0.45407 0.78173 0.51297 0.0
C101 C 0.41928 0.79224 0.51609 0.0
H102 H 0.35015 0.80247 0.524 0.0
H103 H 0.30838 0.75516 0.53148 0.0
H104 H 0.53071 0.68854 0.50871 0.0
H105 H 0.51875 0.75194 0.50919 0.0
H106 H 0.47408 0.80127 0.51191 0.0
H107 H 0.41297 0.81982 0.51648 0.0
Mn108 Mn 0.63317 0.1614 0.81437 0.0
Mn109 Mn 0.60005 0.16382 0.77355 0.0
C110 C 0.58911 0.20141 0.80762 0.0
C111 C 0.63366 0.14066 0.84322 0.0
C112 C 0.66975 0.19616 0.78298 0.0
O113 O 0.64864 0.11406 0.80404 0.0
O114 O 0.62465 0.11905 0.77741 0.0
C115 C 0.54769 0.1075 0.77761 0.0
N116 N 0.55556 0.14127 0.77364 0.0
C117 C 0.49501 0.15489 0.76885 0.0
C118 C 0.48624 0.12023 0.77274 0.0
C119 C 0.51273 0.09641 0.77711 0.0
C120 C 0.53037 0.16428 0.76923 0.0
H121 H 0.56788 0.08919 0.78121 0.0
C122 C 0.64201 0.10204 0.7888 0.0
O123 O 0.66116 0.15454 0.83611 0.0
O124 O 0.60635 0.13739 0.83336 0.0
N125 N 0.57517 0.20535 0.76788 0.0
C126 C 0.58796 0.23806 0.76505 0.0
C127 C 0.56467 0.26536 0.76141 0.0
C128 C 0.52867 0.25859 0.76075 0.0
C129 C 0.51637 0.22437 0.76272 0.0
C130 C 0.54081 0.19816 0.76607 0.0
H131 H 0.61557 0.24349 0.76607 0.0
O132 O 0.60977 0.20658 0.82072 0.0
O133 O 0.59468 0.17276 0.79878 0.0
O134 O 0.66905 0.18771 0.7991 0.0
O135 O 0.6454 0.18817 0.77236 0.0
C136 C 0.48067 0.21562 0.76273 0.0
C137 C 0.46996 0.18084 0.76537 0.0
H138 H 0.45923 0.11175 0.77266 0.0
H139 H 0.50619 0.06966 0.78025 0.0
H140 H 0.57427 0.29173 0.7598 0.0
H141 H 0.51068 0.28008 0.75948 0.0
H142 H 0.46119 0.23579 0.7619 0.0
H143 H 0.44231 0.17471 0.76553 0.0
Mn144 Mn 0.08949 0.62506 0.47639 0.0
Mn145 Mn 0.08618 0.64507 0.51934 0.0
C146 C 0.045 0.66123 0.48697 0.0
C147 C 0.10818 0.63418 0.44764 0.0
C148 C 0.06127 0.57617 0.50466 0.0
O149 O 0.13875 0.61206 0.48454 0.0
O150 O 0.13311 0.62815 0.51257 0.0
C151 C 0.13458 0.70528 0.51882 0.0
N152 N 0.1033 0.69106 0.52342 0.0
C153 C 0.09045 0.73877 0.54279 0.0
C154 C 0.12239 0.75424 0.53816 0.0
C155 C 0.14434 0.73765 0.52592 0.0
C156 C 0.08121 0.70764 0.53444 0.0
H157 H 0.15211 0.6917 0.51003 0.0
C158 C 0.151 0.61583 0.49989 0.0
O159 O 0.0977 0.60386 0.45298 0.0
O160 O 0.10899 0.65914 0.45913 0.0
N161 N 0.04309 0.6616 0.52902 0.0
C162 C 0.01378 0.64254 0.53244 0.0
C163 C 0.99051 0.65363 0.54555 0.0
C164 C 0.99774 0.68403 0.55516 0.0
C165 C 0.02774 0.70357 0.55123 0.0
C166 C 0.04983 0.69136 0.53792 0.0
H167 H 0.00889 0.61828 0.52571 0.0
O168 O 0.04175 0.64383 0.47255 0.0
O169 O 0.07479 0.6576 0.49499 0.0
O170 O 0.06857 0.58265 0.48879 0.0
O171 O 0.06736 0.59755 0.517 0.0
C172 C 0.0371 0.73419 0.56032 0.0
C173 C 0.06804 0.75223 0.55582 0.0
H174 H 0.13056 0.77857 0.5441 0.0
H175 H 0.16916 0.74926 0.5224 0.0
H176 H 0.96737 0.63844 0.54846 0.0
H177 H 0.97994 0.6923 0.56538 0.0
H178 H 0.02047 0.74435 0.57061 0.0
H179 H 0.07469 0.77601 0.5627 0.0
Mn180 Mn 0.62932 0.8493 0.72522 0.0
Mn181 Mn 0.61072 0.84541 0.76831 0.0
C182 C 0.59261 0.80521 0.73581 0.0
C183 C 0.62045 0.86769 0.69644 0.0
C184 C 0.67871 0.81913 0.75273 0.0
O185 O 0.64303 0.89841 0.7336 0.0
O186 O 0.62871 0.89206 0.76181 0.0
C187 C 0.5518 0.8956 0.76867 0.0
N188 N 0.56529 0.86385 0.77293 0.0
C189 C 0.51759 0.85211 0.79253 0.0
C190 C 0.5029 0.88457 0.78826 0.0
C191 C 0.51984 0.9062 0.77608 0.0
C192 C 0.54829 0.84208 0.78387 0.0
H193 H 0.56565 0.91285 0.7599 0.0
C194 C 0.64039 0.91028 0.74915 0.0
O195 O 0.65065 0.85708 0.70186 0.0
O196 O 0.59539 0.8692 0.70794 0.0
N197 N 0.59323 0.80275 0.77785 0.0
C198 C 0.61169 0.77296 0.78102 0.0
C199 C 0.60043 0.75002 0.79415 0.0
C200 C 0.57048 0.75806 0.80406 0.0
C201 C 0.55138 0.78841 0.80031 0.0
C202 C 0.5638 0.8102 0.787 0.0
H203 H 0.63567 0.76744 0.77406 0.0
O204 O 0.60975 0.8019 0.72127 0.0
O205 O 0.59686 0.83481 0.74399 0.0
O206 O 0.67188 0.82756 0.73709 0.0
O207 O 0.65778 0.82506 0.76536 0.0
C208 C 0.52117 0.7985 0.80967 0.0
C209 C 0.50382 0.82995 0.8055 0.0
H210 H 0.47892 0.89336 0.79444 0.0
H211 H 0.50884 0.9314 0.77283 0.0
H212 H 0.61519 0.72654 0.79687 0.0
H213 H 0.56211 0.74052 0.81432 0.0
H214 H 0.51086 0.78209 0.81997 0.0
H215 H 0.48037 0.8372 0.81261 0.0
Mn216 Mn 0.42074 0.38593 0.97131 0.0
Mn217 Mn 0.42902 0.35697 1.01269 0.0
C218 C 0.46313 0.34425 0.97793 0.0
C219 C 0.40089 0.38689 0.94251 0.0
C220 C 0.45826 0.42562 1.00066 0.0
O221 O 0.37345 0.39978 0.98226 0.0
O222 O 0.38404 0.38196 1.00968 0.0
C223 C 0.37141 0.30534 1.01161 0.0
N224 N 0.40577 0.31296 1.0143 0.0
C225 C 0.41924 0.25263 1.01968 0.0
C226 C 0.384 0.24414 1.01709 0.0
C227 C 0.35996 0.27065 1.01308 0.0
C228 C 0.42902 0.28775 1.01838 0.0
H229 H 0.35286 0.32549 1.00829 0.0
C230 C 0.36445 0.3964 0.9983 0.0
O231 O 0.41255 0.4145 0.95025 0.0
O232 O 0.39799 0.35878 0.95194 0.0
N233 N 0.47079 0.33194 1.01769 0.0
C234 C 0.50391 0.34448 1.01948 0.0
C235 C 0.53133 0.32112 0.02273 0.0
C236 C 0.52422 0.28533 0.02411 0.0
C237 C 0.48965 0.27337 0.02339 0.0
C238 C 0.46338 0.29788 0.02033 0.0
H239 H 0.50956 0.37189 1.01786 0.0
O240 O 0.46667 0.36469 0.96458 0.0
O241 O 0.4348 0.34878 0.98727 0.0
O242 O 0.44565 0.42313 0.98543 0.0
O243 O 0.45444 0.40196 1.01219 0.0
C244 C 0.48049 0.23787 0.02431 0.0
C245 C 0.4453 0.22748 0.02281 0.0
H246 H 0.3752 0.21731 1.01793 0.0
H247 H 0.33273 0.26431 1.01096 0.0
H248 H 0.55799 0.33044 0.02342 0.0
H249 H 0.54568 0.26721 0.02489 0.0
H250 H 0.50052 0.21821 0.02502 0.0
H251 H 0.43881 0.19998 0.02335 0.0
Mn252 Mn 0.8794 0.15248 0.227 0.0
Mn253 Mn 0.90914 0.16357 0.26804 0.0
C254 C 0.92474 0.19158 0.23254 0.0
C255 C 0.88029 0.12634 0.19925 0.0
C256 C 0.84309 0.19784 0.25519 0.0
O257 O 0.86044 0.10865 0.23944 0.0
O258 O 0.87928 0.12177 0.2664 0.0
C259 C 0.95412 0.10047 0.26822 0.0
N260 N 0.9505 0.13572 0.26994 0.0
C261 C 0.01247 0.14286 0.27375 0.0
C262 C 0.01683 0.10665 0.27213 0.0
C263 C 0.9875 0.08535 0.2694 0.0
C264 C 0.97849 0.15637 0.27273 0.0
H265 H 0.93179 0.08396 0.26586 0.0
C266 C 0.86264 0.10221 0.2558 0.0
O267 O 0.8528 0.14247 0.20515 0.0
O268 O 0.90649 0.12353 0.20986 0.0
N269 N 0.93893 0.20263 0.27177 0.0
C270 C 0.93003 0.23691 0.27349 0.0
C271 C 0.95646 0.26175 0.27589 0.0
C272 C 0.99149 0.25083 0.2765 0.0
C273 C 0.99974 0.21526 0.27611 0.0
C274 C 0.97229 0.19173 0.27389 0.0
H275 H 0.90316 0.24531 0.27244 0.0
O276 O 0.90544 0.19493 0.21881 0.0
O277 O 0.91703 0.16538 0.24268 0.0
O278 O 0.84401 0.18332 0.24018 0.0
O279 O 0.86684 0.19338 0.26668 0.0
C280 C 0.03423 0.20236 0.27693 0.0
C281 C 0.04057 0.16615 0.2759 0.0
H282 H 0.0426 0.09495 0.27283 0.0
H283 H 0.99064 0.05739 0.26804 0.0
H284 H 0.95008 0.28927 0.27633 0.0
H285 H 0.01201 0.26993 0.27609 0.0
H286 H 0.05614 0.22002 0.27802 0.0
H287 H 0.0672 0.15656 0.27649 0.0
Mn288 Mn 0.93131 0.62985 0.97767 0.0
Mn289 Mn 0.92858 0.65282 0.02025 0.0
C290 C 0.96885 0.67336 0.98819 0.0
C291 C 0.91723 0.63124 0.94796 0.0
C292 C 0.96317 0.58677 1.00738 0.0
O293 O 0.8827 0.61225 0.98514 0.0
O294 O 0.88534 0.62849 1.01327 0.0
C295 C 0.87139 0.70476 1.01742 0.0
N296 N 0.90414 0.69603 0.0228 0.0
C297 C 0.9101 0.7501 0.03845 0.0
C298 C 0.87646 0.75979 0.03306 0.0
C299 C 0.85715 0.73715 0.02236 0.0
C300 C 0.9234 0.71813 0.03253 0.0
H301 H 0.8562 0.68704 1.00954 0.0
C302 C 0.8694 0.61447 1.00045 0.0
O303 O 0.92974 0.60377 0.95543 0.0
O304 O 0.91092 0.65811 0.95794 0.0
N305 N 0.96786 0.67686 0.02978 0.0
C306 C 0.99948 0.6631 0.0342 0.0
C307 C 0.02068 0.68073 0.04624 0.0
C308 C 0.00913 0.71221 0.0537 0.0
C309 C 0.97677 0.72625 0.04873 0.0
C310 C 0.95668 0.70738 0.03678 0.0
H311 H 0.00793 0.63817 0.0291 0.0
O312 O 0.97685 0.6547 0.9746 0.0
O313 O 0.93925 0.66553 0.9957 0.0
O314 O 0.95515 0.59181 0.99158 0.0
O315 O 0.95493 0.60812 1.01948 0.0
C316 C 0.96374 0.75827 0.05513 0.0
C317 C 0.9307 0.77051 0.04973 0.0
H318 H 0.8651 0.78441 0.03717 0.0
H319 H 0.83114 0.74438 1.01818 0.0
H320 H 0.04568 0.6698 0.04995 0.0
H321 H 0.02558 0.72573 0.06298 0.0
H322 H 0.97901 0.77377 0.06414 0.0
H323 H 0.92107 0.79529 0.05462 0.0
Mn324 Mn 0.12273 0.15272 0.72141 0.0
Mn325 Mn 0.10461 0.1525 0.76464 0.0
C326 C 0.08054 0.19109 0.73286 0.0
C327 C 0.11627 0.13486 0.69226 0.0
C328 C 0.16787 0.18834 0.74931 0.0
O329 O 0.14296 0.10532 0.72904 0.0
O330 O 0.13023 0.11008 0.75751 0.0
C331 C 0.05478 0.09343 0.76334 0.0
N332 N 0.06267 0.12658 0.7684 0.0
C333 C 0.00989 0.1309 0.78538 0.0
C334 C 1.00106 0.09682 0.78033 0.0
C335 C 0.02345 0.07813 0.76912 0.0
C336 C 0.04065 0.14528 0.77855 0.0
H337 H 0.07238 0.07873 0.75507 0.0
C338 C 0.1436 0.09363 0.74465 0.0
O339 O 0.14478 0.14894 0.69793 0.0
O340 O 0.09159 0.12967 0.7037 0.0
N341 N 0.08002 0.19104 0.77477 0.0
C342 C 0.09377 0.22251 0.77942 0.0
C343 C 0.07741 0.24245 0.79249 0.0
C344 C 0.04686 0.2301 0.80058 0.0
C345 C 0.03262 0.19807 0.79531 0.0
C346 C 0.05059 0.17891 0.78253 0.0
H347 H 0.11796 0.23166 0.77378 0.0
O348 O 0.09672 0.19757 0.71832 0.0
O349 O 0.08925 0.16198 0.74049 0.0
O350 O 0.16213 0.17869 0.73372 0.0
O351 O 0.14781 0.18041 0.76204 0.0
C352 C 1.0017 0.18409 0.80252 0.0
C353 C 0.98994 0.1508 0.79727 0.0
H354 H 0.97736 0.08462 0.78513 0.0
H355 H 0.01692 0.05177 0.76521 0.0
H356 H 0.08858 0.26714 0.79648 0.0
H357 H 0.03426 0.24566 0.81061 0.0
H358 H 0.98687 0.19866 0.81215 0.0
H359 H 0.96611 0.14034 0.80286 0.0
Mn360 Mn 0.597 0.3933 0.47987 0.0
Mn361 Mn 0.5849 0.35533 0.51922 0.0
C362 C 0.5552 0.34948 0.4831 0.0
C363 C 0.62411 0.39582 0.45235 0.0
C364 C 0.55491 0.42595 0.51019 0.0
O365 O 0.64152 0.40764 0.49317 0.0
O366 O 0.62949 0.38088 0.51858 0.0
C367 C 0.64272 0.30415 0.5163 0.0
N368 N 0.60813 0.31121 0.51882 0.0
C369 C 0.59436 0.25013 0.52044 0.0
C370 C 0.62984 0.24213 0.51801 0.0
C371 C 0.65414 0.26929 0.51598 0.0
C372 C 0.58461 0.28536 0.52099 0.0
H373 H 0.66142 0.32493 0.51445 0.0
C374 C 0.649 0.39989 0.50897 0.0
O375 O 0.60901 0.42302 0.45917 0.0
O376 O 0.62517 0.3679 0.46188 0.0
N377 N 0.54281 0.3296 0.52199 0.0
C378 C 0.5096 0.34189 0.52409 0.0
C379 C 0.48198 0.31811 0.52574 0.0
C380 C 0.48901 0.28219 0.52519 0.0
C381 C 0.52363 0.27028 0.52413 0.0
C382 C 0.55007 0.29515 0.52286 0.0
H383 H 0.50411 0.36955 0.52401 0.0
O384 O 0.5535 0.37151 0.47034 0.0
O385 O 0.58168 0.35337 0.49361 0.0
O386 O 0.56735 0.42746 0.49469 0.0
O387 O 0.5599 0.40011 0.52038 0.0
C388 C 0.53277 0.23479 0.52302 0.0
C389 C 0.56808 0.22458 0.52158 0.0
H390 H 0.63863 0.21525 0.51745 0.0
H391 H 0.68155 0.26337 0.51397 0.0
H392 H 0.4553 0.32737 0.52672 0.0
H393 H 0.4675 0.26411 0.52485 0.0
H394 H 0.51268 0.21533 0.52203 0.0
H395 H 0.57453 0.1971 0.52058 0.0
Mn396 Mn 0.38485 0.85922 0.22635 0.0
Mn397 Mn 0.40797 0.86184 0.26883 0.0
C398 C 0.42656 0.81987 0.23713 0.0
C399 C 0.38702 0.87237 0.19644 0.0
C400 C 0.34097 0.82903 0.25647 0.0
O401 O 0.36907 0.90864 0.23351 0.0
O402 O 0.38427 0.90536 0.26171 0.0
C403 C 0.46103 0.91768 0.26505 0.0
N404 N 0.45177 0.88536 0.27081 0.0
C405 C 0.50635 0.87848 0.28584 0.0
C406 C 0.51658 0.91168 0.28007 0.0
C407 C 0.49394 0.93122 0.26948 0.0
C408 C 0.47387 0.86581 0.2804 0.0
H409 H 0.44336 0.93306 0.25724 0.0
C410 C 0.37101 0.92173 0.24885 0.0
O411 O 0.35895 0.86144 0.2041 0.0
O412 O 0.41408 0.87776 0.20634 0.0
N413 N 0.43142 0.82244 0.27859 0.0
C414 C 0.41681 0.79166 0.28373 0.0
C415 C 0.43419 0.77069 0.29593 0.0
C416 C 0.46651 0.78139 0.30268 0.0
C417 C 0.48128 0.81296 0.29708 0.0
C418 C 0.4625 0.83302 0.28508 0.0
H419 H 0.39141 0.78378 0.2791 0.0
O420 O 0.40773 0.81254 0.22357 0.0
O421 O 0.42021 0.85005 0.24435 0.0
O422 O 0.34584 0.83733 0.24064 0.0
O423 O 0.36281 0.83637 0.26842 0.0
C424 C 0.51386 0.82534 0.30298 0.0
C425 C 0.52671 0.85778 0.29709 0.0
H426 H 0.5416 0.92253 0.2838 0.0
H427 H 0.50158 0.9569 0.265 0.0
H428 H 0.42255 0.74643 0.30023 0.0
H429 H 0.47991 0.76503 0.31203 0.0
H430 H 0.52929 0.81004 0.312 0.0
H431 H 0.55187 0.86693 0.30162 0.0
Mn432 Mn 0.89604 0.38363 0.56807 0.0
Mn433 Mn 0.90947 0.35526 0.52676 0.0
C434 C 0.93782 0.34055 0.56247 0.0
C435 C 0.86951 0.38249 0.59569 0.0
C436 C 0.93971 0.42241 0.54035 0.0
O437 O 0.85168 0.40075 0.55551 0.0
O438 O 0.86531 0.38155 0.52861 0.0
C439 C 0.85051 0.30523 0.52595 0.0
N440 N 0.8853 0.31201 0.52412 0.0
C441 C 0.89777 0.25163 0.51818 0.0
C442 C 0.86207 0.24399 0.51987 0.0
C443 C 0.83832 0.27095 0.52374 0.0
C444 C 0.9083 0.28637 0.52027 0.0
H445 H 0.8322 0.32577 0.52915 0.0
C446 C 0.84511 0.3976 0.53923 0.0
O447 O 0.88444 0.41032 0.58963 0.0
O448 O 0.86798 0.35574 0.58526 0.0
N449 N 0.95109 0.3293 0.52264 0.0
C450 C 0.9846 0.34117 0.52151 0.0
C451 C 0.0117 0.31738 0.51825 0.0
C452 C 1.00385 0.28189 0.51615 0.0
C453 C 0.96897 0.27072 0.5162 0.0
C454 C 0.94308 0.29566 0.51927 0.0
H455 H 0.99072 0.36837 0.52357 0.0
O456 O 0.93947 0.35975 0.57637 0.0
O457 O 0.91147 0.34675 0.55216 0.0
O458 O 0.92566 0.42034 0.55543 0.0
O459 O 0.93567 0.3993 0.52854 0.0
C460 C 0.95902 0.23555 0.51452 0.0
C461 C 0.92347 0.22599 0.51518 0.0
H462 H 0.85267 0.21748 0.51841 0.0
H463 H 0.81075 0.26526 0.52517 0.0
H464 H 0.03861 0.32609 0.51804 0.0
H465 H 0.02492 0.26334 0.51527 0.0
H466 H 0.97863 0.21545 0.51387 0.0
H467 H 0.91636 0.19872 0.51405 0.0
Mn468 Mn 0.38238 0.1761 0.30997 0.0
Mn469 Mn 0.41002 0.17714 0.268 0.0
C470 C 0.4232 0.21799 0.30107 0.0
C471 C 0.38544 0.15733 0.33907 0.0
C472 C 0.34034 0.20705 0.27972 0.0
O473 O 0.36752 0.12762 0.30115 0.0
O474 O 0.389 0.1316 0.27397 0.0
C475 C 0.46666 0.12488 0.27127 0.0
N476 N 0.4554 0.15686 0.26597 0.0
C477 C 0.50724 0.16577 0.24878 0.0
C478 C 0.51969 0.13304 0.25415 0.0
C479 C 0.4995 0.11272 0.26565 0.0
C480 C 0.47536 0.17738 0.2557 0.0
H481 H 0.45041 0.10865 0.27948 0.0
C482 C 0.37327 0.11477 0.286 0.0
O483 O 0.35682 0.1697 0.33251 0.0
O484 O 0.41207 0.15457 0.32858 0.0
N485 N 0.43097 0.21862 0.25892 0.0
C486 C 0.41432 0.24874 0.25437 0.0
C487 C 0.42919 0.2706 0.24166 0.0
C488 C 0.46077 0.26103 0.2335 0.0
C489 C 0.47778 0.23021 0.23856 0.0
C490 C 0.46182 0.2096 0.25142 0.0
H491 H 0.38909 0.25531 0.25984 0.0
O492 O 0.40359 0.22242 0.31473 0.0
O493 O 0.41907 0.18843 0.29282 0.0
O494 O 0.34364 0.19986 0.29584 0.0
O495 O 0.36337 0.19909 0.26832 0.0
C496 C 0.50943 0.21864 0.23101 0.0
C497 C 0.5245 0.18674 0.23636 0.0
H498 H 0.54443 0.12305 0.24933 0.0
H499 H 0.50877 0.08732 0.26974 0.0
H500 H 0.41596 0.29438 0.23787 0.0
H501 H 0.47192 0.27773 0.22355 0.0
H502 H 0.5225 0.23415 0.22115 0.0
H503 H 0.549 0.17828 0.23059 0.0
Mn504 Mn 0.61407 0.62727 0.06056 0.0
Mn505 Mn 0.61138 0.64745 1.01773 0.0
C506 C 0.5706 0.66494 0.05022 0.0
C507 C 0.6318 0.63366 0.08954 0.0
C508 C 0.58387 0.5796 0.03232 0.0
O509 O 0.66316 0.61315 0.05226 0.0
O510 O 0.65744 0.62788 0.02413 0.0
C511 C 0.66307 0.70496 1.01856 0.0
N512 N 0.63114 0.69248 1.01388 0.0
C513 C 0.6201 0.74241 0.99579 0.0
C514 C 0.65279 0.75603 1.00047 0.0
C515 C 0.67419 0.7374 1.01207 0.0
C516 C 0.60976 0.71086 1.00337 0.0
H517 H 0.68 0.69004 0.02699 0.0
C518 C 0.67527 0.61564 0.03675 0.0
O519 O 0.62099 0.60416 0.08338 0.0
O520 O 0.63382 0.65964 0.07866 0.0
N521 N 0.56936 0.66661 1.00841 0.0
C522 C 0.53865 0.64977 1.0053 0.0
C523 C 0.51537 0.66332 0.99293 0.0
C524 C 0.52406 0.69379 0.98372 0.0
C525 C 0.55569 0.71086 0.98724 0.0
C526 C 0.57759 0.69639 0.99989 0.0
H527 H 0.53248 0.62556 1.0118 0.0
O528 O 0.56668 0.64732 0.06452 0.0
O529 O 0.60046 0.66064 0.04216 0.0
O530 O 0.59244 0.5858 0.04798 0.0
O531 O 0.5897 0.6009 1.01991 0.0
C532 C 0.56593 0.74217 0.97902 0.0
C533 C 0.59777 0.75833 0.98358 0.0
H534 H 0.66186 0.78056 0.99509 0.0
H535 H 0.69953 0.74763 1.01567 0.0
H536 H 0.491 0.65001 0.9903 0.0
H537 H 0.50605 0.70412 0.97415 0.0
H538 H 0.54921 0.75434 0.96941 0.0
H539 H 0.60514 0.78262 0.97736 0.0
Mn540 Mn 0.1418 0.85231 0.81471 0.0
Mn541 Mn 0.10075 0.85244 0.77571 0.0
C542 C 0.09284 0.81721 0.81024 0.0
C543 C 0.15122 0.87128 0.84351 0.0
C544 C 0.16789 0.8129 0.7819 0.0
O545 O 0.15954 0.89797 0.80355 0.0
O546 O 0.13222 0.89306 0.77772 0.0
C547 C 0.05818 0.91606 0.78189 0.0
N548 N 0.06017 0.88137 0.778 0.0
C549 C 0.9975 0.87672 0.77692 0.0
C550 C 0.99478 0.91241 0.7808 0.0
C551 C 0.02528 0.93217 0.78327 0.0
C552 C 0.03103 0.86221 0.77548 0.0
H553 H 0.08148 0.93134 0.78399 0.0
C554 C 0.15268 0.90903 0.78817 0.0
O555 O 0.17529 0.85551 0.83451 0.0
O556 O 0.12215 0.87801 0.83546 0.0
N557 N 0.06891 0.81504 0.77186 0.0
C558 C 0.07613 0.78098 0.76818 0.0
C559 C 0.04845 0.75745 0.76604 0.0
C560 C 0.01388 0.76944 0.7676 0.0
C561 C 1.00707 0.80498 0.77006 0.0
C562 C 0.03568 0.82718 0.77208 0.0
H563 H 0.10275 0.77163 0.76749 0.0
O564 O 0.11546 0.80949 0.82218 0.0
O565 O 0.09951 0.84519 0.80118 0.0
O566 O 0.17136 0.82323 0.79763 0.0
O567 O 0.14194 0.82158 0.77239 0.0
C568 C 0.97304 0.81891 0.7715 0.0
C569 C 0.96826 0.85482 0.77482 0.0
H570 H 0.96943 0.92485 0.78205 0.0
H571 H 0.02342 0.95971 0.78635 0.0
H572 H 0.05371 0.72995 0.76406 0.0
H573 H 0.9928 0.75094 0.7681 0.0
H574 H 0.95039 0.80218 0.77038 0.0
H575 H 0.942 0.86521 0.77602 0.0
Mn576 Mn 0.59072 0.8867 0.56347 0.0
Mn577 Mn 0.59 0.86644 0.52049 0.0
C578 C 0.5477 0.84954 0.55257 0.0
C579 C 0.60787 0.87888 0.5925 0.0
C580 C 0.5612 0.93406 0.53488 0.0
O581 O 0.64002 0.901 0.55574 0.0
O582 O 0.63558 0.88584 0.52758 0.0
C583 C 0.64147 0.80876 0.52203 0.0
N584 N 0.60984 0.82131 0.51689 0.0
C585 C 0.60054 0.7721 0.49804 0.0
C586 C 0.63291 0.75836 0.5032 0.0
C587 C 0.65325 0.77655 0.51544 0.0
C588 C 0.58926 0.80316 0.50589 0.0
H589 H 0.65773 0.8235 0.53086 0.0
C590 C 0.65273 0.89833 0.54037 0.0
O591 O 0.59688 0.90873 0.58679 0.0
O592 O 0.61023 0.85362 0.58121 0.0
N593 N 0.54854 0.84759 0.51034 0.0
C594 C 0.51896 0.86549 0.50605 0.0
C595 C 0.49763 0.85319 0.49251 0.0
C596 C 0.50686 0.82257 0.48348 0.0
C597 C 0.53708 0.80426 0.48826 0.0
C598 C 0.55737 0.81782 0.50185 0.0
H599 H 0.51243 0.88981 0.5124 0.0
O600 O 0.5434 0.8668 0.56698 0.0
O601 O 0.57783 0.85361 0.54479 0.0
O602 O 0.56905 0.92816 0.55071 0.0
O603 O 0.56832 0.91291 0.52254 0.0
C604 C 0.54847 0.77362 0.47971 0.0
C605 C 0.5797 0.75703 0.48493 0.0
H606 H 0.64263 0.73417 0.49766 0.0
H607 H 0.67838 0.76628 0.51938 0.0
H608 H 0.47434 0.8675 0.48891 0.0
H609 H 0.49045 0.81328 0.47298 0.0
H610 H 0.5332 0.76238 0.46925 0.0
H611 H 0.58794 0.73324 0.47843 0.0
Mn612 Mn 0.36711 0.3428 0.81072 0.0
Mn613 Mn 0.39021 0.34224 0.76815 0.0
C614 C 0.40518 0.29969 0.80019 0.0
C615 C 0.37088 0.35643 0.84038 0.0
C616 C 0.32096 0.3151 0.78119 0.0
O617 O 0.35531 0.39298 0.80343 0.0
O618 O 0.37045 0.38803 0.77521 0.0
C619 C 0.4478 0.39363 0.77043 0.0
N620 N 0.43559 0.36198 0.76515 0.0
C621 C 0.48565 0.35273 0.74667 0.0
C622 C 0.49902 0.38512 0.75198 0.0
C623 C 0.48023 0.40544 0.76412 0.0
C624 C 0.4543 0.34144 0.75424 0.0
H625 H 0.43264 0.40989 0.77916 0.0
C626 C 0.35845 0.40564 0.78808 0.0
O627 O 0.34176 0.34765 0.83313 0.0
O628 O 0.39807 0.35949 0.83022 0.0
N629 N 0.4098 0.30076 0.75821 0.0
C630 C 0.39254 0.27082 0.75395 0.0
C631 C 0.40599 0.24898 0.7408 0.0
C632 C 0.43688 0.25829 0.73198 0.0
C633 C 0.45456 0.28888 0.73675 0.0
C634 C 0.44001 0.3095 0.75006 0.0
H635 H 0.36791 0.26433 0.76006 0.0
O636 O 0.38554 0.29473 0.81379 0.0
O637 O 0.40202 0.33007 0.79264 0.0
O638 O 0.32617 0.32353 0.79695 0.0
O639 O 0.34335 0.3206 0.7692 0.0
C640 C 0.48548 0.30029 0.72846 0.0
C641 C 0.50144 0.33183 0.73369 0.0
H642 H 0.52341 0.39486 0.74666 0.0
H643 H 0.49023 0.43057 0.76819 0.0
H644 H 0.39224 0.22536 0.73724 0.0
H645 H 0.44696 0.24159 0.72171 0.0
H646 H 0.49742 0.28483 0.7182 0.0
H647 H 0.52545 0.34009 0.7274 0.0
Mn648 Mn 0.92218 0.12115 0.06745 0.0
Mn649 Mn 0.92594 0.15793 0.02751 0.0
C650 C 0.95999 0.16797 0.06225 0.0
C651 C 0.89823 0.11834 0.09572 0.0
C652 C 0.96045 0.0885 0.03597 0.0
O653 O 0.8766 0.10432 0.05591 0.0
O654 O 0.88163 0.13194 0.03011 0.0
C655 C 0.8679 0.20845 0.03201 0.0
N656 N 0.90221 0.20183 0.02845 0.0
C657 C 0.91507 0.26314 0.02674 0.0
C658 C 0.87984 0.27065 0.03025 0.0
C659 C 0.85612 0.24316 0.03283 0.0
C660 C 0.92513 0.22803 0.0257 0.0
H661 H 0.84968 0.18744 0.03434 0.0
C662 C 0.86495 0.11245 0.04079 0.0
O663 O 0.9144 0.09184 0.08881 0.0
O664 O 0.89486 0.1458 0.08601 0.0
N665 N 0.96727 0.18431 0.02327 0.0
C666 C 1.00042 0.17252 0.02034 0.0
C667 C 0.02743 0.19669 1.01782 0.0
C668 C 0.01997 0.23253 1.01849 0.0
C669 C 0.98545 0.244 0.02082 0.0
C670 C 0.95951 0.21871 0.02279 0.0
H671 H 1.00634 0.14495 0.02031 0.0
O672 O 0.96553 0.14671 0.07508 0.0
O673 O 0.93261 0.16101 0.05284 0.0
O674 O 0.95165 0.08776 0.05208 0.0
O675 O 0.95163 0.11324 0.0257 0.0
C676 C 0.97607 0.27941 0.02235 0.0
C677 C 0.94088 0.28908 0.025 0.0
H678 H 0.87081 0.29741 0.03121 0.0
H679 H 0.82893 0.24872 0.03567 0.0
H680 H 0.0541 0.18781 1.01606 0.0
H681 H 0.04122 0.2509 1.01819 0.0
H682 H 0.99593 0.2993 0.0224 0.0
H683 H 0.93416 0.31645 0.02627 0.0
Mn684 Mn 0.13613 0.6717 0.31566 0.0
Mn685 Mn 0.11878 0.67641 0.27256 0.0
C686 C 0.09828 0.71498 0.3054 0.0
C687 C 0.12668 0.65172 0.34415 0.0
C688 C 0.18519 0.70469 0.2886 0.0
O689 O 0.15171 0.62338 0.307 0.0
O690 O 0.13861 0.6304 0.27878 0.0
C691 C 0.06234 0.62359 0.27177 0.0
N692 N 0.07446 0.65596 0.26765 0.0
C693 C 0.02673 0.66594 0.24802 0.0
C694 C 0.01347 0.6328 0.25211 0.0
C695 C 0.03112 0.61172 0.26423 0.0
C696 C 0.0568 0.6771 0.25673 0.0
H697 H 0.07668 0.60685 0.28053 0.0
C698 C 0.15019 0.61201 0.29135 0.0
O699 O 0.15675 0.66357 0.33908 0.0
O700 O 0.10218 0.65009 0.33248 0.0
N701 N 0.09952 0.71838 0.26315 0.0
C702 C 0.1164 0.74919 0.2603 0.0
C703 C 0.10414 0.77205 0.24738 0.0
C704 C 0.07493 0.76284 0.23732 0.0
C705 C 0.05747 0.73136 0.24071 0.0
C706 C 0.07083 0.70969 0.25381 0.0
H707 H 0.13986 0.75567 0.26737 0.0
O708 O 0.11498 0.71829 0.31998 0.0
O709 O 0.10369 0.68583 0.29693 0.0
O710 O 0.17836 0.69509 0.30411 0.0
O711 O 0.16473 0.69883 0.27586 0.0
C712 C 0.02763 0.72041 0.23147 0.0
C713 C 0.01193 0.68796 0.23531 0.0
H714 H 0.99001 0.62313 0.24589 0.0
H715 H 0.0212 0.58602 0.26737 0.0
H716 H 0.1176 0.79641 0.24494 0.0
H717 H 0.06574 0.78042 0.22727 0.0
H718 H 0.01646 0.73681 0.22143 0.0
H719 H 0.98884 0.67995 0.22823 0.0
Mn720 Mn 0.61295 0.12627 0.97677 0.0
Mn721 Mn 0.61316 0.15366 1.01874 0.0
C722 C 0.57011 0.16575 0.98632 0.0
C723 C 0.63064 0.13065 0.94743 0.0
C724 C 0.58522 0.08313 1.00749 0.0
O725 O 0.66225 0.11246 0.98496 0.0
O726 O 0.65929 0.13467 1.01203 0.0
C727 C 0.66225 0.21273 1.01469 0.0
N728 N 0.6312 0.19985 0.02052 0.0
C729 C 0.62054 0.25091 0.03798 0.0
C730 C 0.65226 0.26504 0.03205 0.0
C731 C 0.67298 0.24606 0.02015 0.0
C732 C 0.61021 0.21863 0.03119 0.0
H733 H 0.67886 0.19738 1.00618 0.0
C734 C 0.67573 0.11888 0.99985 0.0
O735 O 0.61936 0.10155 0.95398 0.0
O736 O 0.63296 0.15696 0.95807 0.0
N737 N 0.5711 0.1724 0.02854 0.0
C738 C 0.54226 0.15411 0.03367 0.0
C739 C 0.52055 0.16753 0.0469 0.0
C740 C 0.52884 0.19947 0.0549 0.0
C741 C 0.55839 0.21806 0.04932 0.0
C742 C 0.57896 0.20345 0.036 0.0
H743 H 0.53668 0.12869 0.02825 0.0
O744 O 0.56576 0.14635 0.97264 0.0
O745 O 0.60016 0.16228 0.99416 0.0
O746 O 0.59069 0.08673 0.99118 0.0
O747 O 0.59362 0.10624 1.01867 0.0
C748 C 0.56886 0.25001 0.05684 0.0
C749 C 0.59947 0.26684 0.05086 0.0
H750 H 0.66123 0.29016 0.03674 0.0
H751 H 0.69763 0.25663 1.01563 0.0
H752 H 0.49781 0.15299 0.05114 0.0
H753 H 0.51223 0.20956 0.06522 0.0
H754 H 0.55336 0.26204 0.06707 0.0
H755 H 0.607 0.2916 0.05655 0.0
Mn756 Mn 0.13318 0.35715 0.23098 0.0
Mn757 Mn 0.10353 0.36178 0.27256 0.0
C758 C 0.08916 0.31905 0.24042 0.0
C759 C 0.13278 0.37246 0.20133 0.0
C760 C 0.17139 0.32616 0.2626 0.0
O761 O 0.15029 0.40574 0.23866 0.0
O762 O 0.12901 0.40449 0.26595 0.0
C763 C 0.05208 0.41817 0.26625 0.0
N764 N 0.05995 0.38609 0.2728 0.0
C765 C 1.00341 0.38131 0.28636 0.0
C766 C 0.99456 0.41428 0.27975 0.0
C767 C 0.0189 0.43263 0.26949 0.0
C768 C 0.03625 0.3676 0.282 0.0
H769 H 0.07108 0.43266 0.25873 0.0
C770 C 0.14565 0.41963 0.25367 0.0
O771 O 0.16029 0.35936 0.20867 0.0
O772 O 0.10583 0.378 0.21134 0.0
N773 N 0.07806 0.3233 0.28207 0.0
C774 C 0.09159 0.29288 0.28835 0.0
C775 C 0.07252 0.27341 0.30062 0.0
C776 C 0.0397 0.28531 0.30638 0.0
C777 C 0.02596 0.31638 0.29956 0.0
C778 C 0.04641 0.33496 0.28756 0.0
H779 H 0.11748 0.28429 0.28463 0.0
O780 O 0.10926 0.31156 0.22727 0.0
O781 O 0.09524 0.34902 0.24791 0.0
O782 O 0.16949 0.33313 0.2464 0.0
O783 O 0.14817 0.3357 0.27363 0.0
C784 C 0.99294 0.32979 0.30435 0.0
C785 C 0.98135 0.3619 0.29745 0.0
H786 H 0.96933 0.42588 0.2826 0.0
H787 H 0.01234 0.45813 0.26438 0.0
H788 H 0.08332 0.24948 0.30582 0.0
H789 H 0.02506 0.27016 0.31582 0.0
H790 H 0.97625 0.31561 0.31331 0.0
H791 H 0.95586 0.37189 0.30115 0.0
Mn792 Mn 0.90236 0.88605 0.4753 0.0
Mn793 Mn 0.90376 0.85101 0.51578 0.0
C794 C 0.94146 0.84129 0.48149 0.0
C795 C 0.88101 0.88875 0.44675 0.0
C796 C 0.93854 0.9195 0.50695 0.0
O797 O 0.85589 0.90279 0.48591 0.0
O798 O 0.85997 0.87748 0.51225 0.0
C799 C 0.84556 0.80109 0.51086 0.0
N800 N 0.87956 0.80747 0.51504 0.0
C801 C 0.89097 0.74627 0.51895 0.0
C802 C 0.85605 0.73901 0.51482 0.0
C803 C 0.83322 0.76658 0.51079 0.0
C804 C 0.90162 0.78123 0.5191 0.0
H805 H 0.82803 0.82212 0.50751 0.0
C806 C 0.84375 0.89613 0.50111 0.0
O807 O 0.89601 0.9154 0.45401 0.0
O808 O 0.87717 0.86101 0.45628 0.0
N809 N 0.94427 0.82436 0.52124 0.0
C810 C 0.97728 0.83584 0.52458 0.0
C811 C 1.00369 0.81144 0.52802 0.0
C812 C 0.99566 0.77573 0.52805 0.0
C813 C 0.96105 0.76474 0.52576 0.0
C814 C 0.93581 0.79023 0.52255 0.0
H815 H 0.98367 0.86327 0.52406 0.0
O816 O 0.94672 0.86207 0.46842 0.0
O817 O 0.91286 0.84676 0.49049 0.0
O818 O 0.9299 0.91979 0.49088 0.0
O819 O 0.92976 0.89525 0.51749 0.0
C820 C 0.95103 0.72942 0.52533 0.0
C821 C 0.91596 0.72014 0.52224 0.0
H822 H 0.84659 0.71237 0.5145 0.0
H823 H 0.80628 0.7612 0.50748 0.0
H824 H 0.03037 0.81999 0.52992 0.0
H825 H 0.01655 0.75701 0.529 0.0
H826 H 0.97042 0.70917 0.5263 0.0
H827 H 0.90882 0.69279 0.52174 0.0
Mn828 Mn 0.36985 0.6586 0.72535 0.0
Mn829 Mn 0.40353 0.66103 0.76598 0.0
C830 C 0.41307 0.69935 0.732 0.0
C831 C 0.36996 0.63706 0.69667 0.0
C832 C 0.3332 0.69277 0.75692 0.0
O833 O 0.35492 0.61134 0.73562 0.0
O834 O 0.37947 0.61589 0.76211 0.0
C835 C 0.45663 0.60546 0.76123 0.0
N836 N 0.44837 0.63907 0.76544 0.0
C837 C 0.50895 0.65372 0.76917 0.0
C838 C 0.51813 0.61923 0.76503 0.0
C839 C 0.49182 0.59496 0.7611 0.0
C840 C 0.4734 0.66249 0.76947 0.0
H841 H 0.43658 0.58684 0.7579 0.0
C842 C 0.36193 0.59904 0.75072 0.0
O843 O 0.34213 0.65086 0.70358 0.0
O844 O 0.39723 0.63459 0.7066 0.0
N845 N 0.42791 0.7028 0.7717 0.0
C846 C 0.41466 0.73521 0.77498 0.0
C847 C 0.43763 0.76283 0.77846 0.0
C848 C 0.4738 0.75671 0.77845 0.0
C849 C 0.48665 0.72275 0.776 0.0
C850 C 0.46251 0.69617 0.77293 0.0
H851 H 0.38689 0.74018 0.77445 0.0
O852 O 0.39233 0.70398 0.71888 0.0
O853 O 0.40821 0.6706 0.74083 0.0
O854 O 0.33373 0.68461 0.74074 0.0
O855 O 0.3578 0.68479 0.76742 0.0
C856 C 0.52249 0.71467 0.77522 0.0
C857 C 0.53372 0.68012 0.77222 0.0
H858 H 0.54531 0.61123 0.7646 0.0
H859 H 0.49868 0.56834 0.75776 0.0
H860 H 0.42761 0.78899 0.78044 0.0
H861 H 0.49144 0.77848 0.77964 0.0
H862 H 0.54158 0.73519 0.77568 0.0
H863 H 0.56146 0.6745 0.77147 0.0
Mn864 Mn 0.40547 0.13339 0.47218 0.0
Mn865 Mn 0.4077 0.15243 0.51532 0.0
C866 C 0.44919 0.17013 0.48293 0.0
C867 C 0.38804 0.14206 0.44317 0.0
C868 C 0.43499 0.08478 0.50019 0.0
O869 O 0.35613 0.11942 0.48025 0.0
O870 O 0.36159 0.13452 0.50835 0.0
C871 C 0.35754 0.21132 0.51496 0.0
N872 N 0.38896 0.19772 0.51972 0.0
C873 C 0.39901 0.24452 0.53995 0.0
C874 C 0.36691 0.25938 0.53517 0.0
C875 C 0.3463 0.24295 0.52242 0.0
C876 C 0.40979 0.21421 0.53124 0.0
H877 H 0.34102 0.19777 0.50578 0.0
C878 C 0.34384 0.12237 0.49571 0.0
O879 O 0.39854 0.11197 0.44877 0.0
O880 O 0.38599 0.16707 0.45462 0.0
N881 N 0.44978 0.16967 0.52552 0.0
C882 C 0.47908 0.15083 0.5293 0.0
C883 C 0.50073 0.16133 0.5431 0.0
C884 C 0.49203 0.19107 0.55297 0.0
C885 C 0.46207 0.21038 0.54873 0.0
C886 C 0.44143 0.19857 0.53486 0.0
H887 H 0.48521 0.12716 0.52227 0.0
O888 O 0.45291 0.15296 0.46846 0.0
O889 O 0.41932 0.16605 0.49099 0.0
O890 O 0.42717 0.09126 0.48443 0.0
O891 O 0.42818 0.10564 0.51268 0.0
C892 C 0.45128 0.24031 0.55807 0.0
C893 C 0.42014 0.25779 0.55344 0.0
H894 H 0.35759 0.28309 0.54137 0.0
H895 H 0.32136 0.25406 0.51877 0.0
H896 H 0.52382 0.14629 0.54625 0.0
H897 H 0.50867 0.19898 0.56365 0.0
H898 H 0.46684 0.25022 0.56875 0.0
H899 H 0.41231 0.28097 0.56057 0.0
Mn900 Mn 0.63798 0.65562 0.2223 0.0
Mn901 Mn 0.60984 0.65948 0.26402 0.0
C902 C 0.59309 0.69388 0.23013 0.0
C903 C 0.63744 0.63545 0.19355 0.0
C904 C 0.67645 0.69388 0.25188 0.0
O905 O 0.65624 0.60931 0.23242 0.0
O906 O 0.63786 0.61668 0.26012 0.0
C907 C 0.56228 0.59855 0.26236 0.0
N908 N 0.56742 0.63325 0.26536 0.0
C909 C 0.50591 0.64253 0.27009 0.0
C910 C 0.49998 0.60689 0.26717 0.0
C911 C 0.52832 0.58478 0.26334 0.0
C912 C 0.54042 0.65463 0.26927 0.0
H913 H 0.58385 0.58149 0.25915 0.0
C914 C 0.65374 0.59913 0.24829 0.0
O915 O 0.66488 0.64996 0.20023 0.0
O916 O 0.6108 0.63068 0.20386 0.0
N917 N 0.58187 0.69913 0.26961 0.0
C918 C 0.59216 0.73282 0.27204 0.0
C919 C 0.56683 0.75844 0.27546 0.0
C920 C 0.53146 0.74893 0.27629 0.0
C921 C 0.52172 0.71385 0.27482 0.0
C922 C 0.54813 0.68945 0.27166 0.0
H923 H 0.61928 0.74025 0.27082 0.0
O924 O 0.61231 0.69983 0.2165 0.0
O925 O 0.6009 0.66582 0.23891 0.0
O926 O 0.67401 0.68286 0.23628 0.0
O927 O 0.65337 0.68765 0.26357 0.0
C928 C 0.48675 0.70236 0.27545 0.0
C929 C 0.47886 0.6667 0.27327 0.0
H930 H 0.47374 0.59628 0.26766 0.0
H931 H 0.52396 0.55726 0.26098 0.0
H932 H 0.57433 0.78557 0.27665 0.0
H933 H 0.51189 0.76895 0.27702 0.0
H934 H 0.46564 0.72076 0.27718 0.0
H935 H 0.45185 0.65826 0.2737 0.0
Mn936 Mn 0.11792 0.89643 0.97594 0.0
Mn937 Mn 0.12241 0.85832 1.01558 0.0
C938 C 0.08336 0.84789 0.98233 0.0
C939 C 0.13354 0.90297 0.94641 0.0
C940 C 0.08231 0.92517 1.0093 0.0
O941 O 0.16504 0.91452 0.98533 0.0
O942 O 0.16319 0.8892 1.01181 0.0
C943 C 0.18509 0.81475 1.00865 0.0
N944 N 0.15076 0.81737 1.01332 0.0
C945 C 0.14551 0.75493 1.01537 0.0
C946 C 0.18084 0.75159 1.0107 0.0
C947 C 0.20073 0.78165 1.00736 0.0
C948 C 0.13151 0.78865 1.01675 0.0
H949 H 0.20045 0.8377 1.00584 0.0
C950 C 0.17802 0.90864 1.00044 0.0
O951 O 0.11897 0.928 0.95525 0.0
O952 O 0.14116 0.87478 0.955 0.0
N953 N 0.08507 0.82721 0.02095 0.0
C954 C 0.05123 0.83501 0.02502 0.0
C955 C 0.02748 0.80776 0.02788 0.0
C956 C 0.039 0.77306 0.02658 0.0
C957 C 0.07435 0.7657 0.0236 0.0
C958 C 0.09681 0.79389 0.02089 0.0
H959 H 0.04217 0.86171 0.02544 0.0
O960 O 0.07419 0.86977 0.97031 0.0
O961 O 0.11234 0.85524 0.99044 0.0
O962 O 0.09078 0.92756 0.99322 0.0
O963 O 0.09218 0.89989 1.01897 0.0
C964 C 0.08777 0.73151 0.02223 0.0
C965 C 0.1234 0.72613 1.01827 0.0
H966 H 0.19287 0.72607 1.00948 0.0
H967 H 0.22798 0.7793 1.00366 0.0
H968 H 1.00012 0.81342 0.03022 0.0
H969 H 0.02022 0.75229 0.02667 0.0
H970 H 0.07081 0.70917 0.02384 0.0
H971 H 0.13335 0.69972 1.01712 0.0
Mn972 Mn 0.86656 0.35425 0.72794 0.0
Mn973 Mn 0.90408 0.3531 0.7677 0.0
C974 C 0.91362 0.3171 0.73326 0.0
C975 C 0.86219 0.37562 0.69939 0.0
C976 C 0.83606 0.31593 0.75993 0.0
O977 O 0.84913 0.40018 0.73892 0.0
O978 O 0.87489 0.39552 0.76513 0.0
C979 C 0.95014 0.4144 0.76249 0.0
N980 N 0.94618 0.37981 0.76616 0.0
C981 C 0.00845 0.37142 0.76719 0.0
C982 C 0.01321 0.40697 0.76355 0.0
C983 C 0.9839 0.42857 0.76124 0.0
C984 C 0.97416 0.35893 0.76864 0.0
H985 H 0.92777 0.43106 0.76041 0.0
C986 C 0.85566 0.41182 0.75423 0.0
O987 O 0.83618 0.35982 0.7069 0.0
O988 O 0.89005 0.38031 0.70868 0.0
N989 N 0.93365 0.31403 0.77198 0.0
C990 C 0.92446 0.28036 0.77534 0.0
C991 C 0.95073 0.25514 0.77729 0.0
C992 C 0.98591 0.26504 0.77572 0.0
C993 C 0.99479 0.30018 0.7735 0.0
C994 C 0.96751 0.32417 0.77184 0.0
H995 H 0.89735 0.27259 0.77591 0.0
O996 O 0.89201 0.31073 0.72069 0.0
O997 O 0.9071 0.34521 0.74236 0.0
O998 O 0.83434 0.32566 0.74401 0.0
O999 O 0.86119 0.32446 0.77003 0.0
C1000 C 0.02951 0.31205 0.77186 0.0
C1001 C 0.03637 0.3477 0.7689 0.0
H1002 H 0.03923 0.41786 0.76231 0.0
H1003 H 0.98732 0.456 0.75833 0.0
H1004 H 0.94392 0.22796 0.77907 0.0
H1005 H 1.00573 0.24524 0.77504 0.0
H1006 H 0.05114 0.29395 0.77241 0.0
H1007 H 0.06317 0.35645 0.76757 0.0
Mn1008 Mn 0.42812 0.89054 0.0636 0.0
Mn1009 Mn 0.42172 0.85447 0.0235 0.0
C1010 C 0.46507 0.84459 0.05583 0.0
C1011 C 0.41437 0.89604 0.09335 0.0
C1012 C 0.46156 0.92071 0.03007 0.0
O1013 O 0.37988 0.90786 0.05545 0.0
O1014 O 0.38168 0.88589 0.0283 0.0
C1015 C 0.359 0.81181 0.03146 0.0
N1016 N 0.39282 0.81403 0.02589 0.0
C1017 C 0.39639 0.75176 0.02228 0.0
C1018 C 0.36157 0.74881 0.02786 0.0
C1019 C 0.34278 0.779 0.03245 0.0
C1020 C 0.41101 0.78522 0.02133 0.0
H1021 H 0.34447 0.83482 0.03519 0.0
C1022 C 0.36685 0.90397 0.04023 0.0
O1023 O 0.42741 0.9217 0.08447 0.0
O1024 O 0.40735 0.86765 0.08475 0.0
N1025 N 0.45778 0.82304 1.01667 0.0
C1026 C 0.49116 0.83046 1.01166 0.0
C1027 C 0.51399 0.80295 1.00766 0.0
C1028 C 0.50183 0.76848 1.00855 0.0
C1029 C 0.46667 0.76166 1.01221 0.0
C1030 C 0.44527 0.79005 1.01629 0.0
H1031 H 0.50067 0.85699 1.01145 0.0
O1032 O 0.47324 0.86615 0.06818 0.0
O1033 O 0.43478 0.84998 0.04838 0.0
O1034 O 0.45286 0.92282 0.04613 0.0
O1035 O 0.45224 0.89556 0.02017 0.0
C1036 C 0.45259 0.72772 1.01306 0.0
C1037 C 0.4174 0.72277 1.01797 0.0
H1038 H 0.3491 0.7235 0.0288 0.0
H1039 H 0.31593 0.77696 0.03685 0.0
H1040 H 0.54117 0.80815 1.00466 0.0
H1041 H 0.52003 0.74739 1.00752 0.0
H1042 H 0.46875 0.70519 1.01038 0.0
H1043 H 0.40698 0.69653 1.01874 0.0
Mn1044 Mn 0.87622 0.6637 0.81592 0.0
Mn1045 Mn 0.89938 0.65989 0.77341 0.0
C1046 C 0.91946 0.70112 0.8051 0.0
C1047 C 0.87853 0.65122 0.84581 0.0
C1048 C 0.83376 0.69554 0.78592 0.0
O1049 O 0.85884 0.61484 0.80904 0.0
O1050 O 0.87336 0.61764 0.78066 0.0
C1051 C 0.9495 0.60128 0.77705 0.0
N1052 N 0.94192 0.63402 0.77127 0.0
C1053 C 0.9967 0.63772 0.75591 0.0
C1054 C 1.00519 0.60405 0.7617 0.0
C1055 C 0.98161 0.58589 0.77246 0.0
C1056 C 0.96497 0.65223 0.76151 0.0
H1057 H 0.93109 0.58696 0.785 0.0
C1058 C 0.85969 0.60184 0.79366 0.0
O1059 O 0.85051 0.66274 0.8384 0.0
O1060 O 0.90512 0.64464 0.83565 0.0
N1061 N 0.92491 0.69794 0.76348 0.0
C1062 C 0.91201 0.72951 0.75839 0.0
C1063 C 0.93041 0.74938 0.74602 0.0
C1064 C 0.96183 0.7366 0.73892 0.0
C1065 C 0.97509 0.70444 0.74464 0.0
C1066 C 0.95534 0.68558 0.75681 0.0
H1067 H 0.88712 0.73887 0.76319 0.0
O1068 O 0.9004 0.70947 0.81851 0.0
O1069 O 0.91209 0.67122 0.79784 0.0
O1070 O 0.83795 0.68668 0.8017 0.0
O1071 O 0.85562 0.68772 0.77395 0.0
C1072 C 1.00692 0.69021 0.73858 0.0
C1073 C 0.01806 0.65716 0.74449 0.0
H1074 H 0.02958 0.59179 0.75785 0.0
H1075 H 0.98791 0.55986 0.77695 0.0
H1076 H 0.92012 0.77428 0.74177 0.0
H1077 H 0.97593 0.75201 0.72938 0.0
H1078 H 0.02305 0.7045 0.72941 0.0
H1079 H 0.04267 0.64656 0.73983 0.0
Mn1080 Mn 0.08937 0.12481 0.55875 0.0
Mn1081 Mn 0.08784 0.15388 0.5171 0.0
C1082 C 0.04526 0.16334 0.55013 0.0
C1083 C 0.10717 0.12847 0.58799 0.0
C1084 C 0.06207 0.08235 0.52782 0.0
O1085 O 0.13889 0.11288 0.54999 0.0
O1086 O 0.13442 0.13591 0.52322 0.0
C1087 C 0.13568 0.21389 0.52133 0.0
N1088 N 0.10484 0.20049 0.51562 0.0
C1089 C 0.09295 0.25168 0.49859 0.0
C1090 C 0.12443 0.26635 0.5044 0.0
C1091 C 0.14566 0.24755 0.51602 0.0
C1092 C 0.08341 0.21901 0.5052 0.0
H1093 H 0.15269 0.19873 0.52962 0.0
C1094 C 0.15175 0.12031 0.53504 0.0
O1095 O 0.09674 0.09929 0.58119 0.0
O1096 O 0.10869 0.15526 0.57765 0.0
N1097 N 0.04523 0.17195 0.50783 0.0
C1098 C 0.01666 0.15324 0.50282 0.0
C1099 C 0.99436 0.16663 0.48994 0.0
C1100 C 1.0018 0.199 0.48217 0.0
C1101 C 0.03115 0.21797 0.48759 0.0
C1102 C 0.0524 0.20331 0.50052 0.0
H1103 H 0.0117 0.12756 0.50806 0.0
O1104 O 0.04173 0.14309 0.56354 0.0
O1105 O 0.07522 0.16124 0.54195 0.0
O1106 O 0.06811 0.08541 0.54407 0.0
O1107 O 0.0694 0.10606 0.51679 0.0
C1108 C 0.04072 0.25044 0.48035 0.0
C1109 C 0.07124 0.26761 0.4861 0.0
H1110 H 0.13278 0.29178 0.49986 0.0
H1111 H 0.17012 0.25854 0.52045 0.0
H1112 H 0.9718 0.15178 0.4858 0.0
H1113 H 0.98469 0.20912 0.47215 0.0
H1114 H 0.02466 0.26254 0.47044 0.0
H1115 H 0.07811 0.29271 0.48059 0.0
Mn1116 Mn 0.6468 0.35926 0.32074 0.0
Mn1117 Mn 0.62183 0.35072 0.27868 0.0
C1118 C 0.60475 0.31779 0.31321 0.0
C1119 C 0.64228 0.38328 0.3489 0.0
C1120 C 0.68943 0.32061 0.29237 0.0
O1121 O 0.66341 0.40542 0.30978 0.0
O1122 O 0.64608 0.39574 0.2822 0.0
C1123 C 0.56966 0.40795 0.27854 0.0
N1124 N 0.57779 0.37363 0.27605 0.0
C1125 C 0.51804 0.35979 0.26944 0.0
C1126 C 0.50904 0.39498 0.2718 0.0
C1127 C 0.53501 0.41919 0.27632 0.0
C1128 C 0.55314 0.35023 0.27148 0.0
H1129 H 0.58938 0.42661 0.28228 0.0
C1130 C 0.66049 0.41478 0.29382 0.0
O1131 O 0.67103 0.36918 0.34324 0.0
O1132 O 0.61655 0.38493 0.33793 0.0
N1133 N 0.5976 0.30873 0.27319 0.0
C1134 C 0.61054 0.27568 0.2717 0.0
C1135 C 0.58771 0.24817 0.26778 0.0
C1136 C 0.55198 0.25505 0.26553 0.0
C1137 C 0.53967 0.28952 0.26626 0.0
C1138 C 0.56372 0.31592 0.26981 0.0
H1139 H 0.63786 0.27022 0.27393 0.0
O1140 O 0.62302 0.31452 0.32732 0.0
O1141 O 0.61156 0.34534 0.3038 0.0
O1142 O 0.68562 0.33202 0.30792 0.0
O1143 O 0.66699 0.3259 0.28037 0.0
C1144 C 0.50414 0.29846 0.26483 0.0
C1145 C 0.49334 0.33357 0.26596 0.0
H1146 H 0.4822 0.4036 0.27042 0.0
H1147 H 0.52827 0.44638 0.27828 0.0
H1148 H 0.59737 0.22162 0.26713 0.0
H1149 H 0.5341 0.23357 0.26387 0.0
H1150 H 0.48468 0.27832 0.26417 0.0
H1151 H 0.46579 0.33985 0.26498 0.0
H1152 H 0.99661 0.56979 0.03787 0.0
H1153 H 0.97699 0.53207 0.98569 0.0
H1154 H 0.01342 0.48128 0.99101 0.0
H1155 H 0.05123 0.44742 1.01014 0.0
H1156 H 0.07074 0.48371 0.06252 0.0
H1157 H 0.03438 0.53507 0.05733 0.0
C1158 C 1.00013 0.55037 0.0277 0.0
C1159 C 0.984 0.55501 1.0114 0.0
C1160 C 0.02139 0.52095 0.03079 0.0
C1161 C 0.98908 0.52949 0.99837 0.0
C1162 C 0.01001 0.50031 1.00136 0.0
C1163 C 0.04773 0.46657 0.02043 0.0
C1164 C 0.06385 0.46156 0.03668 0.0
C1165 C 0.02645 0.49585 1.01746 0.0
C1166 C 0.05871 0.48675 0.04985 0.0
C1167 C 0.03782 0.51618 0.04692 0.0
H1168 H 0.69063 0.7283 0.28246 0.0
H1169 H 0.73337 0.70665 0.23131 0.0
H1170 H 0.785 0.74082 0.23808 0.0
H1171 H 0.8183 0.77704 0.25825 0.0
H1172 H 0.77617 0.7995 0.3094 0.0
H1173 H 0.72437 0.76485 0.30284 0.0
C1174 C 0.71124 0.73099 0.27281 0.0
C1175 C 0.70786 0.71481 0.2564 0.0
C1176 C 0.74114 0.75088 0.27674 0.0
C1177 C 0.73496 0.71877 0.24405 0.0
C1178 C 0.76467 0.73834 0.24789 0.0
C1179 C 0.79786 0.77443 0.26801 0.0
C1180 C 0.80131 0.791 0.28429 0.0
C1181 C 0.76804 0.75455 0.26417 0.0
C1182 C 0.77437 0.78714 0.29673 0.0
C1183 C 0.74464 0.76729 0.293 0.0
H1184 H 0.52904 0.48198 0.49222 0.0
H1185 H 0.53103 0.43541 0.54348 0.0
H1186 H 0.4941 0.48203 0.55477 0.0
H1187 H 0.46118 0.53618 0.55032 0.0
H1188 H 0.45881 0.58277 0.49907 0.0
H1189 H 0.49563 0.53605 0.48771 0.0
C1190 C 0.52153 0.48206 0.50587 0.0
C1191 C 0.533 0.45512 0.51691 0.0
C1192 C 0.49999 0.50896 0.51236 0.0
C1193 C 0.5227 0.45569 0.53458 0.0
C1194 C 0.50149 0.48239 0.54111 0.0
C1195 C 0.46855 0.53611 0.53665 0.0
C1196 C 0.45706 0.5631 0.52564 0.0
C1197 C 0.48992 0.50914 0.53013 0.0
C1198 C 0.4671 0.56243 0.50794 0.0
C1199 C 0.48829 0.53569 0.50138 0.0
H1200 H 0.78032 0.28861 0.74245 0.0
H1201 H 0.82785 0.29176 0.7934 0.0
H1202 H 0.78138 0.25468 0.80497 0.0
H1203 H 0.72663 0.22169 0.80075 0.0
H1204 H 0.67985 0.21883 0.74958 0.0
H1205 H 0.72661 0.25519 0.73814 0.0
C1206 C 0.78062 0.28129 0.7561 0.0
C1207 C 0.80767 0.29326 0.76699 0.0
C1208 C 0.75386 0.25982 0.76271 0.0
C1209 C 0.80745 0.28315 0.78465 0.0
C1210 C 0.78083 0.26186 0.79131 0.0
C1211 C 0.72669 0.22886 0.78708 0.0
C1212 C 0.69949 0.21733 0.77613 0.0
C1213 C 0.75381 0.25005 0.78047 0.0
C1214 C 0.70023 0.22711 0.75842 0.0
C1215 C 0.72703 0.24805 0.75181 0.0
H1216 H 0.9742 0.43669 0.50997 0.0
H1217 H 0.957 0.47632 0.56212 0.0
H1218 H 0.99486 0.52589 0.55592 0.0
H1219 H 0.03157 0.55865 0.53569 0.0
H1220 H 0.04755 0.52047 0.48321 0.0
H1221 H 0.01177 0.46931 0.48974 0.0
C1222 C 0.97866 0.45613 0.52001 0.0
C1223 C 0.96253 0.45272 0.53647 0.0
C1224 C 1.0004 0.48474 0.51637 0.0
C1225 C 0.96884 0.47822 0.5493 0.0
C1226 C 0.99059 0.5066 0.5458 0.0
C1227 C 0.02751 0.5391 0.52565 0.0
C1228 C 0.04224 0.54357 0.50895 0.0
C1229 C 1.00638 0.51016 0.52937 0.0
C1230 C 0.03653 0.51783 0.49617 0.0
C1231 C 0.01597 0.48859 0.49988 0.0
H1232 H 0.69661 0.78667 0.78285 0.0
H1233 H 0.73367 0.80554 0.73046 0.0
H1234 H 0.78465 0.76853 0.73585 0.0
H1235 H 0.81826 0.72977 0.75541 0.0
H1236 H 0.77895 0.7105 0.80744 0.0
H1237 H 0.72923 0.74827 0.80202 0.0
C1238 C 0.71584 0.78295 0.77258 0.0
C1239 C 0.71115 0.79899 0.75627 0.0
C1240 C 0.74466 0.76117 0.77563 0.0
C1241 C 0.7365 0.79359 0.74316 0.0
C1242 C 0.76565 0.7723 0.74621 0.0
C1243 C 0.79873 0.73367 0.76552 0.0
C1244 C 0.80259 0.71718 0.78182 0.0
C1245 C 0.76986 0.75567 0.76236 0.0
C1246 C 0.77694 0.72277 0.79477 0.0
C1247 C 0.74839 0.74449 0.79172 0.0
H1248 H 0.49738 0.4391 0.02976 0.0
H1249 H 0.46796 0.48258 0.97995 0.0
H1250 H 0.50562 0.53251 0.98494 0.0
H1251 H 0.54681 0.56415 1.00319 0.0
H1252 H 0.57536 0.52258 0.05345 0.0
H1253 H 0.5386 0.47151 0.04835 0.0
C1254 C 0.49903 0.45958 0.02005 0.0
C1255 C 0.47975 0.45687 1.00451 0.0
C1256 C 0.52089 0.48851 0.02295 0.0
C1257 C 0.48242 0.48373 0.99205 0.0
C1258 C 0.50408 0.51239 0.99483 0.0
C1259 C 0.54523 0.54389 1.01302 0.0
C1260 C 0.56388 0.54731 0.02867 0.0
C1261 C 0.52353 0.51498 1.01018 0.0
C1262 C 0.56128 0.52071 0.04126 0.0
C1263 C 0.54016 0.49151 0.03839 0.0
H1264 H 0.82955 0.23279 0.28574 0.0
H1265 H 0.78792 0.21477 0.23422 0.0
H1266 H 0.73758 0.25133 0.24108 0.0
H1267 H 0.7047 0.28771 0.26166 0.0
H1268 H 0.74557 0.30563 0.31332 0.0
H1269 H 0.79669 0.2699 0.30635 0.0
C1270 C 0.80954 0.23685 0.27597 0.0
C1271 C 0.81274 0.2208 0.25947 0.0
C1272 C 0.78037 0.25793 0.28001 0.0
C1273 C 0.78637 0.22658 0.24704 0.0
C1274 C 0.75745 0.24755 0.25094 0.0
C1275 C 0.72478 0.28399 0.27143 0.0
C1276 C 0.72107 0.2995 0.28802 0.0
C1277 C 0.7541 0.26325 0.26739 0.0
C1278 C 0.74752 0.2941 0.30045 0.0
C1279 C 0.77685 0.27361 0.29648 0.0
H1280 H 0.3047 0.28077 0.75102 0.0
H1281 H 0.26448 0.30438 0.80244 0.0
H1282 H 0.21423 0.2669 0.79726 0.0
H1283 H 0.18257 0.22581 0.77865 0.0
H1284 H 0.22234 0.2023 0.72716 0.0
H1285 H 0.27196 0.24095 0.73202 0.0
C1286 C 0.28481 0.27803 0.76104 0.0
C1287 C 0.28861 0.29536 0.77712 0.0
C1288 C 0.25601 0.25605 0.75809 0.0
C1289 C 0.26246 0.29133 0.78994 0.0
C1290 C 0.23367 0.26977 0.78704 0.0
C1291 C 0.20207 0.22904 0.76848 0.0
C1292 C 0.19862 0.21099 0.75259 0.0
C1293 C 0.23042 0.25163 0.77126 0.0
C1294 C 0.2242 0.21578 0.73954 0.0
C1295 C 0.25262 0.23797 0.74228 0.0
H1296 H 0.20236 0.7403 0.25917 0.0
H1297 H 0.24002 0.71704 0.31086 0.0
H1298 H 0.29096 0.75431 0.30586 0.0
H1299 H 0.32486 0.79384 0.2867 0.0
H1300 H 0.28524 0.81722 0.23533 0.0
H1301 H 0.23495 0.78005 0.24053 0.0
C1302 C 0.22168 0.74317 0.26938 0.0
C1303 C 0.21724 0.72569 0.28535 0.0
C1304 C 0.25056 0.76502 0.26655 0.0
C1305 C 0.24267 0.73007 0.2984 0.0
C1306 C 0.27181 0.7515 0.29558 0.0
C1307 C 0.30511 0.79102 0.2767 0.0
C1308 C 0.30912 0.80836 0.26062 0.0
C1309 C 0.27597 0.76928 0.27971 0.0
C1310 C 0.28316 0.8042 0.24781 0.0
C1311 C 0.25428 0.78282 0.25074 0.0
H1312 H 0.28857 0.23637 0.29981 0.0
H1313 H 0.32236 0.22378 0.24632 0.0
H1314 H 0.27376 0.25965 0.23651 0.0
H1315 H 0.22226 0.29529 0.24292 0.0
H1316 H 0.18779 0.30819 0.29625 0.0
H1317 H 0.23613 0.27169 0.30621 0.0
C1318 C 0.28521 0.24124 0.286 0.0
C1319 C 0.30926 0.22722 0.27388 0.0
C1320 C 0.25719 0.26221 0.28036 0.0
C1321 C 0.30441 0.23408 0.25602 0.0
C1322 C 0.2766 0.25473 0.25035 0.0
C1323 C 0.22528 0.29031 0.25675 0.0
C1324 C 0.20136 0.30476 0.26878 0.0
C1325 C 0.25299 0.26911 0.2624 0.0
C1326 C 0.20577 0.29763 0.28664 0.0
C1327 C 0.23341 0.27665 0.29237 0.0
H1328 H 0.22375 0.78456 0.79868 0.0
H1329 H 0.1742 0.7885 0.74825 0.0
H1330 H 0.22021 0.7512 0.73608 0.0
H1331 H 0.27545 0.7182 0.73966 0.0
H1332 H 0.32383 0.71483 0.79046 0.0
H1333 H 0.27736 0.75095 0.80241 0.0
C1334 C 0.22286 0.77736 0.785 0.0
C1335 C 0.19547 0.78964 0.77443 0.0
C1336 C 0.24932 0.75585 0.77809 0.0
C1337 C 0.19491 0.77962 0.75675 0.0
C1338 C 0.22127 0.75824 0.74976 0.0
C1339 C 0.27578 0.72521 0.75336 0.0
C1340 C 0.3034 0.71363 0.76405 0.0
C1341 C 0.24875 0.74628 0.76029 0.0
C1342 C 0.30314 0.72316 0.78181 0.0
C1343 C 0.2765 0.74396 0.78872 0.0
H1344 H 0.53119 0.95107 0.50384 0.0
H1345 H 0.54261 0.98731 0.55691 0.0
H1346 H 0.50305 0.03579 0.55103 0.0
H1347 H 0.46467 0.06722 0.53113 0.0
H1348 H 0.45345 0.03158 0.47797 0.0
H1349 H 0.49285 0.98281 0.48384 0.0
C1350 C 0.52526 0.96962 0.51414 0.0
C1351 C 0.53994 0.96539 0.53082 0.0
C1352 C 0.50208 0.99721 0.51076 0.0
C1353 C 0.5318 0.98982 0.54395 0.0
C1354 C 0.509 0.01749 0.54063 0.0
C1355 C 0.47061 0.04878 0.52079 0.0
C1356 C 0.45603 0.05322 0.50411 0.0
C1357 C 0.49377 0.02123 0.52414 0.0
C1358 C 0.46418 0.02888 0.49094 0.0
C1359 C 0.48689 1.00106 0.49426 0.0
H1360 H 0.05483 0.98248 0.99315 0.0
H1361 H 0.05812 0.93045 0.04302 0.0
H1362 H 0.02073 0.97574 0.05565 0.0
H1363 H 0.98705 0.03058 0.05263 0.0
H1364 H 0.98425 0.08182 1.00249 0.0
H1365 H 0.02122 0.03647 0.99007 0.0
C1366 C 0.04748 0.98092 1.0068 0.0
C1367 C 0.05956 0.95293 1.01706 0.0
C1368 C 0.02585 0.00704 1.01402 0.0
C1369 C 0.04945 0.95161 0.03474 0.0
C1370 C 0.02796 0.97755 0.04201 0.0
C1371 C 0.99443 0.03183 0.03898 0.0
C1372 C 0.98262 0.05984 0.0286 0.0
C1373 C 0.01598 1.00546 0.03178 0.0
C1374 C 0.99269 0.06078 1.01091 0.0
C1375 C 0.01398 0.03477 1.00372 0.0
H1376 H 0.55169 0.03218 0.9886 0.0
H1377 H 0.57506 0.06419 0.04135 0.0
H1378 H 0.53915 0.0172 0.05273 0.0
H1379 H 0.49945 0.96846 0.04804 0.0
H1380 H 0.47583 0.93495 0.99565 0.0
H1381 H 0.51342 0.98099 0.98391 0.0
C1382 C 0.54925 0.02865 1.00258 0.0
C1383 C 0.56608 0.05198 1.01403 0.0
C1384 C 0.52822 1.00146 1.00917 0.0
C1385 C 0.56243 0.0469 0.03213 0.0
C1386 C 0.54176 0.02001 0.03872 0.0
C1387 C 0.50235 0.9712 0.03403 0.0
C1388 C 0.48447 0.94843 0.02277 0.0
C1389 C 0.52417 0.99746 0.02738 0.0
C1390 C 0.48912 0.95216 1.00466 0.0
C1391 C 0.51066 0.9785 0.99792 0.0
H1392 H 0.0292 0.03174 0.5469 0.0
H1393 H 0.05143 0.06333 0.49395 0.0
H1394 H 0.01503 0.01625 0.48293 0.0
H1395 H 0.97527 0.96737 0.48815 0.0
H1396 H 0.95295 0.93527 0.54099 0.0
H1397 H 0.99084 0.98131 0.55211 0.0
C1398 C 0.02645 0.0281 0.53295 0.0
C1399 C 0.04307 0.05121 0.52133 0.0
C1400 C 1.00511 1.00107 0.52662 0.0
C1401 C 0.03896 0.04608 0.50326 0.0
C1402 C 0.01801 0.01919 0.4969 0.0
C1403 C 0.97851 0.9705 0.50211 0.0
C1404 C 0.96098 0.94801 0.51368 0.0
C1405 C 1.00058 0.99684 0.50845 0.0
C1406 C 0.96598 0.95224 0.53174 0.0
C1407 C 0.98772 0.97855 0.53814 0.0
H1408 H 0.02944 0.18268 0.05776 0.0
H1409 H 0.92938 0.23077 0.06742 0.0
H1410 H 0.95656 0.28865 0.06731 0.0
H1411 H 0.00853 0.32606 0.06293 0.0
H1412 H 0.1072 0.27847 0.04954 0.0
H1413 H 0.08106 0.22041 0.05207 0.0
C1414 C 0.01371 0.20593 0.05978 0.0
C1415 C 0.97733 0.20263 0.0621 0.0
C1416 C 0.02932 0.23933 0.05881 0.0
C1417 C 0.95728 0.2328 0.06513 0.0
C1418 C 0.97285 0.26588 0.06512 0.0
C1419 C 0.02409 0.30295 0.06025 0.0
C1420 C 0.05958 0.30669 0.05565 0.0
C1421 C 0.00869 0.26957 0.06152 0.0
C1422 C 0.07958 0.27646 0.05254 0.0
C1423 C 0.0648 0.24317 0.05436 0.0
H1424 H 0.03002 0.69587 0.30388 0.0
H1425 H 0.09795 0.78539 0.30389 0.0
H1426 H 0.04742 0.82435 0.30697 0.0
H1427 H 0.98333 0.83311 0.30889 0.0
H1428 H 0.9157 0.74353 0.31153 0.0
H1429 H 0.9663 0.70446 0.30849 0.0
C1430 C 0.03354 0.72397 0.30398 0.0
C1431 C 0.06754 0.73789 0.30278 0.0
C1432 C 1.00438 0.74613 0.30656 0.0
C1433 C 0.07194 0.77422 0.30406 0.0
C1434 C 0.04311 0.79643 0.3062 0.0
C1435 C 0.97978 0.80502 0.3087 0.0
C1436 C 0.94575 0.79114 0.30951 0.0
C1437 C 0.00913 0.78274 0.30731 0.0
C1438 C 0.94158 0.75475 0.31028 0.0
C1439 C 0.97052 0.73243 0.30857 0.0
H1440 H 0.42548 0.74054 0.55691 0.0
H1441 H 0.51197 0.66879 0.55369 0.0
H1442 H 0.55275 0.71759 0.54976 0.0
H1443 H 0.56374 0.78115 0.54728 0.0
H1444 H 0.47738 0.85274 0.55247 0.0
H1445 H 0.43661 0.80392 0.55529 0.0
C1446 C 0.45322 0.73571 0.55512 0.0
C1447 C 0.46563 0.70118 0.55469 0.0
C1448 C 0.4765 0.76395 0.55314 0.0
C1449 C 0.5018 0.6952 0.55343 0.0
C1450 C 0.52509 0.72308 0.55121 0.0
C1451 C 0.53585 0.7859 0.5484 0.0
C1452 C 0.52338 0.82046 0.54909 0.0
C1453 C 0.51269 0.7576 0.55074 0.0
C1454 C 0.48739 0.82633 0.55141 0.0
C1455 C 0.46417 0.79845 0.55337 0.0
H1456 H 0.52054 0.18269 0.80717 0.0
H1457 H 0.58833 0.27212 0.80453 0.0
H1458 H 0.53768 0.31058 0.8003 0.0
H1459 H 0.47368 0.31857 0.79666 0.0
H1460 H 0.40594 0.2293 0.80139 0.0
H1461 H 0.45658 0.19106 0.8053 0.0
C1462 C 0.52413 0.21057 0.8055 0.0
C1463 C 0.55819 0.22441 0.80524 0.0
C1464 C 0.49479 0.23255 0.80337 0.0
C1465 C 0.56241 0.26078 0.80413 0.0
C1466 C 0.53344 0.28277 0.80174 0.0
C1467 C 0.47017 0.2906 0.79799 0.0
C1468 C 0.43611 0.27659 0.7981 0.0
C1469 C 0.49949 0.26887 0.80092 0.0
C1470 C 0.43191 0.24053 0.80074 0.0
C1471 C 0.46083 0.21875 0.80331 0.0
H1472 H 0.92439 0.77247 0.48154 0.0
H1473 H 0.0119 0.8426 0.48508 0.0
H1474 H 0.05181 0.79305 0.48898 0.0
H1475 H 0.06164 0.72942 0.49183 0.0
H1476 H 0.97454 0.65925 0.48616 0.0
H1477 H 0.9346 0.70879 0.48293 0.0
C1478 C 0.95216 0.77677 0.48337 0.0
C1479 C 0.96509 0.81107 0.48396 0.0
C1480 C 0.97496 0.74808 0.48532 0.0
C1481 C 1.00132 0.81638 0.48524 0.0
C1482 C 0.02411 0.78807 0.48744 0.0
C1483 C 0.03375 0.72513 0.49048 0.0
C1484 C 0.02079 0.69079 0.48988 0.0
C1485 C 0.01115 0.75379 0.48788 0.0
C1486 C 0.98487 0.6855 0.48721 0.0
C1487 C 0.96216 0.71379 0.48501 0.0
H1488 H 0.52395 0.82109 0.74141 0.0
H1489 H 0.59525 0.73486 0.73499 0.0
H1490 H 0.54613 0.69434 0.73244 0.0
H1491 H 0.48244 0.68327 0.73165 0.0
H1492 H 0.41099 0.7698 0.73583 0.0
H1493 H 0.46013 0.8103 0.73934 0.0
C1494 C 0.52861 0.79327 0.74004 0.0
C1495 C 0.56323 0.78079 0.73902 0.0
C1496 C 0.50009 0.77024 0.73784 0.0
C1497 C 0.56888 0.74491 0.73634 0.0
C1498 C 0.54078 0.72183 0.73454 0.0
C1499 C 0.47774 0.71096 0.73355 0.0
C1500 C 0.44313 0.72339 0.73441 0.0
C1501 C 0.50623 0.73414 0.73523 0.0
C1502 C 0.4374 0.75953 0.73579 0.0
C1503 C 0.4655 0.78269 0.73776 0.0
H1504 H 0.58649 0.23497 0.98785 0.0
H1505 H 0.49977 0.1634 0.98744 0.0
H1506 H 0.4589 0.2119 0.98347 0.0
H1507 H 0.44749 0.27513 0.98043 0.0
H1508 H 0.53416 0.3466 0.97878 0.0
H1509 H 0.57528 0.2981 0.98295 0.0
C1510 C 0.55855 0.23023 0.98749 0.0
C1511 C 0.54602 0.19574 0.98868 0.0
C1512 C 0.53522 0.25827 0.9845 0.0
C1513 C 0.5099 0.1898 0.98718 0.0
C1514 C 0.48658 0.21747 0.98455 0.0
C1515 C 0.47538 0.28001 0.98114 0.0
C1516 C 0.48773 0.31454 0.9802 0.0
C1517 C 0.49887 0.25186 0.98327 0.0
C1518 C 0.52401 0.32034 0.98009 0.0
C1519 C 0.54752 0.2926 0.98246 0.0
H1520 H 0.07911 0.24937 0.23802 0.0
H1521 H 0.02384 0.34661 0.24458 0.0
H1522 H 0.96795 0.31656 0.24039 0.0
H1523 H 0.93454 0.26202 0.23483 0.0
H1524 H 0.98988 0.16419 0.23177 0.0
H1525 H 0.04589 0.19486 0.23379 0.0
C1526 C 0.05473 0.26381 0.23887 0.0
C1527 C 0.05557 0.30003 0.24201 0.0
C1528 C 0.02276 0.24629 0.23647 0.0
C1529 C 0.02386 0.31856 0.24276 0.0
C1530 C 0.99195 0.30149 0.23995 0.0
C1531 C 0.95896 0.24758 0.23463 0.0
C1532 C 0.95821 0.21088 0.23368 0.0
C1533 C 0.99103 0.26534 0.23671 0.0
C1534 C 0.9899 0.19238 0.23302 0.0
C1535 C 0.02188 0.20993 0.23412 0.0
H1536 H 0.03734 0.68915 0.98311 0.0
H1537 H 0.93806 0.73561 0.99638 0.0
H1538 H 0.96378 0.7939 0.99439 0.0
H1539 H 0.01467 0.83219 0.98815 0.0
H1540 H 0.11479 0.78539 0.97709 0.0
H1541 H 0.08855 0.7271 0.97807 0.0
C1542 C 0.02153 0.71205 0.98586 0.0
C1543 C 0.98601 0.70791 0.99034 0.0
C1544 C 0.03649 0.74558 0.9845 0.0
C1545 C 0.96572 0.73789 0.99357 0.0
C1546 C 0.98025 0.77133 0.99202 0.0
C1547 C 0.03063 0.80913 0.98602 0.0
C1548 C 0.06678 0.81292 0.98307 0.0
C1549 C 0.01556 0.77556 0.98733 0.0
C1550 C 0.08711 0.78299 0.9799 0.0
C1551 C 0.07208 0.74969 0.98041 0.0
H1552 H 0.92539 0.24746 0.73787 0.0
H1553 H 0.97786 0.34499 0.72826 0.0
H1554 H 0.03446 0.31493 0.72757 0.0
H1555 H 0.06927 0.26077 0.73015 0.0
H1556 H 0.01758 0.16414 0.74274 0.0
H1557 H 0.96082 0.19388 0.74266 0.0
C1558 C 0.94933 0.26203 0.73577 0.0
C1559 C 0.94766 0.29851 0.73364 0.0
C1560 C 0.98197 0.24471 0.73618 0.0
C1561 C 0.97867 0.31706 0.73046 0.0
C1562 C 0.011 0.29984 0.73 0.0
C1563 C 0.0456 0.24642 0.73322 0.0
C1564 C 0.04771 0.2104 0.73674 0.0
C1565 C 0.01305 0.26377 0.73314 0.0
C1566 C 0.01681 0.19203 0.74048 0.0
C1567 C 0.98425 0.20892 0.74006 0.0
H1568 H 0.57141 0.28043 0.4817 0.0
H1569 H 0.48428 0.35159 0.48356 0.0
H1570 H 0.44336 0.30235 0.48497 0.0
H1571 H 0.43262 0.23865 0.4872 0.0
H1572 H 0.51964 0.16765 0.48291 0.0
H1573 H 0.56031 0.21682 0.48104 0.0
C1574 C 0.54345 0.28501 0.48254 0.0
C1575 C 0.53082 0.31946 0.48354 0.0
C1576 C 0.52012 0.25653 0.48301 0.0
C1577 C 0.49454 0.3252 0.48349 0.0
C1578 C 0.47118 0.29707 0.48425 0.0
C1579 C 0.46058 0.23408 0.48641 0.0
C1580 C 0.47333 0.19959 0.48603 0.0
C1581 C 0.48371 0.26258 0.48458 0.0
C1582 C 0.50942 0.19398 0.48391 0.0
C1583 C 0.53259 0.22208 0.48247 0.0
H1584 H 0.43738 0.74988 0.23481 0.0
H1585 H 0.49101 0.84716 0.24349 0.0
H1586 H 0.54749 0.81744 0.24088 0.0
H1587 H 0.582 0.76377 0.23471 0.0
H1588 H 0.5283 0.66569 0.22906 0.0
H1589 H 0.47174 0.69557 0.23121 0.0
C1590 C 0.46147 0.76439 0.2365 0.0
C1591 C 0.45993 0.80062 0.2396 0.0
C1592 C 0.49391 0.74704 0.23498 0.0
C1593 C 0.49137 0.81915 0.24156 0.0
C1594 C 0.52373 0.80226 0.2397 0.0
C1595 C 0.55784 0.74904 0.23408 0.0
C1596 C 0.55924 0.7125 0.23216 0.0
C1597 C 0.52537 0.76628 0.23613 0.0
C1598 C 0.52782 0.69372 0.23099 0.0
C1599 C 0.4955 0.71082 0.23217 0.0
H1600 H 0.9222 0.27171 0.55877 0.0
H1601 H 0.00878 0.34285 0.56293 0.0
H1602 H 0.05013 0.29468 0.55815 0.0
H1603 H 0.06147 0.23237 0.55119 0.0
H1604 H 0.97491 0.16074 0.54925 0.0
H1605 H 0.93381 0.20866 0.55466 0.0
C1606 C 0.95014 0.27655 0.55854 0.0
C1607 C 0.9625 0.31095 0.56024 0.0
C1608 C 0.97373 0.2486 0.55606 0.0
C1609 C 0.99873 0.31671 0.56098 0.0
C1610 C 0.02235 0.28917 0.55828 0.0
C1611 C 0.03352 0.22757 0.55138 0.0
C1612 C 0.02104 0.19336 0.54893 0.0
C1613 C 0.01012 0.25513 0.55523 0.0
C1614 C 0.98494 0.1871 0.55035 0.0
C1615 C 0.96152 0.21436 0.55383 0.0
H1616 H 0.49192 0.19902 0.30049 0.0
H1617 H 0.42335 0.28829 0.30035 0.0
H1618 H 0.47303 0.32716 0.30538 0.0
H1619 H 0.53646 0.33605 0.30955 0.0
H1620 H 0.60472 0.24679 0.31194 0.0
H1621 H 0.55508 0.20769 0.30659 0.0
C1622 C 0.48815 0.22709 0.30096 0.0
C1623 C 0.45417 0.24093 0.2993 0.0
C1624 C 0.5168 0.24923 0.30459 0.0
C1625 C 0.44939 0.27717 0.30096 0.0
C1626 C 0.4777 0.29933 0.30421 0.0
C1627 C 0.54039 0.30804 0.30875 0.0
C1628 C 0.57441 0.29435 0.31023 0.0
C1629 C 0.51158 0.28573 0.30598 0.0
C1630 C 0.57892 0.25794 0.31021 0.0
C1631 C 0.55053 0.23559 0.30717 0.0
H1632 H 0.44861 0.77515 0.05576 0.0
H1633 H 0.53486 0.84625 0.04972 0.0
H1634 H 0.57509 0.79711 0.04526 0.0
H1635 H 0.58611 0.73335 0.04381 0.0
H1636 H 0.5001 0.6624 0.05127 0.0
H1637 H 0.45949 0.71154 0.05394 0.0
C1638 C 0.47612 0.77979 0.05318 0.0
C1639 C 0.4885 0.81432 0.05229 0.0
C1640 C 0.4992 0.75128 0.05081 0.0
C1641 C 0.52454 0.81991 0.04991 0.0
C1642 C 0.54757 0.79181 0.04738 0.0
C1643 C 0.55831 0.72873 0.04544 0.0
C1644 C 0.546 0.69421 0.04691 0.0
C1645 C 0.53521 0.7573 0.04766 0.0
C1646 C 0.51008 0.68869 0.04973 0.0
C1647 C 0.48693 0.71681 0.05155 0.0
H1648 H 0.93466 0.76944 0.81016 0.0
H1649 H 0.98227 0.67054 0.79748 0.0
H1650 H 0.04043 0.69658 0.79998 0.0
H1651 H 0.07816 0.74806 0.80574 0.0
H1652 H 0.03003 0.84785 0.81576 0.0
H1653 H 0.97201 0.82087 0.81525 0.0
C1654 C 0.9578 0.75376 0.80767 0.0
C1655 C 0.95405 0.7183 0.80317 0.0
C1656 C 0.99118 0.76893 0.80927 0.0
C1657 C 0.9843 0.69816 0.8003 0.0
C1658 C 0.01763 0.71288 0.80216 0.0
C1659 C 0.05487 0.76374 0.80782 0.0
C1660 C 0.05815 0.80001 0.81026 0.0
C1661 C 0.02145 0.74824 0.80669 0.0
C1662 C 0.02797 0.82004 0.81335 0.0
C1663 C 0.99484 0.8046 0.8131 0.0
H1664 H 0.34041 0.40121 0.03179 0.0
H1665 H 0.30721 0.41321 0.97836 0.0
H1666 H 0.2466 0.41937 0.98822 0.0
H1667 H 0.20274 0.41411 1.01149 0.0
H1668 H 0.23536 0.39947 0.06477 0.0
H1669 H 0.29674 0.4023 0.05547 0.0
C1670 C 0.32006 0.40562 0.02224 0.0
C1671 C 0.32854 0.40624 1.00425 0.0
C1672 C 0.28516 0.40852 0.02799 0.0
C1673 C 0.30166 0.41249 0.99222 0.0
C1674 C 0.26692 0.41584 0.99786 0.0
C1675 C 0.22323 0.41206 0.02117 0.0
C1676 C 0.21435 0.40614 0.03884 0.0
C1677 C 0.25831 0.41282 1.01565 0.0
C1678 C 0.24132 0.4041 0.05115 0.0
C1679 C 0.27643 0.40538 0.04578 0.0
H1680 H 0.84985 0.03986 0.23925 0.0
H1681 H 0.84608 0.08972 0.28971 0.0
H1682 H 0.83971 0.03333 0.30388 0.0
H1683 H 0.84501 0.96923 0.30235 0.0
H1684 H 0.84791 0.91945 0.25183 0.0
H1685 H 0.8442 0.97587 0.23754 0.0
C1686 C 0.84656 0.03847 0.25328 0.0
C1687 C 0.84922 0.06903 0.26334 0.0
C1688 C 0.84331 1.00569 0.2615 0.0
C1689 C 0.84481 0.06659 0.28158 0.0
C1690 C 0.84124 0.03426 0.28978 0.0
C1691 C 0.84385 0.97065 0.28824 0.0
C1692 C 0.8476 0.94004 0.27828 0.0
C1693 C 0.84201 1.00347 0.27994 0.0
C1694 C 0.84583 0.94256 0.25994 0.0
C1695 C 0.84374 0.97492 0.25166 0.0
H1696 H 0.17965 0.60093 0.53125 0.0
H1697 H 0.20619 0.61381 0.47688 0.0
H1698 H 0.26846 0.61167 0.48416 0.0
H1699 H 0.31463 0.61351 0.50631 0.0
H1700 H 0.28781 0.60224 0.56076 0.0
H1701 H 0.22615 0.59589 0.55303 0.0
C1702 C 0.19903 0.60284 0.52093 0.0
C1703 C 0.18827 0.60808 0.50355 0.0
C1704 C 0.23464 0.60211 0.52525 0.0
C1705 C 0.21372 0.60984 0.49033 0.0
C1706 C 0.24931 0.60885 0.49452 0.0
C1707 C 0.29539 0.6092 0.51651 0.0
C1708 C 0.30582 0.6089 0.53415 0.0
C1709 C 0.25999 0.60613 0.51199 0.0
C1710 C 0.28058 0.60267 0.54712 0.0
C1711 C 0.24528 0.59927 0.5427 0.0
H1712 H 0.64724 0.07412 0.75623 0.0
H1713 H 0.6569 0.04718 0.81063 0.0
H1714 H 0.66085 0.9853 0.80278 0.0
H1715 H 0.65468 0.93884 0.78083 0.0
H1716 H 0.64391 0.96573 0.72648 0.0
H1717 H 0.64762 0.02779 0.73398 0.0
C1718 C 0.65071 0.0548 0.7664 0.0
C1719 C 0.65135 0.06541 0.78407 0.0
C1720 C 0.65244 0.01926 0.7618 0.0
C1721 C 0.65636 0.03993 0.79698 0.0
C1722 C 0.65834 1.00448 0.79248 0.0
C1723 C 0.65355 0.95821 0.77055 0.0
C1724 C 0.64854 0.94751 0.75309 0.0
C1725 C 0.65533 0.99382 0.77499 0.0
C1726 C 0.64771 0.97307 0.73998 0.0
C1727 C 0.64962 0.00861 0.7443 0.0
H1728 H 0.7056 0.60706 1.00482 0.0
H1729 H 0.72883 0.6042 0.05987 0.0
H1730 H 0.79115 0.59837 0.05312 0.0
H1731 H 0.83903 0.6012 0.03179 0.0
H1732 H 0.81607 0.6066 0.9768 0.0
H1733 H 0.75341 0.60354 0.98337 0.0
C1734 C 0.72418 0.60478 1.0154 0.0
C1735 C 0.71242 0.60662 0.03289 0.0
C1736 C 0.75999 0.60196 1.01142 0.0
C1737 C 0.73698 0.60303 0.04634 0.0
C1738 C 0.77267 0.59984 0.04246 0.0
C1739 C 0.8204 0.60116 0.02117 0.0
C1740 C 0.83235 0.60458 1.00379 0.0
C1741 C 0.78449 0.60032 0.02508 0.0
C1742 C 0.80775 0.60395 0.99025 0.0
C1743 C 0.77188 0.60254 0.99403 0.0
H1744 H 0.15806 0.93217 0.7548 0.0
H1745 H 0.17303 0.96509 0.80811 0.0
H1746 H 0.17745 0.02584 0.79847 0.0
H1747 H 0.16715 0.06969 0.77571 0.0
H1748 H 0.14854 0.03695 0.72269 0.0
H1749 H 0.15603 0.97587 0.73139 0.0
C1750 C 0.16299 0.95254 0.76432 0.0
C1751 C 0.16464 0.94405 0.78224 0.0
C1752 C 0.16443 0.98744 0.75873 0.0
C1753 C 0.17162 0.97075 0.79429 0.0
C1754 C 0.17381 1.00556 0.78878 0.0
C1755 C 0.16537 0.04926 0.76594 0.0
C1756 C 0.1567 0.05791 0.74857 0.0
C1757 C 0.16873 0.01425 0.77115 0.0
C1758 C 0.15513 0.03113 0.73609 0.0
C1759 C 0.1591 0.99617 0.74112 0.0
H1760 H 0.78239 0.40863 0.55587 0.0
H1761 H 0.83229 0.41377 0.50538 0.0
H1762 H 0.77576 0.42001 0.49132 0.0
H1763 H 0.71159 0.41457 0.4929 0.0
H1764 H 0.66178 0.40918 0.54341 0.0
H1765 H 0.71825 0.41312 0.55771 0.0
C1766 C 0.78094 0.4121 0.54186 0.0
C1767 C 0.81154 0.40999 0.53174 0.0
C1768 C 0.7481 0.41517 0.53371 0.0
C1769 C 0.8091 0.41461 0.51354 0.0
C1770 C 0.7767 0.41814 0.50541 0.0
C1771 C 0.71306 0.41525 0.50702 0.0
C1772 C 0.68252 0.41086 0.51699 0.0
C1773 C 0.74589 0.41699 0.51529 0.0
C1774 C 0.68495 0.41184 0.53533 0.0
C1775 C 0.7173 0.41405 0.54359 0.0
H1776 H 0.36654 0.08538 0.25388 0.0
H1777 H 0.35871 0.06116 0.30873 0.0
H1778 H 0.35228 0.99915 0.30162 0.0
H1779 H 0.35604 0.95167 0.28013 0.0
H1780 H 0.366 0.97571 0.22536 0.0
H1781 H 0.3637 0.03819 0.23216 0.0
C1782 C 0.36305 0.06664 0.26433 0.0
C1783 C 0.36366 0.078 0.28189 0.0
C1784 C 0.35983 0.03103 0.26014 0.0
C1785 C 0.35846 0.0533 0.29516 0.0
C1786 C 0.35495 0.01779 0.29108 0.0
C1787 C 0.35715 0.97052 0.2696 0.0
C1788 C 0.36164 0.95889 0.25222 0.0
C1789 C 0.35665 1.00632 0.27366 0.0
C1790 C 0.3625 0.98377 0.2388 0.0
C1791 C 0.36152 0.01954 0.24272 0.0
H1792 H 0.81629 0.90128 0.53375 0.0
H1793 H 0.79001 0.91526 0.47951 0.0
H1794 H 0.72833 0.92187 0.48746 0.0
H1795 H 0.68156 0.91572 0.50925 0.0
H1796 H 0.70755 0.89989 0.56338 0.0
H1797 H 0.7699 0.90249 0.55603 0.0
C1798 C 0.79717 0.90629 0.52365 0.0
C1799 C 0.80776 0.90722 0.50599 0.0
C1800 C 0.76173 0.90945 0.52829 0.0
C1801 C 0.78267 0.91434 0.49316 0.0
C1802 C 0.74734 0.91788 0.4977 0.0
C1803 C 0.70085 0.91335 0.51952 0.0
C1804 C 0.68989 0.90707 0.53683 0.0
C1805 C 0.73652 0.91426 0.51514 0.0
C1806 C 0.71521 0.90469 0.54998 0.0
C1807 C 0.75086 0.90591 0.54575 0.0
H1808 H 0.358 0.56981 0.78306 0.0
H1809 H 0.34488 0.54552 0.72848 0.0
H1810 H 0.33886 0.4836 0.73564 0.0
H1811 H 0.3438 0.43602 0.75696 0.0
H1812 H 0.35752 0.46005 0.81149 0.0
H1813 H 0.35632 0.52254 0.80478 0.0
C1814 C 0.35337 0.55107 0.77271 0.0
C1815 C 0.35232 0.56242 0.75518 0.0
C1816 C 0.35024 0.51544 0.77691 0.0
C1817 C 0.34582 0.5377 0.74204 0.0
C1818 C 0.34259 0.50221 0.74613 0.0
C1819 C 0.34605 0.45489 0.76745 0.0
C1820 C 0.35116 0.44323 0.78472 0.0
C1821 C 0.34573 0.49072 0.76346 0.0
C1822 C 0.35352 0.46815 0.79812 0.0
C1823 C 0.3531 0.50392 0.79426 0.0
H1824 H 0.839 0.10831 1.00787 0.0
H1825 H 0.80933 0.09564 0.06187 0.0
H1826 H 0.74777 0.09259 0.05343 0.0
H1827 H 0.7024 0.10138 0.03125 0.0
H1828 H 0.73171 0.11495 0.97731 0.0
H1829 H 0.79359 0.10945 0.98518 0.0
C1830 C 0.81914 0.10426 1.0178 0.0
C1831 C 0.82884 0.10264 0.03555 0.0
C1832 C 0.78377 0.1031 1.01287 0.0
C1833 C 0.80274 0.09691 0.04816 0.0
C1834 C 0.76748 0.09549 0.04333 0.0
C1835 C 0.72231 0.10265 0.02115 0.0
C1836 C 0.71249 0.10909 1.00372 0.0
C1837 C 0.75769 0.09978 0.02581 0.0
C1838 C 0.73853 0.11005 0.99078 0.0
C1839 C 0.77391 0.10713 0.99532 0.0
H1840 H 0.15966 0.58266 0.25925 0.0
H1841 H 0.15936 0.55746 0.31413 0.0
H1842 H 0.16292 0.49531 0.30696 0.0
H1843 H 0.15862 0.44839 0.28528 0.0
H1844 H 0.15655 0.47327 0.23043 0.0
H1845 H 0.16207 0.53548 0.23746 0.0
C1846 C 0.16084 0.56368 0.26971 0.0
C1847 C 0.15872 0.57489 0.28727 0.0
C1848 C 0.16228 0.52795 0.26548 0.0
C1849 C 0.16083 0.54977 0.30055 0.0
C1850 C 0.16267 0.51416 0.29644 0.0
C1851 C 0.15991 0.46734 0.2748 0.0
C1852 C 0.15671 0.45614 0.25731 0.0
C1853 C 0.16228 0.50299 0.27897 0.0
C1854 C 0.15899 0.48106 0.24395 0.0
C1855 C 0.16184 0.51667 0.248 0.0
H1856 H 0.1802 0.11384 0.50278 0.0
H1857 H 0.20677 0.10905 0.55738 0.0
H1858 H 0.26891 0.10516 0.54961 0.0
H1859 H 0.31534 0.10966 0.52753 0.0
H1860 H 0.28869 0.11648 0.47298 0.0
H1861 H 0.22653 0.11254 0.48056 0.0
C1862 C 0.19951 0.11163 0.51304 0.0
C1863 C 0.18882 0.1123 0.5307 0.0
C1864 C 0.23505 0.10994 0.50847 0.0
C1865 C 0.2142 0.1087 0.54374 0.0
C1866 C 0.24973 0.10668 0.53928 0.0
C1867 C 0.29601 0.10993 0.51722 0.0
C1868 C 0.30673 0.11389 0.49967 0.0
C1869 C 0.26042 0.10829 0.52172 0.0
C1870 C 0.28127 0.11353 0.48654 0.0
C1871 C 0.24572 0.11151 0.49091 0.0
H1872 H 0.67122 0.43816 0.26073 0.0
H1873 H 0.67071 0.47276 0.31434 0.0
H1874 H 0.67379 0.5335 0.30462 0.0
H1875 H 0.66808 0.57644 0.28105 0.0
H1876 H 0.66597 0.54186 0.22746 0.0
H1877 H 0.67304 0.48133 0.23707 0.0
C1878 C 0.67237 0.45891 0.27035 0.0
C1879 C 0.6702 0.45078 0.2883 0.0
C1880 C 0.67336 0.49378 0.26465 0.0
C1881 C 0.67228 0.47809 0.3005 0.0
C1882 C 0.67377 0.51289 0.29492 0.0
C1883 C 0.66975 0.55576 0.2714 0.0
C1884 C 0.66597 0.56375 0.25352 0.0
C1885 C 0.67301 0.52101 0.27705 0.0
C1886 C 0.66877 0.53659 0.24126 0.0
C1887 C 0.67252 0.50192 0.24678 0.0
H1888 H 0.2045 0.92029 0.03275 0.0
H1889 H 0.23284 0.92222 0.97825 0.0
H1890 H 0.29469 0.92627 0.98612 0.0
H1891 H 0.34055 0.91971 1.00833 0.0
H1892 H 0.31219 0.91592 0.06281 0.0
H1893 H 0.25048 0.9227 0.05511 0.0
C1894 C 0.22415 0.92239 0.02256 0.0
C1895 C 0.21397 0.92051 1.00488 0.0
C1896 C 0.25968 0.92396 0.02721 0.0
C1897 C 0.23978 0.9237 0.9919 0.0
C1898 C 0.27522 0.92565 0.99643 0.0
C1899 C 0.32094 0.92111 1.01858 0.0
C1900 C 0.33103 0.91683 0.03616 0.0
C1901 C 0.28548 0.92436 1.01401 0.0
C1902 C 0.3053 0.91918 0.04923 0.0
C1903 C 0.26993 0.92274 0.04479 0.0
H1904 H 0.85165 0.43883 0.78707 0.0
H1905 H 0.83544 0.46593 0.73309 0.0
H1906 H 0.82999 0.52749 0.74121 0.0
H1907 H 0.8385 0.57393 0.76293 0.0
H1908 H 0.85672 0.54713 0.81675 0.0
H1909 H 0.85208 0.48503 0.80944 0.0
C1910 C 0.84629 0.45809 0.77708 0.0
C1911 C 0.84447 0.44767 0.75941 0.0
C1912 C 0.84385 0.49353 0.78182 0.0
C1913 C 0.83701 0.47303 0.74674 0.0
C1914 C 0.83416 0.50833 0.75138 0.0
C1915 C 0.84079 0.55455 0.77316 0.0
C1916 C 0.84842 0.56524 0.79037 0.0
C1917 C 0.83883 0.51894 0.76877 0.0
C1918 C 0.85081 0.53975 0.80345 0.0
C1919 C 0.84848 0.5042 0.79922 0.0
H1920 H 0.10597 0.41413 0.12284 0.0
H1921 H 0.17749 0.32879 0.11382 0.0
H1922 H 0.18468 0.32156 0.14542 0.0
H1923 H 0.16902 0.33859 0.17569 0.0
H1924 H 0.09317 0.42037 0.18418 0.0
H1925 H 0.08933 0.43005 0.15273 0.0
C1926 C 0.12341 0.39411 0.12776 0.0
C1927 C 0.14149 0.37224 0.11597 0.0
C1928 C 0.12651 0.38947 0.14588 0.0
C1929 C 0.1634 0.34602 0.1226 0.0
C1930 C 0.16748 0.34191 0.14067 0.0
C1931 C 0.15189 0.35872 0.17063 0.0
C1932 C 0.1316 0.37899 0.18227 0.0
C1933 C 0.14898 0.36336 0.15244 0.0
C1934 C 0.10905 0.4045 0.17552 0.0
C1935 C 0.10687 0.41003 0.15753 0.0
H1936 H 0.91165 0.92515 0.42037 0.0
H1937 H 0.82933 0.8514 0.43122 0.0
H1938 H 0.81668 0.8467 0.40007 0.0
H1939 H 0.8321 0.85978 0.36971 0.0
H1940 H 0.91851 0.9285 0.35848 0.0
H1941 H 0.92635 0.93927 0.38975 0.0
C1942 C 0.89059 0.9085 0.4159 0.0
C1943 C 0.87129 0.88877 0.42808 0.0
C1944 C 0.88438 0.90491 0.39788 0.0
C1945 C 0.84452 0.86681 0.4221 0.0
C1946 C 0.83732 0.8641 0.40429 0.0
C1947 C 0.85227 0.87762 0.37407 0.0
C1948 C 0.87454 0.89354 0.36177 0.0
C1949 C 0.8575 0.88251 0.39205 0.0
C1950 C 0.90097 0.91603 0.36768 0.0
C1951 C 0.90551 0.92208 0.38556 0.0
H1952 H 0.33221 0.6642 0.66993 0.0
H1953 H 0.41266 0.58879 0.6814 0.0
H1954 H 0.42002 0.5766 0.65026 0.0
H1955 H 0.40676 0.59062 0.61962 0.0
H1956 H 0.33057 0.67033 0.60816 0.0
H1957 H 0.31818 0.67745 0.6393 0.0
C1958 C 0.35095 0.64471 0.66561 0.0
C1959 C 0.37172 0.62727 0.67796 0.0
C1960 C 0.35596 0.63879 0.64763 0.0
C1961 C 0.39635 0.60254 0.67215 0.0
C1962 C 0.40061 0.5956 0.65434 0.0
C1963 C 0.38705 0.60914 0.62395 0.0
C1964 C 0.36945 0.62978 0.61159 0.0
C1965 C 0.38101 0.61401 0.64193 0.0
C1966 C 0.34445 0.65413 0.61741 0.0
C1967 C 0.3374 0.65824 0.63522 0.0
H1968 H 0.66986 0.17099 0.86968 0.0
H1969 H 0.59372 0.09093 0.85905 0.0
H1970 H 0.5883 0.07877 0.89028 0.0
H1971 H 0.60285 0.09305 0.92078 0.0
H1972 H 0.67437 0.17721 0.93153 0.0
H1973 H 0.68408 0.18558 0.90023 0.0
C1974 C 0.65243 0.15058 0.87421 0.0
C1975 C 0.63245 0.13164 0.86204 0.0
C1976 C 0.64849 0.14464 0.89226 0.0
C1977 C 0.60944 0.10578 0.86813 0.0
C1978 C 0.60631 0.09886 0.886 0.0
C1979 C 0.62086 0.11296 0.91626 0.0
C1980 C 0.63809 0.13431 0.92849 0.0
C1981 C 0.62536 0.11842 0.89821 0.0
C1982 C 0.66084 0.16041 0.92241 0.0
C1983 C 0.66638 0.16521 0.9045 0.0
H1984 H 0.15821 0.67981 0.37238 0.0
H1985 H 0.08022 0.60443 0.35745 0.0
H1986 H 0.06919 0.59082 0.38822 0.0
H1987 H 0.08088 0.60147 0.41943 0.0
H1988 H 0.15452 0.68119 0.43425 0.0
H1989 H 0.16823 0.69205 0.40349 0.0
C1990 C 0.13898 0.66021 0.37588 0.0
C1991 C 0.12029 0.64284 0.36268 0.0
C1992 C 0.13199 0.65344 0.39358 0.0
C1993 C 0.09496 0.61805 0.36739 0.0
C1994 C 0.08869 0.61028 0.38497 0.0
C1995 C 0.10011 0.62104 0.41589 0.0
C1996 C 0.11697 0.64029 0.42907 0.0
C1997 C 0.10694 0.62793 0.39818 0.0
C1998 C 0.14129 0.66604 0.42433 0.0
C1999 C 0.14912 0.67222 0.40676 0.0
H2000 H 0.6541 0.83848 0.66894 0.0
H2001 H 0.57326 0.91277 0.68194 0.0
H2002 H 0.56364 0.92416 0.65086 0.0
H2003 H 0.57765 0.9121 0.61996 0.0
H2004 H 0.65432 0.83343 0.60709 0.0
H2005 H 0.66626 0.82456 0.63814 0.0
C2006 C 0.63453 0.85734 0.66496 0.0
C2007 C 0.61466 0.8751 0.67771 0.0
C2008 C 0.62841 0.86283 0.6471 0.0
C2009 C 0.58891 0.8989 0.67237 0.0
C2010 C 0.58345 0.90539 0.65461 0.0
C2011 C 0.59713 0.89317 0.62398 0.0
C2012 C 0.61539 0.87368 0.61126 0.0
C2013 C 0.60297 0.88743 0.64186 0.0
C2014 C 0.64002 0.84876 0.61663 0.0
C2015 C 0.64685 0.84373 0.63437 0.0
H2016 H 0.40749 0.4028 0.86042 0.0
H2017 H 0.33836 0.31423 0.86335 0.0
H2018 H 0.34102 0.31528 0.89515 0.0
H2019 H 0.36372 0.34096 0.92237 0.0
H2020 H 0.42852 0.4329 0.91945 0.0
H2021 H 0.42652 0.43122 0.88773 0.0
C2022 C 0.3931 0.38381 0.86808 0.0
C2023 C 0.373 0.35836 0.8596 0.0
C2024 C 0.39378 0.38526 0.88645 0.0
C2025 C 0.35401 0.33415 0.86963 0.0
C2026 C 0.35552 0.33468 0.88782 0.0
C2027 C 0.37713 0.36074 0.91477 0.0
C2028 C 0.39625 0.38691 0.92331 0.0
C2029 C 0.37535 0.3601 0.89642 0.0
C2030 C 0.41337 0.41251 0.91326 0.0
C2031 C 0.41246 0.41151 0.89506 0.0
H2032 H 0.84313 0.15102 0.17175 0.0
H2033 H 0.92553 0.07888 0.18489 0.0
H2034 H 0.9358 0.06699 0.1539 0.0
H2035 H 0.92482 0.08105 0.12294 0.0
H2036 H 0.84614 0.15744 0.11011 0.0
H2037 H 0.8308 0.16351 0.14094 0.0
C2038 C 0.86291 0.13221 0.16785 0.0
C2039 C 0.88341 0.11572 0.18065 0.0
C2040 C 0.86954 0.12649 0.14998 0.0
C2041 C 0.90934 0.09188 0.17532 0.0
C2042 C 0.9153 0.08515 0.15759 0.0
C2043 C 0.90392 0.09857 0.12689 0.0
C2044 C 0.88654 0.11867 0.11422 0.0
C2045 C 0.89607 0.10286 0.14477 0.0
C2046 C 0.85992 0.14169 0.11958 0.0
C2047 C 0.85118 0.14522 0.13723 0.0
H2048 H 0.92575 0.61583 0.86591 0.0
H2049 H 0.83578 0.68361 0.86913 0.0
H2050 H 0.84016 0.68495 0.90082 0.0
H2051 H 0.87005 0.6674 0.92799 0.0
H2052 H 0.95714 0.59602 0.92476 0.0
H2053 H 0.95348 0.59568 0.89304 0.0
C2054 C 0.90704 0.63072 0.87357 0.0
C2055 C 0.88057 0.64957 0.86512 0.0
C2056 C 0.90927 0.63092 0.89192 0.0
C2057 C 0.85637 0.66863 0.87527 0.0
C2058 C 0.85891 0.66959 0.89344 0.0
C2059 C 0.88819 0.65189 0.9203 0.0
C2060 C 0.91389 0.63193 0.92872 0.0
C2061 C 0.88535 0.65098 0.90196 0.0
C2062 C 0.93699 0.61156 0.9186 0.0
C2063 C 0.93499 0.61135 0.90042 0.0
H2064 H 0.07794 0.09182 0.61473 0.0
H2065 H 0.1527 0.17306 0.60364 0.0
H2066 H 0.16352 0.18055 0.63486 0.0
H2067 H 0.15031 0.1655 0.66531 0.0
H2068 H 0.07149 0.0884 0.67676 0.0
H2069 H 0.06357 0.07775 0.64546 0.0
C2070 C 0.09684 0.11091 0.61918 0.0
C2071 C 0.11479 0.13164 0.60688 0.0
C2072 C 0.10201 0.11591 0.63721 0.0
C2073 C 0.13866 0.15675 0.61283 0.0
C2074 C 0.14482 0.16105 0.63068 0.0
C2075 C 0.13157 0.14615 0.66097 0.0
C2076 C 0.11171 0.12752 0.67337 0.0
C2077 C 0.12645 0.14099 0.64299 0.0
C2078 C 0.08711 0.10302 0.6675 0.0
C2079 C 0.08262 0.09693 0.64961 0.0
H2080 H 0.59629 0.43065 0.42477 0.0
H2081 H 0.67754 0.35772 0.43849 0.0
H2082 H 0.69272 0.35025 0.40768 0.0
H2083 H 0.67975 0.36069 0.37672 0.0
H2084 H 0.59447 0.42878 0.36281 0.0
H2085 H 0.58406 0.44204 0.39365 0.0
C2086 C 0.61775 0.41366 0.421 0.0
C2087 C 0.63603 0.39502 0.43391 0.0
C2088 C 0.62534 0.40837 0.40317 0.0
C2089 C 0.66322 0.37246 0.42881 0.0
C2090 C 0.67181 0.3681 0.41119 0.0
C2091 C 0.65921 0.37884 0.38042 0.0
C2092 C 0.63803 0.39387 0.36745 0.0
C2093 C 0.6526 0.38536 0.39822 0.0
C2094 C 0.61116 0.41687 0.37251 0.0
C2095 C 0.60518 0.42443 0.39016 0.0
H2096 H 0.37428 0.85557 0.1147 0.0
H2097 H 0.44782 0.94074 0.11541 0.0
H2098 H 0.44707 0.94089 0.14729 0.0
H2099 H 0.42657 0.91542 0.17534 0.0
H2100 H 0.34965 0.83319 0.17408 0.0
H2101 H 0.35076 0.83325 0.14235 0.0
C2102 C 0.38993 0.87432 0.12184 0.0
C2103 C 0.41113 0.89798 0.11265 0.0
C2104 C 0.38896 0.87466 0.1402 0.0
C2105 C 0.43109 0.9223 0.12213 0.0
C2106 C 0.43084 0.92229 0.1404 0.0
C2107 C 0.41009 0.89762 0.16807 0.0
C2108 C 0.38821 0.87425 0.1771 0.0
C2109 C 0.4101 0.89837 0.14963 0.0
C2110 C 0.36667 0.85158 0.16749 0.0
C2111 C 0.36729 0.8515 0.1493 0.0
H2112 H 0.82733 0.34306 0.67308 0.0
H2113 H 0.89706 0.42879 0.68369 0.0
H2114 H 0.90207 0.44089 0.65249 0.0
H2115 H 0.89078 0.4241 0.62218 0.0
H2116 H 0.82599 0.33474 0.61119 0.0
H2117 H 0.81464 0.32716 0.64244 0.0
C2118 C 0.8431 0.36476 0.66853 0.0
C2119 C 0.86164 0.38517 0.68067 0.0
C2120 C 0.84694 0.3707 0.65048 0.0
C2121 C 0.88253 0.41276 0.67461 0.0
C2122 C 0.88545 0.41964 0.65676 0.0
C2123 C 0.87368 0.4033 0.62658 0.0
C2124 C 0.8591 0.38011 0.61434 0.0
C2125 C 0.86837 0.39835 0.64457 0.0
C2126 C 0.83748 0.35297 0.62032 0.0
C2127 C 0.83107 0.34859 0.6382 0.0
H2128 H 0.35013 0.18737 0.36606 0.0
H2129 H 0.42734 0.10856 0.35428 0.0
H2130 H 0.43308 0.09539 0.38538 0.0
H2131 H 0.4175 0.10751 0.41598 0.0
H2132 H 0.34491 0.19039 0.42806 0.0
H2133 H 0.3359 0.20081 0.39685 0.0
C2134 C 0.36799 0.16712 0.37032 0.0
C2135 C 0.38805 0.14869 0.35787 0.0
C2136 C 0.37203 0.16056 0.38828 0.0
C2137 C 0.41159 0.12302 0.36359 0.0
C2138 C 0.41486 0.1155 0.38137 0.0
C2139 C 0.39947 0.12767 0.41177 0.0
C2140 C 0.38158 0.14792 0.42432 0.0
C2141 C 0.39539 0.13425 0.39384 0.0
C2142 C 0.35888 0.1744 0.41867 0.0
C2143 C 0.35375 0.18034 0.40083 0.0
H2144 H 0.67049 0.67026 0.16759 0.0
H2145 H 0.59879 0.58554 0.17712 0.0
H2146 H 0.59264 0.57632 0.14566 0.0
H2147 H 0.60575 0.59393 0.11558 0.0
H2148 H 0.67279 0.68232 0.10591 0.0
H2149 H 0.68272 0.68869 0.13734 0.0
C2150 C 0.65386 0.6495 0.16275 0.0
C2151 C 0.63541 0.62828 0.17462 0.0
C2152 C 0.64947 0.64527 0.14467 0.0
C2153 C 0.61334 0.60204 0.16822 0.0
C2154 C 0.6098 0.59684 0.15026 0.0
C2155 C 0.62278 0.61444 0.12033 0.0
C2156 C 0.63878 0.63748 0.10843 0.0
C2157 C 0.62745 0.61852 0.13838 0.0
C2158 C 0.66024 0.66428 0.11481 0.0
C2159 C 0.66592 0.66787 0.13276 0.0
H2160 H 0.11531 0.91673 0.86472 0.0
H2161 H 0.19633 0.8383 0.86528 0.0
H2162 H 0.19923 0.84181 0.89701 0.0
H2163 H 0.17598 0.8643 0.92496 0.0
H2164 H 0.09786 0.9456 0.92437 0.0
H2165 H 0.09688 0.94407 0.89255 0.0
C2166 C 0.13386 0.90073 0.87179 0.0
C2167 C 0.15537 0.87712 0.86259 0.0
C2168 C 0.13586 0.90328 0.89013 0.0
C2169 C 0.17949 0.85678 0.87197 0.0
C2170 C 0.18108 0.85863 0.89017 0.0
C2171 C 0.15908 0.88198 0.91784 0.0
C2172 C 0.13688 0.90485 0.92709 0.0
C2173 C 0.159 0.88137 0.89944 0.0
C2174 C 0.11533 0.92778 0.91764 0.0
C2175 C 0.11459 0.92681 0.89939 0.0
loop_
_geom_bond_atom_site_label_1
_geom_bond_atom_site_label_2
_geom_bond_distance
_geom_bond_site_symmetry_2
_ccdc_geom_bond_type
Mn0 O5 2.095 . S
Mn0 O15 2.162 . S
Mn0 O16 2.297 . S
Mn0 O24 2.385 . S
Mn0 O25 2.209 . S
Mn0 O26 2.094 . S
Mn1 O6 2.121 . S
Mn1 N8 2.257 1_554 S
Mn1 N17 2.282 1_554 S
Mn1 O25 2.215 . S
Mn1 O27 2.117 . S
C2 O24 1.234 . S
C2 O25 1.283 . S
C3 O15 1.281 . S
C3 O16 1.236 . S
C4 O26 1.240 . S
C4 O27 1.264 . S
O5 Mn0 2.095 . S
O5 C14 1.250 . S
O6 Mn1 2.121 . S
O6 C14 1.258 . S
C7 N8 1.326 . S
C7 C11 1.460 . S
C7 H13 0.929 . S
N8 Mn1 2.257 1_556 S
N8 C7 1.326 . S
N8 C12 1.362 . S
C9 C10 1.258 . S
C9 C12 1.431 . S
C9 C29 1.449 . S
C10 C9 1.258 . S
C10 C11 1.477 . S
C10 H30 0.931 . S
C11 C7 1.460 . S
C11 C10 1.477 . S
C11 H31 0.930 . S
C12 N8 1.362 . S
C12 C9 1.431 . S
C12 C22 1.476 . S
H13 C7 0.929 . S
C14 O5 1.250 . S
C14 O6 1.258 . S
O15 Mn0 2.162 . S
O15 C3 1.281 . S
O16 Mn0 2.297 . S
O16 C3 1.236 . S
N17 Mn1 2.282 1_556 S
N17 C18 1.328 1_556 S
N17 C22 1.318 . S
C18 N17 1.328 1_554 S
C18 C19 1.457 1_454 S
C18 H23 0.929 . S
C19 C18 1.457 1_656 S
C19 C20 1.291 . S
C19 H32 0.933 . S
C20 C19 1.291 . S
C20 C21 1.373 1_655 S
C20 H33 0.929 . S
C21 C20 1.373 1_455 S
C21 C22 1.396 . S
C21 C28 1.403 . S
C22 C12 1.476 . S
C22 N17 1.318 . S
C22 C21 1.396 . S
H23 C18 0.929 . S
O24 Mn0 2.385 . S
O24 C2 1.234 . S
O25 Mn0 2.209 . S
O25 Mn1 2.215 . S
O25 C2 1.283 . S
O26 Mn0 2.094 . S
O26 C4 1.240 . S
O27 Mn1 2.117 . S
O27 C4 1.264 . S
C28 C21 1.403 . S
C28 C29 1.399 . S
C28 H34 0.929 1_455 S
C29 C9 1.449 . S
C29 C28 1.399 . S
C29 H35 0.930 . S
H30 C10 0.931 . S
H31 C11 0.930 . S
H32 C19 0.933 . S
H33 C20 0.929 . S
H34 C28 0.929 1_655 S
H35 C29 0.930 . S
Mn36 O41 2.095 . S
Mn36 O51 2.162 . S
Mn36 O52 2.297 . S
Mn36 O60 2.385 . S
Mn36 O61 2.209 . S
Mn36 O62 2.094 . S
Mn37 O42 2.121 . S
Mn37 N44 2.257 . S
Mn37 N53 2.282 . S
Mn37 O61 2.215 . S
Mn37 O63 2.117 . S
C38 O60 1.234 . S
C38 O61 1.283 . S
C39 O51 1.281 . S
C39 O52 1.236 . S
C40 O62 1.240 . S
C40 O63 1.264 . S
O41 Mn36 2.095 . S
O41 C50 1.250 . S
O42 Mn37 2.121 . S
O42 C50 1.258 . S
C43 N44 1.326 . S
C43 C47 1.460 . S
C43 H49 0.929 . S
N44 Mn37 2.257 . S
N44 C43 1.326 . S
N44 C48 1.362 . S
C45 C46 1.258 1_655 S
C45 C48 1.431 . S
C45 C65 1.449 1_655 S
C46 C45 1.258 1_455 S
C46 C47 1.477 1_455 S
C46 H66 0.931 . S
C47 C43 1.460 . S
C47 C46 1.477 1_655 S
C47 H67 0.930 1_655 S
C48 N44 1.362 . S
C48 C45 1.431 . S
C48 C58 1.476 . S
H49 C43 0.929 . S
C50 O41 1.250 . S
C50 O42 1.258 . S
O51 Mn36 2.162 . S
O51 C39 1.281 . S
O52 Mn36 2.297 . S
O52 C39 1.236 . S
N53 Mn37 2.282 . S
N53 C54 1.328 . S
N53 C58 1.318 . S
C54 N53 1.328 . S
C54 C55 1.457 . S
C54 H59 0.929 . S
C55 C54 1.457 . S
C55 C56 1.291 . S
C55 H68 0.931 . S
C56 C55 1.291 . S
C56 C57 1.373 . S
C56 H69 0.929 . S
C57 C56 1.373 . S
C57 C58 1.396 . S
C57 C64 1.403 . S
C58 C48 1.476 . S
C58 N53 1.318 . S
C58 C57 1.396 . S
H59 C54 0.929 . S
O60 Mn36 2.385 . S
O60 C38 1.234 . S
O61 Mn36 2.209 . S
O61 Mn37 2.215 . S
O61 C38 1.283 . S
O62 Mn36 2.094 . S
O62 C40 1.240 . S
O63 Mn37 2.117 . S
O63 C40 1.264 . S
C64 C57 1.403 . S
C64 C65 1.399 1_655 S
C64 H70 0.929 1_655 S
C65 C45 1.449 1_455 S
C65 C64 1.399 1_455 S
C65 H71 0.930 . S
H66 C46 0.931 . S
H67 C47 0.930 1_455 S
H68 C55 0.931 . S
H69 C56 0.929 . S
H70 C64 0.929 1_455 S
H71 C65 0.930 . S
Mn72 O77 2.095 . S
Mn72 O87 2.162 . S
Mn72 O88 2.297 . S
Mn72 O96 2.385 . S
Mn72 O97 2.209 . S
Mn72 O98 2.094 . S
Mn73 O78 2.121 . S
Mn73 N80 2.257 . S
Mn73 N89 2.282 . S
Mn73 O97 2.215 . S
Mn73 O99 2.117 . S
C74 O96 1.234 . S
C74 O97 1.283 . S
C75 O87 1.281 . S
C75 O88 1.236 . S
C76 O98 1.240 . S
C76 O99 1.264 . S
O77 Mn72 2.095 . S
O77 C86 1.250 . S
O78 Mn73 2.121 . S
O78 C86 1.258 . S
C79 N80 1.326 . S
C79 C83 1.460 . S
C79 H85 0.929 . S
N80 Mn73 2.257 . S
N80 C79 1.326 . S
N80 C84 1.362 . S
C81 C82 1.258 . S
C81 C84 1.431 . S
C81 C101 1.449 . S
C82 C81 1.258 . S
C82 C83 1.477 . S
C82 H102 0.931 . S
C83 C79 1.460 . S
C83 C82 1.477 . S
C83 H103 0.930 . S
C84 N80 1.362 . S
C84 C81 1.431 . S
C84 C94 1.476 . S
H85 C79 0.929 . S
C86 O77 1.250 . S
C86 O78 1.258 . S
O87 Mn72 2.162 . S
O87 C75 1.281 . S
O88 Mn72 2.297 . S
O88 C75 1.236 . S
N89 Mn73 2.282 . S
N89 C90 1.328 . S
N89 C94 1.318 . S
C90 N89 1.328 . S
C90 C91 1.457 . S
C90 H95 0.929 . S
C91 C90 1.457 . S
C91 C92 1.291 . S
C91 H104 0.931 . S
C92 C91 1.291 . S
C92 C93 1.373 . S
C92 H105 0.929 . S
C93 C92 1.373 . S
C93 C94 1.396 . S
C93 C100 1.403 . S
C94 C84 1.476 . S
C94 N89 1.318 . S
C94 C93 1.396 . S
H95 C90 0.929 . S
O96 Mn72 2.385 . S
O96 C74 1.234 . S
O97 Mn72 2.209 . S
O97 Mn73 2.215 . S
O97 C74 1.283 . S
O98 Mn72 2.094 . S
O98 C76 1.240 . S
O99 Mn73 2.117 . S
O99 C76 1.264 . S
C100 C93 1.403 . S
C100 C101 1.399 . S
C100 H106 0.929 . S
C101 C81 1.449 . S
C101 C100 1.399 . S
C101 H107 0.930 . S
H102 C82 0.931 . S
H103 C83 0.930 . S
H104 C91 0.931 . S
H105 C92 0.929 . S
H106 C100 0.929 . S
H107 C101 0.930 . S
Mn108 O113 2.095 . S
Mn108 O123 2.162 . S
Mn108 O124 2.297 . S
Mn108 O132 2.385 . S
Mn108 O133 2.209 . S
Mn108 O134 2.094 . S
Mn109 O114 2.121 . S
Mn109 N116 2.257 . S
Mn109 N125 2.282 . S
Mn109 O133 2.215 . S
Mn109 O135 2.117 . S
C110 O132 1.234 . S
C110 O133 1.283 . S
C111 O123 1.281 . S
C111 O124 1.236 . S
C112 O134 1.240 . S
C112 O135 1.264 . S
O113 Mn108 2.095 . S
O113 C122 1.250 . S
O114 Mn109 2.121 . S
O114 C122 1.258 . S
C115 N116 1.326 . S
C115 C119 1.460 . S
C115 H121 0.929 . S
N116 Mn109 2.257 . S
N116 C115 1.326 . S
N116 C120 1.362 . S
C117 C118 1.258 . S
C117 C120 1.431 . S
C117 C137 1.449 . S
C118 C117 1.258 . S
C118 C119 1.477 . S
C118 H138 0.931 . S
C119 C115 1.460 . S
C119 C118 1.477 . S
C119 H139 0.930 . S
C120 N116 1.362 . S
C120 C117 1.431 . S
C120 C130 1.476 . S
H121 C115 0.929 . S
C122 O113 1.250 . S
C122 O114 1.258 . S
O123 Mn108 2.162 . S
O123 C111 1.281 . S
O124 Mn108 2.297 . S
O124 C111 1.236 . S
N125 Mn109 2.282 . S
N125 C126 1.328 . S
N125 C130 1.318 . S
C126 N125 1.328 . S
C126 C127 1.457 . S
C126 H131 0.929 . S
C127 C126 1.457 . S
C127 C128 1.291 . S
C127 H140 0.931 . S
C128 C127 1.291 . S
C128 C129 1.373 . S
C128 H141 0.929 . S
C129 C128 1.373 . S
C129 C130 1.396 . S
C129 C136 1.403 . S
C130 C120 1.476 . S
C130 N125 1.318 . S
C130 C129 1.396 . S
H131 C126 0.929 . S
O132 Mn108 2.385 . S
O132 C110 1.234 . S
O133 Mn108 2.209 . S
O133 Mn109 2.215 . S
O133 C110 1.283 . S
O134 Mn108 2.094 . S
O134 C112 1.240 . S
O135 Mn109 2.117 . S
O135 C112 1.264 . S
C136 C129 1.403 . S
C136 C137 1.399 . S
C136 H142 0.929 . S
C137 C117 1.449 . S
C137 C136 1.399 . S
C137 H143 0.930 . S
H138 C118 0.931 . S
H139 C119 0.930 . S
H140 C127 0.931 . S
H141 C128 0.929 . S
H142 C136 0.929 . S
H143 C137 0.930 . S
Mn144 O149 2.095 . S
Mn144 O159 2.162 . S
Mn144 O160 2.297 . S
Mn144 O168 2.385 . S
Mn144 O169 2.209 . S
Mn144 O170 2.094 . S
Mn145 O150 2.121 . S
Mn145 N152 2.257 . S
Mn145 N161 2.282 . S
Mn145 O169 2.215 . S
Mn145 O171 2.117 . S
C146 O168 1.234 . S
C146 O169 1.283 . S
C147 O159 1.281 . S
C147 O160 1.236 . S
C148 O170 1.240 . S
C148 O171 1.264 . S
O149 Mn144 2.095 . S
O149 C158 1.250 . S
O150 Mn145 2.121 . S
O150 C158 1.258 . S
C151 N152 1.326 . S
C151 C155 1.460 . S
C151 H157 0.929 . S
N152 Mn145 2.257 . S
N152 C151 1.326 . S
N152 C156 1.362 . S
C153 C154 1.258 . S
C153 C156 1.431 . S
C153 C173 1.449 . S
C154 C153 1.258 . S
C154 C155 1.477 . S
C154 H174 0.931 . S
C155 C151 1.460 . S
C155 C154 1.477 . S
C155 H175 0.930 . S
C156 N152 1.362 . S
C156 C153 1.431 . S
C156 C166 1.476 . S
H157 C151 0.929 . S
C158 O149 1.250 . S
C158 O150 1.258 . S
O159 Mn144 2.162 . S
O159 C147 1.281 . S
O160 Mn144 2.297 . S
O160 C147 1.236 . S
N161 Mn145 2.282 . S
N161 C162 1.328 . S
N161 C166 1.318 . S
C162 N161 1.328 . S
C162 C163 1.457 1_455 S
C162 H167 0.929 . S
C163 C162 1.457 1_655 S
C163 C164 1.291 . S
C163 H176 0.931 . S
C164 C163 1.291 . S
C164 C165 1.373 1_655 S
C164 H177 0.929 . S
C165 C164 1.373 1_455 S
C165 C166 1.396 . S
C165 C172 1.403 . S
C166 C156 1.476 . S
C166 N161 1.318 . S
C166 C165 1.396 . S
H167 C162 0.929 . S
O168 Mn144 2.385 . S
O168 C146 1.234 . S
O169 Mn144 2.209 . S
O169 Mn145 2.215 . S
O169 C146 1.283 . S
O170 Mn144 2.094 . S
O170 C148 1.240 . S
O171 Mn145 2.117 . S
O171 C148 1.264 . S
C172 C165 1.403 . S
C172 C173 1.399 . S
C172 H178 0.929 1_455 S
C173 C153 1.449 . S
C173 C172 1.399 . S
C173 H179 0.930 . S
H174 C154 0.931 . S
H175 C155 0.930 . S
H176 C163 0.931 . S
H177 C164 0.929 . S
H178 C172 0.929 1_655 S
H179 C173 0.930 . S
Mn180 O185 2.095 . S
Mn180 O195 2.162 . S
Mn180 O196 2.297 . S
Mn180 O204 2.385 . S
Mn180 O205 2.209 . S
Mn180 O206 2.094 . S
Mn181 O186 2.121 . S
Mn181 N188 2.257 . S
Mn181 N197 2.282 . S
Mn181 O205 2.215 . S
Mn181 O207 2.117 . S
C182 O204 1.234 . S
C182 O205 1.283 . S
C183 O195 1.281 . S
C183 O196 1.236 . S
C184 O206 1.240 . S
C184 O207 1.264 . S
O185 Mn180 2.095 . S
O185 C194 1.250 . S
O186 Mn181 2.121 . S
O186 C194 1.258 . S
C187 N188 1.326 . S
C187 C191 1.460 . S
C187 H193 0.929 . S
N188 Mn181 2.257 . S
N188 C187 1.326 . S
N188 C192 1.362 . S
C189 C190 1.258 . S
C189 C192 1.431 . S
C189 C209 1.449 . S
C190 C189 1.258 . S
C190 C191 1.477 . S
C190 H210 0.931 . S
C191 C187 1.460 . S
C191 C190 1.477 . S
C191 H211 0.930 . S
C192 N188 1.362 . S
C192 C189 1.431 . S
C192 C202 1.476 . S
H193 C187 0.929 . S
C194 O185 1.250 . S
C194 O186 1.258 . S
O195 Mn180 2.162 . S
O195 C183 1.281 . S
O196 Mn180 2.297 . S
O196 C183 1.236 . S
N197 Mn181 2.282 . S
N197 C198 1.328 . S
N197 C202 1.318 . S
C198 N197 1.328 . S
C198 C199 1.457 . S
C198 H203 0.929 . S
C199 C198 1.457 . S
C199 C200 1.291 . S
C199 H212 0.931 . S
C200 C199 1.291 . S
C200 C201 1.373 . S
C200 H213 0.929 . S
C201 C200 1.373 . S
C201 C202 1.396 . S
C201 C208 1.403 . S
C202 C192 1.476 . S
C202 N197 1.318 . S
C202 C201 1.396 . S
H203 C198 0.929 . S
O204 Mn180 2.385 . S
O204 C182 1.234 . S
O205 Mn180 2.209 . S
O205 Mn181 2.215 . S
O205 C182 1.283 . S
O206 Mn180 2.094 . S
O206 C184 1.240 . S
O207 Mn181 2.117 . S
O207 C184 1.264 . S
C208 C201 1.403 . S
C208 C209 1.399 . S
C208 H214 0.929 . S
C209 C189 1.449 . S
C209 C208 1.399 . S
C209 H215 0.930 . S
H210 C190 0.931 . S
H211 C191 0.930 . S
H212 C199 0.931 . S
H213 C200 0.929 . S
H214 C208 0.929 . S
H215 C209 0.930 . S
Mn216 O221 2.095 . S
Mn216 O231 2.162 . S
Mn216 O232 2.297 . S
Mn216 O240 2.385 . S
Mn216 O241 2.209 . S
Mn216 O242 2.094 . S
Mn217 O222 2.121 . S
Mn217 N224 2.257 1_556 S
Mn217 N233 2.282 1_556 S
Mn217 O241 2.215 . S
Mn217 O243 2.117 . S
C218 O240 1.234 . S
C218 O241 1.283 . S
C219 O231 1.281 . S
C219 O232 1.236 . S
C220 O242 1.240 . S
C220 O243 1.264 . S
O221 Mn216 2.095 . S
O221 C230 1.250 . S
O222 Mn217 2.121 . S
O222 C230 1.258 . S
C223 N224 1.326 . S
C223 C227 1.460 . S
C223 H229 0.929 . S
N224 Mn217 2.257 1_554 S
N224 C223 1.326 . S
N224 C228 1.362 . S
C225 C226 1.258 . S
C225 C228 1.431 . S
C225 C245 1.449 . S
C226 C225 1.258 . S
C226 C227 1.477 . S
C226 H246 0.931 . S
C227 C223 1.460 . S
C227 C226 1.477 . S
C227 H247 0.930 . S
C228 N224 1.362 . S
C228 C225 1.431 . S
C228 C238 1.476 . S
H229 C223 0.929 . S
C230 O221 1.250 . S
C230 O222 1.258 . S
O231 Mn216 2.162 . S
O231 C219 1.281 . S
O232 Mn216 2.297 . S
O232 C219 1.236 . S
N233 Mn217 2.282 1_554 S
N233 C234 1.328 1_554 S
N233 C238 1.318 . S
C234 N233 1.328 1_556 S
C234 C235 1.457 1_556 S
C234 H239 0.929 . S
C235 C234 1.457 1_554 S
C235 C236 1.291 . S
C235 H248 0.933 . S
C236 C235 1.291 . S
C236 C237 1.373 . S
C236 H249 0.929 . S
C237 C236 1.373 . S
C237 C238 1.396 . S
C237 C244 1.403 . S
C238 C228 1.476 . S
C238 N233 1.318 . S
C238 C237 1.396 . S
H239 C234 0.929 . S
O240 Mn216 2.385 . S
O240 C218 1.234 . S
O241 Mn216 2.209 . S
O241 Mn217 2.215 . S
O241 C218 1.283 . S
O242 Mn216 2.094 . S
O242 C220 1.240 . S
O243 Mn217 2.117 . S
O243 C220 1.264 . S
C244 C237 1.403 . S
C244 C245 1.399 . S
C244 H250 0.929 . S
C245 C225 1.449 . S
C245 C244 1.399 . S
C245 H251 0.930 . S
H246 C226 0.931 . S
H247 C227 0.930 . S
H248 C235 0.933 . S
H249 C236 0.929 . S
H250 C244 0.929 . S
H251 C245 0.930 . S
Mn252 O257 2.095 . S
Mn252 O267 2.162 . S
Mn252 O268 2.297 . S
Mn252 O276 2.385 . S
Mn252 O277 2.209 . S
Mn252 O278 2.094 . S
Mn253 O258 2.121 . S
Mn253 N260 2.257 . S
Mn253 N269 2.282 . S
Mn253 O277 2.215 . S
Mn253 O279 2.117 . S
C254 O276 1.234 . S
C254 O277 1.283 . S
C255 O267 1.281 . S
C255 O268 1.236 . S
C256 O278 1.240 . S
C256 O279 1.264 . S
O257 Mn252 2.095 . S
O257 C266 1.250 . S
O258 Mn253 2.121 . S
O258 C266 1.258 . S
C259 N260 1.326 . S
C259 C263 1.460 . S
C259 H265 0.929 . S
N260 Mn253 2.257 . S
N260 C259 1.326 . S
N260 C264 1.362 . S
C261 C262 1.258 1_655 S
C261 C264 1.431 . S
C261 C281 1.449 1_655 S
C262 C261 1.258 1_455 S
C262 C263 1.477 1_455 S
C262 H282 0.931 . S
C263 C259 1.460 . S
C263 C262 1.477 1_655 S
C263 H283 0.930 1_655 S
C264 N260 1.362 . S
C264 C261 1.431 . S
C264 C274 1.476 . S
H265 C259 0.929 . S
C266 O257 1.250 . S
C266 O258 1.258 . S
O267 Mn252 2.162 . S
O267 C255 1.281 . S
O268 Mn252 2.297 . S
O268 C255 1.236 . S
N269 Mn253 2.282 . S
N269 C270 1.328 . S
N269 C274 1.318 . S
C270 N269 1.328 . S
C270 C271 1.457 . S
C270 H275 0.929 . S
C271 C270 1.457 . S
C271 C272 1.291 . S
C271 H284 0.931 . S
C272 C271 1.291 . S
C272 C273 1.373 . S
C272 H285 0.929 . S
C273 C272 1.373 . S
C273 C274 1.396 . S
C273 C280 1.403 . S
C274 C264 1.476 . S
C274 N269 1.318 . S
C274 C273 1.396 . S
H275 C270 0.929 . S
O276 Mn252 2.385 . S
O276 C254 1.234 . S
O277 Mn252 2.209 . S
O277 Mn253 2.215 . S
O277 C254 1.283 . S
O278 Mn252 2.094 . S
O278 C256 1.240 . S
O279 Mn253 2.117 . S
O279 C256 1.264 . S
C280 C273 1.403 . S
C280 C281 1.399 1_655 S
C280 H286 0.929 1_655 S
C281 C261 1.449 1_455 S
C281 C280 1.399 1_455 S
C281 H287 0.930 . S
H282 C262 0.931 . S
H283 C263 0.930 1_455 S
H284 C271 0.931 . S
H285 C272 0.929 . S
H286 C280 0.929 1_455 S
H287 C281 0.930 . S
Mn288 O293 2.095 . S
Mn288 O303 2.162 . S
Mn288 O304 2.297 . S
Mn288 O312 2.385 . S
Mn288 O313 2.209 . S
Mn288 O314 2.094 . S
Mn289 O294 2.121 . S
Mn289 N296 2.257 1_556 S
Mn289 N305 2.282 1_556 S
Mn289 O313 2.215 . S
Mn289 O315 2.117 . S
C290 O312 1.234 . S
C290 O313 1.283 . S
C291 O303 1.281 . S
C291 O304 1.236 . S
C292 O314 1.240 . S
C292 O315 1.264 . S
O293 Mn288 2.095 . S
O293 C302 1.250 . S
O294 Mn289 2.121 . S
O294 C302 1.258 . S
C295 N296 1.326 . S
C295 C299 1.460 . S
C295 H301 0.929 . S
N296 Mn289 2.257 1_554 S
N296 C295 1.326 . S
N296 C300 1.362 . S
C297 C298 1.258 . S
C297 C300 1.431 . S
C297 C317 1.449 . S
C298 C297 1.258 . S
C298 C299 1.477 . S
C298 H318 0.931 . S
C299 C295 1.460 . S
C299 C298 1.477 . S
C299 H319 0.930 . S
C300 N296 1.362 . S
C300 C297 1.431 . S
C300 C310 1.476 . S
H301 C295 0.929 . S
C302 O293 1.250 . S
C302 O294 1.258 . S
O303 Mn288 2.162 . S
O303 C291 1.281 . S
O304 Mn288 2.297 . S
O304 C291 1.236 . S
N305 Mn289 2.282 1_554 S
N305 C306 1.328 1_554 S
N305 C310 1.318 . S
C306 N305 1.328 1_556 S
C306 C307 1.457 1_656 S
C306 H311 0.929 . S
C307 C306 1.457 1_454 S
C307 C308 1.291 . S
C307 H320 0.933 . S
C308 C307 1.291 . S
C308 C309 1.373 1_455 S
C308 H321 0.929 . S
C309 C308 1.373 1_655 S
C309 C310 1.396 . S
C309 C316 1.403 . S
C310 C300 1.476 . S
C310 N305 1.318 . S
C310 C309 1.396 . S
H311 C306 0.929 . S
O312 Mn288 2.385 . S
O312 C290 1.234 . S
O313 Mn288 2.209 . S
O313 Mn289 2.215 . S
O313 C290 1.283 . S
O314 Mn288 2.094 . S
O314 C292 1.240 . S
O315 Mn289 2.117 . S
O315 C292 1.264 . S
C316 C309 1.403 . S
C316 C317 1.399 . S
C316 H322 0.929 1_655 S
C317 C297 1.449 . S
C317 C316 1.399 . S
C317 H323 0.930 . S
H318 C298 0.931 . S
H319 C299 0.930 . S
H320 C307 0.933 . S
H321 C308 0.929 . S
H322 C316 0.929 1_455 S
H323 C317 0.930 . S
Mn324 O329 2.095 . S
Mn324 O339 2.162 . S
Mn324 O340 2.297 . S
Mn324 O348 2.385 . S
Mn324 O349 2.209 . S
Mn324 O350 2.094 . S
Mn325 O330 2.121 . S
Mn325 N332 2.257 . S
Mn325 N341 2.282 . S
Mn325 O349 2.215 . S
Mn325 O351 2.117 . S
C326 O348 1.234 . S
C326 O349 1.283 . S
C327 O339 1.281 . S
C327 O340 1.236 . S
C328 O350 1.240 . S
C328 O351 1.264 . S
O329 Mn324 2.095 . S
O329 C338 1.250 . S
O330 Mn325 2.121 . S
O330 C338 1.258 . S
C331 N332 1.326 . S
C331 C335 1.460 . S
C331 H337 0.929 . S
N332 Mn325 2.257 . S
N332 C331 1.326 . S
N332 C336 1.362 . S
C333 C334 1.258 1_455 S
C333 C336 1.431 . S
C333 C353 1.449 1_455 S
C334 C333 1.258 1_655 S
C334 C335 1.477 1_655 S
C334 H354 0.931 . S
C335 C331 1.460 . S
C335 C334 1.477 1_455 S
C335 H355 0.930 1_455 S
C336 N332 1.362 . S
C336 C333 1.431 . S
C336 C346 1.476 . S
H337 C331 0.929 . S
C338 O329 1.250 . S
C338 O330 1.258 . S
O339 Mn324 2.162 . S
O339 C327 1.281 . S
O340 Mn324 2.297 . S
O340 C327 1.236 . S
N341 Mn325 2.282 . S
N341 C342 1.328 . S
N341 C346 1.318 . S
C342 N341 1.328 . S
C342 C343 1.457 . S
C342 H347 0.929 . S
C343 C342 1.457 . S
C343 C344 1.291 . S
C343 H356 0.931 . S
C344 C343 1.291 . S
C344 C345 1.373 . S
C344 H357 0.929 . S
C345 C344 1.373 . S
C345 C346 1.396 . S
C345 C352 1.403 . S
C346 C336 1.476 . S
C346 N341 1.318 . S
C346 C345 1.396 . S
H347 C342 0.929 . S
O348 Mn324 2.385 . S
O348 C326 1.234 . S
O349 Mn324 2.209 . S
O349 Mn325 2.215 . S
O349 C326 1.283 . S
O350 Mn324 2.094 . S
O350 C328 1.240 . S
O351 Mn325 2.117 . S
O351 C328 1.264 . S
C352 C345 1.403 . S
C352 C353 1.399 1_455 S
C352 H358 0.929 1_455 S
C353 C333 1.449 1_655 S
C353 C352 1.399 1_655 S
C353 H359 0.930 . S
H354 C334 0.931 . S
H355 C335 0.930 1_655 S
H356 C343 0.931 . S
H357 C344 0.929 . S
H358 C352 0.929 1_655 S
H359 C353 0.930 . S
Mn360 O365 2.095 . S
Mn360 O375 2.162 . S
Mn360 O376 2.297 . S
Mn360 O384 2.385 . S
Mn360 O385 2.209 . S
Mn360 O386 2.094 . S
Mn361 O366 2.121 . S
Mn361 N368 2.257 . S
Mn361 N377 2.282 . S
Mn361 O385 2.215 . S
Mn361 O387 2.117 . S
C362 O384 1.234 . S
C362 O385 1.283 . S
C363 O375 1.281 . S
C363 O376 1.236 . S
C364 O386 1.240 . S
C364 O387 1.264 . S
O365 Mn360 2.095 . S
O365 C374 1.250 . S
O366 Mn361 2.121 . S
O366 C374 1.258 . S
C367 N368 1.326 . S
C367 C371 1.460 . S
C367 H373 0.929 . S
N368 Mn361 2.257 . S
N368 C367 1.326 . S
N368 C372 1.362 . S
C369 C370 1.258 . S
C369 C372 1.431 . S
C369 C389 1.449 . S
C370 C369 1.258 . S
C370 C371 1.477 . S
C370 H390 0.931 . S
C371 C367 1.460 . S
C371 C370 1.477 . S
C371 H391 0.930 . S
C372 N368 1.362 . S
C372 C369 1.431 . S
C372 C382 1.476 . S
H373 C367 0.929 . S
C374 O365 1.250 . S
C374 O366 1.258 . S
O375 Mn360 2.162 . S
O375 C363 1.281 . S
O376 Mn360 2.297 . S
O376 C363 1.236 . S
N377 Mn361 2.282 . S
N377 C378 1.328 . S
N377 C382 1.318 . S
C378 N377 1.328 . S
C378 C379 1.457 . S
C378 H383 0.929 . S
C379 C378 1.457 . S
C379 C380 1.291 . S
C379 H392 0.931 . S
C380 C379 1.291 . S
C380 C381 1.373 . S
C380 H393 0.929 . S
C381 C380 1.373 . S
C381 C382 1.396 . S
C381 C388 1.403 . S
C382 C372 1.476 . S
C382 N377 1.318 . S
C382 C381 1.396 . S
H383 C378 0.929 . S
O384 Mn360 2.385 . S
O384 C362 1.234 . S
O385 Mn360 2.209 . S
O385 Mn361 2.215 . S
O385 C362 1.283 . S
O386 Mn360 2.094 . S
O386 C364 1.240 . S
O387 Mn361 2.117 . S
O387 C364 1.264 . S
C388 C381 1.403 . S
C388 C389 1.399 . S
C388 H394 0.929 . S
C389 C369 1.449 . S
C389 C388 1.399 . S
C389 H395 0.930 . S
H390 C370 0.931 . S
H391 C371 0.930 . S
H392 C379 0.931 . S
H393 C380 0.929 . S
H394 C388 0.929 . S
H395 C389 0.930 . S
Mn396 O401 2.095 . S
Mn396 O411 2.162 . S
Mn396 O412 2.297 . S
Mn396 O420 2.385 . S
Mn396 O421 2.209 . S
Mn396 O422 2.094 . S
Mn397 O402 2.121 . S
Mn397 N404 2.257 . S
Mn397 N413 2.282 . S
Mn397 O421 2.215 . S
Mn397 O423 2.117 . S
C398 O420 1.234 . S
C398 O421 1.283 . S
C399 O411 1.281 . S
C399 O412 1.236 . S
C400 O422 1.240 . S
C400 O423 1.264 . S
O401 Mn396 2.095 . S
O401 C410 1.250 . S
O402 Mn397 2.121 . S
O402 C410 1.258 . S
C403 N404 1.326 . S
C403 C407 1.460 . S
C403 H409 0.929 . S
N404 Mn397 2.257 . S
N404 C403 1.326 . S
N404 C408 1.362 . S
C405 C406 1.258 . S
C405 C408 1.431 . S
C405 C425 1.449 . S
C406 C405 1.258 . S
C406 C407 1.477 . S
C406 H426 0.931 . S
C407 C403 1.460 . S
C407 C406 1.477 . S
C407 H427 0.930 . S
C408 N404 1.362 . S
C408 C405 1.431 . S
C408 C418 1.476 . S
H409 C403 0.929 . S
C410 O401 1.250 . S
C410 O402 1.258 . S
O411 Mn396 2.162 . S
O411 C399 1.281 . S
O412 Mn396 2.297 . S
O412 C399 1.236 . S
N413 Mn397 2.282 . S
N413 C414 1.328 . S
N413 C418 1.318 . S
C414 N413 1.328 . S
C414 C415 1.457 . S
C414 H419 0.929 . S
C415 C414 1.457 . S
C415 C416 1.291 . S
C415 H428 0.931 . S
C416 C415 1.291 . S
C416 C417 1.373 . S
C416 H429 0.929 . S
C417 C416 1.373 . S
C417 C418 1.396 . S
C417 C424 1.403 . S
C418 C408 1.476 . S
C418 N413 1.318 . S
C418 C417 1.396 . S
H419 C414 0.929 . S
O420 Mn396 2.385 . S
O420 C398 1.234 . S
O421 Mn396 2.209 . S
O421 Mn397 2.215 . S
O421 C398 1.283 . S
O422 Mn396 2.094 . S
O422 C400 1.240 . S
O423 Mn397 2.117 . S
O423 C400 1.264 . S
C424 C417 1.403 . S
C424 C425 1.399 . S
C424 H430 0.929 . S
C425 C405 1.449 . S
C425 C424 1.399 . S
C425 H431 0.930 . S
H426 C406 0.931 . S
H427 C407 0.930 . S
H428 C415 0.931 . S
H429 C416 0.929 . S
H430 C424 0.929 . S
H431 C425 0.930 . S
Mn432 O437 2.095 . S
Mn432 O447 2.162 . S
Mn432 O448 2.297 . S
Mn432 O456 2.385 . S
Mn432 O457 2.209 . S
Mn432 O458 2.094 . S
Mn433 O438 2.121 . S
Mn433 N440 2.257 . S
Mn433 N449 2.282 . S
Mn433 O457 2.215 . S
Mn433 O459 2.117 . S
C434 O456 1.234 . S
C434 O457 1.283 . S
C435 O447 1.281 . S
C435 O448 1.236 . S
C436 O458 1.240 . S
C436 O459 1.264 . S
O437 Mn432 2.095 . S
O437 C446 1.250 . S
O438 Mn433 2.121 . S
O438 C446 1.258 . S
C439 N440 1.326 . S
C439 C443 1.460 . S
C439 H445 0.929 . S
N440 Mn433 2.257 . S
N440 C439 1.326 . S
N440 C444 1.362 . S
C441 C442 1.258 . S
C441 C444 1.431 . S
C441 C461 1.449 . S
C442 C441 1.258 . S
C442 C443 1.477 . S
C442 H462 0.931 . S
C443 C439 1.460 . S
C443 C442 1.477 . S
C443 H463 0.930 . S
C444 N440 1.362 . S
C444 C441 1.431 . S
C444 C454 1.476 . S
H445 C439 0.929 . S
C446 O437 1.250 . S
C446 O438 1.258 . S
O447 Mn432 2.162 . S
O447 C435 1.281 . S
O448 Mn432 2.297 . S
O448 C435 1.236 . S
N449 Mn433 2.282 . S
N449 C450 1.328 . S
N449 C454 1.318 . S
C450 N449 1.328 . S
C450 C451 1.457 1_655 S
C450 H455 0.929 . S
C451 C450 1.457 1_455 S
C451 C452 1.291 . S
C451 H464 0.931 . S
C452 C451 1.291 . S
C452 C453 1.373 1_455 S
C452 H465 0.929 . S
C453 C452 1.373 1_655 S
C453 C454 1.396 . S
C453 C460 1.403 . S
C454 C444 1.476 . S
C454 N449 1.318 . S
C454 C453 1.396 . S
H455 C450 0.929 . S
O456 Mn432 2.385 . S
O456 C434 1.234 . S
O457 Mn432 2.209 . S
O457 Mn433 2.215 . S
O457 C434 1.283 . S
O458 Mn432 2.094 . S
O458 C436 1.240 . S
O459 Mn433 2.117 . S
O459 C436 1.264 . S
C460 C453 1.403 . S
C460 C461 1.399 . S
C460 H466 0.929 1_655 S
C461 C441 1.449 . S
C461 C460 1.399 . S
C461 H467 0.930 . S
H462 C442 0.931 . S
H463 C443 0.930 . S
H464 C451 0.931 . S
H465 C452 0.929 . S
H466 C460 0.929 1_455 S
H467 C461 0.930 . S
Mn468 O473 2.095 . S
Mn468 O483 2.162 . S
Mn468 O484 2.297 . S
Mn468 O492 2.385 . S
Mn468 O493 2.209 . S
Mn468 O494 2.094 . S
Mn469 O474 2.121 . S
Mn469 N476 2.257 . S
Mn469 N485 2.282 . S
Mn469 O493 2.215 . S
Mn469 O495 2.117 . S
C470 O492 1.234 . S
C470 O493 1.283 . S
C471 O483 1.281 . S
C471 O484 1.236 . S
C472 O494 1.240 . S
C472 O495 1.264 . S
O473 Mn468 2.095 . S
O473 C482 1.250 . S
O474 Mn469 2.121 . S
O474 C482 1.258 . S
C475 N476 1.326 . S
C475 C479 1.460 . S
C475 H481 0.929 . S
N476 Mn469 2.257 . S
N476 C475 1.326 . S
N476 C480 1.362 . S
C477 C478 1.258 . S
C477 C480 1.431 . S
C477 C497 1.449 . S
C478 C477 1.258 . S
C478 C479 1.477 . S
C478 H498 0.931 . S
C479 C475 1.460 . S
C479 C478 1.477 . S
C479 H499 0.930 . S
C480 N476 1.362 . S
C480 C477 1.431 . S
C480 C490 1.476 . S
H481 C475 0.929 . S
C482 O473 1.250 . S
C482 O474 1.258 . S
O483 Mn468 2.162 . S
O483 C471 1.281 . S
O484 Mn468 2.297 . S
O484 C471 1.236 . S
N485 Mn469 2.282 . S
N485 C486 1.328 . S
N485 C490 1.318 . S
C486 N485 1.328 . S
C486 C487 1.457 . S
C486 H491 0.929 . S
C487 C486 1.457 . S
C487 C488 1.291 . S
C487 H500 0.931 . S
C488 C487 1.291 . S
C488 C489 1.373 . S
C488 H501 0.929 . S
C489 C488 1.373 . S
C489 C490 1.396 . S
C489 C496 1.403 . S
C490 C480 1.476 . S
C490 N485 1.318 . S
C490 C489 1.396 . S
H491 C486 0.929 . S
O492 Mn468 2.385 . S
O492 C470 1.234 . S
O493 Mn468 2.209 . S
O493 Mn469 2.215 . S
O493 C470 1.283 . S
O494 Mn468 2.094 . S
O494 C472 1.240 . S
O495 Mn469 2.117 . S
O495 C472 1.264 . S
C496 C489 1.403 . S
C496 C497 1.399 . S
C496 H502 0.929 . S
C497 C477 1.449 . S
C497 C496 1.399 . S
C497 H503 0.930 . S
H498 C478 0.931 . S
H499 C479 0.930 . S
H500 C487 0.931 . S
H501 C488 0.929 . S
H502 C496 0.929 . S
H503 C497 0.930 . S
Mn504 O509 2.095 . S
Mn504 O519 2.162 . S
Mn504 O520 2.297 . S
Mn504 O528 2.385 . S
Mn504 O529 2.209 . S
Mn504 O530 2.094 . S
Mn505 O510 2.121 . S
Mn505 N512 2.257 1_554 S
Mn505 N521 2.282 1_554 S
Mn505 O529 2.215 . S
Mn505 O531 2.117 . S
C506 O528 1.234 . S
C506 O529 1.283 . S
C507 O519 1.281 . S
C507 O520 1.236 . S
C508 O530 1.240 . S
C508 O531 1.264 . S
O509 Mn504 2.095 . S
O509 C518 1.250 . S
O510 Mn505 2.121 . S
O510 C518 1.258 . S
C511 N512 1.326 . S
C511 C515 1.460 . S
C511 H517 0.929 . S
N512 Mn505 2.257 1_556 S
N512 C511 1.326 . S
N512 C516 1.362 . S
C513 C514 1.258 . S
C513 C516 1.431 . S
C513 C533 1.449 . S
C514 C513 1.258 . S
C514 C515 1.477 . S
C514 H534 0.931 . S
C515 C511 1.460 . S
C515 C514 1.477 . S
C515 H535 0.930 . S
C516 N512 1.362 . S
C516 C513 1.431 . S
C516 C526 1.476 . S
H517 C511 0.929 . S
C518 O509 1.250 . S
C518 O510 1.258 . S
O519 Mn504 2.162 . S
O519 C507 1.281 . S
O520 Mn504 2.297 . S
O520 C507 1.236 . S
N521 Mn505 2.282 1_556 S
N521 C522 1.328 1_556 S
N521 C526 1.318 . S
C522 N521 1.328 1_554 S
C522 C523 1.457 1_554 S
C522 H527 0.929 . S
C523 C522 1.457 1_556 S
C523 C524 1.291 . S
C523 H536 0.933 . S
C524 C523 1.291 . S
C524 C525 1.373 . S
C524 H537 0.929 . S
C525 C524 1.373 . S
C525 C526 1.396 . S
C525 C532 1.403 . S
C526 C516 1.476 . S
C526 N521 1.318 . S
C526 C525 1.396 . S
H527 C522 0.929 . S
O528 Mn504 2.385 . S
O528 C506 1.234 . S
O529 Mn504 2.209 . S
O529 Mn505 2.215 . S
O529 C506 1.283 . S
O530 Mn504 2.094 . S
O530 C508 1.240 . S
O531 Mn505 2.117 . S
O531 C508 1.264 . S
C532 C525 1.403 . S
C532 C533 1.399 . S
C532 H538 0.929 . S
C533 C513 1.449 . S
C533 C532 1.399 . S
C533 H539 0.930 . S
H534 C514 0.931 . S
H535 C515 0.930 . S
H536 C523 0.933 . S
H537 C524 0.929 . S
H538 C532 0.929 . S
H539 C533 0.930 . S
Mn540 O545 2.095 . S
Mn540 O555 2.162 . S
Mn540 O556 2.297 . S
Mn540 O564 2.385 . S
Mn540 O565 2.209 . S
Mn540 O566 2.094 . S
Mn541 O546 2.121 . S
Mn541 N548 2.257 . S
Mn541 N557 2.282 . S
Mn541 O565 2.215 . S
Mn541 O567 2.117 . S
C542 O564 1.234 . S
C542 O565 1.283 . S
C543 O555 1.281 . S
C543 O556 1.236 . S
C544 O566 1.240 . S
C544 O567 1.264 . S
O545 Mn540 2.095 . S
O545 C554 1.250 . S
O546 Mn541 2.121 . S
O546 C554 1.258 . S
C547 N548 1.326 . S
C547 C551 1.460 . S
C547 H553 0.929 . S
N548 Mn541 2.257 . S
N548 C547 1.326 . S
N548 C552 1.362 . S
C549 C550 1.258 1_455 S
C549 C552 1.431 . S
C549 C569 1.449 1_455 S
C550 C549 1.258 1_655 S
C550 C551 1.477 1_655 S
C550 H570 0.931 . S
C551 C547 1.460 . S
C551 C550 1.477 1_455 S
C551 H571 0.930 1_455 S
C552 N548 1.362 . S
C552 C549 1.431 . S
C552 C562 1.476 . S
H553 C547 0.929 . S
C554 O545 1.250 . S
C554 O546 1.258 . S
O555 Mn540 2.162 . S
O555 C543 1.281 . S
O556 Mn540 2.297 . S
O556 C543 1.236 . S
N557 Mn541 2.282 . S
N557 C558 1.328 . S
N557 C562 1.318 . S
C558 N557 1.328 . S
C558 C559 1.457 . S
C558 H563 0.929 . S
C559 C558 1.457 . S
C559 C560 1.291 . S
C559 H572 0.931 . S
C560 C559 1.291 . S
C560 C561 1.373 . S
C560 H573 0.929 . S
C561 C560 1.373 . S
C561 C562 1.396 . S
C561 C568 1.403 . S
C562 C552 1.476 . S
C562 N557 1.318 . S
C562 C561 1.396 . S
H563 C558 0.929 . S
O564 Mn540 2.385 . S
O564 C542 1.234 . S
O565 Mn540 2.209 . S
O565 Mn541 2.215 . S
O565 C542 1.283 . S
O566 Mn540 2.094 . S
O566 C544 1.240 . S
O567 Mn541 2.117 . S
O567 C544 1.264 . S
C568 C561 1.403 . S
C568 C569 1.399 1_455 S
C568 H574 0.929 1_455 S
C569 C549 1.449 1_655 S
C569 C568 1.399 1_655 S
C569 H575 0.930 . S
H570 C550 0.931 . S
H571 C551 0.930 1_655 S
H572 C559 0.931 . S
H573 C560 0.929 . S
H574 C568 0.929 1_655 S
H575 C569 0.930 . S
Mn576 O581 2.095 . S
Mn576 O591 2.162 . S
Mn576 O592 2.297 . S
Mn576 O600 2.385 . S
Mn576 O601 2.209 . S
Mn576 O602 2.094 . S
Mn577 O582 2.121 . S
Mn577 N584 2.257 . S
Mn577 N593 2.282 . S
Mn577 O601 2.215 . S
Mn577 O603 2.117 . S
C578 O600 1.234 . S
C578 O601 1.283 . S
C579 O591 1.281 . S
C579 O592 1.236 . S
C580 O602 1.240 . S
C580 O603 1.264 . S
O581 Mn576 2.095 . S
O581 C590 1.250 . S
O582 Mn577 2.121 . S
O582 C590 1.258 . S
C583 N584 1.326 . S
C583 C587 1.460 . S
C583 H589 0.929 . S
N584 Mn577 2.257 . S
N584 C583 1.326 . S
N584 C588 1.362 . S
C585 C586 1.258 . S
C585 C588 1.431 . S
C585 C605 1.449 . S
C586 C585 1.258 . S
C586 C587 1.477 . S
C586 H606 0.931 . S
C587 C583 1.460 . S
C587 C586 1.477 . S
C587 H607 0.930 . S
C588 N584 1.362 . S
C588 C585 1.431 . S
C588 C598 1.476 . S
H589 C583 0.929 . S
C590 O581 1.250 . S
C590 O582 1.258 . S
O591 Mn576 2.162 . S
O591 C579 1.281 . S
O592 Mn576 2.297 . S
O592 C579 1.236 . S
N593 Mn577 2.282 . S
N593 C594 1.328 . S
N593 C598 1.318 . S
C594 N593 1.328 . S
C594 C595 1.457 . S
C594 H599 0.929 . S
C595 C594 1.457 . S
C595 C596 1.291 . S
C595 H608 0.931 . S
C596 C595 1.291 . S
C596 C597 1.373 . S
C596 H609 0.929 . S
C597 C596 1.373 . S
C597 C598 1.396 . S
C597 C604 1.403 . S
C598 C588 1.476 . S
C598 N593 1.318 . S
C598 C597 1.396 . S
H599 C594 0.929 . S
O600 Mn576 2.385 . S
O600 C578 1.234 . S
O601 Mn576 2.209 . S
O601 Mn577 2.215 . S
O601 C578 1.283 . S
O602 Mn576 2.094 . S
O602 C580 1.240 . S
O603 Mn577 2.117 . S
O603 C580 1.264 . S
C604 C597 1.403 . S
C604 C605 1.399 . S
C604 H610 0.929 . S
C605 C585 1.449 . S
C605 C604 1.399 . S
C605 H611 0.930 . S
H606 C586 0.931 . S
H607 C587 0.930 . S
H608 C595 0.931 . S
H609 C596 0.929 . S
H610 C604 0.929 . S
H611 C605 0.930 . S
Mn612 O617 2.095 . S
Mn612 O627 2.162 . S
Mn612 O628 2.297 . S
Mn612 O636 2.385 . S
Mn612 O637 2.209 . S
Mn612 O638 2.094 . S
Mn613 O618 2.121 . S
Mn613 N620 2.257 . S
Mn613 N629 2.282 . S
Mn613 O637 2.215 . S
Mn613 O639 2.117 . S
C614 O636 1.234 . S
C614 O637 1.283 . S
C615 O627 1.281 . S
C615 O628 1.236 . S
C616 O638 1.240 . S
C616 O639 1.264 . S
O617 Mn612 2.095 . S
O617 C626 1.250 . S
O618 Mn613 2.121 . S
O618 C626 1.258 . S
C619 N620 1.326 . S
C619 C623 1.460 . S
C619 H625 0.929 . S
N620 Mn613 2.257 . S
N620 C619 1.326 . S
N620 C624 1.362 . S
C621 C622 1.258 . S
C621 C624 1.431 . S
C621 C641 1.449 . S
C622 C621 1.258 . S
C622 C623 1.477 . S
C622 H642 0.931 . S
C623 C619 1.460 . S
C623 C622 1.477 . S
C623 H643 0.930 . S
C624 N620 1.362 . S
C624 C621 1.431 . S
C624 C634 1.476 . S
H625 C619 0.929 . S
C626 O617 1.250 . S
C626 O618 1.258 . S
O627 Mn612 2.162 . S
O627 C615 1.281 . S
O628 Mn612 2.297 . S
O628 C615 1.236 . S
N629 Mn613 2.282 . S
N629 C630 1.328 . S
N629 C634 1.318 . S
C630 N629 1.328 . S
C630 C631 1.457 . S
C630 H635 0.929 . S
C631 C630 1.457 . S
C631 C632 1.291 . S
C631 H644 0.931 . S
C632 C631 1.291 . S
C632 C633 1.373 . S
C632 H645 0.929 . S
C633 C632 1.373 . S
C633 C634 1.396 . S
C633 C640 1.403 . S
C634 C624 1.476 . S
C634 N629 1.318 . S
C634 C633 1.396 . S
H635 C630 0.929 . S
O636 Mn612 2.385 . S
O636 C614 1.234 . S
O637 Mn612 2.209 . S
O637 Mn613 2.215 . S
O637 C614 1.283 . S
O638 Mn612 2.094 . S
O638 C616 1.240 . S
O639 Mn613 2.117 . S
O639 C616 1.264 . S
C640 C633 1.403 . S
C640 C641 1.399 . S
C640 H646 0.929 . S
C641 C621 1.449 . S
C641 C640 1.399 . S
C641 H647 0.930 . S
H642 C622 0.931 . S
H643 C623 0.930 . S
H644 C631 0.931 . S
H645 C632 0.929 . S
H646 C640 0.929 . S
H647 C641 0.930 . S
Mn648 O653 2.095 . S
Mn648 O663 2.162 . S
Mn648 O664 2.297 . S
Mn648 O672 2.385 . S
Mn648 O673 2.209 . S
Mn648 O674 2.094 . S
Mn649 O654 2.121 . S
Mn649 N656 2.257 1_554 S
Mn649 N665 2.282 1_554 S
Mn649 O673 2.215 . S
Mn649 O675 2.117 . S
C650 O672 1.234 . S
C650 O673 1.283 . S
C651 O663 1.281 . S
C651 O664 1.236 . S
C652 O674 1.240 . S
C652 O675 1.264 . S
O653 Mn648 2.095 . S
O653 C662 1.250 . S
O654 Mn649 2.121 . S
O654 C662 1.258 . S
C655 N656 1.326 . S
C655 C659 1.460 . S
C655 H661 0.929 . S
N656 Mn649 2.257 1_556 S
N656 C655 1.326 . S
N656 C660 1.362 . S
C657 C658 1.258 . S
C657 C660 1.431 . S
C657 C677 1.449 . S
C658 C657 1.258 . S
C658 C659 1.477 . S
C658 H678 0.931 . S
C659 C655 1.460 . S
C659 C658 1.477 . S
C659 H679 0.930 . S
C660 N656 1.362 . S
C660 C657 1.431 . S
C660 C670 1.476 . S
H661 C655 0.929 . S
C662 O653 1.250 . S
C662 O654 1.258 . S
O663 Mn648 2.162 . S
O663 C651 1.281 . S
O664 Mn648 2.297 . S
O664 C651 1.236 . S
N665 Mn649 2.282 1_556 S
N665 C666 1.328 1_556 S
N665 C670 1.318 . S
C666 N665 1.328 1_554 S
C666 C667 1.457 1_654 S
C666 H671 0.929 . S
C667 C666 1.457 1_456 S
C667 C668 1.291 . S
C667 H680 0.933 . S
C668 C667 1.291 . S
C668 C669 1.373 1_455 S
C668 H681 0.929 . S
C669 C668 1.373 1_655 S
C669 C670 1.396 . S
C669 C676 1.403 . S
C670 C660 1.476 . S
C670 N665 1.318 . S
C670 C669 1.396 . S
H671 C666 0.929 . S
O672 Mn648 2.385 . S
O672 C650 1.234 . S
O673 Mn648 2.209 . S
O673 Mn649 2.215 . S
O673 C650 1.283 . S
O674 Mn648 2.094 . S
O674 C652 1.240 . S
O675 Mn649 2.117 . S
O675 C652 1.264 . S
C676 C669 1.403 . S
C676 C677 1.399 . S
C676 H682 0.929 1_655 S
C677 C657 1.449 . S
C677 C676 1.399 . S
C677 H683 0.930 . S
H678 C658 0.931 . S
H679 C659 0.930 . S
H680 C667 0.933 . S
H681 C668 0.929 . S
H682 C676 0.929 1_455 S
H683 C677 0.930 . S
Mn684 O689 2.095 . S
Mn684 O699 2.162 . S
Mn684 O700 2.297 . S
Mn684 O708 2.385 . S
Mn684 O709 2.209 . S
Mn684 O710 2.094 . S
Mn685 O690 2.121 . S
Mn685 N692 2.257 . S
Mn685 N701 2.282 . S
Mn685 O709 2.215 . S
Mn685 O711 2.117 . S
C686 O708 1.234 . S
C686 O709 1.283 . S
C687 O699 1.281 . S
C687 O700 1.236 . S
C688 O710 1.240 . S
C688 O711 1.264 . S
O689 Mn684 2.095 . S
O689 C698 1.250 . S
O690 Mn685 2.121 . S
O690 C698 1.258 . S
C691 N692 1.326 . S
C691 C695 1.460 . S
C691 H697 0.929 . S
N692 Mn685 2.257 . S
N692 C691 1.326 . S
N692 C696 1.362 . S
C693 C694 1.258 1_455 S
C693 C696 1.431 . S
C693 C713 1.449 1_455 S
C694 C693 1.258 1_655 S
C694 C695 1.477 1_655 S
C694 H714 0.931 . S
C695 C691 1.460 . S
C695 C694 1.477 1_455 S
C695 H715 0.930 1_455 S
C696 N692 1.362 . S
C696 C693 1.431 . S
C696 C706 1.476 . S
H697 C691 0.929 . S
C698 O689 1.250 . S
C698 O690 1.258 . S
O699 Mn684 2.162 . S
O699 C687 1.281 . S
O700 Mn684 2.297 . S
O700 C687 1.236 . S
N701 Mn685 2.282 . S
N701 C702 1.328 . S
N701 C706 1.318 . S
C702 N701 1.328 . S
C702 C703 1.457 . S
C702 H707 0.929 . S
C703 C702 1.457 . S
C703 C704 1.291 . S
C703 H716 0.931 . S
C704 C703 1.291 . S
C704 C705 1.373 . S
C704 H717 0.929 . S
C705 C704 1.373 . S
C705 C706 1.396 . S
C705 C712 1.403 . S
C706 C696 1.476 . S
C706 N701 1.318 . S
C706 C705 1.396 . S
H707 C702 0.929 . S
O708 Mn684 2.385 . S
O708 C686 1.234 . S
O709 Mn684 2.209 . S
O709 Mn685 2.215 . S
O709 C686 1.283 . S
O710 Mn684 2.094 . S
O710 C688 1.240 . S
O711 Mn685 2.117 . S
O711 C688 1.264 . S
C712 C705 1.403 . S
C712 C713 1.399 1_455 S
C712 H718 0.929 1_455 S
C713 C693 1.449 1_655 S
C713 C712 1.399 1_655 S
C713 H719 0.930 . S
H714 C694 0.931 . S
H715 C695 0.930 1_655 S
H716 C703 0.931 . S
H717 C704 0.929 . S
H718 C712 0.929 1_655 S
H719 C713 0.930 . S
Mn720 O725 2.095 . S
Mn720 O735 2.162 . S
Mn720 O736 2.297 . S
Mn720 O744 2.385 . S
Mn720 O745 2.209 . S
Mn720 O746 2.094 . S
Mn721 O726 2.121 . S
Mn721 N728 2.257 1_556 S
Mn721 N737 2.282 1_556 S
Mn721 O745 2.215 . S
Mn721 O747 2.117 . S
C722 O744 1.234 . S
C722 O745 1.283 . S
C723 O735 1.281 . S
C723 O736 1.236 . S
C724 O746 1.240 . S
C724 O747 1.264 . S
O725 Mn720 2.095 . S
O725 C734 1.250 . S
O726 Mn721 2.121 . S
O726 C734 1.258 . S
C727 N728 1.326 . S
C727 C731 1.460 . S
C727 H733 0.929 . S
N728 Mn721 2.257 1_554 S
N728 C727 1.326 . S
N728 C732 1.362 . S
C729 C730 1.258 . S
C729 C732 1.431 . S
C729 C749 1.449 . S
C730 C729 1.258 . S
C730 C731 1.477 . S
C730 H750 0.931 . S
C731 C727 1.460 . S
C731 C730 1.477 . S
C731 H751 0.930 . S
C732 N728 1.362 . S
C732 C729 1.431 . S
C732 C742 1.476 . S
H733 C727 0.929 . S
C734 O725 1.250 . S
C734 O726 1.258 . S
O735 Mn720 2.162 . S
O735 C723 1.281 . S
O736 Mn720 2.297 . S
O736 C723 1.236 . S
N737 Mn721 2.282 1_554 S
N737 C738 1.328 1_554 S
N737 C742 1.318 . S
C738 N737 1.328 1_556 S
C738 C739 1.457 1_556 S
C738 H743 0.929 . S
C739 C738 1.457 1_554 S
C739 C740 1.291 . S
C739 H752 0.933 . S
C740 C739 1.291 . S
C740 C741 1.373 . S
C740 H753 0.929 . S
C741 C740 1.373 . S
C741 C742 1.396 . S
C741 C748 1.403 . S
C742 C732 1.476 . S
C742 N737 1.318 . S
C742 C741 1.396 . S
H743 C738 0.929 . S
O744 Mn720 2.385 . S
O744 C722 1.234 . S
O745 Mn720 2.209 . S
O745 Mn721 2.215 . S
O745 C722 1.283 . S
O746 Mn720 2.094 . S
O746 C724 1.240 . S
O747 Mn721 2.117 . S
O747 C724 1.264 . S
C748 C741 1.403 . S
C748 C749 1.399 . S
C748 H754 0.929 . S
C749 C729 1.449 . S
C749 C748 1.399 . S
C749 H755 0.930 . S
H750 C730 0.931 . S
H751 C731 0.930 . S
H752 C739 0.933 . S
H753 C740 0.929 . S
H754 C748 0.929 . S
H755 C749 0.930 . S
Mn756 O761 2.095 . S
Mn756 O771 2.162 . S
Mn756 O772 2.297 . S
Mn756 O780 2.385 . S
Mn756 O781 2.209 . S
Mn756 O782 2.094 . S
Mn757 O762 2.121 . S
Mn757 N764 2.257 . S
Mn757 N773 2.282 . S
Mn757 O781 2.215 . S
Mn757 O783 2.117 . S
C758 O780 1.234 . S
C758 O781 1.283 . S
C759 O771 1.281 . S
C759 O772 1.236 . S
C760 O782 1.240 . S
C760 O783 1.264 . S
O761 Mn756 2.095 . S
O761 C770 1.250 . S
O762 Mn757 2.121 . S
O762 C770 1.258 . S
C763 N764 1.326 . S
C763 C767 1.460 . S
C763 H769 0.929 . S
N764 Mn757 2.257 . S
N764 C763 1.326 . S
N764 C768 1.362 . S
C765 C766 1.258 1_455 S
C765 C768 1.431 . S
C765 C785 1.449 1_455 S
C766 C765 1.258 1_655 S
C766 C767 1.477 1_655 S
C766 H786 0.931 . S
C767 C763 1.460 . S
C767 C766 1.477 1_455 S
C767 H787 0.930 1_455 S
C768 N764 1.362 . S
C768 C765 1.431 . S
C768 C778 1.476 . S
H769 C763 0.929 . S
C770 O761 1.250 . S
C770 O762 1.258 . S
O771 Mn756 2.162 . S
O771 C759 1.281 . S
O772 Mn756 2.297 . S
O772 C759 1.236 . S
N773 Mn757 2.282 . S
N773 C774 1.328 . S
N773 C778 1.318 . S
C774 N773 1.328 . S
C774 C775 1.457 . S
C774 H779 0.929 . S
C775 C774 1.457 . S
C775 C776 1.291 . S
C775 H788 0.931 . S
C776 C775 1.291 . S
C776 C777 1.373 . S
C776 H789 0.929 . S
C777 C776 1.373 . S
C777 C778 1.396 . S
C777 C784 1.403 . S
C778 C768 1.476 . S
C778 N773 1.318 . S
C778 C777 1.396 . S
H779 C774 0.929 . S
O780 Mn756 2.385 . S
O780 C758 1.234 . S
O781 Mn756 2.209 . S
O781 Mn757 2.215 . S
O781 C758 1.283 . S
O782 Mn756 2.094 . S
O782 C760 1.240 . S
O783 Mn757 2.117 . S
O783 C760 1.264 . S
C784 C777 1.403 . S
C784 C785 1.399 1_455 S
C784 H790 0.929 1_455 S
C785 C765 1.449 1_655 S
C785 C784 1.399 1_655 S
C785 H791 0.930 . S
H786 C766 0.931 . S
H787 C767 0.930 1_655 S
H788 C775 0.931 . S
H789 C776 0.929 . S
H790 C784 0.929 1_655 S
H791 C785 0.930 . S
Mn792 O797 2.095 . S
Mn792 O807 2.162 . S
Mn792 O808 2.297 . S
Mn792 O816 2.385 . S
Mn792 O817 2.209 . S
Mn792 O818 2.094 . S
Mn793 O798 2.121 . S
Mn793 N800 2.257 . S
Mn793 N809 2.282 . S
Mn793 O817 2.215 . S
Mn793 O819 2.117 . S
C794 O816 1.234 . S
C794 O817 1.283 . S
C795 O807 1.281 . S
C795 O808 1.236 . S
C796 O818 1.240 . S
C796 O819 1.264 . S
O797 Mn792 2.095 . S
O797 C806 1.250 . S
O798 Mn793 2.121 . S
O798 C806 1.258 . S
C799 N800 1.326 . S
C799 C803 1.460 . S
C799 H805 0.929 . S
N800 Mn793 2.257 . S
N800 C799 1.326 . S
N800 C804 1.362 . S
C801 C802 1.258 . S
C801 C804 1.431 . S
C801 C821 1.449 . S
C802 C801 1.258 . S
C802 C803 1.477 . S
C802 H822 0.931 . S
C803 C799 1.460 . S
C803 C802 1.477 . S
C803 H823 0.930 . S
C804 N800 1.362 . S
C804 C801 1.431 . S
C804 C814 1.476 . S
H805 C799 0.929 . S
C806 O797 1.250 . S
C806 O798 1.258 . S
O807 Mn792 2.162 . S
O807 C795 1.281 . S
O808 Mn792 2.297 . S
O808 C795 1.236 . S
N809 Mn793 2.282 . S
N809 C810 1.328 . S
N809 C814 1.318 . S
C810 N809 1.328 . S
C810 C811 1.457 1_655 S
C810 H815 0.929 . S
C811 C810 1.457 1_455 S
C811 C812 1.291 . S
C811 H824 0.931 . S
C812 C811 1.291 . S
C812 C813 1.373 1_455 S
C812 H825 0.929 . S
C813 C812 1.373 1_655 S
C813 C814 1.396 . S
C813 C820 1.403 . S
C814 C804 1.476 . S
C814 N809 1.318 . S
C814 C813 1.396 . S
H815 C810 0.929 . S
O816 Mn792 2.385 . S
O816 C794 1.234 . S
O817 Mn792 2.209 . S
O817 Mn793 2.215 . S
O817 C794 1.283 . S
O818 Mn792 2.094 . S
O818 C796 1.240 . S
O819 Mn793 2.117 . S
O819 C796 1.264 . S
C820 C813 1.403 . S
C820 C821 1.399 . S
C820 H826 0.929 1_655 S
C821 C801 1.449 . S
C821 C820 1.399 . S
C821 H827 0.930 . S
H822 C802 0.931 . S
H823 C803 0.930 . S
H824 C811 0.931 . S
H825 C812 0.929 . S
H826 C820 0.929 1_455 S
H827 C821 0.930 . S
Mn828 O833 2.095 . S
Mn828 O843 2.162 . S
Mn828 O844 2.297 . S
Mn828 O852 2.385 . S
Mn828 O853 2.209 . S
Mn828 O854 2.094 . S
Mn829 O834 2.121 . S
Mn829 N836 2.257 . S
Mn829 N845 2.282 . S
Mn829 O853 2.215 . S
Mn829 O855 2.117 . S
C830 O852 1.234 . S
C830 O853 1.283 . S
C831 O843 1.281 . S
C831 O844 1.236 . S
C832 O854 1.240 . S
C832 O855 1.264 . S
O833 Mn828 2.095 . S
O833 C842 1.250 . S
O834 Mn829 2.121 . S
O834 C842 1.258 . S
C835 N836 1.326 . S
C835 C839 1.460 . S
C835 H841 0.929 . S
N836 Mn829 2.257 . S
N836 C835 1.326 . S
N836 C840 1.362 . S
C837 C838 1.258 . S
C837 C840 1.431 . S
C837 C857 1.449 . S
C838 C837 1.258 . S
C838 C839 1.477 . S
C838 H858 0.931 . S
C839 C835 1.460 . S
C839 C838 1.477 . S
C839 H859 0.930 . S
C840 N836 1.362 . S
C840 C837 1.431 . S
C840 C850 1.476 . S
H841 C835 0.929 . S
C842 O833 1.250 . S
C842 O834 1.258 . S
O843 Mn828 2.162 . S
O843 C831 1.281 . S
O844 Mn828 2.297 . S
O844 C831 1.236 . S
N845 Mn829 2.282 . S
N845 C846 1.328 . S
N845 C850 1.318 . S
C846 N845 1.328 . S
C846 C847 1.457 . S
C846 H851 0.929 . S
C847 C846 1.457 . S
C847 C848 1.291 . S
C847 H860 0.931 . S
C848 C847 1.291 . S
C848 C849 1.373 . S
C848 H861 0.929 . S
C849 C848 1.373 . S
C849 C850 1.396 . S
C849 C856 1.403 . S
C850 C840 1.476 . S
C850 N845 1.318 . S
C850 C849 1.396 . S
H851 C846 0.929 . S
O852 Mn828 2.385 . S
O852 C830 1.234 . S
O853 Mn828 2.209 . S
O853 Mn829 2.215 . S
O853 C830 1.283 . S
O854 Mn828 2.094 . S
O854 C832 1.240 . S
O855 Mn829 2.117 . S
O855 C832 1.264 . S
C856 C849 1.403 . S
C856 C857 1.399 . S
C856 H862 0.929 . S
C857 C837 1.449 . S
C857 C856 1.399 . S
C857 H863 0.930 . S
H858 C838 0.931 . S
H859 C839 0.930 . S
H860 C847 0.931 . S
H861 C848 0.929 . S
H862 C856 0.929 . S
H863 C857 0.930 . S
Mn864 O869 2.095 . S
Mn864 O879 2.162 . S
Mn864 O880 2.297 . S
Mn864 O888 2.385 . S
Mn864 O889 2.209 . S
Mn864 O890 2.094 . S
Mn865 O870 2.121 . S
Mn865 N872 2.257 . S
Mn865 N881 2.282 . S
Mn865 O889 2.215 . S
Mn865 O891 2.117 . S
C866 O888 1.234 . S
C866 O889 1.283 . S
C867 O879 1.281 . S
C867 O880 1.236 . S
C868 O890 1.240 . S
C868 O891 1.264 . S
O869 Mn864 2.095 . S
O869 C878 1.250 . S
O870 Mn865 2.121 . S
O870 C878 1.258 . S
C871 N872 1.326 . S
C871 C875 1.460 . S
C871 H877 0.929 . S
N872 Mn865 2.257 . S
N872 C871 1.326 . S
N872 C876 1.362 . S
C873 C874 1.258 . S
C873 C876 1.431 . S
C873 C893 1.449 . S
C874 C873 1.258 . S
C874 C875 1.477 . S
C874 H894 0.931 . S
C875 C871 1.460 . S
C875 C874 1.477 . S
C875 H895 0.930 . S
C876 N872 1.362 . S
C876 C873 1.431 . S
C876 C886 1.476 . S
H877 C871 0.929 . S
C878 O869 1.250 . S
C878 O870 1.258 . S
O879 Mn864 2.162 . S
O879 C867 1.281 . S
O880 Mn864 2.297 . S
O880 C867 1.236 . S
N881 Mn865 2.282 . S
N881 C882 1.328 . S
N881 C886 1.318 . S
C882 N881 1.328 . S
C882 C883 1.457 . S
C882 H887 0.929 . S
C883 C882 1.457 . S
C883 C884 1.291 . S
C883 H896 0.931 . S
C884 C883 1.291 . S
C884 C885 1.373 . S
C884 H897 0.929 . S
C885 C884 1.373 . S
C885 C886 1.396 . S
C885 C892 1.403 . S
C886 C876 1.476 . S
C886 N881 1.318 . S
C886 C885 1.396 . S
H887 C882 0.929 . S
O888 Mn864 2.385 . S
O888 C866 1.234 . S
O889 Mn864 2.209 . S
O889 Mn865 2.215 . S
O889 C866 1.283 . S
O890 Mn864 2.094 . S
O890 C868 1.240 . S
O891 Mn865 2.117 . S
O891 C868 1.264 . S
C892 C885 1.403 . S
C892 C893 1.399 . S
C892 H898 0.929 . S
C893 C873 1.449 . S
C893 C892 1.399 . S
C893 H899 0.930 . S
H894 C874 0.931 . S
H895 C875 0.930 . S
H896 C883 0.931 . S
H897 C884 0.929 . S
H898 C892 0.929 . S
H899 C893 0.930 . S
Mn900 O905 2.095 . S
Mn900 O915 2.162 . S
Mn900 O916 2.297 . S
Mn900 O924 2.385 . S
Mn900 O925 2.209 . S
Mn900 O926 2.094 . S
Mn901 O906 2.121 . S
Mn901 N908 2.257 . S
Mn901 N917 2.282 . S
Mn901 O925 2.215 . S
Mn901 O927 2.117 . S
C902 O924 1.234 . S
C902 O925 1.283 . S
C903 O915 1.281 . S
C903 O916 1.236 . S
C904 O926 1.240 . S
C904 O927 1.264 . S
O905 Mn900 2.095 . S
O905 C914 1.250 . S
O906 Mn901 2.121 . S
O906 C914 1.258 . S
C907 N908 1.326 . S
C907 C911 1.460 . S
C907 H913 0.929 . S
N908 Mn901 2.257 . S
N908 C907 1.326 . S
N908 C912 1.362 . S
C909 C910 1.258 . S
C909 C912 1.431 . S
C909 C929 1.449 . S
C910 C909 1.258 . S
C910 C911 1.477 . S
C910 H930 0.931 . S
C911 C907 1.460 . S
C911 C910 1.477 . S
C911 H931 0.930 . S
C912 N908 1.362 . S
C912 C909 1.431 . S
C912 C922 1.476 . S
H913 C907 0.929 . S
C914 O905 1.250 . S
C914 O906 1.258 . S
O915 Mn900 2.162 . S
O915 C903 1.281 . S
O916 Mn900 2.297 . S
O916 C903 1.236 . S
N917 Mn901 2.282 . S
N917 C918 1.328 . S
N917 C922 1.318 . S
C918 N917 1.328 . S
C918 C919 1.457 . S
C918 H923 0.929 . S
C919 C918 1.457 . S
C919 C920 1.291 . S
C919 H932 0.931 . S
C920 C919 1.291 . S
C920 C921 1.373 . S
C920 H933 0.929 . S
C921 C920 1.373 . S
C921 C922 1.396 . S
C921 C928 1.403 . S
C922 C912 1.476 . S
C922 N917 1.318 . S
C922 C921 1.396 . S
H923 C918 0.929 . S
O924 Mn900 2.385 . S
O924 C902 1.234 . S
O925 Mn900 2.209 . S
O925 Mn901 2.215 . S
O925 C902 1.283 . S
O926 Mn900 2.094 . S
O926 C904 1.240 . S
O927 Mn901 2.117 . S
O927 C904 1.264 . S
C928 C921 1.403 . S
C928 C929 1.399 . S
C928 H934 0.929 . S
C929 C909 1.449 . S
C929 C928 1.399 . S
C929 H935 0.930 . S
H930 C910 0.931 . S
H931 C911 0.930 . S
H932 C919 0.931 . S
H933 C920 0.929 . S
H934 C928 0.929 . S
H935 C929 0.930 . S
Mn936 O941 2.095 . S
Mn936 O951 2.162 . S
Mn936 O952 2.297 . S
Mn936 O960 2.385 . S
Mn936 O961 2.209 . S
Mn936 O962 2.094 . S
Mn937 O942 2.121 . S
Mn937 N944 2.257 1_556 S
Mn937 N953 2.282 1_556 S
Mn937 O961 2.215 . S
Mn937 O963 2.117 . S
C938 O960 1.234 . S
C938 O961 1.283 . S
C939 O951 1.281 . S
C939 O952 1.236 . S
C940 O962 1.240 . S
C940 O963 1.264 . S
O941 Mn936 2.095 . S
O941 C950 1.250 . S
O942 Mn937 2.121 . S
O942 C950 1.258 . S
C943 N944 1.326 . S
C943 C947 1.460 . S
C943 H949 0.929 . S
N944 Mn937 2.257 1_554 S
N944 C943 1.326 . S
N944 C948 1.362 . S
C945 C946 1.258 . S
C945 C948 1.431 . S
C945 C965 1.449 . S
C946 C945 1.258 . S
C946 C947 1.477 . S
C946 H966 0.931 . S
C947 C943 1.460 . S
C947 C946 1.477 . S
C947 H967 0.930 . S
C948 N944 1.362 . S
C948 C945 1.431 . S
C948 C958 1.476 . S
H949 C943 0.929 . S
C950 O941 1.250 . S
C950 O942 1.258 . S
O951 Mn936 2.162 . S
O951 C939 1.281 . S
O952 Mn936 2.297 . S
O952 C939 1.236 . S
N953 Mn937 2.282 1_554 S
N953 C954 1.328 1_554 S
N953 C958 1.318 . S
C954 N953 1.328 1_556 S
C954 C955 1.457 1_456 S
C954 H959 0.929 . S
C955 C954 1.457 1_654 S
C955 C956 1.291 . S
C955 H968 0.933 . S
C956 C955 1.291 . S
C956 C957 1.373 1_655 S
C956 H969 0.929 . S
C957 C956 1.373 1_455 S
C957 C958 1.396 . S
C957 C964 1.403 . S
C958 C948 1.476 . S
C958 N953 1.318 . S
C958 C957 1.396 . S
H959 C954 0.929 . S
O960 Mn936 2.385 . S
O960 C938 1.234 . S
O961 Mn936 2.209 . S
O961 Mn937 2.215 . S
O961 C938 1.283 . S
O962 Mn936 2.094 . S
O962 C940 1.240 . S
O963 Mn937 2.117 . S
O963 C940 1.264 . S
C964 C957 1.403 . S
C964 C965 1.399 . S
C964 H970 0.929 1_455 S
C965 C945 1.449 . S
C965 C964 1.399 . S
C965 H971 0.930 . S
H966 C946 0.931 . S
H967 C947 0.930 . S
H968 C955 0.933 . S
H969 C956 0.929 . S
H970 C964 0.929 1_655 S
H971 C965 0.930 . S
Mn972 O977 2.095 . S
Mn972 O987 2.162 . S
Mn972 O988 2.297 . S
Mn972 O996 2.385 . S
Mn972 O997 2.209 . S
Mn972 O998 2.094 . S
Mn973 O978 2.121 . S
Mn973 N980 2.257 . S
Mn973 N989 2.282 . S
Mn973 O997 2.215 . S
Mn973 O999 2.117 . S
C974 O996 1.234 . S
C974 O997 1.283 . S
C975 O987 1.281 . S
C975 O988 1.236 . S
C976 O998 1.240 . S
C976 O999 1.264 . S
O977 Mn972 2.095 . S
O977 C986 1.250 . S
O978 Mn973 2.121 . S
O978 C986 1.258 . S
C979 N980 1.326 . S
C979 C983 1.460 . S
C979 H985 0.929 . S
N980 Mn973 2.257 . S
N980 C979 1.326 . S
N980 C984 1.362 . S
C981 C982 1.258 1_655 S
C981 C984 1.431 . S
C981 C1001 1.449 1_655 S
C982 C981 1.258 1_455 S
C982 C983 1.477 1_455 S
C982 H1002 0.931 . S
C983 C979 1.460 . S
C983 C982 1.477 1_655 S
C983 H1003 0.930 1_655 S
C984 N980 1.362 . S
C984 C981 1.431 . S
C984 C994 1.476 . S
H985 C979 0.929 . S
C986 O977 1.250 . S
C986 O978 1.258 . S
O987 Mn972 2.162 . S
O987 C975 1.281 . S
O988 Mn972 2.297 . S
O988 C975 1.236 . S
N989 Mn973 2.282 . S
N989 C990 1.328 . S
N989 C994 1.318 . S
C990 N989 1.328 . S
C990 C991 1.457 . S
C990 H995 0.929 . S
C991 C990 1.457 . S
C991 C992 1.291 . S
C991 H1004 0.931 . S
C992 C991 1.291 . S
C992 C993 1.373 . S
C992 H1005 0.929 . S
C993 C992 1.373 . S
C993 C994 1.396 . S
C993 C1000 1.403 . S
C994 C984 1.476 . S
C994 N989 1.318 . S
C994 C993 1.396 . S
H995 C990 0.929 . S
O996 Mn972 2.385 . S
O996 C974 1.234 . S
O997 Mn972 2.209 . S
O997 Mn973 2.215 . S
O997 C974 1.283 . S
O998 Mn972 2.094 . S
O998 C976 1.240 . S
O999 Mn973 2.117 . S
O999 C976 1.264 . S
C1000 C993 1.403 . S
C1000 C1001 1.399 1_655 S
C1000 H1006 0.929 1_655 S
C1001 C981 1.449 1_455 S
C1001 C1000 1.399 1_455 S
C1001 H1007 0.930 . S
H1002 C982 0.931 . S
H1003 C983 0.930 1_455 S
H1004 C991 0.931 . S
H1005 C992 0.929 . S
H1006 C1000 0.929 1_455 S
H1007 C1001 0.930 . S
Mn1008 O1013 2.095 . S
Mn1008 O1023 2.162 . S
Mn1008 O1024 2.297 . S
Mn1008 O1032 2.385 . S
Mn1008 O1033 2.209 . S
Mn1008 O1034 2.094 . S
Mn1009 O1014 2.121 . S
Mn1009 N1016 2.257 1_554 S
Mn1009 N1025 2.282 1_554 S
Mn1009 O1033 2.215 . S
Mn1009 O1035 2.117 . S
C1010 O1032 1.234 . S
C1010 O1033 1.283 . S
C1011 O1023 1.281 . S
C1011 O1024 1.236 . S
C1012 O1034 1.240 . S
C1012 O1035 1.264 . S
O1013 Mn1008 2.095 . S
O1013 C1022 1.250 . S
O1014 Mn1009 2.121 . S
O1014 C1022 1.258 . S
C1015 N1016 1.326 . S
C1015 C1019 1.460 . S
C1015 H1021 0.929 . S
N1016 Mn1009 2.257 1_556 S
N1016 C1015 1.326 . S
N1016 C1020 1.362 . S
C1017 C1018 1.258 . S
C1017 C1020 1.431 . S
C1017 C1037 1.449 . S
C1018 C1017 1.258 . S
C1018 C1019 1.477 . S
C1018 H1038 0.931 . S
C1019 C1015 1.460 . S
C1019 C1018 1.477 . S
C1019 H1039 0.930 . S
C1020 N1016 1.362 . S
C1020 C1017 1.431 . S
C1020 C1030 1.476 . S
H1021 C1015 0.929 . S
C1022 O1013 1.250 . S
C1022 O1014 1.258 . S
O1023 Mn1008 2.162 . S
O1023 C1011 1.281 . S
O1024 Mn1008 2.297 . S
O1024 C1011 1.236 . S
N1025 Mn1009 2.282 1_556 S
N1025 C1026 1.328 1_556 S
N1025 C1030 1.318 . S
C1026 N1025 1.328 1_554 S
C1026 C1027 1.457 1_554 S
C1026 H1031 0.929 . S
C1027 C1026 1.457 1_556 S
C1027 C1028 1.291 . S
C1027 H1040 0.933 . S
C1028 C1027 1.291 . S
C1028 C1029 1.373 . S
C1028 H1041 0.929 . S
C1029 C1028 1.373 . S
C1029 C1030 1.396 . S
C1029 C1036 1.403 . S
C1030 C1020 1.476 . S
C1030 N1025 1.318 . S
C1030 C1029 1.396 . S
H1031 C1026 0.929 . S
O1032 Mn1008 2.385 . S
O1032 C1010 1.234 . S
O1033 Mn1008 2.209 . S
O1033 Mn1009 2.215 . S
O1033 C1010 1.283 . S
O1034 Mn1008 2.094 . S
O1034 C1012 1.240 . S
O1035 Mn1009 2.117 . S
O1035 C1012 1.264 . S
C1036 C1029 1.403 . S
C1036 C1037 1.399 . S
C1036 H1042 0.929 . S
C1037 C1017 1.449 . S
C1037 C1036 1.399 . S
C1037 H1043 0.930 . S
H1038 C1018 0.931 . S
H1039 C1019 0.930 . S
H1040 C1027 0.933 . S
H1041 C1028 0.929 . S
H1042 C1036 0.929 . S
H1043 C1037 0.930 . S
Mn1044 O1049 2.095 . S
Mn1044 O1059 2.162 . S
Mn1044 O1060 2.297 . S
Mn1044 O1068 2.385 . S
Mn1044 O1069 2.209 . S
Mn1044 O1070 2.094 . S
Mn1045 O1050 2.121 . S
Mn1045 N1052 2.257 . S
Mn1045 N1061 2.282 . S
Mn1045 O1069 2.215 . S
Mn1045 O1071 2.117 . S
C1046 O1068 1.234 . S
C1046 O1069 1.283 . S
C1047 O1059 1.281 . S
C1047 O1060 1.236 . S
C1048 O1070 1.240 . S
C1048 O1071 1.264 . S
O1049 Mn1044 2.095 . S
O1049 C1058 1.250 . S
O1050 Mn1045 2.121 . S
O1050 C1058 1.258 . S
C1051 N1052 1.326 . S
C1051 C1055 1.460 . S
C1051 H1057 0.929 . S
N1052 Mn1045 2.257 . S
N1052 C1051 1.326 . S
N1052 C1056 1.362 . S
C1053 C1054 1.258 1_655 S
C1053 C1056 1.431 . S
C1053 C1073 1.449 1_655 S
C1054 C1053 1.258 1_455 S
C1054 C1055 1.477 1_455 S
C1054 H1074 0.931 . S
C1055 C1051 1.460 . S
C1055 C1054 1.477 1_655 S
C1055 H1075 0.930 1_655 S
C1056 N1052 1.362 . S
C1056 C1053 1.431 . S
C1056 C1066 1.476 . S
H1057 C1051 0.929 . S
C1058 O1049 1.250 . S
C1058 O1050 1.258 . S
O1059 Mn1044 2.162 . S
O1059 C1047 1.281 . S
O1060 Mn1044 2.297 . S
O1060 C1047 1.236 . S
N1061 Mn1045 2.282 . S
N1061 C1062 1.328 . S
N1061 C1066 1.318 . S
C1062 N1061 1.328 . S
C1062 C1063 1.457 . S
C1062 H1067 0.929 . S
C1063 C1062 1.457 . S
C1063 C1064 1.291 . S
C1063 H1076 0.931 . S
C1064 C1063 1.291 . S
C1064 C1065 1.373 . S
C1064 H1077 0.929 . S
C1065 C1064 1.373 . S
C1065 C1066 1.396 . S
C1065 C1072 1.403 . S
C1066 C1056 1.476 . S
C1066 N1061 1.318 . S
C1066 C1065 1.396 . S
H1067 C1062 0.929 . S
O1068 Mn1044 2.385 . S
O1068 C1046 1.234 . S
O1069 Mn1044 2.209 . S
O1069 Mn1045 2.215 . S
O1069 C1046 1.283 . S
O1070 Mn1044 2.094 . S
O1070 C1048 1.240 . S
O1071 Mn1045 2.117 . S
O1071 C1048 1.264 . S
C1072 C1065 1.403 . S
C1072 C1073 1.399 1_655 S
C1072 H1078 0.929 1_655 S
C1073 C1053 1.449 1_455 S
C1073 C1072 1.399 1_455 S
C1073 H1079 0.930 . S
H1074 C1054 0.931 . S
H1075 C1055 0.930 1_455 S
H1076 C1063 0.931 . S
H1077 C1064 0.929 . S
H1078 C1072 0.929 1_455 S
H1079 C1073 0.930 . S
Mn1080 O1085 2.095 . S
Mn1080 O1095 2.162 . S
Mn1080 O1096 2.297 . S
Mn1080 O1104 2.385 . S
Mn1080 O1105 2.209 . S
Mn1080 O1106 2.094 . S
Mn1081 O1086 2.121 . S
Mn1081 N1088 2.257 . S
Mn1081 N1097 2.282 . S
Mn1081 O1105 2.215 . S
Mn1081 O1107 2.117 . S
C1082 O1104 1.234 . S
C1082 O1105 1.283 . S
C1083 O1095 1.281 . S
C1083 O1096 1.236 . S
C1084 O1106 1.240 . S
C1084 O1107 1.264 . S
O1085 Mn1080 2.095 . S
O1085 C1094 1.250 . S
O1086 Mn1081 2.121 . S
O1086 C1094 1.258 . S
C1087 N1088 1.326 . S
C1087 C1091 1.460 . S
C1087 H1093 0.929 . S
N1088 Mn1081 2.257 . S
N1088 C1087 1.326 . S
N1088 C1092 1.362 . S
C1089 C1090 1.258 . S
C1089 C1092 1.431 . S
C1089 C1109 1.449 . S
C1090 C1089 1.258 . S
C1090 C1091 1.477 . S
C1090 H1110 0.931 . S
C1091 C1087 1.460 . S
C1091 C1090 1.477 . S
C1091 H1111 0.930 . S
C1092 N1088 1.362 . S
C1092 C1089 1.431 . S
C1092 C1102 1.476 . S
H1093 C1087 0.929 . S
C1094 O1085 1.250 . S
C1094 O1086 1.258 . S
O1095 Mn1080 2.162 . S
O1095 C1083 1.281 . S
O1096 Mn1080 2.297 . S
O1096 C1083 1.236 . S
N1097 Mn1081 2.282 . S
N1097 C1098 1.328 . S
N1097 C1102 1.318 . S
C1098 N1097 1.328 . S
C1098 C1099 1.457 1_455 S
C1098 H1103 0.929 . S
C1099 C1098 1.457 1_655 S
C1099 C1100 1.291 . S
C1099 H1112 0.931 . S
C1100 C1099 1.291 . S
C1100 C1101 1.373 1_655 S
C1100 H1113 0.929 . S
C1101 C1100 1.373 1_455 S
C1101 C1102 1.396 . S
C1101 C1108 1.403 . S
C1102 C1092 1.476 . S
C1102 N1097 1.318 . S
C1102 C1101 1.396 . S
H1103 C1098 0.929 . S
O1104 Mn1080 2.385 . S
O1104 C1082 1.234 . S
O1105 Mn1080 2.209 . S
O1105 Mn1081 2.215 . S
O1105 C1082 1.283 . S
O1106 Mn1080 2.094 . S
O1106 C1084 1.240 . S
O1107 Mn1081 2.117 . S
O1107 C1084 1.264 . S
C1108 C1101 1.403 . S
C1108 C1109 1.399 . S
C1108 H1114 0.929 1_455 S
C1109 C1089 1.449 . S
C1109 C1108 1.399 . S
C1109 H1115 0.930 . S
H1110 C1090 0.931 . S
H1111 C1091 0.930 . S
H1112 C1099 0.931 . S
H1113 C1100 0.929 . S
H1114 C1108 0.929 1_655 S
H1115 C1109 0.930 . S
Mn1116 O1121 2.095 . S
Mn1116 O1131 2.162 . S
Mn1116 O1132 2.297 . S
Mn1116 O1140 2.385 . S
Mn1116 O1141 2.209 . S
Mn1116 O1142 2.094 . S
Mn1117 O1122 2.121 . S
Mn1117 N1124 2.257 . S
Mn1117 N1133 2.282 . S
Mn1117 O1141 2.215 . S
Mn1117 O1143 2.117 . S
C1118 O1140 1.234 . S
C1118 O1141 1.283 . S
C1119 O1131 1.281 . S
C1119 O1132 1.236 . S
C1120 O1142 1.240 . S
C1120 O1143 1.264 . S
O1121 Mn1116 2.095 . S
O1121 C1130 1.250 . S
O1122 Mn1117 2.121 . S
O1122 C1130 1.258 . S
C1123 N1124 1.326 . S
C1123 C1127 1.460 . S
C1123 H1129 0.929 . S
N1124 Mn1117 2.257 . S
N1124 C1123 1.326 . S
N1124 C1128 1.362 . S
C1125 C1126 1.258 . S
C1125 C1128 1.431 . S
C1125 C1145 1.449 . S
C1126 C1125 1.258 . S
C1126 C1127 1.477 . S
C1126 H1146 0.931 . S
C1127 C1123 1.460 . S
C1127 C1126 1.477 . S
C1127 H1147 0.930 . S
C1128 N1124 1.362 . S
C1128 C1125 1.431 . S
C1128 C1138 1.476 . S
H1129 C1123 0.929 . S
C1130 O1121 1.250 . S
C1130 O1122 1.258 . S
O1131 Mn1116 2.162 . S
O1131 C1119 1.281 . S
O1132 Mn1116 2.297 . S
O1132 C1119 1.236 . S
N1133 Mn1117 2.282 . S
N1133 C1134 1.328 . S
N1133 C1138 1.318 . S
C1134 N1133 1.328 . S
C1134 C1135 1.457 . S
C1134 H1139 0.929 . S
C1135 C1134 1.457 . S
C1135 C1136 1.291 . S
C1135 H1148 0.931 . S
C1136 C1135 1.291 . S
C1136 C1137 1.373 . S
C1136 H1149 0.929 . S
C1137 C1136 1.373 . S
C1137 C1138 1.396 . S
C1137 C1144 1.403 . S
C1138 C1128 1.476 . S
C1138 N1133 1.318 . S
C1138 C1137 1.396 . S
H1139 C1134 0.929 . S
O1140 Mn1116 2.385 . S
O1140 C1118 1.234 . S
O1141 Mn1116 2.209 . S
O1141 Mn1117 2.215 . S
O1141 C1118 1.283 . S
O1142 Mn1116 2.094 . S
O1142 C1120 1.240 . S
O1143 Mn1117 2.117 . S
O1143 C1120 1.264 . S
C1144 C1137 1.403 . S
C1144 C1145 1.399 . S
C1144 H1150 0.929 . S
C1145 C1125 1.449 . S
C1145 C1144 1.399 . S
C1145 H1151 0.930 . S
H1146 C1126 0.931 . S
H1147 C1127 0.930 . S
H1148 C1135 0.931 . S
H1149 C1136 0.929 . S
H1150 C1144 0.929 . S
H1151 C1145 0.930 . S
H1152 C1158 0.930 . S
H1153 C1161 0.927 1_455 S
H1154 C1162 0.930 . S
H1155 C1163 0.930 . S
H1156 C1166 0.927 1_655 S
H1157 C1167 0.930 . S
C1158 H1152 0.930 . S
C1158 C1159 1.355 . S
C1158 C1160 1.415 1_556 S
C1159 C1158 1.355 . S
C1159 C1161 1.419 . S
C1160 C1158 1.415 1_554 S
C1160 C1165 1.425 1_654 S
C1160 C1167 1.409 . S
C1161 H1153 0.927 1_655 S
C1161 C1159 1.419 . S
C1161 C1162 1.362 1_655 S
C1162 H1154 0.930 . S
C1162 C1161 1.362 1_455 S
C1162 C1165 1.409 . S
C1163 H1155 0.930 . S
C1163 C1164 1.355 . S
C1163 C1165 1.415 1_554 S
C1164 C1163 1.355 . S
C1164 C1166 1.419 . S
C1165 C1160 1.425 1_456 S
C1165 C1162 1.409 . S
C1165 C1163 1.415 1_556 S
C1166 H1156 0.927 1_455 S
C1166 C1164 1.419 . S
C1166 C1167 1.362 1_455 S
C1167 H1157 0.930 . S
C1167 C1160 1.409 . S
C1167 C1166 1.362 1_655 S
H1168 C1174 0.930 . S
H1169 C1177 0.930 . S
H1170 C1178 0.930 . S
H1171 C1179 0.930 . S
H1172 C1182 0.930 . S
H1173 C1183 0.930 . S
C1174 H1168 0.930 . S
C1174 C1175 1.355 . S
C1174 C1176 1.415 . S
C1175 C1174 1.355 . S
C1175 C1177 1.419 . S
C1176 C1174 1.415 . S
C1176 C1181 1.425 . S
C1176 C1183 1.409 . S
C1177 H1169 0.930 . S
C1177 C1175 1.419 . S
C1177 C1178 1.362 . S
C1178 H1170 0.930 . S
C1178 C1177 1.362 . S
C1178 C1181 1.409 . S
C1179 H1171 0.930 . S
C1179 C1180 1.355 . S
C1179 C1181 1.415 . S
C1180 C1179 1.355 . S
C1180 C1182 1.419 . S
C1181 C1176 1.425 . S
C1181 C1178 1.409 . S
C1181 C1179 1.415 . S
C1182 H1172 0.930 . S
C1182 C1180 1.419 . S
C1182 C1183 1.362 . S
C1183 H1173 0.930 . S
C1183 C1176 1.409 . S
C1183 C1182 1.362 . S
H1184 C1190 0.930 . S
H1185 C1193 0.930 . S
H1186 C1194 0.930 . S
H1187 C1195 0.930 . S
H1188 C1198 0.930 . S
H1189 C1199 0.930 . S
C1190 H1184 0.930 . S
C1190 C1191 1.355 . S
C1190 C1192 1.415 . S
C1191 C1190 1.355 . S
C1191 C1193 1.419 . S
C1192 C1190 1.415 . S
C1192 C1197 1.425 . S
C1192 C1199 1.409 . S
C1193 H1185 0.930 . S
C1193 C1191 1.419 . S
C1193 C1194 1.362 . S
C1194 H1186 0.930 . S
C1194 C1193 1.362 . S
C1194 C1197 1.409 . S
C1195 H1187 0.930 . S
C1195 C1196 1.355 . S
C1195 C1197 1.415 . S
C1196 C1195 1.355 . S
C1196 C1198 1.419 . S
C1197 C1192 1.425 . S
C1197 C1194 1.409 . S
C1197 C1195 1.415 . S
C1198 H1188 0.930 . S
C1198 C1196 1.419 . S
C1198 C1199 1.362 . S
C1199 H1189 0.930 . S
C1199 C1192 1.409 . S
C1199 C1198 1.362 . S
H1200 C1206 0.930 . S
H1201 C1209 0.930 . S
H1202 C1210 0.930 . S
H1203 C1211 0.930 . S
H1204 C1214 0.930 . S
H1205 C1215 0.930 . S
C1206 H1200 0.930 . S
C1206 C1207 1.355 . S
C1206 C1208 1.415 . S
C1207 C1206 1.355 . S
C1207 C1209 1.419 . S
C1208 C1206 1.415 . S
C1208 C1213 1.425 . S
C1208 C1215 1.409 . S
C1209 H1201 0.930 . S
C1209 C1207 1.419 . S
C1209 C1210 1.362 . S
C1210 H1202 0.930 . S
C1210 C1209 1.362 . S
C1210 C1213 1.409 . S
C1211 H1203 0.930 . S
C1211 C1212 1.355 . S
C1211 C1213 1.415 . S
C1212 C1211 1.355 . S
C1212 C1214 1.419 . S
C1213 C1208 1.425 . S
C1213 C1210 1.409 . S
C1213 C1211 1.415 . S
C1214 H1204 0.930 . S
C1214 C1212 1.419 . S
C1214 C1215 1.362 . S
C1215 H1205 0.930 . S
C1215 C1208 1.409 . S
C1215 C1214 1.362 . S
H1216 C1222 0.930 . S
H1217 C1225 0.930 . S
H1218 C1226 0.930 . S
H1219 C1227 0.930 . S
H1220 C1230 0.930 . S
H1221 C1231 0.930 . S
C1222 H1216 0.930 . S
C1222 C1223 1.355 . S
C1222 C1224 1.415 . S
C1223 C1222 1.355 . S
C1223 C1225 1.419 . S
C1224 C1222 1.415 . S
C1224 C1229 1.425 1_655 S
C1224 C1231 1.409 . S
C1225 H1217 0.930 . S
C1225 C1223 1.419 . S
C1225 C1226 1.362 1_655 S
C1226 H1218 0.930 . S
C1226 C1225 1.362 1_455 S
C1226 C1229 1.409 . S
C1227 H1219 0.930 . S
C1227 C1228 1.355 . S
C1227 C1229 1.415 . S
C1228 C1227 1.355 . S
C1228 C1230 1.419 . S
C1229 C1224 1.425 1_455 S
C1229 C1226 1.409 . S
C1229 C1227 1.415 . S
C1230 H1220 0.930 . S
C1230 C1228 1.419 . S
C1230 C1231 1.362 1_455 S
C1231 H1221 0.930 . S
C1231 C1224 1.409 . S
C1231 C1230 1.362 1_655 S
H1232 C1238 0.930 . S
H1233 C1241 0.930 . S
H1234 C1242 0.930 . S
H1235 C1243 0.930 . S
H1236 C1246 0.930 . S
H1237 C1247 0.930 . S
C1238 H1232 0.930 . S
C1238 C1239 1.355 . S
C1238 C1240 1.415 . S
C1239 C1238 1.355 . S
C1239 C1241 1.419 . S
C1240 C1238 1.415 . S
C1240 C1245 1.425 . S
C1240 C1247 1.409 . S
C1241 H1233 0.930 . S
C1241 C1239 1.419 . S
C1241 C1242 1.362 . S
C1242 H1234 0.930 . S
C1242 C1241 1.362 . S
C1242 C1245 1.409 . S
C1243 H1235 0.930 . S
C1243 C1244 1.355 . S
C1243 C1245 1.415 . S
C1244 C1243 1.355 . S
C1244 C1246 1.419 . S
C1245 C1240 1.425 . S
C1245 C1242 1.409 . S
C1245 C1243 1.415 . S
C1246 H1236 0.930 . S
C1246 C1244 1.419 . S
C1246 C1247 1.362 . S
C1247 H1237 0.930 . S
C1247 C1240 1.409 . S
C1247 C1246 1.362 . S
H1248 C1254 0.930 . S
H1249 C1257 0.930 . S
H1250 C1258 0.925 1_554 S
H1251 C1259 0.930 . S
H1252 C1262 0.930 . S
H1253 C1263 0.925 1_556 S
C1254 H1248 0.930 . S
C1254 C1255 1.355 . S
C1254 C1256 1.415 . S
C1255 C1254 1.355 . S
C1255 C1257 1.419 . S
C1256 C1254 1.415 . S
C1256 C1261 1.425 1_556 S
C1256 C1263 1.409 1_556 S
C1257 H1249 0.930 . S
C1257 C1255 1.419 . S
C1257 C1258 1.362 . S
C1258 H1250 0.925 1_556 S
C1258 C1257 1.362 . S
C1258 C1261 1.409 1_556 S
C1259 H1251 0.930 . S
C1259 C1260 1.355 . S
C1259 C1261 1.415 . S
C1260 C1259 1.355 . S
C1260 C1262 1.419 . S
C1261 C1256 1.425 1_554 S
C1261 C1258 1.409 1_554 S
C1261 C1259 1.415 . S
C1262 H1252 0.930 . S
C1262 C1260 1.419 . S
C1262 C1263 1.362 . S
C1263 H1253 0.925 1_554 S
C1263 C1256 1.409 1_554 S
C1263 C1262 1.362 . S
H1264 C1270 0.930 . S
H1265 C1273 0.930 . S
H1266 C1274 0.930 . S
H1267 C1275 0.930 . S
H1268 C1278 0.930 . S
H1269 C1279 0.930 . S
C1270 H1264 0.930 . S
C1270 C1271 1.355 . S
C1270 C1272 1.415 . S
C1271 C1270 1.355 . S
C1271 C1273 1.419 . S
C1272 C1270 1.415 . S
C1272 C1277 1.425 . S
C1272 C1279 1.409 . S
C1273 H1265 0.930 . S
C1273 C1271 1.419 . S
C1273 C1274 1.362 . S
C1274 H1266 0.930 . S
C1274 C1273 1.362 . S
C1274 C1277 1.409 . S
C1275 H1267 0.930 . S
C1275 C1276 1.355 . S
C1275 C1277 1.415 . S
C1276 C1275 1.355 . S
C1276 C1278 1.419 . S
C1277 C1272 1.425 . S
C1277 C1274 1.409 . S
C1277 C1275 1.415 . S
C1278 H1268 0.930 . S
C1278 C1276 1.419 . S
C1278 C1279 1.362 . S
C1279 H1269 0.930 . S
C1279 C1272 1.409 . S
C1279 C1278 1.362 . S
H1280 C1286 0.930 . S
H1281 C1289 0.930 . S
H1282 C1290 0.930 . S
H1283 C1291 0.930 . S
H1284 C1294 0.930 . S
H1285 C1295 0.930 . S
C1286 H1280 0.930 . S
C1286 C1287 1.355 . S
C1286 C1288 1.415 . S
C1287 C1286 1.355 . S
C1287 C1289 1.419 . S
C1288 C1286 1.415 . S
C1288 C1293 1.425 . S
C1288 C1295 1.409 . S
C1289 H1281 0.930 . S
C1289 C1287 1.419 . S
C1289 C1290 1.362 . S
C1290 H1282 0.930 . S
C1290 C1289 1.362 . S
C1290 C1293 1.409 . S
C1291 H1283 0.930 . S
C1291 C1292 1.355 . S
C1291 C1293 1.415 . S
C1292 C1291 1.355 . S
C1292 C1294 1.419 . S
C1293 C1288 1.425 . S
C1293 C1290 1.409 . S
C1293 C1291 1.415 . S
C1294 H1284 0.930 . S
C1294 C1292 1.419 . S
C1294 C1295 1.362 . S
C1295 H1285 0.930 . S
C1295 C1288 1.409 . S
C1295 C1294 1.362 . S
H1296 C1302 0.930 . S
H1297 C1305 0.930 . S
H1298 C1306 0.930 . S
H1299 C1307 0.930 . S
H1300 C1310 0.930 . S
H1301 C1311 0.930 . S
C1302 H1296 0.930 . S
C1302 C1303 1.355 . S
C1302 C1304 1.415 . S
C1303 C1302 1.355 . S
C1303 C1305 1.419 . S
C1304 C1302 1.415 . S
C1304 C1309 1.425 . S
C1304 C1311 1.409 . S
C1305 H1297 0.930 . S
C1305 C1303 1.419 . S
C1305 C1306 1.362 . S
C1306 H1298 0.930 . S
C1306 C1305 1.362 . S
C1306 C1309 1.409 . S
C1307 H1299 0.930 . S
C1307 C1308 1.355 . S
C1307 C1309 1.415 . S
C1308 C1307 1.355 . S
C1308 C1310 1.419 . S
C1309 C1304 1.425 . S
C1309 C1306 1.409 . S
C1309 C1307 1.415 . S
C1310 H1300 0.930 . S
C1310 C1308 1.419 . S
C1310 C1311 1.362 . S
C1311 H1301 0.930 . S
C1311 C1304 1.409 . S
C1311 C1310 1.362 . S
H1312 C1318 0.930 . S
H1313 C1321 0.930 . S
H1314 C1322 0.930 . S
H1315 C1323 0.930 . S
H1316 C1326 0.930 . S
H1317 C1327 0.930 . S
C1318 H1312 0.930 . S
C1318 C1319 1.355 . S
C1318 C1320 1.415 . S
C1319 C1318 1.355 . S
C1319 C1321 1.419 . S
C1320 C1318 1.415 . S
C1320 C1325 1.425 . S
C1320 C1327 1.409 . S
C1321 H1313 0.930 . S
C1321 C1319 1.419 . S
C1321 C1322 1.362 . S
C1322 H1314 0.930 . S
C1322 C1321 1.362 . S
C1322 C1325 1.409 . S
C1323 H1315 0.930 . S
C1323 C1324 1.355 . S
C1323 C1325 1.415 . S
C1324 C1323 1.355 . S
C1324 C1326 1.419 . S
C1325 C1320 1.425 . S
C1325 C1322 1.409 . S
C1325 C1323 1.415 . S
C1326 H1316 0.930 . S
C1326 C1324 1.419 . S
C1326 C1327 1.362 . S
C1327 H1317 0.930 . S
C1327 C1320 1.409 . S
C1327 C1326 1.362 . S
H1328 C1334 0.930 . S
H1329 C1337 0.930 . S
H1330 C1338 0.930 . S
H1331 C1339 0.930 . S
H1332 C1342 0.930 . S
H1333 C1343 0.930 . S
C1334 H1328 0.930 . S
C1334 C1335 1.355 . S
C1334 C1336 1.415 . S
C1335 C1334 1.355 . S
C1335 C1337 1.419 . S
C1336 C1334 1.415 . S
C1336 C1341 1.425 . S
C1336 C1343 1.409 . S
C1337 H1329 0.930 . S
C1337 C1335 1.419 . S
C1337 C1338 1.362 . S
C1338 H1330 0.930 . S
C1338 C1337 1.362 . S
C1338 C1341 1.409 . S
C1339 H1331 0.930 . S
C1339 C1340 1.355 . S
C1339 C1341 1.415 . S
C1340 C1339 1.355 . S
C1340 C1342 1.419 . S
C1341 C1336 1.425 . S
C1341 C1338 1.409 . S
C1341 C1339 1.415 . S
C1342 H1332 0.930 . S
C1342 C1340 1.419 . S
C1342 C1343 1.362 . S
C1343 H1333 0.930 . S
C1343 C1336 1.409 . S
C1343 C1342 1.362 . S
H1344 C1350 0.930 . S
H1345 C1353 0.930 . S
H1346 C1354 0.930 . S
H1347 C1355 0.930 . S
H1348 C1358 0.930 . S
H1349 C1359 0.930 . S
C1350 H1344 0.930 . S
C1350 C1351 1.355 . S
C1350 C1352 1.415 . S
C1351 C1350 1.355 . S
C1351 C1353 1.419 . S
C1352 C1350 1.415 . S
C1352 C1357 1.425 1_565 S
C1352 C1359 1.409 1_565 S
C1353 H1345 0.930 . S
C1353 C1351 1.419 . S
C1353 C1354 1.362 . S
C1354 H1346 0.930 . S
C1354 C1353 1.362 . S
C1354 C1357 1.409 1_565 S
C1355 H1347 0.930 . S
C1355 C1356 1.355 . S
C1355 C1357 1.415 . S
C1356 C1355 1.355 . S
C1356 C1358 1.419 . S
C1357 C1352 1.425 1_545 S
C1357 C1354 1.409 1_545 S
C1357 C1355 1.415 . S
C1358 H1348 0.930 . S
C1358 C1356 1.419 . S
C1358 C1359 1.362 . S
C1359 H1349 0.930 . S
C1359 C1352 1.409 1_545 S
C1359 C1358 1.362 . S
H1360 C1366 0.930 1_655 S
H1361 C1369 0.928 1_554 S
H1362 C1370 0.930 . S
H1363 C1371 0.930 1_455 S
H1364 C1374 0.928 1_556 S
H1365 C1375 0.930 . S
C1366 H1360 0.930 1_455 S
C1366 C1367 1.355 . S
C1366 C1368 1.415 1_455 S
C1367 C1366 1.355 . S
C1367 C1369 1.419 . S
C1368 C1366 1.415 1_655 S
C1368 C1373 1.425 1_666 S
C1368 C1375 1.409 . S
C1369 H1361 0.928 1_556 S
C1369 C1367 1.419 . S
C1369 C1370 1.362 1_566 S
C1370 H1362 0.930 . S
C1370 C1369 1.362 1_544 S
C1370 C1373 1.409 . S
C1371 H1363 0.930 1_655 S
C1371 C1372 1.355 . S
C1371 C1373 1.415 1_655 S
C1372 C1371 1.355 . S
C1372 C1374 1.419 . S
C1373 C1368 1.425 1_444 S
C1373 C1370 1.409 . S
C1373 C1371 1.415 1_455 S
C1374 H1364 0.928 1_554 S
C1374 C1372 1.419 . S
C1374 C1375 1.362 1_544 S
C1375 H1365 0.930 . S
C1375 C1368 1.409 . S
C1375 C1374 1.362 1_566 S
H1376 C1382 0.930 . S
H1377 C1385 0.945 . S
H1378 C1386 0.931 . S
H1379 C1387 0.930 . S
H1380 C1390 0.945 . S
H1381 C1391 0.931 . S
C1382 H1376 0.930 . S
C1382 C1383 1.355 . S
C1382 C1384 1.415 . S
C1383 C1382 1.355 . S
C1383 C1385 1.371 1_556 S
C1384 C1382 1.415 . S
C1384 C1389 1.425 1_546 S
C1384 C1391 1.409 . S
C1385 H1377 0.945 . S
C1385 C1383 1.371 1_554 S
C1385 C1386 1.398 1_545 S
C1386 H1378 0.931 . S
C1386 C1385 1.398 1_565 S
C1386 C1389 1.409 . S
C1387 H1379 0.930 . S
C1387 C1388 1.355 . S
C1387 C1389 1.415 . S
C1388 C1387 1.355 . S
C1388 C1390 1.371 1_554 S
C1389 C1384 1.425 1_564 S
C1389 C1386 1.409 . S
C1389 C1387 1.415 . S
C1390 H1380 0.945 . S
C1390 C1388 1.371 1_556 S
C1390 C1391 1.398 1_565 S
C1391 H1381 0.931 . S
C1391 C1384 1.409 . S
C1391 C1390 1.398 1_545 S
H1392 C1398 0.930 1_565 S
H1393 C1401 0.930 . S
H1394 C1402 0.930 . S
H1395 C1403 0.930 1_545 S
H1396 C1406 0.930 . S
H1397 C1407 0.930 . S
C1398 H1392 0.930 1_545 S
C1398 C1399 1.355 . S
C1398 C1400 1.415 1_545 S
C1399 C1398 1.355 . S
C1399 C1401 1.419 . S
C1400 C1398 1.415 1_565 S
C1400 C1405 1.425 1_465 S
C1400 C1407 1.409 . S
C1401 H1393 0.930 . S
C1401 C1399 1.419 . S
C1401 C1402 1.362 1_455 S
C1402 H1394 0.930 . S
C1402 C1401 1.362 1_655 S
C1402 C1405 1.409 . S
C1403 H1395 0.930 1_565 S
C1403 C1404 1.355 . S
C1403 C1405 1.415 1_565 S
C1404 C1403 1.355 . S
C1404 C1406 1.419 . S
C1405 C1400 1.425 1_645 S
C1405 C1402 1.409 . S
C1405 C1403 1.415 1_545 S
C1406 H1396 0.930 . S
C1406 C1404 1.419 . S
C1406 C1407 1.362 1_655 S
C1407 H1397 0.930 . S
C1407 C1400 1.409 . S
C1407 C1406 1.362 1_455 S
H1408 C1414 0.930 1_455 S
H1409 C1417 0.930 . S
H1410 C1418 0.930 . S
H1411 C1419 0.930 1_655 S
H1412 C1422 0.930 . S
H1413 C1423 0.930 . S
C1414 H1408 0.930 1_655 S
C1414 C1415 1.355 . S
C1414 C1416 1.415 1_655 S
C1415 C1414 1.355 . S
C1415 C1417 1.419 . S
C1416 C1414 1.415 1_455 S
C1416 C1421 1.425 1_455 S
C1416 C1423 1.409 . S
C1417 H1409 0.930 . S
C1417 C1415 1.419 . S
C1417 C1418 1.362 . S
C1418 H1410 0.930 . S
C1418 C1417 1.362 . S
C1418 C1421 1.409 . S
C1419 H1411 0.930 1_455 S
C1419 C1420 1.355 . S
C1419 C1421 1.415 1_455 S
C1420 C1419 1.355 . S
C1420 C1422 1.419 . S
C1421 C1416 1.425 1_655 S
C1421 C1418 1.409 . S
C1421 C1419 1.415 1_655 S
C1422 H1412 0.930 . S
C1422 C1420 1.419 . S
C1422 C1423 1.362 . S
C1423 H1413 0.930 . S
C1423 C1416 1.409 . S
C1423 C1422 1.362 . S
H1424 C1430 0.930 . S
H1425 C1433 0.930 . S
H1426 C1434 0.930 . S
H1427 C1435 0.930 . S
H1428 C1438 0.930 . S
H1429 C1439 0.930 . S
C1430 H1424 0.930 . S
C1430 C1431 1.355 . S
C1430 C1432 1.415 . S
C1431 C1430 1.355 . S
C1431 C1433 1.419 . S
C1432 C1430 1.415 . S
C1432 C1437 1.425 1_455 S
C1432 C1439 1.409 1_455 S
C1433 H1425 0.930 . S
C1433 C1431 1.419 . S
C1433 C1434 1.362 . S
C1434 H1426 0.930 . S
C1434 C1433 1.362 . S
C1434 C1437 1.409 1_455 S
C1435 H1427 0.930 . S
C1435 C1436 1.355 . S
C1435 C1437 1.415 . S
C1436 C1435 1.355 . S
C1436 C1438 1.419 . S
C1437 C1432 1.425 1_655 S
C1437 C1434 1.409 1_655 S
C1437 C1435 1.415 . S
C1438 H1428 0.930 . S
C1438 C1436 1.419 . S
C1438 C1439 1.362 . S
C1439 H1429 0.930 . S
C1439 C1432 1.409 1_655 S
C1439 C1438 1.362 . S
H1440 C1446 0.930 . S
H1441 C1449 0.930 . S
H1442 C1450 0.930 . S
H1443 C1451 0.930 . S
H1444 C1454 0.930 . S
H1445 C1455 0.930 . S
C1446 H1440 0.930 . S
C1446 C1447 1.355 . S
C1446 C1448 1.415 . S
C1447 C1446 1.355 . S
C1447 C1449 1.419 . S
C1448 C1446 1.415 . S
C1448 C1453 1.425 . S
C1448 C1455 1.409 . S
C1449 H1441 0.930 . S
C1449 C1447 1.419 . S
C1449 C1450 1.362 . S
C1450 H1442 0.930 . S
C1450 C1449 1.362 . S
C1450 C1453 1.409 . S
C1451 H1443 0.930 . S
C1451 C1452 1.355 . S
C1451 C1453 1.415 . S
C1452 C1451 1.355 . S
C1452 C1454 1.419 . S
C1453 C1448 1.425 . S
C1453 C1450 1.409 . S
C1453 C1451 1.415 . S
C1454 H1444 0.930 . S
C1454 C1452 1.419 . S
C1454 C1455 1.362 . S
C1455 H1445 0.930 . S
C1455 C1448 1.409 . S
C1455 C1454 1.362 . S
H1456 C1462 0.930 . S
H1457 C1465 0.930 . S
H1458 C1466 0.930 . S
H1459 C1467 0.930 . S
H1460 C1470 0.930 . S
H1461 C1471 0.930 . S
C1462 H1456 0.930 . S
C1462 C1463 1.355 . S
C1462 C1464 1.415 . S
C1463 C1462 1.355 . S
C1463 C1465 1.419 . S
C1464 C1462 1.415 . S
C1464 C1469 1.425 . S
C1464 C1471 1.409 . S
C1465 H1457 0.930 . S
C1465 C1463 1.419 . S
C1465 C1466 1.362 . S
C1466 H1458 0.930 . S
C1466 C1465 1.362 . S
C1466 C1469 1.409 . S
C1467 H1459 0.930 . S
C1467 C1468 1.355 . S
C1467 C1469 1.415 . S
C1468 C1467 1.355 . S
C1468 C1470 1.419 . S
C1469 C1464 1.425 . S
C1469 C1466 1.409 . S
C1469 C1467 1.415 . S
C1470 H1460 0.930 . S
C1470 C1468 1.419 . S
C1470 C1471 1.362 . S
C1471 H1461 0.930 . S
C1471 C1464 1.409 . S
C1471 C1470 1.362 . S
H1472 C1478 0.930 . S
H1473 C1481 0.930 . S
H1474 C1482 0.930 . S
H1475 C1483 0.930 . S
H1476 C1486 0.930 . S
H1477 C1487 0.930 . S
C1478 H1472 0.930 . S
C1478 C1479 1.355 . S
C1478 C1480 1.415 . S
C1479 C1478 1.355 . S
C1479 C1481 1.419 . S
C1480 C1478 1.415 . S
C1480 C1485 1.425 1_655 S
C1480 C1487 1.409 . S
C1481 H1473 0.930 . S
C1481 C1479 1.419 . S
C1481 C1482 1.362 1_655 S
C1482 H1474 0.930 . S
C1482 C1481 1.362 1_455 S
C1482 C1485 1.409 . S
C1483 H1475 0.930 . S
C1483 C1484 1.355 . S
C1483 C1485 1.415 . S
C1484 C1483 1.355 . S
C1484 C1486 1.419 . S
C1485 C1480 1.425 1_455 S
C1485 C1482 1.409 . S
C1485 C1483 1.415 . S
C1486 H1476 0.930 . S
C1486 C1484 1.419 . S
C1486 C1487 1.362 1_455 S
C1487 H1477 0.930 . S
C1487 C1480 1.409 . S
C1487 C1486 1.362 1_655 S
H1488 C1494 0.930 . S
H1489 C1497 0.930 . S
H1490 C1498 0.930 . S
H1491 C1499 0.930 . S
H1492 C1502 0.930 . S
H1493 C1503 0.930 . S
C1494 H1488 0.930 . S
C1494 C1495 1.355 . S
C1494 C1496 1.415 . S
C1495 C1494 1.355 . S
C1495 C1497 1.419 . S
C1496 C1494 1.415 . S
C1496 C1501 1.425 . S
C1496 C1503 1.409 . S
C1497 H1489 0.930 . S
C1497 C1495 1.419 . S
C1497 C1498 1.362 . S
C1498 H1490 0.930 . S
C1498 C1497 1.362 . S
C1498 C1501 1.409 . S
C1499 H1491 0.930 . S
C1499 C1500 1.355 . S
C1499 C1501 1.415 . S
C1500 C1499 1.355 . S
C1500 C1502 1.419 . S
C1501 C1496 1.425 . S
C1501 C1498 1.409 . S
C1501 C1499 1.415 . S
C1502 H1492 0.930 . S
C1502 C1500 1.419 . S
C1502 C1503 1.362 . S
C1503 H1493 0.930 . S
C1503 C1496 1.409 . S
C1503 C1502 1.362 . S
H1504 C1510 0.930 . S
H1505 C1513 0.930 . S
H1506 C1514 0.930 . S
H1507 C1515 0.930 . S
H1508 C1518 0.930 . S
H1509 C1519 0.930 . S
C1510 H1504 0.930 . S
C1510 C1511 1.355 . S
C1510 C1512 1.415 . S
C1511 C1510 1.355 . S
C1511 C1513 1.419 . S
C1512 C1510 1.415 . S
C1512 C1517 1.425 . S
C1512 C1519 1.409 . S
C1513 H1505 0.930 . S
C1513 C1511 1.419 . S
C1513 C1514 1.362 . S
C1514 H1506 0.930 . S
C1514 C1513 1.362 . S
C1514 C1517 1.409 . S
C1515 H1507 0.930 . S
C1515 C1516 1.355 . S
C1515 C1517 1.415 . S
C1516 C1515 1.355 . S
C1516 C1518 1.419 . S
C1517 C1512 1.425 . S
C1517 C1514 1.409 . S
C1517 C1515 1.415 . S
C1518 H1508 0.930 . S
C1518 C1516 1.419 . S
C1518 C1519 1.362 . S
C1519 H1509 0.930 . S
C1519 C1512 1.409 . S
C1519 C1518 1.362 . S
H1520 C1526 0.930 . S
H1521 C1529 0.930 . S
H1522 C1530 0.930 . S
H1523 C1531 0.930 . S
H1524 C1534 0.930 . S
H1525 C1535 0.930 . S
C1526 H1520 0.930 . S
C1526 C1527 1.355 . S
C1526 C1528 1.415 . S
C1527 C1526 1.355 . S
C1527 C1529 1.419 . S
C1528 C1526 1.415 . S
C1528 C1533 1.425 1_455 S
C1528 C1535 1.409 1_455 S
C1529 H1521 0.930 . S
C1529 C1527 1.419 . S
C1529 C1530 1.362 . S
C1530 H1522 0.930 . S
C1530 C1529 1.362 . S
C1530 C1533 1.409 1_455 S
C1531 H1523 0.930 . S
C1531 C1532 1.355 . S
C1531 C1533 1.415 . S
C1532 C1531 1.355 . S
C1532 C1534 1.419 . S
C1533 C1528 1.425 1_655 S
C1533 C1530 1.409 1_655 S
C1533 C1531 1.415 . S
C1534 H1524 0.930 . S
C1534 C1532 1.419 . S
C1534 C1535 1.362 . S
C1535 H1525 0.930 . S
C1535 C1528 1.409 1_655 S
C1535 C1534 1.362 . S
H1536 C1542 0.930 1_455 S
H1537 C1545 0.930 . S
H1538 C1546 0.930 . S
H1539 C1547 0.930 1_655 S
H1540 C1550 0.930 . S
H1541 C1551 0.930 . S
C1542 H1536 0.930 1_655 S
C1542 C1543 1.355 . S
C1542 C1544 1.415 1_655 S
C1543 C1542 1.355 . S
C1543 C1545 1.419 . S
C1544 C1542 1.415 1_455 S
C1544 C1549 1.425 1_455 S
C1544 C1551 1.409 . S
C1545 H1537 0.930 . S
C1545 C1543 1.419 . S
C1545 C1546 1.362 . S
C1546 H1538 0.930 . S
C1546 C1545 1.362 . S
C1546 C1549 1.409 . S
C1547 H1539 0.930 1_455 S
C1547 C1548 1.355 . S
C1547 C1549 1.415 1_455 S
C1548 C1547 1.355 . S
C1548 C1550 1.419 . S
C1549 C1544 1.425 1_655 S
C1549 C1546 1.409 . S
C1549 C1547 1.415 1_655 S
C1550 H1540 0.930 . S
C1550 C1548 1.419 . S
C1550 C1551 1.362 . S
C1551 H1541 0.930 . S
C1551 C1544 1.409 . S
C1551 C1550 1.362 . S
H1552 C1558 0.930 . S
H1553 C1561 0.930 . S
H1554 C1562 0.930 . S
H1555 C1563 0.930 . S
H1556 C1566 0.930 . S
H1557 C1567 0.930 . S
C1558 H1552 0.930 . S
C1558 C1559 1.355 . S
C1558 C1560 1.415 . S
C1559 C1558 1.355 . S
C1559 C1561 1.419 . S
C1560 C1558 1.415 . S
C1560 C1565 1.425 1_655 S
C1560 C1567 1.409 . S
C1561 H1553 0.930 . S
C1561 C1559 1.419 . S
C1561 C1562 1.362 1_655 S
C1562 H1554 0.930 . S
C1562 C1561 1.362 1_455 S
C1562 C1565 1.409 . S
C1563 H1555 0.930 . S
C1563 C1564 1.355 . S
C1563 C1565 1.415 . S
C1564 C1563 1.355 . S
C1564 C1566 1.419 . S
C1565 C1560 1.425 1_455 S
C1565 C1562 1.409 . S
C1565 C1563 1.415 . S
C1566 H1556 0.930 . S
C1566 C1564 1.419 . S
C1566 C1567 1.362 1_455 S
C1567 H1557 0.930 . S
C1567 C1560 1.409 . S
C1567 C1566 1.362 1_655 S
H1568 C1574 0.930 . S
H1569 C1577 0.930 . S
H1570 C1578 0.930 . S
H1571 C1579 0.930 . S
H1572 C1582 0.930 . S
H1573 C1583 0.930 . S
C1574 H1568 0.930 . S
C1574 C1575 1.355 . S
C1574 C1576 1.415 . S
C1575 C1574 1.355 . S
C1575 C1577 1.419 . S
C1576 C1574 1.415 . S
C1576 C1581 1.425 . S
C1576 C1583 1.409 . S
C1577 H1569 0.930 . S
C1577 C1575 1.419 . S
C1577 C1578 1.362 . S
C1578 H1570 0.930 . S
C1578 C1577 1.362 . S
C1578 C1581 1.409 . S
C1579 H1571 0.930 . S
C1579 C1580 1.355 . S
C1579 C1581 1.415 . S
C1580 C1579 1.355 . S
C1580 C1582 1.419 . S
C1581 C1576 1.425 . S
C1581 C1578 1.409 . S
C1581 C1579 1.415 . S
C1582 H1572 0.930 . S
C1582 C1580 1.419 . S
C1582 C1583 1.362 . S
C1583 H1573 0.930 . S
C1583 C1576 1.409 . S
C1583 C1582 1.362 . S
H1584 C1590 0.930 . S
H1585 C1593 0.930 . S
H1586 C1594 0.930 . S
H1587 C1595 0.930 . S
H1588 C1598 0.930 . S
H1589 C1599 0.930 . S
C1590 H1584 0.930 . S
C1590 C1591 1.355 . S
C1590 C1592 1.415 . S
C1591 C1590 1.355 . S
C1591 C1593 1.419 . S
C1592 C1590 1.415 . S
C1592 C1597 1.425 . S
C1592 C1599 1.409 . S
C1593 H1585 0.930 . S
C1593 C1591 1.419 . S
C1593 C1594 1.362 . S
C1594 H1586 0.930 . S
C1594 C1593 1.362 . S
C1594 C1597 1.409 . S
C1595 H1587 0.930 . S
C1595 C1596 1.355 . S
C1595 C1597 1.415 . S
C1596 C1595 1.355 . S
C1596 C1598 1.419 . S
C1597 C1592 1.425 . S
C1597 C1594 1.409 . S
C1597 C1595 1.415 . S
C1598 H1588 0.930 . S
C1598 C1596 1.419 . S
C1598 C1599 1.362 . S
C1599 H1589 0.930 . S
C1599 C1592 1.409 . S
C1599 C1598 1.362 . S
H1600 C1606 0.930 . S
H1601 C1609 0.930 1_455 S
H1602 C1610 0.930 . S
H1603 C1611 0.930 . S
H1604 C1614 0.930 1_655 S
H1605 C1615 0.930 . S
C1606 H1600 0.930 . S
C1606 C1607 1.355 . S
C1606 C1608 1.415 . S
C1607 C1606 1.355 . S
C1607 C1609 1.419 . S
C1608 C1606 1.415 . S
C1608 C1613 1.425 1_655 S
C1608 C1615 1.409 . S
C1609 H1601 0.930 1_655 S
C1609 C1607 1.419 . S
C1609 C1610 1.362 1_655 S
C1610 H1602 0.930 . S
C1610 C1609 1.362 1_455 S
C1610 C1613 1.409 . S
C1611 H1603 0.930 . S
C1611 C1612 1.355 . S
C1611 C1613 1.415 . S
C1612 C1611 1.355 . S
C1612 C1614 1.419 . S
C1613 C1608 1.425 1_455 S
C1613 C1610 1.409 . S
C1613 C1611 1.415 . S
C1614 H1604 0.930 1_455 S
C1614 C1612 1.419 . S
C1614 C1615 1.362 1_455 S
C1615 H1605 0.930 . S
C1615 C1608 1.409 . S
C1615 C1614 1.362 1_655 S
H1616 C1622 0.930 . S
H1617 C1625 0.930 . S
H1618 C1626 0.930 . S
H1619 C1627 0.930 . S
H1620 C1630 0.930 . S
H1621 C1631 0.930 . S
C1622 H1616 0.930 . S
C1622 C1623 1.355 . S
C1622 C1624 1.415 . S
C1623 C1622 1.355 . S
C1623 C1625 1.419 . S
C1624 C1622 1.415 . S
C1624 C1629 1.425 . S
C1624 C1631 1.409 . S
C1625 H1617 0.930 . S
C1625 C1623 1.419 . S
C1625 C1626 1.362 . S
C1626 H1618 0.930 . S
C1626 C1625 1.362 . S
C1626 C1629 1.409 . S
C1627 H1619 0.930 . S
C1627 C1628 1.355 . S
C1627 C1629 1.415 . S
C1628 C1627 1.355 . S
C1628 C1630 1.419 . S
C1629 C1624 1.425 . S
C1629 C1626 1.409 . S
C1629 C1627 1.415 . S
C1630 H1620 0.930 . S
C1630 C1628 1.419 . S
C1630 C1631 1.362 . S
C1631 H1621 0.930 . S
C1631 C1624 1.409 . S
C1631 C1630 1.362 . S
H1632 C1638 0.930 . S
H1633 C1641 0.930 . S
H1634 C1642 0.930 . S
H1635 C1643 0.930 . S
H1636 C1646 0.930 . S
H1637 C1647 0.930 . S
C1638 H1632 0.930 . S
C1638 C1639 1.355 . S
C1638 C1640 1.415 . S
C1639 C1638 1.355 . S
C1639 C1641 1.419 . S
C1640 C1638 1.415 . S
C1640 C1645 1.425 . S
C1640 C1647 1.409 . S
C1641 H1633 0.930 . S
C1641 C1639 1.419 . S
C1641 C1642 1.362 . S
C1642 H1634 0.930 . S
C1642 C1641 1.362 . S
C1642 C1645 1.409 . S
C1643 H1635 0.930 . S
C1643 C1644 1.355 . S
C1643 C1645 1.415 . S
C1644 C1643 1.355 . S
C1644 C1646 1.419 . S
C1645 C1640 1.425 . S
C1645 C1642 1.409 . S
C1645 C1643 1.415 . S
C1646 H1636 0.930 . S
C1646 C1644 1.419 . S
C1646 C1647 1.362 . S
C1647 H1637 0.930 . S
C1647 C1640 1.409 . S
C1647 C1646 1.362 . S
H1648 C1654 0.930 . S
H1649 C1657 0.930 . S
H1650 C1658 0.930 . S
H1651 C1659 0.930 . S
H1652 C1662 0.930 . S
H1653 C1663 0.930 . S
C1654 H1648 0.930 . S
C1654 C1655 1.355 . S
C1654 C1656 1.415 . S
C1655 C1654 1.355 . S
C1655 C1657 1.419 . S
C1656 C1654 1.415 . S
C1656 C1661 1.425 1_655 S
C1656 C1663 1.409 . S
C1657 H1649 0.930 . S
C1657 C1655 1.419 . S
C1657 C1658 1.362 1_655 S
C1658 H1650 0.930 . S
C1658 C1657 1.362 1_455 S
C1658 C1661 1.409 . S
C1659 H1651 0.930 . S
C1659 C1660 1.355 . S
C1659 C1661 1.415 . S
C1660 C1659 1.355 . S
C1660 C1662 1.419 . S
C1661 C1656 1.425 1_455 S
C1661 C1658 1.409 . S
C1661 C1659 1.415 . S
C1662 H1652 0.930 . S
C1662 C1660 1.419 . S
C1662 C1663 1.362 1_455 S
C1663 H1653 0.930 . S
C1663 C1656 1.409 . S
C1663 C1662 1.362 1_655 S
H1664 C1670 0.930 1_554 S
H1665 C1673 0.930 . S
H1666 C1674 0.930 . S
H1667 C1675 0.930 1_556 S
H1668 C1678 0.930 . S
H1669 C1679 0.930 . S
C1670 H1664 0.930 1_556 S
C1670 C1671 1.355 . S
C1670 C1672 1.415 1_556 S
C1671 C1670 1.355 . S
C1671 C1673 1.419 . S
C1672 C1670 1.415 1_554 S
C1672 C1677 1.425 1_554 S
C1672 C1679 1.409 . S
C1673 H1665 0.930 . S
C1673 C1671 1.419 . S
C1673 C1674 1.362 . S
C1674 H1666 0.930 . S
C1674 C1673 1.362 . S
C1674 C1677 1.409 . S
C1675 H1667 0.930 1_554 S
C1675 C1676 1.355 . S
C1675 C1677 1.415 1_554 S
C1676 C1675 1.355 . S
C1676 C1678 1.419 . S
C1677 C1672 1.425 1_556 S
C1677 C1674 1.409 . S
C1677 C1675 1.415 1_556 S
C1678 H1668 0.930 . S
C1678 C1676 1.419 . S
C1678 C1679 1.362 . S
C1679 H1669 0.930 . S
C1679 C1672 1.409 . S
C1679 C1678 1.362 . S
H1680 C1686 0.930 . S
H1681 C1689 0.930 . S
H1682 C1690 0.930 . S
H1683 C1691 0.930 . S
H1684 C1694 0.930 . S
H1685 C1695 0.930 . S
C1686 H1680 0.930 . S
C1686 C1687 1.355 . S
C1686 C1688 1.415 1_545 S
C1687 C1686 1.355 . S
C1687 C1689 1.419 . S
C1688 C1686 1.415 1_565 S
C1688 C1693 1.425 1_565 S
C1688 C1695 1.409 . S
C1689 H1681 0.930 . S
C1689 C1687 1.419 . S
C1689 C1690 1.362 . S
C1690 H1682 0.930 . S
C1690 C1689 1.362 . S
C1690 C1693 1.409 . S
C1691 H1683 0.930 . S
C1691 C1692 1.355 . S
C1691 C1693 1.415 1_565 S
C1692 C1691 1.355 . S
C1692 C1694 1.419 . S
C1693 C1688 1.425 1_545 S
C1693 C1690 1.409 . S
C1693 C1691 1.415 1_545 S
C1694 H1684 0.930 . S
C1694 C1692 1.419 . S
C1694 C1695 1.362 . S
C1695 H1685 0.930 . S
C1695 C1688 1.409 . S
C1695 C1694 1.362 . S
H1696 C1702 0.930 . S
H1697 C1705 0.930 . S
H1698 C1706 0.930 . S
H1699 C1707 0.930 . S
H1700 C1710 0.930 . S
H1701 C1711 0.930 . S
C1702 H1696 0.930 . S
C1702 C1703 1.355 . S
C1702 C1704 1.415 . S
C1703 C1702 1.355 . S
C1703 C1705 1.419 . S
C1704 C1702 1.415 . S
C1704 C1709 1.425 . S
C1704 C1711 1.409 . S
C1705 H1697 0.930 . S
C1705 C1703 1.419 . S
C1705 C1706 1.362 . S
C1706 H1698 0.930 . S
C1706 C1705 1.362 . S
C1706 C1709 1.409 . S
C1707 H1699 0.930 . S
C1707 C1708 1.355 . S
C1707 C1709 1.415 . S
C1708 C1707 1.355 . S
C1708 C1710 1.419 . S
C1709 C1704 1.425 . S
C1709 C1706 1.409 . S
C1709 C1707 1.415 . S
C1710 H1700 0.930 . S
C1710 C1708 1.419 . S
C1710 C1711 1.362 . S
C1711 H1701 0.930 . S
C1711 C1704 1.409 . S
C1711 C1710 1.362 . S
H1712 C1718 0.930 . S
H1713 C1721 0.930 . S
H1714 C1722 0.930 . S
H1715 C1723 0.930 . S
H1716 C1726 0.930 . S
H1717 C1727 0.930 . S
C1718 H1712 0.930 . S
C1718 C1719 1.355 . S
C1718 C1720 1.415 . S
C1719 C1718 1.355 . S
C1719 C1721 1.419 . S
C1720 C1718 1.415 . S
C1720 C1725 1.425 1_545 S
C1720 C1727 1.409 . S
C1721 H1713 0.930 . S
C1721 C1719 1.419 . S
C1721 C1722 1.362 1_545 S
C1722 H1714 0.930 . S
C1722 C1721 1.362 1_565 S
C1722 C1725 1.409 . S
C1723 H1715 0.930 . S
C1723 C1724 1.355 . S
C1723 C1725 1.415 . S
C1724 C1723 1.355 . S
C1724 C1726 1.419 . S
C1725 C1720 1.425 1_565 S
C1725 C1722 1.409 . S
C1725 C1723 1.415 . S
C1726 H1716 0.930 . S
C1726 C1724 1.419 . S
C1726 C1727 1.362 1_565 S
C1727 H1717 0.930 . S
C1727 C1720 1.409 . S
C1727 C1726 1.362 1_545 S
H1728 C1734 0.930 . S
H1729 C1737 0.930 . S
H1730 C1738 0.930 . S
H1731 C1739 0.930 . S
H1732 C1742 0.930 . S
H1733 C1743 0.930 . S
C1734 H1728 0.930 . S
C1734 C1735 1.355 . S
C1734 C1736 1.415 . S
C1735 C1734 1.355 . S
C1735 C1737 1.419 . S
C1736 C1734 1.415 . S
C1736 C1741 1.425 1_554 S
C1736 C1743 1.409 . S
C1737 H1729 0.930 . S
C1737 C1735 1.419 . S
C1737 C1738 1.362 1_554 S
C1738 H1730 0.930 . S
C1738 C1737 1.362 1_556 S
C1738 C1741 1.409 . S
C1739 H1731 0.930 . S
C1739 C1740 1.355 . S
C1739 C1741 1.415 . S
C1740 C1739 1.355 . S
C1740 C1742 1.419 . S
C1741 C1736 1.425 1_556 S
C1741 C1738 1.409 . S
C1741 C1739 1.415 . S
C1742 H1732 0.930 . S
C1742 C1740 1.419 . S
C1742 C1743 1.362 1_556 S
C1743 H1733 0.930 . S
C1743 C1736 1.409 . S
C1743 C1742 1.362 1_554 S
H1744 C1750 0.930 . S
H1745 C1753 0.930 . S
H1746 C1754 0.930 1_545 S
H1747 C1755 0.930 . S
H1748 C1758 0.930 . S
H1749 C1759 0.930 1_565 S
C1750 H1744 0.930 . S
C1750 C1751 1.355 . S
C1750 C1752 1.415 . S
C1751 C1750 1.355 . S
C1751 C1753 1.419 . S
C1752 C1750 1.415 . S
C1752 C1757 1.425 1_565 S
C1752 C1759 1.409 1_565 S
C1753 H1745 0.930 . S
C1753 C1751 1.419 . S
C1753 C1754 1.362 . S
C1754 H1746 0.930 1_565 S
C1754 C1753 1.362 . S
C1754 C1757 1.409 1_565 S
C1755 H1747 0.930 . S
C1755 C1756 1.355 . S
C1755 C1757 1.415 . S
C1756 C1755 1.355 . S
C1756 C1758 1.419 . S
C1757 C1752 1.425 1_545 S
C1757 C1754 1.409 1_545 S
C1757 C1755 1.415 . S
C1758 H1748 0.930 . S
C1758 C1756 1.419 . S
C1758 C1759 1.362 . S
C1759 H1749 0.930 1_545 S
C1759 C1752 1.409 1_545 S
C1759 C1758 1.362 . S
H1760 C1766 0.930 . S
H1761 C1769 0.930 . S
H1762 C1770 0.930 . S
H1763 C1771 0.930 . S
H1764 C1774 0.930 . S
H1765 C1775 0.930 . S
C1766 H1760 0.930 . S
C1766 C1767 1.355 . S
C1766 C1768 1.415 . S
C1767 C1766 1.355 . S
C1767 C1769 1.419 . S
C1768 C1766 1.415 . S
C1768 C1773 1.425 . S
C1768 C1775 1.409 . S
C1769 H1761 0.930 . S
C1769 C1767 1.419 . S
C1769 C1770 1.362 . S
C1770 H1762 0.930 . S
C1770 C1769 1.362 . S
C1770 C1773 1.409 . S
C1771 H1763 0.930 . S
C1771 C1772 1.355 . S
C1771 C1773 1.415 . S
C1772 C1771 1.355 . S
C1772 C1774 1.419 . S
C1773 C1768 1.425 . S
C1773 C1770 1.409 . S
C1773 C1771 1.415 . S
C1774 H1764 0.930 . S
C1774 C1772 1.419 . S
C1774 C1775 1.362 . S
C1775 H1765 0.930 . S
C1775 C1768 1.409 . S
C1775 C1774 1.362 . S
H1776 C1782 0.930 . S
H1777 C1785 0.930 . S
H1778 C1786 0.930 . S
H1779 C1787 0.930 . S
H1780 C1790 0.930 . S
H1781 C1791 0.930 . S
C1782 H1776 0.930 . S
C1782 C1783 1.355 . S
C1782 C1784 1.415 . S
C1783 C1782 1.355 . S
C1783 C1785 1.419 . S
C1784 C1782 1.415 . S
C1784 C1789 1.425 1_545 S
C1784 C1791 1.409 1_545 S
C1785 H1777 0.930 . S
C1785 C1783 1.419 . S
C1785 C1786 1.362 . S
C1786 H1778 0.930 . S
C1786 C1785 1.362 . S
C1786 C1789 1.409 1_545 S
C1787 H1779 0.930 . S
C1787 C1788 1.355 . S
C1787 C1789 1.415 . S
C1788 C1787 1.355 . S
C1788 C1790 1.419 . S
C1789 C1784 1.425 1_565 S
C1789 C1786 1.409 1_565 S
C1789 C1787 1.415 . S
C1790 H1780 0.930 . S
C1790 C1788 1.419 . S
C1790 C1791 1.362 . S
C1791 H1781 0.930 . S
C1791 C1784 1.409 1_565 S
C1791 C1790 1.362 . S
H1792 C1798 0.930 . S
H1793 C1801 0.930 . S
H1794 C1802 0.930 . S
H1795 C1803 0.930 . S
H1796 C1806 0.930 . S
H1797 C1807 0.930 . S
C1798 H1792 0.930 . S
C1798 C1799 1.355 . S
C1798 C1800 1.415 . S
C1799 C1798 1.355 . S
C1799 C1801 1.419 . S
C1800 C1798 1.415 . S
C1800 C1805 1.425 . S
C1800 C1807 1.409 . S
C1801 H1793 0.930 . S
C1801 C1799 1.419 . S
C1801 C1802 1.362 . S
C1802 H1794 0.930 . S
C1802 C1801 1.362 . S
C1802 C1805 1.409 . S
C1803 H1795 0.930 . S
C1803 C1804 1.355 . S
C1803 C1805 1.415 . S
C1804 C1803 1.355 . S
C1804 C1806 1.419 . S
C1805 C1800 1.425 . S
C1805 C1802 1.409 . S
C1805 C1803 1.415 . S
C1806 H1796 0.930 . S
C1806 C1804 1.419 . S
C1806 C1807 1.362 . S
C1807 H1797 0.930 . S
C1807 C1800 1.409 . S
C1807 C1806 1.362 . S
H1808 C1814 0.930 . S
H1809 C1817 0.930 . S
H1810 C1818 0.930 . S
H1811 C1819 0.930 . S
H1812 C1822 0.930 . S
H1813 C1823 0.930 . S
C1814 H1808 0.930 . S
C1814 C1815 1.355 . S
C1814 C1816 1.415 . S
C1815 C1814 1.355 . S
C1815 C1817 1.419 . S
C1816 C1814 1.415 . S
C1816 C1821 1.425 . S
C1816 C1823 1.409 . S
C1817 H1809 0.930 . S
C1817 C1815 1.419 . S
C1817 C1818 1.362 . S
C1818 H1810 0.930 . S
C1818 C1817 1.362 . S
C1818 C1821 1.409 . S
C1819 H1811 0.930 . S
C1819 C1820 1.355 . S
C1819 C1821 1.415 . S
C1820 C1819 1.355 . S
C1820 C1822 1.419 . S
C1821 C1816 1.425 . S
C1821 C1818 1.409 . S
C1821 C1819 1.415 . S
C1822 H1812 0.930 . S
C1822 C1820 1.419 . S
C1822 C1823 1.362 . S
C1823 H1813 0.930 . S
C1823 C1816 1.409 . S
C1823 C1822 1.362 . S
H1824 C1830 0.930 1_556 S
H1825 C1833 0.930 . S
H1826 C1834 0.930 . S
H1827 C1835 0.930 1_554 S
H1828 C1838 0.930 . S
H1829 C1839 0.930 . S
C1830 H1824 0.930 1_554 S
C1830 C1831 1.355 . S
C1830 C1832 1.415 1_554 S
C1831 C1830 1.355 . S
C1831 C1833 1.419 . S
C1832 C1830 1.415 1_556 S
C1832 C1837 1.425 1_556 S
C1832 C1839 1.409 . S
C1833 H1825 0.930 . S
C1833 C1831 1.419 . S
C1833 C1834 1.362 . S
C1834 H1826 0.930 . S
C1834 C1833 1.362 . S
C1834 C1837 1.409 . S
C1835 H1827 0.930 1_556 S
C1835 C1836 1.355 . S
C1835 C1837 1.415 1_556 S
C1836 C1835 1.355 . S
C1836 C1838 1.419 . S
C1837 C1832 1.425 1_554 S
C1837 C1834 1.409 . S
C1837 C1835 1.415 1_554 S
C1838 H1828 0.930 . S
C1838 C1836 1.419 . S
C1838 C1839 1.362 . S
C1839 H1829 0.930 . S
C1839 C1832 1.409 . S
C1839 C1838 1.362 . S
H1840 C1846 0.930 . S
H1841 C1849 0.930 . S
H1842 C1850 0.930 . S
H1843 C1851 0.930 . S
H1844 C1854 0.930 . S
H1845 C1855 0.930 . S
C1846 H1840 0.930 . S
C1846 C1847 1.355 . S
C1846 C1848 1.415 . S
C1847 C1846 1.355 . S
C1847 C1849 1.419 . S
C1848 C1846 1.415 . S
C1848 C1853 1.425 . S
C1848 C1855 1.409 . S
C1849 H1841 0.930 . S
C1849 C1847 1.419 . S
C1849 C1850 1.362 . S
C1850 H1842 0.930 . S
C1850 C1849 1.362 . S
C1850 C1853 1.409 . S
C1851 H1843 0.930 . S
C1851 C1852 1.355 . S
C1851 C1853 1.415 . S
C1852 C1851 1.355 . S
C1852 C1854 1.419 . S
C1853 C1848 1.425 . S
C1853 C1850 1.409 . S
C1853 C1851 1.415 . S
C1854 H1844 0.930 . S
C1854 C1852 1.419 . S
C1854 C1855 1.362 . S
C1855 H1845 0.930 . S
C1855 C1848 1.409 . S
C1855 C1854 1.362 . S
H1856 C1862 0.930 . S
H1857 C1865 0.930 . S
H1858 C1866 0.930 . S
H1859 C1867 0.930 . S
H1860 C1870 0.930 . S
H1861 C1871 0.930 . S
C1862 H1856 0.930 . S
C1862 C1863 1.355 . S
C1862 C1864 1.415 . S
C1863 C1862 1.355 . S
C1863 C1865 1.419 . S
C1864 C1862 1.415 . S
C1864 C1869 1.425 . S
C1864 C1871 1.409 . S
C1865 H1857 0.930 . S
C1865 C1863 1.419 . S
C1865 C1866 1.362 . S
C1866 H1858 0.930 . S
C1866 C1865 1.362 . S
C1866 C1869 1.409 . S
C1867 H1859 0.930 . S
C1867 C1868 1.355 . S
C1867 C1869 1.415 . S
C1868 C1867 1.355 . S
C1868 C1870 1.419 . S
C1869 C1864 1.425 . S
C1869 C1866 1.409 . S
C1869 C1867 1.415 . S
C1870 H1860 0.930 . S
C1870 C1868 1.419 . S
C1870 C1871 1.362 . S
C1871 H1861 0.930 . S
C1871 C1864 1.409 . S
C1871 C1870 1.362 . S
H1872 C1878 0.930 . S
H1873 C1881 0.930 . S
H1874 C1882 0.930 . S
H1875 C1883 0.930 . S
H1876 C1886 0.930 . S
H1877 C1887 0.930 . S
C1878 H1872 0.930 . S
C1878 C1879 1.355 . S
C1878 C1880 1.415 . S
C1879 C1878 1.355 . S
C1879 C1881 1.419 . S
C1880 C1878 1.415 . S
C1880 C1885 1.425 . S
C1880 C1887 1.409 . S
C1881 H1873 0.930 . S
C1881 C1879 1.419 . S
C1881 C1882 1.362 . S
C1882 H1874 0.930 . S
C1882 C1881 1.362 . S
C1882 C1885 1.409 . S
C1883 H1875 0.930 . S
C1883 C1884 1.355 . S
C1883 C1885 1.415 . S
C1884 C1883 1.355 . S
C1884 C1886 1.419 . S
C1885 C1880 1.425 . S
C1885 C1882 1.409 . S
C1885 C1883 1.415 . S
C1886 H1876 0.930 . S
C1886 C1884 1.419 . S
C1886 C1887 1.362 . S
C1887 H1877 0.930 . S
C1887 C1880 1.409 . S
C1887 C1886 1.362 . S
H1888 C1894 0.930 . S
H1889 C1897 0.930 . S
H1890 C1898 0.930 . S
H1891 C1899 0.930 . S
H1892 C1902 0.930 . S
H1893 C1903 0.930 . S
C1894 H1888 0.930 . S
C1894 C1895 1.355 . S
C1894 C1896 1.415 . S
C1895 C1894 1.355 . S
C1895 C1897 1.419 . S
C1896 C1894 1.415 . S
C1896 C1901 1.425 1_556 S
C1896 C1903 1.409 . S
C1897 H1889 0.930 . S
C1897 C1895 1.419 . S
C1897 C1898 1.362 1_556 S
C1898 H1890 0.930 . S
C1898 C1897 1.362 1_554 S
C1898 C1901 1.409 . S
C1899 H1891 0.930 . S
C1899 C1900 1.355 . S
C1899 C1901 1.415 . S
C1900 C1899 1.355 . S
C1900 C1902 1.419 . S
C1901 C1896 1.425 1_554 S
C1901 C1898 1.409 . S
C1901 C1899 1.415 . S
C1902 H1892 0.930 . S
C1902 C1900 1.419 . S
C1902 C1903 1.362 1_554 S
C1903 H1893 0.930 . S
C1903 C1896 1.409 . S
C1903 C1902 1.362 1_556 S
H1904 C1910 0.930 . S
H1905 C1913 0.930 . S
H1906 C1914 0.930 . S
H1907 C1915 0.930 . S
H1908 C1918 0.930 . S
H1909 C1919 0.930 . S
C1910 H1904 0.930 . S
C1910 C1911 1.355 . S
C1910 C1912 1.415 . S
C1911 C1910 1.355 . S
C1911 C1913 1.419 . S
C1912 C1910 1.415 . S
C1912 C1917 1.425 . S
C1912 C1919 1.409 . S
C1913 H1905 0.930 . S
C1913 C1911 1.419 . S
C1913 C1914 1.362 . S
C1914 H1906 0.930 . S
C1914 C1913 1.362 . S
C1914 C1917 1.409 . S
C1915 H1907 0.930 . S
C1915 C1916 1.355 . S
C1915 C1917 1.415 . S
C1916 C1915 1.355 . S
C1916 C1918 1.419 . S
C1917 C1912 1.425 . S
C1917 C1914 1.409 . S
C1917 C1915 1.415 . S
C1918 H1908 0.930 . S
C1918 C1916 1.419 . S
C1918 C1919 1.362 . S
C1919 H1909 0.930 . S
C1919 C1912 1.409 . S
C1919 C1918 1.362 . S
H1920 C1926 0.930 . S
H1921 C1929 0.930 . S
H1922 C1930 0.930 . S
H1923 C1931 0.930 . S
H1924 C1934 0.930 . S
H1925 C1935 0.930 . S
C1926 H1920 0.930 . S
C1926 C1927 1.355 . S
C1926 C1928 1.415 . S
C1927 C1926 1.355 . S
C1927 C1929 1.419 . S
C1928 C1926 1.415 . S
C1928 C1933 1.425 . S
C1928 C1935 1.409 . S
C1929 H1921 0.930 . S
C1929 C1927 1.419 . S
C1929 C1930 1.362 . S
C1930 H1922 0.930 . S
C1930 C1929 1.362 . S
C1930 C1933 1.409 . S
C1931 H1923 0.930 . S
C1931 C1932 1.355 . S
C1931 C1933 1.415 . S
C1932 C1931 1.355 . S
C1932 C1934 1.419 . S
C1933 C1928 1.425 . S
C1933 C1930 1.409 . S
C1933 C1931 1.415 . S
C1934 H1924 0.930 . S
C1934 C1932 1.419 . S
C1934 C1935 1.362 . S
C1935 H1925 0.930 . S
C1935 C1928 1.409 . S
C1935 C1934 1.362 . S
H1936 C1942 0.930 . S
H1937 C1945 0.930 . S
H1938 C1946 0.930 . S
H1939 C1947 0.930 . S
H1940 C1950 0.930 . S
H1941 C1951 0.930 . S
C1942 H1936 0.930 . S
C1942 C1943 1.355 . S
C1942 C1944 1.415 . S
C1943 C1942 1.355 . S
C1943 C1945 1.419 . S
C1944 C1942 1.415 . S
C1944 C1949 1.425 . S
C1944 C1951 1.409 . S
C1945 H1937 0.930 . S
C1945 C1943 1.419 . S
C1945 C1946 1.362 . S
C1946 H1938 0.930 . S
C1946 C1945 1.362 . S
C1946 C1949 1.409 . S
C1947 H1939 0.930 . S
C1947 C1948 1.355 . S
C1947 C1949 1.415 . S
C1948 C1947 1.355 . S
C1948 C1950 1.419 . S
C1949 C1944 1.425 . S
C1949 C1946 1.409 . S
C1949 C1947 1.415 . S
C1950 H1940 0.930 . S
C1950 C1948 1.419 . S
C1950 C1951 1.362 . S
C1951 H1941 0.930 . S
C1951 C1944 1.409 . S
C1951 C1950 1.362 . S
H1952 C1958 0.930 . S
H1953 C1961 0.930 . S
H1954 C1962 0.930 . S
H1955 C1963 0.930 . S
H1956 C1966 0.930 . S
H1957 C1967 0.930 . S
C1958 H1952 0.930 . S
C1958 C1959 1.355 . S
C1958 C1960 1.415 . S
C1959 C1958 1.355 . S
C1959 C1961 1.419 . S
C1960 C1958 1.415 . S
C1960 C1965 1.425 . S
C1960 C1967 1.409 . S
C1961 H1953 0.930 . S
C1961 C1959 1.419 . S
C1961 C1962 1.362 . S
C1962 H1954 0.930 . S
C1962 C1961 1.362 . S
C1962 C1965 1.409 . S
C1963 H1955 0.930 . S
C1963 C1964 1.355 . S
C1963 C1965 1.415 . S
C1964 C1963 1.355 . S
C1964 C1966 1.419 . S
C1965 C1960 1.425 . S
C1965 C1962 1.409 . S
C1965 C1963 1.415 . S
C1966 H1956 0.930 . S
C1966 C1964 1.419 . S
C1966 C1967 1.362 . S
C1967 H1957 0.930 . S
C1967 C1960 1.409 . S
C1967 C1966 1.362 . S
H1968 C1974 0.930 . S
H1969 C1977 0.930 . S
H1970 C1978 0.930 . S
H1971 C1979 0.930 . S
H1972 C1982 0.930 . S
H1973 C1983 0.930 . S
C1974 H1968 0.930 . S
C1974 C1975 1.355 . S
C1974 C1976 1.415 . S
C1975 C1974 1.355 . S
C1975 C1977 1.419 . S
C1976 C1974 1.415 . S
C1976 C1981 1.425 . S
C1976 C1983 1.409 . S
C1977 H1969 0.930 . S
C1977 C1975 1.419 . S
C1977 C1978 1.362 . S
C1978 H1970 0.930 . S
C1978 C1977 1.362 . S
C1978 C1981 1.409 . S
C1979 H1971 0.930 . S
C1979 C1980 1.355 . S
C1979 C1981 1.415 . S
C1980 C1979 1.355 . S
C1980 C1982 1.419 . S
C1981 C1976 1.425 . S
C1981 C1978 1.409 . S
C1981 C1979 1.415 . S
C1982 H1972 0.930 . S
C1982 C1980 1.419 . S
C1982 C1983 1.362 . S
C1983 H1973 0.930 . S
C1983 C1976 1.409 . S
C1983 C1982 1.362 . S
H1984 C1990 0.930 . S
H1985 C1993 0.930 . S
H1986 C1994 0.930 . S
H1987 C1995 0.930 . S
H1988 C1998 0.930 . S
H1989 C1999 0.930 . S
C1990 H1984 0.930 . S
C1990 C1991 1.355 . S
C1990 C1992 1.415 . S
C1991 C1990 1.355 . S
C1991 C1993 1.419 . S
C1992 C1990 1.415 . S
C1992 C1997 1.425 . S
C1992 C1999 1.409 . S
C1993 H1985 0.930 . S
C1993 C1991 1.419 . S
C1993 C1994 1.362 . S
C1994 H1986 0.930 . S
C1994 C1993 1.362 . S
C1994 C1997 1.409 . S
C1995 H1987 0.930 . S
C1995 C1996 1.355 . S
C1995 C1997 1.415 . S
C1996 C1995 1.355 . S
C1996 C1998 1.419 . S
C1997 C1992 1.425 . S
C1997 C1994 1.409 . S
C1997 C1995 1.415 . S
C1998 H1988 0.930 . S
C1998 C1996 1.419 . S
C1998 C1999 1.362 . S
C1999 H1989 0.930 . S
C1999 C1992 1.409 . S
C1999 C1998 1.362 . S
H2000 C2006 0.930 . S
H2001 C2009 0.930 . S
H2002 C2010 0.930 . S
H2003 C2011 0.930 . S
H2004 C2014 0.930 . S
H2005 C2015 0.930 . S
C2006 H2000 0.930 . S
C2006 C2007 1.355 . S
C2006 C2008 1.415 . S
C2007 C2006 1.355 . S
C2007 C2009 1.419 . S
C2008 C2006 1.415 . S
C2008 C2013 1.425 . S
C2008 C2015 1.409 . S
C2009 H2001 0.930 . S
C2009 C2007 1.419 . S
C2009 C2010 1.362 . S
C2010 H2002 0.930 . S
C2010 C2009 1.362 . S
C2010 C2013 1.409 . S
C2011 H2003 0.930 . S
C2011 C2012 1.355 . S
C2011 C2013 1.415 . S
C2012 C2011 1.355 . S
C2012 C2014 1.419 . S
C2013 C2008 1.425 . S
C2013 C2010 1.409 . S
C2013 C2011 1.415 . S
C2014 H2004 0.930 . S
C2014 C2012 1.419 . S
C2014 C2015 1.362 . S
C2015 H2005 0.930 . S
C2015 C2008 1.409 . S
C2015 C2014 1.362 . S
H2016 C2022 0.930 . S
H2017 C2025 0.930 . S
H2018 C2026 0.930 . S
H2019 C2027 0.930 . S
H2020 C2030 0.930 . S
H2021 C2031 0.930 . S
C2022 H2016 0.930 . S
C2022 C2023 1.355 . S
C2022 C2024 1.415 . S
C2023 C2022 1.355 . S
C2023 C2025 1.419 . S
C2024 C2022 1.415 . S
C2024 C2029 1.425 . S
C2024 C2031 1.409 . S
C2025 H2017 0.930 . S
C2025 C2023 1.419 . S
C2025 C2026 1.362 . S
C2026 H2018 0.930 . S
C2026 C2025 1.362 . S
C2026 C2029 1.409 . S
C2027 H2019 0.930 . S
C2027 C2028 1.355 . S
C2027 C2029 1.415 . S
C2028 C2027 1.355 . S
C2028 C2030 1.419 . S
C2029 C2024 1.425 . S
C2029 C2026 1.409 . S
C2029 C2027 1.415 . S
C2030 H2020 0.930 . S
C2030 C2028 1.419 . S
C2030 C2031 1.362 . S
C2031 H2021 0.930 . S
C2031 C2024 1.409 . S
C2031 C2030 1.362 . S
H2032 C2038 0.930 . S
H2033 C2041 0.930 . S
H2034 C2042 0.930 . S
H2035 C2043 0.930 . S
H2036 C2046 0.930 . S
H2037 C2047 0.930 . S
C2038 H2032 0.930 . S
C2038 C2039 1.355 . S
C2038 C2040 1.415 . S
C2039 C2038 1.355 . S
C2039 C2041 1.419 . S
C2040 C2038 1.415 . S
C2040 C2045 1.425 . S
C2040 C2047 1.409 . S
C2041 H2033 0.930 . S
C2041 C2039 1.419 . S
C2041 C2042 1.362 . S
C2042 H2034 0.930 . S
C2042 C2041 1.362 . S
C2042 C2045 1.409 . S
C2043 H2035 0.930 . S
C2043 C2044 1.355 . S
C2043 C2045 1.415 . S
C2044 C2043 1.355 . S
C2044 C2046 1.419 . S
C2045 C2040 1.425 . S
C2045 C2042 1.409 . S
C2045 C2043 1.415 . S
C2046 H2036 0.930 . S
C2046 C2044 1.419 . S
C2046 C2047 1.362 . S
C2047 H2037 0.930 . S
C2047 C2040 1.409 . S
C2047 C2046 1.362 . S
H2048 C2054 0.930 . S
H2049 C2057 0.930 . S
H2050 C2058 0.930 . S
H2051 C2059 0.930 . S
H2052 C2062 0.930 . S
H2053 C2063 0.930 . S
C2054 H2048 0.930 . S
C2054 C2055 1.355 . S
C2054 C2056 1.415 . S
C2055 C2054 1.355 . S
C2055 C2057 1.419 . S
C2056 C2054 1.415 . S
C2056 C2061 1.425 . S
C2056 C2063 1.409 . S
C2057 H2049 0.930 . S
C2057 C2055 1.419 . S
C2057 C2058 1.362 . S
C2058 H2050 0.930 . S
C2058 C2057 1.362 . S
C2058 C2061 1.409 . S
C2059 H2051 0.930 . S
C2059 C2060 1.355 . S
C2059 C2061 1.415 . S
C2060 C2059 1.355 . S
C2060 C2062 1.419 . S
C2061 C2056 1.425 . S
C2061 C2058 1.409 . S
C2061 C2059 1.415 . S
C2062 H2052 0.930 . S
C2062 C2060 1.419 . S
C2062 C2063 1.362 . S
C2063 H2053 0.930 . S
C2063 C2056 1.409 . S
C2063 C2062 1.362 . S
H2064 C2070 0.930 . S
H2065 C2073 0.930 . S
H2066 C2074 0.930 . S
H2067 C2075 0.930 . S
H2068 C2078 0.930 . S
H2069 C2079 0.930 . S
C2070 H2064 0.930 . S
C2070 C2071 1.355 . S
C2070 C2072 1.415 . S
C2071 C2070 1.355 . S
C2071 C2073 1.419 . S
C2072 C2070 1.415 . S
C2072 C2077 1.425 . S
C2072 C2079 1.409 . S
C2073 H2065 0.930 . S
C2073 C2071 1.419 . S
C2073 C2074 1.362 . S
C2074 H2066 0.930 . S
C2074 C2073 1.362 . S
C2074 C2077 1.409 . S
C2075 H2067 0.930 . S
C2075 C2076 1.355 . S
C2075 C2077 1.415 . S
C2076 C2075 1.355 . S
C2076 C2078 1.419 . S
C2077 C2072 1.425 . S
C2077 C2074 1.409 . S
C2077 C2075 1.415 . S
C2078 H2068 0.930 . S
C2078 C2076 1.419 . S
C2078 C2079 1.362 . S
C2079 H2069 0.930 . S
C2079 C2072 1.409 . S
C2079 C2078 1.362 . S
H2080 C2086 0.930 . S
H2081 C2089 0.930 . S
H2082 C2090 0.930 . S
H2083 C2091 0.930 . S
H2084 C2094 0.930 . S
H2085 C2095 0.930 . S
C2086 H2080 0.930 . S
C2086 C2087 1.355 . S
C2086 C2088 1.415 . S
C2087 C2086 1.355 . S
C2087 C2089 1.419 . S
C2088 C2086 1.415 . S
C2088 C2093 1.425 . S
C2088 C2095 1.409 . S
C2089 H2081 0.930 . S
C2089 C2087 1.419 . S
C2089 C2090 1.362 . S
C2090 H2082 0.930 . S
C2090 C2089 1.362 . S
C2090 C2093 1.409 . S
C2091 H2083 0.930 . S
C2091 C2092 1.355 . S
C2091 C2093 1.415 . S
C2092 C2091 1.355 . S
C2092 C2094 1.419 . S
C2093 C2088 1.425 . S
C2093 C2090 1.409 . S
C2093 C2091 1.415 . S
C2094 H2084 0.930 . S
C2094 C2092 1.419 . S
C2094 C2095 1.362 . S
C2095 H2085 0.930 . S
C2095 C2088 1.409 . S
C2095 C2094 1.362 . S
H2096 C2102 0.930 . S
H2097 C2105 0.930 . S
H2098 C2106 0.930 . S
H2099 C2107 0.930 . S
H2100 C2110 0.930 . S
H2101 C2111 0.930 . S
C2102 H2096 0.930 . S
C2102 C2103 1.355 . S
C2102 C2104 1.415 . S
C2103 C2102 1.355 . S
C2103 C2105 1.419 . S
C2104 C2102 1.415 . S
C2104 C2109 1.425 . S
C2104 C2111 1.409 . S
C2105 H2097 0.930 . S
C2105 C2103 1.419 . S
C2105 C2106 1.362 . S
C2106 H2098 0.930 . S
C2106 C2105 1.362 . S
C2106 C2109 1.409 . S
C2107 H2099 0.930 . S
C2107 C2108 1.355 . S
C2107 C2109 1.415 . S
C2108 C2107 1.355 . S
C2108 C2110 1.419 . S
C2109 C2104 1.425 . S
C2109 C2106 1.409 . S
C2109 C2107 1.415 . S
C2110 H2100 0.930 . S
C2110 C2108 1.419 . S
C2110 C2111 1.362 . S
C2111 H2101 0.930 . S
C2111 C2104 1.409 . S
C2111 C2110 1.362 . S
H2112 C2118 0.930 . S
H2113 C2121 0.930 . S
H2114 C2122 0.930 . S
H2115 C2123 0.930 . S
H2116 C2126 0.930 . S
H2117 C2127 0.930 . S
C2118 H2112 0.930 . S
C2118 C2119 1.355 . S
C2118 C2120 1.415 . S
C2119 C2118 1.355 . S
C2119 C2121 1.419 . S
C2120 C2118 1.415 . S
C2120 C2125 1.425 . S
C2120 C2127 1.409 . S
C2121 H2113 0.930 . S
C2121 C2119 1.419 . S
C2121 C2122 1.362 . S
C2122 H2114 0.930 . S
C2122 C2121 1.362 . S
C2122 C2125 1.409 . S
C2123 H2115 0.930 . S
C2123 C2124 1.355 . S
C2123 C2125 1.415 . S
C2124 C2123 1.355 . S
C2124 C2126 1.419 . S
C2125 C2120 1.425 . S
C2125 C2122 1.409 . S
C2125 C2123 1.415 . S
C2126 H2116 0.930 . S
C2126 C2124 1.419 . S
C2126 C2127 1.362 . S
C2127 H2117 0.930 . S
C2127 C2120 1.409 . S
C2127 C2126 1.362 . S
H2128 C2134 0.930 . S
H2129 C2137 0.930 . S
H2130 C2138 0.930 . S
H2131 C2139 0.930 . S
H2132 C2142 0.930 . S
H2133 C2143 0.930 . S
C2134 H2128 0.930 . S
C2134 C2135 1.355 . S
C2134 C2136 1.415 . S
C2135 C2134 1.355 . S
C2135 C2137 1.419 . S
C2136 C2134 1.415 . S
C2136 C2141 1.425 . S
C2136 C2143 1.409 . S
C2137 H2129 0.930 . S
C2137 C2135 1.419 . S
C2137 C2138 1.362 . S
C2138 H2130 0.930 . S
C2138 C2137 1.362 . S
C2138 C2141 1.409 . S
C2139 H2131 0.930 . S
C2139 C2140 1.355 . S
C2139 C2141 1.415 . S
C2140 C2139 1.355 . S
C2140 C2142 1.419 . S
C2141 C2136 1.425 . S
C2141 C2138 1.409 . S
C2141 C2139 1.415 . S
C2142 H2132 0.930 . S
C2142 C2140 1.419 . S
C2142 C2143 1.362 . S
C2143 H2133 0.930 . S
C2143 C2136 1.409 . S
C2143 C2142 1.362 . S
H2144 C2150 0.930 . S
H2145 C2153 0.930 . S
H2146 C2154 0.930 . S
H2147 C2155 0.930 . S
H2148 C2158 0.930 . S
H2149 C2159 0.930 . S
C2150 H2144 0.930 . S
C2150 C2151 1.355 . S
C2150 C2152 1.415 . S
C2151 C2150 1.355 . S
C2151 C2153 1.419 . S
C2152 C2150 1.415 . S
C2152 C2157 1.425 . S
C2152 C2159 1.409 . S
C2153 H2145 0.930 . S
C2153 C2151 1.419 . S
C2153 C2154 1.362 . S
C2154 H2146 0.930 . S
C2154 C2153 1.362 . S
C2154 C2157 1.409 . S
C2155 H2147 0.930 . S
C2155 C2156 1.355 . S
C2155 C2157 1.415 . S
C2156 C2155 1.355 . S
C2156 C2158 1.419 . S
C2157 C2152 1.425 . S
C2157 C2154 1.409 . S
C2157 C2155 1.415 . S
C2158 H2148 0.930 . S
C2158 C2156 1.419 . S
C2158 C2159 1.362 . S
C2159 H2149 0.930 . S
C2159 C2152 1.409 . S
C2159 C2158 1.362 . S
H2160 C2166 0.930 . S
H2161 C2169 0.930 . S
H2162 C2170 0.930 . S
H2163 C2171 0.930 . S
H2164 C2174 0.930 . S
H2165 C2175 0.930 . S
C2166 H2160 0.930 . S
C2166 C2167 1.355 . S
C2166 C2168 1.415 . S
C2167 C2166 1.355 . S
C2167 C2169 1.419 . S
C2168 C2166 1.415 . S
C2168 C2173 1.425 . S
C2168 C2175 1.409 . S
C2169 H2161 0.930 . S
C2169 C2167 1.419 . S
C2169 C2170 1.362 . S
C2170 H2162 0.930 . S
C2170 C2169 1.362 . S
C2170 C2173 1.409 . S
C2171 H2163 0.930 . S
C2171 C2172 1.355 . S
C2171 C2173 1.415 . S
C2172 C2171 1.355 . S
C2172 C2174 1.419 . S
C2173 C2168 1.425 . S
C2173 C2170 1.409 . S
C2173 C2171 1.415 . S
C2174 H2164 0.930 . S
C2174 C2172 1.419 . S
C2174 C2175 1.362 . S
C2175 H2165 0.930 . S
C2175 C2168 1.409 . S
C2175 C2174 1.362 . S
C1159 C292 1.326 . S
C1164 C4 1.326 . S
C1175 C904 1.359 . S
C1180 C40 1.359 . S
C1191 C364 1.352 . S
C1196 C76 1.352 . S
C1207 C976 1.358 . S
C1212 C112 1.358 . S
C1223 C436 1.326 . S
C1228 C148 1.326 . S
C1239 C184 1.330 . S
C1244 C1048 1.330 . S
C1255 C220 1.357 . S
C1260 C508 1.357 . S
C1271 C256 1.328 . S
C1276 C1120 1.328 . S
C1287 C616 1.340 . S
C1292 C328 1.340 . S
C1303 C688 1.334 . S
C1308 C400 1.334 . S
C1319 C472 1.331 . S
C1324 C760 1.331 . S
C1335 C544 1.343 . S
C1340 C832 1.343 . S
C1351 C580 1.343 . S
C1356 C868 1.343 . S
C1367 C940 1.357 . S
C1372 C652 1.357 . S
C1383 C724 1.346 . S
C1388 C1012 1.346 . S
C1399 C1084 1.329 . S
C1404 C796 1.329 . S
C1415 C650 1.502 . S
C1420 C2 1.513 . S
C1431 C686 1.511 . S
C1436 C38 1.486 . S
C1447 C74 1.501 . S
C1452 C578 1.480 . S
C1463 C110 1.508 . S
C1468 C614 1.484 . S
C1479 C794 1.481 . S
C1484 C146 1.491 . S
C1495 C182 1.494 . S
C1500 C830 1.480 . S
C1511 C722 1.500 . S
C1516 C218 1.480 . S
C1527 C758 1.483 . S
C1532 C254 1.508 . S
C1543 C290 1.513 . S
C1548 C938 1.501 . S
C1559 C974 1.509 . S
C1564 C326 1.509 . S
C1575 C362 1.482 . S
C1580 C866 1.489 . S
C1591 C398 1.514 . S
C1596 C902 1.495 . S
C1607 C434 1.480 . S
C1612 C1082 1.495 . S
C1623 C470 1.481 . S
C1628 C1118 1.503 . S
C1639 C1010 1.480 . S
C1644 C506 1.495 . S
C1655 C1046 1.514 . S
C1660 C542 1.499 . S
C1671 C230 1.589 . S
C1676 C14 1.589 . S
C1687 C266 1.519 . S
C1692 C50 1.516 . S
C1703 C158 1.586 . S
C1708 C86 1.588 . S
C1719 C122 1.581 . S
C1724 C194 1.586 . S
C1735 C518 1.531 . S
C1740 C302 1.525 . S
C1751 C554 1.579 . S
C1756 C338 1.584 . S
C1767 C446 1.516 . S
C1772 C374 1.517 . S
C1783 C482 1.548 . S
C1788 C410 1.557 . S
C1799 C806 1.550 . S
C1804 C590 1.559 . S
C1815 C842 1.522 . S
C1820 C626 1.528 . S
C1831 C662 1.588 . S
C1836 C734 1.586 . S
C1847 C698 1.589 . S
C1852 C770 1.588 . S
C1863 C1094 1.573 . S
C1868 C878 1.565 . S
C1879 C1130 1.550 . S
C1884 C914 1.541 . S
C1895 C950 1.526 . S
C1900 C1022 1.520 . S
C1911 C986 1.540 . S
C1916 C1058 1.532 . S
C1927 C3 1.473 . S
C1932 C759 1.469 . S
C1943 C795 1.470 . S
C1948 C39 1.461 . S
C1959 C831 1.464 . S
C1964 C75 1.471 . S
C1975 C111 1.463 . S
C1980 C723 1.455 . S
C1991 C687 1.462 . S
C1996 C147 1.455 . S
C2007 C183 1.471 . S
C2012 C579 1.472 . S
C2023 C615 1.456 . S
C2028 C219 1.465 . S
C2039 C255 1.465 . S
C2044 C651 1.457 . S
C2055 C1047 1.454 . S
C2060 C291 1.456 . S
C2071 C1083 1.473 . S
C2076 C327 1.467 . S
C2087 C363 1.472 . S
C2092 C1119 1.464 . S
C2103 C1011 1.465 . S
C2108 C399 1.457 . S
C2119 C975 1.473 . S
C2124 C435 1.470 . S
C2135 C471 1.466 . S
C2140 C867 1.458 . S
C2151 C903 1.472 . S
C2156 C507 1.465 . S
C2167 C543 1.457 . S
C2172 C939 1.454 . S
