# Generated by pormake.
# Topology wiv, (6)-cn, num edge types: 1
# Building blocks:
#     Node 0, Type 0, BuildingBlock: BETDAH_clean_sbu_0, # of connection points: 6
#     Node 1, Type 0, BuildingBlock: BETDAH_clean_sbu_0, # of connection points: 6
#     Node 2, Type 0, BuildingBlock: BETDAH_clean_sbu_0, # of connection points: 6
#     Node 3, Type 0, BuildingBlock: BETDAH_clean_sbu_0, # of connection points: 6
#     Node 4, Type 0, BuildingBlock: BETDAH_clean_sbu_0, # of connection points: 6
#     Node 5, Type 0, BuildingBlock: BETDAH_clean_sbu_0, # of connection points: 6
#     Node 6, Type 0, BuildingBlock: BETDAH_clean_sbu_0, # of connection points: 6
#     Node 7, Type 0, BuildingBlock: BETDAH_clean_sbu_0, # of connection points: 6
#     Node 8, Type 0, BuildingBlock: BETDAH_clean_sbu_0, # of connection points: 6
#     Node 9, Type 0, BuildingBlock: BETDAH_clean_sbu_0, # of connection points: 6
#     Node 10, Type 0, BuildingBlock: BETDAH_clean_sbu_0, # of connection points: 6
#     Node 11, Type 0, BuildingBlock: BETDAH_clean_sbu_0, # of connection points: 6
#     Node 12, Type 0, BuildingBlock: BETDAH_clean_sbu_0, # of connection points: 6
#     Node 13, Type 0, BuildingBlock: BETDAH_clean_sbu_0, # of connection points: 6
#     Node 14, Type 0, BuildingBlock: BETDAH_clean_sbu_0, # of connection points: 6
#     Node 15, Type 0, BuildingBlock: BETDAH_clean_sbu_0, # of connection points: 6
#     Edge 16, Type (0, 0), BuildingBlock: XUDNAN_clean_linker_2, # of connection points: 2
#     Edge 17, Type (0, 0), BuildingBlock: XUDNAN_clean_linker_2, # of connection points: 2
#     Edge 18, Type (0, 0), BuildingBlock: XUDNAN_clean_linker_2, # of connection points: 2
#     Edge 19, Type (0, 0), BuildingBlock: XUDNAN_clean_linker_2, # of connection points: 2
#     Edge 20, Type (0, 0), BuildingBlock: XUDNAN_clean_linker_2, # of connection points: 2
#     Edge 21, Type (0, 0), BuildingBlock: XUDNAN_clean_linker_2, # of connection points: 2
#     Edge 22, Type (0, 0), BuildingBlock: XUDNAN_clean_linker_2, # of connection points: 2
#     Edge 23, Type (0, 0), BuildingBlock: XUDNAN_clean_linker_2, # of connection points: 2
#     Edge 24, Type (0, 0), BuildingBlock: XUDNAN_clean_linker_2, # of connection points: 2
#     Edge 25, Type (0, 0), BuildingBlock: XUDNAN_clean_linker_2, # of connection points: 2
#     Edge 26, Type (0, 0), BuildingBlock: XUDNAN_clean_linker_2, # of connection points: 2
#     Edge 27, Type (0, 0), BuildingBlock: XUDNAN_clean_linker_2, # of connection points: 2
#     Edge 28, Type (0, 0), BuildingBlock: XUDNAN_clean_linker_2, # of connection points: 2
#     Edge 29, Type (0, 0), BuildingBlock: XUDNAN_clean_linker_2, # of connection points: 2
#     Edge 30, Type (0, 0), BuildingBlock: XUDNAN_clean_linker_2, # of connection points: 2
#     Edge 31, Type (0, 0), BuildingBlock: XUDNAN_clean_linker_2, # of connection points: 2
#     Edge 32, Type (0, 0), BuildingBlock: XUDNAN_clean_linker_2, # of connection points: 2
#     Edge 33, Type (0, 0), BuildingBlock: XUDNAN_clean_linker_2, # of connection points: 2
#     Edge 34, Type (0, 0), BuildingBlock: XUDNAN_clean_linker_2, # of connection points: 2
#     Edge 35, Type (0, 0), BuildingBlock: XUDNAN_clean_linker_2, # of connection points: 2
#     Edge 36, Type (0, 0), BuildingBlock: XUDNAN_clean_linker_2, # of connection points: 2
#     Edge 37, Type (0, 0), BuildingBlock: XUDNAN_clean_linker_2, # of connection points: 2
#     Edge 38, Type (0, 0), BuildingBlock: XUDNAN_clean_linker_2, # of connection points: 2
#     Edge 39, Type (0, 0), BuildingBlock: XUDNAN_clean_linker_2, # of connection points: 2
#     Edge 40, Type (0, 0), BuildingBlock: XUDNAN_clean_linker_2, # of connection points: 2
#     Edge 41, Type (0, 0), BuildingBlock: XUDNAN_clean_linker_2, # of connection points: 2
#     Edge 42, Type (0, 0), BuildingBlock: XUDNAN_clean_linker_2, # of connection points: 2
#     Edge 43, Type (0, 0), BuildingBlock: XUDNAN_clean_linker_2, # of connection points: 2
#     Edge 44, Type (0, 0), BuildingBlock: XUDNAN_clean_linker_2, # of connection points: 2
#     Edge 45, Type (0, 0), BuildingBlock: XUDNAN_clean_linker_2, # of connection points: 2
#     Edge 46, Type (0, 0), BuildingBlock: XUDNAN_clean_linker_2, # of connection points: 2
#     Edge 47, Type (0, 0), BuildingBlock: XUDNAN_clean_linker_2, # of connection points: 2
#     Edge 48, Type (0, 0), BuildingBlock: XUDNAN_clean_linker_2, # of connection points: 2
#     Edge 49, Type (0, 0), BuildingBlock: XUDNAN_clean_linker_2, # of connection points: 2
#     Edge 50, Type (0, 0), BuildingBlock: XUDNAN_clean_linker_2, # of connection points: 2
#     Edge 51, Type (0, 0), BuildingBlock: XUDNAN_clean_linker_2, # of connection points: 2
#     Edge 52, Type (0, 0), BuildingBlock: XUDNAN_clean_linker_2, # of connection points: 2
#     Edge 53, Type (0, 0), BuildingBlock: XUDNAN_clean_linker_2, # of connection points: 2
#     Edge 54, Type (0, 0), BuildingBlock: XUDNAN_clean_linker_2, # of connection points: 2
#     Edge 55, Type (0, 0), BuildingBlock: XUDNAN_clean_linker_2, # of connection points: 2
#     Edge 56, Type (0, 0), BuildingBlock: XUDNAN_clean_linker_2, # of connection points: 2
#     Edge 57, Type (0, 0), BuildingBlock: XUDNAN_clean_linker_2, # of connection points: 2
#     Edge 58, Type (0, 0), BuildingBlock: XUDNAN_clean_linker_2, # of connection points: 2
#     Edge 59, Type (0, 0), BuildingBlock: XUDNAN_clean_linker_2, # of connection points: 2
#     Edge 60, Type (0, 0), BuildingBlock: XUDNAN_clean_linker_2, # of connection points: 2
#     Edge 61, Type (0, 0), BuildingBlock: XUDNAN_clean_linker_2, # of connection points: 2
#     Edge 62, Type (0, 0), BuildingBlock: XUDNAN_clean_linker_2, # of connection points: 2
#     Edge 63, Type (0, 0), BuildingBlock: XUDNAN_clean_linker_2, # of connection points: 2
# Relax obj value: 0.122
# Max RMSD: 0.181
# Mean RMSD: 0.181
data_MOF--net-wiv--node1-BETDAH_clean_sbu_0--edge1-XUDNAN_clean_linker_2
_symmetry_space_group_name_H-M    P1
_symmetry_Int_Tables_number       1
_symmetry_cell_setting            triclinic
loop_
_symmetry_equiv_pos_as_xyz
'x, y, z'
_cell_length_a     50.2344
_cell_length_b     50.541543
_cell_length_c     24.692566
_cell_angle_alpha  89.930311
_cell_angle_beta   90.203416
_cell_angle_gamma 90.015416
loop_
_atom_site_label
_atom_site_type_symbol
_atom_site_fract_x
_atom_site_fract_y
_atom_site_fract_z
_atom_type_partial_charge
Ho0 Ho 0.34969 0.11454 0.17188 0.0
Ho1 Ho 0.39052 0.11751 0.08181 0.0
C2 C 0.4142 0.11854 0.19885 0.0
C3 C 0.32585 0.10473 0.26305 0.0
C4 C 0.33131 0.10949 0.32145 0.0
C5 C 0.35642 0.10442 0.34482 0.0
C6 C 0.361 0.10923 0.40011 0.0
C7 C 0.34066 0.1194 0.43321 0.0
C8 C 0.31553 0.1242 0.40965 0.0
C9 C 0.31093 0.11927 0.35457 0.0
C10 C 0.35949 0.16432 0.13559 0.0
C11 C 0.32742 0.11066 0.052 0.0
C12 C 0.41359 0.12785 0.99029 0.0
C13 C 0.40424 0.12917 0.93313 0.0
C14 C 0.37871 0.13863 0.92005 0.0
C15 C 0.37006 0.1397 0.86609 0.0
C16 C 0.38676 0.13154 0.82351 0.0
C17 C 0.4122 0.12169 0.8368 0.0
C18 C 0.42081 0.12052 0.89098 0.0
C19 C 0.38268 0.06878 0.12461 0.0
O20 O 0.39003 0.11094 0.21392 0.0
O21 O 0.4193 0.12624 0.14879 0.0
O22 O 0.32082 0.12553 0.23329 0.0
O23 O 0.34115 0.0878 0.23817 0.0
O24 O 0.33625 0.15543 0.1491 0.0
O25 O 0.37659 0.14633 0.14285 0.0
O26 O 0.35095 0.12031 0.03892 0.0
O27 O 0.32208 0.10349 0.10252 0.0
O28 O 0.41363 0.10441 1.01266 0.0
O29 O 0.40471 0.14612 1.02321 0.0
O30 O 0.40567 0.07745 0.1085 0.0
O31 O 0.36494 0.08575 0.11411 0.0
H32 H 0.37259 0.09689 0.32038 0.0
H33 H 0.38065 0.10553 0.41665 0.0
H34 H 0.29926 0.13165 0.43392 0.0
H35 H 0.29137 0.12319 0.33774 0.0
H36 H 0.36538 0.14536 0.95147 0.0
H37 H 0.35015 0.1469 0.8578 0.0
H38 H 0.42572 0.11542 0.80527 0.0
H39 H 0.44055 0.11304 0.89994 0.0
Ho40 Ho 0.11592 0.62076 0.99843 0.0
Ho41 Ho 0.11637 0.65924 0.90614 0.0
C42 C 0.10991 0.6837 1.02502 0.0
C43 C 0.12303 0.59597 0.08916 0.0
C44 C 0.11852 0.6007 0.14759 0.0
C45 C 0.12847 0.6233 0.17406 0.0
C46 C 0.1255 0.62624 0.23017 0.0
C47 C 0.11242 0.60673 0.26099 0.0
C48 C 0.10165 0.58467 0.2338 0.0
C49 C 0.10481 0.58165 0.17792 0.0
C50 C 0.0684 0.62784 0.94794 0.0
C51 C 0.12423 0.59523 0.88502 0.0
C52 C 0.10855 0.68206 0.81325 0.0
C53 C 0.10586 0.67219 0.75711 0.0
C54 C 0.09192 0.64872 0.74577 0.0
C55 C 0.09074 0.63884 0.69291 0.0
C56 C 0.10365 0.65206 0.65012 0.0
C57 C 0.11718 0.67583 0.66156 0.0
C58 C 0.11825 0.68576 0.7145 0.0
C59 C 0.16496 0.65132 0.95113 0.0
O60 O 0.11601 0.65966 0.04179 0.0
O61 O 0.10681 0.68908 0.97264 0.0
O62 O 0.10184 0.59296 0.05888 0.0
O63 O 0.1415 0.61005 0.06547 0.0
O64 O 0.07673 0.60513 0.96559 0.0
O65 O 0.08508 0.64549 0.96001 0.0
O66 O 0.11512 0.61807 0.86537 0.0
O67 O 0.13061 0.59303 0.93654 0.0
O68 O 0.13203 0.67944 0.8354 0.0
O69 O 0.08944 0.67594 0.84671 0.0
O70 O 0.15557 0.67423 0.93681 0.0
O71 O 0.14757 0.63376 0.94193 0.0
H72 H 0.13899 0.63846 0.15167 0.0
H73 H 0.1342 0.64341 0.24953 0.0
H74 H 0.09087 0.56954 0.25573 0.0
H75 H 0.09681 0.56415 0.15844 0.0
H76 H 0.08215 0.63779 0.77784 0.0
H77 H 0.07977 0.62074 0.6857 0.0
H78 H 0.12765 0.68638 0.62995 0.0
H79 H 0.12921 0.70383 0.72234 0.0
Ho80 Ho 0.67022 0.89865 0.17207 0.0
Ho81 Ho 0.63289 0.89652 0.07651 0.0
C82 C 0.60655 0.89136 0.19093 0.0
C83 C 0.69347 0.90805 0.26413 0.0
C84 C 0.68492 0.91157 0.32073 0.0
C85 C 0.65979 0.92206 0.33319 0.0
C86 C 0.65199 0.92507 0.38718 0.0
C87 C 0.66914 0.91762 0.42978 0.0
C88 C 0.69425 0.90702 0.41699 0.0
C89 C 0.70204 0.90405 0.36298 0.0
C90 C 0.66323 0.84931 0.13104 0.0
C91 C 0.69679 0.90386 0.05498 0.0
C92 C 0.60932 0.88683 0.98535 0.0
C93 C 0.61479 0.89254 0.92764 0.0
C94 C 0.63922 0.88587 0.9036 0.0
C95 C 0.64415 0.89211 0.8493 0.0
C96 C 0.62478 0.90521 0.81786 0.0
C97 C 0.60023 0.91151 0.84194 0.0
C98 C 0.59531 0.90524 0.89617 0.0
C99 C 0.63881 0.94492 0.12222 0.0
O100 O 0.62886 0.902 0.20966 0.0
O101 O 0.6048 0.88279 0.14058 0.0
O102 O 0.69054 0.88436 0.24404 0.0
O103 O 0.68641 0.92648 0.22992 0.0
O104 O 0.68587 0.85887 0.14718 0.0
O105 O 0.6454 0.86669 0.13698 0.0
O106 O 0.67317 0.89726 0.03525 0.0
O107 O 0.7004 0.90801 0.10753 0.0
O108 O 0.60363 0.90725 1.01566 0.0
O109 O 0.62511 0.86996 1.00976 0.0
O110 O 0.61642 0.9362 0.103 0.0
O111 O 0.65684 0.92817 0.11355 0.0
H112 H 0.64617 0.9279 0.30125 0.0
H113 H 0.63239 0.93295 0.39553 0.0
H114 H 0.70806 0.90136 0.44873 0.0
H115 H 0.7215 0.89591 0.35418 0.0
H116 H 0.6546 0.87595 0.92675 0.0
H117 H 0.6633 0.88704 0.83224 0.0
H118 H 0.58464 0.92111 0.81875 0.0
H119 H 0.57626 0.91042 0.91366 0.0
Ho120 Ho 0.90761 0.38662 0.97065 0.0
Ho121 Ho 0.90877 0.34485 0.88151 0.0
C122 C 0.91455 0.32352 1.00213 0.0
C123 C 0.89785 0.41067 0.06113 0.0
C124 C 0.90158 0.40521 0.12002 0.0
C125 C 0.89057 0.38276 0.14539 0.0
C126 C 0.89311 0.37903 0.20165 0.0
C127 C 0.90676 0.39762 0.23398 0.0
C128 C 0.91852 0.41953 0.20791 0.0
C129 C 0.91583 0.42332 0.15194 0.0
C130 C 0.9558 0.37842 0.92559 0.0
C131 C 0.90346 0.4085 0.85245 0.0
C132 C 0.91661 0.32124 0.7894 0.0
C133 C 0.91814 0.33043 0.73217 0.0
C134 C 0.93377 0.35237 0.71754 0.0
C135 C 0.93347 0.36203 0.66428 0.0
C136 C 0.9177 0.34992 0.624 0.0
C137 C 0.9028 0.32738 0.63831 0.0
C138 C 0.90295 0.31783 0.6918 0.0
C139 C 0.85992 0.35473 0.9228 0.0
O140 O 0.90843 0.348 1.01621 0.0
O141 O 0.91805 0.31673 0.95069 0.0
O142 O 0.91939 0.41476 0.03266 0.0
O143 O 0.88017 0.3965 0.03497 0.0
O144 O 0.94767 0.40131 0.94262 0.0
O145 O 0.93876 0.36088 0.93675 0.0
O146 O 0.91213 0.38464 0.83845 0.0
O147 O 0.89611 0.41367 0.9027 0.0
O148 O 0.89331 0.32305 0.81238 0.0
O149 O 0.9358 0.32845 0.82208 0.0
O150 O 0.86869 0.33139 0.91011 0.0
O151 O 0.87768 0.37171 0.91264 0.0
H152 H 0.87959 0.36826 0.122 0.0
H153 H 0.88367 0.36197 0.21992 0.0
H154 H 0.92979 0.43398 0.23081 0.0
H155 H 0.9247 0.44068 0.13359 0.0
H156 H 0.9459 0.36242 0.74747 0.0
H157 H 0.94553 0.37917 0.65473 0.0
H158 H 0.8903 0.31763 0.6086 0.0
H159 H 0.89076 0.30086 0.70189 0.0
Ho160 Ho 0.35757 0.40787 0.13579 0.0
Ho161 Ho 0.39517 0.40341 0.2312 0.0
C162 C 0.42076 0.39332 0.11583 0.0
C163 C 0.33543 0.42047 0.04447 0.0
C164 C 0.33978 0.4143 0.98658 0.0
C165 C 0.36467 0.41811 0.96175 0.0
C166 C 0.36818 0.41208 0.90688 0.0
C167 C 0.34698 0.40192 0.87585 0.0
C168 C 0.32214 0.39818 0.90083 0.0
C169 C 0.31857 0.40439 0.95551 0.0
C170 C 0.36154 0.35807 0.17691 0.0
C171 C 0.33227 0.41353 0.25278 0.0
C172 C 0.41794 0.39329 0.32318 0.0
C173 C 0.40862 0.39021 0.37949 0.0
C174 C 0.38388 0.37858 0.39097 0.0
C175 C 0.375 0.3765 0.44444 0.0
C176 C 0.39062 0.38604 0.4877 0.0
C177 C 0.41548 0.39754 0.47589 0.0
C178 C 0.42434 0.39963 0.42235 0.0
C179 C 0.39356 0.45192 0.18298 0.0
O180 O 0.39782 0.40173 0.09516 0.0
O181 O 0.42398 0.38933 0.16838 0.0
O182 O 0.32714 0.40098 0.07491 0.0
O183 O 0.3534 0.43505 0.06864 0.0
O184 O 0.33978 0.36829 0.15763 0.0
O185 O 0.38009 0.37465 0.1716 0.0
O186 O 0.35448 0.40243 0.2704 0.0
O187 O 0.32991 0.42135 0.20178 0.0
O188 O 0.41606 0.41709 0.30284 0.0
O189 O 0.41061 0.37498 0.28877 0.0
O190 O 0.41505 0.44053 0.20058 0.0
O191 O 0.37397 0.43689 0.19248 0.0
H192 H 0.38147 0.42562 0.98467 0.0
H193 H 0.38763 0.41493 0.88897 0.0
H194 H 0.30533 0.39069 0.87793 0.0
H195 H 0.29919 0.40141 0.97363 0.0
H196 H 0.37133 0.3712 0.3586 0.0
H197 H 0.35568 0.36774 0.45168 0.0
H198 H 0.42831 0.40467 0.50803 0.0
H199 H 0.4435 0.40865 0.41438 0.0
Ho200 Ho 0.403 0.6318 0.82431 0.0
Ho201 Ho 0.41086 0.67199 0.92343 0.0
C202 C 0.41373 0.69501 0.8007 0.0
C203 C 0.39032 0.612 0.73129 0.0
C204 C 0.39105 0.62288 0.6755 0.0
C205 C 0.38404 0.64931 0.66484 0.0
C206 C 0.38696 0.65999 0.61282 0.0
C207 C 0.39693 0.6445 0.57007 0.0
C208 C 0.40343 0.61787 0.58069 0.0
C209 C 0.40057 0.60723 0.63284 0.0
C210 C 0.45191 0.63556 0.86978 0.0
C211 C 0.39815 0.60789 0.94115 0.0
C212 C 0.43171 0.69304 1.00891 0.0
C213 C 0.42719 0.69115 0.0683 0.0
C214 C 0.43133 0.66726 0.09655 0.0
C215 C 0.42794 0.66598 0.15276 0.0
C216 C 0.42022 0.68848 0.18238 0.0
C217 C 0.41576 0.71227 0.15386 0.0
C218 C 0.41931 0.71359 0.09763 0.0
C219 C 0.35822 0.6633 0.90492 0.0
O220 O 0.40686 0.67119 0.78367 0.0
O221 O 0.41779 0.70058 0.85289 0.0
O222 O 0.41356 0.60834 0.75424 0.0
O223 O 0.37283 0.62226 0.76457 0.0
O224 O 0.44204 0.61351 0.85142 0.0
O225 O 0.43584 0.65423 0.86099 0.0
O226 O 0.40888 0.6302 0.96042 0.0
O227 O 0.38991 0.60537 0.89049 0.0
O228 O 0.41328 0.70488 0.97985 0.0
O229 O 0.44128 0.67192 0.98518 0.0
O230 O 0.36735 0.6795 0.94117 0.0
O231 O 0.37783 0.65378 0.88 0.0
H232 H 0.3766 0.66191 0.6968 0.0
H233 H 0.38138 0.68044 0.60618 0.0
H234 H 0.41148 0.60541 0.54909 0.0
H235 H 0.40632 0.58687 0.6401 0.0
H236 H 0.43749 0.64953 0.07542 0.0
H237 H 0.43197 0.64741 0.17309 0.0
H238 H 0.4094 0.72994 0.17491 0.0
H239 H 0.41599 0.73225 0.07705 0.0
Ho240 Ho 0.66774 0.60748 0.14623 0.0
Ho241 Ho 0.62725 0.60972 0.23737 0.0
C242 C 0.60408 0.62114 0.1208 0.0
C243 C 0.69037 0.59591 0.05503 0.0
C244 C 0.68506 0.60091 0.99676 0.0
C245 C 0.65983 0.59652 0.97341 0.0
C246 C 0.65541 0.60158 0.91819 0.0
C247 C 0.67604 0.61133 0.88526 0.0
C248 C 0.70127 0.61548 0.90882 0.0
C249 C 0.7057 0.61028 0.96381 0.0
C250 C 0.66176 0.6565 0.18928 0.0
C251 C 0.69036 0.6011 0.26578 0.0
C252 C 0.60397 0.6181 0.32933 0.0
C253 C 0.61326 0.62021 0.3862 0.0
C254 C 0.63888 0.62962 0.39862 0.0
C255 C 0.64759 0.63112 0.45246 0.0
C256 C 0.63085 0.62342 0.49536 0.0
C257 C 0.60527 0.61376 0.48267 0.0
C258 C 0.59661 0.61216 0.42867 0.0
C259 C 0.63041 0.56241 0.18559 0.0
O260 O 0.62821 0.61513 0.10244 0.0
O261 O 0.5988 0.62288 0.17305 0.0
O262 O 0.69697 0.61644 0.08431 0.0
O263 O 0.67406 0.58001 0.08037 0.0
O264 O 0.68423 0.64678 0.17257 0.0
O265 O 0.64361 0.63963 0.18123 0.0
O266 O 0.66672 0.60979 0.28053 0.0
O267 O 0.69571 0.59564 0.21446 0.0
O268 O 0.606 0.5947 0.30727 0.0
O269 O 0.61121 0.63707 0.29629 0.0
O270 O 0.60851 0.57289 0.20314 0.0
O271 O 0.6497 0.57739 0.19827 0.0
H272 H 0.64345 0.58936 0.99779 0.0
H273 H 0.6357 0.59839 0.90154 0.0
H274 H 0.71772 0.62261 0.8846 0.0
H275 H 0.72534 0.61368 0.98071 0.0
H276 H 0.65221 0.63589 0.36676 0.0
H277 H 0.66758 0.6382 0.46039 0.0
H278 H 0.59172 0.60789 0.5145 0.0
H279 H 0.57681 0.60474 0.42008 0.0
Ho280 Ho 0.61866 0.38494 0.81708 0.0
Ho281 Ho 0.61639 0.3469 0.91103 0.0
C282 C 0.61187 0.32222 0.79257 0.0
C283 C 0.62845 0.40714 0.72483 0.0
C284 C 0.62886 0.39704 0.66868 0.0
C285 C 0.63856 0.3716 0.65707 0.0
C286 C 0.63677 0.36135 0.60463 0.0
C287 C 0.62534 0.37633 0.5625 0.0
C288 C 0.61624 0.40206 0.57395 0.0
C289 C 0.61792 0.41226 0.62659 0.0
C290 C 0.56989 0.37786 0.86109 0.0
C291 C 0.62222 0.41153 0.93167 0.0
C292 C 0.6057 0.32287 1.0012 0.0
C293 C 0.60961 0.32681 0.06001 0.0
C294 C 0.60278 0.3507 0.08564 0.0
C295 C 0.60475 0.3531 0.14203 0.0
C296 C 0.61366 0.33172 0.17393 0.0
C297 C 0.6213 0.3082 0.14774 0.0
C298 C 0.61918 0.30576 0.09151 0.0
C299 C 0.6661 0.35514 0.87236 0.0
O300 O 0.62157 0.3452 0.77693 0.0
O301 O 0.60494 0.31822 0.84373 0.0
O302 O 0.60506 0.40762 0.7478 0.0
O303 O 0.64709 0.39843 0.75749 0.0
O304 O 0.57852 0.40045 0.84332 0.0
O305 O 0.587 0.36018 0.85217 0.0
O306 O 0.616 0.38788 0.95196 0.0
O307 O 0.62775 0.41481 0.87992 0.0
O308 O 0.62691 0.31791 0.97249 0.0
O309 O 0.58926 0.33894 0.97662 0.0
O310 O 0.657 0.33246 0.8884 0.0
O311 O 0.6483 0.37251 0.87847 0.0
H312 H 0.64721 0.35942 0.6886 0.0
H313 H 0.64432 0.34162 0.59714 0.0
H314 H 0.60709 0.41403 0.5426 0.0
H315 H 0.61016 0.43186 0.63468 0.0
H316 H 0.59541 0.36734 0.06233 0.0
H317 H 0.5985 0.37145 0.16068 0.0
H318 H 0.6288 0.29151 0.17072 0.0
H319 H 0.62466 0.28721 0.07263 0.0
Ho320 Ho 0.85329 0.61263 0.67442 0.0
Ho321 Ho 0.88999 0.61658 0.57965 0.0
C322 C 0.91631 0.62204 0.6948 0.0
C323 C 0.82966 0.60401 0.76606 0.0
C324 C 0.83721 0.60039 0.82369 0.0
C325 C 0.83491 0.57539 0.848 0.0
C326 C 0.84042 0.57196 0.90311 0.0
C327 C 0.8479 0.59362 0.93559 0.0
C328 C 0.85047 0.61862 0.91102 0.0
C329 C 0.84525 0.62196 0.85578 0.0
C330 C 0.85882 0.66229 0.63324 0.0
C331 C 0.82651 0.60596 0.55768 0.0
C332 C 0.91147 0.62869 0.48803 0.0
C333 C 0.90546 0.62094 0.43165 0.0
C334 C 0.90472 0.64025 0.39087 0.0
C335 C 0.89731 0.63352 0.33794 0.0
C336 C 0.89058 0.60726 0.32464 0.0
C337 C 0.89173 0.58789 0.36563 0.0
C338 C 0.8989 0.59468 0.41857 0.0
C339 C 0.88896 0.56801 0.62489 0.0
O340 O 0.89455 0.61016 0.71285 0.0
O341 O 0.91746 0.63131 0.64476 0.0
O342 O 0.83314 0.62748 0.74525 0.0
O343 O 0.83608 0.58521 0.73232 0.0
O344 O 0.83637 0.65206 0.64832 0.0
O345 O 0.87694 0.64544 0.64009 0.0
O346 O 0.84982 0.61326 0.53798 0.0
O347 O 0.82321 0.60196 0.61024 0.0
O348 O 0.9207 0.61014 0.52 0.0
O349 O 0.89345 0.64338 0.51151 0.0
O350 O 0.90952 0.57818 0.60125 0.0
O351 O 0.86884 0.58279 0.61806 0.0
H352 H 0.82844 0.55851 0.8245 0.0
H353 H 0.83862 0.55232 0.92029 0.0
H354 H 0.85573 0.63586 0.93474 0.0
H355 H 0.84699 0.64161 0.8386 0.0
H356 H 0.90939 0.66068 0.4002 0.0
H357 H 0.89621 0.64907 0.30782 0.0
H358 H 0.88709 0.56742 0.35692 0.0
H359 H 0.89904 0.5794 0.44937 0.0
Ho360 Ho 0.61956 0.12291 0.48577 0.0
Ho361 Ho 0.61037 0.15851 0.38919 0.0
C362 C 0.60572 0.18537 0.506 0.0
C363 C 0.6359 0.10118 0.57474 0.0
C364 C 0.63182 0.10436 0.63362 0.0
C365 C 0.63603 0.12867 0.65999 0.0
C366 C 0.63297 0.13067 0.71621 0.0
C367 C 0.62568 0.10841 0.74712 0.0
C368 C 0.62092 0.08431 0.72024 0.0
C369 C 0.62407 0.08232 0.66424 0.0
C370 C 0.56963 0.1206 0.44495 0.0
C371 C 0.6249 0.09642 0.37078 0.0
C372 C 0.59651 0.17888 0.29685 0.0
C373 C 0.59624 0.16893 0.24072 0.0
C374 C 0.58922 0.14262 0.22914 0.0
C375 C 0.59142 0.13281 0.17644 0.0
C376 C 0.60074 0.14908 0.13424 0.0
C377 C 0.60693 0.17565 0.14574 0.0
C378 C 0.60472 0.18544 0.19851 0.0
C379 C 0.66159 0.15643 0.42532 0.0
O380 O 0.61532 0.16296 0.52567 0.0
O381 O 0.59939 0.18788 0.45402 0.0
O382 O 0.61551 0.09249 0.54694 0.0
O383 O 0.64902 0.11986 0.54948 0.0
O384 O 0.58202 0.10092 0.46728 0.0
O385 O 0.58346 0.14146 0.44966 0.0
O386 O 0.61147 0.11713 0.35236 0.0
O387 O 0.63478 0.09619 0.42045 0.0
O388 O 0.62002 0.18208 0.31844 0.0
O389 O 0.5798 0.16793 0.33043 0.0
O390 O 0.64996 0.17783 0.40844 0.0
O391 O 0.64549 0.1375 0.4212 0.0
H392 H 0.64204 0.14603 0.6374 0.0
H393 H 0.63698 0.14949 0.73555 0.0
H394 H 0.61476 0.0669 0.7425 0.0
H395 H 0.6206 0.06341 0.6448 0.0
H396 H 0.58251 0.12945 0.26092 0.0
H397 H 0.58607 0.11238 0.16888 0.0
H398 H 0.61443 0.18864 0.1144 0.0
H399 H 0.61032 0.20576 0.20664 0.0
Ho400 Ho 0.17225 0.39931 0.65755 0.0
Ho401 Ho 0.13168 0.40219 0.56474 0.0
C402 C 0.10839 0.38903 0.67887 0.0
C403 C 0.19606 0.40431 0.75036 0.0
C404 C 0.18735 0.41004 0.80658 0.0
C405 C 0.20061 0.42941 0.83716 0.0
C406 C 0.19338 0.43427 0.89104 0.0
C407 C 0.17282 0.41972 0.91577 0.0
C408 C 0.15927 0.40061 0.88478 0.0
C409 C 0.16634 0.39592 0.83077 0.0
C410 C 0.16478 0.35279 0.60488 0.0
C411 C 0.19537 0.4117 0.53977 0.0
C412 C 0.10845 0.39534 0.47185 0.0
C413 C 0.11483 0.40204 0.41498 0.0
C414 C 0.10437 0.38669 0.37266 0.0
C415 C 0.11079 0.39236 0.31864 0.0
C416 C 0.12794 0.4135 0.30572 0.0
C417 C 0.13848 0.42875 0.34851 0.0
C418 C 0.13193 0.42312 0.40245 0.0
C419 C 0.13619 0.44729 0.62369 0.0
O420 O 0.13136 0.39795 0.69826 0.0
O421 O 0.10477 0.38462 0.6267 0.0
O422 O 0.18864 0.38162 0.72998 0.0
O423 O 0.1944 0.42359 0.71511 0.0
O424 O 0.18768 0.36153 0.62173 0.0
O425 O 0.14713 0.36971 0.61621 0.0
O426 O 0.17073 0.40827 0.52226 0.0
O427 O 0.20166 0.41036 0.59192 0.0
O428 O 0.10316 0.41513 0.50428 0.0
O429 O 0.12386 0.37763 0.49462 0.0
O430 O 0.11425 0.43964 0.60053 0.0
O431 O 0.1548 0.43169 0.61066 0.0
H432 H 0.21682 0.44059 0.81952 0.0
H433 H 0.20434 0.44904 0.91376 0.0
H434 H 0.14306 0.38935 0.9022 0.0
H435 H 0.15546 0.38106 0.80816 0.0
H436 H 0.09118 0.37028 0.3814 0.0
H437 H 0.10199 0.38037 0.28698 0.0
H438 H 0.15208 0.4449 0.34047 0.0
H439 H 0.14028 0.43519 0.43446 0.0
Ho440 Ho 0.4027 0.88831 0.48122 0.0
Ho441 Ho 0.40725 0.84987 0.37855 0.0
C442 C 0.40942 0.82453 0.4995 0.0
C443 C 0.39392 0.90946 0.57475 0.0
C444 C 0.39028 0.89917 0.63037 0.0
C445 C 0.37415 0.87704 0.64093 0.0
C446 C 0.37186 0.86709 0.69368 0.0
C447 C 0.38588 0.87881 0.73694 0.0
C448 C 0.40194 0.90101 0.72608 0.0
C449 C 0.40406 0.91107 0.67343 0.0
C450 C 0.45061 0.88376 0.43155 0.0
C451 C 0.39399 0.91329 0.36491 0.0
C452 C 0.42527 0.82786 0.29168 0.0
C453 C 0.41698 0.82832 0.23434 0.0
C454 C 0.39276 0.84 0.21901 0.0
C455 C 0.38571 0.84198 0.16427 0.0
C456 C 0.40281 0.83245 0.12363 0.0
C457 C 0.42702 0.8206 0.13931 0.0
C458 C 0.43401 0.81855 0.19418 0.0
C459 C 0.35527 0.85887 0.40304 0.0
O460 O 0.4016 0.84765 0.51899 0.0
O461 O 0.4153 0.82106 0.44736 0.0
O462 O 0.41775 0.90645 0.55452 0.0
O463 O 0.37503 0.90454 0.5394 0.0
O464 O 0.44175 0.90587 0.45138 0.0
O465 O 0.43403 0.86563 0.44039 0.0
O466 O 0.40532 0.89178 0.34411 0.0
O467 O 0.38753 0.91539 0.41669 0.0
O468 O 0.40915 0.81584 0.32551 0.0
O469 O 0.43406 0.85049 0.31042 0.0
O470 O 0.3631 0.84397 0.36348 0.0
O471 O 0.37576 0.86734 0.42687 0.0
H472 H 0.36351 0.86725 0.6084 0.0
H473 H 0.35948 0.84988 0.70039 0.0
H474 H 0.41267 0.91085 0.75839 0.0
H475 H 0.41665 0.92812 0.66624 0.0
H476 H 0.37951 0.84801 0.24938 0.0
H477 H 0.36713 0.85159 0.15373 0.0
H478 H 0.44054 0.81285 0.10917 0.0
H479 H 0.45288 0.80963 0.20523 0.0
Ho480 Ho 0.85198 0.90422 0.64071 0.0
Ho481 Ho 0.89334 0.90304 0.73104 0.0
C482 C 0.91648 0.8964 0.61381 0.0
C483 C 0.82861 0.91427 0.54895 0.0
C484 C 0.83397 0.90897 0.49075 0.0
C485 C 0.85913 0.91362 0.46756 0.0
C486 C 0.86354 0.90873 0.41232 0.0
C487 C 0.84299 0.89888 0.37904 0.0
C488 C 0.81787 0.89433 0.40246 0.0
C489 C 0.81342 0.89936 0.45752 0.0
C490 C 0.86054 0.85538 0.68221 0.0
C491 C 0.83019 0.90909 0.76027 0.0
C492 C 0.91663 0.89474 0.82356 0.0
C493 C 0.90725 0.89207 0.88032 0.0
C494 C 0.88216 0.88127 0.89219 0.0
C495 C 0.87324 0.87958 0.94581 0.0
C496 C 0.88928 0.88834 0.98923 0.0
C497 C 0.91439 0.89925 0.97707 0.0
C498 C 0.92321 0.90113 0.92327 0.0
C499 C 0.8859 0.95057 0.68317 0.0
O500 O 0.89177 0.90095 0.59675 0.0
O501 O 0.92254 0.89401 0.66571 0.0
O502 O 0.82267 0.89387 0.57923 0.0
O503 O 0.84456 0.93081 0.57362 0.0
O504 O 0.8375 0.86436 0.66689 0.0
O505 O 0.87813 0.87283 0.67371 0.0
O506 O 0.85395 0.89998 0.77351 0.0
O507 O 0.82438 0.91556 0.70951 0.0
O508 O 0.91399 0.91818 0.80184 0.0
O509 O 0.91012 0.87579 0.78984 0.0
O510 O 0.90888 0.94211 0.7 0.0
O511 O 0.86799 0.93412 0.69548 0.0
H512 H 0.87545 0.92096 0.49207 0.0
H513 H 0.8832 0.9122 0.3959 0.0
H514 H 0.80147 0.88707 0.37806 0.0
H515 H 0.79383 0.89575 0.47419 0.0
H516 H 0.86934 0.87418 0.86005 0.0
H517 H 0.85358 0.87156 0.95309 0.0
H518 H 0.92749 0.90594 1.00917 0.0
H519 H 0.94261 0.90961 0.91521 0.0
Ho520 Ho 0.90191 0.13077 0.32501 0.0
Ho521 Ho 0.90675 0.1684 0.4201 0.0
C522 C 0.91124 0.19344 0.30216 0.0
C523 C 0.89011 0.10952 0.23285 0.0
C524 C 0.8895 0.11948 0.17618 0.0
C525 C 0.86544 0.12819 0.15299 0.0
C526 C 0.86479 0.13837 0.1003 0.0
C527 C 0.88815 0.13992 0.06924 0.0
C528 C 0.91217 0.13088 0.09212 0.0
C529 C 0.91284 0.12076 0.14492 0.0
C530 C 0.9511 0.13526 0.36932 0.0
C531 C 0.89597 0.10478 0.44047 0.0
C532 C 0.91999 0.1909 0.51052 0.0
C533 C 0.91374 0.18795 0.5688 0.0
C534 C 0.93437 0.18237 0.60561 0.0
C535 C 0.92914 0.1799 0.66101 0.0
C536 C 0.90315 0.18316 0.68091 0.0
C537 C 0.88248 0.18867 0.64398 0.0
C538 C 0.88769 0.19098 0.58851 0.0
C539 C 0.85621 0.16231 0.38244 0.0
O540 O 0.90059 0.17106 0.285 0.0
O541 O 0.91924 0.19608 0.35309 0.0
O542 O 0.9135 0.10716 0.25591 0.0
O543 O 0.87228 0.11932 0.26575 0.0
O544 O 0.94134 0.11313 0.35147 0.0
O545 O 0.93486 0.15377 0.3604 0.0
O546 O 0.90507 0.12754 0.46016 0.0
O547 O 0.88959 0.102 0.38884 0.0
O548 O 0.90113 0.19973 0.4786 0.0
O549 O 0.93358 0.17167 0.48861 0.0
O550 O 0.86575 0.18426 0.40143 0.0
O551 O 0.87372 0.14461 0.3871 0.0
H552 H 0.84705 0.12724 0.17569 0.0
H553 H 0.84588 0.14477 0.08368 0.0
H554 H 0.93058 0.13202 0.06954 0.0
H555 H 0.93173 0.11416 0.1613 0.0
H556 H 0.95464 0.18007 0.5915 0.0
H557 H 0.94555 0.17593 0.68839 0.0
H558 H 0.86219 0.19098 0.65791 0.0
H559 H 0.8713 0.19517 0.5612 0.0
Ho560 Ho 0.17039 0.11054 0.63331 0.0
Ho561 Ho 0.13301 0.11436 0.72781 0.0
C562 C 0.10625 0.11969 0.61256 0.0
C563 C 0.19317 0.09864 0.54246 0.0
C564 C 0.18881 0.10457 0.48435 0.0
C565 C 0.164 0.10033 0.45918 0.0
C566 C 0.16044 0.10602 0.40409 0.0
C567 C 0.18152 0.11629 0.37315 0.0
C568 C 0.2063 0.12048 0.39845 0.0
C569 C 0.20991 0.11458 0.45338 0.0
C570 C 0.16383 0.16079 0.66972 0.0
C571 C 0.19634 0.10767 0.75088 0.0
C572 C 0.10984 0.12454 0.81904 0.0
C573 C 0.11889 0.12739 0.87577 0.0
C574 C 0.14301 0.14006 0.88829 0.0
C575 C 0.15161 0.14215 0.94202 0.0
C576 C 0.13636 0.13161 0.98467 0.0
C577 C 0.11212 0.11901 0.97187 0.0
C578 C 0.10352 0.11691 0.91799 0.0
C579 C 0.1386 0.06546 0.68384 0.0
O580 O 0.12933 0.11138 0.59282 0.0
O581 O 0.10341 0.12565 0.66424 0.0
O582 O 0.20071 0.11839 0.57297 0.0
O583 O 0.17554 0.0836 0.56624 0.0
O584 O 0.1861 0.151 0.65262 0.0
O585 O 0.14592 0.14333 0.66574 0.0
O586 O 0.17357 0.11785 0.76759 0.0
O587 O 0.19898 0.09931 0.70029 0.0
O588 O 0.11147 0.10077 0.79858 0.0
O589 O 0.11758 0.14282 0.78497 0.0
O590 O 0.11605 0.0749 0.70048 0.0
O591 O 0.15682 0.082 0.69309 0.0
H592 H 0.14728 0.09273 0.482 0.0
H593 H 0.14104 0.10284 0.38595 0.0
H594 H 0.22301 0.1281 0.37562 0.0
H595 H 0.22925 0.1179 0.47175 0.0
H596 H 0.15531 0.1483 0.85653 0.0
H597 H 0.17044 0.15175 0.94996 0.0
H598 H 0.09956 0.11105 1.00348 0.0
H599 H 0.08482 0.10709 0.90927 0.0
Ho600 Ho 0.1212 0.88409 0.33078 0.0
Ho601 Ho 0.10862 0.84714 0.43319 0.0
C602 C 0.10888 0.82057 0.31297 0.0
C603 C 0.13779 0.90521 0.24164 0.0
C604 C 0.1358 0.90021 0.18279 0.0
C605 C 0.13944 0.87487 0.16051 0.0
C606 C 0.13774 0.87101 0.10433 0.0
C607 C 0.13262 0.89249 0.06949 0.0
C608 C 0.12864 0.9177 0.09219 0.0
C609 C 0.13021 0.92148 0.14813 0.0
C610 C 0.07118 0.88406 0.37098 0.0
C611 C 0.12667 0.90881 0.44788 0.0
C612 C 0.08502 0.82956 0.51822 0.0
C613 C 0.08854 0.83717 0.57584 0.0
C614 C 0.08741 0.86393 0.59132 0.0
C615 C 0.09321 0.87148 0.6444 0.0
C616 C 0.10062 0.85257 0.68349 0.0
C617 C 0.10085 0.82569 0.66859 0.0
C618 C 0.09489 0.81808 0.61522 0.0
C619 C 0.1621 0.85465 0.42104 0.0
O620 O 0.11573 0.84382 0.29198 0.0
O621 O 0.10417 0.8171 0.3657 0.0
O622 O 0.11575 0.9123 0.26571 0.0
O623 O 0.15206 0.88868 0.27064 0.0
O624 O 0.08287 0.90518 0.35279 0.0
O625 O 0.08621 0.86435 0.36557 0.0
O626 O 0.11127 0.88928 0.46569 0.0
O627 O 0.13697 0.90892 0.39855 0.0
O628 O 0.10507 0.81709 0.4957 0.0
O629 O 0.07472 0.84774 0.48649 0.0
O630 O 0.15161 0.84126 0.46036 0.0
O631 O 0.14327 0.86239 0.39151 0.0
H632 H 0.14392 0.85815 0.18638 0.0
H633 H 0.14112 0.85141 0.08808 0.0
H634 H 0.12425 0.93458 0.06662 0.0
H635 H 0.1272 0.94116 0.16439 0.0
H636 H 0.08265 0.87925 0.56217 0.0
H637 H 0.09227 0.89231 0.65458 0.0
H638 H 0.10659 0.81063 0.69759 0.0
H639 H 0.09598 0.79735 0.60434 0.0
H640 H 0.42735 0.94167 0.29834 0.0
H641 H 0.34539 0.93541 0.35087 0.0
H642 H 0.33311 0.97299 0.29135 0.0
H643 H 0.42824 0.01319 0.29792 0.0
H644 H 0.44985 0.0158 0.2401 0.0
H645 H 0.45188 0.98729 0.28375 0.0
H646 H 0.44411 0.95657 0.20132 0.0
H647 H 0.44197 0.98498 0.15739 0.0
H648 H 0.4151 0.96135 0.15922 0.0
H649 H 0.32958 0.01072 0.22475 0.0
H650 H 0.33581 0.04894 0.16343 0.0
H651 H 0.42074 0.03367 0.16021 0.0
C652 C 0.40681 0.94814 0.2967 0.0
C653 C 0.38716 0.93554 0.32848 0.0
C654 C 0.36061 0.94481 0.32653 0.0
C655 C 0.35348 0.96605 0.29276 0.0
C656 C 0.37326 0.97819 0.26198 0.0
C657 C 0.39947 0.96987 0.26426 0.0
C658 C 0.41711 0.98756 0.22984 0.0
C659 C 0.438 1.0018 0.26501 0.0
C660 C 0.43035 0.97166 0.18423 0.0
C661 C 0.39668 1.0069 0.20747 0.0
C662 C 0.37147 1.00093 0.22605 0.0
C663 C 0.34928 0.01572 0.2104 0.0
C664 C 0.353 0.03743 0.17563 0.0
C665 C 0.37876 0.04455 0.15773 0.0
C666 C 0.4008 0.02881 0.17345 0.0
H667 H 0.94306 0.58736 0.76176 0.0
H668 H 0.9396 0.66958 0.71219 0.0
H669 H 0.97631 0.68025 0.77559 0.0
H670 H 0.96039 0.5974 0.90296 0.0
H671 H 0.98359 0.57023 0.90568 0.0
H672 H 0.95584 0.5692 0.85926 0.0
H673 H 0.9882 0.56192 0.77917 0.0
H674 H 0.01601 0.56279 0.82537 0.0
H675 H 0.01499 0.58506 0.76834 0.0
H676 H 0.01205 0.68234 0.84678 0.0
H677 H 0.04885 0.67491 0.91155 0.0
H678 H 0.03339 0.59051 0.90762 0.0
C679 C 0.95 0.6076 0.76474 0.0
C680 C 0.93842 0.62778 0.73269 0.0
C681 C 0.94825 0.65393 0.73658 0.0
C682 C 0.96898 0.66017 0.77262 0.0
C683 C 0.98008 0.63989 0.80368 0.0
C684 C 0.97132 0.61404 0.79942 0.0
C685 C 0.98809 0.59576 0.8346 0.0
C686 C 0.97095 0.58236 0.87821 0.0
C687 C 1.00269 0.57517 0.79978 0.0
C688 C 1.00748 0.61541 0.85952 0.0
C689 C 1.00214 0.64081 0.84175 0.0
C690 C 0.01672 0.66248 0.86019 0.0
C691 C 0.0377 0.65805 0.89676 0.0
C692 C 0.04452 0.63211 0.91336 0.0
C693 C 0.02887 0.61056 0.89511 0.0
H694 H 0.59995 0.97952 0.15681 0.0
H695 H 0.68509 0.96546 0.16173 0.0
H696 H 0.69056 1.00258 0.22574 0.0
H697 H 0.60594 0.05248 0.1599 0.0
H698 H 0.57639 0.05661 0.20015 0.0
H699 H 0.57908 0.02895 0.15449 0.0
H700 H 0.56996 0.9967 0.23406 0.0
H701 H 0.56745 0.02422 0.28001 0.0
H702 H 0.59084 0.99797 0.29351 0.0
H703 H 0.68626 0.0381 0.2958 0.0
H704 H 0.67349 0.0742 0.35794 0.0
H705 H 0.59202 0.0695 0.30026 0.0
C706 C 0.61976 0.98447 0.17097 0.0
C707 C 0.64206 0.96909 0.15563 0.0
C708 C 0.66766 0.97641 0.17436 0.0
C709 C 0.67098 0.99758 0.21044 0.0
C710 C 0.64856 0.01184 0.22612 0.0
C711 C 0.62352 1.00607 0.20601 0.0
C712 C 0.60289 0.02507 0.22857 0.0
C713 C 0.59034 0.04176 0.18306 0.0
C714 C 0.58153 0.0101 0.26096 0.0
C715 C 0.62018 0.04199 0.26538 0.0
C716 C 0.64642 0.03376 0.26371 0.0
C717 C 0.66589 0.04505 0.29672 0.0
C718 C 0.65845 0.06542 0.33206 0.0
C719 C 0.6319 0.07472 0.33339 0.0
C720 C 0.61255 0.06297 0.29931 0.0
H721 H 0.99119 0.41586 0.88983 0.0
H722 H 0.9756 0.33149 0.88817 0.0
H723 H 0.01321 0.32497 0.82521 0.0
H724 H 1.01017 0.42346 0.75317 0.0
H725 H 0.03669 0.44664 0.76637 0.0
H726 H 1.00875 0.44471 0.81168 0.0
H727 H 0.04069 0.43611 0.89244 0.0
H728 H 0.06877 0.4382 0.84741 0.0
H729 H 0.06417 0.4092 0.88889 0.0
H730 H 0.0498 0.32838 0.75573 0.0
H731 H 0.08639 0.34063 0.69346 0.0
H732 H 0.08176 0.4219 0.74811 0.0
C733 C 0.99587 0.39599 0.87659 0.0
C734 C 0.98 0.37422 0.89256 0.0
C735 C 0.98696 0.34851 0.87501 0.0
C736 C 1.00841 0.34461 0.83958 0.0
C737 C 0.02322 0.36656 0.82338 0.0
C738 C 0.01764 0.39168 0.84226 0.0
C739 C 0.03699 0.41184 0.81936 0.0
C740 C 0.02227 0.4329 0.78564 0.0
C741 C 0.05364 0.42458 0.86474 0.0
C742 C 0.054 0.39423 0.78382 0.0
C743 C 0.04553 0.36821 0.78632 0.0
C744 C 0.05692 0.34857 0.75424 0.0
C745 C 0.07758 0.35568 0.71893 0.0
C746 C 0.08694 0.38204 0.7168 0.0
C747 C 0.07516 0.40151 0.74991 0.0
H748 H 0.37659 0.5043 0.18805 0.0
H749 H 0.41418 0.44699 0.0834 0.0
H750 H 0.4187 0.48035 1.01191 0.0
H751 H 0.34112 0.5417 0.0835 0.0
H752 H 0.3478 0.57361 0.11311 0.0
H753 H 0.34567 0.54471 0.1557 0.0
H754 H 0.39261 0.55474 0.19415 0.0
H755 H 0.39494 0.58358 0.15141 0.0
H756 H 0.42022 0.55835 0.14829 0.0
H757 H 0.41894 0.51876 0.95163 0.0
H758 H 0.41697 0.56169 0.90501 0.0
H759 H 0.38293 0.59776 0.04837 0.0
C760 C 0.38534 0.49884 0.14964 0.0
C761 C 0.39428 0.47261 0.14034 0.0
C762 C 0.40654 0.46649 0.09061 0.0
C763 C 0.40932 0.48548 0.04987 0.0
C764 C 0.40042 0.51104 0.05994 0.0
C765 C 0.38894 0.51804 0.10862 0.0
C766 C 0.38254 0.54757 0.10901 0.0
C767 C 0.35249 0.55216 0.11572 0.0
C768 C 0.39853 0.5619 0.15336 0.0
C769 C 0.39189 0.55575 0.05271 0.0
C770 C 0.40197 0.53411 1.02542 0.0
C771 C 0.41121 0.53591 0.97255 0.0
C772 C 0.40994 0.56039 0.94638 0.0
C773 C 0.3998 0.58303 0.97296 0.0
C774 C 0.39096 0.5808 1.02726 0.0
H775 H 0.56577 0.58868 0.07757 0.0
H776 H 0.59511 0.66928 0.07594 0.0
H777 H 0.55979 0.68166 1.01015 0.0
H778 H 0.54964 0.58542 0.93434 0.0
H779 H 0.52024 0.56556 0.94421 0.0
H780 H 0.5476 0.56323 0.99137 0.0
H781 H 0.51571 0.57428 0.07048 0.0
H782 H 0.48829 0.57664 1.02353 0.0
H783 H 0.49599 0.60405 0.06751 0.0
H784 H 0.52045 0.68542 0.9468 0.0
H785 H 0.48074 0.68021 0.88825 0.0
H786 H 0.47788 0.59662 0.92752 0.0
C787 C 0.56476 0.60887 0.06302 0.0
C788 C 0.58307 0.62812 0.08143 0.0
C789 C 0.58119 0.65436 0.06201 0.0
C790 C 0.56123 0.66151 1.02474 0.0
C791 C 0.54345 0.64209 1.00708 0.0
C792 C 0.54508 0.61627 1.02536 0.0
C793 C 0.52361 0.5992 0.99963 0.0
C794 C 0.53602 0.57704 0.96535 0.0
C795 C 0.50479 0.58788 0.04287 0.0
C796 C 0.50952 0.61947 0.96428 0.0
C797 C 0.52124 0.64411 0.96942 0.0
C798 C 0.51127 0.66618 0.94217 0.0
C799 C 0.48872 0.66305 0.90902 0.0
C800 C 0.4764 0.63802 0.90308 0.0
C801 C 0.48712 0.61592 0.93079 0.0
H802 H 0.64735 0.51005 0.18571 0.0
H803 H 0.61045 0.57011 0.08528 0.0
H804 H 0.60535 0.53829 1.01142 0.0
H805 H 0.68185 0.47402 0.07702 0.0
H806 H 0.67477 0.44175 0.10463 0.0
H807 H 0.67792 0.46985 0.14908 0.0
H808 H 0.63119 0.46002 0.18806 0.0
H809 H 0.62779 0.43206 0.14334 0.0
H810 H 0.60305 0.45788 0.14276 0.0
H811 H 0.60342 0.50093 0.9488 0.0
H812 H 0.60374 0.45881 0.89941 0.0
H813 H 0.63841 0.41949 0.03928 0.0
C814 C 0.63879 0.51649 0.14761 0.0
C815 C 0.63025 0.54303 0.14047 0.0
C816 C 0.61805 0.55041 0.09108 0.0
C817 C 0.61484 0.53228 0.04889 0.0
C818 C 0.62326 0.50637 0.05698 0.0
C819 C 0.63483 0.49822 0.10503 0.0
C820 C 0.64056 0.46856 0.10321 0.0
C821 C 0.67056 0.46324 0.10881 0.0
C822 C 0.6247 0.45376 0.14695 0.0
C823 C 0.63053 0.4616 0.04661 0.0
C824 C 0.62082 0.48395 1.02098 0.0
C825 C 0.61093 0.48325 0.96836 0.0
C826 C 0.61124 0.45919 0.9406 0.0
C827 C 0.6211 0.43585 0.96533 0.0
C828 C 0.63055 0.43697 1.01951 0.0
H829 H 0.44778 0.42495 0.04388 0.0
H830 H 0.44271 0.34461 0.10438 0.0
H831 H 0.47836 0.33109 0.04091 0.0
H832 H 0.46212 0.41017 0.90403 0.0
H833 H 0.48567 0.43685 0.89673 0.0
H834 H 0.45867 0.43972 0.94421 0.0
H835 H 0.4923 0.44894 1.02167 0.0
H836 H 0.5194 0.44626 0.97448 0.0
H837 H 0.51891 0.42577 0.03426 0.0
H838 H 0.5138 0.32636 0.96874 0.0
H839 H 0.55041 0.33171 0.90293 0.0
H840 H 0.53523 0.41611 0.89636 0.0
C841 C 0.45397 0.4045 0.0435 0.0
C842 C 0.44234 0.3857 0.07853 0.0
C843 C 0.45143 0.35923 0.07765 0.0
C844 C 0.47153 0.35139 0.0416 0.0
C845 C 0.48262 0.37041 1.00742 0.0
C846 C 0.47448 0.39653 1.00878 0.0
C847 C 0.4909 0.41347 0.97071 0.0
C848 C 0.47328 0.42577 0.92628 0.0
C849 C 0.50629 0.43487 1.00217 0.0
C850 C 0.50955 0.39282 0.94758 0.0
C851 C 0.50413 0.36803 0.96858 0.0
C852 C 0.51841 0.34573 0.95259 0.0
C853 C 0.5392 0.34896 0.91528 0.0
C854 C 0.54603 0.37437 0.8955 0.0
C855 C 0.53062 0.39646 0.91116 0.0
H856 H 0.87981 0.45806 0.85802 0.0
H857 H 0.92428 0.40663 0.75058 0.0
H858 H 0.92234 0.44048 0.67915 0.0
H859 H 0.83675 0.48481 0.75391 0.0
H860 H 0.83605 0.51803 0.77978 0.0
H861 H 0.84026 0.49055 0.82564 0.0
H862 H 0.88397 0.50951 0.8635 0.0
H863 H 0.88012 0.53812 0.82072 0.0
H864 H 0.91023 0.51885 0.81769 0.0
H865 H 0.91798 0.48069 0.62073 0.0
H866 H 0.91143 0.52484 0.57958 0.0
H867 H 0.86935 0.55047 0.72282 0.0
C868 C 0.88914 0.45392 0.81948 0.0
C869 C 0.90214 0.42948 0.81008 0.0
C870 C 0.91401 0.42495 0.75889 0.0
C871 C 0.91304 0.44414 0.7179 0.0
C872 C 0.90002 0.46789 0.72834 0.0
C873 C 0.88827 0.47292 0.7778 0.0
C874 C 0.87576 0.50029 0.77832 0.0
C875 C 0.84541 0.4983 0.78487 0.0
C876 C 0.88827 0.51771 0.82269 0.0
C877 C 0.88303 0.51009 0.72206 0.0
C878 C 0.89683 0.49094 0.69383 0.0
C879 C 0.90684 0.4957 0.64215 0.0
C880 C 0.90299 0.5208 0.61905 0.0
C881 C 0.88903 0.5408 0.64719 0.0
C882 C 0.87881 0.53525 0.69924 0.0
H883 H 0.54023 0.15771 0.38531 0.0
H884 H 0.54177 0.07524 0.43426 0.0
H885 H 0.50206 0.06658 0.37874 0.0
H886 H 0.46876 0.1654 0.37452 0.0
H887 H 0.46989 0.18524 0.31387 0.0
H888 H 0.49734 0.18592 0.36102 0.0
H889 H 0.52942 0.17326 0.28386 0.0
H890 H 0.50223 0.17188 0.23628 0.0
H891 H 0.52354 0.14351 0.24543 0.0
H892 H 0.46211 0.06634 0.31952 0.0
H893 H 0.42563 0.07404 0.25411 0.0
H894 H 0.4522 0.15496 0.23192 0.0
C895 C 0.5325 0.13779 0.3835 0.0
C896 C 0.54454 0.11708 0.41355 0.0
C897 C 0.53306 0.09147 0.41167 0.0
C898 C 0.51046 0.08629 0.38011 0.0
C899 C 0.49957 0.10682 0.34974 0.0
C900 C 0.51026 0.13202 0.35053 0.0
C901 C 0.49523 0.15003 0.31154 0.0
C902 C 0.48202 0.17301 0.34207 0.0
C903 C 0.51371 0.16026 0.26661 0.0
C904 C 0.47449 0.13096 0.28906 0.0
C905 C 0.47721 0.10627 0.31255 0.0
C906 C 0.45989 0.08553 0.30051 0.0
C907 C 0.43922 0.09007 0.26344 0.0
C908 C 0.43633 0.11495 0.2378 0.0
C909 C 0.45428 0.13565 0.25052 0.0
H910 H 0.11616 0.58837 0.773 0.0
H911 H 0.14071 0.54702 0.91959 0.0
H912 H 0.14698 0.50646 0.86798 0.0
H913 H 0.08006 0.53422 0.71254 0.0
H914 H 0.09117 0.54078 0.64448 0.0
H915 H 0.08894 0.56739 0.69275 0.0
H916 H 0.13974 0.57868 0.67784 0.0
H917 H 0.13999 0.55286 0.62737 0.0
H918 H 0.16359 0.55228 0.68254 0.0
H919 H 0.15014 0.47003 0.80416 0.0
H920 H 0.14942 0.43879 0.72902 0.0
H921 H 0.12337 0.50063 0.61956 0.0
C922 C 0.12289 0.57079 0.79406 0.0
C923 C 0.12789 0.57121 0.8507 0.0
C924 C 0.1367 0.54762 0.87649 0.0
C925 C 0.14039 0.52425 0.84749 0.0
C926 C 0.13532 0.52443 0.79224 0.0
C927 C 0.12683 0.54691 0.76537 0.0
C928 C 0.12299 0.54099 0.7053 0.0
C929 C 0.09407 0.54615 0.68772 0.0
C930 C 0.14271 0.55717 0.67118 0.0
C931 C 0.12979 0.51158 0.70352 0.0
C932 C 0.13725 0.5028 0.75431 0.0
C933 C 0.14467 0.47673 0.76397 0.0
C934 C 0.14458 0.45903 0.7206 0.0
C935 C 0.13723 0.46717 0.66793 0.0
C936 C 0.12942 0.49386 0.65936 0.0
H937 H 0.57953 0.92596 0.25772 0.0
H938 H 0.58336 0.84395 0.20708 0.0
H939 H 0.54576 0.83311 0.26735 0.0
H940 H 0.55974 0.91473 0.39809 0.0
H941 H 0.53668 0.94204 0.39963 0.0
H942 H 0.56529 0.9433 0.35584 0.0
H943 H 0.53454 0.95166 0.27331 0.0
H944 H 0.50581 0.95046 0.31669 0.0
H945 H 0.50788 0.92879 0.25894 0.0
H946 H 0.50856 0.83074 0.3329 0.0
H947 H 0.47019 0.83756 0.39302 0.0
H948 H 0.48648 0.92189 0.39639 0.0
C949 C 0.57253 0.90572 0.26002 0.0
C950 C 0.58442 0.88563 0.22839 0.0
C951 C 0.5745 0.8595 0.23122 0.0
C952 C 0.55325 0.85317 0.26545 0.0
C953 C 0.54176 0.87332 0.2959 0.0
C954 C 0.55071 0.89916 0.29307 0.0
C955 C 0.53335 0.91723 0.32732 0.0
C956 C 0.54975 0.93008 0.37293 0.0
C957 C 0.51958 0.93827 0.29195 0.0
C958 C 0.51335 0.89745 0.34976 0.0
C959 C 0.51897 0.87221 0.3316 0.0
C960 C 0.5038 0.85043 0.34701 0.0
C961 C 0.482 0.85453 0.38115 0.0
C962 C 0.47503 0.88027 0.39863 0.0
C963 C 0.49119 0.902 0.38328 0.0
H964 H 0.92388 0.98542 0.64689 0.0
H965 H 0.83881 0.97066 0.64555 0.0
H966 H 0.83228 0.00895 0.58452 0.0
H967 H 0.91847 0.05787 0.64795 0.0
H968 H 0.94726 0.06244 0.60556 0.0
H969 H 0.9452 0.03408 0.64964 0.0
H970 H 0.95242 1.00309 0.56747 0.0
H971 H 0.95438 0.03138 0.52325 0.0
H972 H 0.93049 1.00558 0.50975 0.0
H973 H 0.83542 0.04635 0.51779 0.0
H974 H 0.8474 0.08337 0.45692 0.0
H975 H 0.92986 0.07688 0.50723 0.0
C976 C 0.90385 0.99041 0.6341 0.0
C977 C 0.88185 0.97479 0.65017 0.0
C978 C 0.85597 0.98208 0.63299 0.0
C979 C 0.85207 1.00383 0.59845 0.0
C980 C 0.87422 0.0185 0.58241 0.0
C981 C 0.89957 0.01241 0.60036 0.0
C982 C 0.91991 0.03161 0.57737 0.0
C983 C 0.93351 0.04744 0.62285 0.0
C984 C 0.94051 0.01704 0.54238 0.0
C985 C 0.90208 0.04921 0.54305 0.0
C986 C 0.87582 0.04109 0.54623 0.0
C987 C 0.85582 0.05315 0.51568 0.0
C988 C 0.86279 0.07407 0.48114 0.0
C989 C 0.8894 0.08306 0.4781 0.0
C990 C 0.90928 0.07061 0.50972 0.0
H991 H 0.07707 0.08666 0.54583 0.0
H992 H 0.08593 0.16834 0.59596 0.0
H993 H 0.04885 0.18132 0.53551 0.0
H994 H 0.05818 0.09888 0.40539 0.0
H995 H 0.03355 0.07295 0.40342 0.0
H996 H 0.06193 0.07008 0.4479 0.0
H997 H 0.03052 0.06365 0.5298 0.0
H998 H 1.00204 0.06644 0.48564 0.0
H999 H 1.00522 0.08804 0.54331 0.0
H1000 H 0.0112 0.18568 0.47 0.0
H1001 H 0.97254 0.18076 0.40894 0.0
H1002 H 0.98503 0.09584 0.40499 0.0
C1003 C 0.07127 0.10727 0.54341 0.0
C1004 C 0.08443 0.12665 0.57492 0.0
C1005 C 0.07609 0.15332 0.57188 0.0
C1006 C 0.05512 0.16086 0.53758 0.0
C1007 C 0.04236 0.14138 0.50717 0.0
C1008 C 0.04983 0.11507 0.51014 0.0
C1009 C 0.03154 0.098 0.47555 0.0
C1010 C 0.04724 0.08416 0.43038 0.0
C1011 C 0.01644 0.07785 0.51067 0.0
C1012 C 0.01282 0.11886 0.45257 0.0
C1013 C 0.01967 0.14376 0.47101 0.0
C1014 C 1.00555 0.16627 0.45549 0.0
C1015 C 0.9836 0.16328 0.42079 0.0
C1016 C 0.97561 0.13793 0.4026 0.0
C1017 C 0.99064 0.11547 0.41831 0.0
H1018 H 0.09389 0.93547 0.5188 0.0
H1019 H 0.17489 0.93223 0.45907 0.0
H1020 H 0.18716 0.9697 0.51827 0.0
H1021 H 0.09011 1.00609 0.51972 0.0
H1022 H 0.06997 0.0081 0.57984 0.0
H1023 H 0.06804 0.97928 0.53721 0.0
H1024 H 0.07935 0.94937 0.61918 0.0
H1025 H 0.08139 0.97806 0.66227 0.0
H1026 H 0.10916 0.95559 0.65794 0.0
H1027 H 0.19087 1.00726 0.58352 0.0
H1028 H 0.18483 0.04599 0.64289 0.0
H1029 H 0.10044 0.02863 0.65434 0.0
C1030 C 0.11425 0.94252 0.51884 0.0
C1031 C 0.13357 0.93085 0.48481 0.0
C1032 C 0.15986 0.94089 0.48493 0.0
C1033 C 0.16703 0.96208 0.51859 0.0
C1034 C 0.14755 0.97337 0.5513 0.0
C1035 C 0.1216 0.96424 0.55123 0.0
C1036 C 0.10415 0.98139 0.58713 0.0
C1037 C 0.08175 0.99449 0.55398 0.0
C1038 C 0.09285 0.96513 0.63444 0.0
C1039 C 0.12433 1.0017 0.60688 0.0
C1040 C 0.14932 0.99628 0.5865 0.0
C1041 C 0.17135 0.01185 0.59934 0.0
C1042 C 0.1677 0.03387 0.633 0.0
C1043 C 0.14212 0.04066 0.6524 0.0
C1044 C 0.12022 0.02407 0.63974 0.0
H1045 H 0.05526 0.91508 0.45651 0.0
H1046 H 0.03029 0.85049 0.35289 0.0
H1047 H 0.98763 0.84757 0.40244 0.0
H1048 H 0.02873 0.88612 0.57854 0.0
H1049 H 0.01895 0.9172 0.60818 0.0
H1050 H 0.04657 0.91601 0.56197 0.0
H1051 H 0.02415 0.95134 0.50147 0.0
H1052 H 0.99645 0.95287 0.5475 0.0
H1053 H 0.99076 0.94591 0.47682 0.0
H1054 H 0.94703 0.85308 0.45989 0.0
H1055 H 0.91308 0.86247 0.52957 0.0
H1056 H 0.96606 0.9195 0.60452 0.0
C1057 C 0.04055 0.90063 0.44398 0.0
C1058 C 0.04559 0.88337 0.40014 0.0
C1059 C 0.02647 0.86407 0.38588 0.0
C1060 C 1.00226 0.8623 0.41376 0.0
C1061 C 0.99779 0.87951 0.45688 0.0
C1062 C 0.01656 0.89799 0.47271 0.0
C1063 C 1.00744 0.9127 0.52304 0.0
C1064 C 0.02656 0.90769 0.57075 0.0
C1065 C 1.00453 0.94247 0.51149 0.0
C1066 C 0.9805 0.89979 0.53255 0.0
C1067 C 0.97521 0.88104 0.4932 0.0
C1068 C 0.95109 0.86741 0.49136 0.0
C1069 C 0.93192 0.8729 0.53095 0.0
C1070 C 0.93717 0.89136 0.57264 0.0
C1071 C 0.96182 0.90493 0.57355 0.0
H1072 H 0.32431 0.20564 0.13344 0.0
H1073 H 0.40862 0.18779 0.14409 0.0
H1074 H 0.41827 0.23531 0.15879 0.0
H1075 H 0.33139 0.26861 0.06264 0.0
H1076 H 0.30405 0.28367 0.09827 0.0
H1077 H 0.30425 0.24849 0.08672 0.0
H1078 H 0.29895 0.24054 0.18981 0.0
H1079 H 0.29917 0.27568 0.20177 0.0
H1080 H 0.32284 0.25469 0.23612 0.0
H1081 H 0.41831 0.28482 0.17695 0.0
H1082 H 0.40927 0.33259 0.18813 0.0
H1083 H 0.32491 0.31806 0.16459 0.0
C1084 C 0.34485 0.21177 0.13818 0.0
C1085 C 0.36574 0.19301 0.13761 0.0
C1086 C 0.39232 0.20182 0.14412 0.0
C1087 C 0.39796 0.22876 0.1528 0.0
C1088 C 0.37682 0.24666 0.15455 0.0
C1089 C 0.35082 0.23855 0.14668 0.0
C1090 C 0.33169 0.2617 0.15036 0.0
C1091 C 0.31698 0.26586 0.09628 0.0
C1092 C 0.312 0.25791 0.19731 0.0
C1093 C 0.35093 0.28413 0.16184 0.0
C1094 C 0.37686 0.27504 0.1644 0.0
C1095 C 0.39808 0.29212 0.17476 0.0
C1096 C 0.39274 0.31923 0.18133 0.0
C1097 C 0.36639 0.32909 0.17722 0.0
C1098 C 0.34524 0.31114 0.16815 0.0
H1099 H 0.31699 0.69399 0.93456 0.0
H1100 H 0.33527 0.61707 0.86702 0.0
H1101 H 0.28758 0.60434 0.87528 0.0
H1102 H 0.27045 0.67337 0.03149 0.0
H1103 H 0.24873 0.70146 1.023 0.0
H1104 H 0.28375 0.70467 1.00928 0.0
H1105 H 0.27348 0.72125 0.91205 0.0
H1106 H 0.23841 0.71869 0.92587 0.0
H1107 H 0.25238 0.70173 0.86845 0.0
H1108 H 0.23762 0.59958 0.89831 0.0
H1109 H 0.18988 0.60527 0.92039 0.0
H1110 H 0.20535 0.68613 0.96976 0.0
C1111 C 0.3109 0.67459 0.92062 0.0
C1112 C 0.3297 0.65649 0.90002 0.0
C1113 C 0.32106 0.6313 0.88234 0.0
C1114 C 0.29409 0.62387 0.8874 0.0
C1115 C 0.27614 0.64203 0.90959 0.0
C1116 C 0.28422 0.66709 0.92478 0.0
C1117 C 0.26134 0.68323 0.94687 0.0
C1118 C 0.26638 0.69114 1.00617 0.0
C1119 C 0.25609 0.70766 0.91117 0.0
C1120 C 0.23896 0.66334 0.94243 0.0
C1121 C 0.24782 0.63957 0.92139 0.0
C1122 C 0.23055 0.61819 0.91442 0.0
C1123 C 0.20349 0.62153 0.92756 0.0
C1124 C 0.19393 0.64615 0.94692 0.0
C1125 C 0.21209 0.66706 0.95523 0.0
H1126 H 0.69912 0.80858 0.14072 0.0
H1127 H 0.6145 0.82494 0.12994 0.0
H1128 H 0.60481 0.77773 0.14759 0.0
H1129 H 0.69659 0.74379 0.07564 0.0
H1130 H 0.72209 0.73011 0.11891 0.0
H1131 H 0.72205 0.76496 0.10357 0.0
H1132 H 0.72185 0.77543 0.20625 0.0
H1133 H 0.72142 0.74062 0.2219 0.0
H1134 H 0.69586 0.762 0.24829 0.0
H1135 H 0.60442 0.72879 0.17092 0.0
H1136 H 0.61338 0.68142 0.18833 0.0
H1137 H 0.69828 0.6969 0.18299 0.0
C1138 C 0.67855 0.80217 0.14129 0.0
C1139 C 0.65755 0.8205 0.13399 0.0
C1140 C 0.63091 0.81129 0.13529 0.0
C1141 C 0.62522 0.78451 0.14559 0.0
C1142 C 0.64638 0.7671 0.15418 0.0
C1143 C 0.67253 0.77549 0.15135 0.0
C1144 C 0.69162 0.75279 0.1619 0.0
C1145 C 0.70912 0.7476 0.11203 0.0
C1146 C 0.70869 0.75804 0.2126 0.0
C1147 C 0.67217 0.73031 0.17135 0.0
C1148 C 0.64616 0.739 0.16707 0.0
C1149 C 0.62472 0.72179 0.17416 0.0
C1150 C 0.63001 0.69493 0.1844 0.0
C1151 C 0.65652 0.68542 0.18715 0.0
C1152 C 0.6778 0.70355 0.18142 0.0
H1153 H 0.8187 0.31957 0.92019 0.0
H1154 H 0.83614 0.40362 0.92006 0.0
H1155 H 0.78835 0.41329 0.90468 0.0
H1156 H 0.77124 0.32083 0.81447 0.0
H1157 H 0.74991 0.29606 0.84398 0.0
H1158 H 0.78506 0.29586 0.85854 0.0
H1159 H 0.77543 0.29785 0.96152 0.0
H1160 H 0.74025 0.29757 0.94733 0.0
H1161 H 0.75443 0.32376 0.98763 0.0
H1162 H 0.73836 0.41333 0.8848 0.0
H1163 H 0.69048 0.40381 0.8697 0.0
H1164 H 0.70682 0.31972 0.88117 0.0
C1165 C 0.81243 0.34004 0.91781 0.0
C1166 C 0.83111 0.36086 0.92145 0.0
C1167 C 0.82212 0.38737 0.9177 0.0
C1168 C 0.79505 0.39304 0.90866 0.0
C1169 C 0.77726 0.37196 0.90355 0.0
C1170 C 0.7856 0.346 0.90861 0.0
C1171 C 0.76274 0.32687 0.90067 0.0
C1172 C 0.76754 0.30885 0.85149 0.0
C1173 C 0.75793 0.31056 0.95237 0.0
C1174 C 0.74018 0.34604 0.89011 0.0
C1175 C 0.74886 0.37198 0.89182 0.0
C1176 C 0.73138 0.39308 0.88352 0.0
C1177 C 0.70427 0.3875 0.87464 0.0
C1178 C 0.69496 0.36104 0.87417 0.0
C1179 C 0.71333 0.34015 0.88108 0.0
H1180 H 0.82282 0.70279 0.64683 0.0
H1181 H 0.90701 0.68695 0.62546 0.0
H1182 H 0.91697 0.73429 0.64 0.0
H1183 H 0.82253 0.76688 0.57901 0.0
H1184 H 0.7986 0.78089 0.62501 0.0
H1185 H 0.79831 0.74589 0.61142 0.0
H1186 H 0.80238 0.73651 0.71432 0.0
H1187 H 0.80315 0.77149 0.72813 0.0
H1188 H 0.82976 0.75054 0.75197 0.0
H1189 H 0.91792 0.78339 0.66048 0.0
H1190 H 0.90922 0.83099 0.67606 0.0
H1191 H 0.82449 0.8148 0.68359 0.0
C1192 C 0.84331 0.70935 0.64447 0.0
C1193 C 0.86415 0.69115 0.63501 0.0
C1194 C 0.89071 0.70052 0.63255 0.0
C1195 C 0.89659 0.72737 0.64104 0.0
C1196 C 0.87567 0.7447 0.65171 0.0
C1197 C 0.84953 0.73613 0.65274 0.0
C1198 C 0.83073 0.75882 0.66478 0.0
C1199 C 0.81141 0.76339 0.61722 0.0
C1200 C 0.81562 0.75404 0.71796 0.0
C1201 C 0.85036 0.78146 0.67039 0.0
C1202 C 0.87621 0.7729 0.6631 0.0
C1203 C 0.89774 0.79032 0.66614 0.0
C1204 C 0.89263 0.81729 0.67536 0.0
C1205 C 0.86621 0.8266 0.68113 0.0
C1206 C 0.84493 0.80827 0.67957 0.0
H1207 H 0.81461 0.19759 0.38688 0.0
H1208 H 0.83258 0.11371 0.37995 0.0
H1209 H 0.78503 0.10335 0.39345 0.0
H1210 H 0.765 0.19454 0.48853 0.0
H1211 H 0.74355 0.2191 0.45836 0.0
H1212 H 0.77889 0.22024 0.44653 0.0
H1213 H 0.77082 0.21906 0.34289 0.0
H1214 H 0.73544 0.21835 0.35437 0.0
H1215 H 0.75087 0.19292 0.31415 0.0
H1216 H 0.73626 0.10202 0.41454 0.0
H1217 H 0.68833 0.1096 0.42885 0.0
H1218 H 0.70092 0.19436 0.41704 0.0
C1219 C 0.80844 0.17706 0.38746 0.0
C1220 C 0.82732 0.15642 0.38279 0.0
C1221 C 0.8185 0.12981 0.38365 0.0
C1222 C 0.79153 0.12374 0.39152 0.0
C1223 C 0.77354 0.1445 0.39762 0.0
C1224 C 0.78149 0.17064 0.39455 0.0
C1225 C 0.75795 0.18916 0.40153 0.0
C1226 C 0.76158 0.2068 0.45173 0.0
C1227 C 0.75351 0.20585 0.35017 0.0
C1228 C 0.7356 0.16935 0.40961 0.0
C1229 C 0.74514 0.14372 0.40773 0.0
C1230 C 0.72851 0.12199 0.41543 0.0
C1231 C 0.7013 0.12652 0.42376 0.0
C1232 C 0.69083 0.15254 0.42363 0.0
C1233 C 0.70834 0.17424 0.41721 0.0
H1234 H 0.20052 0.31175 0.60922 0.0
H1235 H 0.11589 0.32869 0.60527 0.0
H1236 H 0.10622 0.28157 0.62384 0.0
H1237 H 0.19629 0.24604 0.54596 0.0
H1238 H 0.22255 0.23279 0.58785 0.0
H1239 H 0.22237 0.26743 0.5706 0.0
H1240 H 0.22432 0.27919 0.67265 0.0
H1241 H 0.22395 0.24461 0.69025 0.0
H1242 H 0.19908 0.26653 0.71748 0.0
H1243 H 0.10602 0.23278 0.65001 0.0
H1244 H 0.11529 0.18571 0.67082 0.0
H1245 H 0.19996 0.20085 0.65666 0.0
C1246 C 0.17994 0.30547 0.61107 0.0
C1247 C 0.15896 0.32396 0.60572 0.0
C1248 C 0.1323 0.31491 0.60896 0.0
C1249 C 0.12661 0.28818 0.61985 0.0
C1250 C 0.14779 0.27065 0.62697 0.0
C1251 C 0.17392 0.27887 0.62179 0.0
C1252 C 0.19308 0.25622 0.63203 0.0
C1253 C 0.20954 0.25027 0.58107 0.0
C1254 C 0.21117 0.26199 0.68102 0.0
C1255 C 0.17371 0.23402 0.64426 0.0
C1256 C 0.14767 0.24272 0.64142 0.0
C1257 C 0.12635 0.22575 0.65185 0.0
C1258 C 0.13179 0.19907 0.66392 0.0
C1259 C 0.15831 0.18956 0.6651 0.0
C1260 C 0.17947 0.20749 0.65606 0.0
H1261 H 0.31366 0.84992 0.33564 0.0
H1262 H 0.33315 0.88202 0.49351 0.0
H1263 H 0.28509 0.88969 0.51066 0.0
H1264 H 0.25702 0.89456 0.306 0.0
H1265 H 0.23844 0.86879 0.27247 0.0
H1266 H 0.27432 0.86849 0.27093 0.0
H1267 H 0.27453 0.82111 0.31113 0.0
H1268 H 0.23875 0.82123 0.31265 0.0
H1269 H 0.25735 0.8148 0.37382 0.0
H1270 H 0.23478 0.88848 0.51422 0.0
H1271 H 0.18668 0.87922 0.50408 0.0
H1272 H 0.19996 0.84982 0.34183 0.0
C1273 C 0.30785 0.85896 0.37355 0.0
C1274 C 0.32707 0.86551 0.41333 0.0
C1275 C 0.31875 0.87714 0.46243 0.0
C1276 C 0.29151 0.88153 0.47237 0.0
C1277 C 0.27302 0.87453 0.43239 0.0
C1278 C 0.28091 0.86369 0.38373 0.0
C1279 C 0.25717 0.85645 0.34857 0.0
C1280 C 0.25672 0.87307 0.2964 0.0
C1281 C 0.25694 0.82664 0.33583 0.0
C1282 C 0.23451 0.864 0.38573 0.0
C1283 C 0.24408 0.87458 0.43376 0.0
C1284 C 0.2271 0.88078 0.47638 0.0
C1285 C 0.19984 0.87547 0.47028 0.0
C1286 C 0.18974 0.8644 0.42178 0.0
C1287 C 0.20717 0.85913 0.37854 0.0
H1288 H 0.19781 0.12212 0.85933 0.0
H1289 H 0.24613 0.08709 0.73284 0.0
H1290 H 0.28319 0.08209 0.79794 0.0
H1291 H 0.25189 0.15885 0.924 0.0
H1292 H 0.23842 0.15397 0.99085 0.0
H1293 H 0.21661 0.15478 0.93282 0.0
H1294 H 0.19838 0.10825 0.96253 0.0
H1295 H 0.22122 0.10805 1.01892 0.0
H1296 H 0.22151 0.08131 0.97066 0.0
H1297 H 0.31553 0.08217 0.87495 0.0
H1298 H 0.3416 0.08761 0.95868 0.0
H1299 H 0.27297 0.12177 0.03858 0.0
C1300 C 0.21614 0.11335 0.84521 0.0
C1301 C 0.21887 0.10496 0.79049 0.0
C1302 C 0.24336 0.09366 0.77416 0.0
C1303 C 0.26457 0.09069 0.81101 0.0
C1304 C 0.26114 0.09903 0.86443 0.0
C1305 C 0.23759 0.11021 0.88162 0.0
C1306 C 0.23951 0.1181 0.94117 0.0
C1307 C 0.23641 0.1482 0.94762 0.0
C1308 C 0.21893 0.10303 0.97534 0.0
C1309 C 0.26776 0.10939 0.9549 0.0
C1310 C 0.27979 0.09858 0.90967 0.0
C1311 C 0.30619 0.09032 0.91067 0.0
C1312 C 0.32085 0.09349 0.9586 0.0
C1313 C 0.30929 0.10472 1.00561 0.0
C1314 C 0.28218 0.11248 1.00389 0.0
H1315 H 0.12044 0.73867 0.03138 0.0
H1316 H 0.08702 0.6724 0.12034 0.0
H1317 H 0.08217 0.70023 0.20074 0.0
H1318 H 0.15816 0.76505 0.14107 0.0
H1319 H 0.15207 0.79943 0.12598 0.0
H1320 H 0.15134 0.77528 0.07242 0.0
H1321 H 0.10387 0.79022 0.04605 0.0
H1322 H 0.10437 0.81445 0.09952 0.0
H1323 H 0.07803 0.79029 0.09654 0.0
H1324 H 0.0838 0.7332 0.2745 0.0
H1325 H 0.08949 0.77106 0.33618 0.0
H1326 H 0.12089 0.81773 0.20308 0.0
C1327 C 0.11153 0.7303 0.06738 0.0
C1328 C 0.10412 0.70318 0.0691 0.0
C1329 C 0.093 0.69296 0.11764 0.0
C1330 C 0.09009 0.70865 0.16384 0.0
C1331 C 0.0982 0.7349 0.16163 0.0
C1332 C 0.10843 0.74592 0.11471 0.0
C1333 C 0.11631 0.77466 0.12503 0.0
C1334 C 0.14625 0.77884 0.11557 0.0
C1335 C 0.09965 0.79352 0.08968 0.0
C1336 C 0.10932 0.7776 0.18491 0.0
C1337 C 0.09887 0.75435 0.20491 0.0
C1338 C 0.09171 0.75166 0.25921 0.0
C1339 C 0.09512 0.77333 0.29414 0.0
C1340 C 0.10559 0.79762 0.27501 0.0
C1341 C 0.11271 0.79962 0.21934 0.0
H1342 H 0.69744 0.89741 0.94309 0.0
H1343 H 0.74796 0.91862 0.0794 0.0
H1344 H 0.78564 0.92489 1.01713 0.0
H1345 H 0.7466 0.86061 0.87001 0.0
H1346 H 0.73589 0.87171 0.80402 0.0
H1347 H 0.71237 0.86993 0.85879 0.0
H1348 H 0.70061 0.91955 0.84477 0.0
H1349 H 0.72394 0.92095 0.78955 0.0
H1350 H 0.7269 0.94377 0.8453 0.0
H1351 H 0.81802 0.92808 0.94218 0.0
H1352 H 0.8445 0.92596 0.85916 0.0
H1353 H 0.77455 0.90198 0.7678 0.0
C1354 C 0.71638 0.90344 0.95992 0.0
C1355 C 0.71954 0.90751 1.01662 0.0
C1356 C 0.74482 0.91536 0.03651 0.0
C1357 C 0.7664 0.91907 1.0013 0.0
C1358 C 0.76257 0.91493 0.94596 0.0
C1359 C 0.73828 0.90722 0.92515 0.0
C1360 C 0.74001 0.90339 0.8639 0.0
C1361 C 0.73333 0.8747 0.84827 0.0
C1362 C 0.72178 0.92308 0.83411 0.0
C1363 C 0.76926 0.90971 0.85377 0.0
C1364 C 0.78162 0.91658 0.90196 0.0
C1365 C 0.80854 0.9228 0.90428 0.0
C1366 C 0.82344 0.92146 0.85665 0.0
C1367 C 0.81175 0.91376 0.80666 0.0
C1368 C 0.78404 0.90827 0.80504 0.0
H1369 H 0.90147 0.26964 1.01414 0.0
H1370 H 0.93855 0.33621 0.09587 0.0
H1371 H 0.9427 0.30998 0.17907 0.0
H1372 H 0.86311 0.24845 0.12648 0.0
H1373 H 0.86691 0.21341 0.11563 0.0
H1374 H 0.86869 0.23592 0.05912 0.0
H1375 H 0.91487 0.2177 0.03363 0.0
H1376 H 0.91347 0.19486 0.08965 0.0
H1377 H 0.94116 0.21731 0.08354 0.0
H1378 H 0.94043 0.2785 0.25576 0.0
H1379 H 0.93343 0.24217 0.32088 0.0
H1380 H 0.89781 0.19477 0.19303 0.0
C1381 C 0.91107 0.27835 0.04915 0.0
C1382 C 0.91985 0.30504 0.04811 0.0
C1383 C 0.93169 0.31588 0.0954 0.0
C1384 C 0.93418 0.30112 0.14309 0.0
C1385 C 0.92478 0.27526 0.14353 0.0
C1386 C 0.91364 0.26374 0.09791 0.0
C1387 C 0.90414 0.23581 0.1111 0.0
C1388 C 0.87391 0.23326 0.10256 0.0
C1389 C 0.91932 0.21521 0.07746 0.0
C1390 C 0.91144 0.23382 0.17101 0.0
C1391 C 0.92338 0.25684 0.18861 0.0
C1392 C 0.93132 0.26022 0.24239 0.0
C1393 C 0.92718 0.23945 0.27924 0.0
C1394 C 0.91513 0.21547 0.2625 0.0
C1395 C 0.90716 0.21276 0.2074 0.0
H1396 H 0.32782 0.39593 0.35901 0.0
H1397 H 0.28556 0.44019 0.2348 0.0
H1398 H 0.24835 0.44713 0.29803 0.0
H1399 H 0.27105 0.36258 0.41275 0.0
H1400 H 0.28209 0.36405 0.48222 0.0
H1401 H 0.30611 0.36379 0.42828 0.0
H1402 H 0.32655 0.4077 0.46511 0.0
H1403 H 0.30255 0.40732 0.51915 0.0
H1404 H 0.30516 0.43579 0.47543 0.0
H1405 H 0.21536 0.44865 0.37257 0.0
H1406 H 0.18683 0.44222 0.45199 0.0
H1407 H 0.24876 0.39594 0.53012 0.0
C1408 C 0.31085 0.40725 0.34515 0.0
C1409 C 0.30981 0.41759 0.29156 0.0
C1410 C 0.287 0.43206 0.2753 0.0
C1411 C 0.26575 0.43622 0.31113 0.0
C1412 C 0.26745 0.42583 0.36341 0.0
C1413 C 0.28931 0.41153 0.38052 0.0
C1414 C 0.28538 0.4016 0.43835 0.0
C1415 C 0.2862 0.3712 0.44051 0.0
C1416 C 0.30614 0.41382 0.47678 0.0
C1417 C 0.2576 0.41207 0.45055 0.0
C1418 C 0.24796 0.4263 0.40675 0.0
C1419 C 0.22272 0.43757 0.40704 0.0
C1420 C 0.20659 0.4337 0.45246 0.0
C1421 C 0.21538 0.41849 0.49739 0.0
C1422 C 0.24156 0.40797 0.49685 0.0
H1423 H 0.39883 0.74844 0.78756 0.0
H1424 H 0.44117 0.68383 0.71073 0.0
H1425 H 0.44505 0.70979 0.6271 0.0
H1426 H 0.36131 0.767 0.67328 0.0
H1427 H 0.36309 0.80227 0.68263 0.0
H1428 H 0.36549 0.78055 0.7403 0.0
H1429 H 0.41024 0.80114 0.76793 0.0
H1430 H 0.40873 0.82346 0.71108 0.0
H1431 H 0.4372 0.80229 0.71995 0.0
H1432 H 0.44097 0.74039 0.54837 0.0
H1433 H 0.43288 0.77611 0.48206 0.0
H1434 H 0.39426 0.82238 0.60738 0.0
C1435 C 0.40964 0.74019 0.7537 0.0
C1436 C 0.4199 0.71406 0.75615 0.0
C1437 C 0.43324 0.70377 0.71016 0.0
C1438 C 0.4355 0.71835 0.66217 0.0
C1439 C 0.42448 0.74354 0.66015 0.0
C1440 C 0.41219 0.75469 0.70478 0.0
C1441 C 0.40143 0.782 0.69029 0.0
C1442 C 0.37103 0.783 0.69706 0.0
C1443 C 0.41521 0.80349 0.72435 0.0
C1444 C 0.40924 0.78404 0.63073 0.0
C1445 C 0.42246 0.76155 0.61431 0.0
C1446 C 0.43087 0.75827 0.56087 0.0
C1447 C 0.42606 0.77867 0.52328 0.0
C1448 C 0.41303 0.80227 0.53904 0.0
C1449 C 0.40444 0.80476 0.59372 0.0
H1450 H 0.74507 0.61272 0.27372 0.0
H1451 H 0.67846 0.57937 0.36197 0.0
H1452 H 0.70614 0.57593 0.44388 0.0
H1453 H 0.79833 0.57371 0.34228 0.0
H1454 H 0.82117 0.6012 0.34499 0.0
H1455 H 0.79715 0.59901 0.29076 0.0
H1456 H 0.77984 0.64568 0.31521 0.0
H1457 H 0.8038 0.64776 0.36948 0.0
H1458 H 0.76889 0.65228 0.38332 0.0
H1459 H 0.73945 0.57835 0.51842 0.0
H1460 H 0.7773 0.58536 0.58056 0.0
H1461 H 0.82364 0.61735 0.44748 0.0
C1462 C 0.73665 0.604 0.30988 0.0
C1463 C 0.70957 0.59595 0.31097 0.0
C1464 C 0.69911 0.58547 0.3598 0.0
C1465 C 0.7147 0.58345 0.40676 0.0
C1466 C 0.74099 0.59203 0.405 0.0
C1467 C 0.75207 0.60199 0.35793 0.0
C1468 C 0.78056 0.6111 0.36883 0.0
C1469 C 0.80046 0.59529 0.33464 0.0
C1470 C 0.78343 0.64098 0.3586 0.0
C1471 C 0.78355 0.60461 0.42894 0.0
C1472 C 0.76039 0.59367 0.44879 0.0
C1473 C 0.75781 0.58671 0.50324 0.0
C1474 C 0.77947 0.59084 0.5384 0.0
C1475 C 0.80366 0.60182 0.51936 0.0
C1476 C 0.80558 0.60875 0.46359 0.0
H1477 H 0.61701 0.18789 0.61604 0.0
H1478 H 0.58718 0.23516 0.48191 0.0
H1479 H 0.58304 0.27351 0.54295 0.0
H1480 H 0.57511 0.21713 0.72146 0.0
H1481 H 0.60096 0.21629 0.77225 0.0
H1482 H 0.6005 0.19196 0.71898 0.0
H1483 H 0.64851 0.20479 0.69264 0.0
H1484 H 0.64919 0.22916 0.74576 0.0
H1485 H 0.65616 0.2388 0.67694 0.0
H1486 H 0.58374 0.30713 0.61614 0.0
H1487 H 0.59038 0.33494 0.69646 0.0
H1488 H 0.61954 0.26706 0.78665 0.0
C1489 C 0.60937 0.20622 0.5995 0.0
C1490 C 0.60232 0.2083 0.54375 0.0
C1491 C 0.59261 0.23283 0.52413 0.0
C1492 C 0.59014 0.25478 0.55865 0.0
C1493 C 0.5973 0.25203 0.61305 0.0
C1494 C 0.60673 0.22841 0.63357 0.0
C1495 C 0.61396 0.23126 0.6934 0.0
C1496 C 0.59659 0.21308 0.72859 0.0
C1497 C 0.64373 0.22568 0.70271 0.0
C1498 C 0.60741 0.26032 0.70312 0.0
C1499 C 0.59771 0.2717 0.65596 0.0
C1500 C 0.59117 0.29839 0.65325 0.0
C1501 C 0.59504 0.31405 0.69931 0.0
C1502 C 0.60531 0.30326 0.74817 0.0
C1503 C 0.61119 0.27581 0.75034 0.0
H1504 H 0.36883 0.09039 0.50989 0.0
H1505 H 0.32392 0.16308 0.48901 0.0
H1506 H 0.33102 0.17384 0.58532 0.0
H1507 H 0.34464 0.07517 0.64357 0.0
H1508 H 0.37598 0.06236 0.66782 0.0
H1509 H 0.36775 0.06033 0.59688 0.0
H1510 H 0.41131 0.08507 0.57296 0.0
H1511 H 0.41968 0.08717 0.64384 0.0
H1512 H 0.41802 0.11681 0.60332 0.0
H1513 H 0.34279 0.17696 0.68381 0.0
H1514 H 0.35823 0.17219 0.77805 0.0
H1515 H 0.39532 0.09723 0.73725 0.0
C1516 C 0.36067 0.10867 0.52547 0.0
C1517 C 0.34565 0.12581 0.49159 0.0
C1518 C 0.33512 0.1494 0.51402 0.0
C1519 C 0.33919 0.15578 0.56873 0.0
C1520 C 0.35386 0.13842 0.60098 0.0
C1521 C 0.36446 0.11534 0.58032 0.0
C1522 C 0.37914 0.09999 0.62424 0.0
C1523 C 0.36609 0.07286 0.63368 0.0
C1524 C 0.4088 0.0971 0.61024 0.0
C1525 C 0.37521 0.11812 0.67266 0.0
C1526 C 0.36055 0.14016 0.65817 0.0
C1527 C 0.35418 0.15972 0.69565 0.0
C1528 C 0.36292 0.1567 0.74937 0.0
C1529 C 0.37787 0.13423 0.7657 0.0
C1530 C 0.38413 0.11476 0.72635 0.0
H1531 H 0.10062 0.67785 0.55102 0.0
H1532 H 0.10771 0.59972 0.62281 0.0
H1533 H 0.11033 0.58002 0.53205 0.0
H1534 H 0.05983 0.65772 0.43667 0.0
H1535 H 0.07555 0.68021 0.38996 0.0
H1536 H 0.07389 0.68834 0.46088 0.0
H1537 H 0.12513 0.69402 0.46354 0.0
H1538 H 0.12692 0.68583 0.39267 0.0
H1539 H 0.14612 0.66723 0.44138 0.0
H1540 H 0.11405 0.56877 0.43403 0.0
H1541 H 0.11669 0.56633 0.33476 0.0
H1542 H 0.10547 0.65145 0.32461 0.0
C1543 C 0.10284 0.65661 0.54772 0.0
C1544 C 0.10411 0.64038 0.59454 0.0
C1545 C 0.10656 0.61262 0.588 0.0
C1546 C 0.10816 0.60121 0.53644 0.0
C1547 C 0.10707 0.61776 0.49138 0.0
C1548 C 0.10427 0.64483 0.49633 0.0
C1549 C 0.10344 0.65802 0.44104 0.0
C1550 C 0.07658 0.67189 0.43159 0.0
C1551 C 0.1268 0.67742 0.43428 0.0
C1552 C 0.10651 0.63413 0.40439 0.0
C1553 C 0.1086 0.61114 0.43441 0.0
C1554 C 0.1121 0.58659 0.41002 0.0
C1555 C 0.11336 0.58541 0.35339 0.0
C1556 C 0.11093 0.60862 0.32132 0.0
C1557 C 0.10752 0.63331 0.3476 0.0
H1558 H 0.67692 0.88324 0.51508 0.0
H1559 H 0.64277 0.95969 0.4747 0.0
H1560 H 0.6286 0.96521 0.56966 0.0
H1561 H 0.62654 0.86309 0.60755 0.0
H1562 H 0.64922 0.84697 0.6537 0.0
H1563 H 0.65729 0.84932 0.58288 0.0
H1564 H 0.70194 0.87221 0.60716 0.0
H1565 H 0.69398 0.86995 0.67812 0.0
H1566 H 0.7017 0.90162 0.64843 0.0
H1567 H 0.61787 0.96231 0.66889 0.0
H1568 H 0.61052 0.95084 0.76479 0.0
H1569 H 0.65122 0.87601 0.74045 0.0
C1570 C 0.66674 0.90129 0.52629 0.0
C1571 C 0.66094 0.92103 0.48728 0.0
C1572 C 0.64715 0.94414 0.50359 0.0
C1573 C 0.63919 0.94754 0.55755 0.0
C1574 C 0.64516 0.92768 0.59485 0.0
C1575 C 0.65861 0.905 0.57997 0.0
C1576 C 0.66204 0.88642 0.62776 0.0
C1577 C 0.64792 0.85988 0.61733 0.0
C1578 C 0.69168 0.88232 0.64114 0.0
C1579 C 0.64822 0.9021 0.67172 0.0
C1580 C 0.63876 0.9259 0.65194 0.0
C1581 C 0.62512 0.94368 0.68478 0.0
C1582 C 0.62088 0.93688 0.73917 0.0
C1583 C 0.6301 0.91243 0.76033 0.0
C1584 C 0.64412 0.89497 0.7259 0.0
H1585 H 0.91117 0.35197 0.29725 0.0
H1586 H 0.90422 0.43746 0.30923 0.0
H1587 H 0.90688 0.43426 0.40839 0.0
H1588 H 0.87032 0.33749 0.41494 0.0
H1589 H 0.89013 0.30958 0.43617 0.0
H1590 H 0.88824 0.31831 0.36549 0.0
H1591 H 0.93958 0.32149 0.36157 0.0
H1592 H 0.94168 0.31284 0.43225 0.0
H1593 H 0.95689 0.34293 0.40821 0.0
H1594 H 0.91058 0.42238 0.50643 0.0
H1595 H 0.91378 0.4023 0.59719 0.0
H1596 H 0.91705 0.32422 0.52439 0.0
C1597 C 0.91001 0.37003 0.32062 0.0
C1598 C 0.90787 0.39506 0.29463 0.0
C1599 C 0.90658 0.4181 0.32739 0.0
C1600 C 0.90784 0.4165 0.38406 0.0
C1601 C 0.91018 0.39168 0.40814 0.0
C1602 C 0.91109 0.36881 0.37764 0.0
C1603 C 0.91338 0.34462 0.41418 0.0
C1604 C 0.88907 0.32643 0.40728 0.0
C1605 C 0.93944 0.32959 0.4034 0.0
C1606 C 0.91368 0.35755 0.46984 0.0
C1607 C 0.91189 0.38473 0.46519 0.0
C1608 C 0.91203 0.40111 0.51056 0.0
C1609 C 0.91404 0.38949 0.56207 0.0
C1610 C 0.91585 0.36165 0.56831 0.0
C1611 C 0.91554 0.34553 0.52124 0.0
H1612 H 0.39735 0.42176 0.57127 0.0
H1613 H 0.3624 0.34525 0.53406 0.0
H1614 H 0.34676 0.3415 0.62824 0.0
H1615 H 0.42127 0.40425 0.70385 0.0
H1616 H 0.41427 0.43621 0.73279 0.0
H1617 H 0.42185 0.43342 0.66179 0.0
H1618 H 0.37751 0.45693 0.63769 0.0
H1619 H 0.36979 0.4598 0.70862 0.0
H1620 H 0.34663 0.44383 0.66329 0.0
H1621 H 0.33535 0.34572 0.72707 0.0
H1622 H 0.32947 0.35746 0.82337 0.0
H1623 H 0.373 0.43051 0.79712 0.0
C1624 C 0.38662 0.40407 0.58286 0.0
C1625 C 0.38111 0.38383 0.54479 0.0
C1626 C 0.36656 0.36127 0.56188 0.0
C1627 C 0.35772 0.35885 0.61552 0.0
C1628 C 0.36363 0.37909 0.65187 0.0
C1629 C 0.37779 0.40125 0.63632 0.0
C1630 C 0.38179 0.42001 0.68354 0.0
C1631 C 0.41156 0.42368 0.69623 0.0
C1632 C 0.36811 0.44672 0.67262 0.0
C1633 C 0.36785 0.40484 0.72819 0.0
C1634 C 0.35738 0.38136 0.70898 0.0
C1635 C 0.34343 0.36408 0.74253 0.0
C1636 C 0.34009 0.37098 0.79712 0.0
C1637 C 0.35075 0.3949 0.81783 0.0
C1638 C 0.36486 0.41196 0.78268 0.0
H1639 H 0.40118 0.64725 0.2453 0.0
H1640 H 0.43343 0.72681 0.25696 0.0
H1641 H 0.42968 0.72472 0.35638 0.0
H1642 H 0.35472 0.65228 0.35591 0.0
H1643 H 0.36029 0.61888 0.37901 0.0
H1644 H 0.36448 0.627 0.3085 0.0
H1645 H 0.41256 0.60857 0.3116 0.0
H1646 H 0.40855 0.60041 0.38211 0.0
H1647 H 0.43573 0.62127 0.36108 0.0
H1648 H 0.42344 0.71361 0.45529 0.0
H1649 H 0.41567 0.69416 0.5455 0.0
H1650 H 0.3882 0.62155 0.46989 0.0
C1651 C 0.40762 0.66423 0.26858 0.0
C1652 C 0.41749 0.68728 0.24273 0.0
C1653 C 0.42532 0.7091 0.27526 0.0
C1654 C 0.42345 0.70804 0.33197 0.0
C1655 C 0.41378 0.685 0.35595 0.0
C1656 C 0.40602 0.66348 0.3253 0.0
C1657 C 0.39678 0.64088 0.36115 0.0
C1658 C 0.36732 0.63439 0.3505 0.0
C1659 C 0.41446 0.61633 0.35352 0.0
C1660 C 0.40072 0.653 0.41679 0.0
C1661 C 0.41043 0.67851 0.41287 0.0
C1662 C 0.41574 0.69368 0.45877 0.0
C1663 C 0.41109 0.68248 0.50996 0.0
C1664 C 0.40123 0.65629 0.51518 0.0
C1665 C 0.39598 0.64149 0.46761 0.0
H1666 H 0.6478 0.58264 0.80879 0.0
H1667 H 0.69354 0.65481 0.82959 0.0
H1668 H 0.68687 0.66556 0.73303 0.0
H1669 H 0.67224 0.56695 0.67581 0.0
H1670 H 0.64082 0.55445 0.65135 0.0
H1671 H 0.64884 0.55244 0.7224 0.0
H1672 H 0.60549 0.5777 0.74556 0.0
H1673 H 0.59733 0.57977 0.67457 0.0
H1674 H 0.59923 0.60947 0.71475 0.0
H1675 H 0.67539 0.66866 0.63431 0.0
H1676 H 0.65997 0.66386 0.54 0.0
H1677 H 0.62201 0.5894 0.58167 0.0
C1678 C 0.65621 0.60081 0.79313 0.0
C1679 C 0.67132 0.61782 0.82696 0.0
C1680 C 0.68223 0.64126 0.80452 0.0
C1681 C 0.67842 0.64763 0.74971 0.0
C1682 C 0.66364 0.63038 0.7175 0.0
C1683 C 0.6527 0.60745 0.73826 0.0
C1684 C 0.63796 0.59218 0.69446 0.0
C1685 C 0.65073 0.56489 0.68548 0.0
C1686 C 0.60824 0.58964 0.70816 0.0
C1687 C 0.64225 0.61019 0.64598 0.0
C1688 C 0.65714 0.6321 0.66027 0.0
C1689 C 0.66381 0.65152 0.62261 0.0
C1690 C 0.65509 0.6485 0.56891 0.0
C1691 C 0.63987 0.62617 0.55292 0.0
C1692 C 0.63337 0.60683 0.59239 0.0
H1693 H 0.63365 0.40061 0.46382 0.0
H1694 H 0.60989 0.32595 0.53622 0.0
H1695 H 0.60464 0.30656 0.44524 0.0
H1696 H 0.58811 0.39822 0.35052 0.0
H1697 H 0.61133 0.41267 0.30349 0.0
H1698 H 0.61337 0.42074 0.37442 0.0
H1699 H 0.66266 0.40564 0.37633 0.0
H1700 H 0.66074 0.39753 0.30541 0.0
H1701 H 0.67109 0.37279 0.35373 0.0
H1702 H 0.6012 0.29544 0.3466 0.0
H1703 H 0.60046 0.29299 0.24701 0.0
H1704 H 0.62738 0.37457 0.23793 0.0
C1705 C 0.62717 0.38024 0.46054 0.0
C1706 C 0.62225 0.3648 0.50733 0.0
C1707 C 0.61412 0.3381 0.50115 0.0
C1708 C 0.61093 0.32694 0.44958 0.0
C1709 C 0.61597 0.34268 0.40441 0.0
C1710 C 0.62397 0.36873 0.4093 0.0
C1711 C 0.62826 0.38124 0.35412 0.0
C1712 C 0.60912 0.40459 0.34512 0.0
C1713 C 0.65742 0.3898 0.347 0.0
C1714 C 0.62136 0.35815 0.31749 0.0
C1715 C 0.61429 0.33614 0.34739 0.0
C1716 C 0.60689 0.31249 0.32274 0.0
C1717 C 0.60674 0.31125 0.26603 0.0
C1718 C 0.6141 0.33348 0.23426 0.0
C1719 C 0.62145 0.35725 0.26074 0.0
H1720 H 0.8848 0.61841 1.00143 0.0
H1721 H 0.81947 0.56209 1.00528 0.0
H1722 H 0.82471 0.55798 0.10416 0.0
H1723 H 0.92476 0.58858 0.10743 0.0
H1724 H 0.93511 0.61991 0.13523 0.0
H1725 H 0.92736 0.61721 0.06416 0.0
H1726 H 0.89289 0.65508 0.07322 0.0
H1727 H 0.9005 0.65786 0.1443 0.0
H1728 H 0.86667 0.65228 0.12257 0.0
H1729 H 0.83589 0.5611 0.2031 0.0
H1730 H 0.85183 0.57162 0.29493 0.0
H1731 H 0.90909 0.62686 0.22731 0.0
C1732 C 0.87153 0.60522 1.02293 0.0
C1733 C 0.85182 0.59043 0.99514 0.0
C1734 C 0.8351 0.57323 1.02515 0.0
C1735 C 0.83778 0.57089 0.08151 0.0
C1736 C 0.85722 0.58592 0.1075 0.0
C1737 C 0.87379 0.60277 0.07925 0.0
C1738 C 0.89248 0.61737 0.11718 0.0
C1739 C 0.92165 0.61034 0.10528 0.0
C1740 C 0.88784 0.64743 0.11413 0.0
C1741 C 0.88366 0.60624 0.17122 0.0
C1742 C 0.8634 0.58802 0.16468 0.0
C1743 C 0.85183 0.57526 0.20869 0.0
C1744 C 0.86112 0.58135 0.26082 0.0
C1745 C 0.88166 0.60023 0.26878 0.0
C1746 C 0.89311 0.61263 0.22299 0.0
H1747 H 0.60547 0.14901 0.8097 0.0
H1748 H 0.64202 0.07129 0.82095 0.0
H1749 H 0.63835 0.07289 0.92028 0.0
H1750 H 0.63829 0.17645 0.9271 0.0
H1751 H 0.60983 0.19553 0.94801 0.0
H1752 H 0.61466 0.18811 0.87739 0.0
H1753 H 0.56774 0.16701 0.87296 0.0
H1754 H 0.56275 0.17427 0.94361 0.0
H1755 H 0.55926 0.1408 0.91943 0.0
H1756 H 0.63105 0.08268 1.01812 0.0
H1757 H 0.62188 0.10079 0.10875 0.0
H1758 H 0.5905 0.17244 0.03514 0.0
C1759 C 0.61287 0.13239 0.83302 0.0
C1760 C 0.62378 0.10988 0.80724 0.0
C1761 C 0.63304 0.08851 0.83947 0.0
C1762 C 0.63121 0.08928 0.89603 0.0
C1763 C 0.62019 0.11162 0.92003 0.0
C1764 C 0.61127 0.13285 0.8897 0.0
C1765 C 0.60056 0.15459 0.92586 0.0
C1766 C 0.61681 0.18018 0.91919 0.0
C1767 C 0.57081 0.15944 0.9148 0.0
C1768 C 0.60496 0.14225 0.98121 0.0
C1769 C 0.6162 0.11741 0.97679 0.0
C1770 C 0.62217 0.10208 1.02214 0.0
C1771 C 0.61669 0.11248 0.07348 0.0
C1772 C 0.60534 0.138 0.07923 0.0
C1773 C 0.59936 0.15297 0.03222 0.0
H1774 H 0.13699 0.37879 0.22104 0.0
H1775 H 0.13375 0.4626 0.25897 0.0
H1776 H 0.14488 0.47323 0.16421 0.0
H1777 H 0.1916 0.38226 0.12788 0.0
H1778 H 0.17815 0.35768 0.0826 0.0
H1779 H 0.17014 0.3566 0.15361 0.0
H1780 H 0.11985 0.35757 0.1301 0.0
H1781 H 0.1277 0.35866 0.059 0.0
H1782 H 0.10691 0.3839 0.08829 0.0
H1783 H 0.15656 0.47487 0.06467 0.0
H1784 H 0.16748 0.46723 0.96839 0.0
H1785 H 0.16223 0.38248 0.99457 0.0
C1786 C 0.13836 0.3994 0.20946 0.0
C1787 C 0.13455 0.41982 0.248 0.0
C1788 C 0.13698 0.44652 0.23082 0.0
C1789 C 0.14313 0.4528 0.17684 0.0
C1790 C 0.14676 0.43221 0.14009 0.0
C1791 C 0.14443 0.40604 0.15565 0.0
C1792 C 0.14934 0.38765 0.10816 0.0
C1793 C 0.17376 0.37001 0.1187 0.0
C1794 C 0.12446 0.37096 0.09566 0.0
C1795 C 0.15471 0.40755 0.06344 0.0
C1796 C 0.15321 0.43315 0.08274 0.0
C1797 C 0.15778 0.45489 0.04917 0.0
C1798 C 0.16411 0.45035 0.99455 0.0
C1799 C 0.16573 0.42427 0.97373 0.0
C1800 C 0.16084 0.40266 1.00893 0.0
H1801 H 0.43524 0.84716 0.03889 0.0
H1802 H 0.3539 0.82486 0.07621 0.0
H1803 H 0.34119 0.83225 0.98068 0.0
H1804 H 0.41981 0.89879 0.94818 0.0
H1805 H 0.44673 0.89208 0.90212 0.0
H1806 H 0.44992 0.88336 0.97254 0.0
H1807 H 0.46001 0.83477 0.94613 0.0
H1808 H 0.457 0.8434 0.87554 0.0
H1809 H 0.43697 0.81711 0.90323 0.0
H1810 H 0.33685 0.84406 0.88176 0.0
H1811 H 0.34108 0.85998 0.78766 0.0
H1812 H 0.42545 0.87373 0.81408 0.0
C1813 C 0.41485 0.84335 1.02682 0.0
C1814 C 0.39557 0.83542 0.06526 0.0
C1815 C 0.36899 0.8312 0.04778 0.0
C1816 C 0.3616 0.83518 0.99348 0.0
C1817 C 0.38102 0.84331 0.95687 0.0
C1818 C 0.40713 0.84726 0.97274 0.0
C1819 C 0.4239 0.857 0.92579 0.0
C1820 C 0.43578 0.88444 0.9379 0.0
C1821 C 0.44576 0.83687 0.91186 0.0
C1822 C 0.40304 0.85843 0.88136 0.0
C1823 C 0.37849 0.8502 0.89997 0.0
C1824 C 0.35603 0.85033 0.86665 0.0
C1825 C 0.35868 0.85931 0.81308 0.0
C1826 C 0.38359 0.86818 0.79319 0.0
C1827 C 0.40605 0.86741 0.828 0.0
H1828 H 0.87097 0.9282 0.3031 0.0
H1829 H 0.82585 0.85555 0.32223 0.0
H1830 H 0.83278 0.84521 0.2257 0.0
H1831 H 0.84652 0.94407 0.16938 0.0
H1832 H 0.87786 0.95699 0.14578 0.0
H1833 H 0.86965 0.9587 0.21665 0.0
H1834 H 0.91322 0.93386 0.24064 0.0
H1835 H 0.92156 0.93207 0.16984 0.0
H1836 H 0.9199 0.90224 0.20979 0.0
H1837 H 0.84481 0.84236 0.1272 0.0
H1838 H 0.86059 0.8474 0.03348 0.0
H1839 H 0.89722 0.92244 0.0762 0.0
C1840 C 0.86272 0.91001 0.28708 0.0
C1841 C 0.84774 0.89274 0.32054 0.0
C1842 C 0.83705 0.86931 0.29755 0.0
C1843 C 0.84101 0.86317 0.24272 0.0
C1844 C 0.85569 0.88065 0.21091 0.0
C1845 C 0.86635 0.90363 0.23213 0.0
C1846 C 0.88102 0.91916 0.1887 0.0
C1847 C 0.86798 0.94634 0.1796 0.0
C1848 C 0.91068 0.92199 0.20311 0.0
C1849 C 0.87705 0.90125 0.13991 0.0
C1850 C 0.86239 0.87915 0.15375 0.0
C1851 C 0.85617 0.85969 0.11584 0.0
C1852 C 0.86509 0.86286 0.0624 0.0
C1853 C 0.88005 0.88543 0.04672 0.0
C1854 C 0.88608 0.90481 0.08651 0.0
H1855 H 0.91414 0.12148 0.97883 0.0
H1856 H 0.86047 0.18326 0.0328 0.0
H1857 H 0.8587 0.20125 0.93987 0.0
H1858 H 0.95133 0.16171 0.88429 0.0
H1859 H 0.95474 0.13549 0.83539 0.0
H1860 H 0.952 0.12771 0.90637 0.0
H1861 H 0.91161 0.09735 0.88593 0.0
H1862 H 0.91419 0.10507 0.81492 0.0
H1863 H 0.8833 0.11064 0.85002 0.0
H1864 H 0.86221 0.21206 0.84038 0.0
H1865 H 0.87131 0.2153 0.74231 0.0
H1866 H 0.92271 0.14648 0.75328 0.0
C1867 C 0.90223 0.13896 0.97128 0.0
C1868 C 0.88743 0.15095 1.01327 0.0
C1869 C 0.87174 0.17354 1.0013 0.0
C1870 C 0.87071 0.18399 0.94865 0.0
C1871 C 0.8854 0.17158 0.90822 0.0
C1872 C 0.90089 0.14958 0.91891 0.0
C1873 C 0.91449 0.13975 0.86807 0.0
C1874 C 0.94495 0.14127 0.87389 0.0
C1875 C 0.90535 0.11154 0.85391 0.0
C1876 C 0.90427 0.15967 0.8271 0.0
C1877 C 0.88748 0.17784 0.85104 0.0
C1878 C 0.87533 0.19794 0.8212 0.0
C1879 C 0.88048 0.19952 0.76545 0.0
C1880 C 0.8977 0.18114 0.74001 0.0
C1881 C 0.90971 0.16101 0.77156 0.0
H1882 H 0.13062 0.09555 0.06829 0.0
H1883 H 0.16314 0.17321 0.03183 0.0
H1884 H 0.17909 0.17705 0.12585 0.0
H1885 H 0.10677 0.11222 0.20136 0.0
H1886 H 0.1147 0.08036 0.23005 0.0
H1887 H 0.10669 0.08315 0.15911 0.0
H1888 H 0.15145 0.06077 0.13468 0.0
H1889 H 0.15963 0.05794 0.20553 0.0
H1890 H 0.18214 0.07456 0.16009 0.0
H1891 H 0.19142 0.17274 0.2242 0.0
H1892 H 0.19805 0.16099 0.32045 0.0
H1893 H 0.15604 0.08704 0.29437 0.0
C1894 C 0.14085 0.11351 0.08001 0.0
C1895 C 0.14568 0.13399 0.04204 0.0
C1896 C 0.15957 0.15694 0.05942 0.0
C1897 C 0.16859 0.15943 0.11301 0.0
C1898 C 0.16345 0.1389 0.14917 0.0
C1899 C 0.14981 0.11643 0.13353 0.0
C1900 C 0.14652 0.09747 0.18071 0.0
C1901 C 0.11691 0.09305 0.19356 0.0
C1902 C 0.16079 0.07113 0.16957 0.0
C1903 C 0.16031 0.11288 0.22538 0.0
C1904 C 0.1701 0.13664 0.20619 0.0
C1905 C 0.18384 0.15417 0.23967 0.0
C1906 C 0.18762 0.14727 0.29422 0.0
C1907 C 0.17758 0.12311 0.31499 0.0
C1908 C 0.16372 0.10576 0.27987 0.0
H1909 H 0.08942 0.82988 0.78326 0.0
H1910 H 0.13204 0.895 0.70813 0.0
H1911 H 0.14576 0.91097 0.79804 0.0
H1912 H 0.06531 0.86592 0.89702 0.0
H1913 H 0.06948 0.83923 0.94481 0.0
H1914 H 0.06358 0.83205 0.87437 0.0
H1915 H 0.10661 0.80388 0.87172 0.0
H1916 H 0.11263 0.81101 0.94221 0.0
H1917 H 0.13777 0.81844 0.89255 0.0
H1918 H 0.15388 0.92098 0.89497 0.0
H1919 H 0.1559 0.92452 0.99438 0.0
H1920 H 0.10863 0.85295 1.00902 0.0
C1921 C 0.1019 0.84731 0.78574 0.0
C1922 C 0.10942 0.8613 0.73841 0.0
C1923 C 0.12555 0.8842 0.74361 0.0
C1924 C 0.13366 0.89333 0.79456 0.0
C1925 C 0.12568 0.87932 0.84025 0.0
C1926 C 0.11024 0.85676 0.83656 0.0
C1927 C 0.10398 0.84591 0.89254 0.0
C1928 C 0.07379 0.84578 0.90277 0.0
C1929 C 0.11597 0.81816 0.90019 0.0
C1930 C 0.11803 0.86612 0.92804 0.0
C1931 C 0.13049 0.88511 0.89683 0.0
C1932 C 0.14425 0.90621 0.91991 0.0
C1933 C 0.14514 0.90813 0.97644 0.0
C1934 C 0.1323 0.88914 1.00958 0.0
C1935 C 0.11883 0.86766 0.98484 0.0
loop_
_geom_bond_atom_site_label_1
_geom_bond_atom_site_label_2
_geom_bond_distance
_geom_bond_site_symmetry_2
_ccdc_geom_bond_type
Ho0 C3 2.811 . S
Ho0 O20 2.322 . S
Ho0 O22 2.378 . S
Ho0 O23 2.524 . S
Ho0 O24 2.381 . S
Ho0 O25 2.669 . S
Ho0 O27 2.346 . S
Ho0 O31 2.305 . S
Ho1 C12 2.811 1_554 S
Ho1 O21 2.346 . S
Ho1 O25 2.305 . S
Ho1 O26 2.322 . S
Ho1 O28 2.378 1_554 S
Ho1 O29 2.524 1_554 S
Ho1 O30 2.381 . S
Ho1 O31 2.669 . S
C2 O20 1.259 . S
C2 O21 1.268 . S
C3 Ho0 2.811 . S
C3 C4 1.488 . S
C3 O22 1.215 . S
C3 O23 1.289 . S
C4 C3 1.488 . S
C4 C5 1.348 . S
C4 C9 1.413 . S
C5 C4 1.348 . S
C5 C6 1.442 . S
C5 H32 0.930 . S
C6 C5 1.442 . S
C6 C7 1.381 . S
C6 H33 0.931 . S
C7 C6 1.381 . S
C7 C8 1.321 . S
C8 C7 1.321 . S
C8 C9 1.403 . S
C8 H34 0.934 . S
C9 C4 1.413 . S
C9 C8 1.403 . S
C9 H35 0.930 . S
C10 O24 1.275 . S
C10 O25 1.256 . S
C11 O26 1.259 . S
C11 O27 1.268 . S
C12 Ho1 2.811 1_556 S
C12 C13 1.488 . S
C12 O28 1.215 . S
C12 O29 1.289 . S
C13 C12 1.488 . S
C13 C14 1.348 . S
C13 C18 1.413 . S
C14 C13 1.348 . S
C14 C15 1.442 . S
C14 H36 0.930 . S
C15 C14 1.442 . S
C15 C16 1.381 . S
C15 H37 0.931 . S
C16 C15 1.381 . S
C16 C17 1.321 . S
C17 C16 1.321 . S
C17 C18 1.403 . S
C17 H38 0.934 . S
C18 C13 1.413 . S
C18 C17 1.403 . S
C18 H39 0.930 . S
C19 O30 1.275 . S
C19 O31 1.256 . S
O20 Ho0 2.322 . S
O20 C2 1.259 . S
O21 Ho1 2.346 . S
O21 C2 1.268 . S
O22 Ho0 2.378 . S
O22 C3 1.215 . S
O23 Ho0 2.524 . S
O23 C3 1.289 . S
O24 Ho0 2.381 . S
O24 C10 1.275 . S
O25 Ho0 2.669 . S
O25 Ho1 2.305 . S
O25 C10 1.256 . S
O26 Ho1 2.322 . S
O26 C11 1.259 . S
O27 Ho0 2.346 . S
O27 C11 1.268 . S
O28 Ho1 2.378 1_556 S
O28 C12 1.215 . S
O29 Ho1 2.524 1_556 S
O29 C12 1.289 . S
O30 Ho1 2.381 . S
O30 C19 1.275 . S
O31 Ho0 2.305 . S
O31 Ho1 2.669 . S
O31 C19 1.256 . S
H32 C5 0.930 . S
H33 C6 0.931 . S
H34 C8 0.934 . S
H35 C9 0.930 . S
H36 C14 0.930 . S
H37 C15 0.931 . S
H38 C17 0.934 . S
H39 C18 0.930 . S
Ho40 C43 2.811 1_556 S
Ho40 O60 2.322 . S
Ho40 O62 2.378 1_556 S
Ho40 O63 2.524 1_556 S
Ho40 O64 2.381 . S
Ho40 O65 2.669 . S
Ho40 O67 2.346 . S
Ho40 O71 2.305 . S
Ho41 C52 2.811 . S
Ho41 O61 2.346 . S
Ho41 O65 2.305 . S
Ho41 O66 2.322 . S
Ho41 O68 2.378 . S
Ho41 O69 2.524 . S
Ho41 O70 2.381 . S
Ho41 O71 2.669 . S
C42 O60 1.259 . S
C42 O61 1.268 . S
C43 Ho40 2.811 1_554 S
C43 C44 1.488 . S
C43 O62 1.215 . S
C43 O63 1.289 . S
C44 C43 1.488 . S
C44 C45 1.348 . S
C44 C49 1.413 . S
C45 C44 1.348 . S
C45 C46 1.442 . S
C45 H72 0.930 . S
C46 C45 1.442 . S
C46 C47 1.381 . S
C46 H73 0.931 . S
C47 C46 1.381 . S
C47 C48 1.321 . S
C48 C47 1.321 . S
C48 C49 1.403 . S
C48 H74 0.934 . S
C49 C44 1.413 . S
C49 C48 1.403 . S
C49 H75 0.930 . S
C50 O64 1.275 . S
C50 O65 1.256 . S
C51 O66 1.259 . S
C51 O67 1.268 . S
C52 Ho41 2.811 . S
C52 C53 1.488 . S
C52 O68 1.215 . S
C52 O69 1.289 . S
C53 C52 1.488 . S
C53 C54 1.348 . S
C53 C58 1.413 . S
C54 C53 1.348 . S
C54 C55 1.442 . S
C54 H76 0.930 . S
C55 C54 1.442 . S
C55 C56 1.381 . S
C55 H77 0.931 . S
C56 C55 1.381 . S
C56 C57 1.321 . S
C57 C56 1.321 . S
C57 C58 1.403 . S
C57 H78 0.934 . S
C58 C53 1.413 . S
C58 C57 1.403 . S
C58 H79 0.930 . S
C59 O70 1.275 . S
C59 O71 1.256 . S
O60 Ho40 2.322 . S
O60 C42 1.259 . S
O61 Ho41 2.346 . S
O61 C42 1.268 . S
O62 Ho40 2.378 1_554 S
O62 C43 1.215 . S
O63 Ho40 2.524 1_554 S
O63 C43 1.289 . S
O64 Ho40 2.381 . S
O64 C50 1.275 . S
O65 Ho40 2.669 . S
O65 Ho41 2.305 . S
O65 C50 1.256 . S
O66 Ho41 2.322 . S
O66 C51 1.259 . S
O67 Ho40 2.346 . S
O67 C51 1.268 . S
O68 Ho41 2.378 . S
O68 C52 1.215 . S
O69 Ho41 2.524 . S
O69 C52 1.289 . S
O70 Ho41 2.381 . S
O70 C59 1.275 . S
O71 Ho40 2.305 . S
O71 Ho41 2.669 . S
O71 C59 1.256 . S
H72 C45 0.930 . S
H73 C46 0.931 . S
H74 C48 0.934 . S
H75 C49 0.930 . S
H76 C54 0.930 . S
H77 C55 0.931 . S
H78 C57 0.934 . S
H79 C58 0.930 . S
Ho80 C83 2.811 . S
Ho80 O100 2.322 . S
Ho80 O102 2.378 . S
Ho80 O103 2.524 . S
Ho80 O104 2.381 . S
Ho80 O105 2.669 . S
Ho80 O107 2.346 . S
Ho80 O111 2.305 . S
Ho81 C92 2.811 1_554 S
Ho81 O101 2.346 . S
Ho81 O105 2.305 . S
Ho81 O106 2.322 . S
Ho81 O108 2.378 1_554 S
Ho81 O109 2.524 1_554 S
Ho81 O110 2.381 . S
Ho81 O111 2.669 . S
C82 O100 1.259 . S
C82 O101 1.268 . S
C83 Ho80 2.811 . S
C83 C84 1.488 . S
C83 O102 1.215 . S
C83 O103 1.289 . S
C84 C83 1.488 . S
C84 C85 1.348 . S
C84 C89 1.413 . S
C85 C84 1.348 . S
C85 C86 1.442 . S
C85 H112 0.930 . S
C86 C85 1.442 . S
C86 C87 1.381 . S
C86 H113 0.931 . S
C87 C86 1.381 . S
C87 C88 1.321 . S
C88 C87 1.321 . S
C88 C89 1.403 . S
C88 H114 0.934 . S
C89 C84 1.413 . S
C89 C88 1.403 . S
C89 H115 0.930 . S
C90 O104 1.275 . S
C90 O105 1.256 . S
C91 O106 1.259 . S
C91 O107 1.268 . S
C92 Ho81 2.811 1_556 S
C92 C93 1.488 . S
C92 O108 1.215 . S
C92 O109 1.289 . S
C93 C92 1.488 . S
C93 C94 1.348 . S
C93 C98 1.413 . S
C94 C93 1.348 . S
C94 C95 1.442 . S
C94 H116 0.930 . S
C95 C94 1.442 . S
C95 C96 1.381 . S
C95 H117 0.931 . S
C96 C95 1.381 . S
C96 C97 1.321 . S
C97 C96 1.321 . S
C97 C98 1.403 . S
C97 H118 0.934 . S
C98 C93 1.413 . S
C98 C97 1.403 . S
C98 H119 0.930 . S
C99 O110 1.275 . S
C99 O111 1.256 . S
O100 Ho80 2.322 . S
O100 C82 1.259 . S
O101 Ho81 2.346 . S
O101 C82 1.268 . S
O102 Ho80 2.378 . S
O102 C83 1.215 . S
O103 Ho80 2.524 . S
O103 C83 1.289 . S
O104 Ho80 2.381 . S
O104 C90 1.275 . S
O105 Ho80 2.669 . S
O105 Ho81 2.305 . S
O105 C90 1.256 . S
O106 Ho81 2.322 . S
O106 C91 1.259 . S
O107 Ho80 2.346 . S
O107 C91 1.268 . S
O108 Ho81 2.378 1_556 S
O108 C92 1.215 . S
O109 Ho81 2.524 1_556 S
O109 C92 1.289 . S
O110 Ho81 2.381 . S
O110 C99 1.275 . S
O111 Ho80 2.305 . S
O111 Ho81 2.669 . S
O111 C99 1.256 . S
H112 C85 0.930 . S
H113 C86 0.931 . S
H114 C88 0.934 . S
H115 C89 0.930 . S
H116 C94 0.930 . S
H117 C95 0.931 . S
H118 C97 0.934 . S
H119 C98 0.930 . S
Ho120 C123 2.811 1_556 S
Ho120 O140 2.322 . S
Ho120 O142 2.378 1_556 S
Ho120 O143 2.524 1_556 S
Ho120 O144 2.381 . S
Ho120 O145 2.669 . S
Ho120 O147 2.346 . S
Ho120 O151 2.305 . S
Ho121 C132 2.811 . S
Ho121 O141 2.346 . S
Ho121 O145 2.305 . S
Ho121 O146 2.322 . S
Ho121 O148 2.378 . S
Ho121 O149 2.524 . S
Ho121 O150 2.381 . S
Ho121 O151 2.669 . S
C122 O140 1.259 . S
C122 O141 1.268 . S
C123 Ho120 2.811 1_554 S
C123 C124 1.488 . S
C123 O142 1.215 . S
C123 O143 1.289 . S
C124 C123 1.488 . S
C124 C125 1.348 . S
C124 C129 1.413 . S
C125 C124 1.348 . S
C125 C126 1.442 . S
C125 H152 0.930 . S
C126 C125 1.442 . S
C126 C127 1.381 . S
C126 H153 0.931 . S
C127 C126 1.381 . S
C127 C128 1.321 . S
C128 C127 1.321 . S
C128 C129 1.403 . S
C128 H154 0.934 . S
C129 C124 1.413 . S
C129 C128 1.403 . S
C129 H155 0.930 . S
C130 O144 1.275 . S
C130 O145 1.256 . S
C131 O146 1.259 . S
C131 O147 1.268 . S
C132 Ho121 2.811 . S
C132 C133 1.488 . S
C132 O148 1.215 . S
C132 O149 1.289 . S
C133 C132 1.488 . S
C133 C134 1.348 . S
C133 C138 1.413 . S
C134 C133 1.348 . S
C134 C135 1.442 . S
C134 H156 0.930 . S
C135 C134 1.442 . S
C135 C136 1.381 . S
C135 H157 0.931 . S
C136 C135 1.381 . S
C136 C137 1.321 . S
C137 C136 1.321 . S
C137 C138 1.403 . S
C137 H158 0.934 . S
C138 C133 1.413 . S
C138 C137 1.403 . S
C138 H159 0.930 . S
C139 O150 1.275 . S
C139 O151 1.256 . S
O140 Ho120 2.322 . S
O140 C122 1.259 . S
O141 Ho121 2.346 . S
O141 C122 1.268 . S
O142 Ho120 2.378 1_554 S
O142 C123 1.215 . S
O143 Ho120 2.524 1_554 S
O143 C123 1.289 . S
O144 Ho120 2.381 . S
O144 C130 1.275 . S
O145 Ho120 2.669 . S
O145 Ho121 2.305 . S
O145 C130 1.256 . S
O146 Ho121 2.322 . S
O146 C131 1.259 . S
O147 Ho120 2.346 . S
O147 C131 1.268 . S
O148 Ho121 2.378 . S
O148 C132 1.215 . S
O149 Ho121 2.524 . S
O149 C132 1.289 . S
O150 Ho121 2.381 . S
O150 C139 1.275 . S
O151 Ho120 2.305 . S
O151 Ho121 2.669 . S
O151 C139 1.256 . S
H152 C125 0.930 . S
H153 C126 0.931 . S
H154 C128 0.934 . S
H155 C129 0.930 . S
H156 C134 0.930 . S
H157 C135 0.931 . S
H158 C137 0.934 . S
H159 C138 0.930 . S
Ho160 C163 2.811 1_554 S
Ho160 O180 2.322 . S
Ho160 O182 2.378 1_554 S
Ho160 O183 2.524 1_554 S
Ho160 O184 2.381 . S
Ho160 O185 2.669 . S
Ho160 O187 2.346 . S
Ho160 O191 2.305 . S
Ho161 C172 2.811 . S
Ho161 O181 2.346 . S
Ho161 O185 2.305 . S
Ho161 O186 2.322 . S
Ho161 O188 2.378 . S
Ho161 O189 2.524 . S
Ho161 O190 2.381 . S
Ho161 O191 2.669 . S
C162 O180 1.259 . S
C162 O181 1.268 . S
C163 Ho160 2.811 1_556 S
C163 C164 1.488 . S
C163 O182 1.215 . S
C163 O183 1.289 . S
C164 C163 1.488 . S
C164 C165 1.348 . S
C164 C169 1.413 . S
C165 C164 1.348 . S
C165 C166 1.442 . S
C165 H192 0.930 . S
C166 C165 1.442 . S
C166 C167 1.381 . S
C166 H193 0.931 . S
C167 C166 1.381 . S
C167 C168 1.321 . S
C168 C167 1.321 . S
C168 C169 1.403 . S
C168 H194 0.934 . S
C169 C164 1.413 . S
C169 C168 1.403 . S
C169 H195 0.930 . S
C170 O184 1.275 . S
C170 O185 1.256 . S
C171 O186 1.259 . S
C171 O187 1.268 . S
C172 Ho161 2.811 . S
C172 C173 1.488 . S
C172 O188 1.215 . S
C172 O189 1.289 . S
C173 C172 1.488 . S
C173 C174 1.348 . S
C173 C178 1.413 . S
C174 C173 1.348 . S
C174 C175 1.442 . S
C174 H196 0.930 . S
C175 C174 1.442 . S
C175 C176 1.381 . S
C175 H197 0.931 . S
C176 C175 1.381 . S
C176 C177 1.321 . S
C177 C176 1.321 . S
C177 C178 1.403 . S
C177 H198 0.934 . S
C178 C173 1.413 . S
C178 C177 1.403 . S
C178 H199 0.930 . S
C179 O190 1.275 . S
C179 O191 1.256 . S
O180 Ho160 2.322 . S
O180 C162 1.259 . S
O181 Ho161 2.346 . S
O181 C162 1.268 . S
O182 Ho160 2.378 1_556 S
O182 C163 1.215 . S
O183 Ho160 2.524 1_556 S
O183 C163 1.289 . S
O184 Ho160 2.381 . S
O184 C170 1.275 . S
O185 Ho160 2.669 . S
O185 Ho161 2.305 . S
O185 C170 1.256 . S
O186 Ho161 2.322 . S
O186 C171 1.259 . S
O187 Ho160 2.346 . S
O187 C171 1.268 . S
O188 Ho161 2.378 . S
O188 C172 1.215 . S
O189 Ho161 2.524 . S
O189 C172 1.289 . S
O190 Ho161 2.381 . S
O190 C179 1.275 . S
O191 Ho160 2.305 . S
O191 Ho161 2.669 . S
O191 C179 1.256 . S
H192 C165 0.930 . S
H193 C166 0.931 . S
H194 C168 0.934 . S
H195 C169 0.930 . S
H196 C174 0.930 . S
H197 C175 0.931 . S
H198 C177 0.934 . S
H199 C178 0.930 . S
Ho200 C203 2.811 . S
Ho200 O220 2.322 . S
Ho200 O222 2.378 . S
Ho200 O223 2.524 . S
Ho200 O224 2.381 . S
Ho200 O225 2.669 . S
Ho200 O227 2.346 . S
Ho200 O231 2.305 . S
Ho201 C212 2.811 1_556 S
Ho201 O221 2.346 . S
Ho201 O225 2.305 . S
Ho201 O226 2.322 . S
Ho201 O228 2.378 1_556 S
Ho201 O229 2.524 1_556 S
Ho201 O230 2.381 . S
Ho201 O231 2.669 . S
C202 O220 1.259 . S
C202 O221 1.268 . S
C203 Ho200 2.811 . S
C203 C204 1.488 . S
C203 O222 1.215 . S
C203 O223 1.289 . S
C204 C203 1.488 . S
C204 C205 1.348 . S
C204 C209 1.413 . S
C205 C204 1.348 . S
C205 C206 1.442 . S
C205 H232 0.930 . S
C206 C205 1.442 . S
C206 C207 1.381 . S
C206 H233 0.931 . S
C207 C206 1.381 . S
C207 C208 1.321 . S
C208 C207 1.321 . S
C208 C209 1.403 . S
C208 H234 0.934 . S
C209 C204 1.413 . S
C209 C208 1.403 . S
C209 H235 0.930 . S
C210 O224 1.275 . S
C210 O225 1.256 . S
C211 O226 1.259 . S
C211 O227 1.268 . S
C212 Ho201 2.811 1_554 S
C212 C213 1.488 . S
C212 O228 1.215 . S
C212 O229 1.289 . S
C213 C212 1.488 . S
C213 C214 1.348 . S
C213 C218 1.413 . S
C214 C213 1.348 . S
C214 C215 1.442 . S
C214 H236 0.930 . S
C215 C214 1.442 . S
C215 C216 1.381 . S
C215 H237 0.931 . S
C216 C215 1.381 . S
C216 C217 1.321 . S
C217 C216 1.321 . S
C217 C218 1.403 . S
C217 H238 0.934 . S
C218 C213 1.413 . S
C218 C217 1.403 . S
C218 H239 0.930 . S
C219 O230 1.275 . S
C219 O231 1.256 . S
O220 Ho200 2.322 . S
O220 C202 1.259 . S
O221 Ho201 2.346 . S
O221 C202 1.268 . S
O222 Ho200 2.378 . S
O222 C203 1.215 . S
O223 Ho200 2.524 . S
O223 C203 1.289 . S
O224 Ho200 2.381 . S
O224 C210 1.275 . S
O225 Ho200 2.669 . S
O225 Ho201 2.305 . S
O225 C210 1.256 . S
O226 Ho201 2.322 . S
O226 C211 1.259 . S
O227 Ho200 2.346 . S
O227 C211 1.268 . S
O228 Ho201 2.378 1_554 S
O228 C212 1.215 . S
O229 Ho201 2.524 1_554 S
O229 C212 1.289 . S
O230 Ho201 2.381 . S
O230 C219 1.275 . S
O231 Ho200 2.305 . S
O231 Ho201 2.669 . S
O231 C219 1.256 . S
H232 C205 0.930 . S
H233 C206 0.931 . S
H234 C208 0.934 . S
H235 C209 0.930 . S
H236 C214 0.930 . S
H237 C215 0.931 . S
H238 C217 0.934 . S
H239 C218 0.930 . S
Ho240 C243 2.811 1_554 S
Ho240 O260 2.322 . S
Ho240 O262 2.378 1_554 S
Ho240 O263 2.524 1_554 S
Ho240 O264 2.381 . S
Ho240 O265 2.669 . S
Ho240 O267 2.346 . S
Ho240 O271 2.305 . S
Ho241 C252 2.811 . S
Ho241 O261 2.346 . S
Ho241 O265 2.305 . S
Ho241 O266 2.322 . S
Ho241 O268 2.378 . S
Ho241 O269 2.524 . S
Ho241 O270 2.381 . S
Ho241 O271 2.669 . S
C242 O260 1.259 . S
C242 O261 1.268 . S
C243 Ho240 2.811 1_556 S
C243 C244 1.488 . S
C243 O262 1.215 . S
C243 O263 1.289 . S
C244 C243 1.488 . S
C244 C245 1.348 . S
C244 C249 1.413 . S
C245 C244 1.348 . S
C245 C246 1.442 . S
C245 H272 0.930 . S
C246 C245 1.442 . S
C246 C247 1.381 . S
C246 H273 0.931 . S
C247 C246 1.381 . S
C247 C248 1.321 . S
C248 C247 1.321 . S
C248 C249 1.403 . S
C248 H274 0.934 . S
C249 C244 1.413 . S
C249 C248 1.403 . S
C249 H275 0.930 . S
C250 O264 1.275 . S
C250 O265 1.256 . S
C251 O266 1.259 . S
C251 O267 1.268 . S
C252 Ho241 2.811 . S
C252 C253 1.488 . S
C252 O268 1.215 . S
C252 O269 1.289 . S
C253 C252 1.488 . S
C253 C254 1.348 . S
C253 C258 1.413 . S
C254 C253 1.348 . S
C254 C255 1.442 . S
C254 H276 0.930 . S
C255 C254 1.442 . S
C255 C256 1.381 . S
C255 H277 0.931 . S
C256 C255 1.381 . S
C256 C257 1.321 . S
C257 C256 1.321 . S
C257 C258 1.403 . S
C257 H278 0.934 . S
C258 C253 1.413 . S
C258 C257 1.403 . S
C258 H279 0.930 . S
C259 O270 1.275 . S
C259 O271 1.256 . S
O260 Ho240 2.322 . S
O260 C242 1.259 . S
O261 Ho241 2.346 . S
O261 C242 1.268 . S
O262 Ho240 2.378 1_556 S
O262 C243 1.215 . S
O263 Ho240 2.524 1_556 S
O263 C243 1.289 . S
O264 Ho240 2.381 . S
O264 C250 1.275 . S
O265 Ho240 2.669 . S
O265 Ho241 2.305 . S
O265 C250 1.256 . S
O266 Ho241 2.322 . S
O266 C251 1.259 . S
O267 Ho240 2.346 . S
O267 C251 1.268 . S
O268 Ho241 2.378 . S
O268 C252 1.215 . S
O269 Ho241 2.524 . S
O269 C252 1.289 . S
O270 Ho241 2.381 . S
O270 C259 1.275 . S
O271 Ho240 2.305 . S
O271 Ho241 2.669 . S
O271 C259 1.256 . S
H272 C245 0.930 . S
H273 C246 0.931 . S
H274 C248 0.934 . S
H275 C249 0.930 . S
H276 C254 0.930 . S
H277 C255 0.931 . S
H278 C257 0.934 . S
H279 C258 0.930 . S
Ho280 C283 2.811 . S
Ho280 O300 2.322 . S
Ho280 O302 2.378 . S
Ho280 O303 2.524 . S
Ho280 O304 2.381 . S
Ho280 O305 2.669 . S
Ho280 O307 2.346 . S
Ho280 O311 2.305 . S
Ho281 C292 2.811 1_556 S
Ho281 O301 2.346 . S
Ho281 O305 2.305 . S
Ho281 O306 2.322 . S
Ho281 O308 2.378 1_556 S
Ho281 O309 2.524 1_556 S
Ho281 O310 2.381 . S
Ho281 O311 2.669 . S
C282 O300 1.259 . S
C282 O301 1.268 . S
C283 Ho280 2.811 . S
C283 C284 1.488 . S
C283 O302 1.215 . S
C283 O303 1.289 . S
C284 C283 1.488 . S
C284 C285 1.348 . S
C284 C289 1.413 . S
C285 C284 1.348 . S
C285 C286 1.442 . S
C285 H312 0.930 . S
C286 C285 1.442 . S
C286 C287 1.381 . S
C286 H313 0.931 . S
C287 C286 1.381 . S
C287 C288 1.321 . S
C288 C287 1.321 . S
C288 C289 1.403 . S
C288 H314 0.934 . S
C289 C284 1.413 . S
C289 C288 1.403 . S
C289 H315 0.930 . S
C290 O304 1.275 . S
C290 O305 1.256 . S
C291 O306 1.259 . S
C291 O307 1.268 . S
C292 Ho281 2.811 1_554 S
C292 C293 1.488 . S
C292 O308 1.215 . S
C292 O309 1.289 . S
C293 C292 1.488 . S
C293 C294 1.348 . S
C293 C298 1.413 . S
C294 C293 1.348 . S
C294 C295 1.442 . S
C294 H316 0.930 . S
C295 C294 1.442 . S
C295 C296 1.381 . S
C295 H317 0.931 . S
C296 C295 1.381 . S
C296 C297 1.321 . S
C297 C296 1.321 . S
C297 C298 1.403 . S
C297 H318 0.934 . S
C298 C293 1.413 . S
C298 C297 1.403 . S
C298 H319 0.930 . S
C299 O310 1.275 . S
C299 O311 1.256 . S
O300 Ho280 2.322 . S
O300 C282 1.259 . S
O301 Ho281 2.346 . S
O301 C282 1.268 . S
O302 Ho280 2.378 . S
O302 C283 1.215 . S
O303 Ho280 2.524 . S
O303 C283 1.289 . S
O304 Ho280 2.381 . S
O304 C290 1.275 . S
O305 Ho280 2.669 . S
O305 Ho281 2.305 . S
O305 C290 1.256 . S
O306 Ho281 2.322 . S
O306 C291 1.259 . S
O307 Ho280 2.346 . S
O307 C291 1.268 . S
O308 Ho281 2.378 1_554 S
O308 C292 1.215 . S
O309 Ho281 2.524 1_554 S
O309 C292 1.289 . S
O310 Ho281 2.381 . S
O310 C299 1.275 . S
O311 Ho280 2.305 . S
O311 Ho281 2.669 . S
O311 C299 1.256 . S
H312 C285 0.930 . S
H313 C286 0.931 . S
H314 C288 0.934 . S
H315 C289 0.930 . S
H316 C294 0.930 . S
H317 C295 0.931 . S
H318 C297 0.934 . S
H319 C298 0.930 . S
Ho320 C323 2.811 . S
Ho320 O340 2.322 . S
Ho320 O342 2.378 . S
Ho320 O343 2.524 . S
Ho320 O344 2.381 . S
Ho320 O345 2.669 . S
Ho320 O347 2.346 . S
Ho320 O351 2.305 . S
Ho321 C332 2.811 . S
Ho321 O341 2.346 . S
Ho321 O345 2.305 . S
Ho321 O346 2.322 . S
Ho321 O348 2.378 . S
Ho321 O349 2.524 . S
Ho321 O350 2.381 . S
Ho321 O351 2.669 . S
C322 O340 1.259 . S
C322 O341 1.268 . S
C323 Ho320 2.811 . S
C323 C324 1.488 . S
C323 O342 1.215 . S
C323 O343 1.289 . S
C324 C323 1.488 . S
C324 C325 1.348 . S
C324 C329 1.413 . S
C325 C324 1.348 . S
C325 C326 1.442 . S
C325 H352 0.930 . S
C326 C325 1.442 . S
C326 C327 1.381 . S
C326 H353 0.931 . S
C327 C326 1.381 . S
C327 C328 1.321 . S
C328 C327 1.321 . S
C328 C329 1.403 . S
C328 H354 0.934 . S
C329 C324 1.413 . S
C329 C328 1.403 . S
C329 H355 0.930 . S
C330 O344 1.275 . S
C330 O345 1.256 . S
C331 O346 1.259 . S
C331 O347 1.268 . S
C332 Ho321 2.811 . S
C332 C333 1.488 . S
C332 O348 1.215 . S
C332 O349 1.289 . S
C333 C332 1.488 . S
C333 C334 1.348 . S
C333 C338 1.413 . S
C334 C333 1.348 . S
C334 C335 1.442 . S
C334 H356 0.930 . S
C335 C334 1.442 . S
C335 C336 1.381 . S
C335 H357 0.931 . S
C336 C335 1.381 . S
C336 C337 1.321 . S
C337 C336 1.321 . S
C337 C338 1.403 . S
C337 H358 0.934 . S
C338 C333 1.413 . S
C338 C337 1.403 . S
C338 H359 0.930 . S
C339 O350 1.275 . S
C339 O351 1.256 . S
O340 Ho320 2.322 . S
O340 C322 1.259 . S
O341 Ho321 2.346 . S
O341 C322 1.268 . S
O342 Ho320 2.378 . S
O342 C323 1.215 . S
O343 Ho320 2.524 . S
O343 C323 1.289 . S
O344 Ho320 2.381 . S
O344 C330 1.275 . S
O345 Ho320 2.669 . S
O345 Ho321 2.305 . S
O345 C330 1.256 . S
O346 Ho321 2.322 . S
O346 C331 1.259 . S
O347 Ho320 2.346 . S
O347 C331 1.268 . S
O348 Ho321 2.378 . S
O348 C332 1.215 . S
O349 Ho321 2.524 . S
O349 C332 1.289 . S
O350 Ho321 2.381 . S
O350 C339 1.275 . S
O351 Ho320 2.305 . S
O351 Ho321 2.669 . S
O351 C339 1.256 . S
H352 C325 0.930 . S
H353 C326 0.931 . S
H354 C328 0.934 . S
H355 C329 0.930 . S
H356 C334 0.930 . S
H357 C335 0.931 . S
H358 C337 0.934 . S
H359 C338 0.930 . S
Ho360 C363 2.811 . S
Ho360 O380 2.322 . S
Ho360 O382 2.378 . S
Ho360 O383 2.524 . S
Ho360 O384 2.381 . S
Ho360 O385 2.669 . S
Ho360 O387 2.346 . S
Ho360 O391 2.305 . S
Ho361 C372 2.811 . S
Ho361 O381 2.346 . S
Ho361 O385 2.305 . S
Ho361 O386 2.322 . S
Ho361 O388 2.378 . S
Ho361 O389 2.524 . S
Ho361 O390 2.381 . S
Ho361 O391 2.669 . S
C362 O380 1.259 . S
C362 O381 1.268 . S
C363 Ho360 2.811 . S
C363 C364 1.488 . S
C363 O382 1.215 . S
C363 O383 1.289 . S
C364 C363 1.488 . S
C364 C365 1.348 . S
C364 C369 1.413 . S
C365 C364 1.348 . S
C365 C366 1.442 . S
C365 H392 0.930 . S
C366 C365 1.442 . S
C366 C367 1.381 . S
C366 H393 0.931 . S
C367 C366 1.381 . S
C367 C368 1.321 . S
C368 C367 1.321 . S
C368 C369 1.403 . S
C368 H394 0.934 . S
C369 C364 1.413 . S
C369 C368 1.403 . S
C369 H395 0.930 . S
C370 O384 1.275 . S
C370 O385 1.256 . S
C371 O386 1.259 . S
C371 O387 1.268 . S
C372 Ho361 2.811 . S
C372 C373 1.488 . S
C372 O388 1.215 . S
C372 O389 1.289 . S
C373 C372 1.488 . S
C373 C374 1.348 . S
C373 C378 1.413 . S
C374 C373 1.348 . S
C374 C375 1.442 . S
C374 H396 0.930 . S
C375 C374 1.442 . S
C375 C376 1.381 . S
C375 H397 0.931 . S
C376 C375 1.381 . S
C376 C377 1.321 . S
C377 C376 1.321 . S
C377 C378 1.403 . S
C377 H398 0.934 . S
C378 C373 1.413 . S
C378 C377 1.403 . S
C378 H399 0.930 . S
C379 O390 1.275 . S
C379 O391 1.256 . S
O380 Ho360 2.322 . S
O380 C362 1.259 . S
O381 Ho361 2.346 . S
O381 C362 1.268 . S
O382 Ho360 2.378 . S
O382 C363 1.215 . S
O383 Ho360 2.524 . S
O383 C363 1.289 . S
O384 Ho360 2.381 . S
O384 C370 1.275 . S
O385 Ho360 2.669 . S
O385 Ho361 2.305 . S
O385 C370 1.256 . S
O386 Ho361 2.322 . S
O386 C371 1.259 . S
O387 Ho360 2.346 . S
O387 C371 1.268 . S
O388 Ho361 2.378 . S
O388 C372 1.215 . S
O389 Ho361 2.524 . S
O389 C372 1.289 . S
O390 Ho361 2.381 . S
O390 C379 1.275 . S
O391 Ho360 2.305 . S
O391 Ho361 2.669 . S
O391 C379 1.256 . S
H392 C365 0.930 . S
H393 C366 0.931 . S
H394 C368 0.934 . S
H395 C369 0.930 . S
H396 C374 0.930 . S
H397 C375 0.931 . S
H398 C377 0.934 . S
H399 C378 0.930 . S
Ho400 C403 2.811 . S
Ho400 O420 2.322 . S
Ho400 O422 2.378 . S
Ho400 O423 2.524 . S
Ho400 O424 2.381 . S
Ho400 O425 2.669 . S
Ho400 O427 2.346 . S
Ho400 O431 2.305 . S
Ho401 C412 2.811 . S
Ho401 O421 2.346 . S
Ho401 O425 2.305 . S
Ho401 O426 2.322 . S
Ho401 O428 2.378 . S
Ho401 O429 2.524 . S
Ho401 O430 2.381 . S
Ho401 O431 2.669 . S
C402 O420 1.259 . S
C402 O421 1.268 . S
C403 Ho400 2.811 . S
C403 C404 1.488 . S
C403 O422 1.215 . S
C403 O423 1.289 . S
C404 C403 1.488 . S
C404 C405 1.348 . S
C404 C409 1.413 . S
C405 C404 1.348 . S
C405 C406 1.442 . S
C405 H432 0.930 . S
C406 C405 1.442 . S
C406 C407 1.381 . S
C406 H433 0.931 . S
C407 C406 1.381 . S
C407 C408 1.321 . S
C408 C407 1.321 . S
C408 C409 1.403 . S
C408 H434 0.934 . S
C409 C404 1.413 . S
C409 C408 1.403 . S
C409 H435 0.930 . S
C410 O424 1.275 . S
C410 O425 1.256 . S
C411 O426 1.259 . S
C411 O427 1.268 . S
C412 Ho401 2.811 . S
C412 C413 1.488 . S
C412 O428 1.215 . S
C412 O429 1.289 . S
C413 C412 1.488 . S
C413 C414 1.348 . S
C413 C418 1.413 . S
C414 C413 1.348 . S
C414 C415 1.442 . S
C414 H436 0.930 . S
C415 C414 1.442 . S
C415 C416 1.381 . S
C415 H437 0.931 . S
C416 C415 1.381 . S
C416 C417 1.321 . S
C417 C416 1.321 . S
C417 C418 1.403 . S
C417 H438 0.934 . S
C418 C413 1.413 . S
C418 C417 1.403 . S
C418 H439 0.930 . S
C419 O430 1.275 . S
C419 O431 1.256 . S
O420 Ho400 2.322 . S
O420 C402 1.259 . S
O421 Ho401 2.346 . S
O421 C402 1.268 . S
O422 Ho400 2.378 . S
O422 C403 1.215 . S
O423 Ho400 2.524 . S
O423 C403 1.289 . S
O424 Ho400 2.381 . S
O424 C410 1.275 . S
O425 Ho400 2.669 . S
O425 Ho401 2.305 . S
O425 C410 1.256 . S
O426 Ho401 2.322 . S
O426 C411 1.259 . S
O427 Ho400 2.346 . S
O427 C411 1.268 . S
O428 Ho401 2.378 . S
O428 C412 1.215 . S
O429 Ho401 2.524 . S
O429 C412 1.289 . S
O430 Ho401 2.381 . S
O430 C419 1.275 . S
O431 Ho400 2.305 . S
O431 Ho401 2.669 . S
O431 C419 1.256 . S
H432 C405 0.930 . S
H433 C406 0.931 . S
H434 C408 0.934 . S
H435 C409 0.930 . S
H436 C414 0.930 . S
H437 C415 0.931 . S
H438 C417 0.934 . S
H439 C418 0.930 . S
Ho440 C443 2.811 . S
Ho440 O460 2.322 . S
Ho440 O462 2.378 . S
Ho440 O463 2.524 . S
Ho440 O464 2.381 . S
Ho440 O465 2.669 . S
Ho440 O467 2.346 . S
Ho440 O471 2.305 . S
Ho441 C452 2.811 . S
Ho441 O461 2.346 . S
Ho441 O465 2.305 . S
Ho441 O466 2.322 . S
Ho441 O468 2.378 . S
Ho441 O469 2.524 . S
Ho441 O470 2.381 . S
Ho441 O471 2.669 . S
C442 O460 1.259 . S
C442 O461 1.268 . S
C443 Ho440 2.811 . S
C443 C444 1.488 . S
C443 O462 1.215 . S
C443 O463 1.289 . S
C444 C443 1.488 . S
C444 C445 1.348 . S
C444 C449 1.413 . S
C445 C444 1.348 . S
C445 C446 1.442 . S
C445 H472 0.930 . S
C446 C445 1.442 . S
C446 C447 1.381 . S
C446 H473 0.931 . S
C447 C446 1.381 . S
C447 C448 1.321 . S
C448 C447 1.321 . S
C448 C449 1.403 . S
C448 H474 0.934 . S
C449 C444 1.413 . S
C449 C448 1.403 . S
C449 H475 0.930 . S
C450 O464 1.275 . S
C450 O465 1.256 . S
C451 O466 1.259 . S
C451 O467 1.268 . S
C452 Ho441 2.811 . S
C452 C453 1.488 . S
C452 O468 1.215 . S
C452 O469 1.289 . S
C453 C452 1.488 . S
C453 C454 1.348 . S
C453 C458 1.413 . S
C454 C453 1.348 . S
C454 C455 1.442 . S
C454 H476 0.930 . S
C455 C454 1.442 . S
C455 C456 1.381 . S
C455 H477 0.931 . S
C456 C455 1.381 . S
C456 C457 1.321 . S
C457 C456 1.321 . S
C457 C458 1.403 . S
C457 H478 0.934 . S
C458 C453 1.413 . S
C458 C457 1.403 . S
C458 H479 0.930 . S
C459 O470 1.275 . S
C459 O471 1.256 . S
O460 Ho440 2.322 . S
O460 C442 1.259 . S
O461 Ho441 2.346 . S
O461 C442 1.268 . S
O462 Ho440 2.378 . S
O462 C443 1.215 . S
O463 Ho440 2.524 . S
O463 C443 1.289 . S
O464 Ho440 2.381 . S
O464 C450 1.275 . S
O465 Ho440 2.669 . S
O465 Ho441 2.305 . S
O465 C450 1.256 . S
O466 Ho441 2.322 . S
O466 C451 1.259 . S
O467 Ho440 2.346 . S
O467 C451 1.268 . S
O468 Ho441 2.378 . S
O468 C452 1.215 . S
O469 Ho441 2.524 . S
O469 C452 1.289 . S
O470 Ho441 2.381 . S
O470 C459 1.275 . S
O471 Ho440 2.305 . S
O471 Ho441 2.669 . S
O471 C459 1.256 . S
H472 C445 0.930 . S
H473 C446 0.931 . S
H474 C448 0.934 . S
H475 C449 0.930 . S
H476 C454 0.930 . S
H477 C455 0.931 . S
H478 C457 0.934 . S
H479 C458 0.930 . S
Ho480 C483 2.811 . S
Ho480 O500 2.322 . S
Ho480 O502 2.378 . S
Ho480 O503 2.524 . S
Ho480 O504 2.381 . S
Ho480 O505 2.669 . S
Ho480 O507 2.346 . S
Ho480 O511 2.305 . S
Ho481 C492 2.811 . S
Ho481 O501 2.346 . S
Ho481 O505 2.305 . S
Ho481 O506 2.322 . S
Ho481 O508 2.378 . S
Ho481 O509 2.524 . S
Ho481 O510 2.381 . S
Ho481 O511 2.669 . S
C482 O500 1.259 . S
C482 O501 1.268 . S
C483 Ho480 2.811 . S
C483 C484 1.488 . S
C483 O502 1.215 . S
C483 O503 1.289 . S
C484 C483 1.488 . S
C484 C485 1.348 . S
C484 C489 1.413 . S
C485 C484 1.348 . S
C485 C486 1.442 . S
C485 H512 0.930 . S
C486 C485 1.442 . S
C486 C487 1.381 . S
C486 H513 0.931 . S
C487 C486 1.381 . S
C487 C488 1.321 . S
C488 C487 1.321 . S
C488 C489 1.403 . S
C488 H514 0.934 . S
C489 C484 1.413 . S
C489 C488 1.403 . S
C489 H515 0.930 . S
C490 O504 1.275 . S
C490 O505 1.256 . S
C491 O506 1.259 . S
C491 O507 1.268 . S
C492 Ho481 2.811 . S
C492 C493 1.488 . S
C492 O508 1.215 . S
C492 O509 1.289 . S
C493 C492 1.488 . S
C493 C494 1.348 . S
C493 C498 1.413 . S
C494 C493 1.348 . S
C494 C495 1.442 . S
C494 H516 0.930 . S
C495 C494 1.442 . S
C495 C496 1.381 . S
C495 H517 0.931 . S
C496 C495 1.381 . S
C496 C497 1.321 . S
C497 C496 1.321 . S
C497 C498 1.403 . S
C497 H518 0.934 . S
C498 C493 1.413 . S
C498 C497 1.403 . S
C498 H519 0.930 . S
C499 O510 1.275 . S
C499 O511 1.256 . S
O500 Ho480 2.322 . S
O500 C482 1.259 . S
O501 Ho481 2.346 . S
O501 C482 1.268 . S
O502 Ho480 2.378 . S
O502 C483 1.215 . S
O503 Ho480 2.524 . S
O503 C483 1.289 . S
O504 Ho480 2.381 . S
O504 C490 1.275 . S
O505 Ho480 2.669 . S
O505 Ho481 2.305 . S
O505 C490 1.256 . S
O506 Ho481 2.322 . S
O506 C491 1.259 . S
O507 Ho480 2.346 . S
O507 C491 1.268 . S
O508 Ho481 2.378 . S
O508 C492 1.215 . S
O509 Ho481 2.524 . S
O509 C492 1.289 . S
O510 Ho481 2.381 . S
O510 C499 1.275 . S
O511 Ho480 2.305 . S
O511 Ho481 2.669 . S
O511 C499 1.256 . S
H512 C485 0.930 . S
H513 C486 0.931 . S
H514 C488 0.934 . S
H515 C489 0.930 . S
H516 C494 0.930 . S
H517 C495 0.931 . S
H518 C497 0.934 . S
H519 C498 0.930 . S
Ho520 C523 2.811 . S
Ho520 O540 2.322 . S
Ho520 O542 2.378 . S
Ho520 O543 2.524 . S
Ho520 O544 2.381 . S
Ho520 O545 2.669 . S
Ho520 O547 2.346 . S
Ho520 O551 2.305 . S
Ho521 C532 2.811 . S
Ho521 O541 2.346 . S
Ho521 O545 2.305 . S
Ho521 O546 2.322 . S
Ho521 O548 2.378 . S
Ho521 O549 2.524 . S
Ho521 O550 2.381 . S
Ho521 O551 2.669 . S
C522 O540 1.259 . S
C522 O541 1.268 . S
C523 Ho520 2.811 . S
C523 C524 1.488 . S
C523 O542 1.215 . S
C523 O543 1.289 . S
C524 C523 1.488 . S
C524 C525 1.348 . S
C524 C529 1.413 . S
C525 C524 1.348 . S
C525 C526 1.442 . S
C525 H552 0.930 . S
C526 C525 1.442 . S
C526 C527 1.381 . S
C526 H553 0.931 . S
C527 C526 1.381 . S
C527 C528 1.321 . S
C528 C527 1.321 . S
C528 C529 1.403 . S
C528 H554 0.934 . S
C529 C524 1.413 . S
C529 C528 1.403 . S
C529 H555 0.930 . S
C530 O544 1.275 . S
C530 O545 1.256 . S
C531 O546 1.259 . S
C531 O547 1.268 . S
C532 Ho521 2.811 . S
C532 C533 1.488 . S
C532 O548 1.215 . S
C532 O549 1.289 . S
C533 C532 1.488 . S
C533 C534 1.348 . S
C533 C538 1.413 . S
C534 C533 1.348 . S
C534 C535 1.442 . S
C534 H556 0.930 . S
C535 C534 1.442 . S
C535 C536 1.381 . S
C535 H557 0.931 . S
C536 C535 1.381 . S
C536 C537 1.321 . S
C537 C536 1.321 . S
C537 C538 1.403 . S
C537 H558 0.934 . S
C538 C533 1.413 . S
C538 C537 1.403 . S
C538 H559 0.930 . S
C539 O550 1.275 . S
C539 O551 1.256 . S
O540 Ho520 2.322 . S
O540 C522 1.259 . S
O541 Ho521 2.346 . S
O541 C522 1.268 . S
O542 Ho520 2.378 . S
O542 C523 1.215 . S
O543 Ho520 2.524 . S
O543 C523 1.289 . S
O544 Ho520 2.381 . S
O544 C530 1.275 . S
O545 Ho520 2.669 . S
O545 Ho521 2.305 . S
O545 C530 1.256 . S
O546 Ho521 2.322 . S
O546 C531 1.259 . S
O547 Ho520 2.346 . S
O547 C531 1.268 . S
O548 Ho521 2.378 . S
O548 C532 1.215 . S
O549 Ho521 2.524 . S
O549 C532 1.289 . S
O550 Ho521 2.381 . S
O550 C539 1.275 . S
O551 Ho520 2.305 . S
O551 Ho521 2.669 . S
O551 C539 1.256 . S
H552 C525 0.930 . S
H553 C526 0.931 . S
H554 C528 0.934 . S
H555 C529 0.930 . S
H556 C534 0.930 . S
H557 C535 0.931 . S
H558 C537 0.934 . S
H559 C538 0.930 . S
Ho560 C563 2.811 . S
Ho560 O580 2.322 . S
Ho560 O582 2.378 . S
Ho560 O583 2.524 . S
Ho560 O584 2.381 . S
Ho560 O585 2.669 . S
Ho560 O587 2.346 . S
Ho560 O591 2.305 . S
Ho561 C572 2.811 . S
Ho561 O581 2.346 . S
Ho561 O585 2.305 . S
Ho561 O586 2.322 . S
Ho561 O588 2.378 . S
Ho561 O589 2.524 . S
Ho561 O590 2.381 . S
Ho561 O591 2.669 . S
C562 O580 1.259 . S
C562 O581 1.268 . S
C563 Ho560 2.811 . S
C563 C564 1.488 . S
C563 O582 1.215 . S
C563 O583 1.289 . S
C564 C563 1.488 . S
C564 C565 1.348 . S
C564 C569 1.413 . S
C565 C564 1.348 . S
C565 C566 1.442 . S
C565 H592 0.930 . S
C566 C565 1.442 . S
C566 C567 1.381 . S
C566 H593 0.931 . S
C567 C566 1.381 . S
C567 C568 1.321 . S
C568 C567 1.321 . S
C568 C569 1.403 . S
C568 H594 0.934 . S
C569 C564 1.413 . S
C569 C568 1.403 . S
C569 H595 0.930 . S
C570 O584 1.275 . S
C570 O585 1.256 . S
C571 O586 1.259 . S
C571 O587 1.268 . S
C572 Ho561 2.811 . S
C572 C573 1.488 . S
C572 O588 1.215 . S
C572 O589 1.289 . S
C573 C572 1.488 . S
C573 C574 1.348 . S
C573 C578 1.413 . S
C574 C573 1.348 . S
C574 C575 1.442 . S
C574 H596 0.930 . S
C575 C574 1.442 . S
C575 C576 1.381 . S
C575 H597 0.931 . S
C576 C575 1.381 . S
C576 C577 1.321 . S
C577 C576 1.321 . S
C577 C578 1.403 . S
C577 H598 0.934 . S
C578 C573 1.413 . S
C578 C577 1.403 . S
C578 H599 0.930 . S
C579 O590 1.275 . S
C579 O591 1.256 . S
O580 Ho560 2.322 . S
O580 C562 1.259 . S
O581 Ho561 2.346 . S
O581 C562 1.268 . S
O582 Ho560 2.378 . S
O582 C563 1.215 . S
O583 Ho560 2.524 . S
O583 C563 1.289 . S
O584 Ho560 2.381 . S
O584 C570 1.275 . S
O585 Ho560 2.669 . S
O585 Ho561 2.305 . S
O585 C570 1.256 . S
O586 Ho561 2.322 . S
O586 C571 1.259 . S
O587 Ho560 2.346 . S
O587 C571 1.268 . S
O588 Ho561 2.378 . S
O588 C572 1.215 . S
O589 Ho561 2.524 . S
O589 C572 1.289 . S
O590 Ho561 2.381 . S
O590 C579 1.275 . S
O591 Ho560 2.305 . S
O591 Ho561 2.669 . S
O591 C579 1.256 . S
H592 C565 0.930 . S
H593 C566 0.931 . S
H594 C568 0.934 . S
H595 C569 0.930 . S
H596 C574 0.930 . S
H597 C575 0.931 . S
H598 C577 0.934 . S
H599 C578 0.930 . S
Ho600 C603 2.811 . S
Ho600 O620 2.322 . S
Ho600 O622 2.378 . S
Ho600 O623 2.524 . S
Ho600 O624 2.381 . S
Ho600 O625 2.669 . S
Ho600 O627 2.346 . S
Ho600 O631 2.305 . S
Ho601 C612 2.811 . S
Ho601 O621 2.346 . S
Ho601 O625 2.305 . S
Ho601 O626 2.322 . S
Ho601 O628 2.378 . S
Ho601 O629 2.524 . S
Ho601 O630 2.381 . S
Ho601 O631 2.669 . S
C602 O620 1.259 . S
C602 O621 1.268 . S
C603 Ho600 2.811 . S
C603 C604 1.488 . S
C603 O622 1.215 . S
C603 O623 1.289 . S
C604 C603 1.488 . S
C604 C605 1.348 . S
C604 C609 1.413 . S
C605 C604 1.348 . S
C605 C606 1.442 . S
C605 H632 0.930 . S
C606 C605 1.442 . S
C606 C607 1.381 . S
C606 H633 0.931 . S
C607 C606 1.381 . S
C607 C608 1.321 . S
C608 C607 1.321 . S
C608 C609 1.403 . S
C608 H634 0.934 . S
C609 C604 1.413 . S
C609 C608 1.403 . S
C609 H635 0.930 . S
C610 O624 1.275 . S
C610 O625 1.256 . S
C611 O626 1.259 . S
C611 O627 1.268 . S
C612 Ho601 2.811 . S
C612 C613 1.488 . S
C612 O628 1.215 . S
C612 O629 1.289 . S
C613 C612 1.488 . S
C613 C614 1.348 . S
C613 C618 1.413 . S
C614 C613 1.348 . S
C614 C615 1.442 . S
C614 H636 0.930 . S
C615 C614 1.442 . S
C615 C616 1.381 . S
C615 H637 0.931 . S
C616 C615 1.381 . S
C616 C617 1.321 . S
C617 C616 1.321 . S
C617 C618 1.403 . S
C617 H638 0.934 . S
C618 C613 1.413 . S
C618 C617 1.403 . S
C618 H639 0.930 . S
C619 O630 1.275 . S
C619 O631 1.256 . S
O620 Ho600 2.322 . S
O620 C602 1.259 . S
O621 Ho601 2.346 . S
O621 C602 1.268 . S
O622 Ho600 2.378 . S
O622 C603 1.215 . S
O623 Ho600 2.524 . S
O623 C603 1.289 . S
O624 Ho600 2.381 . S
O624 C610 1.275 . S
O625 Ho600 2.669 . S
O625 Ho601 2.305 . S
O625 C610 1.256 . S
O626 Ho601 2.322 . S
O626 C611 1.259 . S
O627 Ho600 2.346 . S
O627 C611 1.268 . S
O628 Ho601 2.378 . S
O628 C612 1.215 . S
O629 Ho601 2.524 . S
O629 C612 1.289 . S
O630 Ho601 2.381 . S
O630 C619 1.275 . S
O631 Ho600 2.305 . S
O631 Ho601 2.669 . S
O631 C619 1.256 . S
H632 C605 0.930 . S
H633 C606 0.931 . S
H634 C608 0.934 . S
H635 C609 0.930 . S
H636 C614 0.930 . S
H637 C615 0.931 . S
H638 C617 0.934 . S
H639 C618 0.930 . S
H640 C652 0.930 . S
H641 C654 0.930 . S
H642 C655 0.930 . S
H643 C659 0.959 . S
H644 C659 0.959 . S
H645 C659 0.961 . S
H646 C660 0.960 . S
H647 C660 0.961 1_545 S
H648 C660 0.950 1_545 S
H649 C663 0.929 . S
H650 C664 0.931 . S
H651 C666 0.930 . S
C652 H640 0.930 . S
C652 C653 1.399 . S
C652 C657 1.399 . S
C653 C652 1.399 . S
C653 C654 1.376 . S
C654 H641 0.930 . S
C654 C653 1.376 . S
C654 C655 1.388 . S
C655 H642 0.930 . S
C655 C654 1.388 . S
C655 C656 1.390 . S
C656 C655 1.390 . S
C656 C657 1.394 . S
C656 C662 1.465 . S
C657 C652 1.399 . S
C657 C656 1.394 . S
C657 C658 1.516 . S
C658 C657 1.516 . S
C658 C659 1.502 . S
C658 C660 1.561 . S
C658 C661 1.526 . S
C659 H643 0.959 . S
C659 H644 0.959 . S
C659 H645 0.961 . S
C659 C658 1.502 . S
C660 H646 0.960 . S
C660 H647 0.961 1_565 S
C660 H648 0.950 1_565 S
C660 C658 1.561 . S
C661 C658 1.526 . S
C661 C662 1.396 . S
C661 C666 1.390 1_565 S
C662 C656 1.465 . S
C662 C661 1.396 . S
C662 C663 1.399 . S
C663 H649 0.929 . S
C663 C662 1.399 . S
C663 C664 1.385 1_565 S
C664 H650 0.931 . S
C664 C663 1.385 1_545 S
C664 C665 1.389 . S
C665 C664 1.389 . S
C665 C666 1.387 . S
C666 H651 0.930 . S
C666 C661 1.390 1_545 S
C666 C665 1.387 . S
H667 C679 0.930 . S
H668 C681 0.930 . S
H669 C682 0.930 . S
H670 C686 0.959 . S
H671 C686 0.959 . S
H672 C686 0.961 . S
H673 C687 0.960 . S
H674 C687 0.961 . S
H675 C687 0.959 . S
H676 C690 0.929 . S
H677 C691 0.931 . S
H678 C693 0.930 . S
C679 H667 0.930 . S
C679 C680 1.399 . S
C679 C684 1.399 . S
C680 C679 1.399 . S
C680 C681 1.376 . S
C681 H668 0.930 . S
C681 C680 1.376 . S
C681 C682 1.388 . S
C682 H669 0.930 . S
C682 C681 1.388 . S
C682 C683 1.390 . S
C683 C682 1.390 . S
C683 C684 1.394 . S
C683 C689 1.465 . S
C684 C679 1.399 . S
C684 C683 1.394 . S
C684 C685 1.516 . S
C685 C684 1.516 . S
C685 C686 1.502 . S
C685 C687 1.561 . S
C685 C688 1.526 . S
C686 H670 0.959 . S
C686 H671 0.959 . S
C686 H672 0.961 . S
C686 C685 1.502 . S
C687 H673 0.960 . S
C687 H674 0.961 . S
C687 H675 0.959 . S
C687 C685 1.561 . S
C688 C685 1.526 . S
C688 C689 1.396 . S
C688 C693 1.390 1_655 S
C689 C683 1.465 . S
C689 C688 1.396 . S
C689 C690 1.399 1_655 S
C690 H676 0.929 . S
C690 C689 1.399 1_455 S
C690 C691 1.385 . S
C691 H677 0.931 . S
C691 C690 1.385 . S
C691 C692 1.389 . S
C692 C691 1.389 . S
C692 C693 1.387 . S
C693 H678 0.930 . S
C693 C688 1.390 1_455 S
C693 C692 1.387 . S
H694 C706 0.930 . S
H695 C708 0.930 . S
H696 C709 0.930 . S
H697 C713 0.959 . S
H698 C713 0.959 . S
H699 C713 0.961 1_565 S
H700 C714 0.960 1_565 S
H701 C714 0.961 . S
H702 C714 0.959 . S
H703 C717 0.929 . S
H704 C718 0.931 . S
H705 C720 0.930 . S
C706 H694 0.930 . S
C706 C707 1.399 . S
C706 C711 1.395 . S
C707 C706 1.399 . S
C707 C708 1.376 . S
C708 H695 0.930 . S
C708 C707 1.376 . S
C708 C709 1.388 1_565 S
C709 H696 0.930 . S
C709 C708 1.388 1_545 S
C709 C710 1.390 . S
C710 C709 1.390 . S
C710 C711 1.397 1_545 S
C710 C716 1.465 . S
C711 C706 1.395 . S
C711 C710 1.397 1_565 S
C711 C712 1.518 1_565 S
C712 C711 1.518 1_545 S
C712 C713 1.502 . S
C712 C714 1.561 . S
C712 C715 1.526 . S
C713 H697 0.959 . S
C713 H698 0.959 . S
C713 H699 0.961 1_545 S
C713 C712 1.502 . S
C714 H700 0.960 1_545 S
C714 H701 0.961 . S
C714 H702 0.959 . S
C714 C712 1.561 . S
C715 C712 1.526 . S
C715 C716 1.396 . S
C715 C720 1.390 . S
C716 C710 1.465 . S
C716 C715 1.396 . S
C716 C717 1.399 . S
C717 H703 0.929 . S
C717 C716 1.399 . S
C717 C718 1.385 . S
C718 H704 0.931 . S
C718 C717 1.385 . S
C718 C719 1.389 . S
C719 C718 1.389 . S
C719 C720 1.387 . S
C720 H705 0.930 . S
C720 C715 1.390 . S
C720 C719 1.387 . S
H721 C733 0.930 . S
H722 C735 0.930 . S
H723 C736 0.930 . S
H724 C740 0.959 . S
H725 C740 0.959 . S
H726 C740 0.961 . S
H727 C741 0.960 . S
H728 C741 0.961 . S
H729 C741 0.959 . S
H730 C744 0.929 . S
H731 C745 0.931 . S
H732 C747 0.930 . S
C733 H721 0.930 . S
C733 C734 1.399 . S
C733 C738 1.399 1_655 S
C734 C733 1.399 . S
C734 C735 1.376 . S
C735 H722 0.930 . S
C735 C734 1.376 . S
C735 C736 1.388 . S
C736 H723 0.930 . S
C736 C735 1.388 . S
C736 C737 1.390 1_655 S
C737 C736 1.390 1_455 S
C737 C738 1.394 . S
C737 C743 1.465 . S
C738 C733 1.399 1_455 S
C738 C737 1.394 . S
C738 C739 1.516 . S
C739 C738 1.516 . S
C739 C740 1.502 . S
C739 C741 1.561 . S
C739 C742 1.526 . S
C740 H724 0.959 . S
C740 H725 0.959 . S
C740 H726 0.961 . S
C740 C739 1.502 . S
C741 H727 0.960 . S
C741 H728 0.961 . S
C741 H729 0.959 . S
C741 C739 1.561 . S
C742 C739 1.526 . S
C742 C743 1.396 . S
C742 C747 1.390 . S
C743 C737 1.465 . S
C743 C742 1.396 . S
C743 C744 1.399 . S
C744 H730 0.929 . S
C744 C743 1.399 . S
C744 C745 1.385 . S
C745 H731 0.931 . S
C745 C744 1.385 . S
C745 C746 1.389 . S
C746 C745 1.389 . S
C746 C747 1.387 . S
C747 H732 0.930 . S
C747 C742 1.390 . S
C747 C746 1.387 . S
H748 C760 0.930 . S
H749 C762 0.930 . S
H750 C763 0.944 . S
H751 C767 0.959 . S
H752 C767 0.959 . S
H753 C767 0.961 . S
H754 C768 0.960 . S
H755 C768 0.961 . S
H756 C768 0.959 . S
H757 C771 0.929 . S
H758 C772 0.931 . S
H759 C774 0.930 . S
C760 H748 0.930 . S
C760 C761 1.399 . S
C760 C765 1.399 . S
C761 C760 1.399 . S
C761 C762 1.376 . S
C762 H749 0.930 . S
C762 C761 1.376 . S
C762 C763 1.380 1_554 S
C763 H750 0.944 . S
C763 C762 1.380 1_556 S
C763 C764 1.384 1_556 S
C764 C763 1.384 1_554 S
C764 C765 1.394 . S
C764 C770 1.465 1_554 S
C765 C760 1.399 . S
C765 C764 1.394 . S
C765 C766 1.516 . S
C766 C765 1.516 . S
C766 C767 1.502 . S
C766 C768 1.561 . S
C766 C769 1.526 . S
C767 H751 0.959 . S
C767 H752 0.959 . S
C767 H753 0.961 . S
C767 C766 1.502 . S
C768 H754 0.960 . S
C768 H755 0.961 . S
C768 H756 0.959 . S
C768 C766 1.561 . S
C769 C766 1.526 . S
C769 C770 1.396 1_554 S
C769 C774 1.390 . S
C770 C764 1.465 1_556 S
C770 C769 1.396 1_556 S
C770 C771 1.399 . S
C771 H757 0.929 . S
C771 C770 1.399 . S
C771 C772 1.385 . S
C772 H758 0.931 . S
C772 C771 1.385 . S
C772 C773 1.389 . S
C773 C772 1.389 . S
C773 C774 1.387 1_556 S
C774 H759 0.930 . S
C774 C769 1.390 . S
C774 C773 1.387 1_554 S
H775 C787 0.930 1_556 S
H776 C789 0.930 . S
H777 C790 0.930 . S
H778 C794 0.959 . S
H779 C794 0.959 . S
H780 C794 0.961 . S
H781 C795 0.960 1_554 S
H782 C795 0.961 . S
H783 C795 0.959 1_554 S
H784 C798 0.929 . S
H785 C799 0.931 . S
H786 C801 0.930 . S
C787 H775 0.930 1_554 S
C787 C788 1.399 . S
C787 C792 1.399 1_554 S
C788 C787 1.399 . S
C788 C789 1.376 . S
C789 H776 0.930 . S
C789 C788 1.376 . S
C789 C790 1.388 . S
C790 H777 0.930 . S
C790 C789 1.388 . S
C790 C791 1.390 1_554 S
C791 C790 1.390 1_556 S
C791 C792 1.394 . S
C791 C797 1.465 . S
C792 C787 1.399 1_556 S
C792 C791 1.394 . S
C792 C793 1.516 . S
C793 C792 1.516 . S
C793 C794 1.502 . S
C793 C795 1.561 . S
C793 C796 1.526 . S
C794 H778 0.959 . S
C794 H779 0.959 . S
C794 H780 0.961 . S
C794 C793 1.502 . S
C795 H781 0.960 1_556 S
C795 H782 0.961 . S
C795 H783 0.959 1_556 S
C795 C793 1.561 . S
C796 C793 1.526 . S
C796 C797 1.396 . S
C796 C801 1.390 . S
C797 C791 1.465 . S
C797 C796 1.396 . S
C797 C798 1.399 . S
C798 H784 0.929 . S
C798 C797 1.399 . S
C798 C799 1.385 . S
C799 H785 0.931 . S
C799 C798 1.385 . S
C799 C800 1.389 . S
C800 C799 1.389 . S
C800 C801 1.387 . S
C801 H786 0.930 . S
C801 C796 1.390 . S
C801 C800 1.387 . S
H802 C814 0.930 . S
H803 C816 0.930 . S
H804 C817 0.930 1_556 S
H805 C821 0.959 . S
H806 C821 0.959 . S
H807 C821 0.961 . S
H808 C822 0.960 . S
H809 C822 0.961 . S
H810 C822 0.959 . S
H811 C825 0.929 . S
H812 C826 0.931 . S
H813 C828 0.930 . S
C814 H802 0.930 . S
C814 C815 1.399 . S
C814 C819 1.399 . S
C815 C814 1.399 . S
C815 C816 1.376 . S
C816 H803 0.930 . S
C816 C815 1.376 . S
C816 C817 1.388 . S
C817 H804 0.930 1_554 S
C817 C816 1.388 . S
C817 C818 1.390 . S
C818 C817 1.390 . S
C818 C819 1.394 . S
C818 C824 1.474 . S
C819 C814 1.399 . S
C819 C818 1.394 . S
C819 C820 1.516 . S
C820 C819 1.516 . S
C820 C821 1.502 . S
C820 C822 1.561 . S
C820 C823 1.526 . S
C821 H805 0.959 . S
C821 H806 0.959 . S
C821 H807 0.961 . S
C821 C820 1.502 . S
C822 H808 0.960 . S
C822 H809 0.961 . S
C822 H810 0.959 . S
C822 C820 1.561 . S
C823 C820 1.526 . S
C823 C824 1.408 . S
C823 C828 1.390 . S
C824 C818 1.474 . S
C824 C823 1.408 . S
C824 C825 1.381 1_554 S
C825 H811 0.929 . S
C825 C824 1.381 1_556 S
C825 C826 1.385 . S
C826 H812 0.931 . S
C826 C825 1.385 . S
C826 C827 1.389 . S
C827 C826 1.389 . S
C827 C828 1.387 1_556 S
C828 H813 0.930 . S
C828 C823 1.390 . S
C828 C827 1.387 1_554 S
H829 C841 0.930 . S
H830 C843 0.930 . S
H831 C844 0.930 . S
H832 C848 0.959 . S
H833 C848 0.959 . S
H834 C848 0.961 1_554 S
H835 C849 0.960 . S
H836 C849 0.961 . S
H837 C849 0.959 . S
H838 C852 0.929 . S
H839 C853 0.931 . S
H840 C855 0.930 . S
C841 H829 0.930 . S
C841 C842 1.399 . S
C841 C846 1.399 . S
C842 C841 1.399 . S
C842 C843 1.376 1_554 S
C843 H830 0.930 . S
C843 C842 1.376 1_556 S
C843 C844 1.388 . S
C844 H831 0.930 . S
C844 C843 1.388 . S
C844 C845 1.390 . S
C845 C844 1.390 . S
C845 C846 1.394 1_556 S
C845 C851 1.465 . S
C846 C841 1.399 . S
C846 C845 1.394 1_554 S
C846 C847 1.516 . S
C847 C846 1.516 . S
C847 C848 1.502 1_554 S
C847 C849 1.561 . S
C847 C850 1.526 1_554 S
C848 H832 0.959 . S
C848 H833 0.959 . S
C848 H834 0.961 1_556 S
C848 C847 1.502 1_556 S
C849 H835 0.960 . S
C849 H836 0.961 . S
C849 H837 0.959 . S
C849 C847 1.561 . S
C850 C847 1.526 1_556 S
C850 C851 1.396 . S
C850 C855 1.390 . S
C851 C845 1.465 . S
C851 C850 1.396 . S
C851 C852 1.399 . S
C852 H838 0.929 . S
C852 C851 1.399 . S
C852 C853 1.385 . S
C853 H839 0.931 . S
C853 C852 1.385 . S
C853 C854 1.389 . S
C854 C853 1.389 . S
C854 C855 1.387 . S
C855 H840 0.930 . S
C855 C850 1.390 . S
C855 C854 1.387 . S
H856 C868 0.930 . S
H857 C870 0.930 . S
H858 C871 0.930 . S
H859 C875 0.959 . S
H860 C875 0.959 . S
H861 C875 0.961 . S
H862 C876 0.960 . S
H863 C876 0.961 . S
H864 C876 0.959 . S
H865 C879 0.929 . S
H866 C880 0.931 . S
H867 C882 0.930 . S
C868 H856 0.930 . S
C868 C869 1.399 . S
C868 C873 1.399 . S
C869 C868 1.399 . S
C869 C870 1.376 . S
C870 H857 0.930 . S
C870 C869 1.376 . S
C870 C871 1.388 . S
C871 H858 0.930 . S
C871 C870 1.388 . S
C871 C872 1.390 . S
C872 C871 1.390 . S
C872 C873 1.394 . S
C872 C878 1.465 . S
C873 C868 1.399 . S
C873 C872 1.394 . S
C873 C874 1.516 . S
C874 C873 1.516 . S
C874 C875 1.502 . S
C874 C876 1.561 . S
C874 C877 1.526 . S
C875 H859 0.959 . S
C875 H860 0.959 . S
C875 H861 0.961 . S
C875 C874 1.502 . S
C876 H862 0.960 . S
C876 H863 0.961 . S
C876 H864 0.959 . S
C876 C874 1.561 . S
C877 C874 1.526 . S
C877 C878 1.396 . S
C877 C882 1.390 . S
C878 C872 1.465 . S
C878 C877 1.396 . S
C878 C879 1.399 . S
C879 H865 0.929 . S
C879 C878 1.399 . S
C879 C880 1.385 . S
C880 H866 0.931 . S
C880 C879 1.385 . S
C880 C881 1.389 . S
C881 C880 1.389 . S
C881 C882 1.387 . S
C882 H867 0.930 . S
C882 C877 1.390 . S
C882 C881 1.387 . S
H883 C895 0.930 . S
H884 C897 0.930 . S
H885 C898 0.930 . S
H886 C902 0.959 . S
H887 C902 0.959 . S
H888 C902 0.961 . S
H889 C903 0.960 . S
H890 C903 0.961 . S
H891 C903 0.959 . S
H892 C906 0.929 . S
H893 C907 0.931 . S
H894 C909 0.930 . S
C895 H883 0.930 . S
C895 C896 1.399 . S
C895 C900 1.399 . S
C896 C895 1.399 . S
C896 C897 1.376 . S
C897 H884 0.930 . S
C897 C896 1.376 . S
C897 C898 1.388 . S
C898 H885 0.930 . S
C898 C897 1.388 . S
C898 C899 1.390 . S
C899 C898 1.390 . S
C899 C900 1.394 . S
C899 C905 1.465 . S
C900 C895 1.399 . S
C900 C899 1.394 . S
C900 C901 1.516 . S
C901 C900 1.516 . S
C901 C902 1.502 . S
C901 C903 1.561 . S
C901 C904 1.526 . S
C902 H886 0.959 . S
C902 H887 0.959 . S
C902 H888 0.961 . S
C902 C901 1.502 . S
C903 H889 0.960 . S
C903 H890 0.961 . S
C903 H891 0.959 . S
C903 C901 1.561 . S
C904 C901 1.526 . S
C904 C905 1.396 . S
C904 C909 1.390 . S
C905 C899 1.465 . S
C905 C904 1.396 . S
C905 C906 1.399 . S
C906 H892 0.929 . S
C906 C905 1.399 . S
C906 C907 1.385 . S
C907 H893 0.931 . S
C907 C906 1.385 . S
C907 C908 1.389 . S
C908 C907 1.389 . S
C908 C909 1.387 . S
C909 H894 0.930 . S
C909 C904 1.390 . S
C909 C908 1.387 . S
H910 C922 0.930 . S
H911 C924 0.930 . S
H912 C925 0.930 . S
H913 C929 0.959 . S
H914 C929 0.959 . S
H915 C929 0.961 . S
H916 C930 0.960 . S
H917 C930 0.961 . S
H918 C930 0.959 . S
H919 C933 0.929 . S
H920 C934 0.931 . S
H921 C936 0.930 . S
C922 H910 0.930 . S
C922 C923 1.399 . S
C922 C927 1.399 . S
C923 C922 1.399 . S
C923 C924 1.376 . S
C924 H911 0.930 . S
C924 C923 1.376 . S
C924 C925 1.388 . S
C925 H912 0.930 . S
C925 C924 1.388 . S
C925 C926 1.390 . S
C926 C925 1.390 . S
C926 C927 1.394 . S
C926 C932 1.465 . S
C927 C922 1.399 . S
C927 C926 1.394 . S
C927 C928 1.516 . S
C928 C927 1.516 . S
C928 C929 1.502 . S
C928 C930 1.561 . S
C928 C931 1.526 . S
C929 H913 0.959 . S
C929 H914 0.959 . S
C929 H915 0.961 . S
C929 C928 1.502 . S
C930 H916 0.960 . S
C930 H917 0.961 . S
C930 H918 0.959 . S
C930 C928 1.561 . S
C931 C928 1.526 . S
C931 C932 1.396 . S
C931 C936 1.390 . S
C932 C926 1.465 . S
C932 C931 1.396 . S
C932 C933 1.399 . S
C933 H919 0.929 . S
C933 C932 1.399 . S
C933 C934 1.385 . S
C934 H920 0.931 . S
C934 C933 1.385 . S
C934 C935 1.389 . S
C935 C934 1.389 . S
C935 C936 1.387 . S
C936 H921 0.930 . S
C936 C931 1.390 . S
C936 C935 1.387 . S
H937 C949 0.930 . S
H938 C951 0.930 . S
H939 C952 0.930 . S
H940 C956 0.959 . S
H941 C956 0.959 . S
H942 C956 0.961 . S
H943 C957 0.960 . S
H944 C957 0.961 . S
H945 C957 0.959 . S
H946 C960 0.929 . S
H947 C961 0.931 . S
H948 C963 0.930 . S
C949 H937 0.930 . S
C949 C950 1.399 . S
C949 C954 1.399 . S
C950 C949 1.399 . S
C950 C951 1.376 . S
C951 H938 0.930 . S
C951 C950 1.376 . S
C951 C952 1.388 . S
C952 H939 0.930 . S
C952 C951 1.388 . S
C952 C953 1.390 . S
C953 C952 1.390 . S
C953 C954 1.394 . S
C953 C959 1.465 . S
C954 C949 1.399 . S
C954 C953 1.394 . S
C954 C955 1.516 . S
C955 C954 1.516 . S
C955 C956 1.502 . S
C955 C957 1.561 . S
C955 C958 1.526 . S
C956 H940 0.959 . S
C956 H941 0.959 . S
C956 H942 0.961 . S
C956 C955 1.502 . S
C957 H943 0.960 . S
C957 H944 0.961 . S
C957 H945 0.959 . S
C957 C955 1.561 . S
C958 C955 1.526 . S
C958 C959 1.396 . S
C958 C963 1.390 . S
C959 C953 1.465 . S
C959 C958 1.396 . S
C959 C960 1.399 . S
C960 H946 0.929 . S
C960 C959 1.399 . S
C960 C961 1.385 . S
C961 H947 0.931 . S
C961 C960 1.385 . S
C961 C962 1.389 . S
C962 C961 1.389 . S
C962 C963 1.387 . S
C963 H948 0.930 . S
C963 C958 1.390 . S
C963 C962 1.387 . S
H964 C976 0.930 . S
H965 C978 0.930 . S
H966 C979 0.930 . S
H967 C983 0.959 . S
H968 C983 0.959 . S
H969 C983 0.961 1_565 S
H970 C984 0.960 1_565 S
H971 C984 0.961 . S
H972 C984 0.959 . S
H973 C987 0.929 . S
H974 C988 0.931 . S
H975 C990 0.930 . S
C976 H964 0.930 . S
C976 C977 1.399 . S
C976 C981 1.397 1_565 S
C977 C976 1.399 . S
C977 C978 1.376 . S
C978 H965 0.930 . S
C978 C977 1.376 . S
C978 C979 1.388 1_565 S
C979 H966 0.930 . S
C979 C978 1.388 1_545 S
C979 C980 1.390 . S
C980 C979 1.390 . S
C980 C981 1.395 . S
C980 C986 1.465 . S
C981 C976 1.397 1_545 S
C981 C980 1.395 . S
C981 C982 1.517 . S
C982 C981 1.517 . S
C982 C983 1.502 . S
C982 C984 1.561 . S
C982 C985 1.526 . S
C983 H967 0.959 . S
C983 H968 0.959 . S
C983 H969 0.961 1_545 S
C983 C982 1.502 . S
C984 H970 0.960 1_545 S
C984 H971 0.961 . S
C984 H972 0.959 . S
C984 C982 1.561 . S
C985 C982 1.526 . S
C985 C986 1.396 . S
C985 C990 1.390 . S
C986 C980 1.465 . S
C986 C985 1.396 . S
C986 C987 1.399 . S
C987 H973 0.929 . S
C987 C986 1.399 . S
C987 C988 1.385 . S
C988 H974 0.931 . S
C988 C987 1.385 . S
C988 C989 1.389 . S
C989 C988 1.389 . S
C989 C990 1.387 . S
C990 H975 0.930 . S
C990 C985 1.390 . S
C990 C989 1.387 . S
H991 C1003 0.930 . S
H992 C1005 0.930 . S
H993 C1006 0.930 . S
H994 C1010 0.959 . S
H995 C1010 0.959 . S
H996 C1010 0.961 . S
H997 C1011 0.960 . S
H998 C1011 0.961 . S
H999 C1011 0.959 . S
H1000 C1014 0.929 . S
H1001 C1015 0.931 . S
H1002 C1017 0.930 . S
C1003 H991 0.930 . S
C1003 C1004 1.399 . S
C1003 C1008 1.399 . S
C1004 C1003 1.399 . S
C1004 C1005 1.376 . S
C1005 H992 0.930 . S
C1005 C1004 1.376 . S
C1005 C1006 1.388 . S
C1006 H993 0.930 . S
C1006 C1005 1.388 . S
C1006 C1007 1.390 . S
C1007 C1006 1.390 . S
C1007 C1008 1.394 . S
C1007 C1013 1.465 . S
C1008 C1003 1.399 . S
C1008 C1007 1.394 . S
C1008 C1009 1.516 . S
C1009 C1008 1.516 . S
C1009 C1010 1.502 . S
C1009 C1011 1.561 . S
C1009 C1012 1.526 . S
C1010 H994 0.959 . S
C1010 H995 0.959 . S
C1010 H996 0.961 . S
C1010 C1009 1.502 . S
C1011 H997 0.960 . S
C1011 H998 0.961 . S
C1011 H999 0.959 . S
C1011 C1009 1.561 . S
C1012 C1009 1.526 . S
C1012 C1013 1.396 . S
C1012 C1017 1.390 1_455 S
C1013 C1007 1.465 . S
C1013 C1012 1.396 . S
C1013 C1014 1.399 1_455 S
C1014 H1000 0.929 . S
C1014 C1013 1.399 1_655 S
C1014 C1015 1.385 . S
C1015 H1001 0.931 . S
C1015 C1014 1.385 . S
C1015 C1016 1.389 . S
C1016 C1015 1.389 . S
C1016 C1017 1.387 . S
C1017 H1002 0.930 . S
C1017 C1012 1.390 1_655 S
C1017 C1016 1.387 . S
H1018 C1030 0.930 . S
H1019 C1032 0.930 . S
H1020 C1033 0.930 . S
H1021 C1037 0.959 . S
H1022 C1037 0.959 . S
H1023 C1037 0.961 . S
H1024 C1038 0.960 . S
H1025 C1038 0.961 . S
H1026 C1038 0.959 . S
H1027 C1041 0.929 . S
H1028 C1042 0.931 . S
H1029 C1044 0.930 . S
C1030 H1018 0.930 . S
C1030 C1031 1.399 . S
C1030 C1035 1.399 . S
C1031 C1030 1.399 . S
C1031 C1032 1.376 . S
C1032 H1019 0.930 . S
C1032 C1031 1.376 . S
C1032 C1033 1.388 . S
C1033 H1020 0.930 . S
C1033 C1032 1.388 . S
C1033 C1034 1.390 . S
C1034 C1033 1.390 . S
C1034 C1035 1.394 . S
C1034 C1040 1.465 . S
C1035 C1030 1.399 . S
C1035 C1034 1.394 . S
C1035 C1036 1.516 . S
C1036 C1035 1.516 . S
C1036 C1037 1.502 . S
C1036 C1038 1.561 . S
C1036 C1039 1.526 . S
C1037 H1021 0.959 . S
C1037 H1022 0.959 . S
C1037 H1023 0.961 . S
C1037 C1036 1.502 . S
C1038 H1024 0.960 . S
C1038 H1025 0.961 . S
C1038 H1026 0.959 . S
C1038 C1036 1.561 . S
C1039 C1036 1.526 . S
C1039 C1040 1.396 . S
C1039 C1044 1.390 1_565 S
C1040 C1034 1.465 . S
C1040 C1039 1.396 . S
C1040 C1041 1.399 1_565 S
C1041 H1027 0.929 . S
C1041 C1040 1.399 1_545 S
C1041 C1042 1.385 . S
C1042 H1028 0.931 . S
C1042 C1041 1.385 . S
C1042 C1043 1.389 . S
C1043 C1042 1.389 . S
C1043 C1044 1.387 . S
C1044 H1029 0.930 . S
C1044 C1039 1.390 1_545 S
C1044 C1043 1.387 . S
H1045 C1057 0.930 . S
H1046 C1059 0.930 . S
H1047 C1060 0.930 . S
H1048 C1064 0.959 . S
H1049 C1064 0.959 . S
H1050 C1064 0.961 1_455 S
H1051 C1065 0.960 . S
H1052 C1065 0.961 . S
H1053 C1065 0.959 . S
H1054 C1068 0.929 . S
H1055 C1069 0.931 . S
H1056 C1071 0.930 . S
C1057 H1045 0.930 . S
C1057 C1058 1.399 . S
C1057 C1062 1.399 1_455 S
C1058 C1057 1.399 . S
C1058 C1059 1.376 . S
C1059 H1046 0.930 . S
C1059 C1058 1.376 . S
C1059 C1060 1.388 1_455 S
C1060 H1047 0.930 . S
C1060 C1059 1.388 1_655 S
C1060 C1061 1.390 . S
C1061 C1060 1.390 . S
C1061 C1062 1.394 . S
C1061 C1067 1.465 . S
C1062 C1057 1.399 1_655 S
C1062 C1061 1.394 . S
C1062 C1063 1.516 . S
C1063 C1062 1.516 . S
C1063 C1064 1.502 . S
C1063 C1065 1.561 . S
C1063 C1066 1.526 . S
C1064 H1048 0.959 . S
C1064 H1049 0.959 . S
C1064 H1050 0.961 1_655 S
C1064 C1063 1.502 . S
C1065 H1051 0.960 . S
C1065 H1052 0.961 . S
C1065 H1053 0.959 . S
C1065 C1063 1.561 . S
C1066 C1063 1.526 . S
C1066 C1067 1.396 . S
C1066 C1071 1.390 . S
C1067 C1061 1.465 . S
C1067 C1066 1.396 . S
C1067 C1068 1.399 . S
C1068 H1054 0.929 . S
C1068 C1067 1.399 . S
C1068 C1069 1.385 . S
C1069 H1055 0.931 . S
C1069 C1068 1.385 . S
C1069 C1070 1.389 . S
C1070 C1069 1.389 . S
C1070 C1071 1.387 . S
C1071 H1056 0.930 . S
C1071 C1066 1.390 . S
C1071 C1070 1.387 . S
H1072 C1084 0.930 . S
H1073 C1086 0.930 . S
H1074 C1087 0.930 . S
H1075 C1091 0.959 . S
H1076 C1091 0.959 . S
H1077 C1091 0.961 . S
H1078 C1092 0.960 . S
H1079 C1092 0.961 . S
H1080 C1092 0.959 . S
H1081 C1095 0.929 . S
H1082 C1096 0.931 . S
H1083 C1098 0.930 . S
C1084 H1072 0.930 . S
C1084 C1085 1.399 . S
C1084 C1089 1.399 . S
C1085 C1084 1.399 . S
C1085 C1086 1.376 . S
C1086 H1073 0.930 . S
C1086 C1085 1.376 . S
C1086 C1087 1.388 . S
C1087 H1074 0.930 . S
C1087 C1086 1.388 . S
C1087 C1088 1.390 . S
C1088 C1087 1.390 . S
C1088 C1089 1.394 . S
C1088 C1094 1.465 . S
C1089 C1084 1.399 . S
C1089 C1088 1.394 . S
C1089 C1090 1.516 . S
C1090 C1089 1.516 . S
C1090 C1091 1.502 . S
C1090 C1092 1.561 . S
C1090 C1093 1.526 . S
C1091 H1075 0.959 . S
C1091 H1076 0.959 . S
C1091 H1077 0.961 . S
C1091 C1090 1.502 . S
C1092 H1078 0.960 . S
C1092 H1079 0.961 . S
C1092 H1080 0.959 . S
C1092 C1090 1.561 . S
C1093 C1090 1.526 . S
C1093 C1094 1.396 . S
C1093 C1098 1.390 . S
C1094 C1088 1.465 . S
C1094 C1093 1.396 . S
C1094 C1095 1.399 . S
C1095 H1081 0.929 . S
C1095 C1094 1.399 . S
C1095 C1096 1.385 . S
C1096 H1082 0.931 . S
C1096 C1095 1.385 . S
C1096 C1097 1.389 . S
C1097 C1096 1.389 . S
C1097 C1098 1.387 . S
C1098 H1083 0.930 . S
C1098 C1093 1.390 . S
C1098 C1097 1.387 . S
H1099 C1111 0.930 . S
H1100 C1113 0.930 . S
H1101 C1114 0.930 . S
H1102 C1118 0.959 . S
H1103 C1118 0.959 . S
H1104 C1118 0.961 . S
H1105 C1119 0.960 . S
H1106 C1119 0.961 . S
H1107 C1119 0.959 . S
H1108 C1122 0.929 . S
H1109 C1123 0.931 . S
H1110 C1125 0.930 . S
C1111 H1099 0.930 . S
C1111 C1112 1.399 . S
C1111 C1116 1.399 . S
C1112 C1111 1.399 . S
C1112 C1113 1.376 . S
C1113 H1100 0.930 . S
C1113 C1112 1.376 . S
C1113 C1114 1.388 . S
C1114 H1101 0.930 . S
C1114 C1113 1.388 . S
C1114 C1115 1.390 . S
C1115 C1114 1.390 . S
C1115 C1116 1.394 . S
C1115 C1121 1.465 . S
C1116 C1111 1.399 . S
C1116 C1115 1.394 . S
C1116 C1117 1.516 . S
C1117 C1116 1.516 . S
C1117 C1118 1.502 . S
C1117 C1119 1.561 . S
C1117 C1120 1.526 . S
C1118 H1102 0.959 . S
C1118 H1103 0.959 . S
C1118 H1104 0.961 . S
C1118 C1117 1.502 . S
C1119 H1105 0.960 . S
C1119 H1106 0.961 . S
C1119 H1107 0.959 . S
C1119 C1117 1.561 . S
C1120 C1117 1.526 . S
C1120 C1121 1.396 . S
C1120 C1125 1.390 . S
C1121 C1115 1.465 . S
C1121 C1120 1.396 . S
C1121 C1122 1.399 . S
C1122 H1108 0.929 . S
C1122 C1121 1.399 . S
C1122 C1123 1.385 . S
C1123 H1109 0.931 . S
C1123 C1122 1.385 . S
C1123 C1124 1.389 . S
C1124 C1123 1.389 . S
C1124 C1125 1.387 . S
C1125 H1110 0.930 . S
C1125 C1120 1.390 . S
C1125 C1124 1.387 . S
H1126 C1138 0.930 . S
H1127 C1140 0.930 . S
H1128 C1141 0.930 . S
H1129 C1145 0.959 . S
H1130 C1145 0.959 . S
H1131 C1145 0.961 . S
H1132 C1146 0.960 . S
H1133 C1146 0.961 . S
H1134 C1146 0.959 . S
H1135 C1149 0.929 . S
H1136 C1150 0.931 . S
H1137 C1152 0.930 . S
C1138 H1126 0.930 . S
C1138 C1139 1.399 . S
C1138 C1143 1.399 . S
C1139 C1138 1.399 . S
C1139 C1140 1.376 . S
C1140 H1127 0.930 . S
C1140 C1139 1.376 . S
C1140 C1141 1.388 . S
C1141 H1128 0.930 . S
C1141 C1140 1.388 . S
C1141 C1142 1.390 . S
C1142 C1141 1.390 . S
C1142 C1143 1.394 . S
C1142 C1148 1.465 . S
C1143 C1138 1.399 . S
C1143 C1142 1.394 . S
C1143 C1144 1.516 . S
C1144 C1143 1.516 . S
C1144 C1145 1.502 . S
C1144 C1146 1.561 . S
C1144 C1147 1.526 . S
C1145 H1129 0.959 . S
C1145 H1130 0.959 . S
C1145 H1131 0.961 . S
C1145 C1144 1.502 . S
C1146 H1132 0.960 . S
C1146 H1133 0.961 . S
C1146 H1134 0.959 . S
C1146 C1144 1.561 . S
C1147 C1144 1.526 . S
C1147 C1148 1.396 . S
C1147 C1152 1.390 . S
C1148 C1142 1.465 . S
C1148 C1147 1.396 . S
C1148 C1149 1.399 . S
C1149 H1135 0.929 . S
C1149 C1148 1.399 . S
C1149 C1150 1.385 . S
C1150 H1136 0.931 . S
C1150 C1149 1.385 . S
C1150 C1151 1.389 . S
C1151 C1150 1.389 . S
C1151 C1152 1.387 . S
C1152 H1137 0.930 . S
C1152 C1147 1.390 . S
C1152 C1151 1.387 . S
H1153 C1165 0.930 . S
H1154 C1167 0.930 . S
H1155 C1168 0.930 . S
H1156 C1172 0.959 . S
H1157 C1172 0.959 . S
H1158 C1172 0.961 . S
H1159 C1173 0.960 . S
H1160 C1173 0.961 . S
H1161 C1173 0.959 . S
H1162 C1176 0.929 . S
H1163 C1177 0.931 . S
H1164 C1179 0.930 . S
C1165 H1153 0.930 . S
C1165 C1166 1.399 . S
C1165 C1170 1.399 . S
C1166 C1165 1.399 . S
C1166 C1167 1.376 . S
C1167 H1154 0.930 . S
C1167 C1166 1.376 . S
C1167 C1168 1.388 . S
C1168 H1155 0.930 . S
C1168 C1167 1.388 . S
C1168 C1169 1.390 . S
C1169 C1168 1.390 . S
C1169 C1170 1.394 . S
C1169 C1175 1.465 . S
C1170 C1165 1.399 . S
C1170 C1169 1.394 . S
C1170 C1171 1.516 . S
C1171 C1170 1.516 . S
C1171 C1172 1.502 . S
C1171 C1173 1.561 . S
C1171 C1174 1.526 . S
C1172 H1156 0.959 . S
C1172 H1157 0.959 . S
C1172 H1158 0.961 . S
C1172 C1171 1.502 . S
C1173 H1159 0.960 . S
C1173 H1160 0.961 . S
C1173 H1161 0.959 . S
C1173 C1171 1.561 . S
C1174 C1171 1.526 . S
C1174 C1175 1.396 . S
C1174 C1179 1.390 . S
C1175 C1169 1.465 . S
C1175 C1174 1.396 . S
C1175 C1176 1.399 . S
C1176 H1162 0.929 . S
C1176 C1175 1.399 . S
C1176 C1177 1.385 . S
C1177 H1163 0.931 . S
C1177 C1176 1.385 . S
C1177 C1178 1.389 . S
C1178 C1177 1.389 . S
C1178 C1179 1.387 . S
C1179 H1164 0.930 . S
C1179 C1174 1.390 . S
C1179 C1178 1.387 . S
H1180 C1192 0.930 . S
H1181 C1194 0.930 . S
H1182 C1195 0.930 . S
H1183 C1199 0.959 . S
H1184 C1199 0.959 . S
H1185 C1199 0.961 . S
H1186 C1200 0.960 . S
H1187 C1200 0.961 . S
H1188 C1200 0.959 . S
H1189 C1203 0.929 . S
H1190 C1204 0.931 . S
H1191 C1206 0.930 . S
C1192 H1180 0.930 . S
C1192 C1193 1.399 . S
C1192 C1197 1.399 . S
C1193 C1192 1.399 . S
C1193 C1194 1.376 . S
C1194 H1181 0.930 . S
C1194 C1193 1.376 . S
C1194 C1195 1.388 . S
C1195 H1182 0.930 . S
C1195 C1194 1.388 . S
C1195 C1196 1.390 . S
C1196 C1195 1.390 . S
C1196 C1197 1.394 . S
C1196 C1202 1.465 . S
C1197 C1192 1.399 . S
C1197 C1196 1.394 . S
C1197 C1198 1.516 . S
C1198 C1197 1.516 . S
C1198 C1199 1.502 . S
C1198 C1200 1.561 . S
C1198 C1201 1.526 . S
C1199 H1183 0.959 . S
C1199 H1184 0.959 . S
C1199 H1185 0.961 . S
C1199 C1198 1.502 . S
C1200 H1186 0.960 . S
C1200 H1187 0.961 . S
C1200 H1188 0.959 . S
C1200 C1198 1.561 . S
C1201 C1198 1.526 . S
C1201 C1202 1.396 . S
C1201 C1206 1.390 . S
C1202 C1196 1.465 . S
C1202 C1201 1.396 . S
C1202 C1203 1.399 . S
C1203 H1189 0.929 . S
C1203 C1202 1.399 . S
C1203 C1204 1.385 . S
C1204 H1190 0.931 . S
C1204 C1203 1.385 . S
C1204 C1205 1.389 . S
C1205 C1204 1.389 . S
C1205 C1206 1.387 . S
C1206 H1191 0.930 . S
C1206 C1201 1.390 . S
C1206 C1205 1.387 . S
H1207 C1219 0.930 . S
H1208 C1221 0.930 . S
H1209 C1222 0.930 . S
H1210 C1226 0.959 . S
H1211 C1226 0.959 . S
H1212 C1226 0.961 . S
H1213 C1227 0.960 . S
H1214 C1227 0.961 . S
H1215 C1227 0.959 . S
H1216 C1230 0.929 . S
H1217 C1231 0.931 . S
H1218 C1233 0.930 . S
C1219 H1207 0.930 . S
C1219 C1220 1.399 . S
C1219 C1224 1.399 . S
C1220 C1219 1.399 . S
C1220 C1221 1.376 . S
C1221 H1208 0.930 . S
C1221 C1220 1.376 . S
C1221 C1222 1.388 . S
C1222 H1209 0.930 . S
C1222 C1221 1.388 . S
C1222 C1223 1.390 . S
C1223 C1222 1.390 . S
C1223 C1224 1.394 . S
C1223 C1229 1.465 . S
C1224 C1219 1.399 . S
C1224 C1223 1.394 . S
C1224 C1225 1.516 . S
C1225 C1224 1.516 . S
C1225 C1226 1.502 . S
C1225 C1227 1.561 . S
C1225 C1228 1.526 . S
C1226 H1210 0.959 . S
C1226 H1211 0.959 . S
C1226 H1212 0.961 . S
C1226 C1225 1.502 . S
C1227 H1213 0.960 . S
C1227 H1214 0.961 . S
C1227 H1215 0.959 . S
C1227 C1225 1.561 . S
C1228 C1225 1.526 . S
C1228 C1229 1.396 . S
C1228 C1233 1.390 . S
C1229 C1223 1.465 . S
C1229 C1228 1.396 . S
C1229 C1230 1.399 . S
C1230 H1216 0.929 . S
C1230 C1229 1.399 . S
C1230 C1231 1.385 . S
C1231 H1217 0.931 . S
C1231 C1230 1.385 . S
C1231 C1232 1.389 . S
C1232 C1231 1.389 . S
C1232 C1233 1.387 . S
C1233 H1218 0.930 . S
C1233 C1228 1.390 . S
C1233 C1232 1.387 . S
H1234 C1246 0.930 . S
H1235 C1248 0.930 . S
H1236 C1249 0.930 . S
H1237 C1253 0.959 . S
H1238 C1253 0.959 . S
H1239 C1253 0.961 . S
H1240 C1254 0.960 . S
H1241 C1254 0.961 . S
H1242 C1254 0.959 . S
H1243 C1257 0.929 . S
H1244 C1258 0.931 . S
H1245 C1260 0.930 . S
C1246 H1234 0.930 . S
C1246 C1247 1.399 . S
C1246 C1251 1.399 . S
C1247 C1246 1.399 . S
C1247 C1248 1.376 . S
C1248 H1235 0.930 . S
C1248 C1247 1.376 . S
C1248 C1249 1.388 . S
C1249 H1236 0.930 . S
C1249 C1248 1.388 . S
C1249 C1250 1.390 . S
C1250 C1249 1.390 . S
C1250 C1251 1.394 . S
C1250 C1256 1.465 . S
C1251 C1246 1.399 . S
C1251 C1250 1.394 . S
C1251 C1252 1.516 . S
C1252 C1251 1.516 . S
C1252 C1253 1.502 . S
C1252 C1254 1.561 . S
C1252 C1255 1.526 . S
C1253 H1237 0.959 . S
C1253 H1238 0.959 . S
C1253 H1239 0.961 . S
C1253 C1252 1.502 . S
C1254 H1240 0.960 . S
C1254 H1241 0.961 . S
C1254 H1242 0.959 . S
C1254 C1252 1.561 . S
C1255 C1252 1.526 . S
C1255 C1256 1.396 . S
C1255 C1260 1.390 . S
C1256 C1250 1.465 . S
C1256 C1255 1.396 . S
C1256 C1257 1.399 . S
C1257 H1243 0.929 . S
C1257 C1256 1.399 . S
C1257 C1258 1.385 . S
C1258 H1244 0.931 . S
C1258 C1257 1.385 . S
C1258 C1259 1.389 . S
C1259 C1258 1.389 . S
C1259 C1260 1.387 . S
C1260 H1245 0.930 . S
C1260 C1255 1.390 . S
C1260 C1259 1.387 . S
H1261 C1273 0.930 . S
H1262 C1275 0.930 . S
H1263 C1276 0.930 . S
H1264 C1280 0.959 . S
H1265 C1280 0.959 . S
H1266 C1280 0.961 . S
H1267 C1281 0.960 . S
H1268 C1281 0.961 . S
H1269 C1281 0.959 . S
H1270 C1284 0.929 . S
H1271 C1285 0.931 . S
H1272 C1287 0.930 . S
C1273 H1261 0.930 . S
C1273 C1274 1.399 . S
C1273 C1278 1.399 . S
C1274 C1273 1.399 . S
C1274 C1275 1.376 . S
C1275 H1262 0.930 . S
C1275 C1274 1.376 . S
C1275 C1276 1.388 . S
C1276 H1263 0.930 . S
C1276 C1275 1.388 . S
C1276 C1277 1.390 . S
C1277 C1276 1.390 . S
C1277 C1278 1.394 . S
C1277 C1283 1.465 . S
C1278 C1273 1.399 . S
C1278 C1277 1.394 . S
C1278 C1279 1.516 . S
C1279 C1278 1.516 . S
C1279 C1280 1.502 . S
C1279 C1281 1.561 . S
C1279 C1282 1.526 . S
C1280 H1264 0.959 . S
C1280 H1265 0.959 . S
C1280 H1266 0.961 . S
C1280 C1279 1.502 . S
C1281 H1267 0.960 . S
C1281 H1268 0.961 . S
C1281 H1269 0.959 . S
C1281 C1279 1.561 . S
C1282 C1279 1.526 . S
C1282 C1283 1.396 . S
C1282 C1287 1.390 . S
C1283 C1277 1.465 . S
C1283 C1282 1.396 . S
C1283 C1284 1.399 . S
C1284 H1270 0.929 . S
C1284 C1283 1.399 . S
C1284 C1285 1.385 . S
C1285 H1271 0.931 . S
C1285 C1284 1.385 . S
C1285 C1286 1.389 . S
C1286 C1285 1.389 . S
C1286 C1287 1.387 . S
C1287 H1272 0.930 . S
C1287 C1282 1.390 . S
C1287 C1286 1.387 . S
H1288 C1300 0.930 . S
H1289 C1302 0.930 . S
H1290 C1303 0.930 . S
H1291 C1307 0.959 . S
H1292 C1307 0.959 . S
H1293 C1307 0.961 . S
H1294 C1308 0.960 . S
H1295 C1308 0.961 . S
H1296 C1308 0.959 . S
H1297 C1311 0.929 . S
H1298 C1312 0.931 . S
H1299 C1314 0.930 . S
C1300 H1288 0.930 . S
C1300 C1301 1.399 . S
C1300 C1305 1.399 . S
C1301 C1300 1.399 . S
C1301 C1302 1.376 . S
C1302 H1289 0.930 . S
C1302 C1301 1.376 . S
C1302 C1303 1.388 . S
C1303 H1290 0.930 . S
C1303 C1302 1.388 . S
C1303 C1304 1.390 . S
C1304 C1303 1.390 . S
C1304 C1305 1.394 . S
C1304 C1310 1.465 . S
C1305 C1300 1.399 . S
C1305 C1304 1.394 . S
C1305 C1306 1.516 . S
C1306 C1305 1.516 . S
C1306 C1307 1.502 . S
C1306 C1308 1.561 . S
C1306 C1309 1.526 . S
C1307 H1291 0.959 . S
C1307 H1292 0.959 . S
C1307 H1293 0.961 . S
C1307 C1306 1.502 . S
C1308 H1294 0.960 . S
C1308 H1295 0.961 . S
C1308 H1296 0.959 . S
C1308 C1306 1.561 . S
C1309 C1306 1.526 . S
C1309 C1310 1.396 . S
C1309 C1314 1.390 . S
C1310 C1304 1.465 . S
C1310 C1309 1.396 . S
C1310 C1311 1.399 . S
C1311 H1297 0.929 . S
C1311 C1310 1.399 . S
C1311 C1312 1.385 . S
C1312 H1298 0.931 . S
C1312 C1311 1.385 . S
C1312 C1313 1.389 . S
C1313 C1312 1.389 . S
C1313 C1314 1.387 . S
C1314 H1299 0.930 . S
C1314 C1309 1.390 . S
C1314 C1313 1.387 . S
H1315 C1327 0.930 1_556 S
H1316 C1329 0.930 . S
H1317 C1330 0.930 . S
H1318 C1334 0.959 . S
H1319 C1334 0.959 . S
H1320 C1334 0.961 . S
H1321 C1335 0.960 . S
H1322 C1335 0.961 . S
H1323 C1335 0.959 . S
H1324 C1338 0.929 . S
H1325 C1339 0.931 . S
H1326 C1341 0.930 . S
C1327 H1315 0.930 1_554 S
C1327 C1328 1.399 . S
C1327 C1332 1.399 . S
C1328 C1327 1.399 . S
C1328 C1329 1.376 . S
C1329 H1316 0.930 . S
C1329 C1328 1.376 . S
C1329 C1330 1.388 . S
C1330 H1317 0.930 . S
C1330 C1329 1.388 . S
C1330 C1331 1.390 . S
C1331 C1330 1.390 . S
C1331 C1332 1.394 . S
C1331 C1337 1.465 . S
C1332 C1327 1.399 . S
C1332 C1331 1.394 . S
C1332 C1333 1.516 . S
C1333 C1332 1.516 . S
C1333 C1334 1.502 . S
C1333 C1335 1.561 . S
C1333 C1336 1.526 . S
C1334 H1318 0.959 . S
C1334 H1319 0.959 . S
C1334 H1320 0.961 . S
C1334 C1333 1.502 . S
C1335 H1321 0.960 . S
C1335 H1322 0.961 . S
C1335 H1323 0.959 . S
C1335 C1333 1.561 . S
C1336 C1333 1.526 . S
C1336 C1337 1.396 . S
C1336 C1341 1.390 . S
C1337 C1331 1.465 . S
C1337 C1336 1.396 . S
C1337 C1338 1.399 . S
C1338 H1324 0.929 . S
C1338 C1337 1.399 . S
C1338 C1339 1.385 . S
C1339 H1325 0.931 . S
C1339 C1338 1.385 . S
C1339 C1340 1.389 . S
C1340 C1339 1.389 . S
C1340 C1341 1.387 . S
C1341 H1326 0.930 . S
C1341 C1336 1.390 . S
C1341 C1340 1.387 . S
H1342 C1354 0.930 . S
H1343 C1356 0.930 1_554 S
H1344 C1357 0.930 . S
H1345 C1361 0.959 . S
H1346 C1361 0.959 . S
H1347 C1361 0.961 . S
H1348 C1362 0.960 . S
H1349 C1362 0.961 . S
H1350 C1362 0.959 . S
H1351 C1365 0.929 . S
H1352 C1366 0.931 . S
H1353 C1368 0.930 . S
C1354 H1342 0.930 . S
C1354 C1355 1.399 . S
C1354 C1359 1.399 . S
C1355 C1354 1.399 . S
C1355 C1356 1.376 . S
C1356 H1343 0.930 1_556 S
C1356 C1355 1.376 . S
C1356 C1357 1.388 . S
C1357 H1344 0.930 . S
C1357 C1356 1.388 . S
C1357 C1358 1.390 . S
C1358 C1357 1.390 . S
C1358 C1359 1.394 . S
C1358 C1364 1.465 . S
C1359 C1354 1.399 . S
C1359 C1358 1.394 . S
C1359 C1360 1.516 . S
C1360 C1359 1.516 . S
C1360 C1361 1.502 . S
C1360 C1362 1.561 . S
C1360 C1363 1.526 . S
C1361 H1345 0.959 . S
C1361 H1346 0.959 . S
C1361 H1347 0.961 . S
C1361 C1360 1.502 . S
C1362 H1348 0.960 . S
C1362 H1349 0.961 . S
C1362 H1350 0.959 . S
C1362 C1360 1.561 . S
C1363 C1360 1.526 . S
C1363 C1364 1.396 . S
C1363 C1368 1.390 . S
C1364 C1358 1.465 . S
C1364 C1363 1.396 . S
C1364 C1365 1.399 . S
C1365 H1351 0.929 . S
C1365 C1364 1.399 . S
C1365 C1366 1.385 . S
C1366 H1352 0.931 . S
C1366 C1365 1.385 . S
C1366 C1367 1.389 . S
C1367 C1366 1.389 . S
C1367 C1368 1.387 . S
C1368 H1353 0.930 . S
C1368 C1363 1.390 . S
C1368 C1367 1.387 . S
H1369 C1381 0.931 . S
H1370 C1383 0.930 . S
H1371 C1384 0.930 . S
H1372 C1388 0.959 . S
H1373 C1388 0.959 . S
H1374 C1388 0.961 . S
H1375 C1389 0.960 . S
H1376 C1389 0.961 . S
H1377 C1389 0.959 . S
H1378 C1392 0.929 . S
H1379 C1393 0.931 . S
H1380 C1395 0.930 . S
C1381 H1369 0.931 . S
C1381 C1382 1.399 . S
C1381 C1386 1.399 . S
C1382 C1381 1.399 . S
C1382 C1383 1.376 . S
C1383 H1370 0.930 . S
C1383 C1382 1.376 . S
C1383 C1384 1.388 . S
C1384 H1371 0.930 . S
C1384 C1383 1.388 . S
C1384 C1385 1.390 . S
C1385 C1384 1.390 . S
C1385 C1386 1.394 . S
C1385 C1391 1.465 . S
C1386 C1381 1.399 . S
C1386 C1385 1.394 . S
C1386 C1387 1.516 . S
C1387 C1386 1.516 . S
C1387 C1388 1.502 . S
C1387 C1389 1.561 . S
C1387 C1390 1.526 . S
C1388 H1372 0.959 . S
C1388 H1373 0.959 . S
C1388 H1374 0.961 . S
C1388 C1387 1.502 . S
C1389 H1375 0.960 . S
C1389 H1376 0.961 . S
C1389 H1377 0.959 . S
C1389 C1387 1.561 . S
C1390 C1387 1.526 . S
C1390 C1391 1.396 . S
C1390 C1395 1.390 . S
C1391 C1385 1.465 . S
C1391 C1390 1.396 . S
C1391 C1392 1.399 . S
C1392 H1378 0.929 . S
C1392 C1391 1.399 . S
C1392 C1393 1.385 . S
C1393 H1379 0.931 . S
C1393 C1392 1.385 . S
C1393 C1394 1.389 . S
C1394 C1393 1.389 . S
C1394 C1395 1.387 . S
C1395 H1380 0.930 . S
C1395 C1390 1.390 . S
C1395 C1394 1.387 . S
H1396 C1408 0.930 . S
H1397 C1410 0.930 . S
H1398 C1411 0.930 . S
H1399 C1415 0.959 . S
H1400 C1415 0.959 . S
H1401 C1415 0.961 . S
H1402 C1416 0.960 . S
H1403 C1416 0.961 . S
H1404 C1416 0.959 . S
H1405 C1419 0.929 . S
H1406 C1420 0.931 . S
H1407 C1422 0.930 . S
C1408 H1396 0.930 . S
C1408 C1409 1.399 . S
C1408 C1413 1.399 . S
C1409 C1408 1.399 . S
C1409 C1410 1.376 . S
C1410 H1397 0.930 . S
C1410 C1409 1.376 . S
C1410 C1411 1.388 . S
C1411 H1398 0.930 . S
C1411 C1410 1.388 . S
C1411 C1412 1.390 . S
C1412 C1411 1.390 . S
C1412 C1413 1.394 . S
C1412 C1418 1.465 . S
C1413 C1408 1.399 . S
C1413 C1412 1.394 . S
C1413 C1414 1.516 . S
C1414 C1413 1.516 . S
C1414 C1415 1.502 . S
C1414 C1416 1.561 . S
C1414 C1417 1.526 . S
C1415 H1399 0.959 . S
C1415 H1400 0.959 . S
C1415 H1401 0.961 . S
C1415 C1414 1.502 . S
C1416 H1402 0.960 . S
C1416 H1403 0.961 . S
C1416 H1404 0.959 . S
C1416 C1414 1.561 . S
C1417 C1414 1.526 . S
C1417 C1418 1.396 . S
C1417 C1422 1.390 . S
C1418 C1412 1.465 . S
C1418 C1417 1.396 . S
C1418 C1419 1.399 . S
C1419 H1405 0.929 . S
C1419 C1418 1.399 . S
C1419 C1420 1.385 . S
C1420 H1406 0.931 . S
C1420 C1419 1.385 . S
C1420 C1421 1.389 . S
C1421 C1420 1.389 . S
C1421 C1422 1.387 . S
C1422 H1407 0.930 . S
C1422 C1417 1.390 . S
C1422 C1421 1.387 . S
H1423 C1435 0.930 . S
H1424 C1437 0.930 . S
H1425 C1438 0.930 . S
H1426 C1442 0.959 . S
H1427 C1442 0.959 . S
H1428 C1442 0.961 . S
H1429 C1443 0.960 . S
H1430 C1443 0.961 . S
H1431 C1443 0.959 . S
H1432 C1446 0.929 . S
H1433 C1447 0.931 . S
H1434 C1449 0.930 . S
C1435 H1423 0.930 . S
C1435 C1436 1.399 . S
C1435 C1440 1.399 . S
C1436 C1435 1.399 . S
C1436 C1437 1.376 . S
C1437 H1424 0.930 . S
C1437 C1436 1.376 . S
C1437 C1438 1.388 . S
C1438 H1425 0.930 . S
C1438 C1437 1.388 . S
C1438 C1439 1.390 . S
C1439 C1438 1.390 . S
C1439 C1440 1.394 . S
C1439 C1445 1.465 . S
C1440 C1435 1.399 . S
C1440 C1439 1.394 . S
C1440 C1441 1.516 . S
C1441 C1440 1.516 . S
C1441 C1442 1.502 . S
C1441 C1443 1.561 . S
C1441 C1444 1.526 . S
C1442 H1426 0.959 . S
C1442 H1427 0.959 . S
C1442 H1428 0.961 . S
C1442 C1441 1.502 . S
C1443 H1429 0.960 . S
C1443 H1430 0.961 . S
C1443 H1431 0.959 . S
C1443 C1441 1.561 . S
C1444 C1441 1.526 . S
C1444 C1445 1.396 . S
C1444 C1449 1.390 . S
C1445 C1439 1.465 . S
C1445 C1444 1.396 . S
C1445 C1446 1.399 . S
C1446 H1432 0.929 . S
C1446 C1445 1.399 . S
C1446 C1447 1.385 . S
C1447 H1433 0.931 . S
C1447 C1446 1.385 . S
C1447 C1448 1.389 . S
C1448 C1447 1.389 . S
C1448 C1449 1.387 . S
C1449 H1434 0.930 . S
C1449 C1444 1.390 . S
C1449 C1448 1.387 . S
H1450 C1462 0.930 . S
H1451 C1464 0.930 . S
H1452 C1465 0.930 . S
H1453 C1469 0.959 . S
H1454 C1469 0.959 . S
H1455 C1469 0.961 . S
H1456 C1470 0.960 . S
H1457 C1470 0.961 . S
H1458 C1470 0.959 . S
H1459 C1473 0.929 . S
H1460 C1474 0.931 . S
H1461 C1476 0.930 . S
C1462 H1450 0.930 . S
C1462 C1463 1.399 . S
C1462 C1467 1.399 . S
C1463 C1462 1.399 . S
C1463 C1464 1.376 . S
C1464 H1451 0.930 . S
C1464 C1463 1.376 . S
C1464 C1465 1.388 . S
C1465 H1452 0.930 . S
C1465 C1464 1.388 . S
C1465 C1466 1.390 . S
C1466 C1465 1.390 . S
C1466 C1467 1.394 . S
C1466 C1472 1.465 . S
C1467 C1462 1.399 . S
C1467 C1466 1.394 . S
C1467 C1468 1.516 . S
C1468 C1467 1.516 . S
C1468 C1469 1.502 . S
C1468 C1470 1.561 . S
C1468 C1471 1.526 . S
C1469 H1453 0.959 . S
C1469 H1454 0.959 . S
C1469 H1455 0.961 . S
C1469 C1468 1.502 . S
C1470 H1456 0.960 . S
C1470 H1457 0.961 . S
C1470 H1458 0.959 . S
C1470 C1468 1.561 . S
C1471 C1468 1.526 . S
C1471 C1472 1.396 . S
C1471 C1476 1.390 . S
C1472 C1466 1.465 . S
C1472 C1471 1.396 . S
C1472 C1473 1.399 . S
C1473 H1459 0.929 . S
C1473 C1472 1.399 . S
C1473 C1474 1.385 . S
C1474 H1460 0.931 . S
C1474 C1473 1.385 . S
C1474 C1475 1.389 . S
C1475 C1474 1.389 . S
C1475 C1476 1.387 . S
C1476 H1461 0.930 . S
C1476 C1471 1.390 . S
C1476 C1475 1.387 . S
H1477 C1489 0.930 . S
H1478 C1491 0.930 . S
H1479 C1492 0.930 . S
H1480 C1496 0.959 . S
H1481 C1496 0.959 . S
H1482 C1496 0.961 . S
H1483 C1497 0.960 . S
H1484 C1497 0.961 . S
H1485 C1497 0.959 . S
H1486 C1500 0.929 . S
H1487 C1501 0.931 . S
H1488 C1503 0.930 . S
C1489 H1477 0.930 . S
C1489 C1490 1.399 . S
C1489 C1494 1.399 . S
C1490 C1489 1.399 . S
C1490 C1491 1.376 . S
C1491 H1478 0.930 . S
C1491 C1490 1.376 . S
C1491 C1492 1.388 . S
C1492 H1479 0.930 . S
C1492 C1491 1.388 . S
C1492 C1493 1.390 . S
C1493 C1492 1.390 . S
C1493 C1494 1.394 . S
C1493 C1499 1.465 . S
C1494 C1489 1.399 . S
C1494 C1493 1.394 . S
C1494 C1495 1.516 . S
C1495 C1494 1.516 . S
C1495 C1496 1.502 . S
C1495 C1497 1.561 . S
C1495 C1498 1.526 . S
C1496 H1480 0.959 . S
C1496 H1481 0.959 . S
C1496 H1482 0.961 . S
C1496 C1495 1.502 . S
C1497 H1483 0.960 . S
C1497 H1484 0.961 . S
C1497 H1485 0.959 . S
C1497 C1495 1.561 . S
C1498 C1495 1.526 . S
C1498 C1499 1.396 . S
C1498 C1503 1.390 . S
C1499 C1493 1.465 . S
C1499 C1498 1.396 . S
C1499 C1500 1.399 . S
C1500 H1486 0.929 . S
C1500 C1499 1.399 . S
C1500 C1501 1.385 . S
C1501 H1487 0.931 . S
C1501 C1500 1.385 . S
C1501 C1502 1.389 . S
C1502 C1501 1.389 . S
C1502 C1503 1.387 . S
C1503 H1488 0.930 . S
C1503 C1498 1.390 . S
C1503 C1502 1.387 . S
H1504 C1516 0.930 . S
H1505 C1518 0.930 . S
H1506 C1519 0.930 . S
H1507 C1523 0.959 . S
H1508 C1523 0.959 . S
H1509 C1523 0.961 . S
H1510 C1524 0.960 . S
H1511 C1524 0.961 . S
H1512 C1524 0.959 . S
H1513 C1527 0.929 . S
H1514 C1528 0.931 . S
H1515 C1530 0.930 . S
C1516 H1504 0.930 . S
C1516 C1517 1.399 . S
C1516 C1521 1.399 . S
C1517 C1516 1.399 . S
C1517 C1518 1.376 . S
C1518 H1505 0.930 . S
C1518 C1517 1.376 . S
C1518 C1519 1.388 . S
C1519 H1506 0.930 . S
C1519 C1518 1.388 . S
C1519 C1520 1.390 . S
C1520 C1519 1.390 . S
C1520 C1521 1.394 . S
C1520 C1526 1.465 . S
C1521 C1516 1.399 . S
C1521 C1520 1.394 . S
C1521 C1522 1.516 . S
C1522 C1521 1.516 . S
C1522 C1523 1.502 . S
C1522 C1524 1.561 . S
C1522 C1525 1.526 . S
C1523 H1507 0.959 . S
C1523 H1508 0.959 . S
C1523 H1509 0.961 . S
C1523 C1522 1.502 . S
C1524 H1510 0.960 . S
C1524 H1511 0.961 . S
C1524 H1512 0.959 . S
C1524 C1522 1.561 . S
C1525 C1522 1.526 . S
C1525 C1526 1.396 . S
C1525 C1530 1.390 . S
C1526 C1520 1.465 . S
C1526 C1525 1.396 . S
C1526 C1527 1.399 . S
C1527 H1513 0.929 . S
C1527 C1526 1.399 . S
C1527 C1528 1.385 . S
C1528 H1514 0.931 . S
C1528 C1527 1.385 . S
C1528 C1529 1.389 . S
C1529 C1528 1.389 . S
C1529 C1530 1.387 . S
C1530 H1515 0.930 . S
C1530 C1525 1.390 . S
C1530 C1529 1.387 . S
H1531 C1543 0.930 . S
H1532 C1545 0.930 . S
H1533 C1546 0.930 . S
H1534 C1550 0.959 . S
H1535 C1550 0.959 . S
H1536 C1550 0.961 . S
H1537 C1551 0.960 . S
H1538 C1551 0.961 . S
H1539 C1551 0.959 . S
H1540 C1554 0.929 . S
H1541 C1555 0.931 . S
H1542 C1557 0.930 . S
C1543 H1531 0.930 . S
C1543 C1544 1.399 . S
C1543 C1548 1.399 . S
C1544 C1543 1.399 . S
C1544 C1545 1.376 . S
C1545 H1532 0.930 . S
C1545 C1544 1.376 . S
C1545 C1546 1.388 . S
C1546 H1533 0.930 . S
C1546 C1545 1.388 . S
C1546 C1547 1.390 . S
C1547 C1546 1.390 . S
C1547 C1548 1.394 . S
C1547 C1553 1.465 . S
C1548 C1543 1.399 . S
C1548 C1547 1.394 . S
C1548 C1549 1.516 . S
C1549 C1548 1.516 . S
C1549 C1550 1.502 . S
C1549 C1551 1.561 . S
C1549 C1552 1.526 . S
C1550 H1534 0.959 . S
C1550 H1535 0.959 . S
C1550 H1536 0.961 . S
C1550 C1549 1.502 . S
C1551 H1537 0.960 . S
C1551 H1538 0.961 . S
C1551 H1539 0.959 . S
C1551 C1549 1.561 . S
C1552 C1549 1.526 . S
C1552 C1553 1.396 . S
C1552 C1557 1.390 . S
C1553 C1547 1.465 . S
C1553 C1552 1.396 . S
C1553 C1554 1.399 . S
C1554 H1540 0.929 . S
C1554 C1553 1.399 . S
C1554 C1555 1.385 . S
C1555 H1541 0.931 . S
C1555 C1554 1.385 . S
C1555 C1556 1.389 . S
C1556 C1555 1.389 . S
C1556 C1557 1.387 . S
C1557 H1542 0.930 . S
C1557 C1552 1.390 . S
C1557 C1556 1.387 . S
H1558 C1570 0.930 . S
H1559 C1572 0.930 . S
H1560 C1573 0.930 . S
H1561 C1577 0.959 . S
H1562 C1577 0.959 . S
H1563 C1577 0.961 . S
H1564 C1578 0.960 . S
H1565 C1578 0.961 . S
H1566 C1578 0.959 . S
H1567 C1581 0.929 . S
H1568 C1582 0.931 . S
H1569 C1584 0.930 . S
C1570 H1558 0.930 . S
C1570 C1571 1.399 . S
C1570 C1575 1.399 . S
C1571 C1570 1.399 . S
C1571 C1572 1.376 . S
C1572 H1559 0.930 . S
C1572 C1571 1.376 . S
C1572 C1573 1.388 . S
C1573 H1560 0.930 . S
C1573 C1572 1.388 . S
C1573 C1574 1.390 . S
C1574 C1573 1.390 . S
C1574 C1575 1.394 . S
C1574 C1580 1.465 . S
C1575 C1570 1.399 . S
C1575 C1574 1.394 . S
C1575 C1576 1.516 . S
C1576 C1575 1.516 . S
C1576 C1577 1.502 . S
C1576 C1578 1.561 . S
C1576 C1579 1.526 . S
C1577 H1561 0.959 . S
C1577 H1562 0.959 . S
C1577 H1563 0.961 . S
C1577 C1576 1.502 . S
C1578 H1564 0.960 . S
C1578 H1565 0.961 . S
C1578 H1566 0.959 . S
C1578 C1576 1.561 . S
C1579 C1576 1.526 . S
C1579 C1580 1.396 . S
C1579 C1584 1.390 . S
C1580 C1574 1.465 . S
C1580 C1579 1.396 . S
C1580 C1581 1.399 . S
C1581 H1567 0.929 . S
C1581 C1580 1.399 . S
C1581 C1582 1.385 . S
C1582 H1568 0.931 . S
C1582 C1581 1.385 . S
C1582 C1583 1.389 . S
C1583 C1582 1.389 . S
C1583 C1584 1.387 . S
C1584 H1569 0.930 . S
C1584 C1579 1.390 . S
C1584 C1583 1.387 . S
H1585 C1597 0.930 . S
H1586 C1599 0.930 . S
H1587 C1600 0.930 . S
H1588 C1604 0.959 . S
H1589 C1604 0.959 . S
H1590 C1604 0.961 . S
H1591 C1605 0.960 . S
H1592 C1605 0.961 . S
H1593 C1605 0.959 . S
H1594 C1608 0.929 . S
H1595 C1609 0.931 . S
H1596 C1611 0.930 . S
C1597 H1585 0.930 . S
C1597 C1598 1.399 . S
C1597 C1602 1.399 . S
C1598 C1597 1.399 . S
C1598 C1599 1.376 . S
C1599 H1586 0.930 . S
C1599 C1598 1.376 . S
C1599 C1600 1.388 . S
C1600 H1587 0.930 . S
C1600 C1599 1.388 . S
C1600 C1601 1.390 . S
C1601 C1600 1.390 . S
C1601 C1602 1.394 . S
C1601 C1607 1.465 . S
C1602 C1597 1.399 . S
C1602 C1601 1.394 . S
C1602 C1603 1.516 . S
C1603 C1602 1.516 . S
C1603 C1604 1.502 . S
C1603 C1605 1.561 . S
C1603 C1606 1.526 . S
C1604 H1588 0.959 . S
C1604 H1589 0.959 . S
C1604 H1590 0.961 . S
C1604 C1603 1.502 . S
C1605 H1591 0.960 . S
C1605 H1592 0.961 . S
C1605 H1593 0.959 . S
C1605 C1603 1.561 . S
C1606 C1603 1.526 . S
C1606 C1607 1.396 . S
C1606 C1611 1.390 . S
C1607 C1601 1.465 . S
C1607 C1606 1.396 . S
C1607 C1608 1.399 . S
C1608 H1594 0.929 . S
C1608 C1607 1.399 . S
C1608 C1609 1.385 . S
C1609 H1595 0.931 . S
C1609 C1608 1.385 . S
C1609 C1610 1.389 . S
C1610 C1609 1.389 . S
C1610 C1611 1.387 . S
C1611 H1596 0.930 . S
C1611 C1606 1.390 . S
C1611 C1610 1.387 . S
H1612 C1624 0.930 . S
H1613 C1626 0.930 . S
H1614 C1627 0.930 . S
H1615 C1631 0.959 . S
H1616 C1631 0.959 . S
H1617 C1631 0.961 . S
H1618 C1632 0.960 . S
H1619 C1632 0.961 . S
H1620 C1632 0.959 . S
H1621 C1635 0.929 . S
H1622 C1636 0.931 . S
H1623 C1638 0.930 . S
C1624 H1612 0.930 . S
C1624 C1625 1.399 . S
C1624 C1629 1.399 . S
C1625 C1624 1.399 . S
C1625 C1626 1.376 . S
C1626 H1613 0.930 . S
C1626 C1625 1.376 . S
C1626 C1627 1.388 . S
C1627 H1614 0.930 . S
C1627 C1626 1.388 . S
C1627 C1628 1.390 . S
C1628 C1627 1.390 . S
C1628 C1629 1.394 . S
C1628 C1634 1.465 . S
C1629 C1624 1.399 . S
C1629 C1628 1.394 . S
C1629 C1630 1.516 . S
C1630 C1629 1.516 . S
C1630 C1631 1.502 . S
C1630 C1632 1.561 . S
C1630 C1633 1.526 . S
C1631 H1615 0.959 . S
C1631 H1616 0.959 . S
C1631 H1617 0.961 . S
C1631 C1630 1.502 . S
C1632 H1618 0.960 . S
C1632 H1619 0.961 . S
C1632 H1620 0.959 . S
C1632 C1630 1.561 . S
C1633 C1630 1.526 . S
C1633 C1634 1.396 . S
C1633 C1638 1.390 . S
C1634 C1628 1.465 . S
C1634 C1633 1.396 . S
C1634 C1635 1.399 . S
C1635 H1621 0.929 . S
C1635 C1634 1.399 . S
C1635 C1636 1.385 . S
C1636 H1622 0.931 . S
C1636 C1635 1.385 . S
C1636 C1637 1.389 . S
C1637 C1636 1.389 . S
C1637 C1638 1.387 . S
C1638 H1623 0.930 . S
C1638 C1633 1.390 . S
C1638 C1637 1.387 . S
H1639 C1651 0.930 . S
H1640 C1653 0.930 . S
H1641 C1654 0.930 . S
H1642 C1658 0.959 . S
H1643 C1658 0.959 . S
H1644 C1658 0.961 . S
H1645 C1659 0.960 . S
H1646 C1659 0.961 . S
H1647 C1659 0.959 . S
H1648 C1662 0.929 . S
H1649 C1663 0.931 . S
H1650 C1665 0.930 . S
C1651 H1639 0.930 . S
C1651 C1652 1.399 . S
C1651 C1656 1.399 . S
C1652 C1651 1.399 . S
C1652 C1653 1.376 . S
C1653 H1640 0.930 . S
C1653 C1652 1.376 . S
C1653 C1654 1.388 . S
C1654 H1641 0.930 . S
C1654 C1653 1.388 . S
C1654 C1655 1.390 . S
C1655 C1654 1.390 . S
C1655 C1656 1.394 . S
C1655 C1661 1.465 . S
C1656 C1651 1.399 . S
C1656 C1655 1.394 . S
C1656 C1657 1.516 . S
C1657 C1656 1.516 . S
C1657 C1658 1.502 . S
C1657 C1659 1.561 . S
C1657 C1660 1.526 . S
C1658 H1642 0.959 . S
C1658 H1643 0.959 . S
C1658 H1644 0.961 . S
C1658 C1657 1.502 . S
C1659 H1645 0.960 . S
C1659 H1646 0.961 . S
C1659 H1647 0.959 . S
C1659 C1657 1.561 . S
C1660 C1657 1.526 . S
C1660 C1661 1.396 . S
C1660 C1665 1.390 . S
C1661 C1655 1.465 . S
C1661 C1660 1.396 . S
C1661 C1662 1.399 . S
C1662 H1648 0.929 . S
C1662 C1661 1.399 . S
C1662 C1663 1.385 . S
C1663 H1649 0.931 . S
C1663 C1662 1.385 . S
C1663 C1664 1.389 . S
C1664 C1663 1.389 . S
C1664 C1665 1.387 . S
C1665 H1650 0.930 . S
C1665 C1660 1.390 . S
C1665 C1664 1.387 . S
H1666 C1678 0.930 . S
H1667 C1680 0.930 . S
H1668 C1681 0.930 . S
H1669 C1685 0.959 . S
H1670 C1685 0.959 . S
H1671 C1685 0.961 . S
H1672 C1686 0.960 . S
H1673 C1686 0.961 . S
H1674 C1686 0.959 . S
H1675 C1689 0.929 . S
H1676 C1690 0.931 . S
H1677 C1692 0.930 . S
C1678 H1666 0.930 . S
C1678 C1679 1.399 . S
C1678 C1683 1.399 . S
C1679 C1678 1.399 . S
C1679 C1680 1.376 . S
C1680 H1667 0.930 . S
C1680 C1679 1.376 . S
C1680 C1681 1.388 . S
C1681 H1668 0.930 . S
C1681 C1680 1.388 . S
C1681 C1682 1.390 . S
C1682 C1681 1.390 . S
C1682 C1683 1.394 . S
C1682 C1688 1.465 . S
C1683 C1678 1.399 . S
C1683 C1682 1.394 . S
C1683 C1684 1.516 . S
C1684 C1683 1.516 . S
C1684 C1685 1.502 . S
C1684 C1686 1.561 . S
C1684 C1687 1.526 . S
C1685 H1669 0.959 . S
C1685 H1670 0.959 . S
C1685 H1671 0.961 . S
C1685 C1684 1.502 . S
C1686 H1672 0.960 . S
C1686 H1673 0.961 . S
C1686 H1674 0.959 . S
C1686 C1684 1.561 . S
C1687 C1684 1.526 . S
C1687 C1688 1.396 . S
C1687 C1692 1.390 . S
C1688 C1682 1.465 . S
C1688 C1687 1.396 . S
C1688 C1689 1.399 . S
C1689 H1675 0.929 . S
C1689 C1688 1.399 . S
C1689 C1690 1.385 . S
C1690 H1676 0.931 . S
C1690 C1689 1.385 . S
C1690 C1691 1.389 . S
C1691 C1690 1.389 . S
C1691 C1692 1.387 . S
C1692 H1677 0.930 . S
C1692 C1687 1.390 . S
C1692 C1691 1.387 . S
H1693 C1705 0.930 . S
H1694 C1707 0.930 . S
H1695 C1708 0.930 . S
H1696 C1712 0.959 . S
H1697 C1712 0.959 . S
H1698 C1712 0.961 . S
H1699 C1713 0.960 . S
H1700 C1713 0.961 . S
H1701 C1713 0.959 . S
H1702 C1716 0.929 . S
H1703 C1717 0.931 . S
H1704 C1719 0.930 . S
C1705 H1693 0.930 . S
C1705 C1706 1.399 . S
C1705 C1710 1.399 . S
C1706 C1705 1.399 . S
C1706 C1707 1.376 . S
C1707 H1694 0.930 . S
C1707 C1706 1.376 . S
C1707 C1708 1.388 . S
C1708 H1695 0.930 . S
C1708 C1707 1.388 . S
C1708 C1709 1.390 . S
C1709 C1708 1.390 . S
C1709 C1710 1.394 . S
C1709 C1715 1.465 . S
C1710 C1705 1.399 . S
C1710 C1709 1.394 . S
C1710 C1711 1.516 . S
C1711 C1710 1.516 . S
C1711 C1712 1.502 . S
C1711 C1713 1.561 . S
C1711 C1714 1.526 . S
C1712 H1696 0.959 . S
C1712 H1697 0.959 . S
C1712 H1698 0.961 . S
C1712 C1711 1.502 . S
C1713 H1699 0.960 . S
C1713 H1700 0.961 . S
C1713 H1701 0.959 . S
C1713 C1711 1.561 . S
C1714 C1711 1.526 . S
C1714 C1715 1.396 . S
C1714 C1719 1.390 . S
C1715 C1709 1.465 . S
C1715 C1714 1.396 . S
C1715 C1716 1.399 . S
C1716 H1702 0.929 . S
C1716 C1715 1.399 . S
C1716 C1717 1.385 . S
C1717 H1703 0.931 . S
C1717 C1716 1.385 . S
C1717 C1718 1.389 . S
C1718 C1717 1.389 . S
C1718 C1719 1.387 . S
C1719 H1704 0.930 . S
C1719 C1714 1.390 . S
C1719 C1718 1.387 . S
H1720 C1732 0.930 . S
H1721 C1734 0.930 1_556 S
H1722 C1735 0.930 . S
H1723 C1739 0.959 . S
H1724 C1739 0.959 . S
H1725 C1739 0.961 . S
H1726 C1740 0.960 . S
H1727 C1740 0.961 . S
H1728 C1740 0.959 . S
H1729 C1743 0.929 . S
H1730 C1744 0.931 . S
H1731 C1746 0.930 . S
C1732 H1720 0.930 . S
C1732 C1733 1.399 1_554 S
C1732 C1737 1.399 . S
C1733 C1732 1.399 1_556 S
C1733 C1734 1.376 1_556 S
C1734 H1721 0.930 1_554 S
C1734 C1733 1.376 1_554 S
C1734 C1735 1.388 . S
C1735 H1722 0.930 . S
C1735 C1734 1.388 . S
C1735 C1736 1.390 . S
C1736 C1735 1.390 . S
C1736 C1737 1.394 . S
C1736 C1742 1.465 . S
C1737 C1732 1.399 . S
C1737 C1736 1.394 . S
C1737 C1738 1.516 . S
C1738 C1737 1.516 . S
C1738 C1739 1.502 . S
C1738 C1740 1.561 . S
C1738 C1741 1.526 . S
C1739 H1723 0.959 . S
C1739 H1724 0.959 . S
C1739 H1725 0.961 . S
C1739 C1738 1.502 . S
C1740 H1726 0.960 . S
C1740 H1727 0.961 . S
C1740 H1728 0.959 . S
C1740 C1738 1.561 . S
C1741 C1738 1.526 . S
C1741 C1742 1.396 . S
C1741 C1746 1.390 . S
C1742 C1736 1.465 . S
C1742 C1741 1.396 . S
C1742 C1743 1.399 . S
C1743 H1729 0.929 . S
C1743 C1742 1.399 . S
C1743 C1744 1.385 . S
C1744 H1730 0.931 . S
C1744 C1743 1.385 . S
C1744 C1745 1.389 . S
C1745 C1744 1.389 . S
C1745 C1746 1.387 . S
C1746 H1731 0.930 . S
C1746 C1741 1.390 . S
C1746 C1745 1.387 . S
H1747 C1759 0.930 . S
H1748 C1761 0.930 . S
H1749 C1762 0.930 . S
H1750 C1766 0.959 . S
H1751 C1766 0.959 . S
H1752 C1766 0.961 . S
H1753 C1767 0.960 . S
H1754 C1767 0.961 . S
H1755 C1767 0.959 . S
H1756 C1770 0.929 . S
H1757 C1771 0.931 1_554 S
H1758 C1773 0.930 . S
C1759 H1747 0.930 . S
C1759 C1760 1.399 . S
C1759 C1764 1.399 . S
C1760 C1759 1.399 . S
C1760 C1761 1.376 . S
C1761 H1748 0.930 . S
C1761 C1760 1.376 . S
C1761 C1762 1.388 . S
C1762 H1749 0.930 . S
C1762 C1761 1.388 . S
C1762 C1763 1.390 . S
C1763 C1762 1.390 . S
C1763 C1764 1.394 . S
C1763 C1769 1.465 . S
C1764 C1759 1.399 . S
C1764 C1763 1.394 . S
C1764 C1765 1.516 . S
C1765 C1764 1.516 . S
C1765 C1766 1.502 . S
C1765 C1767 1.561 . S
C1765 C1768 1.526 . S
C1766 H1750 0.959 . S
C1766 H1751 0.959 . S
C1766 H1752 0.961 . S
C1766 C1765 1.502 . S
C1767 H1753 0.960 . S
C1767 H1754 0.961 . S
C1767 H1755 0.959 . S
C1767 C1765 1.561 . S
C1768 C1765 1.526 . S
C1768 C1769 1.396 . S
C1768 C1773 1.390 . S
C1769 C1763 1.465 . S
C1769 C1768 1.396 . S
C1769 C1770 1.399 . S
C1770 H1756 0.929 . S
C1770 C1769 1.399 . S
C1770 C1771 1.385 . S
C1771 H1757 0.931 1_556 S
C1771 C1770 1.385 . S
C1771 C1772 1.389 1_556 S
C1772 C1771 1.389 1_554 S
C1772 C1773 1.387 1_554 S
C1773 H1758 0.930 . S
C1773 C1768 1.390 . S
C1773 C1772 1.387 1_556 S
H1774 C1786 0.930 . S
H1775 C1788 0.930 . S
H1776 C1789 0.930 . S
H1777 C1793 0.959 . S
H1778 C1793 0.959 . S
H1779 C1793 0.961 . S
H1780 C1794 0.960 . S
H1781 C1794 0.961 . S
H1782 C1794 0.959 . S
H1783 C1797 0.929 . S
H1784 C1798 0.931 1_556 S
H1785 C1800 0.930 . S
C1786 H1774 0.930 . S
C1786 C1787 1.399 . S
C1786 C1791 1.399 . S
C1787 C1786 1.399 . S
C1787 C1788 1.376 . S
C1788 H1775 0.930 . S
C1788 C1787 1.376 . S
C1788 C1789 1.388 . S
C1789 H1776 0.930 . S
C1789 C1788 1.388 . S
C1789 C1790 1.390 . S
C1790 C1789 1.390 . S
C1790 C1791 1.394 . S
C1790 C1796 1.465 . S
C1791 C1786 1.399 . S
C1791 C1790 1.394 . S
C1791 C1792 1.516 . S
C1792 C1791 1.516 . S
C1792 C1793 1.502 . S
C1792 C1794 1.561 . S
C1792 C1795 1.526 . S
C1793 H1777 0.959 . S
C1793 H1778 0.959 . S
C1793 H1779 0.961 . S
C1793 C1792 1.502 . S
C1794 H1780 0.960 . S
C1794 H1781 0.961 . S
C1794 H1782 0.959 . S
C1794 C1792 1.561 . S
C1795 C1792 1.526 . S
C1795 C1796 1.396 . S
C1795 C1800 1.390 . S
C1796 C1790 1.465 . S
C1796 C1795 1.396 . S
C1796 C1797 1.399 . S
C1797 H1783 0.929 . S
C1797 C1796 1.399 . S
C1797 C1798 1.385 . S
C1798 H1784 0.931 1_554 S
C1798 C1797 1.385 . S
C1798 C1799 1.389 1_554 S
C1799 C1798 1.389 1_556 S
C1799 C1800 1.387 1_556 S
C1800 H1785 0.930 . S
C1800 C1795 1.390 . S
C1800 C1799 1.387 1_554 S
H1801 C1813 0.930 . S
H1802 C1815 0.930 1_554 S
H1803 C1816 0.930 . S
H1804 C1820 0.959 . S
H1805 C1820 0.959 . S
H1806 C1820 0.961 . S
H1807 C1821 0.960 . S
H1808 C1821 0.961 . S
H1809 C1821 0.959 . S
H1810 C1824 0.929 . S
H1811 C1825 0.931 . S
H1812 C1827 0.930 . S
C1813 H1801 0.930 . S
C1813 C1814 1.399 1_556 S
C1813 C1818 1.399 . S
C1814 C1813 1.399 1_554 S
C1814 C1815 1.376 1_554 S
C1815 H1802 0.930 1_556 S
C1815 C1814 1.376 1_556 S
C1815 C1816 1.388 . S
C1816 H1803 0.930 . S
C1816 C1815 1.388 . S
C1816 C1817 1.390 . S
C1817 C1816 1.390 . S
C1817 C1818 1.394 . S
C1817 C1823 1.465 . S
C1818 C1813 1.399 . S
C1818 C1817 1.394 . S
C1818 C1819 1.516 . S
C1819 C1818 1.516 . S
C1819 C1820 1.502 . S
C1819 C1821 1.561 . S
C1819 C1822 1.526 . S
C1820 H1804 0.959 . S
C1820 H1805 0.959 . S
C1820 H1806 0.961 . S
C1820 C1819 1.502 . S
C1821 H1807 0.960 . S
C1821 H1808 0.961 . S
C1821 H1809 0.959 . S
C1821 C1819 1.561 . S
C1822 C1819 1.526 . S
C1822 C1823 1.396 . S
C1822 C1827 1.390 . S
C1823 C1817 1.465 . S
C1823 C1822 1.396 . S
C1823 C1824 1.399 . S
C1824 H1810 0.929 . S
C1824 C1823 1.399 . S
C1824 C1825 1.385 . S
C1825 H1811 0.931 . S
C1825 C1824 1.385 . S
C1825 C1826 1.389 . S
C1826 C1825 1.389 . S
C1826 C1827 1.387 . S
C1827 H1812 0.930 . S
C1827 C1822 1.390 . S
C1827 C1826 1.387 . S
H1828 C1840 0.930 . S
H1829 C1842 0.930 . S
H1830 C1843 0.930 . S
H1831 C1847 0.959 . S
H1832 C1847 0.959 . S
H1833 C1847 0.961 . S
H1834 C1848 0.960 . S
H1835 C1848 0.961 . S
H1836 C1848 0.959 . S
H1837 C1851 0.929 . S
H1838 C1852 0.931 1_556 S
H1839 C1854 0.930 . S
C1840 H1828 0.930 . S
C1840 C1841 1.399 . S
C1840 C1845 1.399 . S
C1841 C1840 1.399 . S
C1841 C1842 1.376 . S
C1842 H1829 0.930 . S
C1842 C1841 1.376 . S
C1842 C1843 1.388 . S
C1843 H1830 0.930 . S
C1843 C1842 1.388 . S
C1843 C1844 1.390 . S
C1844 C1843 1.390 . S
C1844 C1845 1.394 . S
C1844 C1850 1.465 . S
C1845 C1840 1.399 . S
C1845 C1844 1.394 . S
C1845 C1846 1.516 . S
C1846 C1845 1.516 . S
C1846 C1847 1.502 . S
C1846 C1848 1.561 . S
C1846 C1849 1.526 . S
C1847 H1831 0.959 . S
C1847 H1832 0.959 . S
C1847 H1833 0.961 . S
C1847 C1846 1.502 . S
C1848 H1834 0.960 . S
C1848 H1835 0.961 . S
C1848 H1836 0.959 . S
C1848 C1846 1.561 . S
C1849 C1846 1.526 . S
C1849 C1850 1.396 . S
C1849 C1854 1.390 . S
C1850 C1844 1.465 . S
C1850 C1849 1.396 . S
C1850 C1851 1.399 . S
C1851 H1837 0.929 . S
C1851 C1850 1.399 . S
C1851 C1852 1.385 . S
C1852 H1838 0.931 1_554 S
C1852 C1851 1.385 . S
C1852 C1853 1.389 1_554 S
C1853 C1852 1.389 1_556 S
C1853 C1854 1.387 1_556 S
C1854 H1839 0.930 . S
C1854 C1849 1.390 . S
C1854 C1853 1.387 1_554 S
H1855 C1867 0.930 . S
H1856 C1869 0.930 1_554 S
H1857 C1870 0.930 . S
H1858 C1874 0.959 . S
H1859 C1874 0.959 . S
H1860 C1874 0.961 . S
H1861 C1875 0.960 . S
H1862 C1875 0.961 . S
H1863 C1875 0.959 . S
H1864 C1878 0.929 . S
H1865 C1879 0.931 . S
H1866 C1881 0.930 . S
C1867 H1855 0.930 . S
C1867 C1868 1.399 1_556 S
C1867 C1872 1.399 . S
C1868 C1867 1.399 1_554 S
C1868 C1869 1.376 1_554 S
C1869 H1856 0.930 1_556 S
C1869 C1868 1.376 1_556 S
C1869 C1870 1.388 . S
C1870 H1857 0.930 . S
C1870 C1869 1.388 . S
C1870 C1871 1.390 . S
C1871 C1870 1.390 . S
C1871 C1872 1.394 . S
C1871 C1877 1.465 . S
C1872 C1867 1.399 . S
C1872 C1871 1.394 . S
C1872 C1873 1.516 . S
C1873 C1872 1.516 . S
C1873 C1874 1.502 . S
C1873 C1875 1.561 . S
C1873 C1876 1.526 . S
C1874 H1858 0.959 . S
C1874 H1859 0.959 . S
C1874 H1860 0.961 . S
C1874 C1873 1.502 . S
C1875 H1861 0.960 . S
C1875 H1862 0.961 . S
C1875 H1863 0.959 . S
C1875 C1873 1.561 . S
C1876 C1873 1.526 . S
C1876 C1877 1.396 . S
C1876 C1881 1.390 . S
C1877 C1871 1.465 . S
C1877 C1876 1.396 . S
C1877 C1878 1.399 . S
C1878 H1864 0.929 . S
C1878 C1877 1.399 . S
C1878 C1879 1.385 . S
C1879 H1865 0.931 . S
C1879 C1878 1.385 . S
C1879 C1880 1.389 . S
C1880 C1879 1.389 . S
C1880 C1881 1.387 . S
C1881 H1866 0.930 . S
C1881 C1876 1.390 . S
C1881 C1880 1.387 . S
H1882 C1894 0.930 . S
H1883 C1896 0.928 1_556 S
H1884 C1897 0.930 . S
H1885 C1901 0.959 . S
H1886 C1901 0.959 . S
H1887 C1901 0.961 . S
H1888 C1902 0.960 . S
H1889 C1902 0.961 . S
H1890 C1902 0.959 . S
H1891 C1905 0.929 . S
H1892 C1906 0.931 . S
H1893 C1908 0.930 . S
C1894 H1882 0.930 . S
C1894 C1895 1.399 1_554 S
C1894 C1899 1.399 . S
C1895 C1894 1.399 1_556 S
C1895 C1896 1.376 1_556 S
C1896 H1883 0.928 1_554 S
C1896 C1895 1.376 1_554 S
C1896 C1897 1.392 . S
C1897 H1884 0.930 . S
C1897 C1896 1.392 . S
C1897 C1898 1.390 . S
C1898 C1897 1.390 . S
C1898 C1899 1.394 . S
C1898 C1904 1.465 . S
C1899 C1894 1.399 . S
C1899 C1898 1.394 . S
C1899 C1900 1.516 . S
C1900 C1899 1.516 . S
C1900 C1901 1.502 . S
C1900 C1902 1.561 . S
C1900 C1903 1.526 . S
C1901 H1885 0.959 . S
C1901 H1886 0.959 . S
C1901 H1887 0.961 . S
C1901 C1900 1.502 . S
C1902 H1888 0.960 . S
C1902 H1889 0.961 . S
C1902 H1890 0.959 . S
C1902 C1900 1.561 . S
C1903 C1900 1.526 . S
C1903 C1904 1.396 . S
C1903 C1908 1.390 . S
C1904 C1898 1.465 . S
C1904 C1903 1.396 . S
C1904 C1905 1.399 . S
C1905 H1891 0.929 . S
C1905 C1904 1.399 . S
C1905 C1906 1.385 . S
C1906 H1892 0.931 . S
C1906 C1905 1.385 . S
C1906 C1907 1.389 . S
C1907 C1906 1.389 . S
C1907 C1908 1.387 . S
C1908 H1893 0.930 . S
C1908 C1903 1.390 . S
C1908 C1907 1.387 . S
H1909 C1921 0.930 . S
H1910 C1923 0.930 . S
H1911 C1924 0.930 . S
H1912 C1928 0.959 . S
H1913 C1928 0.959 . S
H1914 C1928 0.961 . S
H1915 C1929 0.960 . S
H1916 C1929 0.961 . S
H1917 C1929 0.959 . S
H1918 C1932 0.929 . S
H1919 C1933 0.931 1_554 S
H1920 C1935 0.930 . S
C1921 H1909 0.930 . S
C1921 C1922 1.399 . S
C1921 C1926 1.399 . S
C1922 C1921 1.399 . S
C1922 C1923 1.376 . S
C1923 H1910 0.930 . S
C1923 C1922 1.376 . S
C1923 C1924 1.388 . S
C1924 H1911 0.930 . S
C1924 C1923 1.388 . S
C1924 C1925 1.390 . S
C1925 C1924 1.390 . S
C1925 C1926 1.394 . S
C1925 C1931 1.465 . S
C1926 C1921 1.399 . S
C1926 C1925 1.394 . S
C1926 C1927 1.516 . S
C1927 C1926 1.516 . S
C1927 C1928 1.502 . S
C1927 C1929 1.561 . S
C1927 C1930 1.526 . S
C1928 H1912 0.959 . S
C1928 H1913 0.959 . S
C1928 H1914 0.961 . S
C1928 C1927 1.502 . S
C1929 H1915 0.960 . S
C1929 H1916 0.961 . S
C1929 H1917 0.959 . S
C1929 C1927 1.561 . S
C1930 C1927 1.526 . S
C1930 C1931 1.396 . S
C1930 C1935 1.390 . S
C1931 C1925 1.465 . S
C1931 C1930 1.396 . S
C1931 C1932 1.399 . S
C1932 H1918 0.929 . S
C1932 C1931 1.399 . S
C1932 C1933 1.385 . S
C1933 H1919 0.931 1_556 S
C1933 C1932 1.385 . S
C1933 C1934 1.389 1_556 S
C1934 C1933 1.389 1_554 S
C1934 C1935 1.387 1_554 S
C1935 H1920 0.930 . S
C1935 C1930 1.390 . S
C1935 C1934 1.387 1_556 S
C653 C451 1.736 . S
C665 C19 1.699 . S
C680 C322 1.685 . S
C692 C50 1.739 . S
C707 C99 1.732 . S
C719 C371 1.720 . S
C734 C130 1.743 . S
C746 C402 1.686 . S
C761 C179 1.712 . S
C773 C211 1.697 . S
C788 C242 1.684 . S
C800 C210 1.742 . S
C815 C259 1.703 . S
C827 C291 1.707 . S
C842 C162 1.697 . S
C854 C290 1.736 . S
C869 C131 1.738 . S
C881 C339 1.705 . S
C896 C370 1.723 . S
C908 C2 1.701 . S
C923 C51 1.684 . S
C935 C419 1.733 . S
C950 C82 1.685 . S
C962 C450 1.739 . S
C977 C499 1.730 . S
C989 C531 1.722 . S
C1004 C562 1.685 . S
C1016 C530 1.739 . S
C1031 C611 1.684 . S
C1043 C579 1.736 . S
C1058 C610 1.738 . S
C1070 C482 1.696 . S
C1085 C10 1.120 . S
C1097 C170 1.217 . S
C1112 C219 1.124 . S
C1124 C59 1.180 . S
C1139 C90 1.117 . S
C1151 C250 1.223 . S
C1166 C139 1.228 . S
C1178 C299 1.125 . S
C1193 C330 1.123 . S
C1205 C490 1.213 . S
C1220 C539 1.199 . S
C1232 C379 1.118 . S
C1247 C410 1.120 . S
C1259 C570 1.217 . S
C1274 C459 1.131 . S
C1286 C619 1.170 . S
C1301 C571 2.307 . S
C1313 C11 2.283 1_556 S
C1328 C42 2.272 1_554 S
C1340 C602 2.305 . S
C1355 C91 2.306 1_556 S
C1367 C491 2.286 . S
C1382 C122 2.275 1_554 S
C1394 C522 2.301 . S
C1409 C171 2.306 . S
C1421 C411 2.285 . S
C1436 C202 2.278 . S
C1448 C442 2.296 . S
C1463 C251 2.274 . S
C1475 C331 2.293 . S
C1490 C362 2.305 . S
C1502 C282 2.278 . S
C1517 C7 1.095 . S
C1529 C16 1.069 . S
C1544 C56 1.093 . S
C1556 C47 1.078 . S
C1571 C87 1.071 . S
C1583 C96 1.098 . S
C1598 C127 1.098 . S
C1610 C136 1.072 . S
C1625 C176 1.070 . S
C1637 C167 1.098 . S
C1652 C216 1.074 . S
C1664 C207 1.087 . S
C1679 C247 1.088 . S
C1691 C256 1.074 . S
C1706 C287 1.069 . S
C1718 C296 1.093 . S
C1733 C327 1.076 . S
C1745 C336 1.094 . S
C1760 C367 1.095 . S
C1772 C376 1.076 . S
C1787 C416 1.088 . S
C1799 C407 1.074 . S
C1814 C456 1.093 . S
C1826 C447 1.078 . S
C1841 C487 1.092 . S
C1853 C496 1.071 . S
C1868 C527 1.068 . S
C1880 C536 1.095 . S
C1895 C576 1.068 . S
C1907 C567 1.099 . S
C1922 C616 1.088 . S
C1934 C607 1.084 . S
