# Generated by pormake.
# Topology uoz, (4)-cn, num edge types: 1
# Building blocks:
#     Node 0, Type 0, BuildingBlock: UXUYUI_clean_sbu_0, # of connection points: 4
#     Node 1, Type 0, BuildingBlock: UXUYUI_clean_sbu_0, # of connection points: 4
#     Node 2, Type 0, BuildingBlock: UXUYUI_clean_sbu_0, # of connection points: 4
#     Node 3, Type 0, BuildingBlock: UXUYUI_clean_sbu_0, # of connection points: 4
#     Node 4, Type 0, BuildingBlock: UXUYUI_clean_sbu_0, # of connection points: 4
#     Node 5, Type 0, BuildingBlock: UXUYUI_clean_sbu_0, # of connection points: 4
#     Node 6, Type 0, BuildingBlock: UXUYUI_clean_sbu_0, # of connection points: 4
#     Node 7, Type 0, BuildingBlock: UXUYUI_clean_sbu_0, # of connection points: 4
#     Node 8, Type 0, BuildingBlock: UXUYUI_clean_sbu_0, # of connection points: 4
#     Node 9, Type 0, BuildingBlock: UXUYUI_clean_sbu_0, # of connection points: 4
#     Node 10, Type 0, BuildingBlock: UXUYUI_clean_sbu_0, # of connection points: 4
#     Node 11, Type 0, BuildingBlock: UXUYUI_clean_sbu_0, # of connection points: 4
#     Node 12, Type 0, BuildingBlock: UXUYUI_clean_sbu_0, # of connection points: 4
#     Node 13, Type 0, BuildingBlock: UXUYUI_clean_sbu_0, # of connection points: 4
#     Node 14, Type 0, BuildingBlock: UXUYUI_clean_sbu_0, # of connection points: 4
#     Node 15, Type 0, BuildingBlock: UXUYUI_clean_sbu_0, # of connection points: 4
#     Edge 16, Type (0, 0), BuildingBlock: ZUJKAS_clean_linker_0, # of connection points: 2
#     Edge 17, Type (0, 0), BuildingBlock: ZUJKAS_clean_linker_0, # of connection points: 2
#     Edge 18, Type (0, 0), BuildingBlock: ZUJKAS_clean_linker_0, # of connection points: 2
#     Edge 19, Type (0, 0), BuildingBlock: ZUJKAS_clean_linker_0, # of connection points: 2
#     Edge 20, Type (0, 0), BuildingBlock: ZUJKAS_clean_linker_0, # of connection points: 2
#     Edge 21, Type (0, 0), BuildingBlock: ZUJKAS_clean_linker_0, # of connection points: 2
#     Edge 22, Type (0, 0), BuildingBlock: ZUJKAS_clean_linker_0, # of connection points: 2
#     Edge 23, Type (0, 0), BuildingBlock: ZUJKAS_clean_linker_0, # of connection points: 2
#     Edge 24, Type (0, 0), BuildingBlock: ZUJKAS_clean_linker_0, # of connection points: 2
#     Edge 25, Type (0, 0), BuildingBlock: ZUJKAS_clean_linker_0, # of connection points: 2
#     Edge 26, Type (0, 0), BuildingBlock: ZUJKAS_clean_linker_0, # of connection points: 2
#     Edge 27, Type (0, 0), BuildingBlock: ZUJKAS_clean_linker_0, # of connection points: 2
#     Edge 28, Type (0, 0), BuildingBlock: ZUJKAS_clean_linker_0, # of connection points: 2
#     Edge 29, Type (0, 0), BuildingBlock: ZUJKAS_clean_linker_0, # of connection points: 2
#     Edge 30, Type (0, 0), BuildingBlock: ZUJKAS_clean_linker_0, # of connection points: 2
#     Edge 31, Type (0, 0), BuildingBlock: ZUJKAS_clean_linker_0, # of connection points: 2
#     Edge 32, Type (0, 0), BuildingBlock: ZUJKAS_clean_linker_0, # of connection points: 2
#     Edge 33, Type (0, 0), BuildingBlock: ZUJKAS_clean_linker_0, # of connection points: 2
#     Edge 34, Type (0, 0), BuildingBlock: ZUJKAS_clean_linker_0, # of connection points: 2
#     Edge 35, Type (0, 0), BuildingBlock: ZUJKAS_clean_linker_0, # of connection points: 2
#     Edge 36, Type (0, 0), BuildingBlock: ZUJKAS_clean_linker_0, # of connection points: 2
#     Edge 37, Type (0, 0), BuildingBlock: ZUJKAS_clean_linker_0, # of connection points: 2
#     Edge 38, Type (0, 0), BuildingBlock: ZUJKAS_clean_linker_0, # of connection points: 2
#     Edge 39, Type (0, 0), BuildingBlock: ZUJKAS_clean_linker_0, # of connection points: 2
#     Edge 40, Type (0, 0), BuildingBlock: ZUJKAS_clean_linker_0, # of connection points: 2
#     Edge 41, Type (0, 0), BuildingBlock: ZUJKAS_clean_linker_0, # of connection points: 2
#     Edge 42, Type (0, 0), BuildingBlock: ZUJKAS_clean_linker_0, # of connection points: 2
#     Edge 43, Type (0, 0), BuildingBlock: ZUJKAS_clean_linker_0, # of connection points: 2
#     Edge 44, Type (0, 0), BuildingBlock: ZUJKAS_clean_linker_0, # of connection points: 2
#     Edge 45, Type (0, 0), BuildingBlock: ZUJKAS_clean_linker_0, # of connection points: 2
#     Edge 46, Type (0, 0), BuildingBlock: ZUJKAS_clean_linker_0, # of connection points: 2
#     Edge 47, Type (0, 0), BuildingBlock: ZUJKAS_clean_linker_0, # of connection points: 2
# Relax obj value: 0.206
# Max RMSD: 0.135
# Mean RMSD: 0.135
data_MOF--net-uoz--node1-UXUYUI_clean_sbu_0--edge1-ZUJKAS_clean_linker_0
_symmetry_space_group_name_H-M    P1
_symmetry_Int_Tables_number       1
_symmetry_cell_setting            triclinic
loop_
_symmetry_equiv_pos_as_xyz
'x, y, z'
_cell_length_a     103.94871
_cell_length_b     103.72402
_cell_length_c     39.824246
_cell_angle_alpha  90.005438
_cell_angle_beta   90.000601
_cell_angle_gamma 89.998533
loop_
_atom_site_label
_atom_site_type_symbol
_atom_site_fract_x
_atom_site_fract_y
_atom_site_fract_z
_atom_type_partial_charge
Li0 Li 0.98902 0.59353 0.3209 0.0
Li1 Li 0.01234 0.59273 0.32315 0.0
Li2 Li 0.00128 0.57583 0.29479 0.0
Li3 Li 0.00136 0.57665 0.35632 0.0
C4 C 0.00802 0.59818 0.25623 0.0
N5 N 0.02278 0.60698 0.20327 0.0
C6 C 0.01894 0.59135 0.24612 0.0
C7 C 0.00456 0.60946 0.23928 0.0
C8 C 0.02629 0.59596 0.21933 0.0
C9 C 0.01216 0.61376 0.21259 0.0
C10 C 0.00584 0.60631 0.37718 0.0
C11 C 0.02355 0.61573 0.40768 0.0
N12 N 0.01743 0.62732 0.40734 0.0
C13 C 0.99965 0.61827 0.37754 0.0
C14 C 0.01781 0.60499 0.39276 0.0
C15 C 0.00569 0.62879 0.39277 0.0
C16 C 0.96237 0.60003 0.31356 0.0
N17 N 0.97468 0.60445 0.31387 0.0
C18 C 0.96806 0.62468 0.29119 0.0
C19 C 0.97761 0.6166 0.30372 0.0
C20 C 0.95536 0.62015 0.28846 0.0
C21 C 0.95248 0.60778 0.30085 0.0
H22 H 0.96034 0.59026 0.32144 0.0
H23 H 0.98752 0.61979 0.30395 0.0
C24 C 0.0389 0.60055 0.31289 0.0
N25 N 0.0265 0.60444 0.31704 0.0
C26 C 0.04804 0.60901 0.29963 0.0
C27 C 0.03172 0.62555 0.29719 0.0
C28 C 0.0229 0.61678 0.31034 0.0
C29 C 0.04438 0.62157 0.29048 0.0
H30 H 0.0416 0.59071 0.31774 0.0
H31 H 0.01294 0.61957 0.31306 0.0
C32 C 0.97936 0.56507 0.30956 0.0
N33 N 0.9667 0.54579 0.27492 0.0
C34 C 0.98051 0.55224 0.31982 0.0
C35 C 0.97172 0.56811 0.28178 0.0
C36 C 0.97404 0.54263 0.30196 0.0
C37 C 0.96541 0.55822 0.26457 0.0
C38 C 0.02791 0.56976 0.33237 0.0
C39 C 0.03551 0.56439 0.30699 0.0
C40 C 0.03274 0.57056 0.36506 0.0
C41 C 0.04792 0.56014 0.31464 0.0
C42 C 0.0452 0.56618 0.3717 0.0
N43 N 0.05247 0.56113 0.34656 0.0
C44 C 0.99618 0.56811 0.22816 0.0
C45 C 0.0061 0.55227 0.26245 0.0
C46 C 0.99586 0.55959 0.20108 0.0
N47 N 0.00125 0.56431 0.25799 0.0
C48 C 0.00602 0.54345 0.23602 0.0
C49 C 0.00084 0.54709 0.20484 0.0
H50 H 0.99228 0.57772 0.22551 0.0
H51 H 0.00993 0.54951 0.28667 0.0
C52 C 0.99605 0.56925 0.42449 0.0
N53 N 0.00125 0.5657 0.39455 0.0
C54 C 0.99589 0.56055 0.45139 0.0
C55 C 0.00655 0.54488 0.41609 0.0
C56 C 0.00639 0.55379 0.38993 0.0
C57 C 0.00122 0.54818 0.44731 0.0
H58 H 0.99197 0.57878 0.42738 0.0
H59 H 0.01028 0.55117 0.36567 0.0
O60 O 0.001 0.59411 0.28333 0.0
O61 O 0.00011 0.59595 0.36202 0.0
O62 O 0.98595 0.57456 0.32605 0.0
O63 O 0.01571 0.57389 0.32529 0.0
H64 H 0.02181 0.58268 0.25913 0.0
H65 H 0.99616 0.61489 0.24678 0.0
H66 H 0.03481 0.5908 0.2114 0.0
H67 H 0.00963 0.6225 0.19934 0.0
H68 H 0.03288 0.61486 0.41951 0.0
H69 H 0.99025 0.61942 0.36631 0.0
H70 H 0.0227 0.59581 0.39298 0.0
H71 H 0.00103 0.63812 0.39305 0.0
H72 H 0.97069 0.63424 0.28264 0.0
H73 H 0.94285 0.60385 0.29906 0.0
H74 H 0.05765 0.60547 0.29462 0.0
H75 H 0.0285 0.6352 0.29104 0.0
H76 H 0.98641 0.54971 0.34119 0.0
H77 H 0.9709 0.57796 0.27315 0.0
H78 H 0.97489 0.53265 0.30954 0.0
H79 H 0.95955 0.56042 0.24286 0.0
H80 H 0.03189 0.56353 0.28163 0.0
H81 H 0.02691 0.57437 0.38518 0.0
H82 H 0.05393 0.55603 0.29521 0.0
H83 H 0.04906 0.56677 0.39688 0.0
H84 H 0.99187 0.5628 0.17738 0.0
H85 H 0.00978 0.53384 0.24008 0.0
H86 H 0.99173 0.56348 0.47513 0.0
H87 H 0.01055 0.53539 0.41167 0.0
Li88 Li 0.6737 0.75158 0.60267 0.0
Li89 Li 0.65641 0.76412 0.56915 0.0
Li90 Li 0.65678 0.74039 0.56921 0.0
Li91 Li 0.6737 0.75182 0.54262 0.0
C92 C 0.64563 0.74521 0.62654 0.0
N93 N 0.6279 0.73007 0.65988 0.0
C94 C 0.63276 0.74905 0.62835 0.0
C95 C 0.64951 0.73373 0.64182 0.0
C96 C 0.62394 0.74125 0.64531 0.0
C97 C 0.64039 0.72619 0.65851 0.0
C98 C 0.68241 0.77589 0.55545 0.0
C99 C 0.68548 0.78915 0.50634 0.0
N100 N 0.69682 0.79343 0.51922 0.0
C101 C 0.69404 0.7805 0.56833 0.0
C102 C 0.67804 0.78033 0.52434 0.0
C103 C 0.70121 0.78934 0.54958 0.0
C104 C 0.69738 0.75378 0.63351 0.0
N105 N 0.68476 0.75177 0.64058 0.0
C106 C 0.68945 0.75005 0.6992 0.0
C107 C 0.68062 0.74994 0.67263 0.0
C108 C 0.70257 0.75217 0.69257 0.0
C109 C 0.70648 0.75406 0.65919 0.0
H110 H 0.70039 0.75505 0.60774 0.0
H111 H 0.67051 0.74841 0.67756 0.0
C112 C 0.63305 0.77586 0.55586 0.0
N113 N 0.64541 0.77854 0.56442 0.0
C114 C 0.62491 0.78567 0.54492 0.0
C115 C 0.64219 0.80094 0.55338 0.0
C116 C 0.65001 0.7908 0.56426 0.0
C117 C 0.62956 0.79837 0.54267 0.0
H118 H 0.62978 0.76596 0.55555 0.0
H119 H 0.65991 0.79264 0.57105 0.0
C120 C 0.68392 0.72915 0.55533 0.0
N121 N 0.70153 0.71501 0.51865 0.0
C122 C 0.68023 0.72324 0.52529 0.0
C123 C 0.69652 0.72769 0.56698 0.0
C124 C 0.68929 0.71619 0.50702 0.0
C125 C 0.70529 0.72054 0.54801 0.0
C126 C 0.64973 0.75159 0.50082 0.0
C127 C 0.6473 0.73964 0.48579 0.0
C128 C 0.64618 0.7629 0.48407 0.0
C129 C 0.64137 0.73921 0.45433 0.0
C130 C 0.64029 0.76206 0.45262 0.0
N131 N 0.63802 0.75034 0.43853 0.0
C132 C 0.63286 0.72948 0.55696 0.0
C133 C 0.6495 0.71398 0.56223 0.0
C134 C 0.62437 0.72011 0.54527 0.0
N135 N 0.64523 0.72634 0.56423 0.0
C136 C 0.64132 0.70427 0.55047 0.0
C137 C 0.6287 0.7074 0.54068 0.0
H138 H 0.62982 0.73944 0.55826 0.0
H139 H 0.65944 0.71179 0.56783 0.0
C140 C 0.69823 0.75363 0.51367 0.0
N141 N 0.6856 0.75194 0.50589 0.0
C142 C 0.70752 0.75379 0.48841 0.0
C143 C 0.69068 0.75026 0.44758 0.0
C144 C 0.68172 0.75025 0.4736 0.0
C145 C 0.70376 0.75207 0.45487 0.0
H146 H 0.70109 0.75479 0.5396 0.0
H147 H 0.67171 0.74884 0.46783 0.0
O148 O 0.65436 0.75254 0.6094 0.0
O149 O 0.67535 0.76704 0.5731 0.0
O150 O 0.67525 0.73636 0.57314 0.0
O151 O 0.65538 0.75223 0.53186 0.0
H152 H 0.62962 0.75793 0.61666 0.0
H153 H 0.65943 0.73059 0.64039 0.0
H154 H 0.61394 0.74407 0.64682 0.0
H155 H 0.64323 0.71724 0.67029 0.0
H156 H 0.68225 0.79258 0.48211 0.0
H157 H 0.6975 0.77734 0.59257 0.0
H158 H 0.66908 0.77685 0.51403 0.0
H159 H 0.71025 0.79295 0.55919 0.0
H160 H 0.68604 0.74864 0.72463 0.0
H161 H 0.71651 0.75552 0.65289 0.0
H162 H 0.61532 0.7832 0.53644 0.0
H163 H 0.64611 0.81061 0.55239 0.0
H164 H 0.67053 0.72425 0.51593 0.0
H165 H 0.6995 0.73204 0.59037 0.0
H166 H 0.68659 0.71168 0.48356 0.0
H167 H 0.71509 0.7194 0.55664 0.0
H168 H 0.64997 0.73077 0.49813 0.0
H169 H 0.64794 0.77224 0.49515 0.0
H170 H 0.63944 0.73003 0.44248 0.0
H171 H 0.6375 0.77074 0.43944 0.0
H172 H 0.61466 0.7229 0.53857 0.0
H173 H 0.64508 0.69461 0.54717 0.0
H174 H 0.71754 0.75505 0.49511 0.0
H175 H 0.68739 0.74901 0.42198 0.0
Li176 Li 0.49676 0.42422 0.79609 0.0
Li177 Li 0.49766 0.42177 0.85599 0.0
Li178 Li 0.50971 0.40614 0.82084 0.0
Li179 Li 0.48612 0.40595 0.82562 0.0
C180 C 0.52304 0.4288 0.80696 0.0
N181 N 0.5447 0.43573 0.77101 0.0
C182 C 0.53247 0.43655 0.82175 0.0
C183 C 0.52461 0.42461 0.77385 0.0
C184 C 0.54336 0.43994 0.80317 0.0
C185 C 0.53563 0.42821 0.7561 0.0
C186 C 0.47595 0.43376 0.84583 0.0
C187 C 0.46188 0.43996 0.89123 0.0
N188 N 0.46445 0.45258 0.88475 0.0
C189 C 0.47834 0.44679 0.83941 0.0
C190 C 0.46757 0.43031 0.87177 0.0
C191 C 0.47248 0.45616 0.85944 0.0
C192 C 0.48884 0.43403 0.73244 0.0
N193 N 0.49586 0.43646 0.76051 0.0
C194 C 0.50191 0.45715 0.73938 0.0
C195 C 0.50222 0.44781 0.76454 0.0
C196 C 0.4949 0.45482 0.70984 0.0
C197 C 0.48828 0.44308 0.70659 0.0
H198 H 0.4836 0.42513 0.73007 0.0
H199 H 0.50745 0.44967 0.78749 0.0
C200 C 0.4933 0.42954 0.92494 0.0
N201 N 0.4985 0.4326 0.89464 0.0
C202 C 0.49314 0.43866 0.95087 0.0
C203 C 0.50393 0.45369 0.91402 0.0
C204 C 0.50389 0.44432 0.88897 0.0
C205 C 0.49834 0.45101 0.94535 0.0
H206 H 0.48896 0.42018 0.92869 0.0
H207 H 0.50784 0.44654 0.86451 0.0
C208 C 0.49406 0.40088 0.75381 0.0
N209 N 0.48806 0.39085 0.6914 0.0
C210 C 0.48125 0.40021 0.74322 0.0
C211 C 0.50382 0.39649 0.73251 0.0
C212 C 0.47841 0.3951 0.71164 0.0
C213 C 0.50059 0.39146 0.70108 0.0
C214 C 0.49386 0.39226 0.87708 0.0
C215 C 0.49973 0.38019 0.87417 0.0
C216 C 0.48243 0.39346 0.89523 0.0
C217 C 0.49391 0.36946 0.88896 0.0
C218 C 0.47689 0.3825 0.90963 0.0
N219 N 0.4827 0.37082 0.90619 0.0
C220 C 0.53654 0.39924 0.81715 0.0
C221 C 0.52141 0.3837 0.79856 0.0
C222 C 0.54672 0.39164 0.80548 0.0
N223 N 0.52417 0.39532 0.8126 0.0
C224 C 0.53126 0.37575 0.78691 0.0
C225 C 0.54409 0.37984 0.78957 0.0
H226 H 0.53852 0.40843 0.8288 0.0
H227 H 0.51148 0.38085 0.79521 0.0
C228 C 0.45979 0.39877 0.81992 0.0
N229 N 0.47208 0.39431 0.82078 0.0
C230 C 0.44986 0.39081 0.80848 0.0
C231 C 0.46535 0.37368 0.80071 0.0
C232 C 0.47497 0.38197 0.81209 0.0
C233 C 0.45266 0.3782 0.79781 0.0
H234 H 0.45782 0.40872 0.82604 0.0
H235 H 0.48489 0.37883 0.8119 0.0
O236 O 0.51236 0.42539 0.82497 0.0
O237 O 0.48193 0.42445 0.82718 0.0
O238 O 0.49704 0.40555 0.78507 0.0
O239 O 0.49933 0.40284 0.86238 0.0
H240 H 0.5314 0.43987 0.84737 0.0
H241 H 0.51739 0.41871 0.76192 0.0
H242 H 0.55074 0.44591 0.81432 0.0
H243 H 0.53697 0.42503 0.73047 0.0
H244 H 0.45545 0.43742 0.91154 0.0
H245 H 0.4848 0.44964 0.81949 0.0
H246 H 0.46555 0.42029 0.87703 0.0
H247 H 0.47435 0.46627 0.85495 0.0
H248 H 0.50694 0.46617 0.74324 0.0
H249 H 0.48282 0.44085 0.68418 0.0
H250 H 0.48865 0.43622 0.97457 0.0
H251 H 0.50824 0.46299 0.9088 0.0
H252 H 0.47357 0.40383 0.7589 0.0
H253 H 0.5138 0.39697 0.74006 0.0
H254 H 0.46853 0.39455 0.70317 0.0
H255 H 0.50805 0.38802 0.68439 0.0
H256 H 0.50868 0.3791 0.86063 0.0
H257 H 0.4778 0.40273 0.89787 0.0
H258 H 0.49831 0.36004 0.88675 0.0
H259 H 0.46798 0.38328 0.92351 0.0
H260 H 0.5565 0.39504 0.80836 0.0
H261 H 0.5288 0.36679 0.77453 0.0
H262 H 0.44019 0.39465 0.80677 0.0
H263 H 0.46798 0.36412 0.79221 0.0
Li264 Li 0.82635 0.25012 0.10248 0.0
Li265 Li 0.84311 0.23813 0.06991 0.0
Li266 Li 0.84162 0.26203 0.06786 0.0
Li267 Li 0.82511 0.24866 0.04271 0.0
C268 C 0.84875 0.25858 0.13445 0.0
N269 N 0.85491 0.27403 0.18865 0.0
C270 C 0.85887 0.25518 0.15575 0.0
C271 C 0.84175 0.26985 0.14069 0.0
C272 C 0.86184 0.26312 0.18303 0.0
C273 C 0.84502 0.27752 0.16822 0.0
C274 C 0.81492 0.22707 0.06137 0.0
C275 C 0.8074 0.21196 0.01973 0.0
N276 N 0.79514 0.21375 0.03068 0.0
C277 C 0.80226 0.22871 0.07234 0.0
C278 C 0.81754 0.21859 0.03496 0.0
C279 C 0.79238 0.2219 0.05646 0.0
C280 C 0.80445 0.25648 0.13854 0.0
N281 N 0.81604 0.25058 0.14181 0.0
C282 C 0.81134 0.24506 0.1988 0.0
C283 C 0.81967 0.24497 0.17117 0.0
C284 C 0.7992 0.25098 0.19603 0.0
C285 C 0.79585 0.2568 0.16538 0.0
H286 H 0.80176 0.26069 0.11471 0.0
H287 H 0.82896 0.24031 0.17299 0.0
C288 C 0.86727 0.22816 0.0576 0.0
N289 N 0.85515 0.22452 0.06606 0.0
C290 C 0.87608 0.21904 0.04606 0.0
C291 C 0.86002 0.20247 0.05437 0.0
C292 C 0.85148 0.21194 0.06568 0.0
C293 C 0.87234 0.20607 0.04324 0.0
H294 H 0.86982 0.23827 0.05777 0.0
H295 H 0.84171 0.20937 0.07221 0.0
C296 C 0.81888 0.2749 0.05289 0.0
N297 N 0.81148 0.29647 0.01703 0.0
C298 C 0.82286 0.2765 0.01963 0.0
C299 C 0.81111 0.28427 0.06789 0.0
C300 C 0.81902 0.28746 0.00192 0.0
C301 C 0.80748 0.29511 0.04935 0.0
C302 C 0.84834 0.24765 0.99978 0.0
C303 C 0.85194 0.25814 0.97982 0.0
C304 C 0.85025 0.23512 0.98779 0.0
C305 C 0.85731 0.25592 0.94819 0.0
C306 C 0.85566 0.23329 0.95605 0.0
N307 N 0.85905 0.24364 0.93706 0.0
C308 C 0.86415 0.27407 0.04912 0.0
C309 C 0.84808 0.28908 0.06496 0.0
C310 C 0.87211 0.28398 0.0379 0.0
N311 N 0.85224 0.27674 0.06131 0.0
C312 C 0.85573 0.29933 0.05399 0.0
C313 C 0.8678 0.29681 0.03942 0.0
H314 H 0.8672 0.26414 0.04654 0.0
H315 H 0.83866 0.29099 0.07529 0.0
C316 C 0.80106 0.25233 0.01215 0.0
N317 N 0.81302 0.24748 0.00657 0.0
C318 C 0.7918 0.25207 0.98679 0.0
C319 C 0.80722 0.24151 0.95066 0.0
C320 C 0.81617 0.242 0.97669 0.0
C321 C 0.79488 0.24668 0.95546 0.0
H322 H 0.79871 0.25642 0.03637 0.0
H323 H 0.82558 0.23794 0.97294 0.0
O324 O 0.84576 0.25088 0.10769 0.0
O325 O 0.82466 0.23395 0.07593 0.0
O326 O 0.82257 0.2643 0.07092 0.0
O327 O 0.8434 0.24965 0.03127 0.0
H328 H 0.86438 0.24649 0.15123 0.0
H329 H 0.83388 0.27266 0.12455 0.0
H330 H 0.86965 0.2606 0.19974 0.0
H331 H 0.83968 0.28626 0.17335 0.0
H332 H 0.80927 0.20545 0.99908 0.0
H333 H 0.80006 0.23525 0.09267 0.0
H334 H 0.82727 0.2173 0.02593 0.0
H335 H 0.78253 0.22312 0.06456 0.0
H336 H 0.81437 0.24056 0.22203 0.0
H337 H 0.78653 0.26125 0.16182 0.0
H338 H 0.88554 0.22219 0.03819 0.0
H339 H 0.85675 0.19259 0.05242 0.0
H340 H 0.82878 0.26933 0.00757 0.0
H341 H 0.80798 0.28321 0.09367 0.0
H342 H 0.82204 0.28881 0.97616 0.0
H343 H 0.80149 0.30245 0.06068 0.0
H344 H 0.85065 0.26792 0.98861 0.0
H345 H 0.84741 0.22686 0.00256 0.0
H346 H 0.86013 0.26395 0.93251 0.0
H347 H 0.85715 0.22364 0.94649 0.0
H348 H 0.88126 0.28154 0.02656 0.0
H349 H 0.85214 0.3091 0.05619 0.0
H350 H 0.78233 0.25598 0.99173 0.0
H351 H 0.81003 0.23733 0.92684 0.0
Li352 Li 0.99948 0.42078 0.78944 0.0
Li353 Li 0.997 0.4238 0.85138 0.0
Li354 Li 0.00902 0.40576 0.82979 0.0
Li355 Li 0.9861 0.40593 0.82557 0.0
C356 C 0.02555 0.4248 0.82875 0.0
N357 N 0.05174 0.42423 0.84032 0.0
C358 C 0.03038 0.42753 0.86072 0.0
C359 C 0.03403 0.42184 0.80262 0.0
C360 C 0.04366 0.42717 0.86607 0.0
C361 C 0.04724 0.4216 0.80899 0.0
C362 C 0.97739 0.43579 0.8246 0.0
C363 C 0.96438 0.44814 0.86314 0.0
N364 N 0.96587 0.45871 0.84332 0.0
C365 C 0.97877 0.44678 0.8046 0.0
C366 C 0.9701 0.43646 0.85408 0.0
C367 C 0.97287 0.45827 0.81449 0.0
C368 C 0.99131 0.42919 0.72509 0.0
N369 N 0.00067 0.43027 0.74877 0.0
C370 C 0.0105 0.44759 0.71871 0.0
C371 C 0.01021 0.43915 0.74598 0.0
C372 C 0.00077 0.447 0.69431 0.0
C373 C 0.99116 0.43753 0.69749 0.0
H374 H 0.98372 0.42216 0.7283 0.0
H375 H 0.01733 0.44003 0.76562 0.0
C376 C 0.99482 0.43297 0.91779 0.0
N377 N 0.99692 0.43653 0.88544 0.0
C378 C 0.99483 0.44219 0.94324 0.0
C379 C 0.99947 0.45854 0.90165 0.0
C380 C 0.99936 0.44899 0.87699 0.0
C381 C 0.99715 0.45518 0.93529 0.0
H382 H 0.9933 0.42295 0.9239 0.0
H383 H 0.0012 0.45148 0.85106 0.0
C384 C 0.00609 0.39322 0.77055 0.0
N385 N 0.02094 0.37653 0.73277 0.0
C386 C 0.00679 0.38016 0.77908 0.0
C387 C 0.01295 0.39778 0.74279 0.0
C388 C 0.01435 0.37188 0.75967 0.0
C389 C 0.02041 0.38919 0.72402 0.0
C390 C 0.99067 0.39646 0.88497 0.0
C391 C 0.995 0.38373 0.88271 0.0
C392 C 0.97995 0.39932 0.90485 0.0
C393 C 0.98856 0.37408 0.90051 0.0
C394 C 0.97375 0.38939 0.92215 0.0
N395 N 0.97815 0.37708 0.91967 0.0
C396 C 0.02592 0.39574 0.87613 0.0
C397 C 0.03253 0.39012 0.82115 0.0
C398 C 0.03627 0.3891 0.88998 0.0
N399 N 0.02404 0.39594 0.84234 0.0
C400 C 0.04298 0.38318 0.83401 0.0
C401 C 0.04488 0.38258 0.8689 0.0
H402 H 0.01931 0.40077 0.89249 0.0
H403 H 0.03134 0.39094 0.79434 0.0
C404 C 0.95971 0.4012 0.8391 0.0
N405 N 0.97084 0.39563 0.8286 0.0
C406 C 0.94953 0.39357 0.85051 0.0
C407 C 0.96204 0.37462 0.83717 0.0
C408 C 0.97195 0.38262 0.82602 0.0
C409 C 0.95087 0.3801 0.85098 0.0
H410 H 0.95902 0.41155 0.84075 0.0
H411 H 0.98088 0.37842 0.81766 0.0
O412 O 0.01258 0.42469 0.82329 0.0
O413 O 0.98325 0.42448 0.81558 0.0
O414 O 0.99851 0.40144 0.78873 0.0
O415 O 0.99668 0.40602 0.86714 0.0
H416 H 0.02393 0.42974 0.88126 0.0
H417 H 0.03042 0.41957 0.77781 0.0
H418 H 0.04754 0.42919 0.89073 0.0
H419 H 0.05391 0.41924 0.78906 0.0
H420 H 0.95882 0.44882 0.88604 0.0
H421 H 0.98438 0.44649 0.78178 0.0
H422 H 0.96914 0.42815 0.87027 0.0
H423 H 0.97389 0.46685 0.79929 0.0
H424 H 0.01796 0.45487 0.71755 0.0
H425 H 0.98352 0.43672 0.67913 0.0
H426 H 0.99328 0.43916 0.96894 0.0
H427 H 0.00125 0.46845 0.89445 0.0
H428 H 0.00175 0.37647 0.80075 0.0
H429 H 0.01255 0.40784 0.73576 0.0
H430 H 0.01502 0.36177 0.76609 0.0
H431 H 0.02577 0.3926 0.70251 0.0
H432 H 0.00309 0.38125 0.86694 0.0
H433 H 0.97628 0.40906 0.90638 0.0
H434 H 0.99177 0.36418 0.89887 0.0
H435 H 0.96538 0.39145 0.93738 0.0
H436 H 0.03736 0.38886 0.91703 0.0
H437 H 0.04958 0.37847 0.81691 0.0
H438 H 0.94111 0.39821 0.86099 0.0
H439 H 0.96338 0.36427 0.83653 0.0
Li440 Li 0.84301 0.73613 0.07536 0.0
Li441 Li 0.82685 0.74978 0.10106 0.0
Li442 Li 0.82797 0.7485 0.04115 0.0
Li443 Li 0.84502 0.76001 0.07394 0.0
C444 C 0.8197 0.72387 0.09011 0.0
N445 N 0.81112 0.70258 0.12528 0.0
C446 C 0.82361 0.72189 0.12328 0.0
C447 C 0.81139 0.71505 0.07485 0.0
C448 C 0.81918 0.71107 0.14064 0.0
C449 C 0.80717 0.70433 0.09304 0.0
C450 C 0.85036 0.74973 0.14352 0.0
C451 C 0.85831 0.76324 0.18831 0.0
N452 N 0.86158 0.75253 0.20606 0.0
C453 C 0.85384 0.73886 0.16222 0.0
C454 C 0.85264 0.76203 0.15667 0.0
C455 C 0.85947 0.74048 0.19379 0.0
C456 C 0.86569 0.72379 0.09079 0.0
N457 N 0.85339 0.72121 0.0815 0.0
C458 C 0.85651 0.69872 0.09165 0.0
C459 C 0.84882 0.70893 0.0806 0.0
C460 C 0.86904 0.70121 0.1032 0.0
C461 C 0.87373 0.71389 0.10176 0.0
H462 H 0.86903 0.73366 0.09134 0.0
H463 H 0.83908 0.70706 0.07251 0.0
C464 C 0.80249 0.74751 0.13 0.0
N465 N 0.8148 0.751 0.1371 0.0
C466 C 0.79306 0.74794 0.15488 0.0
C467 C 0.80912 0.75565 0.19391 0.0
C468 C 0.81822 0.7551 0.16825 0.0
C469 C 0.79636 0.75199 0.18742 0.0
H470 H 0.80001 0.7444 0.10489 0.0
H471 H 0.82797 0.75795 0.17334 0.0
C472 C 0.85009 0.73967 0.00873 0.0
N473 N 0.85564 0.72433 0.95391 0.0
C474 C 0.85996 0.74313 0.98668 0.0
C475 C 0.84305 0.7284 0.00294 0.0
C476 C 0.86262 0.73524 0.9591 0.0
C477 C 0.846 0.72078 0.97508 0.0
C478 C 0.81733 0.77186 0.08334 0.0
C479 C 0.80467 0.77143 0.07163 0.0
C480 C 0.82038 0.77955 0.11105 0.0
C481 C 0.79521 0.77861 0.0881 0.0
C482 C 0.81064 0.78658 0.12685 0.0
N483 N 0.79836 0.78596 0.11517 0.0
C484 C 0.80542 0.74358 0.00694 0.0
C485 C 0.82135 0.75283 0.97182 0.0
C486 C 0.79662 0.74338 0.98055 0.0
N487 N 0.81747 0.74831 0.00221 0.0
C488 C 0.81284 0.75277 0.94456 0.0
C489 C 0.80025 0.74803 0.9488 0.0
H490 H 0.80257 0.74019 0.03152 0.0
H491 H 0.831 0.75656 0.96882 0.0
C492 C 0.86928 0.76984 0.08702 0.0
N493 N 0.85718 0.77348 0.07831 0.0
C494 C 0.87805 0.77896 0.09874 0.0
C495 C 0.86202 0.79553 0.09012 0.0
C496 C 0.85351 0.78605 0.07866 0.0
C497 C 0.87432 0.79193 0.10144 0.0
H498 H 0.87183 0.75973 0.08689 0.0
H499 H 0.84377 0.78863 0.07195 0.0
O500 O 0.82389 0.73439 0.0725 0.0
O501 O 0.8451 0.74832 0.11218 0.0
O502 O 0.84737 0.74735 0.03575 0.0
O503 O 0.82665 0.7646 0.06816 0.0
H504 H 0.82994 0.72865 0.13554 0.0
H505 H 0.80828 0.71644 0.04916 0.0
H506 H 0.82213 0.70942 0.16633 0.0
H507 H 0.80076 0.69741 0.08152 0.0
H508 H 0.8601 0.7727 0.19876 0.0
H509 H 0.85224 0.72926 0.15251 0.0
H510 H 0.84995 0.77056 0.14282 0.0
H511 H 0.8622 0.73215 0.2085 0.0
H512 H 0.85261 0.68903 0.09191 0.0
H513 H 0.88328 0.71627 0.11073 0.0
H514 H 0.78329 0.74522 0.14863 0.0
H515 H 0.81212 0.75871 0.21871 0.0
H516 H 0.86549 0.75183 0.99085 0.0
H517 H 0.83537 0.72555 0.01966 0.0
H518 H 0.87022 0.7378 0.9418 0.0
H519 H 0.84063 0.71204 0.97028 0.0
H520 H 0.80215 0.76554 0.05022 0.0
H521 H 0.8301 0.77993 0.12059 0.0
H522 H 0.78535 0.77831 0.07943 0.0
H523 H 0.81284 0.79249 0.1485 0.0
H524 H 0.78697 0.73988 0.98527 0.0
H525 H 0.81609 0.75634 0.92047 0.0
H526 H 0.8875 0.77582 0.10678 0.0
H527 H 0.85873 0.80541 0.09198 0.0
Li528 Li 0.48737 0.593 0.32152 0.0
Li529 Li 0.5109 0.59353 0.32843 0.0
Li530 Li 0.50017 0.57827 0.28952 0.0
Li531 Li 0.49862 0.5751 0.34972 0.0
C532 C 0.4956 0.60824 0.27335 0.0
N533 N 0.48449 0.63032 0.24769 0.0
C534 C 0.50112 0.62027 0.27978 0.0
C535 C 0.48452 0.60741 0.2536 0.0
C536 C 0.49533 0.63133 0.26663 0.0
C537 C 0.47902 0.61869 0.24095 0.0
C538 C 0.49623 0.59305 0.39699 0.0
C539 C 0.50519 0.58969 0.45214 0.0
N540 N 0.49336 0.59166 0.46584 0.0
C541 C 0.48417 0.5951 0.41159 0.0
C542 C 0.50684 0.59039 0.41738 0.0
C543 C 0.48292 0.59434 0.44646 0.0
C544 C 0.46063 0.59921 0.32611 0.0
N545 N 0.47284 0.60389 0.32682 0.0
C546 C 0.46547 0.6242 0.34737 0.0
C547 C 0.4754 0.61613 0.33693 0.0
C548 C 0.45279 0.61954 0.34813 0.0
C549 C 0.45038 0.60694 0.33677 0.0
H550 H 0.45893 0.58931 0.31888 0.0
H551 H 0.48526 0.61939 0.33858 0.0
C552 C 0.53678 0.60467 0.32754 0.0
N553 N 0.52463 0.605 0.34025 0.0
C554 C 0.54641 0.6125 0.34131 0.0
C555 C 0.53061 0.6215 0.37908 0.0
C556 C 0.52136 0.61353 0.36469 0.0
C557 C 0.54341 0.62081 0.36809 0.0
H558 H 0.53911 0.59815 0.30733 0.0
H559 H 0.51155 0.61401 0.37356 0.0
C560 C 0.47891 0.56488 0.29842 0.0
N561 N 0.4687 0.54543 0.25925 0.0
C562 C 0.48166 0.55199 0.30576 0.0
C563 C 0.47086 0.56788 0.27142 0.0
C564 C 0.47642 0.5423 0.28559 0.0
C565 C 0.46583 0.55791 0.25184 0.0
C566 C 0.5273 0.57351 0.32017 0.0
C567 C 0.53331 0.57271 0.28883 0.0
C568 C 0.53475 0.57325 0.34939 0.0
C569 C 0.54669 0.57156 0.28728 0.0
C570 C 0.5481 0.57215 0.34677 0.0
N571 N 0.55375 0.57132 0.31604 0.0
C572 C 0.49666 0.57193 0.21948 0.0
C573 C 0.50656 0.5562 0.25411 0.0
C574 C 0.49665 0.56336 0.1923 0.0
N575 N 0.50148 0.56816 0.24967 0.0
C576 C 0.50681 0.5474 0.22771 0.0
C577 C 0.50172 0.55087 0.19635 0.0
H578 H 0.49253 0.58143 0.21675 0.0
H579 H 0.51008 0.55339 0.27859 0.0
C580 C 0.48644 0.56214 0.40295 0.0
N581 N 0.49744 0.5628 0.38459 0.0
C582 C 0.48548 0.55347 0.42961 0.0
C583 C 0.50698 0.54599 0.41699 0.0
C584 C 0.50754 0.55484 0.39069 0.0
C585 C 0.49589 0.54531 0.43706 0.0
H586 H 0.47847 0.56845 0.39706 0.0
H587 H 0.51601 0.55533 0.37506 0.0
O588 O 0.50103 0.59732 0.28634 0.0
O589 O 0.49762 0.59354 0.36287 0.0
O590 O 0.48427 0.57451 0.31719 0.0
O591 O 0.5142 0.57448 0.32226 0.0
H592 H 0.50972 0.62107 0.29493 0.0
H593 H 0.48012 0.59816 0.24848 0.0
H594 H 0.49945 0.64072 0.27153 0.0
H595 H 0.47038 0.61821 0.22584 0.0
H596 H 0.5133 0.58758 0.46823 0.0
H597 H 0.47585 0.59713 0.39616 0.0
H598 H 0.51623 0.5888 0.40644 0.0
H599 H 0.47364 0.59584 0.45811 0.0
H600 H 0.46781 0.63374 0.35662 0.0
H601 H 0.44073 0.60299 0.33705 0.0
H602 H 0.55615 0.61176 0.33185 0.0
H603 H 0.52776 0.62807 0.39887 0.0
H604 H 0.48791 0.54952 0.32651 0.0
H605 H 0.46866 0.57781 0.26541 0.0
H606 H 0.47854 0.53229 0.29079 0.0
H607 H 0.45968 0.56009 0.23068 0.0
H608 H 0.52774 0.57307 0.26592 0.0
H609 H 0.53028 0.57399 0.37384 0.0
H610 H 0.55147 0.57094 0.26321 0.0
H611 H 0.55398 0.57197 0.36918 0.0
H612 H 0.49268 0.56643 0.16848 0.0
H613 H 0.51059 0.53782 0.23217 0.0
H614 H 0.47677 0.55332 0.44453 0.0
H615 H 0.51511 0.53968 0.42135 0.0
Li616 Li 0.65544 0.263 0.57394 0.0
Li617 Li 0.67287 0.25093 0.59896 0.0
Li618 Li 0.67119 0.25071 0.53865 0.0
Li619 Li 0.65533 0.23894 0.57349 0.0
C620 C 0.68399 0.27249 0.58297 0.0
N621 N 0.7041 0.28468 0.61544 0.0
C622 C 0.68168 0.27983 0.61179 0.0
C623 C 0.69651 0.27145 0.5705 0.0
C624 C 0.69198 0.28589 0.62789 0.0
C625 C 0.70655 0.27766 0.58731 0.0
C626 C 0.65021 0.25232 0.64356 0.0
C627 C 0.64217 0.24313 0.69516 0.0
N628 N 0.64068 0.25519 0.70799 0.0
C629 C 0.64855 0.26462 0.6573 0.0
C630 C 0.64694 0.24148 0.66265 0.0
C631 C 0.64375 0.26587 0.68989 0.0
C632 C 0.63169 0.27433 0.58556 0.0
N633 N 0.64424 0.27725 0.57995 0.0
C634 C 0.64069 0.29917 0.59583 0.0
C635 C 0.64877 0.28946 0.5837 0.0
C636 C 0.62785 0.29626 0.60395 0.0
C637 C 0.62326 0.28375 0.59743 0.0
H638 H 0.62842 0.2645 0.58255 0.0
H639 H 0.65882 0.29149 0.57908 0.0
C640 C 0.69708 0.24568 0.62713 0.0
N641 N 0.68529 0.25064 0.63441 0.0
C642 C 0.70662 0.24518 0.65173 0.0
C643 C 0.6918 0.25509 0.69073 0.0
C644 C 0.68256 0.25537 0.66543 0.0
C645 C 0.70401 0.24991 0.68405 0.0
H646 H 0.69907 0.24217 0.60208 0.0
H647 H 0.67328 0.2595 0.67059 0.0
C648 C 0.64784 0.25771 0.50741 0.0
N649 N 0.63982 0.27157 0.45198 0.0
C650 C 0.63975 0.25201 0.48366 0.0
C651 C 0.65182 0.27048 0.50304 0.0
C652 C 0.63582 0.25917 0.45576 0.0
C653 C 0.64766 0.27732 0.47485 0.0
C654 C 0.67782 0.2246 0.5838 0.0
C655 C 0.68507 0.21555 0.56599 0.0
C656 C 0.67438 0.2221 0.61708 0.0
C657 C 0.6887 0.20409 0.58178 0.0
C658 C 0.6782 0.21053 0.63199 0.0
N659 N 0.68522 0.20183 0.61417 0.0
C660 C 0.69365 0.2447 0.5056 0.0
C661 C 0.67854 0.25401 0.46826 0.0
C662 C 0.70281 0.24392 0.4801 0.0
N663 N 0.68183 0.2498 0.49946 0.0
C664 C 0.68745 0.25345 0.44196 0.0
C665 C 0.69982 0.24843 0.4478 0.0
H666 H 0.69606 0.24149 0.53066 0.0
H667 H 0.66909 0.25787 0.46359 0.0
C668 C 0.63268 0.2276 0.59422 0.0
N669 N 0.6441 0.22467 0.57951 0.0
C670 C 0.62455 0.21781 0.60543 0.0
C671 C 0.63967 0.20213 0.58403 0.0
C672 C 0.64755 0.21225 0.57333 0.0
C673 C 0.62814 0.20485 0.60115 0.0
H674 H 0.6302 0.23757 0.59882 0.0
H675 H 0.65661 0.21017 0.56117 0.0
O676 O 0.67409 0.26617 0.56743 0.0
O677 O 0.65463 0.2509 0.61134 0.0
O678 O 0.65154 0.25087 0.53514 0.0
O679 O 0.67417 0.23585 0.56859 0.0
H680 H 0.67208 0.28062 0.62204 0.0
H681 H 0.69848 0.26586 0.54818 0.0
H682 H 0.69034 0.29149 0.6504 0.0
H683 H 0.7163 0.27688 0.57801 0.0
H684 H 0.63961 0.23482 0.71016 0.0
H685 H 0.65111 0.27313 0.64323 0.0
H686 H 0.648 0.23187 0.65252 0.0
H687 H 0.64248 0.27533 0.70081 0.0
H688 H 0.64469 0.30864 0.60061 0.0
H689 H 0.61338 0.28112 0.60262 0.0
H690 H 0.71598 0.24128 0.64542 0.0
H691 H 0.68936 0.25877 0.71537 0.0
H692 H 0.63653 0.24216 0.4868 0.0
H693 H 0.65815 0.27505 0.52099 0.0
H694 H 0.62957 0.25487 0.43715 0.0
H695 H 0.65069 0.28719 0.4711 0.0
H696 H 0.68782 0.21735 0.54019 0.0
H697 H 0.66891 0.22906 0.63129 0.0
H698 H 0.69429 0.19698 0.56828 0.0
H699 H 0.6756 0.20848 0.65774 0.0
H700 H 0.71227 0.24013 0.48589 0.0
H701 H 0.68468 0.25688 0.41731 0.0
H702 H 0.61587 0.22043 0.61881 0.0
H703 H 0.6427 0.19229 0.57958 0.0
Li704 Li 0.32634 0.25091 0.59862 0.0
Li705 Li 0.34316 0.23779 0.57394 0.0
Li706 Li 0.34432 0.26169 0.57193 0.0
Li707 Li 0.32787 0.24945 0.53889 0.0
C708 C 0.34952 0.25242 0.64202 0.0
N709 N 0.36015 0.25691 0.7046 0.0
C710 C 0.35349 0.24209 0.66209 0.0
C711 C 0.35096 0.26503 0.65389 0.0
C712 C 0.35883 0.24456 0.69363 0.0
C713 C 0.35636 0.2671 0.68554 0.0
C714 C 0.32065 0.22466 0.58908 0.0
C715 C 0.30978 0.20419 0.59367 0.0
N716 N 0.31375 0.20321 0.62611 0.0
C717 C 0.32462 0.22344 0.62247 0.0
C718 C 0.31317 0.21496 0.57454 0.0
C719 C 0.32103 0.21254 0.64077 0.0
C720 C 0.30187 0.24789 0.6269 0.0
N721 N 0.31398 0.252 0.63411 0.0
C722 C 0.30763 0.25768 0.6898 0.0
C723 C 0.31698 0.25686 0.66481 0.0
C724 C 0.29504 0.2535 0.68312 0.0
C725 C 0.2922 0.24855 0.65114 0.0
H726 H 0.29971 0.24419 0.60214 0.0
H727 H 0.32657 0.2602 0.67 0.0
C728 C 0.36581 0.22605 0.59334 0.0
N729 N 0.35398 0.22323 0.58088 0.0
C730 C 0.37381 0.21625 0.60507 0.0
C731 C 0.35767 0.20069 0.58878 0.0
C732 C 0.34996 0.21083 0.57733 0.0
C733 C 0.36963 0.20338 0.60375 0.0
H734 H 0.36874 0.23602 0.59582 0.0
H735 H 0.34061 0.2088 0.56674 0.0
C736 C 0.31568 0.27223 0.57857 0.0
N737 N 0.295 0.28508 0.60648 0.0
C738 C 0.30336 0.27065 0.56513 0.0
C739 C 0.3175 0.28042 0.60603 0.0
C740 C 0.29302 0.27723 0.57962 0.0
C741 C 0.30692 0.28681 0.61984 0.0
C742 C 0.35049 0.24132 0.50754 0.0
C743 C 0.36065 0.24483 0.4865 0.0
C744 C 0.34365 0.22997 0.50114 0.0
C745 C 0.36381 0.23693 0.45931 0.0
C746 C 0.3471 0.22233 0.47371 0.0
N747 N 0.35703 0.22594 0.45353 0.0
C748 C 0.36845 0.27218 0.583 0.0
C749 C 0.35196 0.28792 0.57907 0.0
C750 C 0.37706 0.28135 0.59529 0.0
N751 N 0.35608 0.27553 0.57625 0.0
C752 C 0.36025 0.2974 0.59151 0.0
C753 C 0.37285 0.29405 0.60101 0.0
H754 H 0.37136 0.2622 0.58093 0.0
H755 H 0.34203 0.29025 0.57388 0.0
C756 C 0.30676 0.24183 0.50102 0.0
N757 N 0.31773 0.24892 0.49923 0.0
C758 C 0.29826 0.24147 0.47398 0.0
C759 C 0.31247 0.25574 0.44353 0.0
C760 C 0.32077 0.25577 0.47123 0.0
C761 C 0.301 0.24855 0.44479 0.0
H762 H 0.30446 0.23671 0.52387 0.0
H763 H 0.32953 0.26139 0.47062 0.0
O764 O 0.34458 0.25018 0.61063 0.0
O765 O 0.32412 0.2352 0.57045 0.0
O766 O 0.32585 0.26558 0.56533 0.0
O767 O 0.3473 0.24899 0.53421 0.0
H768 H 0.35248 0.23226 0.65347 0.0
H769 H 0.34776 0.27314 0.63912 0.0
H770 H 0.36194 0.23665 0.70938 0.0
H771 H 0.3575 0.27681 0.695 0.0
H772 H 0.30401 0.19659 0.5827 0.0
H773 H 0.33035 0.23084 0.6342 0.0
H774 H 0.31009 0.21568 0.54866 0.0
H775 H 0.32404 0.21149 0.66663 0.0
H776 H 0.31029 0.26142 0.71423 0.0
H777 H 0.28258 0.24538 0.64476 0.0
H778 H 0.38288 0.21883 0.61667 0.0
H779 H 0.35417 0.19089 0.58668 0.0
H780 H 0.30177 0.26433 0.54393 0.0
H781 H 0.32694 0.28165 0.61698 0.0
H782 H 0.28342 0.27604 0.5696 0.0
H783 H 0.30817 0.29309 0.64129 0.0
H784 H 0.36604 0.25359 0.49115 0.0
H785 H 0.33575 0.22707 0.51709 0.0
H786 H 0.37166 0.23953 0.4428 0.0
H787 H 0.34189 0.21353 0.46845 0.0
H788 H 0.38674 0.27838 0.60166 0.0
H789 H 0.35655 0.30703 0.59569 0.0
H790 H 0.28942 0.236 0.47633 0.0
H791 H 0.31498 0.26127 0.42143 0.0
Li792 Li 0.15758 0.76183 0.0729 0.0
Li793 Li 0.17372 0.74931 0.09961 0.0
Li794 Li 0.17221 0.74904 0.03986 0.0
Li795 Li 0.15559 0.73848 0.07438 0.0
C796 C 0.17926 0.77429 0.04888 0.0
N797 N 0.18499 0.79506 0.00809 0.0
C798 C 0.18992 0.78204 0.05587 0.0
C799 C 0.17151 0.77709 0.0211 0.0
C800 C 0.19265 0.7925 0.03497 0.0
C801 C 0.17457 0.78763 0.0008 0.0
C802 C 0.1534 0.75785 0.14037 0.0
C803 C 0.14053 0.76312 0.18885 0.0
N804 N 0.14856 0.77312 0.1958 0.0
C805 C 0.16154 0.76817 0.14801 0.0
C806 C 0.14281 0.75529 0.16093 0.0
C807 C 0.15893 0.77578 0.17614 0.0
C808 C 0.13451 0.77497 0.08057 0.0
N809 N 0.14741 0.77692 0.07885 0.0
C810 C 0.14501 0.79841 0.0996 0.0
C811 C 0.15274 0.78843 0.08747 0.0
C812 C 0.1317 0.79645 0.10337 0.0
C813 C 0.12643 0.78464 0.09276 0.0
H814 H 0.1306 0.76558 0.07449 0.0
H815 H 0.16306 0.78964 0.08697 0.0
C816 C 0.19776 0.75268 0.13016 0.0
N817 N 0.18556 0.74851 0.13568 0.0
C818 C 0.20685 0.75217 0.15589 0.0
C819 C 0.19063 0.74297 0.1923 0.0
C820 C 0.18185 0.74372 0.16593 0.0
C821 C 0.20331 0.74725 0.18743 0.0
H822 H 0.20041 0.75634 0.10569 0.0
H823 H 0.17208 0.74043 0.16954 0.0
C824 C 0.14883 0.74309 0.008 0.0
N825 N 0.14062 0.72872 0.95364 0.0
C826 C 0.15429 0.73102 0.00148 0.0
C827 C 0.13919 0.74783 0.98689 0.0
C828 C 0.15 0.72391 0.97387 0.0
C829 C 0.13518 0.74043 0.95952 0.0
C830 C 0.18043 0.72502 0.08876 0.0
C831 C 0.19301 0.7215 0.0804 0.0
C832 C 0.17459 0.71962 0.11708 0.0
C833 C 0.19956 0.71267 0.10065 0.0
C834 C 0.18146 0.71083 0.13667 0.0
N835 N 0.1937 0.70757 0.12814 0.0
C836 C 0.19559 0.74698 0.00844 0.0
C837 C 0.17881 0.74977 0.96883 0.0
C838 C 0.20474 0.74656 0.98288 0.0
N839 N 0.18291 0.74837 0.00107 0.0
C840 C 0.18767 0.7495 0.94237 0.0
C841 C 0.20083 0.74778 0.94929 0.0
H842 H 0.19861 0.74639 0.03438 0.0
H843 H 0.16871 0.75123 0.96362 0.0
C844 C 0.1321 0.72813 0.09353 0.0
N845 N 0.14368 0.72482 0.0803 0.0
C846 C 0.12358 0.7186 0.10431 0.0
C847 C 0.13884 0.70242 0.08628 0.0
C848 C 0.14704 0.71228 0.07558 0.0
C849 C 0.12707 0.70556 0.10163 0.0
H850 H 0.12976 0.73819 0.09711 0.0
H851 H 0.15633 0.70994 0.065 0.0
O852 O 0.17661 0.76394 0.06906 0.0
O853 O 0.15553 0.75045 0.11245 0.0
O854 O 0.1528 0.7503 0.03483 0.0
O855 O 0.17394 0.73385 0.06966 0.0
H856 H 0.19602 0.77998 0.07723 0.0
H857 H 0.16323 0.77123 0.01519 0.0
H858 H 0.20087 0.79859 0.04009 0.0
H859 H 0.16867 0.78991 0.97923 0.0
H860 H 0.13236 0.76126 0.20496 0.0
H861 H 0.16972 0.77038 0.13225 0.0
H862 H 0.13639 0.74736 0.15531 0.0
H863 H 0.16511 0.78383 0.18226 0.0
H864 H 0.14948 0.80738 0.10715 0.0
H865 H 0.11628 0.78259 0.09572 0.0
H866 H 0.21657 0.75543 0.15105 0.0
H867 H 0.1875 0.73924 0.21634 0.0
H868 H 0.16179 0.72718 0.01734 0.0
H869 H 0.13488 0.75716 0.99162 0.0
H870 H 0.15415 0.71457 0.96851 0.0
H871 H 0.12773 0.74399 0.94297 0.0
H872 H 0.19767 0.72549 0.05849 0.0
H873 H 0.16494 0.72239 0.12427 0.0
H874 H 0.20931 0.70988 0.09451 0.0
H875 H 0.17708 0.70665 0.15878 0.0
H876 H 0.2148 0.74555 0.98941 0.0
H877 H 0.18427 0.75052 0.9168 0.0
H878 H 0.11466 0.72145 0.11629 0.0
H879 H 0.14183 0.69248 0.08345 0.0
Li880 Li 0.17301 0.24993 0.10125 0.0
Li881 Li 0.15667 0.26148 0.06705 0.0
Li882 Li 0.15783 0.23799 0.06748 0.0
Li883 Li 0.17439 0.25019 0.04175 0.0
C884 C 0.14966 0.25633 0.1335 0.0
N885 N 0.14159 0.27018 0.18891 0.0
C886 C 0.15458 0.26865 0.13961 0.0
C887 C 0.14062 0.25106 0.15555 0.0
C888 C 0.15038 0.2755 0.16775 0.0
C889 C 0.13667 0.2582 0.18344 0.0
C890 C 0.18312 0.27327 0.05473 0.0
C891 C 0.18672 0.28812 0.00907 0.0
N892 N 0.19941 0.28866 0.0173 0.0
C893 C 0.19618 0.27403 0.06285 0.0
C894 C 0.17833 0.28041 0.0277 0.0
C895 C 0.20426 0.28184 0.04358 0.0
C896 C 0.19653 0.24799 0.13179 0.0
N897 N 0.18397 0.24985 0.13986 0.0
C898 C 0.18937 0.25138 0.19815 0.0
C899 C 0.18021 0.25132 0.17237 0.0
C900 C 0.20249 0.2498 0.19038 0.0
C901 C 0.20597 0.24792 0.15665 0.0
H902 H 0.19921 0.24653 0.10582 0.0
H903 H 0.17016 0.25247 0.17845 0.0
C904 C 0.13372 0.27265 0.04707 0.0
N905 N 0.14523 0.27555 0.06132 0.0
C906 C 0.12547 0.28248 0.03664 0.0
C907 C 0.14081 0.2981 0.05733 0.0
C908 C 0.1488 0.28795 0.06726 0.0
C909 C 0.1291 0.29543 0.04102 0.0
H910 H 0.1312 0.26269 0.0425 0.0
H911 H 0.15806 0.28997 0.07844 0.0
C912 C 0.1789 0.22444 0.09048 0.0
N913 N 0.18356 0.20295 0.1296 0.0
C914 C 0.1889 0.21602 0.08225 0.0
C915 C 0.17127 0.22194 0.11867 0.0
C916 C 0.19111 0.2052 0.10232 0.0
C917 C 0.17378 0.21102 0.13811 0.0
C918 C 0.15394 0.2426 0.00022 0.0
C919 C 0.16176 0.23206 0.99226 0.0
C920 C 0.14354 0.24568 0.97947 0.0
C921 C 0.15903 0.22477 0.96365 0.0
C922 C 0.14113 0.23814 0.95107 0.0
N923 N 0.14886 0.22793 0.94382 0.0
C924 C 0.1342 0.22586 0.06082 0.0
C925 C 0.15179 0.21178 0.05109 0.0
C926 C 0.12559 0.21664 0.04875 0.0
N927 N 0.14704 0.22338 0.06109 0.0
C928 C 0.1435 0.20225 0.03897 0.0
C929 C 0.13025 0.20479 0.03675 0.0
H930 H 0.13075 0.23528 0.06821 0.0
H931 H 0.16206 0.21019 0.05039 0.0
C932 C 0.19829 0.24634 0.01047 0.0
N933 N 0.1862 0.25093 0.00555 0.0
C934 C 0.20734 0.24697 0.98466 0.0
C935 C 0.19128 0.257 0.94931 0.0
C936 C 0.18256 0.25621 0.9758 0.0
C937 C 0.20387 0.25235 0.95356 0.0
H938 H 0.2009 0.24231 0.03458 0.0
H939 H 0.1729 0.25988 0.97273 0.0
O940 O 0.1535 0.24942 0.10602 0.0
O941 O 0.17511 0.26542 0.07274 0.0
O942 O 0.17676 0.2351 0.07103 0.0
O943 O 0.15622 0.24973 0.02852 0.0
H944 H 0.16165 0.27287 0.12307 0.0
H945 H 0.13671 0.24154 0.15112 0.0
H946 H 0.15412 0.28503 0.17282 0.0
H947 H 0.12969 0.25424 0.20073 0.0
H948 H 0.18316 0.29361 0.98792 0.0
H949 H 0.20005 0.26862 0.08372 0.0
H950 H 0.16829 0.27979 0.02072 0.0
H951 H 0.2144 0.28248 0.04949 0.0
H952 H 0.18623 0.25287 0.22378 0.0
H953 H 0.21588 0.24631 0.14946 0.0
H954 H 0.11665 0.27992 0.02383 0.0
H955 H 0.14392 0.30792 0.06165 0.0
H956 H 0.19491 0.21785 0.06055 0.0
H957 H 0.16349 0.22832 0.12556 0.0
H958 H 0.19882 0.1986 0.09623 0.0
H959 H 0.16796 0.20897 0.15997 0.0
H960 H 0.1698 0.22947 0.00809 0.0
H961 H 0.13738 0.25378 0.98528 0.0
H962 H 0.16498 0.21657 0.95726 0.0
H963 H 0.13311 0.24041 0.93482 0.0
H964 H 0.11543 0.21894 0.04771 0.0
H965 H 0.14751 0.19333 0.02951 0.0
H966 H 0.21699 0.24345 0.98918 0.0
H967 H 0.18815 0.26109 0.92566 0.0
Li968 Li 0.3437 0.73792 0.56758 0.0
Li969 Li 0.3274 0.74973 0.60331 0.0
Li970 Li 0.32533 0.74918 0.54272 0.0
Li971 Li 0.34217 0.76201 0.56789 0.0
C972 C 0.31596 0.72679 0.5593 0.0
N973 N 0.2971 0.71288 0.52645 0.0
C974 C 0.30329 0.72701 0.57099 0.0
C975 C 0.31906 0.71944 0.53101 0.0
C976 C 0.29389 0.71993 0.554 0.0
C977 C 0.30939 0.71249 0.51473 0.0
C978 C 0.35144 0.75393 0.63601 0.0
C979 C 0.35581 0.77033 0.67734 0.0
N980 N 0.36065 0.76117 0.69826 0.0
C981 C 0.3566 0.74469 0.65771 0.0
C982 C 0.35117 0.76687 0.64568 0.0
C983 C 0.36115 0.74854 0.68916 0.0
C984 C 0.36748 0.72765 0.55166 0.0
N985 N 0.35539 0.72418 0.56086 0.0
C986 C 0.3597 0.70214 0.54744 0.0
C987 C 0.35148 0.71168 0.56 0.0
C988 C 0.37202 0.70556 0.53581 0.0
C989 C 0.37602 0.71845 0.53923 0.0
H990 H 0.37025 0.7377 0.55242 0.0
H991 H 0.34178 0.70921 0.56734 0.0
C992 C 0.30477 0.75364 0.6376 0.0
N993 N 0.31708 0.74974 0.64297 0.0
C994 C 0.29594 0.75395 0.6639 0.0
C995 C 0.31256 0.74616 0.70115 0.0
C996 C 0.3211 0.74597 0.67394 0.0
C997 C 0.29977 0.75021 0.69628 0.0
H998 H 0.30176 0.75639 0.61261 0.0
H999 H 0.33087 0.74273 0.67758 0.0
C1000 C 0.34641 0.75653 0.50067 0.0
N1001 N 0.3531 0.7706 0.44443 0.0
C1002 C 0.3391 0.76724 0.49116 0.0
C1003 C 0.35712 0.75297 0.48159 0.0
C1004 C 0.34265 0.77423 0.46265 0.0
C1005 C 0.36034 0.76021 0.45322 0.0
C1006 C 0.31859 0.77585 0.58026 0.0
C1007 C 0.31217 0.78312 0.55592 0.0
C1008 C 0.32 0.78077 0.61273 0.0
C1009 C 0.30742 0.7953 0.56437 0.0
C1010 C 0.3151 0.79298 0.6202 0.0
N1011 N 0.30897 0.79993 0.59606 0.0
C1012 C 0.30112 0.75263 0.51295 0.0
C1013 C 0.31681 0.74335 0.47709 0.0
C1014 C 0.29189 0.75197 0.48758 0.0
N1015 N 0.31327 0.74838 0.50721 0.0
C1016 C 0.3079 0.74248 0.45103 0.0
C1017 C 0.29525 0.74685 0.4561 0.0
H1018 H 0.2986 0.75649 0.53731 0.0
H1019 H 0.32651 0.73985 0.47347 0.0
C1020 C 0.3652 0.77373 0.55199 0.0
N1021 N 0.35285 0.77669 0.55999 0.0
C1022 C 0.37333 0.78308 0.53841 0.0
C1023 C 0.35613 0.79862 0.54358 0.0
C1024 C 0.34829 0.78892 0.55682 0.0
C1025 C 0.36871 0.79566 0.53318 0.0
H1026 H 0.36849 0.76387 0.5542 0.0
H1027 H 0.33844 0.79111 0.56297 0.0
O1028 O 0.32523 0.73397 0.57498 0.0
O1029 O 0.34699 0.75031 0.60512 0.0
O1030 O 0.3434 0.74982 0.52916 0.0
O1031 O 0.32323 0.76389 0.57235 0.0
H1032 H 0.30071 0.73263 0.59283 0.0
H1033 H 0.32878 0.71934 0.52127 0.0
H1034 H 0.28403 0.72005 0.56269 0.0
H1035 H 0.31163 0.70685 0.49264 0.0
H1036 H 0.35561 0.78031 0.68523 0.0
H1037 H 0.35699 0.73465 0.65039 0.0
H1038 H 0.34751 0.77418 0.62886 0.0
H1039 H 0.36509 0.74149 0.70633 0.0
H1040 H 0.35615 0.69237 0.54512 0.0
H1041 H 0.38551 0.72149 0.53129 0.0
H1042 H 0.28614 0.75686 0.65869 0.0
H1043 H 0.31595 0.74324 0.7257 0.0
H1044 H 0.33087 0.77019 0.50583 0.0
H1045 H 0.36292 0.74475 0.48876 0.0
H1046 H 0.33711 0.78257 0.45508 0.0
H1047 H 0.36862 0.75758 0.43824 0.0
H1048 H 0.31091 0.77943 0.53072 0.0
H1049 H 0.32472 0.7752 0.63206 0.0
H1050 H 0.30248 0.80106 0.54575 0.0
H1051 H 0.31613 0.7969 0.64522 0.0
H1052 H 0.28229 0.75556 0.49244 0.0
H1053 H 0.31083 0.73827 0.42736 0.0
H1054 H 0.38288 0.78027 0.53037 0.0
H1055 H 0.35222 0.80822 0.54054 0.0
Li1056 Li 0.50943 0.09373 0.81462 0.0
Li1057 Li 0.48653 0.09387 0.82002 0.0
Li1058 Li 0.5 0.07825 0.85398 0.0
Li1059 Li 0.49696 0.07625 0.79188 0.0
C1060 C 0.50708 0.10566 0.87484 0.0
N1061 N 0.52229 0.12202 0.91262 0.0
C1062 C 0.50775 0.11877 0.86693 0.0
C1063 C 0.51416 0.10087 0.90196 0.0
C1064 C 0.51549 0.12689 0.88633 0.0
C1065 C 0.52179 0.1093 0.92075 0.0
C1066 C 0.49103 0.10427 0.76141 0.0
C1067 C 0.47419 0.11249 0.72557 0.0
N1068 N 0.47903 0.12459 0.72915 0.0
C1069 C 0.49579 0.11681 0.76483 0.0
C1070 C 0.48012 0.10209 0.74164 0.0
C1071 C 0.48961 0.12694 0.74825 0.0
C1072 C 0.52632 0.10379 0.76846 0.0
N1073 N 0.52459 0.10335 0.8023 0.0
C1074 C 0.54371 0.11583 0.8107 0.0
C1075 C 0.53326 0.10887 0.82353 0.0
C1076 C 0.54543 0.11671 0.7758 0.0
C1077 C 0.53667 0.11042 0.75464 0.0
H1078 H 0.51956 0.09898 0.75206 0.0
H1079 H 0.53219 0.10785 0.85031 0.0
C1080 C 0.46019 0.09898 0.80759 0.0
N1081 N 0.47137 0.10437 0.8184 0.0
C1082 C 0.45009 0.10678 0.79649 0.0
C1083 C 0.46273 0.12552 0.81091 0.0
C1084 C 0.47257 0.11736 0.82172 0.0
C1085 C 0.45155 0.12024 0.79666 0.0
H1086 H 0.45943 0.08865 0.80531 0.0
H1087 H 0.48153 0.12143 0.83028 0.0
C1088 C 0.52572 0.07435 0.8151 0.0
N1089 N 0.55209 0.07439 0.80691 0.0
C1090 C 0.53105 0.07223 0.78338 0.0
C1091 C 0.53376 0.07639 0.84271 0.0
C1092 C 0.54442 0.07232 0.77975 0.0
C1093 C 0.54708 0.07639 0.83803 0.0
C1094 C 0.47739 0.06413 0.81844 0.0
C1095 C 0.47848 0.0529 0.83763 0.0
C1096 C 0.47012 0.06395 0.78889 0.0
C1097 C 0.47239 0.04164 0.82676 0.0
C1098 C 0.4642 0.0525 0.77883 0.0
N1099 N 0.46545 0.04167 0.79781 0.0
C1100 C 0.49503 0.0705 0.92182 0.0
C1101 C 0.5092 0.0573 0.89031 0.0
C1102 C 0.49559 0.06191 0.9489 0.0
N1103 N 0.50174 0.068 0.89326 0.0
C1104 C 0.50999 0.04846 0.91659 0.0
C1105 C 0.50304 0.05061 0.94635 0.0
H1106 H 0.48906 0.07902 0.9233 0.0
H1107 H 0.5142 0.05541 0.86702 0.0
C1108 C 0.49376 0.0679 0.72494 0.0
N1109 N 0.49653 0.064 0.75669 0.0
C1110 C 0.49344 0.05897 0.69881 0.0
C1111 C 0.49922 0.04225 0.7384 0.0
C1112 C 0.49935 0.05151 0.76383 0.0
C1113 C 0.49618 0.04596 0.70542 0.0
H1114 H 0.49191 0.07794 0.71985 0.0
H1115 H 0.50167 0.04876 0.78932 0.0
O1116 O 0.49931 0.0976 0.85672 0.0
O1117 O 0.49681 0.09424 0.77794 0.0
O1118 O 0.51266 0.07472 0.81897 0.0
O1119 O 0.48348 0.0752 0.82841 0.0
H1120 H 0.50255 0.12264 0.84573 0.0
H1121 H 0.51381 0.09076 0.90845 0.0
H1122 H 0.51615 0.13704 0.88038 0.0
H1123 H 0.52732 0.10571 0.94178 0.0
H1124 H 0.46568 0.11095 0.71045 0.0
H1125 H 0.50405 0.11877 0.78054 0.0
H1126 H 0.4761 0.09252 0.73927 0.0
H1127 H 0.49318 0.13669 0.75079 0.0
H1128 H 0.55042 0.12037 0.82782 0.0
H1129 H 0.53764 0.11089 0.72758 0.0
H1130 H 0.44166 0.10228 0.78564 0.0
H1131 H 0.46416 0.13585 0.81206 0.0
H1132 H 0.52493 0.0707 0.76176 0.0
H1133 H 0.52974 0.0781 0.86739 0.0
H1134 H 0.5487 0.07078 0.75531 0.0
H1135 H 0.55343 0.07804 0.85912 0.0
H1136 H 0.48398 0.05285 0.86066 0.0
H1137 H 0.46933 0.07248 0.77338 0.0
H1138 H 0.47319 0.03288 0.84132 0.0
H1139 H 0.45867 0.0522 0.75582 0.0
H1140 H 0.49017 0.06405 0.97145 0.0
H1141 H 0.51563 0.03979 0.91308 0.0
H1142 H 0.49129 0.06224 0.67359 0.0
H1143 H 0.50133 0.0323 0.74452 0.0
Li1144 Li 0.00344 0.92452 0.29435 0.0
Li1145 Li 0.00074 0.92167 0.35597 0.0
Li1146 Li 0.01353 0.90608 0.32066 0.0
Li1147 Li 0.99038 0.90686 0.31666 0.0
C1148 C 0.02432 0.93509 0.32205 0.0
N1149 N 0.0386 0.95663 0.30529 0.0
C1150 C 0.02391 0.94608 0.34236 0.0
C1151 C 0.03206 0.93504 0.29333 0.0
C1152 C 0.03119 0.95687 0.33344 0.0
C1153 C 0.03918 0.94603 0.28524 0.0
C1154 C 0.97495 0.92736 0.3136 0.0
C1155 C 0.95246 0.92569 0.3279 0.0
N1156 N 0.94929 0.92965 0.29642 0.0
C1157 C 0.97146 0.93151 0.28147 0.0
C1158 C 0.96537 0.92451 0.3371 0.0
C1159 C 0.95844 0.93258 0.27324 0.0
C1160 C 0.00391 0.93247 0.22712 0.0
N1161 N 0.00451 0.93683 0.25926 0.0
C1162 C 0.00589 0.95863 0.24034 0.0
C1163 C 0.00524 0.94963 0.26633 0.0
C1164 C 0.00538 0.95438 0.20692 0.0
C1165 C 0.00431 0.94113 0.20039 0.0
H1166 H 0.00295 0.92228 0.22223 0.0
H1167 H 0.00525 0.95285 0.29214 0.0
C1168 C 0.00827 0.92995 0.42164 0.0
N1169 N 0.99969 0.9315 0.39618 0.0
C1170 C 0.00828 0.93852 0.4488 0.0
C1171 C 0.99043 0.94982 0.4233 0.0
C1172 C 0.99079 0.94109 0.39671 0.0
C1173 C 0.99937 0.94875 0.44961 0.0
H1174 H 0.01534 0.92232 0.4203 0.0
H1175 H 0.98425 0.94224 0.37582 0.0
C1176 C 0.00825 0.8976 0.25915 0.0
N1177 N 0.0197 0.87907 0.21922 0.0
C1178 C 0.00312 0.88515 0.25761 0.0
C1179 C 0.01916 0.90064 0.24021 0.0
C1180 C 0.00905 0.87592 0.23726 0.0
C1181 C 0.02484 0.89112 0.22028 0.0
C1182 C 0.99377 0.89556 0.38028 0.0
C1183 C 0.99574 0.88233 0.3845 0.0
C1184 C 0.98467 0.90191 0.40012 0.0
C1185 C 0.98844 0.87563 0.40824 0.0
C1186 C 0.97756 0.89487 0.42358 0.0
N1187 N 0.97957 0.88199 0.42711 0.0
C1188 C 0.03979 0.89954 0.30965 0.0
C1189 C 0.02545 0.88191 0.31525 0.0
C1190 C 0.04948 0.89135 0.29788 0.0
N1191 N 0.02793 0.89476 0.31681 0.0
C1192 C 0.0348 0.8734 0.30345 0.0
C1193 C 0.04684 0.87818 0.29339 0.0
H1194 H 0.04151 0.90978 0.31107 0.0
H1195 H 0.01589 0.8784 0.32066 0.0
C1196 C 0.97232 0.8991 0.27125 0.0
N1197 N 0.97559 0.89698 0.30383 0.0
C1198 C 0.9628 0.89174 0.25587 0.0
C1199 C 0.95985 0.88022 0.30801 0.0
C1200 C 0.9694 0.88793 0.32257 0.0
C1201 C 0.95666 0.88188 0.27394 0.0
H1202 H 0.97746 0.90626 0.25679 0.0
H1203 H 0.9721 0.88635 0.34836 0.0
O1204 O 0.01718 0.92446 0.33026 0.0
O1205 O 0.98766 0.92603 0.32194 0.0
O1206 O 0.00275 0.90671 0.2795 0.0
O1207 O 0.00089 0.90226 0.35725 0.0
H1208 H 0.018 0.94632 0.36468 0.0
H1209 H 0.03241 0.92668 0.27715 0.0
H1210 H 0.03094 0.96545 0.34887 0.0
H1211 H 0.04512 0.94615 0.26295 0.0
H1212 H 0.94496 0.92345 0.34579 0.0
H1213 H 0.97871 0.93376 0.26292 0.0
H1214 H 0.96786 0.92137 0.36213 0.0
H1215 H 0.95561 0.9357 0.2484 0.0
H1216 H 0.00651 0.96881 0.24625 0.0
H1217 H 0.00386 0.93752 0.17489 0.0
H1218 H 0.01528 0.93728 0.46866 0.0
H1219 H 0.98356 0.95766 0.4225 0.0
H1220 H 0.99478 0.88255 0.27237 0.0
H1221 H 0.02329 0.91019 0.24119 0.0
H1222 H 0.00523 0.86623 0.23599 0.0
H1223 H 0.03335 0.89331 0.20572 0.0
H1224 H 0.00281 0.87726 0.36958 0.0
H1225 H 0.98309 0.91214 0.39749 0.0
H1226 H 0.98983 0.86538 0.41168 0.0
H1227 H 0.97045 0.89966 0.43901 0.0
H1228 H 0.05862 0.89543 0.2903 0.0
H1229 H 0.03244 0.86329 0.30075 0.0
H1230 H 0.9605 0.89358 0.22979 0.0
H1231 H 0.95543 0.87269 0.32289 0.0
Li1232 Li 0.49868 0.92192 0.28758 0.0
Li1233 Li 0.49449 0.92378 0.34927 0.0
Li1234 Li 0.50749 0.90641 0.32793 0.0
Li1235 Li 0.48482 0.90609 0.31962 0.0
C1236 C 0.52362 0.92586 0.32997 0.0
N1237 N 0.54977 0.92599 0.34195 0.0
C1238 C 0.52825 0.92723 0.36271 0.0
C1239 C 0.53226 0.92463 0.30328 0.0
C1240 C 0.54152 0.92725 0.36825 0.0
C1241 C 0.54546 0.92471 0.30987 0.0
C1242 C 0.47522 0.93568 0.32034 0.0
C1243 C 0.46126 0.94711 0.35855 0.0
N1244 N 0.46247 0.9579 0.33943 0.0
C1245 C 0.47626 0.94687 0.30098 0.0
C1246 C 0.46758 0.93577 0.34926 0.0
C1247 C 0.46976 0.95801 0.31107 0.0
C1248 C 0.49485 0.92996 0.21939 0.0
N1249 N 0.50095 0.93241 0.24892 0.0
C1250 C 0.50882 0.9525 0.22802 0.0
C1251 C 0.50796 0.94332 0.25349 0.0
C1252 C 0.50238 0.95044 0.19749 0.0
C1253 C 0.49553 0.93887 0.19304 0.0
H1254 H 0.48917 0.92129 0.21669 0.0
H1255 H 0.51253 0.94512 0.27743 0.0
C1256 C 0.49102 0.93226 0.41618 0.0
N1257 N 0.49357 0.93608 0.38425 0.0
C1258 C 0.49083 0.94126 0.44217 0.0
C1259 C 0.49622 0.9579 0.402 0.0
C1260 C 0.49623 0.94858 0.37675 0.0
C1261 C 0.49351 0.95426 0.43521 0.0
H1262 H 0.48937 0.9222 0.42158 0.0
H1263 H 0.49844 0.95127 0.35115 0.0
C1264 C 0.50673 0.89475 0.26774 0.0
N1265 N 0.52343 0.87886 0.23302 0.0
C1266 C 0.50783 0.88173 0.27642 0.0
C1267 C 0.51414 0.89968 0.2414 0.0
C1268 C 0.51633 0.87386 0.25857 0.0
C1269 C 0.52252 0.89149 0.22415 0.0
C1270 C 0.48785 0.89597 0.37901 0.0
C1271 C 0.49208 0.88323 0.37562 0.0
C1272 C 0.47688 0.89858 0.39818 0.0
C1273 C 0.48531 0.87335 0.39161 0.0
C1274 C 0.47036 0.88843 0.41369 0.0
N1275 N 0.47468 0.87613 0.41014 0.0
C1276 C 0.52291 0.89482 0.37552 0.0
C1277 C 0.53207 0.89244 0.32147 0.0
C1278 C 0.53277 0.88762 0.38985 0.0
N1279 N 0.52244 0.89672 0.34177 0.0
C1280 C 0.5422 0.88514 0.33481 0.0
C1281 C 0.54244 0.88242 0.36938 0.0
H1282 H 0.51554 0.89886 0.39149 0.0
H1283 H 0.53195 0.89462 0.29499 0.0
C1284 C 0.45854 0.90005 0.33057 0.0
N1285 N 0.46988 0.89526 0.31902 0.0
C1286 C 0.44865 0.89169 0.34007 0.0
C1287 C 0.46186 0.87373 0.32263 0.0
C1288 C 0.47146 0.88244 0.3134 0.0
C1289 C 0.4505 0.87831 0.33758 0.0
H1290 H 0.4575 0.91026 0.3348 0.0
H1291 H 0.48055 0.87887 0.30424 0.0
O1292 O 0.51068 0.92542 0.32416 0.0
O1293 O 0.48167 0.92473 0.31112 0.0
O1294 O 0.49827 0.90257 0.28442 0.0
O1295 O 0.49424 0.90577 0.36306 0.0
H1296 H 0.52165 0.92813 0.38362 0.0
H1297 H 0.5288 0.92348 0.27782 0.0
H1298 H 0.54525 0.92823 0.39348 0.0
H1299 H 0.55227 0.92369 0.28951 0.0
H1300 H 0.45544 0.94734 0.38106 0.0
H1301 H 0.48201 0.94699 0.27838 0.0
H1302 H 0.4668 0.92728 0.36486 0.0
H1303 H 0.47053 0.96674 0.29636 0.0
H1304 H 0.51431 0.96122 0.23235 0.0
H1305 H 0.49035 0.93698 0.16997 0.0
H1306 H 0.48894 0.93804 0.46757 0.0
H1307 H 0.49829 0.96784 0.39562 0.0
H1308 H 0.50237 0.87777 0.29705 0.0
H1309 H 0.51346 0.90971 0.23436 0.0
H1310 H 0.51732 0.86379 0.26514 0.0
H1311 H 0.52832 0.89519 0.20375 0.0
H1312 H 0.50038 0.88095 0.36039 0.0
H1313 H 0.47328 0.90832 0.40055 0.0
H1314 H 0.48845 0.86345 0.38907 0.0
H1315 H 0.46181 0.89031 0.42837 0.0
H1316 H 0.53282 0.88615 0.41677 0.0
H1317 H 0.54957 0.88145 0.31818 0.0
H1318 H 0.44007 0.89563 0.35157 0.0
H1319 H 0.46359 0.86349 0.31976 0.0
Li1320 Li 0.01301 0.09359 0.82232 0.0
Li1321 Li 0.98987 0.09301 0.82617 0.0
Li1322 Li 0.00267 0.07506 0.84761 0.0
Li1323 Li 5e-05 0.07843 0.78602 0.0
C1324 C 0.00785 0.10157 0.88433 0.0
N1325 N 0.01961 0.1195 0.9255 0.0
C1326 C 0.00285 0.11405 0.88696 0.0
C1327 C 0.01877 0.09819 0.90283 0.0
C1328 C 0.00894 0.12297 0.90792 0.0
C1329 C 0.02461 0.10741 0.9234 0.0
C1330 C 0.99341 0.1051 0.7639 0.0
C1331 C 0.97749 0.10688 0.72008 0.0
N1332 N 0.97941 0.11985 0.71913 0.0
C1333 C 0.99529 0.11843 0.76232 0.0
C1334 C 0.9845 0.09926 0.74247 0.0
C1335 C 0.9881 0.12572 0.73958 0.0
C1336 C 0.0395 0.09941 0.83166 0.0
N1337 N 0.02765 0.10458 0.82655 0.0
C1338 C 0.03535 0.12554 0.8412 0.0
C1339 C 0.02555 0.11745 0.82984 0.0
C1340 C 0.04749 0.12034 0.84896 0.0
C1341 C 0.04962 0.10716 0.84287 0.0
H1342 H 0.04095 0.08917 0.82862 0.0
H1343 H 0.016 0.12129 0.82605 0.0
C1344 C 0.97197 0.10063 0.87213 0.0
N1345 N 0.97512 0.10286 0.83953 0.0
C1346 C 0.96239 0.10781 0.88782 0.0
C1347 C 0.95911 0.11939 0.83591 0.0
C1348 C 0.96872 0.11185 0.82104 0.0
C1349 C 0.95604 0.1176 0.87002 0.0
H1350 H 0.97721 0.09346 0.88633 0.0
H1351 H 0.97125 0.11347 0.79516 0.0
C1352 C 0.02347 0.06448 0.81937 0.0
N1353 N 0.03757 0.04269 0.83494 0.0
C1354 C 0.02288 0.05362 0.79863 0.0
C1355 C 0.0313 0.06428 0.84791 0.0
C1356 C 0.03007 0.0427 0.80695 0.0
C1357 C 0.03832 0.05316 0.8554 0.0
C1358 C 0.97415 0.07283 0.8274 0.0
C1359 C 0.97033 0.06848 0.8591 0.0
C1360 C 0.96482 0.07618 0.80366 0.0
C1361 C 0.95723 0.06771 0.86666 0.0
C1362 C 0.95182 0.07528 0.8122 0.0
N1363 N 0.94832 0.07112 0.84327 0.0
C1364 C 0.00287 0.06668 0.91441 0.0
C1365 C 0.00432 0.04974 0.87459 0.0
C1366 C 0.00325 0.05788 0.94082 0.0
N1367 N 0.00356 0.0625 0.88212 0.0
C1368 C 0.00496 0.0406 0.90027 0.0
C1369 C 0.0044 0.04468 0.93383 0.0
H1370 H 0.00189 0.07685 0.91966 0.0
H1371 H 0.00439 0.04666 0.84867 0.0
C1372 C 0.00785 0.07059 0.72039 0.0
N1373 N 0.99903 0.06897 0.74523 0.0
C1374 C 0.00802 0.06222 0.69284 0.0
C1375 C 0.9898 0.05098 0.71662 0.0
C1376 C 0.99001 0.05952 0.74365 0.0
C1377 C 0.99902 0.05211 0.69098 0.0
H1378 H 0.01503 0.0781 0.72258 0.0
H1379 H 0.98327 0.0583 0.76408 0.0
O1380 O 0.0022 0.09277 0.86337 0.0
O1381 O 0.00045 0.09781 0.78584 0.0
O1382 O 0.01642 0.07524 0.81176 0.0
O1383 O 0.98694 0.07391 0.81976 0.0
H1384 H 0.99451 0.1169 0.87256 0.0
H1385 H 0.02278 0.0886 0.90107 0.0
H1386 H 0.00522 0.13268 0.91003 0.0
H1387 H 0.03313 0.10495 0.93763 0.0
H1388 H 0.97053 0.10249 0.70344 0.0
H1389 H 0.00221 0.12311 0.77853 0.0
H1390 H 0.98299 0.08896 0.74308 0.0
H1391 H 0.98942 0.13605 0.73819 0.0
H1392 H 0.03317 0.13559 0.84586 0.0
H1393 H 0.05888 0.10278 0.84783 0.0
H1394 H 0.96017 0.10586 0.91389 0.0
H1395 H 0.9545 0.12686 0.82121 0.0
H1396 H 0.01689 0.05357 0.77645 0.0
H1397 H 0.03181 0.07255 0.86437 0.0
H1398 H 0.02967 0.03421 0.79118 0.0
H1399 H 0.04434 0.05285 0.87754 0.0
H1400 H 0.9774 0.06585 0.8778 0.0
H1401 H 0.96758 0.0795 0.77898 0.0
H1402 H 0.95415 0.06444 0.89117 0.0
H1403 H 0.94451 0.07791 0.79414 0.0
H1404 H 0.00277 0.06136 0.96644 0.0
H1405 H 0.00564 0.03047 0.894 0.0
H1406 H 0.01523 0.06351 0.67352 0.0
H1407 H 0.98282 0.04322 0.7166 0.0
H1408 H 0.10085 0.70305 0.09905 0.0
H1409 H 0.08747 0.6877 0.13028 0.0
H1410 H 0.12155 0.67005 0.17137 0.0
H1411 H 0.13499 0.6854 0.14054 0.0
H1412 H 0.0892 0.65832 0.13111 0.0
H1413 H 0.09841 0.68262 0.25351 0.0
H1414 H 0.10059 0.69072 0.21376 0.0
H1415 H 0.11212 0.67901 0.22755 0.0
C1416 C 0.10549 0.69585 0.11458 0.0
C1417 C 0.11897 0.69545 0.1174 0.0
C1418 C 0.09784 0.68708 0.13228 0.0
C1419 C 0.10355 0.67787 0.15331 0.0
C1420 C 0.11699 0.67717 0.1554 0.0
H1421 H 0.07037 0.62493 0.29983 0.0
H1422 H 0.08509 0.63795 0.2658 0.0
C1423 C 0.12465 0.68587 0.13755 0.0
C1424 C 0.09542 0.66928 0.17398 0.0
H1425 H 0.08551 0.66397 0.2545 0.0
C1426 C 0.08837 0.65951 0.15809 0.0
C1427 C 0.09448 0.67087 0.20914 0.0
C1428 C 0.10172 0.6814 0.22717 0.0
C1429 C 0.08041 0.65119 0.17656 0.0
C1430 C 0.07922 0.65296 0.2117 0.0
C1431 C 0.08641 0.66265 0.22759 0.0
C1432 C 0.07032 0.64507 0.23231 0.0
C1433 C 0.07351 0.64048 0.15832 0.0
C1434 C 0.0571 0.64494 0.22517 0.0
C1435 C 0.04871 0.63745 0.24433 0.0
C1436 C 0.05331 0.63005 0.27141 0.0
C1437 C 0.06653 0.63041 0.27897 0.0
C1438 C 0.07494 0.63788 0.25964 0.0
H1439 H 0.07837 0.63801 0.13432 0.0
H1440 H 0.07291 0.63165 0.17402 0.0
H1441 H 0.06358 0.64364 0.15227 0.0
H1442 H 0.05327 0.65063 0.20468 0.0
H1443 H 0.03863 0.63726 0.23742 0.0
H1444 H 0.53905 0.86346 0.41578 0.0
H1445 H 0.55544 0.85023 0.44288 0.0
H1446 H 0.58486 0.86864 0.38346 0.0
H1447 H 0.56846 0.88225 0.3567 0.0
H1448 H 0.57286 0.83301 0.41299 0.0
H1449 H 0.59799 0.87261 0.48087 0.0
H1450 H 0.58219 0.87462 0.46273 0.0
H1451 H 0.59617 0.8746 0.43627 0.0
C1452 C 0.54902 0.8648 0.40867 0.0
C1453 C 0.55248 0.87402 0.38438 0.0
C1454 C 0.55836 0.85718 0.42403 0.0
C1455 C 0.57137 0.8586 0.41554 0.0
C1456 C 0.57488 0.86757 0.39077 0.0
H1457 H 0.63731 0.81676 0.49772 0.0
H1458 H 0.62376 0.83186 0.46641 0.0
C1459 C 0.5655 0.87523 0.37528 0.0
C1460 C 0.5811 0.85049 0.43265 0.0
H1461 H 0.60609 0.85156 0.48829 0.0
C1462 C 0.58017 0.83706 0.42933 0.0
C1463 C 0.59063 0.85583 0.45385 0.0
C1464 C 0.59182 0.87019 0.45897 0.0
C1465 C 0.58842 0.82879 0.44697 0.0
C1466 C 0.5977 0.83411 0.46896 0.0
C1467 C 0.5989 0.84754 0.47156 0.0
C1468 C 0.60602 0.82579 0.48994 0.0
C1469 C 0.58716 0.81443 0.44189 0.0
C1470 C 0.60056 0.8177 0.51432 0.0
C1471 C 0.60827 0.80913 0.53241 0.0
C1472 C 0.6216 0.80853 0.52655 0.0
C1473 C 0.6271 0.81707 0.50312 0.0
C1474 C 0.61937 0.82565 0.48504 0.0
H1475 H 0.58201 0.8121 0.41821 0.0
H1476 H 0.59676 0.80973 0.44136 0.0
H1477 H 0.5816 0.81025 0.46305 0.0
H1478 H 0.59029 0.81787 0.51894 0.0
H1479 H 0.60376 0.80284 0.55065 0.0
H1480 H 0.4353 0.38595 0.75046 0.0
H1481 H 0.42048 0.37249 0.71807 0.0
H1482 H 0.43333 0.33891 0.77236 0.0
H1483 H 0.448 0.35235 0.80539 0.0
H1484 H 0.42816 0.35154 0.67695 0.0
H1485 H 0.39375 0.33611 0.77569 0.0
H1486 H 0.40431 0.34981 0.78076 0.0
H1487 H 0.4104 0.33373 0.78618 0.0
C1488 C 0.43474 0.37575 0.75611 0.0
C1489 C 0.44277 0.37023 0.78066 0.0
C1490 C 0.42635 0.36807 0.73737 0.0
C1491 C 0.42573 0.35474 0.74303 0.0
C1492 C 0.43353 0.34921 0.76796 0.0
H1493 H 0.38837 0.28905 0.65479 0.0
H1494 H 0.40123 0.30423 0.68726 0.0
C1495 C 0.44196 0.35689 0.78663 0.0
C1496 C 0.41754 0.34649 0.72145 0.0
H1497 H 0.39262 0.32509 0.72342 0.0
C1498 C 0.42031 0.34584 0.68699 0.0
C1499 C 0.40735 0.33906 0.73471 0.0
C1500 C 0.40367 0.33976 0.77131 0.0
C1501 C 0.41339 0.33762 0.66555 0.0
C1502 C 0.40328 0.33006 0.67887 0.0
C1503 C 0.40039 0.33088 0.71327 0.0
C1504 C 0.39582 0.32091 0.65788 0.0
C1505 C 0.41727 0.33677 0.62909 0.0
C1506 C 0.3885 0.32524 0.63046 0.0
C1507 C 0.38125 0.31652 0.61144 0.0
C1508 C 0.38112 0.30332 0.61964 0.0
C1509 C 0.38847 0.29907 0.64719 0.0
C1510 C 0.39573 0.30777 0.66606 0.0
H1511 H 0.42708 0.34067 0.6248 0.0
H1512 H 0.41697 0.32664 0.6201 0.0
H1513 H 0.41044 0.3425 0.61372 0.0
H1514 H 0.38824 0.33538 0.62407 0.0
H1515 H 0.37571 0.32012 0.5904 0.0
H1516 H 0.87766 0.18112 0.06171 0.0
H1517 H 0.89164 0.16568 0.03255 0.0
H1518 H 0.89978 0.19417 0.9566 0.0
H1519 H 0.88596 0.20961 0.98556 0.0
H1520 H 0.89025 0.15587 0.96794 0.0
H1521 H 0.93559 0.18317 0.98579 0.0
H1522 H 0.92106 0.18691 0.00862 0.0
H1523 H 0.92313 0.19249 0.96618 0.0
C1524 C 0.88246 0.18408 0.03883 0.0
C1525 C 0.88088 0.19664 0.02623 0.0
C1526 C 0.89043 0.17526 0.02222 0.0
C1527 C 0.89694 0.17886 0.99276 0.0
C1528 C 0.89514 0.1913 0.97978 0.0
H1529 H 0.93332 0.12783 0.84633 0.0
H1530 H 0.91868 0.14252 0.87566 0.0
C1531 C 0.88725 0.20012 0.99641 0.0
C1532 C 0.90551 0.16962 0.97529 0.0
H1533 H 0.9363 0.16565 0.94737 0.0
C1534 C 0.90034 0.15795 0.96356 0.0
C1535 C 0.91869 0.17232 0.96993 0.0
C1536 C 0.92499 0.18434 0.98357 0.0
C1537 C 0.90797 0.14898 0.94615 0.0
C1538 C 0.92104 0.15189 0.9398 0.0
C1539 C 0.92623 0.16349 0.95193 0.0
C1540 C 0.92971 0.14287 0.92178 0.0
C1541 C 0.90202 0.13638 0.93534 0.0
C1542 C 0.94093 0.13848 0.93758 0.0
C1543 C 0.94941 0.1303 0.92074 0.0
C1544 C 0.94684 0.12627 0.88765 0.0
C1545 C 0.93561 0.13076 0.87173 0.0
C1546 C 0.92715 0.13903 0.88862 0.0
H1547 H 0.89309 0.13423 0.94964 0.0
H1548 H 0.89946 0.13695 0.90834 0.0
H1549 H 0.90886 0.12827 0.93875 0.0
H1550 H 0.94317 0.14141 0.96304 0.0
H1551 H 0.9581 0.12731 0.93355 0.0
H1552 H 0.06141 0.38985 0.91868 0.0
H1553 H 0.07742 0.37649 0.94729 0.0
H1554 H 0.06799 0.3446 0.88222 0.0
H1555 H 0.05213 0.35801 0.85315 0.0
H1556 H 0.07283 0.35508 0.98257 0.0
H1557 H 0.10673 0.34366 0.87956 0.0
H1558 H 0.09475 0.35619 0.87608 0.0
H1559 H 0.09043 0.33959 0.86924 0.0
C1560 C 0.06288 0.38004 0.91023 0.0
C1561 C 0.05554 0.37496 0.8837 0.0
C1562 C 0.07203 0.37242 0.92656 0.0
C1563 C 0.07401 0.35958 0.91672 0.0
C1564 C 0.06687 0.35457 0.88975 0.0
H1565 H 0.10276 0.29724 0.03908 0.0
H1566 H 0.08981 0.31341 0.01008 0.0
C1567 C 0.05779 0.36222 0.87319 0.0
C1568 C 0.08283 0.35119 0.93626 0.0
H1569 H 0.10831 0.33062 0.92898 0.0
C1570 C 0.08067 0.34982 0.97089 0.0
C1571 C 0.09316 0.34447 0.92114 0.0
C1572 C 0.0965 0.34614 0.88453 0.0
C1573 C 0.08832 0.34166 0.99065 0.0
C1574 C 0.09822 0.33442 0.9752 0.0
C1575 C 0.10062 0.33606 0.94075 0.0
C1576 C 0.10607 0.32493 0.99411 0.0
C1577 C 0.08579 0.34097 0.02792 0.0
C1578 C 0.11953 0.32589 0.99435 0.0
C1579 C 0.12698 0.31652 0.01043 0.0
C1580 C 0.12112 0.30597 0.02655 0.0
C1581 C 0.10761 0.30517 0.02672 0.0
C1582 C 0.10017 0.3145 0.01048 0.0
H1583 H 0.08087 0.3498 0.03713 0.0
H1584 H 0.07942 0.33263 0.03324 0.0
H1585 H 0.09486 0.33969 0.04226 0.0
H1586 H 0.12429 0.33381 0.98169 0.0
H1587 H 0.13736 0.31734 0.00923 0.0
H1588 H 0.95885 0.87199 0.21065 0.0
H1589 H 0.94417 0.8575 0.1816 0.0
H1590 H 0.91977 0.85625 0.26912 0.0
H1591 H 0.93416 0.87132 0.29802 0.0
H1592 H 0.93771 0.83315 0.19809 0.0
H1593 H 0.89404 0.86393 0.19483 0.0
H1594 H 0.90973 0.87018 0.20547 0.0
H1595 H 0.90049 0.86147 0.23617 0.0
C1596 C 0.95023 0.86888 0.22358 0.0
C1597 C 0.94761 0.87299 0.25658 0.0
C1598 C 0.9419 0.86049 0.20699 0.0
C1599 C 0.93077 0.85594 0.22296 0.0
C1600 C 0.92816 0.85986 0.25604 0.0
H1601 H 0.88791 0.78849 0.15923 0.0
H1602 H 0.90153 0.80406 0.18837 0.0
C1603 C 0.93648 0.86835 0.27267 0.0
C1604 C 0.92225 0.84672 0.20518 0.0
H1605 H 0.89158 0.84225 0.17668 0.0
C1606 C 0.92762 0.83515 0.19337 0.0
C1607 C 0.90915 0.84942 0.19862 0.0
C1608 C 0.90301 0.86197 0.20913 0.0
C1609 C 0.92024 0.82617 0.17542 0.0
C1610 C 0.90704 0.82869 0.16978 0.0
C1611 C 0.90168 0.84031 0.18126 0.0
C1612 C 0.89864 0.81933 0.15214 0.0
C1613 C 0.92673 0.8142 0.16209 0.0
C1614 C 0.89219 0.82286 0.12254 0.0
C1615 C 0.88434 0.81397 0.10583 0.0
C1616 C 0.88281 0.8014 0.11846 0.0
C1617 C 0.88915 0.79799 0.14837 0.0
C1618 C 0.89693 0.80688 0.16511 0.0
H1619 H 0.93732 0.81548 0.16013 0.0
H1620 H 0.92489 0.80606 0.17953 0.0
H1621 H 0.92292 0.81155 0.13697 0.0
H1622 H 0.89334 0.83245 0.1122 0.0
H1623 H 0.87956 0.81688 0.08287 0.0
H1624 H 0.37551 0.67977 0.54978 0.0
H1625 H 0.38844 0.66417 0.51806 0.0
H1626 H 0.3999 0.69417 0.44944 0.0
H1627 H 0.38686 0.70971 0.48021 0.0
H1628 H 0.38641 0.65816 0.44592 0.0
H1629 H 0.43421 0.67757 0.48246 0.0
H1630 H 0.41972 0.68102 0.50583 0.0
H1631 H 0.42298 0.68939 0.46728 0.0
C1632 C 0.38076 0.68305 0.52789 0.0
C1633 C 0.38024 0.69605 0.51781 0.0
C1634 C 0.38816 0.67413 0.50989 0.0
C1635 C 0.39524 0.67808 0.48171 0.0
C1636 C 0.3947 0.69099 0.4715 0.0
H1637 H 0.44798 0.6452 0.3386 0.0
H1638 H 0.433 0.65882 0.37003 0.0
C1639 C 0.38728 0.69988 0.48931 0.0
C1640 C 0.40306 0.66874 0.46241 0.0
H1641 H 0.43387 0.6623 0.43815 0.0
C1642 C 0.3968 0.65896 0.44438 0.0
C1643 C 0.41659 0.66988 0.46045 0.0
C1644 C 0.42382 0.67996 0.48023 0.0
C1645 C 0.40371 0.6505 0.42351 0.0
C1646 C 0.41724 0.65175 0.4212 0.0
C1647 C 0.42349 0.66141 0.43974 0.0
C1648 C 0.4252 0.6432 0.39977 0.0
C1649 C 0.39643 0.64059 0.40332 0.0
C1650 C 0.42565 0.62986 0.40567 0.0
C1651 C 0.43416 0.62205 0.38762 0.0
C1652 C 0.44249 0.62747 0.36363 0.0
C1653 C 0.44174 0.64077 0.35707 0.0
C1654 C 0.43318 0.64855 0.37499 0.0
H1655 H 0.38609 0.64312 0.40092 0.0
H1656 H 0.40059 0.63954 0.37778 0.0
H1657 H 0.39708 0.63111 0.41614 0.0
H1658 H 0.41979 0.62556 0.42517 0.0
H1659 H 0.43468 0.61188 0.39366 0.0
H1660 H 0.60184 0.20315 0.6051 0.0
H1661 H 0.58916 0.18722 0.63578 0.0
H1662 H 0.62382 0.16659 0.66132 0.0
H1663 H 0.63666 0.18284 0.63223 0.0
H1664 H 0.58613 0.16166 0.62828 0.0
H1665 H 0.60782 0.17189 0.75277 0.0
H1666 H 0.61046 0.18208 0.71672 0.0
H1667 H 0.61934 0.1673 0.72141 0.0
C1668 C 0.6068 0.19528 0.61744 0.0
C1669 C 0.6203 0.19438 0.61647 0.0
C1670 C 0.59951 0.18613 0.6348 0.0
C1671 C 0.60556 0.17587 0.65148 0.0
C1672 C 0.61897 0.1746 0.64935 0.0
H1673 H 0.56203 0.10977 0.7259 0.0
H1674 H 0.57754 0.12356 0.69675 0.0
C1675 C 0.62628 0.18381 0.63221 0.0
C1676 C 0.59775 0.16657 0.67115 0.0
H1677 H 0.59342 0.15419 0.74986 0.0
C1678 C 0.58773 0.16001 0.65485 0.0
C1679 C 0.59973 0.16459 0.70595 0.0
C1680 C 0.60983 0.17192 0.72537 0.0
C1681 C 0.57964 0.15152 0.67234 0.0
C1682 C 0.58185 0.14925 0.70693 0.0
C1683 C 0.59185 0.15583 0.72327 0.0
C1684 C 0.57353 0.14048 0.72681 0.0
C1685 C 0.56854 0.1454 0.65377 0.0
C1686 C 0.56668 0.1452 0.75461 0.0
C1687 C 0.55797 0.13727 0.77164 0.0
C1688 C 0.55593 0.12452 0.76102 0.0
C1689 C 0.56327 0.11963 0.73424 0.0
C1690 C 0.57208 0.12751 0.71748 0.0
H1691 H 0.56613 0.15078 0.63048 0.0
H1692 H 0.5712 0.13543 0.64647 0.0
H1693 H 0.55981 0.14494 0.66981 0.0
H1694 H 0.56772 0.15516 0.76237 0.0
H1695 H 0.55239 0.1413 0.7921 0.0
H1696 H 0.92448 0.38175 0.84971 0.0
H1697 H 0.90912 0.36916 0.88314 0.0
H1698 H 0.94046 0.34754 0.92623 0.0
H1699 H 0.95583 0.36017 0.89364 0.0
H1700 H 0.90557 0.34157 0.88501 0.0
H1701 H 0.9204 0.36144 0.00845 0.0
H1702 H 0.92443 0.36913 0.96913 0.0
H1703 H 0.93346 0.3554 0.9834 0.0
C1704 C 0.92808 0.37431 0.86634 0.0
C1705 C 0.94137 0.37193 0.86895 0.0
C1706 C 0.9193 0.36713 0.88533 0.0
C1707 C 0.92369 0.35758 0.9075 0.0
C1708 C 0.9369 0.35501 0.90964 0.0
H1709 H 0.89394 0.30022 0.04123 0.0
H1710 H 0.90667 0.31584 0.00944 0.0
C1711 C 0.94566 0.36213 0.89064 0.0
C1712 C 0.91451 0.35014 0.92829 0.0
H1713 H 0.90699 0.34281 0.00954 0.0
C1714 C 0.90574 0.34193 0.91223 0.0
C1715 C 0.91481 0.35066 0.96377 0.0
C1716 C 0.9237 0.35971 0.98228 0.0
C1717 C 0.8976 0.33381 0.93076 0.0
C1718 C 0.89808 0.33413 0.96628 0.0
C1719 C 0.90665 0.34258 0.98232 0.0
C1720 C 0.89021 0.32533 0.9872 0.0
C1721 C 0.88893 0.32457 0.91215 0.0
C1722 C 0.87673 0.32574 0.98599 0.0
C1723 C 0.86943 0.31677 0.00394 0.0
C1724 C 0.87548 0.30726 0.02361 0.0
C1725 C 0.88899 0.30727 0.02592 0.0
C1726 C 0.89627 0.31624 0.00792 0.0
H1727 H 0.89183 0.32346 0.88546 0.0
H1728 H 0.88897 0.31493 0.92424 0.0
H1729 H 0.87892 0.3283 0.91267 0.0
H1730 H 0.87186 0.33285 0.97065 0.0
H1731 H 0.85906 0.31698 0.00138 0.0
H1732 H 0.42513 0.11872 0.7966 0.0
H1733 H 0.41008 0.13147 0.76261 0.0
H1734 H 0.4418 0.15324 0.72207 0.0
H1735 H 0.45687 0.14047 0.7552 0.0
H1736 H 0.4065 0.15911 0.76085 0.0
H1737 H 0.42261 0.1394 0.6383 0.0
H1738 H 0.42623 0.13166 0.67781 0.0
H1739 H 0.43538 0.14542 0.66435 0.0
C1740 C 0.42888 0.12623 0.78044 0.0
C1741 C 0.4422 0.12859 0.77866 0.0
C1742 C 0.42028 0.13351 0.76113 0.0
C1743 C 0.42487 0.14314 0.73947 0.0
C1744 C 0.4381 0.14572 0.73825 0.0
H1745 H 0.39582 0.20022 0.60339 0.0
H1746 H 0.40846 0.18481 0.63613 0.0
C1747 C 0.44668 0.13851 0.75758 0.0
C1748 C 0.41589 0.15059 0.71813 0.0
H1749 H 0.40906 0.1579 0.63644 0.0
C1750 C 0.40693 0.15876 0.73365 0.0
C1751 C 0.41652 0.15009 0.68267 0.0
C1752 C 0.42562 0.14109 0.66471 0.0
C1753 C 0.39891 0.16684 0.71462 0.0
C1754 C 0.39971 0.16652 0.67913 0.0
C1755 C 0.40848 0.15813 0.66363 0.0
C1756 C 0.39193 0.17523 0.65772 0.0
C1757 C 0.39002 0.17602 0.73271 0.0
C1758 C 0.37844 0.17469 0.65825 0.0
C1759 C 0.37119 0.18355 0.63976 0.0
C1760 C 0.3773 0.19306 0.6202 0.0
C1761 C 0.39082 0.19317 0.6186 0.0
C1762 C 0.39805 0.18433 0.63714 0.0
H1763 H 0.39273 0.1772 0.75952 0.0
H1764 H 0.39006 0.18565 0.72053 0.0
H1765 H 0.38006 0.17219 0.73176 0.0
H1766 H 0.37352 0.16758 0.67345 0.0
H1767 H 0.3608 0.18325 0.6418 0.0
H1768 H 0.54628 0.6246 0.43539 0.0
H1769 H 0.5617 0.63857 0.46391 0.0
H1770 H 0.5789 0.64835 0.36877 0.0
H1771 H 0.56336 0.63442 0.3398 0.0
H1772 H 0.59689 0.64289 0.42353 0.0
H1773 H 0.5592 0.67855 0.45765 0.0
H1774 H 0.55566 0.66219 0.46931 0.0
H1775 H 0.55682 0.66644 0.42568 0.0
C1776 C 0.5533 0.62976 0.42045 0.0
C1777 C 0.55346 0.62857 0.38526 0.0
C1778 C 0.56212 0.6377 0.43683 0.0
C1779 C 0.57128 0.64464 0.41838 0.0
C1780 C 0.57185 0.6431 0.38339 0.0
H1781 H 0.61354 0.71142 0.48581 0.0
H1782 H 0.60014 0.69584 0.45614 0.0
C1783 C 0.563 0.63512 0.36691 0.0
C1784 C 0.57992 0.65382 0.43572 0.0
H1785 H 0.57977 0.68152 0.48195 0.0
C1786 C 0.59319 0.65136 0.43625 0.0
C1787 C 0.57503 0.6649 0.45197 0.0
C1788 C 0.56091 0.66829 0.45098 0.0
C1789 C 0.60171 0.65965 0.45316 0.0
C1790 C 0.59677 0.67055 0.47017 0.0
C1791 C 0.58351 0.67308 0.46917 0.0
C1792 C 0.60518 0.67978 0.48817 0.0
C1793 C 0.61594 0.6568 0.45223 0.0
C1794 C 0.61238 0.67593 0.51627 0.0
C1795 C 0.62001 0.68487 0.53354 0.0
C1796 C 0.62046 0.69782 0.52313 0.0
C1797 C 0.61321 0.7016 0.49496 0.0
C1798 C 0.60562 0.69268 0.47777 0.0
H1799 H 0.61842 0.64985 0.43199 0.0
H1800 H 0.62157 0.66578 0.44839 0.0
H1801 H 0.6189 0.65253 0.47657 0.0
H1802 H 0.61198 0.66606 0.52509 0.0
H1803 H 0.6254 0.68169 0.55528 0.0
H1804 H 0.13799 0.81114 0.15813 0.0
H1805 H 0.12406 0.82572 0.18979 0.0
H1806 H 0.09288 0.81788 0.12146 0.0
H1807 H 0.10683 0.80353 0.08893 0.0
H1808 H 0.1085 0.84832 0.16511 0.0
H1809 H 0.07994 0.80796 0.21917 0.0
H1810 H 0.09579 0.80566 0.20159 0.0
H1811 H 0.08221 0.80783 0.17438 0.0
C1812 C 0.12827 0.81272 0.14929 0.0
C1813 C 0.12354 0.80613 0.12092 0.0
C1814 C 0.1203 0.82098 0.16761 0.0
C1815 C 0.10744 0.82273 0.15813 0.0
C1816 C 0.10276 0.8165 0.12937 0.0
H1817 H 0.04151 0.86099 0.24361 0.0
H1818 H 0.05663 0.84785 0.21153 0.0
C1819 C 0.11073 0.80828 0.11089 0.0
C1820 C 0.09881 0.83078 0.17894 0.0
H1821 H 0.07301 0.82908 0.23169 0.0
C1822 C 0.10075 0.84415 0.17978 0.0
C1823 C 0.08876 0.82526 0.19798 0.0
C1824 C 0.08654 0.81088 0.19858 0.0
C1825 C 0.09265 0.85223 0.19863 0.0
C1826 C 0.08257 0.84671 0.21777 0.0
C1827 C 0.08074 0.8333 0.21707 0.0
C1828 C 0.07353 0.85466 0.23784 0.0
C1829 C 0.09471 0.86662 0.19702 0.0
C1830 C 0.07798 0.86272 0.26371 0.0
C1831 C 0.06933 0.87028 0.28213 0.0
C1832 C 0.05607 0.86974 0.27532 0.0
C1833 C 0.05164 0.86147 0.24984 0.0
C1834 C 0.06028 0.85401 0.23133 0.0
H1835 H 0.10046 0.86943 0.17467 0.0
H1836 H 0.08539 0.87185 0.19627 0.0
H1837 H 0.10004 0.86978 0.21972 0.0
H1838 H 0.08813 0.86314 0.26974 0.0
H1839 H 0.073 0.87648 0.30179 0.0
H1840 H 0.95868 0.63456 0.23179 0.0
H1841 H 0.94277 0.64745 0.20194 0.0
H1842 H 0.91364 0.63588 0.2728 0.0
H1843 H 0.92965 0.6231 0.30361 0.0
H1844 H 0.90706 0.63416 0.19972 0.0
H1845 H 0.92654 0.68173 0.23876 0.0
H1846 H 0.93828 0.67054 0.22297 0.0
H1847 H 0.92993 0.66702 0.26139 0.0
C1848 C 0.94896 0.6349 0.2415 0.0
C1849 C 0.9455 0.62794 0.27049 0.0
C1850 C 0.93986 0.64221 0.22422 0.0
C1851 C 0.9271 0.64272 0.23543 0.0
C1852 C 0.92348 0.63562 0.26389 0.0
H1853 H 0.86118 0.68315 0.14872 0.0
H1854 H 0.87461 0.66806 0.18031 0.0
C1855 C 0.93262 0.62831 0.28138 0.0
C1856 C 0.91764 0.65071 0.21707 0.0
H1857 H 0.91126 0.68177 0.19454 0.0
C1858 C 0.90785 0.64459 0.19878 0.0
C1859 C 0.91878 0.66427 0.21592 0.0
C1860 C 0.92888 0.67133 0.236 0.0
C1861 C 0.89942 0.65169 0.17831 0.0
C1862 C 0.90072 0.66526 0.17667 0.0
C1863 C 0.91034 0.67136 0.19561 0.0
C1864 C 0.89232 0.67341 0.15534 0.0
C1865 C 0.88951 0.64459 0.15774 0.0
C1866 C 0.89781 0.68143 0.13083 0.0
C1867 C 0.89017 0.6901 0.11287 0.0
C1868 C 0.87688 0.69093 0.11912 0.0
C1869 C 0.87134 0.68259 0.14293 0.0
C1870 C 0.87901 0.67395 0.16101 0.0
H1871 H 0.89191 0.6342 0.15511 0.0
H1872 H 0.88002 0.64531 0.17036 0.0
H1873 H 0.8886 0.64887 0.13229 0.0
H1874 H 0.90807 0.68117 0.12608 0.0
H1875 H 0.89469 0.69633 0.09452 0.0
H1876 H 0.0535 0.14575 0.83726 0.0
H1877 H 0.06818 0.15943 0.86954 0.0
H1878 H 0.07858 0.12695 0.93132 0.0
H1879 H 0.06369 0.11328 0.89997 0.0
H1880 H 0.06622 0.16256 0.94374 0.0
H1881 H 0.1136 0.14386 0.90044 0.0
H1882 H 0.09905 0.14197 0.87608 0.0
H1883 H 0.1017 0.13213 0.91245 0.0
C1884 C 0.05892 0.14149 0.85765 0.0
C1885 C 0.0574 0.12839 0.86594 0.0
C1886 C 0.06735 0.14931 0.87594 0.0
C1887 C 0.07451 0.14416 0.90258 0.0
C1888 C 0.07327 0.13105 0.91048 0.0
H1889 H 0.12933 0.17844 0.04263 0.0
H1890 H 0.11547 0.16345 0.01159 0.0
C1891 C 0.0648 0.12324 0.89237 0.0
C1892 C 0.08267 0.15266 0.92345 0.0
H1893 H 0.11385 0.15933 0.94395 0.0
C1894 C 0.07664 0.1619 0.94378 0.0
C1895 C 0.09622 0.15162 0.92368 0.0
C1896 C 0.1031 0.14193 0.90189 0.0
C1897 C 0.08382 0.17013 0.96453 0.0
C1898 C 0.09741 0.16932 0.96421 0.0
C1899 C 0.10343 0.15995 0.94413 0.0
C1900 C 0.10557 0.17837 0.9837 0.0
C1901 C 0.07675 0.17945 0.98704 0.0
C1902 C 0.10469 0.19169 0.9781 0.0
C1903 C 0.11252 0.20024 0.99586 0.0
C1904 C 0.12152 0.19563 0.01934 0.0
C1905 C 0.12249 0.18227 0.02471 0.0
C1906 C 0.11458 0.17371 0.00703 0.0
H1907 H 0.06676 0.17616 0.99213 0.0
H1908 H 0.0818 0.18071 0.01138 0.0
H1909 H 0.07616 0.18897 0.97446 0.0
H1910 H 0.09809 0.19549 0.95952 0.0
H1911 H 0.11177 0.21045 0.99051 0.0
H1912 H 0.61092 0.29172 0.6551 0.0
H1913 H 0.59788 0.30728 0.68574 0.0
H1914 H 0.61371 0.33813 0.62605 0.0
H1915 H 0.62638 0.3225 0.59397 0.0
H1916 H 0.60601 0.3274 0.72419 0.0
H1917 H 0.57541 0.34518 0.61953 0.0
H1918 H 0.58516 0.33085 0.61598 0.0
H1919 H 0.5924 0.34653 0.61229 0.0
C1920 C 0.61143 0.30177 0.64783 0.0
C1921 C 0.6196 0.30582 0.62169 0.0
C1922 C 0.60406 0.31068 0.66569 0.0
C1923 C 0.6047 0.32385 0.65795 0.0
C1924 C 0.61288 0.32798 0.63203 0.0
H1925 H 0.56377 0.38855 0.75019 0.0
H1926 H 0.57971 0.37563 0.71974 0.0
C1927 C 0.62022 0.31904 0.61395 0.0
C1928 C 0.59701 0.33318 0.67782 0.0
H1929 H 0.57288 0.35542 0.67214 0.0
C1930 C 0.59879 0.33355 0.71278 0.0
C1931 C 0.58762 0.34122 0.66289 0.0
C1932 C 0.58492 0.34089 0.62566 0.0
C1933 C 0.59133 0.34163 0.73325 0.0
C1934 C 0.5818 0.34948 0.71838 0.0
C1935 C 0.58023 0.34938 0.68338 0.0
C1936 C 0.57288 0.35735 0.73882 0.0
C1937 C 0.59366 0.34172 0.77064 0.0
C1938 C 0.56383 0.35133 0.75972 0.0
C1939 C 0.55472 0.35866 0.77707 0.0
C1940 C 0.55452 0.37215 0.77386 0.0
C1941 C 0.5638 0.37818 0.75352 0.0
C1942 C 0.57285 0.37083 0.73595 0.0
H1943 H 0.60321 0.33761 0.77713 0.0
H1944 H 0.59305 0.35167 0.78079 0.0
H1945 H 0.58617 0.33581 0.78318 0.0
H1946 H 0.5636 0.34092 0.76192 0.0
H1947 H 0.54772 0.35376 0.79265 0.0
H1948 H 0.39479 0.79975 0.53735 0.0
H1949 H 0.40789 0.81417 0.50276 0.0
H1950 H 0.37378 0.82777 0.45251 0.0
H1951 H 0.36061 0.81315 0.48615 0.0
H1952 H 0.40768 0.81372 0.42771 0.0
H1953 H 0.39408 0.86107 0.48319 0.0
H1954 H 0.39235 0.84607 0.50585 0.0
H1955 H 0.38121 0.85011 0.47313 0.0
C1956 C 0.39005 0.80581 0.51897 0.0
C1957 C 0.37662 0.80528 0.51462 0.0
C1958 C 0.39755 0.81408 0.49936 0.0
C1959 C 0.39177 0.82207 0.47532 0.0
C1960 C 0.37838 0.82179 0.47131 0.0
H1961 H 0.42407 0.87885 0.3369 0.0
H1962 H 0.40935 0.86477 0.36811 0.0
C1963 C 0.37087 0.81347 0.49074 0.0
C1964 C 0.39981 0.83022 0.45321 0.0
H1965 H 0.40767 0.86145 0.43576 0.0
C1966 C 0.40771 0.82416 0.42943 0.0
C1967 C 0.39967 0.84381 0.45534 0.0
C1968 C 0.39145 0.85072 0.48084 0.0
C1969 C 0.41549 0.83135 0.40757 0.0
C1970 C 0.41562 0.84496 0.41021 0.0
C1971 C 0.40756 0.85102 0.43374 0.0
C1972 C 0.42443 0.85306 0.38986 0.0
C1973 C 0.42333 0.82429 0.3815 0.0
C1974 C 0.43778 0.85117 0.39181 0.0
C1975 C 0.44616 0.85911 0.37391 0.0
C1976 C 0.4414 0.86924 0.35397 0.0
C1977 C 0.42802 0.87113 0.35202 0.0
C1978 C 0.41961 0.8631 0.36981 0.0
H1979 H 0.41912 0.81471 0.37563 0.0
H1980 H 0.42406 0.82993 0.35788 0.0
H1981 H 0.43319 0.82268 0.39136 0.0
H1982 H 0.44174 0.84374 0.40787 0.0
H1983 H 0.45642 0.8576 0.37667 0.0
H1984 H 0.01995 0.53072 0.18479 0.0
H1985 H 0.01951 0.5155 0.13784 0.0
H1986 H 0.98081 0.52737 0.11395 0.0
H1987 H 0.98116 0.54259 0.16087 0.0
H1988 H 0.0028 0.49502 0.12725 0.0
H1989 H 0.99957 0.5308 0.02394 0.0
H1990 H 0.00401 0.53518 0.06626 0.0
H1991 H 0.9874 0.5326 0.0556 0.0
C1992 C 0.01133 0.53005 0.1696 0.0
C1993 C 0.0006 0.53788 0.1764 0.0
C1994 C 0.01112 0.52141 0.14274 0.0
C1995 C 0.00021 0.52048 0.12217 0.0
C1996 C 0.98943 0.52817 0.12907 0.0
H1997 H 0.98057 0.45776 0.98808 0.0
H1998 H 0.98144 0.47364 0.03344 0.0
C1999 C 0.98964 0.53685 0.15588 0.0
C2000 C -3e-05 0.51117 0.09408 0.0
H2001 H 0.99647 0.5088 0.00909 0.0
C2002 C 0.00146 0.49802 0.10139 0.0
C2003 C 0.99838 0.51516 0.06038 0.0
C2004 C 0.99737 0.52921 0.05093 0.0
C2005 C 0.00119 0.48871 0.0759 0.0
C2006 C 0.99915 0.49266 0.04234 0.0
C2007 C 0.99789 0.50582 0.03493 0.0
C2008 C 0.99843 0.48327 0.0145 0.0
C2009 C 0.00326 0.47474 0.08505 0.0
C2010 C 0.00747 0.48368 0.98839 0.0
C2011 C 0.00698 0.47465 0.96242 0.0
C2012 C 0.9974 0.46508 0.96211 0.0
C2013 C 0.9882 0.46487 0.98798 0.0
C2014 C 0.98868 0.47392 0.01388 0.0
H2015 H 0.00791 0.47371 0.11003 0.0
H2016 H 0.99382 0.46976 0.08605 0.0
H2017 H 0.00931 0.4698 0.066 0.0
H2018 H 0.01504 0.49086 0.98843 0.0
H2019 H 0.01427 0.47498 0.94301 0.0
H2020 H 0.79309 0.7703 0.23617 0.0
H2021 H 0.77755 0.77017 0.28226 0.0
H2022 H 0.7617 0.73444 0.24538 0.0
H2023 H 0.77753 0.73421 0.20003 0.0
H2024 H 0.75094 0.77016 0.27979 0.0
H2025 H 0.76915 0.72621 0.34354 0.0
H2026 H 0.7782 0.73451 0.31146 0.0
H2027 H 0.76529 0.72382 0.30004 0.0
C2028 C 0.7864 0.76233 0.2381 0.0
C2029 C 0.78661 0.75221 0.21459 0.0
C2030 C 0.77748 0.76232 0.26429 0.0
C2031 C 0.76864 0.75219 0.2675 0.0
C2032 C 0.76862 0.74222 0.2437 0.0
H2033 H 0.70554 0.73548 0.40189 0.0
H2034 H 0.7213 0.73586 0.35618 0.0
C2035 C 0.77756 0.74219 0.21757 0.0
C2036 C 0.75931 0.75215 0.2955 0.0
H2037 H 0.74929 0.73468 0.36326 0.0
C2038 C 0.75062 0.76245 0.29816 0.0
C2039 C 0.75895 0.74207 0.31942 0.0
C2040 C 0.76847 0.73108 0.31876 0.0
C2041 C 0.74138 0.76281 0.32381 0.0
C2042 C 0.74096 0.75268 0.34747 0.0
C2043 C 0.74966 0.7424 0.34491 0.0
C2044 C 0.73149 0.75254 0.37506 0.0
C2045 C 0.73198 0.77389 0.32508 0.0
C2046 C 0.73216 0.76171 0.40086 0.0
C2047 C 0.72319 0.76152 0.42695 0.0
C2048 C 0.71342 0.75216 0.42756 0.0
C2049 C 0.71287 0.74291 0.40179 0.0
C2050 C 0.72188 0.74307 0.37582 0.0
H2051 H 0.73191 0.7795 0.30131 0.0
H2052 H 0.72209 0.77033 0.33015 0.0
H2053 H 0.73472 0.7805 0.3458 0.0
H2054 H 0.73963 0.76899 0.40083 0.0
H2055 H 0.72379 0.76881 0.44638 0.0
H2056 H 0.51484 0.5395 0.48214 0.0
H2057 H 0.51391 0.5241 0.52851 0.0
H2058 H 0.47441 0.51552 0.50412 0.0
H2059 H 0.47539 0.53053 0.45683 0.0
H2060 H 0.49774 0.52409 0.58403 0.0
H2061 H 0.49102 0.47986 0.50727 0.0
H2062 H 0.49608 0.49501 0.48932 0.0
H2063 H 0.47944 0.49234 0.49941 0.0
C2064 C 0.50601 0.53421 0.48633 0.0
C2065 C 0.49522 0.53616 0.46562 0.0
C2066 C 0.50547 0.5255 0.51299 0.0
C2067 C 0.49416 0.51856 0.51939 0.0
C2068 C 0.4833 0.52062 0.49918 0.0
H2069 H 0.47423 0.46189 0.67139 0.0
H2070 H 0.47376 0.47769 0.62577 0.0
C2071 C 0.48384 0.52931 0.47242 0.0
C2072 C 0.49372 0.50929 0.54756 0.0
H2073 H 0.48946 0.47747 0.56628 0.0
C2074 C 0.49595 0.51389 0.58019 0.0
C2075 C 0.49137 0.49601 0.54236 0.0
C2076 C 0.48945 0.49046 0.50769 0.0
C2077 C 0.49581 0.50555 0.60788 0.0
C2078 C 0.49353 0.49227 0.60264 0.0
C2079 C 0.49118 0.48768 0.5701 0.0
C2080 C 0.49381 0.48291 0.63056 0.0
C2081 C 0.49796 0.511 0.64256 0.0
C2082 C 0.50529 0.48057 0.648 0.0
C2083 C 0.50563 0.47149 0.67384 0.0
C2084 C 0.4945 0.46457 0.68261 0.0
C2085 C 0.48301 0.46694 0.66498 0.0
C2086 C 0.48269 0.47601 0.63907 0.0
H2087 H 0.49651 0.52162 0.64318 0.0
H2088 H 0.49137 0.50646 0.66103 0.0
H2089 H 0.50798 0.50896 0.65051 0.0
H2090 H 0.51403 0.48564 0.64128 0.0
H2091 H 0.51468 0.46972 0.68652 0.0
H2092 H 0.78972 0.22721 0.91112 0.0
H2093 H 0.77471 0.22761 0.86375 0.0
H2094 H 0.76336 0.26628 0.89029 0.0
H2095 H 0.7786 0.26612 0.93706 0.0
H2096 H 0.74787 0.23166 0.86445 0.0
H2097 H 0.77329 0.26927 0.79065 0.0
H2098 H 0.78076 0.26085 0.8252 0.0
H2099 H 0.7697 0.27381 0.83315 0.0
C2100 C 0.78411 0.23584 0.90667 0.0
C2101 C 0.7854 0.24667 0.92768 0.0
C2102 C 0.7755 0.23602 0.87976 0.0
C2103 C 0.76811 0.24705 0.87328 0.0
C2104 C 0.76916 0.25777 0.89456 0.0
H2105 H 0.70999 0.26867 0.72962 0.0
H2106 H 0.72565 0.26749 0.77537 0.0
C2107 C 0.77776 0.2576 0.92149 0.0
C2108 C 0.75915 0.24729 0.84447 0.0
H2109 H 0.75256 0.26311 0.77135 0.0
C2110 C 0.74892 0.23847 0.84395 0.0
C2111 C 0.7606 0.25619 0.81785 0.0
C2112 C 0.77174 0.2655 0.81645 0.0
C2113 C 0.73988 0.23853 0.81783 0.0
C2114 C 0.74126 0.24751 0.79137 0.0
C2115 C 0.75155 0.25626 0.79175 0.0
C2116 C 0.73197 0.24817 0.76336 0.0
C2117 C 0.72873 0.22923 0.81918 0.0
C2118 C 0.73052 0.23775 0.74121 0.0
C2119 C 0.72154 0.23836 0.71516 0.0
C2120 C 0.7139 0.24942 0.71082 0.0
C2121 C 0.71559 0.25994 0.73267 0.0
C2122 C 0.72457 0.25932 0.75866 0.0
H2123 H 0.72745 0.22506 0.84467 0.0
H2124 H 0.71964 0.23405 0.81165 0.0
H2125 H 0.73052 0.22118 0.80141 0.0
H2126 H 0.73631 0.22914 0.74415 0.0
H2127 H 0.72041 0.23009 0.69884 0.0
H2128 H 0.22143 0.23412 0.9345 0.0
H2129 H 0.23687 0.23534 0.88828 0.0
H2130 H 0.22291 0.27324 0.86283 0.0
H2131 H 0.20758 0.27223 0.90938 0.0
H2132 H 0.22516 0.25545 0.80741 0.0
H2133 H 0.26959 0.25846 0.88466 0.0
H2134 H 0.25889 0.24548 0.89539 0.0
H2135 H 0.2538 0.26187 0.90142 0.0
C2136 C 0.22176 0.24279 0.91938 0.0
C2137 C 0.2133 0.2531 0.92568 0.0
C2138 C 0.23056 0.24345 0.89296 0.0
C2139 C 0.23108 0.25442 0.87246 0.0
C2140 C 0.22263 0.26469 0.87847 0.0
H2141 H 0.29086 0.273 0.72811 0.0
H2142 H 0.27491 0.27369 0.77323 0.0
C2143 C 0.21385 0.26407 0.90495 0.0
C2144 C 0.2403 0.25507 0.8443 0.0
H2145 H 0.27236 0.25527 0.82608 0.0
C2146 C 0.23548 0.25547 0.81142 0.0
C2147 C 0.25373 0.25523 0.84978 0.0
C2148 C 0.25936 0.25535 0.88471 0.0
C2149 C 0.2438 0.25572 0.78369 0.0
C2150 C 0.25723 0.25547 0.78916 0.0
C2151 C 0.26204 0.25537 0.82206 0.0
C2152 C 0.26649 0.25521 0.76106 0.0
C2153 C 0.23818 0.25635 0.7488 0.0
C2154 C 0.26703 0.24454 0.73946 0.0
C2155 C 0.27619 0.24406 0.71385 0.0
C2156 C 0.285 0.25422 0.7095 0.0
C2157 C 0.28433 0.26494 0.73108 0.0
C2158 C 0.27519 0.26539 0.75673 0.0
H2159 H 0.22797 0.25953 0.74914 0.0
H2160 H 0.24378 0.26305 0.7327 0.0
H2161 H 0.23857 0.24663 0.73722 0.0
H2162 H 0.26054 0.23648 0.74285 0.0
H2163 H 0.27659 0.23558 0.698 0.0
H2164 H 0.26987 0.74001 0.46069 0.0
H2165 H 0.25398 0.73916 0.41537 0.0
H2166 H 0.28297 0.75098 0.34432 0.0
H2167 H 0.29887 0.75208 0.38947 0.0
H2168 H 0.2467 0.75986 0.3719 0.0
H2169 H 0.2669 0.7181 0.30224 0.0
H2170 H 0.27112 0.72163 0.34528 0.0
H2171 H 0.27825 0.73066 0.31161 0.0
C2172 C 0.27285 0.7425 0.43545 0.0
C2173 C 0.28563 0.74609 0.42865 0.0
C2174 C 0.26379 0.74193 0.40961 0.0
C2175 C 0.26738 0.74484 0.37654 0.0
C2176 C 0.2801 0.74846 0.36962 0.0
H2177 H 0.22054 0.76577 0.20625 0.0
H2178 H 0.23593 0.7649 0.25274 0.0
C2179 C 0.28916 0.74906 0.39544 0.0
C2180 C 0.25771 0.74455 0.34938 0.0
H2181 H 0.25031 0.72995 0.27507 0.0
C2182 C 0.24743 0.75329 0.35079 0.0
C2183 C 0.25868 0.73587 0.32215 0.0
C2184 C 0.26926 0.72594 0.32022 0.0
C2185 C 0.23821 0.75378 0.32514 0.0
C2186 C 0.23942 0.74539 0.29735 0.0
C2187 C 0.24952 0.73644 0.29633 0.0
C2188 C 0.23029 0.74582 0.26899 0.0
C2189 C 0.2272 0.7632 0.32802 0.0
C2190 C 0.22226 0.73525 0.26244 0.0
C2191 C 0.21351 0.7357 0.23586 0.0
C2192 C 0.21275 0.74667 0.21524 0.0
C2193 C 0.22097 0.75716 0.22158 0.0
C2194 C 0.22967 0.75672 0.24826 0.0
H2195 H 0.22604 0.76682 0.35411 0.0
H2196 H 0.22908 0.77159 0.31144 0.0
H2197 H 0.21803 0.75868 0.31987 0.0
H2198 H 0.22269 0.72672 0.2781 0.0
H2199 H 0.20741 0.72741 0.23127 0.0
H2200 H 0.51152 0.97295 0.4461 0.0
H2201 H 0.51238 0.98841 0.49248 0.0
H2202 H 0.47706 0.97283 0.53234 0.0
H2203 H 0.47621 0.95726 0.48621 0.0
H2204 H 0.49547 0.00719 0.51076 0.0
H2205 H 0.50079 0.97141 0.61323 0.0
H2206 H 0.50273 0.96723 0.56954 0.0
H2207 H 0.4869 0.96864 0.58744 0.0
C2208 C 0.50391 0.97287 0.46467 0.0
C2209 C 0.49383 0.96387 0.46268 0.0
C2210 C 0.50444 0.98166 0.49119 0.0
C2211 C 0.49491 0.98159 0.51614 0.0
C2212 C 0.48469 0.97281 0.51382 0.0
H2213 H 0.47812 0.04317 0.65624 0.0
H2214 H 0.47809 0.02761 0.61009 0.0
C2215 C 0.4842 0.96396 0.48743 0.0
C2216 C 0.49556 0.99089 0.54425 0.0
H2217 H 0.49638 0.99303 0.62973 0.0
C2218 C 0.49573 0.00411 0.53678 0.0
C2219 C 0.49611 0.98682 0.57812 0.0
C2220 C 0.49676 0.97275 0.58763 0.0
C2221 C 0.49618 0.0134 0.56233 0.0
C2222 C 0.49615 0.00933 0.59624 0.0
C2223 C 0.49625 0.99611 0.6037 0.0
C2224 C 0.49608 0.01864 0.62438 0.0
C2225 C 0.49688 0.02746 0.55274 0.0
C2226 C 0.50598 0.01847 0.64831 0.0
C2227 C 0.50596 0.02726 0.67486 0.0
C2228 C 0.49603 0.03637 0.67789 0.0
C2229 C 0.48602 0.03639 0.65417 0.0
C2230 C 0.486 0.02754 0.62777 0.0
H2231 H 0.50052 0.02874 0.52672 0.0
H2232 H 0.4871 0.03172 0.55398 0.0
H2233 H 0.50322 0.0329 0.57016 0.0
H2234 H 0.51382 0.01162 0.64619 0.0
H2235 H 0.51385 0.02709 0.69265 0.0
H2236 H 0.98805 0.04268 0.98691 0.0
H2237 H 0.98905 0.02723 0.03325 0.0
H2238 H 0.02311 0.01022 0.9899 0.0
H2239 H 0.02185 0.0254 0.94284 0.0
H2240 H 0.00723 0.99214 0.01073 0.0
H2241 H 0.01274 0.02812 0.11226 0.0
H2242 H 0.99844 0.03089 0.08815 0.0
H2243 H 0.01398 0.03237 0.06847 0.0
C2244 C 0.99577 0.03567 0.98743 0.0
C2245 C 0.00493 0.03524 0.96154 0.0
C2246 C 0.99638 0.02691 0.01398 0.0
C2247 C 0.00634 0.01778 0.01549 0.0
C2248 C 0.0154 0.01724 0.98936 0.0
H2249 H 0.02261 0.97381 0.19721 0.0
H2250 H 0.02356 0.9889 0.1499 0.0
C2251 C 0.01467 0.02587 0.96251 0.0
C2252 C 0.0071 0.00857 0.04385 0.0
H2253 H 0.00733 0.00669 0.12939 0.0
C2254 C 0.00736 0.99532 0.03668 0.0
C2255 C 0.00752 0.01273 0.07769 0.0
C2256 C 0.0083 0.0268 0.08711 0.0
C2257 C 0.00772 0.98611 0.06242 0.0
C2258 C 0.00736 0.99026 0.09627 0.0
C2259 C 0.00742 0.00351 0.10344 0.0
C2260 C 0.00685 0.98104 0.12466 0.0
C2261 C 0.0087 0.97205 0.05299 0.0
C2262 C 0.99704 0.97177 0.12643 0.0
C2263 C 0.9966 0.96306 0.15311 0.0
C2264 C 0.00579 0.96369 0.1789 0.0
C2265 C 0.01541 0.97318 0.17763 0.0
C2266 C 0.01596 0.98176 0.15064 0.0
H2267 H 0.01308 0.9708 0.02774 0.0
H2268 H 0.01453 0.96658 0.07151 0.0
H2269 H 0.99891 0.9678 0.05215 0.0
H2270 H 0.98966 0.9713 0.10728 0.0
H2271 H 0.98898 0.95595 0.15387 0.0
H2272 H 0.97981 0.46032 0.6715 0.0
H2273 H 0.97932 0.47738 0.62893 0.0
H2274 H 0.02014 0.47302 0.6136 0.0
H2275 H 0.0207 0.45585 0.65579 0.0
H2276 H 0.99444 0.50101 0.63136 0.0
H2277 H 0.00422 0.4716 0.51755 0.0
H2278 H 0.99841 0.46466 0.55628 0.0
H2279 H 0.01504 0.46906 0.55215 0.0
C2280 C 0.98864 0.46283 0.65862 0.0
C2281 C 0.00029 0.4567 0.66689 0.0
C2282 C 0.98836 0.47264 0.63452 0.0
C2283 C 0.99967 0.47637 0.61798 0.0
C2284 C 0.01128 0.47016 0.62582 0.0
H2285 H 0.02077 0.5324 0.46742 0.0
H2286 H 0.02009 0.51548 0.51015 0.0
C2287 C 0.0116 0.46042 0.65006 0.0
C2288 C 0.99946 0.4871 0.59346 0.0
H2289 H 0.00475 0.49429 0.51101 0.0
C2290 C 0.99661 0.49957 0.60499 0.0
C2291 C 0.00234 0.48515 0.55917 0.0
C2292 C 0.00508 0.47189 0.54535 0.0
C2293 C 0.9969 0.51023 0.58322 0.0
C2294 C 0.99983 0.50829 0.54887 0.0
C2295 C 0.00254 0.49578 0.53735 0.0
C2296 C 0.00032 0.51908 0.52441 0.0
C2297 C 0.99447 0.52349 0.59743 0.0
C2298 C 0.98945 0.52678 0.51831 0.0
C2299 C 0.98984 0.53652 0.49399 0.0
C2300 C 0.00106 0.53859 0.475 0.0
C2301 C 0.01196 0.53095 0.48143 0.0
C2302 C 0.01159 0.5213 0.50587 0.0
H2303 H 0.99592 0.52374 0.62507 0.0
H2304 H 0.0009 0.53076 0.5857 0.0
H2305 H 0.98437 0.5263 0.59225 0.0
H2306 H 0.98056 0.52506 0.53174 0.0
H2307 H 0.98124 0.54212 0.48924 0.0
H2308 H 0.79668 0.7668 0.90105 0.0
H2309 H 0.78018 0.76754 0.85716 0.0
H2310 H 0.7657 0.73066 0.88962 0.0
H2311 H 0.7823 0.72965 0.93299 0.0
H2312 H 0.77469 0.74827 0.80414 0.0
H2313 H 0.73414 0.75596 0.89303 0.0
H2314 H 0.75069 0.75902 0.90433 0.0
H2315 H 0.74477 0.74278 0.90262 0.0
C2316 C 0.79011 0.75875 0.89857 0.0
C2317 C 0.79077 0.74821 0.92077 0.0
C2318 C 0.78065 0.75924 0.87362 0.0
C2319 C 0.77162 0.74926 0.87058 0.0
C2320 C 0.77244 0.73857 0.89202 0.0
H2321 H 0.70461 0.73545 0.74553 0.0
H2322 H 0.72144 0.73487 0.78861 0.0
C2323 C 0.78192 0.73804 0.91683 0.0
C2324 C 0.76129 0.75 0.84506 0.0
H2325 H 0.72873 0.75261 0.83603 0.0
C2326 C 0.76464 0.74928 0.81101 0.0
C2327 C 0.74822 0.75124 0.85425 0.0
C2328 C 0.74417 0.7524 0.89052 0.0
C2329 C 0.75519 0.74952 0.7858 0.0
C2330 C 0.74209 0.75086 0.79495 0.0
C2331 C 0.73877 0.7516 0.82906 0.0
C2332 C 0.73168 0.75149 0.76949 0.0
C2333 C 0.75932 0.74799 0.74968 0.0
C2334 C 0.73167 0.76122 0.745 0.0
C2335 C 0.7221 0.76155 0.72039 0.0
C2336 C 0.71225 0.75225 0.72001 0.0
C2337 C 0.71203 0.74278 0.74527 0.0
C2338 C 0.72166 0.74241 0.76978 0.0
H2339 H 0.76898 0.74346 0.74769 0.0
H2340 H 0.75233 0.74204 0.73538 0.0
H2341 H 0.75985 0.75764 0.73772 0.0
H2342 H 0.73909 0.76855 0.74487 0.0
H2343 H 0.7224 0.76911 0.70164 0.0
H2344 H 0.48191 0.5459 0.15282 0.0
H2345 H 0.4809 0.52911 0.1096 0.0
H2346 H 0.51944 0.51714 0.13478 0.0
H2347 H 0.52064 0.53408 0.1774 0.0
H2348 H 0.51495 0.51904 0.06547 0.0
H2349 H 0.47711 0.49024 0.12935 0.0
H2350 H 0.47309 0.50689 0.12244 0.0
H2351 H 0.48603 0.50281 0.15041 0.0
C2352 C 0.49022 0.5398 0.14884 0.0
C2353 C 0.50133 0.54128 0.16864 0.0
C2354 C 0.48958 0.53012 0.12443 0.0
C2355 C 0.50001 0.52174 0.11944 0.0
C2356 C 0.51124 0.52343 0.13845 0.0
H2357 H 0.50275 0.44851 0.01303 0.0
H2358 H 0.50291 0.46565 0.05546 0.0
C2359 C 0.51189 0.53308 0.16288 0.0
C2360 C 0.4993 0.5112 0.09435 0.0
H2361 H 0.48332 0.48339 0.07491 0.0
C2362 C 0.50804 0.51125 0.0675 0.0
C2363 C 0.49039 0.50095 0.09738 0.0
C2364 C 0.48118 0.50009 0.12658 0.0
C2365 C 0.508 0.50141 0.0433 0.0
C2366 C 0.49886 0.49134 0.04582 0.0
C2367 C 0.49024 0.49118 0.07293 0.0
C2368 C 0.49816 0.48089 0.0205 0.0
C2369 C 0.51787 0.50175 0.01554 0.0
C2370 C 0.49512 0.48374 0.98702 0.0
C2371 C 0.49497 0.474 0.96283 0.0
C2372 C 0.49783 0.46117 0.97164 0.0
C2373 C 0.50046 0.45827 0.00545 0.0
C2374 C 0.50061 0.46805 0.02968 0.0
H2375 H 0.52607 0.5082 0.02181 0.0
H2376 H 0.52167 0.49195 0.01031 0.0
H2377 H 0.5133 0.50544 0.99226 0.0
H2378 H 0.4929 0.49354 0.97957 0.0
H2379 H 0.4926 0.47652 0.93717 0.0
H2380 H 0.78318 0.27041 0.21661 0.0
H2381 H 0.76662 0.26953 0.26015 0.0
H2382 H 0.77742 0.23038 0.28313 0.0
H2383 H 0.7939 0.23109 0.23926 0.0
H2384 H 0.74578 0.25169 0.26223 0.0
H2385 H 0.77668 0.24838 0.37583 0.0
H2386 H 0.78273 0.25378 0.33571 0.0
H2387 H 0.78016 0.23691 0.34323 0.0
C2388 C 0.78205 0.2616 0.23091 0.0
C2389 C 0.78986 0.2508 0.22435 0.0
C2390 C 0.77262 0.26114 0.25588 0.0
C2391 C 0.77087 0.24993 0.27502 0.0
C2392 C 0.77877 0.23921 0.26902 0.0
H2393 H 0.7169 0.22914 0.43298 0.0
H2394 H 0.73381 0.22924 0.39021 0.0
C2395 C 0.7882 0.23964 0.24398 0.0
C2396 C 0.76036 0.24931 0.30012 0.0
H2397 H 0.75426 0.24595 0.3839 0.0
C2398 C 0.74762 0.25047 0.28886 0.0
C2399 C 0.7628 0.24764 0.33476 0.0
C2400 C 0.77633 0.2467 0.34829 0.0
C2401 C 0.73722 0.24988 0.31131 0.0
C2402 C 0.73965 0.24837 0.34604 0.0
C2403 C 0.75241 0.24712 0.35726 0.0
C2404 C 0.72913 0.24821 0.37123 0.0
C2405 C 0.72371 0.25063 0.29752 0.0
C2406 C 0.72092 0.25887 0.37486 0.0
C2407 C 0.71124 0.25884 0.39925 0.0
C2408 C 0.70968 0.24819 0.42075 0.0
C2409 C 0.71792 0.23753 0.41702 0.0
C2410 C 0.72757 0.23755 0.39254 0.0
H2411 H 0.72339 0.24807 0.27044 0.0
H2412 H 0.71713 0.24411 0.31142 0.0
H2413 H 0.72009 0.26064 0.30018 0.0
H2414 H 0.72215 0.26733 0.35924 0.0
H2415 H 0.70522 0.26729 0.40187 0.0
H2416 H 0.29315 0.26931 0.40745 0.0
H2417 H 0.27665 0.26975 0.36352 0.0
H2418 H 0.27096 0.22882 0.37496 0.0
H2419 H 0.28761 0.22823 0.41838 0.0
H2420 H 0.27248 0.23743 0.30704 0.0
H2421 H 0.23758 0.2659 0.38249 0.0
H2422 H 0.25337 0.27282 0.3787 0.0
H2423 H 0.2513 0.25791 0.40098 0.0
C2424 C 0.28851 0.26037 0.40031 0.0
C2425 C 0.29164 0.24874 0.41655 0.0
C2426 C 0.27899 0.26067 0.37547 0.0
C2427 C 0.27244 0.24936 0.36643 0.0
C2428 C 0.27583 0.23767 0.3818 0.0
H2429 H 0.20135 0.23963 0.2541 0.0
H2430 H 0.21828 0.23966 0.29692 0.0
C2431 C 0.2853 0.23737 0.4067 0.0
C2432 C 0.262 0.24966 0.34108 0.0
H2433 H 0.23191 0.26158 0.32598 0.0
C2434 C 0.26361 0.24271 0.31114 0.0
C2435 C 0.25038 0.25642 0.34674 0.0
C2436 C 0.24794 0.26361 0.37906 0.0
C2437 C 0.25397 0.24251 0.28645 0.0
C2438 C 0.24247 0.2495 0.29179 0.0
C2439 C 0.24078 0.2563 0.32192 0.0
C2440 C 0.2321 0.24987 0.26628 0.0
C2441 C 0.25607 0.23466 0.25501 0.0
C2442 C 0.2342 0.25584 0.23519 0.0
C2443 C 0.22454 0.25596 0.21082 0.0
C2444 C 0.21255 0.25009 0.21702 0.0
C2445 C 0.21041 0.24434 0.24854 0.0
C2446 C 0.22009 0.24428 0.27298 0.0
H2447 H 0.26408 0.22766 0.25795 0.0
H2448 H 0.2472 0.22932 0.24811 0.0
H2449 H 0.25849 0.24123 0.23394 0.0
H2450 H 0.24333 0.26043 0.22979 0.0
H2451 H 0.22644 0.26074 0.18716 0.0
H2452 H 0.28109 0.76816 0.70927 0.0
H2453 H 0.2645 0.76747 0.75271 0.0
H2454 H 0.28037 0.73193 0.79056 0.0
H2455 H 0.29688 0.73237 0.7467 0.0
H2456 H 0.24629 0.74657 0.7623 0.0
H2457 H 0.27671 0.75563 0.87474 0.0
H2458 H 0.28192 0.75957 0.8327 0.0
H2459 H 0.28217 0.74315 0.84684 0.0
C2460 C 0.28106 0.76017 0.72675 0.0
C2461 C 0.2903 0.75029 0.72436 0.0
C2462 C 0.2716 0.75983 0.75166 0.0
C2463 C 0.27126 0.7497 0.77492 0.0
C2464 C 0.28059 0.73994 0.7731 0.0
H2465 H 0.22115 0.73128 0.94245 0.0
H2466 H 0.23784 0.73147 0.89916 0.0
C2467 C 0.29004 0.74023 0.74808 0.0
C2468 C 0.26083 0.74911 0.80021 0.0
H2469 H 0.25486 0.75053 0.88439 0.0
C2470 C 0.24813 0.74747 0.78901 0.0
C2471 C 0.2633 0.75022 0.83497 0.0
C2472 C 0.27674 0.75234 0.84819 0.0
C2473 C 0.23783 0.74672 0.81173 0.0
C2474 C 0.24027 0.74797 0.84655 0.0
C2475 C 0.253 0.74959 0.85771 0.0
C2476 C 0.2298 0.74762 0.8719 0.0
C2477 C 0.22447 0.7443 0.79827 0.0
C2478 C 0.21973 0.75664 0.871 0.0
C2479 C 0.21014 0.75652 0.89565 0.0
C2480 C 0.21055 0.74748 0.92194 0.0
C2481 C 0.22063 0.73844 0.92269 0.0
C2482 C 0.23015 0.73852 0.89794 0.0
H2483 H 0.22475 0.73993 0.77281 0.0
H2484 H 0.21895 0.73783 0.81516 0.0
H2485 H 0.21926 0.7536 0.79638 0.0
H2486 H 0.21942 0.76396 0.85162 0.0
H2487 H 0.20261 0.76374 0.8947 0.0
H2488 H 0.50589 0.94755 0.12962 0.0
H2489 H 0.50641 0.96456 0.08682 0.0
H2490 H 0.49905 0.99313 0.16315 0.0
H2491 H 0.49871 0.97626 0.20592 0.0
H2492 H 0.48833 0.98179 0.06704 0.0
H2493 H 0.53051 0.00791 0.11792 0.0
H2494 H 0.52603 0.99201 0.13213 0.0
H2495 H 0.51792 0.00603 0.14831 0.0
C2496 C 0.50438 0.95746 0.13721 0.0
C2497 C 0.50243 0.96059 0.17118 0.0
C2498 C 0.50471 0.96717 0.11278 0.0
C2499 C 0.50306 0.98015 0.12188 0.0
C2500 C 0.50075 0.98323 0.15565 0.0
H2501 H 0.48299 0.0429 0.98656 0.0
H2502 H 0.48307 0.02605 0.0294 0.0
C2503 C 0.50053 0.97357 0.18007 0.0
C2504 C 0.50351 0.99047 0.09606 0.0
H2505 H 0.51831 0.01885 0.07599 0.0
C2506 C 0.49493 0.98986 0.06888 0.0
C2507 C 0.51226 0.00091 0.0982 0.0
C2508 C 0.52229 0.00171 0.12552 0.0
C2509 C 0.49468 0.99952 0.04415 0.0
C2510 C 0.50303 0.01025 0.04714 0.0
C2511 C 0.51178 0.01072 0.07396 0.0
C2512 C 0.50307 0.02093 0.02229 0.0
C2513 C 0.48565 0.99798 0.01475 0.0
C2514 C 0.51443 0.02408 0.00513 0.0
C2515 C 0.5145 0.03392 0.98114 0.0
C2516 C 0.50319 0.04082 0.97373 0.0
C2517 C 0.4919 0.03787 0.9917 0.0
C2518 C 0.49187 0.02809 0.01587 0.0
H2519 H 0.48276 0.98776 0.01116 0.0
H2520 H 0.4768 0.00368 0.01945 0.0
H2521 H 0.49012 0.00151 0.99115 0.0
H2522 H 0.52323 0.0188 0.00993 0.0
H2523 H 0.52343 0.03608 0.96831 0.0
H2524 H 0.97895 0.04097 0.65702 0.0
H2525 H 0.9799 0.02341 0.61614 0.0
H2526 H 0.02133 0.02367 0.6216 0.0
H2527 H 0.02046 0.04094 0.66338 0.0
H2528 H 0.99171 0.02193 0.55354 0.0
H2529 H 0.0125 0.98605 0.64175 0.0
H2530 H 0.00572 0.00113 0.65577 0.0
H2531 H 0.02158 0.0007 0.63782 0.0
C2532 C 0.98827 0.03726 0.64966 0.0
C2533 C 0.99962 0.0423 0.66372 0.0
C2534 C 0.9888 0.02727 0.62616 0.0
C2535 C 0.00067 0.02206 0.61632 0.0
C2536 C 0.01205 0.02736 0.62936 0.0
H2537 H 0.02061 0.95989 0.4784 0.0
H2538 H 0.02115 0.97756 0.51917 0.0
C2539 C 0.01153 0.03736 0.65291 0.0
C2540 C 0.00109 0.01106 0.59253 0.0
H2541 H 0.01025 0.97954 0.58507 0.0
C2542 C 0.99574 0.01266 0.56044 0.0
C2543 C 0.00637 0.99897 0.6016 0.0
C2544 C 0.01177 0.99652 0.63619 0.0
C2545 C 0.99562 0.00253 0.53706 0.0
C2546 C 0.0008 0.99041 0.54623 0.0
C2547 C 0.00628 0.98884 0.57817 0.0
C2548 C 0.00046 0.97923 0.52307 0.0
C2549 C 0.99011 0.00492 0.50257 0.0
C2550 C 0.98866 0.97407 0.51257 0.0
C2551 C 0.98831 0.96392 0.48951 0.0
C2552 C 0.99977 0.95869 0.47655 0.0
C2553 C 0.0116 0.96359 0.48809 0.0
C2554 C 0.01193 0.97375 0.51122 0.0
H2555 H 0.98951 0.01538 0.49675 0.0
H2556 H 0.99601 0.00012 0.48295 0.0
H2557 H 0.98024 0.00086 0.50135 0.0
H2558 H 0.97969 0.97797 0.52203 0.0
H2559 H 0.97904 0.96021 0.48165 0.0
loop_
_geom_bond_atom_site_label_1
_geom_bond_atom_site_label_2
_geom_bond_distance
_geom_bond_site_symmetry_2
_ccdc_geom_bond_type
Li0 N17 1.990 . S
Li0 O60 1.919 1_655 S
Li0 O61 1.992 . S
Li0 O62 1.961 . S
Li1 N25 1.990 . S
Li1 O60 2.005 . S
Li1 O61 1.933 1_455 S
Li1 O63 1.961 . S
Li2 N47 1.992 . S
Li2 O60 1.958 1_655 S
Li2 O62 1.983 . S
Li2 O63 1.941 1_655 S
Li3 N53 1.994 . S
Li3 O61 1.958 1_455 S
Li3 O62 1.926 1_455 S
Li3 O63 1.998 . S
C4 C6 1.348 . S
C4 C7 1.356 1_455 S
C4 O60 1.324 . S
N5 C8 1.314 1_655 S
N5 C9 1.279 . S
C6 C4 1.348 . S
C6 C8 1.353 . S
C6 H64 0.929 . S
C7 C4 1.356 1_655 S
C7 C9 1.358 . S
C7 H65 0.930 . S
C8 N5 1.314 1_455 S
C8 C6 1.353 . S
C8 H66 0.930 . S
C9 N5 1.279 . S
C9 C7 1.358 . S
C9 H67 0.930 . S
C10 C13 1.348 1_455 S
C10 C14 1.356 . S
C10 O61 1.324 1_455 S
C11 N12 1.279 . S
C11 C14 1.358 . S
C11 H68 0.930 . S
N12 C11 1.279 . S
N12 C15 1.314 1_455 S
C13 C10 1.348 1_655 S
C13 C15 1.353 . S
C13 H69 0.929 . S
C14 C10 1.356 . S
C14 C11 1.358 . S
C14 H70 0.930 . S
C15 N12 1.314 1_655 S
C15 C13 1.353 . S
C15 H71 0.930 . S
C16 N17 1.314 . S
C16 C21 1.353 . S
C16 H22 0.930 . S
N17 Li0 1.990 . S
N17 C16 1.314 . S
N17 C19 1.279 . S
C18 C19 1.358 . S
C18 C20 1.356 . S
C18 H72 0.930 . S
C19 N17 1.279 . S
C19 C18 1.358 . S
C19 H23 0.930 . S
C20 C18 1.356 . S
C20 C21 1.348 . S
C21 C16 1.353 . S
C21 C20 1.348 . S
C21 H73 0.929 . S
H22 C16 0.930 . S
H23 C19 0.930 . S
C24 N25 1.314 . S
C24 C26 1.353 . S
C24 H30 0.930 . S
N25 Li1 1.990 . S
N25 C24 1.314 . S
N25 C28 1.279 . S
C26 C24 1.353 . S
C26 C29 1.348 . S
C26 H74 0.929 . S
C27 C28 1.358 . S
C27 C29 1.356 . S
C27 H75 0.930 . S
C28 N25 1.279 . S
C28 C27 1.358 . S
C28 H31 0.930 . S
C29 C26 1.348 . S
C29 C27 1.356 . S
H30 C24 0.930 . S
H31 C28 0.930 . S
C32 C34 1.348 . S
C32 C35 1.356 . S
C32 O62 1.325 . S
N33 C36 1.314 . S
N33 C37 1.279 . S
C34 C32 1.348 . S
C34 C36 1.353 . S
C34 H76 0.929 . S
C35 C32 1.356 . S
C35 C37 1.358 . S
C35 H77 0.930 . S
C36 N33 1.314 . S
C36 C34 1.353 . S
C36 H78 0.930 . S
C37 N33 1.279 . S
C37 C35 1.358 . S
C37 H79 0.930 . S
C38 C39 1.348 . S
C38 C40 1.356 . S
C38 O63 1.325 . S
C39 C38 1.348 . S
C39 C41 1.353 . S
C39 H80 0.929 . S
C40 C38 1.356 . S
C40 C42 1.358 . S
C40 H81 0.930 . S
C41 C39 1.353 . S
C41 N43 1.314 . S
C41 H82 0.930 . S
C42 C40 1.358 . S
C42 N43 1.279 . S
C42 H83 0.930 . S
N43 C41 1.314 . S
N43 C42 1.279 . S
C44 C46 1.353 . S
C44 N47 1.314 1_455 S
C44 H50 0.930 . S
C45 N47 1.279 . S
C45 C48 1.358 . S
C45 H51 0.930 . S
C46 C44 1.353 . S
C46 C49 1.348 . S
C46 H84 0.929 . S
N47 Li2 1.992 . S
N47 C44 1.314 1_655 S
N47 C45 1.279 . S
C48 C45 1.358 . S
C48 C49 1.356 1_655 S
C48 H85 0.930 . S
C49 C46 1.348 . S
C49 C48 1.356 1_455 S
H50 C44 0.930 . S
H51 C45 0.930 . S
C52 N53 1.314 1_655 S
C52 C54 1.353 . S
C52 H58 0.930 . S
N53 Li3 1.994 . S
N53 C52 1.314 1_455 S
N53 C56 1.279 . S
C54 C52 1.353 . S
C54 C57 1.348 1_655 S
C54 H86 0.929 . S
C55 C56 1.358 . S
C55 C57 1.356 . S
C55 H87 0.930 . S
C56 N53 1.279 . S
C56 C55 1.358 . S
C56 H59 0.930 . S
C57 C54 1.348 1_455 S
C57 C55 1.356 . S
H58 C52 0.930 . S
H59 C56 0.930 . S
O60 Li0 1.919 1_455 S
O60 Li1 2.005 . S
O60 Li2 1.958 1_455 S
O60 C4 1.324 . S
O61 Li0 1.992 . S
O61 Li1 1.933 1_655 S
O61 Li3 1.958 1_655 S
O61 C10 1.324 1_655 S
O62 Li0 1.961 . S
O62 Li2 1.983 . S
O62 Li3 1.926 1_655 S
O62 C32 1.325 . S
O63 Li1 1.961 . S
O63 Li2 1.941 1_455 S
O63 Li3 1.998 . S
O63 C38 1.325 . S
H64 C6 0.929 . S
H65 C7 0.930 . S
H66 C8 0.930 . S
H67 C9 0.930 . S
H68 C11 0.930 . S
H69 C13 0.929 . S
H70 C14 0.930 . S
H71 C15 0.930 . S
H72 C18 0.930 . S
H73 C21 0.929 . S
H74 C26 0.929 . S
H75 C27 0.930 . S
H76 C34 0.929 . S
H77 C35 0.930 . S
H78 C36 0.930 . S
H79 C37 0.930 . S
H80 C39 0.929 . S
H81 C40 0.930 . S
H82 C41 0.930 . S
H83 C42 0.930 . S
H84 C46 0.929 . S
H85 C48 0.930 . S
H86 C54 0.929 . S
H87 C55 0.930 . S
Li88 N105 1.990 . S
Li88 O148 1.956 . S
Li88 O149 1.970 . S
Li88 O150 1.961 . S
Li89 N113 1.990 . S
Li89 O148 1.970 . S
Li89 O149 1.956 . S
Li89 O151 1.961 . S
Li90 N135 1.990 . S
Li90 O148 1.961 . S
Li90 O150 1.956 . S
Li90 O151 1.970 . S
Li91 N141 1.990 . S
Li91 O149 1.961 . S
Li91 O150 1.970 . S
Li91 O151 1.956 . S
C92 C94 1.348 . S
C92 C95 1.356 . S
C92 O148 1.325 . S
N93 C96 1.314 . S
N93 C97 1.279 . S
C94 C92 1.348 . S
C94 C96 1.353 . S
C94 H152 0.929 . S
C95 C92 1.356 . S
C95 C97 1.358 . S
C95 H153 0.930 . S
C96 N93 1.314 . S
C96 C94 1.353 . S
C96 H154 0.930 . S
C97 N93 1.279 . S
C97 C95 1.358 . S
C97 H155 0.930 . S
C98 C101 1.348 . S
C98 C102 1.356 . S
C98 O149 1.325 . S
C99 N100 1.279 . S
C99 C102 1.358 . S
C99 H156 0.930 . S
N100 C99 1.279 . S
N100 C103 1.314 . S
C101 C98 1.348 . S
C101 C103 1.353 . S
C101 H157 0.929 . S
C102 C98 1.356 . S
C102 C99 1.358 . S
C102 H158 0.930 . S
C103 N100 1.314 . S
C103 C101 1.353 . S
C103 H159 0.930 . S
C104 N105 1.314 . S
C104 C109 1.353 . S
C104 H110 0.930 . S
N105 Li88 1.990 . S
N105 C104 1.314 . S
N105 C107 1.279 . S
C106 C107 1.358 . S
C106 C108 1.356 . S
C106 H160 0.930 . S
C107 N105 1.279 . S
C107 C106 1.358 . S
C107 H111 0.930 . S
C108 C106 1.356 . S
C108 C109 1.348 . S
C109 C104 1.353 . S
C109 C108 1.348 . S
C109 H161 0.929 . S
H110 C104 0.930 . S
H111 C107 0.930 . S
C112 N113 1.314 . S
C112 C114 1.353 . S
C112 H118 0.930 . S
N113 Li89 1.990 . S
N113 C112 1.314 . S
N113 C116 1.279 . S
C114 C112 1.353 . S
C114 C117 1.348 . S
C114 H162 0.929 . S
C115 C116 1.358 . S
C115 C117 1.356 . S
C115 H163 0.930 . S
C116 N113 1.279 . S
C116 C115 1.358 . S
C116 H119 0.930 . S
C117 C114 1.348 . S
C117 C115 1.356 . S
H118 C112 0.930 . S
H119 C116 0.930 . S
C120 C122 1.348 . S
C120 C123 1.356 . S
C120 O150 1.325 . S
N121 C124 1.314 . S
N121 C125 1.279 . S
C122 C120 1.348 . S
C122 C124 1.353 . S
C122 H164 0.929 . S
C123 C120 1.356 . S
C123 C125 1.358 . S
C123 H165 0.930 . S
C124 N121 1.314 . S
C124 C122 1.353 . S
C124 H166 0.930 . S
C125 N121 1.279 . S
C125 C123 1.358 . S
C125 H167 0.930 . S
C126 C127 1.348 . S
C126 C128 1.356 . S
C126 O151 1.325 . S
C127 C126 1.348 . S
C127 C129 1.353 . S
C127 H168 0.929 . S
C128 C126 1.356 . S
C128 C130 1.358 . S
C128 H169 0.930 . S
C129 C127 1.353 . S
C129 N131 1.314 . S
C129 H170 0.930 . S
C130 C128 1.358 . S
C130 N131 1.279 . S
C130 H171 0.930 . S
N131 C129 1.314 . S
N131 C130 1.279 . S
C132 C134 1.353 . S
C132 N135 1.314 . S
C132 H138 0.930 . S
C133 N135 1.279 . S
C133 C136 1.358 . S
C133 H139 0.930 . S
C134 C132 1.353 . S
C134 C137 1.348 . S
C134 H172 0.929 . S
N135 Li90 1.990 . S
N135 C132 1.314 . S
N135 C133 1.279 . S
C136 C133 1.358 . S
C136 C137 1.356 . S
C136 H173 0.930 . S
C137 C134 1.348 . S
C137 C136 1.356 . S
H138 C132 0.930 . S
H139 C133 0.930 . S
C140 N141 1.314 . S
C140 C142 1.353 . S
C140 H146 0.930 . S
N141 Li91 1.990 . S
N141 C140 1.314 . S
N141 C144 1.279 . S
C142 C140 1.353 . S
C142 C145 1.348 . S
C142 H174 0.929 . S
C143 C144 1.358 . S
C143 C145 1.356 . S
C143 H175 0.930 . S
C144 N141 1.279 . S
C144 C143 1.358 . S
C144 H147 0.930 . S
C145 C142 1.348 . S
C145 C143 1.356 . S
H146 C140 0.930 . S
H147 C144 0.930 . S
O148 Li88 1.956 . S
O148 Li89 1.970 . S
O148 Li90 1.961 . S
O148 C92 1.325 . S
O149 Li88 1.970 . S
O149 Li89 1.956 . S
O149 Li91 1.961 . S
O149 C98 1.325 . S
O150 Li88 1.961 . S
O150 Li90 1.956 . S
O150 Li91 1.970 . S
O150 C120 1.325 . S
O151 Li89 1.961 . S
O151 Li90 1.970 . S
O151 Li91 1.956 . S
O151 C126 1.325 . S
H152 C94 0.929 . S
H153 C95 0.930 . S
H154 C96 0.930 . S
H155 C97 0.930 . S
H156 C99 0.930 . S
H157 C101 0.929 . S
H158 C102 0.930 . S
H159 C103 0.930 . S
H160 C106 0.930 . S
H161 C109 0.929 . S
H162 C114 0.929 . S
H163 C115 0.930 . S
H164 C122 0.929 . S
H165 C123 0.930 . S
H166 C124 0.930 . S
H167 C125 0.930 . S
H168 C127 0.929 . S
H169 C128 0.930 . S
H170 C129 0.930 . S
H171 C130 0.930 . S
H172 C134 0.929 . S
H173 C136 0.930 . S
H174 C142 0.929 . S
H175 C143 0.930 . S
Li176 N193 1.990 . S
Li176 O236 1.956 . S
Li176 O237 1.970 . S
Li176 O238 1.961 . S
Li177 N201 1.990 . S
Li177 O236 1.970 . S
Li177 O237 1.956 . S
Li177 O239 1.961 . S
Li178 N223 1.990 . S
Li178 O236 1.961 . S
Li178 O238 1.956 . S
Li178 O239 1.970 . S
Li179 N229 1.990 . S
Li179 O237 1.961 . S
Li179 O238 1.970 . S
Li179 O239 1.956 . S
C180 C182 1.348 . S
C180 C183 1.356 . S
C180 O236 1.325 . S
N181 C184 1.314 . S
N181 C185 1.279 . S
C182 C180 1.348 . S
C182 C184 1.353 . S
C182 H240 0.929 . S
C183 C180 1.356 . S
C183 C185 1.358 . S
C183 H241 0.930 . S
C184 N181 1.314 . S
C184 C182 1.353 . S
C184 H242 0.930 . S
C185 N181 1.279 . S
C185 C183 1.358 . S
C185 H243 0.930 . S
C186 C189 1.348 . S
C186 C190 1.356 . S
C186 O237 1.325 . S
C187 N188 1.279 . S
C187 C190 1.358 . S
C187 H244 0.930 . S
N188 C187 1.279 . S
N188 C191 1.314 . S
C189 C186 1.348 . S
C189 C191 1.353 . S
C189 H245 0.929 . S
C190 C186 1.356 . S
C190 C187 1.358 . S
C190 H246 0.930 . S
C191 N188 1.314 . S
C191 C189 1.353 . S
C191 H247 0.930 . S
C192 N193 1.314 . S
C192 C197 1.353 . S
C192 H198 0.930 . S
N193 Li176 1.990 . S
N193 C192 1.314 . S
N193 C195 1.279 . S
C194 C195 1.358 . S
C194 C196 1.356 . S
C194 H248 0.930 . S
C195 N193 1.279 . S
C195 C194 1.358 . S
C195 H199 0.930 . S
C196 C194 1.356 . S
C196 C197 1.348 . S
C197 C192 1.353 . S
C197 C196 1.348 . S
C197 H249 0.929 . S
H198 C192 0.930 . S
H199 C195 0.930 . S
C200 N201 1.314 . S
C200 C202 1.353 . S
C200 H206 0.930 . S
N201 Li177 1.990 . S
N201 C200 1.314 . S
N201 C204 1.279 . S
C202 C200 1.353 . S
C202 C205 1.348 . S
C202 H250 0.929 . S
C203 C204 1.358 . S
C203 C205 1.356 . S
C203 H251 0.930 . S
C204 N201 1.279 . S
C204 C203 1.358 . S
C204 H207 0.930 . S
C205 C202 1.348 . S
C205 C203 1.356 . S
H206 C200 0.930 . S
H207 C204 0.930 . S
C208 C210 1.348 . S
C208 C211 1.356 . S
C208 O238 1.325 . S
N209 C212 1.314 . S
N209 C213 1.279 . S
C210 C208 1.348 . S
C210 C212 1.353 . S
C210 H252 0.929 . S
C211 C208 1.356 . S
C211 C213 1.358 . S
C211 H253 0.930 . S
C212 N209 1.314 . S
C212 C210 1.353 . S
C212 H254 0.930 . S
C213 N209 1.279 . S
C213 C211 1.358 . S
C213 H255 0.930 . S
C214 C215 1.348 . S
C214 C216 1.356 . S
C214 O239 1.325 . S
C215 C214 1.348 . S
C215 C217 1.353 . S
C215 H256 0.929 . S
C216 C214 1.356 . S
C216 C218 1.358 . S
C216 H257 0.930 . S
C217 C215 1.353 . S
C217 N219 1.314 . S
C217 H258 0.930 . S
C218 C216 1.358 . S
C218 N219 1.279 . S
C218 H259 0.930 . S
N219 C217 1.314 . S
N219 C218 1.279 . S
C220 C222 1.353 . S
C220 N223 1.314 . S
C220 H226 0.930 . S
C221 N223 1.279 . S
C221 C224 1.358 . S
C221 H227 0.930 . S
C222 C220 1.353 . S
C222 C225 1.348 . S
C222 H260 0.929 . S
N223 Li178 1.990 . S
N223 C220 1.314 . S
N223 C221 1.279 . S
C224 C221 1.358 . S
C224 C225 1.356 . S
C224 H261 0.930 . S
C225 C222 1.348 . S
C225 C224 1.356 . S
H226 C220 0.930 . S
H227 C221 0.930 . S
C228 N229 1.314 . S
C228 C230 1.353 . S
C228 H234 0.930 . S
N229 Li179 1.990 . S
N229 C228 1.314 . S
N229 C232 1.279 . S
C230 C228 1.353 . S
C230 C233 1.348 . S
C230 H262 0.929 . S
C231 C232 1.358 . S
C231 C233 1.356 . S
C231 H263 0.930 . S
C232 N229 1.279 . S
C232 C231 1.358 . S
C232 H235 0.930 . S
C233 C230 1.348 . S
C233 C231 1.356 . S
H234 C228 0.930 . S
H235 C232 0.930 . S
O236 Li176 1.956 . S
O236 Li177 1.970 . S
O236 Li178 1.961 . S
O236 C180 1.325 . S
O237 Li176 1.970 . S
O237 Li177 1.956 . S
O237 Li179 1.961 . S
O237 C186 1.325 . S
O238 Li176 1.961 . S
O238 Li178 1.956 . S
O238 Li179 1.970 . S
O238 C208 1.325 . S
O239 Li177 1.961 . S
O239 Li178 1.970 . S
O239 Li179 1.956 . S
O239 C214 1.325 . S
H240 C182 0.929 . S
H241 C183 0.930 . S
H242 C184 0.930 . S
H243 C185 0.930 . S
H244 C187 0.930 . S
H245 C189 0.929 . S
H246 C190 0.930 . S
H247 C191 0.930 . S
H248 C194 0.930 . S
H249 C197 0.929 . S
H250 C202 0.929 . S
H251 C203 0.930 . S
H252 C210 0.929 . S
H253 C211 0.930 . S
H254 C212 0.930 . S
H255 C213 0.930 . S
H256 C215 0.929 . S
H257 C216 0.930 . S
H258 C217 0.930 . S
H259 C218 0.930 . S
H260 C222 0.929 . S
H261 C224 0.930 . S
H262 C230 0.929 . S
H263 C231 0.930 . S
Li264 N281 1.990 . S
Li264 O324 1.956 . S
Li264 O325 1.970 . S
Li264 O326 1.961 . S
Li265 N289 1.990 . S
Li265 O324 1.970 . S
Li265 O325 1.956 . S
Li265 O327 1.961 1_554 S
Li266 N311 1.990 . S
Li266 O324 1.961 . S
Li266 O326 1.956 . S
Li266 O327 1.970 1_554 S
Li267 N317 1.990 . S
Li267 O325 1.961 1_556 S
Li267 O326 1.970 1_556 S
Li267 O327 1.956 . S
C268 C270 1.348 . S
C268 C271 1.356 . S
C268 O324 1.325 . S
N269 C272 1.314 . S
N269 C273 1.279 . S
C270 C268 1.348 . S
C270 C272 1.353 . S
C270 H328 0.929 . S
C271 C268 1.356 . S
C271 C273 1.358 . S
C271 H329 0.930 . S
C272 N269 1.314 . S
C272 C270 1.353 . S
C272 H330 0.930 . S
C273 N269 1.279 . S
C273 C271 1.358 . S
C273 H331 0.930 . S
C274 C277 1.348 . S
C274 C278 1.356 . S
C274 O325 1.325 . S
C275 N276 1.279 . S
C275 C278 1.358 . S
C275 H332 0.930 1_554 S
N276 C275 1.279 . S
N276 C279 1.314 . S
C277 C274 1.348 . S
C277 C279 1.353 . S
C277 H333 0.929 . S
C278 C274 1.356 . S
C278 C275 1.358 . S
C278 H334 0.930 1_554 S
C279 N276 1.314 . S
C279 C277 1.353 . S
C279 H335 0.930 . S
C280 N281 1.314 . S
C280 C285 1.353 . S
C280 H286 0.930 . S
N281 Li264 1.990 . S
N281 C280 1.314 . S
N281 C283 1.279 . S
C282 C283 1.358 . S
C282 C284 1.356 . S
C282 H336 0.930 . S
C283 N281 1.279 . S
C283 C282 1.358 . S
C283 H287 0.930 . S
C284 C282 1.356 . S
C284 C285 1.348 . S
C285 C280 1.353 . S
C285 C284 1.348 . S
C285 H337 0.929 . S
H286 C280 0.930 . S
H287 C283 0.930 . S
C288 N289 1.314 1_556 S
C288 C290 1.353 . S
C288 H294 0.930 . S
N289 Li265 1.990 . S
N289 C288 1.314 1_554 S
N289 C292 1.279 . S
C290 C288 1.353 . S
C290 C293 1.348 1_556 S
C290 H338 0.929 . S
C291 C292 1.358 . S
C291 C293 1.356 . S
C291 H339 0.930 . S
C292 N289 1.279 . S
C292 C291 1.358 . S
C292 H295 0.930 . S
C293 C290 1.348 1_554 S
C293 C291 1.356 . S
H294 C288 0.930 . S
H295 C292 0.930 . S
C296 C298 1.348 . S
C296 C299 1.356 . S
C296 O326 1.325 . S
N297 C300 1.314 . S
N297 C301 1.279 . S
C298 C296 1.348 . S
C298 C300 1.353 . S
C298 H340 0.929 1_554 S
C299 C296 1.356 . S
C299 C301 1.358 . S
C299 H341 0.930 . S
C300 N297 1.314 . S
C300 C298 1.353 . S
C300 H342 0.930 1_554 S
C301 N297 1.279 . S
C301 C299 1.358 . S
C301 H343 0.930 . S
C302 C303 1.348 . S
C302 C304 1.356 . S
C302 O327 1.325 . S
C303 C302 1.348 . S
C303 C305 1.353 . S
C303 H344 0.929 . S
C304 C302 1.356 . S
C304 C306 1.358 . S
C304 H345 0.930 . S
C305 C303 1.353 . S
C305 N307 1.314 . S
C305 H346 0.930 . S
C306 C304 1.358 . S
C306 N307 1.279 . S
C306 H347 0.930 . S
N307 C305 1.314 . S
N307 C306 1.279 . S
C308 C310 1.353 . S
C308 N311 1.314 . S
C308 H314 0.930 . S
C309 N311 1.279 . S
C309 C312 1.358 . S
C309 H315 0.930 . S
C310 C308 1.353 . S
C310 C313 1.348 . S
C310 H348 0.929 . S
N311 Li266 1.990 . S
N311 C308 1.314 . S
N311 C309 1.279 . S
C312 C309 1.358 . S
C312 C313 1.356 . S
C312 H349 0.930 . S
C313 C310 1.348 . S
C313 C312 1.356 . S
H314 C308 0.930 . S
H315 C309 0.930 . S
C316 N317 1.314 . S
C316 C318 1.353 . S
C316 H322 0.930 . S
N317 Li267 1.990 . S
N317 C316 1.314 . S
N317 C320 1.279 . S
C318 C316 1.353 . S
C318 C321 1.348 . S
C318 H350 0.929 . S
C319 C320 1.358 . S
C319 C321 1.356 . S
C319 H351 0.930 . S
C320 N317 1.279 . S
C320 C319 1.358 . S
C320 H323 0.930 . S
C321 C318 1.348 . S
C321 C319 1.356 . S
H322 C316 0.930 . S
H323 C320 0.930 . S
O324 Li264 1.956 . S
O324 Li265 1.970 . S
O324 Li266 1.961 . S
O324 C268 1.325 . S
O325 Li264 1.970 . S
O325 Li265 1.956 . S
O325 Li267 1.961 1_554 S
O325 C274 1.325 . S
O326 Li264 1.961 . S
O326 Li266 1.956 . S
O326 Li267 1.970 1_554 S
O326 C296 1.325 . S
O327 Li265 1.961 1_556 S
O327 Li266 1.970 1_556 S
O327 Li267 1.956 . S
O327 C302 1.325 . S
H328 C270 0.929 . S
H329 C271 0.930 . S
H330 C272 0.930 . S
H331 C273 0.930 . S
H332 C275 0.930 1_556 S
H333 C277 0.929 . S
H334 C278 0.930 1_556 S
H335 C279 0.930 . S
H336 C282 0.930 . S
H337 C285 0.929 . S
H338 C290 0.929 . S
H339 C291 0.930 . S
H340 C298 0.929 1_556 S
H341 C299 0.930 . S
H342 C300 0.930 1_556 S
H343 C301 0.930 . S
H344 C303 0.929 . S
H345 C304 0.930 . S
H346 C305 0.930 . S
H347 C306 0.930 . S
H348 C310 0.929 . S
H349 C312 0.930 . S
H350 C318 0.929 . S
H351 C319 0.930 . S
Li352 N369 1.994 . S
Li352 O412 1.998 . S
Li352 O413 1.926 1_455 S
Li352 O414 1.958 1_455 S
Li353 N377 1.992 . S
Li353 O412 1.941 1_655 S
Li353 O413 1.983 . S
Li353 O415 1.958 1_655 S
Li354 N399 1.990 . S
Li354 O412 1.961 . S
Li354 O414 1.933 1_455 S
Li354 O415 2.005 . S
Li355 N405 1.990 . S
Li355 O413 1.961 . S
Li355 O414 1.992 . S
Li355 O415 1.919 1_655 S
C356 C358 1.348 . S
C356 C359 1.356 . S
C356 O412 1.325 . S
N357 C360 1.314 . S
N357 C361 1.279 . S
C358 C356 1.348 . S
C358 C360 1.353 . S
C358 H416 0.929 . S
C359 C356 1.356 . S
C359 C361 1.358 . S
C359 H417 0.930 . S
C360 N357 1.314 . S
C360 C358 1.353 . S
C360 H418 0.930 . S
C361 N357 1.279 . S
C361 C359 1.358 . S
C361 H419 0.930 . S
C362 C365 1.348 . S
C362 C366 1.356 . S
C362 O413 1.325 . S
C363 N364 1.279 . S
C363 C366 1.358 . S
C363 H420 0.930 . S
N364 C363 1.279 . S
N364 C367 1.314 . S
C365 C362 1.348 . S
C365 C367 1.353 . S
C365 H421 0.929 . S
C366 C362 1.356 . S
C366 C363 1.358 . S
C366 H422 0.930 . S
C367 N364 1.314 . S
C367 C365 1.353 . S
C367 H423 0.930 . S
C368 N369 1.314 1_655 S
C368 C373 1.353 . S
C368 H374 0.930 . S
N369 Li352 1.994 . S
N369 C368 1.314 1_455 S
N369 C371 1.279 . S
C370 C371 1.358 . S
C370 C372 1.356 . S
C370 H424 0.930 . S
C371 N369 1.279 . S
C371 C370 1.358 . S
C371 H375 0.930 . S
C372 C370 1.356 . S
C372 C373 1.348 1_455 S
C373 C368 1.353 . S
C373 C372 1.348 1_655 S
C373 H425 0.929 . S
H374 C368 0.930 . S
H375 C371 0.930 . S
C376 N377 1.314 1_455 S
C376 C378 1.353 . S
C376 H382 0.930 . S
N377 Li353 1.992 . S
N377 C376 1.314 1_655 S
N377 C380 1.279 . S
C378 C376 1.353 . S
C378 C381 1.348 . S
C378 H426 0.929 1_556 S
C379 C380 1.358 . S
C379 C381 1.356 1_655 S
C379 H427 0.930 . S
C380 N377 1.279 . S
C380 C379 1.358 . S
C380 H383 0.930 . S
C381 C378 1.348 . S
C381 C379 1.356 1_455 S
H382 C376 0.930 . S
H383 C380 0.930 . S
C384 C386 1.348 1_455 S
C384 C387 1.356 . S
C384 O414 1.324 1_455 S
N385 C388 1.314 1_455 S
N385 C389 1.279 . S
C386 C384 1.348 1_655 S
C386 C388 1.353 . S
C386 H428 0.929 . S
C387 C384 1.356 . S
C387 C389 1.358 . S
C387 H429 0.930 . S
C388 N385 1.314 1_655 S
C388 C386 1.353 . S
C388 H430 0.930 . S
C389 N385 1.279 . S
C389 C387 1.358 . S
C389 H431 0.930 . S
C390 C391 1.348 . S
C390 C392 1.356 1_455 S
C390 O415 1.324 . S
C391 C390 1.348 . S
C391 C393 1.353 . S
C391 H432 0.929 . S
C392 C390 1.356 1_655 S
C392 C394 1.358 . S
C392 H433 0.930 . S
C393 C391 1.353 . S
C393 N395 1.314 1_456 S
C393 H434 0.930 . S
C394 C392 1.358 . S
C394 N395 1.279 1_556 S
C394 H435 0.930 1_556 S
N395 C393 1.314 1_654 S
N395 C394 1.279 1_554 S
C396 C398 1.353 . S
C396 N399 1.314 . S
C396 H402 0.930 . S
C397 N399 1.279 . S
C397 C400 1.358 . S
C397 H403 0.930 . S
C398 C396 1.353 . S
C398 C401 1.348 . S
C398 H436 0.929 . S
N399 Li354 1.990 . S
N399 C396 1.314 . S
N399 C397 1.279 . S
C400 C397 1.358 . S
C400 C401 1.356 . S
C400 H437 0.930 . S
C401 C398 1.348 . S
C401 C400 1.356 . S
H402 C396 0.930 . S
H403 C397 0.930 . S
C404 N405 1.314 . S
C404 C406 1.353 . S
C404 H410 0.930 . S
N405 Li355 1.990 . S
N405 C404 1.314 . S
N405 C408 1.279 . S
C406 C404 1.353 . S
C406 C409 1.348 . S
C406 H438 0.929 . S
C407 C408 1.358 . S
C407 C409 1.356 . S
C407 H439 0.930 . S
C408 N405 1.279 . S
C408 C407 1.358 . S
C408 H411 0.930 . S
C409 C406 1.348 . S
C409 C407 1.356 . S
H410 C404 0.930 . S
H411 C408 0.930 . S
O412 Li352 1.998 . S
O412 Li353 1.941 1_455 S
O412 Li354 1.961 . S
O412 C356 1.325 . S
O413 Li352 1.926 1_655 S
O413 Li353 1.983 . S
O413 Li355 1.961 . S
O413 C362 1.325 . S
O414 Li352 1.958 1_655 S
O414 Li354 1.933 1_655 S
O414 Li355 1.992 . S
O414 C384 1.324 1_655 S
O415 Li353 1.958 1_455 S
O415 Li354 2.005 . S
O415 Li355 1.919 1_455 S
O415 C390 1.324 . S
H416 C358 0.929 . S
H417 C359 0.930 . S
H418 C360 0.930 . S
H419 C361 0.930 . S
H420 C363 0.930 . S
H421 C365 0.929 . S
H422 C366 0.930 . S
H423 C367 0.930 . S
H424 C370 0.930 . S
H425 C373 0.929 . S
H426 C378 0.929 1_554 S
H427 C379 0.930 . S
H428 C386 0.929 . S
H429 C387 0.930 . S
H430 C388 0.930 . S
H431 C389 0.930 . S
H432 C391 0.929 . S
H433 C392 0.930 . S
H434 C393 0.930 . S
H435 C394 0.930 1_554 S
H436 C398 0.929 . S
H437 C400 0.930 . S
H438 C406 0.929 . S
H439 C407 0.930 . S
Li440 N457 1.990 . S
Li440 O500 1.956 . S
Li440 O501 1.970 . S
Li440 O502 1.961 . S
Li441 N465 1.990 . S
Li441 O500 1.970 . S
Li441 O501 1.956 . S
Li441 O503 1.961 . S
Li442 N487 1.990 . S
Li442 O500 1.961 . S
Li442 O502 1.956 . S
Li442 O503 1.970 . S
Li443 N493 1.990 . S
Li443 O501 1.961 . S
Li443 O502 1.970 . S
Li443 O503 1.956 . S
C444 C446 1.348 . S
C444 C447 1.356 . S
C444 O500 1.325 . S
N445 C448 1.314 . S
N445 C449 1.279 . S
C446 C444 1.348 . S
C446 C448 1.353 . S
C446 H504 0.929 . S
C447 C444 1.356 . S
C447 C449 1.358 . S
C447 H505 0.930 . S
C448 N445 1.314 . S
C448 C446 1.353 . S
C448 H506 0.930 . S
C449 N445 1.279 . S
C449 C447 1.358 . S
C449 H507 0.930 . S
C450 C453 1.348 . S
C450 C454 1.356 . S
C450 O501 1.325 . S
C451 N452 1.279 . S
C451 C454 1.358 . S
C451 H508 0.930 . S
N452 C451 1.279 . S
N452 C455 1.314 . S
C453 C450 1.348 . S
C453 C455 1.353 . S
C453 H509 0.929 . S
C454 C450 1.356 . S
C454 C451 1.358 . S
C454 H510 0.930 . S
C455 N452 1.314 . S
C455 C453 1.353 . S
C455 H511 0.930 . S
C456 N457 1.314 . S
C456 C461 1.353 . S
C456 H462 0.930 . S
N457 Li440 1.990 . S
N457 C456 1.314 . S
N457 C459 1.279 . S
C458 C459 1.358 . S
C458 C460 1.356 . S
C458 H512 0.930 . S
C459 N457 1.279 . S
C459 C458 1.358 . S
C459 H463 0.930 . S
C460 C458 1.356 . S
C460 C461 1.348 . S
C461 C456 1.353 . S
C461 C460 1.348 . S
C461 H513 0.929 . S
H462 C456 0.930 . S
H463 C459 0.930 . S
C464 N465 1.314 . S
C464 C466 1.353 . S
C464 H470 0.930 . S
N465 Li441 1.990 . S
N465 C464 1.314 . S
N465 C468 1.279 . S
C466 C464 1.353 . S
C466 C469 1.348 . S
C466 H514 0.929 . S
C467 C468 1.358 . S
C467 C469 1.356 . S
C467 H515 0.930 . S
C468 N465 1.279 . S
C468 C467 1.358 . S
C468 H471 0.930 . S
C469 C466 1.348 . S
C469 C467 1.356 . S
H470 C464 0.930 . S
H471 C468 0.930 . S
C472 C474 1.348 . S
C472 C475 1.356 . S
C472 O502 1.325 . S
N473 C476 1.314 . S
N473 C477 1.279 . S
C474 C472 1.348 . S
C474 C476 1.353 . S
C474 H516 0.929 . S
C475 C472 1.356 . S
C475 C477 1.358 . S
C475 H517 0.930 . S
C476 N473 1.314 . S
C476 C474 1.353 . S
C476 H518 0.930 . S
C477 N473 1.279 . S
C477 C475 1.358 . S
C477 H519 0.930 . S
C478 C479 1.348 . S
C478 C480 1.356 . S
C478 O503 1.325 . S
C479 C478 1.348 . S
C479 C481 1.353 . S
C479 H520 0.929 . S
C480 C478 1.356 . S
C480 C482 1.358 . S
C480 H521 0.930 . S
C481 C479 1.353 . S
C481 N483 1.314 . S
C481 H522 0.930 . S
C482 C480 1.358 . S
C482 N483 1.279 . S
C482 H523 0.930 . S
N483 C481 1.314 . S
N483 C482 1.279 . S
C484 C486 1.353 . S
C484 N487 1.314 . S
C484 H490 0.930 . S
C485 N487 1.279 . S
C485 C488 1.358 1_554 S
C485 H491 0.930 . S
C486 C484 1.353 . S
C486 C489 1.348 1_554 S
C486 H524 0.929 . S
N487 Li442 1.990 . S
N487 C484 1.314 . S
N487 C485 1.279 . S
C488 C485 1.358 1_556 S
C488 C489 1.356 . S
C488 H525 0.930 . S
C489 C486 1.348 1_556 S
C489 C488 1.356 . S
H490 C484 0.930 . S
H491 C485 0.930 . S
C492 N493 1.314 . S
C492 C494 1.353 . S
C492 H498 0.930 . S
N493 Li443 1.990 . S
N493 C492 1.314 . S
N493 C496 1.279 . S
C494 C492 1.353 . S
C494 C497 1.348 . S
C494 H526 0.929 . S
C495 C496 1.358 . S
C495 C497 1.356 . S
C495 H527 0.930 . S
C496 N493 1.279 . S
C496 C495 1.358 . S
C496 H499 0.930 . S
C497 C494 1.348 . S
C497 C495 1.356 . S
H498 C492 0.930 . S
H499 C496 0.930 . S
O500 Li440 1.956 . S
O500 Li441 1.970 . S
O500 Li442 1.961 . S
O500 C444 1.325 . S
O501 Li440 1.970 . S
O501 Li441 1.956 . S
O501 Li443 1.961 . S
O501 C450 1.325 . S
O502 Li440 1.961 . S
O502 Li442 1.956 . S
O502 Li443 1.970 . S
O502 C472 1.325 . S
O503 Li441 1.961 . S
O503 Li442 1.970 . S
O503 Li443 1.956 . S
O503 C478 1.325 . S
H504 C446 0.929 . S
H505 C447 0.930 . S
H506 C448 0.930 . S
H507 C449 0.930 . S
H508 C451 0.930 . S
H509 C453 0.929 . S
H510 C454 0.930 . S
H511 C455 0.930 . S
H512 C458 0.930 . S
H513 C461 0.929 . S
H514 C466 0.929 . S
H515 C467 0.930 . S
H516 C474 0.929 . S
H517 C475 0.930 . S
H518 C476 0.930 . S
H519 C477 0.930 . S
H520 C479 0.929 . S
H521 C480 0.930 . S
H522 C481 0.930 . S
H523 C482 0.930 . S
H524 C486 0.929 . S
H525 C488 0.930 . S
H526 C494 0.929 . S
H527 C495 0.930 . S
Li528 N545 1.990 . S
Li528 O588 1.956 . S
Li528 O589 1.970 . S
Li528 O590 1.961 . S
Li529 N553 1.990 . S
Li529 O588 1.970 . S
Li529 O589 1.956 . S
Li529 O591 1.961 . S
Li530 N575 1.990 . S
Li530 O588 1.961 . S
Li530 O590 1.956 . S
Li530 O591 1.970 . S
Li531 N581 1.990 . S
Li531 O589 1.961 . S
Li531 O590 1.970 . S
Li531 O591 1.956 . S
C532 C534 1.348 . S
C532 C535 1.356 . S
C532 O588 1.325 . S
N533 C536 1.314 . S
N533 C537 1.279 . S
C534 C532 1.348 . S
C534 C536 1.353 . S
C534 H592 0.929 . S
C535 C532 1.356 . S
C535 C537 1.358 . S
C535 H593 0.930 . S
C536 N533 1.314 . S
C536 C534 1.353 . S
C536 H594 0.930 . S
C537 N533 1.279 . S
C537 C535 1.358 . S
C537 H595 0.930 . S
C538 C541 1.348 . S
C538 C542 1.356 . S
C538 O589 1.325 . S
C539 N540 1.279 . S
C539 C542 1.358 . S
C539 H596 0.930 . S
N540 C539 1.279 . S
N540 C543 1.314 . S
C541 C538 1.348 . S
C541 C543 1.353 . S
C541 H597 0.929 . S
C542 C538 1.356 . S
C542 C539 1.358 . S
C542 H598 0.930 . S
C543 N540 1.314 . S
C543 C541 1.353 . S
C543 H599 0.930 . S
C544 N545 1.314 . S
C544 C549 1.353 . S
C544 H550 0.930 . S
N545 Li528 1.990 . S
N545 C544 1.314 . S
N545 C547 1.279 . S
C546 C547 1.358 . S
C546 C548 1.356 . S
C546 H600 0.930 . S
C547 N545 1.279 . S
C547 C546 1.358 . S
C547 H551 0.930 . S
C548 C546 1.356 . S
C548 C549 1.348 . S
C549 C544 1.353 . S
C549 C548 1.348 . S
C549 H601 0.929 . S
H550 C544 0.930 . S
H551 C547 0.930 . S
C552 N553 1.314 . S
C552 C554 1.353 . S
C552 H558 0.930 . S
N553 Li529 1.990 . S
N553 C552 1.314 . S
N553 C556 1.279 . S
C554 C552 1.353 . S
C554 C557 1.348 . S
C554 H602 0.929 . S
C555 C556 1.358 . S
C555 C557 1.356 . S
C555 H603 0.930 . S
C556 N553 1.279 . S
C556 C555 1.358 . S
C556 H559 0.930 . S
C557 C554 1.348 . S
C557 C555 1.356 . S
H558 C552 0.930 . S
H559 C556 0.930 . S
C560 C562 1.348 . S
C560 C563 1.356 . S
C560 O590 1.325 . S
N561 C564 1.314 . S
N561 C565 1.279 . S
C562 C560 1.348 . S
C562 C564 1.353 . S
C562 H604 0.929 . S
C563 C560 1.356 . S
C563 C565 1.358 . S
C563 H605 0.930 . S
C564 N561 1.314 . S
C564 C562 1.353 . S
C564 H606 0.930 . S
C565 N561 1.279 . S
C565 C563 1.358 . S
C565 H607 0.930 . S
C566 C567 1.348 . S
C566 C568 1.356 . S
C566 O591 1.325 . S
C567 C566 1.348 . S
C567 C569 1.353 . S
C567 H608 0.929 . S
C568 C566 1.356 . S
C568 C570 1.358 . S
C568 H609 0.930 . S
C569 C567 1.353 . S
C569 N571 1.314 . S
C569 H610 0.930 . S
C570 C568 1.358 . S
C570 N571 1.279 . S
C570 H611 0.930 . S
N571 C569 1.314 . S
N571 C570 1.279 . S
C572 C574 1.353 . S
C572 N575 1.314 . S
C572 H578 0.930 . S
C573 N575 1.279 . S
C573 C576 1.358 . S
C573 H579 0.930 . S
C574 C572 1.353 . S
C574 C577 1.348 . S
C574 H612 0.929 . S
N575 Li530 1.990 . S
N575 C572 1.314 . S
N575 C573 1.279 . S
C576 C573 1.358 . S
C576 C577 1.356 . S
C576 H613 0.930 . S
C577 C574 1.348 . S
C577 C576 1.356 . S
H578 C572 0.930 . S
H579 C573 0.930 . S
C580 N581 1.314 . S
C580 C582 1.353 . S
C580 H586 0.930 . S
N581 Li531 1.990 . S
N581 C580 1.314 . S
N581 C584 1.279 . S
C582 C580 1.353 . S
C582 C585 1.348 . S
C582 H614 0.929 . S
C583 C584 1.358 . S
C583 C585 1.356 . S
C583 H615 0.930 . S
C584 N581 1.279 . S
C584 C583 1.358 . S
C584 H587 0.930 . S
C585 C582 1.348 . S
C585 C583 1.356 . S
H586 C580 0.930 . S
H587 C584 0.930 . S
O588 Li528 1.956 . S
O588 Li529 1.970 . S
O588 Li530 1.961 . S
O588 C532 1.325 . S
O589 Li528 1.970 . S
O589 Li529 1.956 . S
O589 Li531 1.961 . S
O589 C538 1.325 . S
O590 Li528 1.961 . S
O590 Li530 1.956 . S
O590 Li531 1.970 . S
O590 C560 1.325 . S
O591 Li529 1.961 . S
O591 Li530 1.970 . S
O591 Li531 1.956 . S
O591 C566 1.325 . S
H592 C534 0.929 . S
H593 C535 0.930 . S
H594 C536 0.930 . S
H595 C537 0.930 . S
H596 C539 0.930 . S
H597 C541 0.929 . S
H598 C542 0.930 . S
H599 C543 0.930 . S
H600 C546 0.930 . S
H601 C549 0.929 . S
H602 C554 0.929 . S
H603 C555 0.930 . S
H604 C562 0.929 . S
H605 C563 0.930 . S
H606 C564 0.930 . S
H607 C565 0.930 . S
H608 C567 0.929 . S
H609 C568 0.930 . S
H610 C569 0.930 . S
H611 C570 0.930 . S
H612 C574 0.929 . S
H613 C576 0.930 . S
H614 C582 0.929 . S
H615 C583 0.930 . S
Li616 N633 1.990 . S
Li616 O676 1.956 . S
Li616 O677 1.970 . S
Li616 O678 1.961 . S
Li617 N641 1.990 . S
Li617 O676 1.970 . S
Li617 O677 1.956 . S
Li617 O679 1.961 . S
Li618 N663 1.990 . S
Li618 O676 1.961 . S
Li618 O678 1.956 . S
Li618 O679 1.970 . S
Li619 N669 1.990 . S
Li619 O677 1.961 . S
Li619 O678 1.970 . S
Li619 O679 1.956 . S
C620 C622 1.348 . S
C620 C623 1.356 . S
C620 O676 1.325 . S
N621 C624 1.314 . S
N621 C625 1.279 . S
C622 C620 1.348 . S
C622 C624 1.353 . S
C622 H680 0.929 . S
C623 C620 1.356 . S
C623 C625 1.358 . S
C623 H681 0.930 . S
C624 N621 1.314 . S
C624 C622 1.353 . S
C624 H682 0.930 . S
C625 N621 1.279 . S
C625 C623 1.358 . S
C625 H683 0.930 . S
C626 C629 1.348 . S
C626 C630 1.356 . S
C626 O677 1.325 . S
C627 N628 1.279 . S
C627 C630 1.358 . S
C627 H684 0.930 . S
N628 C627 1.279 . S
N628 C631 1.314 . S
C629 C626 1.348 . S
C629 C631 1.353 . S
C629 H685 0.929 . S
C630 C626 1.356 . S
C630 C627 1.358 . S
C630 H686 0.930 . S
C631 N628 1.314 . S
C631 C629 1.353 . S
C631 H687 0.930 . S
C632 N633 1.314 . S
C632 C637 1.353 . S
C632 H638 0.930 . S
N633 Li616 1.990 . S
N633 C632 1.314 . S
N633 C635 1.279 . S
C634 C635 1.358 . S
C634 C636 1.356 . S
C634 H688 0.930 . S
C635 N633 1.279 . S
C635 C634 1.358 . S
C635 H639 0.930 . S
C636 C634 1.356 . S
C636 C637 1.348 . S
C637 C632 1.353 . S
C637 C636 1.348 . S
C637 H689 0.929 . S
H638 C632 0.930 . S
H639 C635 0.930 . S
C640 N641 1.314 . S
C640 C642 1.353 . S
C640 H646 0.930 . S
N641 Li617 1.990 . S
N641 C640 1.314 . S
N641 C644 1.279 . S
C642 C640 1.353 . S
C642 C645 1.348 . S
C642 H690 0.929 . S
C643 C644 1.358 . S
C643 C645 1.356 . S
C643 H691 0.930 . S
C644 N641 1.279 . S
C644 C643 1.358 . S
C644 H647 0.930 . S
C645 C642 1.348 . S
C645 C643 1.356 . S
H646 C640 0.930 . S
H647 C644 0.930 . S
C648 C650 1.348 . S
C648 C651 1.356 . S
C648 O678 1.325 . S
N649 C652 1.314 . S
N649 C653 1.279 . S
C650 C648 1.348 . S
C650 C652 1.353 . S
C650 H692 0.929 . S
C651 C648 1.356 . S
C651 C653 1.358 . S
C651 H693 0.930 . S
C652 N649 1.314 . S
C652 C650 1.353 . S
C652 H694 0.930 . S
C653 N649 1.279 . S
C653 C651 1.358 . S
C653 H695 0.930 . S
C654 C655 1.348 . S
C654 C656 1.356 . S
C654 O679 1.325 . S
C655 C654 1.348 . S
C655 C657 1.353 . S
C655 H696 0.929 . S
C656 C654 1.356 . S
C656 C658 1.358 . S
C656 H697 0.930 . S
C657 C655 1.353 . S
C657 N659 1.314 . S
C657 H698 0.930 . S
C658 C656 1.358 . S
C658 N659 1.279 . S
C658 H699 0.930 . S
N659 C657 1.314 . S
N659 C658 1.279 . S
C660 C662 1.353 . S
C660 N663 1.314 . S
C660 H666 0.930 . S
C661 N663 1.279 . S
C661 C664 1.358 . S
C661 H667 0.930 . S
C662 C660 1.353 . S
C662 C665 1.348 . S
C662 H700 0.929 . S
N663 Li618 1.990 . S
N663 C660 1.314 . S
N663 C661 1.279 . S
C664 C661 1.358 . S
C664 C665 1.356 . S
C664 H701 0.930 . S
C665 C662 1.348 . S
C665 C664 1.356 . S
H666 C660 0.930 . S
H667 C661 0.930 . S
C668 N669 1.314 . S
C668 C670 1.353 . S
C668 H674 0.930 . S
N669 Li619 1.990 . S
N669 C668 1.314 . S
N669 C672 1.279 . S
C670 C668 1.353 . S
C670 C673 1.348 . S
C670 H702 0.929 . S
C671 C672 1.358 . S
C671 C673 1.356 . S
C671 H703 0.930 . S
C672 N669 1.279 . S
C672 C671 1.358 . S
C672 H675 0.930 . S
C673 C670 1.348 . S
C673 C671 1.356 . S
H674 C668 0.930 . S
H675 C672 0.930 . S
O676 Li616 1.956 . S
O676 Li617 1.970 . S
O676 Li618 1.961 . S
O676 C620 1.325 . S
O677 Li616 1.970 . S
O677 Li617 1.956 . S
O677 Li619 1.961 . S
O677 C626 1.325 . S
O678 Li616 1.961 . S
O678 Li618 1.956 . S
O678 Li619 1.970 . S
O678 C648 1.325 . S
O679 Li617 1.961 . S
O679 Li618 1.970 . S
O679 Li619 1.956 . S
O679 C654 1.325 . S
H680 C622 0.929 . S
H681 C623 0.930 . S
H682 C624 0.930 . S
H683 C625 0.930 . S
H684 C627 0.930 . S
H685 C629 0.929 . S
H686 C630 0.930 . S
H687 C631 0.930 . S
H688 C634 0.930 . S
H689 C637 0.929 . S
H690 C642 0.929 . S
H691 C643 0.930 . S
H692 C650 0.929 . S
H693 C651 0.930 . S
H694 C652 0.930 . S
H695 C653 0.930 . S
H696 C655 0.929 . S
H697 C656 0.930 . S
H698 C657 0.930 . S
H699 C658 0.930 . S
H700 C662 0.929 . S
H701 C664 0.930 . S
H702 C670 0.929 . S
H703 C671 0.930 . S
Li704 N721 1.990 . S
Li704 O764 1.956 . S
Li704 O765 1.970 . S
Li704 O766 1.961 . S
Li705 N729 1.990 . S
Li705 O764 1.970 . S
Li705 O765 1.956 . S
Li705 O767 1.961 . S
Li706 N751 1.990 . S
Li706 O764 1.961 . S
Li706 O766 1.956 . S
Li706 O767 1.970 . S
Li707 N757 1.990 . S
Li707 O765 1.961 . S
Li707 O766 1.970 . S
Li707 O767 1.956 . S
C708 C710 1.348 . S
C708 C711 1.356 . S
C708 O764 1.325 . S
N709 C712 1.314 . S
N709 C713 1.279 . S
C710 C708 1.348 . S
C710 C712 1.353 . S
C710 H768 0.929 . S
C711 C708 1.356 . S
C711 C713 1.358 . S
C711 H769 0.930 . S
C712 N709 1.314 . S
C712 C710 1.353 . S
C712 H770 0.930 . S
C713 N709 1.279 . S
C713 C711 1.358 . S
C713 H771 0.930 . S
C714 C717 1.348 . S
C714 C718 1.356 . S
C714 O765 1.325 . S
C715 N716 1.279 . S
C715 C718 1.358 . S
C715 H772 0.930 . S
N716 C715 1.279 . S
N716 C719 1.314 . S
C717 C714 1.348 . S
C717 C719 1.353 . S
C717 H773 0.929 . S
C718 C714 1.356 . S
C718 C715 1.358 . S
C718 H774 0.930 . S
C719 N716 1.314 . S
C719 C717 1.353 . S
C719 H775 0.930 . S
C720 N721 1.314 . S
C720 C725 1.353 . S
C720 H726 0.930 . S
N721 Li704 1.990 . S
N721 C720 1.314 . S
N721 C723 1.279 . S
C722 C723 1.358 . S
C722 C724 1.356 . S
C722 H776 0.930 . S
C723 N721 1.279 . S
C723 C722 1.358 . S
C723 H727 0.930 . S
C724 C722 1.356 . S
C724 C725 1.348 . S
C725 C720 1.353 . S
C725 C724 1.348 . S
C725 H777 0.929 . S
H726 C720 0.930 . S
H727 C723 0.930 . S
C728 N729 1.314 . S
C728 C730 1.353 . S
C728 H734 0.930 . S
N729 Li705 1.990 . S
N729 C728 1.314 . S
N729 C732 1.279 . S
C730 C728 1.353 . S
C730 C733 1.348 . S
C730 H778 0.929 . S
C731 C732 1.358 . S
C731 C733 1.356 . S
C731 H779 0.930 . S
C732 N729 1.279 . S
C732 C731 1.358 . S
C732 H735 0.930 . S
C733 C730 1.348 . S
C733 C731 1.356 . S
H734 C728 0.930 . S
H735 C732 0.930 . S
C736 C738 1.348 . S
C736 C739 1.356 . S
C736 O766 1.325 . S
N737 C740 1.314 . S
N737 C741 1.279 . S
C738 C736 1.348 . S
C738 C740 1.353 . S
C738 H780 0.929 . S
C739 C736 1.356 . S
C739 C741 1.358 . S
C739 H781 0.930 . S
C740 N737 1.314 . S
C740 C738 1.353 . S
C740 H782 0.930 . S
C741 N737 1.279 . S
C741 C739 1.358 . S
C741 H783 0.930 . S
C742 C743 1.348 . S
C742 C744 1.356 . S
C742 O767 1.325 . S
C743 C742 1.348 . S
C743 C745 1.353 . S
C743 H784 0.929 . S
C744 C742 1.356 . S
C744 C746 1.358 . S
C744 H785 0.930 . S
C745 C743 1.353 . S
C745 N747 1.314 . S
C745 H786 0.930 . S
C746 C744 1.358 . S
C746 N747 1.279 . S
C746 H787 0.930 . S
N747 C745 1.314 . S
N747 C746 1.279 . S
C748 C750 1.353 . S
C748 N751 1.314 . S
C748 H754 0.930 . S
C749 N751 1.279 . S
C749 C752 1.358 . S
C749 H755 0.930 . S
C750 C748 1.353 . S
C750 C753 1.348 . S
C750 H788 0.929 . S
N751 Li706 1.990 . S
N751 C748 1.314 . S
N751 C749 1.279 . S
C752 C749 1.358 . S
C752 C753 1.356 . S
C752 H789 0.930 . S
C753 C750 1.348 . S
C753 C752 1.356 . S
H754 C748 0.930 . S
H755 C749 0.930 . S
C756 N757 1.314 . S
C756 C758 1.353 . S
C756 H762 0.930 . S
N757 Li707 1.990 . S
N757 C756 1.314 . S
N757 C760 1.279 . S
C758 C756 1.353 . S
C758 C761 1.348 . S
C758 H790 0.929 . S
C759 C760 1.358 . S
C759 C761 1.356 . S
C759 H791 0.930 . S
C760 N757 1.279 . S
C760 C759 1.358 . S
C760 H763 0.930 . S
C761 C758 1.348 . S
C761 C759 1.356 . S
H762 C756 0.930 . S
H763 C760 0.930 . S
O764 Li704 1.956 . S
O764 Li705 1.970 . S
O764 Li706 1.961 . S
O764 C708 1.325 . S
O765 Li704 1.970 . S
O765 Li705 1.956 . S
O765 Li707 1.961 . S
O765 C714 1.325 . S
O766 Li704 1.961 . S
O766 Li706 1.956 . S
O766 Li707 1.970 . S
O766 C736 1.325 . S
O767 Li705 1.961 . S
O767 Li706 1.970 . S
O767 Li707 1.956 . S
O767 C742 1.325 . S
H768 C710 0.929 . S
H769 C711 0.930 . S
H770 C712 0.930 . S
H771 C713 0.930 . S
H772 C715 0.930 . S
H773 C717 0.929 . S
H774 C718 0.930 . S
H775 C719 0.930 . S
H776 C722 0.930 . S
H777 C725 0.929 . S
H778 C730 0.929 . S
H779 C731 0.930 . S
H780 C738 0.929 . S
H781 C739 0.930 . S
H782 C740 0.930 . S
H783 C741 0.930 . S
H784 C743 0.929 . S
H785 C744 0.930 . S
H786 C745 0.930 . S
H787 C746 0.930 . S
H788 C750 0.929 . S
H789 C752 0.930 . S
H790 C758 0.929 . S
H791 C759 0.930 . S
Li792 N809 1.990 . S
Li792 O852 1.956 . S
Li792 O853 1.970 . S
Li792 O854 1.961 . S
Li793 N817 1.990 . S
Li793 O852 1.970 . S
Li793 O853 1.956 . S
Li793 O855 1.961 . S
Li794 N839 1.990 . S
Li794 O852 1.961 . S
Li794 O854 1.956 . S
Li794 O855 1.970 . S
Li795 N845 1.990 . S
Li795 O853 1.961 . S
Li795 O854 1.970 . S
Li795 O855 1.956 . S
C796 C798 1.348 . S
C796 C799 1.356 . S
C796 O852 1.325 . S
N797 C800 1.314 . S
N797 C801 1.279 . S
C798 C796 1.348 . S
C798 C800 1.353 . S
C798 H856 0.929 . S
C799 C796 1.356 . S
C799 C801 1.358 . S
C799 H857 0.930 . S
C800 N797 1.314 . S
C800 C798 1.353 . S
C800 H858 0.930 . S
C801 N797 1.279 . S
C801 C799 1.358 . S
C801 H859 0.930 . S
C802 C805 1.348 . S
C802 C806 1.356 . S
C802 O853 1.325 . S
C803 N804 1.279 . S
C803 C806 1.358 . S
C803 H860 0.930 . S
N804 C803 1.279 . S
N804 C807 1.314 . S
C805 C802 1.348 . S
C805 C807 1.353 . S
C805 H861 0.929 . S
C806 C802 1.356 . S
C806 C803 1.358 . S
C806 H862 0.930 . S
C807 N804 1.314 . S
C807 C805 1.353 . S
C807 H863 0.930 . S
C808 N809 1.314 . S
C808 C813 1.353 . S
C808 H814 0.930 . S
N809 Li792 1.990 . S
N809 C808 1.314 . S
N809 C811 1.279 . S
C810 C811 1.358 . S
C810 C812 1.356 . S
C810 H864 0.930 . S
C811 N809 1.279 . S
C811 C810 1.358 . S
C811 H815 0.930 . S
C812 C810 1.356 . S
C812 C813 1.348 . S
C813 C808 1.353 . S
C813 C812 1.348 . S
C813 H865 0.929 . S
H814 C808 0.930 . S
H815 C811 0.930 . S
C816 N817 1.314 . S
C816 C818 1.353 . S
C816 H822 0.930 . S
N817 Li793 1.990 . S
N817 C816 1.314 . S
N817 C820 1.279 . S
C818 C816 1.353 . S
C818 C821 1.348 . S
C818 H866 0.929 . S
C819 C820 1.358 . S
C819 C821 1.356 . S
C819 H867 0.930 . S
C820 N817 1.279 . S
C820 C819 1.358 . S
C820 H823 0.930 . S
C821 C818 1.348 . S
C821 C819 1.356 . S
H822 C816 0.930 . S
H823 C820 0.930 . S
C824 C826 1.348 . S
C824 C827 1.356 . S
C824 O854 1.325 . S
N825 C828 1.314 . S
N825 C829 1.279 . S
C826 C824 1.348 . S
C826 C828 1.353 . S
C826 H868 0.929 . S
C827 C824 1.356 . S
C827 C829 1.358 . S
C827 H869 0.930 . S
C828 N825 1.314 . S
C828 C826 1.353 . S
C828 H870 0.930 . S
C829 N825 1.279 . S
C829 C827 1.358 . S
C829 H871 0.930 . S
C830 C831 1.348 . S
C830 C832 1.356 . S
C830 O855 1.325 . S
C831 C830 1.348 . S
C831 C833 1.353 . S
C831 H872 0.929 . S
C832 C830 1.356 . S
C832 C834 1.358 . S
C832 H873 0.930 . S
C833 C831 1.353 . S
C833 N835 1.314 . S
C833 H874 0.930 . S
C834 C832 1.358 . S
C834 N835 1.279 . S
C834 H875 0.930 . S
N835 C833 1.314 . S
N835 C834 1.279 . S
C836 C838 1.353 . S
C836 N839 1.314 . S
C836 H842 0.930 . S
C837 N839 1.279 . S
C837 C840 1.358 1_554 S
C837 H843 0.930 . S
C838 C836 1.353 . S
C838 C841 1.348 1_554 S
C838 H876 0.929 . S
N839 Li794 1.990 . S
N839 C836 1.314 . S
N839 C837 1.279 . S
C840 C837 1.358 1_556 S
C840 C841 1.356 . S
C840 H877 0.930 . S
C841 C838 1.348 1_556 S
C841 C840 1.356 . S
H842 C836 0.930 . S
H843 C837 0.930 . S
C844 N845 1.314 . S
C844 C846 1.353 . S
C844 H850 0.930 . S
N845 Li795 1.990 . S
N845 C844 1.314 . S
N845 C848 1.279 . S
C846 C844 1.353 . S
C846 C849 1.348 . S
C846 H878 0.929 . S
C847 C848 1.358 . S
C847 C849 1.356 . S
C847 H879 0.930 . S
C848 N845 1.279 . S
C848 C847 1.358 . S
C848 H851 0.930 . S
C849 C846 1.348 . S
C849 C847 1.356 . S
H850 C844 0.930 . S
H851 C848 0.930 . S
O852 Li792 1.956 . S
O852 Li793 1.970 . S
O852 Li794 1.961 . S
O852 C796 1.325 . S
O853 Li792 1.970 . S
O853 Li793 1.956 . S
O853 Li795 1.961 . S
O853 C802 1.325 . S
O854 Li792 1.961 . S
O854 Li794 1.956 . S
O854 Li795 1.970 . S
O854 C824 1.325 . S
O855 Li793 1.961 . S
O855 Li794 1.970 . S
O855 Li795 1.956 . S
O855 C830 1.325 . S
H856 C798 0.929 . S
H857 C799 0.930 . S
H858 C800 0.930 . S
H859 C801 0.930 . S
H860 C803 0.930 . S
H861 C805 0.929 . S
H862 C806 0.930 . S
H863 C807 0.930 . S
H864 C810 0.930 . S
H865 C813 0.929 . S
H866 C818 0.929 . S
H867 C819 0.930 . S
H868 C826 0.929 . S
H869 C827 0.930 . S
H870 C828 0.930 . S
H871 C829 0.930 . S
H872 C831 0.929 . S
H873 C832 0.930 . S
H874 C833 0.930 . S
H875 C834 0.930 . S
H876 C838 0.929 . S
H877 C840 0.930 . S
H878 C846 0.929 . S
H879 C847 0.930 . S
Li880 N897 1.990 . S
Li880 O940 1.956 . S
Li880 O941 1.970 . S
Li880 O942 1.961 . S
Li881 N905 1.990 . S
Li881 O940 1.970 . S
Li881 O941 1.956 . S
Li881 O943 1.961 1_554 S
Li882 N927 1.990 . S
Li882 O940 1.961 . S
Li882 O942 1.956 . S
Li882 O943 1.970 1_554 S
Li883 N933 1.990 . S
Li883 O941 1.961 1_556 S
Li883 O942 1.970 1_556 S
Li883 O943 1.956 . S
C884 C886 1.348 . S
C884 C887 1.356 . S
C884 O940 1.325 . S
N885 C888 1.314 . S
N885 C889 1.279 . S
C886 C884 1.348 . S
C886 C888 1.353 . S
C886 H944 0.929 . S
C887 C884 1.356 . S
C887 C889 1.358 . S
C887 H945 0.930 . S
C888 N885 1.314 . S
C888 C886 1.353 . S
C888 H946 0.930 . S
C889 N885 1.279 . S
C889 C887 1.358 . S
C889 H947 0.930 . S
C890 C893 1.348 . S
C890 C894 1.356 . S
C890 O941 1.325 . S
C891 N892 1.279 . S
C891 C894 1.358 . S
C891 H948 0.930 1_554 S
N892 C891 1.279 . S
N892 C895 1.314 . S
C893 C890 1.348 . S
C893 C895 1.353 . S
C893 H949 0.929 . S
C894 C890 1.356 . S
C894 C891 1.358 . S
C894 H950 0.930 1_554 S
C895 N892 1.314 . S
C895 C893 1.353 . S
C895 H951 0.930 . S
C896 N897 1.314 . S
C896 C901 1.353 . S
C896 H902 0.930 . S
N897 Li880 1.990 . S
N897 C896 1.314 . S
N897 C899 1.279 . S
C898 C899 1.358 . S
C898 C900 1.356 . S
C898 H952 0.930 . S
C899 N897 1.279 . S
C899 C898 1.358 . S
C899 H903 0.930 . S
C900 C898 1.356 . S
C900 C901 1.348 . S
C901 C896 1.353 . S
C901 C900 1.348 . S
C901 H953 0.929 . S
H902 C896 0.930 . S
H903 C899 0.930 . S
C904 N905 1.314 1_556 S
C904 C906 1.353 . S
C904 H910 0.930 . S
N905 Li881 1.990 . S
N905 C904 1.314 1_554 S
N905 C908 1.279 . S
C906 C904 1.353 . S
C906 C909 1.348 1_556 S
C906 H954 0.929 . S
C907 C908 1.358 . S
C907 C909 1.356 . S
C907 H955 0.930 . S
C908 N905 1.279 . S
C908 C907 1.358 . S
C908 H911 0.930 . S
C909 C906 1.348 1_554 S
C909 C907 1.356 . S
H910 C904 0.930 . S
H911 C908 0.930 . S
C912 C914 1.348 . S
C912 C915 1.356 . S
C912 O942 1.325 . S
N913 C916 1.314 . S
N913 C917 1.279 . S
C914 C912 1.348 . S
C914 C916 1.353 . S
C914 H956 0.929 1_554 S
C915 C912 1.356 . S
C915 C917 1.358 . S
C915 H957 0.930 . S
C916 N913 1.314 . S
C916 C914 1.353 . S
C916 H958 0.930 1_554 S
C917 N913 1.279 . S
C917 C915 1.358 . S
C917 H959 0.930 . S
C918 C919 1.348 . S
C918 C920 1.356 . S
C918 O943 1.325 . S
C919 C918 1.348 . S
C919 C921 1.353 . S
C919 H960 0.929 . S
C920 C918 1.356 . S
C920 C922 1.358 . S
C920 H961 0.930 . S
C921 C919 1.353 . S
C921 N923 1.314 . S
C921 H962 0.930 . S
C922 C920 1.358 . S
C922 N923 1.279 . S
C922 H963 0.930 . S
N923 C921 1.314 . S
N923 C922 1.279 . S
C924 C926 1.353 . S
C924 N927 1.314 . S
C924 H930 0.930 . S
C925 N927 1.279 . S
C925 C928 1.358 . S
C925 H931 0.930 . S
C926 C924 1.353 . S
C926 C929 1.348 . S
C926 H964 0.929 . S
N927 Li882 1.990 . S
N927 C924 1.314 . S
N927 C925 1.279 . S
C928 C925 1.358 . S
C928 C929 1.356 . S
C928 H965 0.930 . S
C929 C926 1.348 . S
C929 C928 1.356 . S
H930 C924 0.930 . S
H931 C925 0.930 . S
C932 N933 1.314 . S
C932 C934 1.353 . S
C932 H938 0.930 . S
N933 Li883 1.990 . S
N933 C932 1.314 . S
N933 C936 1.279 . S
C934 C932 1.353 . S
C934 C937 1.348 . S
C934 H966 0.929 . S
C935 C936 1.358 . S
C935 C937 1.356 . S
C935 H967 0.930 . S
C936 N933 1.279 . S
C936 C935 1.358 . S
C936 H939 0.930 . S
C937 C934 1.348 . S
C937 C935 1.356 . S
H938 C932 0.930 . S
H939 C936 0.930 . S
O940 Li880 1.956 . S
O940 Li881 1.970 . S
O940 Li882 1.961 . S
O940 C884 1.325 . S
O941 Li880 1.970 . S
O941 Li881 1.956 . S
O941 Li883 1.961 1_554 S
O941 C890 1.325 . S
O942 Li880 1.961 . S
O942 Li882 1.956 . S
O942 Li883 1.970 1_554 S
O942 C912 1.325 . S
O943 Li881 1.961 1_556 S
O943 Li882 1.970 1_556 S
O943 Li883 1.956 . S
O943 C918 1.325 . S
H944 C886 0.929 . S
H945 C887 0.930 . S
H946 C888 0.930 . S
H947 C889 0.930 . S
H948 C891 0.930 1_556 S
H949 C893 0.929 . S
H950 C894 0.930 1_556 S
H951 C895 0.930 . S
H952 C898 0.930 . S
H953 C901 0.929 . S
H954 C906 0.929 . S
H955 C907 0.930 . S
H956 C914 0.929 1_556 S
H957 C915 0.930 . S
H958 C916 0.930 1_556 S
H959 C917 0.930 . S
H960 C919 0.929 . S
H961 C920 0.930 . S
H962 C921 0.930 . S
H963 C922 0.930 . S
H964 C926 0.929 . S
H965 C928 0.930 . S
H966 C934 0.929 . S
H967 C935 0.930 . S
Li968 N985 1.990 . S
Li968 O1028 1.956 . S
Li968 O1029 1.970 . S
Li968 O1030 1.961 . S
Li969 N993 1.990 . S
Li969 O1028 1.970 . S
Li969 O1029 1.956 . S
Li969 O1031 1.961 . S
Li970 N1015 1.990 . S
Li970 O1028 1.961 . S
Li970 O1030 1.956 . S
Li970 O1031 1.970 . S
Li971 N1021 1.990 . S
Li971 O1029 1.961 . S
Li971 O1030 1.970 . S
Li971 O1031 1.956 . S
C972 C974 1.348 . S
C972 C975 1.356 . S
C972 O1028 1.325 . S
N973 C976 1.314 . S
N973 C977 1.279 . S
C974 C972 1.348 . S
C974 C976 1.353 . S
C974 H1032 0.929 . S
C975 C972 1.356 . S
C975 C977 1.358 . S
C975 H1033 0.930 . S
C976 N973 1.314 . S
C976 C974 1.353 . S
C976 H1034 0.930 . S
C977 N973 1.279 . S
C977 C975 1.358 . S
C977 H1035 0.930 . S
C978 C981 1.348 . S
C978 C982 1.356 . S
C978 O1029 1.325 . S
C979 N980 1.279 . S
C979 C982 1.358 . S
C979 H1036 0.930 . S
N980 C979 1.279 . S
N980 C983 1.314 . S
C981 C978 1.348 . S
C981 C983 1.353 . S
C981 H1037 0.929 . S
C982 C978 1.356 . S
C982 C979 1.358 . S
C982 H1038 0.930 . S
C983 N980 1.314 . S
C983 C981 1.353 . S
C983 H1039 0.930 . S
C984 N985 1.314 . S
C984 C989 1.353 . S
C984 H990 0.930 . S
N985 Li968 1.990 . S
N985 C984 1.314 . S
N985 C987 1.279 . S
C986 C987 1.358 . S
C986 C988 1.356 . S
C986 H1040 0.930 . S
C987 N985 1.279 . S
C987 C986 1.358 . S
C987 H991 0.930 . S
C988 C986 1.356 . S
C988 C989 1.348 . S
C989 C984 1.353 . S
C989 C988 1.348 . S
C989 H1041 0.929 . S
H990 C984 0.930 . S
H991 C987 0.930 . S
C992 N993 1.314 . S
C992 C994 1.353 . S
C992 H998 0.930 . S
N993 Li969 1.990 . S
N993 C992 1.314 . S
N993 C996 1.279 . S
C994 C992 1.353 . S
C994 C997 1.348 . S
C994 H1042 0.929 . S
C995 C996 1.358 . S
C995 C997 1.356 . S
C995 H1043 0.930 . S
C996 N993 1.279 . S
C996 C995 1.358 . S
C996 H999 0.930 . S
C997 C994 1.348 . S
C997 C995 1.356 . S
H998 C992 0.930 . S
H999 C996 0.930 . S
C1000 C1002 1.348 . S
C1000 C1003 1.356 . S
C1000 O1030 1.325 . S
N1001 C1004 1.314 . S
N1001 C1005 1.279 . S
C1002 C1000 1.348 . S
C1002 C1004 1.353 . S
C1002 H1044 0.929 . S
C1003 C1000 1.356 . S
C1003 C1005 1.358 . S
C1003 H1045 0.930 . S
C1004 N1001 1.314 . S
C1004 C1002 1.353 . S
C1004 H1046 0.930 . S
C1005 N1001 1.279 . S
C1005 C1003 1.358 . S
C1005 H1047 0.930 . S
C1006 C1007 1.348 . S
C1006 C1008 1.356 . S
C1006 O1031 1.325 . S
C1007 C1006 1.348 . S
C1007 C1009 1.353 . S
C1007 H1048 0.929 . S
C1008 C1006 1.356 . S
C1008 C1010 1.358 . S
C1008 H1049 0.930 . S
C1009 C1007 1.353 . S
C1009 N1011 1.314 . S
C1009 H1050 0.930 . S
C1010 C1008 1.358 . S
C1010 N1011 1.279 . S
C1010 H1051 0.930 . S
N1011 C1009 1.314 . S
N1011 C1010 1.279 . S
C1012 C1014 1.353 . S
C1012 N1015 1.314 . S
C1012 H1018 0.930 . S
C1013 N1015 1.279 . S
C1013 C1016 1.358 . S
C1013 H1019 0.930 . S
C1014 C1012 1.353 . S
C1014 C1017 1.348 . S
C1014 H1052 0.929 . S
N1015 Li970 1.990 . S
N1015 C1012 1.314 . S
N1015 C1013 1.279 . S
C1016 C1013 1.358 . S
C1016 C1017 1.356 . S
C1016 H1053 0.930 . S
C1017 C1014 1.348 . S
C1017 C1016 1.356 . S
H1018 C1012 0.930 . S
H1019 C1013 0.930 . S
C1020 N1021 1.314 . S
C1020 C1022 1.353 . S
C1020 H1026 0.930 . S
N1021 Li971 1.990 . S
N1021 C1020 1.314 . S
N1021 C1024 1.279 . S
C1022 C1020 1.353 . S
C1022 C1025 1.348 . S
C1022 H1054 0.929 . S
C1023 C1024 1.358 . S
C1023 C1025 1.356 . S
C1023 H1055 0.930 . S
C1024 N1021 1.279 . S
C1024 C1023 1.358 . S
C1024 H1027 0.930 . S
C1025 C1022 1.348 . S
C1025 C1023 1.356 . S
H1026 C1020 0.930 . S
H1027 C1024 0.930 . S
O1028 Li968 1.956 . S
O1028 Li969 1.970 . S
O1028 Li970 1.961 . S
O1028 C972 1.325 . S
O1029 Li968 1.970 . S
O1029 Li969 1.956 . S
O1029 Li971 1.961 . S
O1029 C978 1.325 . S
O1030 Li968 1.961 . S
O1030 Li970 1.956 . S
O1030 Li971 1.970 . S
O1030 C1000 1.325 . S
O1031 Li969 1.961 . S
O1031 Li970 1.970 . S
O1031 Li971 1.956 . S
O1031 C1006 1.325 . S
H1032 C974 0.929 . S
H1033 C975 0.930 . S
H1034 C976 0.930 . S
H1035 C977 0.930 . S
H1036 C979 0.930 . S
H1037 C981 0.929 . S
H1038 C982 0.930 . S
H1039 C983 0.930 . S
H1040 C986 0.930 . S
H1041 C989 0.929 . S
H1042 C994 0.929 . S
H1043 C995 0.930 . S
H1044 C1002 0.929 . S
H1045 C1003 0.930 . S
H1046 C1004 0.930 . S
H1047 C1005 0.930 . S
H1048 C1007 0.929 . S
H1049 C1008 0.930 . S
H1050 C1009 0.930 . S
H1051 C1010 0.930 . S
H1052 C1014 0.929 . S
H1053 C1016 0.930 . S
H1054 C1022 0.929 . S
H1055 C1023 0.930 . S
Li1056 N1073 1.990 . S
Li1056 O1116 1.956 . S
Li1056 O1117 1.970 . S
Li1056 O1118 1.961 . S
Li1057 N1081 1.990 . S
Li1057 O1116 1.970 . S
Li1057 O1117 1.956 . S
Li1057 O1119 1.961 . S
Li1058 N1103 1.990 . S
Li1058 O1116 1.961 . S
Li1058 O1118 1.956 . S
Li1058 O1119 1.970 . S
Li1059 N1109 1.990 . S
Li1059 O1117 1.961 . S
Li1059 O1118 1.970 . S
Li1059 O1119 1.956 . S
C1060 C1062 1.348 . S
C1060 C1063 1.356 . S
C1060 O1116 1.325 . S
N1061 C1064 1.314 . S
N1061 C1065 1.279 . S
C1062 C1060 1.348 . S
C1062 C1064 1.353 . S
C1062 H1120 0.929 . S
C1063 C1060 1.356 . S
C1063 C1065 1.358 . S
C1063 H1121 0.930 . S
C1064 N1061 1.314 . S
C1064 C1062 1.353 . S
C1064 H1122 0.930 . S
C1065 N1061 1.279 . S
C1065 C1063 1.358 . S
C1065 H1123 0.930 . S
C1066 C1069 1.348 . S
C1066 C1070 1.356 . S
C1066 O1117 1.325 . S
C1067 N1068 1.279 . S
C1067 C1070 1.358 . S
C1067 H1124 0.930 . S
N1068 C1067 1.279 . S
N1068 C1071 1.314 . S
C1069 C1066 1.348 . S
C1069 C1071 1.353 . S
C1069 H1125 0.929 . S
C1070 C1066 1.356 . S
C1070 C1067 1.358 . S
C1070 H1126 0.930 . S
C1071 N1068 1.314 . S
C1071 C1069 1.353 . S
C1071 H1127 0.930 . S
C1072 N1073 1.314 . S
C1072 C1077 1.353 . S
C1072 H1078 0.930 . S
N1073 Li1056 1.990 . S
N1073 C1072 1.314 . S
N1073 C1075 1.279 . S
C1074 C1075 1.358 . S
C1074 C1076 1.356 . S
C1074 H1128 0.930 . S
C1075 N1073 1.279 . S
C1075 C1074 1.358 . S
C1075 H1079 0.930 . S
C1076 C1074 1.356 . S
C1076 C1077 1.348 . S
C1077 C1072 1.353 . S
C1077 C1076 1.348 . S
C1077 H1129 0.929 . S
H1078 C1072 0.930 . S
H1079 C1075 0.930 . S
C1080 N1081 1.314 . S
C1080 C1082 1.353 . S
C1080 H1086 0.930 . S
N1081 Li1057 1.990 . S
N1081 C1080 1.314 . S
N1081 C1084 1.279 . S
C1082 C1080 1.353 . S
C1082 C1085 1.348 . S
C1082 H1130 0.929 . S
C1083 C1084 1.358 . S
C1083 C1085 1.356 . S
C1083 H1131 0.930 . S
C1084 N1081 1.279 . S
C1084 C1083 1.358 . S
C1084 H1087 0.930 . S
C1085 C1082 1.348 . S
C1085 C1083 1.356 . S
H1086 C1080 0.930 . S
H1087 C1084 0.930 . S
C1088 C1090 1.348 . S
C1088 C1091 1.356 . S
C1088 O1118 1.325 . S
N1089 C1092 1.314 . S
N1089 C1093 1.279 . S
C1090 C1088 1.348 . S
C1090 C1092 1.353 . S
C1090 H1132 0.929 . S
C1091 C1088 1.356 . S
C1091 C1093 1.358 . S
C1091 H1133 0.930 . S
C1092 N1089 1.314 . S
C1092 C1090 1.353 . S
C1092 H1134 0.930 . S
C1093 N1089 1.279 . S
C1093 C1091 1.358 . S
C1093 H1135 0.930 . S
C1094 C1095 1.348 . S
C1094 C1096 1.356 . S
C1094 O1119 1.325 . S
C1095 C1094 1.348 . S
C1095 C1097 1.353 . S
C1095 H1136 0.929 . S
C1096 C1094 1.356 . S
C1096 C1098 1.358 . S
C1096 H1137 0.930 . S
C1097 C1095 1.353 . S
C1097 N1099 1.314 . S
C1097 H1138 0.930 . S
C1098 C1096 1.358 . S
C1098 N1099 1.279 . S
C1098 H1139 0.930 . S
N1099 C1097 1.314 . S
N1099 C1098 1.279 . S
C1100 C1102 1.353 . S
C1100 N1103 1.314 . S
C1100 H1106 0.930 . S
C1101 N1103 1.279 . S
C1101 C1104 1.358 . S
C1101 H1107 0.930 . S
C1102 C1100 1.353 . S
C1102 C1105 1.348 . S
C1102 H1140 0.929 . S
N1103 Li1058 1.990 . S
N1103 C1100 1.314 . S
N1103 C1101 1.279 . S
C1104 C1101 1.358 . S
C1104 C1105 1.356 . S
C1104 H1141 0.930 . S
C1105 C1102 1.348 . S
C1105 C1104 1.356 . S
H1106 C1100 0.930 . S
H1107 C1101 0.930 . S
C1108 N1109 1.314 . S
C1108 C1110 1.353 . S
C1108 H1114 0.930 . S
N1109 Li1059 1.990 . S
N1109 C1108 1.314 . S
N1109 C1112 1.279 . S
C1110 C1108 1.353 . S
C1110 C1113 1.348 . S
C1110 H1142 0.929 . S
C1111 C1112 1.358 . S
C1111 C1113 1.356 . S
C1111 H1143 0.930 . S
C1112 N1109 1.279 . S
C1112 C1111 1.358 . S
C1112 H1115 0.930 . S
C1113 C1110 1.348 . S
C1113 C1111 1.356 . S
H1114 C1108 0.930 . S
H1115 C1112 0.930 . S
O1116 Li1056 1.956 . S
O1116 Li1057 1.970 . S
O1116 Li1058 1.961 . S
O1116 C1060 1.325 . S
O1117 Li1056 1.970 . S
O1117 Li1057 1.956 . S
O1117 Li1059 1.961 . S
O1117 C1066 1.325 . S
O1118 Li1056 1.961 . S
O1118 Li1058 1.956 . S
O1118 Li1059 1.970 . S
O1118 C1088 1.325 . S
O1119 Li1057 1.961 . S
O1119 Li1058 1.970 . S
O1119 Li1059 1.956 . S
O1119 C1094 1.325 . S
H1120 C1062 0.929 . S
H1121 C1063 0.930 . S
H1122 C1064 0.930 . S
H1123 C1065 0.930 . S
H1124 C1067 0.930 . S
H1125 C1069 0.929 . S
H1126 C1070 0.930 . S
H1127 C1071 0.930 . S
H1128 C1074 0.930 . S
H1129 C1077 0.929 . S
H1130 C1082 0.929 . S
H1131 C1083 0.930 . S
H1132 C1090 0.929 . S
H1133 C1091 0.930 . S
H1134 C1092 0.930 . S
H1135 C1093 0.930 . S
H1136 C1095 0.929 . S
H1137 C1096 0.930 . S
H1138 C1097 0.930 . S
H1139 C1098 0.930 . S
H1140 C1102 0.929 . S
H1141 C1104 0.930 . S
H1142 C1110 0.929 . S
H1143 C1111 0.930 . S
Li1144 N1161 1.994 . S
Li1144 O1204 1.998 . S
Li1144 O1205 1.926 1_455 S
Li1144 O1206 1.958 1_455 S
Li1145 N1169 1.992 . S
Li1145 O1204 1.941 1_655 S
Li1145 O1205 1.983 . S
Li1145 O1207 1.958 1_655 S
Li1146 N1191 1.990 . S
Li1146 O1204 1.961 . S
Li1146 O1206 1.933 1_455 S
Li1146 O1207 2.005 . S
Li1147 N1197 1.990 . S
Li1147 O1205 1.961 . S
Li1147 O1206 1.992 . S
Li1147 O1207 1.919 1_655 S
C1148 C1150 1.348 . S
C1148 C1151 1.356 . S
C1148 O1204 1.325 . S
N1149 C1152 1.314 . S
N1149 C1153 1.279 . S
C1150 C1148 1.348 . S
C1150 C1152 1.353 . S
C1150 H1208 0.929 . S
C1151 C1148 1.356 . S
C1151 C1153 1.358 . S
C1151 H1209 0.930 . S
C1152 N1149 1.314 . S
C1152 C1150 1.353 . S
C1152 H1210 0.930 . S
C1153 N1149 1.279 . S
C1153 C1151 1.358 . S
C1153 H1211 0.930 . S
C1154 C1157 1.348 . S
C1154 C1158 1.356 . S
C1154 O1205 1.325 . S
C1155 N1156 1.279 . S
C1155 C1158 1.358 . S
C1155 H1212 0.930 . S
N1156 C1155 1.279 . S
N1156 C1159 1.314 . S
C1157 C1154 1.348 . S
C1157 C1159 1.353 . S
C1157 H1213 0.929 . S
C1158 C1154 1.356 . S
C1158 C1155 1.358 . S
C1158 H1214 0.930 . S
C1159 N1156 1.314 . S
C1159 C1157 1.353 . S
C1159 H1215 0.930 . S
C1160 N1161 1.314 1_655 S
C1160 C1165 1.353 . S
C1160 H1166 0.930 . S
N1161 Li1144 1.994 . S
N1161 C1160 1.314 1_455 S
N1161 C1163 1.279 . S
C1162 C1163 1.358 . S
C1162 C1164 1.356 . S
C1162 H1216 0.930 . S
C1163 N1161 1.279 . S
C1163 C1162 1.358 . S
C1163 H1167 0.930 . S
C1164 C1162 1.356 . S
C1164 C1165 1.348 1_455 S
C1165 C1160 1.353 . S
C1165 C1164 1.348 1_655 S
C1165 H1217 0.929 . S
H1166 C1160 0.930 . S
H1167 C1163 0.930 . S
C1168 N1169 1.314 1_455 S
C1168 C1170 1.353 . S
C1168 H1174 0.930 . S
N1169 Li1145 1.992 . S
N1169 C1168 1.314 1_655 S
N1169 C1172 1.279 . S
C1170 C1168 1.353 . S
C1170 C1173 1.348 . S
C1170 H1218 0.929 . S
C1171 C1172 1.358 . S
C1171 C1173 1.356 1_655 S
C1171 H1219 0.930 . S
C1172 N1169 1.279 . S
C1172 C1171 1.358 . S
C1172 H1175 0.930 . S
C1173 C1170 1.348 . S
C1173 C1171 1.356 1_455 S
H1174 C1168 0.930 . S
H1175 C1172 0.930 . S
C1176 C1178 1.348 1_455 S
C1176 C1179 1.356 . S
C1176 O1206 1.324 1_455 S
N1177 C1180 1.314 1_455 S
N1177 C1181 1.279 . S
C1178 C1176 1.348 1_655 S
C1178 C1180 1.353 . S
C1178 H1220 0.929 . S
C1179 C1176 1.356 . S
C1179 C1181 1.358 . S
C1179 H1221 0.930 . S
C1180 N1177 1.314 1_655 S
C1180 C1178 1.353 . S
C1180 H1222 0.930 . S
C1181 N1177 1.279 . S
C1181 C1179 1.358 . S
C1181 H1223 0.930 . S
C1182 C1183 1.348 . S
C1182 C1184 1.356 1_455 S
C1182 O1207 1.324 . S
C1183 C1182 1.348 . S
C1183 C1185 1.353 . S
C1183 H1224 0.929 . S
C1184 C1182 1.356 1_655 S
C1184 C1186 1.358 . S
C1184 H1225 0.930 . S
C1185 C1183 1.353 . S
C1185 N1187 1.314 1_455 S
C1185 H1226 0.930 . S
C1186 C1184 1.358 . S
C1186 N1187 1.279 . S
C1186 H1227 0.930 . S
N1187 C1185 1.314 1_655 S
N1187 C1186 1.279 . S
C1188 C1190 1.353 . S
C1188 N1191 1.314 . S
C1188 H1194 0.930 . S
C1189 N1191 1.279 . S
C1189 C1192 1.358 . S
C1189 H1195 0.930 . S
C1190 C1188 1.353 . S
C1190 C1193 1.348 . S
C1190 H1228 0.929 . S
N1191 Li1146 1.990 . S
N1191 C1188 1.314 . S
N1191 C1189 1.279 . S
C1192 C1189 1.358 . S
C1192 C1193 1.356 . S
C1192 H1229 0.930 . S
C1193 C1190 1.348 . S
C1193 C1192 1.356 . S
H1194 C1188 0.930 . S
H1195 C1189 0.930 . S
C1196 N1197 1.314 . S
C1196 C1198 1.353 . S
C1196 H1202 0.930 . S
N1197 Li1147 1.990 . S
N1197 C1196 1.314 . S
N1197 C1200 1.279 . S
C1198 C1196 1.353 . S
C1198 C1201 1.348 . S
C1198 H1230 0.929 . S
C1199 C1200 1.358 . S
C1199 C1201 1.356 . S
C1199 H1231 0.930 . S
C1200 N1197 1.279 . S
C1200 C1199 1.358 . S
C1200 H1203 0.930 . S
C1201 C1198 1.348 . S
C1201 C1199 1.356 . S
H1202 C1196 0.930 . S
H1203 C1200 0.930 . S
O1204 Li1144 1.998 . S
O1204 Li1145 1.941 1_455 S
O1204 Li1146 1.961 . S
O1204 C1148 1.325 . S
O1205 Li1144 1.926 1_655 S
O1205 Li1145 1.983 . S
O1205 Li1147 1.961 . S
O1205 C1154 1.325 . S
O1206 Li1144 1.958 1_655 S
O1206 Li1146 1.933 1_655 S
O1206 Li1147 1.992 . S
O1206 C1176 1.324 1_655 S
O1207 Li1145 1.958 1_455 S
O1207 Li1146 2.005 . S
O1207 Li1147 1.919 1_455 S
O1207 C1182 1.324 . S
H1208 C1150 0.929 . S
H1209 C1151 0.930 . S
H1210 C1152 0.930 . S
H1211 C1153 0.930 . S
H1212 C1155 0.930 . S
H1213 C1157 0.929 . S
H1214 C1158 0.930 . S
H1215 C1159 0.930 . S
H1216 C1162 0.930 . S
H1217 C1165 0.929 . S
H1218 C1170 0.929 . S
H1219 C1171 0.930 . S
H1220 C1178 0.929 . S
H1221 C1179 0.930 . S
H1222 C1180 0.930 . S
H1223 C1181 0.930 . S
H1224 C1183 0.929 . S
H1225 C1184 0.930 . S
H1226 C1185 0.930 . S
H1227 C1186 0.930 . S
H1228 C1190 0.929 . S
H1229 C1192 0.930 . S
H1230 C1198 0.929 . S
H1231 C1199 0.930 . S
Li1232 N1249 1.990 . S
Li1232 O1292 1.956 . S
Li1232 O1293 1.970 . S
Li1232 O1294 1.961 . S
Li1233 N1257 1.990 . S
Li1233 O1292 1.970 . S
Li1233 O1293 1.956 . S
Li1233 O1295 1.961 . S
Li1234 N1279 1.990 . S
Li1234 O1292 1.961 . S
Li1234 O1294 1.956 . S
Li1234 O1295 1.970 . S
Li1235 N1285 1.990 . S
Li1235 O1293 1.961 . S
Li1235 O1294 1.970 . S
Li1235 O1295 1.956 . S
C1236 C1238 1.348 . S
C1236 C1239 1.356 . S
C1236 O1292 1.325 . S
N1237 C1240 1.314 . S
N1237 C1241 1.279 . S
C1238 C1236 1.348 . S
C1238 C1240 1.353 . S
C1238 H1296 0.929 . S
C1239 C1236 1.356 . S
C1239 C1241 1.358 . S
C1239 H1297 0.930 . S
C1240 N1237 1.314 . S
C1240 C1238 1.353 . S
C1240 H1298 0.930 . S
C1241 N1237 1.279 . S
C1241 C1239 1.358 . S
C1241 H1299 0.930 . S
C1242 C1245 1.348 . S
C1242 C1246 1.356 . S
C1242 O1293 1.325 . S
C1243 N1244 1.279 . S
C1243 C1246 1.358 . S
C1243 H1300 0.930 . S
N1244 C1243 1.279 . S
N1244 C1247 1.314 . S
C1245 C1242 1.348 . S
C1245 C1247 1.353 . S
C1245 H1301 0.929 . S
C1246 C1242 1.356 . S
C1246 C1243 1.358 . S
C1246 H1302 0.930 . S
C1247 N1244 1.314 . S
C1247 C1245 1.353 . S
C1247 H1303 0.930 . S
C1248 N1249 1.314 . S
C1248 C1253 1.353 . S
C1248 H1254 0.930 . S
N1249 Li1232 1.990 . S
N1249 C1248 1.314 . S
N1249 C1251 1.279 . S
C1250 C1251 1.358 . S
C1250 C1252 1.356 . S
C1250 H1304 0.930 . S
C1251 N1249 1.279 . S
C1251 C1250 1.358 . S
C1251 H1255 0.930 . S
C1252 C1250 1.356 . S
C1252 C1253 1.348 . S
C1253 C1248 1.353 . S
C1253 C1252 1.348 . S
C1253 H1305 0.929 . S
H1254 C1248 0.930 . S
H1255 C1251 0.930 . S
C1256 N1257 1.314 . S
C1256 C1258 1.353 . S
C1256 H1262 0.930 . S
N1257 Li1233 1.990 . S
N1257 C1256 1.314 . S
N1257 C1260 1.279 . S
C1258 C1256 1.353 . S
C1258 C1261 1.348 . S
C1258 H1306 0.929 . S
C1259 C1260 1.358 . S
C1259 C1261 1.356 . S
C1259 H1307 0.930 . S
C1260 N1257 1.279 . S
C1260 C1259 1.358 . S
C1260 H1263 0.930 . S
C1261 C1258 1.348 . S
C1261 C1259 1.356 . S
H1262 C1256 0.930 . S
H1263 C1260 0.930 . S
C1264 C1266 1.348 . S
C1264 C1267 1.356 . S
C1264 O1294 1.325 . S
N1265 C1268 1.314 . S
N1265 C1269 1.279 . S
C1266 C1264 1.348 . S
C1266 C1268 1.353 . S
C1266 H1308 0.929 . S
C1267 C1264 1.356 . S
C1267 C1269 1.358 . S
C1267 H1309 0.930 . S
C1268 N1265 1.314 . S
C1268 C1266 1.353 . S
C1268 H1310 0.930 . S
C1269 N1265 1.279 . S
C1269 C1267 1.358 . S
C1269 H1311 0.930 . S
C1270 C1271 1.348 . S
C1270 C1272 1.356 . S
C1270 O1295 1.325 . S
C1271 C1270 1.348 . S
C1271 C1273 1.353 . S
C1271 H1312 0.929 . S
C1272 C1270 1.356 . S
C1272 C1274 1.358 . S
C1272 H1313 0.930 . S
C1273 C1271 1.353 . S
C1273 N1275 1.314 . S
C1273 H1314 0.930 . S
C1274 C1272 1.358 . S
C1274 N1275 1.279 . S
C1274 H1315 0.930 . S
N1275 C1273 1.314 . S
N1275 C1274 1.279 . S
C1276 C1278 1.353 . S
C1276 N1279 1.314 . S
C1276 H1282 0.930 . S
C1277 N1279 1.279 . S
C1277 C1280 1.358 . S
C1277 H1283 0.930 . S
C1278 C1276 1.353 . S
C1278 C1281 1.348 . S
C1278 H1316 0.929 . S
N1279 Li1234 1.990 . S
N1279 C1276 1.314 . S
N1279 C1277 1.279 . S
C1280 C1277 1.358 . S
C1280 C1281 1.356 . S
C1280 H1317 0.930 . S
C1281 C1278 1.348 . S
C1281 C1280 1.356 . S
H1282 C1276 0.930 . S
H1283 C1277 0.930 . S
C1284 N1285 1.314 . S
C1284 C1286 1.353 . S
C1284 H1290 0.930 . S
N1285 Li1235 1.990 . S
N1285 C1284 1.314 . S
N1285 C1288 1.279 . S
C1286 C1284 1.353 . S
C1286 C1289 1.348 . S
C1286 H1318 0.929 . S
C1287 C1288 1.358 . S
C1287 C1289 1.356 . S
C1287 H1319 0.930 . S
C1288 N1285 1.279 . S
C1288 C1287 1.358 . S
C1288 H1291 0.930 . S
C1289 C1286 1.348 . S
C1289 C1287 1.356 . S
H1290 C1284 0.930 . S
H1291 C1288 0.930 . S
O1292 Li1232 1.956 . S
O1292 Li1233 1.970 . S
O1292 Li1234 1.961 . S
O1292 C1236 1.325 . S
O1293 Li1232 1.970 . S
O1293 Li1233 1.956 . S
O1293 Li1235 1.961 . S
O1293 C1242 1.325 . S
O1294 Li1232 1.961 . S
O1294 Li1234 1.956 . S
O1294 Li1235 1.970 . S
O1294 C1264 1.325 . S
O1295 Li1233 1.961 . S
O1295 Li1234 1.970 . S
O1295 Li1235 1.956 . S
O1295 C1270 1.325 . S
H1296 C1238 0.929 . S
H1297 C1239 0.930 . S
H1298 C1240 0.930 . S
H1299 C1241 0.930 . S
H1300 C1243 0.930 . S
H1301 C1245 0.929 . S
H1302 C1246 0.930 . S
H1303 C1247 0.930 . S
H1304 C1250 0.930 . S
H1305 C1253 0.929 . S
H1306 C1258 0.929 . S
H1307 C1259 0.930 . S
H1308 C1266 0.929 . S
H1309 C1267 0.930 . S
H1310 C1268 0.930 . S
H1311 C1269 0.930 . S
H1312 C1271 0.929 . S
H1313 C1272 0.930 . S
H1314 C1273 0.930 . S
H1315 C1274 0.930 . S
H1316 C1278 0.929 . S
H1317 C1280 0.930 . S
H1318 C1286 0.929 . S
H1319 C1287 0.930 . S
Li1320 N1337 1.990 . S
Li1320 O1380 1.933 1_455 S
Li1320 O1381 2.005 . S
Li1320 O1382 1.961 . S
Li1321 N1345 1.990 . S
Li1321 O1380 1.992 . S
Li1321 O1381 1.919 1_655 S
Li1321 O1383 1.961 . S
Li1322 N1367 1.994 . S
Li1322 O1380 1.958 1_455 S
Li1322 O1382 1.998 . S
Li1322 O1383 1.926 1_455 S
Li1323 N1373 1.992 . S
Li1323 O1381 1.958 1_655 S
Li1323 O1382 1.941 1_655 S
Li1323 O1383 1.983 . S
C1324 C1326 1.348 1_455 S
C1324 C1327 1.356 . S
C1324 O1380 1.324 1_455 S
N1325 C1328 1.314 1_454 S
N1325 C1329 1.279 1_554 S
C1326 C1324 1.348 1_655 S
C1326 C1328 1.353 . S
C1326 H1384 0.929 . S
C1327 C1324 1.356 . S
C1327 C1329 1.358 . S
C1327 H1385 0.930 . S
C1328 N1325 1.314 1_656 S
C1328 C1326 1.353 . S
C1328 H1386 0.930 . S
C1329 N1325 1.279 1_556 S
C1329 C1327 1.358 . S
C1329 H1387 0.930 1_556 S
C1330 C1333 1.348 . S
C1330 C1334 1.356 1_455 S
C1330 O1381 1.324 . S
C1331 N1332 1.279 . S
C1331 C1334 1.358 . S
C1331 H1388 0.930 . S
N1332 C1331 1.279 . S
N1332 C1335 1.314 1_655 S
C1333 C1330 1.348 . S
C1333 C1335 1.353 . S
C1333 H1389 0.929 . S
C1334 C1330 1.356 1_655 S
C1334 C1331 1.358 . S
C1334 H1390 0.930 . S
C1335 N1332 1.314 1_455 S
C1335 C1333 1.353 . S
C1335 H1391 0.930 . S
C1336 N1337 1.314 . S
C1336 C1341 1.353 . S
C1336 H1342 0.930 . S
N1337 Li1320 1.990 . S
N1337 C1336 1.314 . S
N1337 C1339 1.279 . S
C1338 C1339 1.358 . S
C1338 C1340 1.356 . S
C1338 H1392 0.930 . S
C1339 N1337 1.279 . S
C1339 C1338 1.358 . S
C1339 H1343 0.930 . S
C1340 C1338 1.356 . S
C1340 C1341 1.348 . S
C1341 C1336 1.353 . S
C1341 C1340 1.348 . S
C1341 H1393 0.929 . S
H1342 C1336 0.930 . S
H1343 C1339 0.930 . S
C1344 N1345 1.314 . S
C1344 C1346 1.353 . S
C1344 H1350 0.930 . S
N1345 Li1321 1.990 . S
N1345 C1344 1.314 . S
N1345 C1348 1.279 . S
C1346 C1344 1.353 . S
C1346 C1349 1.348 . S
C1346 H1394 0.929 . S
C1347 C1348 1.358 . S
C1347 C1349 1.356 . S
C1347 H1395 0.930 . S
C1348 N1345 1.279 . S
C1348 C1347 1.358 . S
C1348 H1351 0.930 . S
C1349 C1346 1.348 . S
C1349 C1347 1.356 . S
H1350 C1344 0.930 . S
H1351 C1348 0.930 . S
C1352 C1354 1.348 . S
C1352 C1355 1.356 . S
C1352 O1382 1.325 . S
N1353 C1356 1.314 . S
N1353 C1357 1.279 . S
C1354 C1352 1.348 . S
C1354 C1356 1.353 . S
C1354 H1396 0.929 . S
C1355 C1352 1.356 . S
C1355 C1357 1.358 . S
C1355 H1397 0.930 . S
C1356 N1353 1.314 . S
C1356 C1354 1.353 . S
C1356 H1398 0.930 . S
C1357 N1353 1.279 . S
C1357 C1355 1.358 . S
C1357 H1399 0.930 . S
C1358 C1359 1.348 . S
C1358 C1360 1.356 . S
C1358 O1383 1.325 . S
C1359 C1358 1.348 . S
C1359 C1361 1.353 . S
C1359 H1400 0.929 . S
C1360 C1358 1.356 . S
C1360 C1362 1.358 . S
C1360 H1401 0.930 . S
C1361 C1359 1.353 . S
C1361 N1363 1.314 . S
C1361 H1402 0.930 . S
C1362 C1360 1.358 . S
C1362 N1363 1.279 . S
C1362 H1403 0.930 . S
N1363 C1361 1.314 . S
N1363 C1362 1.279 . S
C1364 C1366 1.353 . S
C1364 N1367 1.314 1_655 S
C1364 H1370 0.930 . S
C1365 N1367 1.279 . S
C1365 C1368 1.358 . S
C1365 H1371 0.930 . S
C1366 C1364 1.353 . S
C1366 C1369 1.348 1_655 S
C1366 H1404 0.929 1_556 S
N1367 Li1322 1.994 . S
N1367 C1364 1.314 1_455 S
N1367 C1365 1.279 . S
C1368 C1365 1.358 . S
C1368 C1369 1.356 . S
C1368 H1405 0.930 . S
C1369 C1366 1.348 1_455 S
C1369 C1368 1.356 . S
H1370 C1364 0.930 . S
H1371 C1365 0.930 . S
C1372 N1373 1.314 1_455 S
C1372 C1374 1.353 . S
C1372 H1378 0.930 . S
N1373 Li1323 1.992 . S
N1373 C1372 1.314 1_655 S
N1373 C1376 1.279 . S
C1374 C1372 1.353 . S
C1374 C1377 1.348 . S
C1374 H1406 0.929 . S
C1375 C1376 1.358 . S
C1375 C1377 1.356 1_655 S
C1375 H1407 0.930 . S
C1376 N1373 1.279 . S
C1376 C1375 1.358 . S
C1376 H1379 0.930 . S
C1377 C1374 1.348 . S
C1377 C1375 1.356 1_455 S
H1378 C1372 0.930 . S
H1379 C1376 0.930 . S
O1380 Li1320 1.933 1_655 S
O1380 Li1321 1.992 . S
O1380 Li1322 1.958 1_655 S
O1380 C1324 1.324 1_655 S
O1381 Li1320 2.005 . S
O1381 Li1321 1.919 1_455 S
O1381 Li1323 1.958 1_455 S
O1381 C1330 1.324 . S
O1382 Li1320 1.961 . S
O1382 Li1322 1.998 . S
O1382 Li1323 1.941 1_455 S
O1382 C1352 1.325 . S
O1383 Li1321 1.961 . S
O1383 Li1322 1.926 1_655 S
O1383 Li1323 1.983 . S
O1383 C1358 1.325 . S
H1384 C1326 0.929 . S
H1385 C1327 0.930 . S
H1386 C1328 0.930 . S
H1387 C1329 0.930 1_554 S
H1388 C1331 0.930 . S
H1389 C1333 0.929 . S
H1390 C1334 0.930 . S
H1391 C1335 0.930 . S
H1392 C1338 0.930 . S
H1393 C1341 0.929 . S
H1394 C1346 0.929 . S
H1395 C1347 0.930 . S
H1396 C1354 0.929 . S
H1397 C1355 0.930 . S
H1398 C1356 0.930 . S
H1399 C1357 0.930 . S
H1400 C1359 0.929 . S
H1401 C1360 0.930 . S
H1402 C1361 0.930 . S
H1403 C1362 0.930 . S
H1404 C1366 0.929 1_554 S
H1405 C1368 0.930 . S
H1406 C1374 0.929 . S
H1407 C1375 0.930 . S
H1408 C1416 0.929 . S
H1409 C1418 0.930 . S
H1410 C1420 0.930 . S
H1411 C1423 0.929 . S
H1412 C1426 0.930 . S
H1413 C1428 0.960 . S
H1414 C1428 0.960 . S
H1415 C1428 0.960 . S
C1416 H1408 0.929 . S
C1416 C1417 1.377 . S
C1416 C1418 1.384 . S
C1417 C1416 1.377 . S
C1417 C1423 1.390 . S
C1418 H1409 0.930 . S
C1418 C1416 1.384 . S
C1418 C1419 1.372 . S
C1419 C1418 1.372 . S
C1419 C1420 1.400 . S
C1419 C1424 1.490 . S
C1420 H1410 0.930 . S
C1420 C1419 1.400 . S
C1420 C1423 1.386 . S
H1421 C1437 0.930 . S
H1422 C1438 0.931 . S
C1423 H1411 0.929 . S
C1423 C1417 1.390 . S
C1423 C1420 1.386 . S
C1424 C1419 1.490 . S
C1424 C1426 1.395 . S
C1424 C1427 1.403 . S
H1425 C1431 0.930 . S
C1426 H1412 0.930 . S
C1426 C1424 1.395 . S
C1426 C1429 1.403 . S
C1427 C1424 1.403 . S
C1427 C1428 1.524 . S
C1427 C1431 1.400 . S
C1428 H1413 0.960 . S
C1428 H1414 0.960 . S
C1428 H1415 0.960 . S
C1428 C1427 1.524 . S
C1429 C1426 1.403 . S
C1429 C1430 1.392 . S
C1429 C1433 1.495 . S
C1430 C1429 1.392 . S
C1430 C1431 1.385 . S
C1430 C1432 1.478 . S
C1431 H1425 0.930 . S
C1431 C1427 1.400 . S
C1431 C1430 1.385 . S
C1432 C1430 1.478 . S
C1432 C1434 1.381 . S
C1432 C1438 1.383 . S
C1433 C1429 1.495 . S
C1433 H1439 0.959 . S
C1433 H1440 0.961 . S
C1433 H1441 0.960 . S
C1434 C1432 1.381 . S
C1434 C1435 1.394 . S
C1434 H1442 0.930 . S
C1435 C1434 1.394 . S
C1435 C1436 1.383 . S
C1435 H1443 0.929 . S
C1436 C1435 1.383 . S
C1436 C1437 1.377 . S
C1437 H1421 0.930 . S
C1437 C1436 1.377 . S
C1437 C1438 1.379 . S
C1438 H1422 0.931 . S
C1438 C1432 1.383 . S
C1438 C1437 1.379 . S
H1439 C1433 0.959 . S
H1440 C1433 0.961 . S
H1441 C1433 0.960 . S
H1442 C1434 0.930 . S
H1443 C1435 0.929 . S
H1444 C1452 0.929 . S
H1445 C1454 0.930 . S
H1446 C1456 0.930 . S
H1447 C1459 0.929 . S
H1448 C1462 0.930 . S
H1449 C1464 0.960 . S
H1450 C1464 0.960 . S
H1451 C1464 0.960 . S
C1452 H1444 0.929 . S
C1452 C1453 1.377 . S
C1452 C1454 1.384 . S
C1453 C1452 1.377 . S
C1453 C1459 1.390 . S
C1454 H1445 0.930 . S
C1454 C1452 1.384 . S
C1454 C1455 1.372 . S
C1455 C1454 1.372 . S
C1455 C1456 1.400 . S
C1455 C1460 1.490 . S
C1456 H1446 0.930 . S
C1456 C1455 1.400 . S
C1456 C1459 1.386 . S
H1457 C1473 0.930 . S
H1458 C1474 0.931 . S
C1459 H1447 0.929 . S
C1459 C1453 1.390 . S
C1459 C1456 1.386 . S
C1460 C1455 1.490 . S
C1460 C1462 1.395 . S
C1460 C1463 1.403 . S
H1461 C1467 0.930 . S
C1462 H1448 0.930 . S
C1462 C1460 1.395 . S
C1462 C1465 1.403 . S
C1463 C1460 1.403 . S
C1463 C1464 1.524 . S
C1463 C1467 1.400 . S
C1464 H1449 0.960 . S
C1464 H1450 0.960 . S
C1464 H1451 0.960 . S
C1464 C1463 1.524 . S
C1465 C1462 1.403 . S
C1465 C1466 1.392 . S
C1465 C1469 1.495 . S
C1466 C1465 1.392 . S
C1466 C1467 1.385 . S
C1466 C1468 1.478 . S
C1467 H1461 0.930 . S
C1467 C1463 1.400 . S
C1467 C1466 1.385 . S
C1468 C1466 1.478 . S
C1468 C1470 1.381 . S
C1468 C1474 1.383 . S
C1469 C1465 1.495 . S
C1469 H1475 0.959 . S
C1469 H1476 0.961 . S
C1469 H1477 0.960 . S
C1470 C1468 1.381 . S
C1470 C1471 1.394 . S
C1470 H1478 0.930 . S
C1471 C1470 1.394 . S
C1471 C1472 1.383 . S
C1471 H1479 0.929 . S
C1472 C1471 1.383 . S
C1472 C1473 1.377 . S
C1473 H1457 0.930 . S
C1473 C1472 1.377 . S
C1473 C1474 1.379 . S
C1474 H1458 0.931 . S
C1474 C1468 1.383 . S
C1474 C1473 1.379 . S
H1475 C1469 0.959 . S
H1476 C1469 0.961 . S
H1477 C1469 0.960 . S
H1478 C1470 0.930 . S
H1479 C1471 0.929 . S
H1480 C1488 0.929 . S
H1481 C1490 0.930 . S
H1482 C1492 0.930 . S
H1483 C1495 0.929 . S
H1484 C1498 0.930 . S
H1485 C1500 0.960 . S
H1486 C1500 0.960 . S
H1487 C1500 0.960 . S
C1488 H1480 0.929 . S
C1488 C1489 1.377 . S
C1488 C1490 1.384 . S
C1489 C1488 1.377 . S
C1489 C1495 1.390 . S
C1490 H1481 0.930 . S
C1490 C1488 1.384 . S
C1490 C1491 1.372 . S
C1491 C1490 1.372 . S
C1491 C1492 1.400 . S
C1491 C1496 1.490 . S
C1492 H1482 0.930 . S
C1492 C1491 1.400 . S
C1492 C1495 1.386 . S
H1493 C1509 0.930 . S
H1494 C1510 0.931 . S
C1495 H1483 0.929 . S
C1495 C1489 1.390 . S
C1495 C1492 1.386 . S
C1496 C1491 1.490 . S
C1496 C1498 1.395 . S
C1496 C1499 1.403 . S
H1497 C1503 0.930 . S
C1498 H1484 0.930 . S
C1498 C1496 1.395 . S
C1498 C1501 1.403 . S
C1499 C1496 1.403 . S
C1499 C1500 1.524 . S
C1499 C1503 1.400 . S
C1500 H1485 0.960 . S
C1500 H1486 0.960 . S
C1500 H1487 0.960 . S
C1500 C1499 1.524 . S
C1501 C1498 1.403 . S
C1501 C1502 1.392 . S
C1501 C1505 1.495 . S
C1502 C1501 1.392 . S
C1502 C1503 1.385 . S
C1502 C1504 1.478 . S
C1503 H1497 0.930 . S
C1503 C1499 1.400 . S
C1503 C1502 1.385 . S
C1504 C1502 1.478 . S
C1504 C1506 1.381 . S
C1504 C1510 1.383 . S
C1505 C1501 1.495 . S
C1505 H1511 0.959 . S
C1505 H1512 0.961 . S
C1505 H1513 0.960 . S
C1506 C1504 1.381 . S
C1506 C1507 1.394 . S
C1506 H1514 0.930 . S
C1507 C1506 1.394 . S
C1507 C1508 1.383 . S
C1507 H1515 0.929 . S
C1508 C1507 1.383 . S
C1508 C1509 1.377 . S
C1509 H1493 0.930 . S
C1509 C1508 1.377 . S
C1509 C1510 1.379 . S
C1510 H1494 0.931 . S
C1510 C1504 1.383 . S
C1510 C1509 1.379 . S
H1511 C1505 0.959 . S
H1512 C1505 0.961 . S
H1513 C1505 0.960 . S
H1514 C1506 0.930 . S
H1515 C1507 0.929 . S
H1516 C1524 0.929 . S
H1517 C1526 0.930 . S
H1518 C1528 0.930 . S
H1519 C1531 0.929 . S
H1520 C1534 0.930 . S
H1521 C1536 0.960 . S
H1522 C1536 0.960 . S
H1523 C1536 0.960 . S
C1524 H1516 0.929 . S
C1524 C1525 1.377 1_554 S
C1524 C1526 1.384 . S
C1525 C1524 1.377 1_556 S
C1525 C1531 1.390 . S
C1526 H1517 0.930 . S
C1526 C1524 1.384 . S
C1526 C1527 1.372 1_554 S
C1527 C1526 1.372 1_556 S
C1527 C1528 1.400 . S
C1527 C1532 1.490 . S
C1528 H1518 0.930 . S
C1528 C1527 1.400 . S
C1528 C1531 1.386 . S
H1529 C1545 0.930 . S
H1530 C1546 0.931 . S
C1531 H1519 0.929 . S
C1531 C1525 1.390 . S
C1531 C1528 1.386 . S
C1532 C1527 1.490 . S
C1532 C1534 1.395 . S
C1532 C1535 1.403 . S
H1533 C1539 0.930 . S
C1534 H1520 0.930 . S
C1534 C1532 1.395 . S
C1534 C1537 1.403 . S
C1535 C1532 1.403 . S
C1535 C1536 1.524 . S
C1535 C1539 1.400 . S
C1536 H1521 0.960 . S
C1536 H1522 0.960 . S
C1536 H1523 0.960 . S
C1536 C1535 1.524 . S
C1537 C1534 1.403 . S
C1537 C1538 1.392 . S
C1537 C1541 1.495 . S
C1538 C1537 1.392 . S
C1538 C1539 1.385 . S
C1538 C1540 1.478 . S
C1539 H1533 0.930 . S
C1539 C1535 1.400 . S
C1539 C1538 1.385 . S
C1540 C1538 1.478 . S
C1540 C1542 1.381 . S
C1540 C1546 1.383 . S
C1541 C1537 1.495 . S
C1541 H1547 0.963 . S
C1541 H1548 0.961 . S
C1541 H1549 0.960 . S
C1542 C1540 1.381 . S
C1542 C1543 1.394 . S
C1542 H1550 0.930 . S
C1543 C1542 1.394 . S
C1543 C1544 1.383 . S
C1543 H1551 0.929 . S
C1544 C1543 1.383 . S
C1544 C1545 1.377 . S
C1545 H1529 0.930 . S
C1545 C1544 1.377 . S
C1545 C1546 1.379 . S
C1546 H1530 0.931 . S
C1546 C1540 1.383 . S
C1546 C1545 1.379 . S
H1547 C1541 0.963 . S
H1548 C1541 0.961 . S
H1549 C1541 0.960 . S
H1550 C1542 0.930 . S
H1551 C1543 0.929 . S
H1552 C1560 0.929 . S
H1553 C1562 0.930 . S
H1554 C1564 0.930 . S
H1555 C1567 0.929 . S
H1556 C1570 0.930 . S
H1557 C1572 0.960 . S
H1558 C1572 0.960 . S
H1559 C1572 0.960 . S
C1560 H1552 0.929 . S
C1560 C1561 1.377 . S
C1560 C1562 1.384 . S
C1561 C1560 1.377 . S
C1561 C1567 1.390 . S
C1562 H1553 0.930 . S
C1562 C1560 1.384 . S
C1562 C1563 1.372 . S
C1563 C1562 1.372 . S
C1563 C1564 1.400 . S
C1563 C1568 1.490 . S
C1564 H1554 0.930 . S
C1564 C1563 1.400 . S
C1564 C1567 1.386 . S
H1565 C1581 0.930 . S
H1566 C1582 0.931 . S
C1567 H1555 0.929 . S
C1567 C1561 1.390 . S
C1567 C1564 1.386 . S
C1568 C1563 1.490 . S
C1568 C1570 1.395 . S
C1568 C1571 1.403 . S
H1569 C1575 0.930 . S
C1570 H1556 0.930 . S
C1570 C1568 1.395 . S
C1570 C1573 1.403 . S
C1571 C1568 1.403 . S
C1571 C1572 1.524 . S
C1571 C1575 1.400 . S
C1572 H1557 0.960 . S
C1572 H1558 0.960 . S
C1572 H1559 0.960 . S
C1572 C1571 1.524 . S
C1573 C1570 1.403 . S
C1573 C1574 1.392 . S
C1573 C1577 1.495 1_556 S
C1574 C1573 1.392 . S
C1574 C1575 1.385 . S
C1574 C1576 1.478 . S
C1575 H1569 0.930 . S
C1575 C1571 1.400 . S
C1575 C1574 1.385 . S
C1576 C1574 1.478 . S
C1576 C1578 1.381 . S
C1576 C1582 1.383 . S
C1577 C1573 1.495 1_554 S
C1577 H1583 0.959 . S
C1577 H1584 0.961 . S
C1577 H1585 0.960 . S
C1578 C1576 1.381 . S
C1578 C1579 1.394 1_556 S
C1578 H1586 0.925 1_556 S
C1579 C1578 1.394 1_554 S
C1579 C1580 1.378 1_554 S
C1579 H1587 0.929 . S
C1580 C1579 1.378 1_556 S
C1580 C1581 1.392 . S
C1581 H1565 0.930 . S
C1581 C1580 1.392 . S
C1581 C1582 1.379 . S
C1582 H1566 0.931 . S
C1582 C1576 1.383 . S
C1582 C1581 1.379 . S
H1583 C1577 0.959 . S
H1584 C1577 0.961 . S
H1585 C1577 0.960 . S
H1586 C1578 0.925 1_554 S
H1587 C1579 0.929 . S
H1588 C1596 0.929 . S
H1589 C1598 0.930 . S
H1590 C1600 0.930 . S
H1591 C1603 0.929 . S
H1592 C1606 0.930 . S
H1593 C1608 0.960 . S
H1594 C1608 0.960 . S
H1595 C1608 0.960 . S
C1596 H1588 0.929 . S
C1596 C1597 1.377 . S
C1596 C1598 1.384 . S
C1597 C1596 1.377 . S
C1597 C1603 1.390 . S
C1598 H1589 0.930 . S
C1598 C1596 1.384 . S
C1598 C1599 1.372 . S
C1599 C1598 1.372 . S
C1599 C1600 1.400 . S
C1599 C1604 1.490 . S
C1600 H1590 0.930 . S
C1600 C1599 1.400 . S
C1600 C1603 1.386 . S
H1601 C1617 0.930 . S
H1602 C1618 0.931 . S
C1603 H1591 0.929 . S
C1603 C1597 1.390 . S
C1603 C1600 1.386 . S
C1604 C1599 1.490 . S
C1604 C1606 1.395 . S
C1604 C1607 1.403 . S
H1605 C1611 0.930 . S
C1606 H1592 0.930 . S
C1606 C1604 1.395 . S
C1606 C1609 1.403 . S
C1607 C1604 1.403 . S
C1607 C1608 1.524 . S
C1607 C1611 1.400 . S
C1608 H1593 0.960 . S
C1608 H1594 0.960 . S
C1608 H1595 0.960 . S
C1608 C1607 1.524 . S
C1609 C1606 1.403 . S
C1609 C1610 1.392 . S
C1609 C1613 1.495 . S
C1610 C1609 1.392 . S
C1610 C1611 1.385 . S
C1610 C1612 1.478 . S
C1611 H1605 0.930 . S
C1611 C1607 1.400 . S
C1611 C1610 1.385 . S
C1612 C1610 1.478 . S
C1612 C1614 1.381 . S
C1612 C1618 1.383 . S
C1613 C1609 1.495 . S
C1613 H1619 0.959 . S
C1613 H1620 0.961 . S
C1613 H1621 0.960 . S
C1614 C1612 1.381 . S
C1614 C1615 1.394 . S
C1614 H1622 0.930 . S
C1615 C1614 1.394 . S
C1615 C1616 1.383 . S
C1615 H1623 0.929 . S
C1616 C1615 1.383 . S
C1616 C1617 1.377 . S
C1617 H1601 0.930 . S
C1617 C1616 1.377 . S
C1617 C1618 1.379 . S
C1618 H1602 0.931 . S
C1618 C1612 1.383 . S
C1618 C1617 1.379 . S
H1619 C1613 0.959 . S
H1620 C1613 0.961 . S
H1621 C1613 0.960 . S
H1622 C1614 0.930 . S
H1623 C1615 0.929 . S
H1624 C1632 0.929 . S
H1625 C1634 0.930 . S
H1626 C1636 0.930 . S
H1627 C1639 0.929 . S
H1628 C1642 0.930 . S
H1629 C1644 0.960 . S
H1630 C1644 0.960 . S
H1631 C1644 0.960 . S
C1632 H1624 0.929 . S
C1632 C1633 1.377 . S
C1632 C1634 1.384 . S
C1633 C1632 1.377 . S
C1633 C1639 1.390 . S
C1634 H1625 0.930 . S
C1634 C1632 1.384 . S
C1634 C1635 1.372 . S
C1635 C1634 1.372 . S
C1635 C1636 1.400 . S
C1635 C1640 1.490 . S
C1636 H1626 0.930 . S
C1636 C1635 1.400 . S
C1636 C1639 1.386 . S
H1637 C1653 0.930 . S
H1638 C1654 0.931 . S
C1639 H1627 0.929 . S
C1639 C1633 1.390 . S
C1639 C1636 1.386 . S
C1640 C1635 1.490 . S
C1640 C1642 1.395 . S
C1640 C1643 1.403 . S
H1641 C1647 0.930 . S
C1642 H1628 0.930 . S
C1642 C1640 1.395 . S
C1642 C1645 1.403 . S
C1643 C1640 1.403 . S
C1643 C1644 1.524 . S
C1643 C1647 1.400 . S
C1644 H1629 0.960 . S
C1644 H1630 0.960 . S
C1644 H1631 0.960 . S
C1644 C1643 1.524 . S
C1645 C1642 1.403 . S
C1645 C1646 1.392 . S
C1645 C1649 1.495 . S
C1646 C1645 1.392 . S
C1646 C1647 1.385 . S
C1646 C1648 1.478 . S
C1647 H1641 0.930 . S
C1647 C1643 1.400 . S
C1647 C1646 1.385 . S
C1648 C1646 1.478 . S
C1648 C1650 1.381 . S
C1648 C1654 1.383 . S
C1649 C1645 1.495 . S
C1649 H1655 0.959 . S
C1649 H1656 0.961 . S
C1649 H1657 0.960 . S
C1650 C1648 1.381 . S
C1650 C1651 1.394 . S
C1650 H1658 0.930 . S
C1651 C1650 1.394 . S
C1651 C1652 1.383 . S
C1651 H1659 0.929 . S
C1652 C1651 1.383 . S
C1652 C1653 1.377 . S
C1653 H1637 0.930 . S
C1653 C1652 1.377 . S
C1653 C1654 1.379 . S
C1654 H1638 0.931 . S
C1654 C1648 1.383 . S
C1654 C1653 1.379 . S
H1655 C1649 0.959 . S
H1656 C1649 0.961 . S
H1657 C1649 0.960 . S
H1658 C1650 0.930 . S
H1659 C1651 0.929 . S
H1660 C1668 0.929 . S
H1661 C1670 0.930 . S
H1662 C1672 0.930 . S
H1663 C1675 0.929 . S
H1664 C1678 0.930 . S
H1665 C1680 0.960 . S
H1666 C1680 0.960 . S
H1667 C1680 0.960 . S
C1668 H1660 0.929 . S
C1668 C1669 1.377 . S
C1668 C1670 1.384 . S
C1669 C1668 1.377 . S
C1669 C1675 1.390 . S
C1670 H1661 0.930 . S
C1670 C1668 1.384 . S
C1670 C1671 1.372 . S
C1671 C1670 1.372 . S
C1671 C1672 1.400 . S
C1671 C1676 1.490 . S
C1672 H1662 0.930 . S
C1672 C1671 1.400 . S
C1672 C1675 1.386 . S
H1673 C1689 0.930 . S
H1674 C1690 0.931 . S
C1675 H1663 0.929 . S
C1675 C1669 1.390 . S
C1675 C1672 1.386 . S
C1676 C1671 1.490 . S
C1676 C1678 1.395 . S
C1676 C1679 1.403 . S
H1677 C1683 0.930 . S
C1678 H1664 0.930 . S
C1678 C1676 1.395 . S
C1678 C1681 1.403 . S
C1679 C1676 1.403 . S
C1679 C1680 1.524 . S
C1679 C1683 1.400 . S
C1680 H1665 0.960 . S
C1680 H1666 0.960 . S
C1680 H1667 0.960 . S
C1680 C1679 1.524 . S
C1681 C1678 1.403 . S
C1681 C1682 1.392 . S
C1681 C1685 1.495 . S
C1682 C1681 1.392 . S
C1682 C1683 1.385 . S
C1682 C1684 1.478 . S
C1683 H1677 0.930 . S
C1683 C1679 1.400 . S
C1683 C1682 1.385 . S
C1684 C1682 1.478 . S
C1684 C1686 1.381 . S
C1684 C1690 1.383 . S
C1685 C1681 1.495 . S
C1685 H1691 0.959 . S
C1685 H1692 0.961 . S
C1685 H1693 0.960 . S
C1686 C1684 1.381 . S
C1686 C1687 1.394 . S
C1686 H1694 0.930 . S
C1687 C1686 1.394 . S
C1687 C1688 1.383 . S
C1687 H1695 0.929 . S
C1688 C1687 1.383 . S
C1688 C1689 1.377 . S
C1689 H1673 0.930 . S
C1689 C1688 1.377 . S
C1689 C1690 1.379 . S
C1690 H1674 0.931 . S
C1690 C1684 1.383 . S
C1690 C1689 1.379 . S
H1691 C1685 0.959 . S
H1692 C1685 0.961 . S
H1693 C1685 0.960 . S
H1694 C1686 0.930 . S
H1695 C1687 0.929 . S
H1696 C1704 0.929 . S
H1697 C1706 0.930 . S
H1698 C1708 0.930 . S
H1699 C1711 0.929 . S
H1700 C1714 0.930 . S
H1701 C1716 0.960 . S
H1702 C1716 0.960 . S
H1703 C1716 0.960 . S
C1704 H1696 0.929 . S
C1704 C1705 1.377 . S
C1704 C1706 1.384 . S
C1705 C1704 1.377 . S
C1705 C1711 1.390 . S
C1706 H1697 0.930 . S
C1706 C1704 1.384 . S
C1706 C1707 1.372 . S
C1707 C1706 1.372 . S
C1707 C1708 1.400 . S
C1707 C1712 1.490 . S
C1708 H1698 0.930 . S
C1708 C1707 1.400 . S
C1708 C1711 1.386 . S
H1709 C1725 0.930 . S
H1710 C1726 0.948 . S
C1711 H1699 0.929 . S
C1711 C1705 1.390 . S
C1711 C1708 1.386 . S
C1712 C1707 1.490 . S
C1712 C1714 1.395 . S
C1712 C1715 1.403 . S
H1713 C1719 0.930 . S
C1714 H1700 0.930 . S
C1714 C1712 1.395 . S
C1714 C1717 1.403 . S
C1715 C1712 1.403 . S
C1715 C1716 1.524 . S
C1715 C1719 1.400 . S
C1716 H1701 0.960 . S
C1716 H1702 0.960 . S
C1716 H1703 0.960 . S
C1716 C1715 1.524 . S
C1717 C1714 1.403 . S
C1717 C1718 1.392 . S
C1717 C1721 1.495 . S
C1718 C1717 1.392 . S
C1718 C1719 1.385 . S
C1718 C1720 1.478 . S
C1719 H1713 0.930 . S
C1719 C1715 1.400 . S
C1719 C1718 1.385 . S
C1720 C1718 1.478 . S
C1720 C1722 1.381 . S
C1720 C1726 1.355 1_556 S
C1721 C1717 1.495 . S
C1721 H1727 0.959 . S
C1721 H1728 0.961 . S
C1721 H1729 0.960 . S
C1722 C1720 1.381 . S
C1722 C1723 1.394 . S
C1722 H1730 0.930 . S
C1723 C1722 1.394 . S
C1723 C1724 1.383 . S
C1723 H1731 0.929 . S
C1724 C1723 1.383 . S
C1724 C1725 1.377 1_556 S
C1725 H1709 0.930 . S
C1725 C1724 1.377 1_554 S
C1725 C1726 1.391 . S
C1726 H1710 0.948 . S
C1726 C1720 1.355 1_554 S
C1726 C1725 1.391 . S
H1727 C1721 0.959 . S
H1728 C1721 0.961 . S
H1729 C1721 0.960 . S
H1730 C1722 0.930 . S
H1731 C1723 0.929 . S
H1732 C1740 0.929 . S
H1733 C1742 0.930 . S
H1734 C1744 0.930 . S
H1735 C1747 0.929 . S
H1736 C1750 0.930 . S
H1737 C1752 0.960 . S
H1738 C1752 0.960 . S
H1739 C1752 0.960 . S
C1740 H1732 0.929 . S
C1740 C1741 1.377 . S
C1740 C1742 1.384 . S
C1741 C1740 1.377 . S
C1741 C1747 1.390 . S
C1742 H1733 0.930 . S
C1742 C1740 1.384 . S
C1742 C1743 1.372 . S
C1743 C1742 1.372 . S
C1743 C1744 1.400 . S
C1743 C1748 1.490 . S
C1744 H1734 0.930 . S
C1744 C1743 1.400 . S
C1744 C1747 1.386 . S
H1745 C1761 0.930 . S
H1746 C1762 0.931 . S
C1747 H1735 0.929 . S
C1747 C1741 1.390 . S
C1747 C1744 1.386 . S
C1748 C1743 1.490 . S
C1748 C1750 1.395 . S
C1748 C1751 1.403 . S
H1749 C1755 0.930 . S
C1750 H1736 0.930 . S
C1750 C1748 1.395 . S
C1750 C1753 1.403 . S
C1751 C1748 1.403 . S
C1751 C1752 1.524 . S
C1751 C1755 1.400 . S
C1752 H1737 0.960 . S
C1752 H1738 0.960 . S
C1752 H1739 0.960 . S
C1752 C1751 1.524 . S
C1753 C1750 1.403 . S
C1753 C1754 1.392 . S
C1753 C1757 1.495 . S
C1754 C1753 1.392 . S
C1754 C1755 1.385 . S
C1754 C1756 1.478 . S
C1755 H1749 0.930 . S
C1755 C1751 1.400 . S
C1755 C1754 1.385 . S
C1756 C1754 1.478 . S
C1756 C1758 1.381 . S
C1756 C1762 1.383 . S
C1757 C1753 1.495 . S
C1757 H1763 0.959 . S
C1757 H1764 0.961 . S
C1757 H1765 0.960 . S
C1758 C1756 1.381 . S
C1758 C1759 1.394 . S
C1758 H1766 0.930 . S
C1759 C1758 1.394 . S
C1759 C1760 1.383 . S
C1759 H1767 0.929 . S
C1760 C1759 1.383 . S
C1760 C1761 1.377 . S
C1761 H1745 0.930 . S
C1761 C1760 1.377 . S
C1761 C1762 1.379 . S
C1762 H1746 0.931 . S
C1762 C1756 1.383 . S
C1762 C1761 1.379 . S
H1763 C1757 0.959 . S
H1764 C1757 0.961 . S
H1765 C1757 0.960 . S
H1766 C1758 0.930 . S
H1767 C1759 0.929 . S
H1768 C1776 0.929 . S
H1769 C1778 0.930 . S
H1770 C1780 0.930 . S
H1771 C1783 0.929 . S
H1772 C1786 0.930 . S
H1773 C1788 0.960 . S
H1774 C1788 0.960 . S
H1775 C1788 0.960 . S
C1776 H1768 0.929 . S
C1776 C1777 1.377 . S
C1776 C1778 1.384 . S
C1777 C1776 1.377 . S
C1777 C1783 1.390 . S
C1778 H1769 0.930 . S
C1778 C1776 1.384 . S
C1778 C1779 1.372 . S
C1779 C1778 1.372 . S
C1779 C1780 1.400 . S
C1779 C1784 1.490 . S
C1780 H1770 0.930 . S
C1780 C1779 1.400 . S
C1780 C1783 1.386 . S
H1781 C1797 0.930 . S
H1782 C1798 0.931 . S
C1783 H1771 0.929 . S
C1783 C1777 1.390 . S
C1783 C1780 1.386 . S
C1784 C1779 1.490 . S
C1784 C1786 1.395 . S
C1784 C1787 1.403 . S
H1785 C1791 0.930 . S
C1786 H1772 0.930 . S
C1786 C1784 1.395 . S
C1786 C1789 1.403 . S
C1787 C1784 1.403 . S
C1787 C1788 1.524 . S
C1787 C1791 1.400 . S
C1788 H1773 0.960 . S
C1788 H1774 0.960 . S
C1788 H1775 0.960 . S
C1788 C1787 1.524 . S
C1789 C1786 1.403 . S
C1789 C1790 1.392 . S
C1789 C1793 1.495 . S
C1790 C1789 1.392 . S
C1790 C1791 1.385 . S
C1790 C1792 1.478 . S
C1791 H1785 0.930 . S
C1791 C1787 1.400 . S
C1791 C1790 1.385 . S
C1792 C1790 1.478 . S
C1792 C1794 1.381 . S
C1792 C1798 1.383 . S
C1793 C1789 1.495 . S
C1793 H1799 0.959 . S
C1793 H1800 0.961 . S
C1793 H1801 0.960 . S
C1794 C1792 1.381 . S
C1794 C1795 1.394 . S
C1794 H1802 0.930 . S
C1795 C1794 1.394 . S
C1795 C1796 1.383 . S
C1795 H1803 0.929 . S
C1796 C1795 1.383 . S
C1796 C1797 1.377 . S
C1797 H1781 0.930 . S
C1797 C1796 1.377 . S
C1797 C1798 1.379 . S
C1798 H1782 0.931 . S
C1798 C1792 1.383 . S
C1798 C1797 1.379 . S
H1799 C1793 0.959 . S
H1800 C1793 0.961 . S
H1801 C1793 0.960 . S
H1802 C1794 0.930 . S
H1803 C1795 0.929 . S
H1804 C1812 0.929 . S
H1805 C1814 0.930 . S
H1806 C1816 0.930 . S
H1807 C1819 0.929 . S
H1808 C1822 0.930 . S
H1809 C1824 0.960 . S
H1810 C1824 0.960 . S
H1811 C1824 0.960 . S
C1812 H1804 0.929 . S
C1812 C1813 1.377 . S
C1812 C1814 1.384 . S
C1813 C1812 1.377 . S
C1813 C1819 1.390 . S
C1814 H1805 0.930 . S
C1814 C1812 1.384 . S
C1814 C1815 1.372 . S
C1815 C1814 1.372 . S
C1815 C1816 1.400 . S
C1815 C1820 1.490 . S
C1816 H1806 0.930 . S
C1816 C1815 1.400 . S
C1816 C1819 1.386 . S
H1817 C1833 0.930 . S
H1818 C1834 0.931 . S
C1819 H1807 0.929 . S
C1819 C1813 1.390 . S
C1819 C1816 1.386 . S
C1820 C1815 1.490 . S
C1820 C1822 1.395 . S
C1820 C1823 1.403 . S
H1821 C1827 0.930 . S
C1822 H1808 0.930 . S
C1822 C1820 1.395 . S
C1822 C1825 1.403 . S
C1823 C1820 1.403 . S
C1823 C1824 1.524 . S
C1823 C1827 1.400 . S
C1824 H1809 0.960 . S
C1824 H1810 0.960 . S
C1824 H1811 0.960 . S
C1824 C1823 1.524 . S
C1825 C1822 1.403 . S
C1825 C1826 1.392 . S
C1825 C1829 1.495 . S
C1826 C1825 1.392 . S
C1826 C1827 1.385 . S
C1826 C1828 1.478 . S
C1827 H1821 0.930 . S
C1827 C1823 1.400 . S
C1827 C1826 1.385 . S
C1828 C1826 1.478 . S
C1828 C1830 1.381 . S
C1828 C1834 1.383 . S
C1829 C1825 1.495 . S
C1829 H1835 0.959 . S
C1829 H1836 0.961 . S
C1829 H1837 0.960 . S
C1830 C1828 1.381 . S
C1830 C1831 1.394 . S
C1830 H1838 0.930 . S
C1831 C1830 1.394 . S
C1831 C1832 1.383 . S
C1831 H1839 0.929 . S
C1832 C1831 1.383 . S
C1832 C1833 1.377 . S
C1833 H1817 0.930 . S
C1833 C1832 1.377 . S
C1833 C1834 1.379 . S
C1834 H1818 0.931 . S
C1834 C1828 1.383 . S
C1834 C1833 1.379 . S
H1835 C1829 0.959 . S
H1836 C1829 0.961 . S
H1837 C1829 0.960 . S
H1838 C1830 0.930 . S
H1839 C1831 0.929 . S
H1840 C1848 0.929 . S
H1841 C1850 0.930 . S
H1842 C1852 0.930 . S
H1843 C1855 0.929 . S
H1844 C1858 0.930 . S
H1845 C1860 0.960 . S
H1846 C1860 0.960 . S
H1847 C1860 0.960 . S
C1848 H1840 0.929 . S
C1848 C1849 1.377 . S
C1848 C1850 1.384 . S
C1849 C1848 1.377 . S
C1849 C1855 1.390 . S
C1850 H1841 0.930 . S
C1850 C1848 1.384 . S
C1850 C1851 1.372 . S
C1851 C1850 1.372 . S
C1851 C1852 1.400 . S
C1851 C1856 1.490 . S
C1852 H1842 0.930 . S
C1852 C1851 1.400 . S
C1852 C1855 1.386 . S
H1853 C1869 0.930 . S
H1854 C1870 0.931 . S
C1855 H1843 0.929 . S
C1855 C1849 1.390 . S
C1855 C1852 1.386 . S
C1856 C1851 1.490 . S
C1856 C1858 1.395 . S
C1856 C1859 1.403 . S
H1857 C1863 0.930 . S
C1858 H1844 0.930 . S
C1858 C1856 1.395 . S
C1858 C1861 1.403 . S
C1859 C1856 1.403 . S
C1859 C1860 1.524 . S
C1859 C1863 1.400 . S
C1860 H1845 0.960 . S
C1860 H1846 0.960 . S
C1860 H1847 0.960 . S
C1860 C1859 1.524 . S
C1861 C1858 1.403 . S
C1861 C1862 1.392 . S
C1861 C1865 1.495 . S
C1862 C1861 1.392 . S
C1862 C1863 1.385 . S
C1862 C1864 1.478 . S
C1863 H1857 0.930 . S
C1863 C1859 1.400 . S
C1863 C1862 1.385 . S
C1864 C1862 1.478 . S
C1864 C1866 1.381 . S
C1864 C1870 1.383 . S
C1865 C1861 1.495 . S
C1865 H1871 0.959 . S
C1865 H1872 0.961 . S
C1865 H1873 0.960 . S
C1866 C1864 1.381 . S
C1866 C1867 1.394 . S
C1866 H1874 0.930 . S
C1867 C1866 1.394 . S
C1867 C1868 1.383 . S
C1867 H1875 0.929 . S
C1868 C1867 1.383 . S
C1868 C1869 1.377 . S
C1869 H1853 0.930 . S
C1869 C1868 1.377 . S
C1869 C1870 1.379 . S
C1870 H1854 0.931 . S
C1870 C1864 1.383 . S
C1870 C1869 1.379 . S
H1871 C1865 0.959 . S
H1872 C1865 0.961 . S
H1873 C1865 0.960 . S
H1874 C1866 0.930 . S
H1875 C1867 0.929 . S
H1876 C1884 0.929 . S
H1877 C1886 0.930 . S
H1878 C1888 0.930 . S
H1879 C1891 0.929 . S
H1880 C1894 0.930 . S
H1881 C1896 0.960 . S
H1882 C1896 0.960 . S
H1883 C1896 0.960 . S
C1884 H1876 0.929 . S
C1884 C1885 1.377 . S
C1884 C1886 1.384 . S
C1885 C1884 1.377 . S
C1885 C1891 1.390 . S
C1886 H1877 0.930 . S
C1886 C1884 1.384 . S
C1886 C1887 1.372 . S
C1887 C1886 1.372 . S
C1887 C1888 1.400 . S
C1887 C1892 1.490 . S
C1888 H1878 0.930 . S
C1888 C1887 1.400 . S
C1888 C1891 1.386 . S
H1889 C1905 0.928 1_554 S
H1890 C1906 0.931 . S
C1891 H1879 0.929 . S
C1891 C1885 1.390 . S
C1891 C1888 1.386 . S
C1892 C1887 1.490 . S
C1892 C1894 1.395 . S
C1892 C1895 1.403 . S
H1893 C1899 0.930 . S
C1894 H1880 0.930 . S
C1894 C1892 1.395 . S
C1894 C1897 1.403 . S
C1895 C1892 1.403 . S
C1895 C1896 1.524 . S
C1895 C1899 1.400 . S
C1896 H1881 0.960 . S
C1896 H1882 0.960 . S
C1896 H1883 0.960 . S
C1896 C1895 1.524 . S
C1897 C1894 1.403 . S
C1897 C1898 1.392 . S
C1897 C1901 1.495 1_556 S
C1898 C1897 1.392 . S
C1898 C1899 1.385 . S
C1898 C1900 1.478 . S
C1899 H1893 0.930 . S
C1899 C1895 1.400 . S
C1899 C1898 1.385 . S
C1900 C1898 1.478 . S
C1900 C1902 1.381 . S
C1900 C1906 1.383 . S
C1901 C1897 1.495 1_554 S
C1901 H1907 0.959 . S
C1901 H1908 0.961 . S
C1901 H1909 0.960 . S
C1902 C1900 1.381 . S
C1902 C1903 1.394 . S
C1902 H1910 0.930 . S
C1903 C1902 1.394 . S
C1903 C1904 1.383 . S
C1903 H1911 0.929 . S
C1904 C1903 1.383 . S
C1904 C1905 1.377 . S
C1905 H1889 0.928 1_556 S
C1905 C1904 1.377 . S
C1905 C1906 1.379 . S
C1906 H1890 0.931 . S
C1906 C1900 1.383 . S
C1906 C1905 1.379 . S
H1907 C1901 0.959 . S
H1908 C1901 0.961 . S
H1909 C1901 0.960 . S
H1910 C1902 0.930 . S
H1911 C1903 0.929 . S
H1912 C1920 0.929 . S
H1913 C1922 0.930 . S
H1914 C1924 0.930 . S
H1915 C1927 0.929 . S
H1916 C1930 0.930 . S
H1917 C1932 0.960 . S
H1918 C1932 0.960 . S
H1919 C1932 0.960 . S
C1920 H1912 0.929 . S
C1920 C1921 1.377 . S
C1920 C1922 1.384 . S
C1921 C1920 1.377 . S
C1921 C1927 1.390 . S
C1922 H1913 0.930 . S
C1922 C1920 1.384 . S
C1922 C1923 1.372 . S
C1923 C1922 1.372 . S
C1923 C1924 1.400 . S
C1923 C1928 1.490 . S
C1924 H1914 0.930 . S
C1924 C1923 1.400 . S
C1924 C1927 1.386 . S
H1925 C1941 0.930 . S
H1926 C1942 0.931 . S
C1927 H1915 0.929 . S
C1927 C1921 1.390 . S
C1927 C1924 1.386 . S
C1928 C1923 1.490 . S
C1928 C1930 1.395 . S
C1928 C1931 1.403 . S
H1929 C1935 0.930 . S
C1930 H1916 0.930 . S
C1930 C1928 1.395 . S
C1930 C1933 1.403 . S
C1931 C1928 1.403 . S
C1931 C1932 1.524 . S
C1931 C1935 1.400 . S
C1932 H1917 0.960 . S
C1932 H1918 0.960 . S
C1932 H1919 0.960 . S
C1932 C1931 1.524 . S
C1933 C1930 1.403 . S
C1933 C1934 1.392 . S
C1933 C1937 1.495 . S
C1934 C1933 1.392 . S
C1934 C1935 1.385 . S
C1934 C1936 1.478 . S
C1935 H1929 0.930 . S
C1935 C1931 1.400 . S
C1935 C1934 1.385 . S
C1936 C1934 1.478 . S
C1936 C1938 1.381 . S
C1936 C1942 1.383 . S
C1937 C1933 1.495 . S
C1937 H1943 0.959 . S
C1937 H1944 0.961 . S
C1937 H1945 0.960 . S
C1938 C1936 1.381 . S
C1938 C1939 1.394 . S
C1938 H1946 0.930 . S
C1939 C1938 1.394 . S
C1939 C1940 1.383 . S
C1939 H1947 0.929 . S
C1940 C1939 1.383 . S
C1940 C1941 1.377 . S
C1941 H1925 0.930 . S
C1941 C1940 1.377 . S
C1941 C1942 1.379 . S
C1942 H1926 0.931 . S
C1942 C1936 1.383 . S
C1942 C1941 1.379 . S
H1943 C1937 0.959 . S
H1944 C1937 0.961 . S
H1945 C1937 0.960 . S
H1946 C1938 0.930 . S
H1947 C1939 0.929 . S
H1948 C1956 0.929 . S
H1949 C1958 0.930 . S
H1950 C1960 0.930 . S
H1951 C1963 0.929 . S
H1952 C1966 0.930 . S
H1953 C1968 0.960 . S
H1954 C1968 0.960 . S
H1955 C1968 0.960 . S
C1956 H1948 0.929 . S
C1956 C1957 1.377 . S
C1956 C1958 1.384 . S
C1957 C1956 1.377 . S
C1957 C1963 1.390 . S
C1958 H1949 0.930 . S
C1958 C1956 1.384 . S
C1958 C1959 1.372 . S
C1959 C1958 1.372 . S
C1959 C1960 1.400 . S
C1959 C1964 1.490 . S
C1960 H1950 0.930 . S
C1960 C1959 1.400 . S
C1960 C1963 1.386 . S
H1961 C1977 0.930 . S
H1962 C1978 0.931 . S
C1963 H1951 0.929 . S
C1963 C1957 1.390 . S
C1963 C1960 1.386 . S
C1964 C1959 1.490 . S
C1964 C1966 1.395 . S
C1964 C1967 1.403 . S
H1965 C1971 0.930 . S
C1966 H1952 0.930 . S
C1966 C1964 1.395 . S
C1966 C1969 1.403 . S
C1967 C1964 1.403 . S
C1967 C1968 1.524 . S
C1967 C1971 1.400 . S
C1968 H1953 0.960 . S
C1968 H1954 0.960 . S
C1968 H1955 0.960 . S
C1968 C1967 1.524 . S
C1969 C1966 1.403 . S
C1969 C1970 1.392 . S
C1969 C1973 1.495 . S
C1970 C1969 1.392 . S
C1970 C1971 1.385 . S
C1970 C1972 1.478 . S
C1971 H1965 0.930 . S
C1971 C1967 1.400 . S
C1971 C1970 1.385 . S
C1972 C1970 1.478 . S
C1972 C1974 1.381 . S
C1972 C1978 1.383 . S
C1973 C1969 1.495 . S
C1973 H1979 0.959 . S
C1973 H1980 0.961 . S
C1973 H1981 0.960 . S
C1974 C1972 1.381 . S
C1974 C1975 1.394 . S
C1974 H1982 0.930 . S
C1975 C1974 1.394 . S
C1975 C1976 1.383 . S
C1975 H1983 0.929 . S
C1976 C1975 1.383 . S
C1976 C1977 1.377 . S
C1977 H1961 0.930 . S
C1977 C1976 1.377 . S
C1977 C1978 1.379 . S
C1978 H1962 0.931 . S
C1978 C1972 1.383 . S
C1978 C1977 1.379 . S
H1979 C1973 0.959 . S
H1980 C1973 0.961 . S
H1981 C1973 0.960 . S
H1982 C1974 0.930 . S
H1983 C1975 0.929 . S
H1984 C1992 0.929 . S
H1985 C1994 0.930 . S
H1986 C1996 0.930 . S
H1987 C1999 0.929 . S
H1988 C2002 0.930 . S
H1989 C2004 0.960 . S
H1990 C2004 0.960 . S
H1991 C2004 0.960 . S
C1992 H1984 0.929 . S
C1992 C1993 1.413 . S
C1992 C1994 1.384 . S
C1993 C1992 1.413 . S
C1993 C1999 1.355 1_455 S
C1994 H1985 0.930 . S
C1994 C1992 1.384 . S
C1994 C1995 1.372 . S
C1995 C1994 1.372 . S
C1995 C1996 1.400 1_455 S
C1995 C2000 1.490 . S
C1996 H1986 0.930 . S
C1996 C1995 1.400 1_655 S
C1996 C1999 1.386 . S
H1997 C2013 0.930 . S
H1998 C2014 0.931 . S
C1999 H1987 0.929 . S
C1999 C1993 1.355 1_655 S
C1999 C1996 1.386 . S
C2000 C1995 1.490 . S
C2000 C2002 1.395 . S
C2000 C2003 1.403 1_455 S
H2001 C2007 0.930 . S
C2002 H1988 0.930 . S
C2002 C2000 1.395 . S
C2002 C2005 1.403 . S
C2003 C2000 1.403 1_655 S
C2003 C2004 1.524 . S
C2003 C2007 1.400 . S
C2004 H1989 0.960 . S
C2004 H1990 0.960 . S
C2004 H1991 0.960 . S
C2004 C2003 1.524 . S
C2005 C2002 1.403 . S
C2005 C2006 1.392 . S
C2005 C2009 1.495 . S
C2006 C2005 1.392 . S
C2006 C2007 1.385 1_455 S
C2006 C2008 1.478 . S
C2007 H2001 0.930 . S
C2007 C2003 1.400 . S
C2007 C2006 1.385 1_655 S
C2008 C2006 1.478 . S
C2008 C2010 1.382 1_554 S
C2008 C2014 1.383 1_455 S
C2009 C2005 1.495 . S
C2009 H2015 0.959 . S
C2009 H2016 0.961 . S
C2009 H2017 0.960 . S
C2010 C2008 1.382 1_556 S
C2010 C2011 1.393 . S
C2010 H2018 0.930 1_556 S
C2011 C2010 1.393 . S
C2011 C2012 1.455 . S
C2011 H2019 0.929 . S
C2012 C2011 1.455 . S
C2012 C2013 1.311 1_455 S
C2013 H1997 0.930 . S
C2013 C2012 1.311 1_655 S
C2013 C2014 1.379 1_556 S
C2014 H1998 0.931 . S
C2014 C2008 1.383 1_655 S
C2014 C2013 1.379 1_554 S
H2015 C2009 0.959 . S
H2016 C2009 0.961 . S
H2017 C2009 0.960 . S
H2018 C2010 0.930 1_554 S
H2019 C2011 0.929 . S
H2020 C2028 0.929 . S
H2021 C2030 0.930 . S
H2022 C2032 0.930 . S
H2023 C2035 0.929 . S
H2024 C2038 0.930 . S
H2025 C2040 0.960 . S
H2026 C2040 0.960 . S
H2027 C2040 0.960 . S
C2028 H2020 0.929 . S
C2028 C2029 1.377 . S
C2028 C2030 1.384 . S
C2029 C2028 1.377 . S
C2029 C2035 1.390 . S
C2030 H2021 0.930 . S
C2030 C2028 1.384 . S
C2030 C2031 1.372 . S
C2031 C2030 1.372 . S
C2031 C2032 1.400 . S
C2031 C2036 1.490 . S
C2032 H2022 0.930 . S
C2032 C2031 1.400 . S
C2032 C2035 1.386 . S
H2033 C2049 0.930 . S
H2034 C2050 0.931 . S
C2035 H2023 0.929 . S
C2035 C2029 1.390 . S
C2035 C2032 1.386 . S
C2036 C2031 1.490 . S
C2036 C2038 1.395 . S
C2036 C2039 1.403 . S
H2037 C2043 0.930 . S
C2038 H2024 0.930 . S
C2038 C2036 1.395 . S
C2038 C2041 1.403 . S
C2039 C2036 1.403 . S
C2039 C2040 1.524 . S
C2039 C2043 1.400 . S
C2040 H2025 0.960 . S
C2040 H2026 0.960 . S
C2040 H2027 0.960 . S
C2040 C2039 1.524 . S
C2041 C2038 1.403 . S
C2041 C2042 1.392 . S
C2041 C2045 1.495 . S
C2042 C2041 1.392 . S
C2042 C2043 1.385 . S
C2042 C2044 1.478 . S
C2043 H2037 0.930 . S
C2043 C2039 1.400 . S
C2043 C2042 1.385 . S
C2044 C2042 1.478 . S
C2044 C2046 1.381 . S
C2044 C2050 1.383 . S
C2045 C2041 1.495 . S
C2045 H2051 0.959 . S
C2045 H2052 0.961 . S
C2045 H2053 0.960 . S
C2046 C2044 1.381 . S
C2046 C2047 1.394 . S
C2046 H2054 0.930 . S
C2047 C2046 1.394 . S
C2047 C2048 1.383 . S
C2047 H2055 0.929 . S
C2048 C2047 1.383 . S
C2048 C2049 1.377 . S
C2049 H2033 0.930 . S
C2049 C2048 1.377 . S
C2049 C2050 1.379 . S
C2050 H2034 0.931 . S
C2050 C2044 1.383 . S
C2050 C2049 1.379 . S
H2051 C2045 0.959 . S
H2052 C2045 0.961 . S
H2053 C2045 0.960 . S
H2054 C2046 0.930 . S
H2055 C2047 0.929 . S
H2056 C2064 0.929 . S
H2057 C2066 0.930 . S
H2058 C2068 0.930 . S
H2059 C2071 0.929 . S
H2060 C2074 0.930 . S
H2061 C2076 0.960 . S
H2062 C2076 0.960 . S
H2063 C2076 0.960 . S
C2064 H2056 0.929 . S
C2064 C2065 1.377 . S
C2064 C2066 1.384 . S
C2065 C2064 1.377 . S
C2065 C2071 1.390 . S
C2066 H2057 0.930 . S
C2066 C2064 1.384 . S
C2066 C2067 1.372 . S
C2067 C2066 1.372 . S
C2067 C2068 1.400 . S
C2067 C2072 1.490 . S
C2068 H2058 0.930 . S
C2068 C2067 1.400 . S
C2068 C2071 1.386 . S
H2069 C2085 0.930 . S
H2070 C2086 0.931 . S
C2071 H2059 0.929 . S
C2071 C2065 1.390 . S
C2071 C2068 1.386 . S
C2072 C2067 1.490 . S
C2072 C2074 1.395 . S
C2072 C2075 1.403 . S
H2073 C2079 0.930 . S
C2074 H2060 0.930 . S
C2074 C2072 1.395 . S
C2074 C2077 1.403 . S
C2075 C2072 1.403 . S
C2075 C2076 1.524 . S
C2075 C2079 1.400 . S
C2076 H2061 0.960 . S
C2076 H2062 0.960 . S
C2076 H2063 0.960 . S
C2076 C2075 1.524 . S
C2077 C2074 1.403 . S
C2077 C2078 1.392 . S
C2077 C2081 1.495 . S
C2078 C2077 1.392 . S
C2078 C2079 1.385 . S
C2078 C2080 1.478 . S
C2079 H2073 0.930 . S
C2079 C2075 1.400 . S
C2079 C2078 1.385 . S
C2080 C2078 1.478 . S
C2080 C2082 1.381 . S
C2080 C2086 1.383 . S
C2081 C2077 1.495 . S
C2081 H2087 0.959 . S
C2081 H2088 0.961 . S
C2081 H2089 0.960 . S
C2082 C2080 1.381 . S
C2082 C2083 1.394 . S
C2082 H2090 0.930 . S
C2083 C2082 1.394 . S
C2083 C2084 1.383 . S
C2083 H2091 0.929 . S
C2084 C2083 1.383 . S
C2084 C2085 1.377 . S
C2085 H2069 0.930 . S
C2085 C2084 1.377 . S
C2085 C2086 1.379 . S
C2086 H2070 0.931 . S
C2086 C2080 1.383 . S
C2086 C2085 1.379 . S
H2087 C2081 0.959 . S
H2088 C2081 0.961 . S
H2089 C2081 0.960 . S
H2090 C2082 0.930 . S
H2091 C2083 0.929 . S
H2092 C2100 0.929 . S
H2093 C2102 0.930 . S
H2094 C2104 0.930 . S
H2095 C2107 0.929 . S
H2096 C2110 0.930 . S
H2097 C2112 0.960 . S
H2098 C2112 0.960 . S
H2099 C2112 0.960 . S
C2100 H2092 0.929 . S
C2100 C2101 1.377 . S
C2100 C2102 1.384 . S
C2101 C2100 1.377 . S
C2101 C2107 1.390 . S
C2102 H2093 0.930 . S
C2102 C2100 1.384 . S
C2102 C2103 1.372 . S
C2103 C2102 1.372 . S
C2103 C2104 1.400 . S
C2103 C2108 1.490 . S
C2104 H2094 0.930 . S
C2104 C2103 1.400 . S
C2104 C2107 1.386 . S
H2105 C2121 0.930 . S
H2106 C2122 0.931 . S
C2107 H2095 0.929 . S
C2107 C2101 1.390 . S
C2107 C2104 1.386 . S
C2108 C2103 1.490 . S
C2108 C2110 1.395 . S
C2108 C2111 1.403 . S
H2109 C2115 0.930 . S
C2110 H2096 0.930 . S
C2110 C2108 1.395 . S
C2110 C2113 1.403 . S
C2111 C2108 1.403 . S
C2111 C2112 1.524 . S
C2111 C2115 1.400 . S
C2112 H2097 0.960 . S
C2112 H2098 0.960 . S
C2112 H2099 0.960 . S
C2112 C2111 1.524 . S
C2113 C2110 1.403 . S
C2113 C2114 1.392 . S
C2113 C2117 1.495 . S
C2114 C2113 1.392 . S
C2114 C2115 1.385 . S
C2114 C2116 1.478 . S
C2115 H2109 0.930 . S
C2115 C2111 1.400 . S
C2115 C2114 1.385 . S
C2116 C2114 1.478 . S
C2116 C2118 1.381 . S
C2116 C2122 1.383 . S
C2117 C2113 1.495 . S
C2117 H2123 0.959 . S
C2117 H2124 0.961 . S
C2117 H2125 0.960 . S
C2118 C2116 1.381 . S
C2118 C2119 1.394 . S
C2118 H2126 0.930 . S
C2119 C2118 1.394 . S
C2119 C2120 1.383 . S
C2119 H2127 0.929 . S
C2120 C2119 1.383 . S
C2120 C2121 1.377 . S
C2121 H2105 0.930 . S
C2121 C2120 1.377 . S
C2121 C2122 1.379 . S
C2122 H2106 0.931 . S
C2122 C2116 1.383 . S
C2122 C2121 1.379 . S
H2123 C2117 0.959 . S
H2124 C2117 0.961 . S
H2125 C2117 0.960 . S
H2126 C2118 0.930 . S
H2127 C2119 0.929 . S
H2128 C2136 0.929 . S
H2129 C2138 0.930 . S
H2130 C2140 0.930 . S
H2131 C2143 0.929 . S
H2132 C2146 0.930 . S
H2133 C2148 0.960 . S
H2134 C2148 0.960 . S
H2135 C2148 0.960 . S
C2136 H2128 0.929 . S
C2136 C2137 1.377 . S
C2136 C2138 1.384 . S
C2137 C2136 1.377 . S
C2137 C2143 1.390 . S
C2138 H2129 0.930 . S
C2138 C2136 1.384 . S
C2138 C2139 1.372 . S
C2139 C2138 1.372 . S
C2139 C2140 1.400 . S
C2139 C2144 1.490 . S
C2140 H2130 0.930 . S
C2140 C2139 1.400 . S
C2140 C2143 1.386 . S
H2141 C2157 0.930 . S
H2142 C2158 0.931 . S
C2143 H2131 0.929 . S
C2143 C2137 1.390 . S
C2143 C2140 1.386 . S
C2144 C2139 1.490 . S
C2144 C2146 1.395 . S
C2144 C2147 1.403 . S
H2145 C2151 0.930 . S
C2146 H2132 0.930 . S
C2146 C2144 1.395 . S
C2146 C2149 1.403 . S
C2147 C2144 1.403 . S
C2147 C2148 1.524 . S
C2147 C2151 1.400 . S
C2148 H2133 0.960 . S
C2148 H2134 0.960 . S
C2148 H2135 0.960 . S
C2148 C2147 1.524 . S
C2149 C2146 1.403 . S
C2149 C2150 1.392 . S
C2149 C2153 1.495 . S
C2150 C2149 1.392 . S
C2150 C2151 1.385 . S
C2150 C2152 1.478 . S
C2151 H2145 0.930 . S
C2151 C2147 1.400 . S
C2151 C2150 1.385 . S
C2152 C2150 1.478 . S
C2152 C2154 1.381 . S
C2152 C2158 1.383 . S
C2153 C2149 1.495 . S
C2153 H2159 0.959 . S
C2153 H2160 0.961 . S
C2153 H2161 0.960 . S
C2154 C2152 1.381 . S
C2154 C2155 1.394 . S
C2154 H2162 0.930 . S
C2155 C2154 1.394 . S
C2155 C2156 1.383 . S
C2155 H2163 0.929 . S
C2156 C2155 1.383 . S
C2156 C2157 1.377 . S
C2157 H2141 0.930 . S
C2157 C2156 1.377 . S
C2157 C2158 1.379 . S
C2158 H2142 0.931 . S
C2158 C2152 1.383 . S
C2158 C2157 1.379 . S
H2159 C2153 0.959 . S
H2160 C2153 0.961 . S
H2161 C2153 0.960 . S
H2162 C2154 0.930 . S
H2163 C2155 0.929 . S
H2164 C2172 0.929 . S
H2165 C2174 0.930 . S
H2166 C2176 0.930 . S
H2167 C2179 0.929 . S
H2168 C2182 0.930 . S
H2169 C2184 0.960 . S
H2170 C2184 0.960 . S
H2171 C2184 0.960 . S
C2172 H2164 0.929 . S
C2172 C2173 1.377 . S
C2172 C2174 1.384 . S
C2173 C2172 1.377 . S
C2173 C2179 1.390 . S
C2174 H2165 0.930 . S
C2174 C2172 1.384 . S
C2174 C2175 1.372 . S
C2175 C2174 1.372 . S
C2175 C2176 1.400 . S
C2175 C2180 1.490 . S
C2176 H2166 0.930 . S
C2176 C2175 1.400 . S
C2176 C2179 1.386 . S
H2177 C2193 0.930 . S
H2178 C2194 0.931 . S
C2179 H2167 0.929 . S
C2179 C2173 1.390 . S
C2179 C2176 1.386 . S
C2180 C2175 1.490 . S
C2180 C2182 1.395 . S
C2180 C2183 1.403 . S
H2181 C2187 0.930 . S
C2182 H2168 0.930 . S
C2182 C2180 1.395 . S
C2182 C2185 1.403 . S
C2183 C2180 1.403 . S
C2183 C2184 1.524 . S
C2183 C2187 1.400 . S
C2184 H2169 0.960 . S
C2184 H2170 0.960 . S
C2184 H2171 0.960 . S
C2184 C2183 1.524 . S
C2185 C2182 1.403 . S
C2185 C2186 1.392 . S
C2185 C2189 1.495 . S
C2186 C2185 1.392 . S
C2186 C2187 1.385 . S
C2186 C2188 1.478 . S
C2187 H2181 0.930 . S
C2187 C2183 1.400 . S
C2187 C2186 1.385 . S
C2188 C2186 1.478 . S
C2188 C2190 1.381 . S
C2188 C2194 1.383 . S
C2189 C2185 1.495 . S
C2189 H2195 0.959 . S
C2189 H2196 0.961 . S
C2189 H2197 0.960 . S
C2190 C2188 1.381 . S
C2190 C2191 1.394 . S
C2190 H2198 0.930 . S
C2191 C2190 1.394 . S
C2191 C2192 1.383 . S
C2191 H2199 0.929 . S
C2192 C2191 1.383 . S
C2192 C2193 1.377 . S
C2193 H2177 0.930 . S
C2193 C2192 1.377 . S
C2193 C2194 1.379 . S
C2194 H2178 0.931 . S
C2194 C2188 1.383 . S
C2194 C2193 1.379 . S
H2195 C2189 0.959 . S
H2196 C2189 0.961 . S
H2197 C2189 0.960 . S
H2198 C2190 0.930 . S
H2199 C2191 0.929 . S
H2200 C2208 0.929 . S
H2201 C2210 0.930 . S
H2202 C2212 0.930 . S
H2203 C2215 0.929 . S
H2204 C2218 0.930 . S
H2205 C2220 0.960 . S
H2206 C2220 0.960 . S
H2207 C2220 0.960 . S
C2208 H2200 0.929 . S
C2208 C2209 1.377 . S
C2208 C2210 1.384 . S
C2209 C2208 1.377 . S
C2209 C2215 1.390 . S
C2210 H2201 0.930 . S
C2210 C2208 1.384 . S
C2210 C2211 1.372 . S
C2211 C2210 1.372 . S
C2211 C2212 1.400 . S
C2211 C2216 1.490 . S
C2212 H2202 0.930 . S
C2212 C2211 1.400 . S
C2212 C2215 1.386 . S
H2213 C2229 0.930 . S
H2214 C2230 0.931 . S
C2215 H2203 0.929 . S
C2215 C2209 1.390 . S
C2215 C2212 1.386 . S
C2216 C2211 1.490 . S
C2216 C2218 1.395 1_565 S
C2216 C2219 1.403 . S
H2217 C2223 0.930 . S
C2218 H2204 0.930 . S
C2218 C2216 1.395 1_545 S
C2218 C2221 1.403 . S
C2219 C2216 1.403 . S
C2219 C2220 1.524 . S
C2219 C2223 1.400 . S
C2220 H2205 0.960 . S
C2220 H2206 0.960 . S
C2220 H2207 0.960 . S
C2220 C2219 1.524 . S
C2221 C2218 1.403 . S
C2221 C2222 1.392 . S
C2221 C2225 1.495 . S
C2222 C2221 1.392 . S
C2222 C2223 1.385 1_545 S
C2222 C2224 1.478 . S
C2223 H2217 0.930 . S
C2223 C2219 1.400 . S
C2223 C2222 1.385 1_565 S
C2224 C2222 1.478 . S
C2224 C2226 1.381 . S
C2224 C2230 1.383 . S
C2225 C2221 1.495 . S
C2225 H2231 0.959 . S
C2225 H2232 0.961 . S
C2225 H2233 0.960 . S
C2226 C2224 1.381 . S
C2226 C2227 1.394 . S
C2226 H2234 0.930 . S
C2227 C2226 1.394 . S
C2227 C2228 1.383 . S
C2227 H2235 0.929 . S
C2228 C2227 1.383 . S
C2228 C2229 1.377 . S
C2229 H2213 0.930 . S
C2229 C2228 1.377 . S
C2229 C2230 1.379 . S
C2230 H2214 0.931 . S
C2230 C2224 1.383 . S
C2230 C2229 1.379 . S
H2231 C2225 0.959 . S
H2232 C2225 0.961 . S
H2233 C2225 0.960 . S
H2234 C2226 0.930 . S
H2235 C2227 0.929 . S
H2236 C2244 0.929 . S
H2237 C2246 0.930 . S
H2238 C2248 0.930 . S
H2239 C2251 0.929 . S
H2240 C2254 0.930 . S
H2241 C2256 0.960 . S
H2242 C2256 0.960 . S
H2243 C2256 0.960 . S
C2244 H2236 0.929 . S
C2244 C2245 1.396 . S
C2244 C2246 1.384 . S
C2245 C2244 1.396 . S
C2245 C2251 1.372 1_655 S
C2246 H2237 0.930 . S
C2246 C2244 1.384 . S
C2246 C2247 1.415 1_556 S
C2247 C2246 1.415 1_554 S
C2247 C2248 1.358 1_655 S
C2247 C2252 1.490 . S
C2248 H2238 0.930 . S
C2248 C2247 1.358 1_455 S
C2248 C2251 1.386 1_554 S
H2249 C2265 0.930 . S
H2250 C2266 0.931 . S
C2251 H2239 0.929 . S
C2251 C2245 1.372 1_455 S
C2251 C2248 1.386 1_556 S
C2252 C2247 1.490 . S
C2252 C2254 1.381 1_645 S
C2252 C2255 1.418 . S
H2253 C2259 0.930 . S
C2254 H2240 0.930 . S
C2254 C2252 1.381 1_465 S
C2254 C2257 1.403 . S
C2255 C2252 1.418 . S
C2255 C2256 1.524 . S
C2255 C2259 1.400 . S
C2256 H2241 0.960 . S
C2256 H2242 0.960 . S
C2256 H2243 0.960 . S
C2256 C2255 1.524 . S
C2257 C2254 1.403 . S
C2257 C2258 1.394 . S
C2257 C2261 1.495 . S
C2258 C2257 1.394 . S
C2258 C2259 1.383 1_465 S
C2258 C2260 1.477 . S
C2259 H2253 0.930 . S
C2259 C2255 1.400 . S
C2259 C2258 1.383 1_645 S
C2260 C2258 1.477 . S
C2260 C2262 1.353 1_455 S
C2260 C2266 1.411 . S
C2261 C2257 1.495 . S
C2261 H2267 0.959 . S
C2261 H2268 0.961 . S
C2261 H2269 0.968 . S
C2262 C2260 1.353 1_655 S
C2262 C2263 1.394 . S
C2262 H2270 0.930 . S
C2263 C2262 1.394 . S
C2263 C2264 1.379 1_655 S
C2263 H2271 0.929 . S
C2264 C2263 1.379 1_455 S
C2264 C2265 1.381 . S
C2265 H2249 0.930 . S
C2265 C2264 1.381 . S
C2265 C2266 1.379 . S
C2266 H2250 0.931 . S
C2266 C2260 1.411 . S
C2266 C2265 1.379 . S
H2267 C2261 0.959 . S
H2268 C2261 0.961 . S
H2269 C2261 0.968 . S
H2270 C2262 0.930 . S
H2271 C2263 0.929 . S
H2272 C2280 0.929 . S
H2273 C2282 0.930 . S
H2274 C2284 0.930 . S
H2275 C2287 0.929 . S
H2276 C2290 0.930 . S
H2277 C2292 0.960 . S
H2278 C2292 0.960 . S
H2279 C2292 0.960 . S
C2280 H2272 0.929 . S
C2280 C2281 1.390 . S
C2280 C2282 1.384 . S
C2281 C2280 1.390 . S
C2281 C2287 1.378 1_655 S
C2282 H2273 0.930 . S
C2282 C2280 1.384 . S
C2282 C2283 1.430 . S
C2283 C2282 1.430 . S
C2283 C2284 1.341 1_655 S
C2283 C2288 1.494 . S
C2284 H2274 0.930 . S
C2284 C2283 1.341 1_455 S
C2284 C2287 1.386 . S
H2285 C2301 0.930 . S
H2286 C2302 0.931 . S
C2287 H2275 0.929 . S
C2287 C2281 1.378 1_455 S
C2287 C2284 1.386 . S
C2288 C2283 1.494 . S
C2288 C2290 1.395 . S
C2288 C2291 1.403 1_655 S
H2289 C2295 0.930 . S
C2290 H2276 0.930 . S
C2290 C2288 1.395 . S
C2290 C2293 1.403 . S
C2291 C2288 1.403 1_455 S
C2291 C2292 1.524 . S
C2291 C2295 1.400 . S
C2292 H2277 0.960 . S
C2292 H2278 0.960 . S
C2292 H2279 0.960 . S
C2292 C2291 1.524 . S
C2293 C2290 1.403 . S
C2293 C2294 1.392 . S
C2293 C2297 1.495 . S
C2294 C2293 1.392 . S
C2294 C2295 1.385 1_655 S
C2294 C2296 1.478 . S
C2295 H2289 0.930 . S
C2295 C2291 1.400 . S
C2295 C2294 1.385 1_455 S
C2296 C2294 1.478 . S
C2296 C2298 1.381 . S
C2296 C2302 1.383 1_655 S
C2297 C2293 1.495 . S
C2297 H2303 0.959 . S
C2297 H2304 0.961 . S
C2297 H2305 0.960 . S
C2298 C2296 1.381 . S
C2298 C2299 1.394 . S
C2298 H2306 0.930 . S
C2299 C2298 1.394 . S
C2299 C2300 1.448 . S
C2299 H2307 0.929 . S
C2300 C2299 1.448 . S
C2300 C2301 1.319 1_655 S
C2301 H2285 0.930 . S
C2301 C2300 1.319 1_455 S
C2301 C2302 1.379 . S
C2302 H2286 0.931 . S
C2302 C2296 1.383 1_455 S
C2302 C2301 1.379 . S
H2303 C2297 0.959 . S
H2304 C2297 0.961 . S
H2305 C2297 0.960 . S
H2306 C2298 0.930 . S
H2307 C2299 0.929 . S
H2308 C2316 0.929 . S
H2309 C2318 0.930 . S
H2310 C2320 0.930 . S
H2311 C2323 0.929 . S
H2312 C2326 0.930 . S
H2313 C2328 0.960 . S
H2314 C2328 0.960 . S
H2315 C2328 0.960 . S
C2316 H2308 0.929 . S
C2316 C2317 1.377 . S
C2316 C2318 1.384 . S
C2317 C2316 1.377 . S
C2317 C2323 1.390 . S
C2318 H2309 0.930 . S
C2318 C2316 1.384 . S
C2318 C2319 1.372 . S
C2319 C2318 1.372 . S
C2319 C2320 1.400 . S
C2319 C2324 1.490 . S
C2320 H2310 0.930 . S
C2320 C2319 1.400 . S
C2320 C2323 1.386 . S
H2321 C2337 0.930 . S
H2322 C2338 0.931 . S
C2323 H2311 0.929 . S
C2323 C2317 1.390 . S
C2323 C2320 1.386 . S
C2324 C2319 1.490 . S
C2324 C2326 1.395 . S
C2324 C2327 1.403 . S
H2325 C2331 0.930 . S
C2326 H2312 0.930 . S
C2326 C2324 1.395 . S
C2326 C2329 1.403 . S
C2327 C2324 1.403 . S
C2327 C2328 1.524 . S
C2327 C2331 1.400 . S
C2328 H2313 0.960 . S
C2328 H2314 0.960 . S
C2328 H2315 0.960 . S
C2328 C2327 1.524 . S
C2329 C2326 1.403 . S
C2329 C2330 1.392 . S
C2329 C2333 1.495 . S
C2330 C2329 1.392 . S
C2330 C2331 1.385 . S
C2330 C2332 1.478 . S
C2331 H2325 0.930 . S
C2331 C2327 1.400 . S
C2331 C2330 1.385 . S
C2332 C2330 1.478 . S
C2332 C2334 1.381 . S
C2332 C2338 1.383 . S
C2333 C2329 1.495 . S
C2333 H2339 0.959 . S
C2333 H2340 0.961 . S
C2333 H2341 0.960 . S
C2334 C2332 1.381 . S
C2334 C2335 1.394 . S
C2334 H2342 0.930 . S
C2335 C2334 1.394 . S
C2335 C2336 1.383 . S
C2335 H2343 0.929 . S
C2336 C2335 1.383 . S
C2336 C2337 1.377 . S
C2337 H2321 0.930 . S
C2337 C2336 1.377 . S
C2337 C2338 1.379 . S
C2338 H2322 0.931 . S
C2338 C2332 1.383 . S
C2338 C2337 1.379 . S
H2339 C2333 0.959 . S
H2340 C2333 0.961 . S
H2341 C2333 0.960 . S
H2342 C2334 0.930 . S
H2343 C2335 0.929 . S
H2344 C2352 0.929 . S
H2345 C2354 0.930 . S
H2346 C2356 0.930 . S
H2347 C2359 0.929 . S
H2348 C2362 0.930 . S
H2349 C2364 0.960 . S
H2350 C2364 0.960 . S
H2351 C2364 0.960 . S
C2352 H2344 0.929 . S
C2352 C2353 1.377 . S
C2352 C2354 1.384 . S
C2353 C2352 1.377 . S
C2353 C2359 1.390 . S
C2354 H2345 0.930 . S
C2354 C2352 1.384 . S
C2354 C2355 1.372 . S
C2355 C2354 1.372 . S
C2355 C2356 1.400 . S
C2355 C2360 1.490 . S
C2356 H2346 0.930 . S
C2356 C2355 1.400 . S
C2356 C2359 1.386 . S
H2357 C2373 0.930 . S
H2358 C2374 0.931 . S
C2359 H2347 0.929 . S
C2359 C2353 1.390 . S
C2359 C2356 1.386 . S
C2360 C2355 1.490 . S
C2360 C2362 1.395 . S
C2360 C2363 1.403 . S
H2361 C2367 0.930 . S
C2362 H2348 0.930 . S
C2362 C2360 1.395 . S
C2362 C2365 1.403 . S
C2363 C2360 1.403 . S
C2363 C2364 1.524 . S
C2363 C2367 1.400 . S
C2364 H2349 0.960 . S
C2364 H2350 0.960 . S
C2364 H2351 0.960 . S
C2364 C2363 1.524 . S
C2365 C2362 1.403 . S
C2365 C2366 1.392 . S
C2365 C2369 1.495 . S
C2366 C2365 1.392 . S
C2366 C2367 1.385 . S
C2366 C2368 1.478 . S
C2367 H2361 0.930 . S
C2367 C2363 1.400 . S
C2367 C2366 1.385 . S
C2368 C2366 1.478 . S
C2368 C2370 1.381 1_554 S
C2368 C2374 1.383 . S
C2369 C2365 1.495 . S
C2369 H2375 0.959 . S
C2369 H2376 0.961 1_554 S
C2369 H2377 0.960 1_554 S
C2370 C2368 1.381 1_556 S
C2370 C2371 1.394 . S
C2370 H2378 0.930 . S
C2371 C2370 1.394 . S
C2371 C2372 1.383 . S
C2371 H2379 0.929 . S
C2372 C2371 1.383 . S
C2372 C2373 1.377 . S
C2373 H2357 0.930 . S
C2373 C2372 1.377 . S
C2373 C2374 1.379 1_556 S
C2374 H2358 0.931 . S
C2374 C2368 1.383 . S
C2374 C2373 1.379 1_554 S
H2375 C2369 0.959 . S
H2376 C2369 0.961 1_556 S
H2377 C2369 0.960 1_556 S
H2378 C2370 0.930 . S
H2379 C2371 0.929 . S
H2380 C2388 0.929 . S
H2381 C2390 0.930 . S
H2382 C2392 0.930 . S
H2383 C2395 0.929 . S
H2384 C2398 0.930 . S
H2385 C2400 0.960 . S
H2386 C2400 0.960 . S
H2387 C2400 0.960 . S
C2388 H2380 0.929 . S
C2388 C2389 1.377 . S
C2388 C2390 1.384 . S
C2389 C2388 1.377 . S
C2389 C2395 1.390 . S
C2390 H2381 0.930 . S
C2390 C2388 1.384 . S
C2390 C2391 1.372 . S
C2391 C2390 1.372 . S
C2391 C2392 1.400 . S
C2391 C2396 1.490 . S
C2392 H2382 0.930 . S
C2392 C2391 1.400 . S
C2392 C2395 1.386 . S
H2393 C2409 0.930 . S
H2394 C2410 0.931 . S
C2395 H2383 0.929 . S
C2395 C2389 1.390 . S
C2395 C2392 1.386 . S
C2396 C2391 1.490 . S
C2396 C2398 1.395 . S
C2396 C2399 1.403 . S
H2397 C2403 0.930 . S
C2398 H2384 0.930 . S
C2398 C2396 1.395 . S
C2398 C2401 1.403 . S
C2399 C2396 1.403 . S
C2399 C2400 1.524 . S
C2399 C2403 1.400 . S
C2400 H2385 0.960 . S
C2400 H2386 0.960 . S
C2400 H2387 0.960 . S
C2400 C2399 1.524 . S
C2401 C2398 1.403 . S
C2401 C2402 1.392 . S
C2401 C2405 1.495 . S
C2402 C2401 1.392 . S
C2402 C2403 1.385 . S
C2402 C2404 1.478 . S
C2403 H2397 0.930 . S
C2403 C2399 1.400 . S
C2403 C2402 1.385 . S
C2404 C2402 1.478 . S
C2404 C2406 1.381 . S
C2404 C2410 1.383 . S
C2405 C2401 1.495 . S
C2405 H2411 0.959 . S
C2405 H2412 0.961 . S
C2405 H2413 0.960 . S
C2406 C2404 1.381 . S
C2406 C2407 1.394 . S
C2406 H2414 0.930 . S
C2407 C2406 1.394 . S
C2407 C2408 1.383 . S
C2407 H2415 0.929 . S
C2408 C2407 1.383 . S
C2408 C2409 1.377 . S
C2409 H2393 0.930 . S
C2409 C2408 1.377 . S
C2409 C2410 1.379 . S
C2410 H2394 0.931 . S
C2410 C2404 1.383 . S
C2410 C2409 1.379 . S
H2411 C2405 0.959 . S
H2412 C2405 0.961 . S
H2413 C2405 0.960 . S
H2414 C2406 0.930 . S
H2415 C2407 0.929 . S
H2416 C2424 0.929 . S
H2417 C2426 0.930 . S
H2418 C2428 0.930 . S
H2419 C2431 0.929 . S
H2420 C2434 0.930 . S
H2421 C2436 0.960 . S
H2422 C2436 0.960 . S
H2423 C2436 0.960 . S
C2424 H2416 0.929 . S
C2424 C2425 1.377 . S
C2424 C2426 1.384 . S
C2425 C2424 1.377 . S
C2425 C2431 1.390 . S
C2426 H2417 0.930 . S
C2426 C2424 1.384 . S
C2426 C2427 1.372 . S
C2427 C2426 1.372 . S
C2427 C2428 1.400 . S
C2427 C2432 1.490 . S
C2428 H2418 0.930 . S
C2428 C2427 1.400 . S
C2428 C2431 1.386 . S
H2429 C2445 0.930 . S
H2430 C2446 0.931 . S
C2431 H2419 0.929 . S
C2431 C2425 1.390 . S
C2431 C2428 1.386 . S
C2432 C2427 1.490 . S
C2432 C2434 1.395 . S
C2432 C2435 1.403 . S
H2433 C2439 0.930 . S
C2434 H2420 0.930 . S
C2434 C2432 1.395 . S
C2434 C2437 1.403 . S
C2435 C2432 1.403 . S
C2435 C2436 1.524 . S
C2435 C2439 1.400 . S
C2436 H2421 0.960 . S
C2436 H2422 0.960 . S
C2436 H2423 0.960 . S
C2436 C2435 1.524 . S
C2437 C2434 1.403 . S
C2437 C2438 1.392 . S
C2437 C2441 1.495 . S
C2438 C2437 1.392 . S
C2438 C2439 1.385 . S
C2438 C2440 1.478 . S
C2439 H2433 0.930 . S
C2439 C2435 1.400 . S
C2439 C2438 1.385 . S
C2440 C2438 1.478 . S
C2440 C2442 1.381 . S
C2440 C2446 1.383 . S
C2441 C2437 1.495 . S
C2441 H2447 0.959 . S
C2441 H2448 0.961 . S
C2441 H2449 0.960 . S
C2442 C2440 1.381 . S
C2442 C2443 1.394 . S
C2442 H2450 0.930 . S
C2443 C2442 1.394 . S
C2443 C2444 1.383 . S
C2443 H2451 0.929 . S
C2444 C2443 1.383 . S
C2444 C2445 1.377 . S
C2445 H2429 0.930 . S
C2445 C2444 1.377 . S
C2445 C2446 1.379 . S
C2446 H2430 0.931 . S
C2446 C2440 1.383 . S
C2446 C2445 1.379 . S
H2447 C2441 0.959 . S
H2448 C2441 0.961 . S
H2449 C2441 0.960 . S
H2450 C2442 0.930 . S
H2451 C2443 0.929 . S
H2452 C2460 0.929 . S
H2453 C2462 0.930 . S
H2454 C2464 0.930 . S
H2455 C2467 0.929 . S
H2456 C2470 0.930 . S
H2457 C2472 0.960 . S
H2458 C2472 0.960 . S
H2459 C2472 0.960 . S
C2460 H2452 0.929 . S
C2460 C2461 1.377 . S
C2460 C2462 1.384 . S
C2461 C2460 1.377 . S
C2461 C2467 1.390 . S
C2462 H2453 0.930 . S
C2462 C2460 1.384 . S
C2462 C2463 1.372 . S
C2463 C2462 1.372 . S
C2463 C2464 1.400 . S
C2463 C2468 1.490 . S
C2464 H2454 0.930 . S
C2464 C2463 1.400 . S
C2464 C2467 1.386 . S
H2465 C2481 0.930 . S
H2466 C2482 0.931 . S
C2467 H2455 0.929 . S
C2467 C2461 1.390 . S
C2467 C2464 1.386 . S
C2468 C2463 1.490 . S
C2468 C2470 1.395 . S
C2468 C2471 1.403 . S
H2469 C2475 0.930 . S
C2470 H2456 0.930 . S
C2470 C2468 1.395 . S
C2470 C2473 1.403 . S
C2471 C2468 1.403 . S
C2471 C2472 1.524 . S
C2471 C2475 1.400 . S
C2472 H2457 0.960 . S
C2472 H2458 0.960 . S
C2472 H2459 0.960 . S
C2472 C2471 1.524 . S
C2473 C2470 1.403 . S
C2473 C2474 1.392 . S
C2473 C2477 1.495 . S
C2474 C2473 1.392 . S
C2474 C2475 1.385 . S
C2474 C2476 1.478 . S
C2475 H2469 0.930 . S
C2475 C2471 1.400 . S
C2475 C2474 1.385 . S
C2476 C2474 1.478 . S
C2476 C2478 1.381 . S
C2476 C2482 1.383 . S
C2477 C2473 1.495 . S
C2477 H2483 0.959 . S
C2477 H2484 0.961 . S
C2477 H2485 0.960 . S
C2478 C2476 1.381 . S
C2478 C2479 1.394 . S
C2478 H2486 0.930 . S
C2479 C2478 1.394 . S
C2479 C2480 1.383 . S
C2479 H2487 0.929 . S
C2480 C2479 1.383 . S
C2480 C2481 1.377 . S
C2481 H2465 0.930 . S
C2481 C2480 1.377 . S
C2481 C2482 1.379 . S
C2482 H2466 0.931 . S
C2482 C2476 1.383 . S
C2482 C2481 1.379 . S
H2483 C2477 0.959 . S
H2484 C2477 0.961 . S
H2485 C2477 0.960 . S
H2486 C2478 0.930 . S
H2487 C2479 0.929 . S
H2488 C2496 0.929 . S
H2489 C2498 0.930 . S
H2490 C2500 0.930 . S
H2491 C2503 0.929 . S
H2492 C2506 0.930 . S
H2493 C2508 0.960 . S
H2494 C2508 0.960 . S
H2495 C2508 0.960 . S
C2496 H2488 0.929 . S
C2496 C2497 1.377 . S
C2496 C2498 1.384 . S
C2497 C2496 1.377 . S
C2497 C2503 1.390 . S
C2498 H2489 0.930 . S
C2498 C2496 1.384 . S
C2498 C2499 1.372 . S
C2499 C2498 1.372 . S
C2499 C2500 1.400 . S
C2499 C2504 1.490 . S
C2500 H2490 0.930 . S
C2500 C2499 1.400 . S
C2500 C2503 1.386 . S
H2501 C2517 0.930 . S
H2502 C2518 0.931 . S
C2503 H2491 0.929 . S
C2503 C2497 1.390 . S
C2503 C2500 1.386 . S
C2504 C2499 1.490 . S
C2504 C2506 1.395 . S
C2504 C2507 1.403 1_565 S
H2505 C2511 0.930 . S
C2506 H2492 0.930 . S
C2506 C2504 1.395 . S
C2506 C2509 1.403 . S
C2507 C2504 1.403 1_545 S
C2507 C2508 1.524 . S
C2507 C2511 1.400 . S
C2508 H2493 0.960 . S
C2508 H2494 0.960 . S
C2508 H2495 0.960 . S
C2508 C2507 1.524 . S
C2509 C2506 1.403 . S
C2509 C2510 1.392 1_565 S
C2509 C2513 1.495 . S
C2510 C2509 1.392 1_545 S
C2510 C2511 1.385 . S
C2510 C2512 1.478 . S
C2511 H2505 0.930 . S
C2511 C2507 1.400 . S
C2511 C2510 1.385 . S
C2512 C2510 1.478 . S
C2512 C2514 1.381 1_554 S
C2512 C2518 1.383 . S
C2513 C2509 1.495 . S
C2513 H2519 0.959 . S
C2513 H2520 0.961 1_554 S
C2513 H2521 0.960 1_554 S
C2514 C2512 1.381 1_556 S
C2514 C2515 1.394 . S
C2514 H2522 0.930 . S
C2515 C2514 1.394 . S
C2515 C2516 1.383 . S
C2515 H2523 0.929 . S
C2516 C2515 1.383 . S
C2516 C2517 1.377 . S
C2517 H2501 0.930 . S
C2517 C2516 1.377 . S
C2517 C2518 1.379 1_556 S
C2518 H2502 0.931 . S
C2518 C2512 1.383 . S
C2518 C2517 1.379 1_554 S
H2519 C2513 0.959 . S
H2520 C2513 0.961 1_556 S
H2521 C2513 0.960 1_556 S
H2522 C2514 0.930 . S
H2523 C2515 0.929 . S
H2524 C2532 0.929 . S
H2525 C2534 0.930 . S
H2526 C2536 0.930 . S
H2527 C2539 0.929 . S
H2528 C2542 0.930 . S
H2529 C2544 0.960 . S
H2530 C2544 0.960 . S
H2531 C2544 0.927 1_455 S
C2532 H2524 0.929 . S
C2532 C2533 1.372 1_655 S
C2532 C2534 1.384 . S
C2533 C2532 1.372 1_455 S
C2533 C2539 1.395 . S
C2534 H2525 0.930 . S
C2534 C2532 1.384 . S
C2534 C2535 1.381 . S
C2535 C2534 1.381 . S
C2535 C2536 1.391 1_655 S
C2535 C2540 1.490 . S
C2536 H2526 0.930 . S
C2536 C2535 1.391 1_455 S
C2536 C2539 1.386 . S
H2537 C2553 0.930 . S
H2538 C2554 0.931 . S
C2539 H2527 0.929 . S
C2539 C2533 1.395 . S
C2539 C2536 1.386 . S
C2540 C2535 1.490 . S
C2540 C2542 1.394 1_655 S
C2540 C2543 1.403 1_545 S
H2541 C2547 0.930 . S
C2542 H2528 0.930 . S
C2542 C2540 1.394 1_455 S
C2542 C2545 1.403 . S
C2543 C2540 1.403 1_565 S
C2543 C2544 1.524 . S
C2543 C2547 1.400 . S
C2544 H2529 0.960 . S
C2544 H2530 0.960 . S
C2544 H2531 0.927 1_655 S
C2544 C2543 1.524 . S
C2545 C2542 1.403 . S
C2545 C2546 1.402 1_545 S
C2545 C2549 1.495 . S
C2546 C2545 1.402 1_565 S
C2546 C2547 1.376 1_455 S
C2546 C2548 1.477 . S
C2547 H2541 0.930 . S
C2547 C2543 1.400 . S
C2547 C2546 1.376 1_655 S
C2548 C2546 1.477 . S
C2548 C2550 1.322 1_455 S
C2548 C2554 1.444 . S
C2549 C2545 1.495 . S
C2549 H2555 0.959 . S
C2549 H2556 0.961 . S
C2549 H2557 0.960 1_455 S
C2550 C2548 1.322 1_655 S
C2550 C2551 1.394 . S
C2550 H2558 0.930 . S
C2551 C2550 1.394 . S
C2551 C2552 1.342 1_655 S
C2551 H2559 0.929 . S
C2552 C2551 1.342 1_455 S
C2552 C2553 1.420 . S
C2553 H2537 0.930 . S
C2553 C2552 1.420 . S
C2553 C2554 1.379 . S
C2554 H2538 0.931 . S
C2554 C2548 1.444 . S
C2554 C2553 1.379 . S
H2555 C2549 0.959 . S
H2556 C2549 0.961 . S
H2557 C2549 0.960 1_655 S
H2558 C2550 0.930 . S
H2559 C2551 0.929 . S
C1417 C849 1.506 . S
C1436 C29 1.496 . S
C1453 C1281 1.511 . S
C1472 C117 1.496 . S
C1489 C233 1.512 . S
C1508 C753 1.504 . S
C1525 C293 1.508 1_556 S
C1544 C1349 1.515 . S
C1561 C401 1.514 . S
C1580 C909 1.508 1_556 S
C1597 C1201 1.512 . S
C1616 C497 1.511 . S
C1633 C988 1.511 . S
C1652 C548 1.521 . S
C1669 C673 1.505 . S
C1688 C1076 1.495 . S
C1705 C409 1.510 . S
C1724 C313 1.504 1_556 S
C1741 C1085 1.510 . S
C1760 C733 1.499 . S
C1777 C557 1.503 . S
C1796 C137 1.515 . S
C1813 C812 1.512 . S
C1832 C1193 1.510 . S
C1849 C20 1.503 . S
C1868 C460 1.525 . S
C1885 C1340 1.508 . S
C1904 C929 1.513 1_556 S
C1921 C636 1.515 . S
C1940 C225 1.514 . S
C1957 C1025 1.517 . S
C1976 C1289 1.489 . S
C1993 C49 1.230 . S
C2012 C381 1.234 . S
C2029 C469 1.221 . S
C2048 C145 1.226 . S
C2065 C585 1.231 . S
C2084 C196 1.249 . S
C2101 C321 1.221 . S
C2120 C645 1.225 . S
C2137 C937 1.224 . S
C2156 C724 1.242 . S
C2173 C1017 1.223 . S
C2192 C821 1.230 . S
C2209 C1261 1.230 . S
C2228 C1113 1.237 . S
C2245 C1369 1.231 1_655 S
C2264 C1164 1.235 . S
C2281 C372 2.067 1_655 S
C2300 C57 2.066 1_655 S
C2317 C489 2.075 . S
C2336 C108 2.065 . S
C2353 C577 2.065 . S
C2372 C205 2.054 . S
C2389 C284 2.076 . S
C2408 C665 2.078 . S
C2425 C761 2.075 . S
C2444 C900 2.064 . S
C2461 C997 2.076 . S
C2480 C841 2.079 . S
C2497 C1252 2.065 . S
C2516 C1105 2.054 . S
C2533 C1377 2.065 . S
C2552 C1173 2.054 . S
