# Generated by pormake.
# Topology wkt, (7)-cn, num edge types: 1
# Building blocks:
#     Node 0, Type 0, BuildingBlock: NUHQUE_clean_sbu_2, # of connection points: 7
#     Node 1, Type 0, BuildingBlock: NUHQUE_clean_sbu_2, # of connection points: 7
#     Node 2, Type 0, BuildingBlock: NUHQUE_clean_sbu_2, # of connection points: 7
#     Node 3, Type 0, BuildingBlock: NUHQUE_clean_sbu_2, # of connection points: 7
#     Node 4, Type 0, BuildingBlock: NUHQUE_clean_sbu_2, # of connection points: 7
#     Node 5, Type 0, BuildingBlock: NUHQUE_clean_sbu_2, # of connection points: 7
#     Node 6, Type 0, BuildingBlock: NUHQUE_clean_sbu_2, # of connection points: 7
#     Node 7, Type 0, BuildingBlock: NUHQUE_clean_sbu_2, # of connection points: 7
#     Node 8, Type 0, BuildingBlock: NUHQUE_clean_sbu_2, # of connection points: 7
#     Node 9, Type 0, BuildingBlock: NUHQUE_clean_sbu_2, # of connection points: 7
#     Node 10, Type 0, BuildingBlock: NUHQUE_clean_sbu_2, # of connection points: 7
#     Node 11, Type 0, BuildingBlock: NUHQUE_clean_sbu_2, # of connection points: 7
#     Edge 12, Type (0, 0), BuildingBlock: MIFKUJ_clean_linker_0, # of connection points: 2
#     Edge 13, Type (0, 0), BuildingBlock: MIFKUJ_clean_linker_0, # of connection points: 2
#     Edge 14, Type (0, 0), BuildingBlock: MIFKUJ_clean_linker_0, # of connection points: 2
#     Edge 15, Type (0, 0), BuildingBlock: MIFKUJ_clean_linker_0, # of connection points: 2
#     Edge 16, Type (0, 0), BuildingBlock: MIFKUJ_clean_linker_0, # of connection points: 2
#     Edge 17, Type (0, 0), BuildingBlock: MIFKUJ_clean_linker_0, # of connection points: 2
#     Edge 18, Type (0, 0), BuildingBlock: MIFKUJ_clean_linker_0, # of connection points: 2
#     Edge 19, Type (0, 0), BuildingBlock: MIFKUJ_clean_linker_0, # of connection points: 2
#     Edge 20, Type (0, 0), BuildingBlock: MIFKUJ_clean_linker_0, # of connection points: 2
#     Edge 21, Type (0, 0), BuildingBlock: MIFKUJ_clean_linker_0, # of connection points: 2
#     Edge 22, Type (0, 0), BuildingBlock: MIFKUJ_clean_linker_0, # of connection points: 2
#     Edge 23, Type (0, 0), BuildingBlock: MIFKUJ_clean_linker_0, # of connection points: 2
#     Edge 24, Type (0, 0), BuildingBlock: MIFKUJ_clean_linker_0, # of connection points: 2
#     Edge 25, Type (0, 0), BuildingBlock: MIFKUJ_clean_linker_0, # of connection points: 2
#     Edge 26, Type (0, 0), BuildingBlock: MIFKUJ_clean_linker_0, # of connection points: 2
#     Edge 27, Type (0, 0), BuildingBlock: MIFKUJ_clean_linker_0, # of connection points: 2
#     Edge 28, Type (0, 0), BuildingBlock: MIFKUJ_clean_linker_0, # of connection points: 2
#     Edge 29, Type (0, 0), BuildingBlock: MIFKUJ_clean_linker_0, # of connection points: 2
#     Edge 30, Type (0, 0), BuildingBlock: MIFKUJ_clean_linker_0, # of connection points: 2
#     Edge 31, Type (0, 0), BuildingBlock: MIFKUJ_clean_linker_0, # of connection points: 2
#     Edge 32, Type (0, 0), BuildingBlock: MIFKUJ_clean_linker_0, # of connection points: 2
#     Edge 33, Type (0, 0), BuildingBlock: MIFKUJ_clean_linker_0, # of connection points: 2
#     Edge 34, Type (0, 0), BuildingBlock: MIFKUJ_clean_linker_0, # of connection points: 2
#     Edge 35, Type (0, 0), BuildingBlock: MIFKUJ_clean_linker_0, # of connection points: 2
#     Edge 36, Type (0, 0), BuildingBlock: MIFKUJ_clean_linker_0, # of connection points: 2
#     Edge 37, Type (0, 0), BuildingBlock: MIFKUJ_clean_linker_0, # of connection points: 2
#     Edge 38, Type (0, 0), BuildingBlock: MIFKUJ_clean_linker_0, # of connection points: 2
#     Edge 39, Type (0, 0), BuildingBlock: MIFKUJ_clean_linker_0, # of connection points: 2
#     Edge 40, Type (0, 0), BuildingBlock: MIFKUJ_clean_linker_0, # of connection points: 2
#     Edge 41, Type (0, 0), BuildingBlock: MIFKUJ_clean_linker_0, # of connection points: 2
#     Edge 42, Type (0, 0), BuildingBlock: MIFKUJ_clean_linker_0, # of connection points: 2
#     Edge 43, Type (0, 0), BuildingBlock: MIFKUJ_clean_linker_0, # of connection points: 2
#     Edge 44, Type (0, 0), BuildingBlock: MIFKUJ_clean_linker_0, # of connection points: 2
#     Edge 45, Type (0, 0), BuildingBlock: MIFKUJ_clean_linker_0, # of connection points: 2
#     Edge 46, Type (0, 0), BuildingBlock: MIFKUJ_clean_linker_0, # of connection points: 2
#     Edge 47, Type (0, 0), BuildingBlock: MIFKUJ_clean_linker_0, # of connection points: 2
#     Edge 48, Type (0, 0), BuildingBlock: MIFKUJ_clean_linker_0, # of connection points: 2
#     Edge 49, Type (0, 0), BuildingBlock: MIFKUJ_clean_linker_0, # of connection points: 2
#     Edge 50, Type (0, 0), BuildingBlock: MIFKUJ_clean_linker_0, # of connection points: 2
#     Edge 51, Type (0, 0), BuildingBlock: MIFKUJ_clean_linker_0, # of connection points: 2
#     Edge 52, Type (0, 0), BuildingBlock: MIFKUJ_clean_linker_0, # of connection points: 2
#     Edge 53, Type (0, 0), BuildingBlock: MIFKUJ_clean_linker_0, # of connection points: 2
# Relax obj value: 0.239
# Max RMSD: 0.272
# Mean RMSD: 0.272
data_MOF--net-wkt--node1-NUHQUE_clean_sbu_2--edge1-MIFKUJ_clean_linker_0
_symmetry_space_group_name_H-M    P1
_symmetry_Int_Tables_number       1
_symmetry_cell_setting            triclinic
loop_
_symmetry_equiv_pos_as_xyz
'x, y, z'
_cell_length_a     40.114278
_cell_length_b     40.079473
_cell_length_c     88.188318
_cell_angle_alpha  90.202088
_cell_angle_beta   89.837858
_cell_angle_gamma 120.15885
loop_
_atom_site_label
_atom_site_type_symbol
_atom_site_fract_x
_atom_site_fract_y
_atom_site_fract_z
_atom_type_partial_charge
O0 O 0.37879 0.48861 0.0113 0.0
Tb1 Tb 0.41063 0.5217 -0.00853 0.0
Eu2 Eu 0.36541 0.43115 -0.0125 0.0
C3 C 0.36232 0.50425 0.0193 0.0
O4 O 0.36694 0.53749 0.01472 0.0
C5 C 0.32419 0.48401 -0.01618 0.0
O6 O 0.38137 0.4419 0.96302 0.0
C7 C 0.33301 0.35751 -0.00779 0.0
C8 C 0.35646 0.43849 0.95265 0.0
O9 O 0.32143 0.42979 0.95662 0.0
C10 C 0.45849 0.4826 -0.01399 0.0
C11 C 0.3449 0.32788 -0.00867 0.0
C12 C 0.34098 0.30542 0.00414 0.0
C13 C 0.35202 0.27732 0.00353 0.0
C14 C 0.36623 0.27098 -0.01005 0.0
C15 C 0.37043 0.29292 0.97691 0.0
C16 C 0.35995 0.32164 0.97779 0.0
O17 O 0.35858 0.51232 0.97981 0.0
O18 O 0.32125 0.45237 -0.01 0.0
O19 O 0.44707 0.56461 0.00823 0.0
O20 O 0.43093 0.58316 -0.01156 0.0
C21 C 0.45003 0.59432 0.00112 0.0
O22 O 0.42947 0.45285 -0.00711 0.0
O23 O 0.45258 0.50975 0.98066 0.0
O24 O 0.33057 0.37243 0.97929 0.0
O25 O 0.34795 0.38314 0.00324 0.0
H26 H 0.32979 0.3101 0.01465 0.0
H27 H 0.37346 0.24832 -0.01039 0.0
H28 H 0.36388 0.33945 0.96799 0.0
O29 O 0.92391 0.36213 0.17862 0.0
Tb30 Tb 0.91617 0.39698 0.16164 0.0
Eu31 Eu 0.9575 0.34999 0.15304 0.0
C32 C 0.89786 0.34828 0.18949 0.0
O33 O 0.86975 0.35609 0.18933 0.0
C34 C 0.86228 0.31198 0.15194 0.0
O35 O 0.96453 0.35912 0.12814 0.0
C36 C 0.99554 0.31555 0.1596 0.0
C37 C 0.94659 0.37351 0.12069 0.0
O38 O 0.92207 0.38066 0.12779 0.0
C39 C 1.00043 0.44435 0.15088 0.0
C40 C 1.0361 0.32473 0.15812 0.0
C41 C 0.05446 0.31936 0.17064 0.0
C42 C 0.09252 0.32656 0.16948 0.0
C43 C 0.11178 0.33866 0.15549 0.0
C44 C 0.09384 0.34379 0.14282 0.0
C45 C 0.05623 0.3375 0.14423 0.0
O46 O 0.86759 0.34715 0.15081 0.0
O47 O 0.8918 0.30719 0.15544 0.0
O48 O 0.91855 0.43218 0.18097 0.0
O49 O 0.87683 0.41958 0.16376 0.0
C50 C 0.89042 0.43714 0.17664 0.0
O51 O 1.0032 0.41472 0.15586 0.0
O52 O 0.96591 0.43961 0.14871 0.0
O53 O 0.97657 0.30998 0.14686 0.0
O54 O 0.98809 0.33514 0.16978 0.0
H55 H 1.0388 0.30907 0.18122 0.0
H56 H 0.14134 0.34505 0.15444 0.0
H57 H 1.04248 0.34166 0.13444 0.0
O58 O 0.60014 0.91268 0.35074 0.0
Tb59 Tb 0.55974 0.90777 0.33326 0.0
Eu60 Eu 0.64893 0.94975 0.32425 0.0
C61 C 0.58607 0.88465 0.3608 0.0
O62 O 0.54962 0.85769 0.35982 0.0
C63 C 0.59194 0.85437 0.32476 0.0
O64 O 0.6429 0.95154 0.29904 0.0
C65 C 0.722 0.98882 0.33021 0.0
C66 C 0.60927 0.93104 0.29251 0.0
O67 O 0.57877 0.91011 0.3009 0.0
C68 C 0.59842 0.99278 0.32352 0.0
C69 C 0.75244 1.03009 0.32943 0.0
C70 C 0.77358 0.04892 0.34252 0.0
C71 C 0.80235 0.08812 0.34208 0.0
C72 C 0.81021 0.10806 0.32827 0.0
C73 C 0.78913 0.0901 0.31512 0.0
C74 C 0.76032 0.05099 0.31575 0.0
O75 O 0.56179 0.85897 0.32304 0.0
O76 O 0.62616 0.88457 0.32811 0.0
O77 O 0.52636 0.91039 0.35226 0.0
O78 O 0.49716 0.8703 0.3344 0.0
C79 C 0.49299 0.88369 0.34731 0.0
O80 O 0.63052 0.99505 0.32848 0.0
O81 O 0.56881 0.95851 0.32062 0.0
O82 O 0.70805 0.97129 0.3172 0.0
O83 O 0.69538 0.97917 0.34076 0.0
H84 H 0.76712 1.03316 0.3531 0.0
H85 H 0.83341 0.13779 0.32769 0.0
H86 H 0.7437 0.03712 0.30566 0.0
O87 O 0.7271 0.57659 0.52197 0.0
Tb88 Tb 0.70011 0.54035 0.50195 0.0
Eu89 Eu 0.74299 0.62733 0.48592 0.0
C90 C 0.76379 0.6032 0.52289 0.0
O91 O 0.78412 0.61619 0.5105 0.0
C92 C 0.78134 0.56936 0.4851 0.0
O93 O 0.71619 0.62181 0.46326 0.0
C94 C 0.77964 0.69996 0.49268 0.0
C95 C 0.69797 0.58793 0.45674 0.0
O96 O 0.70168 0.55961 0.46232 0.0
C97 C 0.65032 0.57455 0.49011 0.0
C98 C 0.76833 0.73 0.49313 0.0
C99 C 0.76929 0.74831 0.50692 0.0
C100 C 0.75628 0.77491 0.50754 0.0
C101 C 0.74304 0.78381 0.49435 0.0
C102 C 0.7423 0.76635 0.48046 0.0
C103 C 0.75498 0.73944 0.47993 0.0
O104 O 0.75004 0.5408 0.49136 0.0
O105 O 0.78426 0.60327 0.48225 0.0
O106 O 0.6661 0.50414 0.52079 0.0
O107 O 0.67824 0.47803 0.50229 0.0
C108 C 0.66137 0.47189 0.51542 0.0
O109 O 0.68078 0.60853 0.49298 0.0
O110 O 0.6547 0.54417 0.48946 0.0
O111 O 0.78098 0.68661 0.47917 0.0
O112 O 0.7643 0.67281 0.50312 0.0
H113 H 0.77926 0.74126 0.51718 0.0
H114 H 0.73371 0.80493 0.49494 0.0
H115 H 0.75357 0.7253 0.46926 0.0
O116 O 0.16348 0.72104 0.69642 0.0
Tb117 Tb 0.17362 0.68156 0.6828 0.0
Eu118 Eu 0.14757 0.70629 0.65212 0.0
C119 C 0.17867 0.75797 0.69336 0.0
O120 O 0.19353 0.77094 0.67994 0.0
C121 C 0.2392 0.74967 0.66195 0.0
O122 O 0.13242 0.70613 0.62774 0.0
C123 C 0.10491 0.72686 0.66683 0.0
C124 C 0.15255 0.7362 0.61902 0.0
O125 O 0.18293 0.76687 0.62452 0.0
C126 C 0.10266 0.61795 0.66244 0.0
C127 C 0.06347 0.71361 0.66632 0.0
C128 C 1.04608 0.72213 0.67836 0.0
C129 C 1.00668 0.71052 0.67781 0.0
C130 C 0.98492 0.68976 0.66512 0.0
C131 C 1.00205 0.68147 0.65289 0.0
C132 C 1.04143 0.69335 0.65359 0.0
O133 O 0.23004 0.72449 0.6731 0.0
O134 O 0.21263 0.74802 0.65266 0.0
O135 O 0.17757 0.6678 0.70635 0.0
O136 O 0.20097 0.64817 0.68918 0.0
C137 C 0.19522 0.64873 0.7037 0.0
O138 O 0.1155 0.64083 0.65052 0.0
O139 O 0.11817 0.63072 0.67594 0.0
O140 O 0.1243 0.74453 0.65456 0.0
O141 O 0.11426 0.70216 0.6723 0.0
H142 H 0.06348 0.73856 0.68797 0.0
H143 H 0.95453 0.68067 0.66458 0.0
H144 H 0.05499 0.68713 0.6442 0.0
O145 O 0.52193 0.17958 0.83809 0.0
Tb146 Tb 0.56315 0.18424 0.82082 0.0
Eu147 Eu 0.47518 0.14307 0.81521 0.0
C148 C 0.52986 0.21124 0.8456 0.0
O149 O 0.56159 0.24356 0.84234 0.0
C150 C 0.53449 0.23809 0.80948 0.0
O151 O 0.45953 0.11781 0.79193 0.0
C152 C 0.41178 0.11353 0.83062 0.0
C153 C 0.48285 0.13455 0.78049 0.0
O154 O 0.51053 0.17063 0.78192 0.0
C155 C 0.52563 0.1002 0.8101 0.0
C156 C 0.37853 0.07419 0.8323 0.0
C157 C 0.36114 0.06078 0.84652 0.0
C158 C 0.32835 1.02402 0.84778 0.0
C159 C 0.31277 1.00096 0.83486 0.0
C160 C 0.33021 1.01354 0.82062 0.0
C161 C 0.36347 0.05008 0.8195 0.0
O162 O 0.56433 0.23272 0.80916 0.0
O163 O 0.49977 0.20903 0.81299 0.0
O164 O 0.59288 0.17737 0.84003 0.0
O165 O 0.62537 0.22124 0.82384 0.0
C166 C 0.62708 0.20483 0.8363 0.0
O167 O 0.49428 0.09729 0.81637 0.0
O168 O 0.55456 0.13489 0.80721 0.0
O169 O 0.41582 0.12885 0.8171 0.0
O170 O 0.44462 0.12034 0.83669 0.0
H171 H 0.37312 0.07874 0.85648 0.0
H172 H 0.28665 0.97316 0.83599 0.0
H173 H 0.3778 0.05982 0.80864 0.0
O174 O 0.55944 0.70053 0.77526 0.0
Tb175 Tb 0.53805 0.67297 0.79717 0.0
Eu176 Eu 0.63075 0.7187 0.80761 0.0
C177 C 0.59559 0.72006 0.77088 0.0
O178 O 0.62264 0.72032 0.77923 0.0
C179 C 0.57852 0.76078 0.80554 0.0
O180 O 0.60065 0.68538 0.82841 0.0
C181 C 0.7048 0.75273 0.81155 0.0
C182 C 0.58102 0.69398 0.83794 0.0
O183 O 0.57985 0.72592 0.83634 0.0
C184 C 0.58282 0.62809 0.80119 0.0
C185 C 0.73473 0.74148 0.81316 0.0
C186 C 0.75752 0.74434 0.80051 0.0
C187 C 0.78498 0.73239 0.8013 0.0
C188 C 0.7895 0.71762 0.81506 0.0
C189 C 0.76864 0.71643 0.82801 0.0
C190 C 0.74128 0.72845 0.82708 0.0
O191 O 0.54798 0.72652 0.80801 0.0
O192 O 0.61231 0.76371 0.80258 0.0
O193 O 0.48916 0.63588 0.78283 0.0
O194 O 0.47857 0.65043 0.80482 0.0
C195 C 0.4626 0.63152 0.7924 0.0
O196 O 0.61461 0.65989 0.79707 0.0
O197 O 0.55299 0.63081 0.80579 0.0
O198 O 0.68029 0.74465 0.82281 0.0
O199 O 0.68851 0.74691 0.79811 0.0
H200 H 0.75405 0.75635 0.79005 0.0
H201 H 0.80979 0.70736 0.81588 0.0
H202 H 0.72497 0.72717 0.8371 0.0
O203 O 0.91234 0.56194 0.94901 0.0
Tb204 Tb 0.90516 0.51155 0.96122 0.0
Eu205 Eu 0.94856 0.5966 0.97374 0.0
C206 C 0.92614 0.57247 0.93522 0.0
O207 O 0.94348 0.55611 0.92844 0.0
C208 C 0.8521 0.53909 0.97509 0.0
O209 O 0.96343 0.58309 -0.00363 0.0
C210 C 0.98496 0.6706 0.96966 0.0
C211 C 0.94149 0.54897 0.00227 0.0
O212 O 0.90665 0.52706 -0.00312 0.0
C213 C 0.98972 0.54499 0.97038 0.0
C214 C 1.0251 0.70341 0.96869 0.0
C215 C 1.03881 0.72256 0.95474 0.0
C216 C 0.07656 0.75355 0.95351 0.0
C217 C 0.10046 0.76613 0.96626 0.0
C218 C 0.08743 0.74817 0.98037 0.0
C219 C 1.04955 0.71661 0.98152 0.0
O220 O 0.85635 0.5087 0.9734 0.0
O221 O 0.88255 0.57447 0.97404 0.0
O222 O 0.90202 0.48383 0.93955 0.0
O223 O 0.86721 0.44965 0.95793 0.0
C224 C 0.87675 0.44916 0.94386 0.0
O225 O 0.99243 0.57806 0.96631 0.0
O226 O 0.95511 0.51538 0.97273 0.0
O227 O 0.9726 0.65439 -0.01698 0.0
O228 O 0.97291 0.64561 0.95834 0.0
H229 H 1.02028 0.71329 0.94484 0.0
H230 H 0.12916 0.791 0.9652 0.0
H231 H 1.0393 0.70235 -0.00765 0.0
O232 O 0.38759 0.91536 0.10171 0.0
Tb233 Tb 0.41603 0.89491 0.11719 0.0
Eu234 Eu 0.38301 0.93308 0.14255 0.0
C235 C 0.35203 0.90827 0.10345 0.0
O236 O 0.3344 0.89459 0.11634 0.0
C237 C 0.33855 0.83776 0.13572 0.0
O238 O 0.41846 0.93205 0.16189 0.0
C239 C 0.34859 0.97205 0.1481 0.0
C240 C 0.4334 0.90955 0.1609 0.0
O241 O 0.42292 0.88464 0.14971 0.0
C242 C 0.47089 0.97587 0.13115 0.0
C243 C 0.35824 1.01314 0.14785 0.0
C244 C 0.35472 1.02964 0.13427 0.0
C245 C 0.36442 0.0685 0.13374 0.0
C246 C 0.37698 0.09078 0.14701 0.0
C247 C 0.38015 0.07503 0.16077 0.0
C248 C 0.3705 1.03602 0.16113 0.0
O249 O 0.36738 0.84239 0.12695 0.0
O250 O 0.33818 0.86763 0.14214 0.0
O251 O 0.43624 0.8915 0.09459 0.0
O252 O 0.44193 0.85916 0.11233 0.0
C253 C 0.44813 0.8678 0.09802 0.0
O254 O 0.4398 0.97916 0.13178 0.0
O255 O 0.46644 0.94145 0.12886 0.0
O256 O 0.36424 0.96151 0.15881 0.0
O257 O 0.34722 0.95607 0.13486 0.0
H258 H 0.34502 1.01251 0.12398 0.0
H259 H 0.38339 0.12047 0.14666 0.0
H260 H 0.37306 1.0237 0.17167 0.0
O261 O 0.53301 0.37598 0.28682 0.0
Tb262 Tb 0.57878 0.41548 0.30204 0.0
Eu263 Eu 0.49163 0.37122 0.31171 0.0
C264 C 0.54317 0.35901 0.27644 0.0
O265 O 0.57929 0.3674 0.27589 0.0
C266 C 0.54891 0.3332 0.31416 0.0
O267 O 0.48973 0.38784 0.3357 0.0
C268 C 0.42075 0.33861 0.30314 0.0
C269 C 0.52097 0.40606 0.34389 0.0
O270 O 0.55295 0.40803 0.33911 0.0
C271 C 0.5446 0.46509 0.31233 0.0
C272 C 0.39277 0.35226 0.30396 0.0
C273 C 0.36659 0.34403 0.29209 0.0
C274 C 0.34068 0.35806 0.29239 0.0
C275 C 0.34152 0.38053 0.30486 0.0
C276 C 0.36689 0.38825 0.31704 0.0
C277 C 0.39267 0.37424 0.31646 0.0
O278 O 0.57912 0.36841 0.31425 0.0
O279 O 0.51406 0.32795 0.3114 0.0
O280 O 0.60691 0.44632 0.28131 0.0
O281 O 0.64001 0.43696 0.29776 0.0
C282 C 0.64087 0.45172 0.28453 0.0
O283 O 0.51216 0.43546 0.30733 0.0
O284 O 0.57419 0.46016 0.31455 0.0
O285 O 0.43127 0.33143 0.31628 0.0
O286 O 0.44965 0.35704 0.29357 0.0
H287 H 0.36629 0.32634 0.28271 0.0
H288 H 0.32194 0.39172 0.30525 0.0
H289 H 0.41277 0.38068 0.32571 0.0
O290 O 0.20609 0.52617 0.44028 0.0
Tb291 Tb 0.20849 0.5584 0.46077 0.0
Eu292 Eu 0.16503 0.47296 0.47928 0.0
C293 C 0.20647 0.49356 0.44009 0.0
O294 O 0.19844 0.47321 0.45248 0.0
C295 C 0.26157 0.52858 0.4756 0.0
O296 O 0.15833 0.49975 0.50049 0.0
C297 C 0.12792 0.39815 0.48103 0.0
C298 C 0.18414 0.53524 0.50412 0.0
O299 O 0.21689 0.55259 0.49669 0.0
C300 C 0.12339 0.52119 0.47211 0.0
C301 C 0.0882 0.36429 0.48138 0.0
C302 C 0.07094 0.3441 0.46787 0.0
C303 C 1.03485 0.31016 0.46817 0.0
C304 C 1.01578 0.2965 0.48202 0.0
C305 C 1.03217 0.31614 0.49561 0.0
C306 C 0.06843 0.35011 0.49523 0.0
O307 O 0.25863 0.55827 0.47079 0.0
O308 O 0.23058 0.49456 0.47849 0.0
O309 O 0.20553 0.59391 0.44291 0.0
O310 O 0.24605 0.62129 0.4607 0.0
C311 C 0.23218 0.62679 0.44822 0.0
O312 O 0.12074 0.48749 0.46946 0.0
O313 O 0.15806 0.55156 0.47346 0.0
O314 O 0.14016 0.42086 0.49303 0.0
O315 O 0.1397 0.41702 0.46813 0.0
H316 H 0.08589 0.35415 0.45713 0.0
H317 H 0.98746 0.27078 0.48216 0.0
H318 H 0.0815 0.3649 0.50576 0.0
O319 O 0.72911 0.15992 0.6158 0.0
Tb320 Tb 0.69028 0.16665 0.63139 0.0
Eu321 Eu 0.71753 0.13353 0.65923 0.0
C322 C 0.76558 0.17239 0.61896 0.0
O323 O 0.7783 0.18434 0.63271 0.0
C324 C 0.76028 0.22692 0.65334 0.0
O325 O 0.714 0.10461 0.68133 0.0
C326 C 0.7323 0.09448 0.63957 0.0
C327 C 0.72062 0.12276 0.69432 0.0
O328 O 0.73601 0.16046 0.69431 0.0
C329 C 0.62809 0.09436 0.65138 0.0
C330 C 0.71821 0.05293 0.63807 0.0
C331 C 0.72239 0.03733 0.62438 0.0
C332 C 0.70872 0.99747 0.62317 0.0
C333 C 0.69116 0.97364 0.63579 0.0
C334 C 0.68786 0.98918 0.64959 0.0
C335 C 0.70099 1.02875 0.65061 0.0
O336 O 0.73399 0.22005 0.64286 0.0
O337 O 0.7598 0.19844 0.66108 0.0
O338 O 0.67357 0.1768 0.60913 0.0
O339 O 0.65942 0.19835 0.62865 0.0
C340 C 0.65741 0.19596 0.61394 0.0
O341 O 0.65284 0.10614 0.6627 0.0
O342 O 0.63943 0.11044 0.63786 0.0
O343 O 0.75397 0.1111 0.65154 0.0
O344 O 0.70652 0.105 0.63724 0.0
H345 H 0.73623 0.05607 0.61476 0.0
H346 H 0.68202 0.9432 0.63513 0.0
H347 H 0.69828 0.04083 0.66125 0.0
H348 H 0.44901 0.65673 -0.01056 0.0
H349 H 0.46437 0.71627 0.00299 0.0
H350 H 0.50003 0.67701 0.04192 0.0
H351 H 0.48549 0.61813 0.02836 0.0
H352 H 0.42645 0.71591 0.02748 0.0
H353 H 0.56097 0.75084 0.0641 0.0
H354 H 0.62234 0.75119 0.06139 0.0
H355 H 0.61983 0.76511 0.01323 0.0
H356 H 0.55875 0.76541 0.01566 0.0
H357 H 0.4721 0.81614 0.10339 0.0
H358 H 0.48706 0.78079 0.08433 0.0
H359 H 0.47033 0.84446 0.04873 0.0
H360 H 0.45552 0.87986 0.06767 0.0
H361 H 0.54029 0.8015 0.05904 0.0
H362 H 0.41011 0.77562 0.02317 0.0
H363 H 0.34829 0.77437 0.02626 0.0
H364 H 0.34235 0.74054 0.07279 0.0
H365 H 0.40372 0.74094 0.06989 0.0
C366 C 0.46118 0.66143 0.00073 0.0
C367 C 0.46587 0.63288 0.00792 0.0
C368 C 0.46985 0.69534 0.00846 0.0
C369 C 0.48346 0.70116 0.02345 0.0
C370 C 0.49023 0.67354 0.03028 0.0
C371 C 0.48167 0.63976 0.02255 0.0
C372 C 0.48543 0.73303 0.0327 0.0
C373 C 0.45175 0.7353 0.03405 0.0
C374 C 0.51805 0.75758 0.04163 0.0
C375 C 0.55507 0.75787 0.04007 0.0
C376 C 0.5736 0.75419 0.05294 0.0
C377 C 0.60832 0.75423 0.05145 0.0
C378 C 0.62492 0.75808 0.03714 0.0
C379 C 0.60687 0.76199 0.0243 0.0
C380 C 0.57215 0.76199 0.02573 0.0
C381 C 0.47237 0.82304 0.09151 0.0
C382 C 0.46226 0.8503 0.08694 0.0
C383 C 0.48112 0.80306 0.08067 0.0
C384 C 0.47947 0.80991 0.06518 0.0
C385 C 0.47157 0.83873 0.06066 0.0
C386 C 0.46304 0.85881 0.07147 0.0
C387 C 0.48137 0.7839 0.05376 0.0
C388 C 0.51548 0.78261 0.05214 0.0
C389 C 0.44916 0.76006 0.04458 0.0
C390 C 0.41175 0.75883 0.04635 0.0
C391 C 0.39551 0.76778 0.03404 0.0
C392 C 0.36055 0.7672 0.03576 0.0
C393 C 0.34147 0.75751 0.04973 0.0
C394 C 0.35721 0.74816 0.06199 0.0
C395 C 0.3921 0.7486 0.06032 0.0
H396 H 0.31447 0.75717 0.05105 0.0
H397 H 0.6518 0.75808 0.03601 0.0
H398 H 0.90892 0.46249 0.20565 0.0
H399 H 0.87132 0.47807 0.22315 0.0
H400 H 0.79357 0.46462 0.18683 0.0
H401 H 0.83056 0.44792 0.16937 0.0
H402 H 0.84692 0.52897 0.2263 0.0
H403 H 0.70215 0.41358 0.19983 0.0
H404 H 0.67693 0.35406 0.18453 0.0
H405 H 0.76497 0.33403 0.20219 0.0
H406 H 0.79019 0.39291 0.21782 0.0
H407 H 0.63957 0.46921 0.25496 0.0
H408 H 0.68787 0.48055 0.2356 0.0
H409 H 0.76175 0.47528 0.26979 0.0
H410 H 0.71316 0.46335 0.28925 0.0
H411 H 0.71045 0.42435 0.23062 0.0
H412 H 0.85677 0.53652 0.25626 0.0
H413 H 0.88359 0.59353 0.27305 0.0
H414 H 0.79365 0.61569 0.25973 0.0
H415 H 0.76662 0.55918 0.24271 0.0
C416 C 0.88424 0.46361 0.20135 0.0
C417 C 0.87221 0.45352 0.18625 0.0
C418 C 0.86288 0.47265 0.21134 0.0
C419 C 0.8293 0.4718 0.20635 0.0
C420 C 0.81906 0.46476 0.19096 0.0
C421 C 0.84021 0.45535 0.18099 0.0
C422 C 0.80294 0.47411 0.21752 0.0
C423 C 0.81712 0.50607 0.2273 0.0
C424 C 0.76408 0.44416 0.21881 0.0
C425 C 0.74836 0.40797 0.20982 0.0
C426 C 0.71597 0.39635 0.2005 0.0
C427 C 0.70168 0.36271 0.19178 0.0
C428 C 0.71944 0.34037 0.19235 0.0
C429 C 0.7513 0.3514 0.20174 0.0
C430 C 0.76561 0.38491 0.21053 0.0
C431 C 0.66646 0.4713 0.25841 0.0
C432 C 0.67268 0.46522 0.27356 0.0
C433 C 0.69393 0.4777 0.24734 0.0
C434 C 0.72824 0.47874 0.2513 0.0
C435 C 0.73551 0.47489 0.26657 0.0
C436 C 0.7078 0.46803 0.27764 0.0
C437 C 0.75427 0.47938 0.2393 0.0
C438 C 0.74007 0.4476 0.22946 0.0
C439 C 0.79322 0.50904 0.23824 0.0
C440 C 0.80946 0.54336 0.24832 0.0
C441 C 0.8428 0.55364 0.25687 0.0
C442 C 0.85803 0.58586 0.26644 0.0
C443 C 0.84027 0.60814 0.26749 0.0
C444 C 0.80729 0.59832 0.25895 0.0
C445 C 0.79196 0.56614 0.24937 0.0
H446 H 0.8521 0.63307 0.27491 0.0
H447 H 0.70854 0.31455 0.18549 0.0
H448 H 0.20446 0.63891 0.42221 0.0
H449 H 0.23845 0.69333 0.40497 0.0
H450 H 0.32966 0.75098 0.43773 0.0
H451 H 0.29576 0.6962 0.45511 0.0
H452 H 0.30981 0.80105 0.41668 0.0
H453 H 0.34638 0.70116 0.41771 0.0
H454 H 0.33005 0.63303 0.41764 0.0
H455 H 0.27137 0.61496 0.37512 0.0
H456 H 0.28682 0.68291 0.3751 0.0
H457 H 0.4849 0.90142 0.37624 0.0
H458 H 0.42887 0.86623 0.3926 0.0
H459 H 0.36423 0.79379 0.35486 0.0
H460 H 0.42102 0.82824 0.33854 0.0
H461 H 0.36232 0.75167 0.37707 0.0
H462 H 0.33894 0.85611 0.37316 0.0
H463 H 0.35438 0.9239 0.37323 0.0
H464 H 0.38655 0.93459 0.42015 0.0
H465 H 0.3719 0.86702 0.42032 0.0
C466 C 0.23117 0.66369 0.42595 0.0
C467 C 0.24801 0.66319 0.43982 0.0
C468 C 0.25035 0.69483 0.41614 0.0
C469 C 0.28655 0.72583 0.42009 0.0
C470 C 0.30158 0.72727 0.43458 0.0
C471 C 0.28239 0.69593 0.44442 0.0
C472 C 0.31178 0.75179 0.4081 0.0
C473 C 0.32158 0.79061 0.40801 0.0
C474 C 0.32602 0.73751 0.39665 0.0
C475 C 0.31734 0.69691 0.3965 0.0
C476 C 0.32971 0.68255 0.40842 0.0
C477 C 0.32066 0.64401 0.40839 0.0
C478 C 0.29959 0.61966 0.39641 0.0
C479 C 0.28762 0.63385 0.38441 0.0
C480 C 0.29652 0.67236 0.38441 0.0
C481 C 0.45845 0.87855 0.37136 0.0
C482 C 0.45724 0.86716 0.35621 0.0
C483 C 0.4263 0.85866 0.38069 0.0
C484 C 0.3922 0.82748 0.37495 0.0
C485 C 0.39026 0.81776 0.35952 0.0
C486 C 0.42262 0.83739 0.35022 0.0
C487 C 0.36113 0.80171 0.38551 0.0
C488 C 0.35021 0.76251 0.38544 0.0
C489 C 0.34592 0.81585 0.39672 0.0
C490 C 0.35453 0.85649 0.39672 0.0
C491 C 0.34957 0.87297 0.38347 0.0
C492 C 0.35815 0.91136 0.38347 0.0
C493 C 0.3715 0.93355 0.39667 0.0
C494 C 0.37621 0.91736 0.40993 0.0
C495 C 0.36771 0.87899 0.40999 0.0
H496 H 0.37814 0.96328 0.39664 0.0
H497 H 0.29266 0.58986 0.3964 0.0
H498 H 0.62917 0.45863 0.5434 0.0
H499 H 0.61457 0.40438 0.56007 0.0
H500 H 0.64463 0.35058 0.52427 0.0
H501 H 0.65921 0.40493 0.50746 0.0
H502 H 0.58169 0.29728 0.54264 0.0
H503 H 0.71163 0.40375 0.54764 0.0
H504 H 0.76128 0.47197 0.55151 0.0
H505 H 0.7138 0.47086 0.59533 0.0
H506 H 0.66346 0.40274 0.5916 0.0
H507 H 0.65324 0.19328 0.5832 0.0
H508 H 0.63959 0.23363 0.56659 0.0
H509 H 0.6185 0.28543 0.6057 0.0
H510 H 0.63238 0.24514 0.62241 0.0
H511 H 0.671 0.3387 0.58656 0.0
H512 H 0.54508 0.22823 0.58237 0.0
H513 H 0.49698 0.15976 0.57804 0.0
H514 H 0.53825 0.16746 0.53248 0.0
H515 H 0.587 0.23587 0.53661 0.0
C516 C 0.6318 0.43481 0.53896 0.0
C517 C 0.64573 0.43605 0.52423 0.0
C518 C 0.62347 0.4039 0.54849 0.0
C519 C 0.62909 0.37387 0.54344 0.0
C520 C 0.64017 0.37358 0.52835 0.0
C521 C 0.64858 0.40461 0.51879 0.0
C522 C 0.62787 0.34545 0.55437 0.0
C523 C 0.60129 0.30615 0.55221 0.0
C524 C 0.65312 0.35736 0.56695 0.0
C525 C 0.6835 0.39827 0.56927 0.0
C526 C 0.71156 0.41815 0.55804 0.0
C527 C 0.73986 0.45678 0.56022 0.0
C528 C 0.74062 0.47576 0.57364 0.0
C529 C 0.71312 0.45613 0.58492 0.0
C530 C 0.68471 0.4175 0.58279 0.0
C531 C 0.64496 0.21274 0.58824 0.0
C532 C 0.64396 0.21629 0.60406 0.0
C533 C 0.63699 0.23564 0.57875 0.0
C534 C 0.62783 0.26236 0.58492 0.0
C535 C 0.62543 0.2649 0.60073 0.0
C536 C 0.63326 0.24187 0.61024 0.0
C537 C 0.62472 0.29024 0.57491 0.0
C538 C 0.65084 0.32964 0.57717 0.0
C539 C 0.59924 0.2783 0.56239 0.0
C540 C 0.56992 0.23714 0.55985 0.0
C541 C 0.54413 0.21526 0.57147 0.0
C542 C 0.51669 0.17647 0.56904 0.0
C543 C 0.51461 0.15925 0.55501 0.0
C544 C 0.53991 0.18083 0.54335 0.0
C545 C 0.56742 0.21964 0.54572 0.0
H546 H 0.49334 0.12921 0.55315 0.0
H547 H 0.76261 0.50563 0.57532 0.0
H548 H 0.18341 0.6482 0.73403 0.0
H549 H 0.21276 0.62931 0.75403 0.0
H550 H 0.26861 0.59631 0.72011 0.0
H551 H 0.23879 0.61462 0.70006 0.0
H552 H 0.24375 0.54685 0.74451 0.0
H553 H 0.31421 0.68572 0.73547 0.0
H554 H 0.32125 0.75044 0.73418 0.0
H555 H 0.28755 0.74209 0.7809 0.0
H556 H 0.27978 0.67702 0.7824 0.0
H557 H 0.42798 0.59269 0.7667 0.0
H558 H 0.36536 0.57839 0.75714 0.0
H559 H 0.34218 0.61833 0.79924 0.0
H560 H 0.4057 0.63353 0.80877 0.0
H561 H 0.33665 0.65637 0.77641 0.0
H562 H 0.28278 0.52378 0.78675 0.0
H563 H 0.27867 0.46039 0.78794 0.0
H564 H 0.28254 0.4566 0.73934 0.0
H565 H 0.28727 0.52023 0.73784 0.0
C566 C 0.20147 0.63634 0.73086 0.0
C567 C 0.2093 0.63322 0.71555 0.0
C568 C 0.21816 0.62556 0.74228 0.0
C569 C 0.2432 0.6119 0.73854 0.0
C570 C 0.24932 0.60678 0.72322 0.0
C571 C 0.23249 0.61741 0.71179 0.0
C572 C 0.26602 0.60649 0.7504 0.0
C573 C 0.26409 0.57066 0.75154 0.0
C574 C 0.29143 0.63729 0.75993 0.0
C575 C 0.29587 0.6763 0.75898 0.0
C576 C 0.30794 0.69753 0.74543 0.0
C577 C 0.31213 0.7343 0.74466 0.0
C578 C 0.30471 0.75031 0.75743 0.0
C579 C 0.29317 0.7296 0.771 0.0
C580 C 0.28885 0.69278 0.77181 0.0
C581 C 0.40908 0.59736 0.7741 0.0
C582 C 0.42172 0.61462 0.78838 0.0
C583 C 0.37307 0.58885 0.76867 0.0
C584 C 0.34891 0.59712 0.77749 0.0
C585 C 0.36034 0.61165 0.79226 0.0
C586 C 0.39654 0.62025 0.7977 0.0
C587 C 0.31559 0.59697 0.77021 0.0
C588 C 0.3155 0.63194 0.76985 0.0
C589 C 0.28846 0.56538 0.76141 0.0
C590 C 0.28548 0.52693 0.7622 0.0
C591 C 0.283 0.50957 0.77631 0.0
C592 C 0.28053 0.47355 0.77704 0.0
C593 C 0.28036 0.45449 0.76373 0.0
C594 C 0.28262 0.47139 0.74965 0.0
C595 C 0.28511 0.50741 0.74885 0.0
H596 H 0.27846 0.42661 0.76432 0.0
H597 H 0.30802 0.7788 0.75683 0.0
H598 H 0.6323 0.17189 0.86225 0.0
H599 H 0.6837 0.20108 0.88111 0.0
H600 H 0.74955 0.29743 0.85125 0.0
H601 H 0.69816 0.26822 0.83224 0.0
H602 H 0.79536 0.27615 0.87066 0.0
H603 H 0.69103 0.30552 0.87267 0.0
H604 H 0.62207 0.28588 0.87338 0.0
H605 H 0.60795 0.2235 0.91464 0.0
H606 H 0.67675 0.24221 0.914 0.0
H607 H 0.88982 0.44677 0.91379 0.0
H608 H 0.85471 0.39235 0.89656 0.0
H609 H 0.78946 0.32048 0.93426 0.0
H610 H 0.82404 0.37534 0.95153 0.0
H611 H 0.74338 0.31849 0.91302 0.0
H612 H 0.85211 0.3018 0.91388 0.0
H613 H 0.92074 0.32051 0.91281 0.0
H614 H 0.92763 0.35821 0.86681 0.0
H615 H 0.85917 0.34028 0.86766 0.0
C616 C 0.65822 0.19877 0.85954 0.0
C617 C 0.66114 0.21832 0.84598 0.0
C618 C 0.68758 0.21523 0.87026 0.0
C619 C 0.72002 0.25151 0.86758 0.0
C620 C 0.72467 0.26933 0.85345 0.0
C621 C 0.69525 0.25281 0.84268 0.0
C622 C 0.745 0.27393 0.88032 0.0
C623 C 0.78427 0.28554 0.87996 0.0
C624 C 0.72995 0.28518 0.89255 0.0
C625 C 0.68888 0.27487 0.89319 0.0
C626 C 0.67315 0.28741 0.88184 0.0
C627 C 0.63411 0.27646 0.88223 0.0
C628 C 0.61061 0.25335 0.89402 0.0
C629 C 0.62617 0.24132 0.90549 0.0
C630 C 0.66518 0.25208 0.90512 0.0
C631 C 0.86847 0.41916 0.91842 0.0
C632 C 0.85926 0.41518 0.93391 0.0
C633 C 0.84867 0.38798 0.9086 0.0
C634 C 0.81969 0.35225 0.91415 0.0
C635 C 0.8118 0.34779 0.92976 0.0
C636 C 0.83147 0.37908 0.93959 0.0
C637 C 0.79437 0.32153 0.9034 0.0
C638 C 0.75473 0.30846 0.90402 0.0
C639 C 0.80924 0.30903 0.89147 0.0
C640 C 0.85048 0.31987 0.89087 0.0
C641 C 0.86831 0.31435 0.90357 0.0
C642 C 0.90719 0.32477 0.903 0.0
C643 C 0.92854 0.34059 0.88976 0.0
C644 C 0.91104 0.34595 0.87706 0.0
C645 C 0.87217 0.3356 0.87757 0.0
H646 H 0.95864 0.34864 0.88935 0.0
H647 H 0.58038 0.24484 0.89429 0.0
H648 H 0.50714 0.17133 0.87214 0.0
H649 H 0.47447 0.18271 0.89333 0.0
H650 H 0.46041 0.26402 0.86599 0.0
H651 H 0.49591 0.25484 0.84535 0.0
H652 H 0.48273 0.29557 0.89056 0.0
H653 H 0.37792 0.17054 0.8795 0.0
H654 H 0.34187 0.10079 0.874 0.0
H655 H 0.38152 0.07792 0.91573 0.0
H656 H 0.41706 0.14759 0.92167 0.0
H657 H 0.35016 0.29787 0.94741 0.0
H658 H 0.37321 0.28315 0.924 0.0
H659 H 0.44557 0.25383 0.95 0.0
H660 H 0.42488 0.27078 0.97337 0.0
H661 H 0.38888 0.19592 0.92559 0.0
H662 H 0.49137 0.33011 0.93486 0.0
H663 H 0.51291 0.39891 0.93903 0.0
H664 H 0.46214 0.40257 0.89672 0.0
H665 H 0.43978 0.3336 0.89242 0.0
C666 C 0.49625 0.19096 0.87063 0.0
C667 C 0.50361 0.21196 0.85715 0.0
C668 C 0.47738 0.19741 0.88272 0.0
C669 C 0.46445 0.22414 0.88137 0.0
C670 C 0.47031 0.24363 0.86751 0.0
C671 C 0.49022 0.23807 0.85563 0.0
C672 C 0.44801 0.23428 0.89472 0.0
C673 C 0.4616 0.2735 0.89797 0.0
C674 C 0.42054 0.20598 0.90464 0.0
C675 C 0.4005 0.16426 0.90093 0.0
C676 C 0.37923 0.15065 0.88744 0.0
C677 C 0.35876 0.11111 0.88427 0.0
C678 C 0.35975 0.08493 0.89442 0.0
C679 C 0.3809 0.09824 0.90785 0.0
C680 C 0.401 0.13772 0.91117 0.0
C681 C 0.37155 0.28906 0.94821 0.0
C682 C 0.38532 0.28535 0.96245 0.0
C683 C 0.38439 0.28028 0.93479 0.0
C684 C 0.4108 0.2671 0.93531 0.0
C685 C 0.42483 0.26357 0.94939 0.0
C686 C 0.41266 0.27305 0.96277 0.0
C687 C 0.42381 0.2567 0.92121 0.0
C688 C 0.40967 0.2176 0.91794 0.0
C689 C 0.44936 0.28497 0.91092 0.0
C690 C 0.46358 0.32661 0.91339 0.0
C691 C 0.48454 0.3455 0.9265 0.0
C692 C 0.49695 0.38455 0.92888 0.0
C693 C 0.4888 0.40507 0.91817 0.0
C694 C 0.46839 0.38663 0.90501 0.0
C695 C 0.45589 0.34758 0.9026 0.0
H696 H 0.49836 0.43527 0.92004 0.0
H697 H 0.34396 0.05434 0.89194 0.0
H698 H 0.11309 0.40791 0.12573 0.0
H699 H 0.15641 0.43099 0.10374 0.0
H700 H 0.16494 0.3278 0.10493 0.0
H701 H 0.1233 0.3059 0.12731 0.0
H702 H 0.23175 0.38254 0.10211 0.0
H703 H 0.11661 0.35144 0.07463 0.0
H704 H 0.05847 0.35061 0.06505 0.0
H705 H 0.12235 0.47378 0.0601 0.0
H706 H 0.18074 0.47545 0.06983 0.0
H707 H 0.33485 0.43011 0.02996 0.0
H708 H 0.28841 0.3984 0.05076 0.0
H709 H 0.28675 0.50368 0.0591 0.0
H710 H 0.33234 0.53507 0.03859 0.0
H711 H 0.21581 0.44358 0.05613 0.0
H712 H 0.33141 0.4725 0.08315 0.0
H713 H 0.39067 0.47005 0.08795 0.0
H714 H 0.3242 0.34657 0.09128 0.0
H715 H 0.26458 0.34821 0.08621 0.0
C716 C 0.12375 0.38997 0.12107 0.0
C717 C 0.11499 0.35521 0.12818 0.0
C718 C 0.1484 0.40304 0.10845 0.0
C719 C 0.16402 0.38112 0.1025 0.0
C720 C 0.15369 0.34551 0.10928 0.0
C721 C 0.12972 0.33287 0.12203 0.0
C722 C 0.19345 0.39648 0.09009 0.0
C723 C 0.2277 0.39517 0.09192 0.0
C724 C 0.18912 0.41394 0.07687 0.0
C725 C 0.15296 0.41356 0.07308 0.0
C726 C 0.11805 0.37842 0.07183 0.0
C727 C 0.08513 0.37779 0.06626 0.0
C728 C 0.08686 0.41211 0.06189 0.0
C729 C 0.12114 0.44725 0.06346 0.0
C730 C 0.15409 0.44806 0.06904 0.0
C731 C 0.32488 0.44651 0.03638 0.0
C732 C 0.33712 0.48502 0.03255 0.0
C733 C 0.29844 0.42843 0.04827 0.0
C734 C 0.28409 0.4487 0.0565 0.0
C735 C 0.29724 0.48739 0.0529 0.0
C736 C 0.3234 0.50531 0.04112 0.0
C737 C 0.2535 0.42962 0.06821 0.0
C738 C 0.21928 0.43046 0.06627 0.0
C739 C 0.25772 0.41146 0.08117 0.0
C740 C 0.29358 0.41045 0.08412 0.0
C741 C 0.32947 0.44478 0.08474 0.0
C742 C 0.36312 0.44355 0.08753 0.0
C743 C 0.36122 0.40817 0.08985 0.0
C744 C 0.32565 0.37394 0.08941 0.0
C745 C 0.29192 0.37501 0.08659 0.0
H746 H 0.3873 0.4073 0.09205 0.0
H747 H 0.06174 0.41146 0.05717 0.0
H748 H 0.7949 0.06847 0.28599 0.0
H749 H 0.8135 0.10852 0.26308 0.0
H750 H 0.82216 0.20352 0.2894 0.0
H751 H 0.80224 0.16342 0.31204 0.0
H752 H 0.78941 0.19984 0.26343 0.0
H753 H 0.90245 0.19586 0.27942 0.0
H754 H 0.93961 0.16413 0.28592 0.0
H755 H 0.92002 0.11454 0.24131 0.0
H756 H 0.8823 0.14561 0.2346 0.0
H757 H 0.89907 0.36158 0.21943 0.0
H758 H 0.88387 0.31496 0.23984 0.0
H759 H 0.87791 0.23139 0.20732 0.0
H760 H 0.89524 0.27912 0.18692 0.0
H761 H 0.90504 0.22314 0.2342 0.0
H762 H 0.79982 0.23893 0.21773 0.0
H763 H 0.76831 0.27678 0.21223 0.0
H764 H 0.77372 0.30653 0.25929 0.0
H765 H 0.80744 0.27089 0.26499 0.0
C766 C 0.80021 0.09771 0.28681 0.0
C767 C 0.79752 0.11289 0.30088 0.0
C768 C 0.81123 0.12071 0.27375 0.0
C769 C 0.81991 0.15931 0.27455 0.0
C770 C 0.81585 0.17395 0.28848 0.0
C771 C 0.80476 0.15104 0.30146 0.0
C772 C 0.83388 0.1851 0.26107 0.0
C773 C 0.81485 0.20514 0.25711 0.0
C774 C 0.86654 0.19134 0.25256 0.0
C775 C 0.88918 0.17266 0.25657 0.0
C776 C 0.90581 0.17793 0.27104 0.0
C777 C 0.92702 0.16012 0.27475 0.0
C778 C 0.93207 0.13723 0.26405 0.0
C779 C 0.91601 0.1322 0.2496 0.0
C780 C 0.89473 0.14992 0.24583 0.0
C781 C 0.89584 0.33369 0.21676 0.0
C782 C 0.89841 0.32379 0.20171 0.0
C783 C 0.88677 0.30694 0.22837 0.0
C784 C 0.8785 0.26924 0.22505 0.0
C785 C 0.88383 0.26019 0.21014 0.0
C786 C 0.89389 0.28743 0.19851 0.0
C787 C 0.86125 0.23878 0.23689 0.0
C788 C 0.87942 0.21764 0.24044 0.0
C789 C 0.82797 0.23187 0.24517 0.0
C790 C 0.80654 0.25239 0.24177 0.0
C791 C 0.79463 0.25378 0.22691 0.0
C792 C 0.77641 0.27493 0.22374 0.0
C793 C 0.7688 0.29383 0.2354 0.0
C794 C 0.77964 0.29187 0.25026 0.0
C795 C 0.79853 0.27138 0.25345 0.0
H796 H 0.75453 0.31003 0.23292 0.0
H797 H 0.94851 0.12347 0.26695 0.0
H798 H 0.65895 0.89539 0.35796 0.0
H799 H 0.69254 0.87709 0.37667 0.0
H800 H 0.59948 0.84591 0.4084 0.0
H801 H 0.56561 0.86288 0.38972 0.0
H802 H 0.67631 0.89265 0.4205 0.0
H803 H 0.59787 0.7784 0.39037 0.0
H804 H 0.576 0.73832 0.36725 0.0
H805 H 0.68925 0.75436 0.36087 0.0
H806 H 0.71207 0.79529 0.38378 0.0
H807 H 0.67917 0.77488 0.4778 0.0
H808 H 0.65959 0.79795 0.4559 0.0
H809 H 0.75349 0.8038 0.42981 0.0
H810 H 0.77353 0.78086 0.45183 0.0
H811 H 0.68639 0.77523 0.41302 0.0
H812 H 0.76357 0.88521 0.44427 0.0
H813 H 0.78491 0.92411 0.4677 0.0
H814 H 0.67422 0.91548 0.47208 0.0
H815 H 0.65204 0.87613 0.44875 0.0
C816 C 0.64621 0.88533 0.36904 0.0
C817 C 0.60993 0.88075 0.37251 0.0
C818 C 0.66513 0.87455 0.37963 0.0
C819 C 0.64825 0.85988 0.39384 0.0
C820 C 0.61289 0.85707 0.39748 0.0
C821 C 0.59369 0.8669 0.38685 0.0
C822 C 0.66666 0.84694 0.40509 0.0
C823 C 0.67854 0.86698 0.41888 0.0
C824 C 0.67026 0.81391 0.40277 0.0
C825 C 0.65689 0.79057 0.38865 0.0
C826 C 0.61833 0.77403 0.38389 0.0
C827 C 0.6057 0.75098 0.37086 0.0
C828 C 0.63124 0.74388 0.36258 0.0
C829 C 0.66953 0.76 0.36726 0.0
C830 C 0.68235 0.78318 0.38026 0.0
C831 C 0.69572 0.78109 0.46742 0.0
C832 C 0.72827 0.7766 0.46662 0.0
C833 C 0.68445 0.79422 0.4549 0.0
C834 C 0.70557 0.80335 0.44132 0.0
C835 C 0.73695 0.79713 0.44022 0.0
C836 C 0.74828 0.78393 0.45278 0.0
C837 C 0.69535 0.82059 0.42856 0.0
C838 C 0.68496 0.80136 0.41453 0.0
C839 C 0.6931 0.85446 0.4306 0.0
C840 C 0.7061 0.87757 0.44479 0.0
C841 C 0.74368 0.89135 0.45029 0.0
C842 C 0.75596 0.91358 0.46352 0.0
C843 C 0.731 0.92242 0.47132 0.0
C844 C 0.69359 0.90878 0.46597 0.0
C845 C 0.68116 0.88654 0.45274 0.0
H846 H 0.7406 0.93975 0.48154 0.0
H847 H 0.62131 0.7257 0.35259 0.0
H848 H 0.83847 0.65769 0.52852 0.0
H849 H 0.87597 0.66414 0.55117 0.0
H850 H 0.77391 0.57529 0.57325 0.0
H851 H 0.73592 0.5684 0.5505 0.0
H852 H 0.82032 0.63484 0.59272 0.0
H853 H 0.83365 0.55177 0.55795 0.0
H854 H 0.84613 0.53029 0.53346 0.0
H855 H 0.96289 0.62457 0.534 0.0
H856 H 0.95088 0.64724 0.55835 0.0
H857 H 0.92988 0.61807 0.65102 0.0
H858 H 0.88712 0.59672 0.62897 0.0
H859 H 0.97886 0.68318 0.60151 0.0
H860 H 1.02188 0.70435 0.6235 0.0
H861 H 0.93303 0.61673 0.58535 0.0
H862 H 0.91521 0.70246 0.61929 0.0
H863 H 0.9025 0.72039 0.64454 0.0
H864 H 0.7924 0.61613 0.64593 0.0
H865 H 0.80477 0.59728 0.62078 0.0
C866 C 0.82374 0.63989 0.53826 0.0
C867 C 0.78421 0.61228 0.53763 0.0
C868 C 0.84533 0.64347 0.55117 0.0
C869 C 0.82792 0.61953 0.56375 0.0
C870 C 0.78797 0.59375 0.5636 0.0
C871 C 0.76626 0.59002 0.55061 0.0
C872 C 0.852 0.62069 0.57672 0.0
C873 C 0.84457 0.63027 0.59116 0.0
C874 C 0.88381 0.61488 0.57465 0.0
C875 C 0.89121 0.60149 0.55994 0.0
C876 C 0.86188 0.56823 0.55278 0.0
C877 C 0.86888 0.5558 0.53892 0.0
C878 C 0.90524 0.57612 0.53216 0.0
C879 C 0.9347 0.60892 0.53924 0.0
C880 C 0.9278 0.62159 0.55308 0.0
C881 C 0.94111 0.63201 0.6402 0.0
C882 C 0.979 0.66329 0.63902 0.0
C883 C 0.91667 0.61981 0.62763 0.0
C884 C 0.92952 0.63902 0.6137 0.0
C885 C 0.96827 0.66812 0.61218 0.0
C886 C 0.99285 0.68015 0.62474 0.0
C887 C 0.90181 0.6317 0.60123 0.0
C888 C 0.90857 0.62097 0.5869 0.0
C889 C 0.86922 0.63615 0.60341 0.0
C890 C 0.86105 0.64832 0.61821 0.0
C891 C 0.88832 0.68333 0.625 0.0
C892 C 0.8812 0.69363 0.6393 0.0
C893 C 0.84669 0.66937 0.64685 0.0
C894 C 0.81913 0.63487 0.64007 0.0
C895 C 0.82617 0.62437 0.62579 0.0
H896 H 0.84128 0.67732 0.65795 0.0
H897 H 0.91061 0.56636 0.52145 0.0
H898 H 0.16406 0.74169 0.72348 0.0
H899 H 0.18782 0.78759 0.7445 0.0
H900 H 0.23535 0.88227 0.71287 0.0
H901 H 0.212 0.83654 0.69167 0.0
H902 H 0.26753 0.8421 0.74869 0.0
H903 H 0.22818 0.95651 0.73163 0.0
H904 H 0.17789 0.96118 0.71732 0.0
H905 H 0.09632 0.84287 0.72763 0.0
H906 H 0.14594 0.83768 0.74216 0.0
H907 H 0.32647 1.03569 0.79149 0.0
H908 H 0.30036 0.99463 0.7691 0.0
H909 H 0.26693 0.89388 0.79665 0.0
H910 H 0.29564 0.93469 0.81878 0.0
H911 H 0.23075 0.93999 0.76154 0.0
H912 H 0.27186 0.82481 0.7772 0.0
H913 H 0.32082 0.82107 0.79277 0.0
H914 H 0.39996 0.94155 0.78527 0.0
H915 H 0.35179 0.94585 0.76936 0.0
C916 C 0.17887 0.77225 0.72095 0.0
C917 C 0.18627 0.78546 0.70589 0.0
C918 C 0.19263 0.7984 0.73299 0.0
C919 C 0.21348 0.83818 0.7302 0.0
C920 C 0.21919 0.85161 0.71522 0.0
C921 C 0.20573 0.82544 0.70314 0.0
C922 C 0.23112 0.86542 0.74297 0.0
C923 C 0.25928 0.8633 0.75162 0.0
C924 C 0.22114 0.89375 0.7464 0.0
C925 C 0.19094 0.89662 0.73782 0.0
C926 C 0.19949 0.93154 0.73087 0.0
C927 C 0.1711 0.93427 0.72272 0.0
C928 C 0.13398 0.9023 0.72152 0.0
C929 C 0.12513 0.86756 0.7285 0.0
C930 C 0.1534 0.86469 0.73667 0.0
C931 C 0.3143 1.00486 0.79275 0.0
C932 C 0.31357 0.98864 0.80697 0.0
C933 C 0.2989 0.98139 0.77996 0.0
C934 C 0.2822 0.94124 0.78114 0.0
C935 C 0.2804 0.92487 0.79538 0.0
C936 C 0.2964 0.9483 0.8081 0.0
C937 C 0.26679 0.91633 0.76751 0.0
C938 C 0.23927 0.91903 0.75859 0.0
C939 C 0.27759 0.88865 0.76375 0.0
C940 C 0.30793 0.88575 0.77227 0.0
C941 C 0.29982 0.85043 0.77875 0.0
C942 C 0.32739 0.84824 0.78768 0.0
C943 C 0.36321 0.88119 0.79021 0.0
C944 C 0.37197 0.91618 0.78347 0.0
C945 C 0.34459 0.91847 0.77445 0.0
H946 H 0.38435 0.87951 0.79726 0.0
H947 H 0.11205 0.90447 0.7152 0.0
H948 H 0.75949 0.64609 0.8343 0.0
H949 H 0.78519 0.62856 0.85611 0.0
H950 H 0.82579 0.74145 0.87551 0.0
H951 H 0.79952 0.75885 0.85369 0.0
H952 H 0.8828 0.72196 0.87423 0.0
H953 H 0.75556 0.66804 0.89265 0.0
H954 H 0.68461 0.63005 0.8929 0.0
H955 H 0.6884 0.52583 0.88628 0.0
H956 H 0.75944 0.56328 0.88567 0.0
H957 H 0.88211 0.60267 0.94499 0.0
H958 H 0.85615 0.63515 0.9299 0.0
H959 H 0.9197 0.63191 0.89095 0.0
H960 H 0.94574 0.59893 0.90598 0.0
H961 H 0.81011 0.6043 0.90556 0.0
H962 H 0.94115 0.71191 0.8687 0.0
H963 H 1.01162 0.75317 0.87143 0.0
H964 H 0.99903 0.757 0.91966 0.0
H965 H 0.92851 0.71646 0.91721 0.0
C966 C 0.77297 0.66671 0.84344 0.0
C967 C 0.77722 0.70361 0.84246 0.0
C968 C 0.78775 0.65678 0.85585 0.0
C969 C 0.80746 0.68372 0.86743 0.0
C970 C 0.81069 0.72025 0.8667 0.0
C971 C 0.79537 0.73002 0.85435 0.0
C972 C 0.82659 0.67417 0.8797 0.0
C973 C 0.8669 0.6964 0.88117 0.0
C974 C 0.80575 0.64129 0.88898 0.0
C975 C 0.76293 0.6186 0.88891 0.0
C976 C 0.7413 0.63709 0.89103 0.0
C977 C 0.70103 0.61561 0.8913 0.0
C978 C 0.68199 0.57555 0.88957 0.0
C979 C 0.70319 0.55688 0.88758 0.0
C980 C 0.74348 0.57823 0.88727 0.0
C981 C 0.89121 0.60938 0.93329 0.0
C982 C 0.91588 0.59788 0.92667 0.0
C983 C 0.87616 0.62789 0.92466 0.0
C984 C 0.88587 0.63587 0.9093 0.0
C985 C 0.91201 0.62625 0.90283 0.0
C986 C 0.92687 0.60737 0.91143 0.0
C987 C 0.86632 0.65142 0.89978 0.0
C988 C 0.82595 0.63013 0.89876 0.0
C989 C 0.88703 0.68566 0.89123 0.0
C990 C 0.92948 0.71077 0.89276 0.0
C991 C 0.95338 0.72173 0.87988 0.0
C992 C 0.99336 0.745 0.88138 0.0
C993 C 1.00981 0.75761 0.89571 0.0
C994 C 0.98629 0.74713 0.90857 0.0
C995 C 0.94631 0.72396 0.90712 0.0
H996 H 1.04077 0.77557 0.89686 0.0
H997 H 0.6508 0.55897 0.88981 0.0
H998 H 0.28104 0.90177 0.10337 0.0
H999 H 0.23613 0.88155 0.08209 0.0
H1000 H 0.32449 0.88828 0.05217 0.0
H1001 H 0.36985 0.90903 0.07337 0.0
H1002 H 0.2758 0.90922 0.03803 0.0
H1003 H 0.26529 0.80554 0.06934 0.0
H1004 H 0.25755 0.77388 0.09408 0.0
H1005 H 0.14598 0.76269 0.09948 0.0
H1006 H 0.15352 0.79531 0.07498 0.0
H1007 H 0.16483 0.77382 0.98154 0.0
H1008 H 0.20927 0.80724 0.00235 0.0
H1009 H 0.11435 0.79166 0.03045 0.0
H1010 H 0.06951 0.75875 0.00947 0.0
H1011 H 0.16438 0.77744 0.04602 0.0
H1012 H 0.17301 0.87876 0.01487 0.0
H1013 H 0.18254 0.9173 -0.00816 0.0
H1014 H 0.29663 0.93468 -0.0134 0.0
H1015 H 0.28767 0.89593 0.00953 0.0
C1016 C 0.29127 0.89997 0.09219 0.0
C1017 C 0.32881 0.90634 0.09011 0.0
C1018 C 0.2655 0.88828 0.08005 0.0
C1019 C 0.27669 0.88238 0.06566 0.0
C1020 C 0.3152 0.89232 0.06323 0.0
C1021 C 0.34112 0.90425 0.07536 0.0
C1022 C 0.24742 0.86201 0.05366 0.0
C1023 C 0.25166 0.88026 0.03968 0.0
C1024 C 0.21544 0.82451 0.056 0.0
C1025 C 0.21014 0.80324 0.07039 0.0
C1026 C 0.23917 0.79647 0.07583 0.0
C1027 C 0.23484 0.77839 0.08982 0.0
C1028 C 0.20133 0.76635 0.09836 0.0
C1029 C 0.17196 0.77212 0.09287 0.0
C1030 C 0.17626 0.79044 0.07894 0.0
C1031 C 0.15328 0.77752 -0.00787 0.0
C1032 C 0.11354 0.76392 -0.00625 0.0
C1033 C 0.17881 0.79671 0.00402 0.0
C1034 C 0.16527 0.80266 0.01787 0.0
C1035 C 0.12546 0.78761 0.01982 0.0
C1036 C 0.09982 0.76853 0.00785 0.0
C1037 C 0.19284 0.82454 0.03026 0.0
C1038 C 0.18839 0.80645 0.04432 0.0
C1039 C 0.22462 0.86221 0.028 0.0
C1040 C 0.22954 0.88418 0.01386 0.0
C1041 C 0.19998 0.89046 0.00872 0.0
C1042 C 0.20537 0.91254 -0.00426 0.0
C1043 C 0.24024 0.92859 -0.01219 0.0
C1044 C 0.26971 0.92239 -0.0072 0.0
C1045 C 0.26449 0.90038 0.00579 0.0
H1046 H 0.24434 0.94565 0.97776 0.0
H1047 H 0.19809 0.75257 0.10922 0.0
H1048 H 0.55533 0.35373 0.24676 0.0
H1049 H 0.51538 0.30119 0.22932 0.0
H1050 H 0.43038 0.24497 0.2645 0.0
H1051 H 0.47019 0.29862 0.28202 0.0
H1052 H 0.46025 0.19841 0.24857 0.0
H1053 H 0.39978 0.27198 0.23847 0.0
H1054 H 0.39663 0.33066 0.23315 0.0
H1055 H 0.45856 0.34669 0.19149 0.0
H1056 H 0.46259 0.28838 0.19667 0.0
H1057 H 0.35111 0.05713 0.18983 0.0
H1058 H 0.36924 0.10102 0.21169 0.0
H1059 H 0.45648 0.19308 0.18463 0.0
H1060 H 0.43907 0.14955 0.16296 0.0
H1061 H 0.41139 0.21568 0.19933 0.0
H1062 H 0.4806 0.14924 0.21132 0.0
H1063 H 0.48708 0.09243 0.21671 0.0
H1064 H 0.41077 0.06417 0.25483 0.0
H1065 H 0.40344 0.12059 0.24954 0.0
C1066 C 0.5277 0.33061 0.25067 0.0
C1067 C 0.5156 0.3303 0.26565 0.0
C1068 C 0.50497 0.3006 0.24073 0.0
C1069 C 0.46998 0.2692 0.24563 0.0
C1070 C 0.45728 0.26904 0.26052 0.0
C1071 C 0.47977 0.29975 0.27044 0.0
C1072 C 0.44847 0.23608 0.23516 0.0
C1073 C 0.44849 0.20164 0.23798 0.0
C1074 C 0.43403 0.24077 0.22123 0.0
C1075 C 0.43168 0.27588 0.21801 0.0
C1076 C 0.41301 0.28818 0.22823 0.0
C1077 C 0.41101 0.32135 0.22523 0.0
C1078 C 0.42744 0.34242 0.212 0.0
C1079 C 0.44585 0.33033 0.20174 0.0
C1080 C 0.44794 0.29717 0.20469 0.0
C1081 C 0.3746 0.08655 0.18863 0.0
C1082 C 0.39337 0.09992 0.17459 0.0
C1083 C 0.38479 0.11164 0.20111 0.0
C1084 C 0.41401 0.15047 0.19976 0.0
C1085 C 0.43351 0.16342 0.1859 0.0
C1086 C 0.42348 0.13846 0.1735 0.0
C1087 C 0.42405 0.17828 0.21254 0.0
C1088 C 0.42208 0.21187 0.21009 0.0
C1089 C 0.43682 0.17281 0.22678 0.0
C1090 C 0.44103 0.13879 0.2299 0.0
C1091 C 0.46488 0.13068 0.22075 0.0
C1092 C 0.46879 0.09861 0.22381 0.0
C1093 C 0.44923 0.07462 0.23607 0.0
C1094 C 0.42581 0.08272 0.24531 0.0
C1095 C 0.42178 0.11474 0.24229 0.0
H1096 H 0.45231 0.04982 0.23842 0.0
H1097 H 0.42585 0.3681 0.20969 0.0
H1098 H 0.22568 0.4372 0.43824 0.0
H1099 H 0.26027 0.42625 0.41779 0.0
H1100 H 0.26026 0.51696 0.39167 0.0
H1101 H 0.22587 0.52849 0.41218 0.0
H1102 H 0.24149 0.45247 0.37459 0.0
H1103 H 0.34039 0.53391 0.40967 0.0
H1104 H 0.37261 0.55387 0.43454 0.0
H1105 H 0.38093 0.45126 0.43631 0.0
H1106 H 0.3477 0.43012 0.41168 0.0
H1107 H 0.36387 0.45492 0.31801 0.0
H1108 H 0.34563 0.48061 0.33968 0.0
H1109 H 0.34474 0.39339 0.36846 0.0
H1110 H 0.36337 0.36778 0.34682 0.0
H1111 H 0.36737 0.46078 0.38421 0.0
H1112 H 0.26369 0.3764 0.35096 0.0
H1113 H 0.23179 0.35505 0.32609 0.0
H1114 H 0.23144 0.46147 0.32136 0.0
H1115 H 0.26406 0.48378 0.34609 0.0
C1116 C 0.2326 0.45461 0.42809 0.0
C1117 C 0.22291 0.48373 0.42686 0.0
C1118 C 0.25276 0.44854 0.41647 0.0
C1119 C 0.26353 0.47129 0.40333 0.0
C1120 C 0.25258 0.49935 0.40179 0.0
C1121 C 0.23274 0.50575 0.41349 0.0
C1122 C 0.28573 0.46537 0.39114 0.0
C1123 C 0.26931 0.45497 0.37665 0.0
C1124 C 0.32168 0.46775 0.39391 0.0
C1125 C 0.34137 0.48031 0.40883 0.0
C1126 C 0.34873 0.51539 0.41542 0.0
C1127 C 0.36718 0.52694 0.42949 0.0
C1128 C 0.37878 0.50384 0.43701 0.0
C1129 C 0.37192 0.46913 0.43048 0.0
C1130 C 0.35328 0.45735 0.41647 0.0
C1131 C 0.3605 0.44168 0.32903 0.0
C1132 C 0.36421 0.40881 0.33065 0.0
C1133 C 0.35015 0.45643 0.3414 0.0
C1134 C 0.34278 0.43828 0.35561 0.0
C1135 C 0.34996 0.40769 0.35759 0.0
C1136 C 0.36061 0.39306 0.34521 0.0
C1137 C 0.32301 0.44788 0.36771 0.0
C1138 C 0.33974 0.45873 0.38216 0.0
C1139 C 0.28712 0.44565 0.36499 0.0
C1140 C 0.26665 0.43191 0.3503 0.0
C1141 C 0.25699 0.39533 0.34457 0.0
C1142 C 0.23881 0.38306 0.3305 0.0
C1143 C 0.22967 0.40692 0.32213 0.0
C1144 C 0.2386 0.44305 0.32785 0.0
C1145 C 0.25694 0.45553 0.34189 0.0
H1146 H 0.21561 0.39738 0.31124 0.0
H1147 H 0.39311 0.51284 0.44787 0.0
H1148 H 0.84344 0.20443 0.62152 0.0
H1149 H 0.89037 0.22417 0.60104 0.0
H1150 H 0.79812 0.17244 0.56835 0.0
H1151 H 0.7507 0.1533 0.58885 0.0
H1152 H 0.90933 0.19235 0.57858 0.0
H1153 H 0.82617 0.23732 0.53729 0.0
H1154 H 0.77498 0.25429 0.53821 0.0
H1155 H 0.80279 0.28974 0.58466 0.0
H1156 H 0.85427 0.27331 0.58397 0.0
H1157 H 0.99512 0.24156 0.5054 0.0
H1158 H 0.95252 0.21468 0.52731 0.0
H1159 H 0.97769 0.32887 0.54035 0.0
H1160 H 1.01975 0.3559 0.51813 0.0
H1161 H 0.90165 0.27922 0.54057 0.0
H1162 H 1.01334 0.28148 0.5606 0.0
H1163 H 0.06745 0.26881 0.5609 0.0
H1164 H 0.98777 0.14682 0.55916 0.0
H1165 H 0.93316 0.15879 0.55864 0.0
C1166 C 0.83299 0.1966 0.61001 0.0
C1167 C 0.7933 0.1778 0.60679 0.0
C1168 C 0.85995 0.2078 0.5983 0.0
C1169 C 0.84778 0.20036 0.58315 0.0
C1170 C 0.80812 0.17901 0.57996 0.0
C1171 C 0.78106 0.16801 0.59168 0.0
C1172 C 0.87663 0.21818 0.57081 0.0
C1173 C 0.90751 0.21111 0.5702 0.0
C1174 C 0.87474 0.24348 0.56011 0.0
C1175 C 0.84401 0.25386 0.5606 0.0
C1176 C 0.82149 0.24891 0.54768 0.0
C1177 C 0.79236 0.25837 0.54816 0.0
C1178 C 0.78556 0.273 0.56149 0.0
C1179 C 0.80798 0.27832 0.57435 0.0
C1180 C 0.83715 0.26894 0.57391 0.0
C1181 C 0.99178 0.26099 0.513 0.0
C1182 C 1.01059 0.30083 0.51001 0.0
C1183 C 0.96763 0.24561 0.52557 0.0
C1184 C 0.96199 0.26975 0.5355 0.0
C1185 C 0.98162 0.30971 0.53282 0.0
C1186 C 1.00589 0.32516 0.52021 0.0
C1187 C 0.93405 0.25294 0.5482 0.0
C1188 C 0.90332 0.26022 0.54888 0.0
C1189 C 0.9364 0.22836 0.55911 0.0
C1190 C 0.96917 0.22106 0.55945 0.0
C1191 C 1.00736 0.25196 0.56016 0.0
C1192 C 1.03812 0.2449 0.56039 0.0
C1193 C 1.03106 0.20704 0.56001 0.0
C1194 C 0.9932 0.17614 0.55944 0.0
C1195 C 0.96233 0.18305 0.55919 0.0
H1196 H 0.05491 0.20163 0.56019 0.0
H1197 H 0.76296 0.28024 0.56185 0.0
H1198 H 0.72431 1.00256 0.67673 0.0
H1199 H 0.70653 0.95794 0.69815 0.0
H1200 H 0.60316 0.87584 0.67471 0.0
H1201 H 0.62127 0.92008 0.65303 0.0
H1202 H 0.6013 0.89272 0.71005 0.0
H1203 H 0.65921 0.85181 0.67052 0.0
H1204 H 0.7103 0.86487 0.65193 0.0
H1205 H 0.79496 0.90865 0.68743 0.0
H1206 H 0.74425 0.89621 0.70623 0.0
H1207 H 0.54683 0.72057 0.74953 0.0
H1208 H 0.56182 0.76815 0.72962 0.0
H1209 H 0.68153 0.82727 0.74287 0.0
H1210 H 0.66687 0.77915 0.76266 0.0
H1211 H 0.67636 0.82522 0.71325 0.0
H1212 H 0.62052 0.86061 0.75336 0.0
H1213 H 0.57258 0.85253 0.77269 0.0
H1214 H 0.4879 0.8255 0.73799 0.0
H1215 H 0.53515 0.83278 0.71841 0.0
C1216 C 0.69742 0.97531 0.67628 0.0
C1217 C 0.67417 0.96458 0.66326 0.0
C1218 C 0.68739 0.94991 0.68848 0.0
C1219 C 0.65366 0.91373 0.68792 0.0
C1220 C 0.62926 0.90377 0.6753 0.0
C1221 C 0.63966 0.92887 0.66295 0.0
C1222 C 0.64579 0.88508 0.6999 0.0
C1223 C 0.61721 0.87747 0.71071 0.0
C1224 C 0.66766 0.86646 0.70095 0.0
C1225 C 0.69806 0.87351 0.68973 0.0
C1226 C 0.68877 0.86456 0.67433 0.0
C1227 C 0.71765 0.87178 0.66376 0.0
C1228 C 0.75592 0.88775 0.66848 0.0
C1229 C 0.76532 0.89636 0.68379 0.0
C1230 C 0.73652 0.88918 0.69441 0.0
C1231 C 0.57645 0.74347 0.74813 0.0
C1232 C 0.60566 0.74617 0.75772 0.0
C1233 C 0.58491 0.77085 0.73681 0.0
C1234 C 0.62263 0.80181 0.73498 0.0
C1235 C 0.65215 0.80376 0.74415 0.0
C1236 C 0.64376 0.77617 0.75542 0.0
C1237 C 0.63118 0.83201 0.72346 0.0
C1238 C 0.66017 0.84021 0.71272 0.0
C1239 C 0.60995 0.85156 0.72265 0.0
C1240 C 0.58131 0.84683 0.73441 0.0
C1241 C 0.59158 0.85257 0.74985 0.0
C1242 C 0.56454 0.84821 0.76086 0.0
C1243 C 0.52719 0.83841 0.75659 0.0
C1244 C 0.51683 0.83303 0.74128 0.0
C1245 C 0.54373 0.83727 0.73022 0.0
H1246 H 0.50629 0.83501 0.76512 0.0
H1247 H 0.77825 0.89333 0.66028 0.0
H1248 H 0.33293 0.47279 0.9321 0.0
H1249 H 0.36685 0.50514 0.90887 0.0
H1250 H 0.44412 0.46049 0.91472 0.0
H1251 H 0.41132 0.42966 0.93833 0.0
H1252 H 0.48349 0.53328 0.9132 0.0
H1253 H 0.38507 0.43876 0.88283 0.0
H1254 H 0.3194 0.39341 0.87378 0.0
H1255 H 0.30152 0.48815 0.86403 0.0
H1256 H 0.36692 0.53411 0.87324 0.0
H1257 H 0.589 0.63421 0.84753 0.0
H1258 H 0.54677 0.58224 0.86459 0.0
H1259 H 0.47693 0.63511 0.87101 0.0
H1260 H 0.51928 0.68764 0.85381 0.0
H1261 H 0.43511 0.55266 0.86425 0.0
H1262 H 0.53687 0.64544 0.89738 0.0
H1263 H 0.60453 0.6864 0.90535 0.0
H1264 H 0.61741 0.58655 0.9083 0.0
H1265 H 0.55007 0.54508 0.90002 0.0
C1266 C 0.3564 0.46897 0.92815 0.0
C1267 C 0.37006 0.44944 0.93704 0.0
C1268 C 0.37566 0.48726 0.91482 0.0
C1269 C 0.40819 0.48541 0.91009 0.0
C1270 C 0.41935 0.46262 0.91825 0.0
C1271 C 0.40064 0.44506 0.93171 0.0
C1272 C 0.43416 0.51235 0.89839 0.0
C1273 C 0.47296 0.53677 0.90234 0.0
C1274 C 0.42042 0.51739 0.88432 0.0
C1275 C 0.38088 0.48991 0.87886 0.0
C1276 C 0.36704 0.44995 0.87889 0.0
C1277 C 0.32987 0.42412 0.8737 0.0
C1278 C 0.30627 0.43789 0.86836 0.0
C1279 C 0.31983 0.47753 0.86818 0.0
C1280 C 0.35698 0.50349 0.87337 0.0
C1281 C 0.56484 0.63503 0.85265 0.0
C1282 C 0.55748 0.66508 0.84942 0.0
C1283 C 0.54074 0.60526 0.86235 0.0
C1284 C 0.50888 0.60499 0.86898 0.0
C1285 C 0.50145 0.63497 0.8659 0.0
C1286 C 0.52581 0.66507 0.85624 0.0
C1287 C 0.4837 0.57354 0.87932 0.0
C1288 C 0.44531 0.54848 0.87506 0.0
C1289 C 0.49798 0.56716 0.89295 0.0
C1290 C 0.53854 0.59222 0.8979 0.0
C1291 C 0.55425 0.63227 0.89956 0.0
C1292 C 0.59254 0.65557 0.90415 0.0
C1293 C 0.61532 0.63911 0.90726 0.0
C1294 C 0.59981 0.59929 0.90582 0.0
C1295 C 0.56159 0.57588 0.90117 0.0
H1296 H 0.64494 0.6572 0.91083 0.0
H1297 H 0.27751 0.41784 0.86434 0.0
H1298 H 0.98607 0.3527 0.10138 0.0
H1299 H 1.01396 0.38191 0.07689 0.0
H1300 H 0.9651 0.45597 0.08117 0.0
H1301 H 0.93667 0.4266 0.10546 0.0
H1302 H 0.97996 0.38748 0.05054 0.0
H1303 H 1.02886 0.54465 0.07245 0.0
H1304 H 0.05937 0.58307 0.09537 0.0
H1305 H 0.10613 0.51036 0.10602 0.0
H1306 H 0.07651 0.47175 0.083 0.0
H1307 H 0.90508 0.48211 0.01811 0.0
H1308 H 0.93441 0.45064 0.0316 0.0
H1309 H 1.04777 0.54333 0.01946 0.0
H1310 H 1.01843 0.57569 0.00623 0.0
H1311 H 1.04518 0.53025 0.04805 0.0
H1312 H 1.02134 0.44959 0.00701 0.0
H1313 H 0.98898 0.41007 -0.01562 0.0
H1314 H 0.89367 0.33049 0.01181 0.0
H1315 H 0.92493 0.36946 0.03454 0.0
C1316 C 0.98115 0.3751 0.09701 0.0
C1317 C 0.9594 0.38761 0.10528 0.0
C1318 C 0.99741 0.39193 0.08312 0.0
C1319 C 0.99281 0.42202 0.07757 0.0
C1320 C 0.9699 0.4335 0.08555 0.0
C1321 C 0.95323 0.41638 0.0993 0.0
C1322 C 1.00967 0.44074 0.06303 0.0
C1323 C 0.99495 0.4187 0.04982 0.0
C1324 C 1.03171 0.48139 0.06214 0.0
C1325 C 1.05069 0.5054 0.07581 0.0
C1326 C 1.04615 0.53711 0.0795 0.0
C1327 C 0.06314 0.55885 0.09257 0.0
C1328 C 0.08474 0.54921 0.10211 0.0
C1329 C 0.08944 0.51782 0.09859 0.0
C1330 C 0.07256 0.496 0.08552 0.0
C1331 C 0.93623 0.49581 0.01832 0.0
C1332 C 0.95941 0.53155 0.01135 0.0
C1333 C 0.95303 0.47742 0.02574 0.0
C1334 C 0.99333 0.49407 0.02613 0.0
C1335 C 1.01665 0.52974 0.01909 0.0
C1336 C 0.9998 0.54841 0.01176 0.0
C1337 C 1.01004 0.47682 0.03611 0.0
C1338 C 1.0319 0.49911 0.04847 0.0
C1339 C 0.99496 0.43645 0.03617 0.0
C1340 C 0.97577 0.41245 0.02255 0.0
C1341 C 0.99344 0.42372 0.00822 0.0
C1342 C 0.97528 0.40142 -0.00463 0.0
C1343 C 0.93939 0.36785 -0.00333 0.0
C1344 C 0.92156 0.35643 0.01083 0.0
C1345 C 0.93958 0.37853 0.02372 0.0
H1346 H 0.92539 0.3507 -0.01329 0.0
H1347 H 0.09771 0.56606 0.11222 0.0
H1348 H 0.45673 0.9521 0.18685 0.0
H1349 H 0.5101 0.96315 0.20323 0.0
H1350 H 0.53784 0.8952 0.17318 0.0
H1351 H 0.48354 0.88302 0.15697 0.0
H1352 H 0.53561 0.87212 0.19981 0.0
H1353 H 0.60294 0.99372 0.17834 0.0
H1354 H 0.61814 0.05669 0.16779 0.0
H1355 H 0.59912 0.09223 0.21137 0.0
H1356 H 0.58322 1.02936 0.22218 0.0
H1357 H 0.66607 0.97243 0.27169 0.0
H1358 H 0.65884 0.9727 0.24407 0.0
H1359 H 0.53722 0.89098 0.24855 0.0
H1360 H 0.54418 0.89011 0.27586 0.0
H1361 H 0.61716 0.99435 0.22769 0.0
H1362 H 0.50415 0.82862 0.22147 0.0
H1363 H 0.49599 0.76741 0.23121 0.0
H1364 H 0.61745 0.8222 0.24007 0.0
H1365 H 0.62654 0.88365 0.23015 0.0
C1366 C 0.47429 0.93965 0.1837 0.0
C1367 C 0.46565 0.91623 0.17079 0.0
C1368 C 0.50523 0.9465 0.19293 0.0
C1369 C 0.52851 0.93063 0.18927 0.0
C1370 C 0.52043 0.90793 0.17617 0.0
C1371 C 0.48918 0.90071 0.16701 0.0
C1372 C 0.55747 0.93349 0.20034 0.0
C1373 C 0.55405 0.89898 0.20571 0.0
C1374 C 0.5832 0.96881 0.20756 0.0
C1375 C 0.59194 1.00664 0.2011 0.0
C1376 C 0.60169 1.01481 0.18567 0.0
C1377 C 0.61047 0.05055 0.17964 0.0
C1378 C 0.60964 0.07845 0.18891 0.0
C1379 C 0.59986 0.07062 0.20422 0.0
C1380 C 0.59106 1.03495 0.21032 0.0
C1381 C 0.63788 0.9543 0.26673 0.0
C1382 C 0.60565 0.93119 0.27591 0.0
C1383 C 0.63387 0.95448 0.25099 0.0
C1384 C 0.5977 0.9313 0.24428 0.0
C1385 C 0.56562 0.90832 0.25347 0.0
C1386 C 0.56957 0.90812 0.26911 0.0
C1387 C 0.59182 0.93259 0.22783 0.0
C1388 C 0.59987 0.96783 0.2214 0.0
C1389 C 0.57135 0.89814 0.21935 0.0
C1390 C 0.56604 0.86086 0.22503 0.0
C1391 C 0.52923 0.82759 0.22533 0.0
C1392 C 0.52441 0.79284 0.23094 0.0
C1393 C 0.55617 0.79092 0.23626 0.0
C1394 C 0.59285 0.82374 0.23596 0.0
C1395 C 0.59785 0.85855 0.23036 0.0
H1396 H 0.55236 0.764 0.24061 0.0
H1397 H 0.61664 0.10618 0.18427 0.0
H1398 H 0.57892 0.44623 0.36405 0.0
H1399 H 0.58236 0.49186 0.38322 0.0
H1400 H 0.46902 0.46934 0.37059 0.0
H1401 H 0.46497 0.42304 0.35154 0.0
H1402 H 0.56802 0.56168 0.37735 0.0
H1403 H 0.44293 0.47161 0.39568 0.0
H1404 H 0.38631 0.40645 0.39854 0.0
H1405 H 0.45537 0.36963 0.42239 0.0
H1406 H 0.51273 0.43423 0.4192 0.0
H1407 H 0.67198 0.6361 0.44762 0.0
H1408 H 0.61789 0.62052 0.43073 0.0
H1409 H 0.60082 0.50612 0.42422 0.0
H1410 H 0.65439 0.52132 0.44112 0.0
H1411 H 0.53189 0.50347 0.42853 0.0
H1412 H 0.65686 0.59262 0.39726 0.0
H1413 H 0.71115 0.65912 0.39364 0.0
H1414 H 0.63286 0.70267 0.39605 0.0
H1415 H 0.5783 0.63647 0.39961 0.0
C1416 C 0.5546 0.45069 0.36543 0.0
C1417 C 0.52165 0.43083 0.3564 0.0
C1418 C 0.5567 0.47701 0.37626 0.0
C1419 C 0.52609 0.48419 0.37818 0.0
C1420 C 0.49294 0.46426 0.36928 0.0
C1421 C 0.49066 0.43761 0.35848 0.0
C1422 C 0.52957 0.51117 0.39027 0.0
C1423 C 0.55892 0.54972 0.38862 0.0
C1424 C 0.51635 0.49639 0.40491 0.0
C1425 C 0.48212 0.45762 0.4071 0.0
C1426 C 0.44608 0.4495 0.40143 0.0
C1427 C 0.41386 0.4127 0.40312 0.0
C1428 C 0.41721 0.38396 0.41069 0.0
C1429 C 0.45283 0.39194 0.41654 0.0
C1430 C 0.48523 0.42862 0.41476 0.0
C1431 C 0.65677 0.60767 0.4425 0.0
C1432 C 0.6676 0.57994 0.44558 0.0
C1433 C 0.62558 0.59873 0.43298 0.0
C1434 C 0.60488 0.56198 0.42639 0.0
C1435 C 0.61592 0.53448 0.42942 0.0
C1436 C 0.64688 0.54332 0.43892 0.0
C1437 C 0.57356 0.55177 0.41534 0.0
C1438 C 0.539 0.51674 0.4174 0.0
C1439 C 0.581 0.57049 0.40116 0.0
C1440 C 0.61375 0.60986 0.39877 0.0
C1441 C 0.65137 0.61646 0.39698 0.0
C1442 C 0.68213 0.65405 0.39494 0.0
C1443 C 0.67547 0.68512 0.39462 0.0
C1444 C 0.63801 0.67863 0.39629 0.0
C1445 C 0.60719 0.64111 0.3983 0.0
H1446 H 0.6993 0.71419 0.39307 0.0
H1447 H 0.39221 0.3555 0.41201 0.0
H1448 H 0.08342 0.69785 0.60469 0.0
H1449 H 0.07321 0.67198 0.57887 0.0
H1450 H 0.19616 0.73499 0.57122 0.0
H1451 H 0.20618 0.7626 0.59662 0.0
H1452 H 0.15788 0.71942 0.54457 0.0
H1453 H 0.14736 0.64472 0.59186 0.0
H1454 H 0.11451 0.61265 0.6157 0.0
H1455 H 1.00737 0.54845 0.59177 0.0
H1456 H 1.03953 0.58046 0.56786 0.0
H1457 H 0.23059 0.60755 0.51539 0.0
H1458 H 0.21092 0.64686 0.52983 0.0
H1459 H 0.09259 0.55411 0.52846 0.0
H1460 H 0.11208 0.51443 0.51429 0.0
H1461 H 0.10952 0.58109 0.55545 0.0
H1462 H 0.12074 0.63588 0.50793 0.0
H1463 H 0.14816 0.66308 0.48293 0.0
H1464 H 0.24398 0.76019 0.50431 0.0
H1465 H 0.21739 0.73339 0.5295 0.0
C1466 C 0.10803 0.70748 0.5972 0.0
C1467 C 0.14563 0.73137 0.60264 0.0
C1468 C 0.1022 0.6927 0.58249 0.0
C1469 C 0.13404 0.70036 0.5734 0.0
C1470 C 0.17119 0.72834 0.57812 0.0
C1471 C 0.17694 0.74403 0.59267 0.0
C1472 C 0.13031 0.67381 0.56098 0.0
C1473 C 0.14718 0.68913 0.54685 0.0
C1474 C 0.11477 0.63387 0.56374 0.0
C1475 C 0.0957 0.61516 0.57816 0.0
C1476 C 0.11677 0.62388 0.59173 0.0
C1477 C 0.09829 0.60574 0.60524 0.0
C1478 C 0.05889 0.57854 0.60523 0.0
C1479 C 1.03786 0.56954 0.59175 0.0
C1480 C 0.05617 0.58767 0.57824 0.0
C1481 C 0.20041 0.59551 0.51823 0.0
C1482 C 0.17295 0.55784 0.51386 0.0
C1483 C 0.18912 0.61816 0.52629 0.0
C1484 C 0.15014 0.60371 0.52991 0.0
C1485 C 0.12273 0.56597 0.52565 0.0
C1486 C 0.13401 0.5432 0.51769 0.0
C1487 C 0.13881 0.62703 0.53927 0.0
C1488 C 0.11925 0.61107 0.55286 0.0
C1489 C 0.15094 0.66593 0.53578 0.0
C1490 C 0.16708 0.68252 0.52066 0.0
C1491 C 0.14775 0.66296 0.50734 0.0
C1492 C 0.16315 0.67832 0.49312 0.0
C1493 C 0.19782 0.71331 0.49203 0.0
C1494 C 0.21711 0.73309 0.50518 0.0
C1495 C 0.20183 0.71787 0.51944 0.0
H1496 H 0.20974 0.72513 0.481 0.0
H1497 H 1.04465 0.56422 0.61563 0.0
H1498 H 0.51885 0.1558 0.75301 0.0
H1499 H 0.54218 0.1197 0.73833 0.0
H1500 H 0.48195 1.02256 0.76837 0.0
H1501 H 0.45716 0.05758 0.78265 0.0
H1502 H 0.56406 0.06002 0.76887 0.0
H1503 H 0.46115 1.00071 0.73583 0.0
H1504 H 0.40975 0.98948 0.71785 0.0
H1505 H 0.49435 0.05956 0.68462 0.0
H1506 H 0.54641 0.07279 0.70258 0.0
H1507 H 0.67383 0.04441 0.69642 0.0
H1508 H 0.62139 1.01162 0.71458 0.0
H1509 H 0.66646 0.1166 0.74077 0.0
H1510 H 0.71865 0.14961 0.72265 0.0
H1511 H 0.57333 0.03756 0.71412 0.0
H1512 H 0.6345 0.10495 0.77413 0.0
H1513 H 0.68082 0.10589 0.79268 0.0
H1514 H 0.67083 1.00348 0.77264 0.0
H1515 H 0.62452 1.00196 0.75392 0.0
C1516 C 0.50914 0.12612 0.75603 0.0
C1517 C 0.48668 0.10976 0.76906 0.0
C1518 C 0.52234 0.10547 0.74763 0.0
C1519 C 0.51383 0.0686 0.75234 0.0
C1520 C 0.48852 0.05086 0.7645 0.0
C1521 C 0.47445 0.07106 0.77265 0.0
C1522 C 0.53826 0.05334 0.74684 0.0
C1523 C 0.56593 0.05466 0.75691 0.0
C1524 C 0.53916 0.04423 0.73143 0.0
C1525 C 0.50792 0.038 0.7207 0.0
C1526 C 0.46895 1.01436 0.7248 0.0
C1527 C 0.43962 1.00756 0.71458 0.0
C1528 C 0.44876 1.02374 0.7001 0.0
C1529 C 0.48729 0.04709 0.69586 0.0
C1530 C 0.51676 0.05433 0.70609 0.0
C1531 C 0.67355 0.06016 0.70638 0.0
C1532 C 0.69952 0.10009 0.70781 0.0
C1533 C 0.64355 0.04119 0.7168 0.0
C1534 C 0.63957 0.06174 0.72889 0.0
C1535 C 0.66892 0.09999 0.73157 0.0
C1536 C 0.69872 0.11906 0.72109 0.0
C1537 C 0.60131 0.04833 0.73588 0.0
C1538 C 0.5709 0.04177 0.72614 0.0
C1539 C 0.59733 0.05177 0.75162 0.0
C1540 C 0.62613 0.05344 0.76258 0.0
C1541 C 0.6422 0.08265 0.77366 0.0
C1542 C 0.66856 0.08336 0.78418 0.0
C1543 C 0.67879 0.05479 0.78383 0.0
C1544 C 0.66296 1.02565 0.77287 0.0
C1545 C 0.63683 1.02499 0.76224 0.0
H1546 H 0.69896 0.0552 0.79206 0.0
H1547 H 0.42598 1.01809 0.69216 0.0
H1548 H 0.30362 0.0414 0.11398 0.0
H1549 H 0.29782 0.07402 0.09151 0.0
H1550 H 0.4137 0.16828 0.09869 0.0
H1551 H 0.41903 0.1363 0.12132 0.0
H1552 H 0.36961 0.19625 0.09317 0.0
H1553 H 0.38745 0.09768 0.06978 0.0
H1554 H 0.37276 1.031 0.06492 0.0
H1555 H 0.26016 1.001 0.04881 0.0
H1556 H 0.27396 0.06739 0.05379 0.0
H1557 H 0.41129 0.28869 0.02155 0.0
H1558 H 0.40932 0.25019 0.04349 0.0
H1559 H 0.28667 0.17633 0.03759 0.0
H1560 H 0.28864 0.21537 0.0157 0.0
H1561 H 0.32856 0.13597 0.04234 0.0
H1562 H 0.31328 0.23654 0.06493 0.0
H1563 H 0.33 0.30397 0.06934 0.0
H1564 H 0.44068 0.33057 0.08659 0.0
H1565 H 0.42489 0.26341 0.08202 0.0
C1566 C 0.32794 0.06887 0.11062 0.0
C1567 C 0.36173 0.08638 0.11941 0.0
C1568 C 0.32467 0.0875 0.09777 0.0
C1569 C 0.35543 0.12361 0.09329 0.0
C1570 C 0.38946 0.14061 0.10191 0.0
C1571 C 0.39253 0.12229 0.11484 0.0
C1572 C 0.35199 0.14461 0.08 0.0
C1573 C 0.36106 0.18308 0.08204 0.0
C1574 C 0.33977 0.12726 0.0655 0.0
C1575 C 0.33159 0.08743 0.06232 0.0
C1576 C 0.35945 0.07681 0.0653 0.0
C1577 C 0.35129 0.03906 0.06251 0.0
C1578 C 0.3155 1.01174 0.05661 0.0
C1579 C 0.28785 1.02217 0.05341 0.0
C1580 C 0.29583 0.05986 0.05621 0.0
C1581 C 0.38393 0.26442 0.02507 0.0
C1582 C 0.35005 0.25506 0.01715 0.0
C1583 C 0.38281 0.24242 0.03753 0.0
C1584 C 0.34782 0.21046 0.04219 0.0
C1585 C 0.31393 0.20085 0.03417 0.0
C1586 C 0.315 0.22321 0.02179 0.0
C1587 C 0.34692 0.18756 0.05556 0.0
C1588 C 0.33694 0.14886 0.05353 0.0
C1589 C 0.35861 0.2047 0.07005 0.0
C1590 C 0.36802 0.245 0.073 0.0
C1591 C 0.3413 0.25683 0.06955 0.0
C1592 C 0.35059 0.29499 0.0721 0.0
C1593 C 0.38641 0.32155 0.07822 0.0
C1594 C 0.41296 0.30996 0.08184 0.0
C1595 C 0.40385 0.27184 0.07928 0.0
H1596 H 0.39358 0.35109 0.08016 0.0
H1597 H 0.30922 0.98252 0.05448 0.0
H1598 H 0.26647 0.34461 0.29432 0.0
H1599 H 0.2225 0.33504 0.27372 0.0
H1600 H 0.30507 0.33822 0.24141 0.0
H1601 H 0.35086 0.35157 0.26186 0.0
H1602 H 0.27763 0.37736 0.23066 0.0
H1603 H 0.21833 0.25175 0.25244 0.0
H1604 H 0.19113 0.20266 0.2726 0.0
H1605 H 0.10446 0.23293 0.28182 0.0
H1606 H 0.13147 0.2826 0.26185 0.0
H1607 H 0.14285 0.29902 0.16999 0.0
H1608 H 0.18203 0.29968 0.19125 0.0
H1609 H 0.12632 0.34297 0.22066 0.0
H1610 H 0.08829 0.34448 0.19929 0.0
H1611 H 0.1388 0.27775 0.23224 0.0
H1612 H 0.20359 0.40625 0.21002 0.0
H1613 H 0.23077 0.45125 0.18849 0.0
H1614 H 0.30786 0.4089 0.1787 0.0
H1615 H 0.28065 0.36317 0.20003 0.0
C1616 C 0.2757 0.34389 0.28283 0.0
C1617 C 0.31259 0.34926 0.27983 0.0
C1618 C 0.25005 0.33759 0.27104 0.0
C1619 C 0.26004 0.33518 0.25597 0.0
C1620 C 0.29654 0.33982 0.25293 0.0
C1621 C 0.3226 0.34701 0.2647 0.0
C1622 C 0.2332 0.32969 0.24334 0.0
C1623 C 0.24745 0.3551 0.23097 0.0
C1624 C 0.19354 0.30104 0.24372 0.0
C1625 C 0.17715 0.27115 0.25573 0.0
C1626 C 0.19364 0.24814 0.25884 0.0
C1627 C 0.17823 0.22018 0.27022 0.0
C1628 C 0.14614 0.21474 0.27851 0.0
C1629 C 0.12934 0.2372 0.2754 0.0
C1630 C 0.14466 0.26524 0.26404 0.0
C1631 C 0.13897 0.30893 0.18094 0.0
C1632 C 0.11278 0.32233 0.18283 0.0
C1633 C 0.16114 0.30888 0.19309 0.0
C1634 C 0.15711 0.32156 0.20743 0.0
C1635 C 0.12964 0.33297 0.20964 0.0
C1636 C 0.10784 0.33364 0.19741 0.0
C1637 C 0.18349 0.32537 0.21983 0.0
C1638 C 0.16909 0.29973 0.23207 0.0
C1639 C 0.22314 0.35322 0.21921 0.0
C1640 C 0.23979 0.381 0.2065 0.0
C1641 C 0.22608 0.40628 0.20318 0.0
C1642 C 0.24154 0.43196 0.19104 0.0
C1643 C 0.27094 0.43285 0.1822 0.0
C1644 C 0.28504 0.40813 0.18553 0.0
C1645 C 0.26962 0.38234 0.19765 0.0
H1646 H 0.28288 0.45276 0.1728 0.0
H1647 H 0.13425 0.19308 0.28732 0.0
H1648 H 1.00759 0.23402 0.4626 0.0
H1649 H 0.97021 0.1963 0.44063 0.0
H1650 H 0.98151 0.29935 0.42043 0.0
H1651 H 1.01944 0.33736 0.44237 0.0
H1652 H 0.90411 0.23539 0.42246 0.0
H1653 H 1.02926 0.26358 0.40499 0.0
H1654 H 0.09187 0.2663 0.40697 0.0
H1655 H 1.03388 0.14319 0.41206 0.0
H1656 H 0.97086 0.13978 0.41034 0.0
H1657 H 0.82359 0.16157 0.35089 0.0
H1658 H 0.86423 0.19804 0.37215 0.0
H1659 H 0.87023 0.09831 0.38641 0.0
H1660 H 0.83115 0.06207 0.36451 0.0
H1661 H 0.93899 0.15975 0.38788 0.0
H1662 H 0.81458 0.12967 0.40557 0.0
H1663 H 0.75087 0.12482 0.4046 0.0
H1664 H 0.80517 0.24797 0.40061 0.0
H1665 H 0.86925 0.25354 0.40134 0.0
C1666 C 1.00253 0.24865 0.45335 0.0
C1667 C 1.01633 0.28852 0.45411 0.0
C1668 C 0.98128 0.22715 0.44083 0.0
C1669 C 0.97314 0.24508 0.42893 0.0
C1670 C 0.98757 0.28506 0.42951 0.0
C1671 C 1.00937 0.30673 0.44196 0.0
C1672 C 0.94777 0.22161 0.41633 0.0
C1673 C 0.9119 0.21929 0.41472 0.0
C1674 C 0.95746 0.19951 0.40668 0.0
C1675 C 0.99533 0.20148 0.40769 0.0
C1676 C 1.02984 0.23712 0.40667 0.0
C1677 C 0.06541 0.23878 0.40772 0.0
C1678 C 0.06685 0.20495 0.40968 0.0
C1679 C 1.03271 0.16938 0.41056 0.0
C1680 C 0.99706 0.16756 0.40954 0.0
C1681 C 0.83371 0.14735 0.35847 0.0
C1682 C 0.82433 0.10892 0.3559 0.0
C1683 C 0.85659 0.16816 0.37077 0.0
C1684 C 0.86998 0.15086 0.38102 0.0
C1685 C 0.86017 0.11228 0.37867 0.0
C1686 C 0.83751 0.09146 0.36623 0.0
C1687 C 0.89519 0.17362 0.39387 0.0
C1688 C 0.93103 0.17576 0.39559 0.0
C1689 C 0.88524 0.19519 0.40378 0.0
C1690 C 0.84674 0.19198 0.40337 0.0
C1691 C 0.81295 0.1557 0.40437 0.0
C1692 C 0.77676 0.15283 0.40388 0.0
C1693 C 0.77397 0.18606 0.40251 0.0
C1694 C 0.80738 0.22225 0.40166 0.0
C1695 C 0.84364 0.22529 0.40212 0.0
H1696 H 0.74593 0.18377 0.40214 0.0
H1697 H 0.09442 0.2063 0.41048 0.0
H1698 H 0.69307 0.75981 0.52377 0.0
H1699 H 0.6889 0.79955 0.54401 0.0
H1700 H 0.81252 0.87364 0.54284 0.0
H1701 H 0.81668 0.83306 0.52277 0.0
H1702 H 0.78413 0.86613 0.57177 0.0
H1703 H 0.75717 0.89497 0.52272 0.0
H1704 H 0.72504 0.87857 0.49788 0.0
H1705 H 0.61595 0.84207 0.5194 0.0
H1706 H 0.64718 0.85639 0.54451 0.0
H1707 H 0.77599 1.02162 0.6076 0.0
H1708 H 0.78796 0.98685 0.58729 0.0
H1709 H 0.66755 0.89942 0.58745 0.0
H1710 H 0.65552 0.93398 0.60773 0.0
H1711 H 0.69971 0.91899 0.55807 0.0
H1712 H 0.72756 0.88477 0.60715 0.0
H1713 H 0.76053 0.89954 0.63187 0.0
H1714 H 0.87029 0.94966 0.60943 0.0
H1715 H 0.83798 0.9359 0.58453 0.0
C1716 C 0.71938 0.78387 0.52821 0.0
C1717 C 0.75518 0.79345 0.52187 0.0
C1718 C 0.717 0.80671 0.53967 0.0
C1719 C 0.75033 0.84004 0.54471 0.0
C1720 C 0.78645 0.84813 0.53909 0.0
C1721 C 0.78885 0.82497 0.52769 0.0
C1722 C 0.74686 0.86807 0.55471 0.0
C1723 C 0.76614 0.87813 0.56868 0.0
C1724 C 0.72329 0.88373 0.55067 0.0
C1725 C 0.70453 0.87645 0.53555 0.0
C1726 C 0.72628 0.88318 0.52219 0.0
C1727 C 0.70821 0.87423 0.50804 0.0
C1728 C 0.66849 0.85948 0.50703 0.0
C1729 C 0.64674 0.85352 0.5202 0.0
C1730 C 0.6646 0.8619 0.53441 0.0
C1731 C 0.75198 0.99548 0.60303 0.0
C1732 C 0.71487 0.98036 0.60925 0.0
C1733 C 0.75887 0.97553 0.59152 0.0
C1734 C 0.72871 0.94034 0.58599 0.0
C1735 C 0.69123 0.92647 0.59157 0.0
C1736 C 0.68442 0.94615 0.60316 0.0
C1737 C 0.73638 0.91641 0.57523 0.0
C1738 C 0.71794 0.90722 0.56108 0.0
C1739 C 0.76098 0.90188 0.57904 0.0
C1740 C 0.78038 0.90971 0.59399 0.0
C1741 C 0.75875 0.89923 0.60748 0.0
C1742 C 0.77731 0.90737 0.62153 0.0
C1743 C 0.81747 0.92557 0.62223 0.0
C1744 C 0.83917 0.93561 0.60887 0.0
C1745 C 0.82076 0.92766 0.59479 0.0
H1746 H 0.83177 0.93183 0.63312 0.0
H1747 H 0.65458 0.85265 0.49605 0.0
H1748 H 0.86016 0.74838 0.80104 0.0
H1749 H 0.89816 0.74907 0.77954 0.0
H1750 H 0.80533 0.72871 0.7493 0.0
H1751 H 0.76527 0.72356 0.77099 0.0
H1752 H 0.83186 0.6884 0.7399 0.0
H1753 H 0.89389 0.82056 0.75364 0.0
H1754 H 0.9249 0.87803 0.77014 0.0
H1755 H 1.01565 0.85446 0.78036 0.0
H1756 H 0.9849 0.79651 0.76408 0.0
H1757 H 0.95349 0.73393 0.67528 0.0
H1758 H 0.91798 0.74375 0.69565 0.0
H1759 H 0.98278 0.72106 0.72883 0.0
H1760 H 1.01767 0.70975 0.70849 0.0
H1761 H 0.97043 0.78712 0.73508 0.0
H1762 H 0.90009 0.65023 0.72097 0.0
H1763 H 0.86961 0.59876 0.70171 0.0
H1764 H 0.79372 0.64046 0.68912 0.0
H1765 H 0.82406 0.69244 0.70821 0.0
C1766 C 0.84732 0.7433 0.78988 0.0
C1767 C 0.80925 0.73555 0.78789 0.0
C1768 C 0.8696 0.74461 0.77749 0.0
C1769 C 0.85512 0.73983 0.76267 0.0
C1770 C 0.81736 0.73269 0.76059 0.0
C1771 C 0.79459 0.73026 0.77304 0.0
C1772 C 0.87877 0.74052 0.7495 0.0
C1773 C 0.86195 0.71048 0.73878 0.0
C1774 C 0.91823 0.76913 0.74791 0.0
C1775 C 0.93687 0.80398 0.75773 0.0
C1776 C 0.9203 0.82746 0.75949 0.0
C1777 C 0.93786 0.86015 0.76879 0.0
C1778 C 0.97218 0.86984 0.77632 0.0
C1779 C 0.98905 0.8469 0.77453 0.0
C1780 C 0.97158 0.81414 0.76526 0.0
C1781 C 0.96015 0.73081 0.6869 0.0
C1782 C 0.98799 0.72035 0.69024 0.0
C1783 C 0.94004 0.7368 0.69851 0.0
C1784 C 0.94762 0.73281 0.71368 0.0
C1785 C 0.97666 0.72431 0.71715 0.0
C1786 C 0.99658 0.71794 0.70552 0.0
C1787 C 0.92346 0.73496 0.72589 0.0
C1788 C 0.94023 0.76544 0.73631 0.0
C1789 C 0.88374 0.70752 0.72696 0.0
C1790 C 0.86449 0.67533 0.71594 0.0
C1791 C 0.87697 0.64846 0.71407 0.0
C1792 C 0.85972 0.61921 0.70318 0.0
C1793 C 0.82979 0.61639 0.69418 0.0
C1794 C 0.81689 0.64268 0.6961 0.0
C1795 C 0.83405 0.67199 0.70697 0.0
H1796 H 0.81657 0.59381 0.68572 0.0
H1797 H 0.98573 0.89517 0.78351 0.0
H1798 H 0.13203 0.75358 0.93614 0.0
H1799 H 0.17172 0.80243 0.91736 0.0
H1800 H 0.09802 0.85179 0.92084 0.0
H1801 H 0.05779 0.80225 0.93951 0.0
H1802 H 0.13074 0.85827 0.89128 0.0
H1803 H 0.16942 0.88312 0.94347 0.0
H1804 H 0.183 0.86358 0.96806 0.0
H1805 H 0.27822 0.85826 0.94839 0.0
H1806 H 0.26411 0.87605 0.92345 0.0
H1807 H 0.27431 1.03513 0.86176 0.0
H1808 H 0.22937 0.9936 0.88149 0.0
H1809 H 0.29277 0.93324 0.88524 0.0
H1810 H 0.33777 0.97502 0.86571 0.0
H1811 H 0.26259 0.93698 0.91255 0.0
H1812 H 0.22017 0.90309 0.86063 0.0
H1813 H 0.20465 0.91606 0.83507 0.0
H1814 H 0.11753 0.93638 0.85387 0.0
H1815 H 0.13306 0.92421 0.8796 0.0
C1816 C 0.12346 0.77388 0.93238 0.0
C1817 C 0.09208 0.77442 0.93917 0.0
C1818 C 0.14618 0.80186 0.92175 0.0
C1819 C 0.13827 0.8312 0.91802 0.0
C1820 C 0.10466 0.82948 0.92366 0.0
C1821 C 0.08167 0.8012 0.93425 0.0
C1822 C 0.16794 0.86621 0.91014 0.0
C1823 C 0.15936 0.8759 0.89602 0.0
C1824 C 0.20538 0.88895 0.91634 0.0
C1825 C 0.21548 0.88062 0.93153 0.0
C1826 C 0.19315 0.87761 0.94435 0.0
C1827 C 0.20087 0.86673 0.95835 0.0
C1828 C 0.23147 0.85972 0.9598 0.0
C1829 C 0.25448 0.86366 0.94724 0.0
C1830 C 0.24656 0.87403 0.93315 0.0
C1831 C 0.27942 1.01404 0.86731 0.0
C1832 C 0.30941 1.00822 0.86242 0.0
C1833 C 0.25365 0.99016 0.87844 0.0
C1834 C 0.25735 0.95988 0.88461 0.0
C1835 C 0.28937 0.95638 0.88064 0.0
C1836 C 0.31511 0.98026 0.86954 0.0
C1837 C 0.22562 0.92883 0.89355 0.0
C1838 C 0.23381 0.9198 0.9079 0.0
C1839 C 0.1879 0.90656 0.88752 0.0
C1840 C 0.17807 0.91318 0.87205 0.0
C1841 C 0.19787 0.91057 0.85932 0.0
C1842 C 0.18908 0.91777 0.8448 0.0
C1843 C 0.16018 0.92713 0.84285 0.0
C1844 C 0.13995 0.9292 0.85541 0.0
C1845 C 0.14875 0.92217 0.86996 0.0
H1846 H 0.1534 0.93269 0.8316 0.0
H1847 H 0.23735 0.85126 0.97066 0.0
H1848 H 0.78257 0.47108 0.97901 0.0
H1849 H 0.7173 0.46143 0.9807 0.0
H1850 H 0.76371 0.58412 0.97722 0.0
H1851 H 0.82903 0.59389 0.97537 0.0
H1852 H 0.67924 0.48106 -0.00015 0.0
H1853 H 0.69673 0.60415 0.96117 0.0
H1854 H 0.73591 0.6427 0.93947 0.0
H1855 H 0.75303 0.54968 0.9255 0.0
H1856 H 0.71343 0.51027 0.947 0.0
H1857 H 0.52772 0.54783 0.97923 0.0
H1858 H 0.59237 0.55629 0.97793 0.0
H1859 H 0.54532 0.43563 -0.01197 0.0
H1860 H 0.48073 0.42767 -0.00987 0.0
H1861 H 0.63039 0.53696 0.96193 0.0
H1862 H 0.61093 0.41461 0.00208 0.0
H1863 H 0.57352 0.3801 0.02478 0.0
H1864 H 0.56325 0.47815 0.03738 0.0
H1865 H 0.60096 0.51338 0.01485 0.0
C1866 C 0.77912 0.49618 0.97865 0.0
C1867 C 0.81181 0.53339 0.97705 0.0
C1868 C 0.74139 0.49056 0.97964 0.0
C1869 C 0.73457 0.52182 0.97889 0.0
C1870 C 0.76728 0.5591 0.97755 0.0
C1871 C 0.80506 0.56476 0.97662 0.0
C1872 C 0.69359 0.51529 0.97958 0.0
C1873 C 0.66857 0.49296 -0.00861 0.0
C1874 C 0.67903 0.53142 0.96892 0.0
C1875 C 0.70249 0.55446 0.95582 0.0
C1876 C 0.70873 0.59185 0.95344 0.0
C1877 C 0.731 0.61384 0.94119 0.0
C1878 C 0.7471 0.59871 0.93118 0.0
C1879 C 0.74069 0.5614 0.93332 0.0
C1880 C 0.71835 0.53924 0.94555 0.0
C1881 C 0.53098 0.52299 0.98128 0.0
C1882 C 0.4984 0.48705 -0.01507 0.0
C1883 C 0.56839 0.52787 0.98047 0.0
C1884 C 0.57504 0.49696 -0.01688 0.0
C1885 C 0.54222 0.46068 -0.01361 0.0
C1886 C 0.5048 0.45595 -0.01253 0.0
C1887 C 0.61592 0.50291 -0.01771 0.0
C1888 C 0.64094 0.52505 0.97042 0.0
C1889 C 0.63074 0.48719 -0.00696 0.0
C1890 C 0.60838 0.46642 0.00669 0.0
C1891 C 0.60078 0.42882 0.00972 0.0
C1892 C 0.5795 0.40914 0.02255 0.0
C1893 C 0.5659 0.42687 0.03248 0.0
C1894 C 0.57368 0.46439 0.02964 0.0
C1895 C 0.59496 0.48422 0.01684 0.0
H1896 H 0.5494 0.41156 0.0424 0.0
H1897 H 0.76453 0.61595 0.9218 0.0
H1898 H 0.33633 0.7679 0.133 0.0
H1899 H 0.28153 0.70249 0.13556 0.0
H1900 H 0.20689 0.74882 0.14446 0.0
H1901 H 0.26242 0.81444 0.14286 0.0
H1902 H 0.18057 0.69147 0.16063 0.0
H1903 H 0.21292 0.69919 0.10799 0.0
H1904 H 0.25387 0.7102 0.08547 0.0
H1905 H 0.27725 0.62217 0.10042 0.0
H1906 H 0.23675 0.61093 0.12308 0.0
H1907 H 1.00417 0.51445 0.14663 0.0
H1908 H 0.06084 0.5789 0.14406 0.0
H1909 H 0.13496 0.53034 0.14732 0.0
H1910 H 0.07808 0.46549 0.1501 0.0
H1911 H 0.16141 0.58716 0.12513 0.0
H1912 H 0.12417 0.57888 0.17737 0.0
H1913 H 0.07928 0.56731 0.19851 0.0
H1914 H 0.06052 0.65733 0.18214 0.0
H1915 H 0.10492 0.66908 0.16077 0.0
C1916 C 0.30831 0.76432 0.13557 0.0
C1917 C 0.3044 0.79712 0.13776 0.0
C1918 C 0.27643 0.72641 0.13685 0.0
C1919 C 0.23878 0.7194 0.13985 0.0
C1920 C 0.23499 0.75233 0.14214 0.0
C1921 C 0.26709 0.7903 0.14122 0.0
C1922 C 0.20388 0.67832 0.14094 0.0
C1923 C 0.17638 0.66915 0.1526 0.0
C1924 C 0.19756 0.64771 0.13086 0.0
C1925 C 0.2222 0.6546 0.11732 0.0
C1926 C 0.22709 0.68246 0.10653 0.0
C1927 C 0.25016 0.68869 0.09374 0.0
C1928 C 0.26828 0.66703 0.09156 0.0
C1929 C 0.26327 0.63901 0.10214 0.0
C1930 C 0.24023 0.63266 0.11495 0.0
C1931 C 1.03243 0.51719 0.14681 0.0
C1932 C 1.03596 0.48408 0.14871 0.0
C1933 C 0.06515 0.55449 0.14539 0.0
C1934 C 0.10293 0.5604 0.14568 0.0
C1935 C 0.10655 0.52726 0.14713 0.0
C1936 C 0.07375 0.4899 0.14877 0.0
C1937 C 0.13818 0.60093 0.14458 0.0
C1938 C 0.1657 0.6098 0.13301 0.0
C1939 C 0.14408 0.63146 0.15451 0.0
C1940 C 0.11759 0.62461 0.16739 0.0
C1941 C 0.11025 0.59602 0.17822 0.0
C1942 C 0.08493 0.58946 0.19025 0.0
C1943 C 0.06698 0.6115 0.19165 0.0
C1944 C 0.07441 0.64024 0.18103 0.0
C1945 C 0.09967 0.64688 0.16896 0.0
H1946 H 1.04738 0.60638 0.20097 0.0
H1947 H 0.28609 0.67185 0.08164 0.0
H1948 H 0.61668 0.33154 0.31801 0.0
H1949 H 0.62576 0.2756 0.31955 0.0
H1950 H 0.50318 0.19948 0.31523 0.0
H1951 H 0.49391 0.25537 0.31388 0.0
H1952 H 0.52782 0.16918 0.33516 0.0
H1953 H 0.57101 0.21872 0.28548 0.0
H1954 H 0.60891 0.2665 0.26579 0.0
H1955 H 0.71366 0.28082 0.2849 0.0
H1956 H 0.67641 0.23362 0.3049 0.0
H1957 H 0.53294 0.99704 0.31789 0.0
H1958 H 0.52566 0.05403 0.31648 0.0
H1959 H 0.64727 0.12732 0.32465 0.0
H1960 H 0.65473 0.07015 0.3261 0.0
H1961 H 0.62387 0.15918 0.3029 0.0
H1962 H 0.57879 0.10841 0.35265 0.0
H1963 H 0.53929 0.05847 0.37143 0.0
H1964 H 0.43608 0.04458 0.35094 0.0
H1965 H 0.47497 0.09408 0.33189 0.0
C1966 C 0.59149 0.30296 0.31746 0.0
C1967 C 0.55445 0.29854 0.31584 0.0
C1968 C 0.5968 0.27066 0.31822 0.0
C1969 C 0.56532 0.23254 0.31731 0.0
C1970 C 0.52824 0.22812 0.31597 0.0
C1971 C 0.52292 0.26041 0.31517 0.0
C1972 C 0.57088 0.19754 0.31783 0.0
C1973 C 0.54855 0.16702 0.32791 0.0
C1974 C 0.59836 0.19412 0.30868 0.0
C1975 C 0.62092 0.22297 0.29682 0.0
C1976 C 0.60215 0.23237 0.2856 0.0
C1977 C 0.62352 0.2593 0.27436 0.0
C1978 C 0.66368 0.27678 0.27413 0.0
C1979 C 0.68255 0.26734 0.28513 0.0
C1980 C 0.66133 0.24051 0.29642 0.0
C1981 C 0.55831 1.0252 0.31937 0.0
C1982 C 0.59449 1.02844 0.32217 0.0
C1983 C 0.55403 0.05807 0.31863 0.0
C1984 C 0.58574 0.09565 0.32062 0.0
C1985 C 0.62209 0.09904 0.32309 0.0
C1986 C 0.62635 0.06608 0.32397 0.0
C1987 C 0.58085 0.13101 0.32021 0.0
C1988 C 0.60326 0.16151 0.31015 0.0
C1989 C 0.55325 0.13431 0.32928 0.0
C1990 C 0.5298 0.10468 0.34075 0.0
C1991 C 0.54766 0.0945 0.35208 0.0
C1992 C 0.52538 0.0663 0.36278 0.0
C1993 C 0.48519 0.04829 0.36235 0.0
C1994 C 0.46721 0.05852 0.35124 0.0
C1995 C 0.48936 0.08667 0.3405 0.0
H1996 H 0.46799 1.02646 0.37065 0.0
H1997 H 0.68017 0.29755 0.26539 0.0
H1998 H 0.28202 0.47244 0.47929 0.0
H1999 H 0.34635 0.48008 0.48109 0.0
H2000 H 0.39725 0.60351 0.47802 0.0
H2001 H 0.33294 0.59579 0.47558 0.0
H2002 H 0.44148 0.58838 0.46311 0.0
H2003 H 0.39005 0.54802 0.51296 0.0
H2004 H 0.34332 0.50659 0.53239 0.0
H2005 H 0.35684 0.41146 0.51819 0.0
H2006 H 0.40332 0.45222 0.49854 0.0
H2007 H 0.63024 0.63149 0.4893 0.0
H2008 H 0.56632 0.62457 0.48648 0.0
H2009 H 0.51561 0.50132 0.48278 0.0
H2010 H 0.5795 0.50807 0.48583 0.0
H2011 H 0.47199 0.51701 0.50118 0.0
H2012 H 0.50387 0.55683 0.44563 0.0
H2013 H 0.54665 0.59993 0.42552 0.0
H2014 H 0.57279 0.69897 0.45282 0.0
H2015 H 0.52841 0.65645 0.47274 0.0
C2016 C 0.30679 0.50133 0.47912 0.0
C2017 C 0.30154 0.53344 0.47745 0.0
C2018 C 0.34403 0.50577 0.48024 0.0
C2019 C 0.37774 0.54258 0.48008 0.0
C2020 C 0.37244 0.57464 0.47827 0.0
C2021 C 0.33523 0.57018 0.47694 0.0
C2022 C 0.41816 0.54773 0.48153 0.0
C2023 C 0.44789 0.57302 0.47166 0.0
C2024 C 0.42776 0.52765 0.49239 0.0
C2025 C 0.39986 0.50306 0.50418 0.0
C2026 C 0.38285 0.51819 0.51391 0.0
C2027 C 0.35645 0.49484 0.52497 0.0
C2028 C 0.34704 0.45639 0.5265 0.0
C2029 C 0.36411 0.44124 0.51698 0.0
C2030 C 0.39051 0.46445 0.50588 0.0
C2031 C 0.60562 0.60283 0.4878 0.0
C2032 C 0.61073 0.5704 0.48786 0.0
C2033 C 0.5687 0.59888 0.48598 0.0
C2034 C 0.53524 0.56236 0.48409 0.0
C2035 C 0.54036 0.52997 0.48414 0.0
C2036 C 0.57728 0.5339 0.48588 0.0
C2037 C 0.49505 0.55767 0.48283 0.0
C2038 C 0.46538 0.53237 0.49271 0.0
C2039 C 0.48558 0.57816 0.47219 0.0
C2040 C 0.51362 0.60359 0.46073 0.0
C2041 C 0.51903 0.5878 0.44736 0.0
C2042 C 0.5433 0.61209 0.43597 0.0
C2043 C 0.56296 0.6521 0.43799 0.0
C2044 C 0.55778 0.66797 0.45131 0.0
C2045 C 0.53278 0.64383 0.46258 0.0
H2046 H 0.58196 0.67079 0.42918 0.0
H2047 H 0.32659 0.43836 0.53507 0.0
H2048 H 0.77577 0.2925 0.63731 0.0
H2049 H 0.83208 0.35741 0.63874 0.0
H2050 H 0.87893 0.32064 0.67459 0.0
H2051 H 0.82234 0.25549 0.67329 0.0
H2052 H 0.89193 0.39101 0.68115 0.0
H2053 H 0.91127 0.33498 0.63555 0.0
H2054 H 0.8979 0.3065 0.60986 0.0
H2055 H 0.89305 0.40404 0.59263 0.0
H2056 H 0.90573 0.43277 0.61821 0.0
H2057 H 0.08154 0.55519 0.68104 0.0
H2058 H 1.0248 0.4906 0.67956 0.0
H2059 H 0.98652 0.52421 0.63983 0.0
H2060 H 1.04429 0.58859 0.64103 0.0
H2061 H 0.96825 0.45551 0.63516 0.0
H2062 H 0.94528 0.51153 0.67865 0.0
H2063 H 0.95865 0.54443 0.70343 0.0
H2064 H 0.96611 0.45149 0.72405 0.0
H2065 H 0.95326 0.41825 0.69933 0.0
C2066 C 0.79778 0.29803 0.64563 0.0
C2067 C 0.7938 0.26801 0.65521 0.0
C2068 C 0.83052 0.33549 0.64633 0.0
C2069 C 0.86086 0.34464 0.6566 0.0
C2070 C 0.85648 0.31499 0.66647 0.0
C2071 C 0.82378 0.2774 0.66573 0.0
C2072 C 0.89675 0.38479 0.65714 0.0
C2073 C 0.90881 0.40472 0.67108 0.0
C2074 C 0.91868 0.40424 0.64403 0.0
C2075 C 0.90917 0.38589 0.62883 0.0
C2076 C 0.90685 0.3501 0.62632 0.0
C2077 C 0.8995 0.33397 0.61176 0.0
C2078 C 0.89474 0.35355 0.59963 0.0
C2079 C 0.8968 0.38898 0.60204 0.0
C2080 C 0.90404 0.40516 0.61655 0.0
C2081 C 0.06118 0.5489 0.67192 0.0
C2082 C 0.06811 0.57751 0.66108 0.0
C2083 C 1.02815 0.51168 0.67116 0.0
C2084 C 0.99997 0.50172 0.65976 0.0
C2085 C 1.00718 0.53028 0.64881 0.0
C2086 C 1.04057 0.56738 0.64945 0.0
C2087 C 0.96356 0.46181 0.65918 0.0
C2088 C 0.95139 0.4419 0.64525 0.0
C2089 C 0.94098 0.44276 0.67222 0.0
C2090 C 0.9487 0.4626 0.68711 0.0
C2091 C 0.95004 0.49824 0.68845 0.0
C2092 C 0.95749 0.51693 0.70249 0.0
C2093 C 0.96334 0.50011 0.7153 0.0
C2094 C 0.96164 0.46451 0.71411 0.0
C2095 C 0.95424 0.44571 0.70009 0.0
H2096 H 0.9691 0.51462 0.72616 0.0
H2097 H 0.88979 0.34154 0.58832 0.0
H2098 H 0.63474 0.8383 0.80267 0.0
H2099 H 0.62671 0.89513 0.80256 0.0
H2100 H 0.50427 0.82163 0.80874 0.0
H2101 H 0.51212 0.76493 0.80877 0.0
H2102 H 0.51507 0.87393 0.78871 0.0
H2103 H 0.57043 0.88279 0.83803 0.0
H2104 H 0.61942 0.88686 0.85596 0.0
H2105 H 0.70559 0.99062 0.83438 0.0
H2106 H 0.65719 0.98689 0.81618 0.0
H2107 H 0.46951 1.02209 0.80976 0.0
H2108 H 0.47813 0.96571 0.80719 0.0
H2109 H 0.60063 0.0413 0.80262 0.0
H2110 H 0.59213 0.09746 0.80478 0.0
H2111 H 0.59135 0.98852 0.82121 0.0
H2112 H 0.54043 0.98201 0.77224 0.0
H2113 H 0.4981 0.97494 0.75071 0.0
H2114 H 0.40933 0.86732 0.76849 0.0
H2115 H 0.45063 0.87377 0.79026 0.0
C2116 C 0.60607 0.8341 0.80412 0.0
C2117 C 0.57421 0.79644 0.80586 0.0
C2118 C 0.60147 0.86695 0.80414 0.0
C2119 C 0.5648 0.86351 0.80586 0.0
C2120 C 0.53299 0.82584 0.80743 0.0
C2121 C 0.5376 0.7931 0.80751 0.0
C2122 C 0.55918 0.89855 0.80571 0.0
C2123 C 0.5313 0.89865 0.79605 0.0
C2124 C 0.58121 0.93205 0.81474 0.0
C2125 C 0.61028 0.93434 0.82566 0.0
C2126 C 0.59989 0.90631 0.83704 0.0
C2127 C 0.62753 0.90859 0.84726 0.0
C2128 C 0.66561 0.93892 0.84629 0.0
C2129 C 0.6761 0.96711 0.83511 0.0
C2130 C 0.64857 0.96495 0.82485 0.0
C2131 C 0.49832 1.02684 0.80805 0.0
C2132 C 0.53005 0.06493 0.80758 0.0
C2133 C 0.50327 0.99429 0.80647 0.0
C2134 C 0.54023 0.99847 0.80461 0.0
C2135 C 0.57175 1.03654 0.80398 0.0
C2136 C 0.56677 0.06898 0.80524 0.0
C2137 C 0.54659 0.96383 0.80432 0.0
C2138 C 0.57476 0.9638 0.8139 0.0
C2139 C 0.52508 0.93054 0.79505 0.0
C2140 C 0.49835 0.92895 0.78311 0.0
C2141 C 0.51144 0.95748 0.77182 0.0
C2142 C 0.48769 0.95351 0.75955 0.0
C2143 C 0.4508 0.92128 0.75843 0.0
C2144 C 0.43766 0.89266 0.76952 0.0
C2145 C 0.46117 0.89647 0.78185 0.0
H2146 H 0.43261 0.91826 0.74888 0.0
H2147 H 0.68697 0.94063 0.85421 0.0
H2148 H 0.6397 0.60885 0.79551 0.0
H2149 H 0.63423 0.54502 0.79678 0.0
H2150 H 0.51419 0.49399 0.80874 0.0
H2151 H 0.51979 0.55743 0.80788 0.0
H2152 H 0.54088 0.46068 0.82509 0.0
H2153 H 0.55158 0.48639 0.7715 0.0
H2154 H 0.58187 0.52326 0.7482 0.0
H2155 H 0.68296 0.5153 0.7568 0.0
H2156 H 0.65342 0.47875 0.78026 0.0
H2157 H 0.48106 0.26217 0.8123 0.0
H2158 H 0.49102 0.3275 0.81072 0.0
H2159 H 0.61148 0.37212 0.80121 0.0
H2160 H 0.60154 0.30658 0.8026 0.0
H2161 H 0.58764 0.40965 0.78407 0.0
H2162 H 0.57459 0.37994 0.83694 0.0
H2163 H 0.54441 0.34402 0.86042 0.0
H2164 H 0.44757 0.36017 0.85348 0.0
H2165 H 0.47667 0.39537 0.82976 0.0
C2166 C 0.61207 0.58406 0.79836 0.0
C2167 C 0.58023 0.58892 0.80151 0.0
C2168 C 0.60883 0.54717 0.79901 0.0
C2169 C 0.57351 0.51363 0.80267 0.0
C2170 C 0.54189 0.5187 0.80589 0.0
C2171 C 0.54515 0.55542 0.80532 0.0
C2172 C 0.56916 0.47349 0.80337 0.0
C2173 C 0.55069 0.44953 0.81596 0.0
C2174 C 0.58271 0.45836 0.7918 0.0
C2175 C 0.60046 0.4802 0.77771 0.0
C2176 C 0.58037 0.49273 0.76847 0.0
C2177 C 0.59739 0.51353 0.75523 0.0
C2178 C 0.63436 0.52172 0.75105 0.0
C2179 C 0.65435 0.509 0.76007 0.0
C2180 C 0.63748 0.48822 0.77333 0.0
C2181 C 0.50972 0.28571 0.80976 0.0
C2182 C 0.54038 0.2784 0.80755 0.0
C2183 C 0.51551 0.3235 0.80898 0.0
C2184 C 0.55227 0.35571 0.80606 0.0
C2185 C 0.58277 0.34836 0.80352 0.0
C2186 C 0.57701 0.31053 0.80433 0.0
C2187 C 0.55882 0.39668 0.80569 0.0
C2188 C 0.57777 0.42079 0.79319 0.0
C2189 C 0.54562 0.41193 0.81734 0.0
C2190 C 0.52769 0.39002 0.83146 0.0
C2191 C 0.54666 0.37547 0.84031 0.0
C2192 C 0.52976 0.35528 0.85369 0.0
C2193 C 0.49413 0.34987 0.85843 0.0
C2194 C 0.47518 0.3644 0.84978 0.0
C2195 C 0.49183 0.38442 0.83636 0.0
H2196 H 0.48123 0.33454 0.86884 0.0
H2197 H 0.64749 0.53783 0.7408 0.0
H2198 H 0.06793 0.59952 0.96731 0.0
H2199 H 0.12383 0.59043 0.96991 0.0
H2200 H 1.0479 0.46999 0.97942 0.0
H2201 H 0.99221 0.47916 0.97739 0.0
H2202 H 0.10516 0.49071 -0.00325 0.0
H2203 H 0.0994 0.50976 0.9434 0.0
H2204 H 0.09795 0.54376 0.92038 0.0
H2205 H 0.20813 0.64085 0.93197 0.0
H2206 H 0.21002 0.60759 0.95517 0.0
H2207 H 0.24604 0.43053 -0.01229 0.0
H2208 H 0.19054 0.44023 -0.01459 0.0
H2209 H 0.26713 0.56013 0.9749 0.0
H2210 H 0.32226 0.55007 0.97655 0.0
H2211 H 0.20936 0.54005 0.95831 0.0
H2212 H 0.21501 0.51763 0.01173 0.0
H2213 H 0.21526 0.48086 0.03403 0.0
H2214 H 0.1031 0.38759 0.022 0.0
H2215 H 0.1025 0.42349 -0.00056 0.0
C2216 C 0.06297 0.57102 0.96995 0.0
C2217 C 1.02492 0.54013 0.97197 0.0
C2218 C 0.09526 0.56568 0.97136 0.0
C2219 C 0.09087 0.52912 0.97467 0.0
C2220 C 1.05284 0.49852 0.9769 0.0
C2221 C 1.02067 0.50385 0.97561 0.0
C2222 C 0.12525 0.52241 0.97588 0.0
C2223 C 0.12763 0.50125 -0.01181 0.0
C2224 C 0.15566 0.53634 0.96503 0.0
C2225 C 0.15465 0.55636 0.9511 0.0
C2226 C 0.12319 0.53847 0.94109 0.0
C2227 C 0.12231 0.55759 0.928 0.0
C2228 C 0.15287 0.59449 0.92474 0.0
C2229 C 0.18444 0.6123 0.93453 0.0
C2230 C 0.18545 0.59332 0.94764 0.0
C2231 C 0.25119 0.45901 -0.01512 0.0
C2232 C 0.28926 0.48938 -0.01766 0.0
C2233 C 0.21911 0.46474 -0.01631 0.0
C2234 C 0.22371 0.50134 0.98025 0.0
C2235 C 0.26181 0.53152 0.97758 0.0
C2236 C 0.29375 0.52568 0.97857 0.0
C2237 C 0.18945 0.50839 0.97922 0.0
C2238 C 0.18705 0.52962 0.96692 0.0
C2239 C 0.15888 0.49429 -0.00995 0.0
C2240 C 0.15899 0.47303 0.00376 0.0
C2241 C 0.19052 0.48916 0.01377 0.0
C2242 C 0.19071 0.46845 0.02646 0.0
C2243 C 0.15933 0.43174 0.02934 0.0
C2244 C 0.12749 0.4159 0.01967 0.0
C2245 C 0.12722 0.43641 0.00694 0.0
H2246 H 0.15957 0.41551 0.03906 0.0
H2247 H 0.15214 0.60924 0.9146 0.0
H2248 H 0.79196 0.3094 0.15087 0.0
H2249 H 0.72711 0.2534 0.14786 0.0
H2250 H 0.77522 0.17866 0.14542 0.0
H2251 H 0.84024 0.23466 0.14859 0.0
H2252 H 0.7203 0.15625 0.12436 0.0
H2253 H 0.72189 0.17705 0.17748 0.0
H2254 H 0.72998 0.21146 0.20157 0.0
H2255 H 0.64687 0.24259 0.18737 0.0
H2256 H 0.63802 0.20788 0.16318 0.0
H2257 H 0.54103 0.97838 0.13172 0.0
H2258 H 0.60575 1.03388 0.13527 0.0
H2259 H 0.55789 0.1087 0.13892 0.0
H2260 H 0.4928 0.05294 0.13561 0.0
H2261 H 0.61286 0.13123 0.15909 0.0
H2262 H 0.60909 0.10351 0.10602 0.0
H2263 H 0.59956 0.06314 0.08346 0.0
H2264 H 0.68809 0.04111 0.09892 0.0
H2265 H 0.69782 0.08097 0.12168 0.0
C2266 C 0.78896 0.28111 0.14971 0.0
C2267 C 0.82203 0.27714 0.14998 0.0
C2268 C 0.75146 0.24875 0.14807 0.0
C2269 C 0.74536 0.211 0.14648 0.0
C2270 C 0.77841 0.20703 0.1466 0.0
C2271 C 0.81591 0.23934 0.14846 0.0
C2272 C 0.70492 0.17613 0.14443 0.0
C2273 C 0.69709 0.15063 0.13214 0.0
C2274 C 0.67362 0.16828 0.15426 0.0
C2275 C 0.67977 0.19042 0.16845 0.0
C2276 C 0.7057 0.19164 0.17942 0.0
C2277 C 0.71031 0.21109 0.19312 0.0
C2278 C 0.68926 0.22961 0.19596 0.0
C2279 C 0.6633 0.22839 0.18513 0.0
C2280 C 0.65838 0.20874 0.17144 0.0
C2281 C 0.54406 1.00661 0.13318 0.0
C2282 C 0.51105 1.01068 0.13318 0.0
C2283 C 0.58151 0.03871 0.13515 0.0
C2284 C 0.58771 0.0764 0.13711 0.0
C2285 C 0.55467 0.08041 0.13737 0.0
C2286 C 0.51713 0.04826 0.1354 0.0
C2287 C 0.62822 0.11121 0.13907 0.0
C2288 C 0.63606 0.1368 0.15132 0.0
C2289 C 0.6596 0.11878 0.12931 0.0
C2290 C 0.65392 0.09493 0.11562 0.0
C2291 C 0.62634 0.08984 0.10466 0.0
C2292 C 0.62093 0.06708 0.09183 0.0
C2293 C 0.64313 0.04949 0.08978 0.0
C2294 C 0.67088 0.05471 0.10053 0.0
C2295 C 0.67637 0.07741 0.11339 0.0
H2296 H 0.6389 1.03188 0.07984 0.0
H2297 H 0.69292 0.24472 0.20657 0.0
H2298 H 0.64629 0.83192 0.32912 0.0
H2299 H 0.63804 0.76719 0.32786 0.0
H2300 H 0.51779 0.71978 0.31721 0.0
H2301 H 0.52586 0.78454 0.31862 0.0
H2302 H 0.52265 0.67148 0.33569 0.0
H2303 H 0.59019 0.73216 0.28982 0.0
H2304 H 0.64223 0.78275 0.27433 0.0
H2305 H 0.72568 0.76436 0.29747 0.0
H2306 H 0.67415 0.71394 0.31322 0.0
H2307 H 0.48898 0.48652 0.30956 0.0
H2308 H 0.49618 0.5507 0.3124 0.0
H2309 H 0.61633 0.59813 0.32324 0.0
H2310 H 0.60933 0.53412 0.32023 0.0
H2311 H 0.61137 0.64627 0.30496 0.0
H2312 H 0.54441 0.58822 0.3517 0.0
H2313 H 0.49261 0.53855 0.36754 0.0
H2314 H 0.40799 0.5507 0.34231 0.0
H2315 H 0.45943 0.60109 0.32649 0.0
C2316 C 0.61804 0.80787 0.32643 0.0
C2317 C 0.58691 0.81419 0.32383 0.0
C2318 C 0.6133 0.77046 0.32566 0.0
C2319 C 0.57726 0.73771 0.32221 0.0
C2320 C 0.54601 0.74394 0.31987 0.0
C2321 C 0.55075 0.78138 0.32062 0.0
C2322 C 0.57219 0.69736 0.32095 0.0
C2323 C 0.54188 0.66613 0.32878 0.0
C2324 C 0.59737 0.68941 0.31226 0.0
C2325 C 0.62837 0.71954 0.30278 0.0
C2326 C 0.61967 0.73908 0.29166 0.0
C2327 C 0.64907 0.7677 0.28283 0.0
C2328 C 0.68725 0.77683 0.28494 0.0
C2329 C 0.6961 0.75728 0.29586 0.0
C2330 C 0.66681 0.72866 0.30473 0.0
C2331 C 0.51698 0.5105 0.31261 0.0
C2332 C 0.54853 0.50453 0.3146 0.0
C2333 C 0.52107 0.54752 0.31436 0.0
C2334 C 0.55684 0.58012 0.31823 0.0
C2335 C 0.58831 0.57408 0.32025 0.0
C2336 C 0.58422 0.53708 0.31855 0.0
C2337 C 0.56186 0.62041 0.31969 0.0
C2338 C 0.59217 0.65164 0.31189 0.0
C2339 C 0.53665 0.62831 0.32837 0.0
C2340 C 0.50568 0.59809 0.33782 0.0
C2341 C 0.51473 0.58014 0.34948 0.0
C2342 C 0.48545 0.55189 0.35847 0.0
C2343 C 0.44699 0.54111 0.35583 0.0
C2344 C 0.43777 0.55894 0.34431 0.0
C2345 C 0.46699 0.58752 0.33538 0.0
H2346 H 0.42436 0.51911 0.36277 0.0
H2347 H 0.70997 0.799 0.2781 0.0
H2348 H 0.11969 0.5874 0.47738 0.0
H2349 H 0.06336 0.59528 0.47968 0.0
H2350 H 0.98887 0.47253 0.47413 0.0
H2351 H 1.04551 0.46488 0.47128 0.0
H2352 H 0.95531 0.49927 0.46013 0.0
H2353 H 1.00017 0.5313 0.5113 0.0
H2354 H 1.03749 0.56293 0.53442 0.0
H2355 H 0.06119 0.67316 0.51771 0.0
H2356 H 1.02339 0.64215 0.49463 0.0
H2357 H 0.78464 0.50184 0.4855 0.0
H2358 H 0.84091 0.4935 0.48299 0.0
H2359 H 0.91386 0.61594 0.47668 0.0
H2360 H 0.85756 0.62444 0.47906 0.0
H2361 H 0.94697 0.58933 0.49644 0.0
H2362 H 0.89057 0.5497 0.44693 0.0
H2363 H 0.83829 0.51123 0.4288 0.0
H2364 H 0.82912 0.40698 0.44618 0.0
H2365 H 0.88101 0.44481 0.46455 0.0
C2366 C 0.09137 0.56191 0.47666 0.0
C2367 C 0.08782 0.52542 0.47402 0.0
C2368 C 0.05867 0.56642 0.47819 0.0
C2369 C 1.02069 0.53459 0.47734 0.0
C2370 C 1.01719 0.49803 0.47482 0.0
C2371 C 1.04996 0.49354 0.47321 0.0
C2372 C 0.98505 0.53948 0.47831 0.0
C2373 C 0.95366 0.5186 0.46833 0.0
C2374 C 0.9817 0.56512 0.48866 0.0
C2375 C 1.00937 0.58446 0.50118 0.0
C2376 C 1.01406 0.56238 0.51241 0.0
C2377 C 1.03496 0.58014 0.52556 0.0
C2378 C 1.05157 0.61996 0.52751 0.0
C2379 C 1.04815 0.64229 0.51618 0.0
C2380 C 1.02695 0.62465 0.50309 0.0
C2381 C 0.81251 0.5271 0.48339 0.0
C2382 C 0.81586 0.56388 0.48235 0.0
C2383 C 0.84498 0.52223 0.48191 0.0
C2384 C 0.88234 0.55394 0.47947 0.0
C2385 C 0.88577 0.59071 0.47848 0.0
C2386 C 0.85321 0.59555 0.47976 0.0
C2387 C 0.91772 0.54903 0.47844 0.0
C2388 C 0.94896 0.57003 0.48831 0.0
C2389 C 0.92044 0.52281 0.46831 0.0
C2390 C 0.88944 0.50007 0.4572 0.0
C2391 C 0.87722 0.51855 0.44696 0.0
C2392 C 0.84769 0.49686 0.43663 0.0
C2393 C 0.83034 0.45668 0.43636 0.0
C2394 C 0.84256 0.4381 0.44641 0.0
C2395 C 0.87206 0.45966 0.45677 0.0
H2396 H 0.80747 0.43994 0.42836 0.0
H2397 H 0.06671 0.6335 0.53786 0.0
H2398 H 0.29968 0.77305 0.68226 0.0
H2399 H 0.36431 0.83022 0.68131 0.0
H2400 H 0.33759 0.86145 0.63824 0.0
H2401 H 0.27281 0.80436 0.63915 0.0
H2402 H 0.41027 0.87277 0.63766 0.0
H2403 H 0.33961 0.90781 0.67257 0.0
H2404 H 0.3005 0.89926 0.69542 0.0
H2405 H 0.3908 0.90564 0.72349 0.0
H2406 H 0.4303 0.91383 0.7008 0.0
H2407 H 0.56799 0.06306 0.63084 0.0
H2408 H 0.50386 1.00633 0.63342 0.0
H2409 H 0.53082 0.98963 0.67903 0.0
H2410 H 0.59498 0.04727 0.67662 0.0
H2411 H 0.45895 0.96929 0.67925 0.0
H2412 H 0.52913 0.93259 0.6468 0.0
H2413 H 0.5702 0.93681 0.62519 0.0
H2414 H 0.484 0.92825 0.5941 0.0
H2415 H 0.4426 0.92451 0.61555 0.0
C2416 C 0.30746 0.79178 0.67248 0.0
C2417 C 0.28037 0.78336 0.66075 0.0
C2418 C 0.34468 0.82498 0.67201 0.0
C2419 C 0.35649 0.85116 0.65978 0.0
C2420 C 0.32981 0.84228 0.64789 0.0
C2421 C 0.29244 0.80929 0.64841 0.0
C2422 C 0.39631 0.88745 0.65931 0.0
C2423 C 0.42048 0.89408 0.64668 0.0
C2424 C 0.41116 0.91513 0.67128 0.0
C2425 C 0.38773 0.91096 0.68495 0.0
C2426 C 0.35103 0.90714 0.68361 0.0
C2427 C 0.3288 0.90241 0.69653 0.0
C2428 C 0.34308 0.90173 0.7109 0.0
C2429 C 0.37969 0.90598 0.71236 0.0
C2430 C 0.40205 0.91076 0.69947 0.0
C2431 C 0.56047 0.04756 0.64148 0.0
C2432 C 0.58747 0.06023 0.65344 0.0
C2433 C 0.52346 1.01454 0.64293 0.0
C2434 C 0.51187 0.9922 0.65631 0.0
C2435 C 0.53838 1.00552 0.66848 0.0
C2436 C 0.57545 0.03879 0.66706 0.0
C2437 C 0.47268 0.95507 0.65741 0.0
C2438 C 0.44871 0.94816 0.67017 0.0
C2439 C 0.45827 0.92659 0.64573 0.0
C2440 C 0.48292 0.92866 0.63278 0.0
C2441 C 0.51903 0.93187 0.63535 0.0
C2442 C 0.54236 0.93414 0.62313 0.0
C2443 C 0.52975 0.9329 0.60828 0.0
C2444 C 0.49374 0.92927 0.60562 0.0
C2445 C 0.47032 0.92704 0.6178 0.0
H2446 H 0.54785 0.93467 0.59883 0.0
H2447 H 0.32581 0.89804 0.72089 0.0
loop_
_geom_bond_atom_site_label_1
_geom_bond_atom_site_label_2
_geom_bond_distance
_geom_bond_site_symmetry_2
_ccdc_geom_bond_type
O0 Tb1 2.292 . S
O0 C3 1.255 . S
Tb1 O0 2.292 . S
Tb1 O17 2.326 . S
Tb1 O19 2.500 . S
Tb1 O20 2.473 . S
Tb1 O23 2.324 . S
Eu2 O6 2.292 . S
Eu2 C7 2.852 1_556 S
Eu2 O18 2.324 1_556 S
Eu2 O22 2.326 1_556 S
Eu2 O24 2.500 . S
Eu2 O25 2.473 1_556 S
C3 O0 1.255 . S
C3 O4 1.247 . S
O4 C3 1.247 . S
C5 O17 1.242 . S
C5 O18 1.258 . S
O6 Eu2 2.292 . S
O6 C8 1.255 . S
C7 Eu2 2.852 1_554 S
C7 C11 1.503 . S
C7 O24 1.273 1_554 S
C7 O25 1.257 . S
C8 O6 1.255 . S
C8 O9 1.247 . S
O9 C8 1.247 . S
C10 O22 1.242 . S
C10 O23 1.258 . S
C11 C7 1.503 . S
C11 C12 1.379 . S
C11 C16 1.382 1_554 S
C12 C11 1.379 . S
C12 C13 1.404 . S
C12 H26 0.929 . S
C13 C12 1.404 . S
C13 C14 1.389 . S
C14 C13 1.389 . S
C14 C15 1.399 . S
C14 H27 0.931 . S
C15 C14 1.399 . S
C15 C16 1.386 1_554 S
C16 C11 1.382 1_556 S
C16 C15 1.386 1_556 S
C16 H28 0.943 . S
O17 Tb1 2.326 . S
O17 C5 1.242 . S
O18 Eu2 2.324 1_554 S
O18 C5 1.258 . S
O19 Tb1 2.500 . S
O19 C21 1.273 . S
O20 Tb1 2.473 . S
O20 C21 1.257 . S
C21 O19 1.273 . S
C21 O20 1.257 . S
O22 Eu2 2.326 1_554 S
O22 C10 1.242 . S
O23 Tb1 2.324 . S
O23 C10 1.258 . S
O24 Eu2 2.500 . S
O24 C7 1.273 1_556 S
O25 Eu2 2.473 1_554 S
O25 C7 1.257 . S
H26 C12 0.929 . S
H27 C14 0.931 . S
H28 C16 0.943 . S
O29 Tb30 2.292 . S
O29 C32 1.255 . S
Tb30 O29 2.292 . S
Tb30 O46 2.326 . S
Tb30 O48 2.500 . S
Tb30 O49 2.473 . S
Tb30 O52 2.324 . S
Eu31 O35 2.292 . S
Eu31 C36 2.852 . S
Eu31 O47 2.324 . S
Eu31 O51 2.326 . S
Eu31 O53 2.500 . S
Eu31 O54 2.473 . S
C32 O29 1.255 . S
C32 O33 1.247 . S
O33 C32 1.247 . S
C34 O46 1.242 . S
C34 O47 1.258 . S
O35 Eu31 2.292 . S
O35 C37 1.255 . S
C36 Eu31 2.852 . S
C36 C40 1.503 . S
C36 O53 1.273 . S
C36 O54 1.257 . S
C37 O35 1.255 . S
C37 O38 1.247 . S
O38 C37 1.247 . S
C39 O51 1.242 . S
C39 O52 1.258 . S
C40 C36 1.503 . S
C40 C41 1.389 . S
C40 C45 1.392 1_655 S
C41 C40 1.389 . S
C41 C42 1.372 1_655 S
C41 H55 0.952 . S
C42 C41 1.372 1_455 S
C42 C43 1.389 . S
C43 C42 1.389 . S
C43 C44 1.399 . S
C43 H56 0.931 . S
C44 C43 1.399 . S
C44 C45 1.390 . S
C45 C40 1.392 1_455 S
C45 C44 1.390 . S
C45 H57 0.929 . S
O46 Tb30 2.326 . S
O46 C34 1.242 . S
O47 Eu31 2.324 . S
O47 C34 1.258 . S
O48 Tb30 2.500 . S
O48 C50 1.273 . S
O49 Tb30 2.473 . S
O49 C50 1.257 . S
C50 O48 1.273 . S
C50 O49 1.257 . S
O51 Eu31 2.326 . S
O51 C39 1.242 . S
O52 Tb30 2.324 . S
O52 C39 1.258 . S
O53 Eu31 2.500 . S
O53 C36 1.273 . S
O54 Eu31 2.473 . S
O54 C36 1.257 . S
H55 C41 0.952 . S
H56 C43 0.931 . S
H57 C45 0.929 . S
O58 Tb59 2.292 . S
O58 C61 1.255 . S
Tb59 O58 2.292 . S
Tb59 O75 2.326 . S
Tb59 O77 2.500 . S
Tb59 O78 2.473 . S
Tb59 O81 2.324 . S
Eu60 O64 2.292 . S
Eu60 C65 2.852 . S
Eu60 O76 2.324 . S
Eu60 O80 2.326 . S
Eu60 O82 2.500 . S
Eu60 O83 2.473 . S
C61 O58 1.255 . S
C61 O62 1.247 . S
O62 C61 1.247 . S
C63 O75 1.242 . S
C63 O76 1.258 . S
O64 Eu60 2.292 . S
O64 C66 1.255 . S
C65 Eu60 2.852 . S
C65 C69 1.503 . S
C65 O82 1.273 . S
C65 O83 1.257 . S
C66 O64 1.255 . S
C66 O67 1.247 . S
O67 C66 1.247 . S
C68 O80 1.242 . S
C68 O81 1.258 . S
C69 C65 1.503 . S
C69 C70 1.371 . S
C69 C74 1.392 1_565 S
C70 C69 1.371 . S
C70 C71 1.388 1_565 S
C70 H84 0.955 . S
C71 C70 1.388 1_545 S
C71 C72 1.389 . S
C72 C71 1.389 . S
C72 C73 1.399 . S
C72 H85 0.931 . S
C73 C72 1.399 . S
C73 C74 1.390 . S
C74 C69 1.392 1_545 S
C74 C73 1.390 . S
C74 H86 0.929 . S
O75 Tb59 2.326 . S
O75 C63 1.242 . S
O76 Eu60 2.324 . S
O76 C63 1.258 . S
O77 Tb59 2.500 . S
O77 C79 1.273 . S
O78 Tb59 2.473 . S
O78 C79 1.257 . S
C79 O77 1.273 . S
C79 O78 1.257 . S
O80 Eu60 2.326 . S
O80 C68 1.242 . S
O81 Tb59 2.324 . S
O81 C68 1.258 . S
O82 Eu60 2.500 . S
O82 C65 1.273 . S
O83 Eu60 2.473 . S
O83 C65 1.257 . S
H84 C70 0.955 . S
H85 C72 0.931 . S
H86 C74 0.929 . S
O87 Tb88 2.292 . S
O87 C90 1.255 . S
Tb88 O87 2.292 . S
Tb88 O104 2.326 . S
Tb88 O106 2.500 . S
Tb88 O107 2.473 . S
Tb88 O110 2.324 . S
Eu89 O93 2.292 . S
Eu89 C94 2.852 . S
Eu89 O105 2.324 . S
Eu89 O109 2.326 . S
Eu89 O111 2.500 . S
Eu89 O112 2.473 . S
C90 O87 1.255 . S
C90 O91 1.247 . S
O91 C90 1.247 . S
C92 O104 1.242 . S
C92 O105 1.258 . S
O93 Eu89 2.292 . S
O93 C95 1.255 . S
C94 Eu89 2.852 . S
C94 C98 1.503 . S
C94 O111 1.273 . S
C94 O112 1.257 . S
C95 O93 1.255 . S
C95 O96 1.247 . S
O96 C95 1.247 . S
C97 O109 1.242 . S
C97 O110 1.258 . S
C98 C94 1.503 . S
C98 C99 1.379 . S
C98 C103 1.392 . S
C99 C98 1.379 . S
C99 C100 1.404 . S
C99 H113 0.929 . S
C100 C99 1.404 . S
C100 C101 1.389 . S
C101 C100 1.389 . S
C101 C102 1.399 . S
C101 H114 0.931 . S
C102 C101 1.399 . S
C102 C103 1.390 . S
C103 C98 1.392 . S
C103 C102 1.390 . S
C103 H115 0.929 . S
O104 Tb88 2.326 . S
O104 C92 1.242 . S
O105 Eu89 2.324 . S
O105 C92 1.258 . S
O106 Tb88 2.500 . S
O106 C108 1.273 . S
O107 Tb88 2.473 . S
O107 C108 1.257 . S
C108 O106 1.273 . S
C108 O107 1.257 . S
O109 Eu89 2.326 . S
O109 C97 1.242 . S
O110 Tb88 2.324 . S
O110 C97 1.258 . S
O111 Eu89 2.500 . S
O111 C94 1.273 . S
O112 Eu89 2.473 . S
O112 C94 1.257 . S
H113 C99 0.929 . S
H114 C101 0.931 . S
H115 C103 0.929 . S
O116 Tb117 2.292 . S
O116 C119 1.255 . S
Tb117 O116 2.292 . S
Tb117 O133 2.326 . S
Tb117 O135 2.500 . S
Tb117 O136 2.473 . S
Tb117 O139 2.324 . S
Eu118 O122 2.292 . S
Eu118 C123 2.852 . S
Eu118 O134 2.324 . S
Eu118 O138 2.326 . S
Eu118 O140 2.500 . S
Eu118 O141 2.473 . S
C119 O116 1.255 . S
C119 O120 1.247 . S
O120 C119 1.247 . S
C121 O133 1.242 . S
C121 O134 1.258 . S
O122 Eu118 2.292 . S
O122 C124 1.255 . S
C123 Eu118 2.852 . S
C123 C127 1.503 . S
C123 O140 1.273 . S
C123 O141 1.257 . S
C124 O122 1.255 . S
C124 O125 1.247 . S
O125 C124 1.247 . S
C126 O138 1.242 . S
C126 O139 1.258 . S
C127 C123 1.503 . S
C127 C128 1.389 . S
C127 C132 1.392 1_455 S
C128 C127 1.389 . S
C128 C129 1.372 1_455 S
C128 H142 0.952 . S
C129 C128 1.372 1_655 S
C129 C130 1.389 . S
C130 C129 1.389 . S
C130 C131 1.399 . S
C130 H143 0.931 . S
C131 C130 1.399 . S
C131 C132 1.390 . S
C132 C127 1.392 1_655 S
C132 C131 1.390 . S
C132 H144 0.929 . S
O133 Tb117 2.326 . S
O133 C121 1.242 . S
O134 Eu118 2.324 . S
O134 C121 1.258 . S
O135 Tb117 2.500 . S
O135 C137 1.273 . S
O136 Tb117 2.473 . S
O136 C137 1.257 . S
C137 O135 1.273 . S
C137 O136 1.257 . S
O138 Eu118 2.326 . S
O138 C126 1.242 . S
O139 Tb117 2.324 . S
O139 C126 1.258 . S
O140 Eu118 2.500 . S
O140 C123 1.273 . S
O141 Eu118 2.473 . S
O141 C123 1.257 . S
H142 C128 0.952 . S
H143 C130 0.931 . S
H144 C132 0.929 . S
O145 Tb146 2.292 . S
O145 C148 1.255 . S
Tb146 O145 2.292 . S
Tb146 O162 2.326 . S
Tb146 O164 2.500 . S
Tb146 O165 2.473 . S
Tb146 O168 2.324 . S
Eu147 O151 2.292 . S
Eu147 C152 2.852 . S
Eu147 O163 2.324 . S
Eu147 O167 2.326 . S
Eu147 O169 2.500 . S
Eu147 O170 2.473 . S
C148 O145 1.255 . S
C148 O149 1.247 . S
O149 C148 1.247 . S
C150 O162 1.242 . S
C150 O163 1.258 . S
O151 Eu147 2.292 . S
O151 C153 1.255 . S
C152 Eu147 2.852 . S
C152 C156 1.503 . S
C152 O169 1.273 . S
C152 O170 1.257 . S
C153 O151 1.255 . S
C153 O154 1.247 . S
O154 C153 1.247 . S
C155 O167 1.242 . S
C155 O168 1.258 . S
C156 C152 1.503 . S
C156 C157 1.371 . S
C156 C161 1.392 1_545 S
C157 C156 1.371 . S
C157 C158 1.388 1_545 S
C157 H171 0.955 . S
C158 C157 1.388 1_565 S
C158 C159 1.389 . S
C159 C158 1.389 . S
C159 C160 1.399 . S
C159 H172 0.931 . S
C160 C159 1.399 . S
C160 C161 1.390 . S
C161 C156 1.392 1_565 S
C161 C160 1.390 . S
C161 H173 0.929 . S
O162 Tb146 2.326 . S
O162 C150 1.242 . S
O163 Eu147 2.324 . S
O163 C150 1.258 . S
O164 Tb146 2.500 . S
O164 C166 1.273 . S
O165 Tb146 2.473 . S
O165 C166 1.257 . S
C166 O164 1.273 . S
C166 O165 1.257 . S
O167 Eu147 2.326 . S
O167 C155 1.242 . S
O168 Tb146 2.324 . S
O168 C155 1.258 . S
O169 Eu147 2.500 . S
O169 C152 1.273 . S
O170 Eu147 2.473 . S
O170 C152 1.257 . S
H171 C157 0.955 . S
H172 C159 0.931 . S
H173 C161 0.929 . S
O174 Tb175 2.292 . S
O174 C177 1.255 . S
Tb175 O174 2.292 . S
Tb175 O191 2.326 . S
Tb175 O193 2.500 . S
Tb175 O194 2.473 . S
Tb175 O197 2.324 . S
Eu176 O180 2.292 . S
Eu176 C181 2.852 . S
Eu176 O192 2.324 . S
Eu176 O196 2.326 . S
Eu176 O198 2.500 . S
Eu176 O199 2.473 . S
C177 O174 1.255 . S
C177 O178 1.247 . S
O178 C177 1.247 . S
C179 O191 1.242 . S
C179 O192 1.258 . S
O180 Eu176 2.292 . S
O180 C182 1.255 . S
C181 Eu176 2.852 . S
C181 C185 1.503 . S
C181 O198 1.273 . S
C181 O199 1.257 . S
C182 O180 1.255 . S
C182 O183 1.247 . S
O183 C182 1.247 . S
C184 O196 1.242 . S
C184 O197 1.258 . S
C185 C181 1.503 . S
C185 C186 1.379 . S
C185 C190 1.392 . S
C186 C185 1.379 . S
C186 C187 1.404 . S
C186 H200 0.929 . S
C187 C186 1.404 . S
C187 C188 1.389 . S
C188 C187 1.389 . S
C188 C189 1.399 . S
C188 H201 0.931 . S
C189 C188 1.399 . S
C189 C190 1.390 . S
C190 C185 1.392 . S
C190 C189 1.390 . S
C190 H202 0.929 . S
O191 Tb175 2.326 . S
O191 C179 1.242 . S
O192 Eu176 2.324 . S
O192 C179 1.258 . S
O193 Tb175 2.500 . S
O193 C195 1.273 . S
O194 Tb175 2.473 . S
O194 C195 1.257 . S
C195 O193 1.273 . S
C195 O194 1.257 . S
O196 Eu176 2.326 . S
O196 C184 1.242 . S
O197 Tb175 2.324 . S
O197 C184 1.258 . S
O198 Eu176 2.500 . S
O198 C181 1.273 . S
O199 Eu176 2.473 . S
O199 C181 1.257 . S
H200 C186 0.929 . S
H201 C188 0.931 . S
H202 C190 0.929 . S
O203 Tb204 2.292 . S
O203 C206 1.255 . S
Tb204 O203 2.292 . S
Tb204 O220 2.326 . S
Tb204 O222 2.500 . S
Tb204 O223 2.473 . S
Tb204 O226 2.324 . S
Eu205 O209 2.292 . S
Eu205 C210 2.852 1_554 S
Eu205 O221 2.324 1_554 S
Eu205 O225 2.326 1_554 S
Eu205 O227 2.500 . S
Eu205 O228 2.473 1_554 S
C206 O203 1.255 . S
C206 O207 1.247 . S
O207 C206 1.247 . S
C208 O220 1.242 . S
C208 O221 1.258 . S
O209 Eu205 2.292 . S
O209 C211 1.255 . S
C210 Eu205 2.852 1_556 S
C210 C214 1.503 . S
C210 O227 1.273 1_556 S
C210 O228 1.257 . S
C211 O209 1.255 . S
C211 O212 1.247 . S
O212 C211 1.247 . S
C213 O225 1.242 . S
C213 O226 1.258 . S
C214 C210 1.503 . S
C214 C215 1.371 . S
C214 C219 1.403 1_655 S
C215 C214 1.371 . S
C215 C216 1.388 1_655 S
C215 H229 0.955 . S
C216 C215 1.388 1_455 S
C216 C217 1.389 . S
C217 C216 1.389 . S
C217 C218 1.399 . S
C217 H230 0.931 . S
C218 C217 1.399 . S
C218 C219 1.395 . S
C219 C214 1.403 1_455 S
C219 C218 1.395 . S
C219 H231 0.911 1_556 S
O220 Tb204 2.326 . S
O220 C208 1.242 . S
O221 Eu205 2.324 1_556 S
O221 C208 1.258 . S
O222 Tb204 2.500 . S
O222 C224 1.273 . S
O223 Tb204 2.473 . S
O223 C224 1.257 . S
C224 O222 1.273 . S
C224 O223 1.257 . S
O225 Eu205 2.326 1_556 S
O225 C213 1.242 . S
O226 Tb204 2.324 . S
O226 C213 1.258 . S
O227 Eu205 2.500 . S
O227 C210 1.273 1_554 S
O228 Eu205 2.473 1_556 S
O228 C210 1.257 . S
H229 C215 0.955 . S
H230 C217 0.931 . S
H231 C219 0.911 1_554 S
O232 Tb233 2.292 . S
O232 C235 1.255 . S
Tb233 O232 2.292 . S
Tb233 O249 2.326 . S
Tb233 O251 2.500 . S
Tb233 O252 2.473 . S
Tb233 O255 2.324 . S
Eu234 O238 2.292 . S
Eu234 C239 2.852 . S
Eu234 O250 2.324 . S
Eu234 O254 2.326 . S
Eu234 O256 2.500 . S
Eu234 O257 2.473 . S
C235 O232 1.255 . S
C235 O236 1.247 . S
O236 C235 1.247 . S
C237 O249 1.242 . S
C237 O250 1.258 . S
O238 Eu234 2.292 . S
O238 C240 1.255 . S
C239 Eu234 2.852 . S
C239 C243 1.503 . S
C239 O256 1.273 . S
C239 O257 1.257 . S
C240 O238 1.255 . S
C240 O241 1.247 . S
O241 C240 1.247 . S
C242 O254 1.242 . S
C242 O255 1.258 . S
C243 C239 1.503 . S
C243 C244 1.389 . S
C243 C248 1.392 1_565 S
C244 C243 1.389 . S
C244 C245 1.372 1_565 S
C244 H258 0.952 . S
C245 C244 1.372 1_545 S
C245 C246 1.389 . S
C246 C245 1.389 . S
C246 C247 1.399 . S
C246 H259 0.931 . S
C247 C246 1.399 . S
C247 C248 1.390 . S
C248 C243 1.392 1_545 S
C248 C247 1.390 . S
C248 H260 0.929 . S
O249 Tb233 2.326 . S
O249 C237 1.242 . S
O250 Eu234 2.324 . S
O250 C237 1.258 . S
O251 Tb233 2.500 . S
O251 C253 1.273 . S
O252 Tb233 2.473 . S
O252 C253 1.257 . S
C253 O251 1.273 . S
C253 O252 1.257 . S
O254 Eu234 2.326 . S
O254 C242 1.242 . S
O255 Tb233 2.324 . S
O255 C242 1.258 . S
O256 Eu234 2.500 . S
O256 C239 1.273 . S
O257 Eu234 2.473 . S
O257 C239 1.257 . S
H258 C244 0.952 . S
H259 C246 0.931 . S
H260 C248 0.929 . S
O261 Tb262 2.292 . S
O261 C264 1.255 . S
Tb262 O261 2.292 . S
Tb262 O278 2.326 . S
Tb262 O280 2.500 . S
Tb262 O281 2.473 . S
Tb262 O284 2.324 . S
Eu263 O267 2.292 . S
Eu263 C268 2.852 . S
Eu263 O279 2.324 . S
Eu263 O283 2.326 . S
Eu263 O285 2.500 . S
Eu263 O286 2.473 . S
C264 O261 1.255 . S
C264 O265 1.247 . S
O265 C264 1.247 . S
C266 O278 1.242 . S
C266 O279 1.258 . S
O267 Eu263 2.292 . S
O267 C269 1.255 . S
C268 Eu263 2.852 . S
C268 C272 1.503 . S
C268 O285 1.273 . S
C268 O286 1.257 . S
C269 O267 1.255 . S
C269 O270 1.247 . S
O270 C269 1.247 . S
C271 O283 1.242 . S
C271 O284 1.258 . S
C272 C268 1.503 . S
C272 C273 1.379 . S
C272 C277 1.392 . S
C273 C272 1.379 . S
C273 C274 1.404 . S
C273 H287 0.929 . S
C274 C273 1.404 . S
C274 C275 1.389 . S
C275 C274 1.389 . S
C275 C276 1.399 . S
C275 H288 0.931 . S
C276 C275 1.399 . S
C276 C277 1.390 . S
C277 C272 1.392 . S
C277 C276 1.390 . S
C277 H289 0.929 . S
O278 Tb262 2.326 . S
O278 C266 1.242 . S
O279 Eu263 2.324 . S
O279 C266 1.258 . S
O280 Tb262 2.500 . S
O280 C282 1.273 . S
O281 Tb262 2.473 . S
O281 C282 1.257 . S
C282 O280 1.273 . S
C282 O281 1.257 . S
O283 Eu263 2.326 . S
O283 C271 1.242 . S
O284 Tb262 2.324 . S
O284 C271 1.258 . S
O285 Eu263 2.500 . S
O285 C268 1.273 . S
O286 Eu263 2.473 . S
O286 C268 1.257 . S
H287 C273 0.929 . S
H288 C275 0.931 . S
H289 C277 0.929 . S
O290 Tb291 2.292 . S
O290 C293 1.255 . S
Tb291 O290 2.292 . S
Tb291 O307 2.326 . S
Tb291 O309 2.500 . S
Tb291 O310 2.473 . S
Tb291 O313 2.324 . S
Eu292 O296 2.292 . S
Eu292 C297 2.852 . S
Eu292 O308 2.324 . S
Eu292 O312 2.326 . S
Eu292 O314 2.500 . S
Eu292 O315 2.473 . S
C293 O290 1.255 . S
C293 O294 1.247 . S
O294 C293 1.247 . S
C295 O307 1.242 . S
C295 O308 1.258 . S
O296 Eu292 2.292 . S
O296 C298 1.255 . S
C297 Eu292 2.852 . S
C297 C301 1.503 . S
C297 O314 1.273 . S
C297 O315 1.257 . S
C298 O296 1.255 . S
C298 O299 1.247 . S
O299 C298 1.247 . S
C300 O312 1.242 . S
C300 O313 1.258 . S
C301 C297 1.503 . S
C301 C302 1.371 . S
C301 C306 1.392 1_455 S
C302 C301 1.371 . S
C302 C303 1.388 1_455 S
C302 H316 0.955 . S
C303 C302 1.388 1_655 S
C303 C304 1.389 . S
C304 C303 1.389 . S
C304 C305 1.399 . S
C304 H317 0.931 . S
C305 C304 1.399 . S
C305 C306 1.390 . S
C306 C301 1.392 1_655 S
C306 C305 1.390 . S
C306 H318 0.929 . S
O307 Tb291 2.326 . S
O307 C295 1.242 . S
O308 Eu292 2.324 . S
O308 C295 1.258 . S
O309 Tb291 2.500 . S
O309 C311 1.273 . S
O310 Tb291 2.473 . S
O310 C311 1.257 . S
C311 O309 1.273 . S
C311 O310 1.257 . S
O312 Eu292 2.326 . S
O312 C300 1.242 . S
O313 Tb291 2.324 . S
O313 C300 1.258 . S
O314 Eu292 2.500 . S
O314 C297 1.273 . S
O315 Eu292 2.473 . S
O315 C297 1.257 . S
H316 C302 0.955 . S
H317 C304 0.931 . S
H318 C306 0.929 . S
O319 Tb320 2.292 . S
O319 C322 1.255 . S
Tb320 O319 2.292 . S
Tb320 O336 2.326 . S
Tb320 O338 2.500 . S
Tb320 O339 2.473 . S
Tb320 O342 2.324 . S
Eu321 O325 2.292 . S
Eu321 C326 2.852 . S
Eu321 O337 2.324 . S
Eu321 O341 2.326 . S
Eu321 O343 2.500 . S
Eu321 O344 2.473 . S
C322 O319 1.255 . S
C322 O323 1.247 . S
O323 C322 1.247 . S
C324 O336 1.242 . S
C324 O337 1.258 . S
O325 Eu321 2.292 . S
O325 C327 1.255 . S
C326 Eu321 2.852 . S
C326 C330 1.503 . S
C326 O343 1.273 . S
C326 O344 1.257 . S
C327 O325 1.255 . S
C327 O328 1.247 . S
O328 C327 1.247 . S
C329 O341 1.242 . S
C329 O342 1.258 . S
C330 C326 1.503 . S
C330 C331 1.389 . S
C330 C335 1.392 1_545 S
C331 C330 1.389 . S
C331 C332 1.372 1_545 S
C331 H345 0.952 . S
C332 C331 1.372 1_565 S
C332 C333 1.389 . S
C333 C332 1.389 . S
C333 C334 1.399 . S
C333 H346 0.931 . S
C334 C333 1.399 . S
C334 C335 1.390 . S
C335 C330 1.392 1_565 S
C335 C334 1.390 . S
C335 H347 0.929 . S
O336 Tb320 2.326 . S
O336 C324 1.242 . S
O337 Eu321 2.324 . S
O337 C324 1.258 . S
O338 Tb320 2.500 . S
O338 C340 1.273 . S
O339 Tb320 2.473 . S
O339 C340 1.257 . S
C340 O338 1.273 . S
C340 O339 1.257 . S
O341 Eu321 2.326 . S
O341 C329 1.242 . S
O342 Tb320 2.324 . S
O342 C329 1.258 . S
O343 Eu321 2.500 . S
O343 C326 1.273 . S
O344 Eu321 2.473 . S
O344 C326 1.257 . S
H345 C331 0.952 . S
H346 C333 0.931 . S
H347 C335 0.929 . S
H348 C366 0.951 . S
H349 C368 0.951 . S
H350 C370 0.950 . S
H351 C371 0.950 . S
H352 C373 0.950 . S
H353 C376 0.950 . S
H354 C377 0.950 . S
H355 C379 0.950 . S
H356 C380 0.950 . S
H357 C381 0.951 . S
H358 C383 0.951 . S
H359 C385 0.950 . S
H360 C386 0.950 . S
H361 C388 0.950 . S
H362 C391 0.950 . S
H363 C392 0.950 . S
H364 C394 0.950 . S
H365 C395 0.950 . S
C366 H348 0.951 . S
C366 C367 1.366 . S
C366 C368 1.388 . S
C367 C366 1.366 . S
C367 C371 1.385 . S
C368 H349 0.951 . S
C368 C366 1.388 . S
C368 C369 1.366 . S
C369 C368 1.366 . S
C369 C370 1.414 . S
C369 C372 1.499 . S
C370 H350 0.950 . S
C370 C369 1.414 . S
C370 C371 1.374 . S
C371 H351 0.950 . S
C371 C367 1.385 . S
C371 C370 1.374 . S
C372 C369 1.499 . S
C372 C373 1.373 . S
C372 C374 1.389 . S
C373 H352 0.950 . S
C373 C372 1.373 . S
C373 C389 1.377 . S
C374 C372 1.389 . S
C374 C375 1.524 . S
C374 C388 1.377 . S
C375 C374 1.524 . S
C375 C376 1.397 . S
C375 C380 1.363 . S
C376 H353 0.950 . S
C376 C375 1.397 . S
C376 C377 1.334 . S
C377 H354 0.950 . S
C377 C376 1.334 . S
C377 C378 1.287 . S
C378 C377 1.287 . S
C378 C379 1.524 . S
C378 H397 0.913 . S
C379 H355 0.950 . S
C379 C378 1.524 . S
C379 C380 1.415 . S
C380 H356 0.950 . S
C380 C375 1.363 . S
C380 C379 1.415 . S
C381 H357 0.951 . S
C381 C382 1.366 . S
C381 C383 1.388 . S
C382 C381 1.366 . S
C382 C386 1.385 . S
C383 H358 0.951 . S
C383 C381 1.388 . S
C383 C384 1.366 . S
C384 C383 1.366 . S
C384 C385 1.414 . S
C384 C387 1.499 . S
C385 H359 0.950 . S
C385 C384 1.414 . S
C385 C386 1.374 . S
C386 H360 0.950 . S
C386 C382 1.385 . S
C386 C385 1.374 . S
C387 C384 1.499 . S
C387 C388 1.373 . S
C387 C389 1.389 . S
C388 H361 0.950 . S
C388 C374 1.377 . S
C388 C387 1.373 . S
C389 C373 1.377 . S
C389 C387 1.389 . S
C389 C390 1.524 . S
C390 C389 1.524 . S
C390 C391 1.397 . S
C390 C395 1.363 . S
C391 H362 0.950 . S
C391 C390 1.397 . S
C391 C392 1.334 . S
C392 H363 0.950 . S
C392 C391 1.334 . S
C392 C393 1.287 . S
C393 C392 1.287 . S
C393 C394 1.524 . S
C393 H396 0.999 . S
C394 H364 0.950 . S
C394 C393 1.524 . S
C394 C395 1.415 . S
C395 H365 0.950 . S
C395 C390 1.363 . S
C395 C394 1.415 . S
H396 C393 0.999 . S
H397 C378 0.913 . S
H398 C416 0.951 . S
H399 C418 0.951 . S
H400 C420 0.950 . S
H401 C421 0.950 . S
H402 C423 0.950 . S
H403 C426 0.950 . S
H404 C427 0.950 . S
H405 C429 0.950 . S
H406 C430 0.950 . S
H407 C431 0.951 . S
H408 C433 0.951 . S
H409 C435 0.950 . S
H410 C436 0.950 . S
H411 C438 0.950 . S
H412 C441 0.950 . S
H413 C442 0.950 . S
H414 C444 0.950 . S
H415 C445 0.950 . S
C416 H398 0.951 . S
C416 C417 1.366 . S
C416 C418 1.388 . S
C417 C416 1.366 . S
C417 C421 1.385 . S
C418 H399 0.951 . S
C418 C416 1.388 . S
C418 C419 1.366 . S
C419 C418 1.366 . S
C419 C420 1.414 . S
C419 C422 1.499 . S
C420 H400 0.950 . S
C420 C419 1.414 . S
C420 C421 1.374 . S
C421 H401 0.950 . S
C421 C417 1.385 . S
C421 C420 1.374 . S
C422 C419 1.499 . S
C422 C423 1.373 . S
C422 C424 1.389 . S
C423 H402 0.950 . S
C423 C422 1.373 . S
C423 C439 1.377 . S
C424 C422 1.389 . S
C424 C425 1.524 . S
C424 C438 1.377 . S
C425 C424 1.524 . S
C425 C426 1.397 . S
C425 C430 1.363 . S
C426 H403 0.950 . S
C426 C425 1.397 . S
C426 C427 1.334 . S
C427 H404 0.950 . S
C427 C426 1.334 . S
C427 C428 1.287 . S
C428 C427 1.287 . S
C428 C429 1.524 . S
C428 H447 0.913 . S
C429 H405 0.950 . S
C429 C428 1.524 . S
C429 C430 1.415 . S
C430 H406 0.950 . S
C430 C425 1.363 . S
C430 C429 1.415 . S
C431 H407 0.951 . S
C431 C432 1.366 . S
C431 C433 1.388 . S
C432 C431 1.366 . S
C432 C436 1.385 . S
C433 H408 0.951 . S
C433 C431 1.388 . S
C433 C434 1.366 . S
C434 C433 1.366 . S
C434 C435 1.414 . S
C434 C437 1.499 . S
C435 H409 0.950 . S
C435 C434 1.414 . S
C435 C436 1.374 . S
C436 H410 0.950 . S
C436 C432 1.385 . S
C436 C435 1.374 . S
C437 C434 1.499 . S
C437 C438 1.373 . S
C437 C439 1.389 . S
C438 H411 0.950 . S
C438 C424 1.377 . S
C438 C437 1.373 . S
C439 C423 1.377 . S
C439 C437 1.389 . S
C439 C440 1.524 . S
C440 C439 1.524 . S
C440 C441 1.397 . S
C440 C445 1.363 . S
C441 H412 0.950 . S
C441 C440 1.397 . S
C441 C442 1.334 . S
C442 H413 0.950 . S
C442 C441 1.334 . S
C442 C443 1.287 . S
C443 C442 1.287 . S
C443 C444 1.524 . S
C443 H446 0.999 . S
C444 H414 0.950 . S
C444 C443 1.524 . S
C444 C445 1.415 . S
C445 H415 0.950 . S
C445 C440 1.363 . S
C445 C444 1.415 . S
H446 C443 0.999 . S
H447 C428 0.913 . S
H448 C466 0.951 . S
H449 C468 0.951 . S
H450 C470 0.950 . S
H451 C471 0.950 . S
H452 C473 0.950 . S
H453 C476 0.950 . S
H454 C477 0.950 . S
H455 C479 0.950 . S
H456 C480 0.950 . S
H457 C481 0.951 . S
H458 C483 0.951 . S
H459 C485 0.950 . S
H460 C486 0.950 . S
H461 C488 0.950 . S
H462 C491 0.950 . S
H463 C492 0.950 . S
H464 C494 0.950 . S
H465 C495 0.950 . S
C466 H448 0.951 . S
C466 C467 1.366 . S
C466 C468 1.388 . S
C467 C466 1.366 . S
C467 C471 1.385 . S
C468 H449 0.951 . S
C468 C466 1.388 . S
C468 C469 1.366 . S
C469 C468 1.366 . S
C469 C470 1.414 . S
C469 C472 1.499 . S
C470 H450 0.950 . S
C470 C469 1.414 . S
C470 C471 1.374 . S
C471 H451 0.950 . S
C471 C467 1.385 . S
C471 C470 1.374 . S
C472 C469 1.499 . S
C472 C473 1.373 . S
C472 C474 1.389 . S
C473 H452 0.950 . S
C473 C472 1.373 . S
C473 C489 1.377 . S
C474 C472 1.389 . S
C474 C475 1.524 . S
C474 C488 1.377 . S
C475 C474 1.524 . S
C475 C476 1.397 . S
C475 C480 1.363 . S
C476 H453 0.950 . S
C476 C475 1.397 . S
C476 C477 1.334 . S
C477 H454 0.950 . S
C477 C476 1.334 . S
C477 C478 1.287 . S
C478 C477 1.287 . S
C478 C479 1.524 . S
C478 H497 0.913 . S
C479 H455 0.950 . S
C479 C478 1.524 . S
C479 C480 1.415 . S
C480 H456 0.950 . S
C480 C475 1.363 . S
C480 C479 1.415 . S
C481 H457 0.951 . S
C481 C482 1.366 . S
C481 C483 1.388 . S
C482 C481 1.366 . S
C482 C486 1.385 . S
C483 H458 0.951 . S
C483 C481 1.388 . S
C483 C484 1.366 . S
C484 C483 1.366 . S
C484 C485 1.414 . S
C484 C487 1.499 . S
C485 H459 0.950 . S
C485 C484 1.414 . S
C485 C486 1.374 . S
C486 H460 0.950 . S
C486 C482 1.385 . S
C486 C485 1.374 . S
C487 C484 1.499 . S
C487 C488 1.373 . S
C487 C489 1.389 . S
C488 H461 0.950 . S
C488 C474 1.377 . S
C488 C487 1.373 . S
C489 C473 1.377 . S
C489 C487 1.389 . S
C489 C490 1.524 . S
C490 C489 1.524 . S
C490 C491 1.397 . S
C490 C495 1.363 . S
C491 H462 0.950 . S
C491 C490 1.397 . S
C491 C492 1.334 . S
C492 H463 0.950 . S
C492 C491 1.334 . S
C492 C493 1.287 . S
C493 C492 1.287 . S
C493 C494 1.524 . S
C493 H496 0.999 . S
C494 H464 0.950 . S
C494 C493 1.524 . S
C494 C495 1.415 . S
C495 H465 0.950 . S
C495 C490 1.363 . S
C495 C494 1.415 . S
H496 C493 0.999 . S
H497 C478 0.913 . S
H498 C516 0.951 . S
H499 C518 0.951 . S
H500 C520 0.950 . S
H501 C521 0.950 . S
H502 C523 0.950 . S
H503 C526 0.950 . S
H504 C527 0.950 . S
H505 C529 0.950 . S
H506 C530 0.950 . S
H507 C531 0.951 . S
H508 C533 0.951 . S
H509 C535 0.950 . S
H510 C536 0.950 . S
H511 C538 0.950 . S
H512 C541 0.950 . S
H513 C542 0.950 . S
H514 C544 0.950 . S
H515 C545 0.950 . S
C516 H498 0.951 . S
C516 C517 1.366 . S
C516 C518 1.388 . S
C517 C516 1.366 . S
C517 C521 1.385 . S
C518 H499 0.951 . S
C518 C516 1.388 . S
C518 C519 1.366 . S
C519 C518 1.366 . S
C519 C520 1.414 . S
C519 C522 1.499 . S
C520 H500 0.950 . S
C520 C519 1.414 . S
C520 C521 1.374 . S
C521 H501 0.950 . S
C521 C517 1.385 . S
C521 C520 1.374 . S
C522 C519 1.499 . S
C522 C523 1.373 . S
C522 C524 1.389 . S
C523 H502 0.950 . S
C523 C522 1.373 . S
C523 C539 1.377 . S
C524 C522 1.389 . S
C524 C525 1.524 . S
C524 C538 1.377 . S
C525 C524 1.524 . S
C525 C526 1.397 . S
C525 C530 1.363 . S
C526 H503 0.950 . S
C526 C525 1.397 . S
C526 C527 1.334 . S
C527 H504 0.950 . S
C527 C526 1.334 . S
C527 C528 1.287 . S
C528 C527 1.287 . S
C528 C529 1.524 . S
C528 H547 0.913 . S
C529 H505 0.950 . S
C529 C528 1.524 . S
C529 C530 1.415 . S
C530 H506 0.950 . S
C530 C525 1.363 . S
C530 C529 1.415 . S
C531 H507 0.951 . S
C531 C532 1.366 . S
C531 C533 1.388 . S
C532 C531 1.366 . S
C532 C536 1.385 . S
C533 H508 0.951 . S
C533 C531 1.388 . S
C533 C534 1.366 . S
C534 C533 1.366 . S
C534 C535 1.414 . S
C534 C537 1.499 . S
C535 H509 0.950 . S
C535 C534 1.414 . S
C535 C536 1.374 . S
C536 H510 0.950 . S
C536 C532 1.385 . S
C536 C535 1.374 . S
C537 C534 1.499 . S
C537 C538 1.373 . S
C537 C539 1.389 . S
C538 H511 0.950 . S
C538 C524 1.377 . S
C538 C537 1.373 . S
C539 C523 1.377 . S
C539 C537 1.389 . S
C539 C540 1.524 . S
C540 C539 1.524 . S
C540 C541 1.397 . S
C540 C545 1.363 . S
C541 H512 0.950 . S
C541 C540 1.397 . S
C541 C542 1.334 . S
C542 H513 0.950 . S
C542 C541 1.334 . S
C542 C543 1.287 . S
C543 C542 1.287 . S
C543 C544 1.524 . S
C543 H546 0.999 . S
C544 H514 0.950 . S
C544 C543 1.524 . S
C544 C545 1.415 . S
C545 H515 0.950 . S
C545 C540 1.363 . S
C545 C544 1.415 . S
H546 C543 0.999 . S
H547 C528 0.913 . S
H548 C566 0.951 . S
H549 C568 0.951 . S
H550 C570 0.950 . S
H551 C571 0.950 . S
H552 C573 0.950 . S
H553 C576 0.950 . S
H554 C577 0.950 . S
H555 C579 0.950 . S
H556 C580 0.950 . S
H557 C581 0.951 . S
H558 C583 0.951 . S
H559 C585 0.950 . S
H560 C586 0.950 . S
H561 C588 0.950 . S
H562 C591 0.950 . S
H563 C592 0.950 . S
H564 C594 0.950 . S
H565 C595 0.950 . S
C566 H548 0.951 . S
C566 C567 1.366 . S
C566 C568 1.388 . S
C567 C566 1.366 . S
C567 C571 1.385 . S
C568 H549 0.951 . S
C568 C566 1.388 . S
C568 C569 1.366 . S
C569 C568 1.366 . S
C569 C570 1.414 . S
C569 C572 1.499 . S
C570 H550 0.950 . S
C570 C569 1.414 . S
C570 C571 1.374 . S
C571 H551 0.950 . S
C571 C567 1.385 . S
C571 C570 1.374 . S
C572 C569 1.499 . S
C572 C573 1.373 . S
C572 C574 1.389 . S
C573 H552 0.950 . S
C573 C572 1.373 . S
C573 C589 1.377 . S
C574 C572 1.389 . S
C574 C575 1.524 . S
C574 C588 1.377 . S
C575 C574 1.524 . S
C575 C576 1.397 . S
C575 C580 1.363 . S
C576 H553 0.950 . S
C576 C575 1.397 . S
C576 C577 1.334 . S
C577 H554 0.950 . S
C577 C576 1.334 . S
C577 C578 1.287 . S
C578 C577 1.287 . S
C578 C579 1.524 . S
C578 H597 0.913 . S
C579 H555 0.950 . S
C579 C578 1.524 . S
C579 C580 1.415 . S
C580 H556 0.950 . S
C580 C575 1.363 . S
C580 C579 1.415 . S
C581 H557 0.951 . S
C581 C582 1.366 . S
C581 C583 1.388 . S
C582 C581 1.366 . S
C582 C586 1.385 . S
C583 H558 0.951 . S
C583 C581 1.388 . S
C583 C584 1.366 . S
C584 C583 1.366 . S
C584 C585 1.414 . S
C584 C587 1.499 . S
C585 H559 0.950 . S
C585 C584 1.414 . S
C585 C586 1.374 . S
C586 H560 0.950 . S
C586 C582 1.385 . S
C586 C585 1.374 . S
C587 C584 1.499 . S
C587 C588 1.373 . S
C587 C589 1.389 . S
C588 H561 0.950 . S
C588 C574 1.377 . S
C588 C587 1.373 . S
C589 C573 1.377 . S
C589 C587 1.389 . S
C589 C590 1.524 . S
C590 C589 1.524 . S
C590 C591 1.397 . S
C590 C595 1.363 . S
C591 H562 0.950 . S
C591 C590 1.397 . S
C591 C592 1.334 . S
C592 H563 0.950 . S
C592 C591 1.334 . S
C592 C593 1.287 . S
C593 C592 1.287 . S
C593 C594 1.524 . S
C593 H596 0.999 . S
C594 H564 0.950 . S
C594 C593 1.524 . S
C594 C595 1.415 . S
C595 H565 0.950 . S
C595 C590 1.363 . S
C595 C594 1.415 . S
H596 C593 0.999 . S
H597 C578 0.913 . S
H598 C616 0.951 . S
H599 C618 0.951 . S
H600 C620 0.950 . S
H601 C621 0.950 . S
H602 C623 0.950 . S
H603 C626 0.950 . S
H604 C627 0.950 . S
H605 C629 0.950 . S
H606 C630 0.950 . S
H607 C631 0.951 . S
H608 C633 0.951 . S
H609 C635 0.950 . S
H610 C636 0.950 . S
H611 C638 0.950 . S
H612 C641 0.950 . S
H613 C642 0.950 . S
H614 C644 0.950 . S
H615 C645 0.950 . S
C616 H598 0.951 . S
C616 C617 1.366 . S
C616 C618 1.388 . S
C617 C616 1.366 . S
C617 C621 1.385 . S
C618 H599 0.951 . S
C618 C616 1.388 . S
C618 C619 1.366 . S
C619 C618 1.366 . S
C619 C620 1.414 . S
C619 C622 1.499 . S
C620 H600 0.950 . S
C620 C619 1.414 . S
C620 C621 1.374 . S
C621 H601 0.950 . S
C621 C617 1.385 . S
C621 C620 1.374 . S
C622 C619 1.499 . S
C622 C623 1.373 . S
C622 C624 1.389 . S
C623 H602 0.950 . S
C623 C622 1.373 . S
C623 C639 1.377 . S
C624 C622 1.389 . S
C624 C625 1.524 . S
C624 C638 1.377 . S
C625 C624 1.524 . S
C625 C626 1.397 . S
C625 C630 1.363 . S
C626 H603 0.950 . S
C626 C625 1.397 . S
C626 C627 1.334 . S
C627 H604 0.950 . S
C627 C626 1.334 . S
C627 C628 1.287 . S
C628 C627 1.287 . S
C628 C629 1.524 . S
C628 H647 0.913 . S
C629 H605 0.950 . S
C629 C628 1.524 . S
C629 C630 1.415 . S
C630 H606 0.950 . S
C630 C625 1.363 . S
C630 C629 1.415 . S
C631 H607 0.951 . S
C631 C632 1.366 . S
C631 C633 1.388 . S
C632 C631 1.366 . S
C632 C636 1.385 . S
C633 H608 0.951 . S
C633 C631 1.388 . S
C633 C634 1.366 . S
C634 C633 1.366 . S
C634 C635 1.414 . S
C634 C637 1.499 . S
C635 H609 0.950 . S
C635 C634 1.414 . S
C635 C636 1.374 . S
C636 H610 0.950 . S
C636 C632 1.385 . S
C636 C635 1.374 . S
C637 C634 1.499 . S
C637 C638 1.373 . S
C637 C639 1.389 . S
C638 H611 0.950 . S
C638 C624 1.377 . S
C638 C637 1.373 . S
C639 C623 1.377 . S
C639 C637 1.389 . S
C639 C640 1.524 . S
C640 C639 1.524 . S
C640 C641 1.397 . S
C640 C645 1.363 . S
C641 H612 0.950 . S
C641 C640 1.397 . S
C641 C642 1.334 . S
C642 H613 0.950 . S
C642 C641 1.334 . S
C642 C643 1.287 . S
C643 C642 1.287 . S
C643 C644 1.524 . S
C643 H646 0.999 . S
C644 H614 0.950 . S
C644 C643 1.524 . S
C644 C645 1.415 . S
C645 H615 0.950 . S
C645 C640 1.363 . S
C645 C644 1.415 . S
H646 C643 0.999 . S
H647 C628 0.913 . S
H648 C666 0.951 . S
H649 C668 0.951 . S
H650 C670 0.950 . S
H651 C671 0.950 . S
H652 C673 0.950 . S
H653 C676 0.950 . S
H654 C677 0.950 . S
H655 C679 0.950 . S
H656 C680 0.950 . S
H657 C681 0.951 . S
H658 C683 0.951 . S
H659 C685 0.950 . S
H660 C686 0.950 . S
H661 C688 0.950 . S
H662 C691 0.950 . S
H663 C692 0.950 . S
H664 C694 0.950 . S
H665 C695 0.950 . S
C666 H648 0.951 . S
C666 C667 1.366 . S
C666 C668 1.388 . S
C667 C666 1.366 . S
C667 C671 1.385 . S
C668 H649 0.951 . S
C668 C666 1.388 . S
C668 C669 1.366 . S
C669 C668 1.366 . S
C669 C670 1.414 . S
C669 C672 1.499 . S
C670 H650 0.950 . S
C670 C669 1.414 . S
C670 C671 1.374 . S
C671 H651 0.950 . S
C671 C667 1.385 . S
C671 C670 1.374 . S
C672 C669 1.499 . S
C672 C673 1.373 . S
C672 C674 1.389 . S
C673 H652 0.950 . S
C673 C672 1.373 . S
C673 C689 1.377 . S
C674 C672 1.389 . S
C674 C675 1.524 . S
C674 C688 1.377 . S
C675 C674 1.524 . S
C675 C676 1.397 . S
C675 C680 1.363 . S
C676 H653 0.950 . S
C676 C675 1.397 . S
C676 C677 1.334 . S
C677 H654 0.950 . S
C677 C676 1.334 . S
C677 C678 1.287 . S
C678 C677 1.287 . S
C678 C679 1.524 . S
C678 H697 0.913 . S
C679 H655 0.950 . S
C679 C678 1.524 . S
C679 C680 1.415 . S
C680 H656 0.950 . S
C680 C675 1.363 . S
C680 C679 1.415 . S
C681 H657 0.951 . S
C681 C682 1.366 1_556 S
C681 C683 1.388 . S
C682 C681 1.366 1_554 S
C682 C686 1.385 . S
C683 H658 0.951 . S
C683 C681 1.388 . S
C683 C684 1.366 . S
C684 C683 1.366 . S
C684 C685 1.414 . S
C684 C687 1.499 . S
C685 H659 0.950 . S
C685 C684 1.414 . S
C685 C686 1.374 1_556 S
C686 H660 0.950 . S
C686 C682 1.385 . S
C686 C685 1.374 1_554 S
C687 C684 1.499 . S
C687 C688 1.373 . S
C687 C689 1.389 . S
C688 H661 0.950 . S
C688 C674 1.377 . S
C688 C687 1.373 . S
C689 C673 1.377 . S
C689 C687 1.389 . S
C689 C690 1.524 . S
C690 C689 1.524 . S
C690 C691 1.397 . S
C690 C695 1.363 . S
C691 H662 0.950 . S
C691 C690 1.397 . S
C691 C692 1.334 . S
C692 H663 0.950 . S
C692 C691 1.334 . S
C692 C693 1.287 . S
C693 C692 1.287 . S
C693 C694 1.524 . S
C693 H696 0.999 . S
C694 H664 0.950 . S
C694 C693 1.524 . S
C694 C695 1.415 . S
C695 H665 0.950 . S
C695 C690 1.363 . S
C695 C694 1.415 . S
H696 C693 0.999 . S
H697 C678 0.913 . S
H698 C716 0.951 . S
H699 C718 0.951 . S
H700 C720 0.950 . S
H701 C721 0.950 . S
H702 C723 0.950 . S
H703 C726 0.950 . S
H704 C727 0.950 . S
H705 C729 0.950 . S
H706 C730 0.950 . S
H707 C731 0.951 . S
H708 C733 0.951 . S
H709 C735 0.950 . S
H710 C736 0.950 . S
H711 C738 0.950 . S
H712 C741 0.950 . S
H713 C742 0.950 . S
H714 C744 0.950 . S
H715 C745 0.950 . S
C716 H698 0.951 . S
C716 C717 1.366 . S
C716 C718 1.388 . S
C717 C716 1.366 . S
C717 C721 1.385 . S
C718 H699 0.951 . S
C718 C716 1.388 . S
C718 C719 1.366 . S
C719 C718 1.366 . S
C719 C720 1.414 . S
C719 C722 1.499 . S
C720 H700 0.950 . S
C720 C719 1.414 . S
C720 C721 1.374 . S
C721 H701 0.950 . S
C721 C717 1.385 . S
C721 C720 1.374 . S
C722 C719 1.499 . S
C722 C723 1.373 . S
C722 C724 1.389 . S
C723 H702 0.950 . S
C723 C722 1.373 . S
C723 C739 1.377 . S
C724 C722 1.389 . S
C724 C725 1.524 . S
C724 C738 1.377 . S
C725 C724 1.524 . S
C725 C726 1.397 . S
C725 C730 1.363 . S
C726 H703 0.950 . S
C726 C725 1.397 . S
C726 C727 1.334 . S
C727 H704 0.950 . S
C727 C726 1.334 . S
C727 C728 1.287 . S
C728 C727 1.287 . S
C728 C729 1.524 . S
C728 H747 0.913 . S
C729 H705 0.950 . S
C729 C728 1.524 . S
C729 C730 1.415 . S
C730 H706 0.950 . S
C730 C725 1.363 . S
C730 C729 1.415 . S
C731 H707 0.951 . S
C731 C732 1.366 . S
C731 C733 1.388 . S
C732 C731 1.366 . S
C732 C736 1.385 . S
C733 H708 0.951 . S
C733 C731 1.388 . S
C733 C734 1.366 . S
C734 C733 1.366 . S
C734 C735 1.414 . S
C734 C737 1.499 . S
C735 H709 0.950 . S
C735 C734 1.414 . S
C735 C736 1.374 . S
C736 H710 0.950 . S
C736 C732 1.385 . S
C736 C735 1.374 . S
C737 C734 1.499 . S
C737 C738 1.373 . S
C737 C739 1.389 . S
C738 H711 0.950 . S
C738 C724 1.377 . S
C738 C737 1.373 . S
C739 C723 1.377 . S
C739 C737 1.389 . S
C739 C740 1.524 . S
C740 C739 1.524 . S
C740 C741 1.397 . S
C740 C745 1.363 . S
C741 H712 0.950 . S
C741 C740 1.397 . S
C741 C742 1.334 . S
C742 H713 0.950 . S
C742 C741 1.334 . S
C742 C743 1.287 . S
C743 C742 1.287 . S
C743 C744 1.524 . S
C743 H746 0.999 . S
C744 H714 0.950 . S
C744 C743 1.524 . S
C744 C745 1.415 . S
C745 H715 0.950 . S
C745 C740 1.363 . S
C745 C744 1.415 . S
H746 C743 0.999 . S
H747 C728 0.913 . S
H748 C766 0.951 . S
H749 C768 0.951 . S
H750 C770 0.950 . S
H751 C771 0.950 . S
H752 C773 0.950 . S
H753 C776 0.950 . S
H754 C777 0.950 . S
H755 C779 0.950 . S
H756 C780 0.950 . S
H757 C781 0.951 . S
H758 C783 0.951 . S
H759 C785 0.950 . S
H760 C786 0.950 . S
H761 C788 0.950 . S
H762 C791 0.950 . S
H763 C792 0.950 . S
H764 C794 0.950 . S
H765 C795 0.950 . S
C766 H748 0.951 . S
C766 C767 1.366 . S
C766 C768 1.388 . S
C767 C766 1.366 . S
C767 C771 1.385 . S
C768 H749 0.951 . S
C768 C766 1.388 . S
C768 C769 1.366 . S
C769 C768 1.366 . S
C769 C770 1.414 . S
C769 C772 1.499 . S
C770 H750 0.950 . S
C770 C769 1.414 . S
C770 C771 1.374 . S
C771 H751 0.950 . S
C771 C767 1.385 . S
C771 C770 1.374 . S
C772 C769 1.499 . S
C772 C773 1.373 . S
C772 C774 1.389 . S
C773 H752 0.950 . S
C773 C772 1.373 . S
C773 C789 1.377 . S
C774 C772 1.389 . S
C774 C775 1.524 . S
C774 C788 1.377 . S
C775 C774 1.524 . S
C775 C776 1.397 . S
C775 C780 1.363 . S
C776 H753 0.950 . S
C776 C775 1.397 . S
C776 C777 1.334 . S
C777 H754 0.950 . S
C777 C776 1.334 . S
C777 C778 1.287 . S
C778 C777 1.287 . S
C778 C779 1.524 . S
C778 H797 0.913 . S
C779 H755 0.950 . S
C779 C778 1.524 . S
C779 C780 1.415 . S
C780 H756 0.950 . S
C780 C775 1.363 . S
C780 C779 1.415 . S
C781 H757 0.951 . S
C781 C782 1.366 . S
C781 C783 1.388 . S
C782 C781 1.366 . S
C782 C786 1.385 . S
C783 H758 0.951 . S
C783 C781 1.388 . S
C783 C784 1.366 . S
C784 C783 1.366 . S
C784 C785 1.414 . S
C784 C787 1.499 . S
C785 H759 0.950 . S
C785 C784 1.414 . S
C785 C786 1.374 . S
C786 H760 0.950 . S
C786 C782 1.385 . S
C786 C785 1.374 . S
C787 C784 1.499 . S
C787 C788 1.373 . S
C787 C789 1.389 . S
C788 H761 0.950 . S
C788 C774 1.377 . S
C788 C787 1.373 . S
C789 C773 1.377 . S
C789 C787 1.389 . S
C789 C790 1.524 . S
C790 C789 1.524 . S
C790 C791 1.397 . S
C790 C795 1.363 . S
C791 H762 0.950 . S
C791 C790 1.397 . S
C791 C792 1.334 . S
C792 H763 0.950 . S
C792 C791 1.334 . S
C792 C793 1.287 . S
C793 C792 1.287 . S
C793 C794 1.524 . S
C793 H796 0.999 . S
C794 H764 0.950 . S
C794 C793 1.524 . S
C794 C795 1.415 . S
C795 H765 0.950 . S
C795 C790 1.363 . S
C795 C794 1.415 . S
H796 C793 0.999 . S
H797 C778 0.913 . S
H798 C816 0.951 . S
H799 C818 0.951 . S
H800 C820 0.950 . S
H801 C821 0.950 . S
H802 C823 0.950 . S
H803 C826 0.950 . S
H804 C827 0.950 . S
H805 C829 0.950 . S
H806 C830 0.950 . S
H807 C831 0.951 . S
H808 C833 0.951 . S
H809 C835 0.950 . S
H810 C836 0.950 . S
H811 C838 0.950 . S
H812 C841 0.950 . S
H813 C842 0.950 . S
H814 C844 0.950 . S
H815 C845 0.950 . S
C816 H798 0.951 . S
C816 C817 1.366 . S
C816 C818 1.388 . S
C817 C816 1.366 . S
C817 C821 1.385 . S
C818 H799 0.951 . S
C818 C816 1.388 . S
C818 C819 1.366 . S
C819 C818 1.366 . S
C819 C820 1.414 . S
C819 C822 1.499 . S
C820 H800 0.950 . S
C820 C819 1.414 . S
C820 C821 1.374 . S
C821 H801 0.950 . S
C821 C817 1.385 . S
C821 C820 1.374 . S
C822 C819 1.499 . S
C822 C823 1.373 . S
C822 C824 1.389 . S
C823 H802 0.950 . S
C823 C822 1.373 . S
C823 C839 1.377 . S
C824 C822 1.389 . S
C824 C825 1.524 . S
C824 C838 1.377 . S
C825 C824 1.524 . S
C825 C826 1.397 . S
C825 C830 1.363 . S
C826 H803 0.950 . S
C826 C825 1.397 . S
C826 C827 1.334 . S
C827 H804 0.950 . S
C827 C826 1.334 . S
C827 C828 1.287 . S
C828 C827 1.287 . S
C828 C829 1.524 . S
C828 H847 0.913 . S
C829 H805 0.950 . S
C829 C828 1.524 . S
C829 C830 1.415 . S
C830 H806 0.950 . S
C830 C825 1.363 . S
C830 C829 1.415 . S
C831 H807 0.951 . S
C831 C832 1.366 . S
C831 C833 1.388 . S
C832 C831 1.366 . S
C832 C836 1.385 . S
C833 H808 0.951 . S
C833 C831 1.388 . S
C833 C834 1.366 . S
C834 C833 1.366 . S
C834 C835 1.414 . S
C834 C837 1.499 . S
C835 H809 0.950 . S
C835 C834 1.414 . S
C835 C836 1.374 . S
C836 H810 0.950 . S
C836 C832 1.385 . S
C836 C835 1.374 . S
C837 C834 1.499 . S
C837 C838 1.373 . S
C837 C839 1.389 . S
C838 H811 0.950 . S
C838 C824 1.377 . S
C838 C837 1.373 . S
C839 C823 1.377 . S
C839 C837 1.389 . S
C839 C840 1.524 . S
C840 C839 1.524 . S
C840 C841 1.397 . S
C840 C845 1.363 . S
C841 H812 0.950 . S
C841 C840 1.397 . S
C841 C842 1.334 . S
C842 H813 0.950 . S
C842 C841 1.334 . S
C842 C843 1.287 . S
C843 C842 1.287 . S
C843 C844 1.524 . S
C843 H846 0.999 . S
C844 H814 0.950 . S
C844 C843 1.524 . S
C844 C845 1.415 . S
C845 H815 0.950 . S
C845 C840 1.363 . S
C845 C844 1.415 . S
H846 C843 0.999 . S
H847 C828 0.913 . S
H848 C866 0.951 . S
H849 C868 0.951 . S
H850 C870 0.950 . S
H851 C871 0.950 . S
H852 C873 0.950 . S
H853 C876 0.950 . S
H854 C877 0.950 . S
H855 C879 0.950 . S
H856 C880 0.950 . S
H857 C881 0.951 . S
H858 C883 0.951 . S
H859 C885 0.950 . S
H860 C886 0.950 . S
H861 C888 0.950 . S
H862 C891 0.950 . S
H863 C892 0.950 . S
H864 C894 0.950 . S
H865 C895 0.950 . S
C866 H848 0.951 . S
C866 C867 1.366 . S
C866 C868 1.388 . S
C867 C866 1.366 . S
C867 C871 1.385 . S
C868 H849 0.951 . S
C868 C866 1.388 . S
C868 C869 1.366 . S
C869 C868 1.366 . S
C869 C870 1.414 . S
C869 C872 1.499 . S
C870 H850 0.950 . S
C870 C869 1.414 . S
C870 C871 1.374 . S
C871 H851 0.950 . S
C871 C867 1.385 . S
C871 C870 1.374 . S
C872 C869 1.499 . S
C872 C873 1.373 . S
C872 C874 1.389 . S
C873 H852 0.950 . S
C873 C872 1.373 . S
C873 C889 1.377 . S
C874 C872 1.389 . S
C874 C875 1.524 . S
C874 C888 1.377 . S
C875 C874 1.524 . S
C875 C876 1.397 . S
C875 C880 1.363 . S
C876 H853 0.950 . S
C876 C875 1.397 . S
C876 C877 1.334 . S
C877 H854 0.950 . S
C877 C876 1.334 . S
C877 C878 1.287 . S
C878 C877 1.287 . S
C878 C879 1.524 . S
C878 H897 0.913 . S
C879 H855 0.950 . S
C879 C878 1.524 . S
C879 C880 1.415 . S
C880 H856 0.950 . S
C880 C875 1.363 . S
C880 C879 1.415 . S
C881 H857 0.951 . S
C881 C882 1.366 . S
C881 C883 1.388 . S
C882 C881 1.366 . S
C882 C886 1.385 . S
C883 H858 0.951 . S
C883 C881 1.388 . S
C883 C884 1.366 . S
C884 C883 1.366 . S
C884 C885 1.414 . S
C884 C887 1.499 . S
C885 H859 0.950 . S
C885 C884 1.414 . S
C885 C886 1.374 . S
C886 H860 0.950 . S
C886 C882 1.385 . S
C886 C885 1.374 . S
C887 C884 1.499 . S
C887 C888 1.373 . S
C887 C889 1.389 . S
C888 H861 0.950 . S
C888 C874 1.377 . S
C888 C887 1.373 . S
C889 C873 1.377 . S
C889 C887 1.389 . S
C889 C890 1.524 . S
C890 C889 1.524 . S
C890 C891 1.397 . S
C890 C895 1.363 . S
C891 H862 0.950 . S
C891 C890 1.397 . S
C891 C892 1.334 . S
C892 H863 0.950 . S
C892 C891 1.334 . S
C892 C893 1.287 . S
C893 C892 1.287 . S
C893 C894 1.524 . S
C893 H896 0.999 . S
C894 H864 0.950 . S
C894 C893 1.524 . S
C894 C895 1.415 . S
C895 H865 0.950 . S
C895 C890 1.363 . S
C895 C894 1.415 . S
H896 C893 0.999 . S
H897 C878 0.913 . S
H898 C916 0.951 . S
H899 C918 0.951 . S
H900 C920 0.950 . S
H901 C921 0.950 . S
H902 C923 0.950 . S
H903 C926 0.950 . S
H904 C927 0.950 . S
H905 C929 0.950 . S
H906 C930 0.950 . S
H907 C931 0.951 . S
H908 C933 0.951 . S
H909 C935 0.950 . S
H910 C936 0.950 . S
H911 C938 0.950 . S
H912 C941 0.950 . S
H913 C942 0.950 . S
H914 C944 0.950 . S
H915 C945 0.950 . S
C916 H898 0.951 . S
C916 C917 1.366 . S
C916 C918 1.388 . S
C917 C916 1.366 . S
C917 C921 1.385 . S
C918 H899 0.951 . S
C918 C916 1.388 . S
C918 C919 1.366 . S
C919 C918 1.366 . S
C919 C920 1.414 . S
C919 C922 1.499 . S
C920 H900 0.950 . S
C920 C919 1.414 . S
C920 C921 1.374 . S
C921 H901 0.950 . S
C921 C917 1.385 . S
C921 C920 1.374 . S
C922 C919 1.499 . S
C922 C923 1.373 . S
C922 C924 1.389 . S
C923 H902 0.950 . S
C923 C922 1.373 . S
C923 C939 1.377 . S
C924 C922 1.389 . S
C924 C925 1.524 . S
C924 C938 1.377 . S
C925 C924 1.524 . S
C925 C926 1.397 . S
C925 C930 1.363 . S
C926 H903 0.950 . S
C926 C925 1.397 . S
C926 C927 1.334 . S
C927 H904 0.950 . S
C927 C926 1.334 . S
C927 C928 1.287 . S
C928 C927 1.287 . S
C928 C929 1.524 . S
C928 H947 0.913 . S
C929 H905 0.950 . S
C929 C928 1.524 . S
C929 C930 1.415 . S
C930 H906 0.950 . S
C930 C925 1.363 . S
C930 C929 1.415 . S
C931 H907 0.951 . S
C931 C932 1.366 . S
C931 C933 1.388 . S
C932 C931 1.366 . S
C932 C936 1.385 . S
C933 H908 0.951 . S
C933 C931 1.388 . S
C933 C934 1.366 . S
C934 C933 1.366 . S
C934 C935 1.414 . S
C934 C937 1.499 . S
C935 H909 0.950 . S
C935 C934 1.414 . S
C935 C936 1.374 . S
C936 H910 0.950 . S
C936 C932 1.385 . S
C936 C935 1.374 . S
C937 C934 1.499 . S
C937 C938 1.373 . S
C937 C939 1.389 . S
C938 H911 0.950 . S
C938 C924 1.377 . S
C938 C937 1.373 . S
C939 C923 1.377 . S
C939 C937 1.389 . S
C939 C940 1.524 . S
C940 C939 1.524 . S
C940 C941 1.397 . S
C940 C945 1.363 . S
C941 H912 0.950 . S
C941 C940 1.397 . S
C941 C942 1.334 . S
C942 H913 0.950 . S
C942 C941 1.334 . S
C942 C943 1.287 . S
C943 C942 1.287 . S
C943 C944 1.524 . S
C943 H946 0.999 . S
C944 H914 0.950 . S
C944 C943 1.524 . S
C944 C945 1.415 . S
C945 H915 0.950 . S
C945 C940 1.363 . S
C945 C944 1.415 . S
H946 C943 0.999 . S
H947 C928 0.913 . S
H948 C966 0.951 . S
H949 C968 0.951 . S
H950 C970 0.950 . S
H951 C971 0.950 . S
H952 C973 0.950 . S
H953 C976 0.950 . S
H954 C977 0.950 . S
H955 C979 0.950 . S
H956 C980 0.950 . S
H957 C981 0.951 . S
H958 C983 0.951 . S
H959 C985 0.950 . S
H960 C986 0.950 . S
H961 C988 0.950 . S
H962 C991 0.950 . S
H963 C992 0.950 . S
H964 C994 0.950 . S
H965 C995 0.950 . S
C966 H948 0.951 . S
C966 C967 1.366 . S
C966 C968 1.388 . S
C967 C966 1.366 . S
C967 C971 1.385 . S
C968 H949 0.951 . S
C968 C966 1.388 . S
C968 C969 1.366 . S
C969 C968 1.366 . S
C969 C970 1.414 . S
C969 C972 1.499 . S
C970 H950 0.950 . S
C970 C969 1.414 . S
C970 C971 1.374 . S
C971 H951 0.950 . S
C971 C967 1.385 . S
C971 C970 1.374 . S
C972 C969 1.499 . S
C972 C973 1.373 . S
C972 C974 1.389 . S
C973 H952 0.950 . S
C973 C972 1.373 . S
C973 C989 1.377 . S
C974 C972 1.389 . S
C974 C975 1.524 . S
C974 C988 1.377 . S
C975 C974 1.524 . S
C975 C976 1.397 . S
C975 C980 1.363 . S
C976 H953 0.950 . S
C976 C975 1.397 . S
C976 C977 1.334 . S
C977 H954 0.950 . S
C977 C976 1.334 . S
C977 C978 1.287 . S
C978 C977 1.287 . S
C978 C979 1.524 . S
C978 H997 0.913 . S
C979 H955 0.950 . S
C979 C978 1.524 . S
C979 C980 1.415 . S
C980 H956 0.950 . S
C980 C975 1.363 . S
C980 C979 1.415 . S
C981 H957 0.951 . S
C981 C982 1.366 . S
C981 C983 1.388 . S
C982 C981 1.366 . S
C982 C986 1.385 . S
C983 H958 0.951 . S
C983 C981 1.388 . S
C983 C984 1.366 . S
C984 C983 1.366 . S
C984 C985 1.414 . S
C984 C987 1.499 . S
C985 H959 0.950 . S
C985 C984 1.414 . S
C985 C986 1.374 . S
C986 H960 0.950 . S
C986 C982 1.385 . S
C986 C985 1.374 . S
C987 C984 1.499 . S
C987 C988 1.373 . S
C987 C989 1.389 . S
C988 H961 0.950 . S
C988 C974 1.377 . S
C988 C987 1.373 . S
C989 C973 1.377 . S
C989 C987 1.389 . S
C989 C990 1.524 . S
C990 C989 1.524 . S
C990 C991 1.397 . S
C990 C995 1.363 . S
C991 H962 0.950 . S
C991 C990 1.397 . S
C991 C992 1.334 . S
C992 H963 0.950 . S
C992 C991 1.334 . S
C992 C993 1.287 . S
C993 C992 1.287 . S
C993 C994 1.524 . S
C993 H996 0.999 . S
C994 H964 0.950 . S
C994 C993 1.524 . S
C994 C995 1.415 . S
C995 H965 0.950 . S
C995 C990 1.363 . S
C995 C994 1.415 . S
H996 C993 0.999 . S
H997 C978 0.913 . S
H998 C1016 0.951 . S
H999 C1018 0.951 . S
H1000 C1020 0.950 . S
H1001 C1021 0.950 . S
H1002 C1023 0.950 . S
H1003 C1026 0.950 . S
H1004 C1027 0.950 . S
H1005 C1029 0.950 . S
H1006 C1030 0.950 . S
H1007 C1031 0.951 . S
H1008 C1033 0.951 . S
H1009 C1035 0.950 . S
H1010 C1036 0.950 . S
H1011 C1038 0.950 . S
H1012 C1041 0.950 . S
H1013 C1042 0.950 . S
H1014 C1044 0.950 . S
H1015 C1045 0.950 . S
C1016 H998 0.951 . S
C1016 C1017 1.366 . S
C1016 C1018 1.388 . S
C1017 C1016 1.366 . S
C1017 C1021 1.385 . S
C1018 H999 0.951 . S
C1018 C1016 1.388 . S
C1018 C1019 1.366 . S
C1019 C1018 1.366 . S
C1019 C1020 1.414 . S
C1019 C1022 1.499 . S
C1020 H1000 0.950 . S
C1020 C1019 1.414 . S
C1020 C1021 1.374 . S
C1021 H1001 0.950 . S
C1021 C1017 1.385 . S
C1021 C1020 1.374 . S
C1022 C1019 1.499 . S
C1022 C1023 1.373 . S
C1022 C1024 1.389 . S
C1023 H1002 0.950 . S
C1023 C1022 1.373 . S
C1023 C1039 1.377 . S
C1024 C1022 1.389 . S
C1024 C1025 1.524 . S
C1024 C1038 1.377 . S
C1025 C1024 1.524 . S
C1025 C1026 1.397 . S
C1025 C1030 1.363 . S
C1026 H1003 0.950 . S
C1026 C1025 1.397 . S
C1026 C1027 1.334 . S
C1027 H1004 0.950 . S
C1027 C1026 1.334 . S
C1027 C1028 1.287 . S
C1028 C1027 1.287 . S
C1028 C1029 1.524 . S
C1028 H1047 0.913 . S
C1029 H1005 0.950 . S
C1029 C1028 1.524 . S
C1029 C1030 1.415 . S
C1030 H1006 0.950 . S
C1030 C1025 1.363 . S
C1030 C1029 1.415 . S
C1031 H1007 0.951 . S
C1031 C1032 1.366 . S
C1031 C1033 1.388 1_556 S
C1032 C1031 1.366 . S
C1032 C1036 1.385 1_556 S
C1033 H1008 0.951 . S
C1033 C1031 1.388 1_554 S
C1033 C1034 1.366 . S
C1034 C1033 1.366 . S
C1034 C1035 1.414 . S
C1034 C1037 1.499 . S
C1035 H1009 0.950 . S
C1035 C1034 1.414 . S
C1035 C1036 1.374 . S
C1036 H1010 0.950 . S
C1036 C1032 1.385 1_554 S
C1036 C1035 1.374 . S
C1037 C1034 1.499 . S
C1037 C1038 1.373 . S
C1037 C1039 1.389 . S
C1038 H1011 0.950 . S
C1038 C1024 1.377 . S
C1038 C1037 1.373 . S
C1039 C1023 1.377 . S
C1039 C1037 1.389 . S
C1039 C1040 1.524 . S
C1040 C1039 1.524 . S
C1040 C1041 1.397 . S
C1040 C1045 1.363 . S
C1041 H1012 0.950 . S
C1041 C1040 1.397 . S
C1041 C1042 1.334 1_554 S
C1042 H1013 0.950 . S
C1042 C1041 1.334 1_556 S
C1042 C1043 1.287 . S
C1043 C1042 1.287 . S
C1043 C1044 1.524 . S
C1043 H1046 0.999 . S
C1044 H1014 0.950 . S
C1044 C1043 1.524 . S
C1044 C1045 1.415 1_556 S
C1045 H1015 0.950 . S
C1045 C1040 1.363 . S
C1045 C1044 1.415 1_554 S
H1046 C1043 0.999 . S
H1047 C1028 0.913 . S
H1048 C1066 0.951 . S
H1049 C1068 0.951 . S
H1050 C1070 0.950 . S
H1051 C1071 0.950 . S
H1052 C1073 0.950 . S
H1053 C1076 0.950 . S
H1054 C1077 0.950 . S
H1055 C1079 0.950 . S
H1056 C1080 0.950 . S
H1057 C1081 0.951 . S
H1058 C1083 0.951 . S
H1059 C1085 0.950 . S
H1060 C1086 0.950 . S
H1061 C1088 0.950 . S
H1062 C1091 0.950 . S
H1063 C1092 0.950 . S
H1064 C1094 0.950 . S
H1065 C1095 0.950 . S
C1066 H1048 0.951 . S
C1066 C1067 1.366 . S
C1066 C1068 1.388 . S
C1067 C1066 1.366 . S
C1067 C1071 1.385 . S
C1068 H1049 0.951 . S
C1068 C1066 1.388 . S
C1068 C1069 1.366 . S
C1069 C1068 1.366 . S
C1069 C1070 1.414 . S
C1069 C1072 1.499 . S
C1070 H1050 0.950 . S
C1070 C1069 1.414 . S
C1070 C1071 1.374 . S
C1071 H1051 0.950 . S
C1071 C1067 1.385 . S
C1071 C1070 1.374 . S
C1072 C1069 1.499 . S
C1072 C1073 1.373 . S
C1072 C1074 1.389 . S
C1073 H1052 0.950 . S
C1073 C1072 1.373 . S
C1073 C1089 1.377 . S
C1074 C1072 1.389 . S
C1074 C1075 1.524 . S
C1074 C1088 1.377 . S
C1075 C1074 1.524 . S
C1075 C1076 1.397 . S
C1075 C1080 1.363 . S
C1076 H1053 0.950 . S
C1076 C1075 1.397 . S
C1076 C1077 1.334 . S
C1077 H1054 0.950 . S
C1077 C1076 1.334 . S
C1077 C1078 1.287 . S
C1078 C1077 1.287 . S
C1078 C1079 1.524 . S
C1078 H1097 0.913 . S
C1079 H1055 0.950 . S
C1079 C1078 1.524 . S
C1079 C1080 1.415 . S
C1080 H1056 0.950 . S
C1080 C1075 1.363 . S
C1080 C1079 1.415 . S
C1081 H1057 0.951 . S
C1081 C1082 1.366 . S
C1081 C1083 1.388 . S
C1082 C1081 1.366 . S
C1082 C1086 1.385 . S
C1083 H1058 0.951 . S
C1083 C1081 1.388 . S
C1083 C1084 1.366 . S
C1084 C1083 1.366 . S
C1084 C1085 1.414 . S
C1084 C1087 1.499 . S
C1085 H1059 0.950 . S
C1085 C1084 1.414 . S
C1085 C1086 1.374 . S
C1086 H1060 0.950 . S
C1086 C1082 1.385 . S
C1086 C1085 1.374 . S
C1087 C1084 1.499 . S
C1087 C1088 1.373 . S
C1087 C1089 1.389 . S
C1088 H1061 0.950 . S
C1088 C1074 1.377 . S
C1088 C1087 1.373 . S
C1089 C1073 1.377 . S
C1089 C1087 1.389 . S
C1089 C1090 1.524 . S
C1090 C1089 1.524 . S
C1090 C1091 1.397 . S
C1090 C1095 1.363 . S
C1091 H1062 0.950 . S
C1091 C1090 1.397 . S
C1091 C1092 1.334 . S
C1092 H1063 0.950 . S
C1092 C1091 1.334 . S
C1092 C1093 1.287 . S
C1093 C1092 1.287 . S
C1093 C1094 1.524 . S
C1093 H1096 0.982 1_545 S
C1094 H1064 0.950 . S
C1094 C1093 1.524 . S
C1094 C1095 1.415 . S
C1095 H1065 0.950 . S
C1095 C1090 1.363 . S
C1095 C1094 1.415 . S
H1096 C1093 0.982 1_565 S
H1097 C1078 0.913 . S
H1098 C1116 0.951 . S
H1099 C1118 0.951 . S
H1100 C1120 0.950 . S
H1101 C1121 0.950 . S
H1102 C1123 0.950 . S
H1103 C1126 0.950 . S
H1104 C1127 0.950 . S
H1105 C1129 0.950 . S
H1106 C1130 0.950 . S
H1107 C1131 0.951 . S
H1108 C1133 0.951 . S
H1109 C1135 0.950 . S
H1110 C1136 0.950 . S
H1111 C1138 0.950 . S
H1112 C1141 0.950 . S
H1113 C1142 0.950 . S
H1114 C1144 0.950 . S
H1115 C1145 0.950 . S
C1116 H1098 0.951 . S
C1116 C1117 1.366 . S
C1116 C1118 1.388 . S
C1117 C1116 1.366 . S
C1117 C1121 1.385 . S
C1118 H1099 0.951 . S
C1118 C1116 1.388 . S
C1118 C1119 1.366 . S
C1119 C1118 1.366 . S
C1119 C1120 1.414 . S
C1119 C1122 1.499 . S
C1120 H1100 0.950 . S
C1120 C1119 1.414 . S
C1120 C1121 1.374 . S
C1121 H1101 0.950 . S
C1121 C1117 1.385 . S
C1121 C1120 1.374 . S
C1122 C1119 1.499 . S
C1122 C1123 1.373 . S
C1122 C1124 1.389 . S
C1123 H1102 0.950 . S
C1123 C1122 1.373 . S
C1123 C1139 1.377 . S
C1124 C1122 1.389 . S
C1124 C1125 1.524 . S
C1124 C1138 1.377 . S
C1125 C1124 1.524 . S
C1125 C1126 1.397 . S
C1125 C1130 1.363 . S
C1126 H1103 0.950 . S
C1126 C1125 1.397 . S
C1126 C1127 1.334 . S
C1127 H1104 0.950 . S
C1127 C1126 1.334 . S
C1127 C1128 1.287 . S
C1128 C1127 1.287 . S
C1128 C1129 1.524 . S
C1128 H1147 0.913 . S
C1129 H1105 0.950 . S
C1129 C1128 1.524 . S
C1129 C1130 1.415 . S
C1130 H1106 0.950 . S
C1130 C1125 1.363 . S
C1130 C1129 1.415 . S
C1131 H1107 0.951 . S
C1131 C1132 1.366 . S
C1131 C1133 1.388 . S
C1132 C1131 1.366 . S
C1132 C1136 1.385 . S
C1133 H1108 0.951 . S
C1133 C1131 1.388 . S
C1133 C1134 1.366 . S
C1134 C1133 1.366 . S
C1134 C1135 1.414 . S
C1134 C1137 1.499 . S
C1135 H1109 0.950 . S
C1135 C1134 1.414 . S
C1135 C1136 1.374 . S
C1136 H1110 0.950 . S
C1136 C1132 1.385 . S
C1136 C1135 1.374 . S
C1137 C1134 1.499 . S
C1137 C1138 1.373 . S
C1137 C1139 1.389 . S
C1138 H1111 0.950 . S
C1138 C1124 1.377 . S
C1138 C1137 1.373 . S
C1139 C1123 1.377 . S
C1139 C1137 1.389 . S
C1139 C1140 1.524 . S
C1140 C1139 1.524 . S
C1140 C1141 1.397 . S
C1140 C1145 1.363 . S
C1141 H1112 0.950 . S
C1141 C1140 1.397 . S
C1141 C1142 1.334 . S
C1142 H1113 0.950 . S
C1142 C1141 1.334 . S
C1142 C1143 1.287 . S
C1143 C1142 1.287 . S
C1143 C1144 1.524 . S
C1143 H1146 0.999 . S
C1144 H1114 0.950 . S
C1144 C1143 1.524 . S
C1144 C1145 1.415 . S
C1145 H1115 0.950 . S
C1145 C1140 1.363 . S
C1145 C1144 1.415 . S
H1146 C1143 0.999 . S
H1147 C1128 0.913 . S
H1148 C1166 0.951 . S
H1149 C1168 0.951 . S
H1150 C1170 0.950 . S
H1151 C1171 0.950 . S
H1152 C1173 0.950 . S
H1153 C1176 0.950 . S
H1154 C1177 0.950 . S
H1155 C1179 0.950 . S
H1156 C1180 0.950 . S
H1157 C1181 0.951 . S
H1158 C1183 0.951 . S
H1159 C1185 0.950 . S
H1160 C1186 0.950 . S
H1161 C1188 0.950 . S
H1162 C1191 0.950 . S
H1163 C1192 0.950 . S
H1164 C1194 0.950 . S
H1165 C1195 0.950 . S
C1166 H1148 0.951 . S
C1166 C1167 1.366 . S
C1166 C1168 1.388 . S
C1167 C1166 1.366 . S
C1167 C1171 1.385 . S
C1168 H1149 0.951 . S
C1168 C1166 1.388 . S
C1168 C1169 1.366 . S
C1169 C1168 1.366 . S
C1169 C1170 1.414 . S
C1169 C1172 1.499 . S
C1170 H1150 0.950 . S
C1170 C1169 1.414 . S
C1170 C1171 1.374 . S
C1171 H1151 0.950 . S
C1171 C1167 1.385 . S
C1171 C1170 1.374 . S
C1172 C1169 1.499 . S
C1172 C1173 1.373 . S
C1172 C1174 1.389 . S
C1173 H1152 0.950 . S
C1173 C1172 1.373 . S
C1173 C1189 1.377 . S
C1174 C1172 1.389 . S
C1174 C1175 1.524 . S
C1174 C1188 1.377 . S
C1175 C1174 1.524 . S
C1175 C1176 1.397 . S
C1175 C1180 1.363 . S
C1176 H1153 0.950 . S
C1176 C1175 1.397 . S
C1176 C1177 1.334 . S
C1177 H1154 0.950 . S
C1177 C1176 1.334 . S
C1177 C1178 1.287 . S
C1178 C1177 1.287 . S
C1178 C1179 1.524 . S
C1178 H1197 0.913 . S
C1179 H1155 0.950 . S
C1179 C1178 1.524 . S
C1179 C1180 1.415 . S
C1180 H1156 0.950 . S
C1180 C1175 1.363 . S
C1180 C1179 1.415 . S
C1181 H1157 0.951 . S
C1181 C1182 1.366 . S
C1181 C1183 1.388 . S
C1182 C1181 1.366 . S
C1182 C1186 1.385 . S
C1183 H1158 0.951 . S
C1183 C1181 1.388 . S
C1183 C1184 1.366 . S
C1184 C1183 1.366 . S
C1184 C1185 1.414 . S
C1184 C1187 1.499 . S
C1185 H1159 0.950 . S
C1185 C1184 1.414 . S
C1185 C1186 1.374 . S
C1186 H1160 0.950 . S
C1186 C1182 1.385 . S
C1186 C1185 1.374 . S
C1187 C1184 1.499 . S
C1187 C1188 1.373 . S
C1187 C1189 1.389 . S
C1188 H1161 0.950 . S
C1188 C1174 1.377 . S
C1188 C1187 1.373 . S
C1189 C1173 1.377 . S
C1189 C1187 1.389 . S
C1189 C1190 1.524 . S
C1190 C1189 1.524 . S
C1190 C1191 1.397 . S
C1190 C1195 1.363 . S
C1191 H1162 0.950 . S
C1191 C1190 1.397 . S
C1191 C1192 1.334 . S
C1192 H1163 0.950 . S
C1192 C1191 1.334 . S
C1192 C1193 1.287 . S
C1193 C1192 1.287 . S
C1193 C1194 1.524 . S
C1193 H1196 0.999 . S
C1194 H1164 0.950 . S
C1194 C1193 1.524 . S
C1194 C1195 1.415 . S
C1195 H1165 0.950 . S
C1195 C1190 1.363 . S
C1195 C1194 1.415 . S
H1196 C1193 0.999 . S
H1197 C1178 0.913 . S
H1198 C1216 0.951 . S
H1199 C1218 0.951 . S
H1200 C1220 0.950 . S
H1201 C1221 0.950 . S
H1202 C1223 0.950 . S
H1203 C1226 0.950 . S
H1204 C1227 0.950 . S
H1205 C1229 0.950 . S
H1206 C1230 0.950 . S
H1207 C1231 0.951 . S
H1208 C1233 0.951 . S
H1209 C1235 0.950 . S
H1210 C1236 0.950 . S
H1211 C1238 0.950 . S
H1212 C1241 0.950 . S
H1213 C1242 0.950 . S
H1214 C1244 0.950 . S
H1215 C1245 0.950 . S
C1216 H1198 0.951 . S
C1216 C1217 1.366 . S
C1216 C1218 1.388 . S
C1217 C1216 1.366 . S
C1217 C1221 1.385 . S
C1218 H1199 0.951 . S
C1218 C1216 1.388 . S
C1218 C1219 1.366 . S
C1219 C1218 1.366 . S
C1219 C1220 1.414 . S
C1219 C1222 1.499 . S
C1220 H1200 0.950 . S
C1220 C1219 1.414 . S
C1220 C1221 1.374 . S
C1221 H1201 0.950 . S
C1221 C1217 1.385 . S
C1221 C1220 1.374 . S
C1222 C1219 1.499 . S
C1222 C1223 1.373 . S
C1222 C1224 1.389 . S
C1223 H1202 0.950 . S
C1223 C1222 1.373 . S
C1223 C1239 1.377 . S
C1224 C1222 1.389 . S
C1224 C1225 1.524 . S
C1224 C1238 1.377 . S
C1225 C1224 1.524 . S
C1225 C1226 1.397 . S
C1225 C1230 1.363 . S
C1226 H1203 0.950 . S
C1226 C1225 1.397 . S
C1226 C1227 1.334 . S
C1227 H1204 0.950 . S
C1227 C1226 1.334 . S
C1227 C1228 1.287 . S
C1228 C1227 1.287 . S
C1228 C1229 1.524 . S
C1228 H1247 0.913 . S
C1229 H1205 0.950 . S
C1229 C1228 1.524 . S
C1229 C1230 1.415 . S
C1230 H1206 0.950 . S
C1230 C1225 1.363 . S
C1230 C1229 1.415 . S
C1231 H1207 0.951 . S
C1231 C1232 1.366 . S
C1231 C1233 1.388 . S
C1232 C1231 1.366 . S
C1232 C1236 1.385 . S
C1233 H1208 0.951 . S
C1233 C1231 1.388 . S
C1233 C1234 1.366 . S
C1234 C1233 1.366 . S
C1234 C1235 1.414 . S
C1234 C1237 1.499 . S
C1235 H1209 0.950 . S
C1235 C1234 1.414 . S
C1235 C1236 1.374 . S
C1236 H1210 0.950 . S
C1236 C1232 1.385 . S
C1236 C1235 1.374 . S
C1237 C1234 1.499 . S
C1237 C1238 1.373 . S
C1237 C1239 1.389 . S
C1238 H1211 0.950 . S
C1238 C1224 1.377 . S
C1238 C1237 1.373 . S
C1239 C1223 1.377 . S
C1239 C1237 1.389 . S
C1239 C1240 1.524 . S
C1240 C1239 1.524 . S
C1240 C1241 1.397 . S
C1240 C1245 1.363 . S
C1241 H1212 0.950 . S
C1241 C1240 1.397 . S
C1241 C1242 1.334 . S
C1242 H1213 0.950 . S
C1242 C1241 1.334 . S
C1242 C1243 1.287 . S
C1243 C1242 1.287 . S
C1243 C1244 1.524 . S
C1243 H1246 0.999 . S
C1244 H1214 0.950 . S
C1244 C1243 1.524 . S
C1244 C1245 1.415 . S
C1245 H1215 0.950 . S
C1245 C1240 1.363 . S
C1245 C1244 1.415 . S
H1246 C1243 0.999 . S
H1247 C1228 0.913 . S
H1248 C1266 0.951 . S
H1249 C1268 0.951 . S
H1250 C1270 0.950 . S
H1251 C1271 0.950 . S
H1252 C1273 0.950 . S
H1253 C1276 0.950 . S
H1254 C1277 0.950 . S
H1255 C1279 0.950 . S
H1256 C1280 0.950 . S
H1257 C1281 0.951 . S
H1258 C1283 0.951 . S
H1259 C1285 0.950 . S
H1260 C1286 0.950 . S
H1261 C1288 0.950 . S
H1262 C1291 0.950 . S
H1263 C1292 0.950 . S
H1264 C1294 0.950 . S
H1265 C1295 0.950 . S
C1266 H1248 0.951 . S
C1266 C1267 1.366 . S
C1266 C1268 1.388 . S
C1267 C1266 1.366 . S
C1267 C1271 1.385 . S
C1268 H1249 0.951 . S
C1268 C1266 1.388 . S
C1268 C1269 1.366 . S
C1269 C1268 1.366 . S
C1269 C1270 1.414 . S
C1269 C1272 1.499 . S
C1270 H1250 0.950 . S
C1270 C1269 1.414 . S
C1270 C1271 1.374 . S
C1271 H1251 0.950 . S
C1271 C1267 1.385 . S
C1271 C1270 1.374 . S
C1272 C1269 1.499 . S
C1272 C1273 1.373 . S
C1272 C1274 1.389 . S
C1273 H1252 0.950 . S
C1273 C1272 1.373 . S
C1273 C1289 1.377 . S
C1274 C1272 1.389 . S
C1274 C1275 1.524 . S
C1274 C1288 1.377 . S
C1275 C1274 1.524 . S
C1275 C1276 1.397 . S
C1275 C1280 1.363 . S
C1276 H1253 0.950 . S
C1276 C1275 1.397 . S
C1276 C1277 1.334 . S
C1277 H1254 0.950 . S
C1277 C1276 1.334 . S
C1277 C1278 1.287 . S
C1278 C1277 1.287 . S
C1278 C1279 1.524 . S
C1278 H1297 0.913 . S
C1279 H1255 0.950 . S
C1279 C1278 1.524 . S
C1279 C1280 1.415 . S
C1280 H1256 0.950 . S
C1280 C1275 1.363 . S
C1280 C1279 1.415 . S
C1281 H1257 0.951 . S
C1281 C1282 1.366 . S
C1281 C1283 1.388 . S
C1282 C1281 1.366 . S
C1282 C1286 1.385 . S
C1283 H1258 0.951 . S
C1283 C1281 1.388 . S
C1283 C1284 1.366 . S
C1284 C1283 1.366 . S
C1284 C1285 1.414 . S
C1284 C1287 1.499 . S
C1285 H1259 0.950 . S
C1285 C1284 1.414 . S
C1285 C1286 1.374 . S
C1286 H1260 0.950 . S
C1286 C1282 1.385 . S
C1286 C1285 1.374 . S
C1287 C1284 1.499 . S
C1287 C1288 1.373 . S
C1287 C1289 1.389 . S
C1288 H1261 0.950 . S
C1288 C1274 1.377 . S
C1288 C1287 1.373 . S
C1289 C1273 1.377 . S
C1289 C1287 1.389 . S
C1289 C1290 1.524 . S
C1290 C1289 1.524 . S
C1290 C1291 1.397 . S
C1290 C1295 1.363 . S
C1291 H1262 0.950 . S
C1291 C1290 1.397 . S
C1291 C1292 1.334 . S
C1292 H1263 0.950 . S
C1292 C1291 1.334 . S
C1292 C1293 1.287 . S
C1293 C1292 1.287 . S
C1293 C1294 1.524 . S
C1293 H1296 0.999 . S
C1294 H1264 0.950 . S
C1294 C1293 1.524 . S
C1294 C1295 1.415 . S
C1295 H1265 0.950 . S
C1295 C1290 1.363 . S
C1295 C1294 1.415 . S
H1296 C1293 0.999 . S
H1297 C1278 0.913 . S
H1298 C1316 0.951 . S
H1299 C1318 0.951 . S
H1300 C1320 0.950 . S
H1301 C1321 0.950 . S
H1302 C1323 0.950 . S
H1303 C1326 0.950 . S
H1304 C1327 0.950 . S
H1305 C1329 0.950 . S
H1306 C1330 0.950 . S
H1307 C1331 0.951 . S
H1308 C1333 0.951 . S
H1309 C1335 0.950 . S
H1310 C1336 0.950 . S
H1311 C1338 0.950 . S
H1312 C1341 0.950 . S
H1313 C1342 0.950 . S
H1314 C1344 0.950 . S
H1315 C1345 0.950 . S
C1316 H1298 0.951 . S
C1316 C1317 1.366 . S
C1316 C1318 1.388 . S
C1317 C1316 1.366 . S
C1317 C1321 1.385 . S
C1318 H1299 0.951 . S
C1318 C1316 1.388 . S
C1318 C1319 1.366 . S
C1319 C1318 1.366 . S
C1319 C1320 1.414 . S
C1319 C1322 1.499 . S
C1320 H1300 0.950 . S
C1320 C1319 1.414 . S
C1320 C1321 1.374 . S
C1321 H1301 0.950 . S
C1321 C1317 1.385 . S
C1321 C1320 1.374 . S
C1322 C1319 1.499 . S
C1322 C1323 1.373 . S
C1322 C1324 1.389 . S
C1323 H1302 0.950 . S
C1323 C1322 1.373 . S
C1323 C1339 1.377 . S
C1324 C1322 1.389 . S
C1324 C1325 1.524 . S
C1324 C1338 1.377 . S
C1325 C1324 1.524 . S
C1325 C1326 1.397 . S
C1325 C1330 1.363 1_655 S
C1326 H1303 0.950 . S
C1326 C1325 1.397 . S
C1326 C1327 1.334 . S
C1327 H1304 0.950 . S
C1327 C1326 1.334 . S
C1327 C1328 1.287 1_655 S
C1328 C1327 1.287 1_455 S
C1328 C1329 1.524 . S
C1328 H1347 0.913 . S
C1329 H1305 0.950 . S
C1329 C1328 1.524 . S
C1329 C1330 1.415 . S
C1330 H1306 0.950 . S
C1330 C1325 1.363 1_455 S
C1330 C1329 1.415 . S
C1331 H1307 0.951 . S
C1331 C1332 1.366 . S
C1331 C1333 1.388 . S
C1332 C1331 1.366 . S
C1332 C1336 1.385 . S
C1333 H1308 0.951 . S
C1333 C1331 1.388 . S
C1333 C1334 1.366 . S
C1334 C1333 1.366 . S
C1334 C1335 1.414 . S
C1334 C1337 1.499 . S
C1335 H1309 0.950 . S
C1335 C1334 1.414 . S
C1335 C1336 1.374 . S
C1336 H1310 0.950 . S
C1336 C1332 1.385 . S
C1336 C1335 1.374 . S
C1337 C1334 1.499 . S
C1337 C1338 1.373 . S
C1337 C1339 1.389 . S
C1338 H1311 0.950 . S
C1338 C1324 1.377 . S
C1338 C1337 1.373 . S
C1339 C1323 1.377 . S
C1339 C1337 1.389 . S
C1339 C1340 1.524 . S
C1340 C1339 1.524 . S
C1340 C1341 1.397 . S
C1340 C1345 1.363 . S
C1341 H1312 0.950 . S
C1341 C1340 1.397 . S
C1341 C1342 1.334 . S
C1342 H1313 0.950 . S
C1342 C1341 1.334 . S
C1342 C1343 1.287 . S
C1343 C1342 1.287 . S
C1343 C1344 1.524 . S
C1343 H1346 0.999 . S
C1344 H1314 0.950 . S
C1344 C1343 1.524 . S
C1344 C1345 1.415 . S
C1345 H1315 0.950 . S
C1345 C1340 1.363 . S
C1345 C1344 1.415 . S
H1346 C1343 0.999 . S
H1347 C1328 0.913 . S
H1348 C1366 0.951 . S
H1349 C1368 0.951 . S
H1350 C1370 0.950 . S
H1351 C1371 0.950 . S
H1352 C1373 0.950 . S
H1353 C1376 0.950 . S
H1354 C1377 0.950 . S
H1355 C1379 0.950 . S
H1356 C1380 0.950 1_565 S
H1357 C1381 0.951 . S
H1358 C1383 0.951 . S
H1359 C1385 0.950 . S
H1360 C1386 0.950 . S
H1361 C1388 0.950 . S
H1362 C1391 0.950 . S
H1363 C1392 0.950 . S
H1364 C1394 0.950 . S
H1365 C1395 0.950 . S
C1366 H1348 0.951 . S
C1366 C1367 1.366 . S
C1366 C1368 1.388 . S
C1367 C1366 1.366 . S
C1367 C1371 1.385 . S
C1368 H1349 0.951 . S
C1368 C1366 1.388 . S
C1368 C1369 1.366 . S
C1369 C1368 1.366 . S
C1369 C1370 1.414 . S
C1369 C1372 1.499 . S
C1370 H1350 0.950 . S
C1370 C1369 1.414 . S
C1370 C1371 1.374 . S
C1371 H1351 0.950 . S
C1371 C1367 1.385 . S
C1371 C1370 1.374 . S
C1372 C1369 1.499 . S
C1372 C1373 1.373 . S
C1372 C1374 1.389 . S
C1373 H1352 0.950 . S
C1373 C1372 1.373 . S
C1373 C1389 1.377 . S
C1374 C1372 1.389 . S
C1374 C1375 1.524 . S
C1374 C1388 1.377 . S
C1375 C1374 1.524 . S
C1375 C1376 1.397 1_565 S
C1375 C1380 1.363 1_565 S
C1376 H1353 0.950 . S
C1376 C1375 1.397 1_545 S
C1376 C1377 1.334 . S
C1377 H1354 0.950 . S
C1377 C1376 1.334 . S
C1377 C1378 1.287 . S
C1378 C1377 1.287 . S
C1378 C1379 1.524 . S
C1378 H1397 0.913 . S
C1379 H1355 0.950 . S
C1379 C1378 1.524 . S
C1379 C1380 1.415 . S
C1380 H1356 0.950 1_545 S
C1380 C1375 1.363 1_545 S
C1380 C1379 1.415 . S
C1381 H1357 0.951 . S
C1381 C1382 1.366 . S
C1381 C1383 1.388 . S
C1382 C1381 1.366 . S
C1382 C1386 1.385 . S
C1383 H1358 0.951 . S
C1383 C1381 1.388 . S
C1383 C1384 1.366 . S
C1384 C1383 1.366 . S
C1384 C1385 1.414 . S
C1384 C1387 1.499 . S
C1385 H1359 0.950 . S
C1385 C1384 1.414 . S
C1385 C1386 1.374 . S
C1386 H1360 0.950 . S
C1386 C1382 1.385 . S
C1386 C1385 1.374 . S
C1387 C1384 1.499 . S
C1387 C1388 1.373 . S
C1387 C1389 1.389 . S
C1388 H1361 0.950 . S
C1388 C1374 1.377 . S
C1388 C1387 1.373 . S
C1389 C1373 1.377 . S
C1389 C1387 1.389 . S
C1389 C1390 1.524 . S
C1390 C1389 1.524 . S
C1390 C1391 1.397 . S
C1390 C1395 1.363 . S
C1391 H1362 0.950 . S
C1391 C1390 1.397 . S
C1391 C1392 1.334 . S
C1392 H1363 0.950 . S
C1392 C1391 1.334 . S
C1392 C1393 1.287 . S
C1393 C1392 1.287 . S
C1393 C1394 1.524 . S
C1393 H1396 0.999 . S
C1394 H1364 0.950 . S
C1394 C1393 1.524 . S
C1394 C1395 1.415 . S
C1395 H1365 0.950 . S
C1395 C1390 1.363 . S
C1395 C1394 1.415 . S
H1396 C1393 0.999 . S
H1397 C1378 0.913 . S
H1398 C1416 0.951 . S
H1399 C1418 0.951 . S
H1400 C1420 0.950 . S
H1401 C1421 0.950 . S
H1402 C1423 0.950 . S
H1403 C1426 0.950 . S
H1404 C1427 0.950 . S
H1405 C1429 0.950 . S
H1406 C1430 0.950 . S
H1407 C1431 0.951 . S
H1408 C1433 0.951 . S
H1409 C1435 0.950 . S
H1410 C1436 0.950 . S
H1411 C1438 0.950 . S
H1412 C1441 0.950 . S
H1413 C1442 0.950 . S
H1414 C1444 0.950 . S
H1415 C1445 0.950 . S
C1416 H1398 0.951 . S
C1416 C1417 1.366 . S
C1416 C1418 1.388 . S
C1417 C1416 1.366 . S
C1417 C1421 1.385 . S
C1418 H1399 0.951 . S
C1418 C1416 1.388 . S
C1418 C1419 1.366 . S
C1419 C1418 1.366 . S
C1419 C1420 1.414 . S
C1419 C1422 1.499 . S
C1420 H1400 0.950 . S
C1420 C1419 1.414 . S
C1420 C1421 1.374 . S
C1421 H1401 0.950 . S
C1421 C1417 1.385 . S
C1421 C1420 1.374 . S
C1422 C1419 1.499 . S
C1422 C1423 1.373 . S
C1422 C1424 1.389 . S
C1423 H1402 0.950 . S
C1423 C1422 1.373 . S
C1423 C1439 1.377 . S
C1424 C1422 1.389 . S
C1424 C1425 1.524 . S
C1424 C1438 1.377 . S
C1425 C1424 1.524 . S
C1425 C1426 1.397 . S
C1425 C1430 1.363 . S
C1426 H1403 0.950 . S
C1426 C1425 1.397 . S
C1426 C1427 1.334 . S
C1427 H1404 0.950 . S
C1427 C1426 1.334 . S
C1427 C1428 1.287 . S
C1428 C1427 1.287 . S
C1428 C1429 1.524 . S
C1428 H1447 0.913 . S
C1429 H1405 0.950 . S
C1429 C1428 1.524 . S
C1429 C1430 1.415 . S
C1430 H1406 0.950 . S
C1430 C1425 1.363 . S
C1430 C1429 1.415 . S
C1431 H1407 0.951 . S
C1431 C1432 1.366 . S
C1431 C1433 1.388 . S
C1432 C1431 1.366 . S
C1432 C1436 1.385 . S
C1433 H1408 0.951 . S
C1433 C1431 1.388 . S
C1433 C1434 1.366 . S
C1434 C1433 1.366 . S
C1434 C1435 1.414 . S
C1434 C1437 1.499 . S
C1435 H1409 0.950 . S
C1435 C1434 1.414 . S
C1435 C1436 1.374 . S
C1436 H1410 0.950 . S
C1436 C1432 1.385 . S
C1436 C1435 1.374 . S
C1437 C1434 1.499 . S
C1437 C1438 1.373 . S
C1437 C1439 1.389 . S
C1438 H1411 0.950 . S
C1438 C1424 1.377 . S
C1438 C1437 1.373 . S
C1439 C1423 1.377 . S
C1439 C1437 1.389 . S
C1439 C1440 1.524 . S
C1440 C1439 1.524 . S
C1440 C1441 1.397 . S
C1440 C1445 1.363 . S
C1441 H1412 0.950 . S
C1441 C1440 1.397 . S
C1441 C1442 1.334 . S
C1442 H1413 0.950 . S
C1442 C1441 1.334 . S
C1442 C1443 1.287 . S
C1443 C1442 1.287 . S
C1443 C1444 1.524 . S
C1443 H1446 0.999 . S
C1444 H1414 0.950 . S
C1444 C1443 1.524 . S
C1444 C1445 1.415 . S
C1445 H1415 0.950 . S
C1445 C1440 1.363 . S
C1445 C1444 1.415 . S
H1446 C1443 0.999 . S
H1447 C1428 0.913 . S
H1448 C1466 0.951 . S
H1449 C1468 0.951 . S
H1450 C1470 0.950 . S
H1451 C1471 0.950 . S
H1452 C1473 0.950 . S
H1453 C1476 0.950 . S
H1454 C1477 0.950 . S
H1455 C1479 0.950 . S
H1456 C1480 0.950 . S
H1457 C1481 0.951 . S
H1458 C1483 0.951 . S
H1459 C1485 0.950 . S
H1460 C1486 0.950 . S
H1461 C1488 0.950 . S
H1462 C1491 0.950 . S
H1463 C1492 0.950 . S
H1464 C1494 0.950 . S
H1465 C1495 0.950 . S
C1466 H1448 0.951 . S
C1466 C1467 1.366 . S
C1466 C1468 1.388 . S
C1467 C1466 1.366 . S
C1467 C1471 1.385 . S
C1468 H1449 0.951 . S
C1468 C1466 1.388 . S
C1468 C1469 1.366 . S
C1469 C1468 1.366 . S
C1469 C1470 1.414 . S
C1469 C1472 1.499 . S
C1470 H1450 0.950 . S
C1470 C1469 1.414 . S
C1470 C1471 1.374 . S
C1471 H1451 0.950 . S
C1471 C1467 1.385 . S
C1471 C1470 1.374 . S
C1472 C1469 1.499 . S
C1472 C1473 1.373 . S
C1472 C1474 1.389 . S
C1473 H1452 0.950 . S
C1473 C1472 1.373 . S
C1473 C1489 1.377 . S
C1474 C1472 1.389 . S
C1474 C1475 1.524 . S
C1474 C1488 1.377 . S
C1475 C1474 1.524 . S
C1475 C1476 1.397 . S
C1475 C1480 1.363 1_455 S
C1476 H1453 0.950 . S
C1476 C1475 1.397 . S
C1476 C1477 1.334 1_455 S
C1477 H1454 0.950 . S
C1477 C1476 1.334 1_655 S
C1477 C1478 1.287 . S
C1478 C1477 1.287 . S
C1478 C1479 1.524 . S
C1478 H1497 0.913 . S
C1479 H1455 0.950 . S
C1479 C1478 1.524 . S
C1479 C1480 1.415 . S
C1480 H1456 0.950 . S
C1480 C1475 1.363 1_655 S
C1480 C1479 1.415 . S
C1481 H1457 0.951 . S
C1481 C1482 1.366 . S
C1481 C1483 1.388 . S
C1482 C1481 1.366 . S
C1482 C1486 1.385 . S
C1483 H1458 0.951 . S
C1483 C1481 1.388 . S
C1483 C1484 1.366 . S
C1484 C1483 1.366 . S
C1484 C1485 1.414 . S
C1484 C1487 1.499 . S
C1485 H1459 0.950 . S
C1485 C1484 1.414 . S
C1485 C1486 1.374 . S
C1486 H1460 0.950 . S
C1486 C1482 1.385 . S
C1486 C1485 1.374 . S
C1487 C1484 1.499 . S
C1487 C1488 1.373 . S
C1487 C1489 1.389 . S
C1488 H1461 0.950 . S
C1488 C1474 1.377 . S
C1488 C1487 1.373 . S
C1489 C1473 1.377 . S
C1489 C1487 1.389 . S
C1489 C1490 1.524 . S
C1490 C1489 1.524 . S
C1490 C1491 1.397 . S
C1490 C1495 1.363 . S
C1491 H1462 0.950 . S
C1491 C1490 1.397 . S
C1491 C1492 1.334 . S
C1492 H1463 0.950 . S
C1492 C1491 1.334 . S
C1492 C1493 1.287 . S
C1493 C1492 1.287 . S
C1493 C1494 1.524 . S
C1493 H1496 0.999 . S
C1494 H1464 0.950 . S
C1494 C1493 1.524 . S
C1494 C1495 1.415 . S
C1495 H1465 0.950 . S
C1495 C1490 1.363 . S
C1495 C1494 1.415 . S
H1496 C1493 0.999 . S
H1497 C1478 0.913 . S
H1498 C1516 0.951 . S
H1499 C1518 0.951 . S
H1500 C1520 0.950 . S
H1501 C1521 0.950 . S
H1502 C1523 0.950 . S
H1503 C1526 0.950 . S
H1504 C1527 0.950 . S
H1505 C1529 0.950 . S
H1506 C1530 0.950 . S
H1507 C1531 0.951 . S
H1508 C1533 0.951 . S
H1509 C1535 0.950 . S
H1510 C1536 0.950 . S
H1511 C1538 0.950 . S
H1512 C1541 0.950 . S
H1513 C1542 0.950 . S
H1514 C1544 0.950 . S
H1515 C1545 0.950 . S
C1516 H1498 0.951 . S
C1516 C1517 1.366 . S
C1516 C1518 1.388 . S
C1517 C1516 1.366 . S
C1517 C1521 1.385 . S
C1518 H1499 0.951 . S
C1518 C1516 1.388 . S
C1518 C1519 1.366 . S
C1519 C1518 1.366 . S
C1519 C1520 1.414 . S
C1519 C1522 1.499 . S
C1520 H1500 0.950 . S
C1520 C1519 1.414 . S
C1520 C1521 1.374 . S
C1521 H1501 0.950 . S
C1521 C1517 1.385 . S
C1521 C1520 1.374 . S
C1522 C1519 1.499 . S
C1522 C1523 1.373 . S
C1522 C1524 1.389 . S
C1523 H1502 0.950 . S
C1523 C1522 1.373 . S
C1523 C1539 1.377 . S
C1524 C1522 1.389 . S
C1524 C1525 1.524 . S
C1524 C1538 1.377 . S
C1525 C1524 1.524 . S
C1525 C1526 1.397 . S
C1525 C1530 1.363 . S
C1526 H1503 0.950 . S
C1526 C1525 1.397 . S
C1526 C1527 1.334 . S
C1527 H1504 0.950 . S
C1527 C1526 1.334 . S
C1527 C1528 1.287 . S
C1528 C1527 1.287 . S
C1528 C1529 1.524 . S
C1528 H1547 0.913 . S
C1529 H1505 0.950 . S
C1529 C1528 1.524 . S
C1529 C1530 1.415 . S
C1530 H1506 0.950 . S
C1530 C1525 1.363 . S
C1530 C1529 1.415 . S
C1531 H1507 0.951 . S
C1531 C1532 1.366 . S
C1531 C1533 1.388 . S
C1532 C1531 1.366 . S
C1532 C1536 1.385 . S
C1533 H1508 0.951 . S
C1533 C1531 1.388 . S
C1533 C1534 1.366 . S
C1534 C1533 1.366 . S
C1534 C1535 1.414 . S
C1534 C1537 1.499 . S
C1535 H1509 0.950 . S
C1535 C1534 1.414 . S
C1535 C1536 1.374 . S
C1536 H1510 0.950 . S
C1536 C1532 1.385 . S
C1536 C1535 1.374 . S
C1537 C1534 1.499 . S
C1537 C1538 1.373 . S
C1537 C1539 1.389 . S
C1538 H1511 0.950 . S
C1538 C1524 1.377 . S
C1538 C1537 1.373 . S
C1539 C1523 1.377 . S
C1539 C1537 1.389 . S
C1539 C1540 1.524 . S
C1540 C1539 1.524 . S
C1540 C1541 1.397 . S
C1540 C1545 1.363 1_545 S
C1541 H1512 0.950 . S
C1541 C1540 1.397 . S
C1541 C1542 1.334 . S
C1542 H1513 0.950 . S
C1542 C1541 1.334 . S
C1542 C1543 1.287 1_545 S
C1543 C1542 1.287 1_565 S
C1543 C1544 1.524 . S
C1543 H1546 0.999 . S
C1544 H1514 0.950 . S
C1544 C1543 1.524 . S
C1544 C1545 1.415 . S
C1545 H1515 0.950 . S
C1545 C1540 1.363 1_565 S
C1545 C1544 1.415 . S
H1546 C1543 0.999 . S
H1547 C1528 0.913 . S
H1548 C1566 0.951 . S
H1549 C1568 0.951 . S
H1550 C1570 0.950 . S
H1551 C1571 0.950 . S
H1552 C1573 0.950 . S
H1553 C1576 0.950 . S
H1554 C1577 0.950 . S
H1555 C1579 0.950 . S
H1556 C1580 0.950 . S
H1557 C1581 0.951 . S
H1558 C1583 0.951 . S
H1559 C1585 0.950 . S
H1560 C1586 0.950 . S
H1561 C1588 0.950 . S
H1562 C1591 0.950 . S
H1563 C1592 0.950 . S
H1564 C1594 0.950 . S
H1565 C1595 0.950 . S
C1566 H1548 0.951 . S
C1566 C1567 1.366 . S
C1566 C1568 1.388 . S
C1567 C1566 1.366 . S
C1567 C1571 1.385 . S
C1568 H1549 0.951 . S
C1568 C1566 1.388 . S
C1568 C1569 1.366 . S
C1569 C1568 1.366 . S
C1569 C1570 1.414 . S
C1569 C1572 1.499 . S
C1570 H1550 0.950 . S
C1570 C1569 1.414 . S
C1570 C1571 1.374 . S
C1571 H1551 0.950 . S
C1571 C1567 1.385 . S
C1571 C1570 1.374 . S
C1572 C1569 1.499 . S
C1572 C1573 1.373 . S
C1572 C1574 1.389 . S
C1573 H1552 0.950 . S
C1573 C1572 1.373 . S
C1573 C1589 1.377 . S
C1574 C1572 1.389 . S
C1574 C1575 1.524 . S
C1574 C1588 1.377 . S
C1575 C1574 1.524 . S
C1575 C1576 1.397 . S
C1575 C1580 1.363 . S
C1576 H1553 0.950 . S
C1576 C1575 1.397 . S
C1576 C1577 1.334 . S
C1577 H1554 0.950 . S
C1577 C1576 1.334 . S
C1577 C1578 1.287 . S
C1578 C1577 1.287 . S
C1578 C1579 1.524 . S
C1578 H1597 0.913 . S
C1579 H1555 0.950 . S
C1579 C1578 1.524 . S
C1579 C1580 1.415 . S
C1580 H1556 0.950 . S
C1580 C1575 1.363 . S
C1580 C1579 1.415 . S
C1581 H1557 0.951 . S
C1581 C1582 1.366 . S
C1581 C1583 1.388 . S
C1582 C1581 1.366 . S
C1582 C1586 1.385 . S
C1583 H1558 0.951 . S
C1583 C1581 1.388 . S
C1583 C1584 1.366 . S
C1584 C1583 1.366 . S
C1584 C1585 1.414 . S
C1584 C1587 1.499 . S
C1585 H1559 0.950 . S
C1585 C1584 1.414 . S
C1585 C1586 1.374 . S
C1586 H1560 0.950 . S
C1586 C1582 1.385 . S
C1586 C1585 1.374 . S
C1587 C1584 1.499 . S
C1587 C1588 1.373 . S
C1587 C1589 1.389 . S
C1588 H1561 0.950 . S
C1588 C1574 1.377 . S
C1588 C1587 1.373 . S
C1589 C1573 1.377 . S
C1589 C1587 1.389 . S
C1589 C1590 1.524 . S
C1590 C1589 1.524 . S
C1590 C1591 1.397 . S
C1590 C1595 1.363 . S
C1591 H1562 0.950 . S
C1591 C1590 1.397 . S
C1591 C1592 1.334 . S
C1592 H1563 0.950 . S
C1592 C1591 1.334 . S
C1592 C1593 1.287 . S
C1593 C1592 1.287 . S
C1593 C1594 1.524 . S
C1593 H1596 0.999 . S
C1594 H1564 0.950 . S
C1594 C1593 1.524 . S
C1594 C1595 1.415 . S
C1595 H1565 0.950 . S
C1595 C1590 1.363 . S
C1595 C1594 1.415 . S
H1596 C1593 0.999 . S
H1597 C1578 0.913 . S
H1598 C1616 0.951 . S
H1599 C1618 0.951 . S
H1600 C1620 0.950 . S
H1601 C1621 0.950 . S
H1602 C1623 0.950 . S
H1603 C1626 0.950 . S
H1604 C1627 0.950 . S
H1605 C1629 0.950 . S
H1606 C1630 0.950 . S
H1607 C1631 0.951 . S
H1608 C1633 0.951 . S
H1609 C1635 0.950 . S
H1610 C1636 0.950 . S
H1611 C1638 0.950 . S
H1612 C1641 0.950 . S
H1613 C1642 0.950 . S
H1614 C1644 0.950 . S
H1615 C1645 0.950 . S
C1616 H1598 0.951 . S
C1616 C1617 1.366 . S
C1616 C1618 1.388 . S
C1617 C1616 1.366 . S
C1617 C1621 1.385 . S
C1618 H1599 0.951 . S
C1618 C1616 1.388 . S
C1618 C1619 1.366 . S
C1619 C1618 1.366 . S
C1619 C1620 1.414 . S
C1619 C1622 1.499 . S
C1620 H1600 0.950 . S
C1620 C1619 1.414 . S
C1620 C1621 1.374 . S
C1621 H1601 0.950 . S
C1621 C1617 1.385 . S
C1621 C1620 1.374 . S
C1622 C1619 1.499 . S
C1622 C1623 1.373 . S
C1622 C1624 1.389 . S
C1623 H1602 0.950 . S
C1623 C1622 1.373 . S
C1623 C1639 1.377 . S
C1624 C1622 1.389 . S
C1624 C1625 1.524 . S
C1624 C1638 1.377 . S
C1625 C1624 1.524 . S
C1625 C1626 1.397 . S
C1625 C1630 1.363 . S
C1626 H1603 0.950 . S
C1626 C1625 1.397 . S
C1626 C1627 1.334 . S
C1627 H1604 0.950 . S
C1627 C1626 1.334 . S
C1627 C1628 1.287 . S
C1628 C1627 1.287 . S
C1628 C1629 1.524 . S
C1628 H1647 0.913 . S
C1629 H1605 0.950 . S
C1629 C1628 1.524 . S
C1629 C1630 1.415 . S
C1630 H1606 0.950 . S
C1630 C1625 1.363 . S
C1630 C1629 1.415 . S
C1631 H1607 0.951 . S
C1631 C1632 1.366 . S
C1631 C1633 1.388 . S
C1632 C1631 1.366 . S
C1632 C1636 1.385 . S
C1633 H1608 0.951 . S
C1633 C1631 1.388 . S
C1633 C1634 1.366 . S
C1634 C1633 1.366 . S
C1634 C1635 1.414 . S
C1634 C1637 1.499 . S
C1635 H1609 0.950 . S
C1635 C1634 1.414 . S
C1635 C1636 1.374 . S
C1636 H1610 0.950 . S
C1636 C1632 1.385 . S
C1636 C1635 1.374 . S
C1637 C1634 1.499 . S
C1637 C1638 1.373 . S
C1637 C1639 1.389 . S
C1638 H1611 0.950 . S
C1638 C1624 1.377 . S
C1638 C1637 1.373 . S
C1639 C1623 1.377 . S
C1639 C1637 1.389 . S
C1639 C1640 1.524 . S
C1640 C1639 1.524 . S
C1640 C1641 1.397 . S
C1640 C1645 1.363 . S
C1641 H1612 0.950 . S
C1641 C1640 1.397 . S
C1641 C1642 1.334 . S
C1642 H1613 0.950 . S
C1642 C1641 1.334 . S
C1642 C1643 1.287 . S
C1643 C1642 1.287 . S
C1643 C1644 1.524 . S
C1643 H1646 0.999 . S
C1644 H1614 0.950 . S
C1644 C1643 1.524 . S
C1644 C1645 1.415 . S
C1645 H1615 0.950 . S
C1645 C1640 1.363 . S
C1645 C1644 1.415 . S
H1646 C1643 0.999 . S
H1647 C1628 0.913 . S
H1648 C1666 0.951 . S
H1649 C1668 0.951 . S
H1650 C1670 0.950 . S
H1651 C1671 0.950 . S
H1652 C1673 0.950 . S
H1653 C1676 0.950 . S
H1654 C1677 0.950 1_455 S
H1655 C1679 0.950 . S
H1656 C1680 0.950 . S
H1657 C1681 0.951 . S
H1658 C1683 0.951 . S
H1659 C1685 0.950 . S
H1660 C1686 0.950 . S
H1661 C1688 0.950 . S
H1662 C1691 0.950 . S
H1663 C1692 0.950 . S
H1664 C1694 0.950 . S
H1665 C1695 0.950 . S
C1666 H1648 0.951 . S
C1666 C1667 1.366 . S
C1666 C1668 1.388 . S
C1667 C1666 1.366 . S
C1667 C1671 1.385 . S
C1668 H1649 0.951 . S
C1668 C1666 1.388 . S
C1668 C1669 1.366 . S
C1669 C1668 1.366 . S
C1669 C1670 1.414 . S
C1669 C1672 1.499 . S
C1670 H1650 0.950 . S
C1670 C1669 1.414 . S
C1670 C1671 1.374 . S
C1671 H1651 0.950 . S
C1671 C1667 1.385 . S
C1671 C1670 1.374 . S
C1672 C1669 1.499 . S
C1672 C1673 1.373 . S
C1672 C1674 1.389 . S
C1673 H1652 0.950 . S
C1673 C1672 1.373 . S
C1673 C1689 1.377 . S
C1674 C1672 1.389 . S
C1674 C1675 1.524 . S
C1674 C1688 1.377 . S
C1675 C1674 1.524 . S
C1675 C1676 1.397 . S
C1675 C1680 1.363 . S
C1676 H1653 0.950 . S
C1676 C1675 1.397 . S
C1676 C1677 1.334 . S
C1677 H1654 0.950 1_655 S
C1677 C1676 1.334 . S
C1677 C1678 1.287 . S
C1678 C1677 1.287 . S
C1678 C1679 1.524 . S
C1678 H1697 0.913 1_655 S
C1679 H1655 0.950 . S
C1679 C1678 1.524 . S
C1679 C1680 1.415 . S
C1680 H1656 0.950 . S
C1680 C1675 1.363 . S
C1680 C1679 1.415 . S
C1681 H1657 0.951 . S
C1681 C1682 1.366 . S
C1681 C1683 1.388 . S
C1682 C1681 1.366 . S
C1682 C1686 1.385 . S
C1683 H1658 0.951 . S
C1683 C1681 1.388 . S
C1683 C1684 1.366 . S
C1684 C1683 1.366 . S
C1684 C1685 1.414 . S
C1684 C1687 1.499 . S
C1685 H1659 0.950 . S
C1685 C1684 1.414 . S
C1685 C1686 1.374 . S
C1686 H1660 0.950 . S
C1686 C1682 1.385 . S
C1686 C1685 1.374 . S
C1687 C1684 1.499 . S
C1687 C1688 1.373 . S
C1687 C1689 1.389 . S
C1688 H1661 0.950 . S
C1688 C1674 1.377 . S
C1688 C1687 1.373 . S
C1689 C1673 1.377 . S
C1689 C1687 1.389 . S
C1689 C1690 1.524 . S
C1690 C1689 1.524 . S
C1690 C1691 1.397 . S
C1690 C1695 1.363 . S
C1691 H1662 0.950 . S
C1691 C1690 1.397 . S
C1691 C1692 1.334 . S
C1692 H1663 0.950 . S
C1692 C1691 1.334 . S
C1692 C1693 1.287 . S
C1693 C1692 1.287 . S
C1693 C1694 1.524 . S
C1693 H1696 0.999 . S
C1694 H1664 0.950 . S
C1694 C1693 1.524 . S
C1694 C1695 1.415 . S
C1695 H1665 0.950 . S
C1695 C1690 1.363 . S
C1695 C1694 1.415 . S
H1696 C1693 0.999 . S
H1697 C1678 0.913 1_455 S
H1698 C1716 0.951 . S
H1699 C1718 0.951 . S
H1700 C1720 0.950 . S
H1701 C1721 0.950 . S
H1702 C1723 0.950 . S
H1703 C1726 0.950 . S
H1704 C1727 0.950 . S
H1705 C1729 0.950 . S
H1706 C1730 0.950 . S
H1707 C1731 0.951 . S
H1708 C1733 0.951 . S
H1709 C1735 0.950 . S
H1710 C1736 0.950 . S
H1711 C1738 0.950 . S
H1712 C1741 0.950 . S
H1713 C1742 0.950 . S
H1714 C1744 0.950 . S
H1715 C1745 0.950 . S
C1716 H1698 0.951 . S
C1716 C1717 1.366 . S
C1716 C1718 1.388 . S
C1717 C1716 1.366 . S
C1717 C1721 1.385 . S
C1718 H1699 0.951 . S
C1718 C1716 1.388 . S
C1718 C1719 1.366 . S
C1719 C1718 1.366 . S
C1719 C1720 1.414 . S
C1719 C1722 1.499 . S
C1720 H1700 0.950 . S
C1720 C1719 1.414 . S
C1720 C1721 1.374 . S
C1721 H1701 0.950 . S
C1721 C1717 1.385 . S
C1721 C1720 1.374 . S
C1722 C1719 1.499 . S
C1722 C1723 1.373 . S
C1722 C1724 1.389 . S
C1723 H1702 0.950 . S
C1723 C1722 1.373 . S
C1723 C1739 1.377 . S
C1724 C1722 1.389 . S
C1724 C1725 1.524 . S
C1724 C1738 1.377 . S
C1725 C1724 1.524 . S
C1725 C1726 1.397 . S
C1725 C1730 1.363 . S
C1726 H1703 0.950 . S
C1726 C1725 1.397 . S
C1726 C1727 1.334 . S
C1727 H1704 0.950 . S
C1727 C1726 1.334 . S
C1727 C1728 1.287 . S
C1728 C1727 1.287 . S
C1728 C1729 1.524 . S
C1728 H1747 0.913 . S
C1729 H1705 0.950 . S
C1729 C1728 1.524 . S
C1729 C1730 1.415 . S
C1730 H1706 0.950 . S
C1730 C1725 1.363 . S
C1730 C1729 1.415 . S
C1731 H1707 0.951 . S
C1731 C1732 1.366 . S
C1731 C1733 1.388 . S
C1732 C1731 1.366 . S
C1732 C1736 1.385 . S
C1733 H1708 0.951 . S
C1733 C1731 1.388 . S
C1733 C1734 1.366 . S
C1734 C1733 1.366 . S
C1734 C1735 1.414 . S
C1734 C1737 1.499 . S
C1735 H1709 0.950 . S
C1735 C1734 1.414 . S
C1735 C1736 1.374 . S
C1736 H1710 0.950 . S
C1736 C1732 1.385 . S
C1736 C1735 1.374 . S
C1737 C1734 1.499 . S
C1737 C1738 1.373 . S
C1737 C1739 1.389 . S
C1738 H1711 0.950 . S
C1738 C1724 1.377 . S
C1738 C1737 1.373 . S
C1739 C1723 1.377 . S
C1739 C1737 1.389 . S
C1739 C1740 1.524 . S
C1740 C1739 1.524 . S
C1740 C1741 1.397 . S
C1740 C1745 1.363 . S
C1741 H1712 0.950 . S
C1741 C1740 1.397 . S
C1741 C1742 1.334 . S
C1742 H1713 0.950 . S
C1742 C1741 1.334 . S
C1742 C1743 1.287 . S
C1743 C1742 1.287 . S
C1743 C1744 1.524 . S
C1743 H1746 0.999 . S
C1744 H1714 0.950 . S
C1744 C1743 1.524 . S
C1744 C1745 1.415 . S
C1745 H1715 0.950 . S
C1745 C1740 1.363 . S
C1745 C1744 1.415 . S
H1746 C1743 0.999 . S
H1747 C1728 0.913 . S
H1748 C1766 0.951 . S
H1749 C1768 0.951 . S
H1750 C1770 0.950 . S
H1751 C1771 0.950 . S
H1752 C1773 0.950 . S
H1753 C1776 0.950 . S
H1754 C1777 0.950 . S
H1755 C1779 0.950 . S
H1756 C1780 0.950 . S
H1757 C1781 0.951 . S
H1758 C1783 0.951 . S
H1759 C1785 0.950 . S
H1760 C1786 0.950 . S
H1761 C1788 0.950 . S
H1762 C1791 0.950 . S
H1763 C1792 0.950 . S
H1764 C1794 0.950 . S
H1765 C1795 0.950 . S
C1766 H1748 0.951 . S
C1766 C1767 1.366 . S
C1766 C1768 1.388 . S
C1767 C1766 1.366 . S
C1767 C1771 1.385 . S
C1768 H1749 0.951 . S
C1768 C1766 1.388 . S
C1768 C1769 1.366 . S
C1769 C1768 1.366 . S
C1769 C1770 1.414 . S
C1769 C1772 1.499 . S
C1770 H1750 0.950 . S
C1770 C1769 1.414 . S
C1770 C1771 1.374 . S
C1771 H1751 0.950 . S
C1771 C1767 1.385 . S
C1771 C1770 1.374 . S
C1772 C1769 1.499 . S
C1772 C1773 1.373 . S
C1772 C1774 1.389 . S
C1773 H1752 0.950 . S
C1773 C1772 1.373 . S
C1773 C1789 1.377 . S
C1774 C1772 1.389 . S
C1774 C1775 1.524 . S
C1774 C1788 1.377 . S
C1775 C1774 1.524 . S
C1775 C1776 1.397 . S
C1775 C1780 1.363 . S
C1776 H1753 0.950 . S
C1776 C1775 1.397 . S
C1776 C1777 1.334 . S
C1777 H1754 0.950 . S
C1777 C1776 1.334 . S
C1777 C1778 1.287 . S
C1778 C1777 1.287 . S
C1778 C1779 1.524 . S
C1778 H1797 0.913 . S
C1779 H1755 0.950 . S
C1779 C1778 1.524 . S
C1779 C1780 1.415 . S
C1780 H1756 0.950 . S
C1780 C1775 1.363 . S
C1780 C1779 1.415 . S
C1781 H1757 0.951 . S
C1781 C1782 1.366 . S
C1781 C1783 1.388 . S
C1782 C1781 1.366 . S
C1782 C1786 1.385 . S
C1783 H1758 0.951 . S
C1783 C1781 1.388 . S
C1783 C1784 1.366 . S
C1784 C1783 1.366 . S
C1784 C1785 1.414 . S
C1784 C1787 1.499 . S
C1785 H1759 0.950 . S
C1785 C1784 1.414 . S
C1785 C1786 1.374 . S
C1786 H1760 0.950 . S
C1786 C1782 1.385 . S
C1786 C1785 1.374 . S
C1787 C1784 1.499 . S
C1787 C1788 1.373 . S
C1787 C1789 1.389 . S
C1788 H1761 0.950 . S
C1788 C1774 1.377 . S
C1788 C1787 1.373 . S
C1789 C1773 1.377 . S
C1789 C1787 1.389 . S
C1789 C1790 1.524 . S
C1790 C1789 1.524 . S
C1790 C1791 1.397 . S
C1790 C1795 1.363 . S
C1791 H1762 0.950 . S
C1791 C1790 1.397 . S
C1791 C1792 1.334 . S
C1792 H1763 0.950 . S
C1792 C1791 1.334 . S
C1792 C1793 1.287 . S
C1793 C1792 1.287 . S
C1793 C1794 1.524 . S
C1793 H1796 0.999 . S
C1794 H1764 0.950 . S
C1794 C1793 1.524 . S
C1794 C1795 1.415 . S
C1795 H1765 0.950 . S
C1795 C1790 1.363 . S
C1795 C1794 1.415 . S
H1796 C1793 0.999 . S
H1797 C1778 0.913 . S
H1798 C1816 0.951 . S
H1799 C1818 0.951 . S
H1800 C1820 0.950 . S
H1801 C1821 0.950 . S
H1802 C1823 0.950 . S
H1803 C1826 0.950 . S
H1804 C1827 0.950 . S
H1805 C1829 0.950 . S
H1806 C1830 0.950 . S
H1807 C1831 0.951 . S
H1808 C1833 0.951 . S
H1809 C1835 0.950 . S
H1810 C1836 0.950 . S
H1811 C1838 0.950 . S
H1812 C1841 0.950 . S
H1813 C1842 0.950 . S
H1814 C1844 0.950 . S
H1815 C1845 0.950 . S
C1816 H1798 0.951 . S
C1816 C1817 1.366 . S
C1816 C1818 1.388 . S
C1817 C1816 1.366 . S
C1817 C1821 1.385 . S
C1818 H1799 0.951 . S
C1818 C1816 1.388 . S
C1818 C1819 1.366 . S
C1819 C1818 1.366 . S
C1819 C1820 1.414 . S
C1819 C1822 1.499 . S
C1820 H1800 0.950 . S
C1820 C1819 1.414 . S
C1820 C1821 1.374 . S
C1821 H1801 0.950 . S
C1821 C1817 1.385 . S
C1821 C1820 1.374 . S
C1822 C1819 1.499 . S
C1822 C1823 1.373 . S
C1822 C1824 1.389 . S
C1823 H1802 0.950 . S
C1823 C1822 1.373 . S
C1823 C1839 1.377 . S
C1824 C1822 1.389 . S
C1824 C1825 1.524 . S
C1824 C1838 1.377 . S
C1825 C1824 1.524 . S
C1825 C1826 1.397 . S
C1825 C1830 1.363 . S
C1826 H1803 0.950 . S
C1826 C1825 1.397 . S
C1826 C1827 1.334 . S
C1827 H1804 0.950 . S
C1827 C1826 1.334 . S
C1827 C1828 1.287 . S
C1828 C1827 1.287 . S
C1828 C1829 1.524 . S
C1828 H1847 0.913 . S
C1829 H1805 0.950 . S
C1829 C1828 1.524 . S
C1829 C1830 1.415 . S
C1830 H1806 0.950 . S
C1830 C1825 1.363 . S
C1830 C1829 1.415 . S
C1831 H1807 0.951 . S
C1831 C1832 1.366 . S
C1831 C1833 1.388 . S
C1832 C1831 1.366 . S
C1832 C1836 1.385 . S
C1833 H1808 0.951 . S
C1833 C1831 1.388 . S
C1833 C1834 1.366 . S
C1834 C1833 1.366 . S
C1834 C1835 1.414 . S
C1834 C1837 1.499 . S
C1835 H1809 0.950 . S
C1835 C1834 1.414 . S
C1835 C1836 1.374 . S
C1836 H1810 0.950 . S
C1836 C1832 1.385 . S
C1836 C1835 1.374 . S
C1837 C1834 1.499 . S
C1837 C1838 1.373 . S
C1837 C1839 1.389 . S
C1838 H1811 0.950 . S
C1838 C1824 1.377 . S
C1838 C1837 1.373 . S
C1839 C1823 1.377 . S
C1839 C1837 1.389 . S
C1839 C1840 1.524 . S
C1840 C1839 1.524 . S
C1840 C1841 1.397 . S
C1840 C1845 1.363 . S
C1841 H1812 0.950 . S
C1841 C1840 1.397 . S
C1841 C1842 1.334 . S
C1842 H1813 0.950 . S
C1842 C1841 1.334 . S
C1842 C1843 1.287 . S
C1843 C1842 1.287 . S
C1843 C1844 1.524 . S
C1843 H1846 0.999 . S
C1844 H1814 0.950 . S
C1844 C1843 1.524 . S
C1844 C1845 1.415 . S
C1845 H1815 0.950 . S
C1845 C1840 1.363 . S
C1845 C1844 1.415 . S
H1846 C1843 0.999 . S
H1847 C1828 0.913 . S
H1848 C1866 0.951 . S
H1849 C1868 0.951 . S
H1850 C1870 0.950 . S
H1851 C1871 0.950 1_554 S
H1852 C1873 0.950 . S
H1853 C1876 0.950 . S
H1854 C1877 0.950 . S
H1855 C1879 0.950 . S
H1856 C1880 0.950 . S
H1857 C1881 0.951 . S
H1858 C1883 0.951 . S
H1859 C1885 0.950 . S
H1860 C1886 0.919 1_556 S
H1861 C1888 0.950 . S
H1862 C1891 1.005 . S
H1863 C1892 0.950 . S
H1864 C1894 0.950 . S
H1865 C1895 0.950 . S
C1866 H1848 0.951 . S
C1866 C1867 1.366 . S
C1866 C1868 1.388 . S
C1867 C1866 1.366 . S
C1867 C1871 1.385 . S
C1868 H1849 0.951 . S
C1868 C1866 1.388 . S
C1868 C1869 1.366 . S
C1869 C1868 1.366 . S
C1869 C1870 1.414 1_556 S
C1869 C1872 1.499 . S
C1870 H1850 0.950 . S
C1870 C1869 1.414 1_554 S
C1870 C1871 1.374 1_554 S
C1871 H1851 0.950 1_556 S
C1871 C1867 1.385 . S
C1871 C1870 1.374 1_556 S
C1872 C1869 1.499 . S
C1872 C1873 1.373 1_556 S
C1872 C1874 1.389 . S
C1873 H1852 0.950 . S
C1873 C1872 1.373 1_554 S
C1873 C1889 1.377 . S
C1874 C1872 1.389 . S
C1874 C1875 1.524 . S
C1874 C1888 1.377 . S
C1875 C1874 1.524 . S
C1875 C1876 1.397 . S
C1875 C1880 1.363 . S
C1876 H1853 0.950 . S
C1876 C1875 1.397 . S
C1876 C1877 1.334 . S
C1877 H1854 0.950 . S
C1877 C1876 1.334 . S
C1877 C1878 1.287 . S
C1878 C1877 1.287 . S
C1878 C1879 1.524 . S
C1878 H1897 0.913 . S
C1879 H1855 0.950 . S
C1879 C1878 1.524 . S
C1879 C1880 1.415 . S
C1880 H1856 0.950 . S
C1880 C1875 1.363 . S
C1880 C1879 1.415 . S
C1881 H1857 0.951 . S
C1881 C1882 1.366 . S
C1881 C1883 1.388 . S
C1882 C1881 1.366 . S
C1882 C1886 1.429 . S
C1883 H1858 0.951 . S
C1883 C1881 1.388 . S
C1883 C1884 1.366 . S
C1884 C1883 1.366 . S
C1884 C1885 1.414 1_554 S
C1884 C1887 1.499 . S
C1885 H1859 0.950 . S
C1885 C1884 1.414 1_556 S
C1885 C1886 1.362 1_556 S
C1886 H1860 0.919 1_554 S
C1886 C1882 1.429 . S
C1886 C1885 1.362 1_554 S
C1887 C1884 1.499 . S
C1887 C1888 1.373 1_554 S
C1887 C1889 1.389 . S
C1888 H1861 0.950 . S
C1888 C1874 1.377 . S
C1888 C1887 1.373 1_556 S
C1889 C1873 1.377 . S
C1889 C1887 1.389 . S
C1889 C1890 1.524 . S
C1890 C1889 1.524 . S
C1890 C1891 1.397 . S
C1890 C1895 1.363 . S
C1891 H1862 1.005 . S
C1891 C1890 1.397 . S
C1891 C1892 1.334 . S
C1892 H1863 0.950 . S
C1892 C1891 1.334 . S
C1892 C1893 1.287 . S
C1893 C1892 1.287 . S
C1893 C1894 1.524 . S
C1893 H1896 0.999 . S
C1894 H1864 0.950 . S
C1894 C1893 1.524 . S
C1894 C1895 1.415 . S
C1895 H1865 0.950 . S
C1895 C1890 1.363 . S
C1895 C1894 1.415 . S
H1896 C1893 0.999 . S
H1897 C1878 0.913 . S
H1898 C1916 0.951 . S
H1899 C1918 0.951 . S
H1900 C1920 0.950 . S
H1901 C1921 0.950 . S
H1902 C1923 0.950 . S
H1903 C1926 0.950 . S
H1904 C1927 0.950 . S
H1905 C1929 0.950 . S
H1906 C1930 0.950 . S
H1907 C1931 0.951 . S
H1908 C1933 0.951 . S
H1909 C1935 0.950 . S
H1910 C1936 0.950 . S
H1911 C1938 0.950 . S
H1912 C1941 0.950 . S
H1913 C1942 0.950 . S
H1914 C1944 0.950 1_655 S
H1915 C1945 0.950 . S
C1916 H1898 0.951 . S
C1916 C1917 1.366 . S
C1916 C1918 1.388 . S
C1917 C1916 1.366 . S
C1917 C1921 1.385 . S
C1918 H1899 0.951 . S
C1918 C1916 1.388 . S
C1918 C1919 1.366 . S
C1919 C1918 1.366 . S
C1919 C1920 1.414 . S
C1919 C1922 1.499 . S
C1920 H1900 0.950 . S
C1920 C1919 1.414 . S
C1920 C1921 1.374 . S
C1921 H1901 0.950 . S
C1921 C1917 1.385 . S
C1921 C1920 1.374 . S
C1922 C1919 1.499 . S
C1922 C1923 1.373 . S
C1922 C1924 1.389 . S
C1923 H1902 0.950 . S
C1923 C1922 1.373 . S
C1923 C1939 1.377 . S
C1924 C1922 1.389 . S
C1924 C1925 1.524 . S
C1924 C1938 1.377 . S
C1925 C1924 1.524 . S
C1925 C1926 1.397 . S
C1925 C1930 1.363 . S
C1926 H1903 0.950 . S
C1926 C1925 1.397 . S
C1926 C1927 1.334 . S
C1927 H1904 0.950 . S
C1927 C1926 1.334 . S
C1927 C1928 1.287 . S
C1928 C1927 1.287 . S
C1928 C1929 1.524 . S
C1928 H1947 0.913 . S
C1929 H1905 0.950 . S
C1929 C1928 1.524 . S
C1929 C1930 1.415 . S
C1930 H1906 0.950 . S
C1930 C1925 1.363 . S
C1930 C1929 1.415 . S
C1931 H1907 0.951 . S
C1931 C1932 1.366 1_655 S
C1931 C1933 1.388 1_655 S
C1932 C1931 1.366 1_455 S
C1932 C1936 1.385 . S
C1933 H1908 0.951 . S
C1933 C1931 1.388 1_455 S
C1933 C1934 1.366 . S
C1934 C1933 1.366 . S
C1934 C1935 1.414 . S
C1934 C1937 1.499 . S
C1935 H1909 0.950 . S
C1935 C1934 1.414 . S
C1935 C1936 1.374 . S
C1936 H1910 0.950 . S
C1936 C1932 1.385 . S
C1936 C1935 1.374 . S
C1937 C1934 1.499 . S
C1937 C1938 1.373 . S
C1937 C1939 1.389 . S
C1938 H1911 0.950 . S
C1938 C1924 1.377 . S
C1938 C1937 1.373 . S
C1939 C1923 1.377 . S
C1939 C1937 1.389 . S
C1939 C1940 1.524 . S
C1940 C1939 1.524 . S
C1940 C1941 1.397 . S
C1940 C1945 1.363 . S
C1941 H1912 0.950 . S
C1941 C1940 1.397 . S
C1941 C1942 1.334 . S
C1942 H1913 0.950 . S
C1942 C1941 1.334 . S
C1942 C1943 1.287 . S
C1943 C1942 1.287 . S
C1943 C1944 1.524 . S
C1943 H1946 0.999 1_455 S
C1944 H1914 0.950 1_455 S
C1944 C1943 1.524 . S
C1944 C1945 1.415 . S
C1945 H1915 0.950 . S
C1945 C1940 1.363 . S
C1945 C1944 1.415 . S
H1946 C1943 0.999 1_655 S
H1947 C1928 0.913 . S
H1948 C1966 0.951 . S
H1949 C1968 0.951 . S
H1950 C1970 0.950 . S
H1951 C1971 0.950 . S
H1952 C1973 0.950 . S
H1953 C1976 0.950 . S
H1954 C1977 0.950 . S
H1955 C1979 0.950 . S
H1956 C1980 0.950 . S
H1957 C1981 0.951 1_565 S
H1958 C1983 0.951 . S
H1959 C1985 0.950 . S
H1960 C1986 0.950 . S
H1961 C1988 0.950 . S
H1962 C1991 0.950 . S
H1963 C1992 0.950 . S
H1964 C1994 0.950 . S
H1965 C1995 0.950 . S
C1966 H1948 0.951 . S
C1966 C1967 1.366 . S
C1966 C1968 1.388 . S
C1967 C1966 1.366 . S
C1967 C1971 1.385 . S
C1968 H1949 0.951 . S
C1968 C1966 1.388 . S
C1968 C1969 1.366 . S
C1969 C1968 1.366 . S
C1969 C1970 1.414 . S
C1969 C1972 1.499 . S
C1970 H1950 0.950 . S
C1970 C1969 1.414 . S
C1970 C1971 1.374 . S
C1971 H1951 0.950 . S
C1971 C1967 1.385 . S
C1971 C1970 1.374 . S
C1972 C1969 1.499 . S
C1972 C1973 1.373 . S
C1972 C1974 1.389 . S
C1973 H1952 0.950 . S
C1973 C1972 1.373 . S
C1973 C1989 1.377 . S
C1974 C1972 1.389 . S
C1974 C1975 1.524 . S
C1974 C1988 1.377 . S
C1975 C1974 1.524 . S
C1975 C1976 1.397 . S
C1975 C1980 1.363 . S
C1976 H1953 0.950 . S
C1976 C1975 1.397 . S
C1976 C1977 1.334 . S
C1977 H1954 0.950 . S
C1977 C1976 1.334 . S
C1977 C1978 1.287 . S
C1978 C1977 1.287 . S
C1978 C1979 1.524 . S
C1978 H1997 0.913 . S
C1979 H1955 0.950 . S
C1979 C1978 1.524 . S
C1979 C1980 1.415 . S
C1980 H1956 0.950 . S
C1980 C1975 1.363 . S
C1980 C1979 1.415 . S
C1981 H1957 0.951 1_545 S
C1981 C1982 1.366 . S
C1981 C1983 1.388 . S
C1982 C1981 1.366 . S
C1982 C1986 1.385 . S
C1983 H1958 0.951 . S
C1983 C1981 1.388 . S
C1983 C1984 1.366 . S
C1984 C1983 1.366 . S
C1984 C1985 1.414 . S
C1984 C1987 1.499 . S
C1985 H1959 0.950 . S
C1985 C1984 1.414 . S
C1985 C1986 1.374 . S
C1986 H1960 0.950 . S
C1986 C1982 1.385 . S
C1986 C1985 1.374 . S
C1987 C1984 1.499 . S
C1987 C1988 1.373 . S
C1987 C1989 1.389 . S
C1988 H1961 0.950 . S
C1988 C1974 1.377 . S
C1988 C1987 1.373 . S
C1989 C1973 1.377 . S
C1989 C1987 1.389 . S
C1989 C1990 1.524 . S
C1990 C1989 1.524 . S
C1990 C1991 1.397 . S
C1990 C1995 1.363 . S
C1991 H1962 0.950 . S
C1991 C1990 1.397 . S
C1991 C1992 1.334 . S
C1992 H1963 0.950 . S
C1992 C1991 1.334 . S
C1992 C1993 1.287 . S
C1993 C1992 1.287 . S
C1993 C1994 1.524 . S
C1993 H1996 0.999 . S
C1994 H1964 0.950 . S
C1994 C1993 1.524 . S
C1994 C1995 1.415 . S
C1995 H1965 0.950 . S
C1995 C1990 1.363 . S
C1995 C1994 1.415 . S
H1996 C1993 0.999 . S
H1997 C1978 0.913 . S
H1998 C2016 0.951 . S
H1999 C2018 0.951 . S
H2000 C2020 0.950 . S
H2001 C2021 0.950 . S
H2002 C2023 0.950 . S
H2003 C2026 0.950 . S
H2004 C2027 0.950 . S
H2005 C2029 0.950 . S
H2006 C2030 0.950 . S
H2007 C2031 0.951 . S
H2008 C2033 0.951 . S
H2009 C2035 0.950 . S
H2010 C2036 0.950 . S
H2011 C2038 0.950 . S
H2012 C2041 0.950 . S
H2013 C2042 0.950 . S
H2014 C2044 0.950 . S
H2015 C2045 0.950 . S
C2016 H1998 0.951 . S
C2016 C2017 1.366 . S
C2016 C2018 1.388 . S
C2017 C2016 1.366 . S
C2017 C2021 1.385 . S
C2018 H1999 0.951 . S
C2018 C2016 1.388 . S
C2018 C2019 1.366 . S
C2019 C2018 1.366 . S
C2019 C2020 1.414 . S
C2019 C2022 1.499 . S
C2020 H2000 0.950 . S
C2020 C2019 1.414 . S
C2020 C2021 1.374 . S
C2021 H2001 0.950 . S
C2021 C2017 1.385 . S
C2021 C2020 1.374 . S
C2022 C2019 1.499 . S
C2022 C2023 1.373 . S
C2022 C2024 1.389 . S
C2023 H2002 0.950 . S
C2023 C2022 1.373 . S
C2023 C2039 1.377 . S
C2024 C2022 1.389 . S
C2024 C2025 1.524 . S
C2024 C2038 1.377 . S
C2025 C2024 1.524 . S
C2025 C2026 1.397 . S
C2025 C2030 1.363 . S
C2026 H2003 0.950 . S
C2026 C2025 1.397 . S
C2026 C2027 1.334 . S
C2027 H2004 0.950 . S
C2027 C2026 1.334 . S
C2027 C2028 1.287 . S
C2028 C2027 1.287 . S
C2028 C2029 1.524 . S
C2028 H2047 0.913 . S
C2029 H2005 0.950 . S
C2029 C2028 1.524 . S
C2029 C2030 1.415 . S
C2030 H2006 0.950 . S
C2030 C2025 1.363 . S
C2030 C2029 1.415 . S
C2031 H2007 0.951 . S
C2031 C2032 1.366 . S
C2031 C2033 1.388 . S
C2032 C2031 1.366 . S
C2032 C2036 1.385 . S
C2033 H2008 0.951 . S
C2033 C2031 1.388 . S
C2033 C2034 1.366 . S
C2034 C2033 1.366 . S
C2034 C2035 1.414 . S
C2034 C2037 1.499 . S
C2035 H2009 0.950 . S
C2035 C2034 1.414 . S
C2035 C2036 1.374 . S
C2036 H2010 0.950 . S
C2036 C2032 1.385 . S
C2036 C2035 1.374 . S
C2037 C2034 1.499 . S
C2037 C2038 1.373 . S
C2037 C2039 1.389 . S
C2038 H2011 0.950 . S
C2038 C2024 1.377 . S
C2038 C2037 1.373 . S
C2039 C2023 1.377 . S
C2039 C2037 1.389 . S
C2039 C2040 1.524 . S
C2040 C2039 1.524 . S
C2040 C2041 1.397 . S
C2040 C2045 1.363 . S
C2041 H2012 0.950 . S
C2041 C2040 1.397 . S
C2041 C2042 1.334 . S
C2042 H2013 0.950 . S
C2042 C2041 1.334 . S
C2042 C2043 1.287 . S
C2043 C2042 1.287 . S
C2043 C2044 1.524 . S
C2043 H2046 0.999 . S
C2044 H2014 0.950 . S
C2044 C2043 1.524 . S
C2044 C2045 1.415 . S
C2045 H2015 0.950 . S
C2045 C2040 1.363 . S
C2045 C2044 1.415 . S
H2046 C2043 0.999 . S
H2047 C2028 0.913 . S
H2048 C2066 0.951 . S
H2049 C2068 0.951 . S
H2050 C2070 0.950 . S
H2051 C2071 0.950 . S
H2052 C2073 0.950 . S
H2053 C2076 0.950 . S
H2054 C2077 0.950 . S
H2055 C2079 0.950 . S
H2056 C2080 0.950 . S
H2057 C2081 0.951 . S
H2058 C2083 0.951 . S
H2059 C2085 0.950 . S
H2060 C2086 0.950 . S
H2061 C2088 0.950 . S
H2062 C2091 0.950 . S
H2063 C2092 0.950 . S
H2064 C2094 0.950 . S
H2065 C2095 0.950 . S
C2066 H2048 0.951 . S
C2066 C2067 1.366 . S
C2066 C2068 1.388 . S
C2067 C2066 1.366 . S
C2067 C2071 1.385 . S
C2068 H2049 0.951 . S
C2068 C2066 1.388 . S
C2068 C2069 1.366 . S
C2069 C2068 1.366 . S
C2069 C2070 1.414 . S
C2069 C2072 1.499 . S
C2070 H2050 0.950 . S
C2070 C2069 1.414 . S
C2070 C2071 1.374 . S
C2071 H2051 0.950 . S
C2071 C2067 1.385 . S
C2071 C2070 1.374 . S
C2072 C2069 1.499 . S
C2072 C2073 1.373 . S
C2072 C2074 1.389 . S
C2073 H2052 0.950 . S
C2073 C2072 1.373 . S
C2073 C2089 1.377 . S
C2074 C2072 1.389 . S
C2074 C2075 1.524 . S
C2074 C2088 1.377 . S
C2075 C2074 1.524 . S
C2075 C2076 1.397 . S
C2075 C2080 1.363 . S
C2076 H2053 0.950 . S
C2076 C2075 1.397 . S
C2076 C2077 1.334 . S
C2077 H2054 0.950 . S
C2077 C2076 1.334 . S
C2077 C2078 1.287 . S
C2078 C2077 1.287 . S
C2078 C2079 1.524 . S
C2078 H2097 0.913 . S
C2079 H2055 0.950 . S
C2079 C2078 1.524 . S
C2079 C2080 1.415 . S
C2080 H2056 0.950 . S
C2080 C2075 1.363 . S
C2080 C2079 1.415 . S
C2081 H2057 0.951 . S
C2081 C2082 1.366 1_455 S
C2081 C2083 1.388 1_455 S
C2082 C2081 1.366 1_655 S
C2082 C2086 1.385 . S
C2083 H2058 0.951 . S
C2083 C2081 1.388 1_655 S
C2083 C2084 1.366 . S
C2084 C2083 1.366 . S
C2084 C2085 1.414 . S
C2084 C2087 1.499 . S
C2085 H2059 0.950 . S
C2085 C2084 1.414 . S
C2085 C2086 1.374 . S
C2086 H2060 0.950 . S
C2086 C2082 1.385 . S
C2086 C2085 1.374 . S
C2087 C2084 1.499 . S
C2087 C2088 1.373 . S
C2087 C2089 1.389 . S
C2088 H2061 0.950 . S
C2088 C2074 1.377 . S
C2088 C2087 1.373 . S
C2089 C2073 1.377 . S
C2089 C2087 1.389 . S
C2089 C2090 1.524 . S
C2090 C2089 1.524 . S
C2090 C2091 1.397 . S
C2090 C2095 1.363 . S
C2091 H2062 0.950 . S
C2091 C2090 1.397 . S
C2091 C2092 1.334 . S
C2092 H2063 0.950 . S
C2092 C2091 1.334 . S
C2092 C2093 1.287 . S
C2093 C2092 1.287 . S
C2093 C2094 1.524 . S
C2093 H2096 0.999 . S
C2094 H2064 0.950 . S
C2094 C2093 1.524 . S
C2094 C2095 1.415 . S
C2095 H2065 0.950 . S
C2095 C2090 1.363 . S
C2095 C2094 1.415 . S
H2096 C2093 0.999 . S
H2097 C2078 0.913 . S
H2098 C2116 0.951 . S
H2099 C2118 0.951 . S
H2100 C2120 0.950 . S
H2101 C2121 0.950 . S
H2102 C2123 0.950 . S
H2103 C2126 0.950 . S
H2104 C2127 0.950 . S
H2105 C2129 0.950 . S
H2106 C2130 0.950 . S
H2107 C2131 0.951 . S
H2108 C2133 0.951 . S
H2109 C2135 0.950 . S
H2110 C2136 0.950 . S
H2111 C2138 0.950 . S
H2112 C2141 0.950 . S
H2113 C2142 0.950 . S
H2114 C2144 0.950 . S
H2115 C2145 0.950 . S
C2116 H2098 0.951 . S
C2116 C2117 1.366 . S
C2116 C2118 1.388 . S
C2117 C2116 1.366 . S
C2117 C2121 1.385 . S
C2118 H2099 0.951 . S
C2118 C2116 1.388 . S
C2118 C2119 1.366 . S
C2119 C2118 1.366 . S
C2119 C2120 1.414 . S
C2119 C2122 1.499 . S
C2120 H2100 0.950 . S
C2120 C2119 1.414 . S
C2120 C2121 1.374 . S
C2121 H2101 0.950 . S
C2121 C2117 1.385 . S
C2121 C2120 1.374 . S
C2122 C2119 1.499 . S
C2122 C2123 1.373 . S
C2122 C2124 1.389 . S
C2123 H2102 0.950 . S
C2123 C2122 1.373 . S
C2123 C2139 1.377 . S
C2124 C2122 1.389 . S
C2124 C2125 1.524 . S
C2124 C2138 1.377 . S
C2125 C2124 1.524 . S
C2125 C2126 1.397 . S
C2125 C2130 1.363 . S
C2126 H2103 0.950 . S
C2126 C2125 1.397 . S
C2126 C2127 1.334 . S
C2127 H2104 0.950 . S
C2127 C2126 1.334 . S
C2127 C2128 1.287 . S
C2128 C2127 1.287 . S
C2128 C2129 1.524 . S
C2128 H2147 0.913 . S
C2129 H2105 0.950 . S
C2129 C2128 1.524 . S
C2129 C2130 1.415 . S
C2130 H2106 0.950 . S
C2130 C2125 1.363 . S
C2130 C2129 1.415 . S
C2131 H2107 0.951 . S
C2131 C2132 1.366 . S
C2131 C2133 1.388 . S
C2132 C2131 1.366 . S
C2132 C2136 1.385 1_565 S
C2133 H2108 0.951 . S
C2133 C2131 1.388 . S
C2133 C2134 1.366 . S
C2134 C2133 1.366 . S
C2134 C2135 1.414 . S
C2134 C2137 1.499 . S
C2135 H2109 0.950 . S
C2135 C2134 1.414 . S
C2135 C2136 1.374 1_565 S
C2136 H2110 0.950 . S
C2136 C2132 1.385 1_545 S
C2136 C2135 1.374 1_545 S
C2137 C2134 1.499 . S
C2137 C2138 1.373 . S
C2137 C2139 1.389 . S
C2138 H2111 0.950 . S
C2138 C2124 1.377 . S
C2138 C2137 1.373 . S
C2139 C2123 1.377 . S
C2139 C2137 1.389 . S
C2139 C2140 1.524 . S
C2140 C2139 1.524 . S
C2140 C2141 1.397 . S
C2140 C2145 1.363 . S
C2141 H2112 0.950 . S
C2141 C2140 1.397 . S
C2141 C2142 1.334 . S
C2142 H2113 0.950 . S
C2142 C2141 1.334 . S
C2142 C2143 1.287 . S
C2143 C2142 1.287 . S
C2143 C2144 1.524 . S
C2143 H2146 0.999 . S
C2144 H2114 0.950 . S
C2144 C2143 1.524 . S
C2144 C2145 1.415 . S
C2145 H2115 0.950 . S
C2145 C2140 1.363 . S
C2145 C2144 1.415 . S
H2146 C2143 0.999 . S
H2147 C2128 0.913 . S
H2148 C2166 0.951 . S
H2149 C2168 0.951 . S
H2150 C2170 0.950 . S
H2151 C2171 0.950 . S
H2152 C2173 0.950 . S
H2153 C2176 0.950 . S
H2154 C2177 0.950 . S
H2155 C2179 0.950 . S
H2156 C2180 0.950 . S
H2157 C2181 0.951 . S
H2158 C2183 0.951 . S
H2159 C2185 0.950 . S
H2160 C2186 0.950 . S
H2161 C2188 0.950 . S
H2162 C2191 0.950 . S
H2163 C2192 0.950 . S
H2164 C2194 0.950 . S
H2165 C2195 0.950 . S
C2166 H2148 0.951 . S
C2166 C2167 1.366 . S
C2166 C2168 1.388 . S
C2167 C2166 1.366 . S
C2167 C2171 1.385 . S
C2168 H2149 0.951 . S
C2168 C2166 1.388 . S
C2168 C2169 1.366 . S
C2169 C2168 1.366 . S
C2169 C2170 1.414 . S
C2169 C2172 1.499 . S
C2170 H2150 0.950 . S
C2170 C2169 1.414 . S
C2170 C2171 1.374 . S
C2171 H2151 0.950 . S
C2171 C2167 1.385 . S
C2171 C2170 1.374 . S
C2172 C2169 1.499 . S
C2172 C2173 1.373 . S
C2172 C2174 1.389 . S
C2173 H2152 0.950 . S
C2173 C2172 1.373 . S
C2173 C2189 1.377 . S
C2174 C2172 1.389 . S
C2174 C2175 1.524 . S
C2174 C2188 1.377 . S
C2175 C2174 1.524 . S
C2175 C2176 1.397 . S
C2175 C2180 1.363 . S
C2176 H2153 0.950 . S
C2176 C2175 1.397 . S
C2176 C2177 1.334 . S
C2177 H2154 0.950 . S
C2177 C2176 1.334 . S
C2177 C2178 1.287 . S
C2178 C2177 1.287 . S
C2178 C2179 1.524 . S
C2178 H2197 0.913 . S
C2179 H2155 0.950 . S
C2179 C2178 1.524 . S
C2179 C2180 1.415 . S
C2180 H2156 0.950 . S
C2180 C2175 1.363 . S
C2180 C2179 1.415 . S
C2181 H2157 0.951 . S
C2181 C2182 1.366 . S
C2181 C2183 1.388 . S
C2182 C2181 1.366 . S
C2182 C2186 1.385 . S
C2183 H2158 0.951 . S
C2183 C2181 1.388 . S
C2183 C2184 1.366 . S
C2184 C2183 1.366 . S
C2184 C2185 1.414 . S
C2184 C2187 1.499 . S
C2185 H2159 0.950 . S
C2185 C2184 1.414 . S
C2185 C2186 1.374 . S
C2186 H2160 0.950 . S
C2186 C2182 1.385 . S
C2186 C2185 1.374 . S
C2187 C2184 1.499 . S
C2187 C2188 1.373 . S
C2187 C2189 1.389 . S
C2188 H2161 0.950 . S
C2188 C2174 1.377 . S
C2188 C2187 1.373 . S
C2189 C2173 1.377 . S
C2189 C2187 1.389 . S
C2189 C2190 1.524 . S
C2190 C2189 1.524 . S
C2190 C2191 1.397 . S
C2190 C2195 1.363 . S
C2191 H2162 0.950 . S
C2191 C2190 1.397 . S
C2191 C2192 1.334 . S
C2192 H2163 0.950 . S
C2192 C2191 1.334 . S
C2192 C2193 1.287 . S
C2193 C2192 1.287 . S
C2193 C2194 1.524 . S
C2193 H2196 0.999 . S
C2194 H2164 0.950 . S
C2194 C2193 1.524 . S
C2194 C2195 1.415 . S
C2195 H2165 0.950 . S
C2195 C2190 1.363 . S
C2195 C2194 1.415 . S
H2196 C2193 0.999 . S
H2197 C2178 0.913 . S
H2198 C2216 0.951 . S
H2199 C2218 0.951 . S
H2200 C2220 0.950 . S
H2201 C2221 0.950 . S
H2202 C2223 0.950 . S
H2203 C2226 0.950 . S
H2204 C2227 0.950 . S
H2205 C2229 0.950 . S
H2206 C2230 0.950 . S
H2207 C2231 0.951 . S
H2208 C2233 0.951 . S
H2209 C2235 0.950 . S
H2210 C2236 0.950 . S
H2211 C2238 0.950 . S
H2212 C2241 0.950 . S
H2213 C2242 0.950 . S
H2214 C2244 0.950 . S
H2215 C2245 0.950 . S
C2216 H2198 0.951 . S
C2216 C2217 1.366 . S
C2216 C2218 1.388 . S
C2217 C2216 1.366 . S
C2217 C2221 1.385 1_455 S
C2218 H2199 0.951 . S
C2218 C2216 1.388 . S
C2218 C2219 1.366 . S
C2219 C2218 1.366 . S
C2219 C2220 1.414 . S
C2219 C2222 1.499 . S
C2220 H2200 0.950 . S
C2220 C2219 1.414 . S
C2220 C2221 1.374 1_455 S
C2221 H2201 0.950 . S
C2221 C2217 1.385 1_655 S
C2221 C2220 1.374 1_655 S
C2222 C2219 1.499 . S
C2222 C2223 1.373 1_556 S
C2222 C2224 1.389 . S
C2223 H2202 0.950 . S
C2223 C2222 1.373 1_554 S
C2223 C2239 1.377 . S
C2224 C2222 1.389 . S
C2224 C2225 1.524 . S
C2224 C2238 1.377 . S
C2225 C2224 1.524 . S
C2225 C2226 1.397 . S
C2225 C2230 1.363 . S
C2226 H2203 0.950 . S
C2226 C2225 1.397 . S
C2226 C2227 1.334 . S
C2227 H2204 0.950 . S
C2227 C2226 1.334 . S
C2227 C2228 1.287 . S
C2228 C2227 1.287 . S
C2228 C2229 1.524 . S
C2228 H2247 0.913 . S
C2229 H2205 0.950 . S
C2229 C2228 1.524 . S
C2229 C2230 1.415 . S
C2230 H2206 0.950 . S
C2230 C2225 1.363 . S
C2230 C2229 1.415 . S
C2231 H2207 0.951 . S
C2231 C2232 1.366 . S
C2231 C2233 1.388 . S
C2232 C2231 1.366 . S
C2232 C2236 1.385 . S
C2233 H2208 0.951 . S
C2233 C2231 1.388 . S
C2233 C2234 1.366 . S
C2234 C2233 1.366 . S
C2234 C2235 1.414 . S
C2234 C2237 1.499 . S
C2235 H2209 0.950 . S
C2235 C2234 1.414 . S
C2235 C2236 1.374 . S
C2236 H2210 0.950 . S
C2236 C2232 1.385 . S
C2236 C2235 1.374 . S
C2237 C2234 1.499 . S
C2237 C2238 1.373 1_554 S
C2237 C2239 1.389 . S
C2238 H2211 0.950 . S
C2238 C2224 1.377 . S
C2238 C2237 1.373 1_556 S
C2239 C2223 1.377 . S
C2239 C2237 1.389 . S
C2239 C2240 1.524 . S
C2240 C2239 1.524 . S
C2240 C2241 1.397 . S
C2240 C2245 1.363 . S
C2241 H2212 0.950 . S
C2241 C2240 1.397 . S
C2241 C2242 1.334 . S
C2242 H2213 0.950 . S
C2242 C2241 1.334 . S
C2242 C2243 1.287 . S
C2243 C2242 1.287 . S
C2243 C2244 1.524 . S
C2243 H2246 0.999 . S
C2244 H2214 0.950 . S
C2244 C2243 1.524 . S
C2244 C2245 1.415 . S
C2245 H2215 0.950 . S
C2245 C2240 1.363 . S
C2245 C2244 1.415 . S
H2246 C2243 0.999 . S
H2247 C2228 0.913 . S
H2248 C2266 0.951 . S
H2249 C2268 0.951 . S
H2250 C2270 0.950 . S
H2251 C2271 0.950 . S
H2252 C2273 0.950 . S
H2253 C2276 0.950 . S
H2254 C2277 0.950 . S
H2255 C2279 0.950 . S
H2256 C2280 0.950 . S
H2257 C2281 0.951 . S
H2258 C2283 0.951 . S
H2259 C2285 0.950 . S
H2260 C2286 0.950 . S
H2261 C2288 0.950 . S
H2262 C2291 0.950 . S
H2263 C2292 0.950 . S
H2264 C2294 0.950 . S
H2265 C2295 0.950 . S
C2266 H2248 0.951 . S
C2266 C2267 1.366 . S
C2266 C2268 1.388 . S
C2267 C2266 1.366 . S
C2267 C2271 1.385 . S
C2268 H2249 0.951 . S
C2268 C2266 1.388 . S
C2268 C2269 1.366 . S
C2269 C2268 1.366 . S
C2269 C2270 1.414 . S
C2269 C2272 1.499 . S
C2270 H2250 0.950 . S
C2270 C2269 1.414 . S
C2270 C2271 1.374 . S
C2271 H2251 0.950 . S
C2271 C2267 1.385 . S
C2271 C2270 1.374 . S
C2272 C2269 1.499 . S
C2272 C2273 1.373 . S
C2272 C2274 1.389 . S
C2273 H2252 0.950 . S
C2273 C2272 1.373 . S
C2273 C2289 1.377 . S
C2274 C2272 1.389 . S
C2274 C2275 1.524 . S
C2274 C2288 1.377 . S
C2275 C2274 1.524 . S
C2275 C2276 1.397 . S
C2275 C2280 1.363 . S
C2276 H2253 0.950 . S
C2276 C2275 1.397 . S
C2276 C2277 1.334 . S
C2277 H2254 0.950 . S
C2277 C2276 1.334 . S
C2277 C2278 1.287 . S
C2278 C2277 1.287 . S
C2278 C2279 1.524 . S
C2278 H2297 0.913 . S
C2279 H2255 0.950 . S
C2279 C2278 1.524 . S
C2279 C2280 1.415 . S
C2280 H2256 0.950 . S
C2280 C2275 1.363 . S
C2280 C2279 1.415 . S
C2281 H2257 0.951 . S
C2281 C2282 1.366 1_565 S
C2281 C2283 1.388 1_565 S
C2282 C2281 1.366 1_545 S
C2282 C2286 1.385 . S
C2283 H2258 0.951 . S
C2283 C2281 1.388 1_545 S
C2283 C2284 1.366 . S
C2284 C2283 1.366 . S
C2284 C2285 1.414 . S
C2284 C2287 1.499 . S
C2285 H2259 0.950 . S
C2285 C2284 1.414 . S
C2285 C2286 1.374 . S
C2286 H2260 0.950 . S
C2286 C2282 1.385 . S
C2286 C2285 1.374 . S
C2287 C2284 1.499 . S
C2287 C2288 1.373 . S
C2287 C2289 1.389 . S
C2288 H2261 0.950 . S
C2288 C2274 1.377 . S
C2288 C2287 1.373 . S
C2289 C2273 1.377 . S
C2289 C2287 1.389 . S
C2289 C2290 1.524 . S
C2290 C2289 1.524 . S
C2290 C2291 1.397 . S
C2290 C2295 1.363 . S
C2291 H2262 0.950 . S
C2291 C2290 1.397 . S
C2291 C2292 1.334 . S
C2292 H2263 0.950 . S
C2292 C2291 1.334 . S
C2292 C2293 1.287 . S
C2293 C2292 1.287 . S
C2293 C2294 1.524 . S
C2293 H2296 0.999 . S
C2294 H2264 0.950 . S
C2294 C2293 1.524 . S
C2294 C2295 1.415 . S
C2295 H2265 0.950 . S
C2295 C2290 1.363 . S
C2295 C2294 1.415 . S
H2296 C2293 0.999 . S
H2297 C2278 0.913 . S
H2298 C2316 0.951 . S
H2299 C2318 0.951 . S
H2300 C2320 0.950 . S
H2301 C2321 0.950 . S
H2302 C2323 0.950 . S
H2303 C2326 0.950 . S
H2304 C2327 0.950 . S
H2305 C2329 0.950 . S
H2306 C2330 0.950 . S
H2307 C2331 0.951 . S
H2308 C2333 0.951 . S
H2309 C2335 0.950 . S
H2310 C2336 0.950 . S
H2311 C2338 0.950 . S
H2312 C2341 0.950 . S
H2313 C2342 0.950 . S
H2314 C2344 0.950 . S
H2315 C2345 0.950 . S
C2316 H2298 0.951 . S
C2316 C2317 1.366 . S
C2316 C2318 1.388 . S
C2317 C2316 1.366 . S
C2317 C2321 1.385 . S
C2318 H2299 0.951 . S
C2318 C2316 1.388 . S
C2318 C2319 1.366 . S
C2319 C2318 1.366 . S
C2319 C2320 1.414 . S
C2319 C2322 1.499 . S
C2320 H2300 0.950 . S
C2320 C2319 1.414 . S
C2320 C2321 1.374 . S
C2321 H2301 0.950 . S
C2321 C2317 1.385 . S
C2321 C2320 1.374 . S
C2322 C2319 1.499 . S
C2322 C2323 1.373 . S
C2322 C2324 1.389 . S
C2323 H2302 0.950 . S
C2323 C2322 1.373 . S
C2323 C2339 1.377 . S
C2324 C2322 1.389 . S
C2324 C2325 1.524 . S
C2324 C2338 1.377 . S
C2325 C2324 1.524 . S
C2325 C2326 1.397 . S
C2325 C2330 1.363 . S
C2326 H2303 0.950 . S
C2326 C2325 1.397 . S
C2326 C2327 1.334 . S
C2327 H2304 0.950 . S
C2327 C2326 1.334 . S
C2327 C2328 1.287 . S
C2328 C2327 1.287 . S
C2328 C2329 1.524 . S
C2328 H2347 0.913 . S
C2329 H2305 0.950 . S
C2329 C2328 1.524 . S
C2329 C2330 1.415 . S
C2330 H2306 0.950 . S
C2330 C2325 1.363 . S
C2330 C2329 1.415 . S
C2331 H2307 0.951 . S
C2331 C2332 1.366 . S
C2331 C2333 1.388 . S
C2332 C2331 1.366 . S
C2332 C2336 1.385 . S
C2333 H2308 0.951 . S
C2333 C2331 1.388 . S
C2333 C2334 1.366 . S
C2334 C2333 1.366 . S
C2334 C2335 1.414 . S
C2334 C2337 1.499 . S
C2335 H2309 0.950 . S
C2335 C2334 1.414 . S
C2335 C2336 1.374 . S
C2336 H2310 0.950 . S
C2336 C2332 1.385 . S
C2336 C2335 1.374 . S
C2337 C2334 1.499 . S
C2337 C2338 1.373 . S
C2337 C2339 1.389 . S
C2338 H2311 0.950 . S
C2338 C2324 1.377 . S
C2338 C2337 1.373 . S
C2339 C2323 1.377 . S
C2339 C2337 1.389 . S
C2339 C2340 1.524 . S
C2340 C2339 1.524 . S
C2340 C2341 1.397 . S
C2340 C2345 1.363 . S
C2341 H2312 0.950 . S
C2341 C2340 1.397 . S
C2341 C2342 1.334 . S
C2342 H2313 0.950 . S
C2342 C2341 1.334 . S
C2342 C2343 1.287 . S
C2343 C2342 1.287 . S
C2343 C2344 1.524 . S
C2343 H2346 0.999 . S
C2344 H2314 0.950 . S
C2344 C2343 1.524 . S
C2344 C2345 1.415 . S
C2345 H2315 0.950 . S
C2345 C2340 1.363 . S
C2345 C2344 1.415 . S
H2346 C2343 0.999 . S
H2347 C2328 0.913 . S
H2348 C2366 0.951 . S
H2349 C2368 0.951 . S
H2350 C2370 0.950 . S
H2351 C2371 0.950 1_455 S
H2352 C2373 0.950 . S
H2353 C2376 0.950 . S
H2354 C2377 0.950 1_455 S
H2355 C2379 0.950 . S
H2356 C2380 0.950 . S
H2357 C2381 0.951 . S
H2358 C2383 0.951 . S
H2359 C2385 0.950 . S
H2360 C2386 0.950 . S
H2361 C2388 0.950 . S
H2362 C2391 0.950 . S
H2363 C2392 0.950 . S
H2364 C2394 0.950 . S
H2365 C2395 0.950 . S
C2366 H2348 0.951 . S
C2366 C2367 1.366 . S
C2366 C2368 1.388 . S
C2367 C2366 1.366 . S
C2367 C2371 1.385 . S
C2368 H2349 0.951 . S
C2368 C2366 1.388 . S
C2368 C2369 1.366 . S
C2369 C2368 1.366 . S
C2369 C2370 1.414 . S
C2369 C2372 1.499 . S
C2370 H2350 0.950 . S
C2370 C2369 1.414 . S
C2370 C2371 1.374 . S
C2371 H2351 0.950 1_655 S
C2371 C2367 1.385 . S
C2371 C2370 1.374 . S
C2372 C2369 1.499 . S
C2372 C2373 1.373 . S
C2372 C2374 1.389 . S
C2373 H2352 0.950 . S
C2373 C2372 1.373 . S
C2373 C2389 1.377 . S
C2374 C2372 1.389 . S
C2374 C2375 1.524 . S
C2374 C2388 1.377 . S
C2375 C2374 1.524 . S
C2375 C2376 1.397 . S
C2375 C2380 1.363 . S
C2376 H2353 0.950 . S
C2376 C2375 1.397 . S
C2376 C2377 1.334 . S
C2377 H2354 0.950 1_655 S
C2377 C2376 1.334 . S
C2377 C2378 1.287 . S
C2378 C2377 1.287 . S
C2378 C2379 1.524 . S
C2378 H2397 0.913 . S
C2379 H2355 0.950 . S
C2379 C2378 1.524 . S
C2379 C2380 1.415 . S
C2380 H2356 0.950 . S
C2380 C2375 1.363 . S
C2380 C2379 1.415 . S
C2381 H2357 0.951 . S
C2381 C2382 1.366 . S
C2381 C2383 1.388 . S
C2382 C2381 1.366 . S
C2382 C2386 1.385 . S
C2383 H2358 0.951 . S
C2383 C2381 1.388 . S
C2383 C2384 1.366 . S
C2384 C2383 1.366 . S
C2384 C2385 1.414 . S
C2384 C2387 1.499 . S
C2385 H2359 0.950 . S
C2385 C2384 1.414 . S
C2385 C2386 1.374 . S
C2386 H2360 0.950 . S
C2386 C2382 1.385 . S
C2386 C2385 1.374 . S
C2387 C2384 1.499 . S
C2387 C2388 1.373 . S
C2387 C2389 1.389 . S
C2388 H2361 0.950 . S
C2388 C2374 1.377 . S
C2388 C2387 1.373 . S
C2389 C2373 1.377 . S
C2389 C2387 1.389 . S
C2389 C2390 1.524 . S
C2390 C2389 1.524 . S
C2390 C2391 1.397 . S
C2390 C2395 1.363 . S
C2391 H2362 0.950 . S
C2391 C2390 1.397 . S
C2391 C2392 1.334 . S
C2392 H2363 0.950 . S
C2392 C2391 1.334 . S
C2392 C2393 1.287 . S
C2393 C2392 1.287 . S
C2393 C2394 1.524 . S
C2393 H2396 0.999 . S
C2394 H2364 0.950 . S
C2394 C2393 1.524 . S
C2394 C2395 1.415 . S
C2395 H2365 0.950 . S
C2395 C2390 1.363 . S
C2395 C2394 1.415 . S
H2396 C2393 0.999 . S
H2397 C2378 0.913 . S
H2398 C2416 0.951 . S
H2399 C2418 0.951 . S
H2400 C2420 0.950 . S
H2401 C2421 0.950 . S
H2402 C2423 0.950 . S
H2403 C2426 0.950 . S
H2404 C2427 0.950 . S
H2405 C2429 0.950 . S
H2406 C2430 0.950 . S
H2407 C2431 0.951 . S
H2408 C2433 0.951 . S
H2409 C2435 0.950 . S
H2410 C2436 0.950 1_545 S
H2411 C2438 0.950 . S
H2412 C2441 0.950 . S
H2413 C2442 0.950 . S
H2414 C2444 0.950 . S
H2415 C2445 0.950 . S
C2416 H2398 0.951 . S
C2416 C2417 1.366 . S
C2416 C2418 1.388 . S
C2417 C2416 1.366 . S
C2417 C2421 1.385 . S
C2418 H2399 0.951 . S
C2418 C2416 1.388 . S
C2418 C2419 1.366 . S
C2419 C2418 1.366 . S
C2419 C2420 1.414 . S
C2419 C2422 1.499 . S
C2420 H2400 0.950 . S
C2420 C2419 1.414 . S
C2420 C2421 1.374 . S
C2421 H2401 0.950 . S
C2421 C2417 1.385 . S
C2421 C2420 1.374 . S
C2422 C2419 1.499 . S
C2422 C2423 1.373 . S
C2422 C2424 1.389 . S
C2423 H2402 0.950 . S
C2423 C2422 1.373 . S
C2423 C2439 1.377 . S
C2424 C2422 1.389 . S
C2424 C2425 1.524 . S
C2424 C2438 1.377 . S
C2425 C2424 1.524 . S
C2425 C2426 1.397 . S
C2425 C2430 1.363 . S
C2426 H2403 0.950 . S
C2426 C2425 1.397 . S
C2426 C2427 1.334 . S
C2427 H2404 0.950 . S
C2427 C2426 1.334 . S
C2427 C2428 1.287 . S
C2428 C2427 1.287 . S
C2428 C2429 1.524 . S
C2428 H2447 0.913 . S
C2429 H2405 0.950 . S
C2429 C2428 1.524 . S
C2429 C2430 1.415 . S
C2430 H2406 0.950 . S
C2430 C2425 1.363 . S
C2430 C2429 1.415 . S
C2431 H2407 0.951 . S
C2431 C2432 1.366 . S
C2431 C2433 1.388 . S
C2432 C2431 1.366 . S
C2432 C2436 1.385 . S
C2433 H2408 0.951 . S
C2433 C2431 1.388 . S
C2433 C2434 1.366 . S
C2434 C2433 1.366 . S
C2434 C2435 1.414 . S
C2434 C2437 1.499 . S
C2435 H2409 0.950 . S
C2435 C2434 1.414 . S
C2435 C2436 1.374 . S
C2436 H2410 0.950 1_565 S
C2436 C2432 1.385 . S
C2436 C2435 1.374 . S
C2437 C2434 1.499 . S
C2437 C2438 1.373 . S
C2437 C2439 1.389 . S
C2438 H2411 0.950 . S
C2438 C2424 1.377 . S
C2438 C2437 1.373 . S
C2439 C2423 1.377 . S
C2439 C2437 1.389 . S
C2439 C2440 1.524 . S
C2440 C2439 1.524 . S
C2440 C2441 1.397 . S
C2440 C2445 1.363 . S
C2441 H2412 0.950 . S
C2441 C2440 1.397 . S
C2441 C2442 1.334 . S
C2442 H2413 0.950 . S
C2442 C2441 1.334 . S
C2442 C2443 1.287 . S
C2443 C2442 1.287 . S
C2443 C2444 1.524 . S
C2443 H2446 0.999 . S
C2444 H2414 0.950 . S
C2444 C2443 1.524 . S
C2444 C2445 1.415 . S
C2445 H2415 0.950 . S
C2445 C2440 1.363 . S
C2445 C2444 1.415 . S
H2446 C2443 0.999 . S
H2447 C2428 0.913 . S
C367 C21 1.581 . S
C382 C253 1.581 . S
C417 C50 1.580 . S
C432 C282 1.580 . S
C467 C311 1.581 . S
C482 C79 1.581 . S
C517 C108 1.581 . S
C532 C340 1.581 . S
C567 C137 1.580 . S
C582 C195 1.580 . S
C617 C166 1.580 . S
C632 C224 1.580 . S
C667 C148 0.159 . S
C682 C15 0.333 . S
C717 C44 0.334 . S
C732 C3 0.158 . S
C767 C73 0.335 . S
C782 C32 0.156 . S
C817 C61 0.157 . S
C832 C102 0.334 . S
C867 C90 0.156 . S
C882 C131 0.335 . S
C917 C119 0.159 . S
C932 C160 0.331 . S
C967 C189 0.331 . S
C982 C206 0.159 . S
C1017 C235 0.156 . S
C1032 C218 0.334 . S
C1067 C264 0.157 . S
C1082 C247 0.335 . S
C1117 C293 0.158 . S
C1132 C276 0.332 . S
C1167 C322 0.156 . S
C1182 C305 0.336 . S
C1217 C334 0.336 . S
C1232 C177 0.156 . S
C1267 C8 0.439 . S
C1282 C182 0.441 . S
C1317 C37 0.439 . S
C1332 C211 0.441 . S
C1367 C240 0.438 . S
C1382 C66 0.442 . S
C1417 C269 0.441 . S
C1432 C95 0.440 . S
C1467 C124 0.438 . S
C1482 C298 0.442 . S
C1517 C153 0.441 . S
C1532 C327 0.440 . S
C1567 C245 1.517 . S
C1582 C13 1.516 . S
C1617 C274 1.517 . S
C1632 C42 1.518 . S
C1667 C303 1.516 . S
C1682 C71 1.517 . S
C1717 C100 1.518 . S
C1732 C332 1.517 . S
C1767 C187 1.517 . S
C1782 C129 1.518 . S
C1817 C216 1.518 . S
C1832 C158 1.517 . S
C1867 C208 3.195 . S
C1882 C10 3.311 . S
C1917 C237 3.195 . S
C1932 C39 3.311 1_455 S
C1967 C266 3.195 . S
C1982 C68 3.311 1_545 S
C2017 C295 3.195 . S
C2032 C97 3.311 . S
C2067 C324 3.195 . S
C2082 C126 3.311 1_655 S
C2117 C179 3.196 . S
C2132 C155 3.311 1_565 S
C2167 C184 3.311 . S
C2182 C150 3.195 . S
C2217 C213 3.311 1_455 S
C2232 C5 3.195 . S
C2267 C34 3.195 . S
C2282 C242 3.311 1_545 S
C2317 C63 3.195 . S
C2332 C271 3.311 . S
C2367 C300 3.311 1_655 S
C2382 C92 3.195 . S
C2417 C121 3.195 . S
C2432 C329 3.311 1_565 S
