# Generated by pormake.
# Topology uoq, (4)-cn, num edge types: 1
# Building blocks:
#     Node 0, Type 0, BuildingBlock: AZAVOO_clean_sbu_0, # of connection points: 4
#     Node 1, Type 0, BuildingBlock: AZAVOO_clean_sbu_0, # of connection points: 4
#     Node 2, Type 0, BuildingBlock: AZAVOO_clean_sbu_0, # of connection points: 4
#     Node 3, Type 0, BuildingBlock: AZAVOO_clean_sbu_0, # of connection points: 4
#     Node 4, Type 0, BuildingBlock: AZAVOO_clean_sbu_0, # of connection points: 4
#     Node 5, Type 0, BuildingBlock: AZAVOO_clean_sbu_0, # of connection points: 4
#     Node 6, Type 0, BuildingBlock: AZAVOO_clean_sbu_0, # of connection points: 4
#     Node 7, Type 0, BuildingBlock: AZAVOO_clean_sbu_0, # of connection points: 4
#     Node 8, Type 0, BuildingBlock: AZAVOO_clean_sbu_0, # of connection points: 4
#     Node 9, Type 0, BuildingBlock: AZAVOO_clean_sbu_0, # of connection points: 4
#     Node 10, Type 0, BuildingBlock: AZAVOO_clean_sbu_0, # of connection points: 4
#     Node 11, Type 0, BuildingBlock: AZAVOO_clean_sbu_0, # of connection points: 4
#     Edge 12, Type (0, 0), BuildingBlock: CIFDUS_clean_linker_0, # of connection points: 2
#     Edge 13, Type (0, 0), BuildingBlock: CIFDUS_clean_linker_0, # of connection points: 2
#     Edge 14, Type (0, 0), BuildingBlock: CIFDUS_clean_linker_0, # of connection points: 2
#     Edge 15, Type (0, 0), BuildingBlock: CIFDUS_clean_linker_0, # of connection points: 2
#     Edge 16, Type (0, 0), BuildingBlock: CIFDUS_clean_linker_0, # of connection points: 2
#     Edge 17, Type (0, 0), BuildingBlock: CIFDUS_clean_linker_0, # of connection points: 2
#     Edge 18, Type (0, 0), BuildingBlock: CIFDUS_clean_linker_0, # of connection points: 2
#     Edge 19, Type (0, 0), BuildingBlock: CIFDUS_clean_linker_0, # of connection points: 2
#     Edge 20, Type (0, 0), BuildingBlock: CIFDUS_clean_linker_0, # of connection points: 2
#     Edge 21, Type (0, 0), BuildingBlock: CIFDUS_clean_linker_0, # of connection points: 2
#     Edge 22, Type (0, 0), BuildingBlock: CIFDUS_clean_linker_0, # of connection points: 2
#     Edge 23, Type (0, 0), BuildingBlock: CIFDUS_clean_linker_0, # of connection points: 2
#     Edge 24, Type (0, 0), BuildingBlock: CIFDUS_clean_linker_0, # of connection points: 2
#     Edge 25, Type (0, 0), BuildingBlock: CIFDUS_clean_linker_0, # of connection points: 2
#     Edge 26, Type (0, 0), BuildingBlock: CIFDUS_clean_linker_0, # of connection points: 2
#     Edge 27, Type (0, 0), BuildingBlock: CIFDUS_clean_linker_0, # of connection points: 2
#     Edge 28, Type (0, 0), BuildingBlock: CIFDUS_clean_linker_0, # of connection points: 2
#     Edge 29, Type (0, 0), BuildingBlock: CIFDUS_clean_linker_0, # of connection points: 2
#     Edge 30, Type (0, 0), BuildingBlock: CIFDUS_clean_linker_0, # of connection points: 2
#     Edge 31, Type (0, 0), BuildingBlock: CIFDUS_clean_linker_0, # of connection points: 2
#     Edge 32, Type (0, 0), BuildingBlock: CIFDUS_clean_linker_0, # of connection points: 2
#     Edge 33, Type (0, 0), BuildingBlock: CIFDUS_clean_linker_0, # of connection points: 2
#     Edge 34, Type (0, 0), BuildingBlock: CIFDUS_clean_linker_0, # of connection points: 2
#     Edge 35, Type (0, 0), BuildingBlock: CIFDUS_clean_linker_0, # of connection points: 2
# Relax obj value: 0.085
# Max RMSD: 0.083
# Mean RMSD: 0.083
data_MOF--net-uoq--node1-AZAVOO_clean_sbu_0--edge1-CIFDUS_clean_linker_0
_symmetry_space_group_name_H-M    P1
_symmetry_Int_Tables_number       1
_symmetry_cell_setting            triclinic
loop_
_symmetry_equiv_pos_as_xyz
'x, y, z'
_cell_length_a     51.657546
_cell_length_b     51.770264
_cell_length_c     21.348946
_cell_angle_alpha  90.048213
_cell_angle_beta   90.079145
_cell_angle_gamma 119.92889
loop_
_atom_site_label
_atom_site_type_symbol
_atom_site_fract_x
_atom_site_fract_y
_atom_site_fract_z
_atom_type_partial_charge
Mg0 Mg 0.29306 0.42982 0.25848 0.0
O1 O 0.26791 0.43729 0.33746 0.0
O2 O 0.29401 0.44708 0.42613 0.0
Mg3 Mg 0.33666 0.44603 0.40351 0.0
C4 C 0.27108 0.44329 0.3958 0.0
C5 C 0.2542 0.41606 0.13902 0.0
O6 O 0.28093 0.4265 0.11468 0.0
O7 O 0.27974 0.38313 0.29629 0.0
O8 O 0.30864 0.39627 0.38194 0.0
O9 O 0.31954 0.47938 0.2406 0.0
O10 O 0.33369 0.45502 0.30398 0.0
C11 C 0.28955 0.37639 0.34513 0.0
C12 C 0.33898 0.47981 0.27955 0.0
O13 O 0.25128 0.41315 0.19811 0.0
Mg14 Mg 0.84265 0.29651 0.59917 0.0
O15 O 0.8182 0.27093 0.68889 0.0
O16 O 0.84062 0.30148 0.7701 0.0
Mg17 Mg 0.87797 0.34586 0.73492 0.0
C18 C 0.82079 0.27645 0.74777 0.0
C19 C 0.82262 0.25646 0.48059 0.0
O20 O 0.84128 0.28274 0.45707 0.0
O21 O 0.88268 0.29021 0.62189 0.0
O22 O 0.90293 0.32217 0.7019 0.0
O23 O 0.81273 0.31635 0.59101 0.0
O24 O 0.85492 0.3365 0.64481 0.0
C25 C 0.90296 0.30318 0.66366 0.0
C26 C 0.83132 0.33709 0.62819 0.0
O27 O 0.81902 0.25399 0.53972 0.0
Mg28 Mg 0.538 0.84772 0.90219 0.0
O29 O 0.53765 0.82399 -0.00639 0.0
O30 O 0.52914 0.84703 0.07286 0.0
Mg31 Mg 0.5254 0.88586 0.0338 0.0
C32 C 0.5339 0.82668 0.05195 0.0
C33 C 0.55772 0.82596 0.78755 0.0
O34 O 0.55283 0.84659 0.76399 0.0
O35 O 0.58527 0.88634 0.92449 0.0
O36 O 0.57429 0.90745 0.00397 0.0
O37 O 0.48789 0.81931 0.89616 0.0
O38 O 0.5118 0.86305 0.94335 0.0
C39 C 0.59313 0.90633 0.967 0.0
C40 C 0.4869 0.83983 0.929 0.0
O41 O 0.55506 0.82151 0.8464 0.0
Mg42 Mg 0.67874 0.5379 0.23198 0.0
O43 O 0.70189 0.53927 0.3251 0.0
O44 O 0.66964 0.52991 0.40317 0.0
Mg45 Mg 0.62638 0.52379 0.36116 0.0
C46 C 0.69527 0.53572 0.38333 0.0
C47 C 0.72254 0.56072 0.12002 0.0
O48 O 0.6978 0.55732 0.0948 0.0
O49 O 0.68466 0.58433 0.25159 0.0
O50 O 0.65154 0.57236 0.32933 0.0
O51 O 0.65882 0.488 0.22745 0.0
O52 O 0.63699 0.51079 0.2714 0.0
C53 C 0.67117 0.59148 0.29239 0.0
C54 C 0.63639 0.48633 0.25789 0.0
O55 O 0.72288 0.55611 0.17851 0.0
Mg56 Mg 0.13355 0.68323 0.55494 0.0
O57 O 0.16057 0.71207 0.63715 0.0
O58 O 0.14308 0.68756 0.72691 0.0
Mg59 Mg 0.10334 0.64206 0.70148 0.0
C60 C 0.16161 0.71066 0.69657 0.0
C61 C 0.15423 0.72469 0.43479 0.0
O62 O 0.13448 0.69999 0.4069 0.0
O63 O 0.0943 0.69094 0.57718 0.0
O64 O 0.0773 0.66399 0.66492 0.0
O65 O 0.16284 0.6623 0.55292 0.0
O66 O 0.12085 0.6447 0.60634 0.0
C67 C 0.07561 0.68047 0.62244 0.0
C68 C 0.14377 0.64261 0.59113 0.0
O69 O 0.15761 0.72469 0.49376 0.0
Mg70 Mg 0.45098 0.13745 0.87778 0.0
O71 O 0.44631 0.16444 0.95784 0.0
O72 O 0.44938 0.14475 0.0487 0.0
Mg73 Mg 0.45441 0.10436 0.02793 0.0
C74 C 0.44648 0.16421 0.01767 0.0
C75 C 0.45987 0.17977 0.77078 0.0
O76 O 0.48556 0.18063 0.77703 0.0
O77 O 0.40247 0.09968 0.89223 0.0
O78 O 0.40797 0.08137 0.98309 0.0
O79 O 0.50111 0.16535 0.88552 0.0
O80 O 0.47397 0.12343 0.93681 0.0
C81 C 0.39177 0.08102 0.93744 0.0
C82 C 0.49977 0.14606 0.92561 0.0
O83 O 0.43823 0.1624 0.80585 0.0
Mg84 Mg 0.53215 0.67678 0.40172 0.0
O85 O 0.53352 0.70063 0.30989 0.0
O86 O 0.52431 0.6689 0.23068 0.0
Mg87 Mg 0.51814 0.62546 0.27059 0.0
C88 C 0.53001 0.69432 0.25147 0.0
C89 C 0.55439 0.71889 0.51575 0.0
O90 O 0.54945 0.69343 0.53958 0.0
O91 O 0.57862 0.68288 0.38147 0.0
O92 O 0.56698 0.65046 0.30239 0.0
O93 O 0.48229 0.65734 0.40628 0.0
O94 O 0.50473 0.63563 0.36035 0.0
C95 C 0.586 0.66988 0.34001 0.0
C96 C 0.48034 0.63526 0.37401 0.0
O97 O 0.5508 0.72031 0.45712 0.0
Mg98 Mg 0.84979 0.54129 0.73306 0.0
O99 O 0.82529 0.54275 0.64337 0.0
O100 O 0.84722 0.53389 0.5623 0.0
Mg101 Mg 0.88418 0.52602 0.59746 0.0
C102 C 0.8277 0.53961 0.58453 0.0
C103 C 0.82971 0.56099 0.85172 0.0
O104 O 0.84771 0.55237 0.87514 0.0
O105 O 0.89028 0.58714 0.70995 0.0
O106 O 0.90985 0.57466 0.62991 0.0
O107 O 0.8191 0.49186 0.74155 0.0
O108 O 0.8611 0.51278 0.68742 0.0
C109 C 0.91033 0.59394 0.66799 0.0
C110 C 0.83718 0.48903 0.70408 0.0
O111 O 0.82673 0.56084 0.79249 0.0
Mg112 Mg 0.30634 0.86596 0.06688 0.0
O113 O 0.27972 0.83583 0.98584 0.0
O114 O 0.30482 0.85301 0.89657 0.0
Mg115 Mg 0.3487 0.89507 0.92117 0.0
C116 C 0.28196 0.83394 0.92684 0.0
C117 C 0.26585 0.84192 0.18641 0.0
O118 O 0.29142 0.86021 0.21357 0.0
O119 O 0.29481 0.90176 0.03636 0.0
O120 O 0.32301 0.91847 0.95013 0.0
O121 O 0.33127 0.84066 0.07741 0.0
O122 O 0.34629 0.88082 0.01905 0.0
C123 C 0.30491 0.91948 0.98944 0.0
C124 C 0.35073 0.86003 0.03931 0.0
O125 O 0.26459 0.84055 0.12697 0.0
Mg126 Mg 0.43007 0.30489 0.39232 0.0
O127 O 0.4329 0.27675 0.31244 0.0
O128 O 0.43852 0.30103 0.22255 0.0
Mg129 Mg 0.43823 0.34397 0.24369 0.0
C130 C 0.43613 0.27876 0.25302 0.0
C131 C 0.43393 0.27482 0.5096 0.0
O132 O 0.45457 0.30303 0.51439 0.0
O133 O 0.38145 0.29044 0.36575 0.0
O134 O 0.38989 0.31626 0.27677 0.0
O135 O 0.48041 0.33117 0.39797 0.0
O136 O 0.4532 0.34366 0.33947 0.0
C137 C 0.37208 0.29839 0.31803 0.0
C138 C 0.47915 0.3492 0.35782 0.0
O139 O 0.41702 0.26652 0.46165 0.0
Mg140 Mg 0.12247 0.44398 0.76798 0.0
O141 O 0.15041 0.44446 0.68545 0.0
O142 O 0.13092 0.44889 0.59574 0.0
Mg143 Mg 0.08891 0.4507 0.62184 0.0
C144 C 0.15093 0.44652 0.62599 0.0
C145 C 0.1438 0.42187 0.88578 0.0
O146 O 0.11997 0.42013 0.91189 0.0
O147 O 0.0861 0.3957 0.74681 0.0
O148 O 0.06668 0.40298 0.65931 0.0
O149 O 0.14793 0.4943 0.76929 0.0
O150 O 0.10601 0.46681 0.71691 0.0
C151 C 0.06705 0.38587 0.70199 0.0
C152 C 0.12742 0.49275 0.73196 0.0
O153 O 0.1496 0.42995 0.82893 0.0
Mg154 Mg 0.67646 0.12305 0.09713 0.0
O155 O 0.69836 0.14714 0.00498 0.0
O156 O 0.66657 0.12352 0.92639 0.0
Mg157 Mg 0.62514 0.08367 0.96666 0.0
C158 C 0.69152 0.1444 0.94681 0.0
C159 C 0.71913 0.14703 0.21034 0.0
O160 O 0.69439 0.12559 0.2349 0.0
O161 O 0.68678 0.0856 0.07371 0.0
O162 O 0.65405 0.06376 -0.00466 0.0
O163 O 0.65251 0.14937 0.10465 0.0
O164 O 0.63414 0.10558 0.0581 0.0
C165 C 0.67465 0.0655 0.03132 0.0
C166 C 0.6311 0.12788 0.07339 0.0
O167 O 0.72007 0.15117 0.15141 0.0
H168 H 0.28366 0.33748 0.25359 0.0
H169 H 0.2871 0.34805 0.45416 0.0
H170 H 0.30616 0.31369 0.46522 0.0
H171 H 0.33731 0.29595 0.41548 0.0
H172 H 0.33815 0.28983 0.21429 0.0
H173 H 0.30129 0.30594 0.20579 0.0
C174 C 0.28704 0.33099 0.29986 0.0
C175 C 0.28504 0.34604 0.35279 0.0
C176 C 0.29968 0.31254 0.30557 0.0
C177 C 0.28916 0.3372 0.41256 0.0
C178 C 0.30041 0.31779 0.41887 0.0
C179 C 0.32821 0.2966 0.37005 0.0
C180 C 0.34109 0.29272 0.31553 0.0
C181 C 0.30823 0.30754 0.36539 0.0
C182 C 0.32896 0.29337 0.25691 0.0
C183 C 0.30809 0.3029 0.25198 0.0
H184 H 0.93652 0.30377 0.76164 0.0
H185 H 0.93188 0.30002 0.56001 0.0
H186 H 0.98562 0.31897 0.55445 0.0
H187 H 0.03414 0.34998 0.6063 0.0
H188 H 0.03869 0.35574 0.80786 0.0
H189 H 0.98496 0.32166 0.81435 0.0
C190 C 0.94713 0.30587 0.71663 0.0
C191 C 0.93055 0.30132 0.66129 0.0
C192 C 0.97816 0.31766 0.71385 0.0
C193 C 0.94425 0.3036 0.60323 0.0
C194 C 0.97508 0.3148 0.60004 0.0
C195 C 0.02353 0.34265 0.65168 0.0
C196 C 0.04012 0.35605 0.70642 0.0
C197 C -0.00756 0.32396 0.6549 0.0
C198 C 0.02637 0.34601 0.76499 0.0
C199 C -0.00449 0.32682 0.7687 0.0
H200 H 0.62658 0.93458 0.06856 0.0
H201 H 0.62657 0.93758 0.8669 0.0
H202 H 0.6625 0.99097 0.86956 0.0
H203 H 0.67979 0.03731 0.92976 0.0
H204 H 0.67703 0.03434 0.13139 0.0
H205 H 0.65747 0.98058 0.12867 0.0
C206 C 0.63564 0.94672 0.02524 0.0
C207 C 0.62348 0.93251 0.96768 0.0
C208 C 0.65539 0.97759 0.02735 0.0
C209 C 0.6355 0.94814 0.91173 0.0
C210 C 0.65575 0.97879 0.91333 0.0
C211 C 0.67638 0.02505 0.97306 0.0
C212 C 0.67902 0.03945 0.03063 0.0
C213 C 0.66386 -0.00602 0.9709 0.0
C214 C 0.67497 0.02366 0.08654 0.0
C215 C 0.66329 -0.00721 0.08491 0.0
H216 H 0.67261 0.62506 0.39065 0.0
H217 H 0.6717 0.6223 0.18892 0.0
H218 H 0.65064 0.65532 0.18573 0.0
H219 H 0.61929 0.67149 0.24096 0.0
H220 H 0.61834 0.67234 0.44278 0.0
H221 H 0.65404 0.65442 0.44563 0.0
C222 C 0.66913 0.63291 0.34604 0.0
C223 C 0.67297 0.6208 0.29013 0.0
C224 C 0.65603 0.65101 0.34476 0.0
C225 C 0.66878 0.63126 0.23253 0.0
C226 C 0.6563 0.64979 0.23076 0.0
C227 C 0.62799 0.66902 0.28547 0.0
C228 C 0.61575 0.67246 0.34157 0.0
C229 C 0.64779 0.65785 0.28661 0.0
C230 C 0.62735 0.66965 0.39902 0.0
C231 C 0.64748 0.65903 0.40062 0.0
H232 H 0.94283 0.62618 0.56871 0.0
H233 H 0.94047 0.62642 0.77049 0.0
H234 H -0.00595 0.66201 0.77377 0.0
H235 H 0.04227 0.68106 0.71976 0.0
H236 H 0.0446 0.67916 0.51801 0.0
H237 H -0.00956 0.65727 0.51394 0.0
C238 C 0.95388 0.63503 0.61327 0.0
C239 C 0.938 0.62324 0.6693 0.0
C240 C 0.98482 0.65485 0.61472 0.0
C241 C 0.95229 0.63507 0.72677 0.0
C242 C 0.98303 0.65517 0.72864 0.0
C243 C 0.03101 0.67705 0.67486 0.0
C244 C 0.04725 0.68093 0.61934 0.0
C245 C -0.00026 0.66351 0.67303 0.0
C246 C 0.0326 0.67617 0.56143 0.0
C247 C 0.00151 0.66323 0.55912 0.0
H248 H 0.30524 0.9502 0.8865 0.0
H249 H 0.30014 0.95044 0.08803 0.0
H250 H 0.32072 0.00431 0.08756 0.0
H251 H 0.35413 0.05102 0.03255 0.0
H252 H 0.36265 0.05071 0.83176 0.0
H253 H 0.32619 -0.00252 0.82882 0.0
C254 C 0.30738 0.96191 0.93009 0.0
C255 C 0.30218 0.94658 0.98733 0.0
C256 C 0.32061 -0.00692 0.92956 0.0
C257 C 0.30433 0.96176 0.04339 0.0
C258 C 0.31656 -0.00729 0.04317 0.0
C259 C 0.347 0.03951 0.98792 0.0
C260 C 0.36167 0.05446 0.93266 0.0
C261 C 0.32699 0.00869 0.98698 0.0
C262 C 0.35191 0.03961 0.87498 0.0
C263 C 0.33131 0.00905 0.87341 0.0
H264 H 0.14025 0.40742 0.00964 0.0
H265 H 0.19616 0.4264 0.84641 0.0
H266 H 0.23419 0.42399 0.90962 0.0
H267 H 0.25326 0.42021 0.01227 0.0
H268 H 0.19788 0.4018 0.17609 0.0
H269 H 0.15795 0.39996 0.11147 0.0
C270 C 0.16062 0.41076 0.98775 0.0
C271 C 0.16539 0.41739 0.92343 0.0
C272 C 0.18261 0.40956 0.02452 0.0
C273 C 0.1919 0.42145 0.89586 0.0
C274 C 0.21374 0.42012 0.932 0.0
C275 C 0.23236 0.41551 0.03385 0.0
C276 C 0.22874 0.41144 0.09904 0.0
C277 C 0.20959 0.41477 -0.00345 0.0
C278 C 0.20137 0.40513 0.12605 0.0
C279 C 0.17852 0.40417 0.08914 0.0
H280 H 0.82482 0.25503 0.35319 0.0
H281 H 0.77738 0.20096 0.51276 0.0
H282 H 0.74259 0.16142 0.44287 0.0
H283 H 0.72333 0.14381 0.33686 0.0
H284 H 0.77028 0.19811 0.17721 0.0
H285 H 0.80769 0.23576 0.2468 0.0
C286 C 0.80706 0.23449 0.37279 0.0
C287 C 0.80362 0.23116 0.43828 0.0
C288 C 0.78693 0.2119 0.33229 0.0
C289 C 0.78055 0.20425 0.46265 0.0
C290 C 0.76056 0.18162 0.42267 0.0
C291 C 0.74189 0.16373 0.31712 0.0
C292 C 0.74377 0.16818 0.2518 0.0
C293 C 0.76318 0.18545 0.35746 0.0
C294 C 0.76816 0.19408 0.22722 0.0
C295 C 0.78954 0.2157 0.26705 0.0
H296 H 0.5626 0.82895 0.66053 0.0
H297 H 0.56292 0.7775 0.81931 0.0
H298 H 0.56444 0.7411 0.74883 0.0
H299 H 0.56142 0.72174 0.6424 0.0
H300 H 0.56003 0.77267 0.48367 0.0
H301 H 0.56347 0.8115 0.55398 0.0
C302 C 0.56332 0.80995 0.67986 0.0
C303 C 0.56235 0.80586 0.74523 0.0
C304 C 0.56383 0.78889 0.63904 0.0
C305 C 0.56351 0.78118 0.76926 0.0
C306 C 0.56429 0.76028 0.72895 0.0
C307 C 0.56218 0.74147 0.62303 0.0
C308 C 0.56017 0.74409 0.55776 0.0
C309 C 0.5638 0.76357 0.66378 0.0
C310 C 0.56141 0.76995 0.53365 0.0
C311 C 0.56329 0.79216 0.57387 0.0
H312 H 0.72816 0.57093 -0.00568 0.0
H313 H 0.77399 0.56136 0.15412 0.0
H314 H 0.81257 0.56311 0.08533 0.0
H315 H 0.8309 0.56295 0.97924 0.0
H316 H 0.78464 0.57177 0.81935 0.0
H317 H 0.74884 0.57499 0.88887 0.0
C318 C 0.74675 0.56955 0.01429 0.0
C319 C 0.74794 0.5657 0.07937 0.0
C320 C 0.76873 0.57025 0.97437 0.0
C321 C 0.77237 0.5642 0.10428 0.0
C322 C 0.79443 0.5651 0.0649 0.0
C323 C 0.81319 0.5659 0.95951 0.0
C324 C 0.81035 0.5668 0.894 0.0
C325 C 0.79247 0.56744 -0.00023 0.0
C326 C 0.78736 0.57088 0.86947 0.0
C327 C 0.76678 0.57263 0.90924 0.0
H328 H 0.15375 0.73248 0.30853 0.0
H329 H 0.20154 0.77663 0.47739 0.0
H330 H 0.23908 0.8179 0.41564 0.0
H331 H 0.26059 0.83957 0.31342 0.0
H332 H 0.21299 0.79546 0.1444 0.0
H333 H 0.17311 0.75635 0.20655 0.0
C334 C 0.1722 0.75126 0.33191 0.0
C335 C 0.17493 0.75121 0.3975 0.0
C336 C 0.1939 0.77493 0.29606 0.0
C337 C 0.1989 0.77591 0.42697 0.0
C338 C 0.22047 0.79955 0.39167 0.0
C339 C 0.24135 0.82158 0.29013 0.0
C340 C 0.24001 0.82035 0.2243 0.0
C341 C 0.21855 0.799 0.32613 0.0
C342 C 0.21474 0.79697 0.19499 0.0
C343 C 0.19192 0.77449 0.23051 0.0
H344 H 0.41208 0.17127 0.69879 0.0
H345 H 0.50352 0.23539 0.7446 0.0
H346 H 0.50289 0.27057 0.66999 0.0
H347 H 0.47743 0.2828 0.58987 0.0
H348 H 0.38737 0.21852 0.53563 0.0
H349 H 0.38634 0.18367 0.61501 0.0
C350 C 0.43168 0.19305 0.69258 0.0
C351 C 0.45778 0.20081 0.72723 0.0
C352 C 0.43149 0.21304 0.6479 0.0
C353 C 0.48322 0.2289 0.71829 0.0
C354 C 0.4829 0.24905 0.67568 0.0
C355 C 0.45744 0.26124 0.59554 0.0
C356 C 0.43246 0.25333 0.55722 0.0
C357 C 0.4573 0.24128 0.63993 0.0
C358 C 0.40693 0.22512 0.5646 0.0
C359 C 0.40633 0.20524 0.61003 0.0
H360 H 0.15808 0.44605 0.49947 0.0
H361 H 0.19992 0.44696 0.6755 0.0
H362 H 0.24101 0.44695 0.61986 0.0
H363 H 0.26487 0.44604 0.52169 0.0
H364 H 0.22278 0.44413 0.34546 0.0
H365 H 0.18213 0.44529 0.40095 0.0
C366 C 0.17619 0.44629 0.52573 0.0
C367 C 0.1758 0.44648 0.59161 0.0
C368 C 0.19978 0.44613 0.49348 0.0
C369 C 0.1995 0.44672 0.62477 0.0
C370 C 0.22309 0.44676 0.59302 0.0
C371 C 0.24691 0.44603 0.4953 0.0
C372 C 0.24695 0.44502 0.4295 0.0
C373 C 0.22344 0.44641 0.52743 0.0
C374 C 0.22334 0.44484 0.39618 0.0
C375 C 0.20004 0.4455 0.42785 0.0
H376 H 0.76887 0.22503 0.7214 0.0
H377 H 0.82609 0.27643 0.87483 0.0
H378 H 0.79157 0.24008 0.9494 0.0
H379 H 0.74475 0.19429 0.97178 0.0
H380 H 0.68684 0.14313 0.81898 0.0
H381 H 0.722 0.17878 0.74391 0.0
C382 C 0.77388 0.2282 0.7711 0.0
C383 C 0.80005 0.2535 0.79226 0.0
C384 C 0.75374 0.2073 0.8141 0.0
C385 C 0.80606 0.25727 0.85701 0.0
C386 C 0.78633 0.23647 0.89986 0.0
C387 C 0.73979 0.19084 0.92208 0.0
C388 C 0.71312 0.16603 0.90131 0.0
C389 C 0.76002 0.2115 0.87901 0.0
C390 C 0.70714 0.16205 0.83656 0.0
C391 C 0.72726 0.18242 0.79343 0.0
H392 H 0.53436 0.77533 0.02625 0.0
H393 H 0.5351 0.83015 0.17968 0.0
H394 H 0.5349 0.7946 0.25463 0.0
H395 H 0.53326 0.74742 0.27697 0.0
H396 H 0.5314 0.69201 0.12367 0.0
H397 H 0.53337 0.72839 0.04864 0.0
C398 C 0.53462 0.7796 0.07606 0.0
C399 C 0.53468 0.80537 0.09711 0.0
C400 C 0.53423 0.75893 0.11911 0.0
C401 C 0.53491 0.81044 0.16195 0.0
C402 C 0.53482 0.79013 0.20499 0.0
C403 C 0.53342 0.74333 0.22718 0.0
C404 C 0.53212 0.71695 0.20617 0.0
C405 C 0.53429 0.76421 0.18412 0.0
C406 C 0.53225 0.71203 0.14134 0.0
C407 C 0.5334 0.73285 0.09827 0.0
H408 H 0.75018 0.54274 0.35953 0.0
H409 H 0.69101 0.53363 0.51128 0.0
H410 H 0.72728 0.53556 0.58711 0.0
H411 H 0.77512 0.538 0.6104 0.0
H412 H 0.83347 0.54593 0.45782 0.0
H413 H 0.79826 0.54645 0.38272 0.0
C414 C 0.74521 0.5413 0.40917 0.0
C415 C 0.7178 0.53792 0.42942 0.0
C416 C 0.76604 0.54218 0.45262 0.0
C417 C 0.71184 0.5361 0.49411 0.0
C418 C 0.7326 0.53723 0.53766 0.0
C419 C 0.78025 0.54009 0.56078 0.0
C420 C 0.80687 0.5418 0.53996 0.0
C421 C 0.75968 0.54001 0.51745 0.0
C422 C 0.81306 0.54436 0.47534 0.0
C423 C 0.79294 0.54468 0.43219 0.0
H424 H 0.16922 0.71831 0.82295 0.0
H425 H 0.20833 0.76092 0.64686 0.0
H426 H 0.24892 0.80258 0.70242 0.0
H427 H 0.27374 0.82675 0.80069 0.0
H428 H 0.23431 0.78457 0.97685 0.0
H429 H 0.19352 0.74298 0.92134 0.0
C430 C 0.18658 0.7367 0.79665 0.0
C431 C 0.18567 0.73635 0.73079 0.0
C432 C 0.2099 0.7607 0.82883 0.0
C433 C 0.20835 0.76052 0.69759 0.0
C434 C 0.23167 0.78439 0.72929 0.0
C435 C 0.25627 0.80845 0.82701 0.0
C436 C 0.25721 0.8088 0.89283 0.0
C437 C 0.23274 0.78465 0.79487 0.0
C438 C 0.2342 0.78496 0.92612 0.0
C439 C 0.21084 0.76111 0.89444 0.0
H440 H 0.44275 0.16894 0.14388 0.0
H441 H 0.44398 0.21195 0.96966 0.0
H442 H 0.44064 0.2509 0.02723 0.0
H443 H 0.4381 0.2731 0.12667 0.0
H444 H 0.4367 0.22999 0.30086 0.0
H445 H 0.43937 0.19067 0.24323 0.0
C446 C 0.44227 0.18679 0.11832 0.0
C447 C 0.44371 0.18749 0.05244 0.0
C448 C 0.44035 0.20913 0.15164 0.0
C449 C 0.44291 0.21079 0.02031 0.0
C450 C 0.44104 0.23312 0.0532 0.0
C451 C 0.43838 0.25513 0.1522 0.0
C452 C 0.43729 0.25462 0.21811 0.0
C453 C 0.43988 0.23257 0.11884 0.0
C454 C 0.43752 0.23102 0.25018 0.0
C455 C 0.43907 0.20851 0.21727 0.0
H456 H 0.34925 0.53692 0.29422 0.0
H457 H 0.39197 0.48348 0.29846 0.0
H458 H 0.43957 0.52719 0.32447 0.0
H459 H 0.46888 0.57991 0.34864 0.0
H460 H 0.42693 0.63391 0.35511 0.0
H461 H 0.3792 0.59081 0.32249 0.0
C462 C 0.36909 0.53506 0.30061 0.0
C463 C 0.36724 0.50714 0.29429 0.0
C464 C 0.39642 0.5603 0.31766 0.0
C465 C 0.39289 0.50477 0.3034 0.0
C466 C 0.42013 0.52973 0.31815 0.0
C467 C 0.44935 0.58235 0.34251 0.0
C468 C 0.4514 0.61001 0.35367 0.0
C469 C 0.4221 0.5575 0.32575 0.0
C470 C 0.42582 0.61274 0.34668 0.0
C471 C 0.39859 0.58814 0.328 0.0
H472 H 0.82623 0.44057 0.77117 0.0
H473 H 0.83444 0.47299 0.58239 0.0
H474 H 0.82905 0.42635 0.54133 0.0
H475 H 0.82678 0.37829 0.55998 0.0
H476 H 0.82539 0.34894 0.74921 0.0
H477 H 0.82301 0.39203 0.78975 0.0
C478 C 0.82629 0.43705 0.72108 0.0
C479 C 0.83053 0.45983 0.67961 0.0
C480 C 0.82456 0.41078 0.69817 0.0
C481 C 0.83122 0.45558 0.61489 0.0
C482 C 0.82817 0.42899 0.59152 0.0
C483 C 0.82535 0.38117 0.60997 0.0
C484 C 0.82588 0.36058 0.65178 0.0
C485 C 0.82549 0.4067 0.63276 0.0
C486 C 0.8248 0.36462 0.71648 0.0
C487 C 0.82354 0.38924 0.73954 0.0
H488 H 0.47758 0.88493 0.95653 0.0
H489 H 0.43268 0.78902 0.94836 0.0
H490 H 0.38626 0.78625 0.98515 0.0
H491 H 0.35849 0.81186 0.0189 0.0
H492 H 0.40415 0.90801 0.01722 0.0
H493 H 0.45027 0.90997 0.98537 0.0
C494 C 0.45768 0.86338 0.96306 0.0
C495 C 0.45853 0.83723 0.95037 0.0
C496 C 0.43121 0.86206 0.98249 0.0
C497 C 0.43248 0.80947 0.95793 0.0
C498 C 0.40602 0.80791 0.97905 0.0
C499 C 0.37863 0.83312 0.01171 0.0
C500 C 0.37804 0.85976 0.02057 0.0
C501 C 0.4051 0.83413 -0.00855 0.0
C502 C 0.40408 0.88723 0.01041 0.0
C503 C 0.43048 0.8884 -0.00769 0.0
H504 H 0.57984 0.47426 0.26392 0.0
H505 H 0.63484 0.43435 0.29211 0.0
H506 H 0.59084 0.38782 0.32662 0.0
H507 H 0.53645 0.35908 0.35076 0.0
H508 H 0.4822 0.39928 0.31312 0.0
H509 H 0.52616 0.44509 0.28002 0.0
C510 C 0.5822 0.45536 0.27767 0.0
C511 C 0.61042 0.45769 0.27635 0.0
C512 C 0.55691 0.42876 0.29563 0.0
C513 C 0.61321 0.43295 0.29299 0.0
C514 C 0.58811 0.40645 0.31278 0.0
C515 C 0.53437 0.37789 0.33507 0.0
C516 C 0.50616 0.37588 0.33472 0.0
C517 C 0.55981 0.40416 0.31461 0.0
C518 C 0.50363 0.40023 0.31364 0.0
C519 C 0.52877 0.4265 0.2949 0.0
H520 H 0.09988 0.59028 0.63202 0.0
H521 H 0.19538 0.63989 0.60751 0.0
H522 H 0.19944 0.59827 0.65239 0.0
H523 H 0.17497 0.54699 0.698 0.0
H524 H 0.07884 0.4976 0.71259 0.0
H525 H 0.07586 0.53999 0.67257 0.0
C526 C 0.12166 0.59212 0.63674 0.0
C527 C 0.14731 0.61813 0.61713 0.0
C528 C 0.12364 0.56809 0.66089 0.0
C529 C 0.1753 0.62 0.62243 0.0
C530 C 0.1776 0.59626 0.64816 0.0
C531 C 0.1535 0.54575 0.69256 0.0
C532 C 0.12716 0.51934 0.70839 0.0
C533 C 0.15184 0.5701 0.66755 0.0
C534 C 0.09939 0.51769 0.70046 0.0
C535 C 0.09764 0.5419 0.67768 0.0
H536 H 0.62593 0.17526 0.03269 0.0
H537 H 0.57553 0.08094 0.07061 0.0
H538 H 0.52998 0.07894 0.03325 0.0
H539 H 0.50504 0.10295 0.98417 0.0
H540 H 0.55507 0.19619 0.93629 0.0
H541 H 0.60017 0.1998 0.98311 0.0
C542 C 0.60485 0.15445 0.03331 0.0
C543 C 0.60392 0.12829 0.05442 0.0
C544 C 0.57878 0.15324 0.00961 0.0
C545 C 0.57668 0.10131 0.05429 0.0
C546 C 0.55065 0.10014 0.03298 0.0
C547 C 0.52571 0.12418 0.98458 0.0
C548 C 0.52672 0.14928 0.9571 0.0
C549 C 0.55153 0.12582 0.0097 0.0
C550 C 0.55377 0.17653 0.9572 0.0
C551 C 0.57954 0.17858 0.98391 0.0
loop_
_geom_bond_atom_site_label_1
_geom_bond_atom_site_label_2
_geom_bond_distance
_geom_bond_site_symmetry_2
_ccdc_geom_bond_type
Mg0 O1 2.028 . S
Mg0 O7 1.986 . S
Mg0 O9 2.114 . S
Mg0 O10 2.251 . S
Mg0 O13 2.010 . S
O1 Mg0 2.028 . S
O1 C4 1.250 . S
O2 Mg3 2.028 . S
O2 C4 1.248 . S
Mg3 O2 2.028 . S
Mg3 O8 2.032 . S
Mg3 O10 2.079 . S
C4 O1 1.250 . S
C4 O2 1.248 . S
C5 O6 1.264 . S
C5 O13 1.249 . S
O6 C5 1.264 . S
O7 Mg0 1.986 . S
O7 C11 1.246 . S
O8 Mg3 2.032 . S
O8 C11 1.259 . S
O9 Mg0 2.114 . S
O9 C12 1.252 . S
O10 Mg0 2.251 . S
O10 Mg3 2.079 . S
O10 C12 1.273 . S
C11 O7 1.246 . S
C11 O8 1.259 . S
C12 O9 1.252 . S
C12 O10 1.273 . S
O13 Mg0 2.010 . S
O13 C5 1.249 . S
Mg14 O15 2.028 . S
Mg14 O21 1.986 . S
Mg14 O23 2.114 . S
Mg14 O24 2.251 . S
Mg14 O27 2.010 . S
O15 Mg14 2.028 . S
O15 C18 1.250 . S
O16 Mg17 2.028 . S
O16 C18 1.248 . S
Mg17 O16 2.028 . S
Mg17 O22 2.032 . S
Mg17 O24 2.079 . S
C18 O15 1.250 . S
C18 O16 1.248 . S
C19 O20 1.264 . S
C19 O27 1.249 . S
O20 C19 1.264 . S
O21 Mg14 1.986 . S
O21 C25 1.246 . S
O22 Mg17 2.032 . S
O22 C25 1.259 . S
O23 Mg14 2.114 . S
O23 C26 1.252 . S
O24 Mg14 2.251 . S
O24 Mg17 2.079 . S
O24 C26 1.273 . S
C25 O21 1.246 . S
C25 O22 1.259 . S
C26 O23 1.252 . S
C26 O24 1.273 . S
O27 Mg14 2.010 . S
O27 C19 1.249 . S
Mg28 O29 2.028 . S
Mg28 O35 1.986 . S
Mg28 O37 2.114 . S
Mg28 O38 2.251 . S
Mg28 O41 2.010 . S
O29 Mg28 2.028 . S
O29 C32 1.250 1_556 S
O30 Mg31 2.028 . S
O30 C32 1.248 . S
Mg31 O30 2.028 . S
Mg31 O36 2.032 . S
Mg31 O38 2.080 1_554 S
C32 O29 1.250 1_554 S
C32 O30 1.248 . S
C33 O34 1.264 . S
C33 O41 1.249 . S
O34 C33 1.264 . S
O35 Mg28 1.986 . S
O35 C39 1.246 . S
O36 Mg31 2.032 . S
O36 C39 1.259 1_554 S
O37 Mg28 2.114 . S
O37 C40 1.252 . S
O38 Mg28 2.251 . S
O38 Mg31 2.080 1_556 S
O38 C40 1.272 . S
C39 O35 1.246 . S
C39 O36 1.259 1_556 S
C40 O37 1.252 . S
C40 O38 1.272 . S
O41 Mg28 2.010 . S
O41 C33 1.249 . S
Mg42 O43 2.028 . S
Mg42 O49 1.986 . S
Mg42 O51 2.114 . S
Mg42 O52 2.251 . S
Mg42 O55 2.010 . S
O43 Mg42 2.028 . S
O43 C46 1.250 . S
O44 Mg45 2.028 . S
O44 C46 1.248 . S
Mg45 O44 2.028 . S
Mg45 O50 2.032 . S
Mg45 O52 2.079 . S
C46 O43 1.250 . S
C46 O44 1.248 . S
C47 O48 1.264 . S
C47 O55 1.249 . S
O48 C47 1.264 . S
O49 Mg42 1.986 . S
O49 C53 1.246 . S
O50 Mg45 2.032 . S
O50 C53 1.259 . S
O51 Mg42 2.114 . S
O51 C54 1.252 . S
O52 Mg42 2.251 . S
O52 Mg45 2.079 . S
O52 C54 1.273 . S
C53 O49 1.246 . S
C53 O50 1.259 . S
C54 O51 1.252 . S
C54 O52 1.273 . S
O55 Mg42 2.010 . S
O55 C47 1.249 . S
Mg56 O57 2.028 . S
Mg56 O63 1.986 . S
Mg56 O65 2.114 . S
Mg56 O66 2.251 . S
Mg56 O69 2.010 . S
O57 Mg56 2.028 . S
O57 C60 1.250 . S
O58 Mg59 2.028 . S
O58 C60 1.248 . S
Mg59 O58 2.028 . S
Mg59 O64 2.032 . S
Mg59 O66 2.079 . S
C60 O57 1.250 . S
C60 O58 1.248 . S
C61 O62 1.264 . S
C61 O69 1.249 . S
O62 C61 1.264 . S
O63 Mg56 1.986 . S
O63 C67 1.246 . S
O64 Mg59 2.032 . S
O64 C67 1.259 . S
O65 Mg56 2.114 . S
O65 C68 1.252 . S
O66 Mg56 2.251 . S
O66 Mg59 2.079 . S
O66 C68 1.273 . S
C67 O63 1.246 . S
C67 O64 1.259 . S
C68 O65 1.252 . S
C68 O66 1.273 . S
O69 Mg56 2.010 . S
O69 C61 1.249 . S
Mg70 O71 2.028 . S
Mg70 O77 1.986 . S
Mg70 O79 2.114 . S
Mg70 O80 2.251 . S
Mg70 O83 2.010 . S
O71 Mg70 2.028 . S
O71 C74 1.250 1_556 S
O72 Mg73 2.028 . S
O72 C74 1.248 . S
Mg73 O72 2.028 . S
Mg73 O78 2.032 . S
Mg73 O80 2.080 1_554 S
C74 O71 1.250 1_554 S
C74 O72 1.248 . S
C75 O76 1.264 . S
C75 O83 1.249 . S
O76 C75 1.264 . S
O77 Mg70 1.986 . S
O77 C81 1.246 . S
O78 Mg73 2.032 . S
O78 C81 1.259 1_554 S
O79 Mg70 2.114 . S
O79 C82 1.252 . S
O80 Mg70 2.251 . S
O80 Mg73 2.080 1_556 S
O80 C82 1.272 . S
C81 O77 1.246 . S
C81 O78 1.259 1_556 S
C82 O79 1.252 . S
C82 O80 1.272 . S
O83 Mg70 2.010 . S
O83 C75 1.249 . S
Mg84 O85 2.028 . S
Mg84 O91 1.986 . S
Mg84 O93 2.114 . S
Mg84 O94 2.251 . S
Mg84 O97 2.010 . S
O85 Mg84 2.028 . S
O85 C88 1.250 . S
O86 Mg87 2.028 . S
O86 C88 1.248 . S
Mg87 O86 2.028 . S
Mg87 O92 2.032 . S
Mg87 O94 2.079 . S
C88 O85 1.250 . S
C88 O86 1.248 . S
C89 O90 1.264 . S
C89 O97 1.249 . S
O90 C89 1.264 . S
O91 Mg84 1.986 . S
O91 C95 1.246 . S
O92 Mg87 2.032 . S
O92 C95 1.259 . S
O93 Mg84 2.114 . S
O93 C96 1.252 . S
O94 Mg84 2.251 . S
O94 Mg87 2.079 . S
O94 C96 1.273 . S
C95 O91 1.246 . S
C95 O92 1.259 . S
C96 O93 1.252 . S
C96 O94 1.273 . S
O97 Mg84 2.010 . S
O97 C89 1.249 . S
Mg98 O99 2.028 . S
Mg98 O105 1.986 . S
Mg98 O107 2.114 . S
Mg98 O108 2.251 . S
Mg98 O111 2.010 . S
O99 Mg98 2.028 . S
O99 C102 1.250 . S
O100 Mg101 2.028 . S
O100 C102 1.248 . S
Mg101 O100 2.028 . S
Mg101 O106 2.032 . S
Mg101 O108 2.079 . S
C102 O99 1.250 . S
C102 O100 1.248 . S
C103 O104 1.264 . S
C103 O111 1.249 . S
O104 C103 1.264 . S
O105 Mg98 1.986 . S
O105 C109 1.246 . S
O106 Mg101 2.032 . S
O106 C109 1.259 . S
O107 Mg98 2.114 . S
O107 C110 1.252 . S
O108 Mg98 2.251 . S
O108 Mg101 2.079 . S
O108 C110 1.273 . S
C109 O105 1.246 . S
C109 O106 1.259 . S
C110 O107 1.252 . S
C110 O108 1.273 . S
O111 Mg98 2.010 . S
O111 C103 1.249 . S
Mg112 O113 2.028 . S
Mg112 O119 1.986 . S
Mg112 O121 2.114 . S
Mg112 O122 2.251 . S
Mg112 O125 2.010 . S
O113 Mg112 2.028 . S
O113 C116 1.250 1_554 S
O114 Mg115 2.028 . S
O114 C116 1.248 . S
Mg115 O114 2.028 . S
Mg115 O120 2.032 . S
Mg115 O122 2.079 1_556 S
C116 O113 1.250 1_556 S
C116 O114 1.248 . S
C117 O118 1.264 . S
C117 O125 1.249 . S
O118 C117 1.264 . S
O119 Mg112 1.986 . S
O119 C123 1.246 . S
O120 Mg115 2.032 . S
O120 C123 1.259 1_556 S
O121 Mg112 2.114 . S
O121 C124 1.252 . S
O122 Mg112 2.251 . S
O122 Mg115 2.079 1_554 S
O122 C124 1.273 . S
C123 O119 1.246 . S
C123 O120 1.259 1_554 S
C124 O121 1.252 . S
C124 O122 1.273 . S
O125 Mg112 2.010 . S
O125 C117 1.249 . S
Mg126 O127 2.028 . S
Mg126 O133 1.986 . S
Mg126 O135 2.114 . S
Mg126 O136 2.251 . S
Mg126 O139 2.010 . S
O127 Mg126 2.028 . S
O127 C130 1.250 . S
O128 Mg129 2.028 . S
O128 C130 1.248 . S
Mg129 O128 2.028 . S
Mg129 O134 2.032 . S
Mg129 O136 2.079 . S
C130 O127 1.250 . S
C130 O128 1.248 . S
C131 O132 1.264 . S
C131 O139 1.249 . S
O132 C131 1.264 . S
O133 Mg126 1.986 . S
O133 C137 1.246 . S
O134 Mg129 2.032 . S
O134 C137 1.259 . S
O135 Mg126 2.114 . S
O135 C138 1.252 . S
O136 Mg126 2.251 . S
O136 Mg129 2.079 . S
O136 C138 1.273 . S
C137 O133 1.246 . S
C137 O134 1.259 . S
C138 O135 1.252 . S
C138 O136 1.273 . S
O139 Mg126 2.010 . S
O139 C131 1.249 . S
Mg140 O141 2.028 . S
Mg140 O147 1.986 . S
Mg140 O149 2.114 . S
Mg140 O150 2.251 . S
Mg140 O153 2.010 . S
O141 Mg140 2.028 . S
O141 C144 1.250 . S
O142 Mg143 2.028 . S
O142 C144 1.248 . S
Mg143 O142 2.028 . S
Mg143 O148 2.032 . S
Mg143 O150 2.079 . S
C144 O141 1.250 . S
C144 O142 1.248 . S
C145 O146 1.264 . S
C145 O153 1.249 . S
O146 C145 1.264 . S
O147 Mg140 1.986 . S
O147 C151 1.246 . S
O148 Mg143 2.032 . S
O148 C151 1.259 . S
O149 Mg140 2.114 . S
O149 C152 1.252 . S
O150 Mg140 2.251 . S
O150 Mg143 2.079 . S
O150 C152 1.273 . S
C151 O147 1.246 . S
C151 O148 1.259 . S
C152 O149 1.252 . S
C152 O150 1.273 . S
O153 Mg140 2.010 . S
O153 C145 1.249 . S
Mg154 O155 2.028 . S
Mg154 O161 1.986 . S
Mg154 O163 2.114 . S
Mg154 O164 2.251 . S
Mg154 O167 2.010 . S
O155 Mg154 2.028 . S
O155 C158 1.250 1_554 S
O156 Mg157 2.028 . S
O156 C158 1.248 . S
Mg157 O156 2.028 . S
Mg157 O162 2.032 . S
Mg157 O164 2.079 1_556 S
C158 O155 1.250 1_556 S
C158 O156 1.248 . S
C159 O160 1.264 . S
C159 O167 1.249 . S
O160 C159 1.264 . S
O161 Mg154 1.986 . S
O161 C165 1.246 . S
O162 Mg157 2.032 . S
O162 C165 1.259 1_556 S
O163 Mg154 2.114 . S
O163 C166 1.252 . S
O164 Mg154 2.251 . S
O164 Mg157 2.079 1_554 S
O164 C166 1.273 . S
C165 O161 1.246 . S
C165 O162 1.259 1_554 S
C166 O163 1.252 . S
C166 O164 1.273 . S
O167 Mg154 2.010 . S
O167 C159 1.249 . S
H168 C174 0.930 . S
H169 C177 0.930 . S
H170 C178 0.930 . S
H171 C179 0.930 . S
H172 C182 0.930 . S
H173 C183 0.930 . S
C174 H168 0.930 . S
C174 C175 1.355 . S
C174 C176 1.415 . S
C175 C174 1.355 . S
C175 C177 1.419 . S
C176 C174 1.415 . S
C176 C181 1.425 . S
C176 C183 1.409 . S
C177 H169 0.930 . S
C177 C175 1.419 . S
C177 C178 1.362 . S
C178 H170 0.930 . S
C178 C177 1.362 . S
C178 C181 1.409 . S
C179 H171 0.930 . S
C179 C180 1.355 . S
C179 C181 1.415 . S
C180 C179 1.355 . S
C180 C182 1.419 . S
C181 C176 1.425 . S
C181 C178 1.409 . S
C181 C179 1.415 . S
C182 H172 0.930 . S
C182 C180 1.419 . S
C182 C183 1.362 . S
C183 H173 0.930 . S
C183 C176 1.409 . S
C183 C182 1.362 . S
H184 C190 0.930 . S
H185 C193 0.930 . S
H186 C194 0.930 . S
H187 C195 0.930 . S
H188 C198 0.930 . S
H189 C199 0.930 . S
C190 H184 0.930 . S
C190 C191 1.355 . S
C190 C192 1.415 . S
C191 C190 1.355 . S
C191 C193 1.419 . S
C192 C190 1.415 . S
C192 C197 1.425 1_655 S
C192 C199 1.409 1_655 S
C193 H185 0.930 . S
C193 C191 1.419 . S
C193 C194 1.362 . S
C194 H186 0.930 . S
C194 C193 1.362 . S
C194 C197 1.409 1_655 S
C195 H187 0.930 . S
C195 C196 1.355 . S
C195 C197 1.415 . S
C196 C195 1.355 . S
C196 C198 1.419 . S
C197 C192 1.425 1_455 S
C197 C194 1.409 1_455 S
C197 C195 1.415 . S
C198 H188 0.930 . S
C198 C196 1.419 . S
C198 C199 1.362 . S
C199 H189 0.930 . S
C199 C192 1.409 1_455 S
C199 C198 1.362 . S
H200 C206 0.930 . S
H201 C209 0.930 . S
H202 C210 0.930 . S
H203 C211 0.930 . S
H204 C214 0.930 . S
H205 C215 0.930 . S
C206 H200 0.930 . S
C206 C207 1.355 1_554 S
C206 C208 1.415 . S
C207 C206 1.355 1_556 S
C207 C209 1.419 . S
C208 C206 1.415 . S
C208 C213 1.425 1_564 S
C208 C215 1.409 1_565 S
C209 H201 0.930 . S
C209 C207 1.419 . S
C209 C210 1.362 . S
C210 H202 0.930 . S
C210 C209 1.362 . S
C210 C213 1.409 1_565 S
C211 H203 0.930 . S
C211 C212 1.355 1_556 S
C211 C213 1.415 . S
C212 C211 1.355 1_554 S
C212 C214 1.419 . S
C213 C208 1.425 1_546 S
C213 C210 1.409 1_545 S
C213 C211 1.415 . S
C214 H204 0.930 . S
C214 C212 1.419 . S
C214 C215 1.362 . S
C215 H205 0.930 . S
C215 C208 1.409 1_545 S
C215 C214 1.362 . S
H216 C222 0.930 . S
H217 C225 0.930 . S
H218 C226 0.930 . S
H219 C227 0.930 . S
H220 C230 0.930 . S
H221 C231 0.930 . S
C222 H216 0.930 . S
C222 C223 1.355 . S
C222 C224 1.415 . S
C223 C222 1.355 . S
C223 C225 1.419 . S
C224 C222 1.415 . S
C224 C229 1.425 . S
C224 C231 1.409 . S
C225 H217 0.930 . S
C225 C223 1.419 . S
C225 C226 1.362 . S
C226 H218 0.930 . S
C226 C225 1.362 . S
C226 C229 1.409 . S
C227 H219 0.930 . S
C227 C228 1.355 . S
C227 C229 1.415 . S
C228 C227 1.355 . S
C228 C230 1.419 . S
C229 C224 1.425 . S
C229 C226 1.409 . S
C229 C227 1.415 . S
C230 H220 0.930 . S
C230 C228 1.419 . S
C230 C231 1.362 . S
C231 H221 0.930 . S
C231 C224 1.409 . S
C231 C230 1.362 . S
H232 C238 0.930 . S
H233 C241 0.930 . S
H234 C242 0.930 . S
H235 C243 0.930 . S
H236 C246 0.930 . S
H237 C247 0.930 . S
C238 H232 0.930 . S
C238 C239 1.355 . S
C238 C240 1.415 . S
C239 C238 1.355 . S
C239 C241 1.419 . S
C240 C238 1.415 . S
C240 C245 1.425 1_655 S
C240 C247 1.409 1_655 S
C241 H233 0.930 . S
C241 C239 1.419 . S
C241 C242 1.362 . S
C242 H234 0.930 . S
C242 C241 1.362 . S
C242 C245 1.409 1_655 S
C243 H235 0.930 . S
C243 C244 1.355 . S
C243 C245 1.415 . S
C244 C243 1.355 . S
C244 C246 1.419 . S
C245 C240 1.425 1_455 S
C245 C242 1.409 1_455 S
C245 C243 1.415 . S
C246 H236 0.930 . S
C246 C244 1.419 . S
C246 C247 1.362 . S
C247 H237 0.930 . S
C247 C240 1.409 1_455 S
C247 C246 1.362 . S
H248 C254 0.930 . S
H249 C257 0.930 . S
H250 C258 0.930 1_556 S
H251 C259 0.930 . S
H252 C262 0.930 . S
H253 C263 0.930 1_554 S
C254 H248 0.930 . S
C254 C255 1.355 . S
C254 C256 1.415 . S
C255 C254 1.355 . S
C255 C257 1.419 . S
C256 C254 1.415 . S
C256 C261 1.425 1_564 S
C256 C263 1.409 1_564 S
C257 H249 0.930 . S
C257 C255 1.419 . S
C257 C258 1.362 . S
C258 H250 0.930 1_554 S
C258 C257 1.362 . S
C258 C261 1.409 1_564 S
C259 H251 0.930 . S
C259 C260 1.355 . S
C259 C261 1.415 . S
C260 C259 1.355 . S
C260 C262 1.419 . S
C261 C256 1.425 1_546 S
C261 C258 1.409 1_546 S
C261 C259 1.415 . S
C262 H252 0.930 . S
C262 C260 1.419 . S
C262 C263 1.362 . S
C263 H253 0.930 1_556 S
C263 C256 1.409 1_546 S
C263 C262 1.362 . S
H264 C270 0.930 . S
H265 C273 0.930 . S
H266 C274 0.930 . S
H267 C275 0.930 . S
H268 C278 0.930 . S
H269 C279 0.930 . S
C270 H264 0.930 . S
C270 C271 1.355 . S
C270 C272 1.414 1_556 S
C271 C270 1.355 . S
C271 C273 1.419 . S
C272 C270 1.414 1_554 S
C272 C277 1.425 1_554 S
C272 C279 1.410 . S
C273 H265 0.930 . S
C273 C271 1.419 . S
C273 C274 1.362 . S
C274 H266 0.930 . S
C274 C273 1.362 . S
C274 C277 1.410 . S
C275 H267 0.930 . S
C275 C276 1.355 . S
C275 C277 1.414 1_554 S
C276 C275 1.355 . S
C276 C278 1.419 . S
C277 C272 1.425 1_556 S
C277 C274 1.410 . S
C277 C275 1.414 1_556 S
C278 H268 0.930 . S
C278 C276 1.419 . S
C278 C279 1.362 . S
C279 H269 0.930 . S
C279 C272 1.410 . S
C279 C278 1.362 . S
H280 C286 0.930 . S
H281 C289 0.930 . S
H282 C290 0.930 . S
H283 C291 0.930 . S
H284 C294 0.930 . S
H285 C295 0.930 . S
C286 H280 0.930 . S
C286 C287 1.355 . S
C286 C288 1.415 . S
C287 C286 1.355 . S
C287 C289 1.419 . S
C288 C286 1.415 . S
C288 C293 1.425 . S
C288 C295 1.409 . S
C289 H281 0.930 . S
C289 C287 1.419 . S
C289 C290 1.362 . S
C290 H282 0.930 . S
C290 C289 1.362 . S
C290 C293 1.409 . S
C291 H283 0.930 . S
C291 C292 1.355 . S
C291 C293 1.415 . S
C292 C291 1.355 . S
C292 C294 1.419 . S
C293 C288 1.425 . S
C293 C290 1.409 . S
C293 C291 1.415 . S
C294 H284 0.930 . S
C294 C292 1.419 . S
C294 C295 1.362 . S
C295 H285 0.930 . S
C295 C288 1.409 . S
C295 C294 1.362 . S
H296 C302 0.930 . S
H297 C305 0.930 . S
H298 C306 0.930 . S
H299 C307 0.930 . S
H300 C310 0.930 . S
H301 C311 0.930 . S
C302 H296 0.930 . S
C302 C303 1.355 . S
C302 C304 1.415 . S
C303 C302 1.355 . S
C303 C305 1.419 . S
C304 C302 1.415 . S
C304 C309 1.425 . S
C304 C311 1.409 . S
C305 H297 0.930 . S
C305 C303 1.419 . S
C305 C306 1.362 . S
C306 H298 0.930 . S
C306 C305 1.362 . S
C306 C309 1.409 . S
C307 H299 0.930 . S
C307 C308 1.355 . S
C307 C309 1.415 . S
C308 C307 1.355 . S
C308 C310 1.419 . S
C309 C304 1.425 . S
C309 C306 1.409 . S
C309 C307 1.415 . S
C310 H300 0.930 . S
C310 C308 1.419 . S
C310 C311 1.362 . S
C311 H301 0.930 . S
C311 C304 1.409 . S
C311 C310 1.362 . S
H312 C318 0.930 . S
H313 C321 0.930 . S
H314 C322 0.930 . S
H315 C323 0.930 . S
H316 C326 0.930 . S
H317 C327 0.930 . S
C318 H312 0.930 . S
C318 C319 1.355 . S
C318 C320 1.415 1_554 S
C319 C318 1.355 . S
C319 C321 1.419 . S
C320 C318 1.415 1_556 S
C320 C325 1.425 1_556 S
C320 C327 1.409 . S
C321 H313 0.930 . S
C321 C319 1.419 . S
C321 C322 1.362 . S
C322 H314 0.930 . S
C322 C321 1.362 . S
C322 C325 1.409 . S
C323 H315 0.930 . S
C323 C324 1.355 . S
C323 C325 1.415 1_556 S
C324 C323 1.355 . S
C324 C326 1.419 . S
C325 C320 1.425 1_554 S
C325 C322 1.409 . S
C325 C323 1.415 1_554 S
C326 H316 0.930 . S
C326 C324 1.419 . S
C326 C327 1.362 . S
C327 H317 0.930 . S
C327 C320 1.409 . S
C327 C326 1.362 . S
H328 C334 0.930 . S
H329 C337 0.930 . S
H330 C338 0.930 . S
H331 C339 0.930 . S
H332 C342 0.930 . S
H333 C343 0.930 . S
C334 H328 0.930 . S
C334 C335 1.355 . S
C334 C336 1.415 . S
C335 C334 1.355 . S
C335 C337 1.419 . S
C336 C334 1.415 . S
C336 C341 1.425 . S
C336 C343 1.409 . S
C337 H329 0.930 . S
C337 C335 1.419 . S
C337 C338 1.362 . S
C338 H330 0.930 . S
C338 C337 1.362 . S
C338 C341 1.409 . S
C339 H331 0.930 . S
C339 C340 1.355 . S
C339 C341 1.415 . S
C340 C339 1.355 . S
C340 C342 1.419 . S
C341 C336 1.425 . S
C341 C338 1.409 . S
C341 C339 1.415 . S
C342 H332 0.930 . S
C342 C340 1.419 . S
C342 C343 1.362 . S
C343 H333 0.930 . S
C343 C336 1.409 . S
C343 C342 1.362 . S
H344 C350 0.930 . S
H345 C353 0.930 . S
H346 C354 0.930 . S
H347 C355 0.930 . S
H348 C358 0.930 . S
H349 C359 0.930 . S
C350 H344 0.930 . S
C350 C351 1.355 . S
C350 C352 1.415 . S
C351 C350 1.355 . S
C351 C353 1.419 . S
C352 C350 1.415 . S
C352 C357 1.425 . S
C352 C359 1.409 . S
C353 H345 0.930 . S
C353 C351 1.419 . S
C353 C354 1.362 . S
C354 H346 0.930 . S
C354 C353 1.362 . S
C354 C357 1.409 . S
C355 H347 0.930 . S
C355 C356 1.355 . S
C355 C357 1.415 . S
C356 C355 1.355 . S
C356 C358 1.419 . S
C357 C352 1.425 . S
C357 C354 1.409 . S
C357 C355 1.415 . S
C358 H348 0.930 . S
C358 C356 1.419 . S
C358 C359 1.362 . S
C359 H349 0.930 . S
C359 C352 1.409 . S
C359 C358 1.362 . S
H360 C366 0.930 . S
H361 C369 0.930 . S
H362 C370 0.930 . S
H363 C371 0.930 . S
H364 C374 0.930 . S
H365 C375 0.930 . S
C366 H360 0.930 . S
C366 C367 1.355 . S
C366 C368 1.415 . S
C367 C366 1.355 . S
C367 C369 1.419 . S
C368 C366 1.415 . S
C368 C373 1.425 . S
C368 C375 1.409 . S
C369 H361 0.930 . S
C369 C367 1.419 . S
C369 C370 1.362 . S
C370 H362 0.930 . S
C370 C369 1.362 . S
C370 C373 1.409 . S
C371 H363 0.930 . S
C371 C372 1.355 . S
C371 C373 1.415 . S
C372 C371 1.355 . S
C372 C374 1.419 . S
C373 C368 1.425 . S
C373 C370 1.409 . S
C373 C371 1.415 . S
C374 H364 0.930 . S
C374 C372 1.419 . S
C374 C375 1.362 . S
C375 H365 0.930 . S
C375 C368 1.409 . S
C375 C374 1.362 . S
H376 C382 0.930 . S
H377 C385 0.930 . S
H378 C386 0.930 . S
H379 C387 0.930 . S
H380 C390 0.930 . S
H381 C391 0.930 . S
C382 H376 0.930 . S
C382 C383 1.355 . S
C382 C384 1.415 . S
C383 C382 1.355 . S
C383 C385 1.419 . S
C384 C382 1.415 . S
C384 C389 1.425 . S
C384 C391 1.409 . S
C385 H377 0.930 . S
C385 C383 1.419 . S
C385 C386 1.362 . S
C386 H378 0.930 . S
C386 C385 1.362 . S
C386 C389 1.409 . S
C387 H379 0.930 . S
C387 C388 1.355 . S
C387 C389 1.415 . S
C388 C387 1.355 . S
C388 C390 1.419 . S
C389 C384 1.425 . S
C389 C386 1.409 . S
C389 C387 1.415 . S
C390 H380 0.930 . S
C390 C388 1.419 . S
C390 C391 1.362 . S
C391 H381 0.930 . S
C391 C384 1.409 . S
C391 C390 1.362 . S
H392 C398 0.930 . S
H393 C401 0.930 . S
H394 C402 0.930 . S
H395 C403 0.930 . S
H396 C406 0.930 . S
H397 C407 0.930 . S
C398 H392 0.930 . S
C398 C399 1.355 . S
C398 C400 1.415 . S
C399 C398 1.355 . S
C399 C401 1.419 . S
C400 C398 1.415 . S
C400 C405 1.425 . S
C400 C407 1.409 . S
C401 H393 0.930 . S
C401 C399 1.419 . S
C401 C402 1.362 . S
C402 H394 0.930 . S
C402 C401 1.362 . S
C402 C405 1.409 . S
C403 H395 0.930 . S
C403 C404 1.355 . S
C403 C405 1.415 . S
C404 C403 1.355 . S
C404 C406 1.419 . S
C405 C400 1.425 . S
C405 C402 1.409 . S
C405 C403 1.415 . S
C406 H396 0.930 . S
C406 C404 1.419 . S
C406 C407 1.362 . S
C407 H397 0.930 . S
C407 C400 1.409 . S
C407 C406 1.362 . S
H408 C414 0.930 . S
H409 C417 0.930 . S
H410 C418 0.930 . S
H411 C419 0.930 . S
H412 C422 0.930 . S
H413 C423 0.930 . S
C414 H408 0.930 . S
C414 C415 1.355 . S
C414 C416 1.415 . S
C415 C414 1.355 . S
C415 C417 1.419 . S
C416 C414 1.415 . S
C416 C421 1.425 . S
C416 C423 1.409 . S
C417 H409 0.930 . S
C417 C415 1.419 . S
C417 C418 1.362 . S
C418 H410 0.930 . S
C418 C417 1.362 . S
C418 C421 1.409 . S
C419 H411 0.930 . S
C419 C420 1.355 . S
C419 C421 1.415 . S
C420 C419 1.355 . S
C420 C422 1.419 . S
C421 C416 1.425 . S
C421 C418 1.409 . S
C421 C419 1.415 . S
C422 H412 0.930 . S
C422 C420 1.419 . S
C422 C423 1.362 . S
C423 H413 0.930 . S
C423 C416 1.409 . S
C423 C422 1.362 . S
H424 C430 0.930 . S
H425 C433 0.930 . S
H426 C434 0.930 . S
H427 C435 0.930 . S
H428 C438 0.930 . S
H429 C439 0.930 . S
C430 H424 0.930 . S
C430 C431 1.355 . S
C430 C432 1.415 . S
C431 C430 1.355 . S
C431 C433 1.419 . S
C432 C430 1.415 . S
C432 C437 1.425 . S
C432 C439 1.409 . S
C433 H425 0.930 . S
C433 C431 1.419 . S
C433 C434 1.362 . S
C434 H426 0.930 . S
C434 C433 1.362 . S
C434 C437 1.409 . S
C435 H427 0.930 . S
C435 C436 1.355 . S
C435 C437 1.415 . S
C436 C435 1.355 . S
C436 C438 1.419 . S
C437 C432 1.425 . S
C437 C434 1.409 . S
C437 C435 1.415 . S
C438 H428 0.930 . S
C438 C436 1.419 . S
C438 C439 1.362 . S
C439 H429 0.930 . S
C439 C432 1.409 . S
C439 C438 1.362 . S
H440 C446 0.930 . S
H441 C449 0.930 . S
H442 C450 0.930 . S
H443 C451 0.930 . S
H444 C454 0.930 . S
H445 C455 0.930 . S
C446 H440 0.930 . S
C446 C447 1.355 . S
C446 C448 1.415 . S
C447 C446 1.355 . S
C447 C449 1.419 . S
C448 C446 1.415 . S
C448 C453 1.425 . S
C448 C455 1.409 . S
C449 H441 0.930 . S
C449 C447 1.419 . S
C449 C450 1.362 . S
C450 H442 0.930 . S
C450 C449 1.362 . S
C450 C453 1.409 . S
C451 H443 0.930 . S
C451 C452 1.355 . S
C451 C453 1.415 . S
C452 C451 1.355 . S
C452 C454 1.419 . S
C453 C448 1.425 . S
C453 C450 1.409 . S
C453 C451 1.415 . S
C454 H444 0.930 . S
C454 C452 1.419 . S
C454 C455 1.362 . S
C455 H445 0.930 . S
C455 C448 1.409 . S
C455 C454 1.362 . S
H456 C462 0.930 . S
H457 C465 0.930 . S
H458 C466 0.930 . S
H459 C467 0.930 . S
H460 C470 0.930 . S
H461 C471 0.930 . S
C462 H456 0.930 . S
C462 C463 1.355 . S
C462 C464 1.415 . S
C463 C462 1.355 . S
C463 C465 1.419 . S
C464 C462 1.415 . S
C464 C469 1.425 . S
C464 C471 1.409 . S
C465 H457 0.930 . S
C465 C463 1.419 . S
C465 C466 1.362 . S
C466 H458 0.930 . S
C466 C465 1.362 . S
C466 C469 1.409 . S
C467 H459 0.930 . S
C467 C468 1.355 . S
C467 C469 1.415 . S
C468 C467 1.355 . S
C468 C470 1.419 . S
C469 C464 1.425 . S
C469 C466 1.409 . S
C469 C467 1.415 . S
C470 H460 0.930 . S
C470 C468 1.419 . S
C470 C471 1.362 . S
C471 H461 0.930 . S
C471 C464 1.409 . S
C471 C470 1.362 . S
H472 C478 0.930 . S
H473 C481 0.930 . S
H474 C482 0.930 . S
H475 C483 0.930 . S
H476 C486 0.930 . S
H477 C487 0.930 . S
C478 H472 0.930 . S
C478 C479 1.355 . S
C478 C480 1.415 . S
C479 C478 1.355 . S
C479 C481 1.419 . S
C480 C478 1.415 . S
C480 C485 1.425 . S
C480 C487 1.409 . S
C481 H473 0.930 . S
C481 C479 1.419 . S
C481 C482 1.362 . S
C482 H474 0.930 . S
C482 C481 1.362 . S
C482 C485 1.409 . S
C483 H475 0.930 . S
C483 C484 1.355 . S
C483 C485 1.415 . S
C484 C483 1.355 . S
C484 C486 1.419 . S
C485 C480 1.425 . S
C485 C482 1.409 . S
C485 C483 1.415 . S
C486 H476 0.930 . S
C486 C484 1.419 . S
C486 C487 1.362 . S
C487 H477 0.930 . S
C487 C480 1.409 . S
C487 C486 1.362 . S
H488 C494 0.930 . S
H489 C497 0.930 . S
H490 C498 0.930 . S
H491 C499 0.930 . S
H492 C502 0.930 . S
H493 C503 0.930 . S
C494 H488 0.930 . S
C494 C495 1.355 . S
C494 C496 1.415 . S
C495 C494 1.355 . S
C495 C497 1.419 1_556 S
C496 C494 1.415 . S
C496 C501 1.425 1_556 S
C496 C503 1.409 . S
C497 H489 0.930 . S
C497 C495 1.419 1_554 S
C497 C498 1.362 . S
C498 H490 0.930 . S
C498 C497 1.362 . S
C498 C501 1.409 . S
C499 H491 0.930 . S
C499 C500 1.355 . S
C499 C501 1.415 . S
C500 C499 1.355 . S
C500 C502 1.419 1_554 S
C501 C496 1.425 1_554 S
C501 C498 1.409 . S
C501 C499 1.415 . S
C502 H492 0.930 . S
C502 C500 1.419 1_556 S
C502 C503 1.362 . S
C503 H493 0.930 . S
C503 C496 1.409 . S
C503 C502 1.362 . S
H504 C510 0.930 . S
H505 C513 0.930 . S
H506 C514 0.930 . S
H507 C515 0.930 . S
H508 C518 0.930 . S
H509 C519 0.930 . S
C510 H504 0.930 . S
C510 C511 1.355 . S
C510 C512 1.415 . S
C511 C510 1.355 . S
C511 C513 1.419 . S
C512 C510 1.415 . S
C512 C517 1.425 . S
C512 C519 1.409 . S
C513 H505 0.930 . S
C513 C511 1.419 . S
C513 C514 1.362 . S
C514 H506 0.930 . S
C514 C513 1.362 . S
C514 C517 1.409 . S
C515 H507 0.930 . S
C515 C516 1.355 . S
C515 C517 1.415 . S
C516 C515 1.355 . S
C516 C518 1.419 . S
C517 C512 1.425 . S
C517 C514 1.409 . S
C517 C515 1.415 . S
C518 H508 0.930 . S
C518 C516 1.419 . S
C518 C519 1.362 . S
C519 H509 0.930 . S
C519 C512 1.409 . S
C519 C518 1.362 . S
H520 C526 0.930 . S
H521 C529 0.930 . S
H522 C530 0.930 . S
H523 C531 0.930 . S
H524 C534 0.930 . S
H525 C535 0.930 . S
C526 H520 0.930 . S
C526 C527 1.355 . S
C526 C528 1.415 . S
C527 C526 1.355 . S
C527 C529 1.419 . S
C528 C526 1.415 . S
C528 C533 1.425 . S
C528 C535 1.409 . S
C529 H521 0.930 . S
C529 C527 1.419 . S
C529 C530 1.362 . S
C530 H522 0.930 . S
C530 C529 1.362 . S
C530 C533 1.409 . S
C531 H523 0.930 . S
C531 C532 1.355 . S
C531 C533 1.415 . S
C532 C531 1.355 . S
C532 C534 1.419 . S
C533 C528 1.425 . S
C533 C530 1.409 . S
C533 C531 1.415 . S
C534 H524 0.930 . S
C534 C532 1.419 . S
C534 C535 1.362 . S
C535 H525 0.930 . S
C535 C528 1.409 . S
C535 C534 1.362 . S
H536 C542 0.930 . S
H537 C545 0.930 . S
H538 C546 0.930 . S
H539 C547 0.930 . S
H540 C550 0.930 . S
H541 C551 0.930 . S
C542 H536 0.930 . S
C542 C543 1.355 1_556 S
C542 C544 1.415 . S
C543 C542 1.355 1_554 S
C543 C545 1.419 . S
C544 C542 1.415 . S
C544 C549 1.425 1_556 S
C544 C551 1.409 . S
C545 H537 0.930 . S
C545 C543 1.419 . S
C545 C546 1.362 . S
C546 H538 0.930 . S
C546 C545 1.362 . S
C546 C549 1.409 . S
C547 H539 0.930 . S
C547 C548 1.355 1_554 S
C547 C549 1.415 . S
C548 C547 1.355 1_556 S
C548 C550 1.419 . S
C549 C544 1.425 1_554 S
C549 C546 1.409 . S
C549 C547 1.415 . S
C550 H540 0.930 . S
C550 C548 1.419 . S
C550 C551 1.362 . S
C551 H541 0.930 . S
C551 C544 1.409 . S
C551 C550 1.362 . S
C175 C11 1.322 . S
C180 C137 1.373 . S
C191 C25 1.390 . S
C196 C151 1.335 . S
C207 C39 1.397 . S
C212 C165 1.359 . S
C223 C53 1.397 . S
C228 C95 1.363 . S
C239 C109 1.397 . S
C244 C67 1.362 . S
C255 C123 1.323 . S
C260 C81 1.375 . S
C271 C145 1.279 . S
C276 C5 1.312 . S
C287 C19 1.313 . S
C292 C159 1.280 . S
C303 C33 1.325 . S
C308 C89 1.296 . S
C319 C47 1.337 . S
C324 C103 1.346 . S
C335 C61 1.343 . S
C340 C117 1.345 . S
C351 C75 1.225 . S
C356 C131 1.258 . S
C367 C144 1.114 . S
C372 C4 1.086 . S
C383 C18 1.026 . S
C388 C158 1.040 . S
C399 C32 1.031 . S
C404 C88 1.054 . S
C415 C46 1.030 . S
C420 C102 1.028 . S
C431 C60 1.101 . S
C436 C116 1.121 . S
C447 C74 1.118 . S
C452 C130 1.093 . S
C463 C12 1.549 . S
C468 C96 1.559 . S
C479 C110 1.555 . S
C484 C26 1.554 . S
C495 C40 1.554 . S
C500 C124 1.555 . S
C511 C54 1.557 . S
C516 C138 1.551 . S
C527 C68 1.561 . S
C532 C152 1.546 . S
C543 C166 1.550 . S
C548 C82 1.554 . S
