# Generated by pormake.
# Topology uot, (4)-cn, num edge types: 1
# Building blocks:
#     Node 0, Type 0, BuildingBlock: QUQFOY_clean_sbu_3, # of connection points: 4
#     Node 1, Type 0, BuildingBlock: QUQFOY_clean_sbu_3, # of connection points: 4
#     Node 2, Type 0, BuildingBlock: QUQFOY_clean_sbu_3, # of connection points: 4
#     Node 3, Type 0, BuildingBlock: QUQFOY_clean_sbu_3, # of connection points: 4
#     Node 4, Type 0, BuildingBlock: QUQFOY_clean_sbu_3, # of connection points: 4
#     Node 5, Type 0, BuildingBlock: QUQFOY_clean_sbu_3, # of connection points: 4
#     Node 6, Type 0, BuildingBlock: QUQFOY_clean_sbu_3, # of connection points: 4
#     Node 7, Type 0, BuildingBlock: QUQFOY_clean_sbu_3, # of connection points: 4
#     Node 8, Type 0, BuildingBlock: QUQFOY_clean_sbu_3, # of connection points: 4
#     Node 9, Type 0, BuildingBlock: QUQFOY_clean_sbu_3, # of connection points: 4
#     Node 10, Type 0, BuildingBlock: QUQFOY_clean_sbu_3, # of connection points: 4
#     Node 11, Type 0, BuildingBlock: QUQFOY_clean_sbu_3, # of connection points: 4
#     Node 12, Type 0, BuildingBlock: QUQFOY_clean_sbu_3, # of connection points: 4
#     Node 13, Type 0, BuildingBlock: QUQFOY_clean_sbu_3, # of connection points: 4
#     Node 14, Type 0, BuildingBlock: QUQFOY_clean_sbu_3, # of connection points: 4
#     Node 15, Type 0, BuildingBlock: QUQFOY_clean_sbu_3, # of connection points: 4
#     Edge 16, Type (0, 0), BuildingBlock: XUDNAN_clean_linker_2, # of connection points: 2
#     Edge 17, Type (0, 0), BuildingBlock: XUDNAN_clean_linker_2, # of connection points: 2
#     Edge 18, Type (0, 0), BuildingBlock: XUDNAN_clean_linker_2, # of connection points: 2
#     Edge 19, Type (0, 0), BuildingBlock: XUDNAN_clean_linker_2, # of connection points: 2
#     Edge 20, Type (0, 0), BuildingBlock: XUDNAN_clean_linker_2, # of connection points: 2
#     Edge 21, Type (0, 0), BuildingBlock: XUDNAN_clean_linker_2, # of connection points: 2
#     Edge 22, Type (0, 0), BuildingBlock: XUDNAN_clean_linker_2, # of connection points: 2
#     Edge 23, Type (0, 0), BuildingBlock: XUDNAN_clean_linker_2, # of connection points: 2
#     Edge 24, Type (0, 0), BuildingBlock: XUDNAN_clean_linker_2, # of connection points: 2
#     Edge 25, Type (0, 0), BuildingBlock: XUDNAN_clean_linker_2, # of connection points: 2
#     Edge 26, Type (0, 0), BuildingBlock: XUDNAN_clean_linker_2, # of connection points: 2
#     Edge 27, Type (0, 0), BuildingBlock: XUDNAN_clean_linker_2, # of connection points: 2
#     Edge 28, Type (0, 0), BuildingBlock: XUDNAN_clean_linker_2, # of connection points: 2
#     Edge 29, Type (0, 0), BuildingBlock: XUDNAN_clean_linker_2, # of connection points: 2
#     Edge 30, Type (0, 0), BuildingBlock: XUDNAN_clean_linker_2, # of connection points: 2
#     Edge 31, Type (0, 0), BuildingBlock: XUDNAN_clean_linker_2, # of connection points: 2
#     Edge 32, Type (0, 0), BuildingBlock: XUDNAN_clean_linker_2, # of connection points: 2
#     Edge 33, Type (0, 0), BuildingBlock: XUDNAN_clean_linker_2, # of connection points: 2
#     Edge 34, Type (0, 0), BuildingBlock: XUDNAN_clean_linker_2, # of connection points: 2
#     Edge 35, Type (0, 0), BuildingBlock: XUDNAN_clean_linker_2, # of connection points: 2
#     Edge 36, Type (0, 0), BuildingBlock: XUDNAN_clean_linker_2, # of connection points: 2
#     Edge 37, Type (0, 0), BuildingBlock: XUDNAN_clean_linker_2, # of connection points: 2
#     Edge 38, Type (0, 0), BuildingBlock: XUDNAN_clean_linker_2, # of connection points: 2
#     Edge 39, Type (0, 0), BuildingBlock: XUDNAN_clean_linker_2, # of connection points: 2
#     Edge 40, Type (0, 0), BuildingBlock: XUDNAN_clean_linker_2, # of connection points: 2
#     Edge 41, Type (0, 0), BuildingBlock: XUDNAN_clean_linker_2, # of connection points: 2
#     Edge 42, Type (0, 0), BuildingBlock: XUDNAN_clean_linker_2, # of connection points: 2
#     Edge 43, Type (0, 0), BuildingBlock: XUDNAN_clean_linker_2, # of connection points: 2
#     Edge 44, Type (0, 0), BuildingBlock: XUDNAN_clean_linker_2, # of connection points: 2
#     Edge 45, Type (0, 0), BuildingBlock: XUDNAN_clean_linker_2, # of connection points: 2
#     Edge 46, Type (0, 0), BuildingBlock: XUDNAN_clean_linker_2, # of connection points: 2
#     Edge 47, Type (0, 0), BuildingBlock: XUDNAN_clean_linker_2, # of connection points: 2
# Relax obj value: 0.066
# Max RMSD: 0.086
# Mean RMSD: 0.086
data_MOF--net-uot--node1-QUQFOY_clean_sbu_3--edge1-XUDNAN_clean_linker_2
_symmetry_space_group_name_H-M    P1
_symmetry_Int_Tables_number       1
_symmetry_cell_setting            triclinic
loop_
_symmetry_equiv_pos_as_xyz
'x, y, z'
_cell_length_a     46.693868
_cell_length_b     46.238803
_cell_length_c     41.168679
_cell_angle_alpha  89.898562
_cell_angle_beta   89.858947
_cell_angle_gamma 90.163433
loop_
_atom_site_label
_atom_site_type_symbol
_atom_site_fract_x
_atom_site_fract_y
_atom_site_fract_z
_atom_type_partial_charge
C0 C 0.14191 0.40608 0.33648 0.0
O1 O 0.13877 0.41862 0.36366 0.0
Cd2 Cd 0.1731 0.45322 0.38368 0.0
O3 O 0.16507 0.40893 0.32037 0.0
Cd4 Cd 0.21311 0.43112 0.32509 0.0
C5 C 0.18071 0.49469 0.31396 0.0
O6 O 0.21952 0.43242 0.38364 0.0
O7 O 0.24645 0.46119 0.35587 0.0
O8 O 0.23325 0.38441 0.31338 0.0
C9 C 0.23923 0.45137 0.38348 0.0
O10 O 0.17312 0.4925 0.34365 0.0
C11 C 0.24989 0.39289 0.29084 0.0
O12 O 0.19382 0.47425 0.29954 0.0
O13 O 0.24908 0.41959 0.28341 0.0
C14 C 0.39815 0.83703 0.65659 0.0
O15 O 0.41607 0.84419 0.63468 0.0
Cd16 Cd 0.45333 0.81243 0.61631 0.0
O17 O 0.39789 0.81159 0.66863 0.0
Cd18 Cd 0.42007 0.76298 0.66409 0.0
C19 C 0.48194 0.79312 0.69149 0.0
O20 O 0.42614 0.76994 0.60726 0.0
O21 O 0.44116 0.72861 0.62371 0.0
O22 O 0.3708 0.75157 0.67648 0.0
C23 C 0.43814 0.74629 0.60042 0.0
O24 O 0.48388 0.80653 0.66445 0.0
C25 C 0.37592 0.72871 0.6925 0.0
O26 O 0.4607 0.77663 0.6977 0.0
O27 O 0.40198 0.72122 0.69528 0.0
C28 C 0.84604 0.57035 0.3202 0.0
O29 O 0.85358 0.54913 0.33782 0.0
Cd30 Cd 0.819 0.51572 0.36048 0.0
O31 O 0.81987 0.5743 0.313 0.0
Cd32 Cd 0.77206 0.55269 0.32079 0.0
C33 C 0.79504 0.48951 0.28767 0.0
O34 O 0.77888 0.54363 0.37841 0.0
O35 O 0.73869 0.5288 0.35859 0.0
O36 O 0.76122 0.60346 0.31653 0.0
C37 C 0.7548 0.5316 0.38312 0.0
O38 O 0.80762 0.48494 0.31458 0.0
C39 C 0.73854 0.60057 0.29995 0.0
O40 O 0.78189 0.51319 0.28242 0.0
O41 O 0.73097 0.57494 0.29276 0.0
C42 C 0.55634 0.12605 0.66228 0.0
O43 O 0.54219 0.12058 0.63668 0.0
Cd44 Cd 0.50874 0.15334 0.61193 0.0
O45 O 0.55498 0.1508 0.67577 0.0
Cd46 Cd 0.53273 0.19878 0.66651 0.0
C47 C 0.46743 0.16942 0.67936 0.0
O48 O 0.53405 0.1975 0.60787 0.0
O49 O 0.51051 0.23321 0.62807 0.0
O50 O 0.57941 0.21862 0.67819 0.0
C51 C 0.51965 0.22023 0.60304 0.0
O52 O 0.46959 0.15892 0.65087 0.0
C53 C 0.57078 0.23801 0.69765 0.0
O54 O 0.48805 0.18314 0.69254 0.0
O55 O 0.54412 0.23842 0.70405 0.0
C56 C 0.12107 0.57453 0.64336 0.0
O57 O 0.11892 0.56405 0.61499 0.0
Cd58 Cd 0.1556 0.53269 0.59422 0.0
O59 O 0.14395 0.57118 0.65968 0.0
Cd60 Cd 0.19294 0.55143 0.65427 0.0
C61 C 0.1627 0.48648 0.66027 0.0
O62 O 0.20048 0.55754 0.59612 0.0
O63 O 0.22692 0.52567 0.61981 0.0
O64 O 0.20605 0.59858 0.67402 0.0
C65 C 0.22126 0.54003 0.59439 0.0
O66 O 0.1556 0.49052 0.63071 0.0
C67 C 0.22639 0.59027 0.69208 0.0
O68 O 0.17515 0.50626 0.67652 0.0
O69 O 0.23119 0.56324 0.69341 0.0
C70 C 0.56386 0.85599 0.33009 0.0
O71 O 0.54586 0.86158 0.35238 0.0
Cd72 Cd 0.51036 0.82655 0.3687 0.0
O73 O 0.5654 0.83077 0.31779 0.0
Cd74 Cd 0.54592 0.78105 0.32313 0.0
C75 C 0.4843 0.8077 0.29255 0.0
O76 O 0.53761 0.7845 0.38084 0.0
O77 O 0.52179 0.74537 0.35883 0.0
O78 O 0.59624 0.7706 0.31761 0.0
C79 C 0.52509 0.76038 0.38428 0.0
O80 O 0.48087 0.82002 0.31997 0.0
C81 C 0.59324 0.74832 0.29999 0.0
O82 O 0.50664 0.79285 0.28658 0.0
O83 O 0.56781 0.74101 0.29259 0.0
C84 C 0.82636 0.40619 0.67083 0.0
O85 O 0.83563 0.42653 0.65282 0.0
Cd86 Cd 0.80598 0.46187 0.62625 0.0
O87 O 0.79978 0.40371 0.67734 0.0
Cd88 Cd 0.75459 0.42986 0.66666 0.0
C89 C 0.78216 0.49309 0.69631 0.0
O90 O 0.76435 0.43607 0.60942 0.0
O91 O 0.72496 0.4553 0.62588 0.0
O92 O 0.73268 0.38248 0.67204 0.0
C93 C 0.74194 0.45011 0.60256 0.0
O94 O 0.79581 0.49586 0.66967 0.0
C95 C 0.7128 0.39039 0.69115 0.0
O96 O 0.76726 0.47053 0.70215 0.0
O97 O 0.71233 0.41694 0.69907 0.0
C98 C 0.41099 0.13571 0.32118 0.0
O99 O 0.42698 0.12961 0.34517 0.0
Cd100 Cd 0.46131 0.16205 0.36892 0.0
O101 O 0.41128 0.16086 0.3084 0.0
Cd102 Cd 0.43371 0.20908 0.31615 0.0
C103 C 0.49916 0.1814 0.29967 0.0
O104 O 0.43444 0.20488 0.37412 0.0
O105 O 0.45459 0.24361 0.35621 0.0
O106 O 0.3866 0.22765 0.30435 0.0
C107 C 0.44761 0.2281 0.38038 0.0
O108 O 0.4985 0.16984 0.32779 0.0
C109 C 0.39487 0.24724 0.28479 0.0
O110 O 0.47778 0.19506 0.28825 0.0
O111 O 0.42158 0.24872 0.27893 0.0
C112 C 0.6194 0.89127 0.82927 0.0
O113 O 0.61106 0.90647 0.85309 0.0
Cd114 Cd 0.63935 0.94646 0.87093 0.0
O115 O 0.64405 0.89533 0.81669 0.0
Cd116 Cd 0.68772 0.9248 0.82712 0.0
C117 C 0.65122 0.98125 0.79803 0.0
O118 O 0.68481 0.9262 0.88576 0.0
O119 O 0.71174 0.9592 0.86435 0.0
O120 O 0.71352 0.87986 0.8227 0.0
C121 C 0.70367 0.94557 0.88953 0.0
O122 O 0.6389 0.98157 0.82569 0.0
C123 C 0.73314 0.88915 0.80401 0.0
O124 O 0.66947 0.96181 0.79122 0.0
O125 O 0.73153 0.91545 0.79517 0.0
C126 C 0.90169 0.35522 0.15848 0.0
O127 O 0.91922 0.36424 0.13713 0.0
Cd128 Cd 0.96122 0.33728 0.12348 0.0
O129 O 0.90497 0.33046 0.17162 0.0
Cd130 Cd 0.93664 0.28749 0.16645 0.0
C131 C -0.00978 0.32551 0.19952 0.0
O132 O 0.94477 0.29017 0.10834 0.0
O133 O 0.97464 0.26354 0.13464 0.0
O134 O 0.89301 0.25945 0.16598 0.0
C135 C 0.96498 0.27202 0.1075 0.0
O136 O -0.00765 0.33753 0.17172 0.0
C137 C 0.90088 0.24063 0.18653 0.0
O138 O 0.97031 0.30739 0.20539 0.0
O139 O 0.92573 0.24368 0.19858 0.0
C140 C 0.32021 0.07044 0.80266 0.0
O141 O 0.33228 0.05503 0.82422 0.0
Cd142 Cd 0.3079 0.01519 0.8503 0.0
O143 O 0.29415 0.06595 0.79505 0.0
Cd144 Cd 0.25227 0.03552 0.80857 0.0
C145 C 0.28945 0.97757 0.78114 0.0
O146 O 0.26256 0.03426 0.86603 0.0
O147 O 0.22655 0.00816 0.85106 0.0
O148 O 0.22799 0.08083 0.801 0.0
C149 C 0.24223 0.01746 0.87387 0.0
O150 O 0.30391 0.97903 0.80729 0.0
C151 C 0.20682 0.07072 0.7854 0.0
O152 O 0.27024 -0.0038 0.77464 0.0
O153 O 0.20677 0.04367 0.77983 0.0
C154 C 0.08695 0.63469 0.17438 0.0
O155 O 0.07686 0.62119 0.15016 0.0
Cd156 Cd 0.03776 0.64248 0.12169 0.0
O157 O 0.07881 0.66038 0.18051 0.0
Cd158 Cd 0.04939 0.70025 0.15852 0.0
C159 C -0.00569 0.66146 0.18677 0.0
O160 O 0.05373 0.68868 0.10123 0.0
O161 O 0.01949 0.71802 0.11392 0.0
O162 O 0.09311 0.7273 0.16341 0.0
C163 C 0.03426 0.70585 0.09197 0.0
O164 O 0.00038 0.64407 0.16381 0.0
C165 C 0.08275 0.74865 0.17867 0.0
O166 O 0.00873 0.68452 0.19102 0.0
O167 O 0.05604 0.74791 0.18477 0.0
C168 C 0.64373 0.08939 0.16931 0.0
O169 O 0.63178 0.07402 0.14768 0.0
Cd170 Cd 0.65562 0.03159 0.1271 0.0
O171 O 0.66908 0.08369 0.17853 0.0
Cd172 Cd 0.70967 0.05122 0.16835 0.0
C173 C 0.6689 -0.00149 0.20085 0.0
O174 O 0.70321 0.04432 0.1103 0.0
O175 O 0.7311 0.01384 0.13433 0.0
O176 O 0.73706 0.09515 0.1664 0.0
C177 C 0.72053 0.02332 0.10803 0.0
O178 O 0.65594 -0.00158 0.17363 0.0
C179 C 0.75638 0.08748 0.1862 0.0
O180 O 0.68856 0.0169 0.20682 0.0
O181 O 0.75423 0.06221 0.19828 0.0
C182 C 0.07284 0.33898 0.79543 0.0
O183 O 0.06477 0.35143 0.8213 0.0
Cd184 Cd 0.02829 0.32952 0.8535 0.0
O185 O 0.06416 0.31348 0.7889 0.0
Cd186 Cd 0.03622 0.27318 0.81378 0.0
C187 C 0.97898 0.31184 0.79367 0.0
O188 O 0.04601 0.28316 0.87058 0.0
O189 O 0.00947 0.25563 0.86133 0.0
O190 O 0.07844 0.24532 0.80277 0.0
C191 C 0.02684 0.26638 0.88166 0.0
O192 O -0.01282 0.32865 0.81632 0.0
C193 C 0.06594 0.22384 0.78992 0.0
O194 O -0.00704 0.28911 0.78672 0.0
O195 O 0.03882 0.22511 0.78765 0.0
C196 C 0.34436 0.90398 0.15706 0.0
O197 O 0.35231 0.92102 0.13452 0.0
Cd198 Cd 0.32366 0.96083 0.11623 0.0
O199 O 0.31943 0.90597 0.16957 0.0
Cd200 Cd 0.27451 0.9339 0.16226 0.0
C201 C 0.3098 -0.00727 0.19025 0.0
O202 O 0.27869 0.93927 0.10386 0.0
O203 O 0.2441 0.9631 0.12593 0.0
O204 O 0.25102 0.88753 0.16804 0.0
C205 C 0.25713 0.95546 0.10033 0.0
O206 O 0.32202 -0.00608 0.16257 0.0
C207 C 0.23126 0.89621 0.18685 0.0
O208 O 0.29237 0.97239 0.19714 0.0
O209 O 0.2321 0.92259 0.19542 0.0
C210 C 0.8855 0.63012 0.82666 0.0
O211 O 0.90218 0.62123 0.8488 0.0
Cd212 Cd 0.9453 0.64717 0.86104 0.0
O213 O 0.88973 0.65452 0.81303 0.0
Cd214 Cd 0.92118 0.69766 0.8177 0.0
C215 C 0.97233 0.65771 0.7832 0.0
O216 O 0.93187 0.69529 0.87527 0.0
O217 O 0.96139 0.72056 0.84642 0.0
O218 O 0.8774 0.72489 0.82074 0.0
C219 C 0.95312 0.71234 0.87433 0.0
O220 O 0.97447 0.64582 0.81106 0.0
C221 C 0.8841 0.74378 0.79965 0.0
O222 O 0.95318 0.67663 0.77768 0.0
O223 O 0.90859 0.74139 0.78634 0.0
H224 H 0.25211 0.3346 0.29882 0.0
H225 H 0.29566 0.40615 0.25142 0.0
H226 H 0.33513 0.37338 0.23579 0.0
H227 H 0.30989 0.30643 0.3351 0.0
H228 H 0.30014 0.26889 0.33072 0.0
H229 H 0.27277 0.29604 0.33161 0.0
H230 H 0.25355 0.27824 0.27608 0.0
H231 H 0.28085 0.25076 0.2751 0.0
H232 H 0.27753 0.27589 0.24181 0.0
H233 H 0.37347 0.33515 0.23457 0.0
H234 H 0.40661 0.2951 0.24731 0.0
H235 H 0.33735 0.24889 0.29513 0.0
C236 C 0.2695 0.34321 0.28423 0.0
C237 C 0.27085 0.37286 0.27627 0.0
C238 C 0.29412 0.38341 0.25755 0.0
C239 C 0.31659 0.36494 0.24852 0.0
C240 C 0.31516 0.33597 0.25798 0.0
C241 C 0.29194 0.32511 0.27505 0.0
C242 C 0.29686 0.29424 0.28574 0.0
C243 C 0.29481 0.29126 0.32298 0.0
C244 C 0.27596 0.27356 0.26865 0.0
C245 C 0.32714 0.28992 0.27375 0.0
C246 C 0.3372 0.31394 0.25718 0.0
C247 C 0.3656 0.31596 0.2468 0.0
C248 C 0.38429 0.29314 0.2542 0.0
C249 C 0.37451 0.26886 0.27211 0.0
C250 C 0.34538 0.26699 0.28105 0.0
H251 H 0.37376 0.66998 0.70019 0.0
H252 H 0.3243 0.74832 0.71301 0.0
H253 H 0.28182 0.7192 0.72732 0.0
H254 H 0.32335 0.63405 0.65851 0.0
H255 H 0.32983 0.5985 0.67491 0.0
H256 H 0.35808 0.62489 0.67451 0.0
H257 H 0.36432 0.61891 0.73668 0.0
H258 H 0.33594 0.59236 0.73726 0.0
H259 H 0.33391 0.62366 0.76318 0.0
H260 H 0.24334 0.68328 0.72865 0.0
H261 H 0.21101 0.6429 0.71503 0.0
H262 H 0.28412 0.5867 0.70129 0.0
C263 C 0.35425 0.68088 0.70737 0.0
C264 C 0.35225 0.7113 0.70593 0.0
C265 C 0.3262 0.72499 0.71419 0.0
C266 C 0.30205 0.70863 0.7226 0.0
C267 C 0.30429 0.6786 0.7226 0.0
C268 C 0.32975 0.66476 0.71532 0.0
C269 C 0.32521 0.63243 0.71178 0.0
C270 C 0.33466 0.62188 0.67792 0.0
C271 C 0.34077 0.61586 0.73885 0.0
C272 C 0.293 0.63056 0.71606 0.0
C273 C 0.28152 0.65736 0.72321 0.0
C274 C 0.25206 0.66202 0.72402 0.0
C275 C 0.23385 0.63901 0.71617 0.0
C276 C 0.24516 0.61172 0.70766 0.0
C277 C 0.27501 0.60714 0.70881 0.0
H278 H 0.59504 0.69051 0.28551 0.0
H279 H 0.64818 0.76714 0.29469 0.0
H280 H 0.6914 0.73751 0.28673 0.0
H281 H 0.63724 0.64667 0.33171 0.0
H282 H 0.63231 0.614 0.30854 0.0
H283 H 0.60522 0.64152 0.308 0.0
H284 H 0.60832 0.64412 0.24523 0.0
H285 H 0.63539 0.61638 0.24553 0.0
H286 H 0.64246 0.65057 0.22595 0.0
H287 H 0.72842 0.69982 0.28693 0.0
H288 H 0.7574 0.65599 0.29507 0.0
H289 H 0.68113 0.60285 0.2859 0.0
C290 C 0.61574 0.7011 0.28465 0.0
C291 C 0.61836 0.73109 0.29038 0.0
C292 C 0.64578 0.74418 0.29019 0.0
C293 C 0.67042 0.72756 0.28552 0.0
C294 C 0.66727 0.69788 0.28104 0.0
C295 C 0.64065 0.6847 0.28036 0.0
C296 C 0.64347 0.65204 0.27918 0.0
C297 C 0.6287 0.63774 0.30861 0.0
C298 C 0.63172 0.64007 0.24705 0.0
C299 C 0.67575 0.64897 0.28083 0.0
C300 C 0.68901 0.67574 0.28129 0.0
C301 C 0.7184 0.67871 0.28586 0.0
C302 C 0.73465 0.65371 0.29065 0.0
C303 C 0.72149 0.6261 0.29085 0.0
C304 C 0.69177 0.62368 0.28513 0.0
H305 H 0.62774 0.24283 0.6845 0.0
H306 H 0.55804 0.28548 0.73502 0.0
H307 H 0.58947 0.32761 0.74529 0.0
H308 H 0.68772 0.27317 0.73452 0.0
H309 H 0.71043 0.27647 0.69922 0.0
H310 H 0.68423 0.24782 0.70154 0.0
H311 H 0.66269 0.26482 0.64679 0.0
H312 H 0.68849 0.29364 0.64447 0.0
H313 H 0.65078 0.3017 0.64262 0.0
H314 H 0.62624 0.36771 0.74269 0.0
H315 H 0.66525 0.40176 0.72831 0.0
H316 H 0.71009 0.33253 0.67878 0.0
C317 C 0.6193 0.26062 0.69864 0.0
C318 C 0.5905 0.26084 0.70911 0.0
C319 C 0.58013 0.28477 0.727 0.0
C320 C 0.59784 0.30878 0.73296 0.0
C321 C 0.62585 0.30833 0.72111 0.0
C322 C 0.63659 0.28468 0.70463 0.0
C323 C 0.66627 0.29057 0.69137 0.0
C324 C 0.68847 0.27084 0.70765 0.0
C325 C 0.66707 0.28751 0.65412 0.0
C326 C 0.67012 0.32167 0.70171 0.0
C327 C 0.64684 0.33144 0.71932 0.0
C328 C 0.6448 0.36013 0.72944 0.0
C329 C 0.667 0.37932 0.72108 0.0
C330 C 0.6907 0.36976 0.70248 0.0
C331 C 0.69237 0.34045 0.69322 0.0
H332 H 0.74114 0.83304 0.8215 0.0
H333 H 0.78008 0.9029 0.76628 0.0
H334 H 0.82216 0.87186 0.75514 0.0
H335 H 0.80327 0.81032 0.86011 0.0
H336 H 0.7943 0.77239 0.85923 0.0
H337 H 0.76629 0.79899 0.8596 0.0
H338 H 0.74506 0.77712 0.80689 0.0
H339 H 0.77298 0.75032 0.80642 0.0
H340 H 0.76756 0.77323 0.77153 0.0
H341 H 0.86163 0.83366 0.75373 0.0
H342 H 0.89458 0.79248 0.76277 0.0
H343 H 0.82887 0.7491 0.81962 0.0
C344 C 0.75826 0.84174 0.80658 0.0
C345 C 0.75731 0.87034 0.79464 0.0
C346 C 0.78033 0.88096 0.77553 0.0
C347 C 0.80428 0.86349 0.76907 0.0
C348 C 0.80471 0.8355 0.78178 0.0
C349 C 0.78218 0.82474 0.80003 0.0
C350 C 0.78834 0.79474 0.81272 0.0
C351 C 0.78804 0.7941 0.85012 0.0
C352 C 0.76723 0.77254 0.79853 0.0
C353 C 0.81816 0.79044 0.79941 0.0
C354 C 0.82724 0.81395 0.78131 0.0
C355 C 0.8546 0.81505 0.76762 0.0
C356 C 0.87316 0.7916 0.77288 0.0
C357 C 0.86428 0.76764 0.79191 0.0
C358 C 0.83631 0.76708 0.80492 0.0
H359 H 0.76305 0.14282 0.1653 0.0
H360 H 0.80384 0.07686 0.22415 0.0
H361 H 0.84462 0.11016 0.23411 0.0
H362 H 0.82511 0.16789 0.12656 0.0
H363 H 0.81409 0.20522 0.12603 0.0
H364 H 0.78758 0.17693 0.12594 0.0
H365 H 0.76406 0.19884 0.17742 0.0
H366 H 0.79053 0.22726 0.17766 0.0
H367 H 0.78551 0.20489 0.21313 0.0
H368 H 0.88234 0.15052 0.23454 0.0
H369 H 0.91319 0.19345 0.22497 0.0
H370 H 0.84635 0.23161 0.16586 0.0
C371 C 0.78038 0.13536 0.18058 0.0
C372 C 0.78029 0.10726 0.19398 0.0
C373 C 0.80347 0.09837 0.21372 0.0
C374 C 0.82667 0.11713 0.21952 0.0
C375 C 0.82615 0.14466 0.20555 0.0
C376 C 0.80348 0.15368 0.18659 0.0
C377 C 0.80832 0.18368 0.1731 0.0
C378 C 0.80882 0.18339 0.1357 0.0
C379 C 0.78576 0.20492 0.18612 0.0
C380 C 0.83756 0.19007 0.18688 0.0
C381 C 0.84753 0.16751 0.20577 0.0
C382 C 0.8746 0.16839 0.22001 0.0
C383 C 0.89196 0.19282 0.21447 0.0
C384 C 0.88214 0.21586 0.19471 0.0
C385 C 0.85446 0.21444 0.18118 0.0
H386 H 0.12377 0.21842 0.78984 0.0
H387 H 0.04568 0.17124 0.76831 0.0
H388 H 0.0743 0.12716 0.75766 0.0
H389 H 0.17085 0.18106 0.73075 0.0
H390 H 0.20069 0.18196 0.75843 0.0
H391 H 0.17435 0.21037 0.75929 0.0
H392 H 0.16574 0.20076 0.82064 0.0
H393 H 0.19189 0.17235 0.81995 0.0
H394 H 0.15601 0.16487 0.83394 0.0
H395 H 0.11155 0.08697 0.75579 0.0
H396 H 0.15329 0.05478 0.76389 0.0
H397 H 0.20585 0.12938 0.78719 0.0
C398 C 0.11264 0.19902 0.78219 0.0
C399 C 0.08253 0.19823 0.77982 0.0
C400 C 0.06879 0.17233 0.77008 0.0
C401 C 0.08488 0.14724 0.76393 0.0
C402 C 0.11459 0.14863 0.76735 0.0
C403 C 0.12827 0.174 0.77605 0.0
C404 C 0.15998 0.16955 0.78103 0.0
C405 C 0.1775 0.18675 0.75586 0.0
C406 C 0.1689 0.17733 0.81595 0.0
C407 C 0.16197 0.13745 0.77498 0.0
C408 C 0.13575 0.12572 0.76656 0.0
C409 C 0.13225 0.09603 0.76188 0.0
C410 C 0.15604 0.07792 0.76652 0.0
C411 C 0.18275 0.08962 0.77614 0.0
C412 C 0.18573 0.1198 0.77968 0.0
H413 H 0.22693 0.83848 0.17518 0.0
H414 H 0.18095 0.9106 0.21756 0.0
H415 H 0.13832 0.87928 0.22497 0.0
H416 H 0.17142 0.81209 0.12937 0.0
H417 H 0.17991 0.7744 0.13491 0.0
H418 H 0.20777 0.80119 0.1374 0.0
H419 H 0.22128 0.78299 0.19496 0.0
H420 H 0.19358 0.75587 0.19253 0.0
H421 H 0.1941 0.78088 0.22606 0.0
H422 H 0.09892 0.84115 0.22141 0.0
H423 H 0.06731 0.79945 0.20895 0.0
H424 H 0.14016 0.75334 0.16912 0.0
C425 C 0.20815 0.84756 0.18674 0.0
C426 C 0.20724 0.87692 0.19586 0.0
C427 C 0.18215 0.88806 0.2106 0.0
C428 C 0.15784 0.87045 0.21488 0.0
C429 C 0.15919 0.84175 0.20461 0.0
C430 C 0.18388 0.83035 0.19121 0.0
C431 C 0.17944 0.79959 0.18 0.0
C432 C 0.18495 0.79668 0.14325 0.0
C433 C 0.19821 0.77859 0.19956 0.0
C434 C 0.14813 0.7957 0.18814 0.0
C435 C 0.13676 0.82004 0.20262 0.0
C436 C 0.10773 0.82182 0.21053 0.0
C437 C 0.08993 0.79811 0.20329 0.0
C438 C 0.10128 0.77317 0.18812 0.0
C439 C 0.13081 0.77201 0.18088 0.0
H440 H 0.16687 0.49894 0.24975 0.0
H441 H 0.17582 0.54926 0.33797 0.0
H442 H 0.15841 0.59262 0.30908 0.0
H443 H 0.18452 0.55758 0.19072 0.0
H444 H 0.15757 0.54554 0.1625 0.0
H445 H 0.17527 0.51976 0.18843 0.0
H446 H 0.126 0.50231 0.21016 0.0
H447 H 0.10819 0.52803 0.18444 0.0
H448 H 0.10167 0.52824 0.22761 0.0
H449 H 0.13614 0.62898 0.27255 0.0
H450 H 0.10756 0.65532 0.232 0.0
H451 H 0.11074 0.58071 0.16811 0.0
C452 C 0.16592 0.51932 0.26265 0.0
C453 C 0.17298 0.52099 0.29589 0.0
C454 C 0.17061 0.54769 0.3124 0.0
C455 C 0.16092 0.57242 0.29617 0.0
C456 C 0.15353 0.56995 0.26353 0.0
C457 C 0.15578 0.54407 0.24695 0.0
C458 C 0.14328 0.54641 0.21315 0.0
C459 C 0.16655 0.54207 0.18717 0.0
C460 C 0.11831 0.52499 0.2086 0.0
C461 C 0.13291 0.57739 0.21369 0.0
C462 C 0.13959 0.59074 0.24271 0.0
C463 C 0.13104 0.61889 0.24957 0.0
C464 C 0.11477 0.63366 0.22636 0.0
C465 C 0.10687 0.62008 0.19686 0.0
C466 C 0.11655 0.59175 0.19032 0.0
H467 H 0.53456 0.81881 0.68454 0.0
H468 H 0.47692 0.78207 0.75661 0.0
H469 H 0.50901 0.79889 0.80022 0.0
H470 H 0.6023 0.80317 0.72979 0.0
H471 H 0.61851 0.83655 0.71636 0.0
H472 H 0.59301 0.81819 0.69079 0.0
H473 H 0.56246 0.86484 0.68803 0.0
H474 H 0.58765 0.88323 0.71375 0.0
H475 H 0.55041 0.88142 0.72522 0.0
H476 H 0.54266 0.82671 0.83573 0.0
H477 H 0.57819 0.85969 0.86055 0.0
H478 H 0.61556 0.87565 0.76565 0.0
C479 C 0.52903 0.81367 0.70946 0.0
C480 C 0.50322 0.79915 0.71716 0.0
C481 C 0.49667 0.79299 0.75008 0.0
C482 C 0.51475 0.80248 0.77505 0.0
C483 C 0.53956 0.81757 0.76665 0.0
C484 C 0.54701 0.82263 0.73463 0.0
C485 C 0.57393 0.84084 0.73215 0.0
C486 C 0.59839 0.82365 0.71634 0.0
C487 C 0.56825 0.86925 0.71371 0.0
C488 C 0.57974 0.84628 0.76776 0.0
C489 C 0.55972 0.8326 0.78729 0.0
C490 C 0.55892 0.8369 0.82079 0.0
C491 C 0.57903 0.85575 0.83464 0.0
C492 C 0.59979 0.86977 0.81503 0.0
C493 C 0.60038 0.86457 0.78128 0.0
H494 H 0.8745 0.35427 0.21714 0.0
H495 H 0.87705 0.3999 0.12507 0.0
H496 H 0.84145 0.43482 0.14579 0.0
H497 H 0.79739 0.36875 0.23795 0.0
H498 H 0.80595 0.37392 0.28022 0.0
H499 H 0.82664 0.34911 0.25598 0.0
H500 H 0.8732 0.37637 0.27161 0.0
H501 H 0.85273 0.40108 0.29587 0.0
H502 H 0.87576 0.41473 0.26412 0.0
H503 H 0.81063 0.46813 0.17865 0.0
H504 H 0.79151 0.49943 0.22211 0.0
H505 H 0.81079 0.43301 0.29324 0.0
C506 C 0.86683 0.37105 0.20099 0.0
C507 C 0.87821 0.37422 0.1694 0.0
C508 C 0.86844 0.39703 0.14932 0.0
C509 C 0.84807 0.41681 0.16079 0.0
C510 C 0.83775 0.41351 0.1924 0.0
C511 C 0.84691 0.39122 0.21225 0.0
C512 C 0.83595 0.3948 0.24661 0.0
C513 C 0.81524 0.37018 0.25572 0.0
C514 C 0.86089 0.39689 0.27096 0.0
C515 C 0.8203 0.42326 0.24338 0.0
C516 C 0.82081 0.4333 0.21174 0.0
C517 C 0.80967 0.46027 0.20341 0.0
C518 C 0.79876 0.47788 0.22825 0.0
C519 C 0.79965 0.46863 0.26103 0.0
C520 C 0.80962 0.44056 0.26837 0.0
H521 H 0.46263 0.14754 0.74059 0.0
H522 H 0.41307 0.17667 0.65803 0.0
H523 H 0.36853 0.16059 0.68526 0.0
H524 H 0.42618 0.08357 0.74993 0.0
H525 H 0.42759 0.08213 0.79365 0.0
H526 H 0.45474 0.1015 0.77143 0.0
H527 H 0.44367 0.14792 0.80424 0.0
H528 H 0.41655 0.1286 0.82681 0.0
H529 H 0.40753 0.16149 0.80566 0.0
H530 H 0.33062 0.13658 0.71784 0.0
H531 H 0.30187 0.10367 0.75187 0.0
H532 H 0.37629 0.08695 0.81212 0.0
C533 C 0.44222 0.15149 0.72896 0.0
C534 C 0.44095 0.16388 0.69768 0.0
C535 C 0.4142 0.16758 0.68227 0.0
C536 C 0.38888 0.15862 0.69758 0.0
C537 C 0.3908 0.14569 0.72809 0.0
C538 C 0.41678 0.142 0.74362 0.0
C539 C 0.41337 0.12381 0.77407 0.0
C540 C 0.43154 0.09612 0.77212 0.0
C541 C 0.42071 0.14152 0.8045 0.0
C542 C 0.38164 0.11704 0.77258 0.0
C543 C 0.36895 0.13046 0.7463 0.0
C544 C 0.34021 0.12624 0.73874 0.0
C545 C 0.32407 0.10741 0.75822 0.0
C546 C 0.33681 0.09265 0.78469 0.0
C547 C 0.36587 0.09802 0.79221 0.0
H548 H 0.15267 0.47741 0.72488 0.0
H549 H 0.15344 0.43413 0.63147 0.0
H550 H 0.13551 0.38942 0.65752 0.0
H551 H 0.1714 0.41389 0.77575 0.0
H552 H 0.14717 0.42457 0.80767 0.0
H553 H 0.16415 0.45166 0.78261 0.0
H554 H 0.11437 0.47247 0.76776 0.0
H555 H 0.09726 0.44544 0.79261 0.0
H556 H 0.08766 0.44892 0.75041 0.0
H557 H 0.11372 0.35097 0.69268 0.0
H558 H 0.08739 0.32238 0.73371 0.0
H559 H 0.09904 0.39157 0.80371 0.0
C560 C 0.1498 0.45828 0.71009 0.0
C561 C 0.15471 0.45905 0.67626 0.0
C562 C 0.1499 0.43389 0.65748 0.0
C563 C 0.13986 0.40838 0.67207 0.0
C564 C 0.13463 0.4085 0.7054 0.0
C565 C 0.13938 0.4328 0.72417 0.0
C566 C 0.12926 0.42822 0.75876 0.0
C567 C 0.15451 0.42966 0.7826 0.0
C568 C 0.10575 0.45005 0.7679 0.0
C569 C 0.11742 0.39782 0.75629 0.0
C570 C 0.1212 0.38662 0.72549 0.0
C571 C 0.1109 0.35938 0.71699 0.0
C572 C 0.09595 0.34331 0.74047 0.0
C573 C 0.09113 0.35473 0.77193 0.0
C574 C 0.10245 0.38217 0.77994 0.0
H575 H 0.34731 0.88399 0.21923 0.0
H576 H 0.38843 0.87754 0.12499 0.0
H577 H 0.4254 0.84561 0.14858 0.0
H578 H 0.41005 0.89208 0.26239 0.0
H579 H 0.39844 0.87219 0.29776 0.0
H580 H 0.37251 0.88988 0.27246 0.0
H581 H 0.34558 0.84127 0.26479 0.0
H582 H 0.37151 0.82338 0.29016 0.0
H583 H 0.3647 0.81023 0.24971 0.0
H584 H 0.46005 0.81807 0.18332 0.0
H585 H 0.49206 0.80112 0.227 0.0
H586 H 0.42967 0.82821 0.29902 0.0
C587 C 0.36363 0.87514 0.20339 0.0
C588 C 0.36485 0.88279 0.17023 0.0
C589 C 0.38706 0.8717 0.15044 0.0
C590 C 0.40801 0.85343 0.16357 0.0
C591 C 0.40653 0.84672 0.19657 0.0
C592 C 0.38499 0.8574 0.21626 0.0
C593 C 0.39022 0.85009 0.25159 0.0
C594 C 0.39298 0.8777 0.27224 0.0
C595 C 0.3666 0.83004 0.26483 0.0
C596 C 0.4185 0.83438 0.24884 0.0
C597 C 0.4272 0.832 0.21685 0.0
C598 C 0.45332 0.81953 0.20843 0.0
C599 C 0.47134 0.80991 0.23342 0.0
C600 C 0.46337 0.81336 0.26641 0.0
C601 C 0.43631 0.82518 0.27403 0.0
H602 H 0.80185 0.54832 0.68893 0.0
H603 H 0.77467 0.48619 0.7619 0.0
H604 H 0.79244 0.51863 0.80501 0.0
H605 H 0.86524 0.56566 0.72242 0.0
H606 H 0.86494 0.60367 0.71266 0.0
H607 H 0.84505 0.57866 0.68811 0.0
H608 H 0.79852 0.60777 0.69808 0.0
H609 H 0.81837 0.63321 0.72244 0.0
H610 H 0.78725 0.61536 0.73909 0.0
H611 H 0.82219 0.55247 0.83857 0.0
H612 H 0.85727 0.58757 0.8604 0.0
H613 H 0.86266 0.62891 0.76596 0.0
C614 C 0.79876 0.54198 0.71403 0.0
C615 C 0.7869 0.51477 0.72209 0.0
C616 C 0.78345 0.50707 0.75518 0.0
C617 C 0.79353 0.52535 0.77984 0.0
C618 C 0.80636 0.55147 0.77097 0.0
C619 C 0.80837 0.56009 0.73887 0.0
C620 C 0.82533 0.58787 0.73545 0.0
C621 C 0.85169 0.58369 0.71337 0.0
C622 C 0.80622 0.61251 0.72304 0.0
C623 C 0.83392 0.59269 0.77041 0.0
C624 C 0.82261 0.57162 0.79062 0.0
C625 C 0.83045 0.5696 0.82321 0.0
C626 C 0.8505 0.58948 0.83535 0.0
C627 C 0.86228 0.61116 0.81496 0.0
C628 C 0.85337 0.61306 0.78231 0.0
H629 H 0.5871 0.10424 0.16153 0.0
H630 H 0.66349 0.12562 0.21659 0.0
H631 H 0.63513 0.15785 0.25142 0.0
H632 H 0.5522 0.17787 0.16931 0.0
H633 H 0.51712 0.1618 0.17307 0.0
H634 H 0.5442 0.14445 0.14869 0.0
H635 H 0.53763 0.09736 0.18212 0.0
H636 H 0.51079 0.11455 0.20669 0.0
H637 H 0.54167 0.0985 0.22565 0.0
H638 H 0.5979 0.1792 0.28666 0.0
H639 H 0.55409 0.19184 0.31732 0.0
H640 H 0.50181 0.16001 0.23824 0.0
C641 C 0.59803 0.11642 0.18023 0.0
C642 C 0.62753 0.11232 0.18631 0.0
C643 C 0.64093 0.12834 0.21139 0.0
C644 C 0.62502 0.14683 0.23129 0.0
C645 C 0.5958 0.14951 0.22549 0.0
C646 C 0.58246 0.13519 0.20022 0.0
C647 C 0.55034 0.13981 0.20114 0.0
C648 C 0.54039 0.15701 0.17127 0.0
C649 C 0.53418 0.11084 0.20409 0.0
C650 C 0.54763 0.15761 0.23185 0.0
C651 C 0.57417 0.16316 0.24535 0.0
C652 C 0.57705 0.1759 0.27584 0.0
C653 C 0.55215 0.18288 0.29313 0.0
C654 C 0.52487 0.17746 0.27965 0.0
C655 C 0.52256 0.16525 0.24841 0.0
H656 H 0.62306 0.03285 0.80619 0.0
H657 H 0.65929 0.97658 0.73253 0.0
H658 H 0.64074 0.00878 0.68969 0.0
H659 H 0.55936 0.04972 0.76547 0.0
H660 H 0.5583 0.08704 0.77796 0.0
H661 H 0.57592 0.06064 0.80304 0.0
H662 H 0.62269 0.09093 0.80132 0.0
H663 H 0.60513 0.11757 0.77638 0.0
H664 H 0.63789 0.10104 0.76262 0.0
H665 H 0.61377 0.0439 0.65497 0.0
H666 H 0.58428 0.08262 0.63065 0.0
H667 H 0.56845 0.11792 0.72657 0.0
C668 C 0.62742 0.02752 0.78106 0.0
C669 C 0.64258 0.00218 0.77271 0.0
C670 C 0.64787 -0.00404 0.73953 0.0
C671 C 0.63735 0.01406 0.715 0.0
C672 C 0.62203 0.03856 0.72404 0.0
C673 C 0.61749 0.04561 0.75626 0.0
C674 C 0.60002 0.07303 0.75937 0.0
C675 C 0.57173 0.06724 0.77753 0.0
C676 C 0.61748 0.09707 0.7759 0.0
C677 C 0.59484 0.07985 0.72388 0.0
C678 C 0.6076 0.05962 0.70391 0.0
C679 C 0.60412 0.06019 0.6703 0.0
C680 C 0.58725 0.08213 0.65674 0.0
C681 C 0.57443 0.10335 0.67673 0.0
C682 C 0.57849 0.10226 0.71069 0.0
H683 H 0.13211 0.39568 0.2723 0.0
H684 H 0.09698 0.3803 0.36847 0.0
H685 H 0.05541 0.35524 0.34393 0.0
H686 H 0.06623 0.41283 0.23553 0.0
H687 H 0.07477 0.39629 0.19711 0.0
H688 H 0.10298 0.41029 0.22235 0.0
H689 H 0.12791 0.36028 0.22184 0.0
H690 H 0.09981 0.34612 0.19647 0.0
H691 H 0.10816 0.32861 0.23442 0.0
H692 H 0.01715 0.33292 0.3085 0.0
H693 H 0.98376 0.31788 0.26515 0.0
H694 H 0.043 0.35074 0.19242 0.0
C695 C 0.11594 0.38656 0.28825 0.0
C696 C 0.11789 0.38957 0.3223 0.0
C697 C 0.09592 0.37807 0.34232 0.0
C698 C 0.07232 0.36376 0.32861 0.0
C699 C 0.07091 0.36146 0.29487 0.0
C700 C 0.09207 0.37273 0.27498 0.0
C701 C 0.08455 0.36931 0.23945 0.0
C702 C 0.08197 0.39894 0.22264 0.0
C703 C 0.10641 0.34992 0.22203 0.0
C704 C 0.05572 0.35453 0.24242 0.0
C705 C 0.04839 0.34981 0.27455 0.0
C706 C 0.02268 0.33649 0.28326 0.0
C707 C 0.00389 0.32799 0.25848 0.0
C708 C 0.01073 0.33325 0.22543 0.0
C709 C 0.03708 0.34658 0.21745 0.0
H710 H 0.31442 0.92506 0.79165 0.0
H711 H 0.28417 0.98193 0.71524 0.0
H712 H 0.30588 0.94987 0.67405 0.0
H713 H 0.3803 0.90976 0.7591 0.0
H714 H 0.38125 0.8722 0.77082 0.0
H715 H 0.36035 0.89743 0.79405 0.0
H716 H 0.31491 0.86604 0.78569 0.0
H717 H 0.33577 0.84041 0.76277 0.0
H718 H 0.30418 0.85626 0.74512 0.0
H719 H 0.33789 0.91641 0.64241 0.0
H720 H 0.37213 0.87991 0.62185 0.0
H721 H 0.37817 0.84284 0.71839 0.0
C722 C 0.31174 0.93034 0.7662 0.0
C723 C 0.29766 0.95592 0.75656 0.0
C724 C 0.29465 0.96226 0.72309 0.0
C725 C 0.30701 0.94426 0.69954 0.0
C726 C 0.32166 0.91971 0.70992 0.0
C727 C 0.32342 0.91233 0.74241 0.0
C728 C 0.34128 0.88541 0.7473 0.0
C729 C 0.36733 0.89159 0.7691 0.0
C730 C 0.32293 0.86055 0.76103 0.0
C731 C 0.35028 0.87949 0.71264 0.0
C732 C 0.33883 0.89954 0.69142 0.0
C733 C 0.34637 0.90012 0.65863 0.0
C734 C 0.36595 0.87951 0.64723 0.0
C735 C 0.37737 0.85845 0.66851 0.0
C736 C 0.3692 0.85834 0.70151 0.0
H737 H 0.89609 0.55494 0.29107 0.0
H738 H 0.84362 0.62898 0.31542 0.0
H739 H 0.87778 0.66123 0.28669 0.0
H740 H 0.96655 0.59057 0.29405 0.0
H741 H 0.97966 0.57124 0.25909 0.0
H742 H 0.95329 0.55477 0.28532 0.0
H743 H 0.91994 0.54693 0.23585 0.0
H744 H 0.94607 0.56357 0.20954 0.0
H745 H 0.91006 0.57747 0.21104 0.0
H746 H 0.91733 0.6851 0.25425 0.0
H747 H 0.95679 0.69823 0.21656 0.0
H748 H 0.98003 0.60778 0.20876 0.0
C749 C 0.89229 0.57804 0.29102 0.0
C750 C 0.86773 0.58972 0.30595 0.0
C751 C 0.86265 0.61984 0.30441 0.0
C752 C 0.8819 0.63825 0.28823 0.0
C753 C 0.90575 0.62604 0.27321 0.0
C754 C 0.91084 0.59658 0.27418 0.0
C755 C 0.93636 0.58855 0.25337 0.0
C756 C 0.96039 0.57552 0.27421 0.0
C757 C 0.92757 0.56792 0.22582 0.0
C758 C 0.94468 0.61802 0.24033 0.0
C759 C 0.92717 0.63945 0.25257 0.0
C760 C 0.93111 0.66849 0.24441 0.0
C761 C 0.9535 0.67575 0.22305 0.0
C762 C 0.97108 0.65396 0.20957 0.0
C763 C 0.96657 0.62479 0.21839 0.0
H764 H 0.64489 0.94517 0.19267 0.0
H765 H 0.67018 0.0068 0.26661 0.0
H766 H 0.64789 0.9758 0.30881 0.0
H767 H 0.57798 0.92737 0.22416 0.0
H768 H 0.57968 0.88945 0.21431 0.0
H769 H 0.59949 0.91528 0.19041 0.0
H770 H 0.64652 0.88736 0.20156 0.0
H771 H 0.62679 0.86122 0.22527 0.0
H772 H 0.6569 0.87989 0.24288 0.0
H773 H 0.61716 0.94111 0.34156 0.0
H774 H 0.58573 0.90233 0.36331 0.0
H775 H 0.58411 0.86185 0.26839 0.0
C776 C 0.64616 0.95189 0.21782 0.0
C777 C 0.65917 0.97835 0.22646 0.0
C778 C 0.66048 0.98646 0.25957 0.0
C779 C 0.64778 0.96907 0.28365 0.0
C780 C 0.63447 0.9434 0.2742 0.0
C781 C 0.63416 0.93454 0.24215 0.0
C782 C 0.61815 0.90628 0.23821 0.0
C783 C 0.5923 0.90983 0.21543 0.0
C784 C 0.6383 0.88227 0.22628 0.0
C785 C 0.60872 0.90104 0.27289 0.0
C786 C 0.61817 0.92275 0.29331 0.0
C787 C 0.61016 0.92368 0.32596 0.0
C788 C 0.59221 0.90171 0.33804 0.0
C789 C 0.58289 0.879 0.3176 0.0
C790 C 0.59145 0.87866 0.28471 0.0
H791 H 0.87786 0.41997 0.69721 0.0
H792 H 0.82015 0.34803 0.68025 0.0
H793 H 0.85393 0.31509 0.70826 0.0
H794 H 0.94509 0.38155 0.68961 0.0
H795 H 0.96173 0.40104 0.72245 0.0
H796 H 0.93425 0.41807 0.69854 0.0
H797 H 0.90514 0.4284 0.75094 0.0
H798 H 0.93245 0.4113 0.77498 0.0
H799 H 0.89589 0.39888 0.77768 0.0
H800 H 0.89497 0.2901 0.73726 0.0
H801 H 0.9373 0.27602 0.76995 0.0
H802 H 0.96477 0.3656 0.77277 0.0
C803 C 0.87262 0.39718 0.69896 0.0
C804 C 0.8468 0.38628 0.68617 0.0
C805 C 0.84006 0.35659 0.68973 0.0
C806 C 0.85909 0.3378 0.70549 0.0
C807 C 0.88437 0.34928 0.7181 0.0
C808 C 0.89093 0.37837 0.7154 0.0
C809 C 0.91828 0.38577 0.73318 0.0
C810 C 0.94119 0.39728 0.70953 0.0
C811 C 0.91258 0.40736 0.76083 0.0
C812 C 0.92618 0.35629 0.74626 0.0
C813 C 0.90669 0.33539 0.73684 0.0
C814 C 0.91021 0.30633 0.74505 0.0
C815 C 0.93424 0.29852 0.76352 0.0
C816 C 0.95387 0.31983 0.77414 0.0
C817 C 0.94972 0.34901 0.76541 0.0
H818 H 0.3937 0.12953 0.25828 0.0
H819 H 0.38564 0.09113 0.35408 0.0
H820 H 0.35417 0.05302 0.33159 0.0
H821 H 0.32147 0.11291 0.22876 0.0
H822 H 0.3339 0.10438 0.18842 0.0
H823 H 0.35298 0.13048 0.21265 0.0
H824 H 0.39978 0.10109 0.20559 0.0
H825 H 0.3809 0.07503 0.18126 0.0
H826 H 0.40021 0.06339 0.2168 0.0
H827 H 0.32492 0.01837 0.29835 0.0
H828 H 0.30475 0.98647 0.25609 0.0
H829 H 0.33468 0.04587 0.18155 0.0
C830 C 0.38489 0.11336 0.27458 0.0
C831 C 0.39175 0.11336 0.30793 0.0
C832 C 0.38052 0.09147 0.32843 0.0
C833 C 0.3625 0.0699 0.31593 0.0
C834 C 0.35625 0.0704 0.28285 0.0
C835 C 0.36738 0.09136 0.26239 0.0
C836 C 0.35968 0.08545 0.22733 0.0
C837 C 0.34089 0.10975 0.21349 0.0
C838 C 0.38675 0.08096 0.20654 0.0
C839 C 0.34285 0.05764 0.23121 0.0
C840 C 0.34057 0.04966 0.26348 0.0
C841 C 0.32647 0.02443 0.27301 0.0
C842 C 0.315 0.00651 0.24884 0.0
C843 C 0.3182 0.01368 0.21556 0.0
C844 C 0.33189 0.03984 0.20679 0.0
H845 H 0.11092 0.58326 0.7079 0.0
H846 H 0.07586 0.60023 0.61224 0.0
H847 H 0.03468 0.62528 0.63752 0.0
H848 H 0.04425 0.56714 0.74575 0.0
H849 H 0.05375 0.58338 0.78402 0.0
H850 H 0.0812 0.56855 0.75825 0.0
H851 H 0.10787 0.61781 0.75845 0.0
H852 H 0.0805 0.6328 0.78426 0.0
H853 H 0.08914 0.65005 0.74617 0.0
H854 H -0.00265 0.64851 0.67365 0.0
H855 H 0.96522 0.6651 0.71762 0.0
H856 H 0.02394 0.63037 0.78927 0.0
C857 C 0.09476 0.59252 0.69221 0.0
C858 C 0.09668 0.59006 0.65809 0.0
C859 C 0.0748 0.60195 0.63844 0.0
C860 C 0.05142 0.61627 0.65257 0.0
C861 C 0.05014 0.61821 0.68634 0.0
C862 C 0.07113 0.60644 0.70588 0.0
C863 C 0.06406 0.61008 0.74152 0.0
C864 C 0.0606 0.58053 0.75836 0.0
C865 C 0.08674 0.6288 0.75859 0.0
C866 C 0.03575 0.6257 0.73904 0.0
C867 C 0.02821 0.63051 0.70704 0.0
C868 C 0.00301 0.6448 0.69878 0.0
C869 C -0.01506 0.6542 0.72392 0.0
C870 C -0.00798 0.64891 0.75684 0.0
C871 C 0.01783 0.63456 0.76434 0.0
H872 H 0.22351 0.4855 0.57082 0.0
H873 H 0.24222 0.5747 0.54635 0.0
H874 H 0.25693 0.55967 0.49099 0.0
H875 H 0.27869 0.44987 0.5189 0.0
H876 H 0.25437 0.42134 0.50745 0.0
H877 H 0.25114 0.43815 0.54676 0.0
H878 H 0.19807 0.45038 0.53471 0.0
H879 H 0.20112 0.43364 0.4955 0.0
H880 H 0.18937 0.47063 0.4986 0.0
H881 H 0.26568 0.53553 0.43755 0.0
H882 H 0.26157 0.50586 0.38807 0.0
H883 H 0.23258 0.43305 0.44624 0.0
C884 C 0.23165 0.50164 0.55404 0.0
C885 C 0.23257 0.53109 0.56274 0.0
C886 C 0.24193 0.55198 0.53999 0.0
C887 C 0.25044 0.5436 0.50869 0.0
C888 C 0.2489 0.51435 0.50057 0.0
C889 C 0.23938 0.49373 0.52249 0.0
C890 C 0.23546 0.46458 0.5064 0.0
C891 C 0.25616 0.44216 0.52073 0.0
C892 C 0.20415 0.45422 0.50895 0.0
C893 C 0.24349 0.47216 0.47179 0.0
C894 C 0.25202 0.50074 0.46915 0.0
C895 C 0.25928 0.51307 0.43936 0.0
C896 C 0.25693 0.49601 0.41139 0.0
C897 C 0.24673 0.46717 0.41339 0.0
C898 C 0.24059 0.45498 0.44407 0.0
H899 H 0.5079 0.79577 0.43317 0.0
H900 H 0.51368 0.70545 0.40588 0.0
H901 H 0.49273 0.69131 0.45903 0.0
H902 H 0.52399 0.78786 0.51785 0.0
H903 H 0.49839 0.81472 0.53047 0.0
H904 H 0.51493 0.81728 0.49101 0.0
H905 H 0.46482 0.81834 0.46402 0.0
H906 H 0.44813 0.8158 0.50339 0.0
H907 H 0.43964 0.78964 0.47243 0.0
H908 H 0.47257 0.68752 0.5166 0.0
H909 H 0.45095 0.69458 0.57116 0.0
H910 H 0.4552 0.78751 0.55743 0.0
C911 C 0.50496 0.773 0.43848 0.0
C912 C 0.51265 0.75163 0.41573 0.0
C913 C 0.50796 0.72209 0.42317 0.0
C914 C 0.49617 0.7139 0.45326 0.0
C915 C 0.48879 0.73558 0.47524 0.0
C916 C 0.49269 0.76454 0.46796 0.0
C917 C 0.4818 0.78376 0.4949 0.0
C918 C 0.50624 0.80197 0.50941 0.0
C919 C 0.45713 0.80301 0.48297 0.0
C920 C 0.47131 0.76114 0.51866 0.0
C921 C 0.47581 0.73345 0.50719 0.0
C922 C 0.4687 0.70912 0.52567 0.0
C923 C 0.45652 0.7133 0.55657 0.0
C924 C 0.45118 0.74154 0.56824 0.0
C925 C 0.45867 0.76565 0.54894 0.0
H926 H 0.79055 0.51334 0.43113 0.0
H927 H 0.70074 0.52322 0.40704 0.0
H928 H 0.68727 0.5038 0.4611 0.0
H929 H 0.78203 0.44541 0.47275 0.0
H930 H 0.80914 0.4533 0.50258 0.0
H931 H 0.81149 0.46908 0.46263 0.0
H932 H 0.8138 0.52028 0.48807 0.0
H933 H 0.81147 0.50466 0.52809 0.0
H934 H 0.78592 0.5316 0.51558 0.0
H935 H 0.68401 0.48513 0.51896 0.0
H936 H 0.69109 0.46465 0.57404 0.0
H937 H 0.78288 0.46348 0.55774 0.0
C938 C 0.76806 0.51158 0.43735 0.0
C939 C 0.74664 0.52002 0.41521 0.0
C940 C 0.71743 0.51691 0.42383 0.0
C941 C 0.70961 0.50598 0.45444 0.0
C942 C 0.73129 0.49783 0.47578 0.0
C943 C 0.7599 0.50015 0.46743 0.0
C944 C 0.77904 0.48876 0.4941 0.0
C945 C 0.79644 0.46258 0.4823 0.0
C946 C 0.79871 0.51276 0.50723 0.0
C947 C 0.75676 0.47992 0.51894 0.0
C948 C 0.72935 0.48561 0.50814 0.0
C949 C 0.70536 0.4803 0.52753 0.0
C950 C 0.70956 0.46876 0.55873 0.0
C951 C 0.73746 0.46224 0.56985 0.0
C952 C 0.76127 0.46785 0.54961 0.0
H953 H 0.46293 0.18821 0.42537 0.0
H954 H 0.45761 0.28068 0.40899 0.0
H955 H 0.47564 0.28941 0.46486 0.0
H956 H 0.44242 0.18693 0.50864 0.0
H957 H 0.46767 0.15916 0.51952 0.0
H958 H 0.45356 0.16067 0.4789 0.0
H959 H 0.50518 0.16302 0.45564 0.0
H960 H 0.51946 0.16151 0.4962 0.0
H961 H 0.52931 0.19086 0.46951 0.0
H962 H 0.49145 0.28718 0.52425 0.0
H963 H 0.5086 0.27446 0.57949 0.0
H964 H 0.50794 0.1837 0.55333 0.0
C965 C 0.46544 0.21031 0.43357 0.0
C966 C 0.4586 0.23383 0.41322 0.0
C967 C 0.46268 0.26243 0.42446 0.0
C968 C 0.47282 0.26754 0.45607 0.0
C969 C 0.47933 0.24376 0.47561 0.0
C970 C 0.47621 0.21574 0.46451 0.0
C971 C 0.48581 0.19387 0.4895 0.0
C972 C 0.46087 0.174 0.49974 0.0
C973 C 0.51147 0.17629 0.47696 0.0
C974 C 0.49447 0.21389 0.5167 0.0
C975 C 0.49026 0.24259 0.50853 0.0
C976 C 0.49525 0.26482 0.5307 0.0
C977 C 0.50489 0.25744 0.56194 0.0
C978 C 0.50995 0.2282 0.57028 0.0
C979 C 0.50479 0.20628 0.54729 0.0
H980 H 0.71022 0.04392 0.04683 0.0
H981 H 0.74034 0.96839 0.09916 0.0
H982 H 0.74346 0.94142 0.04757 0.0
H983 H 0.66657 0.00809 0.99158 0.0
H984 H 0.67502 0.03088 0.95728 0.0
H985 H 0.67757 0.04507 -0.00217 0.0
H986 H 0.73044 0.05957 0.98734 0.0
H987 H 0.72803 0.04548 0.94664 0.0
H988 H 0.75553 0.03262 0.97366 0.0
H989 H 0.73657 0.92083 -0.00786 0.0
H990 H 0.72437 0.90921 0.93516 0.0
H991 H 0.70291 -0.00104 0.91763 0.0
C992 C 0.7179 0.02185 0.04732 0.0
C993 C 0.72496 0.00817 0.07693 0.0
C994 C 0.73493 0.97929 0.0767 0.0
C995 C 0.73677 0.96381 0.04754 0.0
C996 C 0.72915 0.97774 0.01882 0.0
C997 C 0.72038 0.00626 0.01836 0.0
C998 C 0.71253 0.01584 0.98432 0.0
C999 C 0.68105 0.02553 0.98268 0.0
C1000 C 0.73285 0.0398 0.97228 0.0
C1001 C 0.71725 0.98794 0.96591 0.0
C1002 C 0.7268 0.96622 0.98632 0.0
C1003 C 0.72987 0.9378 0.97572 0.0
C1004 C 0.72284 0.93137 0.94346 0.0
C1005 C 0.71341 0.95336 0.92219 0.0
C1006 C 0.71098 0.98204 0.93335 0.0
H1007 H 0.97661 0.2641 0.91529 0.0
H1008 H 0.06875 0.26085 0.92698 0.0
H1009 H 0.06264 0.25641 0.98658 0.0
H1010 H 0.96514 0.31007 0.9817 0.0
H1011 H 0.9314 0.29415 -0.0065 0.0
H1012 H 0.94288 0.29264 0.9518 0.0
H1013 H 0.93774 0.2368 0.95256 0.0
H1014 H 0.92624 0.23814 -0.00564 0.0
H1015 H 0.9564 0.21608 0.98298 0.0
H1016 H 0.04632 0.25387 0.04493 0.0
H1017 H 0.0216 0.25971 0.0978 0.0
H1018 H 0.94062 0.26949 0.04769 0.0
C1019 C -0.00459 0.26179 0.93043 0.0
C1020 C 0.02312 0.26227 0.91681 0.0
C1021 C 0.04736 0.26026 0.9372 0.0
C1022 C 0.04407 0.25758 0.97095 0.0
C1023 C 0.01642 0.25747 0.98378 0.0
C1024 C -0.00748 0.25993 0.96417 0.0
C1025 C 0.96543 0.26265 0.98414 0.0
C1026 C 0.95034 0.2916 0.97738 0.0
C1027 C 0.94527 0.23688 0.97815 0.0
C1028 C 0.97783 0.26175 0.01803 0.0
C1029 C 0.00718 0.25801 0.01736 0.0
C1030 C 0.02334 0.25676 0.04577 0.0
C1031 C 0.00916 0.26 0.07563 0.0
C1032 C 0.97931 0.26513 0.07662 0.0
C1033 C 0.9635 0.26565 0.04749 0.0
H1034 H 0.28362 0.0072 0.91855 0.0
H1035 H 0.1916 0.00644 0.90492 0.0
H1036 H 0.18494 -0.00786 0.96257 0.0
H1037 H 0.28517 0.94356 0.96874 0.0
H1038 H 0.31415 0.9566 -0.00636 0.0
H1039 H 0.31125 0.96832 0.95205 0.0
H1040 H 0.31138 0.02179 0.97091 0.0
H1041 H 0.31415 0.01023 0.01258 0.0
H1042 H 0.28528 0.03361 0.00034 0.0
H1043 H 0.18881 0.98029 0.02267 0.0
H1044 H 0.20289 0.96529 0.07827 0.0
H1045 H 0.29231 0.96906 0.04998 0.0
C1046 C 0.26208 0.00416 0.92783 0.0
C1047 C 0.23806 0.0082 0.9077 0.0
C1048 C 0.2102 0.00346 0.92022 0.0
C1049 C 0.20625 -0.0045 0.95286 0.0
C1050 C 0.23045 -0.0082 0.97221 0.0
C1051 C 0.25782 -0.00455 0.95996 0.0
C1052 C 0.28031 0.98843 0.98509 0.0
C1053 C 0.2988 0.96269 0.97422 0.0
C1054 C 0.29886 0.01511 -0.00733 0.0
C1055 C 0.26135 0.98046 0.01353 0.0
C1056 C 0.23266 0.98302 0.00588 0.0
C1057 C 0.21119 0.97789 0.02882 0.0
C1058 C 0.21934 0.96953 0.06027 0.0
C1059 C 0.24859 0.9658 0.06803 0.0
C1060 C 0.26977 0.9714 0.0444 0.0
H1061 H 0.9347 0.71958 0.93652 0.0
H1062 H 0.0114 0.71394 0.87736 0.0
H1063 H 0.04118 0.7145 0.92702 0.0
H1064 H 0.96676 0.76879 -0.0016 0.0
H1065 H 0.94677 0.7522 0.03101 0.0
H1066 H 0.93189 0.75349 0.99068 0.0
H1067 H 0.92524 0.69783 0.99177 0.0
H1068 H 0.94033 0.6963 0.03189 0.0
H1069 H 0.95573 0.67504 -0.00036 0.0
H1070 H 0.06163 0.70848 0.98305 0.0
H1071 H 0.07206 0.7029 0.04163 0.0
H1072 H 0.98247 0.71729 0.06418 0.0
C1073 C 0.9578 0.71905 0.93411 0.0
C1074 C 0.97089 0.71672 0.90334 0.0
C1075 C 0.0011 0.71602 0.90084 0.0
C1076 C 0.01812 0.71622 0.92886 0.0
C1077 C 0.00454 0.71792 0.95899 0.0
C1078 C 0.9751 0.72007 0.96175 0.0
C1079 C 0.96581 0.72137 -0.00303 0.0
C1080 C 0.95199 0.75071 0.00472 0.0
C1081 C 0.94559 0.69613 0.00555 0.0
C1082 C -0.00551 0.7183 0.01362 0.0
C1083 C 0.01656 0.71626 0.99129 0.0
C1084 C 0.04465 0.71078 0.0008 0.0
C1085 C 0.05034 0.70747 0.03402 0.0
C1086 C 0.02811 0.71008 0.05724 0.0
C1087 C -7e-05 0.71584 0.04689 0.0
loop_
_geom_bond_atom_site_label_1
_geom_bond_atom_site_label_2
_geom_bond_distance
_geom_bond_site_symmetry_2
_ccdc_geom_bond_type
C0 O1 1.306 . S
C0 O3 1.160 . S
O1 C0 1.306 . S
O1 Cd2 2.228 . S
Cd2 O1 2.228 . S
Cd2 O6 2.273 . S
Cd2 O10 2.277 . S
O3 C0 1.160 . S
O3 Cd4 2.203 . S
Cd4 O3 2.203 . S
Cd4 O6 2.411 . S
Cd4 O7 2.333 . S
Cd4 O8 2.352 . S
Cd4 O12 2.277 . S
Cd4 O13 2.356 . S
C5 O10 1.209 . S
C5 O12 1.226 . S
O6 Cd2 2.273 . S
O6 Cd4 2.411 . S
O6 C9 1.320 . S
O7 Cd4 2.333 . S
O7 C9 1.214 . S
O8 Cd4 2.352 . S
O8 C11 1.258 . S
C9 O6 1.320 . S
C9 O7 1.214 . S
O10 Cd2 2.277 . S
O10 C5 1.209 . S
C11 O8 1.258 . S
C11 O13 1.282 . S
O12 Cd4 2.277 . S
O12 C5 1.226 . S
O13 Cd4 2.356 . S
O13 C11 1.282 . S
C14 O15 1.306 . S
C14 O17 1.160 . S
O15 C14 1.306 . S
O15 Cd16 2.228 . S
Cd16 O15 2.228 . S
Cd16 O20 2.273 . S
Cd16 O24 2.277 . S
O17 C14 1.160 . S
O17 Cd18 2.203 . S
Cd18 O17 2.203 . S
Cd18 O20 2.411 . S
Cd18 O21 2.333 . S
Cd18 O22 2.352 . S
Cd18 O26 2.277 . S
Cd18 O27 2.356 . S
C19 O24 1.209 . S
C19 O26 1.226 . S
O20 Cd16 2.273 . S
O20 Cd18 2.411 . S
O20 C23 1.320 . S
O21 Cd18 2.333 . S
O21 C23 1.214 . S
O22 Cd18 2.352 . S
O22 C25 1.258 . S
C23 O20 1.320 . S
C23 O21 1.214 . S
O24 Cd16 2.277 . S
O24 C19 1.209 . S
C25 O22 1.258 . S
C25 O27 1.282 . S
O26 Cd18 2.277 . S
O26 C19 1.226 . S
O27 Cd18 2.356 . S
O27 C25 1.282 . S
C28 O29 1.306 . S
C28 O31 1.160 . S
O29 C28 1.306 . S
O29 Cd30 2.228 . S
Cd30 O29 2.228 . S
Cd30 O34 2.273 . S
Cd30 O38 2.277 . S
O31 C28 1.160 . S
O31 Cd32 2.203 . S
Cd32 O31 2.203 . S
Cd32 O34 2.411 . S
Cd32 O35 2.333 . S
Cd32 O36 2.352 . S
Cd32 O40 2.277 . S
Cd32 O41 2.356 . S
C33 O38 1.209 . S
C33 O40 1.226 . S
O34 Cd30 2.273 . S
O34 Cd32 2.411 . S
O34 C37 1.320 . S
O35 Cd32 2.333 . S
O35 C37 1.214 . S
O36 Cd32 2.352 . S
O36 C39 1.258 . S
C37 O34 1.320 . S
C37 O35 1.214 . S
O38 Cd30 2.277 . S
O38 C33 1.209 . S
C39 O36 1.258 . S
C39 O41 1.282 . S
O40 Cd32 2.277 . S
O40 C33 1.226 . S
O41 Cd32 2.356 . S
O41 C39 1.282 . S
C42 O43 1.306 . S
C42 O45 1.160 . S
O43 C42 1.306 . S
O43 Cd44 2.228 . S
Cd44 O43 2.228 . S
Cd44 O48 2.273 . S
Cd44 O52 2.277 . S
O45 C42 1.160 . S
O45 Cd46 2.203 . S
Cd46 O45 2.203 . S
Cd46 O48 2.411 . S
Cd46 O49 2.333 . S
Cd46 O50 2.352 . S
Cd46 O54 2.277 . S
Cd46 O55 2.356 . S
C47 O52 1.209 . S
C47 O54 1.226 . S
O48 Cd44 2.273 . S
O48 Cd46 2.411 . S
O48 C51 1.320 . S
O49 Cd46 2.333 . S
O49 C51 1.214 . S
O50 Cd46 2.352 . S
O50 C53 1.258 . S
C51 O48 1.320 . S
C51 O49 1.214 . S
O52 Cd44 2.277 . S
O52 C47 1.209 . S
C53 O50 1.258 . S
C53 O55 1.282 . S
O54 Cd46 2.277 . S
O54 C47 1.226 . S
O55 Cd46 2.356 . S
O55 C53 1.282 . S
C56 O57 1.306 . S
C56 O59 1.160 . S
O57 C56 1.306 . S
O57 Cd58 2.228 . S
Cd58 O57 2.228 . S
Cd58 O62 2.273 . S
Cd58 O66 2.277 . S
O59 C56 1.160 . S
O59 Cd60 2.203 . S
Cd60 O59 2.203 . S
Cd60 O62 2.411 . S
Cd60 O63 2.333 . S
Cd60 O64 2.352 . S
Cd60 O68 2.277 . S
Cd60 O69 2.356 . S
C61 O66 1.209 . S
C61 O68 1.226 . S
O62 Cd58 2.273 . S
O62 Cd60 2.411 . S
O62 C65 1.320 . S
O63 Cd60 2.333 . S
O63 C65 1.214 . S
O64 Cd60 2.352 . S
O64 C67 1.258 . S
C65 O62 1.320 . S
C65 O63 1.214 . S
O66 Cd58 2.277 . S
O66 C61 1.209 . S
C67 O64 1.258 . S
C67 O69 1.282 . S
O68 Cd60 2.277 . S
O68 C61 1.226 . S
O69 Cd60 2.356 . S
O69 C67 1.282 . S
C70 O71 1.306 . S
C70 O73 1.160 . S
O71 C70 1.306 . S
O71 Cd72 2.228 . S
Cd72 O71 2.228 . S
Cd72 O76 2.273 . S
Cd72 O80 2.277 . S
O73 C70 1.160 . S
O73 Cd74 2.203 . S
Cd74 O73 2.203 . S
Cd74 O76 2.411 . S
Cd74 O77 2.333 . S
Cd74 O78 2.352 . S
Cd74 O82 2.277 . S
Cd74 O83 2.356 . S
C75 O80 1.209 . S
C75 O82 1.226 . S
O76 Cd72 2.273 . S
O76 Cd74 2.411 . S
O76 C79 1.320 . S
O77 Cd74 2.333 . S
O77 C79 1.214 . S
O78 Cd74 2.352 . S
O78 C81 1.258 . S
C79 O76 1.320 . S
C79 O77 1.214 . S
O80 Cd72 2.277 . S
O80 C75 1.209 . S
C81 O78 1.258 . S
C81 O83 1.282 . S
O82 Cd74 2.277 . S
O82 C75 1.226 . S
O83 Cd74 2.356 . S
O83 C81 1.282 . S
C84 O85 1.306 . S
C84 O87 1.160 . S
O85 C84 1.306 . S
O85 Cd86 2.228 . S
Cd86 O85 2.228 . S
Cd86 O90 2.273 . S
Cd86 O94 2.277 . S
O87 C84 1.160 . S
O87 Cd88 2.203 . S
Cd88 O87 2.203 . S
Cd88 O90 2.411 . S
Cd88 O91 2.333 . S
Cd88 O92 2.352 . S
Cd88 O96 2.277 . S
Cd88 O97 2.356 . S
C89 O94 1.209 . S
C89 O96 1.226 . S
O90 Cd86 2.273 . S
O90 Cd88 2.411 . S
O90 C93 1.320 . S
O91 Cd88 2.333 . S
O91 C93 1.214 . S
O92 Cd88 2.352 . S
O92 C95 1.258 . S
C93 O90 1.320 . S
C93 O91 1.214 . S
O94 Cd86 2.277 . S
O94 C89 1.209 . S
C95 O92 1.258 . S
C95 O97 1.282 . S
O96 Cd88 2.277 . S
O96 C89 1.226 . S
O97 Cd88 2.356 . S
O97 C95 1.282 . S
C98 O99 1.306 . S
C98 O101 1.160 . S
O99 C98 1.306 . S
O99 Cd100 2.228 . S
Cd100 O99 2.228 . S
Cd100 O104 2.273 . S
Cd100 O108 2.277 . S
O101 C98 1.160 . S
O101 Cd102 2.203 . S
Cd102 O101 2.203 . S
Cd102 O104 2.411 . S
Cd102 O105 2.333 . S
Cd102 O106 2.352 . S
Cd102 O110 2.277 . S
Cd102 O111 2.356 . S
C103 O108 1.209 . S
C103 O110 1.226 . S
O104 Cd100 2.273 . S
O104 Cd102 2.411 . S
O104 C107 1.320 . S
O105 Cd102 2.333 . S
O105 C107 1.214 . S
O106 Cd102 2.352 . S
O106 C109 1.258 . S
C107 O104 1.320 . S
C107 O105 1.214 . S
O108 Cd100 2.277 . S
O108 C103 1.209 . S
C109 O106 1.258 . S
C109 O111 1.282 . S
O110 Cd102 2.277 . S
O110 C103 1.226 . S
O111 Cd102 2.356 . S
O111 C109 1.282 . S
C112 O113 1.306 . S
C112 O115 1.160 . S
O113 C112 1.306 . S
O113 Cd114 2.228 . S
Cd114 O113 2.228 . S
Cd114 O118 2.273 . S
Cd114 O122 2.277 . S
O115 C112 1.160 . S
O115 Cd116 2.203 . S
Cd116 O115 2.203 . S
Cd116 O118 2.411 . S
Cd116 O119 2.333 . S
Cd116 O120 2.352 . S
Cd116 O124 2.277 . S
Cd116 O125 2.356 . S
C117 O122 1.210 . S
C117 O124 1.228 . S
O118 Cd114 2.273 . S
O118 Cd116 2.411 . S
O118 C121 1.320 . S
O119 Cd116 2.333 . S
O119 C121 1.214 . S
O120 Cd116 2.352 . S
O120 C123 1.258 . S
C121 O118 1.320 . S
C121 O119 1.214 . S
O122 Cd114 2.277 . S
O122 C117 1.210 . S
C123 O120 1.258 . S
C123 O125 1.282 . S
O124 Cd116 2.277 . S
O124 C117 1.228 . S
O125 Cd116 2.356 . S
O125 C123 1.282 . S
C126 O127 1.306 . S
C126 O129 1.160 . S
O127 C126 1.306 . S
O127 Cd128 2.228 . S
Cd128 O127 2.228 . S
Cd128 O132 2.273 . S
Cd128 O136 2.277 . S
O129 C126 1.160 . S
O129 Cd130 2.203 . S
Cd130 O129 2.203 . S
Cd130 O132 2.411 . S
Cd130 O133 2.333 . S
Cd130 O134 2.352 . S
Cd130 O138 2.277 . S
Cd130 O139 2.356 . S
C131 O136 1.210 . S
C131 O138 1.228 . S
O132 Cd128 2.273 . S
O132 Cd130 2.411 . S
O132 C135 1.320 . S
O133 Cd130 2.333 . S
O133 C135 1.214 . S
O134 Cd130 2.352 . S
O134 C137 1.258 . S
C135 O132 1.320 . S
C135 O133 1.214 . S
O136 Cd128 2.277 . S
O136 C131 1.210 . S
C137 O134 1.258 . S
C137 O139 1.282 . S
O138 Cd130 2.277 . S
O138 C131 1.228 . S
O139 Cd130 2.356 . S
O139 C137 1.282 . S
C140 O141 1.306 . S
C140 O143 1.160 . S
O141 C140 1.306 . S
O141 Cd142 2.228 . S
Cd142 O141 2.228 . S
Cd142 O146 2.273 . S
Cd142 O150 2.277 . S
O143 C140 1.160 . S
O143 Cd144 2.203 . S
Cd144 O143 2.203 . S
Cd144 O146 2.411 . S
Cd144 O147 2.333 . S
Cd144 O148 2.352 . S
Cd144 O152 2.277 . S
Cd144 O153 2.356 . S
C145 O150 1.210 . S
C145 O152 1.228 . S
O146 Cd142 2.273 . S
O146 Cd144 2.411 . S
O146 C149 1.320 . S
O147 Cd144 2.333 . S
O147 C149 1.214 . S
O148 Cd144 2.352 . S
O148 C151 1.258 . S
C149 O146 1.320 . S
C149 O147 1.214 . S
O150 Cd142 2.277 . S
O150 C145 1.210 . S
C151 O148 1.258 . S
C151 O153 1.282 . S
O152 Cd144 2.277 . S
O152 C145 1.228 . S
O153 Cd144 2.356 . S
O153 C151 1.282 . S
C154 O155 1.306 . S
C154 O157 1.160 . S
O155 C154 1.306 . S
O155 Cd156 2.228 . S
Cd156 O155 2.228 . S
Cd156 O160 2.273 . S
Cd156 O164 2.277 . S
O157 C154 1.160 . S
O157 Cd158 2.203 . S
Cd158 O157 2.203 . S
Cd158 O160 2.411 . S
Cd158 O161 2.333 . S
Cd158 O162 2.352 . S
Cd158 O166 2.277 . S
Cd158 O167 2.356 . S
C159 O164 1.210 . S
C159 O166 1.228 . S
O160 Cd156 2.273 . S
O160 Cd158 2.411 . S
O160 C163 1.320 . S
O161 Cd158 2.333 . S
O161 C163 1.214 . S
O162 Cd158 2.352 . S
O162 C165 1.258 . S
C163 O160 1.320 . S
C163 O161 1.214 . S
O164 Cd156 2.277 . S
O164 C159 1.210 . S
C165 O162 1.258 . S
C165 O167 1.282 . S
O166 Cd158 2.277 . S
O166 C159 1.228 . S
O167 Cd158 2.356 . S
O167 C165 1.282 . S
C168 O169 1.306 . S
C168 O171 1.160 . S
O169 C168 1.306 . S
O169 Cd170 2.228 . S
Cd170 O169 2.228 . S
Cd170 O174 2.273 . S
Cd170 O178 2.277 . S
O171 C168 1.160 . S
O171 Cd172 2.203 . S
Cd172 O171 2.203 . S
Cd172 O174 2.411 . S
Cd172 O175 2.333 . S
Cd172 O176 2.352 . S
Cd172 O180 2.277 . S
Cd172 O181 2.356 . S
C173 O178 1.210 . S
C173 O180 1.228 . S
O174 Cd170 2.273 . S
O174 Cd172 2.411 . S
O174 C177 1.320 . S
O175 Cd172 2.333 . S
O175 C177 1.214 . S
O176 Cd172 2.352 . S
O176 C179 1.258 . S
C177 O174 1.320 . S
C177 O175 1.214 . S
O178 Cd170 2.277 . S
O178 C173 1.210 . S
C179 O176 1.258 . S
C179 O181 1.282 . S
O180 Cd172 2.277 . S
O180 C173 1.228 . S
O181 Cd172 2.356 . S
O181 C179 1.282 . S
C182 O183 1.306 . S
C182 O185 1.160 . S
O183 C182 1.306 . S
O183 Cd184 2.228 . S
Cd184 O183 2.228 . S
Cd184 O188 2.273 . S
Cd184 O192 2.277 . S
O185 C182 1.160 . S
O185 Cd186 2.203 . S
Cd186 O185 2.203 . S
Cd186 O188 2.411 . S
Cd186 O189 2.333 . S
Cd186 O190 2.352 . S
Cd186 O194 2.277 . S
Cd186 O195 2.356 . S
C187 O192 1.210 . S
C187 O194 1.228 . S
O188 Cd184 2.273 . S
O188 Cd186 2.411 . S
O188 C191 1.320 . S
O189 Cd186 2.333 . S
O189 C191 1.214 . S
O190 Cd186 2.352 . S
O190 C193 1.258 . S
C191 O188 1.320 . S
C191 O189 1.214 . S
O192 Cd184 2.277 . S
O192 C187 1.210 . S
C193 O190 1.258 . S
C193 O195 1.282 . S
O194 Cd186 2.277 . S
O194 C187 1.228 . S
O195 Cd186 2.356 . S
O195 C193 1.282 . S
C196 O197 1.306 . S
C196 O199 1.160 . S
O197 C196 1.306 . S
O197 Cd198 2.228 . S
Cd198 O197 2.228 . S
Cd198 O202 2.273 . S
Cd198 O206 2.277 . S
O199 C196 1.160 . S
O199 Cd200 2.203 . S
Cd200 O199 2.203 . S
Cd200 O202 2.411 . S
Cd200 O203 2.333 . S
Cd200 O204 2.352 . S
Cd200 O208 2.277 . S
Cd200 O209 2.356 . S
C201 O206 1.210 . S
C201 O208 1.228 . S
O202 Cd198 2.273 . S
O202 Cd200 2.411 . S
O202 C205 1.320 . S
O203 Cd200 2.333 . S
O203 C205 1.214 . S
O204 Cd200 2.352 . S
O204 C207 1.258 . S
C205 O202 1.320 . S
C205 O203 1.214 . S
O206 Cd198 2.277 . S
O206 C201 1.210 . S
C207 O204 1.258 . S
C207 O209 1.282 . S
O208 Cd200 2.277 . S
O208 C201 1.228 . S
O209 Cd200 2.356 . S
O209 C207 1.282 . S
C210 O211 1.306 . S
C210 O213 1.160 . S
O211 C210 1.306 . S
O211 Cd212 2.228 . S
Cd212 O211 2.228 . S
Cd212 O216 2.273 . S
Cd212 O220 2.277 . S
O213 C210 1.160 . S
O213 Cd214 2.203 . S
Cd214 O213 2.203 . S
Cd214 O216 2.411 . S
Cd214 O217 2.333 . S
Cd214 O218 2.352 . S
Cd214 O222 2.277 . S
Cd214 O223 2.356 . S
C215 O220 1.210 . S
C215 O222 1.228 . S
O216 Cd212 2.273 . S
O216 Cd214 2.411 . S
O216 C219 1.320 . S
O217 Cd214 2.333 . S
O217 C219 1.214 . S
O218 Cd214 2.352 . S
O218 C221 1.258 . S
C219 O216 1.320 . S
C219 O217 1.214 . S
O220 Cd212 2.277 . S
O220 C215 1.210 . S
C221 O218 1.258 . S
C221 O223 1.282 . S
O222 Cd214 2.277 . S
O222 C215 1.228 . S
O223 Cd214 2.356 . S
O223 C221 1.282 . S
H224 C236 0.930 . S
H225 C238 0.930 . S
H226 C239 0.930 . S
H227 C243 0.959 . S
H228 C243 0.959 . S
H229 C243 0.961 . S
H230 C244 0.960 . S
H231 C244 0.961 . S
H232 C244 0.959 . S
H233 C247 0.929 . S
H234 C248 0.931 . S
H235 C250 0.930 . S
C236 H224 0.930 . S
C236 C237 1.399 . S
C236 C241 1.399 . S
C237 C236 1.399 . S
C237 C238 1.376 . S
C238 H225 0.930 . S
C238 C237 1.376 . S
C238 C239 1.388 . S
C239 H226 0.930 . S
C239 C238 1.388 . S
C239 C240 1.390 . S
C240 C239 1.390 . S
C240 C241 1.394 . S
C240 C246 1.465 . S
C241 C236 1.399 . S
C241 C240 1.394 . S
C241 C242 1.516 . S
C242 C241 1.516 . S
C242 C243 1.502 . S
C242 C244 1.561 . S
C242 C245 1.526 . S
C243 H227 0.959 . S
C243 H228 0.959 . S
C243 H229 0.961 . S
C243 C242 1.502 . S
C244 H230 0.960 . S
C244 H231 0.961 . S
C244 H232 0.959 . S
C244 C242 1.561 . S
C245 C242 1.526 . S
C245 C246 1.396 . S
C245 C250 1.390 . S
C246 C240 1.465 . S
C246 C245 1.396 . S
C246 C247 1.399 . S
C247 H233 0.929 . S
C247 C246 1.399 . S
C247 C248 1.385 . S
C248 H234 0.931 . S
C248 C247 1.385 . S
C248 C249 1.389 . S
C249 C248 1.389 . S
C249 C250 1.387 . S
C250 H235 0.930 . S
C250 C245 1.390 . S
C250 C249 1.387 . S
H251 C263 0.930 . S
H252 C265 0.930 . S
H253 C266 0.930 . S
H254 C270 0.959 . S
H255 C270 0.959 . S
H256 C270 0.961 . S
H257 C271 0.960 . S
H258 C271 0.961 . S
H259 C271 0.959 . S
H260 C274 0.929 . S
H261 C275 0.931 . S
H262 C277 0.930 . S
C263 H251 0.930 . S
C263 C264 1.399 . S
C263 C268 1.399 . S
C264 C263 1.399 . S
C264 C265 1.376 . S
C265 H252 0.930 . S
C265 C264 1.376 . S
C265 C266 1.388 . S
C266 H253 0.930 . S
C266 C265 1.388 . S
C266 C267 1.390 . S
C267 C266 1.390 . S
C267 C268 1.394 . S
C267 C273 1.465 . S
C268 C263 1.399 . S
C268 C267 1.394 . S
C268 C269 1.516 . S
C269 C268 1.516 . S
C269 C270 1.502 . S
C269 C271 1.561 . S
C269 C272 1.526 . S
C270 H254 0.959 . S
C270 H255 0.959 . S
C270 H256 0.961 . S
C270 C269 1.502 . S
C271 H257 0.960 . S
C271 H258 0.961 . S
C271 H259 0.959 . S
C271 C269 1.561 . S
C272 C269 1.526 . S
C272 C273 1.396 . S
C272 C277 1.390 . S
C273 C267 1.465 . S
C273 C272 1.396 . S
C273 C274 1.399 . S
C274 H260 0.929 . S
C274 C273 1.399 . S
C274 C275 1.385 . S
C275 H261 0.931 . S
C275 C274 1.385 . S
C275 C276 1.389 . S
C276 C275 1.389 . S
C276 C277 1.387 . S
C277 H262 0.930 . S
C277 C272 1.390 . S
C277 C276 1.387 . S
H278 C290 0.930 . S
H279 C292 0.930 . S
H280 C293 0.930 . S
H281 C297 0.959 . S
H282 C297 0.959 . S
H283 C297 0.961 . S
H284 C298 0.960 . S
H285 C298 0.961 . S
H286 C298 0.959 . S
H287 C301 0.929 . S
H288 C302 0.931 . S
H289 C304 0.930 . S
C290 H278 0.930 . S
C290 C291 1.399 . S
C290 C295 1.399 . S
C291 C290 1.399 . S
C291 C292 1.376 . S
C292 H279 0.930 . S
C292 C291 1.376 . S
C292 C293 1.388 . S
C293 H280 0.930 . S
C293 C292 1.388 . S
C293 C294 1.390 . S
C294 C293 1.390 . S
C294 C295 1.394 . S
C294 C300 1.465 . S
C295 C290 1.399 . S
C295 C294 1.394 . S
C295 C296 1.516 . S
C296 C295 1.516 . S
C296 C297 1.502 . S
C296 C298 1.561 . S
C296 C299 1.526 . S
C297 H281 0.959 . S
C297 H282 0.959 . S
C297 H283 0.961 . S
C297 C296 1.502 . S
C298 H284 0.960 . S
C298 H285 0.961 . S
C298 H286 0.959 . S
C298 C296 1.561 . S
C299 C296 1.526 . S
C299 C300 1.396 . S
C299 C304 1.390 . S
C300 C294 1.465 . S
C300 C299 1.396 . S
C300 C301 1.399 . S
C301 H287 0.929 . S
C301 C300 1.399 . S
C301 C302 1.385 . S
C302 H288 0.931 . S
C302 C301 1.385 . S
C302 C303 1.389 . S
C303 C302 1.389 . S
C303 C304 1.387 . S
C304 H289 0.930 . S
C304 C299 1.390 . S
C304 C303 1.387 . S
H305 C317 0.930 . S
H306 C319 0.930 . S
H307 C320 0.930 . S
H308 C324 0.959 . S
H309 C324 0.959 . S
H310 C324 0.961 . S
H311 C325 0.960 . S
H312 C325 0.961 . S
H313 C325 0.959 . S
H314 C328 0.929 . S
H315 C329 0.931 . S
H316 C331 0.930 . S
C317 H305 0.930 . S
C317 C318 1.399 . S
C317 C322 1.399 . S
C318 C317 1.399 . S
C318 C319 1.376 . S
C319 H306 0.930 . S
C319 C318 1.376 . S
C319 C320 1.388 . S
C320 H307 0.930 . S
C320 C319 1.388 . S
C320 C321 1.390 . S
C321 C320 1.390 . S
C321 C322 1.394 . S
C321 C327 1.465 . S
C322 C317 1.399 . S
C322 C321 1.394 . S
C322 C323 1.516 . S
C323 C322 1.516 . S
C323 C324 1.502 . S
C323 C325 1.561 . S
C323 C326 1.526 . S
C324 H308 0.959 . S
C324 H309 0.959 . S
C324 H310 0.961 . S
C324 C323 1.502 . S
C325 H311 0.960 . S
C325 H312 0.961 . S
C325 H313 0.959 . S
C325 C323 1.561 . S
C326 C323 1.526 . S
C326 C327 1.396 . S
C326 C331 1.390 . S
C327 C321 1.465 . S
C327 C326 1.396 . S
C327 C328 1.399 . S
C328 H314 0.929 . S
C328 C327 1.399 . S
C328 C329 1.385 . S
C329 H315 0.931 . S
C329 C328 1.385 . S
C329 C330 1.389 . S
C330 C329 1.389 . S
C330 C331 1.387 . S
C331 H316 0.930 . S
C331 C326 1.390 . S
C331 C330 1.387 . S
H332 C344 0.930 . S
H333 C346 0.930 . S
H334 C347 0.930 . S
H335 C351 0.959 . S
H336 C351 0.959 . S
H337 C351 0.961 . S
H338 C352 0.960 . S
H339 C352 0.961 . S
H340 C352 0.959 . S
H341 C355 0.929 . S
H342 C356 0.931 . S
H343 C358 0.930 . S
C344 H332 0.930 . S
C344 C345 1.399 . S
C344 C349 1.399 . S
C345 C344 1.399 . S
C345 C346 1.376 . S
C346 H333 0.930 . S
C346 C345 1.376 . S
C346 C347 1.388 . S
C347 H334 0.930 . S
C347 C346 1.388 . S
C347 C348 1.390 . S
C348 C347 1.390 . S
C348 C349 1.394 . S
C348 C354 1.465 . S
C349 C344 1.399 . S
C349 C348 1.394 . S
C349 C350 1.516 . S
C350 C349 1.516 . S
C350 C351 1.502 . S
C350 C352 1.561 . S
C350 C353 1.526 . S
C351 H335 0.959 . S
C351 H336 0.959 . S
C351 H337 0.961 . S
C351 C350 1.502 . S
C352 H338 0.960 . S
C352 H339 0.961 . S
C352 H340 0.959 . S
C352 C350 1.561 . S
C353 C350 1.526 . S
C353 C354 1.396 . S
C353 C358 1.390 . S
C354 C348 1.465 . S
C354 C353 1.396 . S
C354 C355 1.399 . S
C355 H341 0.929 . S
C355 C354 1.399 . S
C355 C356 1.385 . S
C356 H342 0.931 . S
C356 C355 1.385 . S
C356 C357 1.389 . S
C357 C356 1.389 . S
C357 C358 1.387 . S
C358 H343 0.930 . S
C358 C353 1.390 . S
C358 C357 1.387 . S
H359 C371 0.930 . S
H360 C373 0.930 . S
H361 C374 0.930 . S
H362 C378 0.959 . S
H363 C378 0.959 . S
H364 C378 0.961 . S
H365 C379 0.960 . S
H366 C379 0.961 . S
H367 C379 0.959 . S
H368 C382 0.929 . S
H369 C383 0.931 . S
H370 C385 0.930 . S
C371 H359 0.930 . S
C371 C372 1.399 . S
C371 C376 1.399 . S
C372 C371 1.399 . S
C372 C373 1.376 . S
C373 H360 0.930 . S
C373 C372 1.376 . S
C373 C374 1.388 . S
C374 H361 0.930 . S
C374 C373 1.388 . S
C374 C375 1.390 . S
C375 C374 1.390 . S
C375 C376 1.394 . S
C375 C381 1.465 . S
C376 C371 1.399 . S
C376 C375 1.394 . S
C376 C377 1.516 . S
C377 C376 1.516 . S
C377 C378 1.502 . S
C377 C379 1.561 . S
C377 C380 1.526 . S
C378 H362 0.959 . S
C378 H363 0.959 . S
C378 H364 0.961 . S
C378 C377 1.502 . S
C379 H365 0.960 . S
C379 H366 0.961 . S
C379 H367 0.959 . S
C379 C377 1.561 . S
C380 C377 1.526 . S
C380 C381 1.396 . S
C380 C385 1.390 . S
C381 C375 1.465 . S
C381 C380 1.396 . S
C381 C382 1.399 . S
C382 H368 0.929 . S
C382 C381 1.399 . S
C382 C383 1.385 . S
C383 H369 0.931 . S
C383 C382 1.385 . S
C383 C384 1.389 . S
C384 C383 1.389 . S
C384 C385 1.387 . S
C385 H370 0.930 . S
C385 C380 1.390 . S
C385 C384 1.387 . S
H386 C398 0.930 . S
H387 C400 0.930 . S
H388 C401 0.930 . S
H389 C405 0.959 . S
H390 C405 0.959 . S
H391 C405 0.961 . S
H392 C406 0.960 . S
H393 C406 0.961 . S
H394 C406 0.959 . S
H395 C409 0.929 . S
H396 C410 0.931 . S
H397 C412 0.930 . S
C398 H386 0.930 . S
C398 C399 1.399 . S
C398 C403 1.399 . S
C399 C398 1.399 . S
C399 C400 1.376 . S
C400 H387 0.930 . S
C400 C399 1.376 . S
C400 C401 1.388 . S
C401 H388 0.930 . S
C401 C400 1.388 . S
C401 C402 1.390 . S
C402 C401 1.390 . S
C402 C403 1.394 . S
C402 C408 1.465 . S
C403 C398 1.399 . S
C403 C402 1.394 . S
C403 C404 1.516 . S
C404 C403 1.516 . S
C404 C405 1.502 . S
C404 C406 1.561 . S
C404 C407 1.526 . S
C405 H389 0.959 . S
C405 H390 0.959 . S
C405 H391 0.961 . S
C405 C404 1.502 . S
C406 H392 0.960 . S
C406 H393 0.961 . S
C406 H394 0.959 . S
C406 C404 1.561 . S
C407 C404 1.526 . S
C407 C408 1.396 . S
C407 C412 1.390 . S
C408 C402 1.465 . S
C408 C407 1.396 . S
C408 C409 1.399 . S
C409 H395 0.929 . S
C409 C408 1.399 . S
C409 C410 1.385 . S
C410 H396 0.931 . S
C410 C409 1.385 . S
C410 C411 1.389 . S
C411 C410 1.389 . S
C411 C412 1.387 . S
C412 H397 0.930 . S
C412 C407 1.390 . S
C412 C411 1.387 . S
H413 C425 0.930 . S
H414 C427 0.930 . S
H415 C428 0.930 . S
H416 C432 0.959 . S
H417 C432 0.959 . S
H418 C432 0.961 . S
H419 C433 0.960 . S
H420 C433 0.961 . S
H421 C433 0.959 . S
H422 C436 0.929 . S
H423 C437 0.931 . S
H424 C439 0.930 . S
C425 H413 0.930 . S
C425 C426 1.399 . S
C425 C430 1.399 . S
C426 C425 1.399 . S
C426 C427 1.376 . S
C427 H414 0.930 . S
C427 C426 1.376 . S
C427 C428 1.388 . S
C428 H415 0.930 . S
C428 C427 1.388 . S
C428 C429 1.390 . S
C429 C428 1.390 . S
C429 C430 1.394 . S
C429 C435 1.465 . S
C430 C425 1.399 . S
C430 C429 1.394 . S
C430 C431 1.516 . S
C431 C430 1.516 . S
C431 C432 1.502 . S
C431 C433 1.561 . S
C431 C434 1.526 . S
C432 H416 0.959 . S
C432 H417 0.959 . S
C432 H418 0.961 . S
C432 C431 1.502 . S
C433 H419 0.960 . S
C433 H420 0.961 . S
C433 H421 0.959 . S
C433 C431 1.561 . S
C434 C431 1.526 . S
C434 C435 1.396 . S
C434 C439 1.390 . S
C435 C429 1.465 . S
C435 C434 1.396 . S
C435 C436 1.399 . S
C436 H422 0.929 . S
C436 C435 1.399 . S
C436 C437 1.385 . S
C437 H423 0.931 . S
C437 C436 1.385 . S
C437 C438 1.389 . S
C438 C437 1.389 . S
C438 C439 1.387 . S
C439 H424 0.930 . S
C439 C434 1.390 . S
C439 C438 1.387 . S
H440 C452 0.930 . S
H441 C454 0.930 . S
H442 C455 0.930 . S
H443 C459 0.959 . S
H444 C459 0.959 . S
H445 C459 0.961 . S
H446 C460 0.960 . S
H447 C460 0.961 . S
H448 C460 0.959 . S
H449 C463 0.929 . S
H450 C464 0.931 . S
H451 C466 0.930 . S
C452 H440 0.930 . S
C452 C453 1.399 . S
C452 C457 1.399 . S
C453 C452 1.399 . S
C453 C454 1.376 . S
C454 H441 0.930 . S
C454 C453 1.376 . S
C454 C455 1.388 . S
C455 H442 0.930 . S
C455 C454 1.388 . S
C455 C456 1.390 . S
C456 C455 1.390 . S
C456 C457 1.394 . S
C456 C462 1.465 . S
C457 C452 1.399 . S
C457 C456 1.394 . S
C457 C458 1.516 . S
C458 C457 1.516 . S
C458 C459 1.502 . S
C458 C460 1.561 . S
C458 C461 1.526 . S
C459 H443 0.959 . S
C459 H444 0.959 . S
C459 H445 0.961 . S
C459 C458 1.502 . S
C460 H446 0.960 . S
C460 H447 0.961 . S
C460 H448 0.959 . S
C460 C458 1.561 . S
C461 C458 1.526 . S
C461 C462 1.396 . S
C461 C466 1.390 . S
C462 C456 1.465 . S
C462 C461 1.396 . S
C462 C463 1.399 . S
C463 H449 0.929 . S
C463 C462 1.399 . S
C463 C464 1.385 . S
C464 H450 0.931 . S
C464 C463 1.385 . S
C464 C465 1.389 . S
C465 C464 1.389 . S
C465 C466 1.387 . S
C466 H451 0.930 . S
C466 C461 1.390 . S
C466 C465 1.387 . S
H467 C479 0.930 . S
H468 C481 0.930 . S
H469 C482 0.930 . S
H470 C486 0.959 . S
H471 C486 0.959 . S
H472 C486 0.961 . S
H473 C487 0.960 . S
H474 C487 0.961 . S
H475 C487 0.959 . S
H476 C490 0.929 . S
H477 C491 0.931 . S
H478 C493 0.930 . S
C479 H467 0.930 . S
C479 C480 1.399 . S
C479 C484 1.399 . S
C480 C479 1.399 . S
C480 C481 1.376 . S
C481 H468 0.930 . S
C481 C480 1.376 . S
C481 C482 1.388 . S
C482 H469 0.930 . S
C482 C481 1.388 . S
C482 C483 1.390 . S
C483 C482 1.390 . S
C483 C484 1.394 . S
C483 C489 1.465 . S
C484 C479 1.399 . S
C484 C483 1.394 . S
C484 C485 1.516 . S
C485 C484 1.516 . S
C485 C486 1.502 . S
C485 C487 1.561 . S
C485 C488 1.526 . S
C486 H470 0.959 . S
C486 H471 0.959 . S
C486 H472 0.961 . S
C486 C485 1.502 . S
C487 H473 0.960 . S
C487 H474 0.961 . S
C487 H475 0.959 . S
C487 C485 1.561 . S
C488 C485 1.526 . S
C488 C489 1.396 . S
C488 C493 1.390 . S
C489 C483 1.465 . S
C489 C488 1.396 . S
C489 C490 1.399 . S
C490 H476 0.929 . S
C490 C489 1.399 . S
C490 C491 1.385 . S
C491 H477 0.931 . S
C491 C490 1.385 . S
C491 C492 1.389 . S
C492 C491 1.389 . S
C492 C493 1.387 . S
C493 H478 0.930 . S
C493 C488 1.390 . S
C493 C492 1.387 . S
H494 C506 0.930 . S
H495 C508 0.930 . S
H496 C509 0.930 . S
H497 C513 0.959 . S
H498 C513 0.959 . S
H499 C513 0.961 . S
H500 C514 0.960 . S
H501 C514 0.961 . S
H502 C514 0.959 . S
H503 C517 0.929 . S
H504 C518 0.931 . S
H505 C520 0.930 . S
C506 H494 0.930 . S
C506 C507 1.399 . S
C506 C511 1.399 . S
C507 C506 1.399 . S
C507 C508 1.376 . S
C508 H495 0.930 . S
C508 C507 1.376 . S
C508 C509 1.388 . S
C509 H496 0.930 . S
C509 C508 1.388 . S
C509 C510 1.390 . S
C510 C509 1.390 . S
C510 C511 1.394 . S
C510 C516 1.465 . S
C511 C506 1.399 . S
C511 C510 1.394 . S
C511 C512 1.516 . S
C512 C511 1.516 . S
C512 C513 1.502 . S
C512 C514 1.561 . S
C512 C515 1.526 . S
C513 H497 0.959 . S
C513 H498 0.959 . S
C513 H499 0.961 . S
C513 C512 1.502 . S
C514 H500 0.960 . S
C514 H501 0.961 . S
C514 H502 0.959 . S
C514 C512 1.561 . S
C515 C512 1.526 . S
C515 C516 1.396 . S
C515 C520 1.390 . S
C516 C510 1.465 . S
C516 C515 1.396 . S
C516 C517 1.399 . S
C517 H503 0.929 . S
C517 C516 1.399 . S
C517 C518 1.385 . S
C518 H504 0.931 . S
C518 C517 1.385 . S
C518 C519 1.389 . S
C519 C518 1.389 . S
C519 C520 1.387 . S
C520 H505 0.930 . S
C520 C515 1.390 . S
C520 C519 1.387 . S
H521 C533 0.930 . S
H522 C535 0.930 . S
H523 C536 0.930 . S
H524 C540 0.959 . S
H525 C540 0.959 . S
H526 C540 0.961 . S
H527 C541 0.960 . S
H528 C541 0.961 . S
H529 C541 0.959 . S
H530 C544 0.929 . S
H531 C545 0.931 . S
H532 C547 0.930 . S
C533 H521 0.930 . S
C533 C534 1.399 . S
C533 C538 1.399 . S
C534 C533 1.399 . S
C534 C535 1.376 . S
C535 H522 0.930 . S
C535 C534 1.376 . S
C535 C536 1.388 . S
C536 H523 0.930 . S
C536 C535 1.388 . S
C536 C537 1.390 . S
C537 C536 1.390 . S
C537 C538 1.394 . S
C537 C543 1.465 . S
C538 C533 1.399 . S
C538 C537 1.394 . S
C538 C539 1.516 . S
C539 C538 1.516 . S
C539 C540 1.502 . S
C539 C541 1.561 . S
C539 C542 1.526 . S
C540 H524 0.959 . S
C540 H525 0.959 . S
C540 H526 0.961 . S
C540 C539 1.502 . S
C541 H527 0.960 . S
C541 H528 0.961 . S
C541 H529 0.959 . S
C541 C539 1.561 . S
C542 C539 1.526 . S
C542 C543 1.396 . S
C542 C547 1.390 . S
C543 C537 1.465 . S
C543 C542 1.396 . S
C543 C544 1.399 . S
C544 H530 0.929 . S
C544 C543 1.399 . S
C544 C545 1.385 . S
C545 H531 0.931 . S
C545 C544 1.385 . S
C545 C546 1.389 . S
C546 C545 1.389 . S
C546 C547 1.387 . S
C547 H532 0.930 . S
C547 C542 1.390 . S
C547 C546 1.387 . S
H548 C560 0.930 . S
H549 C562 0.930 . S
H550 C563 0.930 . S
H551 C567 0.959 . S
H552 C567 0.959 . S
H553 C567 0.961 . S
H554 C568 0.960 . S
H555 C568 0.961 . S
H556 C568 0.959 . S
H557 C571 0.929 . S
H558 C572 0.931 . S
H559 C574 0.930 . S
C560 H548 0.930 . S
C560 C561 1.399 . S
C560 C565 1.399 . S
C561 C560 1.399 . S
C561 C562 1.376 . S
C562 H549 0.930 . S
C562 C561 1.376 . S
C562 C563 1.388 . S
C563 H550 0.930 . S
C563 C562 1.388 . S
C563 C564 1.390 . S
C564 C563 1.390 . S
C564 C565 1.394 . S
C564 C570 1.465 . S
C565 C560 1.399 . S
C565 C564 1.394 . S
C565 C566 1.516 . S
C566 C565 1.516 . S
C566 C567 1.502 . S
C566 C568 1.561 . S
C566 C569 1.526 . S
C567 H551 0.959 . S
C567 H552 0.959 . S
C567 H553 0.961 . S
C567 C566 1.502 . S
C568 H554 0.960 . S
C568 H555 0.961 . S
C568 H556 0.959 . S
C568 C566 1.561 . S
C569 C566 1.526 . S
C569 C570 1.396 . S
C569 C574 1.390 . S
C570 C564 1.465 . S
C570 C569 1.396 . S
C570 C571 1.399 . S
C571 H557 0.929 . S
C571 C570 1.399 . S
C571 C572 1.385 . S
C572 H558 0.931 . S
C572 C571 1.385 . S
C572 C573 1.389 . S
C573 C572 1.389 . S
C573 C574 1.387 . S
C574 H559 0.930 . S
C574 C569 1.390 . S
C574 C573 1.387 . S
H575 C587 0.930 . S
H576 C589 0.930 . S
H577 C590 0.930 . S
H578 C594 0.959 . S
H579 C594 0.959 . S
H580 C594 0.961 . S
H581 C595 0.960 . S
H582 C595 0.961 . S
H583 C595 0.959 . S
H584 C598 0.929 . S
H585 C599 0.931 . S
H586 C601 0.930 . S
C587 H575 0.930 . S
C587 C588 1.399 . S
C587 C592 1.399 . S
C588 C587 1.399 . S
C588 C589 1.376 . S
C589 H576 0.930 . S
C589 C588 1.376 . S
C589 C590 1.388 . S
C590 H577 0.930 . S
C590 C589 1.388 . S
C590 C591 1.390 . S
C591 C590 1.390 . S
C591 C592 1.394 . S
C591 C597 1.465 . S
C592 C587 1.399 . S
C592 C591 1.394 . S
C592 C593 1.516 . S
C593 C592 1.516 . S
C593 C594 1.502 . S
C593 C595 1.561 . S
C593 C596 1.526 . S
C594 H578 0.959 . S
C594 H579 0.959 . S
C594 H580 0.961 . S
C594 C593 1.502 . S
C595 H581 0.960 . S
C595 H582 0.961 . S
C595 H583 0.959 . S
C595 C593 1.561 . S
C596 C593 1.526 . S
C596 C597 1.396 . S
C596 C601 1.390 . S
C597 C591 1.465 . S
C597 C596 1.396 . S
C597 C598 1.399 . S
C598 H584 0.929 . S
C598 C597 1.399 . S
C598 C599 1.385 . S
C599 H585 0.931 . S
C599 C598 1.385 . S
C599 C600 1.389 . S
C600 C599 1.389 . S
C600 C601 1.387 . S
C601 H586 0.930 . S
C601 C596 1.390 . S
C601 C600 1.387 . S
H602 C614 0.930 . S
H603 C616 0.930 . S
H604 C617 0.930 . S
H605 C621 0.959 . S
H606 C621 0.959 . S
H607 C621 0.961 . S
H608 C622 0.960 . S
H609 C622 0.961 . S
H610 C622 0.959 . S
H611 C625 0.929 . S
H612 C626 0.931 . S
H613 C628 0.930 . S
C614 H602 0.930 . S
C614 C615 1.399 . S
C614 C619 1.399 . S
C615 C614 1.399 . S
C615 C616 1.376 . S
C616 H603 0.930 . S
C616 C615 1.376 . S
C616 C617 1.388 . S
C617 H604 0.930 . S
C617 C616 1.388 . S
C617 C618 1.390 . S
C618 C617 1.390 . S
C618 C619 1.394 . S
C618 C624 1.465 . S
C619 C614 1.399 . S
C619 C618 1.394 . S
C619 C620 1.516 . S
C620 C619 1.516 . S
C620 C621 1.502 . S
C620 C622 1.561 . S
C620 C623 1.526 . S
C621 H605 0.959 . S
C621 H606 0.959 . S
C621 H607 0.961 . S
C621 C620 1.502 . S
C622 H608 0.960 . S
C622 H609 0.961 . S
C622 H610 0.959 . S
C622 C620 1.561 . S
C623 C620 1.526 . S
C623 C624 1.396 . S
C623 C628 1.390 . S
C624 C618 1.465 . S
C624 C623 1.396 . S
C624 C625 1.399 . S
C625 H611 0.929 . S
C625 C624 1.399 . S
C625 C626 1.385 . S
C626 H612 0.931 . S
C626 C625 1.385 . S
C626 C627 1.389 . S
C627 C626 1.389 . S
C627 C628 1.387 . S
C628 H613 0.930 . S
C628 C623 1.390 . S
C628 C627 1.387 . S
H629 C641 0.930 . S
H630 C643 0.930 . S
H631 C644 0.930 . S
H632 C648 0.959 . S
H633 C648 0.959 . S
H634 C648 0.961 . S
H635 C649 0.960 . S
H636 C649 0.961 . S
H637 C649 0.959 . S
H638 C652 0.929 . S
H639 C653 0.931 . S
H640 C655 0.930 . S
C641 H629 0.930 . S
C641 C642 1.399 . S
C641 C646 1.399 . S
C642 C641 1.399 . S
C642 C643 1.376 . S
C643 H630 0.930 . S
C643 C642 1.376 . S
C643 C644 1.388 . S
C644 H631 0.930 . S
C644 C643 1.388 . S
C644 C645 1.390 . S
C645 C644 1.390 . S
C645 C646 1.394 . S
C645 C651 1.465 . S
C646 C641 1.399 . S
C646 C645 1.394 . S
C646 C647 1.516 . S
C647 C646 1.516 . S
C647 C648 1.502 . S
C647 C649 1.561 . S
C647 C650 1.526 . S
C648 H632 0.959 . S
C648 H633 0.959 . S
C648 H634 0.961 . S
C648 C647 1.502 . S
C649 H635 0.960 . S
C649 H636 0.961 . S
C649 H637 0.959 . S
C649 C647 1.561 . S
C650 C647 1.526 . S
C650 C651 1.396 . S
C650 C655 1.390 . S
C651 C645 1.465 . S
C651 C650 1.396 . S
C651 C652 1.399 . S
C652 H638 0.929 . S
C652 C651 1.399 . S
C652 C653 1.385 . S
C653 H639 0.931 . S
C653 C652 1.385 . S
C653 C654 1.389 . S
C654 C653 1.389 . S
C654 C655 1.387 . S
C655 H640 0.930 . S
C655 C650 1.390 . S
C655 C654 1.387 . S
H656 C668 0.930 . S
H657 C670 0.930 . S
H658 C671 0.930 . S
H659 C675 0.959 . S
H660 C675 0.959 . S
H661 C675 0.961 . S
H662 C676 0.960 . S
H663 C676 0.961 . S
H664 C676 0.959 . S
H665 C679 0.929 . S
H666 C680 0.931 . S
H667 C682 0.930 . S
C668 H656 0.930 . S
C668 C669 1.399 . S
C668 C673 1.399 . S
C669 C668 1.399 . S
C669 C670 1.376 . S
C670 H657 0.930 . S
C670 C669 1.376 . S
C670 C671 1.388 . S
C671 H658 0.930 . S
C671 C670 1.388 . S
C671 C672 1.390 . S
C672 C671 1.390 . S
C672 C673 1.394 . S
C672 C678 1.465 . S
C673 C668 1.399 . S
C673 C672 1.394 . S
C673 C674 1.516 . S
C674 C673 1.516 . S
C674 C675 1.502 . S
C674 C676 1.561 . S
C674 C677 1.526 . S
C675 H659 0.959 . S
C675 H660 0.959 . S
C675 H661 0.961 . S
C675 C674 1.502 . S
C676 H662 0.960 . S
C676 H663 0.961 . S
C676 H664 0.959 . S
C676 C674 1.561 . S
C677 C674 1.526 . S
C677 C678 1.396 . S
C677 C682 1.390 . S
C678 C672 1.465 . S
C678 C677 1.396 . S
C678 C679 1.399 . S
C679 H665 0.929 . S
C679 C678 1.399 . S
C679 C680 1.385 . S
C680 H666 0.931 . S
C680 C679 1.385 . S
C680 C681 1.389 . S
C681 C680 1.389 . S
C681 C682 1.387 . S
C682 H667 0.930 . S
C682 C677 1.390 . S
C682 C681 1.387 . S
H683 C695 0.930 . S
H684 C697 0.930 . S
H685 C698 0.930 . S
H686 C702 0.959 . S
H687 C702 0.959 . S
H688 C702 0.961 . S
H689 C703 0.960 . S
H690 C703 0.961 . S
H691 C703 0.959 . S
H692 C706 0.929 . S
H693 C707 0.931 1_655 S
H694 C709 0.930 . S
C695 H683 0.930 . S
C695 C696 1.399 . S
C695 C700 1.399 . S
C696 C695 1.399 . S
C696 C697 1.376 . S
C697 H684 0.930 . S
C697 C696 1.376 . S
C697 C698 1.388 . S
C698 H685 0.930 . S
C698 C697 1.388 . S
C698 C699 1.390 . S
C699 C698 1.390 . S
C699 C700 1.394 . S
C699 C705 1.465 . S
C700 C695 1.399 . S
C700 C699 1.394 . S
C700 C701 1.516 . S
C701 C700 1.516 . S
C701 C702 1.502 . S
C701 C703 1.561 . S
C701 C704 1.526 . S
C702 H686 0.959 . S
C702 H687 0.959 . S
C702 H688 0.961 . S
C702 C701 1.502 . S
C703 H689 0.960 . S
C703 H690 0.961 . S
C703 H691 0.959 . S
C703 C701 1.561 . S
C704 C701 1.526 . S
C704 C705 1.396 . S
C704 C709 1.390 . S
C705 C699 1.465 . S
C705 C704 1.396 . S
C705 C706 1.399 . S
C706 H692 0.929 . S
C706 C705 1.399 . S
C706 C707 1.385 . S
C707 H693 0.931 1_455 S
C707 C706 1.385 . S
C707 C708 1.389 . S
C708 C707 1.389 . S
C708 C709 1.387 . S
C709 H694 0.930 . S
C709 C704 1.390 . S
C709 C708 1.387 . S
H710 C722 0.930 . S
H711 C724 0.930 . S
H712 C725 0.930 . S
H713 C729 0.959 . S
H714 C729 0.959 . S
H715 C729 0.961 . S
H716 C730 0.960 . S
H717 C730 0.961 . S
H718 C730 0.959 . S
H719 C733 0.929 . S
H720 C734 0.931 . S
H721 C736 0.930 . S
C722 H710 0.930 . S
C722 C723 1.399 . S
C722 C727 1.399 . S
C723 C722 1.399 . S
C723 C724 1.376 . S
C724 H711 0.930 . S
C724 C723 1.376 . S
C724 C725 1.388 . S
C725 H712 0.930 . S
C725 C724 1.388 . S
C725 C726 1.390 . S
C726 C725 1.390 . S
C726 C727 1.394 . S
C726 C732 1.465 . S
C727 C722 1.399 . S
C727 C726 1.394 . S
C727 C728 1.516 . S
C728 C727 1.516 . S
C728 C729 1.502 . S
C728 C730 1.561 . S
C728 C731 1.526 . S
C729 H713 0.959 . S
C729 H714 0.959 . S
C729 H715 0.961 . S
C729 C728 1.502 . S
C730 H716 0.960 . S
C730 H717 0.961 . S
C730 H718 0.959 . S
C730 C728 1.561 . S
C731 C728 1.526 . S
C731 C732 1.396 . S
C731 C736 1.390 . S
C732 C726 1.465 . S
C732 C731 1.396 . S
C732 C733 1.399 . S
C733 H719 0.929 . S
C733 C732 1.399 . S
C733 C734 1.385 . S
C734 H720 0.931 . S
C734 C733 1.385 . S
C734 C735 1.389 . S
C735 C734 1.389 . S
C735 C736 1.387 . S
C736 H721 0.930 . S
C736 C731 1.390 . S
C736 C735 1.387 . S
H737 C749 0.930 . S
H738 C751 0.930 . S
H739 C752 0.930 . S
H740 C756 0.959 . S
H741 C756 0.959 . S
H742 C756 0.961 . S
H743 C757 0.960 . S
H744 C757 0.961 . S
H745 C757 0.959 . S
H746 C760 0.929 . S
H747 C761 0.931 . S
H748 C763 0.930 . S
C749 H737 0.930 . S
C749 C750 1.399 . S
C749 C754 1.399 . S
C750 C749 1.399 . S
C750 C751 1.376 . S
C751 H738 0.930 . S
C751 C750 1.376 . S
C751 C752 1.388 . S
C752 H739 0.930 . S
C752 C751 1.388 . S
C752 C753 1.390 . S
C753 C752 1.390 . S
C753 C754 1.394 . S
C753 C759 1.465 . S
C754 C749 1.399 . S
C754 C753 1.394 . S
C754 C755 1.516 . S
C755 C754 1.516 . S
C755 C756 1.502 . S
C755 C757 1.561 . S
C755 C758 1.526 . S
C756 H740 0.959 . S
C756 H741 0.959 . S
C756 H742 0.961 . S
C756 C755 1.502 . S
C757 H743 0.960 . S
C757 H744 0.961 . S
C757 H745 0.959 . S
C757 C755 1.561 . S
C758 C755 1.526 . S
C758 C759 1.396 . S
C758 C763 1.390 . S
C759 C753 1.465 . S
C759 C758 1.396 . S
C759 C760 1.399 . S
C760 H746 0.929 . S
C760 C759 1.399 . S
C760 C761 1.385 . S
C761 H747 0.931 . S
C761 C760 1.385 . S
C761 C762 1.389 . S
C762 C761 1.389 . S
C762 C763 1.387 . S
C763 H748 0.930 . S
C763 C758 1.390 . S
C763 C762 1.387 . S
H764 C776 0.930 . S
H765 C778 0.930 . S
H766 C779 0.930 . S
H767 C783 0.959 . S
H768 C783 0.959 . S
H769 C783 0.961 . S
H770 C784 0.960 . S
H771 C784 0.961 . S
H772 C784 0.959 . S
H773 C787 0.929 . S
H774 C788 0.931 . S
H775 C790 0.930 . S
C776 H764 0.930 . S
C776 C777 1.399 . S
C776 C781 1.399 . S
C777 C776 1.399 . S
C777 C778 1.376 . S
C778 H765 0.930 . S
C778 C777 1.376 . S
C778 C779 1.388 . S
C779 H766 0.930 . S
C779 C778 1.388 . S
C779 C780 1.390 . S
C780 C779 1.390 . S
C780 C781 1.394 . S
C780 C786 1.465 . S
C781 C776 1.399 . S
C781 C780 1.394 . S
C781 C782 1.516 . S
C782 C781 1.516 . S
C782 C783 1.502 . S
C782 C784 1.561 . S
C782 C785 1.526 . S
C783 H767 0.959 . S
C783 H768 0.959 . S
C783 H769 0.961 . S
C783 C782 1.502 . S
C784 H770 0.960 . S
C784 H771 0.961 . S
C784 H772 0.959 . S
C784 C782 1.561 . S
C785 C782 1.526 . S
C785 C786 1.396 . S
C785 C790 1.390 . S
C786 C780 1.465 . S
C786 C785 1.396 . S
C786 C787 1.399 . S
C787 H773 0.929 . S
C787 C786 1.399 . S
C787 C788 1.385 . S
C788 H774 0.931 . S
C788 C787 1.385 . S
C788 C789 1.389 . S
C789 C788 1.389 . S
C789 C790 1.387 . S
C790 H775 0.930 . S
C790 C785 1.390 . S
C790 C789 1.387 . S
H791 C803 0.930 . S
H792 C805 0.930 . S
H793 C806 0.930 . S
H794 C810 0.959 . S
H795 C810 0.959 . S
H796 C810 0.961 . S
H797 C811 0.960 . S
H798 C811 0.961 . S
H799 C811 0.959 . S
H800 C814 0.929 . S
H801 C815 0.931 . S
H802 C817 0.930 . S
C803 H791 0.930 . S
C803 C804 1.399 . S
C803 C808 1.399 . S
C804 C803 1.399 . S
C804 C805 1.376 . S
C805 H792 0.930 . S
C805 C804 1.376 . S
C805 C806 1.388 . S
C806 H793 0.930 . S
C806 C805 1.388 . S
C806 C807 1.390 . S
C807 C806 1.390 . S
C807 C808 1.394 . S
C807 C813 1.465 . S
C808 C803 1.399 . S
C808 C807 1.394 . S
C808 C809 1.516 . S
C809 C808 1.516 . S
C809 C810 1.502 . S
C809 C811 1.561 . S
C809 C812 1.526 . S
C810 H794 0.959 . S
C810 H795 0.959 . S
C810 H796 0.961 . S
C810 C809 1.502 . S
C811 H797 0.960 . S
C811 H798 0.961 . S
C811 H799 0.959 . S
C811 C809 1.561 . S
C812 C809 1.526 . S
C812 C813 1.396 . S
C812 C817 1.390 . S
C813 C807 1.465 . S
C813 C812 1.396 . S
C813 C814 1.399 . S
C814 H800 0.929 . S
C814 C813 1.399 . S
C814 C815 1.385 . S
C815 H801 0.931 . S
C815 C814 1.385 . S
C815 C816 1.389 . S
C816 C815 1.389 . S
C816 C817 1.387 . S
C817 H802 0.930 . S
C817 C812 1.390 . S
C817 C816 1.387 . S
H818 C830 0.930 . S
H819 C832 0.930 . S
H820 C833 0.930 . S
H821 C837 0.959 . S
H822 C837 0.959 . S
H823 C837 0.961 . S
H824 C838 0.960 . S
H825 C838 0.961 . S
H826 C838 0.959 . S
H827 C841 0.929 . S
H828 C842 0.931 1_565 S
H829 C844 0.930 . S
C830 H818 0.930 . S
C830 C831 1.399 . S
C830 C835 1.399 . S
C831 C830 1.399 . S
C831 C832 1.376 . S
C832 H819 0.930 . S
C832 C831 1.376 . S
C832 C833 1.388 . S
C833 H820 0.930 . S
C833 C832 1.388 . S
C833 C834 1.390 . S
C834 C833 1.390 . S
C834 C835 1.394 . S
C834 C840 1.465 . S
C835 C830 1.399 . S
C835 C834 1.394 . S
C835 C836 1.516 . S
C836 C835 1.516 . S
C836 C837 1.502 . S
C836 C838 1.561 . S
C836 C839 1.526 . S
C837 H821 0.959 . S
C837 H822 0.959 . S
C837 H823 0.961 . S
C837 C836 1.502 . S
C838 H824 0.960 . S
C838 H825 0.961 . S
C838 H826 0.959 . S
C838 C836 1.561 . S
C839 C836 1.526 . S
C839 C840 1.396 . S
C839 C844 1.390 . S
C840 C834 1.465 . S
C840 C839 1.396 . S
C840 C841 1.399 . S
C841 H827 0.929 . S
C841 C840 1.399 . S
C841 C842 1.385 . S
C842 H828 0.931 1_545 S
C842 C841 1.385 . S
C842 C843 1.389 . S
C843 C842 1.389 . S
C843 C844 1.387 . S
C844 H829 0.930 . S
C844 C839 1.390 . S
C844 C843 1.387 . S
H845 C857 0.930 . S
H846 C859 0.930 . S
H847 C860 0.930 . S
H848 C864 0.959 . S
H849 C864 0.959 . S
H850 C864 0.961 . S
H851 C865 0.960 . S
H852 C865 0.961 . S
H853 C865 0.959 . S
H854 C868 0.929 . S
H855 C869 0.931 . S
H856 C871 0.930 . S
C857 H845 0.930 . S
C857 C858 1.399 . S
C857 C862 1.399 . S
C858 C857 1.399 . S
C858 C859 1.376 . S
C859 H846 0.930 . S
C859 C858 1.376 . S
C859 C860 1.388 . S
C860 H847 0.930 . S
C860 C859 1.388 . S
C860 C861 1.390 . S
C861 C860 1.390 . S
C861 C862 1.394 . S
C861 C867 1.465 . S
C862 C857 1.399 . S
C862 C861 1.394 . S
C862 C863 1.516 . S
C863 C862 1.516 . S
C863 C864 1.502 . S
C863 C865 1.561 . S
C863 C866 1.526 . S
C864 H848 0.959 . S
C864 H849 0.959 . S
C864 H850 0.961 . S
C864 C863 1.502 . S
C865 H851 0.960 . S
C865 H852 0.961 . S
C865 H853 0.959 . S
C865 C863 1.561 . S
C866 C863 1.526 . S
C866 C867 1.396 . S
C866 C871 1.390 . S
C867 C861 1.465 . S
C867 C866 1.396 . S
C867 C868 1.399 . S
C868 H854 0.929 . S
C868 C867 1.399 . S
C868 C869 1.385 . S
C869 H855 0.931 . S
C869 C868 1.385 . S
C869 C870 1.389 . S
C870 C869 1.389 . S
C870 C871 1.387 . S
C871 H856 0.930 . S
C871 C866 1.390 . S
C871 C870 1.387 . S
H872 C884 0.930 . S
H873 C886 0.930 . S
H874 C887 0.930 . S
H875 C891 0.959 . S
H876 C891 0.959 . S
H877 C891 0.961 . S
H878 C892 0.960 . S
H879 C892 0.961 . S
H880 C892 0.959 . S
H881 C895 0.929 . S
H882 C896 0.931 . S
H883 C898 0.930 . S
C884 H872 0.930 . S
C884 C885 1.399 . S
C884 C889 1.399 . S
C885 C884 1.399 . S
C885 C886 1.376 . S
C886 H873 0.930 . S
C886 C885 1.376 . S
C886 C887 1.388 . S
C887 H874 0.930 . S
C887 C886 1.388 . S
C887 C888 1.390 . S
C888 C887 1.390 . S
C888 C889 1.394 . S
C888 C894 1.465 . S
C889 C884 1.399 . S
C889 C888 1.394 . S
C889 C890 1.516 . S
C890 C889 1.516 . S
C890 C891 1.502 . S
C890 C892 1.561 . S
C890 C893 1.526 . S
C891 H875 0.959 . S
C891 H876 0.959 . S
C891 H877 0.961 . S
C891 C890 1.502 . S
C892 H878 0.960 . S
C892 H879 0.961 . S
C892 H880 0.959 . S
C892 C890 1.561 . S
C893 C890 1.526 . S
C893 C894 1.396 . S
C893 C898 1.390 . S
C894 C888 1.465 . S
C894 C893 1.396 . S
C894 C895 1.399 . S
C895 H881 0.929 . S
C895 C894 1.399 . S
C895 C896 1.385 . S
C896 H882 0.931 . S
C896 C895 1.385 . S
C896 C897 1.389 . S
C897 C896 1.389 . S
C897 C898 1.387 . S
C898 H883 0.930 . S
C898 C893 1.390 . S
C898 C897 1.387 . S
H899 C911 0.930 . S
H900 C913 0.930 . S
H901 C914 0.930 . S
H902 C918 0.959 . S
H903 C918 0.959 . S
H904 C918 0.961 . S
H905 C919 0.960 . S
H906 C919 0.961 . S
H907 C919 0.959 . S
H908 C922 0.929 . S
H909 C923 0.931 . S
H910 C925 0.930 . S
C911 H899 0.930 . S
C911 C912 1.399 . S
C911 C916 1.399 . S
C912 C911 1.399 . S
C912 C913 1.376 . S
C913 H900 0.930 . S
C913 C912 1.376 . S
C913 C914 1.388 . S
C914 H901 0.930 . S
C914 C913 1.388 . S
C914 C915 1.390 . S
C915 C914 1.390 . S
C915 C916 1.394 . S
C915 C921 1.465 . S
C916 C911 1.399 . S
C916 C915 1.394 . S
C916 C917 1.516 . S
C917 C916 1.516 . S
C917 C918 1.502 . S
C917 C919 1.561 . S
C917 C920 1.526 . S
C918 H902 0.959 . S
C918 H903 0.959 . S
C918 H904 0.961 . S
C918 C917 1.502 . S
C919 H905 0.960 . S
C919 H906 0.961 . S
C919 H907 0.959 . S
C919 C917 1.561 . S
C920 C917 1.526 . S
C920 C921 1.396 . S
C920 C925 1.390 . S
C921 C915 1.465 . S
C921 C920 1.396 . S
C921 C922 1.399 . S
C922 H908 0.929 . S
C922 C921 1.399 . S
C922 C923 1.385 . S
C923 H909 0.931 . S
C923 C922 1.385 . S
C923 C924 1.389 . S
C924 C923 1.389 . S
C924 C925 1.387 . S
C925 H910 0.930 . S
C925 C920 1.390 . S
C925 C924 1.387 . S
H926 C938 0.930 . S
H927 C940 0.930 . S
H928 C941 0.930 . S
H929 C945 0.959 . S
H930 C945 0.959 . S
H931 C945 0.961 . S
H932 C946 0.960 . S
H933 C946 0.961 . S
H934 C946 0.959 . S
H935 C949 0.929 . S
H936 C950 0.931 . S
H937 C952 0.930 . S
C938 H926 0.930 . S
C938 C939 1.399 . S
C938 C943 1.399 . S
C939 C938 1.399 . S
C939 C940 1.376 . S
C940 H927 0.930 . S
C940 C939 1.376 . S
C940 C941 1.388 . S
C941 H928 0.930 . S
C941 C940 1.388 . S
C941 C942 1.390 . S
C942 C941 1.390 . S
C942 C943 1.394 . S
C942 C948 1.465 . S
C943 C938 1.399 . S
C943 C942 1.394 . S
C943 C944 1.516 . S
C944 C943 1.516 . S
C944 C945 1.502 . S
C944 C946 1.561 . S
C944 C947 1.526 . S
C945 H929 0.959 . S
C945 H930 0.959 . S
C945 H931 0.961 . S
C945 C944 1.502 . S
C946 H932 0.960 . S
C946 H933 0.961 . S
C946 H934 0.959 . S
C946 C944 1.561 . S
C947 C944 1.526 . S
C947 C948 1.396 . S
C947 C952 1.390 . S
C948 C942 1.465 . S
C948 C947 1.396 . S
C948 C949 1.399 . S
C949 H935 0.929 . S
C949 C948 1.399 . S
C949 C950 1.385 . S
C950 H936 0.931 . S
C950 C949 1.385 . S
C950 C951 1.389 . S
C951 C950 1.389 . S
C951 C952 1.387 . S
C952 H937 0.930 . S
C952 C947 1.390 . S
C952 C951 1.387 . S
H953 C965 0.930 . S
H954 C967 0.930 . S
H955 C968 0.930 . S
H956 C972 0.959 . S
H957 C972 0.959 . S
H958 C972 0.961 . S
H959 C973 0.960 . S
H960 C973 0.961 . S
H961 C973 0.959 . S
H962 C976 0.929 . S
H963 C977 0.931 . S
H964 C979 0.930 . S
C965 H953 0.930 . S
C965 C966 1.399 . S
C965 C970 1.399 . S
C966 C965 1.399 . S
C966 C967 1.376 . S
C967 H954 0.930 . S
C967 C966 1.376 . S
C967 C968 1.388 . S
C968 H955 0.930 . S
C968 C967 1.388 . S
C968 C969 1.390 . S
C969 C968 1.390 . S
C969 C970 1.394 . S
C969 C975 1.465 . S
C970 C965 1.399 . S
C970 C969 1.394 . S
C970 C971 1.516 . S
C971 C970 1.516 . S
C971 C972 1.502 . S
C971 C973 1.561 . S
C971 C974 1.526 . S
C972 H956 0.959 . S
C972 H957 0.959 . S
C972 H958 0.961 . S
C972 C971 1.502 . S
C973 H959 0.960 . S
C973 H960 0.961 . S
C973 H961 0.959 . S
C973 C971 1.561 . S
C974 C971 1.526 . S
C974 C975 1.396 . S
C974 C979 1.390 . S
C975 C969 1.465 . S
C975 C974 1.396 . S
C975 C976 1.399 . S
C976 H962 0.929 . S
C976 C975 1.399 . S
C976 C977 1.385 . S
C977 H963 0.931 . S
C977 C976 1.385 . S
C977 C978 1.389 . S
C978 C977 1.389 . S
C978 C979 1.387 . S
C979 H964 0.930 . S
C979 C974 1.390 . S
C979 C978 1.387 . S
H980 C992 0.930 . S
H981 C994 0.930 . S
H982 C995 0.930 . S
H983 C999 0.959 . S
H984 C999 0.959 . S
H985 C999 0.961 1_554 S
H986 C1000 0.960 . S
H987 C1000 0.961 . S
H988 C1000 0.959 . S
H989 C1003 0.929 . S
H990 C1004 0.931 . S
H991 C1006 0.924 1_545 S
C992 H980 0.930 . S
C992 C993 1.399 . S
C992 C997 1.399 . S
C993 C992 1.399 . S
C993 C994 1.376 1_545 S
C994 H981 0.930 . S
C994 C993 1.376 1_565 S
C994 C995 1.388 . S
C995 H982 0.930 . S
C995 C994 1.388 . S
C995 C996 1.390 . S
C996 C995 1.390 . S
C996 C997 1.394 1_565 S
C996 C1002 1.465 1_554 S
C997 C992 1.399 . S
C997 C996 1.394 1_545 S
C997 C998 1.516 1_554 S
C998 C997 1.516 1_556 S
C998 C999 1.502 . S
C998 C1000 1.561 . S
C998 C1001 1.526 . S
C999 H983 0.959 . S
C999 H984 0.959 . S
C999 H985 0.961 1_556 S
C999 C998 1.502 . S
C1000 H986 0.960 . S
C1000 H987 0.961 . S
C1000 H988 0.959 . S
C1000 C998 1.561 . S
C1001 C998 1.526 . S
C1001 C1002 1.396 1_545 S
C1001 C1006 1.388 1_545 S
C1002 C996 1.465 1_556 S
C1002 C1001 1.396 1_565 S
C1002 C1003 1.399 . S
C1003 H989 0.929 . S
C1003 C1002 1.399 . S
C1003 C1004 1.385 . S
C1004 H990 0.931 . S
C1004 C1003 1.385 . S
C1004 C1005 1.389 . S
C1005 C1004 1.389 . S
C1005 C1006 1.394 . S
C1006 H991 0.924 1_565 S
C1006 C1001 1.388 1_565 S
C1006 C1005 1.394 . S
H1007 C1019 0.930 . S
H1008 C1021 0.930 . S
H1009 C1022 0.930 . S
H1010 C1026 0.959 . S
H1011 C1026 0.959 1_554 S
H1012 C1026 0.961 . S
H1013 C1027 0.960 1_556 S
H1014 C1027 0.961 . S
H1015 C1027 0.959 . S
H1016 C1030 0.929 . S
H1017 C1031 0.931 . S
H1018 C1033 0.930 . S
C1019 H1007 0.930 . S
C1019 C1020 1.399 . S
C1019 C1024 1.399 . S
C1020 C1019 1.399 . S
C1020 C1021 1.376 . S
C1021 H1008 0.930 . S
C1021 C1020 1.376 . S
C1021 C1022 1.388 . S
C1022 H1009 0.930 . S
C1022 C1021 1.388 . S
C1022 C1023 1.390 . S
C1023 C1022 1.390 . S
C1023 C1024 1.394 . S
C1023 C1029 1.465 1_556 S
C1024 C1019 1.399 . S
C1024 C1023 1.394 . S
C1024 C1025 1.516 1_455 S
C1025 C1024 1.516 1_655 S
C1025 C1026 1.502 . S
C1025 C1027 1.561 1_656 S
C1025 C1028 1.526 1_556 S
C1026 H1010 0.959 . S
C1026 H1011 0.959 1_556 S
C1026 H1012 0.961 . S
C1026 C1025 1.502 . S
C1027 H1013 0.960 1_554 S
C1027 H1014 0.961 . S
C1027 H1015 0.959 . S
C1027 C1025 1.561 1_454 S
C1028 C1025 1.526 1_554 S
C1028 C1029 1.396 1_655 S
C1028 C1033 1.390 . S
C1029 C1023 1.465 1_554 S
C1029 C1028 1.396 1_455 S
C1029 C1030 1.399 . S
C1030 H1016 0.929 . S
C1030 C1029 1.399 . S
C1030 C1031 1.385 1_455 S
C1031 H1017 0.931 . S
C1031 C1030 1.385 1_655 S
C1031 C1032 1.389 . S
C1032 C1031 1.389 . S
C1032 C1033 1.387 . S
C1033 H1018 0.930 . S
C1033 C1028 1.390 . S
C1033 C1032 1.387 . S
H1034 C1046 0.930 . S
H1035 C1048 0.930 . S
H1036 C1049 0.930 . S
H1037 C1053 0.959 . S
H1038 C1053 0.959 . S
H1039 C1053 0.961 . S
H1040 C1054 0.960 . S
H1041 C1054 0.961 . S
H1042 C1054 0.959 . S
H1043 C1057 0.929 . S
H1044 C1058 0.931 . S
H1045 C1060 0.930 . S
C1046 H1034 0.930 . S
C1046 C1047 1.399 . S
C1046 C1051 1.399 . S
C1047 C1046 1.399 . S
C1047 C1048 1.376 1_545 S
C1048 H1035 0.930 . S
C1048 C1047 1.376 1_565 S
C1048 C1049 1.388 . S
C1049 H1036 0.930 . S
C1049 C1048 1.388 . S
C1049 C1050 1.390 . S
C1050 C1049 1.390 . S
C1050 C1051 1.394 1_565 S
C1050 C1056 1.465 1_556 S
C1051 C1046 1.399 . S
C1051 C1050 1.394 1_545 S
C1051 C1052 1.516 1_556 S
C1052 C1051 1.516 1_554 S
C1052 C1053 1.502 . S
C1052 C1054 1.561 . S
C1052 C1055 1.526 . S
C1053 H1037 0.959 . S
C1053 H1038 0.959 . S
C1053 H1039 0.961 . S
C1053 C1052 1.502 . S
C1054 H1040 0.960 . S
C1054 H1041 0.961 . S
C1054 H1042 0.959 . S
C1054 C1052 1.561 . S
C1055 C1052 1.526 . S
C1055 C1056 1.396 1_545 S
C1055 C1060 1.390 . S
C1056 C1050 1.465 1_554 S
C1056 C1055 1.396 1_565 S
C1056 C1057 1.399 . S
C1057 H1043 0.929 . S
C1057 C1056 1.399 . S
C1057 C1058 1.385 . S
C1058 H1044 0.931 . S
C1058 C1057 1.385 . S
C1058 C1059 1.389 . S
C1059 C1058 1.389 . S
C1059 C1060 1.387 1_565 S
C1060 H1045 0.930 . S
C1060 C1055 1.390 . S
C1060 C1059 1.387 1_545 S
H1061 C1073 0.930 . S
H1062 C1075 0.930 . S
H1063 C1076 0.930 . S
H1064 C1080 0.959 . S
H1065 C1080 0.959 1_554 S
H1066 C1080 0.961 . S
H1067 C1081 0.960 1_556 S
H1068 C1081 0.961 . S
H1069 C1081 0.959 . S
H1070 C1084 0.929 . S
H1071 C1085 0.931 . S
H1072 C1087 0.930 . S
C1073 H1061 0.930 . S
C1073 C1074 1.399 . S
C1073 C1078 1.399 . S
C1074 C1073 1.399 . S
C1074 C1075 1.376 . S
C1075 H1062 0.930 . S
C1075 C1074 1.376 . S
C1075 C1076 1.388 . S
C1076 H1063 0.930 . S
C1076 C1075 1.388 . S
C1076 C1077 1.390 . S
C1077 C1076 1.390 . S
C1077 C1078 1.394 . S
C1077 C1083 1.465 1_656 S
C1078 C1073 1.399 . S
C1078 C1077 1.394 . S
C1078 C1079 1.491 1_556 S
C1079 C1078 1.491 1_554 S
C1079 C1080 1.495 1_654 S
C1079 C1081 1.571 . S
C1079 C1082 1.551 1_655 S
C1080 H1064 0.959 . S
C1080 H1065 0.959 1_556 S
C1080 H1066 0.961 . S
C1080 C1079 1.495 1_456 S
C1081 H1067 0.960 1_554 S
C1081 H1068 0.961 . S
C1081 H1069 0.959 . S
C1081 C1079 1.571 . S
C1082 C1079 1.551 1_455 S
C1082 C1083 1.396 . S
C1082 C1087 1.390 . S
C1083 C1077 1.465 1_454 S
C1083 C1082 1.396 . S
C1083 C1084 1.399 . S
C1084 H1070 0.929 . S
C1084 C1083 1.399 . S
C1084 C1085 1.385 . S
C1085 H1071 0.931 . S
C1085 C1084 1.385 . S
C1085 C1086 1.389 . S
C1086 C1085 1.389 . S
C1086 C1087 1.387 . S
C1087 H1072 0.930 . S
C1087 C1082 1.390 . S
C1087 C1086 1.387 . S
C237 C11 1.251 . S
C249 C109 1.253 . S
C264 C25 1.254 . S
C276 C67 1.253 . S
C291 C81 1.244 . S
C303 C39 1.244 . S
C318 C53 1.257 . S
C330 C95 1.256 . S
C345 C123 1.255 . S
C357 C221 1.254 . S
C372 C179 1.250 . S
C384 C137 1.252 . S
C399 C193 1.244 . S
C411 C151 1.244 . S
C426 C207 1.252 . S
C438 C165 1.254 . S
C453 C5 1.361 . S
C465 C154 1.395 . S
C480 C19 1.390 . S
C492 C112 1.386 . S
C507 C126 1.366 . S
C519 C33 1.378 . S
C534 C47 1.379 . S
C546 C140 1.396 . S
C561 C61 1.355 . S
C573 C182 1.393 . S
C588 C196 1.365 . S
C600 C75 1.360 . S
C615 C89 1.395 . S
C627 C210 1.387 . S
C642 C168 1.362 . S
C654 C103 1.339 . S
C669 C117 1.392 1_545 S
C681 C42 1.389 . S
C696 C0 1.370 . S
C708 C131 1.365 1_455 S
C723 C145 1.385 1_565 S
C735 C14 1.374 . S
C750 C28 1.398 . S
C762 C159 1.390 1_655 S
C777 C173 1.392 1_565 S
C789 C70 1.383 . S
C804 C84 1.397 . S
C816 C187 1.379 1_655 S
C831 C98 1.361 . S
C843 C201 1.349 1_545 S
C858 C56 1.398 . S
C870 C215 1.390 1_455 S
C885 C65 1.621 . S
C897 C9 1.622 . S
C912 C79 1.621 . S
C924 C23 1.623 . S
C939 C37 1.620 . S
C951 C93 1.621 . S
C966 C107 1.617 . S
C978 C51 1.615 . S
C993 C177 1.616 . S
C1005 C121 1.616 . S
C1020 C191 1.621 . S
C1032 C135 1.623 . S
C1047 C149 1.617 . S
C1059 C205 1.617 . S
C1074 C219 1.622 . S
C1086 C163 1.623 . S
