# Generated by pormake.
# Topology umj, (4)-cn, num edge types: 1
# Building blocks:
#     Node 0, Type 0, BuildingBlock: NAWXER_clean_sbu_0, # of connection points: 4
#     Node 1, Type 0, BuildingBlock: NAWXER_clean_sbu_0, # of connection points: 4
#     Node 2, Type 0, BuildingBlock: NAWXER_clean_sbu_0, # of connection points: 4
#     Node 3, Type 0, BuildingBlock: NAWXER_clean_sbu_0, # of connection points: 4
#     Node 4, Type 0, BuildingBlock: NAWXER_clean_sbu_0, # of connection points: 4
#     Node 5, Type 0, BuildingBlock: NAWXER_clean_sbu_0, # of connection points: 4
#     Node 6, Type 0, BuildingBlock: NAWXER_clean_sbu_0, # of connection points: 4
#     Node 7, Type 0, BuildingBlock: NAWXER_clean_sbu_0, # of connection points: 4
#     Node 8, Type 0, BuildingBlock: NAWXER_clean_sbu_0, # of connection points: 4
#     Node 9, Type 0, BuildingBlock: NAWXER_clean_sbu_0, # of connection points: 4
#     Node 10, Type 0, BuildingBlock: NAWXER_clean_sbu_0, # of connection points: 4
#     Node 11, Type 0, BuildingBlock: NAWXER_clean_sbu_0, # of connection points: 4
#     Edge 12, Type (0, 0), BuildingBlock: XUDNAN_clean_linker_2, # of connection points: 2
#     Edge 13, Type (0, 0), BuildingBlock: XUDNAN_clean_linker_2, # of connection points: 2
#     Edge 14, Type (0, 0), BuildingBlock: XUDNAN_clean_linker_2, # of connection points: 2
#     Edge 15, Type (0, 0), BuildingBlock: XUDNAN_clean_linker_2, # of connection points: 2
#     Edge 16, Type (0, 0), BuildingBlock: XUDNAN_clean_linker_2, # of connection points: 2
#     Edge 17, Type (0, 0), BuildingBlock: XUDNAN_clean_linker_2, # of connection points: 2
#     Edge 18, Type (0, 0), BuildingBlock: XUDNAN_clean_linker_2, # of connection points: 2
#     Edge 19, Type (0, 0), BuildingBlock: XUDNAN_clean_linker_2, # of connection points: 2
#     Edge 20, Type (0, 0), BuildingBlock: XUDNAN_clean_linker_2, # of connection points: 2
#     Edge 21, Type (0, 0), BuildingBlock: XUDNAN_clean_linker_2, # of connection points: 2
#     Edge 22, Type (0, 0), BuildingBlock: XUDNAN_clean_linker_2, # of connection points: 2
#     Edge 23, Type (0, 0), BuildingBlock: XUDNAN_clean_linker_2, # of connection points: 2
#     Edge 24, Type (0, 0), BuildingBlock: XUDNAN_clean_linker_2, # of connection points: 2
#     Edge 25, Type (0, 0), BuildingBlock: XUDNAN_clean_linker_2, # of connection points: 2
#     Edge 26, Type (0, 0), BuildingBlock: XUDNAN_clean_linker_2, # of connection points: 2
#     Edge 27, Type (0, 0), BuildingBlock: XUDNAN_clean_linker_2, # of connection points: 2
#     Edge 28, Type (0, 0), BuildingBlock: XUDNAN_clean_linker_2, # of connection points: 2
#     Edge 29, Type (0, 0), BuildingBlock: XUDNAN_clean_linker_2, # of connection points: 2
#     Edge 30, Type (0, 0), BuildingBlock: XUDNAN_clean_linker_2, # of connection points: 2
#     Edge 31, Type (0, 0), BuildingBlock: XUDNAN_clean_linker_2, # of connection points: 2
#     Edge 32, Type (0, 0), BuildingBlock: XUDNAN_clean_linker_2, # of connection points: 2
#     Edge 33, Type (0, 0), BuildingBlock: XUDNAN_clean_linker_2, # of connection points: 2
#     Edge 34, Type (0, 0), BuildingBlock: XUDNAN_clean_linker_2, # of connection points: 2
#     Edge 35, Type (0, 0), BuildingBlock: XUDNAN_clean_linker_2, # of connection points: 2
# Relax obj value: 0.019
# Max RMSD: 0.124
# Mean RMSD: 0.123
data_MOF--net-umj--node1-NAWXER_clean_sbu_0--edge1-XUDNAN_clean_linker_2
_symmetry_space_group_name_H-M    P1
_symmetry_Int_Tables_number       1
_symmetry_cell_setting            triclinic
loop_
_symmetry_equiv_pos_as_xyz
'x, y, z'
_cell_length_a     29.357865
_cell_length_b     29.335234
_cell_length_c     84.285467
_cell_angle_alpha  89.58396
_cell_angle_beta   90.332132
_cell_angle_gamma 120.03829
loop_
_atom_site_label
_atom_site_type_symbol
_atom_site_fract_x
_atom_site_fract_y
_atom_site_fract_z
_atom_type_partial_charge
C0 C 0.07135 0.29275 0.12628 0.0
C1 C 0.10063 0.313 0.06887 0.0
O2 O 0.11472 0.30919 0.11902 0.0
Zn3 Zn 0.08848 0.30333 0.09748 0.0
O4 O 0.02944 0.27984 0.11827 0.0
Zn5 Zn 1.00634 0.27611 0.09411 0.0
O6 O 0.95814 0.20076 0.09127 0.0
O7 O 0.0405 0.22032 0.09456 0.0
O8 O 0.05295 0.29671 0.07301 0.0
O9 O 0.13521 0.32089 0.07935 0.0
O10 O 0.06808 0.36406 0.096 0.0
O11 O 0.98199 0.32696 0.09322 0.0
C12 C 0.99208 0.18594 0.09226 0.0
C13 C 0.02697 0.36839 0.09427 0.0
C14 C 0.78789 0.09432 0.40114 0.0
C15 C 0.7868 0.05684 0.458 0.0
O16 O 0.80979 0.12796 0.41215 0.0
Zn17 Zn 0.79003 0.07709 0.4294 0.0
O18 O 0.76489 0.04504 0.40443 0.0
Zn19 Zn 0.74992 0.99555 0.42492 0.0
O20 O 0.67474 0.95502 0.4243 0.0
O21 O 0.70466 0.0394 0.42875 0.0
O22 O 0.76481 0.01486 0.44963 0.0
O23 O 0.80689 0.10138 0.45109 0.0
O24 O 0.84087 0.0453 0.42484 0.0
O25 O 0.78912 0.96072 0.42022 0.0
C26 C 0.66582 0.99263 0.4266 0.0
C27 C 0.83517 1.00028 0.42131 0.0
C28 C 0.75234 0.76952 0.78972 0.0
C29 C 0.69788 0.79331 0.73621 0.0
O30 O 0.72305 0.78902 0.78664 0.0
Zn31 Zn 0.72546 0.78622 0.76322 0.0
O32 O 0.77249 0.75738 0.77823 0.0
Zn33 Zn 0.77366 0.7575 0.75312 0.0
O34 O 0.84679 0.80855 0.74801 0.0
O35 O 0.80351 0.84604 0.75732 0.0
O36 O 0.72989 0.77566 0.73643 0.0
O37 O 0.68477 0.80603 0.74911 0.0
O38 O 0.68652 0.70302 0.75887 0.0
O39 O 0.74378 0.68277 0.74903 0.0
C40 C 0.84577 0.85001 0.75166 0.0
C41 C 0.6971 0.6686 0.75348 0.0
C42 C 1.00432 0.69192 0.08893 0.0
C43 C 0.97061 0.84019 0.09118 0.0
O44 O 0.03519 0.73882 0.08418 0.0
Zn45 Zn 0.99104 0.76856 0.08998 0.0
O46 O 0.96023 0.68054 0.0952 0.0
Zn47 Zn 0.91585 0.71733 0.10105 0.0
O48 O 0.85399 0.67727 0.08744 0.0
O49 O 0.92636 0.73003 0.07404 0.0
O50 O 0.93334 0.79675 0.0968 0.0
O51 O 0.01249 0.84225 0.0862 0.0
O52 O 0.99296 0.76542 0.11505 0.0
O53 O 0.91374 0.71213 0.12448 0.0
C54 C 0.87703 0.69659 0.07428 0.0
C55 C 0.96261 0.74338 0.12692 0.0
C56 C 0.16737 0.99999 0.41847 0.0
C57 C 0.32808 0.98853 0.42543 0.0
O58 O 0.21358 0.03693 0.41511 0.0
Zn59 Zn 0.25133 1.00109 0.42269 0.0
O60 O 0.16081 0.95792 0.42519 0.0
Zn61 Zn 0.20454 0.92339 0.43362 0.0
O62 O 0.19642 0.92098 0.45677 0.0
O63 O 0.2435 1.00197 0.44754 0.0
O64 O 0.28549 0.94937 0.43065 0.0
O65 O 0.32772 0.02923 0.42018 0.0
O66 O 0.22193 0.93531 0.40705 0.0
O67 O 0.17435 0.86053 0.42027 0.0
C68 C 0.22251 0.97036 0.45926 0.0
C69 C 0.19397 0.885 0.40728 0.0
C70 C 0.32502 0.18889 0.73925 0.0
C71 C 0.27446 0.22854 0.7904 0.0
O72 O 0.32749 0.16901 0.7525 0.0
Zn73 Zn 0.30023 0.20565 0.76515 0.0
O74 O 0.30673 0.22031 0.73848 0.0
Zn75 Zn 0.27564 0.25586 0.75354 0.0
O76 O 0.32696 0.33031 0.75031 0.0
O77 O 0.36103 0.28552 0.76136 0.0
O78 O 0.26634 0.25044 0.77838 0.0
O79 O 0.2948 0.19956 0.78838 0.0
O80 O 0.21992 0.1666 0.75757 0.0
O81 O 0.20308 0.22459 0.7462 0.0
C82 C 0.36685 0.32869 0.75561 0.0
C83 C 0.18759 0.17742 0.75057 0.0
C84 C 0.6975 0.01411 0.60861 0.0
C85 C 0.84629 0.9812 0.60904 0.0
O86 O 0.74434 0.04627 0.6131 0.0
Zn87 Zn 0.77425 1.00147 0.60876 0.0
O88 O 0.68648 0.96902 0.6032 0.0
Zn89 Zn 0.7243 0.92436 0.59867 0.0
O90 O 0.68505 0.86444 0.61309 0.0
O91 O 0.73353 0.93963 0.62557 0.0
O92 O 0.80324 0.94307 0.60361 0.0
O93 O 0.8479 0.02362 0.6132 0.0
O94 O 0.77193 0.99955 0.58367 0.0
O95 O 0.7201 0.91864 0.57527 0.0
C96 C 0.70109 0.88999 0.62604 0.0
C97 C 0.75074 0.96726 0.57219 0.0
C98 C 0.79739 0.69091 0.96147 0.0
C99 C 0.78801 0.71648 0.90411 0.0
O100 O 0.80729 0.66803 0.95037 0.0
Zn101 Zn 0.79361 0.70294 0.93287 0.0
O102 O 0.78283 0.72443 0.95807 0.0
Zn103 Zn 0.76654 0.75677 0.93708 0.0
O104 O 0.69122 0.73028 0.93906 0.0
O105 O 0.71013 0.66765 0.93466 0.0
O106 O 0.77368 0.74359 0.91239 0.0
O107 O 0.80295 0.68773 0.91116 0.0
O108 O 0.85463 0.78371 0.93563 0.0
O109 O 0.81689 0.83163 0.93923 0.0
C110 C 0.67592 0.68173 0.93708 0.0
C111 C 0.85852 0.82873 0.93793 0.0
C112 C 0.11719 0.79895 0.29594 0.0
C113 C 0.07086 0.77793 0.23943 0.0
O114 O 0.14816 0.82006 0.28424 0.0
Zn115 Zn 0.0956 0.7892 0.26778 0.0
O116 O 0.06784 0.76829 0.29342 0.0
Zn117 Zn 0.0151 0.73688 0.2733 0.0
O118 O 0.98991 0.66145 0.27541 0.0
O119 O 0.07477 0.70879 0.27033 0.0
O120 O 0.03076 0.75103 0.24834 0.0
O121 O 0.11595 0.80509 0.24578 0.0
O122 O 0.05013 0.82661 0.2717 0.0
O123 O 0.96848 0.76506 0.2769 0.0
C124 C 0.0341 0.66415 0.27334 0.0
C125 C 1.0026 0.81352 0.27507 0.0
C126 C 0.32212 0.11343 0.62811 0.0
C127 C 0.29256 0.07195 0.57165 0.0
O128 O 0.33133 0.14546 0.61668 0.0
Zn129 Zn 0.308 0.09421 0.59996 0.0
O130 O 0.30275 0.06421 0.62529 0.0
Zn131 Zn 0.27976 0.01307 0.60497 0.0
O132 O 0.33014 0.98772 0.60616 0.0
O133 O 0.3674 0.07291 0.60142 0.0
O134 O 0.27984 0.03112 0.58026 0.0
O135 O 0.31124 0.11665 0.57823 0.0
O136 O 0.22524 0.04854 0.60432 0.0
O137 O 0.205 0.96643 0.60896 0.0
C138 C 0.37156 0.03208 0.60398 0.0
C139 C 0.19075 1.00076 0.60758 0.0
C140 C 0.21614 0.28348 0.90186 0.0
C141 C 0.18679 0.30807 0.9571 0.0
O142 O 0.18772 0.30061 0.90761 0.0
Zn143 Zn 0.20174 0.2961 0.92958 0.0
O144 O 0.2425 0.27067 0.91126 0.0
Zn145 Zn 0.25368 0.26943 0.93657 0.0
O146 O 0.22646 0.19474 0.94062 0.0
O147 O 0.16473 0.21284 0.93368 0.0
O148 O 0.21897 0.29068 0.95575 0.0
O149 O 0.16724 0.31654 0.94471 0.0
O150 O 0.28204 0.35701 0.93232 0.0
O151 O 0.32863 0.31992 0.93912 0.0
C152 C 0.17822 0.17912 0.93781 0.0
C153 C 0.32643 0.36126 0.93598 0.0
C154 C 0.97617 0.22467 0.23935 0.0
C155 C 0.88938 0.19017 0.29133 0.0
O156 O 0.92725 0.20638 0.24174 0.0
Zn157 Zn 0.92939 0.2052 0.26499 0.0
O158 O 1.00698 0.2347 0.25125 0.0
Zn159 Zn 1.0043 0.23136 0.27639 0.0
O160 O 0.02599 0.17967 0.28116 0.0
O161 O 0.94732 0.14454 0.27011 0.0
O162 O 0.9391 0.20801 0.29198 0.0
O163 O 0.86654 0.18177 0.27789 0.0
O164 O 0.97257 0.28712 0.27065 0.0
O165 O 0.04806 0.30536 0.28179 0.0
C166 C 0.98447 0.13922 0.27621 0.0
C167 C 0.01658 0.3205 0.27694 0.0
H168 H 0.92648 0.21617 0.21054 0.0
H169 H 0.07835 0.25956 0.2315 0.0
H170 H 0.11897 0.28195 0.20509 0.0
H171 H 0.94363 0.15777 0.17492 0.0
H172 H 0.91081 0.18214 0.16224 0.0
H173 H 0.89303 0.16873 0.18286 0.0
H174 H 0.91177 0.26428 0.18642 0.0
H175 H 0.9298 0.27802 0.16582 0.0
H176 H 0.97529 0.31864 0.181 0.0
H177 H 0.1442 0.30107 0.17648 0.0
H178 H 0.15114 0.31356 0.14737 0.0
H179 H 0.98357 0.258 0.14484 0.0
C180 C 0.96819 0.23012 0.20956 0.0
C181 C 0.99906 0.23603 0.22316 0.0
C182 C 0.05365 0.25463 0.22132 0.0
C183 C 0.07727 0.26755 0.20634 0.0
C184 C 0.04595 0.2617 0.19321 0.0
C185 C 0.99259 0.24329 0.19463 0.0
C186 C 0.96813 0.24092 0.17855 0.0
C187 C 0.92644 0.184 0.1744 0.0
C188 C 0.94489 0.27766 0.17792 0.0
C189 C 0.01609 0.26095 0.16796 0.0
C190 C 0.06058 0.27274 0.17666 0.0
C191 C 0.10961 0.29192 0.16951 0.0
C192 C 0.11321 0.29897 0.15297 0.0
C193 C 0.06803 0.28684 0.14379 0.0
C194 C 0.01896 0.26774 0.15148 0.0
H195 H 0.73832 0.9675 0.47672 0.0
H196 H 0.83789 0.13752 0.47911 0.0
H197 H 0.83971 0.13175 0.50829 0.0
H198 H 0.66094 0.95372 0.5113 0.0
H199 H 0.65607 0.89271 0.51774 0.0
H200 H 0.66322 0.9096 0.49696 0.0
H201 H 0.7456 0.8991 0.49563 0.0
H202 H 0.73873 0.88217 0.51642 0.0
H203 H 0.79968 0.93601 0.50907 0.0
H204 H 0.83111 0.10846 0.53686 0.0
H205 H 0.81164 0.06988 0.56355 0.0
H206 H 0.71599 0.91387 0.54342 0.0
C207 C 0.76069 1.00354 0.48337 0.0
C208 C 0.78814 0.05307 0.47557 0.0
C209 C 0.8166 0.0992 0.48476 0.0
C210 C 0.81791 0.0963 0.50136 0.0
C211 C 0.79044 0.04701 0.50863 0.0
C212 C 0.76223 1.00141 0.49999 0.0
C213 C 0.73555 0.95357 0.51089 0.0
C214 C 0.67537 0.92577 0.50911 0.0
C215 C 0.75613 0.91547 0.50781 0.0
C216 C 0.75319 0.97953 0.52701 0.0
C217 C 0.78495 0.03343 0.52533 0.0
C218 C 0.8063 0.06632 0.53834 0.0
C219 C 0.79489 0.04377 0.5535 0.0
C220 C 0.76217 0.9886 0.55571 0.0
C221 C 0.7411 0.95607 0.54219 0.0
H222 H 0.72585 0.79669 0.81851 0.0
H223 H 0.8015 0.7155 0.79835 0.0
H224 H 0.81799 0.69338 0.82507 0.0
H225 H 0.81501 0.85167 0.85209 0.0
H226 H 0.76448 0.84351 0.86577 0.0
H227 H 0.7578 0.85325 0.84495 0.0
H228 H 0.66756 0.76704 0.84445 0.0
H229 H 0.67402 0.75701 0.86527 0.0
H230 H 0.66307 0.70647 0.85121 0.0
H231 H 0.8255 0.67797 0.85374 0.0
H232 H 0.82602 0.67322 0.88297 0.0
H233 H 0.74784 0.76551 0.88529 0.0
C234 C 0.74591 0.77434 0.81974 0.0
C235 C 0.76231 0.75798 0.80622 0.0
C236 C 0.78858 0.72882 0.80842 0.0
C237 C 0.79813 0.71584 0.8236 0.0
C238 C 0.78153 0.73237 0.83663 0.0
C239 C 0.75623 0.7612 0.83494 0.0
C240 C 0.74319 0.77435 0.85109 0.0
C241 C 0.77184 0.83425 0.85362 0.0
C242 C 0.6834 0.74974 0.85312 0.0
C243 C 0.76493 0.7482 0.86199 0.0
C244 C 0.78668 0.72408 0.85335 0.0
C245 C 0.80874 0.69685 0.86067 0.0
C246 C 0.80879 0.6943 0.8773 0.0
C247 C 0.78716 0.71904 0.88649 0.0
C248 C 0.76493 0.74632 0.87864 0.0
H249 H 0.91464 0.70369 0.15624 0.0
H250 H 0.06552 0.80876 0.13424 0.0
H251 H 0.10837 0.82762 0.16028 0.0
H252 H 0.93739 0.78251 0.19162 0.0
H253 H 0.90503 0.72658 0.20477 0.0
H254 H 0.88501 0.72065 0.18429 0.0
H255 H 0.90117 0.64216 0.18096 0.0
H256 H 0.92138 0.64797 0.20142 0.0
H257 H 0.96467 0.65041 0.18594 0.0
H258 H 0.13643 0.83536 0.18833 0.0
H259 H 0.14717 0.83279 0.21729 0.0
H260 H 0.97936 0.72386 0.22193 0.0
C261 C 0.95661 0.73075 0.15692 0.0
C262 C 0.98646 0.75459 0.14307 0.0
C263 C 0.04144 0.78978 0.14456 0.0
C264 C 0.06641 0.80087 0.15935 0.0
C265 C 0.03615 0.77668 0.1727 0.0
C266 C 0.98249 0.74251 0.17173 0.0
C267 C 0.95967 0.72223 0.18811 0.0
C268 C 0.91939 0.73901 0.19245 0.0
C269 C 0.93529 0.66213 0.18916 0.0
C270 C 1.00894 0.75035 0.19831 0.0
C271 C 0.05255 0.78145 0.18911 0.0
C272 C 0.10258 0.81121 0.1957 0.0
C273 C 0.1083 0.80944 0.21218 0.0
C274 C 0.06424 0.77819 0.22195 0.0
C275 C 0.01391 0.74816 0.21483 0.0
H276 H 0.25427 0.98169 0.55389 0.0
H277 H 0.31132 0.1495 0.55001 0.0
H278 H 0.29562 0.14009 0.52112 0.0
H279 H 0.3114 0.97018 0.51771 0.0
H280 H 0.25672 0.90635 0.5128 0.0
H281 H 0.2713 0.92589 0.53325 0.0
H282 H 0.17618 0.90779 0.53714 0.0
H283 H 0.16136 0.88843 0.51667 0.0
H284 H 0.15133 0.93994 0.52433 0.0
H285 H 0.27535 0.1134 0.4929 0.0
H286 H 0.25443 0.07194 0.46663 0.0
H287 H 0.20981 0.92058 0.48836 0.0
C288 C 0.26344 0.0165 0.54698 0.0
C289 C 0.28406 0.06642 0.55425 0.0
C290 C 0.29558 0.11091 0.54474 0.0
C291 C 0.28665 0.10593 0.52833 0.0
C292 C 0.26613 0.0562 0.52158 0.0
C293 C 0.25478 0.01226 0.53056 0.0
C294 C 0.23399 0.96358 0.52024 0.0
C295 C 0.27054 0.94014 0.52105 0.0
C296 C 0.17735 0.92251 0.52487 0.0
C297 C 0.23577 0.98716 0.50403 0.0
C298 C 0.25427 0.04063 0.50515 0.0
C299 C 0.26073 0.07158 0.49186 0.0
C300 C 0.24874 0.04753 0.47697 0.0
C301 C 0.23044 0.99292 0.4754 0.0
C302 C 0.22323 0.96224 0.48918 0.0
H303 H 0.3021 0.20868 0.8202 0.0
H304 H 0.21098 0.26879 0.79642 0.0
H305 H 0.18583 0.28766 0.82217 0.0
H306 H 0.2126 0.14784 0.85361 0.0
H307 H 0.26465 0.1659 0.86793 0.0
H308 H 0.27465 0.15499 0.84755 0.0
H309 H 0.35716 0.24806 0.84624 0.0
H310 H 0.3473 0.2593 0.8666 0.0
H311 H 0.35146 0.30459 0.85133 0.0
H312 H 0.17137 0.30211 0.85 0.0
H313 H 0.16836 0.3112 0.87893 0.0
H314 H 0.26904 0.24318 0.88543 0.0
C315 C 0.27654 0.22539 0.82045 0.0
C316 C 0.25865 0.23728 0.80624 0.0
C317 C 0.22554 0.25954 0.80709 0.0
C318 C 0.21082 0.27035 0.82168 0.0
C319 C 0.22948 0.25884 0.83542 0.0
C320 C 0.26155 0.23685 0.83503 0.0
C321 C 0.27682 0.22967 0.85171 0.0
C322 C 0.25592 0.17111 0.85541 0.0
C323 C 0.33675 0.26236 0.85411 0.0
C324 C 0.24848 0.25131 0.86141 0.0
C325 C 0.22133 0.26769 0.85172 0.0
C326 C 0.19235 0.28934 0.85777 0.0
C327 C 0.19092 0.29437 0.87423 0.0
C328 C 0.21843 0.27796 0.88448 0.0
C329 C 0.24761 0.25615 0.87792 0.0
H330 H 0.17331 0.29961 0.05199 0.0
H331 H 0.05633 0.34808 0.04747 0.0
H332 H 0.07055 0.35802 0.01859 0.0
H333 H 0.26163 0.38448 0.01991 0.0
H334 H 0.2756 0.33459 1.01317 0.0
H335 H 0.26096 0.33707 0.03378 0.0
H336 H 0.18571 0.23992 0.03243 0.0
H337 H 0.19988 0.23725 1.01182 0.0
H338 H 0.13455 0.22105 0.01774 0.0
H339 H 0.09198 0.35682 0.99032 0.0
H340 H 0.11914 0.34372 0.96395 0.0
H341 H 0.22074 0.2935 0.98621 0.0
C342 C 0.15173 0.31349 0.04492 0.0
C343 C 0.11402 0.32347 0.05191 0.0
C344 C 0.08541 0.34026 0.0423 0.0
C345 C 0.09333 0.34621 0.0259 0.0
C346 C 0.1298 0.33493 0.01927 0.0
C347 C 0.15863 0.31894 0.02841 0.0
C348 C 0.19233 0.30556 0.01804 0.0
C349 C 0.25112 0.34265 0.02143 0.0
C350 C 0.17719 0.2475 0.02013 0.0
C351 C 0.17718 0.31574 1.00171 0.0
C352 C 0.14148 0.33317 1.00275 0.0
C353 C 0.12029 0.34362 0.98932 0.0
C354 C 0.13588 0.33593 0.97439 0.0
C355 C 0.1721 0.31763 0.97298 0.0
C356 C 0.19317 0.30775 0.98687 0.0
H357 H 0.86969 0.17534 0.38519 0.0
H358 H 0.70942 0.04751 0.37944 0.0
H359 H 0.71379 0.06653 0.3507 0.0
H360 H 0.86795 0.26426 0.3534 0.0
H361 H 0.93394 0.28366 0.34725 0.0
H362 H 0.91498 0.26657 0.36769 0.0
H363 H 0.94437 0.19676 0.3666 0.0
H364 H 0.96322 0.2135 0.3462 0.0
H365 H 0.91696 0.14636 0.35163 0.0
H366 H 0.7385 0.09356 0.3222 0.0
H367 H 0.78372 0.1224 0.29626 0.0
H368 H 0.92906 0.2291 0.32056 0.0
C369 C 0.83506 0.15266 0.37793 0.0
C370 C 0.78894 0.11061 0.38449 0.0
C371 C 0.74495 0.08024 0.37459 0.0
C372 C 0.74699 0.09089 0.35828 0.0
C373 C 0.79351 0.13177 0.35203 0.0
C374 C 0.83685 0.16209 0.36155 0.0
C375 C 0.88411 0.19911 0.35165 0.0
C376 C 0.90124 0.25683 0.35521 0.0
C377 C 0.92983 0.18824 0.35417 0.0
C378 C 0.86102 0.18383 0.33513 0.0
C379 C 0.80843 0.14578 0.33557 0.0
C380 C 0.77955 0.12381 0.3217 0.0
C381 C 0.80545 0.14043 0.30702 0.0
C382 C 0.85982 0.17786 0.3064 0.0
C383 C 0.88741 0.20042 0.32065 0.0
H384 H 0.7177 0.88236 0.72009 0.0
H385 H 0.63571 0.7124 0.71697 0.0
H386 H 0.61756 0.71773 0.68852 0.0
H387 H 0.63646 0.90617 0.68963 0.0
H388 H 0.69394 0.96379 0.68209 0.0
H389 H 0.69053 0.94603 0.70275 0.0
H390 H 0.77832 0.94592 0.69996 0.0
H391 H 0.78165 0.96287 0.6793 0.0
H392 H 0.78379 0.90477 0.68519 0.0
H393 H 0.61971 0.74212 0.6596 0.0
H394 H 0.64115 0.78373 0.63293 0.0
H395 H 0.72396 0.93771 0.65498 0.0
C396 C 0.69369 0.84641 0.71354 0.0
C397 C 0.67645 0.79693 0.72073 0.0
C398 C 0.6478 0.75056 0.71168 0.0
C399 C 0.63752 0.75325 0.69552 0.0
C400 C 0.65657 0.80273 0.68856 0.0
C401 C 0.68371 0.84852 0.69732 0.0
C402 C 0.70544 0.89668 0.68668 0.0
C403 C 0.68006 0.93014 0.69052 0.0
C404 C 0.76586 0.92945 0.68786 0.0
C405 C 0.68787 0.87086 0.67058 0.0
C406 C 0.65908 0.81671 0.67187 0.0
C407 C 0.64151 0.78458 0.65846 0.0
C408 C 0.65396 0.80849 0.64335 0.0
C409 C 0.68418 0.86395 0.6418 0.0
C410 C 0.70057 0.8952 0.65567 0.0
H411 H 0.87631 0.763 0.05208 0.0
H412 H 0.81839 0.59781 0.06171 0.0
H413 H 0.78888 0.57678 0.03366 0.0
H414 H 0.7694 0.7427 0.02408 0.0
H415 H 0.81393 0.79803 1.01199 0.0
H416 H 0.82564 0.79812 0.033 0.0
H417 H 0.91918 0.81429 0.02721 0.0
H418 H 0.90747 0.81318 1.0062 0.0
H419 H 0.9268 0.76888 1.01473 0.0
H420 H 0.77817 0.57702 1.00342 0.0
H421 H 0.77373 0.59604 0.97487 0.0
H422 H 0.83235 0.76018 0.986 0.0
C423 C 0.8559 0.72221 0.04836 0.0
C424 C 0.84888 0.68182 0.05898 0.0
C425 C 0.82302 0.62902 0.05376 0.0
C426 C 0.80666 0.61691 0.03784 0.0
C427 C 0.81565 0.65804 0.02749 0.0
C428 C 0.83842 0.70947 0.0327 0.0
C429 C 0.84472 0.74677 0.01928 0.0
C430 C 0.81142 0.77293 0.02227 0.0
C431 C 0.903 0.7882 0.01671 0.0
C432 C 0.82316 0.70866 1.00558 0.0
C433 C 0.8071 0.6577 1.01045 0.0
C434 C 0.78959 0.61658 0.99957 0.0
C435 C 0.78759 0.62775 0.98339 0.0
C436 C 0.80217 0.6794 0.97832 0.0
C437 C 0.82011 0.72015 0.9896 0.0
H438 H 0.06173 0.78507 0.32331 0.0
H439 H 0.21847 0.83442 0.30577 0.0
H440 H 0.25187 0.84873 0.33333 0.0
H441 H 0.10276 0.88135 0.35323 0.0
H442 H 0.05304 0.83934 0.36728 0.0
H443 H 0.0408 0.82787 0.34635 0.0
H444 H 0.02037 0.73176 0.35039 0.0
H445 H 0.03332 0.74325 0.37134 0.0
H446 H 0.06861 0.71956 0.35977 0.0
H447 H 0.26943 0.86322 0.36233 0.0
H448 H 0.27208 0.88612 0.39059 0.0
H449 H 0.1045 0.82867 0.38961 0.0
C450 C 0.10297 0.79824 0.32529 0.0
C451 C 0.1375 0.80825 0.31241 0.0
C452 C 0.19136 0.82651 0.31545 0.0
C453 C 0.21056 0.83429 0.33107 0.0
C454 C 0.17544 0.82385 0.34349 0.0
C455 C 0.12289 0.8068 0.34079 0.0
C456 C 0.09448 0.80314 0.35614 0.0
C457 C 0.07144 0.84013 0.35572 0.0
C458 C 0.05166 0.74602 0.35961 0.0
C459 C 0.13951 0.82178 0.3679 0.0
C460 C 0.18565 0.83261 0.36035 0.0
C461 C 0.23344 0.85401 0.36842 0.0
C462 C 0.23453 0.86654 0.38447 0.0
C463 C 0.18822 0.85753 0.39227 0.0
C464 C 0.1399 0.83375 0.38402 0.0
H465 H 0.27726 0.05792 0.65527 0.0
H466 H 0.39643 0.2115 0.63808 0.0
H467 H 0.42034 0.24198 0.66575 0.0
H468 H 0.23288 0.10614 0.68605 0.0
H469 H 0.21943 0.05326 0.69969 0.0
H470 H 0.21656 0.04218 0.67866 0.0
H471 H 0.28403 0.01022 0.68186 0.0
H472 H 0.28776 0.02221 0.70291 0.0
H473 H 0.34677 0.05269 0.69109 0.0
H474 H 0.42731 0.25756 0.6948 0.0
H475 H 0.40856 0.26158 0.72311 0.0
H476 H 0.2834 0.09888 0.72171 0.0
C477 C 0.30887 0.09776 0.65736 0.0
C478 C 0.33538 0.13233 0.64458 0.0
C479 C 0.37565 0.18449 0.64772 0.0
C480 C 0.38985 0.2019 0.66338 0.0
C481 C 0.36317 0.16672 0.67572 0.0
C482 C 0.32296 0.11599 0.6729 0.0
C483 C 0.29667 0.08797 0.68822 0.0
C484 C 0.23793 0.07145 0.68815 0.0
C485 C 0.30428 0.04045 0.69119 0.0
C486 C 0.32754 0.13133 0.70009 0.0
C487 C 0.36655 0.17599 0.69263 0.0
C488 C 0.39762 0.22262 0.70083 0.0
C489 C 0.38702 0.22445 0.7169 0.0
C490 C 0.34575 0.18004 0.72456 0.0
C491 C 0.31661 0.13249 0.71622 0.0
H492 H 0.93871 0.5859 0.09249 0.0
H493 H 0.10149 0.70286 0.08296 0.0
H494 H 0.12459 0.63236 0.08299 0.0
H495 H 0.96332 0.50613 0.11886 0.0
H496 H 0.90964 0.44472 0.11176 0.0
H497 H 0.9057 0.50394 0.11041 0.0
H498 H 0.88903 0.49037 0.08013 0.0
H499 H 0.89256 0.43088 0.0814 0.0
H500 H 0.93492 0.48269 0.06791 0.0
H501 H 0.13034 0.54958 0.08565 0.0
H502 H 0.11816 0.46066 0.08892 0.0
H503 H 0.95062 0.39713 0.09592 0.0
C504 C 0.97925 0.59682 0.09031 0.0
C505 C 0.01842 0.65005 0.08777 0.0
C506 C 0.07085 0.66243 0.08488 0.0
C507 C 0.0843 0.62265 0.08492 0.0
C508 C 0.04476 0.57072 0.08771 0.0
C509 C 0.99319 0.5577 0.09017 0.0
C510 C 0.95808 0.49901 0.09293 0.0
C511 C 0.9327 0.48782 0.10947 0.0
C512 C 0.91618 0.47429 0.07981 0.0
C513 C 0.99805 0.48091 0.09185 0.0
C514 C 0.04783 0.52296 0.08889 0.0
C515 C 0.09149 0.5164 0.08786 0.0
C516 C 0.08411 0.46563 0.08981 0.0
C517 C 0.03336 0.42173 0.09267 0.0
C518 C 0.98982 0.42971 0.09366 0.0
H519 H 0.63242 0.06543 0.42799 0.0
H520 H 0.5754 0.89769 0.42418 0.0
H521 H 0.48443 0.88055 0.42272 0.0
H522 H 0.52642 0.05398 0.45239 0.0
H523 H 0.5234 0.10755 0.44281 0.0
H524 H 0.58464 0.10735 0.44351 0.0
H525 H 0.5915 0.11611 0.41291 0.0
H526 H 0.53014 0.11609 0.41209 0.0
H527 H 0.53813 0.06856 0.40083 0.0
H528 H 0.4008 0.88044 0.42195 0.0
H529 H 0.32659 0.89655 0.4223 0.0
H530 H 0.43481 0.06483 0.42619 0.0
C531 C 0.60076 0.02508 0.4269 0.0
C532 C 0.61115 0.98284 0.42623 0.0
C533 C 0.56859 0.93068 0.42473 0.0
C534 C 0.51672 0.92053 0.42387 0.0
C535 C 0.50792 0.96292 0.42446 0.0
C536 C 0.5485 0.01416 0.42596 0.0
C537 C 0.52754 0.05223 0.42639 0.0
C538 C 0.54132 0.08203 0.44222 0.0
C539 C 0.54805 0.09051 0.41221 0.0
C540 C 0.46878 0.01416 0.42498 0.0
C541 C 0.45879 0.96292 0.42388 0.0
C542 C 0.40804 0.92032 0.42281 0.0
C543 C 0.36612 0.93001 0.42308 0.0
C544 C 0.37482 0.98196 0.42437 0.0
C545 C 0.427 0.02479 0.4251 0.0
H546 H 0.39783 0.43454 0.75451 0.0
H547 H 0.45776 0.32605 0.75385 0.0
H548 H 0.54841 0.40073 0.752 0.0
H549 H 0.49418 0.53239 0.7275 0.0
H550 H 0.49976 0.58754 0.73843 0.0
H551 H 0.43901 0.52545 0.73876 0.0
H552 H 0.44251 0.5241 0.76948 0.0
H553 H 0.50318 0.58617 0.76924 0.0
H554 H 0.50012 0.53015 0.77922 0.0
H555 H 0.63306 0.48719 0.75032 0.0
H556 H 0.7057 0.57986 0.75076 0.0
H557 H 0.59133 0.63204 0.75381 0.0
C558 C 0.43006 0.42663 0.75384 0.0
C559 C 0.42072 0.37451 0.75431 0.0
C560 C 0.46397 0.3657 0.75362 0.0
C561 C 0.51565 0.40784 0.75247 0.0
C562 C 0.52368 0.45875 0.75217 0.0
C563 C 0.48218 0.46842 0.75296 0.0
C564 C 0.50199 0.52705 0.75324 0.0
C565 C 0.48258 0.54409 0.73861 0.0
C566 C 0.486 0.54277 0.76872 0.0
C567 C 0.5609 0.54858 0.75258 0.0
C568 C 0.57261 0.5086 0.75177 0.0
C569 C 0.62442 0.51891 0.75099 0.0
C570 C 0.6654 0.57159 0.75121 0.0
C571 C 0.65425 0.6131 0.75243 0.0
C572 C 0.60121 0.60116 0.75301 0.0
H573 H 0.40078 0.95573 0.60298 0.0
H574 H 0.46356 0.12399 0.60809 0.0
H575 H 0.55292 0.13744 0.61075 0.0
H576 H 0.48976 0.94454 0.6306 0.0
H577 H 0.49669 0.89744 0.61877 0.0
H578 H 0.43688 0.90034 0.61775 0.0
H579 H 0.44744 0.91374 0.58728 0.0
H580 H 0.50717 0.91072 0.58821 0.0
H581 H 0.50765 0.96701 0.57931 0.0
H582 H 0.63608 0.13325 0.61308 0.0
H583 H 0.70737 0.11144 0.6132 0.0
H584 H 0.59153 0.94689 0.60566 0.0
C585 C 0.43332 0.99531 0.6047 0.0
C586 C 0.42498 0.03872 0.60532 0.0
C587 C 0.46879 0.09002 0.60748 0.0
C588 C 0.51983 0.09816 0.60908 0.0
C589 C 0.5268 0.0547 0.6084 0.0
C590 C 0.48489 1.00432 0.60614 0.0
C591 C 0.50367 0.96477 0.60531 0.0
C592 C 0.48036 0.92439 0.61892 0.0
C593 C 0.49072 0.93747 0.58906 0.0
C594 C 0.56247 1.00085 0.60742 0.0
C595 C 0.57498 0.05251 0.60934 0.0
C596 C 0.62681 0.09291 0.61155 0.0
C597 C 0.66704 0.08018 0.61165 0.0
C598 C 0.65519 0.02761 0.60937 0.0
C599 C 0.60205 0.98758 0.60734 0.0
H600 H 0.43096 0.38763 0.9373 0.0
H601 H 0.32927 0.45562 0.93623 0.0
H602 H 0.40699 0.54465 0.93707 0.0
H603 H 0.53003 0.48358 0.96373 0.0
H604 H 0.58419 0.48476 0.95339 0.0
H605 H 0.52041 0.42601 0.95326 0.0
H606 H 0.5208 0.42652 0.92251 0.0
H607 H 0.58455 0.48525 0.92255 0.0
H608 H 0.53064 0.48444 0.91196 0.0
H609 H 0.49606 0.627 0.93791 0.0
H610 H 0.59014 0.69603 0.93774 0.0
H611 H 0.63364 0.57468 0.93754 0.0
C612 C 0.42506 0.42123 0.93734 0.0
C613 C 0.3739 0.41448 0.93672 0.0
C614 C 0.36799 0.45962 0.93665 0.0
C615 C 0.41193 0.51048 0.93717 0.0
C616 C 0.46176 0.51583 0.93768 0.0
C617 C 0.46862 0.47248 0.93771 0.0
C618 C 0.52656 0.48928 0.93783 0.0
C619 C 0.54114 0.46975 0.95295 0.0
C620 C 0.5415 0.47024 0.92282 0.0
C621 C 0.55102 0.54868 0.93782 0.0
C622 C 0.51302 0.56326 0.93785 0.0
C623 C 0.52622 0.61606 0.93787 0.0
C624 C 0.57973 0.65502 0.93779 0.0
C625 C 0.61934 0.64093 0.93757 0.0
C626 C 0.60443 0.58693 0.93764 0.0
H627 H 0.95811 0.55873 0.27158 0.0
H628 H 0.12528 0.66414 0.27912 0.0
H629 H 0.13855 0.58803 0.28203 0.0
H630 H 0.94335 0.45575 0.29895 0.0
H631 H 0.89805 0.40294 0.2863 0.0
H632 H 0.9009 0.46571 0.28558 0.0
H633 H 0.91843 0.47178 0.25532 0.0
H634 H 0.91553 0.40902 0.25596 0.0
H635 H 0.97283 0.46589 0.24801 0.0
H636 H 0.13431 0.5005 0.28401 0.0
H637 H 0.11288 0.40747 0.28328 0.0
H638 H 0.94955 0.35923 0.27349 0.0
C639 C 0.99737 0.56569 0.27396 0.0
C640 C 0.04059 0.61742 0.27514 0.0
C641 C 0.09152 0.6249 0.27808 0.0
C642 C 0.09952 0.5819 0.27983 0.0
C643 C 0.05628 0.53147 0.27851 0.0
C644 C 1.00625 0.52308 0.27554 0.0
C645 C 0.96702 0.46483 0.27396 0.0
C646 C 0.92484 0.44623 0.28698 0.0
C647 C 0.942 0.45215 0.25732 0.0
C648 C 1.00289 0.44204 0.27644 0.0
C649 C 0.05412 0.48106 0.27922 0.0
C650 C 0.09428 0.46952 0.28183 0.0
C651 C 0.08178 0.41662 0.28143 0.0
C652 C 0.02969 0.3761 0.27826 0.0
C653 C 0.98987 0.38927 0.27586 0.0
H654 H 0.05786 0.14567 0.08919 0.0
H655 H 0.89259 0.09882 0.0926 0.0
H656 H 0.86914 1.00518 0.09179 0.0
H657 H 0.04087 0.04224 0.06214 0.0
H658 H 0.09221 0.03455 0.07135 0.0
H659 H 0.09553 0.09756 0.07167 0.0
H660 H 0.10316 0.09921 0.10233 0.0
H661 H 0.09972 0.03621 0.10211 0.0
H662 H 0.05352 0.04513 0.11377 0.0
H663 H 0.8645 0.9169 0.09218 0.0
H664 H 0.87805 0.84048 0.09264 0.0
H665 H 0.04656 0.94511 0.08815 0.0
C666 C 0.01663 0.11582 0.08968 0.0
C667 C 0.97698 0.12965 0.091 0.0
C668 C 0.92359 0.08924 0.09155 0.0
C669 C 0.90995 0.03597 0.09112 0.0
C670 C 0.95014 0.02383 0.08998 0.0
C671 C 1.00236 0.06265 0.08914 0.0
C672 C 0.03813 0.03929 0.08815 0.0
C673 C 0.06846 0.0543 0.07239 0.0
C674 C 0.07584 0.05595 0.10244 0.0
C675 C 0.99792 0.98107 0.08879 0.0
C676 C 0.94741 0.97306 0.08986 0.0
C677 C 0.90382 0.92275 0.09122 0.0
C678 C 0.91201 0.87958 0.09152 0.0
C679 C 0.96339 0.88674 0.09039 0.0
C680 C 1.00681 0.93829 0.08887 0.0
H681 H 0.93865 0.06811 0.42946 0.0
H682 H 0.83717 0.9204 0.40554 0.0
H683 H 0.91433 0.91145 0.39941 0.0
H684 H 0.05322 0.1139 0.40331 0.0
H685 H 0.10004 0.14076 0.41936 0.0
H686 H 0.03768 0.13848 0.42079 0.0
H687 H 0.01799 0.08622 0.44719 0.0
H688 H 0.08044 0.08887 0.44592 0.0
H689 H 0.02075 0.0262 0.44779 0.0
H690 H 1.0001 0.91533 0.39705 0.0
H691 H 0.08885 0.92746 0.40074 0.0
H692 H 0.13685 0.07204 0.42645 0.0
C693 C 0.9328 0.03417 0.42279 0.0
C694 C 0.88182 0.99503 0.4179 0.0
C695 C 0.87571 0.9508 0.40943 0.0
C696 C 0.91939 0.94558 0.40578 0.0
C697 C 0.969 0.98481 0.41074 0.0
C698 C 0.97604 0.02801 0.41919 0.0
C699 C 0.03321 0.06225 0.42415 0.0
C700 C 0.05746 0.11711 0.41644 0.0
C701 C 0.03838 0.06608 0.44234 0.0
C702 C 0.05698 0.03096 0.4174 0.0
C703 C 0.01914 0.98688 0.4095 0.0
C704 C 0.0302 0.95 0.40303 0.0
C705 C 0.08071 0.95731 0.40513 0.0
C706 C 0.1197 1.00115 0.41358 0.0
C707 C 0.10814 0.03915 0.4195 0.0
H708 H 0.14972 0.07125 0.75207 0.0
H709 H 0.10087 0.1867 0.74371 0.0
H710 H 1.00826 0.11471 0.74171 0.0
H711 H 0.05448 0.97111 0.72502 0.0
H712 H 0.04479 0.91739 0.73777 0.0
H713 H 0.10719 0.97784 0.73768 0.0
H714 H 0.10054 0.9858 0.76807 0.0
H715 H 0.0381 0.92558 0.76825 0.0
H716 H 0.04344 0.98498 0.77618 0.0
H717 H 0.92065 0.03071 0.7431 0.0
H718 H 0.84477 0.94084 0.74599 0.0
H719 H 0.95097 0.87945 0.75215 0.0
C720 C 0.11964 0.08148 0.74966 0.0
C721 C 0.13252 0.1347 0.74809 0.0
C722 C 0.09198 0.14628 0.7449 0.0
C723 C 0.03929 0.10564 0.74377 0.0
C724 C 0.02795 0.05366 0.74564 0.0
C725 C 0.06708 0.04146 0.74832 0.0
C726 C 0.04446 0.98253 0.75018 0.0
C727 C 0.06388 0.96096 0.73686 0.0
C728 C 0.0574 0.96895 0.76665 0.0
C729 C 0.98623 0.96339 0.74848 0.0
C730 C 0.97761 1.00511 0.7459 0.0
C731 C 0.927 0.99774 0.74489 0.0
C732 C 0.88416 0.94655 0.74662 0.0
C733 C 0.892 0.90314 0.74919 0.0
C734 C 0.9438 0.91175 0.74994 0.0
H735 H 0.9514 0.05784 0.6105 0.0
H736 H 0.84637 0.88856 0.61043 0.0
H737 H 0.92263 0.87495 0.61145 0.0
H738 H 0.04697 0.05713 0.58495 0.0
H739 H 0.10279 0.10985 0.59492 0.0
H740 H 0.03994 0.1066 0.59544 0.0
H741 H 0.04284 0.10773 0.62618 0.0
H742 H 0.10579 0.11106 0.62574 0.0
H743 H 0.05206 0.0592 0.6367 0.0
H744 H 1.01041 0.87926 0.61164 0.0
H745 H 0.10355 0.90185 0.60999 0.0
H746 H 0.15147 0.06793 0.60909 0.0
C747 C 0.94452 0.01797 0.61093 0.0
C748 C 0.89287 0.9743 0.61045 0.0
C749 C 0.88555 0.92269 0.61075 0.0
C750 C 0.92863 0.91448 0.61139 0.0
C751 C 0.97902 0.95825 0.61164 0.0
C752 C 0.98725 0.00901 0.61137 0.0
C753 C 0.04553 0.0491 0.61087 0.0
C754 C 0.05962 0.08263 0.59564 0.0
C755 C 0.06254 0.08381 0.62576 0.0
C756 C 0.06857 0.01294 0.61077 0.0
C757 C 0.0296 0.96069 0.61137 0.0
C758 C 0.04133 0.92009 0.61121 0.0
C759 C 0.09434 0.93326 0.61028 0.0
C760 C 0.1349 0.98658 0.60938 0.0
C761 C 0.1215 0.02673 0.60974 0.0
H762 H 0.88477 0.93319 0.93651 0.0
H763 H 0.95258 0.83205 0.94177 0.0
H764 H 0.04131 0.91024 0.94311 0.0
H765 H 0.98574 0.02842 0.9113 0.0
H766 H 0.98462 0.08402 0.91982 0.0
H767 H 0.92607 0.02013 0.92 0.0
H768 H 0.92009 0.02533 0.95054 0.0
H769 H 0.97864 0.08929 0.95045 0.0
H770 H 0.97567 0.03726 0.9627 0.0
H771 H 0.12341 0.99985 0.94361 0.0
H772 H 0.19225 0.09392 0.94235 0.0
H773 H 0.0712 0.13635 0.93609 0.0
C774 C 0.91823 0.9275 0.93806 0.0
C775 C 0.91155 0.87636 0.93908 0.0
C776 C 0.95655 0.87074 0.94094 0.0
C777 C 1.00721 0.91496 0.94175 0.0
C778 C 0.01249 0.96475 0.94062 0.0
C779 C 0.96926 0.9713 0.93876 0.0
C780 C 0.98597 0.02912 0.93732 0.0
C781 C 0.96963 0.04111 0.92115 0.0
C782 C 0.96377 0.04625 0.95107 0.0
C783 C 0.04523 0.05394 0.93861 0.0
C784 C 0.05978 0.01622 0.94061 0.0
C785 C 0.11247 0.02977 0.94205 0.0
C786 C 0.15132 0.08331 0.94133 0.0
C787 C 0.1373 0.12263 0.93908 0.0
C788 C 0.08341 0.10739 0.93777 0.0
H789 H 0.06998 0.91991 0.27675 0.0
H790 H 0.90388 0.80209 0.27692 0.0
H791 H 0.88161 0.87293 0.27837 0.0
H792 H 0.06092 0.01017 0.30427 0.0
H793 H 0.11004 0.068 0.29401 0.0
H794 H 0.11275 0.008 0.29354 0.0
H795 H 0.11251 0.0103 0.26281 0.0
H796 H 0.10973 0.07021 0.26317 0.0
H797 H 0.06037 0.01385 0.25251 0.0
H798 H 0.87768 0.9566 0.27804 0.0
H799 H 0.8917 0.04672 0.27706 0.0
H800 H 0.06072 0.11044 0.27812 0.0
C801 C 0.02885 0.90884 0.27718 0.0
C802 C 0.98858 0.85532 0.27667 0.0
C803 C 0.93535 0.84271 0.27732 0.0
C804 C 0.92237 0.88269 0.27813 0.0
C805 C 0.96308 0.93501 0.27846 0.0
C806 C 0.01525 0.94814 0.27813 0.0
C807 C 0.05155 0.00738 0.2784 0.0
C808 C 0.08583 0.02437 0.29345 0.0
C809 C 0.08553 0.02654 0.26332 0.0
C810 C 0.01163 0.0257 0.27868 0.0
C811 C 0.96084 0.98326 0.27869 0.0
C812 C 0.91723 0.99006 0.27819 0.0
C813 C 0.92567 0.04147 0.27758 0.0
C814 C 0.97733 0.08564 0.27759 0.0
C815 C 0.02083 0.0775 0.27832 0.0
loop_
_geom_bond_atom_site_label_1
_geom_bond_atom_site_label_2
_geom_bond_distance
_geom_bond_site_symmetry_2
_ccdc_geom_bond_type
C0 O2 1.247 . S
C0 O4 1.258 1_455 S
C1 O8 1.247 . S
C1 O9 1.258 . S
O2 C0 1.247 . S
O2 Zn3 2.028 . S
Zn3 O2 2.028 . S
Zn3 O7 2.035 . S
Zn3 O9 2.035 . S
Zn3 O10 2.028 . S
O4 C0 1.258 1_655 S
O4 Zn5 2.035 . S
Zn5 O4 2.035 . S
Zn5 O6 2.013 1_655 S
Zn5 O8 2.028 1_655 S
Zn5 O11 2.035 1_655 S
O6 Zn5 2.013 1_455 S
O6 C12 1.271 . S
O7 Zn3 2.035 . S
O7 C12 1.258 . S
O8 C1 1.247 . S
O8 Zn5 2.028 1_455 S
O9 C1 1.258 . S
O9 Zn3 2.035 . S
O10 Zn3 2.028 . S
O10 C13 1.247 . S
O11 Zn5 2.035 1_455 S
O11 C13 1.258 . S
C12 O6 1.271 . S
C12 O7 1.258 . S
C13 O10 1.247 . S
C13 O11 1.258 . S
C14 O16 1.247 . S
C14 O18 1.258 . S
C15 O22 1.247 1_545 S
C15 O23 1.258 . S
O16 C14 1.247 . S
O16 Zn17 2.028 . S
Zn17 O16 2.028 . S
Zn17 O21 2.035 . S
Zn17 O23 2.035 . S
Zn17 O24 2.028 . S
O18 C14 1.258 . S
O18 Zn19 2.035 1_545 S
Zn19 O18 2.035 1_565 S
Zn19 O20 2.028 1_565 S
Zn19 O22 2.028 . S
Zn19 O25 2.042 1_565 S
O20 Zn19 2.028 1_545 S
O20 C26 1.247 . S
O21 Zn17 2.035 . S
O21 C26 1.258 . S
O22 C15 1.247 1_565 S
O22 Zn19 2.028 . S
O23 C15 1.258 . S
O23 Zn17 2.035 . S
O24 Zn17 2.028 . S
O24 C27 1.247 . S
O25 Zn19 2.042 1_545 S
O25 C27 1.269 . S
C26 O20 1.247 . S
C26 O21 1.258 . S
C27 O24 1.247 . S
C27 O25 1.269 . S
C28 O30 1.247 . S
C28 O32 1.258 . S
C29 O36 1.247 . S
C29 O37 1.258 . S
O30 C28 1.247 . S
O30 Zn31 2.028 . S
Zn31 O30 2.028 . S
Zn31 O35 2.035 . S
Zn31 O37 2.035 . S
Zn31 O38 2.028 . S
O32 C28 1.258 . S
O32 Zn33 2.035 . S
Zn33 O32 2.035 . S
Zn33 O34 2.028 . S
Zn33 O36 2.028 . S
Zn33 O39 2.035 . S
O34 Zn33 2.028 . S
O34 C40 1.247 . S
O35 Zn31 2.035 . S
O35 C40 1.258 . S
O36 C29 1.247 . S
O36 Zn33 2.028 . S
O37 C29 1.258 . S
O37 Zn31 2.035 . S
O38 Zn31 2.028 . S
O38 C41 1.247 . S
O39 Zn33 2.035 . S
O39 C41 1.258 . S
C40 O34 1.247 . S
C40 O35 1.258 . S
C41 O38 1.247 . S
C41 O39 1.258 . S
C42 O44 1.247 . S
C42 O46 1.258 . S
C43 O50 1.247 . S
C43 O51 1.279 . S
O44 C42 1.247 . S
O44 Zn45 2.028 1_655 S
Zn45 O44 2.028 1_455 S
Zn45 O49 2.035 1_455 S
Zn45 O51 2.022 1_455 S
Zn45 O52 2.028 . S
O46 C42 1.258 . S
O46 Zn47 2.035 . S
Zn47 O46 2.035 . S
Zn47 O48 2.028 . S
Zn47 O50 2.028 . S
Zn47 O53 2.035 . S
O48 Zn47 2.028 . S
O48 C54 1.247 . S
O49 Zn45 2.035 1_655 S
O49 C54 1.258 . S
O50 C43 1.247 . S
O50 Zn47 2.028 . S
O51 C43 1.279 . S
O51 Zn45 2.022 1_655 S
O52 Zn45 2.028 . S
O52 C55 1.247 1_455 S
O53 Zn47 2.035 . S
O53 C55 1.258 . S
C54 O48 1.247 . S
C54 O49 1.258 . S
C55 O52 1.247 1_655 S
C55 O53 1.258 . S
C56 O58 1.258 . S
C56 O60 1.258 . S
C57 O64 1.247 . S
C57 O65 1.258 . S
O58 C56 1.258 . S
O58 Zn59 2.036 1_565 S
Zn59 O58 2.036 1_545 S
Zn59 O63 2.035 . S
Zn59 O65 2.035 1_545 S
Zn59 O66 2.028 1_545 S
O60 C56 1.258 . S
O60 Zn61 2.035 . S
Zn61 O60 2.035 . S
Zn61 O62 2.028 . S
Zn61 O64 2.028 . S
Zn61 O67 2.035 . S
O62 Zn61 2.028 . S
O62 C68 1.247 . S
O63 Zn59 2.035 . S
O63 C68 1.258 1_545 S
O64 C57 1.247 . S
O64 Zn61 2.028 . S
O65 C57 1.258 . S
O65 Zn59 2.035 1_565 S
O66 Zn59 2.028 1_565 S
O66 C69 1.247 . S
O67 Zn61 2.035 . S
O67 C69 1.258 . S
C68 O62 1.247 . S
C68 O63 1.258 1_565 S
C69 O66 1.247 . S
C69 O67 1.258 . S
C70 O72 1.247 . S
C70 O74 1.258 . S
C71 O78 1.247 . S
C71 O79 1.258 . S
O72 C70 1.247 . S
O72 Zn73 2.028 . S
Zn73 O72 2.028 . S
Zn73 O77 2.035 . S
Zn73 O79 2.035 . S
Zn73 O80 2.028 . S
O74 C70 1.258 . S
O74 Zn75 2.035 . S
Zn75 O74 2.035 . S
Zn75 O76 2.028 . S
Zn75 O78 2.028 . S
Zn75 O81 2.035 . S
O76 Zn75 2.028 . S
O76 C82 1.247 . S
O77 Zn73 2.035 . S
O77 C82 1.258 . S
O78 C71 1.247 . S
O78 Zn75 2.028 . S
O79 C71 1.258 . S
O79 Zn73 2.035 . S
O80 Zn73 2.028 . S
O80 C83 1.247 . S
O81 Zn75 2.035 . S
O81 C83 1.258 . S
C82 O76 1.247 . S
C82 O77 1.258 . S
C83 O80 1.247 . S
C83 O81 1.258 . S
C84 O86 1.247 . S
C84 O88 1.258 . S
C85 O92 1.247 . S
C85 O93 1.279 . S
O86 C84 1.247 . S
O86 Zn87 2.028 1_565 S
Zn87 O86 2.028 1_545 S
Zn87 O91 2.035 1_545 S
Zn87 O93 2.022 1_545 S
Zn87 O94 2.028 . S
O88 C84 1.258 . S
O88 Zn89 2.035 . S
Zn89 O88 2.035 . S
Zn89 O90 2.028 . S
Zn89 O92 2.028 . S
Zn89 O95 2.035 . S
O90 Zn89 2.028 . S
O90 C96 1.247 . S
O91 Zn87 2.035 1_565 S
O91 C96 1.258 . S
O92 C85 1.247 . S
O92 Zn89 2.028 . S
O93 C85 1.279 . S
O93 Zn87 2.022 1_565 S
O94 Zn87 2.028 . S
O94 C97 1.247 1_545 S
O95 Zn89 2.035 . S
O95 C97 1.258 . S
C96 O90 1.247 . S
C96 O91 1.258 . S
C97 O94 1.247 1_565 S
C97 O95 1.258 . S
C98 O100 1.247 . S
C98 O102 1.258 . S
C99 O106 1.247 . S
C99 O107 1.258 . S
O100 C98 1.247 . S
O100 Zn101 2.028 . S
Zn101 O100 2.028 . S
Zn101 O105 2.035 . S
Zn101 O107 2.035 . S
Zn101 O108 2.028 . S
O102 C98 1.258 . S
O102 Zn103 2.035 . S
Zn103 O102 2.035 . S
Zn103 O104 2.028 . S
Zn103 O106 2.028 . S
Zn103 O109 2.035 . S
O104 Zn103 2.028 . S
O104 C110 1.247 . S
O105 Zn101 2.035 . S
O105 C110 1.258 . S
O106 C99 1.247 . S
O106 Zn103 2.028 . S
O107 C99 1.258 . S
O107 Zn101 2.035 . S
O108 Zn101 2.028 . S
O108 C111 1.247 . S
O109 Zn103 2.035 . S
O109 C111 1.258 . S
C110 O104 1.247 . S
C110 O105 1.258 . S
C111 O108 1.247 . S
C111 O109 1.258 . S
C112 O114 1.247 . S
C112 O116 1.258 . S
C113 O120 1.247 1_455 S
C113 O121 1.258 . S
O114 C112 1.247 . S
O114 Zn115 2.028 . S
Zn115 O114 2.028 . S
Zn115 O119 2.035 . S
Zn115 O121 2.035 . S
Zn115 O122 2.028 . S
O116 C112 1.258 . S
O116 Zn117 2.035 1_455 S
Zn117 O116 2.035 1_655 S
Zn117 O118 2.028 1_655 S
Zn117 O120 2.028 . S
Zn117 O123 2.042 1_655 S
O118 Zn117 2.028 1_455 S
O118 C124 1.247 . S
O119 Zn115 2.035 . S
O119 C124 1.258 . S
O120 C113 1.247 1_655 S
O120 Zn117 2.028 . S
O121 C113 1.258 . S
O121 Zn115 2.035 . S
O122 Zn115 2.028 . S
O122 C125 1.247 . S
O123 Zn117 2.042 1_455 S
O123 C125 1.269 . S
C124 O118 1.247 . S
C124 O119 1.258 . S
C125 O122 1.247 . S
C125 O123 1.269 . S
C126 O128 1.247 . S
C126 O130 1.258 . S
C127 O134 1.247 1_545 S
C127 O135 1.258 . S
O128 C126 1.247 . S
O128 Zn129 2.028 . S
Zn129 O128 2.028 . S
Zn129 O133 2.035 . S
Zn129 O135 2.035 . S
Zn129 O136 2.028 . S
O130 C126 1.258 . S
O130 Zn131 2.035 1_545 S
Zn131 O130 2.035 1_565 S
Zn131 O132 2.028 1_565 S
Zn131 O134 2.028 . S
Zn131 O137 2.035 1_565 S
O132 Zn131 2.028 1_545 S
O132 C138 1.247 . S
O133 Zn129 2.035 . S
O133 C138 1.258 . S
O134 C127 1.247 1_565 S
O134 Zn131 2.028 . S
O135 C127 1.258 . S
O135 Zn129 2.035 . S
O136 Zn129 2.028 . S
O136 C139 1.247 . S
O137 Zn131 2.035 1_545 S
O137 C139 1.258 . S
C138 O132 1.247 . S
C138 O133 1.258 . S
C139 O136 1.247 . S
C139 O137 1.258 . S
C140 O142 1.247 . S
C140 O144 1.258 . S
C141 O148 1.247 . S
C141 O149 1.258 . S
O142 C140 1.247 . S
O142 Zn143 2.028 . S
Zn143 O142 2.028 . S
Zn143 O147 2.035 . S
Zn143 O149 2.035 . S
Zn143 O150 2.028 . S
O144 C140 1.258 . S
O144 Zn145 2.035 . S
Zn145 O144 2.035 . S
Zn145 O146 2.028 . S
Zn145 O148 2.028 . S
Zn145 O151 2.035 . S
O146 Zn145 2.028 . S
O146 C152 1.247 . S
O147 Zn143 2.035 . S
O147 C152 1.258 . S
O148 C141 1.247 . S
O148 Zn145 2.028 . S
O149 C141 1.258 . S
O149 Zn143 2.035 . S
O150 Zn143 2.028 . S
O150 C153 1.247 . S
O151 Zn145 2.035 . S
O151 C153 1.258 . S
C152 O146 1.247 . S
C152 O147 1.258 . S
C153 O150 1.247 . S
C153 O151 1.258 . S
C154 O156 1.247 . S
C154 O158 1.258 1_655 S
C155 O162 1.247 . S
C155 O163 1.258 . S
O156 C154 1.247 . S
O156 Zn157 2.028 . S
Zn157 O156 2.028 . S
Zn157 O161 2.035 . S
Zn157 O163 2.035 . S
Zn157 O164 2.028 . S
O158 C154 1.258 1_455 S
O158 Zn159 2.035 . S
Zn159 O158 2.035 . S
Zn159 O160 2.036 1_455 S
Zn159 O162 2.028 1_455 S
Zn159 O165 2.035 1_455 S
O160 Zn159 2.036 1_655 S
O160 C166 1.258 . S
O161 Zn157 2.035 . S
O161 C166 1.258 . S
O162 C155 1.247 . S
O162 Zn159 2.028 1_655 S
O163 C155 1.258 . S
O163 Zn157 2.035 . S
O164 Zn157 2.028 . S
O164 C167 1.247 . S
O165 Zn159 2.035 1_655 S
O165 C167 1.258 . S
C166 O160 1.258 . S
C166 O161 1.258 . S
C167 O164 1.247 . S
C167 O165 1.258 . S
H168 C180 0.930 . S
H169 C182 0.930 . S
H170 C183 0.930 . S
H171 C187 0.959 1_455 S
H172 C187 0.959 . S
H173 C187 0.961 . S
H174 C188 0.960 . S
H175 C188 0.961 . S
H176 C188 0.959 . S
H177 C191 0.929 . S
H178 C192 0.931 . S
H179 C194 0.930 . S
C180 H168 0.930 . S
C180 C181 1.399 . S
C180 C185 1.399 . S
C181 C180 1.399 . S
C181 C182 1.376 1_655 S
C182 H169 0.930 . S
C182 C181 1.376 1_455 S
C182 C183 1.388 . S
C183 H170 0.930 . S
C183 C182 1.388 . S
C183 C184 1.390 . S
C184 C183 1.390 . S
C184 C185 1.394 1_455 S
C184 C190 1.465 . S
C185 C180 1.399 . S
C185 C184 1.394 1_655 S
C185 C186 1.516 . S
C186 C185 1.516 . S
C186 C187 1.502 . S
C186 C188 1.561 . S
C186 C189 1.526 . S
C187 H171 0.959 1_655 S
C187 H172 0.959 . S
C187 H173 0.961 . S
C187 C186 1.502 . S
C188 H174 0.960 . S
C188 H175 0.961 . S
C188 H176 0.959 . S
C188 C186 1.561 . S
C189 C186 1.526 . S
C189 C190 1.396 1_655 S
C189 C194 1.390 . S
C190 C184 1.465 . S
C190 C189 1.396 1_455 S
C190 C191 1.399 . S
C191 H177 0.929 . S
C191 C190 1.399 . S
C191 C192 1.385 . S
C192 H178 0.931 . S
C192 C191 1.385 . S
C192 C193 1.389 . S
C193 C192 1.389 . S
C193 C194 1.387 1_455 S
C194 H179 0.930 . S
C194 C189 1.390 . S
C194 C193 1.387 1_655 S
H195 C207 0.930 . S
H196 C209 0.930 . S
H197 C210 0.930 . S
H198 C214 0.959 . S
H199 C214 0.959 . S
H200 C214 0.961 . S
H201 C215 0.960 . S
H202 C215 0.961 . S
H203 C215 0.959 . S
H204 C218 0.929 . S
H205 C219 0.931 . S
H206 C221 0.930 . S
C207 H195 0.930 . S
C207 C208 1.399 1_565 S
C207 C212 1.399 . S
C208 C207 1.399 1_545 S
C208 C209 1.376 . S
C209 H196 0.930 . S
C209 C208 1.376 . S
C209 C210 1.388 . S
C210 H197 0.930 . S
C210 C209 1.388 . S
C210 C211 1.390 . S
C211 C210 1.390 . S
C211 C212 1.394 1_545 S
C211 C217 1.465 . S
C212 C207 1.399 . S
C212 C211 1.394 1_565 S
C212 C213 1.516 . S
C213 C212 1.516 . S
C213 C214 1.502 . S
C213 C215 1.561 . S
C213 C216 1.526 . S
C214 H198 0.959 . S
C214 H199 0.959 . S
C214 H200 0.961 . S
C214 C213 1.502 . S
C215 H201 0.960 . S
C215 H202 0.961 . S
C215 H203 0.959 . S
C215 C213 1.561 . S
C216 C213 1.526 . S
C216 C217 1.396 1_565 S
C216 C221 1.390 . S
C217 C211 1.465 . S
C217 C216 1.396 1_545 S
C217 C218 1.399 . S
C218 H204 0.929 . S
C218 C217 1.399 . S
C218 C219 1.385 . S
C219 H205 0.931 . S
C219 C218 1.385 . S
C219 C220 1.389 1_545 S
C220 C219 1.389 1_565 S
C220 C221 1.387 . S
C221 H206 0.930 . S
C221 C216 1.390 . S
C221 C220 1.387 . S
H222 C234 0.930 . S
H223 C236 0.930 . S
H224 C237 0.930 . S
H225 C241 0.959 . S
H226 C241 0.959 . S
H227 C241 0.961 . S
H228 C242 0.960 . S
H229 C242 0.961 . S
H230 C242 0.959 . S
H231 C245 0.929 . S
H232 C246 0.931 . S
H233 C248 0.930 . S
C234 H222 0.930 . S
C234 C235 1.399 . S
C234 C239 1.399 . S
C235 C234 1.399 . S
C235 C236 1.376 . S
C236 H223 0.930 . S
C236 C235 1.376 . S
C236 C237 1.388 . S
C237 H224 0.930 . S
C237 C236 1.388 . S
C237 C238 1.390 . S
C238 C237 1.390 . S
C238 C239 1.394 . S
C238 C244 1.465 . S
C239 C234 1.399 . S
C239 C238 1.394 . S
C239 C240 1.516 . S
C240 C239 1.516 . S
C240 C241 1.502 . S
C240 C242 1.561 . S
C240 C243 1.526 . S
C241 H225 0.959 . S
C241 H226 0.959 . S
C241 H227 0.961 . S
C241 C240 1.502 . S
C242 H228 0.960 . S
C242 H229 0.961 . S
C242 H230 0.959 . S
C242 C240 1.561 . S
C243 C240 1.526 . S
C243 C244 1.396 . S
C243 C248 1.390 . S
C244 C238 1.465 . S
C244 C243 1.396 . S
C244 C245 1.399 . S
C245 H231 0.929 . S
C245 C244 1.399 . S
C245 C246 1.385 . S
C246 H232 0.931 . S
C246 C245 1.385 . S
C246 C247 1.389 . S
C247 C246 1.389 . S
C247 C248 1.387 . S
C248 H233 0.930 . S
C248 C243 1.390 . S
C248 C247 1.387 . S
H249 C261 0.930 . S
H250 C263 0.930 . S
H251 C264 0.930 . S
H252 C268 0.959 . S
H253 C268 0.959 . S
H254 C268 0.961 . S
H255 C269 0.960 . S
H256 C269 0.961 . S
H257 C269 0.959 1_455 S
H258 C272 0.929 . S
H259 C273 0.931 . S
H260 C275 0.930 . S
C261 H249 0.930 . S
C261 C262 1.399 . S
C261 C266 1.399 . S
C262 C261 1.399 . S
C262 C263 1.376 1_655 S
C263 H250 0.930 . S
C263 C262 1.376 1_455 S
C263 C264 1.388 . S
C264 H251 0.930 . S
C264 C263 1.388 . S
C264 C265 1.390 . S
C265 C264 1.390 . S
C265 C266 1.394 1_455 S
C265 C271 1.465 . S
C266 C261 1.399 . S
C266 C265 1.394 1_655 S
C266 C267 1.516 . S
C267 C266 1.516 . S
C267 C268 1.502 . S
C267 C269 1.561 . S
C267 C270 1.526 . S
C268 H252 0.959 . S
C268 H253 0.959 . S
C268 H254 0.961 . S
C268 C267 1.502 . S
C269 H255 0.960 . S
C269 H256 0.961 . S
C269 H257 0.959 1_655 S
C269 C267 1.561 . S
C270 C267 1.526 . S
C270 C271 1.396 1_655 S
C270 C275 1.390 . S
C271 C265 1.465 . S
C271 C270 1.396 1_455 S
C271 C272 1.399 . S
C272 H258 0.929 . S
C272 C271 1.399 . S
C272 C273 1.385 . S
C273 H259 0.931 . S
C273 C272 1.385 . S
C273 C274 1.389 . S
C274 C273 1.389 . S
C274 C275 1.387 1_455 S
C275 H260 0.930 . S
C275 C270 1.390 . S
C275 C274 1.387 1_655 S
H276 C288 0.930 . S
H277 C290 0.930 . S
H278 C291 0.930 . S
H279 C295 0.959 . S
H280 C295 0.959 . S
H281 C295 0.961 . S
H282 C296 0.960 . S
H283 C296 0.961 . S
H284 C296 0.959 . S
H285 C299 0.929 . S
H286 C300 0.931 . S
H287 C302 0.930 . S
C288 H276 0.930 . S
C288 C289 1.399 1_565 S
C288 C293 1.399 . S
C289 C288 1.399 1_545 S
C289 C290 1.376 . S
C290 H277 0.930 . S
C290 C289 1.376 . S
C290 C291 1.388 . S
C291 H278 0.930 . S
C291 C290 1.388 . S
C291 C292 1.390 . S
C292 C291 1.390 . S
C292 C293 1.394 1_545 S
C292 C298 1.465 . S
C293 C288 1.399 . S
C293 C292 1.394 1_565 S
C293 C294 1.516 . S
C294 C293 1.516 . S
C294 C295 1.502 . S
C294 C296 1.561 . S
C294 C297 1.526 . S
C295 H279 0.959 . S
C295 H280 0.959 . S
C295 H281 0.961 . S
C295 C294 1.502 . S
C296 H282 0.960 . S
C296 H283 0.961 . S
C296 H284 0.959 . S
C296 C294 1.561 . S
C297 C294 1.526 . S
C297 C298 1.396 1_565 S
C297 C302 1.390 . S
C298 C292 1.465 . S
C298 C297 1.396 1_545 S
C298 C299 1.399 . S
C299 H285 0.929 . S
C299 C298 1.399 . S
C299 C300 1.385 . S
C300 H286 0.931 . S
C300 C299 1.385 . S
C300 C301 1.389 1_545 S
C301 C300 1.389 1_565 S
C301 C302 1.387 . S
C302 H287 0.930 . S
C302 C297 1.390 . S
C302 C301 1.387 . S
H303 C315 0.930 . S
H304 C317 0.930 . S
H305 C318 0.930 . S
H306 C322 0.959 . S
H307 C322 0.959 . S
H308 C322 0.961 . S
H309 C323 0.960 . S
H310 C323 0.961 . S
H311 C323 0.959 . S
H312 C326 0.929 . S
H313 C327 0.931 . S
H314 C329 0.930 . S
C315 H303 0.930 . S
C315 C316 1.399 . S
C315 C320 1.399 . S
C316 C315 1.399 . S
C316 C317 1.376 . S
C317 H304 0.930 . S
C317 C316 1.376 . S
C317 C318 1.388 . S
C318 H305 0.930 . S
C318 C317 1.388 . S
C318 C319 1.390 . S
C319 C318 1.390 . S
C319 C320 1.394 . S
C319 C325 1.465 . S
C320 C315 1.399 . S
C320 C319 1.394 . S
C320 C321 1.516 . S
C321 C320 1.516 . S
C321 C322 1.502 . S
C321 C323 1.561 . S
C321 C324 1.526 . S
C322 H306 0.959 . S
C322 H307 0.959 . S
C322 H308 0.961 . S
C322 C321 1.502 . S
C323 H309 0.960 . S
C323 H310 0.961 . S
C323 H311 0.959 . S
C323 C321 1.561 . S
C324 C321 1.526 . S
C324 C325 1.396 . S
C324 C329 1.390 . S
C325 C319 1.465 . S
C325 C324 1.396 . S
C325 C326 1.399 . S
C326 H312 0.929 . S
C326 C325 1.399 . S
C326 C327 1.385 . S
C327 H313 0.931 . S
C327 C326 1.385 . S
C327 C328 1.389 . S
C328 C327 1.389 . S
C328 C329 1.387 . S
C329 H314 0.930 . S
C329 C324 1.390 . S
C329 C328 1.387 . S
H330 C342 0.930 . S
H331 C344 0.930 . S
H332 C345 0.930 . S
H333 C349 0.959 . S
H334 C349 0.959 . S
H335 C349 0.961 . S
H336 C350 0.960 1_554 S
H337 C350 0.961 . S
H338 C350 0.959 . S
H339 C353 0.929 . S
H340 C354 0.931 . S
H341 C356 0.930 . S
C342 H330 0.930 . S
C342 C343 1.399 . S
C342 C347 1.399 . S
C343 C342 1.399 . S
C343 C344 1.376 . S
C344 H331 0.930 . S
C344 C343 1.376 . S
C344 C345 1.388 . S
C345 H332 0.930 . S
C345 C344 1.388 . S
C345 C346 1.390 . S
C346 C345 1.390 . S
C346 C347 1.394 . S
C346 C352 1.465 1_554 S
C347 C342 1.399 . S
C347 C346 1.394 . S
C347 C348 1.516 . S
C348 C347 1.516 . S
C348 C349 1.502 . S
C348 C350 1.561 1_554 S
C348 C351 1.526 1_554 S
C349 H333 0.959 . S
C349 H334 0.959 . S
C349 H335 0.961 . S
C349 C348 1.502 . S
C350 H336 0.960 1_556 S
C350 H337 0.961 . S
C350 H338 0.959 . S
C350 C348 1.561 1_556 S
C351 C348 1.526 1_556 S
C351 C352 1.396 . S
C351 C356 1.390 . S
C352 C346 1.465 1_556 S
C352 C351 1.396 . S
C352 C353 1.399 . S
C353 H339 0.929 . S
C353 C352 1.399 . S
C353 C354 1.385 . S
C354 H340 0.931 . S
C354 C353 1.385 . S
C354 C355 1.389 . S
C355 C354 1.389 . S
C355 C356 1.387 . S
C356 H341 0.930 . S
C356 C351 1.390 . S
C356 C355 1.387 . S
H357 C369 0.930 . S
H358 C371 0.930 . S
H359 C372 0.930 . S
H360 C376 0.959 . S
H361 C376 0.959 . S
H362 C376 0.961 . S
H363 C377 0.960 . S
H364 C377 0.961 . S
H365 C377 0.959 . S
H366 C380 0.929 . S
H367 C381 0.931 . S
H368 C383 0.930 . S
C369 H357 0.930 . S
C369 C370 1.399 . S
C369 C374 1.399 . S
C370 C369 1.399 . S
C370 C371 1.376 . S
C371 H358 0.930 . S
C371 C370 1.376 . S
C371 C372 1.388 . S
C372 H359 0.930 . S
C372 C371 1.388 . S
C372 C373 1.390 . S
C373 C372 1.390 . S
C373 C374 1.394 . S
C373 C379 1.465 . S
C374 C369 1.399 . S
C374 C373 1.394 . S
C374 C375 1.516 . S
C375 C374 1.516 . S
C375 C376 1.502 . S
C375 C377 1.561 . S
C375 C378 1.526 . S
C376 H360 0.959 . S
C376 H361 0.959 . S
C376 H362 0.961 . S
C376 C375 1.502 . S
C377 H363 0.960 . S
C377 H364 0.961 . S
C377 H365 0.959 . S
C377 C375 1.561 . S
C378 C375 1.526 . S
C378 C379 1.396 . S
C378 C383 1.390 . S
C379 C373 1.465 . S
C379 C378 1.396 . S
C379 C380 1.399 . S
C380 H366 0.929 . S
C380 C379 1.399 . S
C380 C381 1.385 . S
C381 H367 0.931 . S
C381 C380 1.385 . S
C381 C382 1.389 . S
C382 C381 1.389 . S
C382 C383 1.387 . S
C383 H368 0.930 . S
C383 C378 1.390 . S
C383 C382 1.387 . S
H384 C396 0.930 . S
H385 C398 0.930 . S
H386 C399 0.930 . S
H387 C403 0.959 . S
H388 C403 0.959 . S
H389 C403 0.961 . S
H390 C404 0.960 . S
H391 C404 0.961 . S
H392 C404 0.959 . S
H393 C407 0.929 . S
H394 C408 0.931 . S
H395 C410 0.930 . S
C396 H384 0.930 . S
C396 C397 1.399 . S
C396 C401 1.399 . S
C397 C396 1.399 . S
C397 C398 1.376 . S
C398 H385 0.930 . S
C398 C397 1.376 . S
C398 C399 1.388 . S
C399 H386 0.930 . S
C399 C398 1.388 . S
C399 C400 1.390 . S
C400 C399 1.390 . S
C400 C401 1.394 . S
C400 C406 1.465 . S
C401 C396 1.399 . S
C401 C400 1.394 . S
C401 C402 1.516 . S
C402 C401 1.516 . S
C402 C403 1.502 . S
C402 C404 1.561 . S
C402 C405 1.526 . S
C403 H387 0.959 . S
C403 H388 0.959 . S
C403 H389 0.961 . S
C403 C402 1.502 . S
C404 H390 0.960 . S
C404 H391 0.961 . S
C404 H392 0.959 . S
C404 C402 1.561 . S
C405 C402 1.526 . S
C405 C406 1.396 . S
C405 C410 1.390 . S
C406 C400 1.465 . S
C406 C405 1.396 . S
C406 C407 1.399 . S
C407 H393 0.929 . S
C407 C406 1.399 . S
C407 C408 1.385 . S
C408 H394 0.931 . S
C408 C407 1.385 . S
C408 C409 1.389 . S
C409 C408 1.389 . S
C409 C410 1.387 . S
C410 H395 0.930 . S
C410 C405 1.390 . S
C410 C409 1.387 . S
H411 C423 0.930 . S
H412 C425 0.930 . S
H413 C426 0.930 . S
H414 C430 0.959 . S
H415 C430 0.959 . S
H416 C430 0.961 . S
H417 C431 0.960 1_554 S
H418 C431 0.961 . S
H419 C431 0.959 . S
H420 C434 0.929 . S
H421 C435 0.931 . S
H422 C437 0.930 . S
C423 H411 0.930 . S
C423 C424 1.399 . S
C423 C428 1.399 . S
C424 C423 1.399 . S
C424 C425 1.376 . S
C425 H412 0.930 . S
C425 C424 1.376 . S
C425 C426 1.388 . S
C426 H413 0.930 . S
C426 C425 1.388 . S
C426 C427 1.390 . S
C427 C426 1.390 . S
C427 C428 1.394 . S
C427 C433 1.465 1_554 S
C428 C423 1.399 . S
C428 C427 1.394 . S
C428 C429 1.516 . S
C429 C428 1.516 . S
C429 C430 1.502 . S
C429 C431 1.561 1_554 S
C429 C432 1.526 1_554 S
C430 H414 0.959 . S
C430 H415 0.959 . S
C430 H416 0.961 . S
C430 C429 1.502 . S
C431 H417 0.960 1_556 S
C431 H418 0.961 . S
C431 H419 0.959 . S
C431 C429 1.561 1_556 S
C432 C429 1.526 1_556 S
C432 C433 1.396 . S
C432 C437 1.390 . S
C433 C427 1.465 1_556 S
C433 C432 1.396 . S
C433 C434 1.399 . S
C434 H420 0.929 . S
C434 C433 1.399 . S
C434 C435 1.385 . S
C435 H421 0.931 . S
C435 C434 1.385 . S
C435 C436 1.389 . S
C436 C435 1.389 . S
C436 C437 1.387 . S
C437 H422 0.930 . S
C437 C432 1.390 . S
C437 C436 1.387 . S
H438 C450 0.930 . S
H439 C452 0.930 . S
H440 C453 0.930 . S
H441 C457 0.959 . S
H442 C457 0.959 . S
H443 C457 0.961 . S
H444 C458 0.960 . S
H445 C458 0.961 . S
H446 C458 0.959 . S
H447 C461 0.929 . S
H448 C462 0.931 . S
H449 C464 0.930 . S
C450 H438 0.930 . S
C450 C451 1.399 . S
C450 C455 1.399 . S
C451 C450 1.399 . S
C451 C452 1.376 . S
C452 H439 0.930 . S
C452 C451 1.376 . S
C452 C453 1.388 . S
C453 H440 0.930 . S
C453 C452 1.388 . S
C453 C454 1.390 . S
C454 C453 1.390 . S
C454 C455 1.394 . S
C454 C460 1.465 . S
C455 C450 1.399 . S
C455 C454 1.394 . S
C455 C456 1.516 . S
C456 C455 1.516 . S
C456 C457 1.502 . S
C456 C458 1.561 . S
C456 C459 1.526 . S
C457 H441 0.959 . S
C457 H442 0.959 . S
C457 H443 0.961 . S
C457 C456 1.502 . S
C458 H444 0.960 . S
C458 H445 0.961 . S
C458 H446 0.959 . S
C458 C456 1.561 . S
C459 C456 1.526 . S
C459 C460 1.396 . S
C459 C464 1.390 . S
C460 C454 1.465 . S
C460 C459 1.396 . S
C460 C461 1.399 . S
C461 H447 0.929 . S
C461 C460 1.399 . S
C461 C462 1.385 . S
C462 H448 0.931 . S
C462 C461 1.385 . S
C462 C463 1.389 . S
C463 C462 1.389 . S
C463 C464 1.387 . S
C464 H449 0.930 . S
C464 C459 1.390 . S
C464 C463 1.387 . S
H465 C477 0.930 . S
H466 C479 0.930 . S
H467 C480 0.930 . S
H468 C484 0.959 . S
H469 C484 0.959 . S
H470 C484 0.961 . S
H471 C485 0.960 . S
H472 C485 0.961 . S
H473 C485 0.959 . S
H474 C488 0.929 . S
H475 C489 0.931 . S
H476 C491 0.930 . S
C477 H465 0.930 . S
C477 C478 1.399 . S
C477 C482 1.399 . S
C478 C477 1.399 . S
C478 C479 1.376 . S
C479 H466 0.930 . S
C479 C478 1.376 . S
C479 C480 1.388 . S
C480 H467 0.930 . S
C480 C479 1.388 . S
C480 C481 1.390 . S
C481 C480 1.390 . S
C481 C482 1.394 . S
C481 C487 1.465 . S
C482 C477 1.399 . S
C482 C481 1.394 . S
C482 C483 1.516 . S
C483 C482 1.516 . S
C483 C484 1.502 . S
C483 C485 1.561 . S
C483 C486 1.526 . S
C484 H468 0.959 . S
C484 H469 0.959 . S
C484 H470 0.961 . S
C484 C483 1.502 . S
C485 H471 0.960 . S
C485 H472 0.961 . S
C485 H473 0.959 . S
C485 C483 1.561 . S
C486 C483 1.526 . S
C486 C487 1.396 . S
C486 C491 1.390 . S
C487 C481 1.465 . S
C487 C486 1.396 . S
C487 C488 1.399 . S
C488 H474 0.929 . S
C488 C487 1.399 . S
C488 C489 1.385 . S
C489 H475 0.931 . S
C489 C488 1.385 . S
C489 C490 1.389 . S
C490 C489 1.389 . S
C490 C491 1.387 . S
C491 H476 0.930 . S
C491 C486 1.390 . S
C491 C490 1.387 . S
H492 C504 0.930 . S
H493 C506 0.930 . S
H494 C507 0.930 . S
H495 C511 0.959 . S
H496 C511 0.959 . S
H497 C511 0.961 . S
H498 C512 0.960 . S
H499 C512 0.961 . S
H500 C512 0.959 . S
H501 C515 0.929 . S
H502 C516 0.931 . S
H503 C518 0.930 . S
C504 H492 0.930 . S
C504 C505 1.399 . S
C504 C509 1.399 . S
C505 C504 1.399 . S
C505 C506 1.376 1_655 S
C506 H493 0.930 . S
C506 C505 1.376 1_455 S
C506 C507 1.388 . S
C507 H494 0.930 . S
C507 C506 1.388 . S
C507 C508 1.390 . S
C508 C507 1.390 . S
C508 C509 1.394 1_455 S
C508 C514 1.465 . S
C509 C504 1.399 . S
C509 C508 1.394 1_655 S
C509 C510 1.516 . S
C510 C509 1.516 . S
C510 C511 1.502 . S
C510 C512 1.561 . S
C510 C513 1.526 . S
C511 H495 0.959 . S
C511 H496 0.959 . S
C511 H497 0.961 . S
C511 C510 1.502 . S
C512 H498 0.960 . S
C512 H499 0.961 . S
C512 H500 0.959 . S
C512 C510 1.561 . S
C513 C510 1.526 . S
C513 C514 1.396 1_655 S
C513 C518 1.390 . S
C514 C508 1.465 . S
C514 C513 1.396 1_455 S
C514 C515 1.399 . S
C515 H501 0.929 . S
C515 C514 1.399 . S
C515 C516 1.385 . S
C516 H502 0.931 . S
C516 C515 1.385 . S
C516 C517 1.389 . S
C517 C516 1.389 . S
C517 C518 1.387 1_455 S
C518 H503 0.930 . S
C518 C513 1.390 . S
C518 C517 1.387 1_655 S
H519 C531 0.930 . S
H520 C533 0.930 1_565 S
H521 C534 0.930 . S
H522 C538 0.959 . S
H523 C538 0.959 . S
H524 C538 0.961 . S
H525 C539 0.960 . S
H526 C539 0.961 . S
H527 C539 0.959 . S
H528 C542 0.929 . S
H529 C543 0.931 . S
H530 C545 0.930 . S
C531 H519 0.930 . S
C531 C532 1.399 . S
C531 C536 1.399 . S
C532 C531 1.399 . S
C532 C533 1.376 . S
C533 H520 0.930 1_545 S
C533 C532 1.376 . S
C533 C534 1.388 1_545 S
C534 H521 0.930 . S
C534 C533 1.388 1_565 S
C534 C535 1.390 . S
C535 C534 1.390 . S
C535 C536 1.394 1_565 S
C535 C541 1.465 . S
C536 C531 1.399 . S
C536 C535 1.394 1_545 S
C536 C537 1.516 . S
C537 C536 1.516 . S
C537 C538 1.502 . S
C537 C539 1.561 1_545 S
C537 C540 1.526 1_545 S
C538 H522 0.959 . S
C538 H523 0.959 . S
C538 H524 0.961 . S
C538 C537 1.502 . S
C539 H525 0.960 . S
C539 H526 0.961 . S
C539 H527 0.959 . S
C539 C537 1.561 1_565 S
C540 C537 1.526 1_565 S
C540 C541 1.396 . S
C540 C545 1.390 . S
C541 C535 1.465 . S
C541 C540 1.396 . S
C541 C542 1.399 . S
C542 H528 0.929 . S
C542 C541 1.399 . S
C542 C543 1.385 . S
C543 H529 0.931 . S
C543 C542 1.385 . S
C543 C544 1.389 . S
C544 C543 1.389 . S
C544 C545 1.387 . S
C545 H530 0.930 . S
C545 C540 1.390 . S
C545 C544 1.387 . S
H546 C558 0.930 . S
H547 C560 0.930 . S
H548 C561 0.930 . S
H549 C565 0.959 . S
H550 C565 0.959 . S
H551 C565 0.961 . S
H552 C566 0.960 . S
H553 C566 0.961 . S
H554 C566 0.959 . S
H555 C569 0.929 . S
H556 C570 0.931 . S
H557 C572 0.930 . S
C558 H546 0.930 . S
C558 C559 1.399 . S
C558 C563 1.399 . S
C559 C558 1.399 . S
C559 C560 1.376 . S
C560 H547 0.930 . S
C560 C559 1.376 . S
C560 C561 1.388 . S
C561 H548 0.930 . S
C561 C560 1.388 . S
C561 C562 1.390 . S
C562 C561 1.390 . S
C562 C563 1.394 . S
C562 C568 1.465 . S
C563 C558 1.399 . S
C563 C562 1.394 . S
C563 C564 1.516 . S
C564 C563 1.516 . S
C564 C565 1.502 . S
C564 C566 1.561 . S
C564 C567 1.526 . S
C565 H549 0.959 . S
C565 H550 0.959 . S
C565 H551 0.961 . S
C565 C564 1.502 . S
C566 H552 0.960 . S
C566 H553 0.961 . S
C566 H554 0.959 . S
C566 C564 1.561 . S
C567 C564 1.526 . S
C567 C568 1.396 . S
C567 C572 1.390 . S
C568 C562 1.465 . S
C568 C567 1.396 . S
C568 C569 1.399 . S
C569 H555 0.929 . S
C569 C568 1.399 . S
C569 C570 1.385 . S
C570 H556 0.931 . S
C570 C569 1.385 . S
C570 C571 1.389 . S
C571 C570 1.389 . S
C571 C572 1.387 . S
C572 H557 0.930 . S
C572 C567 1.390 . S
C572 C571 1.387 . S
H573 C585 0.930 . S
H574 C587 0.930 . S
H575 C588 0.930 . S
H576 C592 0.959 . S
H577 C592 0.959 . S
H578 C592 0.961 . S
H579 C593 0.960 . S
H580 C593 0.961 . S
H581 C593 0.959 . S
H582 C596 0.929 . S
H583 C597 0.931 . S
H584 C599 0.930 . S
C585 H573 0.930 . S
C585 C586 1.399 . S
C585 C590 1.399 . S
C586 C585 1.399 . S
C586 C587 1.376 . S
C587 H574 0.930 . S
C587 C586 1.376 . S
C587 C588 1.388 . S
C588 H575 0.930 . S
C588 C587 1.388 . S
C588 C589 1.390 . S
C589 C588 1.390 . S
C589 C590 1.394 . S
C589 C595 1.465 . S
C590 C585 1.399 . S
C590 C589 1.394 . S
C590 C591 1.516 1_545 S
C591 C590 1.516 1_565 S
C591 C592 1.502 . S
C591 C593 1.561 1_565 S
C591 C594 1.526 . S
C592 H576 0.959 . S
C592 H577 0.959 . S
C592 H578 0.961 . S
C592 C591 1.502 . S
C593 H579 0.960 . S
C593 H580 0.961 . S
C593 H581 0.959 . S
C593 C591 1.561 1_545 S
C594 C591 1.526 . S
C594 C595 1.396 1_565 S
C594 C599 1.390 . S
C595 C589 1.465 . S
C595 C594 1.396 1_545 S
C595 C596 1.399 . S
C596 H582 0.929 . S
C596 C595 1.399 . S
C596 C597 1.385 1_545 S
C597 H583 0.931 . S
C597 C596 1.385 1_565 S
C597 C598 1.389 . S
C598 C597 1.389 . S
C598 C599 1.387 . S
C599 H584 0.930 . S
C599 C594 1.390 . S
C599 C598 1.387 . S
H600 C612 0.930 . S
H601 C614 0.930 . S
H602 C615 0.930 . S
H603 C619 0.959 . S
H604 C619 0.959 . S
H605 C619 0.961 . S
H606 C620 0.960 . S
H607 C620 0.961 . S
H608 C620 0.959 . S
H609 C623 0.929 . S
H610 C624 0.931 . S
H611 C626 0.930 . S
C612 H600 0.930 . S
C612 C613 1.399 . S
C612 C617 1.399 . S
C613 C612 1.399 . S
C613 C614 1.376 . S
C614 H601 0.930 . S
C614 C613 1.376 . S
C614 C615 1.388 . S
C615 H602 0.930 . S
C615 C614 1.388 . S
C615 C616 1.390 . S
C616 C615 1.390 . S
C616 C617 1.394 . S
C616 C622 1.465 . S
C617 C612 1.399 . S
C617 C616 1.394 . S
C617 C618 1.516 . S
C618 C617 1.516 . S
C618 C619 1.502 . S
C618 C620 1.561 . S
C618 C621 1.526 . S
C619 H603 0.959 . S
C619 H604 0.959 . S
C619 H605 0.961 . S
C619 C618 1.502 . S
C620 H606 0.960 . S
C620 H607 0.961 . S
C620 H608 0.959 . S
C620 C618 1.561 . S
C621 C618 1.526 . S
C621 C622 1.396 . S
C621 C626 1.390 . S
C622 C616 1.465 . S
C622 C621 1.396 . S
C622 C623 1.399 . S
C623 H609 0.929 . S
C623 C622 1.399 . S
C623 C624 1.385 . S
C624 H610 0.931 . S
C624 C623 1.385 . S
C624 C625 1.389 . S
C625 C624 1.389 . S
C625 C626 1.387 . S
C626 H611 0.930 . S
C626 C621 1.390 . S
C626 C625 1.387 . S
H627 C639 0.930 . S
H628 C641 0.930 . S
H629 C642 0.930 . S
H630 C646 0.959 . S
H631 C646 0.959 . S
H632 C646 0.961 . S
H633 C647 0.960 . S
H634 C647 0.961 . S
H635 C647 0.959 . S
H636 C650 0.929 . S
H637 C651 0.931 . S
H638 C653 0.930 . S
C639 H627 0.930 . S
C639 C640 1.399 . S
C639 C644 1.399 . S
C640 C639 1.399 . S
C640 C641 1.376 . S
C641 H628 0.930 . S
C641 C640 1.376 . S
C641 C642 1.388 . S
C642 H629 0.930 . S
C642 C641 1.388 . S
C642 C643 1.390 . S
C643 C642 1.390 . S
C643 C644 1.394 . S
C643 C649 1.465 . S
C644 C639 1.399 . S
C644 C643 1.394 . S
C644 C645 1.516 1_455 S
C645 C644 1.516 1_655 S
C645 C646 1.502 . S
C645 C647 1.561 1_655 S
C645 C648 1.526 . S
C646 H630 0.959 . S
C646 H631 0.959 . S
C646 H632 0.961 . S
C646 C645 1.502 . S
C647 H633 0.960 . S
C647 H634 0.961 . S
C647 H635 0.959 . S
C647 C645 1.561 1_455 S
C648 C645 1.526 . S
C648 C649 1.396 1_655 S
C648 C653 1.390 . S
C649 C643 1.465 . S
C649 C648 1.396 1_455 S
C649 C650 1.399 . S
C650 H636 0.929 . S
C650 C649 1.399 . S
C650 C651 1.385 1_455 S
C651 H637 0.931 . S
C651 C650 1.385 1_655 S
C651 C652 1.389 . S
C652 C651 1.389 . S
C652 C653 1.387 . S
C653 H638 0.930 . S
C653 C648 1.390 . S
C653 C652 1.387 . S
H654 C666 0.930 . S
H655 C668 0.930 . S
H656 C669 0.930 . S
H657 C673 0.959 . S
H658 C673 0.959 1_565 S
H659 C673 0.961 . S
H660 C674 0.960 1_545 S
H661 C674 0.961 . S
H662 C674 0.959 . S
H663 C677 0.929 . S
H664 C678 0.931 . S
H665 C680 0.930 . S
C666 H654 0.930 . S
C666 C667 1.399 . S
C666 C671 1.399 . S
C667 C666 1.399 . S
C667 C668 1.376 . S
C668 H655 0.930 . S
C668 C667 1.376 . S
C668 C669 1.388 1_455 S
C669 H656 0.930 . S
C669 C668 1.388 1_655 S
C669 C670 1.390 . S
C670 C669 1.390 . S
C670 C671 1.394 1_655 S
C670 C676 1.465 1_545 S
C671 C666 1.399 . S
C671 C670 1.394 1_455 S
C671 C672 1.516 . S
C672 C671 1.516 . S
C672 C673 1.502 . S
C672 C674 1.561 1_445 S
C672 C675 1.526 1_445 S
C673 H657 0.959 . S
C673 H658 0.959 1_545 S
C673 H659 0.961 . S
C673 C672 1.502 . S
C674 H660 0.960 1_565 S
C674 H661 0.961 . S
C674 H662 0.959 . S
C674 C672 1.561 1_665 S
C675 C672 1.526 1_665 S
C675 C676 1.396 . S
C675 C680 1.390 . S
C676 C670 1.465 1_565 S
C676 C675 1.396 . S
C676 C677 1.399 . S
C677 H663 0.929 . S
C677 C676 1.399 . S
C677 C678 1.385 . S
C678 H664 0.931 . S
C678 C677 1.385 . S
C678 C679 1.389 . S
C679 C678 1.389 . S
C679 C680 1.387 . S
C680 H665 0.930 . S
C680 C675 1.390 . S
C680 C679 1.387 . S
H681 C693 0.930 . S
H682 C695 0.930 . S
H683 C696 0.930 . S
H684 C700 0.959 . S
H685 C700 0.959 . S
H686 C700 0.961 . S
H687 C701 0.960 . S
H688 C701 0.961 1_455 S
H689 C701 0.959 . S
H690 C704 0.929 . S
H691 C705 0.931 . S
H692 C707 0.930 . S
C693 H681 0.930 . S
C693 C694 1.399 . S
C693 C698 1.399 . S
C694 C693 1.399 . S
C694 C695 1.376 . S
C695 H682 0.930 . S
C695 C694 1.376 . S
C695 C696 1.388 1_545 S
C696 H683 0.930 . S
C696 C695 1.388 1_565 S
C696 C697 1.390 . S
C697 C696 1.390 . S
C697 C698 1.394 1_565 S
C697 C703 1.465 1_655 S
C698 C693 1.399 . S
C698 C697 1.394 1_545 S
C698 C699 1.516 1_655 S
C699 C698 1.516 1_455 S
C699 C700 1.502 . S
C699 C701 1.561 1_445 S
C699 C702 1.526 1_545 S
C700 H684 0.959 . S
C700 H685 0.959 . S
C700 H686 0.961 . S
C700 C699 1.502 . S
C701 H687 0.960 . S
C701 H688 0.961 1_655 S
C701 H689 0.959 . S
C701 C699 1.561 1_665 S
C702 C699 1.526 1_565 S
C702 C703 1.396 . S
C702 C707 1.390 . S
C703 C697 1.465 1_455 S
C703 C702 1.396 . S
C703 C704 1.399 . S
C704 H690 0.929 . S
C704 C703 1.399 . S
C704 C705 1.385 . S
C705 H691 0.931 . S
C705 C704 1.385 . S
C705 C706 1.389 . S
C706 C705 1.389 . S
C706 C707 1.387 . S
C707 H692 0.930 . S
C707 C702 1.390 . S
C707 C706 1.387 . S
H708 C720 0.930 . S
H709 C722 0.930 . S
H710 C723 0.930 . S
H711 C727 0.959 . S
H712 C727 0.959 1_655 S
H713 C727 0.961 . S
H714 C728 0.959 1_545 S
H715 C728 0.961 1_655 S
H716 C728 0.960 1_645 S
H717 C731 0.929 1_545 S
H718 C732 0.931 . S
H719 C734 0.930 . S
C720 H708 0.930 . S
C720 C721 1.399 . S
C720 C725 1.399 . S
C721 C720 1.399 . S
C721 C722 1.376 . S
C722 H709 0.930 . S
C722 C721 1.376 . S
C722 C723 1.388 . S
C723 H710 0.930 . S
C723 C722 1.388 . S
C723 C724 1.390 . S
C724 C723 1.390 . S
C724 C725 1.394 . S
C724 C730 1.465 1_445 S
C725 C720 1.399 . S
C725 C724 1.394 . S
C725 C726 1.516 1_545 S
C726 C725 1.516 1_565 S
C726 C727 1.502 . S
C726 C728 1.561 . S
C726 C729 1.526 1_455 S
C727 H711 0.959 . S
C727 H712 0.959 1_455 S
C727 H713 0.961 . S
C727 C726 1.502 . S
C728 H714 0.959 1_565 S
C728 H715 0.961 1_455 S
C728 H716 0.960 1_465 S
C728 C726 1.561 . S
C729 C726 1.526 1_655 S
C729 C730 1.396 . S
C729 C734 1.390 . S
C730 C724 1.465 1_665 S
C730 C729 1.396 . S
C730 C731 1.399 . S
C731 H717 0.929 1_565 S
C731 C730 1.399 . S
C731 C732 1.385 . S
C732 H718 0.931 . S
C732 C731 1.385 . S
C732 C733 1.389 . S
C733 C732 1.389 . S
C733 C734 1.387 . S
C734 H719 0.930 . S
C734 C729 1.390 . S
C734 C733 1.387 . S
H735 C747 0.930 . S
H736 C749 0.930 . S
H737 C750 0.930 . S
H738 C754 0.959 . S
H739 C754 0.959 . S
H740 C754 0.961 1_655 S
H741 C755 0.960 . S
H742 C755 0.961 1_455 S
H743 C755 0.959 . S
H744 C758 0.929 . S
H745 C759 0.931 . S
H746 C761 0.930 . S
C747 H735 0.930 . S
C747 C748 1.399 . S
C747 C752 1.399 . S
C748 C747 1.399 . S
C748 C749 1.376 . S
C749 H736 0.930 . S
C749 C748 1.376 . S
C749 C750 1.388 . S
C750 H737 0.930 . S
C750 C749 1.388 . S
C750 C751 1.390 . S
C751 C750 1.390 . S
C751 C752 1.394 . S
C751 C757 1.465 1_655 S
C752 C747 1.399 . S
C752 C751 1.394 . S
C752 C753 1.516 1_665 S
C753 C752 1.516 1_445 S
C753 C754 1.502 . S
C753 C755 1.561 1_445 S
C753 C756 1.526 . S
C754 H738 0.959 . S
C754 H739 0.959 . S
C754 H740 0.961 1_455 S
C754 C753 1.502 . S
C755 H741 0.960 . S
C755 H742 0.961 1_655 S
C755 H743 0.959 . S
C755 C753 1.561 1_665 S
C756 C753 1.526 . S
C756 C757 1.396 1_545 S
C756 C761 1.390 . S
C757 C751 1.465 1_455 S
C757 C756 1.396 1_565 S
C757 C758 1.399 . S
C758 H744 0.929 . S
C758 C757 1.399 . S
C758 C759 1.385 1_565 S
C759 H745 0.931 . S
C759 C758 1.385 1_545 S
C759 C760 1.389 . S
C760 C759 1.389 . S
C760 C761 1.387 . S
C761 H746 0.930 . S
C761 C756 1.390 . S
C761 C760 1.387 . S
H762 C774 0.930 . S
H763 C776 0.930 . S
H764 C777 0.930 . S
H765 C781 0.959 . S
H766 C781 0.959 1_545 S
H767 C781 0.961 . S
H768 C782 0.960 1_565 S
H769 C782 0.961 . S
H770 C782 0.959 . S
H771 C785 0.929 . S
H772 C786 0.931 . S
H773 C788 0.930 . S
C774 H762 0.930 . S
C774 C775 1.399 . S
C774 C779 1.399 . S
C775 C774 1.399 . S
C775 C776 1.376 . S
C776 H763 0.930 . S
C776 C775 1.376 . S
C776 C777 1.388 . S
C777 H764 0.930 . S
C777 C776 1.388 . S
C777 C778 1.390 . S
C778 C777 1.390 . S
C778 C779 1.394 . S
C778 C784 1.465 1_665 S
C779 C774 1.399 . S
C779 C778 1.394 . S
C779 C780 1.518 1_655 S
C780 C779 1.518 1_455 S
C780 C781 1.504 . S
C780 C782 1.559 1_465 S
C780 C783 1.523 1_565 S
C781 H765 0.959 . S
C781 H766 0.959 1_565 S
C781 H767 0.961 . S
C781 C780 1.504 . S
C782 H768 0.960 1_545 S
C782 H769 0.961 . S
C782 H770 0.959 . S
C782 C780 1.559 1_645 S
C783 C780 1.523 1_545 S
C783 C784 1.396 . S
C783 C788 1.390 . S
C784 C778 1.465 1_445 S
C784 C783 1.396 . S
C784 C785 1.399 . S
C785 H771 0.929 . S
C785 C784 1.399 . S
C785 C786 1.385 . S
C786 H772 0.931 . S
C786 C785 1.385 . S
C786 C787 1.389 . S
C787 C786 1.389 . S
C787 C788 1.387 . S
C788 H773 0.930 . S
C788 C783 1.390 . S
C788 C787 1.387 . S
H789 C801 0.930 . S
H790 C803 0.930 . S
H791 C804 0.930 . S
H792 C808 0.959 . S
H793 C808 0.959 . S
H794 C808 0.961 . S
H795 C809 0.960 . S
H796 C809 0.973 . S
H797 C809 0.959 . S
H798 C812 0.929 . S
H799 C813 0.931 . S
H800 C815 0.930 . S
C801 H789 0.930 . S
C801 C802 1.399 . S
C801 C806 1.399 . S
C802 C801 1.399 . S
C802 C803 1.376 . S
C803 H790 0.930 . S
C803 C802 1.376 . S
C803 C804 1.388 1_455 S
C804 H791 0.930 . S
C804 C803 1.388 1_655 S
C804 C805 1.390 . S
C805 C804 1.390 . S
C805 C806 1.394 1_655 S
C805 C811 1.465 1_565 S
C806 C801 1.399 . S
C806 C805 1.394 1_455 S
C806 C807 1.516 1_565 S
C807 C806 1.516 1_545 S
C807 C808 1.502 . S
C807 C809 1.561 1_445 S
C807 C810 1.526 1_455 S
C808 H792 0.959 . S
C808 H793 0.959 . S
C808 H794 0.961 . S
C808 C807 1.502 . S
C809 H795 0.960 . S
C809 H796 0.973 . S
C809 H797 0.959 . S
C809 C807 1.561 1_665 S
C810 C807 1.526 1_655 S
C810 C811 1.396 . S
C810 C815 1.390 . S
C811 C805 1.465 1_545 S
C811 C810 1.396 . S
C811 C812 1.399 . S
C812 H798 0.929 . S
C812 C811 1.399 . S
C812 C813 1.385 . S
C813 H799 0.931 . S
C813 C812 1.385 . S
C813 C814 1.389 . S
C814 C813 1.389 . S
C814 C815 1.387 . S
C815 H800 0.930 . S
C815 C810 1.390 . S
C815 C814 1.387 . S
C181 C154 1.574 . S
C193 C0 1.568 . S
C208 C15 1.549 . S
C220 C97 1.572 . S
C235 C28 1.569 . S
C247 C99 1.573 . S
C262 C55 1.564 . S
C274 C113 1.544 . S
C289 C127 1.542 . S
C301 C68 1.560 . S
C316 C71 1.571 . S
C328 C140 1.572 . S
C343 C1 1.572 . S
C355 C141 1.558 . S
C370 C14 1.568 . S
C382 C155 1.569 . S
C397 C29 1.562 . S
C409 C96 1.575 . S
C424 C54 1.571 . S
C436 C98 1.557 . S
C451 C112 1.554 . S
C463 C69 1.577 . S
C478 C126 1.560 . S
C490 C70 1.566 . S
C505 C42 1.566 . S
C517 C13 1.601 . S
C532 C26 1.577 . S
C544 C57 1.601 . S
C559 C82 1.597 . S
C571 C41 1.569 . S
C586 C138 1.590 . S
C598 C84 1.572 . S
C613 C153 1.595 . S
C625 C110 1.568 . S
C640 C124 1.591 . S
C652 C167 1.573 . S
C667 C12 1.545 . S
C679 C43 1.570 . S
C694 C27 1.546 . S
C706 C56 1.569 . S
C721 C83 1.541 . S
C733 C40 1.572 . S
C748 C85 1.560 . S
C760 C139 1.541 . S
C775 C111 1.550 . S
C787 C152 1.566 . S
C802 C125 1.547 . S
C814 C166 1.568 . S
