# Generated by pormake.
# Topology ukc, (4)-cn, num edge types: 1
# Building blocks:
#     Node 0, Type 0, BuildingBlock: TATPOV_clean_sbu_0, # of connection points: 4
#     Node 1, Type 0, BuildingBlock: TATPOV_clean_sbu_0, # of connection points: 4
#     Node 2, Type 0, BuildingBlock: TATPOV_clean_sbu_0, # of connection points: 4
#     Node 3, Type 0, BuildingBlock: TATPOV_clean_sbu_0, # of connection points: 4
#     Node 4, Type 0, BuildingBlock: TATPOV_clean_sbu_0, # of connection points: 4
#     Node 5, Type 0, BuildingBlock: TATPOV_clean_sbu_0, # of connection points: 4
#     Node 6, Type 0, BuildingBlock: TATPOV_clean_sbu_0, # of connection points: 4
#     Node 7, Type 0, BuildingBlock: TATPOV_clean_sbu_0, # of connection points: 4
#     Node 8, Type 0, BuildingBlock: TATPOV_clean_sbu_0, # of connection points: 4
#     Node 9, Type 0, BuildingBlock: TATPOV_clean_sbu_0, # of connection points: 4
#     Node 10, Type 0, BuildingBlock: TATPOV_clean_sbu_0, # of connection points: 4
#     Node 11, Type 0, BuildingBlock: TATPOV_clean_sbu_0, # of connection points: 4
#     Node 12, Type 0, BuildingBlock: TATPOV_clean_sbu_0, # of connection points: 4
#     Node 13, Type 0, BuildingBlock: TATPOV_clean_sbu_0, # of connection points: 4
#     Node 14, Type 0, BuildingBlock: TATPOV_clean_sbu_0, # of connection points: 4
#     Node 15, Type 0, BuildingBlock: TATPOV_clean_sbu_0, # of connection points: 4
#     Node 16, Type 0, BuildingBlock: TATPOV_clean_sbu_0, # of connection points: 4
#     Node 17, Type 0, BuildingBlock: TATPOV_clean_sbu_0, # of connection points: 4
#     Node 18, Type 0, BuildingBlock: TATPOV_clean_sbu_0, # of connection points: 4
#     Node 19, Type 0, BuildingBlock: TATPOV_clean_sbu_0, # of connection points: 4
#     Node 20, Type 0, BuildingBlock: TATPOV_clean_sbu_0, # of connection points: 4
#     Node 21, Type 0, BuildingBlock: TATPOV_clean_sbu_0, # of connection points: 4
#     Node 22, Type 0, BuildingBlock: TATPOV_clean_sbu_0, # of connection points: 4
#     Node 23, Type 0, BuildingBlock: TATPOV_clean_sbu_0, # of connection points: 4
#     Node 24, Type 0, BuildingBlock: TATPOV_clean_sbu_0, # of connection points: 4
#     Node 25, Type 0, BuildingBlock: TATPOV_clean_sbu_0, # of connection points: 4
#     Node 26, Type 0, BuildingBlock: TATPOV_clean_sbu_0, # of connection points: 4
#     Node 27, Type 0, BuildingBlock: TATPOV_clean_sbu_0, # of connection points: 4
#     Node 28, Type 0, BuildingBlock: TATPOV_clean_sbu_0, # of connection points: 4
#     Node 29, Type 0, BuildingBlock: TATPOV_clean_sbu_0, # of connection points: 4
#     Node 30, Type 0, BuildingBlock: TATPOV_clean_sbu_0, # of connection points: 4
#     Node 31, Type 0, BuildingBlock: TATPOV_clean_sbu_0, # of connection points: 4
#     Edge 32, Type (0, 0), None
#     Edge 33, Type (0, 0), None
#     Edge 34, Type (0, 0), None
#     Edge 35, Type (0, 0), None
#     Edge 36, Type (0, 0), None
#     Edge 37, Type (0, 0), None
#     Edge 38, Type (0, 0), None
#     Edge 39, Type (0, 0), None
#     Edge 40, Type (0, 0), None
#     Edge 41, Type (0, 0), None
#     Edge 42, Type (0, 0), None
#     Edge 43, Type (0, 0), None
#     Edge 44, Type (0, 0), None
#     Edge 45, Type (0, 0), None
#     Edge 46, Type (0, 0), None
#     Edge 47, Type (0, 0), None
#     Edge 48, Type (0, 0), None
#     Edge 49, Type (0, 0), None
#     Edge 50, Type (0, 0), None
#     Edge 51, Type (0, 0), None
#     Edge 52, Type (0, 0), None
#     Edge 53, Type (0, 0), None
#     Edge 54, Type (0, 0), None
#     Edge 55, Type (0, 0), None
#     Edge 56, Type (0, 0), None
#     Edge 57, Type (0, 0), None
#     Edge 58, Type (0, 0), None
#     Edge 59, Type (0, 0), None
#     Edge 60, Type (0, 0), None
#     Edge 61, Type (0, 0), None
#     Edge 62, Type (0, 0), None
#     Edge 63, Type (0, 0), None
#     Edge 64, Type (0, 0), None
#     Edge 65, Type (0, 0), None
#     Edge 66, Type (0, 0), None
#     Edge 67, Type (0, 0), None
#     Edge 68, Type (0, 0), None
#     Edge 69, Type (0, 0), None
#     Edge 70, Type (0, 0), None
#     Edge 71, Type (0, 0), None
#     Edge 72, Type (0, 0), None
#     Edge 73, Type (0, 0), None
#     Edge 74, Type (0, 0), None
#     Edge 75, Type (0, 0), None
#     Edge 76, Type (0, 0), None
#     Edge 77, Type (0, 0), None
#     Edge 78, Type (0, 0), None
#     Edge 79, Type (0, 0), None
#     Edge 80, Type (0, 0), None
#     Edge 81, Type (0, 0), None
#     Edge 82, Type (0, 0), None
#     Edge 83, Type (0, 0), None
#     Edge 84, Type (0, 0), None
#     Edge 85, Type (0, 0), None
#     Edge 86, Type (0, 0), None
#     Edge 87, Type (0, 0), None
#     Edge 88, Type (0, 0), None
#     Edge 89, Type (0, 0), None
#     Edge 90, Type (0, 0), None
#     Edge 91, Type (0, 0), None
#     Edge 92, Type (0, 0), None
#     Edge 93, Type (0, 0), None
#     Edge 94, Type (0, 0), None
#     Edge 95, Type (0, 0), None
# Relax obj value: 0.024
# Max RMSD: 0.064
# Mean RMSD: 0.064
data_MOF--net-ukc--node1-TATPOV_clean_sbu_0--edge1-none
_symmetry_space_group_name_H-M    P1
_symmetry_Int_Tables_number       1
_symmetry_cell_setting            triclinic
loop_
_symmetry_equiv_pos_as_xyz
'x, y, z'
_cell_length_a     21.449549
_cell_length_b     21.447291
_cell_length_c     40.443403
_cell_angle_alpha  90.000007
_cell_angle_beta   89.999999
_cell_angle_gamma 89.999962
loop_
_atom_site_label
_atom_site_type_symbol
_atom_site_fract_x
_atom_site_fract_y
_atom_site_fract_z
_atom_type_partial_charge
Zn0 Zn -0.0125 0.38419 0.04583 0.0
Zn1 Zn 0.08302 0.35124 0.00926 0.0
O2 O 0.11304 0.3513 0.05741 0.0
O3 O 0.04092 0.39707 0.08709 0.0
O4 O 0.16456 0.34443 -0.0145 0.0
O5 O 0.95649 0.4517 0.01559 0.0
O6 O 0.03485 0.42116 -0.01567 0.0
C7 C 0.09365 0.37064 0.08524 0.0
C8 C -0.01381 0.25707 0.01728 0.0
O9 O 0.03791 0.27026 0.00374 0.0
O10 O 0.95815 0.29597 0.03561 0.0
C11 C 0.19414 0.29339 -0.01721 0.0
O12 O 0.16943 0.24135 -0.00624 0.0
C13 C -0.01373 0.4546 -0.01134 0.0
Zn14 Zn 0.81631 0.7375 0.29582 0.0
Zn15 Zn 0.84924 0.83306 0.25926 0.0
O16 O 0.84916 0.86308 0.30741 0.0
O17 O 0.80343 0.79093 0.33708 0.0
O18 O 0.85605 0.91461 0.23551 0.0
O19 O 0.7488 0.7065 0.26558 0.0
O20 O 0.77933 0.78489 0.23433 0.0
C21 C 0.82983 0.84367 0.33524 0.0
C22 C 0.94342 0.73623 0.26728 0.0
O23 O 0.93022 0.78797 0.25375 0.0
O24 O 0.90452 0.70817 0.2856 0.0
C25 C 0.90708 0.94419 0.23279 0.0
O26 O 0.95912 0.91948 0.24375 0.0
C27 C 0.7459 0.7363 0.23865 0.0
Zn28 Zn 0.46292 0.56633 0.54583 0.0
Zn29 Zn 0.3674 0.59927 0.50926 0.0
O30 O 0.33737 0.59921 0.55741 0.0
O31 O 0.40949 0.55345 0.58709 0.0
O32 O 0.28585 0.60609 0.4855 0.0
O33 O 0.49393 0.49881 0.51559 0.0
O34 O 0.41557 0.52935 0.48433 0.0
C35 C 0.35677 0.57987 0.58525 0.0
C36 C 0.46423 0.69345 0.51728 0.0
O37 O 0.4125 0.68026 0.50374 0.0
O38 O 0.49227 0.65454 0.53561 0.0
C39 C 0.25628 0.65712 0.48279 0.0
O40 O 0.28099 0.70917 0.49374 0.0
C41 C 0.46415 0.49592 0.48866 0.0
Zn42 Zn 0.63411 0.21302 0.79582 0.0
Zn43 Zn 0.60118 0.11746 0.75926 0.0
O44 O 0.60125 0.08743 0.80742 0.0
O45 O 0.64698 0.15959 0.83708 0.0
O46 O 0.59437 0.0359 0.73551 0.0
O47 O 0.70161 0.24401 0.76558 0.0
O48 O 0.67109 0.16563 0.73433 0.0
C49 C 0.62058 0.10685 0.83525 0.0
C50 C 0.50699 0.21428 0.76728 0.0
O51 O 0.52019 0.16255 0.75375 0.0
O52 O 0.54589 0.24235 0.7856 0.0
C53 C 0.54333 0.00633 0.73279 0.0
O54 O 0.4913 0.03105 0.74375 0.0
C55 C 0.70452 0.21422 0.73866 0.0
Zn56 Zn -0.0125 0.56633 0.40496 0.0
Zn57 Zn 0.08302 0.59927 0.44153 0.0
O58 O 0.11304 0.59922 0.39337 0.0
O59 O 0.04092 0.55345 0.3637 0.0
O60 O 0.16456 0.60609 0.46528 0.0
O61 O 0.95649 0.49881 0.4352 0.0
O62 O 0.03485 0.52935 0.46646 0.0
C63 C 0.09365 0.57987 0.36554 0.0
C64 C -0.01381 0.69345 0.4335 0.0
O65 O 0.03791 0.68026 0.44704 0.0
O66 O 0.95815 0.65454 0.41517 0.0
C67 C 0.19415 0.65712 0.46799 0.0
O68 O 0.16945 0.70916 0.45701 0.0
C69 C -0.01373 0.49592 0.46212 0.0
Zn70 Zn 0.6341 0.7375 0.65496 0.0
Zn71 Zn 0.60118 0.83306 0.69153 0.0
O72 O 0.60125 0.86308 0.64337 0.0
O73 O 0.64698 0.79093 0.6137 0.0
O74 O 0.59436 0.91461 0.71528 0.0
O75 O 0.70161 0.7065 0.68521 0.0
O76 O 0.67109 0.78489 0.71646 0.0
C77 C 0.62058 0.84367 0.61554 0.0
C78 C 0.50699 0.73623 0.68351 0.0
O79 O 0.52019 0.78796 0.69704 0.0
O80 O 0.54589 0.70817 0.66518 0.0
C81 C 0.54333 0.94419 0.71799 0.0
O82 O 0.4913 0.91949 0.70701 0.0
C83 C 0.70452 0.7363 0.71213 0.0
Zn84 Zn 0.46292 0.38419 0.90496 0.0
Zn85 Zn 0.3674 0.35124 0.94153 0.0
O86 O 0.33737 0.3513 0.89337 0.0
O87 O 0.40949 0.39707 0.8637 0.0
O88 O 0.28585 0.34443 0.96528 0.0
O89 O 0.49393 0.4517 0.9352 0.0
O90 O 0.41557 0.42116 0.96646 0.0
C91 C 0.35677 0.37064 0.86554 0.0
C92 C 0.46422 0.25707 0.9335 0.0
O93 O 0.4125 0.27026 0.94704 0.0
O94 O 0.49227 0.29597 0.91517 0.0
C95 C 0.25627 0.29339 0.96799 0.0
O96 O 0.28098 0.24136 0.95702 0.0
C97 C 0.46415 0.4546 0.96212 0.0
Zn98 Zn 0.81631 0.21301 0.15496 0.0
Zn99 Zn 0.84924 0.11746 0.19153 0.0
O100 O 0.84916 0.08743 0.14337 0.0
O101 O 0.80343 0.15959 0.1137 0.0
O102 O 0.85605 0.03591 0.21528 0.0
O103 O 0.7488 0.24401 0.18521 0.0
O104 O 0.77933 0.16563 0.21646 0.0
C105 C 0.82983 0.10684 0.11554 0.0
C106 C 0.94342 0.21428 0.1835 0.0
O107 O 0.93022 0.16255 0.19704 0.0
O108 O 0.90453 0.24235 0.16518 0.0
C109 C 0.90708 0.00633 0.21799 0.0
O110 O 0.95912 0.03103 0.20702 0.0
C111 C 0.7459 0.21422 0.21213 0.0
Zn112 Zn 0.96292 0.56633 0.90496 0.0
Zn113 Zn 0.8674 0.59927 0.94153 0.0
O114 O 0.83738 0.59921 0.89337 0.0
O115 O 0.90949 0.55345 0.8637 0.0
O116 O 0.78585 0.60609 0.96528 0.0
O117 O -0.00607 0.49881 0.9352 0.0
O118 O 0.91557 0.52935 0.96646 0.0
C119 C 0.85677 0.57987 0.86554 0.0
C120 C 0.96423 0.69345 0.9335 0.0
O121 O 0.9125 0.68026 0.94704 0.0
O122 O -0.00773 0.65454 0.91517 0.0
C123 C 0.75628 0.65712 0.968 0.0
O124 O 0.78098 0.70916 0.95703 0.0
C125 C 0.96415 0.49592 0.96213 0.0
Zn126 Zn 0.13411 0.21301 0.65496 0.0
Zn127 Zn 0.10118 0.11745 0.69153 0.0
O128 O 0.10125 0.08743 0.64337 0.0
O129 O 0.14698 0.15959 0.6137 0.0
O130 O 0.09436 0.0359 0.71528 0.0
O131 O 0.20161 0.24401 0.68521 0.0
O132 O 0.17109 0.16562 0.71646 0.0
C133 C 0.12058 0.10684 0.61554 0.0
C134 C 0.00699 0.21428 0.6835 0.0
O135 O 0.02019 0.16255 0.69704 0.0
O136 O 0.04589 0.24235 0.66518 0.0
C137 C 0.04333 0.00633 0.718 0.0
O138 O -0.0087 0.03104 0.70703 0.0
C139 C 0.20452 0.21421 0.71213 0.0
Zn140 Zn 0.48749 0.38419 0.40496 0.0
Zn141 Zn 0.58302 0.35124 0.44153 0.0
O142 O 0.61304 0.3513 0.39337 0.0
O143 O 0.54092 0.39707 0.3637 0.0
O144 O 0.66456 0.34443 0.46528 0.0
O145 O 0.45649 0.4517 0.4352 0.0
O146 O 0.53485 0.42116 0.46646 0.0
C147 C 0.59365 0.37064 0.36554 0.0
C148 C 0.48619 0.25707 0.4335 0.0
O149 O 0.53791 0.27026 0.44704 0.0
O150 O 0.45815 0.29597 0.41517 0.0
C151 C 0.69414 0.29339 0.468 0.0
O152 O 0.66943 0.24135 0.45704 0.0
C153 C 0.48627 0.4546 0.46213 0.0
Zn154 Zn 0.31631 0.7375 0.15496 0.0
Zn155 Zn 0.34924 0.83306 0.19153 0.0
O156 O 0.34916 0.86308 0.14337 0.0
O157 O 0.30343 0.79093 0.1137 0.0
O158 O 0.35605 0.91461 0.21528 0.0
O159 O 0.2488 0.7065 0.18521 0.0
O160 O 0.27933 0.78489 0.21646 0.0
C161 C 0.32983 0.84367 0.11554 0.0
C162 C 0.44342 0.73623 0.1835 0.0
O163 O 0.43022 0.78796 0.19704 0.0
O164 O 0.40452 0.70817 0.16518 0.0
C165 C 0.40709 0.94418 0.218 0.0
O166 O 0.45912 0.91947 0.20704 0.0
C167 C 0.2459 0.7363 0.21213 0.0
Zn168 Zn 0.96292 0.38419 0.54583 0.0
Zn169 Zn 0.8674 0.35124 0.50926 0.0
O170 O 0.83738 0.3513 0.55741 0.0
O171 O 0.9095 0.39707 0.58709 0.0
O172 O 0.78585 0.34443 0.4855 0.0
O173 O -0.00607 0.4517 0.51559 0.0
O174 O 0.91557 0.42116 0.48433 0.0
C175 C 0.85677 0.37064 0.58524 0.0
C176 C 0.96423 0.25707 0.51728 0.0
O177 O 0.9125 0.27026 0.50374 0.0
O178 O -0.00773 0.29597 0.53561 0.0
C179 C 0.75627 0.29339 0.4828 0.0
O180 O 0.78097 0.24136 0.49378 0.0
C181 C 0.96415 0.4546 0.48866 0.0
Zn182 Zn 0.31631 0.21301 0.29582 0.0
Zn183 Zn 0.34924 0.11745 0.25926 0.0
O184 O 0.34917 0.08743 0.30741 0.0
O185 O 0.30343 0.15958 0.33708 0.0
O186 O 0.35605 0.0359 0.23551 0.0
O187 O 0.2488 0.24401 0.26558 0.0
O188 O 0.27933 0.16562 0.23433 0.0
C189 C 0.32984 0.10684 0.33524 0.0
C190 C 0.44342 0.21428 0.26728 0.0
O191 O 0.43023 0.16255 0.25374 0.0
O192 O 0.40453 0.24235 0.2856 0.0
C193 C 0.40708 0.00632 0.2328 0.0
O194 O 0.45912 0.03103 0.24377 0.0
C195 C 0.2459 0.21421 0.23866 0.0
Zn196 Zn 0.4875 0.56633 0.04583 0.0
Zn197 Zn 0.58302 0.59927 0.00925 0.0
O198 O 0.61304 0.59922 0.05741 0.0
O199 O 0.54092 0.55345 0.08709 0.0
O200 O 0.66456 0.60609 -0.0145 0.0
O201 O 0.45649 0.49881 0.01559 0.0
O202 O 0.53485 0.52935 -0.01567 0.0
C203 C 0.59365 0.57987 0.08524 0.0
C204 C 0.48619 0.69345 0.01728 0.0
O205 O 0.53791 0.68026 0.00374 0.0
O206 O 0.45815 0.65454 0.03561 0.0
C207 C 0.69414 0.65712 -0.0172 0.0
O208 O 0.66944 0.70916 -0.00623 0.0
C209 C 0.48627 0.49592 -0.01134 0.0
Zn210 Zn 0.1341 0.7375 0.79582 0.0
Zn211 Zn 0.10118 0.83306 0.75926 0.0
O212 O 0.10125 0.86308 0.80742 0.0
O213 O 0.14698 0.79093 0.83708 0.0
O214 O 0.09436 0.91461 0.73551 0.0
O215 O 0.20161 0.7065 0.76558 0.0
O216 O 0.17109 0.78489 0.73433 0.0
C217 C 0.12058 0.84367 0.83525 0.0
C218 C 0.00699 0.73623 0.76728 0.0
O219 O 0.02019 0.78796 0.75375 0.0
O220 O 0.04589 0.70817 0.7856 0.0
C221 C 0.04333 0.94419 0.7328 0.0
O222 O -0.0087 0.91949 0.74377 0.0
C223 C 0.20452 0.7363 0.73866 0.0
Zn224 Zn 0.48747 0.8842 0.54583 0.0
Zn225 Zn 0.58302 0.85124 0.50926 0.0
O226 O 0.61304 0.8513 0.55742 0.0
O227 O 0.5409 0.89708 0.58709 0.0
O228 O 0.66456 0.84443 0.48551 0.0
O229 O 0.45648 0.95172 0.51559 0.0
O230 O 0.53484 0.92116 0.48433 0.0
C231 C 0.59363 0.87066 0.58524 0.0
C232 C 0.48617 0.75708 0.51728 0.0
O233 O 0.53791 0.77026 0.50375 0.0
O234 O 0.45813 0.79599 0.53561 0.0
C235 C 0.69414 0.79339 0.48279 0.0
O236 O 0.66944 0.74135 0.49376 0.0
C237 C 0.48627 0.9546 0.48866 0.0
Zn238 Zn 0.31626 0.23749 0.79584 0.0
Zn239 Zn 0.3492 0.33307 0.75926 0.0
O240 O 0.34913 0.3631 0.80742 0.0
O241 O 0.3034 0.29093 0.83709 0.0
O242 O 0.35602 0.41461 0.73551 0.0
O243 O 0.24874 0.20652 0.76559 0.0
O244 O 0.27928 0.2849 0.73434 0.0
C245 C 0.32979 0.34367 0.83525 0.0
C246 C 0.44336 0.23621 0.76728 0.0
O247 O 0.43018 0.28796 0.75375 0.0
O248 O 0.40447 0.20815 0.78561 0.0
C249 C 0.40705 0.44419 0.73279 0.0
O250 O 0.45909 0.41947 0.74375 0.0
C251 C 0.24584 0.23632 0.73867 0.0
Zn252 Zn 0.96294 0.06631 0.04583 0.0
Zn253 Zn 0.8674 0.09928 0.00926 0.0
O254 O 0.83738 0.09921 0.05742 0.0
O255 O 0.90952 0.05344 0.08709 0.0
O256 O 0.78585 0.10609 -0.01449 0.0
O257 O -0.00607 -0.0012 0.01559 0.0
O258 O 0.91557 0.02936 -0.01567 0.0
C259 C 0.85679 0.07986 0.08524 0.0
C260 C 0.96425 0.19343 0.01728 0.0
O261 O 0.91251 0.18026 0.00375 0.0
O262 O -0.00771 0.15453 0.03561 0.0
C263 C 0.75628 0.15713 -0.01721 0.0
O264 O 0.78099 0.20917 -0.00625 0.0
C265 C 0.96415 -0.00408 -0.01134 0.0
Zn266 Zn 0.13416 0.71302 0.29583 0.0
Zn267 Zn 0.10122 0.61745 0.25926 0.0
O268 O 0.10129 0.58742 0.30742 0.0
O269 O 0.14702 0.65959 0.33709 0.0
O270 O 0.0944 0.5359 0.23551 0.0
O271 O 0.20167 0.74399 0.26559 0.0
O272 O 0.17114 0.66561 0.23434 0.0
C273 C 0.12063 0.60684 0.33524 0.0
C274 C 0.00706 0.7143 0.26728 0.0
O275 O 0.02024 0.66256 0.25375 0.0
O276 O 0.04595 0.74236 0.2856 0.0
C277 C 0.04336 0.50633 0.23279 0.0
O278 O -0.00867 0.53104 0.24376 0.0
C279 C 0.20457 0.7142 0.23866 0.0
Zn280 Zn 0.48747 0.06631 0.90495 0.0
Zn281 Zn 0.58302 0.09928 0.94153 0.0
O282 O 0.61304 0.09921 0.89337 0.0
O283 O 0.5409 0.05344 0.86369 0.0
O284 O 0.66456 0.10609 0.96528 0.0
O285 O 0.45648 -0.0012 0.9352 0.0
O286 O 0.53484 0.02936 0.96645 0.0
C287 C 0.59363 0.07986 0.86554 0.0
C288 C 0.48617 0.19343 0.93351 0.0
O289 O 0.53791 0.18026 0.94704 0.0
O290 O 0.45813 0.15453 0.91518 0.0
C291 C 0.69414 0.15713 0.96799 0.0
O292 O 0.66944 0.20916 0.95702 0.0
C293 C 0.48627 -0.00408 0.96212 0.0
Zn294 Zn 0.13416 0.23749 0.15495 0.0
Zn295 Zn 0.10122 0.33307 0.19152 0.0
O296 O 0.10129 0.3631 0.14337 0.0
O297 O 0.14702 0.29093 0.11369 0.0
O298 O 0.0944 0.41461 0.21528 0.0
O299 O 0.20167 0.20652 0.1852 0.0
O300 O 0.17114 0.2849 0.21645 0.0
C301 C 0.12063 0.34368 0.11554 0.0
C302 C 0.00706 0.23621 0.18351 0.0
O303 O 0.02024 0.28796 0.19703 0.0
O304 O 0.04595 0.20815 0.16518 0.0
C305 C 0.04336 0.44419 0.21799 0.0
O306 O -0.00867 0.41948 0.20702 0.0
C307 C 0.20458 0.23632 0.21212 0.0
Zn308 Zn 0.96294 0.8842 0.40495 0.0
Zn309 Zn 0.8674 0.85124 0.44153 0.0
O310 O 0.83738 0.8513 0.39337 0.0
O311 O 0.90952 0.89708 0.36369 0.0
O312 O 0.78585 0.84443 0.46528 0.0
O313 O -0.00607 0.95172 0.4352 0.0
O314 O 0.91557 0.92116 0.46645 0.0
C315 C 0.85679 0.87066 0.36554 0.0
C316 C 0.96425 0.75708 0.43351 0.0
O317 O 0.91251 0.77026 0.44704 0.0
O318 O -0.00771 0.79599 0.41518 0.0
C319 C 0.75627 0.79339 0.46799 0.0
O320 O 0.78098 0.74135 0.45702 0.0
C321 C 0.96415 0.9546 0.46212 0.0
Zn322 Zn 0.31626 0.71302 0.65495 0.0
Zn323 Zn 0.3492 0.61745 0.69152 0.0
O324 O 0.34913 0.58742 0.64337 0.0
O325 O 0.3034 0.65959 0.61369 0.0
O326 O 0.35602 0.5359 0.71528 0.0
O327 O 0.24874 0.74399 0.6852 0.0
O328 O 0.27928 0.66561 0.71645 0.0
C329 C 0.32979 0.60684 0.61554 0.0
C330 C 0.44336 0.7143 0.68351 0.0
O331 O 0.43018 0.66256 0.69704 0.0
O332 O 0.40446 0.74236 0.66518 0.0
C333 C 0.40705 0.50632 0.71799 0.0
O334 O 0.45908 0.53103 0.70701 0.0
C335 C 0.24584 0.71419 0.71212 0.0
Zn336 Zn 0.46295 0.06631 0.40495 0.0
Zn337 Zn 0.3674 0.09927 0.44153 0.0
O338 O 0.33738 0.09921 0.39337 0.0
O339 O 0.40952 0.05344 0.36369 0.0
O340 O 0.28585 0.10609 0.46528 0.0
O341 O 0.49393 -0.0012 0.4352 0.0
O342 O 0.41557 0.02936 0.46645 0.0
C343 C 0.35679 0.07986 0.36554 0.0
C344 C 0.46425 0.19343 0.43351 0.0
O345 O 0.41251 0.18026 0.44704 0.0
O346 O 0.49229 0.15453 0.41518 0.0
C347 C 0.25627 0.15713 0.46799 0.0
O348 O 0.28098 0.20917 0.45702 0.0
C349 C 0.46415 -0.00409 0.46212 0.0
Zn350 Zn 0.63416 0.71302 0.15495 0.0
Zn351 Zn 0.60122 0.61745 0.19152 0.0
O352 O 0.60129 0.58742 0.14337 0.0
O353 O 0.64702 0.65959 0.11369 0.0
O354 O 0.5944 0.5359 0.21528 0.0
O355 O 0.70167 0.744 0.1852 0.0
O356 O 0.67114 0.66561 0.21645 0.0
C357 C 0.62063 0.60684 0.11554 0.0
C358 C 0.50706 0.7143 0.18351 0.0
O359 O 0.52024 0.66256 0.19703 0.0
O360 O 0.54595 0.74236 0.16518 0.0
C361 C 0.54336 0.50633 0.218 0.0
O362 O 0.49133 0.53104 0.20703 0.0
C363 C 0.70457 0.7142 0.21212 0.0
Zn364 Zn -0.01253 0.8842 0.90495 0.0
Zn365 Zn 0.08302 0.85124 0.94153 0.0
O366 O 0.11304 0.8513 0.89337 0.0
O367 O 0.0409 0.89708 0.86369 0.0
O368 O 0.16456 0.84443 0.96528 0.0
O369 O 0.95648 0.95172 0.9352 0.0
O370 O 0.03484 0.92116 0.96645 0.0
C371 C 0.09363 0.87066 0.86554 0.0
C372 C -0.01383 0.75708 0.93351 0.0
O373 O 0.03791 0.77026 0.94704 0.0
O374 O 0.95813 0.79599 0.91518 0.0
C375 C 0.19414 0.79339 0.968 0.0
O376 O 0.16943 0.74135 0.95703 0.0
C377 C -0.01373 0.9546 0.96212 0.0
Zn378 Zn 0.81626 0.23749 0.65495 0.0
Zn379 Zn 0.8492 0.33307 0.69152 0.0
O380 O 0.84913 0.3631 0.64337 0.0
O381 O 0.8034 0.29093 0.61369 0.0
O382 O 0.85602 0.41461 0.71528 0.0
O383 O 0.74874 0.20652 0.6852 0.0
O384 O 0.77928 0.28491 0.71645 0.0
C385 C 0.82979 0.34368 0.61554 0.0
C386 C 0.94336 0.23621 0.68351 0.0
O387 O 0.93018 0.28796 0.69703 0.0
O388 O 0.90447 0.20815 0.66518 0.0
C389 C 0.90705 0.44419 0.71799 0.0
O390 O 0.95909 0.41948 0.70703 0.0
C391 C 0.74584 0.23632 0.71212 0.0
Zn392 Zn 0.46294 0.8842 0.04583 0.0
Zn393 Zn 0.3674 0.85124 0.00926 0.0
O394 O 0.33738 0.8513 0.05742 0.0
O395 O 0.40952 0.89708 0.08709 0.0
O396 O 0.28585 0.84442 -0.0145 0.0
O397 O 0.49393 0.95172 0.01559 0.0
O398 O 0.41557 0.92116 -0.01567 0.0
C399 C 0.35679 0.87066 0.08524 0.0
C400 C 0.46425 0.75708 0.01728 0.0
O401 O 0.41251 0.77026 0.00375 0.0
O402 O 0.49229 0.79599 0.03561 0.0
C403 C 0.25627 0.79339 -0.0172 0.0
O404 O 0.28097 0.74135 -0.00623 0.0
C405 C 0.46415 0.9546 -0.01134 0.0
Zn406 Zn 0.81626 0.71302 0.79584 0.0
Zn407 Zn 0.8492 0.61745 0.75926 0.0
O408 O 0.84913 0.58742 0.80742 0.0
O409 O 0.8034 0.65958 0.83709 0.0
O410 O 0.85602 0.5359 0.73551 0.0
O411 O 0.74874 0.74399 0.76559 0.0
O412 O 0.77928 0.66561 0.73434 0.0
C413 C 0.82979 0.60684 0.83525 0.0
C414 C 0.94336 0.7143 0.76728 0.0
O415 O 0.93018 0.66256 0.75375 0.0
O416 O 0.90446 0.74236 0.78561 0.0
C417 C 0.90705 0.50633 0.7328 0.0
O418 O 0.95909 0.53103 0.74376 0.0
C419 C 0.74584 0.7142 0.73867 0.0
Zn420 Zn -0.01253 0.06631 0.54583 0.0
Zn421 Zn 0.08302 0.09927 0.50926 0.0
O422 O 0.11304 0.09921 0.55742 0.0
O423 O 0.0409 0.05344 0.58709 0.0
O424 O 0.16456 0.10609 0.48551 0.0
O425 O 0.95648 -0.0012 0.51559 0.0
O426 O 0.03484 0.02936 0.48433 0.0
C427 C 0.09363 0.07986 0.58524 0.0
C428 C -0.01383 0.19343 0.51728 0.0
O429 O 0.03791 0.18026 0.50375 0.0
O430 O 0.95813 0.15453 0.53561 0.0
C431 C 0.19414 0.15713 0.48279 0.0
O432 O 0.16944 0.20917 0.49376 0.0
C433 C -0.01373 -0.00409 0.48866 0.0
Zn434 Zn 0.63416 0.2375 0.29583 0.0
Zn435 Zn 0.60122 0.33307 0.25926 0.0
O436 O 0.60129 0.3631 0.30742 0.0
O437 O 0.64702 0.29093 0.33709 0.0
O438 O 0.5944 0.41461 0.23551 0.0
O439 O 0.70167 0.20652 0.26559 0.0
O440 O 0.67114 0.28491 0.23434 0.0
C441 C 0.62063 0.34368 0.33524 0.0
C442 C 0.50706 0.23621 0.26728 0.0
O443 O 0.52024 0.28796 0.25375 0.0
O444 O 0.54595 0.20815 0.2856 0.0
C445 C 0.54336 0.44419 0.2328 0.0
O446 O 0.49133 0.41949 0.24377 0.0
C447 C 0.70457 0.23632 0.23867 0.0
loop_
_geom_bond_atom_site_label_1
_geom_bond_atom_site_label_2
_geom_bond_distance
_geom_bond_site_symmetry_2
_ccdc_geom_bond_type
Zn0 O3 2.031 1_655 S
Zn0 O5 2.049 . S
Zn0 O10 2.067 . S
Zn1 O2 1.962 . S
Zn1 O4 1.990 . S
Zn1 O6 1.996 . S
Zn1 O9 1.943 . S
O2 Zn1 1.962 . S
O2 C7 1.254 . S
O3 Zn0 2.031 1_455 S
O3 C7 1.269 . S
O4 Zn1 1.990 . S
O4 C11 1.263 . S
O5 Zn0 2.049 . S
O5 C13 1.260 . S
O6 Zn1 1.996 . S
O6 C13 1.257 1_455 S
C7 O2 1.254 . S
C7 O3 1.269 . S
C8 O9 1.249 . S
C8 O10 1.270 1_455 S
O9 Zn1 1.943 . S
O9 C8 1.249 . S
O10 Zn0 2.067 . S
O10 C8 1.270 1_655 S
C11 O4 1.263 . S
C11 O12 1.232 . S
O12 C11 1.232 . S
C13 O5 1.260 . S
C13 O6 1.257 1_655 S
Zn14 O17 2.031 . S
Zn14 O19 2.049 . S
Zn14 O24 2.067 . S
Zn15 O16 1.962 . S
Zn15 O18 1.986 . S
Zn15 O20 1.996 . S
Zn15 O23 1.943 . S
O16 Zn15 1.962 . S
O16 C21 1.254 . S
O17 Zn14 2.031 . S
O17 C21 1.269 . S
O18 Zn15 1.986 . S
O18 C25 1.262 . S
O19 Zn14 2.049 . S
O19 C27 1.260 . S
O20 Zn15 1.996 . S
O20 C27 1.257 . S
C21 O16 1.254 . S
C21 O17 1.269 . S
C22 O23 1.249 . S
C22 O24 1.270 . S
O23 Zn15 1.943 . S
O23 C22 1.249 . S
O24 Zn14 2.067 . S
O24 C22 1.270 . S
C25 O18 1.262 . S
C25 O26 1.232 . S
O26 C25 1.232 . S
C27 O19 1.260 . S
C27 O20 1.257 . S
Zn28 O31 2.031 . S
Zn28 O33 2.049 . S
Zn28 O38 2.067 . S
Zn29 O30 1.962 . S
Zn29 O32 1.986 . S
Zn29 O34 1.996 . S
Zn29 O37 1.943 . S
O30 Zn29 1.962 . S
O30 C35 1.254 . S
O31 Zn28 2.031 . S
O31 C35 1.269 . S
O32 Zn29 1.986 . S
O32 C39 1.262 . S
O33 Zn28 2.049 . S
O33 C41 1.260 . S
O34 Zn29 1.996 . S
O34 C41 1.257 . S
C35 O30 1.254 . S
C35 O31 1.269 . S
C36 O37 1.249 . S
C36 O38 1.270 . S
O37 Zn29 1.943 . S
O37 C36 1.249 . S
O38 Zn28 2.067 . S
O38 C36 1.270 . S
C39 O32 1.262 . S
C39 O40 1.232 . S
O40 C39 1.232 . S
C41 O33 1.260 . S
C41 O34 1.257 . S
Zn42 O45 2.031 . S
Zn42 O47 2.049 . S
Zn42 O52 2.067 . S
Zn43 O44 1.962 . S
Zn43 O46 1.986 . S
Zn43 O48 1.996 . S
Zn43 O51 1.943 . S
O44 Zn43 1.962 . S
O44 C49 1.254 . S
O45 Zn42 2.031 . S
O45 C49 1.269 . S
O46 Zn43 1.986 . S
O46 C53 1.262 . S
O47 Zn42 2.049 . S
O47 C55 1.260 . S
O48 Zn43 1.996 . S
O48 C55 1.257 . S
C49 O44 1.254 . S
C49 O45 1.269 . S
C50 O51 1.249 . S
C50 O52 1.270 . S
O51 Zn43 1.943 . S
O51 C50 1.249 . S
O52 Zn42 2.067 . S
O52 C50 1.270 . S
C53 O46 1.262 . S
C53 O54 1.232 . S
O54 C53 1.232 . S
C55 O47 1.260 . S
C55 O48 1.257 . S
Zn56 O59 2.031 1_655 S
Zn56 O61 2.049 . S
Zn56 O66 2.067 . S
Zn57 O58 1.962 . S
Zn57 O60 1.986 . S
Zn57 O62 1.996 . S
Zn57 O65 1.943 . S
O58 Zn57 1.962 . S
O58 C63 1.254 . S
O59 Zn56 2.031 1_455 S
O59 C63 1.269 . S
O60 Zn57 1.986 . S
O60 C67 1.262 . S
O61 Zn56 2.049 . S
O61 C69 1.260 . S
O62 Zn57 1.996 . S
O62 C69 1.257 1_455 S
C63 O58 1.254 . S
C63 O59 1.269 . S
C64 O65 1.249 . S
C64 O66 1.270 1_455 S
O65 Zn57 1.943 . S
O65 C64 1.249 . S
O66 Zn56 2.067 . S
O66 C64 1.270 1_655 S
C67 O60 1.262 . S
C67 O68 1.232 . S
O68 C67 1.232 . S
C69 O61 1.260 . S
C69 O62 1.257 1_655 S
Zn70 O73 2.031 . S
Zn70 O75 2.049 . S
Zn70 O80 2.067 . S
Zn71 O72 1.962 . S
Zn71 O74 1.986 . S
Zn71 O76 1.996 . S
Zn71 O79 1.943 . S
O72 Zn71 1.962 . S
O72 C77 1.254 . S
O73 Zn70 2.031 . S
O73 C77 1.269 . S
O74 Zn71 1.986 . S
O74 C81 1.262 . S
O75 Zn70 2.049 . S
O75 C83 1.260 . S
O76 Zn71 1.996 . S
O76 C83 1.257 . S
C77 O72 1.254 . S
C77 O73 1.269 . S
C78 O79 1.249 . S
C78 O80 1.270 . S
O79 Zn71 1.943 . S
O79 C78 1.249 . S
O80 Zn70 2.067 . S
O80 C78 1.270 . S
C81 O74 1.262 . S
C81 O82 1.232 . S
O82 C81 1.232 . S
C83 O75 1.260 . S
C83 O76 1.257 . S
Zn84 O87 2.031 . S
Zn84 O89 2.049 . S
Zn84 O94 2.067 . S
Zn85 O86 1.962 . S
Zn85 O88 1.990 . S
Zn85 O90 1.996 . S
Zn85 O93 1.943 . S
O86 Zn85 1.962 . S
O86 C91 1.254 . S
O87 Zn84 2.031 . S
O87 C91 1.269 . S
O88 Zn85 1.990 . S
O88 C95 1.263 . S
O89 Zn84 2.049 . S
O89 C97 1.260 . S
O90 Zn85 1.996 . S
O90 C97 1.257 . S
C91 O86 1.254 . S
C91 O87 1.269 . S
C92 O93 1.249 . S
C92 O94 1.270 . S
O93 Zn85 1.943 . S
O93 C92 1.249 . S
O94 Zn84 2.067 . S
O94 C92 1.270 . S
C95 O88 1.263 . S
C95 O96 1.232 . S
O96 C95 1.232 . S
C97 O89 1.260 . S
C97 O90 1.257 . S
Zn98 O101 2.031 . S
Zn98 O103 2.049 . S
Zn98 O108 2.067 . S
Zn99 O100 1.962 . S
Zn99 O102 1.986 . S
Zn99 O104 1.996 . S
Zn99 O107 1.943 . S
O100 Zn99 1.962 . S
O100 C105 1.254 . S
O101 Zn98 2.031 . S
O101 C105 1.269 . S
O102 Zn99 1.986 . S
O102 C109 1.262 . S
O103 Zn98 2.049 . S
O103 C111 1.260 . S
O104 Zn99 1.996 . S
O104 C111 1.257 . S
C105 O100 1.254 . S
C105 O101 1.269 . S
C106 O107 1.249 . S
C106 O108 1.270 . S
O107 Zn99 1.943 . S
O107 C106 1.249 . S
O108 Zn98 2.067 . S
O108 C106 1.270 . S
C109 O102 1.262 . S
C109 O110 1.232 . S
O110 C109 1.232 . S
C111 O103 1.260 . S
C111 O104 1.257 . S
Zn112 O115 2.031 1_455 S
Zn112 O117 2.049 . S
Zn112 O122 2.067 . S
Zn113 O114 1.962 . S
Zn113 O116 1.990 . S
Zn113 O118 1.996 . S
Zn113 O121 1.943 . S
O114 Zn113 1.962 . S
O114 C119 1.254 . S
O115 Zn112 2.031 1_655 S
O115 C119 1.269 . S
O116 Zn113 1.990 . S
O116 C123 1.263 . S
O117 Zn112 2.049 . S
O117 C125 1.260 . S
O118 Zn113 1.996 . S
O118 C125 1.257 1_655 S
C119 O114 1.254 . S
C119 O115 1.269 . S
C120 O121 1.249 . S
C120 O122 1.270 1_655 S
O121 Zn113 1.943 . S
O121 C120 1.249 . S
O122 Zn112 2.067 . S
O122 C120 1.270 1_455 S
C123 O116 1.263 . S
C123 O124 1.232 . S
O124 C123 1.232 . S
C125 O117 1.260 . S
C125 O118 1.257 1_455 S
Zn126 O129 2.031 . S
Zn126 O131 2.049 . S
Zn126 O136 2.067 . S
Zn127 O128 1.962 . S
Zn127 O130 1.986 . S
Zn127 O132 1.996 . S
Zn127 O135 1.943 . S
O128 Zn127 1.962 . S
O128 C133 1.254 . S
O129 Zn126 2.031 . S
O129 C133 1.269 . S
O130 Zn127 1.986 . S
O130 C137 1.262 . S
O131 Zn126 2.049 . S
O131 C139 1.260 . S
O132 Zn127 1.996 . S
O132 C139 1.257 . S
C133 O128 1.254 . S
C133 O129 1.269 . S
C134 O135 1.249 . S
C134 O136 1.270 . S
O135 Zn127 1.943 . S
O135 C134 1.249 . S
O136 Zn126 2.067 . S
O136 C134 1.270 . S
C137 O130 1.262 . S
C137 O138 1.232 . S
O138 C137 1.232 . S
C139 O131 1.260 . S
C139 O132 1.257 . S
Zn140 O143 2.031 . S
Zn140 O145 2.049 . S
Zn140 O150 2.067 . S
Zn141 O142 1.962 . S
Zn141 O144 1.986 . S
Zn141 O146 1.996 . S
Zn141 O149 1.943 . S
O142 Zn141 1.962 . S
O142 C147 1.254 . S
O143 Zn140 2.031 . S
O143 C147 1.269 . S
O144 Zn141 1.986 . S
O144 C151 1.262 . S
O145 Zn140 2.049 . S
O145 C153 1.260 . S
O146 Zn141 1.996 . S
O146 C153 1.257 . S
C147 O142 1.254 . S
C147 O143 1.269 . S
C148 O149 1.249 . S
C148 O150 1.270 . S
O149 Zn141 1.943 . S
O149 C148 1.249 . S
O150 Zn140 2.067 . S
O150 C148 1.270 . S
C151 O144 1.262 . S
C151 O152 1.232 . S
O152 C151 1.232 . S
C153 O145 1.260 . S
C153 O146 1.257 . S
Zn154 O157 2.031 . S
Zn154 O159 2.049 . S
Zn154 O164 2.067 . S
Zn155 O156 1.962 . S
Zn155 O158 1.986 . S
Zn155 O160 1.996 . S
Zn155 O163 1.943 . S
O156 Zn155 1.962 . S
O156 C161 1.254 . S
O157 Zn154 2.031 . S
O157 C161 1.269 . S
O158 Zn155 1.986 . S
O158 C165 1.262 . S
O159 Zn154 2.049 . S
O159 C167 1.260 . S
O160 Zn155 1.996 . S
O160 C167 1.257 . S
C161 O156 1.254 . S
C161 O157 1.269 . S
C162 O163 1.249 . S
C162 O164 1.270 . S
O163 Zn155 1.943 . S
O163 C162 1.249 . S
O164 Zn154 2.067 . S
O164 C162 1.270 . S
C165 O158 1.262 . S
C165 O166 1.232 . S
O166 C165 1.232 . S
C167 O159 1.260 . S
C167 O160 1.257 . S
Zn168 O171 2.031 1_455 S
Zn168 O173 2.049 . S
Zn168 O178 2.067 . S
Zn169 O170 1.962 . S
Zn169 O172 1.986 . S
Zn169 O174 1.996 . S
Zn169 O177 1.943 . S
O170 Zn169 1.962 . S
O170 C175 1.254 . S
O171 Zn168 2.031 1_655 S
O171 C175 1.269 . S
O172 Zn169 1.986 . S
O172 C179 1.262 . S
O173 Zn168 2.049 . S
O173 C181 1.260 . S
O174 Zn169 1.996 . S
O174 C181 1.257 1_655 S
C175 O170 1.254 . S
C175 O171 1.269 . S
C176 O177 1.249 . S
C176 O178 1.270 1_655 S
O177 Zn169 1.943 . S
O177 C176 1.249 . S
O178 Zn168 2.067 . S
O178 C176 1.270 1_455 S
C179 O172 1.262 . S
C179 O180 1.232 . S
O180 C179 1.232 . S
C181 O173 1.260 . S
C181 O174 1.257 1_455 S
Zn182 O185 2.031 . S
Zn182 O187 2.049 . S
Zn182 O192 2.067 . S
Zn183 O184 1.962 . S
Zn183 O186 1.986 . S
Zn183 O188 1.996 . S
Zn183 O191 1.943 . S
O184 Zn183 1.962 . S
O184 C189 1.254 . S
O185 Zn182 2.031 . S
O185 C189 1.269 . S
O186 Zn183 1.986 . S
O186 C193 1.262 . S
O187 Zn182 2.049 . S
O187 C195 1.260 . S
O188 Zn183 1.996 . S
O188 C195 1.257 . S
C189 O184 1.254 . S
C189 O185 1.269 . S
C190 O191 1.249 . S
C190 O192 1.270 . S
O191 Zn183 1.943 . S
O191 C190 1.249 . S
O192 Zn182 2.067 . S
O192 C190 1.270 . S
C193 O186 1.262 . S
C193 O194 1.232 . S
O194 C193 1.232 . S
C195 O187 1.260 . S
C195 O188 1.257 . S
Zn196 O199 2.031 . S
Zn196 O201 2.049 . S
Zn196 O206 2.067 . S
Zn197 O198 1.962 . S
Zn197 O200 1.990 . S
Zn197 O202 1.996 . S
Zn197 O205 1.943 . S
O198 Zn197 1.962 . S
O198 C203 1.254 . S
O199 Zn196 2.031 . S
O199 C203 1.269 . S
O200 Zn197 1.990 . S
O200 C207 1.263 . S
O201 Zn196 2.049 . S
O201 C209 1.260 . S
O202 Zn197 1.996 . S
O202 C209 1.257 . S
C203 O198 1.254 . S
C203 O199 1.269 . S
C204 O205 1.249 . S
C204 O206 1.270 . S
O205 Zn197 1.943 . S
O205 C204 1.249 . S
O206 Zn196 2.067 . S
O206 C204 1.270 . S
C207 O200 1.263 . S
C207 O208 1.232 . S
O208 C207 1.232 . S
C209 O201 1.260 . S
C209 O202 1.257 . S
Zn210 O213 2.031 . S
Zn210 O215 2.049 . S
Zn210 O220 2.067 . S
Zn211 O212 1.962 . S
Zn211 O214 1.986 . S
Zn211 O216 1.996 . S
Zn211 O219 1.943 . S
O212 Zn211 1.962 . S
O212 C217 1.254 . S
O213 Zn210 2.031 . S
O213 C217 1.269 . S
O214 Zn211 1.986 . S
O214 C221 1.262 . S
O215 Zn210 2.049 . S
O215 C223 1.260 . S
O216 Zn211 1.996 . S
O216 C223 1.257 . S
C217 O212 1.254 . S
C217 O213 1.269 . S
C218 O219 1.249 . S
C218 O220 1.270 . S
O219 Zn211 1.943 . S
O219 C218 1.249 . S
O220 Zn210 2.067 . S
O220 C218 1.270 . S
C221 O214 1.262 . S
C221 O222 1.232 . S
O222 C221 1.232 . S
C223 O215 1.260 . S
C223 O216 1.257 . S
Zn224 O227 2.031 . S
Zn224 O229 2.049 . S
Zn224 O234 2.067 . S
Zn225 O226 1.962 . S
Zn225 O228 1.986 . S
Zn225 O230 1.996 . S
Zn225 O233 1.943 . S
O226 Zn225 1.962 . S
O226 C231 1.254 . S
O227 Zn224 2.031 . S
O227 C231 1.269 . S
O228 Zn225 1.986 . S
O228 C235 1.262 . S
O229 Zn224 2.049 . S
O229 C237 1.260 . S
O230 Zn225 1.996 . S
O230 C237 1.257 . S
C231 O226 1.254 . S
C231 O227 1.269 . S
C232 O233 1.249 . S
C232 O234 1.270 . S
O233 Zn225 1.943 . S
O233 C232 1.249 . S
O234 Zn224 2.067 . S
O234 C232 1.270 . S
C235 O228 1.262 . S
C235 O236 1.232 . S
O236 C235 1.232 . S
C237 O229 1.260 . S
C237 O230 1.257 . S
Zn238 O241 2.031 . S
Zn238 O243 2.049 . S
Zn238 O248 2.067 . S
Zn239 O240 1.962 . S
Zn239 O242 1.986 . S
Zn239 O244 1.996 . S
Zn239 O247 1.943 . S
O240 Zn239 1.962 . S
O240 C245 1.254 . S
O241 Zn238 2.031 . S
O241 C245 1.269 . S
O242 Zn239 1.986 . S
O242 C249 1.262 . S
O243 Zn238 2.049 . S
O243 C251 1.260 . S
O244 Zn239 1.996 . S
O244 C251 1.257 . S
C245 O240 1.254 . S
C245 O241 1.269 . S
C246 O247 1.249 . S
C246 O248 1.270 . S
O247 Zn239 1.943 . S
O247 C246 1.249 . S
O248 Zn238 2.067 . S
O248 C246 1.270 . S
C249 O242 1.262 . S
C249 O250 1.232 . S
O250 C249 1.232 . S
C251 O243 1.260 . S
C251 O244 1.257 . S
Zn252 O255 2.031 1_455 S
Zn252 O257 2.049 . S
Zn252 O262 2.067 . S
Zn253 O254 1.962 . S
Zn253 O256 1.990 . S
Zn253 O258 1.996 . S
Zn253 O261 1.943 . S
O254 Zn253 1.962 . S
O254 C259 1.254 . S
O255 Zn252 2.031 1_655 S
O255 C259 1.269 . S
O256 Zn253 1.990 . S
O256 C263 1.263 . S
O257 Zn252 2.049 . S
O257 C265 1.260 . S
O258 Zn253 1.996 . S
O258 C265 1.257 1_655 S
C259 O254 1.254 . S
C259 O255 1.269 . S
C260 O261 1.249 . S
C260 O262 1.270 1_655 S
O261 Zn253 1.943 . S
O261 C260 1.249 . S
O262 Zn252 2.067 . S
O262 C260 1.270 1_455 S
C263 O256 1.263 . S
C263 O264 1.232 . S
O264 C263 1.232 . S
C265 O257 1.260 . S
C265 O258 1.257 1_455 S
Zn266 O269 2.031 . S
Zn266 O271 2.049 . S
Zn266 O276 2.067 . S
Zn267 O268 1.962 . S
Zn267 O270 1.986 . S
Zn267 O272 1.996 . S
Zn267 O275 1.943 . S
O268 Zn267 1.962 . S
O268 C273 1.254 . S
O269 Zn266 2.031 . S
O269 C273 1.269 . S
O270 Zn267 1.986 . S
O270 C277 1.262 . S
O271 Zn266 2.049 . S
O271 C279 1.260 . S
O272 Zn267 1.996 . S
O272 C279 1.257 . S
C273 O268 1.254 . S
C273 O269 1.269 . S
C274 O275 1.249 . S
C274 O276 1.270 . S
O275 Zn267 1.943 . S
O275 C274 1.249 . S
O276 Zn266 2.067 . S
O276 C274 1.270 . S
C277 O270 1.262 . S
C277 O278 1.232 . S
O278 C277 1.232 . S
C279 O271 1.260 . S
C279 O272 1.257 . S
Zn280 O283 2.031 . S
Zn280 O285 2.049 . S
Zn280 O290 2.067 . S
Zn281 O282 1.962 . S
Zn281 O284 1.990 . S
Zn281 O286 1.996 . S
Zn281 O289 1.943 . S
O282 Zn281 1.962 . S
O282 C287 1.254 . S
O283 Zn280 2.031 . S
O283 C287 1.269 . S
O284 Zn281 1.990 . S
O284 C291 1.263 . S
O285 Zn280 2.049 . S
O285 C293 1.260 . S
O286 Zn281 1.996 . S
O286 C293 1.257 . S
C287 O282 1.254 . S
C287 O283 1.269 . S
C288 O289 1.249 . S
C288 O290 1.270 . S
O289 Zn281 1.943 . S
O289 C288 1.249 . S
O290 Zn280 2.067 . S
O290 C288 1.270 . S
C291 O284 1.263 . S
C291 O292 1.232 . S
O292 C291 1.232 . S
C293 O285 1.260 . S
C293 O286 1.257 . S
Zn294 O297 2.031 . S
Zn294 O299 2.049 . S
Zn294 O304 2.067 . S
Zn295 O296 1.962 . S
Zn295 O298 1.986 . S
Zn295 O300 1.996 . S
Zn295 O303 1.943 . S
O296 Zn295 1.962 . S
O296 C301 1.254 . S
O297 Zn294 2.031 . S
O297 C301 1.269 . S
O298 Zn295 1.986 . S
O298 C305 1.262 . S
O299 Zn294 2.049 . S
O299 C307 1.260 . S
O300 Zn295 1.996 . S
O300 C307 1.257 . S
C301 O296 1.254 . S
C301 O297 1.269 . S
C302 O303 1.249 . S
C302 O304 1.270 . S
O303 Zn295 1.943 . S
O303 C302 1.249 . S
O304 Zn294 2.067 . S
O304 C302 1.270 . S
C305 O298 1.262 . S
C305 O306 1.232 . S
O306 C305 1.232 . S
C307 O299 1.260 . S
C307 O300 1.257 . S
Zn308 O311 2.031 1_455 S
Zn308 O313 2.049 . S
Zn308 O318 2.067 . S
Zn309 O310 1.962 . S
Zn309 O312 1.986 . S
Zn309 O314 1.996 . S
Zn309 O317 1.943 . S
O310 Zn309 1.962 . S
O310 C315 1.254 . S
O311 Zn308 2.031 1_655 S
O311 C315 1.269 . S
O312 Zn309 1.986 . S
O312 C319 1.262 . S
O313 Zn308 2.049 . S
O313 C321 1.260 . S
O314 Zn309 1.996 . S
O314 C321 1.257 1_655 S
C315 O310 1.254 . S
C315 O311 1.269 . S
C316 O317 1.249 . S
C316 O318 1.270 1_655 S
O317 Zn309 1.943 . S
O317 C316 1.249 . S
O318 Zn308 2.067 . S
O318 C316 1.270 1_455 S
C319 O312 1.262 . S
C319 O320 1.232 . S
O320 C319 1.232 . S
C321 O313 1.260 . S
C321 O314 1.257 1_455 S
Zn322 O325 2.031 . S
Zn322 O327 2.049 . S
Zn322 O332 2.067 . S
Zn323 O324 1.962 . S
Zn323 O326 1.986 . S
Zn323 O328 1.996 . S
Zn323 O331 1.943 . S
O324 Zn323 1.962 . S
O324 C329 1.254 . S
O325 Zn322 2.031 . S
O325 C329 1.269 . S
O326 Zn323 1.986 . S
O326 C333 1.262 . S
O327 Zn322 2.049 . S
O327 C335 1.260 . S
O328 Zn323 1.996 . S
O328 C335 1.257 . S
C329 O324 1.254 . S
C329 O325 1.269 . S
C330 O331 1.249 . S
C330 O332 1.270 . S
O331 Zn323 1.943 . S
O331 C330 1.249 . S
O332 Zn322 2.067 . S
O332 C330 1.270 . S
C333 O326 1.262 . S
C333 O334 1.232 . S
O334 C333 1.232 . S
C335 O327 1.260 . S
C335 O328 1.257 . S
Zn336 O339 2.031 . S
Zn336 O341 2.049 . S
Zn336 O346 2.067 . S
Zn337 O338 1.962 . S
Zn337 O340 1.986 . S
Zn337 O342 1.996 . S
Zn337 O345 1.943 . S
O338 Zn337 1.962 . S
O338 C343 1.254 . S
O339 Zn336 2.031 . S
O339 C343 1.269 . S
O340 Zn337 1.986 . S
O340 C347 1.262 . S
O341 Zn336 2.049 . S
O341 C349 1.260 . S
O342 Zn337 1.996 . S
O342 C349 1.257 . S
C343 O338 1.254 . S
C343 O339 1.269 . S
C344 O345 1.249 . S
C344 O346 1.270 . S
O345 Zn337 1.943 . S
O345 C344 1.249 . S
O346 Zn336 2.067 . S
O346 C344 1.270 . S
C347 O340 1.262 . S
C347 O348 1.232 . S
O348 C347 1.232 . S
C349 O341 1.260 . S
C349 O342 1.257 . S
Zn350 O353 2.031 . S
Zn350 O355 2.049 . S
Zn350 O360 2.067 . S
Zn351 O352 1.962 . S
Zn351 O354 1.986 . S
Zn351 O356 1.996 . S
Zn351 O359 1.943 . S
O352 Zn351 1.962 . S
O352 C357 1.254 . S
O353 Zn350 2.031 . S
O353 C357 1.269 . S
O354 Zn351 1.986 . S
O354 C361 1.262 . S
O355 Zn350 2.049 . S
O355 C363 1.260 . S
O356 Zn351 1.996 . S
O356 C363 1.257 . S
C357 O352 1.254 . S
C357 O353 1.269 . S
C358 O359 1.249 . S
C358 O360 1.270 . S
O359 Zn351 1.943 . S
O359 C358 1.249 . S
O360 Zn350 2.067 . S
O360 C358 1.270 . S
C361 O354 1.262 . S
C361 O362 1.232 . S
O362 C361 1.232 . S
C363 O355 1.260 . S
C363 O356 1.257 . S
Zn364 O367 2.031 1_655 S
Zn364 O369 2.049 . S
Zn364 O374 2.067 . S
Zn365 O366 1.962 . S
Zn365 O368 1.990 . S
Zn365 O370 1.996 . S
Zn365 O373 1.943 . S
O366 Zn365 1.962 . S
O366 C371 1.254 . S
O367 Zn364 2.031 1_455 S
O367 C371 1.269 . S
O368 Zn365 1.990 . S
O368 C375 1.263 . S
O369 Zn364 2.049 . S
O369 C377 1.260 . S
O370 Zn365 1.996 . S
O370 C377 1.257 1_455 S
C371 O366 1.254 . S
C371 O367 1.269 . S
C372 O373 1.249 . S
C372 O374 1.270 1_455 S
O373 Zn365 1.943 . S
O373 C372 1.249 . S
O374 Zn364 2.067 . S
O374 C372 1.270 1_655 S
C375 O368 1.263 . S
C375 O376 1.232 . S
O376 C375 1.232 . S
C377 O369 1.260 . S
C377 O370 1.257 1_655 S
Zn378 O381 2.031 . S
Zn378 O383 2.049 . S
Zn378 O388 2.067 . S
Zn379 O380 1.962 . S
Zn379 O382 1.986 . S
Zn379 O384 1.996 . S
Zn379 O387 1.943 . S
O380 Zn379 1.962 . S
O380 C385 1.254 . S
O381 Zn378 2.031 . S
O381 C385 1.269 . S
O382 Zn379 1.986 . S
O382 C389 1.262 . S
O383 Zn378 2.049 . S
O383 C391 1.260 . S
O384 Zn379 1.996 . S
O384 C391 1.257 . S
C385 O380 1.254 . S
C385 O381 1.269 . S
C386 O387 1.249 . S
C386 O388 1.270 . S
O387 Zn379 1.943 . S
O387 C386 1.249 . S
O388 Zn378 2.067 . S
O388 C386 1.270 . S
C389 O382 1.262 . S
C389 O390 1.232 . S
O390 C389 1.232 . S
C391 O383 1.260 . S
C391 O384 1.257 . S
Zn392 O395 2.031 . S
Zn392 O397 2.049 . S
Zn392 O402 2.067 . S
Zn393 O394 1.962 . S
Zn393 O396 1.990 . S
Zn393 O398 1.996 . S
Zn393 O401 1.943 . S
O394 Zn393 1.962 . S
O394 C399 1.254 . S
O395 Zn392 2.031 . S
O395 C399 1.269 . S
O396 Zn393 1.990 . S
O396 C403 1.263 . S
O397 Zn392 2.049 . S
O397 C405 1.260 . S
O398 Zn393 1.996 . S
O398 C405 1.257 . S
C399 O394 1.254 . S
C399 O395 1.269 . S
C400 O401 1.249 . S
C400 O402 1.270 . S
O401 Zn393 1.943 . S
O401 C400 1.249 . S
O402 Zn392 2.067 . S
O402 C400 1.270 . S
C403 O396 1.263 . S
C403 O404 1.232 . S
O404 C403 1.232 . S
C405 O397 1.260 . S
C405 O398 1.257 . S
Zn406 O409 2.031 . S
Zn406 O411 2.049 . S
Zn406 O416 2.067 . S
Zn407 O408 1.962 . S
Zn407 O410 1.986 . S
Zn407 O412 1.996 . S
Zn407 O415 1.943 . S
O408 Zn407 1.962 . S
O408 C413 1.254 . S
O409 Zn406 2.031 . S
O409 C413 1.269 . S
O410 Zn407 1.986 . S
O410 C417 1.262 . S
O411 Zn406 2.049 . S
O411 C419 1.260 . S
O412 Zn407 1.996 . S
O412 C419 1.257 . S
C413 O408 1.254 . S
C413 O409 1.269 . S
C414 O415 1.249 . S
C414 O416 1.270 . S
O415 Zn407 1.943 . S
O415 C414 1.249 . S
O416 Zn406 2.067 . S
O416 C414 1.270 . S
C417 O410 1.262 . S
C417 O418 1.232 . S
O418 C417 1.232 . S
C419 O411 1.260 . S
C419 O412 1.257 . S
Zn420 O423 2.031 1_655 S
Zn420 O425 2.049 . S
Zn420 O430 2.067 . S
Zn421 O422 1.962 . S
Zn421 O424 1.986 . S
Zn421 O426 1.996 . S
Zn421 O429 1.943 . S
O422 Zn421 1.962 . S
O422 C427 1.254 . S
O423 Zn420 2.031 1_455 S
O423 C427 1.269 . S
O424 Zn421 1.986 . S
O424 C431 1.262 . S
O425 Zn420 2.049 . S
O425 C433 1.260 . S
O426 Zn421 1.996 . S
O426 C433 1.257 1_455 S
C427 O422 1.254 . S
C427 O423 1.269 . S
C428 O429 1.249 . S
C428 O430 1.270 1_455 S
O429 Zn421 1.943 . S
O429 C428 1.249 . S
O430 Zn420 2.067 . S
O430 C428 1.270 1_655 S
C431 O424 1.262 . S
C431 O432 1.232 . S
O432 C431 1.232 . S
C433 O425 1.260 . S
C433 O426 1.257 1_655 S
Zn434 O437 2.031 . S
Zn434 O439 2.049 . S
Zn434 O444 2.067 . S
Zn435 O436 1.962 . S
Zn435 O438 1.986 . S
Zn435 O440 1.996 . S
Zn435 O443 1.943 . S
O436 Zn435 1.962 . S
O436 C441 1.254 . S
O437 Zn434 2.031 . S
O437 C441 1.269 . S
O438 Zn435 1.986 . S
O438 C445 1.262 . S
O439 Zn434 2.049 . S
O439 C447 1.260 . S
O440 Zn435 1.996 . S
O440 C447 1.257 . S
C441 O436 1.254 . S
C441 O437 1.269 . S
C442 O443 1.249 . S
C442 O444 1.270 . S
O443 Zn435 1.943 . S
O443 C442 1.249 . S
O444 Zn434 2.067 . S
O444 C442 1.270 . S
C445 O438 1.262 . S
C445 O446 1.232 . S
O446 C445 1.232 . S
C447 O439 1.260 . S
C447 O440 1.257 . S
C125 C13 1.689 1_456 S
C363 C27 1.688 . S
C153 C41 1.688 . S
C391 C55 1.688 . S
C181 C69 1.688 1_455 S
C83 C419 1.688 . S
C97 C209 1.688 1_556 S
C111 C447 1.688 . S
C251 C139 1.688 . S
C279 C167 1.688 . S
C195 C307 1.688 . S
C223 C335 1.688 . S
C237 C349 1.688 1_565 S
C377 C265 1.688 1_666 S
C293 C405 1.688 1_546 S
C433 C321 1.688 1_645 S
C260 C8 1.333 1_655 S
C274 C22 1.333 1_455 S
C36 C232 1.333 . S
C50 C246 1.333 . S
C316 C64 1.333 1_655 S
C78 C330 1.333 . S
C288 C92 1.333 . S
C302 C106 1.333 1_455 S
C120 C372 1.333 1_655 S
C386 C134 1.333 1_655 S
C148 C344 1.333 . S
C162 C358 1.333 . S
C176 C428 1.333 1_655 S
C190 C442 1.333 . S
C400 C204 1.333 . S
C414 C218 1.333 1_655 S
C95 C11 1.277 1_556 S
C109 C25 1.277 1_545 S
C67 C39 1.277 . S
C53 C81 1.277 1_545 S
C207 C123 1.277 1_554 S
C221 C137 1.277 1_565 S
C179 C151 1.277 . S
C193 C165 1.277 1_545 S
C319 C235 1.277 . S
C333 C249 1.277 . S
C263 C291 1.277 1_554 S
C277 C305 1.277 . S
C431 C347 1.277 . S
C445 C361 1.277 . S
C375 C403 1.277 1_556 S
C389 C417 1.277 . S
C7 C301 1.618 . S
C315 C21 1.618 . S
C329 C35 1.618 . S
C49 C287 1.618 . S
C273 C63 1.618 . S
C77 C231 1.618 . S
C245 C91 1.618 . S
C105 C259 1.618 . S
C413 C119 1.618 . S
C427 C133 1.618 . S
C147 C441 1.618 . S
C399 C161 1.618 . S
C385 C175 1.618 . S
C189 C343 1.618 . S
C357 C203 1.618 . S
C217 C371 1.618 . S
