# Generated by pormake.
# Topology wfj, (8)-cn, num edge types: 1
# Building blocks:
#     Node 0, Type 0, BuildingBlock: TAGTUT_clean_sbu_3, # of connection points: 8
#     Node 1, Type 0, BuildingBlock: TAGTUT_clean_sbu_3, # of connection points: 8
#     Node 2, Type 0, BuildingBlock: TAGTUT_clean_sbu_3, # of connection points: 8
#     Node 3, Type 0, BuildingBlock: TAGTUT_clean_sbu_3, # of connection points: 8
#     Node 4, Type 0, BuildingBlock: TAGTUT_clean_sbu_3, # of connection points: 8
#     Node 5, Type 0, BuildingBlock: TAGTUT_clean_sbu_3, # of connection points: 8
#     Node 6, Type 0, BuildingBlock: TAGTUT_clean_sbu_3, # of connection points: 8
#     Node 7, Type 0, BuildingBlock: TAGTUT_clean_sbu_3, # of connection points: 8
#     Node 8, Type 0, BuildingBlock: TAGTUT_clean_sbu_3, # of connection points: 8
#     Node 9, Type 0, BuildingBlock: TAGTUT_clean_sbu_3, # of connection points: 8
#     Node 10, Type 0, BuildingBlock: TAGTUT_clean_sbu_3, # of connection points: 8
#     Node 11, Type 0, BuildingBlock: TAGTUT_clean_sbu_3, # of connection points: 8
#     Node 12, Type 0, BuildingBlock: TAGTUT_clean_sbu_3, # of connection points: 8
#     Node 13, Type 0, BuildingBlock: TAGTUT_clean_sbu_3, # of connection points: 8
#     Node 14, Type 0, BuildingBlock: TAGTUT_clean_sbu_3, # of connection points: 8
#     Node 15, Type 0, BuildingBlock: TAGTUT_clean_sbu_3, # of connection points: 8
#     Edge 16, Type (0, 0), BuildingBlock: OJICUG_clean_linker_0, # of connection points: 2
#     Edge 17, Type (0, 0), BuildingBlock: OJICUG_clean_linker_0, # of connection points: 2
#     Edge 18, Type (0, 0), BuildingBlock: OJICUG_clean_linker_0, # of connection points: 2
#     Edge 19, Type (0, 0), BuildingBlock: OJICUG_clean_linker_0, # of connection points: 2
#     Edge 20, Type (0, 0), BuildingBlock: OJICUG_clean_linker_0, # of connection points: 2
#     Edge 21, Type (0, 0), BuildingBlock: OJICUG_clean_linker_0, # of connection points: 2
#     Edge 22, Type (0, 0), BuildingBlock: OJICUG_clean_linker_0, # of connection points: 2
#     Edge 23, Type (0, 0), BuildingBlock: OJICUG_clean_linker_0, # of connection points: 2
#     Edge 24, Type (0, 0), BuildingBlock: OJICUG_clean_linker_0, # of connection points: 2
#     Edge 25, Type (0, 0), BuildingBlock: OJICUG_clean_linker_0, # of connection points: 2
#     Edge 26, Type (0, 0), BuildingBlock: OJICUG_clean_linker_0, # of connection points: 2
#     Edge 27, Type (0, 0), BuildingBlock: OJICUG_clean_linker_0, # of connection points: 2
#     Edge 28, Type (0, 0), BuildingBlock: OJICUG_clean_linker_0, # of connection points: 2
#     Edge 29, Type (0, 0), BuildingBlock: OJICUG_clean_linker_0, # of connection points: 2
#     Edge 30, Type (0, 0), BuildingBlock: OJICUG_clean_linker_0, # of connection points: 2
#     Edge 31, Type (0, 0), BuildingBlock: OJICUG_clean_linker_0, # of connection points: 2
#     Edge 32, Type (0, 0), BuildingBlock: OJICUG_clean_linker_0, # of connection points: 2
#     Edge 33, Type (0, 0), BuildingBlock: OJICUG_clean_linker_0, # of connection points: 2
#     Edge 34, Type (0, 0), BuildingBlock: OJICUG_clean_linker_0, # of connection points: 2
#     Edge 35, Type (0, 0), BuildingBlock: OJICUG_clean_linker_0, # of connection points: 2
#     Edge 36, Type (0, 0), BuildingBlock: OJICUG_clean_linker_0, # of connection points: 2
#     Edge 37, Type (0, 0), BuildingBlock: OJICUG_clean_linker_0, # of connection points: 2
#     Edge 38, Type (0, 0), BuildingBlock: OJICUG_clean_linker_0, # of connection points: 2
#     Edge 39, Type (0, 0), BuildingBlock: OJICUG_clean_linker_0, # of connection points: 2
#     Edge 40, Type (0, 0), BuildingBlock: OJICUG_clean_linker_0, # of connection points: 2
#     Edge 41, Type (0, 0), BuildingBlock: OJICUG_clean_linker_0, # of connection points: 2
#     Edge 42, Type (0, 0), BuildingBlock: OJICUG_clean_linker_0, # of connection points: 2
#     Edge 43, Type (0, 0), BuildingBlock: OJICUG_clean_linker_0, # of connection points: 2
#     Edge 44, Type (0, 0), BuildingBlock: OJICUG_clean_linker_0, # of connection points: 2
#     Edge 45, Type (0, 0), BuildingBlock: OJICUG_clean_linker_0, # of connection points: 2
#     Edge 46, Type (0, 0), BuildingBlock: OJICUG_clean_linker_0, # of connection points: 2
#     Edge 47, Type (0, 0), BuildingBlock: OJICUG_clean_linker_0, # of connection points: 2
#     Edge 48, Type (0, 0), BuildingBlock: OJICUG_clean_linker_0, # of connection points: 2
#     Edge 49, Type (0, 0), BuildingBlock: OJICUG_clean_linker_0, # of connection points: 2
#     Edge 50, Type (0, 0), BuildingBlock: OJICUG_clean_linker_0, # of connection points: 2
#     Edge 51, Type (0, 0), BuildingBlock: OJICUG_clean_linker_0, # of connection points: 2
#     Edge 52, Type (0, 0), BuildingBlock: OJICUG_clean_linker_0, # of connection points: 2
#     Edge 53, Type (0, 0), BuildingBlock: OJICUG_clean_linker_0, # of connection points: 2
#     Edge 54, Type (0, 0), BuildingBlock: OJICUG_clean_linker_0, # of connection points: 2
#     Edge 55, Type (0, 0), BuildingBlock: OJICUG_clean_linker_0, # of connection points: 2
#     Edge 56, Type (0, 0), BuildingBlock: OJICUG_clean_linker_0, # of connection points: 2
#     Edge 57, Type (0, 0), BuildingBlock: OJICUG_clean_linker_0, # of connection points: 2
#     Edge 58, Type (0, 0), BuildingBlock: OJICUG_clean_linker_0, # of connection points: 2
#     Edge 59, Type (0, 0), BuildingBlock: OJICUG_clean_linker_0, # of connection points: 2
#     Edge 60, Type (0, 0), BuildingBlock: OJICUG_clean_linker_0, # of connection points: 2
#     Edge 61, Type (0, 0), BuildingBlock: OJICUG_clean_linker_0, # of connection points: 2
#     Edge 62, Type (0, 0), BuildingBlock: OJICUG_clean_linker_0, # of connection points: 2
#     Edge 63, Type (0, 0), BuildingBlock: OJICUG_clean_linker_0, # of connection points: 2
#     Edge 64, Type (0, 0), BuildingBlock: OJICUG_clean_linker_0, # of connection points: 2
#     Edge 65, Type (0, 0), BuildingBlock: OJICUG_clean_linker_0, # of connection points: 2
#     Edge 66, Type (0, 0), BuildingBlock: OJICUG_clean_linker_0, # of connection points: 2
#     Edge 67, Type (0, 0), BuildingBlock: OJICUG_clean_linker_0, # of connection points: 2
#     Edge 68, Type (0, 0), BuildingBlock: OJICUG_clean_linker_0, # of connection points: 2
#     Edge 69, Type (0, 0), BuildingBlock: OJICUG_clean_linker_0, # of connection points: 2
#     Edge 70, Type (0, 0), BuildingBlock: OJICUG_clean_linker_0, # of connection points: 2
#     Edge 71, Type (0, 0), BuildingBlock: OJICUG_clean_linker_0, # of connection points: 2
#     Edge 72, Type (0, 0), BuildingBlock: OJICUG_clean_linker_0, # of connection points: 2
#     Edge 73, Type (0, 0), BuildingBlock: OJICUG_clean_linker_0, # of connection points: 2
#     Edge 74, Type (0, 0), BuildingBlock: OJICUG_clean_linker_0, # of connection points: 2
#     Edge 75, Type (0, 0), BuildingBlock: OJICUG_clean_linker_0, # of connection points: 2
#     Edge 76, Type (0, 0), BuildingBlock: OJICUG_clean_linker_0, # of connection points: 2
#     Edge 77, Type (0, 0), BuildingBlock: OJICUG_clean_linker_0, # of connection points: 2
#     Edge 78, Type (0, 0), BuildingBlock: OJICUG_clean_linker_0, # of connection points: 2
#     Edge 79, Type (0, 0), BuildingBlock: OJICUG_clean_linker_0, # of connection points: 2
# Relax obj value: 0.294
# Max RMSD: 0.264
# Mean RMSD: 0.259
data_MOF--net-wfj--node1-TAGTUT_clean_sbu_3--edge1-OJICUG_clean_linker_0
_symmetry_space_group_name_H-M    P1
_symmetry_Int_Tables_number       1
_symmetry_cell_setting            triclinic
loop_
_symmetry_equiv_pos_as_xyz
'x, y, z'
_cell_length_a     48.92327
_cell_length_b     48.923344
_cell_length_c     11.89987
_cell_angle_alpha  90.488949
_cell_angle_beta   89.969717
_cell_angle_gamma 90.159269
loop_
_atom_site_label
_atom_site_type_symbol
_atom_site_fract_x
_atom_site_fract_y
_atom_site_fract_z
_atom_type_partial_charge
C0 C 0.15559 0.32494 0.31541 0.0
C1 C 0.23592 0.29072 0.49117 0.0
C2 C 0.19391 0.26384 0.7369 0.0
Mg3 Mg 0.11045 0.35756 0.45595 0.0
Mg4 Mg 0.12326 0.3912 0.69156 0.0
O5 O 0.12713 0.35927 0.6085 0.0
Mg6 Mg 0.16161 0.33924 0.58266 0.0
O7 O 0.19378 0.31451 0.545 0.0
Mg8 Mg 0.17165 0.2767 0.49015 0.0
Mg9 Mg 0.21708 0.31342 0.68039 0.0
C10 C 0.15888 0.35617 0.85326 0.0
O11 O 0.19085 0.37635 0.59689 0.0
O12 O 0.06932 0.36925 0.54243 0.0
O13 O 0.21785 0.35581 0.72361 0.0
O14 O 0.12382 0.40405 0.41983 0.0
O15 O 0.07992 0.38767 0.71046 0.0
O16 O 0.13774 0.42219 0.58327 0.0
O17 O 0.13853 0.30133 0.57865 0.0
O18 O 0.09908 0.31175 0.49832 0.0
C19 C 0.11444 0.29495 0.55084 0.0
C20 C 0.06254 0.37758 0.64131 0.0
O21 O 0.16466 0.33842 0.77629 0.0
O22 O 0.21179 0.30119 0.49618 0.0
O23 O 0.14677 0.37879 0.83332 0.0
O24 O 0.18467 0.25237 0.64835 0.0
O25 O 0.25061 0.29446 0.57848 0.0
O26 O 0.18686 0.28816 0.75539 0.0
O27 O 0.15341 0.34291 0.39365 0.0
O28 O 0.16085 0.29997 0.3359 0.0
C29 C 0.13497 0.42361 0.47703 0.0
C30 C 0.20974 0.37715 0.67213 0.0
C31 C 0.37889 0.45304 0.82678 0.0
C32 C 0.31313 0.3808 0.74323 0.0
C33 C 0.38113 0.32149 0.85524 0.0
Mg34 Mg 0.43959 0.46326 0.81614 0.0
Mg35 Mg 0.47208 0.42058 0.60311 0.0
O36 O 0.45388 0.4235 0.75452 0.0
Mg37 Mg 0.41695 0.40365 0.74335 0.0
O38 O 0.37986 0.38786 0.73879 0.0
Mg39 Mg 0.36924 0.3899 0.90013 0.0
Mg40 Mg 0.36822 0.35819 0.65139 0.0
C41 C 0.46233 0.36472 0.6661 0.0
O42 O 0.41364 0.40521 0.54935 0.0
O43 O 0.47575 0.43533 0.78533 0.0
O44 O 0.38818 0.36891 0.49497 0.0
O45 O 0.45064 0.48338 0.63939 0.0
O46 O 0.50928 0.44113 0.66901 0.0
O47 O 0.44562 0.44848 0.52312 0.0
O48 O 0.41505 0.40014 0.93336 0.0
O49 O 0.43083 0.44141 0.98529 0.0
C50 C 0.42161 0.41754 0.00945 0.0
C51 C 0.49828 0.44775 0.76256 0.0
O52 O 0.44118 0.3631 0.72913 0.0
O53 O 0.32419 0.38538 0.83957 0.0
O54 O 0.46001 0.37839 0.57649 0.0
O55 O 0.37668 0.34241 0.91864 0.0
O56 O 0.32615 0.36973 0.6615 0.0
O57 O 0.37977 0.32306 0.74823 0.0
O58 O 0.39849 0.44484 0.76414 0.0
O59 O 0.36413 0.43613 0.88154 0.0
C60 C 0.45113 0.47344 0.53903 0.0
C61 C 0.40314 0.38975 0.47281 0.0
C62 C 0.29757 0.6077 0.07758 0.0
C63 C 0.38657 0.56564 0.97344 0.0
C64 C 0.42855 0.63826 0.10851 0.0
Mg65 Mg 0.27466 0.66046 0.0523 0.0
Mg66 Mg 0.29732 0.70478 0.88297 0.0
O67 O 0.30437 0.68782 0.01954 0.0
Mg68 Mg 0.33513 0.66061 0.00105 0.0
O69 O 0.36233 0.6306 -0.00698 0.0
Mg70 Mg 0.36189 0.61429 0.14853 0.0
Mg71 Mg 0.39308 0.62642 0.90197 0.0
C72 C 0.35605 0.72383 0.956 0.0
O73 O 0.33711 0.66162 0.80435 0.0
O74 O 0.24631 0.6956 0.07339 0.0
O75 O 0.3778 0.64453 0.74902 0.0
O76 O 0.25599 0.65871 0.8736 0.0
O77 O 0.25798 0.72203 0.92635 0.0
O78 O 0.28847 0.6736 0.76297 0.0
O79 O 0.33967 0.65627 0.19008 0.0
O80 O 0.29549 0.66287 0.23368 0.0
C81 C 0.32071 0.65951 0.26282 0.0
C82 C 0.24129 0.71479 0.00382 0.0
O83 O 0.36165 0.70062 0.00226 0.0
O84 O 0.37713 0.57308 0.06988 0.0
O85 O 0.33549 0.72707 0.89002 0.0
O86 O 0.40837 0.62945 0.16821 0.0
O87 O 0.39365 0.58285 0.89855 0.0
O88 O 0.42648 0.64102 0.00214 0.0
O89 O 0.30268 0.62682 0.00922 0.0
O90 O 0.31689 0.59815 0.13752 0.0
C91 C 0.26485 0.66342 0.77484 0.0
C92 C 0.35467 0.65559 0.72736 0.0
C93 C 0.08778 0.58749 0.06939 0.0
C94 C 0.05644 0.50683 0.253 0.0
C95 C 0.02696 0.54811 0.49246 0.0
Mg96 Mg 0.11649 0.63696 0.20226 0.0
Mg97 Mg 0.14801 0.63454 0.44617 0.0
O98 O 0.12106 0.62019 0.35267 0.0
Mg99 Mg 0.10201 0.58398 0.33527 0.0
O100 O 0.07797 0.55028 0.30668 0.0
Mg101 Mg 0.03984 0.57042 0.24726 0.0
Mg102 Mg 0.07885 0.52598 0.44196 0.0
C103 C 0.1185 0.5925 0.60654 0.0
O104 O 0.13864 0.55283 0.33366 0.0
O105 O 0.12173 0.68141 0.2788 0.0
O106 O 0.12127 0.53262 0.48379 0.0
O107 O 0.16537 0.62849 0.17554 0.0
O108 O 0.13398 0.67647 0.45834 0.0
O109 O 0.18395 0.62669 0.34749 0.0
O110 O 0.06235 0.60552 0.33511 0.0
O111 O 0.06948 0.64403 0.24335 0.0
C112 C 0.05395 0.62843 0.30153 0.0
C113 C 0.12434 0.69107 0.37917 0.0
O114 O 0.1026 0.58259 0.52983 0.0
O115 O 0.0655 0.53154 0.26135 0.0
O116 O 0.13784 0.60955 0.58695 0.0
O117 O 0.01558 0.55798 0.40571 0.0
O118 O 0.06163 0.49166 0.33694 0.0
O119 O 0.05134 0.55489 0.51242 0.0
O120 O 0.10528 0.59188 0.14698 0.0
O121 O 0.06321 0.58057 0.09085 0.0
C122 C 0.18625 0.62471 0.24067 0.0
C123 C 0.13901 0.5333 0.40572 0.0
C124 C 0.89223 0.71055 0.51039 0.0
C125 C 0.93895 0.62689 0.41631 0.0
C126 C 0.86744 0.58251 0.58241 0.0
Mg127 Mg 0.83803 0.73162 0.56935 0.0
Mg128 Mg 0.77988 0.70923 0.48043 0.0
O129 O 0.81107 0.69924 0.5545 0.0
Mg130 Mg 0.83824 0.67054 0.49486 0.0
O131 O 0.8707 0.64653 0.46095 0.0
Mg132 Mg 0.89169 0.64844 0.60678 0.0
Mg133 Mg 0.87683 0.61656 0.36809 0.0
C134 C 0.77387 0.6443 0.48269 0.0
O135 O 0.83221 0.67155 0.29923 0.0
O136 O 0.80669 0.75533 0.66489 0.0
O137 O 0.85161 0.63216 0.23547 0.0
O138 O 0.82362 0.75363 0.40627 0.0
O139 O 0.76589 0.74019 0.60716 0.0
O140 O 0.80249 0.71868 0.33325 0.0
O141 O 0.85026 0.66578 0.68073 0.0
O142 O 0.8485 0.70985 0.73192 0.0
C143 C 0.8502 0.68452 0.75676 0.0
C144 C 0.78074 0.75542 0.67164 0.0
O145 O 0.79984 0.6389 0.49346 0.0
O146 O 0.93189 0.63464 0.51554 0.0
O147 O 0.76438 0.66861 0.4762 0.0
O148 O 0.87726 0.60275 0.63977 0.0
O149 O 0.92107 0.61954 0.34337 0.0
O150 O 0.86476 0.58369 0.47566 0.0
O151 O 0.86798 0.70523 0.4816 0.0
O152 O 0.9062 0.69324 0.56566 0.0
C153 C 0.80867 0.74361 0.32815 0.0
C154 C 0.83832 0.65442 0.21961 0.0
C155 C 0.54147 0.62717 0.22894 0.0
C156 C 0.6235 0.68424 0.15983 0.0
C157 C 0.67322 0.61552 0.30575 0.0
Mg158 Mg 0.52562 0.5672 0.26323 0.0
Mg159 Mg 0.56484 0.52682 0.06851 0.0
O160 O 0.56415 0.5475 0.21199 0.0
Mg161 Mg 0.588 0.58117 0.1856 0.0
O162 O 0.60787 0.61678 0.17095 0.0
Mg163 Mg 0.60442 0.63222 0.32601 0.0
Mg164 Mg 0.63946 0.62504 0.08995 0.0
C165 C 0.62775 0.53155 0.11122 0.0
O166 O 0.58961 0.57949 -0.0106 0.0
O167 O 0.54955 0.52779 0.24998 0.0
O168 O 0.62775 0.60284 0.93968 0.0
O169 O 0.50468 0.554 0.09122 0.0
O170 O 0.54156 0.49268 0.14273 0.0
O171 O 0.54045 0.55583 0.98131 0.0
O172 O 0.5904 0.58815 0.37497 0.0
O173 O 0.54814 0.57655 0.42973 0.0
C174 C 0.57277 0.58377 0.45206 0.0
C175 C 0.53642 0.50525 0.23458 0.0
O176 O 0.62546 0.55181 0.18043 0.0
O177 O 0.61501 0.67481 0.25398 0.0
O178 O 0.60827 0.52388 0.04629 0.0
O179 O 0.65155 0.62217 0.3614 0.0
O180 O 0.63367 0.66874 0.08344 0.0
O181 O 0.67291 0.61392 0.19843 0.0
O182 O 0.54835 0.60386 0.18988 0.0
O183 O 0.55859 0.64202 0.2835 0.0
C184 C 0.51546 0.55012 -0.00599 0.0
C185 C 0.60668 0.58826 0.91502 0.0
C186 C 0.60782 0.3045 0.92157 0.0
C187 C 0.5682 0.39107 0.85169 0.0
C188 C 0.64493 0.42888 0.00722 0.0
Mg189 Mg 0.66172 0.28023 0.94701 0.0
Mg190 Mg 0.71875 0.30342 0.84957 0.0
O191 O 0.68956 0.31088 0.9416 0.0
Mg192 Mg 0.66277 0.34108 0.90028 0.0
O193 O 0.63218 0.36674 0.87762 0.0
Mg194 Mg 0.61392 0.36556 0.0292 0.0
Mg195 Mg 0.63013 0.3977 0.7904 0.0
C196 C 0.72533 0.36647 0.91371 0.0
O197 O 0.66757 0.34117 0.70439 0.0
O198 O 0.69314 0.2525 0.01258 0.0
O199 O 0.6503 0.38114 0.64346 0.0
O200 O 0.67422 0.26266 0.76807 0.0
O201 O 0.73231 0.26575 0.93166 0.0
O202 O 0.69698 0.29745 0.69923 0.0
O203 O 0.65364 0.34388 0.08612 0.0
O204 O 0.65477 0.29939 0.12719 0.0
C205 C 0.6535 0.32466 0.1581 0.0
C206 C 0.71849 0.24929 -0.00647 0.0
O207 O 0.69949 0.3715 0.92066 0.0
O208 O 0.57435 0.38268 0.95019 0.0
O209 O 0.73523 0.34319 0.88453 0.0
O210 O 0.63281 0.40996 0.06364 0.0
O211 O 0.58639 0.39828 0.78039 0.0
O212 O 0.64722 0.42753 0.90039 0.0
O213 O 0.63115 0.30931 0.88095 0.0
O214 O 0.59648 0.32165 -0.01146 0.0
C215 C 0.68793 0.27339 0.68767 0.0
C216 C 0.66155 0.35787 0.62503 0.0
C217 C 0.92961 0.41079 0.05143 0.0
C218 C 0.98149 0.48581 0.88613 0.0
C219 C 0.99509 0.44106 0.62562 0.0
Mg220 Mg 0.8931 0.36963 0.89706 0.0
Mg221 Mg 0.86268 0.38665 0.66091 0.0
O222 O 0.89257 0.39051 0.7534 0.0
Mg223 Mg 0.91654 0.42257 0.78717 0.0
O224 O 0.94633 0.45056 0.83528 0.0
Mg225 Mg 0.97984 0.42145 0.87624 0.0
Mg226 Mg 0.95216 0.47386 0.70397 0.0
C227 C 0.8999 0.42392 0.51322 0.0
O228 O 0.88407 0.45798 0.78386 0.0
O229 O 0.87871 0.32949 0.80242 0.0
O230 O 0.91076 0.48668 0.68364 0.0
O231 O 0.84761 0.38477 0.93044 0.0
O232 O 0.86478 0.3431 0.63271 0.0
O233 O 0.83089 0.39969 0.7668 0.0
O234 O 0.95048 0.39456 0.77987 0.0
O235 O 0.93701 0.35493 0.84884 0.0
C236 C 0.9545 0.36952 0.79678 0.0
C237 C 0.87154 0.32414 0.70069 0.0
O238 O 0.91752 0.42826 0.59222 0.0
O239 O 0.96481 0.46547 0.88798 0.0
O240 O 0.87687 0.41209 0.52901 0.0
O241 O 0.00493 0.43253 0.71796 0.0
O242 O 0.98061 0.50049 0.79826 0.0
O243 O 0.9695 0.44025 0.6136 0.0
O244 O 0.91138 0.41104 0.97386 0.0
O245 O 0.95509 0.41263 0.02975 0.0
C246 C 0.82859 0.39616 0.87232 0.0
C247 C 0.88783 0.48021 0.72787 0.0
C248 C 0.65952 0.83064 0.87154 0.0
C249 C 0.73798 0.8096 0.06969 0.0
C250 C 0.69944 0.77346 0.29714 0.0
Mg251 Mg 0.60967 0.86104 -0.01077 0.0
Mg252 Mg 0.6157 0.89543 0.23032 0.0
O253 O 0.62173 0.86348 0.14873 0.0
Mg254 Mg 0.65752 0.84533 0.13976 0.0
O255 O 0.69197 0.82278 0.12584 0.0
Mg256 Mg 0.67489 0.7839 0.05679 0.0
Mg257 Mg 0.71622 0.82868 0.26237 0.0
C258 C 0.64691 0.86053 0.4084 0.0
O259 O 0.68491 0.88439 0.1522 0.0
O260 O 0.56627 0.87126 0.05711 0.0
O261 O 0.70124 0.86854 0.31001 0.0
O262 O 0.62221 0.90745 0.9591 0.0
O263 O 0.57239 0.89101 0.22685 0.0
O264 O 0.63271 0.92636 0.1255 0.0
O265 O 0.63689 0.80604 0.12485 0.0
O266 O 0.59975 0.81485 0.02395 0.0
C267 C 0.61441 0.7985 0.08198 0.0
C268 C 0.55707 0.87991 0.15216 0.0
O269 O 0.6553 0.84378 0.33225 0.0
O270 O 0.71205 0.81086 0.08737 0.0
O271 O 0.63456 0.8829 0.38569 0.0
O272 O 0.68405 0.76166 0.22493 0.0
O273 O 0.75235 0.82037 0.14784 0.0
O274 O 0.69203 0.79658 0.33371 0.0
O275 O 0.65425 0.84795 0.94938 0.0
O276 O 0.66737 0.80638 0.89336 0.0
C277 C 0.63198 0.9273 0.01837 0.0
C278 C 0.70178 0.88652 0.23423 0.0
C279 C 0.87738 0.9514 0.34168 0.0
C280 C 0.81375 0.87465 0.25687 0.0
C281 C 0.8857 0.81977 0.36238 0.0
Mg282 Mg 0.93822 0.9629 0.32712 0.0
Mg283 Mg 0.97148 0.92051 0.1135 0.0
O284 O 0.95304 0.92341 0.2647 0.0
Mg285 Mg 0.9164 0.90307 0.25395 0.0
O286 O 0.87962 0.88661 0.24876 0.0
Mg287 Mg 0.87008 0.88737 0.41113 0.0
Mg288 Mg 0.86959 0.85607 0.16187 0.0
C289 C 0.96238 0.86478 0.1797 0.0
O290 O 0.91312 0.90469 0.05992 0.0
O291 O 0.97477 0.93545 0.29505 0.0
O292 O 0.88866 0.86775 0.00513 0.0
O293 O 0.94869 0.9831 0.15047 0.0
O294 O 0.00852 0.94115 0.17942 0.0
O295 O 0.94464 0.94816 0.03354 0.0
O296 O 0.91525 0.89938 0.44376 0.0
O297 O 0.93004 0.94097 0.49611 0.0
C298 C 0.92134 0.91691 0.52004 0.0
C299 C 0.99735 0.94784 0.27251 0.0
O300 O 0.94064 0.86265 0.23866 0.0
O301 O 0.82547 0.88057 0.35074 0.0
O302 O 0.96054 0.87802 0.08867 0.0
O303 O 0.88006 0.84014 0.4272 0.0
O304 O 0.82668 0.86407 0.17379 0.0
O305 O 0.88393 0.82165 0.25566 0.0
O306 O 0.89709 0.94399 0.27751 0.0
O307 O 0.86315 0.93377 0.39532 0.0
C308 C 0.94957 0.97324 0.05005 0.0
C309 C 0.90305 0.88899 0.9832 0.0
C310 C 0.79606 0.12046 0.59172 0.0
C311 C 0.88246 0.06415 0.4955 0.0
C312 C 0.92822 0.13461 0.64258 0.0
Mg313 Mg 0.7822 0.18027 0.59962 0.0
Mg314 Mg 0.82771 0.22318 0.42971 0.0
O315 O 0.82073 0.20021 0.56478 0.0
Mg316 Mg 0.84335 0.16544 0.53988 0.0
O317 O 0.86203 0.12982 0.51884 0.0
Mg318 Mg 0.86028 0.11439 0.67245 0.0
Mg319 Mg 0.89366 0.12488 0.43381 0.0
C320 C 0.88311 0.21627 0.49694 0.0
O321 O 0.8434 0.16759 0.34466 0.0
O322 O 0.80368 0.22124 0.59067 0.0
O323 O 0.88126 0.14576 0.28377 0.0
O324 O 0.76733 0.18831 0.41338 0.0
O325 O 0.80515 0.25841 0.49168 0.0
O326 O 0.80266 0.20402 0.31118 0.0
O327 O 0.84505 0.15843 0.72677 0.0
O328 O 0.80255 0.17172 0.77459 0.0
C329 C 0.8267 0.16337 0.80105 0.0
C330 C 0.79182 0.24335 0.55961 0.0
O331 O 0.88173 0.19438 0.55524 0.0
O332 O 0.87169 0.07179 0.58954 0.0
O333 O 0.87033 0.21659 0.40439 0.0
O334 O 0.90798 0.12515 0.70024 0.0
O335 O 0.89233 0.08129 0.42568 0.0
O336 O 0.92622 0.13866 0.53724 0.0
O337 O 0.80376 0.14212 0.54124 0.0
O338 O 0.81358 0.10561 0.64332 0.0
C339 C 0.77837 0.19489 0.31892 0.0
C340 C 0.85943 0.15943 0.26553 0.0
C341 C 0.58461 0.08521 0.56951 0.0
C342 C 0.55429 0.00535 0.76143 0.0
C343 C 0.52276 0.04725 -0.00653 0.0
Mg344 Mg 0.61242 0.1358 0.69653 0.0
Mg345 Mg 0.6444 0.13466 0.94007 0.0
O346 O 0.61688 0.12038 0.84972 0.0
Mg347 Mg 0.59823 0.08381 0.83669 0.0
O348 O 0.57476 0.04957 0.81151 0.0
Mg349 Mg 0.53651 0.06844 0.74674 0.0
Mg350 Mg 0.57545 0.02629 0.94968 0.0
C351 C 0.61442 0.09424 0.1065 0.0
O352 O 0.63539 0.0534 0.84351 0.0
O353 O 0.61855 0.18004 0.76526 0.0
O354 O 0.61739 0.03434 -0.00454 0.0
O355 O 0.66114 0.12887 0.66872 0.0
O356 O 0.63213 0.17715 0.94422 0.0
O357 O 0.67997 0.12633 0.84025 0.0
O358 O 0.5582 0.10458 0.83183 0.0
O359 O 0.56545 0.14295 0.73924 0.0
C360 C 0.54985 0.12747 0.79766 0.0
C361 C 0.62275 0.19097 0.86215 0.0
O362 O 0.59844 0.08396 0.03095 0.0
O363 O 0.56293 0.03024 0.76751 0.0
O364 O 0.63391 0.111 0.08482 0.0
O365 O 0.51179 0.0567 0.90505 0.0
O366 O 0.55936 0.99086 0.84753 0.0
O367 O 0.54684 0.05462 0.01616 0.0
O368 O 0.60175 0.09032 0.64765 0.0
O369 O 0.56013 0.07786 0.59008 0.0
C370 C 0.68213 0.12536 0.7332 0.0
C371 C 0.63593 0.03502 0.92054 0.0
C372 C 0.38407 0.21256 0.01848 0.0
C373 C 0.43571 0.12786 0.92592 0.0
C374 C 0.36452 0.084 0.09783 0.0
Mg375 Mg 0.32899 0.2328 0.09051 0.0
Mg376 Mg 0.27953 0.19938 0.91291 0.0
O377 O 0.3038 0.19633 0.04392 0.0
Mg378 Mg 0.33407 0.16932 -0.00074 0.0
O379 O 0.36811 0.14759 0.9678 0.0
Mg380 Mg 0.38787 0.15033 0.1143 0.0
Mg381 Mg 0.37372 0.11637 0.88102 0.0
C382 C 0.27802 0.13568 0.9346 0.0
O383 O 0.3292 0.16909 0.80423 0.0
O384 O 0.2871 0.21179 0.09787 0.0
O385 O 0.34871 0.12956 0.74399 0.0
O386 O 0.31564 0.25694 0.93207 0.0
O387 O 0.24947 0.22278 0.01395 0.0
O388 O 0.31161 0.22054 0.82913 0.0
O389 O 0.34529 0.16581 0.18653 0.0
O390 O 0.33987 0.2091 0.2447 0.0
C391 C 0.34391 0.18386 0.26507 0.0
C392 C 0.26439 0.225 0.10126 0.0
O393 O 0.3 0.13424 -0.00481 0.0
O394 O 0.4288 0.13733 0.02309 0.0
O395 O 0.27106 0.15732 0.88283 0.0
O396 O 0.37484 0.10443 0.15234 0.0
O397 O 0.41777 0.11878 0.85659 0.0
O398 O 0.36122 0.08463 -0.00854 0.0
O399 O 0.35951 0.20652 -0.00371 0.0
O400 O 0.39983 0.19541 0.06641 0.0
C401 C 0.30665 0.24557 0.84269 0.0
C402 C 0.33545 0.15169 0.72607 0.0
C403 C 0.07219 0.08416 0.96845 0.0
C404 C 0.03627 0.00462 0.75358 0.0
C405 C 0.01667 0.04891 0.50884 0.0
Mg406 Mg 0.10511 0.13164 0.83968 0.0
Mg407 Mg 0.13855 0.12287 0.60024 0.0
O408 O 0.10745 0.11572 0.68572 0.0
Mg409 Mg 0.08771 0.08042 0.70427 0.0
O410 O 0.0641 0.04679 0.73206 0.0
Mg411 Mg 0.0255 0.06669 0.77852 0.0
Mg412 Mg 0.06564 0.02556 0.58975 0.0
C413 C 0.10479 0.08655 0.43218 0.0
O414 O 0.12502 0.05086 0.70269 0.0
O415 O 0.11545 0.17424 0.76119 0.0
O416 O 0.10906 0.02297 0.56666 0.0
O417 O 0.15254 0.12055 0.87087 0.0
O418 O 0.13316 0.16638 0.59 0.0
O419 O 0.17187 0.11087 0.70488 0.0
O420 O 0.04835 0.10341 0.7084 0.0
O421 O 0.05907 0.14148 0.80241 0.0
C422 C 0.04163 0.12652 0.74995 0.0
C423 C 0.12331 0.18267 0.66423 0.0
O424 O 0.08829 0.07861 0.50969 0.0
O425 O 0.04941 0.02713 0.7695 0.0
O426 O 0.12659 0.10036 0.45208 0.0
O427 O 0.00548 0.05299 0.60518 0.0
O428 O 0.04191 0.99172 0.66294 0.0
O429 O 0.04182 0.05386 0.49808 0.0
O430 O 0.09033 0.08773 0.89245 0.0
O431 O 0.04754 0.07718 0.94462 0.0
C432 C 0.17328 0.11265 0.81183 0.0
C433 C 0.12779 0.03026 0.63571 0.0
C434 C 0.1018 0.8021 0.47383 0.0
C435 C 0.06561 0.88995 0.39349 0.0
C436 C 0.14212 0.92541 0.55896 0.0
Mg437 Mg 0.15436 0.77754 0.49999 0.0
Mg438 Mg 0.21356 0.79736 0.41195 0.0
O439 O 0.18369 0.80634 0.4981 0.0
Mg440 Mg 0.158 0.8373 0.45579 0.0
O441 O 0.12823 0.86351 0.43033 0.0
Mg442 Mg 0.10876 0.86286 0.57965 0.0
Mg443 Mg 0.12823 0.89435 0.34223 0.0
C444 C 0.22171 0.86078 0.46587 0.0
O445 O 0.16276 0.8361 0.25999 0.0
O446 O 0.18454 0.7464 0.55438 0.0
O447 O 0.14841 0.87708 0.19698 0.0
O448 O 0.16168 0.76481 0.31425 0.0
O449 O 0.22532 0.75792 0.4833 0.0
O450 O 0.19582 0.7912 0.25418 0.0
O451 O 0.14827 0.84049 0.64224 0.0
O452 O 0.14907 0.79572 0.68248 0.0
C453 C 0.14793 0.82103 0.71368 0.0
C454 C 0.20964 0.74133 0.53621 0.0
O455 O 0.19595 0.86643 0.47072 0.0
O456 O 0.07033 0.88073 0.49224 0.0
O457 O 0.23122 0.83689 0.44316 0.0
O458 O 0.12861 0.90718 0.61426 0.0
O459 O 0.08483 0.89704 0.32676 0.0
O460 O 0.14568 0.92347 0.45295 0.0
O461 O 0.12544 0.80748 0.43967 0.0
O462 O 0.08966 0.81891 0.53965 0.0
C463 C 0.1763 0.7746 0.23472 0.0
C464 C 0.15799 0.85304 0.18 0.0
C465 C 0.42404 0.90846 0.55375 0.0
C466 C 0.47858 0.98396 0.39798 0.0
C467 C 0.49029 0.94081 0.13131 0.0
Mg468 Mg 0.3873 0.86937 0.38561 0.0
Mg469 Mg 0.35608 0.89204 0.15841 0.0
O470 O 0.38674 0.89266 0.24878 0.0
Mg471 Mg 0.41156 0.92327 0.29013 0.0
O472 O 0.44199 0.94993 0.34519 0.0
Mg473 Mg 0.47473 0.91965 0.37983 0.0
Mg474 Mg 0.44831 0.97365 0.21635 0.0
C475 C 0.39467 0.9283 0.01543 0.0
O476 O 0.37993 0.95911 0.294 0.0
O477 O 0.3723 0.83184 0.27565 0.0
O478 O 0.40739 0.98816 0.19927 0.0
O479 O 0.34246 0.88403 0.42513 0.0
O480 O 0.35721 0.84927 0.11359 0.0
O481 O 0.3243 0.90267 0.27116 0.0
O482 O 0.44484 0.89477 0.27686 0.0
O483 O 0.43056 0.85444 0.33418 0.0
C484 C 0.44823 0.86939 0.28562 0.0
C485 C 0.36437 0.82884 0.17316 0.0
O486 O 0.41274 0.9305 0.09438 0.0
O487 O 0.46128 0.96416 0.40106 0.0
O488 O 0.37038 0.91944 0.03251 0.0
O489 O 0.50005 0.93216 0.22369 0.0
O490 O 0.47787 0.99873 0.31034 0.0
O491 O 0.46469 0.94056 0.11972 0.0
O492 O 0.40595 0.9095 0.47549 0.0
O493 O 0.44961 0.90968 0.53248 0.0
C494 C 0.32284 0.89642 0.37481 0.0
C495 C 0.38432 0.98186 0.24274 0.0
C496 C 0.10256 0.25753 0.67835 0.0
C497 C 0.10745 0.2661 0.56774 0.0
H498 H 0.10414 0.22477 0.79653 0.0
C499 C 0.11631 0.24683 0.48795 0.0
H500 H 0.09686 0.27229 0.74257 0.0
C501 C 0.12145 0.21982 0.51941 0.0
C502 C 0.11786 0.21146 0.63162 0.0
H503 H 0.12138 0.25318 0.40342 0.0
H504 H 0.12897 0.20569 0.45611 0.0
C505 C 0.1075 0.23048 0.70988 0.0
C506 C 0.51221 0.37153 0.65022 0.0
C507 C 0.48938 0.36826 0.72049 0.0
H508 H 0.554 0.38266 0.63512 0.0
C509 C 0.49252 0.37272 0.83689 0.0
H510 H 0.51058 0.36812 0.56033 0.0
C511 C 0.51793 0.38107 0.88074 0.0
C512 C 0.54033 0.3855 0.80865 0.0
H513 H 0.47528 0.37066 0.89332 0.0
H514 H 0.51999 0.38422 0.97052 0.0
C515 C 0.53708 0.38041 0.69313 0.0
C516 C 0.36388 0.7994 -0.00075 0.0
C517 C 0.36601 0.80143 0.11706 0.0
H518 H 0.36089 0.77325 0.85483 0.0
C519 C 0.37079 0.77733 0.17785 0.0
H520 H 0.36101 0.81747 0.94866 0.0
C521 C 0.37114 0.75172 0.12298 0.0
C522 C 0.36683 0.74968 0.00606 0.0
H523 H 0.37312 0.77812 0.26832 0.0
H524 H 0.37254 0.73346 0.17346 0.0
C525 C 0.36441 0.77399 0.94471 0.0
C526 C 0.98829 0.63768 0.46133 0.0
C527 C 0.96848 0.6289 0.38297 0.0
H528 H 0.03075 0.64527 0.49498 0.0
C529 C 0.97714 0.62338 0.27188 0.0
H530 H 0.98261 0.64229 0.54739 0.0
C531 C 0.00487 0.62575 0.24142 0.0
C532 C 0.02455 0.63398 0.32085 0.0
H533 H 0.96258 0.61672 0.20878 0.0
H534 H 0.01112 0.61983 0.15734 0.0
C535 C 0.01589 0.63997 0.43085 0.0
C536 C 0.89264 0.75984 0.56342 0.0
C537 C 0.90124 0.73888 0.48995 0.0
H538 H 0.8809 0.80197 0.5813 0.0
C539 C 0.90827 0.7457 0.37941 0.0
H540 H 0.88617 0.75498 0.64803 0.0
C541 C 0.90467 0.77235 0.34028 0.0
C542 C 0.89382 0.79291 0.41072 0.0
H543 H 0.91411 0.72984 0.32002 0.0
H544 H 0.90893 0.77639 0.25265 0.0
C545 C 0.88912 0.78667 0.52443 0.0
C546 C 0.50463 0.65303 0.13161 0.0
C547 C 0.51244 0.63539 0.21807 0.0
H548 H 0.47187 0.6682 0.03026 0.0
C549 C 0.49194 0.62188 0.27936 0.0
H550 H 0.52004 0.66336 0.08203 0.0
C551 C 0.46423 0.62483 0.25073 0.0
C552 C 0.45648 0.64091 0.15848 0.0
H553 H 0.49745 0.60795 0.34582 0.0
H554 H 0.44912 0.61289 0.29548 0.0
C555 C 0.47701 0.6557 0.10188 0.0
C556 C 0.60621 0.25872 0.00774 0.0
C557 C 0.60013 0.27544 0.91578 0.0
H558 H 0.61922 0.21921 0.06283 0.0
C559 C 0.5987 0.26346 0.80819 0.0
H560 H 0.60826 0.26756 0.0911 0.0
C561 C 0.60552 0.236 0.79125 0.0
C562 C 0.61414 0.21982 0.8816 0.0
H563 H 0.59488 0.27605 0.73538 0.0
H564 H 0.60534 0.22789 0.70629 0.0
C565 C 0.61334 0.23122 -0.00922 0.0
C566 C 0.00324 0.36636 0.84141 0.0
C567 C 0.98189 0.36013 0.76711 0.0
H568 H 0.04516 0.37785 0.85969 0.0
C569 C 0.98765 0.35736 0.65188 0.0
H570 H 0.9991 0.36959 0.93001 0.0
C571 C 0.01385 0.3628 0.61053 0.0
C572 C 0.03473 0.37138 0.68379 0.0
H573 H 0.97126 0.35356 0.59248 0.0
H574 H 0.01737 0.36151 0.52078 0.0
C575 C 0.02938 0.37205 0.80022 0.0
C576 C 0.62467 0.72421 0.02783 0.0
C577 C 0.61864 0.71351 0.1346 0.0
H578 H 0.62665 0.76004 0.92502 0.0
C579 C 0.60647 0.73075 0.21542 0.0
H580 H 0.63375 0.71148 0.96302 0.0
C581 C 0.60184 0.75828 0.19221 0.0
C582 C 0.60893 0.76913 0.08749 0.0
H583 H 0.60125 0.72324 0.29806 0.0
H584 H 0.59437 0.77154 0.25882 0.0
C585 C 0.61992 0.75181 0.00469 0.0
C586 C 0.01205 0.87449 0.17553 0.0
C587 C 0.98858 0.8693 0.23995 0.0
H588 H 0.05371 0.88649 0.17214 0.0
C589 C 0.9903 0.87173 0.35786 0.0
H590 H 0.01157 0.87269 0.0847 0.0
C591 C 0.01501 0.8796 0.40923 0.0
C592 C 0.03819 0.88555 0.34343 0.0
H593 H 0.97255 0.86809 0.41007 0.0
H594 H 0.01602 0.88091 0.50002 0.0
C595 C 0.03624 0.88288 0.22604 0.0
C596 C 0.88047 0.24637 0.67303 0.0
C597 C 0.88421 0.24336 0.55598 0.0
H598 H 0.87332 0.27423 0.81148 0.0
C599 C 0.88449 0.26709 0.4901 0.0
H600 H 0.87977 0.22858 0.72648 0.0
C601 C 0.87979 0.29279 0.53767 0.0
C602 C 0.87524 0.29597 0.65369 0.0
H603 H 0.88737 0.26572 0.39992 0.0
H604 H 0.87992 0.31033 0.48267 0.0
C605 C 0.87632 0.27249 0.72154 0.0
C606 C 0.51249 0.14294 0.92456 0.0
C607 C 0.52056 0.13336 0.81795 0.0
H608 H 0.47983 0.14862 0.04271 0.0
C609 C 0.50053 0.1222 0.74644 0.0
H610 H 0.52768 0.15061 0.98323 0.0
C611 C 0.47309 0.12046 0.78118 0.0
C612 C 0.46501 0.12952 0.88911 0.0
H613 H 0.50632 0.11358 0.66574 0.0
H614 H 0.45833 0.11143 0.72406 0.0
C615 C 0.48511 0.14124 0.95946 0.0
C616 C 0.38186 0.28911 0.02003 0.0
C617 C 0.38739 0.29443 0.9061 0.0
H618 H 0.37732 0.25844 0.14722 0.0
C619 C 0.39745 0.27294 0.83843 0.0
H620 H 0.37414 0.30513 0.07473 0.0
C621 C 0.39992 0.24647 0.88097 0.0
C622 C 0.39245 0.24077 -0.00786 0.0
H623 H 0.40221 0.27624 0.75068 0.0
H624 H 0.40553 0.22999 0.8241 0.0
C625 C 0.38411 0.26246 0.06226 0.0
C626 C 0.96483 0.12099 0.78048 0.0
C627 C 0.956 0.13785 0.69263 0.0
H628 H 0.99922 0.1046 0.86945 0.0
C629 C 0.97551 0.15455 0.63884 0.0
H630 H 0.95047 0.10778 0.82325 0.0
C631 C 0.00335 0.15272 0.66532 0.0
C632 C 0.01236 0.13413 0.74602 0.0
H633 H 0.96945 0.16788 0.57106 0.0
H634 H 0.018 0.16438 0.61691 0.0
C635 C 0.99279 0.11903 0.80636 0.0
C636 C 0.1113 0.72816 0.51961 0.0
C637 C 0.11324 0.71892 0.40709 0.0
H638 H 0.10337 0.76194 0.63162 0.0
C639 C 0.10315 0.73611 0.32259 0.0
H640 H 0.11815 0.71536 0.58775 0.0
C641 C 0.09407 0.76263 0.34858 0.0
C642 C 0.09461 0.77282 0.45976 0.0
H643 H 0.10364 0.72967 0.23531 0.0
H644 H 0.08942 0.77626 0.27987 0.0
C645 C 0.10186 0.75465 0.54562 0.0
C646 C 0.52268 0.86987 0.30104 0.0
C647 C 0.52901 0.87244 0.18602 0.0
H648 H 0.4913 0.86433 0.42427 0.0
C649 C 0.50887 0.86614 0.10605 0.0
H650 H 0.53799 0.87369 0.36503 0.0
C651 C 0.48223 0.86015 0.14077 0.0
C652 C 0.4755 0.85996 0.25565 0.0
H653 H 0.51327 0.86736 0.01702 0.0
H654 H 0.46632 0.85839 0.07775 0.0
C655 C 0.4962 0.86348 0.33546 0.0
C656 C 0.15581 0.36106 0.1685 0.0
C657 C 0.1565 0.33336 0.19741 0.0
H658 H 0.15717 0.39018 0.03601 0.0
C659 C 0.16058 0.31351 0.11285 0.0
H660 H 0.15324 0.37684 0.23204 0.0
C661 C 0.16325 0.32112 0.00135 0.0
C662 C 0.16176 0.34871 0.97177 0.0
H663 H 0.16156 0.29194 0.13233 0.0
H664 H 0.16515 0.30522 0.93827 0.0
C665 C 0.15846 0.36869 0.0565 0.0
C666 C 0.40963 0.42423 0.32208 0.0
C667 C 0.40777 0.39675 0.35424 0.0
H668 H 0.41557 0.45243 0.18771 0.0
C669 C 0.40949 0.37616 0.27178 0.0
H670 H 0.40706 0.44052 0.38319 0.0
C671 C 0.41385 0.38296 0.15946 0.0
C672 C 0.41655 0.41047 0.12779 0.0
H673 H 0.40779 0.35481 0.29429 0.0
H674 H 0.41545 0.36664 0.0977 0.0
C675 C 0.41418 0.43105 0.21001 0.0
C676 C 0.32095 0.67962 0.45743 0.0
C677 C 0.32863 0.65875 0.38229 0.0
H678 H 0.32369 0.69552 0.62617 0.0
C679 C 0.34624 0.63815 0.41941 0.0
H680 H 0.30818 0.69628 0.42933 0.0
C681 C 0.35516 0.63775 0.53075 0.0
C682 C 0.34675 0.65801 0.60766 0.0
H683 H 0.3529 0.62211 0.36247 0.0
H684 H 0.36816 0.62111 0.5573 0.0
C685 C 0.32988 0.67923 0.56959 0.0
C686 C 0.08626 0.57795 0.75585 0.0
C687 C 0.1122 0.58746 0.72511 0.0
H688 H 0.058 0.57104 0.88838 0.0
C689 C 0.13068 0.59588 0.80924 0.0
H690 H 0.07152 0.57155 0.69349 0.0
C691 C 0.12283 0.59599 0.92163 0.0
C692 C 0.09639 0.58769 0.9515 0.0
H693 H 0.15094 0.60322 0.78812 0.0
H694 H 0.13729 0.60298 0.98457 0.0
C695 C 0.07838 0.57813 0.86786 0.0
C696 C 0.8376 0.64226 0.01631 0.0
C697 C 0.83563 0.66247 0.1009 0.0
H698 H 0.84467 0.63321 0.84281 0.0
C699 C 0.83751 0.69007 0.07077 0.0
H700 H 0.83629 0.62077 0.03692 0.0
C701 C 0.84275 0.69721 0.95928 0.0
C702 C 0.84611 0.67689 0.87567 0.0
H703 H 0.83655 0.70608 0.13405 0.0
H704 H 0.84453 0.71869 0.93912 0.0
C705 C 0.84289 0.64937 0.90521 0.0
C706 C 0.5711 0.56593 0.64729 0.0
C707 C 0.58186 0.58456 0.56977 0.0
H708 H 0.57215 0.55108 0.81603 0.0
C709 C 0.60264 0.60256 0.60389 0.0
H710 H 0.55591 0.55103 0.62122 0.0
C711 C 0.61149 0.60291 0.7153 0.0
C712 C 0.59998 0.58498 0.79448 0.0
H713 H 0.61162 0.6168 0.54512 0.0
H714 H 0.62679 0.61785 0.73985 0.0
C715 C 0.58033 0.56593 0.7584 0.0
C716 C 0.6594 0.32089 0.47696 0.0
C717 C 0.66307 0.34861 0.50618 0.0
H718 H 0.65323 0.29139 0.3445 0.0
C719 C 0.66349 0.36806 0.4202 0.0
H720 H 0.65777 0.30553 0.54132 0.0
C721 C 0.65991 0.36015 0.30831 0.0
C722 C 0.65592 0.33249 0.27865 0.0
H723 H 0.66592 0.38961 0.43966 0.0
H724 H 0.66028 0.37593 0.24499 0.0
C725 C 0.65609 0.31286 0.36425 0.0
C726 C 0.888 0.42695 0.31079 0.0
C727 C 0.90817 0.42624 0.39509 0.0
H728 H 0.87869 0.4217 0.13621 0.0
C729 C 0.93532 0.42096 0.36499 0.0
H730 H 0.8668 0.43075 0.33203 0.0
C731 C 0.942 0.41526 0.25366 0.0
C732 C 0.92168 0.41482 0.16979 0.0
H733 H 0.95114 0.4194 0.42799 0.0
H734 H 0.96315 0.41079 0.23387 0.0
C735 C 0.89467 0.42121 0.19913 0.0
C736 C 0.65041 0.86567 0.72475 0.0
C737 C 0.65611 0.83848 0.75342 0.0
H738 H 0.64332 0.8941 0.59254 0.0
C739 C 0.65923 0.81882 0.6678 0.0
H740 H 0.64819 0.88133 0.78886 0.0
C741 C 0.65655 0.82614 0.55576 0.0
C742 C 0.65085 0.85328 0.52688 0.0
H743 H 0.66358 0.79767 0.68705 0.0
H744 H 0.65835 0.81034 0.49209 0.0
C745 C 0.64775 0.873 0.61235 0.0
C746 C 0.90987 0.87544 0.78248 0.0
C747 C 0.90761 0.89604 0.86469 0.0
H748 H 0.91624 0.86593 0.60862 0.0
C749 C 0.90891 0.92352 0.8323 0.0
H750 H 0.90863 0.85407 0.80521 0.0
C751 C 0.91339 0.93036 0.72021 0.0
C752 C 0.9163 0.90978 0.63828 0.0
H753 H 0.90596 0.93979 0.89324 0.0
H754 H 0.91431 0.95175 0.69769 0.0
C755 C 0.91419 0.88225 0.67017 0.0
C756 C 0.82322 0.15876 0.11817 0.0
C757 C 0.8508 0.1624 0.1478 0.0
H758 H 0.79381 0.15621 0.98471 0.0
C759 C 0.87038 0.16537 0.06271 0.0
H760 H 0.80791 0.15514 0.18207 0.0
C761 C 0.86246 0.16528 0.95011 0.0
C762 C 0.83478 0.16219 0.92032 0.0
H763 H 0.89184 0.16761 0.08327 0.0
H764 H 0.87806 0.16794 0.88641 0.0
C765 C 0.81522 0.15892 0.00535 0.0
C766 C 0.57715 0.07379 0.36862 0.0
C767 C 0.59327 0.08638 0.45199 0.0
H768 H 0.57169 0.06562 0.19449 0.0
C769 C 0.6178 0.09923 0.42204 0.0
H770 H 0.55841 0.06313 0.38957 0.0
C771 C 0.6254 0.10062 0.30958 0.0
C772 C 0.60862 0.08906 0.22552 0.0
H773 H 0.63077 0.10875 0.48493 0.0
H774 H 0.64403 0.11145 0.28858 0.0
C775 C 0.58486 0.07498 0.25656 0.0
C776 C 0.33255 0.18721 0.57852 0.0
C777 C 0.3328 0.15952 0.60741 0.0
H778 H 0.33683 0.21663 0.44903 0.0
C779 C 0.33623 0.13968 0.52212 0.0
H780 H 0.33062 0.20302 0.64197 0.0
C781 C 0.34047 0.14746 0.41097 0.0
C782 C 0.34127 0.17524 0.38297 0.0
H783 H 0.33663 0.11811 0.5419 0.0
H784 H 0.34324 0.13173 0.3474 0.0
C785 C 0.3368 0.195 0.46772 0.0
C786 C 0.10841 0.084 0.11608 0.0
C787 C 0.08058 0.08516 0.08712 0.0
H788 H 0.13787 0.08255 0.24882 0.0
C789 C 0.06082 0.08554 0.17261 0.0
H790 H 0.12413 0.08344 0.05196 0.0
C791 C 0.06875 0.08506 0.28495 0.0
C792 C 0.0965 0.08358 0.31401 0.0
H793 H 0.03924 0.08661 0.1529 0.0
H794 H 0.05314 0.08709 0.34868 0.0
C795 C 0.11629 0.08317 0.22859 0.0
C796 C 0.16675 0.86094 0.9766 0.0
C797 C 0.15835 0.84332 0.06225 0.0
H798 H 0.16985 0.86776 0.80007 0.0
C799 C 0.14575 0.81838 0.03288 0.0
H800 H 0.17574 0.88064 -0.00312 0.0
C801 C 0.14252 0.81074 0.91975 0.0
C802 C 0.15084 0.82848 0.83408 0.0
H803 H 0.13775 0.80509 0.09741 0.0
H804 H 0.13295 0.79133 0.89941 0.0
C805 C 0.16302 0.85364 0.86395 0.0
C806 C 0.38965 0.92223 0.70032 0.0
C807 C 0.41617 0.91371 0.67223 0.0
H808 H 0.3624 0.93515 0.83078 0.0
C809 C 0.43633 0.91357 0.75694 0.0
H810 H 0.3738 0.92324 0.63697 0.0
C811 C 0.42997 0.92094 0.86739 0.0
C812 C 0.40325 0.92854 0.89632 0.0
H813 H 0.45713 0.90749 0.73834 0.0
H814 H 0.44564 0.91904 0.93094 0.0
C815 C 0.3833 0.92963 0.81101 0.0
C816 C 0.22822 0.27543 0.2931 0.0
C817 C 0.244 0.27405 0.39206 0.0
H818 H 0.22218 0.26128 0.12378 0.0
C819 C 0.267 0.25708 0.39316 0.0
H820 H 0.21073 0.28881 0.28845 0.0
C821 C 0.27369 0.24144 0.29785 0.0
C822 C 0.25762 0.24256 0.19945 0.0
H823 H 0.27959 0.25563 0.4677 0.0
H824 H 0.29126 0.22812 0.30205 0.0
C825 C 0.23487 0.25982 0.19808 0.0
C826 C 0.49358 0.47875 0.27521 0.0
C827 C 0.51216 0.49934 0.3048 0.0
H828 H 0.459 0.45531 0.32411 0.0
C829 C 0.50785 0.51425 0.40526 0.0
H830 H 0.49619 0.467 0.19842 0.0
C831 C 0.48628 0.50776 0.47754 0.0
C832 C 0.46867 0.48599 0.45141 0.0
H833 H 0.52189 0.53022 0.43089 0.0
H834 H 0.48453 0.51864 0.55685 0.0
C835 C 0.47199 0.47233 0.34716 0.0
C836 C 0.25443 0.67999 0.58417 0.0
C837 C 0.24473 0.67158 0.6895 0.0
H838 H 0.25223 0.71049 0.45597 0.0
C839 C 0.2193 0.68134 0.7268 0.0
H840 H 0.27294 0.67132 0.55052 0.0
C841 C 0.2072 0.70331 0.67274 0.0
C842 C 0.22017 0.71545 0.58008 0.0
H843 H 0.21065 0.67477 0.80599 0.0
H844 H 0.18897 0.71218 0.70951 0.0
C845 C 0.24282 0.70251 0.53136 0.0
C846 C 0.01868 0.47853 0.1651 0.0
C847 C 0.03841 0.49925 0.15769 0.0
H848 H 0.985 0.45825 0.08486 0.0
C849 C 0.04044 0.51423 0.0574 0.0
H850 H 0.01673 0.46658 0.24087 0.0
C851 C 0.02241 0.5096 0.96823 0.0
C852 C 0.00197 0.48964 0.97684 0.0
H853 H 0.05604 0.52972 0.04782 0.0
H854 H 0.0243 0.52186 0.89322 0.0
C855 C 1.00056 0.47384 0.07554 0.0
C856 C 0.74159 0.76725 0.80087 0.0
C857 C 0.76884 0.771 0.76784 0.0
H858 H 0.71092 0.77563 0.92365 0.0
C859 C 0.786 0.7874 0.8365 0.0
H860 H 0.72793 0.75448 0.75159 0.0
C861 C 0.7763 0.79934 0.93604 0.0
C862 C 0.74915 0.7954 0.96921 0.0
H863 H 0.80722 0.79073 0.81446 0.0
H864 H 0.78997 0.81189 0.98629 0.0
C865 C 0.73192 0.77929 0.90036 0.0
C866 C 0.7185 0.2143 0.14463 0.0
C867 C 0.73227 0.22761 0.0562 0.0
H868 H 0.72257 0.19251 0.29887 0.0
C869 C 0.76004 0.22271 0.03932 0.0
H870 H 0.69677 0.21706 0.15791 0.0
C871 C 0.77461 0.20836 0.11922 0.0
C872 C 0.76167 0.19872 0.21746 0.0
H873 H 0.771 0.232 0.97023 0.0
H874 H 0.79659 0.20786 0.1098 0.0
C875 C 0.73318 0.19995 0.2252 0.0
C876 C 0.99249 0.97923 0.78843 0.0
C877 C 0.01153 0.9991 0.82122 0.0
H878 H 0.95711 0.95646 0.83328 0.0
C879 C 0.00721 0.01369 0.9224 0.0
H880 H 0.99506 0.96784 0.71068 0.0
C881 C 0.98525 0.00735 -0.00712 0.0
C882 C 0.96723 0.98612 0.96388 0.0
H883 H 0.02155 0.02921 0.9501 0.0
H884 H 0.98358 0.01778 0.07323 0.0
C885 C 0.97048 0.973 0.85848 0.0
C886 C 0.52034 0.00676 0.47676 0.0
C887 C 0.49936 0.98744 0.48777 0.0
H888 H 0.55458 0.02646 0.55357 0.0
C889 C 0.4978 0.97208 0.58761 0.0
H890 H 0.52242 0.01859 0.40068 0.0
C891 C 0.5162 0.97682 0.67635 0.0
C892 C 0.53634 0.9971 0.66673 0.0
H893 H 0.4819 0.95689 0.59849 0.0
H894 H 0.5141 0.96532 0.75323 0.0
C895 C 0.53863 0.01139 0.5649 0.0
C896 C 0.16673 0.49352 0.45424 0.0
C897 C 0.14948 0.50594 0.37595 0.0
H898 H 0.17581 0.45739 0.54654 0.0
C899 C 0.13253 0.48902 0.30908 0.0
H900 H 0.17966 0.50598 0.50815 0.0
C901 C 0.12957 0.46105 0.3333 0.0
C902 C 0.14385 0.44965 0.42386 0.0
H903 H 0.11862 0.49811 0.24932 0.0
H904 H 0.11406 0.44926 0.28948 0.0
C905 C 0.16397 0.46569 0.47791 0.0
C906 C 0.27574 0.39325 0.60963 0.0
C907 C 0.28518 0.391 0.72105 0.0
H908 H 0.2409 0.39629 0.50272 0.0
C909 C 0.26774 0.3992 0.80883 0.0
H910 H 0.28911 0.389 0.53907 0.0
C911 C 0.24016 0.4045 0.78642 0.0
C912 C 0.22971 0.39939 0.67793 0.0
H913 H 0.27473 0.39935 0.89518 0.0
H914 H 0.22628 0.40649 0.85703 0.0
C915 C 0.24824 0.39871 0.58819 0.0
C916 C 0.37294 0.51682 0.008 0.0
C917 C 0.3858 0.5364 0.94004 0.0
H918 H 0.3601 0.47516 0.0247 0.0
C919 C 0.39527 0.52839 0.83301 0.0
H920 H 0.36512 0.52233 0.09028 0.0
C921 C 0.39183 0.50162 0.7946 0.0
C922 C 0.37908 0.48205 0.86239 0.0
H923 H 0.40507 0.5429 0.77767 0.0
H924 H 0.39937 0.49618 0.71185 0.0
C925 C 0.36959 0.48991 0.9695 0.0
C926 C 0.23572 0.61138 0.27027 0.0
C927 C 0.21408 0.61704 0.1951 0.0
H928 H 0.27843 0.60312 0.29298 0.0
C929 C 0.21975 0.61509 0.07926 0.0
H930 H 0.23245 0.61222 0.36024 0.0
C931 C 0.24647 0.60924 0.04063 0.0
C932 C 0.26836 0.60534 0.11634 0.0
H933 H 0.20378 0.61883 0.01837 0.0
H934 H 0.25033 0.60906 0.95106 0.0
C935 C 0.26227 0.60557 0.23172 0.0
C936 C 0.87146 0.52475 0.79187 0.0
C937 C 0.86735 0.50203 0.7204 0.0
H938 H 0.87535 0.56836 0.80392 0.0
C939 C 0.85593 0.50647 0.61406 0.0
H940 H 0.88064 0.52197 0.87386 0.0
C941 C 0.85327 0.53308 0.57296 0.0
C942 C 0.86197 0.55576 0.63771 0.0
H943 H 0.85291 0.48944 0.55652 0.0
H944 H 0.84699 0.53556 0.4864 0.0
C945 C 0.86906 0.55143 0.75064 0.0
C946 C 0.72443 0.6081 0.30267 0.0
C947 C 0.70026 0.61305 0.36458 0.0
H948 H 0.76809 0.61256 0.29584 0.0
C949 C 0.70291 0.6194 0.47957 0.0
H950 H 0.72339 0.60274 0.21428 0.0
C951 C 0.7288 0.62431 0.52692 0.0
C952 C 0.75269 0.6232 0.46058 0.0
H953 H 0.68495 0.62302 0.53076 0.0
H954 H 0.7298 0.63255 0.61166 0.0
C955 C 0.75031 0.61308 0.35021 0.0
C956 C 0.64187 0.4898 0.20225 0.0
C957 C 0.64871 0.51048 0.12545 0.0
H958 H 0.63419 0.44694 0.22323 0.0
C959 C 0.66351 0.50316 0.02902 0.0
H960 H 0.63054 0.49489 0.27787 0.0
C961 C 0.66562 0.47567 -0.00266 0.0
C962 C 0.65297 0.45517 0.06203 0.0
H963 H 0.66921 0.51864 0.96867 0.0
H964 H 0.67418 0.47093 0.91551 0.0
C965 C 0.64342 0.46221 0.16975 0.0
C966 C 0.7534 0.40631 0.86507 0.0
C967 C 0.74584 0.38699 0.9451 0.0
H968 H 0.78676 0.4257 0.78195 0.0
C969 C 0.76494 0.37929 0.02735 0.0
H970 H 0.73901 0.41261 0.80116 0.0
C971 C 0.79255 0.3859 0.0145 0.0
C972 C 0.80099 0.40061 0.92006 0.0
H973 H 0.75934 0.36446 0.09056 0.0
H974 H 0.80736 0.3763 0.069 0.0
C975 C 0.78094 0.41338 0.85334 0.0
C976 C 0.65999 0.97015 0.02267 0.0
C977 C 0.64167 0.95291 0.96441 0.0
H978 H 0.67472 0.01099 0.04635 0.0
C979 C 0.63021 0.96229 0.8636 0.0
H980 H 0.66978 0.96332 0.09908 0.0
C981 C 0.6337 0.98969 0.83182 0.0
C982 C 0.64839 0.00805 0.90113 0.0
H983 H 0.61628 0.94944 0.81595 0.0
H984 H 0.62143 0.99739 0.76326 0.0
C985 C 0.6635 0.99737 -0.00931 0.0
C986 C 0.77152 0.89877 0.32268 0.0
C987 C 0.78519 0.88361 0.23918 0.0
H988 H 0.73327 0.91446 0.38032 0.0
C989 C 0.77177 0.87859 0.13636 0.0
H990 H 0.78155 0.90418 0.40093 0.0
C991 C 0.74411 0.88504 0.12385 0.0
C992 C 0.72956 0.89656 0.21415 0.0
H993 H 0.78204 0.86799 0.06817 0.0
H994 H 0.73344 0.87763 0.04978 0.0
C995 C 0.74407 0.90559 0.30936 0.0
C996 C 0.88934 1.00052 0.31354 0.0
C997 C 0.87651 0.98045 0.37859 0.0
H998 H 0.90194 0.04206 0.30006 0.0
C999 C 0.86568 0.98801 0.4841 0.0
H1000 H 0.89782 0.99545 0.23194 0.0
C1001 C 0.86804 0.015 0.52398 0.0
C1002 C 0.88129 0.03498 0.4592 0.0
H1003 H 0.85596 0.97296 0.53719 0.0
H1004 H 0.85945 0.02019 0.60526 0.0
C1005 C 0.89183 0.02731 0.35333 0.0
C1006 C 0.7575 0.1058 0.71875 0.0
C1007 C 0.76614 0.11738 0.61704 0.0
H1008 H 0.72462 0.09925 0.83421 0.0
C1009 C 0.74607 0.12919 0.54736 0.0
H1010 H 0.77219 0.0967 0.77518 0.0
C1011 C 0.71844 0.13059 0.58113 0.0
C1012 C 0.71023 0.12052 0.6863 0.0
H1013 H 0.7519 0.1381 0.46792 0.0
H1014 H 0.70384 0.14072 0.52739 0.0
C1015 C 0.7301 0.10751 0.75305 0.0
C1016 C 0.36729 0.05341 0.26699 0.0
C1017 C 0.35901 0.05762 0.15544 0.0
H1018 H 0.3797 0.02397 0.38871 0.0
C1019 C 0.34902 0.03502 0.09335 0.0
H1020 H 0.37457 0.07033 0.31823 0.0
C1021 C 0.35163 0.00847 0.13469 0.0
C1022 C 0.36425 0.00405 0.2386 0.0
H1023 H 0.34173 0.03747 0.00811 0.0
H1024 H 0.34759 0.99138 0.07844 0.0
C1025 C 0.36962 0.02679 0.30856 0.0
C1026 C 0.22272 0.09864 0.79814 0.0
C1027 C 0.20079 0.10832 0.86449 0.0
H1028 H 0.26612 0.09796 0.77364 0.0
C1029 C 0.20666 0.11743 0.97427 0.0
H1030 H 0.21912 0.09083 0.71398 0.0
C1031 C 0.23396 0.12051 0.00993 0.0
C1032 C 0.25588 0.11508 0.93598 0.0
H1033 H 0.19043 0.1247 0.02862 0.0
H1034 H 0.23778 0.1311 0.08877 0.0
C1035 C 0.24989 0.10199 0.8335 0.0
C1036 C 0.13846 0.96073 0.71358 0.0
C1037 C 0.15029 0.95185 0.61221 0.0
H1038 H 0.12445 0.99531 0.80834 0.0
C1039 C 0.16532 0.97095 0.54862 0.0
H1040 H 0.12724 0.94659 0.76597 0.0
C1041 C 0.1635 0.99891 0.5726 0.0
C1042 C 0.14692 0.00809 0.66103 0.0
H1043 H 0.1756 0.96475 0.47193 0.0
H1044 H 0.17126 0.01327 0.51143 0.0
C1045 C 0.13732 0.98877 0.73901 0.0
C1046 C 0.26401 0.87642 0.55548 0.0
C1047 C 0.24248 0.88205 0.48112 0.0
H1048 H 0.30724 0.87703 0.58059 0.0
C1049 C 0.24678 0.90053 0.3938 0.0
H1050 H 0.26098 0.86226 0.62398 0.0
C1051 C 0.27337 0.90893 0.36825 0.0
C1052 C 0.29573 0.89864 0.42951 0.0
H1053 H 0.23044 0.90516 0.33557 0.0
H1054 H 0.27657 0.92054 0.29223 0.0
C1055 C 0.2906 0.88466 0.52982 0.0
C1056 C 0.23844 0.24024 0.70056 0.0
C1057 C 0.2225 0.25787 0.76701 0.0
H1058 H 0.27815 0.22424 0.66735 0.0
C1059 C 0.23525 0.2735 0.85218 0.0
H1060 H 0.22948 0.22837 0.63268 0.0
C1061 C 0.2633 0.27172 0.87008 0.0
C1062 C 0.27911 0.25359 0.80542 0.0
H1063 H 0.22353 0.28748 0.90426 0.0
H1064 H 0.2722 0.28342 0.93859 0.0
C1065 C 0.26648 0.23843 0.71861 0.0
C1066 C 0.51486 0.49674 0.76282 0.0
C1067 C 0.50268 0.47463 0.81794 0.0
H1068 H 0.52629 0.53902 0.77329 0.0
C1069 C 0.49136 0.47896 0.92552 0.0
H1070 H 0.5231 0.49429 0.67887 0.0
C1071 C 0.4926 0.50454 0.97801 0.0
C1072 C 0.50605 0.52635 0.92591 0.0
H1073 H 0.48168 0.46234 0.97013 0.0
H1074 H 0.48453 0.50669 0.0623 0.0
C1075 C 0.51633 0.52239 0.81619 0.0
C1076 C 0.1739 0.73234 0.1256 0.0
C1077 C 0.17715 0.76078 0.12513 0.0
H1078 H 0.19389 0.69458 0.08915 0.0
C1079 C 0.19385 0.77264 0.04206 0.0
H1080 H 0.16009 0.7226 0.18422 0.0
C1081 C 0.21345 0.75671 -0.01147 0.0
C1082 C 0.21537 0.7291 0.01624 0.0
H1083 H 0.19612 0.79461 0.03689 0.0
H1084 H 0.22927 0.7667 0.93996 0.0
C1085 C 0.19368 0.71636 0.07322 0.0
C1086 C 0.03341 0.50715 0.61145 0.0
C1087 C 0.01969 0.5199 0.52233 0.0
H1088 H 0.03767 0.47139 0.71091 0.0
C1089 C 0.00131 0.50459 0.45649 0.0
H1090 H 0.04808 0.51832 0.66241 0.0
C1091 C 0.99583 0.47748 0.48269 0.0
C1092 C 0.00811 0.46532 0.57663 0.0
H1093 H 0.99105 0.51351 0.38506 0.0
H1094 H 0.98062 0.46653 0.43362 0.0
C1095 C 0.0279 0.48003 0.63772 0.0
C1096 C 0.74652 0.78387 0.36323 0.0
C1097 C 0.72928 0.76986 0.28741 0.0
H1098 H 0.78675 0.78872 0.42834 0.0
C1099 C 0.74097 0.75317 0.20395 0.0
H1100 H 0.73816 0.79723 0.42765 0.0
C1101 C 0.76916 0.74893 0.20241 0.0
C1102 C 0.78583 0.76025 0.28755 0.0
H1103 H 0.72834 0.7427 0.14237 0.0
H1104 H 0.77742 0.73402 0.14374 0.0
C1105 C 0.77459 0.77959 0.36176 0.0
C1106 C 0.74829 0.23086 0.65601 0.0
C1107 C 0.76188 0.24583 0.57234 0.0
H1108 H 0.71182 0.22598 0.75221 0.0
C1109 C 0.74657 0.26304 0.50291 0.0
H1110 H 0.75943 0.2171 0.70997 0.0
C1111 C 0.71896 0.26779 0.5262 0.0
C1112 C 0.70657 0.25604 0.62126 0.0
H1113 H 0.75624 0.27409 0.43508 0.0
H1114 H 0.7085 0.28359 0.4798 0.0
C1115 C 0.7207 0.23551 0.67883 0.0
C1116 C 0.01615 0.99597 0.2764 0.0
C1117 C 0.00203 0.97456 0.32836 0.0
H1118 H 0.0307 0.03717 0.29158 0.0
C1119 C 0.98976 0.97935 0.43379 0.0
H1120 H 0.02542 0.99307 0.1945 0.0
C1121 C 0.99168 0.00476 0.48698 0.0
C1122 C 0.0069 0.02583 0.43817 0.0
H1123 H 0.9789 0.96318 0.47654 0.0
H1124 H 0.98281 0.0072 0.56982 0.0
C1125 C 0.01859 0.02137 0.33096 0.0
C1126 C 0.49176 0.9765 0.98558 0.0
C1127 C 0.50383 0.96457 0.0805 0.0
H1128 H 0.48719 0.01227 0.88626 0.0
C1129 C 0.52369 0.97933 0.14099 0.0
H1130 H 0.4765 0.96551 0.93694 0.0
C1131 C 0.52938 0.00635 0.11339 0.0
C1132 C 0.51576 0.01894 0.02358 0.0
H1133 H 0.53328 0.97086 0.2149 0.0
H1134 H 0.54403 0.0176 0.16417 0.0
C1135 C 0.49742 0.0035 0.9581 0.0
loop_
_geom_bond_atom_site_label_1
_geom_bond_atom_site_label_2
_geom_bond_distance
_geom_bond_site_symmetry_2
_ccdc_geom_bond_type
C0 O27 1.312 . S
C0 O28 1.208 . S
C1 O22 1.331 . S
C1 O25 1.244 . S
C2 O24 1.264 . S
C2 O26 1.273 . S
Mg3 O5 1.936 . S
Mg3 O12 2.081 . S
Mg3 O14 2.023 . S
Mg3 O18 2.031 . S
Mg3 O27 2.291 . S
Mg4 O5 1.963 . S
Mg4 O15 1.942 . S
Mg4 O16 1.955 . S
Mg4 O23 1.986 . S
O5 Mg3 1.936 . S
O5 Mg4 1.963 . S
O5 Mg6 1.915 . S
Mg6 O5 1.915 . S
Mg6 O7 1.915 . S
Mg6 O11 2.013 . S
Mg6 O17 2.114 . S
Mg6 O21 2.013 . S
Mg6 O27 2.114 . S
O7 Mg6 1.915 . S
O7 Mg8 1.936 . S
O7 Mg9 1.963 . S
Mg8 O7 1.936 . S
Mg8 O17 2.291 . S
Mg8 O22 2.081 . S
Mg8 O24 2.023 . S
Mg8 O28 2.031 . S
Mg9 O7 1.963 . S
Mg9 O13 1.986 . S
Mg9 O25 1.942 . S
Mg9 O26 1.955 . S
C10 O21 1.191 . S
C10 O23 1.307 . S
O11 Mg6 2.013 . S
O11 C30 1.191 . S
O12 Mg3 2.081 . S
O12 C20 1.331 . S
O13 Mg9 1.986 . S
O13 C30 1.307 . S
O14 Mg3 2.023 . S
O14 C29 1.264 . S
O15 Mg4 1.942 . S
O15 C20 1.244 . S
O16 Mg4 1.955 . S
O16 C29 1.273 . S
O17 Mg6 2.114 . S
O17 Mg8 2.291 . S
O17 C19 1.312 . S
O18 Mg3 2.031 . S
O18 C19 1.208 . S
C19 O17 1.312 . S
C19 O18 1.208 . S
C20 O12 1.331 . S
C20 O15 1.244 . S
O21 Mg6 2.013 . S
O21 C10 1.191 . S
O22 C1 1.331 . S
O22 Mg8 2.081 . S
O23 Mg4 1.986 . S
O23 C10 1.307 . S
O24 C2 1.264 . S
O24 Mg8 2.023 . S
O25 C1 1.244 . S
O25 Mg9 1.942 . S
O26 C2 1.273 . S
O26 Mg9 1.955 . S
O27 C0 1.312 . S
O27 Mg3 2.291 . S
O27 Mg6 2.114 . S
O28 C0 1.208 . S
O28 Mg8 2.031 . S
C29 O14 1.264 . S
C29 O16 1.273 . S
C30 O11 1.191 . S
C30 O13 1.307 . S
C31 O58 1.312 . S
C31 O59 1.208 . S
C32 O53 1.331 . S
C32 O56 1.244 . S
C33 O55 1.264 . S
C33 O57 1.273 . S
Mg34 O36 1.936 . S
Mg34 O43 2.081 . S
Mg34 O45 2.023 . S
Mg34 O49 2.031 1_556 S
Mg34 O58 2.291 . S
Mg35 O36 1.963 . S
Mg35 O46 1.942 . S
Mg35 O47 1.955 . S
Mg35 O54 1.986 . S
O36 Mg34 1.936 . S
O36 Mg35 1.963 . S
O36 Mg37 1.915 . S
Mg37 O36 1.915 . S
Mg37 O38 1.915 . S
Mg37 O42 2.013 . S
Mg37 O48 2.114 . S
Mg37 O52 2.013 . S
Mg37 O58 2.114 . S
O38 Mg37 1.915 . S
O38 Mg39 1.936 . S
O38 Mg40 1.963 . S
Mg39 O38 1.936 . S
Mg39 O48 2.291 . S
Mg39 O53 2.081 . S
Mg39 O55 2.023 . S
Mg39 O59 2.031 . S
Mg40 O38 1.963 . S
Mg40 O44 1.986 . S
Mg40 O56 1.942 . S
Mg40 O57 1.955 . S
C41 O52 1.191 . S
C41 O54 1.307 . S
O42 Mg37 2.013 . S
O42 C61 1.191 . S
O43 Mg34 2.081 . S
O43 C51 1.331 . S
O44 Mg40 1.986 . S
O44 C61 1.307 . S
O45 Mg34 2.023 . S
O45 C60 1.264 . S
O46 Mg35 1.942 . S
O46 C51 1.244 . S
O47 Mg35 1.955 . S
O47 C60 1.273 . S
O48 Mg37 2.114 . S
O48 Mg39 2.291 . S
O48 C50 1.312 1_556 S
O49 Mg34 2.031 1_554 S
O49 C50 1.208 . S
C50 O48 1.312 1_554 S
C50 O49 1.208 . S
C51 O43 1.331 . S
C51 O46 1.244 . S
O52 Mg37 2.013 . S
O52 C41 1.191 . S
O53 C32 1.331 . S
O53 Mg39 2.081 . S
O54 Mg35 1.986 . S
O54 C41 1.307 . S
O55 C33 1.264 . S
O55 Mg39 2.023 . S
O56 C32 1.244 . S
O56 Mg40 1.942 . S
O57 C33 1.273 . S
O57 Mg40 1.955 . S
O58 C31 1.312 . S
O58 Mg34 2.291 . S
O58 Mg37 2.114 . S
O59 C31 1.208 . S
O59 Mg39 2.031 . S
C60 O45 1.264 . S
C60 O47 1.273 . S
C61 O42 1.191 . S
C61 O44 1.307 . S
C62 O89 1.312 . S
C62 O90 1.208 . S
C63 O84 1.331 1_556 S
C63 O87 1.244 . S
C64 O86 1.264 . S
C64 O88 1.273 . S
Mg65 O67 1.936 . S
Mg65 O74 2.081 . S
Mg65 O76 2.023 1_554 S
Mg65 O80 2.031 . S
Mg65 O89 2.291 . S
Mg66 O67 1.963 1_556 S
Mg66 O77 1.942 1_556 S
Mg66 O78 1.955 . S
Mg66 O85 1.986 . S
O67 Mg65 1.936 . S
O67 Mg66 1.963 1_554 S
O67 Mg68 1.915 . S
Mg68 O67 1.915 . S
Mg68 O69 1.915 1_554 S
Mg68 O73 2.013 1_554 S
Mg68 O79 2.114 . S
Mg68 O83 2.013 . S
Mg68 O89 2.114 . S
O69 Mg68 1.915 1_556 S
O69 Mg70 1.936 1_556 S
O69 Mg71 1.963 . S
Mg70 O69 1.936 1_554 S
Mg70 O79 2.291 . S
Mg70 O84 2.081 . S
Mg70 O86 2.023 . S
Mg70 O90 2.031 . S
Mg71 O69 1.963 . S
Mg71 O75 1.986 . S
Mg71 O87 1.942 . S
Mg71 O88 1.955 1_556 S
C72 O83 1.191 . S
C72 O85 1.307 1_554 S
O73 Mg68 2.013 1_556 S
O73 C92 1.191 . S
O74 Mg65 2.081 . S
O74 C82 1.331 . S
O75 Mg71 1.986 . S
O75 C92 1.307 . S
O76 Mg65 2.023 1_556 S
O76 C91 1.264 . S
O77 Mg66 1.942 1_554 S
O77 C82 1.244 . S
O78 Mg66 1.955 . S
O78 C91 1.273 . S
O79 Mg68 2.114 . S
O79 Mg70 2.291 . S
O79 C81 1.312 . S
O80 Mg65 2.031 . S
O80 C81 1.208 . S
C81 O79 1.312 . S
C81 O80 1.208 . S
C82 O74 1.331 . S
C82 O77 1.244 . S
O83 Mg68 2.013 . S
O83 C72 1.191 . S
O84 C63 1.331 1_554 S
O84 Mg70 2.081 . S
O85 Mg66 1.986 . S
O85 C72 1.307 1_556 S
O86 C64 1.264 . S
O86 Mg70 2.023 . S
O87 C63 1.244 . S
O87 Mg71 1.942 . S
O88 C64 1.273 . S
O88 Mg71 1.955 1_554 S
O89 C62 1.312 . S
O89 Mg65 2.291 . S
O89 Mg68 2.114 . S
O90 C62 1.208 . S
O90 Mg70 2.031 . S
C91 O76 1.264 . S
C91 O78 1.273 . S
C92 O73 1.191 . S
C92 O75 1.307 . S
C93 O120 1.312 . S
C93 O121 1.208 . S
C94 O115 1.331 . S
C94 O118 1.244 . S
C95 O117 1.264 . S
C95 O119 1.273 . S
Mg96 O98 1.936 . S
Mg96 O105 2.081 . S
Mg96 O107 2.023 . S
Mg96 O111 2.031 . S
Mg96 O120 2.291 . S
Mg97 O98 1.963 . S
Mg97 O108 1.942 . S
Mg97 O109 1.955 . S
Mg97 O116 1.986 . S
O98 Mg96 1.936 . S
O98 Mg97 1.963 . S
O98 Mg99 1.915 . S
Mg99 O98 1.915 . S
Mg99 O100 1.915 . S
Mg99 O104 2.013 . S
Mg99 O110 2.114 . S
Mg99 O114 2.013 . S
Mg99 O120 2.114 . S
O100 Mg99 1.915 . S
O100 Mg101 1.936 . S
O100 Mg102 1.963 . S
Mg101 O100 1.936 . S
Mg101 O110 2.291 . S
Mg101 O115 2.081 . S
Mg101 O117 2.023 . S
Mg101 O121 2.031 . S
Mg102 O100 1.963 . S
Mg102 O106 1.986 . S
Mg102 O118 1.942 . S
Mg102 O119 1.955 . S
C103 O114 1.191 . S
C103 O116 1.307 . S
O104 Mg99 2.013 . S
O104 C123 1.191 . S
O105 Mg96 2.081 . S
O105 C113 1.331 . S
O106 Mg102 1.986 . S
O106 C123 1.307 . S
O107 Mg96 2.023 . S
O107 C122 1.264 . S
O108 Mg97 1.942 . S
O108 C113 1.244 . S
O109 Mg97 1.955 . S
O109 C122 1.273 . S
O110 Mg99 2.114 . S
O110 Mg101 2.291 . S
O110 C112 1.312 . S
O111 Mg96 2.031 . S
O111 C112 1.208 . S
C112 O110 1.312 . S
C112 O111 1.208 . S
C113 O105 1.331 . S
C113 O108 1.244 . S
O114 Mg99 2.013 . S
O114 C103 1.191 . S
O115 C94 1.331 . S
O115 Mg101 2.081 . S
O116 Mg97 1.986 . S
O116 C103 1.307 . S
O117 C95 1.264 . S
O117 Mg101 2.023 . S
O118 C94 1.244 . S
O118 Mg102 1.942 . S
O119 C95 1.273 . S
O119 Mg102 1.955 . S
O120 C93 1.312 . S
O120 Mg96 2.291 . S
O120 Mg99 2.114 . S
O121 C93 1.208 . S
O121 Mg101 2.031 . S
C122 O107 1.264 . S
C122 O109 1.273 . S
C123 O104 1.191 . S
C123 O106 1.307 . S
C124 O151 1.312 . S
C124 O152 1.208 . S
C125 O146 1.331 . S
C125 O149 1.244 . S
C126 O148 1.264 . S
C126 O150 1.273 . S
Mg127 O129 1.936 . S
Mg127 O136 2.081 . S
Mg127 O138 2.023 . S
Mg127 O142 2.031 . S
Mg127 O151 2.291 . S
Mg128 O129 1.963 . S
Mg128 O139 1.942 . S
Mg128 O140 1.955 . S
Mg128 O147 1.986 . S
O129 Mg127 1.936 . S
O129 Mg128 1.963 . S
O129 Mg130 1.915 . S
Mg130 O129 1.915 . S
Mg130 O131 1.915 . S
Mg130 O135 2.013 . S
Mg130 O141 2.114 . S
Mg130 O145 2.013 . S
Mg130 O151 2.114 . S
O131 Mg130 1.915 . S
O131 Mg132 1.936 . S
O131 Mg133 1.963 . S
Mg132 O131 1.936 . S
Mg132 O141 2.291 . S
Mg132 O146 2.081 . S
Mg132 O148 2.023 . S
Mg132 O152 2.031 . S
Mg133 O131 1.963 . S
Mg133 O137 1.986 . S
Mg133 O149 1.942 . S
Mg133 O150 1.955 . S
C134 O145 1.191 . S
C134 O147 1.307 . S
O135 Mg130 2.013 . S
O135 C154 1.191 . S
O136 Mg127 2.081 . S
O136 C144 1.331 . S
O137 Mg133 1.986 . S
O137 C154 1.307 . S
O138 Mg127 2.023 . S
O138 C153 1.264 . S
O139 Mg128 1.942 . S
O139 C144 1.244 . S
O140 Mg128 1.955 . S
O140 C153 1.273 . S
O141 Mg130 2.114 . S
O141 Mg132 2.291 . S
O141 C143 1.312 . S
O142 Mg127 2.031 . S
O142 C143 1.208 . S
C143 O141 1.312 . S
C143 O142 1.208 . S
C144 O136 1.331 . S
C144 O139 1.244 . S
O145 Mg130 2.013 . S
O145 C134 1.191 . S
O146 C125 1.331 . S
O146 Mg132 2.081 . S
O147 Mg128 1.986 . S
O147 C134 1.307 . S
O148 C126 1.264 . S
O148 Mg132 2.023 . S
O149 C125 1.244 . S
O149 Mg133 1.942 . S
O150 C126 1.273 . S
O150 Mg133 1.955 . S
O151 C124 1.312 . S
O151 Mg127 2.291 . S
O151 Mg130 2.114 . S
O152 C124 1.208 . S
O152 Mg132 2.031 . S
C153 O138 1.264 . S
C153 O140 1.273 . S
C154 O135 1.191 . S
C154 O137 1.307 . S
C155 O182 1.312 . S
C155 O183 1.208 . S
C156 O177 1.331 . S
C156 O180 1.244 . S
C157 O179 1.264 . S
C157 O181 1.273 . S
Mg158 O160 1.936 . S
Mg158 O167 2.081 . S
Mg158 O169 2.023 . S
Mg158 O173 2.031 . S
Mg158 O182 2.291 . S
Mg159 O160 1.963 . S
Mg159 O170 1.942 . S
Mg159 O171 1.955 . S
Mg159 O178 1.986 . S
O160 Mg158 1.936 . S
O160 Mg159 1.963 . S
O160 Mg161 1.915 . S
Mg161 O160 1.915 . S
Mg161 O162 1.915 . S
Mg161 O166 2.013 . S
Mg161 O172 2.114 . S
Mg161 O176 2.013 . S
Mg161 O182 2.114 . S
O162 Mg161 1.915 . S
O162 Mg163 1.936 . S
O162 Mg164 1.963 . S
Mg163 O162 1.936 . S
Mg163 O172 2.291 . S
Mg163 O177 2.081 . S
Mg163 O179 2.023 . S
Mg163 O183 2.031 . S
Mg164 O162 1.963 . S
Mg164 O168 1.986 . S
Mg164 O180 1.942 . S
Mg164 O181 1.955 . S
C165 O176 1.191 . S
C165 O178 1.307 . S
O166 Mg161 2.013 . S
O166 C185 1.191 . S
O167 Mg158 2.081 . S
O167 C175 1.331 . S
O168 Mg164 1.986 . S
O168 C185 1.307 . S
O169 Mg158 2.023 . S
O169 C184 1.264 . S
O170 Mg159 1.942 . S
O170 C175 1.244 . S
O171 Mg159 1.955 . S
O171 C184 1.273 . S
O172 Mg161 2.114 . S
O172 Mg163 2.291 . S
O172 C174 1.312 . S
O173 Mg158 2.031 . S
O173 C174 1.208 . S
C174 O172 1.312 . S
C174 O173 1.208 . S
C175 O167 1.331 . S
C175 O170 1.244 . S
O176 Mg161 2.013 . S
O176 C165 1.191 . S
O177 C156 1.331 . S
O177 Mg163 2.081 . S
O178 Mg159 1.986 . S
O178 C165 1.307 . S
O179 C157 1.264 . S
O179 Mg163 2.023 . S
O180 C156 1.244 . S
O180 Mg164 1.942 . S
O181 C157 1.273 . S
O181 Mg164 1.955 . S
O182 C155 1.312 . S
O182 Mg158 2.291 . S
O182 Mg161 2.114 . S
O183 C155 1.208 . S
O183 Mg163 2.031 . S
C184 O169 1.264 . S
C184 O171 1.273 . S
C185 O166 1.191 . S
C185 O168 1.307 . S
C186 O213 1.312 . S
C186 O214 1.208 . S
C187 O208 1.331 . S
C187 O211 1.244 . S
C188 O210 1.264 . S
C188 O212 1.273 . S
Mg189 O191 1.936 . S
Mg189 O198 2.081 . S
Mg189 O200 2.023 1_554 S
Mg189 O204 2.031 . S
Mg189 O213 2.291 . S
Mg190 O191 1.963 1_556 S
Mg190 O201 1.942 1_556 S
Mg190 O202 1.955 . S
Mg190 O209 1.986 . S
O191 Mg189 1.936 . S
O191 Mg190 1.963 1_554 S
O191 Mg192 1.915 . S
Mg192 O191 1.915 . S
Mg192 O193 1.915 1_554 S
Mg192 O197 2.013 1_554 S
Mg192 O203 2.114 . S
Mg192 O207 2.013 . S
Mg192 O213 2.114 . S
O193 Mg192 1.915 1_556 S
O193 Mg194 1.936 1_556 S
O193 Mg195 1.963 . S
Mg194 O193 1.936 1_554 S
Mg194 O203 2.291 . S
Mg194 O208 2.081 1_554 S
Mg194 O210 2.023 . S
Mg194 O214 2.031 . S
Mg195 O193 1.963 . S
Mg195 O199 1.986 . S
Mg195 O211 1.942 . S
Mg195 O212 1.955 1_556 S
C196 O207 1.191 . S
C196 O209 1.307 1_554 S
O197 Mg192 2.013 1_556 S
O197 C216 1.191 . S
O198 Mg189 2.081 . S
O198 C206 1.331 . S
O199 Mg195 1.986 . S
O199 C216 1.307 . S
O200 Mg189 2.023 1_556 S
O200 C215 1.264 . S
O201 Mg190 1.942 1_554 S
O201 C206 1.244 . S
O202 Mg190 1.955 . S
O202 C215 1.273 . S
O203 Mg192 2.114 . S
O203 Mg194 2.291 . S
O203 C205 1.312 . S
O204 Mg189 2.031 . S
O204 C205 1.208 . S
C205 O203 1.312 . S
C205 O204 1.208 . S
C206 O198 1.331 . S
C206 O201 1.244 . S
O207 Mg192 2.013 . S
O207 C196 1.191 . S
O208 C187 1.331 . S
O208 Mg194 2.081 1_556 S
O209 Mg190 1.986 . S
O209 C196 1.307 1_556 S
O210 C188 1.264 . S
O210 Mg194 2.023 . S
O211 C187 1.244 . S
O211 Mg195 1.942 . S
O212 C188 1.273 . S
O212 Mg195 1.955 1_554 S
O213 C186 1.312 . S
O213 Mg189 2.291 . S
O213 Mg192 2.114 . S
O214 C186 1.208 . S
O214 Mg194 2.031 . S
C215 O200 1.264 . S
C215 O202 1.273 . S
C216 O197 1.191 . S
C216 O199 1.307 . S
C217 O244 1.304 1_554 S
C217 O245 1.208 1_554 S
C218 O239 1.331 . S
C218 O242 1.244 . S
C219 O241 1.264 . S
C219 O243 1.273 . S
Mg220 O222 1.936 . S
Mg220 O229 2.081 . S
Mg220 O231 2.023 . S
Mg220 O235 2.031 . S
Mg220 O244 2.291 . S
Mg221 O222 1.963 . S
Mg221 O232 1.942 . S
Mg221 O233 1.955 . S
Mg221 O240 1.986 . S
O222 Mg220 1.936 . S
O222 Mg221 1.963 . S
O222 Mg223 1.915 . S
Mg223 O222 1.915 . S
Mg223 O224 1.915 . S
Mg223 O228 2.013 . S
Mg223 O234 2.114 . S
Mg223 O238 2.013 . S
Mg223 O244 2.114 . S
O224 Mg223 1.915 . S
O224 Mg225 1.936 . S
O224 Mg226 1.963 . S
Mg225 O224 1.936 . S
Mg225 O234 2.291 . S
Mg225 O239 2.081 . S
Mg225 O241 2.023 . S
Mg225 O245 2.031 . S
Mg226 O224 1.963 . S
Mg226 O230 1.986 . S
Mg226 O242 1.942 . S
Mg226 O243 1.955 . S
C227 O238 1.191 . S
C227 O240 1.307 . S
O228 Mg223 2.013 . S
O228 C247 1.191 . S
O229 Mg220 2.081 . S
O229 C237 1.331 . S
O230 Mg226 1.986 . S
O230 C247 1.307 . S
O231 Mg220 2.023 . S
O231 C246 1.264 . S
O232 Mg221 1.942 . S
O232 C237 1.244 . S
O233 Mg221 1.955 . S
O233 C246 1.273 . S
O234 Mg223 2.114 . S
O234 Mg225 2.291 . S
O234 C236 1.312 . S
O235 Mg220 2.031 . S
O235 C236 1.208 . S
C236 O234 1.312 . S
C236 O235 1.208 . S
C237 O229 1.331 . S
C237 O232 1.244 . S
O238 Mg223 2.013 . S
O238 C227 1.191 . S
O239 C218 1.331 . S
O239 Mg225 2.081 . S
O240 Mg221 1.986 . S
O240 C227 1.307 . S
O241 C219 1.264 . S
O241 Mg225 2.023 . S
O242 C218 1.244 . S
O242 Mg226 1.942 . S
O243 C219 1.273 . S
O243 Mg226 1.955 . S
O244 C217 1.304 1_556 S
O244 Mg220 2.291 . S
O244 Mg223 2.114 . S
O245 C217 1.208 1_556 S
O245 Mg225 2.031 . S
C246 O231 1.264 . S
C246 O233 1.273 . S
C247 O228 1.191 . S
C247 O230 1.307 . S
C248 O275 1.312 . S
C248 O276 1.208 . S
C249 O270 1.331 . S
C249 O273 1.244 . S
C250 O272 1.264 . S
C250 O274 1.273 . S
Mg251 O253 1.936 1_556 S
Mg251 O260 2.081 1_556 S
Mg251 O262 2.023 . S
Mg251 O266 2.031 . S
Mg251 O275 2.291 . S
Mg252 O253 1.963 . S
Mg252 O263 1.942 . S
Mg252 O264 1.955 . S
Mg252 O271 1.986 . S
O253 Mg251 1.936 1_554 S
O253 Mg252 1.963 . S
O253 Mg254 1.915 . S
Mg254 O253 1.915 . S
Mg254 O255 1.915 . S
Mg254 O259 2.013 . S
Mg254 O265 2.114 . S
Mg254 O269 2.013 . S
Mg254 O275 2.114 1_554 S
O255 Mg254 1.915 . S
O255 Mg256 1.936 1_554 S
O255 Mg257 1.963 . S
Mg256 O255 1.936 1_556 S
Mg256 O265 2.291 1_556 S
Mg256 O270 2.081 . S
Mg256 O272 2.023 1_556 S
Mg256 O276 2.031 . S
Mg257 O255 1.963 . S
Mg257 O261 1.986 . S
Mg257 O273 1.942 1_554 S
Mg257 O274 1.955 . S
C258 O269 1.191 . S
C258 O271 1.307 . S
O259 Mg254 2.013 . S
O259 C278 1.191 . S
O260 Mg251 2.081 1_554 S
O260 C268 1.331 . S
O261 Mg257 1.986 . S
O261 C278 1.307 . S
O262 Mg251 2.023 . S
O262 C277 1.264 . S
O263 Mg252 1.942 . S
O263 C268 1.244 . S
O264 Mg252 1.955 . S
O264 C277 1.273 1_554 S
O265 Mg254 2.114 . S
O265 Mg256 2.291 1_554 S
O265 C267 1.312 . S
O266 Mg251 2.031 . S
O266 C267 1.208 1_556 S
C267 O265 1.312 . S
C267 O266 1.208 1_554 S
C268 O260 1.331 . S
C268 O263 1.244 . S
O269 Mg254 2.013 . S
O269 C258 1.191 . S
O270 C249 1.331 . S
O270 Mg256 2.081 . S
O271 Mg252 1.986 . S
O271 C258 1.307 . S
O272 C250 1.264 . S
O272 Mg256 2.023 1_554 S
O273 C249 1.244 . S
O273 Mg257 1.942 1_556 S
O274 C250 1.273 . S
O274 Mg257 1.955 . S
O275 C248 1.312 . S
O275 Mg251 2.291 . S
O275 Mg254 2.114 1_556 S
O276 C248 1.208 . S
O276 Mg256 2.031 . S
C277 O262 1.264 . S
C277 O264 1.273 1_556 S
C278 O259 1.191 . S
C278 O261 1.307 . S
C279 O306 1.312 . S
C279 O307 1.208 . S
C280 O301 1.331 . S
C280 O304 1.244 . S
C281 O303 1.264 . S
C281 O305 1.273 . S
Mg282 O284 1.936 . S
Mg282 O291 2.081 . S
Mg282 O293 2.023 . S
Mg282 O297 2.031 . S
Mg282 O306 2.291 . S
Mg283 O284 1.963 . S
Mg283 O294 1.942 1_655 S
Mg283 O295 1.955 . S
Mg283 O302 1.986 . S
O284 Mg282 1.936 . S
O284 Mg283 1.963 . S
O284 Mg285 1.915 . S
Mg285 O284 1.915 . S
Mg285 O286 1.915 . S
Mg285 O290 2.013 . S
Mg285 O296 2.114 . S
Mg285 O300 2.013 . S
Mg285 O306 2.114 . S
O286 Mg285 1.915 . S
O286 Mg287 1.936 . S
O286 Mg288 1.963 . S
Mg287 O286 1.936 . S
Mg287 O296 2.291 . S
Mg287 O301 2.081 . S
Mg287 O303 2.023 . S
Mg287 O307 2.031 . S
Mg288 O286 1.963 . S
Mg288 O292 1.986 . S
Mg288 O304 1.942 . S
Mg288 O305 1.955 . S
C289 O300 1.191 . S
C289 O302 1.307 . S
O290 Mg285 2.013 . S
O290 C309 1.191 . S
O291 Mg282 2.081 . S
O291 C299 1.331 1_655 S
O292 Mg288 1.986 . S
O292 C309 1.307 . S
O293 Mg282 2.023 . S
O293 C308 1.264 . S
O294 Mg283 1.942 1_455 S
O294 C299 1.244 . S
O295 Mg283 1.955 . S
O295 C308 1.273 . S
O296 Mg285 2.114 . S
O296 Mg287 2.291 . S
O296 C298 1.312 . S
O297 Mg282 2.031 . S
O297 C298 1.208 . S
C298 O296 1.312 . S
C298 O297 1.208 . S
C299 O291 1.331 1_455 S
C299 O294 1.244 . S
O300 Mg285 2.013 . S
O300 C289 1.191 . S
O301 C280 1.331 . S
O301 Mg287 2.081 . S
O302 Mg283 1.986 . S
O302 C289 1.307 . S
O303 C281 1.264 . S
O303 Mg287 2.023 . S
O304 C280 1.244 . S
O304 Mg288 1.942 . S
O305 C281 1.273 . S
O305 Mg288 1.955 . S
O306 C279 1.312 . S
O306 Mg282 2.291 . S
O306 Mg285 2.114 . S
O307 C279 1.208 . S
O307 Mg287 2.031 . S
C308 O293 1.264 . S
C308 O295 1.273 . S
C309 O290 1.191 . S
C309 O292 1.307 . S
C310 O337 1.312 . S
C310 O338 1.208 . S
C311 O332 1.331 . S
C311 O335 1.244 . S
C312 O334 1.264 . S
C312 O336 1.273 . S
Mg313 O315 1.936 . S
Mg313 O322 2.081 . S
Mg313 O324 2.023 . S
Mg313 O328 2.031 . S
Mg313 O337 2.291 . S
Mg314 O315 1.963 . S
Mg314 O325 1.942 . S
Mg314 O326 1.955 . S
Mg314 O333 1.986 . S
O315 Mg313 1.936 . S
O315 Mg314 1.963 . S
O315 Mg316 1.915 . S
Mg316 O315 1.915 . S
Mg316 O317 1.915 . S
Mg316 O321 2.013 . S
Mg316 O327 2.114 . S
Mg316 O331 2.013 . S
Mg316 O337 2.114 . S
O317 Mg316 1.915 . S
O317 Mg318 1.936 . S
O317 Mg319 1.963 . S
Mg318 O317 1.936 . S
Mg318 O327 2.291 . S
Mg318 O332 2.081 . S
Mg318 O334 2.023 . S
Mg318 O338 2.031 . S
Mg319 O317 1.963 . S
Mg319 O323 1.986 . S
Mg319 O335 1.942 . S
Mg319 O336 1.955 . S
C320 O331 1.191 . S
C320 O333 1.307 . S
O321 Mg316 2.013 . S
O321 C340 1.191 . S
O322 Mg313 2.081 . S
O322 C330 1.331 . S
O323 Mg319 1.986 . S
O323 C340 1.307 . S
O324 Mg313 2.023 . S
O324 C339 1.264 . S
O325 Mg314 1.942 . S
O325 C330 1.244 . S
O326 Mg314 1.955 . S
O326 C339 1.273 . S
O327 Mg316 2.114 . S
O327 Mg318 2.291 . S
O327 C329 1.312 . S
O328 Mg313 2.031 . S
O328 C329 1.208 . S
C329 O327 1.312 . S
C329 O328 1.208 . S
C330 O322 1.331 . S
C330 O325 1.244 . S
O331 Mg316 2.013 . S
O331 C320 1.191 . S
O332 C311 1.331 . S
O332 Mg318 2.081 . S
O333 Mg314 1.986 . S
O333 C320 1.307 . S
O334 C312 1.264 . S
O334 Mg318 2.023 . S
O335 C311 1.244 . S
O335 Mg319 1.942 . S
O336 C312 1.273 . S
O336 Mg319 1.955 . S
O337 C310 1.312 . S
O337 Mg313 2.291 . S
O337 Mg316 2.114 . S
O338 C310 1.208 . S
O338 Mg318 2.031 . S
C339 O324 1.264 . S
C339 O326 1.273 . S
C340 O321 1.191 . S
C340 O323 1.307 . S
C341 O368 1.312 . S
C341 O369 1.208 . S
C342 O363 1.331 1_565 S
C342 O366 1.244 . S
C343 O365 1.264 . S
C343 O367 1.273 . S
Mg344 O346 1.936 . S
Mg344 O353 2.081 . S
Mg344 O355 2.023 . S
Mg344 O359 2.031 . S
Mg344 O368 2.291 . S
Mg345 O346 1.963 . S
Mg345 O356 1.942 . S
Mg345 O357 1.955 . S
Mg345 O364 1.986 1_556 S
O346 Mg344 1.936 . S
O346 Mg345 1.963 . S
O346 Mg347 1.915 . S
Mg347 O346 1.915 . S
Mg347 O348 1.915 . S
Mg347 O352 2.013 . S
Mg347 O358 2.114 . S
Mg347 O362 2.013 . S
Mg347 O368 2.114 . S
O348 Mg347 1.915 . S
O348 Mg349 1.936 . S
O348 Mg350 1.963 . S
Mg349 O348 1.936 . S
Mg349 O358 2.291 . S
Mg349 O363 2.081 . S
Mg349 O365 2.023 . S
Mg349 O369 2.031 . S
Mg350 O348 1.963 . S
Mg350 O354 1.986 . S
Mg350 O366 1.942 1_545 S
Mg350 O367 1.955 . S
C351 O362 1.191 1_554 S
C351 O364 1.307 . S
O352 Mg347 2.013 . S
O352 C371 1.191 . S
O353 Mg344 2.081 . S
O353 C361 1.331 . S
O354 Mg350 1.986 . S
O354 C371 1.307 . S
O355 Mg344 2.023 . S
O355 C370 1.264 . S
O356 Mg345 1.942 . S
O356 C361 1.244 . S
O357 Mg345 1.955 . S
O357 C370 1.273 . S
O358 Mg347 2.114 . S
O358 Mg349 2.291 . S
O358 C360 1.312 . S
O359 Mg344 2.031 . S
O359 C360 1.208 . S
C360 O358 1.312 . S
C360 O359 1.208 . S
C361 O353 1.331 . S
C361 O356 1.244 . S
O362 Mg347 2.013 . S
O362 C351 1.191 1_556 S
O363 C342 1.331 1_545 S
O363 Mg349 2.081 . S
O364 Mg345 1.986 1_554 S
O364 C351 1.307 . S
O365 C343 1.264 . S
O365 Mg349 2.023 . S
O366 C342 1.244 . S
O366 Mg350 1.942 1_565 S
O367 C343 1.273 . S
O367 Mg350 1.955 . S
O368 C341 1.312 . S
O368 Mg344 2.291 . S
O368 Mg347 2.114 . S
O369 C341 1.208 . S
O369 Mg349 2.031 . S
C370 O355 1.264 . S
C370 O357 1.273 . S
C371 O352 1.191 . S
C371 O354 1.307 . S
C372 O399 1.312 . S
C372 O400 1.208 . S
C373 O394 1.331 . S
C373 O397 1.244 . S
C374 O396 1.264 . S
C374 O398 1.273 . S
Mg375 O377 1.936 . S
Mg375 O384 2.081 . S
Mg375 O386 2.023 1_554 S
Mg375 O390 2.031 . S
Mg375 O399 2.291 . S
Mg376 O377 1.963 1_556 S
Mg376 O387 1.942 1_556 S
Mg376 O388 1.955 . S
Mg376 O395 1.986 . S
O377 Mg375 1.936 . S
O377 Mg376 1.963 1_554 S
O377 Mg378 1.915 1_554 S
Mg378 O377 1.915 1_556 S
Mg378 O379 1.915 . S
Mg378 O383 2.013 . S
Mg378 O389 2.114 1_556 S
Mg378 O393 2.013 1_556 S
Mg378 O399 2.114 1_556 S
O379 Mg378 1.915 . S
O379 Mg380 1.936 1_556 S
O379 Mg381 1.963 . S
Mg380 O379 1.936 1_554 S
Mg380 O389 2.291 . S
Mg380 O394 2.081 1_554 S
Mg380 O396 2.023 . S
Mg380 O400 2.031 . S
Mg381 O379 1.963 . S
Mg381 O385 1.986 . S
Mg381 O397 1.942 . S
Mg381 O398 1.955 1_556 S
C382 O393 1.190 1_556 S
C382 O395 1.309 . S
O383 Mg378 2.013 . S
O383 C402 1.191 . S
O384 Mg375 2.081 . S
O384 C392 1.331 . S
O385 Mg381 1.986 . S
O385 C402 1.307 . S
O386 Mg375 2.023 1_556 S
O386 C401 1.264 . S
O387 Mg376 1.942 1_554 S
O387 C392 1.244 . S
O388 Mg376 1.955 . S
O388 C401 1.273 . S
O389 Mg378 2.114 1_554 S
O389 Mg380 2.291 . S
O389 C391 1.312 . S
O390 Mg375 2.031 . S
O390 C391 1.208 . S
C391 O389 1.312 . S
C391 O390 1.208 . S
C392 O384 1.331 . S
C392 O387 1.244 . S
O393 Mg378 2.013 1_554 S
O393 C382 1.190 1_554 S
O394 C373 1.331 . S
O394 Mg380 2.081 1_556 S
O395 Mg376 1.986 . S
O395 C382 1.309 . S
O396 C374 1.264 . S
O396 Mg380 2.023 . S
O397 C373 1.244 . S
O397 Mg381 1.942 . S
O398 C374 1.273 . S
O398 Mg381 1.955 1_554 S
O399 C372 1.312 . S
O399 Mg375 2.291 . S
O399 Mg378 2.114 1_554 S
O400 C372 1.208 . S
O400 Mg380 2.031 . S
C401 O386 1.264 . S
C401 O388 1.273 . S
C402 O383 1.191 . S
C402 O385 1.307 . S
C403 O430 1.312 1_554 S
C403 O431 1.208 . S
C404 O425 1.331 1_565 S
C404 O428 1.244 . S
C405 O427 1.269 . S
C405 O429 1.273 . S
Mg406 O408 1.936 . S
Mg406 O415 2.081 . S
Mg406 O417 2.023 . S
Mg406 O421 2.031 . S
Mg406 O430 2.291 . S
Mg407 O408 1.963 . S
Mg407 O418 1.942 . S
Mg407 O419 1.955 . S
Mg407 O426 1.986 . S
O408 Mg406 1.936 . S
O408 Mg407 1.963 . S
O408 Mg409 1.915 . S
Mg409 O408 1.915 . S
Mg409 O410 1.915 . S
Mg409 O414 2.013 . S
Mg409 O420 2.114 . S
Mg409 O424 2.013 . S
Mg409 O430 2.114 . S
O410 Mg409 1.915 . S
O410 Mg411 1.936 . S
O410 Mg412 1.963 . S
Mg411 O410 1.936 . S
Mg411 O420 2.291 . S
Mg411 O425 2.081 . S
Mg411 O427 2.039 . S
Mg411 O431 2.031 1_556 S
Mg412 O410 1.963 . S
Mg412 O416 1.986 . S
Mg412 O428 1.942 1_545 S
Mg412 O429 1.955 . S
C413 O424 1.191 . S
C413 O426 1.307 . S
O414 Mg409 2.013 . S
O414 C433 1.191 . S
O415 Mg406 2.081 . S
O415 C423 1.331 . S
O416 Mg412 1.986 . S
O416 C433 1.307 . S
O417 Mg406 2.023 . S
O417 C432 1.264 . S
O418 Mg407 1.942 . S
O418 C423 1.244 . S
O419 Mg407 1.955 . S
O419 C432 1.273 . S
O420 Mg409 2.114 . S
O420 Mg411 2.291 . S
O420 C422 1.312 . S
O421 Mg406 2.031 . S
O421 C422 1.208 . S
C422 O420 1.312 . S
C422 O421 1.208 . S
C423 O415 1.331 . S
C423 O418 1.244 . S
O424 Mg409 2.013 . S
O424 C413 1.191 . S
O425 C404 1.331 1_545 S
O425 Mg411 2.081 . S
O426 Mg407 1.986 . S
O426 C413 1.307 . S
O427 C405 1.269 . S
O427 Mg411 2.039 . S
O428 C404 1.244 . S
O428 Mg412 1.942 1_565 S
O429 C405 1.273 . S
O429 Mg412 1.955 . S
O430 C403 1.312 1_556 S
O430 Mg406 2.291 . S
O430 Mg409 2.114 . S
O431 C403 1.208 . S
O431 Mg411 2.031 1_554 S
C432 O417 1.264 . S
C432 O419 1.273 . S
C433 O414 1.191 . S
C433 O416 1.307 . S
C434 O461 1.312 . S
C434 O462 1.208 . S
C435 O456 1.331 . S
C435 O459 1.244 . S
C436 O458 1.264 . S
C436 O460 1.273 . S
Mg437 O439 1.936 . S
Mg437 O446 2.081 . S
Mg437 O448 2.023 . S
Mg437 O452 2.031 . S
Mg437 O461 2.291 . S
Mg438 O439 1.963 . S
Mg438 O449 1.942 . S
Mg438 O450 1.955 . S
Mg438 O457 1.986 . S
O439 Mg437 1.936 . S
O439 Mg438 1.963 . S
O439 Mg440 1.915 . S
Mg440 O439 1.915 . S
Mg440 O441 1.915 . S
Mg440 O445 2.013 . S
Mg440 O451 2.114 . S
Mg440 O455 2.013 . S
Mg440 O461 2.114 . S
O441 Mg440 1.915 . S
O441 Mg442 1.936 . S
O441 Mg443 1.963 . S
Mg442 O441 1.936 . S
Mg442 O451 2.291 . S
Mg442 O456 2.081 . S
Mg442 O458 2.023 . S
Mg442 O462 2.031 . S
Mg443 O441 1.963 . S
Mg443 O447 1.986 . S
Mg443 O459 1.942 . S
Mg443 O460 1.955 . S
C444 O455 1.191 . S
C444 O457 1.307 . S
O445 Mg440 2.013 . S
O445 C464 1.191 . S
O446 Mg437 2.081 . S
O446 C454 1.331 . S
O447 Mg443 1.986 . S
O447 C464 1.307 . S
O448 Mg437 2.023 . S
O448 C463 1.264 . S
O449 Mg438 1.942 . S
O449 C454 1.244 . S
O450 Mg438 1.955 . S
O450 C463 1.273 . S
O451 Mg440 2.114 . S
O451 Mg442 2.291 . S
O451 C453 1.312 . S
O452 Mg437 2.031 . S
O452 C453 1.208 . S
C453 O451 1.312 . S
C453 O452 1.208 . S
C454 O446 1.331 . S
C454 O449 1.244 . S
O455 Mg440 2.013 . S
O455 C444 1.191 . S
O456 C435 1.331 . S
O456 Mg442 2.081 . S
O457 Mg438 1.986 . S
O457 C444 1.307 . S
O458 C436 1.264 . S
O458 Mg442 2.023 . S
O459 C435 1.244 . S
O459 Mg443 1.942 . S
O460 C436 1.273 . S
O460 Mg443 1.955 . S
O461 C434 1.312 . S
O461 Mg437 2.291 . S
O461 Mg440 2.114 . S
O462 C434 1.208 . S
O462 Mg442 2.031 . S
C463 O448 1.264 . S
C463 O450 1.273 . S
C464 O445 1.191 . S
C464 O447 1.307 . S
C465 O492 1.312 . S
C465 O493 1.208 . S
C466 O487 1.331 1_545 S
C466 O490 1.244 . S
C467 O489 1.264 . S
C467 O491 1.273 . S
Mg468 O470 1.936 . S
Mg468 O477 2.081 . S
Mg468 O479 2.023 . S
Mg468 O483 2.031 . S
Mg468 O492 2.291 . S
Mg469 O470 1.963 . S
Mg469 O480 1.942 . S
Mg469 O481 1.955 . S
Mg469 O488 1.986 1_554 S
O470 Mg468 1.936 . S
O470 Mg469 1.963 . S
O470 Mg471 1.915 . S
Mg471 O470 1.915 . S
Mg471 O472 1.915 . S
Mg471 O476 2.013 . S
Mg471 O482 2.114 . S
Mg471 O486 2.013 . S
Mg471 O492 2.114 . S
O472 Mg471 1.915 . S
O472 Mg473 1.936 . S
O472 Mg474 1.963 . S
Mg473 O472 1.936 . S
Mg473 O482 2.291 . S
Mg473 O487 2.081 . S
Mg473 O489 2.023 . S
Mg473 O493 2.031 . S
Mg474 O472 1.963 . S
Mg474 O478 1.986 . S
Mg474 O490 1.942 1_565 S
Mg474 O491 1.955 . S
C475 O486 1.184 1_556 S
C475 O488 1.307 . S
O476 Mg471 2.013 . S
O476 C495 1.191 . S
O477 Mg468 2.081 . S
O477 C485 1.331 . S
O478 Mg474 1.986 . S
O478 C495 1.307 . S
O479 Mg468 2.023 . S
O479 C494 1.264 . S
O480 Mg469 1.942 . S
O480 C485 1.244 . S
O481 Mg469 1.955 . S
O481 C494 1.273 . S
O482 Mg471 2.114 . S
O482 Mg473 2.291 . S
O482 C484 1.312 . S
O483 Mg468 2.031 . S
O483 C484 1.208 . S
C484 O482 1.312 . S
C484 O483 1.208 . S
C485 O477 1.331 . S
C485 O480 1.244 . S
O486 Mg471 2.013 . S
O486 C475 1.184 1_554 S
O487 C466 1.331 1_565 S
O487 Mg473 2.081 . S
O488 Mg469 1.986 1_556 S
O488 C475 1.307 . S
O489 C467 1.264 . S
O489 Mg473 2.023 . S
O490 C466 1.244 . S
O490 Mg474 1.942 1_545 S
O491 C467 1.273 . S
O491 Mg474 1.955 . S
O492 C465 1.312 . S
O492 Mg468 2.291 . S
O492 Mg471 2.114 . S
O493 C465 1.208 . S
O493 Mg473 2.031 . S
C494 O479 1.264 . S
C494 O481 1.273 . S
C495 O476 1.191 . S
C495 O478 1.307 . S
C496 C497 1.387 . S
C496 H500 0.950 . S
C496 C505 1.390 . S
C497 C496 1.387 . S
C497 C499 1.387 . S
H498 C505 0.950 . S
C499 C497 1.387 . S
C499 C501 1.390 . S
C499 H503 0.950 . S
H500 C496 0.950 . S
C501 C499 1.390 . S
C501 C502 1.387 . S
C501 H504 0.950 . S
C502 C501 1.387 . S
C502 C505 1.387 . S
H503 C499 0.950 . S
H504 C501 0.950 . S
C505 C496 1.390 . S
C505 H498 0.950 . S
C505 C502 1.387 . S
C506 C507 1.387 . S
C506 H510 0.950 . S
C506 C515 1.390 . S
C507 C506 1.387 . S
C507 C509 1.387 . S
H508 C515 0.950 . S
C509 C507 1.387 . S
C509 C511 1.390 . S
C509 H513 0.950 . S
H510 C506 0.950 . S
C511 C509 1.390 . S
C511 C512 1.387 . S
C511 H514 0.950 . S
C512 C511 1.387 . S
C512 C515 1.387 . S
H513 C509 0.950 . S
H514 C511 0.950 . S
C515 C506 1.390 . S
C515 H508 0.950 . S
C515 C512 1.387 . S
C516 C517 1.387 . S
C516 H520 0.950 1_554 S
C516 C525 1.390 . S
C517 C516 1.387 . S
C517 C519 1.387 . S
H518 C525 0.950 1_556 S
C519 C517 1.387 . S
C519 C521 1.390 . S
C519 H523 0.950 . S
H520 C516 0.950 1_556 S
C521 C519 1.390 . S
C521 C522 1.387 . S
C521 H524 0.950 . S
C522 C521 1.387 . S
C522 C525 1.387 . S
H523 C519 0.950 . S
H524 C521 0.950 . S
C525 C516 1.390 . S
C525 H518 0.950 1_554 S
C525 C522 1.387 . S
C526 C527 1.387 . S
C526 H530 0.950 . S
C526 C535 1.390 . S
C527 C526 1.387 . S
C527 C529 1.387 . S
H528 C535 0.950 1_455 S
C529 C527 1.387 . S
C529 C531 1.390 . S
C529 H533 0.950 . S
H530 C526 0.950 . S
C531 C529 1.390 . S
C531 C532 1.387 1_655 S
C531 H534 0.941 1_655 S
C532 C531 1.387 1_455 S
C532 C535 1.387 1_455 S
H533 C529 0.950 . S
H534 C531 0.941 1_455 S
C535 C526 1.390 . S
C535 H528 0.950 1_655 S
C535 C532 1.387 1_655 S
C536 C537 1.387 . S
C536 H540 0.950 . S
C536 C545 1.390 . S
C537 C536 1.387 . S
C537 C539 1.387 . S
H538 C545 0.950 . S
C539 C537 1.387 . S
C539 C541 1.390 . S
C539 H543 0.950 . S
H540 C536 0.950 . S
C541 C539 1.390 . S
C541 C542 1.387 . S
C541 H544 0.950 . S
C542 C541 1.387 . S
C542 C545 1.387 . S
H543 C539 0.950 . S
H544 C541 0.950 . S
C545 C536 1.390 . S
C545 H538 0.950 . S
C545 C542 1.387 . S
C546 C547 1.387 . S
C546 H550 0.950 . S
C546 C555 1.390 . S
C547 C546 1.387 . S
C547 C549 1.387 . S
H548 C555 0.950 . S
C549 C547 1.387 . S
C549 C551 1.390 . S
C549 H553 0.950 . S
H550 C546 0.950 . S
C551 C549 1.390 . S
C551 C552 1.387 . S
C551 H554 0.950 . S
C552 C551 1.387 . S
C552 C555 1.387 . S
H553 C549 0.950 . S
H554 C551 0.950 . S
C555 C546 1.390 . S
C555 H548 0.950 . S
C555 C552 1.387 . S
C556 C557 1.387 1_554 S
C556 H560 0.950 . S
C556 C565 1.390 . S
C557 C556 1.387 1_556 S
C557 C559 1.387 . S
H558 C565 0.950 . S
C559 C557 1.387 . S
C559 C561 1.390 . S
C559 H563 0.950 . S
H560 C556 0.950 . S
C561 C559 1.390 . S
C561 C562 1.387 . S
C561 H564 0.950 . S
C562 C561 1.387 . S
C562 C565 1.387 1_556 S
H563 C559 0.950 . S
H564 C561 0.950 . S
C565 C556 1.390 . S
C565 H558 0.950 . S
C565 C562 1.387 1_554 S
C566 C567 1.387 1_455 S
C566 H570 0.950 1_455 S
C566 C575 1.390 . S
C567 C566 1.387 1_655 S
C567 C569 1.387 1_655 S
H568 C575 0.950 . S
C569 C567 1.387 1_455 S
C569 C571 1.390 . S
C569 H573 0.950 1_455 S
H570 C566 0.950 1_655 S
C571 C569 1.390 . S
C571 C572 1.387 . S
C571 H574 0.950 . S
C572 C571 1.387 . S
C572 C575 1.387 . S
H573 C569 0.950 1_655 S
H574 C571 0.950 . S
C575 C566 1.390 . S
C575 H568 0.950 . S
C575 C572 1.387 . S
C576 C577 1.387 1_556 S
C576 H580 0.950 . S
C576 C585 1.390 . S
C577 C576 1.387 1_554 S
C577 C579 1.387 . S
H578 C585 0.950 . S
C579 C577 1.387 . S
C579 C581 1.390 . S
C579 H583 0.950 . S
H580 C576 0.950 . S
C581 C579 1.390 . S
C581 C582 1.387 . S
C581 H584 0.950 . S
C582 C581 1.387 . S
C582 C585 1.387 1_554 S
H583 C579 0.950 . S
H584 C581 0.950 . S
C585 C576 1.390 . S
C585 H578 0.950 . S
C585 C582 1.387 1_556 S
C586 C587 1.387 1_455 S
C586 H590 0.950 . S
C586 C595 1.390 . S
C587 C586 1.387 1_655 S
C587 C589 1.387 1_655 S
H588 C595 0.950 . S
C589 C587 1.387 1_455 S
C589 C591 1.390 . S
C589 H593 0.950 1_455 S
H590 C586 0.950 . S
C591 C589 1.390 . S
C591 C592 1.387 . S
C591 H594 0.950 . S
C592 C591 1.387 . S
C592 C595 1.387 . S
H593 C589 0.950 1_655 S
H594 C591 0.950 . S
C595 C586 1.390 . S
C595 H588 0.950 . S
C595 C592 1.387 . S
C596 C597 1.387 . S
C596 H600 0.950 . S
C596 C605 1.390 . S
C597 C596 1.387 . S
C597 C599 1.387 . S
H598 C605 0.950 . S
C599 C597 1.387 . S
C599 C601 1.390 . S
C599 H603 0.950 . S
H600 C596 0.950 . S
C601 C599 1.390 . S
C601 C602 1.387 . S
C601 H604 0.950 . S
C602 C601 1.387 . S
C602 C605 1.387 . S
H603 C599 0.950 . S
H604 C601 0.950 . S
C605 C596 1.390 . S
C605 H598 0.950 . S
C605 C602 1.387 . S
C606 C607 1.387 . S
C606 H610 0.950 . S
C606 C615 1.390 . S
C607 C606 1.387 . S
C607 C609 1.387 . S
H608 C615 0.950 . S
C609 C607 1.387 . S
C609 C611 1.390 . S
C609 H613 0.950 . S
H610 C606 0.950 . S
C611 C609 1.390 . S
C611 C612 1.387 . S
C611 H614 0.950 . S
C612 C611 1.387 . S
C612 C615 1.387 . S
H613 C609 0.950 . S
H614 C611 0.950 . S
C615 C606 1.390 . S
C615 H608 0.950 . S
C615 C612 1.387 . S
C616 C617 1.387 1_554 S
C616 H620 0.950 . S
C616 C625 1.390 . S
C617 C616 1.387 1_556 S
C617 C619 1.387 . S
H618 C625 0.950 . S
C619 C617 1.387 . S
C619 C621 1.390 . S
C619 H623 0.950 . S
H620 C616 0.950 . S
C621 C619 1.390 . S
C621 C622 1.387 . S
C621 H624 0.950 . S
C622 C621 1.387 . S
C622 C625 1.387 1_556 S
H623 C619 0.950 . S
H624 C621 0.950 . S
C625 C616 1.390 . S
C625 H618 0.950 . S
C625 C622 1.387 1_554 S
C626 C627 1.387 . S
C626 H630 0.950 . S
C626 C635 1.390 . S
C627 C626 1.387 . S
C627 C629 1.387 . S
H628 C635 0.950 . S
C629 C627 1.387 . S
C629 C631 1.390 . S
C629 H633 0.950 . S
H630 C626 0.950 . S
C631 C629 1.390 . S
C631 C632 1.387 . S
C631 H634 0.950 . S
C632 C631 1.387 . S
C632 C635 1.387 . S
H633 C629 0.950 . S
H634 C631 0.950 . S
C635 C626 1.390 . S
C635 H628 0.950 . S
C635 C632 1.387 . S
C636 C637 1.387 . S
C636 H640 0.950 . S
C636 C645 1.390 . S
C637 C636 1.387 . S
C637 C639 1.387 . S
H638 C645 0.950 . S
C639 C637 1.387 . S
C639 C641 1.390 . S
C639 H643 0.950 . S
H640 C636 0.950 . S
C641 C639 1.390 . S
C641 C642 1.387 . S
C641 H644 0.950 . S
C642 C641 1.387 . S
C642 C645 1.387 . S
H643 C639 0.950 . S
H644 C641 0.950 . S
C645 C636 1.390 . S
C645 H638 0.950 . S
C645 C642 1.387 . S
C646 C647 1.387 . S
C646 H650 0.950 . S
C646 C655 1.390 . S
C647 C646 1.387 . S
C647 C649 1.387 . S
H648 C655 0.950 . S
C649 C647 1.387 . S
C649 C651 1.390 . S
C649 H653 0.950 . S
H650 C646 0.950 . S
C651 C649 1.390 . S
C651 C652 1.387 . S
C651 H654 0.950 . S
C652 C651 1.387 . S
C652 C655 1.387 . S
H653 C649 0.950 . S
H654 C651 0.950 . S
C655 C646 1.390 . S
C655 H648 0.950 . S
C655 C652 1.387 . S
C656 C657 1.387 . S
C656 H660 0.950 . S
C656 C665 1.390 1_554 S
C657 C656 1.387 . S
C657 C659 1.387 . S
H658 C665 0.950 . S
C659 C657 1.387 . S
C659 C661 1.390 1_554 S
C659 H663 0.950 . S
H660 C656 0.950 . S
C661 C659 1.390 1_556 S
C661 C662 1.387 . S
C661 H664 0.950 . S
C662 C661 1.387 . S
C662 C665 1.387 . S
H663 C659 0.950 . S
H664 C661 0.950 . S
C665 C656 1.390 1_556 S
C665 H658 0.950 . S
C665 C662 1.387 . S
C666 C667 1.387 . S
C666 H670 0.950 . S
C666 C675 1.390 . S
C667 C666 1.387 . S
C667 C669 1.387 . S
H668 C675 0.950 . S
C669 C667 1.387 . S
C669 C671 1.390 . S
C669 H673 0.950 . S
H670 C666 0.950 . S
C671 C669 1.390 . S
C671 C672 1.387 . S
C671 H674 0.950 . S
C672 C671 1.387 . S
C672 C675 1.387 . S
H673 C669 0.950 . S
H674 C671 0.950 . S
C675 C666 1.390 . S
C675 H668 0.950 . S
C675 C672 1.387 . S
C676 C677 1.387 . S
C676 H680 0.950 . S
C676 C685 1.390 . S
C677 C676 1.387 . S
C677 C679 1.387 . S
H678 C685 0.950 . S
C679 C677 1.387 . S
C679 C681 1.390 . S
C679 H683 0.950 . S
H680 C676 0.950 . S
C681 C679 1.390 . S
C681 C682 1.387 . S
C681 H684 0.950 . S
C682 C681 1.387 . S
C682 C685 1.387 . S
H683 C679 0.950 . S
H684 C681 0.950 . S
C685 C676 1.390 . S
C685 H678 0.950 . S
C685 C682 1.387 . S
C686 C687 1.387 . S
C686 H690 0.950 . S
C686 C695 1.390 . S
C687 C686 1.387 . S
C687 C689 1.387 . S
H688 C695 0.950 . S
C689 C687 1.387 . S
C689 C691 1.390 . S
C689 H693 0.950 . S
H690 C686 0.950 . S
C691 C689 1.390 . S
C691 C692 1.387 . S
C691 H694 0.950 . S
C692 C691 1.387 . S
C692 C695 1.387 . S
H693 C689 0.950 . S
H694 C691 0.950 . S
C695 C686 1.390 . S
C695 H688 0.950 . S
C695 C692 1.387 . S
C696 C697 1.387 . S
C696 H700 0.950 . S
C696 C705 1.390 1_554 S
C697 C696 1.387 . S
C697 C699 1.387 . S
H698 C705 0.950 . S
C699 C697 1.387 . S
C699 C701 1.390 1_554 S
C699 H703 0.950 . S
H700 C696 0.950 . S
C701 C699 1.390 1_556 S
C701 C702 1.387 . S
C701 H704 0.950 . S
C702 C701 1.387 . S
C702 C705 1.387 . S
H703 C699 0.950 . S
H704 C701 0.950 . S
C705 C696 1.390 1_556 S
C705 H698 0.950 . S
C705 C702 1.387 . S
C706 C707 1.387 . S
C706 H710 0.950 . S
C706 C715 1.390 . S
C707 C706 1.387 . S
C707 C709 1.387 . S
H708 C715 0.950 . S
C709 C707 1.387 . S
C709 C711 1.390 . S
C709 H713 0.950 . S
H710 C706 0.950 . S
C711 C709 1.390 . S
C711 C712 1.387 . S
C711 H714 0.950 . S
C712 C711 1.387 . S
C712 C715 1.387 . S
H713 C709 0.950 . S
H714 C711 0.950 . S
C715 C706 1.390 . S
C715 H708 0.950 . S
C715 C712 1.387 . S
C716 C717 1.387 . S
C716 H720 0.950 . S
C716 C725 1.390 . S
C717 C716 1.387 . S
C717 C719 1.387 . S
H718 C725 0.950 . S
C719 C717 1.387 . S
C719 C721 1.390 . S
C719 H723 0.950 . S
H720 C716 0.950 . S
C721 C719 1.390 . S
C721 C722 1.387 . S
C721 H724 0.950 . S
C722 C721 1.387 . S
C722 C725 1.387 . S
H723 C719 0.950 . S
H724 C721 0.950 . S
C725 C716 1.390 . S
C725 H718 0.950 . S
C725 C722 1.387 . S
C726 C727 1.387 . S
C726 H730 0.950 . S
C726 C735 1.390 . S
C727 C726 1.387 . S
C727 C729 1.387 . S
H728 C735 0.950 . S
C729 C727 1.387 . S
C729 C731 1.390 . S
C729 H733 0.950 . S
H730 C726 0.950 . S
C731 C729 1.390 . S
C731 C732 1.387 . S
C731 H734 0.950 . S
C732 C731 1.387 . S
C732 C735 1.387 . S
H733 C729 0.950 . S
H734 C731 0.950 . S
C735 C726 1.390 . S
C735 H728 0.950 . S
C735 C732 1.387 . S
C736 C737 1.387 . S
C736 H740 0.950 . S
C736 C745 1.390 . S
C737 C736 1.387 . S
C737 C739 1.387 . S
H738 C745 0.950 . S
C739 C737 1.387 . S
C739 C741 1.390 . S
C739 H743 0.950 . S
H740 C736 0.950 . S
C741 C739 1.390 . S
C741 C742 1.387 . S
C741 H744 0.950 . S
C742 C741 1.387 . S
C742 C745 1.387 . S
H743 C739 0.950 . S
H744 C741 0.950 . S
C745 C736 1.390 . S
C745 H738 0.950 . S
C745 C742 1.387 . S
C746 C747 1.387 . S
C746 H750 0.950 . S
C746 C755 1.390 . S
C747 C746 1.387 . S
C747 C749 1.387 . S
H748 C755 0.950 . S
C749 C747 1.387 . S
C749 C751 1.390 . S
C749 H753 0.950 . S
H750 C746 0.950 . S
C751 C749 1.390 . S
C751 C752 1.387 . S
C751 H754 0.950 . S
C752 C751 1.387 . S
C752 C755 1.387 . S
H753 C749 0.950 . S
H754 C751 0.950 . S
C755 C746 1.390 . S
C755 H748 0.950 . S
C755 C752 1.387 . S
C756 C757 1.387 . S
C756 H760 0.950 . S
C756 C765 1.390 1_554 S
C757 C756 1.387 . S
C757 C759 1.387 . S
H758 C765 0.950 . S
C759 C757 1.387 . S
C759 C761 1.390 1_554 S
C759 H763 0.950 . S
H760 C756 0.950 . S
C761 C759 1.390 1_556 S
C761 C762 1.387 . S
C761 H764 0.950 . S
C762 C761 1.387 . S
C762 C765 1.387 . S
H763 C759 0.950 . S
H764 C761 0.950 . S
C765 C756 1.390 1_556 S
C765 H758 0.950 . S
C765 C762 1.387 . S
C766 C767 1.387 . S
C766 H770 0.950 . S
C766 C775 1.390 . S
C767 C766 1.387 . S
C767 C769 1.387 . S
H768 C775 0.950 . S
C769 C767 1.387 . S
C769 C771 1.390 . S
C769 H773 0.950 . S
H770 C766 0.950 . S
C771 C769 1.390 . S
C771 C772 1.387 . S
C771 H774 0.950 . S
C772 C771 1.387 . S
C772 C775 1.387 . S
H773 C769 0.950 . S
H774 C771 0.950 . S
C775 C766 1.390 . S
C775 H768 0.950 . S
C775 C772 1.387 . S
C776 C777 1.387 . S
C776 H780 0.950 . S
C776 C785 1.390 . S
C777 C776 1.387 . S
C777 C779 1.387 . S
H778 C785 0.950 . S
C779 C777 1.387 . S
C779 C781 1.390 . S
C779 H783 0.950 . S
H780 C776 0.950 . S
C781 C779 1.390 . S
C781 C782 1.387 . S
C781 H784 0.950 . S
C782 C781 1.387 . S
C782 C785 1.387 . S
H783 C779 0.950 . S
H784 C781 0.950 . S
C785 C776 1.390 . S
C785 H778 0.950 . S
C785 C782 1.387 . S
C786 C787 1.387 . S
C786 H790 0.950 . S
C786 C795 1.390 . S
C787 C786 1.387 . S
C787 C789 1.387 . S
H788 C795 0.950 . S
C789 C787 1.387 . S
C789 C791 1.390 . S
C789 H793 0.950 . S
H790 C786 0.950 . S
C791 C789 1.390 . S
C791 C792 1.387 . S
C791 H794 0.950 . S
C792 C791 1.387 . S
C792 C795 1.387 . S
H793 C789 0.950 . S
H794 C791 0.950 . S
C795 C786 1.390 . S
C795 H788 0.950 . S
C795 C792 1.387 . S
C796 C797 1.387 . S
C796 H800 0.950 . S
C796 C805 1.390 1_554 S
C797 C796 1.387 . S
C797 C799 1.387 . S
H798 C805 0.950 . S
C799 C797 1.387 . S
C799 C801 1.390 1_554 S
C799 H803 0.950 . S
H800 C796 0.950 . S
C801 C799 1.390 1_556 S
C801 C802 1.387 . S
C801 H804 0.950 . S
C802 C801 1.387 . S
C802 C805 1.387 . S
H803 C799 0.950 . S
H804 C801 0.950 . S
C805 C796 1.390 1_556 S
C805 H798 0.950 . S
C805 C802 1.387 . S
C806 C807 1.387 . S
C806 H810 0.950 . S
C806 C815 1.390 . S
C807 C806 1.387 . S
C807 C809 1.387 . S
H808 C815 0.950 . S
C809 C807 1.387 . S
C809 C811 1.390 . S
C809 H813 0.950 . S
H810 C806 0.950 . S
C811 C809 1.390 . S
C811 C812 1.387 . S
C811 H814 0.950 . S
C812 C811 1.387 . S
C812 C815 1.387 . S
H813 C809 0.950 . S
H814 C811 0.950 . S
C815 C806 1.390 . S
C815 H808 0.950 . S
C815 C812 1.387 . S
C816 C817 1.387 . S
C816 H820 0.950 . S
C816 C825 1.390 . S
C817 C816 1.387 . S
C817 C819 1.387 . S
H818 C825 0.950 . S
C819 C817 1.387 . S
C819 C821 1.390 . S
C819 H823 0.950 . S
H820 C816 0.950 . S
C821 C819 1.390 . S
C821 C822 1.387 . S
C821 H824 0.950 . S
C822 C821 1.387 . S
C822 C825 1.387 . S
H823 C819 0.950 . S
H824 C821 0.950 . S
C825 C816 1.390 . S
C825 H818 0.950 . S
C825 C822 1.387 . S
C826 C827 1.387 . S
C826 H830 0.950 . S
C826 C835 1.390 . S
C827 C826 1.387 . S
C827 C829 1.387 . S
H828 C835 0.950 . S
C829 C827 1.387 . S
C829 C831 1.390 . S
C829 H833 0.950 . S
H830 C826 0.950 . S
C831 C829 1.390 . S
C831 C832 1.387 . S
C831 H834 0.950 . S
C832 C831 1.387 . S
C832 C835 1.387 . S
H833 C829 0.950 . S
H834 C831 0.950 . S
C835 C826 1.390 . S
C835 H828 0.950 . S
C835 C832 1.387 . S
C836 C837 1.387 . S
C836 H840 0.950 . S
C836 C845 1.390 . S
C837 C836 1.387 . S
C837 C839 1.387 . S
H838 C845 0.950 . S
C839 C837 1.387 . S
C839 C841 1.390 . S
C839 H843 0.950 . S
H840 C836 0.950 . S
C841 C839 1.390 . S
C841 C842 1.387 . S
C841 H844 0.950 . S
C842 C841 1.387 . S
C842 C845 1.387 . S
H843 C839 0.950 . S
H844 C841 0.950 . S
C845 C836 1.390 . S
C845 H838 0.950 . S
C845 C842 1.387 . S
C846 C847 1.387 1_556 S
C846 H850 0.950 . S
C846 C855 1.390 1_455 S
C847 C846 1.387 1_554 S
C847 C849 1.387 . S
H848 C855 0.950 . S
C849 C847 1.387 . S
C849 C851 1.390 1_455 S
C849 H853 0.950 . S
H850 C846 0.950 . S
C851 C849 1.390 1_655 S
C851 C852 1.387 1_554 S
C851 H854 0.950 . S
C852 C851 1.387 1_556 S
C852 C855 1.387 . S
H853 C849 0.950 . S
H854 C851 0.950 . S
C855 C846 1.390 1_655 S
C855 H848 0.950 . S
C855 C852 1.387 . S
C856 C857 1.387 . S
C856 H860 0.950 . S
C856 C865 1.390 . S
C857 C856 1.387 . S
C857 C859 1.387 . S
H858 C865 0.950 . S
C859 C857 1.387 . S
C859 C861 1.390 . S
C859 H863 0.950 . S
H860 C856 0.950 . S
C861 C859 1.390 . S
C861 C862 1.387 . S
C861 H864 0.950 . S
C862 C861 1.387 . S
C862 C865 1.387 . S
H863 C859 0.950 . S
H864 C861 0.950 . S
C865 C856 1.390 . S
C865 H858 0.950 . S
C865 C862 1.387 . S
C866 C867 1.387 . S
C866 H870 0.950 . S
C866 C875 1.390 . S
C867 C866 1.387 . S
C867 C869 1.387 . S
H868 C875 0.950 . S
C869 C867 1.387 . S
C869 C871 1.390 . S
C869 H873 0.950 . S
H870 C866 0.950 . S
C871 C869 1.390 . S
C871 C872 1.387 . S
C871 H874 0.950 . S
C872 C871 1.387 . S
C872 C875 1.387 . S
H873 C869 0.950 . S
H874 C871 0.950 . S
C875 C866 1.390 . S
C875 H868 0.950 . S
C875 C872 1.387 . S
C876 C877 1.387 1_554 S
C876 H880 0.950 . S
C876 C885 1.390 1_455 S
C877 C876 1.387 1_556 S
C877 C879 1.387 1_565 S
H878 C885 0.950 . S
C879 C877 1.387 1_545 S
C879 C881 1.390 1_456 S
C879 H883 0.950 . S
H880 C876 0.950 . S
C881 C879 1.390 1_654 S
C881 C882 1.387 . S
C881 H884 0.950 . S
C882 C881 1.387 . S
C882 C885 1.387 1_545 S
H883 C879 0.950 . S
H884 C881 0.950 . S
C885 C876 1.390 1_655 S
C885 H878 0.950 . S
C885 C882 1.387 1_565 S
C886 C887 1.387 . S
C886 H890 0.950 . S
C886 C895 1.390 . S
C887 C886 1.387 . S
C887 C889 1.387 1_545 S
H888 C895 0.950 . S
C889 C887 1.387 1_565 S
C889 C891 1.390 . S
C889 H893 0.950 . S
H890 C886 0.950 . S
C891 C889 1.390 . S
C891 C892 1.387 . S
C891 H894 0.950 . S
C892 C891 1.387 . S
C892 C895 1.387 1_565 S
H893 C889 0.950 . S
H894 C891 0.950 . S
C895 C886 1.390 . S
C895 H888 0.950 . S
C895 C892 1.387 1_545 S
C896 C897 1.387 . S
C896 H900 0.950 . S
C896 C905 1.390 . S
C897 C896 1.387 . S
C897 C899 1.387 . S
H898 C905 0.950 . S
C899 C897 1.387 . S
C899 C901 1.390 . S
C899 H903 0.950 . S
H900 C896 0.950 . S
C901 C899 1.390 . S
C901 C902 1.387 . S
C901 H904 0.950 . S
C902 C901 1.387 . S
C902 C905 1.387 . S
H903 C899 0.950 . S
H904 C901 0.950 . S
C905 C896 1.390 . S
C905 H898 0.950 . S
C905 C902 1.387 . S
C906 C907 1.387 . S
C906 H910 0.950 . S
C906 C915 1.390 . S
C907 C906 1.387 . S
C907 C909 1.387 . S
H908 C915 0.950 . S
C909 C907 1.387 . S
C909 C911 1.390 . S
C909 H913 0.950 . S
H910 C906 0.950 . S
C911 C909 1.390 . S
C911 C912 1.387 . S
C911 H914 0.950 . S
C912 C911 1.387 . S
C912 C915 1.387 . S
H913 C909 0.950 . S
H914 C911 0.950 . S
C915 C906 1.390 . S
C915 H908 0.950 . S
C915 C912 1.387 . S
C916 C917 1.387 . S
C916 H920 0.950 1_556 S
C916 C925 1.390 . S
C917 C916 1.387 . S
C917 C919 1.387 . S
H918 C925 0.950 . S
C919 C917 1.387 . S
C919 C921 1.390 . S
C919 H923 0.950 . S
H920 C916 0.950 1_554 S
C921 C919 1.390 . S
C921 C922 1.387 . S
C921 H924 0.950 . S
C922 C921 1.387 . S
C922 C925 1.387 . S
H923 C919 0.950 . S
H924 C921 0.950 . S
C925 C916 1.390 . S
C925 H918 0.950 . S
C925 C922 1.387 . S
C926 C927 1.387 . S
C926 H930 0.950 . S
C926 C935 1.390 . S
C927 C926 1.387 . S
C927 C929 1.387 . S
H928 C935 0.950 . S
C929 C927 1.387 . S
C929 C931 1.390 . S
C929 H933 0.950 . S
H930 C926 0.950 . S
C931 C929 1.390 . S
C931 C932 1.387 . S
C931 H934 0.950 . S
C932 C931 1.387 . S
C932 C935 1.387 . S
H933 C929 0.950 . S
H934 C931 0.950 . S
C935 C926 1.390 . S
C935 H928 0.950 . S
C935 C932 1.387 . S
C936 C937 1.387 . S
C936 H940 0.950 . S
C936 C945 1.390 . S
C937 C936 1.387 . S
C937 C939 1.387 . S
H938 C945 0.950 . S
C939 C937 1.387 . S
C939 C941 1.390 . S
C939 H943 0.950 . S
H940 C936 0.950 . S
C941 C939 1.390 . S
C941 C942 1.387 . S
C941 H944 0.950 . S
C942 C941 1.387 . S
C942 C945 1.387 . S
H943 C939 0.950 . S
H944 C941 0.950 . S
C945 C936 1.390 . S
C945 H938 0.950 . S
C945 C942 1.387 . S
C946 C947 1.387 . S
C946 H950 0.950 . S
C946 C955 1.390 . S
C947 C946 1.387 . S
C947 C949 1.387 . S
H948 C955 0.950 . S
C949 C947 1.387 . S
C949 C951 1.390 . S
C949 H953 0.950 . S
H950 C946 0.950 . S
C951 C949 1.390 . S
C951 C952 1.387 . S
C951 H954 0.950 . S
C952 C951 1.387 . S
C952 C955 1.387 . S
H953 C949 0.950 . S
H954 C951 0.950 . S
C955 C946 1.390 . S
C955 H948 0.950 . S
C955 C952 1.387 . S
C956 C957 1.387 . S
C956 H960 0.950 . S
C956 C965 1.390 . S
C957 C956 1.387 . S
C957 C959 1.387 . S
H958 C965 0.950 . S
C959 C957 1.387 . S
C959 C961 1.390 . S
C959 H963 0.950 . S
H960 C956 0.950 . S
C961 C959 1.390 . S
C961 C962 1.387 . S
C961 H964 0.950 . S
C962 C961 1.387 . S
C962 C965 1.387 . S
H963 C959 0.950 . S
H964 C961 0.950 . S
C965 C956 1.390 . S
C965 H958 0.950 . S
C965 C962 1.387 . S
C966 C967 1.387 1_554 S
C966 H970 0.950 . S
C966 C975 1.390 1_554 S
C967 C966 1.387 1_556 S
C967 C969 1.387 . S
H968 C975 0.950 . S
C969 C967 1.387 . S
C969 C971 1.390 . S
C969 H973 0.950 . S
H970 C966 0.950 . S
C971 C969 1.390 . S
C971 C972 1.387 . S
C971 H974 0.950 . S
C972 C971 1.387 . S
C972 C975 1.387 . S
H973 C969 0.950 . S
H974 C971 0.950 . S
C975 C966 1.390 1_556 S
C975 H968 0.950 . S
C975 C972 1.387 . S
C976 C977 1.387 . S
C976 H980 0.950 . S
C976 C985 1.390 . S
C977 C976 1.387 . S
C977 C979 1.387 . S
H978 C985 0.950 . S
C979 C977 1.387 . S
C979 C981 1.390 . S
C979 H983 0.950 . S
H980 C976 0.950 . S
C981 C979 1.390 . S
C981 C982 1.387 . S
C981 H984 0.950 . S
C982 C981 1.387 . S
C982 C985 1.387 . S
H983 C979 0.950 . S
H984 C981 0.950 . S
C985 C976 1.390 . S
C985 H978 0.950 . S
C985 C982 1.387 . S
C986 C987 1.387 . S
C986 H990 0.950 . S
C986 C995 1.390 . S
C987 C986 1.387 . S
C987 C989 1.387 . S
H988 C995 0.950 . S
C989 C987 1.387 . S
C989 C991 1.390 . S
C989 H993 0.950 . S
H990 C986 0.950 . S
C991 C989 1.390 . S
C991 C992 1.387 . S
C991 H994 0.950 . S
C992 C991 1.387 . S
C992 C995 1.387 . S
H993 C989 0.950 . S
H994 C991 0.950 . S
C995 C986 1.390 . S
C995 H988 0.950 . S
C995 C992 1.387 . S
C996 C997 1.387 1_545 S
C996 H1000 0.950 . S
C996 C1005 1.390 . S
C997 C996 1.387 1_565 S
C997 C999 1.387 1_565 S
H998 C1005 0.950 . S
C999 C997 1.387 1_545 S
C999 C1001 1.390 . S
C999 H1003 0.950 1_545 S
H1000 C996 0.950 . S
C1001 C999 1.390 . S
C1001 C1002 1.387 . S
C1001 H1004 0.950 . S
C1002 C1001 1.387 . S
C1002 C1005 1.387 . S
H1003 C999 0.950 1_565 S
H1004 C1001 0.950 . S
C1005 C996 1.390 . S
C1005 H998 0.950 . S
C1005 C1002 1.387 . S
C1006 C1007 1.387 . S
C1006 H1010 0.950 . S
C1006 C1015 1.390 . S
C1007 C1006 1.387 . S
C1007 C1009 1.387 . S
H1008 C1015 0.950 . S
C1009 C1007 1.387 . S
C1009 C1011 1.390 . S
C1009 H1013 0.950 . S
H1010 C1006 0.950 . S
C1011 C1009 1.390 . S
C1011 C1012 1.387 . S
C1011 H1014 0.950 . S
C1012 C1011 1.387 . S
C1012 C1015 1.387 . S
H1013 C1009 0.950 . S
H1014 C1011 0.950 . S
C1015 C1006 1.390 . S
C1015 H1008 0.950 . S
C1015 C1012 1.387 . S
C1016 C1017 1.387 . S
C1016 H1020 0.950 . S
C1016 C1025 1.390 . S
C1017 C1016 1.387 . S
C1017 C1019 1.387 . S
H1018 C1025 0.950 . S
C1019 C1017 1.387 . S
C1019 C1021 1.390 . S
C1019 H1023 0.950 . S
H1020 C1016 0.950 . S
C1021 C1019 1.390 . S
C1021 C1022 1.387 . S
C1021 H1024 0.948 . S
C1022 C1021 1.387 . S
C1022 C1025 1.387 . S
H1023 C1019 0.950 . S
H1024 C1021 0.948 . S
C1025 C1016 1.390 . S
C1025 H1018 0.950 . S
C1025 C1022 1.387 . S
C1026 C1027 1.387 . S
C1026 H1030 0.950 . S
C1026 C1035 1.390 . S
C1027 C1026 1.387 . S
C1027 C1029 1.387 . S
H1028 C1035 0.950 . S
C1029 C1027 1.387 . S
C1029 C1031 1.390 1_556 S
C1029 H1033 0.950 1_556 S
H1030 C1026 0.950 . S
C1031 C1029 1.390 1_554 S
C1031 C1032 1.387 1_554 S
C1031 H1034 0.950 . S
C1032 C1031 1.387 1_556 S
C1032 C1035 1.387 . S
H1033 C1029 0.950 1_554 S
H1034 C1031 0.950 . S
C1035 C1026 1.390 . S
C1035 H1028 0.950 . S
C1035 C1032 1.387 . S
C1036 C1037 1.387 . S
C1036 H1040 0.950 . S
C1036 C1045 1.390 . S
C1037 C1036 1.387 . S
C1037 C1039 1.387 . S
H1038 C1045 0.950 . S
C1039 C1037 1.387 . S
C1039 C1041 1.390 . S
C1039 H1043 0.950 . S
H1040 C1036 0.950 . S
C1041 C1039 1.390 . S
C1041 C1042 1.387 . S
C1041 H1044 0.950 1_565 S
C1042 C1041 1.387 . S
C1042 C1045 1.387 . S
H1043 C1039 0.950 . S
H1044 C1041 0.950 1_545 S
C1045 C1036 1.390 . S
C1045 H1038 0.950 . S
C1045 C1042 1.387 . S
C1046 C1047 1.387 . S
C1046 H1050 0.950 . S
C1046 C1055 1.390 . S
C1047 C1046 1.387 . S
C1047 C1049 1.387 . S
H1048 C1055 0.950 . S
C1049 C1047 1.387 . S
C1049 C1051 1.390 . S
C1049 H1053 0.950 . S
H1050 C1046 0.950 . S
C1051 C1049 1.390 . S
C1051 C1052 1.387 . S
C1051 H1054 0.950 . S
C1052 C1051 1.387 . S
C1052 C1055 1.387 . S
H1053 C1049 0.950 . S
H1054 C1051 0.950 . S
C1055 C1046 1.390 . S
C1055 H1048 0.950 . S
C1055 C1052 1.387 . S
C1056 C1057 1.387 . S
C1056 H1060 0.950 . S
C1056 C1065 1.390 . S
C1057 C1056 1.387 . S
C1057 C1059 1.387 . S
H1058 C1065 0.950 . S
C1059 C1057 1.387 . S
C1059 C1061 1.390 . S
C1059 H1063 0.950 . S
H1060 C1056 0.950 . S
C1061 C1059 1.390 . S
C1061 C1062 1.387 . S
C1061 H1064 0.950 . S
C1062 C1061 1.387 . S
C1062 C1065 1.387 . S
H1063 C1059 0.950 . S
H1064 C1061 0.950 . S
C1065 C1056 1.390 . S
C1065 H1058 0.950 . S
C1065 C1062 1.387 . S
C1066 C1067 1.387 . S
C1066 H1070 0.950 . S
C1066 C1075 1.390 . S
C1067 C1066 1.387 . S
C1067 C1069 1.387 1_556 S
H1068 C1075 0.950 . S
C1069 C1067 1.387 1_554 S
C1069 C1071 1.390 . S
C1069 H1073 0.950 . S
H1070 C1066 0.950 . S
C1071 C1069 1.390 . S
C1071 C1072 1.387 . S
C1071 H1074 0.950 . S
C1072 C1071 1.387 . S
C1072 C1075 1.387 1_554 S
H1073 C1069 0.950 . S
H1074 C1071 0.950 . S
C1075 C1066 1.390 . S
C1075 H1068 0.950 . S
C1075 C1072 1.387 1_556 S
C1076 C1077 1.387 . S
C1076 H1080 0.950 . S
C1076 C1085 1.390 . S
C1077 C1076 1.387 . S
C1077 C1079 1.387 . S
H1078 C1085 0.950 . S
C1079 C1077 1.387 . S
C1079 C1081 1.390 . S
C1079 H1083 0.950 . S
H1080 C1076 0.950 . S
C1081 C1079 1.390 . S
C1081 C1082 1.387 . S
C1081 H1084 0.950 . S
C1082 C1081 1.387 . S
C1082 C1085 1.387 . S
H1083 C1079 0.950 . S
H1084 C1081 0.950 . S
C1085 C1076 1.390 . S
C1085 H1078 0.950 . S
C1085 C1082 1.387 . S
C1086 C1087 1.387 1_455 S
C1086 H1090 0.950 . S
C1086 C1095 1.390 . S
C1087 C1086 1.387 1_655 S
C1087 C1089 1.387 . S
H1088 C1095 0.950 . S
C1089 C1087 1.387 . S
C1089 C1091 1.390 . S
C1089 H1093 0.950 . S
H1090 C1086 0.950 . S
C1091 C1089 1.390 . S
C1091 C1092 1.387 1_655 S
C1091 H1094 0.950 . S
C1092 C1091 1.387 1_455 S
C1092 C1095 1.387 . S
H1093 C1089 0.950 . S
H1094 C1091 0.950 . S
C1095 C1086 1.390 . S
C1095 H1088 0.950 . S
C1095 C1092 1.387 . S
C1096 C1097 1.387 . S
C1096 H1100 0.950 . S
C1096 C1105 1.390 . S
C1097 C1096 1.387 . S
C1097 C1099 1.387 . S
H1098 C1105 0.950 . S
C1099 C1097 1.387 . S
C1099 C1101 1.390 . S
C1099 H1103 0.950 . S
H1100 C1096 0.950 . S
C1101 C1099 1.390 . S
C1101 C1102 1.387 . S
C1101 H1104 0.950 . S
C1102 C1101 1.387 . S
C1102 C1105 1.387 . S
H1103 C1099 0.950 . S
H1104 C1101 0.950 . S
C1105 C1096 1.390 . S
C1105 H1098 0.950 . S
C1105 C1102 1.387 . S
C1106 C1107 1.387 . S
C1106 H1110 0.950 . S
C1106 C1115 1.390 . S
C1107 C1106 1.387 . S
C1107 C1109 1.387 . S
H1108 C1115 0.950 . S
C1109 C1107 1.387 . S
C1109 C1111 1.390 . S
C1109 H1113 0.950 . S
H1110 C1106 0.950 . S
C1111 C1109 1.390 . S
C1111 C1112 1.387 . S
C1111 H1114 0.950 . S
C1112 C1111 1.387 . S
C1112 C1115 1.387 . S
H1113 C1109 0.950 . S
H1114 C1111 0.950 . S
C1115 C1106 1.390 . S
C1115 H1108 0.950 . S
C1115 C1112 1.387 . S
C1116 C1117 1.406 . S
C1116 H1120 0.951 . S
C1116 C1125 1.371 1_565 S
C1117 C1116 1.406 . S
C1117 C1119 1.387 1_455 S
H1118 C1125 0.950 . S
C1119 C1117 1.387 1_655 S
C1119 C1121 1.390 1_565 S
C1119 H1123 0.950 . S
H1120 C1116 0.951 . S
C1121 C1119 1.390 1_545 S
C1121 C1122 1.387 . S
C1121 H1124 0.950 . S
C1122 C1121 1.387 . S
C1122 C1125 1.387 1_655 S
H1123 C1119 0.950 . S
H1124 C1121 0.950 . S
C1125 C1116 1.371 1_545 S
C1125 H1118 0.950 . S
C1125 C1122 1.387 1_455 S
C1126 C1127 1.387 . S
C1126 H1130 0.950 . S
C1126 C1135 1.390 1_564 S
C1127 C1126 1.387 . S
C1127 C1129 1.387 . S
H1128 C1135 0.950 . S
C1129 C1127 1.387 . S
C1129 C1131 1.390 1_565 S
C1129 H1133 0.950 . S
H1130 C1126 0.950 . S
C1131 C1129 1.390 1_545 S
C1131 C1132 1.387 1_554 S
C1131 H1134 0.950 . S
C1132 C1131 1.387 1_556 S
C1132 C1135 1.387 . S
H1133 C1129 0.950 . S
H1134 C1131 0.950 . S
C1135 C1126 1.390 1_546 S
C1135 H1128 0.950 . S
C1135 C1132 1.387 . S
C497 C19 1.761 . S
C502 C423 1.758 . S
C507 C41 1.564 . S
C512 C187 1.779 . S
C517 C485 1.826 . S
C522 C72 1.617 . S
C527 C125 1.807 . S
C532 C112 1.815 . S
C537 C124 1.939 . S
C542 C281 1.913 . S
C547 C155 2.015 . S
C552 C64 1.996 . S
C557 C186 1.821 1_556 S
C562 C361 1.820 . S
C567 C236 1.748 . S
C572 C20 1.739 . S
C577 C156 1.758 . S
C582 C267 1.763 . S
C587 C289 1.565 . S
C592 C435 1.777 . S
C597 C320 1.615 . S
C602 C237 1.826 . S
C607 C360 1.815 . S
C612 C373 1.807 . S
C617 C33 1.913 . S
C622 C372 1.939 1_556 S
C627 C312 1.995 . S
C632 C422 2.013 1_655 S
C637 C113 1.819 . S
C642 C434 1.821 . S
C647 C268 1.739 . S
C652 C484 1.748 . S
C657 C0 1.542 . S
C662 C10 1.555 . S
C667 C61 1.556 . S
C672 C50 1.544 . S
C677 C81 1.551 . S
C682 C92 1.561 . S
C687 C103 1.559 . S
C692 C93 1.548 1_556 S
C697 C154 1.554 . S
C702 C143 1.542 . S
C707 C174 1.546 . S
C712 C185 1.558 1_556 S
C717 C216 1.563 . S
C722 C205 1.552 . S
C727 C227 1.558 . S
C732 C217 1.556 . S
C737 C248 1.542 . S
C742 C258 1.554 . S
C747 C309 1.556 1_556 S
C752 C298 1.544 . S
C757 C340 1.560 . S
C762 C329 1.550 . S
C767 C341 1.548 . S
C772 C351 1.559 . S
C777 C402 1.555 . S
C782 C391 1.542 . S
C787 C403 1.546 . S
C792 C413 1.558 . S
C797 C464 1.563 . S
C802 C453 1.552 . S
C807 C465 1.547 . S
C812 C475 1.567 . S
C817 C1 0.964 . S
C822 C392 0.963 . S
C827 C175 1.011 . S
C832 C60 0.980 . S
C837 C91 1.013 . S
C842 C454 1.048 . S
C847 C94 1.007 . S
C852 C218 1.006 . S
C857 C144 0.971 . S
C862 C249 0.972 . S
C867 C206 1.055 . S
C872 C339 1.021 . S
C877 C404 1.011 . S
C882 C308 0.980 1_545 S
C887 C466 1.004 . S
C892 C342 1.005 . S
C897 C123 1.704 . S
C902 C29 1.994 . S
C907 C32 1.834 . S
C912 C30 1.537 . S
C917 C63 1.861 . S
C922 C31 1.748 . S
C927 C122 2.026 . S
C932 C62 1.923 . S
C937 C247 1.722 . S
C942 C126 2.003 . S
C947 C157 2.058 . S
C952 C134 1.785 . S
C957 C165 1.755 . S
C962 C188 2.032 . S
C967 C196 1.688 1_556 S
C972 C246 1.979 . S
C977 C277 1.992 . S
C982 C371 1.705 1_565 S
C987 C280 1.832 . S
C992 C278 1.539 . S
C997 C279 1.744 . S
C1002 C311 1.862 . S
C1007 C310 1.923 . S
C1012 C370 2.026 . S
C1017 C374 2.003 . S
C1022 C495 1.722 1_545 S
C1027 C432 2.058 . S
C1032 C382 1.784 . S
C1037 C436 2.031 . S
C1042 C433 1.756 1_565 S
C1047 C444 1.690 . S
C1052 C494 1.978 . S
C1057 C2 1.016 . S
C1062 C401 1.018 . S
C1067 C51 0.970 . S
C1072 C184 0.941 . S
C1077 C463 0.888 . S
C1082 C82 0.913 . S
C1087 C95 0.963 1_655 S
C1092 C219 0.964 1_455 S
C1097 C250 1.012 . S
C1102 C153 1.013 . S
C1107 C330 0.916 . S
C1112 C215 0.892 . S
C1117 C299 0.970 . S
C1122 C405 0.941 1_655 S
C1127 C467 0.972 . S
C1132 C343 0.971 . S
