# Generated by pormake.
# Topology wjg, (4)-cn, num edge types: 1
# Building blocks:
#     Node 0, Type 0, BuildingBlock: QUQFOY_clean_sbu_1, # of connection points: 4
#     Node 1, Type 0, BuildingBlock: QUQFOY_clean_sbu_1, # of connection points: 4
#     Node 2, Type 0, BuildingBlock: QUQFOY_clean_sbu_1, # of connection points: 4
#     Node 3, Type 0, BuildingBlock: QUQFOY_clean_sbu_1, # of connection points: 4
#     Node 4, Type 0, BuildingBlock: QUQFOY_clean_sbu_1, # of connection points: 4
#     Node 5, Type 0, BuildingBlock: QUQFOY_clean_sbu_1, # of connection points: 4
#     Node 6, Type 0, BuildingBlock: QUQFOY_clean_sbu_1, # of connection points: 4
#     Node 7, Type 0, BuildingBlock: QUQFOY_clean_sbu_1, # of connection points: 4
#     Node 8, Type 0, BuildingBlock: QUQFOY_clean_sbu_1, # of connection points: 4
#     Node 9, Type 0, BuildingBlock: QUQFOY_clean_sbu_1, # of connection points: 4
#     Node 10, Type 0, BuildingBlock: QUQFOY_clean_sbu_1, # of connection points: 4
#     Node 11, Type 0, BuildingBlock: QUQFOY_clean_sbu_1, # of connection points: 4
#     Edge 12, Type (0, 0), BuildingBlock: CIFDUS_clean_linker_0, # of connection points: 2
#     Edge 13, Type (0, 0), BuildingBlock: CIFDUS_clean_linker_0, # of connection points: 2
#     Edge 14, Type (0, 0), BuildingBlock: CIFDUS_clean_linker_0, # of connection points: 2
#     Edge 15, Type (0, 0), BuildingBlock: CIFDUS_clean_linker_0, # of connection points: 2
#     Edge 16, Type (0, 0), BuildingBlock: CIFDUS_clean_linker_0, # of connection points: 2
#     Edge 17, Type (0, 0), BuildingBlock: CIFDUS_clean_linker_0, # of connection points: 2
#     Edge 18, Type (0, 0), BuildingBlock: CIFDUS_clean_linker_0, # of connection points: 2
#     Edge 19, Type (0, 0), BuildingBlock: CIFDUS_clean_linker_0, # of connection points: 2
#     Edge 20, Type (0, 0), BuildingBlock: CIFDUS_clean_linker_0, # of connection points: 2
#     Edge 21, Type (0, 0), BuildingBlock: CIFDUS_clean_linker_0, # of connection points: 2
#     Edge 22, Type (0, 0), BuildingBlock: CIFDUS_clean_linker_0, # of connection points: 2
#     Edge 23, Type (0, 0), BuildingBlock: CIFDUS_clean_linker_0, # of connection points: 2
#     Edge 24, Type (0, 0), BuildingBlock: CIFDUS_clean_linker_0, # of connection points: 2
#     Edge 25, Type (0, 0), BuildingBlock: CIFDUS_clean_linker_0, # of connection points: 2
#     Edge 26, Type (0, 0), BuildingBlock: CIFDUS_clean_linker_0, # of connection points: 2
#     Edge 27, Type (0, 0), BuildingBlock: CIFDUS_clean_linker_0, # of connection points: 2
#     Edge 28, Type (0, 0), BuildingBlock: CIFDUS_clean_linker_0, # of connection points: 2
#     Edge 29, Type (0, 0), BuildingBlock: CIFDUS_clean_linker_0, # of connection points: 2
#     Edge 30, Type (0, 0), BuildingBlock: CIFDUS_clean_linker_0, # of connection points: 2
#     Edge 31, Type (0, 0), BuildingBlock: CIFDUS_clean_linker_0, # of connection points: 2
#     Edge 32, Type (0, 0), BuildingBlock: CIFDUS_clean_linker_0, # of connection points: 2
#     Edge 33, Type (0, 0), BuildingBlock: CIFDUS_clean_linker_0, # of connection points: 2
#     Edge 34, Type (0, 0), BuildingBlock: CIFDUS_clean_linker_0, # of connection points: 2
#     Edge 35, Type (0, 0), BuildingBlock: CIFDUS_clean_linker_0, # of connection points: 2
# Relax obj value: 0.292
# Max RMSD: 0.135
# Mean RMSD: 0.133
data_MOF--net-wjg--node1-QUQFOY_clean_sbu_1--edge1-CIFDUS_clean_linker_0
_symmetry_space_group_name_H-M    P1
_symmetry_Int_Tables_number       1
_symmetry_cell_setting            triclinic
loop_
_symmetry_equiv_pos_as_xyz
'x, y, z'
_cell_length_a     30.763556
_cell_length_b     30.714083
_cell_length_c     35.034185
_cell_angle_alpha  90.039656
_cell_angle_beta   89.921044
_cell_angle_gamma 120.2267
loop_
_atom_site_label
_atom_site_type_symbol
_atom_site_fract_x
_atom_site_fract_y
_atom_site_fract_z
_atom_type_partial_charge
O0 O 0.11271 0.29024 0.3446 0.0
Cd1 Cd 0.10909 0.35536 0.34374 0.0
Cd2 Cd 0.20507 0.39116 0.33666 0.0
O3 O 0.1799 0.3239 0.3082 0.0
O4 O 0.04831 0.34518 0.31527 0.0
O5 O 0.12641 0.39099 0.29345 0.0
C6 C 0.07848 0.37072 0.28767 0.0
C7 C 0.28306 0.46295 0.32587 0.0
C8 C 0.14401 0.28532 0.32409 0.0
C9 C 0.16308 0.3919 0.41353 0.0
O10 O 0.19409 0.38497 0.3944 0.0
O11 O 0.12581 0.39076 0.39668 0.0
O12 O 0.27936 0.42086 0.33561 0.0
O13 O 0.24219 0.46333 0.31833 0.0
O14 O 0.83086 0.11344 0.67362 0.0
Cd15 Cd 0.76085 0.10698 0.67565 0.0
Cd16 Cd 0.81722 0.20242 0.66893 0.0
O17 O 0.86312 0.18299 0.63966 0.0
O18 O 0.70985 0.04564 0.6475 0.0
O19 O 0.73953 0.12381 0.62662 0.0
C20 C 0.71247 0.07579 0.62061 0.0
C21 C 0.81008 0.27345 0.65867 0.0
C22 C 0.86666 0.14667 0.65358 0.0
C23 C 0.77891 0.16018 0.74616 0.0
O24 O 0.81581 0.19235 0.7266 0.0
O25 O 0.74305 0.12207 0.72959 0.0
O26 O 0.85229 0.2772 0.66805 0.0
O27 O 0.77307 0.2292 0.65045 0.0
O28 O 0.6182 0.81844 0.05753 0.0
Cd29 Cd 0.60998 0.82034 0.99977 0.0
Cd30 Cd 0.64729 0.76115 1.00768 0.0
O31 O 0.6117 0.74398 0.06057 0.0
O32 O 0.57894 0.86362 0.99824 0.0
O33 O 0.53725 0.78293 0.98287 0.0
C34 C 0.53698 0.82411 0.98967 0.0
C35 C 0.63915 0.70794 0.95721 0.0
C36 C 0.61114 0.7807 0.07705 0.0
C37 C 0.71519 0.86696 0.98605 0.0
O38 O 0.71112 0.83135 1.00696 0.0
O39 O 0.6762 0.86297 0.97023 0.0
O40 O 0.66407 0.71047 0.98766 0.0
O41 O 0.61568 0.73306 0.95669 0.0
O42 O 0.87192 0.70473 0.3402 0.0
Cd43 Cd 0.87535 0.63946 0.33954 0.0
Cd44 Cd 0.77964 0.60463 0.33287 0.0
O45 O 0.80522 0.67121 0.30344 0.0
O46 O 0.93721 0.65021 0.31237 0.0
O47 O 0.86001 0.60475 0.28892 0.0
C48 C 0.90815 0.62518 0.28415 0.0
C49 C 0.70137 0.53267 0.32348 0.0
C50 C 0.84103 0.7098 0.31936 0.0
C51 C 0.82112 0.60372 0.40935 0.0
O52 O 0.79112 0.61234 0.39049 0.0
O53 O 0.85749 0.60329 0.39222 0.0
O54 O 0.70538 0.57518 0.3323 0.0
O55 O 0.74205 0.53189 0.31587 0.0
O56 O 0.16317 0.8658 0.67166 0.0
Cd57 Cd 0.23675 0.88227 0.67517 0.0
Cd58 Cd 0.18698 0.78324 0.66984 0.0
O59 O 0.13764 0.79601 0.63893 0.0
O60 O 0.28091 0.95192 0.65519 0.0
O61 O 0.27037 0.88342 0.62562 0.0
C62 C 0.28912 0.93178 0.62566 0.0
C63 C 0.19188 0.70985 0.66463 0.0
C64 C 0.12952 0.82987 0.65205 0.0
C65 C 0.22165 0.83221 0.74656 0.0
O66 O 0.18756 0.79693 0.72694 0.0
O67 O 0.25566 0.87155 0.72988 0.0
O68 O 0.15078 0.70851 0.67383 0.0
O69 O 0.22929 0.75265 0.65402 0.0
O70 O 0.39137 0.19807 0.06138 0.0
Cd71 Cd 0.40191 0.19472 1.00415 0.0
Cd72 Cd 0.35531 0.24554 1.00936 0.0
O73 O 0.38503 0.26608 0.06397 0.0
O74 O 0.43952 0.15791 1.00783 0.0
O75 O 0.47436 0.23581 0.98644 0.0
C76 C 0.4794 0.19845 0.99736 0.0
C77 C 0.36842 0.2931 0.95438 0.0
C78 C 0.39051 0.23241 0.08083 0.0
C79 C 0.29644 0.1378 0.98877 0.0
O80 O 0.29579 0.17268 1.00778 0.0
O81 O 0.33773 0.14461 0.97515 0.0
O82 O 0.33858 0.29171 0.98107 0.0
O83 O 0.39384 0.27062 0.96054 0.0
O84 O 0.70709 0.88451 0.36886 0.0
Cd85 Cd 0.64573 0.89457 0.36837 0.0
Cd86 Cd 0.60228 0.79751 0.37393 0.0
O87 O 0.66747 0.81495 0.40262 0.0
O88 O 0.66022 0.95655 0.39731 0.0
O89 O 0.60823 0.87878 0.41779 0.0
C90 C 0.63191 0.92685 0.42421 0.0
C91 C 0.52561 0.72288 0.38203 0.0
C92 C 0.70806 0.85021 0.38843 0.0
C93 C 0.60882 0.84438 0.29744 0.0
O94 O 0.61096 0.81047 0.3165 0.0
O95 O 0.6133 0.88304 0.31457 0.0
O96 O 0.56554 0.72271 0.37136 0.0
O97 O 0.53036 0.76536 0.39255 0.0
O98 O 0.81685 0.69974 0.69865 0.0
Cd99 Cd 0.74426 0.63996 0.69991 0.0
Cd100 Cd 0.80036 0.59524 0.70625 0.0
O101 O 0.84457 0.66136 0.73554 0.0
O102 O 0.69918 0.66376 0.72038 0.0
O103 O 0.71578 0.61098 0.75153 0.0
C104 C 0.69478 0.63844 0.75106 0.0
C105 C 0.812 0.52598 0.71354 0.0
C106 C 0.85147 0.70127 0.71924 0.0
C107 C 0.75663 0.59956 0.63014 0.0
O108 O 0.79323 0.60252 0.6489 0.0
O109 O 0.72269 0.60429 0.64731 0.0
O110 O 0.848 0.56929 0.70306 0.0
O111 O 0.76994 0.52254 0.72335 0.0
O112 O 0.18922 0.80302 0.9865 0.0
Cd113 Cd 0.20299 0.80575 0.04367 0.0
Cd114 Cd 0.10521 0.75324 0.03818 0.0
O115 O 0.11624 0.73292 0.98396 0.0
O116 O 0.27764 0.84396 0.03989 0.0
O117 O 0.23545 0.76563 0.06058 0.0
C118 C 0.27765 0.80366 0.04974 0.0
C119 C 0.06829 0.70475 0.09247 0.0
C120 C 0.15493 0.76763 0.96709 0.0
C121 C 0.1534 0.86094 0.05897 0.0
O122 O 0.11845 0.82602 0.03947 0.0
O123 O 0.18755 0.85428 0.0733 0.0
O124 O 0.04096 0.70645 0.06509 0.0
O125 O 0.11657 0.72766 0.08748 0.0
O126 O 0.28019 0.11353 0.37253 0.0
Cd127 Cd 0.34195 0.10405 0.37027 0.0
Cd128 Cd 0.38299 0.20063 0.37786 0.0
O129 O 0.31852 0.18129 0.40826 0.0
O130 O 0.32305 0.03597 0.39038 0.0
O131 O 0.37457 0.10713 0.42058 0.0
C132 C 0.34942 0.05833 0.42036 0.0
C133 C 0.46019 0.27459 0.38552 0.0
C134 C 0.27834 0.14646 0.39332 0.0
C135 C 0.37764 0.15851 0.30051 0.0
O136 O 0.37225 0.18994 0.32036 0.0
O137 O 0.37616 0.1207 0.3168 0.0
O138 O 0.41998 0.27548 0.37704 0.0
O139 O 0.45551 0.23164 0.39447 0.0
O140 O 0.17593 0.28153 0.70047 0.0
Cd141 Cd 0.24421 0.34771 0.70199 0.0
Cd142 Cd 0.1828 0.38096 0.71023 0.0
O143 O 0.14208 0.31318 0.73834 0.0
O144 O 0.29599 0.33973 0.73073 0.0
O145 O 0.26066 0.38253 0.75256 0.0
C146 C 0.28978 0.36408 0.7584 0.0
C147 C 0.17699 0.45232 0.72266 0.0
C148 C 0.13963 0.27533 0.72153 0.0
C149 C 0.22567 0.38534 0.63319 0.0
O150 O 0.18689 0.37597 0.6523 0.0
O151 O 0.26243 0.38522 0.64985 0.0
O152 O 0.13818 0.41029 0.71304 0.0
O153 O 0.21849 0.45276 0.72924 0.0
O154 O 0.81091 0.19194 0.98566 0.0
Cd155 Cd 0.79953 0.18843 0.04335 0.0
Cd156 Cd 0.89627 0.24679 0.03624 0.0
O157 O 0.88084 0.2652 0.98282 0.0
O158 O 0.72509 0.14422 0.04404 0.0
O159 O 0.76306 0.22436 0.06082 0.0
C160 C 0.72191 0.18298 0.05343 0.0
C161 C 0.92832 0.2942 0.09169 0.0
C162 C 0.84299 0.2291 0.96619 0.0
C163 C 0.85745 0.14104 0.05694 0.0
O164 O 0.88976 0.17672 0.03636 0.0
O165 O 0.82252 0.14534 0.07262 0.0
O166 O 0.95796 0.29705 0.06429 0.0
O167 O 0.88024 0.26745 0.08602 0.0
H168 H 0.30042 0.55424 0.34996 0.0
H169 H 0.37524 0.47504 0.31213 0.0
H170 H 0.45685 0.54775 0.32841 0.0
H171 H 0.50644 0.63227 0.35516 0.0
H172 H 0.43248 0.71161 0.395 0.0
H173 H 0.35076 0.63975 0.37721 0.0
C174 C 0.33475 0.55348 0.34451 0.0
C175 C 0.33206 0.5098 0.32923 0.0
C176 C 0.38142 0.59479 0.35527 0.0
C177 C 0.37657 0.50857 0.32338 0.0
C178 C 0.42312 0.54989 0.33303 0.0
C179 C 0.47247 0.6338 0.36038 0.0
C180 C 0.47563 0.67723 0.37664 0.0
C181 C 0.42589 0.59282 0.34955 0.0
C182 C 0.43114 0.67849 0.38291 0.0
C183 C 0.38444 0.63761 0.37237 0.0
H184 H 0.87942 0.36752 0.68141 0.0
H185 H 0.72367 0.27723 0.64827 0.0
H186 H 0.70917 0.34603 0.6659 0.0
H187 H 0.74081 0.43177 0.69174 0.0
H188 H 0.89711 0.52173 0.72309 0.0
H189 H 0.911 0.45249 0.70623 0.0
C190 C 0.84237 0.36296 0.67756 0.0
C191 C 0.80276 0.31729 0.66334 0.0
C192 C 0.83414 0.40221 0.68836 0.0
C193 C 0.75497 0.31212 0.65881 0.0
C194 C 0.74652 0.35126 0.66927 0.0
C195 C 0.77758 0.43567 0.6956 0.0
C196 C 0.81772 0.48136 0.70927 0.0
C197 C 0.78569 0.39624 0.68457 0.0
C198 C 0.86556 0.48663 0.71308 0.0
C199 C 0.87362 0.44726 0.70311 0.0
H200 H 0.44663 0.74916 1.01512 0.0
H201 H 0.52316 0.90301 0.97546 0.0
H202 H 0.45042 0.91086 0.99261 0.0
H203 H 0.36686 0.87535 1.02085 0.0
H204 H 0.28989 0.7222 0.06229 0.0
H205 H 0.36163 0.71311 0.04343 0.0
C206 C 0.44677 0.78395 1.00945 0.0
C207 C 0.48979 0.82523 0.99347 0.0
C208 C 0.40541 0.78875 1.02066 0.0
C209 C 0.4902 0.87059 0.98729 0.0
C210 C 0.44885 0.87524 0.99743 0.0
C211 C 0.36581 0.84005 0.02617 0.0
C212 C 0.32312 0.79963 0.04326 0.0
C213 C 0.40667 0.83488 1.01472 0.0
C214 C 0.32245 0.7541 0.04958 0.0
C215 C 0.36327 0.74873 0.03844 0.0
H216 H 0.47894 0.36498 0.35856 0.0
H217 H 0.55357 0.28541 0.39605 0.0
H218 H 0.63476 0.35661 0.37631 0.0
H219 H 0.68443 0.4416 0.34796 0.0
H220 H 0.60884 0.52073 0.31205 0.0
H221 H 0.52779 0.44877 0.33051 0.0
C222 C 0.51296 0.36327 0.36288 0.0
C223 C 0.51012 0.31997 0.37906 0.0
C224 C 0.55919 0.4038 0.35083 0.0
C225 C 0.55467 0.31845 0.38405 0.0
C226 C 0.60106 0.35895 0.3724 0.0
C227 C 0.65002 0.4425 0.3434 0.0
C228 C 0.65239 0.48599 0.32807 0.0
C229 C 0.60369 0.4016 0.35534 0.0
C230 C 0.60779 0.48737 0.32334 0.0
C231 C 0.56155 0.44648 0.33424 0.0
H232 H 0.12182 0.62007 0.69386 0.0
H233 H 0.27467 0.69992 0.65222 0.0
H234 H 0.28551 0.62906 0.67075 0.0
H235 H 0.25086 0.54378 0.69833 0.0
H236 H 0.09724 0.46423 0.73801 0.0
H237 H 0.08787 0.53644 0.72181 0.0
C238 C 0.15746 0.62197 0.68845 0.0
C239 C 0.19725 0.66515 0.67133 0.0
C240 C 0.1636 0.58159 0.69967 0.0
C241 C 0.24324 0.66694 0.66494 0.0
C242 C 0.2496 0.62663 0.67588 0.0
C243 C 0.2158 0.54288 0.70426 0.0
C244 C 0.17499 0.49917 0.7199 0.0
C245 C 0.21013 0.58389 0.69352 0.0
C246 C 0.12928 0.49776 0.72642 0.0
C247 C 0.12377 0.53879 0.71681 0.0
H248 H 0.70484 0.25698 0.02912 0.0
H249 H 0.62973 0.10277 0.06787 0.0
H250 H 0.54818 0.0934 0.05192 0.0
H251 H 0.49868 0.12773 0.025 0.0
H252 H 0.57258 0.28121 0.98436 0.0
H253 H 0.65439 0.29181 1.00202 0.0
C254 C 0.67047 0.22176 0.03484 0.0
C255 C 0.67308 0.18082 0.05022 0.0
C256 C 0.62375 0.21612 0.0243 0.0
C257 C 0.62849 0.13491 0.05648 0.0
C258 C 0.58195 0.12941 0.04703 0.0
C259 C 0.53265 0.16345 1.0196 0.0
C260 C 0.52946 0.20351 1.0031 0.0
C261 C 0.57923 0.16946 0.03035 0.0
C262 C 0.57396 0.24957 0.99664 0.0
C263 C 0.6207 0.2558 1.00709 0.0
H264 H 0.14534 0.24545 0.39139 0.0
H265 H 0.16062 0.23077 0.27051 0.0
H266 H 0.1931 0.17378 0.2829 0.0
H267 H 0.23212 0.14288 0.32793 0.0
H268 H 0.2328 0.17302 0.44815 0.0
H269 H 0.17819 0.20849 0.43673 0.0
C270 C 0.15407 0.22818 0.36781 0.0
C271 C 0.15011 0.24142 0.33009 0.0
C272 C 0.17625 0.1989 0.3753 0.0
C273 C 0.16296 0.22042 0.29968 0.0
C274 C 0.18185 0.18829 0.30683 0.0
C275 C 0.21873 0.15556 0.35175 0.0
C276 C 0.23573 0.15498 0.38889 0.0
C277 C 0.19082 0.17926 0.34451 0.0
C278 C 0.21962 0.17282 0.41945 0.0
C279 C 0.18883 0.19339 0.41282 0.0
H280 H 0.90835 0.13678 0.71747 0.0
H281 H 0.93802 0.17355 0.59805 0.0
H282 H 0.02784 0.20551 0.60859 0.0
H283 H 0.09803 0.23869 0.65368 0.0
H284 H 0.06854 0.21792 0.77451 0.0
H285 H 0.97849 0.16293 0.76193 0.0
C286 C 0.93434 0.15009 0.69356 0.0
C287 C 0.91695 0.15256 0.65698 0.0
C288 C 0.98602 0.17187 0.70045 0.0
C289 C 0.95084 0.1711 0.62633 0.0
C290 C 0.00209 0.18966 0.63247 0.0
C291 C 0.07199 0.22043 0.67714 0.0
C292 C 0.0895 0.23152 0.71494 0.0
C293 C 0.02026 0.1925 0.66969 0.0
C294 C 0.05561 0.20922 0.74525 0.0
C295 C 0.00424 0.17829 0.73801 0.0
H296 H 0.85607 0.09923 0.98982 0.0
H297 H 0.8357 0.06835 0.11049 0.0
H298 H 0.79973 0.97811 0.09785 0.0
H299 H 0.75977 0.9084 0.05233 0.0
H300 H 0.7648 0.93949 0.93196 0.0
H301 H 0.82196 0.02941 0.94415 0.0
C302 C 0.84544 0.07281 1.01335 0.0
C303 C 0.84902 0.09003 0.05105 0.0
C304 C 0.82139 0.02106 1.00564 0.0
C305 C 0.8337 0.05565 0.08135 0.0
C306 C 0.81282 0.0042 0.07404 0.0
C307 C 0.77491 0.93474 0.02868 0.0
C308 C 0.75886 0.91768 0.99125 0.0
C309 C 0.80441 0.9864 0.03627 0.0
C310 C 0.77723 0.95203 0.96089 0.0
C311 C 0.80949 0.00332 0.96794 0.0
H312 H 0.753 0.85238 0.32268 0.0
H313 H 0.75433 0.82465 0.44309 0.0
H314 H 0.80878 0.78898 0.43157 0.0
H315 H 0.84091 0.75116 0.38633 0.0
H316 H 0.82364 0.76332 0.26544 0.0
H317 H 0.79136 0.82057 0.27759 0.0
C318 C 0.76682 0.84017 0.34647 0.0
C319 C 0.75049 0.84152 0.38372 0.0
C320 C 0.79463 0.81633 0.33922 0.0
C321 C 0.76705 0.82426 0.4143 0.0
C322 C 0.79775 0.80359 0.40762 0.0
C323 C 0.8318 0.76793 0.36265 0.0
C324 C 0.8351 0.75387 0.32503 0.0
C325 C 0.80973 0.79735 0.37006 0.0
C326 C 0.82178 0.77428 0.29453 0.0
C327 C 0.80299 0.80655 0.30155 0.0
H328 H 0.08483 0.83804 0.71497 0.0
H329 H 0.05715 0.79326 0.59679 0.0
H330 H 0.96657 0.75797 0.60671 0.0
H331 H 0.89567 0.72845 0.65119 0.0
H332 H 0.92345 0.75926 0.77142 0.0
H333 H 0.01394 0.81229 0.75884 0.0
C334 C 0.059 0.82196 0.69115 0.0
C335 C 0.07727 0.81873 0.65506 0.0
C336 C 0.00715 0.79886 0.69777 0.0
C337 C 0.04364 0.79646 0.62463 0.0
C338 C 0.99203 0.77608 0.63042 0.0
C339 C 0.92156 0.74819 0.67441 0.0
C340 C 0.90344 0.7411 0.71207 0.0
C341 C 0.97335 0.77546 0.66716 0.0
C342 C 0.93696 0.76505 0.74224 0.0
C343 C 0.98849 0.79494 0.73502 0.0
H344 H 0.25259 0.0947 0.05475 0.0
H345 H 0.25123 0.06467 0.93446 0.0
H346 H 0.19576 0.97426 0.94623 0.0
H347 H 0.16 0.90406 0.99167 0.0
H348 H 0.17612 0.934 0.11253 0.0
H349 H 0.21292 0.02448 0.10005 0.0
C350 C 0.23871 0.06837 0.03105 0.0
C351 C 0.25497 0.08588 0.99373 0.0
C352 C 0.21006 0.01659 0.03843 0.0
C353 C 0.23846 0.0517 0.96327 0.0
C354 C 0.20715 0.00019 0.97009 0.0
C355 C 0.17012 0.9304 1.01522 0.0
C356 C 0.16475 0.91287 0.05296 0.0
C357 C 0.19436 0.98217 1.00767 0.0
C358 C 0.17946 0.94702 0.08336 0.0
C359 C 0.20074 -0.00145 0.07615 0.0
H360 H 0.02675 0.35415 0.11241 0.0
H361 H 0.87571 0.28149 0.15765 0.0
H362 H 0.90891 0.30339 0.2224 0.0
H363 H 0.98063 0.33452 0.26665 0.0
H364 H 0.13167 0.40715 0.22141 0.0
H365 H 0.09869 0.39451 0.15653 0.0
C366 C 0.00105 0.34386 0.13636 0.0
C367 C 0.94873 0.31568 0.13002 0.0
C368 C 0.02042 0.35622 0.17373 0.0
C369 C 0.91611 0.30301 0.16152 0.0
C370 C 0.93509 0.31533 0.19869 0.0
C371 C 0.00642 0.34841 0.24265 0.0
C372 C 0.05861 0.37131 0.24906 0.0
C373 C 0.98716 0.34062 0.20522 0.0
C374 C 0.09136 0.38929 0.2175 0.0
C375 C 0.0725 0.38184 0.18026 0.0
H376 H 0.64956 0.97784 0.59961 0.0
H377 H 0.72707 0.12944 0.55502 0.0
H378 H 0.70448 0.09686 0.49015 0.0
H379 H 0.67135 0.02517 0.44561 0.0
H380 H 0.59331 0.87355 0.49011 0.0
H381 H 0.60685 0.90629 0.55516 0.0
C382 C 0.66074 0.00382 0.57577 0.0
C383 C 0.6905 0.05605 0.58231 0.0
C384 C 0.64787 0.98479 0.53833 0.0
C385 C 0.7043 0.08908 0.55099 0.0
C386 C 0.6916 0.07045 0.51375 0.0
C387 C 0.65649 -0.00075 0.46949 0.0
C388 C 0.63182 0.94692 0.46285 0.0
C389 C 0.6647 0.01835 0.50699 0.0
C390 C 0.61253 0.91398 0.49423 0.0
C391 C 0.62051 0.93269 0.53156 0.0
H392 H 0.61122 0.71414 0.88437 0.0
H393 H 0.6756 0.64335 0.952 0.0
H394 H 0.69333 0.61058 0.89417 0.0
H395 H 0.69888 0.6096 0.82408 0.0
H396 H 0.63828 0.684 0.75645 0.0
H397 H 0.6104 0.70712 0.81434 0.0
C398 C 0.62824 0.69074 0.88655 0.0
C399 C 0.64222 0.68149 0.92259 0.0
C400 C 0.6395 0.67294 0.85301 0.0
C401 C 0.66457 0.65131 0.92471 0.0
C402 C 0.6749 0.63263 0.89158 0.0
C403 C 0.67873 0.63004 0.82194 0.0
C404 C 0.67096 0.64519 0.78585 0.0
C405 C 0.66378 0.64432 0.8555 0.0
C406 C 0.64502 0.67197 0.78376 0.0
C407 C 0.62914 0.68538 0.81693 0.0
H408 H 0.96854 0.64733 0.11037 0.0
H409 H 0.11688 0.71302 0.15964 0.0
H410 H 0.08019 0.68963 0.22339 0.0
H411 H 0.00646 0.65913 0.2657 0.0
H412 H 0.85809 0.59287 0.21638 0.0
H413 H 0.89424 0.60724 0.15241 0.0
C414 C 0.99285 0.65578 0.13498 0.0
C415 C 0.04549 0.68243 0.1301 0.0
C416 C 0.97147 0.64243 0.17174 0.0
C417 C 0.07629 0.69267 0.1624 0.0
C418 C 0.05532 0.67952 0.19899 0.0
C419 C 0.98193 0.64699 0.241 0.0
C420 C 0.9296 0.62541 0.246 0.0
C421 C 0.00303 0.65568 0.20411 0.0
C422 C 0.89846 0.60966 0.21355 0.0
C423 C 0.91915 0.61812 0.17683 0.0
H424 H 0.37609 0.09245 0.4933 0.0
H425 H 0.31367 0.95713 0.42524 0.0
H426 H 0.29523 0.90622 0.48297 0.0
H427 H 0.28801 0.89929 0.55299 0.0
H428 H 0.34559 0.03431 0.62098 0.0
H429 H 0.37515 0.08594 0.56335 0.0
C430 C 0.35939 0.05191 0.49104 0.0
C431 C 0.34615 0.02871 0.4549 0.0
C432 C 0.34754 0.02264 0.5245 0.0
C433 C 0.32411 0.97604 0.45262 0.0
C434 C 0.31339 0.94682 0.48569 0.0
C435 C 0.30795 0.94004 0.55527 0.0
C436 C 0.31437 0.9628 0.59134 0.0
C437 C 0.32362 0.96956 0.52184 0.0
C438 C 0.33993 0.01571 0.59364 0.0
C439 C 0.35674 0.04532 0.56064 0.0
H440 H 0.32469 0.34798 0.93371 0.0
H441 H 0.41167 0.28483 0.88866 0.0
H442 H 0.39928 0.30582 0.82391 0.0
H443 H 0.3556 0.33323 0.77954 0.0
H444 H 0.26901 0.39677 0.82473 0.0
H445 H 0.28991 0.38508 0.88963 0.0
C446 C 0.3417 0.33959 0.9098 0.0
C447 C 0.36863 0.31433 0.91616 0.0
C448 C 0.33413 0.35147 0.87247 0.0
C449 C 0.39066 0.30413 0.88475 0.0
C450 C 0.38337 0.31589 0.84759 0.0
C451 C 0.34201 0.34536 0.80355 0.0
C452 C 0.31029 0.36537 0.79711 0.0
C453 C 0.35393 0.33822 0.84101 0.0
C454 C 0.29337 0.38114 0.82867 0.0
C455 C 0.30511 0.37424 0.86593 0.0
H456 H 0.24246 0.40172 0.45398 0.0
H457 H 0.09938 0.39455 0.46749 0.0
H458 H 0.10847 0.39536 0.53698 0.0
H459 H 0.15415 0.39233 0.59312 0.0
H460 H 0.29582 0.39654 0.57946 0.0
H461 H 0.29012 0.4029 0.51018 0.0
C462 C 0.21323 0.40064 0.472 0.0
C463 C 0.16996 0.39763 0.45546 0.0
C464 C 0.21838 0.40033 0.51172 0.0
C465 C 0.13292 0.39678 0.47939 0.0
C466 C 0.13806 0.39706 0.51909 0.0
C467 C 0.18407 0.3949 0.57512 0.0
C468 C 0.22527 0.3935 0.59152 0.0
C469 C 0.18019 0.3979 0.53547 0.0
C470 C 0.26373 0.39737 0.56766 0.0
C471 C 0.26038 0.40089 0.52807 0.0
H472 H 0.76492 0.15694 0.92573 0.0
H473 H 0.90603 0.29618 0.91207 0.0
H474 H 0.89664 0.28776 0.8426 0.0
H475 H 0.85069 0.23885 0.78647 0.0
H476 H 0.71091 0.09827 0.80022 0.0
H477 H 0.71757 0.10949 0.8696 0.0
C478 C 0.79367 0.18576 0.9077 0.0
C479 C 0.83639 0.22713 0.92419 0.0
C480 C 0.78833 0.18028 0.86799 0.0
C481 C 0.87291 0.26404 0.90022 0.0
C482 C 0.86757 0.25912 0.86052 0.0
C483 C 0.8214 0.21059 0.8045 0.0
C484 C 0.78037 0.16749 0.78808 0.0
C485 C 0.82579 0.21705 0.84419 0.0
C486 C 0.74284 0.13162 0.81203 0.0
C487 C 0.74672 0.13804 0.85168 0.0
H488 H 0.5972 0.76461 0.25634 0.0
H489 H 0.61058 0.91082 0.24384 0.0
H490 H 0.60966 0.9021 0.17426 0.0
H491 H 0.60959 0.85505 0.11774 0.0
H492 H 0.59911 0.71015 0.13062 0.0
H493 H 0.59427 0.71643 0.19997 0.0
C494 C 0.59968 0.79467 0.23855 0.0
C495 C 0.60427 0.83858 0.25538 0.0
C496 C 0.59987 0.78968 0.19882 0.0
C497 C 0.6071 0.87676 0.2317 0.0
C498 C 0.60671 0.8718 0.19196 0.0
C499 C 0.606 0.82457 0.13558 0.0
C500 C 0.60499 0.78218 0.11891 0.0
C501 C 0.60384 0.82874 0.1753 0.0
C502 C 0.60009 0.74314 0.14262 0.0
C503 C 0.59739 0.74679 0.18225 0.0
H504 H 0.7454 0.60119 0.45069 0.0
H505 H 0.87963 0.59065 0.46218 0.0
H506 H 0.86871 0.58476 0.5316 0.0
H507 H 0.82392 0.58732 0.58846 0.0
H508 H 0.69141 0.60093 0.57711 0.0
H509 H 0.6987 0.60041 0.50751 0.0
C510 C 0.77231 0.59737 0.46823 0.0
C511 C 0.81361 0.59672 0.45118 0.0
C512 C 0.7661 0.59461 0.50795 0.0
C513 C 0.8477 0.5914 0.47449 0.0
C514 C 0.84147 0.58811 0.51415 0.0
C515 C 0.79628 0.58987 0.5709 0.0
C516 C 0.75723 0.59449 0.58809 0.0
C517 C 0.80121 0.59038 0.53112 0.0
C518 C 0.72177 0.5974 0.56472 0.0
C519 C 0.72606 0.59728 0.52495 0.0
H520 H 0.23066 0.84179 0.92621 0.0
H521 H 0.09259 0.6994 0.91324 0.0
H522 H 0.10277 0.70666 0.84372 0.0
H523 H 0.14956 0.75435 0.78739 0.0
H524 H 0.28633 0.89788 0.80053 0.0
H525 H 0.27784 0.88896 0.87002 0.0
C526 C 0.20269 0.81203 0.90835 0.0
C527 C 0.16076 0.76994 0.92502 0.0
C528 C 0.20857 0.81675 0.86866 0.0
C529 C 0.12509 0.73207 0.90123 0.0
C530 C 0.13094 0.73628 0.86153 0.0
C531 C 0.17781 0.78378 0.80531 0.0
C532 C 0.21867 0.82689 0.78867 0.0
C533 C 0.17235 0.77861 0.84503 0.0
C534 C 0.25465 0.86442 0.8125 0.0
C535 C 0.24972 0.85932 0.8522 0.0
H536 H 0.37891 0.2346 0.26045 0.0
H537 H 0.39076 0.10114 0.24651 0.0
H538 H 0.39872 0.1147 0.17739 0.0
H539 H 0.39935 0.16245 0.12153 0.0
H540 H 0.38478 0.29439 0.13503 0.0
H541 H 0.38133 0.28349 0.20448 0.0
C542 C 0.38339 0.20839 0.24243 0.0
C543 C 0.38408 0.16667 0.25872 0.0
C544 C 0.38751 0.21621 0.20287 0.0
C545 C 0.39 0.13337 0.23479 0.0
C546 C 0.39455 0.14116 0.19531 0.0
C547 C 0.39569 0.18919 0.13951 0.0
C548 C 0.3922 0.22926 0.12298 0.0
C549 C 0.39295 0.1822 0.17912 0.0
C550 C 0.38758 0.26335 0.14693 0.0
C551 C 0.38545 0.25699 0.18659 0.0
loop_
_geom_bond_atom_site_label_1
_geom_bond_atom_site_label_2
_geom_bond_distance
_geom_bond_site_symmetry_2
_ccdc_geom_bond_type
O0 Cd1 2.223 . S
O0 C8 1.315 . S
Cd1 O0 2.223 . S
Cd1 O4 2.297 . S
Cd1 O5 2.439 . S
Cd1 O11 2.240 . S
Cd2 O3 2.240 . S
Cd2 O10 2.223 . S
Cd2 O12 2.297 . S
Cd2 O13 2.439 . S
O3 Cd2 2.240 . S
O3 C8 1.279 . S
O4 Cd1 2.297 . S
O4 C6 1.247 . S
O5 Cd1 2.439 . S
O5 C6 1.208 . S
C6 O4 1.247 . S
C6 O5 1.208 . S
C7 O12 1.247 . S
C7 O13 1.208 . S
C8 O0 1.315 . S
C8 O3 1.279 . S
C9 O10 1.315 . S
C9 O11 1.279 . S
O10 Cd2 2.223 . S
O10 C9 1.315 . S
O11 Cd1 2.240 . S
O11 C9 1.279 . S
O12 Cd2 2.297 . S
O12 C7 1.247 . S
O13 Cd2 2.439 . S
O13 C7 1.208 . S
O14 Cd15 2.223 . S
O14 C22 1.315 . S
Cd15 O14 2.223 . S
Cd15 O18 2.297 . S
Cd15 O19 2.439 . S
Cd15 O25 2.240 . S
Cd16 O17 2.240 . S
Cd16 O24 2.223 . S
Cd16 O26 2.297 . S
Cd16 O27 2.439 . S
O17 Cd16 2.240 . S
O17 C22 1.279 . S
O18 Cd15 2.297 . S
O18 C20 1.247 . S
O19 Cd15 2.439 . S
O19 C20 1.208 . S
C20 O18 1.247 . S
C20 O19 1.208 . S
C21 O26 1.247 . S
C21 O27 1.208 . S
C22 O14 1.315 . S
C22 O17 1.279 . S
C23 O24 1.315 . S
C23 O25 1.279 . S
O24 Cd16 2.223 . S
O24 C23 1.315 . S
O25 Cd15 2.240 . S
O25 C23 1.279 . S
O26 Cd16 2.297 . S
O26 C21 1.247 . S
O27 Cd16 2.439 . S
O27 C21 1.208 . S
O28 Cd29 2.223 . S
O28 C36 1.315 . S
Cd29 O28 2.223 . S
Cd29 O32 2.297 . S
Cd29 O33 2.439 1_554 S
Cd29 O39 2.240 1_554 S
Cd30 O31 2.240 . S
Cd30 O38 2.223 . S
Cd30 O40 2.297 1_554 S
Cd30 O41 2.439 1_554 S
O31 Cd30 2.240 . S
O31 C36 1.279 . S
O32 Cd29 2.297 . S
O32 C34 1.247 . S
O33 Cd29 2.439 1_556 S
O33 C34 1.208 1_556 S
C34 O32 1.247 . S
C34 O33 1.208 1_554 S
C35 O40 1.247 . S
C35 O41 1.208 . S
C36 O28 1.315 . S
C36 O31 1.279 . S
C37 O38 1.312 1_556 S
C37 O39 1.284 . S
O38 Cd30 2.223 . S
O38 C37 1.312 1_554 S
O39 Cd29 2.240 1_556 S
O39 C37 1.284 . S
O40 Cd30 2.297 1_556 S
O40 C35 1.247 . S
O41 Cd30 2.439 1_556 S
O41 C35 1.208 . S
O42 Cd43 2.223 . S
O42 C50 1.315 . S
Cd43 O42 2.223 . S
Cd43 O46 2.297 . S
Cd43 O47 2.439 . S
Cd43 O53 2.240 . S
Cd44 O45 2.240 . S
Cd44 O52 2.223 . S
Cd44 O54 2.297 . S
Cd44 O55 2.439 . S
O45 Cd44 2.240 . S
O45 C50 1.279 . S
O46 Cd43 2.297 . S
O46 C48 1.247 . S
O47 Cd43 2.439 . S
O47 C48 1.208 . S
C48 O46 1.247 . S
C48 O47 1.208 . S
C49 O54 1.247 . S
C49 O55 1.208 . S
C50 O42 1.315 . S
C50 O45 1.279 . S
C51 O52 1.315 . S
C51 O53 1.279 . S
O52 Cd44 2.223 . S
O52 C51 1.315 . S
O53 Cd43 2.240 . S
O53 C51 1.279 . S
O54 Cd44 2.297 . S
O54 C49 1.247 . S
O55 Cd44 2.439 . S
O55 C49 1.208 . S
O56 Cd57 2.223 . S
O56 C64 1.315 . S
Cd57 O56 2.223 . S
Cd57 O60 2.297 . S
Cd57 O61 2.439 . S
Cd57 O67 2.240 . S
Cd58 O59 2.240 . S
Cd58 O66 2.223 . S
Cd58 O68 2.297 . S
Cd58 O69 2.439 . S
O59 Cd58 2.240 . S
O59 C64 1.279 . S
O60 Cd57 2.297 . S
O60 C62 1.247 . S
O61 Cd57 2.439 . S
O61 C62 1.208 . S
C62 O60 1.247 . S
C62 O61 1.208 . S
C63 O68 1.247 . S
C63 O69 1.208 . S
C64 O56 1.315 . S
C64 O59 1.279 . S
C65 O66 1.315 . S
C65 O67 1.279 . S
O66 Cd58 2.223 . S
O66 C65 1.315 . S
O67 Cd57 2.240 . S
O67 C65 1.279 . S
O68 Cd58 2.297 . S
O68 C63 1.247 . S
O69 Cd58 2.439 . S
O69 C63 1.208 . S
O70 Cd71 2.223 . S
O70 C78 1.315 . S
Cd71 O70 2.223 . S
Cd71 O74 2.297 . S
Cd71 O75 2.439 1_554 S
Cd71 O81 2.240 1_554 S
Cd72 O73 2.240 . S
Cd72 O80 2.223 . S
Cd72 O82 2.297 1_554 S
Cd72 O83 2.439 1_554 S
O73 Cd72 2.240 . S
O73 C78 1.279 . S
O74 Cd71 2.297 . S
O74 C76 1.247 . S
O75 Cd71 2.439 1_556 S
O75 C76 1.208 1_556 S
C76 O74 1.247 . S
C76 O75 1.208 1_554 S
C77 O82 1.247 . S
C77 O83 1.208 . S
C78 O70 1.315 . S
C78 O73 1.279 . S
C79 O80 1.312 1_556 S
C79 O81 1.284 . S
O80 Cd72 2.223 . S
O80 C79 1.312 1_554 S
O81 Cd71 2.240 1_556 S
O81 C79 1.284 . S
O82 Cd72 2.297 1_556 S
O82 C77 1.247 . S
O83 Cd72 2.439 1_556 S
O83 C77 1.208 . S
O84 Cd85 2.223 . S
O84 C92 1.315 . S
Cd85 O84 2.223 . S
Cd85 O88 2.297 . S
Cd85 O89 2.439 . S
Cd85 O95 2.240 . S
Cd86 O87 2.240 . S
Cd86 O94 2.223 . S
Cd86 O96 2.297 . S
Cd86 O97 2.439 . S
O87 Cd86 2.240 . S
O87 C92 1.279 . S
O88 Cd85 2.297 . S
O88 C90 1.247 . S
O89 Cd85 2.439 . S
O89 C90 1.208 . S
C90 O88 1.247 . S
C90 O89 1.208 . S
C91 O96 1.247 . S
C91 O97 1.208 . S
C92 O84 1.315 . S
C92 O87 1.279 . S
C93 O94 1.315 . S
C93 O95 1.279 . S
O94 Cd86 2.223 . S
O94 C93 1.315 . S
O95 Cd85 2.240 . S
O95 C93 1.279 . S
O96 Cd86 2.297 . S
O96 C91 1.247 . S
O97 Cd86 2.439 . S
O97 C91 1.208 . S
O98 Cd99 2.223 . S
O98 C106 1.315 . S
Cd99 O98 2.223 . S
Cd99 O102 2.297 . S
Cd99 O103 2.439 . S
Cd99 O109 2.240 . S
Cd100 O101 2.240 . S
Cd100 O108 2.223 . S
Cd100 O110 2.297 . S
Cd100 O111 2.439 . S
O101 Cd100 2.240 . S
O101 C106 1.279 . S
O102 Cd99 2.297 . S
O102 C104 1.247 . S
O103 Cd99 2.439 . S
O103 C104 1.208 . S
C104 O102 1.247 . S
C104 O103 1.208 . S
C105 O110 1.247 . S
C105 O111 1.208 . S
C106 O98 1.315 . S
C106 O101 1.279 . S
C107 O108 1.315 . S
C107 O109 1.279 . S
O108 Cd100 2.223 . S
O108 C107 1.315 . S
O109 Cd99 2.240 . S
O109 C107 1.279 . S
O110 Cd100 2.297 . S
O110 C105 1.247 . S
O111 Cd100 2.439 . S
O111 C105 1.208 . S
O112 Cd113 2.223 . S
O112 C120 1.315 . S
Cd113 O112 2.223 . S
Cd113 O116 2.297 . S
Cd113 O117 2.439 1_556 S
Cd113 O123 2.240 1_556 S
Cd114 O115 2.240 . S
Cd114 O122 2.223 . S
Cd114 O124 2.297 1_556 S
Cd114 O125 2.439 1_556 S
O115 Cd114 2.240 . S
O115 C120 1.279 . S
O116 Cd113 2.297 . S
O116 C118 1.247 . S
O117 Cd113 2.439 1_554 S
O117 C118 1.208 1_554 S
C118 O116 1.247 . S
C118 O117 1.208 1_556 S
C119 O124 1.247 . S
C119 O125 1.208 . S
C120 O112 1.315 . S
C120 O115 1.279 . S
C121 O122 1.312 1_554 S
C121 O123 1.284 . S
O122 Cd114 2.223 . S
O122 C121 1.312 1_556 S
O123 Cd113 2.240 1_554 S
O123 C121 1.284 . S
O124 Cd114 2.297 1_554 S
O124 C119 1.247 . S
O125 Cd114 2.439 1_554 S
O125 C119 1.208 . S
O126 Cd127 2.223 . S
O126 C134 1.315 . S
Cd127 O126 2.223 . S
Cd127 O130 2.297 . S
Cd127 O131 2.439 . S
Cd127 O137 2.240 . S
Cd128 O129 2.240 . S
Cd128 O136 2.223 . S
Cd128 O138 2.297 . S
Cd128 O139 2.439 . S
O129 Cd128 2.240 . S
O129 C134 1.279 . S
O130 Cd127 2.297 . S
O130 C132 1.247 . S
O131 Cd127 2.439 . S
O131 C132 1.208 . S
C132 O130 1.247 . S
C132 O131 1.208 . S
C133 O138 1.247 . S
C133 O139 1.208 . S
C134 O126 1.315 . S
C134 O129 1.279 . S
C135 O136 1.315 . S
C135 O137 1.279 . S
O136 Cd128 2.223 . S
O136 C135 1.315 . S
O137 Cd127 2.240 . S
O137 C135 1.279 . S
O138 Cd128 2.297 . S
O138 C133 1.247 . S
O139 Cd128 2.439 . S
O139 C133 1.208 . S
O140 Cd141 2.223 . S
O140 C148 1.315 . S
Cd141 O140 2.223 . S
Cd141 O144 2.297 . S
Cd141 O145 2.439 . S
Cd141 O151 2.240 . S
Cd142 O143 2.240 . S
Cd142 O150 2.223 . S
Cd142 O152 2.297 . S
Cd142 O153 2.439 . S
O143 Cd142 2.240 . S
O143 C148 1.279 . S
O144 Cd141 2.297 . S
O144 C146 1.247 . S
O145 Cd141 2.439 . S
O145 C146 1.208 . S
C146 O144 1.247 . S
C146 O145 1.208 . S
C147 O152 1.247 . S
C147 O153 1.208 . S
C148 O140 1.315 . S
C148 O143 1.279 . S
C149 O150 1.315 . S
C149 O151 1.279 . S
O150 Cd142 2.223 . S
O150 C149 1.315 . S
O151 Cd141 2.240 . S
O151 C149 1.279 . S
O152 Cd142 2.297 . S
O152 C147 1.247 . S
O153 Cd142 2.439 . S
O153 C147 1.208 . S
O154 Cd155 2.223 . S
O154 C162 1.315 . S
Cd155 O154 2.223 . S
Cd155 O158 2.297 . S
Cd155 O159 2.439 1_556 S
Cd155 O165 2.240 1_556 S
Cd156 O157 2.240 . S
Cd156 O164 2.223 . S
Cd156 O166 2.297 1_556 S
Cd156 O167 2.439 1_556 S
O157 Cd156 2.240 . S
O157 C162 1.279 . S
O158 Cd155 2.297 . S
O158 C160 1.247 . S
O159 Cd155 2.439 1_554 S
O159 C160 1.208 1_554 S
C160 O158 1.247 . S
C160 O159 1.208 1_556 S
C161 O166 1.247 . S
C161 O167 1.208 . S
C162 O154 1.315 . S
C162 O157 1.279 . S
C163 O164 1.312 1_554 S
C163 O165 1.284 . S
O164 Cd156 2.223 . S
O164 C163 1.312 1_556 S
O165 Cd155 2.240 1_554 S
O165 C163 1.284 . S
O166 Cd156 2.297 1_554 S
O166 C161 1.247 . S
O167 Cd156 2.439 1_554 S
O167 C161 1.208 . S
H168 C174 0.930 . S
H169 C177 0.930 . S
H170 C178 0.930 . S
H171 C179 0.930 . S
H172 C182 0.930 . S
H173 C183 0.930 . S
C174 H168 0.930 . S
C174 C175 1.355 . S
C174 C176 1.415 . S
C175 C174 1.355 . S
C175 C177 1.419 . S
C176 C174 1.415 . S
C176 C181 1.425 . S
C176 C183 1.409 . S
C177 H169 0.930 . S
C177 C175 1.419 . S
C177 C178 1.362 . S
C178 H170 0.930 . S
C178 C177 1.362 . S
C178 C181 1.409 . S
C179 H171 0.930 . S
C179 C180 1.355 . S
C179 C181 1.415 . S
C180 C179 1.355 . S
C180 C182 1.419 . S
C181 C176 1.425 . S
C181 C178 1.409 . S
C181 C179 1.415 . S
C182 H172 0.930 . S
C182 C180 1.419 . S
C182 C183 1.362 . S
C183 H173 0.930 . S
C183 C176 1.409 . S
C183 C182 1.362 . S
H184 C190 0.930 . S
H185 C193 0.930 . S
H186 C194 0.930 . S
H187 C195 0.930 . S
H188 C198 0.930 . S
H189 C199 0.930 . S
C190 H184 0.930 . S
C190 C191 1.355 . S
C190 C192 1.415 . S
C191 C190 1.355 . S
C191 C193 1.419 . S
C192 C190 1.415 . S
C192 C197 1.425 . S
C192 C199 1.409 . S
C193 H185 0.930 . S
C193 C191 1.419 . S
C193 C194 1.362 . S
C194 H186 0.930 . S
C194 C193 1.362 . S
C194 C197 1.409 . S
C195 H187 0.930 . S
C195 C196 1.355 . S
C195 C197 1.415 . S
C196 C195 1.355 . S
C196 C198 1.419 . S
C197 C192 1.425 . S
C197 C194 1.409 . S
C197 C195 1.415 . S
C198 H188 0.930 . S
C198 C196 1.419 . S
C198 C199 1.362 . S
C199 H189 0.930 . S
C199 C192 1.409 . S
C199 C198 1.362 . S
H200 C206 0.930 . S
H201 C209 0.930 . S
H202 C210 0.930 . S
H203 C211 0.930 . S
H204 C214 0.930 . S
H205 C215 0.930 . S
C206 H200 0.930 . S
C206 C207 1.350 1_556 S
C206 C208 1.415 . S
C207 C206 1.350 1_554 S
C207 C209 1.425 . S
C208 C206 1.415 . S
C208 C213 1.425 1_556 S
C208 C215 1.409 . S
C209 H201 0.930 . S
C209 C207 1.425 . S
C209 C210 1.362 . S
C210 H202 0.930 . S
C210 C209 1.362 . S
C210 C213 1.409 . S
C211 H203 0.930 . S
C211 C212 1.348 1_554 S
C211 C213 1.415 . S
C212 C211 1.348 1_556 S
C212 C214 1.428 . S
C213 C208 1.425 1_554 S
C213 C210 1.409 . S
C213 C211 1.415 . S
C214 H204 0.930 . S
C214 C212 1.428 . S
C214 C215 1.362 . S
C215 H205 0.930 . S
C215 C208 1.409 . S
C215 C214 1.362 . S
H216 C222 0.930 . S
H217 C225 0.930 . S
H218 C226 0.930 . S
H219 C227 0.930 . S
H220 C230 0.930 . S
H221 C231 0.930 . S
C222 H216 0.930 . S
C222 C223 1.355 . S
C222 C224 1.415 . S
C223 C222 1.355 . S
C223 C225 1.419 . S
C224 C222 1.415 . S
C224 C229 1.425 . S
C224 C231 1.409 . S
C225 H217 0.930 . S
C225 C223 1.419 . S
C225 C226 1.362 . S
C226 H218 0.930 . S
C226 C225 1.362 . S
C226 C229 1.409 . S
C227 H219 0.930 . S
C227 C228 1.355 . S
C227 C229 1.415 . S
C228 C227 1.355 . S
C228 C230 1.419 . S
C229 C224 1.425 . S
C229 C226 1.409 . S
C229 C227 1.415 . S
C230 H220 0.930 . S
C230 C228 1.419 . S
C230 C231 1.362 . S
C231 H221 0.930 . S
C231 C224 1.409 . S
C231 C230 1.362 . S
H232 C238 0.930 . S
H233 C241 0.930 . S
H234 C242 0.930 . S
H235 C243 0.930 . S
H236 C246 0.930 . S
H237 C247 0.930 . S
C238 H232 0.930 . S
C238 C239 1.355 . S
C238 C240 1.415 . S
C239 C238 1.355 . S
C239 C241 1.419 . S
C240 C238 1.415 . S
C240 C245 1.425 . S
C240 C247 1.409 . S
C241 H233 0.930 . S
C241 C239 1.419 . S
C241 C242 1.362 . S
C242 H234 0.930 . S
C242 C241 1.362 . S
C242 C245 1.409 . S
C243 H235 0.930 . S
C243 C244 1.355 . S
C243 C245 1.415 . S
C244 C243 1.355 . S
C244 C246 1.419 . S
C245 C240 1.425 . S
C245 C242 1.409 . S
C245 C243 1.415 . S
C246 H236 0.930 . S
C246 C244 1.419 . S
C246 C247 1.362 . S
C247 H237 0.930 . S
C247 C240 1.409 . S
C247 C246 1.362 . S
H248 C254 0.930 . S
H249 C257 0.930 . S
H250 C258 0.930 . S
H251 C259 0.930 . S
H252 C262 0.930 . S
H253 C263 0.930 . S
C254 H248 0.930 . S
C254 C255 1.355 1_556 S
C254 C256 1.415 . S
C255 C254 1.355 1_554 S
C255 C257 1.419 . S
C256 C254 1.415 . S
C256 C261 1.425 1_556 S
C256 C263 1.409 . S
C257 H249 0.930 . S
C257 C255 1.419 . S
C257 C258 1.362 . S
C258 H250 0.930 . S
C258 C257 1.362 . S
C258 C261 1.409 . S
C259 H251 0.930 . S
C259 C260 1.355 1_554 S
C259 C261 1.415 . S
C260 C259 1.355 1_556 S
C260 C262 1.419 . S
C261 C256 1.425 1_554 S
C261 C258 1.409 . S
C261 C259 1.415 . S
C262 H252 0.930 . S
C262 C260 1.419 . S
C262 C263 1.362 . S
C263 H253 0.930 . S
C263 C256 1.409 . S
C263 C262 1.362 . S
H264 C270 0.930 . S
H265 C273 0.930 . S
H266 C274 0.930 . S
H267 C275 0.930 . S
H268 C278 0.930 . S
H269 C279 0.930 . S
C270 H264 0.930 . S
C270 C271 1.355 . S
C270 C272 1.415 . S
C271 C270 1.355 . S
C271 C273 1.419 . S
C272 C270 1.415 . S
C272 C277 1.425 . S
C272 C279 1.409 . S
C273 H265 0.930 . S
C273 C271 1.419 . S
C273 C274 1.362 . S
C274 H266 0.930 . S
C274 C273 1.362 . S
C274 C277 1.409 . S
C275 H267 0.930 . S
C275 C276 1.355 . S
C275 C277 1.415 . S
C276 C275 1.355 . S
C276 C278 1.419 . S
C277 C272 1.425 . S
C277 C274 1.409 . S
C277 C275 1.415 . S
C278 H268 0.930 . S
C278 C276 1.419 . S
C278 C279 1.362 . S
C279 H269 0.930 . S
C279 C272 1.409 . S
C279 C278 1.362 . S
H280 C286 0.930 . S
H281 C289 0.930 . S
H282 C290 0.930 . S
H283 C291 0.930 . S
H284 C294 0.930 . S
H285 C295 0.930 . S
C286 H280 0.930 . S
C286 C287 1.355 . S
C286 C288 1.415 . S
C287 C286 1.355 . S
C287 C289 1.419 . S
C288 C286 1.415 . S
C288 C293 1.425 1_655 S
C288 C295 1.409 1_655 S
C289 H281 0.930 . S
C289 C287 1.419 . S
C289 C290 1.362 . S
C290 H282 0.930 . S
C290 C289 1.362 . S
C290 C293 1.409 1_655 S
C291 H283 0.930 . S
C291 C292 1.355 . S
C291 C293 1.415 . S
C292 C291 1.355 . S
C292 C294 1.419 . S
C293 C288 1.425 1_455 S
C293 C290 1.409 1_455 S
C293 C291 1.415 . S
C294 H284 0.930 . S
C294 C292 1.419 . S
C294 C295 1.362 . S
C295 H285 0.930 . S
C295 C288 1.409 1_455 S
C295 C294 1.362 . S
H296 C302 0.930 . S
H297 C305 0.930 . S
H298 C306 0.930 . S
H299 C307 0.930 . S
H300 C310 0.930 . S
H301 C311 0.930 . S
C302 H296 0.930 . S
C302 C303 1.355 1_554 S
C302 C304 1.415 . S
C303 C302 1.355 1_556 S
C303 C305 1.419 . S
C304 C302 1.415 . S
C304 C309 1.425 1_544 S
C304 C311 1.409 1_545 S
C305 H297 0.930 . S
C305 C303 1.419 . S
C305 C306 1.362 . S
C306 H298 0.930 . S
C306 C305 1.362 . S
C306 C309 1.409 1_545 S
C307 H299 0.930 . S
C307 C308 1.355 1_556 S
C307 C309 1.415 . S
C308 C307 1.355 1_554 S
C308 C310 1.419 . S
C309 C304 1.425 1_566 S
C309 C306 1.409 1_565 S
C309 C307 1.415 . S
C310 H300 0.930 . S
C310 C308 1.419 . S
C310 C311 1.362 . S
C311 H301 0.930 . S
C311 C304 1.409 1_565 S
C311 C310 1.362 . S
H312 C318 0.930 . S
H313 C321 0.930 . S
H314 C322 0.930 . S
H315 C323 0.930 . S
H316 C326 0.930 . S
H317 C327 0.930 . S
C318 H312 0.930 . S
C318 C319 1.355 . S
C318 C320 1.415 . S
C319 C318 1.355 . S
C319 C321 1.419 . S
C320 C318 1.415 . S
C320 C325 1.425 . S
C320 C327 1.409 . S
C321 H313 0.930 . S
C321 C319 1.419 . S
C321 C322 1.362 . S
C322 H314 0.930 . S
C322 C321 1.362 . S
C322 C325 1.409 . S
C323 H315 0.930 . S
C323 C324 1.355 . S
C323 C325 1.415 . S
C324 C323 1.355 . S
C324 C326 1.419 . S
C325 C320 1.425 . S
C325 C322 1.409 . S
C325 C323 1.415 . S
C326 H316 0.930 . S
C326 C324 1.419 . S
C326 C327 1.362 . S
C327 H317 0.930 . S
C327 C320 1.409 . S
C327 C326 1.362 . S
H328 C334 0.930 . S
H329 C337 0.930 . S
H330 C338 0.930 . S
H331 C339 0.930 . S
H332 C342 0.930 . S
H333 C343 0.930 . S
C334 H328 0.930 . S
C334 C335 1.355 . S
C334 C336 1.415 . S
C335 C334 1.355 . S
C335 C337 1.419 . S
C336 C334 1.415 . S
C336 C341 1.425 1_455 S
C336 C343 1.409 1_455 S
C337 H329 0.930 . S
C337 C335 1.419 . S
C337 C338 1.362 . S
C338 H330 0.930 . S
C338 C337 1.362 . S
C338 C341 1.409 1_455 S
C339 H331 0.930 . S
C339 C340 1.355 . S
C339 C341 1.415 . S
C340 C339 1.355 . S
C340 C342 1.419 . S
C341 C336 1.425 1_655 S
C341 C338 1.409 1_655 S
C341 C339 1.415 . S
C342 H332 0.930 . S
C342 C340 1.419 . S
C342 C343 1.362 . S
C343 H333 0.930 . S
C343 C336 1.409 1_655 S
C343 C342 1.362 . S
H344 C350 0.930 . S
H345 C353 0.930 . S
H346 C354 0.930 . S
H347 C355 0.930 . S
H348 C358 0.930 . S
H349 C359 0.930 . S
C350 H344 0.930 . S
C350 C351 1.355 1_556 S
C350 C352 1.415 . S
C351 C350 1.355 1_554 S
C351 C353 1.419 . S
C352 C350 1.415 . S
C352 C357 1.425 1_546 S
C352 C359 1.409 1_545 S
C353 H345 0.930 . S
C353 C351 1.419 . S
C353 C354 1.362 . S
C354 H346 0.930 . S
C354 C353 1.362 . S
C354 C357 1.409 1_545 S
C355 H347 0.930 . S
C355 C356 1.355 1_554 S
C355 C357 1.415 . S
C356 C355 1.355 1_556 S
C356 C358 1.419 . S
C357 C352 1.425 1_564 S
C357 C354 1.409 1_565 S
C357 C355 1.415 . S
C358 H348 0.930 . S
C358 C356 1.419 . S
C358 C359 1.362 . S
C359 H349 0.930 . S
C359 C352 1.409 1_565 S
C359 C358 1.362 . S
H360 C366 0.928 1_455 S
H361 C369 0.930 . S
H362 C370 0.930 . S
H363 C371 0.930 . S
H364 C374 0.930 . S
H365 C375 0.930 . S
C366 H360 0.928 1_655 S
C366 C367 1.361 . S
C366 C368 1.411 1_655 S
C367 C366 1.361 . S
C367 C369 1.419 . S
C368 C366 1.411 1_455 S
C368 C373 1.425 1_455 S
C368 C375 1.409 . S
C369 H361 0.930 . S
C369 C367 1.419 . S
C369 C370 1.362 . S
C370 H362 0.930 . S
C370 C369 1.362 . S
C370 C373 1.409 . S
C371 H363 0.930 . S
C371 C372 1.355 1_655 S
C371 C373 1.415 . S
C372 C371 1.355 1_455 S
C372 C374 1.419 . S
C373 C368 1.425 1_655 S
C373 C370 1.409 . S
C373 C371 1.415 . S
C374 H364 0.930 . S
C374 C372 1.419 . S
C374 C375 1.362 . S
C375 H365 0.930 . S
C375 C368 1.409 . S
C375 C374 1.362 . S
H376 C382 0.930 . S
H377 C385 0.930 . S
H378 C386 0.930 . S
H379 C387 0.930 . S
H380 C390 0.930 . S
H381 C391 0.930 . S
C382 H376 0.930 . S
C382 C383 1.355 1_565 S
C382 C384 1.415 . S
C383 C382 1.355 1_545 S
C383 C385 1.419 . S
C384 C382 1.415 . S
C384 C389 1.425 1_565 S
C384 C391 1.409 . S
C385 H377 0.930 . S
C385 C383 1.419 . S
C385 C386 1.362 . S
C386 H378 0.930 . S
C386 C385 1.362 . S
C386 C389 1.409 . S
C387 H379 0.930 . S
C387 C388 1.355 1_545 S
C387 C389 1.415 . S
C388 C387 1.355 1_565 S
C388 C390 1.419 . S
C389 C384 1.425 1_545 S
C389 C386 1.409 . S
C389 C387 1.415 . S
C390 H380 0.930 . S
C390 C388 1.419 . S
C390 C391 1.362 . S
C391 H381 0.930 . S
C391 C384 1.409 . S
C391 C390 1.362 . S
H392 C398 0.930 . S
H393 C401 0.930 . S
H394 C402 0.930 . S
H395 C403 0.930 . S
H396 C406 0.930 . S
H397 C407 0.930 . S
C398 H392 0.930 . S
C398 C399 1.355 . S
C398 C400 1.415 . S
C399 C398 1.355 . S
C399 C401 1.419 . S
C400 C398 1.415 . S
C400 C405 1.425 . S
C400 C407 1.409 . S
C401 H393 0.930 . S
C401 C399 1.419 . S
C401 C402 1.362 . S
C402 H394 0.930 . S
C402 C401 1.362 . S
C402 C405 1.409 . S
C403 H395 0.930 . S
C403 C404 1.355 . S
C403 C405 1.415 . S
C404 C403 1.355 . S
C404 C406 1.419 . S
C405 C400 1.425 . S
C405 C402 1.409 . S
C405 C403 1.415 . S
C406 H396 0.930 . S
C406 C404 1.419 . S
C406 C407 1.362 . S
C407 H397 0.930 . S
C407 C400 1.409 . S
C407 C406 1.362 . S
H408 C414 0.930 . S
H409 C417 0.930 . S
H410 C418 0.930 . S
H411 C419 0.930 . S
H412 C422 0.930 . S
H413 C423 0.930 . S
C414 H408 0.930 . S
C414 C415 1.355 1_655 S
C414 C416 1.415 . S
C415 C414 1.355 1_455 S
C415 C417 1.419 . S
C416 C414 1.415 . S
C416 C421 1.425 1_655 S
C416 C423 1.409 . S
C417 H409 0.930 . S
C417 C415 1.419 . S
C417 C418 1.362 . S
C418 H410 0.930 . S
C418 C417 1.362 . S
C418 C421 1.409 . S
C419 H411 0.930 . S
C419 C420 1.355 1_455 S
C419 C421 1.415 . S
C420 C419 1.355 1_655 S
C420 C422 1.419 . S
C421 C416 1.425 1_455 S
C421 C418 1.409 . S
C421 C419 1.415 . S
C422 H412 0.930 . S
C422 C420 1.419 . S
C422 C423 1.362 . S
C423 H413 0.930 . S
C423 C416 1.409 . S
C423 C422 1.362 . S
H424 C430 0.930 . S
H425 C433 0.930 . S
H426 C434 0.930 . S
H427 C435 0.930 . S
H428 C438 0.930 . S
H429 C439 0.930 . S
C430 H424 0.930 . S
C430 C431 1.355 . S
C430 C432 1.415 . S
C431 C430 1.355 . S
C431 C433 1.419 1_545 S
C432 C430 1.415 . S
C432 C437 1.425 1_545 S
C432 C439 1.409 . S
C433 H425 0.930 . S
C433 C431 1.419 1_565 S
C433 C434 1.362 . S
C434 H426 0.930 . S
C434 C433 1.362 . S
C434 C437 1.409 . S
C435 H427 0.930 . S
C435 C436 1.355 . S
C435 C437 1.415 . S
C436 C435 1.355 . S
C436 C438 1.419 1_565 S
C437 C432 1.425 1_565 S
C437 C434 1.409 . S
C437 C435 1.415 . S
C438 H428 0.930 . S
C438 C436 1.419 1_545 S
C438 C439 1.362 . S
C439 H429 0.930 . S
C439 C432 1.409 . S
C439 C438 1.362 . S
H440 C446 0.930 . S
H441 C449 0.930 . S
H442 C450 0.930 . S
H443 C451 0.930 . S
H444 C454 0.930 . S
H445 C455 0.930 . S
C446 H440 0.930 . S
C446 C447 1.355 . S
C446 C448 1.415 . S
C447 C446 1.355 . S
C447 C449 1.419 . S
C448 C446 1.415 . S
C448 C453 1.425 . S
C448 C455 1.409 . S
C449 H441 0.930 . S
C449 C447 1.419 . S
C449 C450 1.362 . S
C450 H442 0.930 . S
C450 C449 1.362 . S
C450 C453 1.409 . S
C451 H443 0.930 . S
C451 C452 1.355 . S
C451 C453 1.415 . S
C452 C451 1.355 . S
C452 C454 1.419 . S
C453 C448 1.425 . S
C453 C450 1.409 . S
C453 C451 1.415 . S
C454 H444 0.930 . S
C454 C452 1.419 . S
C454 C455 1.362 . S
C455 H445 0.930 . S
C455 C448 1.409 . S
C455 C454 1.362 . S
H456 C462 0.930 . S
H457 C465 0.930 . S
H458 C466 0.930 . S
H459 C467 0.930 . S
H460 C470 0.930 . S
H461 C471 0.930 . S
C462 H456 0.930 . S
C462 C463 1.355 . S
C462 C464 1.415 . S
C463 C462 1.355 . S
C463 C465 1.419 . S
C464 C462 1.415 . S
C464 C469 1.425 . S
C464 C471 1.409 . S
C465 H457 0.930 . S
C465 C463 1.419 . S
C465 C466 1.362 . S
C466 H458 0.930 . S
C466 C465 1.362 . S
C466 C469 1.409 . S
C467 H459 0.930 . S
C467 C468 1.355 . S
C467 C469 1.415 . S
C468 C467 1.355 . S
C468 C470 1.419 . S
C469 C464 1.425 . S
C469 C466 1.409 . S
C469 C467 1.415 . S
C470 H460 0.930 . S
C470 C468 1.419 . S
C470 C471 1.362 . S
C471 H461 0.930 . S
C471 C464 1.409 . S
C471 C470 1.362 . S
H472 C478 0.930 . S
H473 C481 0.930 . S
H474 C482 0.930 . S
H475 C483 0.930 . S
H476 C486 0.930 . S
H477 C487 0.930 . S
C478 H472 0.930 . S
C478 C479 1.355 . S
C478 C480 1.415 . S
C479 C478 1.355 . S
C479 C481 1.419 . S
C480 C478 1.415 . S
C480 C485 1.425 . S
C480 C487 1.409 . S
C481 H473 0.930 . S
C481 C479 1.419 . S
C481 C482 1.362 . S
C482 H474 0.930 . S
C482 C481 1.362 . S
C482 C485 1.409 . S
C483 H475 0.930 . S
C483 C484 1.355 . S
C483 C485 1.415 . S
C484 C483 1.355 . S
C484 C486 1.419 . S
C485 C480 1.425 . S
C485 C482 1.409 . S
C485 C483 1.415 . S
C486 H476 0.930 . S
C486 C484 1.419 . S
C486 C487 1.362 . S
C487 H477 0.930 . S
C487 C480 1.409 . S
C487 C486 1.362 . S
H488 C494 0.930 . S
H489 C497 0.930 . S
H490 C498 0.930 . S
H491 C499 0.930 . S
H492 C502 0.930 . S
H493 C503 0.930 . S
C494 H488 0.930 . S
C494 C495 1.355 . S
C494 C496 1.415 . S
C495 C494 1.355 . S
C495 C497 1.419 . S
C496 C494 1.415 . S
C496 C501 1.425 . S
C496 C503 1.409 . S
C497 H489 0.930 . S
C497 C495 1.419 . S
C497 C498 1.362 . S
C498 H490 0.930 . S
C498 C497 1.362 . S
C498 C501 1.409 . S
C499 H491 0.930 . S
C499 C500 1.355 . S
C499 C501 1.415 . S
C500 C499 1.355 . S
C500 C502 1.419 . S
C501 C496 1.425 . S
C501 C498 1.409 . S
C501 C499 1.415 . S
C502 H492 0.930 . S
C502 C500 1.419 . S
C502 C503 1.362 . S
C503 H493 0.930 . S
C503 C496 1.409 . S
C503 C502 1.362 . S
H504 C510 0.930 . S
H505 C513 0.930 . S
H506 C514 0.930 . S
H507 C515 0.930 . S
H508 C518 0.930 . S
H509 C519 0.930 . S
C510 H504 0.930 . S
C510 C511 1.355 . S
C510 C512 1.415 . S
C511 C510 1.355 . S
C511 C513 1.419 . S
C512 C510 1.415 . S
C512 C517 1.425 . S
C512 C519 1.409 . S
C513 H505 0.930 . S
C513 C511 1.419 . S
C513 C514 1.362 . S
C514 H506 0.930 . S
C514 C513 1.362 . S
C514 C517 1.409 . S
C515 H507 0.930 . S
C515 C516 1.355 . S
C515 C517 1.415 . S
C516 C515 1.355 . S
C516 C518 1.419 . S
C517 C512 1.425 . S
C517 C514 1.409 . S
C517 C515 1.415 . S
C518 H508 0.930 . S
C518 C516 1.419 . S
C518 C519 1.362 . S
C519 H509 0.930 . S
C519 C512 1.409 . S
C519 C518 1.362 . S
H520 C526 0.930 . S
H521 C529 0.930 . S
H522 C530 0.930 . S
H523 C531 0.930 . S
H524 C534 0.930 . S
H525 C535 0.930 . S
C526 H520 0.930 . S
C526 C527 1.355 . S
C526 C528 1.415 . S
C527 C526 1.355 . S
C527 C529 1.419 . S
C528 C526 1.415 . S
C528 C533 1.425 . S
C528 C535 1.409 . S
C529 H521 0.930 . S
C529 C527 1.419 . S
C529 C530 1.362 . S
C530 H522 0.930 . S
C530 C529 1.362 . S
C530 C533 1.409 . S
C531 H523 0.930 . S
C531 C532 1.355 . S
C531 C533 1.415 . S
C532 C531 1.355 . S
C532 C534 1.419 . S
C533 C528 1.425 . S
C533 C530 1.409 . S
C533 C531 1.415 . S
C534 H524 0.930 . S
C534 C532 1.419 . S
C534 C535 1.362 . S
C535 H525 0.930 . S
C535 C528 1.409 . S
C535 C534 1.362 . S
H536 C542 0.930 . S
H537 C545 0.930 . S
H538 C546 0.930 . S
H539 C547 0.930 . S
H540 C550 0.930 . S
H541 C551 0.930 . S
C542 H536 0.930 . S
C542 C543 1.355 . S
C542 C544 1.415 . S
C543 C542 1.355 . S
C543 C545 1.419 . S
C544 C542 1.415 . S
C544 C549 1.425 . S
C544 C551 1.409 . S
C545 H537 0.930 . S
C545 C543 1.419 . S
C545 C546 1.362 . S
C546 H538 0.930 . S
C546 C545 1.362 . S
C546 C549 1.409 . S
C547 H539 0.930 . S
C547 C548 1.355 . S
C547 C549 1.415 . S
C548 C547 1.355 . S
C548 C550 1.419 . S
C549 C544 1.425 . S
C549 C546 1.409 . S
C549 C547 1.415 . S
C550 H540 0.930 . S
C550 C548 1.419 . S
C550 C551 1.362 . S
C551 H541 0.930 . S
C551 C544 1.409 . S
C551 C550 1.362 . S
C175 C7 1.616 . S
C180 C91 1.708 . S
C191 C21 1.704 . S
C196 C105 1.619 . S
C207 C34 1.543 . S
C212 C118 1.629 . S
C223 C133 1.700 . S
C228 C49 1.622 . S
C239 C63 1.700 . S
C244 C147 1.629 . S
C255 C160 1.565 1_554 S
C260 C76 1.616 1_556 S
C271 C8 1.547 . S
C276 C134 1.555 . S
C287 C22 1.539 . S
C292 C148 1.549 . S
C303 C163 1.472 1_556 S
C308 C37 1.471 1_554 S
C319 C92 1.539 . S
C324 C50 1.533 . S
C335 C64 1.546 . S
C340 C106 1.554 . S
C351 C79 1.469 1_554 S
C356 C121 1.474 1_556 S
C367 C161 1.508 . S
C372 C6 1.522 . S
C383 C20 1.664 . S
C388 C90 1.677 . S
C399 C35 1.517 . S
C404 C104 1.512 . S
C415 C119 1.514 . S
C420 C48 1.515 . S
C431 C132 1.682 . S
C436 C62 1.663 . S
C447 C77 1.523 . S
C452 C146 1.504 . S
C463 C9 1.099 . S
C468 C149 1.049 . S
C479 C162 1.253 . S
C484 C23 1.236 . S
C495 C93 1.197 . S
C500 C36 1.243 . S
C511 C51 0.972 . S
C516 C107 0.991 . S
C527 C120 1.142 . S
C532 C65 1.128 . S
C543 C135 1.137 . S
C548 C78 1.130 . S
