# Generated by pormake.
# Topology upb, (4)-cn, num edge types: 1
# Building blocks:
#     Node 0, Type 0, BuildingBlock: CEKHIL_clean_sbu_0, # of connection points: 4
#     Node 1, Type 0, BuildingBlock: CEKHIL_clean_sbu_0, # of connection points: 4
#     Node 2, Type 0, BuildingBlock: CEKHIL_clean_sbu_0, # of connection points: 4
#     Node 3, Type 0, BuildingBlock: CEKHIL_clean_sbu_0, # of connection points: 4
#     Node 4, Type 0, BuildingBlock: CEKHIL_clean_sbu_0, # of connection points: 4
#     Node 5, Type 0, BuildingBlock: CEKHIL_clean_sbu_0, # of connection points: 4
#     Node 6, Type 0, BuildingBlock: CEKHIL_clean_sbu_0, # of connection points: 4
#     Node 7, Type 0, BuildingBlock: CEKHIL_clean_sbu_0, # of connection points: 4
#     Node 8, Type 0, BuildingBlock: CEKHIL_clean_sbu_0, # of connection points: 4
#     Node 9, Type 0, BuildingBlock: CEKHIL_clean_sbu_0, # of connection points: 4
#     Node 10, Type 0, BuildingBlock: CEKHIL_clean_sbu_0, # of connection points: 4
#     Node 11, Type 0, BuildingBlock: CEKHIL_clean_sbu_0, # of connection points: 4
#     Node 12, Type 0, BuildingBlock: CEKHIL_clean_sbu_0, # of connection points: 4
#     Node 13, Type 0, BuildingBlock: CEKHIL_clean_sbu_0, # of connection points: 4
#     Node 14, Type 0, BuildingBlock: CEKHIL_clean_sbu_0, # of connection points: 4
#     Node 15, Type 0, BuildingBlock: CEKHIL_clean_sbu_0, # of connection points: 4
#     Edge 16, Type (0, 0), BuildingBlock: CIFDUS_clean_linker_0, # of connection points: 2
#     Edge 17, Type (0, 0), BuildingBlock: CIFDUS_clean_linker_0, # of connection points: 2
#     Edge 18, Type (0, 0), BuildingBlock: CIFDUS_clean_linker_0, # of connection points: 2
#     Edge 19, Type (0, 0), BuildingBlock: CIFDUS_clean_linker_0, # of connection points: 2
#     Edge 20, Type (0, 0), BuildingBlock: CIFDUS_clean_linker_0, # of connection points: 2
#     Edge 21, Type (0, 0), BuildingBlock: CIFDUS_clean_linker_0, # of connection points: 2
#     Edge 22, Type (0, 0), BuildingBlock: CIFDUS_clean_linker_0, # of connection points: 2
#     Edge 23, Type (0, 0), BuildingBlock: CIFDUS_clean_linker_0, # of connection points: 2
#     Edge 24, Type (0, 0), BuildingBlock: CIFDUS_clean_linker_0, # of connection points: 2
#     Edge 25, Type (0, 0), BuildingBlock: CIFDUS_clean_linker_0, # of connection points: 2
#     Edge 26, Type (0, 0), BuildingBlock: CIFDUS_clean_linker_0, # of connection points: 2
#     Edge 27, Type (0, 0), BuildingBlock: CIFDUS_clean_linker_0, # of connection points: 2
#     Edge 28, Type (0, 0), BuildingBlock: CIFDUS_clean_linker_0, # of connection points: 2
#     Edge 29, Type (0, 0), BuildingBlock: CIFDUS_clean_linker_0, # of connection points: 2
#     Edge 30, Type (0, 0), BuildingBlock: CIFDUS_clean_linker_0, # of connection points: 2
#     Edge 31, Type (0, 0), BuildingBlock: CIFDUS_clean_linker_0, # of connection points: 2
#     Edge 32, Type (0, 0), BuildingBlock: CIFDUS_clean_linker_0, # of connection points: 2
#     Edge 33, Type (0, 0), BuildingBlock: CIFDUS_clean_linker_0, # of connection points: 2
#     Edge 34, Type (0, 0), BuildingBlock: CIFDUS_clean_linker_0, # of connection points: 2
#     Edge 35, Type (0, 0), BuildingBlock: CIFDUS_clean_linker_0, # of connection points: 2
#     Edge 36, Type (0, 0), BuildingBlock: CIFDUS_clean_linker_0, # of connection points: 2
#     Edge 37, Type (0, 0), BuildingBlock: CIFDUS_clean_linker_0, # of connection points: 2
#     Edge 38, Type (0, 0), BuildingBlock: CIFDUS_clean_linker_0, # of connection points: 2
#     Edge 39, Type (0, 0), BuildingBlock: CIFDUS_clean_linker_0, # of connection points: 2
#     Edge 40, Type (0, 0), BuildingBlock: CIFDUS_clean_linker_0, # of connection points: 2
#     Edge 41, Type (0, 0), BuildingBlock: CIFDUS_clean_linker_0, # of connection points: 2
#     Edge 42, Type (0, 0), BuildingBlock: CIFDUS_clean_linker_0, # of connection points: 2
#     Edge 43, Type (0, 0), BuildingBlock: CIFDUS_clean_linker_0, # of connection points: 2
#     Edge 44, Type (0, 0), BuildingBlock: CIFDUS_clean_linker_0, # of connection points: 2
#     Edge 45, Type (0, 0), BuildingBlock: CIFDUS_clean_linker_0, # of connection points: 2
#     Edge 46, Type (0, 0), BuildingBlock: CIFDUS_clean_linker_0, # of connection points: 2
#     Edge 47, Type (0, 0), BuildingBlock: CIFDUS_clean_linker_0, # of connection points: 2
# Relax obj value: 0.215
# Max RMSD: 0.062
# Mean RMSD: 0.062
data_MOF--net-upb--node1-CEKHIL_clean_sbu_0--edge1-CIFDUS_clean_linker_0
_symmetry_space_group_name_H-M    P1
_symmetry_Int_Tables_number       1
_symmetry_cell_setting            triclinic
loop_
_symmetry_equiv_pos_as_xyz
'x, y, z'
_cell_length_a     39.039701
_cell_length_b     39.046401
_cell_length_c     28.168194
_cell_angle_alpha  90.074362
_cell_angle_beta   90.036134
_cell_angle_gamma 89.953138
loop_
_atom_site_label
_atom_site_type_symbol
_atom_site_fract_x
_atom_site_fract_y
_atom_site_fract_z
_atom_type_partial_charge
Co0 Co 0.05491 0.2414 0.30215 0.0
O1 O 0.09139 0.27303 0.30955 0.0
O2 O 0.05914 0.26816 0.24472 0.0
C3 C 0.03319 0.25267 0.37442 0.0
O4 O 0.01356 0.21282 0.28328 0.0
Co5 Co 0.04832 0.17982 0.37137 0.0
O6 O 0.00412 0.17225 0.33861 0.0
C7 C 0.10414 0.18298 0.30104 0.0
C8 C 0.08376 0.28366 0.26731 0.0
C9 C 0.99582 0.18826 0.30096 0.0
O10 O 0.08815 0.20607 0.27724 0.0
O11 O 0.0943 0.17218 0.34166 0.0
O12 O 0.02488 0.2719 0.33855 0.0
O13 O 0.05485 0.22862 0.3657 0.0
Co14 Co 0.76892 0.05274 0.28762 0.0
O15 O 0.75057 0.09756 0.29735 0.0
O16 O 0.74213 0.06595 0.23284 0.0
C17 C 0.75461 0.03385 0.36041 0.0
O18 O 0.78272 0.00434 0.26694 0.0
Co19 Co 0.82787 0.0255 0.35215 0.0
O20 O 0.81054 0.98104 0.32904 0.0
C21 C 0.84318 0.07334 0.27367 0.0
C22 C 0.73583 0.09395 0.25644 0.0
C23 C 0.79499 0.97841 0.28949 0.0
O24 O 0.81192 0.07305 0.25908 0.0
O25 O 0.85377 0.05766 0.31071 0.0
O26 O 0.73193 0.03359 0.32666 0.0
O27 O 0.7837 0.0474 0.34989 0.0
Co28 Co 0.94311 0.76181 0.30707 0.0
O29 O 0.90263 0.73516 0.31481 0.0
O30 O 0.93771 0.73212 0.2528 0.0
C31 C 0.96205 0.75275 0.38141 0.0
O32 O 0.98833 0.78416 0.28883 0.0
Co33 Co 0.95447 0.8265 0.36996 0.0
O34 O 0.00214 0.82132 0.34707 0.0
C35 C 0.90526 0.82831 0.29022 0.0
C36 C 0.91068 0.72082 0.27483 0.0
C37 C 0.00957 0.80416 0.30999 0.0
O38 O 0.91585 0.79916 0.27482 0.0
O39 O 0.9154 0.84199 0.32907 0.0
O40 O 0.96781 0.73017 0.34849 0.0
O41 O 0.94321 0.77843 0.3692 0.0
Co42 Co 0.23078 0.94988 0.29881 0.0
O43 O 0.25436 0.90831 0.31281 0.0
O44 O 0.26051 0.93838 0.24638 0.0
C45 C 0.24029 0.97237 0.37132 0.0
O46 O 0.21159 0.99492 0.27355 0.0
Co47 Co 0.16691 0.97146 0.3583 0.0
O48 O 0.17704 0.01664 0.33007 0.0
C49 C 0.16139 0.91725 0.28499 0.0
C50 C 0.26938 0.91218 0.27219 0.0
C51 C 0.19396 0.0195 0.29166 0.0
O52 O 0.19184 0.92312 0.26961 0.0
O53 O 0.1482 0.93192 0.32129 0.0
O54 O 0.26364 0.97501 0.33865 0.0
O55 O 0.21345 0.95518 0.3597 0.0
Co56 Co 0.05155 0.76429 0.72007 0.0
O57 O 0.09015 0.73706 0.70252 0.0
O58 O 0.05839 0.72911 0.76706 0.0
C59 C 0.02778 0.76498 0.64748 0.0
O60 O 0.00861 0.78632 0.74759 0.0
Co61 Co 0.04233 0.83616 0.67312 0.0
O62 O -0.00103 0.83616 0.7093 0.0
C63 C 0.09718 0.82402 0.74248 0.0
C64 C 0.08396 0.71948 0.74057 0.0
C65 C 0.99076 0.81339 0.7396 0.0
O66 O 0.08263 0.79633 0.75649 0.0
O67 O 0.08726 0.84121 0.70639 0.0
O68 O 0.02297 0.73882 0.67516 0.0
O69 O 0.04893 0.78777 0.66271 0.0
Co70 Co 0.22296 0.04629 0.7174 0.0
O71 O 0.24032 0.09081 0.70248 0.0
O72 O 0.25689 0.05891 0.76373 0.0
C73 C 0.22576 0.02729 0.64213 0.0
O74 O 0.21267 -0.00166 0.74263 0.0
Co75 Co 0.15601 0.01754 0.67312 0.0
O76 O 0.17737 0.97342 0.69001 0.0
C77 C 0.15279 0.0691 0.75038 0.0
C78 C 0.26007 0.08688 0.73914 0.0
C79 C 0.1986 0.97173 0.72415 0.0
O80 O 0.18542 0.06785 0.75674 0.0
O81 O 0.13703 0.05227 0.71804 0.0
O82 O 0.253 0.02661 0.66868 0.0
O83 O 0.19881 0.04068 0.66093 0.0
Co84 Co 0.94669 0.23229 0.70033 0.0
O85 O 0.91483 0.26674 0.6822 0.0
O86 O 0.93139 0.25646 0.75632 0.0
C87 C 0.98389 0.24471 0.64239 0.0
O88 O 0.98039 0.19943 0.73137 0.0
Co89 Co 0.96338 0.17402 0.62822 0.0
O90 O -0.00197 0.1612 0.67641 0.0
C91 C 0.89602 0.17792 0.67467 0.0
C92 C 0.91308 0.27451 0.72683 0.0
C93 C -0.0008 0.17422 0.71789 0.0
O94 O 0.90812 0.19819 0.70654 0.0
O95 O 0.91274 0.16901 0.63758 0.0
O96 O 0.98473 0.26227 0.68159 0.0
O97 O 0.95975 0.22257 0.63864 0.0
Co98 Co 0.76781 0.94258 0.69775 0.0
O99 O 0.74487 0.89978 0.69067 0.0
O100 O 0.73372 0.93833 0.74682 0.0
C101 C 0.76486 0.95584 0.62017 0.0
O102 O 0.78522 0.99044 0.71401 0.0
Co103 Co 0.83656 0.95665 0.64505 0.0
O104 O 0.8227 0.00467 0.65673 0.0
C105 C 0.83555 0.91421 0.73212 0.0
C106 C 0.7264 0.90926 0.72658 0.0
C107 C 0.80308 0.01259 0.69112 0.0
O108 O 0.80367 0.92057 0.73963 0.0
O109 O 0.85212 0.92441 0.69561 0.0
O110 O 0.73885 0.96195 0.64764 0.0
O111 O 0.79027 0.94014 0.63963 0.0
Co112 Co 0.54117 0.73734 0.795 0.0
O113 O 0.58286 0.76129 0.8056 0.0
O114 O 0.55037 0.76653 0.74111 0.0
C115 C 0.5205 0.74745 0.86813 0.0
O116 O 0.49552 0.7171 0.77404 0.0
Co117 Co 0.52519 0.67349 0.85793 0.0
O118 O 0.47863 0.68095 0.83187 0.0
C119 C 0.57547 0.66865 0.77995 0.0
C120 C 0.57738 0.77584 0.76504 0.0
C121 C 0.47296 0.698 0.79413 0.0
O122 O 0.56692 0.69834 0.76422 0.0
O123 O 0.56398 0.65569 0.81847 0.0
O124 O 0.51702 0.77051 0.83528 0.0
O125 O 0.53831 0.72094 0.85664 0.0
Co126 Co 0.26613 0.53992 0.79079 0.0
O127 O 0.24234 0.58141 0.80491 0.0
O128 O 0.23404 0.54959 0.74043 0.0
C129 C 0.26 0.51934 0.86489 0.0
O130 O 0.28476 0.49463 0.76542 0.0
Co131 Co 0.33245 0.51909 0.84441 0.0
O132 O 0.3204 0.47308 0.82045 0.0
C133 C 0.33463 0.57192 0.76878 0.0
C134 C 0.22568 0.5762 0.76576 0.0
C135 C 0.30221 0.46986 0.78323 0.0
O136 O 0.30315 0.56669 0.75755 0.0
O137 O 0.34992 0.5571 0.80334 0.0
O138 O 0.23554 0.51542 0.83403 0.0
O139 O 0.28634 0.53627 0.85055 0.0
Co140 Co 0.44863 0.26257 0.77355 0.0
O141 O 0.40485 0.24456 0.79067 0.0
O142 O 0.43532 0.22839 0.72781 0.0
C143 C 0.46964 0.26024 0.84786 0.0
O144 O 0.49563 0.27411 0.74601 0.0
Co145 Co 0.47596 0.33058 0.81683 0.0
O146 O 0.52032 0.3115 0.79616 0.0
C147 C 0.42318 0.33206 0.74138 0.0
C148 C 0.40791 0.22505 0.75362 0.0
C149 C 0.52195 0.2901 0.76215 0.0
O150 O 0.42539 0.29951 0.73507 0.0
O151 O 0.43971 0.34849 0.77334 0.0
O152 O 0.47019 0.23297 0.82134 0.0
O153 O 0.45505 0.28679 0.82973 0.0
Co154 Co 0.72136 0.44355 0.77629 0.0
O155 O 0.7476 0.40366 0.79023 0.0
O156 O 0.7577 0.43921 0.7303 0.0
C157 C 0.72007 0.46237 0.85145 0.0
O158 O 0.70052 0.48855 0.7536 0.0
Co159 Co 0.64894 0.45138 0.82202 0.0
O160 O 0.65169 0.49776 0.79462 0.0
C161 C 0.66085 0.4014 0.74542 0.0
C162 C 0.76656 0.41218 0.75442 0.0
C163 C 0.67459 0.50712 0.76519 0.0
O164 O 0.68977 0.41521 0.7352 0.0
O165 O 0.64267 0.40993 0.78129 0.0
O166 O 0.7465 0.46868 0.82492 0.0
O167 O 0.69696 0.44279 0.8332 0.0
Co168 Co 0.54368 0.26222 0.19238 0.0
O169 O 0.58859 0.24538 0.17774 0.0
O170 O 0.56014 0.23468 0.24433 0.0
C171 C 0.52319 0.24966 0.1196 0.0
O172 O 0.49672 0.27426 0.21966 0.0
Co173 Co 0.50745 0.31993 0.13606 0.0
O174 O 0.46564 0.2982 0.16191 0.0
C175 C 0.55926 0.33673 0.21048 0.0
C176 C 0.58735 0.23001 0.21847 0.0
C177 C 0.46788 0.28441 0.20266 0.0
O178 O 0.56373 0.30502 0.22133 0.0
O179 O 0.53921 0.3471 0.17745 0.0
O180 O 0.52397 0.22601 0.15208 0.0
O181 O 0.53496 0.27911 0.13199 0.0
Co182 Co 0.7321 0.54591 0.19087 0.0
O183 O 0.76315 0.58251 0.17962 0.0
O184 O 0.76177 0.55109 0.24533 0.0
C185 C 0.73859 0.52184 0.11906 0.0
O186 O 0.70403 0.50492 0.21255 0.0
Co187 Co 0.66663 0.54259 0.12731 0.0
O188 O 0.65904 0.49939 0.16259 0.0
C189 C 0.67445 0.59651 0.19888 0.0
C190 C 0.77573 0.57583 0.22113 0.0
C191 C 0.67702 0.48935 0.19775 0.0
O192 O 0.6981 0.57907 0.21945 0.0
O193 O 0.66189 0.58852 0.15841 0.0
O194 O 0.76067 0.51533 0.15241 0.0
O195 O 0.71589 0.54464 0.12906 0.0
Co196 Co 0.44677 0.72916 0.21338 0.0
O197 O 0.40192 0.74803 0.20688 0.0
O198 O 0.44019 0.76412 0.26098 0.0
C199 C 0.45838 0.73117 0.13527 0.0
O200 O 0.49644 0.71662 0.22837 0.0
Co201 Co 0.46567 0.66029 0.16326 0.0
O202 O 0.51255 0.67747 0.17394 0.0
C203 C 0.42524 0.66026 0.25223 0.0
C204 C 0.41022 0.76825 0.24152 0.0
C205 C 0.51943 0.69914 0.20634 0.0
O206 O 0.42863 0.69278 0.25771 0.0
O207 O 0.43626 0.64359 0.21621 0.0
O208 O 0.46252 0.75832 0.16133 0.0
O209 O 0.44536 0.70497 0.15636 0.0
Co210 Co 0.27212 0.45188 0.21009 0.0
O211 O 0.24136 0.41692 0.1885 0.0
O212 O 0.23567 0.44704 0.25503 0.0
C213 C 0.27626 0.47774 0.13928 0.0
O214 O 0.29655 0.49135 0.24314 0.0
Co215 Co 0.34548 0.45975 0.16948 0.0
O216 O 0.34793 0.50097 0.20963 0.0
C217 C 0.32823 0.40133 0.23107 0.0
C218 C 0.22382 0.42367 0.22655 0.0
C219 C 0.32459 0.50829 0.23945 0.0
O220 O 0.30006 0.41568 0.24391 0.0
O221 O 0.34796 0.4134 0.199 0.0
O222 O 0.25046 0.48436 0.16695 0.0
O223 O 0.29739 0.45463 0.15386 0.0
H224 H 0.10621 0.13808 0.22831 0.0
H225 H 0.16865 0.18831 0.33335 0.0
H226 H 0.2109 0.14237 0.32871 0.0
H227 H 0.21931 0.08112 0.31381 0.0
H228 H 0.15452 0.02866 0.2139 0.0
H229 H 0.12445 0.08213 0.19615 0.0
C230 C 0.13005 0.13975 0.248 0.0
C231 C 0.13447 0.16611 0.28134 0.0
C232 C 0.15333 0.11229 0.24687 0.0
C233 C 0.16501 0.16809 0.30743 0.0
C234 C 0.18891 0.14162 0.30522 0.0
C235 C 0.1999 0.08198 0.28622 0.0
C236 C 0.18882 0.05137 0.26532 0.0
C237 C 0.18191 0.11245 0.27789 0.0
C238 C 0.16347 0.05222 0.23005 0.0
C239 C 0.14596 0.08269 0.22048 0.0
H240 H 0.98615 0.13121 0.24992 0.0
H241 H 0.93481 0.22122 0.30224 0.0
H242 H 0.879 0.19541 0.28457 0.0
H243 H 0.84626 0.14207 0.27263 0.0
H244 H 0.89862 0.05096 0.22613 0.0
H245 H 0.95246 0.0825 0.22076 0.0
C246 C 0.96266 0.14553 0.25561 0.0
C247 C 0.96411 0.17774 0.27742 0.0
C248 C 0.93091 0.13018 0.24643 0.0
C249 C 0.93391 0.19633 0.28521 0.0
C250 C 0.9021 0.18148 0.27542 0.0
C251 C 0.86914 0.12978 0.25886 0.0
C252 C 0.8688 0.09446 0.2497 0.0
C253 C 0.90033 0.14769 0.25848 0.0
C254 C 0.89852 0.07829 0.2329 0.0
C255 C 0.92936 0.09619 0.23058 0.0
H256 H 0.83788 0.95916 0.22026 0.0
H257 H 0.7592 0.92208 0.31386 0.0
H258 H 0.78403 0.86469 0.3116 0.0
H259 H 0.83744 0.83188 0.30375 0.0
H260 H 0.91941 0.87115 0.21756 0.0
H261 H 0.88424 0.9205 0.19523 0.0
C262 C 0.82508 0.93792 0.23766 0.0
C263 C 0.79693 0.94455 0.26725 0.0
C264 C 0.84098 0.90564 0.23874 0.0
C265 C 0.78076 0.91727 0.29056 0.0
C266 C 0.79538 0.88464 0.28997 0.0
C267 C 0.84677 0.85044 0.27815 0.0
C268 C 0.88072 0.84826 0.26224 0.0
C269 C 0.82692 0.87936 0.26733 0.0
C270 C 0.89313 0.87244 0.22978 0.0
C271 C 0.87314 0.90079 0.21751 0.0
H272 H 0.02615 0.84759 0.24004 0.0
H273 H 0.06863 0.77517 0.33898 0.0
H274 H 0.1257 0.79973 0.32793 0.0
H275 H 0.15878 0.85089 0.30703 0.0
H276 H 0.11433 0.92736 0.21601 0.0
H277 H 0.06318 0.89197 0.20534 0.0
C278 C 0.04832 0.8363 0.25726 0.0
C279 C 0.04367 0.80972 0.29004 0.0
C280 C 0.08058 0.85176 0.25254 0.0
C281 C 0.07205 0.7955 0.31325 0.0
C282 C 0.10452 0.80977 0.30728 0.0
C283 C 0.13857 0.85878 0.2829 0.0
C284 C 0.14004 0.89132 0.26205 0.0
C285 C 0.10858 0.83922 0.2794 0.0
C286 C 0.11365 0.90206 0.23176 0.0
C287 C 0.08426 0.88206 0.2263 0.0
H288 H 0.16323 0.82459 0.71797 0.0
H289 H 0.09262 0.85966 0.82461 0.0
H290 H 0.12917 0.90903 0.8412 0.0
H291 H 0.16848 0.95035 0.80427 0.0
H292 H 0.2339 0.91777 0.68994 0.0
H293 H 0.21363 0.85902 0.69844 0.0
C294 C 0.15711 0.84199 0.74685 0.0
C295 C 0.12534 0.83908 0.76967 0.0
C296 C 0.17715 0.87132 0.75383 0.0
C297 C 0.11713 0.86159 0.80678 0.0
C298 C 0.13777 0.89013 0.81563 0.0
C299 C 0.17978 0.92985 0.78342 0.0
C300 C 0.20223 0.93805 0.74627 0.0
C301 C 0.16611 0.89668 0.78638 0.0
C302 C 0.21658 0.91174 0.71879 0.0
C303 C 0.20454 0.87828 0.72316 0.0
H304 H 0.09126 0.06079 0.79141 0.0
H305 H 0.16793 0.13657 0.75986 0.0
H306 H 0.12411 0.1813 0.75856 0.0
H307 H 0.06323 0.19396 0.74138 0.0
H308 H 0.98704 0.11644 0.76657 0.0
H309 H 0.03098 0.0774 0.79629 0.0
C310 C 0.09848 0.08743 0.78685 0.0
C311 C 0.13238 0.09544 0.77466 0.0
C312 C 0.07293 0.11252 0.78366 0.0
C313 C 0.14184 0.12989 0.76914 0.0
C314 C 0.11666 0.15537 0.76751 0.0
C315 C 0.05626 0.16913 0.75567 0.0
C316 C 0.02231 0.15772 0.75178 0.0
C317 C 0.08192 0.14639 0.7709 0.0
C318 C 0.0132 0.12549 0.76954 0.0
C319 C 0.03833 0.10313 0.78612 0.0
H320 H 0.87641 0.1428 0.75283 0.0
H321 H 0.84403 0.17196 0.61231 0.0
H322 H 0.80241 0.12544 0.61105 0.0
H323 H 0.78849 0.06824 0.64013 0.0
H324 H 0.82439 0.03562 0.77726 0.0
H325 H 0.85067 0.0918 0.7906 0.0
C326 C 0.85901 0.13985 0.72305 0.0
C327 C 0.86337 0.16021 0.68244 0.0
C328 C 0.83636 0.11189 0.72166 0.0
C329 C 0.8411 0.15623 0.64372 0.0
C330 C 0.81755 0.12949 0.64285 0.0
C331 C 0.80066 0.07417 0.67382 0.0
C332 C 0.80497 0.04816 0.70749 0.0
C333 C 0.81683 0.10581 0.68012 0.0
C334 C 0.82077 0.05558 0.75103 0.0
C335 C 0.83618 0.08751 0.7583 0.0
H336 H 0.83963 0.84567 0.73642 0.0
H337 H 0.87812 0.93847 0.79927 0.0
H338 H 0.93131 0.90956 0.82087 0.0
H339 H 0.97184 0.86455 0.7975 0.0
H340 H 0.93495 0.77314 0.72908 0.0
H341 H 0.87601 0.79406 0.7349 0.0
C342 C 0.85888 0.85878 0.75747 0.0
C343 C 0.85539 0.89402 0.76609 0.0
C344 C 0.8901 0.84239 0.76737 0.0
C345 C 0.88044 0.91122 0.79265 0.0
C346 C 0.91107 0.89482 0.80424 0.0
C347 C 0.9506 0.84854 0.78628 0.0
C348 C 0.95735 0.81772 0.76245 0.0
C349 C 0.9171 0.86135 0.78822 0.0
C350 C 0.93005 0.79695 0.74768 0.0
C351 C 0.89644 0.80915 0.75045 0.0
H352 H 0.64318 0.65789 0.79017 0.0
H353 H 0.5549 0.62777 0.70862 0.0
H354 H 0.58373 0.57493 0.68456 0.0
H355 H 0.62693 0.5318 0.70577 0.0
H356 H 0.71416 0.56077 0.79016 0.0
H357 H 0.69377 0.62001 0.79294 0.0
C358 C 0.63113 0.64048 0.76519 0.0
C359 C 0.59716 0.64629 0.7511 0.0
C360 C 0.64755 0.60976 0.75274 0.0
C361 C 0.58124 0.62365 0.71939 0.0
C362 C 0.59757 0.59331 0.70613 0.0
C363 C 0.6423 0.55159 0.72248 0.0
C364 C 0.67177 0.54231 0.74788 0.0
C365 C 0.62975 0.58518 0.7252 0.0
C366 C 0.69153 0.56769 0.77003 0.0
C367 C 0.67957 0.6014 0.77223 0.0
H368 H 0.46302 0.65319 0.72404 0.0
H369 H 0.41077 0.72442 0.81545 0.0
H370 H 0.35662 0.69439 0.80222 0.0
H371 H 0.32955 0.63919 0.78405 0.0
H372 H 0.38502 0.56342 0.70396 0.0
H373 H 0.43208 0.60377 0.69173 0.0
C374 C 0.43932 0.66305 0.73884 0.0
C375 C 0.44046 0.69088 0.77031 0.0
C376 C 0.40899 0.64417 0.73377 0.0
C377 C 0.41009 0.70321 0.7906 0.0
C378 C 0.3793 0.68574 0.78356 0.0
C379 C 0.35122 0.63235 0.76187 0.0
C380 C 0.35407 0.59875 0.74466 0.0
C381 C 0.37907 0.65486 0.758 0.0
C382 C 0.38241 0.58943 0.71698 0.0
C383 C 0.40944 0.61234 0.71057 0.0
H384 H 0.34407 0.46221 0.70932 0.0
H385 H 0.27465 0.40743 0.8002 0.0
H386 H 0.30222 0.35322 0.77914 0.0
H387 H 0.35603 0.32582 0.75541 0.0
H388 H 0.43128 0.38359 0.67798 0.0
H389 H 0.39147 0.43168 0.67107 0.0
C390 C 0.33398 0.43809 0.72235 0.0
C391 C 0.30749 0.43841 0.75594 0.0
C392 C 0.3517 0.40757 0.71294 0.0
C393 C 0.29487 0.40743 0.77387 0.0
C394 C 0.31094 0.37657 0.76228 0.0
C395 C 0.3628 0.34827 0.73476 0.0
C396 C 0.39626 0.35145 0.71717 0.0
C397 C 0.34089 0.37677 0.73473 0.0
C398 C 0.40543 0.38073 0.69138 0.0
C399 C 0.38286 0.40838 0.68815 0.0
H400 H 0.66615 0.33439 0.76195 0.0
H401 H 0.62182 0.40803 0.66654 0.0
H402 H 0.57494 0.36867 0.64858 0.0
H403 H 0.53812 0.32439 0.6833 0.0
H404 H 0.57907 0.25611 0.78877 0.0
H405 H 0.636 0.28073 0.77837 0.0
C406 C 0.64729 0.34076 0.73502 0.0
C407 C 0.64693 0.37389 0.71588 0.0
C408 C 0.61924 0.31899 0.72775 0.0
C409 C 0.62245 0.38247 0.68146 0.0
C410 C 0.59535 0.36015 0.67187 0.0
C411 C 0.56007 0.31354 0.7016 0.0
C412 C 0.5547 0.2889 0.73703 0.0
C413 C 0.59201 0.3298 0.69811 0.0
C414 C 0.58289 0.27509 0.76123 0.0
C415 C 0.61529 0.28964 0.75587 0.0
H416 H 0.61781 0.47991 0.24308 0.0
H417 H 0.71036 0.42825 0.20105 0.0
H418 H 0.68284 0.37252 0.21354 0.0
H419 H 0.62833 0.34025 0.21725 0.0
H420 H 0.53519 0.39356 0.2531 0.0
H421 H 0.56699 0.44674 0.2641 0.0
C422 C 0.63226 0.45635 0.23866 0.0
C423 C 0.66576 0.45778 0.22103 0.0
C424 C 0.61591 0.42474 0.24437 0.0
C425 C 0.68451 0.42745 0.21497 0.0
C426 C 0.66863 0.39567 0.2216 0.0
C427 C 0.61544 0.36322 0.22961 0.0
C428 C 0.57961 0.36336 0.23406 0.0
C429 C 0.63373 0.3941 0.23358 0.0
C430 C 0.56282 0.39316 0.24942 0.0
C431 C 0.58093 0.42358 0.25525 0.0
H432 H 0.54945 0.66739 0.27992 0.0
H433 H 0.56943 0.73241 0.15988 0.0
H434 H 0.62798 0.71078 0.15502 0.0
H435 H 0.66478 0.66089 0.16875 0.0
H436 H 0.64319 0.59251 0.28464 0.0
H437 H 0.59449 0.6281 0.30841 0.0
C438 C 0.56741 0.67824 0.25471 0.0
C439 C 0.55547 0.7012 0.22014 0.0
C440 C 0.6004 0.66417 0.25056 0.0
C441 C 0.57843 0.71486 0.18696 0.0
C442 C 0.61169 0.70204 0.1837 0.0
C443 C 0.65036 0.65488 0.20061 0.0
C444 C 0.65689 0.62409 0.22456 0.0
C445 C 0.62182 0.67477 0.21283 0.0
C446 C 0.63841 0.61622 0.2658 0.0
C447 C 0.61032 0.63634 0.27898 0.0
H448 H 0.35689 0.65856 0.26074 0.0
H449 H 0.45003 0.61473 0.31536 0.0
H450 H 0.42092 0.56053 0.32975 0.0
H451 H 0.37608 0.52231 0.29949 0.0
H452 H 0.28442 0.56481 0.23831 0.0
H453 H 0.30515 0.62282 0.25427 0.0
C454 C 0.37006 0.63777 0.27869 0.0
C455 C 0.4055 0.6401 0.28629 0.0
C456 C 0.35361 0.60603 0.28379 0.0
C457 C 0.42266 0.61323 0.30923 0.0
C458 C 0.40616 0.58203 0.31654 0.0
C459 C 0.36001 0.54435 0.29198 0.0
C460 C 0.32927 0.53975 0.26708 0.0
C461 C 0.37266 0.57742 0.29982 0.0
C462 C 0.30829 0.56807 0.25742 0.0
C463 C 0.32033 0.6012 0.26609 0.0
H464 H 0.37492 0.38507 0.29805 0.0
H465 H 0.30375 0.34172 0.19805 0.0
H466 H 0.34036 0.29154 0.18843 0.0
H467 H 0.40039 0.27188 0.18844 0.0
H468 H 0.47179 0.31547 0.2882 0.0
H469 H 0.42714 0.35293 0.31938 0.0
C470 C 0.36645 0.36354 0.27667 0.0
C471 C 0.33717 0.36708 0.24819 0.0
C472 C 0.38824 0.33527 0.27027 0.0
C473 C 0.32629 0.33934 0.2203 0.0
C474 C 0.34755 0.31091 0.21415 0.0
C475 C 0.40554 0.28818 0.21884 0.0
C476 C 0.43933 0.29165 0.23526 0.0
C477 C 0.37987 0.31018 0.23589 0.0
C478 C 0.44592 0.31256 0.27485 0.0
C479 C 0.42047 0.33438 0.29226 0.0
H480 H 0.1053 0.33805 0.31535 0.0
H481 H 0.10463 0.29316 0.17553 0.0
H482 H 0.14664 0.33576 0.14858 0.0
H483 H 0.1887 0.38057 0.16881 0.0
H484 H 0.18893 0.42422 0.30983 0.0
H485 H 0.14148 0.38723 0.33249 0.0
C486 C 0.114 0.33802 0.27874 0.0
C487 C 0.10268 0.31251 0.24747 0.0
C488 C 0.13819 0.36197 0.2641 0.0
C489 C 0.1133 0.31275 0.19998 0.0
C490 C 0.13742 0.33684 0.18484 0.0
C491 C 0.17809 0.38218 0.20432 0.0
C492 C 0.19263 0.40448 0.23797 0.0
C493 C 0.15093 0.36073 0.21718 0.0
C494 C 0.17834 0.40693 0.28354 0.0
C495 C 0.15127 0.38581 0.29654 0.0
H496 H 0.6977 0.13447 0.31218 0.0
H497 H 0.71669 0.10928 0.16541 0.0
H498 H 0.6732 0.15103 0.14061 0.0
H499 H 0.6291 0.19359 0.16136 0.0
H500 H 0.60683 0.21439 0.30859 0.0
H501 H 0.65259 0.17525 0.33292 0.0
C502 C 0.69252 0.13835 0.27471 0.0
C503 C 0.7105 0.1193 0.2405 0.0
C504 C 0.66695 0.16141 0.26106 0.0
C505 C 0.70313 0.12387 0.1922 0.0
C506 C 0.67836 0.14767 0.17813 0.0
C507 C 0.63449 0.18967 0.19875 0.0
C508 C 0.61503 0.20692 0.23328 0.0
C509 C 0.66004 0.16644 0.21232 0.0
C510 C 0.62163 0.2013 0.28156 0.0
C511 C 0.64774 0.17902 0.29539 0.0
H512 H 0.82149 0.61102 0.16966 0.0
H513 H 0.79227 0.58795 0.31381 0.0
H514 H 0.83332 0.63042 0.34326 0.0
H515 H 0.87338 0.67728 0.32712 0.0
H516 H 0.90338 0.69959 0.18305 0.0
H517 H 0.86583 0.65385 0.15399 0.0
C518 C 0.82439 0.61508 0.20757 0.0
C519 C 0.80373 0.59693 0.23968 0.0
C520 C 0.84774 0.63945 0.22395 0.0
C521 C 0.80799 0.60178 0.28862 0.0
C522 C 0.83122 0.62615 0.30534 0.0
C523 C 0.87173 0.67203 0.28935 0.0
C524 C 0.89042 0.69198 0.257 0.0
C525 C 0.8505 0.64569 0.27321 0.0
C526 C 0.8889 0.68458 0.20836 0.0
C527 C 0.86748 0.65855 0.19185 0.0
H528 H 0.3133 0.87969 0.32965 0.0
H529 H 0.28522 0.89129 0.18244 0.0
H530 H 0.32699 0.84718 0.16007 0.0
H531 H 0.36939 0.80387 0.18335 0.0
H532 H 0.40039 0.79519 0.32981 0.0
H533 H 0.35933 0.84003 0.35201 0.0
C534 C 0.31647 0.87256 0.29265 0.0
C535 C 0.29613 0.88809 0.25763 0.0
C536 C 0.34077 0.84784 0.28024 0.0
C537 C 0.30072 0.87943 0.20978 0.0
C538 C 0.32441 0.85422 0.19713 0.0
C539 C 0.36707 0.81187 0.22013 0.0
C540 C 0.3872 0.79614 0.25521 0.0
C541 C 0.34418 0.838 0.23219 0.0
C542 C 0.38485 0.80702 0.3025 0.0
C543 C 0.36143 0.8325 0.31508 0.0
H544 H 0.18408 0.60992 0.82518 0.0
H545 H 0.20465 0.59331 0.67652 0.0
H546 H 0.16081 0.6357 0.65545 0.0
H547 H 0.11955 0.67981 0.68006 0.0
H548 H 0.09716 0.69423 0.82872 0.0
H549 H 0.13882 0.64976 0.84942 0.0
C550 C 0.17882 0.61556 0.78817 0.0
C551 C 0.1977 0.59921 0.75231 0.0
C552 C 0.15343 0.63935 0.77656 0.0
C553 C 0.19036 0.60589 0.70452 0.0
C554 C 0.16545 0.63009 0.69257 0.0
C555 C 0.12369 0.67299 0.71696 0.0
C556 C 0.10587 0.69037 0.75299 0.0
C557 C 0.14729 0.64734 0.72838 0.0
C558 C 0.11077 0.68108 0.80056 0.0
C559 C 0.13462 0.65586 0.81234 0.0
H560 H 0.36972 0.19046 0.81638 0.0
H561 H 0.38775 0.20287 0.66637 0.0
H562 H 0.34192 0.16189 0.64868 0.0
H563 H 0.29681 0.12294 0.67635 0.0
H564 H 0.28272 0.10636 0.82636 0.0
H565 H 0.32713 0.14887 0.84405 0.0
C566 C 0.36349 0.18416 0.77985 0.0
C567 C 0.38155 0.19965 0.74259 0.0
C568 C 0.33796 0.16006 0.77019 0.0
C569 C 0.37398 0.19105 0.69543 0.0
C570 C 0.34781 0.16781 0.68539 0.0
C571 C 0.30343 0.12887 0.71287 0.0
C572 C 0.28649 0.11219 0.75015 0.0
C573 C 0.32961 0.15228 0.72252 0.0
C574 C 0.29555 0.1192 0.79731 0.0
C575 C 0.32082 0.1434 0.80733 0.0
H576 H 0.88767 0.32496 0.67257 0.0
H577 H 0.88688 0.28531 0.81553 0.0
H578 H 0.84221 0.32653 0.83728 0.0
H579 H 0.80037 0.36995 0.81335 0.0
H580 H 0.80129 0.40964 0.6704 0.0
H581 H 0.84943 0.37198 0.65064 0.0
C582 C 0.8779 0.32552 0.70862 0.0
C583 C 0.88999 0.30194 0.74234 0.0
C584 C 0.85226 0.34893 0.72055 0.0
C585 C 0.87775 0.30324 0.78907 0.0
C586 C 0.85216 0.32661 0.80136 0.0
C587 C 0.8112 0.37042 0.77789 0.0
C588 C 0.79711 0.39194 0.743 0.0
C589 C 0.8387 0.34891 0.76701 0.0
C590 C 0.8117 0.39301 0.69759 0.0
C591 C 0.8391 0.37151 0.68634 0.0
H592 H 0.68705 0.87053 0.67 0.0
H593 H 0.70019 0.90228 0.81561 0.0
H594 H 0.65329 0.86445 0.83988 0.0
H595 H 0.61128 0.82021 0.81982 0.0
H596 H 0.59597 0.79048 0.67385 0.0
H597 H 0.64107 0.83037 0.64894 0.0
C598 C 0.67954 0.86913 0.70704 0.0
C599 C 0.69716 0.88845 0.74131 0.0
C600 C 0.65236 0.84797 0.72033 0.0
C601 C 0.68693 0.88731 0.78892 0.0
C602 C 0.66026 0.86575 0.80268 0.0
C603 C 0.61772 0.8227 0.7825 0.0
C604 C 0.60097 0.80235 0.74858 0.0
C605 C 0.64321 0.84566 0.76874 0.0
C606 C 0.60876 0.80603 0.70033 0.0
C607 C 0.63457 0.82859 0.68626 0.0
H608 H 0.06433 0.23182 0.45443 0.0
H609 H 0.9775 0.2896 0.40362 0.0
H610 H 0.95772 0.29771 0.48548 0.0
H611 H 0.96199 0.28243 0.57006 0.0
H612 H 0.04779 0.22321 0.61997 0.0
H613 H 0.07204 0.22231 0.53965 0.0
C614 C 0.04113 0.24632 0.46129 0.0
C615 C 0.02189 0.25953 0.42326 0.0
C616 C 0.03019 0.25095 0.50812 0.0
C617 C 0.99239 0.27891 0.43249 0.0
C618 C 0.98119 0.28359 0.47916 0.0
C619 C 0.98666 0.27052 0.56338 0.0
C620 C 0.00366 0.25348 0.60034 0.0
C621 C -0.00047 0.2691 0.51707 0.0
C622 C 0.03498 0.23717 0.59185 0.0
C623 C 0.04843 0.23622 0.54596 0.0
H624 H 0.71283 0.9766 0.56193 0.0
H625 H 0.82263 0.96345 0.56853 0.0
H626 H 0.8285 0.98626 0.48911 0.0
H627 H 0.80334 0.01099 0.41911 0.0
H628 H 0.69378 0.02094 0.40613 0.0
H629 H 0.68674 -0.00201 0.48685 0.0
C630 C 0.73795 0.97882 0.54581 0.0
C631 C 0.76729 0.96892 0.57138 0.0
C632 C 0.74116 0.99118 0.49915 0.0
C633 C 0.79966 0.97124 0.54995 0.0
C634 C 0.8031 0.98422 0.50441 0.0
C635 C 0.77784 0.00798 0.43355 0.0
C636 C 0.74916 0.01778 0.40696 0.0
C637 C 0.77412 0.9944 0.47893 0.0
C638 C 0.71626 0.01344 0.42615 0.0
C639 C 0.71228 0.00049 0.47223 0.0
H640 H 0.01687 0.71379 0.58486 0.0
H641 H 0.00515 0.82266 0.60457 0.0
H642 H 0.98303 0.82841 0.52373 0.0
H643 H 0.96859 0.80266 0.44708 0.0
H644 H 0.98483 0.69458 0.42449 0.0
H645 H 0.00407 0.68822 0.50674 0.0
C646 C 0.00904 0.73862 0.57143 0.0
C647 C 0.01214 0.76772 0.60035 0.0
C648 C -0.00236 0.74187 0.52441 0.0
C649 C 0.00277 0.79996 0.58268 0.0
C650 C 0.99025 0.80325 0.53655 0.0
C651 C 0.97637 0.77773 0.46017 0.0
C652 C 0.97526 0.74911 0.43003 0.0
C653 C 0.9879 0.77443 0.507 0.0
C654 C 0.98567 0.717 0.44716 0.0
C655 C 0.99648 0.71333 0.49416 0.0
H656 H 0.278 0.02375 0.5779 0.0
H657 H 0.17048 0.00199 0.5969 0.0
H658 H 0.16574 0.98424 0.51457 0.0
H659 H 0.19124 0.97578 0.4374 0.0
H660 H 0.29801 -0.00145 0.41429 0.0
H661 H 0.30389 0.01578 0.49785 0.0
C662 C 0.25374 0.01469 0.56394 0.0
C663 C 0.22469 0.01385 0.59342 0.0
C664 C 0.25093 0.00531 0.51583 0.0
C665 C 0.19321 0.00274 0.57496 0.0
C666 C 0.19041 0.99271 0.52781 0.0
C667 C 0.21584 0.98464 0.45042 0.0
C668 C 0.24415 0.98588 0.41986 0.0
C669 C 0.21896 0.99419 0.49795 0.0
C670 C 0.27578 -0.00243 0.43725 0.0
C671 C 0.27918 0.00717 0.48501 0.0
H672 H 0.50751 0.69647 0.92909 0.0
H673 H 0.50083 0.80613 0.91396 0.0
H674 H 0.48153 0.81119 0.99661 0.0
H675 H 0.46846 0.78393 0.07392 0.0
H676 H 0.47257 0.67373 0.08511 0.0
H677 H 0.49132 0.66937 0.00313 0.0
C678 C 0.50168 0.72149 0.94372 0.0
C679 C 0.50576 0.75089 0.91585 0.0
C680 C 0.49047 0.72407 0.99061 0.0
C681 C 0.49773 0.78313 0.93497 0.0
C682 C 0.48692 0.78602 0.98218 0.0
C683 C 0.47359 0.75905 0.05828 0.0
C684 C 0.46961 0.72924 0.0856 0.0
C685 C 0.48359 0.75663 0.0105 0.0
C686 C 0.47568 0.69707 0.06492 0.0
C687 C 0.48634 0.69451 0.01799 0.0
H688 H 0.31088 0.51654 0.9292 0.0
H689 H 0.2023 0.4997 0.91279 0.0
H690 H 0.19715 0.48857 0.9981 0.0
H691 H 0.22389 0.48373 0.07733 0.0
H692 H 0.33301 0.49704 0.09164 0.0
H693 H 0.3376 0.51043 0.00704 0.0
C694 C 0.28608 0.51027 0.94421 0.0
C695 C 0.257 0.50894 0.91492 0.0
C696 C 0.2834 0.50394 0.99292 0.0
C697 C 0.22509 0.5006 0.93471 0.0
C698 C 0.2221 0.49455 0.98347 0.0
C699 C 0.24849 0.49022 0.06187 0.0
C700 C 0.27803 0.49014 0.09033 0.0
C701 C 0.25107 0.49643 0.01294 0.0
C702 C 0.30999 0.49746 0.07013 0.0
C703 C 0.31262 0.50482 0.02188 0.0
H704 H 0.51937 0.29739 0.05204 0.0
H705 H 0.50106 0.18991 0.07648 0.0
H706 H 0.48498 0.1827 0.99254 0.0
H707 H 0.47572 0.20804 0.91214 0.0
H708 H 0.49406 0.31611 0.89226 0.0
H709 H 0.51137 0.32182 0.97457 0.0
C710 C 0.51181 0.27226 0.03933 0.0
C711 C 0.51128 0.24423 0.07044 0.0
C712 C 0.50306 0.26841 0.99166 0.0
C713 C 0.50144 0.21194 0.05317 0.0
C714 C 0.49246 0.20782 0.00521 0.0
C715 C 0.48402 0.23262 0.92589 0.0
C716 C 0.48377 0.26161 0.89621 0.0
C717 C 0.4933 0.23595 0.97402 0.0
C718 C 0.49403 0.29347 0.91437 0.0
C719 C 0.50381 0.29681 0.96151 0.0
H720 H 0.77192 0.46791 0.91392 0.0
H721 H 0.66296 0.48222 0.89865 0.0
H722 H 0.65894 0.50106 0.98138 0.0
H723 H 0.6867 0.5142 0.05717 0.0
H724 H 0.79493 0.49594 0.0747 0.0
H725 H 0.79905 0.47711 0.99189 0.0
C726 C 0.74741 0.47539 0.92883 0.0
C727 C 0.71784 0.47433 0.90057 0.0
C728 C 0.74518 0.485 0.97665 0.0
C729 C 0.686 0.48316 0.92006 0.0
C730 C 0.68371 0.49381 0.96721 0.0
C731 C 0.71112 0.50588 0.04289 0.0
C732 C 0.74052 0.50663 0.07152 0.0
C733 C 0.71315 0.49486 0.99573 0.0
C734 C 0.77197 0.49539 0.05309 0.0
C735 C 0.77436 0.48491 0.00579 0.0
loop_
_geom_bond_atom_site_label_1
_geom_bond_atom_site_label_2
_geom_bond_distance
_geom_bond_site_symmetry_2
_ccdc_geom_bond_type
Co0 O1 2.216 . S
Co0 O2 2.091 . S
Co0 O4 2.004 1_455 S
Co0 O10 2.021 . S
Co0 O12 2.137 . S
Co0 O13 2.244 . S
O1 Co0 2.216 . S
O1 C8 1.247 . S
O2 Co0 2.091 . S
O2 C8 1.261 . S
C3 O12 1.247 . S
C3 O13 1.272 . S
O4 Co0 2.004 1_655 S
O4 C9 1.259 . S
Co5 O6 2.061 1_455 S
Co5 O11 2.052 . S
Co5 O13 2.135 . S
O6 Co5 2.061 1_655 S
O6 C9 1.235 . S
C7 O10 1.238 . S
C7 O11 1.241 . S
C8 O1 1.247 . S
C8 O2 1.261 . S
C9 O4 1.259 . S
C9 O6 1.235 . S
O10 Co0 2.021 . S
O10 C7 1.238 . S
O11 Co5 2.052 . S
O11 C7 1.241 . S
O12 Co0 2.137 . S
O12 C3 1.247 . S
O13 Co0 2.244 . S
O13 C3 1.272 . S
O13 Co5 2.135 . S
Co14 O15 2.216 . S
Co14 O16 2.091 . S
Co14 O18 2.004 1_545 S
Co14 O24 2.021 . S
Co14 O26 2.137 . S
Co14 O27 2.244 . S
O15 Co14 2.216 . S
O15 C22 1.247 . S
O16 Co14 2.091 . S
O16 C22 1.261 . S
C17 O26 1.247 . S
C17 O27 1.272 . S
O18 Co14 2.004 1_565 S
O18 C23 1.259 . S
Co19 O20 2.061 1_545 S
Co19 O25 2.052 . S
Co19 O27 2.135 . S
O20 Co19 2.061 1_565 S
O20 C23 1.235 . S
C21 O24 1.238 . S
C21 O25 1.241 . S
C22 O15 1.247 . S
C22 O16 1.261 . S
C23 O18 1.259 . S
C23 O20 1.235 . S
O24 Co14 2.021 . S
O24 C21 1.238 . S
O25 Co19 2.052 . S
O25 C21 1.241 . S
O26 Co14 2.137 . S
O26 C17 1.247 . S
O27 Co14 2.244 . S
O27 C17 1.272 . S
O27 Co19 2.135 . S
Co28 O29 2.216 . S
Co28 O30 2.091 . S
Co28 O32 2.004 1_655 S
Co28 O38 2.021 . S
Co28 O40 2.137 . S
Co28 O41 2.244 . S
O29 Co28 2.216 . S
O29 C36 1.247 . S
O30 Co28 2.091 . S
O30 C36 1.261 . S
C31 O40 1.247 . S
C31 O41 1.272 . S
O32 Co28 2.004 1_455 S
O32 C37 1.259 . S
Co33 O34 2.061 1_655 S
Co33 O39 2.052 . S
Co33 O41 2.135 . S
O34 Co33 2.061 1_455 S
O34 C37 1.235 . S
C35 O38 1.238 . S
C35 O39 1.241 . S
C36 O29 1.247 . S
C36 O30 1.261 . S
C37 O32 1.259 . S
C37 O34 1.235 . S
O38 Co28 2.021 . S
O38 C35 1.238 . S
O39 Co33 2.052 . S
O39 C35 1.241 . S
O40 Co28 2.137 . S
O40 C31 1.247 . S
O41 Co28 2.244 . S
O41 C31 1.272 . S
O41 Co33 2.135 . S
Co42 O43 2.216 . S
Co42 O44 2.091 . S
Co42 O46 2.004 1_565 S
Co42 O52 2.021 . S
Co42 O54 2.137 . S
Co42 O55 2.244 . S
O43 Co42 2.216 . S
O43 C50 1.247 . S
O44 Co42 2.091 . S
O44 C50 1.261 . S
C45 O54 1.247 . S
C45 O55 1.272 . S
O46 Co42 2.004 1_545 S
O46 C51 1.259 . S
Co47 O48 2.061 1_565 S
Co47 O53 2.052 . S
Co47 O55 2.135 . S
O48 Co47 2.061 1_545 S
O48 C51 1.235 . S
C49 O52 1.238 . S
C49 O53 1.241 . S
C50 O43 1.247 . S
C50 O44 1.261 . S
C51 O46 1.259 . S
C51 O48 1.235 . S
O52 Co42 2.021 . S
O52 C49 1.238 . S
O53 Co47 2.052 . S
O53 C49 1.241 . S
O54 Co42 2.137 . S
O54 C45 1.247 . S
O55 Co42 2.244 . S
O55 C45 1.272 . S
O55 Co47 2.135 . S
Co56 O57 2.216 . S
Co56 O58 2.091 . S
Co56 O60 2.004 1_455 S
Co56 O66 2.021 . S
Co56 O68 2.137 . S
Co56 O69 2.244 . S
O57 Co56 2.216 . S
O57 C64 1.247 . S
O58 Co56 2.091 . S
O58 C64 1.261 . S
C59 O68 1.247 . S
C59 O69 1.272 . S
O60 Co56 2.004 1_655 S
O60 C65 1.259 . S
Co61 O62 2.061 1_455 S
Co61 O67 2.052 . S
Co61 O69 2.135 . S
O62 Co61 2.061 1_655 S
O62 C65 1.235 . S
C63 O66 1.238 . S
C63 O67 1.241 . S
C64 O57 1.247 . S
C64 O58 1.261 . S
C65 O60 1.259 . S
C65 O62 1.235 . S
O66 Co56 2.021 . S
O66 C63 1.238 . S
O67 Co61 2.052 . S
O67 C63 1.241 . S
O68 Co56 2.137 . S
O68 C59 1.247 . S
O69 Co56 2.244 . S
O69 C59 1.272 . S
O69 Co61 2.135 . S
Co70 O71 2.216 . S
Co70 O72 2.091 . S
Co70 O74 2.004 1_545 S
Co70 O80 2.021 . S
Co70 O82 2.137 . S
Co70 O83 2.244 . S
O71 Co70 2.216 . S
O71 C78 1.247 . S
O72 Co70 2.091 . S
O72 C78 1.261 . S
C73 O82 1.247 . S
C73 O83 1.272 . S
O74 Co70 2.004 1_565 S
O74 C79 1.259 . S
Co75 O76 2.061 1_545 S
Co75 O81 2.052 . S
Co75 O83 2.135 . S
O76 Co75 2.061 1_565 S
O76 C79 1.235 . S
C77 O80 1.238 . S
C77 O81 1.241 . S
C78 O71 1.247 . S
C78 O72 1.261 . S
C79 O74 1.259 . S
C79 O76 1.235 . S
O80 Co70 2.021 . S
O80 C77 1.238 . S
O81 Co75 2.052 . S
O81 C77 1.241 . S
O82 Co70 2.137 . S
O82 C73 1.247 . S
O83 Co70 2.244 . S
O83 C73 1.272 . S
O83 Co75 2.135 . S
Co84 O85 2.216 . S
Co84 O86 2.091 . S
Co84 O88 2.004 1_655 S
Co84 O94 2.021 . S
Co84 O96 2.137 . S
Co84 O97 2.244 . S
O85 Co84 2.216 . S
O85 C92 1.247 . S
O86 Co84 2.091 . S
O86 C92 1.261 . S
C87 O96 1.247 . S
C87 O97 1.272 . S
O88 Co84 2.004 1_455 S
O88 C93 1.259 . S
Co89 O90 2.061 1_655 S
Co89 O95 2.052 . S
Co89 O97 2.135 . S
O90 Co89 2.061 1_455 S
O90 C93 1.235 . S
C91 O94 1.238 . S
C91 O95 1.241 . S
C92 O85 1.247 . S
C92 O86 1.261 . S
C93 O88 1.259 . S
C93 O90 1.235 . S
O94 Co84 2.021 . S
O94 C91 1.238 . S
O95 Co89 2.052 . S
O95 C91 1.241 . S
O96 Co84 2.137 . S
O96 C87 1.247 . S
O97 Co84 2.244 . S
O97 C87 1.272 . S
O97 Co89 2.135 . S
Co98 O99 2.216 . S
Co98 O100 2.091 . S
Co98 O102 2.004 1_565 S
Co98 O108 2.021 . S
Co98 O110 2.137 . S
Co98 O111 2.244 . S
O99 Co98 2.216 . S
O99 C106 1.247 . S
O100 Co98 2.091 . S
O100 C106 1.261 . S
C101 O110 1.247 . S
C101 O111 1.272 . S
O102 Co98 2.004 1_545 S
O102 C107 1.259 . S
Co103 O104 2.061 1_565 S
Co103 O109 2.052 . S
Co103 O111 2.135 . S
O104 Co103 2.061 1_545 S
O104 C107 1.235 . S
C105 O108 1.238 . S
C105 O109 1.241 . S
C106 O99 1.247 . S
C106 O100 1.261 . S
C107 O102 1.259 . S
C107 O104 1.235 . S
O108 Co98 2.021 . S
O108 C105 1.238 . S
O109 Co103 2.052 . S
O109 C105 1.241 . S
O110 Co98 2.137 . S
O110 C101 1.247 . S
O111 Co98 2.244 . S
O111 C101 1.272 . S
O111 Co103 2.135 . S
Co112 O113 2.216 . S
Co112 O114 2.091 . S
Co112 O116 2.004 . S
Co112 O122 2.021 . S
Co112 O124 2.137 . S
Co112 O125 2.244 . S
O113 Co112 2.216 . S
O113 C120 1.247 . S
O114 Co112 2.091 . S
O114 C120 1.261 . S
C115 O124 1.247 . S
C115 O125 1.272 . S
O116 Co112 2.004 . S
O116 C121 1.259 . S
Co117 O118 2.061 . S
Co117 O123 2.052 . S
Co117 O125 2.135 . S
O118 Co117 2.061 . S
O118 C121 1.235 . S
C119 O122 1.238 . S
C119 O123 1.241 . S
C120 O113 1.247 . S
C120 O114 1.261 . S
C121 O116 1.259 . S
C121 O118 1.235 . S
O122 Co112 2.021 . S
O122 C119 1.238 . S
O123 Co117 2.052 . S
O123 C119 1.241 . S
O124 Co112 2.137 . S
O124 C115 1.247 . S
O125 Co112 2.244 . S
O125 C115 1.272 . S
O125 Co117 2.135 . S
Co126 O127 2.216 . S
Co126 O128 2.091 . S
Co126 O130 2.004 . S
Co126 O136 2.021 . S
Co126 O138 2.137 . S
Co126 O139 2.244 . S
O127 Co126 2.216 . S
O127 C134 1.247 . S
O128 Co126 2.091 . S
O128 C134 1.261 . S
C129 O138 1.247 . S
C129 O139 1.272 . S
O130 Co126 2.004 . S
O130 C135 1.259 . S
Co131 O132 2.061 . S
Co131 O137 2.052 . S
Co131 O139 2.135 . S
O132 Co131 2.061 . S
O132 C135 1.235 . S
C133 O136 1.238 . S
C133 O137 1.241 . S
C134 O127 1.247 . S
C134 O128 1.261 . S
C135 O130 1.259 . S
C135 O132 1.235 . S
O136 Co126 2.021 . S
O136 C133 1.238 . S
O137 Co131 2.052 . S
O137 C133 1.241 . S
O138 Co126 2.137 . S
O138 C129 1.247 . S
O139 Co126 2.244 . S
O139 C129 1.272 . S
O139 Co131 2.135 . S
Co140 O141 2.216 . S
Co140 O142 2.091 . S
Co140 O144 2.004 . S
Co140 O150 2.021 . S
Co140 O152 2.137 . S
Co140 O153 2.244 . S
O141 Co140 2.216 . S
O141 C148 1.247 . S
O142 Co140 2.091 . S
O142 C148 1.261 . S
C143 O152 1.247 . S
C143 O153 1.272 . S
O144 Co140 2.004 . S
O144 C149 1.259 . S
Co145 O146 2.061 . S
Co145 O151 2.052 . S
Co145 O153 2.135 . S
O146 Co145 2.061 . S
O146 C149 1.235 . S
C147 O150 1.238 . S
C147 O151 1.241 . S
C148 O141 1.247 . S
C148 O142 1.261 . S
C149 O144 1.259 . S
C149 O146 1.235 . S
O150 Co140 2.021 . S
O150 C147 1.238 . S
O151 Co145 2.052 . S
O151 C147 1.241 . S
O152 Co140 2.137 . S
O152 C143 1.247 . S
O153 Co140 2.244 . S
O153 C143 1.272 . S
O153 Co145 2.135 . S
Co154 O155 2.216 . S
Co154 O156 2.091 . S
Co154 O158 2.004 . S
Co154 O164 2.021 . S
Co154 O166 2.137 . S
Co154 O167 2.244 . S
O155 Co154 2.216 . S
O155 C162 1.247 . S
O156 Co154 2.091 . S
O156 C162 1.261 . S
C157 O166 1.247 . S
C157 O167 1.272 . S
O158 Co154 2.004 . S
O158 C163 1.259 . S
Co159 O160 2.061 . S
Co159 O165 2.052 . S
Co159 O167 2.135 . S
O160 Co159 2.061 . S
O160 C163 1.235 . S
C161 O164 1.238 . S
C161 O165 1.241 . S
C162 O155 1.247 . S
C162 O156 1.261 . S
C163 O158 1.259 . S
C163 O160 1.235 . S
O164 Co154 2.021 . S
O164 C161 1.238 . S
O165 Co159 2.052 . S
O165 C161 1.241 . S
O166 Co154 2.137 . S
O166 C157 1.247 . S
O167 Co154 2.244 . S
O167 C157 1.272 . S
O167 Co159 2.135 . S
Co168 O169 2.216 . S
Co168 O170 2.091 . S
Co168 O172 2.004 . S
Co168 O178 2.021 . S
Co168 O180 2.137 . S
Co168 O181 2.244 . S
O169 Co168 2.216 . S
O169 C176 1.247 . S
O170 Co168 2.091 . S
O170 C176 1.261 . S
C171 O180 1.247 . S
C171 O181 1.272 . S
O172 Co168 2.004 . S
O172 C177 1.259 . S
Co173 O174 2.061 . S
Co173 O179 2.052 . S
Co173 O181 2.135 . S
O174 Co173 2.061 . S
O174 C177 1.235 . S
C175 O178 1.238 . S
C175 O179 1.241 . S
C176 O169 1.247 . S
C176 O170 1.261 . S
C177 O172 1.259 . S
C177 O174 1.235 . S
O178 Co168 2.021 . S
O178 C175 1.238 . S
O179 Co173 2.052 . S
O179 C175 1.241 . S
O180 Co168 2.137 . S
O180 C171 1.247 . S
O181 Co168 2.244 . S
O181 C171 1.272 . S
O181 Co173 2.135 . S
Co182 O183 2.216 . S
Co182 O184 2.091 . S
Co182 O186 2.004 . S
Co182 O192 2.021 . S
Co182 O194 2.137 . S
Co182 O195 2.244 . S
O183 Co182 2.216 . S
O183 C190 1.247 . S
O184 Co182 2.091 . S
O184 C190 1.261 . S
C185 O194 1.247 . S
C185 O195 1.272 . S
O186 Co182 2.004 . S
O186 C191 1.259 . S
Co187 O188 2.061 . S
Co187 O193 2.052 . S
Co187 O195 2.135 . S
O188 Co187 2.061 . S
O188 C191 1.235 . S
C189 O192 1.238 . S
C189 O193 1.241 . S
C190 O183 1.247 . S
C190 O184 1.261 . S
C191 O186 1.259 . S
C191 O188 1.235 . S
O192 Co182 2.021 . S
O192 C189 1.238 . S
O193 Co187 2.052 . S
O193 C189 1.241 . S
O194 Co182 2.137 . S
O194 C185 1.247 . S
O195 Co182 2.244 . S
O195 C185 1.272 . S
O195 Co187 2.135 . S
Co196 O197 2.216 . S
Co196 O198 2.091 . S
Co196 O200 2.004 . S
Co196 O206 2.021 . S
Co196 O208 2.137 . S
Co196 O209 2.244 . S
O197 Co196 2.216 . S
O197 C204 1.247 . S
O198 Co196 2.091 . S
O198 C204 1.261 . S
C199 O208 1.247 . S
C199 O209 1.272 . S
O200 Co196 2.004 . S
O200 C205 1.259 . S
Co201 O202 2.061 . S
Co201 O207 2.052 . S
Co201 O209 2.135 . S
O202 Co201 2.061 . S
O202 C205 1.235 . S
C203 O206 1.238 . S
C203 O207 1.241 . S
C204 O197 1.247 . S
C204 O198 1.261 . S
C205 O200 1.259 . S
C205 O202 1.235 . S
O206 Co196 2.021 . S
O206 C203 1.238 . S
O207 Co201 2.052 . S
O207 C203 1.241 . S
O208 Co196 2.137 . S
O208 C199 1.247 . S
O209 Co196 2.244 . S
O209 C199 1.272 . S
O209 Co201 2.135 . S
Co210 O211 2.216 . S
Co210 O212 2.091 . S
Co210 O214 2.004 . S
Co210 O220 2.021 . S
Co210 O222 2.137 . S
Co210 O223 2.244 . S
O211 Co210 2.216 . S
O211 C218 1.247 . S
O212 Co210 2.091 . S
O212 C218 1.261 . S
C213 O222 1.247 . S
C213 O223 1.272 . S
O214 Co210 2.004 . S
O214 C219 1.259 . S
Co215 O216 2.061 . S
Co215 O221 2.052 . S
Co215 O223 2.135 . S
O216 Co215 2.061 . S
O216 C219 1.235 . S
C217 O220 1.238 . S
C217 O221 1.241 . S
C218 O211 1.247 . S
C218 O212 1.261 . S
C219 O214 1.259 . S
C219 O216 1.235 . S
O220 Co210 2.021 . S
O220 C217 1.238 . S
O221 Co215 2.052 . S
O221 C217 1.241 . S
O222 Co210 2.137 . S
O222 C213 1.247 . S
O223 Co210 2.244 . S
O223 C213 1.272 . S
O223 Co215 2.135 . S
H224 C230 0.930 . S
H225 C233 0.930 . S
H226 C234 0.930 . S
H227 C235 0.930 . S
H228 C238 0.930 . S
H229 C239 0.930 . S
C230 H224 0.930 . S
C230 C231 1.355 . S
C230 C232 1.415 . S
C231 C230 1.355 . S
C231 C233 1.419 . S
C232 C230 1.415 . S
C232 C237 1.425 . S
C232 C239 1.409 . S
C233 H225 0.930 . S
C233 C231 1.419 . S
C233 C234 1.362 . S
C234 H226 0.930 . S
C234 C233 1.362 . S
C234 C237 1.409 . S
C235 H227 0.930 . S
C235 C236 1.355 . S
C235 C237 1.415 . S
C236 C235 1.355 . S
C236 C238 1.419 . S
C237 C232 1.425 . S
C237 C234 1.409 . S
C237 C235 1.415 . S
C238 H228 0.930 . S
C238 C236 1.419 . S
C238 C239 1.362 . S
C239 H229 0.930 . S
C239 C232 1.409 . S
C239 C238 1.362 . S
H240 C246 0.930 . S
H241 C249 0.930 . S
H242 C250 0.930 . S
H243 C251 0.930 . S
H244 C254 0.930 . S
H245 C255 0.930 . S
C246 H240 0.930 . S
C246 C247 1.355 . S
C246 C248 1.415 . S
C247 C246 1.355 . S
C247 C249 1.419 . S
C248 C246 1.415 . S
C248 C253 1.425 . S
C248 C255 1.409 . S
C249 H241 0.930 . S
C249 C247 1.419 . S
C249 C250 1.362 . S
C250 H242 0.930 . S
C250 C249 1.362 . S
C250 C253 1.409 . S
C251 H243 0.930 . S
C251 C252 1.355 . S
C251 C253 1.415 . S
C252 C251 1.355 . S
C252 C254 1.419 . S
C253 C248 1.425 . S
C253 C250 1.409 . S
C253 C251 1.415 . S
C254 H244 0.930 . S
C254 C252 1.419 . S
C254 C255 1.362 . S
C255 H245 0.930 . S
C255 C248 1.409 . S
C255 C254 1.362 . S
H256 C262 0.930 . S
H257 C265 0.930 . S
H258 C266 0.930 . S
H259 C267 0.930 . S
H260 C270 0.930 . S
H261 C271 0.930 . S
C262 H256 0.930 . S
C262 C263 1.355 . S
C262 C264 1.415 . S
C263 C262 1.355 . S
C263 C265 1.419 . S
C264 C262 1.415 . S
C264 C269 1.425 . S
C264 C271 1.409 . S
C265 H257 0.930 . S
C265 C263 1.419 . S
C265 C266 1.362 . S
C266 H258 0.930 . S
C266 C265 1.362 . S
C266 C269 1.409 . S
C267 H259 0.930 . S
C267 C268 1.355 . S
C267 C269 1.415 . S
C268 C267 1.355 . S
C268 C270 1.419 . S
C269 C264 1.425 . S
C269 C266 1.409 . S
C269 C267 1.415 . S
C270 H260 0.930 . S
C270 C268 1.419 . S
C270 C271 1.362 . S
C271 H261 0.930 . S
C271 C264 1.409 . S
C271 C270 1.362 . S
H272 C278 0.930 . S
H273 C281 0.930 . S
H274 C282 0.930 . S
H275 C283 0.930 . S
H276 C286 0.930 . S
H277 C287 0.930 . S
C278 H272 0.930 . S
C278 C279 1.355 . S
C278 C280 1.415 . S
C279 C278 1.355 . S
C279 C281 1.419 . S
C280 C278 1.415 . S
C280 C285 1.425 . S
C280 C287 1.409 . S
C281 H273 0.930 . S
C281 C279 1.419 . S
C281 C282 1.362 . S
C282 H274 0.930 . S
C282 C281 1.362 . S
C282 C285 1.409 . S
C283 H275 0.930 . S
C283 C284 1.355 . S
C283 C285 1.415 . S
C284 C283 1.355 . S
C284 C286 1.419 . S
C285 C280 1.425 . S
C285 C282 1.409 . S
C285 C283 1.415 . S
C286 H276 0.930 . S
C286 C284 1.419 . S
C286 C287 1.362 . S
C287 H277 0.930 . S
C287 C280 1.409 . S
C287 C286 1.362 . S
H288 C294 0.930 . S
H289 C297 0.930 . S
H290 C298 0.930 . S
H291 C299 0.930 . S
H292 C302 0.930 . S
H293 C303 0.930 . S
C294 H288 0.930 . S
C294 C295 1.355 . S
C294 C296 1.415 . S
C295 C294 1.355 . S
C295 C297 1.419 . S
C296 C294 1.415 . S
C296 C301 1.425 . S
C296 C303 1.409 . S
C297 H289 0.930 . S
C297 C295 1.419 . S
C297 C298 1.362 . S
C298 H290 0.930 . S
C298 C297 1.362 . S
C298 C301 1.409 . S
C299 H291 0.930 . S
C299 C300 1.355 . S
C299 C301 1.415 . S
C300 C299 1.355 . S
C300 C302 1.419 . S
C301 C296 1.425 . S
C301 C298 1.409 . S
C301 C299 1.415 . S
C302 H292 0.930 . S
C302 C300 1.419 . S
C302 C303 1.362 . S
C303 H293 0.930 . S
C303 C296 1.409 . S
C303 C302 1.362 . S
H304 C310 0.930 . S
H305 C313 0.930 . S
H306 C314 0.930 . S
H307 C315 0.930 . S
H308 C318 0.930 . S
H309 C319 0.930 . S
C310 H304 0.930 . S
C310 C311 1.355 . S
C310 C312 1.415 . S
C311 C310 1.355 . S
C311 C313 1.419 . S
C312 C310 1.415 . S
C312 C317 1.425 . S
C312 C319 1.409 . S
C313 H305 0.930 . S
C313 C311 1.419 . S
C313 C314 1.362 . S
C314 H306 0.930 . S
C314 C313 1.362 . S
C314 C317 1.409 . S
C315 H307 0.930 . S
C315 C316 1.355 . S
C315 C317 1.415 . S
C316 C315 1.355 . S
C316 C318 1.419 . S
C317 C312 1.425 . S
C317 C314 1.409 . S
C317 C315 1.415 . S
C318 H308 0.930 . S
C318 C316 1.419 . S
C318 C319 1.362 . S
C319 H309 0.930 . S
C319 C312 1.409 . S
C319 C318 1.362 . S
H320 C326 0.930 . S
H321 C329 0.930 . S
H322 C330 0.930 . S
H323 C331 0.930 . S
H324 C334 0.930 . S
H325 C335 0.930 . S
C326 H320 0.930 . S
C326 C327 1.355 . S
C326 C328 1.415 . S
C327 C326 1.355 . S
C327 C329 1.419 . S
C328 C326 1.415 . S
C328 C333 1.425 . S
C328 C335 1.409 . S
C329 H321 0.930 . S
C329 C327 1.419 . S
C329 C330 1.362 . S
C330 H322 0.930 . S
C330 C329 1.362 . S
C330 C333 1.409 . S
C331 H323 0.930 . S
C331 C332 1.355 . S
C331 C333 1.415 . S
C332 C331 1.355 . S
C332 C334 1.419 . S
C333 C328 1.425 . S
C333 C330 1.409 . S
C333 C331 1.415 . S
C334 H324 0.930 . S
C334 C332 1.419 . S
C334 C335 1.362 . S
C335 H325 0.930 . S
C335 C328 1.409 . S
C335 C334 1.362 . S
H336 C342 0.930 . S
H337 C345 0.930 . S
H338 C346 0.930 . S
H339 C347 0.930 . S
H340 C350 0.930 . S
H341 C351 0.930 . S
C342 H336 0.930 . S
C342 C343 1.355 . S
C342 C344 1.415 . S
C343 C342 1.355 . S
C343 C345 1.419 . S
C344 C342 1.415 . S
C344 C349 1.425 . S
C344 C351 1.409 . S
C345 H337 0.930 . S
C345 C343 1.419 . S
C345 C346 1.362 . S
C346 H338 0.930 . S
C346 C345 1.362 . S
C346 C349 1.409 . S
C347 H339 0.930 . S
C347 C348 1.355 . S
C347 C349 1.415 . S
C348 C347 1.355 . S
C348 C350 1.419 . S
C349 C344 1.425 . S
C349 C346 1.409 . S
C349 C347 1.415 . S
C350 H340 0.930 . S
C350 C348 1.419 . S
C350 C351 1.362 . S
C351 H341 0.930 . S
C351 C344 1.409 . S
C351 C350 1.362 . S
H352 C358 0.930 . S
H353 C361 0.930 . S
H354 C362 0.930 . S
H355 C363 0.930 . S
H356 C366 0.930 . S
H357 C367 0.930 . S
C358 H352 0.930 . S
C358 C359 1.355 . S
C358 C360 1.415 . S
C359 C358 1.355 . S
C359 C361 1.419 . S
C360 C358 1.415 . S
C360 C365 1.425 . S
C360 C367 1.409 . S
C361 H353 0.930 . S
C361 C359 1.419 . S
C361 C362 1.362 . S
C362 H354 0.930 . S
C362 C361 1.362 . S
C362 C365 1.409 . S
C363 H355 0.930 . S
C363 C364 1.355 . S
C363 C365 1.415 . S
C364 C363 1.355 . S
C364 C366 1.419 . S
C365 C360 1.425 . S
C365 C362 1.409 . S
C365 C363 1.415 . S
C366 H356 0.930 . S
C366 C364 1.419 . S
C366 C367 1.362 . S
C367 H357 0.930 . S
C367 C360 1.409 . S
C367 C366 1.362 . S
H368 C374 0.930 . S
H369 C377 0.930 . S
H370 C378 0.930 . S
H371 C379 0.930 . S
H372 C382 0.930 . S
H373 C383 0.930 . S
C374 H368 0.930 . S
C374 C375 1.355 . S
C374 C376 1.415 . S
C375 C374 1.355 . S
C375 C377 1.419 . S
C376 C374 1.415 . S
C376 C381 1.425 . S
C376 C383 1.409 . S
C377 H369 0.930 . S
C377 C375 1.419 . S
C377 C378 1.362 . S
C378 H370 0.930 . S
C378 C377 1.362 . S
C378 C381 1.409 . S
C379 H371 0.930 . S
C379 C380 1.355 . S
C379 C381 1.415 . S
C380 C379 1.355 . S
C380 C382 1.419 . S
C381 C376 1.425 . S
C381 C378 1.409 . S
C381 C379 1.415 . S
C382 H372 0.930 . S
C382 C380 1.419 . S
C382 C383 1.362 . S
C383 H373 0.930 . S
C383 C376 1.409 . S
C383 C382 1.362 . S
H384 C390 0.930 . S
H385 C393 0.930 . S
H386 C394 0.930 . S
H387 C395 0.930 . S
H388 C398 0.930 . S
H389 C399 0.930 . S
C390 H384 0.930 . S
C390 C391 1.355 . S
C390 C392 1.415 . S
C391 C390 1.355 . S
C391 C393 1.419 . S
C392 C390 1.415 . S
C392 C397 1.425 . S
C392 C399 1.409 . S
C393 H385 0.930 . S
C393 C391 1.419 . S
C393 C394 1.362 . S
C394 H386 0.930 . S
C394 C393 1.362 . S
C394 C397 1.409 . S
C395 H387 0.930 . S
C395 C396 1.355 . S
C395 C397 1.415 . S
C396 C395 1.355 . S
C396 C398 1.419 . S
C397 C392 1.425 . S
C397 C394 1.409 . S
C397 C395 1.415 . S
C398 H388 0.930 . S
C398 C396 1.419 . S
C398 C399 1.362 . S
C399 H389 0.930 . S
C399 C392 1.409 . S
C399 C398 1.362 . S
H400 C406 0.930 . S
H401 C409 0.930 . S
H402 C410 0.930 . S
H403 C411 0.930 . S
H404 C414 0.930 . S
H405 C415 0.930 . S
C406 H400 0.930 . S
C406 C407 1.355 . S
C406 C408 1.415 . S
C407 C406 1.355 . S
C407 C409 1.419 . S
C408 C406 1.415 . S
C408 C413 1.425 . S
C408 C415 1.409 . S
C409 H401 0.930 . S
C409 C407 1.419 . S
C409 C410 1.362 . S
C410 H402 0.930 . S
C410 C409 1.362 . S
C410 C413 1.409 . S
C411 H403 0.930 . S
C411 C412 1.355 . S
C411 C413 1.415 . S
C412 C411 1.355 . S
C412 C414 1.419 . S
C413 C408 1.425 . S
C413 C410 1.409 . S
C413 C411 1.415 . S
C414 H404 0.930 . S
C414 C412 1.419 . S
C414 C415 1.362 . S
C415 H405 0.930 . S
C415 C408 1.409 . S
C415 C414 1.362 . S
H416 C422 0.930 . S
H417 C425 0.930 . S
H418 C426 0.930 . S
H419 C427 0.930 . S
H420 C430 0.930 . S
H421 C431 0.930 . S
C422 H416 0.930 . S
C422 C423 1.355 . S
C422 C424 1.415 . S
C423 C422 1.355 . S
C423 C425 1.419 . S
C424 C422 1.415 . S
C424 C429 1.425 . S
C424 C431 1.409 . S
C425 H417 0.930 . S
C425 C423 1.419 . S
C425 C426 1.362 . S
C426 H418 0.930 . S
C426 C425 1.362 . S
C426 C429 1.409 . S
C427 H419 0.930 . S
C427 C428 1.355 . S
C427 C429 1.415 . S
C428 C427 1.355 . S
C428 C430 1.419 . S
C429 C424 1.425 . S
C429 C426 1.409 . S
C429 C427 1.415 . S
C430 H420 0.930 . S
C430 C428 1.419 . S
C430 C431 1.362 . S
C431 H421 0.930 . S
C431 C424 1.409 . S
C431 C430 1.362 . S
H432 C438 0.930 . S
H433 C441 0.930 . S
H434 C442 0.930 . S
H435 C443 0.930 . S
H436 C446 0.930 . S
H437 C447 0.930 . S
C438 H432 0.930 . S
C438 C439 1.355 . S
C438 C440 1.415 . S
C439 C438 1.355 . S
C439 C441 1.419 . S
C440 C438 1.415 . S
C440 C445 1.425 . S
C440 C447 1.409 . S
C441 H433 0.930 . S
C441 C439 1.419 . S
C441 C442 1.362 . S
C442 H434 0.930 . S
C442 C441 1.362 . S
C442 C445 1.409 . S
C443 H435 0.930 . S
C443 C444 1.355 . S
C443 C445 1.415 . S
C444 C443 1.355 . S
C444 C446 1.419 . S
C445 C440 1.425 . S
C445 C442 1.409 . S
C445 C443 1.415 . S
C446 H436 0.930 . S
C446 C444 1.419 . S
C446 C447 1.362 . S
C447 H437 0.930 . S
C447 C440 1.409 . S
C447 C446 1.362 . S
H448 C454 0.930 . S
H449 C457 0.930 . S
H450 C458 0.930 . S
H451 C459 0.930 . S
H452 C462 0.930 . S
H453 C463 0.930 . S
C454 H448 0.930 . S
C454 C455 1.355 . S
C454 C456 1.415 . S
C455 C454 1.355 . S
C455 C457 1.419 . S
C456 C454 1.415 . S
C456 C461 1.425 . S
C456 C463 1.409 . S
C457 H449 0.930 . S
C457 C455 1.419 . S
C457 C458 1.362 . S
C458 H450 0.930 . S
C458 C457 1.362 . S
C458 C461 1.409 . S
C459 H451 0.930 . S
C459 C460 1.355 . S
C459 C461 1.415 . S
C460 C459 1.355 . S
C460 C462 1.419 . S
C461 C456 1.425 . S
C461 C458 1.409 . S
C461 C459 1.415 . S
C462 H452 0.930 . S
C462 C460 1.419 . S
C462 C463 1.362 . S
C463 H453 0.930 . S
C463 C456 1.409 . S
C463 C462 1.362 . S
H464 C470 0.930 . S
H465 C473 0.930 . S
H466 C474 0.930 . S
H467 C475 0.930 . S
H468 C478 0.930 . S
H469 C479 0.930 . S
C470 H464 0.930 . S
C470 C471 1.355 . S
C470 C472 1.415 . S
C471 C470 1.355 . S
C471 C473 1.419 . S
C472 C470 1.415 . S
C472 C477 1.425 . S
C472 C479 1.409 . S
C473 H465 0.930 . S
C473 C471 1.419 . S
C473 C474 1.362 . S
C474 H466 0.930 . S
C474 C473 1.362 . S
C474 C477 1.409 . S
C475 H467 0.930 . S
C475 C476 1.355 . S
C475 C477 1.415 . S
C476 C475 1.355 . S
C476 C478 1.419 . S
C477 C472 1.425 . S
C477 C474 1.409 . S
C477 C475 1.415 . S
C478 H468 0.930 . S
C478 C476 1.419 . S
C478 C479 1.362 . S
C479 H469 0.930 . S
C479 C472 1.409 . S
C479 C478 1.362 . S
H480 C486 0.930 . S
H481 C489 0.930 . S
H482 C490 0.930 . S
H483 C491 0.930 . S
H484 C494 0.930 . S
H485 C495 0.930 . S
C486 H480 0.930 . S
C486 C487 1.355 . S
C486 C488 1.415 . S
C487 C486 1.355 . S
C487 C489 1.419 . S
C488 C486 1.415 . S
C488 C493 1.425 . S
C488 C495 1.409 . S
C489 H481 0.930 . S
C489 C487 1.419 . S
C489 C490 1.362 . S
C490 H482 0.930 . S
C490 C489 1.362 . S
C490 C493 1.409 . S
C491 H483 0.930 . S
C491 C492 1.355 . S
C491 C493 1.415 . S
C492 C491 1.355 . S
C492 C494 1.419 . S
C493 C488 1.425 . S
C493 C490 1.409 . S
C493 C491 1.415 . S
C494 H484 0.930 . S
C494 C492 1.419 . S
C494 C495 1.362 . S
C495 H485 0.930 . S
C495 C488 1.409 . S
C495 C494 1.362 . S
H496 C502 0.930 . S
H497 C505 0.930 . S
H498 C506 0.930 . S
H499 C507 0.930 . S
H500 C510 0.930 . S
H501 C511 0.930 . S
C502 H496 0.930 . S
C502 C503 1.355 . S
C502 C504 1.415 . S
C503 C502 1.355 . S
C503 C505 1.419 . S
C504 C502 1.415 . S
C504 C509 1.425 . S
C504 C511 1.409 . S
C505 H497 0.930 . S
C505 C503 1.419 . S
C505 C506 1.362 . S
C506 H498 0.930 . S
C506 C505 1.362 . S
C506 C509 1.409 . S
C507 H499 0.930 . S
C507 C508 1.355 . S
C507 C509 1.415 . S
C508 C507 1.355 . S
C508 C510 1.419 . S
C509 C504 1.425 . S
C509 C506 1.409 . S
C509 C507 1.415 . S
C510 H500 0.930 . S
C510 C508 1.419 . S
C510 C511 1.362 . S
C511 H501 0.930 . S
C511 C504 1.409 . S
C511 C510 1.362 . S
H512 C518 0.930 . S
H513 C521 0.930 . S
H514 C522 0.930 . S
H515 C523 0.930 . S
H516 C526 0.930 . S
H517 C527 0.930 . S
C518 H512 0.930 . S
C518 C519 1.355 . S
C518 C520 1.415 . S
C519 C518 1.355 . S
C519 C521 1.419 . S
C520 C518 1.415 . S
C520 C525 1.425 . S
C520 C527 1.409 . S
C521 H513 0.930 . S
C521 C519 1.419 . S
C521 C522 1.362 . S
C522 H514 0.930 . S
C522 C521 1.362 . S
C522 C525 1.409 . S
C523 H515 0.930 . S
C523 C524 1.355 . S
C523 C525 1.415 . S
C524 C523 1.355 . S
C524 C526 1.419 . S
C525 C520 1.425 . S
C525 C522 1.409 . S
C525 C523 1.415 . S
C526 H516 0.930 . S
C526 C524 1.419 . S
C526 C527 1.362 . S
C527 H517 0.930 . S
C527 C520 1.409 . S
C527 C526 1.362 . S
H528 C534 0.930 . S
H529 C537 0.930 . S
H530 C538 0.930 . S
H531 C539 0.930 . S
H532 C542 0.930 . S
H533 C543 0.930 . S
C534 H528 0.930 . S
C534 C535 1.355 . S
C534 C536 1.415 . S
C535 C534 1.355 . S
C535 C537 1.419 . S
C536 C534 1.415 . S
C536 C541 1.425 . S
C536 C543 1.409 . S
C537 H529 0.930 . S
C537 C535 1.419 . S
C537 C538 1.362 . S
C538 H530 0.930 . S
C538 C537 1.362 . S
C538 C541 1.409 . S
C539 H531 0.930 . S
C539 C540 1.355 . S
C539 C541 1.415 . S
C540 C539 1.355 . S
C540 C542 1.419 . S
C541 C536 1.425 . S
C541 C538 1.409 . S
C541 C539 1.415 . S
C542 H532 0.930 . S
C542 C540 1.419 . S
C542 C543 1.362 . S
C543 H533 0.930 . S
C543 C536 1.409 . S
C543 C542 1.362 . S
H544 C550 0.930 . S
H545 C553 0.930 . S
H546 C554 0.930 . S
H547 C555 0.930 . S
H548 C558 0.930 . S
H549 C559 0.930 . S
C550 H544 0.930 . S
C550 C551 1.355 . S
C550 C552 1.415 . S
C551 C550 1.355 . S
C551 C553 1.419 . S
C552 C550 1.415 . S
C552 C557 1.425 . S
C552 C559 1.409 . S
C553 H545 0.930 . S
C553 C551 1.419 . S
C553 C554 1.362 . S
C554 H546 0.930 . S
C554 C553 1.362 . S
C554 C557 1.409 . S
C555 H547 0.930 . S
C555 C556 1.355 . S
C555 C557 1.415 . S
C556 C555 1.355 . S
C556 C558 1.419 . S
C557 C552 1.425 . S
C557 C554 1.409 . S
C557 C555 1.415 . S
C558 H548 0.930 . S
C558 C556 1.419 . S
C558 C559 1.362 . S
C559 H549 0.930 . S
C559 C552 1.409 . S
C559 C558 1.362 . S
H560 C566 0.930 . S
H561 C569 0.930 . S
H562 C570 0.930 . S
H563 C571 0.930 . S
H564 C574 0.930 . S
H565 C575 0.930 . S
C566 H560 0.930 . S
C566 C567 1.355 . S
C566 C568 1.415 . S
C567 C566 1.355 . S
C567 C569 1.419 . S
C568 C566 1.415 . S
C568 C573 1.425 . S
C568 C575 1.409 . S
C569 H561 0.930 . S
C569 C567 1.419 . S
C569 C570 1.362 . S
C570 H562 0.930 . S
C570 C569 1.362 . S
C570 C573 1.409 . S
C571 H563 0.930 . S
C571 C572 1.355 . S
C571 C573 1.415 . S
C572 C571 1.355 . S
C572 C574 1.419 . S
C573 C568 1.425 . S
C573 C570 1.409 . S
C573 C571 1.415 . S
C574 H564 0.930 . S
C574 C572 1.419 . S
C574 C575 1.362 . S
C575 H565 0.930 . S
C575 C568 1.409 . S
C575 C574 1.362 . S
H576 C582 0.930 . S
H577 C585 0.930 . S
H578 C586 0.930 . S
H579 C587 0.930 . S
H580 C590 0.930 . S
H581 C591 0.930 . S
C582 H576 0.930 . S
C582 C583 1.355 . S
C582 C584 1.415 . S
C583 C582 1.355 . S
C583 C585 1.419 . S
C584 C582 1.415 . S
C584 C589 1.425 . S
C584 C591 1.409 . S
C585 H577 0.930 . S
C585 C583 1.419 . S
C585 C586 1.362 . S
C586 H578 0.930 . S
C586 C585 1.362 . S
C586 C589 1.409 . S
C587 H579 0.930 . S
C587 C588 1.355 . S
C587 C589 1.415 . S
C588 C587 1.355 . S
C588 C590 1.419 . S
C589 C584 1.425 . S
C589 C586 1.409 . S
C589 C587 1.415 . S
C590 H580 0.930 . S
C590 C588 1.419 . S
C590 C591 1.362 . S
C591 H581 0.930 . S
C591 C584 1.409 . S
C591 C590 1.362 . S
H592 C598 0.930 . S
H593 C601 0.930 . S
H594 C602 0.930 . S
H595 C603 0.930 . S
H596 C606 0.930 . S
H597 C607 0.930 . S
C598 H592 0.930 . S
C598 C599 1.355 . S
C598 C600 1.415 . S
C599 C598 1.355 . S
C599 C601 1.419 . S
C600 C598 1.415 . S
C600 C605 1.425 . S
C600 C607 1.409 . S
C601 H593 0.930 . S
C601 C599 1.419 . S
C601 C602 1.362 . S
C602 H594 0.930 . S
C602 C601 1.362 . S
C602 C605 1.409 . S
C603 H595 0.930 . S
C603 C604 1.355 . S
C603 C605 1.415 . S
C604 C603 1.355 . S
C604 C606 1.419 . S
C605 C600 1.425 . S
C605 C602 1.409 . S
C605 C603 1.415 . S
C606 H596 0.930 . S
C606 C604 1.419 . S
C606 C607 1.362 . S
C607 H597 0.930 . S
C607 C600 1.409 . S
C607 C606 1.362 . S
H608 C614 0.930 . S
H609 C617 0.930 . S
H610 C618 0.930 . S
H611 C619 0.930 . S
H612 C622 0.930 . S
H613 C623 0.930 . S
C614 H608 0.930 . S
C614 C615 1.355 . S
C614 C616 1.415 . S
C615 C614 1.355 . S
C615 C617 1.419 1_455 S
C616 C614 1.415 . S
C616 C621 1.425 1_455 S
C616 C623 1.409 . S
C617 H609 0.930 . S
C617 C615 1.419 1_655 S
C617 C618 1.362 . S
C618 H610 0.930 . S
C618 C617 1.362 . S
C618 C621 1.409 . S
C619 H611 0.930 . S
C619 C620 1.355 . S
C619 C621 1.415 . S
C620 C619 1.355 . S
C620 C622 1.419 1_655 S
C621 C616 1.425 1_655 S
C621 C618 1.409 . S
C621 C619 1.415 . S
C622 H612 0.930 . S
C622 C620 1.419 1_455 S
C622 C623 1.362 . S
C623 H613 0.930 . S
C623 C616 1.409 . S
C623 C622 1.362 . S
H624 C630 0.930 . S
H625 C633 0.930 . S
H626 C634 0.930 . S
H627 C635 0.930 . S
H628 C638 0.930 . S
H629 C639 0.930 . S
C630 H624 0.930 . S
C630 C631 1.355 1_545 S
C630 C632 1.415 . S
C631 C630 1.355 1_565 S
C631 C633 1.419 . S
C632 C630 1.415 . S
C632 C637 1.425 1_545 S
C632 C639 1.409 . S
C633 H625 0.930 . S
C633 C631 1.419 . S
C633 C634 1.362 . S
C634 H626 0.930 . S
C634 C633 1.362 . S
C634 C637 1.409 . S
C635 H627 0.930 . S
C635 C636 1.355 1_565 S
C635 C637 1.415 . S
C636 C635 1.355 1_545 S
C636 C638 1.419 . S
C637 C632 1.425 1_565 S
C637 C634 1.409 . S
C637 C635 1.415 . S
C638 H628 0.930 . S
C638 C636 1.419 . S
C638 C639 1.362 . S
C639 H629 0.930 . S
C639 C632 1.409 . S
C639 C638 1.362 . S
H640 C646 0.930 . S
H641 C649 0.930 . S
H642 C650 0.930 . S
H643 C651 0.930 . S
H644 C654 0.930 . S
H645 C655 0.930 . S
C646 H640 0.930 . S
C646 C647 1.355 1_655 S
C646 C648 1.415 . S
C647 C646 1.355 1_455 S
C647 C649 1.419 . S
C648 C646 1.415 . S
C648 C653 1.425 1_655 S
C648 C655 1.409 . S
C649 H641 0.930 . S
C649 C647 1.419 . S
C649 C650 1.362 . S
C650 H642 0.930 . S
C650 C649 1.362 . S
C650 C653 1.409 . S
C651 H643 0.930 . S
C651 C652 1.355 1_455 S
C651 C653 1.415 . S
C652 C651 1.355 1_655 S
C652 C654 1.419 . S
C653 C648 1.425 1_455 S
C653 C650 1.409 . S
C653 C651 1.415 . S
C654 H644 0.930 . S
C654 C652 1.419 . S
C654 C655 1.362 . S
C655 H645 0.930 . S
C655 C648 1.409 . S
C655 C654 1.362 . S
H656 C662 0.930 . S
H657 C665 0.932 . S
H658 C666 0.930 . S
H659 C667 0.930 . S
H660 C670 0.932 . S
H661 C671 0.930 . S
C662 H656 0.930 . S
C662 C663 1.355 . S
C662 C664 1.415 . S
C663 C662 1.355 . S
C663 C665 1.413 1_545 S
C664 C662 1.415 . S
C664 C669 1.425 1_545 S
C664 C671 1.409 . S
C665 H657 0.932 . S
C665 C663 1.413 1_565 S
C665 C666 1.366 . S
C666 H658 0.930 . S
C666 C665 1.366 . S
C666 C669 1.409 . S
C667 H659 0.930 . S
C667 C668 1.355 . S
C667 C669 1.415 . S
C668 C667 1.355 . S
C668 C670 1.413 1_565 S
C669 C664 1.425 1_565 S
C669 C666 1.409 . S
C669 C667 1.415 . S
C670 H660 0.932 . S
C670 C668 1.413 1_545 S
C670 C671 1.366 . S
C671 H661 0.930 . S
C671 C664 1.409 . S
C671 C670 1.366 . S
H672 C678 0.930 . S
H673 C681 0.930 . S
H674 C682 0.930 . S
H675 C683 0.930 . S
H676 C686 0.930 . S
H677 C687 0.930 . S
C678 H672 0.930 . S
C678 C679 1.355 . S
C678 C680 1.415 . S
C679 C678 1.355 . S
C679 C681 1.419 . S
C680 C678 1.415 . S
C680 C685 1.425 1_556 S
C680 C687 1.409 1_556 S
C681 H673 0.930 . S
C681 C679 1.419 . S
C681 C682 1.362 . S
C682 H674 0.930 . S
C682 C681 1.362 . S
C682 C685 1.409 1_556 S
C683 H675 0.930 . S
C683 C684 1.355 . S
C683 C685 1.415 . S
C684 C683 1.355 . S
C684 C686 1.419 . S
C685 C680 1.425 1_554 S
C685 C682 1.409 1_554 S
C685 C683 1.415 . S
C686 H676 0.930 . S
C686 C684 1.419 . S
C686 C687 1.362 . S
C687 H677 0.930 . S
C687 C680 1.409 1_554 S
C687 C686 1.362 . S
H688 C694 0.930 . S
H689 C697 0.930 . S
H690 C698 0.930 . S
H691 C699 0.930 . S
H692 C702 0.930 . S
H693 C703 0.930 . S
C694 H688 0.930 . S
C694 C695 1.355 . S
C694 C696 1.415 . S
C695 C694 1.355 . S
C695 C697 1.419 . S
C696 C694 1.415 . S
C696 C701 1.425 1_556 S
C696 C703 1.409 1_556 S
C697 H689 0.930 . S
C697 C695 1.419 . S
C697 C698 1.362 . S
C698 H690 0.930 . S
C698 C697 1.362 . S
C698 C701 1.409 1_556 S
C699 H691 0.930 . S
C699 C700 1.355 . S
C699 C701 1.415 . S
C700 C699 1.355 . S
C700 C702 1.419 . S
C701 C696 1.425 1_554 S
C701 C698 1.409 1_554 S
C701 C699 1.415 . S
C702 H692 0.930 . S
C702 C700 1.419 . S
C702 C703 1.362 . S
C703 H693 0.930 . S
C703 C696 1.409 1_554 S
C703 C702 1.362 . S
H704 C710 0.930 . S
H705 C713 0.930 . S
H706 C714 0.930 . S
H707 C715 0.930 . S
H708 C718 0.930 . S
H709 C719 0.930 . S
C710 H704 0.930 . S
C710 C711 1.355 . S
C710 C712 1.415 . S
C711 C710 1.355 . S
C711 C713 1.419 . S
C712 C710 1.415 . S
C712 C717 1.425 1_554 S
C712 C719 1.409 1_554 S
C713 H705 0.930 . S
C713 C711 1.419 . S
C713 C714 1.362 . S
C714 H706 0.930 . S
C714 C713 1.362 . S
C714 C717 1.409 1_554 S
C715 H707 0.930 . S
C715 C716 1.355 . S
C715 C717 1.415 . S
C716 C715 1.355 . S
C716 C718 1.419 . S
C717 C712 1.425 1_556 S
C717 C714 1.409 1_556 S
C717 C715 1.415 . S
C718 H708 0.930 . S
C718 C716 1.419 . S
C718 C719 1.362 . S
C719 H709 0.930 . S
C719 C712 1.409 1_556 S
C719 C718 1.362 . S
H720 C726 0.930 . S
H721 C729 0.930 . S
H722 C730 0.930 . S
H723 C731 0.930 . S
H724 C734 0.930 . S
H725 C735 0.930 . S
C726 H720 0.930 . S
C726 C727 1.355 . S
C726 C728 1.415 . S
C727 C726 1.355 . S
C727 C729 1.419 . S
C728 C726 1.415 . S
C728 C733 1.425 1_556 S
C728 C735 1.409 1_556 S
C729 H721 0.930 . S
C729 C727 1.419 . S
C729 C730 1.362 . S
C730 H722 0.930 . S
C730 C729 1.362 . S
C730 C733 1.409 1_556 S
C731 H723 0.930 . S
C731 C732 1.355 . S
C731 C733 1.415 . S
C732 C731 1.355 . S
C732 C734 1.419 . S
C733 C728 1.425 1_554 S
C733 C730 1.409 1_554 S
C733 C731 1.415 . S
C734 H724 0.930 . S
C734 C732 1.419 . S
C734 C735 1.362 . S
C735 H725 0.930 . S
C735 C728 1.409 1_554 S
C735 C734 1.362 . S
C231 C7 1.461 . S
C236 C51 1.418 . S
C247 C9 1.460 . S
C252 C21 1.429 . S
C263 C23 1.385 . S
C268 C35 1.489 . S
C279 C37 1.438 . S
C284 C49 1.448 . S
C295 C63 1.493 . S
C300 C79 1.379 . S
C311 C77 1.452 . S
C316 C93 1.430 . S
C327 C91 1.429 . S
C332 C107 1.458 . S
C343 C105 1.421 . S
C348 C65 1.469 . S
C359 C119 1.494 . S
C364 C163 1.378 . S
C375 C121 1.386 . S
C380 C133 1.489 . S
C391 C135 1.467 . S
C396 C147 1.422 . S
C407 C161 1.471 . S
C412 C149 1.409 . S
C423 C191 1.463 . S
C428 C175 1.426 . S
C439 C205 1.379 . S
C444 C189 1.494 . S
C455 C203 1.421 . S
C460 C219 1.468 . S
C471 C217 1.478 . S
C476 C177 1.397 . S
C487 C8 1.330 . S
C492 C218 1.338 . S
C503 C22 1.319 . S
C508 C176 1.332 . S
C519 C190 1.339 . S
C524 C36 1.338 . S
C535 C50 1.293 . S
C540 C204 1.280 . S
C551 C134 1.324 . S
C556 C64 1.335 . S
C567 C148 1.296 . S
C572 C78 1.312 . S
C583 C92 1.316 . S
C588 C162 1.330 . S
C599 C106 1.300 . S
C604 C120 1.285 . S
C615 C3 1.635 . S
C620 C87 1.620 . S
C631 C101 1.617 . S
C636 C17 1.614 . S
C647 C59 1.612 . S
C652 C31 1.619 . S
C663 C73 1.611 . S
C668 C45 1.632 . S
C679 C115 1.635 . S
C684 C199 1.619 . S
C695 C129 1.627 . S
C700 C213 1.610 . S
C711 C171 1.635 . S
C716 C143 1.617 . S
C727 C157 1.612 . S
C732 C185 1.620 . S
