# Generated by pormake.
# Topology xfh, (7)-cn, num edge types: 1
# Building blocks:
#     Node 0, Type 0, BuildingBlock: NUHQUE_clean_sbu_2, # of connection points: 7
#     Node 1, Type 0, BuildingBlock: NUHQUE_clean_sbu_2, # of connection points: 7
#     Node 2, Type 0, BuildingBlock: NUHQUE_clean_sbu_2, # of connection points: 7
#     Node 3, Type 0, BuildingBlock: NUHQUE_clean_sbu_2, # of connection points: 7
#     Node 4, Type 0, BuildingBlock: NUHQUE_clean_sbu_2, # of connection points: 7
#     Node 5, Type 0, BuildingBlock: NUHQUE_clean_sbu_2, # of connection points: 7
#     Node 6, Type 0, BuildingBlock: NUHQUE_clean_sbu_2, # of connection points: 7
#     Node 7, Type 0, BuildingBlock: NUHQUE_clean_sbu_2, # of connection points: 7
#     Node 8, Type 0, BuildingBlock: NUHQUE_clean_sbu_2, # of connection points: 7
#     Node 9, Type 0, BuildingBlock: NUHQUE_clean_sbu_2, # of connection points: 7
#     Node 10, Type 0, BuildingBlock: NUHQUE_clean_sbu_2, # of connection points: 7
#     Node 11, Type 0, BuildingBlock: NUHQUE_clean_sbu_2, # of connection points: 7
#     Node 12, Type 0, BuildingBlock: NUHQUE_clean_sbu_2, # of connection points: 7
#     Node 13, Type 0, BuildingBlock: NUHQUE_clean_sbu_2, # of connection points: 7
#     Node 14, Type 0, BuildingBlock: NUHQUE_clean_sbu_2, # of connection points: 7
#     Node 15, Type 0, BuildingBlock: NUHQUE_clean_sbu_2, # of connection points: 7
#     Edge 16, Type (0, 0), BuildingBlock: TEMPAE_clean_linker_10, # of connection points: 2
#     Edge 17, Type (0, 0), BuildingBlock: TEMPAE_clean_linker_10, # of connection points: 2
#     Edge 18, Type (0, 0), BuildingBlock: TEMPAE_clean_linker_10, # of connection points: 2
#     Edge 19, Type (0, 0), BuildingBlock: TEMPAE_clean_linker_10, # of connection points: 2
#     Edge 20, Type (0, 0), BuildingBlock: TEMPAE_clean_linker_10, # of connection points: 2
#     Edge 21, Type (0, 0), BuildingBlock: TEMPAE_clean_linker_10, # of connection points: 2
#     Edge 22, Type (0, 0), BuildingBlock: TEMPAE_clean_linker_10, # of connection points: 2
#     Edge 23, Type (0, 0), BuildingBlock: TEMPAE_clean_linker_10, # of connection points: 2
#     Edge 24, Type (0, 0), BuildingBlock: TEMPAE_clean_linker_10, # of connection points: 2
#     Edge 25, Type (0, 0), BuildingBlock: TEMPAE_clean_linker_10, # of connection points: 2
#     Edge 26, Type (0, 0), BuildingBlock: TEMPAE_clean_linker_10, # of connection points: 2
#     Edge 27, Type (0, 0), BuildingBlock: TEMPAE_clean_linker_10, # of connection points: 2
#     Edge 28, Type (0, 0), BuildingBlock: TEMPAE_clean_linker_10, # of connection points: 2
#     Edge 29, Type (0, 0), BuildingBlock: TEMPAE_clean_linker_10, # of connection points: 2
#     Edge 30, Type (0, 0), BuildingBlock: TEMPAE_clean_linker_10, # of connection points: 2
#     Edge 31, Type (0, 0), BuildingBlock: TEMPAE_clean_linker_10, # of connection points: 2
#     Edge 32, Type (0, 0), BuildingBlock: TEMPAE_clean_linker_10, # of connection points: 2
#     Edge 33, Type (0, 0), BuildingBlock: TEMPAE_clean_linker_10, # of connection points: 2
#     Edge 34, Type (0, 0), BuildingBlock: TEMPAE_clean_linker_10, # of connection points: 2
#     Edge 35, Type (0, 0), BuildingBlock: TEMPAE_clean_linker_10, # of connection points: 2
#     Edge 36, Type (0, 0), BuildingBlock: TEMPAE_clean_linker_10, # of connection points: 2
#     Edge 37, Type (0, 0), BuildingBlock: TEMPAE_clean_linker_10, # of connection points: 2
#     Edge 38, Type (0, 0), BuildingBlock: TEMPAE_clean_linker_10, # of connection points: 2
#     Edge 39, Type (0, 0), BuildingBlock: TEMPAE_clean_linker_10, # of connection points: 2
#     Edge 40, Type (0, 0), BuildingBlock: TEMPAE_clean_linker_10, # of connection points: 2
#     Edge 41, Type (0, 0), BuildingBlock: TEMPAE_clean_linker_10, # of connection points: 2
#     Edge 42, Type (0, 0), BuildingBlock: TEMPAE_clean_linker_10, # of connection points: 2
#     Edge 43, Type (0, 0), BuildingBlock: TEMPAE_clean_linker_10, # of connection points: 2
#     Edge 44, Type (0, 0), BuildingBlock: TEMPAE_clean_linker_10, # of connection points: 2
#     Edge 45, Type (0, 0), BuildingBlock: TEMPAE_clean_linker_10, # of connection points: 2
#     Edge 46, Type (0, 0), BuildingBlock: TEMPAE_clean_linker_10, # of connection points: 2
#     Edge 47, Type (0, 0), BuildingBlock: TEMPAE_clean_linker_10, # of connection points: 2
#     Edge 48, Type (0, 0), BuildingBlock: TEMPAE_clean_linker_10, # of connection points: 2
#     Edge 49, Type (0, 0), BuildingBlock: TEMPAE_clean_linker_10, # of connection points: 2
#     Edge 50, Type (0, 0), BuildingBlock: TEMPAE_clean_linker_10, # of connection points: 2
#     Edge 51, Type (0, 0), BuildingBlock: TEMPAE_clean_linker_10, # of connection points: 2
#     Edge 52, Type (0, 0), BuildingBlock: TEMPAE_clean_linker_10, # of connection points: 2
#     Edge 53, Type (0, 0), BuildingBlock: TEMPAE_clean_linker_10, # of connection points: 2
#     Edge 54, Type (0, 0), BuildingBlock: TEMPAE_clean_linker_10, # of connection points: 2
#     Edge 55, Type (0, 0), BuildingBlock: TEMPAE_clean_linker_10, # of connection points: 2
#     Edge 56, Type (0, 0), BuildingBlock: TEMPAE_clean_linker_10, # of connection points: 2
#     Edge 57, Type (0, 0), BuildingBlock: TEMPAE_clean_linker_10, # of connection points: 2
#     Edge 58, Type (0, 0), BuildingBlock: TEMPAE_clean_linker_10, # of connection points: 2
#     Edge 59, Type (0, 0), BuildingBlock: TEMPAE_clean_linker_10, # of connection points: 2
#     Edge 60, Type (0, 0), BuildingBlock: TEMPAE_clean_linker_10, # of connection points: 2
#     Edge 61, Type (0, 0), BuildingBlock: TEMPAE_clean_linker_10, # of connection points: 2
#     Edge 62, Type (0, 0), BuildingBlock: TEMPAE_clean_linker_10, # of connection points: 2
#     Edge 63, Type (0, 0), BuildingBlock: TEMPAE_clean_linker_10, # of connection points: 2
#     Edge 64, Type (0, 0), BuildingBlock: TEMPAE_clean_linker_10, # of connection points: 2
#     Edge 65, Type (0, 0), BuildingBlock: TEMPAE_clean_linker_10, # of connection points: 2
#     Edge 66, Type (0, 0), BuildingBlock: TEMPAE_clean_linker_10, # of connection points: 2
#     Edge 67, Type (0, 0), BuildingBlock: TEMPAE_clean_linker_10, # of connection points: 2
#     Edge 68, Type (0, 0), BuildingBlock: TEMPAE_clean_linker_10, # of connection points: 2
#     Edge 69, Type (0, 0), BuildingBlock: TEMPAE_clean_linker_10, # of connection points: 2
#     Edge 70, Type (0, 0), BuildingBlock: TEMPAE_clean_linker_10, # of connection points: 2
#     Edge 71, Type (0, 0), BuildingBlock: TEMPAE_clean_linker_10, # of connection points: 2
# Relax obj value: 0.263
# Max RMSD: 0.279
# Mean RMSD: 0.266
data_MOF--net-xfh--node1-NUHQUE_clean_sbu_2--edge1-TEMPAE_clean_linker_10
_symmetry_space_group_name_H-M    P1
_symmetry_Int_Tables_number       1
_symmetry_cell_setting            triclinic
loop_
_symmetry_equiv_pos_as_xyz
'x, y, z'
_cell_length_a     35.407814
_cell_length_b     34.326827
_cell_length_c     69.981982
_cell_angle_alpha  90.083808
_cell_angle_beta   90.058683
_cell_angle_gamma 90.134408
loop_
_atom_site_label
_atom_site_type_symbol
_atom_site_fract_x
_atom_site_fract_y
_atom_site_fract_z
_atom_type_partial_charge
O0 O 0.22986 0.06944 0.07694 0.0
Tb1 Tb 0.21362 0.06894 0.10699 0.0
Eu2 Eu 0.31393 0.08005 0.11303 0.0
C3 C 0.20591 0.0556 0.06419 0.0
O4 O 0.17372 0.04104 0.07021 0.0
C5 C 0.25158 0.14838 0.1172 0.0
O6 O 0.31658 0.06389 0.14445 0.0
C7 C 0.38284 0.08624 0.10091 0.0
C8 C 0.28787 0.06799 0.15622 0.0
O9 O 0.25611 0.08239 0.14974 0.0
C10 C 0.26818 1.00266 0.11419 0.0
C11 C 0.417 0.06158 0.09949 0.0
C12 C 0.43063 0.0507 0.08134 0.0
C13 C 0.46392 0.02866 0.07952 0.0
C14 C 0.48309 0.01729 0.09609 0.0
C15 C 0.47015 0.02812 0.1142 0.0
C16 C 0.43731 0.05044 0.11595 0.0
O17 O 0.22495 0.12332 0.12177 0.0
O18 O 0.28321 0.13736 0.1089 0.0
O19 O 0.16721 0.02794 0.11165 0.0
O20 O 0.15441 0.08761 0.10786 0.0
C21 C 0.14019 0.05334 0.11112 0.0
O22 O 0.29368 0.02054 0.10386 0.0
O23 O 0.24188 0.02309 0.12268 0.0
O24 O 0.37216 0.09677 0.11814 0.0
O25 O 0.35437 0.07738 0.08959 0.0
H26 H 0.41551 0.05975 0.06863 0.0
H27 H 0.50964 1.00172 0.09495 0.0
H28 H 0.42818 0.0595 0.13004 0.0
O29 O 0.72759 0.68394 0.37712 0.0
Tb30 Tb 0.72805 0.62078 0.38107 0.0
Eu31 Eu 0.74211 0.53011 0.36093 0.0
C32 C 0.75607 0.70444 0.38406 0.0
O33 O 0.78481 0.68558 0.39148 0.0
C34 C 0.80505 0.58086 0.37829 0.0
O35 O 0.75036 0.46466 0.36401 0.0
C36 C 0.75594 0.55802 0.32701 0.0
C37 C 0.72184 0.43986 0.36378 0.0
O38 O 0.6877 0.4531 0.36044 0.0
C39 C 0.66038 0.56639 0.36882 0.0
C40 C 0.74337 0.56781 0.3073 0.0
C41 C 0.74487 0.60701 0.301 0.0
C42 C 0.73826 0.61648 0.28167 0.0
C43 C 0.73091 0.58605 0.26875 0.0
C44 C 0.72979 0.54707 0.2746 0.0
C45 C 0.73528 0.53807 0.29395 0.0
O46 O 0.78619 0.61088 0.37163 0.0
O47 O 0.78753 0.54785 0.38134 0.0
O48 O 0.72203 0.64383 0.40987 0.0
O49 O 0.72784 0.58271 0.40638 0.0
C50 C 0.72403 0.61083 0.41876 0.0
O51 O 0.6818 0.53523 0.36994 0.0
O52 O 0.67476 0.60201 0.36779 0.0
O53 O 0.76027 0.52113 0.33161 0.0
O54 O 0.74431 0.57974 0.34132 0.0
H55 H 0.75198 0.62992 0.31106 0.0
H56 H 0.7273 0.59248 0.2537 0.0
H57 H 0.73524 0.5078 0.29834 0.0
O58 O 0.29737 0.92262 0.5707 0.0
Tb59 Tb 0.29446 0.92975 0.6016 0.0
Eu60 Eu 0.18843 0.92237 0.60173 0.0
C61 C 0.26757 0.9273 0.5597 0.0
O62 O 0.23469 0.93414 0.56765 0.0
C63 C 0.24785 0.85443 0.60536 0.0
O64 O 0.18668 0.92539 0.63402 0.0
C65 C 0.12013 0.91724 0.58808 0.0
C66 C 0.21483 0.94086 0.6437 0.0
O67 O 0.24503 0.95236 0.63444 0.0
C68 C 0.23825 1.00434 0.59889 0.0
C69 C 0.08526 0.94076 0.58537 0.0
C70 C 0.07464 0.95285 0.56684 0.0
C71 C 0.04065 0.97326 0.56375 0.0
C72 C 0.01756 0.98165 0.5795 0.0
C73 C 0.02732 0.96952 0.59795 0.0
C74 C 0.06097 0.94884 0.60085 0.0
O75 O 0.26948 0.87871 0.6149 0.0
O76 O 0.22062 0.86763 0.59442 0.0
O77 O 0.35582 0.92038 0.60108 0.0
O78 O 0.33181 0.95146 0.62424 0.0
C79 C 0.36319 0.9385 0.61703 0.0
O80 O 0.20609 0.985 0.59748 0.0
O81 O 0.27178 0.98847 0.60144 0.0
O82 O 0.12927 0.90722 0.60561 0.0
O83 O 0.14964 0.92617 0.57753 0.0
H84 H 0.09271 0.94606 0.55481 0.0
H85 H 0.99067 0.99605 0.57732 0.0
H86 H 0.06787 0.93885 0.61511 0.0
O87 O 0.81397 0.54648 0.81293 0.0
Tb88 Tb 0.81217 0.53995 0.84367 0.0
Eu89 Eu 0.81675 0.4631 0.87517 0.0
C90 C 0.81421 0.51666 0.80116 0.0
O91 O 0.81377 0.48111 0.80809 0.0
C92 C 0.88851 0.51251 0.86209 0.0
O93 O 0.80845 0.4398 0.90494 0.0
C94 C 0.81716 0.40656 0.85033 0.0
C95 C 0.80742 0.46529 0.91896 0.0
O96 O 0.81165 0.50237 0.9148 0.0
C97 C 0.74102 0.50419 0.86271 0.0
C98 C 0.79504 0.37127 0.84528 0.0
C99 C 0.79334 0.35848 0.82609 0.0
C100 C 0.77661 0.32235 0.82151 0.0
C101 C 0.76052 0.30006 0.83614 0.0
C102 C 0.76216 0.31206 0.85528 0.0
C103 C 0.77925 0.34786 0.85977 0.0
O104 O 0.87094 0.52053 0.84595 0.0
O105 O 0.8702 0.49836 0.87685 0.0
O106 O 0.80275 0.60203 0.8398 0.0
O107 O 0.81227 0.58085 0.86793 0.0
C108 C 0.80555 0.61182 0.85768 0.0
O109 O 0.76111 0.49398 0.87763 0.0
O110 O 0.75753 0.51032 0.84613 0.0
O111 O 0.83521 0.40548 0.86675 0.0
O112 O 0.80196 0.44073 0.84675 0.0
H113 H 0.80663 0.37559 0.81495 0.0
H114 H 0.74838 0.27188 0.83266 0.0
H115 H 0.78145 0.35676 0.8746 0.0
O116 O 0.80192 0.97529 0.92796 0.0
Tb117 Tb 0.81769 0.97686 0.89788 0.0
Eu118 Eu 0.72299 0.96398 0.9032 0.0
C119 C 0.80886 0.94413 0.93832 0.0
O120 O 0.82548 0.91408 0.93033 0.0
C121 C 0.78182 0.89489 0.89461 0.0
O122 O 0.72171 0.9732 0.87124 0.0
C123 C 0.65556 0.95455 0.91703 0.0
C124 C 0.717 0.94374 0.85942 0.0
O125 O 0.71355 0.90844 0.86645 0.0
C126 C 0.76214 0.04476 0.89895 0.0
C127 C 0.62167 0.97603 0.9236 0.0
C128 C 0.61301 0.97666 0.9433 0.0
C129 C 0.57887 0.99266 0.94974 0.0
C130 C 0.55413 0.00922 0.93651 0.0
C131 C 0.56139 1.00766 0.91691 0.0
C132 C 0.59545 0.99158 0.91041 0.0
O133 O 0.80538 0.91946 0.88647 0.0
O134 O 0.75463 0.90707 0.90598 0.0
O135 O 0.86402 0.99465 0.87914 0.0
O136 O 0.8756 0.98505 0.90847 0.0
C137 C 0.89016 0.99546 0.89217 0.0
O138 O 0.74167 0.0248 0.91112 0.0
O139 O 0.78607 0.02659 0.8878 0.0
O140 O 0.66297 0.95424 0.89862 0.0
O141 O 0.68603 0.95667 0.92777 0.0
H142 H 0.63187 0.96304 0.9535 0.0
H143 H 0.52782 0.02189 0.94145 0.0
H144 H 0.60049 0.98951 0.89517 0.0
O145 O 0.30011 0.5096 0.68677 0.0
Tb146 Tb 0.29262 0.50203 0.65637 0.0
Eu147 Eu 0.29534 0.43641 0.62099 0.0
C148 C 0.30444 0.47987 0.69833 0.0
O149 O 0.30434 0.44434 0.69132 0.0
C150 C 0.36713 0.48208 0.63538 0.0
O151 O 0.29679 0.4254 0.58909 0.0
C152 C 0.30476 0.37428 0.64182 0.0
C153 C 0.26708 0.43016 0.57799 0.0
O154 O 0.23426 0.43819 0.58576 0.0
C155 C 0.22058 0.46357 0.64066 0.0
C156 C 0.2846 0.34098 0.65098 0.0
C157 C 0.27836 0.33992 0.67101 0.0
C158 C 0.26161 0.30689 0.67955 0.0
C159 C 0.25207 0.27495 0.66801 0.0
C160 C 0.26023 0.27434 0.64847 0.0
C161 C 0.27565 0.30772 0.63995 0.0
O162 O 0.35123 0.4844 0.65232 0.0
O163 O 0.34693 0.47418 0.62016 0.0
O164 O 0.27796 0.56319 0.65978 0.0
O165 O 0.28845 0.54169 0.63178 0.0
C166 C 0.27941 0.57239 0.6418 0.0
O167 O 0.23696 0.46055 0.62393 0.0
O168 O 0.24114 0.46701 0.65622 0.0
O169 O 0.30641 0.37456 0.62303 0.0
O170 O 0.30091 0.40933 0.64922 0.0
H171 H 0.28692 0.36424 0.6799 0.0
H172 H 0.23986 0.24923 0.67457 0.0
H173 H 0.2825 0.30692 0.62487 0.0
O174 O 0.71713 0.0764 0.44225 0.0
Tb175 Tb 0.72372 0.07643 0.41135 0.0
Eu176 Eu 0.8046 0.07489 0.38109 0.0
C177 C 0.74601 0.08283 0.45368 0.0
O178 O 0.77946 0.08922 0.44618 0.0
C179 C 0.75694 0.15091 0.39108 0.0
O180 O 0.81826 0.0579 0.35098 0.0
C181 C 0.86661 0.08029 0.40093 0.0
C182 C 0.78953 0.05075 0.33963 0.0
O183 O 0.75517 0.05577 0.34627 0.0
C184 C 0.76095 0.99885 0.39645 0.0
C185 C 0.90227 0.0595 0.40593 0.0
C186 C 0.91016 0.05069 0.42526 0.0
C187 C 0.94541 0.03505 0.43062 0.0
C188 C 0.97198 0.02668 0.41637 0.0
C189 C 0.96535 0.03605 0.39723 0.0
C190 C 0.93057 0.05267 0.39201 0.0
O191 O 0.74788 0.13504 0.40762 0.0
O192 O 0.77107 0.12978 0.37721 0.0
O193 O 0.66225 0.08201 0.41288 0.0
O194 O 0.68678 0.06392 0.38669 0.0
C195 C 0.65503 0.07144 0.3954 0.0
O196 O 0.776 0.01671 0.38177 0.0
O197 O 0.74944 0.01818 0.41169 0.0
O198 O 0.86313 0.09279 0.38324 0.0
O199 O 0.83448 0.06789 0.40835 0.0
H200 H 0.88963 0.05776 0.4362 0.0
H201 H 0.99907 0.01433 0.42032 0.0
H202 H 0.92602 0.06084 0.37724 0.0
O203 O 0.20919 0.50088 0.20246 0.0
Tb204 Tb 0.20431 0.50044 0.17143 0.0
Eu205 Eu 0.19913 0.5754 0.13748 0.0
C206 C 0.1807 0.49155 0.21364 0.0
O207 O 0.14788 0.48302 0.20591 0.0
C208 C 0.12817 0.52522 0.15135 0.0
O209 O 0.20772 0.59116 0.10651 0.0
C210 C 0.1971 0.636 0.15984 0.0
C211 C 0.21239 0.56191 0.09456 0.0
O212 O 0.21098 0.5263 0.10141 0.0
C213 C 0.27516 0.53505 0.15092 0.0
C214 C 0.21852 0.67155 0.16539 0.0
C215 C 0.21952 0.68317 0.18479 0.0
C216 C 0.23568 0.71917 0.19008 0.0
C217 C 0.25221 0.74241 0.17596 0.0
C218 C 0.25106 0.73188 0.15664 0.0
C219 C 0.23418 0.69635 0.15137 0.0
O220 O 0.14518 0.51882 0.16787 0.0
O221 O 0.14665 0.53891 0.13655 0.0
O222 O 0.20898 0.43776 0.1761 0.0
O223 O 0.20994 0.45915 0.14761 0.0
C224 C 0.21174 0.42797 0.15819 0.0
O225 O 0.25503 0.54557 0.13611 0.0
O226 O 0.25921 0.52919 0.16767 0.0
O227 O 0.18267 0.63529 0.14249 0.0
O228 O 0.21008 0.60193 0.16547 0.0
H229 H 0.20608 0.6652 0.19555 0.0
H230 H 0.26437 0.77028 0.18 0.0
H231 H 0.23237 0.68863 0.13637 0.0
O232 O 0.72448 0.57435 0.57198 0.0
Tb233 Tb 0.71284 0.5589 0.60152 0.0
Eu234 Eu 0.81196 0.56797 0.61657 0.0
C235 C 0.70342 0.59872 0.5622 0.0
O236 O 0.676 0.61757 0.57078 0.0
C237 C 0.75081 0.63454 0.61639 0.0
O238 O 0.82109 0.57113 0.64832 0.0
C239 C 0.8755 0.56021 0.59871 0.0
C240 C 0.79177 0.56644 0.6596 0.0
O241 O 0.75809 0.56306 0.65188 0.0
C242 C 0.76481 0.48828 0.61127 0.0
C243 C 0.90835 0.53398 0.59705 0.0
C244 C 0.92342 0.52676 0.5788 0.0
C245 C 0.95678 0.50505 0.57664 0.0
C246 C 0.97369 0.48897 0.59291 0.0
C247 C 0.96005 0.49721 0.61125 0.0
C248 C 0.92726 0.5197 0.61334 0.0
O249 O 0.72491 0.60825 0.62013 0.0
O250 O 0.78323 0.62428 0.60891 0.0
O251 O 0.65231 0.56244 0.59549 0.0
O252 O 0.67113 0.52619 0.61815 0.0
C253 C 0.64163 0.5389 0.609 0.0
O254 O 0.78657 0.50904 0.62257 0.0
O255 O 0.7434 0.50446 0.59821 0.0
O256 O 0.87194 0.57973 0.61482 0.0
O257 O 0.84313 0.54785 0.59156 0.0
H258 H 0.9103 0.53999 0.5664 0.0
H259 H 0.99951 0.47228 0.59143 0.0
H260 H 0.91742 0.52708 0.62755 0.0
O261 O 0.23195 0.17923 0.88332 0.0
Tb262 Tb 0.23257 0.11553 0.885 0.0
Eu263 Eu 0.24504 0.02775 0.85745 0.0
C264 C 0.25914 0.19942 0.89166 0.0
O265 O 0.28678 0.1803 0.89994 0.0
C266 C 0.30995 0.07868 0.87435 0.0
O267 O 0.25496 0.96227 0.85995 0.0
C268 C 0.25364 0.05683 0.82332 0.0
C269 C 0.22681 0.93696 0.86041 0.0
O270 O 0.19221 0.94977 0.858 0.0
C271 C 0.165 0.06245 0.87091 0.0
C272 C 0.23812 0.06897 0.80446 0.0
C273 C 0.24531 0.10719 0.79768 0.0
C274 C 0.23608 0.11763 0.77876 0.0
C275 C 0.21801 0.09006 0.7671 0.0
C276 C 0.21169 0.05175 0.77322 0.0
C277 C 0.22165 0.04135 0.79198 0.0
O278 O 0.28949 0.11057 0.87311 0.0
O279 O 0.29432 0.04416 0.87564 0.0
O280 O 0.22291 0.13126 0.91478 0.0
O281 O 0.24114 0.07381 0.9085 0.0
C282 C 0.23197 0.09789 0.92216 0.0
O283 O 0.18639 0.03135 0.86923 0.0
O284 O 0.17917 0.09816 0.8714 0.0
O285 O 0.25581 0.01936 0.82718 0.0
O286 O 0.2469 0.07849 0.83846 0.0
H287 H 0.26004 0.12794 0.80671 0.0
H288 H 0.21109 0.09789 0.75251 0.0
H289 H 0.21775 0.01148 0.79656 0.0
O290 O 0.79804 0.41492 0.07016 0.0
Tb291 Tb 0.79323 0.43189 0.09997 0.0
Eu292 Eu 0.68537 0.42414 0.10842 0.0
C293 C 0.76832 0.41496 0.05886 0.0
O294 O 0.73496 0.42218 0.06625 0.0
C295 C 0.74769 0.35705 0.10874 0.0
O296 O 0.6734 0.42621 0.14009 0.0
C297 C 0.62244 0.42864 0.08935 0.0
C298 C 0.69109 0.40458 0.15274 0.0
O299 O 0.71393 0.37702 0.14685 0.0
C300 C 0.73702 0.50225 0.1034 0.0
C301 C 0.58615 0.44958 0.08662 0.0
C302 C 0.57364 0.45732 0.06784 0.0
C303 C 0.53706 0.4719 0.06442 0.0
C304 C 0.51356 0.47961 0.08008 0.0
C305 C 0.52531 0.47194 0.0988 0.0
C306 C 0.5617 0.45717 0.10212 0.0
O307 O 0.77227 0.3819 0.11584 0.0
O308 O 0.71673 0.36926 0.10033 0.0
O309 O 0.85501 0.42798 0.09964 0.0
O310 O 0.82893 0.4639 0.12045 0.0
C311 C 0.86121 0.45125 0.11402 0.0
O312 O 0.71116 0.48352 0.11331 0.0
O313 O 0.76192 0.48435 0.0926 0.0
O314 O 0.6265 0.40814 0.1051 0.0
O315 O 0.65396 0.44532 0.08351 0.0
H316 H 0.59171 0.45013 0.05585 0.0
H317 H 0.48539 0.49102 0.07773 0.0
H318 H 0.57025 0.45026 0.1166 0.0
O319 O 0.31018 0.04659 0.30924 0.0
Tb320 Tb 0.30686 0.04377 0.34022 0.0
Eu321 Eu 0.30955 0.97372 0.37484 0.0
C322 C 0.30248 0.01663 0.29815 0.0
O323 O 0.29293 0.98323 0.30593 0.0
C324 C 0.3824 0.01925 0.3606 0.0
O325 O 0.30089 0.95337 0.40515 0.0
C326 C 0.30949 0.9149 0.35134 0.0
C327 C 0.30182 0.97956 0.41889 0.0
O328 O 0.30781 0.01615 0.41426 0.0
C329 C 0.23455 0.01267 0.36019 0.0
C330 C 0.28579 0.88064 0.34634 0.0
C331 C 0.27814 0.87188 0.32699 0.0
C332 C 0.2583 0.83767 0.32199 0.0
C333 C 0.24664 0.81235 0.33654 0.0
C334 C 0.2543 0.82026 0.35582 0.0
C335 C 0.27347 0.85471 0.36066 0.0
O336 O 0.36551 0.02439 0.34396 0.0
O337 O 0.36335 1.00826 0.37575 0.0
O338 O 0.29834 0.10589 0.33558 0.0
O339 O 0.30675 0.08573 0.36398 0.0
C340 C 0.3007 0.11634 0.3534 0.0
O341 O 0.25433 1.00554 0.37565 0.0
O342 O 0.25149 0.0157 0.34349 0.0
O343 O 0.32586 0.91443 0.36823 0.0
O344 O 0.29693 0.94955 0.34652 0.0
H345 H 0.28814 0.89131 0.31589 0.0
H346 H 0.23367 0.78478 0.3327 0.0
H347 H 0.27979 0.86061 0.37554 0.0
O348 O 0.29818 0.47695 0.42509 0.0
Tb349 Tb 0.31333 0.4806 0.39494 0.0
Eu350 Eu 0.21859 0.46937 0.39993 0.0
C351 C 0.30631 0.4455 0.43502 0.0
O352 O 0.32351 0.41643 0.42648 0.0
C353 C 0.27616 0.39915 0.391 0.0
O354 O 0.21838 0.47979 0.36806 0.0
C355 C 0.15046 0.46273 0.41322 0.0
C356 C 0.21286 0.45098 0.35594 0.0
O357 O 0.20819 0.41554 0.3626 0.0
C358 C 0.25913 0.54917 0.39679 0.0
C359 C 0.11904 0.48735 0.42029 0.0
C360 C 0.11061 0.4875 0.43996 0.0
C361 C 0.07999 0.509 0.44704 0.0
C362 C 0.05775 0.53033 0.43428 0.0
C363 C 0.06514 0.5303 0.41461 0.0
C364 C 0.09583 0.5086 0.40762 0.0
O365 O 0.3004 0.42359 0.38327 0.0
O366 O 0.24851 0.41131 0.4021 0.0
O367 O 0.37112 0.4901 0.40543 0.0
O368 O 0.35981 0.49623 0.37584 0.0
C369 C 0.3858 0.49868 0.38891 0.0
O370 O 0.23889 0.52895 0.40893 0.0
O371 O 0.2824 0.53108 0.38529 0.0
O372 O 0.15819 0.46377 0.39485 0.0
O373 O 0.18081 0.4608 0.42405 0.0
H374 H 0.12763 0.47051 0.44976 0.0
H375 H 0.03289 0.54519 0.4396 0.0
H376 H 0.10111 0.50787 0.39237 0.0
O377 O 0.80439 0.0106 0.18955 0.0
Tb378 Tb 0.79506 1.00392 0.15927 0.0
Eu379 Eu 0.79803 0.93772 0.1237 0.0
C380 C 0.80776 0.98064 0.20104 0.0
O381 O 0.80582 0.94515 0.19405 0.0
C382 C 0.86704 0.98841 0.13636 0.0
O383 O 0.79499 0.92361 0.09215 0.0
C384 C 0.81397 0.87756 0.14493 0.0
C385 C 0.7686 0.93826 0.08099 0.0
O386 O 0.74121 0.9588 0.08858 0.0
C387 C 0.72297 0.96317 0.14449 0.0
C388 C 0.79813 0.84072 0.15285 0.0
C389 C 0.79712 0.83447 0.17291 0.0
C390 C 0.78713 0.7976 0.18028 0.0
C391 C 0.7772 0.76783 0.16753 0.0
C392 C 0.77946 0.77292 0.14779 0.0
C393 C 0.78901 0.80953 0.14044 0.0
O394 O 0.85314 0.98674 0.15373 0.0
O395 O 0.84528 0.98093 0.12168 0.0
O396 O 0.78165 0.06523 0.16344 0.0
O397 O 0.78832 0.0442 0.13507 0.0
C398 C 0.78111 0.07484 0.1455 0.0
O399 O 0.73853 0.95795 0.12767 0.0
O400 O 0.74398 0.96847 0.15978 0.0
O401 O 0.81952 0.879 0.12637 0.0
O402 O 0.80247 0.91092 0.15211 0.0
H403 H 0.80582 0.85743 0.18261 0.0
H404 H 0.76926 0.73943 0.17306 0.0
H405 H 0.79133 0.8129 0.12509 0.0
O406 O 0.22394 0.57679 0.94074 0.0
Tb407 Tb 0.23059 0.57449 0.90991 0.0
Eu408 Eu 0.30867 0.57011 0.87917 0.0
C409 C 0.25275 0.58383 0.95212 0.0
O410 O 0.28634 0.58938 0.94463 0.0
C411 C 0.26349 0.64805 0.88868 0.0
O412 O 0.32075 0.55302 0.84887 0.0
C413 C 0.37103 0.57518 0.8988 0.0
C414 C 0.29143 0.54588 0.8379 0.0
O415 O 0.25743 0.55039 0.84509 0.0
C416 C 0.26663 0.49532 0.89647 0.0
C417 C 0.40535 0.55315 0.90488 0.0
C418 C 0.40923 0.54073 0.92405 0.0
C419 C 0.4426 0.52235 0.93032 0.0
C420 C 0.47203 0.51645 0.91726 0.0
C421 C 0.4694 0.52951 0.89839 0.0
C422 C 0.43615 0.548 0.89223 0.0
O423 O 0.25468 0.63293 0.90542 0.0
O424 O 0.27674 0.62604 0.87489 0.0
O425 O 0.16921 0.57994 0.91178 0.0
O426 O 0.19313 0.56083 0.8856 0.0
C427 C 0.16158 0.56861 0.89446 0.0
O428 O 0.28004 0.51193 0.88104 0.0
O429 O 0.25611 0.51621 0.9114 0.0
O430 O 0.36827 0.5845 0.88061 0.0
O431 O 0.3382 0.56627 0.90663 0.0
H432 H 0.3866 0.54591 0.93415 0.0
H433 H 0.49832 0.50362 0.9221 0.0
H434 H 0.4347 0.55882 0.87771 0.0
O435 O 0.712 0.98574 0.70535 0.0
Tb436 Tb 0.70617 0.98431 0.67436 0.0
Eu437 Eu 0.69929 0.05751 0.63936 0.0
C438 C 0.68367 0.97696 0.71673 0.0
O439 O 0.65072 0.9682 0.70921 0.0
C440 C 0.62998 1.00738 0.65447 0.0
O441 O 0.70678 0.07641 0.60871 0.0
C442 C 0.69791 0.11596 0.66311 0.0
C443 C 0.71078 0.04839 0.596 0.0
O444 O 0.70955 0.01214 0.602 0.0
C445 C 0.77518 0.0159 0.6518 0.0
C446 C 0.71739 0.15319 0.6678 0.0
C447 C 0.72802 0.16143 0.6869 0.0
C448 C 0.74337 0.1981 0.69182 0.0
C449 C 0.74719 0.22644 0.6776 0.0
C450 C 0.73589 0.21913 0.65881 0.0
C451 C 0.72173 0.1824 0.65379 0.0
O452 O 0.64726 1.00311 0.67106 0.0
O453 O 0.64814 0.01927 0.63923 0.0
O454 O 0.71086 0.92159 0.67901 0.0
O455 O 0.70934 0.94293 0.65052 0.0
C456 C 0.71181 0.91177 0.66105 0.0
O457 O 0.75402 0.02569 0.63724 0.0
O458 O 0.76071 0.01261 0.66906 0.0
O459 O 0.67873 0.11479 0.64698 0.0
O460 O 0.71538 0.08306 0.66697 0.0
H461 H 0.72378 0.13968 0.69791 0.0
H462 H 0.75734 0.25532 0.68136 0.0
H463 H 0.71252 0.17737 0.63922 0.0
C464 C 0.22479 0.35773 0.16431 0.0
C465 C 0.21745 0.38766 0.15123 0.0
C466 C 0.23085 0.31931 0.15812 0.0
C467 C 0.22902 0.31042 0.13837 0.0
C468 C 0.22143 0.34057 0.12509 0.0
C469 C 0.21598 0.37893 0.13167 0.0
C470 C 0.23928 0.28821 0.17276 0.0
C471 C 0.21877 0.33223 0.10395 0.0
C472 C 0.2762 0.21647 0.12192 0.0
C473 C 0.24568 0.1903 0.12167 0.0
C474 C 0.27113 0.25577 0.12703 0.0
C475 C 0.23457 0.26943 0.13176 0.0
C476 C 0.20352 0.24339 0.13104 0.0
C477 C 0.20948 0.20416 0.12616 0.0
C478 C 0.30506 0.28245 0.12785 0.0
C479 C 0.16401 0.25684 0.13573 0.0
H480 H 0.22612 0.3644 0.17944 0.0
H481 H 0.21028 0.40203 0.12153 0.0
H482 H 0.21715 0.26531 0.17226 0.0
H483 H 0.2666 0.27399 0.1694 0.0
H484 H 0.2407 0.30008 0.18752 0.0
H485 H 0.21257 0.35883 0.09549 0.0
H486 H 0.24566 0.31952 0.09877 0.0
H487 H 0.19622 0.31042 0.10122 0.0
H488 H 0.3043 0.20606 0.11855 0.0
H489 H 0.18564 0.1843 0.12586 0.0
H490 H 0.30917 0.29306 0.1427 0.0
H491 H 0.30036 0.30838 0.11872 0.0
H492 H 0.33135 0.26773 0.12312 0.0
H493 H 0.16265 0.26626 0.15088 0.0
H494 H 0.14261 0.23359 0.1334 0.0
H495 H 0.15646 0.28237 0.12682 0.0
C496 C 0.43653 0.52313 0.36721 0.0
C497 C 0.42519 0.51138 0.38551 0.0
C498 C 0.47376 0.53542 0.36368 0.0
C499 C 0.50038 0.53575 0.3788 0.0
C500 C 0.48887 0.52443 0.39739 0.0
C501 C 0.45137 0.51245 0.40053 0.0
C502 C 0.48481 0.54728 0.34368 0.0
C503 C 0.51641 0.52408 0.41387 0.0
C504 C 0.60418 0.52243 0.36716 0.0
C505 C 0.61881 0.56022 0.36955 0.0
C506 C 0.56573 0.51438 0.36979 0.0
C507 C 0.54089 0.54484 0.3749 0.0
C508 C 0.55506 0.58336 0.37672 0.0
C509 C 0.59391 0.59063 0.37401 0.0
C510 C 0.5519 0.47292 0.36758 0.0
C511 C 0.52938 0.61665 0.38205 0.0
H512 H 0.41628 0.5226 0.35559 0.0
H513 H 0.44264 0.50356 0.41471 0.0
H514 H 0.49822 0.57652 0.34386 0.0
H515 H 0.50594 0.52652 0.33794 0.0
H516 H 0.46023 0.54794 0.33381 0.0
H517 H 0.50258 0.51655 0.42762 0.0
H518 H 0.53905 0.50254 0.41104 0.0
H519 H 0.53014 0.55301 0.41535 0.0
H520 H 0.62297 0.4987 0.36352 0.0
H521 H 0.60489 0.61987 0.37596 0.0
H522 H 0.52874 0.47158 0.35691 0.0
H523 H 0.54028 0.46239 0.38136 0.0
H524 H 0.57468 0.45276 0.363 0.0
H525 H 0.50502 0.61792 0.37209 0.0
H526 H 0.54424 0.64518 0.38182 0.0
H527 H 0.51785 0.61185 0.3966 0.0
C528 C 0.28586 0.79736 0.6164 0.0
C529 C 0.25258 0.81185 0.60818 0.0
C530 C 0.29028 0.75743 0.62009 0.0
C531 C 0.26049 0.73127 0.61572 0.0
C532 C 0.22716 0.74556 0.60701 0.0
C533 C 0.22371 0.78565 0.60321 0.0
C534 C 0.32649 0.7434 0.62917 0.0
C535 C 0.19457 0.71874 0.60235 0.0
C536 C 0.28268 0.62248 0.61572 0.0
C537 C 0.27267 0.61212 0.6344 0.0
C538 C 0.27836 0.66107 0.60926 0.0
C539 C 0.2632 0.68965 0.62172 0.0
C540 C 0.25203 0.67887 0.6404 0.0
C541 C 0.25717 0.64036 0.64654 0.0
C542 C 0.29098 0.67151 0.58932 0.0
C543 C 0.23531 0.70821 0.65408 0.0
H544 H 0.3085 0.81733 0.62009 0.0
H545 H 0.19789 0.79658 0.59687 0.0
H546 H 0.32059 0.73238 0.64376 0.0
H547 H 0.33842 0.71886 0.6208 0.0
H548 H 0.34809 0.76683 0.63021 0.0
H549 H 0.17171 0.73386 0.59443 0.0
H550 H 0.20447 0.6937 0.59368 0.0
H551 H 0.18262 0.70677 0.61577 0.0
H552 H 0.29477 0.60068 0.60633 0.0
H553 H 0.24919 0.6324 0.66097 0.0
H554 H 0.31457 0.69279 0.59007 0.0
H555 H 0.2676 0.68567 0.5814 0.0
H556 H 0.30054 0.64564 0.58111 0.0
H557 H 0.2565 0.7311 0.6574 0.0
H558 H 0.22606 0.69464 0.6677 0.0
H559 H 0.21069 0.72281 0.64741 0.0
C560 C 0.11568 0.5387 0.87115 0.0
C561 C 0.12272 0.56302 0.88688 0.0
C562 C 0.0784 0.53039 0.86523 0.0
C563 C 0.04748 0.54746 0.87502 0.0
C564 C 0.05471 0.57336 0.89039 0.0
C565 C 0.09211 0.58042 0.89625 0.0
C566 C 0.07206 0.50208 0.84902 0.0
C567 C 0.02283 0.59287 0.90104 0.0
C568 C 0.94814 0.54859 0.85333 0.0
C569 C 0.92988 0.51955 0.86401 0.0
C570 C 0.9866 0.55755 0.85643 0.0
C571 C 0.00756 0.53637 0.87022 0.0
C572 C 0.98955 0.50592 0.88043 0.0
C573 C 0.95098 0.49824 0.87737 0.0
C574 C 1.00437 0.59071 0.84551 0.0
C575 C 0.01082 0.48198 0.89496 0.0
H576 H 0.13925 0.525 0.86392 0.0
H577 H 0.09739 0.5994 0.90837 0.0
H578 H 0.05771 0.47559 0.8545 0.0
H579 H 0.05328 0.51509 0.83807 0.0
H580 H 0.09892 0.49325 0.84208 0.0
H581 H 0.0332 0.6148 0.9115 0.0
H582 H 1.00348 0.60746 0.89084 0.0
H583 H 1.00609 0.57065 0.90884 0.0
H584 H 0.93201 0.56536 0.84307 0.0
H585 H 0.93724 0.47549 0.88556 0.0
H586 H 0.03072 0.58091 0.83844 0.0
H587 H 0.0122 0.6144 0.85558 0.0
H588 H 0.98508 0.60279 0.83449 0.0
H589 H 0.03711 0.47025 0.88857 0.0
H590 H 0.99371 0.45727 0.90048 0.0
H591 H 0.01916 0.50068 0.9072 0.0
C592 C 0.81156 0.66239 0.88349 0.0
C593 C 0.8017 0.65223 0.86474 0.0
C594 C 0.80905 0.7013 0.88978 0.0
C595 C 0.79588 0.73042 0.87707 0.0
C596 C 0.78529 0.72 0.85823 0.0
C597 C 0.78858 0.68114 0.85228 0.0
C598 C 0.82097 0.71137 0.9099 0.0
C599 C 0.77064 0.74996 0.84429 0.0
C600 C 0.75673 0.82658 0.8954 0.0
C601 C 0.78633 0.85246 0.89123 0.0
C602 C 0.75981 0.7866 0.89136 0.0
C603 C 0.79352 0.77199 0.88319 0.0
C604 C 0.82396 0.79777 0.87954 0.0
C605 C 0.8199 0.8377 0.88346 0.0
C606 C 0.72649 0.76023 0.8952 0.0
C607 C 0.86053 0.7833 0.87105 0.0
H608 H 0.8218 0.64007 0.89312 0.0
H609 H 0.78077 0.67336 0.83778 0.0
H610 H 0.84456 0.73269 0.90954 0.0
H611 H 0.79726 0.72536 0.91764 0.0
H612 H 0.83021 0.68535 0.91807 0.0
H613 H 0.76243 0.73685 0.83036 0.0
H614 H 0.74571 0.76501 0.8504 0.0
H615 H 0.79259 0.77243 0.84167 0.0
H616 H 0.73063 0.83772 0.90134 0.0
H617 H 0.84305 0.8574 0.88035 0.0
H618 H 0.7353 0.73504 0.90404 0.0
H619 H 0.71554 0.74844 0.8815 0.0
H620 H 0.70316 0.77564 0.90263 0.0
H621 H 0.87152 0.75844 0.8795 0.0
H622 H 0.88253 0.80641 0.87054 0.0
H623 H 0.85546 0.7726 0.85631 0.0
C624 C 0.42702 0.47224 0.61733 0.0
C625 C 0.40827 0.4883 0.63312 0.0
C626 C 0.46562 0.47903 0.61428 0.0
C627 C 0.48588 0.50317 0.62712 0.0
C628 C 0.46725 0.5191 0.64325 0.0
C629 C 0.42869 0.5111 0.64618 0.0
C630 C 0.48455 0.46082 0.59713 0.0
C631 C 0.48774 0.54555 0.65707 0.0
C632 C 0.59331 0.49878 0.62606 0.0
C633 C 0.602 0.52974 0.61379 0.0
C634 C 0.55562 0.48987 0.63065 0.0
C635 C 0.52611 0.51302 0.62309 0.0
C636 C 0.53491 0.54478 0.61097 0.0
C637 C 0.57275 0.55248 0.6063 0.0
C638 C 0.54735 0.4553 0.6433 0.0
C639 C 0.50435 0.57053 0.60284 0.0
H640 H 0.41147 0.45424 0.60729 0.0
H641 H 0.41426 0.52372 0.65836 0.0
H642 H 0.49407 0.48395 0.58717 0.0
H643 H 0.50999 0.44442 0.60167 0.0
H644 H 0.46544 0.44071 0.58926 0.0
H645 H 0.46958 0.55456 0.66922 0.0
H646 H 0.51315 0.53077 0.6628 0.0
H647 H 0.49755 0.57207 0.64948 0.0
H648 H 0.61596 0.48115 0.63184 0.0
H649 H 0.57947 0.57664 0.59693 0.0
H650 H 0.52968 0.43389 0.63542 0.0
H651 H 0.53103 0.46467 0.65601 0.0
H652 H 0.57351 0.44053 0.6482 0.0
H653 H 0.48561 0.55321 0.59336 0.0
H654 H 0.51604 0.5953 0.59451 0.0
H655 H 0.48659 0.58232 0.61455 0.0
C656 C 0.74084 0.21885 0.40259 0.0
C657 C 0.75223 0.1937 0.38785 0.0
C658 C 0.73637 0.25919 0.39938 0.0
C659 C 0.74317 0.27487 0.38094 0.0
C660 C 0.75466 0.24962 0.36603 0.0
C661 C 0.75912 0.2096 0.36966 0.0
C662 C 0.72424 0.28504 0.4157 0.0
C663 C 0.76197 0.26483 0.34613 0.0
C664 C 0.69744 0.37118 0.36649 0.0
C665 C 0.72762 0.39765 0.36806 0.0
C666 C 0.70202 0.33141 0.37082 0.0
C667 C 0.73762 0.31748 0.37702 0.0
C668 C 0.76816 0.34406 0.37875 0.0
C669 C 0.76286 0.3837 0.3742 0.0
C670 C 0.66874 0.30419 0.36857 0.0
C671 C 0.80655 0.33059 0.38537 0.0
H672 H 0.73547 0.20707 0.41669 0.0
H673 H 0.76781 0.19066 0.35808 0.0
H674 H 0.74534 0.30856 0.41793 0.0
H675 H 0.69699 0.29923 0.41219 0.0
H676 H 0.72088 0.26864 0.42927 0.0
H677 H 0.77102 0.2415 0.33613 0.0
H678 H 0.736 0.27854 0.34038 0.0
H679 H 0.7842 0.28764 0.34655 0.0
H680 H 0.67006 0.38149 0.36178 0.0
H681 H 0.78634 0.40381 0.37558 0.0
H682 H 0.66288 0.28923 0.38229 0.0
H683 H 0.67542 0.28133 0.35787 0.0
H684 H 0.64276 0.31962 0.36393 0.0
H685 H 0.80413 0.31614 0.39949 0.0
H686 H 0.82708 0.35499 0.38658 0.0
H687 H 0.81792 0.30874 0.37521 0.0
C688 C 0.90347 0.49067 0.1356 0.0
C689 C 0.89914 0.46155 0.12168 0.0
C690 C 0.93957 0.50146 0.14236 0.0
C691 C 0.97213 0.48242 0.13518 0.0
C692 C 0.96768 0.45227 0.12148 0.0
C693 C 0.93136 0.44239 0.11484 0.0
C694 C 0.94293 0.53399 0.15679 0.0
C695 C 1.00143 0.43097 0.11348 0.0
C696 C 0.06737 0.53407 0.13361 0.0
C697 C 0.08712 0.51671 0.14879 0.0
C698 C 0.02968 0.5242 0.12954 0.0
C699 C 0.01099 0.49581 0.14076 0.0
C700 C 0.03032 0.47894 0.15648 0.0
C701 C 0.06807 0.48976 0.16039 0.0
C702 C 0.01023 0.54341 0.11281 0.0
C703 C 0.01158 0.44839 0.16873 0.0
H704 H 0.87867 0.50557 0.14095 0.0
H705 H 0.92821 0.4197 0.10416 0.0
H706 H 0.95959 0.52422 0.16933 0.0
H707 H 0.95827 0.55894 0.15035 0.0
H708 H 0.91492 0.54432 0.16182 0.0
H709 H 0.99311 0.40649 0.10395 0.0
H710 H 0.0193 0.4515 0.10522 0.0
H711 H 0.01903 0.41931 0.12527 0.0
H712 H 0.08159 0.55523 0.12464 0.0
H713 H 0.08308 0.47606 0.17208 0.0
H714 H 0.98291 0.55612 0.1174 0.0
H715 H 1.00393 0.52132 0.10166 0.0
H716 H 0.02771 0.56682 0.10632 0.0
H717 H 0.98395 0.45907 0.174 0.0
H718 H 0.02929 0.44006 0.18118 0.0
H719 H 1.00597 0.42195 0.16003 0.0
C720 C 0.71374 0.86326 0.63431 0.0
C721 C 0.71634 0.87149 0.65389 0.0
C722 C 0.7185 0.82505 0.62743 0.0
C723 C 0.72649 0.79453 0.64043 0.0
C724 C 0.72916 0.80282 0.66022 0.0
C725 C 0.72383 0.84115 0.66671 0.0
C726 C 0.71503 0.81735 0.60626 0.0
C727 C 0.738 0.77125 0.67454 0.0
C728 C 0.70808 0.68872 0.62682 0.0
C729 C 0.74436 0.67584 0.62184 0.0
C730 C 0.70171 0.72746 0.63247 0.0
C731 C 0.73241 0.75393 0.6334 0.0
C732 C 0.76904 0.7412 0.62823 0.0
C733 C 0.77452 0.70242 0.6224 0.0
C734 C 0.66216 0.73998 0.63765 0.0
C735 C 0.8026 0.76836 0.62922 0.0
H736 H 0.70789 0.88668 0.62437 0.0
H737 H 0.72597 0.84745 0.68186 0.0
H738 H 0.74197 0.80549 0.60068 0.0
H739 H 0.69287 0.79509 0.60359 0.0
H740 H 0.70788 0.84407 0.59809 0.0
H741 H 0.73929 0.78253 0.68941 0.0
H742 H 0.7162 0.74803 0.67383 0.0
H743 H 0.76551 0.75759 0.67104 0.0
H744 H 0.68455 0.66849 0.6263 0.0
H745 H 0.80267 0.69276 0.61864 0.0
H746 H 0.65384 0.76565 0.62901 0.0
H747 H 0.66119 0.7489 0.65288 0.0
H748 H 0.64109 0.71641 0.63533 0.0
H749 H 0.79746 0.79448 0.62029 0.0
H750 H 0.82908 0.75421 0.62434 0.0
H751 H 0.80665 0.77858 0.64414 0.0
C752 C 0.10852 0.0186 0.86959 0.0
C753 C 0.12353 0.05603 0.87266 0.0
C754 C 0.07015 0.01052 0.87257 0.0
C755 C 0.0458 0.04059 0.87877 0.0
C756 C 0.06041 0.0787 0.88149 0.0
C757 C 0.09912 0.08601 0.87839 0.0
C758 C 0.05584 0.9695 0.86941 0.0
C759 C 0.03527 0.11156 0.88802 0.0
C760 C 0.94096 0.02159 0.871 0.0
C761 C 0.9297 1.00794 0.88899 0.0
C762 C 0.97836 0.03354 0.86763 0.0
C763 C 1.00523 0.03159 0.8826 0.0
C764 C 0.99382 0.01833 0.9009 0.0
C765 C 0.95615 1.00675 0.90388 0.0
C766 C 0.98928 0.04751 0.84795 0.0
C767 C 0.02162 0.01555 0.91721 0.0
H768 H 0.12689 0.99516 0.86504 0.0
H769 H 0.11037 0.11497 0.88086 0.0
H770 H 0.04423 0.95771 0.88294 0.0
H771 H 0.03254 0.96955 0.8588 0.0
H772 H 0.07832 0.94957 0.86426 0.0
H773 H 0.05057 0.13981 0.88877 0.0
H774 H 0.01094 0.11468 0.87814 0.0
H775 H 0.02365 0.10484 0.90236 0.0
H776 H 0.92051 0.0228 0.85947 0.0
H777 H 0.94749 0.99636 0.91783 0.0
H778 H 0.01007 0.02718 0.84157 0.0
H779 H 1.00305 0.07652 0.84888 0.0
H780 H 0.96458 0.04962 0.8382 0.0
H781 H 0.04386 0.99401 0.91365 0.0
H782 H 0.00789 1.00662 0.93078 0.0
H783 H 0.03584 0.04403 0.91945 0.0
C784 C 0.78139 0.12504 0.11942 0.0
C785 C 0.77469 0.11495 0.13852 0.0
C786 C 0.77714 0.16378 0.11318 0.0
C787 C 0.76552 0.19287 0.12632 0.0
C788 C 0.758 0.1825 0.14552 0.0
C789 C 0.76289 0.14377 0.15139 0.0
C790 C 0.78573 0.17374 0.09264 0.0
C791 C 0.74516 0.21242 0.15995 0.0
C792 C 0.78765 0.30025 0.11859 0.0
C793 C 0.75286 0.31465 0.11212 0.0
C794 C 0.79255 0.26045 0.12257 0.0
C795 C 0.76181 0.23438 0.12026 0.0
C796 C 0.72683 0.24858 0.11338 0.0
C797 C 0.72284 0.28846 0.10929 0.0
C798 C 0.83043 0.24646 0.12969 0.0
C799 C 0.69323 0.22187 0.11091 0.0
H800 H 0.79065 0.10281 0.10947 0.0
H801 H 0.75756 0.13607 0.16616 0.0
H802 H 0.76081 0.18759 0.08588 0.0
H803 H 0.80923 0.19514 0.09205 0.0
H804 H 0.79371 0.14769 0.08413 0.0
H805 H 0.73923 0.19936 0.17416 0.0
H806 H 0.7672 0.23517 0.16172 0.0
H807 H 0.71921 0.22713 0.15479 0.0
H808 H 0.81112 0.32015 0.12066 0.0
H809 H 0.69582 0.29923 0.10432 0.0
H810 H 0.84038 0.22165 0.12086 0.0
H811 H 0.82768 0.23581 0.14458 0.0
H812 H 0.85221 0.2698 0.12938 0.0
H813 H 0.70082 0.19667 0.10177 0.0
H814 H 0.66864 0.23698 0.10443 0.0
H815 H 0.68461 0.21013 0.12502 0.0
C816 C 0.58562 0.08437 0.39643 0.0
C817 C 0.61638 0.06641 0.38743 0.0
C818 C 0.54837 0.07794 0.39012 0.0
C819 C 0.5414 0.052 0.37473 0.0
C820 C 0.57249 0.03433 0.36534 0.0
C821 C 0.60964 0.04211 0.37166 0.0
C822 C 0.51635 0.09814 0.40033 0.0
C823 C 0.56645 1.00588 0.34916 0.0
C824 C 0.44415 1.00425 0.37636 0.0
C825 C 0.42386 0.02548 0.36265 0.0
C826 C 0.4827 0.01141 0.37973 0.0
C827 C 0.50152 0.04136 0.36955 0.0
C828 C 0.48137 0.06245 0.35541 0.0
C829 C 0.44292 0.05391 0.35195 0.0
C830 C 0.50307 0.98748 0.3946 0.0
C831 C 0.49998 0.09515 0.34451 0.0
H832 H 0.59067 0.10335 0.40857 0.0
H833 H 0.6333 0.02796 0.36473 0.0
H834 H 0.49759 0.11274 0.38985 0.0
H835 H 0.49904 0.07635 0.40809 0.0
H836 H 0.52661 0.12019 0.41076 0.0
H837 H 0.59347 0.99657 0.34253 0.0
H838 H 0.55154 0.97967 0.35459 0.0
H839 H 0.54829 0.01897 0.33797 0.0
H840 H 0.42974 0.98198 0.38457 0.0
H841 H 0.42738 0.07063 0.34144 0.0
H842 H 0.51103 1.00629 0.40687 0.0
H843 H 0.52953 0.97538 0.38856 0.0
H844 H 0.48547 0.96304 0.40001 0.0
H845 H 0.50756 0.11901 0.35453 0.0
H846 H 0.48133 0.10715 0.33319 0.0
H847 H 0.52656 0.08493 0.33782 0.0
C848 C 0.30516 0.16702 0.37917 0.0
C849 C 0.29676 0.1569 0.36023 0.0
C850 C 0.3022 0.20588 0.38544 0.0
C851 C 0.29009 0.23506 0.3725 0.0
C852 C 0.28105 0.22473 0.35344 0.0
C853 C 0.28474 0.18586 0.34752 0.0
C854 C 0.31249 0.21583 0.4058 0.0
C855 C 0.26759 0.25478 0.33924 0.0
C856 C 0.25021 0.33112 0.39063 0.0
C857 C 0.28038 0.3568 0.38729 0.0
C858 C 0.25322 0.29126 0.38627 0.0
C859 C 0.2874 0.27659 0.37865 0.0
C860 C 0.31832 0.30217 0.3758 0.0
C861 C 0.31434 0.34197 0.38001 0.0
C862 C 0.21942 0.26507 0.38927 0.0
C863 C 0.3554 0.28762 0.36792 0.0
H864 H 0.31452 0.14466 0.38901 0.0
H865 H 0.27806 0.1781 0.33288 0.0
H866 H 0.33605 0.2372 0.40597 0.0
H867 H 0.28816 0.22971 0.41307 0.0
H868 H 0.32111 0.18977 0.41412 0.0
H869 H 0.26052 0.24175 0.32514 0.0
H870 H 0.2422 0.26983 0.34485 0.0
H871 H 0.28976 0.27724 0.33712 0.0
H872 H 0.22381 0.34233 0.39618 0.0
H873 H 0.33792 0.36152 0.37755 0.0
H874 H 0.22728 0.23979 0.39827 0.0
H875 H 0.20969 0.25341 0.37531 0.0
H876 H 0.19552 0.28057 0.39616 0.0
H877 H 0.36572 0.2627 0.37653 0.0
H878 H 0.37749 0.31065 0.36781 0.0
H879 H 0.3513 0.27698 0.35309 0.0
C880 C 0.92125 1.00073 0.11439 0.0
C881 C 0.90711 0.99887 0.1331 0.0
C882 C 0.95907 0.0104 0.11085 0.0
C883 C 0.98344 0.01843 0.1264 0.0
C884 C 0.96939 0.01684 0.14533 0.0
C885 C 0.93134 1.00706 0.14846 0.0
C886 C 0.973 0.01174 0.09046 0.0
C887 C 0.99462 0.02523 0.16225 0.0
C888 C 0.08851 1.00611 0.1178 0.0
C889 C 0.10007 0.04464 0.11473 0.0
C890 C 0.05066 0.99721 0.12179 0.0
C891 C 0.02383 0.02766 0.12277 0.0
C892 C 0.03541 0.06668 0.11972 0.0
C893 C 0.07348 0.07471 0.11568 0.0
C894 C 0.03936 0.95523 0.12485 0.0
C895 C 0.00759 0.09988 0.12067 0.0
H896 H 0.90277 0.99452 0.1024 0.0
H897 H 0.92063 1.00575 0.16295 0.0
H898 H 0.98486 0.04095 0.08727 0.0
H899 H 0.99606 0.99029 0.08846 0.0
H900 H 0.95026 1.00528 0.07997 0.0
H901 H 0.97918 0.0235 0.17604 0.0
H902 H 0.01829 1.00412 0.16258 0.0
H903 H 0.00718 0.05473 0.1609 0.0
H904 H 0.10911 0.98283 0.11711 0.0
H905 H 0.08248 0.10454 0.11338 0.0
H906 H 0.0181 0.94643 0.114 0.0
H907 H 0.02603 0.95179 0.13908 0.0
H908 H 0.0638 0.93508 0.12389 0.0
H909 H 0.9853 0.09581 0.10969 0.0
H910 H 0.02129 0.12864 0.11837 0.0
H911 H 0.99341 0.10015 0.13481 0.0
C912 C 0.24879 0.71667 0.89979 0.0
C913 C 0.25926 0.69088 0.88513 0.0
C914 C 0.24452 0.75697 0.89631 0.0
C915 C 0.25055 0.77204 0.87767 0.0
C916 C 0.26123 0.74615 0.86286 0.0
C917 C 0.26555 0.70616 0.86676 0.0
C918 C 0.2333 0.78342 0.91257 0.0
C919 C 0.26767 0.76063 0.84276 0.0
C920 C 0.20345 0.8679 0.8634 0.0
C921 C 0.23345 0.89472 0.86449 0.0
C922 C 0.20861 0.82818 0.86772 0.0
C923 C 0.24464 0.81457 0.87346 0.0
C924 C 0.27505 0.84147 0.87464 0.0
C925 C 0.26916 0.88107 0.87009 0.0
C926 C 0.17541 0.8007 0.86605 0.0
C927 C 0.31388 0.82841 0.88077 0.0
H928 H 0.24391 0.70542 0.91404 0.0
H929 H 0.27354 0.68674 0.85523 0.0
H930 H 0.25441 0.80714 0.91423 0.0
H931 H 0.20577 0.79733 0.90935 0.0
H932 H 0.23086 0.76757 0.92634 0.0
H933 H 0.27644 0.73696 0.83288 0.0
H934 H 0.24139 0.77397 0.83715 0.0
H935 H 0.28978 0.78358 0.84273 0.0
H936 H 0.17571 0.87792 0.85911 0.0
H937 H 0.29252 0.90143 0.87111 0.0
H938 H 0.17014 0.78629 0.87997 0.0
H939 H 0.18181 0.77743 0.85552 0.0
H940 H 0.14917 0.81579 0.86152 0.0
H941 H 0.31238 0.81459 0.89508 0.0
H942 H 0.33439 0.85292 0.88139 0.0
H943 H 0.32468 0.80613 0.87068 0.0
C944 C 0.40623 0.97168 0.64034 0.0
C945 C 0.40133 0.94557 0.6251 0.0
C946 C 0.44248 0.98099 0.64726 0.0
C947 C 0.47463 0.96338 0.63889 0.0
C948 C 0.46965 0.93576 0.624 0.0
C949 C 0.43309 0.92742 0.61719 0.0
C950 C 0.44645 0.01095 0.66295 0.0
C951 C 0.50305 0.91595 0.61481 0.0
C952 C 0.56842 0.01736 0.63791 0.0
C953 C 0.58911 0.99855 0.65229 0.0
C954 C 0.53088 1.00702 0.63391 0.0
C955 C 0.51351 0.97655 0.64432 0.0
C956 C 0.53385 0.95807 0.65925 0.0
C957 C 0.57138 0.96954 0.66318 0.0
C958 C 0.51017 0.02811 0.61814 0.0
C959 C 0.5165 0.92521 0.67055 0.0
H960 H 0.38173 0.9858 0.64651 0.0
H961 H 0.42942 0.90704 0.60548 0.0
H962 H 0.46445 0.99956 0.67464 0.0
H963 H 0.46058 0.03735 0.65722 0.0
H964 H 0.4187 0.01959 0.669 0.0
H965 H 0.49431 0.89255 0.60474 0.0
H966 H 0.52004 0.93771 0.60683 0.0
H967 H 0.52165 0.90315 0.62591 0.0
H968 H 0.58182 0.04006 0.62954 0.0
H969 H 0.58731 0.95469 0.67421 0.0
H970 H 0.48289 0.03956 0.62353 0.0
H971 H 0.50365 1.00752 0.60635 0.0
H972 H 0.52684 0.05275 0.61223 0.0
H973 H 0.48888 0.93426 0.67653 0.0
H974 H 0.53502 0.9155 0.68244 0.0
H975 H 0.5111 0.90003 0.66095 0.0
C976 C 0.24198 0.053 0.95006 0.0
C977 C 0.2319 0.08966 0.94292 0.0
C978 C 0.24106 0.04537 0.96984 0.0
C979 C 0.22968 0.07509 0.98269 0.0
C980 C 0.22017 0.11233 0.9755 0.0
C981 C 0.22143 0.11913 0.95574 0.0
C982 C 0.25155 1.00536 0.97695 0.0
C983 C 0.20771 0.14482 0.98863 0.0
C984 C 0.18454 0.04936 0.03027 0.0
C985 C 0.21342 0.05827 0.04334 0.0
C986 C 0.18988 0.05368 0.01052 0.0
C987 C 0.22515 0.06687 1.00352 0.0
C988 C 0.25488 0.07473 0.01657 0.0
C989 C 0.2486 0.07057 0.03635 0.0
C990 C 0.15727 0.04538 0.99717 0.0
C991 C 0.29302 0.08846 0.00967 0.0
H992 H 0.25026 0.03021 0.94019 0.0
H993 H 0.21378 0.1476 0.95031 0.0
H994 H 0.27355 1.00765 0.98821 0.0
H995 H 0.22652 0.99124 0.98351 0.0
H996 H 0.2622 0.98629 0.96531 0.0
H997 H 0.20284 0.17255 0.98085 0.0
H998 H 0.18115 0.13638 0.99595 0.0
H999 H 0.22931 0.14997 0.99985 0.0
H1000 H 0.15723 0.03984 0.03548 0.0
H1001 H 0.27114 0.07729 0.04632 0.0
H1002 H 0.16589 0.02422 0.98602 0.0
H1003 H 0.14883 0.07259 0.98978 0.0
H1004 H 0.13225 0.03353 0.00479 0.0
H1005 H 0.30387 0.06852 0.99847 0.0
H1006 H 0.31406 0.09017 0.02143 0.0
H1007 H 0.2903 0.11773 1.00312 0.0
C1008 C 0.69665 0.4883 0.26098 0.0
C1009 C 0.72539 0.51633 0.25981 0.0
C1010 C 0.68884 0.46346 0.24541 0.0
C1011 C 0.71028 0.46699 0.22839 0.0
C1012 C 0.74084 0.49362 0.22769 0.0
C1013 C 0.74807 0.51777 0.24341 0.0
C1014 C 0.65643 0.43502 0.24681 0.0
C1015 C 0.76461 0.49832 0.20992 0.0
C1016 C 0.71223 0.39603 0.18675 0.0
C1017 C 0.69019 0.41588 0.17323 0.0
C1018 C 0.71672 0.41065 0.20541 0.0
C1019 C 0.69903 0.44608 0.21058 0.0
C1020 C 0.67459 0.46464 0.19741 0.0
C1021 C 0.67035 0.44924 0.17895 0.0
C1022 C 0.74247 0.3896 0.21912 0.0
C1023 C 0.65514 0.50248 0.2023 0.0
H1024 H 0.67913 0.48712 0.27366 0.0
H1025 H 0.77074 0.53901 0.24263 0.0
H1026 H 0.63238 0.44576 0.23813 0.0
H1027 H 0.66464 0.40617 0.241 0.0
H1028 H 0.64667 0.43129 0.26178 0.0
H1029 H 0.7888 0.51848 0.21216 0.0
H1030 H 0.77573 0.4697 0.20522 0.0
H1031 H 0.7469 0.50991 0.19813 0.0
H1032 H 0.72738 0.37 0.18255 0.0
H1033 H 0.65296 0.46464 0.1687 0.0
H1034 H 0.72987 0.38854 0.23362 0.0
H1035 H 0.76965 0.40559 0.22025 0.0
H1036 H 0.7485 0.35939 0.21431 0.0
H1037 H 0.64082 0.50028 0.21635 0.0
H1038 H 0.63396 0.51092 0.19135 0.0
H1039 H 0.6765 0.52611 0.20341 0.0
C1040 C 0.3073 0.9246 0.53005 0.0
C1041 C 0.27166 0.9286 0.53858 0.0
C1042 C 0.3121 0.9295 0.51026 0.0
C1043 C 0.2805 0.9386 0.49868 0.0
C1044 C 0.24422 0.94113 0.50709 0.0
C1045 C 0.24023 0.93611 0.52691 0.0
C1046 C 0.35125 0.92647 0.50187 0.0
C1047 C 0.20978 0.95068 0.49526 0.0
C1048 C 0.29824 0.9972 0.45352 0.0
C1049 C 0.29628 0.96857 0.43922 0.0
C1050 C 0.29316 0.98775 0.47285 0.0
C1051 C 0.28587 0.94864 0.47811 0.0
C1052 C 0.28379 0.91952 0.46377 0.0
C1053 C 0.28905 0.92982 0.44448 0.0
C1054 C 0.29564 0.01971 0.48767 0.0
C1055 C 0.276 0.87753 0.46881 0.0
H1056 H 0.33174 0.91867 0.53891 0.0
H1057 H 0.21254 0.93909 0.53332 0.0
H1058 H 0.35121 0.90625 0.48949 0.0
H1059 H 0.36037 0.95544 0.49655 0.0
H1060 H 0.37231 0.91613 0.51248 0.0
H1061 H 0.18323 0.94841 0.50363 0.0
H1062 H 0.21223 0.9808 0.48965 0.0
H1063 H 0.20782 0.93084 0.48277 0.0
H1064 H 0.30382 0.02722 0.44964 0.0
H1065 H 0.28745 0.90751 0.43354 0.0
H1066 H 0.31833 0.01302 0.4981 0.0
H1067 H 0.26876 0.02148 0.49575 0.0
H1068 H 0.30153 0.04866 0.48123 0.0
H1069 H 0.29809 0.86665 0.4787 0.0
H1070 H 0.2752 0.85839 0.456 0.0
H1071 H 0.24856 0.87515 0.47637 0.0
C1072 C 0.8137 0.56193 0.77325 0.0
C1073 C 0.81372 0.52364 0.78027 0.0
C1074 C 0.81175 0.56944 0.7536 0.0
C1075 C 0.80984 0.53792 0.74059 0.0
C1076 C 0.81056 0.49916 0.74752 0.0
C1077 C 0.81247 0.49247 0.76731 0.0
C1078 C 0.81095 0.61117 0.74677 0.0
C1079 C 0.80862 0.4648 0.73406 0.0
C1080 C 0.76497 0.55685 0.69225 0.0
C1081 C 0.7967 0.56098 0.68043 0.0
C1082 C 0.76891 0.54928 0.71183 0.0
C1083 C 0.80547 0.54565 0.71981 0.0
C1084 C 0.83765 0.55011 0.70801 0.0
C1085 C 0.83289 0.55783 0.68845 0.0
C1086 C 0.73389 0.545 0.72397 0.0
C1087 C 0.87708 0.54642 0.71603 0.0
H1088 H 0.81475 0.58624 0.78314 0.0
H1089 H 0.81255 0.46282 0.7726 0.0
H1090 H 0.83399 0.6163 0.73634 0.0
H1091 H 0.78388 0.61699 0.73931 0.0
H1092 H 0.81402 0.63236 0.75869 0.0
H1093 H 0.81094 0.43652 0.74167 0.0
H1094 H 0.7815 0.46526 0.72611 0.0
H1095 H 0.83163 0.46671 0.72335 0.0
H1096 H 0.7369 0.55925 0.68617 0.0
H1097 H 0.85754 0.56079 0.6794 0.0
H1098 H 0.7342 0.56693 0.73563 0.0
H1099 H 0.73341 0.51583 0.73076 0.0
H1100 H 0.70751 0.54868 0.71556 0.0
H1101 H 0.88154 0.5683 0.7275 0.0
H1102 H 0.89915 0.55057 0.70494 0.0
H1103 H 0.88078 0.51724 0.72256 0.0
C1104 C 0.80726 0.92874 0.05146 0.0
C1105 C 0.77201 0.93557 0.05992 0.0
C1106 C 0.81173 0.92995 0.03152 0.0
C1107 C 0.78 0.93722 0.01971 0.0
C1108 C 0.74408 0.94288 0.02814 0.0
C1109 C 0.7406 0.94244 0.04816 0.0
C1110 C 0.85066 0.92452 0.02314 0.0
C1111 C 0.70938 0.94975 0.01605 0.0
C1112 C 0.79853 0.97707 0.96981 0.0
C1113 C 0.79898 0.94289 0.95885 0.0
C1114 C 0.79206 0.97572 0.98962 0.0
C1115 C 0.78472 0.93944 0.99855 0.0
C1116 C 0.78358 0.90505 0.98736 0.0
C1117 C 0.7913 0.90712 0.9677 0.0
C1118 C 0.79437 0.01294 1.00109 0.0
C1119 C 0.77472 0.86599 0.99619 0.0
H1120 H 0.83172 0.92381 0.06046 0.0
H1121 H 0.71325 0.94762 0.05461 0.0
H1122 H 0.85069 0.89942 0.01315 0.0
H1123 H 0.85872 0.95072 0.0148 0.0
H1124 H 0.87246 0.91947 0.03429 0.0
H1125 H 0.68321 0.95149 0.02475 0.0
H1126 H 0.7125 0.97731 0.00794 0.0
H1127 H 0.70611 0.92593 0.00543 0.0
H1128 H 0.80463 1.00474 0.96301 0.0
H1129 H 0.79121 0.88067 0.95921 0.0
H1130 H 0.81744 0.01068 0.01178 0.0
H1131 H 0.76773 0.0176 0.00908 0.0
H1132 H 0.79973 0.03882 0.99196 0.0
H1133 H 0.79743 0.85779 0.00634 0.0
H1134 H 0.77196 0.84257 0.9853 0.0
H1135 H 0.74803 0.86765 0.00445 0.0
C1136 C 0.30895 0.52515 0.72608 0.0
C1137 C 0.30754 0.48683 0.71912 0.0
C1138 C 0.30927 0.53282 0.74572 0.0
C1139 C 0.30816 0.5014 0.75877 0.0
C1140 C 0.30806 0.46258 0.75189 0.0
C1141 C 0.30774 0.45572 0.73209 0.0
C1142 C 0.30939 0.57464 0.7525 0.0
C1143 C 0.30701 0.42837 0.76541 0.0
C1144 C 0.33217 0.52694 0.81017 0.0
C1145 C 0.29611 0.53271 0.81793 0.0
C1146 C 0.33661 0.51535 0.79105 0.0
C1147 C 0.30424 0.50959 0.7795 0.0
C1148 C 0.26779 0.51449 0.7874 0.0
C1149 C 0.26418 0.52595 0.80652 0.0
C1150 C 0.3759 0.51025 0.78308 0.0
C1151 C 0.23257 0.50875 0.77551 0.0
H1152 H 0.3091 0.54938 0.71617 0.0
H1153 H 0.30679 0.42604 0.72681 0.0
H1154 H 0.28256 0.58104 0.76005 0.0
H1155 H 0.33272 0.5795 0.76283 0.0
H1156 H 0.31256 0.59563 0.74054 0.0
H1157 H 0.31025 0.4001 0.75784 0.0
H1158 H 0.32974 0.4311 0.77625 0.0
H1159 H 0.27972 0.42808 0.77318 0.0
H1160 H 0.35695 0.53186 0.81895 0.0
H1161 H 0.2362 0.53013 0.81244 0.0
H1162 H 0.38129 0.53262 0.77198 0.0
H1163 H 0.37855 0.48134 0.77611 0.0
H1164 H 0.398 0.5129 0.79429 0.0
H1165 H 0.23182 0.53064 0.76386 0.0
H1166 H 0.20634 0.51162 0.78409 0.0
H1167 H 0.23278 0.47954 0.76871 0.0
C1168 C 0.7151 0.09457 0.56811 0.0
C1169 C 0.71679 0.05654 0.57538 0.0
C1170 C 0.72017 0.10182 0.54846 0.0
C1171 C 0.72725 0.07032 0.53584 0.0
C1172 C 0.72941 0.032 0.54317 0.0
C1173 C 0.7241 0.02561 0.56277 0.0
C1174 C 0.71762 0.14308 0.54117 0.0
C1175 C 0.73707 0.99758 0.53027 0.0
C1176 C 0.705 0.07675 0.48273 0.0
C1177 C 0.74101 0.08192 0.47476 0.0
C1178 C 0.69998 0.07431 0.50262 0.0
C1179 C 0.73174 0.07694 0.51488 0.0
C1180 C 0.76807 0.08304 0.50695 0.0
C1181 C 0.77226 0.08551 0.48701 0.0
C1182 C 0.66076 0.06782 0.51047 0.0
C1183 C 0.80269 0.0858 0.5195 0.0
H1184 H 0.70949 0.11863 0.57773 0.0
H1185 H 0.72567 0.99611 0.56822 0.0
H1186 H 0.74405 0.15109 0.53362 0.0
H1187 H 0.69423 0.14542 0.53068 0.0
H1188 H 0.7127 0.16442 0.55285 0.0
H1189 H 0.73862 0.96971 0.53828 0.0
H1190 H 0.71445 0.99507 0.51936 0.0
H1191 H 0.7641 1.00193 0.52255 0.0
H1192 H 0.68064 0.07414 0.47342 0.0
H1193 H 0.8002 0.08959 0.48101 0.0
H1194 H 0.65421 0.09008 0.52148 0.0
H1195 H 0.65927 0.03891 0.51751 0.0
H1196 H 0.63875 0.06899 0.49916 0.0
H1197 H 0.79857 0.1083 0.5307 0.0
H1198 H 0.82853 0.09307 0.51124 0.0
H1199 H 0.80725 0.05763 0.52689 0.0
C1200 C 0.15503 0.48339 0.2468 0.0
C1201 C 0.18613 0.48865 0.23465 0.0
C1202 C 0.15987 0.47896 0.26662 0.0
C1203 C 0.19673 0.47936 0.27452 0.0
C1204 C 0.22821 0.48515 0.26237 0.0
C1205 C 0.22252 0.48994 0.24262 0.0
C1206 C 0.12552 0.47331 0.2791 0.0
C1207 C 0.26797 0.48542 0.27018 0.0
C1208 C 0.20745 0.49669 0.32809 0.0
C1209 C 0.21031 0.4585 0.33508 0.0
C1210 C 0.20326 0.50397 0.30842 0.0
C1211 C 0.20234 0.47235 0.29539 0.0
C1212 C 0.20603 0.43381 0.30234 0.0
C1213 C 0.20975 0.42735 0.32208 0.0
C1214 C 0.19913 0.54547 0.30162 0.0
C1215 C 0.20568 0.39929 0.28893 0.0
H1216 H 0.1268 0.48255 0.24082 0.0
H1217 H 0.24675 0.49388 0.23336 0.0
H1218 H 0.12661 0.44426 0.28599 0.0
H1219 H 0.12523 0.49542 0.29068 0.0
H1220 H 0.09873 0.47553 0.27089 0.0
H1221 H 0.28935 0.49136 0.25893 0.0
H1222 H 0.27078 0.50783 0.28153 0.0
H1223 H 0.27436 0.45683 0.27679 0.0
H1224 H 0.20778 0.52095 0.33802 0.0
H1225 H 0.21217 0.39776 0.32732 0.0
H1226 H 0.17139 0.54915 0.29447 0.0
H1227 H 0.22125 0.55231 0.29092 0.0
H1228 H 0.20123 0.56685 0.31351 0.0
H1229 H 0.1782 0.39777 0.28134 0.0
H1230 H 0.21026 0.3713 0.29653 0.0
H1231 H 0.22799 0.40274 0.27794 0.0
C1232 C 0.71408 0.57185 0.44858 0.0
C1233 C 0.72327 0.60715 0.43973 0.0
C1234 C 0.71147 0.56943 0.46861 0.0
C1235 C 0.71919 0.60286 0.4799 0.0
C1236 C 0.72964 0.63819 0.47095 0.0
C1237 C 0.73108 0.64 0.45097 0.0
C1238 C 0.69954 0.53146 0.47765 0.0
C1239 C 0.73896 0.67423 0.48246 0.0
C1240 C 0.6777 0.61283 0.5297 0.0
C1241 C 0.70806 0.60134 0.54124 0.0
C1242 C 0.68071 0.6126 0.5097 0.0
C1243 C 0.71521 0.60151 0.50106 0.0
C1244 C 0.74619 0.59054 0.51266 0.0
C1245 C 0.7421 0.59016 0.53262 0.0
C1246 C 0.64685 0.62392 0.49781 0.0
C1247 C 0.78372 0.57951 0.504 0.0
H1248 H 0.70793 0.5465 0.43984 0.0
H1249 H 0.73852 0.66727 0.44411 0.0
H1250 H 0.72122 0.52168 0.48802 0.0
H1251 H 0.6729 0.53573 0.48571 0.0
H1252 H 0.69507 0.50805 0.4669 0.0
H1253 H 0.7488 0.69869 0.47333 0.0
H1254 H 0.71364 0.68393 0.49047 0.0
H1255 H 0.76125 0.66762 0.49312 0.0
H1256 H 0.65118 0.62104 0.53628 0.0
H1257 H 0.76566 0.58131 0.5415 0.0
H1258 H 0.63976 0.60015 0.48765 0.0
H1259 H 0.65351 0.65017 0.48922 0.0
H1260 H 0.62161 0.63017 0.50671 0.0
H1261 H 0.78011 0.55425 0.49426 0.0
H1262 H 0.80508 0.57193 0.51501 0.0
H1263 H 0.79476 0.60403 0.49531 0.0
C1264 C 0.23376 0.97812 0.67275 0.0
C1265 C 0.21131 0.949 0.66442 0.0
C1266 C 0.22943 0.9885 0.692 0.0
C1267 C 0.20259 0.96863 0.70343 0.0
C1268 C 0.1807 0.93822 0.6953 0.0
C1269 C 0.18494 0.92913 0.67578 0.0
C1270 C 0.25291 0.02163 0.69993 0.0
C1271 C 0.1525 0.91575 0.70711 0.0
C1272 C 0.22298 0.98935 0.75557 0.0
C1273 C 0.20052 0.0224 0.75856 0.0
C1274 C 0.22109 0.96858 0.73824 0.0
C1275 C 0.1966 0.98161 0.72356 0.0
C1276 C 0.17095 0.01221 0.72739 0.0
C1277 C 0.17292 0.03189 0.74494 0.0
C1278 C 0.24802 0.93524 0.73499 0.0
C1279 C 0.14443 0.02726 0.71221 0.0
H1280 H 0.25401 0.9938 0.66404 0.0
H1281 H 0.16766 0.90644 0.66942 0.0
H1282 H 0.23416 0.04515 0.70523 0.0
H1283 H 0.26993 0.01135 0.71224 0.0
H1284 H 0.27236 0.0342 0.68911 0.0
H1285 H 0.14085 0.89024 0.69927 0.0
H1286 H 0.16583 0.90544 0.72054 0.0
H1287 H 0.12875 0.93505 0.71119 0.0
H1288 H 0.24437 0.98175 0.766 0.0
H1289 H 0.15506 0.05705 0.74734 0.0
H1290 H 0.27236 0.94558 0.7264 0.0
H1291 H 0.2341 0.91136 0.72691 0.0
H1292 H 0.25899 0.92345 0.74869 0.0
H1293 H 0.16087 0.04377 0.7014 0.0
H1294 H 0.1226 0.04693 0.71825 0.0
H1295 H 0.13013 1.00289 0.7047 0.0
C1296 C 0.80054 0.48135 0.95359 0.0
C1297 C 0.80132 0.45314 0.93907 0.0
C1298 C 0.79471 0.47092 0.97272 0.0
C1299 C 0.7895 0.43124 0.97755 0.0
C1300 C 0.79019 0.40253 0.96299 0.0
C1301 C 0.79612 0.41382 0.94389 0.0
C1302 C 0.79418 0.5025 0.98779 0.0
C1303 C 0.78469 0.35996 0.9676 0.0
C1304 C 0.80936 0.40999 0.02981 0.0
C1305 C 0.77315 0.41286 0.03782 0.0
C1306 C 0.81489 0.41367 0.01002 0.0
C1307 C 0.78347 0.42034 0.99793 0.0
C1308 C 0.74664 0.4209 0.0058 0.0
C1309 C 0.74192 0.41716 0.02564 0.0
C1310 C 0.85461 0.41273 1.00221 0.0
C1311 C 0.71237 0.42775 0.99341 0.0
H1312 H 0.8045 0.5118 0.95003 0.0
H1313 H 0.79663 0.39185 0.93276 0.0
H1314 H 0.76671 0.50221 0.9954 0.0
H1315 H 0.81655 0.49701 0.99856 0.0
H1316 H 0.79864 0.53199 0.98165 0.0
H1317 H 0.78587 0.34125 0.95465 0.0
H1318 H 0.80678 0.35021 0.97777 0.0
H1319 H 0.75699 0.35555 0.97468 0.0
H1320 H 0.83366 0.40641 0.03907 0.0
H1321 H 0.7138 0.41915 0.03166 0.0
H1322 H 0.86279 0.44233 0.99736 0.0
H1323 H 0.85623 0.39311 0.98963 0.0
H1324 H 0.87543 0.40289 0.01305 0.0
H1325 H 0.71266 0.4582 0.98812 0.0
H1326 H 0.68557 0.42283 1.0013 0.0
H1327 H 0.71288 0.40832 0.98073 0.0
C1328 C 0.25996 0.06078 0.18887 0.0
C1329 C 0.29116 0.05691 0.17666 0.0
C1330 C 0.26265 0.05176 0.20838 0.0
C1331 C 0.2974 0.03851 0.21596 0.0
C1332 C 0.32882 0.03371 0.20366 0.0
C1333 C 0.32532 0.04296 0.18415 0.0
C1334 C 0.22844 0.05724 0.22097 0.0
C1335 C 0.36632 0.01959 0.21118 0.0
C1336 C 0.31246 0.05742 0.26894 0.0
C1337 C 0.30317 0.02127 0.27704 0.0
C1338 C 0.31159 0.06306 0.24908 0.0
C1339 C 0.30119 0.0318 0.23693 0.0
C1340 C 0.29263 0.99494 0.24495 0.0
C1341 C 0.29369 0.99012 0.26491 0.0
C1342 C 0.32092 0.10282 0.24114 0.0
C1343 C 0.2815 0.96085 0.23248 0.0
H1344 H 0.23336 0.07132 0.18324 0.0
H1345 H 0.34954 0.03971 0.17483 0.0
H1346 H 0.22194 0.02982 0.22869 0.0
H1347 H 0.23442 0.07988 0.2319 0.0
H1348 H 0.20306 0.06612 0.21273 0.0
H1349 H 0.38739 0.01538 0.19961 0.0
H1350 H 0.37781 0.04097 0.22159 0.0
H1351 H 0.36259 0.99162 0.21888 0.0
H1352 H 0.31994 0.08166 0.27815 0.0
H1353 H 0.28658 0.96204 0.27101 0.0
H1354 H 0.29577 0.11505 0.23384 0.0
H1355 H 0.34369 0.10048 0.23032 0.0
H1356 H 0.3301 0.12359 0.25242 0.0
H1357 H 0.25453 0.96733 0.22507 0.0
H1358 H 0.27792 0.93355 0.24081 0.0
H1359 H 0.30316 0.95596 0.2213 0.0
C1360 C 0.29488 0.40642 0.4646 0.0
C1361 C 0.29726 0.44291 0.45567 0.0
C1362 C 0.28796 0.40328 0.48431 0.0
C1363 C 0.28416 0.43748 0.49548 0.0
C1364 C 0.2861 0.47442 0.48649 0.0
C1365 C 0.2922 0.47668 0.46665 0.0
C1366 C 0.28521 0.36334 0.49321 0.0
C1367 C 0.28279 0.5116 0.49792 0.0
C1368 C 0.2394 0.43157 0.54493 0.0
C1369 C 0.27129 0.42996 0.55685 0.0
C1370 C 0.2431 0.43364 0.52494 0.0
C1371 C 0.27957 0.43457 0.51665 0.0
C1372 C 0.31184 0.43269 0.5286 0.0
C1373 C 0.30731 0.43015 0.54851 0.0
C1374 C 0.20798 0.43501 0.5127 0.0
C1375 C 0.35123 0.434 0.52037 0.0
H1376 H 0.29838 0.38018 0.45615 0.0
H1377 H 0.29415 0.50496 0.45984 0.0
H1378 H 0.30865 0.35922 0.50354 0.0
H1379 H 0.25839 0.36054 0.50129 0.0
H1380 H 0.28648 0.33967 0.48239 0.0
H1381 H 0.28416 0.53797 0.48876 0.0
H1382 H 0.25578 0.51192 0.50592 0.0
H1383 H 0.30595 0.51314 0.50859 0.0
H1384 H 0.21144 0.4314 0.55122 0.0
H1385 H 0.33213 0.42916 0.55758 0.0
H1386 H 0.20821 0.41065 0.50227 0.0
H1387 H 0.2074 0.46249 0.50439 0.0
H1388 H 0.18169 0.43312 0.52132 0.0
H1389 H 0.35538 0.40927 0.51037 0.0
H1390 H 0.37339 0.43265 0.5316 0.0
H1391 H 0.35515 0.46122 0.51206 0.0
C1392 C 0.76401 0.02979 0.30806 0.0
C1393 C 0.79528 0.03647 0.31994 0.0
C1394 C 0.76868 0.01723 0.28918 0.0
C1395 C 0.80554 0.01109 0.282 0.0
C1396 C 0.83722 0.01658 0.29407 0.0
C1397 C 0.83171 0.02934 0.31293 0.0
C1398 C 0.73418 0.01185 0.27671 0.0
C1399 C 0.8769 0.01009 0.28689 0.0
C1400 C 0.80995 0.95653 0.23484 0.0
C1401 C 0.8111 0.98753 0.22182 0.0
C1402 C 0.80979 0.96357 0.25462 0.0
C1403 C 0.8107 1.00245 0.2614 0.0
C1404 C 0.81341 0.03369 0.24832 0.0
C1405 C 0.81366 0.02583 0.22871 0.0
C1406 C 0.80717 0.92956 0.26821 0.0
C1407 C 0.81433 0.07558 0.25499 0.0
H1408 H 0.73575 0.03497 0.31341 0.0
H1409 H 0.85598 0.03412 0.3221 0.0
H1410 H 0.73466 0.03344 0.26493 0.0
H1411 H 0.73428 0.98246 0.27011 0.0
H1412 H 0.70746 0.01548 0.28482 0.0
H1413 H 0.89818 0.0121 0.29853 0.0
H1414 H 0.87918 0.98106 0.28001 0.0
H1415 H 0.88385 0.0322 0.27589 0.0
H1416 H 0.80816 0.92685 0.2296 0.0
H1417 H 0.81489 0.04997 0.21876 0.0
H1418 H 0.77935 0.92989 0.27548 0.0
H1419 H 0.82917 0.93197 0.27945 0.0
H1420 H 0.8104 0.90114 0.26077 0.0
H1421 H 0.78721 0.0829 0.26206 0.0
H1422 H 0.8189 0.09631 0.24304 0.0
H1423 H 0.8371 0.07987 0.26569 0.0
C1424 C 0.22714 0.53599 0.06207 0.0
C1425 C 0.21949 0.5681 0.07389 0.0
C1426 C 0.23347 0.54059 0.04243 0.0
C1427 C 0.23202 0.57825 0.03427 0.0
C1428 C 0.22469 0.61091 0.04611 0.0
C1429 C 0.21857 0.60546 0.06581 0.0
C1430 C 0.24133 0.50499 0.03036 0.0
C1431 C 0.22289 0.65151 0.03792 0.0
C1432 C 0.27839 0.58886 0.9855 0.0
C1433 C 0.24738 0.58461 0.97316 0.0
C1434 C 0.27372 0.58802 0.00545 0.0
C1435 C 0.23715 0.58294 0.01325 0.0
C1436 C 0.20564 0.57961 1.00087 0.0
C1437 C 0.21114 0.58043 0.981 0.0
C1438 C 0.30806 0.59149 0.01815 0.0
C1439 C 0.16618 0.57413 0.0086 0.0
H1440 H 0.22813 0.507 0.06816 0.0
H1441 H 0.21274 0.63041 0.07484 0.0
H1442 H 0.21901 0.50161 0.01934 0.0
H1443 H 0.26861 0.50846 0.02276 0.0
H1444 H 0.24246 0.47787 0.03898 0.0
H1445 H 0.21795 0.67395 0.04909 0.0
H1446 H 0.24962 0.65847 0.03039 0.0
H1447 H 0.1998 0.65322 0.02723 0.0
H1448 H 0.3065 0.59218 0.97959 0.0
H1449 H 0.18695 0.57732 0.97161 0.0
H1450 H 0.31207 0.56399 0.02621 0.0
H1451 H 0.30395 0.61507 0.0288 0.0
H1452 H 0.33421 0.59762 0.00991 0.0
H1453 H 0.1643 0.54592 0.01627 0.0
H1454 H 0.14446 0.57441 0.99714 0.0
H1455 H 0.15951 0.59743 0.01906 0.0
C1456 C 0.7257 0.9775 0.74566 0.0
C1457 C 0.6893 0.97514 0.73777 0.0
C1458 C 0.73155 0.97384 0.76546 0.0
C1459 C 0.70023 0.96803 0.77772 0.0
C1460 C 0.66336 0.96652 0.76988 0.0
C1461 C 0.65836 0.9699 0.75002 0.0
C1462 C 0.77134 0.97532 0.77322 0.0
C1463 C 0.62917 0.96077 0.78245 0.0
C1464 C 0.71432 0.91852 0.82583 0.0
C1465 C 0.71422 0.95026 0.83849 0.0
C1466 C 0.71049 0.92399 0.80603 0.0
C1467 C 0.70605 0.96211 0.79865 0.0
C1468 C 0.70631 0.99433 0.81133 0.0
C1469 C 0.71059 0.98804 0.83108 0.0
C1470 C 0.71082 0.88887 0.793 0.0
C1471 C 0.70138 0.03541 0.80407 0.0
H1472 H 0.74981 0.98147 0.73633 0.0
H1473 H 0.63011 0.96823 0.74409 0.0
H1474 H 0.77373 0.9983 0.78431 0.0
H1475 H 0.77832 0.94718 0.78014 0.0
H1476 H 0.79254 0.9812 0.76188 0.0
H1477 H 0.60231 0.96203 0.77426 0.0
H1478 H 0.63085 0.93209 0.78969 0.0
H1479 H 0.62849 0.98343 0.79377 0.0
H1480 H 0.71735 0.88924 0.83139 0.0
H1481 H 0.71042 0.01274 0.84074 0.0
H1482 H 0.73306 0.89227 0.78197 0.0
H1483 H 0.68337 0.88642 0.78543 0.0
H1484 H 0.71596 0.86133 0.80091 0.0
H1485 H 0.72335 0.04219 0.79328 0.0
H1486 H 0.7031 0.05737 0.81572 0.0
H1487 H 0.67356 0.0382 0.7969 0.0
C1488 C 0.52972 0.97677 0.97384 0.0
C1489 C 0.56648 0.98983 0.96991 0.0
C1490 C 0.51429 0.98007 0.99215 0.0
C1491 C 0.53637 0.99629 0.00701 0.0
C1492 C 0.57449 1.00686 1.00349 0.0
C1493 C 0.58915 1.0036 0.98487 0.0
C1494 C 0.47363 0.96825 0.99528 0.0
C1495 C 0.59913 0.02348 0.01912 0.0
C1496 C 0.48169 0.04797 0.04615 0.0
C1497 C 0.48068 0.01961 0.06054 0.0
C1498 C 0.50019 0.04088 0.02877 0.0
C1499 C 0.5184 1.00468 0.02576 0.0
C1500 C 0.51743 0.97589 0.04017 0.0
C1501 C 0.4983 0.98356 0.05731 0.0
C1502 C 0.50024 0.07215 0.01361 0.0
C1503 C 0.53656 0.93699 0.03749 0.0
H1504 H 0.51242 0.96533 0.96232 0.0
H1505 H 0.6176 0.01356 0.98185 0.0
H1506 H 0.4713 0.94834 0.00769 0.0
H1507 H 0.4565 0.99445 0.99855 0.0
H1508 H 0.46124 0.95357 0.98257 0.0
H1509 H 0.62923 0.0254 0.01473 0.0
H1510 H 0.58916 0.05314 0.02287 0.0
H1511 H 0.59713 1.00539 0.03221 0.0
H1512 H 0.46879 0.07612 0.04864 0.0
H1513 H 0.49727 0.96128 0.06825 0.0
H1514 H 0.48657 0.06098 1.00041 0.0
H1515 H 0.52971 0.08011 0.00988 0.0
H1516 H 0.48515 0.09885 0.01827 0.0
H1517 H 0.52332 0.92106 0.02541 0.0
H1518 H 0.5348 0.9185 0.05048 0.0
H1519 H 0.56675 0.94136 0.03382 0.0
C1520 C 0.71825 0.66893 0.25891 0.0
C1521 C 0.74197 0.65704 0.27391 0.0
C1522 C 0.72737 0.70102 0.24739 0.0
C1523 C 0.76008 0.72338 0.25151 0.0
C1524 C 0.78093 0.71505 0.26834 0.0
C1525 C 0.77215 0.6815 0.27914 0.0
C1526 C 0.70394 0.70847 0.22971 0.0
C1527 C 0.81412 0.73987 0.27428 0.0
C1528 C 0.80883 0.75257 0.20574 0.0
C1529 C 0.78962 0.78691 0.2009 0.0
C1530 C 0.8016 0.73306 0.22292 0.0
C1531 C 0.7759 0.74928 0.23623 0.0
C1532 C 0.76081 0.78692 0.23266 0.0
C1533 C 0.76723 0.80504 0.21481 0.0
C1534 C 0.81834 0.693 0.22575 0.0
C1535 C 0.73576 0.80701 0.24699 0.0
H1536 H 0.69387 0.65127 0.25524 0.0
H1537 H 0.79041 0.67325 0.29089 0.0
H1538 H 0.69368 0.73893 0.22967 0.0
H1539 H 0.72158 0.70438 0.21676 0.0
H1540 H 0.67913 0.68871 0.22869 0.0
H1541 H 0.81761 0.73962 0.29006 0.0
H1542 H 0.84035 0.72796 0.26793 0.0
H1543 H 0.81083 0.77045 0.26942 0.0
H1544 H 0.82686 0.73892 0.19515 0.0
H1545 H 0.75269 0.83187 0.21132 0.0
H1546 H 0.7954 0.67092 0.22629 0.0
H1547 H 0.83382 0.69168 0.23949 0.0
H1548 H 0.83813 0.68483 0.21411 0.0
H1549 H 0.70576 0.80109 0.24345 0.0
H1550 H 0.73999 0.83907 0.24642 0.0
H1551 H 0.74129 0.79681 0.26178 0.0
C1552 C 0.99275 0.04144 0.45701 0.0
C1553 C 0.95658 0.02969 0.45101 0.0
C1554 C 1.00605 0.03321 0.47544 0.0
C1555 C 0.98246 0.01318 0.48845 0.0
C1556 C 0.94527 1.00268 0.48282 0.0
C1557 C 0.93275 0.01105 0.46413 0.0
C1558 C 0.04577 0.04516 0.48081 0.0
C1559 C 0.91909 0.98177 0.49638 0.0
C1560 C 0.03123 0.95814 0.5288 0.0
C1561 C 0.02765 0.98423 0.54416 0.0
C1562 C 0.01636 0.96704 0.51067 0.0
C1563 C 0.99723 1.00279 0.50779 0.0
C1564 C 0.99379 0.02936 0.52316 0.0
C1565 C 0.00922 0.01991 0.54107 0.0
C1566 C 0.02101 0.93808 0.49459 0.0
C1567 C 0.97377 0.06783 0.52071 0.0
H1568 H 0.01106 0.05671 0.44711 0.0
H1569 H 0.90481 1.0019 0.45961 0.0
H1570 H 0.04533 0.06388 0.49374 0.0
H1571 H 0.06268 0.01896 0.48433 0.0
H1572 H 0.06024 0.06125 0.46915 0.0
H1573 H 0.89049 0.97736 0.49019 0.0
H1574 H 0.93107 0.95291 0.50008 0.0
H1575 H 0.91637 0.99851 0.50988 0.0
H1576 H 0.04488 0.9303 0.53106 0.0
H1577 H 0.00675 0.04055 0.55273 0.0
H1578 H 0.03674 0.95173 0.48263 0.0
H1579 H 0.9929 0.92937 0.48899 0.0
H1580 H 0.03636 0.91148 0.49917 0.0
H1581 H 0.98852 0.08569 0.50982 0.0
H1582 H 0.97242 0.08474 0.53424 0.0
H1583 H 0.94456 0.06285 0.51548 0.0
C1584 C 0.72542 0.20689 0.72627 0.0
C1585 C 0.75269 0.20948 0.71183 0.0
C1586 C 0.73114 0.225 0.74413 0.0
C1587 C 0.76503 0.246 0.74766 0.0
C1588 C 0.79338 0.24703 0.73341 0.0
C1589 C 0.78684 0.22885 0.71572 0.0
C1590 C 0.70029 0.22299 0.75896 0.0
C1591 C 0.83011 0.26852 0.73661 0.0
C1592 C 0.76315 0.32518 0.78616 0.0
C1593 C 0.7779 0.30526 0.80193 0.0
C1594 C 0.75932 0.30647 0.76829 0.0
C1595 C 0.77075 0.26706 0.76618 0.0
C1596 C 0.78719 0.24751 0.78189 0.0
C1597 C 0.79056 0.26681 0.79951 0.0
C1598 C 0.7419 0.32845 0.75185 0.0
C1599 C 0.80027 0.20579 0.78027 0.0
H1600 H 0.69879 0.19248 0.72325 0.0
H1601 H 0.80801 0.23091 0.70457 0.0
H1602 H 0.71166 0.21135 0.77258 0.0
H1603 H 0.68954 0.25273 0.76193 0.0
H1604 H 0.67627 0.20436 0.75432 0.0
H1605 H 0.85006 0.2648 0.72451 0.0
H1606 H 0.82446 0.30006 0.7385 0.0
H1607 H 0.84395 0.2581 0.74988 0.0
H1608 H 0.75317 0.35478 0.78799 0.0
H1609 H 0.80239 0.25142 0.81163 0.0
H1610 H 0.71507 0.31415 0.74754 0.0
H1611 H 0.76098 0.32778 0.73929 0.0
H1612 H 0.73593 0.35932 0.75555 0.0
H1613 H 0.77583 0.18658 0.77705 0.0
H1614 H 0.81398 0.19531 0.79359 0.0
H1615 H 0.82057 0.20276 0.7683 0.0
C1616 C 0.26406 0.15449 0.75148 0.0
C1617 C 0.24794 0.15532 0.7698 0.0
C1618 C 0.26813 0.18839 0.74054 0.0
C1619 C 0.25737 0.22484 0.74834 0.0
C1620 C 0.24479 0.22651 0.7676 0.0
C1621 C 0.23974 0.19161 0.77806 0.0
C1622 C 0.28145 0.18457 0.72009 0.0
C1623 C 0.23472 0.26468 0.77694 0.0
C1624 C 0.28911 0.30046 0.71246 0.0
C1625 C 0.25719 0.3017 0.70059 0.0
C1626 C 0.28822 0.27989 0.72991 0.0
C1627 C 0.25506 0.25928 0.73521 0.0
C1628 C 0.22152 0.26519 0.72455 0.0
C1629 C 0.22291 0.28681 0.70754 0.0
C1630 C 0.32387 0.27684 0.74159 0.0
C1631 C 0.1853 0.24438 0.72962 0.0
H1632 H 0.27167 0.12668 0.74521 0.0
H1633 H 0.22772 0.19268 0.79229 0.0
H1634 H 0.30674 0.20302 0.71772 0.0
H1635 H 0.28869 0.15407 0.71625 0.0
H1636 H 0.25906 0.19479 0.71019 0.0
H1637 H 0.23984 0.26349 0.7926 0.0
H1638 H 0.25108 0.28931 0.77084 0.0
H1639 H 0.20424 0.27055 0.77474 0.0
H1640 H 0.31567 0.31216 0.7073 0.0
H1641 H 0.19803 0.28817 0.69851 0.0
H1642 H 0.33913 0.24982 0.73763 0.0
H1643 H 0.3173 0.2754 0.75708 0.0
H1644 H 0.34296 0.30198 0.73893 0.0
H1645 H 0.1885 0.21275 0.72673 0.0
H1646 H 0.16088 0.2553 0.72122 0.0
H1647 H 0.17896 0.2479 0.74502 0.0
C1648 C 0.24594 0.71362 0.22568 0.0
C1649 C 0.23351 0.73513 0.20989 0.0
C1650 C 0.24875 0.73104 0.2439 0.0
C1651 C 0.23888 0.77083 0.24632 0.0
C1652 C 0.22497 0.79212 0.23054 0.0
C1653 C 0.22222 0.77398 0.21263 0.0
C1654 C 0.26329 0.70723 0.26044 0.0
C1655 C 0.21396 0.83445 0.23244 0.0
C1656 C 0.21757 0.80823 0.29639 0.0
C1657 C 0.25202 0.82553 0.30173 0.0
C1658 C 0.21289 0.79051 0.27844 0.0
C1659 C 0.24324 0.7904 0.2653 0.0
C1660 C 0.27754 0.80938 0.27023 0.0
C1661 C 0.28155 0.82667 0.2884 0.0
C1662 C 0.17574 0.771 0.27374 0.0
C1663 C 0.31037 0.81047 0.25651 0.0
H1664 H 0.25482 0.68371 0.22364 0.0
H1665 H 0.212 0.79061 0.20052 0.0
H1666 H 0.29018 0.71993 0.26574 0.0
H1667 H 0.24284 0.70807 0.27243 0.0
H1668 H 0.2683 0.67635 0.25642 0.0
H1669 H 0.20269 0.84659 0.21888 0.0
H1670 H 0.19224 0.8379 0.24372 0.0
H1671 H 0.23887 0.85198 0.23683 0.0
H1672 H 0.19444 0.80765 0.30652 0.0
H1673 H 0.30835 0.83959 0.29244 0.0
H1674 H 0.18034 0.73947 0.27113 0.0
H1675 H 0.16375 0.78346 0.26045 0.0
H1676 H 0.15469 0.77428 0.28539 0.0
H1677 H 0.31987 0.78036 0.25337 0.0
H1678 H 0.33469 0.82734 0.26225 0.0
H1679 H 0.30146 0.82368 0.24277 0.0
C1680 C 0.01618 0.50725 0.55724 0.0
C1681 C 0.9767 0.50281 0.55794 0.0
C1682 C 0.03575 0.50616 0.53986 0.0
C1683 C 0.01537 0.50134 0.52265 0.0
C1684 C 0.97558 0.49671 0.52318 0.0
C1685 C 0.95672 0.49739 0.54084 0.0
C1686 C 0.07816 0.51113 0.53992 0.0
C1687 C 0.95289 0.49175 0.50506 0.0
C1688 C 0.05678 0.54139 0.47677 0.0
C1689 C 0.06864 0.50735 0.46745 0.0
C1690 C 0.04003 0.53986 0.49488 0.0
C1691 C 0.0354 0.50342 0.50401 0.0
C1692 C 0.04911 0.46915 0.49514 0.0
C1693 C 0.06553 0.4715 0.4769 0.0
C1694 C 0.02604 0.57712 0.50391 0.0
C1695 C 0.04519 0.42987 0.50461 0.0
H1696 H 0.03189 0.5125 0.57029 0.0
H1697 H 0.92632 0.4937 0.54126 0.0
H1698 H 0.09171 0.4873 0.53171 0.0
H1699 H 0.08581 0.53893 0.53284 0.0
H1700 H 0.09007 0.51135 0.55462 0.0
H1701 H 0.92234 0.48728 0.50794 0.0
H1702 H 0.95622 0.51793 0.49593 0.0
H1703 H 0.96357 0.46648 0.49679 0.0
H1704 H 0.05962 0.56923 0.46961 0.0
H1705 H 0.07434 0.44507 0.4697 0.0
H1706 H 0.03859 0.58087 0.51833 0.0
H1707 H 0.99494 0.57564 0.50573 0.0
H1708 H 0.03296 0.6032 0.4952 0.0
H1709 H 0.05711 0.43083 0.51927 0.0
H1710 H 0.05961 0.40646 0.49644 0.0
H1711 H 0.01484 0.42222 0.50593 0.0
C1712 C 0.48493 0.4654 0.04024 0.0
C1713 C 0.52198 0.47722 0.04465 0.0
C1714 C 0.4692 0.47187 0.0221 0.0
C1715 C 0.49104 0.49044 0.00784 0.0
C1716 C 0.52868 0.5019 0.01205 0.0
C1717 C 0.54372 0.49509 0.03039 0.0
C1718 C 0.42915 0.45886 0.0182 0.0
C1719 C 0.55296 0.52168 0.99722 0.0
C1720 C 0.46645 0.47634 0.95533 0.0
C1721 C 0.44915 0.51189 0.95073 0.0
C1722 C 0.47937 0.46865 0.97392 0.0
C1723 C 0.47481 0.49712 0.98838 0.0
C1724 C 0.45562 0.53227 0.98408 0.0
C1725 C 0.44299 0.53923 0.9653 0.0
C1726 C 0.49921 0.4306 0.97789 0.0
C1727 C 0.44982 0.56321 0.99913 0.0
H1728 H 0.46812 0.45087 0.05104 0.0
H1729 H 0.57223 0.5045 0.03369 0.0
H1730 H 0.41174 0.48413 0.01378 0.0
H1731 H 0.42872 0.43765 0.00622 0.0
H1732 H 0.41581 0.4451 0.03087 0.0
H1733 H 0.58158 0.52886 1.00273 0.0
H1734 H 0.55595 0.50257 0.98452 0.0
H1735 H 0.5392 0.54895 0.99239 0.0
H1736 H 0.47098 0.45494 0.94416 0.0
H1737 H 0.43001 0.5669 0.96183 0.0
H1738 H 0.4859 0.41564 0.99021 0.0
H1739 H 0.5291 0.43636 0.98176 0.0
H1740 H 0.49861 0.41066 0.96538 0.0
H1741 H 0.43602 0.5505 0.01192 0.0
H1742 H 0.43227 0.58774 0.99385 0.0
H1743 H 0.47761 0.57491 0.00375 0.0
C1744 C 0.23628 0.77517 0.12902 0.0
C1745 C 0.26259 0.76169 0.14243 0.0
C1746 C 0.24074 0.8119 0.12044 0.0
C1747 C 0.27197 0.83559 0.12561 0.0
C1748 C 0.30083 0.81998 0.13731 0.0
C1749 C 0.29594 0.78299 0.14542 0.0
C1750 C 0.20989 0.82697 0.10756 0.0
C1751 C 0.33462 0.84405 0.14324 0.0
C1752 C 0.28819 0.93589 0.10368 0.0
C1753 C 0.26947 0.95994 0.11683 0.0
C1754 C 0.28867 0.89517 0.10603 0.0
C1755 C 0.27076 0.87837 0.12212 0.0
C1756 C 0.25214 0.90268 0.13551 0.0
C1757 C 0.2514 0.94305 0.13258 0.0
C1758 C 0.30812 0.87015 0.09129 0.0
C1759 C 0.23328 0.88613 0.15309 0.0
H1760 H 0.21045 0.75883 0.12663 0.0
H1761 H 0.31655 0.77235 0.15562 0.0
H1762 H 0.19125 0.84671 0.11583 0.0
H1763 H 0.2219 0.84394 0.09552 0.0
H1764 H 0.19233 0.80289 0.1017 0.0
H1765 H 0.3574 0.82574 0.14941 0.0
H1766 H 0.34622 0.86057 0.13097 0.0
H1767 H 0.32577 0.86553 0.15422 0.0
H1768 H 0.30194 0.94884 0.09139 0.0
H1769 H 0.2371 0.96151 0.14285 0.0
H1770 H 0.28786 0.84859 0.08534 0.0
H1771 H 0.33136 0.85348 0.09804 0.0
H1772 H 0.31995 0.88763 0.07935 0.0
H1773 H 0.21063 0.86547 0.14884 0.0
H1774 H 0.22067 0.90911 0.16226 0.0
H1775 H 0.25412 0.86964 0.16172 0.0
C1776 C 0.02206 0.58552 0.40691 0.0
C1777 C 0.0372 0.54921 0.4018 0.0
C1778 C 0.98701 0.59766 0.39978 0.0
C1779 C 0.96709 0.57319 0.38696 0.0
C1780 C 0.98495 0.53944 0.37959 0.0
C1781 C 0.0198 0.52762 0.38723 0.0
C1782 C 0.9693 0.63401 0.40794 0.0
C1783 C 0.96526 0.51333 0.36536 0.0
C1784 C 0.86238 0.55986 0.39565 0.0
C1785 C 0.84629 0.58237 0.38114 0.0
C1786 C 0.90158 0.55763 0.39788 0.0
C1787 C 0.92547 0.57766 0.38494 0.0
C1788 C 0.90938 0.60102 0.37038 0.0
C1789 C 0.86979 0.60345 0.36877 0.0
C1790 C 0.91738 0.53322 0.41397 0.0
C1791 C 0.93382 0.62208 0.35607 0.0
H1792 H 0.03592 0.6027 0.4179 0.0
H1793 H 0.03145 0.49967 0.38311 0.0
H1794 H 0.95383 0.65042 0.39678 0.0
H1795 H 0.94862 0.62563 0.41912 0.0
H1796 H 0.99075 0.65352 0.41454 0.0
H1797 H 0.98545 0.49352 0.35808 0.0
H1798 H 0.94397 0.49524 0.3729 0.0
H1799 H 0.95022 0.53079 0.35442 0.0
H1800 H 0.84416 0.54377 0.40529 0.0
H1801 H 0.85727 0.6205 0.35739 0.0
H1802 H 0.93699 0.55089 0.42285 0.0
H1803 H 0.93372 0.50848 0.40802 0.0
H1804 H 0.89491 0.5213 0.42338 0.0
H1805 H 0.95738 0.63755 0.36329 0.0
H1806 H 0.91742 0.64339 0.34751 0.0
H1807 H 0.94653 0.60052 0.34616 0.0
C1808 C 0.2686 0.06954 0.59499 0.0
C1809 C 0.23663 0.04736 0.5997 0.0
C1810 C 0.27041 0.10941 0.59931 0.0
C1811 C 0.23982 0.12727 0.6089 0.0
C1812 C 0.2063 0.10574 0.61227 0.0
C1813 C 0.205 0.06602 0.60749 0.0
C1814 C 0.30636 0.13149 0.59508 0.0
C1815 C 0.17316 0.12357 0.62261 0.0
C1816 C 0.26657 0.20209 0.64627 0.0
C1817 C 0.25575 0.23724 0.63766 0.0
C1818 C 0.26124 0.16635 0.63705 0.0
C1819 C 0.2455 0.16555 0.61846 0.0
C1820 C 0.23553 0.20091 0.60935 0.0
C1821 C 0.24063 0.23645 0.61911 0.0
C1822 C 0.27229 0.12936 0.64734 0.0
C1823 C 0.21923 0.20112 0.58943 0.0
H1824 H 0.29293 0.05536 0.58869 0.0
H1825 H 0.18021 0.04904 0.61118 0.0
H1826 H 0.29999 0.16098 0.58949 0.0
H1827 H 0.32278 0.13519 0.60848 0.0
H1828 H 0.32434 0.11591 0.58457 0.0
H1829 H 0.14736 0.10524 0.62142 0.0
H1830 H 0.18027 0.12688 0.63798 0.0
H1831 H 0.16686 0.153 0.61694 0.0
H1832 H 0.27935 0.20247 0.66035 0.0
H1833 H 0.23223 0.26349 0.61238 0.0
H1834 H 0.29439 0.1138 0.63913 0.0
H1835 H 0.24755 0.10959 0.64846 0.0
H1836 H 0.28322 0.13507 0.66197 0.0
H1837 H 0.23829 0.18542 0.57949 0.0
H1838 H 0.21479 0.23114 0.58397 0.0
H1839 H 0.19176 0.18553 0.58931 0.0
C1840 C 0.68338 0.51009 0.88316 0.0
C1841 C 0.69939 0.5086 0.86483 0.0
C1842 C 0.64431 0.5145 0.88574 0.0
C1843 C 0.62023 0.51699 0.86961 0.0
C1844 C 0.6361 0.51547 0.85104 0.0
C1845 C 0.67552 0.51157 0.84886 0.0
C1846 C 0.6288 0.5164 0.90583 0.0
C1847 C 0.61139 0.51748 0.83349 0.0
C1848 C 0.51951 0.48988 0.88263 0.0
C1849 C 0.50357 0.52651 0.8862 0.0
C1850 C 0.55654 0.4864 0.87562 0.0
C1851 C 0.57849 0.52038 0.87252 0.0
C1852 C 0.56155 0.55749 0.87488 0.0
C1853 C 0.52417 0.5601 0.88161 0.0
C1854 C 0.57308 0.44626 0.873 0.0
C1855 C 0.58389 0.59448 0.87192 0.0
H1856 H 0.70149 0.50815 0.89562 0.0
H1857 H 0.68758 0.51038 0.83464 0.0
H1858 H 0.61249 0.54367 0.90782 0.0
H1859 H 0.60915 0.4917 0.90829 0.0
H1860 H 0.65141 0.51533 0.91684 0.0
H1861 H 0.62805 0.51648 0.82006 0.0
H1862 H 0.5911 0.49279 0.83349 0.0
H1863 H 0.59455 0.54469 0.83366 0.0
H1864 H 0.50366 0.4639 0.88633 0.0
H1865 H 0.51207 0.58842 0.88467 0.0
H1866 H 0.59323 0.4402 0.88478 0.0
H1867 H 0.58899 0.44448 0.85938 0.0
H1868 H 0.55096 0.42325 0.87306 0.0
H1869 H 0.60459 0.5979 0.88373 0.0
H1870 H 0.56546 0.62062 0.87166 0.0
H1871 H 0.60006 0.59315 0.85838 0.0
C1872 C 0.73765 0.10946 0.91047 0.0
C1873 C 0.75718 0.08735 0.89681 0.0
C1874 C 0.73358 0.15004 0.90832 0.0
C1875 C 0.749 0.16858 0.89202 0.0
C1876 C 0.76848 0.14621 0.87816 0.0
C1877 C 0.77249 0.10606 0.8808 0.0
C1878 C 0.71307 0.17304 0.92347 0.0
C1879 C 0.78502 0.16461 0.8604 0.0
C1880 C 0.71874 0.26091 0.86794 0.0
C1881 C 0.75152 0.28347 0.87023 0.0
C1882 C 0.7151 0.22472 0.87702 0.0
C1883 C 0.7448 0.21119 0.88881 0.0
C1884 C 0.7751 0.23654 0.89344 0.0
C1885 C 0.77821 0.27247 0.884 0.0
C1886 C 0.68206 0.19895 0.87181 0.0
C1887 C 0.80685 0.22372 0.90635 0.0
H1888 H 0.72591 0.09517 0.92293 0.0
H1889 H 0.78743 0.08921 0.8701 0.0
H1890 H 0.73236 0.19515 0.92973 0.0
H1891 H 0.68903 0.18901 0.91703 0.0
H1892 H 0.70221 0.1542 0.93513 0.0
H1893 H 0.79885 0.14294 0.85092 0.0
H1894 H 0.76252 0.17947 0.85214 0.0
H1895 H 0.80627 0.18695 0.86444 0.0
H1896 H 0.69768 0.26977 0.85757 0.0
H1897 H 0.80353 0.28987 0.88592 0.0
H1898 H 0.67232 0.18177 0.88428 0.0
H1899 H 0.69097 0.17808 0.86056 0.0
H1900 H 0.65796 0.21616 0.86619 0.0
H1901 H 0.79602 0.20619 0.91848 0.0
H1902 H 0.82289 0.24904 0.91207 0.0
H1903 H 0.82667 0.20518 0.89811 0.0
C1904 C 0.15792 0.47013 0.62484 0.0
C1905 C 0.1788 0.46507 0.64167 0.0
C1906 C 0.11857 0.4736 0.62526 0.0
C1907 C 0.09928 0.47134 0.64297 0.0
C1908 C 0.12001 0.46529 0.66002 0.0
C1909 C 0.15966 0.46266 0.6592 0.0
C1910 C 0.09772 0.48022 0.60666 0.0
C1911 C 0.10052 0.46224 0.67912 0.0
C1912 C 1.00585 0.51996 0.63539 0.0
C1913 C 0.98557 0.48885 0.62742 0.0
C1914 C 0.04193 0.51402 0.64316 0.0
C1915 C 0.05749 0.47604 0.64308 0.0
C1916 C 0.03435 0.44391 0.63807 0.0
C1917 C 0.99861 0.45074 0.63009 0.0
C1918 C 0.06535 0.54908 0.64862 0.0
C1919 C 0.04928 0.40281 0.6385 0.0
H1920 H 0.17241 0.47222 0.61124 0.0
H1921 H 0.17562 0.4587 0.67227 0.0
H1922 H 0.07733 0.45618 0.60409 0.0
H1923 H 0.08136 0.50772 0.60741 0.0
H1924 H 0.11706 0.48194 0.59419 0.0
H1925 H 0.11936 0.44974 0.69023 0.0
H1926 H 0.09175 0.49169 0.68389 0.0
H1927 H 0.07467 0.44402 0.67806 0.0
H1928 H 0.99578 0.54947 0.63327 0.0
H1929 H 0.98281 0.42667 0.62396 0.0
H1930 H 0.08453 0.55654 0.63663 0.0
H1931 H 0.08307 0.54288 0.66132 0.0
H1932 H 0.04738 0.57484 0.65169 0.0
H1933 H 0.06668 0.3976 0.62557 0.0
H1934 H 0.02595 0.38111 0.63863 0.0
H1935 H 0.06749 0.39809 0.6512 0.0
C1936 C 0.74333 0.93326 0.41046 0.0
C1937 C 0.75742 0.95557 0.39526 0.0
C1938 C 0.74052 0.89232 0.40902 0.0
C1939 C 0.75201 0.87325 0.39198 0.0
C1940 C 0.76564 0.89572 0.37653 0.0
C1941 C 0.76817 0.93634 0.37835 0.0
C1942 C 0.72582 0.86938 0.42583 0.0
C1943 C 0.77828 0.8768 0.35811 0.0
C1944 C 0.78564 0.76808 0.39324 0.0
C1945 C 0.75465 0.7477 0.3856 0.0
C1946 C 0.78474 0.80866 0.39576 0.0
C1947 C 0.75203 0.82975 0.39053 0.0
C1948 C 0.72054 0.80944 0.38284 0.0
C1949 C 0.72223 0.76867 0.38044 0.0
C1950 C 0.81908 0.82904 0.40386 0.0
C1951 C 0.68518 0.83083 0.37702 0.0
H1952 H 0.73476 0.94769 0.42354 0.0
H1953 H 0.77886 0.95302 0.36637 0.0
H1954 H 0.70188 0.8506 0.42129 0.0
H1955 H 0.7483 0.84988 0.4313 0.0
H1956 H 0.71624 0.88852 0.43768 0.0
H1957 H 0.78664 0.8985 0.34712 0.0
H1958 H 0.80273 0.85747 0.36092 0.0
H1959 H 0.7553 0.85837 0.35218 0.0
H1960 H 0.81085 0.75229 0.39733 0.0
H1961 H 0.69805 0.75322 0.37466 0.0
H1962 H 0.81115 0.84624 0.41667 0.0
H1963 H 0.83059 0.84976 0.39318 0.0
H1964 H 0.84176 0.80832 0.4079 0.0
H1965 H 0.67426 0.84808 0.38924 0.0
H1966 H 0.66259 0.81074 0.37201 0.0
H1967 H 0.69177 0.85166 0.36537 0.0
C1968 C 0.49509 0.51102 0.12471 0.0
C1969 C 0.49713 0.47635 0.11422 0.0
C1970 C 0.46226 0.52049 0.13505 0.0
C1971 C 0.43076 0.49489 0.13454 0.0
C1972 C 0.43423 0.45827 0.12533 0.0
C1973 C 0.46738 0.44952 0.11525 0.0
C1974 C 0.46005 0.55948 0.14494 0.0
C1975 C 0.40152 0.43004 0.12435 0.0
C1976 C 0.33898 0.51121 0.16212 0.0
C1977 C 0.31631 0.5285 0.14803 0.0
C1978 C 0.37698 0.50156 0.15835 0.0
C1979 C 0.39243 0.5091 0.14004 0.0
C1980 C 0.37003 0.52792 0.12607 0.0
C1981 C 0.33251 0.53747 0.13026 0.0
C1982 C 0.40009 0.48201 0.17369 0.0
C1983 C 0.38514 0.53654 0.10631 0.0
H1984 H 0.518 0.53194 0.1237 0.0
H1985 H 0.46893 0.42289 0.10692 0.0
H1986 H 0.44381 0.58003 0.1359 0.0
H1987 H 0.44511 0.5569 0.15881 0.0
H1988 H 0.48854 0.5721 0.14747 0.0
H1989 H 0.41045 0.40081 0.11926 0.0
H1990 H 0.38799 0.42685 0.13855 0.0
H1991 H 0.37988 0.44144 0.11435 0.0
H1992 H 0.32682 0.5042 0.1759 0.0
H1993 H 0.31551 0.55113 0.11927 0.0
H1994 H 0.42844 0.4957 0.17479 0.0
H1995 H 0.40434 0.45094 0.1699 0.0
H1996 H 0.3861 0.48342 0.18787 0.0
H1997 H 0.41144 0.55404 0.10732 0.0
H1998 H 0.36454 0.55266 0.09735 0.0
H1999 H 0.39228 0.50888 0.09894 0.0
C2000 C 0.78102 0.42831 0.6297 0.0
C2001 C 0.76295 0.44549 0.614 0.0
C2002 C 0.77654 0.38857 0.63368 0.0
C2003 C 0.75371 0.36526 0.62156 0.0
C2004 C 0.737 0.3819 0.60513 0.0
C2005 C 0.74163 0.42191 0.60159 0.0
C2006 C 0.79472 0.372 0.65144 0.0
C2007 C 0.71294 0.35785 0.59175 0.0
C2008 C 0.76401 0.2574 0.63206 0.0
C2009 C 0.73515 0.25222 0.64545 0.0
C2010 C 0.76878 0.29347 0.62285 0.0
C2011 C 0.74433 0.32477 0.62744 0.0
C2012 C 0.71345 0.31847 0.63991 0.0
C2013 C 0.70928 0.2822 0.64876 0.0
C2014 C 0.80161 0.2989 0.60939 0.0
C2015 C 0.68673 0.35097 0.64523 0.0
H2016 H 0.79768 0.44616 0.63934 0.0
H2017 H 0.72782 0.43482 0.58932 0.0
H2018 H 0.77249 0.36284 0.66167 0.0
H2019 H 0.81152 0.34579 0.64781 0.0
H2020 H 0.8135 0.39339 0.65868 0.0
H2021 H 0.70649 0.37361 0.57828 0.0
H2022 H 0.72726 0.33006 0.58817 0.0
H2023 H 0.68589 0.35038 0.59885 0.0
H2024 H 0.78416 0.23415 0.6297 0.0
H2025 H 0.68715 0.27799 0.65928 0.0
H2026 H 0.82424 0.31563 0.61672 0.0
H2027 H 0.79294 0.31578 0.59662 0.0
H2028 H 0.81353 0.27056 0.60467 0.0
H2029 H 0.70191 0.37281 0.65409 0.0
H2030 H 0.66198 0.34022 0.65344 0.0
H2031 H 0.6764 0.36609 0.63225 0.0
C2032 C 0.49539 0.99971 0.90632 0.0
C2033 C 0.53023 0.0184 0.90389 0.0
C2034 C 0.46252 0.01448 0.89804 0.0
C2035 C 0.46461 0.04843 0.88661 0.0
C2036 C 0.50027 0.06564 0.88279 0.0
C2037 C 0.53285 0.05058 0.89168 0.0
C2038 C 0.42523 0.995 0.90257 0.0
C2039 C 0.50382 0.10104 0.87018 0.0
C2040 C 0.37144 0.0575 0.8613 0.0
C2041 C 0.35137 0.08058 0.87428 0.0
C2042 C 0.41021 0.05088 0.86371 0.0
C2043 C 0.42875 0.06642 0.87994 0.0
C2044 C 0.40921 0.0926 0.89212 0.0
C2045 C 0.37062 0.09972 0.889 0.0
C2046 C 0.43029 0.02412 0.84996 0.0
C2047 C 0.42782 0.1096 0.90966 0.0
H2048 H 0.49357 0.97467 0.91572 0.0
H2049 H 0.55984 0.06508 0.8899 0.0
H2050 H 0.40653 0.01576 0.91018 0.0
H2051 H 0.41068 0.98628 0.88919 0.0
H2052 H 0.4287 0.96869 0.91162 0.0
H2053 H 0.53329 0.10521 0.86512 0.0
H2054 H 0.48481 0.09878 0.85761 0.0
H2055 H 0.49551 0.12733 0.87838 0.0
H2056 H 0.35637 0.04296 0.84981 0.0
H2057 H 0.35485 0.11741 0.89905 0.0
H2058 H 0.4321 0.99452 0.85624 0.0
H2059 H 0.45953 0.03443 0.84725 0.0
H2060 H 0.41505 0.02188 0.83611 0.0
H2061 H 0.43141 0.08635 0.92052 0.0
H2062 H 0.41079 0.13341 0.91607 0.0
H2063 H 0.45628 0.12106 0.90617 0.0
C2064 C 0.74791 0.73479 0.12154 0.0
C2065 C 0.7761 0.73796 0.13551 0.0
C2066 C 0.74053 0.69873 0.11264 0.0
C2067 C 0.76175 0.66548 0.118 0.0
C2068 C 0.79197 0.66947 0.13112 0.0
C2069 C 0.79883 0.70568 0.13962 0.0
C2070 C 0.7086 0.69573 0.09843 0.0
C2071 C 0.8154 0.63493 0.13726 0.0
C2072 C 0.71961 0.56425 0.11993 0.0
C2073 C 0.73925 0.54526 0.10524 0.0
C2074 C 0.72495 0.60409 0.12347 0.0
C2075 C 0.75017 0.62569 0.11187 0.0
C2076 C 0.76809 0.60734 0.0962 0.0
C2077 C 0.76267 0.56724 0.09316 0.0
C2078 C 0.70551 0.62242 0.14045 0.0
C2079 C 0.7946 0.62954 0.0833 0.0
H2080 H 0.73041 0.75983 0.11837 0.0
H2081 H 0.82094 0.70839 0.15028 0.0
H2082 H 0.71705 0.6778 0.08594 0.0
H2083 H 0.6841 0.68113 0.10524 0.0
H2084 H 0.69941 0.72484 0.09332 0.0
H2085 H 0.83956 0.64358 0.1465 0.0
H2086 H 0.79743 0.61415 0.14532 0.0
H2087 H 0.82656 0.61927 0.12461 0.0
H2088 H 0.70133 0.54765 0.12931 0.0
H2089 H 0.77759 0.55296 0.08159 0.0
H2090 H 0.69125 0.64979 0.13619 0.0
H2091 H 0.72685 0.63001 0.15148 0.0
H2092 H 0.68427 0.60266 0.14698 0.0
H2093 H 0.78248 0.65826 0.07945 0.0
H2094 H 0.80091 0.61318 0.06997 0.0
H2095 H 0.82159 0.63505 0.09091 0.0
C2096 C 0.17646 0.02083 0.38008 0.0
C2097 C 0.1928 0.01675 0.36192 0.0
C2098 C 0.13726 0.02449 0.38238 0.0
C2099 C 0.11335 0.02367 0.36614 0.0
C2100 C 0.12954 0.0197 0.34772 0.0
C2101 C 0.16911 0.01651 0.3458 0.0
C2102 C 0.12144 0.02904 0.40231 0.0
C2103 C 0.10503 0.01827 0.33008 0.0
C2104 C 0.01403 0.99549 0.38094 0.0
C2105 C 0.99742 0.03209 0.38372 0.0
C2106 C 0.05066 0.99207 0.3734 0.0
C2107 C 0.07148 0.02614 0.36888 0.0
C2108 C 0.05356 0.06296 0.37017 0.0
C2109 C 0.01663 0.06547 0.37752 0.0
C2110 C 0.06825 0.95217 0.37198 0.0
C2111 C 0.0746 0.10007 0.36562 0.0
H2112 H 0.19439 0.02137 0.39264 0.0
H2113 H 0.18141 0.01331 0.33172 0.0
H2114 H 0.10433 0.05602 0.40324 0.0
H2115 H 0.10247 1.0042 0.40565 0.0
H2116 H 0.14391 0.03037 0.41338 0.0
H2117 H 0.12193 0.01616 0.31676 0.0
H2118 H 0.08578 0.99277 0.33084 0.0
H2119 H 0.08709 0.04467 0.32932 0.0
H2120 H 0.99931 0.96968 0.38591 0.0
H2121 H 1.00407 0.09383 0.37996 0.0
H2122 H 0.08848 0.94817 0.38393 0.0
H2123 H 0.08423 0.94906 0.35844 0.0
H2124 H 0.04671 0.92863 0.37276 0.0
H2125 H 0.095 0.10642 0.37727 0.0
H2126 H 0.05522 0.12531 0.36421 0.0
H2127 H 0.09095 0.09696 0.3522 0.0
C2128 C 0.27593 0.77688 0.3823 0.0
C2129 C 0.24686 0.78926 0.37013 0.0
C2130 C 0.27405 0.74041 0.39131 0.0
C2131 C 0.24262 0.7158 0.38782 0.0
C2132 C 0.21118 0.73034 0.37759 0.0
C2133 C 0.21359 0.7671 0.36898 0.0
C2134 C 0.30774 0.72645 0.40257 0.0
C2135 C 0.17697 0.70528 0.3736 0.0
C2136 C 0.26712 0.61036 0.37835 0.0
C2137 C 0.25423 0.59175 0.39491 0.0
C2138 C 0.2632 0.65058 0.37596 0.0
C2139 C 0.24644 0.67307 0.39066 0.0
C2140 C 0.23343 0.65459 0.4075 0.0
C2141 C 0.23723 0.61394 0.40938 0.0
C2142 C 0.27696 0.66893 0.3576 0.0
C2143 C 0.21598 0.67774 0.42355 0.0
H2144 H 0.30168 0.79389 0.38337 0.0
H2145 H 0.19067 0.77703 0.35994 0.0
H2146 H 0.29876 0.70893 0.41508 0.0
H2147 H 0.32544 0.70757 0.39334 0.0
H2148 H 0.32544 0.75117 0.40763 0.0
H2149 H 0.15234 0.72303 0.36906 0.0
H2150 H 0.18371 0.6845 0.36193 0.0
H2151 H 0.16895 0.68799 0.38634 0.0
H2152 H 0.28002 0.59338 0.36704 0.0
H2153 H 0.2274 0.59965 0.42226 0.0
H2154 H 0.29936 0.69065 0.36076 0.0
H2155 H 0.25345 0.68453 0.35046 0.0
H2156 H 0.28853 0.64712 0.34744 0.0
H2157 H 0.23697 0.69877 0.42929 0.0
H2158 H 0.20608 0.65884 0.43541 0.0
H2159 H 0.19174 0.69495 0.41817 0.0
C2160 C 0.52116 0.04798 0.13603 0.0
C2161 C 0.49486 0.01963 0.13057 0.0
C2162 C 0.55572 0.03712 0.14421 0.0
C2163 C 0.56354 0.99708 0.14704 0.0
C2164 C 0.53441 0.96925 0.14451 0.0
C2165 C 0.50039 0.98081 0.13597 0.0
C2166 C 0.58576 0.06786 0.14698 0.0
C2167 C 0.54101 0.92656 0.14826 0.0
C2168 C 0.66001 0.96834 0.12892 0.0
C2169 C 0.68142 0.96711 0.14576 0.0
C2170 C 0.62147 0.97702 0.12934 0.0
C2171 C 0.6035 0.98397 0.14711 0.0
C2172 C 0.62438 0.98058 0.16429 0.0
C2173 C 0.6633 0.9726 0.1634 0.0
C2174 C 0.60038 0.98032 0.11059 0.0
C2175 C 0.60619 0.98679 0.18353 0.0
H2176 H 0.51678 0.07798 0.13172 0.0
H2177 H 0.4799 0.95894 0.13168 0.0
H2178 H 0.60185 0.06266 0.16033 0.0
H2179 H 0.60599 0.06656 0.13488 0.0
H2180 H 0.57352 0.09762 0.1475 0.0
H2181 H 0.51393 0.91063 0.15022 0.0
H2182 H 0.55599 0.91352 0.13589 0.0
H2183 H 0.55888 0.92238 0.16113 0.0
H2184 H 0.67364 0.96398 0.11523 0.0
H2185 H 0.67959 0.97149 0.17651 0.0
H2186 H 0.58881 0.01016 0.10898 0.0
H2187 H 0.57621 0.95972 0.11034 0.0
H2188 H 0.61863 0.97404 0.09806 0.0
H2189 H 0.60539 0.01843 0.18673 0.0
H2190 H 0.62245 0.97229 0.19508 0.0
H2191 H 0.57673 0.97569 0.18374 0.0
C2192 C 0.27657 0.43047 0.88071 0.0
C2193 C 0.26376 0.45186 0.89659 0.0
C2194 C 0.27412 0.38964 0.88009 0.0
C2195 C 0.25835 0.36917 0.89572 0.0
C2196 C 0.24505 0.39043 0.91176 0.0
C2197 C 0.24795 0.43148 0.91203 0.0
C2198 C 0.28885 0.36837 0.86272 0.0
C2199 C 0.22798 0.36976 0.9287 0.0
C2200 C 0.22724 0.26414 0.88592 0.0
C2201 C 0.25831 0.24285 0.89268 0.0
C2202 C 0.22638 0.30516 0.88725 0.0
C2203 C 0.25738 0.32549 0.89542 0.0
C2204 C 0.28867 0.30408 0.90234 0.0
C2205 C 0.28872 0.26322 0.90092 0.0
C2206 C 0.19245 0.32679 0.87971 0.0
C2207 C 0.3225 0.32441 0.911 0.0
H2208 H 0.2888 0.44562 0.86862 0.0
H2209 H 0.23778 0.44756 0.92432 0.0
H2210 H 0.3122 0.34866 0.86695 0.0
H2211 H 0.26622 0.35 0.85642 0.0
H2212 H 0.29945 0.38858 0.85155 0.0
H2213 H 0.21779 0.39039 0.93979 0.0
H2214 H 0.20396 0.35128 0.92398 0.0
H2215 H 0.24923 0.35017 0.93525 0.0
H2216 H 0.20352 0.24877 0.87963 0.0
H2217 H 0.31289 0.24721 0.90622 0.0
H2218 H 0.20105 0.34585 0.86768 0.0
H2219 H 0.18066 0.3459 0.89102 0.0
H2220 H 0.16987 0.30677 0.87463 0.0
H2221 H 0.33594 0.34351 0.90017 0.0
H2222 H 0.34399 0.30356 0.91635 0.0
H2223 H 0.31348 0.34331 0.92302 0.0
C2224 C 0.98107 0.94438 0.6218 0.0
C2225 C 0.99988 0.9761 0.61356 0.0
C2226 C 0.94762 0.94992 0.63226 0.0
C2227 C 0.93305 0.98807 0.63458 0.0
C2228 C 0.9544 0.02038 0.62807 0.0
C2229 C 0.98739 0.01396 0.61745 0.0
C2230 C 0.92583 0.91464 0.63891 0.0
C2231 C 0.94036 0.06157 0.63049 0.0
C2232 C 0.82751 1.00141 0.62925 0.0
C2233 C 0.81569 1.00787 0.64812 0.0
C2234 C 0.86537 0.99417 0.62488 0.0
C2235 C 0.89258 0.99368 0.63971 0.0
C2236 C 0.88097 0.99972 0.65888 0.0
C2237 C 0.8425 1.00653 0.66289 0.0
C2238 C 0.87626 0.98745 0.60424 0.0
C2239 C 0.90924 0.99977 0.67501 0.0
H2240 H 0.99065 0.91508 0.61867 0.0
H2241 H 1.00207 0.03847 0.61108 0.0
H2242 H 0.91329 0.9197 0.65321 0.0
H2243 H 0.90231 0.90884 0.6288 0.0
H2244 H 0.94396 0.8883 0.63953 0.0
H2245 H 0.96318 0.08328 0.6281 0.0
H2246 H 0.91748 0.06715 0.62 0.0
H2247 H 0.92845 0.06599 0.64499 0.0
H2248 H 0.80701 1.00184 0.61774 0.0
H2249 H 0.83357 0.01146 0.6775 0.0
H2250 H 0.89113 0.9592 0.60275 0.0
H2251 H 0.89595 0.01065 0.59946 0.0
H2252 H 0.85141 0.98729 0.59453 0.0
H2253 H 0.92635 0.97276 0.67467 0.0
H2254 H 0.89544 1.00219 0.68922 0.0
H2255 H 0.92902 0.02462 0.67327 0.0
loop_
_geom_bond_atom_site_label_1
_geom_bond_atom_site_label_2
_geom_bond_distance
_geom_bond_site_symmetry_2
_ccdc_geom_bond_type
O0 Tb1 2.292 . S
O0 C3 1.255 . S
Tb1 O0 2.292 . S
Tb1 O17 2.326 . S
Tb1 O19 2.500 . S
Tb1 O20 2.473 . S
Tb1 O23 2.324 . S
Eu2 O6 2.292 . S
Eu2 C7 2.852 . S
Eu2 O18 2.324 . S
Eu2 O22 2.326 . S
Eu2 O24 2.500 . S
Eu2 O25 2.473 . S
C3 O0 1.255 . S
C3 O4 1.247 . S
O4 C3 1.247 . S
C5 O17 1.242 . S
C5 O18 1.258 . S
O6 Eu2 2.292 . S
O6 C8 1.255 . S
C7 Eu2 2.852 . S
C7 C11 1.503 . S
C7 O24 1.273 . S
C7 O25 1.257 . S
C8 O6 1.255 . S
C8 O9 1.247 . S
O9 C8 1.247 . S
C10 O22 1.242 . S
C10 O23 1.258 . S
C11 C7 1.503 . S
C11 C12 1.379 . S
C11 C16 1.392 . S
C12 C11 1.379 . S
C12 C13 1.404 . S
C12 H26 0.929 . S
C13 C12 1.404 . S
C13 C14 1.389 . S
C14 C13 1.389 . S
C14 C15 1.399 . S
C14 H27 0.931 . S
C15 C14 1.399 . S
C15 C16 1.390 . S
C16 C11 1.392 . S
C16 C15 1.390 . S
C16 H28 0.929 . S
O17 Tb1 2.326 . S
O17 C5 1.242 . S
O18 Eu2 2.324 . S
O18 C5 1.258 . S
O19 Tb1 2.500 . S
O19 C21 1.273 . S
O20 Tb1 2.473 . S
O20 C21 1.257 . S
C21 O19 1.273 . S
C21 O20 1.257 . S
O22 Eu2 2.326 . S
O22 C10 1.242 . S
O23 Tb1 2.324 . S
O23 C10 1.258 . S
O24 Eu2 2.500 . S
O24 C7 1.273 . S
O25 Eu2 2.473 . S
O25 C7 1.257 . S
H26 C12 0.929 . S
H27 C14 0.931 . S
H28 C16 0.929 . S
O29 Tb30 2.292 . S
O29 C32 1.255 . S
Tb30 O29 2.292 . S
Tb30 O46 2.326 . S
Tb30 O48 2.500 . S
Tb30 O49 2.473 . S
Tb30 O52 2.324 . S
Eu31 O35 2.292 . S
Eu31 C36 2.852 . S
Eu31 O47 2.324 . S
Eu31 O51 2.326 . S
Eu31 O53 2.500 . S
Eu31 O54 2.473 . S
C32 O29 1.255 . S
C32 O33 1.247 . S
O33 C32 1.247 . S
C34 O46 1.242 . S
C34 O47 1.258 . S
O35 Eu31 2.292 . S
O35 C37 1.255 . S
C36 Eu31 2.852 . S
C36 C40 1.503 . S
C36 O53 1.273 . S
C36 O54 1.257 . S
C37 O35 1.255 . S
C37 O38 1.247 . S
O38 C37 1.247 . S
C39 O51 1.242 . S
C39 O52 1.258 . S
C40 C36 1.503 . S
C40 C41 1.379 . S
C40 C45 1.392 . S
C41 C40 1.379 . S
C41 C42 1.404 . S
C41 H55 0.929 . S
C42 C41 1.404 . S
C42 C43 1.389 . S
C43 C42 1.389 . S
C43 C44 1.399 . S
C43 H56 0.931 . S
C44 C43 1.399 . S
C44 C45 1.390 . S
C45 C40 1.392 . S
C45 C44 1.390 . S
C45 H57 0.929 . S
O46 Tb30 2.326 . S
O46 C34 1.242 . S
O47 Eu31 2.324 . S
O47 C34 1.258 . S
O48 Tb30 2.500 . S
O48 C50 1.273 . S
O49 Tb30 2.473 . S
O49 C50 1.257 . S
C50 O48 1.273 . S
C50 O49 1.257 . S
O51 Eu31 2.326 . S
O51 C39 1.242 . S
O52 Tb30 2.324 . S
O52 C39 1.258 . S
O53 Eu31 2.500 . S
O53 C36 1.273 . S
O54 Eu31 2.473 . S
O54 C36 1.257 . S
H55 C41 0.929 . S
H56 C43 0.931 . S
H57 C45 0.929 . S
O58 Tb59 2.292 . S
O58 C61 1.255 . S
Tb59 O58 2.292 . S
Tb59 O75 2.326 . S
Tb59 O77 2.500 . S
Tb59 O78 2.473 . S
Tb59 O81 2.306 1_565 S
Eu60 O64 2.292 . S
Eu60 C65 2.852 . S
Eu60 O76 2.324 . S
Eu60 O80 2.326 . S
Eu60 O82 2.500 . S
Eu60 O83 2.473 . S
C61 O58 1.255 . S
C61 O62 1.247 . S
O62 C61 1.247 . S
C63 O75 1.242 . S
C63 O76 1.258 . S
O64 Eu60 2.292 . S
O64 C66 1.255 . S
C65 Eu60 2.852 . S
C65 C69 1.503 . S
C65 O82 1.273 . S
C65 O83 1.257 . S
C66 O64 1.255 . S
C66 O67 1.247 . S
O67 C66 1.247 . S
C68 O80 1.247 . S
C68 O81 1.258 1_565 S
C69 C65 1.503 . S
C69 C70 1.379 . S
C69 C74 1.392 . S
C70 C69 1.379 . S
C70 C71 1.404 . S
C70 H84 0.929 . S
C71 C70 1.404 . S
C71 C72 1.389 . S
C72 C71 1.389 . S
C72 C73 1.399 . S
C72 H85 0.931 1_455 S
C73 C72 1.399 . S
C73 C74 1.390 . S
C74 C69 1.392 . S
C74 C73 1.390 . S
C74 H86 0.929 . S
O75 Tb59 2.326 . S
O75 C63 1.242 . S
O76 Eu60 2.324 . S
O76 C63 1.258 . S
O77 Tb59 2.500 . S
O77 C79 1.273 . S
O78 Tb59 2.473 . S
O78 C79 1.257 . S
C79 O77 1.273 . S
C79 O78 1.257 . S
O80 Eu60 2.326 . S
O80 C68 1.247 . S
O81 Tb59 2.306 1_545 S
O81 C68 1.258 1_545 S
O82 Eu60 2.500 . S
O82 C65 1.273 . S
O83 Eu60 2.473 . S
O83 C65 1.257 . S
H84 C70 0.929 . S
H85 C72 0.931 1_655 S
H86 C74 0.929 . S
O87 Tb88 2.292 . S
O87 C90 1.255 . S
Tb88 O87 2.292 . S
Tb88 O104 2.326 . S
Tb88 O106 2.500 . S
Tb88 O107 2.473 . S
Tb88 O110 2.324 . S
Eu89 O93 2.292 . S
Eu89 C94 2.852 . S
Eu89 O105 2.324 . S
Eu89 O109 2.326 . S
Eu89 O111 2.500 . S
Eu89 O112 2.473 . S
C90 O87 1.255 . S
C90 O91 1.247 . S
O91 C90 1.247 . S
C92 O104 1.242 . S
C92 O105 1.258 . S
O93 Eu89 2.292 . S
O93 C95 1.255 . S
C94 Eu89 2.852 . S
C94 C98 1.503 . S
C94 O111 1.273 . S
C94 O112 1.257 . S
C95 O93 1.255 . S
C95 O96 1.247 . S
O96 C95 1.247 . S
C97 O109 1.242 . S
C97 O110 1.258 . S
C98 C94 1.503 . S
C98 C99 1.379 . S
C98 C103 1.392 . S
C99 C98 1.379 . S
C99 C100 1.404 . S
C99 H113 0.929 . S
C100 C99 1.404 . S
C100 C101 1.389 . S
C101 C100 1.389 . S
C101 C102 1.399 . S
C101 H114 0.931 . S
C102 C101 1.399 . S
C102 C103 1.390 . S
C103 C98 1.392 . S
C103 C102 1.390 . S
C103 H115 0.929 . S
O104 Tb88 2.326 . S
O104 C92 1.242 . S
O105 Eu89 2.324 . S
O105 C92 1.258 . S
O106 Tb88 2.500 . S
O106 C108 1.273 . S
O107 Tb88 2.473 . S
O107 C108 1.257 . S
C108 O106 1.273 . S
C108 O107 1.257 . S
O109 Eu89 2.326 . S
O109 C97 1.242 . S
O110 Tb88 2.324 . S
O110 C97 1.258 . S
O111 Eu89 2.500 . S
O111 C94 1.273 . S
O112 Eu89 2.473 . S
O112 C94 1.257 . S
H113 C99 0.929 . S
H114 C101 0.931 . S
H115 C103 0.929 . S
O116 Tb117 2.292 . S
O116 C119 1.255 . S
Tb117 O116 2.292 . S
Tb117 O133 2.326 . S
Tb117 O135 2.500 . S
Tb117 O136 2.473 . S
Tb117 O139 2.324 1_565 S
Eu118 O122 2.292 . S
Eu118 C123 2.852 . S
Eu118 O134 2.324 . S
Eu118 O138 2.326 . S
Eu118 O140 2.500 . S
Eu118 O141 2.473 . S
C119 O116 1.255 . S
C119 O120 1.247 . S
O120 C119 1.247 . S
C121 O133 1.242 . S
C121 O134 1.258 . S
O122 Eu118 2.292 . S
O122 C124 1.255 . S
C123 Eu118 2.852 . S
C123 C127 1.503 . S
C123 O140 1.273 . S
C123 O141 1.257 . S
C124 O122 1.255 . S
C124 O125 1.247 . S
O125 C124 1.247 . S
C126 O138 1.242 1_545 S
C126 O139 1.258 . S
C127 C123 1.503 . S
C127 C128 1.379 . S
C127 C132 1.392 . S
C128 C127 1.379 . S
C128 C129 1.404 . S
C128 H142 0.929 . S
C129 C128 1.404 . S
C129 C130 1.389 . S
C130 C129 1.389 . S
C130 C131 1.399 . S
C130 H143 0.931 . S
C131 C130 1.399 . S
C131 C132 1.390 . S
C132 C127 1.392 . S
C132 C131 1.390 . S
C132 H144 0.929 . S
O133 Tb117 2.326 . S
O133 C121 1.242 . S
O134 Eu118 2.324 . S
O134 C121 1.258 . S
O135 Tb117 2.500 . S
O135 C137 1.273 . S
O136 Tb117 2.473 . S
O136 C137 1.257 . S
C137 O135 1.273 . S
C137 O136 1.257 . S
O138 Eu118 2.326 . S
O138 C126 1.242 1_565 S
O139 Tb117 2.324 1_545 S
O139 C126 1.258 . S
O140 Eu118 2.500 . S
O140 C123 1.273 . S
O141 Eu118 2.473 . S
O141 C123 1.257 . S
H142 C128 0.929 . S
H143 C130 0.931 . S
H144 C132 0.929 . S
O145 Tb146 2.292 . S
O145 C148 1.255 . S
Tb146 O145 2.292 . S
Tb146 O162 2.326 . S
Tb146 O164 2.500 . S
Tb146 O165 2.473 . S
Tb146 O168 2.324 . S
Eu147 O151 2.292 . S
Eu147 C152 2.852 . S
Eu147 O163 2.324 . S
Eu147 O167 2.326 . S
Eu147 O169 2.500 . S
Eu147 O170 2.473 . S
C148 O145 1.255 . S
C148 O149 1.247 . S
O149 C148 1.247 . S
C150 O162 1.242 . S
C150 O163 1.258 . S
O151 Eu147 2.292 . S
O151 C153 1.255 . S
C152 Eu147 2.852 . S
C152 C156 1.503 . S
C152 O169 1.273 . S
C152 O170 1.257 . S
C153 O151 1.255 . S
C153 O154 1.247 . S
O154 C153 1.247 . S
C155 O167 1.242 . S
C155 O168 1.258 . S
C156 C152 1.503 . S
C156 C157 1.379 . S
C156 C161 1.392 . S
C157 C156 1.379 . S
C157 C158 1.404 . S
C157 H171 0.929 . S
C158 C157 1.404 . S
C158 C159 1.389 . S
C159 C158 1.389 . S
C159 C160 1.399 . S
C159 H172 0.931 . S
C160 C159 1.399 . S
C160 C161 1.390 . S
C161 C156 1.392 . S
C161 C160 1.390 . S
C161 H173 0.929 . S
O162 Tb146 2.326 . S
O162 C150 1.242 . S
O163 Eu147 2.324 . S
O163 C150 1.258 . S
O164 Tb146 2.500 . S
O164 C166 1.273 . S
O165 Tb146 2.473 . S
O165 C166 1.257 . S
C166 O164 1.273 . S
C166 O165 1.257 . S
O167 Eu147 2.326 . S
O167 C155 1.242 . S
O168 Tb146 2.324 . S
O168 C155 1.258 . S
O169 Eu147 2.500 . S
O169 C152 1.273 . S
O170 Eu147 2.473 . S
O170 C152 1.257 . S
H171 C157 0.929 . S
H172 C159 0.931 . S
H173 C161 0.929 . S
O174 Tb175 2.292 . S
O174 C177 1.255 . S
Tb175 O174 2.292 . S
Tb175 O191 2.326 . S
Tb175 O193 2.500 . S
Tb175 O194 2.473 . S
Tb175 O197 2.324 1_545 S
Eu176 O180 2.292 . S
Eu176 C181 2.852 . S
Eu176 O192 2.324 . S
Eu176 O196 2.326 . S
Eu176 O198 2.500 . S
Eu176 O199 2.473 . S
C177 O174 1.255 . S
C177 O178 1.247 . S
O178 C177 1.247 . S
C179 O191 1.242 . S
C179 O192 1.258 . S
O180 Eu176 2.292 . S
O180 C182 1.255 . S
C181 Eu176 2.852 . S
C181 C185 1.503 . S
C181 O198 1.273 . S
C181 O199 1.257 . S
C182 O180 1.255 . S
C182 O183 1.247 . S
O183 C182 1.247 . S
C184 O196 1.242 1_565 S
C184 O197 1.258 . S
C185 C181 1.503 . S
C185 C186 1.379 . S
C185 C190 1.392 . S
C186 C185 1.379 . S
C186 C187 1.404 . S
C186 H200 0.929 . S
C187 C186 1.404 . S
C187 C188 1.389 . S
C188 C187 1.389 . S
C188 C189 1.399 . S
C188 H201 0.931 1_655 S
C189 C188 1.399 . S
C189 C190 1.390 . S
C190 C185 1.392 . S
C190 C189 1.390 . S
C190 H202 0.929 . S
O191 Tb175 2.326 . S
O191 C179 1.242 . S
O192 Eu176 2.324 . S
O192 C179 1.258 . S
O193 Tb175 2.500 . S
O193 C195 1.273 . S
O194 Tb175 2.473 . S
O194 C195 1.257 . S
C195 O193 1.273 . S
C195 O194 1.257 . S
O196 Eu176 2.326 . S
O196 C184 1.242 1_545 S
O197 Tb175 2.324 1_565 S
O197 C184 1.258 . S
O198 Eu176 2.500 . S
O198 C181 1.273 . S
O199 Eu176 2.473 . S
O199 C181 1.257 . S
H200 C186 0.929 . S
H201 C188 0.931 1_455 S
H202 C190 0.929 . S
O203 Tb204 2.292 . S
O203 C206 1.255 . S
Tb204 O203 2.292 . S
Tb204 O220 2.326 . S
Tb204 O222 2.500 . S
Tb204 O223 2.473 . S
Tb204 O226 2.324 . S
Eu205 O209 2.292 . S
Eu205 C210 2.852 . S
Eu205 O221 2.324 . S
Eu205 O225 2.326 . S
Eu205 O227 2.500 . S
Eu205 O228 2.473 . S
C206 O203 1.255 . S
C206 O207 1.247 . S
O207 C206 1.247 . S
C208 O220 1.242 . S
C208 O221 1.258 . S
O209 Eu205 2.292 . S
O209 C211 1.255 . S
C210 Eu205 2.852 . S
C210 C214 1.503 . S
C210 O227 1.273 . S
C210 O228 1.257 . S
C211 O209 1.255 . S
C211 O212 1.247 . S
O212 C211 1.247 . S
C213 O225 1.242 . S
C213 O226 1.258 . S
C214 C210 1.503 . S
C214 C215 1.379 . S
C214 C219 1.392 . S
C215 C214 1.379 . S
C215 C216 1.404 . S
C215 H229 0.929 . S
C216 C215 1.404 . S
C216 C217 1.389 . S
C217 C216 1.389 . S
C217 C218 1.399 . S
C217 H230 0.931 . S
C218 C217 1.399 . S
C218 C219 1.390 . S
C219 C214 1.392 . S
C219 C218 1.390 . S
C219 H231 0.929 . S
O220 Tb204 2.326 . S
O220 C208 1.242 . S
O221 Eu205 2.324 . S
O221 C208 1.258 . S
O222 Tb204 2.500 . S
O222 C224 1.273 . S
O223 Tb204 2.473 . S
O223 C224 1.257 . S
C224 O222 1.273 . S
C224 O223 1.257 . S
O225 Eu205 2.326 . S
O225 C213 1.242 . S
O226 Tb204 2.324 . S
O226 C213 1.258 . S
O227 Eu205 2.500 . S
O227 C210 1.273 . S
O228 Eu205 2.473 . S
O228 C210 1.257 . S
H229 C215 0.929 . S
H230 C217 0.931 . S
H231 C219 0.929 . S
O232 Tb233 2.292 . S
O232 C235 1.255 . S
Tb233 O232 2.292 . S
Tb233 O249 2.326 . S
Tb233 O251 2.500 . S
Tb233 O252 2.473 . S
Tb233 O255 2.324 . S
Eu234 O238 2.292 . S
Eu234 C239 2.852 . S
Eu234 O250 2.324 . S
Eu234 O254 2.326 . S
Eu234 O256 2.500 . S
Eu234 O257 2.473 . S
C235 O232 1.255 . S
C235 O236 1.247 . S
O236 C235 1.247 . S
C237 O249 1.242 . S
C237 O250 1.258 . S
O238 Eu234 2.292 . S
O238 C240 1.255 . S
C239 Eu234 2.852 . S
C239 C243 1.503 . S
C239 O256 1.273 . S
C239 O257 1.257 . S
C240 O238 1.255 . S
C240 O241 1.247 . S
O241 C240 1.247 . S
C242 O254 1.242 . S
C242 O255 1.258 . S
C243 C239 1.503 . S
C243 C244 1.379 . S
C243 C248 1.392 . S
C244 C243 1.379 . S
C244 C245 1.404 . S
C244 H258 0.929 . S
C245 C244 1.404 . S
C245 C246 1.389 . S
C246 C245 1.389 . S
C246 C247 1.399 . S
C246 H259 0.931 1_655 S
C247 C246 1.399 . S
C247 C248 1.390 . S
C248 C243 1.392 . S
C248 C247 1.390 . S
C248 H260 0.929 . S
O249 Tb233 2.326 . S
O249 C237 1.242 . S
O250 Eu234 2.324 . S
O250 C237 1.258 . S
O251 Tb233 2.500 . S
O251 C253 1.273 . S
O252 Tb233 2.473 . S
O252 C253 1.257 . S
C253 O251 1.273 . S
C253 O252 1.257 . S
O254 Eu234 2.326 . S
O254 C242 1.242 . S
O255 Tb233 2.324 . S
O255 C242 1.258 . S
O256 Eu234 2.500 . S
O256 C239 1.273 . S
O257 Eu234 2.473 . S
O257 C239 1.257 . S
H258 C244 0.929 . S
H259 C246 0.931 1_455 S
H260 C248 0.929 . S
O261 Tb262 2.292 . S
O261 C264 1.255 . S
Tb262 O261 2.292 . S
Tb262 O278 2.326 . S
Tb262 O280 2.500 . S
Tb262 O281 2.473 . S
Tb262 O284 2.324 . S
Eu263 O267 2.292 1_545 S
Eu263 C268 2.852 . S
Eu263 O279 2.324 . S
Eu263 O283 2.326 . S
Eu263 O285 2.500 . S
Eu263 O286 2.473 . S
C264 O261 1.255 . S
C264 O265 1.247 . S
O265 C264 1.247 . S
C266 O278 1.242 . S
C266 O279 1.258 . S
O267 Eu263 2.292 1_565 S
O267 C269 1.255 . S
C268 Eu263 2.852 . S
C268 C272 1.503 . S
C268 O285 1.273 . S
C268 O286 1.257 . S
C269 O267 1.255 . S
C269 O270 1.247 . S
O270 C269 1.247 . S
C271 O283 1.242 . S
C271 O284 1.258 . S
C272 C268 1.503 . S
C272 C273 1.379 . S
C272 C277 1.392 . S
C273 C272 1.379 . S
C273 C274 1.404 . S
C273 H287 0.929 . S
C274 C273 1.404 . S
C274 C275 1.389 . S
C275 C274 1.389 . S
C275 C276 1.399 . S
C275 H288 0.931 . S
C276 C275 1.399 . S
C276 C277 1.390 . S
C277 C272 1.392 . S
C277 C276 1.390 . S
C277 H289 0.929 . S
O278 Tb262 2.326 . S
O278 C266 1.242 . S
O279 Eu263 2.324 . S
O279 C266 1.258 . S
O280 Tb262 2.500 . S
O280 C282 1.273 . S
O281 Tb262 2.473 . S
O281 C282 1.257 . S
C282 O280 1.273 . S
C282 O281 1.257 . S
O283 Eu263 2.326 . S
O283 C271 1.242 . S
O284 Tb262 2.324 . S
O284 C271 1.258 . S
O285 Eu263 2.500 . S
O285 C268 1.273 . S
O286 Eu263 2.473 . S
O286 C268 1.257 . S
H287 C273 0.929 . S
H288 C275 0.931 . S
H289 C277 0.929 . S
O290 Tb291 2.292 . S
O290 C293 1.255 . S
Tb291 O290 2.292 . S
Tb291 O307 2.326 . S
Tb291 O309 2.500 . S
Tb291 O310 2.473 . S
Tb291 O313 2.324 . S
Eu292 O296 2.292 . S
Eu292 C297 2.852 . S
Eu292 O308 2.324 . S
Eu292 O312 2.326 . S
Eu292 O314 2.500 . S
Eu292 O315 2.473 . S
C293 O290 1.255 . S
C293 O294 1.247 . S
O294 C293 1.247 . S
C295 O307 1.242 . S
C295 O308 1.258 . S
O296 Eu292 2.292 . S
O296 C298 1.255 . S
C297 Eu292 2.852 . S
C297 C301 1.503 . S
C297 O314 1.273 . S
C297 O315 1.257 . S
C298 O296 1.255 . S
C298 O299 1.247 . S
O299 C298 1.247 . S
C300 O312 1.242 . S
C300 O313 1.258 . S
C301 C297 1.503 . S
C301 C302 1.379 . S
C301 C306 1.392 . S
C302 C301 1.379 . S
C302 C303 1.404 . S
C302 H316 0.929 . S
C303 C302 1.404 . S
C303 C304 1.389 . S
C304 C303 1.389 . S
C304 C305 1.399 . S
C304 H317 0.931 . S
C305 C304 1.399 . S
C305 C306 1.390 . S
C306 C301 1.392 . S
C306 C305 1.390 . S
C306 H318 0.929 . S
O307 Tb291 2.326 . S
O307 C295 1.242 . S
O308 Eu292 2.324 . S
O308 C295 1.258 . S
O309 Tb291 2.500 . S
O309 C311 1.273 . S
O310 Tb291 2.473 . S
O310 C311 1.257 . S
C311 O309 1.273 . S
C311 O310 1.257 . S
O312 Eu292 2.326 . S
O312 C300 1.242 . S
O313 Tb291 2.324 . S
O313 C300 1.258 . S
O314 Eu292 2.500 . S
O314 C297 1.273 . S
O315 Eu292 2.473 . S
O315 C297 1.257 . S
H316 C302 0.929 . S
H317 C304 0.931 . S
H318 C306 0.929 . S
O319 Tb320 2.292 . S
O319 C322 1.255 1_545 S
Tb320 O319 2.292 . S
Tb320 O336 2.326 1_545 S
Tb320 O338 2.500 . S
Tb320 O339 2.473 . S
Tb320 O342 2.324 1_545 S
Eu321 O325 2.292 . S
Eu321 C326 2.852 . S
Eu321 O337 2.324 . S
Eu321 O341 2.326 . S
Eu321 O343 2.500 . S
Eu321 O344 2.473 . S
C322 O319 1.255 1_565 S
C322 O323 1.247 . S
O323 C322 1.247 . S
C324 O336 1.242 . S
C324 O337 1.258 . S
O325 Eu321 2.292 . S
O325 C327 1.255 . S
C326 Eu321 2.852 . S
C326 C330 1.503 . S
C326 O343 1.273 . S
C326 O344 1.257 . S
C327 O325 1.255 . S
C327 O328 1.247 . S
O328 C327 1.247 . S
C329 O341 1.242 . S
C329 O342 1.258 . S
C330 C326 1.503 . S
C330 C331 1.379 . S
C330 C335 1.392 . S
C331 C330 1.379 . S
C331 C332 1.404 . S
C331 H345 0.929 . S
C332 C331 1.404 . S
C332 C333 1.389 . S
C333 C332 1.389 . S
C333 C334 1.399 . S
C333 H346 0.931 . S
C334 C333 1.399 . S
C334 C335 1.390 . S
C335 C330 1.392 . S
C335 C334 1.390 . S
C335 H347 0.929 . S
O336 Tb320 2.326 1_565 S
O336 C324 1.242 . S
O337 Eu321 2.324 . S
O337 C324 1.258 . S
O338 Tb320 2.500 . S
O338 C340 1.273 . S
O339 Tb320 2.473 . S
O339 C340 1.257 . S
C340 O338 1.273 . S
C340 O339 1.257 . S
O341 Eu321 2.326 . S
O341 C329 1.242 . S
O342 Tb320 2.324 1_565 S
O342 C329 1.258 . S
O343 Eu321 2.500 . S
O343 C326 1.273 . S
O344 Eu321 2.473 . S
O344 C326 1.257 . S
H345 C331 0.929 . S
H346 C333 0.931 . S
H347 C335 0.929 . S
O348 Tb349 2.292 . S
O348 C351 1.255 . S
Tb349 O348 2.292 . S
Tb349 O365 2.326 . S
Tb349 O367 2.500 . S
Tb349 O368 2.473 . S
Tb349 O371 2.324 . S
Eu350 O354 2.292 . S
Eu350 C355 2.852 . S
Eu350 O366 2.324 . S
Eu350 O370 2.326 . S
Eu350 O372 2.500 . S
Eu350 O373 2.473 . S
C351 O348 1.255 . S
C351 O352 1.247 . S
O352 C351 1.247 . S
C353 O365 1.242 . S
C353 O366 1.258 . S
O354 Eu350 2.292 . S
O354 C356 1.255 . S
C355 Eu350 2.852 . S
C355 C359 1.503 . S
C355 O372 1.273 . S
C355 O373 1.257 . S
C356 O354 1.255 . S
C356 O357 1.247 . S
O357 C356 1.247 . S
C358 O370 1.242 . S
C358 O371 1.258 . S
C359 C355 1.503 . S
C359 C360 1.379 . S
C359 C364 1.392 . S
C360 C359 1.379 . S
C360 C361 1.404 . S
C360 H374 0.929 . S
C361 C360 1.404 . S
C361 C362 1.389 . S
C362 C361 1.389 . S
C362 C363 1.399 . S
C362 H375 0.931 . S
C363 C362 1.399 . S
C363 C364 1.390 . S
C364 C359 1.392 . S
C364 C363 1.390 . S
C364 H376 0.929 . S
O365 Tb349 2.326 . S
O365 C353 1.242 . S
O366 Eu350 2.324 . S
O366 C353 1.258 . S
O367 Tb349 2.500 . S
O367 C369 1.273 . S
O368 Tb349 2.473 . S
O368 C369 1.257 . S
C369 O367 1.273 . S
C369 O368 1.257 . S
O370 Eu350 2.326 . S
O370 C358 1.242 . S
O371 Tb349 2.324 . S
O371 C358 1.258 . S
O372 Eu350 2.500 . S
O372 C355 1.273 . S
O373 Eu350 2.473 . S
O373 C355 1.257 . S
H374 C360 0.929 . S
H375 C362 0.931 . S
H376 C364 0.929 . S
O377 Tb378 2.292 . S
O377 C380 1.255 . S
Tb378 O377 2.292 . S
Tb378 O394 2.326 . S
Tb378 O396 2.500 1_565 S
Tb378 O397 2.473 1_565 S
Tb378 O400 2.324 . S
Eu379 O383 2.292 . S
Eu379 C384 2.852 . S
Eu379 O395 2.324 . S
Eu379 O399 2.326 . S
Eu379 O401 2.500 . S
Eu379 O402 2.473 . S
C380 O377 1.255 . S
C380 O381 1.247 . S
O381 C380 1.247 . S
C382 O394 1.242 . S
C382 O395 1.258 . S
O383 Eu379 2.292 . S
O383 C385 1.255 . S
C384 Eu379 2.852 . S
C384 C388 1.503 . S
C384 O401 1.273 . S
C384 O402 1.257 . S
C385 O383 1.255 . S
C385 O386 1.247 . S
O386 C385 1.247 . S
C387 O399 1.242 . S
C387 O400 1.258 . S
C388 C384 1.503 . S
C388 C389 1.379 . S
C388 C393 1.392 . S
C389 C388 1.379 . S
C389 C390 1.404 . S
C389 H403 0.929 . S
C390 C389 1.404 . S
C390 C391 1.389 . S
C391 C390 1.389 . S
C391 C392 1.399 . S
C391 H404 0.931 . S
C392 C391 1.399 . S
C392 C393 1.390 . S
C393 C388 1.392 . S
C393 C392 1.390 . S
C393 H405 0.929 . S
O394 Tb378 2.326 . S
O394 C382 1.242 . S
O395 Eu379 2.324 . S
O395 C382 1.258 . S
O396 Tb378 2.500 1_545 S
O396 C398 1.273 . S
O397 Tb378 2.473 1_545 S
O397 C398 1.257 . S
C398 O396 1.273 . S
C398 O397 1.257 . S
O399 Eu379 2.326 . S
O399 C387 1.242 . S
O400 Tb378 2.324 . S
O400 C387 1.258 . S
O401 Eu379 2.500 . S
O401 C384 1.273 . S
O402 Eu379 2.473 . S
O402 C384 1.257 . S
H403 C389 0.929 . S
H404 C391 0.931 . S
H405 C393 0.929 . S
O406 Tb407 2.292 . S
O406 C409 1.255 . S
Tb407 O406 2.292 . S
Tb407 O423 2.326 . S
Tb407 O425 2.500 . S
Tb407 O426 2.473 . S
Tb407 O429 2.324 . S
Eu408 O412 2.292 . S
Eu408 C413 2.852 . S
Eu408 O424 2.324 . S
Eu408 O428 2.326 . S
Eu408 O430 2.500 . S
Eu408 O431 2.473 . S
C409 O406 1.255 . S
C409 O410 1.247 . S
O410 C409 1.247 . S
C411 O423 1.242 . S
C411 O424 1.258 . S
O412 Eu408 2.292 . S
O412 C414 1.255 . S
C413 Eu408 2.852 . S
C413 C417 1.503 . S
C413 O430 1.273 . S
C413 O431 1.257 . S
C414 O412 1.255 . S
C414 O415 1.247 . S
O415 C414 1.247 . S
C416 O428 1.242 . S
C416 O429 1.258 . S
C417 C413 1.503 . S
C417 C418 1.379 . S
C417 C422 1.392 . S
C418 C417 1.379 . S
C418 C419 1.404 . S
C418 H432 0.929 . S
C419 C418 1.404 . S
C419 C420 1.389 . S
C420 C419 1.389 . S
C420 C421 1.399 . S
C420 H433 0.931 . S
C421 C420 1.399 . S
C421 C422 1.390 . S
C422 C417 1.392 . S
C422 C421 1.390 . S
C422 H434 0.929 . S
O423 Tb407 2.326 . S
O423 C411 1.242 . S
O424 Eu408 2.324 . S
O424 C411 1.258 . S
O425 Tb407 2.500 . S
O425 C427 1.273 . S
O426 Tb407 2.473 . S
O426 C427 1.257 . S
C427 O425 1.273 . S
C427 O426 1.257 . S
O428 Eu408 2.326 . S
O428 C416 1.242 . S
O429 Tb407 2.324 . S
O429 C416 1.258 . S
O430 Eu408 2.500 . S
O430 C413 1.273 . S
O431 Eu408 2.473 . S
O431 C413 1.257 . S
H432 C418 0.929 . S
H433 C420 0.931 . S
H434 C422 0.929 . S
O435 Tb436 2.292 . S
O435 C438 1.256 . S
Tb436 O435 2.292 . S
Tb436 O452 2.326 . S
Tb436 O454 2.500 1_545 S
Tb436 O455 2.473 1_545 S
Tb436 O458 2.324 . S
Eu437 O441 2.292 . S
Eu437 C442 2.852 . S
Eu437 O453 2.324 . S
Eu437 O457 2.326 . S
Eu437 O459 2.500 . S
Eu437 O460 2.473 . S
C438 O435 1.256 . S
C438 O439 1.247 . S
O439 C438 1.247 . S
C440 O452 1.242 . S
C440 O453 1.258 . S
O441 Eu437 2.292 . S
O441 C443 1.255 . S
C442 Eu437 2.852 . S
C442 C446 1.503 . S
C442 O459 1.273 . S
C442 O460 1.257 . S
C443 O441 1.255 . S
C443 O444 1.247 . S
O444 C443 1.247 . S
C445 O457 1.242 . S
C445 O458 1.258 . S
C446 C442 1.503 . S
C446 C447 1.379 . S
C446 C451 1.392 . S
C447 C446 1.379 . S
C447 C448 1.404 . S
C447 H461 0.929 . S
C448 C447 1.404 . S
C448 C449 1.389 . S
C449 C448 1.389 . S
C449 C450 1.399 . S
C449 H462 0.931 . S
C450 C449 1.399 . S
C450 C451 1.390 . S
C451 C446 1.392 . S
C451 C450 1.390 . S
C451 H463 0.929 . S
O452 Tb436 2.326 . S
O452 C440 1.242 . S
O453 Eu437 2.324 . S
O453 C440 1.258 . S
O454 Tb436 2.500 1_565 S
O454 C456 1.273 . S
O455 Tb436 2.473 1_565 S
O455 C456 1.257 . S
C456 O454 1.273 . S
C456 O455 1.257 . S
O457 Eu437 2.326 . S
O457 C445 1.242 . S
O458 Tb436 2.324 . S
O458 C445 1.258 . S
O459 Eu437 2.500 . S
O459 C442 1.273 . S
O460 Eu437 2.473 . S
O460 C442 1.257 . S
H461 C447 0.929 . S
H462 C449 0.931 . S
H463 C451 0.929 . S
C464 C465 1.391 . S
C464 C466 1.394 . S
C464 H480 0.931 . S
C465 C464 1.391 . S
C465 C469 1.376 . S
C466 C464 1.394 . S
C466 C467 1.369 . S
C466 C470 1.531 . S
C467 C466 1.369 . S
C467 C468 1.410 . S
C467 C475 1.503 . S
C468 C467 1.410 . S
C468 C469 1.392 . S
C468 C471 1.511 . S
C469 C465 1.376 . S
C469 C468 1.392 . S
C469 H481 0.929 . S
C470 C466 1.531 . S
C470 H482 0.960 . S
C470 H483 0.962 . S
C470 H484 0.960 . S
C471 C468 1.511 . S
C471 H485 0.961 . S
C471 H486 0.961 . S
C471 H487 0.961 . S
C472 C473 1.370 . S
C472 C474 1.363 . S
C472 H488 0.931 . S
C473 C472 1.370 . S
C473 C477 1.408 . S
C474 C472 1.363 . S
C474 C475 1.370 . S
C474 C478 1.524 . S
C475 C467 1.503 . S
C475 C474 1.370 . S
C475 C476 1.403 . S
C476 C475 1.403 . S
C476 C477 1.404 . S
C476 C479 1.539 . S
C477 C473 1.408 . S
C477 C476 1.404 . S
C477 H489 0.930 . S
C478 C474 1.524 . S
C478 H490 0.956 . S
C478 H491 0.961 . S
C478 H492 0.961 . S
C479 C476 1.539 . S
C479 H493 0.958 . S
C479 H494 0.961 . S
C479 H495 0.960 . S
H480 C464 0.931 . S
H481 C469 0.929 . S
H482 C470 0.960 . S
H483 C470 0.962 . S
H484 C470 0.960 . S
H485 C471 0.961 . S
H486 C471 0.961 . S
H487 C471 0.961 . S
H488 C472 0.931 . S
H489 C477 0.930 . S
H490 C478 0.956 . S
H491 C478 0.961 . S
H492 C478 0.961 . S
H493 C479 0.958 . S
H494 C479 0.961 . S
H495 C479 0.960 . S
C496 C497 1.391 . S
C496 C498 1.394 . S
C496 H512 0.931 . S
C497 C496 1.391 . S
C497 C501 1.376 . S
C498 C496 1.394 . S
C498 C499 1.369 . S
C498 C502 1.531 . S
C499 C498 1.369 . S
C499 C500 1.410 . S
C499 C507 1.503 . S
C500 C499 1.410 . S
C500 C501 1.392 . S
C500 C503 1.511 . S
C501 C497 1.376 . S
C501 C500 1.392 . S
C501 H513 0.929 . S
C502 C498 1.531 . S
C502 H514 0.960 . S
C502 H515 0.962 . S
C502 H516 0.960 . S
C503 C500 1.511 . S
C503 H517 0.961 . S
C503 H518 0.961 . S
C503 H519 0.961 . S
C504 C505 1.370 . S
C504 C506 1.363 . S
C504 H520 0.931 . S
C505 C504 1.370 . S
C505 C509 1.408 . S
C506 C504 1.363 . S
C506 C507 1.370 . S
C506 C510 1.524 . S
C507 C499 1.503 . S
C507 C506 1.370 . S
C507 C508 1.403 . S
C508 C507 1.403 . S
C508 C509 1.404 . S
C508 C511 1.539 . S
C509 C505 1.408 . S
C509 C508 1.404 . S
C509 H521 0.930 . S
C510 C506 1.524 . S
C510 H522 0.956 . S
C510 H523 0.961 . S
C510 H524 0.961 . S
C511 C508 1.539 . S
C511 H525 0.958 . S
C511 H526 0.961 . S
C511 H527 0.960 . S
H512 C496 0.931 . S
H513 C501 0.929 . S
H514 C502 0.960 . S
H515 C502 0.962 . S
H516 C502 0.960 . S
H517 C503 0.961 . S
H518 C503 0.961 . S
H519 C503 0.961 . S
H520 C504 0.931 . S
H521 C509 0.930 . S
H522 C510 0.956 . S
H523 C510 0.961 . S
H524 C510 0.961 . S
H525 C511 0.958 . S
H526 C511 0.961 . S
H527 C511 0.960 . S
C528 C529 1.391 . S
C528 C530 1.394 . S
C528 H544 0.931 . S
C529 C528 1.391 . S
C529 C533 1.376 . S
C530 C528 1.394 . S
C530 C531 1.369 . S
C530 C534 1.531 . S
C531 C530 1.369 . S
C531 C532 1.410 . S
C531 C539 1.503 . S
C532 C531 1.410 . S
C532 C533 1.392 . S
C532 C535 1.511 . S
C533 C529 1.376 . S
C533 C532 1.392 . S
C533 H545 0.929 . S
C534 C530 1.531 . S
C534 H546 0.960 . S
C534 H547 0.962 . S
C534 H548 0.960 . S
C535 C532 1.511 . S
C535 H549 0.961 . S
C535 H550 0.961 . S
C535 H551 0.961 . S
C536 C537 1.370 . S
C536 C538 1.363 . S
C536 H552 0.931 . S
C537 C536 1.370 . S
C537 C541 1.408 . S
C538 C536 1.363 . S
C538 C539 1.370 . S
C538 C542 1.524 . S
C539 C531 1.503 . S
C539 C538 1.370 . S
C539 C540 1.403 . S
C540 C539 1.403 . S
C540 C541 1.404 . S
C540 C543 1.539 . S
C541 C537 1.408 . S
C541 C540 1.404 . S
C541 H553 0.930 . S
C542 C538 1.524 . S
C542 H554 0.956 . S
C542 H555 0.961 . S
C542 H556 0.961 . S
C543 C540 1.539 . S
C543 H557 0.958 . S
C543 H558 0.961 . S
C543 H559 0.960 . S
H544 C528 0.931 . S
H545 C533 0.929 . S
H546 C534 0.960 . S
H547 C534 0.962 . S
H548 C534 0.960 . S
H549 C535 0.961 . S
H550 C535 0.961 . S
H551 C535 0.961 . S
H552 C536 0.931 . S
H553 C541 0.930 . S
H554 C542 0.956 . S
H555 C542 0.961 . S
H556 C542 0.961 . S
H557 C543 0.958 . S
H558 C543 0.961 . S
H559 C543 0.960 . S
C560 C561 1.391 . S
C560 C562 1.394 . S
C560 H576 0.931 . S
C561 C560 1.391 . S
C561 C565 1.376 . S
C562 C560 1.394 . S
C562 C563 1.369 . S
C562 C566 1.531 . S
C563 C562 1.369 . S
C563 C564 1.410 . S
C563 C571 1.503 . S
C564 C563 1.410 . S
C564 C565 1.392 . S
C564 C567 1.511 . S
C565 C561 1.376 . S
C565 C564 1.392 . S
C565 H577 0.929 . S
C566 C562 1.531 . S
C566 H578 0.960 . S
C566 H579 0.962 . S
C566 H580 0.960 . S
C567 C564 1.511 . S
C567 H581 0.961 . S
C567 H582 0.961 . S
C567 H583 0.961 . S
C568 C569 1.370 . S
C568 C570 1.363 . S
C568 H584 0.931 . S
C569 C568 1.370 . S
C569 C573 1.408 . S
C570 C568 1.363 . S
C570 C571 1.370 1_655 S
C570 C574 1.524 1_655 S
C571 C563 1.503 . S
C571 C570 1.370 1_455 S
C571 C572 1.403 . S
C572 C571 1.403 . S
C572 C573 1.404 1_455 S
C572 C575 1.539 . S
C573 C569 1.408 . S
C573 C572 1.404 1_655 S
C573 H585 0.930 . S
C574 C570 1.524 1_455 S
C574 H586 0.956 . S
C574 H587 0.961 . S
C574 H588 0.961 1_455 S
C575 C572 1.539 . S
C575 H589 0.958 . S
C575 H590 0.961 . S
C575 H591 0.960 . S
H576 C560 0.931 . S
H577 C565 0.929 . S
H578 C566 0.960 . S
H579 C566 0.962 . S
H580 C566 0.960 . S
H581 C567 0.961 . S
H582 C567 0.961 . S
H583 C567 0.961 . S
H584 C568 0.931 . S
H585 C573 0.930 . S
H586 C574 0.956 . S
H587 C574 0.961 . S
H588 C574 0.961 1_655 S
H589 C575 0.958 . S
H590 C575 0.961 . S
H591 C575 0.960 . S
C592 C593 1.391 . S
C592 C594 1.394 . S
C592 H608 0.931 . S
C593 C592 1.391 . S
C593 C597 1.376 . S
C594 C592 1.394 . S
C594 C595 1.369 . S
C594 C598 1.531 . S
C595 C594 1.369 . S
C595 C596 1.410 . S
C595 C603 1.503 . S
C596 C595 1.410 . S
C596 C597 1.392 . S
C596 C599 1.511 . S
C597 C593 1.376 . S
C597 C596 1.392 . S
C597 H609 0.929 . S
C598 C594 1.531 . S
C598 H610 0.960 . S
C598 H611 0.962 . S
C598 H612 0.960 . S
C599 C596 1.511 . S
C599 H613 0.961 . S
C599 H614 0.961 . S
C599 H615 0.961 . S
C600 C601 1.370 . S
C600 C602 1.363 . S
C600 H616 0.931 . S
C601 C600 1.370 . S
C601 C605 1.408 . S
C602 C600 1.363 . S
C602 C603 1.370 . S
C602 C606 1.524 . S
C603 C595 1.503 . S
C603 C602 1.370 . S
C603 C604 1.403 . S
C604 C603 1.403 . S
C604 C605 1.404 . S
C604 C607 1.539 . S
C605 C601 1.408 . S
C605 C604 1.404 . S
C605 H617 0.930 . S
C606 C602 1.524 . S
C606 H618 0.956 . S
C606 H619 0.961 . S
C606 H620 0.961 . S
C607 C604 1.539 . S
C607 H621 0.958 . S
C607 H622 0.961 . S
C607 H623 0.960 . S
H608 C592 0.931 . S
H609 C597 0.929 . S
H610 C598 0.960 . S
H611 C598 0.962 . S
H612 C598 0.960 . S
H613 C599 0.961 . S
H614 C599 0.961 . S
H615 C599 0.961 . S
H616 C600 0.931 . S
H617 C605 0.930 . S
H618 C606 0.956 . S
H619 C606 0.961 . S
H620 C606 0.961 . S
H621 C607 0.958 . S
H622 C607 0.961 . S
H623 C607 0.960 . S
C624 C625 1.391 . S
C624 C626 1.394 . S
C624 H640 0.931 . S
C625 C624 1.391 . S
C625 C629 1.376 . S
C626 C624 1.394 . S
C626 C627 1.369 . S
C626 C630 1.531 . S
C627 C626 1.369 . S
C627 C628 1.410 . S
C627 C635 1.503 . S
C628 C627 1.410 . S
C628 C629 1.392 . S
C628 C631 1.511 . S
C629 C625 1.376 . S
C629 C628 1.392 . S
C629 H641 0.929 . S
C630 C626 1.531 . S
C630 H642 0.960 . S
C630 H643 0.962 . S
C630 H644 0.960 . S
C631 C628 1.511 . S
C631 H645 0.961 . S
C631 H646 0.961 . S
C631 H647 0.961 . S
C632 C633 1.370 . S
C632 C634 1.363 . S
C632 H648 0.931 . S
C633 C632 1.370 . S
C633 C637 1.408 . S
C634 C632 1.363 . S
C634 C635 1.370 . S
C634 C638 1.524 . S
C635 C627 1.503 . S
C635 C634 1.370 . S
C635 C636 1.403 . S
C636 C635 1.403 . S
C636 C637 1.404 . S
C636 C639 1.539 . S
C637 C633 1.408 . S
C637 C636 1.404 . S
C637 H649 0.930 . S
C638 C634 1.524 . S
C638 H650 0.956 . S
C638 H651 0.961 . S
C638 H652 0.961 . S
C639 C636 1.539 . S
C639 H653 0.958 . S
C639 H654 0.961 . S
C639 H655 0.960 . S
H640 C624 0.931 . S
H641 C629 0.929 . S
H642 C630 0.960 . S
H643 C630 0.962 . S
H644 C630 0.960 . S
H645 C631 0.961 . S
H646 C631 0.961 . S
H647 C631 0.961 . S
H648 C632 0.931 . S
H649 C637 0.930 . S
H650 C638 0.956 . S
H651 C638 0.961 . S
H652 C638 0.961 . S
H653 C639 0.958 . S
H654 C639 0.961 . S
H655 C639 0.960 . S
C656 C657 1.391 . S
C656 C658 1.394 . S
C656 H672 0.931 . S
C657 C656 1.391 . S
C657 C661 1.376 . S
C658 C656 1.394 . S
C658 C659 1.369 . S
C658 C662 1.531 . S
C659 C658 1.369 . S
C659 C660 1.410 . S
C659 C667 1.503 . S
C660 C659 1.410 . S
C660 C661 1.392 . S
C660 C663 1.511 . S
C661 C657 1.376 . S
C661 C660 1.392 . S
C661 H673 0.929 . S
C662 C658 1.531 . S
C662 H674 0.960 . S
C662 H675 0.962 . S
C662 H676 0.960 . S
C663 C660 1.511 . S
C663 H677 0.961 . S
C663 H678 0.961 . S
C663 H679 0.961 . S
C664 C665 1.370 . S
C664 C666 1.363 . S
C664 H680 0.931 . S
C665 C664 1.370 . S
C665 C669 1.408 . S
C666 C664 1.363 . S
C666 C667 1.370 . S
C666 C670 1.524 . S
C667 C659 1.503 . S
C667 C666 1.370 . S
C667 C668 1.403 . S
C668 C667 1.403 . S
C668 C669 1.404 . S
C668 C671 1.539 . S
C669 C665 1.408 . S
C669 C668 1.404 . S
C669 H681 0.930 . S
C670 C666 1.524 . S
C670 H682 0.956 . S
C670 H683 0.961 . S
C670 H684 0.961 . S
C671 C668 1.539 . S
C671 H685 0.958 . S
C671 H686 0.961 . S
C671 H687 0.960 . S
H672 C656 0.931 . S
H673 C661 0.929 . S
H674 C662 0.960 . S
H675 C662 0.962 . S
H676 C662 0.960 . S
H677 C663 0.961 . S
H678 C663 0.961 . S
H679 C663 0.961 . S
H680 C664 0.931 . S
H681 C669 0.930 . S
H682 C670 0.956 . S
H683 C670 0.961 . S
H684 C670 0.961 . S
H685 C671 0.958 . S
H686 C671 0.961 . S
H687 C671 0.960 . S
C688 C689 1.391 . S
C688 C690 1.394 . S
C688 H704 0.931 . S
C689 C688 1.391 . S
C689 C693 1.376 . S
C690 C688 1.394 . S
C690 C691 1.369 . S
C690 C694 1.531 . S
C691 C690 1.369 . S
C691 C692 1.410 . S
C691 C699 1.503 . S
C692 C691 1.410 . S
C692 C693 1.392 . S
C692 C695 1.511 . S
C693 C689 1.376 . S
C693 C692 1.392 . S
C693 H705 0.929 . S
C694 C690 1.531 . S
C694 H706 0.960 . S
C694 H707 0.962 . S
C694 H708 0.960 . S
C695 C692 1.511 . S
C695 H709 0.961 . S
C695 H710 0.961 . S
C695 H711 0.961 . S
C696 C697 1.370 . S
C696 C698 1.363 1_455 S
C696 H712 0.931 . S
C697 C696 1.370 . S
C697 C701 1.408 . S
C698 C696 1.363 1_655 S
C698 C699 1.370 . S
C698 C702 1.524 . S
C699 C691 1.503 . S
C699 C698 1.370 . S
C699 C700 1.403 1_655 S
C700 C699 1.403 1_455 S
C700 C701 1.404 . S
C700 C703 1.539 1_455 S
C701 C697 1.408 . S
C701 C700 1.404 . S
C701 H713 0.930 . S
C702 C698 1.524 . S
C702 H714 0.956 . S
C702 H715 0.961 . S
C702 H716 0.961 . S
C703 C700 1.539 1_655 S
C703 H717 0.958 . S
C703 H718 0.961 1_655 S
C703 H719 0.960 . S
H704 C688 0.931 . S
H705 C693 0.929 . S
H706 C694 0.960 . S
H707 C694 0.962 . S
H708 C694 0.960 . S
H709 C695 0.961 . S
H710 C695 0.961 . S
H711 C695 0.961 . S
H712 C696 0.931 . S
H713 C701 0.930 . S
H714 C702 0.956 . S
H715 C702 0.961 . S
H716 C702 0.961 . S
H717 C703 0.958 . S
H718 C703 0.961 1_455 S
H719 C703 0.960 . S
C720 C721 1.391 . S
C720 C722 1.394 . S
C720 H736 0.931 . S
C721 C720 1.391 . S
C721 C725 1.376 . S
C722 C720 1.394 . S
C722 C723 1.369 . S
C722 C726 1.531 . S
C723 C722 1.369 . S
C723 C724 1.410 . S
C723 C731 1.503 . S
C724 C723 1.410 . S
C724 C725 1.392 . S
C724 C727 1.511 . S
C725 C721 1.376 . S
C725 C724 1.392 . S
C725 H737 0.929 . S
C726 C722 1.531 . S
C726 H738 0.960 . S
C726 H739 0.962 . S
C726 H740 0.960 . S
C727 C724 1.511 . S
C727 H741 0.961 . S
C727 H742 0.961 . S
C727 H743 0.961 . S
C728 C729 1.370 . S
C728 C730 1.363 . S
C728 H744 0.931 . S
C729 C728 1.370 . S
C729 C733 1.408 . S
C730 C728 1.363 . S
C730 C731 1.370 . S
C730 C734 1.524 . S
C731 C723 1.503 . S
C731 C730 1.370 . S
C731 C732 1.403 . S
C732 C731 1.403 . S
C732 C733 1.404 . S
C732 C735 1.539 . S
C733 C729 1.408 . S
C733 C732 1.404 . S
C733 H745 0.930 . S
C734 C730 1.524 . S
C734 H746 0.956 . S
C734 H747 0.961 . S
C734 H748 0.961 . S
C735 C732 1.539 . S
C735 H749 0.958 . S
C735 H750 0.961 . S
C735 H751 0.960 . S
H736 C720 0.931 . S
H737 C725 0.929 . S
H738 C726 0.960 . S
H739 C726 0.962 . S
H740 C726 0.960 . S
H741 C727 0.961 . S
H742 C727 0.961 . S
H743 C727 0.961 . S
H744 C728 0.931 . S
H745 C733 0.930 . S
H746 C734 0.956 . S
H747 C734 0.961 . S
H748 C734 0.961 . S
H749 C735 0.958 . S
H750 C735 0.961 . S
H751 C735 0.960 . S
C752 C753 1.391 . S
C752 C754 1.394 1_545 S
C752 H768 0.931 . S
C753 C752 1.391 . S
C753 C757 1.376 . S
C754 C752 1.394 1_565 S
C754 C755 1.369 1_455 S
C754 C758 1.531 1_455 S
C755 C754 1.369 1_655 S
C755 C756 1.410 1_655 S
C755 C763 1.503 . S
C756 C755 1.410 1_455 S
C756 C757 1.392 1_565 S
C756 C759 1.511 . S
C757 C753 1.376 . S
C757 C756 1.392 1_545 S
C757 H769 0.929 . S
C758 C754 1.531 1_655 S
C758 H770 0.960 . S
C758 H771 0.962 1_565 S
C758 H772 0.960 . S
C759 C756 1.511 . S
C759 H773 0.961 1_565 S
C759 H774 0.961 1_455 S
C759 H775 0.961 . S
C760 C761 1.370 . S
C760 C762 1.363 1_565 S
C760 H776 0.931 1_565 S
C761 C760 1.370 . S
C761 C765 1.408 . S
C762 C760 1.363 1_545 S
C762 C763 1.370 1_545 S
C762 C766 1.524 . S
C763 C755 1.503 . S
C763 C762 1.370 1_565 S
C763 C764 1.403 . S
C764 C763 1.403 . S
C764 C765 1.404 . S
C764 C767 1.539 . S
C765 C761 1.408 . S
C765 C764 1.404 . S
C765 H777 0.930 . S
C766 C762 1.524 . S
C766 H778 0.956 . S
C766 H779 0.961 . S
C766 H780 0.961 . S
C767 C764 1.539 . S
C767 H781 0.958 . S
C767 H782 0.961 . S
C767 H783 0.960 1_655 S
H768 C752 0.931 . S
H769 C757 0.929 . S
H770 C758 0.960 . S
H771 C758 0.962 1_545 S
H772 C758 0.960 . S
H773 C759 0.961 1_545 S
H774 C759 0.961 1_655 S
H775 C759 0.961 . S
H776 C760 0.931 1_545 S
H777 C765 0.930 . S
H778 C766 0.956 . S
H779 C766 0.961 . S
H780 C766 0.961 . S
H781 C767 0.958 . S
H782 C767 0.961 . S
H783 C767 0.960 1_455 S
C784 C785 1.391 . S
C784 C786 1.394 . S
C784 H800 0.931 . S
C785 C784 1.391 . S
C785 C789 1.376 . S
C786 C784 1.394 . S
C786 C787 1.369 . S
C786 C790 1.531 . S
C787 C786 1.369 . S
C787 C788 1.410 . S
C787 C795 1.503 . S
C788 C787 1.410 . S
C788 C789 1.392 . S
C788 C791 1.511 . S
C789 C785 1.376 . S
C789 C788 1.392 . S
C789 H801 0.929 . S
C790 C786 1.531 . S
C790 H802 0.960 . S
C790 H803 0.962 . S
C790 H804 0.960 . S
C791 C788 1.511 . S
C791 H805 0.961 . S
C791 H806 0.961 . S
C791 H807 0.961 . S
C792 C793 1.370 . S
C792 C794 1.363 . S
C792 H808 0.931 . S
C793 C792 1.370 . S
C793 C797 1.408 . S
C794 C792 1.363 . S
C794 C795 1.370 . S
C794 C798 1.524 . S
C795 C787 1.503 . S
C795 C794 1.370 . S
C795 C796 1.403 . S
C796 C795 1.403 . S
C796 C797 1.404 . S
C796 C799 1.539 . S
C797 C793 1.408 . S
C797 C796 1.404 . S
C797 H809 0.930 . S
C798 C794 1.524 . S
C798 H810 0.956 . S
C798 H811 0.961 . S
C798 H812 0.961 . S
C799 C796 1.539 . S
C799 H813 0.958 . S
C799 H814 0.961 . S
C799 H815 0.960 . S
H800 C784 0.931 . S
H801 C789 0.929 . S
H802 C790 0.960 . S
H803 C790 0.962 . S
H804 C790 0.960 . S
H805 C791 0.961 . S
H806 C791 0.961 . S
H807 C791 0.961 . S
H808 C792 0.931 . S
H809 C797 0.930 . S
H810 C798 0.956 . S
H811 C798 0.961 . S
H812 C798 0.961 . S
H813 C799 0.958 . S
H814 C799 0.961 . S
H815 C799 0.960 . S
C816 C817 1.391 . S
C816 C818 1.394 . S
C816 H832 0.931 . S
C817 C816 1.391 . S
C817 C821 1.376 . S
C818 C816 1.394 . S
C818 C819 1.369 . S
C818 C822 1.531 . S
C819 C818 1.369 . S
C819 C820 1.410 . S
C819 C827 1.503 . S
C820 C819 1.410 . S
C820 C821 1.392 . S
C820 C823 1.511 1_545 S
C821 C817 1.376 . S
C821 C820 1.392 . S
C821 H833 0.929 . S
C822 C818 1.531 . S
C822 H834 0.960 . S
C822 H835 0.962 . S
C822 H836 0.960 . S
C823 C820 1.511 1_565 S
C823 H837 0.961 . S
C823 H838 0.961 . S
C823 H839 0.961 . S
C824 C825 1.370 . S
C824 C826 1.363 1_565 S
C824 H840 0.931 . S
C825 C824 1.370 . S
C825 C829 1.408 1_565 S
C826 C824 1.363 1_545 S
C826 C827 1.370 . S
C826 C830 1.524 . S
C827 C819 1.503 . S
C827 C826 1.370 . S
C827 C828 1.403 . S
C828 C827 1.403 . S
C828 C829 1.404 . S
C828 C831 1.539 . S
C829 C825 1.408 1_545 S
C829 C828 1.404 . S
C829 H841 0.930 . S
C830 C826 1.524 . S
C830 H842 0.956 . S
C830 H843 0.961 1_545 S
C830 H844 0.961 1_545 S
C831 C828 1.539 . S
C831 H845 0.958 . S
C831 H846 0.961 . S
C831 H847 0.960 . S
H832 C816 0.931 . S
H833 C821 0.929 . S
H834 C822 0.960 . S
H835 C822 0.962 . S
H836 C822 0.960 . S
H837 C823 0.961 . S
H838 C823 0.961 . S
H839 C823 0.961 . S
H840 C824 0.931 . S
H841 C829 0.930 . S
H842 C830 0.956 . S
H843 C830 0.961 1_565 S
H844 C830 0.961 1_565 S
H845 C831 0.958 . S
H846 C831 0.961 . S
H847 C831 0.960 . S
C848 C849 1.391 . S
C848 C850 1.394 . S
C848 H864 0.931 . S
C849 C848 1.391 . S
C849 C853 1.376 . S
C850 C848 1.394 . S
C850 C851 1.369 . S
C850 C854 1.531 . S
C851 C850 1.369 . S
C851 C852 1.410 . S
C851 C859 1.503 . S
C852 C851 1.410 . S
C852 C853 1.392 . S
C852 C855 1.511 . S
C853 C849 1.376 . S
C853 C852 1.392 . S
C853 H865 0.929 . S
C854 C850 1.531 . S
C854 H866 0.960 . S
C854 H867 0.962 . S
C854 H868 0.960 . S
C855 C852 1.511 . S
C855 H869 0.961 . S
C855 H870 0.961 . S
C855 H871 0.961 . S
C856 C857 1.370 . S
C856 C858 1.363 . S
C856 H872 0.931 . S
C857 C856 1.370 . S
C857 C861 1.408 . S
C858 C856 1.363 . S
C858 C859 1.370 . S
C858 C862 1.524 . S
C859 C851 1.503 . S
C859 C858 1.370 . S
C859 C860 1.403 . S
C860 C859 1.403 . S
C860 C861 1.404 . S
C860 C863 1.539 . S
C861 C857 1.408 . S
C861 C860 1.404 . S
C861 H873 0.930 . S
C862 C858 1.524 . S
C862 H874 0.956 . S
C862 H875 0.961 . S
C862 H876 0.961 . S
C863 C860 1.539 . S
C863 H877 0.958 . S
C863 H878 0.961 . S
C863 H879 0.960 . S
H864 C848 0.931 . S
H865 C853 0.929 . S
H866 C854 0.960 . S
H867 C854 0.962 . S
H868 C854 0.960 . S
H869 C855 0.961 . S
H870 C855 0.961 . S
H871 C855 0.961 . S
H872 C856 0.931 . S
H873 C861 0.930 . S
H874 C862 0.956 . S
H875 C862 0.961 . S
H876 C862 0.961 . S
H877 C863 0.958 . S
H878 C863 0.961 . S
H879 C863 0.960 . S
C880 C881 1.391 . S
C880 C882 1.394 1_565 S
C880 H896 0.931 . S
C881 C880 1.391 . S
C881 C885 1.376 . S
C882 C880 1.394 1_545 S
C882 C883 1.369 1_655 S
C882 C886 1.531 . S
C883 C882 1.369 1_455 S
C883 C884 1.410 . S
C883 C891 1.503 . S
C884 C883 1.410 . S
C884 C885 1.392 1_445 S
C884 C887 1.511 . S
C885 C881 1.376 . S
C885 C884 1.392 1_665 S
C885 H897 0.929 . S
C886 C882 1.531 . S
C886 H898 0.960 1_655 S
C886 H899 0.962 1_655 S
C886 H900 0.960 . S
C887 C884 1.511 . S
C887 H901 0.961 1_545 S
C887 H902 0.961 . S
C887 H903 0.961 . S
C888 C889 1.370 . S
C888 C890 1.363 . S
C888 H904 0.931 . S
C889 C888 1.370 . S
C889 C893 1.408 . S
C890 C888 1.363 . S
C890 C891 1.370 . S
C890 C894 1.524 1_545 S
C891 C883 1.503 . S
C891 C890 1.370 . S
C891 C892 1.403 . S
C892 C891 1.403 . S
C892 C893 1.404 . S
C892 C895 1.539 . S
C893 C889 1.408 . S
C893 C892 1.404 . S
C893 H905 0.930 . S
C894 C890 1.524 1_565 S
C894 H906 0.956 . S
C894 H907 0.961 . S
C894 H908 0.961 . S
C895 C892 1.539 . S
C895 H909 0.958 . S
C895 H910 0.961 . S
C895 H911 0.960 . S
H896 C880 0.931 . S
H897 C885 0.929 . S
H898 C886 0.960 1_455 S
H899 C886 0.962 1_455 S
H900 C886 0.960 . S
H901 C887 0.961 1_565 S
H902 C887 0.961 . S
H903 C887 0.961 . S
H904 C888 0.931 . S
H905 C893 0.930 . S
H906 C894 0.956 . S
H907 C894 0.961 . S
H908 C894 0.961 . S
H909 C895 0.958 . S
H910 C895 0.961 . S
H911 C895 0.960 . S
C912 C913 1.391 . S
C912 C914 1.394 . S
C912 H928 0.931 . S
C913 C912 1.391 . S
C913 C917 1.376 . S
C914 C912 1.394 . S
C914 C915 1.369 . S
C914 C918 1.531 . S
C915 C914 1.369 . S
C915 C916 1.410 . S
C915 C923 1.503 . S
C916 C915 1.410 . S
C916 C917 1.392 . S
C916 C919 1.511 . S
C917 C913 1.376 . S
C917 C916 1.392 . S
C917 H929 0.929 . S
C918 C914 1.531 . S
C918 H930 0.960 . S
C918 H931 0.962 . S
C918 H932 0.960 . S
C919 C916 1.511 . S
C919 H933 0.961 . S
C919 H934 0.961 . S
C919 H935 0.961 . S
C920 C921 1.370 . S
C920 C922 1.363 . S
C920 H936 0.931 . S
C921 C920 1.370 . S
C921 C925 1.408 . S
C922 C920 1.363 . S
C922 C923 1.370 . S
C922 C926 1.524 . S
C923 C915 1.503 . S
C923 C922 1.370 . S
C923 C924 1.403 . S
C924 C923 1.403 . S
C924 C925 1.404 . S
C924 C927 1.539 . S
C925 C921 1.408 . S
C925 C924 1.404 . S
C925 H937 0.930 . S
C926 C922 1.524 . S
C926 H938 0.956 . S
C926 H939 0.961 . S
C926 H940 0.961 . S
C927 C924 1.539 . S
C927 H941 0.958 . S
C927 H942 0.961 . S
C927 H943 0.960 . S
H928 C912 0.931 . S
H929 C917 0.929 . S
H930 C918 0.960 . S
H931 C918 0.962 . S
H932 C918 0.960 . S
H933 C919 0.961 . S
H934 C919 0.961 . S
H935 C919 0.961 . S
H936 C920 0.931 . S
H937 C925 0.930 . S
H938 C926 0.956 . S
H939 C926 0.961 . S
H940 C926 0.961 . S
H941 C927 0.958 . S
H942 C927 0.961 . S
H943 C927 0.960 . S
C944 C945 1.391 . S
C944 C946 1.394 . S
C944 H960 0.931 . S
C945 C944 1.391 . S
C945 C949 1.376 . S
C946 C944 1.394 . S
C946 C947 1.369 . S
C946 C950 1.531 . S
C947 C946 1.369 . S
C947 C948 1.410 . S
C947 C955 1.503 . S
C948 C947 1.410 . S
C948 C949 1.392 . S
C948 C951 1.511 . S
C949 C945 1.376 . S
C949 C948 1.392 . S
C949 H961 0.929 . S
C950 C946 1.531 . S
C950 H962 0.960 . S
C950 H963 0.962 1_565 S
C950 H964 0.960 . S
C951 C948 1.511 . S
C951 H965 0.961 . S
C951 H966 0.961 . S
C951 H967 0.961 . S
C952 C953 1.370 . S
C952 C954 1.363 . S
C952 H968 0.931 . S
C953 C952 1.370 . S
C953 C957 1.408 1_545 S
C954 C952 1.363 . S
C954 C955 1.370 1_545 S
C954 C958 1.524 . S
C955 C947 1.503 . S
C955 C954 1.370 1_565 S
C955 C956 1.403 . S
C956 C955 1.403 . S
C956 C957 1.404 . S
C956 C959 1.539 . S
C957 C953 1.408 1_565 S
C957 C956 1.404 . S
C957 H969 0.930 . S
C958 C954 1.524 . S
C958 H970 0.956 . S
C958 H971 0.961 . S
C958 H972 0.961 . S
C959 C956 1.539 . S
C959 H973 0.958 . S
C959 H974 0.961 . S
C959 H975 0.960 . S
H960 C944 0.931 . S
H961 C949 0.929 . S
H962 C950 0.960 . S
H963 C950 0.962 1_545 S
H964 C950 0.960 . S
H965 C951 0.961 . S
H966 C951 0.961 . S
H967 C951 0.961 . S
H968 C952 0.931 . S
H969 C957 0.930 . S
H970 C958 0.956 . S
H971 C958 0.961 . S
H972 C958 0.961 . S
H973 C959 0.958 . S
H974 C959 0.961 . S
H975 C959 0.960 . S
C976 C977 1.391 . S
C976 C978 1.394 . S
C976 H992 0.931 . S
C977 C976 1.391 . S
C977 C981 1.376 . S
C978 C976 1.394 . S
C978 C979 1.369 . S
C978 C982 1.531 . S
C979 C978 1.369 . S
C979 C980 1.410 . S
C979 C987 1.503 . S
C980 C979 1.410 . S
C980 C981 1.392 . S
C980 C983 1.511 . S
C981 C977 1.376 . S
C981 C980 1.392 . S
C981 H993 0.929 . S
C982 C978 1.531 . S
C982 H994 0.976 . S
C982 H995 0.962 . S
C982 H996 0.960 . S
C983 C980 1.511 . S
C983 H997 0.961 . S
C983 H998 0.961 . S
C983 H999 0.961 . S
C984 C985 1.370 . S
C984 C986 1.363 . S
C984 H1000 0.931 . S
C985 C984 1.370 . S
C985 C989 1.408 . S
C986 C984 1.363 . S
C986 C987 1.370 1_554 S
C986 C990 1.524 1_554 S
C987 C979 1.503 . S
C987 C986 1.370 1_556 S
C987 C988 1.403 1_556 S
C988 C987 1.403 1_554 S
C988 C989 1.404 . S
C988 C991 1.531 1_554 S
C989 C985 1.408 . S
C989 C988 1.404 . S
C989 H1001 0.930 . S
C990 C986 1.524 1_556 S
C990 H1002 0.956 . S
C990 H1003 0.961 . S
C990 H1004 0.961 1_556 S
C991 C988 1.531 1_556 S
C991 H1005 0.955 1_556 S
C991 H1006 0.953 1_556 S
C991 H1007 0.980 . S
H992 C976 0.931 . S
H993 C981 0.929 . S
H994 C982 0.976 . S
H995 C982 0.962 . S
H996 C982 0.960 . S
H997 C983 0.961 . S
H998 C983 0.961 . S
H999 C983 0.961 . S
H1000 C984 0.931 . S
H1001 C989 0.930 . S
H1002 C990 0.956 . S
H1003 C990 0.961 . S
H1004 C990 0.961 1_554 S
H1005 C991 0.955 1_554 S
H1006 C991 0.953 1_554 S
H1007 C991 0.980 . S
C1008 C1009 1.391 . S
C1008 C1010 1.394 . S
C1008 H1024 0.931 . S
C1009 C1008 1.391 . S
C1009 C1013 1.376 . S
C1010 C1008 1.394 . S
C1010 C1011 1.369 . S
C1010 C1014 1.531 . S
C1011 C1010 1.369 . S
C1011 C1012 1.410 . S
C1011 C1019 1.503 . S
C1012 C1011 1.410 . S
C1012 C1013 1.392 . S
C1012 C1015 1.511 . S
C1013 C1009 1.376 . S
C1013 C1012 1.392 . S
C1013 H1025 0.929 . S
C1014 C1010 1.531 . S
C1014 H1026 0.960 . S
C1014 H1027 0.962 . S
C1014 H1028 0.960 . S
C1015 C1012 1.511 . S
C1015 H1029 0.961 . S
C1015 H1030 0.961 . S
C1015 H1031 0.961 . S
C1016 C1017 1.370 . S
C1016 C1018 1.363 . S
C1016 H1032 0.931 . S
C1017 C1016 1.370 . S
C1017 C1021 1.408 . S
C1018 C1016 1.363 . S
C1018 C1019 1.370 . S
C1018 C1022 1.524 . S
C1019 C1011 1.503 . S
C1019 C1018 1.370 . S
C1019 C1020 1.403 . S
C1020 C1019 1.403 . S
C1020 C1021 1.404 . S
C1020 C1023 1.539 . S
C1021 C1017 1.408 . S
C1021 C1020 1.404 . S
C1021 H1033 0.930 . S
C1022 C1018 1.524 . S
C1022 H1034 0.956 . S
C1022 H1035 0.961 . S
C1022 H1036 0.961 . S
C1023 C1020 1.539 . S
C1023 H1037 0.958 . S
C1023 H1038 0.961 . S
C1023 H1039 0.960 . S
H1024 C1008 0.931 . S
H1025 C1013 0.929 . S
H1026 C1014 0.960 . S
H1027 C1014 0.962 . S
H1028 C1014 0.960 . S
H1029 C1015 0.961 . S
H1030 C1015 0.961 . S
H1031 C1015 0.961 . S
H1032 C1016 0.931 . S
H1033 C1021 0.930 . S
H1034 C1022 0.956 . S
H1035 C1022 0.961 . S
H1036 C1022 0.961 . S
H1037 C1023 0.958 . S
H1038 C1023 0.961 . S
H1039 C1023 0.960 . S
C1040 C1041 1.391 . S
C1040 C1042 1.394 . S
C1040 H1056 0.931 . S
C1041 C1040 1.391 . S
C1041 C1045 1.376 . S
C1042 C1040 1.394 . S
C1042 C1043 1.369 . S
C1042 C1046 1.531 . S
C1043 C1042 1.369 . S
C1043 C1044 1.410 . S
C1043 C1051 1.503 . S
C1044 C1043 1.410 . S
C1044 C1045 1.392 . S
C1044 C1047 1.511 . S
C1045 C1041 1.376 . S
C1045 C1044 1.392 . S
C1045 H1057 0.929 . S
C1046 C1042 1.531 . S
C1046 H1058 0.960 . S
C1046 H1059 0.962 . S
C1046 H1060 0.960 . S
C1047 C1044 1.511 . S
C1047 H1061 0.961 . S
C1047 H1062 0.961 . S
C1047 H1063 0.961 . S
C1048 C1049 1.370 . S
C1048 C1050 1.363 . S
C1048 H1064 0.931 . S
C1049 C1048 1.370 . S
C1049 C1053 1.408 . S
C1050 C1048 1.363 . S
C1050 C1051 1.370 . S
C1050 C1054 1.524 . S
C1051 C1043 1.503 . S
C1051 C1050 1.370 . S
C1051 C1052 1.403 . S
C1052 C1051 1.403 . S
C1052 C1053 1.404 . S
C1052 C1055 1.539 . S
C1053 C1049 1.408 . S
C1053 C1052 1.404 . S
C1053 H1065 0.930 . S
C1054 C1050 1.524 . S
C1054 H1066 0.956 . S
C1054 H1067 0.961 . S
C1054 H1068 0.961 . S
C1055 C1052 1.539 . S
C1055 H1069 0.958 . S
C1055 H1070 0.961 . S
C1055 H1071 0.960 . S
H1056 C1040 0.931 . S
H1057 C1045 0.929 . S
H1058 C1046 0.960 . S
H1059 C1046 0.962 . S
H1060 C1046 0.960 . S
H1061 C1047 0.961 . S
H1062 C1047 0.961 . S
H1063 C1047 0.961 . S
H1064 C1048 0.931 . S
H1065 C1053 0.930 . S
H1066 C1054 0.956 . S
H1067 C1054 0.961 . S
H1068 C1054 0.961 . S
H1069 C1055 0.958 . S
H1070 C1055 0.961 . S
H1071 C1055 0.960 . S
C1072 C1073 1.391 . S
C1072 C1074 1.394 . S
C1072 H1088 0.931 . S
C1073 C1072 1.391 . S
C1073 C1077 1.376 . S
C1074 C1072 1.394 . S
C1074 C1075 1.369 . S
C1074 C1078 1.531 . S
C1075 C1074 1.369 . S
C1075 C1076 1.410 . S
C1075 C1083 1.503 . S
C1076 C1075 1.410 . S
C1076 C1077 1.392 . S
C1076 C1079 1.511 . S
C1077 C1073 1.376 . S
C1077 C1076 1.392 . S
C1077 H1089 0.929 . S
C1078 C1074 1.531 . S
C1078 H1090 0.960 . S
C1078 H1091 0.962 . S
C1078 H1092 0.960 . S
C1079 C1076 1.511 . S
C1079 H1093 0.961 . S
C1079 H1094 0.961 . S
C1079 H1095 0.961 . S
C1080 C1081 1.370 . S
C1080 C1082 1.363 . S
C1080 H1096 0.931 . S
C1081 C1080 1.370 . S
C1081 C1085 1.408 . S
C1082 C1080 1.363 . S
C1082 C1083 1.370 . S
C1082 C1086 1.524 . S
C1083 C1075 1.503 . S
C1083 C1082 1.370 . S
C1083 C1084 1.403 . S
C1084 C1083 1.403 . S
C1084 C1085 1.404 . S
C1084 C1087 1.539 . S
C1085 C1081 1.408 . S
C1085 C1084 1.404 . S
C1085 H1097 0.930 . S
C1086 C1082 1.524 . S
C1086 H1098 0.956 . S
C1086 H1099 0.961 . S
C1086 H1100 0.961 . S
C1087 C1084 1.539 . S
C1087 H1101 0.958 . S
C1087 H1102 0.961 . S
C1087 H1103 0.960 . S
H1088 C1072 0.931 . S
H1089 C1077 0.929 . S
H1090 C1078 0.960 . S
H1091 C1078 0.962 . S
H1092 C1078 0.960 . S
H1093 C1079 0.961 . S
H1094 C1079 0.961 . S
H1095 C1079 0.961 . S
H1096 C1080 0.931 . S
H1097 C1085 0.930 . S
H1098 C1086 0.956 . S
H1099 C1086 0.961 . S
H1100 C1086 0.961 . S
H1101 C1087 0.958 . S
H1102 C1087 0.961 . S
H1103 C1087 0.960 . S
C1104 C1105 1.391 . S
C1104 C1106 1.394 . S
C1104 H1120 0.931 . S
C1105 C1104 1.391 . S
C1105 C1109 1.376 . S
C1106 C1104 1.394 . S
C1106 C1107 1.369 . S
C1106 C1110 1.531 . S
C1107 C1106 1.369 . S
C1107 C1108 1.410 . S
C1107 C1115 1.503 . S
C1108 C1107 1.410 . S
C1108 C1109 1.392 . S
C1108 C1111 1.511 . S
C1109 C1105 1.376 . S
C1109 C1108 1.392 . S
C1109 H1121 0.929 . S
C1110 C1106 1.531 . S
C1110 H1122 0.960 . S
C1110 H1123 0.962 . S
C1110 H1124 0.960 . S
C1111 C1108 1.511 . S
C1111 H1125 0.961 . S
C1111 H1126 0.961 . S
C1111 H1127 0.961 . S
C1112 C1113 1.370 . S
C1112 C1114 1.363 . S
C1112 H1128 0.931 . S
C1113 C1112 1.370 . S
C1113 C1117 1.408 . S
C1114 C1112 1.363 . S
C1114 C1115 1.370 1_556 S
C1114 C1118 1.524 1_556 S
C1115 C1107 1.503 . S
C1115 C1114 1.370 1_554 S
C1115 C1116 1.403 1_554 S
C1116 C1115 1.403 1_556 S
C1116 C1117 1.404 . S
C1116 C1119 1.539 1_556 S
C1117 C1113 1.408 . S
C1117 C1116 1.404 . S
C1117 H1129 0.930 . S
C1118 C1114 1.524 1_554 S
C1118 H1130 0.956 . S
C1118 H1131 0.961 . S
C1118 H1132 0.961 1_554 S
C1119 C1116 1.539 1_554 S
C1119 H1133 0.958 . S
C1119 H1134 0.952 1_554 S
C1119 H1135 0.960 . S
H1120 C1104 0.931 . S
H1121 C1109 0.929 . S
H1122 C1110 0.960 . S
H1123 C1110 0.962 . S
H1124 C1110 0.960 . S
H1125 C1111 0.961 . S
H1126 C1111 0.961 . S
H1127 C1111 0.961 . S
H1128 C1112 0.931 . S
H1129 C1117 0.930 . S
H1130 C1118 0.956 . S
H1131 C1118 0.961 . S
H1132 C1118 0.961 1_556 S
H1133 C1119 0.958 . S
H1134 C1119 0.952 1_556 S
H1135 C1119 0.960 . S
C1136 C1137 1.391 . S
C1136 C1138 1.394 . S
C1136 H1152 0.931 . S
C1137 C1136 1.391 . S
C1137 C1141 1.376 . S
C1138 C1136 1.394 . S
C1138 C1139 1.369 . S
C1138 C1142 1.531 . S
C1139 C1138 1.369 . S
C1139 C1140 1.410 . S
C1139 C1147 1.503 . S
C1140 C1139 1.410 . S
C1140 C1141 1.392 . S
C1140 C1143 1.511 . S
C1141 C1137 1.376 . S
C1141 C1140 1.392 . S
C1141 H1153 0.929 . S
C1142 C1138 1.531 . S
C1142 H1154 0.960 . S
C1142 H1155 0.962 . S
C1142 H1156 0.960 . S
C1143 C1140 1.511 . S
C1143 H1157 0.961 . S
C1143 H1158 0.961 . S
C1143 H1159 0.961 . S
C1144 C1145 1.370 . S
C1144 C1146 1.363 . S
C1144 H1160 0.931 . S
C1145 C1144 1.370 . S
C1145 C1149 1.408 . S
C1146 C1144 1.363 . S
C1146 C1147 1.370 . S
C1146 C1150 1.524 . S
C1147 C1139 1.503 . S
C1147 C1146 1.370 . S
C1147 C1148 1.403 . S
C1148 C1147 1.403 . S
C1148 C1149 1.404 . S
C1148 C1151 1.539 . S
C1149 C1145 1.408 . S
C1149 C1148 1.404 . S
C1149 H1161 0.930 . S
C1150 C1146 1.524 . S
C1150 H1162 0.956 . S
C1150 H1163 0.961 . S
C1150 H1164 0.961 . S
C1151 C1148 1.539 . S
C1151 H1165 0.958 . S
C1151 H1166 0.961 . S
C1151 H1167 0.960 . S
H1152 C1136 0.931 . S
H1153 C1141 0.929 . S
H1154 C1142 0.960 . S
H1155 C1142 0.962 . S
H1156 C1142 0.960 . S
H1157 C1143 0.961 . S
H1158 C1143 0.961 . S
H1159 C1143 0.961 . S
H1160 C1144 0.931 . S
H1161 C1149 0.930 . S
H1162 C1150 0.956 . S
H1163 C1150 0.961 . S
H1164 C1150 0.961 . S
H1165 C1151 0.958 . S
H1166 C1151 0.961 . S
H1167 C1151 0.960 . S
C1168 C1169 1.391 . S
C1168 C1170 1.394 . S
C1168 H1184 0.931 . S
C1169 C1168 1.391 . S
C1169 C1173 1.376 . S
C1170 C1168 1.394 . S
C1170 C1171 1.369 . S
C1170 C1174 1.531 . S
C1171 C1170 1.369 . S
C1171 C1172 1.410 . S
C1171 C1179 1.503 . S
C1172 C1171 1.410 . S
C1172 C1173 1.392 . S
C1172 C1175 1.511 . S
C1173 C1169 1.376 . S
C1173 C1172 1.392 . S
C1173 H1185 0.929 . S
C1174 C1170 1.531 . S
C1174 H1186 0.960 . S
C1174 H1187 0.962 . S
C1174 H1188 0.960 . S
C1175 C1172 1.511 . S
C1175 H1189 0.961 . S
C1175 H1190 0.961 . S
C1175 H1191 0.961 . S
C1176 C1177 1.370 . S
C1176 C1178 1.363 . S
C1176 H1192 0.931 . S
C1177 C1176 1.370 . S
C1177 C1181 1.408 . S
C1178 C1176 1.363 . S
C1178 C1179 1.370 . S
C1178 C1182 1.524 . S
C1179 C1171 1.503 . S
C1179 C1178 1.370 . S
C1179 C1180 1.403 . S
C1180 C1179 1.403 . S
C1180 C1181 1.404 . S
C1180 C1183 1.539 . S
C1181 C1177 1.408 . S
C1181 C1180 1.404 . S
C1181 H1193 0.930 . S
C1182 C1178 1.524 . S
C1182 H1194 0.956 . S
C1182 H1195 0.961 . S
C1182 H1196 0.961 . S
C1183 C1180 1.539 . S
C1183 H1197 0.958 . S
C1183 H1198 0.961 . S
C1183 H1199 0.960 . S
H1184 C1168 0.931 . S
H1185 C1173 0.929 . S
H1186 C1174 0.960 . S
H1187 C1174 0.962 . S
H1188 C1174 0.960 . S
H1189 C1175 0.961 . S
H1190 C1175 0.961 . S
H1191 C1175 0.961 . S
H1192 C1176 0.931 . S
H1193 C1181 0.930 . S
H1194 C1182 0.956 . S
H1195 C1182 0.961 . S
H1196 C1182 0.961 . S
H1197 C1183 0.958 . S
H1198 C1183 0.961 . S
H1199 C1183 0.960 . S
C1200 C1201 1.391 . S
C1200 C1202 1.394 . S
C1200 H1216 0.931 . S
C1201 C1200 1.391 . S
C1201 C1205 1.376 . S
C1202 C1200 1.394 . S
C1202 C1203 1.369 . S
C1202 C1206 1.531 . S
C1203 C1202 1.369 . S
C1203 C1204 1.410 . S
C1203 C1211 1.503 . S
C1204 C1203 1.410 . S
C1204 C1205 1.392 . S
C1204 C1207 1.511 . S
C1205 C1201 1.376 . S
C1205 C1204 1.392 . S
C1205 H1217 0.929 . S
C1206 C1202 1.531 . S
C1206 H1218 0.960 . S
C1206 H1219 0.962 . S
C1206 H1220 0.960 . S
C1207 C1204 1.511 . S
C1207 H1221 0.961 . S
C1207 H1222 0.961 . S
C1207 H1223 0.961 . S
C1208 C1209 1.370 . S
C1208 C1210 1.363 . S
C1208 H1224 0.931 . S
C1209 C1208 1.370 . S
C1209 C1213 1.408 . S
C1210 C1208 1.363 . S
C1210 C1211 1.370 . S
C1210 C1214 1.524 . S
C1211 C1203 1.503 . S
C1211 C1210 1.370 . S
C1211 C1212 1.403 . S
C1212 C1211 1.403 . S
C1212 C1213 1.404 . S
C1212 C1215 1.539 . S
C1213 C1209 1.408 . S
C1213 C1212 1.404 . S
C1213 H1225 0.930 . S
C1214 C1210 1.524 . S
C1214 H1226 0.956 . S
C1214 H1227 0.961 . S
C1214 H1228 0.961 . S
C1215 C1212 1.539 . S
C1215 H1229 0.958 . S
C1215 H1230 0.961 . S
C1215 H1231 0.960 . S
H1216 C1200 0.931 . S
H1217 C1205 0.929 . S
H1218 C1206 0.960 . S
H1219 C1206 0.962 . S
H1220 C1206 0.960 . S
H1221 C1207 0.961 . S
H1222 C1207 0.961 . S
H1223 C1207 0.961 . S
H1224 C1208 0.931 . S
H1225 C1213 0.930 . S
H1226 C1214 0.956 . S
H1227 C1214 0.961 . S
H1228 C1214 0.961 . S
H1229 C1215 0.958 . S
H1230 C1215 0.961 . S
H1231 C1215 0.960 . S
C1232 C1233 1.391 . S
C1232 C1234 1.394 . S
C1232 H1248 0.931 . S
C1233 C1232 1.391 . S
C1233 C1237 1.376 . S
C1234 C1232 1.394 . S
C1234 C1235 1.369 . S
C1234 C1238 1.531 . S
C1235 C1234 1.369 . S
C1235 C1236 1.410 . S
C1235 C1243 1.503 . S
C1236 C1235 1.410 . S
C1236 C1237 1.392 . S
C1236 C1239 1.511 . S
C1237 C1233 1.376 . S
C1237 C1236 1.392 . S
C1237 H1249 0.929 . S
C1238 C1234 1.531 . S
C1238 H1250 0.960 . S
C1238 H1251 0.962 . S
C1238 H1252 0.960 . S
C1239 C1236 1.511 . S
C1239 H1253 0.961 . S
C1239 H1254 0.961 . S
C1239 H1255 0.961 . S
C1240 C1241 1.370 . S
C1240 C1242 1.363 . S
C1240 H1256 0.931 . S
C1241 C1240 1.370 . S
C1241 C1245 1.408 . S
C1242 C1240 1.363 . S
C1242 C1243 1.370 . S
C1242 C1246 1.524 . S
C1243 C1235 1.503 . S
C1243 C1242 1.370 . S
C1243 C1244 1.403 . S
C1244 C1243 1.403 . S
C1244 C1245 1.404 . S
C1244 C1247 1.539 . S
C1245 C1241 1.408 . S
C1245 C1244 1.404 . S
C1245 H1257 0.930 . S
C1246 C1242 1.524 . S
C1246 H1258 0.956 . S
C1246 H1259 0.961 . S
C1246 H1260 0.961 . S
C1247 C1244 1.539 . S
C1247 H1261 0.958 . S
C1247 H1262 0.961 . S
C1247 H1263 0.960 . S
H1248 C1232 0.931 . S
H1249 C1237 0.929 . S
H1250 C1238 0.960 . S
H1251 C1238 0.962 . S
H1252 C1238 0.960 . S
H1253 C1239 0.961 . S
H1254 C1239 0.961 . S
H1255 C1239 0.961 . S
H1256 C1240 0.931 . S
H1257 C1245 0.930 . S
H1258 C1246 0.956 . S
H1259 C1246 0.961 . S
H1260 C1246 0.961 . S
H1261 C1247 0.958 . S
H1262 C1247 0.961 . S
H1263 C1247 0.960 . S
C1264 C1265 1.391 1_545 S
C1264 C1266 1.394 . S
C1264 H1280 0.931 . S
C1265 C1264 1.391 1_565 S
C1265 C1269 1.376 . S
C1266 C1264 1.394 . S
C1266 C1267 1.369 . S
C1266 C1270 1.531 . S
C1267 C1266 1.369 . S
C1267 C1268 1.410 1_545 S
C1267 C1275 1.503 . S
C1268 C1267 1.410 1_565 S
C1268 C1269 1.392 . S
C1268 C1271 1.511 . S
C1269 C1265 1.376 . S
C1269 C1268 1.392 . S
C1269 H1281 0.929 . S
C1270 C1266 1.531 . S
C1270 H1282 0.960 . S
C1270 H1283 0.962 . S
C1270 H1284 0.960 . S
C1271 C1268 1.511 . S
C1271 H1285 0.961 . S
C1271 H1286 0.961 . S
C1271 H1287 0.961 . S
C1272 C1273 1.370 . S
C1272 C1274 1.363 . S
C1272 H1288 0.931 . S
C1273 C1272 1.370 . S
C1273 C1277 1.408 . S
C1274 C1272 1.363 . S
C1274 C1275 1.370 . S
C1274 C1278 1.524 1_545 S
C1275 C1267 1.503 . S
C1275 C1274 1.370 . S
C1275 C1276 1.403 . S
C1276 C1275 1.403 . S
C1276 C1277 1.404 . S
C1276 C1279 1.539 . S
C1277 C1273 1.408 . S
C1277 C1276 1.404 . S
C1277 H1289 0.930 . S
C1278 C1274 1.524 1_565 S
C1278 H1290 0.956 . S
C1278 H1291 0.961 . S
C1278 H1292 0.961 . S
C1279 C1276 1.539 . S
C1279 H1293 0.958 . S
C1279 H1294 0.961 . S
C1279 H1295 0.960 . S
H1280 C1264 0.931 . S
H1281 C1269 0.929 . S
H1282 C1270 0.960 . S
H1283 C1270 0.962 . S
H1284 C1270 0.960 . S
H1285 C1271 0.961 . S
H1286 C1271 0.961 . S
H1287 C1271 0.961 . S
H1288 C1272 0.931 . S
H1289 C1277 0.930 . S
H1290 C1278 0.956 . S
H1291 C1278 0.961 . S
H1292 C1278 0.961 . S
H1293 C1279 0.958 . S
H1294 C1279 0.961 . S
H1295 C1279 0.960 . S
C1296 C1297 1.391 . S
C1296 C1298 1.394 . S
C1296 H1312 0.931 . S
C1297 C1296 1.391 . S
C1297 C1301 1.376 . S
C1298 C1296 1.394 . S
C1298 C1299 1.369 . S
C1298 C1302 1.531 . S
C1299 C1298 1.369 . S
C1299 C1300 1.410 . S
C1299 C1307 1.503 . S
C1300 C1299 1.410 . S
C1300 C1301 1.392 . S
C1300 C1303 1.511 . S
C1301 C1297 1.376 . S
C1301 C1300 1.392 . S
C1301 H1313 0.929 . S
C1302 C1298 1.531 . S
C1302 H1314 0.960 . S
C1302 H1315 0.962 . S
C1302 H1316 0.960 . S
C1303 C1300 1.511 . S
C1303 H1317 0.961 . S
C1303 H1318 0.961 . S
C1303 H1319 0.961 . S
C1304 C1305 1.370 . S
C1304 C1306 1.363 . S
C1304 H1320 0.931 . S
C1305 C1304 1.370 . S
C1305 C1309 1.408 . S
C1306 C1304 1.363 . S
C1306 C1307 1.370 1_554 S
C1306 C1310 1.524 1_554 S
C1307 C1299 1.503 . S
C1307 C1306 1.370 1_556 S
C1307 C1308 1.403 . S
C1308 C1307 1.403 . S
C1308 C1309 1.404 1_556 S
C1308 C1311 1.539 . S
C1309 C1305 1.408 . S
C1309 C1308 1.404 1_554 S
C1309 H1321 0.930 . S
C1310 C1306 1.524 1_556 S
C1310 H1322 0.956 . S
C1310 H1323 0.961 . S
C1310 H1324 0.961 1_556 S
C1311 C1308 1.539 . S
C1311 H1325 0.958 . S
C1311 H1326 0.961 . S
C1311 H1327 0.960 . S
H1312 C1296 0.931 . S
H1313 C1301 0.929 . S
H1314 C1302 0.960 . S
H1315 C1302 0.962 . S
H1316 C1302 0.960 . S
H1317 C1303 0.961 . S
H1318 C1303 0.961 . S
H1319 C1303 0.961 . S
H1320 C1304 0.931 . S
H1321 C1309 0.930 . S
H1322 C1310 0.956 . S
H1323 C1310 0.961 . S
H1324 C1310 0.961 1_554 S
H1325 C1311 0.958 . S
H1326 C1311 0.961 . S
H1327 C1311 0.960 . S
C1328 C1329 1.391 1_565 S
C1328 C1330 1.394 . S
C1328 H1344 0.931 . S
C1329 C1328 1.391 1_545 S
C1329 C1333 1.376 . S
C1330 C1328 1.394 . S
C1330 C1331 1.369 1_565 S
C1330 C1334 1.531 . S
C1331 C1330 1.369 1_545 S
C1331 C1332 1.410 . S
C1331 C1339 1.503 . S
C1332 C1331 1.410 . S
C1332 C1333 1.392 . S
C1332 C1335 1.511 . S
C1333 C1329 1.376 . S
C1333 C1332 1.392 . S
C1333 H1345 0.929 . S
C1334 C1330 1.531 . S
C1334 H1346 0.960 . S
C1334 H1347 0.962 . S
C1334 H1348 0.960 . S
C1335 C1332 1.511 . S
C1335 H1349 0.961 . S
C1335 H1350 0.961 . S
C1335 H1351 0.961 . S
C1336 C1337 1.370 1_545 S
C1336 C1338 1.363 . S
C1336 H1352 0.931 . S
C1337 C1336 1.370 1_565 S
C1337 C1341 1.408 . S
C1338 C1336 1.363 . S
C1338 C1339 1.370 . S
C1338 C1342 1.524 . S
C1339 C1331 1.503 . S
C1339 C1338 1.370 . S
C1339 C1340 1.403 1_545 S
C1340 C1339 1.403 1_565 S
C1340 C1341 1.404 . S
C1340 C1343 1.539 . S
C1341 C1337 1.408 . S
C1341 C1340 1.404 . S
C1341 H1353 0.930 . S
C1342 C1338 1.524 . S
C1342 H1354 0.956 . S
C1342 H1355 0.961 . S
C1342 H1356 0.961 . S
C1343 C1340 1.539 . S
C1343 H1357 0.958 . S
C1343 H1358 0.961 . S
C1343 H1359 0.960 . S
H1344 C1328 0.931 . S
H1345 C1333 0.929 . S
H1346 C1334 0.960 . S
H1347 C1334 0.962 . S
H1348 C1334 0.960 . S
H1349 C1335 0.961 . S
H1350 C1335 0.961 . S
H1351 C1335 0.961 . S
H1352 C1336 0.931 . S
H1353 C1341 0.930 . S
H1354 C1342 0.956 . S
H1355 C1342 0.961 . S
H1356 C1342 0.961 . S
H1357 C1343 0.958 . S
H1358 C1343 0.961 . S
H1359 C1343 0.960 . S
C1360 C1361 1.391 . S
C1360 C1362 1.394 . S
C1360 H1376 0.931 . S
C1361 C1360 1.391 . S
C1361 C1365 1.376 . S
C1362 C1360 1.394 . S
C1362 C1363 1.369 . S
C1362 C1366 1.531 . S
C1363 C1362 1.369 . S
C1363 C1364 1.410 . S
C1363 C1371 1.503 . S
C1364 C1363 1.410 . S
C1364 C1365 1.392 . S
C1364 C1367 1.511 . S
C1365 C1361 1.376 . S
C1365 C1364 1.392 . S
C1365 H1377 0.929 . S
C1366 C1362 1.531 . S
C1366 H1378 0.960 . S
C1366 H1379 0.962 . S
C1366 H1380 0.960 . S
C1367 C1364 1.511 . S
C1367 H1381 0.961 . S
C1367 H1382 0.961 . S
C1367 H1383 0.961 . S
C1368 C1369 1.370 . S
C1368 C1370 1.363 . S
C1368 H1384 0.931 . S
C1369 C1368 1.370 . S
C1369 C1373 1.408 . S
C1370 C1368 1.363 . S
C1370 C1371 1.370 . S
C1370 C1374 1.524 . S
C1371 C1363 1.503 . S
C1371 C1370 1.370 . S
C1371 C1372 1.403 . S
C1372 C1371 1.403 . S
C1372 C1373 1.404 . S
C1372 C1375 1.539 . S
C1373 C1369 1.408 . S
C1373 C1372 1.404 . S
C1373 H1385 0.930 . S
C1374 C1370 1.524 . S
C1374 H1386 0.956 . S
C1374 H1387 0.961 . S
C1374 H1388 0.961 . S
C1375 C1372 1.539 . S
C1375 H1389 0.958 . S
C1375 H1390 0.961 . S
C1375 H1391 0.960 . S
H1376 C1360 0.931 . S
H1377 C1365 0.929 . S
H1378 C1366 0.960 . S
H1379 C1366 0.962 . S
H1380 C1366 0.960 . S
H1381 C1367 0.961 . S
H1382 C1367 0.961 . S
H1383 C1367 0.961 . S
H1384 C1368 0.931 . S
H1385 C1373 0.930 . S
H1386 C1374 0.956 . S
H1387 C1374 0.961 . S
H1388 C1374 0.961 . S
H1389 C1375 0.958 . S
H1390 C1375 0.961 . S
H1391 C1375 0.960 . S
C1392 C1393 1.391 1_565 S
C1392 C1394 1.394 . S
C1392 H1408 0.931 . S
C1393 C1392 1.391 1_545 S
C1393 C1397 1.376 . S
C1394 C1392 1.394 . S
C1394 C1395 1.385 . S
C1394 C1398 1.531 . S
C1395 C1394 1.385 . S
C1395 C1396 1.390 1_565 S
C1395 C1403 1.507 . S
C1396 C1395 1.390 1_545 S
C1396 C1397 1.392 . S
C1396 C1399 1.511 . S
C1397 C1393 1.376 . S
C1397 C1396 1.392 . S
C1397 H1409 0.929 . S
C1398 C1394 1.531 . S
C1398 H1410 0.960 . S
C1398 H1411 0.962 . S
C1398 H1412 0.960 . S
C1399 C1396 1.511 . S
C1399 H1413 0.961 . S
C1399 H1414 0.961 . S
C1399 H1415 0.961 . S
C1400 C1401 1.370 . S
C1400 C1402 1.363 . S
C1400 H1416 0.931 . S
C1401 C1400 1.370 . S
C1401 C1405 1.408 . S
C1402 C1400 1.363 . S
C1402 C1403 1.370 . S
C1402 C1406 1.524 . S
C1403 C1395 1.507 . S
C1403 C1402 1.370 . S
C1403 C1404 1.403 . S
C1404 C1403 1.403 . S
C1404 C1405 1.404 . S
C1404 C1407 1.539 1_565 S
C1405 C1401 1.408 . S
C1405 C1404 1.404 . S
C1405 H1417 0.930 . S
C1406 C1402 1.524 . S
C1406 H1418 0.956 . S
C1406 H1419 0.961 . S
C1406 H1420 0.961 . S
C1407 C1404 1.539 1_545 S
C1407 H1421 0.958 1_545 S
C1407 H1422 0.961 . S
C1407 H1423 0.960 . S
H1408 C1392 0.931 . S
H1409 C1397 0.929 . S
H1410 C1398 0.960 . S
H1411 C1398 0.962 . S
H1412 C1398 0.960 . S
H1413 C1399 0.961 . S
H1414 C1399 0.961 . S
H1415 C1399 0.961 . S
H1416 C1400 0.931 . S
H1417 C1405 0.930 . S
H1418 C1406 0.956 . S
H1419 C1406 0.961 . S
H1420 C1406 0.961 . S
H1421 C1407 0.958 1_565 S
H1422 C1407 0.961 . S
H1423 C1407 0.960 . S
C1424 C1425 1.391 . S
C1424 C1426 1.394 . S
C1424 H1440 0.931 . S
C1425 C1424 1.391 . S
C1425 C1429 1.376 . S
C1426 C1424 1.394 . S
C1426 C1427 1.369 . S
C1426 C1430 1.531 . S
C1427 C1426 1.369 . S
C1427 C1428 1.410 . S
C1427 C1435 1.503 . S
C1428 C1427 1.410 . S
C1428 C1429 1.392 . S
C1428 C1431 1.511 . S
C1429 C1425 1.376 . S
C1429 C1428 1.392 . S
C1429 H1441 0.929 . S
C1430 C1426 1.531 . S
C1430 H1442 0.960 . S
C1430 H1443 0.962 . S
C1430 H1444 0.960 . S
C1431 C1428 1.511 . S
C1431 H1445 0.961 . S
C1431 H1446 0.961 . S
C1431 H1447 0.961 . S
C1432 C1433 1.370 . S
C1432 C1434 1.305 1_556 S
C1432 H1448 0.931 . S
C1433 C1432 1.370 . S
C1433 C1437 1.408 . S
C1434 C1432 1.305 1_554 S
C1434 C1435 1.387 . S
C1434 C1438 1.567 . S
C1435 C1427 1.503 . S
C1435 C1434 1.387 . S
C1435 C1436 1.403 1_554 S
C1436 C1435 1.403 1_556 S
C1436 C1437 1.404 . S
C1436 C1439 1.539 . S
C1437 C1433 1.408 . S
C1437 C1436 1.404 . S
C1437 H1449 0.930 . S
C1438 C1434 1.567 . S
C1438 H1450 0.956 . S
C1438 H1451 0.961 . S
C1438 H1452 0.961 . S
C1439 C1436 1.539 . S
C1439 H1453 0.958 . S
C1439 H1454 0.961 . S
C1439 H1455 0.960 1_556 S
H1440 C1424 0.931 . S
H1441 C1429 0.929 . S
H1442 C1430 0.960 . S
H1443 C1430 0.962 . S
H1444 C1430 0.960 . S
H1445 C1431 0.961 . S
H1446 C1431 0.961 . S
H1447 C1431 0.961 . S
H1448 C1432 0.931 . S
H1449 C1437 0.930 . S
H1450 C1438 0.956 . S
H1451 C1438 0.961 . S
H1452 C1438 0.961 . S
H1453 C1439 0.958 . S
H1454 C1439 0.961 . S
H1455 C1439 0.960 1_554 S
C1456 C1457 1.391 . S
C1456 C1458 1.394 . S
C1456 H1472 0.931 . S
C1457 C1456 1.391 . S
C1457 C1461 1.376 1_545 S
C1458 C1456 1.394 . S
C1458 C1459 1.369 . S
C1458 C1462 1.531 . S
C1459 C1458 1.369 . S
C1459 C1460 1.410 1_545 S
C1459 C1467 1.503 . S
C1460 C1459 1.410 1_565 S
C1460 C1461 1.392 . S
C1460 C1463 1.511 . S
C1461 C1457 1.376 1_565 S
C1461 C1460 1.392 . S
C1461 H1473 0.929 . S
C1462 C1458 1.531 . S
C1462 H1474 0.960 . S
C1462 H1475 0.962 . S
C1462 H1476 0.960 . S
C1463 C1460 1.511 . S
C1463 H1477 0.961 . S
C1463 H1478 0.961 . S
C1463 H1479 0.961 . S
C1464 C1465 1.370 . S
C1464 C1466 1.363 . S
C1464 H1480 0.931 . S
C1465 C1464 1.370 . S
C1465 C1469 1.408 1_565 S
C1466 C1464 1.363 . S
C1466 C1467 1.370 1_565 S
C1466 C1470 1.524 . S
C1467 C1459 1.503 . S
C1467 C1466 1.370 1_545 S
C1467 C1468 1.403 . S
C1468 C1467 1.403 . S
C1468 C1469 1.404 . S
C1468 C1471 1.539 . S
C1469 C1465 1.408 1_545 S
C1469 C1468 1.404 . S
C1469 H1481 0.930 . S
C1470 C1466 1.524 . S
C1470 H1482 0.956 . S
C1470 H1483 0.961 . S
C1470 H1484 0.961 . S
C1471 C1468 1.539 . S
C1471 H1485 0.958 . S
C1471 H1486 0.961 . S
C1471 H1487 0.960 . S
H1472 C1456 0.931 . S
H1473 C1461 0.929 . S
H1474 C1462 0.960 . S
H1475 C1462 0.962 . S
H1476 C1462 0.960 . S
H1477 C1463 0.961 . S
H1478 C1463 0.961 . S
H1479 C1463 0.961 . S
H1480 C1464 0.931 . S
H1481 C1469 0.930 . S
H1482 C1470 0.956 . S
H1483 C1470 0.961 . S
H1484 C1470 0.961 . S
H1485 C1471 0.958 . S
H1486 C1471 0.961 . S
H1487 C1471 0.960 . S
C1488 C1489 1.391 . S
C1488 C1490 1.394 . S
C1488 H1504 0.931 . S
C1489 C1488 1.391 . S
C1489 C1493 1.376 1_565 S
C1490 C1488 1.394 . S
C1490 C1491 1.369 . S
C1490 C1494 1.531 1_556 S
C1491 C1490 1.369 . S
C1491 C1492 1.410 1_565 S
C1491 C1499 1.503 1_566 S
C1492 C1491 1.410 1_545 S
C1492 C1493 1.392 . S
C1492 C1495 1.511 . S
C1493 C1489 1.376 1_545 S
C1493 C1492 1.392 . S
C1493 H1505 0.929 . S
C1494 C1490 1.531 1_554 S
C1494 H1506 0.960 . S
C1494 H1507 0.962 1_554 S
C1494 H1508 0.960 1_554 S
C1495 C1492 1.511 . S
C1495 H1509 0.961 . S
C1495 H1510 0.961 1_556 S
C1495 H1511 0.961 1_556 S
C1496 C1497 1.370 . S
C1496 C1498 1.363 . S
C1496 H1512 0.931 . S
C1497 C1496 1.370 . S
C1497 C1501 1.408 . S
C1498 C1496 1.363 . S
C1498 C1499 1.370 . S
C1498 C1502 1.524 1_554 S
C1499 C1491 1.503 1_544 S
C1499 C1498 1.370 . S
C1499 C1500 1.403 . S
C1500 C1499 1.403 . S
C1500 C1501 1.404 . S
C1500 C1503 1.539 1_545 S
C1501 C1497 1.408 . S
C1501 C1500 1.404 . S
C1501 H1513 0.930 . S
C1502 C1498 1.524 1_556 S
C1502 H1514 0.956 . S
C1502 H1515 0.961 . S
C1502 H1516 0.965 . S
C1503 C1500 1.539 1_565 S
C1503 H1517 0.958 . S
C1503 H1518 0.961 . S
C1503 H1519 0.960 . S
H1504 C1488 0.931 . S
H1505 C1493 0.929 . S
H1506 C1494 0.960 . S
H1507 C1494 0.962 1_556 S
H1508 C1494 0.960 1_556 S
H1509 C1495 0.961 . S
H1510 C1495 0.961 1_554 S
H1511 C1495 0.961 1_554 S
H1512 C1496 0.931 . S
H1513 C1501 0.930 . S
H1514 C1502 0.956 . S
H1515 C1502 0.961 . S
H1516 C1502 0.965 . S
H1517 C1503 0.958 . S
H1518 C1503 0.961 . S
H1519 C1503 0.960 . S
C1520 C1521 1.391 . S
C1520 C1522 1.394 . S
C1520 H1536 0.931 . S
C1521 C1520 1.391 . S
C1521 C1525 1.376 . S
C1522 C1520 1.394 . S
C1522 C1523 1.369 . S
C1522 C1526 1.531 . S
C1523 C1522 1.369 . S
C1523 C1524 1.410 . S
C1523 C1531 1.503 . S
C1524 C1523 1.410 . S
C1524 C1525 1.392 . S
C1524 C1527 1.511 . S
C1525 C1521 1.376 . S
C1525 C1524 1.392 . S
C1525 H1537 0.929 . S
C1526 C1522 1.531 . S
C1526 H1538 0.960 . S
C1526 H1539 0.962 . S
C1526 H1540 0.960 . S
C1527 C1524 1.511 . S
C1527 H1541 0.961 . S
C1527 H1542 0.961 . S
C1527 H1543 0.961 . S
C1528 C1529 1.370 . S
C1528 C1530 1.363 . S
C1528 H1544 0.931 . S
C1529 C1528 1.370 . S
C1529 C1533 1.408 . S
C1530 C1528 1.363 . S
C1530 C1531 1.370 . S
C1530 C1534 1.524 . S
C1531 C1523 1.503 . S
C1531 C1530 1.370 . S
C1531 C1532 1.403 . S
C1532 C1531 1.403 . S
C1532 C1533 1.404 . S
C1532 C1535 1.539 . S
C1533 C1529 1.408 . S
C1533 C1532 1.404 . S
C1533 H1545 0.930 . S
C1534 C1530 1.524 . S
C1534 H1546 0.956 . S
C1534 H1547 0.961 . S
C1534 H1548 0.961 . S
C1535 C1532 1.539 . S
C1535 H1549 0.958 . S
C1535 H1550 0.961 . S
C1535 H1551 0.960 . S
H1536 C1520 0.931 . S
H1537 C1525 0.929 . S
H1538 C1526 0.960 . S
H1539 C1526 0.962 . S
H1540 C1526 0.960 . S
H1541 C1527 0.961 . S
H1542 C1527 0.961 . S
H1543 C1527 0.961 . S
H1544 C1528 0.931 . S
H1545 C1533 0.930 . S
H1546 C1534 0.956 . S
H1547 C1534 0.961 . S
H1548 C1534 0.961 . S
H1549 C1535 0.958 . S
H1550 C1535 0.961 . S
H1551 C1535 0.960 . S
C1552 C1553 1.391 1_455 S
C1552 C1554 1.394 . S
C1552 H1568 0.931 . S
C1553 C1552 1.391 1_655 S
C1553 C1557 1.376 . S
C1554 C1552 1.394 . S
C1554 C1555 1.369 1_455 S
C1554 C1558 1.531 . S
C1555 C1554 1.369 1_655 S
C1555 C1556 1.410 . S
C1555 C1563 1.503 1_645 S
C1556 C1555 1.410 . S
C1556 C1557 1.392 . S
C1556 C1559 1.511 1_545 S
C1557 C1553 1.376 . S
C1557 C1556 1.392 . S
C1557 H1569 0.929 . S
C1558 C1554 1.531 . S
C1558 H1570 0.960 . S
C1558 H1571 0.962 . S
C1558 H1572 0.960 . S
C1559 C1556 1.511 1_565 S
C1559 H1573 0.961 . S
C1559 H1574 0.961 . S
C1559 H1575 0.961 1_565 S
C1560 C1561 1.370 . S
C1560 C1562 1.363 . S
C1560 H1576 0.931 . S
C1561 C1560 1.370 . S
C1561 C1565 1.408 1_565 S
C1562 C1560 1.363 . S
C1562 C1563 1.370 . S
C1562 C1566 1.524 . S
C1563 C1555 1.503 1_465 S
C1563 C1562 1.370 . S
C1563 C1564 1.403 1_565 S
C1564 C1563 1.403 1_545 S
C1564 C1565 1.404 . S
C1564 C1567 1.539 1_455 S
C1565 C1561 1.408 1_545 S
C1565 C1564 1.404 . S
C1565 H1577 0.930 . S
C1566 C1562 1.524 . S
C1566 H1578 0.956 . S
C1566 H1579 0.961 1_455 S
C1566 H1580 0.961 . S
C1567 C1564 1.539 1_655 S
C1567 H1581 0.958 1_655 S
C1567 H1582 0.961 . S
C1567 H1583 0.960 . S
H1568 C1552 0.931 . S
H1569 C1557 0.929 . S
H1570 C1558 0.960 . S
H1571 C1558 0.962 . S
H1572 C1558 0.960 . S
H1573 C1559 0.961 . S
H1574 C1559 0.961 . S
H1575 C1559 0.961 1_545 S
H1576 C1560 0.931 . S
H1577 C1565 0.930 . S
H1578 C1566 0.956 . S
H1579 C1566 0.961 1_655 S
H1580 C1566 0.961 . S
H1581 C1567 0.958 1_455 S
H1582 C1567 0.961 . S
H1583 C1567 0.960 . S
C1584 C1585 1.391 . S
C1584 C1586 1.394 . S
C1584 H1600 0.931 . S
C1585 C1584 1.391 . S
C1585 C1589 1.376 . S
C1586 C1584 1.394 . S
C1586 C1587 1.369 . S
C1586 C1590 1.531 . S
C1587 C1586 1.369 . S
C1587 C1588 1.410 . S
C1587 C1595 1.503 . S
C1588 C1587 1.410 . S
C1588 C1589 1.392 . S
C1588 C1591 1.511 . S
C1589 C1585 1.376 . S
C1589 C1588 1.392 . S
C1589 H1601 0.929 . S
C1590 C1586 1.531 . S
C1590 H1602 0.960 . S
C1590 H1603 0.962 . S
C1590 H1604 0.960 . S
C1591 C1588 1.511 . S
C1591 H1605 0.961 . S
C1591 H1606 0.961 . S
C1591 H1607 0.961 . S
C1592 C1593 1.370 . S
C1592 C1594 1.363 . S
C1592 H1608 0.931 . S
C1593 C1592 1.370 . S
C1593 C1597 1.408 . S
C1594 C1592 1.363 . S
C1594 C1595 1.370 . S
C1594 C1598 1.524 . S
C1595 C1587 1.503 . S
C1595 C1594 1.370 . S
C1595 C1596 1.403 . S
C1596 C1595 1.403 . S
C1596 C1597 1.404 . S
C1596 C1599 1.539 . S
C1597 C1593 1.408 . S
C1597 C1596 1.404 . S
C1597 H1609 0.930 . S
C1598 C1594 1.524 . S
C1598 H1610 0.956 . S
C1598 H1611 0.961 . S
C1598 H1612 0.961 . S
C1599 C1596 1.539 . S
C1599 H1613 0.958 . S
C1599 H1614 0.961 . S
C1599 H1615 0.960 . S
H1600 C1584 0.931 . S
H1601 C1589 0.929 . S
H1602 C1590 0.960 . S
H1603 C1590 0.962 . S
H1604 C1590 0.960 . S
H1605 C1591 0.961 . S
H1606 C1591 0.961 . S
H1607 C1591 0.961 . S
H1608 C1592 0.931 . S
H1609 C1597 0.930 . S
H1610 C1598 0.956 . S
H1611 C1598 0.961 . S
H1612 C1598 0.961 . S
H1613 C1599 0.958 . S
H1614 C1599 0.961 . S
H1615 C1599 0.960 . S
C1616 C1617 1.391 . S
C1616 C1618 1.394 . S
C1616 H1632 0.931 . S
C1617 C1616 1.391 . S
C1617 C1621 1.376 . S
C1618 C1616 1.394 . S
C1618 C1619 1.369 . S
C1618 C1622 1.531 . S
C1619 C1618 1.369 . S
C1619 C1620 1.410 . S
C1619 C1627 1.503 . S
C1620 C1619 1.410 . S
C1620 C1621 1.392 . S
C1620 C1623 1.511 . S
C1621 C1617 1.376 . S
C1621 C1620 1.392 . S
C1621 H1633 0.929 . S
C1622 C1618 1.531 . S
C1622 H1634 0.960 . S
C1622 H1635 0.962 . S
C1622 H1636 0.960 . S
C1623 C1620 1.511 . S
C1623 H1637 0.961 . S
C1623 H1638 0.961 . S
C1623 H1639 0.961 . S
C1624 C1625 1.370 . S
C1624 C1626 1.363 . S
C1624 H1640 0.931 . S
C1625 C1624 1.370 . S
C1625 C1629 1.408 . S
C1626 C1624 1.363 . S
C1626 C1627 1.370 . S
C1626 C1630 1.524 . S
C1627 C1619 1.503 . S
C1627 C1626 1.370 . S
C1627 C1628 1.403 . S
C1628 C1627 1.403 . S
C1628 C1629 1.404 . S
C1628 C1631 1.539 . S
C1629 C1625 1.408 . S
C1629 C1628 1.404 . S
C1629 H1641 0.930 . S
C1630 C1626 1.524 . S
C1630 H1642 0.956 . S
C1630 H1643 0.961 . S
C1630 H1644 0.961 . S
C1631 C1628 1.539 . S
C1631 H1645 0.958 . S
C1631 H1646 0.961 . S
C1631 H1647 0.960 . S
H1632 C1616 0.931 . S
H1633 C1621 0.929 . S
H1634 C1622 0.960 . S
H1635 C1622 0.962 . S
H1636 C1622 0.960 . S
H1637 C1623 0.961 . S
H1638 C1623 0.961 . S
H1639 C1623 0.961 . S
H1640 C1624 0.931 . S
H1641 C1629 0.930 . S
H1642 C1630 0.956 . S
H1643 C1630 0.961 . S
H1644 C1630 0.961 . S
H1645 C1631 0.958 . S
H1646 C1631 0.961 . S
H1647 C1631 0.960 . S
C1648 C1649 1.391 . S
C1648 C1650 1.394 . S
C1648 H1664 0.931 . S
C1649 C1648 1.391 . S
C1649 C1653 1.376 . S
C1650 C1648 1.394 . S
C1650 C1651 1.369 . S
C1650 C1654 1.531 . S
C1651 C1650 1.369 . S
C1651 C1652 1.410 . S
C1651 C1659 1.503 . S
C1652 C1651 1.410 . S
C1652 C1653 1.392 . S
C1652 C1655 1.511 . S
C1653 C1649 1.376 . S
C1653 C1652 1.392 . S
C1653 H1665 0.929 . S
C1654 C1650 1.531 . S
C1654 H1666 0.960 . S
C1654 H1667 0.962 . S
C1654 H1668 0.960 . S
C1655 C1652 1.511 . S
C1655 H1669 0.961 . S
C1655 H1670 0.961 . S
C1655 H1671 0.961 . S
C1656 C1657 1.370 . S
C1656 C1658 1.363 . S
C1656 H1672 0.931 . S
C1657 C1656 1.370 . S
C1657 C1661 1.408 . S
C1658 C1656 1.363 . S
C1658 C1659 1.370 . S
C1658 C1662 1.524 . S
C1659 C1651 1.503 . S
C1659 C1658 1.370 . S
C1659 C1660 1.403 . S
C1660 C1659 1.403 . S
C1660 C1661 1.404 . S
C1660 C1663 1.539 . S
C1661 C1657 1.408 . S
C1661 C1660 1.404 . S
C1661 H1673 0.930 . S
C1662 C1658 1.524 . S
C1662 H1674 0.956 . S
C1662 H1675 0.961 . S
C1662 H1676 0.961 . S
C1663 C1660 1.539 . S
C1663 H1677 0.958 . S
C1663 H1678 0.961 . S
C1663 H1679 0.960 . S
H1664 C1648 0.931 . S
H1665 C1653 0.929 . S
H1666 C1654 0.960 . S
H1667 C1654 0.962 . S
H1668 C1654 0.960 . S
H1669 C1655 0.961 . S
H1670 C1655 0.961 . S
H1671 C1655 0.961 . S
H1672 C1656 0.931 . S
H1673 C1661 0.930 . S
H1674 C1662 0.956 . S
H1675 C1662 0.961 . S
H1676 C1662 0.961 . S
H1677 C1663 0.958 . S
H1678 C1663 0.961 . S
H1679 C1663 0.960 . S
C1680 C1681 1.391 . S
C1680 C1682 1.394 1_655 S
C1680 H1696 0.931 1_655 S
C1681 C1680 1.391 . S
C1681 C1685 1.376 . S
C1682 C1680 1.394 1_455 S
C1682 C1683 1.369 . S
C1682 C1686 1.531 . S
C1683 C1682 1.369 . S
C1683 C1684 1.410 1_455 S
C1683 C1691 1.503 . S
C1684 C1683 1.410 1_655 S
C1684 C1685 1.392 . S
C1684 C1687 1.511 . S
C1685 C1681 1.376 . S
C1685 C1684 1.392 . S
C1685 H1697 0.929 . S
C1686 C1682 1.531 . S
C1686 H1698 0.960 . S
C1686 H1699 0.962 . S
C1686 H1700 0.960 . S
C1687 C1684 1.511 . S
C1687 H1701 0.961 . S
C1687 H1702 0.961 . S
C1687 H1703 0.961 . S
C1688 C1689 1.370 . S
C1688 C1690 1.363 1_455 S
C1688 H1704 0.931 1_455 S
C1689 C1688 1.370 . S
C1689 C1693 1.408 . S
C1690 C1688 1.363 1_655 S
C1690 C1691 1.370 1_655 S
C1690 C1694 1.524 . S
C1691 C1683 1.503 . S
C1691 C1690 1.370 1_455 S
C1691 C1692 1.403 . S
C1692 C1691 1.403 . S
C1692 C1693 1.404 . S
C1692 C1695 1.539 . S
C1693 C1689 1.408 . S
C1693 C1692 1.404 . S
C1693 H1705 0.930 . S
C1694 C1690 1.524 . S
C1694 H1706 0.956 . S
C1694 H1707 0.961 . S
C1694 H1708 0.961 . S
C1695 C1692 1.539 . S
C1695 H1709 0.958 . S
C1695 H1710 0.961 . S
C1695 H1711 0.960 . S
H1696 C1680 0.931 1_455 S
H1697 C1685 0.929 . S
H1698 C1686 0.960 . S
H1699 C1686 0.962 . S
H1700 C1686 0.960 . S
H1701 C1687 0.961 . S
H1702 C1687 0.961 . S
H1703 C1687 0.961 . S
H1704 C1688 0.931 1_655 S
H1705 C1693 0.930 . S
H1706 C1694 0.956 . S
H1707 C1694 0.961 . S
H1708 C1694 0.961 . S
H1709 C1695 0.958 . S
H1710 C1695 0.961 . S
H1711 C1695 0.960 . S
C1712 C1713 1.391 . S
C1712 C1714 1.394 . S
C1712 H1728 0.931 . S
C1713 C1712 1.391 . S
C1713 C1717 1.376 . S
C1714 C1712 1.394 . S
C1714 C1715 1.369 . S
C1714 C1718 1.531 . S
C1715 C1714 1.369 . S
C1715 C1716 1.410 . S
C1715 C1723 1.503 1_554 S
C1716 C1715 1.410 . S
C1716 C1717 1.392 . S
C1716 C1719 1.511 1_554 S
C1717 C1713 1.376 . S
C1717 C1716 1.392 . S
C1717 H1729 0.929 . S
C1718 C1714 1.531 . S
C1718 H1730 0.960 . S
C1718 H1731 0.962 . S
C1718 H1732 0.960 . S
C1719 C1716 1.511 1_556 S
C1719 H1733 0.961 . S
C1719 H1734 0.961 . S
C1719 H1735 0.961 . S
C1720 C1721 1.370 . S
C1720 C1722 1.363 . S
C1720 H1736 0.931 . S
C1721 C1720 1.370 . S
C1721 C1725 1.408 . S
C1722 C1720 1.363 . S
C1722 C1723 1.370 . S
C1722 C1726 1.524 . S
C1723 C1715 1.503 1_556 S
C1723 C1722 1.370 . S
C1723 C1724 1.403 . S
C1724 C1723 1.403 . S
C1724 C1725 1.404 . S
C1724 C1727 1.539 . S
C1725 C1721 1.408 . S
C1725 C1724 1.404 . S
C1725 H1737 0.930 . S
C1726 C1722 1.524 . S
C1726 H1738 0.956 . S
C1726 H1739 0.961 . S
C1726 H1740 0.961 . S
C1727 C1724 1.539 . S
C1727 H1741 0.958 1_556 S
C1727 H1742 0.961 . S
C1727 H1743 0.960 1_556 S
H1728 C1712 0.931 . S
H1729 C1717 0.929 . S
H1730 C1718 0.960 . S
H1731 C1718 0.962 . S
H1732 C1718 0.960 . S
H1733 C1719 0.961 . S
H1734 C1719 0.961 . S
H1735 C1719 0.961 . S
H1736 C1720 0.931 . S
H1737 C1725 0.930 . S
H1738 C1726 0.956 . S
H1739 C1726 0.961 . S
H1740 C1726 0.961 . S
H1741 C1727 0.958 1_554 S
H1742 C1727 0.961 . S
H1743 C1727 0.960 1_554 S
C1744 C1745 1.391 . S
C1744 C1746 1.394 . S
C1744 H1760 0.931 . S
C1745 C1744 1.391 . S
C1745 C1749 1.376 . S
C1746 C1744 1.394 . S
C1746 C1747 1.369 . S
C1746 C1750 1.531 . S
C1747 C1746 1.369 . S
C1747 C1748 1.410 . S
C1747 C1755 1.503 . S
C1748 C1747 1.410 . S
C1748 C1749 1.392 . S
C1748 C1751 1.511 . S
C1749 C1745 1.376 . S
C1749 C1748 1.392 . S
C1749 H1761 0.929 . S
C1750 C1746 1.531 . S
C1750 H1762 0.960 . S
C1750 H1763 0.962 . S
C1750 H1764 0.960 . S
C1751 C1748 1.511 . S
C1751 H1765 0.961 . S
C1751 H1766 0.961 . S
C1751 H1767 0.961 . S
C1752 C1753 1.370 . S
C1752 C1754 1.363 . S
C1752 H1768 0.931 . S
C1753 C1752 1.370 . S
C1753 C1757 1.408 . S
C1754 C1752 1.363 . S
C1754 C1755 1.370 . S
C1754 C1758 1.524 . S
C1755 C1747 1.503 . S
C1755 C1754 1.370 . S
C1755 C1756 1.403 . S
C1756 C1755 1.403 . S
C1756 C1757 1.404 . S
C1756 C1759 1.539 . S
C1757 C1753 1.408 . S
C1757 C1756 1.404 . S
C1757 H1769 0.930 . S
C1758 C1754 1.524 . S
C1758 H1770 0.956 . S
C1758 H1771 0.961 . S
C1758 H1772 0.961 . S
C1759 C1756 1.539 . S
C1759 H1773 0.958 . S
C1759 H1774 0.961 . S
C1759 H1775 0.960 . S
H1760 C1744 0.931 . S
H1761 C1749 0.929 . S
H1762 C1750 0.960 . S
H1763 C1750 0.962 . S
H1764 C1750 0.960 . S
H1765 C1751 0.961 . S
H1766 C1751 0.961 . S
H1767 C1751 0.961 . S
H1768 C1752 0.931 . S
H1769 C1757 0.930 . S
H1770 C1758 0.956 . S
H1771 C1758 0.961 . S
H1772 C1758 0.961 . S
H1773 C1759 0.958 . S
H1774 C1759 0.961 . S
H1775 C1759 0.960 . S
C1776 C1777 1.391 . S
C1776 C1778 1.394 . S
C1776 H1792 0.931 . S
C1777 C1776 1.391 . S
C1777 C1781 1.376 . S
C1778 C1776 1.394 . S
C1778 C1779 1.369 . S
C1778 C1782 1.531 . S
C1779 C1778 1.369 . S
C1779 C1780 1.410 . S
C1779 C1787 1.503 . S
C1780 C1779 1.410 . S
C1780 C1781 1.392 . S
C1780 C1783 1.511 . S
C1781 C1777 1.376 . S
C1781 C1780 1.392 . S
C1781 H1793 0.929 . S
C1782 C1778 1.531 . S
C1782 H1794 0.960 . S
C1782 H1795 0.962 . S
C1782 H1796 0.960 . S
C1783 C1780 1.511 . S
C1783 H1797 0.961 . S
C1783 H1798 0.961 . S
C1783 H1799 0.961 . S
C1784 C1785 1.370 . S
C1784 C1786 1.363 . S
C1784 H1800 0.931 . S
C1785 C1784 1.370 . S
C1785 C1789 1.408 . S
C1786 C1784 1.363 . S
C1786 C1787 1.370 . S
C1786 C1790 1.524 . S
C1787 C1779 1.503 . S
C1787 C1786 1.370 . S
C1787 C1788 1.403 . S
C1788 C1787 1.403 . S
C1788 C1789 1.404 . S
C1788 C1791 1.539 . S
C1789 C1785 1.408 . S
C1789 C1788 1.404 . S
C1789 H1801 0.930 . S
C1790 C1786 1.524 . S
C1790 H1802 0.956 . S
C1790 H1803 0.961 . S
C1790 H1804 0.961 . S
C1791 C1788 1.539 . S
C1791 H1805 0.958 . S
C1791 H1806 0.961 . S
C1791 H1807 0.960 . S
H1792 C1776 0.931 . S
H1793 C1781 0.929 . S
H1794 C1782 0.960 . S
H1795 C1782 0.962 . S
H1796 C1782 0.960 . S
H1797 C1783 0.961 . S
H1798 C1783 0.961 . S
H1799 C1783 0.961 . S
H1800 C1784 0.931 . S
H1801 C1789 0.930 . S
H1802 C1790 0.956 . S
H1803 C1790 0.961 . S
H1804 C1790 0.961 . S
H1805 C1791 0.958 . S
H1806 C1791 0.961 . S
H1807 C1791 0.960 . S
C1808 C1809 1.391 . S
C1808 C1810 1.394 . S
C1808 H1824 0.931 . S
C1809 C1808 1.391 . S
C1809 C1813 1.376 . S
C1810 C1808 1.394 . S
C1810 C1811 1.369 . S
C1810 C1814 1.531 . S
C1811 C1810 1.369 . S
C1811 C1812 1.410 . S
C1811 C1819 1.503 . S
C1812 C1811 1.410 . S
C1812 C1813 1.392 . S
C1812 C1815 1.511 . S
C1813 C1809 1.376 . S
C1813 C1812 1.392 . S
C1813 H1825 0.929 . S
C1814 C1810 1.531 . S
C1814 H1826 0.960 . S
C1814 H1827 0.962 . S
C1814 H1828 0.960 . S
C1815 C1812 1.511 . S
C1815 H1829 0.961 . S
C1815 H1830 0.961 . S
C1815 H1831 0.961 . S
C1816 C1817 1.370 . S
C1816 C1818 1.363 . S
C1816 H1832 0.931 . S
C1817 C1816 1.370 . S
C1817 C1821 1.408 . S
C1818 C1816 1.363 . S
C1818 C1819 1.370 . S
C1818 C1822 1.524 . S
C1819 C1811 1.503 . S
C1819 C1818 1.370 . S
C1819 C1820 1.403 . S
C1820 C1819 1.403 . S
C1820 C1821 1.404 . S
C1820 C1823 1.539 . S
C1821 C1817 1.408 . S
C1821 C1820 1.404 . S
C1821 H1833 0.930 . S
C1822 C1818 1.524 . S
C1822 H1834 0.956 . S
C1822 H1835 0.961 . S
C1822 H1836 0.961 . S
C1823 C1820 1.539 . S
C1823 H1837 0.958 . S
C1823 H1838 0.961 . S
C1823 H1839 0.960 . S
H1824 C1808 0.931 . S
H1825 C1813 0.929 . S
H1826 C1814 0.960 . S
H1827 C1814 0.962 . S
H1828 C1814 0.960 . S
H1829 C1815 0.961 . S
H1830 C1815 0.961 . S
H1831 C1815 0.961 . S
H1832 C1816 0.931 . S
H1833 C1821 0.930 . S
H1834 C1822 0.956 . S
H1835 C1822 0.961 . S
H1836 C1822 0.961 . S
H1837 C1823 0.958 . S
H1838 C1823 0.961 . S
H1839 C1823 0.960 . S
C1840 C1841 1.391 . S
C1840 C1842 1.394 . S
C1840 H1856 0.931 . S
C1841 C1840 1.391 . S
C1841 C1845 1.376 . S
C1842 C1840 1.394 . S
C1842 C1843 1.369 . S
C1842 C1846 1.531 . S
C1843 C1842 1.369 . S
C1843 C1844 1.410 . S
C1843 C1851 1.503 . S
C1844 C1843 1.410 . S
C1844 C1845 1.392 . S
C1844 C1847 1.511 . S
C1845 C1841 1.376 . S
C1845 C1844 1.392 . S
C1845 H1857 0.929 . S
C1846 C1842 1.531 . S
C1846 H1858 0.960 . S
C1846 H1859 0.962 . S
C1846 H1860 0.960 . S
C1847 C1844 1.511 . S
C1847 H1861 0.961 . S
C1847 H1862 0.961 . S
C1847 H1863 0.961 . S
C1848 C1849 1.370 . S
C1848 C1850 1.363 . S
C1848 H1864 0.931 . S
C1849 C1848 1.370 . S
C1849 C1853 1.408 . S
C1850 C1848 1.363 . S
C1850 C1851 1.370 . S
C1850 C1854 1.524 . S
C1851 C1843 1.503 . S
C1851 C1850 1.370 . S
C1851 C1852 1.403 . S
C1852 C1851 1.403 . S
C1852 C1853 1.404 . S
C1852 C1855 1.539 . S
C1853 C1849 1.408 . S
C1853 C1852 1.404 . S
C1853 H1865 0.930 . S
C1854 C1850 1.524 . S
C1854 H1866 0.956 . S
C1854 H1867 0.961 . S
C1854 H1868 0.961 . S
C1855 C1852 1.539 . S
C1855 H1869 0.958 . S
C1855 H1870 0.961 . S
C1855 H1871 0.960 . S
H1856 C1840 0.931 . S
H1857 C1845 0.929 . S
H1858 C1846 0.960 . S
H1859 C1846 0.962 . S
H1860 C1846 0.960 . S
H1861 C1847 0.961 . S
H1862 C1847 0.961 . S
H1863 C1847 0.961 . S
H1864 C1848 0.931 . S
H1865 C1853 0.930 . S
H1866 C1854 0.956 . S
H1867 C1854 0.961 . S
H1868 C1854 0.961 . S
H1869 C1855 0.958 . S
H1870 C1855 0.961 . S
H1871 C1855 0.960 . S
C1872 C1873 1.391 . S
C1872 C1874 1.394 . S
C1872 H1888 0.931 . S
C1873 C1872 1.391 . S
C1873 C1877 1.376 . S
C1874 C1872 1.394 . S
C1874 C1875 1.369 . S
C1874 C1878 1.531 . S
C1875 C1874 1.369 . S
C1875 C1876 1.410 . S
C1875 C1883 1.503 . S
C1876 C1875 1.410 . S
C1876 C1877 1.392 . S
C1876 C1879 1.511 . S
C1877 C1873 1.376 . S
C1877 C1876 1.392 . S
C1877 H1889 0.929 . S
C1878 C1874 1.531 . S
C1878 H1890 0.960 . S
C1878 H1891 0.962 . S
C1878 H1892 0.960 . S
C1879 C1876 1.511 . S
C1879 H1893 0.961 . S
C1879 H1894 0.961 . S
C1879 H1895 0.961 . S
C1880 C1881 1.370 . S
C1880 C1882 1.363 . S
C1880 H1896 0.931 . S
C1881 C1880 1.370 . S
C1881 C1885 1.408 . S
C1882 C1880 1.363 . S
C1882 C1883 1.370 . S
C1882 C1886 1.524 . S
C1883 C1875 1.503 . S
C1883 C1882 1.370 . S
C1883 C1884 1.403 . S
C1884 C1883 1.403 . S
C1884 C1885 1.404 . S
C1884 C1887 1.539 . S
C1885 C1881 1.408 . S
C1885 C1884 1.404 . S
C1885 H1897 0.930 . S
C1886 C1882 1.524 . S
C1886 H1898 0.956 . S
C1886 H1899 0.961 . S
C1886 H1900 0.961 . S
C1887 C1884 1.539 . S
C1887 H1901 0.958 . S
C1887 H1902 0.961 . S
C1887 H1903 0.960 . S
H1888 C1872 0.931 . S
H1889 C1877 0.929 . S
H1890 C1878 0.960 . S
H1891 C1878 0.962 . S
H1892 C1878 0.960 . S
H1893 C1879 0.961 . S
H1894 C1879 0.961 . S
H1895 C1879 0.961 . S
H1896 C1880 0.931 . S
H1897 C1885 0.930 . S
H1898 C1886 0.956 . S
H1899 C1886 0.961 . S
H1900 C1886 0.961 . S
H1901 C1887 0.958 . S
H1902 C1887 0.961 . S
H1903 C1887 0.960 . S
C1904 C1905 1.391 . S
C1904 C1906 1.394 . S
C1904 H1920 0.931 . S
C1905 C1904 1.391 . S
C1905 C1909 1.376 . S
C1906 C1904 1.394 . S
C1906 C1907 1.369 . S
C1906 C1910 1.531 . S
C1907 C1906 1.369 . S
C1907 C1908 1.410 . S
C1907 C1915 1.503 . S
C1908 C1907 1.410 . S
C1908 C1909 1.392 . S
C1908 C1911 1.511 . S
C1909 C1905 1.376 . S
C1909 C1908 1.392 . S
C1909 H1921 0.929 . S
C1910 C1906 1.531 . S
C1910 H1922 0.960 . S
C1910 H1923 0.962 . S
C1910 H1924 0.960 . S
C1911 C1908 1.511 . S
C1911 H1925 0.961 . S
C1911 H1926 0.961 . S
C1911 H1927 0.961 . S
C1912 C1913 1.370 . S
C1912 C1914 1.363 . S
C1912 H1928 0.931 . S
C1913 C1912 1.370 . S
C1913 C1917 1.408 . S
C1914 C1912 1.363 . S
C1914 C1915 1.370 . S
C1914 C1918 1.524 . S
C1915 C1907 1.503 . S
C1915 C1914 1.370 . S
C1915 C1916 1.403 . S
C1916 C1915 1.403 . S
C1916 C1917 1.404 . S
C1916 C1919 1.539 . S
C1917 C1913 1.408 . S
C1917 C1916 1.404 . S
C1917 H1929 0.930 . S
C1918 C1914 1.524 . S
C1918 H1930 0.956 . S
C1918 H1931 0.961 . S
C1918 H1932 0.961 . S
C1919 C1916 1.539 . S
C1919 H1933 0.958 . S
C1919 H1934 0.961 . S
C1919 H1935 0.960 . S
H1920 C1904 0.931 . S
H1921 C1909 0.929 . S
H1922 C1910 0.960 . S
H1923 C1910 0.962 . S
H1924 C1910 0.960 . S
H1925 C1911 0.961 . S
H1926 C1911 0.961 . S
H1927 C1911 0.961 . S
H1928 C1912 0.931 . S
H1929 C1917 0.930 . S
H1930 C1918 0.956 . S
H1931 C1918 0.961 . S
H1932 C1918 0.961 . S
H1933 C1919 0.958 . S
H1934 C1919 0.961 . S
H1935 C1919 0.960 . S
C1936 C1937 1.391 . S
C1936 C1938 1.394 . S
C1936 H1952 0.931 . S
C1937 C1936 1.391 . S
C1937 C1941 1.376 . S
C1938 C1936 1.394 . S
C1938 C1939 1.369 . S
C1938 C1942 1.531 . S
C1939 C1938 1.369 . S
C1939 C1940 1.410 . S
C1939 C1947 1.503 . S
C1940 C1939 1.410 . S
C1940 C1941 1.392 . S
C1940 C1943 1.511 . S
C1941 C1937 1.376 . S
C1941 C1940 1.392 . S
C1941 H1953 0.929 . S
C1942 C1938 1.531 . S
C1942 H1954 0.960 . S
C1942 H1955 0.962 . S
C1942 H1956 0.960 . S
C1943 C1940 1.511 . S
C1943 H1957 0.961 . S
C1943 H1958 0.961 . S
C1943 H1959 0.961 . S
C1944 C1945 1.370 . S
C1944 C1946 1.363 . S
C1944 H1960 0.931 . S
C1945 C1944 1.370 . S
C1945 C1949 1.408 . S
C1946 C1944 1.363 . S
C1946 C1947 1.370 . S
C1946 C1950 1.524 . S
C1947 C1939 1.503 . S
C1947 C1946 1.370 . S
C1947 C1948 1.403 . S
C1948 C1947 1.403 . S
C1948 C1949 1.404 . S
C1948 C1951 1.539 . S
C1949 C1945 1.408 . S
C1949 C1948 1.404 . S
C1949 H1961 0.930 . S
C1950 C1946 1.524 . S
C1950 H1962 0.956 . S
C1950 H1963 0.961 . S
C1950 H1964 0.961 . S
C1951 C1948 1.539 . S
C1951 H1965 0.958 . S
C1951 H1966 0.961 . S
C1951 H1967 0.960 . S
H1952 C1936 0.931 . S
H1953 C1941 0.929 . S
H1954 C1942 0.960 . S
H1955 C1942 0.962 . S
H1956 C1942 0.960 . S
H1957 C1943 0.961 . S
H1958 C1943 0.961 . S
H1959 C1943 0.961 . S
H1960 C1944 0.931 . S
H1961 C1949 0.930 . S
H1962 C1950 0.956 . S
H1963 C1950 0.961 . S
H1964 C1950 0.961 . S
H1965 C1951 0.958 . S
H1966 C1951 0.961 . S
H1967 C1951 0.960 . S
C1968 C1969 1.391 . S
C1968 C1970 1.394 . S
C1968 H1984 0.931 . S
C1969 C1968 1.391 . S
C1969 C1973 1.376 . S
C1970 C1968 1.394 . S
C1970 C1971 1.369 . S
C1970 C1974 1.531 . S
C1971 C1970 1.369 . S
C1971 C1972 1.410 . S
C1971 C1979 1.503 . S
C1972 C1971 1.410 . S
C1972 C1973 1.392 . S
C1972 C1975 1.511 . S
C1973 C1969 1.376 . S
C1973 C1972 1.392 . S
C1973 H1985 0.929 . S
C1974 C1970 1.531 . S
C1974 H1986 0.960 . S
C1974 H1987 0.962 . S
C1974 H1988 0.960 . S
C1975 C1972 1.511 . S
C1975 H1989 0.961 . S
C1975 H1990 0.961 . S
C1975 H1991 0.961 . S
C1976 C1977 1.370 . S
C1976 C1978 1.363 . S
C1976 H1992 0.931 . S
C1977 C1976 1.370 . S
C1977 C1981 1.408 . S
C1978 C1976 1.363 . S
C1978 C1979 1.370 . S
C1978 C1982 1.524 . S
C1979 C1971 1.503 . S
C1979 C1978 1.370 . S
C1979 C1980 1.403 . S
C1980 C1979 1.403 . S
C1980 C1981 1.404 . S
C1980 C1983 1.539 . S
C1981 C1977 1.408 . S
C1981 C1980 1.404 . S
C1981 H1993 0.930 . S
C1982 C1978 1.524 . S
C1982 H1994 0.956 . S
C1982 H1995 0.961 . S
C1982 H1996 0.961 . S
C1983 C1980 1.539 . S
C1983 H1997 0.958 . S
C1983 H1998 0.961 . S
C1983 H1999 0.960 . S
H1984 C1968 0.931 . S
H1985 C1973 0.929 . S
H1986 C1974 0.960 . S
H1987 C1974 0.962 . S
H1988 C1974 0.960 . S
H1989 C1975 0.961 . S
H1990 C1975 0.961 . S
H1991 C1975 0.961 . S
H1992 C1976 0.931 . S
H1993 C1981 0.930 . S
H1994 C1982 0.956 . S
H1995 C1982 0.961 . S
H1996 C1982 0.961 . S
H1997 C1983 0.958 . S
H1998 C1983 0.961 . S
H1999 C1983 0.960 . S
C2000 C2001 1.391 . S
C2000 C2002 1.394 . S
C2000 H2016 0.931 . S
C2001 C2000 1.391 . S
C2001 C2005 1.376 . S
C2002 C2000 1.394 . S
C2002 C2003 1.369 . S
C2002 C2006 1.531 . S
C2003 C2002 1.369 . S
C2003 C2004 1.410 . S
C2003 C2011 1.503 . S
C2004 C2003 1.410 . S
C2004 C2005 1.392 . S
C2004 C2007 1.511 . S
C2005 C2001 1.376 . S
C2005 C2004 1.392 . S
C2005 H2017 0.929 . S
C2006 C2002 1.531 . S
C2006 H2018 0.960 . S
C2006 H2019 0.962 . S
C2006 H2020 0.960 . S
C2007 C2004 1.511 . S
C2007 H2021 0.961 . S
C2007 H2022 0.961 . S
C2007 H2023 0.961 . S
C2008 C2009 1.370 . S
C2008 C2010 1.363 . S
C2008 H2024 0.931 . S
C2009 C2008 1.370 . S
C2009 C2013 1.408 . S
C2010 C2008 1.363 . S
C2010 C2011 1.370 . S
C2010 C2014 1.524 . S
C2011 C2003 1.503 . S
C2011 C2010 1.370 . S
C2011 C2012 1.403 . S
C2012 C2011 1.403 . S
C2012 C2013 1.404 . S
C2012 C2015 1.539 . S
C2013 C2009 1.408 . S
C2013 C2012 1.404 . S
C2013 H2025 0.930 . S
C2014 C2010 1.524 . S
C2014 H2026 0.956 . S
C2014 H2027 0.961 . S
C2014 H2028 0.961 . S
C2015 C2012 1.539 . S
C2015 H2029 0.958 . S
C2015 H2030 0.961 . S
C2015 H2031 0.960 . S
H2016 C2000 0.931 . S
H2017 C2005 0.929 . S
H2018 C2006 0.960 . S
H2019 C2006 0.962 . S
H2020 C2006 0.960 . S
H2021 C2007 0.961 . S
H2022 C2007 0.961 . S
H2023 C2007 0.961 . S
H2024 C2008 0.931 . S
H2025 C2013 0.930 . S
H2026 C2014 0.956 . S
H2027 C2014 0.961 . S
H2028 C2014 0.961 . S
H2029 C2015 0.958 . S
H2030 C2015 0.961 . S
H2031 C2015 0.960 . S
C2032 C2033 1.391 . S
C2032 C2034 1.394 . S
C2032 H2048 0.931 1_545 S
C2033 C2032 1.391 . S
C2033 C2037 1.376 . S
C2034 C2032 1.394 . S
C2034 C2035 1.369 . S
C2034 C2038 1.531 1_545 S
C2035 C2034 1.369 . S
C2035 C2036 1.410 . S
C2035 C2043 1.503 . S
C2036 C2035 1.410 . S
C2036 C2037 1.392 . S
C2036 C2039 1.511 . S
C2037 C2033 1.376 . S
C2037 C2036 1.392 . S
C2037 H2049 0.929 . S
C2038 C2034 1.531 1_565 S
C2038 H2050 0.960 1_565 S
C2038 H2051 0.962 . S
C2038 H2052 0.960 . S
C2039 C2036 1.511 . S
C2039 H2053 0.961 . S
C2039 H2054 0.961 . S
C2039 H2055 0.961 . S
C2040 C2041 1.370 . S
C2040 C2042 1.363 . S
C2040 H2056 0.931 . S
C2041 C2040 1.370 . S
C2041 C2045 1.408 . S
C2042 C2040 1.363 . S
C2042 C2043 1.370 . S
C2042 C2046 1.524 . S
C2043 C2035 1.503 . S
C2043 C2042 1.370 . S
C2043 C2044 1.403 . S
C2044 C2043 1.403 . S
C2044 C2045 1.404 . S
C2044 C2047 1.539 . S
C2045 C2041 1.408 . S
C2045 C2044 1.404 . S
C2045 H2057 0.930 . S
C2046 C2042 1.524 . S
C2046 H2058 0.956 1_545 S
C2046 H2059 0.961 . S
C2046 H2060 0.961 . S
C2047 C2044 1.539 . S
C2047 H2061 0.958 . S
C2047 H2062 0.961 . S
C2047 H2063 0.960 . S
H2048 C2032 0.931 1_565 S
H2049 C2037 0.929 . S
H2050 C2038 0.960 1_545 S
H2051 C2038 0.962 . S
H2052 C2038 0.960 . S
H2053 C2039 0.961 . S
H2054 C2039 0.961 . S
H2055 C2039 0.961 . S
H2056 C2040 0.931 . S
H2057 C2045 0.930 . S
H2058 C2046 0.956 1_565 S
H2059 C2046 0.961 . S
H2060 C2046 0.961 . S
H2061 C2047 0.958 . S
H2062 C2047 0.961 . S
H2063 C2047 0.960 . S
C2064 C2065 1.391 . S
C2064 C2066 1.394 . S
C2064 H2080 0.931 . S
C2065 C2064 1.391 . S
C2065 C2069 1.376 . S
C2066 C2064 1.394 . S
C2066 C2067 1.369 . S
C2066 C2070 1.531 . S
C2067 C2066 1.369 . S
C2067 C2068 1.410 . S
C2067 C2075 1.503 . S
C2068 C2067 1.410 . S
C2068 C2069 1.392 . S
C2068 C2071 1.511 . S
C2069 C2065 1.376 . S
C2069 C2068 1.392 . S
C2069 H2081 0.929 . S
C2070 C2066 1.531 . S
C2070 H2082 0.960 . S
C2070 H2083 0.962 . S
C2070 H2084 0.960 . S
C2071 C2068 1.511 . S
C2071 H2085 0.961 . S
C2071 H2086 0.961 . S
C2071 H2087 0.961 . S
C2072 C2073 1.370 . S
C2072 C2074 1.363 . S
C2072 H2088 0.931 . S
C2073 C2072 1.370 . S
C2073 C2077 1.408 . S
C2074 C2072 1.363 . S
C2074 C2075 1.370 . S
C2074 C2078 1.524 . S
C2075 C2067 1.503 . S
C2075 C2074 1.370 . S
C2075 C2076 1.403 . S
C2076 C2075 1.403 . S
C2076 C2077 1.404 . S
C2076 C2079 1.539 . S
C2077 C2073 1.408 . S
C2077 C2076 1.404 . S
C2077 H2089 0.930 . S
C2078 C2074 1.524 . S
C2078 H2090 0.956 . S
C2078 H2091 0.961 . S
C2078 H2092 0.961 . S
C2079 C2076 1.539 . S
C2079 H2093 0.958 . S
C2079 H2094 0.961 . S
C2079 H2095 0.960 . S
H2080 C2064 0.931 . S
H2081 C2069 0.929 . S
H2082 C2070 0.960 . S
H2083 C2070 0.962 . S
H2084 C2070 0.960 . S
H2085 C2071 0.961 . S
H2086 C2071 0.961 . S
H2087 C2071 0.961 . S
H2088 C2072 0.931 . S
H2089 C2077 0.930 . S
H2090 C2078 0.956 . S
H2091 C2078 0.961 . S
H2092 C2078 0.961 . S
H2093 C2079 0.958 . S
H2094 C2079 0.961 . S
H2095 C2079 0.960 . S
C2096 C2097 1.391 . S
C2096 C2098 1.394 . S
C2096 H2112 0.931 . S
C2097 C2096 1.391 . S
C2097 C2101 1.376 . S
C2098 C2096 1.394 . S
C2098 C2099 1.369 . S
C2098 C2102 1.531 1_565 S
C2099 C2098 1.369 . S
C2099 C2100 1.410 . S
C2099 C2107 1.503 . S
C2100 C2099 1.410 . S
C2100 C2101 1.392 . S
C2100 C2103 1.511 . S
C2101 C2097 1.376 . S
C2101 C2100 1.392 . S
C2101 H2113 0.929 . S
C2102 C2098 1.531 1_545 S
C2102 H2114 0.960 . S
C2102 H2115 0.962 1_545 S
C2102 H2116 0.960 . S
C2103 C2100 1.511 . S
C2103 H2117 0.961 . S
C2103 H2118 0.961 . S
C2103 H2119 0.961 . S
C2104 C2105 1.370 . S
C2104 C2106 1.363 . S
C2104 H2120 0.931 . S
C2105 C2104 1.370 . S
C2105 C2109 1.408 1_565 S
C2106 C2104 1.363 . S
C2106 C2107 1.370 . S
C2106 C2110 1.524 . S
C2107 C2099 1.503 . S
C2107 C2106 1.370 . S
C2107 C2108 1.403 1_565 S
C2108 C2107 1.403 1_545 S
C2108 C2109 1.404 . S
C2108 C2111 1.539 . S
C2109 C2105 1.408 1_545 S
C2109 C2108 1.404 . S
C2109 H2121 0.930 . S
C2110 C2106 1.524 . S
C2110 H2122 0.956 . S
C2110 H2123 0.961 . S
C2110 H2124 0.961 . S
C2111 C2108 1.539 . S
C2111 H2125 0.958 . S
C2111 H2126 0.961 . S
C2111 H2127 0.960 . S
H2112 C2096 0.931 . S
H2113 C2101 0.929 . S
H2114 C2102 0.960 . S
H2115 C2102 0.962 1_565 S
H2116 C2102 0.960 . S
H2117 C2103 0.961 . S
H2118 C2103 0.961 . S
H2119 C2103 0.961 . S
H2120 C2104 0.931 . S
H2121 C2109 0.930 . S
H2122 C2110 0.956 . S
H2123 C2110 0.961 . S
H2124 C2110 0.961 . S
H2125 C2111 0.958 . S
H2126 C2111 0.961 . S
H2127 C2111 0.960 . S
C2128 C2129 1.391 . S
C2128 C2130 1.394 . S
C2128 H2144 0.931 . S
C2129 C2128 1.391 . S
C2129 C2133 1.376 . S
C2130 C2128 1.394 . S
C2130 C2131 1.369 . S
C2130 C2134 1.531 . S
C2131 C2130 1.369 . S
C2131 C2132 1.410 . S
C2131 C2139 1.503 . S
C2132 C2131 1.410 . S
C2132 C2133 1.392 . S
C2132 C2135 1.511 . S
C2133 C2129 1.376 . S
C2133 C2132 1.392 . S
C2133 H2145 0.929 . S
C2134 C2130 1.531 . S
C2134 H2146 0.960 . S
C2134 H2147 0.962 . S
C2134 H2148 0.960 . S
C2135 C2132 1.511 . S
C2135 H2149 0.961 . S
C2135 H2150 0.961 . S
C2135 H2151 0.961 . S
C2136 C2137 1.370 . S
C2136 C2138 1.363 . S
C2136 H2152 0.931 . S
C2137 C2136 1.370 . S
C2137 C2141 1.408 . S
C2138 C2136 1.363 . S
C2138 C2139 1.370 . S
C2138 C2142 1.524 . S
C2139 C2131 1.503 . S
C2139 C2138 1.370 . S
C2139 C2140 1.403 . S
C2140 C2139 1.403 . S
C2140 C2141 1.404 . S
C2140 C2143 1.539 . S
C2141 C2137 1.408 . S
C2141 C2140 1.404 . S
C2141 H2153 0.930 . S
C2142 C2138 1.524 . S
C2142 H2154 0.956 . S
C2142 H2155 0.961 . S
C2142 H2156 0.961 . S
C2143 C2140 1.539 . S
C2143 H2157 0.958 . S
C2143 H2158 0.961 . S
C2143 H2159 0.960 . S
H2144 C2128 0.931 . S
H2145 C2133 0.929 . S
H2146 C2134 0.960 . S
H2147 C2134 0.962 . S
H2148 C2134 0.960 . S
H2149 C2135 0.961 . S
H2150 C2135 0.961 . S
H2151 C2135 0.961 . S
H2152 C2136 0.931 . S
H2153 C2141 0.930 . S
H2154 C2142 0.956 . S
H2155 C2142 0.961 . S
H2156 C2142 0.961 . S
H2157 C2143 0.958 . S
H2158 C2143 0.961 . S
H2159 C2143 0.960 . S
C2160 C2161 1.391 . S
C2160 C2162 1.394 . S
C2160 H2176 0.931 . S
C2161 C2160 1.391 . S
C2161 C2165 1.376 1_545 S
C2162 C2160 1.394 . S
C2162 C2163 1.369 1_545 S
C2162 C2166 1.531 . S
C2163 C2162 1.369 1_565 S
C2163 C2164 1.410 . S
C2163 C2171 1.503 . S
C2164 C2163 1.410 . S
C2164 C2165 1.392 . S
C2164 C2167 1.511 . S
C2165 C2161 1.376 1_565 S
C2165 C2164 1.392 . S
C2165 H2177 0.929 . S
C2166 C2162 1.531 . S
C2166 H2178 0.960 . S
C2166 H2179 0.962 . S
C2166 H2180 0.960 . S
C2167 C2164 1.511 . S
C2167 H2181 0.961 . S
C2167 H2182 0.961 . S
C2167 H2183 0.961 . S
C2168 C2169 1.370 . S
C2168 C2170 1.363 . S
C2168 H2184 0.931 . S
C2169 C2168 1.370 . S
C2169 C2173 1.408 . S
C2170 C2168 1.363 . S
C2170 C2171 1.370 . S
C2170 C2174 1.524 . S
C2171 C2163 1.503 . S
C2171 C2170 1.370 . S
C2171 C2172 1.403 . S
C2172 C2171 1.403 . S
C2172 C2173 1.404 . S
C2172 C2175 1.539 . S
C2173 C2169 1.408 . S
C2173 C2172 1.404 . S
C2173 H2185 0.930 . S
C2174 C2170 1.524 . S
C2174 H2186 0.956 . S
C2174 H2187 0.961 . S
C2174 H2188 0.961 . S
C2175 C2172 1.539 . S
C2175 H2189 0.958 1_565 S
C2175 H2190 0.961 . S
C2175 H2191 0.960 . S
H2176 C2160 0.931 . S
H2177 C2165 0.929 . S
H2178 C2166 0.960 . S
H2179 C2166 0.962 . S
H2180 C2166 0.960 . S
H2181 C2167 0.961 . S
H2182 C2167 0.961 . S
H2183 C2167 0.961 . S
H2184 C2168 0.931 . S
H2185 C2173 0.930 . S
H2186 C2174 0.956 . S
H2187 C2174 0.961 . S
H2188 C2174 0.961 . S
H2189 C2175 0.958 1_545 S
H2190 C2175 0.961 . S
H2191 C2175 0.960 . S
C2192 C2193 1.391 . S
C2192 C2194 1.394 . S
C2192 H2208 0.931 . S
C2193 C2192 1.391 . S
C2193 C2197 1.376 . S
C2194 C2192 1.394 . S
C2194 C2195 1.369 . S
C2194 C2198 1.531 . S
C2195 C2194 1.369 . S
C2195 C2196 1.410 . S
C2195 C2203 1.503 . S
C2196 C2195 1.410 . S
C2196 C2197 1.392 . S
C2196 C2199 1.511 . S
C2197 C2193 1.376 . S
C2197 C2196 1.392 . S
C2197 H2209 0.929 . S
C2198 C2194 1.531 . S
C2198 H2210 0.960 . S
C2198 H2211 0.962 . S
C2198 H2212 0.960 . S
C2199 C2196 1.511 . S
C2199 H2213 0.961 . S
C2199 H2214 0.961 . S
C2199 H2215 0.961 . S
C2200 C2201 1.370 . S
C2200 C2202 1.363 . S
C2200 H2216 0.931 . S
C2201 C2200 1.370 . S
C2201 C2205 1.408 . S
C2202 C2200 1.363 . S
C2202 C2203 1.370 . S
C2202 C2206 1.524 . S
C2203 C2195 1.503 . S
C2203 C2202 1.370 . S
C2203 C2204 1.403 . S
C2204 C2203 1.403 . S
C2204 C2205 1.404 . S
C2204 C2207 1.539 . S
C2205 C2201 1.408 . S
C2205 C2204 1.404 . S
C2205 H2217 0.930 . S
C2206 C2202 1.524 . S
C2206 H2218 0.956 . S
C2206 H2219 0.961 . S
C2206 H2220 0.961 . S
C2207 C2204 1.539 . S
C2207 H2221 0.958 . S
C2207 H2222 0.961 . S
C2207 H2223 0.960 . S
H2208 C2192 0.931 . S
H2209 C2197 0.929 . S
H2210 C2198 0.960 . S
H2211 C2198 0.962 . S
H2212 C2198 0.960 . S
H2213 C2199 0.961 . S
H2214 C2199 0.961 . S
H2215 C2199 0.961 . S
H2216 C2200 0.931 . S
H2217 C2205 0.930 . S
H2218 C2206 0.956 . S
H2219 C2206 0.961 . S
H2220 C2206 0.961 . S
H2221 C2207 0.958 . S
H2222 C2207 0.961 . S
H2223 C2207 0.960 . S
C2224 C2225 1.391 1_565 S
C2224 C2226 1.394 1_565 S
C2224 H2240 0.931 . S
C2225 C2224 1.391 1_545 S
C2225 C2229 1.376 . S
C2226 C2224 1.394 1_545 S
C2226 C2227 1.369 . S
C2226 C2230 1.531 1_545 S
C2227 C2226 1.369 . S
C2227 C2228 1.410 . S
C2227 C2235 1.503 . S
C2228 C2227 1.410 . S
C2228 C2229 1.392 . S
C2228 C2231 1.511 . S
C2229 C2225 1.376 . S
C2229 C2228 1.392 . S
C2229 H2241 0.929 . S
C2230 C2226 1.531 1_565 S
C2230 H2242 0.960 1_565 S
C2230 H2243 0.962 . S
C2230 H2244 0.960 . S
C2231 C2228 1.511 . S
C2231 H2245 0.961 . S
C2231 H2246 0.961 . S
C2231 H2247 0.961 . S
C2232 C2233 1.370 . S
C2232 C2234 1.363 . S
C2232 H2248 0.931 . S
C2233 C2232 1.370 . S
C2233 C2237 1.408 . S
C2234 C2232 1.363 . S
C2234 C2235 1.370 . S
C2234 C2238 1.524 1_545 S
C2235 C2227 1.503 . S
C2235 C2234 1.370 . S
C2235 C2236 1.403 . S
C2236 C2235 1.403 . S
C2236 C2237 1.404 . S
C2236 C2239 1.539 . S
C2237 C2233 1.408 . S
C2237 C2236 1.404 . S
C2237 H2249 0.930 . S
C2238 C2234 1.524 1_565 S
C2238 H2250 0.956 . S
C2238 H2251 0.961 . S
C2238 H2252 0.961 . S
C2239 C2236 1.539 . S
C2239 H2253 0.958 . S
C2239 H2254 0.961 . S
C2239 H2255 0.960 . S
H2240 C2224 0.931 . S
H2241 C2229 0.929 . S
H2242 C2230 0.960 1_545 S
H2243 C2230 0.962 . S
H2244 C2230 0.960 . S
H2245 C2231 0.961 . S
H2246 C2231 0.961 . S
H2247 C2231 0.961 . S
H2248 C2232 0.931 . S
H2249 C2237 0.930 . S
H2250 C2238 0.956 . S
H2251 C2238 0.961 . S
H2252 C2238 0.961 . S
H2253 C2239 0.958 . S
H2254 C2239 0.961 . S
H2255 C2239 0.960 . S
C465 C224 2.172 . S
C473 C5 2.222 . S
C497 C369 2.478 . S
C505 C39 2.611 . S
C529 C63 2.554 . S
C537 C166 2.548 . S
C561 C427 2.300 . S
C569 C92 2.339 . S
C593 C108 2.420 . S
C601 C121 2.438 . S
C625 C150 2.517 . S
C633 C253 2.444 . S
C657 C179 2.493 . S
C665 C37 2.272 . S
C689 C311 2.493 . S
C697 C208 2.475 . S
C721 C456 2.155 . S
C729 C237 2.232 . S
C753 C271 2.615 . S
C761 C137 2.516 . S
C785 C398 2.537 . S
C793 C295 2.572 . S
C817 C195 2.340 . S
C825 C324 2.352 . S
C849 C340 2.427 . S
C857 C353 2.436 . S
C881 C382 2.539 . S
C889 C21 2.457 . S
C913 C411 2.486 . S
C921 C269 2.276 . S
C945 C79 2.493 . S
C953 C440 2.474 . S
C977 C282 1.198 . S
C985 C3 1.124 . S
C1009 C44 0.876 . S
C1017 C298 0.853 . S
C1041 C61 0.776 . S
C1049 C327 0.774 . S
C1073 C90 1.028 . S
C1081 C240 1.043 . S
C1105 C385 0.650 . S
C1113 C119 0.586 . S
C1137 C148 1.346 . S
C1145 C414 1.425 . S
C1169 C443 1.033 . S
C1177 C177 0.969 . S
C1201 C206 1.280 . S
C1209 C356 1.321 . S
C1233 C50 1.199 . S
C1241 C235 1.124 . S
C1265 C66 0.873 . S
C1273 C276 0.834 . S
C1297 C95 0.797 . S
C1305 C293 0.780 . S
C1329 C8 1.067 . S
C1337 C322 0.987 . S
C1361 C351 0.678 . S
C1369 C153 0.568 . S
C1393 C182 1.404 . S
C1401 C380 1.371 . S
C1425 C211 0.946 . S
C1433 C409 0.955 . S
C1457 C438 1.264 . S
C1465 C124 1.350 . S
C1489 C129 1.987 . S
C1497 C13 1.961 . S
C1521 C42 1.838 . S
C1529 C390 1.896 . S
C1553 C187 1.737 . S
C1561 C71 1.703 . S
C1585 C448 2.089 . S
C1593 C100 2.092 . S
C1617 C274 1.811 . S
C1625 C158 1.878 . S
C1649 C216 2.067 . S
C1657 C332 2.101 . S
C1681 C245 1.943 . S
C1689 C361 1.978 . S
C1713 C303 1.693 . S
C1721 C419 1.719 . S
C1745 C218 1.422 . S
C1753 C10 1.408 1_565 S
C1777 C363 1.633 1_655 S
C1785 C34 1.531 . S
C1809 C68 1.085 1_545 S
C1817 C160 1.120 . S
C1841 C97 1.634 . S
C1849 C421 1.687 . S
C1873 C126 1.268 . S
C1881 C102 1.333 . S
C1905 C155 1.646 . S
C1913 C247 1.688 1_455 S
C1937 C184 1.850 . S
C1945 C32 1.944 . S
C1969 C305 1.811 . S
C1977 C213 1.775 . S
C2001 C242 1.405 . S
C2009 C450 1.434 . S
C2033 C131 1.612 1_545 S
C2041 C266 1.536 . S
C2065 C392 1.097 . S
C2073 C300 1.060 . S
C2097 C329 1.628 . S
C2105 C189 1.682 1_465 S
C2129 C334 1.350 . S
C2137 C358 1.309 . S
C2161 C15 1.689 . S
C2169 C387 1.602 . S
C2193 C416 1.909 . S
C2201 C264 1.942 . S
C2225 C73 1.820 1_645 S
C2233 C445 1.774 . S
