# Generated by pormake.
# Topology lvt-a, (3)-cn, num edge types: 1
# Building blocks:
#     Node 0, Type 0, BuildingBlock: OLANEW_clean_sbu_2, # of connection points: 3
#     Node 1, Type 0, BuildingBlock: OLANEW_clean_sbu_2, # of connection points: 3
#     Node 2, Type 0, BuildingBlock: OLANEW_clean_sbu_2, # of connection points: 3
#     Node 3, Type 0, BuildingBlock: OLANEW_clean_sbu_2, # of connection points: 3
#     Node 4, Type 0, BuildingBlock: OLANEW_clean_sbu_2, # of connection points: 3
#     Node 5, Type 0, BuildingBlock: OLANEW_clean_sbu_2, # of connection points: 3
#     Node 6, Type 0, BuildingBlock: OLANEW_clean_sbu_2, # of connection points: 3
#     Node 7, Type 0, BuildingBlock: OLANEW_clean_sbu_2, # of connection points: 3
#     Node 8, Type 0, BuildingBlock: OLANEW_clean_sbu_2, # of connection points: 3
#     Node 9, Type 0, BuildingBlock: OLANEW_clean_sbu_2, # of connection points: 3
#     Node 10, Type 0, BuildingBlock: OLANEW_clean_sbu_2, # of connection points: 3
#     Node 11, Type 0, BuildingBlock: OLANEW_clean_sbu_2, # of connection points: 3
#     Node 12, Type 0, BuildingBlock: OLANEW_clean_sbu_2, # of connection points: 3
#     Node 13, Type 0, BuildingBlock: OLANEW_clean_sbu_2, # of connection points: 3
#     Node 14, Type 0, BuildingBlock: OLANEW_clean_sbu_2, # of connection points: 3
#     Node 15, Type 0, BuildingBlock: OLANEW_clean_sbu_2, # of connection points: 3
#     Node 16, Type 0, BuildingBlock: OLANEW_clean_sbu_2, # of connection points: 3
#     Node 17, Type 0, BuildingBlock: OLANEW_clean_sbu_2, # of connection points: 3
#     Node 18, Type 0, BuildingBlock: OLANEW_clean_sbu_2, # of connection points: 3
#     Node 19, Type 0, BuildingBlock: OLANEW_clean_sbu_2, # of connection points: 3
#     Node 20, Type 0, BuildingBlock: OLANEW_clean_sbu_2, # of connection points: 3
#     Node 21, Type 0, BuildingBlock: OLANEW_clean_sbu_2, # of connection points: 3
#     Node 22, Type 0, BuildingBlock: OLANEW_clean_sbu_2, # of connection points: 3
#     Node 23, Type 0, BuildingBlock: OLANEW_clean_sbu_2, # of connection points: 3
#     Node 24, Type 0, BuildingBlock: OLANEW_clean_sbu_2, # of connection points: 3
#     Node 25, Type 0, BuildingBlock: OLANEW_clean_sbu_2, # of connection points: 3
#     Node 26, Type 0, BuildingBlock: OLANEW_clean_sbu_2, # of connection points: 3
#     Node 27, Type 0, BuildingBlock: OLANEW_clean_sbu_2, # of connection points: 3
#     Node 28, Type 0, BuildingBlock: OLANEW_clean_sbu_2, # of connection points: 3
#     Node 29, Type 0, BuildingBlock: OLANEW_clean_sbu_2, # of connection points: 3
#     Node 30, Type 0, BuildingBlock: OLANEW_clean_sbu_2, # of connection points: 3
#     Node 31, Type 0, BuildingBlock: OLANEW_clean_sbu_2, # of connection points: 3
#     Edge 32, Type (0, 0), BuildingBlock: XUDNAN_clean_linker_2, # of connection points: 2
#     Edge 33, Type (0, 0), BuildingBlock: XUDNAN_clean_linker_2, # of connection points: 2
#     Edge 34, Type (0, 0), BuildingBlock: XUDNAN_clean_linker_2, # of connection points: 2
#     Edge 35, Type (0, 0), BuildingBlock: XUDNAN_clean_linker_2, # of connection points: 2
#     Edge 36, Type (0, 0), BuildingBlock: XUDNAN_clean_linker_2, # of connection points: 2
#     Edge 37, Type (0, 0), BuildingBlock: XUDNAN_clean_linker_2, # of connection points: 2
#     Edge 38, Type (0, 0), BuildingBlock: XUDNAN_clean_linker_2, # of connection points: 2
#     Edge 39, Type (0, 0), BuildingBlock: XUDNAN_clean_linker_2, # of connection points: 2
#     Edge 40, Type (0, 0), BuildingBlock: XUDNAN_clean_linker_2, # of connection points: 2
#     Edge 41, Type (0, 0), BuildingBlock: XUDNAN_clean_linker_2, # of connection points: 2
#     Edge 42, Type (0, 0), BuildingBlock: XUDNAN_clean_linker_2, # of connection points: 2
#     Edge 43, Type (0, 0), BuildingBlock: XUDNAN_clean_linker_2, # of connection points: 2
#     Edge 44, Type (0, 0), BuildingBlock: XUDNAN_clean_linker_2, # of connection points: 2
#     Edge 45, Type (0, 0), BuildingBlock: XUDNAN_clean_linker_2, # of connection points: 2
#     Edge 46, Type (0, 0), BuildingBlock: XUDNAN_clean_linker_2, # of connection points: 2
#     Edge 47, Type (0, 0), BuildingBlock: XUDNAN_clean_linker_2, # of connection points: 2
#     Edge 48, Type (0, 0), BuildingBlock: XUDNAN_clean_linker_2, # of connection points: 2
#     Edge 49, Type (0, 0), BuildingBlock: XUDNAN_clean_linker_2, # of connection points: 2
#     Edge 50, Type (0, 0), BuildingBlock: XUDNAN_clean_linker_2, # of connection points: 2
#     Edge 51, Type (0, 0), BuildingBlock: XUDNAN_clean_linker_2, # of connection points: 2
#     Edge 52, Type (0, 0), BuildingBlock: XUDNAN_clean_linker_2, # of connection points: 2
#     Edge 53, Type (0, 0), BuildingBlock: XUDNAN_clean_linker_2, # of connection points: 2
#     Edge 54, Type (0, 0), BuildingBlock: XUDNAN_clean_linker_2, # of connection points: 2
#     Edge 55, Type (0, 0), BuildingBlock: XUDNAN_clean_linker_2, # of connection points: 2
#     Edge 56, Type (0, 0), BuildingBlock: XUDNAN_clean_linker_2, # of connection points: 2
#     Edge 57, Type (0, 0), BuildingBlock: XUDNAN_clean_linker_2, # of connection points: 2
#     Edge 58, Type (0, 0), BuildingBlock: XUDNAN_clean_linker_2, # of connection points: 2
#     Edge 59, Type (0, 0), BuildingBlock: XUDNAN_clean_linker_2, # of connection points: 2
#     Edge 60, Type (0, 0), BuildingBlock: XUDNAN_clean_linker_2, # of connection points: 2
#     Edge 61, Type (0, 0), BuildingBlock: XUDNAN_clean_linker_2, # of connection points: 2
#     Edge 62, Type (0, 0), BuildingBlock: XUDNAN_clean_linker_2, # of connection points: 2
#     Edge 63, Type (0, 0), BuildingBlock: XUDNAN_clean_linker_2, # of connection points: 2
#     Edge 64, Type (0, 0), BuildingBlock: XUDNAN_clean_linker_2, # of connection points: 2
#     Edge 65, Type (0, 0), BuildingBlock: XUDNAN_clean_linker_2, # of connection points: 2
#     Edge 66, Type (0, 0), BuildingBlock: XUDNAN_clean_linker_2, # of connection points: 2
#     Edge 67, Type (0, 0), BuildingBlock: XUDNAN_clean_linker_2, # of connection points: 2
#     Edge 68, Type (0, 0), BuildingBlock: XUDNAN_clean_linker_2, # of connection points: 2
#     Edge 69, Type (0, 0), BuildingBlock: XUDNAN_clean_linker_2, # of connection points: 2
#     Edge 70, Type (0, 0), BuildingBlock: XUDNAN_clean_linker_2, # of connection points: 2
#     Edge 71, Type (0, 0), BuildingBlock: XUDNAN_clean_linker_2, # of connection points: 2
#     Edge 72, Type (0, 0), BuildingBlock: XUDNAN_clean_linker_2, # of connection points: 2
#     Edge 73, Type (0, 0), BuildingBlock: XUDNAN_clean_linker_2, # of connection points: 2
#     Edge 74, Type (0, 0), BuildingBlock: XUDNAN_clean_linker_2, # of connection points: 2
#     Edge 75, Type (0, 0), BuildingBlock: XUDNAN_clean_linker_2, # of connection points: 2
#     Edge 76, Type (0, 0), BuildingBlock: XUDNAN_clean_linker_2, # of connection points: 2
#     Edge 77, Type (0, 0), BuildingBlock: XUDNAN_clean_linker_2, # of connection points: 2
#     Edge 78, Type (0, 0), BuildingBlock: XUDNAN_clean_linker_2, # of connection points: 2
#     Edge 79, Type (0, 0), BuildingBlock: XUDNAN_clean_linker_2, # of connection points: 2
# Relax obj value: 0.007
# Max RMSD: 0.027
# Mean RMSD: 0.027
data_MOF--net-lvt-a--node1-OLANEW_clean_sbu_2--edge1-XUDNAN_clean_linker_2
_symmetry_space_group_name_H-M    P1
_symmetry_Int_Tables_number       1
_symmetry_cell_setting            triclinic
loop_
_symmetry_equiv_pos_as_xyz
'x, y, z'
_cell_length_a     95.176874
_cell_length_b     94.749409
_cell_length_c     79.346748
_cell_angle_alpha  90.116431
_cell_angle_beta   90.116651
_cell_angle_gamma 90.043225
loop_
_atom_site_label
_atom_site_type_symbol
_atom_site_fract_x
_atom_site_fract_y
_atom_site_fract_z
_atom_type_partial_charge
O0 O 0.03917 0.59019 0.08305 0.0
Cd1 Cd 0.06386 0.58763 0.07514 0.0
O2 O 0.03415 0.56751 0.08264 0.0
Cd3 Cd 0.05403 0.5602 0.0722 0.0
O4 O 0.06009 0.54616 0.05159 0.0
C5 C 0.05612 0.54987 0.03695 0.0
O6 O 0.04994 0.56218 0.03514 0.0
C7 C 0.03042 0.58021 0.08517 0.0
C8 C 0.08207 0.59781 0.09997 0.0
O9 O 0.07562 0.60625 0.09002 0.0
O10 O 0.07992 0.58453 0.09826 0.0
O11 O 0.61871 0.79517 0.30252 0.0
Cd12 Cd 0.60179 0.81437 0.29968 0.0
O13 O 0.63609 0.8076 0.29208 0.0
Cd14 Cd 0.65739 0.81041 0.28217 0.0
O15 O 0.67679 0.81379 0.26798 0.0
C16 C 0.67878 0.82549 0.26051 0.0
O17 O 0.66922 0.83543 0.26184 0.0
C18 C 0.63155 0.79612 0.29832 0.0
C19 C 0.59661 0.8271 0.33073 0.0
O20 O 0.5906 0.8155 0.32658 0.0
O21 O 0.60505 0.8328 0.32018 0.0
O22 O 0.44506 0.3892 0.56625 0.0
Cd23 Cd 0.41999 0.39144 0.57244 0.0
O24 O 0.44042 0.40646 0.54887 0.0
Cd25 Cd 0.44595 0.42372 0.53186 0.0
O26 O 0.44936 0.44321 0.51783 0.0
C27 C 0.4607 0.45017 0.51957 0.0
O28 O 0.47054 0.44529 0.52962 0.0
C29 C 0.44927 0.39796 0.55526 0.0
C30 C 0.41085 0.3781 0.60168 0.0
O31 O 0.40975 0.37201 0.58729 0.0
O32 O 0.41656 0.39035 0.60227 0.0
O33 O 0.83902 0.17553 0.82617 0.0
Cd34 Cd 0.83203 0.15081 0.82964 0.0
O35 O 0.81899 0.18283 0.83689 0.0
Cd36 Cd 0.80825 0.16252 0.83465 0.0
O37 O 0.79071 0.15115 0.82298 0.0
C38 C 0.78862 0.15367 0.80743 0.0
O39 O 0.79747 0.16198 0.79951 0.0
C40 C 0.83124 0.18554 0.83138 0.0
C41 C 0.84572 0.13805 0.85684 0.0
O42 O 0.85034 0.13656 0.84178 0.0
O43 O 0.83467 0.14554 0.85903 0.0
O44 O 0.04491 0.41511 0.89384 0.0
Cd45 Cd 0.06747 0.42141 0.8812 0.0
O46 O 0.05023 0.43157 0.91209 0.0
Cd47 Cd 0.04675 0.4474 0.9318 0.0
O48 O 0.04686 0.4672 0.94601 0.0
C49 C 0.05206 0.46827 0.96073 0.0
O50 O 0.05723 0.45697 0.96805 0.0
C51 C 0.04154 0.42241 0.90666 0.0
C52 C 0.08477 0.39901 0.87196 0.0
O53 O 0.08538 0.40433 0.88681 0.0
O54 O 0.07571 0.40405 0.86163 0.0
O55 O 0.80954 0.80094 0.17994 0.0
Cd56 Cd 0.80347 0.82605 0.1807 0.0
O57 O 0.79606 0.7974 0.15777 0.0
Cd58 Cd 0.78429 0.81672 0.16264 0.0
O59 O 0.76727 0.82615 0.17726 0.0
C60 C 0.76239 0.81822 0.18876 0.0
O61 O 0.768 0.80568 0.1909 0.0
C62 C 0.80521 0.7929 0.16816 0.0
C63 C 0.81861 0.84095 0.15638 0.0
O64 O 0.82278 0.8406 0.17175 0.0
O65 O 0.80727 0.83438 0.15256 0.0
O66 O 0.45299 0.59516 0.39597 0.0
Cd67 Cd 0.43058 0.58673 0.38454 0.0
O68 O 0.4493 0.57939 0.41559 0.0
Cd69 Cd 0.45595 0.5658 0.43641 0.0
O70 O 0.46188 0.54884 0.45364 0.0
C71 C 0.45348 0.53851 0.45541 0.0
O72 O 0.44152 0.5386 0.44712 0.0
C73 C 0.45709 0.58888 0.40922 0.0
C74 C 0.4106 0.60731 0.377 0.0
O75 O 0.41147 0.60202 0.39183 0.0
O76 O 0.41943 0.60313 0.36588 0.0
O77 O 0.66603 0.18141 0.68477 0.0
Cd78 Cd 0.67344 0.15673 0.68613 0.0
O79 O 0.67776 0.18738 0.70767 0.0
Cd80 Cd 0.68751 0.16708 0.71354 0.0
O81 O 0.70477 0.15692 0.72716 0.0
C82 C 0.70282 0.14991 0.7406 0.0
O83 O 0.68991 0.14773 0.74584 0.0
C84 C 0.66974 0.19072 0.69546 0.0
C85 C 0.65444 0.13868 0.67 0.0
O86 O 0.65372 0.14092 0.68592 0.0
O87 O 0.66412 0.145 0.66171 0.0
O88 O 0.93403 0.42124 0.91724 0.0
Cd89 Cd 0.90899 0.42689 0.91474 0.0
O90 O 0.93493 0.42791 0.9438 0.0
Cd91 Cd 0.91337 0.43563 0.94577 0.0
O92 O 0.90028 0.45203 0.95711 0.0
C93 C 0.90055 0.45274 0.97311 0.0
O94 O 0.90754 0.44307 0.98149 0.0
C95 C 0.94098 0.42294 0.9308 0.0
C96 C 0.89204 0.40428 0.90466 0.0
O97 O 0.89811 0.41216 0.89376 0.0
O98 O 0.89417 0.40696 0.92031 0.0
O99 O 0.33333 0.16955 0.69046 0.0
Cd100 Cd 0.32194 0.14664 0.68656 0.0
O101 O 0.32617 0.17176 0.71666 0.0
Cd102 Cd 0.31318 0.15277 0.71631 0.0
O103 O 0.2925 0.14312 0.7193 0.0
C104 C 0.28246 0.14943 0.71191 0.0
O105 O 0.28537 0.16039 0.70241 0.0
C106 C 0.333 0.17653 0.70415 0.0
C107 C 0.33941 0.12774 0.66969 0.0
O108 O 0.33143 0.13624 0.66155 0.0
O109 O 0.33908 0.12815 0.68583 0.0
O110 O 0.56383 0.58674 0.42208 0.0
Cd111 Cd 0.58837 0.57898 0.42151 0.0
O112 O 0.56254 0.58536 0.44971 0.0
Cd113 Cd 0.58303 0.57545 0.45335 0.0
O114 O 0.59349 0.55692 0.46388 0.0
C115 C 0.58898 0.54506 0.45865 0.0
O116 O 0.57941 0.54489 0.44668 0.0
C117 C 0.55688 0.58831 0.43562 0.0
C118 C 0.60714 0.59984 0.41091 0.0
O119 O 0.6011 0.59164 0.40025 0.0
O120 O 0.60417 0.59827 0.42655 0.0
O121 O 0.17007 0.80577 0.16895 0.0
Cd122 Cd 0.17568 0.83086 0.1663 0.0
O123 O 0.15887 0.81037 0.19258 0.0
Cd124 Cd 0.17082 0.82982 0.19677 0.0
O125 O 0.19004 0.84042 0.20524 0.0
C126 C 0.19675 0.84941 0.19652 0.0
O127 O 0.19166 0.85332 0.18185 0.0
C128 C 0.16189 0.80185 0.18071 0.0
C129 C 0.15172 0.8448 0.15466 0.0
O130 O 0.16182 0.84189 0.14459 0.0
O131 O 0.15308 0.84147 0.17021 0.0
O132 O 0.92168 0.59189 0.06699 0.0
Cd133 Cd 0.89793 0.58953 0.05566 0.0
O134 O 0.92482 0.56914 0.07091 0.0
Cd135 Cd 0.90527 0.56258 0.05872 0.0
O136 O 0.89459 0.54774 0.04189 0.0
C137 C 0.89556 0.53477 0.04581 0.0
O138 O 0.90185 0.5314 0.05999 0.0
C139 C 0.92927 0.58176 0.07216 0.0
C140 C 0.87843 0.59662 0.08035 0.0
O141 O 0.8848 0.60615 0.07186 0.0
O142 O 0.88109 0.58365 0.07705 0.0
O143 O 0.15677 0.17562 0.80192 0.0
Cd144 Cd 0.16297 0.15151 0.79391 0.0
O145 O 0.15183 0.18233 0.77606 0.0
Cd146 Cd 0.15992 0.16271 0.7654 0.0
O147 O 0.17762 0.1506 0.75555 0.0
C148 C 0.18414 0.15608 0.74323 0.0
O149 O 0.17928 0.16784 0.7367 0.0
C150 C 0.15248 0.18505 0.79175 0.0
C151 C 0.14189 0.13247 0.80263 0.0
O152 O 0.15177 0.13557 0.813 0.0
O153 O 0.14201 0.13837 0.7881 0.0
O154 O 0.55589 0.41391 0.56322 0.0
Cd155 Cd 0.57951 0.42279 0.56942 0.0
O156 O 0.55717 0.42002 0.53652 0.0
Cd157 Cd 0.57735 0.43098 0.53766 0.0
O158 O 0.58858 0.44955 0.52841 0.0
C159 C 0.58502 0.45337 0.51366 0.0
O160 O 0.57585 0.44564 0.50535 0.0
C161 C 0.55042 0.4144 0.5486 0.0
C162 C 0.59734 0.40252 0.58345 0.0
O163 O 0.58935 0.41009 0.5928 0.0
O164 O 0.59678 0.40443 0.56748 0.0
O165 O 0.31482 0.82304 0.29981 0.0
Cd166 Cd 0.31038 0.84816 0.29506 0.0
O167 O 0.32361 0.82106 0.27428 0.0
Cd168 Cd 0.31245 0.83982 0.26547 0.0
O169 O 0.29276 0.84804 0.25512 0.0
C170 C 0.29201 0.85585 0.24215 0.0
O171 O 0.30366 0.86005 0.23485 0.0
C172 C 0.32143 0.81586 0.28881 0.0
C173 C 0.32211 0.86502 0.32031 0.0
O174 O 0.30885 0.86269 0.31986 0.0
O175 O 0.32982 0.85941 0.30892 0.0
O176 O 0.55681 0.07533 0.56675 0.0
Cd177 Cd 0.58149 0.06818 0.56741 0.0
O178 O 0.55238 0.06428 0.54288 0.0
Cd179 Cd 0.57275 0.0542 0.53893 0.0
O180 O 0.5811 0.0353 0.52669 0.0
C181 C 0.58648 0.03581 0.51205 0.0
O182 O 0.58827 0.04816 0.50486 0.0
C183 C 0.54828 0.07197 0.55506 0.0
C184 C 0.59592 0.08151 0.5937 0.0
O185 O 0.59603 0.08665 0.57878 0.0
O186 O 0.58906 0.07006 0.59616 0.0
O187 O 0.15745 0.29293 0.7934 0.0
Cd188 Cd 0.16381 0.31778 0.79015 0.0
O189 O 0.16879 0.29125 0.81751 0.0
Cd190 Cd 0.18114 0.31023 0.81265 0.0
O191 O 0.19994 0.32048 0.80268 0.0
C192 C 0.20341 0.31714 0.78774 0.0
O193 O 0.19513 0.30867 0.77911 0.0
C194 C 0.16056 0.28594 0.80656 0.0
C195 C 0.14816 0.33435 0.81242 0.0
O196 O 0.14378 0.33199 0.79739 0.0
O197 O 0.15997 0.32904 0.81682 0.0
O198 O 0.92239 0.9175 0.08354 0.0
Cd199 Cd 0.89822 0.92119 0.07396 0.0
O200 O 0.92254 0.93778 0.09708 0.0
Cd201 Cd 0.90413 0.94567 0.08353 0.0
O202 O 0.89625 0.95794 0.06218 0.0
C203 C 0.88698 0.96753 0.06338 0.0
O204 O 0.88103 0.96989 0.07804 0.0
C205 C 0.92846 0.92613 0.09348 0.0
C206 C 0.8798 0.9014 0.08775 0.0
O207 O 0.8849 0.89969 0.07294 0.0
O208 O 0.88341 0.91246 0.09603 0.0
O209 O 0.32562 0.70476 0.30067 0.0
Cd210 Cd 0.31897 0.67993 0.303 0.0
O211 O 0.30851 0.71209 0.31706 0.0
Cd212 Cd 0.29781 0.69169 0.31626 0.0
O213 O 0.28143 0.67865 0.30475 0.0
C214 C 0.28068 0.67921 0.28877 0.0
O215 O 0.29014 0.68664 0.28061 0.0
C216 C 0.31947 0.71472 0.30848 0.0
C217 C 0.33759 0.66553 0.32403 0.0
O218 O 0.33974 0.66632 0.30812 0.0
O219 O 0.32657 0.67148 0.32998 0.0
O220 O 0.53521 0.90334 0.44855 0.0
Cd221 Cd 0.56047 0.90789 0.44764 0.0
O222 O 0.52976 0.91934 0.4296 0.0
Cd223 Cd 0.55064 0.92891 0.43093 0.0
O224 O 0.56548 0.9451 0.43929 0.0
C225 C 0.56601 0.94764 0.45502 0.0
O226 O 0.55838 0.93988 0.46523 0.0
C227 C 0.5261 0.90924 0.43917 0.0
C228 C 0.5723 0.88767 0.42646 0.0
O229 O 0.57029 0.88514 0.44213 0.0
O230 O 0.56913 0.89995 0.42088 0.0
O231 O 0.34528 0.28698 0.70602 0.0
Cd232 Cd 0.33884 0.31187 0.70778 0.0
O233 O 0.33485 0.28123 0.72975 0.0
Cd234 Cd 0.32579 0.30199 0.73482 0.0
O235 O 0.30814 0.31448 0.7442 0.0
C236 C 0.29621 0.31186 0.73768 0.0
O237 O 0.29548 0.30275 0.72519 0.0
C238 C 0.34209 0.27775 0.71695 0.0
C239 C 0.35723 0.32813 0.68859 0.0
O240 O 0.35919 0.32654 0.70446 0.0
O241 O 0.34651 0.32215 0.68186 0.0
O242 O 0.9405 0.06219 0.94964 0.0
Cd243 Cd 0.91525 0.06061 0.9552 0.0
O244 O 0.93947 0.04502 0.93095 0.0
Cd245 Cd 0.91878 0.03812 0.93965 0.0
O246 O 0.90696 0.02533 0.95766 0.0
C247 C 0.89655 0.02971 0.96621 0.0
O248 O 0.89179 0.04255 0.96367 0.0
C249 C 0.94642 0.05466 0.93841 0.0
C250 C 0.89957 0.08052 0.93726 0.0
O251 O 0.9034 0.08285 0.95251 0.0
O252 O 0.90322 0.06882 0.93043 0.0
O253 O 0.14332 0.69306 0.20242 0.0
Cd254 Cd 0.14536 0.66833 0.21083 0.0
O255 O 0.16432 0.6949 0.19113 0.0
Cd256 Cd 0.17162 0.67476 0.20124 0.0
O257 O 0.18728 0.66534 0.218 0.0
C258 C 0.20001 0.66824 0.21467 0.0
O259 O 0.20278 0.67554 0.201 0.0
C260 C 0.1524 0.70026 0.19445 0.0
C261 C 0.13494 0.65007 0.18615 0.0
O262 O 0.12664 0.65679 0.19599 0.0
O263 O 0.1482 0.65194 0.18791 0.0
O264 O 0.41791 0.91317 0.43525 0.0
Cd265 Cd 0.39286 0.91848 0.43799 0.0
O266 O 0.41747 0.90201 0.45954 0.0
Cd267 Cd 0.39797 0.91223 0.46738 0.0
O268 O 0.39021 0.93162 0.47907 0.0
C269 C 0.38144 0.93999 0.47226 0.0
O270 O 0.37568 0.93651 0.45778 0.0
C271 C 0.42397 0.90544 0.44616 0.0
C272 C 0.37643 0.91062 0.41037 0.0
O273 O 0.38097 0.90138 0.4208 0.0
O274 O 0.37981 0.92356 0.4128 0.0
O275 O 0.81254 0.68228 0.18428 0.0
Cd276 Cd 0.81264 0.65827 0.19538 0.0
O277 O 0.81592 0.69183 0.20924 0.0
Cd278 Cd 0.80991 0.67252 0.22242 0.0
O279 O 0.79377 0.66105 0.23641 0.0
C280 C 0.78629 0.65149 0.22958 0.0
O281 O 0.78903 0.6476 0.21403 0.0
C282 C 0.81504 0.6931 0.19332 0.0
C283 C 0.82406 0.64015 0.17139 0.0
O284 O 0.83194 0.64772 0.1809 0.0
O285 O 0.81073 0.64091 0.17338 0.0
O286 O 0.04505 0.04702 0.88494 0.0
Cd287 Cd 0.06686 0.03991 0.87113 0.0
O288 O 0.05451 0.04079 0.90896 0.0
Cd289 Cd 0.05477 0.03501 0.93565 0.0
O290 O 0.05881 0.02358 0.95909 0.0
C291 C 0.05246 0.01196 0.96154 0.0
O292 O 0.04334 0.00756 0.95023 0.0
C293 C 0.04402 0.04554 0.9008 0.0
C294 C 0.07955 0.06139 0.85264 0.0
O295 O 0.07018 0.0534 0.84598 0.0
O296 O 0.08279 0.05933 0.86813 0.0
O297 O 0.6652 0.30229 0.67961 0.0
Cd298 Cd 0.67194 0.32721 0.6788 0.0
O299 O 0.67846 0.29757 0.70168 0.0
Cd300 Cd 0.6888 0.31798 0.7052 0.0
O301 O 0.70752 0.32766 0.71645 0.0
C302 C 0.70696 0.33607 0.72892 0.0
O303 O 0.69463 0.34005 0.73463 0.0
C304 C 0.66969 0.29358 0.69053 0.0
C305 C 0.65723 0.34185 0.6538 0.0
O306 O 0.66873 0.33539 0.65047 0.0
O307 O 0.65267 0.34143 0.66898 0.0
O308 O 0.43729 0.07045 0.56504 0.0
Cd309 Cd 0.41312 0.06169 0.56454 0.0
O310 O 0.44264 0.06027 0.54096 0.0
Cd311 Cd 0.42246 0.04963 0.53741 0.0
O312 O 0.40901 0.03199 0.52987 0.0
C313 C 0.39902 0.03317 0.51932 0.0
O314 O 0.396 0.04568 0.51319 0.0
C315 C 0.44616 0.06791 0.55347 0.0
C316 C 0.39764 0.07301 0.59111 0.0
O317 O 0.40478 0.06166 0.59298 0.0
O318 O 0.39774 0.07896 0.57661 0.0
O319 O 0.68524 0.7 0.32604 0.0
Cd320 Cd 0.6929 0.67568 0.33119 0.0
O321 O 0.66888 0.69419 0.30767 0.0
Cd322 Cd 0.67817 0.67325 0.30516 0.0
O323 O 0.69658 0.66142 0.2968 0.0
C324 C 0.6961 0.65182 0.2856 0.0
O325 O 0.68385 0.64798 0.27946 0.0
C326 C 0.67502 0.70352 0.31659 0.0
C327 C 0.67479 0.66136 0.35301 0.0
O328 O 0.68498 0.66885 0.35868 0.0
O329 O 0.67313 0.66064 0.337 0.0
O330 O 0.03269 0.90595 0.08234 0.0
Cd331 Cd 0.05612 0.90264 0.0702 0.0
O332 O 0.03817 0.92349 0.09932 0.0
Cd333 Cd 0.05768 0.92756 0.08581 0.0
O334 O 0.06541 0.94168 0.06618 0.0
C335 C 0.05755 0.94273 0.05327 0.0
O336 O 0.04631 0.9347 0.05229 0.0
C337 C 0.02928 0.91449 0.09402 0.0
C338 C 0.07449 0.88929 0.09252 0.0
O339 O 0.07566 0.90253 0.08956 0.0
O340 O 0.06475 0.8824 0.085 0.0
O341 O 0.82329 0.29354 0.82738 0.0
Cd342 Cd 0.81533 0.31804 0.82587 0.0
O343 O 0.8327 0.29343 0.80208 0.0
Cd344 Cd 0.82172 0.31283 0.79489 0.0
O345 O 0.80387 0.32309 0.78246 0.0
C346 C 0.79634 0.33257 0.7893 0.0
O347 O 0.79969 0.33721 0.8044 0.0
C348 C 0.83045 0.28732 0.81607 0.0
C349 C 0.83092 0.33541 0.84746 0.0
O350 O 0.8201 0.32868 0.85272 0.0
O351 O 0.83436 0.33399 0.83194 0.0
H352 H 0.06045 0.47408 0.99322 0.0
H353 H 0.04492 0.49395 0.94756 0.0
H354 H 0.0459 0.51717 0.9616 0.0
H355 H 0.04101 0.49537 0.02187 0.0
H356 H 0.05475 0.49616 0.03751 0.0
H357 H 0.05354 0.48118 0.0236 0.0
H358 H 0.07925 0.4853 0.01412 0.0
H359 H 0.08051 0.50036 0.02795 0.0
H360 H 0.08429 0.50227 0.00581 0.0
H361 H 0.04782 0.53809 0.9807 0.0
H362 H 0.04945 0.5552 0.00408 0.0
H363 H 0.06366 0.52183 0.03745 0.0
C364 C 0.05733 0.48332 0.98613 0.0
C365 C 0.05264 0.48218 0.96926 0.0
C366 C 0.04855 0.49453 0.96049 0.0
C367 C 0.04913 0.50779 0.96833 0.0
C368 C 0.05381 0.50854 0.98494 0.0
C369 C 0.0578 0.49664 0.99378 0.0
C370 C 0.06187 0.50031 0.01174 0.0
C371 C 0.05221 0.49282 0.02442 0.0
C372 C 0.07741 0.49686 0.0151 0.0
C373 C 0.05938 0.51611 0.01167 0.0
C374 C 0.05485 0.52064 0.99603 0.0
C375 C 0.05143 0.53469 0.99298 0.0
C376 C 0.0524 0.54434 0.00635 0.0
C377 C 0.05672 0.53989 0.02259 0.0
C378 C 0.06046 0.52561 0.02515 0.0
H379 H 0.74869 0.80266 0.21263 0.0
H380 H 0.74848 0.84364 0.18826 0.0
H381 H 0.72761 0.85042 0.20496 0.0
H382 H 0.71186 0.79784 0.21317 0.0
H383 H 0.71159 0.78925 0.23341 0.0
H384 H 0.72694 0.788 0.22029 0.0
H385 H 0.74228 0.79803 0.24456 0.0
H386 H 0.72696 0.79929 0.25778 0.0
H387 H 0.73765 0.81468 0.25407 0.0
H388 H 0.70617 0.85229 0.2236 0.0
H389 H 0.68578 0.84907 0.24241 0.0
H390 H 0.70015 0.80675 0.25429 0.0
C391 C 0.74436 0.81312 0.21088 0.0
C392 C 0.75024 0.82264 0.19915 0.0
C393 C 0.74416 0.83618 0.19719 0.0
C394 C 0.73233 0.84013 0.20663 0.0
C395 C 0.72673 0.83042 0.21798 0.0
C396 C 0.73257 0.8172 0.22014 0.0
C397 C 0.72431 0.80853 0.2327 0.0
C398 C 0.71832 0.79512 0.22439 0.0
C399 C 0.73334 0.80493 0.24819 0.0
C400 C 0.71278 0.81887 0.23713 0.0
C401 C 0.7144 0.83146 0.2286 0.0
C402 C 0.70484 0.84249 0.2304 0.0
C403 C 0.69329 0.84056 0.24112 0.0
C404 C 0.69135 0.82766 0.24985 0.0
C405 C 0.70133 0.81675 0.24786 0.0
H406 H 0.44188 0.46363 0.49889 0.0
H407 H 0.48358 0.46776 0.52066 0.0
H408 H 0.48631 0.49091 0.50674 0.0
H409 H 0.4499 0.47941 0.45883 0.0
H410 H 0.43314 0.48814 0.45711 0.0
H411 H 0.43459 0.47189 0.4687 0.0
H412 H 0.42394 0.48408 0.495 0.0
H413 H 0.42251 0.50039 0.48352 0.0
H414 H 0.43202 0.4999 0.50317 0.0
H415 H 0.48432 0.5138 0.49063 0.0
H416 H 0.47794 0.53439 0.47315 0.0
H417 H 0.43756 0.51508 0.46206 0.0
C418 C 0.45162 0.46935 0.5007 0.0
C419 C 0.46253 0.46387 0.51087 0.0
C420 C 0.47508 0.47174 0.51293 0.0
C421 C 0.47673 0.4849 0.50508 0.0
C422 C 0.46573 0.49004 0.49523 0.0
C423 C 0.45344 0.48248 0.493 0.0
C424 C 0.44318 0.49035 0.48184 0.0
C425 C 0.44002 0.48195 0.46566 0.0
C426 C 0.42961 0.49389 0.49146 0.0
C427 C 0.45163 0.50351 0.47813 0.0
C428 C 0.46459 0.50316 0.48598 0.0
C429 C 0.4742 0.51418 0.4844 0.0
C430 C 0.47047 0.52584 0.47446 0.0
C431 C 0.45726 0.52636 0.46621 0.0
C432 C 0.44775 0.51502 0.46817 0.0
H433 H 0.78046 0.15918 0.77506 0.0
H434 H 0.7673 0.13744 0.82047 0.0
H435 H 0.7446 0.13164 0.80691 0.0
H436 H 0.74872 0.17533 0.76678 0.0
H437 H 0.74974 0.1738 0.74417 0.0
H438 H 0.76558 0.17445 0.75651 0.0
H439 H 0.77376 0.15079 0.74336 0.0
H440 H 0.75792 0.15008 0.7309 0.0
H441 H 0.76246 0.13554 0.74447 0.0
H442 H 0.72235 0.13067 0.78953 0.0
H443 H 0.70254 0.13457 0.76991 0.0
H444 H 0.73049 0.15686 0.73594 0.0
C445 C 0.77295 0.15292 0.78205 0.0
C446 C 0.77569 0.14872 0.79882 0.0
C447 C 0.76547 0.14071 0.80758 0.0
C448 C 0.75256 0.13735 0.79997 0.0
C449 C 0.75007 0.14196 0.78355 0.0
C450 C 0.76004 0.14949 0.77466 0.0
C451 C 0.75443 0.1542 0.75772 0.0
C452 C 0.75462 0.1704 0.75622 0.0
C453 C 0.76263 0.14723 0.74326 0.0
C454 C 0.73958 0.14856 0.75867 0.0
C455 C 0.73729 0.14138 0.77356 0.0
C456 C 0.72408 0.13607 0.77772 0.0
C457 C 0.71288 0.13837 0.7665 0.0
C458 C 0.71495 0.14597 0.75134 0.0
C459 C 0.72857 0.15085 0.7473 0.0
H460 H 0.89903 0.50633 0.04934 0.0
H461 H 0.88348 0.53797 0.01453 0.0
H462 H 0.87989 0.51945 0.99295 0.0
H463 H 0.91892 0.4882 0.0208 0.0
H464 H 0.91557 0.47087 0.02922 0.0
H465 H 0.91456 0.48606 0.04275 0.0
H466 H 0.88909 0.47932 0.051 0.0
H467 H 0.89004 0.46402 0.03752 0.0
H468 H 0.87609 0.47666 0.03474 0.0
H469 H 0.8811 0.49804 0.97402 0.0
H470 H 0.88715 0.47577 0.95948 0.0
H471 H 0.90191 0.45835 0.00685 0.0
C472 C 0.8945 0.50934 0.03735 0.0
C473 C 0.89149 0.5236 0.03366 0.0
C474 C 0.8858 0.5271 0.01769 0.0
C475 C 0.88369 0.51665 0.00536 0.0
C476 C 0.8872 0.50274 0.00926 0.0
C477 C 0.89238 0.49907 0.02494 0.0
C478 C 0.89664 0.4837 0.0255 0.0
C479 C 0.91235 0.48212 0.02981 0.0
C480 C 0.88741 0.47544 0.03793 0.0
C481 C 0.8936 0.47941 0.00749 0.0
C482 C 0.88794 0.49044 -0.00164 0.0
C483 C 0.8853 0.48926 0.98112 0.0
C484 C 0.88878 0.47656 0.97296 0.0
C485 C 0.89496 0.46528 0.98203 0.0
C486 C 0.89706 0.46669 -0.00042 0.0
H487 H 0.20151 0.16693 0.71913 0.0
H488 H 0.19813 0.13282 0.75533 0.0
H489 H 0.22238 0.12545 0.74859 0.0
H490 H 0.22428 0.14814 0.68826 0.0
H491 H 0.2341 0.16396 0.68377 0.0
H492 H 0.21584 0.16513 0.68958 0.0
H493 H 0.22236 0.1822 0.71395 0.0
H494 H 0.2406 0.18104 0.70828 0.0
H495 H 0.23516 0.17678 0.72942 0.0
H496 H 0.24798 0.12376 0.74052 0.0
H497 H 0.27256 0.12786 0.73176 0.0
H498 H 0.2589 0.16304 0.70087 0.0
C499 C 0.20571 0.15768 0.72536 0.0
C500 C 0.19789 0.15043 0.73772 0.0
C501 C 0.20389 0.13851 0.74575 0.0
C502 C 0.21766 0.13422 0.74197 0.0
C503 C 0.22522 0.14189 0.73005 0.0
C504 C 0.21939 0.1533 0.72176 0.0
C505 C 0.23005 0.16054 0.7106 0.0
C506 C 0.22581 0.15937 0.69195 0.0
C507 C 0.23217 0.17605 0.71589 0.0
C508 C 0.24293 0.15175 0.71436 0.0
C509 C 0.23992 0.14092 0.72542 0.0
C510 C 0.25041 0.13206 0.73163 0.0
C511 C 0.26434 0.13448 0.72661 0.0
C512 C 0.26766 0.14574 0.71558 0.0
C513 C 0.25672 0.15425 0.70915 0.0
H514 H 0.57966 0.51844 0.45151 0.0
H515 H 0.60676 0.54173 0.48573 0.0
H516 H 0.61078 0.51995 0.50215 0.0
H517 H 0.56273 0.49878 0.48185 0.0
H518 H 0.5614 0.48285 0.46948 0.0
H519 H 0.56229 0.49969 0.45916 0.0
H520 H 0.58393 0.49134 0.44206 0.0
H521 H 0.58307 0.4744 0.45229 0.0
H522 H 0.59909 0.48454 0.45303 0.0
H523 H 0.60956 0.49617 0.51666 0.0
H524 H 0.60345 0.47252 0.52765 0.0
H525 H 0.57724 0.46513 0.48368 0.0
C526 C 0.58671 0.51893 0.46223 0.0
C527 C 0.59293 0.53179 0.4673 0.0
C528 C 0.60193 0.53198 0.48154 0.0
C529 C 0.60429 0.51965 0.49094 0.0
C530 C 0.59766 0.50722 0.48585 0.0
C531 C 0.58915 0.50677 0.47172 0.0
C532 C 0.58239 0.49242 0.46957 0.0
C533 C 0.56625 0.49351 0.47005 0.0
C534 C 0.58743 0.48525 0.45327 0.0
C535 C 0.58807 0.48498 0.48499 0.0
C536 C 0.59698 0.4936 0.49415 0.0
C537 C 0.60277 0.48926 0.50945 0.0
C538 C 0.59922 0.47582 0.5156 0.0
C539 C 0.58991 0.46694 0.5065 0.0
C540 C 0.58449 0.47157 0.49088 0.0
H541 H 0.26633 0.84563 0.25179 0.0
H542 H 0.28637 0.87253 0.21468 0.0
H543 H 0.26352 0.87563 0.20028 0.0
H544 H 0.24479 0.82752 0.22365 0.0
H545 H 0.22998 0.82618 0.23767 0.0
H546 H 0.24747 0.82748 0.24615 0.0
H547 H 0.24015 0.84937 0.26368 0.0
H548 H 0.22258 0.84811 0.25529 0.0
H549 H 0.23235 0.86432 0.25321 0.0
H550 H 0.23884 0.87404 0.18854 0.0
H551 H 0.21455 0.86775 0.18037 0.0
H552 H 0.21094 0.84179 0.22518 0.0
C553 C 0.2659 0.85242 0.24083 0.0
C554 C 0.27815 0.85889 0.23441 0.0
C555 C 0.27712 0.8675 0.21988 0.0
C556 C 0.26418 0.86935 0.21163 0.0
C557 C 0.25237 0.86257 0.21811 0.0
C558 C 0.25311 0.85432 0.23243 0.0
C559 C 0.23914 0.84738 0.23619 0.0
C560 C 0.24043 0.83118 0.23589 0.0
C561 C 0.23321 0.85261 0.25309 0.0
C562 C 0.23049 0.85271 0.22152 0.0
C563 C 0.23823 0.86158 0.21131 0.0
C564 C 0.23263 0.86724 0.19655 0.0
C565 C 0.21883 0.86359 0.19201 0.0
C566 C 0.2108 0.8543 0.20215 0.0
C567 C 0.21672 0.849 0.21721 0.0
H568 H 0.57868 0.00902 0.52095 0.0
H569 H 0.59803 0.03294 0.48058 0.0
H570 H 0.59781 0.01167 0.46255 0.0
H571 H 0.59582 0.97432 0.5114 0.0
H572 H 0.58005 0.96475 0.5166 0.0
H573 H 0.58405 0.98111 0.52723 0.0
H574 H 0.55981 0.99107 0.51828 0.0
H575 H 0.55578 0.97485 0.50755 0.0
H576 H 0.55511 0.99132 0.49626 0.0
H577 H 0.59238 0.98881 0.44767 0.0
H578 H 0.58231 0.96637 0.43729 0.0
H579 H 0.56643 0.95754 0.48742 0.0
C580 C 0.58328 0.00971 0.50851 0.0
C581 C 0.58844 0.02265 0.50222 0.0
C582 C 0.59408 0.02314 0.48572 0.0
C583 C 0.59403 0.01109 0.47539 0.0
C584 C 0.5884 -0.00139 0.48178 0.0
C585 C 0.58324 -0.00218 0.49803 0.0
C586 C 0.57646 0.98364 0.50134 0.0
C587 C 0.58458 0.97547 0.51495 0.0
C588 C 0.56087 0.98533 0.50613 0.0
C589 C 0.57809 0.97677 0.48422 0.0
C590 C 0.5852 0.98547 0.47318 0.0
C591 C 0.58703 0.98181 0.45629 0.0
C592 C 0.58124 0.96905 0.4505 0.0
C593 C 0.57362 0.96016 0.46155 0.0
C594 C 0.57233 0.964 0.47869 0.0
H595 H 0.26915 0.30591 0.72849 0.0
H596 H 0.29375 0.32994 0.76465 0.0
H597 H 0.27195 0.33654 0.77959 0.0
H598 H 0.23766 0.32936 0.72833 0.0
H599 H 0.22588 0.31452 0.72668 0.0
H600 H 0.24313 0.31361 0.7174 0.0
H601 H 0.24831 0.29086 0.73441 0.0
H602 H 0.23116 0.29173 0.74378 0.0
H603 H 0.24655 0.29114 0.75703 0.0
H604 H 0.24784 0.33788 0.79264 0.0
H605 H 0.22356 0.33387 0.80257 0.0
H606 H 0.21495 0.30897 0.75775 0.0
C607 C 0.26996 0.31287 0.73929 0.0
C608 C 0.28316 0.31744 0.74536 0.0
C609 C 0.28375 0.32635 0.75971 0.0
C610 C 0.27141 0.33019 0.76826 0.0
C611 C 0.25859 0.32513 0.76222 0.0
C612 C 0.25779 0.31676 0.74796 0.0
C613 C 0.24294 0.31162 0.74489 0.0
C614 C 0.23706 0.31764 0.72834 0.0
C615 C 0.24221 0.29538 0.74505 0.0
C616 C 0.2356 0.31795 0.76001 0.0
C617 C 0.24473 0.32588 0.76973 0.0
C618 C 0.24054 0.33189 0.78497 0.0
C619 C 0.22673 0.32953 0.79053 0.0
C620 C 0.21733 0.32114 0.78092 0.0
C621 C 0.2218 0.31556 0.7653 0.0
H622 H 0.89994 0.96733 0.0326 0.0
H623 H 0.86796 0.98927 0.06144 0.0
H624 H 0.86514 0.0064 0.03822 0.0
H625 H 0.91651 -0.0028 0.01728 0.0
H626 H 0.9205 0.98995 0.99683 0.0
H627 H 0.91865 0.97842 0.01466 0.0
H628 H 0.89949 0.96414 -0.0012 0.0
H629 H 0.90132 0.97562 0.98085 0.0
H630 H 0.88434 0.97316 0.99043 0.0
H631 H 0.86758 0.0225 0.013 0.0
H632 H 0.87514 0.03616 0.9881 0.0
H633 H 0.90555 0.00355 0.97608 0.0
C634 C 0.89212 0.97554 0.03393 0.0
C635 C 0.88413 0.97691 0.04884 0.0
C636 C 0.87417 0.98796 0.05012 0.0
C637 C 0.87247 -0.00227 0.03698 0.0
C638 C 0.88075 -0.00375 0.02261 0.0
C639 C 0.89033 0.98537 0.02099 0.0
C640 C 0.89871 0.98668 0.00488 0.0
C641 C 0.91452 0.98816 0.00865 0.0
C642 C 0.89579 0.97415 0.99304 0.0
C643 C 0.89266 0.00023 0.9979 0.0
C644 C 0.8822 0.00552 0.00818 0.0
C645 C 0.87563 0.01835 0.00474 0.0
C646 C 0.88001 0.02605 0.99058 0.0
C647 C 0.89091 0.02093 0.98009 0.0
C648 C 0.8971 0.00772 0.98373 0.0
H649 H 0.22783 0.67493 0.21189 0.0
H650 H 0.19775 0.65528 0.24554 0.0
H651 H 0.21618 0.6533 0.26741 0.0
H652 H 0.25926 0.65481 0.22615 0.0
H653 H 0.27045 0.67006 0.22409 0.0
H654 H 0.25549 0.66793 0.21036 0.0
H655 H 0.24627 0.69251 0.21951 0.0
H656 H 0.26112 0.69469 0.2333 0.0
H657 H 0.24356 0.69612 0.24159 0.0
H658 H 0.23713 0.6563 0.28677 0.0
H659 H 0.25871 0.66381 0.30173 0.0
H660 H 0.27486 0.68139 0.25515 0.0
C661 C 0.22517 0.66988 0.22369 0.0
C662 C 0.21134 0.66522 0.22697 0.0
C663 C 0.20829 0.65886 0.24269 0.0
C664 C 0.2187 0.65767 0.25519 0.0
C665 C 0.23213 0.66277 0.2517 0.0
C666 C 0.2354 0.66863 0.23626 0.0
C667 C 0.25022 0.67442 0.23609 0.0
C668 C 0.2594 0.66632 0.22342 0.0
C669 C 0.25028 0.69037 0.23241 0.0
C670 C 0.25463 0.67137 0.25403 0.0
C671 C 0.24415 0.66448 0.26281 0.0
C672 C 0.2455 0.66148 0.27994 0.0
C673 C 0.25778 0.66581 0.28834 0.0
C674 C 0.26851 0.67315 0.27961 0.0
C675 C 0.26695 0.67567 0.26217 0.0
H676 H 0.39419 0.95129 0.50013 0.0
H677 H 0.36446 0.96118 0.46032 0.0
H678 H 0.36355 0.9859 0.47027 0.0
H679 H 0.37969 0.97578 0.53246 0.0
H680 H 0.39699 0.98017 0.54014 0.0
H681 H 0.3936 0.9629 0.53147 0.0
H682 H 0.41399 0.96634 0.51026 0.0
H683 H 0.41739 0.98361 0.51877 0.0
H684 H 0.41391 0.98151 0.49657 0.0
H685 H 0.36819 0.01012 0.48242 0.0
H686 H 0.37789 0.03164 0.49574 0.0
H687 H 0.4046 0.00567 0.52742 0.0
C688 C 0.3872 0.95854 0.49374 0.0
C689 C 0.37935 0.95427 0.47947 0.0
C690 C 0.37052 0.96418 0.47133 0.0
C691 C 0.36991 0.97824 0.47691 0.0
C692 C 0.37812 0.98219 0.49072 0.0
C693 C 0.38651 0.97258 0.4991 0.0
C694 C 0.39525 0.97968 0.51264 0.0
C695 C 0.39113 0.97431 0.53022 0.0
C696 C 0.41106 0.97767 0.50935 0.0
C697 C 0.39085 -0.00513 0.51018 0.0
C698 C 0.38082 -0.00389 0.49765 0.0
C699 C 0.37588 0.00925 0.49243 0.0
C700 C 0.38147 0.02142 0.50005 0.0
C701 C 0.39198 0.02036 0.51267 0.0
C702 C 0.39648 0.00686 0.51795 0.0
H703 H 0.72289 0.6605 0.29266 0.0
H704 H 0.69912 0.63195 0.26062 0.0
H705 H 0.72081 0.62606 0.24509 0.0
H706 H 0.74272 0.67498 0.26139 0.0
H707 H 0.75867 0.67676 0.27351 0.0
H708 H 0.74196 0.67672 0.284 0.0
H709 H 0.75003 0.65586 0.30274 0.0
H710 H 0.76685 0.65586 0.29232 0.0
H711 H 0.7565 0.63994 0.29298 0.0
H712 H 0.7443 0.62594 0.23056 0.0
H713 H 0.76743 0.63167 0.21828 0.0
H714 H 0.7757 0.66035 0.25987 0.0
C715 C 0.72229 0.65269 0.2827 0.0
C716 C 0.7093 0.64665 0.27791 0.0
C717 C 0.70895 0.63667 0.26459 0.0
C718 C 0.72124 0.63323 0.25571 0.0
C719 C 0.73379 0.63975 0.26042 0.0
C720 C 0.73441 0.64919 0.2737 0.0
C721 C 0.74881 0.65586 0.27518 0.0
C722 C 0.74798 0.67203 0.2734 0.0
C723 C 0.75597 0.65162 0.29179 0.0
C724 C 0.75605 0.64917 0.26021 0.0
C725 C 0.74731 0.63972 0.25201 0.0
C726 C 0.75132 0.63311 0.23706 0.0
C727 C 0.76448 0.63646 0.23015 0.0
C728 C 0.77342 0.64642 0.23813 0.0
C729 C 0.76922 0.65255 0.25356 0.0
H730 H 0.03947 0.98751 0.97126 0.0
H731 H 0.07274 0.01653 0.98562 0.0
H732 H 0.07843 0.00145 0.01008 0.0
H733 H 0.02782 0.97984 0.01309 0.0
H734 H 0.02405 0.96158 0.00855 0.0
H735 H 0.0229 0.97454 0.99205 0.0
H736 H 0.04042 0.96001 0.97405 0.0
H737 H 0.04169 0.94704 0.99055 0.0
H738 H 0.05735 0.95548 0.98273 0.0
H739 H 0.08042 0.98303 0.03309 0.0
H740 H 0.07768 0.96356 0.05354 0.0
H741 H 0.04295 0.94693 0.02399 0.0
C742 C 0.04797 0.99071 0.97952 0.0
C743 C 0.05568 0.00319 0.97649 0.0
C744 C 0.06668 0.00702 0.98768 0.0
C745 C 0.07002 -0.00151 0.00158 0.0
C746 C 0.06225 0.98621 0.00412 0.0
C747 C 0.0514 0.98238 0.99345 0.0
C748 C 0.04444 0.96885 -0.00085 0.0
C749 C 0.02888 0.97136 0.00347 0.0
C750 C 0.04608 0.95716 0.98583 0.0
C751 C 0.05301 0.96568 0.01476 0.0
C752 C 0.0633 0.97575 0.01738 0.0
C753 C 0.07241 0.97509 0.03115 0.0
C754 C 0.07079 0.96396 0.04267 0.0
C755 C 0.0601 0.95371 0.04038 0.0
C756 C 0.05124 0.95457 0.02611 0.0
H757 H 0.78549 0.32349 0.75913 0.0
H758 H 0.77715 0.35189 0.80093 0.0
H759 H 0.75411 0.35781 0.7884 0.0
H760 H 0.76758 0.34452 0.72621 0.0
H761 H 0.76096 0.32896 0.71575 0.0
H762 H 0.77742 0.32828 0.72699 0.0
H763 H 0.7681 0.30739 0.74482 0.0
H764 H 0.75163 0.30803 0.73369 0.0
H765 H 0.75191 0.30941 0.75635 0.0
H766 H 0.73098 0.35869 0.77281 0.0
H767 H 0.70979 0.35453 0.75542 0.0
H768 H 0.7335 0.32572 0.7238 0.0
C769 C 0.77897 0.33118 0.76551 0.0
C770 C 0.78317 0.33726 0.78101 0.0
C771 C 0.7742 0.34713 0.78902 0.0
C772 C 0.7611 0.35058 0.78198 0.0
C773 C 0.75716 0.34416 0.76686 0.0
C774 C 0.76588 0.33474 0.75867 0.0
C775 C 0.75883 0.32855 0.74321 0.0
C776 C 0.76667 0.33284 0.72709 0.0
C777 C 0.75754 0.31239 0.74461 0.0
C778 C 0.74462 0.33564 0.74424 0.0
C779 C 0.74388 0.34471 0.75787 0.0
C780 C 0.7315 0.35177 0.76197 0.0
C781 C 0.71951 0.34932 0.75203 0.0
C782 C 0.71998 0.33986 0.73818 0.0
C783 C 0.73281 0.33316 0.73414 0.0
H784 H 0.94959 0.56232 0.07959 0.0
H785 H 0.94168 0.60741 0.0785 0.0
H786 H 0.96648 0.6119 0.08601 0.0
H787 H 0.9762 0.56267 0.11422 0.0
H788 H 0.98647 0.54912 0.10411 0.0
H789 H 0.96766 0.54946 0.10142 0.0
H790 H 0.97082 0.54991 0.06898 0.0
H791 H 0.98957 0.54959 0.07157 0.0
H792 H 0.98146 0.56354 0.0596 0.0
H793 H -0.00728 0.61149 0.09003 0.0
H794 H 0.01812 0.60623 0.08937 0.0
H795 H 0.00871 0.5614 0.08774 0.0
C796 C 0.95295 0.57314 0.08137 0.0
C797 C 0.94365 0.58451 0.07854 0.0
C798 C 0.94858 0.59852 0.08067 0.0
C799 C 0.96265 0.60118 0.08501 0.0
C800 C 0.97162 0.58971 0.08729 0.0
C801 C 0.96694 0.57597 0.08561 0.0
C802 C 0.97892 0.56555 0.087 0.0
C803 C 0.97721 0.55615 0.10262 0.0
C804 C 0.98027 0.55663 0.07083 0.0
C805 C -0.00883 0.57559 0.08905 0.0
C806 C 0.98675 0.58948 0.08949 0.0
C807 C -0.00371 0.60065 0.08999 0.0
C808 C 0.01071 0.59755 0.08961 0.0
C809 C 0.01544 0.58339 0.08856 0.0
C810 C 0.00548 0.57233 0.08876 0.0
H811 H 0.62488 0.76837 0.29415 0.0
H812 H 0.65898 0.79625 0.30866 0.0
H813 H 0.67391 0.77553 0.31492 0.0
H814 H 0.63044 0.7422 0.32529 0.0
H815 H 0.62635 0.72751 0.31166 0.0
H816 H 0.61854 0.74451 0.30782 0.0
H817 H 0.6283 0.74437 0.27734 0.0
H818 H 0.63603 0.7273 0.28104 0.0
H819 H 0.64684 0.74175 0.27398 0.0
H820 H 0.68441 0.75174 0.32149 0.0
H821 H 0.6907 0.72664 0.32509 0.0
H822 H 0.65005 0.7143 0.30498 0.0
C823 C 0.63554 0.77009 0.29849 0.0
C824 C 0.64088 0.78387 0.30076 0.0
C825 C 0.65484 0.78576 0.30649 0.0
C826 C 0.66332 0.77406 0.31023 0.0
C827 C 0.6577 0.76059 0.308 0.0
C828 C 0.6442 0.75855 0.30202 0.0
C829 C 0.6407 0.743 0.30057 0.0
C830 C 0.62827 0.73908 0.31202 0.0
C831 C 0.6378 0.73886 0.28214 0.0
C832 C 0.65428 0.73658 0.30689 0.0
C833 C 0.6639 0.74691 0.31125 0.0
C834 C 0.67701 0.74356 0.31796 0.0
C835 C 0.68045 0.72928 0.32004 0.0
C836 C 0.67089 0.71852 0.31525 0.0
C837 C 0.65762 0.72228 0.30863 0.0
H838 H 0.53152 0.40445 0.57202 0.0
H839 H 0.53601 0.41391 0.51876 0.0
H840 H 0.51091 0.40882 0.51436 0.0
H841 H 0.50514 0.37577 0.56674 0.0
H842 H 0.49572 0.38094 0.58544 0.0
H843 H 0.51441 0.3838 0.58413 0.0
H844 H 0.5107 0.41035 0.59059 0.0
H845 H 0.49202 0.40761 0.5918 0.0
H846 H 0.49903 0.42053 0.57745 0.0
H847 H 0.48498 0.40543 0.51618 0.0
H848 H 0.46001 0.40266 0.52398 0.0
H849 H 0.47216 0.39491 0.57584 0.0
C850 C 0.52731 0.40514 0.55936 0.0
C851 C 0.53579 0.40958 0.54574 0.0
C852 C 0.52978 0.41052 0.52941 0.0
C853 C 0.51551 0.40763 0.52676 0.0
C854 C 0.50738 0.40367 0.54052 0.0
C855 C 0.51306 0.40224 0.55647 0.0
C856 C 0.50182 0.39858 0.56925 0.0
C857 C 0.50443 0.3839 0.57684 0.0
C858 C 0.50084 0.40995 0.58308 0.0
C859 C 0.48889 0.3986 0.55807 0.0
C860 C 0.49236 0.4015 0.54153 0.0
C861 C 0.48215 0.40298 0.52905 0.0
C862 C 0.468 0.40154 0.53361 0.0
C863 C 0.46422 0.39867 0.55049 0.0
C864 C 0.47481 0.39694 0.5628 0.0
H865 H 0.81971 0.20864 0.84671 0.0
H866 H 0.8527 0.19615 0.8121 0.0
H867 H 0.85792 0.22128 0.80651 0.0
H868 H 0.80656 0.23614 0.82332 0.0
H869 H 0.80286 0.24761 0.84091 0.0
H870 H 0.80301 0.22881 0.84383 0.0
H871 H 0.82161 0.23143 0.86754 0.0
H872 H 0.82146 0.25031 0.86476 0.0
H873 H 0.83776 0.24072 0.86334 0.0
H874 H 0.85703 0.24763 0.80157 0.0
H875 H 0.85118 0.27299 0.79921 0.0
H876 H 0.8196 0.26813 0.83811 0.0
C877 C 0.82825 0.21117 0.83824 0.0
C878 C 0.8358 0.20043 0.82984 0.0
C879 C 0.84685 0.2042 0.81878 0.0
C880 C 0.84987 0.21844 0.81551 0.0
C881 C 0.84194 0.22878 0.82364 0.0
C882 C 0.83151 0.2253 0.835 0.0
C883 C 0.82395 0.2383 0.84136 0.0
C884 C 0.80817 0.23767 0.83709 0.0
C885 C 0.82635 0.2403 0.86038 0.0
C886 C 0.83136 0.24962 0.83132 0.0
C887 C 0.84176 0.24395 0.82122 0.0
C888 C 0.84914 0.25222 0.80971 0.0
C889 C 0.84572 0.2666 0.80841 0.0
C890 C 0.83507 0.27257 0.81863 0.0
C891 C 0.82802 0.26396 0.83041 0.0
H892 H 0.95828 0.4155 0.90449 0.0
H893 H 0.95857 0.42518 0.95802 0.0
H894 H 0.98443 0.42415 0.95813 0.0
H895 H 0.98921 0.39147 0.9051 0.0
H896 H -0.00464 0.39776 0.885 0.0
H897 H 0.97681 0.39758 0.88954 0.0
H898 H 0.97542 0.42426 0.88264 0.0
H899 H -0.00605 0.42456 0.87823 0.0
H900 H 0.98673 0.43644 0.89372 0.0
H901 H 0.01023 0.42479 0.95187 0.0
H902 H 0.03413 0.42588 0.93976 0.0
H903 H 0.01714 0.41555 0.8905 0.0
C904 C 0.96375 0.41707 0.91632 0.0
C905 C 0.95635 0.4204 0.93124 0.0
C906 C 0.96396 0.42258 0.94641 0.0
C907 C 0.97868 0.422 0.94663 0.0
C908 C 0.98566 0.41911 0.93161 0.0
C909 C 0.97846 0.4165 0.91678 0.0
C910 C 0.9885 0.41448 0.90218 0.0
C911 C 0.9874 0.39942 0.89504 0.0
C912 C 0.986 0.4256 0.88839 0.0
C913 C 0.00243 0.4168 0.91103 0.0
C914 C 0.00057 0.41937 0.92803 0.0
C915 C 0.01183 0.42265 0.93861 0.0
C916 C 0.02534 0.42341 0.9316 0.0
C917 C 0.02744 0.42092 0.9142 0.0
C918 C 0.01585 0.41735 0.90389 0.0
H919 H 0.82056 0.71837 0.20894 0.0
H920 H 0.81162 0.69985 0.15998 0.0
H921 H 0.81105 0.72363 0.1474 0.0
H922 H 0.79783 0.74657 0.20554 0.0
H923 H 0.80894 0.75918 0.21618 0.0
H924 H 0.81053 0.7407 0.22088 0.0
H925 H 0.83704 0.74159 0.21353 0.0
H926 H 0.83553 0.76014 0.20881 0.0
H927 H 0.84247 0.74816 0.19325 0.0
H928 H 0.80826 0.74933 0.14097 0.0
H929 H 0.80403 0.77505 0.14106 0.0
H930 H 0.81558 0.77688 0.19394 0.0
C931 C 0.81877 0.71928 0.1955 0.0
C932 C 0.81614 0.70722 0.18545 0.0
C933 C 0.81371 0.7089 0.16794 0.0
C934 C 0.8134 0.72238 0.16067 0.0
C935 C 0.81572 0.73405 0.17101 0.0
C936 C 0.81851 0.73263 0.18803 0.0
C937 C 0.81963 0.74688 0.1966 0.0
C938 C 0.80857 0.74842 0.21062 0.0
C939 C 0.83456 0.74933 0.20345 0.0
C940 C 0.81651 0.75653 0.18188 0.0
C941 C 0.81442 0.74893 0.16719 0.0
C942 C 0.81016 0.75543 0.15229 0.0
C943 C 0.80775 0.77003 0.15248 0.0
C944 C 0.80964 0.77797 0.16745 0.0
C945 C 0.81438 0.77114 0.18221 0.0
H946 H 0.48165 0.593 0.39222 0.0
H947 H 0.464 0.59099 0.44246 0.0
H948 H 0.48775 0.59381 0.45472 0.0
H949 H 0.51075 0.57212 0.40091 0.0
H950 H 0.52282 0.5816 0.3876 0.0
H951 H 0.50435 0.58166 0.38282 0.0
H952 H 0.50429 0.60901 0.38339 0.0
H953 H 0.52281 0.60903 0.38819 0.0
H954 H 0.5107 0.61817 0.4018 0.0
H955 H 0.51336 0.59472 0.46143 0.0
H956 H 0.53908 0.59204 0.46231 0.0
H957 H 0.54034 0.59265 0.4076 0.0
C958 C 0.4828 0.59352 0.40579 0.0
C959 C 0.47107 0.59183 0.41645 0.0
C960 C 0.47292 0.59219 0.43414 0.0
C961 C 0.48633 0.59391 0.44118 0.0
C962 C 0.49777 0.59523 0.43034 0.0
C963 C 0.49615 0.59502 0.41302 0.0
C964 C 0.51027 0.59512 0.40422 0.0
C965 C 0.51215 0.58184 0.39325 0.0
C966 C 0.51212 0.60864 0.39378 0.0
C967 C 0.52007 0.59501 0.41929 0.0
C968 C 0.51263 0.59537 0.43423 0.0
C969 C 0.51931 0.59459 0.44982 0.0
C970 C 0.53395 0.59305 0.45018 0.0
C971 C 0.54178 0.59214 0.43503 0.0
C972 C 0.53471 0.59346 0.41941 0.0
H973 H 0.6768 0.27275 0.71272 0.0
H974 H 0.65351 0.28018 0.66649 0.0
H975 H 0.64887 0.25455 0.66404 0.0
H976 H 0.69389 0.24254 0.69948 0.0
H977 H 0.69323 0.23371 0.71956 0.0
H978 H 0.69313 0.25266 0.71873 0.0
H979 H 0.66997 0.25322 0.73585 0.0
H980 H 0.67001 0.23422 0.73681 0.0
H981 H 0.65495 0.24337 0.72843 0.0
H982 H 0.64898 0.22771 0.66525 0.0
H983 H 0.65369 0.20236 0.67011 0.0
H984 H 0.6768 0.21307 0.7156 0.0
C985 C 0.67049 0.26907 0.70222 0.0
C986 C 0.66551 0.27851 0.68981 0.0
C987 C 0.65739 0.27318 0.67621 0.0
C988 C 0.65469 0.25863 0.67472 0.0
C989 C 0.66006 0.2496 0.68701 0.0
C990 C 0.6677 0.25467 0.70057 0.0
C991 C 0.67313 0.2428 0.71149 0.0
C992 C 0.6893 0.24294 0.71235 0.0
C993 C 0.66662 0.24344 0.72919 0.0
C994 C 0.66775 0.2302 0.7017 0.0
C995 C 0.6601 0.23429 0.68772 0.0
C996 C 0.65479 0.22441 0.67629 0.0
C997 C 0.65753 0.21003 0.67915 0.0
C998 C 0.66559 0.20569 0.69326 0.0
C999 C 0.67051 0.21597 0.70476 0.0
H1000 H 0.33012 0.19596 0.72944 0.0
H1001 H 0.34958 0.18964 0.68058 0.0
H1002 H 0.35709 0.2146 0.68045 0.0
H1003 H 0.31554 0.22796 0.72055 0.0
H1004 H 0.31808 0.23562 0.74115 0.0
H1005 H 0.31656 0.21681 0.73891 0.0
H1006 H 0.34054 0.2135 0.75394 0.0
H1007 H 0.3421 0.23236 0.75632 0.0
H1008 H 0.35585 0.22252 0.74605 0.0
H1009 H 0.35956 0.24089 0.68385 0.0
H1010 H 0.35654 0.2662 0.69034 0.0
H1011 H 0.33525 0.2552 0.73684 0.0
C1012 C 0.33633 0.19968 0.71893 0.0
C1013 C 0.33933 0.1908 0.70506 0.0
C1014 C 0.34722 0.19621 0.69139 0.0
C1015 C 0.35157 0.21037 0.69123 0.0
C1016 C 0.34803 0.21895 0.70487 0.0
C1017 C 0.34067 0.21377 0.71852 0.0
C1018 C 0.33686 0.22543 0.73074 0.0
C1019 C 0.32081 0.22652 0.73295 0.0
C1020 C 0.34428 0.22332 0.74777 0.0
C1021 C 0.3427 0.23807 0.7215 0.0
C1022 C 0.34933 0.23412 0.70675 0.0
C1023 C 0.35461 0.24409 0.69551 0.0
C1024 C 0.35282 0.25845 0.6993 0.0
C1025 C 0.34569 0.26271 0.71413 0.0
C1026 C 0.34088 0.25233 0.7255 0.0
H1027 H 0.17432 0.77809 0.16801 0.0
H1028 H 0.13762 0.79263 0.19527 0.0
H1029 H 0.12962 0.76796 0.19848 0.0
H1030 H 0.15784 0.74708 0.14696 0.0
H1031 H 0.1733 0.73637 0.14979 0.0
H1032 H 0.17498 0.75519 0.14725 0.0
H1033 H 0.18885 0.75669 0.17534 0.0
H1034 H 0.1872 0.73792 0.17797 0.0
H1035 H 0.18113 0.74967 0.19429 0.0
H1036 H 0.12664 0.74181 0.20082 0.0
H1037 H 0.12972 0.71612 0.204 0.0
H1038 H 0.16901 0.71852 0.17643 0.0
C1039 C 0.16441 0.77608 0.17424 0.0
C1040 C 0.15647 0.78724 0.18121 0.0
C1041 C 0.14379 0.78421 0.18976 0.0
C1042 C 0.13913 0.77025 0.19156 0.0
C1043 C 0.14734 0.75945 0.18484 0.0
C1044 C 0.15974 0.76219 0.17641 0.0
C1045 C 0.16739 0.74864 0.17207 0.0
C1046 C 0.16843 0.74671 0.15288 0.0
C1047 C 0.182 0.74821 0.18042 0.0
C1048 C 0.15754 0.73789 0.17977 0.0
C1049 C 0.14589 0.74432 0.18675 0.0
C1050 C 0.13564 0.73664 0.19525 0.0
C1051 C 0.13749 0.72203 0.19699 0.0
C1052 C 0.14961 0.71528 0.19047 0.0
C1053 C 0.15959 0.72333 0.18147 0.0
H1054 H 0.14681 0.20866 0.77298 0.0
H1055 H 0.15249 0.19432 0.82448 0.0
H1056 H 0.15167 0.21898 0.8344 0.0
H1057 H 0.169 0.23674 0.77541 0.0
H1058 H 0.15889 0.24856 0.7624 0.0
H1059 H 0.15723 0.22981 0.7596 0.0
H1060 H 0.13035 0.23153 0.76429 0.0
H1061 H 0.1319 0.25036 0.767 0.0
H1062 H 0.12372 0.23983 0.78313 0.0
H1063 H 0.1543 0.24498 0.83817 0.0
H1064 H 0.15937 0.27045 0.83556 0.0
H1065 H 0.15145 0.26801 0.78177 0.0
C1066 C 0.14743 0.21065 0.78641 0.0
C1067 C 0.14968 0.19953 0.79795 0.0
C1068 C 0.15072 0.20264 0.81539 0.0
C1069 C 0.15022 0.21663 0.82116 0.0
C1070 C 0.14851 0.22738 0.80938 0.0
C1071 C 0.14695 0.22455 0.79238 0.0
C1072 C 0.14668 0.23804 0.78215 0.0
C1073 C 0.15866 0.2383 0.76913 0.0
C1074 C 0.1323 0.24006 0.77364 0.0
C1075 C 0.149 0.24884 0.79597 0.0
C1076 C 0.14984 0.24249 0.81161 0.0
C1077 C 0.15333 0.25012 0.82606 0.0
C1078 C 0.15625 0.26456 0.82445 0.0
C1079 C 0.15566 0.27122 0.8085 0.0
C1080 C 0.15166 0.26328 0.79418 0.0
H1081 H 0.30867 0.73855 0.32331 0.0
H1082 H 0.34091 0.72435 0.28855 0.0
H1083 H 0.34687 0.74912 0.28224 0.0
H1084 H 0.29617 0.7658 0.29905 0.0
H1085 H 0.29292 0.77788 0.31618 0.0
H1086 H 0.29256 0.75917 0.31988 0.0
H1087 H 0.31138 0.76196 0.34331 0.0
H1088 H 0.31175 0.78074 0.33973 0.0
H1089 H 0.32776 0.77064 0.33858 0.0
H1090 H 0.34691 0.77508 0.27654 0.0
H1091 H 0.34174 0.80044 0.27291 0.0
H1092 H 0.3101 0.79788 0.31207 0.0
C1093 C 0.31723 0.74062 0.31468 0.0
C1094 C 0.32433 0.72948 0.30644 0.0
C1095 C 0.33535 0.73269 0.29509 0.0
C1096 C 0.33883 0.74673 0.29143 0.0
C1097 C 0.33134 0.75746 0.2994 0.0
C1098 C 0.32089 0.75458 0.31096 0.0
C1099 C 0.31373 0.76798 0.31684 0.0
C1100 C 0.29791 0.76768 0.31273 0.0
C1101 C 0.31631 0.77048 0.33574 0.0
C1102 C 0.3214 0.7788 0.30626 0.0
C1103 C 0.3316 0.77253 0.29639 0.0
C1104 C 0.33918 0.78016 0.28447 0.0
C1105 C 0.33613 0.79454 0.28245 0.0
C1106 C 0.32564 0.80114 0.29235 0.0
C1107 C 0.3184 0.79319 0.30461 0.0
H1108 H 0.46793 0.06293 0.53181 0.0
H1109 H 0.4578 0.08378 0.579 0.0
H1110 H 0.48289 0.08968 0.58302 0.0
H1111 H 0.49815 0.04668 0.54564 0.0
H1112 H 0.50772 0.04859 0.5262 0.0
H1113 H 0.48886 0.04788 0.52587 0.0
H1114 H 0.48802 0.07183 0.51016 0.0
H1115 H 0.50694 0.07259 0.51039 0.0
H1116 H 0.49685 0.08695 0.51906 0.0
H1117 H 0.50947 0.09081 0.58341 0.0
H1118 H 0.53502 0.08698 0.58017 0.0
H1119 H 0.52737 0.06542 0.53269 0.0
C1120 C 0.47089 0.06902 0.54282 0.0
C1121 C 0.46086 0.07293 0.55506 0.0
C1122 C 0.46527 0.08072 0.5694 0.0
C1123 C 0.4795 0.08415 0.57177 0.0
C1124 C 0.48917 0.07981 0.55964 0.0
C1125 C 0.48501 0.0725 0.54538 0.0
C1126 C 0.49749 0.06801 0.5349 0.0
C1127 C 0.49808 0.05183 0.53306 0.0
C1128 C 0.49731 0.07528 0.5176 0.0
C1129 C 0.50937 0.07349 0.54578 0.0
C1130 C 0.5044 0.08044 0.55988 0.0
C1131 C 0.51348 0.08558 0.57228 0.0
C1132 C 0.52798 0.08335 0.57034 0.0
C1133 C 0.53324 0.07594 0.55615 0.0
C1134 C 0.52375 0.07124 0.54361 0.0
H1135 H 0.00659 0.90013 0.08135 0.0
H1136 H 0.01859 0.93047 0.11985 0.0
H1137 H -0.00639 0.93408 0.12685 0.0
H1138 H 0.97896 0.9188 0.06578 0.0
H1139 H 0.96767 0.90393 0.0615 0.0
H1140 H 0.9864 0.90163 0.06171 0.0
H1141 H 0.98404 0.88202 0.08424 0.0
H1142 H 0.96522 0.88419 0.08403 0.0
H1143 H 0.9748 0.88566 0.10357 0.0
H1144 H 0.96755 0.93726 0.1265 0.0
H1145 H 0.94245 0.9395 0.11912 0.0
H1146 H 0.94732 0.90695 0.08102 0.0
C1147 C 0.00401 0.9072 0.09164 0.0
C1148 C 0.01458 0.91497 0.10011 0.0
C1149 C 0.01071 0.92435 0.11323 0.0
C1150 C -0.00347 0.92644 0.11733 0.0
C1151 C 0.98635 0.91898 0.10832 0.0
C1152 C 0.98992 0.90944 0.09585 0.0
C1153 C 0.977 0.90391 0.08681 0.0
C1154 C 0.97755 0.90728 0.06784 0.0
C1155 C 0.97516 0.888 0.08985 0.0
C1156 C 0.96565 0.91231 0.09563 0.0
C1157 C 0.97123 0.92078 0.10817 0.0
C1158 C 0.963 0.93045 0.11697 0.0
C1159 C 0.94876 0.93169 0.11264 0.0
C1160 C 0.94289 0.92332 0.09959 0.0
C1161 C 0.95142 0.91328 0.0913 0.0
H1162 H 0.50349 0.92079 0.42261 0.0
H1163 H 0.51495 0.88765 0.45776 0.0
H1164 H 0.48996 0.88127 0.46079 0.0
H1165 H 0.47379 0.93226 0.44402 0.0
H1166 H 0.46345 0.93589 0.42547 0.0
H1167 H 0.48231 0.93674 0.42447 0.0
H1168 H 0.48222 0.91866 0.39991 0.0
H1169 H 0.46332 0.91775 0.40085 0.0
H1170 H 0.47362 0.90186 0.40263 0.0
H1171 H 0.46377 0.88022 0.46249 0.0
H1172 H 0.43821 0.88457 0.46268 0.0
H1173 H 0.44367 0.91803 0.42599 0.0
C1174 C 0.50078 0.91201 0.4307 0.0
C1175 C 0.51121 0.9047 0.43992 0.0
C1176 C 0.50718 0.8934 0.45054 0.0
C1177 C 0.493 0.88965 0.4523 0.0
C1178 C 0.48298 0.89723 0.44326 0.0
C1179 C 0.48668 0.90812 0.43259 0.0
C1180 C 0.4738 0.91522 0.42523 0.0
C1181 C 0.47332 0.93095 0.4301 0.0
C1182 C 0.47321 0.91325 0.40601 0.0
C1183 C 0.46228 0.90693 0.43388 0.0
C1184 C 0.4678 0.8965 0.44408 0.0
C1185 C 0.4593 0.88818 0.45432 0.0
C1186 C 0.4448 0.89075 0.45437 0.0
C1187 C 0.43894 0.90155 0.44424 0.0
C1188 C 0.4478 0.90951 0.4336 0.0
H1189 H 0.01771 0.04091 0.88852 0.0
H1190 H 0.04009 0.05722 0.93204 0.0
H1191 H 0.0174 0.06275 0.94581 0.0
H1192 H 0.98887 0.0657 0.8888 0.0
H1193 H 0.97597 0.05264 0.88292 0.0
H1194 H -0.00606 0.05068 0.87622 0.0
H1195 H -0.00503 0.0259 0.88995 0.0
H1196 H 0.97699 0.02774 0.89658 0.0
H1197 H -0.00951 0.02397 0.91189 0.0
H1198 H -0.00789 0.06679 0.95451 0.0
H1199 H 0.9664 0.06648 0.95892 0.0
H1200 H 0.96079 0.04619 0.91029 0.0
C1201 C 0.01781 0.04573 0.90091 0.0
C1202 C 0.03059 0.04865 0.90927 0.0
C1203 C 0.03037 0.05476 0.92555 0.0
C1204 C 0.01756 0.05805 0.93338 0.0
C1205 C 0.00511 0.05502 0.92478 0.0
C1206 C 0.00515 0.04882 0.909 0.0
C1207 C 0.99037 0.04584 0.90286 0.0
C1208 C 0.9871 0.05422 0.88675 0.0
C1209 C 0.98807 0.02992 0.90017 0.0
C1210 C 0.98197 0.05129 0.91767 0.0
C1211 C -0.00936 0.05677 0.93007 0.0
C1212 C 0.98523 0.06249 0.9449 0.0
C1213 C 0.97062 0.06233 0.94725 0.0
C1214 C 0.96161 0.05628 0.93497 0.0
C1215 C 0.96741 0.05085 0.91993 0.0
H1216 H 0.1104 0.65261 0.16856 0.0
H1217 H 0.14695 0.62578 0.17453 0.0
H1218 H 0.13716 0.60909 0.15349 0.0
H1219 H 0.0846 0.62552 0.16255 0.0
H1220 H 0.07502 0.63503 0.14659 0.0
H1221 H 0.08468 0.64455 0.16251 0.0
H1222 H 0.09846 0.65786 0.13931 0.0
H1223 H 0.08881 0.64842 0.12332 0.0
H1224 H 0.10775 0.64794 0.12345 0.0
H1225 H 0.1226 0.59472 0.13299 0.0
H1226 H 0.10585 0.5852 0.1119 0.0
H1227 H 0.08008 0.62264 0.11733 0.0
C1228 C 0.1163 0.64319 0.16545 0.0
C1229 C 0.12934 0.64035 0.17323 0.0
C1230 C 0.13693 0.62809 0.16867 0.0
C1231 C 0.13143 0.61855 0.15681 0.0
C1232 C 0.11849 0.62161 0.14941 0.0
C1233 C 0.11115 0.63377 0.15333 0.0
C1234 C 0.09783 0.63495 0.14296 0.0
C1235 C 0.08476 0.63501 0.15433 0.0
C1236 C 0.09825 0.64807 0.13158 0.0
C1237 C 0.09873 0.62149 0.13272 0.0
C1238 C 0.11061 0.61383 0.1368 0.0
C1239 C 0.11336 0.60071 0.12953 0.0
C1240 C 0.10378 0.59536 0.11765 0.0
C1241 C 0.0918 0.60327 0.11292 0.0
C1242 C 0.08928 0.61649 0.12056 0.0
H1243 H 0.5976 0.85521 0.33873 0.0
H1244 H 0.58894 0.81389 0.35977 0.0
H1245 H 0.58366 0.82489 0.38732 0.0
H1246 H 0.61296 0.87133 0.37644 0.0
H1247 H 0.60464 0.88814 0.37283 0.0
H1248 H 0.60908 0.87695 0.35524 0.0
H1249 H 0.5832 0.87762 0.34503 0.0
H1250 H 0.5787 0.88882 0.36255 0.0
H1251 H 0.56939 0.87246 0.35928 0.0
H1252 H 0.57893 0.84035 0.41232 0.0
H1253 H 0.57275 0.8593 0.43235 0.0
H1254 H 0.5829 0.8907 0.39451 0.0
C1255 C 0.59479 0.84848 0.34923 0.0
C1256 C 0.59381 0.83371 0.34724 0.0
C1257 C 0.58977 0.82525 0.36109 0.0
C1258 C 0.58684 0.83138 0.37678 0.0
C1259 C 0.58781 0.846 0.37832 0.0
C1260 C 0.59154 0.85447 0.36488 0.0
C1261 C 0.59068 0.86997 0.36952 0.0
C1262 C 0.60521 0.87701 0.36844 0.0
C1263 C 0.57985 0.87767 0.35844 0.0
C1264 C 0.58575 0.86888 0.38761 0.0
C1265 C 0.58442 0.85497 0.39252 0.0
C1266 C 0.57994 0.85129 0.40863 0.0
C1267 C 0.57649 0.86213 0.41993 0.0
C1268 C 0.57732 0.87646 0.41497 0.0
C1269 C 0.58215 0.87984 0.39864 0.0
H1270 H 0.39162 0.35669 0.60365 0.0
H1271 H 0.41705 0.38476 0.63443 0.0
H1272 H 0.40669 0.37442 0.66016 0.0
H1273 H 0.36085 0.35929 0.62858 0.0
H1274 H 0.35567 0.34115 0.62561 0.0
H1275 H 0.36585 0.34998 0.60969 0.0
H1276 H 0.38478 0.33038 0.61141 0.0
H1277 H 0.37462 0.32145 0.62729 0.0
H1278 H 0.39263 0.32622 0.63148 0.0
H1279 H 0.39328 0.36123 0.6825 0.0
H1280 H 0.37708 0.34689 0.69975 0.0
H1281 H 0.35962 0.32837 0.65421 0.0
C1282 C 0.39516 0.36052 0.61581 0.0
C1283 C 0.40522 0.37144 0.61707 0.0
C1284 C 0.40938 0.37637 0.63319 0.0
C1285 C 0.40358 0.37055 0.64786 0.0
C1286 C 0.39356 0.35991 0.64617 0.0
C1287 C 0.38934 0.35498 0.63055 0.0
C1288 C 0.37787 0.34398 0.63216 0.0
C1289 C 0.36426 0.3489 0.6235 0.0
C1290 C 0.38278 0.32966 0.62517 0.0
C1291 C 0.37625 0.34354 0.65112 0.0
C1292 C 0.38549 0.35269 0.65899 0.0
C1293 C 0.38599 0.35404 0.67647 0.0
C1294 C 0.37676 0.34585 0.68616 0.0
C1295 C 0.36706 0.33658 0.67832 0.0
C1296 C 0.36685 0.33544 0.66057 0.0
H1297 H 0.8952 0.082 0.90309 0.0
H1298 H 0.88459 0.10259 0.95029 0.0
H1299 H 0.86973 0.11961 0.93485 0.0
H1300 H 0.89745 0.11408 0.87847 0.0
H1301 H 0.89013 0.1061 0.85978 0.0
H1302 H 0.89984 0.09549 0.87457 0.0
H1303 H 0.87859 0.07854 0.87731 0.0
H1304 H 0.8688 0.08911 0.86256 0.0
H1305 H 0.86167 0.08555 0.88314 0.0
H1306 H 0.85517 0.13369 0.9144 0.0
H1307 H 0.84322 0.14486 0.89019 0.0
H1308 H 0.86432 0.11593 0.85617 0.0
C1309 C 0.88975 0.09009 0.91018 0.0
C1310 C 0.891 0.09094 0.92791 0.0
C1311 C 0.88381 0.10176 0.93671 0.0
C1312 C 0.87531 0.11145 0.92805 0.0
C1313 C 0.87426 0.11029 0.91059 0.0
C1314 C 0.8814 0.09998 0.90172 0.0
C1315 C 0.87867 0.1012 0.88295 0.0
C1316 C 0.89234 0.10441 0.87338 0.0
C1317 C 0.87151 0.0878 0.87609 0.0
C1318 C 0.86877 0.1137 0.88267 0.0
C1319 C 0.86629 0.11873 0.89875 0.0
C1320 C 0.85713 0.12992 0.90174 0.0
C1321 C 0.85036 0.13617 0.88791 0.0
C1322 C 0.85291 0.13133 0.8713 0.0
C1323 C 0.86228 0.11997 0.86871 0.0
H1324 H 0.08677 0.38644 0.84088 0.0
H1325 H 0.10548 0.38663 0.89084 0.0
H1326 H 0.12323 0.36941 0.8813 0.0
H1327 H 0.09247 0.34895 0.83205 0.0
H1328 H 0.09633 0.35203 0.81013 0.0
H1329 H 0.08458 0.36367 0.82123 0.0
H1330 H 0.10005 0.38505 0.81285 0.0
H1331 H 0.11189 0.37348 0.80183 0.0
H1332 H 0.11848 0.38501 0.81812 0.0
H1333 H 0.13982 0.35335 0.86585 0.0
H1334 H 0.15358 0.33897 0.84586 0.0
H1335 H 0.12392 0.34913 0.80605 0.0
C1336 C 0.09448 0.38273 0.84989 0.0
C1337 C 0.09472 0.38787 0.86663 0.0
C1338 C 0.10506 0.38282 0.87797 0.0
C1339 C 0.1152 0.37304 0.87267 0.0
C1340 C 0.1148 0.36837 0.85602 0.0
C1341 C 0.10466 0.37297 0.84483 0.0
C1342 C 0.10682 0.36665 0.82747 0.0
C1343 C 0.09431 0.35726 0.82243 0.0
C1344 C 0.10947 0.37824 0.8143 0.0
C1345 C 0.1199 0.35796 0.83059 0.0
C1346 C 0.12431 0.35906 0.84714 0.0
C1347 C 0.1364 0.35232 0.85289 0.0
C1348 C 0.14417 0.3442 0.84142 0.0
C1349 C 0.13982 0.3429 0.8244 0.0
C1350 C 0.12749 0.34985 0.81899 0.0
H1351 H 0.83814 0.86189 0.16115 0.0
H1352 H 0.81724 0.83733 0.12226 0.0
H1353 H 0.83092 0.84984 0.10045 0.0
H1354 H 0.83845 0.89454 0.13802 0.0
H1355 H 0.85538 0.89998 0.14596 0.0
H1356 H 0.84428 0.88876 0.15851 0.0
H1357 H 0.86435 0.87038 0.1607 0.0
H1358 H 0.8755 0.88153 0.14814 0.0
H1359 H 0.87222 0.86357 0.14171 0.0
H1360 H 0.84741 0.86454 0.08297 0.0
H1361 H 0.8642 0.88165 0.07088 0.0
H1362 H 0.87328 0.89758 0.12106 0.0
C1363 C 0.83649 0.85911 0.14804 0.0
C1364 C 0.82669 0.84859 0.14338 0.0
C1365 C 0.82469 0.84537 0.1261 0.0
C1366 C 0.83244 0.85238 0.11364 0.0
C1367 C 0.84202 0.8627 0.11865 0.0
C1368 C 0.84396 0.86617 0.13543 0.0
C1369 C 0.85456 0.87799 0.13741 0.0
C1370 C 0.84776 0.89109 0.14545 0.0
C1371 C 0.86742 0.87307 0.14759 0.0
C1372 C 0.85832 0.8806 0.11914 0.0
C1373 C 0.85108 0.87156 0.10853 0.0
C1374 C 0.85307 0.87173 0.09114 0.0
C1375 C 0.86265 0.88145 0.0844 0.0
C1376 C 0.86996 0.89099 0.09502 0.0
C1377 C 0.86773 0.89052 0.11261 0.0
H1378 H 0.36165 0.65156 0.31496 0.0
H1379 H 0.33599 0.66232 0.3583 0.0
H1380 H 0.35247 0.64947 0.37683 0.0
H1381 H 0.37021 0.61669 0.328 0.0
H1382 H 0.3879 0.61729 0.31995 0.0
H1383 H 0.37436 0.62779 0.31026 0.0
H1384 H 0.38935 0.65032 0.31493 0.0
H1385 H 0.40292 0.63989 0.32468 0.0
H1386 H 0.39541 0.65464 0.33586 0.0
H1387 H 0.37138 0.63476 0.39049 0.0
H1388 H 0.39111 0.6191 0.39817 0.0
H1389 H 0.4044 0.61816 0.34586 0.0
C1390 C 0.35951 0.65128 0.32836 0.0
C1391 C 0.34753 0.65796 0.33518 0.0
C1392 C 0.3451 0.65729 0.35278 0.0
C1393 C 0.35441 0.65004 0.36341 0.0
C1394 C 0.36611 0.64354 0.35626 0.0
C1395 C 0.36868 0.6441 0.33914 0.0
C1396 C 0.38182 0.63596 0.33455 0.0
C1397 C 0.37836 0.62371 0.32248 0.0
C1398 C 0.39304 0.64579 0.32707 0.0
C1399 C 0.38616 0.63061 0.35175 0.0
C1400 C 0.37701 0.63514 0.36412 0.0
C1401 C 0.37867 0.63122 0.38092 0.0
C1402 C 0.38991 0.62232 0.38516 0.0
C1403 C 0.39933 0.61744 0.37264 0.0
C1404 C 0.39745 0.62179 0.35576 0.0
H1405 H 0.61552 0.1027 0.59162 0.0
H1406 H 0.59332 0.07632 0.62746 0.0
H1407 H 0.60563 0.08829 0.65091 0.0
H1408 H 0.64857 0.10268 0.61367 0.0
H1409 H 0.65268 0.12071 0.6084 0.0
H1410 H 0.64186 0.1103 0.59447 0.0
H1411 H 0.62228 0.12925 0.59606 0.0
H1412 H 0.63303 0.13971 0.61001 0.0
H1413 H 0.61559 0.13457 0.61635 0.0
H1414 H 0.62003 0.10346 0.67049 0.0
H1415 H 0.63641 0.11988 0.68471 0.0
H1416 H 0.64988 0.13568 0.63603 0.0
C1417 C 0.61321 0.09947 0.6044 0.0
C1418 C 0.60341 0.08861 0.60772 0.0
C1419 C 0.60079 0.0846 0.62462 0.0
C1420 C 0.60771 0.09135 0.63802 0.0
C1421 C 0.6173 0.10202 0.63432 0.0
C1422 C 0.62014 0.10599 0.61792 0.0
C1423 C 0.63116 0.11752 0.61735 0.0
C1424 C 0.64435 0.1125 0.60792 0.0
C1425 C 0.62515 0.13106 0.60948 0.0
C1426 C 0.63405 0.11944 0.63598 0.0
C1427 C 0.62588 0.11048 0.64557 0.0
C1428 C 0.62653 0.11049 0.66311 0.0
C1429 C 0.63584 0.11987 0.67107 0.0
C1430 C 0.64446 0.12902 0.66148 0.0
C1431 C 0.6435 0.12876 0.64371 0.0
H1432 H 0.85169 0.35432 0.83925 0.0
H1433 H 0.82876 0.33714 0.88178 0.0
H1434 H 0.84244 0.35232 0.90111 0.0
H1435 H 0.88541 0.35754 0.86 0.0
H1436 H 0.88975 0.37397 0.84983 0.0
H1437 H 0.87847 0.36141 0.83937 0.0
H1438 H 0.85926 0.38059 0.83613 0.0
H1439 H 0.87048 0.39321 0.84655 0.0
H1440 H 0.85309 0.38985 0.85456 0.0
H1441 H 0.85857 0.36942 0.91582 0.0
H1442 H 0.87523 0.38798 0.92473 0.0
H1443 H 0.88721 0.39448 0.87255 0.0
C1444 C 0.84959 0.35369 0.85263 0.0
C1445 C 0.83918 0.3445 0.85901 0.0
C1446 C 0.83667 0.3441 0.8766 0.0
C1447 C 0.84442 0.35266 0.88769 0.0
C1448 C 0.85459 0.36161 0.88099 0.0
C1449 C 0.85714 0.36224 0.86387 0.0
C1450 C 0.86835 0.37309 0.85988 0.0
C1451 C 0.88126 0.36608 0.8518 0.0
C1452 C 0.86244 0.38488 0.84862 0.0
C1453 C 0.87166 0.37849 0.87743 0.0
C1454 C 0.86368 0.37166 0.88944 0.0
C1455 C 0.86487 0.37485 0.90653 0.0
C1456 C 0.87439 0.3854 0.91147 0.0
C1457 C 0.88252 0.39271 0.89935 0.0
C1458 C 0.88114 0.38911 0.88212 0.0
H1459 H 0.34527 0.12701 0.6359 0.0
H1460 H 0.35473 0.10606 0.68319 0.0
H1461 H 0.37038 0.0895 0.66816 0.0
H1462 H 0.34501 0.09592 0.60971 0.0
H1463 H 0.35322 0.10459 0.59209 0.0
H1464 H 0.34256 0.11459 0.60653 0.0
H1465 H 0.36335 0.13171 0.61192 0.0
H1466 H 0.37407 0.12176 0.59749 0.0
H1467 H 0.38002 0.12473 0.61879 0.0
H1468 H 0.38491 0.07516 0.64792 0.0
H1469 H 0.39789 0.0646 0.6241 0.0
H1470 H 0.37932 0.09534 0.59022 0.0
C1471 C 0.35058 0.1189 0.6431 0.0
C1472 C 0.34874 0.11779 0.66071 0.0
C1473 C 0.35598 0.10711 0.66968 0.0
C1474 C 0.36487 0.09764 0.66126 0.0
C1475 C 0.36646 0.09905 0.64389 0.0
C1476 C 0.35956 0.10945 0.63492 0.0
C1477 C 0.36331 0.10889 0.61639 0.0
C1478 C 0.35024 0.10581 0.60555 0.0
C1479 C 0.37063 0.12258 0.61083 0.0
C1480 C 0.37338 0.09654 0.61633 0.0
C1481 C 0.37501 0.09096 0.6323 0.0
C1482 C 0.38374 0.07945 0.63536 0.0
C1483 C 0.39105 0.07351 0.62175 0.0
C1484 C 0.38964 0.07916 0.60531 0.0
C1485 C 0.38066 0.09081 0.60264 0.0
H1486 H 0.65409 0.64232 0.34481 0.0
H1487 H 0.67405 0.66304 0.38746 0.0
H1488 H 0.65842 0.65009 0.40685 0.0
H1489 H 0.61876 0.64194 0.36169 0.0
H1490 H 0.6147 0.62476 0.35316 0.0
H1491 H 0.62715 0.636 0.3426 0.0
H1492 H 0.64586 0.61619 0.3441 0.0
H1493 H 0.63348 0.60489 0.35465 0.0
H1494 H 0.65027 0.60858 0.36423 0.0
H1495 H 0.64082 0.63467 0.42164 0.0
H1496 H 0.62297 0.61739 0.43078 0.0
H1497 H 0.61476 0.60648 0.3785 0.0
C1498 C 0.65513 0.64421 0.35822 0.0
C1499 C 0.66528 0.65373 0.36461 0.0
C1500 C 0.66636 0.6558 0.38226 0.0
C1501 C 0.65751 0.64852 0.39338 0.0
C1502 C 0.64766 0.63918 0.38667 0.0
C1503 C 0.64643 0.63698 0.3695 0.0
C1504 C 0.63523 0.62608 0.36557 0.0
C1505 C 0.62325 0.63259 0.35514 0.0
C1506 C 0.6416 0.61317 0.35661 0.0
C1507 C 0.6304 0.62243 0.38321 0.0
C1508 C 0.63764 0.63017 0.39519 0.0
C1509 C 0.63508 0.62856 0.41236 0.0
C1510 C 0.6249 0.61873 0.41743 0.0
C1511 C 0.61746 0.61057 0.40537 0.0
C1512 C 0.62025 0.61254 0.38804 0.0
H1513 H 0.10315 0.89069 0.09335 0.0
H1514 H 0.06726 0.87149 0.11781 0.0
H1515 H 0.08319 0.85913 0.1376 0.0
H1516 H 0.12431 0.85951 0.09469 0.0
H1517 H 0.14062 0.86884 0.0979 0.0
H1518 H 0.12639 0.87722 0.0868 0.0
H1519 H 0.12718 0.89815 0.10785 0.0
H1520 H 0.14141 0.88982 0.11904 0.0
H1521 H 0.12564 0.89476 0.13012 0.0
H1522 H 0.10299 0.84935 0.15501 0.0
H1523 H 0.12534 0.84017 0.16651 0.0
H1524 H 0.14844 0.86356 0.12866 0.0
C1525 C 0.0987 0.88401 0.10304 0.0
C1526 C 0.08403 0.88215 0.10434 0.0
C1527 C 0.0785 0.87306 0.11678 0.0
C1528 C 0.08745 0.86607 0.12807 0.0
C1529 C 0.10189 0.86806 0.12646 0.0
C1530 C 0.10751 0.8766 0.11407 0.0
C1531 C 0.12343 0.87597 0.11414 0.0
C1532 C 0.12901 0.87003 0.09739 0.0
C1533 C 0.12979 0.89054 0.11802 0.0
C1534 C 0.12588 0.86577 0.12853 0.0
C1535 C 0.11332 0.86157 0.13568 0.0
C1536 C 0.11288 0.85247 0.14944 0.0
C1537 C 0.12561 0.84737 0.15593 0.0
C1538 C 0.13855 0.85111 0.14839 0.0
C1539 C 0.13866 0.86046 0.13455 0.0
H1540 H 0.87912 0.62028 0.09988 0.0
H1541 H 0.85557 0.58172 0.0913 0.0
H1542 H 0.83882 0.58862 0.11372 0.0
H1543 H 0.8757 0.6198 0.1451 0.0
H1544 H 0.87447 0.63872 0.14688 0.0
H1545 H 0.88419 0.63093 0.12979 0.0
H1546 H 0.86903 0.64477 0.10827 0.0
H1547 H 0.85926 0.65261 0.12529 0.0
H1548 H 0.85016 0.64309 0.10887 0.0
H1549 H 0.82397 0.60059 0.13612 0.0
H1550 H 0.81357 0.61545 0.15861 0.0
H1551 H 0.84824 0.6449 0.15403 0.0
C1552 C 0.87039 0.61333 0.10267 0.0
C1553 C 0.8685 0.60055 0.09379 0.0
C1554 C 0.85714 0.59158 0.09798 0.0
C1555 C 0.84758 0.59543 0.11064 0.0
C1556 C 0.84974 0.60813 0.11916 0.0
C1557 C 0.86099 0.61684 0.11551 0.0
C1558 C 0.86132 0.62963 0.12694 0.0
C1559 C 0.87472 0.62977 0.13782 0.0
C1560 C 0.85985 0.64333 0.11673 0.0
C1561 C 0.8484 0.62687 0.1375 0.0
C1562 C 0.84174 0.61452 0.1327 0.0
C1563 C 0.8292 0.61018 0.14013 0.0
C1564 C 0.82335 0.61868 0.15283 0.0
C1565 C 0.83022 0.63117 0.15814 0.0
C1566 C 0.84291 0.63525 0.1504 0.0
H1567 H 0.10175 0.07807 0.8622 0.0
H1568 H 0.07356 0.06953 0.82031 0.0
H1569 H 0.08601 0.08731 0.8032 0.0
H1570 H 0.10515 0.11582 0.85526 0.0
H1571 H 0.12348 0.11615 0.86102 0.0
H1572 H 0.11193 0.10321 0.87019 0.0
H1573 H 0.12834 0.0832 0.8598 0.0
H1574 H 0.13991 0.09606 0.85056 0.0
H1575 H 0.13271 0.08208 0.83774 0.0
H1576 H 0.10195 0.10555 0.79039 0.0
H1577 H 0.12033 0.12281 0.78278 0.0
H1578 H 0.13824 0.11914 0.83296 0.0
C1579 C 0.09811 0.08002 0.84948 0.0
C1580 C 0.08665 0.07244 0.84261 0.0
C1581 C 0.0823 0.07522 0.82586 0.0
C1582 C 0.08929 0.08531 0.81604 0.0
C1583 C 0.10062 0.09251 0.82316 0.0
C1584 C 0.105 0.09 0.83949 0.0
C1585 C 0.11772 0.09886 0.84398 0.0
C1586 C 0.11436 0.10912 0.85847 0.0
C1587 C 0.13042 0.08949 0.84827 0.0
C1588 C 0.11989 0.10666 0.82756 0.0
C1589 C 0.10988 0.1029 0.81573 0.0
C1590 C 0.10983 0.10861 0.79956 0.0
C1591 C 0.12031 0.11839 0.79536 0.0
C1592 C 0.13073 0.12232 0.80726 0.0
C1593 C 0.13043 0.11637 0.82357 0.0
H1594 H 0.6345 0.35941 0.65762 0.0
H1595 H 0.66254 0.34191 0.61991 0.0
H1596 H 0.64982 0.35496 0.59772 0.0
H1597 H 0.60288 0.35884 0.63219 0.0
H1598 H 0.59642 0.37534 0.64043 0.0
H1599 H 0.60745 0.36426 0.65329 0.0
H1600 H 0.62479 0.38506 0.65766 0.0
H1601 H 0.61382 0.39619 0.64483 0.0
H1602 H 0.63208 0.39385 0.63954 0.0
H1603 H 0.63418 0.37007 0.57964 0.0
H1604 H 0.61724 0.38677 0.56712 0.0
H1605 H 0.59971 0.39479 0.6167 0.0
C1606 C 0.63793 0.35826 0.64469 0.0
C1607 C 0.6495 0.3496 0.6405 0.0
C1608 C 0.65371 0.34848 0.62343 0.0
C1609 C 0.64653 0.35582 0.61072 0.0
C1610 C 0.6352 0.36429 0.61529 0.0
C1611 C 0.63094 0.36558 0.63186 0.0
C1612 C 0.61867 0.37568 0.63346 0.0
C1613 C 0.60558 0.36807 0.64024 0.0
C1614 C 0.62258 0.38845 0.64453 0.0
C1615 C 0.61675 0.37992 0.6152 0.0
C1616 C 0.62632 0.37316 0.60492 0.0
C1617 C 0.62663 0.37542 0.58757 0.0
C1618 C 0.61695 0.38492 0.58057 0.0
C1619 C 0.60715 0.39211 0.59091 0.0
C1620 C 0.60706 0.38948 0.60845 0.0
H1621 H 0.34644 0.86048 0.3377 0.0
H1622 H 0.31162 0.88964 0.33275 0.0
H1623 H 0.32236 0.90515 0.35442 0.0
H1624 H 0.3488 0.86353 0.38287 0.0
H1625 H 0.36766 0.86181 0.38339 0.0
H1626 H 0.35771 0.85358 0.36672 0.0
H1627 H 0.37272 0.86678 0.34455 0.0
H1628 H 0.38267 0.8751 0.36115 0.0
H1629 H 0.37401 0.88575 0.34547 0.0
H1630 H 0.33756 0.91793 0.37563 0.0
H1631 H 0.35424 0.92544 0.39791 0.0
H1632 H 0.37764 0.88658 0.39132 0.0
C1633 C 0.34116 0.87018 0.34114 0.0
C1634 C 0.32833 0.87403 0.33349 0.0
C1635 C 0.3215 0.8866 0.3385 0.0
C1636 C 0.32754 0.89547 0.35071 0.0
C1637 C 0.34025 0.89141 0.35801 0.0
C1638 C 0.34683 0.87892 0.35367 0.0
C1639 C 0.35986 0.87652 0.36427 0.0
C1640 C 0.35841 0.86306 0.37495 0.0
C1641 C 0.3731 0.87601 0.3532 0.0
C1642 C 0.35965 0.88965 0.37517 0.0
C1643 C 0.3484 0.89824 0.37113 0.0
C1644 C 0.34632 0.91122 0.37903 0.0
C1645 C 0.35585 0.91543 0.39159 0.0
C1646 C 0.3671 0.90652 0.39635 0.0
C1647 C 0.36901 0.8935 0.38801 0.0
loop_
_geom_bond_atom_site_label_1
_geom_bond_atom_site_label_2
_geom_bond_distance
_geom_bond_site_symmetry_2
_ccdc_geom_bond_type
O0 Cd1 2.300 . S
O0 C7 1.275 . S
Cd1 O0 2.300 . S
Cd1 O9 2.381 . S
Cd1 O10 2.378 . S
O2 Cd3 2.385 . S
O2 C7 1.255 . S
Cd3 O2 2.385 . S
Cd3 O4 2.317 . S
O4 Cd3 2.317 . S
O4 C5 1.232 . S
C5 O4 1.232 . S
C5 O6 1.218 . S
O6 C5 1.218 . S
C7 O0 1.275 . S
C7 O2 1.255 . S
C8 O9 1.258 . S
C8 O10 1.256 . S
O9 Cd1 2.381 . S
O9 C8 1.258 . S
O10 Cd1 2.378 . S
O10 C8 1.256 . S
O11 Cd12 2.300 . S
O11 C18 1.275 . S
Cd12 O11 2.300 . S
Cd12 O20 2.381 . S
Cd12 O21 2.378 . S
O13 Cd14 2.385 . S
O13 C18 1.255 . S
Cd14 O13 2.385 . S
Cd14 O15 2.317 . S
O15 Cd14 2.317 . S
O15 C16 1.232 . S
C16 O15 1.232 . S
C16 O17 1.218 . S
O17 C16 1.218 . S
C18 O11 1.275 . S
C18 O13 1.255 . S
C19 O20 1.258 . S
C19 O21 1.256 . S
O20 Cd12 2.381 . S
O20 C19 1.258 . S
O21 Cd12 2.378 . S
O21 C19 1.256 . S
O22 Cd23 2.300 . S
O22 C29 1.275 . S
Cd23 O22 2.300 . S
Cd23 O31 2.381 . S
Cd23 O32 2.378 . S
O24 Cd25 2.385 . S
O24 C29 1.255 . S
Cd25 O24 2.385 . S
Cd25 O26 2.317 . S
O26 Cd25 2.317 . S
O26 C27 1.232 . S
C27 O26 1.232 . S
C27 O28 1.218 . S
O28 C27 1.218 . S
C29 O22 1.275 . S
C29 O24 1.255 . S
C30 O31 1.258 . S
C30 O32 1.256 . S
O31 Cd23 2.381 . S
O31 C30 1.258 . S
O32 Cd23 2.378 . S
O32 C30 1.256 . S
O33 Cd34 2.300 . S
O33 C40 1.275 . S
Cd34 O33 2.300 . S
Cd34 O42 2.381 . S
Cd34 O43 2.378 . S
O35 Cd36 2.385 . S
O35 C40 1.255 . S
Cd36 O35 2.385 . S
Cd36 O37 2.317 . S
O37 Cd36 2.317 . S
O37 C38 1.232 . S
C38 O37 1.232 . S
C38 O39 1.218 . S
O39 C38 1.218 . S
C40 O33 1.275 . S
C40 O35 1.255 . S
C41 O42 1.258 . S
C41 O43 1.256 . S
O42 Cd34 2.381 . S
O42 C41 1.258 . S
O43 Cd34 2.378 . S
O43 C41 1.256 . S
O44 Cd45 2.300 . S
O44 C51 1.275 . S
Cd45 O44 2.300 . S
Cd45 O53 2.381 . S
Cd45 O54 2.378 . S
O46 Cd47 2.385 . S
O46 C51 1.255 . S
Cd47 O46 2.385 . S
Cd47 O48 2.317 . S
O48 Cd47 2.317 . S
O48 C49 1.232 . S
C49 O48 1.232 . S
C49 O50 1.218 . S
O50 C49 1.218 . S
C51 O44 1.275 . S
C51 O46 1.255 . S
C52 O53 1.258 . S
C52 O54 1.256 . S
O53 Cd45 2.381 . S
O53 C52 1.258 . S
O54 Cd45 2.378 . S
O54 C52 1.256 . S
O55 Cd56 2.300 . S
O55 C62 1.275 . S
Cd56 O55 2.300 . S
Cd56 O64 2.381 . S
Cd56 O65 2.378 . S
O57 Cd58 2.385 . S
O57 C62 1.255 . S
Cd58 O57 2.385 . S
Cd58 O59 2.317 . S
O59 Cd58 2.317 . S
O59 C60 1.232 . S
C60 O59 1.232 . S
C60 O61 1.218 . S
O61 C60 1.218 . S
C62 O55 1.275 . S
C62 O57 1.255 . S
C63 O64 1.258 . S
C63 O65 1.256 . S
O64 Cd56 2.381 . S
O64 C63 1.258 . S
O65 Cd56 2.378 . S
O65 C63 1.256 . S
O66 Cd67 2.300 . S
O66 C73 1.275 . S
Cd67 O66 2.300 . S
Cd67 O75 2.381 . S
Cd67 O76 2.378 . S
O68 Cd69 2.385 . S
O68 C73 1.255 . S
Cd69 O68 2.385 . S
Cd69 O70 2.317 . S
O70 Cd69 2.317 . S
O70 C71 1.232 . S
C71 O70 1.232 . S
C71 O72 1.218 . S
O72 C71 1.218 . S
C73 O66 1.275 . S
C73 O68 1.255 . S
C74 O75 1.258 . S
C74 O76 1.256 . S
O75 Cd67 2.381 . S
O75 C74 1.258 . S
O76 Cd67 2.378 . S
O76 C74 1.256 . S
O77 Cd78 2.300 . S
O77 C84 1.275 . S
Cd78 O77 2.300 . S
Cd78 O86 2.381 . S
Cd78 O87 2.378 . S
O79 Cd80 2.385 . S
O79 C84 1.255 . S
Cd80 O79 2.385 . S
Cd80 O81 2.317 . S
O81 Cd80 2.317 . S
O81 C82 1.232 . S
C82 O81 1.232 . S
C82 O83 1.218 . S
O83 C82 1.218 . S
C84 O77 1.275 . S
C84 O79 1.255 . S
C85 O86 1.258 . S
C85 O87 1.256 . S
O86 Cd78 2.381 . S
O86 C85 1.258 . S
O87 Cd78 2.378 . S
O87 C85 1.256 . S
O88 Cd89 2.300 . S
O88 C95 1.275 . S
Cd89 O88 2.300 . S
Cd89 O97 2.381 . S
Cd89 O98 2.378 . S
O90 Cd91 2.385 . S
O90 C95 1.255 . S
Cd91 O90 2.385 . S
Cd91 O92 2.317 . S
O92 Cd91 2.317 . S
O92 C93 1.232 . S
C93 O92 1.232 . S
C93 O94 1.218 . S
O94 C93 1.218 . S
C95 O88 1.275 . S
C95 O90 1.255 . S
C96 O97 1.258 . S
C96 O98 1.256 . S
O97 Cd89 2.381 . S
O97 C96 1.258 . S
O98 Cd89 2.378 . S
O98 C96 1.256 . S
O99 Cd100 2.300 . S
O99 C106 1.275 . S
Cd100 O99 2.300 . S
Cd100 O108 2.381 . S
Cd100 O109 2.378 . S
O101 Cd102 2.385 . S
O101 C106 1.255 . S
Cd102 O101 2.385 . S
Cd102 O103 2.317 . S
O103 Cd102 2.317 . S
O103 C104 1.232 . S
C104 O103 1.232 . S
C104 O105 1.218 . S
O105 C104 1.218 . S
C106 O99 1.275 . S
C106 O101 1.255 . S
C107 O108 1.258 . S
C107 O109 1.256 . S
O108 Cd100 2.381 . S
O108 C107 1.258 . S
O109 Cd100 2.378 . S
O109 C107 1.256 . S
O110 Cd111 2.300 . S
O110 C117 1.275 . S
Cd111 O110 2.300 . S
Cd111 O119 2.381 . S
Cd111 O120 2.378 . S
O112 Cd113 2.385 . S
O112 C117 1.255 . S
Cd113 O112 2.385 . S
Cd113 O114 2.317 . S
O114 Cd113 2.317 . S
O114 C115 1.232 . S
C115 O114 1.232 . S
C115 O116 1.218 . S
O116 C115 1.218 . S
C117 O110 1.275 . S
C117 O112 1.255 . S
C118 O119 1.258 . S
C118 O120 1.256 . S
O119 Cd111 2.381 . S
O119 C118 1.258 . S
O120 Cd111 2.378 . S
O120 C118 1.256 . S
O121 Cd122 2.300 . S
O121 C128 1.275 . S
Cd122 O121 2.300 . S
Cd122 O130 2.381 . S
Cd122 O131 2.378 . S
O123 Cd124 2.385 . S
O123 C128 1.255 . S
Cd124 O123 2.385 . S
Cd124 O125 2.317 . S
O125 Cd124 2.317 . S
O125 C126 1.232 . S
C126 O125 1.232 . S
C126 O127 1.218 . S
O127 C126 1.218 . S
C128 O121 1.275 . S
C128 O123 1.255 . S
C129 O130 1.258 . S
C129 O131 1.256 . S
O130 Cd122 2.381 . S
O130 C129 1.258 . S
O131 Cd122 2.378 . S
O131 C129 1.256 . S
O132 Cd133 2.300 . S
O132 C139 1.275 . S
Cd133 O132 2.300 . S
Cd133 O141 2.381 . S
Cd133 O142 2.378 . S
O134 Cd135 2.385 . S
O134 C139 1.255 . S
Cd135 O134 2.385 . S
Cd135 O136 2.317 . S
O136 Cd135 2.317 . S
O136 C137 1.232 . S
C137 O136 1.232 . S
C137 O138 1.218 . S
O138 C137 1.218 . S
C139 O132 1.275 . S
C139 O134 1.255 . S
C140 O141 1.258 . S
C140 O142 1.256 . S
O141 Cd133 2.381 . S
O141 C140 1.258 . S
O142 Cd133 2.378 . S
O142 C140 1.256 . S
O143 Cd144 2.300 . S
O143 C150 1.275 . S
Cd144 O143 2.300 . S
Cd144 O152 2.381 . S
Cd144 O153 2.378 . S
O145 Cd146 2.385 . S
O145 C150 1.255 . S
Cd146 O145 2.385 . S
Cd146 O147 2.317 . S
O147 Cd146 2.317 . S
O147 C148 1.232 . S
C148 O147 1.232 . S
C148 O149 1.218 . S
O149 C148 1.218 . S
C150 O143 1.275 . S
C150 O145 1.255 . S
C151 O152 1.258 . S
C151 O153 1.256 . S
O152 Cd144 2.381 . S
O152 C151 1.258 . S
O153 Cd144 2.378 . S
O153 C151 1.256 . S
O154 Cd155 2.300 . S
O154 C161 1.275 . S
Cd155 O154 2.300 . S
Cd155 O163 2.381 . S
Cd155 O164 2.378 . S
O156 Cd157 2.385 . S
O156 C161 1.255 . S
Cd157 O156 2.385 . S
Cd157 O158 2.317 . S
O158 Cd157 2.317 . S
O158 C159 1.232 . S
C159 O158 1.232 . S
C159 O160 1.218 . S
O160 C159 1.218 . S
C161 O154 1.275 . S
C161 O156 1.255 . S
C162 O163 1.258 . S
C162 O164 1.256 . S
O163 Cd155 2.381 . S
O163 C162 1.258 . S
O164 Cd155 2.378 . S
O164 C162 1.256 . S
O165 Cd166 2.300 . S
O165 C172 1.275 . S
Cd166 O165 2.300 . S
Cd166 O174 2.381 . S
Cd166 O175 2.378 . S
O167 Cd168 2.385 . S
O167 C172 1.255 . S
Cd168 O167 2.385 . S
Cd168 O169 2.317 . S
O169 Cd168 2.317 . S
O169 C170 1.232 . S
C170 O169 1.232 . S
C170 O171 1.218 . S
O171 C170 1.218 . S
C172 O165 1.275 . S
C172 O167 1.255 . S
C173 O174 1.258 . S
C173 O175 1.256 . S
O174 Cd166 2.381 . S
O174 C173 1.258 . S
O175 Cd166 2.378 . S
O175 C173 1.256 . S
O176 Cd177 2.300 . S
O176 C183 1.275 . S
Cd177 O176 2.300 . S
Cd177 O185 2.381 . S
Cd177 O186 2.378 . S
O178 Cd179 2.385 . S
O178 C183 1.255 . S
Cd179 O178 2.385 . S
Cd179 O180 2.317 . S
O180 Cd179 2.317 . S
O180 C181 1.232 . S
C181 O180 1.232 . S
C181 O182 1.218 . S
O182 C181 1.218 . S
C183 O176 1.275 . S
C183 O178 1.255 . S
C184 O185 1.258 . S
C184 O186 1.256 . S
O185 Cd177 2.381 . S
O185 C184 1.258 . S
O186 Cd177 2.378 . S
O186 C184 1.256 . S
O187 Cd188 2.300 . S
O187 C194 1.275 . S
Cd188 O187 2.300 . S
Cd188 O196 2.381 . S
Cd188 O197 2.378 . S
O189 Cd190 2.385 . S
O189 C194 1.255 . S
Cd190 O189 2.385 . S
Cd190 O191 2.317 . S
O191 Cd190 2.317 . S
O191 C192 1.232 . S
C192 O191 1.232 . S
C192 O193 1.218 . S
O193 C192 1.218 . S
C194 O187 1.275 . S
C194 O189 1.255 . S
C195 O196 1.258 . S
C195 O197 1.256 . S
O196 Cd188 2.381 . S
O196 C195 1.258 . S
O197 Cd188 2.378 . S
O197 C195 1.256 . S
O198 Cd199 2.300 . S
O198 C205 1.275 . S
Cd199 O198 2.300 . S
Cd199 O207 2.381 . S
Cd199 O208 2.378 . S
O200 Cd201 2.385 . S
O200 C205 1.255 . S
Cd201 O200 2.385 . S
Cd201 O202 2.317 . S
O202 Cd201 2.317 . S
O202 C203 1.232 . S
C203 O202 1.232 . S
C203 O204 1.218 . S
O204 C203 1.218 . S
C205 O198 1.275 . S
C205 O200 1.255 . S
C206 O207 1.258 . S
C206 O208 1.256 . S
O207 Cd199 2.381 . S
O207 C206 1.258 . S
O208 Cd199 2.378 . S
O208 C206 1.256 . S
O209 Cd210 2.300 . S
O209 C216 1.275 . S
Cd210 O209 2.300 . S
Cd210 O218 2.381 . S
Cd210 O219 2.378 . S
O211 Cd212 2.385 . S
O211 C216 1.255 . S
Cd212 O211 2.385 . S
Cd212 O213 2.317 . S
O213 Cd212 2.317 . S
O213 C214 1.232 . S
C214 O213 1.232 . S
C214 O215 1.218 . S
O215 C214 1.218 . S
C216 O209 1.275 . S
C216 O211 1.255 . S
C217 O218 1.258 . S
C217 O219 1.256 . S
O218 Cd210 2.381 . S
O218 C217 1.258 . S
O219 Cd210 2.378 . S
O219 C217 1.256 . S
O220 Cd221 2.300 . S
O220 C227 1.275 . S
Cd221 O220 2.300 . S
Cd221 O229 2.381 . S
Cd221 O230 2.378 . S
O222 Cd223 2.385 . S
O222 C227 1.255 . S
Cd223 O222 2.385 . S
Cd223 O224 2.317 . S
O224 Cd223 2.317 . S
O224 C225 1.232 . S
C225 O224 1.232 . S
C225 O226 1.218 . S
O226 C225 1.218 . S
C227 O220 1.275 . S
C227 O222 1.255 . S
C228 O229 1.258 . S
C228 O230 1.256 . S
O229 Cd221 2.381 . S
O229 C228 1.258 . S
O230 Cd221 2.378 . S
O230 C228 1.256 . S
O231 Cd232 2.300 . S
O231 C238 1.275 . S
Cd232 O231 2.300 . S
Cd232 O240 2.381 . S
Cd232 O241 2.378 . S
O233 Cd234 2.385 . S
O233 C238 1.255 . S
Cd234 O233 2.385 . S
Cd234 O235 2.317 . S
O235 Cd234 2.317 . S
O235 C236 1.232 . S
C236 O235 1.232 . S
C236 O237 1.218 . S
O237 C236 1.218 . S
C238 O231 1.275 . S
C238 O233 1.255 . S
C239 O240 1.258 . S
C239 O241 1.256 . S
O240 Cd232 2.381 . S
O240 C239 1.258 . S
O241 Cd232 2.378 . S
O241 C239 1.256 . S
O242 Cd243 2.300 . S
O242 C249 1.275 . S
Cd243 O242 2.300 . S
Cd243 O251 2.381 . S
Cd243 O252 2.378 . S
O244 Cd245 2.385 . S
O244 C249 1.255 . S
Cd245 O244 2.385 . S
Cd245 O246 2.317 . S
O246 Cd245 2.317 . S
O246 C247 1.232 . S
C247 O246 1.232 . S
C247 O248 1.218 . S
O248 C247 1.218 . S
C249 O242 1.275 . S
C249 O244 1.255 . S
C250 O251 1.258 . S
C250 O252 1.256 . S
O251 Cd243 2.381 . S
O251 C250 1.258 . S
O252 Cd243 2.378 . S
O252 C250 1.256 . S
O253 Cd254 2.300 . S
O253 C260 1.275 . S
Cd254 O253 2.300 . S
Cd254 O262 2.381 . S
Cd254 O263 2.378 . S
O255 Cd256 2.385 . S
O255 C260 1.255 . S
Cd256 O255 2.385 . S
Cd256 O257 2.317 . S
O257 Cd256 2.317 . S
O257 C258 1.232 . S
C258 O257 1.232 . S
C258 O259 1.218 . S
O259 C258 1.218 . S
C260 O253 1.275 . S
C260 O255 1.255 . S
C261 O262 1.258 . S
C261 O263 1.256 . S
O262 Cd254 2.381 . S
O262 C261 1.258 . S
O263 Cd254 2.378 . S
O263 C261 1.256 . S
O264 Cd265 2.300 . S
O264 C271 1.275 . S
Cd265 O264 2.300 . S
Cd265 O273 2.381 . S
Cd265 O274 2.378 . S
O266 Cd267 2.385 . S
O266 C271 1.255 . S
Cd267 O266 2.385 . S
Cd267 O268 2.317 . S
O268 Cd267 2.317 . S
O268 C269 1.232 . S
C269 O268 1.232 . S
C269 O270 1.218 . S
O270 C269 1.218 . S
C271 O264 1.275 . S
C271 O266 1.255 . S
C272 O273 1.258 . S
C272 O274 1.256 . S
O273 Cd265 2.381 . S
O273 C272 1.258 . S
O274 Cd265 2.378 . S
O274 C272 1.256 . S
O275 Cd276 2.300 . S
O275 C282 1.275 . S
Cd276 O275 2.300 . S
Cd276 O284 2.381 . S
Cd276 O285 2.378 . S
O277 Cd278 2.385 . S
O277 C282 1.255 . S
Cd278 O277 2.385 . S
Cd278 O279 2.317 . S
O279 Cd278 2.317 . S
O279 C280 1.232 . S
C280 O279 1.232 . S
C280 O281 1.218 . S
O281 C280 1.218 . S
C282 O275 1.275 . S
C282 O277 1.255 . S
C283 O284 1.258 . S
C283 O285 1.256 . S
O284 Cd276 2.381 . S
O284 C283 1.258 . S
O285 Cd276 2.378 . S
O285 C283 1.256 . S
O286 Cd287 2.300 . S
O286 C293 1.275 . S
Cd287 O286 2.300 . S
Cd287 O295 2.381 . S
Cd287 O296 2.378 . S
O288 Cd289 2.385 . S
O288 C293 1.255 . S
Cd289 O288 2.385 . S
Cd289 O290 2.317 . S
O290 Cd289 2.317 . S
O290 C291 1.232 . S
C291 O290 1.232 . S
C291 O292 1.218 . S
O292 C291 1.218 . S
C293 O286 1.275 . S
C293 O288 1.255 . S
C294 O295 1.258 . S
C294 O296 1.256 . S
O295 Cd287 2.381 . S
O295 C294 1.258 . S
O296 Cd287 2.378 . S
O296 C294 1.256 . S
O297 Cd298 2.300 . S
O297 C304 1.275 . S
Cd298 O297 2.300 . S
Cd298 O306 2.381 . S
Cd298 O307 2.378 . S
O299 Cd300 2.385 . S
O299 C304 1.255 . S
Cd300 O299 2.385 . S
Cd300 O301 2.317 . S
O301 Cd300 2.317 . S
O301 C302 1.232 . S
C302 O301 1.232 . S
C302 O303 1.218 . S
O303 C302 1.218 . S
C304 O297 1.275 . S
C304 O299 1.255 . S
C305 O306 1.258 . S
C305 O307 1.256 . S
O306 Cd298 2.381 . S
O306 C305 1.258 . S
O307 Cd298 2.378 . S
O307 C305 1.256 . S
O308 Cd309 2.300 . S
O308 C315 1.275 . S
Cd309 O308 2.300 . S
Cd309 O317 2.381 . S
Cd309 O318 2.378 . S
O310 Cd311 2.385 . S
O310 C315 1.255 . S
Cd311 O310 2.385 . S
Cd311 O312 2.317 . S
O312 Cd311 2.317 . S
O312 C313 1.232 . S
C313 O312 1.232 . S
C313 O314 1.218 . S
O314 C313 1.218 . S
C315 O308 1.275 . S
C315 O310 1.255 . S
C316 O317 1.258 . S
C316 O318 1.256 . S
O317 Cd309 2.381 . S
O317 C316 1.258 . S
O318 Cd309 2.378 . S
O318 C316 1.256 . S
O319 Cd320 2.300 . S
O319 C326 1.275 . S
Cd320 O319 2.300 . S
Cd320 O328 2.381 . S
Cd320 O329 2.378 . S
O321 Cd322 2.385 . S
O321 C326 1.255 . S
Cd322 O321 2.385 . S
Cd322 O323 2.317 . S
O323 Cd322 2.317 . S
O323 C324 1.232 . S
C324 O323 1.232 . S
C324 O325 1.218 . S
O325 C324 1.218 . S
C326 O319 1.275 . S
C326 O321 1.255 . S
C327 O328 1.258 . S
C327 O329 1.256 . S
O328 Cd320 2.381 . S
O328 C327 1.258 . S
O329 Cd320 2.378 . S
O329 C327 1.256 . S
O330 Cd331 2.300 . S
O330 C337 1.275 . S
Cd331 O330 2.300 . S
Cd331 O339 2.381 . S
Cd331 O340 2.378 . S
O332 Cd333 2.385 . S
O332 C337 1.255 . S
Cd333 O332 2.385 . S
Cd333 O334 2.317 . S
O334 Cd333 2.317 . S
O334 C335 1.232 . S
C335 O334 1.232 . S
C335 O336 1.218 . S
O336 C335 1.218 . S
C337 O330 1.275 . S
C337 O332 1.255 . S
C338 O339 1.258 . S
C338 O340 1.256 . S
O339 Cd331 2.381 . S
O339 C338 1.258 . S
O340 Cd331 2.378 . S
O340 C338 1.256 . S
O341 Cd342 2.300 . S
O341 C348 1.275 . S
Cd342 O341 2.300 . S
Cd342 O350 2.381 . S
Cd342 O351 2.378 . S
O343 Cd344 2.385 . S
O343 C348 1.255 . S
Cd344 O343 2.385 . S
Cd344 O345 2.317 . S
O345 Cd344 2.317 . S
O345 C346 1.232 . S
C346 O345 1.232 . S
C346 O347 1.218 . S
O347 C346 1.218 . S
C348 O341 1.275 . S
C348 O343 1.255 . S
C349 O350 1.258 . S
C349 O351 1.256 . S
O350 Cd342 2.381 . S
O350 C349 1.258 . S
O351 Cd342 2.378 . S
O351 C349 1.256 . S
H352 C364 0.881 1_554 S
H353 C366 0.930 . S
H354 C367 0.930 . S
H355 C371 0.959 . S
H356 C371 0.959 . S
H357 C371 0.961 . S
H358 C372 0.960 . S
H359 C372 0.961 . S
H360 C372 0.959 . S
H361 C375 0.929 . S
H362 C376 0.931 . S
H363 C378 0.930 . S
C364 H352 0.881 1_556 S
C364 C365 1.462 . S
C364 C369 1.388 1_556 S
C365 C364 1.462 . S
C365 C366 1.376 . S
C366 H353 0.930 . S
C366 C365 1.376 . S
C366 C367 1.388 . S
C367 H354 0.930 . S
C367 C366 1.388 . S
C367 C368 1.390 . S
C368 C367 1.390 . S
C368 C369 1.394 1_556 S
C368 C374 1.465 . S
C369 C364 1.388 1_554 S
C369 C368 1.394 1_554 S
C369 C370 1.516 . S
C370 C369 1.516 . S
C370 C371 1.502 . S
C370 C372 1.561 . S
C370 C373 1.526 . S
C371 H355 0.959 . S
C371 H356 0.959 . S
C371 H357 0.961 . S
C371 C370 1.502 . S
C372 H358 0.960 . S
C372 H359 0.961 . S
C372 H360 0.959 . S
C372 C370 1.561 . S
C373 C370 1.526 . S
C373 C374 1.396 1_554 S
C373 C378 1.390 . S
C374 C368 1.465 . S
C374 C373 1.396 1_556 S
C374 C375 1.399 . S
C375 H361 0.929 . S
C375 C374 1.399 . S
C375 C376 1.385 . S
C376 H362 0.931 . S
C376 C375 1.385 . S
C376 C377 1.389 1_556 S
C377 C376 1.389 1_554 S
C377 C378 1.387 . S
C378 H363 0.930 . S
C378 C373 1.390 . S
C378 C377 1.387 . S
H379 C391 0.930 . S
H380 C393 0.930 . S
H381 C394 0.930 . S
H382 C398 0.959 . S
H383 C398 0.959 . S
H384 C398 0.961 . S
H385 C399 0.960 . S
H386 C399 0.961 . S
H387 C399 0.959 . S
H388 C402 0.929 . S
H389 C403 0.931 . S
H390 C405 0.930 . S
C391 H379 0.930 . S
C391 C392 1.399 . S
C391 C396 1.399 . S
C392 C391 1.399 . S
C392 C393 1.376 . S
C393 H380 0.930 . S
C393 C392 1.376 . S
C393 C394 1.388 . S
C394 H381 0.930 . S
C394 C393 1.388 . S
C394 C395 1.390 . S
C395 C394 1.390 . S
C395 C396 1.394 . S
C395 C401 1.465 . S
C396 C391 1.399 . S
C396 C395 1.394 . S
C396 C397 1.516 . S
C397 C396 1.516 . S
C397 C398 1.502 . S
C397 C399 1.561 . S
C397 C400 1.526 . S
C398 H382 0.959 . S
C398 H383 0.959 . S
C398 H384 0.961 . S
C398 C397 1.502 . S
C399 H385 0.960 . S
C399 H386 0.961 . S
C399 H387 0.959 . S
C399 C397 1.561 . S
C400 C397 1.526 . S
C400 C401 1.396 . S
C400 C405 1.390 . S
C401 C395 1.465 . S
C401 C400 1.396 . S
C401 C402 1.399 . S
C402 H388 0.929 . S
C402 C401 1.399 . S
C402 C403 1.385 . S
C403 H389 0.931 . S
C403 C402 1.385 . S
C403 C404 1.389 . S
C404 C403 1.389 . S
C404 C405 1.387 . S
C405 H390 0.930 . S
C405 C400 1.390 . S
C405 C404 1.387 . S
H406 C418 0.930 . S
H407 C420 0.930 . S
H408 C421 0.930 . S
H409 C425 0.959 . S
H410 C425 0.959 . S
H411 C425 0.961 . S
H412 C426 0.960 . S
H413 C426 0.961 . S
H414 C426 0.959 . S
H415 C429 0.929 . S
H416 C430 0.931 . S
H417 C432 0.930 . S
C418 H406 0.930 . S
C418 C419 1.399 . S
C418 C423 1.399 . S
C419 C418 1.399 . S
C419 C420 1.376 . S
C420 H407 0.930 . S
C420 C419 1.376 . S
C420 C421 1.388 . S
C421 H408 0.930 . S
C421 C420 1.388 . S
C421 C422 1.390 . S
C422 C421 1.390 . S
C422 C423 1.394 . S
C422 C428 1.465 . S
C423 C418 1.399 . S
C423 C422 1.394 . S
C423 C424 1.516 . S
C424 C423 1.516 . S
C424 C425 1.502 . S
C424 C426 1.561 . S
C424 C427 1.526 . S
C425 H409 0.959 . S
C425 H410 0.959 . S
C425 H411 0.961 . S
C425 C424 1.502 . S
C426 H412 0.960 . S
C426 H413 0.961 . S
C426 H414 0.959 . S
C426 C424 1.561 . S
C427 C424 1.526 . S
C427 C428 1.396 . S
C427 C432 1.390 . S
C428 C422 1.465 . S
C428 C427 1.396 . S
C428 C429 1.399 . S
C429 H415 0.929 . S
C429 C428 1.399 . S
C429 C430 1.385 . S
C430 H416 0.931 . S
C430 C429 1.385 . S
C430 C431 1.389 . S
C431 C430 1.389 . S
C431 C432 1.387 . S
C432 H417 0.930 . S
C432 C427 1.390 . S
C432 C431 1.387 . S
H433 C445 0.930 . S
H434 C447 0.930 . S
H435 C448 0.930 . S
H436 C452 0.959 . S
H437 C452 0.959 . S
H438 C452 0.961 . S
H439 C453 0.960 . S
H440 C453 0.961 . S
H441 C453 0.959 . S
H442 C456 0.929 . S
H443 C457 0.931 . S
H444 C459 0.930 . S
C445 H433 0.930 . S
C445 C446 1.399 . S
C445 C450 1.399 . S
C446 C445 1.399 . S
C446 C447 1.376 . S
C447 H434 0.930 . S
C447 C446 1.376 . S
C447 C448 1.388 . S
C448 H435 0.930 . S
C448 C447 1.388 . S
C448 C449 1.390 . S
C449 C448 1.390 . S
C449 C450 1.394 . S
C449 C455 1.465 . S
C450 C445 1.399 . S
C450 C449 1.394 . S
C450 C451 1.516 . S
C451 C450 1.516 . S
C451 C452 1.502 . S
C451 C453 1.561 . S
C451 C454 1.526 . S
C452 H436 0.959 . S
C452 H437 0.959 . S
C452 H438 0.961 . S
C452 C451 1.502 . S
C453 H439 0.960 . S
C453 H440 0.961 . S
C453 H441 0.959 . S
C453 C451 1.561 . S
C454 C451 1.526 . S
C454 C455 1.396 . S
C454 C459 1.390 . S
C455 C449 1.465 . S
C455 C454 1.396 . S
C455 C456 1.399 . S
C456 H442 0.929 . S
C456 C455 1.399 . S
C456 C457 1.385 . S
C457 H443 0.931 . S
C457 C456 1.385 . S
C457 C458 1.389 . S
C458 C457 1.389 . S
C458 C459 1.387 . S
C459 H444 0.930 . S
C459 C454 1.390 . S
C459 C458 1.387 . S
H460 C472 0.930 . S
H461 C474 0.930 . S
H462 C475 0.930 . S
H463 C479 0.959 . S
H464 C479 0.959 . S
H465 C479 0.961 . S
H466 C480 0.960 . S
H467 C480 0.961 . S
H468 C480 0.959 . S
H469 C483 0.929 . S
H470 C484 0.931 . S
H471 C486 0.930 1_554 S
C472 H460 0.930 . S
C472 C473 1.399 . S
C472 C477 1.399 . S
C473 C472 1.399 . S
C473 C474 1.376 1_554 S
C474 H461 0.930 . S
C474 C473 1.376 1_556 S
C474 C475 1.388 . S
C475 H462 0.930 . S
C475 C474 1.388 . S
C475 C476 1.390 . S
C476 C475 1.390 . S
C476 C477 1.394 1_556 S
C476 C482 1.465 . S
C477 C472 1.399 . S
C477 C476 1.394 1_554 S
C477 C478 1.516 . S
C478 C477 1.516 . S
C478 C479 1.502 . S
C478 C480 1.561 . S
C478 C481 1.526 . S
C479 H463 0.959 . S
C479 H464 0.959 . S
C479 H465 0.961 . S
C479 C478 1.502 . S
C480 H466 0.960 . S
C480 H467 0.961 . S
C480 H468 0.959 . S
C480 C478 1.561 . S
C481 C478 1.526 . S
C481 C482 1.396 1_554 S
C481 C486 1.390 1_554 S
C482 C476 1.465 . S
C482 C481 1.396 1_556 S
C482 C483 1.399 . S
C483 H469 0.929 . S
C483 C482 1.399 . S
C483 C484 1.385 . S
C484 H470 0.931 . S
C484 C483 1.385 . S
C484 C485 1.389 . S
C485 C484 1.389 . S
C485 C486 1.387 . S
C486 H471 0.930 1_556 S
C486 C481 1.390 1_556 S
C486 C485 1.387 . S
H487 C499 0.930 . S
H488 C501 0.930 . S
H489 C502 0.930 . S
H490 C506 0.959 . S
H491 C506 0.959 . S
H492 C506 0.961 . S
H493 C507 0.960 . S
H494 C507 0.961 . S
H495 C507 0.959 . S
H496 C510 0.929 . S
H497 C511 0.931 . S
H498 C513 0.930 . S
C499 H487 0.930 . S
C499 C500 1.399 . S
C499 C504 1.399 . S
C500 C499 1.399 . S
C500 C501 1.376 . S
C501 H488 0.930 . S
C501 C500 1.376 . S
C501 C502 1.388 . S
C502 H489 0.930 . S
C502 C501 1.388 . S
C502 C503 1.390 . S
C503 C502 1.390 . S
C503 C504 1.394 . S
C503 C509 1.465 . S
C504 C499 1.399 . S
C504 C503 1.394 . S
C504 C505 1.516 . S
C505 C504 1.516 . S
C505 C506 1.502 . S
C505 C507 1.561 . S
C505 C508 1.526 . S
C506 H490 0.959 . S
C506 H491 0.959 . S
C506 H492 0.961 . S
C506 C505 1.502 . S
C507 H493 0.960 . S
C507 H494 0.961 . S
C507 H495 0.959 . S
C507 C505 1.561 . S
C508 C505 1.526 . S
C508 C509 1.396 . S
C508 C513 1.390 . S
C509 C503 1.465 . S
C509 C508 1.396 . S
C509 C510 1.399 . S
C510 H496 0.929 . S
C510 C509 1.399 . S
C510 C511 1.385 . S
C511 H497 0.931 . S
C511 C510 1.385 . S
C511 C512 1.389 . S
C512 C511 1.389 . S
C512 C513 1.387 . S
C513 H498 0.930 . S
C513 C508 1.390 . S
C513 C512 1.387 . S
H514 C526 0.930 . S
H515 C528 0.930 . S
H516 C529 0.930 . S
H517 C533 0.959 . S
H518 C533 0.959 . S
H519 C533 0.961 . S
H520 C534 0.960 . S
H521 C534 0.961 . S
H522 C534 0.959 . S
H523 C537 0.929 . S
H524 C538 0.931 . S
H525 C540 0.930 . S
C526 H514 0.930 . S
C526 C527 1.399 . S
C526 C531 1.399 . S
C527 C526 1.399 . S
C527 C528 1.376 . S
C528 H515 0.930 . S
C528 C527 1.376 . S
C528 C529 1.388 . S
C529 H516 0.930 . S
C529 C528 1.388 . S
C529 C530 1.390 . S
C530 C529 1.390 . S
C530 C531 1.394 . S
C530 C536 1.465 . S
C531 C526 1.399 . S
C531 C530 1.394 . S
C531 C532 1.516 . S
C532 C531 1.516 . S
C532 C533 1.502 . S
C532 C534 1.561 . S
C532 C535 1.526 . S
C533 H517 0.959 . S
C533 H518 0.959 . S
C533 H519 0.961 . S
C533 C532 1.502 . S
C534 H520 0.960 . S
C534 H521 0.961 . S
C534 H522 0.959 . S
C534 C532 1.561 . S
C535 C532 1.526 . S
C535 C536 1.396 . S
C535 C540 1.390 . S
C536 C530 1.465 . S
C536 C535 1.396 . S
C536 C537 1.399 . S
C537 H523 0.929 . S
C537 C536 1.399 . S
C537 C538 1.385 . S
C538 H524 0.931 . S
C538 C537 1.385 . S
C538 C539 1.389 . S
C539 C538 1.389 . S
C539 C540 1.387 . S
C540 H525 0.930 . S
C540 C535 1.390 . S
C540 C539 1.387 . S
H541 C553 0.930 . S
H542 C555 0.930 . S
H543 C556 0.930 . S
H544 C560 0.959 . S
H545 C560 0.959 . S
H546 C560 0.961 . S
H547 C561 0.960 . S
H548 C561 0.961 . S
H549 C561 0.959 . S
H550 C564 0.929 . S
H551 C565 0.931 . S
H552 C567 0.930 . S
C553 H541 0.930 . S
C553 C554 1.399 . S
C553 C558 1.399 . S
C554 C553 1.399 . S
C554 C555 1.376 . S
C555 H542 0.930 . S
C555 C554 1.376 . S
C555 C556 1.388 . S
C556 H543 0.930 . S
C556 C555 1.388 . S
C556 C557 1.390 . S
C557 C556 1.390 . S
C557 C558 1.394 . S
C557 C563 1.465 . S
C558 C553 1.399 . S
C558 C557 1.394 . S
C558 C559 1.516 . S
C559 C558 1.516 . S
C559 C560 1.502 . S
C559 C561 1.561 . S
C559 C562 1.526 . S
C560 H544 0.959 . S
C560 H545 0.959 . S
C560 H546 0.961 . S
C560 C559 1.502 . S
C561 H547 0.960 . S
C561 H548 0.961 . S
C561 H549 0.959 . S
C561 C559 1.561 . S
C562 C559 1.526 . S
C562 C563 1.396 . S
C562 C567 1.390 . S
C563 C557 1.465 . S
C563 C562 1.396 . S
C563 C564 1.399 . S
C564 H550 0.929 . S
C564 C563 1.399 . S
C564 C565 1.385 . S
C565 H551 0.931 . S
C565 C564 1.385 . S
C565 C566 1.389 . S
C566 C565 1.389 . S
C566 C567 1.387 . S
C567 H552 0.930 . S
C567 C562 1.390 . S
C567 C566 1.387 . S
H568 C580 0.930 . S
H569 C582 0.930 . S
H570 C583 0.930 . S
H571 C587 0.959 . S
H572 C587 0.959 . S
H573 C587 0.961 . S
H574 C588 0.960 . S
H575 C588 0.961 . S
H576 C588 0.959 . S
H577 C591 0.929 . S
H578 C592 0.931 . S
H579 C594 0.930 . S
C580 H568 0.930 . S
C580 C581 1.399 . S
C580 C585 1.399 . S
C581 C580 1.399 . S
C581 C582 1.376 . S
C582 H569 0.930 . S
C582 C581 1.376 . S
C582 C583 1.388 . S
C583 H570 0.930 . S
C583 C582 1.388 . S
C583 C584 1.390 . S
C584 C583 1.390 . S
C584 C585 1.394 . S
C584 C590 1.465 1_545 S
C585 C580 1.399 . S
C585 C584 1.394 . S
C585 C586 1.516 1_545 S
C586 C585 1.516 1_565 S
C586 C587 1.502 . S
C586 C588 1.561 . S
C586 C589 1.526 . S
C587 H571 0.959 . S
C587 H572 0.959 . S
C587 H573 0.961 . S
C587 C586 1.502 . S
C588 H574 0.960 . S
C588 H575 0.961 . S
C588 H576 0.959 . S
C588 C586 1.561 . S
C589 C586 1.526 . S
C589 C590 1.396 . S
C589 C594 1.390 . S
C590 C584 1.465 1_565 S
C590 C589 1.396 . S
C590 C591 1.399 . S
C591 H577 0.929 . S
C591 C590 1.399 . S
C591 C592 1.385 . S
C592 H578 0.931 . S
C592 C591 1.385 . S
C592 C593 1.389 . S
C593 C592 1.389 . S
C593 C594 1.387 . S
C594 H579 0.930 . S
C594 C589 1.390 . S
C594 C593 1.387 . S
H595 C607 0.930 . S
H596 C609 0.930 . S
H597 C610 0.930 . S
H598 C614 0.959 . S
H599 C614 0.959 . S
H600 C614 0.961 . S
H601 C615 0.960 . S
H602 C615 0.961 . S
H603 C615 0.959 . S
H604 C618 0.929 . S
H605 C619 0.931 . S
H606 C621 0.930 . S
C607 H595 0.930 . S
C607 C608 1.399 . S
C607 C612 1.399 . S
C608 C607 1.399 . S
C608 C609 1.376 . S
C609 H596 0.930 . S
C609 C608 1.376 . S
C609 C610 1.388 . S
C610 H597 0.930 . S
C610 C609 1.388 . S
C610 C611 1.390 . S
C611 C610 1.390 . S
C611 C612 1.394 . S
C611 C617 1.465 . S
C612 C607 1.399 . S
C612 C611 1.394 . S
C612 C613 1.516 . S
C613 C612 1.516 . S
C613 C614 1.502 . S
C613 C615 1.561 . S
C613 C616 1.526 . S
C614 H598 0.959 . S
C614 H599 0.959 . S
C614 H600 0.961 . S
C614 C613 1.502 . S
C615 H601 0.960 . S
C615 H602 0.961 . S
C615 H603 0.959 . S
C615 C613 1.561 . S
C616 C613 1.526 . S
C616 C617 1.396 . S
C616 C621 1.390 . S
C617 C611 1.465 . S
C617 C616 1.396 . S
C617 C618 1.399 . S
C618 H604 0.929 . S
C618 C617 1.399 . S
C618 C619 1.385 . S
C619 H605 0.931 . S
C619 C618 1.385 . S
C619 C620 1.389 . S
C620 C619 1.389 . S
C620 C621 1.387 . S
C621 H606 0.930 . S
C621 C616 1.390 . S
C621 C620 1.387 . S
H622 C634 0.930 . S
H623 C636 0.930 . S
H624 C637 0.930 . S
H625 C641 0.959 . S
H626 C641 0.959 1_545 S
H627 C641 0.961 . S
H628 C642 0.960 1_565 S
H629 C642 0.961 . S
H630 C642 0.959 . S
H631 C645 0.929 . S
H632 C646 0.931 . S
H633 C648 0.930 . S
C634 H622 0.930 . S
C634 C635 1.399 . S
C634 C639 1.399 . S
C635 C634 1.399 . S
C635 C636 1.376 . S
C636 H623 0.930 . S
C636 C635 1.376 . S
C636 C637 1.388 . S
C637 H624 0.930 . S
C637 C636 1.388 . S
C637 C638 1.390 . S
C638 C637 1.390 . S
C638 C639 1.394 . S
C638 C644 1.446 1_564 S
C639 C634 1.399 . S
C639 C638 1.394 . S
C639 C640 1.507 1_554 S
C640 C639 1.507 1_556 S
C640 C641 1.533 . S
C640 C642 1.531 1_566 S
C640 C643 1.533 1_565 S
C641 H625 0.959 . S
C641 H626 0.959 1_565 S
C641 H627 0.961 . S
C641 C640 1.533 . S
C642 H628 0.960 1_545 S
C642 H629 0.961 . S
C642 H630 0.959 . S
C642 C640 1.531 1_544 S
C643 C640 1.533 1_545 S
C643 C644 1.410 . S
C643 C648 1.390 . S
C644 C638 1.446 1_546 S
C644 C643 1.410 . S
C644 C645 1.407 . S
C645 H631 0.929 . S
C645 C644 1.407 . S
C645 C646 1.385 . S
C646 H632 0.931 . S
C646 C645 1.385 . S
C646 C647 1.389 . S
C647 C646 1.389 . S
C647 C648 1.387 . S
C648 H633 0.930 . S
C648 C643 1.390 . S
C648 C647 1.387 . S
H649 C661 0.930 . S
H650 C663 0.930 . S
H651 C664 0.930 . S
H652 C668 0.959 . S
H653 C668 0.959 . S
H654 C668 0.961 . S
H655 C669 0.960 . S
H656 C669 0.961 . S
H657 C669 0.959 . S
H658 C672 0.929 . S
H659 C673 0.931 . S
H660 C675 0.930 . S
C661 H649 0.930 . S
C661 C662 1.399 . S
C661 C666 1.399 . S
C662 C661 1.399 . S
C662 C663 1.376 . S
C663 H650 0.930 . S
C663 C662 1.376 . S
C663 C664 1.388 . S
C664 H651 0.930 . S
C664 C663 1.388 . S
C664 C665 1.390 . S
C665 C664 1.390 . S
C665 C666 1.394 . S
C665 C671 1.465 . S
C666 C661 1.399 . S
C666 C665 1.394 . S
C666 C667 1.516 . S
C667 C666 1.516 . S
C667 C668 1.502 . S
C667 C669 1.561 . S
C667 C670 1.526 . S
C668 H652 0.959 . S
C668 H653 0.959 . S
C668 H654 0.961 . S
C668 C667 1.502 . S
C669 H655 0.960 . S
C669 H656 0.961 . S
C669 H657 0.959 . S
C669 C667 1.561 . S
C670 C667 1.526 . S
C670 C671 1.396 . S
C670 C675 1.390 . S
C671 C665 1.465 . S
C671 C670 1.396 . S
C671 C672 1.399 . S
C672 H658 0.929 . S
C672 C671 1.399 . S
C672 C673 1.385 . S
C673 H659 0.931 . S
C673 C672 1.385 . S
C673 C674 1.389 . S
C674 C673 1.389 . S
C674 C675 1.387 . S
C675 H660 0.930 . S
C675 C670 1.390 . S
C675 C674 1.387 . S
H676 C688 0.930 . S
H677 C690 0.930 . S
H678 C691 0.930 . S
H679 C695 0.959 . S
H680 C695 0.959 . S
H681 C695 0.961 1_565 S
H682 C696 0.960 . S
H683 C696 0.961 1_545 S
H684 C696 0.959 . S
H685 C699 0.929 . S
H686 C700 0.931 . S
H687 C702 0.930 . S
C688 H676 0.930 . S
C688 C689 1.399 . S
C688 C693 1.399 . S
C689 C688 1.399 . S
C689 C690 1.376 . S
C690 H677 0.930 . S
C690 C689 1.376 . S
C690 C691 1.388 . S
C691 H678 0.930 . S
C691 C690 1.388 . S
C691 C692 1.390 . S
C692 C691 1.390 . S
C692 C693 1.394 . S
C692 C698 1.465 1_565 S
C693 C688 1.399 . S
C693 C692 1.394 . S
C693 C694 1.544 . S
C694 C693 1.544 . S
C694 C695 1.491 1_565 S
C694 C696 1.574 . S
C694 C697 1.497 1_565 S
C695 H679 0.959 . S
C695 H680 0.959 . S
C695 H681 0.961 1_545 S
C695 C694 1.491 1_545 S
C696 H682 0.960 . S
C696 H683 0.961 1_565 S
C696 H684 0.959 . S
C696 C694 1.574 . S
C697 C694 1.497 1_545 S
C697 C698 1.396 . S
C697 C702 1.390 . S
C698 C692 1.465 1_545 S
C698 C697 1.396 . S
C698 C699 1.399 . S
C699 H685 0.929 . S
C699 C698 1.399 . S
C699 C700 1.385 . S
C700 H686 0.931 . S
C700 C699 1.385 . S
C700 C701 1.389 . S
C701 C700 1.389 . S
C701 C702 1.387 . S
C702 H687 0.930 . S
C702 C697 1.390 . S
C702 C701 1.387 . S
H703 C715 0.930 . S
H704 C717 0.930 . S
H705 C718 0.930 . S
H706 C722 0.959 . S
H707 C722 0.959 . S
H708 C722 0.961 . S
H709 C723 0.960 . S
H710 C723 0.961 . S
H711 C723 0.959 . S
H712 C726 0.929 . S
H713 C727 0.931 . S
H714 C729 0.930 . S
C715 H703 0.930 . S
C715 C716 1.399 . S
C715 C720 1.399 . S
C716 C715 1.399 . S
C716 C717 1.376 . S
C717 H704 0.930 . S
C717 C716 1.376 . S
C717 C718 1.388 . S
C718 H705 0.930 . S
C718 C717 1.388 . S
C718 C719 1.390 . S
C719 C718 1.390 . S
C719 C720 1.394 . S
C719 C725 1.465 . S
C720 C715 1.399 . S
C720 C719 1.394 . S
C720 C721 1.516 . S
C721 C720 1.516 . S
C721 C722 1.502 . S
C721 C723 1.561 . S
C721 C724 1.526 . S
C722 H706 0.959 . S
C722 H707 0.959 . S
C722 H708 0.961 . S
C722 C721 1.502 . S
C723 H709 0.960 . S
C723 H710 0.961 . S
C723 H711 0.959 . S
C723 C721 1.561 . S
C724 C721 1.526 . S
C724 C725 1.396 . S
C724 C729 1.390 . S
C725 C719 1.465 . S
C725 C724 1.396 . S
C725 C726 1.399 . S
C726 H712 0.929 . S
C726 C725 1.399 . S
C726 C727 1.385 . S
C727 H713 0.931 . S
C727 C726 1.385 . S
C727 C728 1.389 . S
C728 C727 1.389 . S
C728 C729 1.387 . S
C729 H714 0.930 . S
C729 C724 1.390 . S
C729 C728 1.387 . S
H730 C742 0.930 . S
H731 C744 0.930 . S
H732 C745 0.930 . S
H733 C749 0.959 . S
H734 C749 0.959 . S
H735 C749 0.961 . S
H736 C750 0.960 . S
H737 C750 0.961 . S
H738 C750 0.959 . S
H739 C753 0.929 . S
H740 C754 0.931 . S
H741 C756 0.930 1_556 S
C742 H730 0.930 . S
C742 C743 1.399 . S
C742 C747 1.399 . S
C743 C742 1.399 . S
C743 C744 1.376 1_556 S
C744 H731 0.930 . S
C744 C743 1.376 1_554 S
C744 C745 1.388 . S
C745 H732 0.930 . S
C745 C744 1.388 . S
C745 C746 1.390 . S
C746 C745 1.390 . S
C746 C747 1.394 1_554 S
C746 C752 1.465 1_545 S
C747 C742 1.399 . S
C747 C746 1.394 1_556 S
C747 C748 1.516 1_545 S
C748 C747 1.516 1_565 S
C748 C749 1.502 . S
C748 C750 1.561 . S
C748 C751 1.526 . S
C749 H733 0.959 . S
C749 H734 0.959 . S
C749 H735 0.961 . S
C749 C748 1.502 . S
C750 H736 0.960 . S
C750 H737 0.961 . S
C750 H738 0.959 . S
C750 C748 1.561 . S
C751 C748 1.526 . S
C751 C752 1.396 1_556 S
C751 C756 1.390 1_556 S
C752 C746 1.465 1_565 S
C752 C751 1.396 1_554 S
C752 C753 1.399 . S
C753 H739 0.929 . S
C753 C752 1.399 . S
C753 C754 1.385 . S
C754 H740 0.931 . S
C754 C753 1.385 . S
C754 C755 1.389 . S
C755 C754 1.389 . S
C755 C756 1.387 . S
C756 H741 0.930 1_554 S
C756 C751 1.390 1_554 S
C756 C755 1.387 . S
H757 C769 0.930 . S
H758 C771 0.930 . S
H759 C772 0.930 . S
H760 C776 0.959 . S
H761 C776 0.959 . S
H762 C776 0.961 . S
H763 C777 0.960 . S
H764 C777 0.961 . S
H765 C777 0.959 . S
H766 C780 0.929 . S
H767 C781 0.931 . S
H768 C783 0.930 . S
C769 H757 0.930 . S
C769 C770 1.399 . S
C769 C774 1.399 . S
C770 C769 1.399 . S
C770 C771 1.376 . S
C771 H758 0.930 . S
C771 C770 1.376 . S
C771 C772 1.388 . S
C772 H759 0.930 . S
C772 C771 1.388 . S
C772 C773 1.390 . S
C773 C772 1.390 . S
C773 C774 1.394 . S
C773 C779 1.465 . S
C774 C769 1.399 . S
C774 C773 1.394 . S
C774 C775 1.516 . S
C775 C774 1.516 . S
C775 C776 1.502 . S
C775 C777 1.561 . S
C775 C778 1.526 . S
C776 H760 0.959 . S
C776 H761 0.959 . S
C776 H762 0.961 . S
C776 C775 1.502 . S
C777 H763 0.960 . S
C777 H764 0.961 . S
C777 H765 0.959 . S
C777 C775 1.561 . S
C778 C775 1.526 . S
C778 C779 1.396 . S
C778 C783 1.390 . S
C779 C773 1.465 . S
C779 C778 1.396 . S
C779 C780 1.399 . S
C780 H766 0.929 . S
C780 C779 1.399 . S
C780 C781 1.385 . S
C781 H767 0.931 . S
C781 C780 1.385 . S
C781 C782 1.389 . S
C782 C781 1.389 . S
C782 C783 1.387 . S
C783 H768 0.930 . S
C783 C778 1.390 . S
C783 C782 1.387 . S
H784 C796 0.930 . S
H785 C798 0.930 . S
H786 C799 0.930 . S
H787 C803 0.962 . S
H788 C803 0.976 . S
H789 C803 0.943 1_655 S
H790 C804 0.961 1_655 S
H791 C804 0.960 . S
H792 C804 0.955 . S
H793 C807 0.929 . S
H794 C808 0.931 . S
H795 C810 0.930 . S
C796 H784 0.930 . S
C796 C797 1.399 . S
C796 C801 1.399 . S
C797 C796 1.399 . S
C797 C798 1.376 . S
C798 H785 0.930 . S
C798 C797 1.376 . S
C798 C799 1.388 . S
C799 H786 0.930 . S
C799 C798 1.388 . S
C799 C800 1.390 . S
C800 C799 1.390 . S
C800 C801 1.394 . S
C800 C806 1.465 1_655 S
C801 C796 1.399 . S
C801 C800 1.394 . S
C801 C802 1.520 1_655 S
C802 C801 1.520 1_455 S
C802 C803 1.502 . S
C802 C804 1.561 . S
C802 C805 1.522 . S
C803 H787 0.962 . S
C803 H788 0.976 . S
C803 H789 0.943 1_455 S
C803 C802 1.502 . S
C804 H790 0.961 1_455 S
C804 H791 0.960 . S
C804 H792 0.955 . S
C804 C802 1.561 . S
C805 C802 1.522 . S
C805 C806 1.396 . S
C805 C810 1.390 . S
C806 C800 1.465 1_455 S
C806 C805 1.396 . S
C806 C807 1.399 . S
C807 H793 0.929 . S
C807 C806 1.399 . S
C807 C808 1.385 . S
C808 H794 0.931 . S
C808 C807 1.385 . S
C808 C809 1.389 . S
C809 C808 1.389 . S
C809 C810 1.387 . S
C810 H795 0.930 . S
C810 C805 1.390 . S
C810 C809 1.387 . S
H811 C823 0.930 . S
H812 C825 0.930 . S
H813 C826 0.930 . S
H814 C830 0.959 . S
H815 C830 0.959 . S
H816 C830 0.961 . S
H817 C831 0.960 . S
H818 C831 0.961 . S
H819 C831 0.959 . S
H820 C834 0.929 . S
H821 C835 0.931 . S
H822 C837 0.930 . S
C823 H811 0.930 . S
C823 C824 1.399 . S
C823 C828 1.399 . S
C824 C823 1.399 . S
C824 C825 1.376 . S
C825 H812 0.930 . S
C825 C824 1.376 . S
C825 C826 1.388 . S
C826 H813 0.930 . S
C826 C825 1.388 . S
C826 C827 1.390 . S
C827 C826 1.390 . S
C827 C828 1.394 . S
C827 C833 1.465 . S
C828 C823 1.399 . S
C828 C827 1.394 . S
C828 C829 1.516 . S
C829 C828 1.516 . S
C829 C830 1.502 . S
C829 C831 1.561 . S
C829 C832 1.526 . S
C830 H814 0.959 . S
C830 H815 0.959 . S
C830 H816 0.961 . S
C830 C829 1.502 . S
C831 H817 0.960 . S
C831 H818 0.961 . S
C831 H819 0.959 . S
C831 C829 1.561 . S
C832 C829 1.526 . S
C832 C833 1.396 . S
C832 C837 1.390 . S
C833 C827 1.465 . S
C833 C832 1.396 . S
C833 C834 1.399 . S
C834 H820 0.929 . S
C834 C833 1.399 . S
C834 C835 1.385 . S
C835 H821 0.931 . S
C835 C834 1.385 . S
C835 C836 1.389 . S
C836 C835 1.389 . S
C836 C837 1.387 . S
C837 H822 0.930 . S
C837 C832 1.390 . S
C837 C836 1.387 . S
H838 C850 0.930 . S
H839 C852 0.930 . S
H840 C853 0.930 . S
H841 C857 0.959 . S
H842 C857 0.959 . S
H843 C857 0.961 . S
H844 C858 0.960 . S
H845 C858 0.961 . S
H846 C858 0.959 . S
H847 C861 0.929 . S
H848 C862 0.931 . S
H849 C864 0.930 . S
C850 H838 0.930 . S
C850 C851 1.399 . S
C850 C855 1.399 . S
C851 C850 1.399 . S
C851 C852 1.376 . S
C852 H839 0.930 . S
C852 C851 1.376 . S
C852 C853 1.388 . S
C853 H840 0.930 . S
C853 C852 1.388 . S
C853 C854 1.390 . S
C854 C853 1.390 . S
C854 C855 1.394 . S
C854 C860 1.465 . S
C855 C850 1.399 . S
C855 C854 1.394 . S
C855 C856 1.516 . S
C856 C855 1.516 . S
C856 C857 1.502 . S
C856 C858 1.561 . S
C856 C859 1.526 . S
C857 H841 0.959 . S
C857 H842 0.959 . S
C857 H843 0.961 . S
C857 C856 1.502 . S
C858 H844 0.960 . S
C858 H845 0.961 . S
C858 H846 0.959 . S
C858 C856 1.561 . S
C859 C856 1.526 . S
C859 C860 1.396 . S
C859 C864 1.390 . S
C860 C854 1.465 . S
C860 C859 1.396 . S
C860 C861 1.399 . S
C861 H847 0.929 . S
C861 C860 1.399 . S
C861 C862 1.385 . S
C862 H848 0.931 . S
C862 C861 1.385 . S
C862 C863 1.389 . S
C863 C862 1.389 . S
C863 C864 1.387 . S
C864 H849 0.930 . S
C864 C859 1.390 . S
C864 C863 1.387 . S
H865 C877 0.930 . S
H866 C879 0.930 . S
H867 C880 0.930 . S
H868 C884 0.959 . S
H869 C884 0.959 . S
H870 C884 0.961 . S
H871 C885 0.960 . S
H872 C885 0.961 . S
H873 C885 0.959 . S
H874 C888 0.929 . S
H875 C889 0.931 . S
H876 C891 0.930 . S
C877 H865 0.930 . S
C877 C878 1.399 . S
C877 C882 1.399 . S
C878 C877 1.399 . S
C878 C879 1.376 . S
C879 H866 0.930 . S
C879 C878 1.376 . S
C879 C880 1.388 . S
C880 H867 0.930 . S
C880 C879 1.388 . S
C880 C881 1.390 . S
C881 C880 1.390 . S
C881 C882 1.394 . S
C881 C887 1.465 . S
C882 C877 1.399 . S
C882 C881 1.394 . S
C882 C883 1.516 . S
C883 C882 1.516 . S
C883 C884 1.502 . S
C883 C885 1.561 . S
C883 C886 1.526 . S
C884 H868 0.959 . S
C884 H869 0.959 . S
C884 H870 0.961 . S
C884 C883 1.502 . S
C885 H871 0.960 . S
C885 H872 0.961 . S
C885 H873 0.959 . S
C885 C883 1.561 . S
C886 C883 1.526 . S
C886 C887 1.396 . S
C886 C891 1.390 . S
C887 C881 1.465 . S
C887 C886 1.396 . S
C887 C888 1.399 . S
C888 H874 0.929 . S
C888 C887 1.399 . S
C888 C889 1.385 . S
C889 H875 0.931 . S
C889 C888 1.385 . S
C889 C890 1.389 . S
C890 C889 1.389 . S
C890 C891 1.387 . S
C891 H876 0.930 . S
C891 C886 1.390 . S
C891 C890 1.387 . S
H892 C904 0.930 . S
H893 C906 0.930 . S
H894 C907 0.930 . S
H895 C911 0.961 . S
H896 C911 0.976 . S
H897 C911 0.943 1_655 S
H898 C912 0.961 1_655 S
H899 C912 0.960 . S
H900 C912 0.955 . S
H901 C915 0.929 . S
H902 C916 0.931 . S
H903 C918 0.930 . S
C904 H892 0.930 . S
C904 C905 1.399 . S
C904 C909 1.399 . S
C905 C904 1.399 . S
C905 C906 1.376 . S
C906 H893 0.930 . S
C906 C905 1.376 . S
C906 C907 1.388 . S
C907 H894 0.930 . S
C907 C906 1.388 . S
C907 C908 1.390 . S
C908 C907 1.390 . S
C908 C909 1.394 . S
C908 C914 1.465 1_655 S
C909 C904 1.399 . S
C909 C908 1.394 . S
C909 C910 1.520 1_655 S
C910 C909 1.520 1_455 S
C910 C911 1.502 . S
C910 C912 1.561 . S
C910 C913 1.522 . S
C911 H895 0.961 . S
C911 H896 0.976 . S
C911 H897 0.943 1_455 S
C911 C910 1.502 . S
C912 H898 0.961 1_455 S
C912 H899 0.960 . S
C912 H900 0.955 . S
C912 C910 1.561 . S
C913 C910 1.522 . S
C913 C914 1.396 . S
C913 C918 1.390 . S
C914 C908 1.465 1_455 S
C914 C913 1.396 . S
C914 C915 1.399 . S
C915 H901 0.929 . S
C915 C914 1.399 . S
C915 C916 1.385 . S
C916 H902 0.931 . S
C916 C915 1.385 . S
C916 C917 1.389 . S
C917 C916 1.389 . S
C917 C918 1.387 . S
C918 H903 0.930 . S
C918 C913 1.390 . S
C918 C917 1.387 . S
H919 C931 0.930 . S
H920 C933 0.930 . S
H921 C934 0.930 . S
H922 C938 0.959 . S
H923 C938 0.959 . S
H924 C938 0.961 . S
H925 C939 0.960 . S
H926 C939 0.961 . S
H927 C939 0.959 . S
H928 C942 0.929 . S
H929 C943 0.931 . S
H930 C945 0.930 . S
C931 H919 0.930 . S
C931 C932 1.399 . S
C931 C936 1.399 . S
C932 C931 1.399 . S
C932 C933 1.376 . S
C933 H920 0.930 . S
C933 C932 1.376 . S
C933 C934 1.388 . S
C934 H921 0.930 . S
C934 C933 1.388 . S
C934 C935 1.390 . S
C935 C934 1.390 . S
C935 C936 1.394 . S
C935 C941 1.465 . S
C936 C931 1.399 . S
C936 C935 1.394 . S
C936 C937 1.516 . S
C937 C936 1.516 . S
C937 C938 1.502 . S
C937 C939 1.561 . S
C937 C940 1.526 . S
C938 H922 0.959 . S
C938 H923 0.959 . S
C938 H924 0.961 . S
C938 C937 1.502 . S
C939 H925 0.960 . S
C939 H926 0.961 . S
C939 H927 0.959 . S
C939 C937 1.561 . S
C940 C937 1.526 . S
C940 C941 1.396 . S
C940 C945 1.390 . S
C941 C935 1.465 . S
C941 C940 1.396 . S
C941 C942 1.399 . S
C942 H928 0.929 . S
C942 C941 1.399 . S
C942 C943 1.385 . S
C943 H929 0.931 . S
C943 C942 1.385 . S
C943 C944 1.389 . S
C944 C943 1.389 . S
C944 C945 1.387 . S
C945 H930 0.930 . S
C945 C940 1.390 . S
C945 C944 1.387 . S
H946 C958 0.930 . S
H947 C960 0.930 . S
H948 C961 0.930 . S
H949 C965 0.959 . S
H950 C965 0.959 . S
H951 C965 0.961 . S
H952 C966 0.960 . S
H953 C966 0.961 . S
H954 C966 0.959 . S
H955 C969 0.929 . S
H956 C970 0.931 . S
H957 C972 0.930 . S
C958 H946 0.930 . S
C958 C959 1.399 . S
C958 C963 1.399 . S
C959 C958 1.399 . S
C959 C960 1.376 . S
C960 H947 0.930 . S
C960 C959 1.376 . S
C960 C961 1.388 . S
C961 H948 0.930 . S
C961 C960 1.388 . S
C961 C962 1.390 . S
C962 C961 1.390 . S
C962 C963 1.394 . S
C962 C968 1.465 . S
C963 C958 1.399 . S
C963 C962 1.394 . S
C963 C964 1.516 . S
C964 C963 1.516 . S
C964 C965 1.502 . S
C964 C966 1.561 . S
C964 C967 1.526 . S
C965 H949 0.959 . S
C965 H950 0.959 . S
C965 H951 0.961 . S
C965 C964 1.502 . S
C966 H952 0.960 . S
C966 H953 0.961 . S
C966 H954 0.959 . S
C966 C964 1.561 . S
C967 C964 1.526 . S
C967 C968 1.396 . S
C967 C972 1.390 . S
C968 C962 1.465 . S
C968 C967 1.396 . S
C968 C969 1.399 . S
C969 H955 0.929 . S
C969 C968 1.399 . S
C969 C970 1.385 . S
C970 H956 0.931 . S
C970 C969 1.385 . S
C970 C971 1.389 . S
C971 C970 1.389 . S
C971 C972 1.387 . S
C972 H957 0.930 . S
C972 C967 1.390 . S
C972 C971 1.387 . S
H973 C985 0.930 . S
H974 C987 0.930 . S
H975 C988 0.930 . S
H976 C992 0.959 . S
H977 C992 0.959 . S
H978 C992 0.961 . S
H979 C993 0.960 . S
H980 C993 0.961 . S
H981 C993 0.959 . S
H982 C996 0.929 . S
H983 C997 0.931 . S
H984 C999 0.930 . S
C985 H973 0.930 . S
C985 C986 1.399 . S
C985 C990 1.399 . S
C986 C985 1.399 . S
C986 C987 1.376 . S
C987 H974 0.930 . S
C987 C986 1.376 . S
C987 C988 1.388 . S
C988 H975 0.930 . S
C988 C987 1.388 . S
C988 C989 1.390 . S
C989 C988 1.390 . S
C989 C990 1.394 . S
C989 C995 1.465 . S
C990 C985 1.399 . S
C990 C989 1.394 . S
C990 C991 1.516 . S
C991 C990 1.516 . S
C991 C992 1.502 . S
C991 C993 1.561 . S
C991 C994 1.526 . S
C992 H976 0.959 . S
C992 H977 0.959 . S
C992 H978 0.961 . S
C992 C991 1.502 . S
C993 H979 0.960 . S
C993 H980 0.961 . S
C993 H981 0.959 . S
C993 C991 1.561 . S
C994 C991 1.526 . S
C994 C995 1.396 . S
C994 C999 1.390 . S
C995 C989 1.465 . S
C995 C994 1.396 . S
C995 C996 1.399 . S
C996 H982 0.929 . S
C996 C995 1.399 . S
C996 C997 1.385 . S
C997 H983 0.931 . S
C997 C996 1.385 . S
C997 C998 1.389 . S
C998 C997 1.389 . S
C998 C999 1.387 . S
C999 H984 0.930 . S
C999 C994 1.390 . S
C999 C998 1.387 . S
H1000 C1012 0.930 . S
H1001 C1014 0.930 . S
H1002 C1015 0.930 . S
H1003 C1019 0.959 . S
H1004 C1019 0.959 . S
H1005 C1019 0.961 . S
H1006 C1020 0.960 . S
H1007 C1020 0.961 . S
H1008 C1020 0.959 . S
H1009 C1023 0.929 . S
H1010 C1024 0.931 . S
H1011 C1026 0.930 . S
C1012 H1000 0.930 . S
C1012 C1013 1.399 . S
C1012 C1017 1.399 . S
C1013 C1012 1.399 . S
C1013 C1014 1.376 . S
C1014 H1001 0.930 . S
C1014 C1013 1.376 . S
C1014 C1015 1.388 . S
C1015 H1002 0.930 . S
C1015 C1014 1.388 . S
C1015 C1016 1.390 . S
C1016 C1015 1.390 . S
C1016 C1017 1.394 . S
C1016 C1022 1.465 . S
C1017 C1012 1.399 . S
C1017 C1016 1.394 . S
C1017 C1018 1.516 . S
C1018 C1017 1.516 . S
C1018 C1019 1.502 . S
C1018 C1020 1.561 . S
C1018 C1021 1.526 . S
C1019 H1003 0.959 . S
C1019 H1004 0.959 . S
C1019 H1005 0.961 . S
C1019 C1018 1.502 . S
C1020 H1006 0.960 . S
C1020 H1007 0.961 . S
C1020 H1008 0.959 . S
C1020 C1018 1.561 . S
C1021 C1018 1.526 . S
C1021 C1022 1.396 . S
C1021 C1026 1.390 . S
C1022 C1016 1.465 . S
C1022 C1021 1.396 . S
C1022 C1023 1.399 . S
C1023 H1009 0.929 . S
C1023 C1022 1.399 . S
C1023 C1024 1.385 . S
C1024 H1010 0.931 . S
C1024 C1023 1.385 . S
C1024 C1025 1.389 . S
C1025 C1024 1.389 . S
C1025 C1026 1.387 . S
C1026 H1011 0.930 . S
C1026 C1021 1.390 . S
C1026 C1025 1.387 . S
H1027 C1039 0.930 . S
H1028 C1041 0.930 . S
H1029 C1042 0.930 . S
H1030 C1046 0.959 . S
H1031 C1046 0.959 . S
H1032 C1046 0.961 . S
H1033 C1047 0.960 . S
H1034 C1047 0.961 . S
H1035 C1047 0.959 . S
H1036 C1050 0.929 . S
H1037 C1051 0.931 . S
H1038 C1053 0.930 . S
C1039 H1027 0.930 . S
C1039 C1040 1.399 . S
C1039 C1044 1.399 . S
C1040 C1039 1.399 . S
C1040 C1041 1.376 . S
C1041 H1028 0.930 . S
C1041 C1040 1.376 . S
C1041 C1042 1.388 . S
C1042 H1029 0.930 . S
C1042 C1041 1.388 . S
C1042 C1043 1.390 . S
C1043 C1042 1.390 . S
C1043 C1044 1.394 . S
C1043 C1049 1.465 . S
C1044 C1039 1.399 . S
C1044 C1043 1.394 . S
C1044 C1045 1.516 . S
C1045 C1044 1.516 . S
C1045 C1046 1.502 . S
C1045 C1047 1.561 . S
C1045 C1048 1.526 . S
C1046 H1030 0.959 . S
C1046 H1031 0.959 . S
C1046 H1032 0.961 . S
C1046 C1045 1.502 . S
C1047 H1033 0.960 . S
C1047 H1034 0.961 . S
C1047 H1035 0.959 . S
C1047 C1045 1.561 . S
C1048 C1045 1.526 . S
C1048 C1049 1.396 . S
C1048 C1053 1.390 . S
C1049 C1043 1.465 . S
C1049 C1048 1.396 . S
C1049 C1050 1.399 . S
C1050 H1036 0.929 . S
C1050 C1049 1.399 . S
C1050 C1051 1.385 . S
C1051 H1037 0.931 . S
C1051 C1050 1.385 . S
C1051 C1052 1.389 . S
C1052 C1051 1.389 . S
C1052 C1053 1.387 . S
C1053 H1038 0.930 . S
C1053 C1048 1.390 . S
C1053 C1052 1.387 . S
H1054 C1066 0.930 . S
H1055 C1068 0.930 . S
H1056 C1069 0.930 . S
H1057 C1073 0.959 . S
H1058 C1073 0.959 . S
H1059 C1073 0.961 . S
H1060 C1074 0.960 . S
H1061 C1074 0.961 . S
H1062 C1074 0.959 . S
H1063 C1077 0.929 . S
H1064 C1078 0.931 . S
H1065 C1080 0.930 . S
C1066 H1054 0.930 . S
C1066 C1067 1.399 . S
C1066 C1071 1.399 . S
C1067 C1066 1.399 . S
C1067 C1068 1.376 . S
C1068 H1055 0.930 . S
C1068 C1067 1.376 . S
C1068 C1069 1.388 . S
C1069 H1056 0.930 . S
C1069 C1068 1.388 . S
C1069 C1070 1.390 . S
C1070 C1069 1.390 . S
C1070 C1071 1.394 . S
C1070 C1076 1.465 . S
C1071 C1066 1.399 . S
C1071 C1070 1.394 . S
C1071 C1072 1.516 . S
C1072 C1071 1.516 . S
C1072 C1073 1.502 . S
C1072 C1074 1.561 . S
C1072 C1075 1.526 . S
C1073 H1057 0.959 . S
C1073 H1058 0.959 . S
C1073 H1059 0.961 . S
C1073 C1072 1.502 . S
C1074 H1060 0.960 . S
C1074 H1061 0.961 . S
C1074 H1062 0.959 . S
C1074 C1072 1.561 . S
C1075 C1072 1.526 . S
C1075 C1076 1.396 . S
C1075 C1080 1.390 . S
C1076 C1070 1.465 . S
C1076 C1075 1.396 . S
C1076 C1077 1.399 . S
C1077 H1063 0.929 . S
C1077 C1076 1.399 . S
C1077 C1078 1.385 . S
C1078 H1064 0.931 . S
C1078 C1077 1.385 . S
C1078 C1079 1.389 . S
C1079 C1078 1.389 . S
C1079 C1080 1.387 . S
C1080 H1065 0.930 . S
C1080 C1075 1.390 . S
C1080 C1079 1.387 . S
H1081 C1093 0.930 . S
H1082 C1095 0.930 . S
H1083 C1096 0.930 . S
H1084 C1100 0.959 . S
H1085 C1100 0.959 . S
H1086 C1100 0.961 . S
H1087 C1101 0.960 . S
H1088 C1101 0.961 . S
H1089 C1101 0.959 . S
H1090 C1104 0.929 . S
H1091 C1105 0.931 . S
H1092 C1107 0.930 . S
C1093 H1081 0.930 . S
C1093 C1094 1.399 . S
C1093 C1098 1.399 . S
C1094 C1093 1.399 . S
C1094 C1095 1.376 . S
C1095 H1082 0.930 . S
C1095 C1094 1.376 . S
C1095 C1096 1.388 . S
C1096 H1083 0.930 . S
C1096 C1095 1.388 . S
C1096 C1097 1.390 . S
C1097 C1096 1.390 . S
C1097 C1098 1.394 . S
C1097 C1103 1.465 . S
C1098 C1093 1.399 . S
C1098 C1097 1.394 . S
C1098 C1099 1.516 . S
C1099 C1098 1.516 . S
C1099 C1100 1.502 . S
C1099 C1101 1.561 . S
C1099 C1102 1.526 . S
C1100 H1084 0.959 . S
C1100 H1085 0.959 . S
C1100 H1086 0.961 . S
C1100 C1099 1.502 . S
C1101 H1087 0.960 . S
C1101 H1088 0.961 . S
C1101 H1089 0.959 . S
C1101 C1099 1.561 . S
C1102 C1099 1.526 . S
C1102 C1103 1.396 . S
C1102 C1107 1.390 . S
C1103 C1097 1.465 . S
C1103 C1102 1.396 . S
C1103 C1104 1.399 . S
C1104 H1090 0.929 . S
C1104 C1103 1.399 . S
C1104 C1105 1.385 . S
C1105 H1091 0.931 . S
C1105 C1104 1.385 . S
C1105 C1106 1.389 . S
C1106 C1105 1.389 . S
C1106 C1107 1.387 . S
C1107 H1092 0.930 . S
C1107 C1102 1.390 . S
C1107 C1106 1.387 . S
H1108 C1120 0.930 . S
H1109 C1122 0.930 . S
H1110 C1123 0.930 . S
H1111 C1127 0.959 . S
H1112 C1127 0.959 . S
H1113 C1127 0.961 . S
H1114 C1128 0.960 . S
H1115 C1128 0.961 . S
H1116 C1128 0.959 . S
H1117 C1131 0.929 . S
H1118 C1132 0.931 . S
H1119 C1134 0.930 . S
C1120 H1108 0.930 . S
C1120 C1121 1.399 . S
C1120 C1125 1.399 . S
C1121 C1120 1.399 . S
C1121 C1122 1.376 . S
C1122 H1109 0.930 . S
C1122 C1121 1.376 . S
C1122 C1123 1.388 . S
C1123 H1110 0.930 . S
C1123 C1122 1.388 . S
C1123 C1124 1.390 . S
C1124 C1123 1.390 . S
C1124 C1125 1.394 . S
C1124 C1130 1.465 . S
C1125 C1120 1.399 . S
C1125 C1124 1.394 . S
C1125 C1126 1.516 . S
C1126 C1125 1.516 . S
C1126 C1127 1.502 . S
C1126 C1128 1.561 . S
C1126 C1129 1.526 . S
C1127 H1111 0.959 . S
C1127 H1112 0.959 . S
C1127 H1113 0.961 . S
C1127 C1126 1.502 . S
C1128 H1114 0.960 . S
C1128 H1115 0.961 . S
C1128 H1116 0.959 . S
C1128 C1126 1.561 . S
C1129 C1126 1.526 . S
C1129 C1130 1.396 . S
C1129 C1134 1.390 . S
C1130 C1124 1.465 . S
C1130 C1129 1.396 . S
C1130 C1131 1.399 . S
C1131 H1117 0.929 . S
C1131 C1130 1.399 . S
C1131 C1132 1.385 . S
C1132 H1118 0.931 . S
C1132 C1131 1.385 . S
C1132 C1133 1.389 . S
C1133 C1132 1.389 . S
C1133 C1134 1.387 . S
C1134 H1119 0.930 . S
C1134 C1129 1.390 . S
C1134 C1133 1.387 . S
H1135 C1147 0.930 . S
H1136 C1149 0.930 . S
H1137 C1150 0.930 . S
H1138 C1154 0.962 . S
H1139 C1154 0.976 . S
H1140 C1154 0.943 1_455 S
H1141 C1155 0.961 1_455 S
H1142 C1155 0.960 . S
H1143 C1155 0.955 . S
H1144 C1158 0.929 . S
H1145 C1159 0.931 . S
H1146 C1161 0.930 . S
C1147 H1135 0.930 . S
C1147 C1148 1.399 . S
C1147 C1152 1.399 . S
C1148 C1147 1.399 . S
C1148 C1149 1.376 . S
C1149 H1136 0.930 . S
C1149 C1148 1.376 . S
C1149 C1150 1.388 . S
C1150 H1137 0.930 . S
C1150 C1149 1.388 . S
C1150 C1151 1.390 . S
C1151 C1150 1.390 . S
C1151 C1152 1.394 . S
C1151 C1157 1.465 1_455 S
C1152 C1147 1.399 . S
C1152 C1151 1.394 . S
C1152 C1153 1.520 1_455 S
C1153 C1152 1.520 1_655 S
C1153 C1154 1.502 . S
C1153 C1155 1.561 . S
C1153 C1156 1.522 . S
C1154 H1138 0.962 . S
C1154 H1139 0.976 . S
C1154 H1140 0.943 1_655 S
C1154 C1153 1.502 . S
C1155 H1141 0.961 1_655 S
C1155 H1142 0.960 . S
C1155 H1143 0.955 . S
C1155 C1153 1.561 . S
C1156 C1153 1.522 . S
C1156 C1157 1.396 . S
C1156 C1161 1.390 . S
C1157 C1151 1.465 1_655 S
C1157 C1156 1.396 . S
C1157 C1158 1.399 . S
C1158 H1144 0.929 . S
C1158 C1157 1.399 . S
C1158 C1159 1.385 . S
C1159 H1145 0.931 . S
C1159 C1158 1.385 . S
C1159 C1160 1.389 . S
C1160 C1159 1.389 . S
C1160 C1161 1.387 . S
C1161 H1146 0.930 . S
C1161 C1156 1.390 . S
C1161 C1160 1.387 . S
H1162 C1174 0.930 . S
H1163 C1176 0.930 . S
H1164 C1177 0.930 . S
H1165 C1181 0.959 . S
H1166 C1181 0.959 . S
H1167 C1181 0.961 . S
H1168 C1182 0.960 . S
H1169 C1182 0.961 . S
H1170 C1182 0.959 . S
H1171 C1185 0.929 . S
H1172 C1186 0.931 . S
H1173 C1188 0.930 . S
C1174 H1162 0.930 . S
C1174 C1175 1.399 . S
C1174 C1179 1.399 . S
C1175 C1174 1.399 . S
C1175 C1176 1.376 . S
C1176 H1163 0.930 . S
C1176 C1175 1.376 . S
C1176 C1177 1.388 . S
C1177 H1164 0.930 . S
C1177 C1176 1.388 . S
C1177 C1178 1.390 . S
C1178 C1177 1.390 . S
C1178 C1179 1.394 . S
C1178 C1184 1.465 . S
C1179 C1174 1.399 . S
C1179 C1178 1.394 . S
C1179 C1180 1.516 . S
C1180 C1179 1.516 . S
C1180 C1181 1.502 . S
C1180 C1182 1.561 . S
C1180 C1183 1.526 . S
C1181 H1165 0.959 . S
C1181 H1166 0.959 . S
C1181 H1167 0.961 . S
C1181 C1180 1.502 . S
C1182 H1168 0.960 . S
C1182 H1169 0.961 . S
C1182 H1170 0.959 . S
C1182 C1180 1.561 . S
C1183 C1180 1.526 . S
C1183 C1184 1.396 . S
C1183 C1188 1.390 . S
C1184 C1178 1.465 . S
C1184 C1183 1.396 . S
C1184 C1185 1.399 . S
C1185 H1171 0.929 . S
C1185 C1184 1.399 . S
C1185 C1186 1.385 . S
C1186 H1172 0.931 . S
C1186 C1185 1.385 . S
C1186 C1187 1.389 . S
C1187 C1186 1.389 . S
C1187 C1188 1.387 . S
C1188 H1173 0.930 . S
C1188 C1183 1.390 . S
C1188 C1187 1.387 . S
H1189 C1201 0.930 . S
H1190 C1203 0.930 . S
H1191 C1204 0.930 . S
H1192 C1208 0.962 . S
H1193 C1208 0.976 . S
H1194 C1208 0.943 1_455 S
H1195 C1209 0.961 1_455 S
H1196 C1209 0.960 . S
H1197 C1209 0.955 . S
H1198 C1212 0.929 . S
H1199 C1213 0.931 . S
H1200 C1215 0.930 . S
C1201 H1189 0.930 . S
C1201 C1202 1.399 . S
C1201 C1206 1.399 . S
C1202 C1201 1.399 . S
C1202 C1203 1.376 . S
C1203 H1190 0.930 . S
C1203 C1202 1.376 . S
C1203 C1204 1.388 . S
C1204 H1191 0.930 . S
C1204 C1203 1.388 . S
C1204 C1205 1.390 . S
C1205 C1204 1.390 . S
C1205 C1206 1.394 . S
C1205 C1211 1.465 1_455 S
C1206 C1201 1.399 . S
C1206 C1205 1.394 . S
C1206 C1207 1.520 1_455 S
C1207 C1206 1.520 1_655 S
C1207 C1208 1.502 . S
C1207 C1209 1.561 . S
C1207 C1210 1.522 . S
C1208 H1192 0.962 . S
C1208 H1193 0.976 . S
C1208 H1194 0.943 1_655 S
C1208 C1207 1.502 . S
C1209 H1195 0.961 1_655 S
C1209 H1196 0.960 . S
C1209 H1197 0.955 . S
C1209 C1207 1.561 . S
C1210 C1207 1.522 . S
C1210 C1211 1.396 . S
C1210 C1215 1.390 . S
C1211 C1205 1.465 1_655 S
C1211 C1210 1.396 . S
C1211 C1212 1.399 . S
C1212 H1198 0.929 . S
C1212 C1211 1.399 . S
C1212 C1213 1.385 . S
C1213 H1199 0.931 . S
C1213 C1212 1.385 . S
C1213 C1214 1.389 . S
C1214 C1213 1.389 . S
C1214 C1215 1.387 . S
C1215 H1200 0.930 . S
C1215 C1210 1.390 . S
C1215 C1214 1.387 . S
H1216 C1228 0.930 . S
H1217 C1230 0.930 . S
H1218 C1231 0.930 . S
H1219 C1235 0.959 . S
H1220 C1235 0.959 . S
H1221 C1235 0.961 . S
H1222 C1236 0.960 . S
H1223 C1236 0.961 . S
H1224 C1236 0.959 . S
H1225 C1239 0.929 . S
H1226 C1240 0.931 . S
H1227 C1242 0.930 . S
C1228 H1216 0.930 . S
C1228 C1229 1.399 . S
C1228 C1233 1.399 . S
C1229 C1228 1.399 . S
C1229 C1230 1.376 . S
C1230 H1217 0.930 . S
C1230 C1229 1.376 . S
C1230 C1231 1.388 . S
C1231 H1218 0.930 . S
C1231 C1230 1.388 . S
C1231 C1232 1.390 . S
C1232 C1231 1.390 . S
C1232 C1233 1.394 . S
C1232 C1238 1.465 . S
C1233 C1228 1.399 . S
C1233 C1232 1.394 . S
C1233 C1234 1.516 . S
C1234 C1233 1.516 . S
C1234 C1235 1.502 . S
C1234 C1236 1.561 . S
C1234 C1237 1.526 . S
C1235 H1219 0.959 . S
C1235 H1220 0.959 . S
C1235 H1221 0.961 . S
C1235 C1234 1.502 . S
C1236 H1222 0.960 . S
C1236 H1223 0.961 . S
C1236 H1224 0.959 . S
C1236 C1234 1.561 . S
C1237 C1234 1.526 . S
C1237 C1238 1.396 . S
C1237 C1242 1.390 . S
C1238 C1232 1.465 . S
C1238 C1237 1.396 . S
C1238 C1239 1.399 . S
C1239 H1225 0.929 . S
C1239 C1238 1.399 . S
C1239 C1240 1.385 . S
C1240 H1226 0.931 . S
C1240 C1239 1.385 . S
C1240 C1241 1.389 . S
C1241 C1240 1.389 . S
C1241 C1242 1.387 . S
C1242 H1227 0.930 . S
C1242 C1237 1.390 . S
C1242 C1241 1.387 . S
H1243 C1255 0.930 . S
H1244 C1257 0.930 . S
H1245 C1258 0.930 . S
H1246 C1262 0.959 . S
H1247 C1262 0.959 . S
H1248 C1262 0.961 . S
H1249 C1263 0.960 . S
H1250 C1263 0.961 . S
H1251 C1263 0.959 . S
H1252 C1266 0.929 . S
H1253 C1267 0.931 . S
H1254 C1269 0.930 . S
C1255 H1243 0.930 . S
C1255 C1256 1.399 . S
C1255 C1260 1.399 . S
C1256 C1255 1.399 . S
C1256 C1257 1.376 . S
C1257 H1244 0.930 . S
C1257 C1256 1.376 . S
C1257 C1258 1.388 . S
C1258 H1245 0.930 . S
C1258 C1257 1.388 . S
C1258 C1259 1.390 . S
C1259 C1258 1.390 . S
C1259 C1260 1.394 . S
C1259 C1265 1.465 . S
C1260 C1255 1.399 . S
C1260 C1259 1.394 . S
C1260 C1261 1.516 . S
C1261 C1260 1.516 . S
C1261 C1262 1.502 . S
C1261 C1263 1.561 . S
C1261 C1264 1.526 . S
C1262 H1246 0.959 . S
C1262 H1247 0.959 . S
C1262 H1248 0.961 . S
C1262 C1261 1.502 . S
C1263 H1249 0.960 . S
C1263 H1250 0.961 . S
C1263 H1251 0.959 . S
C1263 C1261 1.561 . S
C1264 C1261 1.526 . S
C1264 C1265 1.396 . S
C1264 C1269 1.390 . S
C1265 C1259 1.465 . S
C1265 C1264 1.396 . S
C1265 C1266 1.399 . S
C1266 H1252 0.929 . S
C1266 C1265 1.399 . S
C1266 C1267 1.385 . S
C1267 H1253 0.931 . S
C1267 C1266 1.385 . S
C1267 C1268 1.389 . S
C1268 C1267 1.389 . S
C1268 C1269 1.387 . S
C1269 H1254 0.930 . S
C1269 C1264 1.390 . S
C1269 C1268 1.387 . S
H1270 C1282 0.930 . S
H1271 C1284 0.930 . S
H1272 C1285 0.930 . S
H1273 C1289 0.959 . S
H1274 C1289 0.959 . S
H1275 C1289 0.961 . S
H1276 C1290 0.960 . S
H1277 C1290 0.961 . S
H1278 C1290 0.959 . S
H1279 C1293 0.929 . S
H1280 C1294 0.931 . S
H1281 C1296 0.930 . S
C1282 H1270 0.930 . S
C1282 C1283 1.399 . S
C1282 C1287 1.399 . S
C1283 C1282 1.399 . S
C1283 C1284 1.376 . S
C1284 H1271 0.930 . S
C1284 C1283 1.376 . S
C1284 C1285 1.388 . S
C1285 H1272 0.930 . S
C1285 C1284 1.388 . S
C1285 C1286 1.390 . S
C1286 C1285 1.390 . S
C1286 C1287 1.394 . S
C1286 C1292 1.465 . S
C1287 C1282 1.399 . S
C1287 C1286 1.394 . S
C1287 C1288 1.516 . S
C1288 C1287 1.516 . S
C1288 C1289 1.502 . S
C1288 C1290 1.561 . S
C1288 C1291 1.526 . S
C1289 H1273 0.959 . S
C1289 H1274 0.959 . S
C1289 H1275 0.961 . S
C1289 C1288 1.502 . S
C1290 H1276 0.960 . S
C1290 H1277 0.961 . S
C1290 H1278 0.959 . S
C1290 C1288 1.561 . S
C1291 C1288 1.526 . S
C1291 C1292 1.396 . S
C1291 C1296 1.390 . S
C1292 C1286 1.465 . S
C1292 C1291 1.396 . S
C1292 C1293 1.399 . S
C1293 H1279 0.929 . S
C1293 C1292 1.399 . S
C1293 C1294 1.385 . S
C1294 H1280 0.931 . S
C1294 C1293 1.385 . S
C1294 C1295 1.389 . S
C1295 C1294 1.389 . S
C1295 C1296 1.387 . S
C1296 H1281 0.930 . S
C1296 C1291 1.390 . S
C1296 C1295 1.387 . S
H1297 C1309 0.930 . S
H1298 C1311 0.930 . S
H1299 C1312 0.930 . S
H1300 C1316 0.959 . S
H1301 C1316 0.959 . S
H1302 C1316 0.961 . S
H1303 C1317 0.960 . S
H1304 C1317 0.961 . S
H1305 C1317 0.959 . S
H1306 C1320 0.929 . S
H1307 C1321 0.931 . S
H1308 C1323 0.930 . S
C1309 H1297 0.930 . S
C1309 C1310 1.399 . S
C1309 C1314 1.399 . S
C1310 C1309 1.399 . S
C1310 C1311 1.376 . S
C1311 H1298 0.930 . S
C1311 C1310 1.376 . S
C1311 C1312 1.388 . S
C1312 H1299 0.930 . S
C1312 C1311 1.388 . S
C1312 C1313 1.390 . S
C1313 C1312 1.390 . S
C1313 C1314 1.394 . S
C1313 C1319 1.465 . S
C1314 C1309 1.399 . S
C1314 C1313 1.394 . S
C1314 C1315 1.516 . S
C1315 C1314 1.516 . S
C1315 C1316 1.502 . S
C1315 C1317 1.561 . S
C1315 C1318 1.526 . S
C1316 H1300 0.959 . S
C1316 H1301 0.959 . S
C1316 H1302 0.961 . S
C1316 C1315 1.502 . S
C1317 H1303 0.960 . S
C1317 H1304 0.961 . S
C1317 H1305 0.959 . S
C1317 C1315 1.561 . S
C1318 C1315 1.526 . S
C1318 C1319 1.396 . S
C1318 C1323 1.390 . S
C1319 C1313 1.465 . S
C1319 C1318 1.396 . S
C1319 C1320 1.399 . S
C1320 H1306 0.929 . S
C1320 C1319 1.399 . S
C1320 C1321 1.385 . S
C1321 H1307 0.931 . S
C1321 C1320 1.385 . S
C1321 C1322 1.389 . S
C1322 C1321 1.389 . S
C1322 C1323 1.387 . S
C1323 H1308 0.930 . S
C1323 C1318 1.390 . S
C1323 C1322 1.387 . S
H1324 C1336 0.930 . S
H1325 C1338 0.930 . S
H1326 C1339 0.930 . S
H1327 C1343 0.959 . S
H1328 C1343 0.959 . S
H1329 C1343 0.961 . S
H1330 C1344 0.960 . S
H1331 C1344 0.961 . S
H1332 C1344 0.959 . S
H1333 C1347 0.929 . S
H1334 C1348 0.931 . S
H1335 C1350 0.930 . S
C1336 H1324 0.930 . S
C1336 C1337 1.399 . S
C1336 C1341 1.399 . S
C1337 C1336 1.399 . S
C1337 C1338 1.376 . S
C1338 H1325 0.930 . S
C1338 C1337 1.376 . S
C1338 C1339 1.388 . S
C1339 H1326 0.930 . S
C1339 C1338 1.388 . S
C1339 C1340 1.390 . S
C1340 C1339 1.390 . S
C1340 C1341 1.394 . S
C1340 C1346 1.465 . S
C1341 C1336 1.399 . S
C1341 C1340 1.394 . S
C1341 C1342 1.516 . S
C1342 C1341 1.516 . S
C1342 C1343 1.502 . S
C1342 C1344 1.561 . S
C1342 C1345 1.526 . S
C1343 H1327 0.959 . S
C1343 H1328 0.959 . S
C1343 H1329 0.961 . S
C1343 C1342 1.502 . S
C1344 H1330 0.960 . S
C1344 H1331 0.961 . S
C1344 H1332 0.959 . S
C1344 C1342 1.561 . S
C1345 C1342 1.526 . S
C1345 C1346 1.396 . S
C1345 C1350 1.390 . S
C1346 C1340 1.465 . S
C1346 C1345 1.396 . S
C1346 C1347 1.399 . S
C1347 H1333 0.929 . S
C1347 C1346 1.399 . S
C1347 C1348 1.385 . S
C1348 H1334 0.931 . S
C1348 C1347 1.385 . S
C1348 C1349 1.389 . S
C1349 C1348 1.389 . S
C1349 C1350 1.387 . S
C1350 H1335 0.930 . S
C1350 C1345 1.390 . S
C1350 C1349 1.387 . S
H1351 C1363 0.930 . S
H1352 C1365 0.930 . S
H1353 C1366 0.930 . S
H1354 C1370 0.959 . S
H1355 C1370 0.959 . S
H1356 C1370 0.961 . S
H1357 C1371 0.960 . S
H1358 C1371 0.961 . S
H1359 C1371 0.959 . S
H1360 C1374 0.929 . S
H1361 C1375 0.931 . S
H1362 C1377 0.930 . S
C1363 H1351 0.930 . S
C1363 C1364 1.399 . S
C1363 C1368 1.399 . S
C1364 C1363 1.399 . S
C1364 C1365 1.376 . S
C1365 H1352 0.930 . S
C1365 C1364 1.376 . S
C1365 C1366 1.388 . S
C1366 H1353 0.930 . S
C1366 C1365 1.388 . S
C1366 C1367 1.390 . S
C1367 C1366 1.390 . S
C1367 C1368 1.394 . S
C1367 C1373 1.465 . S
C1368 C1363 1.399 . S
C1368 C1367 1.394 . S
C1368 C1369 1.516 . S
C1369 C1368 1.516 . S
C1369 C1370 1.502 . S
C1369 C1371 1.561 . S
C1369 C1372 1.526 . S
C1370 H1354 0.959 . S
C1370 H1355 0.959 . S
C1370 H1356 0.961 . S
C1370 C1369 1.502 . S
C1371 H1357 0.960 . S
C1371 H1358 0.961 . S
C1371 H1359 0.959 . S
C1371 C1369 1.561 . S
C1372 C1369 1.526 . S
C1372 C1373 1.396 . S
C1372 C1377 1.390 . S
C1373 C1367 1.465 . S
C1373 C1372 1.396 . S
C1373 C1374 1.399 . S
C1374 H1360 0.929 . S
C1374 C1373 1.399 . S
C1374 C1375 1.385 . S
C1375 H1361 0.931 . S
C1375 C1374 1.385 . S
C1375 C1376 1.389 . S
C1376 C1375 1.389 . S
C1376 C1377 1.387 . S
C1377 H1362 0.930 . S
C1377 C1372 1.390 . S
C1377 C1376 1.387 . S
H1378 C1390 0.930 . S
H1379 C1392 0.930 . S
H1380 C1393 0.930 . S
H1381 C1397 0.959 . S
H1382 C1397 0.959 . S
H1383 C1397 0.961 . S
H1384 C1398 0.960 . S
H1385 C1398 0.961 . S
H1386 C1398 0.959 . S
H1387 C1401 0.929 . S
H1388 C1402 0.931 . S
H1389 C1404 0.930 . S
C1390 H1378 0.930 . S
C1390 C1391 1.399 . S
C1390 C1395 1.399 . S
C1391 C1390 1.399 . S
C1391 C1392 1.376 . S
C1392 H1379 0.930 . S
C1392 C1391 1.376 . S
C1392 C1393 1.388 . S
C1393 H1380 0.930 . S
C1393 C1392 1.388 . S
C1393 C1394 1.390 . S
C1394 C1393 1.390 . S
C1394 C1395 1.394 . S
C1394 C1400 1.465 . S
C1395 C1390 1.399 . S
C1395 C1394 1.394 . S
C1395 C1396 1.516 . S
C1396 C1395 1.516 . S
C1396 C1397 1.502 . S
C1396 C1398 1.561 . S
C1396 C1399 1.526 . S
C1397 H1381 0.959 . S
C1397 H1382 0.959 . S
C1397 H1383 0.961 . S
C1397 C1396 1.502 . S
C1398 H1384 0.960 . S
C1398 H1385 0.961 . S
C1398 H1386 0.959 . S
C1398 C1396 1.561 . S
C1399 C1396 1.526 . S
C1399 C1400 1.396 . S
C1399 C1404 1.390 . S
C1400 C1394 1.465 . S
C1400 C1399 1.396 . S
C1400 C1401 1.399 . S
C1401 H1387 0.929 . S
C1401 C1400 1.399 . S
C1401 C1402 1.385 . S
C1402 H1388 0.931 . S
C1402 C1401 1.385 . S
C1402 C1403 1.389 . S
C1403 C1402 1.389 . S
C1403 C1404 1.387 . S
C1404 H1389 0.930 . S
C1404 C1399 1.390 . S
C1404 C1403 1.387 . S
H1405 C1417 0.930 . S
H1406 C1419 0.930 . S
H1407 C1420 0.930 . S
H1408 C1424 0.959 . S
H1409 C1424 0.959 . S
H1410 C1424 0.961 . S
H1411 C1425 0.960 . S
H1412 C1425 0.961 . S
H1413 C1425 0.959 . S
H1414 C1428 0.929 . S
H1415 C1429 0.931 . S
H1416 C1431 0.930 . S
C1417 H1405 0.930 . S
C1417 C1418 1.399 . S
C1417 C1422 1.399 . S
C1418 C1417 1.399 . S
C1418 C1419 1.376 . S
C1419 H1406 0.930 . S
C1419 C1418 1.376 . S
C1419 C1420 1.388 . S
C1420 H1407 0.930 . S
C1420 C1419 1.388 . S
C1420 C1421 1.390 . S
C1421 C1420 1.390 . S
C1421 C1422 1.394 . S
C1421 C1427 1.465 . S
C1422 C1417 1.399 . S
C1422 C1421 1.394 . S
C1422 C1423 1.516 . S
C1423 C1422 1.516 . S
C1423 C1424 1.502 . S
C1423 C1425 1.561 . S
C1423 C1426 1.526 . S
C1424 H1408 0.959 . S
C1424 H1409 0.959 . S
C1424 H1410 0.961 . S
C1424 C1423 1.502 . S
C1425 H1411 0.960 . S
C1425 H1412 0.961 . S
C1425 H1413 0.959 . S
C1425 C1423 1.561 . S
C1426 C1423 1.526 . S
C1426 C1427 1.396 . S
C1426 C1431 1.390 . S
C1427 C1421 1.465 . S
C1427 C1426 1.396 . S
C1427 C1428 1.399 . S
C1428 H1414 0.929 . S
C1428 C1427 1.399 . S
C1428 C1429 1.385 . S
C1429 H1415 0.931 . S
C1429 C1428 1.385 . S
C1429 C1430 1.389 . S
C1430 C1429 1.389 . S
C1430 C1431 1.387 . S
C1431 H1416 0.930 . S
C1431 C1426 1.390 . S
C1431 C1430 1.387 . S
H1432 C1444 0.930 . S
H1433 C1446 0.930 . S
H1434 C1447 0.930 . S
H1435 C1451 0.959 . S
H1436 C1451 0.959 . S
H1437 C1451 0.961 . S
H1438 C1452 0.960 . S
H1439 C1452 0.961 . S
H1440 C1452 0.959 . S
H1441 C1455 0.929 . S
H1442 C1456 0.931 . S
H1443 C1458 0.930 . S
C1444 H1432 0.930 . S
C1444 C1445 1.399 . S
C1444 C1449 1.399 . S
C1445 C1444 1.399 . S
C1445 C1446 1.376 . S
C1446 H1433 0.930 . S
C1446 C1445 1.376 . S
C1446 C1447 1.388 . S
C1447 H1434 0.930 . S
C1447 C1446 1.388 . S
C1447 C1448 1.390 . S
C1448 C1447 1.390 . S
C1448 C1449 1.394 . S
C1448 C1454 1.465 . S
C1449 C1444 1.399 . S
C1449 C1448 1.394 . S
C1449 C1450 1.516 . S
C1450 C1449 1.516 . S
C1450 C1451 1.502 . S
C1450 C1452 1.561 . S
C1450 C1453 1.526 . S
C1451 H1435 0.959 . S
C1451 H1436 0.959 . S
C1451 H1437 0.961 . S
C1451 C1450 1.502 . S
C1452 H1438 0.960 . S
C1452 H1439 0.961 . S
C1452 H1440 0.959 . S
C1452 C1450 1.561 . S
C1453 C1450 1.526 . S
C1453 C1454 1.396 . S
C1453 C1458 1.390 . S
C1454 C1448 1.465 . S
C1454 C1453 1.396 . S
C1454 C1455 1.399 . S
C1455 H1441 0.929 . S
C1455 C1454 1.399 . S
C1455 C1456 1.385 . S
C1456 H1442 0.931 . S
C1456 C1455 1.385 . S
C1456 C1457 1.389 . S
C1457 C1456 1.389 . S
C1457 C1458 1.387 . S
C1458 H1443 0.930 . S
C1458 C1453 1.390 . S
C1458 C1457 1.387 . S
H1459 C1471 0.930 . S
H1460 C1473 0.930 . S
H1461 C1474 0.930 . S
H1462 C1478 0.959 . S
H1463 C1478 0.959 . S
H1464 C1478 0.961 . S
H1465 C1479 0.960 . S
H1466 C1479 0.961 . S
H1467 C1479 0.959 . S
H1468 C1482 0.929 . S
H1469 C1483 0.931 . S
H1470 C1485 0.930 . S
C1471 H1459 0.930 . S
C1471 C1472 1.399 . S
C1471 C1476 1.399 . S
C1472 C1471 1.399 . S
C1472 C1473 1.376 . S
C1473 H1460 0.930 . S
C1473 C1472 1.376 . S
C1473 C1474 1.388 . S
C1474 H1461 0.930 . S
C1474 C1473 1.388 . S
C1474 C1475 1.390 . S
C1475 C1474 1.390 . S
C1475 C1476 1.394 . S
C1475 C1481 1.465 . S
C1476 C1471 1.399 . S
C1476 C1475 1.394 . S
C1476 C1477 1.516 . S
C1477 C1476 1.516 . S
C1477 C1478 1.502 . S
C1477 C1479 1.561 . S
C1477 C1480 1.526 . S
C1478 H1462 0.959 . S
C1478 H1463 0.959 . S
C1478 H1464 0.961 . S
C1478 C1477 1.502 . S
C1479 H1465 0.960 . S
C1479 H1466 0.961 . S
C1479 H1467 0.959 . S
C1479 C1477 1.561 . S
C1480 C1477 1.526 . S
C1480 C1481 1.396 . S
C1480 C1485 1.390 . S
C1481 C1475 1.465 . S
C1481 C1480 1.396 . S
C1481 C1482 1.399 . S
C1482 H1468 0.929 . S
C1482 C1481 1.399 . S
C1482 C1483 1.385 . S
C1483 H1469 0.931 . S
C1483 C1482 1.385 . S
C1483 C1484 1.389 . S
C1484 C1483 1.389 . S
C1484 C1485 1.387 . S
C1485 H1470 0.930 . S
C1485 C1480 1.390 . S
C1485 C1484 1.387 . S
H1486 C1498 0.930 . S
H1487 C1500 0.930 . S
H1488 C1501 0.930 . S
H1489 C1505 0.959 . S
H1490 C1505 0.959 . S
H1491 C1505 0.961 . S
H1492 C1506 0.960 . S
H1493 C1506 0.961 . S
H1494 C1506 0.959 . S
H1495 C1509 0.929 . S
H1496 C1510 0.931 . S
H1497 C1512 0.930 . S
C1498 H1486 0.930 . S
C1498 C1499 1.399 . S
C1498 C1503 1.399 . S
C1499 C1498 1.399 . S
C1499 C1500 1.376 . S
C1500 H1487 0.930 . S
C1500 C1499 1.376 . S
C1500 C1501 1.388 . S
C1501 H1488 0.930 . S
C1501 C1500 1.388 . S
C1501 C1502 1.390 . S
C1502 C1501 1.390 . S
C1502 C1503 1.394 . S
C1502 C1508 1.465 . S
C1503 C1498 1.399 . S
C1503 C1502 1.394 . S
C1503 C1504 1.516 . S
C1504 C1503 1.516 . S
C1504 C1505 1.502 . S
C1504 C1506 1.561 . S
C1504 C1507 1.526 . S
C1505 H1489 0.959 . S
C1505 H1490 0.959 . S
C1505 H1491 0.961 . S
C1505 C1504 1.502 . S
C1506 H1492 0.960 . S
C1506 H1493 0.961 . S
C1506 H1494 0.959 . S
C1506 C1504 1.561 . S
C1507 C1504 1.526 . S
C1507 C1508 1.396 . S
C1507 C1512 1.390 . S
C1508 C1502 1.465 . S
C1508 C1507 1.396 . S
C1508 C1509 1.399 . S
C1509 H1495 0.929 . S
C1509 C1508 1.399 . S
C1509 C1510 1.385 . S
C1510 H1496 0.931 . S
C1510 C1509 1.385 . S
C1510 C1511 1.389 . S
C1511 C1510 1.389 . S
C1511 C1512 1.387 . S
C1512 H1497 0.930 . S
C1512 C1507 1.390 . S
C1512 C1511 1.387 . S
H1513 C1525 0.930 . S
H1514 C1527 0.930 . S
H1515 C1528 0.930 . S
H1516 C1532 0.959 . S
H1517 C1532 0.959 . S
H1518 C1532 0.961 . S
H1519 C1533 0.960 . S
H1520 C1533 0.961 . S
H1521 C1533 0.959 . S
H1522 C1536 0.929 . S
H1523 C1537 0.931 . S
H1524 C1539 0.930 . S
C1525 H1513 0.930 . S
C1525 C1526 1.399 . S
C1525 C1530 1.399 . S
C1526 C1525 1.399 . S
C1526 C1527 1.376 . S
C1527 H1514 0.930 . S
C1527 C1526 1.376 . S
C1527 C1528 1.388 . S
C1528 H1515 0.930 . S
C1528 C1527 1.388 . S
C1528 C1529 1.390 . S
C1529 C1528 1.390 . S
C1529 C1530 1.394 . S
C1529 C1535 1.465 . S
C1530 C1525 1.399 . S
C1530 C1529 1.394 . S
C1530 C1531 1.516 . S
C1531 C1530 1.516 . S
C1531 C1532 1.502 . S
C1531 C1533 1.561 . S
C1531 C1534 1.526 . S
C1532 H1516 0.959 . S
C1532 H1517 0.959 . S
C1532 H1518 0.961 . S
C1532 C1531 1.502 . S
C1533 H1519 0.960 . S
C1533 H1520 0.961 . S
C1533 H1521 0.959 . S
C1533 C1531 1.561 . S
C1534 C1531 1.526 . S
C1534 C1535 1.396 . S
C1534 C1539 1.390 . S
C1535 C1529 1.465 . S
C1535 C1534 1.396 . S
C1535 C1536 1.399 . S
C1536 H1522 0.929 . S
C1536 C1535 1.399 . S
C1536 C1537 1.385 . S
C1537 H1523 0.931 . S
C1537 C1536 1.385 . S
C1537 C1538 1.389 . S
C1538 C1537 1.389 . S
C1538 C1539 1.387 . S
C1539 H1524 0.930 . S
C1539 C1534 1.390 . S
C1539 C1538 1.387 . S
H1540 C1552 0.930 . S
H1541 C1554 0.930 . S
H1542 C1555 0.930 . S
H1543 C1559 0.959 . S
H1544 C1559 0.959 . S
H1545 C1559 0.961 . S
H1546 C1560 0.960 . S
H1547 C1560 0.961 . S
H1548 C1560 0.959 . S
H1549 C1563 0.929 . S
H1550 C1564 0.931 . S
H1551 C1566 0.930 . S
C1552 H1540 0.930 . S
C1552 C1553 1.399 . S
C1552 C1557 1.399 . S
C1553 C1552 1.399 . S
C1553 C1554 1.376 . S
C1554 H1541 0.930 . S
C1554 C1553 1.376 . S
C1554 C1555 1.388 . S
C1555 H1542 0.930 . S
C1555 C1554 1.388 . S
C1555 C1556 1.390 . S
C1556 C1555 1.390 . S
C1556 C1557 1.394 . S
C1556 C1562 1.465 . S
C1557 C1552 1.399 . S
C1557 C1556 1.394 . S
C1557 C1558 1.516 . S
C1558 C1557 1.516 . S
C1558 C1559 1.502 . S
C1558 C1560 1.561 . S
C1558 C1561 1.526 . S
C1559 H1543 0.959 . S
C1559 H1544 0.959 . S
C1559 H1545 0.961 . S
C1559 C1558 1.502 . S
C1560 H1546 0.960 . S
C1560 H1547 0.961 . S
C1560 H1548 0.959 . S
C1560 C1558 1.561 . S
C1561 C1558 1.526 . S
C1561 C1562 1.396 . S
C1561 C1566 1.390 . S
C1562 C1556 1.465 . S
C1562 C1561 1.396 . S
C1562 C1563 1.399 . S
C1563 H1549 0.929 . S
C1563 C1562 1.399 . S
C1563 C1564 1.385 . S
C1564 H1550 0.931 . S
C1564 C1563 1.385 . S
C1564 C1565 1.389 . S
C1565 C1564 1.389 . S
C1565 C1566 1.387 . S
C1566 H1551 0.930 . S
C1566 C1561 1.390 . S
C1566 C1565 1.387 . S
H1567 C1579 0.930 . S
H1568 C1581 0.930 . S
H1569 C1582 0.930 . S
H1570 C1586 0.959 . S
H1571 C1586 0.959 . S
H1572 C1586 0.961 . S
H1573 C1587 0.960 . S
H1574 C1587 0.961 . S
H1575 C1587 0.959 . S
H1576 C1590 0.929 . S
H1577 C1591 0.931 . S
H1578 C1593 0.930 . S
C1579 H1567 0.930 . S
C1579 C1580 1.399 . S
C1579 C1584 1.399 . S
C1580 C1579 1.399 . S
C1580 C1581 1.376 . S
C1581 H1568 0.930 . S
C1581 C1580 1.376 . S
C1581 C1582 1.388 . S
C1582 H1569 0.930 . S
C1582 C1581 1.388 . S
C1582 C1583 1.390 . S
C1583 C1582 1.390 . S
C1583 C1584 1.394 . S
C1583 C1589 1.465 . S
C1584 C1579 1.399 . S
C1584 C1583 1.394 . S
C1584 C1585 1.516 . S
C1585 C1584 1.516 . S
C1585 C1586 1.502 . S
C1585 C1587 1.561 . S
C1585 C1588 1.526 . S
C1586 H1570 0.959 . S
C1586 H1571 0.959 . S
C1586 H1572 0.961 . S
C1586 C1585 1.502 . S
C1587 H1573 0.960 . S
C1587 H1574 0.961 . S
C1587 H1575 0.959 . S
C1587 C1585 1.561 . S
C1588 C1585 1.526 . S
C1588 C1589 1.396 . S
C1588 C1593 1.390 . S
C1589 C1583 1.465 . S
C1589 C1588 1.396 . S
C1589 C1590 1.399 . S
C1590 H1576 0.929 . S
C1590 C1589 1.399 . S
C1590 C1591 1.385 . S
C1591 H1577 0.931 . S
C1591 C1590 1.385 . S
C1591 C1592 1.389 . S
C1592 C1591 1.389 . S
C1592 C1593 1.387 . S
C1593 H1578 0.930 . S
C1593 C1588 1.390 . S
C1593 C1592 1.387 . S
H1594 C1606 0.930 . S
H1595 C1608 0.930 . S
H1596 C1609 0.930 . S
H1597 C1613 0.959 . S
H1598 C1613 0.959 . S
H1599 C1613 0.961 . S
H1600 C1614 0.960 . S
H1601 C1614 0.961 . S
H1602 C1614 0.959 . S
H1603 C1617 0.929 . S
H1604 C1618 0.931 . S
H1605 C1620 0.930 . S
C1606 H1594 0.930 . S
C1606 C1607 1.399 . S
C1606 C1611 1.399 . S
C1607 C1606 1.399 . S
C1607 C1608 1.376 . S
C1608 H1595 0.930 . S
C1608 C1607 1.376 . S
C1608 C1609 1.388 . S
C1609 H1596 0.930 . S
C1609 C1608 1.388 . S
C1609 C1610 1.390 . S
C1610 C1609 1.390 . S
C1610 C1611 1.394 . S
C1610 C1616 1.465 . S
C1611 C1606 1.399 . S
C1611 C1610 1.394 . S
C1611 C1612 1.516 . S
C1612 C1611 1.516 . S
C1612 C1613 1.502 . S
C1612 C1614 1.561 . S
C1612 C1615 1.526 . S
C1613 H1597 0.959 . S
C1613 H1598 0.959 . S
C1613 H1599 0.961 . S
C1613 C1612 1.502 . S
C1614 H1600 0.960 . S
C1614 H1601 0.961 . S
C1614 H1602 0.959 . S
C1614 C1612 1.561 . S
C1615 C1612 1.526 . S
C1615 C1616 1.396 . S
C1615 C1620 1.390 . S
C1616 C1610 1.465 . S
C1616 C1615 1.396 . S
C1616 C1617 1.399 . S
C1617 H1603 0.929 . S
C1617 C1616 1.399 . S
C1617 C1618 1.385 . S
C1618 H1604 0.931 . S
C1618 C1617 1.385 . S
C1618 C1619 1.389 . S
C1619 C1618 1.389 . S
C1619 C1620 1.387 . S
C1620 H1605 0.930 . S
C1620 C1615 1.390 . S
C1620 C1619 1.387 . S
H1621 C1633 0.930 . S
H1622 C1635 0.930 . S
H1623 C1636 0.930 . S
H1624 C1640 0.959 . S
H1625 C1640 0.959 . S
H1626 C1640 0.961 . S
H1627 C1641 0.960 . S
H1628 C1641 0.961 . S
H1629 C1641 0.959 . S
H1630 C1644 0.929 . S
H1631 C1645 0.931 . S
H1632 C1647 0.930 . S
C1633 H1621 0.930 . S
C1633 C1634 1.399 . S
C1633 C1638 1.399 . S
C1634 C1633 1.399 . S
C1634 C1635 1.376 . S
C1635 H1622 0.930 . S
C1635 C1634 1.376 . S
C1635 C1636 1.388 . S
C1636 H1623 0.930 . S
C1636 C1635 1.388 . S
C1636 C1637 1.390 . S
C1637 C1636 1.390 . S
C1637 C1638 1.394 . S
C1637 C1643 1.465 . S
C1638 C1633 1.399 . S
C1638 C1637 1.394 . S
C1638 C1639 1.516 . S
C1639 C1638 1.516 . S
C1639 C1640 1.502 . S
C1639 C1641 1.561 . S
C1639 C1642 1.526 . S
C1640 H1624 0.959 . S
C1640 H1625 0.959 . S
C1640 H1626 0.961 . S
C1640 C1639 1.502 . S
C1641 H1627 0.960 . S
C1641 H1628 0.961 . S
C1641 H1629 0.959 . S
C1641 C1639 1.561 . S
C1642 C1639 1.526 . S
C1642 C1643 1.396 . S
C1642 C1647 1.390 . S
C1643 C1637 1.465 . S
C1643 C1642 1.396 . S
C1643 C1644 1.399 . S
C1644 H1630 0.929 . S
C1644 C1643 1.399 . S
C1644 C1645 1.385 . S
C1645 H1631 0.931 . S
C1645 C1644 1.385 . S
C1645 C1646 1.389 . S
C1646 C1645 1.389 . S
C1646 C1647 1.387 . S
C1647 H1632 0.930 . S
C1647 C1642 1.390 . S
C1647 C1646 1.387 . S
C365 C49 1.216 . S
C377 C5 1.329 . S
C392 C60 1.163 . S
C404 C16 1.256 . S
C419 C27 1.275 . S
C431 C71 1.164 . S
C446 C38 1.168 . S
C458 C82 1.297 . S
C473 C137 1.414 . S
C485 C93 1.501 . S
C500 C148 1.501 . S
C512 C104 1.423 . S
C527 C115 1.412 . S
C539 C159 1.501 . S
C554 C170 1.396 . S
C566 C126 1.463 . S
C581 C181 1.267 . S
C593 C225 1.163 . S
C608 C236 1.332 . S
C620 C192 1.236 . S
C635 C203 1.172 . S
C647 C247 1.229 . S
C662 C258 1.321 . S
C674 C214 1.274 . S
C689 C269 1.410 . S
C701 C313 1.440 . S
C716 C324 1.397 . S
C728 C280 1.460 . S
C743 C291 1.415 . S
C755 C335 1.501 . S
C770 C346 1.412 . S
C782 C302 1.437 . S
C797 C139 1.499 . S
C809 C7 1.489 . S
C824 C18 1.456 . S
C836 C326 1.534 . S
C851 C161 1.539 . S
C863 C29 1.470 . S
C878 C40 1.504 . S
C890 C348 1.507 . S
C905 C95 1.540 . S
C917 C51 1.493 . S
C932 C282 1.500 . S
C944 C62 1.441 . S
C959 C73 1.510 . S
C971 C117 1.533 . S
C986 C304 1.497 . S
C998 C84 1.448 . S
C1013 C106 1.498 . S
C1025 C238 1.446 . S
C1040 C128 1.531 . S
C1052 C260 1.511 . S
C1067 C150 1.499 . S
C1079 C194 1.444 . S
C1094 C216 1.501 . S
C1106 C172 1.505 . S
C1121 C315 1.494 . S
C1133 C183 1.462 . S
C1148 C337 1.540 . S
C1160 C205 1.481 . S
C1175 C227 1.499 . S
C1187 C271 1.504 . S
C1202 C293 1.531 . S
C1214 C249 1.511 . S
C1229 C261 1.521 . S
C1241 C8 1.524 . S
C1256 C19 1.531 . S
C1268 C228 1.540 . S
C1283 C30 1.495 . S
C1295 C239 1.556 . S
C1310 C250 1.556 . S
C1322 C41 1.513 . S
C1337 C52 1.563 . S
C1349 C195 1.496 . S
C1364 C63 1.515 . S
C1376 C206 1.554 . S
C1391 C217 1.531 . S
C1403 C74 1.540 . S
C1418 C184 1.498 . S
C1430 C85 1.551 . S
C1445 C349 1.569 . S
C1457 C96 1.580 . S
C1472 C107 1.575 . S
C1484 C316 1.566 . S
C1499 C327 1.575 . S
C1511 C118 1.584 . S
C1526 C338 1.564 . S
C1538 C129 1.573 . S
C1553 C140 1.584 . S
C1565 C283 1.580 . S
C1580 C294 1.579 . S
C1592 C151 1.584 . S
C1607 C305 1.567 . S
C1619 C162 1.578 . S
C1634 C173 1.583 . S
C1646 C272 1.582 . S
