# Generated by pormake.
# Topology wme, (6)-cn, num edge types: 1
# Building blocks:
#     Node 0, Type 0, BuildingBlock: VOLQOD_clean_sbu_1, # of connection points: 6
#     Node 1, Type 0, BuildingBlock: VOLQOD_clean_sbu_1, # of connection points: 6
#     Node 2, Type 0, BuildingBlock: VOLQOD_clean_sbu_1, # of connection points: 6
#     Node 3, Type 0, BuildingBlock: VOLQOD_clean_sbu_1, # of connection points: 6
#     Node 4, Type 0, BuildingBlock: VOLQOD_clean_sbu_1, # of connection points: 6
#     Node 5, Type 0, BuildingBlock: VOLQOD_clean_sbu_1, # of connection points: 6
#     Node 6, Type 0, BuildingBlock: VOLQOD_clean_sbu_1, # of connection points: 6
#     Node 7, Type 0, BuildingBlock: VOLQOD_clean_sbu_1, # of connection points: 6
#     Node 8, Type 0, BuildingBlock: VOLQOD_clean_sbu_1, # of connection points: 6
#     Node 9, Type 0, BuildingBlock: VOLQOD_clean_sbu_1, # of connection points: 6
#     Node 10, Type 0, BuildingBlock: VOLQOD_clean_sbu_1, # of connection points: 6
#     Node 11, Type 0, BuildingBlock: VOLQOD_clean_sbu_1, # of connection points: 6
#     Edge 12, Type (0, 0), BuildingBlock: ZUJKAS_clean_linker_0, # of connection points: 2
#     Edge 13, Type (0, 0), BuildingBlock: ZUJKAS_clean_linker_0, # of connection points: 2
#     Edge 14, Type (0, 0), BuildingBlock: ZUJKAS_clean_linker_0, # of connection points: 2
#     Edge 15, Type (0, 0), BuildingBlock: ZUJKAS_clean_linker_0, # of connection points: 2
#     Edge 16, Type (0, 0), BuildingBlock: ZUJKAS_clean_linker_0, # of connection points: 2
#     Edge 17, Type (0, 0), BuildingBlock: ZUJKAS_clean_linker_0, # of connection points: 2
#     Edge 18, Type (0, 0), BuildingBlock: ZUJKAS_clean_linker_0, # of connection points: 2
#     Edge 19, Type (0, 0), BuildingBlock: ZUJKAS_clean_linker_0, # of connection points: 2
#     Edge 20, Type (0, 0), BuildingBlock: ZUJKAS_clean_linker_0, # of connection points: 2
#     Edge 21, Type (0, 0), BuildingBlock: ZUJKAS_clean_linker_0, # of connection points: 2
#     Edge 22, Type (0, 0), BuildingBlock: ZUJKAS_clean_linker_0, # of connection points: 2
#     Edge 23, Type (0, 0), BuildingBlock: ZUJKAS_clean_linker_0, # of connection points: 2
#     Edge 24, Type (0, 0), BuildingBlock: ZUJKAS_clean_linker_0, # of connection points: 2
#     Edge 25, Type (0, 0), BuildingBlock: ZUJKAS_clean_linker_0, # of connection points: 2
#     Edge 26, Type (0, 0), BuildingBlock: ZUJKAS_clean_linker_0, # of connection points: 2
#     Edge 27, Type (0, 0), BuildingBlock: ZUJKAS_clean_linker_0, # of connection points: 2
#     Edge 28, Type (0, 0), BuildingBlock: ZUJKAS_clean_linker_0, # of connection points: 2
#     Edge 29, Type (0, 0), BuildingBlock: ZUJKAS_clean_linker_0, # of connection points: 2
#     Edge 30, Type (0, 0), BuildingBlock: ZUJKAS_clean_linker_0, # of connection points: 2
#     Edge 31, Type (0, 0), BuildingBlock: ZUJKAS_clean_linker_0, # of connection points: 2
#     Edge 32, Type (0, 0), BuildingBlock: ZUJKAS_clean_linker_0, # of connection points: 2
#     Edge 33, Type (0, 0), BuildingBlock: ZUJKAS_clean_linker_0, # of connection points: 2
#     Edge 34, Type (0, 0), BuildingBlock: ZUJKAS_clean_linker_0, # of connection points: 2
#     Edge 35, Type (0, 0), BuildingBlock: ZUJKAS_clean_linker_0, # of connection points: 2
#     Edge 36, Type (0, 0), BuildingBlock: ZUJKAS_clean_linker_0, # of connection points: 2
#     Edge 37, Type (0, 0), BuildingBlock: ZUJKAS_clean_linker_0, # of connection points: 2
#     Edge 38, Type (0, 0), BuildingBlock: ZUJKAS_clean_linker_0, # of connection points: 2
#     Edge 39, Type (0, 0), BuildingBlock: ZUJKAS_clean_linker_0, # of connection points: 2
#     Edge 40, Type (0, 0), BuildingBlock: ZUJKAS_clean_linker_0, # of connection points: 2
#     Edge 41, Type (0, 0), BuildingBlock: ZUJKAS_clean_linker_0, # of connection points: 2
#     Edge 42, Type (0, 0), BuildingBlock: ZUJKAS_clean_linker_0, # of connection points: 2
#     Edge 43, Type (0, 0), BuildingBlock: ZUJKAS_clean_linker_0, # of connection points: 2
#     Edge 44, Type (0, 0), BuildingBlock: ZUJKAS_clean_linker_0, # of connection points: 2
#     Edge 45, Type (0, 0), BuildingBlock: ZUJKAS_clean_linker_0, # of connection points: 2
#     Edge 46, Type (0, 0), BuildingBlock: ZUJKAS_clean_linker_0, # of connection points: 2
#     Edge 47, Type (0, 0), BuildingBlock: ZUJKAS_clean_linker_0, # of connection points: 2
# Relax obj value: 0.330
# Max RMSD: 0.236
# Mean RMSD: 0.236
data_MOF--net-wme--node1-VOLQOD_clean_sbu_1--edge1-ZUJKAS_clean_linker_0
_symmetry_space_group_name_H-M    P1
_symmetry_Int_Tables_number       1
_symmetry_cell_setting            triclinic
loop_
_symmetry_equiv_pos_as_xyz
'x, y, z'
_cell_length_a     39.333171
_cell_length_b     39.365507
_cell_length_c     82.311235
_cell_angle_alpha  89.985143
_cell_angle_beta   90.060067
_cell_angle_gamma 120.12486
loop_
_atom_site_label
_atom_site_type_symbol
_atom_site_fract_x
_atom_site_fract_y
_atom_site_fract_z
_atom_type_partial_charge
O0 O 0.22244 0.38459 0.10217 0.0
Zn1 Zn 0.22382 0.33456 0.10181 0.0
O2 O 0.25049 0.33013 0.1211 0.0
Zn3 Zn 0.29605 0.32616 0.11441 0.0
Zn4 Zn 0.26767 0.37568 0.13507 0.0
Zn5 Zn 0.21396 0.28419 0.13335 0.0
O6 O 0.29237 0.27635 0.12287 0.0
O7 O 0.23352 0.24638 0.13464 0.0
O8 O 0.24869 0.33042 0.08115 0.0
O9 O 0.2978 0.323 0.09012 0.0
O10 O 0.34696 0.37439 0.12088 0.0
O11 O 0.32606 0.40846 0.135 0.0
O12 O 0.24833 0.36172 0.15814 0.0
O13 O 0.16671 0.29293 0.10148 0.0
O14 O 0.20609 0.29786 0.15586 0.0
O15 O 0.16023 0.25766 0.12343 0.0
C16 C 0.23017 0.40991 0.11329 0.0
C17 C 0.26491 0.24702 0.13032 0.0
C18 C 0.35381 0.40481 0.12895 0.0
C19 C 0.27777 0.32541 0.07849 0.0
C20 C 0.22212 0.3293 0.16416 0.0
C21 C 0.14553 0.26468 0.111 0.0
O22 O 0.24624 0.40896 0.12659 0.0
O23 O 0.83889 0.22251 0.61047 0.0
Zn24 Zn 0.89192 0.22949 0.606 0.0
O25 O 0.92846 0.25748 0.62367 0.0
Zn26 Zn 0.97306 0.30554 0.61504 0.0
Zn27 Zn 0.9018 0.2699 0.64052 0.0
Zn28 Zn 0.94617 0.22398 0.63316 0.0
O29 O 0.02426 0.30597 0.61845 0.0
O30 O 0.00343 0.24705 0.6294 0.0
O31 O 0.91186 0.25544 0.58443 0.0
O32 O 0.96802 0.30899 0.59085 0.0
O33 O 0.97418 0.35343 0.62438 0.0
O34 O 0.92275 0.32779 0.64104 0.0
O35 O 0.9075 0.25153 0.66266 0.0
O36 O 0.881 0.17441 0.60427 0.0
O37 O 0.93733 0.21785 0.65713 0.0
O38 O 0.91675 0.16938 0.62393 0.0
C39 C 0.8233 0.22677 0.62327 0.0
C40 C 0.03089 0.27957 0.62395 0.0
C41 C 0.95142 0.35736 0.63425 0.0
C42 C 0.94264 0.28712 0.58036 0.0
C43 C 0.92174 0.23034 0.66725 0.0
C44 C 0.89185 0.15414 0.61245 0.0
O45 O 0.84374 0.24319 0.6359 0.0
O46 O 0.61345 0.82301 0.09613 0.0
Zn47 Zn 0.65873 0.87815 0.09428 0.0
O48 O 0.66195 0.90955 0.1133 0.0
Zn49 Zn 0.66057 0.95636 0.10637 0.0
Zn50 Zn 0.61835 0.87844 0.12771 0.0
Zn51 Zn 0.70993 0.92422 0.12519 0.0
O52 O 0.71136 0.00609 0.11216 0.0
O53 O 0.74619 0.98183 0.1234 0.0
O54 O 0.65517 0.9028 0.07335 0.0
O55 O 0.65666 0.95687 0.0821 0.0
O56 O 0.61175 0.95579 0.11471 0.0
O57 O 0.58092 0.89845 0.1276 0.0
O58 O 0.63553 0.87883 0.15066 0.0
O59 O 0.70467 0.86933 0.09336 0.0
O60 O 0.70044 0.91047 0.1489 0.0
O61 O 0.73632 0.89583 0.11637 0.0
C62 C 0.59062 0.80446 0.10788 0.0
C63 C 0.74313 0.01081 0.11843 0.0
C64 C 0.58211 0.92953 0.12247 0.0
C65 C 0.6547 0.93441 0.07058 0.0
C66 C 0.66912 0.89216 0.15723 0.0
C67 C 0.73167 0.87592 0.10353 0.0
O68 O 0.59026 0.82213 0.12076 0.0
O69 O 0.78765 0.61372 0.60131 0.0
Zn70 Zn 0.78116 0.66052 0.59777 0.0
O71 O 0.7541 0.66811 0.61612 0.0
Zn72 Zn 0.70729 0.66847 0.60832 0.0
Zn73 Zn 0.7393 0.62622 0.63173 0.0
Zn74 Zn 0.78939 0.71699 0.627 0.0
O75 O 0.71016 0.72017 0.61339 0.0
O76 O 0.76994 0.75442 0.62421 0.0
O77 O 0.75391 0.65607 0.57648 0.0
O78 O 0.70379 0.66334 0.58405 0.0
O79 O 0.65757 0.62167 0.61688 0.0
O80 O 0.68136 0.59096 0.63163 0.0
O81 O 0.75566 0.64616 0.65442 0.0
O82 O 0.83704 0.70446 0.59627 0.0
O83 O 0.79301 0.71037 0.65102 0.0
O84 O 0.84403 0.74048 0.61808 0.0
C85 C 0.78227 0.59225 0.6137 0.0
C86 C 0.73812 0.75196 0.61925 0.0
C87 C 0.65247 0.59282 0.62567 0.0
C88 C 0.7235 0.6583 0.57303 0.0
C89 C 0.77763 0.68035 0.6602 0.0
C90 C 0.85845 0.73291 0.6057 0.0
O91 O 0.76506 0.59482 0.62633 0.0
O92 O 0.1574 0.78386 0.10353 0.0
Zn93 Zn 0.10181 0.77239 0.10151 0.0
O94 O 0.06951 0.74059 0.1197 0.0
Zn95 Zn 0.02535 0.69186 0.11131 0.0
Zn96 Zn 0.10142 0.72941 0.13423 0.0
Zn97 Zn 0.05021 0.76944 0.13202 0.0
O98 O 0.97322 0.68803 0.11652 0.0
O99 O -0.00764 0.74471 0.12921 0.0
O100 O 0.07966 0.74736 0.0798 0.0
O101 O 0.02725 0.69116 0.087 0.0
O102 O 0.02859 0.64458 0.11872 0.0
O103 O 0.08351 0.67248 0.13342 0.0
O104 O 0.09875 0.74392 0.15733 0.0
O105 O 0.10807 0.82598 0.10214 0.0
O106 O 0.06192 0.7717 0.15588 0.0
O107 O 0.07623 0.82532 0.12448 0.0
C108 C 0.17603 0.779 0.1151 0.0
C109 C 0.96545 0.71252 0.12325 0.0
C110 C 0.05448 0.64222 0.12719 0.0
C111 C 0.04968 0.71457 0.0761 0.0
C112 C 0.0821 0.76075 0.16411 0.0
C113 C 0.09794 0.84344 0.11238 0.0
O114 O 0.1583 0.75963 0.12775 0.0
O115 O 0.38299 0.17068 0.60425 0.0
Zn116 Zn 0.33874 0.11581 0.60095 0.0
O117 O 0.33291 0.08244 0.61948 0.0
Zn118 Zn 0.33873 0.03835 0.61203 0.0
Zn119 Zn 0.37246 0.113 0.63563 0.0
Zn120 Zn 0.28182 0.06391 0.62938 0.0
O121 O 0.28863 0.9865 0.61593 0.0
O122 O 0.24892 0.00628 0.62604 0.0
O123 O 0.34553 0.09417 0.57999 0.0
O124 O 0.34709 0.04102 0.58781 0.0
O125 O 0.38691 0.04061 0.62203 0.0
O126 O 0.41141 0.09494 0.63699 0.0
O127 O 0.34946 0.10866 0.65777 0.0
O128 O 0.29254 0.12339 0.59878 0.0
O129 O 0.28528 0.07426 0.65341 0.0
O130 O 0.25483 0.09119 0.61977 0.0
C131 C 0.403 0.18862 0.61675 0.0
C132 C 0.25504 0.97917 0.6211 0.0
C133 C 0.41347 0.06591 0.63136 0.0
C134 C 0.34862 0.06426 0.57671 0.0
C135 C 0.31432 0.09271 0.66297 0.0
C136 C 0.26235 0.11352 0.60749 0.0
O137 O 0.40082 0.17025 0.62979 0.0
O138 O 0.60422 0.77681 0.38088 0.0
Zn139 Zn 0.65014 0.76837 0.38311 0.0
O140 O 0.65434 0.7399 0.3645 0.0
Zn141 Zn 0.65178 0.69162 0.3722 0.0
Zn142 Zn 0.6119 0.72782 0.34945 0.0
Zn143 Zn 0.70332 0.77259 0.35307 0.0
O144 O 0.70162 0.69109 0.36676 0.0
O145 O 0.73836 0.75006 0.35562 0.0
O146 O 0.6477 0.74215 0.40438 0.0
O147 O 0.64878 0.6888 0.39656 0.0
O148 O 0.60281 0.64354 0.36399 0.0
O149 O 0.57493 0.67024 0.34916 0.0
O150 O 0.63075 0.74511 0.32672 0.0
O151 O 0.69562 0.82316 0.38378 0.0
O152 O 0.69554 0.77694 0.32917 0.0
O153 O 0.73034 0.82763 0.36185 0.0
C154 C 0.58176 0.7724 0.36896 0.0
C155 C 0.73402 0.7176 0.36074 0.0
C156 C 0.57479 0.64032 0.35509 0.0
C157 C 0.64755 0.7105 0.40772 0.0
C158 C 0.66481 0.76468 0.3205 0.0
C159 C 0.7242 0.84319 0.37423 0.0
O160 O 0.58247 0.75511 0.356 0.0
O161 O 0.80647 0.60555 0.88601 0.0
Zn162 Zn 0.86191 0.65008 0.88835 0.0
O163 O 0.89367 0.65608 0.86917 0.0
Zn164 Zn 0.93907 0.65095 0.87535 0.0
Zn165 Zn 0.86139 0.6161 0.85363 0.0
Zn166 Zn 0.91062 0.70658 0.85904 0.0
O167 O 0.9901 0.70067 0.86994 0.0
O168 O 0.96862 0.7399 0.86089 0.0
O169 O 0.88656 0.64418 0.90869 0.0
O170 O 0.94025 0.64524 0.89964 0.0
O171 O 0.93579 0.60222 0.86516 0.0
O172 O 0.87892 0.57714 0.85196 0.0
O173 O 0.86374 0.63777 0.83142 0.0
O174 O 0.85406 0.69617 0.89085 0.0
O175 O 0.89751 0.70208 0.83524 0.0
O176 O 0.88423 0.73342 0.86945 0.0
C177 C 0.78752 0.58599 0.87357 0.0
C178 C -0.00347 0.73395 0.8648 0.0
C179 C 0.90874 0.57514 0.85657 0.0
C180 C 0.91792 0.64308 0.91127 0.0
C181 C 0.87867 0.67256 0.82597 0.0
C182 C 0.86298 0.72608 0.88208 0.0
O183 O 0.80493 0.58845 0.86024 0.0
O184 O 0.19692 0.82746 0.38847 0.0
Zn185 Zn 0.20761 0.88285 0.38964 0.0
O186 O 0.2361 0.91277 0.37038 0.0
Zn187 Zn 0.28498 0.95955 0.37705 0.0
Zn188 Zn 0.24737 0.88021 0.35637 0.0
Zn189 Zn 0.20328 0.9274 0.35819 0.0
O190 O 0.2836 0.00929 0.37163 0.0
O191 O 0.22505 0.98499 0.35978 0.0
O192 O 0.23645 0.90807 0.41032 0.0
O193 O 0.29119 0.95977 0.40128 0.0
O194 O 0.3326 0.95895 0.36795 0.0
O195 O 0.30488 0.90052 0.35586 0.0
O196 O 0.22933 0.87862 0.33348 0.0
O197 O 0.1532 0.87485 0.39049 0.0
O198 O 0.19855 0.91266 0.3346 0.0
O199 O 0.14843 0.89966 0.36698 0.0
C200 C 0.20128 0.80793 0.37718 0.0
C201 C 0.25682 0.01397 0.36506 0.0
C202 C 0.33525 0.93213 0.36035 0.0
C203 C 0.26992 0.93831 0.41289 0.0
C204 C 0.21005 0.89262 0.32662 0.0
C205 C 0.13297 0.8808 0.38002 0.0
O206 O 0.21946 0.82447 0.36415 0.0
O207 O 0.37225 0.20433 0.87953 0.0
Zn208 Zn 0.3244 0.20755 0.88478 0.0
O209 O 0.31419 0.2365 0.86802 0.0
Zn210 Zn 0.31384 0.28124 0.87807 0.0
Zn211 Zn 0.35506 0.25496 0.85161 0.0
Zn212 Zn 0.26396 0.20217 0.85754 0.0
O213 O 0.26131 0.27762 0.87531 0.0
O214 O 0.22616 0.22087 0.86226 0.0
O215 O 0.32985 0.23062 0.90707 0.0
O216 O 0.32202 0.28164 0.90212 0.0
O217 O 0.3583 0.33266 0.86985 0.0
O218 O 0.38824 0.31334 0.8524 0.0
O219 O 0.33303 0.23842 0.82921 0.0
O220 O 0.28168 0.15129 0.88535 0.0
O221 O 0.26911 0.19987 0.83328 0.0
O222 O 0.24125 0.14665 0.86556 0.0
C223 C 0.39403 0.21345 0.86701 0.0
C224 C 0.22908 0.25121 0.86914 0.0
C225 C 0.38612 0.34045 0.85994 0.0
C226 C 0.32803 0.26031 0.91198 0.0
C227 C 0.29855 0.21586 0.82378 0.0
C228 C 0.2513 0.13094 0.87669 0.0
O229 O 0.39003 0.2321 0.85523 0.0
O230 O 0.15166 0.38242 0.38397 0.0
Zn231 Zn 0.0987 0.33466 0.38684 0.0
O232 O 0.06375 0.32987 0.36894 0.0
Zn233 Zn 0.01685 0.32853 0.37768 0.0
Zn234 Zn 0.09015 0.374 0.35417 0.0
Zn235 Zn 0.0501 0.28258 0.35675 0.0
O236 O 0.96797 0.27729 0.37205 0.0
O237 O -0.00755 0.24561 0.35836 0.0
O238 O 0.0764 0.33611 0.40863 0.0
O239 O 0.01971 0.33206 0.402 0.0
O240 O 0.01314 0.37577 0.37062 0.0
O241 O 0.06707 0.40871 0.35571 0.0
O242 O 0.0879 0.35768 0.33089 0.0
O243 O 0.11067 0.29077 0.38676 0.0
O244 O 0.06447 0.2936 0.33322 0.0
O245 O 0.07912 0.25619 0.36498 0.0
C246 C 0.16729 0.40639 0.37225 0.0
C247 C 0.96347 0.24704 0.36447 0.0
C248 C 0.03648 0.40582 0.36229 0.0
C249 C 0.04459 0.33498 0.41261 0.0
C250 C 0.07839 0.32456 0.32463 0.0
C251 C 0.10198 0.26256 0.37698 0.0
O252 O 0.14722 0.40559 0.35996 0.0
O253 O 0.76388 0.16101 0.87427 0.0
Zn254 Zn 0.75624 0.10862 0.88111 0.0
O255 O 0.73432 0.06971 0.86377 0.0
Zn256 Zn 0.68468 0.02548 0.87101 0.0
Zn257 Zn 0.72583 0.0939 0.84509 0.0
Zn258 Zn 0.77084 0.0529 0.85728 0.0
O259 O 0.68363 0.97408 0.8677 0.0
O260 O 0.74545 -0.00499 0.86017 0.0
O261 O 0.72512 0.08942 0.90177 0.0
O262 O 0.67825 0.02934 0.89502 0.0
O263 O 0.63916 0.02685 0.8603 0.0
O264 O 0.66903 0.07709 0.84319 0.0
O265 O 0.74471 0.08248 0.82444 0.0
O266 O 0.81069 0.12018 0.88628 0.0
O267 O 0.78624 0.06449 0.8337 0.0
O268 O 0.82061 0.08038 0.87041 0.0
C269 C 0.76774 0.17468 0.85995 0.0
C270 C 0.71113 0.96742 0.86383 0.0
C271 C 0.6379 0.04999 0.84978 0.0
C272 C 0.69555 0.05641 0.90554 0.0
C273 C 0.77148 0.07397 0.822 0.0
C274 C 0.83243 0.10701 0.88126 0.0
O275 O 0.75695 0.15243 0.84754 0.0
H276 H 0.08469 0.89136 0.13215 0.0
H277 H 0.12472 0.96271 0.13425 0.0
H278 H 0.19525 0.96471 0.09379 0.0
H279 H 0.15515 0.89344 0.09139 0.0
H280 H 0.20724 0.00174 0.14035 0.0
H281 H 0.1711 0.05261 0.08316 0.0
H282 H 0.14027 0.0038 0.09117 0.0
H283 H 0.18539 0.01605 0.08103 0.0
C284 C 0.10813 0.90699 0.12345 0.0
C285 C 0.11681 0.88665 0.11165 0.0
C286 C 0.13109 0.94771 0.12474 0.0
C287 C 0.16291 0.96878 0.11421 0.0
C288 C 0.17055 0.94892 0.10192 0.0
H289 H 0.3075 0.22372 0.11202 0.0
H290 H 0.2942 0.15623 0.10918 0.0
C291 C 0.14753 0.90817 0.10057 0.0
C292 C 0.18936 0.0112 0.11681 0.0
H293 H 0.21792 0.10101 0.10044 0.0
C294 C 0.20989 0.02353 0.13158 0.0
C295 C 0.19315 0.03932 0.10522 0.0
C296 C 0.17117 0.02749 0.08928 0.0
C297 C 0.23304 0.06349 0.13535 0.0
C298 C 0.23522 0.0916 0.12411 0.0
C299 C 0.21635 0.07928 0.10898 0.0
C300 C 0.25143 0.13319 0.12859 0.0
C301 C 0.25419 0.07527 0.15145 0.0
C302 C 0.23299 0.14266 0.1409 0.0
C303 C 0.24035 0.18098 0.1425 0.0
C304 C 0.26617 0.21037 0.13177 0.0
C305 C 0.2875 0.20165 0.12048 0.0
C306 C 0.27988 0.16314 0.1188 0.0
H307 H 0.26096 0.05268 0.15592 0.0
H308 H 0.28199 0.10388 0.15056 0.0
H309 H 0.23503 0.07813 0.16057 0.0
H310 H 0.21048 0.11989 0.14841 0.0
H311 H 0.22367 0.18694 0.15137 0.0
H312 H 0.2018 0.10781 0.62583 0.0
H313 H 0.17376 0.15079 0.62462 0.0
H314 H 0.24387 0.20853 0.5824 0.0
H315 H 0.27219 0.16567 0.5834 0.0
H316 H 0.23042 0.24066 0.62502 0.0
H317 H 0.12549 0.18203 0.57294 0.0
H318 H 0.1377 0.15055 0.58447 0.0
H319 H 0.17353 0.18707 0.57124 0.0
C320 C 0.21066 0.12898 0.61605 0.0
C321 C 0.23949 0.13349 0.6048 0.0
C322 C 0.19476 0.15362 0.61544 0.0
C323 C 0.20711 0.18285 0.60351 0.0
C324 C 0.23406 0.18603 0.59167 0.0
H325 H 0.0846 0.31629 0.59976 0.0
H326 H 0.14034 0.30675 0.59362 0.0
C327 C 0.25009 0.16143 0.59227 0.0
C328 C 0.19364 0.21158 0.60431 0.0
H329 H 0.12416 0.23034 0.58921 0.0
C330 C 0.2077 0.23903 0.61702 0.0
C331 C 0.16473 0.20976 0.59363 0.0
C332 C 0.14924 0.18082 0.57977 0.0
C333 C 0.19155 0.26304 0.62 0.0
C334 C 0.16015 0.25879 0.6102 0.0
C335 C 0.14832 0.23357 0.59669 0.0
C336 C 0.13418 0.27367 0.61551 0.0
C337 C 0.20702 0.29145 0.63404 0.0
C338 C 0.11331 0.25937 0.63007 0.0
C339 C 0.08153 0.26446 0.63351 0.0
C340 C 0.07014 0.28402 0.62245 0.0
C341 C 0.09308 0.30138 0.60854 0.0
C342 C 0.12475 0.29584 0.60499 0.0
H343 H 0.23871 0.30209 0.63616 0.0
H344 H 0.20306 0.31712 0.63193 0.0
H345 H 0.1909 0.27624 0.64525 0.0
H346 H 0.11953 0.2415 0.63819 0.0
H347 H 0.06427 0.25083 0.64431 0.0
H348 H 0.76137 0.07327 0.09832 0.0
H349 H 0.82675 0.13144 0.09466 0.0
H350 H 0.87103 0.09353 0.1345 0.0
H351 H 0.80627 0.03598 0.13829 0.0
H352 H 0.90195 0.17683 0.13283 0.0
H353 H 0.91144 0.11086 0.07419 0.0
H354 H 0.87145 0.12014 0.07697 0.0
H355 H 0.87343 0.08296 0.08886 0.0
C356 C 0.78481 0.07803 0.10658 0.0
C357 C 0.77895 0.04987 0.11845 0.0
C358 C 0.82213 0.11105 0.10439 0.0
C359 C 0.85373 0.11625 0.11412 0.0
C360 C 0.84702 0.0899 0.12682 0.0
H361 H 0.09112 0.20496 0.12976 0.0
H362 H 0.01988 0.17506 0.12854 0.0
C363 C 0.81002 0.05696 0.12894 0.0
C364 C 0.89473 0.14616 0.11029 0.0
H365 H 0.96998 0.16168 0.08501 0.0
C366 C 0.91672 0.17423 0.12218 0.0
C367 C 0.91384 0.14261 0.09637 0.0
C368 C 0.89157 0.11248 0.08335 0.0
C369 C 0.9577 0.19722 0.121 0.0
C370 C 0.97703 0.19147 0.10772 0.0
C371 C 0.95489 0.16565 0.09521 0.0
C372 C 0.02008 0.20851 0.10764 0.0
C373 C 0.98017 0.22629 0.13431 0.0
C374 C 0.04354 0.23585 0.09581 0.0
C375 C 0.08445 0.25297 0.0964 0.0
C376 C 0.10236 0.24269 0.10879 0.0
C377 C 0.07842 0.21376 0.12012 0.0
C378 C 0.03769 0.19686 0.11953 0.0
H379 H 0.96138 0.23549 0.14082 0.0
H380 H 0.9905 0.21238 0.14328 0.0
H381 H 0.00628 0.2528 0.12937 0.0
H382 H 0.03028 0.24473 0.08641 0.0
H383 H 0.10202 0.2751 0.08748 0.0
H384 H 0.69424 0.77076 0.59919 0.0
H385 H 0.70225 0.83638 0.59558 0.0
H386 H 0.78559 0.88006 0.63511 0.0
H387 H 0.77759 0.81514 0.63886 0.0
H388 H 0.73401 0.91169 0.63374 0.0
H389 H 0.80787 0.91992 0.57478 0.0
H390 H 0.75821 0.88057 0.57775 0.0
H391 H 0.79735 0.88174 0.58941 0.0
C392 C 0.7134 0.79417 0.60738 0.0
C393 C 0.7358 0.78814 0.61913 0.0
C394 C 0.7181 0.83158 0.60523 0.0
C395 C 0.74502 0.86303 0.6149 0.0
C396 C 0.7648 0.85615 0.62749 0.0
H397 H 0.89855 0.09954 0.63051 0.0
H398 H 0.85668 0.02829 0.62912 0.0
C399 C 0.76033 0.81908 0.62957 0.0
C400 C 0.75668 0.90405 0.61109 0.0
H401 H 0.81774 0.97887 0.58589 0.0
C402 C 0.75147 0.92631 0.62308 0.0
C403 C 0.77947 0.92291 0.59715 0.0
C404 C 0.78637 0.90029 0.58401 0.0
C405 C 0.77062 0.96731 0.62202 0.0
C406 C 0.79584 0.98629 0.60874 0.0
C407 C 0.79859 0.96398 0.59611 0.0
C408 C 0.82256 0.02913 0.60865 0.0
C409 C 0.76511 0.99015 0.63546 0.0
C410 C 0.81828 0.05279 0.59708 0.0
C411 C 0.8423 0.09358 0.59777 0.0
C412 C 0.8711 0.11117 0.60999 0.0
C413 C 0.87663 0.08703 0.62098 0.0
C414 C 0.85251 0.04635 0.62031 0.0
H415 H 0.73727 0.97175 0.64218 0.0
H416 H 0.7898 0.00027 0.64422 0.0
H417 H 0.765 0.01641 0.63059 0.0
H418 H 0.79559 0.03981 0.58787 0.0
H419 H 0.83737 0.11132 0.58908 0.0
H420 H 0.93185 0.74089 0.14379 0.0
H421 H 0.87603 0.74939 0.13778 0.0
H422 H 0.85409 0.68238 0.09364 0.0
H423 H 0.91045 0.67385 0.09962 0.0
H424 H 0.86925 0.75753 0.08845 0.0
H425 H 0.75714 0.68927 0.13642 0.0
H426 H 0.80527 0.71641 0.14518 0.0
H427 H 0.79306 0.67445 0.13251 0.0
C428 C 0.91424 0.72667 0.13312 0.0
C429 C 0.92563 0.70703 0.1221 0.0
C430 C 0.88212 0.73131 0.12974 0.0
C431 C 0.86077 0.71635 0.11529 0.0
C432 C 0.87006 0.69388 0.10491 0.0
H433 H 0.72264 0.82241 0.08012 0.0
H434 H 0.75051 0.77906 0.08034 0.0
C435 C 0.90211 0.68889 0.10838 0.0
C436 C 0.83446 0.73083 0.10988 0.0
H437 H 0.76417 0.74933 0.12432 0.0
C438 C 0.84537 0.75477 0.09598 0.0
C439 C 0.80342 0.7272 0.11973 0.0
C440 C 0.78881 0.70007 0.1342 0.0
C441 C 0.82838 0.77789 0.09251 0.0
C442 C 0.79972 0.77668 0.10316 0.0
C443 C 0.78665 0.75051 0.11632 0.0
C444 C 0.78573 0.805 0.10185 0.0
C445 C 0.84305 0.80553 0.0782 0.0
C446 C 0.79718 0.83441 0.11366 0.0
C447 C 0.78155 0.8593 0.11357 0.0
C448 C 0.75389 0.85498 0.10171 0.0
C449 C 0.74396 0.82664 0.08941 0.0
C450 C 0.75971 0.80174 0.08951 0.0
H451 H 0.86758 0.80495 0.07177 0.0
H452 H 0.81864 0.79727 0.06944 0.0
H453 H 0.85319 0.83602 0.0823 0.0
H454 H 0.81747 0.8374 0.12322 0.0
H455 H 0.78991 0.88078 0.1232 0.0
H456 H 0.90086 0.72246 0.58173 0.0
H457 H 0.97233 0.75049 0.5808 0.0
H458 H 0.98483 0.81814 0.62385 0.0
H459 H 0.91386 0.79072 0.62492 0.0
H460 H 0.03617 0.83629 0.58157 0.0
H461 H 0.03677 0.7479 0.63388 0.0
H462 H -0.00638 0.73393 0.62156 0.0
H463 H 0.00773 0.77092 0.63699 0.0
C464 C 0.91886 0.74375 0.59087 0.0
C465 C 0.90159 0.75412 0.60349 0.0
C466 C 0.95959 0.75952 0.59034 0.0
C467 C 0.98345 0.78556 0.60246 0.0
C468 C 0.9666 0.79744 0.61457 0.0
H469 H 0.18982 0.94704 0.63986 0.0
H470 H 0.12683 0.8892 0.63357 0.0
C471 C 0.92606 0.78193 0.61508 0.0
C472 C 0.02614 0.80066 0.60279 0.0
H473 H 0.09776 0.80704 0.62809 0.0
C474 C 0.0499 0.82921 0.59142 0.0
C475 C 0.0436 0.79083 0.61558 0.0
C476 C 0.01914 0.75893 0.62763 0.0
C477 C 0.09082 0.85112 0.59347 0.0
C478 C 0.10804 0.84363 0.60712 0.0
C479 C 0.08444 0.81263 0.61764 0.0
C480 C 0.14813 0.87267 0.6125 0.0
C481 C 0.11487 0.88439 0.58187 0.0
C482 C 0.18142 0.88124 0.60322 0.0
C483 C 0.21773 0.91441 0.60686 0.0
C484 C 0.2208 0.9393 0.61973 0.0
C485 C 0.18815 0.92856 0.62978 0.0
C486 C 0.15218 0.89546 0.62623 0.0
H487 H 0.09636 0.8882 0.57267 0.0
H488 H 0.1319 0.91236 0.58866 0.0
H489 H 0.13612 0.87852 0.57539 0.0
H490 H 0.17884 0.86361 0.59268 0.0
H491 H 0.24248 0.92211 0.59891 0.0
H492 H 0.088 0.82989 0.40412 0.0
H493 H 0.01662 0.78597 0.40375 0.0
H494 H 0.00891 0.83956 0.35928 0.0
H495 H 0.07991 0.88352 0.35946 0.0
H496 H 0.95218 0.80384 0.40111 0.0
H497 H 0.96054 0.71905 0.34909 0.0
H498 H 0.00234 0.74979 0.36184 0.0
H499 H 0.98759 0.77129 0.34605 0.0
C500 C 0.07106 0.83286 0.39441 0.0
C501 C 0.08974 0.85995 0.3817 0.0
C502 C 0.03037 0.80757 0.3942 0.0
C503 C 0.00795 0.80896 0.38126 0.0
C504 C 0.02607 0.83757 0.36916 0.0
H505 H 0.79889 0.75359 0.34173 0.0
H506 H 0.86342 0.76261 0.34805 0.0
C507 C 0.0666 0.86288 0.36937 0.0
C508 C 0.96557 0.78044 0.38006 0.0
H509 H 0.8977 0.71389 0.35384 0.0
C510 C 0.94003 0.78332 0.39107 0.0
C511 C 0.95019 0.75348 0.36703 0.0
C512 C 0.97658 0.74784 0.35541 0.0
C513 C 0.89929 0.76253 0.38848 0.0
C514 C 0.88407 0.73795 0.37466 0.0
C515 C 0.90952 0.73271 0.36441 0.0
C516 C 0.84363 0.72418 0.36899 0.0
C517 C 0.87318 0.76955 0.39975 0.0
C518 C 0.81082 0.69772 0.37812 0.0
C519 C 0.77369 0.69239 0.37448 0.0
C520 C 0.76929 0.71372 0.36175 0.0
C521 C 0.80156 0.73713 0.35171 0.0
C522 C 0.83841 0.74223 0.35529 0.0
H523 H 0.89026 0.79245 0.409 0.0
H524 H 0.85502 0.77872 0.39272 0.0
H525 H 0.85294 0.74188 0.40619 0.0
H526 H 0.81435 0.68317 0.38862 0.0
H527 H 0.74927 0.67413 0.38241 0.0
H528 H 0.02526 0.79621 0.84447 0.0
H529 H 0.08508 0.85917 0.84806 0.0
H530 H 0.11792 0.81269 0.8888 0.0
H531 H 0.05748 0.74901 0.88523 0.0
H532 H 0.11153 0.87771 0.89629 0.0
H533 H 0.20269 0.90875 0.84142 0.0
H534 H 0.15225 0.89017 0.83599 0.0
H535 H 0.16588 0.85944 0.84719 0.0
C536 C 0.04582 0.79899 0.85387 0.0
C537 C 0.03671 0.76793 0.86464 0.0
C538 C 0.0802 0.8349 0.85583 0.0
C539 C 0.10613 0.84049 0.8686 0.0
C540 C 0.09842 0.80876 0.87877 0.0
H541 H 0.26717 0.08659 0.89768 0.0
H542 H 0.2373 0.01505 0.89784 0.0
C543 C 0.06403 0.77246 0.87669 0.0
C544 C 0.13684 0.88098 0.87273 0.0
H545 H 0.20522 0.96584 0.85457 0.0
C546 C 0.13301 0.89688 0.88743 0.0
C547 C 0.16478 0.90581 0.86115 0.0
C548 C 0.17191 0.89 0.84563 0.0
C549 C 0.15375 0.93754 0.89015 0.0
C550 C 0.179 0.96256 0.87791 0.0
C551 C 0.1853 0.94644 0.86382 0.0
C552 C 0.19584 0.00547 0.87866 0.0
C553 C 0.14638 0.95374 0.90551 0.0
C554 C 0.18192 0.02346 0.86796 0.0
C555 C 0.19872 0.06419 0.86783 0.0
C556 C 0.22998 0.08769 0.87837 0.0
C557 C 0.24306 0.06937 0.88944 0.0
C558 C 0.22613 0.02854 0.88955 0.0
H559 H 0.12329 0.93038 0.91321 0.0
H560 H 0.17394 0.96909 0.91269 0.0
H561 H 0.13732 0.97556 0.90248 0.0
H562 H 0.15837 0.00594 0.85951 0.0
H563 H 0.18796 0.07725 0.85914 0.0
H564 H 0.15535 0.2697 0.40017 0.0
H565 H 0.19626 0.23901 0.40002 0.0
H566 H 0.13723 0.17463 0.35674 0.0
H567 H 0.09629 0.20497 0.35671 0.0
H568 H 0.1732 0.15641 0.39968 0.0
H569 H 0.25642 0.23585 0.34474 0.0
H570 H 0.2285 0.25175 0.35674 0.0
H571 H 0.20404 0.21242 0.34232 0.0
C572 C 0.15073 0.24867 0.39071 0.0
C573 C 0.12271 0.24003 0.37837 0.0
C574 C 0.17426 0.23134 0.39063 0.0
C575 C 0.17033 0.20542 0.37815 0.0
C576 C 0.14124 0.19533 0.36627 0.0
H577 H 0.22031 0.03952 0.34464 0.0
H578 H 0.21059 0.09528 0.34886 0.0
C579 C 0.11764 0.21245 0.36636 0.0
C580 C 0.19627 0.1884 0.37742 0.0
H581 H 0.25888 0.178 0.352 0.0
C582 C 0.19268 0.16169 0.38949 0.0
C583 C 0.22187 0.19582 0.36416 0.0
C584 C 0.22832 0.22583 0.35132 0.0
C585 C 0.21161 0.13967 0.38794 0.0
C586 C 0.23521 0.14523 0.3741 0.0
C587 C 0.24085 0.1739 0.3626 0.0
C588 C 0.24833 0.11707 0.36999 0.0
C589 C 0.20387 0.10863 0.40049 0.0
C590 C 0.27451 0.11214 0.37998 0.0
C591 C 0.28023 0.08013 0.37756 0.0
C592 C 0.25963 0.05276 0.36518 0.0
C593 C 0.23623 0.0599 0.35439 0.0
C594 C 0.23071 0.09181 0.35676 0.0
H595 H 0.18095 0.10485 0.40936 0.0
H596 H 0.19436 0.07994 0.39451 0.0
H597 H 0.23135 0.11705 0.40729 0.0
H598 H 0.28884 0.13178 0.39011 0.0
H599 H 0.29844 0.07532 0.38605 0.0
H600 H 0.16309 0.21758 0.85052 0.0
H601 H 0.09914 0.20959 0.8575 0.0
H602 H 0.14875 0.27895 0.90078 0.0
H603 H 0.21326 0.28773 0.89372 0.0
H604 H 0.0818 0.19623 0.90429 0.0
H605 H 0.053 0.28636 0.86065 0.0
H606 H 0.07485 0.26002 0.85184 0.0
H607 H 0.10208 0.29806 0.86647 0.0
C608 C 0.16064 0.23204 0.86128 0.0
C609 C 0.19301 0.25312 0.87161 0.0
C610 C 0.12419 0.22761 0.86521 0.0
C611 C 0.11949 0.24386 0.87959 0.0
C612 C 0.15209 0.26655 0.88956 0.0
H613 H 0.87418 0.17774 0.89663 0.0
H614 H 0.94532 0.21529 0.90079 0.0
C615 C 0.18883 0.27159 0.88548 0.0
C616 C 0.07948 0.2322 0.88507 0.0
H617 H -0.00357 0.23106 0.87249 0.0
C618 C 0.06326 0.20459 0.89767 0.0
C619 C 0.05566 0.24337 0.87643 0.0
C620 C 0.07228 0.27386 0.86317 0.0
C621 C 0.02288 0.18544 0.90097 0.0
C622 C -0.00146 0.19431 0.89142 0.0
C623 C 0.0153 0.22424 0.87973 0.0
C624 C 0.95541 0.16956 0.89175 0.0
C625 C 0.00621 0.15454 0.91407 0.0
C626 C 0.93773 0.13121 0.88558 0.0
C627 C 0.89723 0.10981 0.883 0.0
C628 C 0.8738 0.12645 0.88663 0.0
C629 C 0.8914 0.16402 0.89375 0.0
C630 C 0.932 0.18558 0.89613 0.0
H631 H 0.02908 0.1585 0.92303 0.0
H632 H 0.98181 0.15523 0.92056 0.0
H633 H -0.00568 0.12511 0.90844 0.0
H634 H 0.95553 0.11864 0.88192 0.0
H635 H 0.88454 0.08094 0.87754 0.0
H636 H 0.93707 0.18762 0.34261 0.0
H637 H 0.88174 0.12142 0.34605 0.0
H638 H 0.84787 0.15726 0.38976 0.0
H639 H 0.9037 0.22404 0.38642 0.0
H640 H 0.864 0.0972 0.39439 0.0
H641 H 0.76266 0.06153 0.34248 0.0
H642 H 0.81277 0.0849 0.33581 0.0
H643 H 0.79681 0.1115 0.34851 0.0
C644 C 0.91713 0.18177 0.35267 0.0
C645 C 0.92486 0.2108 0.36434 0.0
C646 C 0.88529 0.14397 0.35455 0.0
C647 C 0.86059 0.13454 0.3681 0.0
C648 C 0.8665 0.16415 0.37916 0.0
H649 H 0.71556 0.88736 0.39779 0.0
H650 H 0.74557 0.95879 0.39837 0.0
C651 C 0.89828 0.20224 0.3772 0.0
C652 C 0.8337 0.09277 0.37196 0.0
H653 H 0.76629 0.00666 0.3543 0.0
C654 C 0.84178 0.07739 0.38589 0.0
C655 C 0.8049 0.06715 0.36082 0.0
C656 C 0.79351 0.08222 0.34616 0.0
C657 C 0.82402 0.03675 0.38828 0.0
C658 C 0.79734 0.01116 0.37651 0.0
C659 C 0.78726 0.02654 0.36317 0.0
C660 C 0.78163 0.96844 0.37714 0.0
C661 C 0.83573 0.02141 0.40277 0.0
C662 C 0.79262 0.95051 0.36516 0.0
C663 C 0.77566 0.90978 0.36477 0.0
C664 C 0.74715 0.88627 0.37631 0.0
C665 C 0.73749 0.90457 0.38873 0.0
C666 C 0.75453 0.94537 0.3891 0.0
H667 H 0.86075 0.04525 0.40956 0.0
H668 H 0.81036 0.00645 0.41116 0.0
H669 H 0.84397 -0.00049 0.39885 0.0
H670 H 0.8137 0.96805 0.35588 0.0
H671 H 0.78377 0.8967 0.35504 0.0
H672 H 0.87268 0.79054 0.86557 0.0
H673 H 0.83 0.81891 0.86667 0.0
H674 H 0.76421 0.74078 0.90584 0.0
H675 H 0.80678 0.71204 0.90494 0.0
H676 H 0.73949 0.7618 0.86336 0.0
H677 H 0.79016 0.85852 0.91809 0.0
H678 H 0.82392 0.84888 0.9069 0.0
H679 H 0.78539 0.81046 0.91856 0.0
C680 C 0.84975 0.77991 0.87468 0.0
C681 C 0.84297 0.74878 0.88506 0.0
C682 C 0.82532 0.79605 0.87523 0.0
C683 C 0.79394 0.78157 0.88623 0.0
C684 C 0.78839 0.75222 0.89729 0.0
H685 H 0.66724 0.91132 0.8863 0.0
H686 H 0.67248 0.85315 0.89272 0.0
C687 C 0.81286 0.736 0.89676 0.0
C688 C 0.76559 0.79549 0.88508 0.0
H689 H 0.74737 0.86529 0.90013 0.0
C690 C 0.74042 0.78378 0.87159 0.0
C691 C 0.76646 0.82344 0.89603 0.0
C692 C 0.79284 0.83628 0.91076 0.0
C693 C 0.71828 0.80173 0.86804 0.0
C694 C 0.7221 0.83249 0.87811 0.0
C695 C 0.74452 0.84165 0.89242 0.0
C696 C 0.7105 0.86076 0.87239 0.0
C697 C 0.69268 0.78913 0.85308 0.0
C698 C 0.72922 0.88341 0.8586 0.0
C699 C 0.72665 0.9166 0.85505 0.0
C700 C 0.70514 0.92757 0.86518 0.0
C701 C 0.68369 0.90315 0.87822 0.0
C702 C 0.68676 0.87009 0.88193 0.0
H703 H 0.68142 0.75761 0.85035 0.0
H704 H 0.66738 0.79403 0.8545 0.0
H705 H 0.71039 0.80647 0.84251 0.0
H706 H 0.74833 0.87721 0.85127 0.0
H707 H 0.74346 0.93503 0.84495 0.0
H708 H 0.02629 0.58414 0.10433 0.0
H709 H 0.0487 0.53679 0.10056 0.0
H710 H 0.10906 0.57116 0.14661 0.0
H711 H 0.08722 0.6187 0.1504 0.0
H712 H 0.15692 0.58736 0.11717 0.0
H713 H 0.03443 0.4323 0.12147 0.0
H714 H 0.02595 0.46698 0.1105 0.0
H715 H 0.0332 0.47191 0.13206 0.0
C716 C 0.04281 0.5803 0.11399 0.0
C717 C 0.05556 0.60541 0.12755 0.0
C718 C 0.05564 0.55331 0.11179 0.0
C719 C 0.08071 0.55087 0.12327 0.0
C720 C 0.08977 0.57282 0.13763 0.0
H721 H 0.24126 0.46854 0.13416 0.0
H722 H 0.20624 0.505 0.13419 0.0
C723 C 0.07725 0.59989 0.13978 0.0
C724 C 0.10334 0.53156 0.1191 0.0
H725 H 0.09711 0.44263 0.11448 0.0
C726 C 0.14387 0.5557 0.11653 0.0
C727 C 0.08594 0.49043 0.11799 0.0
C728 C 0.04251 0.46365 0.1207 0.0
C729 C 0.16783 0.53967 0.11328 0.0
C730 C 0.15079 0.49846 0.11287 0.0
C731 C 0.10998 0.47428 0.11484 0.0
C732 C 0.17516 0.47984 0.11169 0.0
C733 C 0.21116 0.56694 0.11041 0.0
C734 C 0.16959 0.45406 0.0989 0.0
C735 C 0.1896 0.43314 0.09883 0.0
C736 C 0.21508 0.43736 0.11168 0.0
C737 C 0.2219 0.46463 0.12408 0.0
C738 C 0.20198 0.48557 0.1241 0.0
H739 H 0.21732 0.5964 0.10633 0.0
H740 H 0.22735 0.5708 0.12195 0.0
H741 H 0.22272 0.55474 0.10119 0.0
H742 H 0.14894 0.44933 0.08924 0.0
H743 H 0.1836 0.41232 0.08912 0.0
H744 H 0.77855 0.2293 0.64823 0.0
H745 H 0.70689 0.19251 0.65042 0.0
H746 H 0.69858 0.14416 0.60259 0.0
H747 H 0.76996 0.18136 0.6001 0.0
H748 H 0.64646 0.16907 0.6071 0.0
H749 H 0.63918 0.07523 0.65876 0.0
H750 H 0.66904 0.12682 0.66284 0.0
H751 H 0.68363 0.10463 0.64729 0.0
C752 C 0.76149 0.21109 0.63812 0.0
C753 C 0.78003 0.20816 0.62402 0.0
C754 C 0.72058 0.18973 0.63948 0.0
C755 C 0.69759 0.1648 0.62685 0.0
C756 C 0.71588 0.16288 0.61255 0.0
H757 H 0.44349 0.02966 0.61269 0.0
H758 H 0.51218 0.04548 0.61229 0.0
C759 C 0.7567 0.18435 0.61114 0.0
C760 C 0.65432 0.14164 0.62828 0.0
H761 H 0.57945 0.07409 0.65189 0.0
C762 C 0.63177 0.14792 0.61676 0.0
C763 C 0.63533 0.11394 0.64087 0.0
C764 C 0.65801 0.10441 0.65305 0.0
C765 C 0.59073 0.12837 0.61784 0.0
C766 C 0.57181 0.1015 0.63067 0.0
C767 C 0.5942 0.09455 0.64202 0.0
C768 C 0.52915 0.08371 0.63325 0.0
C769 C 0.56796 0.13778 0.60562 0.0
C770 C 0.51578 0.09808 0.64578 0.0
C771 C 0.47674 0.08918 0.64604 0.0
C772 C 0.45052 0.06568 0.63379 0.0
C773 C 0.46303 0.04793 0.62226 0.0
C774 C 0.50225 0.05706 0.62196 0.0
H775 H 0.58749 0.16345 0.59792 0.0
H776 H 0.55106 0.11206 0.59756 0.0
H777 H 0.54666 0.14398 0.61189 0.0
H778 H 0.53619 0.11856 0.65463 0.0
H779 H 0.46781 0.10291 0.65519 0.0
H780 H 0.54007 0.75497 0.1309 0.0
H781 H 0.51286 0.68416 0.13277 0.0
H782 H 0.56495 0.68451 0.08666 0.0
H783 H 0.59231 0.75558 0.08456 0.0
H784 H 0.48628 0.62305 0.09076 0.0
H785 H 0.57974 0.63253 0.14286 0.0
H786 H 0.55439 0.65922 0.14613 0.0
H787 H 0.59044 0.67427 0.13022 0.0
C788 C 0.54544 0.74005 0.12103 0.0
C789 C 0.56867 0.76104 0.10764 0.0
C790 C 0.53022 0.69964 0.12222 0.0
C791 C 0.53801 0.6795 0.11009 0.0
C792 C 0.55925 0.6998 0.09626 0.0
H793 H 0.41434 0.42181 0.10797 0.0
H794 H 0.47063 0.48734 0.10287 0.0
C795 C 0.57458 0.74033 0.09505 0.0
C796 C 0.52312 0.63702 0.11188 0.0
H797 H 0.52138 0.56969 0.13848 0.0
C798 C 0.49453 0.6112 0.10094 0.0
C799 C 0.53442 0.62192 0.12511 0.0
C800 C 0.56675 0.64844 0.13666 0.0
C801 C 0.47442 0.57056 0.10366 0.0
C802 C 0.48385 0.55559 0.11753 0.0
C803 C 0.51434 0.5813 0.12785 0.0
C804 C 0.45786 0.51472 0.12291 0.0
C805 C 0.44126 0.5443 0.09235 0.0
C806 C 0.43415 0.50812 0.13658 0.0
C807 C 0.40223 0.47088 0.13957 0.0
C808 C 0.39359 0.43968 0.12892 0.0
C809 C 0.42013 0.44535 0.11634 0.0
C810 C 0.45213 0.48279 0.11333 0.0
H811 H 0.43464 0.56129 0.08338 0.0
H812 H 0.44935 0.52504 0.08556 0.0
H813 H 0.41413 0.52521 0.09936 0.0
H814 H 0.43835 0.5324 0.14419 0.0
H815 H 0.38261 0.46727 0.1495 0.0
H816 H 0.83448 0.59149 0.59201 0.0
H817 H 0.87419 0.56031 0.59548 0.0
H818 H 0.81401 0.50806 0.64035 0.0
H819 H 0.7746 0.53975 0.63719 0.0
H820 H 0.89588 0.54735 0.64308 0.0
H821 H 0.84398 0.44571 0.59017 0.0
H822 H 0.86091 0.49621 0.58535 0.0
H823 H 0.81766 0.46912 0.5976 0.0
C824 C 0.82906 0.57274 0.60246 0.0
C825 C 0.80132 0.5681 0.61433 0.0
C826 C 0.85185 0.55497 0.60442 0.0
C827 C 0.84691 0.53184 0.61814 0.0
C828 C 0.8183 0.52597 0.6297 0.0
H829 H 0.916 0.37983 0.65687 0.0
H830 H 0.90139 0.43271 0.65381 0.0
C831 C 0.79565 0.54389 0.62782 0.0
C832 C 0.87252 0.51493 0.62083 0.0
H833 H 0.89595 0.44886 0.60556 0.0
C834 C 0.89609 0.52595 0.63485 0.0
C835 C 0.87298 0.48738 0.60997 0.0
C836 C 0.84732 0.47358 0.59499 0.0
C837 C 0.9195 0.50936 0.63849 0.0
C838 C 0.91897 0.48092 0.6279 0.0
C839 C 0.89655 0.47103 0.61358 0.0
C840 C 0.937 0.45709 0.63226 0.0
C841 C 0.94415 0.52198 0.65373 0.0
C842 C 0.9632 0.45431 0.62154 0.0
C843 C 0.9716 0.42398 0.62324 0.0
C844 C 0.9533 0.39568 0.63553 0.0
C845 C 0.93028 0.40098 0.64719 0.0
C846 C 0.9221 0.4314 0.64553 0.0
H847 H 0.95134 0.55193 0.65755 0.0
H848 H 0.92741 0.5014 0.66372 0.0
H849 H 0.97194 0.52157 0.65199 0.0
H850 H 0.97488 0.47387 0.6112 0.0
H851 H 0.98952 0.42076 0.61408 0.0
H852 H 0.52273 0.8916 0.14415 0.0
H853 H 0.45657 0.88174 0.14208 0.0
H854 H 0.49264 0.96193 0.10159 0.0
H855 H 0.55927 0.9718 0.10348 0.0
H856 H 0.42141 0.93112 0.1409 0.0
H857 H 0.40984 0.85283 0.08286 0.0
H858 H 0.44962 0.86601 0.097 0.0
H859 H 0.44874 0.90307 0.08461 0.0
C860 C 0.51692 0.90792 0.13505 0.0
C861 C 0.54597 0.93195 0.1238 0.0
C862 C 0.47912 0.90234 0.13392 0.0
C863 C 0.46967 0.92051 0.12149 0.0
C864 C 0.49939 0.94727 0.11113 0.0
H865 H 0.22464 0.83015 0.09187 0.0
H866 H 0.29637 0.86972 0.09266 0.0
C867 C 0.53745 0.95307 0.1123 0.0
C868 C 0.42786 0.90722 0.11836 0.0
H869 H 0.3519 0.84666 0.09347 0.0
C870 C 0.40623 0.91324 0.1304 0.0
C871 C 0.40826 0.88384 0.10464 0.0
C872 C 0.43007 0.87571 0.09154 0.0
C873 C 0.3652 0.89531 0.12936 0.0
C874 C 0.34542 0.87011 0.11611 0.0
C875 C 0.36722 0.8658 0.10365 0.0
C876 C 0.30208 0.84588 0.11551 0.0
C877 C 0.34336 0.90301 0.14257 0.0
C878 C 0.28174 0.81843 0.12781 0.0
C879 C 0.24082 0.79567 0.1274 0.0
C880 C 0.21948 0.79974 0.11457 0.0
C881 C 0.24013 0.82625 0.10193 0.0
C882 C 0.28109 0.84907 0.10239 0.0
H883 H 0.36257 0.93149 0.14873 0.0
H884 H 0.31716 0.90321 0.13765 0.0
H885 H 0.33334 0.87946 0.15185 0.0
H886 H 0.29754 0.8147 0.1378 0.0
H887 H 0.22593 0.7754 0.13728 0.0
H888 H 0.6275 0.53599 0.64876 0.0
H889 H 0.57094 0.4699 0.6467 0.0
H890 H 0.53194 0.50347 0.60379 0.0
H891 H 0.58895 0.56994 0.60565 0.0
H892 H 0.486 0.43204 0.64278 0.0
H893 H 0.56587 0.42391 0.58828 0.0
H894 H 0.58857 0.46384 0.60262 0.0
H895 H 0.55259 0.46146 0.58852 0.0
C896 C 0.60629 0.5297 0.63915 0.0
C897 C 0.61306 0.55781 0.62715 0.0
C898 C 0.57391 0.49196 0.63804 0.0
C899 C 0.54791 0.48177 0.6249 0.0
C900 C 0.55213 0.51085 0.61389 0.0
H901 H 0.40567 0.23795 0.59275 0.0
H902 H 0.43609 0.30931 0.59407 0.0
C903 C 0.58456 0.54881 0.61503 0.0
C904 C 0.52097 0.43978 0.62151 0.0
H905 H 0.5129 0.36521 0.59767 0.0
C906 C 0.4913 0.4174 0.63276 0.0
C907 C 0.52829 0.42092 0.60847 0.0
C908 C 0.56066 0.44355 0.5963 0.0
C909 C 0.46939 0.37634 0.63156 0.0
C910 C 0.47815 0.35739 0.619 0.0
C911 C 0.5065 0.37991 0.60732 0.0
C912 C 0.45987 0.31423 0.61823 0.0
C913 C 0.43744 0.35363 0.64385 0.0
C914 C 0.46439 0.2936 0.63116 0.0
C915 C 0.44715 0.25282 0.63045 0.0
C916 C 0.42539 0.23202 0.61671 0.0
C917 C 0.42226 0.25303 0.60351 0.0
C918 C 0.43939 0.29379 0.60427 0.0
H919 H 0.42625 0.37205 0.6492 0.0
H920 H 0.41244 0.32713 0.6383 0.0
H921 H 0.44957 0.34405 0.65388 0.0
H922 H 0.48119 0.30904 0.64183 0.0
H923 H 0.45031 0.2376 0.64079 0.0
H924 H 0.35566 0.89499 0.33795 0.0
H925 H 0.41048 0.88281 0.33991 0.0
H926 H 0.45596 0.96073 0.38111 0.0
H927 H 0.40077 0.97299 0.3793 0.0
H928 H 0.49612 0.92904 0.34222 0.0
H929 H 0.4209 0.84816 0.39877 0.0
H930 H 0.39733 0.86427 0.38436 0.0
H931 H 0.43508 0.89922 0.39754 0.0
C932 C 0.37794 0.91048 0.34714 0.0
C933 C 0.37362 0.93438 0.35866 0.0
C934 C 0.40929 0.90356 0.34821 0.0
C935 C 0.43666 0.92026 0.36085 0.0
C936 C 0.43472 0.94725 0.3714 0.0
H937 H 0.58104 0.82087 0.39262 0.0
H938 H 0.5497 0.86093 0.39135 0.0
C939 C 0.40337 0.95441 0.37027 0.0
C940 C 0.4631 0.90465 0.36419 0.0
H941 H 0.47211 0.84004 0.38894 0.0
C942 C 0.49143 0.91011 0.35256 0.0
C943 C 0.45662 0.87983 0.37768 0.0
C944 C 0.42573 0.87216 0.3903 0.0
C945 C 0.51281 0.89049 0.35385 0.0
C946 C 0.50485 0.86411 0.3669 0.0
C947 C 0.47786 0.86009 0.37891 0.0
C948 C 0.52275 0.83894 0.36789 0.0
C949 C 0.54338 0.89785 0.34115 0.0
C950 C 0.51662 0.8122 0.3554 0.0
C951 C 0.53436 0.78917 0.35608 0.0
C952 C 0.55831 0.79226 0.36934 0.0
C953 C 0.5628 0.81775 0.38221 0.0
C954 C 0.54513 0.84085 0.38148 0.0
H955 H 0.55432 0.92681 0.33517 0.0
H956 H 0.56875 0.89679 0.34651 0.0
H957 H 0.53005 0.87485 0.33163 0.0
H958 H 0.4984 0.80942 0.34504 0.0
H959 H 0.53007 0.76969 0.34601 0.0
H960 H 0.73749 0.53944 0.84974 0.0
H961 H 0.66631 0.51067 0.8488 0.0
H962 H 0.66779 0.5551 0.89683 0.0
H963 H 0.7392 0.58379 0.89802 0.0
H964 H 0.60929 0.47783 0.89227 0.0
H965 H 0.60773 0.57118 0.84236 0.0
H966 H 0.63535 0.54768 0.83731 0.0
H967 H 0.65175 0.58288 0.85362 0.0
C968 C 0.72275 0.5429 0.86018 0.0
C969 C 0.74409 0.56412 0.87392 0.0
C970 C 0.68212 0.52684 0.85953 0.0
C971 C 0.6621 0.5319 0.87253 0.0
C972 C 0.68293 0.55151 0.88657 0.0
H973 H 0.40544 0.40116 0.88113 0.0
H974 H 0.47097 0.45862 0.8846 0.0
C975 C 0.72366 0.56759 0.88726 0.0
C976 C 0.61912 0.51511 0.87161 0.0
H977 H 0.54681 0.5108 0.84724 0.0
C978 C 0.59548 0.48559 0.88268 0.0
C979 C 0.6014 0.52568 0.85914 0.0
C980 C 0.62539 0.55889 0.84753 0.0
C981 C 0.55456 0.46414 0.88085 0.0
C982 C 0.53698 0.47307 0.86776 0.0
C983 C 0.56045 0.50418 0.85727 0.0
C984 C 0.49547 0.44635 0.8634 0.0
C985 C 0.53076 0.43028 0.89225 0.0
C986 C 0.48707 0.42247 0.84965 0.0
C987 C 0.44978 0.3898 0.84758 0.0
C988 C 0.42038 0.38059 0.85927 0.0
C989 C 0.42758 0.40728 0.87199 0.0
C990 C 0.46503 0.44001 0.87405 0.0
H991 H 0.54963 0.42415 0.90037 0.0
H992 H 0.51194 0.43726 0.89996 0.0
H993 H 0.51125 0.4032 0.88527 0.0
H994 H 0.5102 0.42715 0.84123 0.0
H995 H 0.44496 0.37015 0.83752 0.0
H996 H 0.2002 0.75622 0.35477 0.0
H997 H 0.15686 0.68516 0.35435 0.0
H998 H 0.10962 0.69001 0.40097 0.0
H999 H 0.15305 0.76135 0.40161 0.0
H1000 H 0.12773 0.62878 0.39736 0.0
H1001 H 0.03663 0.63122 0.34654 0.0
H1002 H 0.08838 0.6583 0.34231 0.0
H1003 H 0.06868 0.67437 0.35834 0.0
C1004 C 0.18098 0.74226 0.36505 0.0
C1005 C 0.1799 0.76457 0.37817 0.0
C1006 C 0.15593 0.70169 0.36469 0.0
C1007 C 0.12933 0.68269 0.3774 0.0
C1008 C 0.12958 0.70439 0.39093 0.0
H1009 H -0.00347 0.42514 0.3842 0.0
H1010 H 0.00677 0.49117 0.38873 0.0
C1011 C 0.1546 0.74508 0.39131 0.0
C1012 C 0.10186 0.63997 0.37651 0.0
H1013 H 0.03312 0.56931 0.35177 0.0
C1014 C 0.10632 0.61561 0.38765 0.0
C1015 C 0.07376 0.62316 0.3639 0.0
C1016 C 0.06622 0.64812 0.35218 0.0
C1017 C 0.08572 0.5747 0.38571 0.0
C1018 C 0.05953 0.55797 0.37243 0.0
C1019 C 0.05314 0.58227 0.36194 0.0
C1020 C 0.04422 0.5166 0.36774 0.0
C1021 C 0.09437 0.54999 0.39716 0.0
C1022 C 0.05949 0.50869 0.35381 0.0
C1023 C 0.0536 0.47119 0.35115 0.0
C1024 C 0.03226 0.44099 0.36239 0.0
C1025 C 0.01327 0.4479 0.37537 0.0
C1026 C 0.0193 0.48563 0.37805 0.0
H1027 H 0.11913 0.56816 0.40553 0.0
H1028 H 0.06793 0.53131 0.4046 0.0
H1029 H 0.1017 0.53032 0.39022 0.0
H1030 H 0.07857 0.53222 0.34565 0.0
H1031 H 0.06817 0.4666 0.34093 0.0
H1032 H 0.57243 0.01665 0.86897 0.0
H1033 H 0.52204 0.03556 0.86976 0.0
H1034 H 0.57038 0.10496 0.82645 0.0
H1035 H 0.62082 0.08627 0.8255 0.0
H1036 H 0.55494 0.1198 0.87273 0.0
H1037 H 0.449 0.0565 0.82148 0.0
H1038 H 0.47535 0.03345 0.82946 0.0
H1039 H 0.4999 0.07556 0.81645 0.0
C1040 C 0.57139 0.0346 0.85922 0.0
C1041 C 0.60102 0.05058 0.84734 0.0
C1042 C 0.54262 0.04542 0.85973 0.0
C1043 C 0.54271 0.07171 0.8482 0.0
C1044 C 0.56964 0.08432 0.83535 0.0
H1045 H 0.44327 0.22365 0.84162 0.0
H1046 H 0.4809 0.19031 0.83742 0.0
C1047 C 0.59857 0.07376 0.83489 0.0
C1048 C 0.52045 0.09196 0.85136 0.0
H1049 H 0.45032 0.10953 0.83589 0.0
C1050 C 0.53171 0.11724 0.8648 0.0
C1051 C 0.49091 0.08908 0.84076 0.0
C1052 C 0.47775 0.062 0.82627 0.0
C1053 C 0.51455 0.14031 0.86783 0.0
C1054 C 0.48466 0.13719 0.85734 0.0
C1055 C 0.47331 0.11182 0.84389 0.0
C1056 C 0.46416 0.15935 0.86036 0.0
C1057 C 0.52939 0.16859 0.88196 0.0
C1058 C 0.44284 0.15332 0.87474 0.0
C1059 C 0.42169 0.17256 0.87727 0.0
C1060 C 0.42103 0.1978 0.86533 0.0
C1061 C 0.44325 0.20451 0.85108 0.0
C1062 C 0.46456 0.18533 0.8486 0.0
H1063 H 0.55939 0.1757 0.88574 0.0
H1064 H 0.53 0.19637 0.87891 0.0
H1065 H 0.50951 0.155 0.8925 0.0
H1066 H 0.44164 0.13285 0.88384 0.0
H1067 H 0.4047 0.16646 0.88833 0.0
H1068 H 0.22079 0.41072 0.39466 0.0
H1069 H 0.29234 0.44597 0.39194 0.0
H1070 H 0.28286 0.49371 0.34611 0.0
H1071 H 0.21152 0.45913 0.34875 0.0
H1072 H 0.33423 0.43597 0.36611 0.0
H1073 H 0.3662 0.58984 0.37095 0.0
H1074 H 0.32013 0.54849 0.37744 0.0
H1075 H 0.32885 0.56124 0.35627 0.0
C1076 C 0.23393 0.42933 0.38415 0.0
C1077 C 0.21042 0.43212 0.37191 0.0
C1078 C 0.27476 0.4492 0.38258 0.0
C1079 C 0.29269 0.47242 0.36886 0.0
C1080 C 0.26949 0.47628 0.35689 0.0
H1081 H 0.52159 0.61581 0.33055 0.0
H1082 H 0.45232 0.56578 0.33282 0.0
C1083 C 0.22871 0.45647 0.35843 0.0
C1084 C 0.33556 0.49139 0.36663 0.0
H1085 H 0.41749 0.58051 0.36074 0.0
C1086 C 0.35263 0.46759 0.36506 0.0
C1087 C 0.35924 0.53257 0.36534 0.0
C1088 C 0.34279 0.55958 0.36774 0.0
C1089 C 0.39284 0.48406 0.36168 0.0
C1090 C 0.41615 0.52513 0.35992 0.0
C1091 C 0.3992 0.54887 0.36185 0.0
C1092 C 0.45853 0.54499 0.35634 0.0
C1093 C 0.40999 0.45762 0.35963 0.0
C1094 C 0.48516 0.54793 0.36838 0.0
C1095 C 0.52492 0.57635 0.36705 0.0
C1096 C 0.53806 0.60238 0.3538 0.0
C1097 C 0.51208 0.5963 0.34095 0.0
C1098 C 0.47255 0.56777 0.34223 0.0
H1099 H 0.38681 0.42624 0.35852 0.0
H1100 H 0.42907 0.46622 0.3487 0.0
H1101 H 0.4285 0.46076 0.37034 0.0
H1102 H 0.47472 0.53085 0.37944 0.0
H1103 H 0.54433 0.58056 0.37715 0.0
H1104 H 0.96529 0.55605 0.86458 0.0
H1105 H 0.9606 0.49189 0.8611 0.0
H1106 H 0.8478 0.44779 0.83779 0.0
H1107 H 0.85305 0.51122 0.84042 0.0
H1108 H 0.91118 0.42726 0.8746 0.0
H1109 H 0.89024 0.39823 0.80932 0.0
H1110 H 0.90798 0.44692 0.81737 0.0
H1111 H 0.85585 0.41287 0.81538 0.0
C1112 C 0.94006 0.5329 0.85831 0.0
C1113 C 0.90952 0.53878 0.85283 0.0
C1114 C 0.9374 0.49627 0.85634 0.0
C1115 C 0.90419 0.46512 0.84888 0.0
C1116 C 0.87441 0.47154 0.84302 0.0
H1117 H 0.76625 0.23093 0.87873 0.0
H1118 H 0.80651 0.30215 0.87546 0.0
C1119 C 0.87726 0.50796 0.84476 0.0
C1120 C 0.89724 0.42446 0.8491 0.0
H1121 H 0.8511 0.34008 0.82697 0.0
C1122 C 0.89912 0.40836 0.86406 0.0
C1123 C 0.88274 0.39977 0.8353 0.0
C1124 C 0.88462 0.41564 0.81844 0.0
C1125 C 0.88327 0.36777 0.86592 0.0
C1126 C 0.86333 0.34257 0.85267 0.0
C1127 C 0.86504 0.35907 0.83734 0.0
C1128 C 0.83867 0.29935 0.85458 0.0
C1129 C 0.88768 0.35255 0.88215 0.0
C1130 C 0.84138 0.27397 0.84335 0.0
C1131 C 0.817 0.23341 0.84475 0.0
C1132 C 0.79004 0.21744 0.85761 0.0
C1133 C 0.787 0.24265 0.86878 0.0
C1134 C 0.81051 0.28329 0.86706 0.0
H1135 H 0.91575 0.37403 0.88808 0.0
H1136 H 0.86347 0.34853 0.8903 0.0
H1137 H 0.887 0.32413 0.88095 0.0
H1138 H 0.86259 0.28551 0.83355 0.0
H1139 H 0.82019 0.21446 0.8361 0.0
H1140 H 0.07688 0.36911 0.2995 0.0
H1141 H 0.09599 0.36817 0.27123 0.0
H1142 H 0.12339 0.27786 0.28341 0.0
H1143 H 0.10168 0.27678 0.3112 0.0
H1144 H 0.16173 0.38671 0.25881 0.0
H1145 H 0.06384 0.23077 0.24355 0.0
H1146 H 0.05788 0.25198 0.26195 0.0
H1147 H 0.09233 0.2344 0.26111 0.0
C1148 C 0.08621 0.34852 0.29598 0.0
C1149 C 0.08729 0.32262 0.30741 0.0
C1150 C 0.09727 0.34808 0.27987 0.0
C1151 C 0.11039 0.32233 0.27504 0.0
C1152 C 0.11192 0.29686 0.28659 0.0
H1153 H 0.26335 0.36694 0.19151 0.0
H1154 H 0.23631 0.36552 0.21851 0.0
C1155 C 0.09975 0.29645 0.30253 0.0
C1156 C 0.12476 0.32369 0.25825 0.0
H1157 H 0.12153 0.26563 0.22688 0.0
C1158 C 0.15245 0.36026 0.25172 0.0
C1159 C 0.11226 0.28936 0.24881 0.0
C1160 C 0.07961 0.24955 0.25417 0.0
C1161 C 0.16855 0.36337 0.23621 0.0
C1162 C 0.15829 0.32872 0.22732 0.0
C1163 C 0.13004 0.29224 0.23374 0.0
C1164 C 0.1754 0.32935 0.21115 0.0
C1165 C 0.19551 0.40388 0.22947 0.0
C1166 C 0.15048 0.30789 0.19823 0.0
C1167 C 0.16601 0.30719 0.18311 0.0
C1168 C 0.20672 0.32874 0.18047 0.0
C1169 C 0.23182 0.35036 0.19329 0.0
C1170 C 0.21631 0.34994 0.20863 0.0
H1171 H 0.18932 0.42599 0.23497 0.0
H1172 H 0.2264 0.41277 0.23243 0.0
H1173 H 0.19255 0.4047 0.21608 0.0
H1174 H 0.11886 0.29176 0.19979 0.0
H1175 H 0.14606 0.29058 0.17334 0.0
H1176 H 0.94341 0.1805 0.68076 0.0
H1177 H 0.92625 0.15047 0.70771 0.0
H1178 H 0.87074 0.21811 0.71914 0.0
H1179 H 0.8878 0.24851 0.69226 0.0
H1180 H 0.91882 0.21152 0.74496 0.0
H1181 H 0.80813 0.06859 0.71765 0.0
H1182 H 0.85746 0.09123 0.70986 0.0
H1183 H 0.82858 0.11427 0.70659 0.0
C1184 C 0.92806 0.18949 0.68907 0.0
C1185 C 0.91655 0.2166 0.68428 0.0
C1186 C 0.91819 0.17216 0.70443 0.0
C1187 C 0.89676 0.1817 0.71523 0.0
C1188 C 0.88718 0.21032 0.71088 0.0
H1189 H 0.7412 0.08313 0.79361 0.0
H1190 H 0.77481 0.10469 0.76753 0.0
C1191 C 0.89693 0.22762 0.69551 0.0
C1192 C 0.88198 0.16019 0.73067 0.0
H1193 H 0.81201 0.07207 0.74615 0.0
C1194 C 0.8959 0.18088 0.74529 0.0
C1195 C 0.85188 0.12032 0.73092 0.0
C1196 C 0.8353 0.09717 0.71545 0.0
C1197 C 0.8797 0.16294 0.76023 0.0
C1198 C 0.84902 0.12333 0.76045 0.0
C1199 C 0.83583 0.10233 0.74586 0.0
C1200 C 0.82729 0.10487 0.77552 0.0
C1201 C 0.89412 0.18694 0.77561 0.0
C1202 C 0.84524 0.09643 0.78839 0.0
C1203 C 0.82603 0.08389 0.80333 0.0
C1204 C 0.78873 0.07994 0.80558 0.0
C1205 C 0.77001 0.0862 0.79231 0.0
C1206 C 0.78911 0.09845 0.7774 0.0
H1207 H 0.91473 0.21853 0.77311 0.0
H1208 H 0.86892 0.18422 0.78275 0.0
H1209 H 0.90959 0.17565 0.78323 0.0
H1210 H 0.87461 0.10091 0.78705 0.0
H1211 H 0.84122 0.07927 0.81331 0.0
H1212 H 0.73537 0.91355 0.17536 0.0
H1213 H 0.7387 0.89267 0.20305 0.0
H1214 H 0.61218 0.82986 0.20585 0.0
H1215 H 0.60836 0.8503 0.17824 0.0
H1216 H 0.70548 0.90234 0.23305 0.0
H1217 H 0.64473 0.74617 0.21548 0.0
H1218 H 0.66429 0.78566 0.20083 0.0
H1219 H 0.61588 0.7675 0.20903 0.0
C1220 C 0.70823 0.89557 0.18191 0.0
C1221 C 0.67157 0.88331 0.17452 0.0
C1222 C 0.71024 0.88367 0.19771 0.0
C1223 C 0.67568 0.85917 0.2063 0.0
C1224 C 0.63914 0.84819 0.19925 0.0
H1225 H 0.60565 0.74557 0.29859 0.0
H1226 H 0.61157 0.76881 0.27068 0.0
C1227 C 0.63707 0.86011 0.1835 0.0
C1228 C 0.67758 0.84446 0.22258 0.0
H1229 H 0.6504 0.76013 0.24376 0.0
C1230 C 0.69382 0.87133 0.23542 0.0
C1231 C 0.66242 0.80399 0.22551 0.0
C1232 C 0.64614 0.77411 0.21198 0.0
C1233 C 0.69389 0.85856 0.25133 0.0
C1234 C 0.67796 0.81796 0.25432 0.0
C1235 C 0.66254 0.79122 0.24139 0.0
C1236 C 0.67512 0.80242 0.27092 0.0
C1237 C 0.7096 0.88841 0.26489 0.0
C1238 C 0.70899 0.81282 0.28011 0.0
C1239 C 0.70577 0.79964 0.29611 0.0
C1240 C 0.66856 0.77565 0.30312 0.0
C1241 C 0.63476 0.76412 0.29361 0.0
C1242 C 0.63804 0.77735 0.27765 0.0
H1243 H 0.71282 0.91697 0.26109 0.0
H1244 H 0.68997 0.87749 0.27565 0.0
H1245 H 0.73897 0.89365 0.26861 0.0
H1246 H 0.7379 0.83151 0.27498 0.0
H1247 H 0.73239 0.80888 0.30306 0.0
H1248 H 0.75065 0.62286 0.68331 0.0
H1249 H 0.76904 0.62975 0.71191 0.0
H1250 H 0.84365 0.75475 0.70563 0.0
H1251 H 0.82583 0.74819 0.67684 0.0
H1252 H 0.88041 0.71931 0.72141 0.0
H1253 H 0.73604 0.6745 0.74944 0.0
H1254 H 0.73348 0.63969 0.73471 0.0
H1255 H 0.74642 0.68846 0.72834 0.0
C1256 C 0.77065 0.65193 0.688 0.0
C1257 C 0.78674 0.68499 0.67777 0.0
C1258 C 0.78094 0.65582 0.70439 0.0
C1259 C 0.80721 0.69283 0.71091 0.0
C1260 C 0.82309 0.72598 0.70082 0.0
H1261 H 0.90565 0.74233 0.80974 0.0
H1262 H 0.89076 0.75161 0.78173 0.0
C1263 C 0.81283 0.72214 0.68439 0.0
C1264 C 0.81977 0.69621 0.72805 0.0
H1265 H 0.78413 0.67203 0.76664 0.0
C1266 C 0.85955 0.70964 0.73136 0.0
C1267 C 0.79243 0.6837 0.74095 0.0
C1268 C 0.74978 0.67116 0.73822 0.0
C1269 C 0.87236 0.70887 0.7472 0.0
C1270 C 0.84464 0.6946 0.75995 0.0
C1271 C 0.80519 0.68266 0.75675 0.0
C1272 C 0.8554 0.68951 0.77658 0.0
C1273 C 0.91498 0.7216 0.75011 0.0
C1274 C 0.84038 0.65155 0.78284 0.0
C1275 C 0.84879 0.64609 0.79876 0.0
C1276 C 0.87216 0.67858 0.80876 0.0
C1277 C 0.88763 0.71668 0.80235 0.0
C1278 C 0.87926 0.72208 0.78636 0.0
H1279 H 0.93154 0.72674 0.73858 0.0
H1280 H 0.929 0.74929 0.75723 0.0
H1281 H 0.91746 0.69906 0.75731 0.0
H1282 H 0.82188 0.6261 0.77541 0.0
H1283 H 0.83636 0.61636 0.80328 0.0
H1284 H 0.05573 0.80095 0.18245 0.0
H1285 H 0.07343 0.82324 0.21053 0.0
H1286 H 0.1425 0.76622 0.21329 0.0
H1287 H 0.12473 0.74338 0.18533 0.0
H1288 H 0.09515 0.75534 0.24103 0.0
H1289 H 0.18449 0.91243 0.22307 0.0
H1290 H 0.13452 0.88712 0.21596 0.0
H1291 H 0.16847 0.87279 0.20862 0.0
C1292 C 0.07436 0.79279 0.18906 0.0
C1293 C 0.08911 0.77067 0.18158 0.0
C1294 C 0.08462 0.80577 0.20507 0.0
C1295 C 0.10985 0.79698 0.21381 0.0
C1296 C 0.1232 0.77351 0.20666 0.0
H1297 H 0.22838 0.84977 0.306 0.0
H1298 H 0.20314 0.82757 0.27861 0.0
C1299 C 0.11299 0.76051 0.19068 0.0
C1300 C 0.12329 0.81297 0.2303 0.0
H1301 H 0.17935 0.89837 0.25112 0.0
C1302 C 0.11346 0.7866 0.24327 0.0
C1303 C 0.14714 0.85378 0.23311 0.0
C1304 C 0.15962 0.88327 0.21946 0.0
C1305 C 0.12694 0.79998 0.25905 0.0
C1306 C 0.15143 0.84072 0.26181 0.0
C1307 C 0.16064 0.86716 0.2489 0.0
C1308 C 0.16851 0.85628 0.27796 0.0
C1309 C 0.11467 0.77044 0.27267 0.0
C1310 C 0.15865 0.88113 0.28635 0.0
C1311 C 0.17322 0.89413 0.30199 0.0
C1312 C 0.19805 0.88259 0.30945 0.0
C1313 C 0.20912 0.85899 0.30069 0.0
C1314 C 0.19453 0.84605 0.28507 0.0
H1315 H 0.08813 0.74215 0.26942 0.0
H1316 H 0.13888 0.76448 0.27527 0.0
H1317 H 0.10852 0.78191 0.28394 0.0
H1318 H 0.13886 0.8896 0.28095 0.0
H1319 H 0.1642 0.91237 0.30837 0.0
H1320 H 0.35528 0.24141 0.80038 0.0
H1321 H 0.34892 0.21549 0.77293 0.0
H1322 H 0.22466 0.13854 0.78027 0.0
H1323 H 0.23054 0.16416 0.80789 0.0
H1324 H 0.31243 0.12608 0.76843 0.0
H1325 H 0.24171 0.19593 0.73373 0.0
H1326 H 0.27177 0.2192 0.75142 0.0
H1327 H 0.22406 0.17669 0.75379 0.0
C1328 C 0.32641 0.21947 0.79612 0.0
C1329 C 0.29345 0.20467 0.8064 0.0
C1330 C 0.3229 0.20469 0.78044 0.0
C1331 C 0.28639 0.17517 0.77468 0.0
C1332 C 0.25303 0.16153 0.78454 0.0
H1333 H 0.24356 0.06741 0.67814 0.0
H1334 H 0.23265 0.08173 0.70597 0.0
C1335 C 0.2565 0.17621 0.8003 0.0
C1336 C 0.28422 0.15663 0.75887 0.0
H1337 H 0.25947 0.1558 0.71911 0.0
C1338 C 0.30055 0.13223 0.75765 0.0
C1339 C 0.26822 0.16443 0.74498 0.0
C1340 C 0.25045 0.19055 0.74588 0.0
C1341 C 0.30233 0.11618 0.7427 0.0
C1342 C 0.28821 0.12562 0.7286 0.0
C1343 C 0.27038 0.14875 0.72995 0.0
C1344 C 0.2944 0.11434 0.71221 0.0
C1345 C 0.31953 0.0895 0.74214 0.0
C1346 C 0.33272 0.12786 0.70656 0.0
C1347 C 0.33909 0.1197 0.69074 0.0
C1348 C 0.30722 0.09812 0.68018 0.0
C1349 C 0.26876 0.08401 0.68597 0.0
C1350 C 0.26244 0.09222 0.70184 0.0
H1351 H 0.317 0.07529 0.75409 0.0
H1352 H 0.30478 0.06627 0.73278 0.0
H1353 H 0.35123 0.1071 0.73908 0.0
H1354 H 0.35783 0.1457 0.71426 0.0
H1355 H 0.36908 0.13119 0.68668 0.0
H1356 H 0.32837 0.32277 0.92659 0.0
H1357 H 0.32783 0.33484 0.95561 0.0
H1358 H 0.33405 0.23083 0.96627 0.0
H1359 H 0.33421 0.21814 0.93717 0.0
H1360 H 0.27325 0.23407 0.98216 0.0
H1361 H 0.4144 0.37319 0.99022 0.0
H1362 H 0.38502 0.37483 0.97385 0.0
H1363 H 0.4041 0.34186 0.97269 0.0
C1364 C 0.33012 0.30266 0.93507 0.0
C1365 C 0.33118 0.26938 0.92955 0.0
C1366 C 0.33012 0.30981 0.95166 0.0
C1367 C 0.33142 0.284 0.96305 0.0
C1368 C 0.33331 0.25122 0.95763 0.0
H1369 H 0.34033 0.31896 0.06804 0.0
H1370 H 0.35486 0.30829 0.04025 0.0
C1371 C 0.3334 0.24405 0.94101 0.0
C1372 C 0.32727 0.2895 0.98054 0.0
H1373 H 0.36698 0.35567 0.01154 0.0
C1374 C 0.29397 0.26043 0.98865 0.0
C1375 C 0.35453 0.32379 0.98897 0.0
C1376 C 0.39173 0.35505 0.98104 0.0
C1377 C 0.28641 0.26541 0.00484 0.0
C1378 C 0.31262 0.30056 0.013 0.0
C1379 C 0.34672 0.32898 0.00512 0.0
C1380 C 0.30463 0.30849 0.02967 0.0
C1381 C 0.25036 0.23313 0.01307 0.0
C1382 C 0.27201 0.3129 0.03278 0.0
C1383 C 0.26362 0.31908 0.04861 0.0
C1384 C 0.28777 0.32097 0.0616 0.0
C1385 C 0.321 0.31745 0.05834 0.0
C1386 C 0.32942 0.31141 0.04248 0.0
H1387 H 0.23871 0.20466 0.00659 0.0
H1388 H 0.25692 0.22924 0.02584 0.0
H1389 H 0.22701 0.24109 0.01322 0.0
H1390 H 0.25291 0.31131 0.02296 0.0
H1391 H 0.2379 0.32182 0.05068 0.0
H1392 H -0.00127 0.36186 0.42548 0.0
H1393 H 0.9832 0.36356 0.45411 0.0
H1394 H 0.05338 0.31157 0.46722 0.0
H1395 H 0.07067 0.31181 0.43871 0.0
H1396 H 0.94431 0.30739 0.47403 0.0
H1397 H 0.09301 0.39686 0.49981 0.0
H1398 H 0.08424 0.39234 0.4782 0.0
H1399 H 0.08944 0.35552 0.48917 0.0
C1400 C 0.01119 0.35123 0.43451 0.0
C1401 C 0.03604 0.33687 0.42991 0.0
C1402 C 0.00233 0.35224 0.45086 0.0
C1403 C 0.0177 0.3384 0.46288 0.0
C1404 C 0.04226 0.3237 0.45826 0.0
H1405 H 0.91362 0.2379 0.55439 0.0
H1406 H 0.93058 0.25405 0.52586 0.0
C1407 C 0.05185 0.3235 0.44194 0.0
C1408 C 0.00598 0.33689 0.48011 0.0
H1409 H 0.04197 0.35574 0.51878 0.0
C1410 C 0.96574 0.31854 0.4838 0.0
C1411 C 0.03383 0.35225 0.49288 0.0
C1412 C 0.07751 0.37574 0.48978 0.0
C1413 C 0.95255 0.31356 0.49991 0.0
C1414 C 0.9803 0.32575 0.5127 0.0
C1415 C 0.02059 0.34574 0.509 0.0
C1416 C 0.96832 0.3165 0.52995 0.0
C1417 C 0.90903 0.29545 0.50296 0.0
C1418 C 0.98477 0.34599 0.54186 0.0
C1419 C 0.97596 0.33661 0.55826 0.0
C1420 C 0.95017 0.29763 0.56301 0.0
C1421 C 0.93313 0.26829 0.55106 0.0
C1422 C 0.94258 0.27756 0.53472 0.0
H1423 H 0.89441 0.30175 0.49279 0.0
H1424 H 0.89549 0.26308 0.50381 0.0
H1425 H 0.90308 0.30647 0.51441 0.0
H1426 H 0.00486 0.37621 0.53848 0.0
H1427 H 0.98948 0.35981 0.56723 0.0
H1428 H 0.65859 0.89919 0.04248 0.0
H1429 H 0.66 0.92153 0.0146 0.0
H1430 H 0.64868 0.01831 0.03246 0.0
H1431 H 0.64706 -0.0037 0.06035 0.0
H1432 H 0.59946 0.97632 0.00452 0.0
H1433 H 0.75752 0.02349 -0.00324 0.0
H1434 H 0.72677 0.97391 0.00374 0.0
H1435 H 0.7343 0.01419 0.01645 0.0
C1436 C 0.65613 0.92507 0.04049 0.0
C1437 C 0.65308 0.94615 0.05365 0.0
C1438 C 0.65704 0.93781 0.02457 0.0
C1439 C 0.65489 0.97176 0.02157 0.0
C1440 C 0.65049 0.9921 0.0346 0.0
H1441 H 0.72883 0.10456 0.93184 0.0
H1442 H 0.71531 0.0866 0.9605 0.0
C1443 C 0.64972 0.97951 0.05051 0.0
C1444 C 0.65877 0.98697 0.00488 0.0
H1445 H 0.72355 0.02593 0.97348 0.0
C1446 C 0.62656 0.98729 -0.0023 0.0
C1447 C 0.69442 0.00183 -0.00378 0.0
C1448 C 0.73041 0.00375 0.00368 0.0
C1449 C 0.62882 0.00126 0.98181 0.0
C1450 C 0.66409 0.0149 0.97296 0.0
C1451 C 0.69652 0.01537 0.98031 0.0
C1452 C 0.66791 0.02752 0.95583 0.0
C1453 C 0.59365 0.00157 0.97467 0.0
C1454 C 0.64515 0.00045 0.94376 0.0
C1455 C 0.65275 0.01057 0.92737 0.0
C1456 C 0.6835 0.04788 0.92277 0.0
C1457 C 0.705 0.07555 0.93494 0.0
C1458 C 0.69736 0.06537 0.95132 0.0
H1459 H 0.57328 0.00046 0.98428 0.0
H1460 H 0.60286 0.02818 0.96713 0.0
H1461 H 0.57725 0.97541 0.96678 0.0
H1462 H 0.62274 0.97087 0.94698 0.0
H1463 H 0.63562 0.98854 0.91833 0.0
H1464 H 0.66012 0.66148 0.5613 0.0
H1465 H 0.64314 0.66373 0.53297 0.0
H1466 H 0.74238 0.6536 0.51747 0.0
H1467 H 0.76003 0.65178 0.54584 0.0
H1468 H 0.73882 0.71575 0.50326 0.0
H1469 H 0.5953 0.57768 0.49822 0.0
H1470 H 0.59841 0.60806 0.51508 0.0
H1471 H 0.62951 0.58675 0.51457 0.0
C1472 C 0.67815 0.65927 0.5519 0.0
C1473 C 0.71154 0.65657 0.55586 0.0
C1474 C 0.66819 0.66028 0.5357 0.0
C1475 C 0.69121 0.65832 0.52316 0.0
C1476 C 0.72412 0.6549 0.52702 0.0
H1477 H 0.64701 0.64516 0.41943 0.0
H1478 H 0.65587 0.63131 0.44756 0.0
C1479 C 0.73413 0.65387 0.54323 0.0
C1480 C 0.68272 0.66299 0.50606 0.0
H1481 H 0.61193 0.62401 0.47667 0.0
C1482 C 0.71119 0.69557 0.4974 0.0
C1483 C 0.64674 0.63643 0.49847 0.0
C1484 C 0.61584 0.60004 0.507 0.0
C1485 C 0.70435 0.70279 0.48141 0.0
C1486 C 0.66784 0.67705 0.47401 0.0
C1487 C 0.63967 0.64394 0.48251 0.0
C1488 C 0.65891 0.68379 0.45729 0.0
C1489 C 0.73638 0.73774 0.4725 0.0
C1490 C 0.65656 0.71732 0.45357 0.0
C1491 C 0.65151 0.7254 0.43751 0.0
C1492 C 0.64868 0.69998 0.4249 0.0
C1493 C 0.64933 0.66549 0.42881 0.0
C1494 C 0.65432 0.65746 0.44488 0.0
H1495 H 0.76545 0.74916 0.47848 0.0
H1496 H 0.73867 0.73 0.45973 0.0
H1497 H 0.72924 0.76166 0.47231 0.0
H1498 H 0.65943 0.73766 0.46307 0.0
H1499 H 0.65089 0.75207 0.43495 0.0
H1500 H 0.98707 0.64972 0.92183 0.0
H1501 H 0.01027 0.65664 0.94983 0.0
H1502 H 0.90022 0.64205 0.96706 0.0
H1503 H 0.87688 0.63567 0.93912 0.0
H1504 H 0.96521 0.70865 0.97887 0.0
H1505 H 0.98191 0.57773 0.98698 0.0
H1506 H 0.00598 0.60662 0.96931 0.0
H1507 H 0.9533 0.58173 0.9707 0.0
C1508 C 0.96749 0.64731 0.93157 0.0
C1509 C 0.93017 0.64235 0.92822 0.0
C1510 C 0.98077 0.65107 0.94758 0.0
C1511 C 0.95683 0.64954 0.9605 0.0
C1512 C 0.91908 0.64324 0.95723 0.0
H1513 H 0.98856 0.64678 0.06389 0.0
H1514 H 0.96854 0.63122 0.03555 0.0
C1515 C 0.90582 0.63958 0.94125 0.0
C1516 C 0.97226 0.65792 0.97729 0.0
H1517 H 0.00873 0.62636 0.00771 0.0
C1518 C 0.97465 0.69062 0.9852 0.0
C1519 C 0.98437 0.63421 0.98549 0.0
C1520 C 0.98099 0.59789 0.97777 0.0
C1521 C 0.98894 0.70038 0.00111 0.0
C1522 C 0.00184 0.67719 0.0092 0.0
C1523 C -0.00075 0.64432 0.00135 0.0
C1524 C 0.01623 0.68562 0.02613 0.0
C1525 C 0.98929 0.7349 0.00927 0.0
C1526 C 0.05025 0.72102 0.03014 0.0
C1527 C 0.06178 0.73015 0.04636 0.0
C1528 C 0.0395 0.70391 0.05882 0.0
C1529 C 0.00627 0.6678 0.05464 0.0
C1530 C -0.00519 0.65875 0.03844 0.0
H1531 H 0.97048 0.74413 0.00276 0.0
H1532 H 0.97898 0.72776 0.02203 0.0
H1533 H 0.01978 0.76019 0.00943 0.0
H1534 H 0.06748 0.74185 0.02074 0.0
H1535 H 0.08766 0.75807 0.04914 0.0
H1536 H 0.34591 0.983 0.42302 0.0
H1537 H 0.36963 0.00261 0.45082 0.0
H1538 H 0.25011 0.93989 0.46833 0.0
H1539 H 0.22645 0.91869 0.44069 0.0
H1540 H 0.35878 0.04683 0.47059 0.0
H1541 H 0.29972 0.90244 0.50014 0.0
H1542 H 0.30003 0.90759 0.47835 0.0
H1543 H 0.26074 0.90564 0.49036 0.0
C1544 C 0.32475 0.97302 0.43284 0.0
C1545 C 0.28433 0.94918 0.42971 0.0
C1546 C 0.33834 0.98421 0.44871 0.0
C1547 C 0.31175 0.97211 0.46173 0.0
C1548 C 0.27134 0.94849 0.45859 0.0
H1549 H 0.32832 0.0905 0.54986 0.0
H1550 H 0.32617 0.06978 0.52184 0.0
C1551 C 0.25779 0.93666 0.44276 0.0
C1552 C 0.32585 0.98645 0.47842 0.0
H1553 H 0.31382 0.95696 0.51797 0.0
C1554 C 0.34951 0.02709 0.48092 0.0
C1555 C 0.31476 0.96077 0.49191 0.0
C1556 C 0.29282 0.91669 0.49001 0.0
C1557 C 0.36042 0.04284 0.49659 0.0
C1558 C 0.346 0.01739 0.51015 0.0
C1559 C 0.32433 0.97662 0.50761 0.0
C1560 C 0.35056 0.03232 0.52702 0.0
C1561 C 0.38718 0.08661 0.49838 0.0
C1562 C 0.36407 0.01746 0.53939 0.0
C1563 C 0.36436 0.02851 0.55554 0.0
C1564 C 0.35145 0.05489 0.55958 0.0
C1565 C 0.33894 0.07052 0.54713 0.0
C1566 C 0.338 0.05893 0.53105 0.0
H1567 H 0.40714 0.09898 0.48776 0.0
H1568 H 0.36915 0.10104 0.49891 0.0
H1569 H 0.4053 0.09407 0.50958 0.0
H1570 H 0.37369 -0.00328 0.53658 0.0
H1571 H 0.37422 0.01604 0.56489 0.0
loop_
_geom_bond_atom_site_label_1
_geom_bond_atom_site_label_2
_geom_bond_distance
_geom_bond_site_symmetry_2
_ccdc_geom_bond_type
O0 Zn1 1.953 . S
O0 C16 1.225 . S
Zn1 O0 1.953 . S
Zn1 O2 1.949 . S
Zn1 O8 1.919 . S
Zn1 O13 1.924 . S
O2 Zn1 1.949 . S
O2 Zn3 1.923 . S
O2 Zn4 1.950 . S
O2 Zn5 1.945 . S
Zn3 O2 1.923 . S
Zn3 O6 1.933 . S
Zn3 O9 1.941 . S
Zn3 O10 1.965 . S
Zn4 O2 1.950 . S
Zn4 O11 1.938 . S
Zn4 O12 1.906 . S
Zn4 O22 1.953 . S
Zn5 O2 1.945 . S
Zn5 O7 1.932 . S
Zn5 O14 1.977 . S
Zn5 O15 1.910 . S
O6 Zn3 1.933 . S
O6 C17 1.226 . S
O7 Zn5 1.932 . S
O7 C17 1.307 . S
O8 Zn1 1.919 . S
O8 C19 1.253 . S
O9 Zn3 1.941 . S
O9 C19 1.283 . S
O10 Zn3 1.965 . S
O10 C18 1.303 . S
O11 Zn4 1.938 . S
O11 C18 1.247 . S
O12 Zn4 1.906 . S
O12 C20 1.304 . S
O13 Zn1 1.924 . S
O13 C21 1.311 . S
O14 Zn5 1.977 . S
O14 C20 1.272 . S
O15 Zn5 1.910 . S
O15 C21 1.231 . S
C16 O0 1.225 . S
C16 O22 1.298 . S
C17 O6 1.226 . S
C17 O7 1.307 . S
C18 O10 1.303 . S
C18 O11 1.247 . S
C19 O8 1.253 . S
C19 O9 1.283 . S
C20 O12 1.304 . S
C20 O14 1.272 . S
C21 O13 1.311 . S
C21 O15 1.231 . S
O22 Zn4 1.953 . S
O22 C16 1.298 . S
O23 Zn24 1.953 . S
O23 C39 1.225 . S
Zn24 O23 1.953 . S
Zn24 O25 1.949 . S
Zn24 O31 1.919 . S
Zn24 O36 1.924 . S
O25 Zn24 1.949 . S
O25 Zn26 1.923 . S
O25 Zn27 1.950 . S
O25 Zn28 1.945 . S
Zn26 O25 1.923 . S
Zn26 O29 1.933 . S
Zn26 O32 1.941 . S
Zn26 O33 1.965 . S
Zn27 O25 1.950 . S
Zn27 O34 1.938 . S
Zn27 O35 1.906 . S
Zn27 O45 1.953 . S
Zn28 O25 1.945 . S
Zn28 O30 1.932 . S
Zn28 O37 1.977 . S
Zn28 O38 1.910 . S
O29 Zn26 1.933 . S
O29 C40 1.226 . S
O30 Zn28 1.932 . S
O30 C40 1.307 . S
O31 Zn24 1.919 . S
O31 C42 1.253 . S
O32 Zn26 1.941 . S
O32 C42 1.283 . S
O33 Zn26 1.965 . S
O33 C41 1.303 . S
O34 Zn27 1.938 . S
O34 C41 1.247 . S
O35 Zn27 1.906 . S
O35 C43 1.304 . S
O36 Zn24 1.924 . S
O36 C44 1.311 . S
O37 Zn28 1.977 . S
O37 C43 1.272 . S
O38 Zn28 1.910 . S
O38 C44 1.231 . S
C39 O23 1.225 . S
C39 O45 1.298 . S
C40 O29 1.226 . S
C40 O30 1.307 . S
C41 O33 1.303 . S
C41 O34 1.247 . S
C42 O31 1.253 . S
C42 O32 1.283 . S
C43 O35 1.304 . S
C43 O37 1.272 . S
C44 O36 1.311 . S
C44 O38 1.231 . S
O45 Zn27 1.953 . S
O45 C39 1.298 . S
O46 Zn47 1.953 . S
O46 C62 1.225 . S
Zn47 O46 1.953 . S
Zn47 O48 1.949 . S
Zn47 O54 1.919 . S
Zn47 O59 1.924 . S
O48 Zn47 1.949 . S
O48 Zn49 1.923 . S
O48 Zn50 1.950 . S
O48 Zn51 1.945 . S
Zn49 O48 1.923 . S
Zn49 O52 1.933 . S
Zn49 O55 1.941 . S
Zn49 O56 1.965 . S
Zn50 O48 1.950 . S
Zn50 O57 1.938 . S
Zn50 O58 1.906 . S
Zn50 O68 1.953 . S
Zn51 O48 1.945 . S
Zn51 O53 1.932 . S
Zn51 O60 1.977 . S
Zn51 O61 1.910 . S
O52 Zn49 1.933 . S
O52 C63 1.226 . S
O53 Zn51 1.932 . S
O53 C63 1.307 . S
O54 Zn47 1.919 . S
O54 C65 1.253 . S
O55 Zn49 1.941 . S
O55 C65 1.283 . S
O56 Zn49 1.965 . S
O56 C64 1.303 . S
O57 Zn50 1.938 . S
O57 C64 1.247 . S
O58 Zn50 1.906 . S
O58 C66 1.304 . S
O59 Zn47 1.924 . S
O59 C67 1.311 . S
O60 Zn51 1.977 . S
O60 C66 1.272 . S
O61 Zn51 1.910 . S
O61 C67 1.231 . S
C62 O46 1.225 . S
C62 O68 1.298 . S
C63 O52 1.226 . S
C63 O53 1.307 . S
C64 O56 1.303 . S
C64 O57 1.247 . S
C65 O54 1.253 . S
C65 O55 1.283 . S
C66 O58 1.304 . S
C66 O60 1.272 . S
C67 O59 1.311 . S
C67 O61 1.231 . S
O68 Zn50 1.953 . S
O68 C62 1.298 . S
O69 Zn70 1.953 . S
O69 C85 1.225 . S
Zn70 O69 1.953 . S
Zn70 O71 1.949 . S
Zn70 O77 1.919 . S
Zn70 O82 1.924 . S
O71 Zn70 1.949 . S
O71 Zn72 1.923 . S
O71 Zn73 1.950 . S
O71 Zn74 1.945 . S
Zn72 O71 1.923 . S
Zn72 O75 1.933 . S
Zn72 O78 1.941 . S
Zn72 O79 1.965 . S
Zn73 O71 1.950 . S
Zn73 O80 1.938 . S
Zn73 O81 1.906 . S
Zn73 O91 1.953 . S
Zn74 O71 1.945 . S
Zn74 O76 1.932 . S
Zn74 O83 1.977 . S
Zn74 O84 1.910 . S
O75 Zn72 1.933 . S
O75 C86 1.226 . S
O76 Zn74 1.932 . S
O76 C86 1.307 . S
O77 Zn70 1.919 . S
O77 C88 1.253 . S
O78 Zn72 1.941 . S
O78 C88 1.283 . S
O79 Zn72 1.965 . S
O79 C87 1.303 . S
O80 Zn73 1.938 . S
O80 C87 1.247 . S
O81 Zn73 1.906 . S
O81 C89 1.304 . S
O82 Zn70 1.924 . S
O82 C90 1.311 . S
O83 Zn74 1.977 . S
O83 C89 1.272 . S
O84 Zn74 1.910 . S
O84 C90 1.231 . S
C85 O69 1.225 . S
C85 O91 1.298 . S
C86 O75 1.226 . S
C86 O76 1.307 . S
C87 O79 1.303 . S
C87 O80 1.247 . S
C88 O77 1.253 . S
C88 O78 1.283 . S
C89 O81 1.304 . S
C89 O83 1.272 . S
C90 O82 1.311 . S
C90 O84 1.231 . S
O91 Zn73 1.953 . S
O91 C85 1.298 . S
O92 Zn93 1.953 . S
O92 C108 1.225 . S
Zn93 O92 1.953 . S
Zn93 O94 1.949 . S
Zn93 O100 1.919 . S
Zn93 O105 1.924 . S
O94 Zn93 1.949 . S
O94 Zn95 1.923 . S
O94 Zn96 1.950 . S
O94 Zn97 1.945 . S
Zn95 O94 1.923 . S
Zn95 O98 1.933 . S
Zn95 O101 1.941 . S
Zn95 O102 1.965 . S
Zn96 O94 1.950 . S
Zn96 O103 1.938 . S
Zn96 O104 1.906 . S
Zn96 O114 1.953 . S
Zn97 O94 1.945 . S
Zn97 O99 1.932 . S
Zn97 O106 1.977 . S
Zn97 O107 1.910 . S
O98 Zn95 1.933 . S
O98 C109 1.226 . S
O99 Zn97 1.932 . S
O99 C109 1.307 . S
O100 Zn93 1.919 . S
O100 C111 1.253 . S
O101 Zn95 1.941 . S
O101 C111 1.283 . S
O102 Zn95 1.965 . S
O102 C110 1.303 . S
O103 Zn96 1.938 . S
O103 C110 1.247 . S
O104 Zn96 1.906 . S
O104 C112 1.304 . S
O105 Zn93 1.924 . S
O105 C113 1.311 . S
O106 Zn97 1.977 . S
O106 C112 1.272 . S
O107 Zn97 1.910 . S
O107 C113 1.231 . S
C108 O92 1.225 . S
C108 O114 1.298 . S
C109 O98 1.226 . S
C109 O99 1.307 . S
C110 O102 1.303 . S
C110 O103 1.247 . S
C111 O100 1.253 . S
C111 O101 1.283 . S
C112 O104 1.304 . S
C112 O106 1.272 . S
C113 O105 1.311 . S
C113 O107 1.231 . S
O114 Zn96 1.953 . S
O114 C108 1.298 . S
O115 Zn116 1.953 . S
O115 C131 1.225 . S
Zn116 O115 1.953 . S
Zn116 O117 1.949 . S
Zn116 O123 1.919 . S
Zn116 O128 1.924 . S
O117 Zn116 1.949 . S
O117 Zn118 1.923 . S
O117 Zn119 1.950 . S
O117 Zn120 1.945 . S
Zn118 O117 1.923 . S
Zn118 O121 1.933 . S
Zn118 O124 1.941 . S
Zn118 O125 1.965 . S
Zn119 O117 1.950 . S
Zn119 O126 1.938 . S
Zn119 O127 1.906 . S
Zn119 O137 1.953 . S
Zn120 O117 1.945 . S
Zn120 O122 1.932 . S
Zn120 O129 1.977 . S
Zn120 O130 1.910 . S
O121 Zn118 1.933 . S
O121 C132 1.226 . S
O122 Zn120 1.932 . S
O122 C132 1.307 . S
O123 Zn116 1.919 . S
O123 C134 1.253 . S
O124 Zn118 1.941 . S
O124 C134 1.283 . S
O125 Zn118 1.965 . S
O125 C133 1.303 . S
O126 Zn119 1.938 . S
O126 C133 1.247 . S
O127 Zn119 1.906 . S
O127 C135 1.304 . S
O128 Zn116 1.924 . S
O128 C136 1.311 . S
O129 Zn120 1.977 . S
O129 C135 1.272 . S
O130 Zn120 1.910 . S
O130 C136 1.231 . S
C131 O115 1.225 . S
C131 O137 1.298 . S
C132 O121 1.226 . S
C132 O122 1.307 . S
C133 O125 1.303 . S
C133 O126 1.247 . S
C134 O123 1.253 . S
C134 O124 1.283 . S
C135 O127 1.304 . S
C135 O129 1.272 . S
C136 O128 1.311 . S
C136 O130 1.231 . S
O137 Zn119 1.953 . S
O137 C131 1.298 . S
O138 Zn139 1.953 . S
O138 C154 1.225 . S
Zn139 O138 1.953 . S
Zn139 O140 1.949 . S
Zn139 O146 1.919 . S
Zn139 O151 1.924 . S
O140 Zn139 1.949 . S
O140 Zn141 1.923 . S
O140 Zn142 1.950 . S
O140 Zn143 1.945 . S
Zn141 O140 1.923 . S
Zn141 O144 1.933 . S
Zn141 O147 1.941 . S
Zn141 O148 1.965 . S
Zn142 O140 1.950 . S
Zn142 O149 1.938 . S
Zn142 O150 1.906 . S
Zn142 O160 1.953 . S
Zn143 O140 1.945 . S
Zn143 O145 1.932 . S
Zn143 O152 1.977 . S
Zn143 O153 1.910 . S
O144 Zn141 1.933 . S
O144 C155 1.226 . S
O145 Zn143 1.932 . S
O145 C155 1.307 . S
O146 Zn139 1.919 . S
O146 C157 1.253 . S
O147 Zn141 1.941 . S
O147 C157 1.283 . S
O148 Zn141 1.965 . S
O148 C156 1.303 . S
O149 Zn142 1.938 . S
O149 C156 1.247 . S
O150 Zn142 1.906 . S
O150 C158 1.304 . S
O151 Zn139 1.924 . S
O151 C159 1.311 . S
O152 Zn143 1.977 . S
O152 C158 1.272 . S
O153 Zn143 1.910 . S
O153 C159 1.231 . S
C154 O138 1.225 . S
C154 O160 1.298 . S
C155 O144 1.226 . S
C155 O145 1.307 . S
C156 O148 1.303 . S
C156 O149 1.247 . S
C157 O146 1.253 . S
C157 O147 1.283 . S
C158 O150 1.304 . S
C158 O152 1.272 . S
C159 O151 1.311 . S
C159 O153 1.231 . S
O160 Zn142 1.953 . S
O160 C154 1.298 . S
O161 Zn162 1.953 . S
O161 C177 1.225 . S
Zn162 O161 1.953 . S
Zn162 O163 1.949 . S
Zn162 O169 1.919 . S
Zn162 O174 1.924 . S
O163 Zn162 1.949 . S
O163 Zn164 1.923 . S
O163 Zn165 1.950 . S
O163 Zn166 1.945 . S
Zn164 O163 1.923 . S
Zn164 O167 1.933 . S
Zn164 O170 1.941 . S
Zn164 O171 1.965 . S
Zn165 O163 1.950 . S
Zn165 O172 1.938 . S
Zn165 O173 1.906 . S
Zn165 O183 1.953 . S
Zn166 O163 1.945 . S
Zn166 O168 1.932 . S
Zn166 O175 1.977 . S
Zn166 O176 1.910 . S
O167 Zn164 1.933 . S
O167 C178 1.226 . S
O168 Zn166 1.932 . S
O168 C178 1.307 . S
O169 Zn162 1.919 . S
O169 C180 1.253 . S
O170 Zn164 1.941 . S
O170 C180 1.283 . S
O171 Zn164 1.965 . S
O171 C179 1.303 . S
O172 Zn165 1.938 . S
O172 C179 1.247 . S
O173 Zn165 1.906 . S
O173 C181 1.304 . S
O174 Zn162 1.924 . S
O174 C182 1.311 . S
O175 Zn166 1.977 . S
O175 C181 1.272 . S
O176 Zn166 1.910 . S
O176 C182 1.231 . S
C177 O161 1.225 . S
C177 O183 1.298 . S
C178 O167 1.226 . S
C178 O168 1.307 . S
C179 O171 1.303 . S
C179 O172 1.247 . S
C180 O169 1.253 . S
C180 O170 1.283 . S
C181 O173 1.304 . S
C181 O175 1.272 . S
C182 O174 1.311 . S
C182 O176 1.231 . S
O183 Zn165 1.953 . S
O183 C177 1.298 . S
O184 Zn185 1.953 . S
O184 C200 1.225 . S
Zn185 O184 1.953 . S
Zn185 O186 1.949 . S
Zn185 O192 1.919 . S
Zn185 O197 1.924 . S
O186 Zn185 1.949 . S
O186 Zn187 1.923 . S
O186 Zn188 1.950 . S
O186 Zn189 1.945 . S
Zn187 O186 1.923 . S
Zn187 O190 1.933 . S
Zn187 O193 1.941 . S
Zn187 O194 1.965 . S
Zn188 O186 1.950 . S
Zn188 O195 1.938 . S
Zn188 O196 1.906 . S
Zn188 O206 1.953 . S
Zn189 O186 1.945 . S
Zn189 O191 1.932 . S
Zn189 O198 1.977 . S
Zn189 O199 1.910 . S
O190 Zn187 1.933 . S
O190 C201 1.226 . S
O191 Zn189 1.932 . S
O191 C201 1.307 . S
O192 Zn185 1.919 . S
O192 C203 1.253 . S
O193 Zn187 1.941 . S
O193 C203 1.283 . S
O194 Zn187 1.965 . S
O194 C202 1.303 . S
O195 Zn188 1.938 . S
O195 C202 1.247 . S
O196 Zn188 1.906 . S
O196 C204 1.304 . S
O197 Zn185 1.924 . S
O197 C205 1.311 . S
O198 Zn189 1.977 . S
O198 C204 1.272 . S
O199 Zn189 1.910 . S
O199 C205 1.231 . S
C200 O184 1.225 . S
C200 O206 1.298 . S
C201 O190 1.226 . S
C201 O191 1.307 . S
C202 O194 1.303 . S
C202 O195 1.247 . S
C203 O192 1.253 . S
C203 O193 1.283 . S
C204 O196 1.304 . S
C204 O198 1.272 . S
C205 O197 1.311 . S
C205 O199 1.231 . S
O206 Zn188 1.953 . S
O206 C200 1.298 . S
O207 Zn208 1.953 . S
O207 C223 1.225 . S
Zn208 O207 1.953 . S
Zn208 O209 1.949 . S
Zn208 O215 1.919 . S
Zn208 O220 1.924 . S
O209 Zn208 1.949 . S
O209 Zn210 1.923 . S
O209 Zn211 1.950 . S
O209 Zn212 1.945 . S
Zn210 O209 1.923 . S
Zn210 O213 1.933 . S
Zn210 O216 1.941 . S
Zn210 O217 1.965 . S
Zn211 O209 1.950 . S
Zn211 O218 1.938 . S
Zn211 O219 1.906 . S
Zn211 O229 1.953 . S
Zn212 O209 1.945 . S
Zn212 O214 1.932 . S
Zn212 O221 1.977 . S
Zn212 O222 1.910 . S
O213 Zn210 1.933 . S
O213 C224 1.226 . S
O214 Zn212 1.932 . S
O214 C224 1.307 . S
O215 Zn208 1.919 . S
O215 C226 1.253 . S
O216 Zn210 1.941 . S
O216 C226 1.283 . S
O217 Zn210 1.965 . S
O217 C225 1.303 . S
O218 Zn211 1.938 . S
O218 C225 1.247 . S
O219 Zn211 1.906 . S
O219 C227 1.304 . S
O220 Zn208 1.924 . S
O220 C228 1.311 . S
O221 Zn212 1.977 . S
O221 C227 1.272 . S
O222 Zn212 1.910 . S
O222 C228 1.231 . S
C223 O207 1.225 . S
C223 O229 1.298 . S
C224 O213 1.226 . S
C224 O214 1.307 . S
C225 O217 1.303 . S
C225 O218 1.247 . S
C226 O215 1.253 . S
C226 O216 1.283 . S
C227 O219 1.304 . S
C227 O221 1.272 . S
C228 O220 1.311 . S
C228 O222 1.231 . S
O229 Zn211 1.953 . S
O229 C223 1.298 . S
O230 Zn231 1.953 . S
O230 C246 1.225 . S
Zn231 O230 1.953 . S
Zn231 O232 1.949 . S
Zn231 O238 1.919 . S
Zn231 O243 1.924 . S
O232 Zn231 1.949 . S
O232 Zn233 1.923 . S
O232 Zn234 1.950 . S
O232 Zn235 1.945 . S
Zn233 O232 1.923 . S
Zn233 O236 1.933 . S
Zn233 O239 1.941 . S
Zn233 O240 1.965 . S
Zn234 O232 1.950 . S
Zn234 O241 1.938 . S
Zn234 O242 1.906 . S
Zn234 O252 1.953 . S
Zn235 O232 1.945 . S
Zn235 O237 1.932 . S
Zn235 O244 1.977 . S
Zn235 O245 1.910 . S
O236 Zn233 1.933 . S
O236 C247 1.226 . S
O237 Zn235 1.932 . S
O237 C247 1.307 . S
O238 Zn231 1.919 . S
O238 C249 1.253 . S
O239 Zn233 1.941 . S
O239 C249 1.283 . S
O240 Zn233 1.965 . S
O240 C248 1.303 . S
O241 Zn234 1.938 . S
O241 C248 1.247 . S
O242 Zn234 1.906 . S
O242 C250 1.304 . S
O243 Zn231 1.924 . S
O243 C251 1.311 . S
O244 Zn235 1.977 . S
O244 C250 1.272 . S
O245 Zn235 1.910 . S
O245 C251 1.231 . S
C246 O230 1.225 . S
C246 O252 1.298 . S
C247 O236 1.226 . S
C247 O237 1.307 . S
C248 O240 1.303 . S
C248 O241 1.247 . S
C249 O238 1.253 . S
C249 O239 1.283 . S
C250 O242 1.304 . S
C250 O244 1.272 . S
C251 O243 1.311 . S
C251 O245 1.231 . S
O252 Zn234 1.953 . S
O252 C246 1.298 . S
O253 Zn254 1.953 . S
O253 C269 1.225 . S
Zn254 O253 1.953 . S
Zn254 O255 1.949 . S
Zn254 O261 1.919 . S
Zn254 O266 1.924 . S
O255 Zn254 1.949 . S
O255 Zn256 1.923 . S
O255 Zn257 1.950 . S
O255 Zn258 1.945 . S
Zn256 O255 1.923 . S
Zn256 O259 1.933 . S
Zn256 O262 1.941 . S
Zn256 O263 1.965 . S
Zn257 O255 1.950 . S
Zn257 O264 1.938 . S
Zn257 O265 1.906 . S
Zn257 O275 1.953 . S
Zn258 O255 1.945 . S
Zn258 O260 1.932 . S
Zn258 O267 1.977 . S
Zn258 O268 1.910 . S
O259 Zn256 1.933 . S
O259 C270 1.226 . S
O260 Zn258 1.932 . S
O260 C270 1.307 . S
O261 Zn254 1.919 . S
O261 C272 1.253 . S
O262 Zn256 1.941 . S
O262 C272 1.283 . S
O263 Zn256 1.965 . S
O263 C271 1.303 . S
O264 Zn257 1.938 . S
O264 C271 1.247 . S
O265 Zn257 1.906 . S
O265 C273 1.304 . S
O266 Zn254 1.924 . S
O266 C274 1.311 . S
O267 Zn258 1.977 . S
O267 C273 1.272 . S
O268 Zn258 1.910 . S
O268 C274 1.231 . S
C269 O253 1.225 . S
C269 O275 1.298 . S
C270 O259 1.226 . S
C270 O260 1.307 . S
C271 O263 1.303 . S
C271 O264 1.247 . S
C272 O261 1.253 . S
C272 O262 1.283 . S
C273 O265 1.304 . S
C273 O267 1.272 . S
C274 O266 1.311 . S
C274 O268 1.231 . S
O275 Zn257 1.953 . S
O275 C269 1.298 . S
H276 C284 0.929 . S
H277 C286 0.930 . S
H278 C288 0.930 1_545 S
H279 C291 0.929 . S
H280 C294 0.930 . S
H281 C296 0.960 . S
H282 C296 0.960 . S
H283 C296 0.960 . S
C284 H276 0.929 . S
C284 C285 1.377 . S
C284 C286 1.384 . S
C285 C284 1.377 . S
C285 C291 1.390 . S
C286 H277 0.930 . S
C286 C284 1.384 . S
C286 C287 1.375 . S
C287 C286 1.375 . S
C287 C288 1.405 . S
C287 C292 1.482 1_565 S
C288 H278 0.930 1_565 S
C288 C287 1.405 . S
C288 C291 1.386 . S
H289 C305 0.930 . S
H290 C306 0.931 . S
C291 H279 0.929 . S
C291 C285 1.390 . S
C291 C288 1.386 . S
C292 C287 1.482 1_545 S
C292 C294 1.395 . S
C292 C295 1.403 . S
H293 C299 0.930 . S
C294 H280 0.930 . S
C294 C292 1.395 . S
C294 C297 1.403 . S
C295 C292 1.403 . S
C295 C296 1.524 . S
C295 C299 1.400 . S
C296 H281 0.960 . S
C296 H282 0.960 . S
C296 H283 0.960 . S
C296 C295 1.524 . S
C297 C294 1.403 . S
C297 C298 1.392 . S
C297 C301 1.495 . S
C298 C297 1.392 . S
C298 C299 1.385 . S
C298 C300 1.478 . S
C299 H293 0.930 . S
C299 C295 1.400 . S
C299 C298 1.385 . S
C300 C298 1.478 . S
C300 C302 1.381 . S
C300 C306 1.383 . S
C301 C297 1.495 . S
C301 H307 0.959 . S
C301 H308 0.961 . S
C301 H309 0.960 . S
C302 C300 1.381 . S
C302 C303 1.394 . S
C302 H310 0.930 . S
C303 C302 1.394 . S
C303 C304 1.383 . S
C303 H311 0.929 . S
C304 C303 1.383 . S
C304 C305 1.377 . S
C305 H289 0.930 . S
C305 C304 1.377 . S
C305 C306 1.379 . S
C306 H290 0.931 . S
C306 C300 1.383 . S
C306 C305 1.379 . S
H307 C301 0.959 . S
H308 C301 0.961 . S
H309 C301 0.960 . S
H310 C302 0.930 . S
H311 C303 0.929 . S
H312 C320 0.929 . S
H313 C322 0.930 . S
H314 C324 0.930 . S
H315 C327 0.929 . S
H316 C330 0.930 . S
H317 C332 0.960 . S
H318 C332 0.960 . S
H319 C332 0.960 . S
C320 H312 0.929 . S
C320 C321 1.377 . S
C320 C322 1.384 . S
C321 C320 1.377 . S
C321 C327 1.390 . S
C322 H313 0.930 . S
C322 C320 1.384 . S
C322 C323 1.372 . S
C323 C322 1.372 . S
C323 C324 1.400 . S
C323 C328 1.490 . S
C324 H314 0.930 . S
C324 C323 1.400 . S
C324 C327 1.386 . S
H325 C341 0.930 1_655 S
H326 C342 0.931 . S
C327 H315 0.929 . S
C327 C321 1.390 . S
C327 C324 1.386 . S
C328 C323 1.490 . S
C328 C330 1.395 . S
C328 C331 1.403 . S
H329 C335 0.930 . S
C330 H316 0.930 . S
C330 C328 1.395 . S
C330 C333 1.403 . S
C331 C328 1.403 . S
C331 C332 1.524 . S
C331 C335 1.400 . S
C332 H317 0.960 . S
C332 H318 0.960 . S
C332 H319 0.960 . S
C332 C331 1.524 . S
C333 C330 1.403 . S
C333 C334 1.392 . S
C333 C337 1.495 . S
C334 C333 1.392 . S
C334 C335 1.385 . S
C334 C336 1.478 . S
C335 H329 0.930 . S
C335 C331 1.400 . S
C335 C334 1.385 . S
C336 C334 1.478 . S
C336 C338 1.381 . S
C336 C342 1.383 . S
C337 C333 1.495 . S
C337 H343 0.959 . S
C337 H344 0.961 . S
C337 H345 0.960 . S
C338 C336 1.381 . S
C338 C339 1.394 . S
C338 H346 0.930 . S
C339 C338 1.394 . S
C339 C340 1.383 1_455 S
C339 H347 0.929 . S
C340 C339 1.383 1_655 S
C340 C341 1.377 1_655 S
C341 H325 0.930 1_455 S
C341 C340 1.377 1_455 S
C341 C342 1.379 . S
C342 H326 0.931 . S
C342 C336 1.383 . S
C342 C341 1.379 . S
H343 C337 0.959 . S
H344 C337 0.961 . S
H345 C337 0.960 . S
H346 C338 0.930 . S
H347 C339 0.929 . S
H348 C356 0.929 1_565 S
H349 C358 0.930 . S
H350 C360 0.930 . S
H351 C363 0.929 . S
H352 C366 0.930 . S
H353 C368 0.960 . S
H354 C368 0.960 . S
H355 C368 0.960 . S
C356 H348 0.929 1_545 S
C356 C357 1.377 1_545 S
C356 C358 1.384 . S
C357 C356 1.377 1_565 S
C357 C363 1.390 1_565 S
C358 H349 0.930 . S
C358 C356 1.384 . S
C358 C359 1.372 . S
C359 C358 1.372 . S
C359 C360 1.400 . S
C359 C364 1.490 . S
C360 H350 0.930 . S
C360 C359 1.400 . S
C360 C363 1.386 . S
H361 C377 0.930 . S
H362 C378 0.931 . S
C363 H351 0.929 . S
C363 C357 1.390 1_545 S
C363 C360 1.386 . S
C364 C359 1.490 . S
C364 C366 1.395 . S
C364 C367 1.403 . S
H365 C371 0.930 . S
C366 H352 0.930 . S
C366 C364 1.395 . S
C366 C369 1.403 . S
C367 C364 1.403 . S
C367 C368 1.524 . S
C367 C371 1.400 . S
C368 H353 0.960 . S
C368 H354 0.960 . S
C368 H355 0.960 . S
C368 C367 1.524 . S
C369 C366 1.403 . S
C369 C370 1.392 . S
C369 C373 1.495 . S
C370 C369 1.392 . S
C370 C371 1.385 . S
C370 C372 1.478 . S
C371 H365 0.930 . S
C371 C367 1.400 . S
C371 C370 1.385 . S
C372 C370 1.478 . S
C372 C374 1.381 1_655 S
C372 C378 1.383 1_655 S
C373 C369 1.495 . S
C373 H379 0.959 . S
C373 H380 0.961 . S
C373 H381 0.960 . S
C374 C372 1.381 1_455 S
C374 C375 1.394 . S
C374 H382 0.930 . S
C375 C374 1.394 . S
C375 C376 1.383 . S
C375 H383 0.929 . S
C376 C375 1.383 . S
C376 C377 1.377 . S
C377 H361 0.930 . S
C377 C376 1.377 . S
C377 C378 1.379 . S
C378 H362 0.931 . S
C378 C372 1.383 1_455 S
C378 C377 1.379 . S
H379 C373 0.959 . S
H380 C373 0.961 . S
H381 C373 0.960 . S
H382 C374 0.930 . S
H383 C375 0.929 . S
H384 C392 0.929 . S
H385 C394 0.930 . S
H386 C396 0.930 . S
H387 C399 0.929 . S
H388 C402 0.930 . S
H389 C404 0.960 . S
H390 C404 0.960 . S
H391 C404 0.960 . S
C392 H384 0.929 . S
C392 C393 1.377 . S
C392 C394 1.384 . S
C393 C392 1.377 . S
C393 C399 1.390 . S
C394 H385 0.930 . S
C394 C392 1.384 . S
C394 C395 1.372 . S
C395 C394 1.372 . S
C395 C396 1.400 . S
C395 C400 1.490 . S
C396 H386 0.930 . S
C396 C395 1.400 . S
C396 C399 1.386 . S
H397 C413 0.930 . S
H398 C414 0.931 . S
C399 H387 0.929 . S
C399 C393 1.390 . S
C399 C396 1.386 . S
C400 C395 1.490 . S
C400 C402 1.395 . S
C400 C403 1.403 . S
H401 C407 0.930 . S
C402 H388 0.930 . S
C402 C400 1.395 . S
C402 C405 1.403 . S
C403 C400 1.403 . S
C403 C404 1.524 . S
C403 C407 1.400 . S
C404 H389 0.960 . S
C404 H390 0.960 . S
C404 H391 0.960 . S
C404 C403 1.524 . S
C405 C402 1.403 . S
C405 C406 1.392 . S
C405 C409 1.495 . S
C406 C405 1.392 . S
C406 C407 1.385 . S
C406 C408 1.478 1_565 S
C407 H401 0.930 . S
C407 C403 1.400 . S
C407 C406 1.385 . S
C408 C406 1.478 1_545 S
C408 C410 1.381 . S
C408 C414 1.383 . S
C409 C405 1.495 . S
C409 H415 0.959 . S
C409 H416 0.961 . S
C409 H417 0.960 . S
C410 C408 1.381 . S
C410 C411 1.394 . S
C410 H418 0.930 1_545 S
C411 C410 1.394 . S
C411 C412 1.383 . S
C411 H419 0.929 . S
C412 C411 1.383 . S
C412 C413 1.377 . S
C413 H397 0.930 . S
C413 C412 1.377 . S
C413 C414 1.379 . S
C414 H398 0.931 . S
C414 C408 1.383 . S
C414 C413 1.379 . S
H415 C409 0.959 . S
H416 C409 0.961 . S
H417 C409 0.960 . S
H418 C410 0.930 1_565 S
H419 C411 0.929 . S
H420 C428 0.929 . S
H421 C430 0.930 . S
H422 C432 0.930 . S
H423 C435 0.929 . S
H424 C438 0.930 . S
H425 C440 0.960 . S
H426 C440 0.960 . S
H427 C440 0.960 . S
C428 H420 0.929 . S
C428 C429 1.377 . S
C428 C430 1.384 1_455 S
C429 C428 1.377 . S
C429 C435 1.390 1_455 S
C430 H421 0.930 . S
C430 C428 1.384 1_655 S
C430 C431 1.372 . S
C431 C430 1.372 . S
C431 C432 1.400 . S
C431 C436 1.490 . S
C432 H422 0.930 . S
C432 C431 1.400 . S
C432 C435 1.386 . S
H433 C449 0.930 . S
H434 C450 0.931 . S
C435 H423 0.929 . S
C435 C429 1.390 1_655 S
C435 C432 1.386 . S
C436 C431 1.490 . S
C436 C438 1.395 . S
C436 C439 1.403 . S
H437 C443 0.930 . S
C438 H424 0.930 . S
C438 C436 1.395 . S
C438 C441 1.403 . S
C439 C436 1.403 . S
C439 C440 1.524 . S
C439 C443 1.400 . S
C440 H425 0.960 . S
C440 H426 0.960 . S
C440 H427 0.960 . S
C440 C439 1.524 . S
C441 C438 1.403 . S
C441 C442 1.392 . S
C441 C445 1.495 . S
C442 C441 1.392 . S
C442 C443 1.385 . S
C442 C444 1.478 . S
C443 H437 0.930 . S
C443 C439 1.400 . S
C443 C442 1.385 . S
C444 C442 1.478 . S
C444 C446 1.381 . S
C444 C450 1.383 . S
C445 C441 1.495 . S
C445 H451 0.959 . S
C445 H452 0.961 . S
C445 H453 0.960 . S
C446 C444 1.381 . S
C446 C447 1.394 . S
C446 H454 0.930 . S
C447 C446 1.394 . S
C447 C448 1.383 . S
C447 H455 0.929 . S
C448 C447 1.383 . S
C448 C449 1.377 . S
C449 H433 0.930 . S
C449 C448 1.377 . S
C449 C450 1.379 . S
C450 H434 0.931 . S
C450 C444 1.383 . S
C450 C449 1.379 . S
H451 C445 0.959 . S
H452 C445 0.961 . S
H453 C445 0.960 . S
H454 C446 0.930 . S
H455 C447 0.929 . S
H456 C464 0.929 . S
H457 C466 0.930 . S
H458 C468 0.930 1_455 S
H459 C471 0.929 . S
H460 C474 0.930 . S
H461 C476 0.960 . S
H462 C476 0.960 . S
H463 C476 0.960 . S
C464 H456 0.929 . S
C464 C465 1.377 . S
C464 C466 1.384 . S
C465 C464 1.377 . S
C465 C471 1.390 . S
C466 H457 0.930 . S
C466 C464 1.384 . S
C466 C467 1.366 1_655 S
C467 C466 1.366 1_455 S
C467 C468 1.400 1_455 S
C467 C472 1.496 . S
C468 H458 0.930 1_655 S
C468 C467 1.400 1_655 S
C468 C471 1.386 . S
H469 C485 0.930 . S
H470 C486 0.931 . S
C471 H459 0.929 . S
C471 C465 1.390 . S
C471 C468 1.386 . S
C472 C467 1.496 . S
C472 C474 1.395 . S
C472 C475 1.403 . S
H473 C479 0.930 . S
C474 H460 0.930 . S
C474 C472 1.395 . S
C474 C477 1.403 . S
C475 C472 1.403 . S
C475 C476 1.524 . S
C475 C479 1.400 . S
C476 H461 0.960 . S
C476 H462 0.960 . S
C476 H463 0.960 . S
C476 C475 1.524 . S
C477 C474 1.403 . S
C477 C478 1.392 . S
C477 C481 1.495 . S
C478 C477 1.392 . S
C478 C479 1.385 . S
C478 C480 1.478 . S
C479 H473 0.930 . S
C479 C475 1.400 . S
C479 C478 1.385 . S
C480 C478 1.478 . S
C480 C482 1.381 . S
C480 C486 1.383 . S
C481 C477 1.495 . S
C481 H487 0.959 . S
C481 H488 0.961 . S
C481 H489 0.960 . S
C482 C480 1.381 . S
C482 C483 1.394 1_565 S
C482 H490 0.930 . S
C483 C482 1.394 1_545 S
C483 C484 1.383 . S
C483 H491 0.929 . S
C484 C483 1.383 . S
C484 C485 1.377 1_545 S
C485 H469 0.930 . S
C485 C484 1.377 1_565 S
C485 C486 1.379 . S
C486 H470 0.931 . S
C486 C480 1.383 . S
C486 C485 1.379 . S
H487 C481 0.959 . S
H488 C481 0.961 . S
H489 C481 0.960 . S
H490 C482 0.930 . S
H491 C483 0.929 . S
H492 C500 0.929 . S
H493 C502 0.921 1_655 S
H494 C504 0.930 . S
H495 C507 0.929 . S
H496 C510 0.930 . S
H497 C512 0.960 . S
H498 C512 0.960 . S
H499 C512 0.960 . S
C500 H492 0.929 . S
C500 C501 1.377 . S
C500 C502 1.384 . S
C501 C500 1.377 . S
C501 C507 1.390 . S
C502 H493 0.921 1_455 S
C502 C500 1.384 . S
C502 C503 1.357 1_455 S
C503 C502 1.357 1_655 S
C503 C504 1.383 1_655 S
C503 C508 1.521 . S
C504 H494 0.930 . S
C504 C503 1.383 1_455 S
C504 C507 1.386 . S
H505 C521 0.930 . S
H506 C522 0.931 . S
C507 H495 0.929 . S
C507 C501 1.390 . S
C507 C504 1.386 . S
C508 C503 1.521 . S
C508 C510 1.395 . S
C508 C511 1.403 . S
H509 C515 0.930 . S
C510 H496 0.930 . S
C510 C508 1.395 . S
C510 C513 1.403 . S
C511 C508 1.403 . S
C511 C512 1.524 . S
C511 C515 1.400 . S
C512 H497 0.960 . S
C512 H498 0.960 . S
C512 H499 0.960 . S
C512 C511 1.524 . S
C513 C510 1.403 . S
C513 C514 1.392 . S
C513 C517 1.495 . S
C514 C513 1.392 . S
C514 C515 1.385 . S
C514 C516 1.478 . S
C515 H509 0.930 . S
C515 C511 1.400 . S
C515 C514 1.385 . S
C516 C514 1.478 . S
C516 C518 1.381 . S
C516 C522 1.383 . S
C517 C513 1.495 . S
C517 H523 0.959 . S
C517 H524 0.961 . S
C517 H525 0.960 . S
C518 C516 1.381 . S
C518 C519 1.394 . S
C518 H526 0.930 . S
C519 C518 1.394 . S
C519 C520 1.383 . S
C519 H527 0.929 . S
C520 C519 1.383 . S
C520 C521 1.377 . S
C521 H505 0.930 . S
C521 C520 1.377 . S
C521 C522 1.379 . S
C522 H506 0.931 . S
C522 C516 1.383 . S
C522 C521 1.379 . S
H523 C517 0.959 . S
H524 C517 0.961 . S
H525 C517 0.960 . S
H526 C518 0.930 . S
H527 C519 0.929 . S
H528 C536 0.929 . S
H529 C538 0.930 . S
H530 C540 0.930 . S
H531 C543 0.929 . S
H532 C546 0.930 . S
H533 C548 0.960 . S
H534 C548 0.960 . S
H535 C548 0.960 . S
C536 H528 0.929 . S
C536 C537 1.377 . S
C536 C538 1.384 1_655 S
C537 C536 1.377 . S
C537 C543 1.390 1_655 S
C538 H529 0.930 . S
C538 C536 1.384 1_455 S
C538 C539 1.372 . S
C539 C538 1.372 . S
C539 C540 1.400 . S
C539 C544 1.490 . S
C540 H530 0.930 . S
C540 C539 1.400 . S
C540 C543 1.386 . S
H541 C557 0.930 . S
H542 C558 0.931 1_565 S
C543 H531 0.929 . S
C543 C537 1.390 1_455 S
C543 C540 1.386 . S
C544 C539 1.490 . S
C544 C546 1.395 . S
C544 C547 1.403 . S
H545 C551 0.930 . S
C546 H532 0.930 . S
C546 C544 1.395 . S
C546 C549 1.403 . S
C547 C544 1.403 . S
C547 C548 1.524 . S
C547 C551 1.400 . S
C548 H533 0.960 . S
C548 H534 0.960 . S
C548 H535 0.960 . S
C548 C547 1.524 . S
C549 C546 1.403 . S
C549 C550 1.392 . S
C549 C553 1.495 . S
C550 C549 1.392 . S
C550 C551 1.385 . S
C550 C552 1.478 . S
C551 H545 0.930 . S
C551 C547 1.400 . S
C551 C550 1.385 . S
C552 C550 1.478 . S
C552 C554 1.381 1_565 S
C552 C558 1.383 1_565 S
C553 C549 1.495 . S
C553 H559 0.959 . S
C553 H560 0.961 . S
C553 H561 0.960 . S
C554 C552 1.381 1_545 S
C554 C555 1.394 . S
C554 H562 0.930 . S
C555 C554 1.394 . S
C555 C556 1.383 . S
C555 H563 0.929 . S
C556 C555 1.383 . S
C556 C557 1.377 . S
C557 H541 0.930 . S
C557 C556 1.377 . S
C557 C558 1.379 . S
C558 H542 0.931 1_545 S
C558 C552 1.383 1_545 S
C558 C557 1.379 . S
H559 C553 0.959 . S
H560 C553 0.961 . S
H561 C553 0.960 . S
H562 C554 0.930 . S
H563 C555 0.929 . S
H564 C572 0.929 . S
H565 C574 0.930 . S
H566 C576 0.930 . S
H567 C579 0.929 . S
H568 C582 0.930 . S
H569 C584 0.960 . S
H570 C584 0.960 . S
H571 C584 0.960 . S
C572 H564 0.929 . S
C572 C573 1.377 . S
C572 C574 1.384 . S
C573 C572 1.377 . S
C573 C579 1.390 . S
C574 H565 0.930 . S
C574 C572 1.384 . S
C574 C575 1.372 . S
C575 C574 1.372 . S
C575 C576 1.400 . S
C575 C580 1.490 . S
C576 H566 0.930 . S
C576 C575 1.400 . S
C576 C579 1.386 . S
H577 C593 0.930 . S
H578 C594 0.931 . S
C579 H567 0.929 . S
C579 C573 1.390 . S
C579 C576 1.386 . S
C580 C575 1.490 . S
C580 C582 1.395 . S
C580 C583 1.403 . S
H581 C587 0.930 . S
C582 H568 0.930 . S
C582 C580 1.395 . S
C582 C585 1.403 . S
C583 C580 1.403 . S
C583 C584 1.524 . S
C583 C587 1.400 . S
C584 H569 0.960 . S
C584 H570 0.960 . S
C584 H571 0.960 . S
C584 C583 1.524 . S
C585 C582 1.403 . S
C585 C586 1.392 . S
C585 C589 1.495 . S
C586 C585 1.392 . S
C586 C587 1.385 . S
C586 C588 1.478 . S
C587 H581 0.930 . S
C587 C583 1.400 . S
C587 C586 1.385 . S
C588 C586 1.478 . S
C588 C590 1.381 . S
C588 C594 1.383 . S
C589 C585 1.495 . S
C589 H595 0.959 . S
C589 H596 0.961 . S
C589 H597 0.960 . S
C590 C588 1.381 . S
C590 C591 1.394 1_545 S
C590 H598 0.930 . S
C591 C590 1.394 1_565 S
C591 C592 1.383 . S
C591 H599 0.929 . S
C592 C591 1.383 . S
C592 C593 1.377 1_565 S
C593 H577 0.930 . S
C593 C592 1.377 1_545 S
C593 C594 1.379 . S
C594 H578 0.931 . S
C594 C588 1.383 . S
C594 C593 1.379 . S
H595 C589 0.959 . S
H596 C589 0.961 . S
H597 C589 0.960 . S
H598 C590 0.930 . S
H599 C591 0.929 . S
H600 C608 0.929 . S
H601 C610 0.930 . S
H602 C612 0.930 . S
H603 C615 0.929 . S
H604 C618 0.930 . S
H605 C620 0.960 . S
H606 C620 0.960 . S
H607 C620 0.960 . S
C608 H600 0.929 . S
C608 C609 1.377 . S
C608 C610 1.384 . S
C609 C608 1.377 . S
C609 C615 1.390 . S
C610 H601 0.930 . S
C610 C608 1.384 . S
C610 C611 1.372 . S
C611 C610 1.372 . S
C611 C612 1.400 . S
C611 C616 1.490 . S
C612 H602 0.930 . S
C612 C611 1.400 . S
C612 C615 1.386 . S
H613 C629 0.930 . S
H614 C630 0.931 . S
C615 H603 0.929 . S
C615 C609 1.390 . S
C615 C612 1.386 . S
C616 C611 1.490 . S
C616 C618 1.395 . S
C616 C619 1.403 . S
H617 C623 0.930 . S
C618 H604 0.930 . S
C618 C616 1.395 . S
C618 C621 1.403 . S
C619 C616 1.403 . S
C619 C620 1.524 . S
C619 C623 1.400 . S
C620 H605 0.960 . S
C620 H606 0.960 . S
C620 H607 0.960 . S
C620 C619 1.524 . S
C621 C618 1.403 . S
C621 C622 1.392 . S
C621 C625 1.495 . S
C622 C621 1.392 . S
C622 C623 1.385 . S
C622 C624 1.478 1_455 S
C623 H617 0.930 . S
C623 C619 1.400 . S
C623 C622 1.385 . S
C624 C622 1.478 1_655 S
C624 C626 1.381 . S
C624 C630 1.383 . S
C625 C621 1.495 . S
C625 H631 0.959 . S
C625 H632 0.961 1_455 S
C625 H633 0.964 . S
C626 C624 1.381 . S
C626 C627 1.394 . S
C626 H634 0.930 . S
C627 C626 1.394 . S
C627 C628 1.383 . S
C627 H635 0.929 . S
C628 C627 1.383 . S
C628 C629 1.377 . S
C629 H613 0.930 . S
C629 C628 1.377 . S
C629 C630 1.379 . S
C630 H614 0.931 . S
C630 C624 1.383 . S
C630 C629 1.379 . S
H631 C625 0.959 . S
H632 C625 0.961 1_655 S
H633 C625 0.964 . S
H634 C626 0.930 . S
H635 C627 0.929 . S
H636 C644 0.929 . S
H637 C646 0.930 . S
H638 C648 0.930 . S
H639 C651 0.929 . S
H640 C654 0.930 . S
H641 C656 0.960 . S
H642 C656 0.960 . S
H643 C656 0.960 . S
C644 H636 0.929 . S
C644 C645 1.377 . S
C644 C646 1.384 1_455 S
C645 C644 1.377 . S
C645 C651 1.390 1_455 S
C646 H637 0.930 . S
C646 C644 1.384 1_655 S
C646 C647 1.372 . S
C647 C646 1.372 . S
C647 C648 1.400 . S
C647 C652 1.490 . S
C648 H638 0.930 . S
C648 C647 1.400 . S
C648 C651 1.386 . S
H649 C665 0.930 . S
H650 C666 0.931 1_545 S
C651 H639 0.929 . S
C651 C645 1.390 1_655 S
C651 C648 1.386 . S
C652 C647 1.490 . S
C652 C654 1.395 . S
C652 C655 1.403 . S
H653 C659 0.930 . S
C654 H640 0.930 . S
C654 C652 1.395 . S
C654 C657 1.403 . S
C655 C652 1.403 . S
C655 C656 1.524 . S
C655 C659 1.400 . S
C656 H641 0.960 . S
C656 H642 0.960 . S
C656 H643 0.960 . S
C656 C655 1.524 . S
C657 C654 1.403 . S
C657 C658 1.392 . S
C657 C661 1.495 . S
C658 C657 1.392 . S
C658 C659 1.385 . S
C658 C660 1.484 . S
C659 H653 0.930 . S
C659 C655 1.400 . S
C659 C658 1.385 . S
C660 C658 1.484 . S
C660 C662 1.370 1_545 S
C660 C666 1.386 1_545 S
C661 C657 1.495 . S
C661 H667 0.959 . S
C661 H668 0.961 . S
C661 H669 0.960 . S
C662 C660 1.370 1_565 S
C662 C663 1.394 . S
C662 H670 0.930 . S
C663 C662 1.394 . S
C663 C664 1.383 . S
C663 H671 0.929 . S
C664 C663 1.383 . S
C664 C665 1.377 . S
C665 H649 0.930 . S
C665 C664 1.377 . S
C665 C666 1.379 . S
C666 H650 0.931 1_565 S
C666 C660 1.386 1_565 S
C666 C665 1.379 . S
H667 C661 0.959 . S
H668 C661 0.961 . S
H669 C661 0.960 . S
H670 C662 0.930 . S
H671 C663 0.929 . S
H672 C680 0.929 . S
H673 C682 0.930 . S
H674 C684 0.930 . S
H675 C687 0.929 . S
H676 C690 0.930 . S
H677 C692 0.960 . S
H678 C692 0.960 . S
H679 C692 0.960 . S
C680 H672 0.929 . S
C680 C681 1.377 . S
C680 C682 1.384 . S
C681 C680 1.377 . S
C681 C687 1.390 . S
C682 H673 0.930 . S
C682 C680 1.384 . S
C682 C683 1.372 . S
C683 C682 1.372 . S
C683 C684 1.400 . S
C683 C688 1.490 . S
C684 H674 0.930 . S
C684 C683 1.400 . S
C684 C687 1.386 . S
H685 C701 0.930 . S
H686 C702 0.931 . S
C687 H675 0.929 . S
C687 C681 1.390 . S
C687 C684 1.386 . S
C688 C683 1.490 . S
C688 C690 1.395 . S
C688 C691 1.403 . S
H689 C695 0.930 . S
C690 H676 0.930 . S
C690 C688 1.395 . S
C690 C693 1.403 . S
C691 C688 1.403 . S
C691 C692 1.524 . S
C691 C695 1.400 . S
C692 H677 0.960 . S
C692 H678 0.960 . S
C692 H679 0.960 . S
C692 C691 1.524 . S
C693 C690 1.403 . S
C693 C694 1.392 . S
C693 C697 1.495 . S
C694 C693 1.392 . S
C694 C695 1.385 . S
C694 C696 1.478 . S
C695 H689 0.930 . S
C695 C691 1.400 . S
C695 C694 1.385 . S
C696 C694 1.478 . S
C696 C698 1.381 . S
C696 C702 1.383 . S
C697 C693 1.495 . S
C697 H703 0.959 . S
C697 H704 0.961 . S
C697 H705 0.960 . S
C698 C696 1.381 . S
C698 C699 1.394 . S
C698 H706 0.930 . S
C699 C698 1.394 . S
C699 C700 1.383 1_565 S
C699 H707 0.929 1_565 S
C700 C699 1.383 1_545 S
C700 C701 1.377 1_545 S
C701 H685 0.930 . S
C701 C700 1.377 1_565 S
C701 C702 1.379 . S
C702 H686 0.931 . S
C702 C696 1.383 . S
C702 C701 1.379 . S
H703 C697 0.959 . S
H704 C697 0.961 . S
H705 C697 0.960 . S
H706 C698 0.930 . S
H707 C699 0.929 1_545 S
H708 C716 0.929 . S
H709 C718 0.930 . S
H710 C720 0.930 . S
H711 C723 0.929 . S
H712 C726 0.930 . S
H713 C728 0.960 . S
H714 C728 0.960 . S
H715 C728 0.960 . S
C716 H708 0.929 . S
C716 C717 1.377 . S
C716 C718 1.384 . S
C717 C716 1.377 . S
C717 C723 1.390 . S
C718 H709 0.930 . S
C718 C716 1.384 . S
C718 C719 1.372 . S
C719 C718 1.372 . S
C719 C720 1.400 . S
C719 C724 1.490 . S
C720 H710 0.930 . S
C720 C719 1.400 . S
C720 C723 1.386 . S
H721 C737 0.930 . S
H722 C738 0.931 . S
C723 H711 0.929 . S
C723 C717 1.390 . S
C723 C720 1.386 . S
C724 C719 1.490 . S
C724 C726 1.395 . S
C724 C727 1.403 . S
H725 C731 0.930 . S
C726 H712 0.930 . S
C726 C724 1.395 . S
C726 C729 1.403 . S
C727 C724 1.403 . S
C727 C728 1.524 . S
C727 C731 1.400 . S
C728 H713 0.960 . S
C728 H714 0.960 . S
C728 H715 0.960 . S
C728 C727 1.524 . S
C729 C726 1.403 . S
C729 C730 1.392 . S
C729 C733 1.495 . S
C730 C729 1.392 . S
C730 C731 1.385 . S
C730 C732 1.478 . S
C731 H725 0.930 . S
C731 C727 1.400 . S
C731 C730 1.385 . S
C732 C730 1.478 . S
C732 C734 1.381 . S
C732 C738 1.383 . S
C733 C729 1.495 . S
C733 H739 0.959 . S
C733 H740 0.961 . S
C733 H741 0.960 . S
C734 C732 1.381 . S
C734 C735 1.394 . S
C734 H742 0.930 . S
C735 C734 1.394 . S
C735 C736 1.383 . S
C735 H743 0.929 . S
C736 C735 1.383 . S
C736 C737 1.377 . S
C737 H721 0.930 . S
C737 C736 1.377 . S
C737 C738 1.379 . S
C738 H722 0.931 . S
C738 C732 1.383 . S
C738 C737 1.379 . S
H739 C733 0.959 . S
H740 C733 0.961 . S
H741 C733 0.960 . S
H742 C734 0.930 . S
H743 C735 0.929 . S
H744 C752 0.929 . S
H745 C754 0.930 . S
H746 C756 0.930 . S
H747 C759 0.929 . S
H748 C762 0.930 . S
H749 C764 0.960 . S
H750 C764 0.960 . S
H751 C764 0.960 . S
C752 H744 0.929 . S
C752 C753 1.377 . S
C752 C754 1.384 . S
C753 C752 1.377 . S
C753 C759 1.390 . S
C754 H745 0.930 . S
C754 C752 1.384 . S
C754 C755 1.372 . S
C755 C754 1.372 . S
C755 C756 1.400 . S
C755 C760 1.490 . S
C756 H746 0.930 . S
C756 C755 1.400 . S
C756 C759 1.386 . S
H757 C773 0.930 . S
H758 C774 0.931 . S
C759 H747 0.929 . S
C759 C753 1.390 . S
C759 C756 1.386 . S
C760 C755 1.490 . S
C760 C762 1.395 . S
C760 C763 1.403 . S
H761 C767 0.930 . S
C762 H748 0.930 . S
C762 C760 1.395 . S
C762 C765 1.403 . S
C763 C760 1.403 . S
C763 C764 1.524 . S
C763 C767 1.400 . S
C764 H749 0.960 . S
C764 H750 0.960 . S
C764 H751 0.960 . S
C764 C763 1.524 . S
C765 C762 1.403 . S
C765 C766 1.392 . S
C765 C769 1.495 . S
C766 C765 1.392 . S
C766 C767 1.385 . S
C766 C768 1.478 . S
C767 H761 0.930 . S
C767 C763 1.400 . S
C767 C766 1.385 . S
C768 C766 1.478 . S
C768 C770 1.381 . S
C768 C774 1.383 . S
C769 C765 1.495 . S
C769 H775 0.959 . S
C769 H776 0.961 . S
C769 H777 0.960 . S
C770 C768 1.381 . S
C770 C771 1.394 . S
C770 H778 0.930 . S
C771 C770 1.394 . S
C771 C772 1.383 . S
C771 H779 0.929 . S
C772 C771 1.383 . S
C772 C773 1.377 . S
C773 H757 0.930 . S
C773 C772 1.377 . S
C773 C774 1.379 . S
C774 H758 0.931 . S
C774 C768 1.383 . S
C774 C773 1.379 . S
H775 C769 0.959 . S
H776 C769 0.961 . S
H777 C769 0.960 . S
H778 C770 0.930 . S
H779 C771 0.929 . S
H780 C788 0.929 . S
H781 C790 0.930 . S
H782 C792 0.930 . S
H783 C795 0.929 . S
H784 C798 0.930 . S
H785 C800 0.960 . S
H786 C800 0.960 . S
H787 C800 0.960 . S
C788 H780 0.929 . S
C788 C789 1.377 . S
C788 C790 1.384 . S
C789 C788 1.377 . S
C789 C795 1.390 . S
C790 H781 0.930 . S
C790 C788 1.384 . S
C790 C791 1.372 . S
C791 C790 1.372 . S
C791 C792 1.400 . S
C791 C796 1.490 . S
C792 H782 0.930 . S
C792 C791 1.400 . S
C792 C795 1.386 . S
H793 C809 0.930 . S
H794 C810 0.931 . S
C795 H783 0.929 . S
C795 C789 1.390 . S
C795 C792 1.386 . S
C796 C791 1.490 . S
C796 C798 1.395 . S
C796 C799 1.403 . S
H797 C803 0.930 . S
C798 H784 0.930 . S
C798 C796 1.395 . S
C798 C801 1.403 . S
C799 C796 1.403 . S
C799 C800 1.524 . S
C799 C803 1.400 . S
C800 H785 0.960 . S
C800 H786 0.960 . S
C800 H787 0.960 . S
C800 C799 1.524 . S
C801 C798 1.403 . S
C801 C802 1.392 . S
C801 C805 1.495 . S
C802 C801 1.392 . S
C802 C803 1.385 . S
C802 C804 1.478 . S
C803 H797 0.930 . S
C803 C799 1.400 . S
C803 C802 1.385 . S
C804 C802 1.478 . S
C804 C806 1.381 . S
C804 C810 1.383 . S
C805 C801 1.495 . S
C805 H811 0.959 . S
C805 H812 0.961 . S
C805 H813 0.960 . S
C806 C804 1.381 . S
C806 C807 1.394 . S
C806 H814 0.930 . S
C807 C806 1.394 . S
C807 C808 1.383 . S
C807 H815 0.929 . S
C808 C807 1.383 . S
C808 C809 1.377 . S
C809 H793 0.930 . S
C809 C808 1.377 . S
C809 C810 1.379 . S
C810 H794 0.931 . S
C810 C804 1.383 . S
C810 C809 1.379 . S
H811 C805 0.959 . S
H812 C805 0.961 . S
H813 C805 0.960 . S
H814 C806 0.930 . S
H815 C807 0.929 . S
H816 C824 0.929 . S
H817 C826 0.930 . S
H818 C828 0.930 . S
H819 C831 0.929 . S
H820 C834 0.930 . S
H821 C836 0.960 . S
H822 C836 0.960 . S
H823 C836 0.960 . S
C824 H816 0.929 . S
C824 C825 1.377 . S
C824 C826 1.384 . S
C825 C824 1.377 . S
C825 C831 1.390 . S
C826 H817 0.930 . S
C826 C824 1.384 . S
C826 C827 1.372 . S
C827 C826 1.372 . S
C827 C828 1.400 . S
C827 C832 1.490 . S
C828 H818 0.930 . S
C828 C827 1.400 . S
C828 C831 1.386 . S
H829 C845 0.930 . S
H830 C846 0.931 . S
C831 H819 0.929 . S
C831 C825 1.390 . S
C831 C828 1.386 . S
C832 C827 1.490 . S
C832 C834 1.395 . S
C832 C835 1.403 . S
H833 C839 0.930 . S
C834 H820 0.930 . S
C834 C832 1.395 . S
C834 C837 1.403 . S
C835 C832 1.403 . S
C835 C836 1.524 . S
C835 C839 1.400 . S
C836 H821 0.960 . S
C836 H822 0.960 . S
C836 H823 0.960 . S
C836 C835 1.524 . S
C837 C834 1.403 . S
C837 C838 1.392 . S
C837 C841 1.495 . S
C838 C837 1.392 . S
C838 C839 1.385 . S
C838 C840 1.478 . S
C839 H833 0.930 . S
C839 C835 1.400 . S
C839 C838 1.385 . S
C840 C838 1.478 . S
C840 C842 1.381 . S
C840 C846 1.383 . S
C841 C837 1.495 . S
C841 H847 0.959 . S
C841 H848 0.961 . S
C841 H849 0.960 . S
C842 C840 1.381 . S
C842 C843 1.394 . S
C842 H850 0.930 . S
C843 C842 1.394 . S
C843 C844 1.383 . S
C843 H851 0.929 . S
C844 C843 1.383 . S
C844 C845 1.377 . S
C845 H829 0.930 . S
C845 C844 1.377 . S
C845 C846 1.379 . S
C846 H830 0.931 . S
C846 C840 1.383 . S
C846 C845 1.379 . S
H847 C841 0.959 . S
H848 C841 0.961 . S
H849 C841 0.960 . S
H850 C842 0.930 . S
H851 C843 0.929 . S
H852 C860 0.929 . S
H853 C862 0.930 . S
H854 C864 0.930 . S
H855 C867 0.929 . S
H856 C870 0.930 . S
H857 C872 0.960 . S
H858 C872 0.960 . S
H859 C872 0.960 . S
C860 H852 0.929 . S
C860 C861 1.377 . S
C860 C862 1.384 . S
C861 C860 1.377 . S
C861 C867 1.390 . S
C862 H853 0.930 . S
C862 C860 1.384 . S
C862 C863 1.372 . S
C863 C862 1.372 . S
C863 C864 1.400 . S
C863 C868 1.490 . S
C864 H854 0.930 . S
C864 C863 1.400 . S
C864 C867 1.386 . S
H865 C881 0.930 . S
H866 C882 0.931 . S
C867 H855 0.929 . S
C867 C861 1.390 . S
C867 C864 1.386 . S
C868 C863 1.490 . S
C868 C870 1.395 . S
C868 C871 1.403 . S
H869 C875 0.930 . S
C870 H856 0.930 . S
C870 C868 1.395 . S
C870 C873 1.403 . S
C871 C868 1.403 . S
C871 C872 1.524 . S
C871 C875 1.400 . S
C872 H857 0.960 . S
C872 H858 0.960 . S
C872 H859 0.960 . S
C872 C871 1.524 . S
C873 C870 1.403 . S
C873 C874 1.392 . S
C873 C877 1.495 . S
C874 C873 1.392 . S
C874 C875 1.385 . S
C874 C876 1.478 . S
C875 H869 0.930 . S
C875 C871 1.400 . S
C875 C874 1.385 . S
C876 C874 1.478 . S
C876 C878 1.381 . S
C876 C882 1.383 . S
C877 C873 1.495 . S
C877 H883 0.959 . S
C877 H884 0.961 . S
C877 H885 0.960 . S
C878 C876 1.381 . S
C878 C879 1.394 . S
C878 H886 0.930 . S
C879 C878 1.394 . S
C879 C880 1.383 . S
C879 H887 0.929 . S
C880 C879 1.383 . S
C880 C881 1.377 . S
C881 H865 0.930 . S
C881 C880 1.377 . S
C881 C882 1.379 . S
C882 H866 0.931 . S
C882 C876 1.383 . S
C882 C881 1.379 . S
H883 C877 0.959 . S
H884 C877 0.961 . S
H885 C877 0.960 . S
H886 C878 0.930 . S
H887 C879 0.929 . S
H888 C896 0.929 . S
H889 C898 0.930 . S
H890 C900 0.930 . S
H891 C903 0.929 . S
H892 C906 0.930 . S
H893 C908 0.960 . S
H894 C908 0.960 . S
H895 C908 0.960 . S
C896 H888 0.929 . S
C896 C897 1.377 . S
C896 C898 1.384 . S
C897 C896 1.377 . S
C897 C903 1.390 . S
C898 H889 0.930 . S
C898 C896 1.384 . S
C898 C899 1.372 . S
C899 C898 1.372 . S
C899 C900 1.400 . S
C899 C904 1.490 . S
C900 H890 0.930 . S
C900 C899 1.400 . S
C900 C903 1.386 . S
H901 C917 0.930 . S
H902 C918 0.931 . S
C903 H891 0.929 . S
C903 C897 1.390 . S
C903 C900 1.386 . S
C904 C899 1.490 . S
C904 C906 1.395 . S
C904 C907 1.403 . S
H905 C911 0.930 . S
C906 H892 0.930 . S
C906 C904 1.395 . S
C906 C909 1.403 . S
C907 C904 1.403 . S
C907 C908 1.524 . S
C907 C911 1.400 . S
C908 H893 0.960 . S
C908 H894 0.960 . S
C908 H895 0.960 . S
C908 C907 1.524 . S
C909 C906 1.403 . S
C909 C910 1.392 . S
C909 C913 1.495 . S
C910 C909 1.392 . S
C910 C911 1.385 . S
C910 C912 1.478 . S
C911 H905 0.930 . S
C911 C907 1.400 . S
C911 C910 1.385 . S
C912 C910 1.478 . S
C912 C914 1.381 . S
C912 C918 1.383 . S
C913 C909 1.495 . S
C913 H919 0.959 . S
C913 H920 0.961 . S
C913 H921 0.960 . S
C914 C912 1.381 . S
C914 C915 1.394 . S
C914 H922 0.930 . S
C915 C914 1.394 . S
C915 C916 1.383 . S
C915 H923 0.929 . S
C916 C915 1.383 . S
C916 C917 1.377 . S
C917 H901 0.930 . S
C917 C916 1.377 . S
C917 C918 1.379 . S
C918 H902 0.931 . S
C918 C912 1.383 . S
C918 C917 1.379 . S
H919 C913 0.959 . S
H920 C913 0.961 . S
H921 C913 0.960 . S
H922 C914 0.930 . S
H923 C915 0.929 . S
H924 C932 0.929 . S
H925 C934 0.930 . S
H926 C936 0.930 . S
H927 C939 0.929 . S
H928 C942 0.930 . S
H929 C944 0.960 . S
H930 C944 0.960 . S
H931 C944 0.960 . S
C932 H924 0.929 . S
C932 C933 1.377 . S
C932 C934 1.384 . S
C933 C932 1.377 . S
C933 C939 1.390 . S
C934 H925 0.930 . S
C934 C932 1.384 . S
C934 C935 1.372 . S
C935 C934 1.372 . S
C935 C936 1.400 . S
C935 C940 1.490 . S
C936 H926 0.930 . S
C936 C935 1.400 . S
C936 C939 1.386 . S
H937 C953 0.930 . S
H938 C954 0.931 . S
C939 H927 0.929 . S
C939 C933 1.390 . S
C939 C936 1.386 . S
C940 C935 1.490 . S
C940 C942 1.395 . S
C940 C943 1.403 . S
H941 C947 0.930 . S
C942 H928 0.930 . S
C942 C940 1.395 . S
C942 C945 1.403 . S
C943 C940 1.403 . S
C943 C944 1.524 . S
C943 C947 1.400 . S
C944 H929 0.960 . S
C944 H930 0.960 . S
C944 H931 0.960 . S
C944 C943 1.524 . S
C945 C942 1.403 . S
C945 C946 1.392 . S
C945 C949 1.495 . S
C946 C945 1.392 . S
C946 C947 1.385 . S
C946 C948 1.478 . S
C947 H941 0.930 . S
C947 C943 1.400 . S
C947 C946 1.385 . S
C948 C946 1.478 . S
C948 C950 1.381 . S
C948 C954 1.383 . S
C949 C945 1.495 . S
C949 H955 0.959 . S
C949 H956 0.961 . S
C949 H957 0.960 . S
C950 C948 1.381 . S
C950 C951 1.394 . S
C950 H958 0.930 . S
C951 C950 1.394 . S
C951 C952 1.383 . S
C951 H959 0.929 . S
C952 C951 1.383 . S
C952 C953 1.377 . S
C953 H937 0.930 . S
C953 C952 1.377 . S
C953 C954 1.379 . S
C954 H938 0.931 . S
C954 C948 1.383 . S
C954 C953 1.379 . S
H955 C949 0.959 . S
H956 C949 0.961 . S
H957 C949 0.960 . S
H958 C950 0.930 . S
H959 C951 0.929 . S
H960 C968 0.929 . S
H961 C970 0.930 . S
H962 C972 0.930 . S
H963 C975 0.929 . S
H964 C978 0.930 . S
H965 C980 0.960 . S
H966 C980 0.960 . S
H967 C980 0.960 . S
C968 H960 0.929 . S
C968 C969 1.377 . S
C968 C970 1.384 . S
C969 C968 1.377 . S
C969 C975 1.390 . S
C970 H961 0.930 . S
C970 C968 1.384 . S
C970 C971 1.372 . S
C971 C970 1.372 . S
C971 C972 1.400 . S
C971 C976 1.490 . S
C972 H962 0.930 . S
C972 C971 1.400 . S
C972 C975 1.386 . S
H973 C989 0.930 . S
H974 C990 0.931 . S
C975 H963 0.929 . S
C975 C969 1.390 . S
C975 C972 1.386 . S
C976 C971 1.490 . S
C976 C978 1.395 . S
C976 C979 1.403 . S
H977 C983 0.930 . S
C978 H964 0.930 . S
C978 C976 1.395 . S
C978 C981 1.403 . S
C979 C976 1.403 . S
C979 C980 1.524 . S
C979 C983 1.400 . S
C980 H965 0.960 . S
C980 H966 0.960 . S
C980 H967 0.960 . S
C980 C979 1.524 . S
C981 C978 1.403 . S
C981 C982 1.392 . S
C981 C985 1.495 . S
C982 C981 1.392 . S
C982 C983 1.385 . S
C982 C984 1.478 . S
C983 H977 0.930 . S
C983 C979 1.400 . S
C983 C982 1.385 . S
C984 C982 1.478 . S
C984 C986 1.381 . S
C984 C990 1.383 . S
C985 C981 1.495 . S
C985 H991 0.959 . S
C985 H992 0.961 . S
C985 H993 0.960 . S
C986 C984 1.381 . S
C986 C987 1.394 . S
C986 H994 0.930 . S
C987 C986 1.394 . S
C987 C988 1.383 . S
C987 H995 0.929 . S
C988 C987 1.383 . S
C988 C989 1.377 . S
C989 H973 0.930 . S
C989 C988 1.377 . S
C989 C990 1.379 . S
C990 H974 0.931 . S
C990 C984 1.383 . S
C990 C989 1.379 . S
H991 C985 0.959 . S
H992 C985 0.961 . S
H993 C985 0.960 . S
H994 C986 0.930 . S
H995 C987 0.929 . S
H996 C1004 0.929 . S
H997 C1006 0.930 . S
H998 C1008 0.930 . S
H999 C1011 0.929 . S
H1000 C1014 0.930 . S
H1001 C1016 0.960 . S
H1002 C1016 0.960 . S
H1003 C1016 0.960 . S
C1004 H996 0.929 . S
C1004 C1005 1.377 . S
C1004 C1006 1.384 . S
C1005 C1004 1.377 . S
C1005 C1011 1.390 . S
C1006 H997 0.930 . S
C1006 C1004 1.384 . S
C1006 C1007 1.372 . S
C1007 C1006 1.372 . S
C1007 C1008 1.400 . S
C1007 C1012 1.490 . S
C1008 H998 0.930 . S
C1008 C1007 1.400 . S
C1008 C1011 1.386 . S
H1009 C1025 0.930 . S
H1010 C1026 0.931 . S
C1011 H999 0.929 . S
C1011 C1005 1.390 . S
C1011 C1008 1.386 . S
C1012 C1007 1.490 . S
C1012 C1014 1.395 . S
C1012 C1015 1.403 . S
H1013 C1019 0.930 . S
C1014 H1000 0.930 . S
C1014 C1012 1.395 . S
C1014 C1017 1.403 . S
C1015 C1012 1.403 . S
C1015 C1016 1.524 . S
C1015 C1019 1.400 . S
C1016 H1001 0.960 . S
C1016 H1002 0.960 . S
C1016 H1003 0.960 . S
C1016 C1015 1.524 . S
C1017 C1014 1.403 . S
C1017 C1018 1.392 . S
C1017 C1021 1.495 . S
C1018 C1017 1.392 . S
C1018 C1019 1.385 . S
C1018 C1020 1.478 . S
C1019 H1013 0.930 . S
C1019 C1015 1.400 . S
C1019 C1018 1.385 . S
C1020 C1018 1.478 . S
C1020 C1022 1.381 . S
C1020 C1026 1.383 . S
C1021 C1017 1.495 . S
C1021 H1027 0.959 . S
C1021 H1028 0.961 . S
C1021 H1029 0.960 . S
C1022 C1020 1.381 . S
C1022 C1023 1.394 . S
C1022 H1030 0.930 . S
C1023 C1022 1.394 . S
C1023 C1024 1.383 . S
C1023 H1031 0.929 . S
C1024 C1023 1.383 . S
C1024 C1025 1.377 . S
C1025 H1009 0.930 . S
C1025 C1024 1.377 . S
C1025 C1026 1.379 . S
C1026 H1010 0.931 . S
C1026 C1020 1.383 . S
C1026 C1025 1.379 . S
H1027 C1021 0.959 . S
H1028 C1021 0.961 . S
H1029 C1021 0.960 . S
H1030 C1022 0.930 . S
H1031 C1023 0.929 . S
H1032 C1040 0.929 . S
H1033 C1042 0.930 . S
H1034 C1044 0.930 . S
H1035 C1047 0.929 . S
H1036 C1050 0.930 . S
H1037 C1052 0.960 . S
H1038 C1052 0.960 . S
H1039 C1052 0.960 . S
C1040 H1032 0.929 . S
C1040 C1041 1.377 . S
C1040 C1042 1.384 . S
C1041 C1040 1.377 . S
C1041 C1047 1.390 . S
C1042 H1033 0.930 . S
C1042 C1040 1.384 . S
C1042 C1043 1.372 . S
C1043 C1042 1.372 . S
C1043 C1044 1.400 . S
C1043 C1048 1.490 . S
C1044 H1034 0.930 . S
C1044 C1043 1.400 . S
C1044 C1047 1.386 . S
H1045 C1061 0.930 . S
H1046 C1062 0.931 . S
C1047 H1035 0.929 . S
C1047 C1041 1.390 . S
C1047 C1044 1.386 . S
C1048 C1043 1.490 . S
C1048 C1050 1.395 . S
C1048 C1051 1.403 . S
H1049 C1055 0.930 . S
C1050 H1036 0.930 . S
C1050 C1048 1.395 . S
C1050 C1053 1.403 . S
C1051 C1048 1.403 . S
C1051 C1052 1.524 . S
C1051 C1055 1.400 . S
C1052 H1037 0.960 . S
C1052 H1038 0.960 . S
C1052 H1039 0.960 . S
C1052 C1051 1.524 . S
C1053 C1050 1.403 . S
C1053 C1054 1.392 . S
C1053 C1057 1.495 . S
C1054 C1053 1.392 . S
C1054 C1055 1.385 . S
C1054 C1056 1.478 . S
C1055 H1049 0.930 . S
C1055 C1051 1.400 . S
C1055 C1054 1.385 . S
C1056 C1054 1.478 . S
C1056 C1058 1.381 . S
C1056 C1062 1.383 . S
C1057 C1053 1.495 . S
C1057 H1063 0.959 . S
C1057 H1064 0.961 . S
C1057 H1065 0.960 . S
C1058 C1056 1.381 . S
C1058 C1059 1.394 . S
C1058 H1066 0.930 . S
C1059 C1058 1.394 . S
C1059 C1060 1.383 . S
C1059 H1067 0.929 . S
C1060 C1059 1.383 . S
C1060 C1061 1.377 . S
C1061 H1045 0.930 . S
C1061 C1060 1.377 . S
C1061 C1062 1.379 . S
C1062 H1046 0.931 . S
C1062 C1056 1.383 . S
C1062 C1061 1.379 . S
H1063 C1057 0.959 . S
H1064 C1057 0.961 . S
H1065 C1057 0.960 . S
H1066 C1058 0.930 . S
H1067 C1059 0.929 . S
H1068 C1076 0.929 . S
H1069 C1078 0.930 . S
H1070 C1080 0.930 . S
H1071 C1083 0.929 . S
H1072 C1086 0.930 . S
H1073 C1088 0.960 . S
H1074 C1088 0.960 . S
H1075 C1088 0.960 . S
C1076 H1068 0.929 . S
C1076 C1077 1.377 . S
C1076 C1078 1.384 . S
C1077 C1076 1.377 . S
C1077 C1083 1.390 . S
C1078 H1069 0.930 . S
C1078 C1076 1.384 . S
C1078 C1079 1.372 . S
C1079 C1078 1.372 . S
C1079 C1080 1.400 . S
C1079 C1084 1.490 . S
C1080 H1070 0.930 . S
C1080 C1079 1.400 . S
C1080 C1083 1.386 . S
H1081 C1097 0.930 . S
H1082 C1098 0.931 . S
C1083 H1071 0.929 . S
C1083 C1077 1.390 . S
C1083 C1080 1.386 . S
C1084 C1079 1.490 . S
C1084 C1086 1.395 . S
C1084 C1087 1.403 . S
H1085 C1091 0.930 . S
C1086 H1072 0.930 . S
C1086 C1084 1.395 . S
C1086 C1089 1.403 . S
C1087 C1084 1.403 . S
C1087 C1088 1.524 . S
C1087 C1091 1.400 . S
C1088 H1073 0.960 . S
C1088 H1074 0.960 . S
C1088 H1075 0.960 . S
C1088 C1087 1.524 . S
C1089 C1086 1.403 . S
C1089 C1090 1.392 . S
C1089 C1093 1.495 . S
C1090 C1089 1.392 . S
C1090 C1091 1.385 . S
C1090 C1092 1.478 . S
C1091 H1085 0.930 . S
C1091 C1087 1.400 . S
C1091 C1090 1.385 . S
C1092 C1090 1.478 . S
C1092 C1094 1.381 . S
C1092 C1098 1.383 . S
C1093 C1089 1.495 . S
C1093 H1099 0.959 . S
C1093 H1100 0.961 . S
C1093 H1101 0.960 . S
C1094 C1092 1.381 . S
C1094 C1095 1.394 . S
C1094 H1102 0.930 . S
C1095 C1094 1.394 . S
C1095 C1096 1.383 . S
C1095 H1103 0.929 . S
C1096 C1095 1.383 . S
C1096 C1097 1.377 . S
C1097 H1081 0.930 . S
C1097 C1096 1.377 . S
C1097 C1098 1.379 . S
C1098 H1082 0.931 . S
C1098 C1092 1.383 . S
C1098 C1097 1.379 . S
H1099 C1093 0.959 . S
H1100 C1093 0.961 . S
H1101 C1093 0.960 . S
H1102 C1094 0.930 . S
H1103 C1095 0.929 . S
H1104 C1112 0.929 . S
H1105 C1114 0.930 . S
H1106 C1116 0.930 . S
H1107 C1119 0.929 . S
H1108 C1122 0.930 . S
H1109 C1124 0.960 . S
H1110 C1124 0.960 . S
H1111 C1124 0.960 . S
C1112 H1104 0.929 . S
C1112 C1113 1.377 . S
C1112 C1114 1.384 . S
C1113 C1112 1.377 . S
C1113 C1119 1.390 . S
C1114 H1105 0.930 . S
C1114 C1112 1.384 . S
C1114 C1115 1.372 . S
C1115 C1114 1.372 . S
C1115 C1116 1.400 . S
C1115 C1120 1.490 . S
C1116 H1106 0.930 . S
C1116 C1115 1.400 . S
C1116 C1119 1.386 . S
H1117 C1133 0.930 . S
H1118 C1134 0.931 . S
C1119 H1107 0.929 . S
C1119 C1113 1.390 . S
C1119 C1116 1.386 . S
C1120 C1115 1.490 . S
C1120 C1122 1.395 . S
C1120 C1123 1.403 . S
H1121 C1127 0.930 . S
C1122 H1108 0.930 . S
C1122 C1120 1.395 . S
C1122 C1125 1.403 . S
C1123 C1120 1.403 . S
C1123 C1124 1.524 . S
C1123 C1127 1.400 . S
C1124 H1109 0.960 . S
C1124 H1110 0.960 . S
C1124 H1111 0.960 . S
C1124 C1123 1.524 . S
C1125 C1122 1.403 . S
C1125 C1126 1.392 . S
C1125 C1129 1.495 . S
C1126 C1125 1.392 . S
C1126 C1127 1.385 . S
C1126 C1128 1.478 . S
C1127 H1121 0.930 . S
C1127 C1123 1.400 . S
C1127 C1126 1.385 . S
C1128 C1126 1.478 . S
C1128 C1130 1.381 . S
C1128 C1134 1.383 . S
C1129 C1125 1.495 . S
C1129 H1135 0.959 . S
C1129 H1136 0.961 . S
C1129 H1137 0.960 . S
C1130 C1128 1.381 . S
C1130 C1131 1.394 . S
C1130 H1138 0.930 . S
C1131 C1130 1.394 . S
C1131 C1132 1.383 . S
C1131 H1139 0.929 . S
C1132 C1131 1.383 . S
C1132 C1133 1.377 . S
C1133 H1117 0.930 . S
C1133 C1132 1.377 . S
C1133 C1134 1.379 . S
C1134 H1118 0.931 . S
C1134 C1128 1.383 . S
C1134 C1133 1.379 . S
H1135 C1129 0.959 . S
H1136 C1129 0.961 . S
H1137 C1129 0.960 . S
H1138 C1130 0.930 . S
H1139 C1131 0.929 . S
H1140 C1148 0.929 . S
H1141 C1150 0.930 . S
H1142 C1152 0.930 . S
H1143 C1155 0.929 . S
H1144 C1158 0.930 . S
H1145 C1160 0.960 . S
H1146 C1160 0.960 . S
H1147 C1160 0.960 . S
C1148 H1140 0.929 . S
C1148 C1149 1.377 . S
C1148 C1150 1.384 . S
C1149 C1148 1.377 . S
C1149 C1155 1.390 . S
C1150 H1141 0.930 . S
C1150 C1148 1.384 . S
C1150 C1151 1.372 . S
C1151 C1150 1.372 . S
C1151 C1152 1.400 . S
C1151 C1156 1.490 . S
C1152 H1142 0.930 . S
C1152 C1151 1.400 . S
C1152 C1155 1.386 . S
H1153 C1169 0.930 . S
H1154 C1170 0.931 . S
C1155 H1143 0.929 . S
C1155 C1149 1.390 . S
C1155 C1152 1.386 . S
C1156 C1151 1.490 . S
C1156 C1158 1.395 . S
C1156 C1159 1.403 . S
H1157 C1163 0.930 . S
C1158 H1144 0.930 . S
C1158 C1156 1.395 . S
C1158 C1161 1.403 . S
C1159 C1156 1.403 . S
C1159 C1160 1.524 . S
C1159 C1163 1.400 . S
C1160 H1145 0.960 . S
C1160 H1146 0.960 . S
C1160 H1147 0.960 . S
C1160 C1159 1.524 . S
C1161 C1158 1.403 . S
C1161 C1162 1.392 . S
C1161 C1165 1.495 . S
C1162 C1161 1.392 . S
C1162 C1163 1.385 . S
C1162 C1164 1.478 . S
C1163 H1157 0.930 . S
C1163 C1159 1.400 . S
C1163 C1162 1.385 . S
C1164 C1162 1.478 . S
C1164 C1166 1.381 . S
C1164 C1170 1.383 . S
C1165 C1161 1.495 . S
C1165 H1171 0.959 . S
C1165 H1172 0.961 . S
C1165 H1173 0.960 . S
C1166 C1164 1.381 . S
C1166 C1167 1.394 . S
C1166 H1174 0.930 . S
C1167 C1166 1.394 . S
C1167 C1168 1.383 . S
C1167 H1175 0.929 . S
C1168 C1167 1.383 . S
C1168 C1169 1.377 . S
C1169 H1153 0.930 . S
C1169 C1168 1.377 . S
C1169 C1170 1.379 . S
C1170 H1154 0.931 . S
C1170 C1164 1.383 . S
C1170 C1169 1.379 . S
H1171 C1165 0.959 . S
H1172 C1165 0.961 . S
H1173 C1165 0.960 . S
H1174 C1166 0.930 . S
H1175 C1167 0.929 . S
H1176 C1184 0.929 . S
H1177 C1186 0.930 . S
H1178 C1188 0.930 . S
H1179 C1191 0.929 . S
H1180 C1194 0.930 . S
H1181 C1196 0.960 . S
H1182 C1196 0.960 . S
H1183 C1196 0.960 . S
C1184 H1176 0.929 . S
C1184 C1185 1.377 . S
C1184 C1186 1.384 . S
C1185 C1184 1.377 . S
C1185 C1191 1.390 . S
C1186 H1177 0.930 . S
C1186 C1184 1.384 . S
C1186 C1187 1.372 . S
C1187 C1186 1.372 . S
C1187 C1188 1.400 . S
C1187 C1192 1.490 . S
C1188 H1178 0.930 . S
C1188 C1187 1.400 . S
C1188 C1191 1.386 . S
H1189 C1205 0.930 . S
H1190 C1206 0.931 . S
C1191 H1179 0.929 . S
C1191 C1185 1.390 . S
C1191 C1188 1.386 . S
C1192 C1187 1.490 . S
C1192 C1194 1.395 . S
C1192 C1195 1.403 . S
H1193 C1199 0.930 . S
C1194 H1180 0.930 . S
C1194 C1192 1.395 . S
C1194 C1197 1.403 . S
C1195 C1192 1.403 . S
C1195 C1196 1.524 . S
C1195 C1199 1.400 . S
C1196 H1181 0.960 . S
C1196 H1182 0.960 . S
C1196 H1183 0.960 . S
C1196 C1195 1.524 . S
C1197 C1194 1.403 . S
C1197 C1198 1.392 . S
C1197 C1201 1.495 . S
C1198 C1197 1.392 . S
C1198 C1199 1.385 . S
C1198 C1200 1.478 . S
C1199 H1193 0.930 . S
C1199 C1195 1.400 . S
C1199 C1198 1.385 . S
C1200 C1198 1.478 . S
C1200 C1202 1.381 . S
C1200 C1206 1.383 . S
C1201 C1197 1.495 . S
C1201 H1207 0.959 . S
C1201 H1208 0.961 . S
C1201 H1209 0.960 . S
C1202 C1200 1.381 . S
C1202 C1203 1.394 . S
C1202 H1210 0.930 . S
C1203 C1202 1.394 . S
C1203 C1204 1.383 . S
C1203 H1211 0.929 . S
C1204 C1203 1.383 . S
C1204 C1205 1.377 . S
C1205 H1189 0.930 . S
C1205 C1204 1.377 . S
C1205 C1206 1.379 . S
C1206 H1190 0.931 . S
C1206 C1200 1.383 . S
C1206 C1205 1.379 . S
H1207 C1201 0.959 . S
H1208 C1201 0.961 . S
H1209 C1201 0.960 . S
H1210 C1202 0.930 . S
H1211 C1203 0.929 . S
H1212 C1220 0.929 . S
H1213 C1222 0.930 . S
H1214 C1224 0.930 . S
H1215 C1227 0.929 . S
H1216 C1230 0.930 . S
H1217 C1232 0.960 . S
H1218 C1232 0.960 . S
H1219 C1232 0.960 . S
C1220 H1212 0.929 . S
C1220 C1221 1.377 . S
C1220 C1222 1.384 . S
C1221 C1220 1.377 . S
C1221 C1227 1.390 . S
C1222 H1213 0.930 . S
C1222 C1220 1.384 . S
C1222 C1223 1.372 . S
C1223 C1222 1.372 . S
C1223 C1224 1.400 . S
C1223 C1228 1.490 . S
C1224 H1214 0.930 . S
C1224 C1223 1.400 . S
C1224 C1227 1.386 . S
H1225 C1241 0.930 . S
H1226 C1242 0.931 . S
C1227 H1215 0.929 . S
C1227 C1221 1.390 . S
C1227 C1224 1.386 . S
C1228 C1223 1.490 . S
C1228 C1230 1.395 . S
C1228 C1231 1.403 . S
H1229 C1235 0.930 . S
C1230 H1216 0.930 . S
C1230 C1228 1.395 . S
C1230 C1233 1.403 . S
C1231 C1228 1.403 . S
C1231 C1232 1.524 . S
C1231 C1235 1.400 . S
C1232 H1217 0.960 . S
C1232 H1218 0.960 . S
C1232 H1219 0.960 . S
C1232 C1231 1.524 . S
C1233 C1230 1.403 . S
C1233 C1234 1.392 . S
C1233 C1237 1.495 . S
C1234 C1233 1.392 . S
C1234 C1235 1.385 . S
C1234 C1236 1.478 . S
C1235 H1229 0.930 . S
C1235 C1231 1.400 . S
C1235 C1234 1.385 . S
C1236 C1234 1.478 . S
C1236 C1238 1.381 . S
C1236 C1242 1.383 . S
C1237 C1233 1.495 . S
C1237 H1243 0.959 . S
C1237 H1244 0.961 . S
C1237 H1245 0.960 . S
C1238 C1236 1.381 . S
C1238 C1239 1.394 . S
C1238 H1246 0.930 . S
C1239 C1238 1.394 . S
C1239 C1240 1.383 . S
C1239 H1247 0.929 . S
C1240 C1239 1.383 . S
C1240 C1241 1.377 . S
C1241 H1225 0.930 . S
C1241 C1240 1.377 . S
C1241 C1242 1.379 . S
C1242 H1226 0.931 . S
C1242 C1236 1.383 . S
C1242 C1241 1.379 . S
H1243 C1237 0.959 . S
H1244 C1237 0.961 . S
H1245 C1237 0.960 . S
H1246 C1238 0.930 . S
H1247 C1239 0.929 . S
H1248 C1256 0.929 . S
H1249 C1258 0.930 . S
H1250 C1260 0.930 . S
H1251 C1263 0.929 . S
H1252 C1266 0.930 . S
H1253 C1268 0.960 . S
H1254 C1268 0.960 . S
H1255 C1268 0.960 . S
C1256 H1248 0.929 . S
C1256 C1257 1.377 . S
C1256 C1258 1.384 . S
C1257 C1256 1.377 . S
C1257 C1263 1.390 . S
C1258 H1249 0.930 . S
C1258 C1256 1.384 . S
C1258 C1259 1.372 . S
C1259 C1258 1.372 . S
C1259 C1260 1.400 . S
C1259 C1264 1.490 . S
C1260 H1250 0.930 . S
C1260 C1259 1.400 . S
C1260 C1263 1.386 . S
H1261 C1277 0.930 . S
H1262 C1278 0.931 . S
C1263 H1251 0.929 . S
C1263 C1257 1.390 . S
C1263 C1260 1.386 . S
C1264 C1259 1.490 . S
C1264 C1266 1.395 . S
C1264 C1267 1.403 . S
H1265 C1271 0.930 . S
C1266 H1252 0.930 . S
C1266 C1264 1.395 . S
C1266 C1269 1.403 . S
C1267 C1264 1.403 . S
C1267 C1268 1.524 . S
C1267 C1271 1.400 . S
C1268 H1253 0.960 . S
C1268 H1254 0.960 . S
C1268 H1255 0.960 . S
C1268 C1267 1.524 . S
C1269 C1266 1.403 . S
C1269 C1270 1.392 . S
C1269 C1273 1.495 . S
C1270 C1269 1.392 . S
C1270 C1271 1.385 . S
C1270 C1272 1.478 . S
C1271 H1265 0.930 . S
C1271 C1267 1.400 . S
C1271 C1270 1.385 . S
C1272 C1270 1.478 . S
C1272 C1274 1.381 . S
C1272 C1278 1.383 . S
C1273 C1269 1.495 . S
C1273 H1279 0.959 . S
C1273 H1280 0.961 . S
C1273 H1281 0.960 . S
C1274 C1272 1.381 . S
C1274 C1275 1.394 . S
C1274 H1282 0.930 . S
C1275 C1274 1.394 . S
C1275 C1276 1.383 . S
C1275 H1283 0.929 . S
C1276 C1275 1.383 . S
C1276 C1277 1.377 . S
C1277 H1261 0.930 . S
C1277 C1276 1.377 . S
C1277 C1278 1.379 . S
C1278 H1262 0.931 . S
C1278 C1272 1.383 . S
C1278 C1277 1.379 . S
H1279 C1273 0.959 . S
H1280 C1273 0.961 . S
H1281 C1273 0.960 . S
H1282 C1274 0.930 . S
H1283 C1275 0.929 . S
H1284 C1292 0.929 . S
H1285 C1294 0.930 . S
H1286 C1296 0.930 . S
H1287 C1299 0.929 . S
H1288 C1302 0.930 . S
H1289 C1304 0.960 . S
H1290 C1304 0.960 . S
H1291 C1304 0.960 . S
C1292 H1284 0.929 . S
C1292 C1293 1.377 . S
C1292 C1294 1.384 . S
C1293 C1292 1.377 . S
C1293 C1299 1.390 . S
C1294 H1285 0.930 . S
C1294 C1292 1.384 . S
C1294 C1295 1.372 . S
C1295 C1294 1.372 . S
C1295 C1296 1.400 . S
C1295 C1300 1.490 . S
C1296 H1286 0.930 . S
C1296 C1295 1.400 . S
C1296 C1299 1.386 . S
H1297 C1313 0.930 . S
H1298 C1314 0.931 . S
C1299 H1287 0.929 . S
C1299 C1293 1.390 . S
C1299 C1296 1.386 . S
C1300 C1295 1.490 . S
C1300 C1302 1.395 . S
C1300 C1303 1.403 . S
H1301 C1307 0.930 . S
C1302 H1288 0.930 . S
C1302 C1300 1.395 . S
C1302 C1305 1.403 . S
C1303 C1300 1.403 . S
C1303 C1304 1.524 . S
C1303 C1307 1.400 . S
C1304 H1289 0.960 . S
C1304 H1290 0.960 . S
C1304 H1291 0.960 . S
C1304 C1303 1.524 . S
C1305 C1302 1.403 . S
C1305 C1306 1.392 . S
C1305 C1309 1.495 . S
C1306 C1305 1.392 . S
C1306 C1307 1.385 . S
C1306 C1308 1.478 . S
C1307 H1301 0.930 . S
C1307 C1303 1.400 . S
C1307 C1306 1.385 . S
C1308 C1306 1.478 . S
C1308 C1310 1.381 . S
C1308 C1314 1.383 . S
C1309 C1305 1.495 . S
C1309 H1315 0.959 . S
C1309 H1316 0.961 . S
C1309 H1317 0.960 . S
C1310 C1308 1.381 . S
C1310 C1311 1.394 . S
C1310 H1318 0.930 . S
C1311 C1310 1.394 . S
C1311 C1312 1.383 . S
C1311 H1319 0.929 . S
C1312 C1311 1.383 . S
C1312 C1313 1.377 . S
C1313 H1297 0.930 . S
C1313 C1312 1.377 . S
C1313 C1314 1.379 . S
C1314 H1298 0.931 . S
C1314 C1308 1.383 . S
C1314 C1313 1.379 . S
H1315 C1309 0.959 . S
H1316 C1309 0.961 . S
H1317 C1309 0.960 . S
H1318 C1310 0.930 . S
H1319 C1311 0.929 . S
H1320 C1328 0.929 . S
H1321 C1330 0.930 . S
H1322 C1332 0.930 . S
H1323 C1335 0.929 . S
H1324 C1338 0.930 . S
H1325 C1340 0.960 . S
H1326 C1340 0.960 . S
H1327 C1340 0.960 . S
C1328 H1320 0.929 . S
C1328 C1329 1.377 . S
C1328 C1330 1.384 . S
C1329 C1328 1.377 . S
C1329 C1335 1.390 . S
C1330 H1321 0.930 . S
C1330 C1328 1.384 . S
C1330 C1331 1.372 . S
C1331 C1330 1.372 . S
C1331 C1332 1.400 . S
C1331 C1336 1.490 . S
C1332 H1322 0.930 . S
C1332 C1331 1.400 . S
C1332 C1335 1.386 . S
H1333 C1349 0.930 . S
H1334 C1350 0.931 . S
C1335 H1323 0.929 . S
C1335 C1329 1.390 . S
C1335 C1332 1.386 . S
C1336 C1331 1.490 . S
C1336 C1338 1.395 . S
C1336 C1339 1.403 . S
H1337 C1343 0.930 . S
C1338 H1324 0.930 . S
C1338 C1336 1.395 . S
C1338 C1341 1.403 . S
C1339 C1336 1.403 . S
C1339 C1340 1.524 . S
C1339 C1343 1.400 . S
C1340 H1325 0.960 . S
C1340 H1326 0.960 . S
C1340 H1327 0.960 . S
C1340 C1339 1.524 . S
C1341 C1338 1.403 . S
C1341 C1342 1.392 . S
C1341 C1345 1.495 . S
C1342 C1341 1.392 . S
C1342 C1343 1.385 . S
C1342 C1344 1.478 . S
C1343 H1337 0.930 . S
C1343 C1339 1.400 . S
C1343 C1342 1.385 . S
C1344 C1342 1.478 . S
C1344 C1346 1.381 . S
C1344 C1350 1.383 . S
C1345 C1341 1.495 . S
C1345 H1351 0.959 . S
C1345 H1352 0.961 . S
C1345 H1353 0.960 . S
C1346 C1344 1.381 . S
C1346 C1347 1.394 . S
C1346 H1354 0.930 . S
C1347 C1346 1.394 . S
C1347 C1348 1.383 . S
C1347 H1355 0.929 . S
C1348 C1347 1.383 . S
C1348 C1349 1.377 . S
C1349 H1333 0.930 . S
C1349 C1348 1.377 . S
C1349 C1350 1.379 . S
C1350 H1334 0.931 . S
C1350 C1344 1.383 . S
C1350 C1349 1.379 . S
H1351 C1345 0.959 . S
H1352 C1345 0.961 . S
H1353 C1345 0.960 . S
H1354 C1346 0.930 . S
H1355 C1347 0.929 . S
H1356 C1364 0.929 . S
H1357 C1366 0.930 . S
H1358 C1368 0.930 . S
H1359 C1371 0.929 . S
H1360 C1374 0.930 . S
H1361 C1376 0.960 . S
H1362 C1376 0.960 . S
H1363 C1376 0.960 . S
C1364 H1356 0.929 . S
C1364 C1365 1.377 . S
C1364 C1366 1.384 . S
C1365 C1364 1.377 . S
C1365 C1371 1.390 . S
C1366 H1357 0.930 . S
C1366 C1364 1.384 . S
C1366 C1367 1.372 . S
C1367 C1366 1.372 . S
C1367 C1368 1.400 . S
C1367 C1372 1.490 . S
C1368 H1358 0.930 . S
C1368 C1367 1.400 . S
C1368 C1371 1.386 . S
H1369 C1385 0.930 . S
H1370 C1386 0.931 . S
C1371 H1359 0.929 . S
C1371 C1365 1.390 . S
C1371 C1368 1.386 . S
C1372 C1367 1.490 . S
C1372 C1374 1.395 . S
C1372 C1375 1.403 . S
H1373 C1379 0.930 . S
C1374 H1360 0.930 . S
C1374 C1372 1.395 . S
C1374 C1377 1.403 1_556 S
C1375 C1372 1.403 . S
C1375 C1376 1.524 . S
C1375 C1379 1.400 1_556 S
C1376 H1361 0.960 . S
C1376 H1362 0.960 . S
C1376 H1363 0.960 . S
C1376 C1375 1.524 . S
C1377 C1374 1.403 1_554 S
C1377 C1378 1.392 . S
C1377 C1381 1.495 . S
C1378 C1377 1.392 . S
C1378 C1379 1.385 . S
C1378 C1380 1.478 . S
C1379 H1373 0.930 . S
C1379 C1375 1.400 1_554 S
C1379 C1378 1.385 . S
C1380 C1378 1.478 . S
C1380 C1382 1.381 . S
C1380 C1386 1.383 . S
C1381 C1377 1.495 . S
C1381 H1387 0.959 . S
C1381 H1388 0.961 . S
C1381 H1389 0.960 . S
C1382 C1380 1.381 . S
C1382 C1383 1.394 . S
C1382 H1390 0.930 . S
C1383 C1382 1.394 . S
C1383 C1384 1.383 . S
C1383 H1391 0.929 . S
C1384 C1383 1.383 . S
C1384 C1385 1.377 . S
C1385 H1369 0.930 . S
C1385 C1384 1.377 . S
C1385 C1386 1.379 . S
C1386 H1370 0.931 . S
C1386 C1380 1.383 . S
C1386 C1385 1.379 . S
H1387 C1381 0.959 . S
H1388 C1381 0.961 . S
H1389 C1381 0.960 . S
H1390 C1382 0.930 . S
H1391 C1383 0.929 . S
H1392 C1400 0.929 . S
H1393 C1402 0.930 . S
H1394 C1404 0.930 . S
H1395 C1407 0.929 . S
H1396 C1410 0.930 . S
H1397 C1412 0.960 . S
H1398 C1412 0.960 . S
H1399 C1412 0.960 . S
C1400 H1392 0.929 . S
C1400 C1401 1.377 . S
C1400 C1402 1.384 . S
C1401 C1400 1.377 . S
C1401 C1407 1.390 . S
C1402 H1393 0.930 . S
C1402 C1400 1.384 . S
C1402 C1403 1.372 . S
C1403 C1402 1.372 . S
C1403 C1404 1.400 . S
C1403 C1408 1.490 . S
C1404 H1394 0.930 . S
C1404 C1403 1.400 . S
C1404 C1407 1.386 . S
H1405 C1421 0.930 . S
H1406 C1422 0.931 . S
C1407 H1395 0.929 . S
C1407 C1401 1.390 . S
C1407 C1404 1.386 . S
C1408 C1403 1.490 . S
C1408 C1410 1.395 1_455 S
C1408 C1411 1.403 . S
H1409 C1415 0.930 . S
C1410 H1396 0.930 . S
C1410 C1408 1.395 1_655 S
C1410 C1413 1.403 . S
C1411 C1408 1.403 . S
C1411 C1412 1.524 . S
C1411 C1415 1.400 . S
C1412 H1397 0.960 . S
C1412 H1398 0.960 . S
C1412 H1399 0.960 . S
C1412 C1411 1.524 . S
C1413 C1410 1.403 . S
C1413 C1414 1.392 . S
C1413 C1417 1.495 . S
C1414 C1413 1.392 . S
C1414 C1415 1.385 1_655 S
C1414 C1416 1.478 . S
C1415 H1409 0.930 . S
C1415 C1411 1.400 . S
C1415 C1414 1.385 1_455 S
C1416 C1414 1.478 . S
C1416 C1418 1.381 . S
C1416 C1422 1.383 . S
C1417 C1413 1.495 . S
C1417 H1423 0.959 . S
C1417 H1424 0.961 . S
C1417 H1425 0.960 . S
C1418 C1416 1.381 . S
C1418 C1419 1.394 . S
C1418 H1426 0.930 . S
C1419 C1418 1.394 . S
C1419 C1420 1.383 . S
C1419 H1427 0.929 . S
C1420 C1419 1.383 . S
C1420 C1421 1.377 . S
C1421 H1405 0.930 . S
C1421 C1420 1.377 . S
C1421 C1422 1.379 . S
C1422 H1406 0.931 . S
C1422 C1416 1.383 . S
C1422 C1421 1.379 . S
H1423 C1417 0.959 . S
H1424 C1417 0.961 . S
H1425 C1417 0.960 . S
H1426 C1418 0.930 . S
H1427 C1419 0.929 . S
H1428 C1436 0.929 . S
H1429 C1438 0.930 . S
H1430 C1440 0.930 . S
H1431 C1443 0.929 . S
H1432 C1446 0.940 . S
H1433 C1448 0.960 . S
H1434 C1448 0.960 . S
H1435 C1448 0.960 . S
C1436 H1428 0.929 . S
C1436 C1437 1.377 . S
C1436 C1438 1.384 . S
C1437 C1436 1.377 . S
C1437 C1443 1.390 . S
C1438 H1429 0.930 . S
C1438 C1436 1.384 . S
C1438 C1439 1.372 . S
C1439 C1438 1.372 . S
C1439 C1440 1.400 . S
C1439 C1444 1.490 . S
C1440 H1430 0.930 . S
C1440 C1439 1.400 . S
C1440 C1443 1.386 . S
H1441 C1457 0.930 . S
H1442 C1458 0.931 . S
C1443 H1431 0.929 . S
C1443 C1437 1.390 . S
C1443 C1440 1.386 . S
C1444 C1439 1.490 . S
C1444 C1446 1.445 . S
C1444 C1447 1.403 1_565 S
H1445 C1451 0.930 . S
C1446 H1432 0.940 . S
C1446 C1444 1.445 . S
C1446 C1449 1.347 1_554 S
C1447 C1444 1.403 1_545 S
C1447 C1448 1.524 . S
C1447 C1451 1.400 1_554 S
C1448 H1433 0.960 . S
C1448 H1434 0.960 . S
C1448 H1435 0.960 . S
C1448 C1447 1.524 . S
C1449 C1446 1.347 1_556 S
C1449 C1450 1.392 1_565 S
C1449 C1453 1.495 . S
C1450 C1449 1.392 1_545 S
C1450 C1451 1.385 . S
C1450 C1452 1.478 . S
C1451 H1445 0.930 . S
C1451 C1447 1.400 1_556 S
C1451 C1450 1.385 . S
C1452 C1450 1.478 . S
C1452 C1454 1.381 . S
C1452 C1458 1.383 . S
C1453 C1449 1.495 . S
C1453 H1459 0.959 . S
C1453 H1460 0.961 . S
C1453 H1461 0.960 . S
C1454 C1452 1.381 . S
C1454 C1455 1.394 . S
C1454 H1462 0.930 . S
C1455 C1454 1.394 . S
C1455 C1456 1.383 . S
C1455 H1463 0.929 . S
C1456 C1455 1.383 . S
C1456 C1457 1.377 . S
C1457 H1441 0.930 . S
C1457 C1456 1.377 . S
C1457 C1458 1.379 . S
C1458 H1442 0.931 . S
C1458 C1452 1.383 . S
C1458 C1457 1.379 . S
H1459 C1453 0.959 . S
H1460 C1453 0.961 . S
H1461 C1453 0.960 . S
H1462 C1454 0.930 . S
H1463 C1455 0.929 . S
H1464 C1472 0.929 . S
H1465 C1474 0.930 . S
H1466 C1476 0.930 . S
H1467 C1479 0.929 . S
H1468 C1482 0.930 . S
H1469 C1484 0.960 . S
H1470 C1484 0.960 . S
H1471 C1484 0.960 . S
C1472 H1464 0.929 . S
C1472 C1473 1.377 . S
C1472 C1474 1.384 . S
C1473 C1472 1.377 . S
C1473 C1479 1.390 . S
C1474 H1465 0.930 . S
C1474 C1472 1.384 . S
C1474 C1475 1.372 . S
C1475 C1474 1.372 . S
C1475 C1476 1.400 . S
C1475 C1480 1.490 . S
C1476 H1466 0.930 . S
C1476 C1475 1.400 . S
C1476 C1479 1.386 . S
H1477 C1493 0.930 . S
H1478 C1494 0.931 . S
C1479 H1467 0.929 . S
C1479 C1473 1.390 . S
C1479 C1476 1.386 . S
C1480 C1475 1.490 . S
C1480 C1482 1.395 . S
C1480 C1483 1.403 . S
H1481 C1487 0.930 . S
C1482 H1468 0.930 . S
C1482 C1480 1.395 . S
C1482 C1485 1.403 . S
C1483 C1480 1.403 . S
C1483 C1484 1.524 . S
C1483 C1487 1.400 . S
C1484 H1469 0.960 . S
C1484 H1470 0.960 . S
C1484 H1471 0.960 . S
C1484 C1483 1.524 . S
C1485 C1482 1.403 . S
C1485 C1486 1.392 . S
C1485 C1489 1.495 . S
C1486 C1485 1.392 . S
C1486 C1487 1.385 . S
C1486 C1488 1.478 . S
C1487 H1481 0.930 . S
C1487 C1483 1.400 . S
C1487 C1486 1.385 . S
C1488 C1486 1.478 . S
C1488 C1490 1.381 . S
C1488 C1494 1.383 . S
C1489 C1485 1.495 . S
C1489 H1495 0.959 . S
C1489 H1496 0.961 . S
C1489 H1497 0.960 . S
C1490 C1488 1.381 . S
C1490 C1491 1.394 . S
C1490 H1498 0.930 . S
C1491 C1490 1.394 . S
C1491 C1492 1.383 . S
C1491 H1499 0.929 . S
C1492 C1491 1.383 . S
C1492 C1493 1.377 . S
C1493 H1477 0.930 . S
C1493 C1492 1.377 . S
C1493 C1494 1.379 . S
C1494 H1478 0.931 . S
C1494 C1488 1.383 . S
C1494 C1493 1.379 . S
H1495 C1489 0.959 . S
H1496 C1489 0.961 . S
H1497 C1489 0.960 . S
H1498 C1490 0.930 . S
H1499 C1491 0.929 . S
H1500 C1508 0.929 . S
H1501 C1510 0.930 . S
H1502 C1512 0.930 . S
H1503 C1515 0.929 . S
H1504 C1518 0.930 . S
H1505 C1520 0.960 . S
H1506 C1520 0.960 . S
H1507 C1520 0.960 1_655 S
C1508 H1500 0.929 . S
C1508 C1509 1.377 . S
C1508 C1510 1.384 . S
C1509 C1508 1.377 . S
C1509 C1515 1.390 . S
C1510 H1501 0.930 . S
C1510 C1508 1.384 . S
C1510 C1511 1.372 . S
C1511 C1510 1.372 . S
C1511 C1512 1.400 . S
C1511 C1516 1.490 . S
C1512 H1502 0.930 . S
C1512 C1511 1.400 . S
C1512 C1515 1.386 . S
H1513 C1529 0.930 . S
H1514 C1530 0.931 1_655 S
C1515 H1503 0.929 . S
C1515 C1509 1.390 . S
C1515 C1512 1.386 . S
C1516 C1511 1.490 . S
C1516 C1518 1.395 . S
C1516 C1519 1.404 . S
H1517 C1523 0.930 . S
C1518 H1504 0.930 . S
C1518 C1516 1.395 . S
C1518 C1521 1.403 1_656 S
C1519 C1516 1.404 . S
C1519 C1520 1.523 1_655 S
C1519 C1523 1.399 1_656 S
C1520 H1505 0.960 . S
C1520 H1506 0.960 . S
C1520 H1507 0.960 1_455 S
C1520 C1519 1.523 1_455 S
C1521 C1518 1.403 1_454 S
C1521 C1522 1.392 . S
C1521 C1525 1.495 . S
C1522 C1521 1.392 . S
C1522 C1523 1.385 . S
C1522 C1524 1.478 . S
C1523 H1517 0.930 . S
C1523 C1519 1.399 1_454 S
C1523 C1522 1.385 . S
C1524 C1522 1.478 . S
C1524 C1526 1.381 . S
C1524 C1530 1.383 . S
C1525 C1521 1.495 . S
C1525 H1531 0.959 1_455 S
C1525 H1532 0.961 1_455 S
C1525 H1533 0.960 . S
C1526 C1524 1.381 . S
C1526 C1527 1.394 . S
C1526 H1534 0.930 . S
C1527 C1526 1.394 . S
C1527 C1528 1.383 . S
C1527 H1535 0.929 . S
C1528 C1527 1.383 . S
C1528 C1529 1.377 . S
C1529 H1513 0.930 . S
C1529 C1528 1.377 . S
C1529 C1530 1.379 . S
C1530 H1514 0.931 1_455 S
C1530 C1524 1.383 . S
C1530 C1529 1.379 . S
H1531 C1525 0.959 1_655 S
H1532 C1525 0.961 1_655 S
H1533 C1525 0.960 . S
H1534 C1526 0.930 . S
H1535 C1527 0.929 . S
H1536 C1544 0.929 . S
H1537 C1546 0.930 . S
H1538 C1548 0.930 . S
H1539 C1551 0.929 . S
H1540 C1554 0.930 . S
H1541 C1556 0.960 . S
H1542 C1556 0.960 . S
H1543 C1556 0.960 . S
C1544 H1536 0.929 . S
C1544 C1545 1.377 . S
C1544 C1546 1.384 . S
C1545 C1544 1.377 . S
C1545 C1551 1.390 . S
C1546 H1537 0.930 . S
C1546 C1544 1.384 . S
C1546 C1547 1.372 . S
C1547 C1546 1.372 . S
C1547 C1548 1.400 . S
C1547 C1552 1.490 . S
C1548 H1538 0.930 . S
C1548 C1547 1.400 . S
C1548 C1551 1.386 . S
H1549 C1565 0.930 . S
H1550 C1566 0.931 . S
C1551 H1539 0.929 . S
C1551 C1545 1.390 . S
C1551 C1548 1.386 . S
C1552 C1547 1.490 . S
C1552 C1554 1.395 1_565 S
C1552 C1555 1.403 . S
H1553 C1559 0.930 . S
C1554 H1540 0.930 . S
C1554 C1552 1.395 1_545 S
C1554 C1557 1.403 . S
C1555 C1552 1.403 . S
C1555 C1556 1.524 . S
C1555 C1559 1.400 . S
C1556 H1541 0.960 . S
C1556 H1542 0.960 . S
C1556 H1543 0.960 . S
C1556 C1555 1.524 . S
C1557 C1554 1.403 . S
C1557 C1558 1.392 . S
C1557 C1561 1.495 . S
C1558 C1557 1.392 . S
C1558 C1559 1.385 1_545 S
C1558 C1560 1.478 . S
C1559 H1553 0.930 . S
C1559 C1555 1.400 . S
C1559 C1558 1.385 1_565 S
C1560 C1558 1.478 . S
C1560 C1562 1.381 . S
C1560 C1566 1.383 . S
C1561 C1557 1.495 . S
C1561 H1567 0.959 . S
C1561 H1568 0.961 . S
C1561 H1569 0.960 . S
C1562 C1560 1.381 . S
C1562 C1563 1.394 . S
C1562 H1570 0.930 . S
C1563 C1562 1.394 . S
C1563 C1564 1.383 . S
C1563 H1571 0.929 . S
C1564 C1563 1.383 . S
C1564 C1565 1.377 . S
C1565 H1549 0.930 . S
C1565 C1564 1.377 . S
C1565 C1566 1.379 . S
C1566 H1550 0.931 . S
C1566 C1560 1.383 . S
C1566 C1565 1.379 . S
H1567 C1561 0.959 . S
H1568 C1561 0.961 . S
H1569 C1561 0.960 . S
H1570 C1562 0.930 . S
H1571 C1563 0.929 . S
C285 C113 0.597 . S
C304 C17 0.591 . S
C321 C136 0.597 . S
C340 C40 0.631 . S
C357 C63 0.577 . S
C376 C21 0.667 . S
C393 C86 0.596 . S
C412 C44 0.570 . S
C429 C109 0.591 . S
C448 C67 0.550 . S
C465 C90 0.611 . S
C484 C132 0.547 . S
C501 C205 0.617 . S
C520 C155 0.541 . S
C537 C178 0.577 . S
C556 C228 0.651 . S
C573 C251 0.609 . S
C592 C201 0.552 . S
C609 C224 0.596 . S
C628 C274 0.542 . S
C645 C247 0.580 . S
C664 C159 0.618 . S
C681 C182 0.592 . S
C700 C270 0.633 . S
C717 C110 1.005 . S
C736 C16 0.991 . S
C753 C39 1.004 . S
C772 C133 0.991 . S
C789 C62 1.001 . S
C808 C18 1.014 . S
C825 C85 1.005 . S
C844 C41 0.983 . S
C861 C64 1.005 . S
C880 C108 0.991 . S
C897 C87 1.003 . S
C916 C131 0.990 . S
C933 C202 0.997 . S
C952 C154 1.013 . S
C969 C177 1.003 . S
C988 C225 0.997 . S
C1005 C200 1.003 . S
C1024 C248 0.995 . S
C1041 C271 1.005 . S
C1060 C223 0.994 . S
C1077 C246 1.005 . S
C1096 C156 1.007 . S
C1113 C179 0.997 . S
C1132 C269 1.015 . S
C1149 C250 1.502 . S
C1168 C20 1.492 . S
C1185 C43 1.501 . S
C1204 C273 1.480 . S
C1221 C66 1.498 . S
C1240 C158 1.473 . S
C1257 C89 1.497 . S
C1276 C181 1.516 . S
C1293 C112 1.501 . S
C1312 C204 1.481 . S
C1329 C227 1.501 . S
C1348 C135 1.511 . S
C1365 C226 1.505 . S
C1384 C19 1.512 . S
C1401 C249 1.502 . S
C1420 C42 1.496 . S
C1437 C65 1.506 . S
C1456 C272 1.500 . S
C1473 C88 1.502 . S
C1492 C157 1.502 . S
C1509 C180 1.504 . S
C1528 C111 1.512 . S
C1545 C203 1.502 . S
C1564 C134 1.495 . S
