# Generated by pormake.
# Topology uov, (4)-cn, num edge types: 1
# Building blocks:
#     Node 0, Type 0, BuildingBlock: ICAMEG_clean_sbu_1, # of connection points: 4
#     Node 1, Type 0, BuildingBlock: ICAMEG_clean_sbu_1, # of connection points: 4
#     Node 2, Type 0, BuildingBlock: ICAMEG_clean_sbu_1, # of connection points: 4
#     Node 3, Type 0, BuildingBlock: ICAMEG_clean_sbu_1, # of connection points: 4
#     Node 4, Type 0, BuildingBlock: ICAMEG_clean_sbu_1, # of connection points: 4
#     Node 5, Type 0, BuildingBlock: ICAMEG_clean_sbu_1, # of connection points: 4
#     Node 6, Type 0, BuildingBlock: ICAMEG_clean_sbu_1, # of connection points: 4
#     Node 7, Type 0, BuildingBlock: ICAMEG_clean_sbu_1, # of connection points: 4
#     Edge 8, Type (0, 0), BuildingBlock: AJUNOK_clean_linker_0, # of connection points: 2
#     Edge 9, Type (0, 0), BuildingBlock: AJUNOK_clean_linker_0, # of connection points: 2
#     Edge 10, Type (0, 0), BuildingBlock: AJUNOK_clean_linker_0, # of connection points: 2
#     Edge 11, Type (0, 0), BuildingBlock: AJUNOK_clean_linker_0, # of connection points: 2
#     Edge 12, Type (0, 0), BuildingBlock: AJUNOK_clean_linker_0, # of connection points: 2
#     Edge 13, Type (0, 0), BuildingBlock: AJUNOK_clean_linker_0, # of connection points: 2
#     Edge 14, Type (0, 0), BuildingBlock: AJUNOK_clean_linker_0, # of connection points: 2
#     Edge 15, Type (0, 0), BuildingBlock: AJUNOK_clean_linker_0, # of connection points: 2
#     Edge 16, Type (0, 0), BuildingBlock: AJUNOK_clean_linker_0, # of connection points: 2
#     Edge 17, Type (0, 0), BuildingBlock: AJUNOK_clean_linker_0, # of connection points: 2
#     Edge 18, Type (0, 0), BuildingBlock: AJUNOK_clean_linker_0, # of connection points: 2
#     Edge 19, Type (0, 0), BuildingBlock: AJUNOK_clean_linker_0, # of connection points: 2
#     Edge 20, Type (0, 0), BuildingBlock: AJUNOK_clean_linker_0, # of connection points: 2
#     Edge 21, Type (0, 0), BuildingBlock: AJUNOK_clean_linker_0, # of connection points: 2
#     Edge 22, Type (0, 0), BuildingBlock: AJUNOK_clean_linker_0, # of connection points: 2
#     Edge 23, Type (0, 0), BuildingBlock: AJUNOK_clean_linker_0, # of connection points: 2
# Relax obj value: 0.046
# Max RMSD: 0.048
# Mean RMSD: 0.048
data_MOF--net-uov--node1-ICAMEG_clean_sbu_1--edge1-AJUNOK_clean_linker_0
_symmetry_space_group_name_H-M    P1
_symmetry_Int_Tables_number       1
_symmetry_cell_setting            triclinic
loop_
_symmetry_equiv_pos_as_xyz
'x, y, z'
_cell_length_a     24.046453
_cell_length_b     24.06193
_cell_length_c     35.503822
_cell_angle_alpha  90.043863
_cell_angle_beta   89.985172
_cell_angle_gamma 90.043963
loop_
_atom_site_label
_atom_site_type_symbol
_atom_site_fract_x
_atom_site_fract_y
_atom_site_fract_z
_atom_type_partial_charge
Co0 Co 0.07711 0.19834 0.62148 0.0
Co1 Co 0.1124 0.29473 0.55328 0.0
O2 O 0.10192 0.27225 0.60594 0.0
C3 C 0.16519 0.231 0.68026 0.0
O4 O 0.17302 0.28111 0.66673 0.0
C5 C 0.03968 0.38172 0.58542 0.0
O6 O 0.01137 0.34195 0.6019 0.0
O7 O 0.0365 0.2691 0.54007 0.0
O8 O 0.02082 0.19643 0.57896 0.0
H9 H 0.10662 0.27199 0.41241 0.0
H10 H 0.07218 0.29821 0.67245 0.0
O11 O 0.13156 0.19725 0.6645 0.0
H12 H 0.88624 0.21292 0.6786 0.0
H13 H 0.05107 0.04786 0.71734 0.0
H14 H 0.05198 0.09237 0.58168 0.0
H15 H 0.95954 0.17156 0.63911 0.0
H16 H 0.05623 0.14493 0.69593 0.0
O17 O 0.08226 0.37027 0.56553 0.0
H18 H 0.09536 0.242 0.47831 0.0
H19 H 0.15266 0.39886 0.51699 0.0
H20 H 0.04466 0.9946 0.60239 0.0
H21 H 1.00071 0.34026 0.71274 0.0
H22 H 0.04893 0.97165 0.67018 0.0
H23 H 0.90666 0.29781 0.71598 0.0
O24 O 0.13428 0.16263 0.58872 0.0
H25 H 0.2547 0.39756 0.6301 0.0
H26 H 0.22489 0.27492 0.5206 0.0
H27 H 0.32012 0.30439 0.53693 0.0
H28 H 0.33549 0.36629 0.59199 0.0
H29 H 0.16021 0.36654 0.613 0.0
H30 H 0.16423 0.43081 0.45151 0.0
H31 H 0.14119 0.36716 0.39864 0.0
O32 O 0.14096 0.21967 0.53897 0.0
C33 C 0.00781 0.2274 0.55084 0.0
C34 C 0.11666 0.30019 0.43519 0.0
C35 C 0.14898 0.3893 0.45713 0.0
N36 N 0.12276 0.31871 0.50153 0.0
C37 C 0.11027 0.28341 0.47259 0.0
C38 C 0.14211 0.37103 0.49417 0.0
C39 C 0.13607 0.35357 0.42748 0.0
C40 C 0.03206 0.27863 0.67409 0.0
N41 N 0.02065 0.23186 0.65362 0.0
C42 C 0.99138 0.30304 0.6968 0.0
C43 C 0.93859 0.27931 0.69854 0.0
C44 C 0.92711 0.23175 0.67756 0.0
C45 C 0.9688 0.20859 0.65513 0.0
C46 C 0.05092 0.05724 0.68752 0.0
C47 C 0.05083 0.08287 0.61143 0.0
C48 C 0.0534 0.11219 0.67515 0.0
N49 N 0.05521 0.12435 0.63749 0.0
C50 C 0.04805 0.02743 0.62287 0.0
C51 C 0.04976 0.01457 0.66109 0.0
C52 C 0.14958 0.1733 0.55515 0.0
C53 C 0.24854 0.37063 0.60602 0.0
C54 C 0.23126 0.30148 0.54478 0.0
C55 C 0.28527 0.31823 0.55379 0.0
C56 C 0.29386 0.35301 0.58466 0.0
N57 N 0.18705 0.3189 0.5659 0.0
C58 C 0.19512 0.35308 0.59614 0.0
Co59 Co 0.19663 0.92164 0.39074 0.0
Co60 Co 0.30158 0.89259 0.4532 0.0
O61 O 0.27459 0.90389 0.40142 0.0
C62 C 0.23246 0.84315 0.32748 0.0
O63 O 0.2819 0.83509 0.34202 0.0
C64 C 0.38502 0.96744 0.41868 0.0
O65 O 0.34366 0.9953 0.40373 0.0
O66 O 0.275 0.96769 0.46749 0.0
O67 O 0.19312 0.9712 0.43695 0.0
H68 H 0.28825 0.89516 0.59464 0.0
H69 H 0.28594 0.94339 0.33414 0.0
O70 O 0.19704 0.8741 0.34406 0.0
H71 H 0.18659 0.12109 0.34889 0.0
H72 H 0.02933 0.94199 0.30711 0.0
H73 H 0.09556 0.93051 0.43816 0.0
H74 H 0.15755 0.03849 0.38487 0.0
H75 H 0.12968 0.94446 0.32123 0.0
O76 O 0.37555 0.9247 0.43882 0.0
H77 H 0.25382 0.9078 0.52991 0.0
H78 H 0.4093 0.85486 0.48589 0.0
H79 H 0.99489 0.92838 0.42539 0.0
H80 H 0.316 0.02461 0.29731 0.0
H81 H 0.96125 0.9317 0.35932 0.0
H82 H 0.26633 0.11444 0.30461 0.0
O83 O 0.17224 0.85589 0.42015 0.0
H84 H 0.40265 0.75441 0.3721 0.0
H85 H 0.28701 0.77911 0.48559 0.0
H86 H 0.31776 0.68506 0.46754 0.0
H87 H 0.37612 0.67226 0.41045 0.0
H88 H 0.37043 0.84766 0.39096 0.0
H89 H 0.44562 0.84222 0.55023 0.0
H90 H 0.38489 0.86227 0.60518 0.0
O91 O 0.22827 0.86176 0.47005 0.0
C92 C 0.22738 0.98949 0.46181 0.0
C93 C 0.31511 0.88618 0.57094 0.0
C94 C 0.40345 0.85661 0.54601 0.0
N95 N 0.32944 0.88213 0.50405 0.0
C96 C 0.29577 0.8931 0.53415 0.0
C97 C 0.3827 0.86407 0.50962 0.0
C98 C 0.36935 0.86781 0.57683 0.0
C99 C 0.26353 0.98191 0.33716 0.0
N100 N 0.21965 0.98585 0.36147 0.0
C101 C 0.28101 0.02797 0.31636 0.0
C102 C 0.25322 0.07839 0.32053 0.0
C103 C 0.20853 0.08217 0.34539 0.0
C104 C 0.19233 0.03525 0.36577 0.0
C105 C 0.04354 0.93949 0.33598 0.0
C106 C 0.08128 0.93379 0.40947 0.0
C107 C 0.10032 0.9413 0.3442 0.0
N108 N 0.11863 0.93666 0.38053 0.0
C109 C 0.02419 0.93189 0.40236 0.0
C110 C 0.00536 0.93363 0.36528 0.0
C111 C 0.18378 0.84522 0.45424 0.0
C112 C 0.37724 0.75944 0.39704 0.0
C113 C 0.31195 0.77386 0.46052 0.0
C114 C 0.32948 0.72051 0.45054 0.0
C115 C 0.36228 0.71336 0.41854 0.0
N116 N 0.32666 0.81882 0.43921 0.0
C117 C 0.359 0.81217 0.40791 0.0
Co118 Co 0.92542 0.80773 0.61729 0.0
Co119 Co 0.90215 0.70327 0.55466 0.0
O120 O 0.91188 0.72899 0.60677 0.0
C121 C 0.83229 0.79094 0.67399 0.0
O122 O 0.79533 0.78234 0.64739 0.0
C123 C 0.95889 0.60854 0.59604 0.0
O124 O 0.9631 0.63711 0.62736 0.0
O125 O 0.97748 0.73085 0.54318 0.0
O126 O 0.97221 0.81548 0.56974 0.0
H127 H 0.91879 0.72033 0.41397 0.0
H128 H 0.95477 0.72255 0.67419 0.0
O129 O 0.88285 0.80037 0.66559 0.0
H130 H 0.12573 0.83216 0.65498 0.0
H131 H 0.93022 0.97463 0.70197 0.0
H132 H 0.92585 0.90957 0.57037 0.0
H133 H 0.03991 0.85494 0.62039 0.0
H134 H 0.94407 0.87559 0.68708 0.0
O135 O 0.93477 0.62872 0.56719 0.0
H136 H 0.92592 0.75261 0.47967 0.0
H137 H 0.86386 0.59771 0.51883 0.0
H138 H 0.91357 0.00918 0.5839 0.0
H139 H 0.03953 0.69835 0.70972 0.0
H140 H 0.91335 0.04203 0.65024 0.0
H141 H 0.12589 0.75331 0.70013 0.0
O142 O 0.8566 0.8273 0.58954 0.0
H143 H 0.75831 0.60831 0.63493 0.0
H144 H 0.7912 0.71354 0.51792 0.0
H145 H 0.696 0.68353 0.53381 0.0
H146 H 0.67908 0.63032 0.59264 0.0
H147 H 0.85264 0.63955 0.61812 0.0
H148 H 0.85654 0.5636 0.45351 0.0
H149 H 0.88392 0.62517 0.40052 0.0
O150 O 0.8709 0.77663 0.5381 0.0
C151 C 0.99535 0.78041 0.54731 0.0
C152 C 0.90648 0.6932 0.4368 0.0
C153 C 0.87161 0.60522 0.459 0.0
N154 N 0.89471 0.67736 0.50309 0.0
C155 C 0.91023 0.71133 0.47409 0.0
C156 C 0.8759 0.62476 0.49593 0.0
C157 C 0.88698 0.63978 0.42928 0.0
C158 C 0.99232 0.74631 0.66966 0.0
N159 N 0.9927 0.78943 0.6447 0.0
C160 C 0.04013 0.73256 0.68995 0.0
C161 C 0.08855 0.76344 0.68458 0.0
C162 C 0.08852 0.80762 0.65922 0.0
C163 C 0.0399 0.82013 0.63948 0.0
C164 C 0.92928 0.96068 0.67298 0.0
C165 C 0.92794 0.92368 0.5992 0.0
C166 C 0.93754 0.90464 0.66433 0.0
N167 N 0.93474 0.88645 0.62789 0.0
C168 C 0.92011 0.98011 0.60673 0.0
C169 C 0.91974 0.99847 0.64396 0.0
C170 C 0.84948 0.81829 0.55468 0.0
C171 C 0.7652 0.63112 0.60908 0.0
C172 C 0.78424 0.69029 0.54353 0.0
C173 C 0.73022 0.67341 0.55237 0.0
C174 C 0.72075 0.64358 0.58538 0.0
N175 N 0.82773 0.6775 0.56676 0.0
C176 C 0.81867 0.64864 0.5993 0.0
Co177 Co 0.81357 0.07476 0.39454 0.0
Co178 Co 0.70584 0.10326 0.45413 0.0
O179 O 0.73489 0.0918 0.40297 0.0
C180 C 0.7981 0.16647 0.33665 0.0
O181 O 0.78365 0.20277 0.3625 0.0
C182 C 0.61184 0.04966 0.40963 0.0
O183 O 0.64172 0.04685 0.37881 0.0
O184 O 0.73116 0.02766 0.4676 0.0
O185 O 0.81669 0.02842 0.44216 0.0
H186 H 0.71238 0.08968 0.59535 0.0
H187 H 0.72995 0.04874 0.33576 0.0
O188 O 0.81103 0.11707 0.34589 0.0
H189 H 0.83068 0.87339 0.35776 0.0
H190 H 0.98529 0.05684 0.31475 0.0
H191 H 0.91246 0.06955 0.44422 0.0
H192 H 0.85577 0.95836 0.39266 0.0
H193 H 0.88447 0.05225 0.32665 0.0
O194 O 0.63144 0.07107 0.43969 0.0
H195 H 0.74882 0.0797 0.53081 0.0
H196 H 0.59882 0.14504 0.48602 0.0
H197 H 0.01367 0.07218 0.43366 0.0
H198 H 0.70345 0.96488 0.29997 0.0
H199 H 0.05064 0.06813 0.36841 0.0
H200 H 0.75395 0.87632 0.31094 0.0
O201 O 0.83487 0.14272 0.42281 0.0
H202 H 0.6192 0.247 0.36945 0.0
H203 H 0.71521 0.21469 0.49011 0.0
H204 H 0.68769 0.30987 0.47267 0.0
H205 H 0.63904 0.32652 0.41202 0.0
H206 H 0.64796 0.15278 0.38777 0.0
H207 H 0.56051 0.15538 0.55009 0.0
H208 H 0.61753 0.12784 0.60534 0.0
O209 O 0.77882 0.13448 0.47237 0.0
C210 C 0.77996 0.00755 0.46429 0.0
C211 C 0.68723 0.10218 0.57154 0.0
C212 C 0.602 0.13897 0.54613 0.0
N213 N 0.67643 0.11263 0.5047 0.0
C214 C 0.70776 0.09686 0.53492 0.0
C215 C 0.62392 0.133 0.50992 0.0
C216 C 0.634 0.1235 0.57711 0.0
C217 C 0.75167 0.01022 0.34095 0.0
N218 N 0.79357 0.00816 0.36684 0.0
C219 C 0.73667 0.96293 0.32049 0.0
C220 C 0.76505 0.91328 0.32663 0.0
C221 C 0.80803 0.91158 0.35293 0.0
C222 C 0.82183 0.95973 0.37283 0.0
C223 C 0.96963 0.05949 0.34327 0.0
C224 C 0.92818 0.06555 0.41585 0.0
C225 C 0.91251 0.05665 0.35023 0.0
N226 N 0.89233 0.06146 0.38609 0.0
C227 C 0.98558 0.06789 0.41001 0.0
C228 C 0.00628 0.06587 0.37339 0.0
C229 C 0.82322 0.15273 0.4571 0.0
C230 C 0.63993 0.24023 0.39611 0.0
C231 C 0.69395 0.22148 0.46369 0.0
C232 C 0.67847 0.27553 0.45398 0.0
C233 C 0.65119 0.28484 0.41996 0.0
N234 N 0.68219 0.17777 0.44036 0.0
C235 C 0.65599 0.18674 0.40678 0.0
Co236 Co 0.92103 0.19155 0.11593 0.0
Co237 Co 0.89319 0.29727 0.05445 0.0
O238 O 0.90399 0.26992 0.10627 0.0
C239 C 0.84537 0.22734 0.18103 0.0
O240 O 0.84058 0.27834 0.16842 0.0
C241 C 0.96521 0.38312 0.08985 0.0
O242 O 0.99292 0.3432 0.10657 0.0
O243 O 0.9692 0.27276 0.04149 0.0
O244 O 0.97055 0.18898 0.06951 0.0
H245 H 0.90413 0.28692 0.91311 0.0
H246 H 0.94607 0.27979 0.17299 0.0
O247 O 0.87376 0.19131 0.16294 0.0
H248 H 0.12014 0.17439 0.15767 0.0
H249 H 0.93803 0.02067 0.19639 0.0
H250 H 0.92853 0.09246 0.06657 0.0
H251 H 0.03671 0.14909 0.1213 0.0
H252 H 0.94217 0.12143 0.18426 0.0
O253 O 0.92308 0.37194 0.06946 0.0
H254 H 0.91428 0.25163 0.97785 0.0
H255 H 0.85196 0.40363 0.02171 0.0
H256 H 0.92591 0.99135 0.0774 0.0
H257 H 0.02812 0.30608 0.21027 0.0
H258 H 0.92835 0.95492 0.14279 0.0
H259 H 0.11616 0.25332 0.20273 0.0
O260 O 0.85463 0.16916 0.08653 0.0
H261 H 0.75011 0.39254 0.13478 0.0
H262 H 0.78098 0.28104 0.02009 0.0
H263 H 0.68562 0.30887 0.03726 0.0
H264 H 0.66971 0.36513 0.09495 0.0
H265 H 0.84477 0.3633 0.11673 0.0
H266 H 0.84167 0.44077 0.9574 0.0
H267 H 0.86776 0.38224 0.90252 0.0
O268 O 0.86435 0.22353 0.0363 0.0
C269 C 0.99043 0.22473 0.04621 0.0
C270 C 0.8925 0.3128 0.93678 0.0
C271 C 0.85754 0.39916 0.96164 0.0
N272 N 0.88375 0.32547 1.00361 0.0
C273 C 0.898 0.29297 0.97354 0.0
C274 C 0.8636 0.37794 0.998 0.0
C275 C 0.87216 0.3663 0.93086 0.0
C276 C 0.98369 0.25601 0.16985 0.0
N277 N 0.98606 0.21241 0.14525 0.0
C278 C 0.0303 0.27139 0.19091 0.0
C279 C 0.07972 0.24186 0.18661 0.0
C280 C 0.08199 0.19763 0.16132 0.0
C281 C 0.03457 0.18354 0.14072 0.0
C282 C 0.93614 0.03609 0.16779 0.0
C283 C 0.93171 0.07695 0.09503 0.0
C284 C 0.93882 0.09313 0.16071 0.0
N285 N 0.93483 0.113 0.12474 0.0
C286 C 0.92944 0.01962 0.10101 0.0
C287 C 0.93061 0.99922 0.13771 0.0
C288 C 0.84601 0.17976 0.05205 0.0
C289 C 0.75649 0.36802 0.10959 0.0
C290 C 0.77438 0.3051 0.04541 0.0
C291 C 0.72029 0.32096 0.0549 0.0
C292 C 0.7114 0.35258 0.08724 0.0
N293 N 0.81836 0.3203 0.06753 0.0
C294 C 0.81 0.35143 0.0992 0.0
Co295 Co 0.1906 0.0744 0.89177 0.0
Co296 Co 0.29498 0.10683 0.9526 0.0
O297 O 0.26821 0.09289 0.90141 0.0
C298 C 0.20986 0.16553 0.83462 0.0
O299 O 0.22544 0.20048 0.86102 0.0
C300 C 0.38209 0.03196 0.922 0.0
O301 O 0.34266 0.99613 0.91385 0.0
O302 O 0.27085 0.03115 0.96745 0.0
O303 O 0.18679 0.02833 0.93955 0.0
H304 H 0.28541 0.10345 0.09411 0.0
H305 H 0.27978 0.0493 0.83665 0.0
O306 O 0.19431 0.11657 0.84318 0.0
H307 H 0.17911 0.87271 0.85477 0.0
H308 H 0.02307 0.05102 0.80871 0.0
H309 H 0.08963 0.06904 0.93945 0.0
H310 H 0.15001 0.95741 0.88851 0.0
H311 H 0.12338 0.0485 0.82282 0.0
O312 O 0.36995 0.07833 0.93721 0.0
H313 H 0.24986 0.08943 0.02973 0.0
H314 H 0.40145 0.15019 0.98404 0.0
H315 H 0.98893 0.07062 0.92666 0.0
H316 H 0.31016 0.96573 0.80204 0.0
H317 H 0.95514 0.06396 0.86073 0.0
H318 H 0.25972 0.87658 0.81106 0.0
O319 O 0.16672 0.14229 0.91929 0.0
H320 H 0.3835 0.24771 0.86715 0.0
H321 H 0.27934 0.22 0.98534 0.0
H322 H 0.30515 0.31495 0.96584 0.0
H323 H 0.35777 0.32924 0.90641 0.0
H324 H 0.35628 0.15354 0.88751 0.0
H325 H 0.4388 0.16446 0.04799 0.0
H326 H 0.38059 0.14115 0.1036 0.0
O327 O 0.22086 0.13524 0.97 0.0
C328 C 0.22275 0.00948 0.9631 0.0
C329 C 0.31114 0.11392 0.07012 0.0
C330 C 0.39726 0.14803 0.04423 0.0
N331 N 0.32343 0.11911 1.00309 0.0
C332 C 0.29116 0.10623 0.03355 0.0
C333 C 0.37593 0.1397 0.00807 0.0
C334 C 0.36456 0.13499 0.07541 0.0
C335 C 0.25769 0.01063 0.84076 0.0
N336 N 0.21338 0.00812 0.86478 0.0
C337 C 0.27506 0.96346 0.82107 0.0
C338 C 0.24675 0.91346 0.82614 0.0
C339 C 0.20156 0.91124 0.85069 0.0
C340 C 0.1854 0.95926 0.86987 0.0
C341 C 0.03735 0.05489 0.8375 0.0
C342 C 0.07527 0.06408 0.91082 0.0
C343 C 0.09413 0.05313 0.84571 0.0
N344 N 0.11253 0.05938 0.88191 0.0
C345 C 0.01817 0.06577 0.90371 0.0
C346 C 0.99925 0.06222 0.8667 0.0
C347 C 0.17694 0.1523 0.95374 0.0
C348 C 0.36073 0.24201 0.89317 0.0
C349 C 0.30207 0.22591 0.95938 0.0
C350 C 0.31667 0.27975 0.94852 0.0
C351 C 0.34622 0.28774 0.91518 0.0
N352 N 0.31662 0.18127 0.93769 0.0
C353 C 0.3454 0.18878 0.90491 0.0
Co354 Co 0.07378 0.81053 0.11803 0.0
Co355 Co 0.10314 0.70539 0.0566 0.0
O356 O 0.09146 0.73233 0.10828 0.0
C357 C 0.16706 0.79243 0.17345 0.0
O358 O 0.20025 0.77487 0.14659 0.0
C359 C 0.04689 0.6104 0.09831 0.0
O360 O 0.0402 0.64012 0.12893 0.0
O361 O 0.02729 0.73015 0.04357 0.0
O362 O 0.02639 0.81452 0.07078 0.0
H363 H 0.09298 0.71878 0.9154 0.0
H364 H 0.05092 0.72659 0.17715 0.0
O365 O 0.11758 0.80739 0.16585 0.0
H366 H 0.87228 0.8219 0.15565 0.0
H367 H 0.0529 0.97868 0.20079 0.0
H368 H 0.06846 0.91112 0.07012 0.0
H369 H 0.95622 0.84932 0.12036 0.0
H370 H 0.04966 0.8783 0.18698 0.0
O371 O 0.07211 0.63015 0.06972 0.0
H372 H 0.08274 0.7527 0.98052 0.0
H373 H 0.14414 0.59944 0.02278 0.0
H374 H 0.07085 0.01184 0.08262 0.0
H375 H 0.96816 0.69796 0.21341 0.0
H376 H 0.06538 0.04612 0.1485 0.0
H377 H 0.87796 0.74564 0.20263 0.0
O378 O 0.14114 0.83376 0.08992 0.0
H379 H 0.24673 0.61578 0.13964 0.0
H380 H 0.21499 0.71856 0.02151 0.0
H381 H 0.31043 0.69168 0.03909 0.0
H382 H 0.32677 0.63976 0.09851 0.0
H383 H 0.15214 0.64392 0.12115 0.0
H384 H 0.15446 0.56366 0.95807 0.0
H385 H 0.12892 0.62353 0.90381 0.0
O386 O 0.13279 0.77929 0.03954 0.0
C387 C 0.00628 0.77837 0.04785 0.0
C388 C 0.10446 0.69236 0.9388 0.0
C389 C 0.13884 0.60527 0.96275 0.0
N390 N 0.1131 0.67827 0.00549 0.0
C391 C 0.09898 0.71143 0.97577 0.0
C392 C 0.13278 0.62573 0.99934 0.0
C393 C 0.12453 0.63889 0.93232 0.0
C394 C 0.01173 0.74728 0.17218 0.0
N395 N 0.00808 0.78876 0.14607 0.0
C396 C 0.96505 0.73099 0.19284 0.0
C397 C 0.91446 0.75776 0.18679 0.0
C398 C 0.91121 0.80046 0.16038 0.0
C399 C 0.95876 0.81555 0.14024 0.0
C400 C 0.05621 0.96417 0.17201 0.0
C401 C 0.06403 0.92571 0.09875 0.0
C402 C 0.05399 0.90737 0.16397 0.0
N403 N 0.05955 0.8887 0.12779 0.0
C404 C 0.06618 0.98281 0.10569 0.0
C405 C 0.06329 0.002 0.14267 0.0
C406 C 0.15083 0.82303 0.05557 0.0
C407 C 0.24011 0.63807 0.11356 0.0
C408 C 0.22171 0.69589 0.04738 0.0
C409 C 0.27587 0.68077 0.05718 0.0
C410 C 0.28501 0.65164 0.09051 0.0
N411 N 0.17782 0.68212 0.07002 0.0
C412 C 0.18652 0.65383 0.10283 0.0
Co413 Co 0.80597 0.92157 0.89183 0.0
Co414 Co 0.7005 0.89382 0.95358 0.0
O415 O 0.72784 0.90437 0.90187 0.0
C416 C 0.76974 0.84425 0.82798 0.0
O417 O 0.71863 0.84042 0.8406 0.0
C418 C 0.61518 0.96825 0.9209 0.0
O419 O 0.65589 1.00119 0.91042 0.0
O420 O 0.72514 0.96996 0.9665 0.0
O421 O 0.80851 0.97217 0.93767 0.0
H422 H 0.70995 0.90427 0.09498 0.0
H423 H 0.71569 0.94543 0.83607 0.0
O424 O 0.80603 0.87314 0.84546 0.0
H425 H 0.82223 0.11952 0.8477 0.0
H426 H 0.97635 0.93651 0.81052 0.0
H427 H 0.90538 0.93068 0.94071 0.0
H428 H 0.84889 0.03685 0.88428 0.0
H429 H 0.87562 0.94117 0.82299 0.0
O430 O 0.62593 0.92262 0.93752 0.0
H431 H 0.74571 0.91471 0.03036 0.0
H432 H 0.59337 0.85372 0.98594 0.0
H433 H 0.00646 0.92714 0.92952 0.0
H434 H 0.68789 0.02678 0.79873 0.0
H435 H 0.04245 0.92767 0.86396 0.0
H436 H 0.74125 0.1148 0.80438 0.0
O437 O 0.82881 0.85602 0.92178 0.0
H438 H 0.60591 0.74908 0.87403 0.0
H439 H 0.71735 0.78226 0.98843 0.0
H440 H 0.69017 0.68654 0.9718 0.0
H441 H 0.63395 0.66945 0.91425 0.0
H442 H 0.63454 0.8441 0.89152 0.0
H443 H 0.55581 0.84306 0.05015 0.0
H444 H 0.61428 0.8683 0.10524 0.0
O445 O 0.77426 0.86582 0.972 0.0
C446 C 0.77286 0.99185 0.96115 0.0
C447 C 0.6841 0.89299 0.07121 0.0
C448 C 0.59756 0.85878 0.04605 0.0
N449 N 0.67176 0.88476 1.00432 0.0
C450 C 0.70419 0.89865 0.03451 0.0
C451 C 0.61901 0.86508 0.00974 0.0
C452 C 0.6304 0.87289 0.07695 0.0
C453 C 0.73969 0.98305 0.83841 0.0
N454 N 0.78451 0.98579 0.86199 0.0
C455 C 0.72349 0.02926 0.81731 0.0
C456 C 0.75336 0.07867 0.82054 0.0
C457 C 0.79877 0.08134 0.84483 0.0
C458 C 0.81367 0.03432 0.86551 0.0
C459 C 0.96111 0.93541 0.83919 0.0
C460 C 0.92072 0.93304 0.91216 0.0
C461 C 0.9041 0.93844 0.84647 0.0
N462 N 0.88445 0.93548 0.88256 0.0
C463 C 0.97802 0.93023 0.90598 0.0
C464 C 0.99817 0.93033 0.86919 0.0
C465 C 0.81819 0.84776 0.95629 0.0
C466 C 0.63046 0.75597 0.89916 0.0
C467 C 0.69335 0.77516 0.96315 0.0
C468 C 0.67784 0.72087 0.95398 0.0
C469 C 0.64624 0.71132 0.92172 0.0
N470 N 0.6779 0.81872 0.94079 0.0
C471 C 0.64671 0.8097 0.90923 0.0
C472 C 0.97919 0.51555 0.62479 0.0
C473 C 0.98156 0.55157 0.59363 0.0
C474 C 0.99767 0.46029 0.62193 0.0
C475 C 0.02057 0.43989 0.58817 0.0
H476 H 0.96169 0.52972 0.65122 0.0
H477 H 0.99447 0.43352 0.64636 0.0
S478 S 0.03719 0.51794 0.49879 0.0
N479 N 0.00884 0.56303 0.52811 0.0
N480 N 0.04474 0.45999 0.52311 0.0
C481 C 0.02405 0.47584 0.55709 0.0
C482 C 0.00422 0.53149 0.55973 0.0
C483 C 0.53454 0.00151 0.44299 0.0
C484 C 0.55441 0.02771 0.41024 0.0
C485 C 0.48004 0.98119 0.44505 0.0
C486 C 0.44279 0.98773 0.41483 0.0
H487 H 0.5615 0.99631 0.46719 0.0
H488 H 0.46663 0.96126 0.47087 0.0
S489 S 0.47404 0.05378 0.3229 0.0
N490 N 0.53288 0.05858 0.34673 0.0
N491 N 0.42952 0.02209 0.35112 0.0
C492 C 0.46194 0.01409 0.38197 0.0
C493 C 0.51803 0.03356 0.37951 0.0
C494 C 0.00622 0.46298 0.12594 0.0
C495 C 0.98522 0.44119 0.09202 0.0
C496 C 0.02497 0.5183 0.12818 0.0
C497 C 0.02487 0.55299 0.09626 0.0
H498 H 0.00755 0.43732 0.15099 0.0
H499 H 0.04071 0.53362 0.15482 0.0
S500 S 0.9753 0.51518 1.00059 0.0
N501 N 0.96573 0.45843 0.02588 0.0
N502 N 0.00204 0.56147 0.02978 0.0
C503 C 0.00439 0.53139 0.06215 0.0
C504 C 0.98428 0.47572 0.06011 0.0
C505 C 0.45745 0.96049 0.91785 0.0
C506 C 0.44142 0.01668 0.91719 0.0
C507 C 0.51375 0.94525 0.91792 0.0
C508 C 0.55627 0.98552 0.91662 0.0
H509 H 0.42637 0.92801 0.91989 0.0
H510 H 0.52401 0.90148 0.91972 0.0
S511 S 0.53618 0.13828 0.91121 0.0
N512 N 0.47252 0.1127 0.91293 0.0
N513 N 0.57818 0.08406 0.91244 0.0
C514 C 0.54076 0.04177 0.91412 0.0
C515 C 0.48341 0.05733 0.91461 0.0
C516 C 0.16466 0.0707 0.47494 0.0
C517 C 0.20987 0.03723 0.48598 0.0
C518 C 0.14661 0.11536 0.49717 0.0
C519 C 0.1719 0.12754 0.53191 0.0
H520 H 0.14278 0.06251 0.4489 0.0
H521 H 0.1115 0.13968 0.48753 0.0
S522 S 0.29065 0.05316 0.57477 0.0
N523 N 0.27994 0.02076 0.5344 0.0
N524 N 0.24339 0.10281 0.5769 0.0
C525 C 0.21636 0.09437 0.54378 0.0
C526 C 0.23605 0.04981 0.52062 0.0
C527 C 0.11164 0.77587 0.47406 0.0
C528 C 0.13788 0.82737 0.47879 0.0
C529 C 0.06591 0.76103 0.49656 0.0
C530 C 0.04377 0.79789 0.52382 0.0
H531 H 0.12672 0.74687 0.45305 0.0
H532 H 0.04753 0.72043 0.49218 0.0
S533 S 0.09528 0.94087 0.54275 0.0
N534 N 0.13805 0.91625 0.51064 0.0
N535 N 0.05028 0.89059 0.55129 0.0
C536 C 0.06906 0.85046 0.52757 0.0
C537 C 0.11656 0.86456 0.5055 0.0
C538 C 0.8437 0.92798 0.47884 0.0
C539 C 0.79531 0.95835 0.48756 0.0
C540 C 0.85922 0.88129 0.49982 0.0
C541 C 0.8281 0.86401 0.53121 0.0
H542 H 0.87028 0.94033 0.45575 0.0
H543 H 0.89718 0.85975 0.49221 0.0
S544 S 0.699 0.92867 0.56716 0.0
N545 N 0.71582 0.96637 0.53001 0.0
N546 N 0.74762 0.88054 0.5707 0.0
C547 C 0.78025 0.89396 0.54081 0.0
C548 C 0.7632 0.94058 0.51869 0.0
C549 C 0.91822 0.19459 0.46557 0.0
C550 C 0.86683 0.17876 0.48139 0.0
C551 C 0.96293 0.21141 0.48824 0.0
C552 C 0.95861 0.21253 0.52774 0.0
H553 H 0.92475 0.1925 0.43541 0.0
H554 H 0.00174 0.22184 0.47464 0.0
S555 S 0.83164 0.18339 0.58343 0.0
N556 N 0.81295 0.17186 0.53939 0.0
N557 N 0.89759 0.20216 0.58157 0.0
C558 C 0.90708 0.19941 0.54394 0.0
C559 C 0.86108 0.1831 0.52089 0.0
C560 C 0.83386 0.07488 0.973 0.0
C561 C 0.78845 0.04156 0.98398 0.0
C562 C 0.85034 0.12113 0.99432 0.0
C563 C 0.8231 0.13512 0.02806 0.0
H564 H 0.85738 0.06509 0.94789 0.0
H565 H 0.88616 0.14482 0.98505 0.0
S566 S 0.7017 0.06301 0.0696 0.0
N567 N 0.71517 0.02801 0.03065 0.0
N568 N 0.74862 0.11305 0.07154 0.0
C569 C 0.77776 0.10265 0.0395 0.0
C570 C 0.75979 0.05646 0.01726 0.0
C571 C 0.11714 0.14564 0.01066 0.0
C572 C 0.1317 0.17421 0.97756 0.0
C573 C 0.07145 0.16212 0.03246 0.0
C574 C 0.03934 0.20887 0.02268 0.0
H575 H 0.14016 0.109 0.01912 0.0
H576 H 0.06125 0.13768 0.05708 0.0
S577 S 0.06259 0.2991 0.93897 0.0
N578 N 0.11136 0.25106 0.93578 0.0
N579 N 0.02741 0.28463 0.97768 0.0
C580 C 0.05468 0.23866 0.98993 0.0
C581 C 0.10027 0.22064 0.96714 0.0
C582 C 0.14512 0.88174 0.99822 0.0
C583 C 0.17314 0.86793 0.03164 0.0
C584 C 0.16121 0.92766 0.97659 0.0
C585 C 0.20711 0.96081 0.98684 0.0
H586 H 0.10903 0.85807 0.98939 0.0
H587 H 0.13701 0.93724 0.95178 0.0
S588 S 0.29519 0.94059 0.07188 0.0
N589 N 0.24831 0.89054 0.07446 0.0
N590 N 0.2811 0.97512 0.03286 0.0
C591 C 0.23628 0.94646 0.01999 0.0
C592 C 0.21864 0.90055 0.04262 0.0
C593 C 0.87897 0.85652 0.0125 0.0
C594 C 0.86318 0.82628 0.98036 0.0
C595 C 0.92549 0.84108 0.0338 0.0
C596 C 0.95709 0.7937 0.02454 0.0
H597 H 0.85645 0.89374 0.02043 0.0
H598 H 0.93677 0.86693 0.05753 0.0
S599 S 0.93116 0.69978 0.94303 0.0
N600 N 0.88215 0.74756 0.93978 0.0
N601 N 0.96767 0.716 0.98085 0.0
C602 C 0.94066 0.76241 0.9927 0.0
C603 C 0.89424 0.77934 0.97036 0.0
C604 C 0.19395 0.25518 0.74651 0.0
C605 C 0.18717 0.21521 0.71785 0.0
C606 C 0.20379 0.2392 0.78412 0.0
C607 C 0.2071 0.1827 0.79433 0.0
H608 H 0.18856 0.29891 0.74029 0.0
H609 H 0.20622 0.27121 0.80551 0.0
S610 S 0.20131 0.06245 0.72852 0.0
N611 N 0.19116 0.11724 0.70149 0.0
N612 N 0.20953 0.0872 0.7715 0.0
C613 C 0.20413 0.1427 0.76533 0.0
C614 C 0.19423 0.15894 0.7273 0.0
C615 C 0.14634 0.80921 0.24132 0.0
C616 C 0.18614 0.79802 0.21318 0.0
C617 C 0.16195 0.82105 0.27836 0.0
C618 C 0.21815 0.82213 0.28928 0.0
H619 H 0.10239 0.81024 0.23464 0.0
H620 H 0.12941 0.83083 0.29842 0.0
S621 S 0.33887 0.79104 0.22754 0.0
N622 N 0.28441 0.78507 0.19947 0.0
N623 N 0.31389 0.80733 0.26947 0.0
C624 C 0.25848 0.80816 0.26206 0.0
C625 C 0.24246 0.79614 0.22398 0.0
C626 C 0.75941 0.80433 0.72436 0.0
C627 C 0.81546 0.79587 0.71429 0.0
C628 C 0.74423 0.81694 0.76172 0.0
C629 C 0.78456 0.82175 0.79032 0.0
H630 H 0.72726 0.80364 0.70301 0.0
H631 H 0.70096 0.8257 0.76779 0.0
S632 S 0.93582 0.79513 0.78018 0.0
N633 N 0.91052 0.78688 0.73736 0.0
N634 N 0.88196 0.81089 0.8069 0.0
C635 C 0.84016 0.81 0.7811 0.0
C636 C 0.85559 0.79698 0.74331 0.0
C637 C 0.80853 0.23856 0.28535 0.0
C638 C 0.80286 0.1825 0.29616 0.0
C639 C 0.81946 0.25329 0.24763 0.0
C640 C 0.82503 0.21251 0.21933 0.0
H641 H 0.80677 0.27117 0.30635 0.0
H642 H 0.82604 0.29672 0.24097 0.0
S643 S 0.80531 0.06057 0.23162 0.0
N644 N 0.79769 0.08662 0.27429 0.0
N645 N 0.81767 0.11433 0.20407 0.0
C646 C 0.81607 0.15673 0.22941 0.0
C647 C 0.80515 0.14174 0.26759 0.0
loop_
_geom_bond_atom_site_label_1
_geom_bond_atom_site_label_2
_geom_bond_distance
_geom_bond_site_symmetry_2
_ccdc_geom_bond_type
Co0 O2 2.143 . S
Co0 O8 2.074 . S
Co0 O11 2.093 . S
Co0 O24 2.097 . S
Co0 N41 2.151 . S
Co0 N49 2.214 . S
Co1 O2 2.160 . S
Co1 O7 2.058 . S
Co1 O17 2.057 . S
Co1 O32 2.037 . S
Co1 N36 2.145 . S
Co1 N57 2.257 . S
O2 Co0 2.143 . S
O2 Co1 2.160 . S
C3 O4 1.278 . S
C3 O11 1.224 . S
O4 C3 1.278 . S
C5 O6 1.245 . S
C5 O17 1.232 . S
O6 C5 1.245 . S
O7 Co1 2.058 . S
O7 C33 1.269 . S
O8 Co0 2.074 . S
O8 C33 1.257 . S
H9 C34 0.930 . S
H10 C40 0.930 . S
O11 Co0 2.093 . S
O11 C3 1.224 . S
H12 C44 0.929 . S
H13 C46 0.930 1_565 S
H14 C47 0.930 . S
H15 C45 0.929 . S
H16 C48 0.928 . S
O17 Co1 2.057 . S
O17 C5 1.232 . S
H18 C37 0.929 . S
H19 C38 0.929 . S
H20 C50 0.931 1_565 S
H21 C42 0.929 . S
H22 C51 0.930 . S
H23 C43 0.931 . S
O24 Co0 2.097 . S
O24 C52 1.214 . S
H25 C53 0.929 . S
H26 C54 0.929 . S
H27 C55 0.930 . S
H28 C56 0.929 . S
H29 C58 0.930 . S
H30 C35 0.930 . S
H31 C39 0.930 . S
O32 Co1 2.037 . S
O32 C52 1.234 . S
C33 O7 1.269 . S
C33 O8 1.257 . S
C34 H9 0.930 . S
C34 C37 1.388 . S
C34 C39 1.418 . S
C35 H30 0.930 . S
C35 C38 1.404 . S
C35 C39 1.353 . S
N36 Co1 2.145 . S
N36 C37 1.397 . S
N36 C38 1.334 . S
C37 H18 0.929 . S
C37 C34 1.388 . S
C37 N36 1.397 . S
C38 H19 0.929 . S
C38 C35 1.404 . S
C38 N36 1.334 . S
C39 H31 0.930 . S
C39 C34 1.418 . S
C39 C35 1.353 . S
C40 H10 0.930 . S
C40 N41 1.330 . S
C40 C42 1.446 1_455 S
N41 Co0 2.151 . S
N41 C40 1.330 . S
N41 C45 1.418 1_455 S
C42 H21 0.929 . S
C42 C40 1.446 1_655 S
C42 C43 1.332 . S
C43 H23 0.931 . S
C43 C42 1.332 . S
C43 C44 1.267 . S
C44 H12 0.929 . S
C44 C43 1.267 . S
C44 C45 1.251 . S
C45 H15 0.929 . S
C45 N41 1.418 1_655 S
C45 C44 1.251 . S
C46 H13 0.930 1_545 S
C46 C48 1.406 . S
C46 C51 1.261 1_545 S
C47 H14 0.930 . S
C47 N49 1.325 . S
C47 C50 1.357 . S
C48 H16 0.928 . S
C48 C46 1.406 . S
C48 N49 1.261 . S
N49 Co0 2.214 . S
N49 C47 1.325 . S
N49 C48 1.261 . S
C50 H20 0.931 1_545 S
C50 C47 1.357 . S
C50 C51 1.312 1_545 S
C51 H22 0.930 . S
C51 C46 1.261 1_565 S
C51 C50 1.312 1_565 S
C52 O24 1.214 . S
C52 O32 1.234 . S
C53 H25 0.929 . S
C53 C56 1.391 . S
C53 C58 1.391 . S
C54 H26 0.929 . S
C54 C55 1.390 . S
C54 N57 1.391 . S
C55 H27 0.930 . S
C55 C54 1.390 . S
C55 C56 1.392 . S
C56 H28 0.929 . S
C56 C53 1.391 . S
C56 C55 1.392 . S
N57 Co1 2.257 . S
N57 C54 1.391 . S
N57 C58 1.388 . S
C58 H29 0.930 . S
C58 C53 1.391 . S
C58 N57 1.388 . S
Co59 O61 2.143 . S
Co59 O67 2.074 . S
Co59 O70 2.093 . S
Co59 O83 2.097 . S
Co59 N100 2.151 . S
Co59 N108 2.214 . S
Co60 O61 2.160 . S
Co60 O66 2.058 . S
Co60 O76 2.057 . S
Co60 O91 2.037 . S
Co60 N95 2.145 . S
Co60 N116 2.257 . S
O61 Co59 2.143 . S
O61 Co60 2.160 . S
C62 O63 1.278 . S
C62 O70 1.224 . S
O63 C62 1.278 . S
C64 O65 1.245 . S
C64 O76 1.232 . S
O65 C64 1.245 . S
O66 Co60 2.058 . S
O66 C92 1.269 . S
O67 Co59 2.074 . S
O67 C92 1.257 . S
H68 C93 0.930 . S
H69 C99 0.930 . S
O70 Co59 2.093 . S
O70 C62 1.224 . S
H71 C103 0.929 . S
H72 C105 0.930 1_655 S
H73 C106 0.930 . S
H74 C104 0.929 . S
H75 C107 0.928 . S
O76 Co60 2.057 . S
O76 C64 1.232 . S
H77 C96 0.929 . S
H78 C97 0.929 . S
H79 C109 0.931 1_655 S
H80 C101 0.929 . S
H81 C110 0.930 . S
H82 C102 0.931 . S
O83 Co59 2.097 . S
O83 C111 1.214 . S
H84 C112 0.929 . S
H85 C113 0.929 . S
H86 C114 0.930 . S
H87 C115 0.929 . S
H88 C117 0.930 . S
H89 C94 0.930 . S
H90 C98 0.930 . S
O91 Co60 2.037 . S
O91 C111 1.234 . S
C92 O66 1.269 . S
C92 O67 1.257 . S
C93 H68 0.930 . S
C93 C96 1.388 . S
C93 C98 1.418 . S
C94 H89 0.930 . S
C94 C97 1.404 . S
C94 C98 1.353 . S
N95 Co60 2.145 . S
N95 C96 1.397 . S
N95 C97 1.334 . S
C96 H77 0.929 . S
C96 C93 1.388 . S
C96 N95 1.397 . S
C97 H78 0.929 . S
C97 C94 1.404 . S
C97 N95 1.334 . S
C98 H90 0.930 . S
C98 C93 1.418 . S
C98 C94 1.353 . S
C99 H69 0.930 . S
C99 N100 1.330 . S
C99 C101 1.446 1_565 S
N100 Co59 2.151 . S
N100 C99 1.330 . S
N100 C104 1.418 1_565 S
C101 H80 0.929 . S
C101 C99 1.446 1_545 S
C101 C102 1.332 . S
C102 H82 0.931 . S
C102 C101 1.332 . S
C102 C103 1.267 . S
C103 H71 0.929 . S
C103 C102 1.267 . S
C103 C104 1.251 . S
C104 H74 0.929 . S
C104 N100 1.418 1_545 S
C104 C103 1.251 . S
C105 H72 0.930 1_455 S
C105 C107 1.406 . S
C105 C110 1.261 1_455 S
C106 H73 0.930 . S
C106 N108 1.325 . S
C106 C109 1.357 . S
C107 H75 0.928 . S
C107 C105 1.406 . S
C107 N108 1.261 . S
N108 Co59 2.214 . S
N108 C106 1.325 . S
N108 C107 1.261 . S
C109 H79 0.931 1_455 S
C109 C106 1.357 . S
C109 C110 1.312 1_455 S
C110 H81 0.930 . S
C110 C105 1.261 1_655 S
C110 C109 1.312 1_655 S
C111 O83 1.214 . S
C111 O91 1.234 . S
C112 H84 0.929 . S
C112 C115 1.391 . S
C112 C117 1.391 . S
C113 H85 0.929 . S
C113 C114 1.390 . S
C113 N116 1.391 . S
C114 H86 0.930 . S
C114 C113 1.390 . S
C114 C115 1.392 . S
C115 H87 0.929 . S
C115 C112 1.391 . S
C115 C114 1.392 . S
N116 Co60 2.257 . S
N116 C113 1.391 . S
N116 C117 1.388 . S
C117 H88 0.930 . S
C117 C112 1.391 . S
C117 N116 1.388 . S
Co118 O120 2.143 . S
Co118 O126 2.074 . S
Co118 O129 2.093 . S
Co118 O142 2.097 . S
Co118 N159 2.151 . S
Co118 N167 2.214 . S
Co119 O120 2.160 . S
Co119 O125 2.058 . S
Co119 O135 2.057 . S
Co119 O150 2.037 . S
Co119 N154 2.145 . S
Co119 N175 2.257 . S
O120 Co118 2.143 . S
O120 Co119 2.160 . S
C121 O122 1.278 . S
C121 O129 1.224 . S
O122 C121 1.278 . S
C123 O124 1.245 . S
C123 O135 1.232 . S
O124 C123 1.245 . S
O125 Co119 2.058 . S
O125 C151 1.269 . S
O126 Co118 2.074 . S
O126 C151 1.257 . S
H127 C152 0.930 . S
H128 C158 0.930 . S
O129 Co118 2.093 . S
O129 C121 1.224 . S
H130 C162 0.929 . S
H131 C164 0.930 1_545 S
H132 C165 0.930 . S
H133 C163 0.929 . S
H134 C166 0.928 . S
O135 Co119 2.057 . S
O135 C123 1.232 . S
H136 C155 0.929 . S
H137 C156 0.929 . S
H138 C168 0.931 1_545 S
H139 C160 0.929 . S
H140 C169 0.930 . S
H141 C161 0.931 . S
O142 Co118 2.097 . S
O142 C170 1.214 . S
H143 C171 0.929 . S
H144 C172 0.929 . S
H145 C173 0.930 . S
H146 C174 0.929 . S
H147 C176 0.930 . S
H148 C153 0.930 . S
H149 C157 0.930 . S
O150 Co119 2.037 . S
O150 C170 1.234 . S
C151 O125 1.269 . S
C151 O126 1.257 . S
C152 H127 0.930 . S
C152 C155 1.388 . S
C152 C157 1.418 . S
C153 H148 0.930 . S
C153 C156 1.404 . S
C153 C157 1.353 . S
N154 Co119 2.145 . S
N154 C155 1.397 . S
N154 C156 1.334 . S
C155 H136 0.929 . S
C155 C152 1.388 . S
C155 N154 1.397 . S
C156 H137 0.929 . S
C156 C153 1.404 . S
C156 N154 1.334 . S
C157 H149 0.930 . S
C157 C152 1.418 . S
C157 C153 1.353 . S
C158 H128 0.930 . S
C158 N159 1.330 . S
C158 C160 1.446 1_655 S
N159 Co118 2.151 . S
N159 C158 1.330 . S
N159 C163 1.418 1_655 S
C160 H139 0.929 . S
C160 C158 1.446 1_455 S
C160 C161 1.332 . S
C161 H141 0.931 . S
C161 C160 1.332 . S
C161 C162 1.267 . S
C162 H130 0.929 . S
C162 C161 1.267 . S
C162 C163 1.251 . S
C163 H133 0.929 . S
C163 N159 1.418 1_455 S
C163 C162 1.251 . S
C164 H131 0.930 1_565 S
C164 C166 1.406 . S
C164 C169 1.261 1_565 S
C165 H132 0.930 . S
C165 N167 1.325 . S
C165 C168 1.357 . S
C166 H134 0.928 . S
C166 C164 1.406 . S
C166 N167 1.261 . S
N167 Co118 2.214 . S
N167 C165 1.325 . S
N167 C166 1.261 . S
C168 H138 0.931 1_565 S
C168 C165 1.357 . S
C168 C169 1.312 1_565 S
C169 H140 0.930 . S
C169 C164 1.261 1_545 S
C169 C168 1.312 1_545 S
C170 O142 1.214 . S
C170 O150 1.234 . S
C171 H143 0.929 . S
C171 C174 1.391 . S
C171 C176 1.391 . S
C172 H144 0.929 . S
C172 C173 1.390 . S
C172 N175 1.391 . S
C173 H145 0.930 . S
C173 C172 1.390 . S
C173 C174 1.392 . S
C174 H146 0.929 . S
C174 C171 1.391 . S
C174 C173 1.392 . S
N175 Co119 2.257 . S
N175 C172 1.391 . S
N175 C176 1.388 . S
C176 H147 0.930 . S
C176 C171 1.391 . S
C176 N175 1.388 . S
Co177 O179 2.143 . S
Co177 O185 2.074 . S
Co177 O188 2.093 . S
Co177 O201 2.097 . S
Co177 N218 2.151 . S
Co177 N226 2.214 . S
Co178 O179 2.160 . S
Co178 O184 2.058 . S
Co178 O194 2.057 . S
Co178 O209 2.037 . S
Co178 N213 2.145 . S
Co178 N234 2.257 . S
O179 Co177 2.143 . S
O179 Co178 2.160 . S
C180 O181 1.278 . S
C180 O188 1.224 . S
O181 C180 1.278 . S
C182 O183 1.245 . S
C182 O194 1.232 . S
O183 C182 1.245 . S
O184 Co178 2.058 . S
O184 C210 1.269 . S
O185 Co177 2.074 . S
O185 C210 1.257 . S
H186 C211 0.930 . S
H187 C217 0.930 . S
O188 Co177 2.093 . S
O188 C180 1.224 . S
H189 C221 0.929 . S
H190 C223 0.930 1_455 S
H191 C224 0.930 . S
H192 C222 0.929 . S
H193 C225 0.928 . S
O194 Co178 2.057 . S
O194 C182 1.232 . S
H195 C214 0.929 . S
H196 C215 0.929 . S
H197 C227 0.931 1_455 S
H198 C219 0.929 . S
H199 C228 0.930 . S
H200 C220 0.931 . S
O201 Co177 2.097 . S
O201 C229 1.214 . S
H202 C230 0.929 . S
H203 C231 0.929 . S
H204 C232 0.930 . S
H205 C233 0.929 . S
H206 C235 0.930 . S
H207 C212 0.930 . S
H208 C216 0.930 . S
O209 Co178 2.037 . S
O209 C229 1.234 . S
C210 O184 1.269 . S
C210 O185 1.257 . S
C211 H186 0.930 . S
C211 C214 1.388 . S
C211 C216 1.418 . S
C212 H207 0.930 . S
C212 C215 1.404 . S
C212 C216 1.353 . S
N213 Co178 2.145 . S
N213 C214 1.397 . S
N213 C215 1.334 . S
C214 H195 0.929 . S
C214 C211 1.388 . S
C214 N213 1.397 . S
C215 H196 0.929 . S
C215 C212 1.404 . S
C215 N213 1.334 . S
C216 H208 0.930 . S
C216 C211 1.418 . S
C216 C212 1.353 . S
C217 H187 0.930 . S
C217 N218 1.330 . S
C217 C219 1.446 1_545 S
N218 Co177 2.151 . S
N218 C217 1.330 . S
N218 C222 1.418 1_545 S
C219 H198 0.929 . S
C219 C217 1.446 1_565 S
C219 C220 1.332 . S
C220 H200 0.931 . S
C220 C219 1.332 . S
C220 C221 1.267 . S
C221 H189 0.929 . S
C221 C220 1.267 . S
C221 C222 1.251 . S
C222 H192 0.929 . S
C222 N218 1.418 1_565 S
C222 C221 1.251 . S
C223 H190 0.930 1_655 S
C223 C225 1.406 . S
C223 C228 1.261 1_655 S
C224 H191 0.930 . S
C224 N226 1.325 . S
C224 C227 1.357 . S
C225 H193 0.928 . S
C225 C223 1.406 . S
C225 N226 1.261 . S
N226 Co177 2.214 . S
N226 C224 1.325 . S
N226 C225 1.261 . S
C227 H197 0.931 1_655 S
C227 C224 1.357 . S
C227 C228 1.312 1_655 S
C228 H199 0.930 . S
C228 C223 1.261 1_455 S
C228 C227 1.312 1_455 S
C229 O201 1.214 . S
C229 O209 1.234 . S
C230 H202 0.929 . S
C230 C233 1.391 . S
C230 C235 1.391 . S
C231 H203 0.929 . S
C231 C232 1.390 . S
C231 N234 1.391 . S
C232 H204 0.930 . S
C232 C231 1.390 . S
C232 C233 1.392 . S
C233 H205 0.929 . S
C233 C230 1.391 . S
C233 C232 1.392 . S
N234 Co178 2.257 . S
N234 C231 1.391 . S
N234 C235 1.388 . S
C235 H206 0.930 . S
C235 C230 1.391 . S
C235 N234 1.388 . S
Co236 O238 2.143 . S
Co236 O244 2.074 . S
Co236 O247 2.093 . S
Co236 O260 2.097 . S
Co236 N277 2.151 . S
Co236 N285 2.214 . S
Co237 O238 2.160 . S
Co237 O243 2.058 . S
Co237 O253 2.057 . S
Co237 O268 2.037 . S
Co237 N272 2.145 1_554 S
Co237 N293 2.257 . S
O238 Co236 2.143 . S
O238 Co237 2.160 . S
C239 O240 1.278 . S
C239 O247 1.224 . S
O240 C239 1.278 . S
C241 O242 1.245 . S
C241 O253 1.232 . S
O242 C241 1.245 . S
O243 Co237 2.058 . S
O243 C269 1.269 . S
O244 Co236 2.074 . S
O244 C269 1.257 . S
H245 C270 0.930 . S
H246 C276 0.930 . S
O247 Co236 2.093 . S
O247 C239 1.224 . S
H248 C280 0.929 . S
H249 C282 0.930 1_565 S
H250 C283 0.930 . S
H251 C281 0.929 . S
H252 C284 0.928 . S
O253 Co237 2.057 . S
O253 C241 1.232 . S
H254 C273 0.929 . S
H255 C274 0.929 1_554 S
H256 C286 0.931 1_565 S
H257 C278 0.929 . S
H258 C287 0.930 . S
H259 C279 0.931 . S
O260 Co236 2.097 . S
O260 C288 1.214 . S
H261 C289 0.929 . S
H262 C290 0.929 . S
H263 C291 0.930 . S
H264 C292 0.929 . S
H265 C294 0.930 . S
H266 C271 0.930 . S
H267 C275 0.930 . S
O268 Co237 2.037 . S
O268 C288 1.234 . S
C269 O243 1.269 . S
C269 O244 1.257 . S
C270 H245 0.930 . S
C270 C273 1.388 . S
C270 C275 1.418 . S
C271 H266 0.930 . S
C271 C274 1.404 . S
C271 C275 1.353 . S
N272 Co237 2.145 1_556 S
N272 C273 1.397 . S
N272 C274 1.334 . S
C273 H254 0.929 . S
C273 C270 1.388 . S
C273 N272 1.397 . S
C274 H255 0.929 1_556 S
C274 C271 1.404 . S
C274 N272 1.334 . S
C275 H267 0.930 . S
C275 C270 1.418 . S
C275 C271 1.353 . S
C276 H246 0.930 . S
C276 N277 1.330 . S
C276 C278 1.446 1_655 S
N277 Co236 2.151 . S
N277 C276 1.330 . S
N277 C281 1.418 1_655 S
C278 H257 0.929 . S
C278 C276 1.446 1_455 S
C278 C279 1.332 . S
C279 H259 0.931 . S
C279 C278 1.332 . S
C279 C280 1.267 . S
C280 H248 0.929 . S
C280 C279 1.267 . S
C280 C281 1.251 . S
C281 H251 0.929 . S
C281 N277 1.418 1_455 S
C281 C280 1.251 . S
C282 H249 0.930 1_545 S
C282 C284 1.406 . S
C282 C287 1.261 1_545 S
C283 H250 0.930 . S
C283 N285 1.325 . S
C283 C286 1.357 . S
C284 H252 0.928 . S
C284 C282 1.406 . S
C284 N285 1.261 . S
N285 Co236 2.214 . S
N285 C283 1.325 . S
N285 C284 1.261 . S
C286 H256 0.931 1_545 S
C286 C283 1.357 . S
C286 C287 1.312 1_545 S
C287 H258 0.930 . S
C287 C282 1.261 1_565 S
C287 C286 1.312 1_565 S
C288 O260 1.214 . S
C288 O268 1.234 . S
C289 H261 0.929 . S
C289 C292 1.391 . S
C289 C294 1.391 . S
C290 H262 0.929 . S
C290 C291 1.390 . S
C290 N293 1.391 . S
C291 H263 0.930 . S
C291 C290 1.390 . S
C291 C292 1.392 . S
C292 H264 0.929 . S
C292 C289 1.391 . S
C292 C291 1.392 . S
N293 Co237 2.257 . S
N293 C290 1.391 . S
N293 C294 1.388 . S
C294 H265 0.930 . S
C294 C289 1.391 . S
C294 N293 1.388 . S
Co295 O297 2.143 . S
Co295 O303 2.074 . S
Co295 O306 2.093 . S
Co295 O319 2.097 . S
Co295 N336 2.151 . S
Co295 N344 2.214 . S
Co296 O297 2.160 . S
Co296 O302 2.058 . S
Co296 O312 2.057 . S
Co296 O327 2.037 . S
Co296 N331 2.145 1_556 S
Co296 N352 2.257 . S
O297 Co295 2.143 . S
O297 Co296 2.160 . S
C298 O299 1.278 . S
C298 O306 1.224 . S
O299 C298 1.278 . S
C300 O301 1.245 . S
C300 O312 1.232 . S
O301 C300 1.245 . S
O302 Co296 2.058 . S
O302 C328 1.269 . S
O303 Co295 2.074 . S
O303 C328 1.257 . S
H304 C329 0.930 . S
H305 C335 0.930 . S
O306 Co295 2.093 . S
O306 C298 1.224 . S
H307 C339 0.929 . S
H308 C341 0.930 1_655 S
H309 C342 0.930 . S
H310 C340 0.929 . S
H311 C343 0.928 . S
O312 Co296 2.057 . S
O312 C300 1.232 . S
H313 C332 0.929 . S
H314 C333 0.929 1_556 S
H315 C345 0.931 1_655 S
H316 C337 0.929 . S
H317 C346 0.930 . S
H318 C338 0.931 . S
O319 Co295 2.097 . S
O319 C347 1.214 . S
H320 C348 0.929 . S
H321 C349 0.929 . S
H322 C350 0.930 . S
H323 C351 0.929 . S
H324 C353 0.930 . S
H325 C330 0.930 . S
H326 C334 0.930 . S
O327 Co296 2.037 . S
O327 C347 1.234 . S
C328 O302 1.269 . S
C328 O303 1.257 . S
C329 H304 0.930 . S
C329 C332 1.388 . S
C329 C334 1.418 . S
C330 H325 0.930 . S
C330 C333 1.404 . S
C330 C334 1.353 . S
N331 Co296 2.145 1_554 S
N331 C332 1.397 . S
N331 C333 1.334 . S
C332 H313 0.929 . S
C332 C329 1.388 . S
C332 N331 1.397 . S
C333 H314 0.929 1_554 S
C333 C330 1.404 . S
C333 N331 1.334 . S
C334 H326 0.930 . S
C334 C329 1.418 . S
C334 C330 1.353 . S
C335 H305 0.930 . S
C335 N336 1.330 . S
C335 C337 1.446 1_545 S
N336 Co295 2.151 . S
N336 C335 1.330 . S
N336 C340 1.418 1_545 S
C337 H316 0.929 . S
C337 C335 1.446 1_565 S
C337 C338 1.332 . S
C338 H318 0.931 . S
C338 C337 1.332 . S
C338 C339 1.267 . S
C339 H307 0.929 . S
C339 C338 1.267 . S
C339 C340 1.251 . S
C340 H310 0.929 . S
C340 N336 1.418 1_565 S
C340 C339 1.251 . S
C341 H308 0.930 1_455 S
C341 C343 1.406 . S
C341 C346 1.261 1_455 S
C342 H309 0.930 . S
C342 N344 1.325 . S
C342 C345 1.357 . S
C343 H311 0.928 . S
C343 C341 1.406 . S
C343 N344 1.261 . S
N344 Co295 2.214 . S
N344 C342 1.325 . S
N344 C343 1.261 . S
C345 H315 0.931 1_455 S
C345 C342 1.357 . S
C345 C346 1.312 1_455 S
C346 H317 0.930 . S
C346 C341 1.261 1_655 S
C346 C345 1.312 1_655 S
C347 O319 1.214 . S
C347 O327 1.234 . S
C348 H320 0.929 . S
C348 C351 1.391 . S
C348 C353 1.391 . S
C349 H321 0.929 . S
C349 C350 1.390 . S
C349 N352 1.391 . S
C350 H322 0.930 . S
C350 C349 1.390 . S
C350 C351 1.392 . S
C351 H323 0.929 . S
C351 C348 1.391 . S
C351 C350 1.392 . S
N352 Co296 2.257 . S
N352 C349 1.391 . S
N352 C353 1.388 . S
C353 H324 0.930 . S
C353 C348 1.391 . S
C353 N352 1.388 . S
Co354 O356 2.143 . S
Co354 O362 2.074 . S
Co354 O365 2.093 . S
Co354 O378 2.097 . S
Co354 N395 2.151 . S
Co354 N403 2.214 . S
Co355 O356 2.160 . S
Co355 O361 2.058 . S
Co355 O371 2.057 . S
Co355 O386 2.037 . S
Co355 N390 2.145 1_554 S
Co355 N411 2.257 . S
O356 Co354 2.143 . S
O356 Co355 2.160 . S
C357 O358 1.278 . S
C357 O365 1.224 . S
O358 C357 1.278 . S
C359 O360 1.245 . S
C359 O371 1.232 . S
O360 C359 1.245 . S
O361 Co355 2.058 . S
O361 C387 1.269 . S
O362 Co354 2.074 . S
O362 C387 1.257 . S
H363 C388 0.930 . S
H364 C394 0.930 . S
O365 Co354 2.093 . S
O365 C357 1.224 . S
H366 C398 0.929 . S
H367 C400 0.930 1_545 S
H368 C401 0.930 . S
H369 C399 0.929 . S
H370 C402 0.928 . S
O371 Co355 2.057 . S
O371 C359 1.232 . S
H372 C391 0.929 . S
H373 C392 0.929 1_554 S
H374 C404 0.931 1_545 S
H375 C396 0.929 . S
H376 C405 0.930 . S
H377 C397 0.931 . S
O378 Co354 2.097 . S
O378 C406 1.214 . S
H379 C407 0.929 . S
H380 C408 0.929 . S
H381 C409 0.930 . S
H382 C410 0.929 . S
H383 C412 0.930 . S
H384 C389 0.930 . S
H385 C393 0.930 . S
O386 Co355 2.037 . S
O386 C406 1.234 . S
C387 O361 1.269 . S
C387 O362 1.257 . S
C388 H363 0.930 . S
C388 C391 1.388 . S
C388 C393 1.418 . S
C389 H384 0.930 . S
C389 C392 1.404 . S
C389 C393 1.353 . S
N390 Co355 2.145 1_556 S
N390 C391 1.397 . S
N390 C392 1.334 . S
C391 H372 0.929 . S
C391 C388 1.388 . S
C391 N390 1.397 . S
C392 H373 0.929 1_556 S
C392 C389 1.404 . S
C392 N390 1.334 . S
C393 H385 0.930 . S
C393 C388 1.418 . S
C393 C389 1.353 . S
C394 H364 0.930 . S
C394 N395 1.330 . S
C394 C396 1.446 1_455 S
N395 Co354 2.151 . S
N395 C394 1.330 . S
N395 C399 1.418 1_455 S
C396 H375 0.929 . S
C396 C394 1.446 1_655 S
C396 C397 1.332 . S
C397 H377 0.931 . S
C397 C396 1.332 . S
C397 C398 1.267 . S
C398 H366 0.929 . S
C398 C397 1.267 . S
C398 C399 1.251 . S
C399 H369 0.929 . S
C399 N395 1.418 1_655 S
C399 C398 1.251 . S
C400 H367 0.930 1_565 S
C400 C402 1.406 . S
C400 C405 1.261 1_565 S
C401 H368 0.930 . S
C401 N403 1.325 . S
C401 C404 1.357 . S
C402 H370 0.928 . S
C402 C400 1.406 . S
C402 N403 1.261 . S
N403 Co354 2.214 . S
N403 C401 1.325 . S
N403 C402 1.261 . S
C404 H374 0.931 1_565 S
C404 C401 1.357 . S
C404 C405 1.312 1_565 S
C405 H376 0.930 . S
C405 C400 1.261 1_545 S
C405 C404 1.312 1_545 S
C406 O378 1.214 . S
C406 O386 1.234 . S
C407 H379 0.929 . S
C407 C410 1.391 . S
C407 C412 1.391 . S
C408 H380 0.929 . S
C408 C409 1.390 . S
C408 N411 1.391 . S
C409 H381 0.930 . S
C409 C408 1.390 . S
C409 C410 1.392 . S
C410 H382 0.929 . S
C410 C407 1.391 . S
C410 C409 1.392 . S
N411 Co355 2.257 . S
N411 C408 1.391 . S
N411 C412 1.388 . S
C412 H383 0.930 . S
C412 C407 1.391 . S
C412 N411 1.388 . S
Co413 O415 2.143 . S
Co413 O421 2.074 . S
Co413 O424 2.093 . S
Co413 O437 2.097 . S
Co413 N454 2.151 . S
Co413 N462 2.214 . S
Co414 O415 2.160 . S
Co414 O420 2.058 . S
Co414 O430 2.057 . S
Co414 O445 2.037 . S
Co414 N449 2.145 1_556 S
Co414 N470 2.257 . S
O415 Co413 2.143 . S
O415 Co414 2.160 . S
C416 O417 1.278 . S
C416 O424 1.224 . S
O417 C416 1.278 . S
C418 O419 1.245 . S
C418 O430 1.232 . S
O419 C418 1.245 . S
O420 Co414 2.058 . S
O420 C446 1.269 . S
O421 Co413 2.074 . S
O421 C446 1.257 . S
H422 C447 0.930 . S
H423 C453 0.930 . S
O424 Co413 2.093 . S
O424 C416 1.224 . S
H425 C457 0.929 . S
H426 C459 0.930 1_455 S
H427 C460 0.930 . S
H428 C458 0.929 . S
H429 C461 0.928 . S
O430 Co414 2.057 . S
O430 C418 1.232 . S
H431 C450 0.929 . S
H432 C451 0.929 1_556 S
H433 C463 0.931 1_455 S
H434 C455 0.929 . S
H435 C464 0.930 . S
H436 C456 0.931 . S
O437 Co413 2.097 . S
O437 C465 1.214 . S
H438 C466 0.929 . S
H439 C467 0.929 . S
H440 C468 0.930 . S
H441 C469 0.929 . S
H442 C471 0.930 . S
H443 C448 0.930 . S
H444 C452 0.930 . S
O445 Co414 2.037 . S
O445 C465 1.234 . S
C446 O420 1.269 . S
C446 O421 1.257 . S
C447 H422 0.930 . S
C447 C450 1.388 . S
C447 C452 1.418 . S
C448 H443 0.930 . S
C448 C451 1.404 . S
C448 C452 1.353 . S
N449 Co414 2.145 1_554 S
N449 C450 1.397 . S
N449 C451 1.334 . S
C450 H431 0.929 . S
C450 C447 1.388 . S
C450 N449 1.397 . S
C451 H432 0.929 1_554 S
C451 C448 1.404 . S
C451 N449 1.334 . S
C452 H444 0.930 . S
C452 C447 1.418 . S
C452 C448 1.353 . S
C453 H423 0.930 . S
C453 N454 1.330 . S
C453 C455 1.446 1_565 S
N454 Co413 2.151 . S
N454 C453 1.330 . S
N454 C458 1.418 1_565 S
C455 H434 0.929 . S
C455 C453 1.446 1_545 S
C455 C456 1.332 . S
C456 H436 0.931 . S
C456 C455 1.332 . S
C456 C457 1.267 . S
C457 H425 0.929 . S
C457 C456 1.267 . S
C457 C458 1.251 . S
C458 H428 0.929 . S
C458 N454 1.418 1_545 S
C458 C457 1.251 . S
C459 H426 0.930 1_655 S
C459 C461 1.406 . S
C459 C464 1.261 1_655 S
C460 H427 0.930 . S
C460 N462 1.325 . S
C460 C463 1.357 . S
C461 H429 0.928 . S
C461 C459 1.406 . S
C461 N462 1.261 . S
N462 Co413 2.214 . S
N462 C460 1.325 . S
N462 C461 1.261 . S
C463 H433 0.931 1_655 S
C463 C460 1.357 . S
C463 C464 1.312 1_655 S
C464 H435 0.930 . S
C464 C459 1.261 1_455 S
C464 C463 1.312 1_455 S
C465 O437 1.214 . S
C465 O445 1.234 . S
C466 H438 0.929 . S
C466 C469 1.391 . S
C466 C471 1.391 . S
C467 H439 0.929 . S
C467 C468 1.390 . S
C467 N470 1.391 . S
C468 H440 0.930 . S
C468 C467 1.390 . S
C468 C469 1.392 . S
C469 H441 0.929 . S
C469 C466 1.391 . S
C469 C468 1.392 . S
N470 Co414 2.257 . S
N470 C467 1.391 . S
N470 C471 1.388 . S
C471 H442 0.930 . S
C471 C466 1.391 . S
C471 N470 1.388 . S
C472 C473 1.369 . S
C472 C474 1.419 1_655 S
C472 H476 0.930 . S
C473 C472 1.369 . S
C473 C482 1.429 . S
C474 C472 1.419 1_455 S
C474 C475 1.363 . S
C474 H477 0.929 . S
C475 C474 1.363 . S
C475 C481 1.428 . S
H476 C472 0.930 . S
H477 C474 0.929 . S
S478 N479 1.613 1_455 S
S478 N480 1.610 . S
N479 S478 1.613 1_655 S
N479 C482 1.350 . S
N480 S478 1.610 . S
N480 C481 1.351 . S
C481 C475 1.428 . S
C481 N480 1.351 . S
C481 C482 1.434 1_455 S
C482 C473 1.429 . S
C482 N479 1.350 . S
C482 C481 1.434 1_655 S
C483 C484 1.369 . S
C483 C485 1.419 1_545 S
C483 H487 0.930 . S
C484 C483 1.369 . S
C484 C493 1.429 . S
C485 C483 1.419 1_565 S
C485 C486 1.363 . S
C485 H488 0.929 . S
C486 C485 1.363 . S
C486 C492 1.428 . S
H487 C483 0.930 . S
H488 C485 0.929 . S
S489 N490 1.613 . S
S489 N491 1.610 1_545 S
N490 S489 1.613 . S
N490 C493 1.350 . S
N491 S489 1.610 1_565 S
N491 C492 1.351 . S
C492 C486 1.428 . S
C492 N491 1.351 . S
C492 C493 1.434 1_565 S
C493 C484 1.429 . S
C493 N490 1.350 . S
C493 C492 1.434 1_545 S
C494 C495 1.369 1_455 S
C494 C496 1.419 . S
C494 H498 0.930 . S
C495 C494 1.369 1_655 S
C495 C504 1.429 . S
C496 C494 1.419 . S
C496 C497 1.363 . S
C496 H499 0.929 . S
C497 C496 1.363 . S
C497 C503 1.428 1_455 S
H498 C494 0.930 . S
H499 C496 0.929 . S
S500 N501 1.613 . S
S500 N502 1.610 . S
N501 S500 1.613 . S
N501 C504 1.350 . S
N502 S500 1.610 . S
N502 C503 1.351 . S
C503 C497 1.428 1_655 S
C503 N502 1.351 . S
C503 C504 1.434 . S
C504 C495 1.429 . S
C504 N501 1.350 . S
C504 C503 1.434 . S
C505 C506 1.369 1_565 S
C505 C507 1.419 . S
C505 H509 0.930 . S
C506 C505 1.369 1_545 S
C506 C515 1.429 . S
C507 C505 1.419 . S
C507 C508 1.363 . S
C507 H510 0.929 . S
C508 C507 1.363 . S
C508 C514 1.428 1_565 S
H509 C505 0.930 . S
H510 C507 0.929 . S
S511 N512 1.613 . S
S511 N513 1.610 . S
N512 S511 1.613 . S
N512 C515 1.350 . S
N513 S511 1.610 . S
N513 C514 1.351 . S
C514 C508 1.428 1_545 S
C514 N513 1.351 . S
C514 C515 1.434 . S
C515 C506 1.429 . S
C515 N512 1.350 . S
C515 C514 1.434 . S
C516 C517 1.369 . S
C516 C518 1.419 . S
C516 H520 0.930 . S
C517 C516 1.369 . S
C517 C526 1.429 . S
C518 C516 1.419 . S
C518 C519 1.363 . S
C518 H521 0.929 . S
C519 C518 1.363 . S
C519 C525 1.428 . S
H520 C516 0.930 . S
H521 C518 0.929 . S
S522 N523 1.613 1_545 S
S522 N524 1.610 . S
N523 S522 1.613 1_565 S
N523 C526 1.350 1_565 S
N524 S522 1.610 . S
N524 C525 1.351 . S
C525 C519 1.428 . S
C525 N524 1.351 . S
C525 C526 1.434 . S
C526 C517 1.429 . S
C526 N523 1.350 1_545 S
C526 C525 1.434 . S
C527 C528 1.369 . S
C527 C529 1.419 . S
C527 H531 0.930 . S
C528 C527 1.369 . S
C528 C537 1.429 . S
C529 C527 1.419 . S
C529 C530 1.363 . S
C529 H532 0.929 . S
C530 C529 1.363 . S
C530 C536 1.428 . S
H531 C527 0.930 . S
H532 C529 0.929 . S
S533 N534 1.613 . S
S533 N535 1.610 . S
N534 S533 1.613 . S
N534 C537 1.350 . S
N535 S533 1.610 . S
N535 C536 1.351 . S
C536 C530 1.428 . S
C536 N535 1.351 . S
C536 C537 1.434 . S
C537 C528 1.429 . S
C537 N534 1.350 . S
C537 C536 1.434 . S
C538 C539 1.369 . S
C538 C540 1.419 . S
C538 H542 0.930 . S
C539 C538 1.369 . S
C539 C548 1.429 . S
C540 C538 1.419 . S
C540 C541 1.363 . S
C540 H543 0.929 . S
C541 C540 1.363 . S
C541 C547 1.428 . S
H542 C538 0.930 . S
H543 C540 0.929 . S
S544 N545 1.613 1_565 S
S544 N546 1.610 . S
N545 S544 1.613 1_545 S
N545 C548 1.350 1_545 S
N546 S544 1.610 . S
N546 C547 1.351 . S
C547 C541 1.428 . S
C547 N546 1.351 . S
C547 C548 1.434 . S
C548 C539 1.429 . S
C548 N545 1.350 1_565 S
C548 C547 1.434 . S
C549 C550 1.369 . S
C549 C551 1.419 . S
C549 H553 0.930 . S
C550 C549 1.369 . S
C550 C559 1.429 . S
C551 C549 1.419 . S
C551 C552 1.363 . S
C551 H554 0.929 . S
C552 C551 1.363 . S
C552 C558 1.428 . S
H553 C549 0.930 . S
H554 C551 0.929 . S
S555 N556 1.613 . S
S555 N557 1.610 . S
N556 S555 1.613 . S
N556 C559 1.350 . S
N557 S555 1.610 . S
N557 C558 1.351 . S
C558 C552 1.428 . S
C558 N557 1.351 . S
C558 C559 1.434 . S
C559 C550 1.429 . S
C559 N556 1.350 . S
C559 C558 1.434 . S
C560 C561 1.369 . S
C560 C562 1.419 . S
C560 H564 0.930 . S
C561 C560 1.369 . S
C561 C570 1.429 1_556 S
C562 C560 1.419 . S
C562 C563 1.363 1_556 S
C562 H565 0.929 . S
C563 C562 1.363 1_554 S
C563 C569 1.428 . S
H564 C560 0.930 . S
H565 C562 0.929 . S
S566 N567 1.618 . S
S566 N568 1.610 . S
N567 S566 1.618 . S
N567 C570 1.360 . S
N568 S566 1.610 . S
N568 C569 1.351 . S
C569 C563 1.428 . S
C569 N568 1.351 . S
C569 C570 1.434 . S
C570 C561 1.429 1_554 S
C570 N567 1.360 . S
C570 C569 1.434 . S
C571 C572 1.369 1_554 S
C571 C573 1.419 . S
C571 H575 0.930 . S
C572 C571 1.369 1_556 S
C572 C581 1.429 . S
C573 C571 1.419 . S
C573 C574 1.363 . S
C573 H576 0.929 . S
C574 C573 1.363 . S
C574 C580 1.428 1_554 S
H575 C571 0.930 . S
H576 C573 0.929 . S
S577 N578 1.613 . S
S577 N579 1.610 1_455 S
N578 S577 1.613 . S
N578 C581 1.350 . S
N579 S577 1.610 1_655 S
N579 C580 1.351 1_655 S
C580 C574 1.428 1_556 S
C580 N579 1.351 1_455 S
C580 C581 1.434 . S
C581 C572 1.429 . S
C581 N578 1.350 . S
C581 C580 1.434 . S
C582 C583 1.369 1_556 S
C582 C584 1.419 . S
C582 H586 0.930 . S
C583 C582 1.369 1_554 S
C583 C592 1.429 . S
C584 C582 1.419 . S
C584 C585 1.363 . S
C584 H587 0.929 . S
C585 C584 1.363 . S
C585 C591 1.428 1_556 S
H586 C582 0.930 . S
H587 C584 0.929 . S
S588 N589 1.613 . S
S588 N590 1.610 . S
N589 S588 1.613 . S
N589 C592 1.350 . S
N590 S588 1.610 . S
N590 C591 1.351 . S
C591 C585 1.428 1_554 S
C591 N590 1.351 . S
C591 C592 1.434 . S
C592 C583 1.429 . S
C592 N589 1.350 . S
C592 C591 1.434 . S
C593 C594 1.369 1_554 S
C593 C595 1.419 . S
C593 H597 0.930 . S
C594 C593 1.369 1_556 S
C594 C603 1.429 . S
C595 C593 1.419 . S
C595 C596 1.363 . S
C595 H598 0.929 . S
C596 C595 1.363 . S
C596 C602 1.428 1_554 S
H597 C593 0.930 . S
H598 C595 0.929 . S
S599 N600 1.613 . S
S599 N601 1.610 . S
N600 S599 1.613 . S
N600 C603 1.350 . S
N601 S599 1.610 . S
N601 C602 1.351 . S
C602 C596 1.428 1_556 S
C602 N601 1.351 . S
C602 C603 1.434 . S
C603 C594 1.429 . S
C603 N600 1.350 . S
C603 C602 1.434 . S
C604 C605 1.369 . S
C604 C606 1.419 . S
C604 H608 0.930 . S
C605 C604 1.369 . S
C605 C614 1.429 . S
C606 C604 1.419 . S
C606 C607 1.363 . S
C606 H609 0.929 . S
C607 C606 1.363 . S
C607 C613 1.428 . S
H608 C604 0.930 . S
H609 C606 0.929 . S
S610 N611 1.613 . S
S610 N612 1.610 . S
N611 S610 1.613 . S
N611 C614 1.350 . S
N612 S610 1.610 . S
N612 C613 1.351 . S
C613 C607 1.428 . S
C613 N612 1.351 . S
C613 C614 1.434 . S
C614 C605 1.429 . S
C614 N611 1.350 . S
C614 C613 1.434 . S
C615 C616 1.369 . S
C615 C617 1.419 . S
C615 H619 0.930 . S
C616 C615 1.369 . S
C616 C625 1.429 . S
C617 C615 1.419 . S
C617 C618 1.363 . S
C617 H620 0.929 . S
C618 C617 1.363 . S
C618 C624 1.428 . S
H619 C615 0.930 . S
H620 C617 0.929 . S
S621 N622 1.613 . S
S621 N623 1.610 . S
N622 S621 1.613 . S
N622 C625 1.350 . S
N623 S621 1.610 . S
N623 C624 1.351 . S
C624 C618 1.428 . S
C624 N623 1.351 . S
C624 C625 1.434 . S
C625 C616 1.429 . S
C625 N622 1.350 . S
C625 C624 1.434 . S
C626 C627 1.369 . S
C626 C628 1.419 . S
C626 H630 0.930 . S
C627 C626 1.369 . S
C627 C636 1.429 . S
C628 C626 1.419 . S
C628 C629 1.363 . S
C628 H631 0.929 . S
C629 C628 1.363 . S
C629 C635 1.428 . S
H630 C626 0.930 . S
H631 C628 0.929 . S
S632 N633 1.613 . S
S632 N634 1.610 . S
N633 S632 1.613 . S
N633 C636 1.350 . S
N634 S632 1.610 . S
N634 C635 1.351 . S
C635 C629 1.428 . S
C635 N634 1.351 . S
C635 C636 1.434 . S
C636 C627 1.429 . S
C636 N633 1.350 . S
C636 C635 1.434 . S
C637 C638 1.369 . S
C637 C639 1.419 . S
C637 H641 0.930 . S
C638 C637 1.369 . S
C638 C647 1.429 . S
C639 C637 1.419 . S
C639 C640 1.363 . S
C639 H642 0.929 . S
C640 C639 1.363 . S
C640 C646 1.428 . S
H641 C637 0.930 . S
H642 C639 0.929 . S
S643 N644 1.613 . S
S643 N645 1.610 . S
N644 S643 1.613 . S
N644 C647 1.350 . S
N645 S643 1.610 . S
N645 C646 1.351 . S
C646 C640 1.428 . S
C646 N645 1.351 . S
C646 C647 1.434 . S
C647 C638 1.429 . S
C647 N644 1.350 . S
C647 C646 1.434 . S
C473 C123 1.524 . S
C475 C5 1.523 . S
C484 C182 1.527 . S
C486 C64 1.522 . S
C495 C241 1.525 . S
C497 C359 1.522 . S
C506 C300 1.528 . S
C508 C418 1.521 . S
C517 C92 1.432 1_545 S
C519 C52 1.413 . S
C528 C111 1.412 . S
C530 C151 1.432 1_455 S
C539 C210 1.432 1_565 S
C541 C170 1.413 . S
C550 C229 1.417 . S
C552 C33 1.432 1_655 S
C561 C446 1.431 1_545 S
C563 C288 1.415 . S
C572 C347 1.415 . S
C574 C269 1.432 1_455 S
C583 C406 1.414 . S
C585 C328 1.432 1_565 S
C594 C465 1.416 . S
C596 C387 1.431 1_655 S
C605 C3 1.604 . S
C607 C298 1.607 . S
C616 C357 1.609 . S
C618 C62 1.607 . S
C627 C121 1.606 . S
C629 C416 1.605 . S
C638 C180 1.607 . S
C640 C239 1.604 . S
