# Generated by pormake.
# Topology mdf, (4)-cn, num edge types: 1
# Building blocks:
#     Node 0, Type 0, BuildingBlock: CEKHIL_clean_sbu_0, # of connection points: 4
#     Node 1, Type 0, BuildingBlock: CEKHIL_clean_sbu_0, # of connection points: 4
#     Node 2, Type 0, BuildingBlock: CEKHIL_clean_sbu_0, # of connection points: 4
#     Node 3, Type 0, BuildingBlock: CEKHIL_clean_sbu_0, # of connection points: 4
#     Node 4, Type 0, BuildingBlock: CEKHIL_clean_sbu_0, # of connection points: 4
#     Node 5, Type 0, BuildingBlock: CEKHIL_clean_sbu_0, # of connection points: 4
#     Node 6, Type 0, BuildingBlock: CEKHIL_clean_sbu_0, # of connection points: 4
#     Node 7, Type 0, BuildingBlock: CEKHIL_clean_sbu_0, # of connection points: 4
#     Edge 8, Type (0, 0), BuildingBlock: CIFDUS_clean_linker_0, # of connection points: 2
#     Edge 9, Type (0, 0), BuildingBlock: CIFDUS_clean_linker_0, # of connection points: 2
#     Edge 10, Type (0, 0), BuildingBlock: CIFDUS_clean_linker_0, # of connection points: 2
#     Edge 11, Type (0, 0), BuildingBlock: CIFDUS_clean_linker_0, # of connection points: 2
#     Edge 12, Type (0, 0), BuildingBlock: CIFDUS_clean_linker_0, # of connection points: 2
#     Edge 13, Type (0, 0), BuildingBlock: CIFDUS_clean_linker_0, # of connection points: 2
#     Edge 14, Type (0, 0), BuildingBlock: CIFDUS_clean_linker_0, # of connection points: 2
#     Edge 15, Type (0, 0), BuildingBlock: CIFDUS_clean_linker_0, # of connection points: 2
#     Edge 16, Type (0, 0), BuildingBlock: CIFDUS_clean_linker_0, # of connection points: 2
#     Edge 17, Type (0, 0), BuildingBlock: CIFDUS_clean_linker_0, # of connection points: 2
#     Edge 18, Type (0, 0), BuildingBlock: CIFDUS_clean_linker_0, # of connection points: 2
#     Edge 19, Type (0, 0), BuildingBlock: CIFDUS_clean_linker_0, # of connection points: 2
#     Edge 20, Type (0, 0), BuildingBlock: CIFDUS_clean_linker_0, # of connection points: 2
#     Edge 21, Type (0, 0), BuildingBlock: CIFDUS_clean_linker_0, # of connection points: 2
#     Edge 22, Type (0, 0), BuildingBlock: CIFDUS_clean_linker_0, # of connection points: 2
#     Edge 23, Type (0, 0), BuildingBlock: CIFDUS_clean_linker_0, # of connection points: 2
# Relax obj value: 0.019
# Max RMSD: 0.044
# Mean RMSD: 0.044
data_MOF--net-mdf--node1-CEKHIL_clean_sbu_0--edge1-CIFDUS_clean_linker_0
_symmetry_space_group_name_H-M    P1
_symmetry_Int_Tables_number       1
_symmetry_cell_setting            triclinic
loop_
_symmetry_equiv_pos_as_xyz
'x, y, z'
_cell_length_a     33.266094
_cell_length_b     33.201222
_cell_length_c     9.9713877
_cell_angle_alpha  89.829212
_cell_angle_beta   90.142827
_cell_angle_gamma 93.144898
loop_
_atom_site_label
_atom_site_type_symbol
_atom_site_fract_x
_atom_site_fract_y
_atom_site_fract_z
_atom_type_partial_charge
Co0 Co 0.26092 0.54306 0.42266 0.0
O1 O 0.21969 0.58107 0.43524 0.0
O2 O 0.24378 0.54713 0.60671 0.0
C3 C 0.30325 0.58138 0.29376 0.0
O4 O 0.30424 0.50293 0.44893 0.0
Co5 Co 0.2818 0.50611 0.14937 0.0
O6 O 0.32799 0.4848 0.24856 0.0
C7 C 0.20765 0.47725 0.28728 0.0
C8 C 0.21931 0.57351 0.56301 0.0
C9 C 0.32935 0.48455 0.37635 0.0
O10 O 0.21893 0.49809 0.39046 0.0
O11 O 0.2268 0.47885 0.17594 0.0
O12 O 0.30241 0.5866 0.42272 0.0
O13 O 0.2759 0.55616 0.24562 0.0
Co14 Co 0.46332 0.75195 0.61035 0.0
O15 O 0.4248 0.79286 0.6202 0.0
O16 O 0.45351 0.77434 0.43256 0.0
C17 C 0.42793 0.70653 0.73788 0.0
O18 O 0.50382 0.70921 0.56666 0.0
Co19 Co 0.50512 0.72762 0.87384 0.0
O20 O 0.52511 0.68365 0.76234 0.0
C21 C 0.53132 0.80372 0.74145 0.0
C22 C 0.42832 0.7972 0.49178 0.0
C23 C 0.52383 0.68364 0.63451 0.0
O24 O 0.50852 0.79386 0.64119 0.0
O25 O 0.53183 0.78302 0.84997 0.0
O26 O 0.42024 0.70986 0.61078 0.0
O27 O 0.45381 0.73324 0.78584 0.0
Co28 Co 0.25064 0.96642 0.89068 0.0
O29 O 0.29095 0.9273 0.88153 0.0
O30 O 0.2729 0.95662 0.06866 0.0
C31 C 0.20491 0.93123 0.76403 0.0
O32 O 0.20847 0.00759 0.93354 0.0
Co33 Co 0.22702 0.0082 0.62656 0.0
O34 O 0.1834 0.02907 0.73741 0.0
C35 C 0.30335 0.03345 0.75777 0.0
C36 C 0.2954 0.931 0.00982 0.0
C37 C 0.18326 0.02789 0.86525 0.0
O38 O 0.29302 0.01111 0.85881 0.0
O39 O 0.28279 0.03398 0.6491 0.0
O40 O 0.20814 0.92377 0.89133 0.0
O41 O 0.23187 0.95675 0.71536 0.0
Co42 Co 0.0441 0.7595 0.08565 0.0
O43 O 0.08205 0.71808 0.07536 0.0
O44 O 0.04831 0.74161 0.90262 0.0
C45 C 0.08217 0.80247 0.21297 0.0
O46 O 1.00412 0.80281 0.05656 0.0
Co47 Co 0.00683 0.78166 0.35712 0.0
O48 O 0.98586 0.82759 0.25532 0.0
C49 C 0.97753 0.70716 0.22138 0.0
C50 C 0.07461 0.71726 0.94752 0.0
C51 C 0.98573 0.82834 0.12748 0.0
O52 O 0.99907 0.71767 0.11896 0.0
O53 O 0.97876 0.7269 0.33163 0.0
O54 O 0.08758 0.80101 0.08418 0.0
O55 O 0.05694 0.77528 0.26217 0.0
Co56 Co 0.76055 0.04317 0.91143 0.0
O57 O 0.71934 0.08125 0.92385 0.0
O58 O 0.74353 0.04742 0.09539 0.0
C59 C 0.80296 0.08121 0.78212 0.0
O60 O 0.80385 1.00308 0.9383 0.0
Co61 Co 0.7813 0.00565 0.63914 0.0
O62 O 0.82751 0.98441 0.73845 0.0
C63 C 0.70734 0.97686 0.77806 0.0
C64 C 0.71908 0.07381 0.05172 0.0
C65 C 0.82893 0.9845 0.86622 0.0
O66 O 0.71856 0.99816 0.88026 0.0
O67 O 0.72645 0.9781 0.66664 0.0
O68 O 0.80204 0.08661 0.91098 0.0
O69 O 0.77556 0.05601 0.73403 0.0
Co70 Co 0.96472 0.25229 0.10523 0.0
O71 O 0.92583 0.2928 0.11643 0.0
O72 O 0.95496 0.27537 0.9283 0.0
C73 C 0.92939 0.20613 0.23015 0.0
O74 O 0.00568 0.21007 0.0605 0.0
Co75 Co 0.00613 0.22735 0.36877 0.0
O76 O 0.02668 0.184 0.2558 0.0
C77 C 0.03198 0.30412 0.24012 0.0
C78 C 0.92947 0.29773 0.9883 0.0
C79 C 0.02573 0.18443 0.12794 0.0
O80 O 0.00953 0.29443 0.13883 0.0
O81 O 0.03237 0.28305 0.34787 0.0
O82 O 0.92193 0.20986 0.10303 0.0
O83 O 0.95499 0.23283 0.27961 0.0
Co84 Co 0.74935 0.46655 0.3946 0.0
O85 O 0.79029 0.42813 0.384 0.0
O86 O 0.77182 0.45658 0.57219 0.0
C87 C 0.70416 0.431 0.26687 0.0
O88 O 0.70656 0.50696 0.43872 0.0
Co89 Co 0.7251 0.50856 0.13149 0.0
O90 O 0.68116 0.52847 0.2431 0.0
C91 C 0.80111 0.53456 0.26337 0.0
C92 C 0.79473 0.43153 0.51237 0.0
C93 C 0.68105 0.52703 0.37092 0.0
O94 O 0.79106 0.51194 0.36401 0.0
O95 O 0.78059 0.53496 0.15459 0.0
O96 O 0.70747 0.42327 0.39397 0.0
O97 O 0.73073 0.45706 0.21905 0.0
Co98 Co 0.54553 0.25955 0.58208 0.0
O99 O 0.58352 0.21827 0.56916 0.0
O100 O 0.54956 0.24248 0.39802 0.0
C101 C 0.58364 0.30203 0.71098 0.0
O102 O 0.50543 0.30292 0.55605 0.0
Co103 Co 0.50861 0.28031 0.85566 0.0
O104 O 0.48725 0.32656 0.75655 0.0
C105 C 0.47948 0.2063 0.71673 0.0
C106 C 0.57594 0.21797 0.4414 0.0
C107 C 0.48701 0.32799 0.62877 0.0
O108 O 0.50062 0.21747 0.61408 0.0
O109 O 0.48096 0.22546 0.82811 0.0
O110 O 0.58894 0.30116 0.58206 0.0
O111 O 0.55854 0.27455 0.75913 0.0
H112 H 0.43099 0.69972 0.00924 0.0
H113 H 0.3738 0.64694 0.65746 0.0
H114 H 0.33157 0.60184 0.79839 0.0
H115 H 0.308 0.58025 0.02186 0.0
H116 H 0.36411 0.63414 0.37372 0.0
H117 H 0.4097 0.67575 0.23265 0.0
C118 C 0.40957 0.67806 0.9635 0.0
C119 C 0.40536 0.67683 0.82333 0.0
C120 C 0.38501 0.65255 0.04517 0.0
C121 C 0.3775 0.64861 0.76531 0.0
C122 C 0.35328 0.62283 0.84578 0.0
C123 C 0.33042 0.60087 0.06757 0.0
C124 C 0.3325 0.6043 0.20784 0.0
C125 C 0.35631 0.625 0.98586 0.0
C126 C 0.36175 0.63109 0.2658 0.0
C127 C 0.38785 0.65492 0.18525 0.0
H128 H 0.42119 0.80899 0.22059 0.0
H129 H 0.37948 0.85109 0.60213 0.0
H130 H 0.33587 0.89705 0.48912 0.0
H131 H 0.30738 0.92414 0.28116 0.0
H132 H 0.34856 0.88141 0.89971 0.0
H133 H 0.39416 0.83748 0.01273 0.0
C134 C 0.40277 0.82841 0.27883 0.0
C135 C 0.40367 0.82638 0.4196 0.0
C136 C 0.37734 0.85482 0.21308 0.0
C137 C 0.37942 0.85179 0.4935 0.0
C138 C 0.35435 0.8782 0.429 0.0
C139 C 0.32652 0.90542 0.22294 0.0
C140 C 0.32433 0.90613 0.08218 0.0
C141 C 0.35274 0.87979 0.28873 0.0
C142 C 0.34938 0.8815 0.00832 0.0
C143 C 0.37559 0.85625 0.07283 0.0
H144 H 0.07964 0.80951 0.48421 0.0
H145 H 0.13543 0.86263 0.13046 0.0
H146 H 0.17633 0.90937 0.26952 0.0
H147 H 0.19925 0.93241 0.49218 0.0
H148 H 0.14458 0.87821 0.84602 0.0
H149 H 0.10005 0.83499 0.70655 0.0
C150 C 0.10052 0.83152 0.43762 0.0
C151 C 0.1047 0.83241 0.29746 0.0
C152 C 0.12423 0.8581 0.51822 0.0
C153 C 0.1318 0.86117 0.23834 0.0
C154 C 0.15523 0.88794 0.31774 0.0
C155 C 0.17728 0.91145 0.53864 0.0
C156 C 0.17538 0.90834 0.67903 0.0
C157 C 0.15213 0.88628 0.45785 0.0
C158 C 0.14677 0.88105 0.73798 0.0
C159 C 0.12133 0.85625 0.65836 0.0
H160 H 0.12709 0.6613 0.01879 0.0
H161 H 0.07096 0.71398 0.67416 0.0
H162 H 0.1099 0.67283 0.52509 0.0
H163 H 0.16164 0.62404 0.49286 0.0
H164 H 0.21814 0.57156 0.83706 0.0
H165 H 0.17704 0.61049 0.9866 0.0
C166 C 0.12321 0.66365 0.91106 0.0
C167 C 0.0963 0.69076 0.85751 0.0
C168 C 0.14578 0.64005 0.82613 0.0
C169 C 0.09149 0.69334 0.71783 0.0
C170 C 0.11379 0.66989 0.63257 0.0
C171 C 0.16486 0.62096 0.60063 0.0
C172 C 0.19299 0.59509 0.6539 0.0
C173 C 0.14129 0.64348 0.68567 0.0
C174 C 0.19667 0.59126 0.79364 0.0
C175 C 0.17325 0.61357 0.87912 0.0
H176 H 0.80801 0.08027 0.50994 0.0
H177 H 0.86426 0.13314 0.86325 0.0
H178 H 0.91044 0.17441 0.72348 0.0
H179 H 0.93218 0.19854 0.50106 0.0
H180 H 0.875 0.14699 0.14742 0.0
H181 H 0.83219 0.10195 0.28691 0.0
C182 C 0.83059 0.10059 0.55621 0.0
C183 C 0.83252 0.10385 0.69656 0.0
C184 C 0.85686 0.12456 0.47519 0.0
C185 C 0.86199 0.13023 0.75526 0.0
C186 C 0.88844 0.15387 0.67547 0.0
C187 C 0.91065 0.17715 0.45456 0.0
C188 C 0.90659 0.17627 0.31436 0.0
C189 C 0.88575 0.15173 0.53536 0.0
C190 C 0.87858 0.14838 0.25536 0.0
C191 C 0.85402 0.12265 0.33501 0.0
H192 H 0.92257 0.31084 0.7176 0.0
H193 H 0.87973 0.35034 0.10097 0.0
H194 H 0.8355 0.39611 0.99009 0.0
H195 H 0.80668 0.42365 0.7834 0.0
H196 H 0.84899 0.38357 0.40004 0.0
H197 H 0.89529 0.33995 0.51104 0.0
C198 C 0.90377 0.32966 0.77672 0.0
C199 C 0.90453 0.32693 0.91736 0.0
C200 C 0.87797 0.35597 0.71217 0.0
C201 C 0.8798 0.35158 0.99239 0.0
C202 C 0.85436 0.37788 0.92911 0.0
C203 C 0.82623 0.40559 0.72435 0.0
C204 C 0.82413 0.40693 0.58364 0.0
C205 C 0.85285 0.38013 0.78895 0.0
C206 C 0.84971 0.38315 0.50866 0.0
C207 C 0.87633 0.35807 0.57201 0.0
H208 H 0.69881 0.43269 0.99503 0.0
H209 H 0.64461 0.37678 0.34687 0.0
H210 H 0.60089 0.33321 0.20575 0.0
H211 H 0.581 0.3081 0.98248 0.0
H212 H 0.63635 0.36295 0.63075 0.0
H213 H 0.67653 0.40983 0.77154 0.0
C214 C 0.67712 0.41128 0.04071 0.0
C215 C 0.67509 0.40781 0.181 0.0
C216 C 0.65245 0.38592 0.95898 0.0
C217 C 0.64687 0.37992 0.23893 0.0
C218 C 0.6219 0.35492 0.15836 0.0
C219 C 0.60164 0.33051 0.93671 0.0
C220 C 0.60589 0.33187 0.7966 0.0
C221 C 0.62491 0.35718 0.0183 0.0
C222 C 0.63267 0.36113 0.73856 0.0
C223 C 0.65568 0.38798 0.81895 0.0
H224 H 0.66233 0.12563 0.98285 0.0
H225 H 0.71755 0.0709 0.32544 0.0
H226 H 0.67688 0.10984 0.47616 0.0
H227 H 0.62764 0.16112 0.51013 0.0
H228 H 0.57268 0.21615 0.16764 0.0
H229 H 0.61127 0.17514 0.01688 0.0
C230 C 0.66536 0.12207 0.0905 0.0
C231 C 0.693 0.09554 0.14298 0.0
C232 C 0.64203 0.14461 0.17633 0.0
C233 C 0.69645 0.09111 0.28259 0.0
C234 C 0.67329 0.11342 0.36878 0.0
C235 C 0.62395 0.16404 0.40249 0.0
C236 C 0.59746 0.19173 0.35005 0.0
C237 C 0.64628 0.14051 0.31667 0.0
C238 C 0.59287 0.19503 0.21046 0.0
C239 C 0.61498 0.17166 0.12425 0.0
H240 H 0.38429 0.43789 0.25947 0.0
H241 H 0.34285 0.47681 0.64594 0.0
H242 H 0.38954 0.43352 0.75749 0.0
H243 H 0.43939 0.38206 0.74583 0.0
H244 H 0.47997 0.34225 0.35937 0.0
H245 H 0.43642 0.38873 0.24788 0.0
C246 C 0.38557 0.43718 0.36813 0.0
C247 C 0.35976 0.46044 0.44387 0.0
C248 C 0.41225 0.41194 0.43192 0.0
C249 C 0.36211 0.45912 0.58473 0.0
C250 C 0.38882 0.43433 0.64883 0.0
C251 C 0.439 0.38366 0.63719 0.0
C252 C 0.46279 0.35836 0.56141 0.0
C253 C 0.4136 0.41019 0.57344 0.0
C254 C 0.46186 0.36111 0.4206 0.0
C255 C 0.43692 0.3877 0.35653 0.0
H256 H 0.66111 0.94117 0.58054 0.0
H257 H 0.67452 0.94715 0.01094 0.0
H258 H 0.62027 0.89539 0.03805 0.0
H259 H 0.57143 0.84574 0.93966 0.0
H260 H 0.55641 0.84116 0.50966 0.0
H261 H 0.60851 0.89517 0.48284 0.0
C262 C 0.65203 0.93128 0.68027 0.0
C263 C 0.67217 0.9478 0.79331 0.0
C264 C 0.62052 0.90165 0.69547 0.0
C265 C 0.65961 0.93501 0.92196 0.0
C266 C 0.62863 0.90526 0.93773 0.0
C267 C 0.57938 0.85669 0.84009 0.0
C268 C 0.56025 0.83907 0.72696 0.0
C269 C 0.60926 0.88797 0.82518 0.0
C270 C 0.57059 0.85408 0.59873 0.0
C271 C 0.60055 0.8849 0.58309 0.0
H272 H 0.07369 0.12925 0.23995 0.0
H273 H 0.03453 0.17361 0.85607 0.0
H274 H 0.07858 0.12801 0.74247 0.0
H275 H 0.12982 0.07764 0.75226 0.0
H276 H 0.16997 0.03439 0.13643 0.0
H277 H 0.12358 0.07765 0.24963 0.0
C278 C 0.07447 0.12898 0.13126 0.0
C279 C 0.05068 0.15519 0.05696 0.0
C280 C 0.10016 0.10297 0.06665 0.0
C281 C 0.05238 0.15402 0.91619 0.0
C282 C 0.07765 0.12794 0.85112 0.0
C283 C 0.12845 0.07737 0.8609 0.0
C284 C 0.15371 0.05265 0.93546 0.0
C285 C 0.10194 0.10259 0.92539 0.0
C286 C 0.15117 0.053 0.07614 0.0
C287 C 0.12461 0.07781 0.141 0.0
H288 H 0.93907 0.66399 0.42096 0.0
H289 H 0.94977 0.67163 0.99002 0.0
H290 H 0.89723 0.61805 0.96482 0.0
H291 H 0.84555 0.57151 0.0644 0.0
H292 H 0.83634 0.56223 0.49526 0.0
H293 H 0.89102 0.61368 0.52077 0.0
C294 C 0.93007 0.6538 0.32154 0.0
C295 C 0.94813 0.67217 0.20772 0.0
C296 C 0.89995 0.62271 0.30749 0.0
C297 C 0.93642 0.65815 0.07962 0.0
C298 C 0.90623 0.62755 0.0649 0.0
C299 C 0.85564 0.5806 0.16387 0.0
C300 C 0.83658 0.56327 0.27757 0.0
C301 C 0.88736 0.61003 0.17804 0.0
C302 C 0.85044 0.57502 0.40582 0.0
C303 C 0.88164 0.60459 0.42065 0.0
H304 H 0.34667 0.07167 0.55838 0.0
H305 H 0.34058 0.059 0.98903 0.0
H306 H 0.39555 0.1101 0.01449 0.0
H307 H 0.44275 0.1613 0.91532 0.0
H308 H 0.45025 0.17251 0.48447 0.0
H309 H 0.39766 0.11897 0.45873 0.0
C310 C 0.35751 0.07992 0.65779 0.0
C311 C 0.33917 0.06177 0.77149 0.0
C312 C 0.38936 0.10921 0.67194 0.0
C313 C 0.35403 0.07245 0.89955 0.0
C314 C 0.38542 0.10182 0.9144 0.0
C315 C 0.43304 0.15189 0.81577 0.0
C316 C 0.45019 0.17126 0.70221 0.0
C317 C 0.40289 0.12086 0.80141 0.0
C318 C 0.43761 0.15823 0.57386 0.0
C319 C 0.40738 0.12767 0.55887 0.0
H320 H 0.88255 0.93587 0.75149 0.0
H321 H 0.84383 0.97934 0.13558 0.0
H322 H 0.89053 0.93659 0.24935 0.0
H323 H 0.93957 0.88433 0.24082 0.0
H324 H 0.97748 0.83995 0.857 0.0
H325 H 0.93398 0.88589 0.74266 0.0
C326 C 0.88445 0.93628 0.86007 0.0
C327 C 0.85937 0.96064 0.93457 0.0
C328 C 0.91113 0.91134 0.92521 0.0
C329 C 0.86248 0.96075 0.07534 0.0
C330 C 0.88921 0.93627 0.14072 0.0
C331 C 0.93861 0.88481 0.13211 0.0
C332 C 0.96163 0.85839 0.05799 0.0
C333 C 0.91324 0.91103 0.06676 0.0
C334 C 0.95999 0.85971 0.91702 0.0
C335 C 0.93506 0.88598 0.85131 0.0
H336 H 0.07116 0.34583 0.44099 0.0
H337 H 0.05759 0.34234 0.01037 0.0
H338 H 0.10962 0.39655 0.98688 0.0
H339 H 0.16187 0.44225 0.08758 0.0
H340 H 0.17398 0.44713 0.51853 0.0
H341 H 0.11958 0.39535 0.54246 0.0
C342 C 0.0794 0.35707 0.34202 0.0
C343 C 0.06072 0.33968 0.22772 0.0
C344 C 0.10926 0.38845 0.32903 0.0
C345 C 0.07143 0.35508 0.10029 0.0
C346 C 0.10134 0.38601 0.08656 0.0
C347 C 0.15248 0.43213 0.18676 0.0
C348 C 0.17233 0.4483 0.30087 0.0
C349 C 0.12092 0.40248 0.20009 0.0
C350 C 0.15933 0.43523 0.42877 0.0
C351 C 0.12827 0.40548 0.4427 0.0
H352 H 0.57239 0.629 0.74682 0.0
H353 H 0.5311 0.67137 0.36295 0.0
H354 H 0.57465 0.62534 0.24924 0.0
H355 H 0.62628 0.57543 0.25866 0.0
H356 H 0.66871 0.5342 0.64252 0.0
H357 H 0.6225 0.57754 0.75623 0.0
C358 C 0.57259 0.62818 0.63813 0.0
C359 C 0.54839 0.654 0.56382 0.0
C360 C 0.59802 0.60193 0.5734 0.0
C361 C 0.54931 0.65213 0.42306 0.0
C362 C 0.5743 0.62579 0.35792 0.0
C363 C 0.62545 0.5756 0.36735 0.0
C364 C 0.65133 0.55147 0.44165 0.0
C365 C 0.59908 0.6009 0.43209 0.0
C366 C 0.64942 0.55235 0.58241 0.0
C367 C 0.62297 0.57722 0.64756 0.0
loop_
_geom_bond_atom_site_label_1
_geom_bond_atom_site_label_2
_geom_bond_distance
_geom_bond_site_symmetry_2
_ccdc_geom_bond_type
Co0 O1 2.216 . S
Co0 O2 2.091 . S
Co0 O4 2.004 . S
Co0 O10 2.021 . S
Co0 O12 2.137 . S
Co0 O13 2.244 . S
O1 Co0 2.216 . S
O1 C8 1.247 . S
O2 Co0 2.091 . S
O2 C8 1.261 . S
C3 O12 1.247 . S
C3 O13 1.272 . S
O4 Co0 2.004 . S
O4 C9 1.259 . S
Co5 O6 2.061 . S
Co5 O11 2.052 . S
Co5 O13 2.135 . S
O6 Co5 2.061 . S
O6 C9 1.235 . S
C7 O10 1.238 . S
C7 O11 1.241 . S
C8 O1 1.247 . S
C8 O2 1.261 . S
C9 O4 1.259 . S
C9 O6 1.235 . S
O10 Co0 2.021 . S
O10 C7 1.238 . S
O11 Co5 2.052 . S
O11 C7 1.241 . S
O12 Co0 2.137 . S
O12 C3 1.247 . S
O13 Co0 2.244 . S
O13 C3 1.272 . S
O13 Co5 2.135 . S
Co14 O15 2.216 . S
Co14 O16 2.091 . S
Co14 O18 2.004 . S
Co14 O24 2.021 . S
Co14 O26 2.137 . S
Co14 O27 2.244 . S
O15 Co14 2.216 . S
O15 C22 1.247 . S
O16 Co14 2.091 . S
O16 C22 1.261 . S
C17 O26 1.247 . S
C17 O27 1.272 . S
O18 Co14 2.004 . S
O18 C23 1.259 . S
Co19 O20 2.061 . S
Co19 O25 2.052 . S
Co19 O27 2.135 . S
O20 Co19 2.061 . S
O20 C23 1.235 . S
C21 O24 1.238 . S
C21 O25 1.241 . S
C22 O15 1.247 . S
C22 O16 1.261 . S
C23 O18 1.259 . S
C23 O20 1.235 . S
O24 Co14 2.021 . S
O24 C21 1.238 . S
O25 Co19 2.052 . S
O25 C21 1.241 . S
O26 Co14 2.137 . S
O26 C17 1.247 . S
O27 Co14 2.244 . S
O27 C17 1.272 . S
O27 Co19 2.135 . S
Co28 O29 2.216 . S
Co28 O30 2.091 1_556 S
Co28 O32 2.004 1_565 S
Co28 O38 2.021 1_565 S
Co28 O40 2.137 . S
Co28 O41 2.244 . S
O29 Co28 2.216 . S
O29 C36 1.247 1_556 S
O30 Co28 2.091 1_554 S
O30 C36 1.261 . S
C31 O40 1.247 . S
C31 O41 1.272 . S
O32 Co28 2.004 1_545 S
O32 C37 1.259 . S
Co33 O34 2.061 . S
Co33 O39 2.052 . S
Co33 O41 2.135 1_545 S
O34 Co33 2.061 . S
O34 C37 1.235 . S
C35 O38 1.238 . S
C35 O39 1.241 . S
C36 O29 1.247 1_554 S
C36 O30 1.261 . S
C37 O32 1.259 . S
C37 O34 1.235 . S
O38 Co28 2.021 1_545 S
O38 C35 1.238 . S
O39 Co33 2.052 . S
O39 C35 1.241 . S
O40 Co28 2.137 . S
O40 C31 1.247 . S
O41 Co28 2.244 . S
O41 C31 1.272 . S
O41 Co33 2.135 1_565 S
Co42 O43 2.216 . S
Co42 O44 2.091 1_554 S
Co42 O46 2.004 1_455 S
Co42 O52 2.021 1_455 S
Co42 O54 2.137 . S
Co42 O55 2.244 . S
O43 Co42 2.216 . S
O43 C50 1.247 1_554 S
O44 Co42 2.091 1_556 S
O44 C50 1.261 . S
C45 O54 1.247 . S
C45 O55 1.272 . S
O46 Co42 2.004 1_655 S
O46 C51 1.259 . S
Co47 O48 2.061 . S
Co47 O53 2.052 . S
Co47 O55 2.135 1_655 S
O48 Co47 2.061 . S
O48 C51 1.235 . S
C49 O52 1.238 . S
C49 O53 1.241 . S
C50 O43 1.247 1_556 S
C50 O44 1.261 . S
C51 O46 1.259 . S
C51 O48 1.235 . S
O52 Co42 2.021 1_655 S
O52 C49 1.238 . S
O53 Co47 2.052 . S
O53 C49 1.241 . S
O54 Co42 2.137 . S
O54 C45 1.247 . S
O55 Co42 2.244 . S
O55 C45 1.272 . S
O55 Co47 2.135 1_455 S
Co56 O57 2.216 . S
Co56 O58 2.091 1_556 S
Co56 O60 2.004 1_545 S
Co56 O66 2.021 1_545 S
Co56 O68 2.137 . S
Co56 O69 2.244 . S
O57 Co56 2.216 . S
O57 C64 1.247 1_556 S
O58 Co56 2.091 1_554 S
O58 C64 1.261 . S
C59 O68 1.247 . S
C59 O69 1.272 . S
O60 Co56 2.004 1_565 S
O60 C65 1.259 . S
Co61 O62 2.061 . S
Co61 O67 2.052 . S
Co61 O69 2.135 1_565 S
O62 Co61 2.061 . S
O62 C65 1.235 . S
C63 O66 1.238 . S
C63 O67 1.241 . S
C64 O57 1.247 1_554 S
C64 O58 1.261 . S
C65 O60 1.259 . S
C65 O62 1.235 . S
O66 Co56 2.021 1_565 S
O66 C63 1.238 . S
O67 Co61 2.052 . S
O67 C63 1.241 . S
O68 Co56 2.137 . S
O68 C59 1.247 . S
O69 Co56 2.244 . S
O69 C59 1.272 . S
O69 Co61 2.135 1_545 S
Co70 O71 2.216 . S
Co70 O72 2.091 1_554 S
Co70 O74 2.004 1_655 S
Co70 O80 2.021 1_655 S
Co70 O82 2.137 . S
Co70 O83 2.244 . S
O71 Co70 2.216 . S
O71 C78 1.247 1_554 S
O72 Co70 2.091 1_556 S
O72 C78 1.261 . S
C73 O82 1.247 . S
C73 O83 1.272 . S
O74 Co70 2.004 1_455 S
O74 C79 1.259 . S
Co75 O76 2.061 . S
Co75 O81 2.052 . S
Co75 O83 2.135 1_455 S
O76 Co75 2.061 . S
O76 C79 1.235 . S
C77 O80 1.238 . S
C77 O81 1.241 . S
C78 O71 1.247 1_556 S
C78 O72 1.261 . S
C79 O74 1.259 . S
C79 O76 1.235 . S
O80 Co70 2.021 1_455 S
O80 C77 1.238 . S
O81 Co75 2.052 . S
O81 C77 1.241 . S
O82 Co70 2.137 . S
O82 C73 1.247 . S
O83 Co70 2.244 . S
O83 C73 1.272 . S
O83 Co75 2.135 1_655 S
Co84 O85 2.216 . S
Co84 O86 2.091 . S
Co84 O88 2.004 . S
Co84 O94 2.021 . S
Co84 O96 2.137 . S
Co84 O97 2.244 . S
O85 Co84 2.216 . S
O85 C92 1.247 . S
O86 Co84 2.091 . S
O86 C92 1.261 . S
C87 O96 1.247 . S
C87 O97 1.272 . S
O88 Co84 2.004 . S
O88 C93 1.259 . S
Co89 O90 2.061 . S
Co89 O95 2.052 . S
Co89 O97 2.135 . S
O90 Co89 2.061 . S
O90 C93 1.235 . S
C91 O94 1.238 . S
C91 O95 1.241 . S
C92 O85 1.247 . S
C92 O86 1.261 . S
C93 O88 1.259 . S
C93 O90 1.235 . S
O94 Co84 2.021 . S
O94 C91 1.238 . S
O95 Co89 2.052 . S
O95 C91 1.241 . S
O96 Co84 2.137 . S
O96 C87 1.247 . S
O97 Co84 2.244 . S
O97 C87 1.272 . S
O97 Co89 2.135 . S
Co98 O99 2.216 . S
Co98 O100 2.091 . S
Co98 O102 2.004 . S
Co98 O108 2.021 . S
Co98 O110 2.137 . S
Co98 O111 2.244 . S
O99 Co98 2.216 . S
O99 C106 1.247 . S
O100 Co98 2.091 . S
O100 C106 1.261 . S
C101 O110 1.247 . S
C101 O111 1.272 . S
O102 Co98 2.004 . S
O102 C107 1.259 . S
Co103 O104 2.061 . S
Co103 O109 2.052 . S
Co103 O111 2.135 . S
O104 Co103 2.061 . S
O104 C107 1.235 . S
C105 O108 1.238 . S
C105 O109 1.241 . S
C106 O99 1.247 . S
C106 O100 1.261 . S
C107 O102 1.259 . S
C107 O104 1.235 . S
O108 Co98 2.021 . S
O108 C105 1.238 . S
O109 Co103 2.052 . S
O109 C105 1.241 . S
O110 Co98 2.137 . S
O110 C101 1.247 . S
O111 Co98 2.244 . S
O111 C101 1.272 . S
O111 Co103 2.135 . S
H112 C118 0.930 . S
H113 C121 0.930 . S
H114 C122 0.930 . S
H115 C123 0.930 . S
H116 C126 0.930 . S
H117 C127 0.930 . S
C118 H112 0.930 . S
C118 C119 1.355 . S
C118 C120 1.415 1_556 S
C119 C118 1.355 . S
C119 C121 1.419 . S
C120 C118 1.415 1_554 S
C120 C125 1.425 1_554 S
C120 C127 1.409 . S
C121 H113 0.930 . S
C121 C119 1.419 . S
C121 C122 1.362 . S
C122 H114 0.930 . S
C122 C121 1.362 . S
C122 C125 1.409 . S
C123 H115 0.930 . S
C123 C124 1.355 . S
C123 C125 1.415 1_554 S
C124 C123 1.355 . S
C124 C126 1.419 . S
C125 C120 1.425 1_556 S
C125 C122 1.409 . S
C125 C123 1.415 1_556 S
C126 H116 0.930 . S
C126 C124 1.419 . S
C126 C127 1.362 . S
C127 H117 0.930 . S
C127 C120 1.409 . S
C127 C126 1.362 . S
H128 C134 0.930 . S
H129 C137 0.930 . S
H130 C138 0.930 . S
H131 C139 0.930 . S
H132 C142 0.930 1_556 S
H133 C143 0.930 . S
C134 H128 0.930 . S
C134 C135 1.355 . S
C134 C136 1.415 . S
C135 C134 1.355 . S
C135 C137 1.419 . S
C136 C134 1.415 . S
C136 C141 1.425 . S
C136 C143 1.409 . S
C137 H129 0.930 . S
C137 C135 1.419 . S
C137 C138 1.362 . S
C138 H130 0.930 . S
C138 C137 1.362 . S
C138 C141 1.409 . S
C139 H131 0.930 . S
C139 C140 1.355 . S
C139 C141 1.415 . S
C140 C139 1.355 . S
C140 C142 1.419 . S
C141 C136 1.425 . S
C141 C138 1.409 . S
C141 C139 1.415 . S
C142 H132 0.930 1_554 S
C142 C140 1.419 . S
C142 C143 1.362 . S
C143 H133 0.930 . S
C143 C136 1.409 . S
C143 C142 1.362 . S
H144 C150 0.930 . S
H145 C153 0.930 . S
H146 C154 0.930 . S
H147 C155 0.930 . S
H148 C158 0.930 . S
H149 C159 0.930 . S
C150 H144 0.930 . S
C150 C151 1.355 . S
C150 C152 1.415 . S
C151 C150 1.355 . S
C151 C153 1.419 . S
C152 C150 1.415 . S
C152 C157 1.425 . S
C152 C159 1.409 . S
C153 H145 0.930 . S
C153 C151 1.419 . S
C153 C154 1.362 . S
C154 H146 0.930 . S
C154 C153 1.362 . S
C154 C157 1.409 . S
C155 H147 0.930 . S
C155 C156 1.355 . S
C155 C157 1.415 . S
C156 C155 1.355 . S
C156 C158 1.419 . S
C157 C152 1.425 . S
C157 C154 1.409 . S
C157 C155 1.415 . S
C158 H148 0.930 . S
C158 C156 1.419 . S
C158 C159 1.362 . S
C159 H149 0.930 . S
C159 C152 1.409 . S
C159 C158 1.362 . S
H160 C166 0.930 . S
H161 C169 0.930 . S
H162 C170 0.930 . S
H163 C171 0.930 . S
H164 C174 0.930 . S
H165 C175 0.930 . S
C166 H160 0.930 . S
C166 C167 1.355 . S
C166 C168 1.415 . S
C167 C166 1.355 . S
C167 C169 1.419 . S
C168 C166 1.415 . S
C168 C173 1.425 . S
C168 C175 1.409 . S
C169 H161 0.930 . S
C169 C167 1.419 . S
C169 C170 1.362 . S
C170 H162 0.930 . S
C170 C169 1.362 . S
C170 C173 1.409 . S
C171 H163 0.930 . S
C171 C172 1.355 . S
C171 C173 1.415 . S
C172 C171 1.355 . S
C172 C174 1.419 . S
C173 C168 1.425 . S
C173 C170 1.409 . S
C173 C171 1.415 . S
C174 H164 0.930 . S
C174 C172 1.419 . S
C174 C175 1.362 . S
C175 H165 0.930 . S
C175 C168 1.409 . S
C175 C174 1.362 . S
H176 C182 0.930 . S
H177 C185 0.930 . S
H178 C186 0.930 . S
H179 C187 0.930 . S
H180 C190 0.930 . S
H181 C191 0.930 . S
C182 H176 0.930 . S
C182 C183 1.355 . S
C182 C184 1.415 . S
C183 C182 1.355 . S
C183 C185 1.419 . S
C184 C182 1.415 . S
C184 C189 1.425 . S
C184 C191 1.409 . S
C185 H177 0.930 . S
C185 C183 1.419 . S
C185 C186 1.362 . S
C186 H178 0.930 . S
C186 C185 1.362 . S
C186 C189 1.409 . S
C187 H179 0.930 . S
C187 C188 1.355 . S
C187 C189 1.415 . S
C188 C187 1.355 . S
C188 C190 1.419 . S
C189 C184 1.425 . S
C189 C186 1.409 . S
C189 C187 1.415 . S
C190 H180 0.930 . S
C190 C188 1.419 . S
C190 C191 1.362 . S
C191 H181 0.930 . S
C191 C184 1.409 . S
C191 C190 1.362 . S
H192 C198 0.930 . S
H193 C201 0.930 1_554 S
H194 C202 0.930 . S
H195 C203 0.930 . S
H196 C206 0.930 . S
H197 C207 0.930 . S
C198 H192 0.930 . S
C198 C199 1.355 . S
C198 C200 1.415 . S
C199 C198 1.355 . S
C199 C201 1.419 . S
C200 C198 1.415 . S
C200 C205 1.425 . S
C200 C207 1.409 . S
C201 H193 0.930 1_556 S
C201 C199 1.419 . S
C201 C202 1.362 . S
C202 H194 0.930 . S
C202 C201 1.362 . S
C202 C205 1.409 . S
C203 H195 0.930 . S
C203 C204 1.355 . S
C203 C205 1.415 . S
C204 C203 1.355 . S
C204 C206 1.419 . S
C205 C200 1.425 . S
C205 C202 1.409 . S
C205 C203 1.415 . S
C206 H196 0.930 . S
C206 C204 1.419 . S
C206 C207 1.362 . S
C207 H197 0.930 . S
C207 C200 1.409 . S
C207 C206 1.362 . S
H208 C214 0.930 . S
H209 C217 0.930 . S
H210 C218 0.930 . S
H211 C219 0.930 . S
H212 C222 0.930 . S
H213 C223 0.930 . S
C214 H208 0.930 . S
C214 C215 1.355 . S
C214 C216 1.415 1_554 S
C215 C214 1.355 . S
C215 C217 1.419 . S
C216 C214 1.415 1_556 S
C216 C221 1.425 1_556 S
C216 C223 1.409 . S
C217 H209 0.930 . S
C217 C215 1.419 . S
C217 C218 1.362 . S
C218 H210 0.930 . S
C218 C217 1.362 . S
C218 C221 1.409 . S
C219 H211 0.930 . S
C219 C220 1.355 . S
C219 C221 1.415 1_556 S
C220 C219 1.355 . S
C220 C222 1.419 . S
C221 C216 1.425 1_554 S
C221 C218 1.409 . S
C221 C219 1.415 1_554 S
C222 H212 0.930 . S
C222 C220 1.419 . S
C222 C223 1.362 . S
C223 H213 0.930 . S
C223 C216 1.409 . S
C223 C222 1.362 . S
H224 C230 0.930 . S
H225 C233 0.930 . S
H226 C234 0.930 . S
H227 C235 0.930 . S
H228 C238 0.930 . S
H229 C239 0.930 . S
C230 H224 0.930 . S
C230 C231 1.355 . S
C230 C232 1.415 . S
C231 C230 1.355 . S
C231 C233 1.419 . S
C232 C230 1.415 . S
C232 C237 1.425 . S
C232 C239 1.409 . S
C233 H225 0.930 . S
C233 C231 1.419 . S
C233 C234 1.362 . S
C234 H226 0.930 . S
C234 C233 1.362 . S
C234 C237 1.409 . S
C235 H227 0.930 . S
C235 C236 1.355 . S
C235 C237 1.415 . S
C236 C235 1.355 . S
C236 C238 1.419 . S
C237 C232 1.425 . S
C237 C234 1.409 . S
C237 C235 1.415 . S
C238 H228 0.930 . S
C238 C236 1.419 . S
C238 C239 1.362 . S
C239 H229 0.930 . S
C239 C232 1.409 . S
C239 C238 1.362 . S
H240 C246 0.930 . S
H241 C249 0.930 . S
H242 C250 0.930 . S
H243 C251 0.930 . S
H244 C254 0.930 . S
H245 C255 0.930 . S
C246 H240 0.930 . S
C246 C247 1.355 . S
C246 C248 1.415 . S
C247 C246 1.355 . S
C247 C249 1.419 . S
C248 C246 1.415 . S
C248 C253 1.425 . S
C248 C255 1.409 . S
C249 H241 0.930 . S
C249 C247 1.419 . S
C249 C250 1.362 . S
C250 H242 0.930 . S
C250 C249 1.362 . S
C250 C253 1.409 . S
C251 H243 0.930 . S
C251 C252 1.355 . S
C251 C253 1.415 . S
C252 C251 1.355 . S
C252 C254 1.419 . S
C253 C248 1.425 . S
C253 C250 1.409 . S
C253 C251 1.415 . S
C254 H244 0.930 . S
C254 C252 1.419 . S
C254 C255 1.362 . S
C255 H245 0.930 . S
C255 C248 1.409 . S
C255 C254 1.362 . S
H256 C262 0.930 . S
H257 C265 0.930 . S
H258 C266 0.930 . S
H259 C267 0.930 . S
H260 C270 0.930 . S
H261 C271 0.930 . S
C262 H256 0.930 . S
C262 C263 1.355 . S
C262 C264 1.415 . S
C263 C262 1.355 . S
C263 C265 1.419 . S
C264 C262 1.415 . S
C264 C269 1.425 . S
C264 C271 1.409 . S
C265 H257 0.930 . S
C265 C263 1.419 . S
C265 C266 1.362 . S
C266 H258 0.930 . S
C266 C265 1.362 . S
C266 C269 1.409 . S
C267 H259 0.930 . S
C267 C268 1.355 . S
C267 C269 1.415 . S
C268 C267 1.355 . S
C268 C270 1.419 . S
C269 C264 1.425 . S
C269 C266 1.409 . S
C269 C267 1.415 . S
C270 H260 0.930 . S
C270 C268 1.419 . S
C270 C271 1.362 . S
C271 H261 0.930 . S
C271 C264 1.409 . S
C271 C270 1.362 . S
H272 C278 0.928 1_556 S
H273 C281 0.930 . S
H274 C282 0.930 . S
H275 C283 0.928 1_554 S
H276 C286 0.930 . S
H277 C287 0.930 . S
C278 H272 0.928 1_554 S
C278 C279 1.356 . S
C278 C280 1.414 1_554 S
C279 C278 1.356 . S
C279 C281 1.419 . S
C280 C278 1.414 1_556 S
C280 C285 1.425 1_556 S
C280 C287 1.409 . S
C281 H273 0.930 . S
C281 C279 1.419 . S
C281 C282 1.362 . S
C282 H274 0.930 . S
C282 C281 1.362 . S
C282 C285 1.409 . S
C283 H275 0.928 1_556 S
C283 C284 1.356 . S
C283 C285 1.414 1_556 S
C284 C283 1.356 . S
C284 C286 1.419 . S
C285 C280 1.425 1_554 S
C285 C282 1.409 . S
C285 C283 1.414 1_554 S
C286 H276 0.930 . S
C286 C284 1.419 . S
C286 C287 1.362 . S
C287 H277 0.930 . S
C287 C280 1.409 . S
C287 C286 1.362 . S
H288 C294 0.930 . S
H289 C297 0.930 . S
H290 C298 0.930 . S
H291 C299 0.930 . S
H292 C302 0.930 . S
H293 C303 0.930 . S
C294 H288 0.930 . S
C294 C295 1.355 . S
C294 C296 1.415 . S
C295 C294 1.355 . S
C295 C297 1.419 . S
C296 C294 1.415 . S
C296 C301 1.425 . S
C296 C303 1.409 . S
C297 H289 0.930 . S
C297 C295 1.419 . S
C297 C298 1.362 . S
C298 H290 0.930 . S
C298 C297 1.362 . S
C298 C301 1.409 . S
C299 H291 0.930 . S
C299 C300 1.355 . S
C299 C301 1.415 . S
C300 C299 1.355 . S
C300 C302 1.419 . S
C301 C296 1.425 . S
C301 C298 1.409 . S
C301 C299 1.415 . S
C302 H292 0.930 . S
C302 C300 1.419 . S
C302 C303 1.362 . S
C303 H293 0.930 . S
C303 C296 1.409 . S
C303 C302 1.362 . S
H304 C310 0.930 . S
H305 C313 0.930 . S
H306 C314 0.930 . S
H307 C315 0.930 . S
H308 C318 0.930 . S
H309 C319 0.930 . S
C310 H304 0.930 . S
C310 C311 1.355 . S
C310 C312 1.415 . S
C311 C310 1.355 . S
C311 C313 1.419 . S
C312 C310 1.415 . S
C312 C317 1.425 . S
C312 C319 1.409 . S
C313 H305 0.930 . S
C313 C311 1.419 . S
C313 C314 1.362 . S
C314 H306 0.930 . S
C314 C313 1.362 . S
C314 C317 1.409 . S
C315 H307 0.930 . S
C315 C316 1.355 . S
C315 C317 1.415 . S
C316 C315 1.355 . S
C316 C318 1.419 . S
C317 C312 1.425 . S
C317 C314 1.409 . S
C317 C315 1.415 . S
C318 H308 0.930 . S
C318 C316 1.419 . S
C318 C319 1.362 . S
C319 H309 0.930 . S
C319 C312 1.409 . S
C319 C318 1.362 . S
H320 C326 0.930 . S
H321 C329 0.930 . S
H322 C330 0.930 . S
H323 C331 0.930 . S
H324 C334 0.930 . S
H325 C335 0.930 . S
C326 H320 0.930 . S
C326 C327 1.355 . S
C326 C328 1.415 . S
C327 C326 1.355 . S
C327 C329 1.419 1_556 S
C328 C326 1.415 . S
C328 C333 1.425 1_556 S
C328 C335 1.409 . S
C329 H321 0.930 . S
C329 C327 1.419 1_554 S
C329 C330 1.362 . S
C330 H322 0.930 . S
C330 C329 1.362 . S
C330 C333 1.409 . S
C331 H323 0.930 . S
C331 C332 1.355 . S
C331 C333 1.415 . S
C332 C331 1.355 . S
C332 C334 1.419 1_554 S
C333 C328 1.425 1_554 S
C333 C330 1.409 . S
C333 C331 1.415 . S
C334 H324 0.930 . S
C334 C332 1.419 1_556 S
C334 C335 1.362 . S
C335 H325 0.930 . S
C335 C328 1.409 . S
C335 C334 1.362 . S
H336 C342 0.930 . S
H337 C345 0.930 . S
H338 C346 0.930 . S
H339 C347 0.930 . S
H340 C350 0.930 . S
H341 C351 0.930 . S
C342 H336 0.930 . S
C342 C343 1.355 . S
C342 C344 1.415 . S
C343 C342 1.355 . S
C343 C345 1.419 . S
C344 C342 1.415 . S
C344 C349 1.425 . S
C344 C351 1.409 . S
C345 H337 0.930 . S
C345 C343 1.419 . S
C345 C346 1.362 . S
C346 H338 0.930 . S
C346 C345 1.362 . S
C346 C349 1.409 . S
C347 H339 0.930 . S
C347 C348 1.355 . S
C347 C349 1.415 . S
C348 C347 1.355 . S
C348 C350 1.419 . S
C349 C344 1.425 . S
C349 C346 1.409 . S
C349 C347 1.415 . S
C350 H340 0.930 . S
C350 C348 1.419 . S
C350 C351 1.362 . S
C351 H341 0.930 . S
C351 C344 1.409 . S
C351 C350 1.362 . S
H352 C358 0.930 . S
H353 C361 0.930 . S
H354 C362 0.930 . S
H355 C363 0.930 . S
H356 C366 0.930 . S
H357 C367 0.930 . S
C358 H352 0.930 . S
C358 C359 1.355 . S
C358 C360 1.415 . S
C359 C358 1.355 . S
C359 C361 1.419 . S
C360 C358 1.415 . S
C360 C365 1.425 . S
C360 C367 1.409 . S
C361 H353 0.930 . S
C361 C359 1.419 . S
C361 C362 1.362 . S
C362 H354 0.930 . S
C362 C361 1.362 . S
C362 C365 1.409 . S
C363 H355 0.930 . S
C363 C364 1.355 . S
C363 C365 1.415 . S
C364 C363 1.355 . S
C364 C366 1.419 . S
C365 C360 1.425 . S
C365 C362 1.409 . S
C365 C363 1.415 . S
C366 H356 0.930 . S
C366 C364 1.419 . S
C366 C367 1.362 . S
C367 H357 0.930 . S
C367 C360 1.409 . S
C367 C366 1.362 . S
C119 C17 1.432 . S
C124 C3 1.438 . S
C135 C22 1.440 . S
C140 C36 1.441 . S
C151 C45 1.432 . S
C156 C31 1.429 . S
C167 C50 1.438 . S
C172 C8 1.438 . S
C183 C59 1.431 . S
C188 C73 1.429 . S
C199 C78 1.441 . S
C204 C92 1.441 . S
C215 C87 1.434 . S
C220 C101 1.441 . S
C231 C64 1.438 . S
C236 C106 1.437 . S
C247 C9 1.434 . S
C252 C107 1.443 . S
C263 C63 1.424 . S
C268 C21 1.466 . S
C279 C79 1.415 . S
C284 C37 1.422 . S
C295 C49 1.458 . S
C300 C91 1.417 . S
C311 C35 1.466 . S
C316 C105 1.432 . S
C327 C65 1.451 . S
C332 C51 1.443 . S
C343 C77 1.453 . S
C348 C7 1.456 . S
C359 C23 1.448 . S
C364 C93 1.439 . S
