# Generated by pormake.
# Topology vmb, (5)-cn, num edge types: 1
# Building blocks:
#     Node 0, Type 0, BuildingBlock: XOMCOT_clean_sbu_1, # of connection points: 5
#     Node 1, Type 0, BuildingBlock: XOMCOT_clean_sbu_1, # of connection points: 5
#     Node 2, Type 0, BuildingBlock: XOMCOT_clean_sbu_1, # of connection points: 5
#     Node 3, Type 0, BuildingBlock: XOMCOT_clean_sbu_1, # of connection points: 5
#     Node 4, Type 0, BuildingBlock: XOMCOT_clean_sbu_1, # of connection points: 5
#     Node 5, Type 0, BuildingBlock: XOMCOT_clean_sbu_1, # of connection points: 5
#     Node 6, Type 0, BuildingBlock: XOMCOT_clean_sbu_1, # of connection points: 5
#     Node 7, Type 0, BuildingBlock: XOMCOT_clean_sbu_1, # of connection points: 5
#     Edge 8, Type (0, 0), BuildingBlock: KIFKEQ_clean_linker_1, # of connection points: 2
#     Edge 9, Type (0, 0), BuildingBlock: KIFKEQ_clean_linker_1, # of connection points: 2
#     Edge 10, Type (0, 0), BuildingBlock: KIFKEQ_clean_linker_1, # of connection points: 2
#     Edge 11, Type (0, 0), BuildingBlock: KIFKEQ_clean_linker_1, # of connection points: 2
#     Edge 12, Type (0, 0), BuildingBlock: KIFKEQ_clean_linker_1, # of connection points: 2
#     Edge 13, Type (0, 0), BuildingBlock: KIFKEQ_clean_linker_1, # of connection points: 2
#     Edge 14, Type (0, 0), BuildingBlock: KIFKEQ_clean_linker_1, # of connection points: 2
#     Edge 15, Type (0, 0), BuildingBlock: KIFKEQ_clean_linker_1, # of connection points: 2
#     Edge 16, Type (0, 0), BuildingBlock: KIFKEQ_clean_linker_1, # of connection points: 2
#     Edge 17, Type (0, 0), BuildingBlock: KIFKEQ_clean_linker_1, # of connection points: 2
#     Edge 18, Type (0, 0), BuildingBlock: KIFKEQ_clean_linker_1, # of connection points: 2
#     Edge 19, Type (0, 0), BuildingBlock: KIFKEQ_clean_linker_1, # of connection points: 2
#     Edge 20, Type (0, 0), BuildingBlock: KIFKEQ_clean_linker_1, # of connection points: 2
#     Edge 21, Type (0, 0), BuildingBlock: KIFKEQ_clean_linker_1, # of connection points: 2
#     Edge 22, Type (0, 0), BuildingBlock: KIFKEQ_clean_linker_1, # of connection points: 2
#     Edge 23, Type (0, 0), BuildingBlock: KIFKEQ_clean_linker_1, # of connection points: 2
#     Edge 24, Type (0, 0), BuildingBlock: KIFKEQ_clean_linker_1, # of connection points: 2
#     Edge 25, Type (0, 0), BuildingBlock: KIFKEQ_clean_linker_1, # of connection points: 2
#     Edge 26, Type (0, 0), BuildingBlock: KIFKEQ_clean_linker_1, # of connection points: 2
#     Edge 27, Type (0, 0), BuildingBlock: KIFKEQ_clean_linker_1, # of connection points: 2
# Relax obj value: 0.084
# Max RMSD: 0.124
# Mean RMSD: 0.124
data_MOF--net-vmb--node1-XOMCOT_clean_sbu_1--edge1-KIFKEQ_clean_linker_1
_symmetry_space_group_name_H-M    P1
_symmetry_Int_Tables_number       1
_symmetry_cell_setting            triclinic
loop_
_symmetry_equiv_pos_as_xyz
'x, y, z'
_cell_length_a     38.533127
_cell_length_b     49.182929
_cell_length_c     27.136714
_cell_angle_alpha  89.909805
_cell_angle_beta   119.9093
_cell_angle_gamma 90.137276
loop_
_atom_site_label
_atom_site_type_symbol
_atom_site_fract_x
_atom_site_fract_y
_atom_site_fract_z
_atom_type_partial_charge
C0 C 0.21076 0.07876 0.28192 0.0
C1 C 0.17066 0.07609 0.26271 0.0
N2 N 0.1655 0.05739 0.29484 0.0
N3 N 0.23146 0.06185 0.32612 0.0
C4 C 0.20306 0.04912 0.33351 0.0
H5 H 0.22415 0.09273 0.26538 0.0
Co6 Co 0.28749 0.06144 0.36234 0.0
C7 C 0.31734 0.0385 0.47707 0.0
O8 O 0.34644 0.05648 0.49541 0.0
N9 N 0.3444 0.06129 0.39624 0.0
C10 C 0.40809 0.07291 0.42857 0.0
C11 C 0.36964 0.08234 0.40598 0.0
C12 C 0.36866 0.03913 0.41234 0.0
N13 N 0.40767 0.04565 0.43266 0.0
O14 O 0.28538 0.03061 0.31761 0.0
H15 H 0.36141 0.1034 0.39701 0.0
H16 H 0.35769 0.01854 0.4088 0.0
O17 O 0.29099 0.03776 0.42394 0.0
C18 C 0.28135 0.03855 0.27024 0.0
O19 O 0.27933 0.06476 0.25983 0.0
N20 N 0.28787 0.09341 0.40104 0.0
C21 C 0.2854 0.14443 0.44471 0.0
C22 C 0.27831 0.12055 0.46682 0.0
C23 C 0.27817 0.09538 0.44298 0.0
C24 C 0.29136 0.11645 0.37592 0.0
C25 C 0.29087 0.14209 0.39747 0.0
H26 H 0.26926 0.0778 0.45769 0.0
H27 H 0.29455 0.11487 0.33862 0.0
H28 H 0.20973 0.03426 0.36648 0.0
H29 H 0.14715 0.08781 0.22873 0.0
H30 H 0.43438 0.0854 0.44145 0.0
H31 H 0.27273 0.12112 0.50214 0.0
H32 H 0.29409 0.15987 0.37653 0.0
C33 C 0.84941 0.08624 0.26347 0.0
C34 C 0.88973 0.08321 0.28461 0.0
N35 N 0.89561 0.06262 0.25686 0.0
N36 N 0.82935 0.06773 0.22232 0.0
C37 C 0.85829 0.0536 0.21891 0.0
H38 H 0.83543 0.10145 0.27653 0.0
Co39 Co 0.77322 0.06677 0.18331 0.0
C40 C 0.74749 0.04525 0.06921 0.0
O41 O 0.71926 0.06382 0.0502 0.0
N42 N 0.71581 0.06575 0.14577 0.0
C43 C 0.65066 0.07564 0.10363 0.0
C44 C 0.6887 0.08616 0.12906 0.0
C45 C 0.69282 0.04288 0.13087 0.0
N46 N 0.65315 0.0484 0.10466 0.0
O47 O 0.77457 0.03582 0.22746 0.0
H48 H 0.69504 0.10757 0.1344 0.0
H49 H 0.70496 0.02251 0.13794 0.0
O50 O 0.77206 0.04345 0.12289 0.0
C51 C 0.77928 0.0437 0.27521 0.0
O52 O 0.78247 0.06986 0.28625 0.0
N53 N 0.77376 0.09893 0.1455 0.0
C54 C 0.77759 0.14962 0.10242 0.0
C55 C 0.79056 0.12629 0.08684 0.0
C56 C 0.7891 0.10111 0.10974 0.0
C57 C 0.76558 0.1219 0.16584 0.0
C58 C 0.76571 0.14736 0.14327 0.0
H59 H 0.80131 0.08365 0.0997 0.0
H60 H 0.75847 0.12036 0.19962 0.0
H61 H 0.85212 0.03718 0.18916 0.0
H62 H 0.91285 0.09594 0.31676 0.0
H63 H 0.62317 0.08721 0.08642 0.0
H64 H 0.80165 0.1275 0.05724 0.0
H65 H 0.7574 0.16519 0.1584 0.0
C66 C 0.85305 0.91263 0.78169 0.0
C67 C 0.89308 0.91579 0.80028 0.0
N68 N 0.89724 0.92388 0.7561 0.0
N69 N 0.8316 0.91895 0.72601 0.0
C70 C 0.85945 0.92554 0.71132 0.0
H71 H 0.84047 0.90561 0.80719 0.0
Co72 Co 0.77562 0.91643 0.68559 0.0
C73 C 0.74866 0.9381 0.57058 0.0
O74 O 0.72171 0.9186 0.55118 0.0
N75 N 0.7186 0.91396 0.64701 0.0
C76 C 0.65548 0.90024 0.61216 0.0
C77 C 0.69482 0.89215 0.63821 0.0
C78 C 0.69266 0.93518 0.62694 0.0
N79 N 0.65395 0.92739 0.60479 0.0
O80 O 0.77266 0.94689 0.72783 0.0
H81 H 0.70482 0.87159 0.65106 0.0
H82 H 0.70224 0.95599 0.62832 0.0
O83 O 0.77266 0.94032 0.62438 0.0
C84 C 0.76852 0.93749 0.76854 0.0
O85 O 0.76478 0.91104 0.77134 0.0
N86 N 0.78029 0.88465 0.65033 0.0
C87 C 0.7865 0.83389 0.61001 0.0
C88 C 0.79305 0.85765 0.58739 0.0
C89 C 0.79136 0.88286 0.60972 0.0
C90 C 0.77763 0.86159 0.6762 0.0
C91 C 0.78006 0.83593 0.65624 0.0
H92 H 0.79963 0.90061 0.59465 0.0
H93 H 0.77296 0.86318 0.71223 0.0
H94 H 0.8523 0.93133 0.66879 0.0
H95 H 0.9174 0.91157 0.84274 0.0
H96 H 0.63012 0.88707 0.60114 0.0
H97 H 0.80017 0.85669 0.55352 0.0
H98 H 0.77614 0.81791 0.67597 0.0
C99 C 0.21299 0.90448 0.76685 0.0
C100 C 0.17272 0.90779 0.74638 0.0
N101 N 0.16764 0.91895 0.78761 0.0
N102 N 0.23362 0.91371 0.82072 0.0
C103 C 0.20509 0.92229 0.83246 0.0
H104 H 0.22634 0.89538 0.74405 0.0
Co105 Co 0.28962 0.91201 0.86318 0.0
C106 C 0.31282 0.93204 0.97747 0.0
O107 O 0.33895 0.91209 0.9971 0.0
N108 N 0.34695 0.9105 0.90415 0.0
C109 C 0.41067 0.89841 0.93908 0.0
C110 C 0.37173 0.88948 0.91219 0.0
C111 C 0.37209 0.93216 0.92592 0.0
N112 N 0.41122 0.92539 0.94801 0.0
O113 O 0.29277 0.9428 0.82191 0.0
H114 H 0.36289 0.86894 0.89781 0.0
H115 H 0.36149 0.95261 0.92477 0.0
O116 O 0.2906 0.93527 0.92355 0.0
C117 C 0.29677 0.93331 0.78123 0.0
O118 O 0.30057 0.90686 0.77883 0.0
N119 N 0.28464 0.87986 0.89726 0.0
C120 C 0.27662 0.8289 0.93508 0.0
C121 C 0.26514 0.85225 0.95262 0.0
C122 C 0.26861 0.87763 0.9322 0.0
C123 C 0.29129 0.85698 0.87497 0.0
C124 C 0.28896 0.83128 0.89484 0.0
H125 H 0.2577 0.89523 0.94389 0.0
H126 H 0.29852 0.85872 0.84137 0.0
H127 H 0.21152 0.93067 0.873 0.0
H128 H 0.14891 0.9016 0.70489 0.0
H129 H 0.43634 0.88586 0.94905 0.0
H130 H 0.25372 0.85087 0.98183 0.0
H131 H 0.29621 0.81343 0.87844 0.0
C132 C 0.71613 0.57489 0.26745 0.0
C133 C 0.67579 0.5739 0.24759 0.0
N134 N 0.66967 0.56524 0.28983 0.0
N135 N 0.73601 0.56657 0.32194 0.0
C136 C 0.70689 0.5607 0.33456 0.0
H137 H 0.73009 0.58184 0.24369 0.0
Co138 Co 0.79195 0.56716 0.36349 0.0
C139 C 0.81664 0.54475 0.47704 0.0
O140 O 0.8444 0.56372 0.49693 0.0
N141 N 0.84917 0.56773 0.40316 0.0
C142 C 0.91353 0.57913 0.44143 0.0
C143 C 0.87503 0.58876 0.41663 0.0
C144 C 0.87315 0.54546 0.4196 0.0
N145 N 0.91247 0.55183 0.44338 0.0
O146 O 0.79314 0.53674 0.31955 0.0
H147 H 0.86727 0.60991 0.40809 0.0
H148 H 0.86178 0.5249 0.41423 0.0
O149 O 0.79262 0.54307 0.42311 0.0
C150 C 0.79828 0.54603 0.27961 0.0
O151 O 0.80426 0.5723 0.27855 0.0
N152 N 0.78897 0.59888 0.40027 0.0
C153 C 0.78279 0.64982 0.44109 0.0
C154 C 0.77229 0.62596 0.45915 0.0
C155 C 0.77495 0.60076 0.43755 0.0
C156 C 0.79517 0.62196 0.37795 0.0
C157 C 0.79373 0.6475 0.39905 0.0
H158 H 0.76461 0.58306 0.44993 0.0
H159 H 0.80199 0.62045 0.34391 0.0
H160 H 0.71293 0.55408 0.37612 0.0
H161 H 0.65287 0.57935 0.20503 0.0
H162 H 0.94015 0.59139 0.45515 0.0
H163 H 0.76126 0.62669 0.48882 0.0
H164 H 0.80156 0.66513 0.38271 0.0
C165 C 0.34871 0.58113 0.26516 0.0
C166 C 0.38962 0.58064 0.28848 0.0
N167 N 0.39854 0.56414 0.25678 0.0
N168 N 0.33167 0.56484 0.21913 0.0
C169 C 0.36282 0.55482 0.21498 0.0
H170 H 0.33234 0.59332 0.27983 0.0
Co171 Co 0.27636 0.5606 0.1716 0.0
C172 C 0.27108 0.51471 0.09915 0.0
O173 O 0.25125 0.50091 0.11867 0.0
N174 N 0.2201 0.55635 0.12255 0.0
C175 C 0.16045 0.55678 0.04342 0.0
C176 C 0.19955 0.56512 0.06806 0.0
C177 C 0.19243 0.54224 0.12941 0.0
N178 N 0.1559 0.54226 0.08183 0.0
O179 O 0.27765 0.53 0.21675 0.0
H180 H 0.21234 0.57591 0.04619 0.0
H181 H 0.199 0.53145 0.16781 0.0
O182 O 0.28444 0.53833 0.11895 0.0
C183 C 0.27464 0.53949 0.25827 0.0
O184 O 0.26843 0.56571 0.25896 0.0
N185 N 0.27602 0.5923 0.13368 0.0
C186 C 0.27495 0.64326 0.08861 0.0
C187 C 0.29145 0.62093 0.07558 0.0
C188 C 0.29244 0.59557 0.09959 0.0
C189 C 0.26017 0.61386 0.14705 0.0
C190 C 0.2594 0.63961 0.12504 0.0
H191 H 0.30698 0.57888 0.09156 0.0
H192 H 0.24831 0.61097 0.17539 0.0
H193 H 0.35944 0.5413 0.18148 0.0
H194 H 0.411 0.59252 0.3245 0.0
H195 H 0.13763 0.5599 0.9995 0.0
H196 H 0.30447 0.62327 0.04847 0.0
H197 H 0.24667 0.6565 0.13622 0.0
C198 C 0.34612 0.40702 0.773 0.0
C199 C 0.38686 0.40866 0.79605 0.0
N200 N 0.39475 0.41782 0.75579 0.0
N201 N 0.328 0.41518 0.71842 0.0
C202 C 0.35838 0.42182 0.70902 0.0
H203 H 0.33054 0.39993 0.79448 0.0
Co204 Co 0.27247 0.41393 0.67313 0.0
C205 C 0.25152 0.43388 0.55951 0.0
O206 O 0.22452 0.41443 0.5397 0.0
N207 N 0.21503 0.41279 0.62891 0.0
C208 C 0.15062 0.40071 0.58399 0.0
C209 C 0.18936 0.39146 0.61055 0.0
C210 C 0.19054 0.43481 0.61266 0.0
N211 N 0.15122 0.42805 0.58557 0.0
O212 O 0.26901 0.44519 0.71309 0.0
H213 H 0.19729 0.37029 0.61596 0.0
H214 H 0.20153 0.45549 0.62195 0.0
O215 O 0.27397 0.43673 0.61356 0.0
C216 C 0.25768 0.43736 0.74775 0.0
O217 O 0.24856 0.4116 0.74781 0.0
N218 N 0.27795 0.38151 0.64084 0.0
C219 C 0.28616 0.33001 0.60557 0.0
C220 C 0.29823 0.35311 0.58775 0.0
C221 C 0.2945 0.37876 0.60671 0.0
C222 C 0.27059 0.35898 0.6635 0.0
C223 C 0.27304 0.33304 0.6449 0.0
H224 H 0.30555 0.39614 0.59443 0.0
H225 H 0.26152 0.3613 0.69511 0.0
H226 H 0.35397 0.42859 0.66834 0.0
H227 H 0.40895 0.40342 0.83926 0.0
H228 H 0.12407 0.38808 0.56507 0.0
H229 H 0.30998 0.35137 0.55901 0.0
H230 H 0.26502 0.3155 0.66135 0.0
C231 C 0.71083 0.40752 0.76764 0.0
C232 C 0.6707 0.41028 0.74842 0.0
N233 N 0.66606 0.42173 0.78983 0.0
N234 N 0.7319 0.4173 0.82096 0.0
C235 C 0.70379 0.42569 0.83371 0.0
H236 H 0.72382 0.39822 0.74457 0.0
Co237 Co 0.78772 0.41545 0.86129 0.0
C238 C 0.81541 0.43826 0.97574 0.0
O239 O 0.84279 0.41911 0.99514 0.0
N240 N 0.84473 0.41348 0.89985 0.0
C241 C 0.90827 0.39999 0.94106 0.0
C242 C 0.86904 0.39159 0.9148 0.0
C243 C 0.87029 0.43497 0.91665 0.0
N244 N 0.90924 0.42737 0.94238 0.0
O245 O 0.79002 0.44574 0.81767 0.0
H246 H 0.85961 0.37065 0.90753 0.0
H247 H 0.86026 0.45586 0.90999 0.0
O248 O 0.79053 0.43973 0.92203 0.0
C249 C 0.79343 0.43631 0.77641 0.0
O250 O 0.7971 0.40987 0.77373 0.0
N251 N 0.7835 0.3839 0.89759 0.0
C252 C 0.77623 0.33323 0.9377 0.0
C253 C 0.77053 0.35711 0.96077 0.0
C254 C 0.77279 0.38228 0.9386 0.0
C255 C 0.78564 0.36078 0.87159 0.0
C256 C 0.78266 0.33518 0.89143 0.0
H257 H 0.76504 0.40015 0.95387 0.0
H258 H 0.79053 0.36229 0.83573 0.0
H259 H 0.7108 0.43418 0.87441 0.0
H260 H 0.64675 0.40333 0.70772 0.0
H261 H 0.93403 0.38671 0.95841 0.0
H262 H 0.76349 0.35625 0.99473 0.0
H263 H 0.7861 0.31711 0.87149 0.0
H264 H 0.3207 0.91265 0.0759 0.0
H265 H 0.28628 0.98446 0.97065 0.0
H266 H 0.30874 0.93592 0.14467 0.0
H267 H 0.27678 0.00876 0.04151 0.0
H268 H 0.23494 0.04221 0.15623 0.0
H269 H 0.23886 0.01536 0.08401 0.0
H270 H 0.33348 0.96727 0.2164 0.0
H271 H 0.32713 -0.0068 0.28812 0.0
C272 C 0.31103 0.93366 0.06788 0.0
C273 C 0.30472 0.94685 1.01809 0.0
C274 C 0.30439 0.94714 0.10767 0.0
C275 C 0.29212 0.97447 0.09956 0.0
C276 C 0.28554 0.98761 0.04923 0.0
C277 C 0.29127 0.97382 1.00861 0.0
C278 C 0.25599 0.02549 0.16961 0.0
C279 C 0.28057 0.01961 0.2276 0.0
C280 C 0.25871 0.01029 0.12822 0.0
C281 C 0.28695 -0.01076 0.14378 0.0
C282 C 0.31087 0.98296 0.20218 0.0
C283 C 0.30737 -0.0022 0.24358 0.0
H284 H 0.82774 0.0461 0.38896 0.0
H285 H 0.73084 -0.00028 0.25749 0.0
H286 H 0.82366 0.01951 0.46153 0.0
H287 H 0.72441 0.97413 0.32969 0.0
H288 H 0.73679 0.91919 0.46976 0.0
H289 H 0.74821 0.94216 0.40012 0.0
H290 H 0.78709 0.01397 0.50645 0.0
H291 H 0.77806 -0.01013 0.57815 0.0
C292 C 0.80563 0.03 0.37575 0.0
C293 C 0.7798 0.02476 0.31778 0.0
C294 C 0.80283 0.01497 0.41737 0.0
C295 C 0.77328 -0.00523 0.40211 0.0
C296 C 0.74804 -0.01087 0.34366 0.0
C297 C 0.75159 0.00378 0.30198 0.0
C298 C 0.74781 0.93992 0.47829 0.0
C299 C 0.75621 0.95286 0.52924 0.0
C300 C 0.75416 0.95323 0.43799 0.0
C301 C 0.76825 0.98018 0.44673 0.0
C302 C 0.77687 -0.00691 0.49817 0.0
C303 C 0.77141 0.97943 0.53928 0.0
H304 H 0.77872 0.92068 0.87003 0.0
H305 H 0.76089 -0.00672 0.77038 0.0
H306 H 0.77723 0.94743 0.94393 0.0
H307 H 0.75967 0.02038 0.84547 0.0
H308 H 0.70398 0.04914 0.95388 0.0
H309 H 0.71331 0.02499 0.88348 0.0
H310 H 0.81399 0.98217 1.01735 0.0
H311 H 0.80459 0.00648 0.08864 0.0
C312 C 0.77468 0.94246 0.86396 0.0
C313 C 0.76956 0.95483 0.81394 0.0
C314 C 0.77424 0.95783 0.90679 0.0
C315 C 0.76837 0.98603 0.90077 0.0
C316 C 0.76396 -0.00139 0.85119 0.0
C317 C 0.7648 0.98316 0.80829 0.0
C318 C 0.72822 0.03461 0.96866 0.0
C319 C 0.75342 0.02964 0.02715 0.0
C320 C 0.73377 0.02096 0.92806 0.0
C321 C 0.76451 0.00178 0.94466 0.0
C322 C 0.78986 -0.00325 1.00315 0.0
C323 C 0.78447 0.01063 0.04401 0.0
H324 H 0.28203 0.91639 0.67776 0.0
H325 H 0.30838 -0.01127 0.78055 0.0
H326 H 0.28371 0.94258 0.60318 0.0
H327 H 0.30991 0.01528 0.70482 0.0
H328 H 0.36445 0.04049 0.59225 0.0
H329 H 0.35521 0.01718 0.66382 0.0
H330 H 0.24847 0.97862 0.53176 0.0
H331 H 0.25769 0.00208 0.45935 0.0
C332 C 0.28799 0.938 0.68435 0.0
C333 C 0.29545 0.95046 0.7354 0.0
C334 C 0.28855 0.95306 0.64119 0.0
C335 C 0.29694 0.98099 0.64795 0.0
C336 C 0.30363 -0.0063 0.69855 0.0
C337 C 0.3026 0.97858 0.74177 0.0
C338 C 0.33892 0.02705 0.57814 0.0
C339 C 0.31189 0.02306 0.51982 0.0
C340 C 0.33345 0.01391 0.61941 0.0
C341 C 0.30098 -0.00378 0.60361 0.0
C342 C 0.27392 -0.00792 0.5453 0.0
C343 C 0.27923 0.00544 0.50381 0.0
H344 H 0.805 0.49024 0.27636 0.0
H345 H 0.78627 0.56318 0.17738 0.0
H346 H 0.80518 0.46342 0.20016 0.0
H347 H 0.78661 0.53669 0.10223 0.0
H348 H 0.75833 0.47717 0.95663 0.0
H349 H 0.74957 0.50168 0.0284 0.0
H350 H 0.85152 0.45962 0.16166 0.0
H351 H 0.86035 0.43542 0.09098 0.0
C352 C 0.80059 0.50048 0.2383 0.0
C353 C 0.79601 0.52883 0.23322 0.0
C354 C 0.80084 0.4852 0.19477 0.0
C355 C 0.79595 0.49796 0.14508 0.0
C356 C 0.79003 0.52617 0.13949 0.0
C357 C 0.79024 0.54138 0.18301 0.0
C358 C 0.77892 0.47329 1.00123 0.0
C359 C 0.81011 0.45439 1.01782 0.0
C360 C 0.77387 0.48725 0.04235 0.0
C361 C 0.79966 0.48239 0.10083 0.0
C362 C 0.83067 0.46348 0.11713 0.0
C363 C 0.83592 0.44979 0.07632 0.0
H364 H 0.28722 0.55685 0.36054 0.0
H365 H 0.26829 0.4837 0.26234 0.0
H366 H 0.28614 0.53061 0.43552 0.0
H367 H 0.26767 0.45709 0.33855 0.0
H368 H 0.20977 0.42967 0.44435 0.0
H369 H 0.22091 0.45317 0.37497 0.0
H370 H 0.32077 0.49625 0.50999 0.0
H371 H 0.30947 0.47256 0.58044 0.0
C372 C 0.28317 0.53504 0.35514 0.0
C373 C 0.27736 0.52238 0.30509 0.0
C374 C 0.28297 0.51996 0.39858 0.0
C375 C 0.27672 0.49176 0.39312 0.0
C376 C 0.27217 0.47887 0.3438 0.0
C377 C 0.27269 0.49403 0.30028 0.0
C378 C 0.23425 0.4441 0.45967 0.0
C379 C 0.25863 0.44931 0.51823 0.0
C380 C 0.24086 0.45738 0.41963 0.0
C381 C 0.27192 0.47642 0.43677 0.0
C382 C 0.29644 0.48174 0.49535 0.0
C383 C 0.28995 0.46824 0.53572 0.0
H384 H 0.2449 0.46577 0.04575 0.0
H385 H 0.30063 0.54065 0.03768 0.0
H386 H 0.24144 0.45063 0.95827 0.0
H387 H 0.29581 0.52591 0.94875 0.0
H388 H 0.31437 0.4742 0.81787 0.0
H389 H 0.31961 0.49433 0.90408 0.0
H390 H 0.20405 0.46039 0.85979 0.0
H391 H 0.19994 0.43962 0.77575 0.0
C392 C 0.25646 0.47905 0.0254 0.0
C393 C 0.2727 0.50457 0.04873 0.0
C394 C 0.25407 0.47049 0.97471 0.0
C395 C 0.26753 0.48729 0.94552 0.0
C396 C 0.28511 0.51243 0.96989 0.0
C397 C 0.28773 0.52094 1.02093 0.0
C398 C 0.28973 0.47179 0.82605 0.0
C399 C 0.25678 0.45539 0.79043 0.0
C400 C 0.29276 0.48315 0.87554 0.0
C401 C 0.2627 0.47841 0.8898 0.0
C402 C 0.22841 0.46373 0.85138 0.0
C403 C 0.22572 0.45214 0.80272 0.0
H404 H 0.782 0.41958 0.6742 0.0
H405 H 0.8022 0.49205 0.77478 0.0
H406 H 0.78398 0.44626 0.60035 0.0
H407 H 0.80391 0.51907 0.69981 0.0
H408 H 0.86025 0.54759 0.59244 0.0
H409 H 0.85027 0.52321 0.66209 0.0
H410 H 0.7488 0.48138 0.52711 0.0
H411 H 0.75883 0.506 0.45643 0.0
C412 C 0.78664 0.44132 0.68048 0.0
C413 C 0.79233 0.45366 0.73079 0.0
C414 C 0.78737 0.45666 0.63767 0.0
C415 C 0.79413 0.48479 0.64401 0.0
C416 C 0.79898 0.49734 0.69381 0.0
C417 C 0.79785 0.48194 0.73667 0.0
C418 C 0.83569 0.53323 0.57719 0.0
C419 C 0.81043 0.52869 0.51854 0.0
C420 C 0.82977 0.51943 0.61742 0.0
C421 C 0.79858 0.5005 0.60036 0.0
C422 C 0.77327 0.49578 0.5417 0.0
C423 C 0.77902 0.50983 0.50118 0.0
H424 H 0.64919 0.98204 0.61759 0.0
H425 H 0.57703 0.91134 0.53355 0.0
H426 H 0.58912 0.01007 0.57503 0.0
H427 H 0.51713 0.93934 0.49181 0.0
H428 H 0.41482 -0.00535 0.4764 0.0
H429 H 0.47427 0.96574 0.51785 0.0
H430 H 0.53853 0.0272 0.48153 0.0
H431 H 0.47939 0.05581 0.43965 0.0
C432 C 0.62072 0.97241 0.58985 0.0
C433 C 0.61834 0.94426 0.57936 0.0
C434 C 0.58615 0.98854 0.56543 0.0
C435 C 0.54818 0.97698 0.53 0.0
C436 C 0.54574 0.94888 0.51956 0.0
C437 C 0.58029 0.93278 0.54367 0.0
C438 C 0.44143 0.00189 0.47662 0.0
C439 C 0.44212 0.02778 0.45492 0.0
C440 C 0.47561 0.98532 0.50054 0.0
C441 C 0.51139 -0.00576 0.50356 0.0
C442 C 0.51183 0.01989 0.48106 0.0
C443 C 0.47773 0.03635 0.45696 0.0
H444 H 0.41338 0.98109 0.94879 0.0
H445 H 0.49 0.9103 1.00574 0.0
H446 H 0.47209 0.01014 0.98876 0.0
H447 H 0.54828 0.93926 0.04214 0.0
H448 H 0.649 -0.00053 0.14787 0.0
H449 H 0.59035 0.96978 0.11282 0.0
H450 H 0.52336 0.02536 0.97345 0.0
H451 H 0.5814 0.05518 1.01 0.0
C452 C 0.44248 0.97154 0.96951 0.0
C453 C 0.44624 0.94302 0.97306 0.0
C454 C 0.47645 0.98834 0.99201 0.0
C455 C 0.51532 0.97722 1.01839 0.0
C456 C 0.51909 0.94877 0.02275 0.0
C457 C 0.48522 0.93199 1.00084 0.0
C458 C 0.62175 0.00512 0.10956 0.0
C459 C 0.61973 0.02971 0.08191 0.0
C460 C 0.58803 0.98812 0.08927 0.0
C461 C 0.55162 -0.00486 0.04031 0.0
C462 C 0.55024 0.01948 1.01204 0.0
C463 C 0.58368 0.03656 0.03275 0.0
H464 H 0.98972 0.5632 0.52152 0.0
H465 H 0.91278 0.499 0.41367 0.0
H466 H 0.0474 0.53339 0.55492 0.0
H467 H 0.97066 0.46905 0.44751 0.0
H468 H 0.07717 0.41546 0.56812 0.0
H469 H 1.01938 0.44513 0.53321 0.0
H470 H 0.08882 0.51132 0.52172 0.0
H471 H 0.14688 0.48147 0.55636 0.0
C472 C 0.98505 0.5428 0.50452 0.0
C473 C 0.94641 0.53363 0.46458 0.0
C474 C 1.01825 0.52568 0.52372 0.0
C475 C 1.0138 0.49884 0.50375 0.0
C476 C 0.97515 0.48951 0.46428 0.0
C477 C 0.94188 0.50669 0.44492 0.0
C478 C 0.0802 0.43621 0.55756 0.0
C479 C 0.11694 0.44592 0.56498 0.0
C480 C 0.04689 0.45328 0.5375 0.0
C481 C 0.04931 0.48062 0.52447 0.0
C482 C 0.08601 0.49044 0.532 0.0
C483 C 0.11938 0.47331 0.55194 0.0
H484 H 0.07922 0.55728 1.0119 0.0
H485 H 0.1518 0.49325 0.12497 0.0
H486 H 1.0192 0.52984 0.98228 0.0
H487 H 0.09154 0.46581 0.09605 0.0
H488 H 0.98452 0.41339 0.96661 0.0
H489 H 0.04388 0.44185 1.0075 0.0
H490 H 0.97481 0.50936 1.01364 0.0
H491 H 0.91513 0.48071 0.97351 0.0
C492 C 0.08226 0.53743 0.03092 0.0
C493 C 0.12031 0.52737 0.07049 0.0
C494 C 0.04781 0.52178 1.01428 0.0
C495 C 0.05052 0.49553 0.03646 0.0
C496 C 0.08845 0.48583 0.07764 0.0
C497 C 0.12295 0.50164 0.09471 0.0
C498 C 0.98177 0.43413 0.97728 0.0
C499 C 0.94459 0.44455 0.96651 0.0
C500 C 1.01606 0.4505 1.00094 0.0
C501 C 1.01424 0.47787 1.01418 0.0
C502 C 0.9772 0.4884 1.00353 0.0
C503 C 0.94286 0.47194 0.98022 0.0
H504 H 0.15084 0.0395 0.37802 0.0
H505 H 0.09303 0.05837 0.19906 0.0
H506 H 0.08521 0.03336 0.37009 0.0
H507 H 1.02807 0.05396 0.19161 0.0
H508 H 0.91103 0.03738 0.18028 0.0
H509 H 0.97672 0.02848 0.19082 0.0
H510 H 0.03331 0.06116 0.36129 0.0
H511 H 0.9682 0.0683 0.35192 0.0
C512 C 0.12422 0.04205 0.3369 0.0
C513 C 0.12736 0.04998 0.28949 0.0
C514 C 0.08646 0.03886 0.33236 0.0
C515 C 0.05091 0.04358 0.28031 0.0
C516 C 0.05435 0.04992 0.23237 0.0
C517 C 0.09188 0.05291 0.23686 0.0
C518 C 0.93749 0.04207 0.22041 0.0
C519 C 0.93407 0.05412 0.26474 0.0
C520 C 0.97533 0.03727 0.22635 0.0
C521 C 1.01075 0.04451 0.27667 0.0
C522 C 1.00711 0.0551 0.32198 0.0
C523 C 0.96945 0.05967 0.31621 0.0
H524 H 0.14966 0.9143 0.87202 0.0
H525 H 0.09911 0.93499 0.69492 0.0
H526 H 0.08354 0.91812 0.86292 0.0
H527 H 0.03322 0.93966 0.68575 0.0
H528 H 0.91469 0.91183 0.67332 0.0
H529 H 0.98067 0.9132 0.68114 0.0
H530 H 1.03099 0.94676 0.85033 0.0
H531 H 0.96534 0.9445 0.84269 0.0
C532 C 0.12453 0.92022 0.83145 0.0
C533 C 0.12959 0.92414 0.78415 0.0
C534 C 0.0865 0.92246 0.82606 0.0
C535 C 0.05261 0.92902 0.77335 0.0
C536 C 0.05818 0.93394 0.72666 0.0
C537 C 0.09606 0.93141 0.73195 0.0
C538 C 0.9398 0.91986 0.71173 0.0
C539 C 0.93489 0.92784 0.75752 0.0
C540 C 0.97774 0.92069 0.71638 0.0
C541 C 1.01161 0.92984 0.76674 0.0
C542 C 1.00608 0.93892 0.81148 0.0
C543 C 0.96833 0.9378 0.80701 0.0
H544 H 0.41616 0.55329 0.17364 0.0
H545 H 0.47014 0.56563 0.35466 0.0
H546 H 0.48253 0.55049 0.18354 0.0
H547 H 0.53665 0.5634 0.36439 0.0
H548 H 0.65147 0.53682 0.36087 0.0
H549 H 0.58588 0.5333 0.35444 0.0
H550 H 0.53505 0.58517 0.20647 0.0
H551 H 0.59971 0.58928 0.21328 0.0
C552 C 0.44213 0.55501 0.21566 0.0
C553 C 0.43773 0.55992 0.26327 0.0
C554 C 0.48023 0.55366 0.2213 0.0
C555 C 0.51491 0.557 0.27471 0.0
C556 C 0.51059 0.56066 0.32271 0.0
C557 C 0.47245 0.56221 0.31701 0.0
C558 C 0.6264 0.54759 0.32716 0.0
C559 C 0.63124 0.56306 0.28724 0.0
C560 C 0.58876 0.5455 0.3234 0.0
C561 C 0.55509 0.55863 0.27939 0.0
C562 C 0.56006 0.57422 0.24001 0.0
C563 C 0.59747 0.57652 0.24401 0.0
H564 H 0.65125 0.42201 0.87803 0.0
H565 H 0.5945 0.43179 0.69606 0.0
H566 H 0.58578 0.42457 0.87167 0.0
H567 H 0.52926 0.43311 0.68926 0.0
H568 H 0.41655 0.45194 0.69674 0.0
H569 H 0.48324 0.45712 0.70786 0.0
H570 H 0.52852 0.39559 0.83901 0.0
H571 H 0.46248 0.39068 0.82823 0.0
C572 C 0.62493 0.425 0.83679 0.0
C573 C 0.62819 0.4263 0.78752 0.0
C574 C 0.58727 0.42614 0.83296 0.0
C575 C 0.55198 0.42868 0.77979 0.0
C576 C 0.55558 0.43129 0.73096 0.0
C577 C 0.5931 0.43018 0.7348 0.0
C578 C 0.44075 0.43951 0.72781 0.0
C579 C 0.43401 0.421 0.76171 0.0
C580 C 0.47906 0.44248 0.73431 0.0
C581 C 0.51155 0.4269 0.77469 0.0
C582 C 0.50465 0.40844 0.80848 0.0
C583 C 0.46654 0.40555 0.80212 0.0
H584 H 0.22423 0.29474 0.55308 0.0
H585 H 0.34945 0.30443 0.60727 0.0
H586 H 0.22407 0.25026 0.51376 0.0
H587 H 0.35041 0.25914 0.57125 0.0
H588 H 0.33104 0.18896 0.45265 0.0
H589 H 0.33056 0.23364 0.48974 0.0
H590 H 0.24405 0.20557 0.5358 0.0
H591 H 0.24152 0.16178 0.49356 0.0
C592 C 0.25186 0.28705 0.55712 0.0
C593 C 0.28682 0.30285 0.58301 0.0
C594 C 0.25195 0.26147 0.53502 0.0
C595 C 0.28729 0.25084 0.53941 0.0
C596 C 0.32242 0.26674 0.56598 0.0
C597 C 0.32206 0.29261 0.58701 0.0
C598 C 0.31129 0.1924 0.46965 0.0
C599 C 0.28614 0.17159 0.46959 0.0
C600 C 0.31158 0.21801 0.49203 0.0
C601 C 0.28731 0.22342 0.51602 0.0
C602 C 0.26267 0.20246 0.51684 0.0
C603 C 0.26178 0.17702 0.49345 0.0
H604 H 0.72912 0.28966 0.88201 0.0
H605 H 0.82189 0.31654 0.04712 0.0
H606 H 0.72906 0.24481 0.92186 0.0
H607 H 0.82257 0.27148 0.0866 0.0
H608 H 0.83991 0.1755 0.10155 0.0
H609 H 0.83926 0.22051 0.0617 0.0
H610 H 0.7135 0.2284 1.00603 0.0
H611 H 0.7144 0.18377 0.04718 0.0
C612 C 0.74948 0.28588 0.92674 0.0
C613 C 0.77544 0.30641 0.96168 0.0
C614 C 0.74938 0.26037 0.94946 0.0
C615 C 0.77591 0.25484 1.00711 0.0
C616 C 0.80202 0.27532 0.04195 0.0
C617 C 0.80147 0.30102 1.01954 0.0
C618 C 0.81221 0.18691 0.0807 0.0
C619 C 0.77721 0.17635 0.07731 0.0
C620 C 0.81188 0.21258 0.05824 0.0
C621 C 0.77632 0.22774 0.03093 0.0
C622 C 0.74119 0.21698 0.02676 0.0
C623 C 0.74174 0.19161 0.05036 0.0
H624 H 0.79937 0.66154 0.54974 0.0
H625 H 0.76442 0.69976 0.38796 0.0
H626 H 0.79827 0.7054 0.58941 0.0
H627 H 0.76747 0.74384 0.42927 0.0
H628 H 0.73881 0.81768 0.50102 0.0
H629 H 0.73596 0.77307 0.46028 0.0
H630 H 0.83268 0.74582 0.6228 0.0
H631 H 0.83325 0.79004 0.66382 0.0
C632 C 0.79146 0.67923 0.52247 0.0
C633 C 0.78202 0.67685 0.46543 0.0
C634 C 0.7916 0.7046 0.54569 0.0
C635 C 0.78309 0.72843 0.51291 0.0
C636 C 0.77365 0.72605 0.45588 0.0
C637 C 0.77267 0.70063 0.43233 0.0
C638 C 0.75937 0.80203 0.52775 0.0
C639 C 0.78623 0.80712 0.58536 0.0
C640 C 0.75801 0.77648 0.50446 0.0
C641 C 0.78417 0.75562 0.53802 0.0
C642 C 0.81144 0.76104 0.59574 0.0
C643 C 0.81211 0.78643 0.61928 0.0
H644 H 0.21109 0.79862 0.91212 0.0
H645 H 0.34011 0.79903 1.00934 0.0
H646 H 0.21017 0.75296 0.94869 0.0
H647 H 0.33929 0.75379 0.0471 0.0
H648 H 0.30824 0.6894 0.14866 0.0
H649 H 0.30825 0.73482 0.11125 0.0
H650 H 0.24071 0.7039 0.93998 0.0
H651 H 0.2416 0.65823 0.97752 0.0
C652 C 0.23911 0.78892 0.9416 0.0
C653 C 0.27566 0.80204 0.95826 0.0
C654 C 0.23863 0.76291 0.96221 0.0
C655 C 0.27468 0.75005 1.00059 0.0
C656 C 0.31117 0.76343 1.01775 0.0
C657 C 0.31166 0.78914 0.99625 0.0
C658 C 0.29348 0.69239 0.10306 0.0
C659 C 0.27498 0.6705 0.0658 0.0
C660 C 0.29357 0.71823 0.08177 0.0
C661 C 0.27439 0.7227 0.02289 0.0
C662 C 0.25549 0.70088 0.98557 0.0
C663 C 0.25618 0.67486 1.00691 0.0
loop_
_geom_bond_atom_site_label_1
_geom_bond_atom_site_label_2
_geom_bond_distance
_geom_bond_site_symmetry_2
_ccdc_geom_bond_type
C0 C1 1.351 . S
C0 N3 1.368 . S
C0 H5 0.931 . S
C1 C0 1.351 . S
C1 N2 1.373 . S
C1 H29 0.930 . S
N2 C1 1.373 . S
N2 C4 1.340 . S
N3 C0 1.368 . S
N3 C4 1.321 . S
N3 Co6 2.135 . S
C4 N2 1.340 . S
C4 N3 1.321 . S
C4 H28 0.930 . S
H5 C0 0.931 . S
Co6 N3 2.135 . S
Co6 N9 2.121 . S
Co6 O14 2.055 . S
Co6 O17 2.039 . S
Co6 N20 2.140 . S
C7 O8 1.227 . S
C7 O17 1.265 . S
O8 C7 1.227 . S
N9 Co6 2.121 . S
N9 C11 1.375 . S
N9 C12 1.313 . S
C10 C11 1.338 . S
C10 N13 1.377 . S
C10 H30 0.930 . S
C11 N9 1.375 . S
C11 C10 1.338 . S
C11 H15 0.931 . S
C12 N9 1.313 . S
C12 N13 1.344 . S
C12 H16 0.930 . S
N13 C10 1.377 . S
N13 C12 1.344 . S
O14 Co6 2.055 . S
O14 C18 1.253 . S
H15 C11 0.931 . S
H16 C12 0.930 . S
O17 Co6 2.039 . S
O17 C7 1.265 . S
C18 O14 1.253 . S
C18 O19 1.227 . S
O19 C18 1.227 . S
N20 Co6 2.140 . S
N20 C23 1.346 . S
N20 C24 1.345 . S
C21 C22 1.387 . S
C21 C25 1.391 . S
C22 C21 1.387 . S
C22 C23 1.369 . S
C22 H31 0.929 . S
C23 N20 1.346 . S
C23 C22 1.369 . S
C23 H26 0.928 . S
C24 N20 1.345 . S
C24 C25 1.371 . S
C24 H27 0.931 . S
C25 C21 1.391 . S
C25 C24 1.371 . S
C25 H32 0.930 . S
H26 C23 0.928 . S
H27 C24 0.931 . S
H28 C4 0.930 . S
H29 C1 0.930 . S
H30 C10 0.930 . S
H31 C22 0.929 . S
H32 C25 0.930 . S
C33 C34 1.351 . S
C33 N36 1.368 . S
C33 H38 0.931 . S
C34 C33 1.351 . S
C34 N35 1.373 . S
C34 H62 0.930 . S
N35 C34 1.373 . S
N35 C37 1.340 . S
N36 C33 1.368 . S
N36 C37 1.321 . S
N36 Co39 2.135 . S
C37 N35 1.340 . S
C37 N36 1.321 . S
C37 H61 0.930 . S
H38 C33 0.931 . S
Co39 N36 2.135 . S
Co39 N42 2.121 . S
Co39 O47 2.055 . S
Co39 O50 2.039 . S
Co39 N53 2.140 . S
C40 O41 1.227 1_554 S
C40 O50 1.265 . S
O41 C40 1.227 1_556 S
N42 Co39 2.121 . S
N42 C44 1.375 1_554 S
N42 C45 1.313 . S
C43 C44 1.338 . S
C43 N46 1.377 1_556 S
C43 H63 0.930 . S
C44 N42 1.375 1_556 S
C44 C43 1.338 . S
C44 H48 0.931 . S
C45 N42 1.313 . S
C45 N46 1.344 . S
C45 H49 0.930 . S
N46 C43 1.377 1_554 S
N46 C45 1.344 . S
O47 Co39 2.055 . S
O47 C51 1.253 . S
H48 C44 0.931 . S
H49 C45 0.930 . S
O50 Co39 2.039 . S
O50 C40 1.265 . S
C51 O47 1.253 . S
C51 O52 1.227 . S
O52 C51 1.227 . S
N53 Co39 2.140 . S
N53 C56 1.346 . S
N53 C57 1.345 . S
C54 C55 1.387 . S
C54 C58 1.391 . S
C55 C54 1.387 . S
C55 C56 1.369 . S
C55 H64 0.929 . S
C56 N53 1.346 . S
C56 C55 1.369 . S
C56 H59 0.928 . S
C57 N53 1.345 . S
C57 C58 1.371 . S
C57 H60 0.931 . S
C58 C54 1.391 . S
C58 C57 1.371 . S
C58 H65 0.930 . S
H59 C56 0.928 . S
H60 C57 0.931 . S
H61 C37 0.930 . S
H62 C34 0.930 . S
H63 C43 0.930 . S
H64 C55 0.929 . S
H65 C58 0.930 . S
C66 C67 1.351 . S
C66 N69 1.368 . S
C66 H71 0.931 . S
C67 C66 1.351 . S
C67 N68 1.373 . S
C67 H95 0.930 . S
N68 C67 1.373 . S
N68 C70 1.340 . S
N69 C66 1.368 . S
N69 C70 1.321 . S
N69 Co72 2.135 . S
C70 N68 1.340 . S
C70 N69 1.321 . S
C70 H94 0.930 . S
H71 C66 0.931 . S
Co72 N69 2.135 . S
Co72 N75 2.121 . S
Co72 O80 2.055 . S
Co72 O83 2.039 . S
Co72 N86 2.140 . S
C73 O74 1.227 . S
C73 O83 1.265 . S
O74 C73 1.227 . S
N75 Co72 2.121 . S
N75 C77 1.375 . S
N75 C78 1.313 . S
C76 C77 1.338 . S
C76 N79 1.377 . S
C76 H96 0.930 . S
C77 N75 1.375 . S
C77 C76 1.338 . S
C77 H81 0.931 . S
C78 N75 1.313 . S
C78 N79 1.344 . S
C78 H82 0.930 . S
N79 C76 1.377 . S
N79 C78 1.344 . S
O80 Co72 2.055 . S
O80 C84 1.253 . S
H81 C77 0.931 . S
H82 C78 0.930 . S
O83 Co72 2.039 . S
O83 C73 1.265 . S
C84 O80 1.253 . S
C84 O85 1.227 . S
O85 C84 1.227 . S
N86 Co72 2.140 . S
N86 C89 1.346 . S
N86 C90 1.345 . S
C87 C88 1.387 . S
C87 C91 1.391 . S
C88 C87 1.387 . S
C88 C89 1.369 . S
C88 H97 0.929 . S
C89 N86 1.346 . S
C89 C88 1.369 . S
C89 H92 0.928 . S
C90 N86 1.345 . S
C90 C91 1.371 . S
C90 H93 0.931 . S
C91 C87 1.391 . S
C91 C90 1.371 . S
C91 H98 0.930 . S
H92 C89 0.928 . S
H93 C90 0.931 . S
H94 C70 0.930 . S
H95 C67 0.930 . S
H96 C76 0.930 . S
H97 C88 0.929 . S
H98 C91 0.930 . S
C99 C100 1.351 . S
C99 N102 1.368 . S
C99 H104 0.931 . S
C100 C99 1.351 . S
C100 N101 1.373 . S
C100 H128 0.930 . S
N101 C100 1.373 . S
N101 C103 1.340 . S
N102 C99 1.368 . S
N102 C103 1.321 . S
N102 Co105 2.135 . S
C103 N101 1.340 . S
C103 N102 1.321 . S
C103 H127 0.930 . S
H104 C99 0.931 . S
Co105 N102 2.135 . S
Co105 N108 2.121 . S
Co105 O113 2.055 . S
Co105 O116 2.039 . S
Co105 N119 2.140 . S
C106 O107 1.227 1_556 S
C106 O116 1.265 . S
O107 C106 1.227 1_554 S
N108 Co105 2.121 . S
N108 C110 1.375 1_556 S
N108 C111 1.313 . S
C109 C110 1.338 . S
C109 N112 1.377 1_554 S
C109 H129 0.930 . S
C110 N108 1.375 1_554 S
C110 C109 1.338 . S
C110 H114 0.931 . S
C111 N108 1.313 . S
C111 N112 1.344 . S
C111 H115 0.930 . S
N112 C109 1.377 1_556 S
N112 C111 1.344 . S
O113 Co105 2.055 . S
O113 C117 1.253 . S
H114 C110 0.931 . S
H115 C111 0.930 . S
O116 Co105 2.039 . S
O116 C106 1.265 . S
C117 O113 1.253 . S
C117 O118 1.227 . S
O118 C117 1.227 . S
N119 Co105 2.140 . S
N119 C122 1.346 . S
N119 C123 1.345 . S
C120 C121 1.387 . S
C120 C124 1.391 . S
C121 C120 1.387 . S
C121 C122 1.369 . S
C121 H130 0.929 . S
C122 N119 1.346 . S
C122 C121 1.369 . S
C122 H125 0.928 . S
C123 N119 1.345 . S
C123 C124 1.371 . S
C123 H126 0.931 . S
C124 C120 1.391 . S
C124 C123 1.371 . S
C124 H131 0.930 . S
H125 C122 0.928 . S
H126 C123 0.931 . S
H127 C103 0.930 . S
H128 C100 0.930 . S
H129 C109 0.930 . S
H130 C121 0.929 . S
H131 C124 0.930 . S
C132 C133 1.351 . S
C132 N135 1.368 . S
C132 H137 0.931 . S
C133 C132 1.351 . S
C133 N134 1.373 . S
C133 H161 0.930 . S
N134 C133 1.373 . S
N134 C136 1.340 . S
N135 C132 1.368 . S
N135 C136 1.321 . S
N135 Co138 2.135 . S
C136 N134 1.340 . S
C136 N135 1.321 . S
C136 H160 0.930 . S
H137 C132 0.931 . S
Co138 N135 2.135 . S
Co138 N141 2.121 . S
Co138 O146 2.055 . S
Co138 O149 2.039 . S
Co138 N152 2.140 . S
C139 O140 1.227 . S
C139 O149 1.265 . S
O140 C139 1.227 . S
N141 Co138 2.121 . S
N141 C143 1.375 . S
N141 C144 1.313 . S
C142 C143 1.338 . S
C142 N145 1.377 . S
C142 H162 0.930 . S
C143 N141 1.375 . S
C143 C142 1.338 . S
C143 H147 0.931 . S
C144 N141 1.313 . S
C144 N145 1.344 . S
C144 H148 0.930 . S
N145 C142 1.377 . S
N145 C144 1.344 . S
O146 Co138 2.055 . S
O146 C150 1.253 . S
H147 C143 0.931 . S
H148 C144 0.930 . S
O149 Co138 2.039 . S
O149 C139 1.265 . S
C150 O146 1.253 . S
C150 O151 1.227 . S
O151 C150 1.227 . S
N152 Co138 2.140 . S
N152 C155 1.346 . S
N152 C156 1.345 . S
C153 C154 1.387 . S
C153 C157 1.391 . S
C154 C153 1.387 . S
C154 C155 1.369 . S
C154 H163 0.929 . S
C155 N152 1.346 . S
C155 C154 1.369 . S
C155 H158 0.928 . S
C156 N152 1.345 . S
C156 C157 1.371 . S
C156 H159 0.931 . S
C157 C153 1.391 . S
C157 C156 1.371 . S
C157 H164 0.930 . S
H158 C155 0.928 . S
H159 C156 0.931 . S
H160 C136 0.930 . S
H161 C133 0.930 . S
H162 C142 0.930 . S
H163 C154 0.929 . S
H164 C157 0.930 . S
C165 C166 1.351 . S
C165 N168 1.368 . S
C165 H170 0.931 . S
C166 C165 1.351 . S
C166 N167 1.373 . S
C166 H194 0.930 . S
N167 C166 1.373 . S
N167 C169 1.340 . S
N168 C165 1.368 . S
N168 C169 1.321 . S
N168 Co171 2.135 . S
C169 N167 1.340 . S
C169 N168 1.321 . S
C169 H193 0.930 . S
H170 C165 0.931 . S
Co171 N168 2.135 . S
Co171 N174 2.121 . S
Co171 O179 2.055 . S
Co171 O182 2.039 . S
Co171 N185 2.140 . S
C172 O173 1.227 1_554 S
C172 O182 1.265 . S
O173 C172 1.227 1_556 S
N174 Co171 2.121 . S
N174 C176 1.375 1_554 S
N174 C177 1.313 . S
C175 C176 1.338 . S
C175 N178 1.377 1_556 S
C175 H195 0.930 . S
C176 N174 1.375 1_556 S
C176 C175 1.338 . S
C176 H180 0.931 . S
C177 N174 1.313 . S
C177 N178 1.344 . S
C177 H181 0.930 . S
N178 C175 1.377 1_554 S
N178 C177 1.344 . S
O179 Co171 2.055 . S
O179 C183 1.253 . S
H180 C176 0.931 . S
H181 C177 0.930 . S
O182 Co171 2.039 . S
O182 C172 1.265 . S
C183 O179 1.253 . S
C183 O184 1.227 . S
O184 C183 1.227 . S
N185 Co171 2.140 . S
N185 C188 1.346 . S
N185 C189 1.345 . S
C186 C187 1.387 . S
C186 C190 1.391 . S
C187 C186 1.387 . S
C187 C188 1.369 . S
C187 H196 0.929 . S
C188 N185 1.346 . S
C188 C187 1.369 . S
C188 H191 0.928 . S
C189 N185 1.345 . S
C189 C190 1.371 . S
C189 H192 0.931 . S
C190 C186 1.391 . S
C190 C189 1.371 . S
C190 H197 0.930 . S
H191 C188 0.928 . S
H192 C189 0.931 . S
H193 C169 0.930 . S
H194 C166 0.930 . S
H195 C175 0.930 . S
H196 C187 0.929 . S
H197 C190 0.930 . S
C198 C199 1.351 . S
C198 N201 1.368 . S
C198 H203 0.931 . S
C199 C198 1.351 . S
C199 N200 1.373 . S
C199 H227 0.930 . S
N200 C199 1.373 . S
N200 C202 1.340 . S
N201 C198 1.368 . S
N201 C202 1.321 . S
N201 Co204 2.135 . S
C202 N200 1.340 . S
C202 N201 1.321 . S
C202 H226 0.930 . S
H203 C198 0.931 . S
Co204 N201 2.135 . S
Co204 N207 2.121 . S
Co204 O212 2.055 . S
Co204 O215 2.039 . S
Co204 N218 2.140 . S
C205 O206 1.227 . S
C205 O215 1.265 . S
O206 C205 1.227 . S
N207 Co204 2.121 . S
N207 C209 1.375 . S
N207 C210 1.313 . S
C208 C209 1.338 . S
C208 N211 1.377 . S
C208 H228 0.930 . S
C209 N207 1.375 . S
C209 C208 1.338 . S
C209 H213 0.931 . S
C210 N207 1.313 . S
C210 N211 1.344 . S
C210 H214 0.930 . S
N211 C208 1.377 . S
N211 C210 1.344 . S
O212 Co204 2.055 . S
O212 C216 1.253 . S
H213 C209 0.931 . S
H214 C210 0.930 . S
O215 Co204 2.039 . S
O215 C205 1.265 . S
C216 O212 1.253 . S
C216 O217 1.227 . S
O217 C216 1.227 . S
N218 Co204 2.140 . S
N218 C221 1.346 . S
N218 C222 1.345 . S
C219 C220 1.387 . S
C219 C223 1.391 . S
C220 C219 1.387 . S
C220 C221 1.369 . S
C220 H229 0.929 . S
C221 N218 1.346 . S
C221 C220 1.369 . S
C221 H224 0.928 . S
C222 N218 1.345 . S
C222 C223 1.371 . S
C222 H225 0.931 . S
C223 C219 1.391 . S
C223 C222 1.371 . S
C223 H230 0.930 . S
H224 C221 0.928 . S
H225 C222 0.931 . S
H226 C202 0.930 . S
H227 C199 0.930 . S
H228 C208 0.930 . S
H229 C220 0.929 . S
H230 C223 0.930 . S
C231 C232 1.351 . S
C231 N234 1.368 . S
C231 H236 0.931 . S
C232 C231 1.351 . S
C232 N233 1.373 . S
C232 H260 0.930 . S
N233 C232 1.373 . S
N233 C235 1.340 . S
N234 C231 1.368 . S
N234 C235 1.321 . S
N234 Co237 2.135 . S
C235 N233 1.340 . S
C235 N234 1.321 . S
C235 H259 0.930 . S
H236 C231 0.931 . S
Co237 N234 2.135 . S
Co237 N240 2.121 . S
Co237 O245 2.055 . S
Co237 O248 2.039 . S
Co237 N251 2.140 . S
C238 O239 1.227 1_556 S
C238 O248 1.265 . S
O239 C238 1.227 1_554 S
N240 Co237 2.121 . S
N240 C242 1.375 1_556 S
N240 C243 1.313 . S
C241 C242 1.338 . S
C241 N244 1.377 1_554 S
C241 H261 0.930 . S
C242 N240 1.375 1_554 S
C242 C241 1.338 . S
C242 H246 0.931 . S
C243 N240 1.313 . S
C243 N244 1.344 . S
C243 H247 0.930 . S
N244 C241 1.377 1_556 S
N244 C243 1.344 . S
O245 Co237 2.055 . S
O245 C249 1.253 . S
H246 C242 0.931 . S
H247 C243 0.930 . S
O248 Co237 2.039 . S
O248 C238 1.265 . S
C249 O245 1.253 . S
C249 O250 1.227 . S
O250 C249 1.227 . S
N251 Co237 2.140 . S
N251 C254 1.346 . S
N251 C255 1.345 . S
C252 C253 1.387 . S
C252 C256 1.391 . S
C253 C252 1.387 . S
C253 C254 1.369 . S
C253 H262 0.929 . S
C254 N251 1.346 . S
C254 C253 1.369 . S
C254 H257 0.928 . S
C255 N251 1.345 . S
C255 C256 1.371 . S
C255 H258 0.931 . S
C256 C252 1.391 . S
C256 C255 1.371 . S
C256 H263 0.930 . S
H257 C254 0.928 . S
H258 C255 0.931 . S
H259 C235 0.930 . S
H260 C232 0.930 . S
H261 C241 0.930 . S
H262 C253 0.929 . S
H263 C256 0.930 . S
H264 C272 0.950 . S
H265 C277 0.950 . S
H266 C274 0.950 . S
H267 C276 0.950 . S
H268 C278 0.950 . S
H269 C280 0.950 . S
H270 C282 0.950 . S
H271 C283 0.950 1_565 S
C272 H264 0.950 . S
C272 C273 1.386 . S
C272 C274 1.391 . S
C273 C272 1.386 . S
C273 C277 1.393 1_565 S
C274 H266 0.950 . S
C274 C272 1.391 . S
C274 C275 1.400 . S
C275 C274 1.400 . S
C275 C276 1.398 1_565 S
C275 C281 1.491 1_565 S
C276 H267 0.950 . S
C276 C275 1.398 1_545 S
C276 C277 1.391 . S
C277 H265 0.950 . S
C277 C273 1.393 1_545 S
C277 C276 1.391 . S
C278 H268 0.950 . S
C278 C279 1.386 . S
C278 C280 1.391 . S
C279 C278 1.386 . S
C279 C283 1.393 . S
C280 H269 0.950 . S
C280 C278 1.391 . S
C280 C281 1.400 . S
C281 C275 1.491 1_545 S
C281 C280 1.400 . S
C281 C282 1.398 1_545 S
C282 H270 0.950 . S
C282 C281 1.398 1_565 S
C282 C283 1.391 1_565 S
C283 H271 0.950 1_545 S
C283 C279 1.393 . S
C283 C282 1.391 1_545 S
H284 C292 0.950 . S
H285 C297 0.950 1_565 S
H286 C294 0.950 . S
H287 C296 0.950 . S
H288 C298 0.950 . S
H289 C300 0.950 . S
H290 C302 0.950 . S
H291 C303 0.950 . S
C292 H284 0.950 . S
C292 C293 1.386 . S
C292 C294 1.391 . S
C293 C292 1.386 . S
C293 C297 1.393 . S
C294 H286 0.950 . S
C294 C292 1.391 . S
C294 C295 1.400 . S
C295 C294 1.400 . S
C295 C296 1.398 1_545 S
C295 C301 1.479 1_545 S
C296 H287 0.950 . S
C296 C295 1.398 1_565 S
C296 C297 1.391 1_565 S
C297 H285 0.950 1_545 S
C297 C293 1.393 . S
C297 C296 1.391 1_545 S
C298 H288 0.950 . S
C298 C299 1.386 . S
C298 C300 1.391 . S
C299 C298 1.386 . S
C299 C303 1.393 1_565 S
C300 H289 0.950 . S
C300 C298 1.391 . S
C300 C301 1.433 . S
C301 C295 1.479 1_565 S
C301 C300 1.433 . S
C301 C302 1.378 1_565 S
C302 H290 0.950 . S
C302 C301 1.378 1_545 S
C302 C303 1.391 . S
C303 H291 0.950 . S
C303 C299 1.393 1_545 S
C303 C302 1.391 . S
H304 C312 0.950 . S
H305 C317 0.950 . S
H306 C314 0.950 . S
H307 C316 0.950 1_545 S
H308 C318 0.950 . S
H309 C320 0.950 . S
H310 C322 0.950 . S
H311 C323 0.950 1_565 S
C312 H304 0.950 . S
C312 C313 1.386 . S
C312 C314 1.391 . S
C313 C312 1.386 . S
C313 C317 1.393 . S
C314 H306 0.950 . S
C314 C312 1.391 . S
C314 C315 1.400 . S
C315 C314 1.400 . S
C315 C316 1.398 . S
C315 C321 1.491 1_565 S
C316 H307 0.950 1_565 S
C316 C315 1.398 . S
C316 C317 1.391 . S
C317 H305 0.950 . S
C317 C313 1.393 . S
C317 C316 1.391 . S
C318 H308 0.950 . S
C318 C319 1.386 . S
C318 C320 1.391 . S
C319 C318 1.386 . S
C319 C323 1.393 . S
C320 H309 0.950 . S
C320 C318 1.391 . S
C320 C321 1.400 . S
C321 C315 1.491 1_545 S
C321 C320 1.400 . S
C321 C322 1.398 1_545 S
C322 H310 0.950 . S
C322 C321 1.398 1_565 S
C322 C323 1.391 1_565 S
C323 H311 0.950 1_545 S
C323 C319 1.393 . S
C323 C322 1.391 1_545 S
H324 C332 0.950 . S
H325 C337 0.950 . S
H326 C334 0.950 . S
H327 C336 0.950 1_545 S
H328 C338 0.950 . S
H329 C340 0.950 . S
H330 C342 0.950 . S
H331 C343 0.956 . S
C332 H324 0.950 . S
C332 C333 1.386 . S
C332 C334 1.391 . S
C333 C332 1.386 . S
C333 C337 1.393 . S
C334 H326 0.950 . S
C334 C332 1.391 . S
C334 C335 1.400 . S
C335 C334 1.400 . S
C335 C336 1.398 . S
C335 C341 1.491 1_565 S
C336 H327 0.950 1_565 S
C336 C335 1.398 . S
C336 C337 1.391 . S
C337 H325 0.950 . S
C337 C333 1.393 . S
C337 C336 1.391 . S
C338 H328 0.950 . S
C338 C339 1.386 . S
C338 C340 1.391 . S
C339 C338 1.386 . S
C339 C343 1.393 . S
C340 H329 0.950 . S
C340 C338 1.391 . S
C340 C341 1.400 . S
C341 C335 1.491 1_545 S
C341 C340 1.400 . S
C341 C342 1.398 1_545 S
C342 H330 0.950 . S
C342 C341 1.398 1_565 S
C342 C343 1.391 1_565 S
C343 H331 0.956 . S
C343 C339 1.393 . S
C343 C342 1.391 1_545 S
H344 C352 0.950 . S
H345 C357 0.950 . S
H346 C354 0.950 . S
H347 C356 0.950 . S
H348 C358 0.950 . S
H349 C360 0.950 . S
H350 C362 0.950 . S
H351 C363 0.950 . S
C352 H344 0.950 . S
C352 C353 1.386 . S
C352 C354 1.391 . S
C353 C352 1.386 . S
C353 C357 1.393 . S
C354 H346 0.950 . S
C354 C352 1.391 . S
C354 C355 1.400 . S
C355 C354 1.400 . S
C355 C356 1.398 . S
C355 C361 1.491 . S
C356 H347 0.950 . S
C356 C355 1.398 . S
C356 C357 1.391 . S
C357 H345 0.950 . S
C357 C353 1.393 . S
C357 C356 1.391 . S
C358 H348 0.950 . S
C358 C359 1.386 . S
C358 C360 1.391 . S
C359 C358 1.386 . S
C359 C363 1.393 . S
C360 H349 0.950 . S
C360 C358 1.391 . S
C360 C361 1.400 . S
C361 C355 1.491 . S
C361 C360 1.400 . S
C361 C362 1.398 . S
C362 H350 0.950 . S
C362 C361 1.398 . S
C362 C363 1.391 . S
C363 H351 0.950 . S
C363 C359 1.393 . S
C363 C362 1.391 . S
H364 C372 0.950 . S
H365 C377 0.950 . S
H366 C374 0.950 . S
H367 C376 0.950 . S
H368 C378 0.950 . S
H369 C380 0.950 . S
H370 C382 0.950 . S
H371 C383 0.950 . S
C372 H364 0.950 . S
C372 C373 1.386 . S
C372 C374 1.391 . S
C373 C372 1.386 . S
C373 C377 1.393 . S
C374 H366 0.950 . S
C374 C372 1.391 . S
C374 C375 1.400 . S
C375 C374 1.400 . S
C375 C376 1.398 . S
C375 C381 1.491 . S
C376 H367 0.950 . S
C376 C375 1.398 . S
C376 C377 1.391 . S
C377 H365 0.950 . S
C377 C373 1.393 . S
C377 C376 1.391 . S
C378 H368 0.950 . S
C378 C379 1.386 . S
C378 C380 1.391 . S
C379 C378 1.386 . S
C379 C383 1.393 . S
C380 H369 0.950 . S
C380 C378 1.391 . S
C380 C381 1.400 . S
C381 C375 1.491 . S
C381 C380 1.400 . S
C381 C382 1.398 . S
C382 H370 0.950 . S
C382 C381 1.398 . S
C382 C383 1.391 . S
C383 H371 0.950 . S
C383 C379 1.393 . S
C383 C382 1.391 . S
H384 C392 0.950 . S
H385 C397 0.961 . S
H386 C394 0.950 . S
H387 C396 0.950 . S
H388 C398 0.950 . S
H389 C400 0.950 . S
H390 C402 0.950 . S
H391 C403 0.950 . S
C392 H384 0.950 . S
C392 C393 1.386 . S
C392 C394 1.391 . S
C393 C392 1.386 . S
C393 C397 1.393 . S
C394 H386 0.950 . S
C394 C392 1.391 . S
C394 C395 1.400 . S
C395 C394 1.400 . S
C395 C396 1.398 . S
C395 C401 1.491 . S
C396 H387 0.950 . S
C396 C395 1.398 . S
C396 C397 1.391 . S
C397 H385 0.961 . S
C397 C393 1.393 . S
C397 C396 1.391 . S
C398 H388 0.950 . S
C398 C399 1.386 . S
C398 C400 1.391 . S
C399 C398 1.386 . S
C399 C403 1.393 . S
C400 H389 0.950 . S
C400 C398 1.391 . S
C400 C401 1.400 . S
C401 C395 1.491 . S
C401 C400 1.400 . S
C401 C402 1.398 . S
C402 H390 0.950 . S
C402 C401 1.398 . S
C402 C403 1.391 . S
C403 H391 0.950 . S
C403 C399 1.393 . S
C403 C402 1.391 . S
H404 C412 0.950 . S
H405 C417 0.950 . S
H406 C414 0.950 . S
H407 C416 0.950 . S
H408 C418 0.950 . S
H409 C420 0.950 . S
H410 C422 0.950 . S
H411 C423 0.950 . S
C412 H404 0.950 . S
C412 C413 1.386 . S
C412 C414 1.391 . S
C413 C412 1.386 . S
C413 C417 1.393 . S
C414 H406 0.950 . S
C414 C412 1.391 . S
C414 C415 1.400 . S
C415 C414 1.400 . S
C415 C416 1.398 . S
C415 C421 1.491 . S
C416 H407 0.950 . S
C416 C415 1.398 . S
C416 C417 1.391 . S
C417 H405 0.950 . S
C417 C413 1.393 . S
C417 C416 1.391 . S
C418 H408 0.950 . S
C418 C419 1.386 . S
C418 C420 1.391 . S
C419 C418 1.386 . S
C419 C423 1.393 . S
C420 H409 0.950 . S
C420 C418 1.391 . S
C420 C421 1.400 . S
C421 C415 1.491 . S
C421 C420 1.400 . S
C421 C422 1.398 . S
C422 H410 0.950 . S
C422 C421 1.398 . S
C422 C423 1.391 . S
C423 H411 0.950 . S
C423 C419 1.393 . S
C423 C422 1.391 . S
H424 C432 0.950 1_545 S
H425 C437 0.950 . S
H426 C434 0.950 . S
H427 C436 0.950 . S
H428 C438 0.950 1_565 S
H429 C440 0.950 . S
H430 C442 0.950 . S
H431 C443 0.950 . S
C432 H424 0.950 1_565 S
C432 C433 1.386 . S
C432 C434 1.391 1_565 S
C433 C432 1.386 . S
C433 C437 1.393 . S
C434 H426 0.950 . S
C434 C432 1.391 1_545 S
C434 C435 1.400 1_545 S
C435 C434 1.400 1_565 S
C435 C436 1.398 . S
C435 C441 1.491 1_565 S
C436 H427 0.950 . S
C436 C435 1.398 . S
C436 C437 1.391 . S
C437 H425 0.950 . S
C437 C433 1.393 . S
C437 C436 1.391 . S
C438 H428 0.950 1_545 S
C438 C439 1.386 . S
C438 C440 1.391 1_545 S
C439 C438 1.386 . S
C439 C443 1.393 . S
C440 H429 0.950 . S
C440 C438 1.391 1_565 S
C440 C441 1.400 1_565 S
C441 C435 1.491 1_545 S
C441 C440 1.400 1_545 S
C441 C442 1.398 . S
C442 H430 0.950 . S
C442 C441 1.398 . S
C442 C443 1.391 . S
C443 H431 0.950 . S
C443 C439 1.393 . S
C443 C442 1.391 . S
H444 C452 0.950 . S
H445 C457 0.950 . S
H446 C454 0.950 1_545 S
H447 C456 0.950 . S
H448 C458 0.950 . S
H449 C460 0.950 1_565 S
H450 C462 0.950 . S
H451 C463 0.950 . S
C452 H444 0.950 . S
C452 C453 1.386 . S
C452 C454 1.391 . S
C453 C452 1.386 . S
C453 C457 1.393 1_556 S
C454 H446 0.950 1_565 S
C454 C452 1.391 . S
C454 C455 1.400 . S
C455 C454 1.400 . S
C455 C456 1.398 1_556 S
C455 C461 1.491 1_566 S
C456 H447 0.950 . S
C456 C455 1.398 1_554 S
C456 C457 1.391 . S
C457 H445 0.950 . S
C457 C453 1.393 1_554 S
C457 C456 1.391 . S
C458 H448 0.950 . S
C458 C459 1.386 . S
C458 C460 1.391 . S
C459 C458 1.386 . S
C459 C463 1.393 1_554 S
C460 H449 0.950 1_545 S
C460 C458 1.391 . S
C460 C461 1.400 . S
C461 C455 1.491 1_544 S
C461 C460 1.400 . S
C461 C462 1.398 1_554 S
C462 H450 0.950 . S
C462 C461 1.398 1_556 S
C462 C463 1.391 . S
C463 H451 0.950 . S
C463 C459 1.393 1_556 S
C463 C462 1.391 . S
H464 C472 0.950 . S
H465 C477 0.950 . S
H466 C474 0.950 1_455 S
H467 C476 0.950 . S
H468 C478 0.950 . S
H469 C480 0.950 1_655 S
H470 C482 0.950 . S
H471 C483 0.950 . S
C472 H464 0.950 . S
C472 C473 1.386 . S
C472 C474 1.391 . S
C473 C472 1.386 . S
C473 C477 1.393 . S
C474 H466 0.950 1_655 S
C474 C472 1.391 . S
C474 C475 1.400 . S
C475 C474 1.400 . S
C475 C476 1.398 . S
C475 C481 1.491 1_655 S
C476 H467 0.950 . S
C476 C475 1.398 . S
C476 C477 1.391 . S
C477 H465 0.950 . S
C477 C473 1.393 . S
C477 C476 1.391 . S
C478 H468 0.950 . S
C478 C479 1.386 . S
C478 C480 1.391 . S
C479 C478 1.386 . S
C479 C483 1.393 . S
C480 H469 0.950 1_455 S
C480 C478 1.391 . S
C480 C481 1.400 . S
C481 C475 1.491 1_455 S
C481 C480 1.400 . S
C481 C482 1.398 . S
C482 H470 0.950 . S
C482 C481 1.398 . S
C482 C483 1.391 . S
C483 H471 0.950 . S
C483 C479 1.393 . S
C483 C482 1.391 . S
H484 C492 0.950 . S
H485 C497 0.950 . S
H486 C494 0.947 . S
H487 C496 0.950 . S
H488 C498 0.950 . S
H489 C500 0.947 . S
H490 C502 0.950 . S
H491 C503 0.950 . S
C492 H484 0.950 . S
C492 C493 1.386 . S
C492 C494 1.391 . S
C493 C492 1.386 . S
C493 C497 1.393 . S
C494 H486 0.947 . S
C494 C492 1.391 . S
C494 C495 1.400 . S
C495 C494 1.400 . S
C495 C496 1.398 . S
C495 C501 1.491 1_454 S
C496 H487 0.950 . S
C496 C495 1.398 . S
C496 C497 1.391 . S
C497 H485 0.950 . S
C497 C493 1.393 . S
C497 C496 1.391 . S
C498 H488 0.950 . S
C498 C499 1.386 . S
C498 C500 1.391 . S
C499 C498 1.386 . S
C499 C503 1.393 . S
C500 H489 0.947 . S
C500 C498 1.391 . S
C500 C501 1.400 . S
C501 C495 1.491 1_656 S
C501 C500 1.400 . S
C501 C502 1.398 . S
C502 H490 0.950 . S
C502 C501 1.398 . S
C502 C503 1.391 . S
C503 H491 0.950 . S
C503 C499 1.393 . S
C503 C502 1.391 . S
H504 C512 0.950 . S
H505 C517 0.950 . S
H506 C514 0.950 . S
H507 C516 0.950 . S
H508 C518 0.950 . S
H509 C520 0.950 . S
H510 C522 0.950 . S
H511 C523 0.950 . S
C512 H504 0.950 . S
C512 C513 1.386 . S
C512 C514 1.391 . S
C513 C512 1.386 . S
C513 C517 1.393 . S
C514 H506 0.950 . S
C514 C512 1.391 . S
C514 C515 1.400 . S
C515 C514 1.400 . S
C515 C516 1.398 . S
C515 C521 1.491 1_455 S
C516 H507 0.950 . S
C516 C515 1.398 . S
C516 C517 1.391 . S
C517 H505 0.950 . S
C517 C513 1.393 . S
C517 C516 1.391 . S
C518 H508 0.950 . S
C518 C519 1.386 . S
C518 C520 1.391 . S
C519 C518 1.386 . S
C519 C523 1.393 . S
C520 H509 0.950 . S
C520 C518 1.391 . S
C520 C521 1.400 . S
C521 C515 1.491 1_655 S
C521 C520 1.400 . S
C521 C522 1.398 . S
C522 H510 0.950 . S
C522 C521 1.398 . S
C522 C523 1.391 . S
C523 H511 0.950 . S
C523 C519 1.393 . S
C523 C522 1.391 . S
H524 C532 0.950 . S
H525 C537 0.950 . S
H526 C534 0.950 . S
H527 C536 0.950 . S
H528 C538 0.950 . S
H529 C540 0.950 . S
H530 C542 0.950 . S
H531 C543 0.950 . S
C532 H524 0.950 . S
C532 C533 1.386 . S
C532 C534 1.391 . S
C533 C532 1.386 . S
C533 C537 1.393 . S
C534 H526 0.950 . S
C534 C532 1.391 . S
C534 C535 1.400 . S
C535 C534 1.400 . S
C535 C536 1.398 . S
C535 C541 1.491 1_455 S
C536 H527 0.950 . S
C536 C535 1.398 . S
C536 C537 1.391 . S
C537 H525 0.950 . S
C537 C533 1.393 . S
C537 C536 1.391 . S
C538 H528 0.950 . S
C538 C539 1.386 . S
C538 C540 1.391 . S
C539 C538 1.386 . S
C539 C543 1.393 . S
C540 H529 0.950 . S
C540 C538 1.391 . S
C540 C541 1.400 . S
C541 C535 1.491 1_655 S
C541 C540 1.400 . S
C541 C542 1.398 . S
C542 H530 0.950 . S
C542 C541 1.398 . S
C542 C543 1.391 . S
C543 H531 0.950 . S
C543 C539 1.393 . S
C543 C542 1.391 . S
H544 C552 0.950 . S
H545 C557 0.950 . S
H546 C554 0.950 . S
H547 C556 0.950 . S
H548 C558 0.950 . S
H549 C560 0.950 . S
H550 C562 0.950 . S
H551 C563 0.950 . S
C552 H544 0.950 . S
C552 C553 1.386 . S
C552 C554 1.391 . S
C553 C552 1.386 . S
C553 C557 1.393 . S
C554 H546 0.950 . S
C554 C552 1.391 . S
C554 C555 1.400 . S
C555 C554 1.400 . S
C555 C556 1.398 . S
C555 C561 1.491 . S
C556 H547 0.950 . S
C556 C555 1.398 . S
C556 C557 1.391 . S
C557 H545 0.950 . S
C557 C553 1.393 . S
C557 C556 1.391 . S
C558 H548 0.950 . S
C558 C559 1.386 . S
C558 C560 1.391 . S
C559 C558 1.386 . S
C559 C563 1.393 . S
C560 H549 0.950 . S
C560 C558 1.391 . S
C560 C561 1.400 . S
C561 C555 1.491 . S
C561 C560 1.400 . S
C561 C562 1.398 . S
C562 H550 0.950 . S
C562 C561 1.398 . S
C562 C563 1.391 . S
C563 H551 0.950 . S
C563 C559 1.393 . S
C563 C562 1.391 . S
H564 C572 0.950 . S
H565 C577 0.950 . S
H566 C574 0.950 . S
H567 C576 0.950 . S
H568 C578 0.950 . S
H569 C580 0.950 . S
H570 C582 0.950 . S
H571 C583 0.950 . S
C572 H564 0.950 . S
C572 C573 1.386 . S
C572 C574 1.391 . S
C573 C572 1.386 . S
C573 C577 1.393 . S
C574 H566 0.950 . S
C574 C572 1.391 . S
C574 C575 1.400 . S
C575 C574 1.400 . S
C575 C576 1.398 . S
C575 C581 1.491 . S
C576 H567 0.950 . S
C576 C575 1.398 . S
C576 C577 1.391 . S
C577 H565 0.950 . S
C577 C573 1.393 . S
C577 C576 1.391 . S
C578 H568 0.950 . S
C578 C579 1.386 . S
C578 C580 1.391 . S
C579 C578 1.386 . S
C579 C583 1.393 . S
C580 H569 0.950 . S
C580 C578 1.391 . S
C580 C581 1.400 . S
C581 C575 1.491 . S
C581 C580 1.400 . S
C581 C582 1.398 . S
C582 H570 0.950 . S
C582 C581 1.398 . S
C582 C583 1.391 . S
C583 H571 0.950 . S
C583 C579 1.393 . S
C583 C582 1.391 . S
H584 C592 0.950 . S
H585 C597 0.950 . S
H586 C594 0.950 . S
H587 C596 0.950 . S
H588 C598 0.950 . S
H589 C600 0.950 . S
H590 C602 0.950 . S
H591 C603 0.950 . S
C592 H584 0.950 . S
C592 C593 1.386 . S
C592 C594 1.391 . S
C593 C592 1.386 . S
C593 C597 1.393 . S
C594 H586 0.950 . S
C594 C592 1.391 . S
C594 C595 1.400 . S
C595 C594 1.400 . S
C595 C596 1.398 . S
C595 C601 1.491 . S
C596 H587 0.950 . S
C596 C595 1.398 . S
C596 C597 1.391 . S
C597 H585 0.950 . S
C597 C593 1.393 . S
C597 C596 1.391 . S
C598 H588 0.950 . S
C598 C599 1.386 . S
C598 C600 1.391 . S
C599 C598 1.386 . S
C599 C603 1.393 . S
C600 H589 0.950 . S
C600 C598 1.391 . S
C600 C601 1.400 . S
C601 C595 1.491 . S
C601 C600 1.400 . S
C601 C602 1.398 . S
C602 H590 0.950 . S
C602 C601 1.398 . S
C602 C603 1.391 . S
C603 H591 0.950 . S
C603 C599 1.393 . S
C603 C602 1.391 . S
H604 C612 0.950 . S
H605 C617 0.950 . S
H606 C614 0.950 . S
H607 C616 0.950 . S
H608 C618 0.950 . S
H609 C620 0.950 . S
H610 C622 0.950 . S
H611 C623 0.950 . S
C612 H604 0.950 . S
C612 C613 1.386 . S
C612 C614 1.391 . S
C613 C612 1.386 . S
C613 C617 1.393 1_556 S
C614 H606 0.950 . S
C614 C612 1.391 . S
C614 C615 1.400 . S
C615 C614 1.400 . S
C615 C616 1.398 1_556 S
C615 C621 1.491 1_556 S
C616 H607 0.950 . S
C616 C615 1.398 1_554 S
C616 C617 1.391 . S
C617 H605 0.950 . S
C617 C613 1.393 1_554 S
C617 C616 1.391 . S
C618 H608 0.950 . S
C618 C619 1.386 . S
C618 C620 1.391 . S
C619 C618 1.386 . S
C619 C623 1.393 1_554 S
C620 H609 0.950 . S
C620 C618 1.391 . S
C620 C621 1.400 . S
C621 C615 1.491 1_554 S
C621 C620 1.400 . S
C621 C622 1.398 1_554 S
C622 H610 0.950 . S
C622 C621 1.398 1_556 S
C622 C623 1.391 . S
C623 H611 0.950 . S
C623 C619 1.393 1_556 S
C623 C622 1.391 . S
H624 C632 0.950 . S
H625 C637 0.950 . S
H626 C634 0.950 . S
H627 C636 0.950 . S
H628 C638 0.950 . S
H629 C640 0.950 . S
H630 C642 0.950 . S
H631 C643 0.950 . S
C632 H624 0.950 . S
C632 C633 1.386 . S
C632 C634 1.391 . S
C633 C632 1.386 . S
C633 C637 1.393 . S
C634 H626 0.950 . S
C634 C632 1.391 . S
C634 C635 1.400 . S
C635 C634 1.400 . S
C635 C636 1.398 . S
C635 C641 1.491 . S
C636 H627 0.950 . S
C636 C635 1.398 . S
C636 C637 1.391 . S
C637 H625 0.950 . S
C637 C633 1.393 . S
C637 C636 1.391 . S
C638 H628 0.950 . S
C638 C639 1.386 . S
C638 C640 1.391 . S
C639 C638 1.386 . S
C639 C643 1.393 . S
C640 H629 0.950 . S
C640 C638 1.391 . S
C640 C641 1.400 . S
C641 C635 1.491 . S
C641 C640 1.400 . S
C641 C642 1.398 . S
C642 H630 0.950 . S
C642 C641 1.398 . S
C642 C643 1.391 . S
C643 H631 0.950 . S
C643 C639 1.393 . S
C643 C642 1.391 . S
H644 C652 0.950 . S
H645 C657 0.950 . S
H646 C654 0.950 . S
H647 C656 0.950 . S
H648 C658 0.950 . S
H649 C660 0.950 . S
H650 C662 0.950 . S
H651 C663 0.950 . S
C652 H644 0.950 . S
C652 C653 1.386 . S
C652 C654 1.391 . S
C653 C652 1.386 . S
C653 C657 1.393 1_556 S
C654 H646 0.950 . S
C654 C652 1.391 . S
C654 C655 1.400 . S
C655 C654 1.400 . S
C655 C656 1.398 1_556 S
C655 C661 1.491 1_556 S
C656 H647 0.950 . S
C656 C655 1.398 1_554 S
C656 C657 1.391 . S
C657 H645 0.950 . S
C657 C653 1.393 1_554 S
C657 C656 1.391 . S
C658 H648 0.950 . S
C658 C659 1.386 . S
C658 C660 1.391 . S
C659 C658 1.386 . S
C659 C663 1.393 1_554 S
C660 H649 0.950 . S
C660 C658 1.391 . S
C660 C661 1.400 . S
C661 C655 1.491 1_554 S
C661 C660 1.400 . S
C661 C662 1.398 1_554 S
C662 H650 0.950 . S
C662 C661 1.398 1_556 S
C662 C663 1.391 . S
C663 H651 0.950 . S
C663 C659 1.393 1_556 S
C663 C662 1.391 . S
C273 C106 1.011 1_554 S
C279 C18 1.023 . S
C293 C51 1.024 . S
C299 C73 1.018 . S
C313 C84 1.022 . S
C319 C40 1.007 1_556 S
C333 C117 1.022 . S
C339 C7 1.006 . S
C353 C150 1.021 . S
C359 C238 1.003 1_554 S
C373 C183 1.026 . S
C379 C205 1.025 . S
C393 C172 1.003 1_556 S
C399 C216 1.020 . S
C413 C249 1.026 . S
C419 C139 1.025 . S
C433 N79 1.944 . S
C439 N13 1.944 . S
C453 N112 1.941 . S
C459 N46 1.941 . S
C473 N145 1.941 . S
C479 N211 1.941 . S
C493 N178 1.943 . S
C499 N244 1.943 . S
C513 N2 1.161 . S
C519 N35 1.157 . S
C533 N101 1.168 . S
C539 N68 1.176 . S
C553 N167 1.157 . S
C559 N134 1.156 . S
C573 N233 1.188 . S
C579 N200 1.193 . S
C593 C219 1.591 . S
C599 C21 1.591 . S
C613 C252 1.604 . S
C619 C54 1.604 . S
C633 C153 1.597 . S
C639 C87 1.597 . S
C653 C120 1.604 . S
C659 C186 1.604 . S
