# Generated by pormake.
# Topology wio, (6)-cn, num edge types: 1
# Building blocks:
#     Node 0, Type 0, BuildingBlock: GEDQOX_clean_sbu_0, # of connection points: 6
#     Node 1, Type 0, BuildingBlock: GEDQOX_clean_sbu_0, # of connection points: 6
#     Node 2, Type 0, BuildingBlock: GEDQOX_clean_sbu_0, # of connection points: 6
#     Node 3, Type 0, BuildingBlock: GEDQOX_clean_sbu_0, # of connection points: 6
#     Node 4, Type 0, BuildingBlock: GEDQOX_clean_sbu_0, # of connection points: 6
#     Node 5, Type 0, BuildingBlock: GEDQOX_clean_sbu_0, # of connection points: 6
#     Node 6, Type 0, BuildingBlock: GEDQOX_clean_sbu_0, # of connection points: 6
#     Node 7, Type 0, BuildingBlock: GEDQOX_clean_sbu_0, # of connection points: 6
#     Node 8, Type 0, BuildingBlock: GEDQOX_clean_sbu_0, # of connection points: 6
#     Node 9, Type 0, BuildingBlock: GEDQOX_clean_sbu_0, # of connection points: 6
#     Node 10, Type 0, BuildingBlock: GEDQOX_clean_sbu_0, # of connection points: 6
#     Node 11, Type 0, BuildingBlock: GEDQOX_clean_sbu_0, # of connection points: 6
#     Node 12, Type 0, BuildingBlock: GEDQOX_clean_sbu_0, # of connection points: 6
#     Node 13, Type 0, BuildingBlock: GEDQOX_clean_sbu_0, # of connection points: 6
#     Node 14, Type 0, BuildingBlock: GEDQOX_clean_sbu_0, # of connection points: 6
#     Node 15, Type 0, BuildingBlock: GEDQOX_clean_sbu_0, # of connection points: 6
#     Node 16, Type 0, BuildingBlock: GEDQOX_clean_sbu_0, # of connection points: 6
#     Node 17, Type 0, BuildingBlock: GEDQOX_clean_sbu_0, # of connection points: 6
#     Node 18, Type 0, BuildingBlock: GEDQOX_clean_sbu_0, # of connection points: 6
#     Node 19, Type 0, BuildingBlock: GEDQOX_clean_sbu_0, # of connection points: 6
#     Node 20, Type 0, BuildingBlock: GEDQOX_clean_sbu_0, # of connection points: 6
#     Node 21, Type 0, BuildingBlock: GEDQOX_clean_sbu_0, # of connection points: 6
#     Node 22, Type 0, BuildingBlock: GEDQOX_clean_sbu_0, # of connection points: 6
#     Node 23, Type 0, BuildingBlock: GEDQOX_clean_sbu_0, # of connection points: 6
#     Node 24, Type 0, BuildingBlock: GEDQOX_clean_sbu_0, # of connection points: 6
#     Node 25, Type 0, BuildingBlock: GEDQOX_clean_sbu_0, # of connection points: 6
#     Node 26, Type 0, BuildingBlock: GEDQOX_clean_sbu_0, # of connection points: 6
#     Node 27, Type 0, BuildingBlock: GEDQOX_clean_sbu_0, # of connection points: 6
#     Node 28, Type 0, BuildingBlock: GEDQOX_clean_sbu_0, # of connection points: 6
#     Node 29, Type 0, BuildingBlock: GEDQOX_clean_sbu_0, # of connection points: 6
#     Node 30, Type 0, BuildingBlock: GEDQOX_clean_sbu_0, # of connection points: 6
#     Node 31, Type 0, BuildingBlock: GEDQOX_clean_sbu_0, # of connection points: 6
#     Edge 32, Type (0, 0), None
#     Edge 33, Type (0, 0), None
#     Edge 34, Type (0, 0), None
#     Edge 35, Type (0, 0), None
#     Edge 36, Type (0, 0), None
#     Edge 37, Type (0, 0), None
#     Edge 38, Type (0, 0), None
#     Edge 39, Type (0, 0), None
#     Edge 40, Type (0, 0), None
#     Edge 41, Type (0, 0), None
#     Edge 42, Type (0, 0), None
#     Edge 43, Type (0, 0), None
#     Edge 44, Type (0, 0), None
#     Edge 45, Type (0, 0), None
#     Edge 46, Type (0, 0), None
#     Edge 47, Type (0, 0), None
#     Edge 48, Type (0, 0), None
#     Edge 49, Type (0, 0), None
#     Edge 50, Type (0, 0), None
#     Edge 51, Type (0, 0), None
#     Edge 52, Type (0, 0), None
#     Edge 53, Type (0, 0), None
#     Edge 54, Type (0, 0), None
#     Edge 55, Type (0, 0), None
#     Edge 56, Type (0, 0), None
#     Edge 57, Type (0, 0), None
#     Edge 58, Type (0, 0), None
#     Edge 59, Type (0, 0), None
#     Edge 60, Type (0, 0), None
#     Edge 61, Type (0, 0), None
#     Edge 62, Type (0, 0), None
#     Edge 63, Type (0, 0), None
#     Edge 64, Type (0, 0), None
#     Edge 65, Type (0, 0), None
#     Edge 66, Type (0, 0), None
#     Edge 67, Type (0, 0), None
#     Edge 68, Type (0, 0), None
#     Edge 69, Type (0, 0), None
#     Edge 70, Type (0, 0), None
#     Edge 71, Type (0, 0), None
#     Edge 72, Type (0, 0), None
#     Edge 73, Type (0, 0), None
#     Edge 74, Type (0, 0), None
#     Edge 75, Type (0, 0), None
#     Edge 76, Type (0, 0), None
#     Edge 77, Type (0, 0), None
#     Edge 78, Type (0, 0), None
#     Edge 79, Type (0, 0), None
#     Edge 80, Type (0, 0), None
#     Edge 81, Type (0, 0), None
#     Edge 82, Type (0, 0), None
#     Edge 83, Type (0, 0), None
#     Edge 84, Type (0, 0), None
#     Edge 85, Type (0, 0), None
#     Edge 86, Type (0, 0), None
#     Edge 87, Type (0, 0), None
#     Edge 88, Type (0, 0), None
#     Edge 89, Type (0, 0), None
#     Edge 90, Type (0, 0), None
#     Edge 91, Type (0, 0), None
#     Edge 92, Type (0, 0), None
#     Edge 93, Type (0, 0), None
#     Edge 94, Type (0, 0), None
#     Edge 95, Type (0, 0), None
#     Edge 96, Type (0, 0), None
#     Edge 97, Type (0, 0), None
#     Edge 98, Type (0, 0), None
#     Edge 99, Type (0, 0), None
#     Edge 100, Type (0, 0), None
#     Edge 101, Type (0, 0), None
#     Edge 102, Type (0, 0), None
#     Edge 103, Type (0, 0), None
#     Edge 104, Type (0, 0), None
#     Edge 105, Type (0, 0), None
#     Edge 106, Type (0, 0), None
#     Edge 107, Type (0, 0), None
#     Edge 108, Type (0, 0), None
#     Edge 109, Type (0, 0), None
#     Edge 110, Type (0, 0), None
#     Edge 111, Type (0, 0), None
#     Edge 112, Type (0, 0), None
#     Edge 113, Type (0, 0), None
#     Edge 114, Type (0, 0), None
#     Edge 115, Type (0, 0), None
#     Edge 116, Type (0, 0), None
#     Edge 117, Type (0, 0), None
#     Edge 118, Type (0, 0), None
#     Edge 119, Type (0, 0), None
#     Edge 120, Type (0, 0), None
#     Edge 121, Type (0, 0), None
#     Edge 122, Type (0, 0), None
#     Edge 123, Type (0, 0), None
#     Edge 124, Type (0, 0), None
#     Edge 125, Type (0, 0), None
#     Edge 126, Type (0, 0), None
#     Edge 127, Type (0, 0), None
# Relax obj value: 0.279
# Max RMSD: 0.273
# Mean RMSD: 0.273
data_MOF--net-wio--node1-GEDQOX_clean_sbu_0--edge1-none
_symmetry_space_group_name_H-M    P1
_symmetry_Int_Tables_number       1
_symmetry_cell_setting            triclinic
loop_
_symmetry_equiv_pos_as_xyz
'x, y, z'
_cell_length_a     24.215151
_cell_length_b     24.248078
_cell_length_c     38.041369
_cell_angle_alpha  89.784989
_cell_angle_beta   89.966067
_cell_angle_gamma 89.933945
loop_
_atom_site_label
_atom_site_type_symbol
_atom_site_fract_x
_atom_site_fract_y
_atom_site_fract_z
_atom_type_partial_charge
Nd0 Nd 0.07192 0.15672 0.3549 0.0
Nd1 Nd 0.11277 0.07799 0.38461 0.0
C2 C 0.05224 0.23072 0.30704 0.0
C3 C 0.06574 0.23027 0.26979 0.0
C4 C 0.0598 0.18183 0.25033 0.0
C5 C 0.07254 0.1816 0.21481 0.0
C6 C 0.08923 0.23044 0.19789 0.0
C7 C 0.09674 0.27854 0.21788 0.0
C8 C 0.08633 0.27799 0.25379 0.0
C9 C 0.13335 0.2016 0.40951 0.0
C10 C 0.18317 0.11298 0.31932 0.0
C11 C 0.14895 1.00608 0.43151 0.0
C12 C 0.15046 0.99117 0.46883 0.0
C13 C 0.15143 0.02999 0.49638 0.0
C14 C 0.15218 1.01188 0.53167 0.0
C15 C 0.1529 0.95511 0.53904 0.0
C16 C 0.15412 0.91736 0.51111 0.0
C17 C 0.1515 0.9351 0.47664 0.0
C18 C 0.0804 0.03059 0.31951 0.0
C19 C 0.99724 0.13586 0.41942 0.0
O20 O 1.01423 0.19614 0.31772 0.0
O21 O 0.09454 0.23402 0.32785 0.0
O22 O 0.08202 0.21222 0.40336 0.0
O23 O 0.15037 0.16335 0.38959 0.0
O24 O 0.13639 0.13817 0.31465 0.0
O25 O 0.19106 0.08751 0.34939 0.0
O26 O 0.17759 0.04864 0.42117 0.0
O27 O 0.10181 1.00082 0.41518 0.0
O28 O 0.12345 0.01891 0.33795 0.0
O29 O 0.0512 0.0666 0.33678 0.0
O30 O 0.04311 0.1073 0.42556 0.0
O31 O 0.99201 0.15617 0.38779 0.0
H32 H 0.04539 0.14408 0.26257 0.0
H33 H 0.06827 0.14328 0.20059 0.0
H34 H 0.10853 0.31724 0.2058 0.0
H35 H 0.0923 0.31539 0.26879 0.0
H36 H 0.15043 0.07377 0.49065 0.0
H37 H 0.15061 0.04164 0.5528 0.0
H38 H 0.15484 0.87332 0.51593 0.0
H39 H 0.14956 0.90456 0.45602 0.0
Nd40 Nd 0.1271 0.81526 0.60334 0.0
Nd41 Nd 0.20697 0.84984 0.63317 0.0
C42 C 0.08499 0.74851 0.55743 0.0
C43 C 0.0811 0.75643 0.51935 0.0
C44 C 0.10206 0.71669 0.49639 0.0
C45 C 0.09994 0.72558 0.46015 0.0
C46 C 0.07488 0.77355 0.44628 0.0
C47 C 0.05443 0.81325 0.46981 0.0
C48 C 0.0593 0.80564 0.50575 0.0
C49 C 0.07984 0.88034 0.65529 0.0
C50 C 0.14535 0.93094 0.57421 0.0
C51 C 0.27319 0.90163 0.67686 0.0
C52 C 0.28158 0.89641 0.71543 0.0
C53 C 0.26221 0.93677 0.73895 0.0
C54 C 0.27618 0.93405 0.77481 0.0
C55 C 0.31176 0.89259 0.78712 0.0
C56 C 0.32433 0.84863 0.76459 0.0
C57 C 0.30992 0.85058 0.72919 0.0
C58 C 0.24988 0.81149 0.56699 0.0
C59 C 0.14882 0.74007 0.67059 0.0
O60 O 0.13509 0.74113 0.56955 0.0
O61 O 0.05551 0.78244 0.57652 0.0
O62 O 0.06297 0.87868 0.62283 0.0
O63 O 0.12103 0.84755 0.65953 0.0
O64 O 0.10749 0.893 0.57484 0.0
O65 O 0.18835 0.92551 0.59554 0.0
O66 O 0.22686 0.92345 0.6659 0.0
O67 O 0.28836 0.85927 0.65804 0.0
O68 O 0.2703 0.79929 0.59782 0.0
O69 O 0.20636 0.83933 0.57295 0.0
O70 O 0.19109 0.77448 0.67224 0.0
O71 O 0.11555 0.74594 0.64403 0.0
H72 H 0.12066 0.67918 0.50648 0.0
H73 H 0.11825 0.69473 0.44333 0.0
H74 H 0.03317 0.84997 0.46102 0.0
H75 H 0.04404 0.83789 0.52284 0.0
H76 H 0.23806 0.97137 0.72946 0.0
H77 H 0.2616 0.96572 0.79214 0.0
H78 H 0.34984 0.81486 0.77377 0.0
H79 H 0.32363 0.81734 0.71239 0.0
Nd80 Nd 0.4662 0.87902 0.85095 0.0
Nd81 Nd 0.4133 0.94599 0.88355 0.0
C82 C 0.4998 0.81637 0.80054 0.0
C83 C 0.48325 0.81874 0.76375 0.0
C84 C 0.49801 0.86334 0.74219 0.0
C85 C 0.48342 0.86317 0.70691 0.0
C86 C 0.45582 0.81747 0.69265 0.0
C87 C 0.43799 0.77487 0.71493 0.0
C88 C 0.45017 0.77648 0.75036 0.0
C89 C 0.40861 0.82234 0.90451 0.0
C90 C 0.35108 0.90204 0.81625 0.0
C91 C 0.3619 1.00343 0.9327 0.0
C92 C 0.37024 0.02691 0.96778 0.0
C93 C 0.3711 0.99523 0.99903 0.0
C94 C 0.37738 0.02127 1.03182 0.0
C95 C 0.38297 0.07881 1.03322 0.0
C96 C 0.3808 0.10943 1.00171 0.0
C97 C 0.37503 0.08398 0.96969 0.0
C98 C 0.44044 1.00606 0.82201 0.0
C99 C 0.53844 0.90394 0.91503 0.0
O100 O 0.5307 0.85635 0.81243 0.0
O101 O 0.46088 0.80111 0.82211 0.0
O102 O 0.46151 0.82145 0.90005 0.0
O103 O 0.38762 0.8568 0.88341 0.0
O104 O 0.40273 0.89419 0.80885 0.0
O105 O 0.33892 0.91869 0.84821 0.0
O106 O 0.35707 0.95022 0.92974 0.0
O107 O 0.3908 0.02543 0.90736 0.0
O108 O 0.39428 1.00613 0.83886 0.0
O109 O 0.47411 0.97285 0.83819 0.0
O110 O 0.49018 0.92792 0.922 0.0
O111 O 0.54516 0.88523 0.88336 0.0
H112 H 0.52133 0.89789 0.75234 0.0
H113 H 0.49568 0.89776 0.69062 0.0
H114 H 0.41699 0.73876 0.70503 0.0
H115 H 0.43575 0.74316 0.76702 0.0
H116 H 0.36673 0.95081 0.99814 0.0
H117 H 0.3779 0.99682 0.0557 0.0
H118 H 0.38178 0.154 1.00147 0.0
H119 H 0.37358 0.10946 0.94626 0.0
Nd120 Nd 0.40058 0.22814 0.10203 0.0
Nd121 Nd 0.33834 0.16616 0.13359 0.0
C122 C 0.45077 0.28199 0.05169 0.0
C123 C 0.44598 0.27595 1.01345 0.0
C124 C 0.41908 0.31621 0.99319 0.0
C125 C 0.41331 0.30911 0.957 0.0
C126 C 0.43562 0.26223 0.9405 0.0
C127 C 0.46272 0.22232 0.96101 0.0
C128 C 0.46683 0.22855 0.99703 0.0
C129 C 0.46441 0.17536 0.15529 0.0
C130 C 0.38829 0.1107 0.06597 0.0
C131 C 0.28195 0.11167 0.18218 0.0
C132 C 0.26278 0.10983 0.21904 0.0
C133 C 0.29683 0.10527 0.24916 0.0
C134 C 0.27268 0.10345 0.28318 0.0
C135 C 0.21473 0.10325 0.28656 0.0
C136 C 0.18259 0.10286 0.25594 0.0
C137 C 0.20595 0.11026 0.22345 0.0
C138 C 0.28036 0.18777 0.06954 0.0
C139 C 0.37178 0.2891 0.16925 0.0
O140 O 0.40806 0.30264 0.06791 0.0
O141 O 0.47193 0.23987 0.0683 0.0
O142 O 0.46241 0.22788 0.14923 0.0
O143 O 0.43086 0.15148 0.13477 0.0
O144 O 0.40299 0.16174 0.0617 0.0
O145 O 0.36585 0.09598 0.09607 0.0
O146 O 0.33304 0.09977 0.17443 0.0
O147 O 0.26118 0.15058 0.16235 0.0
O148 O 0.28388 0.14167 0.08653 0.0
O149 O 0.30671 0.22469 0.08773 0.0
O150 O 0.3544 0.23812 0.17502 0.0
O151 O 0.38577 0.30147 0.13737 0.0
H152 H 0.40216 0.35287 1.00536 0.0
H153 H 0.39149 0.34033 0.94206 0.0
H154 H 0.48224 0.18661 0.94936 0.0
H155 H 0.48753 0.19635 1.0118 0.0
H156 H 0.34135 0.10495 0.2465 0.0
H157 H 0.29871 0.10389 0.3063 0.0
H158 H 0.13807 0.1003 0.25701 0.0
H159 H 0.1787 0.11689 0.2016 0.0
Nd160 Nd 0.08369 0.87109 0.24986 0.0
Nd161 Nd 0.10605 0.95763 0.21836 0.0
C162 C 0.04207 0.80621 0.29764 0.0
C163 C 0.05243 0.79828 0.33524 0.0
C164 C 0.05218 0.84328 0.35812 0.0
C165 C 0.06206 0.8355 0.39372 0.0
C166 C 0.06879 0.78202 0.40774 0.0
C167 C 0.06794 0.73687 0.38455 0.0
C168 C 0.06152 0.74518 0.34857 0.0
C169 C 0.14153 0.83313 0.19188 0.0
C170 C 0.19782 0.91185 0.27652 0.0
C171 C 0.15594 0.02232 0.1723 0.0
C172 C 0.15666 0.03643 0.1345 0.0
C173 C 0.15426 0.99722 0.10712 0.0
C174 C 0.15247 0.01477 0.07161 0.0
C175 C 0.15331 0.07144 0.06366 0.0
C176 C 0.15787 0.10938 0.09126 0.0
C177 C 0.15834 0.09233 0.1259 0.0
C178 C 0.06862 0.99674 0.28537 0.0
C179 C 0.99083 0.90383 0.19108 0.0
O180 O 0.0182 0.85237 0.28808 0.0
O181 O 0.08053 0.78958 0.27617 0.0
O182 O 0.15061 0.81797 0.22399 0.0
O183 O 0.10411 0.87088 0.19138 0.0
O184 O 0.16936 0.8669 0.27292 0.0
O185 O 0.18189 0.95505 0.25772 0.0
O186 O 0.17693 0.97533 0.18274 0.0
O187 O 0.11173 0.0367 0.18976 0.0
O188 O 0.0546 0.01828 0.2551 0.0
O189 O 0.0979 0.95424 0.27838 0.0
O190 O 0.02209 0.94806 0.1894 0.0
O191 O 1.00561 0.86481 0.2133 0.0
H192 H 0.04499 0.88479 0.34853 0.0
H193 H 0.06443 0.87197 0.40987 0.0
H194 H 0.07133 0.69485 0.39387 0.0
H195 H 0.06262 0.70982 0.33133 0.0
H196 H 0.15255 0.95358 0.11317 0.0
H197 H 0.14887 0.98465 0.0508 0.0
H198 H 0.16009 0.15326 0.08608 0.0
H199 H 0.15894 0.12369 0.14593 0.0
Nd200 Nd 0.4077 0.82436 0.49766 0.0
Nd201 Nd 0.32634 0.85687 0.46636 0.0
C202 C 0.45512 0.7681 0.54613 0.0
C203 C 0.45391 0.78213 0.58342 0.0
C204 C 0.40974 0.76515 0.60469 0.0
C205 C 0.40807 0.78029 0.63978 0.0
C206 C 0.45176 0.81048 0.65446 0.0
C207 C 0.49506 0.8287 0.63284 0.0
C208 C 0.49539 0.81579 0.59749 0.0
C209 C 0.45425 0.88962 0.44605 0.0
C210 C 0.38122 0.93859 0.52687 0.0
C211 C 0.26195 0.91382 0.42302 0.0
C212 C 0.24918 0.91845 0.38492 0.0
C213 C 0.28879 0.92983 0.35846 0.0
C214 C 0.27334 0.9305 0.3225 0.0
C215 C 0.21827 0.91982 0.31299 0.0
C216 C 0.17959 0.91016 0.33977 0.0
C217 C 0.19456 0.90944 0.3749 0.0
C218 C 0.28336 0.81373 0.53155 0.0
C219 C 0.38494 0.74422 0.43332 0.0
O220 O 0.40834 0.75147 0.53249 0.0
O221 O 0.48291 0.80218 0.52603 0.0
O222 O 0.47018 0.88879 0.47857 0.0
O223 O 0.41366 0.85624 0.44142 0.0
O224 O 0.42215 0.90428 0.52476 0.0
O225 O 0.33788 0.93011 0.50644 0.0
O226 O 0.30908 0.93257 0.43464 0.0
O227 O 0.24719 0.86779 0.43835 0.0
O228 O 0.26325 0.80358 0.50036 0.0
O229 O 0.32601 0.8434 0.52658 0.0
O230 O 0.34332 0.77935 0.43002 0.0
O231 O 0.41852 0.75167 0.45955 0.0
H232 H 0.37639 0.74038 0.5943 0.0
H233 H 0.37317 0.76718 0.65551 0.0
H234 H 0.53003 0.85104 0.64328 0.0
H235 H 0.52937 0.83054 0.5815 0.0
H236 H 0.33153 0.93691 0.36545 0.0
H237 H 0.30429 0.93755 0.30244 0.0
H238 H 0.13706 0.90208 0.33329 0.0
H239 H 0.16318 0.9006 0.39434 0.0
Nd240 Nd 0.4535 0.1543 0.74814 0.0
Nd241 Nd 0.41266 0.07622 0.71807 0.0
C242 C 0.46606 0.23469 0.793 0.0
C243 C 0.4512 0.2419 0.8298 0.0
C244 C 0.44333 0.19583 0.85145 0.0
C245 C 0.43339 0.20278 0.88706 0.0
C246 C 0.43423 0.25581 0.90193 0.0
C247 C 0.43931 0.30201 0.87973 0.0
C248 C 0.44642 0.295 0.84373 0.0
C249 C 0.40846 0.19663 0.68555 0.0
C250 C 0.33831 0.12128 0.77907 0.0
C251 C 0.37355 1.00677 0.67082 0.0
C252 C 0.37408 0.99328 0.63327 0.0
C253 C 0.3686 0.03297 0.60621 0.0
C254 C 0.36864 0.01643 0.57072 0.0
C255 C 0.37342 0.96027 0.56257 0.0
C256 C 0.37714 0.92138 0.58997 0.0
C257 C 0.37859 0.93776 0.6247 0.0
C258 C 0.43963 0.02788 0.78368 0.0
C259 C 0.53906 0.1194 0.69252 0.0
O260 O 0.50444 0.19814 0.78633 0.0
O261 O 0.42502 0.23322 0.77105 0.0
O262 O 0.45896 0.20267 0.69561 0.0
O263 O 0.38399 0.1642 0.70673 0.0
O264 O 0.38735 0.13664 0.78796 0.0
O265 O 0.33227 0.09732 0.74853 0.0
O266 O 0.34785 0.05141 0.68039 0.0
O267 O 0.41879 0.99765 0.68856 0.0
O268 O 0.39581 0.0196 0.76519 0.0
O269 O 0.47037 0.0638 0.76762 0.0
O270 O 0.49327 0.09259 0.68395 0.0
O271 O 0.53889 0.14599 0.72233 0.0
H272 H 0.44654 0.1544 0.84116 0.0
H273 H 0.42741 0.1663 0.90308 0.0
H274 H 0.44039 0.34347 0.89014 0.0
H275 H 0.45053 0.33109 0.82712 0.0
H276 H 0.36514 0.07638 0.61246 0.0
H277 H 0.36636 0.0471 0.55001 0.0
H278 H 0.38061 0.87777 0.58445 0.0
H279 H 0.3834 0.90681 0.64506 0.0
Nd280 Nd 0.13259 0.2155 0.99513 0.0
Nd281 Nd 0.19924 0.16523 0.96648 0.0
C282 C 0.08159 0.25798 1.04864 0.0
C283 C 0.08857 0.24727 0.08629 0.0
C284 C 0.12631 0.27773 0.10629 0.0
C285 C 0.12935 0.26971 0.14247 0.0
C286 C 0.09332 0.23255 0.15925 0.0
C287 C 0.05738 0.20052 0.13882 0.0
C288 C 0.05605 0.20686 0.10269 0.0
C289 C 0.07361 0.17356 0.93647 0.0
C290 C 0.14581 0.09569 1.02827 0.0
C291 C 0.2627 0.12075 0.91763 0.0
C292 C 0.26785 0.12158 0.879 0.0
C293 C 0.27474 0.07161 0.86117 0.0
C294 C 0.2895 0.0715 0.8257 0.0
C295 C 0.29717 0.12086 0.80733 0.0
C296 C 0.28555 0.17088 0.82436 0.0
C297 C 0.27076 0.17132 0.85995 0.0
C298 C 0.25245 0.18698 1.03218 0.0
C299 C 0.16188 0.28904 0.93326 0.0
O300 O 0.1212 0.28439 1.03258 0.0
O301 O 0.0616 0.21724 1.03036 0.0
O302 O 0.07288 0.22412 0.94737 0.0
O303 O 0.10736 0.14597 0.95564 0.0
O304 O 0.1151 0.13956 1.02777 0.0
O305 O 0.18372 0.09102 1.00389 0.0
O306 O 0.21931 0.09611 0.93053 0.0
O307 O 0.27561 0.1658 0.93452 0.0
O308 O 0.25134 0.14111 1.01513 0.0
O309 O 0.22471 0.22249 1.01375 0.0
O310 O 0.18825 0.24203 0.92778 0.0
O311 O 0.13618 0.2939 0.96286 0.0
H312 H 0.15276 0.30837 0.09417 0.0
H313 H 0.15883 0.29376 0.15729 0.0
H314 H 0.02815 0.17222 0.15059 0.0
H315 H 0.02727 0.18195 0.08784 0.0
H316 H 0.27312 0.03277 0.87533 0.0
H317 H 0.30264 0.03348 0.81407 0.0
H318 H 0.2933 0.2098 0.81116 0.0
H319 H 0.26534 0.21059 0.87298 0.0
Nd320 Nd 0.92929 0.95912 0.71872 0.0
Nd321 Nd 0.9647 0.88084 0.75127 0.0
C322 C 0.8727 0.0232 0.67534 0.0
C323 C 0.87069 0.03734 0.63765 0.0
C324 C 0.87321 0.99791 0.61043 0.0
C325 C 0.87598 0.01511 0.57496 0.0
C326 C 0.8758 0.07165 0.56685 0.0
C327 C 0.87106 0.11006 0.59426 0.0
C328 C 0.8695 0.09321 0.62903 0.0
C329 C 0.96582 1.00741 0.78348 0.0
C330 C 0.0413 0.89821 0.68454 0.0
C331 C 0.03403 0.84515 0.79828 0.0
C332 C 0.03191 0.85303 0.83639 0.0
C333 C 0.07592 0.87813 0.85411 0.0
C334 C 0.07177 0.88898 0.89006 0.0
C335 C 0.02354 0.87468 0.90853 0.0
C336 C 0.97986 0.84936 0.89057 0.0
C337 C 0.98376 0.83914 0.85493 0.0
C338 C 0.90214 0.8301 0.69915 0.0
C339 C 0.849 0.90002 0.77984 0.0
O340 O 0.85558 0.97452 0.68529 0.0
O341 O 0.91679 0.03935 0.6921 0.0
O342 O 0.97766 0.02622 0.75218 0.0
O343 O 0.93971 0.9624 0.77889 0.0
O344 O 1.00669 0.94051 0.68151 0.0
O345 O 0.03432 0.86571 0.71143 0.0
O346 O 0.04404 0.88994 0.77993 0.0
O347 O 0.99429 0.81507 0.78501 0.0
O348 O 0.90504 0.81319 0.73163 0.0
O349 O 0.93336 0.87232 0.69465 0.0
O350 O 0.88797 0.86324 0.78133 0.0
O351 O 0.85364 0.94032 0.75635 0.0
H352 H 0.87482 0.95429 0.61658 0.0
H353 H 0.88013 0.98478 0.55431 0.0
H354 H 0.87108 0.15391 0.58892 0.0
H355 H 0.86939 0.12427 0.64938 0.0
H356 H 0.11315 0.8897 0.84011 0.0
H357 H 0.10613 0.90838 0.90337 0.0
H358 H 0.94295 0.83583 0.90418 0.0
H359 H 0.94892 0.81985 0.84207 0.0
Nd360 Nd 0.82869 0.17923 0.47131 0.0
Nd361 Nd 0.90551 0.20859 0.50353 0.0
C362 C 0.76667 0.12202 0.42715 0.0
C363 C 0.7504 0.11908 0.38977 0.0
C364 C 0.78784 0.11767 0.3612 0.0
C365 C 0.76801 0.11797 0.32616 0.0
C366 C 0.71083 0.11963 0.31984 0.0
C367 C 0.67465 0.11916 0.34877 0.0
C368 C 0.69398 0.11908 0.38292 0.0
C369 C 0.78006 0.21136 0.53683 0.0
C370 C 0.88714 0.29264 0.44074 0.0
C371 C 0.94171 0.27884 0.55002 0.0
C372 C 0.93604 0.2797 0.58837 0.0
C373 C 0.9119 0.32512 0.60518 0.0
C374 C 0.90307 0.32393 0.64148 0.0
C375 C 0.91855 0.27731 0.66122 0.0
C376 C 0.94368 0.23254 0.64426 0.0
C377 C 0.95173 0.23343 0.60827 0.0
C378 C 0.95791 0.15243 0.44909 0.0
C379 C 0.88683 0.09476 0.5316 0.0
O380 O 0.81637 0.10683 0.43628 0.0
O381 O 0.74901 0.16488 0.44453 0.0
O382 O 0.76179 0.22615 0.50589 0.0
O383 O 0.82414 0.18402 0.53159 0.0
O384 O 0.84128 0.26302 0.43874 0.0
O385 O 0.92317 0.27677 0.46393 0.0
O386 O 0.89633 0.28811 0.53217 0.0
O387 O 0.97048 0.23784 0.5374 0.0
O388 O 0.97279 0.15016 0.48197 0.0
O389 O 0.91536 0.18381 0.4456 0.0
O390 O 0.92632 0.13078 0.53144 0.0
O391 O 0.84475 0.1033 0.50985 0.0
H392 H 0.83193 0.1178 0.3659 0.0
H393 H 0.7969 0.11912 0.30444 0.0
H394 H 0.63036 0.11958 0.34493 0.0
H395 H 0.6644 0.12031 0.40422 0.0
H396 H 0.89922 0.36104 0.59019 0.0
H397 H 0.88382 0.35908 0.65401 0.0
H398 H 0.95796 0.19681 0.65884 0.0
H399 H 0.97036 0.19758 0.59616 0.0
Nd400 Nd 0.61343 0.08413 0.21849 0.0
Nd401 Nd 0.56785 0.15704 0.25364 0.0
C402 C 0.65574 0.0195 0.16919 0.0
C403 C 0.6576 1.00462 0.13154 0.0
C404 C 0.65517 0.04318 0.10364 0.0
C405 C 0.65591 0.02494 0.06834 0.0
C406 C 0.66019 0.96826 0.06105 0.0
C407 C 0.66462 0.93091 0.08919 0.0
C408 C 0.66228 0.94868 0.12367 0.0
C409 C 0.58901 0.02996 0.28329 0.0
C410 C 0.49992 0.14999 0.18431 0.0
C411 C 0.51914 0.19978 0.3081 0.0
C412 C 0.51975 0.18407 0.34526 0.0
C413 C 0.47851 0.14971 0.35935 0.0
C414 C 0.48005 0.1348 0.39475 0.0
C415 C 0.5229 0.15404 0.41613 0.0
C416 C 0.56371 0.18859 0.40202 0.0
C417 C 0.56218 0.20347 0.36696 0.0
C418 C 0.62712 0.21331 0.20128 0.0
C419 C 0.68449 0.12937 0.28518 0.0
O420 O 0.67899 0.06531 0.17936 0.0
O421 O 0.61078 1.00762 0.1867 0.0
O422 O 0.63347 0.02618 0.26478 0.0
O423 O 0.55599 0.06326 0.26651 0.0
O424 O 0.53991 0.11309 0.17911 0.0
O425 O 0.49876 0.1739 0.21475 0.0
O426 O 0.49327 0.16671 0.28665 0.0
O427 O 0.56551 0.21891 0.29532 0.0
O428 O 0.57764 0.22584 0.21168 0.0
O429 O 0.645 0.17158 0.21799 0.0
O430 O 0.64367 0.16403 0.28655 0.0
O431 O 0.68648 0.09361 0.25899 0.0
H432 H 0.65132 0.08682 0.1091 0.0
H433 H 0.6514 0.05449 1.04712 0.0
H434 H 0.66716 0.88692 0.08457 0.0
H435 H 0.66287 0.91795 0.14419 0.0
H436 H 0.44498 0.13477 0.34315 0.0
H437 H 0.44763 0.10903 0.40553 0.0
H438 H 0.59599 0.20574 0.41839 0.0
H439 H 0.59411 0.23063 0.35702 0.0
Nd440 Nd 0.70729 0.8613 0.96566 0.0
Nd441 Nd 0.62806 0.82762 0.99774 0.0
C442 C 0.77052 0.9177 0.92176 0.0
C443 C 0.78604 0.91813 0.88429 0.0
C444 C 0.74781 0.91427 0.85634 0.0
C445 C 0.76672 0.91052 0.82128 0.0
C446 C 0.82369 0.91136 0.81434 0.0
C447 C 0.86071 0.91787 0.84239 0.0
C448 C 0.84227 0.91965 0.87673 0.0
C449 C 0.75474 0.82143 1.02983 0.0
C450 C 0.65581 0.74448 0.9355 0.0
C451 C 0.58017 0.77296 1.04696 0.0
C452 C 0.58069 0.78988 0.08388 0.0
C453 C 0.62413 0.77412 0.10609 0.0
C454 C 0.62504 0.79179 0.14076 0.0
C455 C 0.58088 0.82288 0.1544 0.0
C456 C 0.53873 0.84038 0.13156 0.0
C457 C 0.53975 0.82565 0.09649 0.0
C458 C 0.57869 0.88798 0.94402 0.0
C459 C 0.65126 0.94332 1.02613 0.0
O460 O 0.72093 0.93374 0.93064 0.0
O461 O 0.78789 0.87538 0.93995 0.0
O462 O 0.77346 0.81078 0.99841 0.0
O463 O 0.71031 0.8491 1.02582 0.0
O464 O 0.6951 0.78162 0.93098 0.0
O465 O 0.6221 0.75164 0.96177 0.0
O466 O 0.62752 0.75633 1.03407 0.0
O467 O 0.55246 0.80529 1.0257 0.0
O468 O 0.5639 0.88971 0.97674 0.0
O469 O 0.62022 0.85537 0.94043 0.0
O470 O 0.61259 0.90646 1.02613 0.0
O471 O 0.69315 0.93637 1.00423 0.0
H472 H 0.70391 0.91238 0.86165 0.0
H473 H 0.73741 0.90527 0.80007 0.0
H474 H 0.90481 0.91916 0.83792 0.0
H475 H 0.87247 0.92027 0.89758 0.0
H476 H 0.65762 0.74841 0.09673 0.0
H477 H 0.65983 0.77977 0.15687 0.0
H478 H 0.50336 0.86355 0.14063 0.0
H479 H 0.50693 0.84063 0.07965 0.0
Nd480 Nd 0.92108 0.07936 0.88447 0.0
Nd481 Nd 0.9333 0.17057 0.85039 0.0
C482 C 0.87498 0.01625 0.93348 0.0
C483 C 0.86978 0.01514 0.97253 0.0
C484 C 0.91579 0.0237 0.99425 0.0
C485 C 0.91252 1.01306 1.03043 0.0
C486 C 0.8635 0.99244 1.04574 0.0
C487 C 0.816 0.99005 1.02469 0.0
C488 C 0.81905 1.00169 0.98848 0.0
C489 C 0.96393 0.04219 0.81837 0.0
C490 C 0.02962 0.15188 0.91065 0.0
C491 C 0.95292 0.25118 0.80663 0.0
C492 C 0.93064 0.26216 0.77166 0.0
C493 C 0.90937 0.21839 0.75195 0.0
C494 C 0.89947 0.22527 0.7163 0.0
C495 C 0.91243 0.27549 0.69973 0.0
C496 C 0.92767 0.32101 0.72027 0.0
C497 C 0.93584 0.31448 0.75633 0.0
C498 C 0.86887 0.19559 0.90745 0.0
C499 C 0.8245 0.11348 0.82625 0.0
O500 O 0.84796 0.05474 0.91659 0.0
O501 O 0.92387 1.00674 0.9199 0.0
O502 O 0.97461 0.02077 0.84921 0.0
O503 O 0.93232 0.08421 0.82318 0.0
O504 O 1.00302 0.10461 0.91514 0.0
O505 O 1.01145 0.18499 0.88558 0.0
O506 O 0.98373 0.2069 0.80921 0.0
O507 O 0.91907 0.2571 0.83286 0.0
O508 O 0.8554 0.20708 0.87551 0.0
O509 O 0.9127 0.16627 0.90777 0.0
O510 O 0.85355 0.15787 0.82295 0.0
O511 O 0.84178 0.07438 0.84806 0.0
H512 H 0.95519 0.03555 0.98306 0.0
H513 H 0.95004 0.01602 1.04581 0.0
H514 H 0.77773 0.97489 1.03565 0.0
H515 H 0.78229 0.99738 0.97268 0.0
H516 H 0.90395 0.17788 0.76351 0.0
H517 H 0.88571 0.19003 0.70126 0.0
H518 H 0.93722 0.36042 0.70826 0.0
H519 H 0.94947 0.34942 0.77161 0.0
Nd520 Nd 0.70428 0.16766 0.63725 0.0
Nd521 Nd 0.61957 0.17923 0.60486 0.0
C522 C 0.76285 0.11409 0.68533 0.0
C523 C 0.7626 0.10886 0.72423 0.0
C524 C 0.75056 0.15436 0.74557 0.0
C525 C 0.76094 0.15203 0.78173 0.0
C526 C 0.78506 0.10473 0.79709 0.0
C527 C 0.78952 0.057 0.77667 0.0
C528 C 0.77801 0.05896 0.74048 0.0
C529 C 0.74512 0.20815 0.57153 0.0
C530 C 0.64239 0.28106 0.65956 0.0
C531 C 0.54561 0.19982 0.55739 0.0
C532 C 0.53501 0.17258 0.52427 0.0
C533 C 0.57882 0.1478 0.50626 0.0
C534 C 0.57239 0.13384 0.47126 0.0
C535 C 0.52241 0.14528 0.45412 0.0
C536 C 0.4764 0.16272 0.47356 0.0
C537 C 0.48271 0.17601 0.50887 0.0
C538 C 0.58392 0.1276 0.66529 0.0
C539 C 0.66899 0.06954 0.58135 0.0
O540 O 0.72134 0.09189 0.66866 0.0
O541 O 0.77732 0.16198 0.67209 0.0
O542 O 0.76435 0.22123 0.60258 0.0
O543 O 0.70426 0.17523 0.57611 0.0
O544 O 0.688 0.25266 0.66532 0.0
O545 O 0.60809 0.26147 0.63581 0.0
O546 O 0.59168 0.2278 0.55945 0.0
O547 O 0.53375 0.17192 0.58559 0.0
O548 O 0.57668 0.10821 0.63408 0.0
O549 O 0.61698 0.16874 0.66372 0.0
O550 O 0.62131 0.09206 0.58581 0.0
O551 O 0.71119 0.09328 0.59719 0.0
H552 H 0.73679 0.19291 0.73403 0.0
H553 H 0.75674 0.18964 0.79683 0.0
H554 H 0.80783 0.02032 0.7878 0.0
H555 H 0.7846 0.02245 0.72487 0.0
H556 H 0.61918 0.14362 0.51827 0.0
H557 H 0.60819 0.12007 0.45671 0.0
H558 H 0.43747 0.1718 0.46075 0.0
H559 H 0.44813 0.19332 0.52314 0.0
Nd560 Nd 0.61841 0.95226 0.38648 0.0
Nd561 Nd 0.5661 0.88388 0.35438 0.0
C562 C 0.66697 1.01002 0.43718 0.0
C563 C 0.67101 1.01196 0.47614 0.0
C564 C 0.62487 1.00191 0.49752 0.0
C565 C 0.62694 1.01324 0.53359 0.0
C566 C 0.67491 0.0357 0.549 0.0
C567 C 0.72272 0.03984 0.5283 0.0
C568 C 0.72079 0.02791 0.49219 0.0
C569 C 0.59086 1.00812 0.32219 0.0
C570 C 0.49334 0.90794 0.41744 0.0
C571 C 0.52765 0.83186 0.30037 0.0
C572 C 0.54631 0.83441 0.26383 0.0
C573 C 0.52645 0.87515 0.24089 0.0
C574 C 0.54214 0.87473 0.20577 0.0
C575 C 0.57516 0.83161 0.19263 0.0
C576 C 0.59757 0.79303 0.21631 0.0
C577 C 0.5847 0.79561 0.25168 0.0
C578 C 0.61311 0.82661 0.41162 0.0
C579 C 0.68516 0.90355 0.32085 0.0
O580 O 0.69032 0.96834 0.42151 0.0
O581 O 0.61972 0.0236 0.4228 0.0
O582 O 0.63742 1.00827 0.33866 0.0
O583 O 0.55781 0.97734 0.34042 0.0
O584 O 0.54139 0.93217 0.42453 0.0
O585 O 0.48723 0.88817 0.38612 0.0
O586 O 0.5027 0.87533 0.31285 0.0
O587 O 0.56223 0.80941 0.32245 0.0
O588 O 0.56196 0.82383 0.40183 0.0
O589 O 0.63869 0.8608 0.39198 0.0
O590 O 0.64117 0.87319 0.32042 0.0
O591 O 0.69065 0.93948 0.34643 0.0
H592 H 0.58622 0.98849 0.48609 0.0
H593 H 0.58924 1.00932 0.54875 0.0
H594 H 0.76009 0.05691 0.53929 0.0
H595 H 0.75749 0.03413 0.47647 0.0
H596 H 0.49851 0.90702 0.24989 0.0
H597 H 0.52668 0.90724 0.18889 0.0
H598 H 0.62269 0.75874 0.20775 0.0
H599 H 0.60234 0.76486 0.26909 0.0
Nd600 Nd 0.8303 0.85511 0.13106 0.0
Nd601 Nd 0.91493 0.84931 0.09978 0.0
C602 C 0.76418 0.90183 0.17775 0.0
C603 C 0.74918 0.90522 0.2154 0.0
C604 C 0.78736 0.90372 0.24354 0.0
C605 C 0.76851 0.90583 0.27884 0.0
C606 C 0.71156 0.90981 0.28583 0.0
C607 C 0.6749 0.91296 0.2573 0.0
C608 C 0.6932 0.9102 0.22297 0.0
C609 C 0.7904 0.82119 0.06423 0.0
C610 C 0.89528 0.74243 0.1515 0.0
C611 C 0.98958 0.83243 0.05155 0.0
C612 C 1.00201 0.85808 1.01792 0.0
C613 C 0.95936 0.88077 0.99777 0.0
C614 C 0.9683 0.89233 0.9625 0.0
C615 C 0.01964 0.88042 0.94698 0.0
C616 C 0.06407 0.86428 0.9684 0.0
C617 C 0.05528 0.85378 1.00399 0.0
C618 C 0.94756 0.89501 0.16284 0.0
C619 C 0.86751 0.95912 0.0787 0.0
O620 O 0.81031 0.92431 0.1671 0.0
O621 O 0.75199 0.85621 0.16123 0.0
O622 O 0.77262 0.80279 0.09456 0.0
O623 O 0.83063 0.85445 0.07001 0.0
O624 O 0.84802 0.76827 0.1566 0.0
O625 O 0.9301 0.7657 0.1293 0.0
O626 O 0.94362 0.80428 0.05341 0.0
O627 O 1.00002 0.86104 0.07956 0.0
O628 O 0.954 0.9186 0.1326 0.0
O629 O 0.91653 0.85279 0.15913 0.0
O630 O 0.91537 0.93853 0.08519 0.0
O631 O 0.82497 0.93236 0.09229 0.0
H632 H 0.83114 0.89976 0.2383 0.0
H633 H 0.79778 0.90244 0.30025 0.0
H634 H 0.63088 0.91649 0.26156 0.0
H635 H 0.6628 0.91108 0.2023 0.0
H636 H 0.91823 0.88572 1.00858 0.0
H637 H 0.93368 0.90602 0.94681 0.0
H638 H 0.10414 0.85492 0.95726 0.0
H639 H 0.08893 0.83794 1.01983 0.0
Nd640 Nd 0.58649 0.65243 0.85396 0.0
Nd641 Nd 0.60374 0.57769 0.88308 0.0
C642 C 0.52539 0.69279 0.80514 0.0
C643 C 0.53775 0.68952 0.76759 0.0
C644 C 0.5167 0.64655 0.74703 0.0
C645 C 0.52943 0.64402 0.71142 0.0
C646 C 0.56138 0.68578 0.69566 0.0
C647 C 0.58344 0.72774 0.7167 0.0
C648 C 0.5733 0.72849 0.75235 0.0
C649 C 0.64279 0.702 0.90784 0.0
C650 C 0.6969 0.6339 0.82571 0.0
C651 C 0.65467 0.50983 0.92694 0.0
C652 C 0.65625 0.49259 0.96403 0.0
C653 C 0.65391 0.52881 0.99307 0.0
C654 C 0.65334 0.50748 1.02779 0.0
C655 C 0.65512 0.4501 1.0332 0.0
C656 C 0.65963 0.41546 1.00366 0.0
C657 C 0.65913 0.43622 0.96994 0.0
C658 C 0.57864 0.53113 0.81589 0.0
C659 C 0.4956 0.64336 0.91322 0.0
O660 O 0.51186 0.6463 0.8207 0.0
O661 O 0.55959 0.72326 0.82333 0.0
O662 O 0.65089 0.71318 0.8748 0.0
O663 O 0.60786 0.66245 0.91168 0.0
O664 O 0.66524 0.67646 0.82846 0.0
O665 O 0.68194 0.58989 0.84457 0.0
O666 O 0.67435 0.55803 0.91833 0.0
O667 O 0.61033 0.49661 0.90946 0.0
O668 O 0.55418 0.516 0.84504 0.0
O669 O 0.60908 0.57183 0.82385 0.0
O670 O 0.51786 0.5935 0.91312 0.0
O671 O 0.51875 0.6788 0.89228 0.0
H672 H 0.49055 0.61495 0.75839 0.0
H673 H 0.51334 0.60992 0.69631 0.0
H674 H 0.60697 0.76161 0.7058 0.0
H675 H 0.59153 0.76139 0.76761 0.0
H676 H 0.65147 0.57295 0.98892 0.0
H677 H 0.64999 0.53524 1.04991 0.0
H678 H 0.66347 0.37118 1.00637 0.0
H679 H 0.66039 0.40765 0.94821 0.0
Nd680 Nd 0.63601 0.30389 0.1046 0.0
Nd681 Nd 0.70039 0.36496 0.13583 0.0
C682 C 0.58796 0.24826 0.05445 0.0
C683 C 0.59307 0.25387 1.01618 0.0
C684 C 0.61839 0.21237 0.9963 0.0
C685 C 0.62369 0.21848 0.95996 0.0
C686 C 0.60258 0.26566 0.94298 0.0
C687 C 0.57736 0.30698 0.96315 0.0
C688 C 0.57362 0.30165 0.99929 0.0
C689 C 0.57261 0.35708 0.15729 0.0
C690 C 0.64944 0.42157 0.06762 0.0
C691 C 0.76327 0.41229 0.18419 0.0
C692 C 0.77651 0.41748 0.22211 0.0
C693 C 0.73716 0.41695 0.24956 0.0
C694 C 0.75461 0.41999 0.28509 0.0
C695 C 0.81108 0.42626 0.29298 0.0
C696 C 0.84887 0.42961 0.2652 0.0
C697 C 0.83213 0.4227 0.23072 0.0
C698 C 0.75539 0.34137 0.07088 0.0
C699 C 0.65835 0.24609 0.17396 0.0
O700 O 0.63101 0.22897 0.07102 0.0
O701 O 0.56545 0.28992 0.07062 0.0
O702 O 0.57082 0.30525 0.14928 0.0
O703 O 0.60811 0.38115 0.13796 0.0
O704 O 0.63001 0.37183 0.06511 0.0
O705 O 0.67618 0.43546 0.09652 0.0
O706 O 0.7182 0.4349 0.17191 0.0
O707 O 0.77583 0.36576 0.16882 0.0
O708 O 0.75356 0.38764 0.08752 0.0
O709 O 0.72925 0.30545 0.09005 0.0
O710 O 0.6712 0.29854 0.17898 0.0
O711 O 0.65243 0.23172 0.14146 0.0
H712 H 0.63419 0.17541 1.00885 0.0
H713 H 0.64411 0.18619 0.94528 0.0
H714 H 0.55887 0.34307 0.95112 0.0
H715 H 0.55402 0.33469 1.01377 0.0
H716 H 0.6937 0.41209 0.24366 0.0
H717 H 0.72466 0.41562 0.30605 0.0
H718 H 0.89259 0.43328 0.27047 0.0
H719 H 0.86338 0.41947 0.21076 0.0
Nd720 Nd 0.95394 0.37771 0.35241 0.0
Nd721 Nd 0.92504 0.45511 0.38563 0.0
C722 C 0.97353 0.31495 0.29848 0.0
C723 C 0.95887 0.31329 0.26159 0.0
C724 C 0.96678 0.35917 0.23983 0.0
C725 C 0.95814 0.35457 0.20396 0.0
C726 C 0.94351 0.3035 0.18927 0.0
C727 C 0.93408 0.25811 0.21155 0.0
C728 C 0.94071 0.26337 0.24755 0.0
C729 C 0.9096 0.32848 0.41169 0.0
C730 C 0.83609 0.41605 0.32787 0.0
C731 C 0.89408 0.52383 0.43592 0.0
C732 C 0.89345 0.52969 0.47467 0.0
C733 C 0.94203 0.54134 0.49333 0.0
C734 C 0.93927 0.55805 0.52838 0.0
C735 C 0.88805 0.56328 0.54545 0.0
C736 C 0.84007 0.54619 0.52804 0.0
C737 C 0.8427 0.52987 0.49278 0.0
C738 C 0.94986 0.50544 0.31915 0.0
C739 C 0.03898 0.38566 0.41468 0.0
O740 O 1.00792 0.35317 0.30871 0.0
O741 O 0.93403 0.30463 0.32062 0.0
O742 O 0.95691 0.31655 0.3979 0.0
O743 O 0.88715 0.36952 0.39597 0.0
O744 O 0.86915 0.37419 0.32822 0.0
O745 O 0.8472 0.45662 0.34944 0.0
O746 O 0.86164 0.48647 0.42254 0.0
O747 O 0.94152 0.52752 0.41951 0.0
O748 O 0.90995 0.51767 0.34019 0.0
O749 O 0.97892 0.46717 0.33445 0.0
O750 O 1.00222 0.42498 0.42178 0.0
O751 O 0.03226 0.36033 0.38475 0.0
H752 H 0.9807 0.39819 0.25036 0.0
H753 H 0.96426 0.39085 0.1878 0.0
H754 H 0.92432 0.2177 0.20132 0.0
H755 H 0.93478 0.22753 0.26423 0.0
H756 H 0.98181 0.54141 0.4803 0.0
H757 H 0.9767 0.57224 0.54106 0.0
H758 H 0.80001 0.55134 0.5403 0.0
H759 H 0.80456 0.52121 0.47899 0.0
Nd760 Nd 0.90077 0.72744 0.60133 0.0
Nd761 Nd 0.82951 0.67602 0.63355 0.0
C762 C 0.95009 0.77156 0.54742 0.0
C763 C 0.936 0.76715 0.51001 0.0
C764 C 0.90511 0.80848 0.49315 0.0
C765 C 0.89198 0.80358 0.45761 0.0
C766 C 0.91054 0.7578 0.43834 0.0
C767 C 0.94074 0.71625 0.45557 0.0
C768 C 0.95272 0.72054 0.49101 0.0
C769 C 0.9563 0.67402 0.65759 0.0
C770 C 0.88349 0.60489 0.57321 0.0
C771 C 0.7602 0.63354 0.68019 0.0
C772 C 0.74828 0.6299 0.71804 0.0
C773 C 0.78914 0.63355 0.7444 0.0
C774 C 0.7741 0.63179 0.78027 0.0
C775 C 0.7183 0.6261 0.78968 0.0
C776 C 0.67847 0.62215 0.76291 0.0
C777 C 0.69324 0.62346 0.72773 0.0
C778 C 0.78204 0.70209 0.56634 0.0
C779 C 0.88224 0.79295 0.66958 0.0
O780 O 0.91651 0.80015 0.56712 0.0
O781 O 0.96693 0.72603 0.56246 0.0
O782 O 0.96459 0.72424 0.64705 0.0
O783 O 0.91963 0.65195 0.6385 0.0
O784 O 0.90181 0.65373 0.56523 0.0
O785 O 0.8546 0.59827 0.60217 0.0
O786 O 0.80346 0.60746 0.66845 0.0
O787 O 0.75229 0.6812 0.66485 0.0
O788 O 0.77905 0.65593 0.58315 0.0
O789 O 0.80863 0.73571 0.58643 0.0
O790 O 0.85761 0.74479 0.67544 0.0
O791 O 0.89818 0.80249 0.63749 0.0
H792 H 0.89133 0.84463 0.50733 0.0
H793 H 0.8681 0.83599 0.44518 0.0
H794 H 0.95739 0.68122 0.44152 0.0
H795 H 0.9766 0.68785 0.50318 0.0
H796 H 0.83212 0.63893 0.73728 0.0
H797 H 0.80541 0.63669 0.80033 0.0
H798 H 0.63497 0.62022 0.76907 0.0
H799 H 0.6612 0.62087 0.70795 0.0
Nd800 Nd 0.58247 0.36989 0.74846 0.0
Nd801 Nd 0.61829 0.44697 0.71566 0.0
C802 C 0.5735 0.29034 0.79493 0.0
C803 C 0.58767 0.28356 0.83186 0.0
C804 C 0.59718 0.32985 0.85278 0.0
C805 C 0.60625 0.32353 0.88854 0.0
C806 C 0.60337 0.27101 0.90429 0.0
C807 C 0.59608 0.22447 0.88286 0.0
C808 C 0.58939 0.23074 0.84673 0.0
C809 C 0.62052 0.32386 0.68518 0.0
C810 C 0.69663 0.41147 0.77737 0.0
C811 C 0.65396 0.5157 0.6661 0.0
C812 C 0.65979 0.52734 0.62816 0.0
C813 C 0.66139 0.48643 0.60184 0.0
C814 C 0.66721 0.50154 0.56604 0.0
C815 C 0.67264 0.55745 0.55659 0.0
C816 C 0.67118 0.59716 0.5834 0.0
C817 C 0.6654 0.58239 0.61845 0.0
C818 C 0.59019 0.49601 0.78206 0.0
C819 C 0.49327 0.3986 0.69321 0.0
O820 O 0.53421 0.32573 0.78791 0.0
O821 O 0.61486 0.29349 0.77324 0.0
O822 O 0.57179 0.31779 0.69823 0.0
O823 O 0.64723 0.35832 0.70401 0.0
O824 O 0.64897 0.39297 0.78693 0.0
O825 O 0.70083 0.43282 0.74581 0.0
O826 O 0.68369 0.4761 0.67942 0.0
O827 O 0.60517 0.51982 0.68056 0.0
O828 O 0.63219 0.5069 0.76232 0.0
O829 O 0.56075 0.45955 0.76587 0.0
O830 O 0.5387 0.42336 0.68172 0.0
O831 O 0.49581 0.37798 0.725 0.0
H832 H 0.59584 0.37105 0.8418 0.0
H833 H 0.61336 0.36021 0.90392 0.0
H834 H 0.59303 0.18344 0.89398 0.0
H835 H 0.58327 0.19444 0.83074 0.0
H836 H 0.657 0.44333 0.60886 0.0
H837 H 0.6656 0.4701 0.54593 0.0
H838 H 0.67146 0.64058 0.57725 0.0
H839 H 0.66409 0.6144 0.63813 0.0
Nd840 Nd 0.89764 0.30803 0.99311 0.0
Nd841 Nd 0.82999 0.3641 0.96594 0.0
C842 C 0.95762 0.2632 1.04134 0.0
C843 C 0.95246 0.27418 0.07898 0.0
C844 C 0.9148 0.24446 0.09965 0.0
C845 C 0.90938 0.25621 0.13518 0.0
C846 C 0.94324 0.2962 0.15088 0.0
C847 C 0.97996 0.32664 0.12986 0.0
C848 C 0.98317 0.31695 0.09413 0.0
C849 C 0.95064 0.35279 0.93256 0.0
C850 C 0.88349 0.4238 1.03143 0.0
C851 C 0.76993 0.41338 0.91653 0.0
C852 C 0.7659 0.41418 0.87759 0.0
C853 C 0.76667 0.36507 0.85812 0.0
C854 C 0.75291 0.36557 0.82238 0.0
C855 C 0.7384 0.41507 0.80533 0.0
C856 C 0.74327 0.46475 0.82389 0.0
C857 C 0.75682 0.4643 0.85979 0.0
C858 C 0.77932 0.34143 1.03241 0.0
C859 C 0.85579 0.23573 0.93576 0.0
O860 O 0.91717 0.23615 1.02679 0.0
O861 O 0.97571 0.30421 1.02221 0.0
O862 O 0.94897 0.30117 0.94115 0.0
O863 O 0.92182 0.37956 0.95479 0.0
O864 O 0.90695 0.37578 1.03242 0.0
O865 O 0.85197 0.43555 1.00431 0.0
O866 O 0.81376 0.43562 0.93041 0.0
O867 O 0.75503 0.36808 0.93273 0.0
O868 O 0.77823 0.38697 1.0147 0.0
O869 O 0.80635 0.30574 1.01376 0.0
O870 O 0.83742 0.28592 0.92833 0.0
O871 O 0.87763 0.22844 0.96624 0.0
H872 H 0.88937 0.2123 0.08844 0.0
H873 H 0.87923 0.23329 0.15031 0.0
H874 H 1.00773 0.35691 0.14088 0.0
H875 H 1.01148 0.34166 0.07866 0.0
H876 H 0.7741 0.32582 0.87094 0.0
H877 H 0.74786 0.32649 0.80902 0.0
H878 H 0.73071 0.50318 0.81169 0.0
H879 H 0.75654 0.50279 0.87414 0.0
Nd880 Nd 0.94144 0.66412 0.24553 0.0
Nd881 Nd 0.92245 0.57882 0.21653 0.0
C882 C 0.94517 0.74214 0.29255 0.0
C883 C 0.92185 0.74747 0.32757 0.0
C884 C 0.91015 0.69998 0.34715 0.0
C885 C 0.90065 0.70398 0.383 0.0
C886 C 0.90418 0.75539 0.39981 0.0
C887 C 0.91027 0.80343 0.37932 0.0
C888 C 0.91832 0.79941 0.34319 0.0
C889 C 0.9177 0.70091 0.17796 0.0
C890 C 0.82645 0.62216 0.26855 0.0
C891 C 0.87902 0.50643 0.17293 0.0
C892 C 0.87642 0.49021 0.13579 0.0
C893 C 0.8768 0.52754 0.10718 0.0
C894 C 0.87734 0.50756 0.07228 0.0
C895 C 0.87795 0.45038 0.06626 0.0
C896 C 0.87559 0.41436 0.09534 0.0
C897 C 0.87543 0.43387 0.12932 0.0
C898 C 0.95951 0.5401 0.28441 0.0
C899 C 0.04119 0.63313 0.19508 0.0
O900 O 0.98326 0.70421 0.2892 0.0
O901 O 0.91069 0.74386 0.26644 0.0
O902 O 0.96117 0.71411 0.19566 0.0
O903 O 0.89062 0.66397 0.19491 0.0
O904 O 0.84991 0.66773 0.2587 0.0
O905 O 0.84866 0.57653 0.25632 0.0
O906 O 0.85258 0.55034 0.18325 0.0
O907 O 0.92627 0.49922 0.18875 0.0
O908 O 0.9756 0.52022 0.25424 0.0
O909 O 0.92977 0.58235 0.27722 0.0
O910 O 1.00091 0.60235 0.18301 0.0
O911 O 0.03184 0.65658 0.22558 0.0
H912 H 0.91153 0.65955 0.33514 0.0
H913 H 0.89403 0.66635 0.39782 0.0
H914 H 0.91347 0.8437 0.39132 0.0
H915 H 0.92639 0.83647 0.32807 0.0
H916 H 0.87775 0.57157 0.11181 0.0
H917 H 0.87897 0.53625 1.05043 0.0
H918 H 0.87407 0.37005 0.09202 0.0
H919 H 0.87539 0.4043 0.15066 0.0
Nd920 Nd 0.62531 0.68985 0.49694 0.0
Nd921 Nd 0.70953 0.67785 0.46349 0.0
C922 C 0.56969 0.72976 0.54854 0.0
C923 C 0.57107 0.71326 0.58545 0.0
C924 C 0.6147 0.72958 0.60716 0.0
C925 C 0.6138 0.71639 0.64259 0.0
C926 C 0.56804 0.68897 0.65724 0.0
C927 C 0.5259 0.67011 0.63499 0.0
C928 C 0.52821 0.68095 0.59925 0.0
C929 C 0.58578 0.63422 0.43981 0.0
C930 C 0.66554 0.57866 0.52025 0.0
C931 C 0.77429 0.63121 0.4157 0.0
C932 C 0.77647 0.62845 0.37654 0.0
C933 C 0.77316 0.67611 0.35544 0.0
C934 C 0.78305 0.67322 0.31908 0.0
C935 C 0.79632 0.6226 0.30291 0.0
C936 C 0.79341 0.57449 0.32349 0.0
C937 C 0.78406 0.57737 0.3599 0.0
C938 C 0.74792 0.71138 0.53179 0.0
C939 C 0.63693 0.78494 0.43745 0.0
O940 O 0.61318 0.75542 0.53613 0.0
O941 O 0.54827 0.69377 0.52702 0.0
O942 O 0.57411 0.6214 0.47207 0.0
O943 O 0.62145 0.67344 0.4386 0.0
O944 O 0.6186 0.60299 0.51605 0.0
O945 O 0.70839 0.60085 0.50338 0.0
O946 O 0.73334 0.60551 0.43094 0.0
O947 O 0.78545 0.67851 0.43061 0.0
O948 O 0.76636 0.73176 0.50205 0.0
O949 O 0.71024 0.67754 0.5233 0.0
O950 O 0.68634 0.76204 0.43461 0.0
O951 O 0.6031 0.76305 0.46044 0.0
H952 H 0.6494 0.75282 0.59697 0.0
H953 H 0.64849 0.72905 0.65852 0.0
H954 H 0.48954 0.64958 0.6451 0.0
H955 H 0.49466 0.66684 0.58275 0.0
H956 H 0.76607 0.71608 0.36724 0.0
H957 H 0.78457 0.71135 0.30418 0.0
H958 H 0.8026 0.53505 0.31187 0.0
H959 H 0.78518 0.53983 0.37537 0.0
Nd960 Nd 0.4284 0.45276 0.21688 0.0
Nd961 Nd 0.45342 0.37002 0.25132 0.0
C962 C 0.37613 0.51839 0.17207 0.0
C963 C 0.37165 0.53296 0.13436 0.0
C964 C 0.36937 0.49448 0.10649 0.0
C965 C 0.36766 0.51305 0.07108 0.0
C966 C 0.36774 0.56999 0.06376 0.0
C967 C 0.36798 0.60696 0.09203 0.0
C968 C 0.37071 0.58894 0.12638 0.0
C969 C 0.46628 0.49563 0.28271 0.0
C970 C 0.53461 0.38144 0.18505 0.0
C971 C 0.51541 0.32654 0.2999 0.0
C972 C 0.51207 0.32749 0.33843 0.0
C973 C 0.55331 0.35349 0.35811 0.0
C974 C 0.55079 0.35318 0.39476 0.0
C975 C 0.50785 0.32525 0.41236 0.0
C976 C 0.46654 0.29955 0.39224 0.0
C977 C 0.46777 0.30207 0.35584 0.0
C978 C 0.38984 0.32602 0.19869 0.0
C979 C 0.339 0.40191 0.27639 0.0
O980 O 0.35563 0.47165 0.18312 0.0
O981 O 0.42219 0.53169 0.18777 0.0
O982 O 0.4809 0.51429 0.2518 0.0
O983 O 0.43536 0.45414 0.27726 0.0
O984 O 0.50899 0.42984 0.18296 0.0
O985 O 0.51869 0.34807 0.21 0.0
O986 O 0.52865 0.37312 0.28448 0.0
O987 O 0.47629 0.29941 0.28362 0.0
O988 O 0.38848 0.30921 0.23123 0.0
O989 O 0.42521 0.36496 0.19451 0.0
O990 O 0.37063 0.35868 0.27545 0.0
O991 O 0.3522 0.44454 0.25603 0.0
H992 H 0.37035 0.45065 0.112 0.0
H993 H 0.36828 0.48346 1.04984 0.0
H994 H 0.36725 0.65097 0.0875 0.0
H995 H 0.37315 0.61955 0.14672 0.0
H996 H 0.58746 0.37407 0.34517 0.0
H997 H 0.58256 0.37493 0.40907 0.0
H998 H 0.43369 0.27589 0.40425 0.0
H999 H 0.43494 0.28196 0.34144 0.0
Nd1000 Nd 0.32872 0.6694 0.9657 0.0
Nd1001 Nd 0.39805 0.71425 0.99628 0.0
C1002 C 0.26344 0.63049 0.9161 0.0
C1003 C 0.2593 0.62866 0.87748 0.0
C1004 C 0.26325 0.67642 0.85659 0.0
C1005 C 0.24736 0.67494 0.82118 0.0
C1006 C 0.22693 0.62592 0.80632 0.0
C1007 C 0.22875 0.57755 0.82652 0.0
C1008 C 0.24519 0.57871 0.86162 0.0
C1009 C 0.27279 0.69608 1.0298 0.0
C1010 C 0.3797 0.78865 0.93239 0.0
C1011 C 0.45459 0.75032 1.04922 0.0
C1012 C 0.45386 0.73185 0.08573 0.0
C1013 C 0.41195 0.74873 0.10868 0.0
C1014 C 0.41374 0.73298 0.14372 0.0
C1015 C 0.45938 0.70333 0.1568 0.0
C1016 C 0.49942 0.68388 0.13315 0.0
C1017 C 0.4956 0.69656 0.09779 0.0
C1018 C 0.45489 0.66629 0.93977 0.0
C1019 C 0.3752 0.59577 1.02866 0.0
O1020 O 0.30277 0.60142 0.93054 0.0
O1021 O 0.25528 0.67796 0.93152 0.0
O1022 O 0.27264 0.64992 1.01319 0.0
O1023 O 0.30574 0.72864 1.01266 0.0
O1024 O 0.35427 0.74164 0.92521 0.0
O1025 O 0.39799 0.79326 0.96422 0.0
O1026 O 0.41108 0.7765 1.03771 0.0
O1027 O 0.47466 0.71513 1.02683 0.0
O1028 O 0.45913 0.71695 0.94996 0.0
O1029 O 0.41825 0.64147 0.95804 0.0
O1030 O 0.40836 0.63762 1.02892 0.0
O1031 O 0.33769 0.59398 1.00376 0.0
H1032 H 0.27478 0.71554 0.8681 0.0
H1033 H 0.24539 0.71333 0.80655 0.0
H1034 H 0.21034 0.54043 0.81712 0.0
H1035 H 0.2423 0.5413 0.87715 0.0
H1036 H 0.37787 0.77409 0.09971 0.0
H1037 H 0.38013 0.74575 0.16058 0.0
H1038 H 0.53562 0.66148 0.14173 0.0
H1039 H 0.52745 0.68143 0.08029 0.0
Nd1040 Nd 0.097 0.57652 0.71872 0.0
Nd1041 Nd 0.06905 0.65556 0.75449 0.0
C1042 C 0.14935 0.51154 0.67438 0.0
C1043 C 0.15357 0.49195 0.63809 0.0
C1044 C 0.15278 0.52585 0.60781 0.0
C1045 C 0.15486 0.50178 0.57399 0.0
C1046 C 0.15744 0.44405 0.57079 0.0
C1047 C 0.15981 0.41177 0.60166 0.0
C1048 C 0.1576 0.43521 0.63447 0.0
C1049 C 0.05945 0.52591 0.78211 0.0
C1050 C 0.99009 0.64741 0.68674 0.0
C1051 C 1.00714 0.70011 0.80301 0.0
C1052 C 1.01018 0.70059 0.84167 0.0
C1053 C 0.96943 0.67482 0.86209 0.0
C1054 C 0.97282 0.6756 0.8988 0.0
C1055 C 0.01604 0.70395 0.91578 0.0
C1056 C 0.05619 0.73023 0.89484 0.0
C1057 C 0.05433 0.72693 0.85851 0.0
C1058 C 0.13241 0.70177 0.70033 0.0
C1059 C 0.18521 0.63009 0.77818 0.0
O1060 O 0.16761 0.56042 0.68263 0.0
O1061 O 0.10536 0.49675 0.6918 0.0
O1062 O 0.04474 0.51107 0.75059 0.0
O1063 O 0.08882 0.56943 0.77887 0.0
O1064 O 0.0188 0.60104 0.68316 0.0
O1065 O 1.00229 0.67812 0.71375 0.0
O1066 O 0.99357 0.65334 0.7881 0.0
O1067 O 0.04733 0.72558 0.78669 0.0
O1068 O 0.13594 0.71605 0.73321 0.0
O1069 O 0.09587 0.66428 0.69707 0.0
O1070 O 0.147 0.66643 0.78364 0.0
O1071 O 0.17652 0.59072 0.75453 0.0
H1072 H 0.14964 0.57021 0.61027 0.0
H1073 H 0.15299 0.52772 0.55079 0.0
H1074 H 0.16352 0.36732 0.60085 0.0
H1075 H 0.15833 0.40845 0.65733 0.0
H1076 H 0.93531 0.65359 0.84967 0.0
H1077 H 0.94167 0.65354 0.91356 0.0
H1078 H 0.08896 0.75471 0.90604 0.0
H1079 H 0.08694 0.74684 0.84369 0.0
Nd1080 Nd 0.20127 0.35953 0.46768 0.0
Nd1081 Nd 0.13684 0.30172 0.49672 0.0
C1082 C 0.26465 0.40779 0.41978 0.0
C1083 C 0.27961 0.41005 0.38215 0.0
C1084 C 0.24172 0.42029 0.35463 0.0
C1085 C 0.25985 0.42042 0.31927 0.0
C1086 C 0.31598 0.41158 0.31172 0.0
C1087 C 0.35323 0.40421 0.33958 0.0
C1088 C 0.33516 0.40181 0.37391 0.0
C1089 C 0.26042 0.33286 0.53049 0.0
C1090 C 0.16731 0.23661 0.43367 0.0
C1091 C 0.07926 0.24796 0.54363 0.0
C1092 C 0.08497 0.2467 0.58201 0.0
C1093 C 0.10546 0.19954 0.59913 0.0
C1094 C 0.11482 0.20034 0.63535 0.0
C1095 C 0.10399 0.24842 0.6546 0.0
C1096 C 0.08227 0.2949 0.63753 0.0
C1097 C 0.07289 0.2941 0.60166 0.0
C1098 C 0.07666 0.35818 0.44223 0.0
C1099 C 0.15499 0.4131 0.53728 0.0
O1100 O 0.21789 0.42878 0.43034 0.0
O1101 O 0.27832 0.36294 0.43678 0.0
O1102 O 0.25712 0.37996 0.51478 0.0
O1103 O 0.23027 0.2984 0.51283 0.0
O1104 O 0.17618 0.28928 0.42638 0.0
O1105 O 0.16304 0.22587 0.4667 0.0
O1106 O 0.11811 0.22402 0.52556 0.0
O1107 O 0.06352 0.29486 0.52995 0.0
O1108 O 0.07638 0.30566 0.44841 0.0
O1109 O 0.11001 0.38031 0.46372 0.0
O1110 O 0.14218 0.3615 0.54062 0.0
O1111 O 0.17527 0.42952 0.50681 0.0
H1112 H 0.19837 0.42668 0.36033 0.0
H1113 H 0.23028 0.4257 0.29819 0.0
H1114 H 0.39684 0.39746 0.33471 0.0
H1115 H 0.36528 0.39218 0.39387 0.0
H1116 H 0.11475 0.16243 0.58448 0.0
H1117 H 0.13067 0.16371 0.64825 0.0
H1118 H 0.07151 0.33178 0.65203 0.0
H1119 H 0.05633 0.33099 0.58945 0.0
Nd1120 Nd 0.42561 0.57742 0.38157 0.0
Nd1121 Nd 0.4591 0.65498 0.35078 0.0
C1122 C 0.36395 0.51941 0.42546 0.0
C1123 C 0.36154 0.50223 0.46276 0.0
C1124 C 0.35444 0.5377 0.49198 0.0
C1125 C 0.35433 0.51581 0.52672 0.0
C1126 C 0.36003 0.45852 0.53184 0.0
C1127 C 0.36401 0.42481 0.50198 0.0
C1128 C 0.36672 0.44611 0.46872 0.0
C1129 C 0.46524 0.53025 0.31736 0.0
C1130 C 0.54336 0.62356 0.41185 0.0
C1131 C 0.51629 0.70251 0.3027 0.0
C1132 C 0.50098 0.70144 0.26556 0.0
C1133 C 0.5205 0.65948 0.24358 0.0
C1134 C 0.50323 0.65713 0.20884 0.0
C1135 C 0.46887 0.69868 0.19496 0.0
C1136 C 0.44815 0.73951 0.2175 0.0
C1137 C 0.46235 0.73952 0.25261 0.0
C1138 C 0.39994 0.70379 0.40467 0.0
C1139 C 0.34362 0.63359 0.32171 0.0
O1140 O 0.35216 0.57021 0.41685 0.0
O1141 O 0.40481 0.49889 0.40722 0.0
O1142 O 0.47497 0.51067 0.34881 0.0
O1143 O 0.43772 0.57463 0.32131 0.0
O1144 O 0.50726 0.58305 0.41482 0.0
O1145 O 0.53415 0.66056 0.38769 0.0
O1146 O 0.53238 0.65532 0.31609 0.0
O1147 O 0.48263 0.73002 0.3231 0.0
O1148 O 0.3958 0.71774 0.37186 0.0
O1149 O 0.43366 0.66325 0.40794 0.0
O1150 O 0.37976 0.67288 0.32311 0.0
O1151 O 0.35149 0.59034 0.34226 0.0
H1152 H 0.35047 0.58178 0.48808 0.0
H1153 H 0.35151 0.54321 0.54905 0.0
H1154 H 0.36565 0.3805 0.50398 0.0
H1155 H 0.37352 0.41766 0.44755 0.0
H1156 H 0.54855 0.62808 0.25326 0.0
H1157 H 0.51789 0.62329 0.1929 0.0
H1158 H 0.42248 0.77302 0.20824 0.0
H1159 H 0.44433 0.7709 0.26924 0.0
Nd1160 Nd 0.19716 0.66764 0.13233 0.0
Nd1161 Nd 0.12129 0.7095 0.10753 0.0
C1162 C 0.26736 0.62663 0.17904 0.0
C1163 C 0.28275 0.62558 0.21645 0.0
C1164 C 0.24418 0.62357 0.24428 0.0
C1165 C 0.2626 0.62405 0.27949 0.0
C1166 C 0.31947 0.62611 0.2866 0.0
C1167 C 0.35708 0.62622 0.25856 0.0
C1168 C 0.33899 0.62687 0.22417 0.0
C1169 C 0.24953 0.69721 0.06833 0.0
C1170 C 0.1548 0.79319 0.1623 0.0
C1171 C 0.0347 0.72168 0.06669 0.0
C1172 C 0.02893 0.7159 1.02851 0.0
C1173 C 0.07533 0.72247 1.00712 0.0
C1174 C 0.07141 0.71603 0.97103 0.0
C1175 C 0.02001 0.70642 0.9549 0.0
C1176 C 0.97305 0.70051 0.97661 0.0
C1177 C 0.97784 0.70382 1.01319 0.0
C1178 C 0.08278 0.65909 0.17023 0.0
C1179 C 0.15876 0.60787 0.06332 0.0
O1180 O 0.22264 0.60108 0.16924 0.0
O1181 O 0.27566 0.67268 0.162 0.0
O1182 O 0.25768 0.65383 0.08732 0.0
O1183 O 0.21061 0.72684 0.08309 0.0
O1184 O 0.18217 0.74672 0.16904 0.0
O1185 O 0.12884 0.7951 0.13236 0.0
O1186 O 0.06599 0.76237 0.07727 0.0
O1187 O 0.04463 0.67601 0.08359 0.0
O1188 O 0.07921 0.71072 0.16263 0.0
O1189 O 0.11117 0.63603 0.14625 0.0
O1190 O 0.14136 0.65803 0.06095 0.0
O1191 O 0.17951 0.59324 0.09393 0.0
H1192 H 0.2003 0.62273 0.23883 0.0
H1193 H 0.2329 0.62434 0.30077 0.0
H1194 H 0.40118 0.62757 0.26322 0.0
H1195 H 0.3696 0.6293 0.20366 0.0
H1196 H 0.11498 0.73313 1.0183 0.0
H1197 H 0.10933 0.71876 0.95615 0.0
H1198 H 0.93239 0.69416 0.96564 0.0
H1199 H 0.94145 0.69843 1.02942 0.0
Nd1200 Nd 0.10175 0.44638 0.87989 0.0
Nd1201 Nd 0.0883 0.35801 0.8453 0.0
C1202 C 0.15063 0.51435 0.92414 0.0
C1203 C 0.15558 0.53276 0.96088 0.0
C1204 C 0.15799 0.49765 0.99066 0.0
C1205 C 0.16148 0.52031 1.02494 0.0
C1206 C 0.16309 0.57793 1.02923 0.0
C1207 C 0.1628 0.6113 0.99879 0.0
C1208 C 0.15814 0.58937 0.96557 0.0
C1209 C 0.06004 0.48697 0.8151 0.0
C1210 C 0.99331 0.37521 0.90634 0.0
C1211 C 0.06383 0.28536 0.79728 0.0
C1212 C 0.088 0.2691 0.76378 0.0
C1213 C 0.11967 0.30694 0.74456 0.0
C1214 C 0.13081 0.29702 0.7093 0.0
C1215 C 0.1095 0.24973 0.69297 0.0
C1216 C 0.08367 0.20899 0.71332 0.0
C1217 C 0.07341 0.2185 0.74876 0.0
C1218 C 0.14861 0.32778 0.90375 0.0
C1219 C 0.19962 0.40535 0.82363 0.0
O1220 O 0.17218 0.46718 0.91489 0.0
O1221 O 0.10457 0.5261 0.90782 0.0
O1222 O 0.04507 0.50392 0.84621 0.0
O1223 O 0.09327 0.44589 0.81918 0.0
O1224 O 0.021 0.42153 0.91156 0.0
O1225 O 1.00988 0.34334 0.88029 0.0
O1226 O 0.04174 0.33459 0.79843 0.0
O1227 O 0.09035 0.27178 0.82575 0.0
O1228 O 0.16237 0.31557 0.8719 0.0
O1229 O 0.10627 0.35923 0.90359 0.0
O1230 O 0.17389 0.35894 0.82449 0.0
O1231 O 0.17876 0.44718 0.84153 0.0
H1232 H 0.15605 0.45334 0.98748 0.0
H1233 H 0.16119 0.49333 1.04767 0.0
H1234 H 0.16608 0.6556 1.00034 0.0
H1235 H 0.15611 0.61725 0.94325 0.0
H1236 H 0.13224 0.34581 0.75601 0.0
H1237 H 0.15203 0.32832 0.69413 0.0
H1238 H 0.06712 0.1721 0.70131 0.0
H1239 H 0.05079 0.18778 0.76345 0.0
Nd1240 Nd 0.33599 0.36092 0.63316 0.0
Nd1241 Nd 0.41298 0.32418 0.60567 0.0
C1242 C 0.26894 0.39755 0.68277 0.0
C1243 C 0.26532 0.40451 0.72116 0.0
C1244 C 0.28139 0.36321 0.74502 0.0
C1245 C 0.26735 0.36786 0.78069 0.0
C1246 C 0.23552 0.41286 0.79264 0.0
C1247 C 0.22264 0.45506 0.76874 0.0
C1248 C 0.23975 0.45204 0.7339 0.0
C1249 C 0.284 0.33134 0.56886 0.0
C1250 C 0.38293 0.23602 0.65922 0.0
C1251 C 0.49705 0.30948 0.56313 0.0
C1252 C 0.50099 0.31371 0.52494 0.0
C1253 C 0.45289 0.3099 0.50489 0.0
C1254 C 0.45498 0.31581 0.46868 0.0
C1255 C 0.50592 0.32225 0.45136 0.0
C1256 C 0.55457 0.3245 0.4717 0.0
C1257 C 0.5519 0.32153 0.50833 0.0
C1258 C 0.45344 0.37223 0.66773 0.0
C1259 C 0.36925 0.42927 0.56579 0.0
O1260 O 0.30407 0.42893 0.66621 0.0
O1261 O 0.26613 0.34764 0.66999 0.0
O1262 O 0.27283 0.37238 0.58904 0.0
O1263 O 0.32431 0.30331 0.58302 0.0
O1264 O 0.3578 0.28203 0.66925 0.0
O1265 O 0.40429 0.23747 0.6279 0.0
O1266 O 0.46525 0.26995 0.57481 0.0
O1267 O 0.48883 0.3558 0.57944 0.0
O1268 O 0.45949 0.32138 0.65892 0.0
O1269 O 0.42162 0.39543 0.64558 0.0
O1270 O 0.39496 0.38293 0.56264 0.0
O1271 O 0.34398 0.43819 0.5958 0.0
H1272 H 0.30191 0.32621 0.73589 0.0
H1273 H 0.27633 0.3336 0.79817 0.0
H1274 H 0.19319 0.48668 0.77527 0.0
H1275 H 0.22895 0.48506 0.71621 0.0
H1276 H 0.41342 0.30219 0.51735 0.0
H1277 H 0.41622 0.31541 0.45459 0.0
H1278 H 0.59483 0.32791 0.45956 0.0
H1279 H 0.58955 0.32439 0.52357 0.0
loop_
_geom_bond_atom_site_label_1
_geom_bond_atom_site_label_2
_geom_bond_distance
_geom_bond_site_symmetry_2
_ccdc_geom_bond_type
Nd0 C2 2.836 . S
Nd0 O20 2.500 . S
Nd0 O21 2.492 . S
Nd0 O22 2.487 . S
Nd0 O23 2.682 . S
Nd0 O24 2.410 . S
Nd0 O29 2.414 . S
Nd0 O31 2.424 1_455 S
Nd1 C11 2.836 1_545 S
Nd1 O23 2.414 . S
Nd1 O25 2.424 . S
Nd1 O26 2.500 . S
Nd1 O27 2.492 1_545 S
Nd1 O28 2.487 1_545 S
Nd1 O29 2.682 . S
Nd1 O30 2.410 1_455 S
C2 Nd0 2.836 . S
C2 C3 1.498 . S
C2 O20 1.258 . S
C2 O21 1.239 . S
C3 C2 1.498 . S
C3 C4 1.366 . S
C3 C8 1.407 . S
C4 C3 1.366 . S
C4 C5 1.392 . S
C4 H32 0.930 . S
C5 C4 1.392 . S
C5 C6 1.398 . S
C5 H33 0.929 . S
C6 C5 1.398 . S
C6 C7 1.352 . S
C7 C6 1.352 . S
C7 C8 1.384 . S
C7 H34 0.930 . S
C8 C3 1.407 . S
C8 C7 1.384 . S
C8 H35 0.929 . S
C9 O22 1.241 . S
C9 O23 1.273 . S
C10 O24 1.251 . S
C10 O25 1.268 . S
C11 Nd1 2.836 1_565 S
C11 C12 1.498 . S
C11 O26 1.258 1_565 S
C11 O27 1.239 . S
C12 C11 1.498 . S
C12 C13 1.366 1_565 S
C12 C17 1.407 . S
C13 C12 1.366 1_545 S
C13 C14 1.392 1_545 S
C13 H36 0.930 . S
C14 C13 1.392 1_565 S
C14 C15 1.398 . S
C14 H37 0.929 1_565 S
C15 C14 1.398 . S
C15 C16 1.352 . S
C16 C15 1.352 . S
C16 C17 1.384 . S
C16 H38 0.930 . S
C17 C12 1.407 . S
C17 C16 1.384 . S
C17 H39 0.929 . S
C18 O28 1.241 1_545 S
C18 O29 1.273 . S
C19 O30 1.251 . S
C19 O31 1.268 . S
O20 Nd0 2.500 . S
O20 C2 1.258 . S
O21 Nd0 2.492 . S
O21 C2 1.239 . S
O22 Nd0 2.487 . S
O22 C9 1.241 . S
O23 Nd0 2.682 . S
O23 Nd1 2.414 . S
O23 C9 1.273 . S
O24 Nd0 2.410 . S
O24 C10 1.251 . S
O25 Nd1 2.424 . S
O25 C10 1.268 . S
O26 Nd1 2.500 . S
O26 C11 1.258 1_545 S
O27 Nd1 2.492 1_565 S
O27 C11 1.239 . S
O28 Nd1 2.487 1_565 S
O28 C18 1.241 1_565 S
O29 Nd0 2.414 . S
O29 Nd1 2.682 . S
O29 C18 1.273 . S
O30 Nd1 2.410 1_655 S
O30 C19 1.251 . S
O31 Nd0 2.424 1_655 S
O31 C19 1.268 . S
H32 C4 0.930 . S
H33 C5 0.929 . S
H34 C7 0.930 . S
H35 C8 0.929 . S
H36 C13 0.930 . S
H37 C14 0.929 1_545 S
H38 C16 0.930 . S
H39 C17 0.929 . S
Nd40 C42 2.836 . S
Nd40 O60 2.500 . S
Nd40 O61 2.492 . S
Nd40 O62 2.487 . S
Nd40 O63 2.682 . S
Nd40 O64 2.410 . S
Nd40 O69 2.414 . S
Nd40 O71 2.424 . S
Nd41 C51 2.836 . S
Nd41 O63 2.414 . S
Nd41 O65 2.424 . S
Nd41 O66 2.500 . S
Nd41 O67 2.492 . S
Nd41 O68 2.487 . S
Nd41 O69 2.682 . S
Nd41 O70 2.410 . S
C42 Nd40 2.836 . S
C42 C43 1.498 . S
C42 O60 1.258 . S
C42 O61 1.239 . S
C43 C42 1.498 . S
C43 C44 1.366 . S
C43 C48 1.407 1_455 S
C44 C43 1.366 . S
C44 C45 1.392 . S
C44 H72 0.930 . S
C45 C44 1.392 . S
C45 C46 1.398 1_455 S
C45 H73 0.929 . S
C46 C45 1.398 1_655 S
C46 C47 1.352 . S
C47 C46 1.352 . S
C47 C48 1.384 . S
C47 H74 0.930 . S
C48 C43 1.407 1_655 S
C48 C47 1.384 . S
C48 H75 0.929 . S
C49 O62 1.241 . S
C49 O63 1.273 . S
C50 O64 1.251 . S
C50 O65 1.268 . S
C51 Nd41 2.836 . S
C51 C52 1.498 . S
C51 O66 1.258 . S
C51 O67 1.239 . S
C52 C51 1.498 . S
C52 C53 1.366 . S
C52 C57 1.407 . S
C53 C52 1.366 . S
C53 C54 1.392 . S
C53 H76 0.930 . S
C54 C53 1.392 . S
C54 C55 1.398 . S
C54 H77 0.929 . S
C55 C54 1.398 . S
C55 C56 1.352 . S
C56 C55 1.352 . S
C56 C57 1.384 . S
C56 H78 0.930 . S
C57 C52 1.407 . S
C57 C56 1.384 . S
C57 H79 0.929 . S
C58 O68 1.241 . S
C58 O69 1.273 . S
C59 O70 1.251 . S
C59 O71 1.268 . S
O60 Nd40 2.500 . S
O60 C42 1.258 . S
O61 Nd40 2.492 . S
O61 C42 1.239 . S
O62 Nd40 2.487 . S
O62 C49 1.241 . S
O63 Nd40 2.682 . S
O63 Nd41 2.414 . S
O63 C49 1.273 . S
O64 Nd40 2.410 . S
O64 C50 1.251 . S
O65 Nd41 2.424 . S
O65 C50 1.268 . S
O66 Nd41 2.500 . S
O66 C51 1.258 . S
O67 Nd41 2.492 . S
O67 C51 1.239 . S
O68 Nd41 2.487 . S
O68 C58 1.241 . S
O69 Nd40 2.414 . S
O69 Nd41 2.682 . S
O69 C58 1.273 . S
O70 Nd41 2.410 . S
O70 C59 1.251 . S
O71 Nd40 2.424 . S
O71 C59 1.268 . S
H72 C44 0.930 . S
H73 C45 0.929 . S
H74 C47 0.930 . S
H75 C48 0.929 . S
H76 C53 0.930 . S
H77 C54 0.929 . S
H78 C56 0.930 . S
H79 C57 0.929 . S
Nd80 C82 2.836 . S
Nd80 O100 2.500 . S
Nd80 O101 2.492 . S
Nd80 O102 2.487 . S
Nd80 O103 2.682 . S
Nd80 O104 2.410 . S
Nd80 O109 2.414 . S
Nd80 O111 2.424 . S
Nd81 C91 2.836 1_565 S
Nd81 O103 2.414 . S
Nd81 O105 2.424 . S
Nd81 O106 2.500 . S
Nd81 O107 2.492 1_565 S
Nd81 O108 2.487 1_565 S
Nd81 O109 2.682 . S
Nd81 O110 2.410 . S
C82 Nd80 2.836 . S
C82 C83 1.498 . S
C82 O100 1.258 . S
C82 O101 1.239 . S
C83 C82 1.498 . S
C83 C84 1.366 . S
C83 C88 1.407 . S
C84 C83 1.366 . S
C84 C85 1.392 . S
C84 H112 0.930 . S
C85 C84 1.392 . S
C85 C86 1.398 . S
C85 H113 0.929 . S
C86 C85 1.398 . S
C86 C87 1.352 . S
C87 C86 1.352 . S
C87 C88 1.384 . S
C87 H114 0.930 . S
C88 C83 1.407 . S
C88 C87 1.384 . S
C88 H115 0.929 . S
C89 O102 1.241 . S
C89 O103 1.273 . S
C90 O104 1.251 . S
C90 O105 1.268 . S
C91 Nd81 2.836 1_545 S
C91 C92 1.498 . S
C91 O106 1.258 1_545 S
C91 O107 1.239 . S
C92 C91 1.498 . S
C92 C93 1.366 1_545 S
C92 C97 1.407 . S
C93 C92 1.366 1_565 S
C93 C94 1.392 1_565 S
C93 H116 0.930 . S
C94 C93 1.392 1_545 S
C94 C95 1.398 1_556 S
C94 H117 0.929 1_546 S
C95 C94 1.398 1_554 S
C95 C96 1.352 1_554 S
C96 C95 1.352 1_556 S
C96 C97 1.384 . S
C96 H118 0.930 . S
C97 C92 1.407 . S
C97 C96 1.384 . S
C97 H119 0.929 . S
C98 O108 1.241 1_565 S
C98 O109 1.273 . S
C99 O110 1.251 . S
C99 O111 1.268 . S
O100 Nd80 2.500 . S
O100 C82 1.258 . S
O101 Nd80 2.492 . S
O101 C82 1.239 . S
O102 Nd80 2.487 . S
O102 C89 1.241 . S
O103 Nd80 2.682 . S
O103 Nd81 2.414 . S
O103 C89 1.273 . S
O104 Nd80 2.410 . S
O104 C90 1.251 . S
O105 Nd81 2.424 . S
O105 C90 1.268 . S
O106 Nd81 2.500 . S
O106 C91 1.258 1_565 S
O107 Nd81 2.492 1_545 S
O107 C91 1.239 . S
O108 Nd81 2.487 1_545 S
O108 C98 1.241 1_545 S
O109 Nd80 2.414 . S
O109 Nd81 2.682 . S
O109 C98 1.273 . S
O110 Nd81 2.410 . S
O110 C99 1.251 . S
O111 Nd80 2.424 . S
O111 C99 1.268 . S
H112 C84 0.930 . S
H113 C85 0.929 . S
H114 C87 0.930 . S
H115 C88 0.929 . S
H116 C93 0.930 . S
H117 C94 0.929 1_564 S
H118 C96 0.930 . S
H119 C97 0.929 . S
Nd120 C122 2.836 1_554 S
Nd120 O140 2.500 1_554 S
Nd120 O141 2.492 . S
Nd120 O142 2.487 . S
Nd120 O143 2.682 . S
Nd120 O144 2.410 . S
Nd120 O149 2.414 . S
Nd120 O151 2.424 . S
Nd121 C131 2.836 . S
Nd121 O143 2.414 . S
Nd121 O145 2.424 . S
Nd121 O146 2.500 . S
Nd121 O147 2.492 . S
Nd121 O148 2.487 . S
Nd121 O149 2.682 . S
Nd121 O150 2.410 . S
C122 Nd120 2.836 1_556 S
C122 C123 1.498 . S
C122 O140 1.258 . S
C122 O141 1.239 1_556 S
C123 C122 1.498 . S
C123 C124 1.366 . S
C123 C128 1.407 . S
C124 C123 1.366 . S
C124 C125 1.392 . S
C124 H152 0.930 . S
C125 C124 1.392 . S
C125 C126 1.398 . S
C125 H153 0.929 . S
C126 C125 1.398 . S
C126 C127 1.352 . S
C127 C126 1.352 . S
C127 C128 1.384 . S
C127 H154 0.930 . S
C128 C123 1.407 . S
C128 C127 1.384 . S
C128 H155 0.929 . S
C129 O142 1.241 . S
C129 O143 1.273 . S
C130 O144 1.251 . S
C130 O145 1.268 . S
C131 Nd121 2.836 . S
C131 C132 1.498 . S
C131 O146 1.258 . S
C131 O147 1.239 . S
C132 C131 1.498 . S
C132 C133 1.366 . S
C132 C137 1.407 . S
C133 C132 1.366 . S
C133 C134 1.392 . S
C133 H156 0.930 . S
C134 C133 1.392 . S
C134 C135 1.398 . S
C134 H157 0.929 . S
C135 C134 1.398 . S
C135 C136 1.352 . S
C136 C135 1.352 . S
C136 C137 1.384 . S
C136 H158 0.930 . S
C137 C132 1.407 . S
C137 C136 1.384 . S
C137 H159 0.929 . S
C138 O148 1.241 . S
C138 O149 1.273 . S
C139 O150 1.251 . S
C139 O151 1.268 . S
O140 Nd120 2.500 1_556 S
O140 C122 1.258 . S
O141 Nd120 2.492 . S
O141 C122 1.239 1_554 S
O142 Nd120 2.487 . S
O142 C129 1.241 . S
O143 Nd120 2.682 . S
O143 Nd121 2.414 . S
O143 C129 1.273 . S
O144 Nd120 2.410 . S
O144 C130 1.251 . S
O145 Nd121 2.424 . S
O145 C130 1.268 . S
O146 Nd121 2.500 . S
O146 C131 1.258 . S
O147 Nd121 2.492 . S
O147 C131 1.239 . S
O148 Nd121 2.487 . S
O148 C138 1.241 . S
O149 Nd120 2.414 . S
O149 Nd121 2.682 . S
O149 C138 1.273 . S
O150 Nd121 2.410 . S
O150 C139 1.251 . S
O151 Nd120 2.424 . S
O151 C139 1.268 . S
H152 C124 0.930 . S
H153 C125 0.929 . S
H154 C127 0.930 . S
H155 C128 0.929 . S
H156 C133 0.930 . S
H157 C134 0.929 . S
H158 C136 0.930 . S
H159 C137 0.929 . S
Nd160 C162 2.836 . S
Nd160 O180 2.500 . S
Nd160 O181 2.492 . S
Nd160 O182 2.487 . S
Nd160 O183 2.682 . S
Nd160 O184 2.410 . S
Nd160 O189 2.414 . S
Nd160 O191 2.424 1_455 S
Nd161 C171 2.836 1_565 S
Nd161 O183 2.414 . S
Nd161 O185 2.424 . S
Nd161 O186 2.500 . S
Nd161 O187 2.492 1_565 S
Nd161 O188 2.487 1_565 S
Nd161 O189 2.682 . S
Nd161 O190 2.410 1_455 S
C162 Nd160 2.836 . S
C162 C163 1.498 . S
C162 O180 1.258 . S
C162 O181 1.239 . S
C163 C162 1.498 . S
C163 C164 1.366 . S
C163 C168 1.407 . S
C164 C163 1.366 . S
C164 C165 1.392 . S
C164 H192 0.930 . S
C165 C164 1.392 . S
C165 C166 1.398 . S
C165 H193 0.929 . S
C166 C165 1.398 . S
C166 C167 1.352 . S
C167 C166 1.352 . S
C167 C168 1.384 . S
C167 H194 0.930 . S
C168 C163 1.407 . S
C168 C167 1.384 . S
C168 H195 0.929 . S
C169 O182 1.241 . S
C169 O183 1.273 . S
C170 O184 1.251 . S
C170 O185 1.268 . S
C171 Nd161 2.836 1_545 S
C171 C172 1.498 . S
C171 O186 1.258 1_545 S
C171 O187 1.239 . S
C172 C171 1.498 . S
C172 C173 1.366 1_545 S
C172 C177 1.407 . S
C173 C172 1.366 1_565 S
C173 C174 1.392 1_565 S
C173 H196 0.930 . S
C174 C173 1.392 1_545 S
C174 C175 1.398 1_554 S
C174 H197 0.929 1_544 S
C175 C174 1.398 1_556 S
C175 C176 1.352 1_556 S
C176 C175 1.352 1_554 S
C176 C177 1.384 . S
C176 H198 0.930 . S
C177 C172 1.407 . S
C177 C176 1.384 . S
C177 H199 0.929 . S
C178 O188 1.241 1_565 S
C178 O189 1.273 . S
C179 O190 1.251 . S
C179 O191 1.268 . S
O180 Nd160 2.500 . S
O180 C162 1.258 . S
O181 Nd160 2.492 . S
O181 C162 1.239 . S
O182 Nd160 2.487 . S
O182 C169 1.241 . S
O183 Nd160 2.682 . S
O183 Nd161 2.414 . S
O183 C169 1.273 . S
O184 Nd160 2.410 . S
O184 C170 1.251 . S
O185 Nd161 2.424 . S
O185 C170 1.268 . S
O186 Nd161 2.500 . S
O186 C171 1.258 1_565 S
O187 Nd161 2.492 1_545 S
O187 C171 1.239 . S
O188 Nd161 2.487 1_545 S
O188 C178 1.241 1_545 S
O189 Nd160 2.414 . S
O189 Nd161 2.682 . S
O189 C178 1.273 . S
O190 Nd161 2.410 1_655 S
O190 C179 1.251 . S
O191 Nd160 2.424 1_655 S
O191 C179 1.268 . S
H192 C164 0.930 . S
H193 C165 0.929 . S
H194 C167 0.930 . S
H195 C168 0.929 . S
H196 C173 0.930 . S
H197 C174 0.929 1_566 S
H198 C176 0.930 . S
H199 C177 0.929 . S
Nd200 C202 2.836 . S
Nd200 O220 2.500 . S
Nd200 O221 2.492 . S
Nd200 O222 2.487 . S
Nd200 O223 2.682 . S
Nd200 O224 2.410 . S
Nd200 O229 2.414 . S
Nd200 O231 2.424 . S
Nd201 C211 2.836 . S
Nd201 O223 2.414 . S
Nd201 O225 2.424 . S
Nd201 O226 2.500 . S
Nd201 O227 2.492 . S
Nd201 O228 2.487 . S
Nd201 O229 2.682 . S
Nd201 O230 2.410 . S
C202 Nd200 2.836 . S
C202 C203 1.498 . S
C202 O220 1.258 . S
C202 O221 1.239 . S
C203 C202 1.498 . S
C203 C204 1.366 . S
C203 C208 1.407 . S
C204 C203 1.366 . S
C204 C205 1.392 . S
C204 H232 0.930 . S
C205 C204 1.392 . S
C205 C206 1.398 . S
C205 H233 0.929 . S
C206 C205 1.398 . S
C206 C207 1.352 . S
C207 C206 1.352 . S
C207 C208 1.384 . S
C207 H234 0.930 . S
C208 C203 1.407 . S
C208 C207 1.384 . S
C208 H235 0.929 . S
C209 O222 1.241 . S
C209 O223 1.273 . S
C210 O224 1.251 . S
C210 O225 1.268 . S
C211 Nd201 2.836 . S
C211 C212 1.498 . S
C211 O226 1.258 . S
C211 O227 1.239 . S
C212 C211 1.498 . S
C212 C213 1.366 . S
C212 C217 1.407 . S
C213 C212 1.366 . S
C213 C214 1.392 . S
C213 H236 0.930 . S
C214 C213 1.392 . S
C214 C215 1.398 . S
C214 H237 0.929 . S
C215 C214 1.398 . S
C215 C216 1.352 . S
C216 C215 1.352 . S
C216 C217 1.384 . S
C216 H238 0.930 . S
C217 C212 1.407 . S
C217 C216 1.384 . S
C217 H239 0.929 . S
C218 O228 1.241 . S
C218 O229 1.273 . S
C219 O230 1.251 . S
C219 O231 1.268 . S
O220 Nd200 2.500 . S
O220 C202 1.258 . S
O221 Nd200 2.492 . S
O221 C202 1.239 . S
O222 Nd200 2.487 . S
O222 C209 1.241 . S
O223 Nd200 2.682 . S
O223 Nd201 2.414 . S
O223 C209 1.273 . S
O224 Nd200 2.410 . S
O224 C210 1.251 . S
O225 Nd201 2.424 . S
O225 C210 1.268 . S
O226 Nd201 2.500 . S
O226 C211 1.258 . S
O227 Nd201 2.492 . S
O227 C211 1.239 . S
O228 Nd201 2.487 . S
O228 C218 1.241 . S
O229 Nd200 2.414 . S
O229 Nd201 2.682 . S
O229 C218 1.273 . S
O230 Nd201 2.410 . S
O230 C219 1.251 . S
O231 Nd200 2.424 . S
O231 C219 1.268 . S
H232 C204 0.930 . S
H233 C205 0.929 . S
H234 C207 0.930 . S
H235 C208 0.929 . S
H236 C213 0.930 . S
H237 C214 0.929 . S
H238 C216 0.930 . S
H239 C217 0.929 . S
Nd240 C242 2.836 . S
Nd240 O260 2.500 . S
Nd240 O261 2.492 . S
Nd240 O262 2.487 . S
Nd240 O263 2.682 . S
Nd240 O264 2.410 . S
Nd240 O269 2.414 . S
Nd240 O271 2.424 . S
Nd241 C251 2.836 1_545 S
Nd241 O263 2.414 . S
Nd241 O265 2.424 . S
Nd241 O266 2.500 . S
Nd241 O267 2.492 1_545 S
Nd241 O268 2.487 1_545 S
Nd241 O269 2.682 . S
Nd241 O270 2.410 . S
C242 Nd240 2.836 . S
C242 C243 1.498 . S
C242 O260 1.258 . S
C242 O261 1.239 . S
C243 C242 1.498 . S
C243 C244 1.366 . S
C243 C248 1.407 . S
C244 C243 1.366 . S
C244 C245 1.392 . S
C244 H272 0.930 . S
C245 C244 1.392 . S
C245 C246 1.398 . S
C245 H273 0.929 . S
C246 C245 1.398 . S
C246 C247 1.352 . S
C247 C246 1.352 . S
C247 C248 1.384 . S
C247 H274 0.930 . S
C248 C243 1.407 . S
C248 C247 1.384 . S
C248 H275 0.929 . S
C249 O262 1.241 . S
C249 O263 1.273 . S
C250 O264 1.251 . S
C250 O265 1.268 . S
C251 Nd241 2.836 1_565 S
C251 C252 1.498 . S
C251 O266 1.258 1_565 S
C251 O267 1.239 . S
C252 C251 1.498 . S
C252 C253 1.366 1_565 S
C252 C257 1.407 . S
C253 C252 1.366 1_545 S
C253 C254 1.392 1_545 S
C253 H276 0.930 . S
C254 C253 1.392 1_565 S
C254 C255 1.398 . S
C254 H277 0.929 1_565 S
C255 C254 1.398 . S
C255 C256 1.352 . S
C256 C255 1.352 . S
C256 C257 1.384 . S
C256 H278 0.930 . S
C257 C252 1.407 . S
C257 C256 1.384 . S
C257 H279 0.929 . S
C258 O268 1.241 1_545 S
C258 O269 1.273 . S
C259 O270 1.251 . S
C259 O271 1.268 . S
O260 Nd240 2.500 . S
O260 C242 1.258 . S
O261 Nd240 2.492 . S
O261 C242 1.239 . S
O262 Nd240 2.487 . S
O262 C249 1.241 . S
O263 Nd240 2.682 . S
O263 Nd241 2.414 . S
O263 C249 1.273 . S
O264 Nd240 2.410 . S
O264 C250 1.251 . S
O265 Nd241 2.424 . S
O265 C250 1.268 . S
O266 Nd241 2.500 . S
O266 C251 1.258 1_545 S
O267 Nd241 2.492 1_565 S
O267 C251 1.239 . S
O268 Nd241 2.487 1_565 S
O268 C258 1.241 1_565 S
O269 Nd240 2.414 . S
O269 Nd241 2.682 . S
O269 C258 1.273 . S
O270 Nd241 2.410 . S
O270 C259 1.251 . S
O271 Nd240 2.424 . S
O271 C259 1.268 . S
H272 C244 0.930 . S
H273 C245 0.929 . S
H274 C247 0.930 . S
H275 C248 0.929 . S
H276 C253 0.930 . S
H277 C254 0.929 1_545 S
H278 C256 0.930 . S
H279 C257 0.929 . S
Nd280 C282 2.836 1_556 S
Nd280 O300 2.500 1_556 S
Nd280 O301 2.492 . S
Nd280 O302 2.487 . S
Nd280 O303 2.682 . S
Nd280 O304 2.410 . S
Nd280 O309 2.414 . S
Nd280 O311 2.424 . S
Nd281 C291 2.836 . S
Nd281 O303 2.414 . S
Nd281 O305 2.424 . S
Nd281 O306 2.500 . S
Nd281 O307 2.492 . S
Nd281 O308 2.487 . S
Nd281 O309 2.682 . S
Nd281 O310 2.410 . S
C282 Nd280 2.836 1_554 S
C282 C283 1.498 . S
C282 O300 1.258 . S
C282 O301 1.239 1_554 S
C283 C282 1.498 . S
C283 C284 1.366 . S
C283 C288 1.407 1_455 S
C284 C283 1.366 . S
C284 C285 1.392 . S
C284 H312 0.930 . S
C285 C284 1.392 . S
C285 C286 1.398 1_455 S
C285 H313 0.929 . S
C286 C285 1.398 1_655 S
C286 C287 1.352 . S
C287 C286 1.352 . S
C287 C288 1.384 . S
C287 H314 0.930 . S
C288 C283 1.407 1_655 S
C288 C287 1.384 . S
C288 H315 0.929 . S
C289 O302 1.241 . S
C289 O303 1.273 . S
C290 O304 1.251 . S
C290 O305 1.268 . S
C291 Nd281 2.836 . S
C291 C292 1.498 . S
C291 O306 1.258 . S
C291 O307 1.239 . S
C292 C291 1.498 . S
C292 C293 1.366 . S
C292 C297 1.407 . S
C293 C292 1.366 . S
C293 C294 1.392 . S
C293 H316 0.930 . S
C294 C293 1.392 . S
C294 C295 1.398 . S
C294 H317 0.929 . S
C295 C294 1.398 . S
C295 C296 1.352 . S
C296 C295 1.352 . S
C296 C297 1.384 . S
C296 H318 0.930 . S
C297 C292 1.407 . S
C297 C296 1.384 . S
C297 H319 0.929 . S
C298 O308 1.241 . S
C298 O309 1.273 . S
C299 O310 1.251 . S
C299 O311 1.268 . S
O300 Nd280 2.500 1_554 S
O300 C282 1.258 . S
O301 Nd280 2.492 . S
O301 C282 1.239 1_556 S
O302 Nd280 2.487 . S
O302 C289 1.241 . S
O303 Nd280 2.682 . S
O303 Nd281 2.414 . S
O303 C289 1.273 . S
O304 Nd280 2.410 . S
O304 C290 1.251 . S
O305 Nd281 2.424 . S
O305 C290 1.268 . S
O306 Nd281 2.500 . S
O306 C291 1.258 . S
O307 Nd281 2.492 . S
O307 C291 1.239 . S
O308 Nd281 2.487 . S
O308 C298 1.241 . S
O309 Nd280 2.414 . S
O309 Nd281 2.682 . S
O309 C298 1.273 . S
O310 Nd281 2.410 . S
O310 C299 1.251 . S
O311 Nd280 2.424 . S
O311 C299 1.268 . S
H312 C284 0.930 . S
H313 C285 0.929 . S
H314 C287 0.930 . S
H315 C288 0.929 . S
H316 C293 0.930 . S
H317 C294 0.929 . S
H318 C296 0.930 . S
H319 C297 0.929 . S
Nd320 C322 2.836 1_565 S
Nd320 O340 2.500 . S
Nd320 O341 2.492 1_565 S
Nd320 O342 2.487 1_565 S
Nd320 O343 2.682 . S
Nd320 O344 2.410 1_655 S
Nd320 O349 2.414 . S
Nd320 O351 2.424 . S
Nd321 C331 2.836 . S
Nd321 O343 2.414 . S
Nd321 O345 2.424 1_655 S
Nd321 O346 2.500 . S
Nd321 O347 2.492 . S
Nd321 O348 2.487 . S
Nd321 O349 2.682 . S
Nd321 O350 2.410 . S
C322 Nd320 2.836 1_545 S
C322 C323 1.498 . S
C322 O340 1.258 1_545 S
C322 O341 1.239 . S
C323 C322 1.498 . S
C323 C324 1.366 1_545 S
C323 C328 1.407 . S
C324 C323 1.366 1_565 S
C324 C325 1.392 1_565 S
C324 H352 0.930 . S
C325 C324 1.392 1_545 S
C325 C326 1.398 . S
C325 H353 0.929 1_545 S
C326 C325 1.398 . S
C326 C327 1.352 . S
C327 C326 1.352 . S
C327 C328 1.384 . S
C327 H354 0.930 . S
C328 C323 1.407 . S
C328 C327 1.384 . S
C328 H355 0.929 . S
C329 O342 1.241 1_565 S
C329 O343 1.273 . S
C330 O344 1.251 . S
C330 O345 1.268 . S
C331 Nd321 2.836 . S
C331 C332 1.498 . S
C331 O346 1.258 . S
C331 O347 1.239 . S
C332 C331 1.498 . S
C332 C333 1.366 . S
C332 C337 1.407 . S
C333 C332 1.366 . S
C333 C334 1.392 . S
C333 H356 0.930 . S
C334 C333 1.392 . S
C334 C335 1.398 . S
C334 H357 0.929 . S
C335 C334 1.398 . S
C335 C336 1.352 . S
C336 C335 1.352 . S
C336 C337 1.384 . S
C336 H358 0.930 . S
C337 C332 1.407 . S
C337 C336 1.384 . S
C337 H359 0.929 . S
C338 O348 1.241 . S
C338 O349 1.273 . S
C339 O350 1.251 . S
C339 O351 1.268 . S
O340 Nd320 2.500 . S
O340 C322 1.258 1_565 S
O341 Nd320 2.492 1_545 S
O341 C322 1.239 . S
O342 Nd320 2.487 1_545 S
O342 C329 1.241 1_545 S
O343 Nd320 2.682 . S
O343 Nd321 2.414 . S
O343 C329 1.273 . S
O344 Nd320 2.410 1_455 S
O344 C330 1.251 . S
O345 Nd321 2.424 1_455 S
O345 C330 1.268 . S
O346 Nd321 2.500 . S
O346 C331 1.258 . S
O347 Nd321 2.492 . S
O347 C331 1.239 . S
O348 Nd321 2.487 . S
O348 C338 1.241 . S
O349 Nd320 2.414 . S
O349 Nd321 2.682 . S
O349 C338 1.273 . S
O350 Nd321 2.410 . S
O350 C339 1.251 . S
O351 Nd320 2.424 . S
O351 C339 1.268 . S
H352 C324 0.930 . S
H353 C325 0.929 1_565 S
H354 C327 0.930 . S
H355 C328 0.929 . S
H356 C333 0.930 . S
H357 C334 0.929 . S
H358 C336 0.930 . S
H359 C337 0.929 . S
Nd360 C362 2.836 . S
Nd360 O380 2.500 . S
Nd360 O381 2.492 . S
Nd360 O382 2.487 . S
Nd360 O383 2.682 . S
Nd360 O384 2.410 . S
Nd360 O389 2.414 . S
Nd360 O391 2.424 . S
Nd361 C371 2.836 . S
Nd361 O383 2.414 . S
Nd361 O385 2.424 . S
Nd361 O386 2.500 . S
Nd361 O387 2.492 . S
Nd361 O388 2.487 . S
Nd361 O389 2.682 . S
Nd361 O390 2.410 . S
C362 Nd360 2.836 . S
C362 C363 1.498 . S
C362 O380 1.258 . S
C362 O381 1.239 . S
C363 C362 1.498 . S
C363 C364 1.366 . S
C363 C368 1.407 . S
C364 C363 1.366 . S
C364 C365 1.392 . S
C364 H392 0.930 . S
C365 C364 1.392 . S
C365 C366 1.398 . S
C365 H393 0.929 . S
C366 C365 1.398 . S
C366 C367 1.352 . S
C367 C366 1.352 . S
C367 C368 1.384 . S
C367 H394 0.930 . S
C368 C363 1.407 . S
C368 C367 1.384 . S
C368 H395 0.929 . S
C369 O382 1.241 . S
C369 O383 1.273 . S
C370 O384 1.251 . S
C370 O385 1.268 . S
C371 Nd361 2.836 . S
C371 C372 1.498 . S
C371 O386 1.258 . S
C371 O387 1.239 . S
C372 C371 1.498 . S
C372 C373 1.366 . S
C372 C377 1.407 1_655 S
C373 C372 1.366 . S
C373 C374 1.392 . S
C373 H396 0.930 . S
C374 C373 1.392 . S
C374 C375 1.398 1_655 S
C374 H397 0.929 . S
C375 C374 1.398 1_455 S
C375 C376 1.352 . S
C376 C375 1.352 . S
C376 C377 1.384 . S
C376 H398 0.930 . S
C377 C372 1.407 1_455 S
C377 C376 1.384 . S
C377 H399 0.929 . S
C378 O388 1.241 . S
C378 O389 1.273 . S
C379 O390 1.251 . S
C379 O391 1.268 . S
O380 Nd360 2.500 . S
O380 C362 1.258 . S
O381 Nd360 2.492 . S
O381 C362 1.239 . S
O382 Nd360 2.487 . S
O382 C369 1.241 . S
O383 Nd360 2.682 . S
O383 Nd361 2.414 . S
O383 C369 1.273 . S
O384 Nd360 2.410 . S
O384 C370 1.251 . S
O385 Nd361 2.424 . S
O385 C370 1.268 . S
O386 Nd361 2.500 . S
O386 C371 1.258 . S
O387 Nd361 2.492 . S
O387 C371 1.239 . S
O388 Nd361 2.487 . S
O388 C378 1.241 . S
O389 Nd360 2.414 . S
O389 Nd361 2.682 . S
O389 C378 1.273 . S
O390 Nd361 2.410 . S
O390 C379 1.251 . S
O391 Nd360 2.424 . S
O391 C379 1.268 . S
H392 C364 0.930 . S
H393 C365 0.929 . S
H394 C367 0.930 . S
H395 C368 0.929 . S
H396 C373 0.930 . S
H397 C374 0.929 . S
H398 C376 0.930 . S
H399 C377 0.929 . S
Nd400 C402 2.836 1_545 S
Nd400 O420 2.500 . S
Nd400 O421 2.492 1_545 S
Nd400 O422 2.487 1_545 S
Nd400 O423 2.682 . S
Nd400 O424 2.410 . S
Nd400 O429 2.414 . S
Nd400 O431 2.424 . S
Nd401 C411 2.836 . S
Nd401 O423 2.414 . S
Nd401 O425 2.424 . S
Nd401 O426 2.500 . S
Nd401 O427 2.492 . S
Nd401 O428 2.487 . S
Nd401 O429 2.682 . S
Nd401 O430 2.410 . S
C402 Nd400 2.836 1_565 S
C402 C403 1.498 . S
C402 O420 1.258 1_565 S
C402 O421 1.239 . S
C403 C402 1.498 . S
C403 C404 1.366 1_565 S
C403 C408 1.407 . S
C404 C403 1.366 1_545 S
C404 C405 1.392 1_545 S
C404 H432 0.930 . S
C405 C404 1.392 1_565 S
C405 C406 1.398 1_554 S
C405 H433 0.929 1_564 S
C406 C405 1.398 1_556 S
C406 C407 1.352 1_556 S
C407 C406 1.352 1_554 S
C407 C408 1.384 . S
C407 H434 0.930 . S
C408 C403 1.407 . S
C408 C407 1.384 . S
C408 H435 0.929 . S
C409 O422 1.241 1_545 S
C409 O423 1.273 . S
C410 O424 1.251 . S
C410 O425 1.268 . S
C411 Nd401 2.836 . S
C411 C412 1.498 . S
C411 O426 1.258 . S
C411 O427 1.239 . S
C412 C411 1.498 . S
C412 C413 1.366 . S
C412 C417 1.407 . S
C413 C412 1.366 . S
C413 C414 1.392 . S
C413 H436 0.930 . S
C414 C413 1.392 . S
C414 C415 1.398 . S
C414 H437 0.929 . S
C415 C414 1.398 . S
C415 C416 1.352 . S
C416 C415 1.352 . S
C416 C417 1.384 . S
C416 H438 0.930 . S
C417 C412 1.407 . S
C417 C416 1.384 . S
C417 H439 0.929 . S
C418 O428 1.241 . S
C418 O429 1.273 . S
C419 O430 1.251 . S
C419 O431 1.268 . S
O420 Nd400 2.500 . S
O420 C402 1.258 1_545 S
O421 Nd400 2.492 1_565 S
O421 C402 1.239 . S
O422 Nd400 2.487 1_565 S
O422 C409 1.241 1_565 S
O423 Nd400 2.682 . S
O423 Nd401 2.414 . S
O423 C409 1.273 . S
O424 Nd400 2.410 . S
O424 C410 1.251 . S
O425 Nd401 2.424 . S
O425 C410 1.268 . S
O426 Nd401 2.500 . S
O426 C411 1.258 . S
O427 Nd401 2.492 . S
O427 C411 1.239 . S
O428 Nd401 2.487 . S
O428 C418 1.241 . S
O429 Nd400 2.414 . S
O429 Nd401 2.682 . S
O429 C418 1.273 . S
O430 Nd401 2.410 . S
O430 C419 1.251 . S
O431 Nd400 2.424 . S
O431 C419 1.268 . S
H432 C404 0.930 . S
H433 C405 0.929 1_546 S
H434 C407 0.930 . S
H435 C408 0.929 . S
H436 C413 0.930 . S
H437 C414 0.929 . S
H438 C416 0.930 . S
H439 C417 0.929 . S
Nd440 C442 2.836 . S
Nd440 O460 2.500 . S
Nd440 O461 2.492 . S
Nd440 O462 2.487 . S
Nd440 O463 2.682 . S
Nd440 O464 2.410 . S
Nd440 O469 2.414 . S
Nd440 O471 2.424 . S
Nd441 C451 2.836 1_556 S
Nd441 O463 2.414 . S
Nd441 O465 2.424 . S
Nd441 O466 2.500 1_556 S
Nd441 O467 2.492 . S
Nd441 O468 2.487 . S
Nd441 O469 2.682 . S
Nd441 O470 2.410 . S
C442 Nd440 2.836 . S
C442 C443 1.498 . S
C442 O460 1.258 . S
C442 O461 1.239 . S
C443 C442 1.498 . S
C443 C444 1.366 . S
C443 C448 1.407 . S
C444 C443 1.366 . S
C444 C445 1.392 . S
C444 H472 0.930 . S
C445 C444 1.392 . S
C445 C446 1.398 . S
C445 H473 0.929 . S
C446 C445 1.398 . S
C446 C447 1.352 . S
C447 C446 1.352 . S
C447 C448 1.384 . S
C447 H474 0.930 . S
C448 C443 1.407 . S
C448 C447 1.384 . S
C448 H475 0.929 . S
C449 O462 1.241 . S
C449 O463 1.273 . S
C450 O464 1.251 . S
C450 O465 1.268 . S
C451 Nd441 2.836 1_554 S
C451 C452 1.498 . S
C451 O466 1.258 . S
C451 O467 1.239 1_554 S
C452 C451 1.498 . S
C452 C453 1.366 . S
C452 C457 1.407 . S
C453 C452 1.366 . S
C453 C454 1.392 . S
C453 H476 0.930 . S
C454 C453 1.392 . S
C454 C455 1.398 . S
C454 H477 0.929 . S
C455 C454 1.398 . S
C455 C456 1.352 . S
C456 C455 1.352 . S
C456 C457 1.384 . S
C456 H478 0.930 . S
C457 C452 1.407 . S
C457 C456 1.384 . S
C457 H479 0.929 . S
C458 O468 1.241 . S
C458 O469 1.273 . S
C459 O470 1.251 . S
C459 O471 1.268 . S
O460 Nd440 2.500 . S
O460 C442 1.258 . S
O461 Nd440 2.492 . S
O461 C442 1.239 . S
O462 Nd440 2.487 . S
O462 C449 1.241 . S
O463 Nd440 2.682 . S
O463 Nd441 2.414 . S
O463 C449 1.273 . S
O464 Nd440 2.410 . S
O464 C450 1.251 . S
O465 Nd441 2.424 . S
O465 C450 1.268 . S
O466 Nd441 2.500 1_554 S
O466 C451 1.258 . S
O467 Nd441 2.492 . S
O467 C451 1.239 1_556 S
O468 Nd441 2.487 . S
O468 C458 1.241 . S
O469 Nd440 2.414 . S
O469 Nd441 2.682 . S
O469 C458 1.273 . S
O470 Nd441 2.410 . S
O470 C459 1.251 . S
O471 Nd440 2.424 . S
O471 C459 1.268 . S
H472 C444 0.930 . S
H473 C445 0.929 . S
H474 C447 0.930 . S
H475 C448 0.929 . S
H476 C453 0.930 . S
H477 C454 0.929 . S
H478 C456 0.930 . S
H479 C457 0.929 . S
Nd480 C482 2.836 1_545 S
Nd480 O500 2.500 . S
Nd480 O501 2.492 1_545 S
Nd480 O502 2.487 1_545 S
Nd480 O503 2.682 . S
Nd480 O504 2.410 1_655 S
Nd480 O509 2.414 . S
Nd480 O511 2.424 . S
Nd481 C491 2.836 . S
Nd481 O503 2.414 . S
Nd481 O505 2.424 1_655 S
Nd481 O506 2.500 . S
Nd481 O507 2.492 . S
Nd481 O508 2.487 . S
Nd481 O509 2.682 . S
Nd481 O510 2.410 . S
C482 Nd480 2.836 1_565 S
C482 C483 1.498 . S
C482 O500 1.258 1_565 S
C482 O501 1.239 . S
C483 C482 1.498 . S
C483 C484 1.366 1_565 S
C483 C488 1.407 . S
C484 C483 1.366 1_545 S
C484 C485 1.392 1_545 S
C484 H512 0.930 . S
C485 C484 1.392 1_565 S
C485 C486 1.398 1_556 S
C485 H513 0.929 1_566 S
C486 C485 1.398 1_554 S
C486 C487 1.352 1_554 S
C487 C486 1.352 1_556 S
C487 C488 1.384 . S
C487 H514 0.930 . S
C488 C483 1.407 . S
C488 C487 1.384 . S
C488 H515 0.929 . S
C489 O502 1.241 1_545 S
C489 O503 1.273 . S
C490 O504 1.251 . S
C490 O505 1.268 . S
C491 Nd481 2.836 . S
C491 C492 1.498 . S
C491 O506 1.258 . S
C491 O507 1.239 . S
C492 C491 1.498 . S
C492 C493 1.366 . S
C492 C497 1.407 . S
C493 C492 1.366 . S
C493 C494 1.392 . S
C493 H516 0.930 . S
C494 C493 1.392 . S
C494 C495 1.398 . S
C494 H517 0.929 . S
C495 C494 1.398 . S
C495 C496 1.352 . S
C496 C495 1.352 . S
C496 C497 1.384 . S
C496 H518 0.930 . S
C497 C492 1.407 . S
C497 C496 1.384 . S
C497 H519 0.929 . S
C498 O508 1.241 . S
C498 O509 1.273 . S
C499 O510 1.251 . S
C499 O511 1.268 . S
O500 Nd480 2.500 . S
O500 C482 1.258 1_545 S
O501 Nd480 2.492 1_565 S
O501 C482 1.239 . S
O502 Nd480 2.487 1_565 S
O502 C489 1.241 1_565 S
O503 Nd480 2.682 . S
O503 Nd481 2.414 . S
O503 C489 1.273 . S
O504 Nd480 2.410 1_455 S
O504 C490 1.251 . S
O505 Nd481 2.424 1_455 S
O505 C490 1.268 . S
O506 Nd481 2.500 . S
O506 C491 1.258 . S
O507 Nd481 2.492 . S
O507 C491 1.239 . S
O508 Nd481 2.487 . S
O508 C498 1.241 . S
O509 Nd480 2.414 . S
O509 Nd481 2.682 . S
O509 C498 1.273 . S
O510 Nd481 2.410 . S
O510 C499 1.251 . S
O511 Nd480 2.424 . S
O511 C499 1.268 . S
H512 C484 0.930 . S
H513 C485 0.929 1_544 S
H514 C487 0.930 . S
H515 C488 0.929 . S
H516 C493 0.930 . S
H517 C494 0.929 . S
H518 C496 0.930 . S
H519 C497 0.929 . S
Nd520 C522 2.836 . S
Nd520 O540 2.500 . S
Nd520 O541 2.492 . S
Nd520 O542 2.487 . S
Nd520 O543 2.682 . S
Nd520 O544 2.410 . S
Nd520 O549 2.414 . S
Nd520 O551 2.424 . S
Nd521 C531 2.836 . S
Nd521 O543 2.414 . S
Nd521 O545 2.424 . S
Nd521 O546 2.500 . S
Nd521 O547 2.492 . S
Nd521 O548 2.487 . S
Nd521 O549 2.682 . S
Nd521 O550 2.410 . S
C522 Nd520 2.836 . S
C522 C523 1.498 . S
C522 O540 1.258 . S
C522 O541 1.239 . S
C523 C522 1.498 . S
C523 C524 1.366 . S
C523 C528 1.407 . S
C524 C523 1.366 . S
C524 C525 1.392 . S
C524 H552 0.930 . S
C525 C524 1.392 . S
C525 C526 1.398 . S
C525 H553 0.929 . S
C526 C525 1.398 . S
C526 C527 1.352 . S
C527 C526 1.352 . S
C527 C528 1.384 . S
C527 H554 0.930 . S
C528 C523 1.407 . S
C528 C527 1.384 . S
C528 H555 0.929 . S
C529 O542 1.241 . S
C529 O543 1.273 . S
C530 O544 1.251 . S
C530 O545 1.268 . S
C531 Nd521 2.836 . S
C531 C532 1.498 . S
C531 O546 1.258 . S
C531 O547 1.239 . S
C532 C531 1.498 . S
C532 C533 1.366 . S
C532 C537 1.407 . S
C533 C532 1.366 . S
C533 C534 1.392 . S
C533 H556 0.930 . S
C534 C533 1.392 . S
C534 C535 1.398 . S
C534 H557 0.929 . S
C535 C534 1.398 . S
C535 C536 1.352 . S
C536 C535 1.352 . S
C536 C537 1.384 . S
C536 H558 0.930 . S
C537 C532 1.407 . S
C537 C536 1.384 . S
C537 H559 0.929 . S
C538 O548 1.241 . S
C538 O549 1.273 . S
C539 O550 1.251 . S
C539 O551 1.268 . S
O540 Nd520 2.500 . S
O540 C522 1.258 . S
O541 Nd520 2.492 . S
O541 C522 1.239 . S
O542 Nd520 2.487 . S
O542 C529 1.241 . S
O543 Nd520 2.682 . S
O543 Nd521 2.414 . S
O543 C529 1.273 . S
O544 Nd520 2.410 . S
O544 C530 1.251 . S
O545 Nd521 2.424 . S
O545 C530 1.268 . S
O546 Nd521 2.500 . S
O546 C531 1.258 . S
O547 Nd521 2.492 . S
O547 C531 1.239 . S
O548 Nd521 2.487 . S
O548 C538 1.241 . S
O549 Nd520 2.414 . S
O549 Nd521 2.682 . S
O549 C538 1.273 . S
O550 Nd521 2.410 . S
O550 C539 1.251 . S
O551 Nd520 2.424 . S
O551 C539 1.268 . S
H552 C524 0.930 . S
H553 C525 0.929 . S
H554 C527 0.930 . S
H555 C528 0.929 . S
H556 C533 0.930 . S
H557 C534 0.929 . S
H558 C536 0.930 . S
H559 C537 0.929 . S
Nd560 C562 2.836 1_565 S
Nd560 O580 2.500 . S
Nd560 O581 2.492 1_565 S
Nd560 O582 2.487 1_565 S
Nd560 O583 2.682 . S
Nd560 O584 2.410 . S
Nd560 O589 2.414 . S
Nd560 O591 2.424 . S
Nd561 C571 2.836 . S
Nd561 O583 2.414 . S
Nd561 O585 2.424 . S
Nd561 O586 2.500 . S
Nd561 O587 2.492 . S
Nd561 O588 2.487 . S
Nd561 O589 2.682 . S
Nd561 O590 2.410 . S
C562 Nd560 2.836 1_545 S
C562 C563 1.498 . S
C562 O580 1.258 1_545 S
C562 O581 1.239 . S
C563 C562 1.498 . S
C563 C564 1.366 1_545 S
C563 C568 1.407 . S
C564 C563 1.366 1_565 S
C564 C565 1.392 1_565 S
C564 H592 0.930 . S
C565 C564 1.392 1_545 S
C565 C566 1.398 . S
C565 H593 0.929 1_545 S
C566 C565 1.398 . S
C566 C567 1.352 . S
C567 C566 1.352 . S
C567 C568 1.384 . S
C567 H594 0.930 . S
C568 C563 1.407 . S
C568 C567 1.384 . S
C568 H595 0.929 . S
C569 O582 1.241 1_565 S
C569 O583 1.273 . S
C570 O584 1.251 . S
C570 O585 1.268 . S
C571 Nd561 2.836 . S
C571 C572 1.498 . S
C571 O586 1.258 . S
C571 O587 1.239 . S
C572 C571 1.498 . S
C572 C573 1.366 . S
C572 C577 1.407 . S
C573 C572 1.366 . S
C573 C574 1.392 . S
C573 H596 0.930 . S
C574 C573 1.392 . S
C574 C575 1.398 . S
C574 H597 0.929 . S
C575 C574 1.398 . S
C575 C576 1.352 . S
C576 C575 1.352 . S
C576 C577 1.384 . S
C576 H598 0.930 . S
C577 C572 1.407 . S
C577 C576 1.384 . S
C577 H599 0.929 . S
C578 O588 1.241 . S
C578 O589 1.273 . S
C579 O590 1.251 . S
C579 O591 1.268 . S
O580 Nd560 2.500 . S
O580 C562 1.258 1_565 S
O581 Nd560 2.492 1_545 S
O581 C562 1.239 . S
O582 Nd560 2.487 1_545 S
O582 C569 1.241 1_545 S
O583 Nd560 2.682 . S
O583 Nd561 2.414 . S
O583 C569 1.273 . S
O584 Nd560 2.410 . S
O584 C570 1.251 . S
O585 Nd561 2.424 . S
O585 C570 1.268 . S
O586 Nd561 2.500 . S
O586 C571 1.258 . S
O587 Nd561 2.492 . S
O587 C571 1.239 . S
O588 Nd561 2.487 . S
O588 C578 1.241 . S
O589 Nd560 2.414 . S
O589 Nd561 2.682 . S
O589 C578 1.273 . S
O590 Nd561 2.410 . S
O590 C579 1.251 . S
O591 Nd560 2.424 . S
O591 C579 1.268 . S
H592 C564 0.930 . S
H593 C565 0.929 1_565 S
H594 C567 0.930 . S
H595 C568 0.929 . S
H596 C573 0.930 . S
H597 C574 0.929 . S
H598 C576 0.930 . S
H599 C577 0.929 . S
Nd600 C602 2.836 . S
Nd600 O620 2.500 . S
Nd600 O621 2.492 . S
Nd600 O622 2.487 . S
Nd600 O623 2.682 . S
Nd600 O624 2.410 . S
Nd600 O629 2.414 . S
Nd600 O631 2.424 . S
Nd601 C611 2.836 1_554 S
Nd601 O623 2.414 . S
Nd601 O625 2.424 . S
Nd601 O626 2.500 1_554 S
Nd601 O627 2.492 . S
Nd601 O628 2.487 . S
Nd601 O629 2.682 . S
Nd601 O630 2.410 . S
C602 Nd600 2.836 . S
C602 C603 1.498 . S
C602 O620 1.258 . S
C602 O621 1.239 . S
C603 C602 1.498 . S
C603 C604 1.366 . S
C603 C608 1.407 . S
C604 C603 1.366 . S
C604 C605 1.392 . S
C604 H632 0.930 . S
C605 C604 1.392 . S
C605 C606 1.398 . S
C605 H633 0.929 . S
C606 C605 1.398 . S
C606 C607 1.352 . S
C607 C606 1.352 . S
C607 C608 1.384 . S
C607 H634 0.930 . S
C608 C603 1.407 . S
C608 C607 1.384 . S
C608 H635 0.929 . S
C609 O622 1.241 . S
C609 O623 1.273 . S
C610 O624 1.251 . S
C610 O625 1.268 . S
C611 Nd601 2.836 1_556 S
C611 C612 1.498 . S
C611 O626 1.258 . S
C611 O627 1.239 1_556 S
C612 C611 1.498 . S
C612 C613 1.366 . S
C612 C617 1.407 1_655 S
C613 C612 1.366 . S
C613 C614 1.392 . S
C613 H636 0.930 . S
C614 C613 1.392 . S
C614 C615 1.398 1_655 S
C614 H637 0.929 . S
C615 C614 1.398 1_455 S
C615 C616 1.352 . S
C616 C615 1.352 . S
C616 C617 1.384 . S
C616 H638 0.930 . S
C617 C612 1.407 1_455 S
C617 C616 1.384 . S
C617 H639 0.929 . S
C618 O628 1.241 . S
C618 O629 1.273 . S
C619 O630 1.251 . S
C619 O631 1.268 . S
O620 Nd600 2.500 . S
O620 C602 1.258 . S
O621 Nd600 2.492 . S
O621 C602 1.239 . S
O622 Nd600 2.487 . S
O622 C609 1.241 . S
O623 Nd600 2.682 . S
O623 Nd601 2.414 . S
O623 C609 1.273 . S
O624 Nd600 2.410 . S
O624 C610 1.251 . S
O625 Nd601 2.424 . S
O625 C610 1.268 . S
O626 Nd601 2.500 1_556 S
O626 C611 1.258 . S
O627 Nd601 2.492 . S
O627 C611 1.239 1_554 S
O628 Nd601 2.487 . S
O628 C618 1.241 . S
O629 Nd600 2.414 . S
O629 Nd601 2.682 . S
O629 C618 1.273 . S
O630 Nd601 2.410 . S
O630 C619 1.251 . S
O631 Nd600 2.424 . S
O631 C619 1.268 . S
H632 C604 0.930 . S
H633 C605 0.929 . S
H634 C607 0.930 . S
H635 C608 0.929 . S
H636 C613 0.930 . S
H637 C614 0.929 . S
H638 C616 0.930 . S
H639 C617 0.929 . S
Nd640 C642 2.836 . S
Nd640 O660 2.500 . S
Nd640 O661 2.492 . S
Nd640 O662 2.487 . S
Nd640 O663 2.682 . S
Nd640 O664 2.410 . S
Nd640 O669 2.414 . S
Nd640 O671 2.424 . S
Nd641 C651 2.836 . S
Nd641 O663 2.414 . S
Nd641 O665 2.424 . S
Nd641 O666 2.500 . S
Nd641 O667 2.492 . S
Nd641 O668 2.487 . S
Nd641 O669 2.682 . S
Nd641 O670 2.410 . S
C642 Nd640 2.836 . S
C642 C643 1.498 . S
C642 O660 1.258 . S
C642 O661 1.239 . S
C643 C642 1.498 . S
C643 C644 1.366 . S
C643 C648 1.407 . S
C644 C643 1.366 . S
C644 C645 1.392 . S
C644 H672 0.930 . S
C645 C644 1.392 . S
C645 C646 1.398 . S
C645 H673 0.929 . S
C646 C645 1.398 . S
C646 C647 1.352 . S
C647 C646 1.352 . S
C647 C648 1.384 . S
C647 H674 0.930 . S
C648 C643 1.407 . S
C648 C647 1.384 . S
C648 H675 0.929 . S
C649 O662 1.241 . S
C649 O663 1.273 . S
C650 O664 1.251 . S
C650 O665 1.268 . S
C651 Nd641 2.836 . S
C651 C652 1.498 . S
C651 O666 1.258 . S
C651 O667 1.239 . S
C652 C651 1.498 . S
C652 C653 1.366 . S
C652 C657 1.407 . S
C653 C652 1.366 . S
C653 C654 1.392 . S
C653 H676 0.930 . S
C654 C653 1.392 . S
C654 C655 1.398 1_556 S
C654 H677 0.929 1_556 S
C655 C654 1.398 1_554 S
C655 C656 1.352 1_554 S
C656 C655 1.352 1_556 S
C656 C657 1.384 . S
C656 H678 0.930 . S
C657 C652 1.407 . S
C657 C656 1.384 . S
C657 H679 0.929 . S
C658 O668 1.241 . S
C658 O669 1.273 . S
C659 O670 1.251 . S
C659 O671 1.268 . S
O660 Nd640 2.500 . S
O660 C642 1.258 . S
O661 Nd640 2.492 . S
O661 C642 1.239 . S
O662 Nd640 2.487 . S
O662 C649 1.241 . S
O663 Nd640 2.682 . S
O663 Nd641 2.414 . S
O663 C649 1.273 . S
O664 Nd640 2.410 . S
O664 C650 1.251 . S
O665 Nd641 2.424 . S
O665 C650 1.268 . S
O666 Nd641 2.500 . S
O666 C651 1.258 . S
O667 Nd641 2.492 . S
O667 C651 1.239 . S
O668 Nd641 2.487 . S
O668 C658 1.241 . S
O669 Nd640 2.414 . S
O669 Nd641 2.682 . S
O669 C658 1.273 . S
O670 Nd641 2.410 . S
O670 C659 1.251 . S
O671 Nd640 2.424 . S
O671 C659 1.268 . S
H672 C644 0.930 . S
H673 C645 0.929 . S
H674 C647 0.930 . S
H675 C648 0.929 . S
H676 C653 0.930 . S
H677 C654 0.929 1_554 S
H678 C656 0.930 . S
H679 C657 0.929 . S
Nd680 C682 2.836 1_554 S
Nd680 O700 2.500 1_554 S
Nd680 O701 2.492 . S
Nd680 O702 2.487 . S
Nd680 O703 2.682 . S
Nd680 O704 2.410 . S
Nd680 O709 2.414 . S
Nd680 O711 2.424 . S
Nd681 C691 2.836 . S
Nd681 O703 2.414 . S
Nd681 O705 2.424 . S
Nd681 O706 2.500 . S
Nd681 O707 2.492 . S
Nd681 O708 2.487 . S
Nd681 O709 2.682 . S
Nd681 O710 2.410 . S
C682 Nd680 2.836 1_556 S
C682 C683 1.498 . S
C682 O700 1.258 . S
C682 O701 1.239 1_556 S
C683 C682 1.498 . S
C683 C684 1.366 . S
C683 C688 1.407 . S
C684 C683 1.366 . S
C684 C685 1.392 . S
C684 H712 0.930 . S
C685 C684 1.392 . S
C685 C686 1.398 . S
C685 H713 0.929 . S
C686 C685 1.398 . S
C686 C687 1.352 . S
C687 C686 1.352 . S
C687 C688 1.384 . S
C687 H714 0.930 . S
C688 C683 1.407 . S
C688 C687 1.384 . S
C688 H715 0.929 . S
C689 O702 1.241 . S
C689 O703 1.273 . S
C690 O704 1.251 . S
C690 O705 1.268 . S
C691 Nd681 2.836 . S
C691 C692 1.498 . S
C691 O706 1.258 . S
C691 O707 1.239 . S
C692 C691 1.498 . S
C692 C693 1.366 . S
C692 C697 1.407 . S
C693 C692 1.366 . S
C693 C694 1.392 . S
C693 H716 0.930 . S
C694 C693 1.392 . S
C694 C695 1.398 . S
C694 H717 0.929 . S
C695 C694 1.398 . S
C695 C696 1.352 . S
C696 C695 1.352 . S
C696 C697 1.384 . S
C696 H718 0.930 . S
C697 C692 1.407 . S
C697 C696 1.384 . S
C697 H719 0.929 . S
C698 O708 1.241 . S
C698 O709 1.273 . S
C699 O710 1.251 . S
C699 O711 1.268 . S
O700 Nd680 2.500 1_556 S
O700 C682 1.258 . S
O701 Nd680 2.492 . S
O701 C682 1.239 1_554 S
O702 Nd680 2.487 . S
O702 C689 1.241 . S
O703 Nd680 2.682 . S
O703 Nd681 2.414 . S
O703 C689 1.273 . S
O704 Nd680 2.410 . S
O704 C690 1.251 . S
O705 Nd681 2.424 . S
O705 C690 1.268 . S
O706 Nd681 2.500 . S
O706 C691 1.258 . S
O707 Nd681 2.492 . S
O707 C691 1.239 . S
O708 Nd681 2.487 . S
O708 C698 1.241 . S
O709 Nd680 2.414 . S
O709 Nd681 2.682 . S
O709 C698 1.273 . S
O710 Nd681 2.410 . S
O710 C699 1.251 . S
O711 Nd680 2.424 . S
O711 C699 1.268 . S
H712 C684 0.930 . S
H713 C685 0.929 . S
H714 C687 0.930 . S
H715 C688 0.929 . S
H716 C693 0.930 . S
H717 C694 0.929 . S
H718 C696 0.930 . S
H719 C697 0.929 . S
Nd720 C722 2.836 . S
Nd720 O740 2.500 . S
Nd720 O741 2.492 . S
Nd720 O742 2.487 . S
Nd720 O743 2.682 . S
Nd720 O744 2.410 . S
Nd720 O749 2.414 . S
Nd720 O751 2.424 1_655 S
Nd721 C731 2.836 . S
Nd721 O743 2.414 . S
Nd721 O745 2.424 . S
Nd721 O746 2.500 . S
Nd721 O747 2.492 . S
Nd721 O748 2.487 . S
Nd721 O749 2.682 . S
Nd721 O750 2.410 1_655 S
C722 Nd720 2.836 . S
C722 C723 1.498 . S
C722 O740 1.258 . S
C722 O741 1.239 . S
C723 C722 1.498 . S
C723 C724 1.366 . S
C723 C728 1.407 . S
C724 C723 1.366 . S
C724 C725 1.392 . S
C724 H752 0.930 . S
C725 C724 1.392 . S
C725 C726 1.398 . S
C725 H753 0.929 . S
C726 C725 1.398 . S
C726 C727 1.352 . S
C727 C726 1.352 . S
C727 C728 1.384 . S
C727 H754 0.930 . S
C728 C723 1.407 . S
C728 C727 1.384 . S
C728 H755 0.929 . S
C729 O742 1.241 . S
C729 O743 1.273 . S
C730 O744 1.251 . S
C730 O745 1.268 . S
C731 Nd721 2.836 . S
C731 C732 1.498 . S
C731 O746 1.258 . S
C731 O747 1.239 . S
C732 C731 1.498 . S
C732 C733 1.366 . S
C732 C737 1.407 . S
C733 C732 1.366 . S
C733 C734 1.392 . S
C733 H756 0.930 . S
C734 C733 1.392 . S
C734 C735 1.398 . S
C734 H757 0.929 . S
C735 C734 1.398 . S
C735 C736 1.352 . S
C736 C735 1.352 . S
C736 C737 1.384 . S
C736 H758 0.930 . S
C737 C732 1.407 . S
C737 C736 1.384 . S
C737 H759 0.929 . S
C738 O748 1.241 . S
C738 O749 1.273 . S
C739 O750 1.251 . S
C739 O751 1.268 . S
O740 Nd720 2.500 . S
O740 C722 1.258 . S
O741 Nd720 2.492 . S
O741 C722 1.239 . S
O742 Nd720 2.487 . S
O742 C729 1.241 . S
O743 Nd720 2.682 . S
O743 Nd721 2.414 . S
O743 C729 1.273 . S
O744 Nd720 2.410 . S
O744 C730 1.251 . S
O745 Nd721 2.424 . S
O745 C730 1.268 . S
O746 Nd721 2.500 . S
O746 C731 1.258 . S
O747 Nd721 2.492 . S
O747 C731 1.239 . S
O748 Nd721 2.487 . S
O748 C738 1.241 . S
O749 Nd720 2.414 . S
O749 Nd721 2.682 . S
O749 C738 1.273 . S
O750 Nd721 2.410 1_455 S
O750 C739 1.251 . S
O751 Nd720 2.424 1_455 S
O751 C739 1.268 . S
H752 C724 0.930 . S
H753 C725 0.929 . S
H754 C727 0.930 . S
H755 C728 0.929 . S
H756 C733 0.930 . S
H757 C734 0.929 . S
H758 C736 0.930 . S
H759 C737 0.929 . S
Nd760 C762 2.836 . S
Nd760 O780 2.500 . S
Nd760 O781 2.492 . S
Nd760 O782 2.487 . S
Nd760 O783 2.682 . S
Nd760 O784 2.410 . S
Nd760 O789 2.414 . S
Nd760 O791 2.424 . S
Nd761 C771 2.836 . S
Nd761 O783 2.414 . S
Nd761 O785 2.424 . S
Nd761 O786 2.500 . S
Nd761 O787 2.492 . S
Nd761 O788 2.487 . S
Nd761 O789 2.682 . S
Nd761 O790 2.410 . S
C762 Nd760 2.836 . S
C762 C763 1.498 . S
C762 O780 1.258 . S
C762 O781 1.239 . S
C763 C762 1.498 . S
C763 C764 1.366 . S
C763 C768 1.407 1_655 S
C764 C763 1.366 . S
C764 C765 1.392 . S
C764 H792 0.930 . S
C765 C764 1.392 . S
C765 C766 1.398 1_655 S
C765 H793 0.929 . S
C766 C765 1.398 1_455 S
C766 C767 1.352 . S
C767 C766 1.352 . S
C767 C768 1.384 . S
C767 H794 0.930 . S
C768 C763 1.407 1_455 S
C768 C767 1.384 . S
C768 H795 0.929 . S
C769 O782 1.241 . S
C769 O783 1.273 . S
C770 O784 1.251 . S
C770 O785 1.268 . S
C771 Nd761 2.836 . S
C771 C772 1.498 . S
C771 O786 1.258 . S
C771 O787 1.239 . S
C772 C771 1.498 . S
C772 C773 1.366 . S
C772 C777 1.407 . S
C773 C772 1.366 . S
C773 C774 1.392 . S
C773 H796 0.930 . S
C774 C773 1.392 . S
C774 C775 1.398 . S
C774 H797 0.929 . S
C775 C774 1.398 . S
C775 C776 1.352 . S
C776 C775 1.352 . S
C776 C777 1.384 . S
C776 H798 0.930 . S
C777 C772 1.407 . S
C777 C776 1.384 . S
C777 H799 0.929 . S
C778 O788 1.241 . S
C778 O789 1.273 . S
C779 O790 1.251 . S
C779 O791 1.268 . S
O780 Nd760 2.500 . S
O780 C762 1.258 . S
O781 Nd760 2.492 . S
O781 C762 1.239 . S
O782 Nd760 2.487 . S
O782 C769 1.241 . S
O783 Nd760 2.682 . S
O783 Nd761 2.414 . S
O783 C769 1.273 . S
O784 Nd760 2.410 . S
O784 C770 1.251 . S
O785 Nd761 2.424 . S
O785 C770 1.268 . S
O786 Nd761 2.500 . S
O786 C771 1.258 . S
O787 Nd761 2.492 . S
O787 C771 1.239 . S
O788 Nd761 2.487 . S
O788 C778 1.241 . S
O789 Nd760 2.414 . S
O789 Nd761 2.682 . S
O789 C778 1.273 . S
O790 Nd761 2.410 . S
O790 C779 1.251 . S
O791 Nd760 2.424 . S
O791 C779 1.268 . S
H792 C764 0.930 . S
H793 C765 0.929 . S
H794 C767 0.930 . S
H795 C768 0.929 . S
H796 C773 0.930 . S
H797 C774 0.929 . S
H798 C776 0.930 . S
H799 C777 0.929 . S
Nd800 C802 2.836 . S
Nd800 O820 2.500 . S
Nd800 O821 2.492 . S
Nd800 O822 2.487 . S
Nd800 O823 2.682 . S
Nd800 O824 2.410 . S
Nd800 O829 2.414 . S
Nd800 O831 2.424 . S
Nd801 C811 2.836 . S
Nd801 O823 2.414 . S
Nd801 O825 2.424 . S
Nd801 O826 2.500 . S
Nd801 O827 2.492 . S
Nd801 O828 2.487 . S
Nd801 O829 2.682 . S
Nd801 O830 2.410 . S
C802 Nd800 2.836 . S
C802 C803 1.498 . S
C802 O820 1.258 . S
C802 O821 1.239 . S
C803 C802 1.498 . S
C803 C804 1.366 . S
C803 C808 1.407 . S
C804 C803 1.366 . S
C804 C805 1.392 . S
C804 H832 0.930 . S
C805 C804 1.392 . S
C805 C806 1.398 . S
C805 H833 0.929 . S
C806 C805 1.398 . S
C806 C807 1.352 . S
C807 C806 1.352 . S
C807 C808 1.384 . S
C807 H834 0.930 . S
C808 C803 1.407 . S
C808 C807 1.384 . S
C808 H835 0.929 . S
C809 O822 1.241 . S
C809 O823 1.273 . S
C810 O824 1.251 . S
C810 O825 1.268 . S
C811 Nd801 2.836 . S
C811 C812 1.498 . S
C811 O826 1.258 . S
C811 O827 1.239 . S
C812 C811 1.498 . S
C812 C813 1.366 . S
C812 C817 1.407 . S
C813 C812 1.366 . S
C813 C814 1.392 . S
C813 H836 0.930 . S
C814 C813 1.392 . S
C814 C815 1.398 . S
C814 H837 0.929 . S
C815 C814 1.398 . S
C815 C816 1.352 . S
C816 C815 1.352 . S
C816 C817 1.384 . S
C816 H838 0.930 . S
C817 C812 1.407 . S
C817 C816 1.384 . S
C817 H839 0.929 . S
C818 O828 1.241 . S
C818 O829 1.273 . S
C819 O830 1.251 . S
C819 O831 1.268 . S
O820 Nd800 2.500 . S
O820 C802 1.258 . S
O821 Nd800 2.492 . S
O821 C802 1.239 . S
O822 Nd800 2.487 . S
O822 C809 1.241 . S
O823 Nd800 2.682 . S
O823 Nd801 2.414 . S
O823 C809 1.273 . S
O824 Nd800 2.410 . S
O824 C810 1.251 . S
O825 Nd801 2.424 . S
O825 C810 1.268 . S
O826 Nd801 2.500 . S
O826 C811 1.258 . S
O827 Nd801 2.492 . S
O827 C811 1.239 . S
O828 Nd801 2.487 . S
O828 C818 1.241 . S
O829 Nd800 2.414 . S
O829 Nd801 2.682 . S
O829 C818 1.273 . S
O830 Nd801 2.410 . S
O830 C819 1.251 . S
O831 Nd800 2.424 . S
O831 C819 1.268 . S
H832 C804 0.930 . S
H833 C805 0.929 . S
H834 C807 0.930 . S
H835 C808 0.929 . S
H836 C813 0.930 . S
H837 C814 0.929 . S
H838 C816 0.930 . S
H839 C817 0.929 . S
Nd840 C842 2.836 1_556 S
Nd840 O860 2.500 1_556 S
Nd840 O861 2.492 . S
Nd840 O862 2.487 . S
Nd840 O863 2.682 . S
Nd840 O864 2.410 . S
Nd840 O869 2.414 . S
Nd840 O871 2.424 . S
Nd841 C851 2.836 . S
Nd841 O863 2.414 . S
Nd841 O865 2.424 . S
Nd841 O866 2.500 . S
Nd841 O867 2.492 . S
Nd841 O868 2.487 . S
Nd841 O869 2.682 . S
Nd841 O870 2.410 . S
C842 Nd840 2.836 1_554 S
C842 C843 1.498 . S
C842 O860 1.258 . S
C842 O861 1.239 1_554 S
C843 C842 1.498 . S
C843 C844 1.366 . S
C843 C848 1.407 1_655 S
C844 C843 1.366 . S
C844 C845 1.392 . S
C844 H872 0.930 . S
C845 C844 1.392 . S
C845 C846 1.398 1_655 S
C845 H873 0.929 . S
C846 C845 1.398 1_455 S
C846 C847 1.352 . S
C847 C846 1.352 . S
C847 C848 1.384 . S
C847 H874 0.930 . S
C848 C843 1.407 1_455 S
C848 C847 1.384 . S
C848 H875 0.929 . S
C849 O862 1.241 . S
C849 O863 1.273 . S
C850 O864 1.251 . S
C850 O865 1.268 . S
C851 Nd841 2.836 . S
C851 C852 1.498 . S
C851 O866 1.258 . S
C851 O867 1.239 . S
C852 C851 1.498 . S
C852 C853 1.366 . S
C852 C857 1.407 . S
C853 C852 1.366 . S
C853 C854 1.392 . S
C853 H876 0.930 . S
C854 C853 1.392 . S
C854 C855 1.398 . S
C854 H877 0.929 . S
C855 C854 1.398 . S
C855 C856 1.352 . S
C856 C855 1.352 . S
C856 C857 1.384 . S
C856 H878 0.930 . S
C857 C852 1.407 . S
C857 C856 1.384 . S
C857 H879 0.929 . S
C858 O868 1.241 . S
C858 O869 1.273 . S
C859 O870 1.251 . S
C859 O871 1.268 . S
O860 Nd840 2.500 1_554 S
O860 C842 1.258 . S
O861 Nd840 2.492 . S
O861 C842 1.239 1_556 S
O862 Nd840 2.487 . S
O862 C849 1.241 . S
O863 Nd840 2.682 . S
O863 Nd841 2.414 . S
O863 C849 1.273 . S
O864 Nd840 2.410 . S
O864 C850 1.251 . S
O865 Nd841 2.424 . S
O865 C850 1.268 . S
O866 Nd841 2.500 . S
O866 C851 1.258 . S
O867 Nd841 2.492 . S
O867 C851 1.239 . S
O868 Nd841 2.487 . S
O868 C858 1.241 . S
O869 Nd840 2.414 . S
O869 Nd841 2.682 . S
O869 C858 1.273 . S
O870 Nd841 2.410 . S
O870 C859 1.251 . S
O871 Nd840 2.424 . S
O871 C859 1.268 . S
H872 C844 0.930 . S
H873 C845 0.929 . S
H874 C847 0.930 . S
H875 C848 0.929 . S
H876 C853 0.930 . S
H877 C854 0.929 . S
H878 C856 0.930 . S
H879 C857 0.929 . S
Nd880 C882 2.836 . S
Nd880 O900 2.500 . S
Nd880 O901 2.492 . S
Nd880 O902 2.487 . S
Nd880 O903 2.682 . S
Nd880 O904 2.410 . S
Nd880 O909 2.414 . S
Nd880 O911 2.424 1_655 S
Nd881 C891 2.836 . S
Nd881 O903 2.414 . S
Nd881 O905 2.424 . S
Nd881 O906 2.500 . S
Nd881 O907 2.492 . S
Nd881 O908 2.487 . S
Nd881 O909 2.682 . S
Nd881 O910 2.410 1_655 S
C882 Nd880 2.836 . S
C882 C883 1.498 . S
C882 O900 1.258 . S
C882 O901 1.239 . S
C883 C882 1.498 . S
C883 C884 1.366 . S
C883 C888 1.407 . S
C884 C883 1.366 . S
C884 C885 1.392 . S
C884 H912 0.930 . S
C885 C884 1.392 . S
C885 C886 1.398 . S
C885 H913 0.929 . S
C886 C885 1.398 . S
C886 C887 1.352 . S
C887 C886 1.352 . S
C887 C888 1.384 . S
C887 H914 0.930 . S
C888 C883 1.407 . S
C888 C887 1.384 . S
C888 H915 0.929 . S
C889 O902 1.241 . S
C889 O903 1.273 . S
C890 O904 1.251 . S
C890 O905 1.268 . S
C891 Nd881 2.836 . S
C891 C892 1.498 . S
C891 O906 1.258 . S
C891 O907 1.239 . S
C892 C891 1.498 . S
C892 C893 1.366 . S
C892 C897 1.407 . S
C893 C892 1.366 . S
C893 C894 1.392 . S
C893 H916 0.930 . S
C894 C893 1.392 . S
C894 C895 1.398 1_554 S
C894 H917 0.929 1_554 S
C895 C894 1.398 1_556 S
C895 C896 1.352 1_556 S
C896 C895 1.352 1_554 S
C896 C897 1.384 . S
C896 H918 0.930 . S
C897 C892 1.407 . S
C897 C896 1.384 . S
C897 H919 0.929 . S
C898 O908 1.241 . S
C898 O909 1.273 . S
C899 O910 1.251 . S
C899 O911 1.268 . S
O900 Nd880 2.500 . S
O900 C882 1.258 . S
O901 Nd880 2.492 . S
O901 C882 1.239 . S
O902 Nd880 2.487 . S
O902 C889 1.241 . S
O903 Nd880 2.682 . S
O903 Nd881 2.414 . S
O903 C889 1.273 . S
O904 Nd880 2.410 . S
O904 C890 1.251 . S
O905 Nd881 2.424 . S
O905 C890 1.268 . S
O906 Nd881 2.500 . S
O906 C891 1.258 . S
O907 Nd881 2.492 . S
O907 C891 1.239 . S
O908 Nd881 2.487 . S
O908 C898 1.241 . S
O909 Nd880 2.414 . S
O909 Nd881 2.682 . S
O909 C898 1.273 . S
O910 Nd881 2.410 1_455 S
O910 C899 1.251 . S
O911 Nd880 2.424 1_455 S
O911 C899 1.268 . S
H912 C884 0.930 . S
H913 C885 0.929 . S
H914 C887 0.930 . S
H915 C888 0.929 . S
H916 C893 0.930 . S
H917 C894 0.929 1_556 S
H918 C896 0.930 . S
H919 C897 0.929 . S
Nd920 C922 2.836 . S
Nd920 O940 2.500 . S
Nd920 O941 2.492 . S
Nd920 O942 2.487 . S
Nd920 O943 2.682 . S
Nd920 O944 2.410 . S
Nd920 O949 2.414 . S
Nd920 O951 2.424 . S
Nd921 C931 2.836 . S
Nd921 O943 2.414 . S
Nd921 O945 2.424 . S
Nd921 O946 2.500 . S
Nd921 O947 2.492 . S
Nd921 O948 2.487 . S
Nd921 O949 2.682 . S
Nd921 O950 2.410 . S
C922 Nd920 2.836 . S
C922 C923 1.498 . S
C922 O940 1.258 . S
C922 O941 1.239 . S
C923 C922 1.498 . S
C923 C924 1.366 . S
C923 C928 1.407 . S
C924 C923 1.366 . S
C924 C925 1.392 . S
C924 H952 0.930 . S
C925 C924 1.392 . S
C925 C926 1.398 . S
C925 H953 0.929 . S
C926 C925 1.398 . S
C926 C927 1.352 . S
C927 C926 1.352 . S
C927 C928 1.384 . S
C927 H954 0.930 . S
C928 C923 1.407 . S
C928 C927 1.384 . S
C928 H955 0.929 . S
C929 O942 1.241 . S
C929 O943 1.273 . S
C930 O944 1.251 . S
C930 O945 1.268 . S
C931 Nd921 2.836 . S
C931 C932 1.498 . S
C931 O946 1.258 . S
C931 O947 1.239 . S
C932 C931 1.498 . S
C932 C933 1.366 . S
C932 C937 1.407 . S
C933 C932 1.366 . S
C933 C934 1.392 . S
C933 H956 0.930 . S
C934 C933 1.392 . S
C934 C935 1.398 . S
C934 H957 0.929 . S
C935 C934 1.398 . S
C935 C936 1.352 . S
C936 C935 1.352 . S
C936 C937 1.384 . S
C936 H958 0.930 . S
C937 C932 1.407 . S
C937 C936 1.384 . S
C937 H959 0.929 . S
C938 O948 1.241 . S
C938 O949 1.273 . S
C939 O950 1.251 . S
C939 O951 1.268 . S
O940 Nd920 2.500 . S
O940 C922 1.258 . S
O941 Nd920 2.492 . S
O941 C922 1.239 . S
O942 Nd920 2.487 . S
O942 C929 1.241 . S
O943 Nd920 2.682 . S
O943 Nd921 2.414 . S
O943 C929 1.273 . S
O944 Nd920 2.410 . S
O944 C930 1.251 . S
O945 Nd921 2.424 . S
O945 C930 1.268 . S
O946 Nd921 2.500 . S
O946 C931 1.258 . S
O947 Nd921 2.492 . S
O947 C931 1.239 . S
O948 Nd921 2.487 . S
O948 C938 1.241 . S
O949 Nd920 2.414 . S
O949 Nd921 2.682 . S
O949 C938 1.273 . S
O950 Nd921 2.410 . S
O950 C939 1.251 . S
O951 Nd920 2.424 . S
O951 C939 1.268 . S
H952 C924 0.930 . S
H953 C925 0.929 . S
H954 C927 0.930 . S
H955 C928 0.929 . S
H956 C933 0.930 . S
H957 C934 0.929 . S
H958 C936 0.930 . S
H959 C937 0.929 . S
Nd960 C962 2.836 . S
Nd960 O980 2.500 . S
Nd960 O981 2.492 . S
Nd960 O982 2.487 . S
Nd960 O983 2.682 . S
Nd960 O984 2.410 . S
Nd960 O989 2.414 . S
Nd960 O991 2.424 . S
Nd961 C971 2.836 . S
Nd961 O983 2.414 . S
Nd961 O985 2.424 . S
Nd961 O986 2.500 . S
Nd961 O987 2.492 . S
Nd961 O988 2.487 . S
Nd961 O989 2.682 . S
Nd961 O990 2.410 . S
C962 Nd960 2.836 . S
C962 C963 1.498 . S
C962 O980 1.258 . S
C962 O981 1.239 . S
C963 C962 1.498 . S
C963 C964 1.366 . S
C963 C968 1.407 . S
C964 C963 1.366 . S
C964 C965 1.392 . S
C964 H992 0.930 . S
C965 C964 1.392 . S
C965 C966 1.398 1_554 S
C965 H993 0.929 1_554 S
C966 C965 1.398 1_556 S
C966 C967 1.352 1_556 S
C967 C966 1.352 1_554 S
C967 C968 1.384 . S
C967 H994 0.930 . S
C968 C963 1.407 . S
C968 C967 1.384 . S
C968 H995 0.929 . S
C969 O982 1.241 . S
C969 O983 1.273 . S
C970 O984 1.251 . S
C970 O985 1.268 . S
C971 Nd961 2.836 . S
C971 C972 1.498 . S
C971 O986 1.258 . S
C971 O987 1.239 . S
C972 C971 1.498 . S
C972 C973 1.366 . S
C972 C977 1.407 . S
C973 C972 1.366 . S
C973 C974 1.392 . S
C973 H996 0.930 . S
C974 C973 1.392 . S
C974 C975 1.398 . S
C974 H997 0.929 . S
C975 C974 1.398 . S
C975 C976 1.352 . S
C976 C975 1.352 . S
C976 C977 1.384 . S
C976 H998 0.930 . S
C977 C972 1.407 . S
C977 C976 1.384 . S
C977 H999 0.929 . S
C978 O988 1.241 . S
C978 O989 1.273 . S
C979 O990 1.251 . S
C979 O991 1.268 . S
O980 Nd960 2.500 . S
O980 C962 1.258 . S
O981 Nd960 2.492 . S
O981 C962 1.239 . S
O982 Nd960 2.487 . S
O982 C969 1.241 . S
O983 Nd960 2.682 . S
O983 Nd961 2.414 . S
O983 C969 1.273 . S
O984 Nd960 2.410 . S
O984 C970 1.251 . S
O985 Nd961 2.424 . S
O985 C970 1.268 . S
O986 Nd961 2.500 . S
O986 C971 1.258 . S
O987 Nd961 2.492 . S
O987 C971 1.239 . S
O988 Nd961 2.487 . S
O988 C978 1.241 . S
O989 Nd960 2.414 . S
O989 Nd961 2.682 . S
O989 C978 1.273 . S
O990 Nd961 2.410 . S
O990 C979 1.251 . S
O991 Nd960 2.424 . S
O991 C979 1.268 . S
H992 C964 0.930 . S
H993 C965 0.929 1_556 S
H994 C967 0.930 . S
H995 C968 0.929 . S
H996 C973 0.930 . S
H997 C974 0.929 . S
H998 C976 0.930 . S
H999 C977 0.929 . S
Nd1000 C1002 2.836 . S
Nd1000 O1020 2.500 . S
Nd1000 O1021 2.492 . S
Nd1000 O1022 2.487 . S
Nd1000 O1023 2.682 . S
Nd1000 O1024 2.410 . S
Nd1000 O1029 2.414 . S
Nd1000 O1031 2.424 . S
Nd1001 C1011 2.836 1_556 S
Nd1001 O1023 2.414 . S
Nd1001 O1025 2.424 . S
Nd1001 O1026 2.500 1_556 S
Nd1001 O1027 2.492 . S
Nd1001 O1028 2.487 . S
Nd1001 O1029 2.682 . S
Nd1001 O1030 2.410 . S
C1002 Nd1000 2.836 . S
C1002 C1003 1.498 . S
C1002 O1020 1.258 . S
C1002 O1021 1.239 . S
C1003 C1002 1.498 . S
C1003 C1004 1.366 . S
C1003 C1008 1.407 . S
C1004 C1003 1.366 . S
C1004 C1005 1.392 . S
C1004 H1032 0.930 . S
C1005 C1004 1.392 . S
C1005 C1006 1.398 . S
C1005 H1033 0.929 . S
C1006 C1005 1.398 . S
C1006 C1007 1.352 . S
C1007 C1006 1.352 . S
C1007 C1008 1.384 . S
C1007 H1034 0.930 . S
C1008 C1003 1.407 . S
C1008 C1007 1.384 . S
C1008 H1035 0.929 . S
C1009 O1022 1.241 . S
C1009 O1023 1.273 . S
C1010 O1024 1.251 . S
C1010 O1025 1.268 . S
C1011 Nd1001 2.836 1_554 S
C1011 C1012 1.498 . S
C1011 O1026 1.258 . S
C1011 O1027 1.239 1_554 S
C1012 C1011 1.498 . S
C1012 C1013 1.366 . S
C1012 C1017 1.407 . S
C1013 C1012 1.366 . S
C1013 C1014 1.392 . S
C1013 H1036 0.930 . S
C1014 C1013 1.392 . S
C1014 C1015 1.398 . S
C1014 H1037 0.929 . S
C1015 C1014 1.398 . S
C1015 C1016 1.352 . S
C1016 C1015 1.352 . S
C1016 C1017 1.384 . S
C1016 H1038 0.930 . S
C1017 C1012 1.407 . S
C1017 C1016 1.384 . S
C1017 H1039 0.929 . S
C1018 O1028 1.241 . S
C1018 O1029 1.273 . S
C1019 O1030 1.251 . S
C1019 O1031 1.268 . S
O1020 Nd1000 2.500 . S
O1020 C1002 1.258 . S
O1021 Nd1000 2.492 . S
O1021 C1002 1.239 . S
O1022 Nd1000 2.487 . S
O1022 C1009 1.241 . S
O1023 Nd1000 2.682 . S
O1023 Nd1001 2.414 . S
O1023 C1009 1.273 . S
O1024 Nd1000 2.410 . S
O1024 C1010 1.251 . S
O1025 Nd1001 2.424 . S
O1025 C1010 1.268 . S
O1026 Nd1001 2.500 1_554 S
O1026 C1011 1.258 . S
O1027 Nd1001 2.492 . S
O1027 C1011 1.239 1_556 S
O1028 Nd1001 2.487 . S
O1028 C1018 1.241 . S
O1029 Nd1000 2.414 . S
O1029 Nd1001 2.682 . S
O1029 C1018 1.273 . S
O1030 Nd1001 2.410 . S
O1030 C1019 1.251 . S
O1031 Nd1000 2.424 . S
O1031 C1019 1.268 . S
H1032 C1004 0.930 . S
H1033 C1005 0.929 . S
H1034 C1007 0.930 . S
H1035 C1008 0.929 . S
H1036 C1013 0.930 . S
H1037 C1014 0.929 . S
H1038 C1016 0.930 . S
H1039 C1017 0.929 . S
Nd1040 C1042 2.836 . S
Nd1040 O1060 2.500 . S
Nd1040 O1061 2.492 . S
Nd1040 O1062 2.487 . S
Nd1040 O1063 2.682 . S
Nd1040 O1064 2.410 1_455 S
Nd1040 O1069 2.414 . S
Nd1040 O1071 2.424 . S
Nd1041 C1051 2.836 . S
Nd1041 O1063 2.414 . S
Nd1041 O1065 2.424 1_455 S
Nd1041 O1066 2.500 . S
Nd1041 O1067 2.492 . S
Nd1041 O1068 2.487 . S
Nd1041 O1069 2.682 . S
Nd1041 O1070 2.410 . S
C1042 Nd1040 2.836 . S
C1042 C1043 1.498 . S
C1042 O1060 1.258 . S
C1042 O1061 1.239 . S
C1043 C1042 1.498 . S
C1043 C1044 1.366 . S
C1043 C1048 1.407 . S
C1044 C1043 1.366 . S
C1044 C1045 1.392 . S
C1044 H1072 0.930 . S
C1045 C1044 1.392 . S
C1045 C1046 1.398 . S
C1045 H1073 0.929 . S
C1046 C1045 1.398 . S
C1046 C1047 1.352 . S
C1047 C1046 1.352 . S
C1047 C1048 1.384 . S
C1047 H1074 0.930 . S
C1048 C1043 1.407 . S
C1048 C1047 1.384 . S
C1048 H1075 0.929 . S
C1049 O1062 1.241 . S
C1049 O1063 1.273 . S
C1050 O1064 1.251 . S
C1050 O1065 1.268 . S
C1051 Nd1041 2.836 . S
C1051 C1052 1.498 . S
C1051 O1066 1.258 . S
C1051 O1067 1.239 . S
C1052 C1051 1.498 . S
C1052 C1053 1.366 . S
C1052 C1057 1.407 . S
C1053 C1052 1.366 . S
C1053 C1054 1.392 . S
C1053 H1076 0.930 . S
C1054 C1053 1.392 . S
C1054 C1055 1.398 . S
C1054 H1077 0.929 . S
C1055 C1054 1.398 . S
C1055 C1056 1.352 . S
C1056 C1055 1.352 . S
C1056 C1057 1.384 . S
C1056 H1078 0.930 . S
C1057 C1052 1.407 . S
C1057 C1056 1.384 . S
C1057 H1079 0.929 . S
C1058 O1068 1.241 . S
C1058 O1069 1.273 . S
C1059 O1070 1.251 . S
C1059 O1071 1.268 . S
O1060 Nd1040 2.500 . S
O1060 C1042 1.258 . S
O1061 Nd1040 2.492 . S
O1061 C1042 1.239 . S
O1062 Nd1040 2.487 . S
O1062 C1049 1.241 . S
O1063 Nd1040 2.682 . S
O1063 Nd1041 2.414 . S
O1063 C1049 1.273 . S
O1064 Nd1040 2.410 1_655 S
O1064 C1050 1.251 . S
O1065 Nd1041 2.424 1_655 S
O1065 C1050 1.268 . S
O1066 Nd1041 2.500 . S
O1066 C1051 1.258 . S
O1067 Nd1041 2.492 . S
O1067 C1051 1.239 . S
O1068 Nd1041 2.487 . S
O1068 C1058 1.241 . S
O1069 Nd1040 2.414 . S
O1069 Nd1041 2.682 . S
O1069 C1058 1.273 . S
O1070 Nd1041 2.410 . S
O1070 C1059 1.251 . S
O1071 Nd1040 2.424 . S
O1071 C1059 1.268 . S
H1072 C1044 0.930 . S
H1073 C1045 0.929 . S
H1074 C1047 0.930 . S
H1075 C1048 0.929 . S
H1076 C1053 0.930 . S
H1077 C1054 0.929 . S
H1078 C1056 0.930 . S
H1079 C1057 0.929 . S
Nd1080 C1082 2.836 . S
Nd1080 O1100 2.500 . S
Nd1080 O1101 2.492 . S
Nd1080 O1102 2.487 . S
Nd1080 O1103 2.682 . S
Nd1080 O1104 2.410 . S
Nd1080 O1109 2.414 . S
Nd1080 O1111 2.424 . S
Nd1081 C1091 2.836 . S
Nd1081 O1103 2.414 . S
Nd1081 O1105 2.424 . S
Nd1081 O1106 2.500 . S
Nd1081 O1107 2.492 . S
Nd1081 O1108 2.487 . S
Nd1081 O1109 2.682 . S
Nd1081 O1110 2.410 . S
C1082 Nd1080 2.836 . S
C1082 C1083 1.498 . S
C1082 O1100 1.258 . S
C1082 O1101 1.239 . S
C1083 C1082 1.498 . S
C1083 C1084 1.366 . S
C1083 C1088 1.407 . S
C1084 C1083 1.366 . S
C1084 C1085 1.392 . S
C1084 H1112 0.930 . S
C1085 C1084 1.392 . S
C1085 C1086 1.398 . S
C1085 H1113 0.929 . S
C1086 C1085 1.398 . S
C1086 C1087 1.352 . S
C1087 C1086 1.352 . S
C1087 C1088 1.384 . S
C1087 H1114 0.930 . S
C1088 C1083 1.407 . S
C1088 C1087 1.384 . S
C1088 H1115 0.929 . S
C1089 O1102 1.241 . S
C1089 O1103 1.273 . S
C1090 O1104 1.251 . S
C1090 O1105 1.268 . S
C1091 Nd1081 2.836 . S
C1091 C1092 1.498 . S
C1091 O1106 1.258 . S
C1091 O1107 1.239 . S
C1092 C1091 1.498 . S
C1092 C1093 1.366 . S
C1092 C1097 1.407 1_455 S
C1093 C1092 1.366 . S
C1093 C1094 1.392 . S
C1093 H1116 0.930 . S
C1094 C1093 1.392 . S
C1094 C1095 1.398 1_455 S
C1094 H1117 0.929 . S
C1095 C1094 1.398 1_655 S
C1095 C1096 1.352 . S
C1096 C1095 1.352 . S
C1096 C1097 1.384 . S
C1096 H1118 0.930 . S
C1097 C1092 1.407 1_655 S
C1097 C1096 1.384 . S
C1097 H1119 0.929 . S
C1098 O1108 1.241 . S
C1098 O1109 1.273 . S
C1099 O1110 1.251 . S
C1099 O1111 1.268 . S
O1100 Nd1080 2.500 . S
O1100 C1082 1.258 . S
O1101 Nd1080 2.492 . S
O1101 C1082 1.239 . S
O1102 Nd1080 2.487 . S
O1102 C1089 1.241 . S
O1103 Nd1080 2.682 . S
O1103 Nd1081 2.414 . S
O1103 C1089 1.273 . S
O1104 Nd1080 2.410 . S
O1104 C1090 1.251 . S
O1105 Nd1081 2.424 . S
O1105 C1090 1.268 . S
O1106 Nd1081 2.500 . S
O1106 C1091 1.258 . S
O1107 Nd1081 2.492 . S
O1107 C1091 1.239 . S
O1108 Nd1081 2.487 . S
O1108 C1098 1.241 . S
O1109 Nd1080 2.414 . S
O1109 Nd1081 2.682 . S
O1109 C1098 1.273 . S
O1110 Nd1081 2.410 . S
O1110 C1099 1.251 . S
O1111 Nd1080 2.424 . S
O1111 C1099 1.268 . S
H1112 C1084 0.930 . S
H1113 C1085 0.929 . S
H1114 C1087 0.930 . S
H1115 C1088 0.929 . S
H1116 C1093 0.930 . S
H1117 C1094 0.929 . S
H1118 C1096 0.930 . S
H1119 C1097 0.929 . S
Nd1120 C1122 2.836 . S
Nd1120 O1140 2.500 . S
Nd1120 O1141 2.492 . S
Nd1120 O1142 2.487 . S
Nd1120 O1143 2.682 . S
Nd1120 O1144 2.410 . S
Nd1120 O1149 2.414 . S
Nd1120 O1151 2.424 . S
Nd1121 C1131 2.836 . S
Nd1121 O1143 2.414 . S
Nd1121 O1145 2.424 . S
Nd1121 O1146 2.500 . S
Nd1121 O1147 2.492 . S
Nd1121 O1148 2.487 . S
Nd1121 O1149 2.682 . S
Nd1121 O1150 2.410 . S
C1122 Nd1120 2.836 . S
C1122 C1123 1.498 . S
C1122 O1140 1.258 . S
C1122 O1141 1.239 . S
C1123 C1122 1.498 . S
C1123 C1124 1.366 . S
C1123 C1128 1.407 . S
C1124 C1123 1.366 . S
C1124 C1125 1.392 . S
C1124 H1152 0.930 . S
C1125 C1124 1.392 . S
C1125 C1126 1.398 . S
C1125 H1153 0.929 . S
C1126 C1125 1.398 . S
C1126 C1127 1.352 . S
C1127 C1126 1.352 . S
C1127 C1128 1.384 . S
C1127 H1154 0.930 . S
C1128 C1123 1.407 . S
C1128 C1127 1.384 . S
C1128 H1155 0.929 . S
C1129 O1142 1.241 . S
C1129 O1143 1.273 . S
C1130 O1144 1.251 . S
C1130 O1145 1.268 . S
C1131 Nd1121 2.836 . S
C1131 C1132 1.498 . S
C1131 O1146 1.258 . S
C1131 O1147 1.239 . S
C1132 C1131 1.498 . S
C1132 C1133 1.366 . S
C1132 C1137 1.407 . S
C1133 C1132 1.366 . S
C1133 C1134 1.392 . S
C1133 H1156 0.930 . S
C1134 C1133 1.392 . S
C1134 C1135 1.398 . S
C1134 H1157 0.929 . S
C1135 C1134 1.398 . S
C1135 C1136 1.352 . S
C1136 C1135 1.352 . S
C1136 C1137 1.384 . S
C1136 H1158 0.930 . S
C1137 C1132 1.407 . S
C1137 C1136 1.384 . S
C1137 H1159 0.929 . S
C1138 O1148 1.241 . S
C1138 O1149 1.273 . S
C1139 O1150 1.251 . S
C1139 O1151 1.268 . S
O1140 Nd1120 2.500 . S
O1140 C1122 1.258 . S
O1141 Nd1120 2.492 . S
O1141 C1122 1.239 . S
O1142 Nd1120 2.487 . S
O1142 C1129 1.241 . S
O1143 Nd1120 2.682 . S
O1143 Nd1121 2.414 . S
O1143 C1129 1.273 . S
O1144 Nd1120 2.410 . S
O1144 C1130 1.251 . S
O1145 Nd1121 2.424 . S
O1145 C1130 1.268 . S
O1146 Nd1121 2.500 . S
O1146 C1131 1.258 . S
O1147 Nd1121 2.492 . S
O1147 C1131 1.239 . S
O1148 Nd1121 2.487 . S
O1148 C1138 1.241 . S
O1149 Nd1120 2.414 . S
O1149 Nd1121 2.682 . S
O1149 C1138 1.273 . S
O1150 Nd1121 2.410 . S
O1150 C1139 1.251 . S
O1151 Nd1120 2.424 . S
O1151 C1139 1.268 . S
H1152 C1124 0.930 . S
H1153 C1125 0.929 . S
H1154 C1127 0.930 . S
H1155 C1128 0.929 . S
H1156 C1133 0.930 . S
H1157 C1134 0.929 . S
H1158 C1136 0.930 . S
H1159 C1137 0.929 . S
Nd1160 C1162 2.836 . S
Nd1160 O1180 2.500 . S
Nd1160 O1181 2.492 . S
Nd1160 O1182 2.487 . S
Nd1160 O1183 2.682 . S
Nd1160 O1184 2.410 . S
Nd1160 O1189 2.414 . S
Nd1160 O1191 2.424 . S
Nd1161 C1171 2.836 1_554 S
Nd1161 O1183 2.414 . S
Nd1161 O1185 2.424 . S
Nd1161 O1186 2.500 1_554 S
Nd1161 O1187 2.492 . S
Nd1161 O1188 2.487 . S
Nd1161 O1189 2.682 . S
Nd1161 O1190 2.410 . S
C1162 Nd1160 2.836 . S
C1162 C1163 1.498 . S
C1162 O1180 1.258 . S
C1162 O1181 1.239 . S
C1163 C1162 1.498 . S
C1163 C1164 1.366 . S
C1163 C1168 1.407 . S
C1164 C1163 1.366 . S
C1164 C1165 1.392 . S
C1164 H1192 0.930 . S
C1165 C1164 1.392 . S
C1165 C1166 1.398 . S
C1165 H1193 0.929 . S
C1166 C1165 1.398 . S
C1166 C1167 1.352 . S
C1167 C1166 1.352 . S
C1167 C1168 1.384 . S
C1167 H1194 0.930 . S
C1168 C1163 1.407 . S
C1168 C1167 1.384 . S
C1168 H1195 0.929 . S
C1169 O1182 1.241 . S
C1169 O1183 1.273 . S
C1170 O1184 1.251 . S
C1170 O1185 1.268 . S
C1171 Nd1161 2.836 1_556 S
C1171 C1172 1.498 . S
C1171 O1186 1.258 . S
C1171 O1187 1.239 1_556 S
C1172 C1171 1.498 . S
C1172 C1173 1.366 . S
C1172 C1177 1.407 1_455 S
C1173 C1172 1.366 . S
C1173 C1174 1.392 . S
C1173 H1196 0.930 . S
C1174 C1173 1.392 . S
C1174 C1175 1.398 1_455 S
C1174 H1197 0.929 . S
C1175 C1174 1.398 1_655 S
C1175 C1176 1.352 . S
C1176 C1175 1.352 . S
C1176 C1177 1.384 . S
C1176 H1198 0.930 . S
C1177 C1172 1.407 1_655 S
C1177 C1176 1.384 . S
C1177 H1199 0.929 . S
C1178 O1188 1.241 . S
C1178 O1189 1.273 . S
C1179 O1190 1.251 . S
C1179 O1191 1.268 . S
O1180 Nd1160 2.500 . S
O1180 C1162 1.258 . S
O1181 Nd1160 2.492 . S
O1181 C1162 1.239 . S
O1182 Nd1160 2.487 . S
O1182 C1169 1.241 . S
O1183 Nd1160 2.682 . S
O1183 Nd1161 2.414 . S
O1183 C1169 1.273 . S
O1184 Nd1160 2.410 . S
O1184 C1170 1.251 . S
O1185 Nd1161 2.424 . S
O1185 C1170 1.268 . S
O1186 Nd1161 2.500 1_556 S
O1186 C1171 1.258 . S
O1187 Nd1161 2.492 . S
O1187 C1171 1.239 1_554 S
O1188 Nd1161 2.487 . S
O1188 C1178 1.241 . S
O1189 Nd1160 2.414 . S
O1189 Nd1161 2.682 . S
O1189 C1178 1.273 . S
O1190 Nd1161 2.410 . S
O1190 C1179 1.251 . S
O1191 Nd1160 2.424 . S
O1191 C1179 1.268 . S
H1192 C1164 0.930 . S
H1193 C1165 0.929 . S
H1194 C1167 0.930 . S
H1195 C1168 0.929 . S
H1196 C1173 0.930 . S
H1197 C1174 0.929 . S
H1198 C1176 0.930 . S
H1199 C1177 0.929 . S
Nd1200 C1202 2.836 . S
Nd1200 O1220 2.500 . S
Nd1200 O1221 2.492 . S
Nd1200 O1222 2.487 . S
Nd1200 O1223 2.682 . S
Nd1200 O1224 2.410 1_455 S
Nd1200 O1229 2.414 . S
Nd1200 O1231 2.424 . S
Nd1201 C1211 2.836 . S
Nd1201 O1223 2.414 . S
Nd1201 O1225 2.424 1_455 S
Nd1201 O1226 2.500 . S
Nd1201 O1227 2.492 . S
Nd1201 O1228 2.487 . S
Nd1201 O1229 2.682 . S
Nd1201 O1230 2.410 . S
C1202 Nd1200 2.836 . S
C1202 C1203 1.498 . S
C1202 O1220 1.258 . S
C1202 O1221 1.239 . S
C1203 C1202 1.498 . S
C1203 C1204 1.366 . S
C1203 C1208 1.407 . S
C1204 C1203 1.366 . S
C1204 C1205 1.392 . S
C1204 H1232 0.930 . S
C1205 C1204 1.392 . S
C1205 C1206 1.398 1_556 S
C1205 H1233 0.929 1_556 S
C1206 C1205 1.398 1_554 S
C1206 C1207 1.352 1_554 S
C1207 C1206 1.352 1_556 S
C1207 C1208 1.384 . S
C1207 H1234 0.930 . S
C1208 C1203 1.407 . S
C1208 C1207 1.384 . S
C1208 H1235 0.929 . S
C1209 O1222 1.241 . S
C1209 O1223 1.273 . S
C1210 O1224 1.251 . S
C1210 O1225 1.268 . S
C1211 Nd1201 2.836 . S
C1211 C1212 1.498 . S
C1211 O1226 1.258 . S
C1211 O1227 1.239 . S
C1212 C1211 1.498 . S
C1212 C1213 1.366 . S
C1212 C1217 1.407 . S
C1213 C1212 1.366 . S
C1213 C1214 1.392 . S
C1213 H1236 0.930 . S
C1214 C1213 1.392 . S
C1214 C1215 1.398 . S
C1214 H1237 0.929 . S
C1215 C1214 1.398 . S
C1215 C1216 1.352 . S
C1216 C1215 1.352 . S
C1216 C1217 1.384 . S
C1216 H1238 0.930 . S
C1217 C1212 1.407 . S
C1217 C1216 1.384 . S
C1217 H1239 0.929 . S
C1218 O1228 1.241 . S
C1218 O1229 1.273 . S
C1219 O1230 1.251 . S
C1219 O1231 1.268 . S
O1220 Nd1200 2.500 . S
O1220 C1202 1.258 . S
O1221 Nd1200 2.492 . S
O1221 C1202 1.239 . S
O1222 Nd1200 2.487 . S
O1222 C1209 1.241 . S
O1223 Nd1200 2.682 . S
O1223 Nd1201 2.414 . S
O1223 C1209 1.273 . S
O1224 Nd1200 2.410 1_655 S
O1224 C1210 1.251 . S
O1225 Nd1201 2.424 1_655 S
O1225 C1210 1.268 . S
O1226 Nd1201 2.500 . S
O1226 C1211 1.258 . S
O1227 Nd1201 2.492 . S
O1227 C1211 1.239 . S
O1228 Nd1201 2.487 . S
O1228 C1218 1.241 . S
O1229 Nd1200 2.414 . S
O1229 Nd1201 2.682 . S
O1229 C1218 1.273 . S
O1230 Nd1201 2.410 . S
O1230 C1219 1.251 . S
O1231 Nd1200 2.424 . S
O1231 C1219 1.268 . S
H1232 C1204 0.930 . S
H1233 C1205 0.929 1_554 S
H1234 C1207 0.930 . S
H1235 C1208 0.929 . S
H1236 C1213 0.930 . S
H1237 C1214 0.929 . S
H1238 C1216 0.930 . S
H1239 C1217 0.929 . S
Nd1240 C1242 2.836 . S
Nd1240 O1260 2.500 . S
Nd1240 O1261 2.492 . S
Nd1240 O1262 2.487 . S
Nd1240 O1263 2.682 . S
Nd1240 O1264 2.410 . S
Nd1240 O1269 2.414 . S
Nd1240 O1271 2.424 . S
Nd1241 C1251 2.836 . S
Nd1241 O1263 2.414 . S
Nd1241 O1265 2.424 . S
Nd1241 O1266 2.500 . S
Nd1241 O1267 2.492 . S
Nd1241 O1268 2.487 . S
Nd1241 O1269 2.682 . S
Nd1241 O1270 2.410 . S
C1242 Nd1240 2.836 . S
C1242 C1243 1.498 . S
C1242 O1260 1.258 . S
C1242 O1261 1.239 . S
C1243 C1242 1.498 . S
C1243 C1244 1.366 . S
C1243 C1248 1.407 . S
C1244 C1243 1.366 . S
C1244 C1245 1.392 . S
C1244 H1272 0.930 . S
C1245 C1244 1.392 . S
C1245 C1246 1.398 . S
C1245 H1273 0.929 . S
C1246 C1245 1.398 . S
C1246 C1247 1.352 . S
C1247 C1246 1.352 . S
C1247 C1248 1.384 . S
C1247 H1274 0.930 . S
C1248 C1243 1.407 . S
C1248 C1247 1.384 . S
C1248 H1275 0.929 . S
C1249 O1262 1.241 . S
C1249 O1263 1.273 . S
C1250 O1264 1.251 . S
C1250 O1265 1.268 . S
C1251 Nd1241 2.836 . S
C1251 C1252 1.498 . S
C1251 O1266 1.258 . S
C1251 O1267 1.239 . S
C1252 C1251 1.498 . S
C1252 C1253 1.366 . S
C1252 C1257 1.407 . S
C1253 C1252 1.366 . S
C1253 C1254 1.392 . S
C1253 H1276 0.930 . S
C1254 C1253 1.392 . S
C1254 C1255 1.398 . S
C1254 H1277 0.929 . S
C1255 C1254 1.398 . S
C1255 C1256 1.352 . S
C1256 C1255 1.352 . S
C1256 C1257 1.384 . S
C1256 H1278 0.930 . S
C1257 C1252 1.407 . S
C1257 C1256 1.384 . S
C1257 H1279 0.929 . S
C1258 O1268 1.241 . S
C1258 O1269 1.273 . S
C1259 O1270 1.251 . S
C1259 O1271 1.268 . S
O1260 Nd1240 2.500 . S
O1260 C1242 1.258 . S
O1261 Nd1240 2.492 . S
O1261 C1242 1.239 . S
O1262 Nd1240 2.487 . S
O1262 C1249 1.241 . S
O1263 Nd1240 2.682 . S
O1263 Nd1241 2.414 . S
O1263 C1249 1.273 . S
O1264 Nd1240 2.410 . S
O1264 C1250 1.251 . S
O1265 Nd1241 2.424 . S
O1265 C1250 1.268 . S
O1266 Nd1241 2.500 . S
O1266 C1251 1.258 . S
O1267 Nd1241 2.492 . S
O1267 C1251 1.239 . S
O1268 Nd1241 2.487 . S
O1268 C1258 1.241 . S
O1269 Nd1240 2.414 . S
O1269 Nd1241 2.682 . S
O1269 C1258 1.273 . S
O1270 Nd1241 2.410 . S
O1270 C1259 1.251 . S
O1271 Nd1240 2.424 . S
O1271 C1259 1.268 . S
H1272 C1244 0.930 . S
H1273 C1245 0.929 . S
H1274 C1247 0.930 . S
H1275 C1248 0.929 . S
H1276 C1253 0.930 . S
H1277 C1254 0.929 . S
H1278 C1256 0.930 . S
H1279 C1257 0.929 . S
C10 C135 2.813 . S
C15 C50 2.813 . S
C90 C55 2.813 . S
C95 C130 2.813 . S
C215 C170 2.813 . S
C210 C255 2.813 . S
C295 C250 2.813 . S
C175 C290 2.813 . S
C339 C446 2.813 . S
C379 C326 2.813 . S
C419 C366 2.813 . S
C459 C406 2.813 . S
C499 C526 2.813 . S
C539 C566 2.813 . S
C606 C579 2.813 . S
C486 C619 2.813 . S
C650 C775 2.813 . S
C655 C690 2.813 . S
C695 C730 2.813 . S
C770 C735 2.813 . S
C810 C855 2.813 . S
C895 C850 2.813 . S
C890 C935 2.813 . S
C815 C930 2.813 . S
C1086 C979 2.813 . S
C966 C1019 2.813 . S
C1059 C1006 2.813 . S
C1046 C1099 2.813 . S
C1166 C1139 2.813 . S
C1206 C1179 2.813 . S
C1246 C1219 2.813 . S
C1259 C1126 2.813 . S
C1090 C9 2.792 . S
C49 C330 2.793 . S
C89 C1010 2.792 . S
C129 C410 2.793 . S
C169 C1170 2.792 . S
C570 C209 2.793 . S
C1250 C249 2.792 . S
C289 C490 2.793 . S
C338 C779 2.792 . S
C19 C378 2.793 . S
C699 C418 2.792 . S
C99 C458 2.793 . S
C859 C498 2.792 . S
C259 C538 2.793 . S
C578 C939 2.792 . S
C618 C179 2.793 . S
C649 C450 2.792 . S
C689 C970 2.793 . S
C729 C370 2.792 . S
C769 C1050 2.793 . S
C809 C530 2.792 . S
C849 C1210 2.793 . S
C610 C889 2.792 . S
C929 C1130 2.793 . S
C139 C978 2.792 . S
C659 C1018 2.793 . S
C59 C1058 2.792 . S
C739 C1098 2.793 . S
C219 C1138 2.792 . S
C1178 C899 2.793 . S
C1218 C299 2.792 . S
C819 C1258 2.793 . S
C18 C178 3.677 1_545 S
C58 C218 3.678 . S
C98 C258 3.677 1_565 S
C298 C138 3.678 1_556 S
C489 C329 3.677 1_545 S
C529 C369 3.678 . S
C409 C569 3.677 1_545 S
C449 C609 3.678 1_556 S
C658 C818 3.677 . S
C858 C698 3.678 1_556 S
C898 C738 3.677 . S
C938 C778 3.678 . S
C1129 C969 3.677 . S
C1009 C1169 3.678 1_556 S
C1209 C1049 3.677 . S
C1089 C1249 3.678 . S
C286 C6 2.309 1_655 S
C46 C166 2.309 1_655 S
C86 C206 2.309 . S
C246 C126 2.309 . S
C335 C615 2.309 1_655 S
C495 C375 2.309 1_655 S
C535 C415 2.309 . S
C455 C575 2.309 . S
C646 C926 2.309 . S
C806 C686 2.309 . S
C846 C726 2.309 1_455 S
C886 C766 2.309 1_655 S
C975 C1255 2.309 . S
C1135 C1015 2.309 . S
C1055 C1175 2.309 1_455 S
C1215 C1095 2.309 1_455 S
