# Generated by pormake.
# Topology tfs, (6)-cn, num edge types: 1
# Building blocks:
#     Node 0, Type 0, BuildingBlock: CIFDUS_clean_sbu_1, # of connection points: 6
#     Node 1, Type 0, BuildingBlock: CIFDUS_clean_sbu_1, # of connection points: 6
#     Node 2, Type 0, BuildingBlock: CIFDUS_clean_sbu_1, # of connection points: 6
#     Node 3, Type 0, BuildingBlock: CIFDUS_clean_sbu_1, # of connection points: 6
#     Node 4, Type 0, BuildingBlock: CIFDUS_clean_sbu_1, # of connection points: 6
#     Node 5, Type 0, BuildingBlock: CIFDUS_clean_sbu_1, # of connection points: 6
#     Edge 6, Type (0, 0), BuildingBlock: KIFKEQ_clean_linker_1, # of connection points: 2
#     Edge 7, Type (0, 0), BuildingBlock: KIFKEQ_clean_linker_1, # of connection points: 2
#     Edge 8, Type (0, 0), BuildingBlock: KIFKEQ_clean_linker_1, # of connection points: 2
#     Edge 9, Type (0, 0), BuildingBlock: KIFKEQ_clean_linker_1, # of connection points: 2
#     Edge 10, Type (0, 0), BuildingBlock: KIFKEQ_clean_linker_1, # of connection points: 2
#     Edge 11, Type (0, 0), BuildingBlock: KIFKEQ_clean_linker_1, # of connection points: 2
#     Edge 12, Type (0, 0), BuildingBlock: KIFKEQ_clean_linker_1, # of connection points: 2
#     Edge 13, Type (0, 0), BuildingBlock: KIFKEQ_clean_linker_1, # of connection points: 2
#     Edge 14, Type (0, 0), BuildingBlock: KIFKEQ_clean_linker_1, # of connection points: 2
#     Edge 15, Type (0, 0), BuildingBlock: KIFKEQ_clean_linker_1, # of connection points: 2
#     Edge 16, Type (0, 0), BuildingBlock: KIFKEQ_clean_linker_1, # of connection points: 2
#     Edge 17, Type (0, 0), BuildingBlock: KIFKEQ_clean_linker_1, # of connection points: 2
#     Edge 18, Type (0, 0), BuildingBlock: KIFKEQ_clean_linker_1, # of connection points: 2
#     Edge 19, Type (0, 0), BuildingBlock: KIFKEQ_clean_linker_1, # of connection points: 2
#     Edge 20, Type (0, 0), BuildingBlock: KIFKEQ_clean_linker_1, # of connection points: 2
#     Edge 21, Type (0, 0), BuildingBlock: KIFKEQ_clean_linker_1, # of connection points: 2
#     Edge 22, Type (0, 0), BuildingBlock: KIFKEQ_clean_linker_1, # of connection points: 2
#     Edge 23, Type (0, 0), BuildingBlock: KIFKEQ_clean_linker_1, # of connection points: 2
# Relax obj value: 0.214
# Max RMSD: 0.172
# Mean RMSD: 0.172
data_MOF--net-tfs--node1-CIFDUS_clean_sbu_1--edge1-KIFKEQ_clean_linker_1
_symmetry_space_group_name_H-M    P1
_symmetry_Int_Tables_number       1
_symmetry_cell_setting            triclinic
loop_
_symmetry_equiv_pos_as_xyz
'x, y, z'
_cell_length_a     42.673396
_cell_length_b     42.746935
_cell_length_c     16.152515
_cell_angle_alpha  90.055526
_cell_angle_beta   89.839123
_cell_angle_gamma 120.06405
loop_
_atom_site_label
_atom_site_type_symbol
_atom_site_fract_x
_atom_site_fract_y
_atom_site_fract_z
_atom_type_partial_charge
O0 O 0.22056 0.423 0.87594 0.0
Mn1 Mn 0.21149 0.42397 0.00459 0.0
O2 O 0.16771 0.41325 0.82743 0.0
Mn3 Mn 0.15493 0.42668 0.92439 0.0
O4 O 0.20126 0.42517 0.13291 0.0
O5 O 0.23647 0.39352 0.01889 0.0
Mn6 Mn 0.26575 0.41469 0.10524 0.0
O7 O 0.26341 0.4721 0.01397 0.0
O8 O 0.24688 0.42428 0.1973 0.0
O9 O 0.16035 0.37365 0.99831 0.0
O10 O 0.12011 0.39102 0.98663 0.0
O11 O 0.25559 0.3682 0.10626 0.0
O12 O 0.30288 0.4555 0.05874 0.0
C13 C 0.17427 0.47738 0.96484 0.0
C14 C 0.1983 0.41599 0.81592 0.0
C15 C 0.21867 0.42667 0.19895 0.0
C16 C 0.23491 0.36366 0.04363 0.0
C17 C 0.29619 0.47932 0.03003 0.0
C18 C 0.12733 0.36684 0.00398 0.0
O19 O 0.19105 0.45954 0.98663 0.0
O20 O 0.14756 0.46307 0.91283 0.0
O21 O 0.8019 0.2129 0.86929 0.0
Mn22 Mn 0.79103 0.20984 0.99785 0.0
O23 O 0.74937 0.17267 0.80886 0.0
Mn24 Mn 0.72397 0.15321 0.90493 0.0
O25 O 0.78029 0.20627 0.12856 0.0
O26 O 0.84604 0.23109 0.02085 0.0
Mn27 Mn 0.85129 0.26342 0.09907 0.0
O28 O 0.79356 0.25989 0.98777 0.0
O29 O 0.83484 0.235 0.19014 0.0
O30 O 0.78551 0.15741 0.00584 0.0
O31 O 0.73057 0.11837 0.95408 0.0
O32 O 0.89443 0.28351 0.04803 0.0
O33 O 0.83038 0.2919 0.08911 0.0
C34 C 0.70324 0.18109 0.97144 0.0
C35 C 0.78243 0.19729 0.80496 0.0
C36 C 0.80082 0.21397 0.19329 0.0
C37 C 0.87941 0.25534 1.00068 0.0
C38 C 0.80744 0.28752 0.0348 0.0
C39 C 0.75952 0.12496 0.99054 0.0
O40 O 0.73694 0.18896 0.97592 0.0
O41 O 0.68253 0.15419 0.92387 0.0
O42 O 0.58851 0.79361 0.86639 0.0
Mn43 Mn 0.58364 0.78642 0.99572 0.0
O44 O 0.583 0.742 0.81434 0.0
Mn45 Mn 0.57358 0.71696 0.91297 0.0
O46 O 0.57972 0.77912 0.12856 0.0
O47 O 0.61782 0.842 0.01066 0.0
Mn48 Mn 0.59033 0.84644 0.08897 0.0
O49 O 0.53438 0.78708 0.98957 0.0
O50 O 0.60698 0.83535 0.18026 0.0
O51 O 0.63164 0.78206 0.99746 0.0
O52 O 0.61376 0.72398 0.96923 0.0
O53 O 0.60856 0.88786 0.03259 0.0
O54 O 0.54073 0.82378 0.09125 0.0
C55 C 0.52397 0.69982 0.97607 0.0
C56 C 0.58852 0.77399 0.80568 0.0
C57 C 0.594 0.80164 0.18994 0.0
C58 C 0.62586 0.87516 0.99189 0.0
C59 C 0.52081 0.80011 0.04005 0.0
C60 C 0.63781 0.75535 0.9919 0.0
O61 O 0.55109 0.73263 0.97781 0.0
O62 O 0.52919 0.67731 0.93279 0.0
O63 O 0.79954 0.58968 0.87201 0.0
Mn64 Mn 0.80022 0.58234 1.00219 0.0
O65 O 0.8339 0.56879 0.81693 0.0
Mn66 Mn 0.85413 0.56699 0.91446 0.0
O67 O 0.80108 0.57614 0.13385 0.0
O68 O 0.78024 0.61811 0.01826 0.0
Mn69 Mn 0.74388 0.58964 0.08791 0.0
O70 O 0.74988 0.53455 0.99137 0.0
O71 O 0.76459 0.59477 0.18841 0.0
O72 O 0.85395 0.62855 0.01027 0.0
O73 O 0.89004 0.60998 0.95289 0.0
O74 O 0.72859 0.61748 0.04375 0.0
O75 O 0.71057 0.54271 0.06325 0.0
C76 C 0.82707 0.52106 0.9866 0.0
C77 C 0.81326 0.58197 0.80933 0.0
C78 C 0.78739 0.58422 0.19651 0.0
C79 C 0.75751 0.62941 0.9987 0.0
C80 C 0.71812 0.52289 0.02038 0.0
C81 C 0.88564 0.63364 0.98999 0.0
O82 O 0.81945 0.54714 0.98833 0.0
O83 O 0.85417 0.5261 0.94066 0.0
O84 O 0.21251 0.79416 0.87363 0.0
Mn85 Mn 0.2236 0.80084 1.00225 0.0
O86 O 0.26521 0.83072 0.80845 0.0
Mn87 Mn 0.29074 0.85383 0.90196 0.0
O88 O 0.2352 0.80845 0.13158 0.0
O89 O 0.16783 0.77826 0.02093 0.0
Mn90 Mn 0.16128 0.74645 0.10077 0.0
O91 O 0.22115 0.75058 1.00306 0.0
O92 O 0.18366 0.7694 0.19594 0.0
O93 O 0.22914 0.85342 1.00013 0.0
O94 O 0.2838 0.88988 0.94228 0.0
O95 O 0.11674 0.73899 0.08757 0.0
O96 O 0.17025 0.71068 0.06675 0.0
C97 C 0.31078 0.82776 0.97763 0.0
C98 C 0.23188 0.80677 0.80752 0.0
C99 C 0.21609 0.79491 0.19775 0.0
C100 C 0.13262 0.76416 0.03229 0.0
C101 C 0.1991 0.71852 0.02829 0.0
C102 C 0.25534 0.88504 0.97893 0.0
O103 O 0.27745 0.82102 0.98031 0.0
O104 O 0.33189 0.85298 0.92666 0.0
O105 O 0.42371 0.21074 0.87363 0.0
Mn106 Mn 0.4274 0.2213 1.00165 0.0
O107 O 0.42499 0.25862 0.8145 0.0
Mn108 Mn 0.43969 0.28836 0.9058 0.0
O109 O 0.43145 0.232 0.13165 0.0
O110 O 0.39376 0.16545 0.01569 0.0
Mn111 Mn 0.41635 0.15811 0.09969 0.0
O112 O 0.47535 0.2181 0.00406 0.0
O113 O 0.41242 0.17886 0.19422 0.0
O114 O 0.38052 0.2281 0.99896 0.0
O115 O 0.4022 0.28667 0.96364 0.0
O116 O 0.3803 0.11365 0.08099 0.0
O117 O 0.46257 0.16831 0.07508 0.0
C118 C 0.49071 0.30142 0.95936 0.0
C119 C 0.421 0.2273 0.81029 0.0
C120 C 0.42298 0.21216 0.19725 0.0
C121 C 0.37246 0.13016 0.02443 0.0
C122 C 0.48474 0.19642 0.03564 0.0
C123 C 0.37702 0.25657 0.9913 0.0
O124 O 0.45963 0.27555 0.9853 0.0
O125 O 0.48789 0.32185 0.9044 0.0
H126 H 0.36739 0.30104 0.09134 0.0
H127 H 0.3112 0.21485 0.91522 0.0
H128 H 0.3223 0.31952 0.07304 0.0
H129 H 0.26497 0.23302 0.89839 0.0
H130 H 0.19263 0.29041 0.05055 0.0
H131 H 0.2204 0.25278 0.03092 0.0
H132 H 0.30891 0.34002 0.8994 0.0
H133 H 0.28051 0.37693 0.91586 0.0
C134 C 0.3443 0.28485 0.05188 0.0
C135 C 0.34251 0.25603 0.00601 0.0
C136 C 0.31885 0.29586 0.04028 0.0
C137 C 0.29058 0.27808 0.98325 0.0
C138 C 0.28669 0.24725 0.9424 0.0
C139 C 0.31268 0.23641 0.95333 0.0
C140 C 0.21643 0.30047 0.01151 0.0
C141 C 0.23444 0.33679 0.98537 0.0
C142 C 0.2327 0.2791 1.00162 0.0
C143 C 0.2671 0.29378 0.9652 0.0
C144 C 0.28229 0.328 0.92764 0.0
C145 C 0.26558 0.34895 0.93573 0.0
H146 H 0.08094 0.3351 0.13175 0.0
H147 H 0.09877 0.3202 0.87594 0.0
H148 H 0.01647 0.29203 0.11609 0.0
H149 H 0.03398 0.27733 0.85925 0.0
H150 H 0.92089 0.27844 0.86165 0.0
H151 H 0.98381 0.2924 0.85983 0.0
H152 H 0.96478 0.2296 0.08241 0.0
H153 H 0.90159 0.21487 0.08236 0.0
C154 C 0.07145 0.32074 0.07361 0.0
C155 C 0.09531 0.33007 0.00606 0.0
C156 C 0.03427 0.29633 0.06409 0.0
C157 C 0.01982 0.28113 0.98619 0.0
C158 C 0.0441 0.28841 0.92009 0.0
C159 C 0.08141 0.31241 0.93009 0.0
C160 C 0.92945 0.26548 0.90667 0.0
C161 C 0.90605 0.24524 0.97152 0.0
C162 C 0.9658 0.27394 0.90654 0.0
C163 C 0.9797 0.26285 0.9722 0.0
C164 C 0.95516 0.23895 0.03142 0.0
C165 C 0.91862 0.22981 0.03032 0.0
H166 H 0.7247 0.07899 0.11592 0.0
H167 H 0.7936 0.09552 0.90568 0.0
H168 H 0.70486 0.01465 0.11507 0.0
H169 H 0.77355 0.03071 0.90407 0.0
H170 H 0.65965 0.91683 0.85558 0.0
H171 H 0.7077 0.98018 0.86596 0.0
H172 H 0.72175 0.96441 0.12394 0.0
H173 H 0.67559 0.90085 0.11188 0.0
C174 C 0.73734 0.06919 0.07277 0.0
C175 C 0.76152 0.09249 0.01244 0.0
C176 C 0.72567 0.03218 0.07159 0.0
C177 C 0.73753 0.01748 0.00917 0.0
C178 C 0.76391 0.04123 0.95277 0.0
C179 C 0.77589 0.07843 0.95459 0.0
C180 C 0.67485 0.92627 0.91263 0.0
C181 C 0.66414 0.90369 0.98239 0.0
C182 C 0.70207 0.96274 0.91915 0.0
C183 C 0.7181 0.97749 0.99626 0.0
C184 C 0.70999 0.95395 0.06375 0.0
C185 C 0.68393 0.9173 0.0563 0.0
H186 H 0.73683 0.64593 0.8552 0.0
H187 H 0.79845 0.69319 0.07676 0.0
H188 H 0.71963 0.69224 0.85142 0.0
H189 H 0.78085 0.73947 0.07433 0.0
H190 H 0.67169 0.74396 0.12148 0.0
H191 H 0.71807 0.72664 0.10784 0.0
H192 H 0.72956 0.75442 0.84839 0.0
H193 H 0.6835 0.77212 0.86298 0.0
C194 C 0.74893 0.6678 0.89971 0.0
C195 C 0.7691 0.66583 0.96601 0.0
C196 C 0.73849 0.69414 0.8986 0.0
C197 C 0.74798 0.71912 0.964 0.0
C198 C 0.7725 0.72031 0.02376 0.0
C199 C 0.78343 0.69428 0.0239 0.0
C200 C 0.68579 0.74851 0.06294 0.0
C201 C 0.67479 0.76058 0.99406 0.0
C202 C 0.7122 0.73823 0.05465 0.0
C203 C 0.72758 0.73891 0.97672 0.0
C204 C 0.71838 0.75348 0.90922 0.0
C205 C 0.69242 0.76427 0.91791 0.0
H206 H 0.1058 0.80746 0.07505 0.0
H207 H 0.10074 0.73337 0.88788 0.0
H208 H 0.04078 0.78402 0.06082 0.0
H209 H 0.03579 0.70957 0.87446 0.0
H210 H 0.94218 0.63506 0.06268 0.0
H211 H 0.00521 0.6805 0.04279 0.0
H212 H 0.97348 0.75299 0.93713 0.0
H213 H 0.90895 0.70574 0.95256 0.0
C214 C 0.09145 0.78828 0.02596 0.0
C215 C 0.10844 0.77209 0.98305 0.0
C216 C 0.05397 0.77445 0.01878 0.0
C217 C 0.03316 0.7446 0.96761 0.0
C218 C 0.05121 0.7327 0.91431 0.0
C219 C 0.08868 0.74681 0.92101 0.0
C220 C 0.94837 0.66114 0.03797 0.0
C221 C 0.92038 0.66677 0.00979 0.0
C222 C 0.98457 0.68694 0.0253 0.0
C223 C 0.99417 0.71985 0.98661 0.0
C224 C 0.96661 0.72746 0.96589 0.0
C225 C 0.92978 0.7008 0.97641 0.0
H226 H 0.21017 0.90863 0.91943 0.0
H227 H 0.30406 0.93927 0.07145 0.0
H228 H 0.22805 0.97306 0.90495 0.0
H229 H 0.32213 1.00274 0.05533 0.0
H230 H 0.37386 0.09721 0.8838 0.0
H231 H 0.33189 0.03246 0.87162 0.0
H232 H 0.25931 0.04089 0.04395 0.0
H233 H 0.30164 0.10578 0.05678 0.0
C234 C 0.2335 0.92888 0.95299 0.0
C235 C 0.2554 0.91891 0.99778 0.0
C236 C 0.24407 0.96568 0.94344 0.0
C237 C 0.27678 0.9927 0.97783 0.0
C238 C 0.29687 0.98242 0.02795 0.0
C239 C 0.2862 0.94604 0.03825 0.0
C240 C 0.34763 0.08595 0.91371 0.0
C241 C 0.34132 0.10662 0.97194 0.0
C242 C 0.32381 0.0486 0.90788 0.0
C243 C 0.29263 0.03166 0.95786 0.0
C244 C 0.2831 0.05331 0.0046 0.0
C245 C 0.30715 0.09069 0.01076 0.0
H246 H 0.23936 0.69971 0.12376 0.0
H247 H 0.17391 0.67056 0.90346 0.0
H248 H 0.23939 0.64215 0.11739 0.0
H249 H 0.17425 0.61363 0.89604 0.0
H250 H 0.12783 0.50122 0.98966 0.0
H251 H 0.14142 0.56302 1.00321 0.0
H252 H 0.25535 0.59882 0.02266 0.0
H253 H 0.2412 0.53539 0.00764 0.0
C254 C 0.22618 0.68149 0.07239 0.0
C255 C 0.20688 0.6893 0.01352 0.0
C256 C 0.22618 0.6487 0.06882 0.0
C257 C 0.20654 0.6234 0.00677 0.0
C258 C 0.18934 0.63257 0.94497 0.0
C259 C 0.18932 0.66514 0.94866 0.0
C260 C 0.15585 0.52204 0.99818 0.0
C261 C 0.18373 0.5136 0.99597 0.0
C262 C 0.1636 0.55753 0.00533 0.0
C263 C 0.19949 0.58578 0.01115 0.0
C264 C 0.22743 0.57743 0.01686 0.0
C265 C 0.2195 0.54134 0.00896 0.0
H266 H 0.52155 0.1908 0.16405 0.0
H267 H 0.53414 0.22171 0.90688 0.0
H268 H 0.58208 0.19946 0.16618 0.0
H269 H 0.59435 0.22775 0.90614 0.0
H270 H 0.70449 0.24174 0.91695 0.0
H271 H 0.655 0.254 0.94 0.0
H272 H 0.61126 0.17035 0.12746 0.0
H273 H 0.66151 0.1602 0.10685 0.0
C274 C 0.53745 0.1994 0.10757 0.0
C275 C 0.52302 0.20524 0.03504 0.0
C276 C 0.57223 0.20408 0.10847 0.0
C277 C 0.59343 0.21362 0.03599 0.0
C278 C 0.57936 0.22079 0.96376 0.0
C279 C 0.54467 0.21709 0.96364 0.0
C280 C 0.68546 0.22782 0.96679 0.0
C281 C 0.68731 0.20068 0.01173 0.0
C282 C 0.65637 0.234 0.97841 0.0
C283 C 0.62822 0.21274 0.03446 0.0
C284 C 0.6322 0.18788 0.08445 0.0
C285 C 0.66144 0.18216 0.07347 0.0
H286 H 0.46462 0.69862 0.91107 0.0
H287 H 0.50332 0.66692 0.12274 0.0
H288 H 0.40405 0.64647 0.93197 0.0
H289 H 0.44323 0.61495 0.14406 0.0
H290 H 0.36789 0.50131 0.04704 0.0
H291 H 0.41878 0.56227 0.05289 0.0
H292 H 0.34739 0.60482 0.00985 0.0
H293 H 0.29599 0.54299 1.00212 0.0
C294 C 0.45958 0.68183 0.96533 0.0
C295 C 0.48858 0.68666 0.01542 0.0
C296 C 0.42498 0.65159 0.97659 0.0
C297 C 0.4192 0.62579 0.03774 0.0
C298 C 0.44701 0.6338 0.09502 0.0
C299 C 0.48131 0.66409 0.08413 0.0
C300 C 0.36273 0.52347 0.03862 0.0
C301 C 0.32739 0.51699 0.0248 0.0
C302 C 0.39204 0.55862 0.04308 0.0
C303 C 0.38712 0.58859 0.03414 0.0
C304 C 0.35208 0.58235 0.01778 0.0
C305 C 0.32257 0.5469 0.01322 0.0
H306 H 0.77169 0.46603 0.90806 0.0
H307 H 0.83643 0.49393 0.12891 0.0
H308 H 0.75821 0.40353 0.91992 0.0
H309 H 0.82327 0.43178 0.14156 0.0
H310 H 0.78986 0.31612 0.16253 0.0
H311 H 0.78202 0.36875 0.16187 0.0
H312 H 0.79575 0.37618 0.89602 0.0
H313 H 0.80215 0.32221 0.89698 0.0
C314 C 0.78103 0.45818 0.96229 0.0
C315 C 0.80416 0.48452 0.01911 0.0
C316 C 0.77416 0.42261 0.96783 0.0
C317 C 0.78999 0.4126 0.03104 0.0
C318 C 0.81021 0.43826 0.09251 0.0
C319 C 0.81732 0.47387 0.08634 0.0
C320 C 0.79038 0.32859 0.10375 0.0
C321 C 0.79664 0.31527 0.02978 0.0
C322 C 0.78613 0.35887 0.10342 0.0
C323 C 0.78861 0.37703 0.02917 0.0
C324 C 0.79316 0.3626 0.95434 0.0
C325 C 0.79689 0.33176 0.95462 0.0
H326 H 0.30261 0.76294 0.93233 0.0
H327 H 0.35611 0.85019 0.10644 0.0
H328 H 0.34908 0.74609 0.95427 0.0
H329 H 0.40282 0.83461 0.12716 0.0
H330 H 0.48261 0.80193 0.17142 0.0
H331 H 0.42365 0.79695 0.17345 0.0
H332 H 0.41135 0.77109 0.91256 0.0
H333 H 0.47076 0.7749 0.91154 0.0
C334 C 0.3232 0.7772 0.97887 0.0
C335 C 0.32527 0.80726 0.01955 0.0
C336 C 0.35041 0.7682 0.98982 0.0
C337 C 0.38021 0.78918 0.04166 0.0
C338 C 0.38025 0.81727 0.08766 0.0
C339 C 0.35312 0.82609 0.07674 0.0
C340 C 0.46716 0.79454 0.11447 0.0
C341 C 0.48185 0.78962 0.04071 0.0
C342 C 0.43325 0.7919 0.11564 0.0
C343 C 0.41285 0.7846 0.04283 0.0
C344 C 0.4262 0.77682 0.97006 0.0
C345 C 0.46034 0.7791 0.96913 0.0
H346 H 0.65197 0.50207 0.96019 0.0
H347 H 0.71738 0.45995 0.05798 0.0
H348 H 0.59834 0.44218 0.96886 0.0
H349 H 0.66313 0.39931 0.06738 0.0
H350 H 0.55198 0.29661 0.94637 0.0
H351 H 0.61235 0.34935 0.96794 0.0
H352 H 0.56391 0.40331 0.09586 0.0
H353 H 0.50424 0.35043 0.07703 0.0
C354 C 0.65489 0.47967 0.98183 0.0
C355 C 0.68876 0.48541 0.00724 0.0
C356 C 0.62416 0.44552 0.98806 0.0
C357 C 0.62642 0.41624 0.02069 0.0
C358 C 0.66064 0.42145 0.04229 0.0
C359 C 0.69166 0.45592 0.03589 0.0
C360 C 0.55458 0.31876 0.98407 0.0
C361 C 0.52348 0.31932 0.01059 0.0
C362 C 0.58907 0.34921 0.99523 0.0
C363 C 0.59265 0.38078 0.03129 0.0
C364 C 0.56194 0.37951 0.06688 0.0
C365 C 0.52778 0.34887 0.05769 0.0
H366 H 0.25514 0.46626 0.72291 0.0
H367 H 0.1593 0.36138 0.71127 0.0
H368 H 0.25717 0.46964 0.57282 0.0
H369 H 0.1587 0.36495 0.56348 0.0
H370 H 0.16675 0.37081 0.2857 0.0
H371 H 0.1654 0.36539 0.43377 0.0
H372 H 0.24255 0.4803 0.45286 0.0
H373 H 0.24557 0.48386 0.30336 0.0
C374 C 0.23509 0.4434 0.6877 0.0
C375 C 0.20734 0.41336 0.72869 0.0
C376 C 0.23531 0.44566 0.60074 0.0
C377 C 0.20722 0.41826 0.5523 0.0
C378 C 0.18105 0.38714 0.59486 0.0
C379 C 0.18133 0.38473 0.68109 0.0
C380 C 0.18226 0.39509 0.32216 0.0
C381 C 0.2056 0.42786 0.28285 0.0
C382 C 0.18206 0.39212 0.40863 0.0
C383 C 0.20481 0.42214 0.45924 0.0
C384 C 0.22563 0.45579 0.4188 0.0
C385 C 0.2265 0.45839 0.33213 0.0
H386 H 0.8024 0.25804 0.71225 0.0
H387 H 0.79199 0.15263 0.70714 0.0
H388 H 0.80427 0.26005 0.56148 0.0
H389 H 0.78977 0.152 0.55914 0.0
H390 H 0.79981 0.16087 0.2831 0.0
H391 H 0.80363 0.16083 0.43129 0.0
H392 H 0.77471 0.24472 0.44372 0.0
H393 H 0.77455 0.24635 0.29339 0.0
C394 C 0.80173 0.23581 0.67845 0.0
C395 C 0.79766 0.20542 0.72091 0.0
C396 C 0.80144 0.23619 0.59148 0.0
C397 C 0.79579 0.2056 0.54522 0.0
C398 C 0.79444 0.17647 0.5894 0.0
C399 C 0.79589 0.17669 0.67554 0.0
C400 C 0.79291 0.17823 0.31811 0.0
C401 C 0.78607 0.20294 0.27705 0.0
C402 C 0.79537 0.17863 0.40431 0.0
C403 C 0.79031 0.20338 0.4526 0.0
C404 C 0.78024 0.22602 0.41062 0.0
C405 C 0.77871 0.22615 0.32392 0.0
H406 H 0.64402 0.78879 0.70178 0.0
H407 H 0.54095 0.78403 0.71591 0.0
H408 H 0.64379 0.79362 0.55134 0.0
H409 H 0.53876 0.78591 0.56582 0.0
H410 H 0.55514 0.81601 0.29591 0.0
H411 H 0.5571 0.8153 0.44499 0.0
H412 H 0.61948 0.76082 0.43252 0.0
H413 H 0.6199 0.76472 0.28091 0.0
C414 C 0.6217 0.78968 0.67226 0.0
C415 C 0.59289 0.78692 0.71995 0.0
C416 C 0.62103 0.79149 0.58585 0.0
C417 C 0.59091 0.78939 0.54499 0.0
C418 C 0.56277 0.78813 0.59388 0.0
C419 C 0.56396 0.78725 0.68034 0.0
C420 C 0.56853 0.80304 0.32519 0.0
C421 C 0.58686 0.78987 0.277 0.0
C422 C 0.56969 0.80262 0.41124 0.0
C423 C 0.58854 0.78812 0.45232 0.0
C424 C 0.6053 0.77299 0.4037 0.0
C425 C 0.6048 0.77422 0.31669 0.0
H426 H 0.75196 0.57126 0.72434 0.0
H427 H 0.86687 0.61301 0.69993 0.0
H428 H 0.7473 0.57308 0.57298 0.0
H429 H 0.86217 0.61133 0.55222 0.0
H430 H 0.85047 0.62394 0.27979 0.0
H431 H 0.85611 0.63052 0.42932 0.0
H432 H 0.74628 0.54148 0.45721 0.0
H433 H 0.74046 0.53716 0.3073 0.0
C434 C 0.7762 0.58142 0.68679 0.0
C435 C 0.80966 0.59153 0.72354 0.0
C436 C 0.77357 0.58168 0.59993 0.0
C437 C 0.80423 0.59138 0.54899 0.0
C438 C 0.83787 0.60397 0.5875 0.0
C439 C 0.84057 0.60467 0.67308 0.0
C440 C 0.82812 0.60509 0.31834 0.0
C441 C 0.79539 0.57958 0.28245 0.0
C442 C 0.83104 0.60894 0.40452 0.0
C443 C 0.80141 0.58686 0.45681 0.0
C444 C 0.76939 0.55979 0.41999 0.0
C445 C 0.76633 0.55651 0.33394 0.0
H446 H 0.1973 0.83466 0.29023 0.0
H447 H 0.25965 0.78085 0.29535 0.0
H448 H 0.19247 0.83169 0.43903 0.0
H449 H 0.25817 0.78061 0.4464 0.0
H450 H 0.22518 0.75193 0.70946 0.0
H451 H 0.22402 0.7525 0.55848 0.0
H452 H 0.21004 0.84613 0.56769 0.0
H453 H 0.20801 0.84285 0.71686 0.0
C454 C 0.21203 0.82424 0.32409 0.0
C455 C 0.22954 0.80877 0.28125 0.0
C456 C 0.20897 0.82208 0.41026 0.0
C457 C 0.22423 0.80516 0.45681 0.0
C458 C 0.24479 0.7927 0.41374 0.0
C459 C 0.24694 0.79402 0.3269 0.0
C460 C 0.21978 0.7712 0.67841 0.0
C461 C 0.21592 0.79689 0.7245 0.0
C462 C 0.22037 0.77246 0.59158 0.0
C463 C 0.21831 0.80025 0.54898 0.0
C464 C 0.21159 0.82409 0.59619 0.0
C465 C 0.21004 0.82212 0.68256 0.0
H466 H 0.46777 0.21485 0.72199 0.0
H467 H 0.36493 0.21019 0.70781 0.0
H468 H 0.47228 0.21681 0.57359 0.0
H469 H 0.36687 0.20897 0.55887 0.0
H470 H 0.38338 0.23372 0.28985 0.0
H471 H 0.3814 0.2333 0.43959 0.0
H472 H 0.47256 0.21458 0.44358 0.0
H473 H 0.47587 0.21898 0.29605 0.0
C474 C 0.44521 0.21246 0.68624 0.0
C475 C 0.41609 0.21241 0.72614 0.0
C476 C 0.4478 0.21414 0.59966 0.0
C477 C 0.42089 0.21523 0.55026 0.0
C478 C 0.38963 0.21065 0.59175 0.0
C479 C 0.38766 0.21 0.6782 0.0
C480 C 0.40406 0.23156 0.32391 0.0
C481 C 0.43019 0.22714 0.28154 0.0
C482 C 0.40224 0.22976 0.41074 0.0
C483 C 0.42561 0.22191 0.45754 0.0
C484 C 0.45345 0.22029 0.41363 0.0
C485 C 0.4559 0.22335 0.32752 0.0
loop_
_geom_bond_atom_site_label_1
_geom_bond_atom_site_label_2
_geom_bond_distance
_geom_bond_site_symmetry_2
_ccdc_geom_bond_type
O0 Mn1 2.163 1_556 S
O0 C14 1.244 . S
Mn1 O0 2.163 1_554 S
Mn1 O4 2.160 . S
Mn1 O5 2.221 . S
Mn1 O7 2.163 . S
Mn1 O9 2.160 . S
Mn1 O19 2.221 1_554 S
O2 Mn3 2.087 . S
O2 C14 1.256 . S
Mn3 O2 2.087 . S
Mn3 O10 2.089 . S
Mn3 O19 2.290 . S
Mn3 O20 2.251 . S
O4 Mn1 2.160 . S
O4 C15 1.239 . S
O5 Mn1 2.221 . S
O5 Mn6 2.290 . S
O5 C16 1.278 1_554 S
Mn6 O5 2.290 . S
Mn6 O8 2.089 . S
Mn6 O11 2.251 . S
Mn6 O12 2.087 . S
O7 Mn1 2.163 . S
O7 C17 1.244 . S
O8 Mn6 2.089 . S
O8 C15 1.256 . S
O9 Mn1 2.160 . S
O9 C18 1.239 1_554 S
O10 Mn3 2.089 . S
O10 C18 1.256 . S
O11 Mn6 2.251 . S
O11 C16 1.241 1_554 S
O12 Mn6 2.087 . S
O12 C17 1.256 . S
C13 O19 1.278 . S
C13 O20 1.241 . S
C14 O0 1.244 . S
C14 O2 1.256 . S
C15 O4 1.239 . S
C15 O8 1.256 . S
C16 O5 1.278 1_556 S
C16 O11 1.241 1_556 S
C17 O7 1.244 . S
C17 O12 1.256 . S
C18 O9 1.239 1_556 S
C18 O10 1.256 . S
O19 Mn1 2.221 1_556 S
O19 Mn3 2.290 . S
O19 C13 1.278 . S
O20 Mn3 2.251 . S
O20 C13 1.241 . S
O21 Mn22 2.163 1_556 S
O21 C35 1.244 . S
Mn22 O21 2.163 1_554 S
Mn22 O25 2.160 . S
Mn22 O26 2.221 . S
Mn22 O28 2.163 . S
Mn22 O30 2.160 . S
Mn22 O40 2.221 1_554 S
O23 Mn24 2.087 . S
O23 C35 1.256 . S
Mn24 O23 2.087 . S
Mn24 O31 2.089 . S
Mn24 O40 2.290 . S
Mn24 O41 2.251 . S
O25 Mn22 2.160 . S
O25 C36 1.239 . S
O26 Mn22 2.221 . S
O26 Mn27 2.290 . S
O26 C37 1.278 1_554 S
Mn27 O26 2.290 . S
Mn27 O29 2.089 . S
Mn27 O32 2.251 . S
Mn27 O33 2.087 . S
O28 Mn22 2.163 . S
O28 C38 1.244 . S
O29 Mn27 2.089 . S
O29 C36 1.256 . S
O30 Mn22 2.160 . S
O30 C39 1.239 1_554 S
O31 Mn24 2.089 . S
O31 C39 1.256 . S
O32 Mn27 2.251 . S
O32 C37 1.241 1_554 S
O33 Mn27 2.087 . S
O33 C38 1.256 . S
C34 O40 1.278 . S
C34 O41 1.241 . S
C35 O21 1.244 . S
C35 O23 1.256 . S
C36 O25 1.239 . S
C36 O29 1.256 . S
C37 O26 1.278 1_556 S
C37 O32 1.241 1_556 S
C38 O28 1.244 . S
C38 O33 1.256 . S
C39 O30 1.239 1_556 S
C39 O31 1.256 . S
O40 Mn22 2.221 1_556 S
O40 Mn24 2.290 . S
O40 C34 1.278 . S
O41 Mn24 2.251 . S
O41 C34 1.241 . S
O42 Mn43 2.163 1_556 S
O42 C56 1.244 . S
Mn43 O42 2.163 1_554 S
Mn43 O46 2.160 . S
Mn43 O47 2.221 . S
Mn43 O49 2.163 . S
Mn43 O51 2.160 . S
Mn43 O61 2.221 1_554 S
O44 Mn45 2.087 . S
O44 C56 1.256 . S
Mn45 O44 2.087 . S
Mn45 O52 2.089 . S
Mn45 O61 2.290 . S
Mn45 O62 2.251 . S
O46 Mn43 2.160 . S
O46 C57 1.239 . S
O47 Mn43 2.221 . S
O47 Mn48 2.290 . S
O47 C58 1.278 1_554 S
Mn48 O47 2.290 . S
Mn48 O50 2.089 . S
Mn48 O53 2.251 . S
Mn48 O54 2.087 . S
O49 Mn43 2.163 . S
O49 C59 1.244 . S
O50 Mn48 2.089 . S
O50 C57 1.256 . S
O51 Mn43 2.160 . S
O51 C60 1.239 1_554 S
O52 Mn45 2.089 . S
O52 C60 1.256 . S
O53 Mn48 2.251 . S
O53 C58 1.241 1_554 S
O54 Mn48 2.087 . S
O54 C59 1.256 . S
C55 O61 1.278 . S
C55 O62 1.241 . S
C56 O42 1.244 . S
C56 O44 1.256 . S
C57 O46 1.239 . S
C57 O50 1.256 . S
C58 O47 1.278 1_556 S
C58 O53 1.241 1_556 S
C59 O49 1.244 . S
C59 O54 1.256 . S
C60 O51 1.239 1_556 S
C60 O52 1.256 . S
O61 Mn43 2.221 1_556 S
O61 Mn45 2.290 . S
O61 C55 1.278 . S
O62 Mn45 2.251 . S
O62 C55 1.241 . S
O63 Mn64 2.163 1_556 S
O63 C77 1.244 . S
Mn64 O63 2.163 1_554 S
Mn64 O67 2.160 . S
Mn64 O68 2.221 . S
Mn64 O70 2.163 . S
Mn64 O72 2.160 . S
Mn64 O82 2.221 1_554 S
O65 Mn66 2.087 . S
O65 C77 1.256 . S
Mn66 O65 2.087 . S
Mn66 O73 2.089 . S
Mn66 O82 2.290 . S
Mn66 O83 2.251 . S
O67 Mn64 2.160 . S
O67 C78 1.239 . S
O68 Mn64 2.221 . S
O68 Mn69 2.290 . S
O68 C79 1.278 1_554 S
Mn69 O68 2.290 . S
Mn69 O71 2.089 . S
Mn69 O74 2.251 . S
Mn69 O75 2.087 . S
O70 Mn64 2.163 . S
O70 C80 1.244 . S
O71 Mn69 2.089 . S
O71 C78 1.256 . S
O72 Mn64 2.160 . S
O72 C81 1.239 1_554 S
O73 Mn66 2.089 . S
O73 C81 1.256 . S
O74 Mn69 2.251 . S
O74 C79 1.241 1_554 S
O75 Mn69 2.087 . S
O75 C80 1.256 . S
C76 O82 1.278 . S
C76 O83 1.241 . S
C77 O63 1.244 . S
C77 O65 1.256 . S
C78 O67 1.239 . S
C78 O71 1.256 . S
C79 O68 1.278 1_556 S
C79 O74 1.241 1_556 S
C80 O70 1.244 . S
C80 O75 1.256 . S
C81 O72 1.239 1_556 S
C81 O73 1.256 . S
O82 Mn64 2.221 1_556 S
O82 Mn66 2.290 . S
O82 C76 1.278 . S
O83 Mn66 2.251 . S
O83 C76 1.241 . S
O84 Mn85 2.163 1_556 S
O84 C98 1.244 . S
Mn85 O84 2.163 1_554 S
Mn85 O88 2.160 . S
Mn85 O89 2.221 . S
Mn85 O91 2.163 . S
Mn85 O93 2.160 . S
Mn85 O103 2.221 1_554 S
O86 Mn87 2.087 . S
O86 C98 1.256 . S
Mn87 O86 2.087 . S
Mn87 O94 2.089 . S
Mn87 O103 2.290 . S
Mn87 O104 2.251 . S
O88 Mn85 2.160 . S
O88 C99 1.239 . S
O89 Mn85 2.221 . S
O89 Mn90 2.290 . S
O89 C100 1.278 1_554 S
Mn90 O89 2.290 . S
Mn90 O92 2.089 . S
Mn90 O95 2.251 . S
Mn90 O96 2.087 . S
O91 Mn85 2.163 . S
O91 C101 1.244 . S
O92 Mn90 2.089 . S
O92 C99 1.256 . S
O93 Mn85 2.160 . S
O93 C102 1.239 1_554 S
O94 Mn87 2.089 . S
O94 C102 1.256 . S
O95 Mn90 2.251 . S
O95 C100 1.241 1_554 S
O96 Mn90 2.087 . S
O96 C101 1.256 . S
C97 O103 1.278 . S
C97 O104 1.241 . S
C98 O84 1.244 . S
C98 O86 1.256 . S
C99 O88 1.239 . S
C99 O92 1.256 . S
C100 O89 1.278 1_556 S
C100 O95 1.241 1_556 S
C101 O91 1.244 . S
C101 O96 1.256 . S
C102 O93 1.239 1_556 S
C102 O94 1.256 . S
O103 Mn85 2.221 1_556 S
O103 Mn87 2.290 . S
O103 C97 1.278 . S
O104 Mn87 2.251 . S
O104 C97 1.241 . S
O105 Mn106 2.163 1_556 S
O105 C119 1.244 . S
Mn106 O105 2.163 1_554 S
Mn106 O109 2.160 . S
Mn106 O110 2.221 . S
Mn106 O112 2.163 . S
Mn106 O114 2.160 . S
Mn106 O124 2.221 1_554 S
O107 Mn108 2.087 . S
O107 C119 1.256 . S
Mn108 O107 2.087 . S
Mn108 O115 2.089 . S
Mn108 O124 2.290 . S
Mn108 O125 2.251 . S
O109 Mn106 2.160 . S
O109 C120 1.239 . S
O110 Mn106 2.221 . S
O110 Mn111 2.290 . S
O110 C121 1.278 1_554 S
Mn111 O110 2.290 . S
Mn111 O113 2.089 . S
Mn111 O116 2.251 . S
Mn111 O117 2.087 . S
O112 Mn106 2.163 . S
O112 C122 1.244 . S
O113 Mn111 2.089 . S
O113 C120 1.256 . S
O114 Mn106 2.160 . S
O114 C123 1.239 1_554 S
O115 Mn108 2.089 . S
O115 C123 1.256 . S
O116 Mn111 2.251 . S
O116 C121 1.241 1_554 S
O117 Mn111 2.087 . S
O117 C122 1.256 . S
C118 O124 1.278 . S
C118 O125 1.241 . S
C119 O105 1.244 . S
C119 O107 1.256 . S
C120 O109 1.239 . S
C120 O113 1.256 . S
C121 O110 1.278 1_556 S
C121 O116 1.241 1_556 S
C122 O112 1.244 . S
C122 O117 1.256 . S
C123 O114 1.239 1_556 S
C123 O115 1.256 . S
O124 Mn106 2.221 1_556 S
O124 Mn108 2.290 . S
O124 C118 1.278 . S
O125 Mn108 2.251 . S
O125 C118 1.241 . S
H126 C134 0.950 1_554 S
H127 C139 0.950 . S
H128 C136 0.950 1_554 S
H129 C138 0.950 . S
H130 C140 0.950 . S
H131 C142 0.950 . S
H132 C144 0.950 1_554 S
H133 C145 0.950 1_554 S
C134 H126 0.950 1_556 S
C134 C135 1.386 . S
C134 C136 1.391 . S
C135 C134 1.386 . S
C135 C139 1.393 . S
C136 H128 0.950 1_556 S
C136 C134 1.391 . S
C136 C137 1.400 . S
C137 C136 1.400 . S
C137 C138 1.398 . S
C137 C143 1.491 . S
C138 H129 0.950 . S
C138 C137 1.398 . S
C138 C139 1.391 . S
C139 H127 0.950 . S
C139 C135 1.393 . S
C139 C138 1.391 . S
C140 H130 0.950 . S
C140 C141 1.386 . S
C140 C142 1.391 . S
C141 C140 1.386 . S
C141 C145 1.393 . S
C142 H131 0.950 . S
C142 C140 1.391 . S
C142 C143 1.400 . S
C143 C137 1.491 . S
C143 C142 1.400 . S
C143 C144 1.398 . S
C144 H132 0.950 1_556 S
C144 C143 1.398 . S
C144 C145 1.391 . S
C145 H133 0.950 1_556 S
C145 C141 1.393 . S
C145 C144 1.391 . S
H146 C154 0.950 . S
H147 C159 0.950 . S
H148 C156 0.950 . S
H149 C158 0.950 . S
H150 C160 0.950 . S
H151 C162 0.950 . S
H152 C164 0.950 . S
H153 C165 0.950 . S
C154 H146 0.950 . S
C154 C155 1.386 1_554 S
C154 C156 1.391 . S
C155 C154 1.386 1_556 S
C155 C159 1.393 . S
C156 H148 0.950 . S
C156 C154 1.391 . S
C156 C157 1.400 1_554 S
C157 C156 1.400 1_556 S
C157 C158 1.398 . S
C157 C163 1.491 1_455 S
C158 H149 0.950 . S
C158 C157 1.398 . S
C158 C159 1.391 . S
C159 H147 0.950 . S
C159 C155 1.393 . S
C159 C158 1.391 . S
C160 H150 0.950 . S
C160 C161 1.386 . S
C160 C162 1.391 . S
C161 C160 1.386 . S
C161 C165 1.393 1_556 S
C162 H151 0.950 . S
C162 C160 1.391 . S
C162 C163 1.400 . S
C163 C157 1.491 1_655 S
C163 C162 1.400 . S
C163 C164 1.398 1_556 S
C164 H152 0.950 . S
C164 C163 1.398 1_554 S
C164 C165 1.391 . S
C165 H153 0.950 . S
C165 C161 1.393 1_554 S
C165 C164 1.391 . S
H166 C174 0.950 . S
H167 C179 0.950 . S
H168 C176 0.950 . S
H169 C178 0.950 . S
H170 C180 0.950 . S
H171 C182 0.950 . S
H172 C184 0.950 . S
H173 C185 0.950 . S
C174 H166 0.950 . S
C174 C175 1.386 1_554 S
C174 C176 1.391 . S
C175 C174 1.386 1_556 S
C175 C179 1.393 . S
C176 H168 0.950 . S
C176 C174 1.391 . S
C176 C177 1.400 1_554 S
C177 C176 1.400 1_556 S
C177 C178 1.398 . S
C177 C183 1.491 1_545 S
C178 H169 0.950 . S
C178 C177 1.398 . S
C178 C179 1.391 . S
C179 H167 0.950 . S
C179 C175 1.393 . S
C179 C178 1.391 . S
C180 H170 0.950 . S
C180 C181 1.386 . S
C180 C182 1.391 . S
C181 C180 1.386 . S
C181 C185 1.393 1_556 S
C182 H171 0.950 . S
C182 C180 1.391 . S
C182 C183 1.400 . S
C183 C177 1.491 1_565 S
C183 C182 1.400 . S
C183 C184 1.398 1_556 S
C184 H172 0.950 . S
C184 C183 1.398 1_554 S
C184 C185 1.391 . S
C185 H173 0.950 . S
C185 C181 1.393 1_554 S
C185 C184 1.391 . S
H186 C194 0.950 . S
H187 C199 0.950 . S
H188 C196 0.950 . S
H189 C198 0.950 . S
H190 C200 0.950 . S
H191 C202 0.950 . S
H192 C204 0.950 . S
H193 C205 0.950 . S
C194 H186 0.950 . S
C194 C195 1.386 . S
C194 C196 1.391 . S
C195 C194 1.386 . S
C195 C199 1.393 1_556 S
C196 H188 0.950 . S
C196 C194 1.391 . S
C196 C197 1.400 . S
C197 C196 1.400 . S
C197 C198 1.398 1_556 S
C197 C203 1.491 . S
C198 H189 0.950 . S
C198 C197 1.398 1_554 S
C198 C199 1.391 . S
C199 H187 0.950 . S
C199 C195 1.393 1_554 S
C199 C198 1.391 . S
C200 H190 0.950 . S
C200 C201 1.386 1_554 S
C200 C202 1.391 . S
C201 C200 1.386 1_556 S
C201 C205 1.393 . S
C202 H191 0.950 . S
C202 C200 1.391 . S
C202 C203 1.400 1_554 S
C203 C197 1.491 . S
C203 C202 1.400 1_556 S
C203 C204 1.398 . S
C204 H192 0.950 . S
C204 C203 1.398 . S
C204 C205 1.391 . S
C205 H193 0.950 . S
C205 C201 1.393 . S
C205 C204 1.391 . S
H206 C214 0.950 1_554 S
H207 C219 0.950 . S
H208 C216 0.950 1_554 S
H209 C218 0.950 . S
H210 C220 0.950 . S
H211 C222 0.950 . S
H212 C224 0.950 . S
H213 C225 0.950 . S
C214 H206 0.950 1_556 S
C214 C215 1.386 . S
C214 C216 1.391 . S
C215 C214 1.386 . S
C215 C219 1.393 . S
C216 H208 0.950 1_556 S
C216 C214 1.391 . S
C216 C217 1.400 . S
C217 C216 1.400 . S
C217 C218 1.398 . S
C217 C223 1.491 1_455 S
C218 H209 0.950 . S
C218 C217 1.398 . S
C218 C219 1.391 . S
C219 H207 0.950 . S
C219 C215 1.393 . S
C219 C218 1.391 . S
C220 H210 0.950 . S
C220 C221 1.386 . S
C220 C222 1.391 . S
C221 C220 1.386 . S
C221 C225 1.393 1_556 S
C222 H211 0.950 . S
C222 C220 1.391 . S
C222 C223 1.400 . S
C223 C217 1.491 1_655 S
C223 C222 1.400 . S
C223 C224 1.398 1_556 S
C224 H212 0.950 . S
C224 C223 1.398 1_554 S
C224 C225 1.391 . S
C225 H213 0.950 . S
C225 C221 1.393 1_554 S
C225 C224 1.391 . S
H226 C234 0.950 1_554 S
H227 C239 0.950 . S
H228 C236 0.950 . S
H229 C238 0.950 . S
H230 C240 0.950 . S
H231 C242 0.950 . S
H232 C244 0.950 . S
H233 C245 0.950 . S
C234 H226 0.950 1_556 S
C234 C235 1.386 . S
C234 C236 1.391 . S
C235 C234 1.386 . S
C235 C239 1.393 . S
C236 H228 0.950 . S
C236 C234 1.391 . S
C236 C237 1.400 . S
C237 C236 1.400 . S
C237 C238 1.398 . S
C237 C243 1.491 1_565 S
C238 H229 0.950 . S
C238 C237 1.398 . S
C238 C239 1.391 . S
C239 H227 0.950 . S
C239 C235 1.393 . S
C239 C238 1.391 . S
C240 H230 0.950 . S
C240 C241 1.386 . S
C240 C242 1.391 . S
C241 C240 1.386 . S
C241 C245 1.393 . S
C242 H231 0.950 . S
C242 C240 1.391 . S
C242 C243 1.400 . S
C243 C237 1.491 1_545 S
C243 C242 1.400 . S
C243 C244 1.398 . S
C244 H232 0.950 . S
C244 C243 1.398 . S
C244 C245 1.391 . S
C245 H233 0.950 . S
C245 C241 1.393 . S
C245 C244 1.391 . S
H246 C254 0.950 . S
H247 C259 0.950 . S
H248 C256 0.950 . S
H249 C258 0.950 . S
H250 C260 0.950 . S
H251 C262 0.950 . S
H252 C264 0.950 . S
H253 C265 0.950 . S
C254 H246 0.950 . S
C254 C255 1.386 . S
C254 C256 1.391 . S
C255 C254 1.386 . S
C255 C259 1.393 1_554 S
C256 H248 0.950 . S
C256 C254 1.391 . S
C256 C257 1.400 . S
C257 C256 1.400 . S
C257 C258 1.398 1_554 S
C257 C263 1.491 . S
C258 H249 0.950 . S
C258 C257 1.398 1_556 S
C258 C259 1.391 . S
C259 H247 0.950 . S
C259 C255 1.393 1_556 S
C259 C258 1.391 . S
C260 H250 0.950 . S
C260 C261 1.386 1_556 S
C260 C262 1.391 . S
C261 C260 1.386 1_554 S
C261 C265 1.393 . S
C262 H251 0.950 . S
C262 C260 1.391 . S
C262 C263 1.400 1_556 S
C263 C257 1.491 . S
C263 C262 1.400 1_554 S
C263 C264 1.398 . S
C264 H252 0.950 . S
C264 C263 1.398 . S
C264 C265 1.391 . S
C265 H253 0.950 . S
C265 C261 1.393 . S
C265 C264 1.391 . S
H266 C274 0.950 . S
H267 C279 0.950 . S
H268 C276 0.950 . S
H269 C278 0.950 . S
H270 C280 0.950 . S
H271 C282 0.950 . S
H272 C284 0.950 . S
H273 C285 0.950 . S
C274 H266 0.950 . S
C274 C275 1.386 . S
C274 C276 1.391 . S
C275 C274 1.386 . S
C275 C279 1.393 1_554 S
C276 H268 0.950 . S
C276 C274 1.391 . S
C276 C277 1.400 . S
C277 C276 1.400 . S
C277 C278 1.398 1_554 S
C277 C283 1.491 . S
C278 H269 0.950 . S
C278 C277 1.398 1_556 S
C278 C279 1.391 . S
C279 H267 0.950 . S
C279 C275 1.393 1_556 S
C279 C278 1.391 . S
C280 H270 0.950 . S
C280 C281 1.386 1_556 S
C280 C282 1.391 . S
C281 C280 1.386 1_554 S
C281 C285 1.393 . S
C282 H271 0.950 . S
C282 C280 1.391 . S
C282 C283 1.400 1_556 S
C283 C277 1.491 . S
C283 C282 1.400 1_554 S
C283 C284 1.398 . S
C284 H272 0.950 . S
C284 C283 1.398 . S
C284 C285 1.391 . S
C285 H273 0.950 . S
C285 C281 1.393 . S
C285 C284 1.391 . S
H286 C294 0.950 . S
H287 C299 0.950 . S
H288 C296 0.950 . S
H289 C298 0.950 . S
H290 C300 0.950 . S
H291 C302 0.950 . S
H292 C304 0.950 1_556 S
H293 C305 0.950 1_556 S
C294 H286 0.950 . S
C294 C295 1.386 1_556 S
C294 C296 1.391 . S
C295 C294 1.386 1_554 S
C295 C299 1.393 . S
C296 H288 0.950 . S
C296 C294 1.391 . S
C296 C297 1.400 1_556 S
C297 C296 1.400 1_554 S
C297 C298 1.398 . S
C297 C303 1.491 . S
C298 H289 0.950 . S
C298 C297 1.398 . S
C298 C299 1.391 . S
C299 H287 0.950 . S
C299 C295 1.393 . S
C299 C298 1.391 . S
C300 H290 0.950 . S
C300 C301 1.386 . S
C300 C302 1.391 . S
C301 C300 1.386 . S
C301 C305 1.393 . S
C302 H291 0.950 . S
C302 C300 1.391 . S
C302 C303 1.400 . S
C303 C297 1.491 . S
C303 C302 1.400 . S
C303 C304 1.398 . S
C304 H292 0.950 1_554 S
C304 C303 1.398 . S
C304 C305 1.391 . S
C305 H293 0.950 1_554 S
C305 C301 1.393 . S
C305 C304 1.391 . S
H306 C314 0.950 . S
H307 C319 0.950 . S
H308 C316 0.950 . S
H309 C318 0.950 . S
H310 C320 0.950 . S
H311 C322 0.950 . S
H312 C324 0.950 . S
H313 C325 0.950 . S
C314 H306 0.950 . S
C314 C315 1.386 1_556 S
C314 C316 1.391 . S
C315 C314 1.386 1_554 S
C315 C319 1.393 . S
C316 H308 0.950 . S
C316 C314 1.391 . S
C316 C317 1.400 1_556 S
C317 C316 1.400 1_554 S
C317 C318 1.398 . S
C317 C323 1.491 . S
C318 H309 0.950 . S
C318 C317 1.398 . S
C318 C319 1.391 . S
C319 H307 0.950 . S
C319 C315 1.393 . S
C319 C318 1.391 . S
C320 H310 0.950 . S
C320 C321 1.386 . S
C320 C322 1.391 . S
C321 C320 1.386 . S
C321 C325 1.393 1_554 S
C322 H311 0.950 . S
C322 C320 1.391 . S
C322 C323 1.400 . S
C323 C317 1.491 . S
C323 C322 1.400 . S
C323 C324 1.398 1_554 S
C324 H312 0.950 . S
C324 C323 1.398 1_556 S
C324 C325 1.391 . S
C325 H313 0.950 . S
C325 C321 1.393 1_556 S
C325 C324 1.391 . S
H326 C334 0.950 . S
H327 C339 0.950 . S
H328 C336 0.950 . S
H329 C338 0.950 . S
H330 C340 0.950 . S
H331 C342 0.950 . S
H332 C344 0.950 . S
H333 C345 0.950 . S
C334 H326 0.950 . S
C334 C335 1.386 1_556 S
C334 C336 1.391 . S
C335 C334 1.386 1_554 S
C335 C339 1.393 . S
C336 H328 0.950 . S
C336 C334 1.391 . S
C336 C337 1.400 1_556 S
C337 C336 1.400 1_554 S
C337 C338 1.398 . S
C337 C343 1.491 . S
C338 H329 0.950 . S
C338 C337 1.398 . S
C338 C339 1.391 . S
C339 H327 0.950 . S
C339 C335 1.393 . S
C339 C338 1.391 . S
C340 H330 0.950 . S
C340 C341 1.386 . S
C340 C342 1.391 . S
C341 C340 1.386 . S
C341 C345 1.393 1_554 S
C342 H331 0.950 . S
C342 C340 1.391 . S
C342 C343 1.400 . S
C343 C337 1.491 . S
C343 C342 1.400 . S
C343 C344 1.398 1_554 S
C344 H332 0.950 . S
C344 C343 1.398 1_556 S
C344 C345 1.391 . S
C345 H333 0.950 . S
C345 C341 1.393 1_556 S
C345 C344 1.391 . S
H346 C354 0.950 . S
H347 C359 0.950 . S
H348 C356 0.950 . S
H349 C358 0.950 . S
H350 C360 0.950 . S
H351 C362 0.950 . S
H352 C364 0.950 . S
H353 C365 0.950 . S
C354 H346 0.950 . S
C354 C355 1.386 1_556 S
C354 C356 1.391 . S
C355 C354 1.386 1_554 S
C355 C359 1.393 . S
C356 H348 0.950 . S
C356 C354 1.391 . S
C356 C357 1.400 1_556 S
C357 C356 1.400 1_554 S
C357 C358 1.398 . S
C357 C363 1.491 . S
C358 H349 0.950 . S
C358 C357 1.398 . S
C358 C359 1.391 . S
C359 H347 0.950 . S
C359 C355 1.393 . S
C359 C358 1.391 . S
C360 H350 0.950 . S
C360 C361 1.386 . S
C360 C362 1.391 . S
C361 C360 1.386 . S
C361 C365 1.393 1_554 S
C362 H351 0.950 . S
C362 C360 1.391 . S
C362 C363 1.400 . S
C363 C357 1.491 . S
C363 C362 1.400 . S
C363 C364 1.398 1_554 S
C364 H352 0.950 . S
C364 C363 1.398 1_556 S
C364 C365 1.391 . S
C365 H353 0.950 . S
C365 C361 1.393 1_556 S
C365 C364 1.391 . S
H366 C374 0.950 . S
H367 C379 0.950 . S
H368 C376 0.950 . S
H369 C378 0.950 . S
H370 C380 0.950 . S
H371 C382 0.950 . S
H372 C384 0.950 . S
H373 C385 0.950 . S
C374 H366 0.950 . S
C374 C375 1.386 . S
C374 C376 1.391 . S
C375 C374 1.386 . S
C375 C379 1.393 . S
C376 H368 0.950 . S
C376 C374 1.391 . S
C376 C377 1.400 . S
C377 C376 1.400 . S
C377 C378 1.398 . S
C377 C383 1.491 . S
C378 H369 0.950 . S
C378 C377 1.398 . S
C378 C379 1.391 . S
C379 H367 0.950 . S
C379 C375 1.393 . S
C379 C378 1.391 . S
C380 H370 0.950 . S
C380 C381 1.386 . S
C380 C382 1.391 . S
C381 C380 1.386 . S
C381 C385 1.393 . S
C382 H371 0.950 . S
C382 C380 1.391 . S
C382 C383 1.400 . S
C383 C377 1.491 . S
C383 C382 1.400 . S
C383 C384 1.398 . S
C384 H372 0.950 . S
C384 C383 1.398 . S
C384 C385 1.391 . S
C385 H373 0.950 . S
C385 C381 1.393 . S
C385 C384 1.391 . S
H386 C394 0.950 . S
H387 C399 0.950 . S
H388 C396 0.950 . S
H389 C398 0.950 . S
H390 C400 0.950 . S
H391 C402 0.950 . S
H392 C404 0.950 . S
H393 C405 0.950 . S
C394 H386 0.950 . S
C394 C395 1.386 . S
C394 C396 1.391 . S
C395 C394 1.386 . S
C395 C399 1.393 . S
C396 H388 0.950 . S
C396 C394 1.391 . S
C396 C397 1.400 . S
C397 C396 1.400 . S
C397 C398 1.398 . S
C397 C403 1.491 . S
C398 H389 0.950 . S
C398 C397 1.398 . S
C398 C399 1.391 . S
C399 H387 0.950 . S
C399 C395 1.393 . S
C399 C398 1.391 . S
C400 H390 0.950 . S
C400 C401 1.386 . S
C400 C402 1.391 . S
C401 C400 1.386 . S
C401 C405 1.393 . S
C402 H391 0.950 . S
C402 C400 1.391 . S
C402 C403 1.400 . S
C403 C397 1.491 . S
C403 C402 1.400 . S
C403 C404 1.398 . S
C404 H392 0.950 . S
C404 C403 1.398 . S
C404 C405 1.391 . S
C405 H393 0.950 . S
C405 C401 1.393 . S
C405 C404 1.391 . S
H406 C414 0.950 . S
H407 C419 0.950 . S
H408 C416 0.950 . S
H409 C418 0.950 . S
H410 C420 0.950 . S
H411 C422 0.950 . S
H412 C424 0.950 . S
H413 C425 0.950 . S
C414 H406 0.950 . S
C414 C415 1.386 . S
C414 C416 1.391 . S
C415 C414 1.386 . S
C415 C419 1.393 . S
C416 H408 0.950 . S
C416 C414 1.391 . S
C416 C417 1.400 . S
C417 C416 1.400 . S
C417 C418 1.398 . S
C417 C423 1.491 . S
C418 H409 0.950 . S
C418 C417 1.398 . S
C418 C419 1.391 . S
C419 H407 0.950 . S
C419 C415 1.393 . S
C419 C418 1.391 . S
C420 H410 0.950 . S
C420 C421 1.386 . S
C420 C422 1.391 . S
C421 C420 1.386 . S
C421 C425 1.393 . S
C422 H411 0.950 . S
C422 C420 1.391 . S
C422 C423 1.400 . S
C423 C417 1.491 . S
C423 C422 1.400 . S
C423 C424 1.398 . S
C424 H412 0.950 . S
C424 C423 1.398 . S
C424 C425 1.391 . S
C425 H413 0.950 . S
C425 C421 1.393 . S
C425 C424 1.391 . S
H426 C434 0.950 . S
H427 C439 0.950 . S
H428 C436 0.950 . S
H429 C438 0.950 . S
H430 C440 0.950 . S
H431 C442 0.950 . S
H432 C444 0.950 . S
H433 C445 0.950 . S
C434 H426 0.950 . S
C434 C435 1.386 . S
C434 C436 1.391 . S
C435 C434 1.386 . S
C435 C439 1.393 . S
C436 H428 0.950 . S
C436 C434 1.391 . S
C436 C437 1.400 . S
C437 C436 1.400 . S
C437 C438 1.398 . S
C437 C443 1.491 . S
C438 H429 0.950 . S
C438 C437 1.398 . S
C438 C439 1.391 . S
C439 H427 0.950 . S
C439 C435 1.393 . S
C439 C438 1.391 . S
C440 H430 0.950 . S
C440 C441 1.386 . S
C440 C442 1.391 . S
C441 C440 1.386 . S
C441 C445 1.393 . S
C442 H431 0.950 . S
C442 C440 1.391 . S
C442 C443 1.400 . S
C443 C437 1.491 . S
C443 C442 1.400 . S
C443 C444 1.398 . S
C444 H432 0.950 . S
C444 C443 1.398 . S
C444 C445 1.391 . S
C445 H433 0.950 . S
C445 C441 1.393 . S
C445 C444 1.391 . S
H446 C454 0.950 . S
H447 C459 0.950 . S
H448 C456 0.950 . S
H449 C458 0.950 . S
H450 C460 0.950 . S
H451 C462 0.950 . S
H452 C464 0.950 . S
H453 C465 0.950 . S
C454 H446 0.950 . S
C454 C455 1.386 . S
C454 C456 1.391 . S
C455 C454 1.386 . S
C455 C459 1.393 . S
C456 H448 0.950 . S
C456 C454 1.391 . S
C456 C457 1.400 . S
C457 C456 1.400 . S
C457 C458 1.398 . S
C457 C463 1.491 . S
C458 H449 0.950 . S
C458 C457 1.398 . S
C458 C459 1.391 . S
C459 H447 0.950 . S
C459 C455 1.393 . S
C459 C458 1.391 . S
C460 H450 0.950 . S
C460 C461 1.386 . S
C460 C462 1.391 . S
C461 C460 1.386 . S
C461 C465 1.393 . S
C462 H451 0.950 . S
C462 C460 1.391 . S
C462 C463 1.400 . S
C463 C457 1.491 . S
C463 C462 1.400 . S
C463 C464 1.398 . S
C464 H452 0.950 . S
C464 C463 1.398 . S
C464 C465 1.391 . S
C465 H453 0.950 . S
C465 C461 1.393 . S
C465 C464 1.391 . S
H466 C474 0.950 . S
H467 C479 0.950 . S
H468 C476 0.950 . S
H469 C478 0.950 . S
H470 C480 0.950 . S
H471 C482 0.950 . S
H472 C484 0.950 . S
H473 C485 0.950 . S
C474 H466 0.950 . S
C474 C475 1.386 . S
C474 C476 1.391 . S
C475 C474 1.386 . S
C475 C479 1.393 . S
C476 H468 0.950 . S
C476 C474 1.391 . S
C476 C477 1.400 . S
C477 C476 1.400 . S
C477 C478 1.398 . S
C477 C483 1.491 . S
C478 H469 0.950 . S
C478 C477 1.398 . S
C478 C479 1.391 . S
C479 H467 0.950 . S
C479 C475 1.393 . S
C479 C478 1.391 . S
C480 H470 0.950 . S
C480 C481 1.386 . S
C480 C482 1.391 . S
C481 C480 1.386 . S
C481 C485 1.393 . S
C482 H471 0.950 . S
C482 C480 1.391 . S
C482 C483 1.400 . S
C483 C477 1.491 . S
C483 C482 1.400 . S
C483 C484 1.398 . S
C484 H472 0.950 . S
C484 C483 1.398 . S
C484 C485 1.391 . S
C485 H473 0.950 . S
C485 C481 1.393 . S
C485 C484 1.391 . S
C135 C123 1.292 . S
C141 C16 1.084 . S
C155 C18 1.281 . S
C161 C37 1.120 . S
C175 C39 1.288 . S
C181 C58 1.091 . S
C195 C79 1.073 . S
C201 C60 1.316 . S
C215 C100 1.129 . S
C221 C81 1.303 . S
C235 C102 1.301 . S
C241 C121 1.130 . S
C255 C101 1.534 . S
C261 C13 1.400 1_554 S
C275 C122 1.534 . S
C281 C34 1.419 1_554 S
C295 C55 1.379 1_554 S
C301 C17 1.543 . S
C315 C76 1.388 1_554 S
C321 C38 1.547 . S
C335 C97 1.379 1_554 S
C341 C59 1.546 . S
C355 C80 1.544 . S
C361 C118 1.407 1_554 S
C375 C14 1.485 . S
C381 C15 1.500 . S
C395 C35 1.486 . S
C401 C36 1.500 . S
C415 C56 1.456 . S
C421 C57 1.475 . S
C435 C77 1.483 . S
C441 C78 1.496 . S
C455 C99 1.476 . S
C461 C98 1.461 . S
C475 C119 1.486 . S
C481 C120 1.499 . S
