# Generated by pormake.
# Topology umz, (4)-cn, num edge types: 1
# Building blocks:
#     Node 0, Type 0, BuildingBlock: QUQFOY_clean_sbu_1, # of connection points: 4
#     Node 1, Type 0, BuildingBlock: QUQFOY_clean_sbu_1, # of connection points: 4
#     Node 2, Type 0, BuildingBlock: QUQFOY_clean_sbu_1, # of connection points: 4
#     Node 3, Type 0, BuildingBlock: QUQFOY_clean_sbu_1, # of connection points: 4
#     Node 4, Type 0, BuildingBlock: QUQFOY_clean_sbu_1, # of connection points: 4
#     Node 5, Type 0, BuildingBlock: QUQFOY_clean_sbu_1, # of connection points: 4
#     Node 6, Type 0, BuildingBlock: QUQFOY_clean_sbu_1, # of connection points: 4
#     Node 7, Type 0, BuildingBlock: QUQFOY_clean_sbu_1, # of connection points: 4
#     Node 8, Type 0, BuildingBlock: QUQFOY_clean_sbu_1, # of connection points: 4
#     Node 9, Type 0, BuildingBlock: QUQFOY_clean_sbu_1, # of connection points: 4
#     Node 10, Type 0, BuildingBlock: QUQFOY_clean_sbu_1, # of connection points: 4
#     Node 11, Type 0, BuildingBlock: QUQFOY_clean_sbu_1, # of connection points: 4
#     Node 12, Type 0, BuildingBlock: QUQFOY_clean_sbu_1, # of connection points: 4
#     Node 13, Type 0, BuildingBlock: QUQFOY_clean_sbu_1, # of connection points: 4
#     Node 14, Type 0, BuildingBlock: QUQFOY_clean_sbu_1, # of connection points: 4
#     Node 15, Type 0, BuildingBlock: QUQFOY_clean_sbu_1, # of connection points: 4
#     Edge 16, Type (0, 0), BuildingBlock: EZIPEK_clean_linker_0, # of connection points: 2
#     Edge 17, Type (0, 0), BuildingBlock: EZIPEK_clean_linker_0, # of connection points: 2
#     Edge 18, Type (0, 0), BuildingBlock: EZIPEK_clean_linker_0, # of connection points: 2
#     Edge 19, Type (0, 0), BuildingBlock: EZIPEK_clean_linker_0, # of connection points: 2
#     Edge 20, Type (0, 0), BuildingBlock: EZIPEK_clean_linker_0, # of connection points: 2
#     Edge 21, Type (0, 0), BuildingBlock: EZIPEK_clean_linker_0, # of connection points: 2
#     Edge 22, Type (0, 0), BuildingBlock: EZIPEK_clean_linker_0, # of connection points: 2
#     Edge 23, Type (0, 0), BuildingBlock: EZIPEK_clean_linker_0, # of connection points: 2
#     Edge 24, Type (0, 0), BuildingBlock: EZIPEK_clean_linker_0, # of connection points: 2
#     Edge 25, Type (0, 0), BuildingBlock: EZIPEK_clean_linker_0, # of connection points: 2
#     Edge 26, Type (0, 0), BuildingBlock: EZIPEK_clean_linker_0, # of connection points: 2
#     Edge 27, Type (0, 0), BuildingBlock: EZIPEK_clean_linker_0, # of connection points: 2
#     Edge 28, Type (0, 0), BuildingBlock: EZIPEK_clean_linker_0, # of connection points: 2
#     Edge 29, Type (0, 0), BuildingBlock: EZIPEK_clean_linker_0, # of connection points: 2
#     Edge 30, Type (0, 0), BuildingBlock: EZIPEK_clean_linker_0, # of connection points: 2
#     Edge 31, Type (0, 0), BuildingBlock: EZIPEK_clean_linker_0, # of connection points: 2
#     Edge 32, Type (0, 0), BuildingBlock: EZIPEK_clean_linker_0, # of connection points: 2
#     Edge 33, Type (0, 0), BuildingBlock: EZIPEK_clean_linker_0, # of connection points: 2
#     Edge 34, Type (0, 0), BuildingBlock: EZIPEK_clean_linker_0, # of connection points: 2
#     Edge 35, Type (0, 0), BuildingBlock: EZIPEK_clean_linker_0, # of connection points: 2
#     Edge 36, Type (0, 0), BuildingBlock: EZIPEK_clean_linker_0, # of connection points: 2
#     Edge 37, Type (0, 0), BuildingBlock: EZIPEK_clean_linker_0, # of connection points: 2
#     Edge 38, Type (0, 0), BuildingBlock: EZIPEK_clean_linker_0, # of connection points: 2
#     Edge 39, Type (0, 0), BuildingBlock: EZIPEK_clean_linker_0, # of connection points: 2
#     Edge 40, Type (0, 0), BuildingBlock: EZIPEK_clean_linker_0, # of connection points: 2
#     Edge 41, Type (0, 0), BuildingBlock: EZIPEK_clean_linker_0, # of connection points: 2
#     Edge 42, Type (0, 0), BuildingBlock: EZIPEK_clean_linker_0, # of connection points: 2
#     Edge 43, Type (0, 0), BuildingBlock: EZIPEK_clean_linker_0, # of connection points: 2
#     Edge 44, Type (0, 0), BuildingBlock: EZIPEK_clean_linker_0, # of connection points: 2
#     Edge 45, Type (0, 0), BuildingBlock: EZIPEK_clean_linker_0, # of connection points: 2
#     Edge 46, Type (0, 0), BuildingBlock: EZIPEK_clean_linker_0, # of connection points: 2
#     Edge 47, Type (0, 0), BuildingBlock: EZIPEK_clean_linker_0, # of connection points: 2
# Relax obj value: 0.241
# Max RMSD: 0.195
# Mean RMSD: 0.195
data_MOF--net-umz--node1-QUQFOY_clean_sbu_1--edge1-EZIPEK_clean_linker_0
_symmetry_space_group_name_H-M    P1
_symmetry_Int_Tables_number       1
_symmetry_cell_setting            triclinic
loop_
_symmetry_equiv_pos_as_xyz
'x, y, z'
_cell_length_a     49.073791
_cell_length_b     49.072822
_cell_length_c     16.005982
_cell_angle_alpha  89.942022
_cell_angle_beta   90.082796
_cell_angle_gamma 89.976729
loop_
_atom_site_label
_atom_site_type_symbol
_atom_site_fract_x
_atom_site_fract_y
_atom_site_fract_z
_atom_type_partial_charge
O0 O 0.07372 0.63952 0.04761 0.0
Cd1 Cd 0.05037 0.65982 0.13329 0.0
Cd2 Cd 0.02035 0.6166 0.11611 0.0
O3 O 0.04101 0.61182 0.00565 0.0
O4 O 0.05809 0.69917 0.11726 0.0
O5 O 0.01792 0.68019 0.08937 0.0
C6 C 0.03377 0.70125 0.08697 0.0
C7 C 0.97543 0.60341 0.13821 0.0
C8 C 0.06495 0.62138 -0.00191 0.0
C9 C 0.05579 0.62152 0.26792 0.0
O10 O 0.04359 0.60611 0.2168 0.0
O11 O 0.05773 0.64697 0.25411 0.0
O12 O 0.99392 0.58607 0.11806 0.0
O13 O 0.98166 0.62897 0.13817 0.0
O14 O 0.8646 0.06787 0.53541 0.0
Cd15 Cd 0.84418 0.04924 0.63005 0.0
Cd16 Cd 0.88801 0.01706 0.63329 0.0
O17 O 0.89764 0.03748 0.52428 0.0
O18 O 0.80546 0.05901 0.60994 0.0
O19 O 0.82138 0.01673 0.59962 0.0
C20 C 0.80158 0.03386 0.58985 0.0
C21 C 0.9 0.9722 0.66515 0.0
C22 C 0.88646 0.05975 0.5017 0.0
C23 C 0.8815 0.05862 0.76949 0.0
O24 O 0.89608 0.04096 0.73334 0.0
O25 O 0.8573 0.06345 0.74481 0.0
O26 O 0.91806 0.99023 0.64731 0.0
O27 O 0.87465 0.97868 0.65687 0.0
O28 O 0.43864 0.86489 0.03184 0.0
Cd29 Cd 0.45798 0.8463 0.12869 0.0
Cd30 Cd 0.48863 0.89047 0.12641 0.0
O31 O 0.46796 0.89869 0.01668 0.0
O32 O 0.44908 0.80721 0.11395 0.0
O33 O 0.49099 0.82389 0.10112 0.0
C34 C 0.47428 0.80365 0.09388 0.0
C35 C 0.53366 0.90159 0.15767 0.0
C36 C 0.44599 0.88663 0.99577 0.0
C37 C 0.44744 0.88503 0.26324 0.0
O38 O 0.46476 0.89963 0.22558 0.0
O39 O 0.44335 0.86043 0.24149 0.0
O40 O 0.51612 0.91997 0.13772 0.0
O41 O 0.5266 0.87633 0.1511 0.0
O42 O 0.64055 0.42995 0.53227 0.0
Cd43 Cd 0.66045 0.45154 0.62344 0.0
Cd44 Cd 0.61694 0.48095 0.60673 0.0
O45 O 0.61564 0.46456 0.48866 0.0
O46 O 0.69956 0.44235 0.61219 0.0
O47 O 0.68275 0.48375 0.58818 0.0
C48 C 0.70317 0.46705 0.58667 0.0
C49 C 0.59627 0.52147 0.65051 0.0
C50 C 0.62382 0.44011 0.48045 0.0
C51 C 0.62039 0.44195 0.74786 0.0
O52 O 0.60526 0.45281 0.69315 0.0
O53 O 0.64618 0.44308 0.74163 0.0
O54 O 0.58376 0.5041 0.60427 0.0
O55 O 0.62209 0.518 0.66151 0.0
O56 O 0.06523 0.86753 0.95374 0.0
Cd57 Cd 0.0446 0.84507 0.86645 0.0
Cd58 Cd 0.01421 0.8894 0.86721 0.0
O59 O 0.03222 0.89681 0.9812 0.0
O60 O 0.05548 0.80676 0.8889 0.0
O61 O 0.01326 0.82209 0.90632 0.0
C62 C 0.03085 0.80261 0.91386 0.0
C63 C 0.96993 0.90146 0.82955 0.0
C64 C 0.05569 0.88701 -0.00336 0.0
C65 C 0.05358 0.88073 0.72661 0.0
O66 O 0.04018 0.89728 0.77104 0.0
O67 O 0.05493 0.85562 0.7458 0.0
O68 O 0.98762 0.91949 0.8509 0.0
O69 O 0.9764 0.87606 0.83695 0.0
O70 O 0.63533 0.06584 0.45029 0.0
Cd71 Cd 0.65844 0.04542 0.3644 0.0
Cd72 Cd 0.61558 0.01421 0.3678 0.0
O73 O 0.60897 0.03108 0.48375 0.0
O74 O 0.69666 0.05631 0.38783 0.0
O75 O 0.68121 0.01412 0.40572 0.0
C76 C 0.70066 0.03172 0.41374 0.0
C77 C 0.6043 0.97011 0.327 0.0
C78 C 0.61711 0.05536 0.49621 0.0
C79 C 0.62219 0.05387 0.22712 0.0
O80 O 0.60615 0.04077 0.27412 0.0
O81 O 0.64752 0.0551 0.24348 0.0
O82 O 0.58604 0.98705 0.35197 0.0
O83 O 0.62959 0.97712 0.33285 0.0
O84 O 0.43685 0.6388 0.96904 0.0
Cd85 Cd 0.45804 0.66041 0.88109 0.0
Cd86 Cd 0.48728 0.61648 0.8895 0.0
O87 O 0.47222 0.61445 0.00932 0.0
O88 O 0.44941 0.69927 0.90119 0.0
O89 O 0.49067 0.68143 0.92036 0.0
C90 C 0.47423 0.70195 0.92673 0.0
C91 C 0.52648 0.59391 0.84224 0.0
C92 C 0.44768 0.62207 0.01952 0.0
C93 C 0.44648 0.62285 0.75244 0.0
O94 O 0.45777 0.60696 0.8043 0.0
O95 O 0.44821 0.64853 0.76134 0.0
O96 O 0.50857 0.58205 0.88799 0.0
O97 O 0.5243 0.61992 0.83291 0.0
O98 O 0.87828 0.4424 0.46004 0.0
Cd99 Cd 0.84913 0.45507 0.37628 0.0
Cd100 Cd 0.89322 0.4837 0.3163 0.0
O101 O 0.91348 0.46628 0.41517 0.0
O102 O 0.81458 0.44297 0.42934 0.0
O103 O 0.82386 0.48635 0.40353 0.0
C104 C 0.80751 0.46819 0.43345 0.0
C105 C 0.90533 0.52748 0.27229 0.0
C106 C 0.90333 0.44877 0.46455 0.0
C107 C 0.86973 0.43833 0.21091 0.0
O108 O 0.88748 0.45676 0.22139 0.0
O109 O 0.85052 0.43497 0.26297 0.0
O110 O 0.92174 0.5072 0.26591 0.0
O111 O 0.88181 0.52339 0.30591 0.0
O112 O 0.92918 0.3689 0.91679 0.0
Cd113 Cd 0.96063 0.35086 0.8512 0.0
Cd114 Cd 0.98133 0.39478 0.88962 0.0
O115 O 0.95746 0.39292 0.99438 0.0
O116 O 0.9523 0.31136 0.8475 0.0
O117 O 0.98518 0.32876 0.92591 0.0
C118 C 0.97027 0.30805 0.90568 0.0
C119 C 0.02637 0.40522 0.86621 0.0
C120 C 0.93368 0.38359 0.98065 0.0
C121 C 0.95913 0.39047 0.72319 0.0
O122 O 0.95925 0.4055 0.78729 0.0
O123 O 0.96618 0.36563 0.73046 0.0
O124 O 0.00955 0.4235 0.89291 0.0
O125 O 0.0186 0.38002 0.86548 0.0
O126 O 0.13302 0.93702 0.45658 0.0
Cd127 Cd 0.15605 0.95677 0.36894 0.0
Cd128 Cd 0.1125 0.98726 0.36461 0.0
O129 O 0.1038 0.97044 0.47939 0.0
O130 O 0.19432 0.94674 0.39511 0.0
O131 O 0.17824 0.98892 0.40677 0.0
C132 C 0.19793 0.97173 0.41748 0.0
C133 C 0.10257 0.03155 0.3222 0.0
C134 C 0.11321 0.94697 0.49713 0.0
C135 C 0.12117 0.94654 0.22813 0.0
O136 O 0.10455 0.96051 0.27067 0.0
O137 O 0.14615 0.94509 0.24879 0.0
O138 O 0.08365 0.01484 0.34379 0.0
O139 O 0.12763 0.02411 0.33161 0.0
O140 O 0.56521 0.13289 0.95669 0.0
Cd141 Cd 0.54601 0.15546 0.86666 0.0
Cd142 Cd 0.51525 0.1117 0.86157 0.0
O143 O 0.53249 0.10259 0.97562 0.0
O144 O 0.55614 0.19379 0.89084 0.0
O145 O 0.51375 0.17816 0.90041 0.0
C146 C 0.53099 0.1978 0.91057 0.0
C147 C 0.47069 0.10185 0.82177 0.0
C148 C 0.55548 0.11263 0.99568 0.0
C149 C 0.5562 0.1205 0.72537 0.0
O150 O 0.54142 0.10402 0.76584 0.0
O151 O 0.55849 0.14522 0.74796 0.0
O152 O 0.4876 0.08289 0.84171 0.0
O153 O 0.47814 0.12689 0.83131 0.0
O154 O 0.36857 0.56686 0.47556 0.0
Cd155 Cd 0.34691 0.54776 0.38328 0.0
Cd156 Cd 0.39191 0.51814 0.37988 0.0
O157 O 0.39959 0.53481 0.49532 0.0
O158 O 0.30837 0.55744 0.40561 0.0
O159 O 0.32428 0.51511 0.41394 0.0
C160 C 0.30442 0.53213 0.42356 0.0
C161 C 0.40403 0.47423 0.33887 0.0
C162 C 0.38874 0.55738 0.51572 0.0
C163 C 0.38237 0.55985 0.24519 0.0
O164 O 0.399 0.54527 0.28599 0.0
O165 O 0.35741 0.56112 0.26577 0.0
O166 O 0.42211 0.492 0.35929 0.0
O167 O 0.37867 0.48039 0.34894 0.0
O168 O 0.93789 0.14134 0.04236 0.0
Cd169 Cd 0.95892 0.16106 0.13363 0.0
Cd170 Cd 0.99037 0.11659 0.12712 0.0
O171 O 0.9684 0.10906 0.01936 0.0
O172 O 0.94517 0.19912 0.12704 0.0
O173 O 0.98677 0.18759 0.0885 0.0
C174 C 0.96768 0.20571 0.0909 0.0
C175 C 0.03524 0.10372 0.15442 0.0
C176 C 0.94553 0.12026 0.00332 0.0
C177 C 0.95099 0.1217 0.26892 0.0
O178 O 0.96756 0.10715 0.22817 0.0
O179 O 0.94705 0.14653 0.24926 0.0
O180 O 0.01694 0.08611 0.13472 0.0
O181 O 0.02906 0.12924 0.14909 0.0
O182 O 0.36173 0.93882 0.5313 0.0
Cd183 Cd 0.34219 0.95739 0.6275 0.0
Cd184 Cd 0.38583 0.98976 0.62623 0.0
O185 O 0.39451 0.96933 0.51677 0.0
O186 O 0.30342 0.9473 0.61093 0.0
O187 O 0.31888 0.98969 0.59856 0.0
C188 C 0.29918 0.97238 0.59047 0.0
C189 C 0.39838 0.03453 0.65671 0.0
C190 C 0.38322 0.94699 0.49559 0.0
C191 C 0.38096 0.94811 0.76317 0.0
O192 O 0.39501 0.96593 0.72571 0.0
O193 O 0.35655 0.94317 0.74087 0.0
O194 O 0.41613 0.01637 0.63733 0.0
O195 O 0.37292 0.02827 0.65031 0.0
O196 O 0.56297 0.36619 0.02305 0.0
Cd197 Cd 0.5449 0.34342 0.11455 0.0
Cd198 Cd 0.5155 0.38876 0.12384 0.0
O199 O 0.53005 0.3964 0.00582 0.0
O200 O 0.55566 0.3054 0.08816 0.0
O201 O 0.51279 0.31989 0.08421 0.0
C202 C 0.53038 0.30072 0.07154 0.0
C203 C 0.47259 0.40262 0.1703 0.0
C204 C 0.55286 0.38633 0.98422 0.0
C205 C 0.55939 0.37809 0.25178 0.0
O206 O 0.54468 0.39511 0.21282 0.0
O207 O 0.55966 0.3531 0.23115 0.0
O208 O 0.49087 0.41994 0.14831 0.0
O209 O 0.47767 0.37703 0.15987 0.0
O210 O 0.13366 0.56264 0.53655 0.0
Cd211 Cd 0.15796 0.54424 0.6243 0.0
Cd212 Cd 0.11162 0.51589 0.64446 0.0
O213 O 0.10125 0.53146 0.52918 0.0
O214 O 0.19542 0.55559 0.59303 0.0
O215 O 0.18174 0.51249 0.59153 0.0
C216 C 0.20049 0.53037 0.57724 0.0
C217 C 0.0976 0.47342 0.6941 0.0
C218 C 0.11194 0.55358 0.50376 0.0
C219 C 0.12703 0.55873 0.77045 0.0
O220 O 0.10866 0.54454 0.73598 0.0
O221 O 0.15126 0.55883 0.7428 0.0
O222 O 0.08035 0.49219 0.67553 0.0
O223 O 0.12305 0.47775 0.67881 0.0
C224 C 0.02284 0.751 0.08914 0.0
C225 C 0.02569 0.72658 0.04292 0.0
C226 C 0.02242 0.75242 0.91175 0.0
C227 C 0.02418 0.77692 0.95792 0.0
N228 N 0.02615 0.80033 0.09024 0.0
N229 N 0.02858 0.70339 0.91025 0.0
C230 C 0.02389 0.77648 0.04668 0.0
C231 C 0.02503 0.72703 0.9541 0.0
N232 N 0.01897 0.74964 0.17359 0.0
N233 N 0.01818 0.75358 0.82741 0.0
H234 H 0.02987 0.68432 0.93866 0.0
H235 H 0.03177 0.7027 0.84601 0.0
H236 H 0.01622 0.77202 0.79533 0.0
H237 H 0.01418 0.73658 0.79058 0.0
H238 H 0.0143 0.76644 0.21054 0.0
H239 H 0.01804 0.73115 0.20574 0.0
H240 H 0.02948 0.8013 0.1544 0.0
H241 H 0.0261 0.8194 0.06146 0.0
C242 C 0.72653 0.02329 0.54671 0.0
C243 C 0.72634 0.02497 0.45801 0.0
C244 C 0.77622 0.02682 0.456 0.0
C245 C 0.77636 0.0262 0.54477 0.0
N246 N 0.75313 0.0175 0.67397 0.0
N247 N 0.75022 0.02152 0.32757 0.0
C248 C 0.75191 0.02226 0.5899 0.0
C249 C 0.75103 0.02446 0.41246 0.0
N250 N 0.70249 0.02427 0.5897 0.0
N251 N 0.80003 0.03109 0.41359 0.0
H252 H 0.73195 0.01966 0.29461 0.0
H253 H 0.76741 0.01853 0.2907 0.0
H254 H 0.81899 0.03196 0.443 0.0
H255 H 0.80099 0.03514 0.34984 0.0
H256 H 0.70121 0.02656 0.6542 0.0
H257 H 0.68351 0.02411 0.56034 0.0
H258 H 0.73637 0.01204 0.71002 0.0
H259 H 0.77156 0.01676 0.70658 0.0
C260 C 0.48401 0.75374 0.10005 0.0
C261 C 0.48241 0.77798 0.05241 0.0
C262 C 0.48559 0.75148 0.92278 0.0
C263 C 0.48237 0.72732 0.96996 0.0
N264 N 0.47914 0.70452 0.10312 0.0
N265 N 0.48182 0.80075 0.91866 0.0
C266 C 0.48234 0.72812 0.0587 0.0
C267 C 0.48384 0.77714 0.96375 0.0
N268 N 0.48712 0.7554 0.18475 0.0
N269 N 0.4903 0.74971 0.83882 0.0
H270 H 0.48125 0.81999 0.94623 0.0
H271 H 0.4793 0.80135 0.85411 0.0
H272 H 0.49166 0.73104 0.80789 0.0
H273 H 0.49525 0.76633 0.80137 0.0
H274 H 0.49075 0.73866 0.22315 0.0
H275 H 0.48843 0.77405 0.21588 0.0
H276 H 0.47554 0.70388 0.16714 0.0
H277 H 0.47886 0.68534 0.07513 0.0
C278 C 0.75337 0.47348 0.60145 0.0
C279 C 0.7298 0.47491 0.55051 0.0
C280 C 0.75845 0.48193 0.42665 0.0
C281 C 0.78169 0.47557 0.47542 0.0
N282 N 0.8023 0.46647 0.60923 0.0
N283 N 0.70928 0.47962 0.41389 0.0
C284 C 0.77947 0.47203 0.56316 0.0
C285 C 0.73211 0.47955 0.46307 0.0
N286 N 0.75063 0.47379 0.68643 0.0
N287 N 0.76159 0.48973 0.34525 0.0
H288 H 0.68959 0.47808 0.43766 0.0
H289 H 0.70981 0.47942 0.34889 0.0
H290 H 0.7806 0.49099 0.31648 0.0
H291 H 0.74575 0.49723 0.30848 0.0
H292 H 0.76696 0.4751 0.72779 0.0
H293 H 0.73167 0.47518 0.71562 0.0
H294 H 0.80188 0.46036 0.6715 0.0
H295 H 0.82188 0.46698 0.58387 0.0
C296 C 0.99547 0.27036 0.98467 0.0
C297 C 0.9708 0.28218 0.95492 0.0
C298 C 0.94612 0.24183 0.00153 0.0
C299 C 0.96962 0.23194 0.0437 0.0
N300 N 0.01594 0.24062 0.08834 0.0
N301 N 0.92149 0.28252 0.96668 0.0
C302 C 0.9942 0.24726 0.03906 0.0
C303 C 0.94575 0.26898 0.97282 0.0
N304 N 0.02005 0.2803 0.959 0.0
N305 N 0.92456 0.22514 0.98421 0.0
H306 H 0.92012 0.30337 0.95495 0.0
H307 H 0.90309 0.27371 0.98497 0.0
H308 H 0.92495 0.20417 0.99449 0.0
H309 H 0.90794 0.23161 0.94858 0.0
H310 H 0.03848 0.27078 0.97326 0.0
H311 H 0.02189 0.29621 0.91621 0.0
H312 H 0.03338 0.25266 0.09227 0.0
H313 H 0.01538 0.22486 0.13197 0.0
C314 C 0.27328 0.97963 0.45767 0.0
C315 C 0.27365 0.97968 0.54649 0.0
C316 C 0.22376 0.9807 0.54985 0.0
C317 C 0.2234 0.97945 0.46115 0.0
N318 N 0.24667 0.98457 0.33022 0.0
N319 N 0.2505 0.98667 0.67674 0.0
C320 C 0.24788 0.98124 0.41495 0.0
C321 C 0.2492 0.98241 0.59246 0.0
N322 N 0.29709 0.97649 0.4144 0.0
N323 N 0.19985 0.97878 0.59325 0.0
H324 H 0.26899 0.98796 0.70881 0.0
H325 H 0.23365 0.99118 0.71363 0.0
H326 H 0.18083 0.97854 0.56412 0.0
H327 H 0.19876 0.9762 0.65769 0.0
H328 H 0.29801 0.97288 0.35041 0.0
H329 H 0.31617 0.97611 0.44319 0.0
H330 H 0.2636 0.98848 0.293 0.0
H331 H 0.22822 0.98582 0.29789 0.0
C332 C 0.5231 0.22491 0.04054 0.0
C333 C 0.52315 0.22358 0.95189 0.0
C334 C 0.52125 0.27335 0.94276 0.0
C335 C 0.52269 0.27471 0.0313 0.0
N336 N 0.51822 0.25294 0.16497 0.0
N337 N 0.51566 0.24511 0.81903 0.0
C338 C 0.5213 0.25077 0.08037 0.0
C339 C 0.51995 0.24743 0.90312 0.0
N340 N 0.52621 0.20156 0.08628 0.0
N341 N 0.52255 0.29681 0.89675 0.0
H342 H 0.51465 0.22625 0.78906 0.0
H343 H 0.51088 0.26144 0.78019 0.0
H344 H 0.52233 0.31613 0.92384 0.0
H345 H 0.52497 0.29727 0.8322 0.0
H346 H 0.52965 0.20124 0.15043 0.0
H347 H 0.52653 0.18223 0.05923 0.0
H348 H 0.51476 0.23643 0.20438 0.0
H349 H 0.51684 0.27175 0.19507 0.0
C350 C 0.25533 0.51894 0.41421 0.0
C351 C 0.27864 0.52396 0.46401 0.0
C352 C 0.25056 0.52322 0.59062 0.0
C353 C 0.22696 0.52287 0.53974 0.0
N354 N 0.20593 0.5197 0.40395 0.0
N355 N 0.29945 0.53024 0.59913 0.0
C356 C 0.22906 0.51996 0.45172 0.0
C357 C 0.27661 0.5254 0.55237 0.0
N358 N 0.2585 0.51328 0.3312 0.0
N359 N 0.24787 0.52141 0.67544 0.0
H360 H 0.31897 0.53083 0.57346 0.0
H361 H 0.29911 0.53486 0.66255 0.0
H362 H 0.22892 0.51972 0.7045 0.0
H363 H 0.26421 0.51924 0.71643 0.0
H364 H 0.24267 0.50717 0.29216 0.0
H365 H 0.27763 0.51252 0.30282 0.0
H366 H 0.20592 0.52087 0.33904 0.0
H367 H 0.18642 0.51949 0.4297 0.0
C368 C 0.09781 0.5837 0.97325 0.0
C369 C 0.0845 0.6075 0.94325 0.0
C370 C 0.1084 0.60369 0.81001 0.0
C371 C 0.11831 0.57783 0.83559 0.0
N372 N 0.12293 0.5426 0.93905 0.0
N373 N 0.07659 0.64074 0.83527 0.0
C374 C 0.1135 0.56783 0.91707 0.0
C375 C 0.08993 0.61792 0.86252 0.0
N376 N 0.09559 0.57648 0.05556 0.0
N377 N 0.11646 0.61429 0.73493 0.0
H378 H 0.06343 0.65188 0.87329 0.0
H379 H 0.07728 0.64791 0.77413 0.0
H380 H 0.12983 0.60412 0.69508 0.0
H381 H 0.11176 0.6339 0.71479 0.0
H382 H 0.10702 0.56103 0.08323 0.0
H383 H 0.08376 0.58728 0.09829 0.0
H384 H 0.11722 0.53243 0.99338 0.0
H385 H 0.13578 0.53124 0.90051 0.0
C386 C 0.9185 0.08375 0.2992 0.0
C387 C 0.93244 0.10755 0.32729 0.0
C388 C 0.9101 0.10346 0.46287 0.0
C389 C 0.90002 0.0773 0.43926 0.0
N390 N 0.89529 0.04192 0.33582 0.0
N391 N 0.94437 0.13813 0.43911 0.0
C392 C 0.90451 0.06723 0.35772 0.0
C393 C 0.92886 0.11706 0.4098 0.0
N394 N 0.91748 0.07758 0.2159 0.0
N395 N 0.90172 0.11559 0.53525 0.0
H396 H 0.9586 0.14838 0.40238 0.0
H397 H 0.94497 0.14378 0.5018 0.0
H398 H 0.88808 0.10679 0.57686 0.0
H399 H 0.90631 0.13572 0.55033 0.0
H400 H 0.90512 0.06235 0.19112 0.0
H401 H 0.92675 0.08935 0.16991 0.0
H402 H 0.90124 0.03198 0.28131 0.0
H403 H 0.88275 0.03016 0.37411 0.0
C404 C 0.40129 0.90859 0.95812 0.0
C405 C 0.42763 0.89922 0.93349 0.0
C406 C 0.41978 0.91669 0.79269 0.0
C407 C 0.39555 0.92974 0.82109 0.0
N408 N 0.36471 0.94079 0.93287 0.0
N409 N 0.46245 0.89475 0.82833 0.0
C410 C 0.38649 0.92618 0.90409 0.0
C411 C 0.43702 0.90342 0.85102 0.0
N412 N 0.39023 0.90076 0.03274 0.0
N413 N 0.42581 0.91608 0.70927 0.0
H414 H 0.47477 0.88278 0.86681 0.0
H415 H 0.47193 0.90056 0.77292 0.0
H416 H 0.41375 0.92532 0.66384 0.0
H417 H 0.44137 0.90429 0.68386 0.0
H418 H 0.37002 0.9045 0.04887 0.0
H419 H 0.40019 0.88851 0.07612 0.0
H420 H 0.35926 0.9417 0.99566 0.0
H421 H 0.35341 0.95396 0.89515 0.0
C422 C 0.57319 0.3881 0.39858 0.0
C423 C 0.57912 0.38903 0.31231 0.0
C424 C 0.61537 0.42257 0.33597 0.0
C425 C 0.60946 0.42172 0.42243 0.0
N426 N 0.58601 0.40095 0.53925 0.0
N427 N 0.60865 0.40222 0.1992 0.0
C428 C 0.58951 0.40344 0.4548 0.0
C429 C 0.6012 0.40473 0.28119 0.0
N430 N 0.55104 0.37374 0.42595 0.0
N431 N 0.63406 0.44084 0.30635 0.0
H432 H 0.59875 0.38909 0.15786 0.0
H433 H 0.62587 0.41128 0.17349 0.0
H434 H 0.64555 0.45339 0.34544 0.0
H435 H 0.63723 0.44471 0.24319 0.0
H436 H 0.54333 0.37494 0.48636 0.0
H437 H 0.53936 0.36148 0.38654 0.0
H438 H 0.57432 0.38575 0.56699 0.0
H439 H 0.59603 0.41313 0.58272 0.0
C440 C 0.09546 0.90484 0.19227 0.0
C441 C 0.10953 0.92841 0.16438 0.0
C442 C 0.09083 0.92256 0.02402 0.0
C443 C 0.0741 0.90115 0.05481 0.0
N444 N 0.05897 0.8724 0.16747 0.0
N445 N 0.12007 0.96101 0.05694 0.0
C446 C 0.07612 0.89225 0.13869 0.0
C447 C 0.10732 0.93749 0.0808 0.0
N448 N 0.10077 0.89458 0.27014 0.0
N449 N 0.09119 0.92835 0.94037 0.0
H450 H 0.13326 0.97166 0.09633 0.0
H451 H 0.11659 0.97069 1e-05 0.0
H452 H 0.07876 0.91846 0.89704 0.0
H453 H 0.10511 0.94158 0.91283 0.0
H454 H 0.09298 0.87623 0.29226 0.0
H455 H 0.11493 0.90339 0.3106 0.0
H456 H 0.05734 0.86688 0.23004 0.0
H457 H 0.04485 0.86256 0.12918 0.0
C458 C 0.60011 0.09925 0.68415 0.0
C459 C 0.57393 0.10891 0.66059 0.0
C460 C 0.57603 0.08325 0.52988 0.0
C461 C 0.60219 0.07339 0.55377 0.0
N462 N 0.64149 0.07561 0.64405 0.0
N463 N 0.5386 0.11449 0.5582 0.0
C464 C 0.61503 0.08263 0.62785 0.0
C465 C 0.56241 0.10225 0.58226 0.0
N466 N 0.61005 0.1048 0.76224 0.0
N467 N 0.56425 0.0743 0.45733 0.0
H468 H 0.52854 0.12868 0.59566 0.0
H469 H 0.52977 0.11237 0.49948 0.0
H470 H 0.57417 0.0617 0.41471 0.0
H471 H 0.5442 0.07832 0.44024 0.0
H472 H 0.62719 0.09542 0.78769 0.0
H473 H 0.60028 0.11785 0.80399 0.0
H474 H 0.65306 0.08417 0.69182 0.0
H475 H 0.65259 0.06234 0.60629 0.0
C476 C 0.40065 0.60479 0.20047 0.0
C477 C 0.39373 0.5775 0.17964 0.0
C478 C 0.42116 0.58011 0.05237 0.0
C479 C 0.42962 0.60674 0.0761 0.0
N480 N 0.42402 0.64662 0.16191 0.0
N481 N 0.39733 0.53848 0.08959 0.0
C482 C 0.41824 0.61979 0.14689 0.0
C483 C 0.40371 0.5651 0.10598 0.0
N484 N 0.39183 0.61562 0.27443 0.0
N485 N 0.42884 0.5697 0.97664 0.0
H486 H 0.3831 0.52757 0.12465 0.0
H487 H 0.40676 0.52677 0.04385 0.0
H488 H 0.44199 0.57972 0.93592 0.0
H489 H 0.42084 0.55197 0.95088 0.0
H490 H 0.39882 0.63391 0.29924 0.0
H491 H 0.37815 0.60566 0.31379 0.0
H492 H 0.4142 0.6584 0.20666 0.0
H493 H 0.43784 0.65776 0.12614 0.0
C494 C 0.92955 0.38974 0.59337 0.0
C495 C 0.94969 0.40261 0.64341 0.0
C496 C 0.94063 0.44611 0.57335 0.0
C497 C 0.92123 0.43301 0.52152 0.0
N498 N 0.90592 0.39052 0.46104 0.0
N499 N 0.98083 0.44036 0.65914 0.0
C500 C 0.91848 0.40421 0.52465 0.0
C501 C 0.95743 0.42992 0.62575 0.0
N502 N 0.91944 0.36465 0.61364 0.0
N503 N 0.94204 0.47389 0.57689 0.0
H504 H 0.994 0.42872 0.69588 0.0
H505 H 0.98856 0.45941 0.64268 0.0
H506 H 0.92925 0.48668 0.54269 0.0
H507 H 0.95409 0.48421 0.62019 0.0
H508 H 0.90261 0.35619 0.58352 0.0
H509 H 0.92594 0.35326 0.66471 0.0
H510 H 0.90551 0.36931 0.45745 0.0
H511 H 0.89898 0.40023 0.40705 0.0
C512 C 0.90272 0.37937 0.10363 0.0
C513 C 0.91055 0.39353 0.03055 0.0
C514 C 0.8779 0.42977 0.06174 0.0
C515 C 0.87482 0.41878 0.1427 0.0
N516 N 0.88144 0.38179 0.24005 0.0
N517 N 0.90426 0.43072 0.9337 0.0
C518 C 0.88571 0.39273 0.16265 0.0
C519 C 0.89729 0.41806 0.00676 0.0
N520 N 0.91175 0.35333 0.11643 0.0
N521 N 0.86257 0.45184 0.03925 0.0
H522 H 0.91771 0.42219 0.89065 0.0
H523 H 0.89764 0.45011 0.91689 0.0
H524 H 0.84823 0.46033 0.07983 0.0
H525 H 0.86222 0.46014 0.97942 0.0
H526 H 0.90496 0.34088 0.16476 0.0
H527 H 0.92452 0.34334 0.07429 0.0
H528 H 0.89184 0.36487 0.26302 0.0
H529 H 0.86776 0.39009 0.28269 0.0
C530 C 0.05823 0.90078 0.58456 0.0
C531 C 0.07063 0.89243 0.6602 0.0
C532 C 0.11056 0.92082 0.63091 0.0
C533 C 0.09831 0.92888 0.5546 0.0
N534 N 0.06372 0.92202 0.449 0.0
N535 N 0.11004 0.8901 0.74992 0.0
C536 C 0.07305 0.91756 0.52847 0.0
C537 C 0.0974 0.90094 0.68128 0.0
N538 N 0.03197 0.89327 0.56767 0.0
N539 N 0.13417 0.93305 0.65659 0.0
H540 H 0.10075 0.87577 0.78869 0.0
H541 H 0.13038 0.89352 0.76496 0.0
H542 H 0.14424 0.94773 0.621 0.0
H543 H 0.1428 0.93027 0.71541 0.0
H544 H 0.02043 0.90156 0.51927 0.0
H545 H 0.02125 0.87951 0.60496 0.0
H546 H 0.04707 0.91187 0.42338 0.0
H547 H 0.07388 0.93426 0.40584 0.0
C548 C 0.6049 0.06021 0.08193 0.0
C549 C 0.60977 0.07112 0.1623 0.0
C550 C 0.57793 0.10861 0.13524 0.0
C551 C 0.57344 0.098 0.05419 0.0
N552 N 0.58634 0.06725 0.9432 0.0
N553 N 0.60528 0.10765 0.26176 0.0
C554 C 0.58803 0.07482 0.02532 0.0
C555 C 0.59769 0.09607 0.18758 0.0
N556 N 0.61565 0.03544 0.06102 0.0
N557 N 0.56259 0.13006 0.16286 0.0
H558 H 0.61973 0.09887 0.3014 0.0
H559 H 0.5991 0.12692 0.28108 0.0
H560 H 0.54801 0.13969 0.12562 0.0
H561 H 0.56278 0.13713 0.22412 0.0
H562 H 0.6101 0.02464 0.0077 0.0
H563 H 0.62928 0.025 0.0996 0.0
H564 H 0.59882 0.05252 0.91627 0.0
H565 H 0.57381 0.07707 0.89994 0.0
C566 C 0.42347 0.593 0.54615 0.0
C567 C 0.4026 0.57536 0.57561 0.0
C568 C 0.40592 0.59542 0.71477 0.0
C569 C 0.42904 0.61046 0.68803 0.0
N570 N 0.4614 0.62253 0.58129 0.0
N571 N 0.3746 0.55819 0.68716 0.0
C572 C 0.43809 0.60926 0.60423 0.0
C573 C 0.39387 0.57622 0.65971 0.0
N574 N 0.42899 0.59449 0.46249 0.0
N575 N 0.39537 0.59993 0.79261 0.0
H576 H 0.36511 0.54417 0.64774 0.0
H577 H 0.36933 0.55575 0.74967 0.0
H578 H 0.40357 0.61424 0.83378 0.0
H579 H 0.37723 0.59142 0.81383 0.0
H580 H 0.44167 0.60916 0.43617 0.0
H581 H 0.41936 0.58228 0.41806 0.0
H582 H 0.471 0.61972 0.52398 0.0
H583 H 0.47213 0.63531 0.62168 0.0
C584 C 0.91929 0.09108 0.79934 0.0
C585 C 0.89548 0.0773 0.8277 0.0
C586 C 0.90105 0.09772 0.96577 0.0
C587 C 0.92706 0.1079 0.9409 0.0
N588 N 0.96116 0.11451 0.8345 0.0
N589 N 0.86489 0.06516 0.939 0.0
C590 C 0.93621 0.10466 0.85774 0.0
C591 C 0.88645 0.08025 0.91093 0.0
N592 N 0.92524 0.09196 0.71589 0.0
N593 N 0.89012 0.10466 0.04135 0.0
H594 H 0.85365 0.05223 0.90043 0.0
H595 H 0.85949 0.06371 0.00174 0.0
H596 H 0.89995 0.11679 0.0852 0.0
H597 H 0.87009 0.10032 0.05807 0.0
H598 H 0.94035 0.10427 0.69026 0.0
H599 H 0.91355 0.08222 0.6706 0.0
H600 H 0.97073 0.10936 0.77866 0.0
H601 H 0.97301 0.12699 0.87272 0.0
C602 C 0.40681 0.90326 0.45739 0.0
C603 C 0.39646 0.92929 0.43312 0.0
C604 C 0.41467 0.92271 0.29279 0.0
C605 C 0.42863 0.89894 0.3211 0.0
N606 N 0.44072 0.86829 0.43271 0.0
N607 N 0.39086 0.96428 0.32872 0.0
C608 C 0.42523 0.88947 0.40377 0.0
C609 C 0.40052 0.93916 0.35107 0.0
N610 N 0.39912 0.89154 0.53121 0.0
N611 N 0.41402 0.929 0.2095 0.0
H612 H 0.3782 0.97591 0.367 0.0
H613 H 0.39645 0.97422 0.27383 0.0
H614 H 0.42387 0.91752 0.16402 0.0
H615 H 0.40164 0.94414 0.18412 0.0
H616 H 0.40369 0.87145 0.54689 0.0
H617 H 0.38617 0.90072 0.57411 0.0
H618 H 0.44163 0.86267 0.49543 0.0
H619 H 0.4546 0.85778 0.39542 0.0
C620 C 0.57993 0.42728 0.94319 0.0
C621 C 0.57029 0.40071 0.92372 0.0
C622 C 0.60019 0.39912 0.8016 0.0
C623 C 0.60701 0.42681 0.81534 0.0
N624 N 0.60124 0.46857 0.89238 0.0
N625 N 0.56881 0.36214 0.83075 0.0
C626 C 0.59631 0.44128 0.88429 0.0
C627 C 0.5799 0.38674 0.8521 0.0
N628 N 0.57466 0.43862 0.01954 0.0
N629 N 0.61317 0.38477 0.74023 0.0
H630 H 0.55359 0.35274 0.86588 0.0
H631 H 0.57292 0.35214 0.77485 0.0
H632 H 0.62806 0.39341 0.702 0.0
H633 H 0.61097 0.36386 0.73172 0.0
H634 H 0.58373 0.45659 0.04018 0.0
H635 H 0.56327 0.42893 0.06575 0.0
H636 H 0.5911 0.48091 0.93518 0.0
H637 H 0.61429 0.47925 0.85266 0.0
C638 C 0.11028 0.57879 0.36814 0.0
C639 C 0.09734 0.57121 0.44378 0.0
C640 C 0.05783 0.59962 0.4085 0.0
C641 C 0.07139 0.60824 0.33514 0.0
N642 N 0.11202 0.61008 0.25087 0.0
N643 N 0.06182 0.57915 0.54557 0.0
C644 C 0.0982 0.59918 0.31709 0.0
C645 C 0.07191 0.58291 0.46677 0.0
N646 N 0.1335 0.56562 0.34354 0.0
N647 N 0.03129 0.60692 0.42146 0.0
H648 H 0.07162 0.56745 0.59097 0.0
H649 H 0.04493 0.58958 0.56852 0.0
H650 H 0.02087 0.62037 0.38219 0.0
H651 H 0.01918 0.59848 0.46821 0.0
H652 H 0.14241 0.56812 0.28507 0.0
H653 H 0.14266 0.55028 0.37898 0.0
H654 H 0.13251 0.6063 0.23887 0.0
H655 H 0.10361 0.62484 0.21156 0.0
C656 C 0.91564 0.55685 0.14945 0.0
C657 C 0.91358 0.55411 0.23738 0.0
C658 C 0.94455 0.59252 0.25783 0.0
C659 C 0.94909 0.59314 0.17015 0.0
N660 N 0.93377 0.58254 0.03173 0.0
N661 N 0.91853 0.57376 0.37378 0.0
C662 C 0.9326 0.57759 0.11564 0.0
C663 C 0.9253 0.57374 0.29103 0.0
N664 N 0.90241 0.53867 0.09904 0.0
N665 N 0.96021 0.60822 0.30953 0.0
H666 H 0.90467 0.55988 0.3989 0.0
H667 H 0.92465 0.58876 0.41571 0.0
H668 H 0.97384 0.6228 0.28738 0.0
H669 H 0.96053 0.6062 0.37425 0.0
H670 H 0.9052 0.53741 0.03475 0.0
H671 H 0.88883 0.52422 0.12267 0.0
H672 H 0.92121 0.5732 0.98786 0.0
H673 H 0.94606 0.59791 0.00691 0.0
C674 C 0.90808 0.94443 0.79391 0.0
C675 C 0.90889 0.9465 0.70538 0.0
C676 C 0.9434 0.91055 0.69892 0.0
C677 C 0.94457 0.9105 0.78762 0.0
N678 N 0.92332 0.92043 0.91878 0.0
N679 N 0.92052 0.9268 0.57325 0.0
C680 C 0.92508 0.92504 0.83479 0.0
C681 C 0.92421 0.92772 0.6578 0.0
N682 N 0.89263 0.96234 0.83891 0.0
N683 N 0.9619 0.89569 0.65434 0.0
H684 H 0.90641 0.93932 0.54288 0.0
H685 H 0.92945 0.91231 0.53454 0.0
H686 H 0.9755 0.88216 0.68246 0.0
H687 H 0.96449 0.89734 0.59003 0.0
H688 H 0.89366 0.96427 0.90357 0.0
H689 H 0.8793 0.97619 0.81102 0.0
H690 H 0.90826 0.92869 0.95681 0.0
H691 H 0.93572 0.90619 0.949 0.0
C692 C 0.57775 0.92642 0.15112 0.0
C693 C 0.55951 0.91015 0.19777 0.0
C694 C 0.58171 0.92476 0.32771 0.0
C695 C 0.59549 0.94523 0.28229 0.0
N696 N 0.60869 0.96498 0.15042 0.0
N697 N 0.54473 0.89201 0.33047 0.0
C698 C 0.59475 0.94541 0.19356 0.0
C699 C 0.5622 0.90814 0.28604 0.0
N700 N 0.57831 0.92385 0.06618 0.0
N701 N 0.5871 0.92172 0.41094 0.0
H702 H 0.53073 0.87897 0.30225 0.0
H703 H 0.54327 0.89228 0.39532 0.0
H704 H 0.6014 0.93387 0.44175 0.0
H705 H 0.5795 0.90585 0.44724 0.0
H706 H 0.59249 0.93351 0.028 0.0
H707 H 0.56593 0.9099 0.03477 0.0
H708 H 0.60634 0.9685 0.08668 0.0
H709 H 0.62202 0.97858 0.17927 0.0
C710 C 0.55448 0.53221 0.73247 0.0
C711 C 0.58003 0.54106 0.70136 0.0
C712 C 0.57277 0.58477 0.77339 0.0
C713 C 0.54542 0.57699 0.79106 0.0
N714 N 0.50839 0.54655 0.7532 0.0
N715 N 0.61168 0.57826 0.6818 0.0
C716 C 0.53566 0.55172 0.76027 0.0
C717 C 0.5888 0.56811 0.71884 0.0
N718 N 0.5484 0.50514 0.73988 0.0
N719 N 0.58382 0.60724 0.81041 0.0
H720 H 0.62331 0.56706 0.63961 0.0
H721 H 0.61749 0.59862 0.68676 0.0
H722 H 0.57315 0.61924 0.85291 0.0
H723 H 0.60437 0.61229 0.80522 0.0
H724 H 0.53036 0.49836 0.76738 0.0
H725 H 0.56269 0.48975 0.7301 0.0
H726 H 0.50097 0.52869 0.72609 0.0
H727 H 0.4935 0.56137 0.76279 0.0
C728 C 0.08647 0.45054 0.82923 0.0
C729 C 0.08808 0.44921 0.74086 0.0
C730 C 0.05578 0.41128 0.73852 0.0
C731 C 0.0522 0.41425 0.82648 0.0
N732 N 0.06971 0.43005 0.95776 0.0
N733 N 0.08169 0.42382 0.61465 0.0
C734 C 0.06963 0.43163 0.87255 0.0
C735 C 0.07532 0.42784 0.69678 0.0
N736 N 0.09979 0.47088 0.8709 0.0
N737 N 0.03912 0.39439 0.69377 0.0
H738 H 0.09588 0.43597 0.58351 0.0
H739 H 0.07504 0.40715 0.57998 0.0
H740 H 0.02509 0.38124 0.72098 0.0
H741 H 0.03815 0.39429 0.62881 0.0
H742 H 0.09694 0.47516 0.93395 0.0
H743 H 0.11313 0.48428 0.8411 0.0
H744 H 0.08329 0.44063 0.99575 0.0
H745 H 0.05762 0.41604 0.98994 0.0
C746 C 0.07783 0.07643 0.14647 0.0
C747 C 0.06087 0.09395 0.19343 0.0
C748 C 0.08273 0.07821 0.32283 0.0
C749 C 0.09492 0.05681 0.27736 0.0
N750 N 0.10644 0.03604 0.14569 0.0
N751 N 0.04798 0.11331 0.32634 0.0
C752 C 0.0938 0.0565 0.18874 0.0
C753 C 0.06415 0.096 0.28154 0.0
N754 N 0.0781 0.07875 0.06143 0.0
N755 N 0.0887 0.08104 0.40574 0.0
H756 H 0.03475 0.12723 0.2985 0.0
H757 H 0.0468 0.11323 0.39125 0.0
H758 H 0.10229 0.06802 0.43631 0.0
H759 H 0.08234 0.09746 0.44193 0.0
H760 H 0.09138 0.06805 0.02284 0.0
H761 H 0.06649 0.09342 0.03021 0.0
H762 H 0.10375 0.03258 0.08208 0.0
H763 H 0.11902 0.02173 0.17465 0.0
C764 C 0.4064 0.06297 0.78416 0.0
C765 C 0.40788 0.06017 0.69587 0.0
C766 C 0.4447 0.09373 0.68991 0.0
C767 C 0.44512 0.0943 0.77858 0.0
N768 N 0.4221 0.08689 0.9085 0.0
N769 N 0.42175 0.07829 0.56356 0.0
C770 C 0.42428 0.08152 0.82507 0.0
C771 C 0.42472 0.07765 0.64839 0.0
N772 N 0.38951 0.04641 0.8292 0.0
N773 N 0.46456 0.10697 0.64596 0.0
H774 H 0.40704 0.06658 0.53295 0.0
H775 H 0.43192 0.09192 0.52472 0.0
H776 H 0.47887 0.11964 0.67444 0.0
H777 H 0.46754 0.10474 0.58198 0.0
H778 H 0.38993 0.04492 0.89404 0.0
H779 H 0.37554 0.03326 0.80138 0.0
H780 H 0.40616 0.08 0.94575 0.0
H781 H 0.43519 0.10047 0.93873 0.0
C782 C 0.42936 0.4294 0.1657 0.0
C783 C 0.44749 0.41261 0.21164 0.0
C784 C 0.42884 0.4298 0.34354 0.0
C785 C 0.41294 0.44871 0.29762 0.0
N786 N 0.39221 0.46223 0.16746 0.0
N787 N 0.45983 0.3911 0.34163 0.0
C788 C 0.41101 0.4468 0.20931 0.0
C789 C 0.44539 0.41068 0.29989 0.0
N790 N 0.43078 0.42947 0.08039 0.0
N791 N 0.42896 0.43119 0.42884 0.0
H792 H 0.47237 0.37713 0.31131 0.0
H793 H 0.45798 0.38723 0.40526 0.0
H794 H 0.41582 0.44403 0.4617 0.0
H795 H 0.44222 0.42032 0.46711 0.0
H796 H 0.42057 0.44323 0.04208 0.0
H797 H 0.44297 0.41573 0.04751 0.0
H798 H 0.38838 0.46071 0.10373 0.0
H799 H 0.37881 0.4754 0.19769 0.0
loop_
_geom_bond_atom_site_label_1
_geom_bond_atom_site_label_2
_geom_bond_distance
_geom_bond_site_symmetry_2
_ccdc_geom_bond_type
O0 Cd1 2.223 . S
O0 C8 1.315 . S
Cd1 O0 2.223 . S
Cd1 O4 2.297 . S
Cd1 O5 2.439 . S
Cd1 O11 2.240 . S
Cd2 O3 2.240 . S
Cd2 O10 2.223 . S
Cd2 O12 2.297 1_455 S
Cd2 O13 2.439 1_455 S
O3 Cd2 2.240 . S
O3 C8 1.279 . S
O4 Cd1 2.297 . S
O4 C6 1.247 . S
O5 Cd1 2.439 . S
O5 C6 1.208 . S
C6 O4 1.247 . S
C6 O5 1.208 . S
C7 O12 1.247 . S
C7 O13 1.208 . S
C8 O0 1.315 . S
C8 O3 1.279 . S
C9 O10 1.315 . S
C9 O11 1.279 . S
O10 Cd2 2.223 . S
O10 C9 1.315 . S
O11 Cd1 2.240 . S
O11 C9 1.279 . S
O12 Cd2 2.297 1_655 S
O12 C7 1.247 . S
O13 Cd2 2.439 1_655 S
O13 C7 1.208 . S
O14 Cd15 2.223 . S
O14 C22 1.315 . S
Cd15 O14 2.223 . S
Cd15 O18 2.297 . S
Cd15 O19 2.439 . S
Cd15 O25 2.240 . S
Cd16 O17 2.240 . S
Cd16 O24 2.223 . S
Cd16 O26 2.297 1_545 S
Cd16 O27 2.439 1_545 S
O17 Cd16 2.240 . S
O17 C22 1.279 . S
O18 Cd15 2.297 . S
O18 C20 1.247 . S
O19 Cd15 2.439 . S
O19 C20 1.208 . S
C20 O18 1.247 . S
C20 O19 1.208 . S
C21 O26 1.247 . S
C21 O27 1.208 . S
C22 O14 1.315 . S
C22 O17 1.279 . S
C23 O24 1.315 . S
C23 O25 1.279 . S
O24 Cd16 2.223 . S
O24 C23 1.315 . S
O25 Cd15 2.240 . S
O25 C23 1.279 . S
O26 Cd16 2.297 1_565 S
O26 C21 1.247 . S
O27 Cd16 2.439 1_565 S
O27 C21 1.208 . S
O28 Cd29 2.223 . S
O28 C36 1.315 . S
Cd29 O28 2.223 . S
Cd29 O32 2.297 . S
Cd29 O33 2.439 . S
Cd29 O39 2.240 . S
Cd30 O31 2.240 . S
Cd30 O38 2.223 . S
Cd30 O40 2.297 . S
Cd30 O41 2.439 . S
O31 Cd30 2.240 . S
O31 C36 1.279 . S
O32 Cd29 2.297 . S
O32 C34 1.247 . S
O33 Cd29 2.439 . S
O33 C34 1.208 . S
C34 O32 1.247 . S
C34 O33 1.208 . S
C35 O40 1.247 . S
C35 O41 1.208 . S
C36 O28 1.315 . S
C36 O31 1.279 . S
C37 O38 1.315 . S
C37 O39 1.279 . S
O38 Cd30 2.223 . S
O38 C37 1.315 . S
O39 Cd29 2.240 . S
O39 C37 1.279 . S
O40 Cd30 2.297 . S
O40 C35 1.247 . S
O41 Cd30 2.439 . S
O41 C35 1.208 . S
O42 Cd43 2.223 . S
O42 C50 1.315 . S
Cd43 O42 2.223 . S
Cd43 O46 2.297 . S
Cd43 O47 2.439 . S
Cd43 O53 2.240 . S
Cd44 O45 2.240 . S
Cd44 O52 2.223 . S
Cd44 O54 2.297 . S
Cd44 O55 2.439 . S
O45 Cd44 2.240 . S
O45 C50 1.279 . S
O46 Cd43 2.297 . S
O46 C48 1.247 . S
O47 Cd43 2.439 . S
O47 C48 1.208 . S
C48 O46 1.247 . S
C48 O47 1.208 . S
C49 O54 1.247 . S
C49 O55 1.208 . S
C50 O42 1.315 . S
C50 O45 1.279 . S
C51 O52 1.315 . S
C51 O53 1.279 . S
O52 Cd44 2.223 . S
O52 C51 1.315 . S
O53 Cd43 2.240 . S
O53 C51 1.279 . S
O54 Cd44 2.297 . S
O54 C49 1.247 . S
O55 Cd44 2.439 . S
O55 C49 1.208 . S
O56 Cd57 2.223 . S
O56 C64 1.315 . S
Cd57 O56 2.223 . S
Cd57 O60 2.297 . S
Cd57 O61 2.439 . S
Cd57 O67 2.240 . S
Cd58 O59 2.240 . S
Cd58 O66 2.223 . S
Cd58 O68 2.297 1_455 S
Cd58 O69 2.439 1_455 S
O59 Cd58 2.240 . S
O59 C64 1.279 . S
O60 Cd57 2.297 . S
O60 C62 1.247 . S
O61 Cd57 2.439 . S
O61 C62 1.208 . S
C62 O60 1.247 . S
C62 O61 1.208 . S
C63 O68 1.247 . S
C63 O69 1.208 . S
C64 O56 1.315 . S
C64 O59 1.279 . S
C65 O66 1.315 . S
C65 O67 1.279 . S
O66 Cd58 2.223 . S
O66 C65 1.315 . S
O67 Cd57 2.240 . S
O67 C65 1.279 . S
O68 Cd58 2.297 1_655 S
O68 C63 1.247 . S
O69 Cd58 2.439 1_655 S
O69 C63 1.208 . S
O70 Cd71 2.223 . S
O70 C78 1.315 . S
Cd71 O70 2.223 . S
Cd71 O74 2.297 . S
Cd71 O75 2.439 . S
Cd71 O81 2.240 . S
Cd72 O73 2.240 . S
Cd72 O80 2.223 . S
Cd72 O82 2.297 1_545 S
Cd72 O83 2.439 1_545 S
O73 Cd72 2.240 . S
O73 C78 1.279 . S
O74 Cd71 2.297 . S
O74 C76 1.247 . S
O75 Cd71 2.439 . S
O75 C76 1.208 . S
C76 O74 1.247 . S
C76 O75 1.208 . S
C77 O82 1.247 . S
C77 O83 1.208 . S
C78 O70 1.315 . S
C78 O73 1.279 . S
C79 O80 1.315 . S
C79 O81 1.279 . S
O80 Cd72 2.223 . S
O80 C79 1.315 . S
O81 Cd71 2.240 . S
O81 C79 1.279 . S
O82 Cd72 2.297 1_565 S
O82 C77 1.247 . S
O83 Cd72 2.439 1_565 S
O83 C77 1.208 . S
O84 Cd85 2.223 . S
O84 C92 1.315 . S
Cd85 O84 2.223 . S
Cd85 O88 2.297 . S
Cd85 O89 2.439 . S
Cd85 O95 2.240 . S
Cd86 O87 2.240 . S
Cd86 O94 2.223 . S
Cd86 O96 2.297 . S
Cd86 O97 2.439 . S
O87 Cd86 2.240 . S
O87 C92 1.279 . S
O88 Cd85 2.297 . S
O88 C90 1.247 . S
O89 Cd85 2.439 . S
O89 C90 1.208 . S
C90 O88 1.247 . S
C90 O89 1.208 . S
C91 O96 1.247 . S
C91 O97 1.208 . S
C92 O84 1.315 . S
C92 O87 1.279 . S
C93 O94 1.315 . S
C93 O95 1.279 . S
O94 Cd86 2.223 . S
O94 C93 1.315 . S
O95 Cd85 2.240 . S
O95 C93 1.279 . S
O96 Cd86 2.297 . S
O96 C91 1.247 . S
O97 Cd86 2.439 . S
O97 C91 1.208 . S
O98 Cd99 2.223 . S
O98 C106 1.315 . S
Cd99 O98 2.223 . S
Cd99 O102 2.297 . S
Cd99 O103 2.439 . S
Cd99 O109 2.240 . S
Cd100 O101 2.240 . S
Cd100 O108 2.223 . S
Cd100 O110 2.297 . S
Cd100 O111 2.439 . S
O101 Cd100 2.240 . S
O101 C106 1.279 . S
O102 Cd99 2.297 . S
O102 C104 1.247 . S
O103 Cd99 2.439 . S
O103 C104 1.208 . S
C104 O102 1.247 . S
C104 O103 1.208 . S
C105 O110 1.247 . S
C105 O111 1.208 . S
C106 O98 1.315 . S
C106 O101 1.279 . S
C107 O108 1.315 . S
C107 O109 1.279 . S
O108 Cd100 2.223 . S
O108 C107 1.315 . S
O109 Cd99 2.240 . S
O109 C107 1.279 . S
O110 Cd100 2.297 . S
O110 C105 1.247 . S
O111 Cd100 2.439 . S
O111 C105 1.208 . S
O112 Cd113 2.223 . S
O112 C120 1.315 . S
Cd113 O112 2.223 . S
Cd113 O116 2.297 . S
Cd113 O117 2.439 . S
Cd113 O123 2.240 . S
Cd114 O115 2.240 . S
Cd114 O122 2.223 . S
Cd114 O124 2.297 1_655 S
Cd114 O125 2.439 1_655 S
O115 Cd114 2.240 . S
O115 C120 1.279 . S
O116 Cd113 2.297 . S
O116 C118 1.247 . S
O117 Cd113 2.439 . S
O117 C118 1.208 . S
C118 O116 1.247 . S
C118 O117 1.208 . S
C119 O124 1.247 . S
C119 O125 1.208 . S
C120 O112 1.315 . S
C120 O115 1.279 . S
C121 O122 1.315 . S
C121 O123 1.279 . S
O122 Cd114 2.223 . S
O122 C121 1.315 . S
O123 Cd113 2.240 . S
O123 C121 1.279 . S
O124 Cd114 2.297 1_455 S
O124 C119 1.247 . S
O125 Cd114 2.439 1_455 S
O125 C119 1.208 . S
O126 Cd127 2.223 . S
O126 C134 1.315 . S
Cd127 O126 2.223 . S
Cd127 O130 2.297 . S
Cd127 O131 2.439 . S
Cd127 O137 2.240 . S
Cd128 O129 2.240 . S
Cd128 O136 2.223 . S
Cd128 O138 2.297 1_565 S
Cd128 O139 2.439 1_565 S
O129 Cd128 2.240 . S
O129 C134 1.279 . S
O130 Cd127 2.297 . S
O130 C132 1.247 . S
O131 Cd127 2.439 . S
O131 C132 1.208 . S
C132 O130 1.247 . S
C132 O131 1.208 . S
C133 O138 1.247 . S
C133 O139 1.208 . S
C134 O126 1.315 . S
C134 O129 1.279 . S
C135 O136 1.315 . S
C135 O137 1.279 . S
O136 Cd128 2.223 . S
O136 C135 1.315 . S
O137 Cd127 2.240 . S
O137 C135 1.279 . S
O138 Cd128 2.297 1_545 S
O138 C133 1.247 . S
O139 Cd128 2.439 1_545 S
O139 C133 1.208 . S
O140 Cd141 2.223 . S
O140 C148 1.315 . S
Cd141 O140 2.223 . S
Cd141 O144 2.297 . S
Cd141 O145 2.439 . S
Cd141 O151 2.240 . S
Cd142 O143 2.240 . S
Cd142 O150 2.223 . S
Cd142 O152 2.297 . S
Cd142 O153 2.439 . S
O143 Cd142 2.240 . S
O143 C148 1.279 . S
O144 Cd141 2.297 . S
O144 C146 1.247 . S
O145 Cd141 2.439 . S
O145 C146 1.208 . S
C146 O144 1.247 . S
C146 O145 1.208 . S
C147 O152 1.247 . S
C147 O153 1.208 . S
C148 O140 1.315 . S
C148 O143 1.279 . S
C149 O150 1.315 . S
C149 O151 1.279 . S
O150 Cd142 2.223 . S
O150 C149 1.315 . S
O151 Cd141 2.240 . S
O151 C149 1.279 . S
O152 Cd142 2.297 . S
O152 C147 1.247 . S
O153 Cd142 2.439 . S
O153 C147 1.208 . S
O154 Cd155 2.223 . S
O154 C162 1.315 . S
Cd155 O154 2.223 . S
Cd155 O158 2.297 . S
Cd155 O159 2.439 . S
Cd155 O165 2.240 . S
Cd156 O157 2.240 . S
Cd156 O164 2.223 . S
Cd156 O166 2.297 . S
Cd156 O167 2.439 . S
O157 Cd156 2.240 . S
O157 C162 1.279 . S
O158 Cd155 2.297 . S
O158 C160 1.247 . S
O159 Cd155 2.439 . S
O159 C160 1.208 . S
C160 O158 1.247 . S
C160 O159 1.208 . S
C161 O166 1.247 . S
C161 O167 1.208 . S
C162 O154 1.315 . S
C162 O157 1.279 . S
C163 O164 1.315 . S
C163 O165 1.279 . S
O164 Cd156 2.223 . S
O164 C163 1.315 . S
O165 Cd155 2.240 . S
O165 C163 1.279 . S
O166 Cd156 2.297 . S
O166 C161 1.247 . S
O167 Cd156 2.439 . S
O167 C161 1.208 . S
O168 Cd169 2.223 . S
O168 C176 1.315 . S
Cd169 O168 2.223 . S
Cd169 O172 2.297 . S
Cd169 O173 2.439 . S
Cd169 O179 2.240 . S
Cd170 O171 2.240 . S
Cd170 O178 2.223 . S
Cd170 O180 2.297 1_655 S
Cd170 O181 2.439 1_655 S
O171 Cd170 2.240 . S
O171 C176 1.279 . S
O172 Cd169 2.297 . S
O172 C174 1.247 . S
O173 Cd169 2.439 . S
O173 C174 1.208 . S
C174 O172 1.247 . S
C174 O173 1.208 . S
C175 O180 1.247 . S
C175 O181 1.208 . S
C176 O168 1.315 . S
C176 O171 1.279 . S
C177 O178 1.315 . S
C177 O179 1.279 . S
O178 Cd170 2.223 . S
O178 C177 1.315 . S
O179 Cd169 2.240 . S
O179 C177 1.279 . S
O180 Cd170 2.297 1_455 S
O180 C175 1.247 . S
O181 Cd170 2.439 1_455 S
O181 C175 1.208 . S
O182 Cd183 2.223 . S
O182 C190 1.315 . S
Cd183 O182 2.223 . S
Cd183 O186 2.297 . S
Cd183 O187 2.439 . S
Cd183 O193 2.240 . S
Cd184 O185 2.240 . S
Cd184 O192 2.223 . S
Cd184 O194 2.297 1_565 S
Cd184 O195 2.439 1_565 S
O185 Cd184 2.240 . S
O185 C190 1.279 . S
O186 Cd183 2.297 . S
O186 C188 1.247 . S
O187 Cd183 2.439 . S
O187 C188 1.208 . S
C188 O186 1.247 . S
C188 O187 1.208 . S
C189 O194 1.247 . S
C189 O195 1.208 . S
C190 O182 1.315 . S
C190 O185 1.279 . S
C191 O192 1.315 . S
C191 O193 1.279 . S
O192 Cd184 2.223 . S
O192 C191 1.315 . S
O193 Cd183 2.240 . S
O193 C191 1.279 . S
O194 Cd184 2.297 1_545 S
O194 C189 1.247 . S
O195 Cd184 2.439 1_545 S
O195 C189 1.208 . S
O196 Cd197 2.223 . S
O196 C204 1.315 . S
Cd197 O196 2.223 . S
Cd197 O200 2.297 . S
Cd197 O201 2.439 . S
Cd197 O207 2.240 . S
Cd198 O199 2.240 . S
Cd198 O206 2.223 . S
Cd198 O208 2.297 . S
Cd198 O209 2.439 . S
O199 Cd198 2.240 . S
O199 C204 1.279 . S
O200 Cd197 2.297 . S
O200 C202 1.247 . S
O201 Cd197 2.439 . S
O201 C202 1.208 . S
C202 O200 1.247 . S
C202 O201 1.208 . S
C203 O208 1.247 . S
C203 O209 1.208 . S
C204 O196 1.315 . S
C204 O199 1.279 . S
C205 O206 1.315 . S
C205 O207 1.279 . S
O206 Cd198 2.223 . S
O206 C205 1.315 . S
O207 Cd197 2.240 . S
O207 C205 1.279 . S
O208 Cd198 2.297 . S
O208 C203 1.247 . S
O209 Cd198 2.439 . S
O209 C203 1.208 . S
O210 Cd211 2.223 . S
O210 C218 1.315 . S
Cd211 O210 2.223 . S
Cd211 O214 2.297 . S
Cd211 O215 2.439 . S
Cd211 O221 2.240 . S
Cd212 O213 2.240 . S
Cd212 O220 2.223 . S
Cd212 O222 2.297 . S
Cd212 O223 2.439 . S
O213 Cd212 2.240 . S
O213 C218 1.279 . S
O214 Cd211 2.297 . S
O214 C216 1.247 . S
O215 Cd211 2.439 . S
O215 C216 1.208 . S
C216 O214 1.247 . S
C216 O215 1.208 . S
C217 O222 1.247 . S
C217 O223 1.208 . S
C218 O210 1.315 . S
C218 O213 1.279 . S
C219 O220 1.315 . S
C219 O221 1.279 . S
O220 Cd212 2.223 . S
O220 C219 1.315 . S
O221 Cd211 2.240 . S
O221 C219 1.279 . S
O222 Cd212 2.297 . S
O222 C217 1.247 . S
O223 Cd212 2.439 . S
O223 C217 1.208 . S
C224 C225 1.363 . S
C224 C230 1.379 . S
C224 N232 1.356 1_455 S
C225 C224 1.363 . S
C225 C231 1.363 1_554 S
C226 C227 1.363 . S
C226 C231 1.379 . S
C226 N233 1.356 . S
C227 C226 1.363 . S
C227 C230 1.363 1_556 S
N228 C230 1.356 1_655 S
N228 H240 0.984 . S
N228 H241 0.985 . S
N229 C231 1.356 . S
N229 H234 0.984 . S
N229 H235 0.985 . S
C230 C224 1.379 . S
C230 C227 1.363 1_554 S
C230 N228 1.356 1_455 S
C231 C225 1.363 1_556 S
C231 C226 1.379 . S
C231 N229 1.356 . S
N232 C224 1.356 1_655 S
N232 H238 0.984 . S
N232 H239 0.984 . S
N233 C226 1.356 . S
N233 H236 0.984 . S
N233 H237 0.985 . S
H234 N229 0.984 . S
H235 N229 0.985 . S
H236 N233 0.984 . S
H237 N233 0.985 . S
H238 N232 0.984 . S
H239 N232 0.984 . S
H240 N228 0.984 . S
H241 N228 0.985 . S
C242 C243 1.363 1_565 S
C242 C248 1.379 . S
C242 N250 1.356 . S
C243 C242 1.363 1_545 S
C243 C249 1.363 . S
C244 C245 1.363 . S
C244 C249 1.379 . S
C244 N251 1.356 . S
C245 C244 1.363 . S
C245 C248 1.363 1_545 S
N246 C248 1.356 . S
N246 H258 0.984 . S
N246 H259 0.985 . S
N247 C249 1.356 . S
N247 H252 0.984 . S
N247 H253 0.985 . S
C248 C242 1.379 . S
C248 C245 1.363 1_565 S
C248 N246 1.356 . S
C249 C243 1.363 . S
C249 C244 1.379 . S
C249 N247 1.356 . S
N250 C242 1.356 . S
N250 H256 0.984 . S
N250 H257 0.984 . S
N251 C244 1.356 . S
N251 H254 0.984 . S
N251 H255 0.985 . S
H252 N247 0.984 . S
H253 N247 0.985 . S
H254 N251 0.984 . S
H255 N251 0.985 . S
H256 N250 0.984 . S
H257 N250 0.984 . S
H258 N246 0.984 . S
H259 N246 0.985 . S
C260 C261 1.363 . S
C260 C266 1.379 . S
C260 N268 1.356 . S
C261 C260 1.363 . S
C261 C267 1.363 1_554 S
C262 C263 1.363 . S
C262 C267 1.379 . S
C262 N269 1.356 . S
C263 C262 1.363 . S
C263 C266 1.363 1_556 S
N264 C266 1.356 . S
N264 H276 0.984 . S
N264 H277 0.985 . S
N265 C267 1.356 . S
N265 H270 0.984 . S
N265 H271 0.985 . S
C266 C260 1.379 . S
C266 C263 1.363 1_554 S
C266 N264 1.356 . S
C267 C261 1.363 1_556 S
C267 C262 1.379 . S
C267 N265 1.356 . S
N268 C260 1.356 . S
N268 H274 0.984 . S
N268 H275 0.984 . S
N269 C262 1.356 . S
N269 H272 0.984 . S
N269 H273 0.985 . S
H270 N265 0.984 . S
H271 N265 0.985 . S
H272 N269 0.984 . S
H273 N269 0.985 . S
H274 N268 0.984 . S
H275 N268 0.984 . S
H276 N264 0.984 . S
H277 N264 0.985 . S
C278 C279 1.363 . S
C278 C284 1.379 . S
C278 N286 1.356 . S
C279 C278 1.363 . S
C279 C285 1.363 . S
C280 C281 1.363 . S
C280 C285 1.379 . S
C280 N287 1.356 . S
C281 C280 1.363 . S
C281 C284 1.363 . S
N282 C284 1.356 . S
N282 H294 0.984 . S
N282 H295 0.985 . S
N283 C285 1.356 . S
N283 H288 0.984 . S
N283 H289 0.985 . S
C284 C278 1.379 . S
C284 C281 1.363 . S
C284 N282 1.356 . S
C285 C279 1.363 . S
C285 C280 1.379 . S
C285 N283 1.356 . S
N286 C278 1.356 . S
N286 H292 0.984 . S
N286 H293 0.984 . S
N287 C280 1.356 . S
N287 H290 0.984 . S
N287 H291 0.985 . S
H288 N283 0.984 . S
H289 N283 0.985 . S
H290 N287 0.984 . S
H291 N287 0.985 . S
H292 N286 0.984 . S
H293 N286 0.984 . S
H294 N282 0.984 . S
H295 N282 0.985 . S
C296 C297 1.363 1_455 S
C296 C302 1.379 1_556 S
C296 N304 1.356 . S
C297 C296 1.363 1_655 S
C297 C303 1.363 . S
C298 C299 1.363 . S
C298 C303 1.379 1_554 S
C298 N305 1.356 . S
C299 C298 1.363 . S
C299 C302 1.363 1_655 S
N300 C302 1.356 . S
N300 H312 0.984 . S
N300 H313 0.985 . S
N301 C303 1.356 . S
N301 H306 0.984 . S
N301 H307 0.985 . S
C302 C296 1.379 1_554 S
C302 C299 1.363 1_455 S
C302 N300 1.356 . S
C303 C297 1.363 . S
C303 C298 1.379 1_556 S
C303 N301 1.356 . S
N304 C296 1.356 . S
N304 H310 0.984 . S
N304 H311 0.984 . S
N305 C298 1.356 . S
N305 H308 0.984 . S
N305 H309 0.985 . S
H306 N301 0.984 . S
H307 N301 0.985 . S
H308 N305 0.984 . S
H309 N305 0.985 . S
H310 N304 0.984 . S
H311 N304 0.984 . S
H312 N300 0.984 . S
H313 N300 0.985 . S
C314 C315 1.363 . S
C314 C320 1.379 . S
C314 N322 1.356 . S
C315 C314 1.363 . S
C315 C321 1.363 1_565 S
C316 C317 1.363 1_545 S
C316 C321 1.379 . S
C316 N323 1.356 . S
C317 C316 1.363 1_565 S
C317 C320 1.363 . S
N318 C320 1.356 . S
N318 H330 0.984 . S
N318 H331 0.985 . S
N319 C321 1.356 . S
N319 H324 0.984 . S
N319 H325 0.985 . S
C320 C314 1.379 . S
C320 C317 1.363 . S
C320 N318 1.356 . S
C321 C315 1.363 1_545 S
C321 C316 1.379 . S
C321 N319 1.356 . S
N322 C314 1.356 . S
N322 H328 0.984 . S
N322 H329 0.984 . S
N323 C316 1.356 . S
N323 H326 0.984 . S
N323 H327 0.985 . S
H324 N319 0.984 . S
H325 N319 0.985 . S
H326 N323 0.984 . S
H327 N323 0.985 . S
H328 N322 0.984 . S
H329 N322 0.984 . S
H330 N318 0.984 . S
H331 N318 0.985 . S
C332 C333 1.363 1_554 S
C332 C338 1.379 . S
C332 N340 1.356 . S
C333 C332 1.363 1_556 S
C333 C339 1.363 . S
C334 C335 1.363 1_556 S
C334 C339 1.379 . S
C334 N341 1.356 . S
C335 C334 1.363 1_554 S
C335 C338 1.363 . S
N336 C338 1.356 . S
N336 H348 0.984 . S
N336 H349 0.985 . S
N337 C339 1.356 . S
N337 H342 0.984 . S
N337 H343 0.985 . S
C338 C332 1.379 . S
C338 C335 1.363 . S
C338 N336 1.356 . S
C339 C333 1.363 . S
C339 C334 1.379 . S
C339 N337 1.356 . S
N340 C332 1.356 . S
N340 H346 0.984 . S
N340 H347 0.984 . S
N341 C334 1.356 . S
N341 H344 0.984 . S
N341 H345 0.985 . S
H342 N337 0.984 . S
H343 N337 0.985 . S
H344 N341 0.984 . S
H345 N341 0.985 . S
H346 N340 0.984 . S
H347 N340 0.984 . S
H348 N336 0.984 . S
H349 N336 0.985 . S
C350 C351 1.363 . S
C350 C356 1.379 . S
C350 N358 1.356 . S
C351 C350 1.363 . S
C351 C357 1.363 . S
C352 C353 1.363 . S
C352 C357 1.379 . S
C352 N359 1.356 . S
C353 C352 1.363 . S
C353 C356 1.363 . S
N354 C356 1.356 . S
N354 H366 0.984 . S
N354 H367 0.985 . S
N355 C357 1.356 . S
N355 H360 0.984 . S
N355 H361 0.985 . S
C356 C350 1.379 . S
C356 C353 1.363 . S
C356 N354 1.356 . S
C357 C351 1.363 . S
C357 C352 1.379 . S
C357 N355 1.356 . S
N358 C350 1.356 . S
N358 H364 0.984 . S
N358 H365 0.984 . S
N359 C352 1.356 . S
N359 H362 0.984 . S
N359 H363 0.985 . S
H360 N355 0.984 . S
H361 N355 0.985 . S
H362 N359 0.984 . S
H363 N359 0.985 . S
H364 N358 0.984 . S
H365 N358 0.984 . S
H366 N354 0.984 . S
H367 N354 0.985 . S
C368 C369 1.363 . S
C368 C374 1.379 . S
C368 N376 1.356 1_556 S
C369 C368 1.363 . S
C369 C375 1.363 . S
C370 C371 1.363 . S
C370 C375 1.379 . S
C370 N377 1.356 . S
C371 C370 1.363 . S
C371 C374 1.363 . S
N372 C374 1.356 . S
N372 H384 0.984 . S
N372 H385 0.985 . S
N373 C375 1.356 . S
N373 H378 0.984 . S
N373 H379 0.985 . S
C374 C368 1.379 . S
C374 C371 1.363 . S
C374 N372 1.356 . S
C375 C369 1.363 . S
C375 C370 1.379 . S
C375 N373 1.356 . S
N376 C368 1.356 1_554 S
N376 H382 0.984 . S
N376 H383 0.984 . S
N377 C370 1.356 . S
N377 H380 0.984 . S
N377 H381 0.985 . S
H378 N373 0.984 . S
H379 N373 0.985 . S
H380 N377 0.984 . S
H381 N377 0.985 . S
H382 N376 0.984 . S
H383 N376 0.984 . S
H384 N372 0.984 . S
H385 N372 0.985 . S
C386 C387 1.363 . S
C386 C392 1.379 . S
C386 N394 1.356 . S
C387 C386 1.363 . S
C387 C393 1.363 . S
C388 C389 1.363 . S
C388 C393 1.379 . S
C388 N395 1.356 . S
C389 C388 1.363 . S
C389 C392 1.363 . S
N390 C392 1.356 . S
N390 H402 0.984 . S
N390 H403 0.985 . S
N391 C393 1.356 . S
N391 H396 0.984 . S
N391 H397 0.985 . S
C392 C386 1.379 . S
C392 C389 1.363 . S
C392 N390 1.356 . S
C393 C387 1.363 . S
C393 C388 1.379 . S
C393 N391 1.356 . S
N394 C386 1.356 . S
N394 H400 0.984 . S
N394 H401 0.984 . S
N395 C388 1.356 . S
N395 H398 0.984 . S
N395 H399 0.985 . S
H396 N391 0.984 . S
H397 N391 0.985 . S
H398 N395 0.984 . S
H399 N395 0.985 . S
H400 N394 0.984 . S
H401 N394 0.984 . S
H402 N390 0.984 . S
H403 N390 0.985 . S
C404 C405 1.363 . S
C404 C410 1.379 . S
C404 N412 1.356 1_556 S
C405 C404 1.363 . S
C405 C411 1.363 . S
C406 C407 1.363 . S
C406 C411 1.379 . S
C406 N413 1.356 . S
C407 C406 1.363 . S
C407 C410 1.363 . S
N408 C410 1.356 . S
N408 H420 0.984 . S
N408 H421 0.985 . S
N409 C411 1.356 . S
N409 H414 0.984 . S
N409 H415 0.985 . S
C410 C404 1.379 . S
C410 C407 1.363 . S
C410 N408 1.356 . S
C411 C405 1.363 . S
C411 C406 1.379 . S
C411 N409 1.356 . S
N412 C404 1.356 1_554 S
N412 H418 0.984 . S
N412 H419 0.984 . S
N413 C406 1.356 . S
N413 H416 0.984 . S
N413 H417 0.985 . S
H414 N409 0.984 . S
H415 N409 0.985 . S
H416 N413 0.984 . S
H417 N413 0.985 . S
H418 N412 0.984 . S
H419 N412 0.984 . S
H420 N408 0.984 . S
H421 N408 0.985 . S
C422 C423 1.363 . S
C422 C428 1.379 . S
C422 N430 1.356 . S
C423 C422 1.363 . S
C423 C429 1.363 . S
C424 C425 1.363 . S
C424 C429 1.379 . S
C424 N431 1.356 . S
C425 C424 1.363 . S
C425 C428 1.363 . S
N426 C428 1.356 . S
N426 H438 0.984 . S
N426 H439 0.985 . S
N427 C429 1.356 . S
N427 H432 0.984 . S
N427 H433 0.985 . S
C428 C422 1.379 . S
C428 C425 1.363 . S
C428 N426 1.356 . S
C429 C423 1.363 . S
C429 C424 1.379 . S
C429 N427 1.356 . S
N430 C422 1.356 . S
N430 H436 0.984 . S
N430 H437 0.984 . S
N431 C424 1.356 . S
N431 H434 0.984 . S
N431 H435 0.985 . S
H432 N427 0.984 . S
H433 N427 0.985 . S
H434 N431 0.984 . S
H435 N431 0.985 . S
H436 N430 0.984 . S
H437 N430 0.984 . S
H438 N426 0.984 . S
H439 N426 0.985 . S
C440 C441 1.363 . S
C440 C446 1.379 . S
C440 N448 1.356 . S
C441 C440 1.363 . S
C441 C447 1.363 . S
C442 C443 1.363 . S
C442 C447 1.379 . S
C442 N449 1.356 1_554 S
C443 C442 1.363 . S
C443 C446 1.363 . S
N444 C446 1.356 . S
N444 H456 0.984 . S
N444 H457 0.985 . S
N445 C447 1.356 . S
N445 H450 0.984 . S
N445 H451 0.985 . S
C446 C440 1.379 . S
C446 C443 1.363 . S
C446 N444 1.356 . S
C447 C441 1.363 . S
C447 C442 1.379 . S
C447 N445 1.356 . S
N448 C440 1.356 . S
N448 H454 0.984 . S
N448 H455 0.984 . S
N449 C442 1.356 1_556 S
N449 H452 0.984 . S
N449 H453 0.985 . S
H450 N445 0.984 . S
H451 N445 0.985 . S
H452 N449 0.984 . S
H453 N449 0.985 . S
H454 N448 0.984 . S
H455 N448 0.984 . S
H456 N444 0.984 . S
H457 N444 0.985 . S
C458 C459 1.363 . S
C458 C464 1.379 . S
C458 N466 1.356 . S
C459 C458 1.363 . S
C459 C465 1.363 . S
C460 C461 1.363 . S
C460 C465 1.379 . S
C460 N467 1.356 . S
C461 C460 1.363 . S
C461 C464 1.363 . S
N462 C464 1.356 . S
N462 H474 0.984 . S
N462 H475 0.985 . S
N463 C465 1.356 . S
N463 H468 0.984 . S
N463 H469 0.985 . S
C464 C458 1.379 . S
C464 C461 1.363 . S
C464 N462 1.356 . S
C465 C459 1.363 . S
C465 C460 1.379 . S
C465 N463 1.356 . S
N466 C458 1.356 . S
N466 H472 0.984 . S
N466 H473 0.984 . S
N467 C460 1.356 . S
N467 H470 0.984 . S
N467 H471 0.985 . S
H468 N463 0.984 . S
H469 N463 0.985 . S
H470 N467 0.984 . S
H471 N467 0.985 . S
H472 N466 0.984 . S
H473 N466 0.984 . S
H474 N462 0.984 . S
H475 N462 0.985 . S
C476 C477 1.363 . S
C476 C482 1.379 . S
C476 N484 1.356 . S
C477 C476 1.363 . S
C477 C483 1.363 . S
C478 C479 1.363 . S
C478 C483 1.379 . S
C478 N485 1.356 1_554 S
C479 C478 1.363 . S
C479 C482 1.363 . S
N480 C482 1.356 . S
N480 H492 0.984 . S
N480 H493 0.985 . S
N481 C483 1.356 . S
N481 H486 0.984 . S
N481 H487 0.985 . S
C482 C476 1.379 . S
C482 C479 1.363 . S
C482 N480 1.356 . S
C483 C477 1.363 . S
C483 C478 1.379 . S
C483 N481 1.356 . S
N484 C476 1.356 . S
N484 H490 0.984 . S
N484 H491 0.984 . S
N485 C478 1.356 1_556 S
N485 H488 0.984 . S
N485 H489 0.985 . S
H486 N481 0.984 . S
H487 N481 0.985 . S
H488 N485 0.984 . S
H489 N485 0.985 . S
H490 N484 0.984 . S
H491 N484 0.984 . S
H492 N480 0.984 . S
H493 N480 0.985 . S
C494 C495 1.363 . S
C494 C500 1.379 . S
C494 N502 1.356 . S
C495 C494 1.363 . S
C495 C501 1.363 . S
C496 C497 1.363 . S
C496 C501 1.379 . S
C496 N503 1.356 . S
C497 C496 1.363 . S
C497 C500 1.363 . S
N498 C500 1.356 . S
N498 H510 0.984 . S
N498 H511 0.985 . S
N499 C501 1.356 . S
N499 H504 0.984 . S
N499 H505 0.985 . S
C500 C494 1.379 . S
C500 C497 1.363 . S
C500 N498 1.356 . S
C501 C495 1.363 . S
C501 C496 1.379 . S
C501 N499 1.356 . S
N502 C494 1.356 . S
N502 H508 0.984 . S
N502 H509 0.984 . S
N503 C496 1.356 . S
N503 H506 0.984 . S
N503 H507 0.985 . S
H504 N499 0.984 . S
H505 N499 0.985 . S
H506 N503 0.984 . S
H507 N503 0.985 . S
H508 N502 0.984 . S
H509 N502 0.984 . S
H510 N498 0.984 . S
H511 N498 0.985 . S
C512 C513 1.363 . S
C512 C518 1.379 . S
C512 N520 1.356 . S
C513 C512 1.363 . S
C513 C519 1.363 . S
C514 C515 1.363 . S
C514 C519 1.379 . S
C514 N521 1.356 . S
C515 C514 1.363 . S
C515 C518 1.363 . S
N516 C518 1.356 . S
N516 H528 0.984 . S
N516 H529 0.985 . S
N517 C519 1.356 . S
N517 H522 0.984 1_554 S
N517 H523 0.985 . S
C518 C512 1.379 . S
C518 C515 1.363 . S
C518 N516 1.356 . S
C519 C513 1.363 . S
C519 C514 1.379 . S
C519 N517 1.356 . S
N520 C512 1.356 . S
N520 H526 0.984 . S
N520 H527 0.984 . S
N521 C514 1.356 . S
N521 H524 0.984 . S
N521 H525 0.985 . S
H522 N517 0.984 1_556 S
H523 N517 0.985 . S
H524 N521 0.984 . S
H525 N521 0.985 . S
H526 N520 0.984 . S
H527 N520 0.984 . S
H528 N516 0.984 . S
H529 N516 0.985 . S
C530 C531 1.363 . S
C530 C536 1.379 . S
C530 N538 1.356 . S
C531 C530 1.363 . S
C531 C537 1.363 . S
C532 C533 1.363 . S
C532 C537 1.379 . S
C532 N539 1.356 . S
C533 C532 1.363 . S
C533 C536 1.363 . S
N534 C536 1.356 . S
N534 H546 0.984 . S
N534 H547 0.985 . S
N535 C537 1.356 . S
N535 H540 0.984 . S
N535 H541 0.985 . S
C536 C530 1.379 . S
C536 C533 1.363 . S
C536 N534 1.356 . S
C537 C531 1.363 . S
C537 C532 1.379 . S
C537 N535 1.356 . S
N538 C530 1.356 . S
N538 H544 0.984 . S
N538 H545 0.984 . S
N539 C532 1.356 . S
N539 H542 0.984 . S
N539 H543 0.985 . S
H540 N535 0.984 . S
H541 N535 0.985 . S
H542 N539 0.984 . S
H543 N539 0.985 . S
H544 N538 0.984 . S
H545 N538 0.984 . S
H546 N534 0.984 . S
H547 N534 0.985 . S
C548 C549 1.363 . S
C548 C554 1.379 . S
C548 N556 1.356 . S
C549 C548 1.363 . S
C549 C555 1.363 . S
C550 C551 1.363 . S
C550 C555 1.379 . S
C550 N557 1.356 . S
C551 C550 1.363 . S
C551 C554 1.363 . S
N552 C554 1.356 1_556 S
N552 H564 0.984 . S
N552 H565 0.985 . S
N553 C555 1.356 . S
N553 H558 0.984 . S
N553 H559 0.985 . S
C554 C548 1.379 . S
C554 C551 1.363 . S
C554 N552 1.356 1_554 S
C555 C549 1.363 . S
C555 C550 1.379 . S
C555 N553 1.356 . S
N556 C548 1.356 . S
N556 H562 0.984 . S
N556 H563 0.984 . S
N557 C550 1.356 . S
N557 H560 0.984 . S
N557 H561 0.985 . S
H558 N553 0.984 . S
H559 N553 0.985 . S
H560 N557 0.984 . S
H561 N557 0.985 . S
H562 N556 0.984 . S
H563 N556 0.984 . S
H564 N552 0.984 . S
H565 N552 0.985 . S
C566 C567 1.363 . S
C566 C572 1.379 . S
C566 N574 1.356 . S
C567 C566 1.363 . S
C567 C573 1.363 . S
C568 C569 1.363 . S
C568 C573 1.379 . S
C568 N575 1.356 . S
C569 C568 1.363 . S
C569 C572 1.363 . S
N570 C572 1.356 . S
N570 H582 0.984 . S
N570 H583 0.985 . S
N571 C573 1.356 . S
N571 H576 0.984 . S
N571 H577 0.985 . S
C572 C566 1.379 . S
C572 C569 1.363 . S
C572 N570 1.356 . S
C573 C567 1.363 . S
C573 C568 1.379 . S
C573 N571 1.356 . S
N574 C566 1.356 . S
N574 H580 0.984 . S
N574 H581 0.984 . S
N575 C568 1.356 . S
N575 H578 0.984 . S
N575 H579 0.985 . S
H576 N571 0.984 . S
H577 N571 0.985 . S
H578 N575 0.984 . S
H579 N575 0.985 . S
H580 N574 0.984 . S
H581 N574 0.984 . S
H582 N570 0.984 . S
H583 N570 0.985 . S
C584 C585 1.363 . S
C584 C590 1.379 . S
C584 N592 1.356 . S
C585 C584 1.363 . S
C585 C591 1.363 . S
C586 C587 1.363 . S
C586 C591 1.379 . S
C586 N593 1.356 1_556 S
C587 C586 1.363 . S
C587 C590 1.363 . S
N588 C590 1.356 . S
N588 H600 0.984 . S
N588 H601 0.985 . S
N589 C591 1.356 . S
N589 H594 0.984 . S
N589 H595 0.985 . S
C590 C584 1.379 . S
C590 C587 1.363 . S
C590 N588 1.356 . S
C591 C585 1.363 . S
C591 C586 1.379 . S
C591 N589 1.356 . S
N592 C584 1.356 . S
N592 H598 0.984 . S
N592 H599 0.984 . S
N593 C586 1.356 1_554 S
N593 H596 0.984 . S
N593 H597 0.985 . S
H594 N589 0.984 . S
H595 N589 0.985 . S
H596 N593 0.984 . S
H597 N593 0.985 . S
H598 N592 0.984 . S
H599 N592 0.984 . S
H600 N588 0.984 . S
H601 N588 0.985 . S
C602 C603 1.363 . S
C602 C608 1.379 . S
C602 N610 1.356 . S
C603 C602 1.363 . S
C603 C609 1.363 . S
C604 C605 1.363 . S
C604 C609 1.379 . S
C604 N611 1.356 . S
C605 C604 1.363 . S
C605 C608 1.363 . S
N606 C608 1.356 . S
N606 H618 0.984 . S
N606 H619 0.985 . S
N607 C609 1.356 . S
N607 H612 0.984 . S
N607 H613 0.985 . S
C608 C602 1.379 . S
C608 C605 1.363 . S
C608 N606 1.356 . S
C609 C603 1.363 . S
C609 C604 1.379 . S
C609 N607 1.356 . S
N610 C602 1.356 . S
N610 H616 0.984 . S
N610 H617 0.984 . S
N611 C604 1.356 . S
N611 H614 0.984 . S
N611 H615 0.985 . S
H612 N607 0.984 . S
H613 N607 0.985 . S
H614 N611 0.984 . S
H615 N611 0.985 . S
H616 N610 0.984 . S
H617 N610 0.984 . S
H618 N606 0.984 . S
H619 N606 0.985 . S
C620 C621 1.363 . S
C620 C626 1.379 . S
C620 N628 1.356 1_556 S
C621 C620 1.363 . S
C621 C627 1.363 . S
C622 C623 1.363 . S
C622 C627 1.379 . S
C622 N629 1.356 . S
C623 C622 1.363 . S
C623 C626 1.363 . S
N624 C626 1.356 . S
N624 H636 0.984 . S
N624 H637 0.985 . S
N625 C627 1.356 . S
N625 H630 0.984 . S
N625 H631 0.985 . S
C626 C620 1.379 . S
C626 C623 1.363 . S
C626 N624 1.356 . S
C627 C621 1.363 . S
C627 C622 1.379 . S
C627 N625 1.356 . S
N628 C620 1.356 1_554 S
N628 H634 0.984 . S
N628 H635 0.984 . S
N629 C622 1.356 . S
N629 H632 0.984 . S
N629 H633 0.985 . S
H630 N625 0.984 . S
H631 N625 0.985 . S
H632 N629 0.984 . S
H633 N629 0.985 . S
H634 N628 0.984 . S
H635 N628 0.984 . S
H636 N624 0.984 . S
H637 N624 0.985 . S
C638 C639 1.363 . S
C638 C644 1.379 . S
C638 N646 1.356 . S
C639 C638 1.363 . S
C639 C645 1.363 . S
C640 C641 1.363 . S
C640 C645 1.379 . S
C640 N647 1.356 . S
C641 C640 1.363 . S
C641 C644 1.363 . S
N642 C644 1.356 . S
N642 H654 0.984 . S
N642 H655 0.985 . S
N643 C645 1.356 . S
N643 H648 0.984 . S
N643 H649 0.985 . S
C644 C638 1.379 . S
C644 C641 1.363 . S
C644 N642 1.356 . S
C645 C639 1.363 . S
C645 C640 1.379 . S
C645 N643 1.356 . S
N646 C638 1.356 . S
N646 H652 0.984 . S
N646 H653 0.984 . S
N647 C640 1.356 . S
N647 H650 0.984 . S
N647 H651 0.985 . S
H648 N643 0.984 . S
H649 N643 0.985 . S
H650 N647 0.984 . S
H651 N647 0.985 . S
H652 N646 0.984 . S
H653 N646 0.984 . S
H654 N642 0.984 . S
H655 N642 0.985 . S
C656 C657 1.363 . S
C656 C662 1.379 . S
C656 N664 1.356 . S
C657 C656 1.363 . S
C657 C663 1.363 . S
C658 C659 1.363 . S
C658 C663 1.379 . S
C658 N665 1.356 . S
C659 C658 1.363 . S
C659 C662 1.363 . S
N660 C662 1.356 . S
N660 H672 0.984 . S
N660 H673 0.985 . S
N661 C663 1.356 . S
N661 H666 0.984 . S
N661 H667 0.985 . S
C662 C656 1.379 . S
C662 C659 1.363 . S
C662 N660 1.356 . S
C663 C657 1.363 . S
C663 C658 1.379 . S
C663 N661 1.356 . S
N664 C656 1.356 . S
N664 H670 0.984 . S
N664 H671 0.984 . S
N665 C658 1.356 . S
N665 H668 0.984 . S
N665 H669 0.985 . S
H666 N661 0.984 . S
H667 N661 0.985 . S
H668 N665 0.984 . S
H669 N665 0.985 . S
H670 N664 0.984 . S
H671 N664 0.984 . S
H672 N660 0.984 . S
H673 N660 0.985 . S
C674 C675 1.363 . S
C674 C680 1.379 . S
C674 N682 1.356 . S
C675 C674 1.363 . S
C675 C681 1.363 . S
C676 C677 1.363 . S
C676 C681 1.379 . S
C676 N683 1.356 . S
C677 C676 1.363 . S
C677 C680 1.363 . S
N678 C680 1.356 . S
N678 H690 0.984 . S
N678 H691 0.985 . S
N679 C681 1.356 . S
N679 H684 0.984 . S
N679 H685 0.985 . S
C680 C674 1.379 . S
C680 C677 1.363 . S
C680 N678 1.356 . S
C681 C675 1.363 . S
C681 C676 1.379 . S
C681 N679 1.356 . S
N682 C674 1.356 . S
N682 H688 0.984 . S
N682 H689 0.984 . S
N683 C676 1.356 . S
N683 H686 0.984 . S
N683 H687 0.985 . S
H684 N679 0.984 . S
H685 N679 0.985 . S
H686 N683 0.984 . S
H687 N683 0.985 . S
H688 N682 0.984 . S
H689 N682 0.984 . S
H690 N678 0.984 . S
H691 N678 0.985 . S
C692 C693 1.363 . S
C692 C698 1.379 . S
C692 N700 1.356 . S
C693 C692 1.363 . S
C693 C699 1.363 . S
C694 C695 1.363 . S
C694 C699 1.379 . S
C694 N701 1.356 . S
C695 C694 1.363 . S
C695 C698 1.363 . S
N696 C698 1.356 . S
N696 H708 0.984 . S
N696 H709 0.985 . S
N697 C699 1.356 . S
N697 H702 0.984 . S
N697 H703 0.985 . S
C698 C692 1.379 . S
C698 C695 1.363 . S
C698 N696 1.356 . S
C699 C693 1.363 . S
C699 C694 1.379 . S
C699 N697 1.356 . S
N700 C692 1.356 . S
N700 H706 0.984 . S
N700 H707 0.984 . S
N701 C694 1.356 . S
N701 H704 0.984 . S
N701 H705 0.985 . S
H702 N697 0.984 . S
H703 N697 0.985 . S
H704 N701 0.984 . S
H705 N701 0.985 . S
H706 N700 0.984 . S
H707 N700 0.984 . S
H708 N696 0.984 . S
H709 N696 0.985 . S
C710 C711 1.363 . S
C710 C716 1.379 . S
C710 N718 1.356 . S
C711 C710 1.363 . S
C711 C717 1.363 . S
C712 C713 1.363 . S
C712 C717 1.379 . S
C712 N719 1.356 . S
C713 C712 1.363 . S
C713 C716 1.363 . S
N714 C716 1.356 . S
N714 H726 0.984 . S
N714 H727 0.985 . S
N715 C717 1.356 . S
N715 H720 0.984 . S
N715 H721 0.985 . S
C716 C710 1.379 . S
C716 C713 1.363 . S
C716 N714 1.356 . S
C717 C711 1.363 . S
C717 C712 1.379 . S
C717 N715 1.356 . S
N718 C710 1.356 . S
N718 H724 0.984 . S
N718 H725 0.984 . S
N719 C712 1.356 . S
N719 H722 0.984 . S
N719 H723 0.985 . S
H720 N715 0.984 . S
H721 N715 0.985 . S
H722 N719 0.984 . S
H723 N719 0.985 . S
H724 N718 0.984 . S
H725 N718 0.984 . S
H726 N714 0.984 . S
H727 N714 0.985 . S
C728 C729 1.363 . S
C728 C734 1.379 . S
C728 N736 1.356 . S
C729 C728 1.363 . S
C729 C735 1.363 . S
C730 C731 1.363 . S
C730 C735 1.379 . S
C730 N737 1.356 . S
C731 C730 1.363 . S
C731 C734 1.363 . S
N732 C734 1.356 . S
N732 H744 0.984 . S
N732 H745 0.985 . S
N733 C735 1.356 . S
N733 H738 0.984 . S
N733 H739 0.985 . S
C734 C728 1.379 . S
C734 C731 1.363 . S
C734 N732 1.356 . S
C735 C729 1.363 . S
C735 C730 1.379 . S
C735 N733 1.356 . S
N736 C728 1.356 . S
N736 H742 0.984 . S
N736 H743 0.984 . S
N737 C730 1.356 . S
N737 H740 0.984 . S
N737 H741 0.985 . S
H738 N733 0.984 . S
H739 N733 0.985 . S
H740 N737 0.984 . S
H741 N737 0.985 . S
H742 N736 0.984 . S
H743 N736 0.984 . S
H744 N732 0.984 . S
H745 N732 0.985 . S
C746 C747 1.363 . S
C746 C752 1.379 . S
C746 N754 1.356 . S
C747 C746 1.363 . S
C747 C753 1.363 . S
C748 C749 1.363 . S
C748 C753 1.379 . S
C748 N755 1.356 . S
C749 C748 1.363 . S
C749 C752 1.363 . S
N750 C752 1.356 . S
N750 H762 0.984 . S
N750 H763 0.985 . S
N751 C753 1.356 . S
N751 H756 0.984 . S
N751 H757 0.985 . S
C752 C746 1.379 . S
C752 C749 1.363 . S
C752 N750 1.356 . S
C753 C747 1.363 . S
C753 C748 1.379 . S
C753 N751 1.356 . S
N754 C746 1.356 . S
N754 H760 0.984 . S
N754 H761 0.984 . S
N755 C748 1.356 . S
N755 H758 0.984 . S
N755 H759 0.985 . S
H756 N751 0.984 . S
H757 N751 0.985 . S
H758 N755 0.984 . S
H759 N755 0.985 . S
H760 N754 0.984 . S
H761 N754 0.984 . S
H762 N750 0.984 . S
H763 N750 0.985 . S
C764 C765 1.363 . S
C764 C770 1.379 . S
C764 N772 1.356 . S
C765 C764 1.363 . S
C765 C771 1.363 . S
C766 C767 1.363 . S
C766 C771 1.379 . S
C766 N773 1.356 . S
C767 C766 1.363 . S
C767 C770 1.363 . S
N768 C770 1.356 . S
N768 H780 0.984 . S
N768 H781 0.985 . S
N769 C771 1.356 . S
N769 H774 0.984 . S
N769 H775 0.985 . S
C770 C764 1.379 . S
C770 C767 1.363 . S
C770 N768 1.356 . S
C771 C765 1.363 . S
C771 C766 1.379 . S
C771 N769 1.356 . S
N772 C764 1.356 . S
N772 H778 0.984 . S
N772 H779 0.984 . S
N773 C766 1.356 . S
N773 H776 0.984 . S
N773 H777 0.985 . S
H774 N769 0.984 . S
H775 N769 0.985 . S
H776 N773 0.984 . S
H777 N773 0.985 . S
H778 N772 0.984 . S
H779 N772 0.984 . S
H780 N768 0.984 . S
H781 N768 0.985 . S
C782 C783 1.363 . S
C782 C788 1.379 . S
C782 N790 1.356 . S
C783 C782 1.363 . S
C783 C789 1.363 . S
C784 C785 1.363 . S
C784 C789 1.379 . S
C784 N791 1.356 . S
C785 C784 1.363 . S
C785 C788 1.363 . S
N786 C788 1.356 . S
N786 H798 0.984 . S
N786 H799 0.985 . S
N787 C789 1.356 . S
N787 H792 0.984 . S
N787 H793 0.985 . S
C788 C782 1.379 . S
C788 C785 1.363 . S
C788 N786 1.356 . S
C789 C783 1.363 . S
C789 C784 1.379 . S
C789 N787 1.356 . S
N790 C782 1.356 . S
N790 H796 0.984 . S
N790 H797 0.984 . S
N791 C784 1.356 . S
N791 H794 0.984 . S
N791 H795 0.985 . S
H792 N787 0.984 . S
H793 N787 0.985 . S
H794 N791 0.984 . S
H795 N791 0.985 . S
H796 N790 0.984 . S
H797 N790 0.984 . S
H798 N786 0.984 . S
H799 N786 0.985 . S
C225 C6 1.126 . S
C227 C62 1.126 . S
C243 C76 1.126 . S
C245 C20 1.126 . S
C261 C34 1.126 . S
C263 C90 1.126 . S
C279 C48 1.126 . S
C281 C104 1.126 . S
C297 C118 1.126 . S
C299 C174 1.126 . S
C315 C188 1.126 . S
C317 C132 1.126 . S
C333 C146 1.126 . S
C335 C202 1.126 . S
C351 C160 1.126 . S
C353 C216 1.126 . S
C369 C8 1.702 1_556 S
C371 C219 1.681 . S
C387 C177 1.681 . S
C389 C22 1.702 . S
C405 C36 1.702 1_556 S
C407 C191 1.681 . S
C423 C205 1.681 . S
C425 C50 1.702 . S
C441 C135 1.681 . S
C443 C64 1.702 1_554 S
C459 C149 1.681 . S
C461 C78 1.702 . S
C477 C163 1.681 . S
C479 C92 1.702 1_554 S
C495 C121 1.681 . S
C497 C106 1.702 . S
C513 C120 1.702 1_554 S
C515 C107 1.681 . S
C531 C65 1.681 . S
C533 C134 1.702 . S
C549 C79 1.681 . S
C551 C148 1.702 1_554 S
C567 C162 1.702 . S
C569 C93 1.681 . S
C585 C23 1.681 . S
C587 C176 1.702 1_556 S
C603 C190 1.702 . S
C605 C37 1.681 . S
C621 C204 1.702 1_556 S
C623 C51 1.681 . S
C639 C218 1.702 . S
C641 C9 1.681 . S
C657 C105 1.365 . S
C659 C7 1.365 . S
C675 C21 1.365 . S
C677 C63 1.365 . S
C693 C35 1.365 . S
C695 C77 1.365 . S
C711 C49 1.365 . S
C713 C91 1.365 . S
C729 C217 1.365 . S
C731 C119 1.365 . S
C747 C175 1.365 . S
C749 C133 1.365 . S
C765 C189 1.365 . S
C767 C147 1.365 . S
C783 C203 1.365 . S
C785 C161 1.365 . S
