# Generated by pormake.
# Topology ukf, (4)-cn, num edge types: 1
# Building blocks:
#     Node 0, Type 0, BuildingBlock: QUQFOY_clean_sbu_3, # of connection points: 4
#     Node 1, Type 0, BuildingBlock: QUQFOY_clean_sbu_3, # of connection points: 4
#     Node 2, Type 0, BuildingBlock: QUQFOY_clean_sbu_3, # of connection points: 4
#     Node 3, Type 0, BuildingBlock: QUQFOY_clean_sbu_3, # of connection points: 4
#     Node 4, Type 0, BuildingBlock: QUQFOY_clean_sbu_3, # of connection points: 4
#     Node 5, Type 0, BuildingBlock: QUQFOY_clean_sbu_3, # of connection points: 4
#     Node 6, Type 0, BuildingBlock: QUQFOY_clean_sbu_3, # of connection points: 4
#     Node 7, Type 0, BuildingBlock: QUQFOY_clean_sbu_3, # of connection points: 4
#     Node 8, Type 0, BuildingBlock: QUQFOY_clean_sbu_3, # of connection points: 4
#     Node 9, Type 0, BuildingBlock: QUQFOY_clean_sbu_3, # of connection points: 4
#     Node 10, Type 0, BuildingBlock: QUQFOY_clean_sbu_3, # of connection points: 4
#     Node 11, Type 0, BuildingBlock: QUQFOY_clean_sbu_3, # of connection points: 4
#     Edge 12, Type (0, 0), BuildingBlock: AJUNOK_clean_linker_0, # of connection points: 2
#     Edge 13, Type (0, 0), BuildingBlock: AJUNOK_clean_linker_0, # of connection points: 2
#     Edge 14, Type (0, 0), BuildingBlock: AJUNOK_clean_linker_0, # of connection points: 2
#     Edge 15, Type (0, 0), BuildingBlock: AJUNOK_clean_linker_0, # of connection points: 2
#     Edge 16, Type (0, 0), BuildingBlock: AJUNOK_clean_linker_0, # of connection points: 2
#     Edge 17, Type (0, 0), BuildingBlock: AJUNOK_clean_linker_0, # of connection points: 2
#     Edge 18, Type (0, 0), BuildingBlock: AJUNOK_clean_linker_0, # of connection points: 2
#     Edge 19, Type (0, 0), BuildingBlock: AJUNOK_clean_linker_0, # of connection points: 2
#     Edge 20, Type (0, 0), BuildingBlock: AJUNOK_clean_linker_0, # of connection points: 2
#     Edge 21, Type (0, 0), BuildingBlock: AJUNOK_clean_linker_0, # of connection points: 2
#     Edge 22, Type (0, 0), BuildingBlock: AJUNOK_clean_linker_0, # of connection points: 2
#     Edge 23, Type (0, 0), BuildingBlock: AJUNOK_clean_linker_0, # of connection points: 2
#     Edge 24, Type (0, 0), BuildingBlock: AJUNOK_clean_linker_0, # of connection points: 2
#     Edge 25, Type (0, 0), BuildingBlock: AJUNOK_clean_linker_0, # of connection points: 2
#     Edge 26, Type (0, 0), BuildingBlock: AJUNOK_clean_linker_0, # of connection points: 2
#     Edge 27, Type (0, 0), BuildingBlock: AJUNOK_clean_linker_0, # of connection points: 2
#     Edge 28, Type (0, 0), BuildingBlock: AJUNOK_clean_linker_0, # of connection points: 2
#     Edge 29, Type (0, 0), BuildingBlock: AJUNOK_clean_linker_0, # of connection points: 2
#     Edge 30, Type (0, 0), BuildingBlock: AJUNOK_clean_linker_0, # of connection points: 2
#     Edge 31, Type (0, 0), BuildingBlock: AJUNOK_clean_linker_0, # of connection points: 2
#     Edge 32, Type (0, 0), BuildingBlock: AJUNOK_clean_linker_0, # of connection points: 2
#     Edge 33, Type (0, 0), BuildingBlock: AJUNOK_clean_linker_0, # of connection points: 2
#     Edge 34, Type (0, 0), BuildingBlock: AJUNOK_clean_linker_0, # of connection points: 2
#     Edge 35, Type (0, 0), BuildingBlock: AJUNOK_clean_linker_0, # of connection points: 2
# Relax obj value: 0.130
# Max RMSD: 0.097
# Mean RMSD: 0.097
data_MOF--net-ukf--node1-QUQFOY_clean_sbu_3--edge1-AJUNOK_clean_linker_0
_symmetry_space_group_name_H-M    P1
_symmetry_Int_Tables_number       1
_symmetry_cell_setting            triclinic
loop_
_symmetry_equiv_pos_as_xyz
'x, y, z'
_cell_length_a     23.807794
_cell_length_b     23.878994
_cell_length_c     51.922383
_cell_angle_alpha  89.929235
_cell_angle_beta   90.110651
_cell_angle_gamma 120.00091
loop_
_atom_site_label
_atom_site_type_symbol
_atom_site_fract_x
_atom_site_fract_y
_atom_site_fract_z
_atom_type_partial_charge
C0 C 0.25622 0.1217 0.00639 0.0
O1 O 0.27678 0.16432 0.98882 0.0
Cd2 Cd 0.3774 0.26358 -0.00749 0.0
O3 O 0.28773 0.13223 0.02734 0.0
Cd4 Cd 0.38541 0.22081 0.04742 0.0
C5 C 0.48274 0.20778 0.00457 0.0
O6 O 0.38238 0.31639 0.03243 0.0
O7 O 0.4747 0.33023 0.04544 0.0
O8 O 0.33042 0.2026 0.08916 0.0
C9 C 0.4409 0.35506 0.03863 0.0
O10 O 0.46472 0.23754 0.98924 0.0
C11 C 0.37634 0.2028 0.10173 0.0
O12 O 0.45703 0.19011 0.0267 0.0
O13 O 0.42401 0.20813 0.08887 0.0
C14 C 0.12427 0.25587 0.33807 0.0
O15 O 0.1008 0.27697 0.32123 0.0
Cd16 Cd 0.10176 0.37698 0.32715 0.0
O17 O 0.14604 0.28617 0.35917 0.0
Cd18 Cd 0.15536 0.38175 0.38081 0.0
C19 C 0.26355 0.48125 0.33792 0.0
O20 O 0.05582 0.38075 0.36791 0.0
O21 O 0.13567 0.47126 0.38144 0.0
O22 O 0.11959 0.32336 0.42173 0.0
C23 C 0.07644 0.43856 0.37521 0.0
O24 O 0.21485 0.46413 0.32314 0.0
C25 C 0.16669 0.36689 0.43452 0.0
O26 O 0.25676 0.45451 0.35977 0.0
O27 O 0.2091 0.41539 0.42208 0.0
C28 C 0.83698 0.11845 0.668 0.0
O29 O 0.79184 0.0996 0.65144 0.0
Cd30 Cd 0.69023 0.09473 0.66 0.0
O31 O 0.82977 0.13594 0.69029 0.0
Cd32 Cd 0.7488 0.14781 0.71473 0.0
C33 C 0.7432 0.25382 0.67378 0.0
O34 O 0.65187 0.04954 0.70168 0.0
O35 O 0.63767 0.12401 0.71887 0.0
O36 O 0.75866 0.10254 0.75542 0.0
C37 C 0.61314 0.06631 0.71085 0.0
O38 O 0.70853 0.20513 0.65952 0.0
C39 C 0.7828 0.15545 0.7677 0.0
O40 O 0.76976 0.24855 0.69422 0.0
O41 O 0.79347 0.20545 0.75513 0.0
C42 C 0.72599 0.86248 0.00258 0.0
O43 O 0.70466 0.81912 0.9853 0.0
Cd44 Cd 0.6047 0.71982 0.99008 0.0
O45 O 0.69541 0.85305 0.02369 0.0
Cd46 Cd 0.59898 0.76667 0.04529 0.0
C47 C 0.49928 0.77578 0.00199 0.0
O48 O 0.60494 0.67268 0.0309 0.0
O49 O 0.51316 0.65495 0.04609 0.0
O50 O 0.65774 0.79092 0.0864 0.0
C51 C 0.54826 0.63227 0.0385 0.0
O52 O 0.51765 0.74629 0.98676 0.0
C53 C 0.613 0.79241 0.09912 0.0
O54 O 0.52428 0.7931 0.02427 0.0
O55 O 0.56365 0.78418 0.08658 0.0
C56 C 0.84694 0.71479 0.33971 0.0
O57 O 0.87076 0.69224 0.3237 0.0
Cd58 Cd 0.88062 0.59845 0.33141 0.0
O59 O 0.82706 0.68791 0.36157 0.0
Cd60 Cd 0.81873 0.59399 0.38456 0.0
C61 C 0.72033 0.48861 0.34057 0.0
O62 O 0.92258 0.60307 0.37357 0.0
O63 O 0.84719 0.50981 0.38667 0.0
O64 O 0.84559 0.6487 0.4266 0.0
C65 C 0.90627 0.54628 0.38089 0.0
O66 O 0.77198 0.5035 0.32811 0.0
C67 C 0.79764 0.60248 0.43802 0.0
O68 O 0.72155 0.51954 0.36069 0.0
O69 O 0.75839 0.55512 0.42421 0.0
C70 C 0.10497 0.85585 0.67315 0.0
O71 O 0.14946 0.87981 0.65633 0.0
Cd72 Cd 0.24753 0.87654 0.66175 0.0
O73 O 0.11346 0.8331 0.69402 0.0
Cd74 Cd 0.19861 0.82197 0.71602 0.0
C75 C 0.18536 0.71369 0.67217 0.0
O76 O 0.29673 0.92065 0.70279 0.0
O77 O 0.308 0.84135 0.71648 0.0
O78 O 0.17493 0.85693 0.75701 0.0
C79 C 0.33427 0.9001 0.70984 0.0
O80 O 0.2167 0.76227 0.6574 0.0
C81 C 0.17217 0.81013 0.7697 0.0
O82 O 0.16834 0.72071 0.69458 0.0
O83 O 0.17931 0.7685 0.75721 0.0
C84 C 0.83975 0.7173 0.64607 0.0
O85 O 0.79464 0.69532 0.66266 0.0
Cd86 Cd 0.69223 0.5988 0.65622 0.0
O87 O 0.83187 0.6881 0.62472 0.0
Cd88 Cd 0.7469 0.59146 0.60305 0.0
C89 C 0.74396 0.48962 0.64789 0.0
O90 O 0.65248 0.60086 0.61418 0.0
O91 O 0.63409 0.50721 0.60149 0.0
O92 O 0.77526 0.64712 0.56125 0.0
C93 C 0.61179 0.54397 0.60703 0.0
O94 O 0.70811 0.50542 0.66048 0.0
C95 C 0.77511 0.60052 0.54943 0.0
O96 O 0.77188 0.51893 0.62723 0.0
O97 O 0.76566 0.55218 0.56287 0.0
C98 C 0.12068 0.85648 0.97999 0.0
O99 O 0.09911 0.81132 -0.00349 0.0
Cd100 Cd 0.10011 0.71294 0.98879 0.0
O101 O 0.14019 0.84882 0.95819 0.0
Cd102 Cd 0.14915 0.76483 0.93452 0.0
C103 C 0.2613 0.77251 0.97552 0.0
O104 O 0.0511 0.66602 0.94798 0.0
O105 O 0.12957 0.65596 0.9323 0.0
O106 O 0.11159 0.78881 0.89407 0.0
C107 C 0.07115 0.62919 0.93963 0.0
O108 O 0.2141 0.74016 0.99082 0.0
C109 C 0.15894 0.79371 0.88104 0.0
O110 O 0.2522 0.79279 0.95415 0.0
O111 O 0.20196 0.78774 0.89316 0.0
C112 C 0.25801 0.12515 0.30956 0.0
O113 O 0.27985 0.10068 0.32564 0.0
Cd114 Cd 0.37652 0.0947 0.31827 0.0
O115 O 0.287 0.1474 0.28826 0.0
Cd116 Cd 0.38349 0.16023 0.26625 0.0
C117 C 0.48529 0.25568 0.31162 0.0
O118 O 0.37897 0.05757 0.27578 0.0
O119 O 0.47151 0.13776 0.26426 0.0
O120 O 0.32963 0.13398 0.22414 0.0
C121 C 0.43733 0.07799 0.26912 0.0
O122 O 0.47042 0.20324 0.32338 0.0
C123 C 0.3745 0.18376 0.2131 0.0
O124 O 0.45506 0.25584 0.29142 0.0
O125 O 0.42105 0.22355 0.22715 0.0
C126 C 0.10205 0.25414 0.6413 0.0
O127 O 0.14492 0.27526 0.65885 0.0
Cd128 Cd 0.24281 0.37707 0.65471 0.0
O129 O 0.11191 0.2856 0.62043 0.0
Cd130 Cd 0.19876 0.38313 0.59996 0.0
C131 C 0.18355 0.47946 0.64247 0.0
O132 O 0.29547 0.38157 0.61472 0.0
O133 O 0.30863 0.47254 0.60066 0.0
O134 O 0.17861 0.32458 0.55921 0.0
C135 C 0.33391 0.43939 0.60778 0.0
O136 O 0.21391 0.46223 0.65786 0.0
C137 C 0.17682 0.36839 0.54597 0.0
O138 O 0.16656 0.45389 0.62029 0.0
O139 O 0.18303 0.41734 0.55804 0.0
C140 C 0.86113 0.12718 0.97615 0.0
O141 O 0.88339 0.1719 -0.00714 0.0
Cd142 Cd 0.88155 0.27021 0.98657 0.0
O143 O 0.83971 0.13492 0.95475 0.0
Cd144 Cd 0.82548 0.21617 0.93116 0.0
C145 C 0.71886 0.21131 0.97492 0.0
O146 O 0.92314 0.31236 0.94465 0.0
O147 O 0.84752 0.32671 0.92835 0.0
O148 O 0.86868 0.21047 0.88929 0.0
C149 C 0.90546 0.35115 0.93634 0.0
O150 O 0.76727 0.24056 0.99003 0.0
C151 C 0.81404 0.18282 0.87804 0.0
O152 O 0.72575 0.19444 0.95245 0.0
O153 O 0.76457 0.16955 0.89157 0.0
C154 C 0.71853 0.85043 0.30847 0.0
O155 O 0.69861 0.87592 0.32484 0.0
Cd156 Cd 0.60043 0.87825 0.31846 0.0
O157 O 0.68851 0.82895 0.28724 0.0
Cd158 Cd 0.59521 0.82272 0.26397 0.0
C159 C 0.49533 0.71644 0.30761 0.0
O160 O 0.60156 0.92382 0.27705 0.0
O161 O 0.50977 0.84941 0.26199 0.0
O162 O 0.65591 0.85534 0.22334 0.0
C163 C 0.54505 0.90757 0.26906 0.0
O164 O 0.51396 0.76507 0.32244 0.0
C165 C 0.61129 0.80935 0.21048 0.0
O166 O 0.51957 0.72283 0.28527 0.0
O167 O 0.56116 0.76908 0.22276 0.0
C168 C 0.15519 0.97022 0.96827 0.0
C169 C 0.13479 0.92211 0.98737 0.0
C170 C 0.1886 0.03579 0.97477 0.0
C171 C 0.2032 0.05551 0.00061 0.0
H172 H 0.14998 0.95741 0.94805 0.0
H173 H 0.20809 0.07082 0.95928 0.0
S174 S 0.14399 0.94901 0.05805 0.0
N175 N 0.11894 0.89879 0.03334 0.0
N176 N 0.18229 0.02237 0.04552 0.0
C177 C 0.17534 0.00815 0.01996 0.0
C178 C 0.14083 0.94124 0.01334 0.0
C179 C 0.14631 0.19359 0.30522 0.0
C180 C 0.13847 0.20414 0.33127 0.0
C181 C 0.1797 0.16163 0.29823 0.0
C182 C 0.20594 0.13865 0.31703 0.0
H183 H 0.13198 0.21519 0.29009 0.0
H184 H 0.18927 0.15943 0.27797 0.0
S185 S 0.18166 0.13771 0.38768 0.0
N186 N 0.14706 0.17721 0.37575 0.0
N187 N 0.20952 0.11654 0.36264 0.0
C188 C 0.1904 0.14093 0.343 0.0
C189 C 0.15676 0.17397 0.35013 0.0
C190 C 0.95095 0.1515 0.67938 0.0
C191 C 0.90248 0.13202 0.66036 0.0
C192 C 0.01664 0.18503 0.67281 0.0
C193 C 0.03608 0.20047 0.64701 0.0
H194 H 0.93837 0.14571 0.69963 0.0
H195 H 0.05194 0.20405 0.68827 0.0
S196 S 0.92867 0.14254 0.58965 0.0
N197 N 0.87855 0.11712 0.61442 0.0
N198 N 0.00238 0.18044 0.6021 0.0
C199 C -0.01162 0.173 0.62768 0.0
C200 C 0.92134 0.13854 0.63436 0.0
C201 C 0.79135 0.94782 0.97048 0.0
C202 C 0.7791 0.92821 -0.00362 0.0
C203 C 0.82493 0.01338 0.96396 0.0
C204 C 0.84772 0.06151 0.98311 0.0
H205 H 0.76981 0.91281 0.95506 0.0
H206 H 0.82819 0.02623 0.94378 0.0
S207 S 0.84543 0.03437 0.05364 0.0
N208 N 0.80491 0.96109 0.04115 0.0
N209 N 0.86861 0.08466 0.02895 0.0
C210 C 0.84414 0.04229 0.00899 0.0
C211 C 0.80947 0.97541 0.01562 0.0
C212 C 0.7769 0.82546 0.34229 0.0
C213 C 0.76842 0.83403 0.31606 0.0
C214 C 0.80799 0.79162 0.34994 0.0
C215 C 0.83222 0.76563 0.33164 0.0
H216 H 0.75461 0.83999 0.35703 0.0
H217 H 0.80891 0.78196 0.37028 0.0
S218 S 0.8376 0.79049 0.26084 0.0
N219 N 0.79767 0.82529 0.27202 0.0
N220 N 0.85695 0.7622 0.28633 0.0
C221 C 0.83141 0.78123 0.30552 0.0
C222 C 0.79918 0.81525 0.29772 0.0
C223 C 0.95375 0.79573 0.63379 0.0
C224 C 0.90531 0.7705 0.65287 0.0
C225 C 0.01941 0.83081 0.64043 0.0
C226 C 0.03881 0.84132 0.66638 0.0
H227 H 0.94128 0.7841 0.61367 0.0
H228 H 0.05491 0.84413 0.62519 0.0
S229 S 0.9312 0.80212 0.72313 0.0
N230 N 0.88116 0.7711 0.69844 0.0
N231 N 0.00496 0.83658 0.71085 0.0
C232 C -0.00903 0.82418 0.68539 0.0
C233 C 0.92399 0.78886 0.67862 0.0
C234 C 0.61246 0.20243 0.96418 0.0
C235 C 0.65497 0.20162 0.98284 0.0
C236 C 0.55551 0.20196 0.97134 0.0
C237 C 0.53829 0.19938 -0.0026 0.0
H238 H 0.62467 0.20647 0.94392 0.0
H239 H 0.52557 0.20521 0.95634 0.0
S240 S 0.62973 0.18917 0.05356 0.0
N241 N 0.67373 0.19319 0.02834 0.0
N242 N 0.5662 0.19112 0.04187 0.0
C243 C 0.57856 0.19475 0.01619 0.0
C244 C 0.63707 0.19628 0.00889 0.0
C245 C 0.34049 0.55455 0.30443 0.0
C246 C 0.32721 0.53666 0.33049 0.0
C247 C 0.3968 0.61128 0.2971 0.0
C248 C 0.44123 0.65289 0.31562 0.0
H249 H 0.30639 0.52528 0.28957 0.0
H250 H 0.40399 0.62406 0.27687 0.0
S251 S 0.43232 0.62566 0.38617 0.0
N252 N 0.36593 0.56291 0.37473 0.0
N253 N 0.47103 0.67022 0.36088 0.0
C254 C 0.43003 0.6344 0.34162 0.0
C255 C 0.37327 0.57604 0.34908 0.0
C256 C 0.68919 0.31883 0.66934 0.0
C257 C 0.74626 0.31543 0.668 0.0
C258 C 0.68968 0.37637 0.66368 0.0
C259 C 0.74694 0.43186 0.65578 0.0
H260 H 0.64385 0.27667 0.67488 0.0
H261 H 0.64445 0.37682 0.66473 0.0
S262 S 0.90941 0.44767 0.64965 0.0
N263 N 0.86183 0.37219 0.65916 0.0
N264 N 0.86242 0.48013 0.6473 0.0
C265 C 0.80446 0.42905 0.6544 0.0
C266 C 0.80423 0.37081 0.66087 0.0
C267 C 0.34278 0.77954 0.00767 0.0
C268 C 0.32615 0.782 0.98186 0.0
C269 C 0.40074 0.78111 0.01405 0.0
C270 C 0.44359 0.78381 -0.00518 0.0
H271 H 0.31013 0.77501 0.02308 0.0
H272 H 0.41048 0.77713 0.03416 0.0
S273 S 0.42527 0.79611 0.92444 0.0
N274 N 0.35956 0.79181 0.93699 0.0
N275 N 0.46781 0.79331 0.94905 0.0
C276 C 0.42885 0.78875 0.969 0.0
C277 C 0.37036 0.78832 0.9625 0.0
C278 C 0.60216 0.31574 0.32254 0.0
C279 C 0.54345 0.31564 0.31962 0.0
C280 C 0.65948 0.37258 0.32877 0.0
C281 C 0.65951 0.43066 0.33305 0.0
H282 H 0.60403 0.27182 0.31945 0.0
H283 H 0.70392 0.37084 0.33069 0.0
S284 S 0.5181 0.4554 0.32827 0.0
N285 N 0.48852 0.37819 0.32116 0.0
N286 N 0.59611 0.4848 0.33427 0.0
C287 C 0.60096 0.43105 0.33062 0.0
C288 C 0.54287 0.37351 0.32348 0.0
C289 C 0.1762 0.55112 0.67571 0.0
C290 C 0.1737 0.53398 0.64965 0.0
C291 C 0.17609 0.60759 0.68289 0.0
C292 C 0.17475 0.64969 0.66424 0.0
H293 H 0.18012 0.52164 0.6907 0.0
H294 H 0.18045 0.61993 0.70315 0.0
S295 S 0.16112 0.62396 0.59358 0.0
N296 N 0.16402 0.56108 0.60521 0.0
N297 N 0.16521 0.66789 0.6188 0.0
C298 C 0.16904 0.63167 0.63822 0.0
C299 C 0.16803 0.57359 0.63089 0.0
C300 C 0.31753 0.16447 0.14364 0.0
C301 C 0.37605 0.19993 0.13009 0.0
C302 C 0.31715 0.16004 0.1706 0.0
C303 C 0.3751 0.1924 0.18489 0.0
H304 H 0.27197 0.13876 0.13331 0.0
H305 H 0.27122 0.13094 0.1803 0.0
S306 S 0.54067 0.295 0.15838 0.0
N307 N 0.49299 0.26973 0.13283 0.0
N308 N 0.49229 0.26288 0.18341 0.0
C309 C 0.43367 0.22964 0.17152 0.0
C310 C 0.43414 0.23296 0.14413 0.0
C311 C 0.20062 0.42299 0.47665 0.0
C312 C 0.16959 0.3646 0.46283 0.0
C313 C 0.20146 0.42339 0.50354 0.0
C314 C 0.17259 0.3654 0.51765 0.0
H315 H 0.22341 0.46897 0.46663 0.0
H316 H 0.22579 0.46963 0.51334 0.0
S317 S 0.08631 0.19943 0.49066 0.0
N318 N 0.10925 0.24716 0.46513 0.0
N319 N 0.11267 0.24789 0.51593 0.0
C320 C 0.14216 0.30653 0.50413 0.0
C321 C 0.1401 0.30614 0.47664 0.0
C322 C 0.85453 0.21886 0.83354 0.0
C323 C 0.80875 0.17138 0.85008 0.0
C324 C 0.84651 0.21285 0.80675 0.0
C325 C 0.79368 0.15816 0.7957 0.0
H326 H 0.89527 0.26227 0.84136 0.0
H327 H 0.88147 0.25154 0.79463 0.0
S328 S 0.66303 0.01826 0.83072 0.0
N329 N 0.71018 0.06712 0.85366 0.0
N330 N 0.69653 0.05434 0.80323 0.0
C331 C 0.74923 0.10899 0.81202 0.0
C332 C 0.75636 0.11602 0.83928 0.0
C333 C 0.55679 0.77133 0.14121 0.0
C334 C 0.61534 0.7986 0.12742 0.0
C335 C 0.55639 0.77396 0.16808 0.0
C336 C 0.61452 0.80516 0.18221 0.0
H337 H 0.51067 0.74684 0.13121 0.0
H338 H 0.50995 0.75228 0.1778 0.0
S339 S 0.78101 0.88489 0.1553 0.0
N340 N 0.73315 0.85742 0.1298 0.0
N341 N 0.7324 0.86409 0.18051 0.0
C342 C 0.67357 0.83314 0.16872 0.0
C343 C 0.67398 0.82932 0.14126 0.0
C344 C 0.81489 0.65903 0.50746 0.0
C345 C 0.78128 0.6005 0.52113 0.0
C346 C 0.81998 0.65951 0.48051 0.0
C347 C 0.79013 0.60157 0.46631 0.0
H348 H 0.83805 0.70472 0.51766 0.0
H349 H 0.84707 0.70557 0.47074 0.0
S350 S 0.69476 0.43555 0.49303 0.0
N351 N 0.71711 0.48325 0.51849 0.0
N352 N 0.72536 0.48413 0.46798 0.0
C353 C 0.75561 0.54282 0.47978 0.0
C354 C 0.75157 0.54229 0.50716 0.0
C355 C 0.1944 0.7751 0.83864 0.0
C356 C 0.16178 0.80033 0.85277 0.0
C357 C 0.19611 0.77751 0.81177 0.0
C358 C 0.16655 0.80655 0.79799 0.0
H359 H 0.21796 0.75221 0.84837 0.0
H360 H 0.2218 0.75731 0.80174 0.0
S361 S 0.07565 0.88063 0.82582 0.0
N362 N 0.0988 0.85498 0.85108 0.0
N363 N 0.10396 0.86149 0.80031 0.0
C364 C 0.13434 0.83271 0.8118 0.0
C365 C 0.13136 0.82899 0.83927 0.0
C366 C 0.45499 0.51966 0.03875 0.0
C367 C 0.52237 0.56197 0.03714 0.0
C368 C 0.42888 0.45264 0.03848 0.0
C369 C 0.46931 0.42562 0.03703 0.0
H370 H 0.42201 0.53836 0.04033 0.0
H371 H 0.37679 0.42186 0.0401 0.0
S372 S 0.64878 0.51519 0.03131 0.0
N373 N 0.62885 0.5721 0.03303 0.0
N374 N 0.57979 0.44589 0.03289 0.0
C375 C 0.5367 0.46726 0.03495 0.0
C376 C 0.56324 0.53555 0.0349 0.0
C377 C 0.92573 0.45314 0.37878 0.0
C378 C 0.9509 0.52048 0.3791 0.0
C379 C 0.96667 0.42704 0.37696 0.0
C380 C 0.03427 0.46732 0.3758 0.0
H381 H 0.87391 0.42015 0.3798 0.0
H382 H 0.94519 0.37492 0.37692 0.0
S383 S 0.12454 0.64692 0.37561 0.0
N384 N 0.04756 0.62695 0.37768 0.0
N385 N 0.12476 0.57794 0.37459 0.0
C386 C 0.06015 0.53478 0.37598 0.0
C387 C 0.01837 0.56135 0.37754 0.0
C388 C 0.50091 0.04897 0.71141 0.0
C389 C 0.54237 0.02295 0.70997 0.0
C390 C 0.43349 0.0089 0.71077 0.0
C391 C 0.4053 0.94143 0.70915 0.0
H392 H 0.5206 0.10072 0.71292 0.0
H393 H 0.40331 0.03088 0.71207 0.0
S394 S 0.49256 0.84933 0.70446 0.0
N395 N 0.55054 0.92572 0.70633 0.0
N396 N 0.42373 0.85023 0.70552 0.0
C397 C 0.44617 0.91478 0.70755 0.0
C398 C 0.51479 0.95562 0.70784 0.0
C399 C 0.49838 0.45184 0.60777 0.0
C400 C 0.54137 0.51903 0.60791 0.0
C401 C 0.43127 0.42651 0.60831 0.0
C402 C 0.40478 0.46745 0.60861 0.0
H403 H 0.51659 0.41838 0.60729 0.0
H404 H 0.39998 0.37446 0.60798 0.0
S405 S 0.49638 0.64696 0.60977 0.0
N406 N 0.55283 0.62611 0.609 0.0
N407 N 0.42643 0.57846 0.60969 0.0
C408 C 0.44715 0.53476 0.60898 0.0
C409 C 0.51555 0.56057 0.60873 0.0
C410 C 0.96209 0.52996 0.93912 0.0
C411 C 0.02991 0.55831 0.93971 0.0
C412 C 0.92209 0.46275 0.93792 0.0
C413 C 0.94859 0.42167 0.93776 0.0
H414 H 0.93976 0.5599 0.93908 0.0
H415 H 0.87004 0.44288 0.93725 0.0
S416 S 0.12329 0.47189 0.93989 0.0
N417 N 0.12196 0.54032 0.94051 0.0
N418 N 0.04663 0.41394 0.93866 0.0
C419 C 0.01629 0.44937 0.9388 0.0
C420 C 0.05702 0.51776 0.93965 0.0
C421 C 0.45192 0.92753 0.26755 0.0
C422 C 0.51923 0.95229 0.26967 0.0
C423 C 0.42578 0.96853 0.26773 0.0
C424 C 0.46607 0.03583 0.26963 0.0
H425 H 0.41895 0.87597 0.26583 0.0
H426 H 0.37371 0.94736 0.26599 0.0
S427 S 0.6455 0.12504 0.27609 0.0
N428 N 0.62559 0.04829 0.2742 0.0
N429 N 0.57657 0.1256 0.27422 0.0
C430 C 0.53348 0.06132 0.27187 0.0
C431 C 0.56004 0.01947 0.272 0.0
loop_
_geom_bond_atom_site_label_1
_geom_bond_atom_site_label_2
_geom_bond_distance
_geom_bond_site_symmetry_2
_ccdc_geom_bond_type
C0 O1 1.306 . S
C0 O3 1.160 . S
O1 C0 1.306 . S
O1 Cd2 2.228 1_554 S
Cd2 O1 2.228 1_556 S
Cd2 O6 2.273 1_556 S
Cd2 O10 2.277 1_556 S
O3 C0 1.160 . S
O3 Cd4 2.203 . S
Cd4 O3 2.203 . S
Cd4 O6 2.411 . S
Cd4 O7 2.333 . S
Cd4 O8 2.352 . S
Cd4 O12 2.277 . S
Cd4 O13 2.356 . S
C5 O10 1.209 . S
C5 O12 1.226 . S
O6 Cd2 2.273 1_554 S
O6 Cd4 2.411 . S
O6 C9 1.320 . S
O7 Cd4 2.333 . S
O7 C9 1.214 . S
O8 Cd4 2.352 . S
O8 C11 1.258 . S
C9 O6 1.320 . S
C9 O7 1.214 . S
O10 Cd2 2.277 1_554 S
O10 C5 1.209 . S
C11 O8 1.258 . S
C11 O13 1.282 . S
O12 Cd4 2.277 . S
O12 C5 1.226 . S
O13 Cd4 2.356 . S
O13 C11 1.282 . S
C14 O15 1.306 . S
C14 O17 1.160 . S
O15 C14 1.306 . S
O15 Cd16 2.228 . S
Cd16 O15 2.228 . S
Cd16 O20 2.273 . S
Cd16 O24 2.277 . S
O17 C14 1.160 . S
O17 Cd18 2.203 . S
Cd18 O17 2.203 . S
Cd18 O20 2.411 . S
Cd18 O21 2.333 . S
Cd18 O22 2.352 . S
Cd18 O26 2.277 . S
Cd18 O27 2.356 . S
C19 O24 1.209 . S
C19 O26 1.226 . S
O20 Cd16 2.273 . S
O20 Cd18 2.411 . S
O20 C23 1.320 . S
O21 Cd18 2.333 . S
O21 C23 1.214 . S
O22 Cd18 2.352 . S
O22 C25 1.258 . S
C23 O20 1.320 . S
C23 O21 1.214 . S
O24 Cd16 2.277 . S
O24 C19 1.209 . S
C25 O22 1.258 . S
C25 O27 1.282 . S
O26 Cd18 2.277 . S
O26 C19 1.226 . S
O27 Cd18 2.356 . S
O27 C25 1.282 . S
C28 O29 1.306 . S
C28 O31 1.160 . S
O29 C28 1.306 . S
O29 Cd30 2.228 . S
Cd30 O29 2.228 . S
Cd30 O34 2.273 . S
Cd30 O38 2.277 . S
O31 C28 1.160 . S
O31 Cd32 2.203 . S
Cd32 O31 2.203 . S
Cd32 O34 2.411 . S
Cd32 O35 2.333 . S
Cd32 O36 2.352 . S
Cd32 O40 2.277 . S
Cd32 O41 2.356 . S
C33 O38 1.209 . S
C33 O40 1.226 . S
O34 Cd30 2.273 . S
O34 Cd32 2.411 . S
O34 C37 1.320 . S
O35 Cd32 2.333 . S
O35 C37 1.214 . S
O36 Cd32 2.352 . S
O36 C39 1.258 . S
C37 O34 1.320 . S
C37 O35 1.214 . S
O38 Cd30 2.277 . S
O38 C33 1.209 . S
C39 O36 1.258 . S
C39 O41 1.282 . S
O40 Cd32 2.277 . S
O40 C33 1.226 . S
O41 Cd32 2.356 . S
O41 C39 1.282 . S
C42 O43 1.306 . S
C42 O45 1.160 . S
O43 C42 1.306 . S
O43 Cd44 2.228 1_554 S
Cd44 O43 2.228 1_556 S
Cd44 O48 2.273 1_556 S
Cd44 O52 2.277 1_556 S
O45 C42 1.160 . S
O45 Cd46 2.203 . S
Cd46 O45 2.203 . S
Cd46 O48 2.411 . S
Cd46 O49 2.333 . S
Cd46 O50 2.352 . S
Cd46 O54 2.277 . S
Cd46 O55 2.356 . S
C47 O52 1.209 . S
C47 O54 1.226 . S
O48 Cd44 2.273 1_554 S
O48 Cd46 2.411 . S
O48 C51 1.320 . S
O49 Cd46 2.333 . S
O49 C51 1.214 . S
O50 Cd46 2.352 . S
O50 C53 1.258 . S
C51 O48 1.320 . S
C51 O49 1.214 . S
O52 Cd44 2.277 1_554 S
O52 C47 1.209 . S
C53 O50 1.258 . S
C53 O55 1.282 . S
O54 Cd46 2.277 . S
O54 C47 1.226 . S
O55 Cd46 2.356 . S
O55 C53 1.282 . S
C56 O57 1.306 . S
C56 O59 1.160 . S
O57 C56 1.306 . S
O57 Cd58 2.228 . S
Cd58 O57 2.228 . S
Cd58 O62 2.273 . S
Cd58 O66 2.277 . S
O59 C56 1.160 . S
O59 Cd60 2.203 . S
Cd60 O59 2.203 . S
Cd60 O62 2.411 . S
Cd60 O63 2.333 . S
Cd60 O64 2.352 . S
Cd60 O68 2.277 . S
Cd60 O69 2.356 . S
C61 O66 1.209 . S
C61 O68 1.226 . S
O62 Cd58 2.273 . S
O62 Cd60 2.411 . S
O62 C65 1.320 . S
O63 Cd60 2.333 . S
O63 C65 1.214 . S
O64 Cd60 2.352 . S
O64 C67 1.258 . S
C65 O62 1.320 . S
C65 O63 1.214 . S
O66 Cd58 2.277 . S
O66 C61 1.209 . S
C67 O64 1.258 . S
C67 O69 1.282 . S
O68 Cd60 2.277 . S
O68 C61 1.226 . S
O69 Cd60 2.356 . S
O69 C67 1.282 . S
C70 O71 1.306 . S
C70 O73 1.160 . S
O71 C70 1.306 . S
O71 Cd72 2.228 . S
Cd72 O71 2.228 . S
Cd72 O76 2.273 . S
Cd72 O80 2.277 . S
O73 C70 1.160 . S
O73 Cd74 2.203 . S
Cd74 O73 2.203 . S
Cd74 O76 2.411 . S
Cd74 O77 2.333 . S
Cd74 O78 2.352 . S
Cd74 O82 2.277 . S
Cd74 O83 2.356 . S
C75 O80 1.209 . S
C75 O82 1.226 . S
O76 Cd72 2.273 . S
O76 Cd74 2.411 . S
O76 C79 1.320 . S
O77 Cd74 2.333 . S
O77 C79 1.214 . S
O78 Cd74 2.352 . S
O78 C81 1.258 . S
C79 O76 1.320 . S
C79 O77 1.214 . S
O80 Cd72 2.277 . S
O80 C75 1.209 . S
C81 O78 1.258 . S
C81 O83 1.282 . S
O82 Cd74 2.277 . S
O82 C75 1.226 . S
O83 Cd74 2.356 . S
O83 C81 1.282 . S
C84 O85 1.306 . S
C84 O87 1.160 . S
O85 C84 1.306 . S
O85 Cd86 2.228 . S
Cd86 O85 2.228 . S
Cd86 O90 2.273 . S
Cd86 O94 2.277 . S
O87 C84 1.160 . S
O87 Cd88 2.203 . S
Cd88 O87 2.203 . S
Cd88 O90 2.411 . S
Cd88 O91 2.333 . S
Cd88 O92 2.352 . S
Cd88 O96 2.277 . S
Cd88 O97 2.356 . S
C89 O94 1.209 . S
C89 O96 1.226 . S
O90 Cd86 2.273 . S
O90 Cd88 2.411 . S
O90 C93 1.320 . S
O91 Cd88 2.333 . S
O91 C93 1.214 . S
O92 Cd88 2.352 . S
O92 C95 1.258 . S
C93 O90 1.320 . S
C93 O91 1.214 . S
O94 Cd86 2.277 . S
O94 C89 1.209 . S
C95 O92 1.258 . S
C95 O97 1.282 . S
O96 Cd88 2.277 . S
O96 C89 1.226 . S
O97 Cd88 2.356 . S
O97 C95 1.282 . S
C98 O99 1.306 . S
C98 O101 1.160 . S
O99 C98 1.306 . S
O99 Cd100 2.228 1_556 S
Cd100 O99 2.228 1_554 S
Cd100 O104 2.273 1_554 S
Cd100 O108 2.277 1_554 S
O101 C98 1.160 . S
O101 Cd102 2.203 . S
Cd102 O101 2.203 . S
Cd102 O104 2.411 . S
Cd102 O105 2.333 . S
Cd102 O106 2.352 . S
Cd102 O110 2.277 . S
Cd102 O111 2.356 . S
C103 O108 1.209 . S
C103 O110 1.226 . S
O104 Cd100 2.273 1_556 S
O104 Cd102 2.411 . S
O104 C107 1.320 . S
O105 Cd102 2.333 . S
O105 C107 1.214 . S
O106 Cd102 2.352 . S
O106 C109 1.258 . S
C107 O104 1.320 . S
C107 O105 1.214 . S
O108 Cd100 2.277 1_556 S
O108 C103 1.209 . S
C109 O106 1.258 . S
C109 O111 1.282 . S
O110 Cd102 2.277 . S
O110 C103 1.226 . S
O111 Cd102 2.356 . S
O111 C109 1.282 . S
C112 O113 1.306 . S
C112 O115 1.160 . S
O113 C112 1.306 . S
O113 Cd114 2.228 . S
Cd114 O113 2.228 . S
Cd114 O118 2.273 . S
Cd114 O122 2.277 . S
O115 C112 1.160 . S
O115 Cd116 2.203 . S
Cd116 O115 2.203 . S
Cd116 O118 2.411 . S
Cd116 O119 2.333 . S
Cd116 O120 2.352 . S
Cd116 O124 2.277 . S
Cd116 O125 2.356 . S
C117 O122 1.209 . S
C117 O124 1.226 . S
O118 Cd114 2.273 . S
O118 Cd116 2.411 . S
O118 C121 1.320 . S
O119 Cd116 2.333 . S
O119 C121 1.214 . S
O120 Cd116 2.352 . S
O120 C123 1.258 . S
C121 O118 1.320 . S
C121 O119 1.214 . S
O122 Cd114 2.277 . S
O122 C117 1.209 . S
C123 O120 1.258 . S
C123 O125 1.282 . S
O124 Cd116 2.277 . S
O124 C117 1.226 . S
O125 Cd116 2.356 . S
O125 C123 1.282 . S
C126 O127 1.306 . S
C126 O129 1.160 . S
O127 C126 1.306 . S
O127 Cd128 2.228 . S
Cd128 O127 2.228 . S
Cd128 O132 2.273 . S
Cd128 O136 2.277 . S
O129 C126 1.160 . S
O129 Cd130 2.203 . S
Cd130 O129 2.203 . S
Cd130 O132 2.411 . S
Cd130 O133 2.333 . S
Cd130 O134 2.352 . S
Cd130 O138 2.277 . S
Cd130 O139 2.356 . S
C131 O136 1.209 . S
C131 O138 1.226 . S
O132 Cd128 2.273 . S
O132 Cd130 2.411 . S
O132 C135 1.320 . S
O133 Cd130 2.333 . S
O133 C135 1.214 . S
O134 Cd130 2.352 . S
O134 C137 1.258 . S
C135 O132 1.320 . S
C135 O133 1.214 . S
O136 Cd128 2.277 . S
O136 C131 1.209 . S
C137 O134 1.258 . S
C137 O139 1.282 . S
O138 Cd130 2.277 . S
O138 C131 1.226 . S
O139 Cd130 2.356 . S
O139 C137 1.282 . S
C140 O141 1.306 . S
C140 O143 1.160 . S
O141 C140 1.306 . S
O141 Cd142 2.228 1_556 S
Cd142 O141 2.228 1_554 S
Cd142 O146 2.273 1_554 S
Cd142 O150 2.277 1_554 S
O143 C140 1.160 . S
O143 Cd144 2.203 . S
Cd144 O143 2.203 . S
Cd144 O146 2.411 . S
Cd144 O147 2.333 . S
Cd144 O148 2.352 . S
Cd144 O152 2.277 . S
Cd144 O153 2.356 . S
C145 O150 1.209 . S
C145 O152 1.226 . S
O146 Cd142 2.273 1_556 S
O146 Cd144 2.411 . S
O146 C149 1.320 . S
O147 Cd144 2.333 . S
O147 C149 1.214 . S
O148 Cd144 2.352 . S
O148 C151 1.258 . S
C149 O146 1.320 . S
C149 O147 1.214 . S
O150 Cd142 2.277 1_556 S
O150 C145 1.209 . S
C151 O148 1.258 . S
C151 O153 1.282 . S
O152 Cd144 2.277 . S
O152 C145 1.226 . S
O153 Cd144 2.356 . S
O153 C151 1.282 . S
C154 O155 1.306 . S
C154 O157 1.160 . S
O155 C154 1.306 . S
O155 Cd156 2.228 . S
Cd156 O155 2.228 . S
Cd156 O160 2.273 . S
Cd156 O164 2.277 . S
O157 C154 1.160 . S
O157 Cd158 2.203 . S
Cd158 O157 2.203 . S
Cd158 O160 2.411 . S
Cd158 O161 2.333 . S
Cd158 O162 2.352 . S
Cd158 O166 2.277 . S
Cd158 O167 2.356 . S
C159 O164 1.209 . S
C159 O166 1.226 . S
O160 Cd156 2.273 . S
O160 Cd158 2.411 . S
O160 C163 1.320 . S
O161 Cd158 2.333 . S
O161 C163 1.214 . S
O162 Cd158 2.352 . S
O162 C165 1.258 . S
C163 O160 1.320 . S
C163 O161 1.214 . S
O164 Cd156 2.277 . S
O164 C159 1.209 . S
C165 O162 1.258 . S
C165 O167 1.282 . S
O166 Cd158 2.277 . S
O166 C159 1.226 . S
O167 Cd158 2.356 . S
O167 C165 1.282 . S
C168 C169 1.369 . S
C168 C170 1.419 1_566 S
C168 H172 0.930 . S
C169 C168 1.369 . S
C169 C178 1.429 . S
C170 C168 1.419 1_544 S
C170 C171 1.363 . S
C170 H173 0.929 . S
C171 C170 1.363 . S
C171 C177 1.428 . S
H172 C168 0.930 . S
H173 C170 0.929 . S
S174 N175 1.613 1_554 S
S174 N176 1.610 1_565 S
N175 S174 1.613 1_556 S
N175 C178 1.350 . S
N176 S174 1.610 1_545 S
N176 C177 1.351 . S
C177 C171 1.428 . S
C177 N176 1.351 . S
C177 C178 1.434 1_544 S
C178 C169 1.429 . S
C178 N175 1.350 . S
C178 C177 1.434 1_566 S
C179 C180 1.369 . S
C179 C181 1.419 . S
C179 H183 0.930 . S
C180 C179 1.369 . S
C180 C189 1.429 . S
C181 C179 1.419 . S
C181 C182 1.363 . S
C181 H184 0.929 . S
C182 C181 1.363 . S
C182 C188 1.428 . S
H183 C179 0.930 . S
H184 C181 0.929 . S
S185 N186 1.613 . S
S185 N187 1.610 . S
N186 S185 1.613 . S
N186 C189 1.350 . S
N187 S185 1.610 . S
N187 C188 1.351 . S
C188 C182 1.428 . S
C188 N187 1.351 . S
C188 C189 1.434 . S
C189 C180 1.429 . S
C189 N186 1.350 . S
C189 C188 1.434 . S
C190 C191 1.369 . S
C190 C192 1.419 1_655 S
C190 H194 0.930 . S
C191 C190 1.369 . S
C191 C200 1.429 . S
C192 C190 1.419 1_455 S
C192 C193 1.363 . S
C192 H195 0.929 . S
C193 C192 1.363 . S
C193 C199 1.428 . S
H194 C190 0.930 . S
H195 C192 0.929 . S
S196 N197 1.613 . S
S196 N198 1.610 1_655 S
N197 S196 1.613 . S
N197 C200 1.350 . S
N198 S196 1.610 1_455 S
N198 C199 1.351 . S
C199 C193 1.428 . S
C199 N198 1.351 . S
C199 C200 1.434 1_455 S
C200 C191 1.429 . S
C200 N197 1.350 . S
C200 C199 1.434 1_655 S
C201 C202 1.369 1_556 S
C201 C203 1.419 1_565 S
C201 H205 0.930 . S
C202 C201 1.369 1_554 S
C202 C211 1.429 . S
C203 C201 1.419 1_545 S
C203 C204 1.363 . S
C203 H206 0.929 . S
C204 C203 1.363 . S
C204 C210 1.428 1_556 S
H205 C201 0.930 . S
H206 C203 0.929 . S
S207 N208 1.626 . S
S207 N209 1.610 . S
N208 S207 1.626 . S
N208 C211 1.352 1_545 S
N209 S207 1.610 . S
N209 C210 1.351 . S
C210 C204 1.428 1_554 S
C210 N209 1.351 . S
C210 C211 1.434 1_545 S
C211 C202 1.429 . S
C211 N208 1.352 1_565 S
C211 C210 1.434 1_565 S
C212 C213 1.369 . S
C212 C214 1.419 . S
C212 H216 0.930 . S
C213 C212 1.369 . S
C213 C222 1.429 . S
C214 C212 1.419 . S
C214 C215 1.363 . S
C214 H217 0.929 . S
C215 C214 1.363 . S
C215 C221 1.428 . S
H216 C212 0.930 . S
H217 C214 0.929 . S
S218 N219 1.613 . S
S218 N220 1.610 . S
N219 S218 1.613 . S
N219 C222 1.350 . S
N220 S218 1.610 . S
N220 C221 1.351 . S
C221 C215 1.428 . S
C221 N220 1.351 . S
C221 C222 1.434 . S
C222 C213 1.429 . S
C222 N219 1.350 . S
C222 C221 1.434 . S
C223 C224 1.369 . S
C223 C225 1.419 1_655 S
C223 H227 0.930 . S
C224 C223 1.369 . S
C224 C233 1.429 . S
C225 C223 1.419 1_455 S
C225 C226 1.363 . S
C225 H228 0.929 . S
C226 C225 1.363 . S
C226 C232 1.428 . S
H227 C223 0.930 . S
H228 C225 0.929 . S
S229 N230 1.613 . S
S229 N231 1.610 . S
N230 S229 1.613 . S
N230 C233 1.350 . S
N231 S229 1.610 . S
N231 C232 1.351 1_655 S
C232 C226 1.428 . S
C232 N231 1.351 1_455 S
C232 C233 1.434 1_455 S
C233 C224 1.429 . S
C233 N230 1.350 . S
C233 C232 1.434 1_655 S
C234 C235 1.369 . S
C234 C236 1.419 . S
C234 H238 0.930 . S
C235 C234 1.369 . S
C235 C244 1.429 1_556 S
C236 C234 1.419 . S
C236 C237 1.363 1_556 S
C236 H239 0.929 . S
C237 C236 1.363 1_554 S
C237 C243 1.428 . S
H238 C234 0.930 . S
H239 C236 0.929 . S
S240 N241 1.613 . S
S240 N242 1.610 . S
N241 S240 1.613 . S
N241 C244 1.350 . S
N242 S240 1.610 . S
N242 C243 1.351 . S
C243 C237 1.428 . S
C243 N242 1.351 . S
C243 C244 1.434 . S
C244 C235 1.429 1_554 S
C244 N241 1.350 . S
C244 C243 1.434 . S
C245 C246 1.369 . S
C245 C247 1.419 . S
C245 H249 0.930 . S
C246 C245 1.369 . S
C246 C255 1.429 . S
C247 C245 1.419 . S
C247 C248 1.363 . S
C247 H250 0.929 . S
C248 C247 1.363 . S
C248 C254 1.428 . S
H249 C245 0.930 . S
H250 C247 0.929 . S
S251 N252 1.613 . S
S251 N253 1.610 . S
N252 S251 1.613 . S
N252 C255 1.350 . S
N253 S251 1.610 . S
N253 C254 1.351 . S
C254 C248 1.428 . S
C254 N253 1.351 . S
C254 C255 1.434 . S
C255 C246 1.429 . S
C255 N252 1.350 . S
C255 C254 1.434 . S
C256 C257 1.369 . S
C256 C258 1.419 . S
C256 H260 0.930 . S
C257 C256 1.369 . S
C257 C266 1.429 . S
C258 C256 1.419 . S
C258 C259 1.363 . S
C258 H261 0.929 . S
C259 C258 1.363 . S
C259 C265 1.428 . S
H260 C256 0.930 . S
H261 C258 0.929 . S
S262 N263 1.613 . S
S262 N264 1.610 . S
N263 S262 1.613 . S
N263 C266 1.350 . S
N264 S262 1.610 . S
N264 C265 1.351 . S
C265 C259 1.428 . S
C265 N264 1.351 . S
C265 C266 1.434 . S
C266 C257 1.429 . S
C266 N263 1.350 . S
C266 C265 1.434 . S
C267 C268 1.369 1_554 S
C267 C269 1.419 . S
C267 H271 0.930 . S
C268 C267 1.369 1_556 S
C268 C277 1.429 . S
C269 C267 1.419 . S
C269 C270 1.363 . S
C269 H272 0.929 . S
C270 C269 1.363 . S
C270 C276 1.428 1_554 S
H271 C267 0.930 . S
H272 C269 0.929 . S
S273 N274 1.613 . S
S273 N275 1.610 . S
N274 S273 1.613 . S
N274 C277 1.350 . S
N275 S273 1.610 . S
N275 C276 1.351 . S
C276 C270 1.428 1_556 S
C276 N275 1.351 . S
C276 C277 1.434 . S
C277 C268 1.429 . S
C277 N274 1.350 . S
C277 C276 1.434 . S
C278 C279 1.369 . S
C278 C280 1.419 . S
C278 H282 0.930 . S
C279 C278 1.369 . S
C279 C288 1.429 . S
C280 C278 1.419 . S
C280 C281 1.363 . S
C280 H283 0.929 . S
C281 C280 1.363 . S
C281 C287 1.428 . S
H282 C278 0.930 . S
H283 C280 0.929 . S
S284 N285 1.613 . S
S284 N286 1.610 . S
N285 S284 1.613 . S
N285 C288 1.350 . S
N286 S284 1.610 . S
N286 C287 1.351 . S
C287 C281 1.428 . S
C287 N286 1.351 . S
C287 C288 1.434 . S
C288 C279 1.429 . S
C288 N285 1.350 . S
C288 C287 1.434 . S
C289 C290 1.369 . S
C289 C291 1.419 . S
C289 H293 0.930 . S
C290 C289 1.369 . S
C290 C299 1.429 . S
C291 C289 1.419 . S
C291 C292 1.363 . S
C291 H294 0.929 . S
C292 C291 1.363 . S
C292 C298 1.428 . S
H293 C289 0.930 . S
H294 C291 0.929 . S
S295 N296 1.613 . S
S295 N297 1.610 . S
N296 S295 1.613 . S
N296 C299 1.350 . S
N297 S295 1.610 . S
N297 C298 1.351 . S
C298 C292 1.428 . S
C298 N297 1.351 . S
C298 C299 1.434 . S
C299 C290 1.429 . S
C299 N296 1.350 . S
C299 C298 1.434 . S
C300 C301 1.369 . S
C300 C302 1.419 . S
C300 H304 0.930 . S
C301 C300 1.369 . S
C301 C310 1.429 . S
C302 C300 1.419 . S
C302 C303 1.363 . S
C302 H305 0.929 . S
C303 C302 1.363 . S
C303 C309 1.428 . S
H304 C300 0.930 . S
H305 C302 0.929 . S
S306 N307 1.613 . S
S306 N308 1.610 . S
N307 S306 1.613 . S
N307 C310 1.350 . S
N308 S306 1.610 . S
N308 C309 1.351 . S
C309 C303 1.428 . S
C309 N308 1.351 . S
C309 C310 1.434 . S
C310 C301 1.429 . S
C310 N307 1.350 . S
C310 C309 1.434 . S
C311 C312 1.369 . S
C311 C313 1.419 . S
C311 H315 0.930 . S
C312 C311 1.369 . S
C312 C321 1.429 . S
C313 C311 1.419 . S
C313 C314 1.363 . S
C313 H316 0.929 . S
C314 C313 1.363 . S
C314 C320 1.428 . S
H315 C311 0.930 . S
H316 C313 0.929 . S
S317 N318 1.613 . S
S317 N319 1.610 . S
N318 S317 1.613 . S
N318 C321 1.350 . S
N319 S317 1.610 . S
N319 C320 1.351 . S
C320 C314 1.428 . S
C320 N319 1.351 . S
C320 C321 1.434 . S
C321 C312 1.429 . S
C321 N318 1.350 . S
C321 C320 1.434 . S
C322 C323 1.369 . S
C322 C324 1.419 . S
C322 H326 0.930 . S
C323 C322 1.369 . S
C323 C332 1.429 . S
C324 C322 1.419 . S
C324 C325 1.363 . S
C324 H327 0.929 . S
C325 C324 1.363 . S
C325 C331 1.428 . S
H326 C322 0.930 . S
H327 C324 0.929 . S
S328 N329 1.613 . S
S328 N330 1.610 . S
N329 S328 1.613 . S
N329 C332 1.350 . S
N330 S328 1.610 . S
N330 C331 1.351 . S
C331 C325 1.428 . S
C331 N330 1.351 . S
C331 C332 1.434 . S
C332 C323 1.429 . S
C332 N329 1.350 . S
C332 C331 1.434 . S
C333 C334 1.369 . S
C333 C335 1.419 . S
C333 H337 0.930 . S
C334 C333 1.369 . S
C334 C343 1.429 . S
C335 C333 1.419 . S
C335 C336 1.363 . S
C335 H338 0.929 . S
C336 C335 1.363 . S
C336 C342 1.428 . S
H337 C333 0.930 . S
H338 C335 0.929 . S
S339 N340 1.613 . S
S339 N341 1.610 . S
N340 S339 1.613 . S
N340 C343 1.350 . S
N341 S339 1.610 . S
N341 C342 1.351 . S
C342 C336 1.428 . S
C342 N341 1.351 . S
C342 C343 1.434 . S
C343 C334 1.429 . S
C343 N340 1.350 . S
C343 C342 1.434 . S
C344 C345 1.369 . S
C344 C346 1.419 . S
C344 H348 0.930 . S
C345 C344 1.369 . S
C345 C354 1.429 . S
C346 C344 1.419 . S
C346 C347 1.363 . S
C346 H349 0.929 . S
C347 C346 1.363 . S
C347 C353 1.428 . S
H348 C344 0.930 . S
H349 C346 0.929 . S
S350 N351 1.613 . S
S350 N352 1.610 . S
N351 S350 1.613 . S
N351 C354 1.350 . S
N352 S350 1.610 . S
N352 C353 1.351 . S
C353 C347 1.428 . S
C353 N352 1.351 . S
C353 C354 1.434 . S
C354 C345 1.429 . S
C354 N351 1.350 . S
C354 C353 1.434 . S
C355 C356 1.369 . S
C355 C357 1.419 . S
C355 H359 0.930 . S
C356 C355 1.369 . S
C356 C365 1.429 . S
C357 C355 1.419 . S
C357 C358 1.363 . S
C357 H360 0.929 . S
C358 C357 1.363 . S
C358 C364 1.428 . S
H359 C355 0.930 . S
H360 C357 0.929 . S
S361 N362 1.613 . S
S361 N363 1.610 . S
N362 S361 1.613 . S
N362 C365 1.350 . S
N363 S361 1.610 . S
N363 C364 1.351 . S
C364 C358 1.428 . S
C364 N363 1.351 . S
C364 C365 1.434 . S
C365 C356 1.429 . S
C365 N362 1.350 . S
C365 C364 1.434 . S
C366 C367 1.369 . S
C366 C368 1.419 . S
C366 H370 0.930 . S
C367 C366 1.369 . S
C367 C376 1.429 . S
C368 C366 1.419 . S
C368 C369 1.363 . S
C368 H371 0.929 . S
C369 C368 1.363 . S
C369 C375 1.428 . S
H370 C366 0.930 . S
H371 C368 0.929 . S
S372 N373 1.613 . S
S372 N374 1.610 . S
N373 S372 1.613 . S
N373 C376 1.350 . S
N374 S372 1.610 . S
N374 C375 1.351 . S
C375 C369 1.428 . S
C375 N374 1.351 . S
C375 C376 1.434 . S
C376 C367 1.429 . S
C376 N373 1.350 . S
C376 C375 1.434 . S
C377 C378 1.369 . S
C377 C379 1.419 . S
C377 H381 0.930 . S
C378 C377 1.369 . S
C378 C387 1.429 1_655 S
C379 C377 1.419 . S
C379 C380 1.363 1_655 S
C379 H382 0.929 . S
C380 C379 1.363 1_455 S
C380 C386 1.428 . S
H381 C377 0.930 . S
H382 C379 0.929 . S
S383 N384 1.613 . S
S383 N385 1.610 . S
N384 S383 1.613 . S
N384 C387 1.350 . S
N385 S383 1.610 . S
N385 C386 1.351 . S
C386 C380 1.428 . S
C386 N385 1.351 . S
C386 C387 1.434 . S
C387 C378 1.429 1_455 S
C387 N384 1.350 . S
C387 C386 1.434 . S
C388 C389 1.369 . S
C388 C390 1.419 . S
C388 H392 0.930 . S
C389 C388 1.369 . S
C389 C398 1.429 1_545 S
C390 C388 1.419 . S
C390 C391 1.363 1_545 S
C390 H393 0.929 . S
C391 C390 1.363 1_565 S
C391 C397 1.428 . S
H392 C388 0.930 . S
H393 C390 0.929 . S
S394 N395 1.613 . S
S394 N396 1.610 . S
N395 S394 1.613 . S
N395 C398 1.350 . S
N396 S394 1.610 . S
N396 C397 1.351 . S
C397 C391 1.428 . S
C397 N396 1.351 . S
C397 C398 1.434 . S
C398 C389 1.429 1_565 S
C398 N395 1.350 . S
C398 C397 1.434 . S
C399 C400 1.369 . S
C399 C401 1.419 . S
C399 H403 0.930 . S
C400 C399 1.369 . S
C400 C409 1.429 . S
C401 C399 1.419 . S
C401 C402 1.363 . S
C401 H404 0.929 . S
C402 C401 1.363 . S
C402 C408 1.428 . S
H403 C399 0.930 . S
H404 C401 0.929 . S
S405 N406 1.613 . S
S405 N407 1.610 . S
N406 S405 1.613 . S
N406 C409 1.350 . S
N407 S405 1.610 . S
N407 C408 1.351 . S
C408 C402 1.428 . S
C408 N407 1.351 . S
C408 C409 1.434 . S
C409 C400 1.429 . S
C409 N406 1.350 . S
C409 C408 1.434 . S
C410 C411 1.369 1_655 S
C410 C412 1.419 . S
C410 H414 0.930 . S
C411 C410 1.369 1_455 S
C411 C420 1.429 . S
C412 C410 1.419 . S
C412 C413 1.363 . S
C412 H415 0.929 . S
C413 C412 1.363 . S
C413 C419 1.428 1_655 S
H414 C410 0.930 . S
H415 C412 0.929 . S
S416 N417 1.613 . S
S416 N418 1.610 . S
N417 S416 1.613 . S
N417 C420 1.350 . S
N418 S416 1.610 . S
N418 C419 1.351 . S
C419 C413 1.428 1_455 S
C419 N418 1.351 . S
C419 C420 1.434 . S
C420 C411 1.429 . S
C420 N417 1.350 . S
C420 C419 1.434 . S
C421 C422 1.369 . S
C421 C423 1.419 . S
C421 H425 0.930 . S
C422 C421 1.369 . S
C422 C431 1.429 1_565 S
C423 C421 1.419 . S
C423 C424 1.363 1_565 S
C423 H426 0.929 . S
C424 C423 1.363 1_545 S
C424 C430 1.428 . S
H425 C421 0.930 . S
H426 C423 0.929 . S
S427 N428 1.613 . S
S427 N429 1.610 . S
N428 S427 1.613 . S
N428 C431 1.350 . S
N429 S427 1.610 . S
N429 C430 1.351 . S
C430 C424 1.428 . S
C430 N429 1.351 . S
C430 C431 1.434 . S
C431 C422 1.429 1_545 S
C431 N428 1.350 . S
C431 C430 1.434 . S
C169 C98 1.428 . S
C171 C0 1.431 . S
C180 C14 1.429 . S
C182 C112 1.430 . S
C191 C28 1.429 . S
C193 C126 1.433 . S
C202 C42 1.434 . S
C204 C140 1.431 . S
C213 C154 1.435 . S
C215 C56 1.432 . S
C224 C84 1.430 . S
C226 C70 1.434 . S
C235 C145 1.464 . S
C237 C5 1.461 . S
C246 C19 1.459 . S
C248 C159 1.463 . S
C257 C33 1.460 . S
C259 C89 1.462 . S
C268 C103 1.459 . S
C270 C47 1.463 . S
C279 C117 1.460 . S
C281 C61 1.462 . S
C290 C131 1.460 . S
C292 C75 1.464 . S
C301 C11 1.674 . S
C303 C123 1.675 . S
C312 C25 1.679 . S
C314 C137 1.679 . S
C323 C151 1.675 . S
C325 C39 1.677 . S
C334 C53 1.679 . S
C336 C165 1.677 . S
C345 C95 1.675 . S
C347 C67 1.675 . S
C356 C109 1.679 . S
C358 C81 1.677 . S
C367 C51 1.455 . S
C369 C9 1.449 . S
C378 C65 1.456 . S
C380 C23 1.447 . S
C389 C37 1.454 . S
C391 C79 1.450 . S
C400 C93 1.454 . S
C402 C135 1.450 . S
C411 C107 1.445 . S
C413 C149 1.453 . S
C422 C163 1.452 . S
C424 C121 1.452 . S
