# Generated by pormake.
# Topology snk, (6)-cn, num edge types: 1
# Building blocks:
#     Node 0, Type 0, BuildingBlock: PAMTOO_clean_sbu_0, # of connection points: 6
#     Node 1, Type 0, BuildingBlock: PAMTOO_clean_sbu_0, # of connection points: 6
#     Node 2, Type 0, BuildingBlock: PAMTOO_clean_sbu_0, # of connection points: 6
#     Node 3, Type 0, BuildingBlock: PAMTOO_clean_sbu_0, # of connection points: 6
#     Node 4, Type 0, BuildingBlock: PAMTOO_clean_sbu_0, # of connection points: 6
#     Node 5, Type 0, BuildingBlock: PAMTOO_clean_sbu_0, # of connection points: 6
#     Node 6, Type 0, BuildingBlock: PAMTOO_clean_sbu_0, # of connection points: 6
#     Node 7, Type 0, BuildingBlock: PAMTOO_clean_sbu_0, # of connection points: 6
#     Edge 8, Type (0, 0), BuildingBlock: KIFKEQ_clean_linker_1, # of connection points: 2
#     Edge 9, Type (0, 0), BuildingBlock: KIFKEQ_clean_linker_1, # of connection points: 2
#     Edge 10, Type (0, 0), BuildingBlock: KIFKEQ_clean_linker_1, # of connection points: 2
#     Edge 11, Type (0, 0), BuildingBlock: KIFKEQ_clean_linker_1, # of connection points: 2
#     Edge 12, Type (0, 0), BuildingBlock: KIFKEQ_clean_linker_1, # of connection points: 2
#     Edge 13, Type (0, 0), BuildingBlock: KIFKEQ_clean_linker_1, # of connection points: 2
#     Edge 14, Type (0, 0), BuildingBlock: KIFKEQ_clean_linker_1, # of connection points: 2
#     Edge 15, Type (0, 0), BuildingBlock: KIFKEQ_clean_linker_1, # of connection points: 2
#     Edge 16, Type (0, 0), BuildingBlock: KIFKEQ_clean_linker_1, # of connection points: 2
#     Edge 17, Type (0, 0), BuildingBlock: KIFKEQ_clean_linker_1, # of connection points: 2
#     Edge 18, Type (0, 0), BuildingBlock: KIFKEQ_clean_linker_1, # of connection points: 2
#     Edge 19, Type (0, 0), BuildingBlock: KIFKEQ_clean_linker_1, # of connection points: 2
#     Edge 20, Type (0, 0), BuildingBlock: KIFKEQ_clean_linker_1, # of connection points: 2
#     Edge 21, Type (0, 0), BuildingBlock: KIFKEQ_clean_linker_1, # of connection points: 2
#     Edge 22, Type (0, 0), BuildingBlock: KIFKEQ_clean_linker_1, # of connection points: 2
#     Edge 23, Type (0, 0), BuildingBlock: KIFKEQ_clean_linker_1, # of connection points: 2
#     Edge 24, Type (0, 0), BuildingBlock: KIFKEQ_clean_linker_1, # of connection points: 2
#     Edge 25, Type (0, 0), BuildingBlock: KIFKEQ_clean_linker_1, # of connection points: 2
#     Edge 26, Type (0, 0), BuildingBlock: KIFKEQ_clean_linker_1, # of connection points: 2
#     Edge 27, Type (0, 0), BuildingBlock: KIFKEQ_clean_linker_1, # of connection points: 2
#     Edge 28, Type (0, 0), BuildingBlock: KIFKEQ_clean_linker_1, # of connection points: 2
#     Edge 29, Type (0, 0), BuildingBlock: KIFKEQ_clean_linker_1, # of connection points: 2
#     Edge 30, Type (0, 0), BuildingBlock: KIFKEQ_clean_linker_1, # of connection points: 2
#     Edge 31, Type (0, 0), BuildingBlock: KIFKEQ_clean_linker_1, # of connection points: 2
# Relax obj value: 0.067
# Max RMSD: 0.147
# Mean RMSD: 0.111
data_MOF--net-snk--node1-PAMTOO_clean_sbu_0--edge1-KIFKEQ_clean_linker_1
_symmetry_space_group_name_H-M    P1
_symmetry_Int_Tables_number       1
_symmetry_cell_setting            triclinic
loop_
_symmetry_equiv_pos_as_xyz
'x, y, z'
_cell_length_a     39.749888
_cell_length_b     40.023707
_cell_length_c     25.665599
_cell_angle_alpha  89.668024
_cell_angle_beta   90.958707
_cell_angle_gamma 89.906176
loop_
_atom_site_label
_atom_site_type_symbol
_atom_site_fract_x
_atom_site_fract_y
_atom_site_fract_z
_atom_type_partial_charge
Dy0 Dy -0.01136 0.00412 0.57162 0.0
Dy1 Dy 0.98633 0.96102 0.46054 0.0
C2 C 0.03132 0.93849 0.55822 0.0
O3 O 0.0326 0.02051 0.52416 0.0
O4 O 0.01116 0.0095 0.44261 0.0
O5 O 0.01763 0.02352 0.63657 0.0
O6 O 0.96396 0.03269 0.63126 0.0
O7 O 0.94245 -0.00433 0.45928 0.0
O8 O 0.96287 0.03674 0.51328 0.0
O9 O 0.96044 0.9291 0.51932 0.0
O10 O 0.94348 0.97087 0.57417 0.0
O11 O 0.95897 0.93458 0.40009 0.0
O12 O 0.01315 0.93934 0.39638 0.0
C13 C 0.03261 0.02505 0.47335 0.0
O14 O 0.01111 0.95466 0.58894 0.0
O15 O 0.0306 0.94312 0.50755 0.0
C16 C -0.01165 0.02668 0.71543 0.0
C17 C 0.98486 0.01071 0.82265 0.0
C18 C 0.97991 -0.01412 0.78459 0.0
C19 C 0.98171 -0.00621 0.73144 0.0
C20 C -0.00699 0.05153 0.75306 0.0
C21 C -0.00871 0.04366 0.80613 0.0
C22 C -0.00873 0.03533 0.65985 0.0
C23 C 0.94191 0.02642 0.47682 0.0
C24 C 0.94122 0.94008 0.55681 0.0
C25 C 0.98313 0.93843 0.31644 0.0
C26 C 0.98044 0.95462 0.20897 0.0
C27 C 0.96805 0.97705 0.24625 0.0
C28 C 0.96946 0.96906 0.2995 0.0
C29 C -0.00459 0.91601 0.27958 0.0
C30 C -0.00588 0.92399 0.22644 0.0
C31 C 0.98572 0.92978 0.37227 0.0
H32 H 0.97528 0.96021 0.79589 0.0
H33 H 0.97821 0.97423 0.70285 0.0
H34 H -0.00188 0.07706 0.74138 0.0
H35 H -0.00525 0.06349 0.83424 0.0
H36 H 0.95702 0.00069 0.23431 0.0
H37 H 0.95998 -0.0132 0.32743 0.0
H38 H 0.00633 0.89238 0.29196 0.0
H39 H 0.00446 0.90635 0.19914 0.0
Dy40 Dy 0.26289 0.7369 0.71351 0.0
Dy41 Dy 0.21851 0.7357 0.82424 0.0
C42 C 0.19575 0.77945 0.7268 0.0
O43 O 0.29453 0.76289 0.77301 0.0
O44 O 0.25229 0.78003 0.82697 0.0
O45 O 0.28883 0.76459 0.65359 0.0
O46 O 0.28592 0.71063 0.65016 0.0
O47 O 0.26734 0.71146 0.84277 0.0
O48 O 0.28117 0.69353 0.7609 0.0
O49 O 0.20189 0.69181 0.77723 0.0
O50 O 0.2154 0.70998 0.69495 0.0
O51 O 0.19724 0.70817 0.88815 0.0
O52 O 0.191 0.76191 0.8837 0.0
C53 C 0.28331 0.78199 0.81037 0.0
O54 O 0.22696 0.77957 0.71094 0.0
O55 O 0.18557 0.7594 0.76392 0.0
C56 C 0.28547 0.73997 0.57018 0.0
C57 C 0.26947 0.74199 0.46241 0.0
C58 C 0.24483 0.73354 0.49903 0.0
C59 C 0.25274 0.7326 0.55241 0.0
C60 C 0.30998 0.7488 0.53405 0.0
C61 C 0.3021 0.74985 0.48072 0.0
C62 C 0.29456 0.73798 0.626 0.0
C63 C 0.28401 0.69172 0.81188 0.0
C64 C 0.19907 0.68993 0.72622 0.0
C65 C 0.19684 0.73759 0.96757 0.0
C66 C 0.21385 0.74068 0.07482 0.0
C67 C 0.23776 0.73041 0.03832 0.0
C68 C 0.22937 0.729 0.98518 0.0
C69 C 0.17306 0.7482 1.00365 0.0
C70 C 0.18147 0.74981 0.05676 0.0
C71 C 0.18724 0.73503 0.912 0.0
H72 H 0.21957 0.72698 0.48644 0.0
H73 H 0.23342 0.72574 0.57977 0.0
H74 H 0.33534 0.75473 0.54707 0.0
H75 H 0.32156 0.75703 0.45388 0.0
H76 H 0.26304 0.72364 0.05081 0.0
H77 H 0.24822 0.72099 0.95789 0.0
H78 H 0.14783 0.75493 0.99079 0.0
H79 H 0.16238 0.75753 0.08382 0.0
Dy80 Dy 0.4887 0.00634 0.97117 0.0
Dy81 Dy 0.48956 0.96215 0.0827 0.0
C82 C 0.44223 0.94192 0.98673 0.0
O83 O 0.46359 0.03876 0.02947 0.0
O84 O 0.44622 -0.00225 0.08601 0.0
O85 O 0.46189 0.03375 0.91046 0.0
O86 O 0.5159 0.02745 0.90682 0.0
O87 O 0.51595 0.00973 0.09991 0.0
O88 O 0.53336 0.02338 1.01761 0.0
O89 O 0.53196 0.94266 0.03475 0.0
O90 O 0.51236 0.95743 0.95314 0.0
O91 O 0.5174 0.94027 0.14724 0.0
O92 O 0.46313 0.93548 0.14329 0.0
C93 C 0.44456 0.0285 0.06779 0.0
O94 O 0.4443 0.97253 0.96838 0.0
O95 O 0.46162 0.93092 0.02508 0.0
C96 C 0.4857 0.02835 0.82713 0.0
C97 C 0.48258 0.01126 0.72041 0.0
C98 C 0.48385 -0.01378 0.7592 0.0
C99 C 0.48534 -0.00531 0.81208 0.0
C100 C 0.48414 0.05337 0.78877 0.0
C101 C 0.48254 0.04495 0.73593 0.0
C102 C 0.48871 0.03768 0.88245 0.0
C103 C 0.53558 0.02632 0.06848 0.0
C104 C 0.53242 0.93976 0.9837 0.0
C105 C 0.48833 0.94026 0.22722 0.0
C106 C 0.48511 0.95604 0.3345 0.0
C107 C 0.50243 0.97696 0.29971 0.0
C108 C 0.50392 0.96922 0.24664 0.0
C109 C 0.47079 0.91953 0.26155 0.0
C110 C 0.46912 0.92733 0.31456 0.0
C111 C 0.49035 0.93111 0.17163 0.0
H112 H 0.48352 0.96005 0.74871 0.0
H113 H 0.48646 0.975 0.84123 0.0
H114 H 0.48454 0.07949 0.79966 0.0
H115 H 0.48202 0.06487 0.70719 0.0
H116 H 0.51539 -0.00096 0.31357 0.0
H117 H 0.51751 -0.01425 0.2209 0.0
H118 H 0.45839 0.8972 0.24735 0.0
H119 H 0.45503 0.91095 0.33982 0.0
Dy120 Dy 0.21688 0.23562 0.21841 0.0
Dy121 Dy 0.26106 0.23406 0.33048 0.0
C122 C 0.28244 0.19051 0.23219 0.0
O123 O 0.19869 0.19168 0.26461 0.0
O124 O 0.21203 0.20977 0.34697 0.0
O125 O 0.19495 0.20847 0.15395 0.0
O126 O 0.19049 0.26234 0.15636 0.0
O127 O 0.22513 0.27672 0.33664 0.0
O128 O 0.18474 0.26286 0.27484 0.0
O129 O 0.29316 0.26125 0.27338 0.0
O130 O 0.25168 0.27927 0.21644 0.0
O131 O 0.28946 0.25929 0.39127 0.0
O132 O 0.28209 0.20571 0.39499 0.0
C133 C 0.1951 0.19013 0.3154 0.0
O134 O 0.26589 0.21131 0.20148 0.0
O135 O 0.27859 0.19075 0.28298 0.0
C136 C 0.19569 0.23744 0.07344 0.0
C137 C 0.21274 0.23958 0.96688 0.0
C138 C 0.23576 0.2272 1.00461 0.0
C139 C 0.22737 0.22627 0.05738 0.0
C140 C 0.17283 0.25015 0.03612 0.0
C141 C 0.18127 0.2513 0.98337 0.0
C142 C 0.18595 0.23548 0.12863 0.0
C143 C 0.19487 0.28003 0.31573 0.0
C144 C 0.28264 0.28074 0.23499 0.0
C145 C 0.28407 0.23476 0.47476 0.0
C146 C 0.26823 0.23783 0.58175 0.0
C147 C 0.2429 0.23208 0.54378 0.0
C148 C 0.25074 0.23063 0.4908 0.0
C149 C 0.30931 0.24091 0.51221 0.0
C150 C 0.3015 0.24249 0.56513 0.0
C151 C 0.29297 0.23219 0.41938 0.0
H152 H 0.26036 0.21842 0.99337 0.0
H153 H 0.24553 0.21662 0.08559 0.0
H154 H 0.14828 0.25891 0.04772 0.0
H155 H 0.16285 0.26069 0.95536 0.0
H156 H 0.21708 0.22802 0.555 0.0
H157 H 0.23085 0.22592 0.46242 0.0
H158 H 0.33515 0.24436 0.50055 0.0
H159 H 0.32158 0.24757 0.59298 0.0
Dy160 Dy 0.76145 0.23696 0.21658 0.0
Dy161 Dy 0.71693 0.23786 0.32666 0.0
C162 C 0.69641 0.28247 0.22955 0.0
O163 O 0.79387 0.26149 0.27678 0.0
O164 O 0.75125 0.28185 0.32689 0.0
O165 O 0.78894 0.2631 0.15692 0.0
O166 O 0.78306 0.20938 0.15302 0.0
O167 O 0.76545 0.21284 0.34545 0.0
O168 O 0.77737 0.19285 0.26422 0.0
O169 O 0.69865 0.1944 0.27998 0.0
O170 O 0.71279 0.21225 0.19785 0.0
O171 O 0.69536 0.21138 0.3915 0.0
O172 O 0.69011 0.26513 0.38564 0.0
C173 C 0.78271 0.28219 0.31209 0.0
O174 O 0.72776 0.28139 0.21444 0.0
O175 O 0.68498 0.26245 0.26582 0.0
C176 C 0.78429 0.23862 0.07294 0.0
C177 C 0.76781 0.24103 0.96526 0.0
C178 C 0.74915 0.25959 1.00126 0.0
C179 C 0.7572 0.25827 0.05463 0.0
C180 C 0.803 0.22024 0.0372 0.0
C181 C 0.79486 0.22137 0.98397 0.0
C182 C 0.79305 0.23629 0.12901 0.0
C183 C 0.7811 0.19192 0.31511 0.0
C184 C 0.6959 0.19256 0.22895 0.0
C185 C 0.69496 0.24149 0.47012 0.0
C186 C 0.71194 0.24447 0.5775 0.0
C187 C 0.73722 0.24227 0.53979 0.0
C188 C 0.7288 0.24081 0.48661 0.0
C189 C 0.66972 0.24403 0.50734 0.0
C190 C 0.67808 0.24552 0.56048 0.0
C191 C 0.68561 0.23862 0.41451 0.0
H192 H 0.72794 0.27467 0.98828 0.0
H193 H 0.74216 0.27243 0.08157 0.0
H194 H 0.82395 0.20487 0.05051 0.0
H195 H 0.81 0.20709 0.95736 0.0
H196 H 0.76354 0.24184 0.55132 0.0
H197 H 0.74866 0.23892 0.45836 0.0
H198 H 0.64345 0.24446 0.49534 0.0
H199 H 0.65793 0.24675 0.58829 0.0
Dy200 Dy 0.71623 0.73629 0.71547 0.0
Dy201 Dy 0.75988 0.73443 0.82743 0.0
C202 C 0.78154 0.69061 0.72952 0.0
O203 O 0.69771 0.69206 0.7604 0.0
O204 O 0.71109 0.7093 0.84324 0.0
O205 O 0.69465 0.70999 0.64978 0.0
O206 O 0.68965 0.76372 0.65452 0.0
O207 O 0.72489 0.77808 0.83115 0.0
O208 O 0.68347 0.76127 0.77362 0.0
O209 O 0.79246 0.76062 0.76991 0.0
O210 O 0.75036 0.78057 0.71599 0.0
O211 O 0.78826 0.75973 0.8879 0.0
O212 O 0.78025 0.70629 0.89294 0.0
C213 C 0.69419 0.68991 0.81115 0.0
O214 O 0.765 0.71128 0.69849 0.0
O215 O 0.7778 0.6912 0.78031 0.0
C216 C 0.69382 0.74006 0.57058 0.0
C217 C 0.70995 0.74264 0.4637 0.0
C218 C 0.73554 0.74277 0.50238 0.0
C219 C 0.72754 0.74144 0.55534 0.0
C220 C 0.66826 0.74038 0.53233 0.0
C221 C 0.6762 0.74166 0.47945 0.0
C222 C 0.68489 0.73725 0.62592 0.0
C223 C 0.6939 0.77996 0.81265 0.0
C224 C 0.78161 0.78131 0.73339 0.0
C225 C 0.78271 0.73589 0.97217 0.0
C226 C 0.76661 0.74005 0.07901 0.0
C227 C 0.74646 0.75616 0.04072 0.0
C228 C 0.75437 0.75402 0.98782 0.0
C229 C 0.80282 0.71981 1.01005 0.0
C230 C 0.79487 0.7218 0.06285 0.0
C231 C 0.79138 0.73288 0.9167 0.0
H232 H 0.76179 0.74316 0.49171 0.0
H233 H 0.74764 0.74107 0.58439 0.0
H234 H 0.64208 0.73939 0.54337 0.0
H235 H 0.65585 0.74203 0.45086 0.0
H236 H 0.72472 0.77072 0.05161 0.0
H237 H 0.73838 0.76651 0.95916 0.0
H238 H 0.82462 0.70545 0.99872 0.0
H239 H 0.81063 0.70855 0.09092 0.0
Dy240 Dy 0.48979 0.50117 0.06473 0.0
Dy241 Dy 0.48654 0.45762 0.95372 0.0
C242 C 0.5365 0.4383 0.04545 0.0
O243 O 0.51223 0.5346 1.00507 0.0
O244 O 0.52901 0.49424 0.94752 0.0
O245 O 0.51835 0.5262 0.12564 0.0
O246 O 0.46407 0.52341 0.12924 0.0
O247 O 0.45938 0.50486 0.93747 0.0
O248 O 0.44397 0.51808 1.02078 0.0
O249 O 0.44477 0.4387 1.00382 0.0
O250 O 0.46698 0.45206 0.08413 0.0
O251 O 0.45801 0.43585 0.8903 0.0
O252 O 0.5123 0.43046 0.89341 0.0
C253 C 0.53062 0.52488 0.96584 0.0
O254 O 0.53573 0.4695 0.06066 0.0
O255 O 0.51456 0.42652 1.01166 0.0
C256 C 0.49422 0.52176 0.20902 0.0
C257 C 0.49594 0.50442 0.31595 0.0
C258 C 0.4876 0.48044 0.27796 0.0
C259 C 0.48686 0.489 0.22497 0.0
C260 C 0.50296 0.54562 0.24659 0.0
C261 C 0.50389 0.53705 0.29955 0.0
C262 C 0.49185 0.5316 0.15367 0.0
C263 C 0.44044 0.5211 0.97003 0.0
C264 C 0.44563 0.43528 0.0549 0.0
C265 C 0.48655 0.4353 0.80981 0.0
C266 C 0.4897 0.45087 0.70232 0.0
C267 C 0.47114 0.4711 0.73614 0.0
C268 C 0.46971 0.4635 0.78938 0.0
C269 C 0.50523 0.41519 0.77626 0.0
C270 C 0.50688 0.42292 0.7231 0.0
C271 C 0.48482 0.42635 0.86566 0.0
H272 H 0.48176 0.455 0.28918 0.0
H273 H 0.48022 0.47016 0.19648 0.0
H274 H 0.50864 0.57104 0.23501 0.0
H275 H 0.51006 0.55621 0.32775 0.0
H276 H 0.45799 0.49304 0.72151 0.0
H277 H 0.45537 0.47965 0.8145 0.0
H278 H 0.51842 0.39334 0.79117 0.0
H279 H 0.52114 0.40666 0.69808 0.0
Dy280 Dy 0.9877 0.50391 0.47422 0.0
Dy281 Dy -0.00958 0.46087 0.58583 0.0
C282 C 0.94181 0.4402 0.4928 0.0
O283 O 0.9636 0.5372 0.53215 0.0
O284 O 0.94726 0.4968 0.59051 0.0
O285 O 0.95974 0.52937 0.41254 0.0
O286 O 0.01399 0.52524 0.40923 0.0
O287 O 0.01665 0.50855 0.60233 0.0
O288 O 0.03264 0.52202 0.51919 0.0
O289 O 0.03373 0.44355 0.53783 0.0
O290 O 0.01098 0.4546 0.45691 0.0
O291 O 0.01879 0.43906 0.64987 0.0
O292 O 0.96456 0.4336 0.64634 0.0
C293 C 0.94513 0.52733 0.57134 0.0
O294 O 0.94232 0.47136 0.47668 0.0
O295 O 0.96338 0.42898 0.52801 0.0
C296 C 0.98386 0.52403 0.32936 0.0
C297 C 0.98159 0.5066 0.22282 0.0
C298 C -0.00873 0.48293 0.26102 0.0
C299 C -0.00771 0.49153 0.31383 0.0
C300 C 0.97376 0.54755 0.29158 0.0
C301 C 0.97255 0.53893 0.23881 0.0
C302 C 0.98641 0.53398 0.38447 0.0
C303 C 0.03571 0.52509 0.57 0.0
C304 C 0.03276 0.43887 0.48716 0.0
C305 C -0.01001 0.43838 0.73003 0.0
C306 C 0.9867 0.45386 0.83721 0.0
C307 C 0.00394 0.47495 0.80269 0.0
C308 C 0.00543 0.46739 0.74958 0.0
C309 C 0.97258 0.41744 0.76424 0.0
C310 C 0.97085 0.42512 0.81727 0.0
C311 C -0.00805 0.42946 0.67439 0.0
H312 H -0.00203 0.45771 0.2501 0.0
H313 H -3e-05 0.47292 0.34248 0.0
H314 H 0.96721 0.57276 0.30284 0.0
H315 H 0.96532 0.55785 0.21041 0.0
H316 H 0.01602 0.4975 0.81666 0.0
H317 H 0.01875 0.48416 0.72388 0.0
H318 H 0.96046 0.39497 0.74997 0.0
H319 H 0.95763 0.4082 0.84286 0.0
H320 H 0.08805 0.05346 0.5197 0.0
H321 H 0.03188 0.05038 0.37423 0.0
H322 H 0.12777 0.09231 0.4811 0.0
H323 H 0.07073 0.09017 0.33623 0.0
H324 H 0.16421 0.13723 0.26712 0.0
H325 H 0.126 0.09667 0.30524 0.0
H326 H 0.13299 0.14821 0.45259 0.0
H327 H 0.17211 0.18786 0.41505 0.0
C328 C 0.08404 0.06125 0.47959 0.0
C329 C 0.0568 0.04877 0.4501 0.0
C330 C 0.10672 0.08372 0.45747 0.0
C331 C 0.10252 0.09456 0.40545 0.0
C332 C 0.07519 0.08203 0.37606 0.0
C333 C 0.05273 0.05931 0.39801 0.0
C334 C 0.15758 0.13988 0.30765 0.0
C335 C 0.17129 0.16576 0.33801 0.0
C336 C 0.1355 0.1167 0.32951 0.0
C337 C 0.12631 0.11904 0.38213 0.0
C338 C 0.13991 0.14514 0.41228 0.0
C339 C 0.16222 0.16808 0.39059 0.0
H340 H 0.03894 0.9227 0.661 0.0
H341 H 0.07722 0.8995 0.50849 0.0
H342 H 0.07845 0.88337 0.70041 0.0
H343 H 0.11649 0.85955 0.54829 0.0
H344 H 0.20734 0.82405 0.64834 0.0
H345 H 0.16691 0.86153 0.60615 0.0
H346 H 0.08839 0.82275 0.70387 0.0
H347 H 0.12884 0.78565 0.7469 0.0
C348 C 0.05567 0.9091 0.63581 0.0
C349 C 0.05504 0.91425 0.5816 0.0
C350 C 0.07813 0.88641 0.65844 0.0
C351 C 0.10039 0.86842 0.62735 0.0
C352 C 0.09975 0.8734 0.57313 0.0
C353 C 0.07721 0.89614 0.5504 0.0
C354 C 0.18147 0.82352 0.66093 0.0
C355 C 0.17131 0.80207 0.70122 0.0
C356 C 0.15831 0.84479 0.63644 0.0
C357 C 0.12461 0.84498 0.65182 0.0
C358 C 0.11436 0.82334 0.69174 0.0
C359 C 0.13751 0.80207 0.71625 0.0
H360 H 0.27693 0.81017 0.90599 0.0
H361 H 0.34189 0.80727 0.77261 0.0
H362 H 0.31552 0.84893 0.94916 0.0
H363 H 0.38031 0.84635 0.81591 0.0
H364 H 0.41445 0.94721 0.88938 0.0
H365 H 0.37597 0.90825 0.84644 0.0
H366 H 0.37753 0.8455 0.98384 0.0
H367 H 0.41635 0.8843 0.02694 0.0
C368 C 0.29935 0.81795 0.88579 0.0
C369 C 0.3064 0.8058 0.83587 0.0
C370 C 0.32147 0.83991 0.91067 0.0
C371 C 0.35076 0.85049 0.88576 0.0
C372 C 0.35773 0.83862 0.8357 0.0
C373 C 0.33586 0.81622 0.8111 0.0
C374 C 0.40647 0.9252 0.91056 0.0
C375 C 0.41828 0.9188 0.96158 0.0
C376 C 0.38468 0.90284 0.88582 0.0
C377 C 0.37394 0.87399 0.91192 0.0
C378 C 0.3854 0.86773 0.9631 0.0
C379 C 0.40764 0.88982 0.9876 0.0
H380 H 0.43384 0.09434 0.04241 0.0
H381 H 0.40166 0.01673 0.14821 0.0
H382 H 0.39542 0.1335 0.08302 0.0
H383 H 0.36282 0.05573 0.18801 0.0
H384 H 0.32254 0.14391 0.28181 0.0
H385 H 0.36213 0.10522 0.24249 0.0
H386 H 0.33562 0.14412 0.08988 0.0
H387 H 0.29665 0.18314 0.12902 0.0
C388 C 0.41848 0.08555 0.07413 0.0
C389 C 0.42085 0.05231 0.0919 0.0
C390 C 0.39632 0.10799 0.09728 0.0
C391 C 0.37598 0.09778 0.13877 0.0
C392 C 0.37841 0.06457 0.1566 0.0
C393 C 0.40055 0.04212 0.13346 0.0
C394 C 0.32516 0.14423 0.23988 0.0
C395 C 0.30637 0.16668 0.20866 0.0
C396 C 0.34775 0.12192 0.2173 0.0
C397 C 0.3521 0.12156 0.16299 0.0
C398 C 0.33329 0.14403 0.13186 0.0
C399 C 0.31073 0.16629 0.15437 0.0
H400 H 0.94071 0.87174 0.55318 0.0
H401 H 0.88805 0.95597 0.61808 0.0
H402 H 0.90243 0.8336 0.59747 0.0
H403 H 0.84974 0.91779 0.66188 0.0
H404 H 0.76605 0.83717 0.6764 0.0
H405 H 0.80469 0.87556 0.63386 0.0
H406 H 0.88913 0.81792 0.69266 0.0
H407 H 0.85049 0.7795 0.73575 0.0
C408 C 0.92088 0.88213 0.57659 0.0
C409 C 0.91737 0.9169 0.582 0.0
C410 C 0.89916 0.86028 0.60225 0.0
C411 C 0.87319 0.87276 0.63315 0.0
C412 C 0.86943 0.9075 0.63806 0.0
C413 C 0.89144 0.92933 0.61308 0.0
C414 C 0.79286 0.83272 0.6805 0.0
C415 C 0.80521 0.80531 0.70954 0.0
C416 C 0.81496 0.8548 0.65628 0.0
C417 C 0.84987 0.84966 0.65988 0.0
C418 C 0.8623 0.8223 0.68894 0.0
C419 C 0.84019 0.80048 0.71389 0.0
H420 H 0.89598 0.01496 0.39874 0.0
H421 H 0.93306 0.09181 0.50272 0.0
H422 H 0.85629 0.0547 0.36006 0.0
H423 H 0.89379 0.13157 0.46321 0.0
H424 H 0.79445 0.18204 0.41861 0.0
H425 H 0.83265 0.14129 0.45809 0.0
H426 H 0.85833 0.10549 0.30526 0.0
H427 H 0.81966 0.14583 0.26553 0.0
C428 C 0.89569 0.04029 0.41334 0.0
C429 C 0.9176 0.05025 0.45385 0.0
C430 C 0.87311 0.06306 0.39095 0.0
C431 C 0.87205 0.09614 0.40868 0.0
C432 C 0.89384 0.10607 0.44928 0.0
C433 C 0.91642 0.08333 0.47168 0.0
C434 C 0.80819 0.16547 0.39336 0.0
C435 C 0.80408 0.16716 0.33893 0.0
C436 C 0.83016 0.14227 0.41601 0.0
C437 C 0.84842 0.12035 0.38468 0.0
C438 C 0.84422 0.12189 0.3303 0.0
C439 C 0.82223 0.14509 0.3076 0.0
H440 H 0.64307 0.16121 0.27485 0.0
H441 H 0.69684 0.16808 0.13026 0.0
H442 H 0.60447 0.12112 0.23546 0.0
H443 H 0.65934 0.12685 0.09153 0.0
H444 H 0.56087 0.02638 0.1677 0.0
H445 H 0.60056 0.06567 0.20619 0.0
H446 H 0.60403 0.11964 0.05985 0.0
H447 H 0.56555 0.07931 1.02081 0.0
C448 C 0.64683 0.15386 0.2348 0.0
C449 C 0.67287 0.16782 0.20558 0.0
C450 C 0.62484 0.13072 0.21226 0.0
C451 C 0.62878 0.12065 0.16026 0.0
C452 C 0.65512 0.13446 0.13131 0.0
C453 C 0.67676 0.15797 0.1536 0.0
C454 C 0.57024 0.04659 0.14374 0.0
C455 C 0.56016 0.0498 0.09126 0.0
C456 C 0.59282 0.06927 0.1659 0.0
C457 C 0.60542 0.09599 0.13627 0.0
C458 C 0.59533 0.09908 0.08364 0.0
C459 C 0.57313 0.07606 0.06127 0.0
H460 H 0.6278 0.79182 0.78614 0.0
H461 H 0.70575 0.8206 0.89638 0.0
H462 H 0.5885 0.82932 0.82852 0.0
H463 H 0.66665 0.85851 0.93795 0.0
H464 H 0.57819 0.89787 0.03204 0.0
H465 H 0.61657 0.85862 0.99114 0.0
H466 H 0.57843 0.88857 0.83932 0.0
H467 H 0.53975 0.92719 0.87993 0.0
C468 C 0.63664 0.80624 0.8192 0.0
C469 C 0.67002 0.80322 0.83765 0.0
C470 C 0.61412 0.82786 0.8434 0.0
C471 C 0.6244 0.84697 0.88666 0.0
C472 C 0.65775 0.84387 0.90517 0.0
C473 C 0.68027 0.82229 0.88098 0.0
C474 C 0.57794 0.89604 0.98995 0.0
C475 C 0.55584 0.91574 0.95938 0.0
C476 C 0.60008 0.87365 0.96647 0.0
C477 C 0.6006 0.87041 0.9119 0.0
C478 C 0.5784 0.89004 0.88144 0.0
C479 C 0.55633 0.9124 0.90484 0.0
H480 H 0.54157 0.58996 0.99344 0.0
H481 H 0.57273 0.51486 0.88378 0.0
H482 H 0.58039 0.62962 0.95491 0.0
H483 H 0.61206 0.55449 0.8459 0.0
H484 H 0.65377 0.64566 0.75816 0.0
H485 H 0.61374 0.60605 0.79451 0.0
H486 H 0.64056 0.63879 0.94979 0.0
H487 H 0.68003 0.67871 0.91365 0.0
C488 C 0.55673 0.58183 0.9612 0.0
C489 C 0.55405 0.54912 0.94188 0.0
C490 C 0.57916 0.60457 0.93929 0.0
C491 C 0.59947 0.59521 0.89747 0.0
C492 C 0.59655 0.56262 0.87774 0.0
C493 C 0.57413 0.53982 0.89971 0.0
C494 C 0.65114 0.64443 0.80006 0.0
C495 C 0.67012 0.66546 0.83293 0.0
C496 C 0.6283 0.62158 0.8209 0.0
C497 C 0.62387 0.61929 0.87506 0.0
C498 C 0.64296 0.64024 0.90786 0.0
C499 C 0.66578 0.66303 0.88709 0.0
H500 H 0.62786 0.28302 0.23232 0.0
H501 H 0.71295 0.33506 0.16737 0.0
H502 H 0.58969 0.32104 0.18571 0.0
H503 H 0.67466 0.3729 0.12095 0.0
H504 H 0.59246 0.45517 0.10196 0.0
H505 H 0.63165 0.41742 0.14682 0.0
H506 H 0.57567 0.33263 0.08887 0.0
H507 H 0.53635 0.37025 0.04388 0.0
C508 C 0.63839 0.30265 0.20839 0.0
C509 C 0.67334 0.30613 0.20346 0.0
C510 C 0.61658 0.32417 0.1815 0.0
C511 C 0.62941 0.34965 0.14979 0.0
C512 C 0.66429 0.35347 0.14545 0.0
C513 C 0.6861 0.33177 0.17187 0.0
C514 C 0.58861 0.42848 0.09854 0.0
C515 C 0.56136 0.4156 0.06954 0.0
C516 C 0.61107 0.40696 0.12403 0.0
C517 C 0.6064 0.37229 0.12134 0.0
C518 C 0.57947 0.35936 0.09183 0.0
C519 C 0.5572 0.38086 0.06584 0.0
H520 H 0.8864 0.45601 0.4337 0.0
H521 H 0.943 0.37198 0.49572 0.0
H522 H 0.84806 0.41771 0.38925 0.0
H523 H 0.90448 0.33371 0.45108 0.0
H524 H 0.85149 0.28149 0.31098 0.0
H525 H 0.8899 0.31975 0.35597 0.0
H526 H 0.80509 0.37421 0.41561 0.0
H527 H 0.76669 0.33619 0.37086 0.0
C528 C 0.89057 0.42938 0.43803 0.0
C529 C 0.91766 0.41698 0.46826 0.0
C530 C 0.86857 0.40751 0.41272 0.0
C531 C 0.87345 0.37285 0.4167 0.0
C532 C 0.90042 0.36038 0.44707 0.0
C533 C 0.92223 0.38226 0.47291 0.0
C534 C 0.84106 0.30174 0.33345 0.0
C535 C 0.80609 0.30587 0.33735 0.0
C536 C 0.86302 0.32342 0.35947 0.0
C537 C 0.85036 0.3498 0.38924 0.0
C538 C 0.81544 0.35418 0.39259 0.0
C539 C 0.79351 0.33233 0.36712 0.0
H540 H 0.82184 0.64491 0.78054 0.0
H541 H 0.79557 0.68172 0.62646 0.0
H542 H 0.86158 0.60586 0.74267 0.0
H543 H 0.83477 0.64224 0.58868 0.0
H544 H 0.93362 0.5926 0.54347 0.0
H545 H 0.8946 0.63192 0.5822 0.0
H546 H 0.86297 0.55558 0.69041 0.0
H547 H 0.90248 0.51641 0.65246 0.0
C548 C 0.8244 0.64461 0.7386 0.0
C549 C 0.80548 0.66653 0.70661 0.0
C550 C 0.84708 0.62207 0.71685 0.0
C551 C 0.85141 0.62089 0.6626 0.0
C552 C 0.83244 0.64278 0.63065 0.0
C553 C 0.80977 0.66531 0.65236 0.0
C554 C 0.91838 0.58415 0.57553 0.0
C555 C 0.92122 0.55127 0.59474 0.0
C556 C 0.89584 0.60668 0.59757 0.0
C557 C 0.87557 0.59693 0.63938 0.0
C558 C 0.87848 0.56408 0.65869 0.0
C559 C 0.90102 0.54153 0.63665 0.0
H560 H 0.34965 0.28961 0.25811 0.0
H561 H 0.27011 0.324 0.15401 0.0
H562 H 0.38938 0.32586 0.2137 0.0
H563 H 0.30967 0.3606 0.11043 0.0
H564 H 0.39677 0.39594 1.00975 0.0
H565 H 0.35792 0.35823 0.0534 0.0
H566 H 0.40221 0.38462 0.20238 0.0
H567 H 0.44132 0.42165 0.159 0.0
C568 C 0.34055 0.30506 0.22607 0.0
C569 C 0.30663 0.30387 0.20977 0.0
C570 C 0.36333 0.32593 0.20068 0.0
C571 C 0.35275 0.34609 0.15838 0.0
C572 C 0.3188 0.34504 0.14232 0.0
C573 C 0.29603 0.32421 0.16769 0.0
C574 C 0.39829 0.39362 0.05179 0.0
C575 C 0.42219 0.41188 0.08076 0.0
C576 C 0.37588 0.37214 0.07686 0.0
C577 C 0.37691 0.36842 0.13144 0.0
C578 C 0.40098 0.38653 0.16028 0.0
C579 C 0.42331 0.40796 0.1353 0.0
H580 H 0.41206 0.52058 0.87312 0.0
H581 H 0.41282 0.57469 1.01839 0.0
H582 H 0.37283 0.56107 0.83554 0.0
H583 H 0.37471 0.61611 0.98016 0.0
H584 H 0.28256 0.6675 0.91097 0.0
H585 H 0.31864 0.62474 0.94988 0.0
H586 H 0.37284 0.61723 0.80562 0.0
H587 H 0.33573 0.65899 0.76606 0.0
C588 C 0.40389 0.54125 0.89691 0.0
C589 C 0.41546 0.54464 0.94856 0.0
C590 C 0.38162 0.56455 0.87531 0.0
C591 C 0.37091 0.59197 0.9047 0.0
C592 C 0.38214 0.59503 0.9567 0.0
C593 C 0.40404 0.5714 0.97857 0.0
C594 C 0.30222 0.65671 0.88763 0.0
C595 C 0.3064 0.66648 0.83551 0.0
C596 C 0.32298 0.63232 0.90999 0.0
C597 C 0.34859 0.61758 0.88085 0.0
C598 C 0.35291 0.62763 0.8288 0.0
C599 C 0.33183 0.65169 0.80622 0.0
H600 H 0.19904 0.66581 0.6271 0.0
H601 H 0.1472 0.65793 0.77331 0.0
H602 H 0.16106 0.62468 0.58896 0.0
H603 H 0.10822 0.61806 0.73464 0.0
H604 H 0.06304 0.5243 0.66784 0.0
H605 H 0.10395 0.56287 0.70488 0.0
H606 H 0.10514 0.61765 0.55912 0.0
H607 H 0.06535 0.57797 0.52139 0.0
C608 C 0.17934 0.65545 0.65096 0.0
C609 C 0.17611 0.66499 0.7032 0.0
C610 C 0.15743 0.63202 0.62901 0.0
C611 C 0.1315 0.61802 0.65865 0.0
C612 C 0.12828 0.62777 0.71092 0.0
C613 C 0.15051 0.6508 0.73306 0.0
C614 C 0.07214 0.54455 0.64368 0.0
C615 C 0.06098 0.54822 0.59178 0.0
C616 C 0.09545 0.5668 0.66501 0.0
C617 C 0.10771 0.59357 0.63517 0.0
C618 C 0.09665 0.59705 0.58303 0.0
C619 C 0.07371 0.57444 0.56144 0.0
H620 H 0.191 0.29462 0.41874 0.0
H621 H 0.14506 0.31721 0.26919 0.0
H622 H 0.15125 0.33138 0.46098 0.0
H623 H 0.10671 0.35606 0.31049 0.0
H624 H 0.02193 0.4015 0.4004 0.0
H625 H 0.06016 0.36227 0.36022 0.0
H626 H 0.13588 0.3851 0.47789 0.0
H627 H 0.09639 0.42243 0.51994 0.0
C628 C 0.17263 0.30794 0.39482 0.0
C629 C 0.17108 0.30311 0.34071 0.0
C630 C 0.1499 0.3293 0.41898 0.0
C631 C 0.12554 0.34711 0.38946 0.0
C632 C 0.12441 0.34239 0.33501 0.0
C633 C 0.1466 0.32031 0.31107 0.0
C634 C 0.04674 0.39793 0.41772 0.0
C635 C 0.05621 0.41494 0.46331 0.0
C636 C 0.0689 0.37561 0.3944 0.0
C637 C 0.10151 0.37038 0.41527 0.0
C638 C 0.11089 0.3877 0.46097 0.0
C639 C 0.08834 0.40937 0.48506 0.0
H640 H 0.02643 0.03313 0.90111 0.0
H641 H 0.94065 0.96933 0.87264 0.0
H642 H 0.02447 0.01989 0.99373 0.0
H643 H 0.93848 0.95623 0.96548 0.0
H644 H 0.96686 0.91323 0.12629 0.0
H645 H 0.96811 0.92655 0.03366 0.0
H646 H -0.00812 0.02916 0.07012 0.0
H647 H -0.00774 0.01547 0.16273 0.0
C648 C 0.00691 0.01652 0.91468 0.0
C649 C 0.98365 0.00236 0.87932 0.0
C650 C 0.00575 0.00895 0.96791 0.0
C651 C 0.98124 -0.01295 0.98734 0.0
C652 C 0.95801 0.97282 0.95194 0.0
C653 C 0.95923 0.98034 0.89862 0.0
C654 C 0.97266 0.93858 0.11463 0.0
C655 C 0.97962 0.9632 0.15223 0.0
C656 C 0.97296 0.94634 0.06138 0.0
C657 C 0.98014 0.97895 0.04418 0.0
C658 C 0.98668 0.00367 0.08179 0.0
C659 C 0.98645 -0.00409 0.13505 0.0
H660 H 0.30905 0.72078 0.38247 0.0
H661 H 0.21152 0.76357 0.41281 0.0
H662 H 0.29628 0.72163 0.28944 0.0
H663 H 0.19807 0.76285 0.31985 0.0
H664 H 0.19802 0.78877 0.14603 0.0
H665 H 0.2116 0.78951 0.23906 0.0
H666 H 0.26218 0.6944 0.22515 0.0
H667 H 0.24898 0.69398 0.13209 0.0
C668 C 0.28488 0.73045 0.36936 0.0
C669 C 0.26138 0.74221 0.40537 0.0
C670 C 0.27737 0.73052 0.31591 0.0
C671 C 0.24608 0.74223 0.2969 0.0
C672 C 0.22256 0.75399 0.33289 0.0
C673 C 0.23012 0.75401 0.38638 0.0
C674 C 0.21191 0.76796 0.16292 0.0
C675 C 0.22245 0.74135 0.13155 0.0
C676 C 0.21964 0.76832 0.21634 0.0
C677 C 0.238 0.742 0.23985 0.0
C678 C 0.24853 0.7154 0.20837 0.0
C679 C 0.24093 0.71512 0.15494 0.0
H680 H 0.44496 0.03993 0.64146 0.0
H681 H 0.5188 0.96264 0.67147 0.0
H682 H 0.44486 0.02638 0.54899 0.0
H683 H 0.51902 0.94928 0.57896 0.0
H684 H 0.48846 0.91244 0.41753 0.0
H685 H 0.48623 0.92517 0.51001 0.0
H686 H 0.47889 0.03043 0.47327 0.0
H687 H 0.4793 0.01757 0.38068 0.0
C688 C 0.46136 0.02018 0.62828 0.0
C689 C 0.4819 0.00241 0.664 0.0
C690 C 0.46136 0.01243 0.57516 0.0
C691 C 0.482 -0.01325 0.55623 0.0
C692 C 0.50239 0.96884 0.59206 0.0
C693 C 0.50229 0.97652 0.64522 0.0
C694 C 0.48589 0.93829 0.42904 0.0
C695 C 0.48399 0.96393 0.39132 0.0
C696 C 0.48508 0.94564 0.48227 0.0
C697 C 0.48246 0.97887 0.49938 0.0
C698 C 0.48052 0.00452 0.46169 0.0
C699 C 0.48122 -0.00285 0.40844 0.0
H700 H 0.24383 0.19042 0.91154 0.0
H701 H 0.20081 0.28906 0.89446 0.0
H702 H 0.25692 0.19012 0.81915 0.0
H703 H 0.21435 0.28908 0.8021 0.0
H704 H 0.21243 0.26433 0.62834 0.0
H705 H 0.19892 0.26435 0.72059 0.0
H706 H 0.29301 0.21436 0.7563 0.0
H707 H 0.30565 0.21277 0.66397 0.0
C708 C 0.23752 0.21223 0.88817 0.0
C709 C 0.22128 0.23977 0.9105 0.0
C710 C 0.24507 0.2121 0.83509 0.0
C711 C 0.23676 0.23959 0.80288 0.0
C712 C 0.22064 0.26721 0.82535 0.0
C713 C 0.21293 0.26726 0.8784 0.0
C714 C 0.23008 0.25299 0.65577 0.0
C715 C 0.26015 0.23852 0.63842 0.0
C716 C 0.22253 0.2534 0.70889 0.0
C717 C 0.24486 0.23939 0.74619 0.0
C718 C 0.27497 0.22503 0.72882 0.0
C719 C 0.28246 0.22453 0.67575 0.0
H720 H 0.76555 0.18872 0.89698 0.0
H721 H 0.75039 0.2954 0.9049 0.0
H722 H 0.75228 0.19012 0.80398 0.0
H723 H 0.73745 0.29693 0.8116 0.0
H724 H 0.68298 0.28171 0.65442 0.0
H725 H 0.69578 0.28077 0.74763 0.0
H726 H 0.77453 0.20841 0.72243 0.0
H727 H 0.76073 0.20827 0.62961 0.0
C728 C 0.75968 0.21255 0.87877 0.0
C729 C 0.75915 0.24197 0.90847 0.0
C730 C 0.75212 0.21337 0.82532 0.0
C731 C 0.74392 0.24366 0.79999 0.0
C732 C 0.74319 0.27307 0.8298 0.0
C733 C 0.75064 0.27222 0.88336 0.0
C734 C 0.70284 0.26538 0.66878 0.0
C735 C 0.72072 0.24499 0.63432 0.0
C736 C 0.71047 0.26513 0.72226 0.0
C737 C 0.73618 0.24447 0.7428 0.0
C738 C 0.75427 0.22433 0.70824 0.0
C739 C 0.74665 0.22457 0.65478 0.0
H740 H 0.75861 0.7792 0.41444 0.0
H741 H 0.68029 0.70678 0.38481 0.0
H742 H 0.77195 0.77979 0.32199 0.0
H743 H 0.69374 0.70713 0.29262 0.0
H744 H 0.70411 0.73856 0.12323 0.0
H745 H 0.69043 0.74082 0.2153 0.0
H746 H 0.79627 0.74626 0.25525 0.0
H747 H 0.80986 0.74571 0.16313 0.0
C748 C 0.7444 0.7632 0.3883 0.0
C749 C 0.7183 0.74302 0.40719 0.0
C750 C 0.75207 0.76351 0.3352 0.0
C751 C 0.7339 0.74356 0.29957 0.0
C752 C 0.70787 0.72332 0.31858 0.0
C753 C 0.70016 0.72308 0.37159 0.0
C754 C 0.72448 0.74074 0.15154 0.0
C755 C 0.75813 0.7419 0.13547 0.0
C756 C 0.71664 0.74158 0.20452 0.0
C757 C 0.74222 0.74355 0.24298 0.0
C758 C 0.77585 0.74506 0.22688 0.0
C759 C 0.78368 0.74429 0.17391 0.0
H760 H 0.54443 0.44947 0.63883 0.0
H761 H 0.43771 0.46987 0.6373 0.0
H762 H 0.54623 0.46152 0.54549 0.0
H763 H 0.43963 0.48258 0.54422 0.0
H764 H 0.44948 0.46704 0.36803 0.0
H765 H 0.44842 0.45363 0.46091 0.0
H766 H 0.54018 0.50945 0.48503 0.0
H767 H 0.54168 0.52223 0.39193 0.0
C768 C 0.52134 0.45647 0.61855 0.0
C769 C 0.49092 0.45869 0.64555 0.0
C770 C 0.52243 0.46367 0.56515 0.0
C771 C 0.49307 0.473 0.53735 0.0
C772 C 0.46264 0.47515 0.56434 0.0
C773 C 0.46161 0.46821 0.6178 0.0
C774 C 0.46963 0.47616 0.39305 0.0
C775 C 0.49568 0.4957 0.37248 0.0
C776 C 0.46882 0.46878 0.44639 0.0
C777 C 0.49416 0.48055 0.48046 0.0
C778 C 0.52041 0.49978 0.45982 0.0
C779 C 0.5211 0.50736 0.40653 0.0
H780 H 0.03821 0.47515 0.90079 0.0
H781 H 0.93264 0.44992 0.90186 0.0
H782 H 0.0365 0.48761 0.99373 0.0
H783 H 0.93108 0.46174 0.99509 0.0
H784 H 0.9343 0.52256 0.14773 0.0
H785 H 0.93543 0.50994 0.05476 0.0
H786 H 0.02983 0.4579 0.07755 0.0
H787 H 0.02908 0.47115 0.17026 0.0
C788 C 0.0146 0.47238 0.92083 0.0
C789 C 0.98556 0.46158 0.89387 0.0
C790 C 0.0137 0.47918 0.97421 0.0
C791 C 0.98367 0.4756 1.00189 0.0
C792 C 0.95456 0.465 0.97486 0.0
C793 C 0.95553 0.45793 0.92155 0.0
C794 C 0.95536 0.50855 0.13285 0.0
C795 C 0.98162 0.49791 0.16645 0.0
C796 C 0.95586 0.50105 0.07966 0.0
C797 C 0.98275 0.48296 0.05869 0.0
C798 C 0.00892 0.47218 0.09234 0.0
C799 C 0.00831 0.47946 0.14558 0.0
loop_
_geom_bond_atom_site_label_1
_geom_bond_atom_site_label_2
_geom_bond_distance
_geom_bond_site_symmetry_2
_ccdc_geom_bond_type
Dy0 O3 2.307 . S
Dy0 O5 2.395 . S
Dy0 O6 2.379 1_455 S
Dy0 O8 2.339 1_455 S
Dy0 O10 2.298 1_445 S
Dy0 O14 2.275 1_545 S
Dy0 C22 2.738 1_455 S
Dy1 O4 2.298 1_665 S
Dy1 O7 2.275 1_565 S
Dy1 O9 2.307 . S
Dy1 O11 2.395 . S
Dy1 O12 2.379 1_655 S
Dy1 O15 2.339 1_655 S
Dy1 C31 2.738 1_655 S
C2 O14 1.254 . S
C2 O15 1.257 . S
O3 Dy0 2.307 . S
O3 C13 1.266 . S
O4 Dy1 2.298 1_445 S
O4 C13 1.236 . S
O5 Dy0 2.395 . S
O5 C22 1.255 1_455 S
O6 Dy0 2.379 1_655 S
O6 C22 1.249 . S
O7 Dy1 2.275 1_545 S
O7 C23 1.254 . S
O8 Dy0 2.339 1_655 S
O8 C23 1.257 . S
O9 Dy1 2.307 . S
O9 C24 1.266 . S
O10 Dy0 2.298 1_665 S
O10 C24 1.236 . S
O11 Dy1 2.395 . S
O11 C31 1.255 1_655 S
O12 Dy1 2.379 1_455 S
O12 C31 1.249 . S
C13 O3 1.266 . S
C13 O4 1.236 . S
O14 Dy0 2.275 1_565 S
O14 C2 1.254 . S
O15 Dy1 2.339 1_455 S
O15 C2 1.257 . S
C16 C19 1.351 1_545 S
C16 C20 1.328 . S
C16 C22 1.516 . S
C17 C18 1.304 1_545 S
C17 C21 1.323 . S
C18 C17 1.304 1_565 S
C18 C19 1.377 . S
C18 H32 0.930 1_655 S
C19 C16 1.351 1_565 S
C19 C18 1.377 . S
C19 H33 0.919 1_655 S
C20 C16 1.328 . S
C20 C21 1.433 . S
C20 H34 0.931 . S
C21 C17 1.323 . S
C21 C20 1.433 . S
C21 H35 0.933 . S
C22 Dy0 2.738 1_655 S
C22 O5 1.255 1_655 S
C22 O6 1.249 . S
C22 C16 1.516 . S
C23 O7 1.254 . S
C23 O8 1.257 . S
C24 O9 1.266 . S
C24 O10 1.236 . S
C25 C28 1.344 1_565 S
C25 C29 1.328 . S
C25 C31 1.516 . S
C26 C27 1.304 1_565 S
C26 C30 1.323 . S
C27 C26 1.304 1_545 S
C27 C28 1.371 . S
C27 H36 0.930 1_455 S
C28 C25 1.344 1_545 S
C28 C27 1.371 . S
C28 H37 0.931 1_455 S
C29 C25 1.328 . S
C29 C30 1.433 . S
C29 H38 0.931 . S
C30 C26 1.323 . S
C30 C29 1.433 . S
C30 H39 0.933 . S
C31 Dy1 2.738 1_455 S
C31 O11 1.255 1_455 S
C31 O12 1.249 . S
C31 C25 1.516 . S
H32 C18 0.930 1_455 S
H33 C19 0.919 1_455 S
H34 C20 0.931 . S
H35 C21 0.933 . S
H36 C27 0.930 1_655 S
H37 C28 0.931 1_655 S
H38 C29 0.931 . S
H39 C30 0.933 . S
Dy40 O43 2.307 . S
Dy40 O45 2.395 . S
Dy40 O46 2.379 . S
Dy40 O48 2.339 . S
Dy40 O50 2.298 . S
Dy40 O54 2.275 . S
Dy40 C62 2.738 . S
Dy41 O44 2.298 . S
Dy41 O47 2.275 . S
Dy41 O49 2.307 . S
Dy41 O51 2.395 . S
Dy41 O52 2.379 . S
Dy41 O55 2.339 . S
Dy41 C71 2.738 . S
C42 O54 1.254 . S
C42 O55 1.257 . S
O43 Dy40 2.307 . S
O43 C53 1.266 . S
O44 Dy41 2.298 . S
O44 C53 1.236 . S
O45 Dy40 2.395 . S
O45 C62 1.255 . S
O46 Dy40 2.379 . S
O46 C62 1.249 . S
O47 Dy41 2.275 . S
O47 C63 1.254 . S
O48 Dy40 2.339 . S
O48 C63 1.257 . S
O49 Dy41 2.307 . S
O49 C64 1.266 . S
O50 Dy40 2.298 . S
O50 C64 1.236 . S
O51 Dy41 2.395 . S
O51 C71 1.255 . S
O52 Dy41 2.379 . S
O52 C71 1.249 . S
C53 O43 1.266 . S
C53 O44 1.236 . S
O54 Dy40 2.275 . S
O54 C42 1.254 . S
O55 Dy41 2.339 . S
O55 C42 1.257 . S
C56 C59 1.344 . S
C56 C60 1.328 . S
C56 C62 1.516 . S
C57 C58 1.304 . S
C57 C61 1.323 . S
C58 C57 1.304 . S
C58 C59 1.371 . S
C58 H72 0.930 . S
C59 C56 1.344 . S
C59 C58 1.371 . S
C59 H73 0.931 . S
C60 C56 1.328 . S
C60 C61 1.433 . S
C60 H74 0.931 . S
C61 C57 1.323 . S
C61 C60 1.433 . S
C61 H75 0.933 . S
C62 Dy40 2.738 . S
C62 O45 1.255 . S
C62 O46 1.249 . S
C62 C56 1.516 . S
C63 O47 1.254 . S
C63 O48 1.257 . S
C64 O49 1.266 . S
C64 O50 1.236 . S
C65 C68 1.344 . S
C65 C69 1.328 . S
C65 C71 1.516 . S
C66 C67 1.304 . S
C66 C70 1.323 . S
C67 C66 1.304 . S
C67 C68 1.371 1_554 S
C67 H76 0.930 . S
C68 C65 1.344 . S
C68 C67 1.371 1_556 S
C68 H77 0.931 . S
C69 C65 1.328 . S
C69 C70 1.433 1_556 S
C69 H78 0.931 . S
C70 C66 1.323 . S
C70 C69 1.433 1_554 S
C70 H79 0.933 . S
C71 Dy41 2.738 . S
C71 O51 1.255 . S
C71 O52 1.249 . S
C71 C65 1.516 . S
H72 C58 0.930 . S
H73 C59 0.931 . S
H74 C60 0.931 . S
H75 C61 0.933 . S
H76 C67 0.930 . S
H77 C68 0.931 . S
H78 C69 0.931 . S
H79 C70 0.933 . S
Dy80 O83 2.318 . S
Dy80 O85 2.395 . S
Dy80 O86 2.379 . S
Dy80 O88 2.339 . S
Dy80 O90 2.298 1_545 S
Dy80 O94 2.275 1_545 S
Dy80 C102 2.738 . S
Dy81 O84 2.298 1_565 S
Dy81 O87 2.275 1_565 S
Dy81 O89 2.322 . S
Dy81 O91 2.395 . S
Dy81 O92 2.379 . S
Dy81 O95 2.339 . S
Dy81 C111 2.738 . S
C82 O94 1.254 . S
C82 O95 1.257 1_556 S
O83 Dy80 2.318 . S
O83 C93 1.253 1_556 S
O84 Dy81 2.298 1_545 S
O84 C93 1.236 . S
O85 Dy80 2.395 . S
O85 C102 1.255 . S
O86 Dy80 2.379 . S
O86 C102 1.249 . S
O87 Dy81 2.275 1_545 S
O87 C103 1.254 . S
O88 Dy80 2.339 . S
O88 C103 1.257 1_556 S
O89 Dy81 2.322 . S
O89 C104 1.248 1_554 S
O90 Dy80 2.298 1_565 S
O90 C104 1.236 . S
O91 Dy81 2.395 . S
O91 C111 1.255 . S
O92 Dy81 2.379 . S
O92 C111 1.249 . S
C93 O83 1.253 1_554 S
C93 O84 1.236 . S
O94 Dy80 2.275 1_565 S
O94 C82 1.254 . S
O95 Dy81 2.339 . S
O95 C82 1.257 1_554 S
C96 C99 1.344 1_545 S
C96 C100 1.328 . S
C96 C102 1.516 . S
C97 C98 1.304 1_545 S
C97 C101 1.323 . S
C98 C97 1.304 1_565 S
C98 C99 1.371 . S
C98 H112 0.930 . S
C99 C96 1.344 1_565 S
C99 C98 1.371 . S
C99 H113 0.931 . S
C100 C96 1.328 . S
C100 C101 1.433 . S
C100 H114 0.931 . S
C101 C97 1.323 . S
C101 C100 1.433 . S
C101 H115 0.933 . S
C102 Dy80 2.738 . S
C102 O85 1.255 . S
C102 O86 1.249 . S
C102 C96 1.516 . S
C103 O87 1.254 . S
C103 O88 1.257 1_554 S
C104 O89 1.248 1_556 S
C104 O90 1.236 . S
C105 C108 1.344 1_565 S
C105 C109 1.328 . S
C105 C111 1.516 . S
C106 C107 1.304 1_565 S
C106 C110 1.323 . S
C107 C106 1.304 1_545 S
C107 C108 1.371 . S
C107 H116 0.930 . S
C108 C105 1.344 1_545 S
C108 C107 1.371 . S
C108 H117 0.931 . S
C109 C105 1.328 . S
C109 C110 1.433 . S
C109 H118 0.931 . S
C110 C106 1.323 . S
C110 C109 1.433 . S
C110 H119 0.933 . S
C111 Dy81 2.738 . S
C111 O91 1.255 . S
C111 O92 1.249 . S
C111 C105 1.516 . S
H112 C98 0.930 . S
H113 C99 0.931 . S
H114 C100 0.931 . S
H115 C101 0.933 . S
H116 C107 0.930 . S
H117 C108 0.931 . S
H118 C109 0.931 . S
H119 C110 0.933 . S
Dy120 O123 2.307 . S
Dy120 O125 2.395 . S
Dy120 O126 2.379 . S
Dy120 O128 2.339 . S
Dy120 O130 2.298 . S
Dy120 O134 2.275 . S
Dy120 C142 2.738 . S
Dy121 O124 2.298 . S
Dy121 O127 2.275 . S
Dy121 O129 2.307 . S
Dy121 O131 2.395 . S
Dy121 O132 2.379 . S
Dy121 O135 2.339 . S
Dy121 C151 2.738 . S
C122 O134 1.254 . S
C122 O135 1.257 . S
O123 Dy120 2.307 . S
O123 C133 1.266 . S
O124 Dy121 2.298 . S
O124 C133 1.236 . S
O125 Dy120 2.395 . S
O125 C142 1.255 . S
O126 Dy120 2.379 . S
O126 C142 1.249 . S
O127 Dy121 2.275 . S
O127 C143 1.254 . S
O128 Dy120 2.339 . S
O128 C143 1.257 . S
O129 Dy121 2.307 . S
O129 C144 1.266 . S
O130 Dy120 2.298 . S
O130 C144 1.236 . S
O131 Dy121 2.395 . S
O131 C151 1.255 . S
O132 Dy121 2.379 . S
O132 C151 1.249 . S
C133 O123 1.266 . S
C133 O124 1.236 . S
O134 Dy120 2.275 . S
O134 C122 1.254 . S
O135 Dy121 2.339 . S
O135 C122 1.257 . S
C136 C139 1.344 . S
C136 C140 1.328 . S
C136 C142 1.516 . S
C137 C138 1.304 . S
C137 C141 1.323 . S
C138 C137 1.304 . S
C138 C139 1.371 1_556 S
C138 H152 0.930 . S
C139 C136 1.344 . S
C139 C138 1.371 1_554 S
C139 H153 0.931 . S
C140 C136 1.328 . S
C140 C141 1.433 1_554 S
C140 H154 0.931 . S
C141 C137 1.323 . S
C141 C140 1.433 1_556 S
C141 H155 0.933 . S
C142 Dy120 2.738 . S
C142 O125 1.255 . S
C142 O126 1.249 . S
C142 C136 1.516 . S
C143 O127 1.254 . S
C143 O128 1.257 . S
C144 O129 1.266 . S
C144 O130 1.236 . S
C145 C148 1.344 . S
C145 C149 1.328 . S
C145 C151 1.516 . S
C146 C147 1.304 . S
C146 C150 1.323 . S
C147 C146 1.304 . S
C147 C148 1.371 . S
C147 H156 0.930 . S
C148 C145 1.344 . S
C148 C147 1.371 . S
C148 H157 0.931 . S
C149 C145 1.328 . S
C149 C150 1.433 . S
C149 H158 0.931 . S
C150 C146 1.323 . S
C150 C149 1.433 . S
C150 H159 0.933 . S
C151 Dy121 2.738 . S
C151 O131 1.255 . S
C151 O132 1.249 . S
C151 C145 1.516 . S
H152 C138 0.930 . S
H153 C139 0.931 . S
H154 C140 0.931 . S
H155 C141 0.933 . S
H156 C147 0.930 . S
H157 C148 0.931 . S
H158 C149 0.931 . S
H159 C150 0.933 . S
Dy160 O163 2.307 . S
Dy160 O165 2.395 . S
Dy160 O166 2.379 . S
Dy160 O168 2.339 . S
Dy160 O170 2.298 . S
Dy160 O174 2.275 . S
Dy160 C182 2.738 . S
Dy161 O164 2.298 . S
Dy161 O167 2.275 . S
Dy161 O169 2.307 . S
Dy161 O171 2.395 . S
Dy161 O172 2.379 . S
Dy161 O175 2.339 . S
Dy161 C191 2.738 . S
C162 O174 1.254 . S
C162 O175 1.257 . S
O163 Dy160 2.307 . S
O163 C173 1.266 . S
O164 Dy161 2.298 . S
O164 C173 1.236 . S
O165 Dy160 2.395 . S
O165 C182 1.255 . S
O166 Dy160 2.379 . S
O166 C182 1.249 . S
O167 Dy161 2.275 . S
O167 C183 1.254 . S
O168 Dy160 2.339 . S
O168 C183 1.257 . S
O169 Dy161 2.307 . S
O169 C184 1.266 . S
O170 Dy160 2.298 . S
O170 C184 1.236 . S
O171 Dy161 2.395 . S
O171 C191 1.255 . S
O172 Dy161 2.379 . S
O172 C191 1.249 . S
C173 O163 1.266 . S
C173 O164 1.236 . S
O174 Dy160 2.275 . S
O174 C162 1.254 . S
O175 Dy161 2.339 . S
O175 C162 1.257 . S
C176 C179 1.344 . S
C176 C180 1.328 . S
C176 C182 1.516 . S
C177 C178 1.304 . S
C177 C181 1.323 . S
C178 C177 1.304 . S
C178 C179 1.371 1_556 S
C178 H192 0.930 . S
C179 C176 1.344 . S
C179 C178 1.371 1_554 S
C179 H193 0.931 . S
C180 C176 1.328 . S
C180 C181 1.433 1_554 S
C180 H194 0.931 . S
C181 C177 1.323 . S
C181 C180 1.433 1_556 S
C181 H195 0.933 . S
C182 Dy160 2.738 . S
C182 O165 1.255 . S
C182 O166 1.249 . S
C182 C176 1.516 . S
C183 O167 1.254 . S
C183 O168 1.257 . S
C184 O169 1.266 . S
C184 O170 1.236 . S
C185 C188 1.344 . S
C185 C189 1.328 . S
C185 C191 1.516 . S
C186 C187 1.304 . S
C186 C190 1.323 . S
C187 C186 1.304 . S
C187 C188 1.371 . S
C187 H196 0.930 . S
C188 C185 1.344 . S
C188 C187 1.371 . S
C188 H197 0.931 . S
C189 C185 1.328 . S
C189 C190 1.433 . S
C189 H198 0.931 . S
C190 C186 1.323 . S
C190 C189 1.433 . S
C190 H199 0.933 . S
C191 Dy161 2.738 . S
C191 O171 1.255 . S
C191 O172 1.249 . S
C191 C185 1.516 . S
H192 C178 0.930 . S
H193 C179 0.931 . S
H194 C180 0.931 . S
H195 C181 0.933 . S
H196 C187 0.930 . S
H197 C188 0.931 . S
H198 C189 0.931 . S
H199 C190 0.933 . S
Dy200 O203 2.307 . S
Dy200 O205 2.395 . S
Dy200 O206 2.379 . S
Dy200 O208 2.339 . S
Dy200 O210 2.298 . S
Dy200 O214 2.275 . S
Dy200 C222 2.738 . S
Dy201 O204 2.298 . S
Dy201 O207 2.275 . S
Dy201 O209 2.307 . S
Dy201 O211 2.395 . S
Dy201 O212 2.379 . S
Dy201 O215 2.339 . S
Dy201 C231 2.738 . S
C202 O214 1.254 . S
C202 O215 1.257 . S
O203 Dy200 2.307 . S
O203 C213 1.266 . S
O204 Dy201 2.298 . S
O204 C213 1.236 . S
O205 Dy200 2.395 . S
O205 C222 1.255 . S
O206 Dy200 2.379 . S
O206 C222 1.249 . S
O207 Dy201 2.275 . S
O207 C223 1.254 . S
O208 Dy200 2.339 . S
O208 C223 1.257 . S
O209 Dy201 2.307 . S
O209 C224 1.266 . S
O210 Dy200 2.298 . S
O210 C224 1.236 . S
O211 Dy201 2.395 . S
O211 C231 1.255 . S
O212 Dy201 2.379 . S
O212 C231 1.249 . S
C213 O203 1.266 . S
C213 O204 1.236 . S
O214 Dy200 2.275 . S
O214 C202 1.254 . S
O215 Dy201 2.339 . S
O215 C202 1.257 . S
C216 C219 1.344 . S
C216 C220 1.328 . S
C216 C222 1.516 . S
C217 C218 1.304 . S
C217 C221 1.323 . S
C218 C217 1.304 . S
C218 C219 1.371 . S
C218 H232 0.930 . S
C219 C216 1.344 . S
C219 C218 1.371 . S
C219 H233 0.931 . S
C220 C216 1.328 . S
C220 C221 1.433 . S
C220 H234 0.931 . S
C221 C217 1.323 . S
C221 C220 1.433 . S
C221 H235 0.933 . S
C222 Dy200 2.738 . S
C222 O205 1.255 . S
C222 O206 1.249 . S
C222 C216 1.516 . S
C223 O207 1.254 . S
C223 O208 1.257 . S
C224 O209 1.266 . S
C224 O210 1.236 . S
C225 C228 1.344 . S
C225 C229 1.328 . S
C225 C231 1.516 . S
C226 C227 1.304 . S
C226 C230 1.323 . S
C227 C226 1.304 . S
C227 C228 1.371 1_554 S
C227 H236 0.930 . S
C228 C225 1.344 . S
C228 C227 1.371 1_556 S
C228 H237 0.931 . S
C229 C225 1.328 . S
C229 C230 1.433 1_556 S
C229 H238 0.931 . S
C230 C226 1.323 . S
C230 C229 1.433 1_554 S
C230 H239 0.933 . S
C231 Dy201 2.738 . S
C231 O211 1.255 . S
C231 O212 1.249 . S
C231 C225 1.516 . S
H232 C218 0.930 . S
H233 C219 0.931 . S
H234 C220 0.931 . S
H235 C221 0.933 . S
H236 C227 0.930 . S
H237 C228 0.931 . S
H238 C229 0.931 . S
H239 C230 0.933 . S
Dy240 O243 2.307 . S
Dy240 O245 2.395 . S
Dy240 O246 2.379 . S
Dy240 O248 2.339 . S
Dy240 O250 2.298 . S
Dy240 O254 2.275 . S
Dy240 C262 2.738 . S
Dy241 O244 2.298 . S
Dy241 O247 2.275 . S
Dy241 O249 2.323 . S
Dy241 O251 2.395 . S
Dy241 O252 2.379 . S
Dy241 O255 2.339 . S
Dy241 C271 2.738 . S
C242 O254 1.254 . S
C242 O255 1.257 1_554 S
O243 Dy240 2.307 . S
O243 C253 1.266 1_554 S
O244 Dy241 2.298 . S
O244 C253 1.236 . S
O245 Dy240 2.395 . S
O245 C262 1.255 . S
O246 Dy240 2.379 . S
O246 C262 1.249 . S
O247 Dy241 2.275 . S
O247 C263 1.254 . S
O248 Dy240 2.339 . S
O248 C263 1.257 1_554 S
O249 Dy241 2.323 . S
O249 C264 1.248 1_556 S
O250 Dy240 2.298 . S
O250 C264 1.236 . S
O251 Dy241 2.395 . S
O251 C271 1.255 . S
O252 Dy241 2.379 . S
O252 C271 1.249 . S
C253 O243 1.266 1_556 S
C253 O244 1.236 . S
O254 Dy240 2.275 . S
O254 C242 1.254 . S
O255 Dy241 2.339 . S
O255 C242 1.257 1_556 S
C256 C259 1.344 . S
C256 C260 1.328 . S
C256 C262 1.516 . S
C257 C258 1.304 . S
C257 C261 1.323 . S
C258 C257 1.304 . S
C258 C259 1.371 . S
C258 H272 0.930 . S
C259 C256 1.344 . S
C259 C258 1.371 . S
C259 H273 0.931 . S
C260 C256 1.328 . S
C260 C261 1.433 . S
C260 H274 0.931 . S
C261 C257 1.323 . S
C261 C260 1.433 . S
C261 H275 0.933 . S
C262 Dy240 2.738 . S
C262 O245 1.255 . S
C262 O246 1.249 . S
C262 C256 1.516 . S
C263 O247 1.254 . S
C263 O248 1.257 1_556 S
C264 O249 1.248 1_554 S
C264 O250 1.236 . S
C265 C268 1.344 . S
C265 C269 1.328 . S
C265 C271 1.516 . S
C266 C267 1.304 . S
C266 C270 1.323 . S
C267 C266 1.304 . S
C267 C268 1.371 . S
C267 H276 0.930 . S
C268 C265 1.344 . S
C268 C267 1.371 . S
C268 H277 0.931 . S
C269 C265 1.328 . S
C269 C270 1.433 . S
C269 H278 0.931 . S
C270 C266 1.323 . S
C270 C269 1.433 . S
C270 H279 0.933 . S
C271 Dy241 2.738 . S
C271 O251 1.255 . S
C271 O252 1.249 . S
C271 C265 1.516 . S
H272 C258 0.930 . S
H273 C259 0.931 . S
H274 C260 0.931 . S
H275 C261 0.933 . S
H276 C267 0.930 . S
H277 C268 0.931 . S
H278 C269 0.931 . S
H279 C270 0.933 . S
Dy280 O283 2.307 . S
Dy280 O285 2.395 . S
Dy280 O286 2.379 1_655 S
Dy280 O288 2.339 1_655 S
Dy280 O290 2.298 1_655 S
Dy280 O294 2.275 . S
Dy280 C302 2.738 1_655 S
Dy281 O284 2.298 1_455 S
Dy281 O287 2.275 . S
Dy281 O289 2.307 . S
Dy281 O291 2.395 . S
Dy281 O292 2.379 1_455 S
Dy281 O295 2.339 1_455 S
Dy281 C311 2.738 1_455 S
C282 O294 1.254 . S
C282 O295 1.257 . S
O283 Dy280 2.307 . S
O283 C293 1.266 . S
O284 Dy281 2.298 1_655 S
O284 C293 1.236 . S
O285 Dy280 2.395 . S
O285 C302 1.255 1_655 S
O286 Dy280 2.379 1_455 S
O286 C302 1.249 . S
O287 Dy281 2.275 . S
O287 C303 1.254 . S
O288 Dy280 2.339 1_455 S
O288 C303 1.257 . S
O289 Dy281 2.307 . S
O289 C304 1.266 . S
O290 Dy280 2.298 1_455 S
O290 C304 1.236 . S
O291 Dy281 2.395 . S
O291 C311 1.255 1_455 S
O292 Dy281 2.379 1_655 S
O292 C311 1.249 . S
C293 O283 1.266 . S
C293 O284 1.236 . S
O294 Dy280 2.275 . S
O294 C282 1.254 . S
O295 Dy281 2.339 1_655 S
O295 C282 1.257 . S
C296 C299 1.348 . S
C296 C300 1.328 . S
C296 C302 1.516 . S
C297 C298 1.304 . S
C297 C301 1.323 . S
C298 C297 1.304 . S
C298 C299 1.374 . S
C298 H312 0.930 1_455 S
C299 C296 1.348 . S
C299 C298 1.374 . S
C299 H313 0.924 1_455 S
C300 C296 1.328 . S
C300 C301 1.433 . S
C300 H314 0.931 . S
C301 C297 1.323 . S
C301 C300 1.433 . S
C301 H315 0.933 . S
C302 Dy280 2.738 1_455 S
C302 O285 1.255 1_455 S
C302 O286 1.249 . S
C302 C296 1.516 . S
C303 O287 1.254 . S
C303 O288 1.257 . S
C304 O289 1.266 . S
C304 O290 1.236 . S
C305 C308 1.346 . S
C305 C309 1.328 . S
C305 C311 1.516 . S
C306 C307 1.304 . S
C306 C310 1.323 . S
C307 C306 1.304 . S
C307 C308 1.372 . S
C307 H316 0.930 1_655 S
C308 C305 1.346 . S
C308 C307 1.372 . S
C308 H317 0.928 1_655 S
C309 C305 1.328 . S
C309 C310 1.433 . S
C309 H318 0.931 . S
C310 C306 1.323 . S
C310 C309 1.433 . S
C310 H319 0.933 . S
C311 Dy281 2.738 1_655 S
C311 O291 1.255 1_655 S
C311 O292 1.249 . S
C311 C305 1.516 . S
H312 C298 0.930 1_655 S
H313 C299 0.924 1_655 S
H314 C300 0.931 . S
H315 C301 0.933 . S
H316 C307 0.930 1_455 S
H317 C308 0.928 1_455 S
H318 C309 0.931 . S
H319 C310 0.933 . S
H320 C328 0.950 . S
H321 C333 0.950 . S
H322 C330 0.950 . S
H323 C332 0.950 . S
H324 C334 0.950 . S
H325 C336 0.950 . S
H326 C338 0.950 . S
H327 C339 0.950 . S
C328 H320 0.950 . S
C328 C329 1.386 . S
C328 C330 1.391 . S
C329 C328 1.386 . S
C329 C333 1.393 . S
C330 H322 0.950 . S
C330 C328 1.391 . S
C330 C331 1.400 . S
C331 C330 1.400 . S
C331 C332 1.398 . S
C331 C337 1.491 . S
C332 H323 0.950 . S
C332 C331 1.398 . S
C332 C333 1.391 . S
C333 H321 0.950 . S
C333 C329 1.393 . S
C333 C332 1.391 . S
C334 H324 0.950 . S
C334 C335 1.386 . S
C334 C336 1.391 . S
C335 C334 1.386 . S
C335 C339 1.393 . S
C336 H325 0.950 . S
C336 C334 1.391 . S
C336 C337 1.400 . S
C337 C331 1.491 . S
C337 C336 1.400 . S
C337 C338 1.398 . S
C338 H326 0.950 . S
C338 C337 1.398 . S
C338 C339 1.391 . S
C339 H327 0.950 . S
C339 C335 1.393 . S
C339 C338 1.391 . S
H340 C348 0.950 . S
H341 C353 0.950 . S
H342 C350 0.950 . S
H343 C352 0.950 . S
H344 C354 0.950 . S
H345 C356 0.950 . S
H346 C358 0.950 . S
H347 C359 0.950 . S
C348 H340 0.950 . S
C348 C349 1.386 . S
C348 C350 1.391 . S
C349 C348 1.386 . S
C349 C353 1.393 . S
C350 H342 0.950 . S
C350 C348 1.391 . S
C350 C351 1.400 . S
C351 C350 1.400 . S
C351 C352 1.398 . S
C351 C357 1.491 . S
C352 H343 0.950 . S
C352 C351 1.398 . S
C352 C353 1.391 . S
C353 H341 0.950 . S
C353 C349 1.393 . S
C353 C352 1.391 . S
C354 H344 0.950 . S
C354 C355 1.386 . S
C354 C356 1.391 . S
C355 C354 1.386 . S
C355 C359 1.393 . S
C356 H345 0.950 . S
C356 C354 1.391 . S
C356 C357 1.400 . S
C357 C351 1.491 . S
C357 C356 1.400 . S
C357 C358 1.398 . S
C358 H346 0.950 . S
C358 C357 1.398 . S
C358 C359 1.391 . S
C359 H347 0.950 . S
C359 C355 1.393 . S
C359 C358 1.391 . S
H360 C368 0.950 . S
H361 C373 0.950 . S
H362 C370 0.950 . S
H363 C372 0.950 . S
H364 C374 0.950 . S
H365 C376 0.950 . S
H366 C378 0.950 . S
H367 C379 0.950 . S
C368 H360 0.950 . S
C368 C369 1.386 . S
C368 C370 1.391 . S
C369 C368 1.386 . S
C369 C373 1.393 . S
C370 H362 0.950 . S
C370 C368 1.391 . S
C370 C371 1.400 . S
C371 C370 1.400 . S
C371 C372 1.398 . S
C371 C377 1.491 . S
C372 H363 0.950 . S
C372 C371 1.398 . S
C372 C373 1.391 . S
C373 H361 0.950 . S
C373 C369 1.393 . S
C373 C372 1.391 . S
C374 H364 0.950 . S
C374 C375 1.386 . S
C374 C376 1.391 . S
C375 C374 1.386 . S
C375 C379 1.393 . S
C376 H365 0.950 . S
C376 C374 1.391 . S
C376 C377 1.400 . S
C377 C371 1.491 . S
C377 C376 1.400 . S
C377 C378 1.398 . S
C378 H366 0.950 . S
C378 C377 1.398 . S
C378 C379 1.391 . S
C379 H367 0.950 . S
C379 C375 1.393 . S
C379 C378 1.391 . S
H380 C388 0.950 . S
H381 C393 0.950 . S
H382 C390 0.950 . S
H383 C392 0.950 . S
H384 C394 0.950 . S
H385 C396 0.950 . S
H386 C398 0.950 . S
H387 C399 0.950 . S
C388 H380 0.950 . S
C388 C389 1.386 . S
C388 C390 1.391 . S
C389 C388 1.386 . S
C389 C393 1.393 . S
C390 H382 0.950 . S
C390 C388 1.391 . S
C390 C391 1.400 . S
C391 C390 1.400 . S
C391 C392 1.398 . S
C391 C397 1.491 . S
C392 H383 0.950 . S
C392 C391 1.398 . S
C392 C393 1.391 . S
C393 H381 0.950 . S
C393 C389 1.393 . S
C393 C392 1.391 . S
C394 H384 0.950 . S
C394 C395 1.386 . S
C394 C396 1.391 . S
C395 C394 1.386 . S
C395 C399 1.393 . S
C396 H385 0.950 . S
C396 C394 1.391 . S
C396 C397 1.400 . S
C397 C391 1.491 . S
C397 C396 1.400 . S
C397 C398 1.398 . S
C398 H386 0.950 . S
C398 C397 1.398 . S
C398 C399 1.391 . S
C399 H387 0.950 . S
C399 C395 1.393 . S
C399 C398 1.391 . S
H400 C408 0.950 . S
H401 C413 0.950 . S
H402 C410 0.950 . S
H403 C412 0.950 . S
H404 C414 0.950 . S
H405 C416 0.950 . S
H406 C418 0.950 . S
H407 C419 0.950 . S
C408 H400 0.950 . S
C408 C409 1.386 . S
C408 C410 1.391 . S
C409 C408 1.386 . S
C409 C413 1.393 . S
C410 H402 0.950 . S
C410 C408 1.391 . S
C410 C411 1.400 . S
C411 C410 1.400 . S
C411 C412 1.398 . S
C411 C417 1.491 . S
C412 H403 0.950 . S
C412 C411 1.398 . S
C412 C413 1.391 . S
C413 H401 0.950 . S
C413 C409 1.393 . S
C413 C412 1.391 . S
C414 H404 0.950 . S
C414 C415 1.386 . S
C414 C416 1.391 . S
C415 C414 1.386 . S
C415 C419 1.393 . S
C416 H405 0.950 . S
C416 C414 1.391 . S
C416 C417 1.400 . S
C417 C411 1.491 . S
C417 C416 1.400 . S
C417 C418 1.398 . S
C418 H406 0.950 . S
C418 C417 1.398 . S
C418 C419 1.391 . S
C419 H407 0.950 . S
C419 C415 1.393 . S
C419 C418 1.391 . S
H420 C428 0.950 . S
H421 C433 0.950 . S
H422 C430 0.950 . S
H423 C432 0.950 . S
H424 C434 0.950 . S
H425 C436 0.950 . S
H426 C438 0.950 . S
H427 C439 0.950 . S
C428 H420 0.950 . S
C428 C429 1.386 . S
C428 C430 1.391 . S
C429 C428 1.386 . S
C429 C433 1.393 . S
C430 H422 0.950 . S
C430 C428 1.391 . S
C430 C431 1.400 . S
C431 C430 1.400 . S
C431 C432 1.398 . S
C431 C437 1.491 . S
C432 H423 0.950 . S
C432 C431 1.398 . S
C432 C433 1.391 . S
C433 H421 0.950 . S
C433 C429 1.393 . S
C433 C432 1.391 . S
C434 H424 0.950 . S
C434 C435 1.386 . S
C434 C436 1.391 . S
C435 C434 1.386 . S
C435 C439 1.393 . S
C436 H425 0.950 . S
C436 C434 1.391 . S
C436 C437 1.400 . S
C437 C431 1.491 . S
C437 C436 1.400 . S
C437 C438 1.398 . S
C438 H426 0.950 . S
C438 C437 1.398 . S
C438 C439 1.391 . S
C439 H427 0.950 . S
C439 C435 1.393 . S
C439 C438 1.391 . S
H440 C448 0.950 . S
H441 C453 0.950 . S
H442 C450 0.950 . S
H443 C452 0.950 . S
H444 C454 0.950 . S
H445 C456 0.950 . S
H446 C458 0.950 . S
H447 C459 0.950 . S
C448 H440 0.950 . S
C448 C449 1.386 . S
C448 C450 1.391 . S
C449 C448 1.386 . S
C449 C453 1.393 . S
C450 H442 0.950 . S
C450 C448 1.391 . S
C450 C451 1.400 . S
C451 C450 1.400 . S
C451 C452 1.398 . S
C451 C457 1.491 . S
C452 H443 0.950 . S
C452 C451 1.398 . S
C452 C453 1.391 . S
C453 H441 0.950 . S
C453 C449 1.393 . S
C453 C452 1.391 . S
C454 H444 0.950 . S
C454 C455 1.386 . S
C454 C456 1.391 . S
C455 C454 1.386 . S
C455 C459 1.393 . S
C456 H445 0.950 . S
C456 C454 1.391 . S
C456 C457 1.400 . S
C457 C451 1.491 . S
C457 C456 1.400 . S
C457 C458 1.398 . S
C458 H446 0.950 . S
C458 C457 1.398 . S
C458 C459 1.391 . S
C459 H447 0.950 . S
C459 C455 1.393 . S
C459 C458 1.391 . S
H460 C468 0.950 . S
H461 C473 0.950 . S
H462 C470 0.950 . S
H463 C472 0.950 . S
H464 C474 0.950 . S
H465 C476 0.950 . S
H466 C478 0.950 . S
H467 C479 0.950 . S
C468 H460 0.950 . S
C468 C469 1.386 . S
C468 C470 1.391 . S
C469 C468 1.386 . S
C469 C473 1.393 . S
C470 H462 0.950 . S
C470 C468 1.391 . S
C470 C471 1.400 . S
C471 C470 1.400 . S
C471 C472 1.398 . S
C471 C477 1.491 . S
C472 H463 0.950 . S
C472 C471 1.398 . S
C472 C473 1.391 . S
C473 H461 0.950 . S
C473 C469 1.393 . S
C473 C472 1.391 . S
C474 H464 0.950 . S
C474 C475 1.386 . S
C474 C476 1.391 . S
C475 C474 1.386 . S
C475 C479 1.393 . S
C476 H465 0.950 . S
C476 C474 1.391 . S
C476 C477 1.400 . S
C477 C471 1.491 . S
C477 C476 1.400 . S
C477 C478 1.398 . S
C478 H466 0.950 . S
C478 C477 1.398 . S
C478 C479 1.391 . S
C479 H467 0.950 . S
C479 C475 1.393 . S
C479 C478 1.391 . S
H480 C488 0.950 . S
H481 C493 0.950 . S
H482 C490 0.950 . S
H483 C492 0.950 . S
H484 C494 0.950 . S
H485 C496 0.950 . S
H486 C498 0.950 . S
H487 C499 0.950 . S
C488 H480 0.950 . S
C488 C489 1.386 . S
C488 C490 1.391 . S
C489 C488 1.386 . S
C489 C493 1.393 . S
C490 H482 0.950 . S
C490 C488 1.391 . S
C490 C491 1.400 . S
C491 C490 1.400 . S
C491 C492 1.398 . S
C491 C497 1.491 . S
C492 H483 0.950 . S
C492 C491 1.398 . S
C492 C493 1.391 . S
C493 H481 0.950 . S
C493 C489 1.393 . S
C493 C492 1.391 . S
C494 H484 0.950 . S
C494 C495 1.386 . S
C494 C496 1.391 . S
C495 C494 1.386 . S
C495 C499 1.393 . S
C496 H485 0.950 . S
C496 C494 1.391 . S
C496 C497 1.400 . S
C497 C491 1.491 . S
C497 C496 1.400 . S
C497 C498 1.398 . S
C498 H486 0.950 . S
C498 C497 1.398 . S
C498 C499 1.391 . S
C499 H487 0.950 . S
C499 C495 1.393 . S
C499 C498 1.391 . S
H500 C508 0.950 . S
H501 C513 0.950 . S
H502 C510 0.950 . S
H503 C512 0.950 . S
H504 C514 0.950 . S
H505 C516 0.950 . S
H506 C518 0.950 . S
H507 C519 0.950 . S
C508 H500 0.950 . S
C508 C509 1.386 . S
C508 C510 1.391 . S
C509 C508 1.386 . S
C509 C513 1.393 . S
C510 H502 0.950 . S
C510 C508 1.391 . S
C510 C511 1.400 . S
C511 C510 1.400 . S
C511 C512 1.398 . S
C511 C517 1.491 . S
C512 H503 0.950 . S
C512 C511 1.398 . S
C512 C513 1.391 . S
C513 H501 0.950 . S
C513 C509 1.393 . S
C513 C512 1.391 . S
C514 H504 0.950 . S
C514 C515 1.386 . S
C514 C516 1.391 . S
C515 C514 1.386 . S
C515 C519 1.393 . S
C516 H505 0.950 . S
C516 C514 1.391 . S
C516 C517 1.400 . S
C517 C511 1.491 . S
C517 C516 1.400 . S
C517 C518 1.398 . S
C518 H506 0.950 . S
C518 C517 1.398 . S
C518 C519 1.391 . S
C519 H507 0.950 . S
C519 C515 1.393 . S
C519 C518 1.391 . S
H520 C528 0.950 . S
H521 C533 0.950 . S
H522 C530 0.950 . S
H523 C532 0.950 . S
H524 C534 0.950 . S
H525 C536 0.950 . S
H526 C538 0.950 . S
H527 C539 0.950 . S
C528 H520 0.950 . S
C528 C529 1.386 . S
C528 C530 1.391 . S
C529 C528 1.386 . S
C529 C533 1.393 . S
C530 H522 0.950 . S
C530 C528 1.391 . S
C530 C531 1.400 . S
C531 C530 1.400 . S
C531 C532 1.398 . S
C531 C537 1.491 . S
C532 H523 0.950 . S
C532 C531 1.398 . S
C532 C533 1.391 . S
C533 H521 0.950 . S
C533 C529 1.393 . S
C533 C532 1.391 . S
C534 H524 0.950 . S
C534 C535 1.386 . S
C534 C536 1.391 . S
C535 C534 1.386 . S
C535 C539 1.393 . S
C536 H525 0.950 . S
C536 C534 1.391 . S
C536 C537 1.400 . S
C537 C531 1.491 . S
C537 C536 1.400 . S
C537 C538 1.398 . S
C538 H526 0.950 . S
C538 C537 1.398 . S
C538 C539 1.391 . S
C539 H527 0.950 . S
C539 C535 1.393 . S
C539 C538 1.391 . S
H540 C548 0.950 . S
H541 C553 0.950 . S
H542 C550 0.950 . S
H543 C552 0.950 . S
H544 C554 0.950 . S
H545 C556 0.950 . S
H546 C558 0.950 . S
H547 C559 0.950 . S
C548 H540 0.950 . S
C548 C549 1.386 . S
C548 C550 1.391 . S
C549 C548 1.386 . S
C549 C553 1.393 . S
C550 H542 0.950 . S
C550 C548 1.391 . S
C550 C551 1.400 . S
C551 C550 1.400 . S
C551 C552 1.398 . S
C551 C557 1.491 . S
C552 H543 0.950 . S
C552 C551 1.398 . S
C552 C553 1.391 . S
C553 H541 0.950 . S
C553 C549 1.393 . S
C553 C552 1.391 . S
C554 H544 0.950 . S
C554 C555 1.386 . S
C554 C556 1.391 . S
C555 C554 1.386 . S
C555 C559 1.393 . S
C556 H545 0.950 . S
C556 C554 1.391 . S
C556 C557 1.400 . S
C557 C551 1.491 . S
C557 C556 1.400 . S
C557 C558 1.398 . S
C558 H546 0.950 . S
C558 C557 1.398 . S
C558 C559 1.391 . S
C559 H547 0.950 . S
C559 C555 1.393 . S
C559 C558 1.391 . S
H560 C568 0.950 . S
H561 C573 0.950 . S
H562 C570 0.950 . S
H563 C572 0.950 . S
H564 C574 0.950 . S
H565 C576 0.950 . S
H566 C578 0.950 . S
H567 C579 0.950 . S
C568 H560 0.950 . S
C568 C569 1.386 . S
C568 C570 1.391 . S
C569 C568 1.386 . S
C569 C573 1.393 . S
C570 H562 0.950 . S
C570 C568 1.391 . S
C570 C571 1.400 . S
C571 C570 1.400 . S
C571 C572 1.398 . S
C571 C577 1.491 . S
C572 H563 0.950 . S
C572 C571 1.398 . S
C572 C573 1.391 . S
C573 H561 0.950 . S
C573 C569 1.393 . S
C573 C572 1.391 . S
C574 H564 0.950 . S
C574 C575 1.386 . S
C574 C576 1.391 . S
C575 C574 1.386 . S
C575 C579 1.393 . S
C576 H565 0.950 . S
C576 C574 1.391 . S
C576 C577 1.400 . S
C577 C571 1.491 . S
C577 C576 1.400 . S
C577 C578 1.398 . S
C578 H566 0.950 . S
C578 C577 1.398 . S
C578 C579 1.391 . S
C579 H567 0.950 . S
C579 C575 1.393 . S
C579 C578 1.391 . S
H580 C588 0.950 . S
H581 C593 0.950 . S
H582 C590 0.950 . S
H583 C592 0.950 . S
H584 C594 0.950 . S
H585 C596 0.950 . S
H586 C598 0.950 . S
H587 C599 0.950 . S
C588 H580 0.950 . S
C588 C589 1.386 . S
C588 C590 1.391 . S
C589 C588 1.386 . S
C589 C593 1.393 . S
C590 H582 0.950 . S
C590 C588 1.391 . S
C590 C591 1.400 . S
C591 C590 1.400 . S
C591 C592 1.398 . S
C591 C597 1.491 . S
C592 H583 0.950 . S
C592 C591 1.398 . S
C592 C593 1.391 . S
C593 H581 0.950 . S
C593 C589 1.393 . S
C593 C592 1.391 . S
C594 H584 0.950 . S
C594 C595 1.386 . S
C594 C596 1.391 . S
C595 C594 1.386 . S
C595 C599 1.393 . S
C596 H585 0.950 . S
C596 C594 1.391 . S
C596 C597 1.400 . S
C597 C591 1.491 . S
C597 C596 1.400 . S
C597 C598 1.398 . S
C598 H586 0.950 . S
C598 C597 1.398 . S
C598 C599 1.391 . S
C599 H587 0.950 . S
C599 C595 1.393 . S
C599 C598 1.391 . S
H600 C608 0.950 . S
H601 C613 0.950 . S
H602 C610 0.950 . S
H603 C612 0.950 . S
H604 C614 0.950 . S
H605 C616 0.950 . S
H606 C618 0.950 . S
H607 C619 0.950 . S
C608 H600 0.950 . S
C608 C609 1.386 . S
C608 C610 1.391 . S
C609 C608 1.386 . S
C609 C613 1.393 . S
C610 H602 0.950 . S
C610 C608 1.391 . S
C610 C611 1.400 . S
C611 C610 1.400 . S
C611 C612 1.398 . S
C611 C617 1.491 . S
C612 H603 0.950 . S
C612 C611 1.398 . S
C612 C613 1.391 . S
C613 H601 0.950 . S
C613 C609 1.393 . S
C613 C612 1.391 . S
C614 H604 0.950 . S
C614 C615 1.386 . S
C614 C616 1.391 . S
C615 C614 1.386 . S
C615 C619 1.393 . S
C616 H605 0.950 . S
C616 C614 1.391 . S
C616 C617 1.400 . S
C617 C611 1.491 . S
C617 C616 1.400 . S
C617 C618 1.398 . S
C618 H606 0.950 . S
C618 C617 1.398 . S
C618 C619 1.391 . S
C619 H607 0.950 . S
C619 C615 1.393 . S
C619 C618 1.391 . S
H620 C628 0.950 . S
H621 C633 0.950 . S
H622 C630 0.950 . S
H623 C632 0.950 . S
H624 C634 0.950 . S
H625 C636 0.950 . S
H626 C638 0.950 . S
H627 C639 0.950 . S
C628 H620 0.950 . S
C628 C629 1.386 . S
C628 C630 1.391 . S
C629 C628 1.386 . S
C629 C633 1.393 . S
C630 H622 0.950 . S
C630 C628 1.391 . S
C630 C631 1.400 . S
C631 C630 1.400 . S
C631 C632 1.398 . S
C631 C637 1.491 . S
C632 H623 0.950 . S
C632 C631 1.398 . S
C632 C633 1.391 . S
C633 H621 0.950 . S
C633 C629 1.393 . S
C633 C632 1.391 . S
C634 H624 0.950 . S
C634 C635 1.386 . S
C634 C636 1.391 . S
C635 C634 1.386 . S
C635 C639 1.393 . S
C636 H625 0.950 . S
C636 C634 1.391 . S
C636 C637 1.400 . S
C637 C631 1.491 . S
C637 C636 1.400 . S
C637 C638 1.398 . S
C638 H626 0.950 . S
C638 C637 1.398 . S
C638 C639 1.391 . S
C639 H627 0.950 . S
C639 C635 1.393 . S
C639 C638 1.391 . S
H640 C648 0.950 . S
H641 C653 0.950 . S
H642 C650 0.950 . S
H643 C652 0.950 . S
H644 C654 0.950 . S
H645 C656 0.950 . S
H646 C658 0.950 . S
H647 C659 0.950 . S
C648 H640 0.950 . S
C648 C649 1.386 1_455 S
C648 C650 1.391 . S
C649 C648 1.386 1_655 S
C649 C653 1.393 1_545 S
C650 H642 0.950 . S
C650 C648 1.391 . S
C650 C651 1.400 1_455 S
C651 C650 1.400 1_655 S
C651 C652 1.398 1_545 S
C651 C657 1.491 1_646 S
C652 H643 0.950 . S
C652 C651 1.398 1_565 S
C652 C653 1.391 . S
C653 H641 0.950 . S
C653 C649 1.393 1_565 S
C653 C652 1.391 . S
C654 H644 0.950 . S
C654 C655 1.386 1_655 S
C654 C656 1.391 . S
C655 C654 1.386 1_455 S
C655 C659 1.393 1_565 S
C656 H645 0.950 . S
C656 C654 1.391 . S
C656 C657 1.400 1_655 S
C657 C651 1.491 1_464 S
C657 C656 1.400 1_455 S
C657 C658 1.398 1_565 S
C658 H646 0.950 . S
C658 C657 1.398 1_545 S
C658 C659 1.391 . S
C659 H647 0.950 . S
C659 C655 1.393 1_545 S
C659 C658 1.391 . S
H660 C668 0.950 . S
H661 C673 0.950 . S
H662 C670 0.950 . S
H663 C672 0.950 . S
H664 C674 0.950 . S
H665 C676 0.950 . S
H666 C678 0.950 . S
H667 C679 0.950 . S
C668 H660 0.950 . S
C668 C669 1.386 . S
C668 C670 1.391 . S
C669 C668 1.386 . S
C669 C673 1.393 . S
C670 H662 0.950 . S
C670 C668 1.391 . S
C670 C671 1.400 . S
C671 C670 1.400 . S
C671 C672 1.398 . S
C671 C677 1.491 . S
C672 H663 0.950 . S
C672 C671 1.398 . S
C672 C673 1.391 . S
C673 H661 0.950 . S
C673 C669 1.393 . S
C673 C672 1.391 . S
C674 H664 0.950 . S
C674 C675 1.386 . S
C674 C676 1.391 . S
C675 C674 1.386 . S
C675 C679 1.393 . S
C676 H665 0.950 . S
C676 C674 1.391 . S
C676 C677 1.400 . S
C677 C671 1.491 . S
C677 C676 1.400 . S
C677 C678 1.398 . S
C678 H666 0.950 . S
C678 C677 1.398 . S
C678 C679 1.391 . S
C679 H667 0.950 . S
C679 C675 1.393 . S
C679 C678 1.391 . S
H680 C688 0.950 . S
H681 C693 0.950 . S
H682 C690 0.950 . S
H683 C692 0.950 . S
H684 C694 0.950 . S
H685 C696 0.950 . S
H686 C698 0.950 . S
H687 C699 0.950 . S
C688 H680 0.950 . S
C688 C689 1.386 . S
C688 C690 1.391 . S
C689 C688 1.386 . S
C689 C693 1.393 1_545 S
C690 H682 0.950 . S
C690 C688 1.391 . S
C690 C691 1.400 . S
C691 C690 1.400 . S
C691 C692 1.398 1_545 S
C691 C697 1.491 1_545 S
C692 H683 0.950 . S
C692 C691 1.398 1_565 S
C692 C693 1.391 . S
C693 H681 0.950 . S
C693 C689 1.393 1_565 S
C693 C692 1.391 . S
C694 H684 0.950 . S
C694 C695 1.386 . S
C694 C696 1.391 . S
C695 C694 1.386 . S
C695 C699 1.393 1_565 S
C696 H685 0.950 . S
C696 C694 1.391 . S
C696 C697 1.400 . S
C697 C691 1.491 1_565 S
C697 C696 1.400 . S
C697 C698 1.398 1_565 S
C698 H686 0.950 . S
C698 C697 1.398 1_545 S
C698 C699 1.391 . S
C699 H687 0.950 . S
C699 C695 1.393 1_545 S
C699 C698 1.391 . S
H700 C708 0.950 . S
H701 C713 0.950 . S
H702 C710 0.950 . S
H703 C712 0.950 . S
H704 C714 0.950 . S
H705 C716 0.950 . S
H706 C718 0.950 . S
H707 C719 0.950 . S
C708 H700 0.950 . S
C708 C709 1.386 . S
C708 C710 1.391 . S
C709 C708 1.386 . S
C709 C713 1.393 . S
C710 H702 0.950 . S
C710 C708 1.391 . S
C710 C711 1.400 . S
C711 C710 1.400 . S
C711 C712 1.398 . S
C711 C717 1.491 . S
C712 H703 0.950 . S
C712 C711 1.398 . S
C712 C713 1.391 . S
C713 H701 0.950 . S
C713 C709 1.393 . S
C713 C712 1.391 . S
C714 H704 0.950 . S
C714 C715 1.386 . S
C714 C716 1.391 . S
C715 C714 1.386 . S
C715 C719 1.393 . S
C716 H705 0.950 . S
C716 C714 1.391 . S
C716 C717 1.400 . S
C717 C711 1.491 . S
C717 C716 1.400 . S
C717 C718 1.398 . S
C718 H706 0.950 . S
C718 C717 1.398 . S
C718 C719 1.391 . S
C719 H707 0.950 . S
C719 C715 1.393 . S
C719 C718 1.391 . S
H720 C728 0.950 . S
H721 C733 0.950 . S
H722 C730 0.950 . S
H723 C732 0.950 . S
H724 C734 0.950 . S
H725 C736 0.950 . S
H726 C738 0.950 . S
H727 C739 0.950 . S
C728 H720 0.950 . S
C728 C729 1.386 . S
C728 C730 1.391 . S
C729 C728 1.386 . S
C729 C733 1.393 . S
C730 H722 0.950 . S
C730 C728 1.391 . S
C730 C731 1.400 . S
C731 C730 1.400 . S
C731 C732 1.398 . S
C731 C737 1.491 . S
C732 H723 0.950 . S
C732 C731 1.398 . S
C732 C733 1.391 . S
C733 H721 0.950 . S
C733 C729 1.393 . S
C733 C732 1.391 . S
C734 H724 0.950 . S
C734 C735 1.386 . S
C734 C736 1.391 . S
C735 C734 1.386 . S
C735 C739 1.393 . S
C736 H725 0.950 . S
C736 C734 1.391 . S
C736 C737 1.400 . S
C737 C731 1.491 . S
C737 C736 1.400 . S
C737 C738 1.398 . S
C738 H726 0.950 . S
C738 C737 1.398 . S
C738 C739 1.391 . S
C739 H727 0.950 . S
C739 C735 1.393 . S
C739 C738 1.391 . S
H740 C748 0.950 . S
H741 C753 0.950 . S
H742 C750 0.950 . S
H743 C752 0.950 . S
H744 C754 0.950 . S
H745 C756 0.950 . S
H746 C758 0.950 . S
H747 C759 0.950 . S
C748 H740 0.950 . S
C748 C749 1.386 . S
C748 C750 1.391 . S
C749 C748 1.386 . S
C749 C753 1.393 . S
C750 H742 0.950 . S
C750 C748 1.391 . S
C750 C751 1.400 . S
C751 C750 1.400 . S
C751 C752 1.398 . S
C751 C757 1.491 . S
C752 H743 0.950 . S
C752 C751 1.398 . S
C752 C753 1.391 . S
C753 H741 0.950 . S
C753 C749 1.393 . S
C753 C752 1.391 . S
C754 H744 0.950 . S
C754 C755 1.386 . S
C754 C756 1.391 . S
C755 C754 1.386 . S
C755 C759 1.393 . S
C756 H745 0.950 . S
C756 C754 1.391 . S
C756 C757 1.400 . S
C757 C751 1.491 . S
C757 C756 1.400 . S
C757 C758 1.398 . S
C758 H746 0.950 . S
C758 C757 1.398 . S
C758 C759 1.391 . S
C759 H747 0.950 . S
C759 C755 1.393 . S
C759 C758 1.391 . S
H760 C768 0.950 . S
H761 C773 0.950 . S
H762 C770 0.950 . S
H763 C772 0.950 . S
H764 C774 0.950 . S
H765 C776 0.950 . S
H766 C778 0.950 . S
H767 C779 0.950 . S
C768 H760 0.950 . S
C768 C769 1.386 . S
C768 C770 1.391 . S
C769 C768 1.386 . S
C769 C773 1.393 . S
C770 H762 0.950 . S
C770 C768 1.391 . S
C770 C771 1.400 . S
C771 C770 1.400 . S
C771 C772 1.398 . S
C771 C777 1.491 . S
C772 H763 0.950 . S
C772 C771 1.398 . S
C772 C773 1.391 . S
C773 H761 0.950 . S
C773 C769 1.393 . S
C773 C772 1.391 . S
C774 H764 0.950 . S
C774 C775 1.386 . S
C774 C776 1.391 . S
C775 C774 1.386 . S
C775 C779 1.393 . S
C776 H765 0.950 . S
C776 C774 1.391 . S
C776 C777 1.400 . S
C777 C771 1.491 . S
C777 C776 1.400 . S
C777 C778 1.398 . S
C778 H766 0.950 . S
C778 C777 1.398 . S
C778 C779 1.391 . S
C779 H767 0.950 . S
C779 C775 1.393 . S
C779 C778 1.391 . S
H780 C788 0.950 . S
H781 C793 0.950 . S
H782 C790 0.950 . S
H783 C792 0.950 . S
H784 C794 0.950 . S
H785 C796 0.950 . S
H786 C798 0.950 . S
H787 C799 0.950 . S
C788 H780 0.950 . S
C788 C789 1.386 1_455 S
C788 C790 1.391 . S
C789 C788 1.386 1_655 S
C789 C793 1.393 . S
C790 H782 0.950 . S
C790 C788 1.391 . S
C790 C791 1.400 1_455 S
C791 C790 1.400 1_655 S
C791 C792 1.398 . S
C791 C797 1.491 1_656 S
C792 H783 0.950 . S
C792 C791 1.398 . S
C792 C793 1.391 . S
C793 H781 0.950 . S
C793 C789 1.393 . S
C793 C792 1.391 . S
C794 H784 0.950 . S
C794 C795 1.386 1_655 S
C794 C796 1.391 . S
C795 C794 1.386 1_455 S
C795 C799 1.393 . S
C796 H785 0.950 . S
C796 C794 1.391 . S
C796 C797 1.400 1_655 S
C797 C791 1.491 1_454 S
C797 C796 1.400 1_455 S
C797 C798 1.398 . S
C798 H786 0.950 . S
C798 C797 1.398 . S
C798 C799 1.391 . S
C799 H787 0.950 . S
C799 C795 1.393 . S
C799 C798 1.391 . S
C329 C13 1.689 . S
C335 C133 1.685 . S
C349 C2 1.328 . S
C355 C42 1.330 . S
C369 C53 1.312 . S
C375 C82 1.300 . S
C389 C93 1.721 . S
C395 C122 1.711 . S
C409 C24 1.688 . S
C415 C224 1.694 . S
C429 C23 1.338 . S
C435 C183 1.334 . S
C449 C184 1.315 . S
C455 C103 1.306 . S
C469 C223 1.718 . S
C475 C104 1.724 . S
C489 C253 1.686 . S
C495 C213 1.691 . S
C509 C162 1.329 . S
C515 C242 1.327 . S
C529 C282 1.306 . S
C535 C173 1.314 . S
C549 C202 1.719 . S
C555 C293 1.727 . S
C569 C144 1.691 . S
C575 C264 1.686 . S
C589 C263 1.332 . S
C595 C63 1.331 . S
C609 C64 1.308 . S
C615 C303 1.294 . S
C629 C143 1.715 . S
C635 C304 1.722 . S
C649 C17 1.393 . S
C655 C26 1.393 . S
C669 C57 1.442 . S
C675 C66 1.442 . S
C689 C97 1.375 . S
C695 C106 1.375 . S
C709 C137 1.594 . S
C715 C146 1.594 . S
C729 C177 1.430 . S
C735 C186 1.430 . S
C749 C217 1.579 . S
C755 C226 1.579 . S
C769 C266 1.393 . S
C775 C257 1.393 . S
C789 C306 1.363 . S
C795 C297 1.363 . S
