# Generated by pormake.
# Topology pyr-e, (6)-cn, num edge types: 1
# Building blocks:
#     Node 0, Type 0, BuildingBlock: IZENUY_clean_sbu_0, # of connection points: 6
#     Node 1, Type 0, BuildingBlock: IZENUY_clean_sbu_0, # of connection points: 6
#     Node 2, Type 0, BuildingBlock: IZENUY_clean_sbu_0, # of connection points: 6
#     Node 3, Type 0, BuildingBlock: IZENUY_clean_sbu_0, # of connection points: 6
#     Node 4, Type 0, BuildingBlock: IZENUY_clean_sbu_0, # of connection points: 6
#     Node 5, Type 0, BuildingBlock: IZENUY_clean_sbu_0, # of connection points: 6
#     Node 6, Type 0, BuildingBlock: IZENUY_clean_sbu_0, # of connection points: 6
#     Node 7, Type 0, BuildingBlock: IZENUY_clean_sbu_0, # of connection points: 6
#     Node 8, Type 0, BuildingBlock: IZENUY_clean_sbu_0, # of connection points: 6
#     Node 9, Type 0, BuildingBlock: IZENUY_clean_sbu_0, # of connection points: 6
#     Node 10, Type 0, BuildingBlock: IZENUY_clean_sbu_0, # of connection points: 6
#     Node 11, Type 0, BuildingBlock: IZENUY_clean_sbu_0, # of connection points: 6
#     Node 12, Type 0, BuildingBlock: IZENUY_clean_sbu_0, # of connection points: 6
#     Node 13, Type 0, BuildingBlock: IZENUY_clean_sbu_0, # of connection points: 6
#     Node 14, Type 0, BuildingBlock: IZENUY_clean_sbu_0, # of connection points: 6
#     Node 15, Type 0, BuildingBlock: IZENUY_clean_sbu_0, # of connection points: 6
#     Node 16, Type 0, BuildingBlock: IZENUY_clean_sbu_0, # of connection points: 6
#     Node 17, Type 0, BuildingBlock: IZENUY_clean_sbu_0, # of connection points: 6
#     Node 18, Type 0, BuildingBlock: IZENUY_clean_sbu_0, # of connection points: 6
#     Node 19, Type 0, BuildingBlock: IZENUY_clean_sbu_0, # of connection points: 6
#     Node 20, Type 0, BuildingBlock: IZENUY_clean_sbu_0, # of connection points: 6
#     Node 21, Type 0, BuildingBlock: IZENUY_clean_sbu_0, # of connection points: 6
#     Node 22, Type 0, BuildingBlock: IZENUY_clean_sbu_0, # of connection points: 6
#     Node 23, Type 0, BuildingBlock: IZENUY_clean_sbu_0, # of connection points: 6
#     Edge 24, Type (0, 0), BuildingBlock: EZIPEK_clean_linker_0, # of connection points: 2
#     Edge 25, Type (0, 0), BuildingBlock: EZIPEK_clean_linker_0, # of connection points: 2
#     Edge 26, Type (0, 0), BuildingBlock: EZIPEK_clean_linker_0, # of connection points: 2
#     Edge 27, Type (0, 0), BuildingBlock: EZIPEK_clean_linker_0, # of connection points: 2
#     Edge 28, Type (0, 0), BuildingBlock: EZIPEK_clean_linker_0, # of connection points: 2
#     Edge 29, Type (0, 0), BuildingBlock: EZIPEK_clean_linker_0, # of connection points: 2
#     Edge 30, Type (0, 0), BuildingBlock: EZIPEK_clean_linker_0, # of connection points: 2
#     Edge 31, Type (0, 0), BuildingBlock: EZIPEK_clean_linker_0, # of connection points: 2
#     Edge 32, Type (0, 0), BuildingBlock: EZIPEK_clean_linker_0, # of connection points: 2
#     Edge 33, Type (0, 0), BuildingBlock: EZIPEK_clean_linker_0, # of connection points: 2
#     Edge 34, Type (0, 0), BuildingBlock: EZIPEK_clean_linker_0, # of connection points: 2
#     Edge 35, Type (0, 0), BuildingBlock: EZIPEK_clean_linker_0, # of connection points: 2
#     Edge 36, Type (0, 0), BuildingBlock: EZIPEK_clean_linker_0, # of connection points: 2
#     Edge 37, Type (0, 0), BuildingBlock: EZIPEK_clean_linker_0, # of connection points: 2
#     Edge 38, Type (0, 0), BuildingBlock: EZIPEK_clean_linker_0, # of connection points: 2
#     Edge 39, Type (0, 0), BuildingBlock: EZIPEK_clean_linker_0, # of connection points: 2
#     Edge 40, Type (0, 0), BuildingBlock: EZIPEK_clean_linker_0, # of connection points: 2
#     Edge 41, Type (0, 0), BuildingBlock: EZIPEK_clean_linker_0, # of connection points: 2
#     Edge 42, Type (0, 0), BuildingBlock: EZIPEK_clean_linker_0, # of connection points: 2
#     Edge 43, Type (0, 0), BuildingBlock: EZIPEK_clean_linker_0, # of connection points: 2
#     Edge 44, Type (0, 0), BuildingBlock: EZIPEK_clean_linker_0, # of connection points: 2
#     Edge 45, Type (0, 0), BuildingBlock: EZIPEK_clean_linker_0, # of connection points: 2
#     Edge 46, Type (0, 0), BuildingBlock: EZIPEK_clean_linker_0, # of connection points: 2
#     Edge 47, Type (0, 0), BuildingBlock: EZIPEK_clean_linker_0, # of connection points: 2
#     Edge 48, Type (0, 0), BuildingBlock: EZIPEK_clean_linker_0, # of connection points: 2
#     Edge 49, Type (0, 0), BuildingBlock: EZIPEK_clean_linker_0, # of connection points: 2
#     Edge 50, Type (0, 0), BuildingBlock: EZIPEK_clean_linker_0, # of connection points: 2
#     Edge 51, Type (0, 0), BuildingBlock: EZIPEK_clean_linker_0, # of connection points: 2
#     Edge 52, Type (0, 0), BuildingBlock: EZIPEK_clean_linker_0, # of connection points: 2
#     Edge 53, Type (0, 0), BuildingBlock: EZIPEK_clean_linker_0, # of connection points: 2
#     Edge 54, Type (0, 0), BuildingBlock: EZIPEK_clean_linker_0, # of connection points: 2
#     Edge 55, Type (0, 0), BuildingBlock: EZIPEK_clean_linker_0, # of connection points: 2
#     Edge 56, Type (0, 0), BuildingBlock: EZIPEK_clean_linker_0, # of connection points: 2
#     Edge 57, Type (0, 0), BuildingBlock: EZIPEK_clean_linker_0, # of connection points: 2
#     Edge 58, Type (0, 0), BuildingBlock: EZIPEK_clean_linker_0, # of connection points: 2
#     Edge 59, Type (0, 0), BuildingBlock: EZIPEK_clean_linker_0, # of connection points: 2
#     Edge 60, Type (0, 0), BuildingBlock: EZIPEK_clean_linker_0, # of connection points: 2
#     Edge 61, Type (0, 0), BuildingBlock: EZIPEK_clean_linker_0, # of connection points: 2
#     Edge 62, Type (0, 0), BuildingBlock: EZIPEK_clean_linker_0, # of connection points: 2
#     Edge 63, Type (0, 0), BuildingBlock: EZIPEK_clean_linker_0, # of connection points: 2
#     Edge 64, Type (0, 0), BuildingBlock: EZIPEK_clean_linker_0, # of connection points: 2
#     Edge 65, Type (0, 0), BuildingBlock: EZIPEK_clean_linker_0, # of connection points: 2
#     Edge 66, Type (0, 0), BuildingBlock: EZIPEK_clean_linker_0, # of connection points: 2
#     Edge 67, Type (0, 0), BuildingBlock: EZIPEK_clean_linker_0, # of connection points: 2
#     Edge 68, Type (0, 0), BuildingBlock: EZIPEK_clean_linker_0, # of connection points: 2
#     Edge 69, Type (0, 0), BuildingBlock: EZIPEK_clean_linker_0, # of connection points: 2
#     Edge 70, Type (0, 0), BuildingBlock: EZIPEK_clean_linker_0, # of connection points: 2
#     Edge 71, Type (0, 0), BuildingBlock: EZIPEK_clean_linker_0, # of connection points: 2
#     Edge 72, Type (0, 0), BuildingBlock: EZIPEK_clean_linker_0, # of connection points: 2
#     Edge 73, Type (0, 0), BuildingBlock: EZIPEK_clean_linker_0, # of connection points: 2
#     Edge 74, Type (0, 0), BuildingBlock: EZIPEK_clean_linker_0, # of connection points: 2
#     Edge 75, Type (0, 0), BuildingBlock: EZIPEK_clean_linker_0, # of connection points: 2
#     Edge 76, Type (0, 0), BuildingBlock: EZIPEK_clean_linker_0, # of connection points: 2
#     Edge 77, Type (0, 0), BuildingBlock: EZIPEK_clean_linker_0, # of connection points: 2
#     Edge 78, Type (0, 0), BuildingBlock: EZIPEK_clean_linker_0, # of connection points: 2
#     Edge 79, Type (0, 0), BuildingBlock: EZIPEK_clean_linker_0, # of connection points: 2
#     Edge 80, Type (0, 0), BuildingBlock: EZIPEK_clean_linker_0, # of connection points: 2
#     Edge 81, Type (0, 0), BuildingBlock: EZIPEK_clean_linker_0, # of connection points: 2
#     Edge 82, Type (0, 0), BuildingBlock: EZIPEK_clean_linker_0, # of connection points: 2
#     Edge 83, Type (0, 0), BuildingBlock: EZIPEK_clean_linker_0, # of connection points: 2
#     Edge 84, Type (0, 0), BuildingBlock: EZIPEK_clean_linker_0, # of connection points: 2
#     Edge 85, Type (0, 0), BuildingBlock: EZIPEK_clean_linker_0, # of connection points: 2
#     Edge 86, Type (0, 0), BuildingBlock: EZIPEK_clean_linker_0, # of connection points: 2
#     Edge 87, Type (0, 0), BuildingBlock: EZIPEK_clean_linker_0, # of connection points: 2
#     Edge 88, Type (0, 0), BuildingBlock: EZIPEK_clean_linker_0, # of connection points: 2
#     Edge 89, Type (0, 0), BuildingBlock: EZIPEK_clean_linker_0, # of connection points: 2
#     Edge 90, Type (0, 0), BuildingBlock: EZIPEK_clean_linker_0, # of connection points: 2
#     Edge 91, Type (0, 0), BuildingBlock: EZIPEK_clean_linker_0, # of connection points: 2
#     Edge 92, Type (0, 0), BuildingBlock: EZIPEK_clean_linker_0, # of connection points: 2
#     Edge 93, Type (0, 0), BuildingBlock: EZIPEK_clean_linker_0, # of connection points: 2
#     Edge 94, Type (0, 0), BuildingBlock: EZIPEK_clean_linker_0, # of connection points: 2
#     Edge 95, Type (0, 0), BuildingBlock: EZIPEK_clean_linker_0, # of connection points: 2
# Relax obj value: 0.536
# Max RMSD: 0.236
# Mean RMSD: 0.235
data_MOF--net-pyr-e--node1-IZENUY_clean_sbu_0--edge1-EZIPEK_clean_linker_0
_symmetry_space_group_name_H-M    P1
_symmetry_Int_Tables_number       1
_symmetry_cell_setting            triclinic
loop_
_symmetry_equiv_pos_as_xyz
'x, y, z'
_cell_length_a     33.64629
_cell_length_b     33.593458
_cell_length_c     33.647396
_cell_angle_alpha  90.017414
_cell_angle_beta   89.924009
_cell_angle_gamma 89.874517
loop_
_atom_site_label
_atom_site_type_symbol
_atom_site_fract_x
_atom_site_fract_y
_atom_site_fract_z
_atom_type_partial_charge
Fe0 Fe 0.06432 0.25751 0.07959 0.0
Fe1 Fe 0.00949 0.23382 0.01037 0.0
O2 O 0.03076 0.27119 0.04123 0.0
Fe3 Fe 0.01862 0.32195 0.03417 0.0
O4 O 0.06862 0.34021 0.04758 0.0
O5 O 0.1043 0.28601 0.05752 0.0
O6 O 0.08444 0.2136 0.0534 0.0
C7 C 0.08505 0.20491 0.01677 0.0
C8 C 0.02082 0.32155 0.11502 0.0
O9 O 0.0581 0.21702 0.9938 0.0
C10 C 0.94471 0.28161 0.0211 0.0
O11 O 0.02636 0.22857 0.10376 0.0
O12 O 0.00718 0.19625 0.05063 0.0
O13 O 0.00013 0.32737 0.08446 0.0
O14 O 0.05088 0.29874 0.11355 0.0
C15 C 0.02447 0.29809 0.95662 0.0
O16 O 0.95921 0.24725 0.02423 0.0
O17 O 0.96684 0.31214 0.0191 0.0
C18 C 0.00666 0.20077 0.08812 0.0
O19 O 0.00756 0.26533 0.96494 0.0
O20 O 0.03607 0.32117 0.98355 0.0
C21 C 0.10205 0.32261 0.04971 0.0
Fe22 Fe 0.48299 0.76115 0.51196 0.0
Fe23 Fe 0.47007 0.67539 0.54222 0.0
O24 O 0.46094 0.72725 0.5462 0.0
Fe25 Fe 0.42953 0.74543 0.58472 0.0
O26 O 0.41008 0.78806 0.55568 0.0
O27 O 0.43482 0.77929 0.49587 0.0
O28 O 0.48131 0.72654 0.46899 0.0
C29 C 0.46301 0.69405 0.46317 0.0
C30 C 0.48816 0.80119 0.58699 0.0
O31 O 0.45098 0.6733 0.4919 0.0
C32 C 0.47236 0.68268 0.62325 0.0
O33 O 0.5332 0.74582 0.52449 0.0
O34 O 0.52146 0.68142 0.52457 0.0
O35 O 0.46925 0.77454 0.6052 0.0
O36 O 0.48871 0.80167 0.54918 0.0
C37 C 0.38757 0.6804 0.5607 0.0
O38 O 0.49032 0.67257 0.59201 0.0
O39 O 0.44303 0.70651 0.62147 0.0
C40 C 0.54541 0.71044 0.52264 0.0
O41 O 0.41979 0.6607 0.55884 0.0
O42 O 0.38755 0.71735 0.5666 0.0
C43 C 0.40943 0.79479 0.51857 0.0
Fe44 Fe 0.57922 0.23677 0.92016 0.0
Fe45 Fe 0.51399 0.25814 0.98118 0.0
O46 O 0.54533 0.22227 0.9576 0.0
Fe47 Fe 0.5409 0.17144 0.96985 0.0
O48 O 0.59276 0.15843 0.9589 0.0
O49 O 0.62209 0.21527 0.94569 0.0
O50 O 0.59124 0.2847 0.94457 0.0
C51 C 0.58452 0.29843 0.97923 0.0
C52 C 0.54352 0.16845 0.88838 0.0
O53 O 0.55623 0.28546 0.00014 0.0
C54 C 0.46094 0.19729 0.97237 0.0
O55 O 0.53898 0.25751 0.89142 0.0
O56 O 0.51091 0.29233 0.938 0.0
O57 O 0.52531 0.1594 0.91981 0.0
O58 O 0.57264 0.19221 0.88916 0.0
C59 C 0.5352 0.20403 0.04334 0.0
O60 O 0.46852 0.23318 0.96386 0.0
O61 O 0.4885 0.17409 0.98301 0.0
C62 C 0.51924 0.28735 0.90158 0.0
O63 O 0.51305 0.2313 0.02916 0.0
O64 O 0.55514 0.18133 0.02079 0.0
C65 C 0.62397 0.17892 0.95506 0.0
Fe66 Fe 0.98956 0.73771 0.48531 0.0
Fe67 Fe 0.97917 0.82718 0.46945 0.0
O68 O 0.96678 0.77725 0.45817 0.0
Fe69 Fe 0.93213 0.76604 0.41988 0.0
O70 O 0.9001 0.73906 0.4544 0.0
O71 O 0.94805 0.70298 0.48003 0.0
O72 O 0.96705 0.75463 0.53143 0.0
C73 C 0.97063 0.78956 0.54485 0.0
C74 C 0.99337 0.70855 0.41002 0.0
O75 O 0.98291 0.81799 0.52325 0.0
C76 C 0.97511 0.82622 0.38483 0.0
O77 O 0.0359 0.76403 0.49696 0.0
O78 O 0.03213 0.81805 0.46143 0.0
O79 O 0.95807 0.72065 0.40476 0.0
O80 O 0.01309 0.71866 0.44036 0.0
C81 C 0.89843 0.83545 0.45508 0.0
O82 O 0.97748 0.84434 0.41774 0.0
O83 O 0.96113 0.79159 0.38232 0.0
C84 C 0.05275 0.79303 0.48033 0.0
O85 O 0.9274 0.84131 0.47818 0.0
O86 O 0.9004 0.80993 0.42756 0.0
C87 C 0.91155 0.70903 0.47385 0.0
Fe88 Fe 0.04172 0.02491 0.3214 0.0
Fe89 Fe 0.07859 0.06857 0.25165 0.0
O90 O 0.04281 0.03458 0.27016 0.0
Fe91 Fe 0.00905 0.01031 0.23763 0.0
O92 O 0.9672 0.00923 0.27422 0.0
O93 O 0.99146 0.04182 0.3255 0.0
O94 O 0.05623 0.07597 0.33598 0.0
C95 C 0.05315 0.10844 0.31684 0.0
C96 C 0.02481 0.94907 0.28752 0.0
O97 O 0.05727 0.10922 0.27973 0.0
C98 C 0.08346 0.01099 0.19576 0.0
O99 O 0.09186 0.00635 0.3203 0.0
O100 O 0.11643 0.05837 0.29067 0.0
O101 O 0.02541 0.96101 0.25216 0.0
O102 O 0.02625 0.9732 0.31618 0.0
C103 C 0.01048 0.08385 0.20406 0.0
O104 O 0.10132 0.03006 0.22251 0.0
O105 O 0.04573 0.00705 0.19631 0.0
C106 C 0.12117 0.02773 0.31226 0.0
O107 O 0.04771 0.08522 0.20959 0.0
O108 O 0.9895 0.05749 0.22025 0.0
C109 C 0.9624 0.02717 0.30727 0.0
Fe110 Fe 0.49256 0.99561 0.73477 0.0
Fe111 Fe 0.46852 0.98605 0.82257 0.0
O112 O 0.46182 0.97393 0.77201 0.0
Fe113 Fe 0.42389 0.9397 0.75957 0.0
O114 O 0.44916 0.91897 0.71575 0.0
O115 O 0.50781 0.94749 0.71562 0.0
O116 O 0.53816 0.99402 0.76543 0.0
C117 C 0.5453 0.97454 0.79698 0.0
C118 C 0.41418 0.99736 0.70249 0.0
O119 O 0.51794 0.96571 0.82106 0.0
C120 C 0.38759 0.98848 0.81726 0.0
O121 O 0.48089 0.04638 0.74987 0.0
O122 O 0.48764 0.03606 0.81369 0.0
O123 O 0.39899 0.97651 0.72973 0.0
O124 O 0.45166 1.0 0.69861 0.0
C125 C 0.45265 0.90362 0.82616 0.0
O126 O 0.41896 0.00738 0.82562 0.0
O127 O 0.3906 0.95479 0.80054 0.0
C128 C 0.48574 0.05949 0.7845 0.0
O129 O 0.45148 0.93766 0.84228 0.0
O130 O 0.44708 0.90043 0.78917 0.0
C131 C 0.48473 0.92064 0.70382 0.0
Fe132 Fe 0.50992 0.49702 0.7703 0.0
Fe133 Fe 0.52268 0.49515 0.67942 0.0
O134 O 0.53548 0.47885 0.72747 0.0
Fe135 Fe 0.57504 0.44495 0.7328 0.0
O136 O 0.55421 0.42072 0.7772 0.0
O137 O 0.495 0.44689 0.78468 0.0
O138 O 0.46149 0.50078 0.74505 0.0
C139 C 0.44948 0.48319 0.71395 0.0
C140 C 0.59101 0.49268 0.79513 0.0
O141 O 0.47292 0.47571 0.68553 0.0
C142 C 0.60442 0.4966 0.67484 0.0
O143 O 0.52215 0.54908 0.75872 0.0
O144 O 0.50689 0.54475 0.69523 0.0
O145 O 0.60176 0.48152 0.76122 0.0
O146 O 0.5542 0.49493 0.80348 0.0
C147 C 0.54031 0.41298 0.6678 0.0
O148 O 0.57222 0.51576 0.67092 0.0
O149 O 0.60317 0.46227 0.68975 0.0
C150 C 0.51438 0.56544 0.72569 0.0
O151 O 0.53566 0.44804 0.65457 0.0
O152 O 0.55054 0.40714 0.70332 0.0
C153 C 0.51914 0.41888 0.79086 0.0
Fe154 Fe 0.92675 0.56706 0.23734 0.0
Fe155 Fe 0.99075 0.50937 0.27012 0.0
O156 O 0.96698 0.53367 0.22941 0.0
Fe157 Fe 0.98417 0.52432 0.1806 0.0
O158 O 0.9712 0.57326 0.16011 0.0
O159 O 0.95113 0.60798 0.21151 0.0
O160 O 0.94751 0.58753 0.28365 0.0
C161 C 0.98188 0.58499 0.299 0.0
C162 C 0.90355 0.52187 0.16935 0.0
O163 O 0.00479 0.55623 0.29192 0.0
C164 C 0.98929 0.44853 0.21688 0.0
O165 O 0.89822 0.52972 0.26362 0.0
O166 O 0.94573 0.50652 0.3012 0.0
O167 O 0.93645 0.50392 0.16584 0.0
O168 O 0.89962 0.55177 0.1922 0.0
C169 C 0.05457 0.53214 0.22082 0.0
O170 O 0.97856 0.46007 0.25091 0.0
O171 O 0.00058 0.47336 0.191 0.0
C172 C 0.90912 0.50923 0.29303 0.0
O173 O 0.04065 0.50886 0.247 0.0
O174 O 0.03259 0.54461 0.19304 0.0
C175 C 0.96358 0.60633 0.17625 0.0
Fe176 Fe 0.26144 0.07298 0.05839 0.0
Fe177 Fe 0.23146 0.00746 0.00149 0.0
O178 O 0.27077 0.03265 0.02563 0.0
Fe179 Fe 0.31993 0.01835 0.01585 0.0
O180 O 0.33909 0.03215 0.06522 0.0
O181 O 0.2859 0.04804 0.0996 0.0
O182 O 0.21429 0.05167 0.07684 0.0
C183 C 0.20095 0.01629 0.07582 0.0
C184 C 0.32937 0.09826 0.01462 0.0
O185 O 0.21044 0.99247 0.04853 0.0
C186 C 0.28443 0.01261 0.94057 0.0
O187 O 0.23628 0.10083 0.01977 0.0
O188 O 0.19905 0.05186 0.99881 0.0
O189 O 0.32961 0.06647 0.99507 0.0
O190 O 0.30754 0.10114 0.04538 0.0
C191 C 0.2862 0.94571 0.02151 0.0
O192 O 0.24993 0.02109 0.9524 0.0
O193 O 0.31089 0.0018 0.96483 0.0
C194 C 0.20656 0.08884 0.00036 0.0
O195 O 0.25724 0.95846 0.00072 0.0
O196 O 0.31153 0.96935 0.03554 0.0
C197 C 0.32158 0.03672 0.09823 0.0
Fe198 Fe 0.7556 0.40989 0.9357 0.0
Fe199 Fe 0.74742 0.48559 0.98698 0.0
O200 O 0.77745 0.44779 0.96496 0.0
Fe201 Fe 0.82933 0.44788 0.97149 0.0
O202 O 0.8408 0.42813 0.92179 0.0
O203 O 0.7829 0.42539 0.89208 0.0
O204 O 0.71481 0.44126 0.91773 0.0
C205 C 0.71144 0.47868 0.9146 0.0
C206 C 0.81628 0.36834 0.97695 0.0
O207 O 0.72907 0.5016 0.93847 0.0
C208 C 0.79976 0.47227 0.04731 0.0
O209 O 0.72685 0.39304 0.97752 0.0
O210 O 0.70441 0.45228 0.99459 0.0
O211 O 0.8287 0.39921 0.99393 0.0
O212 O 0.79239 0.37103 0.94808 0.0
C213 C 0.81739 0.52733 0.96354 0.0
O214 O 0.76365 0.47306 0.03715 0.0
O215 O 0.82707 0.4681 0.02187 0.0
C216 C 0.7013 0.41458 0.99455 0.0
O217 O 0.78546 0.52511 0.98342 0.0
O218 O 0.83349 0.49653 0.94969 0.0
C219 C 0.81992 0.42991 0.89059 0.0
Fe220 Fe 0.67255 0.5365 0.47374 0.0
Fe221 Fe 0.7395 0.58288 0.43279 0.0
O222 O 0.72386 0.54396 0.46502 0.0
Fe223 Fe 0.75957 0.51272 0.48863 0.0
O224 O 0.72823 0.46773 0.4885 0.0
O225 O 0.67498 0.48587 0.45516 0.0
O226 O 0.65699 0.55159 0.42405 0.0
C227 C 0.67601 0.55374 0.39177 0.0
C228 C 0.70662 0.52382 0.54938 0.0
O229 O 0.71241 0.56222 0.39105 0.0
C230 C 0.79519 0.58948 0.4912 0.0
O231 O 0.66626 0.58652 0.49312 0.0
O232 O 0.69839 0.61727 0.44531 0.0
O233 O 0.74229 0.5269 0.53809 0.0
O234 O 0.67858 0.52004 0.52487 0.0
C235 C 0.79246 0.51904 0.41428 0.0
O236 O 0.76748 0.60614 0.47228 0.0
O237 O 0.79747 0.55189 0.49279 0.0
C238 C 0.67417 0.61787 0.47419 0.0
O239 O 0.78348 0.55576 0.41398 0.0
O240 O 0.7793 0.49616 0.44096 0.0
C241 C 0.69794 0.45909 0.46796 0.0
Fe242 Fe 0.23963 0.92311 0.56964 0.0
Fe243 Fe 0.26298 0.98868 0.50978 0.0
O244 O 0.22584 0.96226 0.53674 0.0
Fe245 Fe 0.17495 0.97459 0.5317 0.0
O246 O 0.17006 0.98428 0.5844 0.0
O247 O 0.19786 0.92945 0.60418 0.0
O248 O 0.26802 0.95714 0.60008 0.0
C249 C 0.29589 0.97869 0.587 0.0
C250 C 0.17605 0.89042 0.53171 0.0
O251 O 0.2997 0.98572 0.55009 0.0
C252 C 0.19857 0.98404 0.4543 0.0
O253 O 0.28395 0.90859 0.54213 0.0
O254 O 0.28133 0.9427 0.48656 0.0
O255 O 0.15756 0.923 0.53622 0.0
O256 O 0.21229 0.88697 0.54057 0.0
C257 C 0.2131 0.05011 0.53111 0.0
O258 O 0.23204 0.99719 0.46539 0.0
O259 O 0.17543 0.96702 0.47834 0.0
C260 C 0.29347 0.91296 0.50619 0.0
O261 O 0.24819 0.0368 0.53044 0.0
O262 O 0.18356 0.02769 0.52621 0.0
C263 C 0.17751 0.96 0.61185 0.0
Fe264 Fe 0.94267 0.7411 0.92429 0.0
Fe265 Fe 0.99752 0.68182 0.96732 0.0
O266 O 0.97943 0.73063 0.96075 0.0
Fe267 Fe 0.99855 0.76912 0.99158 0.0
O268 O 0.95376 0.80038 0.99024 0.0
O269 O 0.90919 0.76312 0.96095 0.0
O270 O 0.91579 0.69362 0.93054 0.0
C271 C 0.91864 0.66615 0.95622 0.0
C272 C 0.99882 0.80403 0.91813 0.0
O273 O 0.94858 0.66336 0.97841 0.0
C274 C 0.06686 0.72057 0.97901 0.0
O275 O 0.97192 0.72044 0.88361 0.0
O276 O 0.99366 0.66745 0.91485 0.0
O277 O 0.01917 0.79464 0.94842 0.0
O278 O 0.96458 0.78942 0.91184 0.0
C279 C 0.98624 0.70963 0.04545 0.0
O280 O 0.04794 0.69725 0.9567 0.0
O281 O 0.04762 0.7456 0.9996 0.0
C282 C 0.98662 0.68595 0.88299 0.0
O283 O 0.00406 0.68679 0.02131 0.0
O284 O 0.97819 0.7452 0.03595 0.0
C285 C 0.91785 0.79266 0.98243 0.0
Fe286 Fe 0.56751 0.25575 0.41581 0.0
Fe287 Fe 0.52336 0.32678 0.45178 0.0
O288 O 0.53304 0.27495 0.45113 0.0
Fe289 Fe 0.50863 0.24272 0.48545 0.0
O290 O 0.55554 0.22442 0.5051 0.0
O291 O 0.58532 0.21485 0.4477 0.0
O292 O 0.60774 0.28589 0.43609 0.0
C293 C 0.60606 0.32322 0.43976 0.0
C294 C 0.50951 0.19865 0.41225 0.0
O295 O 0.57344 0.34154 0.43643 0.0
C296 C 0.44754 0.29388 0.46973 0.0
O297 O 0.55593 0.29293 0.37664 0.0
O298 O 0.50547 0.32588 0.40143 0.0
O299 O 0.50476 0.20086 0.44971 0.0
O300 O 0.52984 0.2243 0.39384 0.0
C301 C 0.52688 0.31186 0.53168 0.0
O302 O 0.47202 0.32203 0.46733 0.0
O303 O 0.45908 0.25816 0.46974 0.0
C304 C 0.52611 0.31568 0.37199 0.0
O305 O 0.54002 0.33148 0.5026 0.0
O306 O 0.50847 0.27925 0.52676 0.0
C307 C 0.58271 0.20861 0.48473 0.0
Fe308 Fe 0.4682 0.81586 0.01751 0.0
Fe309 Fe 0.48408 0.72806 0.00294 0.0
O310 O 0.45978 0.76605 0.03033 0.0
Fe311 Fe 0.4282 0.75494 0.07111 0.0
O312 O 0.38606 0.78 0.04858 0.0
O313 O 0.41932 0.834 0.03377 0.0
O314 O 0.44661 0.80858 0.96916 0.0
C315 C 0.46053 0.78462 0.94395 0.0
C316 C 0.47214 0.82264 0.0976 0.0
O317 O 0.48271 0.75588 0.95509 0.0
C318 C 0.48787 0.70032 0.08305 0.0
O319 O 0.51875 0.80841 0.99864 0.0
O320 O 0.53332 0.7473 0.01579 0.0
O321 O 0.44185 0.80016 0.10082 0.0
O322 O 0.4905 0.82425 0.06512 0.0
C323 C 0.41007 0.69611 0.01242 0.0
O324 O 0.48888 0.69407 0.04586 0.0
O325 O 0.46771 0.72897 0.09664 0.0
C326 C 0.54412 0.78237 0.00795 0.0
O327 O 0.4371 0.70639 0.98861 0.0
O328 O 0.40919 0.70859 0.04817 0.0
C329 C 0.38676 0.81585 0.03793 0.0
Fe330 Fe 0.06411 0.23307 0.5736 0.0
Fe331 Fe 0.02497 0.17655 0.51532 0.0
O332 O 0.03498 0.22518 0.53093 0.0
Fe333 Fe 0.01362 0.26618 0.50534 0.0
O334 O 0.06256 0.2847 0.49243 0.0
O335 O 0.08547 0.27988 0.55374 0.0
O336 O 0.10674 0.2083 0.55264 0.0
C337 C 0.1063 0.17335 0.5394 0.0
C338 C 0.0111 0.29122 0.58632 0.0
O339 O 0.07382 0.15625 0.5307 0.0
C340 C 0.95082 0.21488 0.50886 0.0
O341 O 0.0489 0.18731 0.60027 0.0
O342 O 0.00168 0.16537 0.56196 0.0
O343 O 0.01145 0.29959 0.54951 0.0
O344 O 0.02253 0.2575 0.59734 0.0
C345 C 0.03347 0.21134 0.44373 0.0
O346 O 0.97465 0.18793 0.49749 0.0
O347 O 0.96333 0.24932 0.51746 0.0
C348 C 0.0185 0.16587 0.59514 0.0
O349 O 0.04691 0.1858 0.4675 0.0
O350 O 0.01299 0.24067 0.4563 0.0
C351 C 0.08814 0.29344 0.51841 0.0
Fe352 Fe 0.92069 0.92018 0.73805 0.0
Fe353 Fe 0.96956 0.95976 0.67283 0.0
O354 O 0.95672 0.95572 0.72355 0.0
Fe355 Fe 0.97926 0.98812 0.75878 0.0
O356 O 0.99866 0.94668 0.78718 0.0
O357 O 0.94534 0.90832 0.78531 0.0
O358 O 0.94805 0.87871 0.71674 0.0
C359 C 0.95781 0.87713 0.68079 0.0
C360 C 0.89893 0.98322 0.78565 0.0
O361 O 0.95881 0.9082 0.65995 0.0
C362 C 0.97062 0.03983 0.69681 0.0
O363 O 0.8895 0.92709 0.69335 0.0
O364 O 0.91964 0.97514 0.66066 0.0
O365 O 0.93507 0.99211 0.79153 0.0
O366 O 0.8902 0.95776 0.75992 0.0
C367 C 0.04232 0.96553 0.70617 0.0
O368 O 0.98276 0.01203 0.6748 0.0
O369 O 0.96167 0.03288 0.73262 0.0
C370 C 0.88841 0.95666 0.66983 0.0
O371 O 0.02019 0.94537 0.68347 0.0
O372 O 0.02771 0.98854 0.73256 0.0
C373 C 0.97933 0.9169 0.7991 0.0
Fe374 Fe 0.51224 0.0066 0.2579 0.0
Fe375 Fe 0.57423 0.07 0.2358 0.0
O376 O 0.53641 0.03676 0.22174 0.0
Fe377 Fe 0.52431 0.03232 0.17123 0.0
O378 O 0.47398 0.04801 0.18112 0.0
O379 O 0.46406 0.00586 0.23052 0.0
O380 O 0.49361 0.05031 0.28412 0.0
C381 C 0.51548 0.0782 0.2965 0.0
C382 C 0.52011 0.95244 0.19741 0.0
O383 O 0.55062 0.08249 0.28379 0.0
C384 C 0.60552 0.03435 0.16746 0.0
O385 O 0.55611 0.00426 0.29248 0.0
O386 O 0.60247 0.02873 0.25513 0.0
O387 O 0.51019 0.98028 0.17423 0.0
O388 O 0.5288 0.96004 0.23339 0.0
C389 C 0.53806 0.11478 0.1798 0.0
O390 O 0.60456 0.06367 0.19094 0.0
O391 O 0.57416 0.0157 0.15922 0.0
C392 C 0.59266 0.01265 0.28689 0.0
O393 O 0.54831 0.1129 0.21569 0.0
O394 O 0.53599 0.08382 0.15865 0.0
C395 C 0.45067 0.02848 0.20311 0.0
Fe396 Fe 0.42124 0.56295 0.25621 0.0
Fe397 Fe 0.46397 0.51608 0.32114 0.0
O398 O 0.45951 0.52946 0.2705 0.0
Fe399 Fe 0.49242 0.50934 0.23413 0.0
O400 O 0.50789 0.55851 0.21797 0.0
O401 O 0.4481 0.58417 0.21356 0.0
O402 O 0.44153 0.6028 0.28695 0.0
C403 C 0.44666 0.59904 0.32398 0.0
C404 C 0.41659 0.50575 0.19854 0.0
O405 O 0.44781 0.56491 0.34008 0.0
C406 C 0.48266 0.44362 0.28109 0.0
O407 O 0.38647 0.54825 0.29555 0.0
O408 O 0.41364 0.49605 0.32273 0.0
O409 O 0.45408 0.50607 0.19569 0.0
O410 O 0.39902 0.52504 0.22557 0.0
C411 C 0.54225 0.52628 0.29957 0.0
O412 O 0.48155 0.46546 0.31162 0.0
O413 O 0.48044 0.45815 0.24671 0.0
C414 C 0.38312 0.51676 0.31576 0.0
O415 O 0.51435 0.53475 0.32321 0.0
O416 O 0.53601 0.50921 0.2667 0.0
C417 C 0.48457 0.58454 0.20457 0.0
Fe418 Fe 0.99771 0.49289 0.7303 0.0
Fe419 Fe 0.06741 0.44276 0.76334 0.0
O420 O 0.02475 0.47289 0.77084 0.0
Fe421 Fe 0.00937 0.48402 0.81951 0.0
O422 O 0.96282 0.45952 0.81185 0.0
O423 O 0.94886 0.49105 0.75629 0.0
O424 O 0.98652 0.44325 0.71187 0.0
C425 C 0.01233 0.41707 0.70393 0.0
C426 C 0.99856 0.55683 0.78063 0.0
O427 O 0.04741 0.41939 0.71794 0.0
C428 C 0.08789 0.4916 0.83004 0.0
O429 O 0.04142 0.49713 0.69706 0.0
O430 O 0.09195 0.48124 0.73515 0.0
O431 O 0.98838 0.53291 0.80765 0.0
O432 O 0.00772 0.54405 0.7465 0.0
C433 C 0.03488 0.40347 0.82582 0.0
O434 O 0.09383 0.461 0.80846 0.0
O435 O 0.05534 0.50957 0.82873 0.0
C436 C 0.07866 0.49462 0.70279 0.0
O437 O 0.04651 0.40126 0.79047 0.0
O438 O 0.02692 0.43679 0.84134 0.0
C439 C 0.93828 0.46952 0.78559 0.0
Fe440 Fe 0.73294 0.91728 0.94114 0.0
Fe441 Fe 0.67604 0.97054 0.9878 0.0
O442 O 0.72495 0.95694 0.97451 0.0
Fe443 Fe 0.76656 0.98352 0.99368 0.0
O444 O 0.79843 0.97585 0.94947 0.0
O445 O 0.75634 0.9514 0.9068 0.0
O446 O 0.68776 0.92426 0.91239 0.0
C447 C 0.66458 0.95347 0.9089 0.0
C448 C 0.79415 0.90736 0.99765 0.0
O449 O 0.6613 0.97889 0.93634 0.0
C450 C 0.7137 0.98075 0.05945 0.0
O451 O 0.70884 0.88137 0.97366 0.0
O452 O 0.65669 0.91895 0.987 0.0
O453 O 0.78614 0.93853 0.01724 0.0
O454 O 0.78014 0.90224 0.96322 0.0
C455 C 0.71529 0.04481 0.97548 0.0
O456 O 0.68683 0.96313 0.04017 0.0
O457 O 0.74268 0.99647 0.04135 0.0
C458 C 0.6734 0.88493 0.98564 0.0
O459 O 0.68722 0.02437 0.99045 0.0
O460 O 0.74962 0.03002 0.97103 0.0
C461 C 0.78819 0.96961 0.91382 0.0
Fe462 Fe 0.16965 0.53505 0.05024 0.0
Fe463 Fe 0.25288 0.51306 0.0168 0.0
O464 O 0.22167 0.54267 0.04819 0.0
Fe465 Fe 0.24308 0.58078 0.07821 0.0
O466 O 0.20577 0.58021 0.11811 0.0
O467 O 0.16998 0.5285 0.10354 0.0
O468 O 0.17329 0.48106 0.04728 0.0
C469 C 0.20124 0.45599 0.04586 0.0
C470 C 0.17928 0.61889 0.04486 0.0
O471 O 0.23675 0.46623 0.03913 0.0
C472 C 0.28859 0.58578 0.00847 0.0
O473 O 0.16349 0.53953 0.99716 0.0
O474 O 0.21663 0.50723 0.97653 0.0
O475 O 0.21621 0.61898 0.05131 0.0
O476 O 0.15794 0.58874 0.05291 0.0
C477 C 0.29578 0.5204 0.08917 0.0
O478 O 0.2718 0.55719 0.99091 0.0
O479 O 0.28488 0.59028 0.04538 0.0
C480 C 0.18251 0.52163 0.9703 0.0
O481 O 0.29444 0.51291 0.05221 0.0
O482 O 0.2714 0.54401 0.1056 0.0
C483 C 0.18165 0.55359 0.12843 0.0
Fe484 Fe 0.26641 0.42579 0.57019 0.0
Fe485 Fe 0.32733 0.48247 0.53434 0.0
O486 O 0.27763 0.46729 0.54012 0.0
Fe487 Fe 0.23872 0.49274 0.51453 0.0
O488 O 0.21523 0.50669 0.5611 0.0
O489 O 0.21819 0.4466 0.58729 0.0
O490 O 0.28797 0.44775 0.61434 0.0
C491 C 0.32326 0.46001 0.616 0.0
C492 C 0.21312 0.41166 0.51323 0.0
O493 O 0.34263 0.46848 0.58485 0.0
C494 C 0.29569 0.48999 0.45638 0.0
O495 O 0.31193 0.39768 0.55891 0.0
O496 O 0.34216 0.43438 0.51422 0.0
O497 O 0.2057 0.44856 0.51027 0.0
O498 O 0.24566 0.40109 0.52748 0.0
C499 C 0.28909 0.55489 0.53962 0.0
O500 O 0.32112 0.49856 0.48279 0.0
O501 O 0.2604 0.48085 0.46598 0.0
C502 C 0.33607 0.40098 0.53027 0.0
O503 O 0.31521 0.53175 0.55383 0.0
O504 O 0.26342 0.54176 0.51543 0.0
C505 C 0.20481 0.48203 0.58735 0.0
Fe506 Fe 0.72831 0.01352 0.49657 0.0
Fe507 Fe 0.76213 0.08165 0.4451 0.0
O508 O 0.76923 0.04254 0.47963 0.0
Fe509 Fe 0.81738 0.03107 0.49692 0.0
O510 O 0.80824 0.97756 0.50156 0.0
O511 O 0.74991 0.96861 0.47382 0.0
O512 O 0.69777 0.01956 0.45167 0.0
C513 C 0.70713 0.02869 0.41649 0.0
C514 C 0.77754 0.01869 0.56539 0.0
O515 O 0.73823 0.04846 0.40964 0.0
C516 C 0.81983 0.11575 0.49097 0.0
O517 O 0.70485 0.05722 0.5192 0.0
O518 O 0.71485 0.09665 0.4674 0.0
O519 O 0.80268 0.04037 0.54794 0.0
O520 O 0.75069 0.00168 0.54523 0.0
C521 C 0.83296 0.04419 0.41799 0.0
O522 O 0.78524 0.11857 0.47706 0.0
O523 O 0.83637 0.0822 0.49492 0.0
C524 C 0.69787 0.08912 0.50017 0.0
O525 O 0.80898 0.0733 0.41769 0.0
O526 O 0.83437 0.02073 0.44716 0.0
C527 C 0.78452 0.95613 0.48198 0.0
C528 C 0.98408 0.18153 0.15614 0.0
C529 C 0.98927 0.17025 0.11582 0.0
C530 C 0.98304 0.10057 0.1366 0.0
C531 C 0.99247 0.11247 0.17589 0.0
N532 N 0.99447 0.16431 0.22514 0.0
N533 N 0.98131 0.11797 0.06677 0.0
C534 C 0.9902 0.15304 0.18642 0.0
C535 C 0.98431 0.12943 0.10554 0.0
N536 N 0.9721 0.21926 0.16498 0.0
N537 N 0.97188 0.06221 0.12935 0.0
H538 H 0.97397 0.1376 0.04402 0.0
H539 H 0.98483 0.0886 0.05745 0.0
H540 H 0.9702 0.04092 0.15183 0.0
H541 H 0.96128 0.05237 0.10201 0.0
H542 H 0.9653 0.22894 0.19361 0.0
H543 H 0.96419 0.23892 0.14243 0.0
H544 H 0.9979 0.19383 0.23398 0.0
H545 H 0.99554 0.14366 0.24824 0.0
C546 C 0.49849 0.87536 0.60146 0.0
C547 C 0.50382 0.83469 0.61198 0.0
C548 C 0.50781 0.85288 0.68246 0.0
C549 C 0.49803 0.89258 0.67247 0.0
N550 N 0.49884 0.94437 0.62301 0.0
N551 N 0.53293 0.78946 0.65889 0.0
C552 C 0.49817 0.90476 0.63206 0.0
C553 C 0.51503 0.82515 0.65149 0.0
N554 N 0.49276 0.88604 0.56278 0.0
N555 N 0.50907 0.8414 0.72138 0.0
H556 H 0.54042 0.7702 0.63573 0.0
H557 H 0.54432 0.78137 0.68651 0.0
H558 H 0.50535 0.8614 0.74481 0.0
H559 H 0.51168 0.81181 0.73026 0.0
H560 H 0.48133 0.91355 0.55419 0.0
H561 H 0.5005 0.86774 0.5391 0.0
H562 H 0.50269 0.95532 0.59433 0.0
H563 H 0.49955 0.96643 0.64473 0.0
C564 C 0.48807 0.3862 0.853 0.0
C565 C 0.50866 0.38371 0.81601 0.0
C566 C 0.53722 0.32085 0.83634 0.0
C567 C 0.51337 0.31991 0.87146 0.0
N568 N 0.45543 0.3478 0.90445 0.0
N569 N 0.5346 0.33797 0.76722 0.0
C570 C 0.48525 0.3513 0.87717 0.0
C571 C 0.52664 0.34719 0.80581 0.0
N572 N 0.47286 0.42144 0.86633 0.0
N573 N 0.57223 0.30044 0.83288 0.0
H574 H 0.5232 0.35511 0.7441 0.0
H575 H 0.54695 0.31068 0.75887 0.0
H576 H 0.58726 0.28805 0.85691 0.0
H577 H 0.58993 0.30242 0.80745 0.0
H578 H 0.46131 0.42472 0.89493 0.0
H579 H 0.47464 0.44797 0.85055 0.0
H580 H 0.43305 0.36911 0.90747 0.0
H581 H 0.44999 0.32157 0.92002 0.0
C582 C 0.00776 0.68569 0.34141 0.0
C583 C 0.00753 0.67707 0.38265 0.0
C584 C 0.99762 0.60637 0.36866 0.0
C585 C 0.99488 0.61558 0.32757 0.0
N586 N 0.00915 0.66074 0.27383 0.0
N587 N 0.01593 0.62864 0.43477 0.0
C588 C 0.0039 0.65426 0.31359 0.0
C589 C 0.00758 0.63707 0.39596 0.0
N590 N 0.00989 0.72434 0.32915 0.0
N591 N 0.98822 0.56904 0.38183 0.0
H592 H 0.02338 0.65051 0.45536 0.0
H593 H 0.01945 0.59984 0.44564 0.0
H594 H 0.98084 0.54573 0.3628 0.0
H595 H 0.98497 0.56173 0.41172 0.0
H596 H 0.00481 0.73366 0.3001 0.0
H597 H 0.01569 0.74735 0.34898 0.0
H598 H 0.01929 0.68744 0.26192 0.0
H599 H 0.00684 0.63808 0.25283 0.0
C600 C 0.14469 0.98103 0.16714 0.0
C601 C 0.10772 1.00034 0.1604 0.0
C602 C 0.1289 0.01547 0.09245 0.0
C603 C 0.16826 0.00509 0.10279 0.0
N604 N 0.2145 0.97638 0.14925 0.0
N605 N 0.06583 0.03903 0.11627 0.0
C606 C 0.1764 0.98681 0.13978 0.0
C607 C 0.09969 0.01764 0.12265 0.0
N608 N 0.14923 0.95751 0.19994 0.0
N609 N 0.11938 0.02322 0.05379 0.0
H610 H 0.04346 0.04151 0.13719 0.0
H611 H 0.06131 0.05673 0.09124 0.0
H612 H 0.13991 0.02027 0.03082 0.0
H613 H 0.09031 0.02772 0.04407 0.0
H614 H 0.1744 0.94024 0.20525 0.0
H615 H 0.12596 0.95245 0.21988 0.0
H616 H 0.22306 0.96688 0.17743 0.0
H617 H 0.23808 0.97932 0.12929 0.0
C618 C 0.34654 0.01857 0.67997 0.0
C619 C 0.38685 0.01061 0.67034 0.0
C620 C 0.36799 0.98665 0.60517 0.0
C621 C 0.32721 0.99228 0.61482 0.0
N622 N 0.2784 0.02417 0.65698 0.0
N623 N 0.43447 0.01052 0.61685 0.0
C624 C 0.31662 0.01178 0.65088 0.0
C625 C 0.39722 0.00259 0.63057 0.0
N626 N 0.33719 0.03172 0.71725 0.0
N627 N 0.3792 0.96333 0.57388 0.0
H628 H 0.45519 0.02603 0.63384 0.0
H629 H 0.44236 0.00699 0.58706 0.0
H630 H 0.35896 0.9471 0.55712 0.0
H631 H 0.40882 0.9561 0.56811 0.0
H632 H 0.30832 0.03329 0.72832 0.0
H633 H 0.3591 0.04033 0.73745 0.0
H634 H 0.2695 0.04144 0.6811 0.0
H635 H 0.25599 0.01992 0.6361 0.0
C636 C 0.62123 0.52064 0.85918 0.0
C637 C 0.62223 0.49352 0.82658 0.0
C638 C 0.68945 0.47499 0.8453 0.0
C639 C 0.68515 0.49374 0.88242 0.0
N640 N 0.64471 0.53429 0.92605 0.0
N641 N 0.65439 0.43421 0.7994 0.0
C642 C 0.6505 0.51697 0.88984 0.0
C643 C 0.65555 0.46766 0.8225 0.0
N644 N 0.59354 0.55036 0.86046 0.0
N645 N 0.72591 0.46344 0.83203 0.0
H646 H 0.62848 0.42334 0.78658 0.0
H647 H 0.67798 0.41402 0.79813 0.0
H648 H 0.75154 0.47191 0.84692 0.0
H649 H 0.73042 0.45107 0.80392 0.0
H650 H 0.59381 0.57272 0.88193 0.0
H651 H 0.5729 0.55504 0.83787 0.0
H652 H 0.61792 0.54759 0.93427 0.0
H653 H 0.66582 0.5333 0.94864 0.0
C654 C 0.83703 0.49852 0.31227 0.0
C655 C 0.87789 0.49597 0.32247 0.0
C656 C 0.85961 0.49188 0.39309 0.0
C657 C 0.82023 0.5036 0.38317 0.0
N658 N 0.76916 0.51015 0.3337 0.0
N659 N 0.92294 0.4662 0.36961 0.0
C660 C 0.80821 0.5041 0.34276 0.0
C661 C 0.88792 0.48539 0.36211 0.0
N662 N 0.82581 0.49246 0.27375 0.0
N663 N 0.87034 0.48818 0.43202 0.0
H664 H 0.94112 0.45546 0.3469 0.0
H665 H 0.93107 0.45549 0.39746 0.0
H666 H 0.84992 0.48966 0.45524 0.0
H667 H 0.89967 0.48525 0.44143 0.0
H668 H 0.79646 0.49135 0.26414 0.0
H669 H 0.84606 0.48357 0.25205 0.0
H670 H 0.75873 0.51672 0.30534 0.0
H671 H 0.74705 0.50869 0.35525 0.0
C672 C 0.18544 0.16024 0.98834 0.0
C673 C 0.17561 0.11914 0.9887 0.0
C674 C 0.10505 0.13589 0.99521 0.0
C675 C 0.11539 0.17632 0.00182 0.0
N676 N 0.16393 0.22876 0.9986 0.0
N677 N 0.12549 0.0726 0.96749 0.0
C678 C 0.15519 0.18913 0.99602 0.0
C679 C 0.13517 0.10816 0.98451 0.0
N680 N 0.22317 0.17128 0.97816 0.0
N681 N 0.06682 0.12347 0.0008 0.0
H682 H 0.1467 0.05434 0.95407 0.0
H683 H 0.09638 0.06419 0.96124 0.0
H684 H 0.04353 0.14294 0.00713 0.0
H685 H 0.05878 0.09354 0.00163 0.0
H686 H 0.23267 0.20058 0.97547 0.0
H687 H 0.2442 0.15058 0.96833 0.0
H688 H 0.19262 0.24018 0.99927 0.0
H689 H 0.14193 0.25058 0.0006 0.0
C690 C 0.63207 0.33313 0.02583 0.0
C691 C 0.60634 0.33469 0.99248 0.0
C692 C 0.63039 0.40199 0.97804 0.0
C693 C 0.66303 0.39509 0.00372 0.0
N694 N 0.69372 0.35623 0.05517 0.0
N695 N 0.57702 0.37329 0.93963 0.0
C696 C 0.66312 0.3615 0.02905 0.0
C697 C 0.6041 0.37014 0.9696 0.0
N698 N 0.62635 0.30524 0.05461 0.0
N699 N 0.62431 0.43887 0.96206 0.0
H700 H 0.55418 0.3529 0.93607 0.0
H701 H 0.57772 0.39544 0.91799 0.0
H702 H 0.64126 0.46345 0.96993 0.0
H703 H 0.5996 0.4464 0.94504 0.0
H704 H 0.64277 0.30397 0.08079 0.0
H705 H 0.60151 0.28701 0.05459 0.0
H706 H 0.69838 0.32998 0.07097 0.0
H707 H 0.71534 0.37802 0.05972 0.0
C708 C 0.85212 0.6833 0.51184 0.0
C709 C 0.8832 0.67679 0.48394 0.0
C710 C 0.86662 0.60611 0.48289 0.0
C711 C 0.83 0.61459 0.5014 0.0
N712 N 0.79046 0.65897 0.54073 0.0
N713 N 0.91592 0.63163 0.43824 0.0
C714 C 0.82362 0.65267 0.51827 0.0
C715 C 0.88961 0.63798 0.46843 0.0
N716 N 0.85088 0.71785 0.53307 0.0
N717 N 0.88008 0.56794 0.48003 0.0
H718 H 0.93124 0.65465 0.4246 0.0
H719 H 0.9186 0.60433 0.42372 0.0
H720 H 0.86635 0.54466 0.49512 0.0
H721 H 0.90799 0.56078 0.46853 0.0
H722 H 0.83066 0.72349 0.55584 0.0
H723 H 0.87268 0.73953 0.53008 0.0
H724 H 0.78108 0.68692 0.55033 0.0
H725 H 0.77229 0.63532 0.54936 0.0
C726 C 0.31046 0.84297 0.49162 0.0
C727 C 0.32213 0.88334 0.49004 0.0
C728 C 0.39218 0.86275 0.4911 0.0
C729 C 0.38 0.82373 0.50219 0.0
N730 N 0.32817 0.77471 0.5074 0.0
N731 N 0.37335 0.93216 0.48117 0.0
C732 C 0.33925 0.81312 0.50019 0.0
C733 C 0.36288 0.89328 0.48659 0.0
N734 N 0.2715 0.83375 0.48506 0.0
N735 N 0.43161 0.87057 0.48535 0.0
H736 H 0.35238 0.95439 0.4758 0.0
H737 H 0.40231 0.94277 0.48305 0.0
H738 H 0.45361 0.84897 0.48848 0.0
H739 H 0.44254 0.89745 0.47467 0.0
H740 H 0.26052 0.80488 0.48339 0.0
H741 H 0.25077 0.85563 0.4775 0.0
H742 H 0.29886 0.76554 0.51092 0.0
H743 H 0.34883 0.75185 0.51074 0.0
C744 C 0.01029 0.85238 0.8193 0.0
C745 C 0.99667 0.89089 0.83008 0.0
C746 C 0.00839 0.87544 0.90025 0.0
C747 C 0.01244 0.83487 0.88984 0.0
N748 N 0.02583 0.78496 0.84075 0.0
N749 N 0.98464 0.94072 0.88036 0.0
C750 C 0.0168 0.82363 0.84957 0.0
C751 C 0.99722 0.9033 0.87042 0.0
N752 N 0.01695 0.84365 0.7802 0.0
N753 N 0.01465 0.88693 0.93863 0.0
H754 H 0.97673 0.962 0.85923 0.0
H755 H 0.97996 0.95003 0.90951 0.0
H756 H 0.02287 0.86672 0.96067 0.0
H757 H 0.01514 0.91652 0.94781 0.0
H758 H 0.02919 0.81706 0.77008 0.0
H759 H 0.0128 0.86462 0.7578 0.0
H760 H 0.02509 0.77285 0.81231 0.0
H761 H 0.03401 0.76474 0.86285 0.0
C762 C 0.47864 0.17004 0.3511 0.0
C763 C 0.49574 0.16327 0.38889 0.0
C764 C 0.51314 0.09518 0.36912 0.0
C765 C 0.50201 0.10434 0.32944 0.0
N766 N 0.47219 0.14918 0.28226 0.0
N767 N 0.51132 0.11419 0.43862 0.0
C768 C 0.48332 0.14114 0.32048 0.0
C769 C 0.50753 0.12416 0.39953 0.0
N770 N 0.45669 0.20375 0.34551 0.0
N771 N 0.53068 0.05941 0.37735 0.0
H772 H 0.50228 0.13317 0.46127 0.0
H773 H 0.51767 0.08557 0.44863 0.0
H774 H 0.53248 0.03649 0.35657 0.0
H775 H 0.54489 0.05298 0.40406 0.0
H776 H 0.44109 0.21031 0.31964 0.0
H777 H 0.45076 0.22307 0.3691 0.0
H778 H 0.46243 0.17693 0.27256 0.0
H779 H 0.47434 0.12812 0.25959 0.0
C780 C 0.50758 0.68234 0.15273 0.0
C781 C 0.50346 0.67025 0.11249 0.0
C782 C 0.5056 0.60036 0.13444 0.0
C783 C 0.49851 0.61331 0.17404 0.0
N784 N 0.49728 0.66626 0.22223 0.0
N785 N 0.51137 0.61707 0.06457 0.0
C786 C 0.50133 0.65423 0.18365 0.0
C787 C 0.50695 0.629 0.1031 0.0
N788 N 0.51885 0.72049 0.16102 0.0
N789 N 0.5118 0.56083 0.12698 0.0
H790 H 0.52257 0.6357 0.04256 0.0
H791 H 0.50586 0.58825 0.05469 0.0
H792 H 0.51139 0.53923 0.14913 0.0
H793 H 0.52041 0.54942 0.09954 0.0
H794 H 0.52516 0.73067 0.18955 0.0
H795 H 0.52638 0.74061 0.13859 0.0
H796 H 0.49407 0.69595 0.23059 0.0
H797 H 0.49562 0.6462 0.24584 0.0
C798 C 0.02075 0.34645 0.68433 0.0
C799 C 0.00335 0.38373 0.67594 0.0
C800 C 0.98101 0.35602 0.61206 0.0
C801 C 0.00726 0.32313 0.61712 0.0
N802 N 0.06265 0.29661 0.65596 0.0
N803 N 0.96888 0.42525 0.62777 0.0
C804 C 0.03006 0.32074 0.65272 0.0
C805 C 0.9836 0.389 0.63878 0.0
N806 N 0.02824 0.33533 0.72254 0.0
N807 N 0.95295 0.35555 0.5828 0.0
H808 H 0.9701 0.45051 0.64556 0.0
H809 H 0.95836 0.43095 0.5992 0.0
H810 H 0.94861 0.33116 0.56416 0.0
H811 H 0.93108 0.37741 0.5802 0.0
H812 H 0.03933 0.30723 0.72984 0.0
H813 H 0.01766 0.35192 0.74647 0.0
H814 H 0.08054 0.29645 0.68127 0.0
H815 H 0.07557 0.28186 0.632 0.0
C816 C 0.87286 0.01445 0.85075 0.0
C817 C 0.86635 0.99391 0.81439 0.0
C818 C 0.81098 0.95871 0.84337 0.0
C819 C 0.8154 0.97931 0.87996 0.0
N820 N 0.84253 0.03833 0.91171 0.0
N821 N 0.81306 0.96889 0.77298 0.0
C822 C 0.84409 0.01069 0.88198 0.0
C823 C 0.8296 0.97413 0.80956 0.0
N824 N 0.90519 0.0384 0.85521 0.0
N825 N 0.79224 0.92278 0.8407 0.0
H826 H 0.82459 0.98261 0.7477 0.0
H827 H 0.78542 0.95531 0.76926 0.0
H828 H 0.78475 0.90566 0.8654 0.0
H829 H 0.79036 0.90723 0.81389 0.0
H830 H 0.9143 0.0493 0.88273 0.0
H831 H 0.92252 0.04761 0.83124 0.0
H832 H 0.86094 0.0632 0.91262 0.0
H833 H 0.8197 0.0395 0.93256 0.0
C834 C 0.63058 0.98265 0.34511 0.0
C835 C 0.62141 0.01613 0.32082 0.0
C836 C 0.66379 0.05776 0.36344 0.0
C837 C 0.67716 0.02372 0.3842 0.0
N838 N 0.6768 0.95244 0.39188 0.0
N839 N 0.63913 0.08502 0.30307 0.0
C840 C 0.66127 0.98574 0.37447 0.0
C841 C 0.64091 0.05333 0.32862 0.0
N842 N 0.61066 0.94767 0.33971 0.0
N843 N 0.67105 0.0951 0.37783 0.0
H844 H 0.62174 0.08749 0.27794 0.0
H845 H 0.6584 0.1092 0.30534 0.0
H846 H 0.68753 0.10068 0.40317 0.0
H847 H 0.65692 0.12052 0.36693 0.0
H848 H 0.61263 0.92376 0.3593 0.0
H849 H 0.59028 0.94325 0.31683 0.0
H850 H 0.6696 0.92359 0.38321 0.0
H851 H 0.69955 0.95358 0.41284 0.0
C852 C 0.3692 0.51663 0.10231 0.0
C853 C 0.32978 0.50559 0.11254 0.0
C854 C 0.35355 0.47616 0.17441 0.0
C855 C 0.39187 0.49088 0.1655 0.0
N856 N 0.43883 0.50264 0.11272 0.0
N857 N 0.28704 0.46269 0.15047 0.0
C858 C 0.40075 0.5035 0.12656 0.0
C859 C 0.32275 0.48121 0.14617 0.0
N860 N 0.37652 0.54185 0.07143 0.0
N861 N 0.34679 0.45863 0.21037 0.0
H862 H 0.26514 0.46509 0.12882 0.0
H863 H 0.28063 0.44242 0.17297 0.0
H864 H 0.37007 0.45218 0.22985 0.0
H865 H 0.31865 0.45135 0.221 0.0
H866 H 0.40452 0.55381 0.06575 0.0
H867 H 0.35404 0.55387 0.05407 0.0
H868 H 0.44626 0.50978 0.08349 0.0
H869 H 0.4617 0.48902 0.12858 0.0
C870 C 0.17815 0.50933 0.65194 0.0
C871 C 0.17115 0.4923 0.61408 0.0
C872 C 0.10127 0.4818 0.63129 0.0
C873 C 0.10767 0.49978 0.6693 0.0
N874 N 0.14953 0.54124 0.71005 0.0
N875 N 0.12377 0.47519 0.56333 0.0
C876 C 0.14536 0.51699 0.67772 0.0
C877 C 0.13195 0.48289 0.60233 0.0
N878 N 0.21617 0.51714 0.66374 0.0
N879 N 0.06742 0.46096 0.62315 0.0
H880 H 0.14525 0.47669 0.54113 0.0
H881 H 0.09496 0.472 0.55243 0.0
H882 H 0.04326 0.45893 0.64202 0.0
H883 H 0.06451 0.44264 0.59832 0.0
H884 H 0.22359 0.52549 0.6926 0.0
H885 H 0.24065 0.51261 0.64523 0.0
H886 H 0.17533 0.55722 0.71606 0.0
H887 H 0.12567 0.54869 0.72849 0.0
C888 C 0.86598 0.89278 0.99863 0.0
C889 C 0.82727 0.88066 0.00902 0.0
C890 C 0.85003 0.81103 0.01075 0.0
C891 C 0.88656 0.82274 0.99287 0.0
N892 N 0.924 0.87528 0.96095 0.0
N893 N 0.78143 0.82861 0.0257 0.0
C894 C 0.89349 0.86386 0.98507 0.0
C895 C 0.81916 0.83982 0.01579 0.0
N896 N 0.87593 0.93214 -0.00018 0.0
N897 N 0.84496 0.77273 0.0233 0.0
H898 H 0.75922 0.84941 0.03215 0.0
H899 H 0.77189 0.79915 0.0261 0.0
H900 H 0.86661 0.75088 0.01965 0.0
H901 H 0.82062 0.76334 0.03995 0.0
H902 H 0.9049 0.94223 0.99554 0.0
H903 H 0.85623 0.95409 0.0095 0.0
H904 H 0.92796 0.90445 0.9512 0.0
H905 H 0.94182 0.85495 0.94607 0.0
C906 C 0.34017 0.68164 0.99166 0.0
C907 C 0.37931 0.66768 0.99864 0.0
C908 C 0.35722 0.59942 0.98526 0.0
C909 C 0.31744 0.61248 0.98863 0.0
N910 N 0.26994 0.66567 0.98805 0.0
N911 N 0.42665 0.61361 0.99879 0.0
C912 C 0.3087 0.6537 0.98875 0.0
C913 C 0.38854 0.62668 0.99351 0.0
N914 N 0.33339 0.72149 0.98743 0.0
N915 N 0.36464 0.56073 0.97531 0.0
H916 H 0.45028 0.63284 0.00426 0.0
H917 H 0.43462 0.58367 0.99972 0.0
H918 H 0.34167 0.54078 0.96935 0.0
H919 H 0.39294 0.54947 0.9697 0.0
H920 H 0.3061 0.73373 0.97947 0.0
H921 H 0.35635 0.74218 0.98839 0.0
H922 H 0.26049 0.69474 0.99321 0.0
H923 H 0.24709 0.64548 0.98286 0.0
C924 C 0.18375 0.34564 0.53403 0.0
C925 C 0.18087 0.38109 0.5108 0.0
C926 C 0.11412 0.35954 0.49063 0.0
C927 C 0.12064 0.32204 0.50932 0.0
N928 N 0.17032 0.27562 0.53201 0.0
N929 N 0.14591 0.41516 0.45773 0.0
C930 C 0.15843 0.31378 0.52523 0.0
C931 C 0.14687 0.38615 0.48608 0.0
N932 N 0.20757 0.34285 0.56679 0.0
N933 N 0.07696 0.37091 0.47899 0.0
H934 H 0.17018 0.43329 0.45139 0.0
H935 H 0.12272 0.41776 0.43735 0.0
H936 H 0.05181 0.35337 0.483 0.0
H937 H 0.07072 0.39956 0.46878 0.0
H938 H 0.20825 0.31735 0.5845 0.0
H939 H 0.22092 0.36726 0.58028 0.0
H940 H 0.19871 0.26866 0.54241 0.0
H941 H 0.15404 0.25159 0.52131 0.0
C942 C 0.6513 0.18934 0.50748 0.0
C943 C 0.61059 0.17955 0.50326 0.0
C944 C 0.62626 0.10872 0.51164 0.0
C945 C 0.66727 0.11831 0.51317 0.0
N946 N 0.71723 0.16721 0.52718 0.0
N947 N 0.5585 0.13265 0.51772 0.0
C948 C 0.67914 0.15865 0.5162 0.0
C949 C 0.59775 0.14011 0.51099 0.0
N950 N 0.6634 0.22772 0.50207 0.0
N951 N 0.61453 0.07002 0.5079 0.0
H952 H 0.5372 0.15521 0.5184 0.0
H953 H 0.54786 0.10497 0.52671 0.0
H954 H 0.63431 0.04615 0.50925 0.0
H955 H 0.58544 0.0618 0.50131 0.0
H956 H 0.6931 0.23614 0.5001 0.0
H957 H 0.64332 0.25103 0.49809 0.0
H958 H 0.72745 0.19593 0.53256 0.0
H959 H 0.73738 0.14484 0.53492 0.0
C960 C 0.85549 0.30587 0.96024 0.0
C961 C 0.83514 0.32993 0.98852 0.0
C962 C 0.8765 0.30306 0.04185 0.0
C963 C 0.90165 0.28637 0.01273 0.0
N964 N 0.90539 0.25458 0.94887 0.0
N965 N 0.81421 0.33713 0.05625 0.0
C966 C 0.88763 0.28168 0.97342 0.0
C967 C 0.84159 0.32344 0.02958 0.0
N968 N 0.84601 0.30784 0.92089 0.0
N969 N 0.88657 0.29956 0.08086 0.0
H970 H 0.78806 0.35107 0.0469 0.0
H971 H 0.8156 0.33187 0.08668 0.0
H972 H 0.90951 0.28055 0.08955 0.0
H973 H 0.87217 0.31435 0.10394 0.0
H974 H 0.86395 0.29633 0.89839 0.0
H975 H 0.81991 0.32078 0.9106 0.0
H976 H 0.89477 0.24744 0.92072 0.0
H977 H 0.9289 0.23666 0.95827 0.0
C978 C 0.59271 0.69656 0.46727 0.0
C979 C 0.58642 0.70215 0.50846 0.0
C980 C 0.65052 0.67075 0.52118 0.0
C981 C 0.64969 0.65395 0.48262 0.0
N982 N 0.62143 0.6543 0.41659 0.0
N983 N 0.61292 0.70157 0.57457 0.0
C984 C 0.62175 0.66854 0.45454 0.0
C985 C 0.61672 0.69176 0.53547 0.0
N986 N 0.5709 0.71804 0.44068 0.0
N987 N 0.68444 0.66826 0.54298 0.0
H988 H 0.59007 0.72013 0.58449 0.0
H989 H 0.63192 0.69094 0.59659 0.0
H990 H 0.70981 0.65471 0.5314 0.0
H991 H 0.68843 0.68288 0.56999 0.0
H992 H 0.57565 0.71722 0.4101 0.0
H993 H 0.55141 0.74036 0.4499 0.0
H994 H 0.59975 0.66173 0.39585 0.0
H995 H 0.64175 0.6334 0.4063 0.0
C996 C 0.35628 0.17013 0.00856 0.0
C997 C 0.36071 0.12806 0.00403 0.0
C998 C 0.41777 0.13993 0.9617 0.0
C999 C 0.42006 0.18001 0.97376 0.0
N1000 N 0.39094 0.2335 0.01221 0.0
N1001 N 0.40819 0.07533 0.9892 0.0
C1002 C 0.38893 0.19555 0.99801 0.0
C1003 C 0.39507 0.11353 0.98427 0.0
N1004 N 0.32129 0.186 0.02164 0.0
N1005 N 0.43918 0.12652 0.93012 0.0
H1006 H 0.39648 0.05625 0.01066 0.0
H1007 H 0.43445 0.06499 0.97622 0.0
H1008 H 0.4546 0.14623 0.91212 0.0
H1009 H 0.43702 0.09736 0.91959 0.0
H1010 H 0.31585 0.21655 0.02207 0.0
H1011 H 0.29651 0.16877 0.0284 0.0
H1012 H 0.3713 0.24449 0.03356 0.0
H1013 H 0.4134 0.25319 0.00415 0.0
C1014 C 0.11784 0.82448 0.46201 0.0
C1015 C 0.09501 0.80333 0.49001 0.0
C1016 C 0.13696 0.82804 0.54367 0.0
C1017 C 0.15386 0.85571 0.51676 0.0
N1018 N 0.16634 0.87625 0.44924 0.0
N1019 N 0.10267 0.76519 0.55002 0.0
C1020 C 0.14662 0.85225 0.47538 0.0
C1021 C 0.11029 0.7989 0.52891 0.0
N1022 N 0.11432 0.8147 0.42298 0.0
N1023 N 0.1449 0.83062 0.58337 0.0
H1024 H 0.08768 0.74108 0.53762 0.0
H1025 H 0.11603 0.75897 0.57725 0.0
H1026 H 0.16522 0.85089 0.59506 0.0
H1027 H 0.12959 0.81411 0.60467 0.0
H1028 H 0.13216 0.82636 0.40056 0.0
H1029 H 0.09695 0.79043 0.41454 0.0
H1030 H 0.15887 0.87887 0.41933 0.0
H1031 H 0.18998 0.89425 0.45795 0.0
C1032 C 0.04252 0.88402 0.31743 0.0
C1033 C 0.01434 0.90756 0.2971 0.0
C1034 C 0.95992 0.86752 0.32435 0.0
C1035 C 0.988 0.84742 0.34845 0.0
N1036 N 0.05508 0.82464 0.35594 0.0
N1037 N 0.94836 0.91423 0.2703 0.0
C1038 C 0.02909 0.85181 0.34099 0.0
C1039 C 0.97365 0.89647 0.29664 0.0
N1040 N 0.08183 0.89407 0.31609 0.0
N1041 N 0.92033 0.85993 0.32914 0.0
H1042 H 0.95816 0.9346 0.24912 0.0
H1043 H 0.9187 0.90634 0.26678 0.0
H1044 H 0.90989 0.83745 0.34778 0.0
H1045 H 0.89777 0.8765 0.31594 0.0
H1046 H 0.10331 0.88129 0.33439 0.0
H1047 H 0.09251 0.91648 0.29742 0.0
H1048 H 0.08463 0.82294 0.34687 0.0
H1049 H 0.04562 0.80131 0.37397 0.0
C1050 C 0.5415 0.10508 0.79471 0.0
C1051 C 0.5002 0.10045 0.79117 0.0
C1052 C 0.49095 0.15589 0.83708 0.0
C1053 C 0.53068 0.15019 0.85039 0.0
N1054 N 0.59487 0.11931 0.84012 0.0
N1055 N 0.43544 0.12809 0.79992 0.0
C1056 C 0.55677 0.12571 0.82798 0.0
C1057 C 0.47481 0.1285 0.80918 0.0
N1058 N 0.56575 0.08933 0.76643 0.0
N1059 N 0.46928 0.18748 0.85071 0.0
H1060 H 0.42471 0.10998 0.77711 0.0
H1061 H 0.41411 0.14519 0.81453 0.0
H1062 H 0.48079 0.20792 0.87097 0.0
H1063 H 0.44117 0.19485 0.84008 0.0
H1064 H 0.59601 0.09584 0.76507 0.0
H1065 H 0.55425 0.07404 0.74199 0.0
H1066 H 0.61386 0.09919 0.82611 0.0
H1067 H 0.60612 0.13139 0.86621 0.0
C1068 C 0.45446 0.64314 0.68552 0.0
C1069 C 0.48364 0.66246 0.66158 0.0
C1070 C 0.53583 0.63257 0.70381 0.0
C1071 C 0.50668 0.6089 0.72201 0.0
N1072 N 0.44102 0.60934 0.7479 0.0
N1073 N 0.5523 0.68163 0.65331 0.0
C1074 C 0.46684 0.62056 0.71891 0.0
C1075 C 0.52452 0.6596 0.67293 0.0
N1076 N 0.41565 0.64218 0.67413 0.0
N1077 N 0.57382 0.62961 0.71746 0.0
H1078 H 0.54442 0.70288 0.63226 0.0
H1079 H 0.58278 0.67907 0.65763 0.0
H1080 H 0.58094 0.61011 0.74061 0.0
H1081 H 0.59733 0.64716 0.70777 0.0
H1082 H 0.39397 0.62609 0.68925 0.0
H1083 H 0.4061 0.65336 0.64707 0.0
H1084 H 0.41195 0.62004 0.74958 0.0
H1085 H 0.45064 0.5925 0.77219 0.0
C1086 C 0.97398 0.35071 0.16669 0.0
C1087 C 0.01321 0.347 0.15081 0.0
C1088 C 0.03602 0.39473 0.20063 0.0
C1089 C 0.99658 0.40588 0.20822 0.0
N1090 N 0.92776 0.38922 0.2075 0.0
N1091 N 0.08114 0.3712 0.15078 0.0
C1092 C 0.96537 0.38178 0.19437 0.0
C1093 C 0.04447 0.36974 0.16796 0.0
N1094 N 0.94534 0.32452 0.15531 0.0
N1095 N 0.06531 0.40883 0.22456 0.0
H1096 H 0.08746 0.35748 0.12393 0.0
H1097 H 0.10355 0.39025 0.16049 0.0
H1098 H 0.05835 0.42593 0.24954 0.0
H1099 H 0.0947 0.39914 0.22254 0.0
H1100 H 0.91691 0.32337 0.16741 0.0
H1101 H 0.95128 0.30189 0.13522 0.0
H1102 H 0.90249 0.37521 0.19662 0.0
H1103 H 0.92233 0.40976 0.23017 0.0
C1104 C 0.3164 0.97519 0.8405 0.0
C1105 C 0.34898 0.00165 0.83571 0.0
C1106 C 0.32031 0.04612 0.88568 0.0
C1107 C 0.29554 0.01456 0.8981 0.0
N1108 N 0.26149 0.95385 0.88266 0.0
N1109 N 0.3664 0.07086 0.83606 0.0
C1110 C 0.29038 0.98078 0.87353 0.0
C1111 C 0.34612 0.04008 0.85285 0.0
N1112 N 0.30909 0.94678 0.81246 0.0
N1113 N 0.31993 0.08111 0.90632 0.0
H1114 H 0.38166 0.06717 0.80932 0.0
H1115 H 0.36417 0.10027 0.84553 0.0
H1116 H 0.29834 0.0871 0.92784 0.0
H1117 H 0.34078 0.10364 0.90251 0.0
H1118 H 0.28509 0.92735 0.81346 0.0
H1119 H 0.32398 0.94627 0.78528 0.0
H1120 H 0.25864 0.92623 0.86896 0.0
H1121 H 0.24086 0.9591 0.90528 0.0
C1122 C 0.82256 0.527 0.09038 0.0
C1123 C 0.8124 0.48637 0.08698 0.0
C1124 C 0.85339 0.47175 0.14526 0.0
C1125 C 0.87015 0.51045 0.14278 0.0
N1126 N 0.87398 0.57348 0.1084 0.0
N1127 N 0.81622 0.41964 0.11185 0.0
C1128 C 0.85521 0.53803 0.1145 0.0
C1129 C 0.82686 0.45866 0.11505 0.0
N1130 N 0.80125 0.55488 0.07 0.0
N1131 N 0.86222 0.44793 0.17682 0.0
H1132 H 0.79471 0.41029 0.09159 0.0
H1133 H 0.82947 0.39687 0.12819 0.0
H1134 H 0.88167 0.45682 0.19918 0.0
H1135 H 0.84756 0.42127 0.18259 0.0
H1136 H 0.80573 0.58541 0.07314 0.0
H1137 H 0.77583 0.54733 0.05403 0.0
H1138 H 0.86664 0.59289 0.08538 0.0
H1139 H 0.8997 0.58143 0.12352 0.0
C1140 C 0.6739 0.48285 0.64812 0.0
C1141 C 0.64196 0.51008 0.6544 0.0
C1142 C 0.67341 0.55529 0.60679 0.0
C1143 C 0.6956 0.52293 0.59182 0.0
N1144 N 0.72139 0.45669 0.60053 0.0
N1145 N 0.62075 0.57849 0.65018 0.0
C1146 C 0.69779 0.48708 0.61358 0.0
C1147 C 0.64483 0.54856 0.63715 0.0
N1148 N 0.68292 0.45477 0.67602 0.0
N1149 N 0.68057 0.59236 0.5921 0.0
H1150 H 0.6053 0.57607 0.67682 0.0
H1151 H 0.61703 0.60556 0.63561 0.0
H1152 H 0.70295 0.59708 0.57114 0.0
H1153 H 0.6676 0.61818 0.60323 0.0
H1154 H 0.70727 0.4357 0.67358 0.0
H1155 H 0.67004 0.45486 0.70422 0.0
H1156 H 0.72039 0.42813 0.61258 0.0
H1157 H 0.74046 0.4598 0.57625 0.0
C1158 C 0.17669 0.98844 0.34269 0.0
C1159 C 0.15444 0.02434 0.34092 0.0
C1160 C 0.15834 0.03083 0.41257 0.0
C1161 C 0.1829 0.99649 0.41493 0.0
N1162 N 0.22127 0.94614 0.381 0.0
N1163 N 0.13937 0.08687 0.37207 0.0
C1164 C 0.1944 0.9766 0.37945 0.0
C1165 C 0.15114 0.0482 0.37516 0.0
N1166 N 0.17935 0.96512 0.3096 0.0
N1167 N 0.13937 0.04541 0.44533 0.0
H1168 H 0.13662 0.10061 0.34453 0.0
H1169 H 0.13751 0.10607 0.39633 0.0
H1170 H 0.11913 0.06893 0.44409 0.0
H1171 H 0.13922 0.03055 0.47233 0.0
H1172 H 0.19118 0.93644 0.30974 0.0
H1173 H 0.16813 0.97448 0.28223 0.0
H1174 H 0.23318 0.93271 0.35574 0.0
H1175 H 0.23344 0.93602 0.40767 0.0
C1176 C 0.1477 0.68705 0.04749 0.0
C1177 C 0.16067 0.65371 0.02503 0.0
C1178 C 0.1289 0.68148 0.9657 0.0
C1179 C 0.10832 0.70865 0.99031 0.0
N1180 N 0.11641 0.75237 0.04627 0.0
N1181 N 0.17111 0.6231 0.96101 0.0
C1182 C 0.12333 0.71633 0.02887 0.0
C1183 C 0.1541 0.6525 0.98334 0.0
N1184 N 0.15772 0.68999 0.08666 0.0
N1185 N 0.12527 0.68501 0.92549 0.0
H1186 H 0.19275 0.60408 0.97242 0.0
H1187 H 0.16373 0.61727 0.93156 0.0
H1188 H 0.10944 0.70864 0.91298 0.0
H1189 H 0.14088 0.66784 0.90498 0.0
H1190 H 0.14563 0.71101 0.10595 0.0
H1191 H 0.17764 0.67035 0.10003 0.0
H1192 H 0.12843 0.76087 0.07346 0.0
H1193 H 0.10263 0.77559 0.03096 0.0
C1194 C 0.38431 0.32965 0.45689 0.0
C1195 C 0.40694 0.3053 0.48255 0.0
C1196 C 0.37793 0.33859 0.54046 0.0
C1197 C 0.35711 0.36496 0.51471 0.0
N1198 N 0.3285 0.37457 0.4498 0.0
N1199 N 0.41364 0.276 0.54728 0.0
C1200 C 0.35649 0.357 0.47325 0.0
C1201 C 0.39912 0.30581 0.52386 0.0
N1202 N 0.39083 0.32768 0.41692 0.0
N1203 N 0.38051 0.3466 0.58015 0.0
H1204 H 0.42898 0.25173 0.53545 0.0
H1205 H 0.40667 0.27309 0.57731 0.0
H1206 H 0.36836 0.37202 0.59297 0.0
H1207 H 0.39834 0.33047 0.59966 0.0
H1208 H 0.37928 0.34815 0.39671 0.0
H1209 H 0.40924 0.30589 0.40453 0.0
H1210 H 0.3244 0.36697 0.42008 0.0
H1211 H 0.30652 0.39319 0.46139 0.0
C1212 C 0.59819 0.8205 0.04042 0.0
C1213 C 0.58641 0.79497 0.00933 0.0
C1214 C 0.64188 0.81815 0.96808 0.0
C1215 C 0.64933 0.84893 0.99644 0.0
N1216 N 0.6398 0.87513 0.06227 0.0
N1217 N 0.6045 0.75822 0.95122 0.0
C1218 C 0.62931 0.84834 0.03373 0.0
C1219 C 0.61092 0.79005 0.97561 0.0
N1220 N 0.57981 0.81707 0.0765 0.0
N1221 N 0.66218 0.81741 0.93286 0.0
H1222 H 0.5822 0.73746 0.95704 0.0
H1223 H 0.62281 0.75039 0.92754 0.0
H1224 H 0.68528 0.83675 0.92605 0.0
H1225 H 0.65494 0.79896 0.90914 0.0
H1226 H 0.58676 0.83376 0.10155 0.0
H1227 H 0.5592 0.79455 0.08208 0.0
H1228 H 0.62433 0.87974 0.08864 0.0
H1229 H 0.66475 0.89305 0.05916 0.0
C1230 C 0.88507 0.20729 0.47586 0.0
C1231 C 0.908 0.20448 0.51078 0.0
C1232 C 0.86056 0.15637 0.53805 0.0
C1233 C 0.84376 0.15199 0.49963 0.0
N1234 N 0.83941 0.17429 0.43131 0.0
N1235 N 0.91451 0.18275 0.5783 0.0
C1236 C 0.85499 0.17849 0.46855 0.0
C1237 C 0.89431 0.18138 0.54317 0.0
N1238 N 0.89235 0.23753 0.44984 0.0
N1239 N 0.84393 0.13664 0.56939 0.0
H1240 H 0.93683 0.20368 0.58339 0.0
H1241 H 0.90968 0.16332 0.6019 0.0
H1242 H 0.81838 0.1194 0.56619 0.0
H1243 H 0.85305 0.13989 0.59874 0.0
H1244 H 0.87464 0.24349 0.42517 0.0
H1245 H 0.91411 0.25893 0.45545 0.0
H1246 H 0.85033 0.18935 0.40656 0.0
H1247 H 0.81709 0.15405 0.42442 0.0
C1248 C 0.98443 0.1023 0.61163 0.0
C1249 C 0.00451 0.13666 0.62546 0.0
C1250 C 0.99526 0.11174 0.69372 0.0
C1251 C 0.97149 0.08023 0.67861 0.0
N1252 N 0.92923 0.05966 0.62477 0.0
N1253 N 0.01907 0.17892 0.6822 0.0
C1254 C 0.96057 0.08122 0.63821 0.0
C1255 C 0.007 0.14313 0.66738 0.0
N1256 N 0.99042 0.08742 0.57429 0.0
N1257 N 0.00786 0.11128 0.7322 0.0
H1258 H 0.02562 0.20331 0.66431 0.0
H1259 H 0.01829 0.18555 0.71246 0.0
H1260 H 0.99857 0.08996 0.75262 0.0
H1261 H 0.02898 0.13115 0.74306 0.0
H1262 H 0.97712 0.0611 0.56464 0.0
H1263 H 0.01299 0.09751 0.55557 0.0
H1264 H 0.91959 0.06083 0.5953 0.0
H1265 H 0.91058 0.04516 0.64452 0.0
C1266 C 0.48144 0.84808 0.17002 0.0
C1267 C 0.48345 0.85346 0.12791 0.0
C1268 C 0.52667 0.90995 0.13868 0.0
C1269 C 0.51733 0.91154 0.17956 0.0
N1270 N 0.48208 0.88126 0.23441 0.0
N1271 N 0.49433 0.90272 0.07614 0.0
C1272 C 0.4938 0.88014 0.19566 0.0
C1273 C 0.50202 0.88833 0.11333 0.0
N1274 N 0.46899 0.8128 0.18564 0.0
N1275 N 0.55745 0.93126 0.12354 0.0
H1276 H 0.4717 0.8914 0.05827 0.0
H1277 H 0.50645 0.92938 0.06587 0.0
H1278 H 0.57713 0.94584 0.14218 0.0
H1279 H 0.56562 0.92988 0.09362 0.0
H1280 H 0.47036 0.80655 0.21594 0.0
H1281 H 0.4607 0.78866 0.16813 0.0
H1282 H 0.46137 0.86147 0.2462 0.0
H1283 H 0.49167 0.9031 0.25413 0.0
C1284 C 0.53349 0.39004 0.28727 0.0
C1285 C 0.49293 0.40115 0.28689 0.0
C1286 C 0.47639 0.3406 0.32322 0.0
C1287 C 0.51707 0.33598 0.33347 0.0
N1288 N 0.5857 0.35325 0.32035 0.0
N1289 N 0.4247 0.38446 0.29812 0.0
C1290 C 0.54621 0.35899 0.31313 0.0
C1291 C 0.46395 0.37508 0.30221 0.0
N1292 N 0.55973 0.40978 0.26341 0.0
N1293 N 0.4499 0.31202 0.33425 0.0
H1294 H 0.41541 0.40826 0.28046 0.0
H1295 H 0.40184 0.36949 0.31262 0.0
H1296 H 0.45901 0.28667 0.34955 0.0
H1297 H 0.42025 0.31169 0.32544 0.0
H1298 H 0.58932 0.40137 0.25984 0.0
H1299 H 0.55069 0.43239 0.24419 0.0
H1300 H 0.60766 0.37329 0.31179 0.0
H1301 H 0.59669 0.32853 0.33523 0.0
C1302 C 0.96296 0.62058 0.79353 0.0
C1303 C 0.99939 0.59983 0.79099 0.0
C1304 C 0.03011 0.6494 0.83472 0.0
C1305 C 0.99179 0.66388 0.84479 0.0
N1306 N 0.9211 0.66498 0.83197 0.0
N1307 N 0.06945 0.59685 0.804 0.0
C1308 C 0.95808 0.65077 0.8229 0.0
C1309 C 0.03378 0.61555 0.80941 0.0
N1310 N 0.93319 0.61105 0.76778 0.0
N1311 N 0.06276 0.66834 0.84942 0.0
H1312 H 0.07305 0.57383 0.78345 0.0
H1313 H 0.09493 0.60333 0.82026 0.0
H1314 H 0.06017 0.69389 0.86686 0.0
H1315 H 0.09183 0.66128 0.84147 0.0
H1316 H 0.90665 0.62691 0.76565 0.0
H1317 H 0.93704 0.58933 0.74587 0.0
H1318 H 0.895 0.65267 0.82087 0.0
H1319 H 0.91625 0.6881 0.85199 0.0
C1320 C 0.67014 0.04791 0.13097 0.0
C1321 C 0.64381 0.02096 0.15001 0.0
C1322 C 0.68371 0.96496 0.12581 0.0
C1323 C 0.70453 0.99186 0.10135 0.0
N1324 N 0.7373 0.05479 0.10618 0.0
N1325 N 0.639 0.95684 0.18205 0.0
C1326 C 0.70427 0.03232 0.1119 0.0
C1327 C 0.65489 0.98015 0.15287 0.0
N1328 N 0.66192 0.0876 0.12884 0.0
N1329 N 0.69202 0.92538 0.123 0.0
H1330 H 0.61887 0.96798 0.20291 0.0
H1331 H 0.64774 0.92758 0.18732 0.0
H1332 H 0.71519 0.91507 0.10498 0.0
H1333 H 0.67608 0.90334 0.13775 0.0
H1334 H 0.67985 0.10743 0.11325 0.0
H1335 H 0.6358 0.10014 0.13969 0.0
H1336 H 0.73979 0.08368 0.11725 0.0
H1337 H 0.7634 0.04249 0.09461 0.0
C1338 C 0.17573 0.52277 0.89507 0.0
C1339 C 0.16103 0.51173 0.93309 0.0
C1340 C 0.09766 0.49293 0.9038 0.0
C1341 C 0.11336 0.49942 0.86503 0.0
N1342 N 0.16903 0.51679 0.8233 0.0
N1343 N 0.11336 0.47251 0.96989 0.0
C1344 C 0.15315 0.51285 0.86047 0.0
C1345 C 0.1237 0.49269 0.93628 0.0
N1346 N 0.21009 0.54413 0.89211 0.0
N1347 N 0.0579 0.48784 0.91075 0.0
H1348 H 0.1323 0.46943 0.9938 0.0
H1349 H 0.08836 0.45427 0.9717 0.0
H1350 H 0.03582 0.48848 0.88939 0.0
H1351 H 0.04591 0.48761 0.93936 0.0
H1352 H 0.2202 0.55655 0.86562 0.0
H1353 H 0.22699 0.55207 0.91681 0.0
H1354 H 0.19898 0.52264 0.81815 0.0
H1355 H 0.15263 0.51179 0.79748 0.0
C1356 C 0.33292 0.54353 0.36369 0.0
C1357 C 0.34725 0.51091 0.34145 0.0
C1358 C 0.30874 0.46709 0.38557 0.0
C1359 C 0.30672 0.49821 0.4141 0.0
N1360 N 0.3226 0.56682 0.42985 0.0
N1361 N 0.34374 0.44071 0.32801 0.0
C1362 C 0.32018 0.53673 0.40296 0.0
C1363 C 0.33334 0.47226 0.35127 0.0
N1364 N 0.33048 0.58073 0.34765 0.0
N1365 N 0.28727 0.43316 0.39091 0.0
H1366 H 0.35866 0.4446 0.30112 0.0
H1367 H 0.33842 0.41122 0.33596 0.0
H1368 H 0.2682 0.42929 0.41501 0.0
H1369 H 0.28538 0.41084 0.3695 0.0
H1370 H 0.31819 0.60472 0.36311 0.0
H1371 H 0.33413 0.58607 0.31739 0.0
H1372 H 0.33651 0.59379 0.42344 0.0
H1373 H 0.31416 0.56342 0.45921 0.0
C1374 C 0.80925 0.02722 0.63219 0.0
C1375 C 0.78935 0.0023 0.60486 0.0
C1376 C 0.82749 0.94504 0.62753 0.0
C1377 C 0.8503 0.97031 0.65225 0.0
N1378 N 0.85252 0.03163 0.68967 0.0
N1379 N 0.76357 0.93594 0.59638 0.0
C1380 C 0.83758 0.01024 0.65859 0.0
C1381 C 0.79301 0.96057 0.60909 0.0
N1382 N 0.80184 0.06714 0.63176 0.0
N1383 N 0.83998 0.90734 0.61913 0.0
H1384 H 0.73644 0.94678 0.58604 0.0
H1385 H 0.76403 0.90538 0.60185 0.0
H1386 H 0.86663 0.89593 0.62987 0.0
H1387 H 0.82582 0.88926 0.59832 0.0
H1388 H 0.8186 0.08785 0.64749 0.0
H1389 H 0.77907 0.07928 0.61446 0.0
H1390 H 0.84192 0.05961 0.69782 0.0
H1391 H 0.87382 0.02005 0.70899 0.0
C1392 C 0.99073 0.33304 0.89959 0.0
C1393 C 0.02506 0.31414 0.91541 0.0
C1394 C 0.06636 0.34802 0.86575 0.0
C1395 C 0.03189 0.36722 0.85074 0.0
N1396 N 0.96096 0.36658 0.84333 0.0
N1397 N 0.093 0.2941 0.90603 0.0
C1398 C 0.99393 0.35571 0.86429 0.0
C1399 C 0.06209 0.31837 0.89577 0.0
N1400 N 0.95567 0.332 0.91977 0.0
N1401 N 0.10313 0.3596 0.85308 0.0
H1402 H 0.09013 0.27208 0.92775 0.0
H1403 H 0.11997 0.29349 0.89081 0.0
H1404 H 0.10725 0.38059 0.83064 0.0
H1405 H 0.12943 0.35004 0.86634 0.0
H1406 H 0.93093 0.34906 0.91212 0.0
H1407 H 0.95262 0.31646 0.94613 0.0
H1408 H 0.93251 0.35638 0.85005 0.0
H1409 H 0.96302 0.38191 0.81646 0.0
C1410 C 0.42731 0.68293 0.39791 0.0
C1411 C 0.4611 0.67647 0.42247 0.0
C1412 C 0.49024 0.63498 0.37019 0.0
C1413 C 0.45357 0.63392 0.35027 0.0
N1414 N 0.38674 0.65824 0.34331 0.0
N1415 N 0.52191 0.63946 0.43373 0.0
C1416 C 0.422 0.6588 0.36323 0.0
C1417 C 0.49208 0.65098 0.40893 0.0
N1418 N 0.40047 0.71182 0.40782 0.0
N1419 N 0.5233 0.62019 0.35191 0.0
H1420 H 0.52349 0.64864 0.46303 0.0
H1421 H 0.54256 0.61748 0.42635 0.0
H1422 H 0.52244 0.6108 0.32237 0.0
H1423 H 0.55168 0.62181 0.36411 0.0
H1424 H 0.3768 0.72008 0.38969 0.0
H1425 H 0.40381 0.72974 0.43293 0.0
H1426 H 0.361 0.67204 0.35368 0.0
H1427 H 0.38312 0.64249 0.31684 0.0
C1428 C 0.49771 0.16172 0.14125 0.0
C1429 C 0.5346 0.15318 0.15901 0.0
C1430 C 0.56897 0.19263 0.10879 0.0
C1431 C 0.53317 0.19394 0.08634 0.0
N1432 N 0.46211 0.1821 0.0824 0.0
N1433 N 0.60369 0.1679 0.1674 0.0
C1434 C 0.4968 0.18036 0.10343 0.0
C1435 C 0.56965 0.17192 0.14565 0.0
N1436 N 0.46376 0.15089 0.16069 0.0
N1437 N 0.60234 0.2103 0.09403 0.0
H1438 H 0.60393 0.15431 0.19525 0.0
H1439 H 0.6315 0.17812 0.15872 0.0
H1440 H 0.60258 0.22416 0.06646 0.0
H1441 H 0.62933 0.21234 0.10883 0.0
H1442 H 0.43524 0.1586 0.1515 0.0
H1443 H 0.46476 0.13713 0.18847 0.0
H1444 H 0.43608 0.16775 0.09089 0.0
H1445 H 0.45925 0.19663 0.05536 0.0
C1446 C 0.99694 0.82441 0.64657 0.0
C1447 C 0.95967 0.83884 0.65961 0.0
C1448 C 0.92712 0.80962 0.60217 0.0
C1449 C 0.96472 0.79739 0.58765 0.0
N1450 N 0.03151 0.77805 0.60352 0.0
N1451 N 0.88898 0.82973 0.66003 0.0
C1452 C 0.99843 0.7996 0.61255 0.0
C1453 C 0.92454 0.82562 0.64103 0.0
N1454 N 0.03081 0.83623 0.66531 0.0
N1455 N 0.89468 0.80889 0.57798 0.0
H1456 H 0.88702 0.84159 0.68864 0.0
H1457 H 0.86253 0.81815 0.64885 0.0
H1458 H 0.86729 0.82106 0.58596 0.0
H1459 H 0.89638 0.79887 0.54877 0.0
H1460 H 0.05922 0.83038 0.65435 0.0
H1461 H 0.02995 0.85348 0.69104 0.0
H1462 H 0.05623 0.77645 0.62207 0.0
H1463 H 0.03163 0.75805 0.57981 0.0
C1464 C 0.90245 0.02717 0.39907 0.0
C1465 C 0.86427 0.04004 0.38692 0.0
C1466 C 0.88884 0.04222 0.31791 0.0
C1467 C 0.92491 0.02441 0.33056 0.0
N1468 N 0.95654 0.98451 0.38113 0.0
N1469 N 0.81874 0.05151 0.33227 0.0
C1470 C 0.92852 0.01176 0.37046 0.0
C1471 C 0.85655 0.04524 0.34551 0.0
N1472 N 0.915 0.03136 0.43745 0.0
N1473 N 0.88569 0.05719 0.28037 0.0
H1474 H 0.79419 0.05218 0.35113 0.0
H1475 H 0.81143 0.05207 0.30219 0.0
H1476 H 0.90849 0.05463 0.25949 0.0
H1477 H 0.86149 0.07419 0.27105 0.0
H1478 H 0.94388 0.02428 0.44626 0.0
H1479 H 0.8988 0.04691 0.45887 0.0
H1480 H 0.95873 0.97319 0.40993 0.0
H1481 H 0.97258 0.96882 0.35992 0.0
C1482 C 0.59163 0.92589 0.82658 0.0
C1483 C 0.58626 0.96361 0.80916 0.0
C1484 C 0.64047 0.99073 0.84853 0.0
C1485 C 0.63942 0.956 0.87267 0.0
N1486 N 0.61856 0.88763 0.88118 0.0
N1487 N 0.62022 0.0215 0.78638 0.0
C1488 C 0.61714 0.92222 0.85999 0.0
C1489 C 0.61506 0.99327 0.81491 0.0
N1490 N 0.57039 0.89457 0.81186 0.0
N1491 N 0.66589 0.02095 0.85755 0.0
H1492 H 0.6046 0.02033 0.75967 0.0
H1493 H 0.64318 0.0422 0.78661 0.0
H1494 H 0.68771 0.01812 0.87926 0.0
H1495 H 0.66483 0.04881 0.84408 0.0
H1496 H 0.57153 0.86562 0.82269 0.0
H1497 H 0.55233 0.89784 0.78683 0.0
H1498 H 0.60826 0.86051 0.8707 0.0
H1499 H 0.62926 0.88617 0.91011 0.0
C1500 C 0.3816 0.50786 0.69838 0.0
C1501 C 0.40661 0.47558 0.70739 0.0
C1502 C 0.36071 0.43057 0.67346 0.0
C1503 C 0.34365 0.46432 0.65467 0.0
N1504 N 0.33372 0.53514 0.65261 0.0
N1505 N 0.41345 0.40531 0.7166 0.0
C1506 C 0.3523 0.50301 0.66879 0.0
C1507 C 0.39368 0.43636 0.69944 0.0
N1508 N 0.38503 0.54235 0.71919 0.0
N1509 N 0.34605 0.39357 0.6655 0.0
H1510 H 0.43654 0.41006 0.73677 0.0
H1511 H 0.40749 0.37546 0.71111 0.0
H1512 H 0.32137 0.38931 0.64727 0.0
H1513 H 0.35678 0.36741 0.67806 0.0
H1514 H 0.36529 0.56609 0.71624 0.0
H1515 H 0.40385 0.54415 0.74364 0.0
H1516 H 0.34261 0.56437 0.65789 0.0
H1517 H 0.31041 0.53181 0.63261 0.0
C1518 C 0.10995 0.58018 0.21033 0.0
C1519 C 0.09791 0.54089 0.21827 0.0
C1520 C 0.15861 0.51583 0.18803 0.0
C1521 C 0.16298 0.55309 0.16866 0.0
N1522 N 0.15168 0.6242 0.17148 0.0
N1523 N 0.12308 0.47724 0.23788 0.0
C1524 C 0.14209 0.58674 0.18367 0.0
C1525 C 0.12614 0.51012 0.21447 0.0
N1526 N 0.09179 0.61045 0.23031 0.0
N1527 N 0.18535 0.48629 0.18042 0.0
H1528 H 0.10245 0.476 0.26096 0.0
H1529 H 0.1435 0.45396 0.23797 0.0
H1530 H 0.21082 0.49178 0.16365 0.0
H1531 H 0.18269 0.45726 0.19077 0.0
H1532 H 0.10057 0.6401 0.22866 0.0
H1533 H 0.06953 0.60458 0.25115 0.0
H1534 H 0.1344 0.64922 0.17753 0.0
H1535 H 0.17778 0.63042 0.15619 0.0
C1536 C 0.32895 0.8541 0.06614 0.0
C1537 C 0.34951 0.83866 0.03268 0.0
C1538 C 0.31483 0.8851 0.98882 0.0
C1539 C 0.29692 0.90294 0.02263 0.0
N1540 N 0.27562 0.89681 0.09032 0.0
N1541 N 0.35254 0.82981 0.96188 0.0
C1542 C 0.30005 0.88452 0.06029 0.0
C1543 C 0.339 0.85086 0.99386 0.0
N1544 N 0.33881 0.84154 0.10345 0.0
N1545 N 0.31118 0.90255 0.95241 0.0
H1546 H 0.3703 0.80459 0.96505 0.0
H1547 H 0.34315 0.83489 0.93285 0.0
H1548 H 0.29197 0.92619 0.94735 0.0
H1549 H 0.32812 0.89464 0.9277 0.0
H1550 H 0.32828 0.85494 0.12932 0.0
H1551 H 0.35906 0.81856 0.10854 0.0
H1552 H 0.2742 0.88302 0.11799 0.0
H1553 H 0.25416 0.91888 0.08592 0.0
C1554 C 0.84889 0.6368 0.95565 0.0
C1555 C 0.89088 0.63189 0.95575 0.0
C1556 C 0.88271 0.56148 0.96965 0.0
C1557 C 0.84118 0.56449 0.96319 0.0
N1558 N 0.78536 0.6052 0.94305 0.0
N1559 N 0.94581 0.58548 0.9481 0.0
C1560 C 0.82423 0.60227 0.95426 0.0
C1561 C 0.90721 0.59304 0.95817 0.0
N1562 N 0.8325 0.67392 0.9583 0.0
N1563 N 0.89918 0.52929 0.98822 0.0
H1564 H 0.96451 0.60687 0.93619 0.0
H1565 H 0.9574 0.55668 0.94655 0.0
H1566 H 0.8825 0.50644 0.00044 0.0
H1567 H 0.92914 0.52813 0.99613 0.0
H1568 H 0.80212 0.67867 0.96218 0.0
H1569 H 0.84951 0.69972 0.96032 0.0
H1570 H 0.77277 0.6316 0.9327 0.0
H1571 H 0.76675 0.58058 0.9405 0.0
C1572 C 0.64375 0.36238 0.48918 0.0
C1573 C 0.64154 0.34709 0.45016 0.0
C1574 C 0.69079 0.3961 0.42851 0.0
C1575 C 0.68486 0.41707 0.46463 0.0
N1576 N 0.65734 0.41929 0.53088 0.0
N1577 N 0.66633 0.34525 0.3833 0.0
C1578 C 0.66247 0.39955 0.49578 0.0
C1579 C 0.66667 0.36231 0.42008 0.0
N1580 N 0.62798 0.34104 0.51982 0.0
N1581 N 0.7197 0.40832 0.40279 0.0
H1582 H 0.65125 0.31872 0.37776 0.0
H1583 H 0.68007 0.35767 0.3585 0.0
H1584 H 0.73805 0.43254 0.409 0.0
H1585 H 0.72757 0.39278 0.37718 0.0
H1586 H 0.63164 0.34869 0.54958 0.0
H1587 H 0.615 0.31325 0.51527 0.0
H1588 H 0.6373 0.41043 0.55277 0.0
H1589 H 0.67178 0.44582 0.53729 0.0
C1590 C 0.16166 0.13599 0.57335 0.0
C1591 C 0.14408 0.15057 0.53778 0.0
C1592 C 0.19202 0.1125 0.49811 0.0
C1593 C 0.20445 0.0932 0.53326 0.0
N1594 N 0.21578 0.09791 0.60293 0.0
N1595 N 0.14982 0.16296 0.46758 0.0
C1596 C 0.19414 0.10901 0.57057 0.0
C1597 C 0.16193 0.14233 0.50041 0.0
N1598 N 0.14604 0.14615 0.60947 0.0
N1599 N 0.20851 0.10101 0.46283 0.0
H1600 H 0.12851 0.1855 0.46915 0.0
H1601 H 0.1623 0.15984 0.43949 0.0
H1602 H 0.23155 0.08016 0.46171 0.0
H1603 H 0.20014 0.11195 0.43519 0.0
H1604 H 0.15505 0.13344 0.63618 0.0
H1605 H 0.12282 0.16643 0.61273 0.0
H1606 H 0.21216 0.11018 0.63112 0.0
H1607 H 0.24011 0.07878 0.60009 0.0
C1608 C 0.9349 0.66121 0.13406 0.0
C1609 C 0.96853 0.64304 0.15186 0.0
C1610 C 0.01204 0.68364 0.10969 0.0
C1611 C 0.97894 0.69457 0.08631 0.0
N1612 N 0.9083 0.6928 0.07497 0.0
N1613 N 0.03947 0.63773 0.15761 0.0
C1614 C 0.94002 0.68389 0.09862 0.0
C1615 C 0.00723 0.65498 0.14028 0.0
N1616 N 0.89816 0.65622 0.15056 0.0
N1617 N 0.04801 0.70096 0.10261 0.0
H1618 H 0.03652 0.61885 0.18185 0.0
H1619 H 0.06833 0.64064 0.14683 0.0
H1620 H 0.05154 0.72293 0.08103 0.0
H1621 H 0.07282 0.69679 0.12061 0.0
H1622 H 0.87298 0.67141 0.14081 0.0
H1623 H 0.89362 0.63941 0.1762 0.0
H1624 H 0.8798 0.68175 0.07979 0.0
H1625 H 0.91125 0.7091 0.04881 0.0
C1626 C 0.49846 0.37886 0.61807 0.0
C1627 C 0.53419 0.37927 0.6399 0.0
C1628 C 0.55923 0.32496 0.59783 0.0
C1629 C 0.52715 0.33139 0.57123 0.0
N1630 N 0.46898 0.3703 0.55403 0.0
N1631 N 0.60082 0.35388 0.64908 0.0
C1632 C 0.49734 0.35973 0.58089 0.0
C1633 C 0.56513 0.35214 0.62992 0.0
N1634 N 0.46529 0.39653 0.63325 0.0
N1635 N 0.58413 0.29333 0.59221 0.0
H1636 H 0.60641 0.3734 0.67248 0.0
H1637 H 0.62576 0.33792 0.63985 0.0
H1638 H 0.58049 0.27324 0.56884 0.0
H1639 H 0.60607 0.28524 0.6125 0.0
H1640 H 0.43741 0.39497 0.61991 0.0
H1641 H 0.46516 0.4081 0.66184 0.0
H1642 H 0.44983 0.3944 0.5582 0.0
H1643 H 0.46688 0.35747 0.52623 0.0
C1644 C 0.42484 0.83831 0.85292 0.0
C1645 C 0.45591 0.86727 0.85178 0.0
C1646 C 0.49592 0.82421 0.89466 0.0
C1647 C 0.46267 0.80052 0.90289 0.0
N1648 N 0.3957 0.78196 0.88839 0.0
N1649 N 0.51649 0.89115 0.88299 0.0
C1650 C 0.42727 0.80629 0.88097 0.0
C1651 C 0.49038 0.86114 0.87555 0.0
N1652 N 0.39234 0.84242 0.82897 0.0
N1653 N 0.53261 0.81224 0.90687 0.0
H1654 H 0.51249 0.91993 0.87294 0.0
H1655 H 0.53932 0.88856 0.90376 0.0
H1656 H 0.53735 0.78406 0.91882 0.0
H1657 H 0.55841 0.82798 0.90052 0.0
H1658 H 0.37082 0.82047 0.82563 0.0
H1659 H 0.38739 0.86731 0.81119 0.0
H1660 H 0.36734 0.78643 0.87689 0.0
H1661 H 0.3981 0.75758 0.90753 0.0
C1662 C 0.07649 0.17185 0.34878 0.0
C1663 C 0.04502 0.1458 0.33886 0.0
C1664 C 0.00072 0.18134 0.38447 0.0
C1665 C 0.03447 0.20024 0.40114 0.0
N1666 N 0.10309 0.21906 0.39662 0.0
N1667 N 0.97509 0.13171 0.33851 0.0
C1668 C 0.07184 0.19782 0.38187 0.0
C1669 C 0.00625 0.15279 0.35374 0.0
N1670 N 0.11037 0.17182 0.32641 0.0
N1671 N 0.96375 0.19044 0.39857 0.0
H1672 H 0.97803 0.11438 0.31296 0.0
H1673 H 0.94653 0.13153 0.35033 0.0
H1674 H 0.95932 0.21255 0.41969 0.0
H1675 H 0.93736 0.17877 0.38761 0.0
H1676 H 0.13353 0.19192 0.33028 0.0
H1677 H 0.11381 0.15352 0.30159 0.0
H1678 H 0.13235 0.21544 0.38722 0.0
H1679 H 0.0995 0.2398 0.41949 0.0
C1680 C 0.10773 0.93188 0.69537 0.0
C1681 C 0.08511 0.96762 0.69586 0.0
C1682 C 0.13805 0.0014 0.65941 0.0
C1683 C 0.1547 0.96392 0.64995 0.0
N1684 N 0.169 0.89852 0.67592 0.0
N1685 N 0.0805 0.0382 0.68126 0.0
C1686 C 0.14386 0.93038 0.6732 0.0
C1687 C 0.10129 0.00324 0.67983 0.0
N1688 N 0.09397 0.89948 0.71562 0.0
N1689 N 0.15841 0.03512 0.64986 0.0
H1690 H 0.05472 0.0421 0.6978 0.0
H1691 H 0.0881 0.06322 0.66464 0.0
H1692 H 0.18656 0.03374 0.637 0.0
H1693 H 0.14992 0.06349 0.65908 0.0
H1694 H 0.10601 0.87103 0.71341 0.0
H1695 H 0.06953 0.9013 0.73466 0.0
H1696 H 0.16335 0.87322 0.69276 0.0
H1697 H 0.19812 0.89949 0.66545 0.0
C1698 C 0.39347 0.99174 0.17141 0.0
C1699 C 0.4085 0.02667 0.18992 0.0
C1700 C 0.35833 0.06725 0.15592 0.0
C1701 C 0.34532 0.03287 0.13521 0.0
N1702 N 0.34074 0.96162 0.13244 0.0
N1703 N 0.39685 0.09387 0.21088 0.0
C1704 C 0.35971 0.99478 0.14614 0.0
C1705 C 0.38782 0.06317 0.18591 0.0
N1706 N 0.41266 0.95617 0.17595 0.0
N1707 N 0.34443 0.10398 0.14533 0.0
H1708 H 0.41791 0.09075 0.23343 0.0
H1709 H 0.38106 0.12055 0.21183 0.0
H1710 H 0.32207 0.1081 0.12433 0.0
H1711 H 0.35648 0.1305 0.15583 0.0
H1712 H 0.40694 0.93122 0.15851 0.0
H1713 H 0.43519 0.95174 0.19659 0.0
H1714 H 0.34748 0.93282 0.1417 0.0
H1715 H 0.31535 0.96348 0.11479 0.0
C1716 C 0.60395 0.56703 0.30792 0.0
C1717 C 0.58342 0.53059 0.31369 0.0
C1718 C 0.63902 0.50514 0.35236 0.0
C1719 C 0.65405 0.54412 0.3552 0.0
N1720 N 0.65579 0.6115 0.33162 0.0
N1721 N 0.5813 0.46434 0.34158 0.0
C1722 C 0.6385 0.57481 0.33102 0.0
C1723 C 0.60129 0.49908 0.33526 0.0
N1724 N 0.59021 0.59392 0.28075 0.0
N1725 N 0.66093 0.47415 0.36664 0.0
H1726 H 0.59112 0.44216 0.36087 0.0
H1727 H 0.55338 0.45887 0.3297 0.0
H1728 H 0.68908 0.47865 0.37871 0.0
H1729 H 0.65326 0.44441 0.36248 0.0
H1730 H 0.60526 0.61982 0.27304 0.0
H1731 H 0.56486 0.58875 0.26374 0.0
H1732 H 0.64345 0.63665 0.31841 0.0
H1733 H 0.68235 0.61679 0.3467 0.0
C1734 C 0.87581 0.49296 0.81731 0.0
C1735 C 0.89614 0.4629 0.79588 0.0
C1736 C 0.85562 0.41141 0.82754 0.0
C1737 C 0.83924 0.44102 0.85267 0.0
N1738 N 0.8224 0.51008 0.86268 0.0
N1739 N 0.89742 0.39649 0.77016 0.0
C1740 C 0.84541 0.48194 0.84439 0.0
C1741 C 0.88286 0.42301 0.79729 0.0
N1742 N 0.88773 0.53161 0.81388 0.0
N1743 N 0.84627 0.37239 0.8338 0.0
H1744 H 0.91732 0.40526 0.74798 0.0
H1745 H 0.88797 0.36713 0.76776 0.0
H1746 H 0.82473 0.36381 0.85437 0.0
H1747 H 0.86001 0.34869 0.81934 0.0
H1748 H 0.87841 0.55445 0.83263 0.0
H1749 H 0.90816 0.54046 0.79243 0.0
H1750 H 0.8232 0.54026 0.85576 0.0
H1751 H 0.79975 0.50271 0.88248 0.0
C1752 C 0.70323 0.10399 0.92991 0.0
C1753 C 0.70823 0.08825 0.96861 0.0
C1754 C 0.67572 0.14662 0.99725 0.0
C1755 C 0.66263 0.1576 0.95893 0.0
N1756 N 0.67424 0.15643 0.88861 0.0
N1757 N 0.72084 0.10591 0.03592 0.0
C1758 C 0.68028 0.13963 0.92501 0.0
C1759 C 0.70099 0.11309 0.00155 0.0
N1760 N 0.721 0.08523 0.89864 0.0
N1761 N 0.66282 0.16757 0.02944 0.0
H1762 H 0.74201 0.08324 0.03735 0.0
H1763 H 0.7208 0.12559 0.05982 0.0
H1764 H 0.64715 0.19416 0.02609 0.0
H1765 H 0.66727 0.15839 0.05867 0.0
H1766 H 0.71918 0.09469 0.86929 0.0
H1767 H 0.73943 0.06054 0.90269 0.0
H1768 H 0.68486 0.14478 0.862 0.0
H1769 H 0.65877 0.1832 0.8854 0.0
C1770 C 0.16013 0.35706 0.08133 0.0
C1771 C 0.13884 0.34681 0.04656 0.0
C1772 C 0.17723 0.39624 0.00934 0.0
C1773 C 0.18961 0.41336 0.04577 0.0
N1774 N 0.19232 0.41028 0.11712 0.0
N1775 N 0.1303 0.35295 0.97594 0.0
C1776 C 0.18165 0.39335 0.08196 0.0
C1777 C 0.14875 0.36503 0.00992 0.0
N1778 N 0.15938 0.33267 0.11376 0.0
N1779 N 0.19253 0.41009 0.97441 0.0
H1780 H 0.11219 0.32785 0.97534 0.0
H1781 H 0.13207 0.36819 0.94905 0.0
H1782 H 0.21462 0.43177 0.97368 0.0
H1783 H 0.18654 0.39746 0.94681 0.0
H1784 H 0.17714 0.33724 0.13868 0.0
H1785 H 0.14365 0.30599 0.11426 0.0
H1786 H 0.1835 0.39928 0.14469 0.0
H1787 H 0.20768 0.43703 0.11821 0.0
C1788 C 0.328 0.64542 0.5896 0.0
C1789 C 0.34926 0.65931 0.5559 0.0
C1790 C 0.30294 0.62352 0.51342 0.0
C1791 C 0.29423 0.59855 0.5458 0.0
N1792 N 0.27913 0.59793 0.61494 0.0
N1793 N 0.35131 0.66811 0.48469 0.0
C1794 C 0.30075 0.61338 0.58441 0.0
C1795 C 0.3346 0.65091 0.51734 0.0
N1796 N 0.33369 0.66307 0.62562 0.0
N1797 N 0.27905 0.62339 0.48081 0.0
H1798 H 0.37367 0.68941 0.48687 0.0
H1799 H 0.34375 0.66003 0.45576 0.0
H1800 H 0.25415 0.605 0.47911 0.0
H1801 H 0.28211 0.64378 0.45765 0.0
H1802 H 0.32021 0.65388 0.65186 0.0
H1803 H 0.35089 0.68872 0.62857 0.0
H1804 H 0.28152 0.60689 0.64442 0.0
H1805 H 0.25749 0.57629 0.60973 0.0
C1806 C 0.83153 0.85424 0.48404 0.0
C1807 C 0.86303 0.86227 0.45705 0.0
C1808 C 0.82624 0.92064 0.43316 0.0
C1809 C 0.80073 0.91808 0.46634 0.0
N1810 N 0.77505 0.88054 0.52106 0.0
N1811 N 0.8909 0.90468 0.40624 0.0
C1812 C 0.80192 0.88397 0.49092 0.0
C1813 C 0.86024 0.8956 0.43118 0.0
N1814 N 0.82952 0.81798 0.50214 0.0
N1815 N 0.81782 0.94732 0.40378 0.0
H1816 H 0.91689 0.88793 0.40498 0.0
H1817 H 0.89185 0.93054 0.38923 0.0
H1818 H 0.79229 0.96505 0.40473 0.0
H1819 H 0.83354 0.94885 0.37713 0.0
H1820 H 0.80601 0.80906 0.52017 0.0
H1821 H 0.84985 0.7954 0.49587 0.0
H1822 H 0.77657 0.85871 0.54297 0.0
H1823 H 0.75148 0.90057 0.52415 0.0
loop_
_geom_bond_atom_site_label_1
_geom_bond_atom_site_label_2
_geom_bond_distance
_geom_bond_site_symmetry_2
_ccdc_geom_bond_type
Fe0 O2 1.918 . S
Fe0 O5 1.997 . S
Fe0 O6 2.002 . S
Fe0 O11 1.976 . S
Fe0 O14 1.996 . S
Fe1 O2 1.918 . S
Fe1 O9 1.997 . S
Fe1 O12 1.996 . S
Fe1 O16 1.976 1_455 S
Fe1 O19 2.002 1_554 S
O2 Fe0 1.918 . S
O2 Fe1 1.918 . S
O2 Fe3 1.918 . S
Fe3 O2 1.918 . S
Fe3 O4 2.002 . S
Fe3 O13 1.976 . S
Fe3 O17 1.996 1_455 S
Fe3 O20 1.997 1_554 S
O4 Fe3 2.002 . S
O4 C21 1.295 . S
O5 Fe0 1.997 . S
O5 C21 1.235 . S
O6 Fe0 2.002 . S
O6 C7 1.295 . S
C7 O6 1.295 . S
C7 O9 1.235 . S
C8 O13 1.287 . S
C8 O14 1.255 . S
O9 Fe1 1.997 . S
O9 C7 1.235 . S
C10 O16 1.287 . S
C10 O17 1.255 . S
O11 Fe0 1.976 . S
O11 C18 1.287 . S
O12 Fe1 1.996 . S
O12 C18 1.255 . S
O13 Fe3 1.976 . S
O13 C8 1.287 . S
O14 Fe0 1.996 . S
O14 C8 1.255 . S
C15 O19 1.295 . S
C15 O20 1.235 . S
O16 Fe1 1.976 1_655 S
O16 C10 1.287 . S
O17 Fe3 1.996 1_655 S
O17 C10 1.255 . S
C18 O11 1.287 . S
C18 O12 1.255 . S
O19 Fe1 2.002 1_556 S
O19 C15 1.295 . S
O20 Fe3 1.997 1_556 S
O20 C15 1.235 . S
C21 O4 1.295 . S
C21 O5 1.235 . S
Fe22 O24 1.918 . S
Fe22 O27 1.997 . S
Fe22 O28 2.002 . S
Fe22 O33 1.976 . S
Fe22 O36 1.996 . S
Fe23 O24 1.918 . S
Fe23 O31 1.997 . S
Fe23 O34 1.996 . S
Fe23 O38 1.976 . S
Fe23 O41 2.002 . S
O24 Fe22 1.918 . S
O24 Fe23 1.918 . S
O24 Fe25 1.918 . S
Fe25 O24 1.918 . S
Fe25 O26 2.002 . S
Fe25 O35 1.976 . S
Fe25 O39 1.996 . S
Fe25 O42 1.997 . S
O26 Fe25 2.002 . S
O26 C43 1.295 . S
O27 Fe22 1.997 . S
O27 C43 1.235 . S
O28 Fe22 2.002 . S
O28 C29 1.295 . S
C29 O28 1.295 . S
C29 O31 1.235 . S
C30 O35 1.287 . S
C30 O36 1.255 . S
O31 Fe23 1.997 . S
O31 C29 1.235 . S
C32 O38 1.287 . S
C32 O39 1.255 . S
O33 Fe22 1.976 . S
O33 C40 1.287 . S
O34 Fe23 1.996 . S
O34 C40 1.255 . S
O35 Fe25 1.976 . S
O35 C30 1.287 . S
O36 Fe22 1.996 . S
O36 C30 1.255 . S
C37 O41 1.295 . S
C37 O42 1.235 . S
O38 Fe23 1.976 . S
O38 C32 1.287 . S
O39 Fe25 1.996 . S
O39 C32 1.255 . S
C40 O33 1.287 . S
C40 O34 1.255 . S
O41 Fe23 2.002 . S
O41 C37 1.295 . S
O42 Fe25 1.997 . S
O42 C37 1.235 . S
C43 O26 1.295 . S
C43 O27 1.235 . S
Fe44 O46 1.918 . S
Fe44 O49 1.997 . S
Fe44 O50 2.002 . S
Fe44 O55 1.976 . S
Fe44 O58 1.996 . S
Fe45 O46 1.918 . S
Fe45 O53 1.997 . S
Fe45 O56 1.996 . S
Fe45 O60 1.976 . S
Fe45 O63 2.002 1_556 S
O46 Fe44 1.918 . S
O46 Fe45 1.918 . S
O46 Fe47 1.918 . S
Fe47 O46 1.918 . S
Fe47 O48 2.002 . S
Fe47 O57 1.976 . S
Fe47 O61 1.996 . S
Fe47 O64 1.997 1_556 S
O48 Fe47 2.002 . S
O48 C65 1.295 . S
O49 Fe44 1.997 . S
O49 C65 1.235 . S
O50 Fe44 2.002 . S
O50 C51 1.295 . S
C51 O50 1.295 . S
C51 O53 1.235 . S
C52 O57 1.287 . S
C52 O58 1.255 . S
O53 Fe45 1.997 . S
O53 C51 1.235 . S
C54 O60 1.287 . S
C54 O61 1.255 . S
O55 Fe44 1.976 . S
O55 C62 1.287 . S
O56 Fe45 1.996 . S
O56 C62 1.255 . S
O57 Fe47 1.976 . S
O57 C52 1.287 . S
O58 Fe44 1.996 . S
O58 C52 1.255 . S
C59 O63 1.295 . S
C59 O64 1.235 . S
O60 Fe45 1.976 . S
O60 C54 1.287 . S
O61 Fe47 1.996 . S
O61 C54 1.255 . S
C62 O55 1.287 . S
C62 O56 1.255 . S
O63 Fe45 2.002 1_554 S
O63 C59 1.295 . S
O64 Fe47 1.997 1_554 S
O64 C59 1.235 . S
C65 O48 1.295 . S
C65 O49 1.235 . S
Fe66 O68 1.918 . S
Fe66 O71 1.997 . S
Fe66 O72 2.002 . S
Fe66 O77 1.976 1_655 S
Fe66 O80 1.996 . S
Fe67 O68 1.918 . S
Fe67 O75 1.997 . S
Fe67 O78 1.996 1_655 S
Fe67 O82 1.976 . S
Fe67 O85 2.002 . S
O68 Fe66 1.918 . S
O68 Fe67 1.918 . S
O68 Fe69 1.918 . S
Fe69 O68 1.918 . S
Fe69 O70 2.002 . S
Fe69 O79 1.976 . S
Fe69 O83 1.996 . S
Fe69 O86 1.997 . S
O70 Fe69 2.002 . S
O70 C87 1.295 . S
O71 Fe66 1.997 . S
O71 C87 1.235 . S
O72 Fe66 2.002 . S
O72 C73 1.295 . S
C73 O72 1.295 . S
C73 O75 1.235 . S
C74 O79 1.287 . S
C74 O80 1.255 . S
O75 Fe67 1.997 . S
O75 C73 1.235 . S
C76 O82 1.287 . S
C76 O83 1.255 . S
O77 Fe66 1.976 1_455 S
O77 C84 1.287 . S
O78 Fe67 1.996 1_455 S
O78 C84 1.255 . S
O79 Fe69 1.976 . S
O79 C74 1.287 . S
O80 Fe66 1.996 . S
O80 C74 1.255 . S
C81 O85 1.295 . S
C81 O86 1.235 . S
O82 Fe67 1.976 . S
O82 C76 1.287 . S
O83 Fe69 1.996 . S
O83 C76 1.255 . S
C84 O77 1.287 . S
C84 O78 1.255 . S
O85 Fe67 2.002 . S
O85 C81 1.295 . S
O86 Fe69 1.997 . S
O86 C81 1.235 . S
C87 O70 1.295 . S
C87 O71 1.235 . S
Fe88 O90 1.918 . S
Fe88 O93 1.997 1_455 S
Fe88 O94 2.002 . S
Fe88 O99 1.976 . S
Fe88 O102 1.996 1_545 S
Fe89 O90 1.918 . S
Fe89 O97 1.997 . S
Fe89 O100 1.996 . S
Fe89 O104 1.976 . S
Fe89 O107 2.002 . S
O90 Fe88 1.918 . S
O90 Fe89 1.918 . S
O90 Fe91 1.918 . S
Fe91 O90 1.918 . S
Fe91 O92 2.002 1_455 S
Fe91 O101 1.976 1_545 S
Fe91 O105 1.996 . S
Fe91 O108 1.997 . S
O92 Fe91 2.002 1_655 S
O92 C109 1.295 . S
O93 Fe88 1.997 1_655 S
O93 C109 1.235 . S
O94 Fe88 2.002 . S
O94 C95 1.295 . S
C95 O94 1.295 . S
C95 O97 1.235 . S
C96 O101 1.287 . S
C96 O102 1.255 . S
O97 Fe89 1.997 . S
O97 C95 1.235 . S
C98 O104 1.287 . S
C98 O105 1.255 . S
O99 Fe88 1.976 . S
O99 C106 1.287 . S
O100 Fe89 1.996 . S
O100 C106 1.255 . S
O101 Fe91 1.976 1_565 S
O101 C96 1.287 . S
O102 Fe88 1.996 1_565 S
O102 C96 1.255 . S
C103 O107 1.295 . S
C103 O108 1.235 . S
O104 Fe89 1.976 . S
O104 C98 1.287 . S
O105 Fe91 1.996 . S
O105 C98 1.255 . S
C106 O99 1.287 . S
C106 O100 1.255 . S
O107 Fe89 2.002 . S
O107 C103 1.295 . S
O108 Fe91 1.997 . S
O108 C103 1.235 . S
C109 O92 1.295 . S
C109 O93 1.235 . S
Fe110 O112 1.918 . S
Fe110 O115 1.997 . S
Fe110 O116 2.002 . S
Fe110 O121 1.976 1_565 S
Fe110 O124 1.996 . S
Fe111 O112 1.918 . S
Fe111 O119 1.997 . S
Fe111 O122 1.996 1_565 S
Fe111 O126 1.976 . S
Fe111 O129 2.002 . S
O112 Fe110 1.918 . S
O112 Fe111 1.918 . S
O112 Fe113 1.918 . S
Fe113 O112 1.918 . S
Fe113 O114 2.002 . S
Fe113 O123 1.976 . S
Fe113 O127 1.996 . S
Fe113 O130 1.997 . S
O114 Fe113 2.002 . S
O114 C131 1.295 . S
O115 Fe110 1.997 . S
O115 C131 1.235 . S
O116 Fe110 2.002 . S
O116 C117 1.295 . S
C117 O116 1.295 . S
C117 O119 1.235 . S
C118 O123 1.287 . S
C118 O124 1.255 . S
O119 Fe111 1.997 . S
O119 C117 1.235 . S
C120 O126 1.287 . S
C120 O127 1.255 . S
O121 Fe110 1.976 1_545 S
O121 C128 1.287 . S
O122 Fe111 1.996 1_545 S
O122 C128 1.255 . S
O123 Fe113 1.976 . S
O123 C118 1.287 . S
O124 Fe110 1.996 . S
O124 C118 1.255 . S
C125 O129 1.295 . S
C125 O130 1.235 . S
O126 Fe111 1.976 . S
O126 C120 1.287 . S
O127 Fe113 1.996 . S
O127 C120 1.255 . S
C128 O121 1.287 . S
C128 O122 1.255 . S
O129 Fe111 2.002 . S
O129 C125 1.295 . S
O130 Fe113 1.997 . S
O130 C125 1.235 . S
C131 O114 1.295 . S
C131 O115 1.235 . S
Fe132 O134 1.918 . S
Fe132 O137 1.997 . S
Fe132 O138 2.002 . S
Fe132 O143 1.976 . S
Fe132 O146 1.996 . S
Fe133 O134 1.918 . S
Fe133 O141 1.997 . S
Fe133 O144 1.996 . S
Fe133 O148 1.976 . S
Fe133 O151 2.002 . S
O134 Fe132 1.918 . S
O134 Fe133 1.918 . S
O134 Fe135 1.918 . S
Fe135 O134 1.918 . S
Fe135 O136 2.002 . S
Fe135 O145 1.976 . S
Fe135 O149 1.996 . S
Fe135 O152 1.997 . S
O136 Fe135 2.002 . S
O136 C153 1.295 . S
O137 Fe132 1.997 . S
O137 C153 1.235 . S
O138 Fe132 2.002 . S
O138 C139 1.295 . S
C139 O138 1.295 . S
C139 O141 1.235 . S
C140 O145 1.287 . S
C140 O146 1.255 . S
O141 Fe133 1.997 . S
O141 C139 1.235 . S
C142 O148 1.287 . S
C142 O149 1.255 . S
O143 Fe132 1.976 . S
O143 C150 1.287 . S
O144 Fe133 1.996 . S
O144 C150 1.255 . S
O145 Fe135 1.976 . S
O145 C140 1.287 . S
O146 Fe132 1.996 . S
O146 C140 1.255 . S
C147 O151 1.295 . S
C147 O152 1.235 . S
O148 Fe133 1.976 . S
O148 C142 1.287 . S
O149 Fe135 1.996 . S
O149 C142 1.255 . S
C150 O143 1.287 . S
C150 O144 1.255 . S
O151 Fe133 2.002 . S
O151 C147 1.295 . S
O152 Fe135 1.997 . S
O152 C147 1.235 . S
C153 O136 1.295 . S
C153 O137 1.235 . S
Fe154 O156 1.918 . S
Fe154 O159 1.997 . S
Fe154 O160 2.002 . S
Fe154 O165 1.976 . S
Fe154 O168 1.996 . S
Fe155 O156 1.918 . S
Fe155 O163 1.997 . S
Fe155 O166 1.996 . S
Fe155 O170 1.976 . S
Fe155 O173 2.002 1_655 S
O156 Fe154 1.918 . S
O156 Fe155 1.918 . S
O156 Fe157 1.918 . S
Fe157 O156 1.918 . S
Fe157 O158 2.002 . S
Fe157 O167 1.976 . S
Fe157 O171 1.996 . S
Fe157 O174 1.997 1_655 S
O158 Fe157 2.002 . S
O158 C175 1.295 . S
O159 Fe154 1.997 . S
O159 C175 1.235 . S
O160 Fe154 2.002 . S
O160 C161 1.295 . S
C161 O160 1.295 . S
C161 O163 1.235 . S
C162 O167 1.287 . S
C162 O168 1.255 . S
O163 Fe155 1.997 . S
O163 C161 1.235 . S
C164 O170 1.287 . S
C164 O171 1.255 . S
O165 Fe154 1.976 . S
O165 C172 1.287 . S
O166 Fe155 1.996 . S
O166 C172 1.255 . S
O167 Fe157 1.976 . S
O167 C162 1.287 . S
O168 Fe154 1.996 . S
O168 C162 1.255 . S
C169 O173 1.295 . S
C169 O174 1.235 . S
O170 Fe155 1.976 . S
O170 C164 1.287 . S
O171 Fe157 1.996 . S
O171 C164 1.255 . S
C172 O165 1.287 . S
C172 O166 1.255 . S
O173 Fe155 2.002 1_455 S
O173 C169 1.295 . S
O174 Fe157 1.997 1_455 S
O174 C169 1.235 . S
C175 O158 1.295 . S
C175 O159 1.235 . S
Fe176 O178 1.918 . S
Fe176 O181 1.997 . S
Fe176 O182 2.002 . S
Fe176 O187 1.976 . S
Fe176 O190 1.996 . S
Fe177 O178 1.918 . S
Fe177 O185 1.997 . S
Fe177 O188 1.996 . S
Fe177 O192 1.976 1_554 S
Fe177 O195 2.002 1_545 S
O178 Fe176 1.918 . S
O178 Fe177 1.918 . S
O178 Fe179 1.918 . S
Fe179 O178 1.918 . S
Fe179 O180 2.002 . S
Fe179 O189 1.976 . S
Fe179 O193 1.996 1_554 S
Fe179 O196 1.997 1_545 S
O180 Fe179 2.002 . S
O180 C197 1.295 . S
O181 Fe176 1.997 . S
O181 C197 1.235 . S
O182 Fe176 2.002 . S
O182 C183 1.295 . S
C183 O182 1.295 . S
C183 O185 1.235 . S
C184 O189 1.287 . S
C184 O190 1.255 . S
O185 Fe177 1.997 . S
O185 C183 1.235 . S
C186 O192 1.287 . S
C186 O193 1.255 . S
O187 Fe176 1.976 . S
O187 C194 1.287 . S
O188 Fe177 1.996 . S
O188 C194 1.255 . S
O189 Fe179 1.976 . S
O189 C184 1.287 . S
O190 Fe176 1.996 . S
O190 C184 1.255 . S
C191 O195 1.295 . S
C191 O196 1.235 . S
O192 Fe177 1.976 1_556 S
O192 C186 1.287 . S
O193 Fe179 1.996 1_556 S
O193 C186 1.255 . S
C194 O187 1.287 . S
C194 O188 1.255 . S
O195 Fe177 2.002 1_565 S
O195 C191 1.295 . S
O196 Fe179 1.997 1_565 S
O196 C191 1.235 . S
C197 O180 1.295 . S
C197 O181 1.235 . S
Fe198 O200 1.918 . S
Fe198 O203 1.997 . S
Fe198 O204 2.002 . S
Fe198 O209 1.976 . S
Fe198 O212 1.996 . S
Fe199 O200 1.918 . S
Fe199 O207 1.997 . S
Fe199 O210 1.996 . S
Fe199 O214 1.976 1_556 S
Fe199 O217 2.002 . S
O200 Fe198 1.918 . S
O200 Fe199 1.918 . S
O200 Fe201 1.918 . S
Fe201 O200 1.918 . S
Fe201 O202 2.002 . S
Fe201 O211 1.976 . S
Fe201 O215 1.996 1_556 S
Fe201 O218 1.997 . S
O202 Fe201 2.002 . S
O202 C219 1.295 . S
O203 Fe198 1.997 . S
O203 C219 1.235 . S
O204 Fe198 2.002 . S
O204 C205 1.295 . S
C205 O204 1.295 . S
C205 O207 1.235 . S
C206 O211 1.287 . S
C206 O212 1.255 . S
O207 Fe199 1.997 . S
O207 C205 1.235 . S
C208 O214 1.287 . S
C208 O215 1.255 . S
O209 Fe198 1.976 . S
O209 C216 1.287 . S
O210 Fe199 1.996 . S
O210 C216 1.255 . S
O211 Fe201 1.976 . S
O211 C206 1.287 . S
O212 Fe198 1.996 . S
O212 C206 1.255 . S
C213 O217 1.295 . S
C213 O218 1.235 . S
O214 Fe199 1.976 1_554 S
O214 C208 1.287 . S
O215 Fe201 1.996 1_554 S
O215 C208 1.255 . S
C216 O209 1.287 . S
C216 O210 1.255 . S
O217 Fe199 2.002 . S
O217 C213 1.295 . S
O218 Fe201 1.997 . S
O218 C213 1.235 . S
C219 O202 1.295 . S
C219 O203 1.235 . S
Fe220 O222 1.918 . S
Fe220 O225 1.997 . S
Fe220 O226 2.002 . S
Fe220 O231 1.976 . S
Fe220 O234 1.996 . S
Fe221 O222 1.918 . S
Fe221 O229 1.997 . S
Fe221 O232 1.996 . S
Fe221 O236 1.976 . S
Fe221 O239 2.002 . S
O222 Fe220 1.918 . S
O222 Fe221 1.918 . S
O222 Fe223 1.918 . S
Fe223 O222 1.918 . S
Fe223 O224 2.002 . S
Fe223 O233 1.976 . S
Fe223 O237 1.996 . S
Fe223 O240 1.997 . S
O224 Fe223 2.002 . S
O224 C241 1.295 . S
O225 Fe220 1.997 . S
O225 C241 1.235 . S
O226 Fe220 2.002 . S
O226 C227 1.295 . S
C227 O226 1.295 . S
C227 O229 1.235 . S
C228 O233 1.287 . S
C228 O234 1.255 . S
O229 Fe221 1.997 . S
O229 C227 1.235 . S
C230 O236 1.287 . S
C230 O237 1.255 . S
O231 Fe220 1.976 . S
O231 C238 1.287 . S
O232 Fe221 1.996 . S
O232 C238 1.255 . S
O233 Fe223 1.976 . S
O233 C228 1.287 . S
O234 Fe220 1.996 . S
O234 C228 1.255 . S
C235 O239 1.295 . S
C235 O240 1.235 . S
O236 Fe221 1.976 . S
O236 C230 1.287 . S
O237 Fe223 1.996 . S
O237 C230 1.255 . S
C238 O231 1.287 . S
C238 O232 1.255 . S
O239 Fe221 2.002 . S
O239 C235 1.295 . S
O240 Fe223 1.997 . S
O240 C235 1.235 . S
C241 O224 1.295 . S
C241 O225 1.235 . S
Fe242 O244 1.918 . S
Fe242 O247 1.997 . S
Fe242 O248 2.002 . S
Fe242 O253 1.976 . S
Fe242 O256 1.996 . S
Fe243 O244 1.918 . S
Fe243 O251 1.997 . S
Fe243 O254 1.996 . S
Fe243 O258 1.976 . S
Fe243 O261 2.002 1_565 S
O244 Fe242 1.918 . S
O244 Fe243 1.918 . S
O244 Fe245 1.918 . S
Fe245 O244 1.918 . S
Fe245 O246 2.002 . S
Fe245 O255 1.976 . S
Fe245 O259 1.996 . S
Fe245 O262 1.997 1_565 S
O246 Fe245 2.002 . S
O246 C263 1.295 . S
O247 Fe242 1.997 . S
O247 C263 1.235 . S
O248 Fe242 2.002 . S
O248 C249 1.295 . S
C249 O248 1.295 . S
C249 O251 1.235 . S
C250 O255 1.287 . S
C250 O256 1.255 . S
O251 Fe243 1.997 . S
O251 C249 1.235 . S
C252 O258 1.287 . S
C252 O259 1.255 . S
O253 Fe242 1.976 . S
O253 C260 1.287 . S
O254 Fe243 1.996 . S
O254 C260 1.255 . S
O255 Fe245 1.976 . S
O255 C250 1.287 . S
O256 Fe242 1.996 . S
O256 C250 1.255 . S
C257 O261 1.295 . S
C257 O262 1.235 . S
O258 Fe243 1.976 . S
O258 C252 1.287 . S
O259 Fe245 1.996 . S
O259 C252 1.255 . S
C260 O253 1.287 . S
C260 O254 1.255 . S
O261 Fe243 2.002 1_545 S
O261 C257 1.295 . S
O262 Fe245 1.997 1_545 S
O262 C257 1.235 . S
C263 O246 1.295 . S
C263 O247 1.235 . S
Fe264 O266 1.918 . S
Fe264 O269 1.997 . S
Fe264 O270 2.002 . S
Fe264 O275 1.976 . S
Fe264 O278 1.996 . S
Fe265 O266 1.918 . S
Fe265 O273 1.997 . S
Fe265 O276 1.996 . S
Fe265 O280 1.976 1_655 S
Fe265 O283 2.002 1_556 S
O266 Fe264 1.918 . S
O266 Fe265 1.918 . S
O266 Fe267 1.918 . S
Fe267 O266 1.918 . S
Fe267 O268 2.002 . S
Fe267 O277 1.976 . S
Fe267 O281 1.996 1_655 S
Fe267 O284 1.997 1_556 S
O268 Fe267 2.002 . S
O268 C285 1.295 . S
O269 Fe264 1.997 . S
O269 C285 1.235 . S
O270 Fe264 2.002 . S
O270 C271 1.295 . S
C271 O270 1.295 . S
C271 O273 1.235 . S
C272 O277 1.287 . S
C272 O278 1.255 . S
O273 Fe265 1.997 . S
O273 C271 1.235 . S
C274 O280 1.287 . S
C274 O281 1.255 . S
O275 Fe264 1.976 . S
O275 C282 1.287 . S
O276 Fe265 1.996 . S
O276 C282 1.255 . S
O277 Fe267 1.976 . S
O277 C272 1.287 . S
O278 Fe264 1.996 . S
O278 C272 1.255 . S
C279 O283 1.295 . S
C279 O284 1.235 . S
O280 Fe265 1.976 1_455 S
O280 C274 1.287 . S
O281 Fe267 1.996 1_455 S
O281 C274 1.255 . S
C282 O275 1.287 . S
C282 O276 1.255 . S
O283 Fe265 2.002 1_554 S
O283 C279 1.295 . S
O284 Fe267 1.997 1_554 S
O284 C279 1.235 . S
C285 O268 1.295 . S
C285 O269 1.235 . S
Fe286 O288 1.918 . S
Fe286 O291 1.997 . S
Fe286 O292 2.002 . S
Fe286 O297 1.976 . S
Fe286 O300 1.996 . S
Fe287 O288 1.918 . S
Fe287 O295 1.997 . S
Fe287 O298 1.996 . S
Fe287 O302 1.976 . S
Fe287 O305 2.002 . S
O288 Fe286 1.918 . S
O288 Fe287 1.918 . S
O288 Fe289 1.918 . S
Fe289 O288 1.918 . S
Fe289 O290 2.002 . S
Fe289 O299 1.976 . S
Fe289 O303 1.996 . S
Fe289 O306 1.997 . S
O290 Fe289 2.002 . S
O290 C307 1.295 . S
O291 Fe286 1.997 . S
O291 C307 1.235 . S
O292 Fe286 2.002 . S
O292 C293 1.295 . S
C293 O292 1.295 . S
C293 O295 1.235 . S
C294 O299 1.287 . S
C294 O300 1.255 . S
O295 Fe287 1.997 . S
O295 C293 1.235 . S
C296 O302 1.287 . S
C296 O303 1.255 . S
O297 Fe286 1.976 . S
O297 C304 1.287 . S
O298 Fe287 1.996 . S
O298 C304 1.255 . S
O299 Fe289 1.976 . S
O299 C294 1.287 . S
O300 Fe286 1.996 . S
O300 C294 1.255 . S
C301 O305 1.295 . S
C301 O306 1.235 . S
O302 Fe287 1.976 . S
O302 C296 1.287 . S
O303 Fe289 1.996 . S
O303 C296 1.255 . S
C304 O297 1.287 . S
C304 O298 1.255 . S
O305 Fe287 2.002 . S
O305 C301 1.295 . S
O306 Fe289 1.997 . S
O306 C301 1.235 . S
C307 O290 1.295 . S
C307 O291 1.235 . S
Fe308 O310 1.918 . S
Fe308 O313 1.997 . S
Fe308 O314 2.002 1_554 S
Fe308 O319 1.976 . S
Fe308 O322 1.996 . S
Fe309 O310 1.918 . S
Fe309 O317 1.997 1_554 S
Fe309 O320 1.996 . S
Fe309 O324 1.976 . S
Fe309 O327 2.002 . S
O310 Fe308 1.918 . S
O310 Fe309 1.918 . S
O310 Fe311 1.918 . S
Fe311 O310 1.918 . S
Fe311 O312 2.002 . S
Fe311 O321 1.976 . S
Fe311 O325 1.996 . S
Fe311 O328 1.997 . S
O312 Fe311 2.002 . S
O312 C329 1.295 . S
O313 Fe308 1.997 . S
O313 C329 1.235 . S
O314 Fe308 2.002 1_556 S
O314 C315 1.295 . S
C315 O314 1.295 . S
C315 O317 1.235 . S
C316 O321 1.287 . S
C316 O322 1.255 . S
O317 Fe309 1.997 1_556 S
O317 C315 1.235 . S
C318 O324 1.287 . S
C318 O325 1.255 . S
O319 Fe308 1.976 . S
O319 C326 1.287 . S
O320 Fe309 1.996 . S
O320 C326 1.255 . S
O321 Fe311 1.976 . S
O321 C316 1.287 . S
O322 Fe308 1.996 . S
O322 C316 1.255 . S
C323 O327 1.295 . S
C323 O328 1.235 . S
O324 Fe309 1.976 . S
O324 C318 1.287 . S
O325 Fe311 1.996 . S
O325 C318 1.255 . S
C326 O319 1.287 . S
C326 O320 1.255 . S
O327 Fe309 2.002 . S
O327 C323 1.295 . S
O328 Fe311 1.997 . S
O328 C323 1.235 . S
C329 O312 1.295 . S
C329 O313 1.235 . S
Fe330 O332 1.918 . S
Fe330 O335 1.997 . S
Fe330 O336 2.002 . S
Fe330 O341 1.976 . S
Fe330 O344 1.996 . S
Fe331 O332 1.918 . S
Fe331 O339 1.997 . S
Fe331 O342 1.996 . S
Fe331 O346 1.976 1_455 S
Fe331 O349 2.002 . S
O332 Fe330 1.918 . S
O332 Fe331 1.918 . S
O332 Fe333 1.918 . S
Fe333 O332 1.918 . S
Fe333 O334 2.002 . S
Fe333 O343 1.976 . S
Fe333 O347 1.996 1_455 S
Fe333 O350 1.997 . S
O334 Fe333 2.002 . S
O334 C351 1.295 . S
O335 Fe330 1.997 . S
O335 C351 1.235 . S
O336 Fe330 2.002 . S
O336 C337 1.295 . S
C337 O336 1.295 . S
C337 O339 1.235 . S
C338 O343 1.287 . S
C338 O344 1.255 . S
O339 Fe331 1.997 . S
O339 C337 1.235 . S
C340 O346 1.287 . S
C340 O347 1.255 . S
O341 Fe330 1.976 . S
O341 C348 1.287 . S
O342 Fe331 1.996 . S
O342 C348 1.255 . S
O343 Fe333 1.976 . S
O343 C338 1.287 . S
O344 Fe330 1.996 . S
O344 C338 1.255 . S
C345 O349 1.295 . S
C345 O350 1.235 . S
O346 Fe331 1.976 1_655 S
O346 C340 1.287 . S
O347 Fe333 1.996 1_655 S
O347 C340 1.255 . S
C348 O341 1.287 . S
C348 O342 1.255 . S
O349 Fe331 2.002 . S
O349 C345 1.295 . S
O350 Fe333 1.997 . S
O350 C345 1.235 . S
C351 O334 1.295 . S
C351 O335 1.235 . S
Fe352 O354 1.918 . S
Fe352 O357 1.997 . S
Fe352 O358 2.002 . S
Fe352 O363 1.976 . S
Fe352 O366 1.996 . S
Fe353 O354 1.918 . S
Fe353 O361 1.997 . S
Fe353 O364 1.996 . S
Fe353 O368 1.976 1_565 S
Fe353 O371 2.002 1_655 S
O354 Fe352 1.918 . S
O354 Fe353 1.918 . S
O354 Fe355 1.918 . S
Fe355 O354 1.918 . S
Fe355 O356 2.002 . S
Fe355 O365 1.976 . S
Fe355 O369 1.996 1_565 S
Fe355 O372 1.997 1_655 S
O356 Fe355 2.002 . S
O356 C373 1.295 . S
O357 Fe352 1.997 . S
O357 C373 1.235 . S
O358 Fe352 2.002 . S
O358 C359 1.295 . S
C359 O358 1.295 . S
C359 O361 1.235 . S
C360 O365 1.287 . S
C360 O366 1.255 . S
O361 Fe353 1.997 . S
O361 C359 1.235 . S
C362 O368 1.287 . S
C362 O369 1.255 . S
O363 Fe352 1.976 . S
O363 C370 1.287 . S
O364 Fe353 1.996 . S
O364 C370 1.255 . S
O365 Fe355 1.976 . S
O365 C360 1.287 . S
O366 Fe352 1.996 . S
O366 C360 1.255 . S
C367 O371 1.295 . S
C367 O372 1.235 . S
O368 Fe353 1.976 1_545 S
O368 C362 1.287 . S
O369 Fe355 1.996 1_545 S
O369 C362 1.255 . S
C370 O363 1.287 . S
C370 O364 1.255 . S
O371 Fe353 2.002 1_455 S
O371 C367 1.295 . S
O372 Fe355 1.997 1_455 S
O372 C367 1.235 . S
C373 O356 1.295 . S
C373 O357 1.235 . S
Fe374 O376 1.918 . S
Fe374 O379 1.997 . S
Fe374 O380 2.002 . S
Fe374 O385 1.976 . S
Fe374 O388 1.996 1_545 S
Fe375 O376 1.918 . S
Fe375 O383 1.997 . S
Fe375 O386 1.996 . S
Fe375 O390 1.976 . S
Fe375 O393 2.002 . S
O376 Fe374 1.918 . S
O376 Fe375 1.918 . S
O376 Fe377 1.918 . S
Fe377 O376 1.918 . S
Fe377 O378 2.002 . S
Fe377 O387 1.976 1_545 S
Fe377 O391 1.996 . S
Fe377 O394 1.997 . S
O378 Fe377 2.002 . S
O378 C395 1.295 . S
O379 Fe374 1.997 . S
O379 C395 1.235 . S
O380 Fe374 2.002 . S
O380 C381 1.295 . S
C381 O380 1.295 . S
C381 O383 1.235 . S
C382 O387 1.287 . S
C382 O388 1.255 . S
O383 Fe375 1.997 . S
O383 C381 1.235 . S
C384 O390 1.287 . S
C384 O391 1.255 . S
O385 Fe374 1.976 . S
O385 C392 1.287 . S
O386 Fe375 1.996 . S
O386 C392 1.255 . S
O387 Fe377 1.976 1_565 S
O387 C382 1.287 . S
O388 Fe374 1.996 1_565 S
O388 C382 1.255 . S
C389 O393 1.295 . S
C389 O394 1.235 . S
O390 Fe375 1.976 . S
O390 C384 1.287 . S
O391 Fe377 1.996 . S
O391 C384 1.255 . S
C392 O385 1.287 . S
C392 O386 1.255 . S
O393 Fe375 2.002 . S
O393 C389 1.295 . S
O394 Fe377 1.997 . S
O394 C389 1.235 . S
C395 O378 1.295 . S
C395 O379 1.235 . S
Fe396 O398 1.918 . S
Fe396 O401 1.997 . S
Fe396 O402 2.002 . S
Fe396 O407 1.976 . S
Fe396 O410 1.996 . S
Fe397 O398 1.918 . S
Fe397 O405 1.997 . S
Fe397 O408 1.996 . S
Fe397 O412 1.976 . S
Fe397 O415 2.002 . S
O398 Fe396 1.918 . S
O398 Fe397 1.918 . S
O398 Fe399 1.918 . S
Fe399 O398 1.918 . S
Fe399 O400 2.002 . S
Fe399 O409 1.976 . S
Fe399 O413 1.996 . S
Fe399 O416 1.997 . S
O400 Fe399 2.002 . S
O400 C417 1.295 . S
O401 Fe396 1.997 . S
O401 C417 1.235 . S
O402 Fe396 2.002 . S
O402 C403 1.295 . S
C403 O402 1.295 . S
C403 O405 1.235 . S
C404 O409 1.287 . S
C404 O410 1.255 . S
O405 Fe397 1.997 . S
O405 C403 1.235 . S
C406 O412 1.287 . S
C406 O413 1.255 . S
O407 Fe396 1.976 . S
O407 C414 1.287 . S
O408 Fe397 1.996 . S
O408 C414 1.255 . S
O409 Fe399 1.976 . S
O409 C404 1.287 . S
O410 Fe396 1.996 . S
O410 C404 1.255 . S
C411 O415 1.295 . S
C411 O416 1.235 . S
O412 Fe397 1.976 . S
O412 C406 1.287 . S
O413 Fe399 1.996 . S
O413 C406 1.255 . S
C414 O407 1.287 . S
C414 O408 1.255 . S
O415 Fe397 2.002 . S
O415 C411 1.295 . S
O416 Fe399 1.997 . S
O416 C411 1.235 . S
C417 O400 1.295 . S
C417 O401 1.235 . S
Fe418 O420 1.918 . S
Fe418 O423 1.997 1_455 S
Fe418 O424 2.002 . S
Fe418 O429 1.976 . S
Fe418 O432 1.996 . S
Fe419 O420 1.918 . S
Fe419 O427 1.997 . S
Fe419 O430 1.996 . S
Fe419 O434 1.976 . S
Fe419 O437 2.002 . S
O420 Fe418 1.918 . S
O420 Fe419 1.918 . S
O420 Fe421 1.918 . S
Fe421 O420 1.918 . S
Fe421 O422 2.002 1_455 S
Fe421 O431 1.976 . S
Fe421 O435 1.996 . S
Fe421 O438 1.997 . S
O422 Fe421 2.002 1_655 S
O422 C439 1.295 . S
O423 Fe418 1.997 1_655 S
O423 C439 1.235 . S
O424 Fe418 2.002 . S
O424 C425 1.295 . S
C425 O424 1.295 . S
C425 O427 1.235 . S
C426 O431 1.287 . S
C426 O432 1.255 . S
O427 Fe419 1.997 . S
O427 C425 1.235 . S
C428 O434 1.287 . S
C428 O435 1.255 . S
O429 Fe418 1.976 . S
O429 C436 1.287 . S
O430 Fe419 1.996 . S
O430 C436 1.255 . S
O431 Fe421 1.976 . S
O431 C426 1.287 . S
O432 Fe418 1.996 . S
O432 C426 1.255 . S
C433 O437 1.295 . S
C433 O438 1.235 . S
O434 Fe419 1.976 . S
O434 C428 1.287 . S
O435 Fe421 1.996 . S
O435 C428 1.255 . S
C436 O429 1.287 . S
C436 O430 1.255 . S
O437 Fe419 2.002 . S
O437 C433 1.295 . S
O438 Fe421 1.997 . S
O438 C433 1.235 . S
C439 O422 1.295 . S
C439 O423 1.235 . S
Fe440 O442 1.918 . S
Fe440 O445 1.997 . S
Fe440 O446 2.002 . S
Fe440 O451 1.976 . S
Fe440 O454 1.996 . S
Fe441 O442 1.918 . S
Fe441 O449 1.997 . S
Fe441 O452 1.996 . S
Fe441 O456 1.976 1_556 S
Fe441 O459 2.002 1_565 S
O442 Fe440 1.918 . S
O442 Fe441 1.918 . S
O442 Fe443 1.918 . S
Fe443 O442 1.918 . S
Fe443 O444 2.002 . S
Fe443 O453 1.976 . S
Fe443 O457 1.996 1_556 S
Fe443 O460 1.997 1_565 S
O444 Fe443 2.002 . S
O444 C461 1.295 . S
O445 Fe440 1.997 . S
O445 C461 1.235 . S
O446 Fe440 2.002 . S
O446 C447 1.295 . S
C447 O446 1.295 . S
C447 O449 1.235 . S
C448 O453 1.287 . S
C448 O454 1.255 . S
O449 Fe441 1.997 . S
O449 C447 1.235 . S
C450 O456 1.287 . S
C450 O457 1.255 . S
O451 Fe440 1.976 . S
O451 C458 1.287 . S
O452 Fe441 1.996 . S
O452 C458 1.255 . S
O453 Fe443 1.976 . S
O453 C448 1.287 . S
O454 Fe440 1.996 . S
O454 C448 1.255 . S
C455 O459 1.295 . S
C455 O460 1.235 . S
O456 Fe441 1.976 1_554 S
O456 C450 1.287 . S
O457 Fe443 1.996 1_554 S
O457 C450 1.255 . S
C458 O451 1.287 . S
C458 O452 1.255 . S
O459 Fe441 2.002 1_545 S
O459 C455 1.295 . S
O460 Fe443 1.997 1_545 S
O460 C455 1.235 . S
C461 O444 1.295 . S
C461 O445 1.235 . S
Fe462 O464 1.918 . S
Fe462 O467 1.997 . S
Fe462 O468 2.002 . S
Fe462 O473 1.976 1_554 S
Fe462 O476 1.996 . S
Fe463 O464 1.918 . S
Fe463 O471 1.997 . S
Fe463 O474 1.996 1_554 S
Fe463 O478 1.976 . S
Fe463 O481 2.002 . S
O464 Fe462 1.918 . S
O464 Fe463 1.918 . S
O464 Fe465 1.918 . S
Fe465 O464 1.918 . S
Fe465 O466 2.002 . S
Fe465 O475 1.976 . S
Fe465 O479 1.996 . S
Fe465 O482 1.997 . S
O466 Fe465 2.002 . S
O466 C483 1.295 . S
O467 Fe462 1.997 . S
O467 C483 1.235 . S
O468 Fe462 2.002 . S
O468 C469 1.295 . S
C469 O468 1.295 . S
C469 O471 1.235 . S
C470 O475 1.287 . S
C470 O476 1.255 . S
O471 Fe463 1.997 . S
O471 C469 1.235 . S
C472 O478 1.287 . S
C472 O479 1.255 . S
O473 Fe462 1.976 1_556 S
O473 C480 1.287 . S
O474 Fe463 1.996 1_556 S
O474 C480 1.255 . S
O475 Fe465 1.976 . S
O475 C470 1.287 . S
O476 Fe462 1.996 . S
O476 C470 1.255 . S
C477 O481 1.295 . S
C477 O482 1.235 . S
O478 Fe463 1.976 . S
O478 C472 1.287 . S
O479 Fe465 1.996 . S
O479 C472 1.255 . S
C480 O473 1.287 . S
C480 O474 1.255 . S
O481 Fe463 2.002 . S
O481 C477 1.295 . S
O482 Fe465 1.997 . S
O482 C477 1.235 . S
C483 O466 1.295 . S
C483 O467 1.235 . S
Fe484 O486 1.918 . S
Fe484 O489 1.997 . S
Fe484 O490 2.002 . S
Fe484 O495 1.976 . S
Fe484 O498 1.996 . S
Fe485 O486 1.918 . S
Fe485 O493 1.997 . S
Fe485 O496 1.996 . S
Fe485 O500 1.976 . S
Fe485 O503 2.002 . S
O486 Fe484 1.918 . S
O486 Fe485 1.918 . S
O486 Fe487 1.918 . S
Fe487 O486 1.918 . S
Fe487 O488 2.002 . S
Fe487 O497 1.976 . S
Fe487 O501 1.996 . S
Fe487 O504 1.997 . S
O488 Fe487 2.002 . S
O488 C505 1.295 . S
O489 Fe484 1.997 . S
O489 C505 1.235 . S
O490 Fe484 2.002 . S
O490 C491 1.295 . S
C491 O490 1.295 . S
C491 O493 1.235 . S
C492 O497 1.287 . S
C492 O498 1.255 . S
O493 Fe485 1.997 . S
O493 C491 1.235 . S
C494 O500 1.287 . S
C494 O501 1.255 . S
O495 Fe484 1.976 . S
O495 C502 1.287 . S
O496 Fe485 1.996 . S
O496 C502 1.255 . S
O497 Fe487 1.976 . S
O497 C492 1.287 . S
O498 Fe484 1.996 . S
O498 C492 1.255 . S
C499 O503 1.295 . S
C499 O504 1.235 . S
O500 Fe485 1.976 . S
O500 C494 1.287 . S
O501 Fe487 1.996 . S
O501 C494 1.255 . S
C502 O495 1.287 . S
C502 O496 1.255 . S
O503 Fe485 2.002 . S
O503 C499 1.295 . S
O504 Fe487 1.997 . S
O504 C499 1.235 . S
C505 O488 1.295 . S
C505 O489 1.235 . S
Fe506 O508 1.918 . S
Fe506 O511 1.997 1_545 S
Fe506 O512 2.002 . S
Fe506 O517 1.976 . S
Fe506 O520 1.996 . S
Fe507 O508 1.918 . S
Fe507 O515 1.997 . S
Fe507 O518 1.996 . S
Fe507 O522 1.976 . S
Fe507 O525 2.002 . S
O508 Fe506 1.918 . S
O508 Fe507 1.918 . S
O508 Fe509 1.918 . S
Fe509 O508 1.918 . S
Fe509 O510 2.002 1_545 S
Fe509 O519 1.976 . S
Fe509 O523 1.996 . S
Fe509 O526 1.997 . S
O510 Fe509 2.002 1_565 S
O510 C527 1.295 . S
O511 Fe506 1.997 1_565 S
O511 C527 1.235 . S
O512 Fe506 2.002 . S
O512 C513 1.295 . S
C513 O512 1.295 . S
C513 O515 1.235 . S
C514 O519 1.287 . S
C514 O520 1.255 . S
O515 Fe507 1.997 . S
O515 C513 1.235 . S
C516 O522 1.287 . S
C516 O523 1.255 . S
O517 Fe506 1.976 . S
O517 C524 1.287 . S
O518 Fe507 1.996 . S
O518 C524 1.255 . S
O519 Fe509 1.976 . S
O519 C514 1.287 . S
O520 Fe506 1.996 . S
O520 C514 1.255 . S
C521 O525 1.295 . S
C521 O526 1.235 . S
O522 Fe507 1.976 . S
O522 C516 1.287 . S
O523 Fe509 1.996 . S
O523 C516 1.255 . S
C524 O517 1.287 . S
C524 O518 1.255 . S
O525 Fe507 2.002 . S
O525 C521 1.295 . S
O526 Fe509 1.997 . S
O526 C521 1.235 . S
C527 O510 1.295 . S
C527 O511 1.235 . S
C528 C529 1.363 1_655 S
C528 C534 1.379 1_655 S
C528 N536 1.356 . S
C529 C528 1.363 1_455 S
C529 C535 1.363 . S
C530 C531 1.363 . S
C530 C535 1.379 . S
C530 N537 1.356 . S
C531 C530 1.363 . S
C531 C534 1.363 . S
N532 C534 1.356 1_655 S
N532 H544 0.984 . S
N532 H545 0.985 1_655 S
N533 C535 1.356 . S
N533 H538 0.984 . S
N533 H539 0.985 . S
C534 C528 1.379 1_455 S
C534 C531 1.363 . S
C534 N532 1.356 1_455 S
C535 C529 1.363 . S
C535 C530 1.379 . S
C535 N533 1.356 . S
N536 C528 1.356 . S
N536 H542 0.984 . S
N536 H543 0.984 . S
N537 C530 1.356 . S
N537 H540 0.984 . S
N537 H541 0.985 . S
H538 N533 0.984 . S
H539 N533 0.985 . S
H540 N537 0.984 . S
H541 N537 0.985 . S
H542 N536 0.984 . S
H543 N536 0.984 . S
H544 N532 0.984 . S
H545 N532 0.985 1_455 S
C546 C547 1.363 . S
C546 C552 1.379 . S
C546 N554 1.356 . S
C547 C546 1.363 . S
C547 C553 1.363 . S
C548 C549 1.363 . S
C548 C553 1.379 . S
C548 N555 1.356 . S
C549 C548 1.363 . S
C549 C552 1.363 . S
N550 C552 1.356 . S
N550 H562 0.984 . S
N550 H563 0.985 . S
N551 C553 1.356 . S
N551 H556 0.984 . S
N551 H557 0.985 . S
C552 C546 1.379 . S
C552 C549 1.363 . S
C552 N550 1.356 . S
C553 C547 1.363 . S
C553 C548 1.379 . S
C553 N551 1.356 . S
N554 C546 1.356 . S
N554 H560 0.984 . S
N554 H561 0.984 . S
N555 C548 1.356 . S
N555 H558 0.984 . S
N555 H559 0.985 . S
H556 N551 0.984 . S
H557 N551 0.985 . S
H558 N555 0.984 . S
H559 N555 0.985 . S
H560 N554 0.984 . S
H561 N554 0.984 . S
H562 N550 0.984 . S
H563 N550 0.985 . S
C564 C565 1.363 . S
C564 C570 1.379 . S
C564 N572 1.356 . S
C565 C564 1.363 . S
C565 C571 1.363 . S
C566 C567 1.363 . S
C566 C571 1.379 . S
C566 N573 1.356 . S
C567 C566 1.363 . S
C567 C570 1.363 . S
N568 C570 1.356 . S
N568 H580 0.984 . S
N568 H581 0.985 . S
N569 C571 1.356 . S
N569 H574 0.984 . S
N569 H575 0.985 . S
C570 C564 1.379 . S
C570 C567 1.363 . S
C570 N568 1.356 . S
C571 C565 1.363 . S
C571 C566 1.379 . S
C571 N569 1.356 . S
N572 C564 1.356 . S
N572 H578 0.984 . S
N572 H579 0.984 . S
N573 C566 1.356 . S
N573 H576 0.984 . S
N573 H577 0.985 . S
H574 N569 0.984 . S
H575 N569 0.985 . S
H576 N573 0.984 . S
H577 N573 0.985 . S
H578 N572 0.984 . S
H579 N572 0.984 . S
H580 N568 0.984 . S
H581 N568 0.985 . S
C582 C583 1.363 . S
C582 C588 1.379 . S
C582 N590 1.356 . S
C583 C582 1.363 . S
C583 C589 1.363 1_655 S
C584 C585 1.363 . S
C584 C589 1.379 1_655 S
C584 N591 1.356 1_655 S
C585 C584 1.363 . S
C585 C588 1.363 . S
N586 C588 1.356 . S
N586 H598 0.984 . S
N586 H599 0.985 . S
N587 C589 1.356 . S
N587 H592 0.984 . S
N587 H593 0.985 . S
C588 C582 1.379 . S
C588 C585 1.363 . S
C588 N586 1.356 . S
C589 C583 1.363 1_455 S
C589 C584 1.379 1_455 S
C589 N587 1.356 . S
N590 C582 1.356 . S
N590 H596 0.984 . S
N590 H597 0.984 . S
N591 C584 1.356 1_455 S
N591 H594 0.984 1_455 S
N591 H595 0.985 . S
H592 N587 0.984 . S
H593 N587 0.985 . S
H594 N591 0.984 1_655 S
H595 N591 0.985 . S
H596 N590 0.984 . S
H597 N590 0.984 . S
H598 N586 0.984 . S
H599 N586 0.985 . S
C600 C601 1.363 1_565 S
C600 C606 1.379 . S
C600 N608 1.356 . S
C601 C600 1.363 1_545 S
C601 C607 1.363 . S
C602 C603 1.363 . S
C602 C607 1.379 . S
C602 N609 1.356 . S
C603 C602 1.363 . S
C603 C606 1.363 1_545 S
N604 C606 1.356 . S
N604 H616 0.984 . S
N604 H617 0.985 . S
N605 C607 1.356 . S
N605 H610 0.984 . S
N605 H611 0.985 . S
C606 C600 1.379 . S
C606 C603 1.363 1_565 S
C606 N604 1.356 . S
C607 C601 1.363 . S
C607 C602 1.379 . S
C607 N605 1.356 . S
N608 C600 1.356 . S
N608 H614 0.984 . S
N608 H615 0.984 . S
N609 C602 1.356 . S
N609 H612 0.984 . S
N609 H613 0.985 . S
H610 N605 0.984 . S
H611 N605 0.985 . S
H612 N609 0.984 . S
H613 N609 0.985 . S
H614 N608 0.984 . S
H615 N608 0.984 . S
H616 N604 0.984 . S
H617 N604 0.985 . S
C618 C619 1.363 1_545 S
C618 C624 1.379 . S
C618 N626 1.356 . S
C619 C618 1.363 1_565 S
C619 C625 1.363 . S
C620 C621 1.363 . S
C620 C625 1.379 . S
C620 N627 1.356 . S
C621 C620 1.363 . S
C621 C624 1.363 1_565 S
N622 C624 1.356 . S
N622 H634 0.984 . S
N622 H635 0.985 . S
N623 C625 1.356 . S
N623 H628 0.984 . S
N623 H629 0.985 . S
C624 C618 1.379 . S
C624 C621 1.363 1_545 S
C624 N622 1.356 . S
C625 C619 1.363 . S
C625 C620 1.379 . S
C625 N623 1.356 . S
N626 C618 1.356 . S
N626 H632 0.984 . S
N626 H633 0.984 . S
N627 C620 1.356 . S
N627 H630 0.984 . S
N627 H631 0.985 . S
H628 N623 0.984 . S
H629 N623 0.985 . S
H630 N627 0.984 . S
H631 N627 0.985 . S
H632 N626 0.984 . S
H633 N626 0.984 . S
H634 N622 0.984 . S
H635 N622 0.985 . S
C636 C637 1.363 . S
C636 C642 1.379 . S
C636 N644 1.356 . S
C637 C636 1.363 . S
C637 C643 1.363 . S
C638 C639 1.363 . S
C638 C643 1.379 . S
C638 N645 1.356 . S
C639 C638 1.363 . S
C639 C642 1.363 . S
N640 C642 1.356 . S
N640 H652 0.984 . S
N640 H653 0.985 . S
N641 C643 1.356 . S
N641 H646 0.984 . S
N641 H647 0.985 . S
C642 C636 1.379 . S
C642 C639 1.363 . S
C642 N640 1.356 . S
C643 C637 1.363 . S
C643 C638 1.379 . S
C643 N641 1.356 . S
N644 C636 1.356 . S
N644 H650 0.984 . S
N644 H651 0.984 . S
N645 C638 1.356 . S
N645 H648 0.984 . S
N645 H649 0.985 . S
H646 N641 0.984 . S
H647 N641 0.985 . S
H648 N645 0.984 . S
H649 N645 0.985 . S
H650 N644 0.984 . S
H651 N644 0.984 . S
H652 N640 0.984 . S
H653 N640 0.985 . S
C654 C655 1.363 . S
C654 C660 1.379 . S
C654 N662 1.356 . S
C655 C654 1.363 . S
C655 C661 1.363 . S
C656 C657 1.363 . S
C656 C661 1.379 . S
C656 N663 1.356 . S
C657 C656 1.363 . S
C657 C660 1.363 . S
N658 C660 1.356 . S
N658 H670 0.984 . S
N658 H671 0.985 . S
N659 C661 1.356 . S
N659 H664 0.984 . S
N659 H665 0.985 . S
C660 C654 1.379 . S
C660 C657 1.363 . S
C660 N658 1.356 . S
C661 C655 1.363 . S
C661 C656 1.379 . S
C661 N659 1.356 . S
N662 C654 1.356 . S
N662 H668 0.984 . S
N662 H669 0.984 . S
N663 C656 1.356 . S
N663 H666 0.984 . S
N663 H667 0.985 . S
H664 N659 0.984 . S
H665 N659 0.985 . S
H666 N663 0.984 . S
H667 N663 0.985 . S
H668 N662 0.984 . S
H669 N662 0.984 . S
H670 N658 0.984 . S
H671 N658 0.985 . S
C672 C673 1.363 . S
C672 C678 1.379 . S
C672 N680 1.356 . S
C673 C672 1.363 . S
C673 C679 1.363 . S
C674 C675 1.363 . S
C674 C679 1.379 . S
C674 N681 1.356 . S
C675 C674 1.363 . S
C675 C678 1.363 . S
N676 C678 1.356 . S
N676 H688 0.984 . S
N676 H689 0.985 . S
N677 C679 1.356 1_556 S
N677 H682 0.984 . S
N677 H683 0.985 . S
C678 C672 1.379 . S
C678 C675 1.363 . S
C678 N676 1.356 . S
C679 C673 1.363 . S
C679 C674 1.379 . S
C679 N677 1.356 1_554 S
N680 C672 1.356 . S
N680 H686 0.984 . S
N680 H687 0.984 . S
N681 C674 1.356 . S
N681 H684 0.984 . S
N681 H685 0.985 . S
H682 N677 0.984 . S
H683 N677 0.985 . S
H684 N681 0.984 . S
H685 N681 0.985 . S
H686 N680 0.984 . S
H687 N680 0.984 . S
H688 N676 0.984 . S
H689 N676 0.985 . S
C690 C691 1.363 1_554 S
C690 C696 1.379 . S
C690 N698 1.356 . S
C691 C690 1.363 1_556 S
C691 C697 1.363 . S
C692 C693 1.363 . S
C692 C697 1.379 . S
C692 N699 1.356 . S
C693 C692 1.363 . S
C693 C696 1.363 1_556 S
N694 C696 1.356 . S
N694 H706 0.984 . S
N694 H707 0.985 . S
N695 C697 1.356 . S
N695 H700 0.984 . S
N695 H701 0.985 . S
C696 C690 1.379 . S
C696 C693 1.363 1_554 S
C696 N694 1.356 . S
C697 C691 1.363 . S
C697 C692 1.379 . S
C697 N695 1.356 . S
N698 C690 1.356 . S
N698 H704 0.984 . S
N698 H705 0.984 . S
N699 C692 1.356 . S
N699 H702 0.984 . S
N699 H703 0.985 . S
H700 N695 0.984 . S
H701 N695 0.985 . S
H702 N699 0.984 . S
H703 N699 0.985 . S
H704 N698 0.984 . S
H705 N698 0.984 . S
H706 N694 0.984 . S
H707 N694 0.985 . S
C708 C709 1.363 . S
C708 C714 1.379 . S
C708 N716 1.356 . S
C709 C708 1.363 . S
C709 C715 1.363 . S
C710 C711 1.363 . S
C710 C715 1.379 . S
C710 N717 1.356 . S
C711 C710 1.363 . S
C711 C714 1.363 . S
N712 C714 1.356 . S
N712 H724 0.984 . S
N712 H725 0.985 . S
N713 C715 1.356 . S
N713 H718 0.984 . S
N713 H719 0.985 . S
C714 C708 1.379 . S
C714 C711 1.363 . S
C714 N712 1.356 . S
C715 C709 1.363 . S
C715 C710 1.379 . S
C715 N713 1.356 . S
N716 C708 1.356 . S
N716 H722 0.984 . S
N716 H723 0.984 . S
N717 C710 1.356 . S
N717 H720 0.984 . S
N717 H721 0.985 . S
H718 N713 0.984 . S
H719 N713 0.985 . S
H720 N717 0.984 . S
H721 N717 0.985 . S
H722 N716 0.984 . S
H723 N716 0.984 . S
H724 N712 0.984 . S
H725 N712 0.985 . S
C726 C727 1.363 . S
C726 C732 1.379 . S
C726 N734 1.356 . S
C727 C726 1.363 . S
C727 C733 1.363 . S
C728 C729 1.363 . S
C728 C733 1.379 . S
C728 N735 1.356 . S
C729 C728 1.363 . S
C729 C732 1.363 . S
N730 C732 1.356 . S
N730 H742 0.984 . S
N730 H743 0.985 . S
N731 C733 1.356 . S
N731 H736 0.984 . S
N731 H737 0.985 . S
C732 C726 1.379 . S
C732 C729 1.363 . S
C732 N730 1.356 . S
C733 C727 1.363 . S
C733 C728 1.379 . S
C733 N731 1.356 . S
N734 C726 1.356 . S
N734 H740 0.984 . S
N734 H741 0.984 . S
N735 C728 1.356 . S
N735 H738 0.984 . S
N735 H739 0.985 . S
H736 N731 0.984 . S
H737 N731 0.985 . S
H738 N735 0.984 . S
H739 N735 0.985 . S
H740 N734 0.984 . S
H741 N734 0.984 . S
H742 N730 0.984 . S
H743 N730 0.985 . S
C744 C745 1.363 . S
C744 C750 1.379 . S
C744 N752 1.356 . S
C745 C744 1.363 . S
C745 C751 1.363 . S
C746 C747 1.363 . S
C746 C751 1.379 . S
C746 N753 1.356 1_655 S
C747 C746 1.363 . S
C747 C750 1.363 . S
N748 C750 1.356 . S
N748 H760 0.984 . S
N748 H761 0.985 . S
N749 C751 1.356 . S
N749 H754 0.984 . S
N749 H755 0.975 1_655 S
C750 C744 1.379 . S
C750 C747 1.363 . S
C750 N748 1.356 . S
C751 C745 1.363 . S
C751 C746 1.379 . S
C751 N749 1.356 . S
N752 C744 1.356 . S
N752 H758 0.984 . S
N752 H759 0.984 . S
N753 C746 1.356 1_455 S
N753 H756 0.984 . S
N753 H757 0.985 . S
H754 N749 0.984 . S
H755 N749 0.975 1_455 S
H756 N753 0.984 . S
H757 N753 0.985 . S
H758 N752 0.984 . S
H759 N752 0.984 . S
H760 N748 0.984 . S
H761 N748 0.985 . S
C762 C763 1.363 . S
C762 C768 1.379 . S
C762 N770 1.356 . S
C763 C762 1.363 . S
C763 C769 1.363 . S
C764 C765 1.363 . S
C764 C769 1.379 . S
C764 N771 1.356 . S
C765 C764 1.363 . S
C765 C768 1.363 . S
N766 C768 1.356 . S
N766 H778 0.984 . S
N766 H779 0.985 . S
N767 C769 1.356 . S
N767 H772 0.984 . S
N767 H773 0.985 . S
C768 C762 1.379 . S
C768 C765 1.363 . S
C768 N766 1.356 . S
C769 C763 1.363 . S
C769 C764 1.379 . S
C769 N767 1.356 . S
N770 C762 1.356 . S
N770 H776 0.984 . S
N770 H777 0.984 . S
N771 C764 1.356 . S
N771 H774 0.984 . S
N771 H775 0.985 . S
H772 N767 0.984 . S
H773 N767 0.985 . S
H774 N771 0.984 . S
H775 N771 0.985 . S
H776 N770 0.984 . S
H777 N770 0.984 . S
H778 N766 0.984 . S
H779 N766 0.985 . S
C780 C781 1.363 . S
C780 C786 1.379 . S
C780 N788 1.356 . S
C781 C780 1.363 . S
C781 C787 1.363 . S
C782 C783 1.363 . S
C782 C787 1.379 . S
C782 N789 1.356 . S
C783 C782 1.363 . S
C783 C786 1.363 . S
N784 C786 1.356 . S
N784 H796 0.984 . S
N784 H797 0.985 . S
N785 C787 1.356 . S
N785 H790 0.984 . S
N785 H791 0.985 . S
C786 C780 1.379 . S
C786 C783 1.363 . S
C786 N784 1.356 . S
C787 C781 1.363 . S
C787 C782 1.379 . S
C787 N785 1.356 . S
N788 C780 1.356 . S
N788 H794 0.984 . S
N788 H795 0.984 . S
N789 C782 1.356 . S
N789 H792 0.984 . S
N789 H793 0.985 . S
H790 N785 0.984 . S
H791 N785 0.985 . S
H792 N789 0.984 . S
H793 N789 0.985 . S
H794 N788 0.984 . S
H795 N788 0.984 . S
H796 N784 0.984 . S
H797 N784 0.985 . S
C798 C799 1.363 . S
C798 C804 1.379 . S
C798 N806 1.356 . S
C799 C798 1.363 . S
C799 C805 1.363 1_455 S
C800 C801 1.363 1_655 S
C800 C805 1.379 . S
C800 N807 1.356 . S
C801 C800 1.363 1_455 S
C801 C804 1.363 . S
N802 C804 1.356 . S
N802 H814 0.984 . S
N802 H815 0.985 . S
N803 C805 1.356 . S
N803 H808 0.984 . S
N803 H809 0.985 . S
C804 C798 1.379 . S
C804 C801 1.363 . S
C804 N802 1.356 . S
C805 C799 1.363 1_655 S
C805 C800 1.379 . S
C805 N803 1.356 . S
N806 C798 1.356 . S
N806 H812 0.984 . S
N806 H813 0.984 . S
N807 C800 1.356 . S
N807 H810 0.984 . S
N807 H811 0.985 . S
H808 N803 0.984 . S
H809 N803 0.985 . S
H810 N807 0.984 . S
H811 N807 0.985 . S
H812 N806 0.984 . S
H813 N806 0.984 . S
H814 N802 0.984 . S
H815 N802 0.985 . S
C816 C817 1.363 1_545 S
C816 C822 1.381 . S
C816 N824 1.356 . S
C817 C816 1.363 1_565 S
C817 C823 1.363 . S
C818 C819 1.363 . S
C818 C823 1.379 . S
C818 N825 1.356 . S
C819 C818 1.363 . S
C819 C822 1.357 1_565 S
N820 C822 1.359 . S
N820 H832 0.984 . S
N820 H833 0.990 . S
N821 C823 1.356 . S
N821 H826 0.984 . S
N821 H827 0.985 . S
C822 C816 1.381 . S
C822 C819 1.357 1_545 S
C822 N820 1.359 . S
C823 C817 1.363 . S
C823 C818 1.379 . S
C823 N821 1.356 . S
N824 C816 1.356 . S
N824 H830 0.984 . S
N824 H831 0.984 . S
N825 C818 1.356 . S
N825 H828 0.984 . S
N825 H829 0.985 . S
H826 N821 0.984 . S
H827 N821 0.985 . S
H828 N825 0.984 . S
H829 N825 0.985 . S
H830 N824 0.984 . S
H831 N824 0.984 . S
H832 N820 0.984 . S
H833 N820 0.990 . S
C834 C835 1.363 1_565 S
C834 C840 1.379 . S
C834 N842 1.356 . S
C835 C834 1.363 1_545 S
C835 C841 1.363 . S
C836 C837 1.363 . S
C836 C841 1.379 . S
C836 N843 1.356 . S
C837 C836 1.363 . S
C837 C840 1.363 1_545 S
N838 C840 1.356 . S
N838 H850 0.984 . S
N838 H851 0.985 . S
N839 C841 1.356 . S
N839 H844 0.984 . S
N839 H845 0.985 . S
C840 C834 1.379 . S
C840 C837 1.363 1_565 S
C840 N838 1.356 . S
C841 C835 1.363 . S
C841 C836 1.379 . S
C841 N839 1.356 . S
N842 C834 1.356 . S
N842 H848 0.984 . S
N842 H849 0.984 . S
N843 C836 1.356 . S
N843 H846 0.984 . S
N843 H847 0.985 . S
H844 N839 0.984 . S
H845 N839 0.985 . S
H846 N843 0.984 . S
H847 N843 0.985 . S
H848 N842 0.984 . S
H849 N842 0.984 . S
H850 N838 0.984 . S
H851 N838 0.985 . S
C852 C853 1.363 . S
C852 C858 1.379 . S
C852 N860 1.356 . S
C853 C852 1.363 . S
C853 C859 1.363 . S
C854 C855 1.363 . S
C854 C859 1.379 . S
C854 N861 1.356 . S
C855 C854 1.363 . S
C855 C858 1.363 . S
N856 C858 1.356 . S
N856 H868 0.984 . S
N856 H869 0.985 . S
N857 C859 1.356 . S
N857 H862 0.984 . S
N857 H863 0.985 . S
C858 C852 1.379 . S
C858 C855 1.363 . S
C858 N856 1.356 . S
C859 C853 1.363 . S
C859 C854 1.379 . S
C859 N857 1.356 . S
N860 C852 1.356 . S
N860 H866 0.984 . S
N860 H867 0.984 . S
N861 C854 1.356 . S
N861 H864 0.984 . S
N861 H865 0.985 . S
H862 N857 0.984 . S
H863 N857 0.985 . S
H864 N861 0.984 . S
H865 N861 0.985 . S
H866 N860 0.984 . S
H867 N860 0.984 . S
H868 N856 0.984 . S
H869 N856 0.985 . S
C870 C871 1.363 . S
C870 C876 1.379 . S
C870 N878 1.356 . S
C871 C870 1.363 . S
C871 C877 1.363 . S
C872 C873 1.363 . S
C872 C877 1.379 . S
C872 N879 1.356 . S
C873 C872 1.363 . S
C873 C876 1.363 . S
N874 C876 1.356 . S
N874 H886 0.984 . S
N874 H887 0.985 . S
N875 C877 1.356 . S
N875 H880 0.984 . S
N875 H881 0.985 . S
C876 C870 1.379 . S
C876 C873 1.363 . S
C876 N874 1.356 . S
C877 C871 1.363 . S
C877 C872 1.379 . S
C877 N875 1.356 . S
N878 C870 1.356 . S
N878 H884 0.984 . S
N878 H885 0.984 . S
N879 C872 1.356 . S
N879 H882 0.984 . S
N879 H883 0.985 . S
H880 N875 0.984 . S
H881 N875 0.985 . S
H882 N879 0.984 . S
H883 N879 0.985 . S
H884 N878 0.984 . S
H885 N878 0.984 . S
H886 N874 0.984 . S
H887 N874 0.985 . S
C888 C889 1.363 . S
C888 C894 1.379 . S
C888 N896 1.356 1_556 S
C889 C888 1.363 . S
C889 C895 1.363 . S
C890 C891 1.363 . S
C890 C895 1.379 . S
C890 N897 1.356 . S
C891 C890 1.363 . S
C891 C894 1.363 . S
N892 C894 1.356 . S
N892 H904 0.984 . S
N892 H905 0.985 . S
N893 C895 1.356 . S
N893 H898 0.984 . S
N893 H899 0.985 . S
C894 C888 1.379 . S
C894 C891 1.363 . S
C894 N892 1.356 . S
C895 C889 1.363 . S
C895 C890 1.379 . S
C895 N893 1.356 . S
N896 C888 1.356 1_554 S
N896 H902 0.984 . S
N896 H903 0.984 . S
N897 C890 1.356 . S
N897 H900 0.984 . S
N897 H901 0.985 . S
H898 N893 0.984 . S
H899 N893 0.985 . S
H900 N897 0.984 . S
H901 N897 0.985 . S
H902 N896 0.984 . S
H903 N896 0.984 . S
H904 N892 0.984 . S
H905 N892 0.985 . S
C906 C907 1.363 1_556 S
C906 C912 1.379 . S
C906 N914 1.356 . S
C907 C906 1.363 1_554 S
C907 C913 1.363 . S
C908 C909 1.363 . S
C908 C913 1.379 . S
C908 N915 1.356 . S
C909 C908 1.363 . S
C909 C912 1.363 1_554 S
N910 C912 1.356 . S
N910 H922 0.984 . S
N910 H923 0.985 . S
N911 C913 1.356 . S
N911 H916 0.984 . S
N911 H917 0.985 . S
C912 C906 1.379 . S
C912 C909 1.363 1_556 S
C912 N910 1.356 . S
C913 C907 1.363 . S
C913 C908 1.379 . S
C913 N911 1.356 . S
N914 C906 1.356 . S
N914 H920 0.984 . S
N914 H921 0.984 . S
N915 C908 1.356 . S
N915 H918 0.984 . S
N915 H919 0.985 . S
H916 N911 0.984 . S
H917 N911 0.985 . S
H918 N915 0.984 . S
H919 N915 0.985 . S
H920 N914 0.984 . S
H921 N914 0.984 . S
H922 N910 0.984 . S
H923 N910 0.985 . S
C924 C925 1.363 . S
C924 C930 1.379 . S
C924 N932 1.356 . S
C925 C924 1.363 . S
C925 C931 1.363 . S
C926 C927 1.363 . S
C926 C931 1.379 . S
C926 N933 1.356 . S
C927 C926 1.363 . S
C927 C930 1.363 . S
N928 C930 1.356 . S
N928 H940 0.984 . S
N928 H941 0.985 . S
N929 C931 1.356 . S
N929 H934 0.984 . S
N929 H935 0.985 . S
C930 C924 1.379 . S
C930 C927 1.363 . S
C930 N928 1.356 . S
C931 C925 1.363 . S
C931 C926 1.379 . S
C931 N929 1.356 . S
N932 C924 1.356 . S
N932 H938 0.984 . S
N932 H939 0.984 . S
N933 C926 1.356 . S
N933 H936 0.984 . S
N933 H937 0.985 . S
H934 N929 0.984 . S
H935 N929 0.985 . S
H936 N933 0.984 . S
H937 N933 0.985 . S
H938 N932 0.984 . S
H939 N932 0.984 . S
H940 N928 0.984 . S
H941 N928 0.985 . S
C942 C943 1.363 . S
C942 C948 1.379 . S
C942 N950 1.356 . S
C943 C942 1.363 . S
C943 C949 1.363 . S
C944 C945 1.363 . S
C944 C949 1.379 . S
C944 N951 1.356 . S
C945 C944 1.363 . S
C945 C948 1.363 . S
N946 C948 1.356 . S
N946 H958 0.984 . S
N946 H959 0.985 . S
N947 C949 1.356 . S
N947 H952 0.984 . S
N947 H953 0.985 . S
C948 C942 1.379 . S
C948 C945 1.363 . S
C948 N946 1.356 . S
C949 C943 1.363 . S
C949 C944 1.379 . S
C949 N947 1.356 . S
N950 C942 1.356 . S
N950 H956 0.984 . S
N950 H957 0.984 . S
N951 C944 1.356 . S
N951 H954 0.984 . S
N951 H955 0.985 . S
H952 N947 0.984 . S
H953 N947 0.985 . S
H954 N951 0.984 . S
H955 N951 0.985 . S
H956 N950 0.984 . S
H957 N950 0.984 . S
H958 N946 0.984 . S
H959 N946 0.985 . S
C960 C961 1.363 . S
C960 C966 1.379 . S
C960 N968 1.356 . S
C961 C960 1.363 . S
C961 C967 1.363 1_556 S
C962 C963 1.363 . S
C962 C967 1.379 . S
C962 N969 1.356 . S
C963 C962 1.363 . S
C963 C966 1.363 1_554 S
N964 C966 1.356 . S
N964 H976 0.984 . S
N964 H977 0.985 . S
N965 C967 1.356 . S
N965 H970 0.984 . S
N965 H971 0.985 . S
C966 C960 1.379 . S
C966 C963 1.363 1_556 S
C966 N964 1.356 . S
C967 C961 1.363 1_554 S
C967 C962 1.379 . S
C967 N965 1.356 . S
N968 C960 1.356 . S
N968 H974 0.984 . S
N968 H975 0.984 . S
N969 C962 1.356 . S
N969 H972 0.984 . S
N969 H973 0.985 . S
H970 N965 0.984 . S
H971 N965 0.985 . S
H972 N969 0.984 . S
H973 N969 0.985 . S
H974 N968 0.984 . S
H975 N968 0.984 . S
H976 N964 0.984 . S
H977 N964 0.985 . S
C978 C979 1.363 . S
C978 C984 1.379 . S
C978 N986 1.356 . S
C979 C978 1.363 . S
C979 C985 1.363 . S
C980 C981 1.363 . S
C980 C985 1.379 . S
C980 N987 1.356 . S
C981 C980 1.363 . S
C981 C984 1.363 . S
N982 C984 1.356 . S
N982 H994 0.984 . S
N982 H995 0.985 . S
N983 C985 1.356 . S
N983 H988 0.984 . S
N983 H989 0.985 . S
C984 C978 1.379 . S
C984 C981 1.363 . S
C984 N982 1.356 . S
C985 C979 1.363 . S
C985 C980 1.379 . S
C985 N983 1.356 . S
N986 C978 1.356 . S
N986 H992 0.984 . S
N986 H993 0.984 . S
N987 C980 1.356 . S
N987 H990 0.984 . S
N987 H991 0.985 . S
H988 N983 0.984 . S
H989 N983 0.985 . S
H990 N987 0.984 . S
H991 N987 0.985 . S
H992 N986 0.984 . S
H993 N986 0.984 . S
H994 N982 0.984 . S
H995 N982 0.985 . S
C996 C997 1.363 . S
C996 C1002 1.379 1_554 S
C996 N1004 1.356 . S
C997 C996 1.363 . S
C997 C1003 1.363 1_554 S
C998 C999 1.363 . S
C998 C1003 1.379 . S
C998 N1005 1.356 . S
C999 C998 1.363 . S
C999 C1002 1.363 . S
N1000 C1002 1.356 . S
N1000 H1012 0.984 1_556 S
N1000 H1013 0.985 . S
N1001 C1003 1.356 1_554 S
N1001 H1006 0.984 . S
N1001 H1007 0.985 1_554 S
C1002 C996 1.379 1_556 S
C1002 C999 1.363 . S
C1002 N1000 1.356 . S
C1003 C997 1.363 1_556 S
C1003 C998 1.379 . S
C1003 N1001 1.356 1_556 S
N1004 C996 1.356 . S
N1004 H1010 0.984 . S
N1004 H1011 0.984 . S
N1005 C998 1.356 . S
N1005 H1008 0.984 . S
N1005 H1009 0.985 . S
H1006 N1001 0.984 . S
H1007 N1001 0.985 1_556 S
H1008 N1005 0.984 . S
H1009 N1005 0.985 . S
H1010 N1004 0.984 . S
H1011 N1004 0.984 . S
H1012 N1000 0.984 1_554 S
H1013 N1000 0.985 . S
C1014 C1015 1.363 . S
C1014 C1020 1.379 . S
C1014 N1022 1.356 . S
C1015 C1014 1.363 . S
C1015 C1021 1.363 . S
C1016 C1017 1.363 . S
C1016 C1021 1.379 . S
C1016 N1023 1.356 . S
C1017 C1016 1.363 . S
C1017 C1020 1.363 . S
N1018 C1020 1.356 . S
N1018 H1030 0.984 . S
N1018 H1031 0.985 . S
N1019 C1021 1.356 . S
N1019 H1024 0.984 . S
N1019 H1025 0.985 . S
C1020 C1014 1.379 . S
C1020 C1017 1.363 . S
C1020 N1018 1.356 . S
C1021 C1015 1.363 . S
C1021 C1016 1.379 . S
C1021 N1019 1.356 . S
N1022 C1014 1.356 . S
N1022 H1028 0.984 . S
N1022 H1029 0.984 . S
N1023 C1016 1.356 . S
N1023 H1026 0.984 . S
N1023 H1027 0.985 . S
H1024 N1019 0.984 . S
H1025 N1019 0.985 . S
H1026 N1023 0.984 . S
H1027 N1023 0.985 . S
H1028 N1022 0.984 . S
H1029 N1022 0.984 . S
H1030 N1018 0.984 . S
H1031 N1018 0.985 . S
C1032 C1033 1.363 . S
C1032 C1038 1.379 . S
C1032 N1040 1.356 . S
C1033 C1032 1.363 . S
C1033 C1039 1.363 1_455 S
C1034 C1035 1.363 . S
C1034 C1039 1.379 . S
C1034 N1041 1.356 . S
C1035 C1034 1.363 . S
C1035 C1038 1.363 1_655 S
N1036 C1038 1.356 . S
N1036 H1048 0.984 . S
N1036 H1049 0.985 . S
N1037 C1039 1.356 . S
N1037 H1042 0.984 . S
N1037 H1043 0.985 . S
C1038 C1032 1.379 . S
C1038 C1035 1.363 1_455 S
C1038 N1036 1.356 . S
C1039 C1033 1.363 1_655 S
C1039 C1034 1.379 . S
C1039 N1037 1.356 . S
N1040 C1032 1.356 . S
N1040 H1046 0.984 . S
N1040 H1047 0.984 . S
N1041 C1034 1.356 . S
N1041 H1044 0.984 . S
N1041 H1045 0.985 . S
H1042 N1037 0.984 . S
H1043 N1037 0.985 . S
H1044 N1041 0.984 . S
H1045 N1041 0.985 . S
H1046 N1040 0.984 . S
H1047 N1040 0.984 . S
H1048 N1036 0.984 . S
H1049 N1036 0.985 . S
C1050 C1051 1.363 . S
C1050 C1056 1.379 . S
C1050 N1058 1.356 . S
C1051 C1050 1.363 . S
C1051 C1057 1.363 . S
C1052 C1053 1.363 . S
C1052 C1057 1.379 . S
C1052 N1059 1.356 . S
C1053 C1052 1.363 . S
C1053 C1056 1.363 . S
N1054 C1056 1.356 . S
N1054 H1066 0.984 . S
N1054 H1067 0.985 . S
N1055 C1057 1.356 . S
N1055 H1060 0.984 . S
N1055 H1061 0.985 . S
C1056 C1050 1.379 . S
C1056 C1053 1.363 . S
C1056 N1054 1.356 . S
C1057 C1051 1.363 . S
C1057 C1052 1.379 . S
C1057 N1055 1.356 . S
N1058 C1050 1.356 . S
N1058 H1064 0.984 . S
N1058 H1065 0.984 . S
N1059 C1052 1.356 . S
N1059 H1062 0.984 . S
N1059 H1063 0.985 . S
H1060 N1055 0.984 . S
H1061 N1055 0.985 . S
H1062 N1059 0.984 . S
H1063 N1059 0.985 . S
H1064 N1058 0.984 . S
H1065 N1058 0.984 . S
H1066 N1054 0.984 . S
H1067 N1054 0.985 . S
C1068 C1069 1.363 . S
C1068 C1074 1.379 . S
C1068 N1076 1.356 . S
C1069 C1068 1.363 . S
C1069 C1075 1.363 . S
C1070 C1071 1.363 . S
C1070 C1075 1.379 . S
C1070 N1077 1.356 . S
C1071 C1070 1.363 . S
C1071 C1074 1.363 . S
N1072 C1074 1.356 . S
N1072 H1084 0.984 . S
N1072 H1085 0.985 . S
N1073 C1075 1.356 . S
N1073 H1078 0.984 . S
N1073 H1079 0.985 . S
C1074 C1068 1.379 . S
C1074 C1071 1.363 . S
C1074 N1072 1.356 . S
C1075 C1069 1.363 . S
C1075 C1070 1.379 . S
C1075 N1073 1.356 . S
N1076 C1068 1.356 . S
N1076 H1082 0.984 . S
N1076 H1083 0.984 . S
N1077 C1070 1.356 . S
N1077 H1080 0.984 . S
N1077 H1081 0.985 . S
H1078 N1073 0.984 . S
H1079 N1073 0.985 . S
H1080 N1077 0.984 . S
H1081 N1077 0.985 . S
H1082 N1076 0.984 . S
H1083 N1076 0.984 . S
H1084 N1072 0.984 . S
H1085 N1072 0.985 . S
C1086 C1087 1.359 1_655 S
C1086 C1092 1.383 . S
C1086 N1094 1.354 1_655 S
C1087 C1086 1.359 1_455 S
C1087 C1093 1.363 . S
C1088 C1089 1.363 . S
C1088 C1093 1.379 1_655 S
C1088 N1095 1.356 . S
C1089 C1088 1.363 . S
C1089 C1092 1.363 . S
N1090 C1092 1.356 . S
N1090 H1102 0.984 . S
N1090 H1103 0.985 . S
N1091 C1093 1.356 . S
N1091 H1096 0.984 . S
N1091 H1097 0.985 . S
C1092 C1086 1.383 . S
C1092 C1089 1.363 . S
C1092 N1090 1.356 . S
C1093 C1087 1.363 . S
C1093 C1088 1.379 1_455 S
C1093 N1091 1.356 . S
N1094 C1086 1.354 1_455 S
N1094 H1100 0.984 1_455 S
N1094 H1101 0.984 . S
N1095 C1088 1.356 . S
N1095 H1098 0.984 . S
N1095 H1099 0.985 . S
H1096 N1091 0.984 . S
H1097 N1091 0.985 . S
H1098 N1095 0.984 . S
H1099 N1095 0.985 . S
H1100 N1094 0.984 1_655 S
H1101 N1094 0.984 . S
H1102 N1090 0.984 . S
H1103 N1090 0.985 . S
C1104 C1105 1.363 . S
C1104 C1110 1.379 . S
C1104 N1112 1.356 . S
C1105 C1104 1.363 . S
C1105 C1111 1.363 1_565 S
C1106 C1107 1.363 . S
C1106 C1111 1.379 . S
C1106 N1113 1.356 . S
C1107 C1106 1.363 . S
C1107 C1110 1.363 1_545 S
N1108 C1110 1.356 . S
N1108 H1120 0.984 . S
N1108 H1121 0.985 . S
N1109 C1111 1.356 . S
N1109 H1114 0.984 . S
N1109 H1115 0.985 . S
C1110 C1104 1.379 . S
C1110 C1107 1.363 1_565 S
C1110 N1108 1.356 . S
C1111 C1105 1.363 1_545 S
C1111 C1106 1.379 . S
C1111 N1109 1.356 . S
N1112 C1104 1.356 . S
N1112 H1118 0.984 . S
N1112 H1119 0.984 . S
N1113 C1106 1.356 . S
N1113 H1116 0.984 . S
N1113 H1117 0.985 . S
H1114 N1109 0.984 . S
H1115 N1109 0.985 . S
H1116 N1113 0.984 . S
H1117 N1113 0.985 . S
H1118 N1112 0.984 . S
H1119 N1112 0.984 . S
H1120 N1108 0.984 . S
H1121 N1108 0.985 . S
C1122 C1123 1.363 . S
C1122 C1128 1.379 . S
C1122 N1130 1.356 . S
C1123 C1122 1.363 . S
C1123 C1129 1.363 . S
C1124 C1125 1.363 . S
C1124 C1129 1.379 . S
C1124 N1131 1.356 . S
C1125 C1124 1.363 . S
C1125 C1128 1.363 . S
N1126 C1128 1.356 . S
N1126 H1138 0.984 . S
N1126 H1139 0.985 . S
N1127 C1129 1.356 . S
N1127 H1132 0.984 . S
N1127 H1133 0.985 . S
C1128 C1122 1.379 . S
C1128 C1125 1.363 . S
C1128 N1126 1.356 . S
C1129 C1123 1.363 . S
C1129 C1124 1.379 . S
C1129 N1127 1.356 . S
N1130 C1122 1.356 . S
N1130 H1136 0.984 . S
N1130 H1137 0.984 . S
N1131 C1124 1.356 . S
N1131 H1134 0.984 . S
N1131 H1135 0.985 . S
H1132 N1127 0.984 . S
H1133 N1127 0.985 . S
H1134 N1131 0.984 . S
H1135 N1131 0.985 . S
H1136 N1130 0.984 . S
H1137 N1130 0.984 . S
H1138 N1126 0.984 . S
H1139 N1126 0.985 . S
C1140 C1141 1.363 . S
C1140 C1146 1.379 . S
C1140 N1148 1.356 . S
C1141 C1140 1.363 . S
C1141 C1147 1.363 . S
C1142 C1143 1.363 . S
C1142 C1147 1.379 . S
C1142 N1149 1.356 . S
C1143 C1142 1.363 . S
C1143 C1146 1.363 . S
N1144 C1146 1.356 . S
N1144 H1156 0.984 . S
N1144 H1157 0.985 . S
N1145 C1147 1.356 . S
N1145 H1150 0.984 . S
N1145 H1151 0.985 . S
C1146 C1140 1.379 . S
C1146 C1143 1.363 . S
C1146 N1144 1.356 . S
C1147 C1141 1.363 . S
C1147 C1142 1.379 . S
C1147 N1145 1.356 . S
N1148 C1140 1.356 . S
N1148 H1154 0.984 . S
N1148 H1155 0.984 . S
N1149 C1142 1.356 . S
N1149 H1152 0.984 . S
N1149 H1153 0.985 . S
H1150 N1145 0.984 . S
H1151 N1145 0.985 . S
H1152 N1149 0.984 . S
H1153 N1149 0.985 . S
H1154 N1148 0.984 . S
H1155 N1148 0.984 . S
H1156 N1144 0.984 . S
H1157 N1144 0.985 . S
C1158 C1159 1.363 1_565 S
C1158 C1164 1.379 . S
C1158 N1166 1.356 . S
C1159 C1158 1.363 1_545 S
C1159 C1165 1.363 . S
C1160 C1161 1.363 1_545 S
C1160 C1165 1.379 . S
C1160 N1167 1.356 . S
C1161 C1160 1.363 1_565 S
C1161 C1164 1.363 . S
N1162 C1164 1.356 . S
N1162 H1174 0.984 . S
N1162 H1175 0.985 . S
N1163 C1165 1.356 . S
N1163 H1168 0.984 . S
N1163 H1169 0.985 . S
C1164 C1158 1.379 . S
C1164 C1161 1.363 . S
C1164 N1162 1.356 . S
C1165 C1159 1.363 . S
C1165 C1160 1.379 . S
C1165 N1163 1.356 . S
N1166 C1158 1.356 . S
N1166 H1172 0.984 . S
N1166 H1173 0.984 . S
N1167 C1160 1.356 . S
N1167 H1170 0.984 . S
N1167 H1171 0.985 . S
H1168 N1163 0.984 . S
H1169 N1163 0.985 . S
H1170 N1167 0.984 . S
H1171 N1167 0.985 . S
H1172 N1166 0.984 . S
H1173 N1166 0.984 . S
H1174 N1162 0.984 . S
H1175 N1162 0.985 . S
C1176 C1177 1.363 . S
C1176 C1182 1.379 . S
C1176 N1184 1.356 . S
C1177 C1176 1.363 . S
C1177 C1183 1.363 1_554 S
C1178 C1179 1.363 . S
C1178 C1183 1.379 . S
C1178 N1185 1.356 . S
C1179 C1178 1.363 . S
C1179 C1182 1.363 1_556 S
N1180 C1182 1.356 . S
N1180 H1192 0.984 . S
N1180 H1193 0.985 . S
N1181 C1183 1.356 . S
N1181 H1186 0.984 . S
N1181 H1187 0.985 . S
C1182 C1176 1.379 . S
C1182 C1179 1.363 1_554 S
C1182 N1180 1.356 . S
C1183 C1177 1.363 1_556 S
C1183 C1178 1.379 . S
C1183 N1181 1.356 . S
N1184 C1176 1.356 . S
N1184 H1190 0.984 . S
N1184 H1191 0.984 . S
N1185 C1178 1.356 . S
N1185 H1188 0.984 . S
N1185 H1189 0.985 . S
H1186 N1181 0.984 . S
H1187 N1181 0.985 . S
H1188 N1185 0.984 . S
H1189 N1185 0.985 . S
H1190 N1184 0.984 . S
H1191 N1184 0.984 . S
H1192 N1180 0.984 . S
H1193 N1180 0.985 . S
C1194 C1195 1.363 . S
C1194 C1200 1.379 . S
C1194 N1202 1.356 . S
C1195 C1194 1.363 . S
C1195 C1201 1.363 . S
C1196 C1197 1.363 . S
C1196 C1201 1.379 . S
C1196 N1203 1.356 . S
C1197 C1196 1.363 . S
C1197 C1200 1.363 . S
N1198 C1200 1.356 . S
N1198 H1210 0.984 . S
N1198 H1211 0.985 . S
N1199 C1201 1.356 . S
N1199 H1204 0.984 . S
N1199 H1205 0.985 . S
C1200 C1194 1.379 . S
C1200 C1197 1.363 . S
C1200 N1198 1.356 . S
C1201 C1195 1.363 . S
C1201 C1196 1.379 . S
C1201 N1199 1.356 . S
N1202 C1194 1.356 . S
N1202 H1208 0.984 . S
N1202 H1209 0.984 . S
N1203 C1196 1.356 . S
N1203 H1206 0.984 . S
N1203 H1207 0.985 . S
H1204 N1199 0.984 . S
H1205 N1199 0.985 . S
H1206 N1203 0.984 . S
H1207 N1203 0.985 . S
H1208 N1202 0.984 . S
H1209 N1202 0.984 . S
H1210 N1198 0.984 . S
H1211 N1198 0.985 . S
C1212 C1213 1.363 . S
C1212 C1218 1.379 . S
C1212 N1220 1.356 . S
C1213 C1212 1.363 . S
C1213 C1219 1.363 1_554 S
C1214 C1215 1.363 . S
C1214 C1219 1.379 . S
C1214 N1221 1.356 . S
C1215 C1214 1.363 . S
C1215 C1218 1.363 1_556 S
N1216 C1218 1.356 . S
N1216 H1228 0.984 . S
N1216 H1229 0.985 . S
N1217 C1219 1.356 . S
N1217 H1222 0.984 . S
N1217 H1223 0.985 . S
C1218 C1212 1.379 . S
C1218 C1215 1.363 1_554 S
C1218 N1216 1.356 . S
C1219 C1213 1.363 1_556 S
C1219 C1214 1.379 . S
C1219 N1217 1.356 . S
N1220 C1212 1.356 . S
N1220 H1226 0.984 . S
N1220 H1227 0.984 . S
N1221 C1214 1.356 . S
N1221 H1224 0.984 . S
N1221 H1225 0.985 . S
H1222 N1217 0.984 . S
H1223 N1217 0.985 . S
H1224 N1221 0.984 . S
H1225 N1221 0.985 . S
H1226 N1220 0.984 . S
H1227 N1220 0.984 . S
H1228 N1216 0.984 . S
H1229 N1216 0.985 . S
C1230 C1231 1.363 . S
C1230 C1236 1.379 . S
C1230 N1238 1.356 . S
C1231 C1230 1.363 . S
C1231 C1237 1.363 . S
C1232 C1233 1.363 . S
C1232 C1237 1.379 . S
C1232 N1239 1.356 . S
C1233 C1232 1.363 . S
C1233 C1236 1.363 . S
N1234 C1236 1.356 . S
N1234 H1246 0.984 . S
N1234 H1247 0.985 . S
N1235 C1237 1.356 . S
N1235 H1240 0.984 . S
N1235 H1241 0.985 . S
C1236 C1230 1.379 . S
C1236 C1233 1.363 . S
C1236 N1234 1.356 . S
C1237 C1231 1.363 . S
C1237 C1232 1.379 . S
C1237 N1235 1.356 . S
N1238 C1230 1.356 . S
N1238 H1244 0.984 . S
N1238 H1245 0.984 . S
N1239 C1232 1.356 . S
N1239 H1242 0.984 . S
N1239 H1243 0.985 . S
H1240 N1235 0.984 . S
H1241 N1235 0.985 . S
H1242 N1239 0.984 . S
H1243 N1239 0.985 . S
H1244 N1238 0.984 . S
H1245 N1238 0.984 . S
H1246 N1234 0.984 . S
H1247 N1234 0.985 . S
C1248 C1249 1.363 1_655 S
C1248 C1254 1.379 . S
C1248 N1256 1.356 . S
C1249 C1248 1.363 1_455 S
C1249 C1255 1.363 . S
C1250 C1251 1.363 1_455 S
C1250 C1255 1.379 . S
C1250 N1257 1.356 . S
C1251 C1250 1.363 1_655 S
C1251 C1254 1.363 . S
N1252 C1254 1.356 . S
N1252 H1264 0.984 . S
N1252 H1265 0.985 . S
N1253 C1255 1.356 . S
N1253 H1258 0.984 . S
N1253 H1259 0.985 . S
C1254 C1248 1.379 . S
C1254 C1251 1.363 . S
C1254 N1252 1.356 . S
C1255 C1249 1.363 . S
C1255 C1250 1.379 . S
C1255 N1253 1.356 . S
N1256 C1248 1.356 . S
N1256 H1262 0.984 . S
N1256 H1263 0.984 . S
N1257 C1250 1.356 . S
N1257 H1260 0.984 1_455 S
N1257 H1261 0.985 . S
H1258 N1253 0.984 . S
H1259 N1253 0.985 . S
H1260 N1257 0.984 1_655 S
H1261 N1257 0.985 . S
H1262 N1256 0.984 . S
H1263 N1256 0.984 . S
H1264 N1252 0.984 . S
H1265 N1252 0.985 . S
C1266 C1267 1.363 . S
C1266 C1272 1.379 . S
C1266 N1274 1.356 . S
C1267 C1266 1.363 . S
C1267 C1273 1.363 . S
C1268 C1269 1.363 . S
C1268 C1273 1.379 . S
C1268 N1275 1.356 . S
C1269 C1268 1.363 . S
C1269 C1272 1.363 . S
N1270 C1272 1.356 . S
N1270 H1282 0.984 . S
N1270 H1283 0.985 . S
N1271 C1273 1.356 . S
N1271 H1276 0.984 . S
N1271 H1277 0.985 . S
C1272 C1266 1.379 . S
C1272 C1269 1.363 . S
C1272 N1270 1.356 . S
C1273 C1267 1.363 . S
C1273 C1268 1.379 . S
C1273 N1271 1.356 . S
N1274 C1266 1.356 . S
N1274 H1280 0.984 . S
N1274 H1281 0.984 . S
N1275 C1268 1.356 . S
N1275 H1278 0.984 . S
N1275 H1279 0.985 . S
H1276 N1271 0.984 . S
H1277 N1271 0.985 . S
H1278 N1275 0.984 . S
H1279 N1275 0.985 . S
H1280 N1274 0.984 . S
H1281 N1274 0.984 . S
H1282 N1270 0.984 . S
H1283 N1270 0.985 . S
C1284 C1285 1.363 . S
C1284 C1290 1.379 . S
C1284 N1292 1.356 . S
C1285 C1284 1.363 . S
C1285 C1291 1.363 . S
C1286 C1287 1.363 . S
C1286 C1291 1.379 . S
C1286 N1293 1.356 . S
C1287 C1286 1.363 . S
C1287 C1290 1.363 . S
N1288 C1290 1.356 . S
N1288 H1300 0.984 . S
N1288 H1301 0.985 . S
N1289 C1291 1.356 . S
N1289 H1294 0.984 . S
N1289 H1295 0.985 . S
C1290 C1284 1.379 . S
C1290 C1287 1.363 . S
C1290 N1288 1.356 . S
C1291 C1285 1.363 . S
C1291 C1286 1.379 . S
C1291 N1289 1.356 . S
N1292 C1284 1.356 . S
N1292 H1298 0.984 . S
N1292 H1299 0.984 . S
N1293 C1286 1.356 . S
N1293 H1296 0.984 . S
N1293 H1297 0.985 . S
H1294 N1289 0.984 . S
H1295 N1289 0.985 . S
H1296 N1293 0.984 . S
H1297 N1293 0.985 . S
H1298 N1292 0.984 . S
H1299 N1292 0.984 . S
H1300 N1288 0.984 . S
H1301 N1288 0.985 . S
C1302 C1303 1.363 1_655 S
C1302 C1308 1.379 . S
C1302 N1310 1.356 . S
C1303 C1302 1.363 1_455 S
C1303 C1309 1.363 . S
C1304 C1305 1.363 1_455 S
C1304 C1309 1.379 . S
C1304 N1311 1.356 . S
C1305 C1304 1.363 1_655 S
C1305 C1308 1.363 . S
N1306 C1308 1.356 . S
N1306 H1318 0.984 . S
N1306 H1319 0.985 . S
N1307 C1309 1.356 . S
N1307 H1312 0.984 . S
N1307 H1313 0.985 . S
C1308 C1302 1.379 . S
C1308 C1305 1.363 . S
C1308 N1306 1.356 . S
C1309 C1303 1.363 . S
C1309 C1304 1.379 . S
C1309 N1307 1.356 . S
N1310 C1302 1.356 . S
N1310 H1316 0.984 . S
N1310 H1317 0.984 . S
N1311 C1304 1.356 . S
N1311 H1314 0.984 . S
N1311 H1315 0.985 . S
H1312 N1307 0.984 . S
H1313 N1307 0.985 . S
H1314 N1311 0.984 . S
H1315 N1311 0.985 . S
H1316 N1310 0.984 . S
H1317 N1310 0.984 . S
H1318 N1306 0.984 . S
H1319 N1306 0.985 . S
C1320 C1321 1.363 . S
C1320 C1326 1.379 . S
C1320 N1328 1.356 . S
C1321 C1320 1.363 . S
C1321 C1327 1.363 1_545 S
C1322 C1323 1.363 . S
C1322 C1327 1.379 . S
C1322 N1329 1.356 . S
C1323 C1322 1.363 . S
C1323 C1326 1.363 1_565 S
N1324 C1326 1.356 . S
N1324 H1336 0.984 . S
N1324 H1337 0.985 . S
N1325 C1327 1.356 . S
N1325 H1330 0.984 . S
N1325 H1331 0.985 . S
C1326 C1320 1.379 . S
C1326 C1323 1.363 1_545 S
C1326 N1324 1.356 . S
C1327 C1321 1.363 1_565 S
C1327 C1322 1.379 . S
C1327 N1325 1.356 . S
N1328 C1320 1.356 . S
N1328 H1334 0.984 . S
N1328 H1335 0.984 . S
N1329 C1322 1.356 . S
N1329 H1332 0.984 . S
N1329 H1333 0.985 . S
H1330 N1325 0.984 . S
H1331 N1325 0.985 . S
H1332 N1329 0.984 . S
H1333 N1329 0.985 . S
H1334 N1328 0.984 . S
H1335 N1328 0.984 . S
H1336 N1324 0.984 . S
H1337 N1324 0.985 . S
C1338 C1339 1.363 . S
C1338 C1344 1.379 . S
C1338 N1346 1.356 . S
C1339 C1338 1.363 . S
C1339 C1345 1.363 . S
C1340 C1341 1.363 . S
C1340 C1345 1.379 . S
C1340 N1347 1.356 . S
C1341 C1340 1.363 . S
C1341 C1344 1.363 . S
N1342 C1344 1.356 . S
N1342 H1354 0.984 . S
N1342 H1355 0.985 . S
N1343 C1345 1.356 . S
N1343 H1348 0.984 . S
N1343 H1349 0.985 . S
C1344 C1338 1.379 . S
C1344 C1341 1.363 . S
C1344 N1342 1.356 . S
C1345 C1339 1.363 . S
C1345 C1340 1.379 . S
C1345 N1343 1.356 . S
N1346 C1338 1.356 . S
N1346 H1352 0.984 . S
N1346 H1353 0.984 . S
N1347 C1340 1.356 . S
N1347 H1350 0.984 . S
N1347 H1351 0.985 . S
H1348 N1343 0.984 . S
H1349 N1343 0.985 . S
H1350 N1347 0.984 . S
H1351 N1347 0.985 . S
H1352 N1346 0.984 . S
H1353 N1346 0.984 . S
H1354 N1342 0.984 . S
H1355 N1342 0.985 . S
C1356 C1357 1.363 . S
C1356 C1362 1.379 . S
C1356 N1364 1.356 . S
C1357 C1356 1.363 . S
C1357 C1363 1.363 . S
C1358 C1359 1.363 . S
C1358 C1363 1.379 . S
C1358 N1365 1.356 . S
C1359 C1358 1.363 . S
C1359 C1362 1.363 . S
N1360 C1362 1.356 . S
N1360 H1372 0.984 . S
N1360 H1373 0.985 . S
N1361 C1363 1.356 . S
N1361 H1366 0.984 . S
N1361 H1367 0.985 . S
C1362 C1356 1.379 . S
C1362 C1359 1.363 . S
C1362 N1360 1.356 . S
C1363 C1357 1.363 . S
C1363 C1358 1.379 . S
C1363 N1361 1.356 . S
N1364 C1356 1.356 . S
N1364 H1370 0.984 . S
N1364 H1371 0.984 . S
N1365 C1358 1.356 . S
N1365 H1368 0.984 . S
N1365 H1369 0.985 . S
H1366 N1361 0.984 . S
H1367 N1361 0.985 . S
H1368 N1365 0.984 . S
H1369 N1365 0.985 . S
H1370 N1364 0.984 . S
H1371 N1364 0.984 . S
H1372 N1360 0.984 . S
H1373 N1360 0.985 . S
C1374 C1375 1.363 . S
C1374 C1380 1.379 . S
C1374 N1382 1.356 . S
C1375 C1374 1.363 . S
C1375 C1381 1.363 1_545 S
C1376 C1377 1.363 . S
C1376 C1381 1.379 . S
C1376 N1383 1.356 . S
C1377 C1376 1.363 . S
C1377 C1380 1.363 1_565 S
N1378 C1380 1.356 . S
N1378 H1390 0.984 . S
N1378 H1391 0.985 . S
N1379 C1381 1.356 . S
N1379 H1384 0.984 . S
N1379 H1385 0.985 . S
C1380 C1374 1.379 . S
C1380 C1377 1.363 1_545 S
C1380 N1378 1.356 . S
C1381 C1375 1.363 1_565 S
C1381 C1376 1.379 . S
C1381 N1379 1.356 . S
N1382 C1374 1.356 . S
N1382 H1388 0.984 . S
N1382 H1389 0.984 . S
N1383 C1376 1.356 . S
N1383 H1386 0.984 . S
N1383 H1387 0.985 . S
H1384 N1379 0.984 . S
H1385 N1379 0.985 . S
H1386 N1383 0.984 . S
H1387 N1383 0.985 . S
H1388 N1382 0.984 . S
H1389 N1382 0.984 . S
H1390 N1378 0.984 . S
H1391 N1378 0.985 . S
C1392 C1393 1.363 . S
C1392 C1398 1.379 . S
C1392 N1400 1.358 . S
C1393 C1392 1.363 . S
C1393 C1399 1.363 . S
C1394 C1395 1.363 . S
C1394 C1399 1.379 . S
C1394 N1401 1.356 . S
C1395 C1394 1.363 . S
C1395 C1398 1.363 . S
N1396 C1398 1.356 . S
N1396 H1408 0.984 1_455 S
N1396 H1409 0.985 . S
N1397 C1399 1.356 . S
N1397 H1402 0.984 . S
N1397 H1403 0.985 . S
C1398 C1392 1.379 . S
C1398 C1395 1.363 . S
C1398 N1396 1.356 . S
C1399 C1393 1.363 . S
C1399 C1394 1.379 . S
C1399 N1397 1.356 . S
N1400 C1392 1.358 . S
N1400 H1406 0.982 1_455 S
N1400 H1407 0.985 . S
N1401 C1394 1.356 . S
N1401 H1404 0.984 . S
N1401 H1405 0.985 . S
H1402 N1397 0.984 . S
H1403 N1397 0.985 . S
H1404 N1401 0.984 . S
H1405 N1401 0.985 . S
H1406 N1400 0.982 1_655 S
H1407 N1400 0.985 . S
H1408 N1396 0.984 1_655 S
H1409 N1396 0.985 . S
C1410 C1411 1.363 . S
C1410 C1416 1.379 . S
C1410 N1418 1.356 . S
C1411 C1410 1.363 . S
C1411 C1417 1.363 . S
C1412 C1413 1.363 . S
C1412 C1417 1.379 . S
C1412 N1419 1.356 . S
C1413 C1412 1.363 . S
C1413 C1416 1.363 . S
N1414 C1416 1.356 . S
N1414 H1426 0.984 . S
N1414 H1427 0.985 . S
N1415 C1417 1.356 . S
N1415 H1420 0.984 . S
N1415 H1421 0.985 . S
C1416 C1410 1.379 . S
C1416 C1413 1.363 . S
C1416 N1414 1.356 . S
C1417 C1411 1.363 . S
C1417 C1412 1.379 . S
C1417 N1415 1.356 . S
N1418 C1410 1.356 . S
N1418 H1424 0.984 . S
N1418 H1425 0.984 . S
N1419 C1412 1.356 . S
N1419 H1422 0.984 . S
N1419 H1423 0.985 . S
H1420 N1415 0.984 . S
H1421 N1415 0.985 . S
H1422 N1419 0.984 . S
H1423 N1419 0.985 . S
H1424 N1418 0.984 . S
H1425 N1418 0.984 . S
H1426 N1414 0.984 . S
H1427 N1414 0.985 . S
C1428 C1429 1.363 . S
C1428 C1434 1.379 . S
C1428 N1436 1.356 . S
C1429 C1428 1.363 . S
C1429 C1435 1.363 . S
C1430 C1431 1.363 . S
C1430 C1435 1.379 . S
C1430 N1437 1.356 . S
C1431 C1430 1.363 . S
C1431 C1434 1.363 . S
N1432 C1434 1.356 . S
N1432 H1444 0.984 . S
N1432 H1445 0.985 . S
N1433 C1435 1.356 . S
N1433 H1438 0.984 . S
N1433 H1439 0.985 . S
C1434 C1428 1.379 . S
C1434 C1431 1.363 . S
C1434 N1432 1.356 . S
C1435 C1429 1.363 . S
C1435 C1430 1.379 . S
C1435 N1433 1.356 . S
N1436 C1428 1.356 . S
N1436 H1442 0.984 . S
N1436 H1443 0.984 . S
N1437 C1430 1.356 . S
N1437 H1440 0.984 . S
N1437 H1441 0.985 . S
H1438 N1433 0.984 . S
H1439 N1433 0.985 . S
H1440 N1437 0.984 . S
H1441 N1437 0.985 . S
H1442 N1436 0.984 . S
H1443 N1436 0.984 . S
H1444 N1432 0.984 . S
H1445 N1432 0.985 . S
C1446 C1447 1.363 . S
C1446 C1452 1.379 . S
C1446 N1454 1.356 . S
C1447 C1446 1.363 . S
C1447 C1453 1.363 . S
C1448 C1449 1.363 . S
C1448 C1453 1.379 . S
C1448 N1455 1.356 . S
C1449 C1448 1.363 . S
C1449 C1452 1.363 . S
N1450 C1452 1.356 . S
N1450 H1462 0.984 . S
N1450 H1463 0.985 . S
N1451 C1453 1.356 . S
N1451 H1456 0.984 . S
N1451 H1457 0.985 . S
C1452 C1446 1.379 . S
C1452 C1449 1.363 . S
C1452 N1450 1.356 . S
C1453 C1447 1.363 . S
C1453 C1448 1.379 . S
C1453 N1451 1.356 . S
N1454 C1446 1.356 . S
N1454 H1460 0.984 . S
N1454 H1461 0.984 . S
N1455 C1448 1.356 . S
N1455 H1458 0.984 . S
N1455 H1459 0.985 . S
H1456 N1451 0.984 . S
H1457 N1451 0.985 . S
H1458 N1455 0.984 . S
H1459 N1455 0.985 . S
H1460 N1454 0.984 . S
H1461 N1454 0.984 . S
H1462 N1450 0.984 . S
H1463 N1450 0.985 . S
C1464 C1465 1.363 . S
C1464 C1470 1.379 . S
C1464 N1472 1.356 . S
C1465 C1464 1.363 . S
C1465 C1471 1.363 . S
C1466 C1467 1.363 . S
C1466 C1471 1.379 . S
C1466 N1473 1.356 . S
C1467 C1466 1.363 . S
C1467 C1470 1.363 . S
N1468 C1470 1.356 . S
N1468 H1480 0.984 1_545 S
N1468 H1481 0.985 . S
N1469 C1471 1.356 . S
N1469 H1474 0.984 . S
N1469 H1475 0.985 . S
C1470 C1464 1.379 . S
C1470 C1467 1.363 . S
C1470 N1468 1.356 . S
C1471 C1465 1.363 . S
C1471 C1466 1.379 . S
C1471 N1469 1.356 . S
N1472 C1464 1.356 . S
N1472 H1478 0.984 . S
N1472 H1479 0.984 . S
N1473 C1466 1.356 . S
N1473 H1476 0.984 . S
N1473 H1477 0.985 . S
H1474 N1469 0.984 . S
H1475 N1469 0.985 . S
H1476 N1473 0.984 . S
H1477 N1473 0.985 . S
H1478 N1472 0.984 . S
H1479 N1472 0.984 . S
H1480 N1468 0.984 1_565 S
H1481 N1468 0.985 . S
C1482 C1483 1.363 . S
C1482 C1488 1.379 . S
C1482 N1490 1.356 . S
C1483 C1482 1.363 . S
C1483 C1489 1.363 . S
C1484 C1485 1.363 . S
C1484 C1489 1.379 . S
C1484 N1491 1.356 1_565 S
C1485 C1484 1.363 . S
C1485 C1488 1.363 . S
N1486 C1488 1.356 . S
N1486 H1498 0.984 . S
N1486 H1499 0.985 . S
N1487 C1489 1.356 1_545 S
N1487 H1492 0.984 . S
N1487 H1493 0.985 . S
C1488 C1482 1.379 . S
C1488 C1485 1.363 . S
C1488 N1486 1.356 . S
C1489 C1483 1.363 . S
C1489 C1484 1.379 . S
C1489 N1487 1.356 1_565 S
N1490 C1482 1.356 . S
N1490 H1496 0.984 . S
N1490 H1497 0.984 . S
N1491 C1484 1.356 1_545 S
N1491 H1494 0.984 1_545 S
N1491 H1495 0.985 . S
H1492 N1487 0.984 . S
H1493 N1487 0.985 . S
H1494 N1491 0.984 1_565 S
H1495 N1491 0.985 . S
H1496 N1490 0.984 . S
H1497 N1490 0.984 . S
H1498 N1486 0.984 . S
H1499 N1486 0.985 . S
C1500 C1501 1.363 . S
C1500 C1506 1.379 . S
C1500 N1508 1.356 . S
C1501 C1500 1.363 . S
C1501 C1507 1.363 . S
C1502 C1503 1.363 . S
C1502 C1507 1.379 . S
C1502 N1509 1.356 . S
C1503 C1502 1.363 . S
C1503 C1506 1.363 . S
N1504 C1506 1.356 . S
N1504 H1516 0.984 . S
N1504 H1517 0.985 . S
N1505 C1507 1.356 . S
N1505 H1510 0.984 . S
N1505 H1511 0.985 . S
C1506 C1500 1.379 . S
C1506 C1503 1.363 . S
C1506 N1504 1.356 . S
C1507 C1501 1.363 . S
C1507 C1502 1.379 . S
C1507 N1505 1.356 . S
N1508 C1500 1.356 . S
N1508 H1514 0.984 . S
N1508 H1515 0.984 . S
N1509 C1502 1.356 . S
N1509 H1512 0.984 . S
N1509 H1513 0.985 . S
H1510 N1505 0.984 . S
H1511 N1505 0.985 . S
H1512 N1509 0.984 . S
H1513 N1509 0.985 . S
H1514 N1508 0.984 . S
H1515 N1508 0.984 . S
H1516 N1504 0.984 . S
H1517 N1504 0.985 . S
C1518 C1519 1.363 . S
C1518 C1524 1.379 . S
C1518 N1526 1.356 . S
C1519 C1518 1.363 . S
C1519 C1525 1.363 . S
C1520 C1521 1.363 . S
C1520 C1525 1.379 . S
C1520 N1527 1.356 . S
C1521 C1520 1.363 . S
C1521 C1524 1.363 . S
N1522 C1524 1.356 . S
N1522 H1534 0.984 . S
N1522 H1535 0.985 . S
N1523 C1525 1.356 . S
N1523 H1528 0.984 . S
N1523 H1529 0.985 . S
C1524 C1518 1.379 . S
C1524 C1521 1.363 . S
C1524 N1522 1.356 . S
C1525 C1519 1.363 . S
C1525 C1520 1.379 . S
C1525 N1523 1.356 . S
N1526 C1518 1.356 . S
N1526 H1532 0.984 . S
N1526 H1533 0.984 . S
N1527 C1520 1.356 . S
N1527 H1530 0.984 . S
N1527 H1531 0.985 . S
H1528 N1523 0.984 . S
H1529 N1523 0.985 . S
H1530 N1527 0.984 . S
H1531 N1527 0.985 . S
H1532 N1526 0.984 . S
H1533 N1526 0.984 . S
H1534 N1522 0.984 . S
H1535 N1522 0.985 . S
C1536 C1537 1.363 . S
C1536 C1542 1.379 . S
C1536 N1544 1.356 . S
C1537 C1536 1.363 . S
C1537 C1543 1.363 . S
C1538 C1539 1.363 . S
C1538 C1543 1.379 . S
C1538 N1545 1.356 1_554 S
C1539 C1538 1.363 . S
C1539 C1542 1.363 . S
N1540 C1542 1.356 . S
N1540 H1552 0.984 . S
N1540 H1553 0.985 . S
N1541 C1543 1.356 1_556 S
N1541 H1546 0.984 1_556 S
N1541 H1547 0.985 . S
C1542 C1536 1.379 . S
C1542 C1539 1.363 . S
C1542 N1540 1.356 . S
C1543 C1537 1.363 . S
C1543 C1538 1.379 . S
C1543 N1541 1.356 1_554 S
N1544 C1536 1.356 . S
N1544 H1550 0.984 . S
N1544 H1551 0.984 . S
N1545 C1538 1.356 1_556 S
N1545 H1548 0.984 . S
N1545 H1549 0.985 . S
H1546 N1541 0.984 1_554 S
H1547 N1541 0.985 . S
H1548 N1545 0.984 . S
H1549 N1545 0.985 . S
H1550 N1544 0.984 . S
H1551 N1544 0.984 . S
H1552 N1540 0.984 . S
H1553 N1540 0.985 . S
C1554 C1555 1.363 . S
C1554 C1560 1.379 . S
C1554 N1562 1.356 . S
C1555 C1554 1.363 . S
C1555 C1561 1.363 . S
C1556 C1557 1.363 . S
C1556 C1561 1.379 . S
C1556 N1563 1.356 . S
C1557 C1556 1.363 . S
C1557 C1560 1.363 . S
N1558 C1560 1.356 . S
N1558 H1570 0.984 . S
N1558 H1571 0.985 . S
N1559 C1561 1.356 . S
N1559 H1564 0.984 . S
N1559 H1565 0.985 . S
C1560 C1554 1.379 . S
C1560 C1557 1.363 . S
C1560 N1558 1.356 . S
C1561 C1555 1.363 . S
C1561 C1556 1.379 . S
C1561 N1559 1.356 . S
N1562 C1554 1.356 . S
N1562 H1568 0.984 . S
N1562 H1569 0.984 . S
N1563 C1556 1.356 . S
N1563 H1566 0.984 . S
N1563 H1567 0.985 . S
H1564 N1559 0.984 . S
H1565 N1559 0.985 . S
H1566 N1563 0.984 . S
H1567 N1563 0.985 . S
H1568 N1562 0.984 . S
H1569 N1562 0.984 . S
H1570 N1558 0.984 . S
H1571 N1558 0.985 . S
C1572 C1573 1.363 . S
C1572 C1578 1.379 . S
C1572 N1580 1.356 . S
C1573 C1572 1.363 . S
C1573 C1579 1.363 . S
C1574 C1575 1.363 . S
C1574 C1579 1.379 . S
C1574 N1581 1.356 . S
C1575 C1574 1.363 . S
C1575 C1578 1.363 . S
N1576 C1578 1.356 . S
N1576 H1588 0.984 . S
N1576 H1589 0.985 . S
N1577 C1579 1.356 . S
N1577 H1582 0.984 . S
N1577 H1583 0.985 . S
C1578 C1572 1.379 . S
C1578 C1575 1.363 . S
C1578 N1576 1.356 . S
C1579 C1573 1.363 . S
C1579 C1574 1.379 . S
C1579 N1577 1.356 . S
N1580 C1572 1.356 . S
N1580 H1586 0.984 . S
N1580 H1587 0.984 . S
N1581 C1574 1.356 . S
N1581 H1584 0.984 . S
N1581 H1585 0.985 . S
H1582 N1577 0.984 . S
H1583 N1577 0.985 . S
H1584 N1581 0.984 . S
H1585 N1581 0.985 . S
H1586 N1580 0.984 . S
H1587 N1580 0.984 . S
H1588 N1576 0.984 . S
H1589 N1576 0.985 . S
C1590 C1591 1.363 . S
C1590 C1596 1.379 . S
C1590 N1598 1.356 . S
C1591 C1590 1.363 . S
C1591 C1597 1.363 . S
C1592 C1593 1.363 . S
C1592 C1597 1.379 . S
C1592 N1599 1.356 . S
C1593 C1592 1.363 . S
C1593 C1596 1.363 . S
N1594 C1596 1.356 . S
N1594 H1606 0.984 . S
N1594 H1607 0.985 . S
N1595 C1597 1.356 . S
N1595 H1600 0.984 . S
N1595 H1601 0.985 . S
C1596 C1590 1.379 . S
C1596 C1593 1.363 . S
C1596 N1594 1.356 . S
C1597 C1591 1.363 . S
C1597 C1592 1.379 . S
C1597 N1595 1.356 . S
N1598 C1590 1.356 . S
N1598 H1604 0.984 . S
N1598 H1605 0.984 . S
N1599 C1592 1.356 . S
N1599 H1602 0.984 . S
N1599 H1603 0.985 . S
H1600 N1595 0.984 . S
H1601 N1595 0.985 . S
H1602 N1599 0.984 . S
H1603 N1599 0.985 . S
H1604 N1598 0.984 . S
H1605 N1598 0.984 . S
H1606 N1594 0.984 . S
H1607 N1594 0.985 . S
C1608 C1609 1.363 . S
C1608 C1614 1.379 . S
C1608 N1616 1.356 . S
C1609 C1608 1.363 . S
C1609 C1615 1.363 . S
C1610 C1611 1.363 . S
C1610 C1615 1.379 . S
C1610 N1617 1.356 1_655 S
C1611 C1610 1.363 . S
C1611 C1614 1.363 . S
N1612 C1614 1.356 . S
N1612 H1624 0.984 . S
N1612 H1625 0.985 . S
N1613 C1615 1.370 . S
N1613 H1618 0.995 . S
N1613 H1619 0.961 1_655 S
C1614 C1608 1.379 . S
C1614 C1611 1.363 . S
C1614 N1612 1.356 . S
C1615 C1609 1.363 . S
C1615 C1610 1.379 . S
C1615 N1613 1.370 . S
N1616 C1608 1.356 . S
N1616 H1622 0.984 . S
N1616 H1623 0.984 . S
N1617 C1610 1.356 1_455 S
N1617 H1620 0.984 . S
N1617 H1621 0.985 . S
H1618 N1613 0.995 . S
H1619 N1613 0.961 1_455 S
H1620 N1617 0.984 . S
H1621 N1617 0.985 . S
H1622 N1616 0.984 . S
H1623 N1616 0.984 . S
H1624 N1612 0.984 . S
H1625 N1612 0.985 . S
C1626 C1627 1.363 . S
C1626 C1632 1.379 . S
C1626 N1634 1.356 . S
C1627 C1626 1.363 . S
C1627 C1633 1.363 . S
C1628 C1629 1.363 . S
C1628 C1633 1.379 . S
C1628 N1635 1.356 . S
C1629 C1628 1.363 . S
C1629 C1632 1.363 . S
N1630 C1632 1.356 . S
N1630 H1642 0.984 . S
N1630 H1643 0.985 . S
N1631 C1633 1.356 . S
N1631 H1636 0.984 . S
N1631 H1637 0.985 . S
C1632 C1626 1.379 . S
C1632 C1629 1.363 . S
C1632 N1630 1.356 . S
C1633 C1627 1.363 . S
C1633 C1628 1.379 . S
C1633 N1631 1.356 . S
N1634 C1626 1.356 . S
N1634 H1640 0.984 . S
N1634 H1641 0.984 . S
N1635 C1628 1.356 . S
N1635 H1638 0.984 . S
N1635 H1639 0.985 . S
H1636 N1631 0.984 . S
H1637 N1631 0.985 . S
H1638 N1635 0.984 . S
H1639 N1635 0.985 . S
H1640 N1634 0.984 . S
H1641 N1634 0.984 . S
H1642 N1630 0.984 . S
H1643 N1630 0.985 . S
C1644 C1645 1.363 . S
C1644 C1650 1.379 . S
C1644 N1652 1.356 . S
C1645 C1644 1.363 . S
C1645 C1651 1.363 . S
C1646 C1647 1.363 . S
C1646 C1651 1.379 . S
C1646 N1653 1.356 . S
C1647 C1646 1.363 . S
C1647 C1650 1.363 . S
N1648 C1650 1.356 . S
N1648 H1660 0.984 . S
N1648 H1661 0.985 . S
N1649 C1651 1.356 . S
N1649 H1654 0.984 . S
N1649 H1655 0.985 . S
C1650 C1644 1.379 . S
C1650 C1647 1.363 . S
C1650 N1648 1.356 . S
C1651 C1645 1.363 . S
C1651 C1646 1.379 . S
C1651 N1649 1.356 . S
N1652 C1644 1.356 . S
N1652 H1658 0.984 . S
N1652 H1659 0.984 . S
N1653 C1646 1.356 . S
N1653 H1656 0.984 . S
N1653 H1657 0.985 . S
H1654 N1649 0.984 . S
H1655 N1649 0.985 . S
H1656 N1653 0.984 . S
H1657 N1653 0.985 . S
H1658 N1652 0.984 . S
H1659 N1652 0.984 . S
H1660 N1648 0.984 . S
H1661 N1648 0.985 . S
C1662 C1663 1.363 . S
C1662 C1668 1.379 . S
C1662 N1670 1.356 . S
C1663 C1662 1.363 . S
C1663 C1669 1.363 . S
C1664 C1665 1.363 . S
C1664 C1669 1.379 . S
C1664 N1671 1.358 . S
C1665 C1664 1.363 . S
C1665 C1668 1.363 . S
N1666 C1668 1.356 . S
N1666 H1678 0.984 . S
N1666 H1679 0.985 . S
N1667 C1669 1.356 . S
N1667 H1672 0.984 . S
N1667 H1673 0.985 1_455 S
C1668 C1662 1.379 . S
C1668 C1665 1.363 . S
C1668 N1666 1.356 . S
C1669 C1663 1.363 . S
C1669 C1664 1.379 . S
C1669 N1667 1.356 . S
N1670 C1662 1.356 . S
N1670 H1676 0.984 . S
N1670 H1677 0.984 . S
N1671 C1664 1.358 . S
N1671 H1674 0.985 . S
N1671 H1675 0.982 1_455 S
H1672 N1667 0.984 . S
H1673 N1667 0.985 1_655 S
H1674 N1671 0.985 . S
H1675 N1671 0.982 1_655 S
H1676 N1670 0.984 . S
H1677 N1670 0.984 . S
H1678 N1666 0.984 . S
H1679 N1666 0.985 . S
C1680 C1681 1.363 . S
C1680 C1686 1.379 . S
C1680 N1688 1.356 . S
C1681 C1680 1.363 . S
C1681 C1687 1.363 . S
C1682 C1683 1.363 . S
C1682 C1687 1.379 . S
C1682 N1689 1.356 . S
C1683 C1682 1.363 . S
C1683 C1686 1.363 . S
N1684 C1686 1.356 . S
N1684 H1696 0.984 . S
N1684 H1697 0.985 . S
N1685 C1687 1.356 1_545 S
N1685 H1690 0.988 . S
N1685 H1691 0.985 . S
C1686 C1680 1.379 . S
C1686 C1683 1.363 . S
C1686 N1684 1.356 . S
C1687 C1681 1.363 . S
C1687 C1682 1.379 . S
C1687 N1685 1.356 1_565 S
N1688 C1680 1.356 . S
N1688 H1694 0.984 . S
N1688 H1695 0.984 . S
N1689 C1682 1.356 . S
N1689 H1692 0.984 . S
N1689 H1693 0.985 1_565 S
H1690 N1685 0.988 . S
H1691 N1685 0.985 . S
H1692 N1689 0.984 . S
H1693 N1689 0.985 1_545 S
H1694 N1688 0.984 . S
H1695 N1688 0.984 . S
H1696 N1684 0.984 . S
H1697 N1684 0.985 . S
C1698 C1699 1.363 . S
C1698 C1704 1.379 . S
C1698 N1706 1.356 1_545 S
C1699 C1698 1.363 . S
C1699 C1705 1.363 . S
C1700 C1701 1.363 . S
C1700 C1705 1.379 . S
C1700 N1707 1.356 . S
C1701 C1700 1.363 . S
C1701 C1704 1.363 . S
N1702 C1704 1.356 . S
N1702 H1714 0.984 1_545 S
N1702 H1715 0.985 . S
N1703 C1705 1.356 . S
N1703 H1708 0.984 . S
N1703 H1709 0.985 . S
C1704 C1698 1.379 . S
C1704 C1701 1.363 . S
C1704 N1702 1.356 . S
C1705 C1699 1.363 . S
C1705 C1700 1.379 . S
C1705 N1703 1.356 . S
N1706 C1698 1.356 1_565 S
N1706 H1712 0.984 . S
N1706 H1713 0.984 . S
N1707 C1700 1.356 . S
N1707 H1710 0.984 . S
N1707 H1711 0.985 . S
H1708 N1703 0.984 . S
H1709 N1703 0.985 . S
H1710 N1707 0.984 . S
H1711 N1707 0.985 . S
H1712 N1706 0.984 . S
H1713 N1706 0.984 . S
H1714 N1702 0.984 1_565 S
H1715 N1702 0.985 . S
C1716 C1717 1.363 . S
C1716 C1722 1.379 . S
C1716 N1724 1.356 . S
C1717 C1716 1.363 . S
C1717 C1723 1.363 . S
C1718 C1719 1.363 . S
C1718 C1723 1.379 . S
C1718 N1725 1.356 . S
C1719 C1718 1.363 . S
C1719 C1722 1.363 . S
N1720 C1722 1.356 . S
N1720 H1732 0.984 . S
N1720 H1733 0.985 . S
N1721 C1723 1.356 . S
N1721 H1726 0.984 . S
N1721 H1727 0.985 . S
C1722 C1716 1.379 . S
C1722 C1719 1.363 . S
C1722 N1720 1.356 . S
C1723 C1717 1.363 . S
C1723 C1718 1.379 . S
C1723 N1721 1.356 . S
N1724 C1716 1.356 . S
N1724 H1730 0.984 . S
N1724 H1731 0.984 . S
N1725 C1718 1.356 . S
N1725 H1728 0.984 . S
N1725 H1729 0.985 . S
H1726 N1721 0.984 . S
H1727 N1721 0.985 . S
H1728 N1725 0.984 . S
H1729 N1725 0.985 . S
H1730 N1724 0.984 . S
H1731 N1724 0.984 . S
H1732 N1720 0.984 . S
H1733 N1720 0.985 . S
C1734 C1735 1.363 . S
C1734 C1740 1.379 . S
C1734 N1742 1.356 . S
C1735 C1734 1.363 . S
C1735 C1741 1.363 . S
C1736 C1737 1.363 . S
C1736 C1741 1.379 . S
C1736 N1743 1.356 . S
C1737 C1736 1.363 . S
C1737 C1740 1.363 . S
N1738 C1740 1.356 . S
N1738 H1750 0.984 . S
N1738 H1751 0.985 . S
N1739 C1741 1.356 . S
N1739 H1744 0.984 . S
N1739 H1745 0.985 . S
C1740 C1734 1.379 . S
C1740 C1737 1.363 . S
C1740 N1738 1.356 . S
C1741 C1735 1.363 . S
C1741 C1736 1.379 . S
C1741 N1739 1.356 . S
N1742 C1734 1.356 . S
N1742 H1748 0.984 . S
N1742 H1749 0.984 . S
N1743 C1736 1.356 . S
N1743 H1746 0.984 . S
N1743 H1747 0.985 . S
H1744 N1739 0.984 . S
H1745 N1739 0.985 . S
H1746 N1743 0.984 . S
H1747 N1743 0.985 . S
H1748 N1742 0.984 . S
H1749 N1742 0.984 . S
H1750 N1738 0.984 . S
H1751 N1738 0.985 . S
C1752 C1753 1.363 . S
C1752 C1758 1.379 . S
C1752 N1760 1.356 . S
C1753 C1752 1.363 . S
C1753 C1759 1.363 . S
C1754 C1755 1.363 . S
C1754 C1759 1.379 . S
C1754 N1761 1.356 . S
C1755 C1754 1.363 . S
C1755 C1758 1.363 . S
N1756 C1758 1.356 . S
N1756 H1768 0.984 . S
N1756 H1769 0.985 . S
N1757 C1759 1.356 . S
N1757 H1762 0.984 . S
N1757 H1763 0.985 1_556 S
C1758 C1752 1.379 . S
C1758 C1755 1.363 . S
C1758 N1756 1.356 . S
C1759 C1753 1.363 . S
C1759 C1754 1.379 . S
C1759 N1757 1.356 . S
N1760 C1752 1.356 . S
N1760 H1766 0.984 . S
N1760 H1767 0.984 . S
N1761 C1754 1.356 . S
N1761 H1764 0.984 . S
N1761 H1765 0.985 1_556 S
H1762 N1757 0.984 . S
H1763 N1757 0.985 1_554 S
H1764 N1761 0.984 . S
H1765 N1761 0.985 1_554 S
H1766 N1760 0.984 . S
H1767 N1760 0.984 . S
H1768 N1756 0.984 . S
H1769 N1756 0.985 . S
C1770 C1771 1.363 . S
C1770 C1776 1.379 . S
C1770 N1778 1.356 . S
C1771 C1770 1.363 . S
C1771 C1777 1.363 . S
C1772 C1773 1.363 . S
C1772 C1777 1.379 . S
C1772 N1779 1.356 1_554 S
C1773 C1772 1.363 . S
C1773 C1776 1.363 . S
N1774 C1776 1.356 . S
N1774 H1786 0.984 . S
N1774 H1787 0.985 . S
N1775 C1777 1.356 . S
N1775 H1780 0.984 . S
N1775 H1781 0.985 1_554 S
C1776 C1770 1.379 . S
C1776 C1773 1.363 . S
C1776 N1774 1.356 . S
C1777 C1771 1.363 . S
C1777 C1772 1.379 . S
C1777 N1775 1.356 . S
N1778 C1770 1.356 . S
N1778 H1784 0.984 . S
N1778 H1785 0.984 . S
N1779 C1772 1.356 1_556 S
N1779 H1782 0.984 . S
N1779 H1783 0.985 . S
H1780 N1775 0.984 . S
H1781 N1775 0.985 1_556 S
H1782 N1779 0.984 . S
H1783 N1779 0.985 . S
H1784 N1778 0.984 . S
H1785 N1778 0.984 . S
H1786 N1774 0.984 . S
H1787 N1774 0.985 . S
C1788 C1789 1.363 . S
C1788 C1794 1.379 . S
C1788 N1796 1.356 . S
C1789 C1788 1.363 . S
C1789 C1795 1.363 . S
C1790 C1791 1.363 . S
C1790 C1795 1.379 . S
C1790 N1797 1.356 . S
C1791 C1790 1.363 . S
C1791 C1794 1.363 . S
N1792 C1794 1.356 . S
N1792 H1804 0.984 . S
N1792 H1805 0.985 . S
N1793 C1795 1.356 . S
N1793 H1798 0.984 . S
N1793 H1799 0.985 . S
C1794 C1788 1.379 . S
C1794 C1791 1.363 . S
C1794 N1792 1.356 . S
C1795 C1789 1.363 . S
C1795 C1790 1.379 . S
C1795 N1793 1.356 . S
N1796 C1788 1.356 . S
N1796 H1802 0.984 . S
N1796 H1803 0.984 . S
N1797 C1790 1.356 . S
N1797 H1800 0.984 . S
N1797 H1801 0.985 . S
H1798 N1793 0.984 . S
H1799 N1793 0.985 . S
H1800 N1797 0.984 . S
H1801 N1797 0.985 . S
H1802 N1796 0.984 . S
H1803 N1796 0.984 . S
H1804 N1792 0.984 . S
H1805 N1792 0.985 . S
C1806 C1807 1.363 . S
C1806 C1812 1.379 . S
C1806 N1814 1.356 . S
C1807 C1806 1.363 . S
C1807 C1813 1.363 . S
C1808 C1809 1.363 . S
C1808 C1813 1.379 . S
C1808 N1815 1.356 . S
C1809 C1808 1.363 . S
C1809 C1812 1.363 . S
N1810 C1812 1.356 . S
N1810 H1822 0.984 . S
N1810 H1823 0.985 . S
N1811 C1813 1.356 . S
N1811 H1816 0.984 . S
N1811 H1817 0.985 . S
C1812 C1806 1.379 . S
C1812 C1809 1.363 . S
C1812 N1810 1.356 . S
C1813 C1807 1.363 . S
C1813 C1808 1.379 . S
C1813 N1811 1.356 . S
N1814 C1806 1.356 . S
N1814 H1820 0.984 . S
N1814 H1821 0.984 . S
N1815 C1808 1.356 . S
N1815 H1818 0.984 . S
N1815 H1819 0.985 . S
H1816 N1811 0.984 . S
H1817 N1811 0.985 . S
H1818 N1815 0.984 . S
H1819 N1815 0.985 . S
H1820 N1814 0.984 . S
H1821 N1814 0.984 . S
H1822 N1810 0.984 . S
H1823 N1810 0.985 . S
C529 C18 1.079 . S
C531 C103 1.109 . S
C547 C30 1.079 . S
C549 C131 1.109 . S
C565 C153 1.109 . S
C567 C62 1.079 . S
C583 C74 1.079 . S
C585 C161 1.109 . S
C601 C98 1.079 . S
C603 C183 1.109 . S
C619 C118 1.079 . S
C621 C249 1.109 . S
C637 C140 1.079 . S
C639 C205 1.109 . S
C655 C172 1.079 . S
C657 C235 1.109 . S
C673 C194 1.079 . S
C675 C7 1.109 . S
C691 C51 1.109 . S
C693 C216 1.079 . S
C709 C87 1.109 . S
C711 C230 1.079 . S
C727 C260 1.079 . S
C729 C43 1.109 . S
C745 C373 1.097 . S
C747 C272 1.062 . S
C763 C294 1.062 . S
C765 C381 1.097 . S
C781 C318 1.062 . S
C783 C417 1.097 . S
C799 C425 1.097 . S
C801 C338 1.062 . S
C817 C360 1.062 . S
C819 C461 1.097 . S
C835 C392 1.062 . S
C837 C513 1.097 . S
C853 C477 1.097 . S
C855 C404 1.062 . S
C871 C505 1.097 . S
C873 C436 1.062 . S
C889 C448 1.062 . S
C891 C285 1.097 . S
C907 C323 1.097 . S
C909 C472 1.062 . S
C925 C492 1.062 . S
C927 C351 1.097 . S
C943 C307 1.097 . S
C945 C524 1.062 . S
C961 C206 1.171 . S
C963 C10 1.102 . S
C979 C40 1.102 . S
C981 C238 1.171 . S
C997 C184 1.171 . S
C999 C54 1.102 . S
C1015 C84 1.102 . S
C1017 C250 1.171 . S
C1033 C96 1.102 . S
C1035 C76 1.171 . S
C1051 C128 1.102 . S
C1053 C52 1.171 . S
C1069 C32 1.171 . S
C1071 C150 1.102 . S
C1087 C8 1.171 . S
C1089 C164 1.102 . S
C1105 C120 1.171 . S
C1107 C186 1.102 . S
C1123 C208 1.102 . S
C1125 C162 1.171 . S
C1141 C142 1.171 . S
C1143 C228 1.102 . S
C1159 C106 1.171 . S
C1161 C252 1.102 . S
C1177 C470 1.171 . S
C1179 C274 1.115 . S
C1195 C296 1.115 . S
C1197 C502 1.171 . S
C1213 C326 1.115 . S
C1215 C458 1.171 . S
C1231 C340 1.115 . S
C1233 C516 1.171 . S
C1249 C348 1.171 . S
C1251 C362 1.115 . S
C1267 C316 1.171 . S
C1269 C382 1.115 . S
C1285 C406 1.115 . S
C1287 C304 1.171 . S
C1303 C426 1.115 . S
C1305 C282 1.171 . S
C1321 C384 1.171 . S
C1323 C450 1.115 . S
C1339 C480 1.115 . S
C1341 C428 1.171 . S
C1357 C414 1.171 . S
C1359 C494 1.115 . S
C1375 C514 1.115 . S
C1377 C370 1.171 . S
C1393 C15 1.206 . S
C1395 C433 1.262 . S
C1411 C29 1.206 . S
C1413 C403 1.262 . S
C1429 C389 1.262 . S
C1431 C59 1.206 . S
C1447 C359 1.262 . S
C1449 C73 1.206 . S
C1465 C521 1.262 . S
C1467 C109 1.206 . S
C1483 C117 1.206 . S
C1485 C447 1.262 . S
C1501 C139 1.206 . S
C1503 C491 1.262 . S
C1519 C169 1.206 . S
C1521 C483 1.262 . S
C1537 C329 1.262 . S
C1539 C191 1.206 . S
C1555 C271 1.262 . S
C1557 C213 1.206 . S
C1573 C293 1.262 . S
C1575 C241 1.206 . S
C1591 C337 1.262 . S
C1593 C257 1.206 . S
C1609 C175 1.258 . S
C1611 C279 1.193 . S
C1627 C147 1.258 . S
C1629 C301 1.193 . S
C1645 C125 1.258 . S
C1647 C315 1.193 . S
C1663 C95 1.258 . S
C1665 C345 1.193 . S
C1681 C367 1.193 . S
C1683 C263 1.258 . S
C1699 C395 1.193 . S
C1701 C197 1.258 . S
C1717 C411 1.193 . S
C1719 C227 1.258 . S
C1735 C439 1.193 . S
C1737 C219 1.258 . S
C1753 C455 1.193 . S
C1755 C65 1.258 . S
C1771 C21 1.258 . S
C1773 C469 1.193 . S
C1789 C37 1.258 . S
C1791 C499 1.193 . S
C1807 C81 1.258 . S
C1809 C527 1.193 . S
