# Generated by pormake.
# Topology vby, (6)-cn, num edge types: 1
# Building blocks:
#     Node 0, Type 0, BuildingBlock: NUHQIS_clean_sbu_0, # of connection points: 6
#     Node 1, Type 0, BuildingBlock: NUHQIS_clean_sbu_0, # of connection points: 6
#     Node 2, Type 0, BuildingBlock: NUHQIS_clean_sbu_0, # of connection points: 6
#     Node 3, Type 0, BuildingBlock: NUHQIS_clean_sbu_0, # of connection points: 6
#     Node 4, Type 0, BuildingBlock: NUHQIS_clean_sbu_0, # of connection points: 6
#     Node 5, Type 0, BuildingBlock: NUHQIS_clean_sbu_0, # of connection points: 6
#     Node 6, Type 0, BuildingBlock: NUHQIS_clean_sbu_0, # of connection points: 6
#     Node 7, Type 0, BuildingBlock: NUHQIS_clean_sbu_0, # of connection points: 6
#     Edge 8, Type (0, 0), BuildingBlock: XUDNAN_clean_linker_2, # of connection points: 2
#     Edge 9, Type (0, 0), BuildingBlock: XUDNAN_clean_linker_2, # of connection points: 2
#     Edge 10, Type (0, 0), BuildingBlock: XUDNAN_clean_linker_2, # of connection points: 2
#     Edge 11, Type (0, 0), BuildingBlock: XUDNAN_clean_linker_2, # of connection points: 2
#     Edge 12, Type (0, 0), BuildingBlock: XUDNAN_clean_linker_2, # of connection points: 2
#     Edge 13, Type (0, 0), BuildingBlock: XUDNAN_clean_linker_2, # of connection points: 2
#     Edge 14, Type (0, 0), BuildingBlock: XUDNAN_clean_linker_2, # of connection points: 2
#     Edge 15, Type (0, 0), BuildingBlock: XUDNAN_clean_linker_2, # of connection points: 2
#     Edge 16, Type (0, 0), BuildingBlock: XUDNAN_clean_linker_2, # of connection points: 2
#     Edge 17, Type (0, 0), BuildingBlock: XUDNAN_clean_linker_2, # of connection points: 2
#     Edge 18, Type (0, 0), BuildingBlock: XUDNAN_clean_linker_2, # of connection points: 2
#     Edge 19, Type (0, 0), BuildingBlock: XUDNAN_clean_linker_2, # of connection points: 2
#     Edge 20, Type (0, 0), BuildingBlock: XUDNAN_clean_linker_2, # of connection points: 2
#     Edge 21, Type (0, 0), BuildingBlock: XUDNAN_clean_linker_2, # of connection points: 2
#     Edge 22, Type (0, 0), BuildingBlock: XUDNAN_clean_linker_2, # of connection points: 2
#     Edge 23, Type (0, 0), BuildingBlock: XUDNAN_clean_linker_2, # of connection points: 2
#     Edge 24, Type (0, 0), BuildingBlock: XUDNAN_clean_linker_2, # of connection points: 2
#     Edge 25, Type (0, 0), BuildingBlock: XUDNAN_clean_linker_2, # of connection points: 2
#     Edge 26, Type (0, 0), BuildingBlock: XUDNAN_clean_linker_2, # of connection points: 2
#     Edge 27, Type (0, 0), BuildingBlock: XUDNAN_clean_linker_2, # of connection points: 2
#     Edge 28, Type (0, 0), BuildingBlock: XUDNAN_clean_linker_2, # of connection points: 2
#     Edge 29, Type (0, 0), BuildingBlock: XUDNAN_clean_linker_2, # of connection points: 2
#     Edge 30, Type (0, 0), BuildingBlock: XUDNAN_clean_linker_2, # of connection points: 2
#     Edge 31, Type (0, 0), BuildingBlock: XUDNAN_clean_linker_2, # of connection points: 2
# Relax obj value: 0.198
# Max RMSD: 0.230
# Mean RMSD: 0.218
data_MOF--net-vby--node1-NUHQIS_clean_sbu_0--edge1-XUDNAN_clean_linker_2
_symmetry_space_group_name_H-M    P1
_symmetry_Int_Tables_number       1
_symmetry_cell_setting            triclinic
loop_
_symmetry_equiv_pos_as_xyz
'x, y, z'
_cell_length_a     15.290449
_cell_length_b     103.23229
_cell_length_c     30.140445
_cell_angle_alpha  86.101293
_cell_angle_beta   89.313695
_cell_angle_gamma 90.038648
loop_
_atom_site_label
_atom_site_type_symbol
_atom_site_fract_x
_atom_site_fract_y
_atom_site_fract_z
_atom_type_partial_charge
Tb0 Tb 0.07513 0.40854 0.02226 0.0
Eu1 Eu 0.07079 0.37675 0.00628 0.0
C2 C 0.05028 0.38779 0.10118 0.0
C3 C 0.25227 0.39197 0.01548 0.0
C4 C 0.05807 0.44563 0.02204 0.0
C5 C 0.05223 0.4683 0.03884 0.0
C6 C 0.0626 0.45521 0.05268 0.0
C7 C 1.03881 0.44926 0.97748 0.0
C8 C 1.028 0.4624 0.96356 0.0
C9 C 1.03675 0.47212 0.9939 0.0
C10 C 0.08619 0.43238 0.03647 0.0
O11 O 0.05201 0.40714 0.95161 0.0
O12 O 0.11515 0.38723 0.94214 0.0
O13 O 0.9388 0.38427 0.98811 0.0
O14 O 0.93431 0.40399 0.01986 0.0
C15 C 0.0855 0.39853 0.92597 0.0
O16 O 1.03753 0.36055 0.96638 0.0
O17 O 0.08927 0.35679 0.03282 0.0
O18 O 1.01544 0.37997 0.0739 0.0
O19 O 0.09625 0.39791 0.08608 0.0
O20 O 0.21192 0.40323 0.011 0.0
O21 O 0.21062 0.38085 0.02078 0.0
C22 C 0.89575 0.39439 0.00077 0.0
O23 O 1.02966 0.42448 0.05661 0.0
O24 O 0.13644 0.42651 0.00906 0.0
C25 C 0.11013 0.34028 0.98166 0.0
C26 C 0.18215 0.31626 0.95973 0.0
C27 C 0.10953 0.32155 0.93678 0.0
C28 C 0.07388 0.3334 0.94772 0.0
C29 C 0.1845 0.33524 0.00372 0.0
C30 C 0.22013 0.32335 0.99284 0.0
C31 C 0.06325 0.35176 -0.00339 0.0
H32 H 0.06083 0.47544 0.06312 0.0
H33 H 0.07848 0.45262 0.08709 0.0
H34 H 1.03537 0.44201 0.95321 0.0
H35 H 1.01476 0.46496 0.92885 0.0
H36 H 0.0779 0.31629 0.91152 0.0
H37 H 1.01585 0.33697 0.93062 0.0
H38 H 0.21386 0.34029 0.03016 0.0
H39 H 0.27679 0.31963 0.01075 0.0
Tb40 Tb 1.00464 0.6313 0.99433 0.0
Eu41 Eu 1.01653 0.66343 0.00027 0.0
C42 C 1.00692 0.64387 0.08567 0.0
C43 C 0.83539 0.64835 -0.0045 0.0
C44 C 1.016 0.59415 0.98299 0.0
C45 C 0.05966 0.57237 0.00999 0.0
C46 C 1.04542 0.58542 0.01739 0.0
C47 C 1.00502 0.58964 0.94038 0.0
C48 C 1.01959 0.57656 0.93293 0.0
C49 C 1.04442 0.56769 0.96804 0.0
C50 C 0.98204 0.60699 0.9941 0.0
O51 O 0.05872 0.6383 0.93 0.0
O52 O 1.00116 0.6589 0.9288 0.0
O53 O 0.15621 0.65688 0.9903 0.0
O54 O 0.14214 0.63472 0.00648 0.0
C55 C 1.03719 0.64933 0.90851 0.0
O56 O 1.01614 0.68292 0.96657 0.0
O57 O 1.03531 0.68053 0.03769 0.0
O58 O 1.04729 0.65413 0.06762 0.0
O59 O 0.96502 0.63592 0.06116 0.0
O60 O 0.88032 0.63977 0.9747 0.0
O61 O 0.8744 0.65797 0.01385 0.0
C62 C 0.19024 0.64526 -0.001 0.0
O63 O 1.01838 0.61271 0.02645 0.0
O64 O 0.95772 0.61528 0.96205 0.0
C65 C 0.97905 0.70099 0.00885 0.0
C66 C 0.91797 0.72632 0.02177 0.0
C67 C 0.94322 0.72286 0.97919 0.0
C68 C 0.97389 0.71034 0.97287 0.0
C69 C 0.94937 0.70424 0.051 0.0
C70 C 0.9191 0.71677 0.05734 0.0
C71 C 1.0268 0.68872 0.00318 0.0
H72 H 0.08016 0.56584 0.03756 0.0
H73 H 0.05337 0.58853 0.05072 0.0
H74 H 0.98111 0.59605 0.91328 0.0
H75 H 1.00682 0.57326 0.90028 0.0
H76 H 0.94377 0.73002 0.95119 0.0
H77 H 0.99738 0.70816 0.94015 0.0
H78 H 0.95271 0.69729 0.07951 0.0
H79 H 0.89884 0.71909 0.09044 0.0
Tb80 Tb 0.08643 0.6606 0.48702 0.0
Eu81 Eu 0.09631 0.62821 0.50625 0.0
C82 C 0.08314 0.64209 0.4093 0.0
C83 C 0.91436 0.64362 0.49855 0.0
C84 C 0.10102 0.69784 0.48432 0.0
C85 C 0.0653 0.72042 0.49379 0.0
C86 C 1.04004 0.70796 0.48394 0.0
C87 C 0.1885 0.70037 0.49465 0.0
C88 C 0.2141 0.71293 0.50448 0.0
C89 C 0.15247 0.7231 0.50439 0.0
C90 C 0.06983 0.68496 0.47294 0.0
O91 O 0.13122 0.6568 0.5548 0.0
O92 O 0.06428 0.63708 0.57085 0.0
O93 O 0.23569 0.63534 0.50982 0.0
O94 O 0.2229 0.656 0.47596 0.0
C95 C 0.09861 0.64788 0.58365 0.0
O96 O 0.12471 0.61079 0.5494 0.0
O97 O 0.08786 0.60901 0.48074 0.0
O98 O 0.12682 0.6335 0.4342 0.0
O99 O 1.0463 0.65217 0.42617 0.0
O100 O 0.95741 0.654 0.50851 0.0
O101 O 0.9539 0.6326 0.49182 0.0
C102 C 0.27038 0.64613 0.49159 0.0
O103 O 0.12068 0.67787 0.44947 0.0
O104 O 1.0279 0.67802 0.50396 0.0
C105 C 0.0719 0.58987 0.52976 0.0
C106 C 1.03418 0.56317 0.54945 0.0
C107 C 1.04668 0.57156 0.58384 0.0
C108 C 0.0658 0.58474 0.57411 0.0
C109 C 0.05502 0.58165 0.49555 0.0
C110 C 1.03636 0.5685 0.50522 0.0
C111 C 0.10987 0.60291 0.51823 0.0
H112 H 1.01643 0.72802 0.49247 0.0
H113 H 0.97239 0.70624 0.47571 0.0
H114 H 0.23669 0.69267 0.49514 0.0
H115 H 0.28167 0.71466 0.5127 0.0
H116 H 1.04422 0.56786 0.61833 0.0
H117 H 0.07928 0.59077 0.60127 0.0
H118 H 0.06081 0.58522 0.461 0.0
H119 H 1.02858 0.56238 0.47774 0.0
Tb120 Tb 1.02335 0.40706 0.49984 0.0
Eu121 Eu 1.01947 0.37516 0.53079 0.0
C122 C 1.01051 0.386 0.42724 0.0
C123 C 0.84521 0.39236 0.51975 0.0
C124 C 1.01382 0.44386 0.49402 0.0
C125 C 1.00442 0.46727 0.47982 0.0
C126 C 1.00936 0.45484 0.4642 0.0
C127 C 1.01074 0.44541 0.53991 0.0
C128 C 1.00573 0.45787 0.55565 0.0
C129 C 1.00379 0.46898 0.52575 0.0
C130 C 1.02827 0.43108 0.47623 0.0
O131 O 0.05434 0.4065 0.5701 0.0
O132 O 1.01321 0.38561 0.59373 0.0
O133 O 0.15956 0.38219 0.53647 0.0
O134 O 0.1497 0.39891 0.48301 0.0
C135 C 1.03787 0.3974 0.60176 0.0
O136 O 0.9663 0.3592 0.57443 0.0
O137 O 0.07008 0.35546 0.52709 0.0
O138 O 1.02831 0.37626 0.45611 0.0
O139 O 0.99602 0.3979 0.43864 0.0
O140 O 0.89369 0.40249 0.52746 0.0
O141 O 0.8808 0.38107 0.51267 0.0
C142 C 0.19691 0.39109 0.50921 0.0
O143 O 0.09454 0.42443 0.49215 0.0
O144 O 0.95996 0.42375 0.47174 0.0
C145 C 0.98081 0.33739 0.55391 0.0
C146 C 0.93016 0.3111 0.55087 0.0
C147 C 0.93497 0.3169 0.59164 0.0
C148 C 0.95994 0.32987 0.59309 0.0
C149 C 0.97312 0.33183 0.51281 0.0
C150 C 0.94748 0.31879 0.51131 0.0
C151 C 1.01704 0.35052 0.55806 0.0
H152 H 1.00447 0.47555 0.45575 0.0
H153 H 1.01227 0.45384 0.42865 0.0
H154 H 1.01413 0.43702 0.56347 0.0
H155 H 1.0043 0.4588 0.59122 0.0
H156 H 0.92067 0.31132 0.62264 0.0
H157 H 0.9654 0.33394 0.62516 0.0
H158 H 0.98897 0.33743 0.48208 0.0
H159 H 0.9445 0.31458 0.4794 0.0
Tb160 Tb 0.59317 0.90992 0.98495 0.0
Eu161 Eu 0.58182 0.87794 0.00827 0.0
C162 C 0.57693 0.89767 0.08299 0.0
C163 C 0.76335 0.89337 -0.00447 0.0
C164 C 0.5806 0.94752 0.96354 0.0
C165 C 0.55622 0.96875 0.99227 0.0
C166 C 0.56887 0.95536 -0.00051 0.0
C167 C 0.57461 0.95329 0.92008 0.0
C168 C 0.56147 0.9667 0.91283 0.0
C169 C 0.5551 0.97468 0.94884 0.0
C170 C 0.61637 0.93422 0.97165 0.0
O171 O 0.54836 0.90167 0.9242 0.0
O172 O 0.61323 0.88169 0.9356 0.0
O173 O 0.44212 0.88456 -0.00387 0.0
O174 O 0.45538 0.90686 -0.00081 0.0
C175 C 0.57689 0.89073 0.90915 0.0
O176 O 0.55238 0.85839 0.98883 0.0
O177 O 0.59694 0.8612 0.0556 0.0
O178 O 0.53803 0.88747 0.069 0.0
O179 O 0.62203 0.90559 0.05543 0.0
O180 O 0.72016 0.90199 0.97061 0.0
O181 O 0.72304 0.88381 0.01845 0.0
C182 C 0.40772 0.89625 -0.00203 0.0
O183 O 0.60318 0.92823 0.01054 0.0
O184 O 0.61618 0.92622 0.94003 0.0
C185 C 0.62735 0.84072 0.02774 0.0
C186 C 0.71713 0.81674 0.03184 0.0
C187 C 0.70551 0.82385 0.99079 0.0
C188 C 0.6611 0.83576 0.98874 0.0
C189 C 0.63897 0.83362 0.06857 0.0
C190 C 0.68337 0.8218 0.07064 0.0
C191 C 0.5755 0.85282 0.02711 0.0
H192 H 0.55279 0.97452 0.02092 0.0
H193 H 0.57479 0.9513 0.03342 0.0
H194 H 0.58445 0.94757 0.89162 0.0
H195 H 0.55938 0.97088 0.87891 0.0
H196 H 0.73118 0.82024 0.96034 0.0
H197 H 0.65272 0.841 0.95671 0.0
H198 H 0.61247 0.83713 0.09902 0.0
H199 H 0.68957 0.81648 0.10268 0.0
Tb200 Tb 0.50389 0.13153 0.01274 0.0
Eu201 Eu 0.50674 0.16377 0.00377 0.0
C202 C 0.54077 0.14762 0.09427 0.0
C203 C 0.32756 0.14821 0.01922 0.0
C204 C 0.52334 0.09452 0.00451 0.0
C205 C 0.55061 0.07157 0.02252 0.0
C206 C 0.53647 0.08409 0.03599 0.0
C207 C 0.52827 0.09232 0.95903 0.0
C208 C 0.54264 0.07975 0.94547 0.0
C209 C 0.55177 0.06917 0.97713 0.0
C210 C 0.49256 0.10698 0.02035 0.0
O211 O 0.52777 0.13767 0.9425 0.0
O212 O 0.44881 0.15644 0.94266 0.0
O213 O 0.63784 0.15732 0.98044 0.0
O214 O 0.64484 0.13629 0.01103 0.0
C215 C 0.48737 0.14743 0.92099 0.0
O216 O 0.53738 0.18181 0.96469 0.0
O217 O 0.48893 0.18243 0.03259 0.0
O218 O 0.57247 0.15676 0.06647 0.0
O219 O 0.49159 0.13835 0.07993 0.0
O220 O 0.36617 0.13754 0.00744 0.0
O221 O 0.37218 0.15851 0.02858 0.0
C222 C 0.683 0.14696 0.99337 0.0
O223 O 0.54517 0.11363 0.04387 0.0
O224 O 0.44601 0.11446 0.9933 0.0
C225 C 0.46343 0.20113 0.98277 0.0
C226 C 0.3873 0.22574 0.96178 0.0
C227 C 0.45354 0.22096 0.93457 0.0
C228 C 0.49127 0.20883 0.94504 0.0
C229 C 0.39558 0.20571 0.00943 0.0
C230 C 0.35788 0.21789 -0.001 0.0
C231 C 0.51246 0.18915 -0.00391 0.0
H232 H 0.55909 0.0637 0.04775 0.0
H233 H 0.53243 0.08555 0.07123 0.0
H234 H 0.51779 0.10018 0.93401 0.0
H235 H 0.54284 0.07825 0.91026 0.0
H236 H 0.47871 0.22681 0.90604 0.0
H237 H 0.54435 0.20565 0.92429 0.0
H238 H 0.37292 0.20006 0.03892 0.0
H239 H 0.30628 0.22121 0.02035 0.0
Tb240 Tb 0.58152 0.16262 0.50049 0.0
Eu241 Eu 0.58832 0.13029 0.51645 0.0
C242 C 0.58491 0.14512 0.41942 0.0
C243 C 0.40736 0.14531 0.50006 0.0
C244 C 0.62956 0.19877 0.49905 0.0
C245 C 0.69556 0.21954 0.47428 0.0
C246 C 0.65266 0.20809 0.46483 0.0
C247 C 0.65078 0.20106 0.54306 0.0
C248 C 0.69344 0.21255 0.55258 0.0
C249 C 0.71609 0.22198 0.51833 0.0
C250 C 0.57965 0.18715 0.48795 0.0
O251 O 0.6096 0.15856 0.57049 0.0
O252 O 0.54872 0.13822 0.58153 0.0
O253 O 0.71527 0.13843 0.53815 0.0
O254 O 0.71967 0.15702 0.4926 0.0
C255 C 0.5752 0.14917 0.59672 0.0
O256 O 0.53194 0.11165 0.54196 0.0
O257 O 0.66391 0.11251 0.51418 0.0
O258 O 0.61657 0.13512 0.44338 0.0
O259 O 0.5492 0.1551 0.43739 0.0
O260 O 0.44426 0.15629 0.51035 0.0
O261 O 0.45401 0.13505 0.49164 0.0
C262 C 0.75982 0.14749 0.51537 0.0
O263 O 0.61747 0.17946 0.4611 0.0
O264 O 0.53738 0.18066 0.52008 0.0
C265 C 0.59197 0.09187 0.51708 0.0
C266 C 0.59796 0.06525 0.50014 0.0
C267 C 0.54839 0.06948 0.53602 0.0
C268 C 0.54562 0.08263 0.54439 0.0
C269 C 0.63798 0.08779 0.47986 0.0
C270 C 0.64081 0.07462 0.47145 0.0
C271 C 0.60182 0.10513 0.53207 0.0
H272 H 0.7131 0.22644 0.44696 0.0
H273 H 0.63681 0.20655 0.43063 0.0
H274 H 0.63349 0.19407 0.57021 0.0
H275 H 0.70708 0.21414 0.58696 0.0
H276 H 0.51537 0.06256 0.55911 0.0
H277 H 0.51061 0.08549 0.57361 0.0
H278 H 0.67454 0.0947 0.45821 0.0
H279 H 0.6784 0.07173 0.4431 0.0
Tb280 Tb 0.49043 0.90666 0.4999 0.0
Eu281 Eu 0.49973 0.87452 0.49225 0.0
C282 C 0.50183 0.89442 0.408 0.0
C283 C 0.31896 0.89016 0.49916 0.0
C284 C 0.51708 0.94358 0.50657 0.0
C285 C 0.60838 0.96139 0.47553 0.0
C286 C 0.58031 0.94848 0.47554 0.0
C287 C 0.48582 0.95167 0.53882 0.0
C288 C 0.51398 0.96456 0.53889 0.0
C289 C 0.57374 0.9697 0.50646 0.0
C290 C 0.47269 0.93103 0.50166 0.0
O291 O 0.5375 0.89858 0.5639 0.0
O292 O 0.47152 0.87859 0.56352 0.0
O293 O 0.6403 0.8811 0.49867 0.0
O294 O 0.62764 0.90343 0.48673 0.0
C295 C 0.50791 0.88785 0.58496 0.0
O296 O 0.53971 0.85522 0.51939 0.0
O297 O 0.47208 0.85737 0.45645 0.0
O298 O 0.53967 0.88399 0.4259 0.0
O299 O 0.4568 0.90215 0.43249 0.0
O300 O 0.36305 0.89898 0.51874 0.0
O301 O 0.35813 0.88041 0.48129 0.0
C302 C 0.6749 0.89279 0.49191 0.0
O303 O 0.48949 0.92503 0.46593 0.0
O304 O 0.46324 0.92297 0.53656 0.0
C305 C 0.45912 0.83697 0.4978 0.0
C306 C 0.3746 0.81263 0.51257 0.0
C307 C 0.46628 0.81358 0.51405 0.0
C308 C 0.50795 0.82562 0.50673 0.0
C309 C 0.36749 0.83616 0.4971 0.0
C310 C 0.32563 0.8241 0.50444 0.0
C311 C 0.50596 0.8493 0.48673 0.0
H312 H 0.65399 0.96502 0.44986 0.0
H313 H 0.60526 0.94253 0.44998 0.0
H314 H 0.43657 0.94817 0.56289 0.0
H315 H 0.48722 0.97059 0.56374 0.0
H316 H 0.50601 0.80501 0.52093 0.0
H317 H 0.57874 0.82603 0.50741 0.0
H318 H 0.3284 0.84479 0.49013 0.0
H319 H 0.25499 0.82373 0.50263 0.0
H320 H 0.38293 0.40755 0.04704 0.0
H321 H 0.33637 0.37522 0.96547 0.0
H322 H 0.49379 0.37403 0.94848 0.0
H323 H 0.56422 0.42251 0.98124 0.0
H324 H 0.6266 0.42644 0.02889 0.0
H325 H 0.5089 0.42569 0.03252 0.0
H326 H 0.51858 0.40888 0.10007 0.0
H327 H 0.6362 0.40965 0.09683 0.0
H328 H 0.5812 0.39425 0.09509 0.0
H329 H 0.65172 0.37609 0.93945 0.0
H330 H 0.80918 0.37915 0.9462 0.0
H331 H 0.76379 0.40912 0.0385 0.0
C332 C 0.40635 0.4003 0.02543 0.0
C333 C 0.34766 0.39148 0.00736 0.0
C334 C 0.38031 0.382 0.97979 0.0
C335 C 0.46949 0.38132 0.96965 0.0
C336 C 0.52575 0.39007 0.98788 0.0
C337 C 0.49635 0.39925 0.01579 0.0
C338 C 0.5731 0.40672 0.03342 0.0
C339 C 0.56787 0.4212 0.01809 0.0
C340 C 0.57752 0.40475 0.08438 0.0
C341 C 0.64976 0.40019 0.01119 0.0
C342 C 0.61982 0.39081 0.98448 0.0
C343 C 0.67621 0.38334 0.96047 0.0
C344 C 0.76599 0.38517 0.96472 0.0
C345 C 0.79968 0.39428 0.99338 0.0
C346 C 0.7404 0.40211 0.01627 0.0
H347 H 0.31908 0.66436 -0.00174 0.0
H348 H 0.28085 0.62254 0.00235 0.0
H349 H 0.4395 0.61933 0.00465 0.0
H350 H 0.51197 0.66537 0.92829 0.0
H351 H 0.56626 0.67781 0.95693 0.0
H352 H 0.44854 0.67712 0.95639 0.0
H353 H 0.44458 0.676 0.04247 0.0
H354 H 0.56235 0.67665 0.04328 0.0
H355 H 0.50506 0.66347 0.07328 0.0
H356 H 0.59883 0.6202 0.0041 0.0
H357 H 0.75569 0.6251 0.00112 0.0
H358 H 0.69928 0.66637 -0.00063 0.0
C359 C 0.34418 0.65454 -0.00034 0.0
C360 C 0.28684 0.6437 0.00017 0.0
C361 C 0.32265 0.63102 0.00212 0.0
C362 C 0.413 0.62907 0.00344 0.0
C363 C 0.46738 0.63987 0.00305 0.0
C364 C 0.435 0.65237 0.00131 0.0
C365 C 0.50948 0.66219 0.00097 0.0
C366 C 0.50901 0.67115 0.95809 0.0
C367 C 0.50508 0.67004 0.04247 0.0
C368 C 0.58839 0.6532 0.00222 0.0
C369 C 0.56166 0.64038 0.00342 0.0
C370 C 0.62077 0.63018 0.00332 0.0
C371 C 0.70987 0.6331 0.00144 0.0
C372 C 0.73988 0.64612 -0.00012 0.0
C373 C 0.67823 0.65633 0.00092 0.0
H374 H 0.77827 0.62587 0.51652 0.0
H375 H 0.83605 0.66531 0.46502 0.0
H376 H 0.67954 0.66964 0.45586 0.0
H377 H 0.58861 0.62091 0.44516 0.0
H378 H 0.52645 0.61201 0.48836 0.0
H379 H 0.64426 0.61144 0.48863 0.0
H380 H 0.64383 0.61924 0.56849 0.0
H381 H 0.5261 0.61989 0.56839 0.0
H382 H 0.58841 0.63411 0.57957 0.0
H383 H 0.52057 0.6704 0.45434 0.0
H384 H 0.36183 0.66759 0.46065 0.0
H385 H 0.39844 0.62782 0.51457 0.0
C386 C 0.75757 0.63533 0.50284 0.0
C387 C 0.81935 0.64527 0.49163 0.0
C388 C 0.78996 0.65759 0.47427 0.0
C389 C 0.70112 0.66015 0.46872 0.0
C390 C 0.64177 0.65032 0.4808 0.0
C391 C 0.66799 0.63815 0.49751 0.0
C392 C 0.58872 0.62964 0.50948 0.0
C393 C 0.58692 0.6178 0.48122 0.0
C394 C 0.58667 0.62548 0.55945 0.0
C395 C 0.51474 0.63901 0.49714 0.0
C396 C 0.5476 0.65083 0.48043 0.0
C397 C 0.49368 0.66118 0.46717 0.0
C398 C 0.40326 0.65946 0.47096 0.0
C399 C 0.36698 0.64747 0.48806 0.0
C400 C 0.42387 0.6371 0.50133 0.0
H401 H 0.71196 0.37388 0.53233 0.0
H402 H 0.75898 0.41502 0.50149 0.0
H403 H 0.60074 0.41874 0.49528 0.0
H404 H 0.5271 0.37072 0.45983 0.0
H405 H 0.46649 0.35984 0.49812 0.0
H406 H 0.58426 0.3601 0.49959 0.0
H407 H 0.57812 0.36462 0.58298 0.0
H408 H 0.46032 0.36435 0.58179 0.0
H409 H 0.51656 0.37832 0.60034 0.0
H410 H 0.43975 0.4182 0.48898 0.0
H411 H 0.28182 0.41376 0.48907 0.0
H412 H 0.33085 0.37324 0.5291 0.0
C413 C 0.68876 0.38365 0.52426 0.0
C414 C 0.74849 0.39416 0.51734 0.0
C415 C 0.71515 0.40682 0.50721 0.0
C416 C 0.62509 0.40903 0.5034 0.0
C417 C 0.56816 0.39855 0.51039 0.0
C418 C 0.59809 0.38612 0.52114 0.0
C419 C 0.52135 0.37672 0.52819 0.0
C420 C 0.52505 0.36622 0.49442 0.0
C421 C 0.51896 0.37064 0.57618 0.0
C422 C 0.44411 0.38583 0.51938 0.0
C423 C 0.47339 0.39834 0.50869 0.0
C424 C 0.41594 0.40847 0.49762 0.0
C425 C 0.32611 0.40582 0.49758 0.0
C426 C 0.29345 0.39317 0.50916 0.0
C427 C 0.3536 0.38304 0.52046 0.0
H428 H 0.89834 0.87529 0.00811 0.0
H429 H 0.84327 0.9166 0.99094 0.0
H430 H 1.00006 0.92142 0.99209 0.0
H431 H 0.08847 0.8781 0.08124 0.0
H432 H 0.14977 0.8655 0.0564 0.0
H433 H 1.03192 0.86498 0.05725 0.0
H434 H 1.03209 0.86381 0.97171 0.0
H435 H 0.14985 0.86438 0.97059 0.0
H436 H 0.08818 0.87619 0.93714 0.0
H437 H 0.15891 0.92222 0.99215 0.0
H438 H 0.31743 0.91898 0.991 0.0
H439 H 0.27861 0.87716 0.00646 0.0
C440 C 0.91968 0.88532 0.00519 0.0
C441 C 0.85853 0.89557 -0.00072 0.0
C442 C 0.8888 0.90858 -0.00495 0.0
C443 C 0.97783 0.91145 -0.00414 0.0
C444 C 1.03653 0.90121 0.00077 0.0
C445 C 1.0095 0.8884 0.0054 0.0
C446 C 0.08825 0.87938 0.00832 0.0
C447 C 0.08967 0.87153 0.0535 0.0
C448 C 0.08964 0.87041 0.96963 0.0
C449 C 0.16288 0.88918 0.00412 0.0
C450 C 0.13073 0.90169 0.00016 0.0
C451 C 0.18525 0.91248 -0.00457 0.0
C452 C 0.27554 0.9105 -0.00519 0.0
C453 C 0.31116 0.8978 -0.0013 0.0
C454 C 0.25368 0.88698 0.00337 0.0
H455 H 0.19516 0.12957 0.03227 0.0
H456 H 0.24276 0.17033 0.99395 0.0
H457 H 0.08642 0.17354 0.97994 0.0
H458 H 1.02166 0.12439 0.95432 0.0
H459 H 0.95545 0.11436 0.99277 0.0
H460 H 0.07254 0.11472 -0.00111 0.0
H461 H 0.05367 0.12126 0.07985 0.0
H462 H 0.93656 0.1208 0.07409 0.0
H463 H 0.98897 0.13532 0.09074 0.0
H464 H 0.93045 0.17257 0.96634 0.0
H465 H 0.77378 0.16853 0.96406 0.0
H466 H 0.81417 0.12873 0.01708 0.0
C467 C 0.17223 0.13915 0.02106 0.0
C468 C 0.23151 0.14971 0.01423 0.0
C469 C 0.19897 0.16212 -0.00015 0.0
C470 C 0.11016 0.16403 0.99141 0.0
C471 C 0.05368 0.1535 -0.00186 0.0
C472 C 0.08235 0.14135 0.01347 0.0
C473 C 1.00509 0.13202 0.02002 0.0
C474 C 1.01427 0.1207 0.98969 0.0
C475 C 0.99552 0.12706 0.0691 0.0
C476 C 0.92926 0.14087 0.00567 0.0
C477 C 0.96012 0.15313 0.99254 0.0
C478 C 0.90511 0.16306 0.97696 0.0
C479 C 0.81556 0.16059 0.97574 0.0
C480 C 0.78025 0.1483 0.99071 0.0
C481 C 0.83853 0.13822 0.00544 0.0
H482 H 0.27749 0.16448 0.50049 0.0
H483 H 0.31608 0.12275 0.5003 0.0
H484 H 0.1577 0.11942 0.50279 0.0
H485 H 0.09037 0.16334 0.57478 0.0
H486 H 1.03239 0.17646 0.54564 0.0
H487 H 0.15015 0.17599 0.5433 0.0
H488 H 0.14591 0.17716 0.45731 0.0
H489 H 1.02809 0.17764 0.4594 0.0
H490 H 0.08306 0.16533 0.42992 0.0
H491 H 0.9987 0.11995 0.50918 0.0
H492 H 0.84176 0.12447 0.51468 0.0
H493 H 0.89528 0.1659 0.50685 0.0
C494 C 0.25242 0.15466 0.5008 0.0
C495 C 0.31018 0.14389 0.50012 0.0
C496 C 0.27425 0.13121 0.50049 0.0
C497 C 0.1839 0.12917 0.50204 0.0
C498 C 0.12911 0.13989 0.50279 0.0
C499 C 0.16122 0.15241 0.50177 0.0
C500 C 0.0859 0.1621 0.50252 0.0
C501 C 0.08997 0.16994 0.54404 0.0
C502 C 0.08575 0.17109 0.45974 0.0
C503 C 1.00715 0.15299 0.50466 0.0
C504 C 1.03464 0.14023 0.50504 0.0
C505 C 0.97614 0.1299 0.50859 0.0
C506 C 0.8869 0.13259 0.51192 0.0
C507 C 0.85585 0.14553 0.51122 0.0
C508 C 0.91696 0.15591 0.50709 0.0
H509 H 0.80389 0.87374 0.49233 0.0
H510 H 0.76522 0.91555 0.48877 0.0
H511 H 0.92363 0.91883 0.48776 0.0
H512 H 0.99043 0.8727 0.56385 0.0
H513 H 1.04784 0.86038 0.53549 0.0
H514 H 0.93011 0.86096 0.53476 0.0
H515 H 0.93376 0.86228 0.44866 0.0
H516 H 0.05157 0.86171 0.44914 0.0
H517 H 0.99659 0.87491 0.41884 0.0
H518 H 0.08208 0.91809 0.4902 0.0
H519 H 0.23868 0.91335 0.49442 0.0
H520 H 0.18407 0.87203 0.49441 0.0
C521 C 0.82886 0.88357 0.49118 0.0
C522 C 0.77143 0.89437 0.49058 0.0
C523 C 0.80706 0.90708 0.48907 0.0
C524 C 0.8973 0.90909 0.4885 0.0
C525 C 0.95178 0.89831 0.48918 0.0
C526 C 0.91967 0.8858 0.4903 0.0
C527 C 0.99439 0.87604 0.49122 0.0
C528 C 0.99043 0.86698 0.53387 0.0
C529 C 0.99403 0.86827 0.44947 0.0
C530 C 0.07296 0.88509 0.49106 0.0
C531 C 1.04587 0.89788 0.48988 0.0
C532 C 0.10438 0.90813 0.49093 0.0
C533 C 0.19333 0.90531 0.49356 0.0
C534 C 0.22371 0.89232 0.49494 0.0
C535 C 0.1627 0.88204 0.4931 0.0
H536 H 0.98074 0.54786 0.02427 0.0
H537 H 0.11625 0.55545 0.89788 0.0
H538 H 0.12152 0.53182 0.88827 0.0
H539 H 0.09999 0.51952 0.06027 0.0
H540 H 1.00657 0.51133 0.08621 0.0
H541 H 1.01121 0.52879 0.08195 0.0
H542 H 0.86261 0.52961 0.04135 0.0
H543 H 0.85773 0.51213 0.04529 0.0
H544 H 0.84996 0.52096 0.99181 0.0
H545 H 0.11731 0.50715 0.89457 0.0
H546 H 0.10596 0.48373 0.91634 0.0
H547 H 0.9687 0.49254 0.03758 0.0
C548 C 1.01213 0.54457 -0.00532 0.0
C549 C 0.04864 0.55351 0.96193 0.0
C550 C 0.0875 0.54879 0.92329 0.0
C551 C 0.09089 0.53539 0.9176 0.0
C552 C 0.05441 0.52685 0.95066 0.0
C553 C 1.0156 0.53128 0.98838 0.0
C554 C 0.9822 0.52015 0.0193 0.0
C555 C 1.02774 0.51994 0.0646 0.0
C556 C 0.88219 0.52075 0.02474 0.0
C557 C 1.00961 0.50871 0.99352 0.0
C558 C 0.05076 0.51276 0.95391 0.0
C559 C 0.08434 0.50389 0.92529 0.0
C560 C 0.07689 0.49057 0.93782 0.0
C561 C 1.0361 0.4862 0.97867 0.0
C562 C 1.00091 0.49549 0.00633 0.0
H563 H 0.91735 0.4909 0.49216 0.0
H564 H 0.09846 0.47744 0.59509 0.0
H565 H 0.11378 0.49987 0.61749 0.0
H566 H 1.03143 0.51927 0.45814 0.0
H567 H 0.93567 0.52911 0.44742 0.0
H568 H 0.93024 0.51183 0.44311 0.0
H569 H 0.80133 0.51029 0.49984 0.0
H570 H 0.80624 0.5276 0.50427 0.0
H571 H 0.81409 0.51675 0.55348 0.0
H572 H 0.12135 0.52405 0.62363 0.0
H573 H 0.12076 0.54792 0.61299 0.0
H574 H 0.93367 0.54573 0.50646 0.0
C575 C 0.95963 0.49262 0.51971 0.0
C576 C 1.00632 0.48232 0.54197 0.0
C577 C 0.06062 0.48506 0.578 0.0
C578 C 0.07013 0.49781 0.59085 0.0
C579 C 1.02453 0.50774 0.5676 0.0
C580 C 0.96993 0.50528 0.53294 0.0
C581 C 0.93252 0.51776 0.5116 0.0
C582 C 0.95909 0.5196 0.46215 0.0
C583 C 0.83261 0.51812 0.51768 0.0
C584 C 0.97673 0.52766 0.53875 0.0
C585 C 1.02873 0.52168 0.57121 0.0
C586 C 0.07964 0.52883 0.59882 0.0
C587 C 0.07836 0.54243 0.59268 0.0
C588 C 1.02668 0.54882 0.55907 0.0
C589 C 0.97416 0.54123 0.53237 0.0
H590 H 0.46693 0.99259 -0.0032 0.0
H591 H 0.64706 0.98967 0.88543 0.0
H592 H 0.65956 1.01352 0.87777 0.0
H593 H 0.35931 0.02268 0.95577 0.0
H594 H 0.3514 0.02872 0.01039 0.0
H595 H 0.34982 1.01149 0.00417 0.0
H596 H 0.48052 1.00854 0.05785 0.0
H597 H 0.48294 0.02576 0.06398 0.0
H598 H 0.57983 1.0176 0.04582 0.0
H599 H 0.66073 0.03777 0.88554 0.0
H600 H 0.64848 0.06034 0.90778 0.0
H601 H 0.47062 0.04731 0.01497 0.0
C602 C 0.50861 0.99693 0.97057 0.0
C603 C 0.55546 0.98915 0.94155 0.0
C604 C 0.60883 0.99534 0.90754 0.0
C605 C 0.617 1.00892 0.90311 0.0
C606 C 0.57142 1.01624 0.93288 0.0
C607 C 0.51791 1.01046 0.96582 0.0
C608 C 0.47915 0.02048 -0.00516 0.0
C609 C 0.37898 0.02087 0.99105 0.0
C610 C 0.50733 1.01794 0.0435 0.0
C611 C 0.52061 0.03275 0.97365 0.0
C612 C 0.57302 0.03014 0.93772 0.0
C613 C 0.61929 0.03994 0.91343 0.0
C614 C 0.61176 0.05274 0.92623 0.0
C615 C 0.55887 0.05563 0.9632 0.0
C616 C 0.51253 0.04544 0.98691 0.0
H617 H 0.47526 0.04567 0.51159 0.0
H618 H 0.74889 0.05272 0.47811 0.0
H619 H 0.77237 0.02916 0.4749 0.0
H620 H 0.50875 1.01738 0.58335 0.0
H621 H 0.41216 1.00912 0.5663 0.0
H622 H 0.41536 0.0266 0.56338 0.0
H623 H 0.37789 0.02736 0.47961 0.0
H624 H 0.37383 1.00989 0.48236 0.0
H625 H 0.44495 1.01853 0.44243 0.0
H626 H 0.76772 1.00464 0.479 0.0
H627 H 0.73357 0.98118 0.48721 0.0
H628 H 0.46315 0.99023 0.51785 0.0
C629 C 0.54011 0.04228 0.50344 0.0
C630 C 0.61009 0.05111 0.49489 0.0
C631 C 0.69377 0.04622 0.48402 0.0
C632 C 0.70798 0.03282 0.48247 0.0
C633 C 0.6379 0.0244 0.49177 0.0
C634 C 0.55546 0.02895 0.50175 0.0
C635 C 0.49154 1.01785 0.5111 0.0
C636 C 0.45482 1.01774 0.55887 0.0
C637 C 0.41771 1.01845 0.47682 0.0
C638 C 0.55111 1.00635 0.50533 0.0
C639 C 0.63525 1.01032 0.49412 0.0
C640 C 0.70187 1.00142 0.48748 0.0
C641 C 0.68178 0.98811 0.49208 0.0
C642 C 0.59572 0.98381 0.50325 0.0
C643 C 0.52991 0.99314 0.50998 0.0
H644 H 0.23449 0.29673 0.02015 0.0
H645 H 0.20306 0.30597 0.87858 0.0
H646 H 0.24916 0.28373 0.86374 0.0
H647 H 0.42785 0.27671 0.01087 0.0
H648 H 0.39506 0.26544 0.05634 0.0
H649 H 0.36053 0.28213 0.05548 0.0
H650 H 0.19891 0.27462 0.06265 0.0
H651 H 0.23289 0.25791 0.06306 0.0
H652 H 0.15538 0.26422 0.02254 0.0
H653 H 0.29675 0.26033 0.86448 0.0
H654 H 0.3465 0.23776 0.88056 0.0
H655 H 0.34983 0.244 0.02152 0.0
C656 C 0.23853 0.29416 0.98595 0.0
C657 C 0.2151 0.30313 0.95052 0.0
C658 C 0.21977 0.29925 0.90632 0.0
C659 C 0.24617 0.28665 0.89754 0.0
C660 C 0.26776 0.27802 0.93329 0.0
C661 C 0.26467 0.28163 0.9766 0.0
C662 C 0.29079 0.27049 0.00906 0.0
C663 C 0.37348 0.2739 0.03442 0.0
C664 C 0.21496 0.26658 0.04122 0.0
C665 C 0.30901 0.26004 0.97726 0.0
C666 C 0.29527 0.26457 0.93371 0.0
C667 C 0.30808 0.2567 0.89845 0.0
C668 C 0.33664 0.2439 0.90791 0.0
C669 C 0.35219 0.23908 0.95229 0.0
C670 C 0.33744 0.2473 0.9873 0.0
H671 H 0.70138 0.79664 0.97655 0.0
H672 H 0.83578 0.80795 0.094 0.0
H673 H 0.90213 0.78619 0.10338 0.0
H674 H 0.65185 0.76444 0.01638 0.0
H675 H 0.67071 0.75737 0.96405 0.0
H676 H 0.63664 0.77405 0.96484 0.0
H677 H 0.77202 0.78137 0.91704 0.0
H678 H 0.80616 0.76469 0.91576 0.0
H679 H 0.87973 0.77661 0.93554 0.0
H680 H 0.94757 0.76304 0.10272 0.0
H681 H 0.97638 0.74011 0.08959 0.0
H682 H 0.81523 0.74365 0.97179 0.0
C683 C 0.74603 0.79462 0.00375 0.0
C684 C 0.7629 0.804 0.03472 0.0
C685 C 0.82078 0.80088 0.07025 0.0
C686 C 0.85915 0.78856 0.07575 0.0
C687 C 0.83961 0.77947 0.04528 0.0
C688 C 0.78518 0.78235 0.00971 0.0
C689 C 0.77388 0.77067 0.98233 0.0
C690 C 0.67755 0.76638 0.9819 0.0
C691 C 0.81013 0.77351 0.93485 0.0
C692 C 0.82958 0.76075 0.00844 0.0
C693 C 0.86677 0.76606 0.04463 0.0
C694 C 0.9191 0.75877 0.07441 0.0
C695 C 0.93443 0.74572 0.06688 0.0
C696 C 0.89768 0.74005 0.02984 0.0
C697 C 0.84467 0.74773 0.00023 0.0
H698 H 0.29949 0.73716 0.47673 0.0
H699 H 0.06143 0.73947 0.55568 0.0
H700 H 0.09434 0.76232 0.56801 0.0
H701 H 0.4323 0.75806 0.54411 0.0
H702 H 0.48983 0.76544 0.49633 0.0
H703 H 0.45014 0.74901 0.49571 0.0
H704 H 0.36489 0.75529 0.42365 0.0
H705 H 0.40388 0.77173 0.42419 0.0
H706 H 0.28804 0.76854 0.42294 0.0
H707 H 0.14844 0.78527 0.56853 0.0
H708 H 0.22292 0.80653 0.55918 0.0
H709 H 0.42618 0.78944 0.48011 0.0
C710 C 0.25518 0.7424 0.49732 0.0
C711 C 0.17754 0.7365 0.51501 0.0
C712 C 0.12066 0.7438 0.54122 0.0
C713 C 0.13901 0.75678 0.54864 0.0
C714 C 0.21494 0.76237 0.52995 0.0
C715 C 0.27256 0.7554 0.50512 0.0
C716 C 0.3483 0.76388 0.48775 0.0
C717 C 0.43529 0.75879 0.50714 0.0
C718 C 0.3514 0.76492 0.4366 0.0
C719 C 0.32331 0.77673 0.50601 0.0
C720 C 0.24637 0.77562 0.53043 0.0
C721 C 0.20902 0.78624 0.54966 0.0
C722 C 0.25149 0.79831 0.54387 0.0
C723 C 0.33055 0.79972 0.51896 0.0
C724 C 0.36666 0.7887 0.49994 0.0
H725 H 0.81695 0.29859 0.49695 0.0
H726 H 1.00188 0.29158 0.60399 0.0
H727 H 0.96925 0.26815 0.6063 0.0
H728 H 0.6577 0.27528 0.53877 0.0
H729 H 0.62844 0.27019 0.48487 0.0
H730 H 0.66848 0.28641 0.49026 0.0
H731 H 0.79081 0.28274 0.43225 0.0
H732 H 0.75105 0.26651 0.42665 0.0
H733 H 0.86351 0.26909 0.44102 0.0
H734 H 0.91573 0.24554 0.59802 0.0
H735 H 0.84377 0.22521 0.57999 0.0
H736 H 0.69004 0.24672 0.47962 0.0
C737 C 0.85115 0.29209 0.52052 0.0
C738 C 0.91173 0.29694 0.55044 0.0
C739 C 0.95443 0.28813 0.58114 0.0
C740 C 0.9367 0.27479 0.58256 0.0
C741 C 0.87597 0.27034 0.55307 0.0
C742 C 0.83374 0.2787 0.5226 0.0
C743 C 0.76961 0.27137 0.4955 0.0
C744 C 0.67549 0.27609 0.50281 0.0
C745 C 0.79531 0.27249 0.44591 0.0
C746 C 0.78229 0.25762 0.51564 0.0
C747 C 0.84422 0.25726 0.54865 0.0
C748 C 0.86691 0.24571 0.57229 0.0
C749 C 0.82509 0.2342 0.56201 0.0
C750 C 0.76076 0.23429 0.52849 0.0
C751 C 0.73958 0.24623 0.50504 0.0
H752 H 0.06674 0.40466 0.16711 0.0
H753 H 1.00744 0.36452 0.14476 0.0
H754 H 0.98944 0.35965 0.22574 0.0
H755 H 0.1878 0.39868 0.26746 0.0
H756 H 0.14427 0.41255 0.29344 0.0
H757 H 0.15335 0.41281 0.23376 0.0
H758 H 0.98803 0.41802 0.22719 0.0
H759 H 0.97842 0.41776 0.28686 0.0
H760 H 0.90946 0.40744 0.25632 0.0
H761 H 0.98384 0.35899 0.30962 0.0
H762 H 0.98258 0.36291 0.3897 0.0
H763 H 1.03736 0.40371 0.35666 0.0
C764 C 0.05024 0.39484 0.17927 0.0
C765 C 1.03895 0.38495 0.14968 0.0
C766 C 1.01627 0.37226 0.16684 0.0
C767 C 1.00608 0.36939 0.21278 0.0
C768 C 1.01767 0.37936 0.24108 0.0
C769 C 1.03846 0.39186 0.22497 0.0
C770 C 1.04548 0.40086 0.26238 0.0
C771 C 0.13825 0.40656 0.26437 0.0
C772 C 0.97621 0.41166 0.25791 0.0
C773 C 1.02628 0.39146 0.30207 0.0
C774 C 1.01099 0.37908 0.28914 0.0
C775 C 0.99495 0.36867 0.32011 0.0
C776 C 0.99454 0.37097 0.3655 0.0
C777 C 1.00902 0.38362 0.37939 0.0
C778 C 1.02468 0.39397 0.34708 0.0
H779 H 1.02638 0.66127 0.14969 0.0
H780 H 0.99659 0.62018 0.1314 0.0
H781 H 1.01338 0.61527 0.2123 0.0
H782 H 0.18573 0.6586 0.23482 0.0
H783 H 0.14039 0.67135 0.26599 0.0
H784 H 0.12552 0.67168 0.20674 0.0
H785 H 0.95753 0.67288 0.21798 0.0
H786 H 0.97189 0.67265 0.27727 0.0
H787 H 0.90297 0.66071 0.2541 0.0
H788 H 1.04473 0.61475 0.29413 0.0
H789 H 0.07051 0.61878 0.37281 0.0
H790 H 0.06771 0.6603 0.33907 0.0
C791 C 1.02295 0.65124 0.1628 0.0
C792 C 1.01052 0.64108 0.13436 0.0
C793 C 1.00561 0.6281 0.15269 0.0
C794 C 1.01551 0.62522 0.19852 0.0
C795 C 1.02866 0.63545 0.22562 0.0
C796 C 1.03077 0.64822 0.20859 0.0
C797 C 1.04359 0.65742 0.24512 0.0
C798 C 0.12888 0.66522 0.23771 0.0
C799 C 0.96425 0.66645 0.24883 0.0
C800 C 0.0496 0.64782 0.28529 0.0
C801 C 1.04191 0.63519 0.27318 0.0
C802 C 0.04971 0.6246 0.30408 0.0
C803 C 0.06483 0.62698 0.34861 0.0
C804 C 0.0705 0.63984 0.36194 0.0
C805 C 0.06255 0.65038 0.32981 0.0
H806 H 1.04375 0.63095 0.84624 0.0
H807 H 0.06746 0.67231 0.86152 0.0
H808 H 0.09203 0.67618 0.78075 0.0
H809 H 0.2054 0.62894 0.75694 0.0
H810 H 0.14258 0.61749 0.72783 0.0
H811 H 0.1324 0.61776 0.78739 0.0
H812 H 0.96496 0.6209 0.78031 0.0
H813 H 0.97462 0.62065 0.72077 0.0
H814 H 0.92344 0.63425 0.74506 0.0
H815 H 0.11321 0.67574 0.6989 0.0
H816 H 0.12017 0.67119 0.61975 0.0
H817 H 0.07495 0.63025 0.65576 0.0
C818 C 0.05513 0.64079 0.83254 0.0
C819 C 0.05422 0.65133 0.86013 0.0
C820 C 0.06773 0.66409 0.84097 0.0
C821 C 0.08212 0.66639 0.79516 0.0
C822 C 0.08191 0.65584 0.76878 0.0
C823 C 0.06812 0.6433 0.78657 0.0
C824 C 0.06639 0.63382 0.75024 0.0
C825 C 0.14116 0.62392 0.75595 0.0
C826 C 0.97703 0.62701 0.74903 0.0
C827 C 0.08102 0.64302 0.70938 0.0
C828 C 0.0909 0.65565 0.72101 0.0
C829 C 0.10555 0.66589 0.68932 0.0
C830 C 0.10961 0.6632 0.64441 0.0
C831 C 0.09798 0.65037 0.63148 0.0
C832 C 0.08373 0.64016 0.66456 0.0
H833 H 0.05742 0.38025 0.67422 0.0
H834 H 1.04251 0.42146 0.63542 0.0
H835 H 0.05736 0.42638 0.71416 0.0
H836 H 0.93566 0.38079 0.77539 0.0
H837 H 1.00277 0.36883 0.805 0.0
H838 H 0.99197 0.36866 0.74563 0.0
H839 H 0.16057 0.36994 0.73626 0.0
H840 H 0.17187 0.37014 0.79563 0.0
H841 H 0.21947 0.38296 0.75952 0.0
H842 H 0.06596 0.42664 0.79807 0.0
H843 H 0.07477 0.42225 0.87964 0.0
H844 H 0.09127 0.38094 0.86213 0.0
C845 C 0.05718 0.39032 0.68219 0.0
C846 C 1.04828 0.40047 0.64867 0.0
C847 C 0.04933 0.41352 0.66053 0.0
C848 C 0.05762 0.41641 0.70516 0.0
C849 C 0.06595 0.40615 0.73739 0.0
C850 C 0.06656 0.39337 0.72635 0.0
C851 C 0.07685 0.38412 0.76708 0.0
C852 C 0.99705 0.37507 0.77365 0.0
C853 C 0.16228 0.37634 0.76445 0.0
C854 C 0.08081 0.39366 0.80293 0.0
C855 C 0.07406 0.40632 0.78523 0.0
C856 C 0.07223 0.41677 0.81222 0.0
C857 C 0.0771 0.41419 0.85848 0.0
C858 C 0.08459 0.40127 0.87718 0.0
C859 C 0.08712 0.39093 0.84883 0.0
H860 H 0.56191 0.87948 0.15284 0.0
H861 H 0.57842 0.92102 0.12098 0.0
H862 H 0.55838 0.92481 0.20082 0.0
H863 H 0.40081 0.87976 0.23895 0.0
H864 H 0.4506 0.86694 0.2735 0.0
H865 H 0.46572 0.86755 0.21405 0.0
H866 H 0.63391 0.86753 0.2236 0.0
H867 H 0.61935 0.86683 0.28311 0.0
H868 H 0.68393 0.87965 0.25547 0.0
H869 H 0.5261 0.92392 0.28388 0.0
H870 H 0.50339 0.91849 0.36447 0.0
H871 H 0.52051 0.87749 0.34228 0.0
C872 C 0.56151 0.88938 0.16271 0.0
C873 C 0.57106 0.89998 0.13082 0.0
C874 C 0.57141 0.91277 0.14498 0.0
C875 C 0.55963 0.91501 0.19017 0.0
C876 C 0.54932 0.90432 0.22075 0.0
C877 C 0.55188 0.89175 0.20768 0.0
C878 C 0.54231 0.88194 0.24718 0.0
C879 C 0.45996 0.87356 0.24316 0.0
C880 C 0.6248 0.87349 0.25266 0.0
C881 C 0.53278 0.89094 0.28458 0.0
C882 C 0.5358 0.90381 0.26862 0.0
C883 C 0.52466 0.91388 0.29676 0.0
C884 C 0.51129 0.9107 0.3424 0.0
C885 C 0.51072 0.89759 0.35955 0.0
C886 C 0.52158 0.88761 0.33013 0.0
H887 H 0.4992 0.13002 0.16579 0.0
H888 H 0.62662 0.1671 0.13144 0.0
H889 H 0.65905 0.1693 0.20976 0.0
H890 H 0.3997 0.139 0.26696 0.0
H891 H 0.41699 0.12359 0.29743 0.0
H892 H 0.40637 0.12433 0.23787 0.0
H893 H 0.55572 0.11277 0.23101 0.0
H894 H 0.56692 0.11204 0.2906 0.0
H895 H 0.65122 0.11954 0.25528 0.0
H896 H 0.66958 0.16873 0.29035 0.0
H897 H 0.6598 0.16502 0.37184 0.0
H898 H 0.53259 0.12797 0.35798 0.0
C899 C 0.53436 0.13854 0.17482 0.0
C900 C 0.56024 0.14837 0.14216 0.0
C901 C 0.60605 0.15939 0.15546 0.0
C902 C 0.62511 0.16075 0.20004 0.0
C903 C 0.59876 0.15099 0.23128 0.0
C904 C 0.55475 0.14006 0.21961 0.0
C905 C 0.53248 0.13125 0.26076 0.0
C906 C 0.43297 0.12944 0.26606 0.0
C907 C 0.57939 0.11812 0.25931 0.0
C908 C 0.56917 0.13915 0.2971 0.0
C909 C 0.60725 0.15048 0.27893 0.0
C910 C 0.6412 0.15982 0.30509 0.0
C911 C 0.63527 0.15764 0.35124 0.0
C912 C 0.59664 0.14617 0.37083 0.0
C913 C 0.56418 0.13668 0.34355 0.0
H914 H 0.51553 0.12951 0.85781 0.0
H915 H 0.48135 0.17071 0.874 0.0
H916 H 0.50314 0.17541 0.79372 0.0
H917 H 0.68028 0.13251 0.77134 0.0
H918 H 0.63726 0.11966 0.74031 0.0
H919 H 0.62041 0.11928 0.79965 0.0
H920 H 0.45302 0.11765 0.78902 0.0
H921 H 0.46938 0.11795 0.72966 0.0
H922 H 0.39847 0.1297 0.75319 0.0
H923 H 0.53514 0.17604 0.71316 0.0
H924 H 0.56048 0.17229 0.63417 0.0
H925 H 0.56412 0.13068 0.66704 0.0
C926 C 0.51249 0.13949 0.84429 0.0
C927 C 0.49669 0.14973 0.87221 0.0
C928 C 0.49261 0.16267 0.85333 0.0
C929 C 0.50543 0.16548 0.80772 0.0
C930 C 0.5211 0.15523 0.78113 0.0
C931 C 0.52341 0.14248 0.79837 0.0
C932 C 0.53842 0.13334 0.76163 0.0
C933 C 0.62421 0.12575 0.76867 0.0
C934 C 0.46015 0.12411 0.75818 0.0
C935 C 0.54485 0.14299 0.72138 0.0
C936 C 0.53571 0.15557 0.73367 0.0
C937 C 0.54173 0.16624 0.70295 0.0
C938 C 0.55655 0.16401 0.6582 0.0
C939 C 0.56389 0.15121 0.64448 0.0
C940 C 0.55801 0.14057 0.67657 0.0
H941 H 0.5276 0.90648 0.64571 0.0
H942 H 0.50791 0.86485 0.63497 0.0
H943 H 0.52356 0.86129 0.71618 0.0
H944 H 0.68582 0.90565 0.73362 0.0
H945 H 0.6364 0.91871 0.76176 0.0
H946 H 0.62522 0.91811 0.70251 0.0
H947 H 0.45664 0.91891 0.71121 0.0
H948 H 0.4673 0.91951 0.77051 0.0
H949 H 0.40189 0.907 0.74829 0.0
H950 H 0.54638 0.86203 0.7975 0.0
H951 H 0.56555 0.86705 0.87548 0.0
H952 H 0.56199 0.90828 0.83592 0.0
C953 C 0.52689 0.89662 0.66049 0.0
C954 C 0.51689 0.88593 0.63391 0.0
C955 C 0.51522 0.87319 0.65458 0.0
C956 C 0.52432 0.87106 0.7007 0.0
C957 C 0.53394 0.88177 0.72593 0.0
C958 C 0.53444 0.89432 0.70677 0.0
C959 C 0.54344 0.90409 0.74196 0.0
C960 C 0.62775 0.91211 0.73451 0.0
C961 C 0.46249 0.9129 0.74305 0.0
C962 C 0.5486 0.89505 0.78377 0.0
C963 C 0.54371 0.88223 0.77352 0.0
C964 C 0.54972 0.87204 0.80601 0.0
C965 C 0.56093 0.875 0.85024 0.0
C966 C 0.56501 0.88806 0.86187 0.0
C967 C 0.55825 0.89822 0.8281 0.0
loop_
_geom_bond_atom_site_label_1
_geom_bond_atom_site_label_2
_geom_bond_distance
_geom_bond_site_symmetry_2
_ccdc_geom_bond_type
Tb0 C10 2.827 . S
Tb0 O11 2.347 1_554 S
Tb0 O14 2.366 1_455 S
Tb0 O19 2.418 . S
Tb0 O20 2.384 . S
Tb0 O23 2.479 . S
Tb0 O24 2.471 1_554 S
Eu1 O12 2.397 1_554 S
Eu1 O13 2.384 1_455 S
Eu1 O16 2.471 1_554 S
Eu1 O17 2.483 . S
Eu1 O18 2.365 . S
Eu1 O21 2.365 1_554 S
Eu1 C31 2.828 . S
C2 O18 1.259 . S
C2 O19 1.265 . S
C3 O20 1.255 . S
C3 O21 1.265 1_554 S
C4 C6 1.380 1_556 S
C4 C7 1.374 . S
C4 C10 1.505 1_656 S
C5 C6 1.384 . S
C5 C9 1.387 1_554 S
C5 H32 0.930 . S
C6 C4 1.380 1_554 S
C6 C5 1.384 . S
C6 H33 0.931 . S
C7 C4 1.374 . S
C7 C8 1.390 . S
C7 H34 0.930 . S
C8 C7 1.390 . S
C8 C9 1.391 . S
C8 H35 0.930 . S
C9 C5 1.387 1_556 S
C9 C8 1.391 . S
C10 Tb0 2.827 . S
C10 C4 1.505 1_454 S
C10 O23 1.253 . S
C10 O24 1.234 1_554 S
O11 Tb0 2.347 1_556 S
O11 C15 1.259 . S
O12 Eu1 2.397 1_556 S
O12 C15 1.265 . S
O13 Eu1 2.384 1_655 S
O13 C22 1.255 . S
O14 Tb0 2.366 1_655 S
O14 C22 1.265 . S
C15 O11 1.259 . S
C15 O12 1.265 . S
O16 Eu1 2.471 1_556 S
O16 C31 1.238 1_556 S
O17 Eu1 2.483 . S
O17 C31 1.247 . S
O18 Eu1 2.365 . S
O18 C2 1.259 . S
O19 Tb0 2.418 . S
O19 C2 1.265 . S
O20 Tb0 2.384 . S
O20 C3 1.255 . S
O21 Eu1 2.365 1_556 S
O21 C3 1.265 1_556 S
C22 O13 1.255 . S
C22 O14 1.265 . S
O23 Tb0 2.479 . S
O23 C10 1.253 . S
O24 Tb0 2.471 1_556 S
O24 C10 1.234 1_556 S
C25 C28 1.380 1_554 S
C25 C29 1.374 . S
C25 C31 1.507 . S
C26 C27 1.387 1_554 S
C26 C30 1.391 . S
C27 C26 1.387 1_556 S
C27 C28 1.384 . S
C27 H36 0.930 . S
C28 C25 1.380 1_556 S
C28 C27 1.384 . S
C28 H37 0.931 . S
C29 C25 1.374 . S
C29 C30 1.390 . S
C29 H38 0.930 . S
C30 C26 1.391 . S
C30 C29 1.390 . S
C30 H39 0.930 . S
C31 Eu1 2.828 . S
C31 O16 1.238 1_554 S
C31 O17 1.247 . S
C31 C25 1.507 . S
H32 C5 0.930 . S
H33 C6 0.931 . S
H34 C7 0.930 . S
H35 C8 0.930 . S
H36 C27 0.930 . S
H37 C28 0.931 . S
H38 C29 0.930 . S
H39 C30 0.930 . S
Tb40 C50 2.825 . S
Tb40 O51 2.347 1_554 S
Tb40 O54 2.366 1_655 S
Tb40 O59 2.418 . S
Tb40 O60 2.384 . S
Tb40 O63 2.479 . S
Tb40 O64 2.471 1_554 S
Eu41 O52 2.418 . S
Eu41 O53 2.384 1_655 S
Eu41 O56 2.479 . S
Eu41 O57 2.471 1_556 S
Eu41 O58 2.347 1_556 S
Eu41 O61 2.366 . S
Eu41 C71 2.825 1_556 S
C42 O58 1.259 . S
C42 O59 1.265 . S
C43 O60 1.255 . S
C43 O61 1.265 1_554 S
C44 C46 1.380 . S
C44 C47 1.374 1_554 S
C44 C50 1.507 1_455 S
C45 C46 1.384 . S
C45 C49 1.387 1_554 S
C45 H72 0.930 . S
C46 C44 1.380 . S
C46 C45 1.384 . S
C46 H73 0.931 . S
C47 C44 1.374 1_556 S
C47 C48 1.390 . S
C47 H74 0.930 . S
C48 C47 1.390 . S
C48 C49 1.391 . S
C48 H75 0.930 . S
C49 C45 1.387 1_556 S
C49 C48 1.391 . S
C50 Tb40 2.825 . S
C50 C44 1.507 1_655 S
C50 O63 1.238 . S
C50 O64 1.247 1_554 S
O51 Tb40 2.347 1_556 S
O51 C55 1.259 . S
O52 Eu41 2.418 . S
O52 C55 1.265 . S
O53 Eu41 2.384 1_455 S
O53 C62 1.255 1_556 S
O54 Tb40 2.366 1_455 S
O54 C62 1.265 . S
C55 O51 1.259 . S
C55 O52 1.265 . S
O56 Eu41 2.479 . S
O56 C71 1.238 1_556 S
O57 Eu41 2.471 1_554 S
O57 C71 1.247 . S
O58 Eu41 2.347 1_554 S
O58 C42 1.259 . S
O59 Tb40 2.418 . S
O59 C42 1.265 . S
O60 Tb40 2.384 . S
O60 C43 1.255 . S
O61 Eu41 2.366 . S
O61 C43 1.265 1_556 S
C62 O53 1.255 1_554 S
C62 O54 1.265 . S
O63 Tb40 2.479 . S
O63 C50 1.238 . S
O64 Tb40 2.471 1_556 S
O64 C50 1.247 1_556 S
C65 C68 1.380 1_554 S
C65 C69 1.374 . S
C65 C71 1.507 . S
C66 C67 1.387 1_554 S
C66 C70 1.391 . S
C67 C66 1.387 1_556 S
C67 C68 1.384 . S
C67 H76 0.930 . S
C68 C65 1.380 1_556 S
C68 C67 1.384 . S
C68 H77 0.931 . S
C69 C65 1.374 . S
C69 C70 1.390 . S
C69 H78 0.930 . S
C70 C66 1.391 . S
C70 C69 1.390 . S
C70 H79 0.930 . S
C71 Eu41 2.825 1_554 S
C71 O56 1.238 1_554 S
C71 O57 1.247 . S
C71 C65 1.507 . S
H72 C45 0.930 . S
H73 C46 0.931 . S
H74 C47 0.930 . S
H75 C48 0.930 . S
H76 C67 0.930 . S
H77 C68 0.931 . S
H78 C69 0.930 . S
H79 C70 0.930 . S
Tb80 C90 2.825 . S
Tb80 O91 2.347 . S
Tb80 O94 2.366 . S
Tb80 O99 2.418 . S
Tb80 O100 2.384 1_455 S
Tb80 O103 2.479 . S
Tb80 O104 2.471 . S
Eu81 O92 2.418 . S
Eu81 O93 2.384 . S
Eu81 O96 2.479 . S
Eu81 O97 2.471 . S
Eu81 O98 2.347 . S
Eu81 O101 2.366 1_455 S
Eu81 C111 2.825 . S
C82 O98 1.259 . S
C82 O99 1.265 . S
C83 O100 1.255 . S
C83 O101 1.265 . S
C84 C86 1.380 . S
C84 C87 1.374 . S
C84 C90 1.507 . S
C85 C86 1.384 . S
C85 C89 1.387 . S
C85 H112 0.930 . S
C86 C84 1.380 . S
C86 C85 1.384 . S
C86 H113 0.931 . S
C87 C84 1.374 . S
C87 C88 1.390 . S
C87 H114 0.930 . S
C88 C87 1.390 . S
C88 C89 1.391 . S
C88 H115 0.930 . S
C89 C85 1.387 . S
C89 C88 1.391 . S
C90 Tb80 2.825 . S
C90 C84 1.507 . S
C90 O103 1.238 . S
C90 O104 1.247 . S
O91 Tb80 2.347 . S
O91 C95 1.259 . S
O92 Eu81 2.418 . S
O92 C95 1.265 . S
O93 Eu81 2.384 . S
O93 C102 1.255 . S
O94 Tb80 2.366 . S
O94 C102 1.265 . S
C95 O91 1.259 . S
C95 O92 1.265 . S
O96 Eu81 2.479 . S
O96 C111 1.238 . S
O97 Eu81 2.471 . S
O97 C111 1.247 . S
O98 Eu81 2.347 . S
O98 C82 1.259 . S
O99 Tb80 2.418 . S
O99 C82 1.265 . S
O100 Tb80 2.384 1_655 S
O100 C83 1.255 . S
O101 Eu81 2.366 1_655 S
O101 C83 1.265 . S
C102 O93 1.255 . S
C102 O94 1.265 . S
O103 Tb80 2.479 . S
O103 C90 1.238 . S
O104 Tb80 2.471 . S
O104 C90 1.247 . S
C105 C108 1.380 . S
C105 C109 1.374 . S
C105 C111 1.507 1_655 S
C106 C107 1.387 . S
C106 C110 1.391 . S
C107 C106 1.387 . S
C107 C108 1.384 . S
C107 H116 0.930 . S
C108 C105 1.380 . S
C108 C107 1.384 . S
C108 H117 0.931 . S
C109 C105 1.374 . S
C109 C110 1.390 . S
C109 H118 0.930 . S
C110 C106 1.391 . S
C110 C109 1.390 . S
C110 H119 0.930 . S
C111 Eu81 2.825 . S
C111 O96 1.238 . S
C111 O97 1.247 . S
C111 C105 1.507 1_455 S
H112 C85 0.930 . S
H113 C86 0.931 . S
H114 C87 0.930 . S
H115 C88 0.930 . S
H116 C107 0.930 . S
H117 C108 0.931 . S
H118 C109 0.930 . S
H119 C110 0.930 . S
Tb120 C130 2.825 . S
Tb120 O131 2.347 . S
Tb120 O134 2.366 1_655 S
Tb120 O139 2.418 . S
Tb120 O140 2.384 . S
Tb120 O143 2.479 . S
Tb120 O144 2.471 . S
Eu121 O132 2.418 . S
Eu121 O133 2.384 1_655 S
Eu121 O136 2.479 . S
Eu121 O137 2.471 . S
Eu121 O138 2.347 . S
Eu121 O141 2.366 . S
Eu121 C151 2.825 . S
C122 O138 1.259 . S
C122 O139 1.265 . S
C123 O140 1.255 . S
C123 O141 1.265 . S
C124 C126 1.380 . S
C124 C127 1.374 . S
C124 C130 1.507 1_455 S
C125 C126 1.384 . S
C125 C129 1.387 . S
C125 H152 0.930 . S
C126 C124 1.380 . S
C126 C125 1.384 . S
C126 H153 0.931 . S
C127 C124 1.374 . S
C127 C128 1.390 . S
C127 H154 0.930 . S
C128 C127 1.390 . S
C128 C129 1.391 . S
C128 H155 0.930 . S
C129 C125 1.387 . S
C129 C128 1.391 . S
C130 Tb120 2.825 . S
C130 C124 1.507 1_655 S
C130 O143 1.238 . S
C130 O144 1.247 . S
O131 Tb120 2.347 . S
O131 C135 1.259 . S
O132 Eu121 2.418 . S
O132 C135 1.265 . S
O133 Eu121 2.384 1_455 S
O133 C142 1.255 . S
O134 Tb120 2.366 1_455 S
O134 C142 1.265 . S
C135 O131 1.259 . S
C135 O132 1.265 . S
O136 Eu121 2.479 . S
O136 C151 1.238 . S
O137 Eu121 2.471 . S
O137 C151 1.247 . S
O138 Eu121 2.347 . S
O138 C122 1.259 . S
O139 Tb120 2.418 . S
O139 C122 1.265 . S
O140 Tb120 2.384 . S
O140 C123 1.255 . S
O141 Eu121 2.366 . S
O141 C123 1.265 . S
C142 O133 1.255 . S
C142 O134 1.265 . S
O143 Tb120 2.479 . S
O143 C130 1.238 . S
O144 Tb120 2.471 . S
O144 C130 1.247 . S
C145 C148 1.380 . S
C145 C149 1.374 . S
C145 C151 1.507 . S
C146 C147 1.387 . S
C146 C150 1.391 . S
C147 C146 1.387 . S
C147 C148 1.384 . S
C147 H156 0.930 . S
C148 C145 1.380 . S
C148 C147 1.384 . S
C148 H157 0.931 . S
C149 C145 1.374 . S
C149 C150 1.390 . S
C149 H158 0.930 . S
C150 C146 1.391 . S
C150 C149 1.390 . S
C150 H159 0.930 . S
C151 Eu121 2.825 . S
C151 O136 1.238 . S
C151 O137 1.247 . S
C151 C145 1.507 . S
H152 C125 0.930 . S
H153 C126 0.931 . S
H154 C127 0.930 . S
H155 C128 0.930 . S
H156 C147 0.930 . S
H157 C148 0.931 . S
H158 C149 0.930 . S
H159 C150 0.930 . S
Tb160 C170 2.827 . S
Tb160 O171 2.347 1_554 S
Tb160 O174 2.366 . S
Tb160 O179 2.418 . S
Tb160 O180 2.384 . S
Tb160 O183 2.479 . S
Tb160 O184 2.471 1_554 S
Eu161 O172 2.396 1_554 S
Eu161 O173 2.384 . S
Eu161 O176 2.471 1_554 S
Eu161 O177 2.484 . S
Eu161 O178 2.366 . S
Eu161 O181 2.365 1_554 S
Eu161 C191 2.828 . S
C162 O178 1.259 . S
C162 O179 1.265 . S
C163 O180 1.255 . S
C163 O181 1.265 1_554 S
C164 C166 1.380 1_556 S
C164 C167 1.374 . S
C164 C170 1.505 1_556 S
C165 C166 1.384 . S
C165 C169 1.387 1_554 S
C165 H192 0.930 . S
C166 C164 1.380 1_554 S
C166 C165 1.384 . S
C166 H193 0.931 . S
C167 C164 1.374 . S
C167 C168 1.390 . S
C167 H194 0.930 . S
C168 C167 1.390 . S
C168 C169 1.391 . S
C168 H195 0.930 . S
C169 C165 1.387 1_556 S
C169 C168 1.391 . S
C170 Tb160 2.827 . S
C170 C164 1.505 1_554 S
C170 O183 1.253 . S
C170 O184 1.233 1_554 S
O171 Tb160 2.347 1_556 S
O171 C175 1.259 . S
O172 Eu161 2.396 1_556 S
O172 C175 1.265 . S
O173 Eu161 2.384 . S
O173 C182 1.255 . S
O174 Tb160 2.366 . S
O174 C182 1.265 . S
C175 O171 1.259 . S
C175 O172 1.265 . S
O176 Eu161 2.471 1_556 S
O176 C191 1.238 1_556 S
O177 Eu161 2.484 . S
O177 C191 1.247 . S
O178 Eu161 2.366 . S
O178 C162 1.259 . S
O179 Tb160 2.418 . S
O179 C162 1.265 . S
O180 Tb160 2.384 . S
O180 C163 1.255 . S
O181 Eu161 2.365 1_556 S
O181 C163 1.265 1_556 S
C182 O173 1.255 . S
C182 O174 1.265 . S
O183 Tb160 2.479 . S
O183 C170 1.253 . S
O184 Tb160 2.471 1_556 S
O184 C170 1.233 1_556 S
C185 C188 1.380 1_554 S
C185 C189 1.374 . S
C185 C191 1.507 . S
C186 C187 1.387 1_554 S
C186 C190 1.391 . S
C187 C186 1.387 1_556 S
C187 C188 1.384 . S
C187 H196 0.930 . S
C188 C185 1.380 1_556 S
C188 C187 1.384 . S
C188 H197 0.931 . S
C189 C185 1.374 . S
C189 C190 1.390 . S
C189 H198 0.930 . S
C190 C186 1.391 . S
C190 C189 1.390 . S
C190 H199 0.930 . S
C191 Eu161 2.828 . S
C191 O176 1.238 1_554 S
C191 O177 1.247 . S
C191 C185 1.507 . S
H192 C165 0.930 . S
H193 C166 0.931 . S
H194 C167 0.930 . S
H195 C168 0.930 . S
H196 C187 0.930 . S
H197 C188 0.931 . S
H198 C189 0.930 . S
H199 C190 0.930 . S
Tb200 C210 2.825 . S
Tb200 O211 2.347 1_554 S
Tb200 O214 2.366 . S
Tb200 O219 2.418 . S
Tb200 O220 2.384 . S
Tb200 O223 2.479 . S
Tb200 O224 2.471 1_554 S
Eu201 O212 2.418 . S
Eu201 O213 2.384 . S
Eu201 O216 2.479 . S
Eu201 O217 2.471 1_556 S
Eu201 O218 2.347 1_556 S
Eu201 O221 2.366 . S
Eu201 C231 2.825 1_556 S
C202 O218 1.259 . S
C202 O219 1.265 . S
C203 O220 1.255 . S
C203 O221 1.265 1_554 S
C204 C206 1.380 . S
C204 C207 1.374 1_554 S
C204 C210 1.507 . S
C205 C206 1.384 . S
C205 C209 1.387 1_554 S
C205 H232 0.930 . S
C206 C204 1.380 . S
C206 C205 1.384 . S
C206 H233 0.931 . S
C207 C204 1.374 1_556 S
C207 C208 1.390 . S
C207 H234 0.930 . S
C208 C207 1.390 . S
C208 C209 1.391 . S
C208 H235 0.930 . S
C209 C205 1.387 1_556 S
C209 C208 1.391 . S
C210 Tb200 2.825 . S
C210 C204 1.507 . S
C210 O223 1.238 . S
C210 O224 1.247 1_554 S
O211 Tb200 2.347 1_556 S
O211 C215 1.259 . S
O212 Eu201 2.418 . S
O212 C215 1.265 . S
O213 Eu201 2.384 . S
O213 C222 1.255 1_556 S
O214 Tb200 2.366 . S
O214 C222 1.265 . S
C215 O211 1.259 . S
C215 O212 1.265 . S
O216 Eu201 2.479 . S
O216 C231 1.238 1_556 S
O217 Eu201 2.471 1_554 S
O217 C231 1.247 . S
O218 Eu201 2.347 1_554 S
O218 C202 1.259 . S
O219 Tb200 2.418 . S
O219 C202 1.265 . S
O220 Tb200 2.384 . S
O220 C203 1.255 . S
O221 Eu201 2.366 . S
O221 C203 1.265 1_556 S
C222 O213 1.255 1_554 S
C222 O214 1.265 . S
O223 Tb200 2.479 . S
O223 C210 1.238 . S
O224 Tb200 2.471 1_556 S
O224 C210 1.247 1_556 S
C225 C228 1.380 1_554 S
C225 C229 1.374 . S
C225 C231 1.507 . S
C226 C227 1.387 1_554 S
C226 C230 1.391 . S
C227 C226 1.387 1_556 S
C227 C228 1.384 . S
C227 H236 0.930 . S
C228 C225 1.380 1_556 S
C228 C227 1.384 . S
C228 H237 0.931 . S
C229 C225 1.374 . S
C229 C230 1.390 . S
C229 H238 0.930 . S
C230 C226 1.391 . S
C230 C229 1.390 . S
C230 H239 0.930 . S
C231 Eu201 2.825 1_554 S
C231 O216 1.238 1_554 S
C231 O217 1.247 . S
C231 C225 1.507 . S
H232 C205 0.930 . S
H233 C206 0.931 . S
H234 C207 0.930 . S
H235 C208 0.930 . S
H236 C227 0.930 . S
H237 C228 0.931 . S
H238 C229 0.930 . S
H239 C230 0.930 . S
Tb240 C250 2.825 . S
Tb240 O251 2.347 . S
Tb240 O254 2.366 . S
Tb240 O259 2.418 . S
Tb240 O260 2.384 . S
Tb240 O263 2.479 . S
Tb240 O264 2.471 . S
Eu241 O252 2.418 . S
Eu241 O253 2.384 . S
Eu241 O256 2.479 . S
Eu241 O257 2.471 . S
Eu241 O258 2.347 . S
Eu241 O261 2.366 . S
Eu241 C271 2.825 . S
C242 O258 1.259 . S
C242 O259 1.265 . S
C243 O260 1.255 . S
C243 O261 1.265 . S
C244 C246 1.380 . S
C244 C247 1.374 . S
C244 C250 1.507 . S
C245 C246 1.384 . S
C245 C249 1.387 . S
C245 H272 0.930 . S
C246 C244 1.380 . S
C246 C245 1.384 . S
C246 H273 0.931 . S
C247 C244 1.374 . S
C247 C248 1.390 . S
C247 H274 0.930 . S
C248 C247 1.390 . S
C248 C249 1.391 . S
C248 H275 0.930 . S
C249 C245 1.387 . S
C249 C248 1.391 . S
C250 Tb240 2.825 . S
C250 C244 1.507 . S
C250 O263 1.238 . S
C250 O264 1.247 . S
O251 Tb240 2.347 . S
O251 C255 1.259 . S
O252 Eu241 2.418 . S
O252 C255 1.265 . S
O253 Eu241 2.384 . S
O253 C262 1.255 . S
O254 Tb240 2.366 . S
O254 C262 1.265 . S
C255 O251 1.259 . S
C255 O252 1.265 . S
O256 Eu241 2.479 . S
O256 C271 1.238 . S
O257 Eu241 2.471 . S
O257 C271 1.247 . S
O258 Eu241 2.347 . S
O258 C242 1.259 . S
O259 Tb240 2.418 . S
O259 C242 1.265 . S
O260 Tb240 2.384 . S
O260 C243 1.255 . S
O261 Eu241 2.366 . S
O261 C243 1.265 . S
C262 O253 1.255 . S
C262 O254 1.265 . S
O263 Tb240 2.479 . S
O263 C250 1.238 . S
O264 Tb240 2.471 . S
O264 C250 1.247 . S
C265 C268 1.380 . S
C265 C269 1.374 . S
C265 C271 1.507 . S
C266 C267 1.387 . S
C266 C270 1.391 . S
C267 C266 1.387 . S
C267 C268 1.384 . S
C267 H276 0.930 . S
C268 C265 1.380 . S
C268 C267 1.384 . S
C268 H277 0.931 . S
C269 C265 1.374 . S
C269 C270 1.390 . S
C269 H278 0.930 . S
C270 C266 1.391 . S
C270 C269 1.390 . S
C270 H279 0.930 . S
C271 Eu241 2.825 . S
C271 O256 1.238 . S
C271 O257 1.247 . S
C271 C265 1.507 . S
H272 C245 0.930 . S
H273 C246 0.931 . S
H274 C247 0.930 . S
H275 C248 0.930 . S
H276 C267 0.930 . S
H277 C268 0.931 . S
H278 C269 0.930 . S
H279 C270 0.930 . S
Tb280 C290 2.825 . S
Tb280 O291 2.347 . S
Tb280 O294 2.366 . S
Tb280 O299 2.418 . S
Tb280 O300 2.384 . S
Tb280 O303 2.479 . S
Tb280 O304 2.471 . S
Eu281 O292 2.418 . S
Eu281 O293 2.384 . S
Eu281 O296 2.479 . S
Eu281 O297 2.471 . S
Eu281 O298 2.347 . S
Eu281 O301 2.366 . S
Eu281 C311 2.825 . S
C282 O298 1.259 . S
C282 O299 1.265 . S
C283 O300 1.255 . S
C283 O301 1.265 . S
C284 C286 1.380 . S
C284 C287 1.374 . S
C284 C290 1.507 . S
C285 C286 1.384 . S
C285 C289 1.387 . S
C285 H312 0.930 . S
C286 C284 1.380 . S
C286 C285 1.384 . S
C286 H313 0.931 . S
C287 C284 1.374 . S
C287 C288 1.390 . S
C287 H314 0.930 . S
C288 C287 1.390 . S
C288 C289 1.391 . S
C288 H315 0.930 . S
C289 C285 1.387 . S
C289 C288 1.391 . S
C290 Tb280 2.825 . S
C290 C284 1.507 . S
C290 O303 1.238 . S
C290 O304 1.247 . S
O291 Tb280 2.347 . S
O291 C295 1.259 . S
O292 Eu281 2.418 . S
O292 C295 1.265 . S
O293 Eu281 2.384 . S
O293 C302 1.255 . S
O294 Tb280 2.366 . S
O294 C302 1.265 . S
C295 O291 1.259 . S
C295 O292 1.265 . S
O296 Eu281 2.479 . S
O296 C311 1.238 . S
O297 Eu281 2.471 . S
O297 C311 1.247 . S
O298 Eu281 2.347 . S
O298 C282 1.259 . S
O299 Tb280 2.418 . S
O299 C282 1.265 . S
O300 Tb280 2.384 . S
O300 C283 1.255 . S
O301 Eu281 2.366 . S
O301 C283 1.265 . S
C302 O293 1.255 . S
C302 O294 1.265 . S
O303 Tb280 2.479 . S
O303 C290 1.238 . S
O304 Tb280 2.471 . S
O304 C290 1.247 . S
C305 C308 1.380 . S
C305 C309 1.374 . S
C305 C311 1.507 . S
C306 C307 1.387 . S
C306 C310 1.391 . S
C307 C306 1.387 . S
C307 C308 1.384 . S
C307 H316 0.930 . S
C308 C305 1.380 . S
C308 C307 1.384 . S
C308 H317 0.931 . S
C309 C305 1.374 . S
C309 C310 1.390 . S
C309 H318 0.930 . S
C310 C306 1.391 . S
C310 C309 1.390 . S
C310 H319 0.930 . S
C311 Eu281 2.825 . S
C311 O296 1.238 . S
C311 O297 1.247 . S
C311 C305 1.507 . S
H312 C285 0.930 . S
H313 C286 0.931 . S
H314 C287 0.930 . S
H315 C288 0.930 . S
H316 C307 0.930 . S
H317 C308 0.931 . S
H318 C309 0.930 . S
H319 C310 0.930 . S
H320 C332 0.930 . S
H321 C334 0.930 . S
H322 C335 0.930 . S
H323 C339 0.959 . S
H324 C339 0.959 . S
H325 C339 0.961 . S
H326 C340 0.960 . S
H327 C340 0.961 . S
H328 C340 0.959 . S
H329 C343 0.929 . S
H330 C344 0.931 . S
H331 C346 0.930 . S
C332 H320 0.930 . S
C332 C333 1.399 . S
C332 C337 1.399 . S
C333 C332 1.399 . S
C333 C334 1.376 1_554 S
C334 H321 0.930 . S
C334 C333 1.376 1_556 S
C334 C335 1.388 . S
C335 H322 0.930 . S
C335 C334 1.388 . S
C335 C336 1.390 . S
C336 C335 1.390 . S
C336 C337 1.394 1_556 S
C336 C342 1.465 . S
C337 C332 1.399 . S
C337 C336 1.394 1_554 S
C337 C338 1.516 . S
C338 C337 1.516 . S
C338 C339 1.502 . S
C338 C340 1.561 . S
C338 C341 1.526 . S
C339 H323 0.959 . S
C339 H324 0.959 . S
C339 H325 0.961 . S
C339 C338 1.502 . S
C340 H326 0.960 . S
C340 H327 0.961 . S
C340 H328 0.959 . S
C340 C338 1.561 . S
C341 C338 1.526 . S
C341 C342 1.396 1_554 S
C341 C346 1.390 . S
C342 C336 1.465 . S
C342 C341 1.396 1_556 S
C342 C343 1.399 . S
C343 H329 0.929 . S
C343 C342 1.399 . S
C343 C344 1.385 . S
C344 H330 0.931 . S
C344 C343 1.385 . S
C344 C345 1.389 1_556 S
C345 C344 1.389 1_554 S
C345 C346 1.387 . S
C346 H331 0.930 . S
C346 C341 1.390 . S
C346 C345 1.387 . S
H347 C359 0.932 . S
H348 C361 0.930 . S
H349 C362 0.930 . S
H350 C366 0.959 . S
H351 C366 0.959 . S
H352 C366 0.961 . S
H353 C367 0.960 . S
H354 C367 0.961 . S
H355 C367 0.959 . S
H356 C370 0.929 . S
H357 C371 0.931 . S
H358 C373 0.930 . S
C359 H347 0.932 . S
C359 C360 1.398 1_556 S
C359 C364 1.398 1_556 S
C360 C359 1.398 1_554 S
C360 C361 1.376 . S
C361 H348 0.930 . S
C361 C360 1.376 . S
C361 C362 1.388 . S
C362 H349 0.930 . S
C362 C361 1.388 . S
C362 C363 1.390 . S
C363 C362 1.390 . S
C363 C364 1.394 . S
C363 C369 1.465 . S
C364 C359 1.398 1_554 S
C364 C363 1.394 . S
C364 C365 1.516 1_554 S
C365 C364 1.516 1_556 S
C365 C366 1.502 . S
C365 C367 1.561 1_556 S
C365 C368 1.526 1_556 S
C366 H350 0.959 . S
C366 H351 0.959 . S
C366 H352 0.961 . S
C366 C365 1.502 . S
C367 H353 0.960 . S
C367 H354 0.961 . S
C367 H355 0.959 . S
C367 C365 1.561 1_554 S
C368 C365 1.526 1_554 S
C368 C369 1.396 . S
C368 C373 1.390 1_554 S
C369 C363 1.465 . S
C369 C368 1.396 . S
C369 C370 1.399 . S
C370 H356 0.929 . S
C370 C369 1.399 . S
C370 C371 1.385 . S
C371 H357 0.931 . S
C371 C370 1.385 . S
C371 C372 1.389 . S
C372 C371 1.389 . S
C372 C373 1.387 1_554 S
C373 H358 0.930 . S
C373 C368 1.390 1_556 S
C373 C372 1.387 1_556 S
H374 C386 0.930 . S
H375 C388 0.930 . S
H376 C389 0.930 . S
H377 C393 0.959 . S
H378 C393 0.959 . S
H379 C393 0.961 . S
H380 C394 0.960 . S
H381 C394 0.961 . S
H382 C394 0.959 . S
H383 C397 0.929 . S
H384 C398 0.931 . S
H385 C400 0.930 . S
C386 H374 0.930 . S
C386 C387 1.399 . S
C386 C391 1.399 . S
C387 C386 1.399 . S
C387 C388 1.376 . S
C388 H375 0.930 . S
C388 C387 1.376 . S
C388 C389 1.388 . S
C389 H376 0.930 . S
C389 C388 1.388 . S
C389 C390 1.390 . S
C390 C389 1.390 . S
C390 C391 1.394 . S
C390 C396 1.465 . S
C391 C386 1.399 . S
C391 C390 1.394 . S
C391 C392 1.516 . S
C392 C391 1.516 . S
C392 C393 1.502 . S
C392 C394 1.561 . S
C392 C395 1.526 . S
C393 H377 0.959 . S
C393 H378 0.959 . S
C393 H379 0.961 . S
C393 C392 1.502 . S
C394 H380 0.960 . S
C394 H381 0.961 . S
C394 H382 0.959 . S
C394 C392 1.561 . S
C395 C392 1.526 . S
C395 C396 1.396 . S
C395 C400 1.390 . S
C396 C390 1.465 . S
C396 C395 1.396 . S
C396 C397 1.399 . S
C397 H383 0.929 . S
C397 C396 1.399 . S
C397 C398 1.385 . S
C398 H384 0.931 . S
C398 C397 1.385 . S
C398 C399 1.389 . S
C399 C398 1.389 . S
C399 C400 1.387 . S
C400 H385 0.930 . S
C400 C395 1.390 . S
C400 C399 1.387 . S
H401 C413 0.930 . S
H402 C415 0.930 . S
H403 C416 0.930 . S
H404 C420 0.959 . S
H405 C420 0.959 . S
H406 C420 0.961 . S
H407 C421 0.960 . S
H408 C421 0.961 . S
H409 C421 0.959 . S
H410 C424 0.929 . S
H411 C425 0.931 . S
H412 C427 0.930 . S
C413 H401 0.930 . S
C413 C414 1.399 . S
C413 C418 1.399 . S
C414 C413 1.399 . S
C414 C415 1.376 . S
C415 H402 0.930 . S
C415 C414 1.376 . S
C415 C416 1.388 . S
C416 H403 0.930 . S
C416 C415 1.388 . S
C416 C417 1.390 . S
C417 C416 1.390 . S
C417 C418 1.394 . S
C417 C423 1.465 . S
C418 C413 1.399 . S
C418 C417 1.394 . S
C418 C419 1.516 . S
C419 C418 1.516 . S
C419 C420 1.502 . S
C419 C421 1.561 . S
C419 C422 1.526 . S
C420 H404 0.959 . S
C420 H405 0.959 . S
C420 H406 0.961 . S
C420 C419 1.502 . S
C421 H407 0.960 . S
C421 H408 0.961 . S
C421 H409 0.959 . S
C421 C419 1.561 . S
C422 C419 1.526 . S
C422 C423 1.396 . S
C422 C427 1.390 . S
C423 C417 1.465 . S
C423 C422 1.396 . S
C423 C424 1.399 . S
C424 H410 0.929 . S
C424 C423 1.399 . S
C424 C425 1.385 . S
C425 H411 0.931 . S
C425 C424 1.385 . S
C425 C426 1.389 . S
C426 C425 1.389 . S
C426 C427 1.387 . S
C427 H412 0.930 . S
C427 C422 1.390 . S
C427 C426 1.387 . S
H428 C440 0.930 . S
H429 C442 0.930 . S
H430 C443 0.930 . S
H431 C447 0.959 . S
H432 C447 0.959 . S
H433 C447 0.961 1_655 S
H434 C448 0.960 . S
H435 C448 0.961 . S
H436 C448 0.959 . S
H437 C451 0.929 . S
H438 C452 0.931 . S
H439 C454 0.930 . S
C440 H428 0.930 . S
C440 C441 1.399 . S
C440 C445 1.399 . S
C441 C440 1.399 . S
C441 C442 1.376 1_554 S
C442 H429 0.930 . S
C442 C441 1.376 1_556 S
C442 C443 1.388 . S
C443 H430 0.930 . S
C443 C442 1.388 . S
C443 C444 1.390 1_655 S
C444 C443 1.390 1_455 S
C444 C445 1.394 1_456 S
C444 C450 1.465 . S
C445 C440 1.399 . S
C445 C444 1.394 1_654 S
C445 C446 1.516 1_655 S
C446 C445 1.516 1_455 S
C446 C447 1.502 . S
C446 C448 1.561 . S
C446 C449 1.526 . S
C447 H431 0.959 . S
C447 H432 0.959 . S
C447 H433 0.961 1_455 S
C447 C446 1.502 . S
C448 H434 0.960 . S
C448 H435 0.961 . S
C448 H436 0.959 . S
C448 C446 1.561 . S
C449 C446 1.526 . S
C449 C450 1.396 1_554 S
C449 C454 1.390 . S
C450 C444 1.465 . S
C450 C449 1.396 1_556 S
C450 C451 1.399 . S
C451 H437 0.929 . S
C451 C450 1.399 . S
C451 C452 1.385 . S
C452 H438 0.931 . S
C452 C451 1.385 . S
C452 C453 1.389 1_556 S
C453 C452 1.389 1_554 S
C453 C454 1.387 . S
C454 H439 0.930 . S
C454 C449 1.390 . S
C454 C453 1.387 . S
H455 C467 0.930 . S
H456 C469 0.930 . S
H457 C470 0.930 . S
H458 C474 0.959 . S
H459 C474 0.959 . S
H460 C474 0.961 1_455 S
H461 C475 0.960 . S
H462 C475 0.961 . S
H463 C475 0.959 . S
H464 C478 0.929 . S
H465 C479 0.931 . S
H466 C481 0.930 . S
C467 H455 0.930 . S
C467 C468 1.399 . S
C467 C472 1.399 . S
C468 C467 1.399 . S
C468 C469 1.376 1_554 S
C469 H456 0.930 . S
C469 C468 1.376 1_556 S
C469 C470 1.388 . S
C470 H457 0.930 . S
C470 C469 1.388 . S
C470 C471 1.390 1_455 S
C471 C470 1.390 1_655 S
C471 C472 1.394 1_656 S
C471 C477 1.465 . S
C472 C467 1.399 . S
C472 C471 1.394 1_454 S
C472 C473 1.516 1_455 S
C473 C472 1.516 1_655 S
C473 C474 1.502 . S
C473 C475 1.561 . S
C473 C476 1.526 . S
C474 H458 0.959 . S
C474 H459 0.959 . S
C474 H460 0.961 1_655 S
C474 C473 1.502 . S
C475 H461 0.960 . S
C475 H462 0.961 . S
C475 H463 0.959 . S
C475 C473 1.561 . S
C476 C473 1.526 . S
C476 C477 1.396 1_554 S
C476 C481 1.390 . S
C477 C471 1.465 . S
C477 C476 1.396 1_556 S
C477 C478 1.399 . S
C478 H464 0.929 . S
C478 C477 1.399 . S
C478 C479 1.385 . S
C479 H465 0.931 . S
C479 C478 1.385 . S
C479 C480 1.389 1_556 S
C480 C479 1.389 1_554 S
C480 C481 1.387 . S
C481 H466 0.930 . S
C481 C476 1.390 . S
C481 C480 1.387 . S
H482 C494 0.930 . S
H483 C496 0.930 . S
H484 C497 0.930 . S
H485 C501 0.959 . S
H486 C501 0.959 . S
H487 C501 0.961 . S
H488 C502 0.960 . S
H489 C502 0.961 . S
H490 C502 0.959 . S
H491 C505 0.929 . S
H492 C506 0.931 . S
H493 C508 0.930 . S
C494 H482 0.930 . S
C494 C495 1.399 . S
C494 C499 1.399 . S
C495 C494 1.399 . S
C495 C496 1.376 . S
C496 H483 0.930 . S
C496 C495 1.376 . S
C496 C497 1.388 . S
C497 H484 0.930 . S
C497 C496 1.388 . S
C497 C498 1.390 . S
C498 C497 1.390 . S
C498 C499 1.394 . S
C498 C504 1.465 . S
C499 C494 1.399 . S
C499 C498 1.394 . S
C499 C500 1.516 . S
C500 C499 1.516 . S
C500 C501 1.502 . S
C500 C502 1.561 . S
C500 C503 1.526 1_455 S
C501 H485 0.959 . S
C501 H486 0.959 . S
C501 H487 0.961 . S
C501 C500 1.502 . S
C502 H488 0.960 . S
C502 H489 0.961 . S
C502 H490 0.959 . S
C502 C500 1.561 . S
C503 C500 1.526 1_655 S
C503 C504 1.396 1_655 S
C503 C508 1.390 . S
C504 C498 1.465 . S
C504 C503 1.396 1_455 S
C504 C505 1.399 1_455 S
C505 H491 0.929 . S
C505 C504 1.399 1_655 S
C505 C506 1.385 . S
C506 H492 0.931 . S
C506 C505 1.385 . S
C506 C507 1.389 . S
C507 C506 1.389 . S
C507 C508 1.387 . S
C508 H493 0.930 . S
C508 C503 1.390 . S
C508 C507 1.387 . S
H509 C521 0.930 . S
H510 C523 0.930 . S
H511 C524 0.930 . S
H512 C528 0.959 . S
H513 C528 0.959 . S
H514 C528 0.961 . S
H515 C529 0.960 . S
H516 C529 0.961 . S
H517 C529 0.959 . S
H518 C532 0.929 . S
H519 C533 0.931 . S
H520 C535 0.930 . S
C521 H509 0.930 . S
C521 C522 1.399 . S
C521 C526 1.399 . S
C522 C521 1.399 . S
C522 C523 1.376 . S
C523 H510 0.930 . S
C523 C522 1.376 . S
C523 C524 1.388 . S
C524 H511 0.930 . S
C524 C523 1.388 . S
C524 C525 1.390 . S
C525 C524 1.390 . S
C525 C526 1.394 . S
C525 C531 1.465 . S
C526 C521 1.399 . S
C526 C525 1.394 . S
C526 C527 1.516 . S
C527 C526 1.516 . S
C527 C528 1.502 . S
C527 C529 1.561 . S
C527 C530 1.526 1_655 S
C528 H512 0.959 . S
C528 H513 0.959 . S
C528 H514 0.961 . S
C528 C527 1.502 . S
C529 H515 0.960 . S
C529 H516 0.961 . S
C529 H517 0.959 . S
C529 C527 1.561 . S
C530 C527 1.526 1_455 S
C530 C531 1.396 1_455 S
C530 C535 1.390 . S
C531 C525 1.465 . S
C531 C530 1.396 1_655 S
C531 C532 1.399 1_655 S
C532 H518 0.929 . S
C532 C531 1.399 1_455 S
C532 C533 1.385 . S
C533 H519 0.931 . S
C533 C532 1.385 . S
C533 C534 1.389 . S
C534 C533 1.389 . S
C534 C535 1.387 . S
C535 H520 0.930 . S
C535 C530 1.390 . S
C535 C534 1.387 . S
H536 C548 0.930 1_654 S
H537 C550 0.930 . S
H538 C551 0.930 . S
H539 C555 0.959 . S
H540 C555 0.959 . S
H541 C555 0.961 . S
H542 C556 0.960 . S
H543 C556 0.961 . S
H544 C556 0.959 . S
H545 C559 0.929 . S
H546 C560 0.931 1_455 S
H547 C562 0.930 . S
C548 H536 0.930 1_456 S
C548 C549 1.399 . S
C548 C553 1.399 1_455 S
C549 C548 1.399 . S
C549 C550 1.376 . S
C550 H537 0.930 . S
C550 C549 1.376 . S
C550 C551 1.388 . S
C551 H538 0.930 . S
C551 C550 1.388 . S
C551 C552 1.390 . S
C552 C551 1.390 . S
C552 C553 1.394 1_455 S
C552 C558 1.465 . S
C553 C548 1.399 1_655 S
C553 C552 1.394 1_655 S
C553 C554 1.516 . S
C554 C553 1.516 . S
C554 C555 1.502 1_556 S
C554 C556 1.561 . S
C554 C557 1.526 . S
C555 H539 0.959 . S
C555 H540 0.959 . S
C555 H541 0.961 . S
C555 C554 1.502 1_554 S
C556 H542 0.960 . S
C556 H543 0.961 . S
C556 H544 0.959 . S
C556 C554 1.561 . S
C557 C554 1.526 . S
C557 C558 1.396 1_655 S
C557 C562 1.390 . S
C558 C552 1.465 . S
C558 C557 1.396 1_455 S
C558 C559 1.399 . S
C559 H545 0.929 . S
C559 C558 1.399 . S
C559 C560 1.385 1_455 S
C560 H546 0.931 1_655 S
C560 C559 1.385 1_655 S
C560 C561 1.389 . S
C561 C560 1.389 . S
C561 C562 1.387 . S
C562 H547 0.930 . S
C562 C557 1.390 . S
C562 C561 1.387 . S
H563 C575 0.930 1_655 S
H564 C577 0.930 . S
H565 C578 0.930 . S
H566 C582 0.959 . S
H567 C582 0.959 . S
H568 C582 0.961 . S
H569 C583 0.960 . S
H570 C583 0.961 . S
H571 C583 0.959 . S
H572 C586 0.929 . S
H573 C587 0.931 1_455 S
H574 C589 0.930 . S
C575 H563 0.930 1_455 S
C575 C576 1.399 . S
C575 C580 1.399 1_455 S
C576 C575 1.399 . S
C576 C577 1.376 . S
C577 H564 0.930 . S
C577 C576 1.376 . S
C577 C578 1.388 . S
C578 H565 0.930 . S
C578 C577 1.388 . S
C578 C579 1.390 . S
C579 C578 1.390 . S
C579 C580 1.394 1_455 S
C579 C585 1.465 . S
C580 C575 1.399 1_655 S
C580 C579 1.394 1_655 S
C580 C581 1.516 . S
C581 C580 1.516 . S
C581 C582 1.502 . S
C581 C583 1.561 . S
C581 C584 1.526 . S
C582 H566 0.959 . S
C582 H567 0.959 . S
C582 H568 0.961 . S
C582 C581 1.502 . S
C583 H569 0.960 . S
C583 H570 0.961 . S
C583 H571 0.959 . S
C583 C581 1.561 . S
C584 C581 1.526 . S
C584 C585 1.396 1_655 S
C584 C589 1.390 . S
C585 C579 1.465 . S
C585 C584 1.396 1_455 S
C585 C586 1.399 . S
C586 H572 0.929 . S
C586 C585 1.399 . S
C586 C587 1.385 1_455 S
C587 H573 0.931 1_655 S
C587 C586 1.385 1_655 S
C587 C588 1.389 . S
C588 C587 1.389 . S
C588 C589 1.387 . S
C589 H574 0.930 . S
C589 C584 1.390 . S
C589 C588 1.387 . S
H590 C602 0.930 . S
H591 C604 0.930 . S
H592 C605 0.930 . S
H593 C609 0.959 . S
H594 C609 0.959 . S
H595 C609 0.961 1_565 S
H596 C610 0.960 . S
H597 C610 0.929 1_545 S
H598 C610 0.959 . S
H599 C613 0.929 . S
H600 C614 0.931 . S
H601 C616 0.930 . S
C602 H590 0.930 . S
C602 C603 1.399 1_554 S
C602 C607 1.399 . S
C603 C602 1.399 1_556 S
C603 C604 1.376 . S
C604 H591 0.930 . S
C604 C603 1.376 . S
C604 C605 1.388 . S
C605 H592 0.930 . S
C605 C604 1.388 . S
C605 C606 1.390 . S
C606 C605 1.390 . S
C606 C607 1.394 1_556 S
C606 C612 1.465 1_565 S
C607 C602 1.399 . S
C607 C606 1.394 1_554 S
C607 C608 1.517 1_565 S
C608 C607 1.517 1_545 S
C608 C609 1.501 . S
C608 C610 1.562 1_545 S
C608 C611 1.525 . S
C609 H593 0.959 . S
C609 H594 0.959 . S
C609 H595 0.961 1_545 S
C609 C608 1.501 . S
C610 H596 0.960 . S
C610 H597 0.929 1_565 S
C610 H598 0.959 . S
C610 C608 1.562 1_565 S
C611 C608 1.525 . S
C611 C612 1.396 1_554 S
C611 C616 1.390 . S
C612 C606 1.465 1_545 S
C612 C611 1.396 1_556 S
C612 C613 1.399 . S
C613 H599 0.929 . S
C613 C612 1.399 . S
C613 C614 1.385 . S
C614 H600 0.931 . S
C614 C613 1.385 . S
C614 C615 1.389 . S
C615 C614 1.389 . S
C615 C616 1.387 1_556 S
C616 H601 0.930 . S
C616 C611 1.390 . S
C616 C615 1.387 1_554 S
H617 C629 0.930 . S
H618 C631 0.930 . S
H619 C632 0.930 . S
H620 C636 0.959 . S
H621 C636 0.959 . S
H622 C636 0.961 . S
H623 C637 0.960 . S
H624 C637 0.961 . S
H625 C637 0.959 . S
H626 C640 0.990 . S
H627 C641 0.931 . S
H628 C643 0.930 . S
C629 H617 0.930 . S
C629 C630 1.399 . S
C629 C634 1.399 . S
C630 C629 1.399 . S
C630 C631 1.376 . S
C631 H618 0.930 . S
C631 C630 1.376 . S
C631 C632 1.388 . S
C632 H619 0.930 . S
C632 C631 1.388 . S
C632 C633 1.390 . S
C633 C632 1.390 . S
C633 C634 1.394 . S
C633 C639 1.465 1_545 S
C634 C629 1.399 . S
C634 C633 1.394 . S
C634 C635 1.516 1_545 S
C635 C634 1.516 1_565 S
C635 C636 1.502 . S
C635 C637 1.561 . S
C635 C638 1.526 . S
C636 H620 0.959 . S
C636 H621 0.959 . S
C636 H622 0.961 . S
C636 C635 1.502 . S
C637 H623 0.960 . S
C637 H624 0.961 . S
C637 H625 0.959 . S
C637 C635 1.561 . S
C638 C635 1.526 . S
C638 C639 1.396 . S
C638 C643 1.390 . S
C639 C633 1.465 1_565 S
C639 C638 1.396 . S
C639 C640 1.399 . S
C640 H626 0.990 . S
C640 C639 1.399 . S
C640 C641 1.385 . S
C641 H627 0.931 . S
C641 C640 1.385 . S
C641 C642 1.389 . S
C642 C641 1.389 . S
C642 C643 1.387 . S
C643 H628 0.930 . S
C643 C638 1.390 . S
C643 C642 1.387 . S
H644 C656 0.930 . S
H645 C658 0.930 . S
H646 C659 0.930 . S
H647 C663 0.959 . S
H648 C663 0.959 . S
H649 C663 0.961 . S
H650 C664 0.960 . S
H651 C664 0.961 . S
H652 C664 0.959 . S
H653 C667 0.929 . S
H654 C668 0.931 . S
H655 C670 0.930 . S
C656 H644 0.930 . S
C656 C657 1.399 . S
C656 C661 1.399 . S
C657 C656 1.399 . S
C657 C658 1.376 1_554 S
C658 H645 0.930 . S
C658 C657 1.376 1_556 S
C658 C659 1.388 . S
C659 H646 0.930 . S
C659 C658 1.388 . S
C659 C660 1.390 1_556 S
C660 C659 1.390 1_554 S
C660 C661 1.394 . S
C660 C666 1.465 . S
C661 C656 1.399 . S
C661 C660 1.394 . S
C661 C662 1.516 . S
C662 C661 1.516 . S
C662 C663 1.502 . S
C662 C664 1.561 . S
C662 C665 1.526 . S
C663 H647 0.959 . S
C663 H648 0.959 . S
C663 H649 0.961 . S
C663 C662 1.502 . S
C664 H650 0.960 . S
C664 H651 0.961 . S
C664 H652 0.959 . S
C664 C662 1.561 . S
C665 C662 1.526 . S
C665 C666 1.396 . S
C665 C670 1.390 . S
C666 C660 1.465 . S
C666 C665 1.396 . S
C666 C667 1.399 1_554 S
C667 H653 0.929 . S
C667 C666 1.399 1_556 S
C667 C668 1.385 . S
C668 H654 0.931 . S
C668 C667 1.385 . S
C668 C669 1.389 1_556 S
C669 C668 1.389 1_554 S
C669 C670 1.387 . S
C670 H655 0.930 . S
C670 C665 1.390 . S
C670 C669 1.387 . S
H671 C683 0.930 1_556 S
H672 C685 0.930 . S
H673 C686 0.930 . S
H674 C690 0.959 . S
H675 C690 0.959 . S
H676 C690 0.961 . S
H677 C691 0.960 . S
H678 C691 0.961 . S
H679 C691 0.959 . S
H680 C694 0.929 . S
H681 C695 0.931 . S
H682 C697 0.930 . S
C683 H671 0.930 1_554 S
C683 C684 1.399 . S
C683 C688 1.399 . S
C684 C683 1.399 . S
C684 C685 1.376 . S
C685 H672 0.930 . S
C685 C684 1.376 . S
C685 C686 1.388 . S
C686 H673 0.930 . S
C686 C685 1.388 . S
C686 C687 1.390 . S
C687 C686 1.390 . S
C687 C688 1.394 . S
C687 C693 1.465 . S
C688 C683 1.399 . S
C688 C687 1.394 . S
C688 C689 1.516 1_554 S
C689 C688 1.516 1_556 S
C689 C690 1.502 . S
C689 C691 1.561 . S
C689 C692 1.526 1_556 S
C690 H674 0.959 . S
C690 H675 0.959 . S
C690 H676 0.961 . S
C690 C689 1.502 . S
C691 H677 0.960 . S
C691 H678 0.961 . S
C691 H679 0.959 . S
C691 C689 1.561 . S
C692 C689 1.526 1_554 S
C692 C693 1.396 . S
C692 C697 1.390 1_554 S
C693 C687 1.465 . S
C693 C692 1.396 . S
C693 C694 1.399 . S
C694 H680 0.929 . S
C694 C693 1.399 . S
C694 C695 1.385 . S
C695 H681 0.931 . S
C695 C694 1.385 . S
C695 C696 1.389 . S
C696 C695 1.389 . S
C696 C697 1.387 1_554 S
C697 H682 0.930 . S
C697 C692 1.390 1_556 S
C697 C696 1.387 1_556 S
H698 C710 0.930 . S
H699 C712 0.930 . S
H700 C713 0.930 . S
H701 C717 0.959 . S
H702 C717 0.959 . S
H703 C717 0.961 . S
H704 C718 0.960 . S
H705 C718 0.961 . S
H706 C718 0.959 . S
H707 C721 0.929 . S
H708 C722 0.931 . S
H709 C724 0.930 . S
C710 H698 0.930 . S
C710 C711 1.399 . S
C710 C715 1.399 . S
C711 C710 1.399 . S
C711 C712 1.376 . S
C712 H699 0.930 . S
C712 C711 1.376 . S
C712 C713 1.388 . S
C713 H700 0.930 . S
C713 C712 1.388 . S
C713 C714 1.390 . S
C714 C713 1.390 . S
C714 C715 1.394 . S
C714 C720 1.465 . S
C715 C710 1.399 . S
C715 C714 1.394 . S
C715 C716 1.516 . S
C716 C715 1.516 . S
C716 C717 1.502 . S
C716 C718 1.561 . S
C716 C719 1.526 . S
C717 H701 0.959 . S
C717 H702 0.959 . S
C717 H703 0.961 . S
C717 C716 1.502 . S
C718 H704 0.960 . S
C718 H705 0.961 . S
C718 H706 0.959 . S
C718 C716 1.561 . S
C719 C716 1.526 . S
C719 C720 1.396 . S
C719 C724 1.390 . S
C720 C714 1.465 . S
C720 C719 1.396 . S
C720 C721 1.399 . S
C721 H707 0.929 . S
C721 C720 1.399 . S
C721 C722 1.385 . S
C722 H708 0.931 . S
C722 C721 1.385 . S
C722 C723 1.389 . S
C723 C722 1.389 . S
C723 C724 1.387 . S
C724 H709 0.930 . S
C724 C719 1.390 . S
C724 C723 1.387 . S
H725 C737 0.930 . S
H726 C739 0.930 . S
H727 C740 0.930 . S
H728 C744 0.959 . S
H729 C744 0.959 . S
H730 C744 0.961 . S
H731 C745 0.960 . S
H732 C745 0.961 . S
H733 C745 0.959 . S
H734 C748 0.929 . S
H735 C749 0.931 . S
H736 C751 0.930 . S
C737 H725 0.930 . S
C737 C738 1.399 . S
C737 C742 1.399 . S
C738 C737 1.399 . S
C738 C739 1.376 . S
C739 H726 0.930 . S
C739 C738 1.376 . S
C739 C740 1.388 . S
C740 H727 0.930 . S
C740 C739 1.388 . S
C740 C741 1.390 . S
C741 C740 1.390 . S
C741 C742 1.394 . S
C741 C747 1.465 . S
C742 C737 1.399 . S
C742 C741 1.394 . S
C742 C743 1.516 . S
C743 C742 1.516 . S
C743 C744 1.502 . S
C743 C745 1.561 . S
C743 C746 1.526 . S
C744 H728 0.959 . S
C744 H729 0.959 . S
C744 H730 0.961 . S
C744 C743 1.502 . S
C745 H731 0.960 . S
C745 H732 0.961 . S
C745 H733 0.959 . S
C745 C743 1.561 . S
C746 C743 1.526 . S
C746 C747 1.396 . S
C746 C751 1.390 . S
C747 C741 1.465 . S
C747 C746 1.396 . S
C747 C748 1.399 . S
C748 H734 0.929 . S
C748 C747 1.399 . S
C748 C749 1.385 . S
C749 H735 0.931 . S
C749 C748 1.385 . S
C749 C750 1.389 . S
C750 C749 1.389 . S
C750 C751 1.387 . S
C751 H736 0.930 . S
C751 C746 1.390 . S
C751 C750 1.387 . S
H752 C764 0.930 . S
H753 C766 0.930 1_655 S
H754 C767 0.930 . S
H755 C771 0.959 . S
H756 C771 0.959 . S
H757 C771 0.961 . S
H758 C772 0.960 . S
H759 C772 0.961 . S
H760 C772 0.959 . S
H761 C775 0.929 . S
H762 C776 0.931 . S
H763 C778 0.930 . S
C764 H752 0.930 . S
C764 C765 1.399 . S
C764 C769 1.399 . S
C765 C764 1.399 . S
C765 C766 1.376 . S
C766 H753 0.930 1_455 S
C766 C765 1.376 . S
C766 C767 1.388 1_455 S
C767 H754 0.930 . S
C767 C766 1.388 1_655 S
C767 C768 1.390 . S
C768 C767 1.390 . S
C768 C769 1.394 1_655 S
C768 C774 1.465 . S
C769 C764 1.399 . S
C769 C768 1.394 1_455 S
C769 C770 1.516 . S
C770 C769 1.516 . S
C770 C771 1.502 . S
C770 C772 1.561 1_455 S
C770 C773 1.526 1_455 S
C771 H755 0.959 . S
C771 H756 0.959 . S
C771 H757 0.961 . S
C771 C770 1.502 . S
C772 H758 0.960 . S
C772 H759 0.961 . S
C772 H760 0.959 . S
C772 C770 1.561 1_655 S
C773 C770 1.526 1_655 S
C773 C774 1.396 . S
C773 C778 1.390 . S
C774 C768 1.465 . S
C774 C773 1.396 . S
C774 C775 1.399 . S
C775 H761 0.929 . S
C775 C774 1.399 . S
C775 C776 1.385 . S
C776 H762 0.931 . S
C776 C775 1.385 . S
C776 C777 1.389 . S
C777 C776 1.389 . S
C777 C778 1.387 . S
C778 H763 0.930 . S
C778 C773 1.390 . S
C778 C777 1.387 . S
H779 C791 0.930 1_455 S
H780 C793 0.930 . S
H781 C794 0.930 . S
H782 C798 0.959 . S
H783 C798 0.959 . S
H784 C798 0.961 . S
H785 C799 0.960 . S
H786 C799 0.961 1_455 S
H787 C799 0.959 . S
H788 C802 0.929 . S
H789 C803 0.931 1_655 S
H790 C805 0.930 . S
C791 H779 0.930 1_655 S
C791 C792 1.399 . S
C791 C796 1.399 . S
C792 C791 1.399 . S
C792 C793 1.376 . S
C793 H780 0.930 . S
C793 C792 1.376 . S
C793 C794 1.388 . S
C794 H781 0.930 . S
C794 C793 1.388 . S
C794 C795 1.390 . S
C795 C794 1.390 . S
C795 C796 1.394 . S
C795 C801 1.465 . S
C796 C791 1.399 . S
C796 C795 1.394 . S
C796 C797 1.516 1_655 S
C797 C796 1.516 1_455 S
C797 C798 1.502 . S
C797 C799 1.561 1_455 S
C797 C800 1.526 . S
C798 H782 0.959 . S
C798 H783 0.959 . S
C798 H784 0.961 . S
C798 C797 1.502 . S
C799 H785 0.960 . S
C799 H786 0.961 1_655 S
C799 H787 0.959 . S
C799 C797 1.561 1_655 S
C800 C797 1.526 . S
C800 C801 1.396 1_455 S
C800 C805 1.390 . S
C801 C795 1.465 . S
C801 C800 1.396 1_655 S
C801 C802 1.399 . S
C802 H788 0.929 . S
C802 C801 1.399 . S
C802 C803 1.385 1_655 S
C803 H789 0.931 1_455 S
C803 C802 1.385 1_455 S
C803 C804 1.389 . S
C804 C803 1.389 . S
C804 C805 1.387 . S
C805 H790 0.930 . S
C805 C800 1.390 . S
C805 C804 1.387 . S
H806 C818 0.930 1_455 S
H807 C820 0.930 . S
H808 C821 0.930 . S
H809 C825 0.959 . S
H810 C825 0.959 . S
H811 C825 0.961 . S
H812 C826 0.960 . S
H813 C826 0.961 1_455 S
H814 C826 0.959 . S
H815 C829 0.929 . S
H816 C830 0.931 . S
H817 C832 0.930 . S
C818 H806 0.930 1_655 S
C818 C819 1.399 . S
C818 C823 1.399 . S
C819 C818 1.399 . S
C819 C820 1.376 . S
C820 H807 0.930 . S
C820 C819 1.376 . S
C820 C821 1.388 . S
C821 H808 0.930 . S
C821 C820 1.388 . S
C821 C822 1.390 . S
C822 C821 1.390 . S
C822 C823 1.394 . S
C822 C828 1.465 . S
C823 C818 1.399 . S
C823 C822 1.394 . S
C823 C824 1.516 1_655 S
C824 C823 1.516 1_455 S
C824 C825 1.502 . S
C824 C826 1.561 1_455 S
C824 C827 1.526 . S
C825 H809 0.959 . S
C825 H810 0.959 . S
C825 H811 0.961 . S
C825 C824 1.502 . S
C826 H812 0.960 . S
C826 H813 0.961 1_655 S
C826 H814 0.959 . S
C826 C824 1.561 1_655 S
C827 C824 1.526 . S
C827 C828 1.396 1_455 S
C827 C832 1.390 . S
C828 C822 1.465 . S
C828 C827 1.396 1_655 S
C828 C829 1.399 . S
C829 H815 0.929 . S
C829 C828 1.399 . S
C829 C830 1.385 . S
C830 H816 0.931 . S
C830 C829 1.385 . S
C830 C831 1.389 1_655 S
C831 C830 1.389 1_455 S
C831 C832 1.387 . S
C832 H817 0.930 . S
C832 C827 1.390 . S
C832 C831 1.387 . S
H833 C845 0.930 . S
H834 C847 0.930 . S
H835 C848 0.930 . S
H836 C852 0.959 . S
H837 C852 0.959 . S
H838 C852 0.961 . S
H839 C853 0.960 . S
H840 C853 0.961 . S
H841 C853 0.960 . S
H842 C856 0.929 . S
H843 C857 0.931 . S
H844 C859 0.930 . S
C845 H833 0.930 . S
C845 C846 1.399 . S
C845 C850 1.399 . S
C846 C845 1.399 . S
C846 C847 1.376 1_655 S
C847 H834 0.930 . S
C847 C846 1.376 1_455 S
C847 C848 1.388 . S
C848 H835 0.930 . S
C848 C847 1.388 . S
C848 C849 1.390 . S
C849 C848 1.390 . S
C849 C850 1.394 1_455 S
C849 C855 1.465 . S
C850 C845 1.399 . S
C850 C849 1.394 1_655 S
C850 C851 1.516 . S
C851 C850 1.516 . S
C851 C852 1.502 . S
C851 C853 1.561 . S
C851 C854 1.526 . S
C852 H836 0.959 . S
C852 H837 0.959 . S
C852 H838 0.961 . S
C852 C851 1.502 . S
C853 H839 0.960 . S
C853 H840 0.961 . S
C853 H841 0.960 . S
C853 C851 1.561 . S
C854 C851 1.526 . S
C854 C855 1.396 1_655 S
C854 C859 1.390 . S
C855 C849 1.465 . S
C855 C854 1.396 1_455 S
C855 C856 1.399 . S
C856 H842 0.929 . S
C856 C855 1.399 . S
C856 C857 1.385 . S
C857 H843 0.931 . S
C857 C856 1.385 . S
C857 C858 1.389 . S
C858 C857 1.389 . S
C858 C859 1.387 1_455 S
C859 H844 0.930 . S
C859 C854 1.390 . S
C859 C858 1.387 1_655 S
H860 C872 0.930 . S
H861 C874 0.930 . S
H862 C875 0.930 . S
H863 C879 0.959 . S
H864 C879 0.959 . S
H865 C879 0.961 . S
H866 C880 0.960 . S
H867 C880 0.961 . S
H868 C880 0.959 . S
H869 C883 0.929 . S
H870 C884 0.931 . S
H871 C886 0.930 . S
C872 H860 0.930 . S
C872 C873 1.399 . S
C872 C877 1.399 . S
C873 C872 1.399 . S
C873 C874 1.376 . S
C874 H861 0.930 . S
C874 C873 1.376 . S
C874 C875 1.388 . S
C875 H862 0.930 . S
C875 C874 1.388 . S
C875 C876 1.390 . S
C876 C875 1.390 . S
C876 C877 1.394 . S
C876 C882 1.465 . S
C877 C872 1.399 . S
C877 C876 1.394 . S
C877 C878 1.516 . S
C878 C877 1.516 . S
C878 C879 1.502 . S
C878 C880 1.561 . S
C878 C881 1.526 . S
C879 H863 0.959 . S
C879 H864 0.959 . S
C879 H865 0.961 . S
C879 C878 1.502 . S
C880 H866 0.960 . S
C880 H867 0.961 . S
C880 H868 0.959 . S
C880 C878 1.561 . S
C881 C878 1.526 . S
C881 C882 1.396 . S
C881 C886 1.390 . S
C882 C876 1.465 . S
C882 C881 1.396 . S
C882 C883 1.399 . S
C883 H869 0.929 . S
C883 C882 1.399 . S
C883 C884 1.385 . S
C884 H870 0.931 . S
C884 C883 1.385 . S
C884 C885 1.389 . S
C885 C884 1.389 . S
C885 C886 1.387 . S
C886 H871 0.930 . S
C886 C881 1.390 . S
C886 C885 1.387 . S
H887 C899 0.930 . S
H888 C901 0.930 . S
H889 C902 0.930 . S
H890 C906 0.959 . S
H891 C906 0.959 . S
H892 C906 0.961 . S
H893 C907 0.960 . S
H894 C907 0.961 . S
H895 C907 0.959 . S
H896 C910 0.929 . S
H897 C911 0.931 . S
H898 C913 0.930 . S
C899 H887 0.930 . S
C899 C900 1.399 . S
C899 C904 1.399 . S
C900 C899 1.399 . S
C900 C901 1.376 . S
C901 H888 0.930 . S
C901 C900 1.376 . S
C901 C902 1.388 . S
C902 H889 0.930 . S
C902 C901 1.388 . S
C902 C903 1.390 . S
C903 C902 1.390 . S
C903 C904 1.394 . S
C903 C909 1.465 . S
C904 C899 1.399 . S
C904 C903 1.394 . S
C904 C905 1.516 . S
C905 C904 1.516 . S
C905 C906 1.502 . S
C905 C907 1.561 . S
C905 C908 1.526 . S
C906 H890 0.959 . S
C906 H891 0.959 . S
C906 H892 0.961 . S
C906 C905 1.502 . S
C907 H893 0.960 . S
C907 H894 0.961 . S
C907 H895 0.959 . S
C907 C905 1.561 . S
C908 C905 1.526 . S
C908 C909 1.396 . S
C908 C913 1.390 . S
C909 C903 1.465 . S
C909 C908 1.396 . S
C909 C910 1.399 . S
C910 H896 0.929 . S
C910 C909 1.399 . S
C910 C911 1.385 . S
C911 H897 0.931 . S
C911 C910 1.385 . S
C911 C912 1.389 . S
C912 C911 1.389 . S
C912 C913 1.387 . S
C913 H898 0.930 . S
C913 C908 1.390 . S
C913 C912 1.387 . S
H914 C926 0.930 . S
H915 C928 0.930 . S
H916 C929 0.930 . S
H917 C933 0.959 . S
H918 C933 0.959 . S
H919 C933 0.961 . S
H920 C934 0.960 . S
H921 C934 0.961 . S
H922 C934 0.959 . S
H923 C937 0.929 . S
H924 C938 0.931 . S
H925 C940 0.930 . S
C926 H914 0.930 . S
C926 C927 1.399 . S
C926 C931 1.399 . S
C927 C926 1.399 . S
C927 C928 1.376 . S
C928 H915 0.930 . S
C928 C927 1.376 . S
C928 C929 1.388 . S
C929 H916 0.930 . S
C929 C928 1.388 . S
C929 C930 1.390 . S
C930 C929 1.390 . S
C930 C931 1.394 . S
C930 C936 1.465 . S
C931 C926 1.399 . S
C931 C930 1.394 . S
C931 C932 1.516 . S
C932 C931 1.516 . S
C932 C933 1.502 . S
C932 C934 1.561 . S
C932 C935 1.526 . S
C933 H917 0.959 . S
C933 H918 0.959 . S
C933 H919 0.961 . S
C933 C932 1.502 . S
C934 H920 0.960 . S
C934 H921 0.961 . S
C934 H922 0.959 . S
C934 C932 1.561 . S
C935 C932 1.526 . S
C935 C936 1.396 . S
C935 C940 1.390 . S
C936 C930 1.465 . S
C936 C935 1.396 . S
C936 C937 1.399 . S
C937 H923 0.929 . S
C937 C936 1.399 . S
C937 C938 1.385 . S
C938 H924 0.931 . S
C938 C937 1.385 . S
C938 C939 1.389 . S
C939 C938 1.389 . S
C939 C940 1.387 . S
C940 H925 0.930 . S
C940 C935 1.390 . S
C940 C939 1.387 . S
H941 C953 0.930 . S
H942 C955 0.930 . S
H943 C956 0.930 . S
H944 C960 0.959 . S
H945 C960 0.959 . S
H946 C960 0.961 . S
H947 C961 0.960 . S
H948 C961 0.961 . S
H949 C961 0.959 . S
H950 C964 0.929 . S
H951 C965 0.931 . S
H952 C967 0.930 . S
C953 H941 0.930 . S
C953 C954 1.399 . S
C953 C958 1.399 . S
C954 C953 1.399 . S
C954 C955 1.376 . S
C955 H942 0.930 . S
C955 C954 1.376 . S
C955 C956 1.388 . S
C956 H943 0.930 . S
C956 C955 1.388 . S
C956 C957 1.390 . S
C957 C956 1.390 . S
C957 C958 1.394 . S
C957 C963 1.465 . S
C958 C953 1.399 . S
C958 C957 1.394 . S
C958 C959 1.516 . S
C959 C958 1.516 . S
C959 C960 1.502 . S
C959 C961 1.561 . S
C959 C962 1.526 . S
C960 H944 0.959 . S
C960 H945 0.959 . S
C960 H946 0.961 . S
C960 C959 1.502 . S
C961 H947 0.960 . S
C961 H948 0.961 . S
C961 H949 0.959 . S
C961 C959 1.561 . S
C962 C959 1.526 . S
C962 C963 1.396 . S
C962 C967 1.390 . S
C963 C957 1.465 . S
C963 C962 1.396 . S
C963 C964 1.399 . S
C964 H950 0.929 . S
C964 C963 1.399 . S
C964 C965 1.385 . S
C965 H951 0.931 . S
C965 C964 1.385 . S
C965 C966 1.389 . S
C966 C965 1.389 . S
C966 C967 1.387 . S
C967 H952 0.930 . S
C967 C962 1.390 . S
C967 C966 1.387 . S
C333 C3 2.315 . S
C345 C22 2.292 . S
C360 C62 2.312 . S
C372 C43 2.279 . S
C387 C83 2.278 . S
C399 C102 2.318 . S
C414 C123 2.285 . S
C426 C142 2.316 . S
C441 C163 2.313 . S
C453 C182 2.295 . S
C468 C203 2.313 . S
C480 C222 2.286 . S
C495 C243 2.318 . S
C507 C262 2.279 . S
C522 C302 2.314 . S
C534 C283 2.288 . S
C549 C49 2.579 . S
C561 C9 2.506 . S
C576 C129 2.561 . S
C588 C106 2.492 . S
C603 C169 2.514 . S
C615 C209 2.569 . S
C630 C266 2.508 . S
C642 C289 2.557 . S
C657 C26 1.761 . S
C669 C226 1.823 . S
C684 C186 1.833 . S
C696 C66 1.791 . S
C711 C89 1.750 . S
C723 C306 1.822 . S
C738 C146 1.750 . S
C750 C249 1.812 . S
C765 C2 1.538 . S
C777 C122 1.569 . S
C792 C42 1.556 . S
C804 C82 1.567 . S
C819 C55 1.513 . S
C831 C95 1.553 . S
C846 C135 1.561 . S
C858 C15 1.591 . S
C873 C162 1.506 . S
C885 C282 1.513 . S
C900 C202 1.593 . S
C912 C242 1.522 . S
C927 C215 1.479 . S
C939 C255 1.557 . S
C954 C295 1.544 . S
C966 C175 1.569 . S
