# Generated by pormake.
# Topology ske, (6)-cn, num edge types: 1
# Building blocks:
#     Node 0, Type 0, BuildingBlock: CUWYAW_clean_sbu_0, # of connection points: 6
#     Node 1, Type 0, BuildingBlock: CUWYAW_clean_sbu_0, # of connection points: 6
#     Node 2, Type 0, BuildingBlock: CUWYAW_clean_sbu_0, # of connection points: 6
#     Node 3, Type 0, BuildingBlock: CUWYAW_clean_sbu_0, # of connection points: 6
#     Node 4, Type 0, BuildingBlock: CUWYAW_clean_sbu_0, # of connection points: 6
#     Node 5, Type 0, BuildingBlock: CUWYAW_clean_sbu_0, # of connection points: 6
#     Node 6, Type 0, BuildingBlock: CUWYAW_clean_sbu_0, # of connection points: 6
#     Node 7, Type 0, BuildingBlock: CUWYAW_clean_sbu_0, # of connection points: 6
#     Edge 8, Type (0, 0), BuildingBlock: OJICUG_clean_linker_0, # of connection points: 2
#     Edge 9, Type (0, 0), BuildingBlock: OJICUG_clean_linker_0, # of connection points: 2
#     Edge 10, Type (0, 0), BuildingBlock: OJICUG_clean_linker_0, # of connection points: 2
#     Edge 11, Type (0, 0), BuildingBlock: OJICUG_clean_linker_0, # of connection points: 2
#     Edge 12, Type (0, 0), BuildingBlock: OJICUG_clean_linker_0, # of connection points: 2
#     Edge 13, Type (0, 0), BuildingBlock: OJICUG_clean_linker_0, # of connection points: 2
#     Edge 14, Type (0, 0), BuildingBlock: OJICUG_clean_linker_0, # of connection points: 2
#     Edge 15, Type (0, 0), BuildingBlock: OJICUG_clean_linker_0, # of connection points: 2
#     Edge 16, Type (0, 0), BuildingBlock: OJICUG_clean_linker_0, # of connection points: 2
#     Edge 17, Type (0, 0), BuildingBlock: OJICUG_clean_linker_0, # of connection points: 2
#     Edge 18, Type (0, 0), BuildingBlock: OJICUG_clean_linker_0, # of connection points: 2
#     Edge 19, Type (0, 0), BuildingBlock: OJICUG_clean_linker_0, # of connection points: 2
#     Edge 20, Type (0, 0), BuildingBlock: OJICUG_clean_linker_0, # of connection points: 2
#     Edge 21, Type (0, 0), BuildingBlock: OJICUG_clean_linker_0, # of connection points: 2
#     Edge 22, Type (0, 0), BuildingBlock: OJICUG_clean_linker_0, # of connection points: 2
#     Edge 23, Type (0, 0), BuildingBlock: OJICUG_clean_linker_0, # of connection points: 2
#     Edge 24, Type (0, 0), BuildingBlock: OJICUG_clean_linker_0, # of connection points: 2
#     Edge 25, Type (0, 0), BuildingBlock: OJICUG_clean_linker_0, # of connection points: 2
#     Edge 26, Type (0, 0), BuildingBlock: OJICUG_clean_linker_0, # of connection points: 2
#     Edge 27, Type (0, 0), BuildingBlock: OJICUG_clean_linker_0, # of connection points: 2
#     Edge 28, Type (0, 0), BuildingBlock: OJICUG_clean_linker_0, # of connection points: 2
#     Edge 29, Type (0, 0), BuildingBlock: OJICUG_clean_linker_0, # of connection points: 2
#     Edge 30, Type (0, 0), BuildingBlock: OJICUG_clean_linker_0, # of connection points: 2
#     Edge 31, Type (0, 0), BuildingBlock: OJICUG_clean_linker_0, # of connection points: 2
# Relax obj value: 0.180
# Max RMSD: 0.199
# Mean RMSD: 0.192
data_MOF--net-ske--node1-CUWYAW_clean_sbu_0--edge1-OJICUG_clean_linker_0
_symmetry_space_group_name_H-M    P1
_symmetry_Int_Tables_number       1
_symmetry_cell_setting            triclinic
loop_
_symmetry_equiv_pos_as_xyz
'x, y, z'
_cell_length_a     87.644914
_cell_length_b     20.92161
_cell_length_c     11.46424
_cell_angle_alpha  89.897772
_cell_angle_beta   90.078326
_cell_angle_gamma 97.953071
loop_
_atom_site_label
_atom_site_type_symbol
_atom_site_fract_x
_atom_site_fract_y
_atom_site_fract_z
_atom_type_partial_charge
C0 C 0.19066 0.22941 0.55194 0.0
Eu1 Eu 0.16304 0.26241 0.53889 0.0
C2 C 0.20587 0.23958 0.61035 0.0
C3 C 0.21589 0.29784 0.59879 0.0
C4 C 0.23105 0.30299 0.64031 0.0
C5 C 0.23652 0.24996 0.69381 0.0
C6 C 0.22629 0.1925 0.70869 0.0
C7 C 0.21117 0.18737 0.66712 0.0
C8 C 0.15591 0.3855 0.53198 0.0
C9 C 0.14636 0.27079 0.79003 0.0
C10 C 0.10095 0.30212 0.53334 0.0
Eu11 Eu 0.12875 0.27048 0.54643 0.0
C12 C 0.08461 0.28192 0.50075 0.0
C13 C 0.07546 0.23224 0.56162 0.0
C14 C 0.05945 0.22254 0.54736 0.0
C15 C 0.05222 0.26207 0.47174 0.0
C16 C 0.06145 0.30898 0.40532 0.0
C17 C 0.07748 0.31903 0.42025 0.0
C18 C 0.13585 0.14731 0.55164 0.0
C19 C 0.14591 0.26672 0.29649 0.0
O20 O 0.17887 0.19994 0.60994 0.0
O21 O 0.18699 0.27513 0.48377 0.0
O22 O 0.16776 0.36752 0.48065 0.0
O23 O 0.14926 0.33972 0.59256 0.0
O24 O 0.15769 0.24918 0.73256 0.0
O25 O 0.13518 0.29402 0.73364 0.0
O26 O 0.11123 0.31562 0.45112 0.0
O27 O 0.10631 0.2741 0.62349 0.0
O28 O 0.12369 0.16448 0.59965 0.0
O29 O 0.14252 0.19351 0.4925 0.0
O30 O 0.13495 0.29038 0.35518 0.0
O31 O 0.15667 0.24028 0.35182 0.0
H32 H 0.21221 0.33885 0.55448 0.0
H33 H 0.23863 0.34779 0.62653 0.0
H34 H 0.23003 0.15109 0.75128 0.0
H35 H 0.20374 0.14175 0.67631 0.0
H36 H 0.08055 0.20267 0.62436 0.0
H37 H 0.05267 0.18537 0.59848 0.0
H38 H 0.05623 0.34042 0.34682 0.0
H39 H 0.08423 0.35805 0.3731 0.0
C40 C 0.84474 0.28209 0.54085 0.0
Eu41 Eu 0.87275 0.25368 0.5286 0.0
C42 C 0.82965 0.27233 0.60082 0.0
C43 C 0.81954 0.2142 0.59108 0.0
C44 C 0.80446 0.20964 0.63378 0.0
C45 C 0.79916 0.2632 0.68628 0.0
C46 C 0.80949 0.32045 0.6995 0.0
C47 C 0.82453 0.32498 0.65698 0.0
C48 C 0.88289 0.13617 0.51751 0.0
C49 C 0.89048 0.25439 0.78008 0.0
C50 C 0.93683 0.22217 0.53877 0.0
Eu51 Eu 0.90934 0.25638 0.53318 0.0
C52 C 0.95332 0.23919 0.50704 0.0
C53 C 0.96301 0.28524 0.57208 0.0
C54 C 0.97899 0.29249 0.55718 0.0
C55 C 0.98569 0.25402 0.47686 0.0
C56 C 0.97599 0.21055 0.4071 0.0
C57 C 0.95997 0.20289 0.42265 0.0
C58 C 0.90142 0.37876 0.50511 0.0
C59 C 0.89117 0.25789 0.28731 0.0
O60 O 0.85645 0.31475 0.59525 0.0
O61 O 0.84864 0.23513 0.4769 0.0
O62 O 0.87009 0.14883 0.47157 0.0
O63 O 0.88895 0.18416 0.57611 0.0
O64 O 0.87741 0.25835 0.72367 0.0
O65 O 0.90355 0.24865 0.72555 0.0
O66 O 0.92675 0.20328 0.45663 0.0
O67 O 0.93132 0.25664 0.61991 0.0
O68 O 0.91559 0.36719 0.51196 0.0
O69 O 0.89305 0.32536 0.51293 0.0
O70 O 0.9027 0.23657 0.34372 0.0
O71 O 0.8797 0.27946 0.34318 0.0
H72 H 0.82309 0.17289 0.54723 0.0
H73 H 0.79678 0.16495 0.62155 0.0
H74 H 0.80588 0.36224 0.74136 0.0
H75 H 0.83202 0.37053 0.66476 0.0
H76 H 0.95835 0.31393 0.63823 0.0
H77 H 0.98615 0.32705 0.61107 0.0
H78 H 0.98082 0.18001 0.34491 0.0
H79 H 0.95284 0.16647 0.37226 0.0
C80 C 0.10086 0.76977 0.48314 0.0
Eu81 Eu 0.12994 0.76032 0.51318 0.0
C82 C 0.0846 0.7553 0.52087 0.0
C83 C 0.07447 0.71032 0.45745 0.0
C84 C 0.05856 0.70596 0.4733 0.0
C85 C 0.0524 0.74671 0.55256 0.0
C86 C 0.06255 0.78873 0.62174 0.0
C87 C 0.07851 0.79325 0.60562 0.0
C88 C 0.14186 0.64848 0.54956 0.0
C89 C 0.14697 0.76552 0.75983 0.0
C90 C 0.19447 0.78132 0.50765 0.0
Eu91 Eu 0.16465 0.77809 0.517 0.0
C92 C 0.20881 0.77379 0.4444 0.0
C93 C 0.21958 0.82906 0.4266 0.0
C94 C 0.23403 0.82432 0.37957 0.0
C95 C 0.23816 0.76401 0.3487 0.0
C96 C 0.2273 0.70842 0.36523 0.0
C97 C 0.21274 0.71324 0.41294 0.0
C98 C 0.15162 0.88757 0.55703 0.0
C99 C 0.14802 0.76956 0.26542 0.0
O100 O 0.11031 0.81167 0.54258 0.0
O101 O 0.10757 0.72321 0.43857 0.0
O102 O 0.12946 0.6627 0.59897 0.0
O103 O 0.14717 0.69286 0.47966 0.0
O104 O 0.13499 0.78264 0.70347 0.0
O105 O 0.15893 0.74914 0.70296 0.0
O106 O 0.18517 0.73044 0.54312 0.0
O107 O 0.18727 0.82953 0.47733 0.0
O108 O 0.16374 0.87349 0.61006 0.0
O109 O 0.14738 0.84496 0.48208 0.0
O110 O 0.16112 0.7686 0.3221 0.0
O111 O 0.13487 0.77068 0.32062 0.0
H112 H 0.07878 0.68084 0.3908 0.0
H113 H 0.05104 0.67241 0.41997 0.0
H114 H 0.05814 0.82093 0.68315 0.0
H115 H 0.08598 0.82888 0.65517 0.0
H116 H 0.21699 0.87619 0.4525 0.0
H117 H 0.24216 0.86802 0.37087 0.0
H118 H 0.23006 0.66126 0.34172 0.0
H119 H 0.20472 0.66968 0.42692 0.0
C120 C 0.93835 0.74079 0.47604 0.0
Eu121 Eu 0.90992 0.76065 0.50561 0.0
C122 C 0.95469 0.75464 0.51255 0.0
C123 C 0.96495 0.7988 0.44834 0.0
C124 C 0.98084 0.80287 0.46558 0.0
C125 C 0.98685 0.76261 0.54696 0.0
C126 C 0.97659 0.72118 0.61622 0.0
C127 C 0.96066 0.71696 0.59875 0.0
C128 C 0.89924 0.87586 0.53838 0.0
C129 C 0.89207 0.75395 0.74878 0.0
C130 C 0.84575 0.7906 0.50823 0.0
Eu131 Eu 0.87317 0.75535 0.50279 0.0
C132 C 0.82996 0.77892 0.4597 0.0
C133 C 0.8204 0.71968 0.47378 0.0
C134 C 0.80505 0.71245 0.43554 0.0
C135 C 0.79895 0.76434 0.38299 0.0
C136 C 0.80868 0.82303 0.36713 0.0
C137 C 0.82397 0.83021 0.40527 0.0
C138 C 0.88155 0.63317 0.49626 0.0
C139 C 0.89038 0.74822 0.25647 0.0
O140 O 0.92861 0.70538 0.54447 0.0
O141 O 0.93219 0.78598 0.42117 0.0
O142 O 0.912 0.86173 0.58326 0.0
O143 O 0.89347 0.83034 0.47285 0.0
O144 O 0.90419 0.73732 0.69374 0.0
O145 O 0.88034 0.77364 0.6921 0.0
O146 O 0.85674 0.8165 0.43868 0.0
O147 O 0.8502 0.74758 0.57923 0.0
O148 O 0.86731 0.64427 0.49182 0.0
O149 O 0.88985 0.68702 0.50144 0.0
O150 O 0.87733 0.75585 0.30937 0.0
O151 O 0.90334 0.74346 0.31419 0.0
H152 H 0.96077 0.82809 0.38056 0.0
H153 H 0.98846 0.83596 0.41205 0.0
H154 H 0.98088 0.68927 0.67909 0.0
H155 H 0.9531 0.68185 0.6488 0.0
H156 H 0.82466 0.67933 0.51611 0.0
H157 H 0.79785 0.66673 0.44994 0.0
H158 H 0.80448 0.86364 0.32522 0.0
H159 H 0.83108 0.87647 0.3939 0.0
C160 C 0.69111 0.72306 0.05417 0.0
Eu161 Eu 0.66291 0.75018 0.03986 0.0
C162 C 0.70564 0.73261 0.12223 0.0
C163 C 0.71557 0.79148 0.11872 0.0
C164 C 0.73023 0.79685 0.16942 0.0
C165 C 0.73535 0.74348 0.22446 0.0
C166 C 0.7252 0.68529 0.23119 0.0
C167 C 0.71055 0.6799 0.18037 0.0
C168 C 0.65547 0.87208 1.0239 0.0
C169 C 0.64713 0.76209 0.29351 0.0
C170 C 0.60107 0.78274 0.04479 0.0
Eu171 Eu 0.62941 0.7565 0.05371 0.0
C172 C 0.58474 0.76208 1.01259 0.0
C173 C 0.57579 0.71118 0.07191 0.0
C174 C 0.55975 0.70107 0.05931 0.0
C175 C 0.55229 0.74148 0.98702 0.0
C176 C 0.56133 0.7898 0.92223 0.0
C177 C 0.57738 0.80018 0.9354 0.0
C178 C 0.63689 0.63398 0.06266 0.0
C179 C 0.64571 0.75097 0.79962 0.0
O180 O 0.67921 0.6864 0.09852 0.0
O181 O 0.68723 0.77234 0.99657 0.0
O182 O 0.66622 0.8514 0.96346 0.0
O183 O 0.64956 0.82922 0.0937 0.0
O184 O 0.65808 0.73846 0.23509 0.0
O185 O 0.63614 0.78623 0.2371 0.0
O186 O 0.61123 0.8002 0.96323 0.0
O187 O 0.60676 0.753 0.13135 0.0
O188 O 0.62588 0.6531 0.12236 0.0
O189 O 0.64273 0.67837 0.99615 0.0
O190 O 0.63475 0.77391 0.85961 0.0
O191 O 0.65666 0.72553 0.85419 0.0
H192 H 0.71225 0.83292 0.07351 0.0
H193 H 0.73778 0.84221 0.1613 0.0
H194 H 0.72865 0.64349 0.27439 0.0
H195 H 0.70322 0.63377 0.18355 0.0
H196 H 0.58106 0.68092 0.13235 0.0
H197 H 0.55314 0.66283 0.10911 0.0
H198 H 0.55594 0.82207 0.86645 0.0
H199 H 0.58395 0.84023 0.88974 0.0
C200 C 0.34572 0.78034 0.0312 0.0
Eu201 Eu 0.37461 0.76268 1.01687 0.0
C202 C 0.33131 0.77212 0.10046 0.0
C203 C 0.32182 0.71215 0.10715 0.0
C204 C 0.30696 0.70776 0.1543 0.0
C205 C 0.30125 0.76331 0.19455 0.0
C206 C 0.31105 0.82253 0.19305 0.0
C207 C 0.32588 0.82688 0.14632 0.0
C208 C 0.38412 0.64506 0.99984 0.0
C209 C 0.39118 0.75685 0.27106 0.0
C210 C 0.43742 0.75457 1.01435 0.0
Eu211 Eu 0.40836 0.76659 0.03039 0.0
C212 C 0.45407 0.7492 1.00839 0.0
C213 C 0.46439 0.78468 0.08586 0.0
C214 C 0.48016 0.7805 0.08074 0.0
C215 C 0.48602 0.74118 0.99728 0.0
C216 C 0.4757 0.70598 0.91904 0.0
C217 C 0.45985 0.70962 0.92508 0.0
C218 C 0.39844 0.88399 0.04451 0.0
C219 C 0.39181 0.76914 0.77585 0.0
O220 O 0.35717 0.82321 0.06516 0.0
O221 O 0.35033 0.72917 0.9854 0.0
O222 O 0.37321 0.66327 0.93735 0.0
O223 O 0.38935 0.68839 0.0712 0.0
O224 O 0.37947 0.77467 0.21202 0.0
O225 O 0.40303 0.73854 0.21613 0.0
O226 O 0.42664 0.71195 0.96999 0.0
O227 O 0.43239 0.80292 0.06669 0.0
O228 O 0.40915 0.86638 0.10965 0.0
O229 O 0.3936 0.84001 0.97364 0.0
O230 O 0.40355 0.75232 0.8356 0.0
O231 O 0.37994 0.7877 0.83 0.0
H232 H 0.32558 0.66904 0.07158 0.0
H233 H 0.29968 0.6615 0.15384 0.0
H234 H 0.3071 0.86602 0.22526 0.0
H235 H 0.33285 0.8738 0.14159 0.0
H236 H 0.46028 0.81566 0.15095 0.0
H237 H 0.48781 0.80882 0.14132 0.0
H238 H 0.47986 0.67501 0.85419 0.0
H239 H 0.45215 0.6819 0.86404 0.0
C240 C 0.60032 0.25126 0.03496 0.0
Eu241 Eu 0.62975 0.24731 1.02228 0.0
C242 C 0.58349 0.25166 0.03866 0.0
C243 C 0.57381 0.2107 0.96462 0.0
C244 C 0.55789 0.21082 0.96633 0.0
C245 C 0.55125 0.2516 0.04265 0.0
C246 C 0.56091 0.2922 0.11768 0.0
C247 C 0.57691 0.29247 0.11525 0.0
C248 C 0.64125 0.13323 1.00726 0.0
C249 C 0.64624 0.24937 0.27775 0.0
C250 C 0.69272 0.24951 1.02336 0.0
Eu251 Eu 0.66338 0.25988 0.03639 0.0
C252 C 0.70673 0.25416 0.94989 0.0
C253 C 0.71739 0.31093 0.95038 0.0
C254 C 0.73181 0.31242 0.8977 0.0
C255 C 0.73599 0.25704 0.84383 0.0
C256 C 0.72512 0.20089 0.83976 0.0
C257 C 0.71068 0.19941 0.89244 0.0
C258 C 0.65193 0.37378 0.05664 0.0
C259 C 0.64685 0.26162 0.78231 0.0
O260 O 0.6104 0.29638 0.08057 0.0
O261 O 0.60626 0.20473 0.98399 0.0
O262 O 0.63038 0.14886 0.94137 0.0
O263 O 0.64553 0.17767 0.07882 0.0
O264 O 0.63406 0.26156 0.21777 0.0
O265 O 0.65865 0.23589 0.22404 0.0
O266 O 0.68175 0.20128 1.00641 0.0
O267 O 0.68742 0.30279 0.05166 0.0
O268 O 0.66293 0.3575 0.12076 0.0
O269 O 0.64758 0.33038 0.98293 0.0
O270 O 0.65875 0.24575 0.84142 0.0
O271 O 0.63477 0.27759 0.83741 0.0
H272 H 0.57855 0.17869 0.90461 0.0
H273 H 0.55075 0.17849 0.90842 0.0
H274 H 0.55613 0.32452 0.17679 0.0
H275 H 0.58411 0.32447 0.17333 0.0
H276 H 0.71485 0.3536 0.99568 0.0
H277 H 0.73994 0.35625 0.90391 0.0
H278 H 0.72789 0.15764 0.79766 0.0
H279 H 0.70283 0.15463 0.8916 0.0
C280 C 0.43622 0.2569 0.02572 0.0
Eu281 Eu 0.40702 0.26563 1.0116 0.0
C282 C 0.45296 0.25428 0.02956 0.0
C283 C 0.46291 0.29566 0.95802 0.0
C284 C 0.47879 0.2945 0.96148 0.0
C285 C 0.48511 0.25223 0.03716 0.0
C286 C 0.47517 0.21097 0.10932 0.0
C287 C 0.45921 0.21173 0.10507 0.0
C288 C 0.39712 0.38271 0.9957 0.0
C289 C 0.39064 0.26751 0.26593 0.0
C290 C 0.34459 0.27927 1.01079 0.0
Eu291 Eu 0.37345 0.26099 0.02496 0.0
C292 C 0.33015 0.27076 0.94166 0.0
C293 C 0.31985 0.21303 0.94816 0.0
C294 C 0.30512 0.20894 0.89909 0.0
C295 C 0.3003 0.26259 0.84297 0.0
C296 C 0.31083 0.31951 0.83273 0.0
C297 C 0.32555 0.3236 0.88182 0.0
C298 C 0.38317 0.14337 0.0416 0.0
C299 C 0.38991 0.2554 0.77065 0.0
O300 O 0.42576 0.21136 0.06558 0.0
O301 O 0.43077 0.30609 0.97943 0.0
O302 O 0.40756 0.36434 0.92926 0.0
O303 O 0.39228 0.33915 0.06768 0.0
O304 O 0.40234 0.25048 0.20635 0.0
O305 O 0.37881 0.28625 0.21148 0.0
O306 O 0.35607 0.32151 0.97522 0.0
O307 O 0.34917 0.22828 0.05806 0.0
O308 O 0.37227 0.16114 0.10463 0.0
O309 O 0.38818 0.187 0.97015 0.0
O310 O 0.37817 0.27284 0.82947 0.0
O311 O 0.40181 0.23755 0.82594 0.0
H312 H 0.45843 0.32902 0.89894 0.0
H313 H 0.48615 0.32736 0.90578 0.0
H314 H 0.47971 0.17754 0.16788 0.0
H315 H 0.45179 0.17945 0.16133 0.0
H316 H 0.3229 0.17166 0.99516 0.0
H317 H 0.29728 0.16456 0.90979 0.0
H318 H 0.30758 0.36143 0.78861 0.0
H319 H 0.33314 0.369 0.87647 0.0
C320 C 0.26063 0.30975 0.78328 0.0
C321 C 0.25294 0.25371 0.73056 0.0
H322 H 0.28145 0.35623 0.86112 0.0
C323 C 0.2611 0.20121 0.71231 0.0
H324 H 0.25466 0.3508 0.79986 0.0
C325 C 0.27649 0.20436 0.74712 0.0
C326 C 0.28413 0.26013 0.80094 0.0
H327 H 0.25565 0.15776 0.66978 0.0
H328 H 0.28244 0.16318 0.73105 0.0
C329 C 0.27602 0.3129 0.8181 0.0
C330 C 0.75983 0.20394 0.8168 0.0
C331 C 0.75189 0.25712 0.79796 0.0
H332 H 0.78099 0.1644 0.79806 0.0
C333 C 0.75952 0.31146 0.73955 0.0
H334 H 0.7544 0.16167 0.86309 0.0
C335 C 0.77477 0.31309 0.70281 0.0
C336 C 0.78281 0.26044 0.72351 0.0
H337 H 0.75368 0.35282 0.72188 0.0
H338 H 0.78023 0.35558 0.65733 0.0
C339 C 0.7751 0.20555 0.77987 0.0
C340 C 0.27629 0.80879 0.19213 0.0
C341 C 0.28487 0.76085 0.23073 0.0
H342 H 0.25482 0.84612 0.19541 0.0
C343 C 0.27765 0.71117 0.30276 0.0
H344 H 0.28136 0.84677 0.13406 0.0
C345 C 0.26235 0.71092 0.33874 0.0
C346 C 0.25392 0.76014 0.30276 0.0
H347 H 0.28396 0.67352 0.33392 0.0
H348 H 0.25729 0.67337 0.39768 0.0
C349 C 0.26103 0.80831 0.22723 0.0
C350 C 0.7585 0.80392 0.32576 0.0
C351 C 0.75143 0.74775 0.26978 0.0
H352 H 0.77883 0.85276 0.40693 0.0
C353 C 0.76003 0.69635 0.25396 0.0
H354 H 0.75218 0.84405 0.34112 0.0
C355 C 0.77535 0.70135 0.2917 0.0
C356 C 0.78248 0.75793 0.34599 0.0
H357 H 0.75506 0.65274 0.20951 0.0
H358 H 0.78172 0.66144 0.27563 0.0
C359 C 0.77381 0.80893 0.36338 0.0
C360 C 0.15802 1.00511 0.51221 0.0
C361 C 0.14742 0.95351 0.5533 0.0
H362 H 0.16248 0.10672 0.47616 0.0
C363 C 0.13295 0.96568 0.59253 0.0
H364 H 0.16925 0.99672 0.48139 0.0
C365 C 0.12922 0.02875 0.59245 0.0
C366 C 0.13977 0.08054 0.55071 0.0
H367 H 0.12466 0.92667 0.62546 0.0
H368 H 0.11804 0.03694 0.62471 0.0
C369 C 0.15415 0.06794 0.50941 0.0
C370 C 0.88064 0.45056 0.48866 0.0
C371 C 0.89631 0.44372 0.49866 0.0
H372 H 0.86371 0.51554 0.4805 0.0
C373 C 0.90716 0.49988 0.50396 0.0
H374 H 0.87203 0.40844 0.48213 0.0
C375 C 0.90242 0.56133 0.50155 0.0
C376 C 0.88674 0.56823 0.49423 0.0
H377 H 0.91934 0.49639 0.511 0.0
H378 H 0.91104 0.60336 0.50628 0.0
C379 C 0.8759 0.51204 0.48698 0.0
C380 C 0.88297 0.95702 0.4628 0.0
C381 C 0.89492 0.94233 0.53557 0.0
H382 H 0.86989 0.02935 0.39996 0.0
C383 C 0.90315 0.99253 0.60147 0.0
H384 H 0.87661 0.92005 0.40909 0.0
C385 C 0.89946 0.05578 0.59488 0.0
C386 C 0.88739 0.07012 0.52269 0.0
H387 H 0.91251 0.98299 0.6578 0.0
H388 H 0.90597 0.0933 0.64681 0.0
C389 C 0.87921 0.01995 0.4568 0.0
C390 C 0.13728 0.5327 0.61303 0.0
C391 C 0.146 0.58196 0.54815 0.0
H392 H 0.13347 0.43217 0.65793 0.0
C393 C 0.15816 0.5662 0.47884 0.0
H394 H 0.12782 0.54319 0.6672 0.0
C395 C 0.1614 0.50239 0.47367 0.0
C396 C 0.15255 0.45308 0.5376 0.0
H397 H 0.16507 0.60304 0.42778 0.0
H398 H 0.1708 0.49161 0.41908 0.0
C399 C 0.14049 0.46901 0.60757 0.0
C400 C 0.64065 0.53158 0.16395 0.0
C401 C 0.64038 0.56691 0.05994 0.0
H402 H 0.64497 0.4429 0.24415 0.0
C403 C 0.64352 0.53768 0.95398 0.0
H404 H 0.63831 0.55324 0.24666 0.0
C405 C 0.64668 0.47375 0.95207 0.0
C406 C 0.64738 0.43915 0.05658 0.0
H407 H 0.64334 0.564 0.87262 0.0
H408 H 0.64903 0.45204 0.86944 0.0
C409 C 0.64445 0.4687 0.16252 0.0
C410 C 0.39239 0.9815 0.9366 0.0
C411 C 0.39427 0.94985 0.04272 0.0
H412 H 0.38797 0.06926 0.85318 0.0
C413 C 0.39258 0.98232 0.14793 0.0
H414 H 0.39373 0.95739 0.85443 0.0
C415 C 0.38876 0.0451 0.1472 0.0
C416 C 0.38722 0.07731 0.04128 0.0
H417 H 0.39399 0.95873 0.23071 0.0
H418 H 0.38728 0.06893 0.22943 0.0
C419 C 0.3892 0.04535 0.93589 0.0
C420 C 0.39212 0.48255 0.89322 0.0
C421 C 0.39347 0.44929 0.99825 0.0
H422 H 0.38769 0.57068 0.81214 0.0
C423 C 0.39197 0.48105 0.1046 0.0
H424 H 0.39328 0.45891 0.8103 0.0
C425 C 0.38945 0.54576 0.10563 0.0
C426 C 0.38778 0.5785 1.00033 0.0
H427 H 0.39311 0.45632 0.18662 0.0
H428 H 0.38844 0.56971 0.18842 0.0
C429 C 0.38897 0.54625 0.89427 0.0
C430 C 0.64642 0.03598 0.1204 0.0
C431 C 0.64548 0.06745 1.01284 0.0
H432 H 0.64976 0.94793 0.20791 0.0
C433 C 0.6479 0.03444 0.90948 0.0
H434 H 0.64446 0.06041 0.20115 0.0
C435 C 0.65146 0.97125 0.91357 0.0
C436 C 0.652 0.93912 1.02078 0.0
H437 H 0.64718 0.0578 0.8256 0.0
H438 H 0.65344 0.94692 0.83275 0.0
C439 C 0.64934 0.97175 0.1242 0.0
C440 C 0.13442 0.29368 0.10433 0.0
C441 C 0.146 0.26824 0.16692 0.0
H442 H 0.12544 0.31455 0.93687 0.0
C443 C 0.1578 0.24432 0.10433 0.0
H444 H 0.12516 0.31256 0.14955 0.0
C445 C 0.15799 0.24558 0.98229 0.0
C446 C 0.14638 0.27076 0.91963 0.0
H447 H 0.16695 0.22447 0.1495 0.0
H448 H 0.16723 0.2265 0.93719 0.0
C449 C 0.1346 0.29487 0.98217 0.0
C450 C 0.9038 0.24239 0.09444 0.0
C451 C 0.891 0.2572 0.15754 0.0
H452 H 0.9137 0.22999 0.92696 0.0
C453 C 0.87796 0.27071 0.09524 0.0
H454 H 0.91404 0.23175 0.13925 0.0
C455 C 0.87771 0.26927 0.97304 0.0
C456 C 0.89054 0.25477 0.90993 0.0
H457 H 0.86786 0.2821 0.14079 0.0
H458 H 0.86748 0.28 0.92815 0.0
C459 C 0.9036 0.24143 0.97232 0.0
C460 C 0.13441 0.7778 0.07453 0.0
C461 C 0.14787 0.76881 0.13602 0.0
H462 H 0.12356 0.78394 0.90828 0.0
C463 C 0.161 0.75836 0.07256 0.0
H464 H 0.12407 0.78602 0.12044 0.0
C465 C 0.16066 0.75673 0.95053 0.0
C466 C 0.14721 0.76599 0.88915 0.0
H467 H 0.17153 0.75104 0.11702 0.0
H468 H 0.17099 0.74862 0.90441 0.0
C469 C 0.13411 0.77663 0.95262 0.0
C470 C 0.87829 0.76246 0.93944 0.0
C471 C 0.89161 0.75136 0.87867 0.0
H472 H 0.86737 0.76961 0.10488 0.0
C473 C 0.90441 0.73748 0.94346 0.0
H474 H 0.86817 0.77297 0.89281 0.0
C475 C 0.90395 0.73561 0.06571 0.0
C476 C 0.89066 0.74717 0.12647 0.0
H477 H 0.91486 0.72856 0.8999 0.0
H478 H 0.91409 0.72544 0.11248 0.0
C479 C 0.8778 0.76023 0.06152 0.0
C480 C 0.63522 0.78516 0.48573 0.0
C481 C 0.64701 0.76104 0.42311 0.0
H482 H 0.62549 0.80076 0.65312 0.0
C483 C 0.6583 0.73369 0.48554 0.0
H484 H 0.62629 0.80642 0.44051 0.0
C485 C 0.65778 0.73021 0.6074 0.0
C486 C 0.64596 0.75398 0.6701 0.0
H487 H 0.66751 0.71446 0.44036 0.0
H488 H 0.6667 0.70875 0.65235 0.0
C489 C 0.63471 0.78171 0.60778 0.0
C490 C 0.40399 0.74493 0.58583 0.0
C491 C 0.39177 0.7665 0.64667 0.0
H492 H 0.41335 0.72452 0.41992 0.0
C493 C 0.37924 0.78387 0.58293 0.0
H494 H 0.41378 0.73088 0.63215 0.0
C495 C 0.37895 0.77997 0.46121 0.0
C496 C 0.39118 0.75858 0.4003 0.0
H497 H 0.36959 0.80047 0.62692 0.0
H498 H 0.36916 0.79409 0.41499 0.0
C499 C 0.4037 0.74103 0.46402 0.0
C500 C 0.6591 0.2376 0.47038 0.0
C501 C 0.64623 0.2519 0.40687 0.0
H502 H 0.66944 0.22979 0.63806 0.0
C503 C 0.63367 0.27041 0.4679 0.0
H504 H 0.66901 0.22337 0.42625 0.0
C505 C 0.63397 0.27438 0.5897 0.0
C506 C 0.64682 0.25989 0.65314 0.0
H507 H 0.62363 0.28209 0.42172 0.0
H508 H 0.62405 0.28851 0.63403 0.0
C509 C 0.65938 0.24151 0.59203 0.0
C510 C 0.40277 0.24319 0.45649 0.0
C511 C 0.39059 0.26483 0.39508 0.0
H512 H 0.41208 0.2228 0.62288 0.0
C513 C 0.37804 0.28229 0.45825 0.0
H514 H 0.41257 0.22907 0.41061 0.0
C515 C 0.37771 0.27843 0.57996 0.0
C516 C 0.38992 0.25702 0.64144 0.0
H517 H 0.36841 0.29894 0.41379 0.0
H518 H 0.36792 0.29264 0.62575 0.0
C519 C 0.40245 0.23935 0.57831 0.0
C520 C 0.02701 0.25536 0.57658 0.0
C521 C 0.03513 0.25825 0.47064 0.0
H522 H 1.00518 0.25195 0.66118 0.0
C523 C 0.02685 0.25977 0.36562 0.0
H524 H 0.03305 0.255 0.65904 0.0
C525 C 1.01078 0.25794 0.36687 0.0
C526 C 1.00273 0.25583 0.47322 0.0
H527 H 0.03279 0.26194 0.28264 0.0
H528 H 1.00467 0.25912 0.28486 0.0
C529 C 1.01105 0.25442 0.57786 0.0
C530 C 1.01159 0.75699 0.65746 0.0
C531 C 1.00369 0.75951 0.55096 0.0
H532 H 0.03326 0.75112 0.74189 0.0
C533 C 1.0119 0.75695 0.4463 0.0
H534 H 1.00555 0.75891 0.73949 0.0
C535 C 0.02761 0.75211 0.44769 0.0
C536 C 0.03557 0.74987 0.55376 0.0
H537 H 1.00613 0.75777 0.36281 0.0
H538 H 0.03358 0.751 0.3652 0.0
C539 C 0.02742 0.75276 0.65884 0.0
C540 C 0.52706 0.73056 0.09349 0.0
C541 C 0.53517 0.73699 0.98734 0.0
H542 H 0.50529 0.72659 0.1796 0.0
C543 C 0.52686 0.74244 0.88351 0.0
H544 H 0.53311 0.72711 0.17524 0.0
C545 C 0.51085 0.74213 0.8861 0.0
C546 C 0.50285 0.73731 0.99273 0.0
H547 H 0.53276 0.74725 0.80033 0.0
H548 H 0.5048 0.74748 0.80499 0.0
C549 C 0.51113 0.73095 0.09617 0.0
C550 C 0.51001 0.25055 0.14588 0.0
C551 C 0.50203 0.25127 0.03952 0.0
H552 H 0.53187 0.25054 0.23037 0.0
C553 C 0.51036 0.25225 0.93471 0.0
H554 H 0.50392 0.25034 0.22802 0.0
C555 C 0.52629 0.25245 0.93605 0.0
C556 C 0.53431 0.25207 0.04224 0.0
H557 H 0.50452 0.25234 0.85138 0.0
H558 H 0.53238 0.25357 0.85372 0.0
C559 C 0.52602 0.25134 0.14723 0.0
loop_
_geom_bond_atom_site_label_1
_geom_bond_atom_site_label_2
_geom_bond_distance
_geom_bond_site_symmetry_2
_ccdc_geom_bond_type
C0 Eu1 2.835 . S
C0 C2 1.500 . S
C0 O20 1.257 . S
C0 O21 1.260 . S
Eu1 C0 2.835 . S
Eu1 O20 2.473 . S
Eu1 O21 2.480 . S
Eu1 O22 2.430 . S
Eu1 O23 2.670 . S
Eu1 O24 2.394 . S
Eu1 O29 2.355 . S
Eu1 O31 2.374 . S
C2 C0 1.500 . S
C2 C3 1.377 . S
C2 C7 1.377 . S
C3 C2 1.377 . S
C3 C4 1.395 . S
C3 H32 0.931 . S
C4 C3 1.395 . S
C4 C5 1.383 . S
C4 H33 0.931 . S
C5 C4 1.383 . S
C5 C6 1.394 . S
C6 C5 1.394 . S
C6 C7 1.378 . S
C6 H34 0.931 . S
C7 C2 1.377 . S
C7 C6 1.378 . S
C7 H35 0.931 . S
C8 O22 1.259 . S
C8 O23 1.270 . S
C9 O24 1.251 . S
C9 O25 1.251 . S
C10 Eu11 2.835 . S
C10 C12 1.500 . S
C10 O26 1.257 . S
C10 O27 1.260 . S
Eu11 C10 2.835 . S
Eu11 O23 2.355 . S
Eu11 O25 2.374 . S
Eu11 O26 2.473 . S
Eu11 O27 2.480 . S
Eu11 O28 2.430 . S
Eu11 O29 2.670 . S
Eu11 O30 2.394 . S
C12 C10 1.500 . S
C12 C13 1.377 . S
C12 C17 1.377 . S
C13 C12 1.377 . S
C13 C14 1.395 . S
C13 H36 0.931 . S
C14 C13 1.395 . S
C14 C15 1.383 . S
C14 H37 0.931 . S
C15 C14 1.383 . S
C15 C16 1.394 . S
C16 C15 1.394 . S
C16 C17 1.378 . S
C16 H38 0.931 . S
C17 C12 1.377 . S
C17 C16 1.378 . S
C17 H39 0.931 . S
C18 O28 1.259 . S
C18 O29 1.270 . S
C19 O30 1.251 . S
C19 O31 1.251 . S
O20 C0 1.257 . S
O20 Eu1 2.473 . S
O21 C0 1.260 . S
O21 Eu1 2.480 . S
O22 Eu1 2.430 . S
O22 C8 1.259 . S
O23 Eu1 2.670 . S
O23 C8 1.270 . S
O23 Eu11 2.355 . S
O24 Eu1 2.394 . S
O24 C9 1.251 . S
O25 C9 1.251 . S
O25 Eu11 2.374 . S
O26 C10 1.257 . S
O26 Eu11 2.473 . S
O27 C10 1.260 . S
O27 Eu11 2.480 . S
O28 Eu11 2.430 . S
O28 C18 1.259 . S
O29 Eu1 2.355 . S
O29 Eu11 2.670 . S
O29 C18 1.270 . S
O30 Eu11 2.394 . S
O30 C19 1.251 . S
O31 Eu1 2.374 . S
O31 C19 1.251 . S
H32 C3 0.931 . S
H33 C4 0.931 . S
H34 C6 0.931 . S
H35 C7 0.931 . S
H36 C13 0.931 . S
H37 C14 0.931 . S
H38 C16 0.931 . S
H39 C17 0.931 . S
C40 Eu41 2.835 . S
C40 C42 1.500 . S
C40 O60 1.257 . S
C40 O61 1.260 . S
Eu41 C40 2.835 . S
Eu41 O60 2.473 . S
Eu41 O61 2.480 . S
Eu41 O62 2.430 . S
Eu41 O63 2.670 . S
Eu41 O64 2.394 . S
Eu41 O69 2.355 . S
Eu41 O71 2.374 . S
C42 C40 1.500 . S
C42 C43 1.377 . S
C42 C47 1.377 . S
C43 C42 1.377 . S
C43 C44 1.395 . S
C43 H72 0.931 . S
C44 C43 1.395 . S
C44 C45 1.383 . S
C44 H73 0.931 . S
C45 C44 1.383 . S
C45 C46 1.394 . S
C46 C45 1.394 . S
C46 C47 1.378 . S
C46 H74 0.931 . S
C47 C42 1.377 . S
C47 C46 1.378 . S
C47 H75 0.931 . S
C48 O62 1.259 . S
C48 O63 1.270 . S
C49 O64 1.251 . S
C49 O65 1.251 . S
C50 Eu51 2.835 . S
C50 C52 1.500 . S
C50 O66 1.257 . S
C50 O67 1.260 . S
Eu51 C50 2.835 . S
Eu51 O63 2.355 . S
Eu51 O65 2.374 . S
Eu51 O66 2.473 . S
Eu51 O67 2.480 . S
Eu51 O68 2.430 . S
Eu51 O69 2.670 . S
Eu51 O70 2.394 . S
C52 C50 1.500 . S
C52 C53 1.377 . S
C52 C57 1.377 . S
C53 C52 1.377 . S
C53 C54 1.395 . S
C53 H76 0.931 . S
C54 C53 1.395 . S
C54 C55 1.383 . S
C54 H77 0.931 . S
C55 C54 1.383 . S
C55 C56 1.394 . S
C56 C55 1.394 . S
C56 C57 1.378 . S
C56 H78 0.931 . S
C57 C52 1.377 . S
C57 C56 1.378 . S
C57 H79 0.931 . S
C58 O68 1.259 . S
C58 O69 1.270 . S
C59 O70 1.251 . S
C59 O71 1.251 . S
O60 C40 1.257 . S
O60 Eu41 2.473 . S
O61 C40 1.260 . S
O61 Eu41 2.480 . S
O62 Eu41 2.430 . S
O62 C48 1.259 . S
O63 Eu41 2.670 . S
O63 C48 1.270 . S
O63 Eu51 2.355 . S
O64 Eu41 2.394 . S
O64 C49 1.251 . S
O65 C49 1.251 . S
O65 Eu51 2.374 . S
O66 C50 1.257 . S
O66 Eu51 2.473 . S
O67 C50 1.260 . S
O67 Eu51 2.480 . S
O68 Eu51 2.430 . S
O68 C58 1.259 . S
O69 Eu41 2.355 . S
O69 Eu51 2.670 . S
O69 C58 1.270 . S
O70 Eu51 2.394 . S
O70 C59 1.251 . S
O71 Eu41 2.374 . S
O71 C59 1.251 . S
H72 C43 0.931 . S
H73 C44 0.931 . S
H74 C46 0.931 . S
H75 C47 0.931 . S
H76 C53 0.931 . S
H77 C54 0.931 . S
H78 C56 0.931 . S
H79 C57 0.931 . S
C80 Eu81 2.835 . S
C80 C82 1.500 . S
C80 O100 1.257 . S
C80 O101 1.260 . S
Eu81 C80 2.835 . S
Eu81 O100 2.473 . S
Eu81 O101 2.480 . S
Eu81 O102 2.430 . S
Eu81 O103 2.670 . S
Eu81 O104 2.394 . S
Eu81 O109 2.355 . S
Eu81 O111 2.374 . S
C82 C80 1.500 . S
C82 C83 1.377 . S
C82 C87 1.377 . S
C83 C82 1.377 . S
C83 C84 1.395 . S
C83 H112 0.931 . S
C84 C83 1.395 . S
C84 C85 1.383 . S
C84 H113 0.931 . S
C85 C84 1.383 . S
C85 C86 1.394 . S
C86 C85 1.394 . S
C86 C87 1.378 . S
C86 H114 0.931 . S
C87 C82 1.377 . S
C87 C86 1.378 . S
C87 H115 0.931 . S
C88 O102 1.259 . S
C88 O103 1.270 . S
C89 O104 1.251 . S
C89 O105 1.251 . S
C90 Eu91 2.835 . S
C90 C92 1.500 . S
C90 O106 1.257 . S
C90 O107 1.260 . S
Eu91 C90 2.835 . S
Eu91 O103 2.355 . S
Eu91 O105 2.374 . S
Eu91 O106 2.473 . S
Eu91 O107 2.480 . S
Eu91 O108 2.430 . S
Eu91 O109 2.670 . S
Eu91 O110 2.394 . S
C92 C90 1.500 . S
C92 C93 1.377 . S
C92 C97 1.377 . S
C93 C92 1.377 . S
C93 C94 1.395 . S
C93 H116 0.931 . S
C94 C93 1.395 . S
C94 C95 1.383 . S
C94 H117 0.931 . S
C95 C94 1.383 . S
C95 C96 1.394 . S
C96 C95 1.394 . S
C96 C97 1.378 . S
C96 H118 0.931 . S
C97 C92 1.377 . S
C97 C96 1.378 . S
C97 H119 0.931 . S
C98 O108 1.259 . S
C98 O109 1.270 . S
C99 O110 1.251 . S
C99 O111 1.251 . S
O100 C80 1.257 . S
O100 Eu81 2.473 . S
O101 C80 1.260 . S
O101 Eu81 2.480 . S
O102 Eu81 2.430 . S
O102 C88 1.259 . S
O103 Eu81 2.670 . S
O103 C88 1.270 . S
O103 Eu91 2.355 . S
O104 Eu81 2.394 . S
O104 C89 1.251 . S
O105 C89 1.251 . S
O105 Eu91 2.374 . S
O106 C90 1.257 . S
O106 Eu91 2.473 . S
O107 C90 1.260 . S
O107 Eu91 2.480 . S
O108 Eu91 2.430 . S
O108 C98 1.259 . S
O109 Eu81 2.355 . S
O109 Eu91 2.670 . S
O109 C98 1.270 . S
O110 Eu91 2.394 . S
O110 C99 1.251 . S
O111 Eu81 2.374 . S
O111 C99 1.251 . S
H112 C83 0.931 . S
H113 C84 0.931 . S
H114 C86 0.931 . S
H115 C87 0.931 . S
H116 C93 0.931 . S
H117 C94 0.931 . S
H118 C96 0.931 . S
H119 C97 0.931 . S
C120 Eu121 2.835 . S
C120 C122 1.500 . S
C120 O140 1.257 . S
C120 O141 1.260 . S
Eu121 C120 2.835 . S
Eu121 O140 2.473 . S
Eu121 O141 2.480 . S
Eu121 O142 2.430 . S
Eu121 O143 2.670 . S
Eu121 O144 2.394 . S
Eu121 O149 2.355 . S
Eu121 O151 2.374 . S
C122 C120 1.500 . S
C122 C123 1.377 . S
C122 C127 1.377 . S
C123 C122 1.377 . S
C123 C124 1.395 . S
C123 H152 0.931 . S
C124 C123 1.395 . S
C124 C125 1.383 . S
C124 H153 0.931 . S
C125 C124 1.383 . S
C125 C126 1.394 . S
C126 C125 1.394 . S
C126 C127 1.378 . S
C126 H154 0.931 . S
C127 C122 1.377 . S
C127 C126 1.378 . S
C127 H155 0.931 . S
C128 O142 1.259 . S
C128 O143 1.270 . S
C129 O144 1.251 . S
C129 O145 1.251 . S
C130 Eu131 2.835 . S
C130 C132 1.500 . S
C130 O146 1.257 . S
C130 O147 1.260 . S
Eu131 C130 2.835 . S
Eu131 O143 2.355 . S
Eu131 O145 2.374 . S
Eu131 O146 2.473 . S
Eu131 O147 2.480 . S
Eu131 O148 2.430 . S
Eu131 O149 2.670 . S
Eu131 O150 2.394 . S
C132 C130 1.500 . S
C132 C133 1.377 . S
C132 C137 1.377 . S
C133 C132 1.377 . S
C133 C134 1.395 . S
C133 H156 0.931 . S
C134 C133 1.395 . S
C134 C135 1.383 . S
C134 H157 0.931 . S
C135 C134 1.383 . S
C135 C136 1.394 . S
C136 C135 1.394 . S
C136 C137 1.378 . S
C136 H158 0.931 . S
C137 C132 1.377 . S
C137 C136 1.378 . S
C137 H159 0.931 . S
C138 O148 1.259 . S
C138 O149 1.270 . S
C139 O150 1.251 . S
C139 O151 1.251 . S
O140 C120 1.257 . S
O140 Eu121 2.473 . S
O141 C120 1.260 . S
O141 Eu121 2.480 . S
O142 Eu121 2.430 . S
O142 C128 1.259 . S
O143 Eu121 2.670 . S
O143 C128 1.270 . S
O143 Eu131 2.355 . S
O144 Eu121 2.394 . S
O144 C129 1.251 . S
O145 C129 1.251 . S
O145 Eu131 2.374 . S
O146 C130 1.257 . S
O146 Eu131 2.473 . S
O147 C130 1.260 . S
O147 Eu131 2.480 . S
O148 Eu131 2.430 . S
O148 C138 1.259 . S
O149 Eu121 2.355 . S
O149 Eu131 2.670 . S
O149 C138 1.270 . S
O150 Eu131 2.394 . S
O150 C139 1.251 . S
O151 Eu121 2.374 . S
O151 C139 1.251 . S
H152 C123 0.931 . S
H153 C124 0.931 . S
H154 C126 0.931 . S
H155 C127 0.931 . S
H156 C133 0.931 . S
H157 C134 0.931 . S
H158 C136 0.931 . S
H159 C137 0.931 . S
C160 Eu161 2.835 1_554 S
C160 C162 1.500 . S
C160 O180 1.257 . S
C160 O181 1.260 . S
Eu161 C160 2.835 1_556 S
Eu161 O180 2.473 1_556 S
Eu161 O181 2.480 1_556 S
Eu161 O182 2.430 . S
Eu161 O183 2.670 . S
Eu161 O184 2.394 1_556 S
Eu161 O189 2.355 1_556 S
Eu161 O191 2.374 . S
C162 C160 1.500 . S
C162 C163 1.377 . S
C162 C167 1.377 . S
C163 C162 1.377 . S
C163 C164 1.395 . S
C163 H192 0.931 . S
C164 C163 1.395 . S
C164 C165 1.383 . S
C164 H193 0.931 . S
C165 C164 1.383 . S
C165 C166 1.394 . S
C166 C165 1.394 . S
C166 C167 1.378 . S
C166 H194 0.931 . S
C167 C162 1.377 . S
C167 C166 1.378 . S
C167 H195 0.931 . S
C168 O182 1.259 . S
C168 O183 1.270 . S
C169 O184 1.251 . S
C169 O185 1.251 . S
C170 Eu171 2.835 1_556 S
C170 C172 1.500 . S
C170 O186 1.257 . S
C170 O187 1.260 . S
Eu171 C170 2.835 1_554 S
Eu171 O183 2.355 1_554 S
Eu171 O185 2.374 . S
Eu171 O186 2.473 1_554 S
Eu171 O187 2.480 1_554 S
Eu171 O188 2.430 . S
Eu171 O189 2.670 . S
Eu171 O190 2.394 1_554 S
C172 C170 1.500 . S
C172 C173 1.377 . S
C172 C177 1.377 . S
C173 C172 1.377 . S
C173 C174 1.395 . S
C173 H196 0.931 . S
C174 C173 1.395 . S
C174 C175 1.383 . S
C174 H197 0.931 . S
C175 C174 1.383 . S
C175 C176 1.394 . S
C176 C175 1.394 . S
C176 C177 1.378 . S
C176 H198 0.931 . S
C177 C172 1.377 . S
C177 C176 1.378 . S
C177 H199 0.931 . S
C178 O188 1.259 . S
C178 O189 1.270 . S
C179 O190 1.251 . S
C179 O191 1.251 . S
O180 C160 1.257 . S
O180 Eu161 2.473 1_554 S
O181 C160 1.260 . S
O181 Eu161 2.480 1_554 S
O182 Eu161 2.430 . S
O182 C168 1.259 . S
O183 Eu161 2.670 . S
O183 C168 1.270 . S
O183 Eu171 2.355 1_556 S
O184 Eu161 2.394 1_554 S
O184 C169 1.251 . S
O185 C169 1.251 . S
O185 Eu171 2.374 . S
O186 C170 1.257 . S
O186 Eu171 2.473 1_556 S
O187 C170 1.260 . S
O187 Eu171 2.480 1_556 S
O188 Eu171 2.430 . S
O188 C178 1.259 . S
O189 Eu161 2.355 1_554 S
O189 Eu171 2.670 . S
O189 C178 1.270 . S
O190 Eu171 2.394 1_556 S
O190 C179 1.251 . S
O191 Eu161 2.374 . S
O191 C179 1.251 . S
H192 C163 0.931 . S
H193 C164 0.931 . S
H194 C166 0.931 . S
H195 C167 0.931 . S
H196 C173 0.931 . S
H197 C174 0.931 . S
H198 C176 0.931 . S
H199 C177 0.931 . S
C200 Eu201 2.835 1_554 S
C200 C202 1.500 . S
C200 O220 1.257 . S
C200 O221 1.260 . S
Eu201 C200 2.835 1_556 S
Eu201 O220 2.473 1_556 S
Eu201 O221 2.480 1_556 S
Eu201 O222 2.430 . S
Eu201 O223 2.670 . S
Eu201 O224 2.394 1_556 S
Eu201 O229 2.355 1_556 S
Eu201 O231 2.374 . S
C202 C200 1.500 . S
C202 C203 1.377 . S
C202 C207 1.377 . S
C203 C202 1.377 . S
C203 C204 1.395 . S
C203 H232 0.931 . S
C204 C203 1.395 . S
C204 C205 1.383 . S
C204 H233 0.931 . S
C205 C204 1.383 . S
C205 C206 1.394 . S
C206 C205 1.394 . S
C206 C207 1.378 . S
C206 H234 0.931 . S
C207 C202 1.377 . S
C207 C206 1.378 . S
C207 H235 0.931 . S
C208 O222 1.259 . S
C208 O223 1.270 . S
C209 O224 1.251 . S
C209 O225 1.251 . S
C210 Eu211 2.835 1_556 S
C210 C212 1.500 . S
C210 O226 1.257 . S
C210 O227 1.260 . S
Eu211 C210 2.835 1_554 S
Eu211 O223 2.355 1_554 S
Eu211 O225 2.374 . S
Eu211 O226 2.473 1_554 S
Eu211 O227 2.480 1_554 S
Eu211 O228 2.430 . S
Eu211 O229 2.670 . S
Eu211 O230 2.394 1_554 S
C212 C210 1.500 . S
C212 C213 1.377 . S
C212 C217 1.377 . S
C213 C212 1.377 . S
C213 C214 1.395 . S
C213 H236 0.931 . S
C214 C213 1.395 . S
C214 C215 1.383 . S
C214 H237 0.931 . S
C215 C214 1.383 . S
C215 C216 1.394 . S
C216 C215 1.394 . S
C216 C217 1.378 . S
C216 H238 0.931 . S
C217 C212 1.377 . S
C217 C216 1.378 . S
C217 H239 0.931 . S
C218 O228 1.259 . S
C218 O229 1.270 . S
C219 O230 1.251 . S
C219 O231 1.251 . S
O220 C200 1.257 . S
O220 Eu201 2.473 1_554 S
O221 C200 1.260 . S
O221 Eu201 2.480 1_554 S
O222 Eu201 2.430 . S
O222 C208 1.259 . S
O223 Eu201 2.670 . S
O223 C208 1.270 . S
O223 Eu211 2.355 1_556 S
O224 Eu201 2.394 1_554 S
O224 C209 1.251 . S
O225 C209 1.251 . S
O225 Eu211 2.374 . S
O226 C210 1.257 . S
O226 Eu211 2.473 1_556 S
O227 C210 1.260 . S
O227 Eu211 2.480 1_556 S
O228 Eu211 2.430 . S
O228 C218 1.259 . S
O229 Eu201 2.355 1_554 S
O229 Eu211 2.670 . S
O229 C218 1.270 . S
O230 Eu211 2.394 1_556 S
O230 C219 1.251 . S
O231 Eu201 2.374 . S
O231 C219 1.251 . S
H232 C203 0.931 . S
H233 C204 0.931 . S
H234 C206 0.931 . S
H235 C207 0.931 . S
H236 C213 0.931 . S
H237 C214 0.931 . S
H238 C216 0.931 . S
H239 C217 0.931 . S
C240 Eu241 2.835 1_554 S
C240 C242 1.500 . S
C240 O260 1.257 . S
C240 O261 1.260 . S
Eu241 C240 2.835 1_556 S
Eu241 O260 2.473 1_556 S
Eu241 O261 2.480 1_556 S
Eu241 O262 2.430 . S
Eu241 O263 2.670 . S
Eu241 O264 2.394 1_556 S
Eu241 O269 2.355 1_556 S
Eu241 O271 2.374 . S
C242 C240 1.500 . S
C242 C243 1.377 . S
C242 C247 1.377 . S
C243 C242 1.377 . S
C243 C244 1.395 . S
C243 H272 0.931 . S
C244 C243 1.395 . S
C244 C245 1.383 . S
C244 H273 0.931 . S
C245 C244 1.383 . S
C245 C246 1.394 . S
C246 C245 1.394 . S
C246 C247 1.378 . S
C246 H274 0.931 . S
C247 C242 1.377 . S
C247 C246 1.378 . S
C247 H275 0.931 . S
C248 O262 1.259 . S
C248 O263 1.270 . S
C249 O264 1.251 . S
C249 O265 1.251 . S
C250 Eu251 2.835 1_556 S
C250 C252 1.500 . S
C250 O266 1.257 . S
C250 O267 1.260 . S
Eu251 C250 2.835 1_554 S
Eu251 O263 2.355 1_554 S
Eu251 O265 2.374 . S
Eu251 O266 2.473 1_554 S
Eu251 O267 2.480 1_554 S
Eu251 O268 2.430 . S
Eu251 O269 2.670 . S
Eu251 O270 2.394 1_554 S
C252 C250 1.500 . S
C252 C253 1.377 . S
C252 C257 1.377 . S
C253 C252 1.377 . S
C253 C254 1.395 . S
C253 H276 0.931 . S
C254 C253 1.395 . S
C254 C255 1.383 . S
C254 H277 0.931 . S
C255 C254 1.383 . S
C255 C256 1.394 . S
C256 C255 1.394 . S
C256 C257 1.378 . S
C256 H278 0.931 . S
C257 C252 1.377 . S
C257 C256 1.378 . S
C257 H279 0.931 . S
C258 O268 1.259 . S
C258 O269 1.270 . S
C259 O270 1.251 . S
C259 O271 1.251 . S
O260 C240 1.257 . S
O260 Eu241 2.473 1_554 S
O261 C240 1.260 . S
O261 Eu241 2.480 1_554 S
O262 Eu241 2.430 . S
O262 C248 1.259 . S
O263 Eu241 2.670 . S
O263 C248 1.270 . S
O263 Eu251 2.355 1_556 S
O264 Eu241 2.394 1_554 S
O264 C249 1.251 . S
O265 C249 1.251 . S
O265 Eu251 2.374 . S
O266 C250 1.257 . S
O266 Eu251 2.473 1_556 S
O267 C250 1.260 . S
O267 Eu251 2.480 1_556 S
O268 Eu251 2.430 . S
O268 C258 1.259 . S
O269 Eu241 2.355 1_554 S
O269 Eu251 2.670 . S
O269 C258 1.270 . S
O270 Eu251 2.394 1_556 S
O270 C259 1.251 . S
O271 Eu241 2.374 . S
O271 C259 1.251 . S
H272 C243 0.931 . S
H273 C244 0.931 . S
H274 C246 0.931 . S
H275 C247 0.931 . S
H276 C253 0.931 . S
H277 C254 0.931 . S
H278 C256 0.931 . S
H279 C257 0.931 . S
C280 Eu281 2.835 1_554 S
C280 C282 1.500 . S
C280 O300 1.257 . S
C280 O301 1.260 . S
Eu281 C280 2.835 1_556 S
Eu281 O300 2.473 1_556 S
Eu281 O301 2.480 1_556 S
Eu281 O302 2.430 . S
Eu281 O303 2.670 . S
Eu281 O304 2.394 1_556 S
Eu281 O309 2.355 1_556 S
Eu281 O311 2.374 . S
C282 C280 1.500 . S
C282 C283 1.377 . S
C282 C287 1.377 . S
C283 C282 1.377 . S
C283 C284 1.395 . S
C283 H312 0.931 . S
C284 C283 1.395 . S
C284 C285 1.383 . S
C284 H313 0.931 . S
C285 C284 1.383 . S
C285 C286 1.394 . S
C286 C285 1.394 . S
C286 C287 1.378 . S
C286 H314 0.931 . S
C287 C282 1.377 . S
C287 C286 1.378 . S
C287 H315 0.931 . S
C288 O302 1.259 . S
C288 O303 1.270 . S
C289 O304 1.251 . S
C289 O305 1.251 . S
C290 Eu291 2.835 1_556 S
C290 C292 1.500 . S
C290 O306 1.257 . S
C290 O307 1.260 . S
Eu291 C290 2.835 1_554 S
Eu291 O303 2.355 1_554 S
Eu291 O305 2.374 . S
Eu291 O306 2.473 1_554 S
Eu291 O307 2.480 1_554 S
Eu291 O308 2.430 . S
Eu291 O309 2.670 . S
Eu291 O310 2.394 1_554 S
C292 C290 1.500 . S
C292 C293 1.377 . S
C292 C297 1.377 . S
C293 C292 1.377 . S
C293 C294 1.395 . S
C293 H316 0.931 . S
C294 C293 1.395 . S
C294 C295 1.383 . S
C294 H317 0.931 . S
C295 C294 1.383 . S
C295 C296 1.394 . S
C296 C295 1.394 . S
C296 C297 1.378 . S
C296 H318 0.931 . S
C297 C292 1.377 . S
C297 C296 1.378 . S
C297 H319 0.931 . S
C298 O308 1.259 . S
C298 O309 1.270 . S
C299 O310 1.251 . S
C299 O311 1.251 . S
O300 C280 1.257 . S
O300 Eu281 2.473 1_554 S
O301 C280 1.260 . S
O301 Eu281 2.480 1_554 S
O302 Eu281 2.430 . S
O302 C288 1.259 . S
O303 Eu281 2.670 . S
O303 C288 1.270 . S
O303 Eu291 2.355 1_556 S
O304 Eu281 2.394 1_554 S
O304 C289 1.251 . S
O305 C289 1.251 . S
O305 Eu291 2.374 . S
O306 C290 1.257 . S
O306 Eu291 2.473 1_556 S
O307 C290 1.260 . S
O307 Eu291 2.480 1_556 S
O308 Eu291 2.430 . S
O308 C298 1.259 . S
O309 Eu281 2.355 1_554 S
O309 Eu291 2.670 . S
O309 C298 1.270 . S
O310 Eu291 2.394 1_556 S
O310 C299 1.251 . S
O311 Eu281 2.374 . S
O311 C299 1.251 . S
H312 C283 0.931 . S
H313 C284 0.931 . S
H314 C286 0.931 . S
H315 C287 0.931 . S
H316 C293 0.931 . S
H317 C294 0.931 . S
H318 C296 0.931 . S
H319 C297 0.931 . S
C320 C321 1.387 . S
C320 H324 0.950 . S
C320 C329 1.390 . S
C321 C320 1.387 . S
C321 C323 1.387 . S
H322 C329 0.950 . S
C323 C321 1.387 . S
C323 C325 1.390 . S
C323 H327 0.950 . S
H324 C320 0.950 . S
C325 C323 1.390 . S
C325 C326 1.387 . S
C325 H328 0.950 . S
C326 C325 1.387 . S
C326 C329 1.387 . S
H327 C323 0.950 . S
H328 C325 0.950 . S
C329 C320 1.390 . S
C329 H322 0.950 . S
C329 C326 1.387 . S
C330 C331 1.387 . S
C330 H334 0.950 . S
C330 C339 1.390 . S
C331 C330 1.387 . S
C331 C333 1.387 . S
H332 C339 0.950 . S
C333 C331 1.387 . S
C333 C335 1.390 . S
C333 H337 0.950 . S
H334 C330 0.950 . S
C335 C333 1.390 . S
C335 C336 1.387 . S
C335 H338 0.950 . S
C336 C335 1.387 . S
C336 C339 1.387 . S
H337 C333 0.950 . S
H338 C335 0.950 . S
C339 C330 1.390 . S
C339 H332 0.950 . S
C339 C336 1.387 . S
C340 C341 1.387 . S
C340 H344 0.950 . S
C340 C349 1.390 . S
C341 C340 1.387 . S
C341 C343 1.387 . S
H342 C349 0.950 . S
C343 C341 1.387 . S
C343 C345 1.390 . S
C343 H347 0.950 . S
H344 C340 0.950 . S
C345 C343 1.390 . S
C345 C346 1.387 . S
C345 H348 0.950 . S
C346 C345 1.387 . S
C346 C349 1.387 . S
H347 C343 0.950 . S
H348 C345 0.950 . S
C349 C340 1.390 . S
C349 H342 0.950 . S
C349 C346 1.387 . S
C350 C351 1.387 . S
C350 H354 0.950 . S
C350 C359 1.390 . S
C351 C350 1.387 . S
C351 C353 1.387 . S
H352 C359 0.950 . S
C353 C351 1.387 . S
C353 C355 1.390 . S
C353 H357 0.950 . S
H354 C350 0.950 . S
C355 C353 1.390 . S
C355 C356 1.387 . S
C355 H358 0.950 . S
C356 C355 1.387 . S
C356 C359 1.387 . S
H357 C353 0.950 . S
H358 C355 0.950 . S
C359 C350 1.390 . S
C359 H352 0.950 . S
C359 C356 1.387 . S
C360 C361 1.387 . S
C360 H364 0.950 . S
C360 C369 1.390 1_565 S
C361 C360 1.387 . S
C361 C363 1.387 . S
H362 C369 0.950 . S
C363 C361 1.387 . S
C363 C365 1.390 1_565 S
C363 H367 0.950 . S
H364 C360 0.950 . S
C365 C363 1.390 1_545 S
C365 C366 1.387 . S
C365 H368 0.950 . S
C366 C365 1.387 . S
C366 C369 1.387 . S
H367 C363 0.950 . S
H368 C365 0.950 . S
C369 C360 1.390 1_545 S
C369 H362 0.950 . S
C369 C366 1.387 . S
C370 C371 1.387 . S
C370 H374 0.950 . S
C370 C379 1.390 . S
C371 C370 1.387 . S
C371 C373 1.387 . S
H372 C379 0.950 . S
C373 C371 1.387 . S
C373 C375 1.390 . S
C373 H377 0.950 . S
H374 C370 0.950 . S
C375 C373 1.390 . S
C375 C376 1.387 . S
C375 H378 0.950 . S
C376 C375 1.387 . S
C376 C379 1.387 . S
H377 C373 0.950 . S
H378 C375 0.950 . S
C379 C370 1.390 . S
C379 H372 0.950 . S
C379 C376 1.387 . S
C380 C381 1.387 . S
C380 H384 0.950 . S
C380 C389 1.390 1_565 S
C381 C380 1.387 . S
C381 C383 1.387 . S
H382 C389 0.950 . S
C383 C381 1.387 . S
C383 C385 1.390 1_565 S
C383 H387 0.950 . S
H384 C380 0.950 . S
C385 C383 1.390 1_545 S
C385 C386 1.387 . S
C385 H388 0.950 . S
C386 C385 1.387 . S
C386 C389 1.387 . S
H387 C383 0.950 . S
H388 C385 0.950 . S
C389 C380 1.390 1_545 S
C389 H382 0.950 . S
C389 C386 1.387 . S
C390 C391 1.387 . S
C390 H394 0.950 . S
C390 C399 1.390 . S
C391 C390 1.387 . S
C391 C393 1.387 . S
H392 C399 0.950 . S
C393 C391 1.387 . S
C393 C395 1.390 . S
C393 H397 0.950 . S
H394 C390 0.950 . S
C395 C393 1.390 . S
C395 C396 1.387 . S
C395 H398 0.950 . S
C396 C395 1.387 . S
C396 C399 1.387 . S
H397 C393 0.950 . S
H398 C395 0.950 . S
C399 C390 1.390 . S
C399 H392 0.950 . S
C399 C396 1.387 . S
C400 C401 1.387 1_554 S
C400 H404 0.950 . S
C400 C409 1.390 . S
C401 C400 1.387 1_556 S
C401 C403 1.387 . S
H402 C409 0.950 . S
C403 C401 1.387 . S
C403 C405 1.390 . S
C403 H407 0.950 . S
H404 C400 0.950 . S
C405 C403 1.390 . S
C405 C406 1.387 . S
C405 H408 0.950 . S
C406 C405 1.387 . S
C406 C409 1.387 1_556 S
H407 C403 0.950 . S
H408 C405 0.950 . S
C409 C400 1.390 . S
C409 H402 0.950 . S
C409 C406 1.387 1_554 S
C410 C411 1.387 . S
C410 H414 0.950 . S
C410 C419 1.390 1_565 S
C411 C410 1.387 . S
C411 C413 1.387 1_556 S
H412 C419 0.950 . S
C413 C411 1.387 1_554 S
C413 C415 1.390 1_565 S
C413 H417 0.950 . S
H414 C410 0.950 . S
C415 C413 1.390 1_545 S
C415 C416 1.387 1_554 S
C415 H418 0.950 . S
C416 C415 1.387 1_556 S
C416 C419 1.387 . S
H417 C413 0.950 . S
H418 C415 0.950 . S
C419 C410 1.390 1_545 S
C419 H412 0.950 . S
C419 C416 1.387 . S
C420 C421 1.387 1_556 S
C420 H424 0.950 . S
C420 C429 1.390 . S
C421 C420 1.387 1_554 S
C421 C423 1.387 . S
H422 C429 0.950 . S
C423 C421 1.387 . S
C423 C425 1.390 . S
C423 H427 0.950 . S
H424 C420 0.950 . S
C425 C423 1.390 . S
C425 C426 1.387 . S
C425 H428 0.950 . S
C426 C425 1.387 . S
C426 C429 1.387 1_554 S
H427 C423 0.950 . S
H428 C425 0.950 . S
C429 C420 1.390 . S
C429 H422 0.950 . S
C429 C426 1.387 1_556 S
C430 C431 1.387 . S
C430 H434 0.950 . S
C430 C439 1.390 1_545 S
C431 C430 1.387 . S
C431 C433 1.387 1_554 S
H432 C439 0.950 . S
C433 C431 1.387 1_556 S
C433 C435 1.390 1_545 S
C433 H437 0.950 . S
H434 C430 0.950 . S
C435 C433 1.390 1_565 S
C435 C436 1.387 1_556 S
C435 H438 0.950 . S
C436 C435 1.387 1_554 S
C436 C439 1.387 . S
H437 C433 0.950 . S
H438 C435 0.950 . S
C439 C430 1.390 1_565 S
C439 H432 0.950 . S
C439 C436 1.387 . S
C440 C441 1.387 1_556 S
C440 H444 0.950 1_556 S
C440 C449 1.390 . S
C441 C440 1.387 1_554 S
C441 C443 1.387 1_554 S
H442 C449 0.950 . S
C443 C441 1.387 1_556 S
C443 C445 1.390 . S
C443 H447 0.950 1_556 S
H444 C440 0.950 1_554 S
C445 C443 1.390 . S
C445 C446 1.387 . S
C445 H448 0.950 . S
C446 C445 1.387 . S
C446 C449 1.387 . S
H447 C443 0.950 1_554 S
H448 C445 0.950 . S
C449 C440 1.390 . S
C449 H442 0.950 . S
C449 C446 1.387 . S
C450 C451 1.387 1_556 S
C450 H454 0.950 1_556 S
C450 C459 1.390 . S
C451 C450 1.387 1_554 S
C451 C453 1.387 1_554 S
H452 C459 0.950 . S
C453 C451 1.387 1_556 S
C453 C455 1.390 . S
C453 H457 0.950 1_556 S
H454 C450 0.950 1_554 S
C455 C453 1.390 . S
C455 C456 1.387 . S
C455 H458 0.950 . S
C456 C455 1.387 . S
C456 C459 1.387 . S
H457 C453 0.950 1_554 S
H458 C455 0.950 . S
C459 C450 1.390 . S
C459 H452 0.950 . S
C459 C456 1.387 . S
C460 C461 1.387 . S
C460 H464 0.950 . S
C460 C469 1.390 . S
C461 C460 1.387 . S
C461 C463 1.387 . S
H462 C469 0.950 1_556 S
C463 C461 1.387 . S
C463 C465 1.390 . S
C463 H467 0.950 . S
H464 C460 0.950 . S
C465 C463 1.390 . S
C465 C466 1.387 1_554 S
C465 H468 0.950 1_554 S
C466 C465 1.387 1_556 S
C466 C469 1.387 1_556 S
H467 C463 0.950 . S
H468 C465 0.950 1_556 S
C469 C460 1.390 . S
C469 H462 0.950 1_554 S
C469 C466 1.387 1_554 S
C470 C471 1.387 1_554 S
C470 H474 0.950 1_554 S
C470 C479 1.390 . S
C471 C470 1.387 1_556 S
C471 C473 1.387 1_556 S
H472 C479 0.950 . S
C473 C471 1.387 1_554 S
C473 C475 1.390 . S
C473 H477 0.950 1_554 S
H474 C470 0.950 1_556 S
C475 C473 1.390 . S
C475 C476 1.387 . S
C475 H478 0.950 . S
C476 C475 1.387 . S
C476 C479 1.387 . S
H477 C473 0.950 1_556 S
H478 C475 0.950 . S
C479 C470 1.390 . S
C479 H472 0.950 . S
C479 C476 1.387 . S
C480 C481 1.387 . S
C480 H484 0.950 . S
C480 C489 1.390 . S
C481 C480 1.387 . S
C481 C483 1.387 . S
H482 C489 0.950 . S
C483 C481 1.387 . S
C483 C485 1.390 . S
C483 H487 0.950 . S
H484 C480 0.950 . S
C485 C483 1.390 . S
C485 C486 1.387 . S
C485 H488 0.950 . S
C486 C485 1.387 . S
C486 C489 1.387 . S
H487 C483 0.950 . S
H488 C485 0.950 . S
C489 C480 1.390 . S
C489 H482 0.950 . S
C489 C486 1.387 . S
C490 C491 1.387 . S
C490 H494 0.950 . S
C490 C499 1.390 . S
C491 C490 1.387 . S
C491 C493 1.387 . S
H492 C499 0.950 . S
C493 C491 1.387 . S
C493 C495 1.390 . S
C493 H497 0.950 . S
H494 C490 0.950 . S
C495 C493 1.390 . S
C495 C496 1.387 . S
C495 H498 0.950 . S
C496 C495 1.387 . S
C496 C499 1.387 . S
H497 C493 0.950 . S
H498 C495 0.950 . S
C499 C490 1.390 . S
C499 H492 0.950 . S
C499 C496 1.387 . S
C500 C501 1.387 . S
C500 H504 0.950 . S
C500 C509 1.390 . S
C501 C500 1.387 . S
C501 C503 1.387 . S
H502 C509 0.950 . S
C503 C501 1.387 . S
C503 C505 1.390 . S
C503 H507 0.950 . S
H504 C500 0.950 . S
C505 C503 1.390 . S
C505 C506 1.387 . S
C505 H508 0.950 . S
C506 C505 1.387 . S
C506 C509 1.387 . S
H507 C503 0.950 . S
H508 C505 0.950 . S
C509 C500 1.390 . S
C509 H502 0.950 . S
C509 C506 1.387 . S
C510 C511 1.387 . S
C510 H514 0.950 . S
C510 C519 1.390 . S
C511 C510 1.387 . S
C511 C513 1.387 . S
H512 C519 0.950 . S
C513 C511 1.387 . S
C513 C515 1.390 . S
C513 H517 0.950 . S
H514 C510 0.950 . S
C515 C513 1.390 . S
C515 C516 1.387 . S
C515 H518 0.950 . S
C516 C515 1.387 . S
C516 C519 1.387 . S
H517 C513 0.950 . S
H518 C515 0.950 . S
C519 C510 1.390 . S
C519 H512 0.950 . S
C519 C516 1.387 . S
C520 C521 1.387 . S
C520 H524 0.950 . S
C520 C529 1.390 1_455 S
C521 C520 1.387 . S
C521 C523 1.387 . S
H522 C529 0.950 . S
C523 C521 1.387 . S
C523 C525 1.390 1_455 S
C523 H527 0.950 1_554 S
H524 C520 0.950 . S
C525 C523 1.390 1_655 S
C525 C526 1.387 . S
C525 H528 0.950 1_554 S
C526 C525 1.387 . S
C526 C529 1.387 . S
H527 C523 0.950 1_556 S
H528 C525 0.950 1_556 S
C529 C520 1.390 1_655 S
C529 H522 0.950 . S
C529 C526 1.387 . S
C530 C531 1.387 . S
C530 H534 0.950 1_556 S
C530 C539 1.390 1_655 S
C531 C530 1.387 . S
C531 C533 1.387 . S
H532 C539 0.950 1_554 S
C533 C531 1.387 . S
C533 C535 1.390 1_655 S
C533 H537 0.950 . S
H534 C530 0.950 1_554 S
C535 C533 1.390 1_455 S
C535 C536 1.387 . S
C535 H538 0.950 . S
C536 C535 1.387 . S
C536 C539 1.387 . S
H537 C533 0.950 . S
H538 C535 0.950 . S
C539 C530 1.390 1_455 S
C539 H532 0.950 1_556 S
C539 C536 1.387 . S
C540 C541 1.387 . S
C540 H544 0.950 . S
C540 C549 1.390 . S
C541 C540 1.387 . S
C541 C543 1.387 . S
H542 C549 0.950 . S
C543 C541 1.387 . S
C543 C545 1.390 . S
C543 H547 0.950 . S
H544 C540 0.950 . S
C545 C543 1.390 . S
C545 C546 1.387 . S
C545 H548 0.950 . S
C546 C545 1.387 . S
C546 C549 1.387 . S
H547 C543 0.950 . S
H548 C545 0.950 . S
C549 C540 1.390 . S
C549 H542 0.950 . S
C549 C546 1.387 . S
C550 C551 1.387 . S
C550 H554 0.950 . S
C550 C559 1.390 . S
C551 C550 1.387 . S
C551 C553 1.387 . S
H552 C559 0.950 . S
C553 C551 1.387 . S
C553 C555 1.390 . S
C553 H557 0.950 . S
H554 C550 0.950 . S
C555 C553 1.390 . S
C555 C556 1.387 . S
C555 H558 0.950 . S
C556 C555 1.387 . S
C556 C559 1.387 . S
H557 C553 0.950 . S
H558 C555 0.950 . S
C559 C550 1.390 . S
C559 H552 0.950 . S
C559 C556 1.387 . S
C321 C5 1.678 . S
C326 C295 1.677 . S
C331 C255 1.678 . S
C336 C45 1.677 . S
C341 C205 1.680 . S
C346 C95 1.679 . S
C351 C165 1.678 . S
C356 C135 1.678 . S
C361 C98 1.629 . S
C366 C18 1.557 . S
C371 C58 1.558 . S
C376 C138 1.629 . S
C381 C128 1.554 . S
C386 C48 1.628 . S
C391 C88 1.556 . S
C396 C8 1.627 . S
C401 C178 1.436 1_556 S
C406 C258 1.436 1_556 S
C411 C218 1.433 1_556 S
C416 C298 1.433 1_556 S
C421 C288 1.434 1_554 S
C426 C208 1.433 1_554 S
C431 C248 1.437 1_554 S
C436 C168 1.436 1_554 S
C441 C19 2.013 . S
C446 C9 2.013 . S
C451 C59 2.010 . S
C456 C49 2.010 . S
C461 C99 2.010 . S
C466 C89 2.010 . S
C471 C129 2.013 . S
C476 C139 2.013 . S
C481 C169 2.012 . S
C486 C179 2.012 . S
C491 C219 2.012 . S
C496 C209 2.012 . S
C501 C249 2.012 . S
C506 C259 2.012 . S
C511 C289 2.010 . S
C516 C299 2.010 . S
C521 C15 2.191 . S
C526 C55 2.191 . S
C531 C125 2.191 . S
C536 C85 2.191 . S
C541 C175 2.192 . S
C546 C215 2.192 . S
C551 C285 2.192 . S
C556 C245 2.192 . S
