# Generated by pormake.
# Topology umf, (4)-cn, num edge types: 1
# Building blocks:
#     Node 0, Type 0, BuildingBlock: QUQFOY_clean_sbu_1, # of connection points: 4
#     Node 1, Type 0, BuildingBlock: QUQFOY_clean_sbu_1, # of connection points: 4
#     Node 2, Type 0, BuildingBlock: QUQFOY_clean_sbu_1, # of connection points: 4
#     Node 3, Type 0, BuildingBlock: QUQFOY_clean_sbu_1, # of connection points: 4
#     Node 4, Type 0, BuildingBlock: QUQFOY_clean_sbu_1, # of connection points: 4
#     Node 5, Type 0, BuildingBlock: QUQFOY_clean_sbu_1, # of connection points: 4
#     Node 6, Type 0, BuildingBlock: QUQFOY_clean_sbu_1, # of connection points: 4
#     Node 7, Type 0, BuildingBlock: QUQFOY_clean_sbu_1, # of connection points: 4
#     Edge 8, Type (0, 0), BuildingBlock: OJICUG_clean_linker_0, # of connection points: 2
#     Edge 9, Type (0, 0), BuildingBlock: OJICUG_clean_linker_0, # of connection points: 2
#     Edge 10, Type (0, 0), BuildingBlock: OJICUG_clean_linker_0, # of connection points: 2
#     Edge 11, Type (0, 0), BuildingBlock: OJICUG_clean_linker_0, # of connection points: 2
#     Edge 12, Type (0, 0), BuildingBlock: OJICUG_clean_linker_0, # of connection points: 2
#     Edge 13, Type (0, 0), BuildingBlock: OJICUG_clean_linker_0, # of connection points: 2
#     Edge 14, Type (0, 0), BuildingBlock: OJICUG_clean_linker_0, # of connection points: 2
#     Edge 15, Type (0, 0), BuildingBlock: OJICUG_clean_linker_0, # of connection points: 2
#     Edge 16, Type (0, 0), BuildingBlock: OJICUG_clean_linker_0, # of connection points: 2
#     Edge 17, Type (0, 0), BuildingBlock: OJICUG_clean_linker_0, # of connection points: 2
#     Edge 18, Type (0, 0), BuildingBlock: OJICUG_clean_linker_0, # of connection points: 2
#     Edge 19, Type (0, 0), BuildingBlock: OJICUG_clean_linker_0, # of connection points: 2
#     Edge 20, Type (0, 0), BuildingBlock: OJICUG_clean_linker_0, # of connection points: 2
#     Edge 21, Type (0, 0), BuildingBlock: OJICUG_clean_linker_0, # of connection points: 2
#     Edge 22, Type (0, 0), BuildingBlock: OJICUG_clean_linker_0, # of connection points: 2
#     Edge 23, Type (0, 0), BuildingBlock: OJICUG_clean_linker_0, # of connection points: 2
# Relax obj value: 0.060
# Max RMSD: 0.226
# Mean RMSD: 0.226
data_MOF--net-umf--node1-QUQFOY_clean_sbu_1--edge1-OJICUG_clean_linker_0
_symmetry_space_group_name_H-M    P1
_symmetry_Int_Tables_number       1
_symmetry_cell_setting            triclinic
loop_
_symmetry_equiv_pos_as_xyz
'x, y, z'
_cell_length_a     21.353562
_cell_length_b     21.353268
_cell_length_c     37.272037
_cell_angle_alpha  89.915392
_cell_angle_beta   90.130583
_cell_angle_gamma 90.025124
loop_
_atom_site_label
_atom_site_type_symbol
_atom_site_fract_x
_atom_site_fract_y
_atom_site_fract_z
_atom_type_partial_charge
O0 O 0.99045 0.26445 0.15989 0.0
Cd1 Cd 1.00027 0.27094 0.21401 0.0
Cd2 Cd 0.11922 0.23583 0.20121 0.0
O3 O 0.09252 0.27197 0.15046 0.0
O4 O 0.95049 0.34355 0.23522 0.0
O5 O 0.05169 0.34649 0.22403 0.0
C6 C 1.00239 0.37492 0.23487 0.0
C7 C 0.19196 0.26625 0.24533 0.0
C8 C 0.03612 0.27217 0.13851 0.0
C9 C 0.03818 0.13896 0.23257 0.0
O10 O 0.08503 0.14908 0.21245 0.0
O11 O 1.00139 0.18387 0.24103 0.0
O12 O 0.21084 0.23811 0.21657 0.0
O13 O 0.13381 0.28089 0.24718 0.0
O14 O 0.87308 0.09121 0.70978 0.0
Cd15 Cd 0.78566 0.1238 0.69968 0.0
Cd16 Cd 0.75014 1.00702 0.71329 0.0
O17 O 0.83753 1.0099 0.74036 0.0
O18 O 0.78018 0.21465 0.71603 0.0
O19 O 0.74375 0.13445 0.74694 0.0
C20 C 0.75504 0.19339 0.74521 0.0
C21 C 0.64586 0.01076 0.73381 0.0
C22 C 0.88284 0.04566 0.73099 0.0
C23 C 0.7484 0.03925 0.63779 0.0
O24 O 0.75683 0.99406 0.65951 0.0
O25 O 0.74824 0.09584 0.64936 0.0
O26 O 0.67751 0.95919 0.73601 0.0
O27 O 0.67389 0.059 0.72105 0.0
O28 O 0.02243 0.7507 0.15888 0.0
Cd29 Cd 0.01608 0.74605 0.21351 0.0
Cd30 Cd 0.89537 0.78391 0.19959 0.0
O31 O 0.92031 0.75114 0.14821 0.0
O32 O 0.06838 0.6737 0.23302 0.0
O33 O 0.96561 0.67237 0.22803 0.0
C34 C 0.01625 0.64317 0.23593 0.0
C35 C 0.81772 0.75534 0.24098 0.0
C36 C 0.97685 0.74728 0.13694 0.0
C37 C 0.98186 0.87788 0.23273 0.0
O38 O 0.93334 0.86826 0.21373 0.0
O39 O 0.01945 0.83295 0.23994 0.0
O40 O 0.80333 0.78906 0.21327 0.0
O41 O 0.87346 0.73316 0.24254 0.0
O42 O 0.15404 0.94049 0.7159 0.0
Cd43 Cd 0.23822 0.90216 0.70139 0.0
Cd44 Cd 0.27521 0.02342 0.71433 0.0
O45 O 0.18842 0.02832 0.74041 0.0
O46 O 0.23134 0.81009 0.71456 0.0
O47 O 0.29025 0.87797 0.74357 0.0
C48 C 0.26634 0.8229 0.74198 0.0
C49 C 0.37772 0.02474 0.73704 0.0
C50 C 0.14391 0.98992 0.73392 0.0
C51 C 0.27393 0.98213 0.63798 0.0
O52 O 0.27091 0.02808 0.65957 0.0
O53 O 0.26995 0.92582 0.64968 0.0
O54 O 0.34744 0.07672 0.73274 0.0
O55 O 0.34822 0.97361 0.73061 0.0
O56 O 0.99106 0.75985 0.96302 0.0
Cd57 Cd 1.00664 0.7524 0.9096 0.0
Cd58 Cd 0.12214 0.78679 0.92381 0.0
O59 O 0.0924 0.74879 0.9737 0.0
O60 O 0.96067 0.67946 0.88597 0.0
O61 O 0.0591 0.67571 0.90381 0.0
C62 C 0.01194 0.64772 0.88971 0.0
C63 C 0.19015 0.75524 0.87771 0.0
C64 C 0.03564 0.75019 0.98497 0.0
C65 C 0.04689 0.885 0.89255 0.0
O66 O 0.09146 0.87496 0.91441 0.0
O67 O 0.01148 0.83981 0.88254 0.0
O68 O 0.21255 0.77833 0.90719 0.0
O69 O 0.13072 0.74677 0.8758 0.0
O70 O 0.1534 0.07877 0.40739 0.0
Cd71 Cd 0.238 0.1166 0.42177 0.0
Cd72 Cd 0.27422 0.99484 0.4091 0.0
O73 O 0.18728 0.9908 0.38289 0.0
O74 O 0.2329 0.20873 0.40815 0.0
O75 O 0.28968 0.13915 0.3793 0.0
C76 C 0.26729 0.19481 0.38075 0.0
C77 C 0.37671 0.99321 0.38666 0.0
C78 C 0.14297 0.02936 0.38938 0.0
C79 C 0.27358 0.03638 0.4853 0.0
O80 O 0.26991 0.99034 0.46379 0.0
O81 O 0.27013 0.09267 0.4735 0.0
O82 O 0.34618 0.9413 0.39071 0.0
O83 O 0.34753 0.04436 0.39328 0.0
O84 O 0.02845 0.27344 0.96433 0.0
Cd85 Cd 0.0249 0.27742 0.90951 0.0
Cd86 Cd 0.90327 0.24011 0.92187 0.0
O87 O 0.92613 0.27108 0.97387 0.0
O88 O 0.07875 0.3495 0.89153 0.0
O89 O 0.97557 0.3502 0.89245 0.0
C90 C 0.02689 0.3797 0.88657 0.0
C91 C 0.82433 0.26864 0.88113 0.0
C92 C 0.98227 0.27568 0.98577 0.0
C93 C 0.9919 0.14613 0.88952 0.0
O94 O 0.94197 0.1562 0.90708 0.0
O95 O 0.03057 0.19061 0.88353 0.0
O96 O 0.81135 0.23315 0.90829 0.0
O97 O 0.87931 0.29281 0.87991 0.0
O98 O 0.87237 0.9285 0.41417 0.0
Cd99 Cd 0.78457 0.89695 0.42377 0.0
Cd100 Cd 0.74936 0.01288 0.41037 0.0
O101 O 0.83651 1.00929 0.38322 0.0
O102 O 0.77656 0.80669 0.40667 0.0
O103 O 0.74351 0.88868 0.37595 0.0
C104 C 0.75257 0.82933 0.37745 0.0
C105 C 0.6447 1.00809 0.39025 0.0
C106 C 0.88194 0.97375 0.39274 0.0
C107 C 0.74809 0.98196 0.48564 0.0
O108 O 0.75693 0.02707 0.46395 0.0
O109 O 0.7473 0.92539 0.47402 0.0
O110 O 0.67638 0.05953 0.38716 0.0
O111 O 0.67276 0.96051 0.40383 0.0
C112 C 0.06439 0.47328 0.24346 0.0
C113 C 1.00577 0.44284 0.2429 0.0
H114 H 0.11395 0.5606 0.24214 0.0
C115 C 0.95129 0.47911 0.24566 0.0
H116 H 0.10744 0.44663 0.24177 0.0
C117 C 0.95519 0.54455 0.24602 0.0
C118 C 0.01365 0.57505 0.24363 0.0
H119 H 0.90553 0.45719 0.24546 0.0
H120 H 0.91205 0.57123 0.24624 0.0
C121 C 0.0683 0.53869 0.24382 0.0
C122 C 0.47658 0.96446 0.74805 0.0
C123 C 0.44601 0.02266 0.74431 0.0
H124 H 0.56394 0.91483 0.74797 0.0
C125 C 0.48239 0.07725 0.7425 0.0
H126 H 0.44989 0.9214 0.74979 0.0
C127 C 0.54776 0.07332 0.74147 0.0
C128 C 0.57816 0.01473 0.74227 0.0
H129 H 0.46044 0.12272 0.73972 0.0
H130 H 0.57433 0.11618 0.73824 0.0
C131 C 0.54201 0.96054 0.74707 0.0
C132 C 0.07936 0.48448 0.88211 0.0
C133 C 0.02501 0.44795 0.87924 0.0
H134 H 0.11775 0.57653 0.88724 0.0
C135 C 0.96695 0.47834 0.87444 0.0
H136 H 0.12473 0.46265 0.88572 0.0
C137 C 0.96278 0.54376 0.87543 0.0
C138 C 0.01657 0.58004 0.8813 0.0
H139 H 0.9241 0.45153 0.87187 0.0
H140 H 0.91708 0.56557 0.87368 0.0
C141 C 0.07518 0.54982 0.88317 0.0
C142 C 0.48141 0.9408 0.38181 0.0
C143 C 0.44493 0.99523 0.37944 0.0
H144 H 0.57346 0.9023 0.38665 0.0
C145 C 0.47535 0.05342 0.37523 0.0
H146 H 0.45955 0.89535 0.38496 0.0
C147 C 0.54076 0.05758 0.37632 0.0
C148 C 0.57701 1.00364 0.38171 0.0
H149 H 0.44857 0.09634 0.37304 0.0
H150 H 0.56258 0.10333 0.37505 0.0
C151 C 0.54677 0.94498 0.38297 0.0
C152 C 0.05767 0.28351 1.03748 0.0
C153 C 0.99536 0.28024 1.02492 0.0
H154 H 0.11956 0.28373 0.08288 0.0
C155 C 0.94675 0.2781 1.05016 0.0
H156 H 0.09648 0.28546 1.01886 0.0
C157 C 0.96017 0.27725 0.08695 0.0
C158 C 0.02257 0.27842 0.09949 0.0
H159 H 0.89833 0.27569 1.04155 0.0
H160 H 0.9214 0.27433 0.10556 0.0
C161 C 0.07109 0.28257 0.07427 0.0
C162 C 0.74101 0.0731 0.57315 0.0
C163 C 0.74209 0.02504 0.59887 0.0
H164 H 0.74166 0.09725 0.51747 0.0
C165 C 0.74072 0.96237 0.58694 0.0
H166 H 0.74189 0.12176 0.58129 0.0
C167 C 0.74059 0.94813 0.55027 0.0
C168 C 0.74194 0.99618 0.52456 0.0
H169 H 0.74117 0.92398 0.60596 0.0
H170 H 0.74115 0.89946 0.54213 0.0
C171 C 0.74099 0.05886 0.53648 0.0
C172 C 0.05373 0.73821 0.08623 0.0
C173 C 0.99108 0.7422 0.09797 0.0
H174 H 0.11706 0.73732 1.04166 0.0
C175 C 0.94331 0.74469 0.07209 0.0
H176 H 0.09192 0.73591 0.10536 0.0
C177 C 0.95792 0.7454 1.03548 0.0
C178 C 0.02069 0.74364 1.02378 0.0
H179 H 0.89466 0.74765 0.08007 0.0
H180 H 0.91981 0.74873 1.01635 0.0
C181 C 0.06834 0.73893 1.04962 0.0
C182 C 0.27988 0.07155 0.5497 0.0
C183 C 0.27874 0.02299 0.52438 0.0
H184 H 0.27975 0.09682 0.60516 0.0
C185 C 0.27961 0.96055 0.53683 0.0
H186 H 0.27939 0.12006 0.54117 0.0
C187 C 0.2796 0.94703 0.57359 0.0
C188 C 0.27891 0.99559 0.59891 0.0
H189 H 0.27899 0.92175 0.51815 0.0
H190 H 0.27891 0.89852 0.58212 0.0
C191 C 0.28005 0.05803 0.58647 0.0
C192 C 0.20554 0.29979 0.30886 0.0
C193 C 0.23024 0.26948 0.27845 0.0
H194 H 0.19909 0.30052 0.36617 0.0
C195 C 0.28174 0.22948 0.28293 0.0
H196 H 0.16663 0.33205 0.30623 0.0
C197 C 0.30085 0.21196 0.31745 0.0
C198 C 0.26833 0.23382 0.34784 0.0
H199 H 0.30241 0.20605 0.26008 0.0
H200 H 0.33608 0.17572 0.32004 0.0
C201 C 0.22432 0.28195 0.34336 0.0
C202 C 0.73885 0.22334 0.84344 0.0
C203 C 0.7855 0.26889 0.84812 0.0
H204 H 0.6907 0.16455 0.8061 0.0
C205 C 0.80644 0.30249 0.81782 0.0
H206 H 0.72103 0.19719 0.86616 0.0
C207 C 0.7895 0.28338 0.78323 0.0
C208 C 0.75109 0.23072 0.77857 0.0
H209 H 0.84157 0.33881 0.82056 0.0
H210 H 0.81225 0.30516 0.76045 0.0
C211 C 0.72169 0.20446 0.80888 0.0
C212 C 0.71764 0.81991 0.31388 0.0
C213 C 0.7472 0.79264 0.34392 0.0
H214 H 0.71585 0.82807 0.25664 0.0
C215 C 0.7845 0.73938 0.33882 0.0
H216 H 0.6875 0.86033 0.31703 0.0
C217 C 0.80033 0.72053 0.30406 0.0
C218 C 0.77932 0.75495 0.27403 0.0
H219 H 0.80736 0.71688 0.36139 0.0
H220 H 0.83479 0.68371 0.30097 0.0
C221 C 0.73361 0.8012 0.27914 0.0
C222 C 0.21959 0.73817 0.77951 0.0
C223 C 0.26615 0.78381 0.77486 0.0
H224 H 0.15968 0.69151 0.81685 0.0
C225 C 0.3003 0.80395 0.80515 0.0
H226 H 0.19296 0.721 0.75679 0.0
C227 C 0.28089 0.78743 0.83973 0.0
C228 C 0.22733 0.7503 0.84437 0.0
H229 H 0.33737 0.83829 0.80242 0.0
H230 H 0.30321 0.80968 0.86252 0.0
C231 C 0.20033 0.72151 0.81406 0.0
C232 C 0.96185 0.0524 0.24503 0.0
C233 C 0.02401 0.07312 0.24236 0.0
H234 H 0.89979 0.97354 0.24419 0.0
C235 C 0.07256 0.02846 0.2433 0.0
H236 H 0.92349 0.08556 0.24438 0.0
C237 C 0.05911 0.96425 0.24371 0.0
C238 C 0.9968 0.94354 0.24249 0.0
H239 H 0.12104 0.04313 0.24162 0.0
H240 H 0.09738 0.93111 0.24202 0.0
C241 C 0.94837 0.98819 0.24475 0.0
C242 C 0.03341 0.95666 0.74582 0.0
C243 C 0.07805 1.00506 0.74301 0.0
H244 H 0.93604 0.93161 0.7452 0.0
C245 C 0.05725 0.06736 0.74292 0.0
H246 H 0.04812 0.90811 0.74625 0.0
C247 C 0.99307 0.08065 0.74177 0.0
C248 C 0.94848 0.03199 0.74141 0.0
H249 H 0.09037 0.10561 0.74076 0.0
H250 H 0.97839 0.129 0.73909 0.0
C251 C 0.96918 0.97003 0.74538 0.0
C252 C 0.95887 0.03583 0.87683 0.0
C253 C 1.00724 0.08033 0.88042 0.0
H254 H 0.93359 0.93851 0.87687 0.0
C255 C 0.06947 0.0594 0.88132 0.0
H256 H 0.91038 0.05066 0.87578 0.0
C257 C 0.08258 0.99518 0.88251 0.0
C258 C 0.03382 0.95072 0.8821 0.0
H259 H 0.1077 0.09242 0.88409 0.0
H260 H 0.13077 0.98038 0.88584 0.0
C261 C 0.97208 0.97157 0.87731 0.0
C262 C 0.99196 0.93868 0.38183 0.0
C263 C 0.94744 0.98736 0.38221 0.0
H264 H 0.08922 0.91369 0.38269 0.0
C265 C 0.96815 0.0493 0.37813 0.0
H266 H 0.97725 0.89035 0.38459 0.0
C267 C 0.03238 0.06266 0.37757 0.0
C268 C 0.077 0.01425 0.38036 0.0
H269 H 0.93504 0.08772 0.37832 0.0
H270 H 0.04715 0.1112 0.37708 0.0
C271 C 0.05613 0.95196 0.38054 0.0
loop_
_geom_bond_atom_site_label_1
_geom_bond_atom_site_label_2
_geom_bond_distance
_geom_bond_site_symmetry_2
_ccdc_geom_bond_type
O0 Cd1 2.223 1_455 S
O0 C8 1.315 . S
Cd1 O0 2.223 1_655 S
Cd1 O4 2.297 . S
Cd1 O5 2.439 1_655 S
Cd1 O11 2.240 1_655 S
Cd2 O3 2.240 . S
Cd2 O10 2.223 . S
Cd2 O12 2.297 . S
Cd2 O13 2.439 . S
O3 Cd2 2.240 . S
O3 C8 1.279 . S
O4 Cd1 2.297 . S
O4 C6 1.247 1_655 S
O5 Cd1 2.439 1_455 S
O5 C6 1.208 . S
C6 O4 1.247 1_455 S
C6 O5 1.208 . S
C7 O12 1.247 . S
C7 O13 1.208 . S
C8 O0 1.315 . S
C8 O3 1.279 . S
C9 O10 1.315 . S
C9 O11 1.279 . S
O10 Cd2 2.223 . S
O10 C9 1.315 . S
O11 Cd1 2.240 1_455 S
O11 C9 1.279 . S
O12 Cd2 2.297 . S
O12 C7 1.247 . S
O13 Cd2 2.439 . S
O13 C7 1.208 . S
O14 Cd15 2.223 . S
O14 C22 1.315 . S
Cd15 O14 2.223 . S
Cd15 O18 2.297 . S
Cd15 O19 2.439 . S
Cd15 O25 2.240 . S
Cd16 O17 2.240 1_565 S
Cd16 O24 2.223 1_565 S
Cd16 O26 2.297 . S
Cd16 O27 2.439 1_565 S
O17 Cd16 2.240 1_545 S
O17 C22 1.279 . S
O18 Cd15 2.297 . S
O18 C20 1.247 . S
O19 Cd15 2.439 . S
O19 C20 1.208 . S
C20 O18 1.247 . S
C20 O19 1.208 . S
C21 O26 1.247 1_545 S
C21 O27 1.208 . S
C22 O14 1.315 . S
C22 O17 1.279 . S
C23 O24 1.315 . S
C23 O25 1.279 . S
O24 Cd16 2.223 1_545 S
O24 C23 1.315 . S
O25 Cd15 2.240 . S
O25 C23 1.279 . S
O26 Cd16 2.297 . S
O26 C21 1.247 1_565 S
O27 Cd16 2.439 1_545 S
O27 C21 1.208 . S
O28 Cd29 2.223 1_655 S
O28 C36 1.315 . S
Cd29 O28 2.223 1_455 S
Cd29 O32 2.297 . S
Cd29 O33 2.439 1_455 S
Cd29 O39 2.240 1_455 S
Cd30 O31 2.240 . S
Cd30 O38 2.223 . S
Cd30 O40 2.297 . S
Cd30 O41 2.439 . S
O31 Cd30 2.240 . S
O31 C36 1.279 . S
O32 Cd29 2.297 . S
O32 C34 1.247 1_455 S
O33 Cd29 2.439 1_655 S
O33 C34 1.208 . S
C34 O32 1.247 1_655 S
C34 O33 1.208 . S
C35 O40 1.247 . S
C35 O41 1.208 . S
C36 O28 1.315 . S
C36 O31 1.279 . S
C37 O38 1.315 . S
C37 O39 1.279 . S
O38 Cd30 2.223 . S
O38 C37 1.315 . S
O39 Cd29 2.240 1_655 S
O39 C37 1.279 . S
O40 Cd30 2.297 . S
O40 C35 1.247 . S
O41 Cd30 2.439 . S
O41 C35 1.208 . S
O42 Cd43 2.223 . S
O42 C50 1.315 . S
Cd43 O42 2.223 . S
Cd43 O46 2.297 . S
Cd43 O47 2.439 . S
Cd43 O53 2.240 . S
Cd44 O45 2.240 1_545 S
Cd44 O52 2.223 1_545 S
Cd44 O54 2.297 . S
Cd44 O55 2.439 1_545 S
O45 Cd44 2.240 1_565 S
O45 C50 1.279 . S
O46 Cd43 2.297 . S
O46 C48 1.247 . S
O47 Cd43 2.439 . S
O47 C48 1.208 . S
C48 O46 1.247 . S
C48 O47 1.208 . S
C49 O54 1.247 1_565 S
C49 O55 1.208 . S
C50 O42 1.315 . S
C50 O45 1.279 . S
C51 O52 1.315 . S
C51 O53 1.279 . S
O52 Cd44 2.223 1_565 S
O52 C51 1.315 . S
O53 Cd43 2.240 . S
O53 C51 1.279 . S
O54 Cd44 2.297 . S
O54 C49 1.247 1_545 S
O55 Cd44 2.439 1_565 S
O55 C49 1.208 . S
O56 Cd57 2.223 1_455 S
O56 C64 1.315 . S
Cd57 O56 2.223 1_655 S
Cd57 O60 2.297 . S
Cd57 O61 2.439 1_655 S
Cd57 O67 2.240 1_655 S
Cd58 O59 2.240 . S
Cd58 O66 2.223 . S
Cd58 O68 2.297 . S
Cd58 O69 2.439 . S
O59 Cd58 2.240 . S
O59 C64 1.279 . S
O60 Cd57 2.297 . S
O60 C62 1.247 1_655 S
O61 Cd57 2.439 1_455 S
O61 C62 1.208 . S
C62 O60 1.247 1_455 S
C62 O61 1.208 . S
C63 O68 1.247 . S
C63 O69 1.208 . S
C64 O56 1.315 . S
C64 O59 1.279 . S
C65 O66 1.315 . S
C65 O67 1.279 . S
O66 Cd58 2.223 . S
O66 C65 1.315 . S
O67 Cd57 2.240 1_455 S
O67 C65 1.279 . S
O68 Cd58 2.297 . S
O68 C63 1.247 . S
O69 Cd58 2.439 . S
O69 C63 1.208 . S
O70 Cd71 2.223 . S
O70 C78 1.315 . S
Cd71 O70 2.223 . S
Cd71 O74 2.297 . S
Cd71 O75 2.439 . S
Cd71 O81 2.240 . S
Cd72 O73 2.240 1_565 S
Cd72 O80 2.223 1_565 S
Cd72 O82 2.297 . S
Cd72 O83 2.439 1_565 S
O73 Cd72 2.240 1_545 S
O73 C78 1.279 . S
O74 Cd71 2.297 . S
O74 C76 1.247 . S
O75 Cd71 2.439 . S
O75 C76 1.208 . S
C76 O74 1.247 . S
C76 O75 1.208 . S
C77 O82 1.247 1_545 S
C77 O83 1.208 . S
C78 O70 1.315 . S
C78 O73 1.279 . S
C79 O80 1.315 . S
C79 O81 1.279 . S
O80 Cd72 2.223 1_545 S
O80 C79 1.315 . S
O81 Cd71 2.240 . S
O81 C79 1.279 . S
O82 Cd72 2.297 . S
O82 C77 1.247 1_565 S
O83 Cd72 2.439 1_545 S
O83 C77 1.208 . S
O84 Cd85 2.223 1_655 S
O84 C92 1.315 . S
Cd85 O84 2.223 1_455 S
Cd85 O88 2.297 . S
Cd85 O89 2.439 1_455 S
Cd85 O95 2.240 1_455 S
Cd86 O87 2.240 . S
Cd86 O94 2.223 . S
Cd86 O96 2.297 . S
Cd86 O97 2.439 . S
O87 Cd86 2.240 . S
O87 C92 1.279 . S
O88 Cd85 2.297 . S
O88 C90 1.247 1_455 S
O89 Cd85 2.439 1_655 S
O89 C90 1.208 . S
C90 O88 1.247 1_655 S
C90 O89 1.208 . S
C91 O96 1.247 . S
C91 O97 1.208 . S
C92 O84 1.315 . S
C92 O87 1.279 . S
C93 O94 1.315 . S
C93 O95 1.279 . S
O94 Cd86 2.223 . S
O94 C93 1.315 . S
O95 Cd85 2.240 1_655 S
O95 C93 1.279 . S
O96 Cd86 2.297 . S
O96 C91 1.247 . S
O97 Cd86 2.439 . S
O97 C91 1.208 . S
O98 Cd99 2.223 . S
O98 C106 1.315 . S
Cd99 O98 2.223 . S
Cd99 O102 2.297 . S
Cd99 O103 2.439 . S
Cd99 O109 2.240 . S
Cd100 O101 2.240 1_545 S
Cd100 O108 2.223 1_545 S
Cd100 O110 2.297 . S
Cd100 O111 2.439 1_545 S
O101 Cd100 2.240 1_565 S
O101 C106 1.279 . S
O102 Cd99 2.297 . S
O102 C104 1.247 . S
O103 Cd99 2.439 . S
O103 C104 1.208 . S
C104 O102 1.247 . S
C104 O103 1.208 . S
C105 O110 1.247 1_565 S
C105 O111 1.208 . S
C106 O98 1.315 . S
C106 O101 1.279 . S
C107 O108 1.315 . S
C107 O109 1.279 . S
O108 Cd100 2.223 1_565 S
O108 C107 1.315 . S
O109 Cd99 2.240 . S
O109 C107 1.279 . S
O110 Cd100 2.297 . S
O110 C105 1.247 1_545 S
O111 Cd100 2.439 1_565 S
O111 C105 1.208 . S
C112 C113 1.387 . S
C112 H116 0.950 . S
C112 C121 1.390 1_455 S
C113 C112 1.387 . S
C113 C115 1.387 . S
H114 C121 0.950 . S
C115 C113 1.387 . S
C115 C117 1.390 1_455 S
C115 H119 0.950 . S
H116 C112 0.950 . S
C117 C115 1.390 1_655 S
C117 C118 1.387 . S
C117 H120 0.950 . S
C118 C117 1.387 . S
C118 C121 1.387 . S
H119 C115 0.950 . S
H120 C117 0.950 . S
C121 C112 1.390 1_655 S
C121 H114 0.950 . S
C121 C118 1.387 . S
C122 C123 1.387 . S
C122 H126 0.950 . S
C122 C131 1.390 1_565 S
C123 C122 1.387 . S
C123 C125 1.387 . S
H124 C131 0.950 . S
C125 C123 1.387 . S
C125 C127 1.390 1_565 S
C125 H129 0.950 . S
H126 C122 0.950 . S
C127 C125 1.390 1_545 S
C127 C128 1.387 . S
C127 H130 0.950 . S
C128 C127 1.387 . S
C128 C131 1.387 . S
H129 C125 0.950 . S
H130 C127 0.950 . S
C131 C122 1.390 1_545 S
C131 H124 0.950 . S
C131 C128 1.387 . S
C132 C133 1.387 . S
C132 H136 0.950 . S
C132 C141 1.390 1_655 S
C133 C132 1.387 . S
C133 C135 1.387 . S
H134 C141 0.950 . S
C135 C133 1.387 . S
C135 C137 1.390 1_655 S
C135 H139 0.950 . S
H136 C132 0.950 . S
C137 C135 1.390 1_455 S
C137 C138 1.387 . S
C137 H140 0.950 . S
C138 C137 1.387 . S
C138 C141 1.387 . S
H139 C135 0.950 . S
H140 C137 0.950 . S
C141 C132 1.390 1_455 S
C141 H134 0.950 . S
C141 C138 1.387 . S
C142 C143 1.387 . S
C142 H146 0.950 . S
C142 C151 1.390 1_545 S
C143 C142 1.387 . S
C143 C145 1.387 . S
H144 C151 0.950 . S
C145 C143 1.387 . S
C145 C147 1.390 1_545 S
C145 H149 0.950 . S
H146 C142 0.950 . S
C147 C145 1.390 1_565 S
C147 C148 1.387 . S
C147 H150 0.950 . S
C148 C147 1.387 . S
C148 C151 1.387 . S
H149 C145 0.950 . S
H150 C147 0.950 . S
C151 C142 1.390 1_565 S
C151 H144 0.950 . S
C151 C148 1.387 . S
C152 C153 1.387 . S
C152 H156 0.950 . S
C152 C161 1.390 1_656 S
C153 C152 1.387 . S
C153 C155 1.387 . S
H154 C161 0.950 . S
C155 C153 1.387 . S
C155 C157 1.390 1_656 S
C155 H159 0.950 . S
H156 C152 0.950 . S
C157 C155 1.390 1_454 S
C157 C158 1.387 . S
C157 H160 0.950 . S
C158 C157 1.387 . S
C158 C161 1.387 . S
H159 C155 0.950 . S
H160 C157 0.950 . S
C161 C152 1.390 1_454 S
C161 H154 0.950 . S
C161 C158 1.387 . S
C162 C163 1.387 . S
C162 H166 0.950 . S
C162 C171 1.390 1_545 S
C163 C162 1.387 . S
C163 C165 1.387 . S
H164 C171 0.950 . S
C165 C163 1.387 . S
C165 C167 1.390 1_545 S
C165 H169 0.950 . S
H166 C162 0.950 . S
C167 C165 1.390 1_565 S
C167 C168 1.387 . S
C167 H170 0.950 . S
C168 C167 1.387 . S
C168 C171 1.387 . S
H169 C165 0.950 . S
H170 C167 0.950 . S
C171 C162 1.390 1_565 S
C171 H164 0.950 . S
C171 C168 1.387 . S
C172 C173 1.387 . S
C172 H176 0.950 . S
C172 C181 1.390 1_654 S
C173 C172 1.387 . S
C173 C175 1.387 . S
H174 C181 0.950 . S
C175 C173 1.387 . S
C175 C177 1.390 1_654 S
C175 H179 0.950 . S
H176 C172 0.950 . S
C177 C175 1.390 1_456 S
C177 C178 1.387 . S
C177 H180 0.950 . S
C178 C177 1.387 . S
C178 C181 1.387 . S
H179 C175 0.950 . S
H180 C177 0.950 . S
C181 C172 1.390 1_456 S
C181 H174 0.950 . S
C181 C178 1.387 . S
C182 C183 1.387 . S
C182 H186 0.950 . S
C182 C191 1.390 1_545 S
C183 C182 1.387 . S
C183 C185 1.387 . S
H184 C191 0.950 . S
C185 C183 1.387 . S
C185 C187 1.390 1_545 S
C185 H189 0.950 . S
H186 C182 0.950 . S
C187 C185 1.390 1_565 S
C187 C188 1.387 . S
C187 H190 0.950 . S
C188 C187 1.387 . S
C188 C191 1.387 . S
H189 C185 0.950 . S
H190 C187 0.950 . S
C191 C182 1.390 1_565 S
C191 H184 0.950 . S
C191 C188 1.387 . S
C192 C193 1.387 . S
C192 H196 0.950 . S
C192 C201 1.390 . S
C193 C192 1.387 . S
C193 C195 1.387 . S
H194 C201 0.950 . S
C195 C193 1.387 . S
C195 C197 1.390 . S
C195 H199 0.950 . S
H196 C192 0.950 . S
C197 C195 1.390 . S
C197 C198 1.387 . S
C197 H200 0.950 . S
C198 C197 1.387 . S
C198 C201 1.387 . S
H199 C195 0.950 . S
H200 C197 0.950 . S
C201 C192 1.390 . S
C201 H194 0.950 . S
C201 C198 1.387 . S
C202 C203 1.387 . S
C202 H206 0.950 . S
C202 C211 1.390 . S
C203 C202 1.387 . S
C203 C205 1.387 . S
H204 C211 0.950 . S
C205 C203 1.387 . S
C205 C207 1.390 . S
C205 H209 0.950 . S
H206 C202 0.950 . S
C207 C205 1.390 . S
C207 C208 1.387 . S
C207 H210 0.950 . S
C208 C207 1.387 . S
C208 C211 1.387 . S
H209 C205 0.950 . S
H210 C207 0.950 . S
C211 C202 1.390 . S
C211 H204 0.950 . S
C211 C208 1.387 . S
C212 C213 1.387 . S
C212 H216 0.950 . S
C212 C221 1.390 . S
C213 C212 1.387 . S
C213 C215 1.387 . S
H214 C221 0.950 . S
C215 C213 1.387 . S
C215 C217 1.390 . S
C215 H219 0.950 . S
H216 C212 0.950 . S
C217 C215 1.390 . S
C217 C218 1.387 . S
C217 H220 0.950 . S
C218 C217 1.387 . S
C218 C221 1.387 . S
H219 C215 0.950 . S
H220 C217 0.950 . S
C221 C212 1.390 . S
C221 H214 0.950 . S
C221 C218 1.387 . S
C222 C223 1.387 . S
C222 H226 0.950 . S
C222 C231 1.390 . S
C223 C222 1.387 . S
C223 C225 1.387 . S
H224 C231 0.950 . S
C225 C223 1.387 . S
C225 C227 1.390 . S
C225 H229 0.950 . S
H226 C222 0.950 . S
C227 C225 1.390 . S
C227 C228 1.387 . S
C227 H230 0.950 . S
C228 C227 1.387 . S
C228 C231 1.387 . S
H229 C225 0.950 . S
H230 C227 0.950 . S
C231 C222 1.390 . S
C231 H224 0.950 . S
C231 C228 1.387 . S
C232 C233 1.387 . S
C232 H236 0.950 . S
C232 C241 1.390 1_445 S
C233 C232 1.387 . S
C233 C235 1.387 . S
H234 C241 0.950 . S
C235 C233 1.387 . S
C235 C237 1.390 1_445 S
C235 H239 0.950 . S
H236 C232 0.950 . S
C237 C235 1.390 1_665 S
C237 C238 1.387 . S
C237 H240 0.950 . S
C238 C237 1.387 . S
C238 C241 1.387 . S
H239 C235 0.950 . S
H240 C237 0.950 . S
C241 C232 1.390 1_665 S
C241 H234 0.950 . S
C241 C238 1.387 . S
C242 C243 1.387 . S
C242 H246 0.950 . S
C242 C251 1.390 1_465 S
C243 C242 1.387 . S
C243 C245 1.387 . S
H244 C251 0.950 . S
C245 C243 1.387 . S
C245 C247 1.390 1_465 S
C245 H249 0.950 . S
H246 C242 0.950 . S
C247 C245 1.390 1_645 S
C247 C248 1.387 . S
C247 H250 0.950 . S
C248 C247 1.387 . S
C248 C251 1.387 . S
H249 C245 0.950 . S
H250 C247 0.950 . S
C251 C242 1.390 1_645 S
C251 H244 0.950 . S
C251 C248 1.387 . S
C252 C253 1.387 . S
C252 H256 0.950 . S
C252 C261 1.390 1_645 S
C253 C252 1.387 . S
C253 C255 1.387 . S
H254 C261 0.950 . S
C255 C253 1.387 . S
C255 C257 1.390 1_645 S
C255 H259 0.950 . S
H256 C252 0.950 . S
C257 C255 1.390 1_465 S
C257 C258 1.387 . S
C257 H260 0.950 . S
C258 C257 1.387 . S
C258 C261 1.387 . S
H259 C255 0.950 . S
H260 C257 0.950 . S
C261 C252 1.390 1_465 S
C261 H254 0.950 . S
C261 C258 1.387 . S
C262 C263 1.387 . S
C262 H266 0.950 . S
C262 C271 1.390 1_665 S
C263 C262 1.387 . S
C263 C265 1.387 . S
H264 C271 0.950 . S
C265 C263 1.387 . S
C265 C267 1.390 1_665 S
C265 H269 0.950 . S
H266 C262 0.950 . S
C267 C265 1.390 1_445 S
C267 C268 1.387 . S
C267 H270 0.950 . S
C268 C267 1.387 . S
C268 C271 1.387 . S
H269 C265 0.950 . S
H270 C267 0.950 . S
C271 C262 1.390 1_445 S
C271 H264 0.950 . S
C271 C268 1.387 . S
C113 C6 1.481 . S
C118 C34 1.481 . S
C123 C49 1.481 . S
C128 C21 1.481 . S
C133 C90 1.483 . S
C138 C62 1.483 . S
C143 C77 1.483 . S
C148 C105 1.483 . S
C153 C92 1.499 . S
C158 C8 1.499 . S
C163 C23 1.504 . S
C168 C107 1.504 . S
C173 C36 1.499 . S
C178 C64 1.499 . S
C183 C79 1.504 . S
C188 C51 1.504 . S
C193 C7 1.830 . S
C198 C76 1.829 . S
C203 C91 1.829 . S
C208 C20 1.829 . S
C213 C104 1.830 . S
C218 C35 1.830 . S
C223 C48 1.829 . S
C228 C63 1.830 . S
C233 C9 1.320 . S
C238 C37 1.320 . S
C243 C50 1.317 . S
C248 C22 1.317 . S
C253 C93 1.317 . S
C258 C65 1.317 . S
C263 C106 1.320 . S
C268 C78 1.320 . S
