# Generated by pormake.
# Topology utj, (3)-cn, num edge types: 1
# Building blocks:
#     Node 0, Type 0, BuildingBlock: WUSLED_clean_sbu_0, # of connection points: 3
#     Node 1, Type 0, BuildingBlock: WUSLED_clean_sbu_0, # of connection points: 3
#     Node 2, Type 0, BuildingBlock: WUSLED_clean_sbu_0, # of connection points: 3
#     Node 3, Type 0, BuildingBlock: WUSLED_clean_sbu_0, # of connection points: 3
#     Node 4, Type 0, BuildingBlock: WUSLED_clean_sbu_0, # of connection points: 3
#     Node 5, Type 0, BuildingBlock: WUSLED_clean_sbu_0, # of connection points: 3
#     Node 6, Type 0, BuildingBlock: WUSLED_clean_sbu_0, # of connection points: 3
#     Node 7, Type 0, BuildingBlock: WUSLED_clean_sbu_0, # of connection points: 3
#     Node 8, Type 0, BuildingBlock: WUSLED_clean_sbu_0, # of connection points: 3
#     Node 9, Type 0, BuildingBlock: WUSLED_clean_sbu_0, # of connection points: 3
#     Node 10, Type 0, BuildingBlock: WUSLED_clean_sbu_0, # of connection points: 3
#     Node 11, Type 0, BuildingBlock: WUSLED_clean_sbu_0, # of connection points: 3
#     Node 12, Type 0, BuildingBlock: WUSLED_clean_sbu_0, # of connection points: 3
#     Node 13, Type 0, BuildingBlock: WUSLED_clean_sbu_0, # of connection points: 3
#     Node 14, Type 0, BuildingBlock: WUSLED_clean_sbu_0, # of connection points: 3
#     Node 15, Type 0, BuildingBlock: WUSLED_clean_sbu_0, # of connection points: 3
#     Edge 16, Type (0, 0), BuildingBlock: CIFDUS_clean_linker_0, # of connection points: 2
#     Edge 17, Type (0, 0), BuildingBlock: CIFDUS_clean_linker_0, # of connection points: 2
#     Edge 18, Type (0, 0), BuildingBlock: CIFDUS_clean_linker_0, # of connection points: 2
#     Edge 19, Type (0, 0), BuildingBlock: CIFDUS_clean_linker_0, # of connection points: 2
#     Edge 20, Type (0, 0), BuildingBlock: CIFDUS_clean_linker_0, # of connection points: 2
#     Edge 21, Type (0, 0), BuildingBlock: CIFDUS_clean_linker_0, # of connection points: 2
#     Edge 22, Type (0, 0), BuildingBlock: CIFDUS_clean_linker_0, # of connection points: 2
#     Edge 23, Type (0, 0), BuildingBlock: CIFDUS_clean_linker_0, # of connection points: 2
#     Edge 24, Type (0, 0), BuildingBlock: CIFDUS_clean_linker_0, # of connection points: 2
#     Edge 25, Type (0, 0), BuildingBlock: CIFDUS_clean_linker_0, # of connection points: 2
#     Edge 26, Type (0, 0), BuildingBlock: CIFDUS_clean_linker_0, # of connection points: 2
#     Edge 27, Type (0, 0), BuildingBlock: CIFDUS_clean_linker_0, # of connection points: 2
#     Edge 28, Type (0, 0), BuildingBlock: CIFDUS_clean_linker_0, # of connection points: 2
#     Edge 29, Type (0, 0), BuildingBlock: CIFDUS_clean_linker_0, # of connection points: 2
#     Edge 30, Type (0, 0), BuildingBlock: CIFDUS_clean_linker_0, # of connection points: 2
#     Edge 31, Type (0, 0), BuildingBlock: CIFDUS_clean_linker_0, # of connection points: 2
#     Edge 32, Type (0, 0), BuildingBlock: CIFDUS_clean_linker_0, # of connection points: 2
#     Edge 33, Type (0, 0), BuildingBlock: CIFDUS_clean_linker_0, # of connection points: 2
#     Edge 34, Type (0, 0), BuildingBlock: CIFDUS_clean_linker_0, # of connection points: 2
#     Edge 35, Type (0, 0), BuildingBlock: CIFDUS_clean_linker_0, # of connection points: 2
#     Edge 36, Type (0, 0), BuildingBlock: CIFDUS_clean_linker_0, # of connection points: 2
#     Edge 37, Type (0, 0), BuildingBlock: CIFDUS_clean_linker_0, # of connection points: 2
#     Edge 38, Type (0, 0), BuildingBlock: CIFDUS_clean_linker_0, # of connection points: 2
#     Edge 39, Type (0, 0), BuildingBlock: CIFDUS_clean_linker_0, # of connection points: 2
# Relax obj value: 0.003
# Max RMSD: 0.009
# Mean RMSD: 0.009
data_MOF--net-utj--node1-WUSLED_clean_sbu_0--edge1-CIFDUS_clean_linker_0
_symmetry_space_group_name_H-M    P1
_symmetry_Int_Tables_number       1
_symmetry_cell_setting            triclinic
loop_
_symmetry_equiv_pos_as_xyz
'x, y, z'
_cell_length_a     71.847217
_cell_length_b     71.694062
_cell_length_c     60.780219
_cell_angle_alpha  90.050603
_cell_angle_beta   89.976863
_cell_angle_gamma 89.770035
loop_
_atom_site_label
_atom_site_type_symbol
_atom_site_fract_x
_atom_site_fract_y
_atom_site_fract_z
_atom_type_partial_charge
C0 C 0.0573 0.43848 0.05405 0.0
C1 C 0.05545 0.45447 0.06716 0.0
C2 C 0.03788 0.46988 0.03787 0.0
C3 C 0.04587 0.47013 0.05904 0.0
C4 C 0.03994 0.45384 0.02488 0.0
C5 C 0.04962 0.43837 0.03287 0.0
U6 U 0.08379 0.39618 0.08527 0.0
O7 O 0.07563 0.36757 0.07645 0.0
O8 O 0.1032 0.37842 0.06607 0.0
C9 C 0.09111 0.36473 0.06544 0.0
C10 C 0.06672 0.42141 0.06156 0.0
C11 C 0.09575 0.34621 0.05664 0.0
C12 C 0.09543 0.32454 0.02582 0.0
C13 C 0.09314 0.34261 0.03417 0.0
C14 C 0.10351 0.31362 0.06227 0.0
C15 C 0.10024 0.30979 0.0399 0.0
C16 C 0.10127 0.3317 0.07058 0.0
C17 C 0.09643 0.40334 0.1501 0.0
C18 C 0.10089 0.39018 0.18667 0.0
C19 C 0.1014 0.42363 0.18144 0.0
C20 C 0.09855 0.42122 0.1589 0.0
C21 C 0.10217 0.40819 0.19575 0.0
C22 C 0.09789 0.3878 0.16402 0.0
C23 C 0.09187 0.40116 0.12666 0.0
O24 O 0.08492 0.42091 0.06366 0.0
O25 O 0.05774 0.40921 0.07362 0.0
O26 O 0.07607 0.39376 0.12025 0.0
O27 O 0.10335 0.4061 0.11086 0.0
H28 H 0.06129 0.45481 0.08357 0.0
H29 H 0.04445 0.48234 0.06942 0.0
H30 H 0.0342 0.45332 1.00842 0.0
H31 H 0.051 0.42616 0.02247 0.0
H32 H 0.09257 0.32195 1.0086 0.0
H33 H 0.08869 0.35367 0.0232 0.0
H34 H 0.10727 0.30248 0.07346 0.0
H35 H 0.1033 0.33422 0.08798 0.0
H36 H 0.10137 0.37799 0.19714 0.0
H37 H 0.10273 0.43769 0.18771 0.0
H38 H 0.09753 0.43338 0.14842 0.0
H39 H 0.09637 0.37385 0.15744 0.0
C40 C 0.0822 0.05903 0.5504 0.0
C41 C 0.06885 0.05414 0.56625 0.0
C42 C 0.05044 0.03773 0.53818 0.0
C43 C 0.05308 0.0437 0.56016 0.0
C44 C 0.06369 0.04325 0.52245 0.0
C45 C 0.07922 0.05376 0.5285 0.0
U46 U 0.12185 0.08436 0.58498 0.0
O47 O 0.1518 0.07815 0.58181 0.0
O48 O 0.14112 0.10591 0.57234 0.0
C49 C 0.15572 0.09501 0.57481 0.0
C50 C 0.10009 0.06828 0.55568 0.0
C51 C 0.17284 0.09811 0.56175 0.0
C52 C 0.19395 0.09202 0.53101 0.0
C53 C 0.17636 0.08994 0.54111 0.0
C54 C 0.20415 0.11084 0.56168 0.0
C55 C 0.20827 0.10207 0.54157 0.0
C56 C 0.18677 0.10882 0.57159 0.0
C57 C 0.11207 0.09447 0.64857 0.0
C58 C 0.12845 0.10918 0.67903 0.0
C59 C 0.09935 0.09333 0.68551 0.0
C60 C 0.09812 0.08914 0.6632 0.0
C61 C 0.11446 0.10353 0.69401 0.0
C62 C 0.12735 0.10455 0.65653 0.0
C63 C 0.10969 0.08874 0.62543 0.0
O64 O 0.10015 0.08637 0.55926 0.0
O65 O 0.11194 0.05912 0.56811 0.0
O66 O 0.11844 0.07367 0.61868 0.0
O67 O 0.10796 0.10165 0.61023 0.0
H68 H 0.07078 0.05806 0.5833 0.0
H69 H 0.04307 0.04017 0.57277 0.0
H70 H 0.06258 0.03883 0.50549 0.0
H71 H 0.08936 0.05728 0.51599 0.0
H72 H 0.19659 0.08506 0.5155 0.0
H73 H 0.1658 0.08159 0.53316 0.0
H74 H 0.21454 0.11906 0.57012 0.0
H75 H 0.18439 0.11531 0.58746 0.0
H76 H 0.14021 0.11732 0.68445 0.0
H77 H 0.0885 0.0879 0.69596 0.0
H78 H 0.08624 0.08126 0.6574 0.0
H79 H 0.13832 0.10887 0.64545 0.0
C80 C 0.45995 0.08339 0.04993 0.0
C81 C 0.46739 0.07089 0.06546 0.0
C82 C 0.48174 0.0524 0.03599 0.0
C83 C 0.47826 0.05553 0.05851 0.0
C84 C 0.47367 0.0645 0.02059 0.0
C85 C 0.46295 0.07979 0.0275 0.0
U86 U 0.4341 0.1229 0.08521 0.0
O87 O 0.43989 0.15295 0.08271 0.0
O88 O 0.41258 0.14231 0.07247 0.0
C89 C 0.42317 0.15702 0.07534 0.0
C90 C 0.45066 0.1013 0.05586 0.0
C91 C 0.421 0.17338 0.06061 0.0
C92 C 0.43044 0.19267 0.0296 0.0
C93 C 0.43121 0.17566 0.04111 0.0
C94 C 0.40864 0.20496 0.05627 0.0
C95 C 0.41942 0.20762 0.03732 0.0
C96 C 0.4095 0.18805 0.06779 0.0
C97 C 0.42253 0.11285 0.14835 0.0
C98 C 0.41406 0.13131 0.18057 0.0
C99 C 0.41701 0.09782 0.18354 0.0
C100 C 0.42152 0.09677 0.16127 0.0
C101 C 0.41354 0.11509 0.19375 0.0
C102 C 0.41855 0.13021 0.15803 0.0
C103 C 0.42906 0.11043 0.12545 0.0
O104 O 0.43255 0.1015 0.05897 0.0
O105 O 0.4596 0.11287 0.06883 0.0
O106 O 0.44402 0.11947 0.11923 0.0
O107 O 0.41665 0.10844 0.10975 0.0
H108 H 0.46538 0.07334 0.08288 0.0
H109 H 0.48445 0.04645 0.07073 0.0
H110 H 0.47631 0.06259 1.00319 0.0
H111 H 0.45752 0.08928 0.0152 0.0
H112 H 0.43895 0.1944 0.01505 0.0
H113 H 0.44026 0.16461 0.03525 0.0
H114 H 0.40028 0.21626 0.06283 0.0
H115 H 0.40164 0.18669 0.08292 0.0
H116 H 0.41157 0.14491 0.18775 0.0
H117 H 0.41624 0.08491 0.19269 0.0
H118 H 0.4245 0.08323 0.15415 0.0
H119 H 0.41931 0.14286 0.14836 0.0
C120 C 0.43401 0.46043 0.54999 0.0
C121 C 0.44813 0.46623 0.56453 0.0
C122 C 0.46432 0.48212 0.53434 0.0
C123 C 0.4633 0.47687 0.55668 0.0
C124 C 0.45052 0.47564 0.51996 0.0
C125 C 0.4357 0.4649 0.52765 0.0
U126 U 0.39486 0.43517 0.58645 0.0
O127 O 0.36486 0.44149 0.58395 0.0
O128 O 0.37524 0.4139 0.57392 0.0
C129 C 0.36065 0.42477 0.5767 0.0
C130 C 0.41645 0.45117 0.55689 0.0
C131 C 0.3442 0.42262 0.5621 0.0
C132 C 0.32682 0.42761 0.52809 0.0
C133 C 0.34338 0.42927 0.54041 0.0
C134 C 0.31194 0.4124 0.5588 0.0
C135 C 0.31072 0.41929 0.53719 0.0
C136 C 0.32837 0.41408 0.57099 0.0
C137 C 0.40517 0.42479 0.64993 0.0
C138 C 0.38797 0.41188 0.68092 0.0
C139 C 0.41873 0.42454 0.68657 0.0
C140 C 0.41992 0.42865 0.6642 0.0
C141 C 0.40274 0.41613 0.69546 0.0
C142 C 0.38913 0.41627 0.65836 0.0
C143 C 0.40742 0.4306 0.62676 0.0
O144 O 0.41633 0.43307 0.56037 0.0
O145 O 0.40492 0.46043 0.56968 0.0
O146 O 0.39867 0.44571 0.62019 0.0
O147 O 0.40892 0.41774 0.61143 0.0
H148 H 0.44717 0.46303 0.58189 0.0
H149 H 0.47369 0.48175 0.5682 0.0
H150 H 0.45091 0.47936 0.5027 0.0
H151 H 0.42506 0.46064 0.5161 0.0
H152 H 0.32656 0.43332 0.51163 0.0
H153 H 0.35536 0.43598 0.53313 0.0
H154 H 0.30021 0.40552 0.56641 0.0
H155 H 0.32865 0.40878 0.58767 0.0
H156 H 0.37551 0.40514 0.68686 0.0
H157 H 0.43027 0.4286 0.69691 0.0
H158 H 0.4324 0.43531 0.65807 0.0
H159 H 0.37754 0.41311 0.64762 0.0
C160 C 0.05766 0.0803 0.96672 0.0
C161 C 0.04834 0.06678 0.95427 0.0
C162 C 0.03646 0.05225 0.98779 0.0
C163 C 0.03796 0.05279 0.96469 0.0
C164 C 0.04638 0.06556 1.00013 0.0
C165 C 0.05686 0.0794 0.9897 0.0
U166 U 0.08392 0.12312 0.9353 0.0
O167 O 0.07477 0.15122 0.94548 0.0
O168 O 0.10252 0.14067 0.95562 0.0
C169 C 0.08999 0.15403 0.95694 0.0
C170 C 0.06727 0.09596 0.95596 0.0
C171 C 0.09477 0.17285 0.96478 0.0
C172 C 0.09574 0.19465 0.99538 0.0
C173 C 0.09234 0.17681 0.98713 0.0
C174 C 0.10407 0.20501 0.95885 0.0
C175 C 0.10141 0.20923 0.98137 0.0
C176 C 0.10085 0.18698 0.95067 0.0
C177 C 0.09742 0.11737 0.87054 0.0
C178 C 0.10729 0.13088 0.83575 0.0
C179 C 0.09619 0.09906 0.83704 0.0
C180 C 0.09362 0.10059 0.85974 0.0
C181 C 0.10274 0.11427 0.82478 0.0
C182 C 0.10452 0.13246 0.85853 0.0
C183 C 0.09255 0.11942 0.89388 0.0
O184 O 0.08548 0.09767 0.95593 0.0
O185 O 0.0581 0.10866 0.94476 0.0
O186 O 0.0764 0.12616 0.90024 0.0
O187 O 0.10417 0.11481 0.90969 0.0
H188 H 0.04881 0.06724 0.93647 0.0
H189 H 0.03049 0.0429 0.95458 0.0
H190 H 0.04592 0.06542 0.01792 0.0
H191 H 0.06397 0.0897 0.99963 0.0
H192 H 0.09403 0.1968 0.01286 0.0
H193 H 0.08768 0.16603 0.99831 0.0
H194 H 0.10809 0.21568 0.94726 0.0
H195 H 0.10275 0.1842 0.9333 0.0
H196 H 0.11212 0.14286 0.82657 0.0
H197 H 0.09249 0.08615 0.8289 0.0
H198 H 0.08804 0.08884 0.86875 0.0
H199 H 0.1074 0.1456 0.86663 0.0
C200 C 0.43767 0.05878 0.46716 0.0
C201 C 0.45249 0.05166 0.45467 0.0
C202 C 0.46588 0.03728 0.48748 0.0
C203 C 0.46659 0.04111 0.46478 0.0
C204 C 0.45127 0.04504 0.49994 0.0
C205 C 0.43735 0.05569 0.48988 0.0
U206 U 0.39486 0.0849 0.43545 0.0
O207 O 0.36688 0.07522 0.44534 0.0
O208 O 0.37663 0.10335 0.45513 0.0
C209 C 0.36355 0.09062 0.45639 0.0
C210 C 0.42182 0.06831 0.45665 0.0
C211 C 0.34479 0.09522 0.46467 0.0
C212 C 0.32099 0.0902 0.4925 0.0
C213 C 0.33901 0.08724 0.48452 0.0
C214 C 0.31431 0.10982 0.46114 0.0
C215 C 0.30818 0.10138 0.48085 0.0
C216 C 0.3324 0.10669 0.45308 0.0
C217 C 0.40117 0.0984 0.37075 0.0
C218 C 0.38796 0.10505 0.33469 0.0
C219 C 0.42117 0.10055 0.33877 0.0
C220 C 0.41891 0.09793 0.36135 0.0
C221 C 0.40571 0.10368 0.32503 0.0
C222 C 0.38569 0.10227 0.3574 0.0
C223 C 0.39896 0.09352 0.39409 0.0
O224 O 0.42003 0.08656 0.45645 0.0
O225 O 0.40943 0.05907 0.44518 0.0
O226 O 0.39207 0.07745 0.40034 0.0
O227 O 0.40351 0.10509 0.40998 0.0
H228 H 0.45294 0.05389 0.43706 0.0
H229 H 0.47758 0.0353 0.45467 0.0
H230 H 0.45044 0.04265 0.5175 0.0
H231 H 0.42602 0.0611 0.4998 0.0
H232 H 0.31702 0.08309 0.50744 0.0
H233 H 0.34838 0.0783 0.49372 0.0
H234 H 0.30517 0.11885 0.45183 0.0
H235 H 0.33661 0.11306 0.43773 0.0
H236 H 0.37577 0.10737 0.32459 0.0
H237 H 0.43508 0.0997 0.33195 0.0
H238 H 0.43101 0.09496 0.37139 0.0
H239 H 0.37184 0.10267 0.36444 0.0
C240 C 0.45907 0.43843 0.96908 0.0
C241 C 0.46643 0.45143 0.95418 0.0
C242 C 0.48123 0.4683 0.98447 0.0
C243 C 0.47745 0.46629 0.96187 0.0
C244 C 0.47329 0.45566 0.99928 0.0
C245 C 0.46233 0.44093 0.99164 0.0
U246 U 0.43371 0.39628 0.93657 0.0
O247 O 0.44199 0.36733 0.94417 0.0
O248 O 0.41373 0.37739 0.95323 0.0
C249 C 0.42577 0.36355 0.95304 0.0
C250 C 0.44989 0.4209 0.96223 0.0
C251 C 0.42221 0.34542 0.96379 0.0
C252 C 0.42826 0.32267 0.99268 0.0
C253 C 0.43139 0.34024 0.98322 0.0
C254 C 0.40664 0.31531 0.9635 0.0
C255 C 0.41596 0.30986 0.98283 0.0
C256 C 0.40971 0.33289 0.95415 0.0
C257 C 0.42137 0.40405 0.87192 0.0
C258 C 0.41219 0.38825 0.83811 0.0
C259 C 0.42047 0.4209 0.83723 0.0
C260 C 0.42353 0.42056 0.8599 0.0
C261 C 0.415 0.40474 0.82606 0.0
C262 C 0.41541 0.38787 0.86097 0.0
C263 C 0.42683 0.40439 0.89534 0.0
O264 O 0.43173 0.42011 0.95981 0.0
O265 O 0.45913 0.40905 0.94985 0.0
O266 O 0.44238 0.39639 0.90177 0.0
O267 O 0.41449 0.40706 0.91102 0.0
H268 H 0.46424 0.44974 0.93667 0.0
H269 H 0.48359 0.47582 0.95013 0.0
H270 H 0.47619 0.45673 0.01671 0.0
H271 H 0.457 0.43095 1.00342 0.0
H272 H 0.43545 0.31914 1.00777 0.0
H273 H 0.44102 0.34975 0.99104 0.0
H274 H 0.39725 0.30583 0.95527 0.0
H275 H 0.40253 0.33659 0.93911 0.0
H276 H 0.40826 0.37553 0.82972 0.0
H277 H 0.42301 0.43369 0.82825 0.0
H278 H 0.42822 0.43316 0.86799 0.0
H279 H 0.41376 0.37493 0.86991 0.0
C280 C 0.0837 0.46058 0.47166 0.0
C281 C 0.06973 0.46631 0.45686 0.0
C282 C 0.05313 0.48221 0.48674 0.0
C283 C 0.05442 0.47697 0.46444 0.0
C284 C 0.06677 0.47584 0.50139 0.0
C285 C 0.08175 0.4651 0.49396 0.0
U286 U 0.12287 0.43502 0.43559 0.0
O287 O 0.15282 0.44125 0.43795 0.0
O288 O 0.14258 0.41377 0.44825 0.0
C289 C 0.15712 0.42459 0.4454 0.0
C290 C 0.10137 0.45135 0.46504 0.0
C291 C 0.1734 0.42267 0.46029 0.0
C292 C 0.19128 0.43016 0.49322 0.0
C293 C 0.17475 0.43151 0.48082 0.0
C294 C 0.20508 0.41088 0.46496 0.0
C295 C 0.20685 0.41993 0.4854 0.0
C296 C 0.18867 0.41229 0.45265 0.0
C297 C 0.11199 0.42367 0.37248 0.0
C298 C 0.12942 0.41263 0.34058 0.0
C299 C 0.09687 0.42074 0.33693 0.0
C300 C 0.09617 0.42522 0.35922 0.0
C301 C 0.11353 0.41465 0.32711 0.0
C302 C 0.12868 0.41716 0.36314 0.0
C303 C 0.11009 0.42992 0.39553 0.0
O304 O 0.10162 0.43321 0.46187 0.0
O305 O 0.11272 0.46048 0.45202 0.0
O306 O 0.11901 0.44501 0.40166 0.0
O307 O 0.10857 0.41734 0.41113 0.0
H308 H 0.07092 0.46307 0.43952 0.0
H309 H 0.04412 0.48185 0.45276 0.0
H310 H 0.06616 0.4797 0.51861 0.0
H311 H 0.09232 0.46089 0.50567 0.0
H312 H 0.19196 0.43763 0.50866 0.0
H313 H 0.16323 0.43972 0.48707 0.0
H314 H 0.21633 0.40251 0.45836 0.0
H315 H 0.18798 0.40535 0.43684 0.0
H316 H 0.14253 0.40805 0.33361 0.0
H317 H 0.0842 0.42203 0.32742 0.0
H318 H 0.08314 0.43015 0.36611 0.0
H319 H 0.14111 0.41588 0.3731 0.0
C320 C 0.95186 0.57971 0.97011 0.0
C321 C 0.95054 0.56282 0.95855 0.0
C322 C 0.97086 0.54773 0.98564 0.0
C323 C 0.95999 0.54691 0.96631 0.0
C324 C 0.97177 0.56469 0.99712 0.0
C325 C 0.96243 0.58042 0.9894 0.0
U326 U 0.92679 0.62135 0.93694 0.0
O327 O 0.90736 0.6409 0.95347 0.0
O328 O 0.93563 0.65026 0.94352 0.0
C329 C 0.91963 0.65443 0.95277 0.0
C330 C 0.94278 0.59717 0.96321 0.0
C331 C 0.91634 0.67269 0.96313 0.0
C332 C 0.92132 0.69519 0.99253 0.0
C333 C 0.92343 0.6771 0.98397 0.0
C334 C 0.90437 0.70422 0.95986 0.0
C335 C 0.91205 0.7092 0.98038 0.0
C336 C 0.90665 0.68629 0.95131 0.0
C337 C 0.91484 0.61368 0.8725 0.0
C338 C 0.90299 0.62981 0.84013 0.0
C339 C 0.91458 0.59819 0.8369 0.0
C340 C 0.91845 0.598 0.85939 0.0
C341 C 0.90693 0.61409 0.82706 0.0
C342 C 0.90697 0.62965 0.86281 0.0
C343 C 0.92034 0.61256 0.89582 0.0
O344 O 0.95217 0.6089 0.95096 0.0
O345 O 0.92466 0.59783 0.96027 0.0
O346 O 0.90773 0.61066 0.91134 0.0
O347 O 0.93594 0.62028 0.90235 0.0
H348 H 0.94241 0.56197 0.94359 0.0
H349 H 0.95906 0.53409 0.95696 0.0
H350 H 0.97956 0.56584 0.01229 0.0
H351 H 0.96349 0.59331 0.99863 0.0
H352 H 0.92763 0.69825 1.00826 0.0
H353 H 0.93098 0.66672 0.99338 0.0
H354 H 0.89654 0.71415 0.95016 0.0
H355 H 0.901 0.6831 0.93523 0.0
H356 H 0.89702 0.64221 0.83276 0.0
H357 H 0.91768 0.58592 0.82714 0.0
H358 H 0.92453 0.58556 0.86655 0.0
H359 H 0.90409 0.64193 0.87264 0.0
C360 C 0.93853 0.95249 0.47109 0.0
C361 C 0.9527 0.95674 0.45605 0.0
C362 C 0.96977 0.97376 0.48474 0.0
C363 C 0.96824 0.96717 0.46287 0.0
C364 C 0.95577 0.96879 0.49975 0.0
C365 C 0.94044 0.95829 0.49299 0.0
U366 U 0.89665 0.92781 0.43816 0.0
O367 O 0.87697 0.90867 0.45455 0.0
O368 O 0.8675 0.93678 0.44387 0.0
C369 C 0.86332 0.92089 0.45334 0.0
C370 C 0.92075 0.94358 0.46486 0.0
C371 C 0.84489 0.91732 0.46323 0.0
C372 C 0.82372 0.91701 0.49458 0.0
C373 C 0.84169 0.91942 0.48587 0.0
C374 C 0.81209 0.91036 0.45812 0.0
C375 C 0.80855 0.91253 0.4808 0.0
C376 C 0.82999 0.91268 0.44953 0.0
C377 C 0.90438 0.91636 0.37361 0.0
C378 C 0.88904 0.90239 0.34193 0.0
C379 C 0.9182 0.91866 0.33722 0.0
C380 C 0.9187 0.92234 0.35973 0.0
C381 C 0.90329 0.90884 0.32791 0.0
C382 C 0.88954 0.90618 0.36467 0.0
C383 C 0.90579 0.92164 0.39701 0.0
O384 O 0.90909 0.95303 0.45249 0.0
O385 O 0.91994 0.92544 0.4619 0.0
O386 O 0.90733 0.9088 0.41235 0.0
O387 O 0.89827 0.93737 0.40375 0.0
H388 H 0.95157 0.9524 0.43904 0.0
H389 H 0.97889 0.97034 0.45087 0.0
H390 H 0.95615 0.97367 0.51659 0.0
H391 H 0.92961 0.95526 0.50485 0.0
H392 H 0.82184 0.91852 0.51215 0.0
H393 H 0.85301 0.92308 0.49678 0.0
H394 H 0.80095 0.90735 0.44672 0.0
H395 H 0.83214 0.91115 0.43198 0.0
H396 H 0.87732 0.89483 0.33527 0.0
H397 H 0.92961 0.92349 0.32711 0.0
H398 H 0.93034 0.9301 0.36633 0.0
H399 H 0.87832 0.9014 0.3751 0.0
C400 C 0.56513 0.93706 0.97301 0.0
C401 C 0.56297 0.95277 0.95935 0.0
C402 C 0.5441 0.96834 0.98764 0.0
C403 C 0.5525 0.96834 0.96667 0.0
C404 C 0.54684 0.95286 1.00131 0.0
C405 C 0.55725 0.93751 0.99411 0.0
U406 U 0.59045 0.8974 0.93692 0.0
O407 O 0.61128 0.87733 0.94988 0.0
O408 O 0.58372 0.86755 0.9394 0.0
C409 C 0.60025 0.86295 0.94692 0.0
C410 C 0.57442 0.91938 0.96624 0.0
C411 C 0.60181 0.84644 0.96155 0.0
C412 C 0.59277 0.82796 0.99344 0.0
C413 C 0.59255 0.84495 0.98181 0.0
C414 C 0.6121 0.81407 0.96526 0.0
C415 C 0.60228 0.81222 0.98508 0.0
C416 C 0.61178 0.83094 0.95364 0.0
C417 C 0.60105 0.90853 0.87326 0.0
C418 C 0.60969 0.89222 0.83945 0.0
C419 C 0.60372 0.92542 0.83884 0.0
C420 C 0.60016 0.92514 0.86133 0.0
C421 C 0.60863 0.90905 0.82744 0.0
C422 C 0.60588 0.89194 0.86225 0.0
C423 C 0.59545 0.90963 0.89663 0.0
O424 O 0.5652 0.90786 0.9535 0.0
O425 O 0.59248 0.91913 0.96274 0.0
O426 O 0.6082 0.91113 0.91202 0.0
O427 O 0.58032 0.90096 0.90299 0.0
H428 H 0.56887 0.95282 0.94296 0.0
H429 H 0.55039 0.98004 0.9557 0.0
H430 H 0.54038 0.95237 0.01739 0.0
H431 H 0.55869 0.9256 1.00494 0.0
H432 H 0.58511 0.82697 1.00873 0.0
H433 H 0.5847 0.85665 0.98827 0.0
H434 H 0.61934 0.80222 0.9582 0.0
H435 H 0.61889 0.83169 0.93795 0.0
H436 H 0.61353 0.87933 0.8313 0.0
H437 H 0.60219 0.93857 0.83031 0.0
H438 H 0.59623 0.93805 0.8694 0.0
H439 H 0.60654 0.87887 0.87114 0.0
C440 C 0.57787 0.56623 0.46941 0.0
C441 C 0.56055 0.56406 0.45906 0.0
C442 C 0.5495 0.54458 0.48938 0.0
C443 C 0.54646 0.55338 0.46896 0.0
C444 C 0.56662 0.54764 0.50006 0.0
C445 C 0.58064 0.55824 0.49015 0.0
U446 U 0.62097 0.59156 0.43717 0.0
O447 O 0.63916 0.60997 0.45711 0.0
O448 O 0.64896 0.58193 0.44699 0.0
C449 C 0.65232 0.5972 0.45819 0.0
C450 C 0.59354 0.57535 0.45794 0.0
C451 C 0.67135 0.60149 0.466 0.0
C452 C 0.6936 0.60109 0.49625 0.0
C453 C 0.67555 0.59843 0.4882 0.0
C454 C 0.70371 0.61015 0.4599 0.0
C455 C 0.70811 0.60684 0.48224 0.0
C456 C 0.68554 0.6075 0.45187 0.0
C457 C 0.61482 0.60382 0.37207 0.0
C458 C 0.6266 0.61528 0.33706 0.0
C459 C 0.59636 0.60068 0.33891 0.0
C460 C 0.59852 0.59811 0.36158 0.0
C461 C 0.61035 0.60933 0.32616 0.0
C462 C 0.62881 0.61245 0.35972 0.0
C463 C 0.61799 0.59988 0.39552 0.0
O464 O 0.60653 0.56582 0.44765 0.0
O465 O 0.59528 0.59358 0.45717 0.0
O466 O 0.61329 0.61173 0.41109 0.0
O467 O 0.62364 0.58341 0.40227 0.0
H468 H 0.55815 0.57007 0.44296 0.0
H469 H 0.53354 0.55134 0.46016 0.0
H470 H 0.56937 0.5415 0.516 0.0
H471 H 0.59386 0.55978 0.49849 0.0
H472 H 0.69605 0.59875 0.51358 0.0
H473 H 0.66481 0.59375 0.49941 0.0
H474 H 0.71438 0.61431 0.44838 0.0
H475 H 0.68267 0.60983 0.43461 0.0
H476 H 0.63764 0.62225 0.32826 0.0
H477 H 0.58385 0.59528 0.33145 0.0
H478 H 0.58762 0.59124 0.3708 0.0
H479 H 0.64157 0.61688 0.3676 0.0
C480 C 0.95076 0.94118 0.0557 0.0
C481 C 0.95852 0.95595 0.0676 0.0
C482 C 0.97201 0.96908 0.03417 0.0
C483 C 0.969 0.96972 0.05705 0.0
C484 C 0.96338 0.95462 0.02214 0.0
C485 C 0.95297 0.94074 0.03279 0.0
U486 U 0.92585 0.8964 0.08479 0.0
O487 O 0.9089 0.87908 0.06237 0.0
O488 O 0.93707 0.86988 0.07212 0.0
C489 C 0.92227 0.86666 0.06006 0.0
C490 C 0.94166 0.92597 0.06802 0.0
C491 C 0.91791 0.84734 0.0537 0.0
C492 C 0.92061 0.82356 0.02538 0.0
C493 C 0.92286 0.84191 0.0324 0.0
C494 C 0.9074 0.81568 0.06074 0.0
C495 C 0.91296 0.80999 0.03941 0.0
C496 C 0.91002 0.83416 0.06791 0.0
C497 C 0.91278 0.90075 0.14927 0.0
C498 C 0.9016 0.8918 0.18551 0.0
C499 C 0.91852 0.92056 0.18097 0.0
C500 C 0.92008 0.9171 0.15828 0.0
C501 C 0.90941 0.90784 0.19525 0.0
C502 C 0.90345 0.88829 0.16302 0.0
C503 C 0.91562 0.89508 0.12618 0.0
O504 O 0.95126 0.91275 0.0778 0.0
O505 O 0.92364 0.92305 0.0667 0.0
O506 O 0.90457 0.9013 0.11057 0.0
O507 O 0.93249 0.8908 0.11949 0.0
H508 H 0.95697 0.95653 0.08531 0.0
H509 H 0.97539 0.98039 0.06709 0.0
H510 H 0.96482 0.95383 1.00444 0.0
H511 H 0.94703 0.92951 0.02321 0.0
H512 H 0.92557 0.82005 1.00911 0.0
H513 H 0.92907 0.85188 0.02121 0.0
H514 H 0.90105 0.80593 0.07201 0.0
H515 H 0.90604 0.83807 0.08447 0.0
H516 H 0.89389 0.88169 0.19489 0.0
H517 H 0.92516 0.933 0.18701 0.0
H518 H 0.92746 0.92691 0.14796 0.0
H519 H 0.8977 0.87554 0.15635 0.0
C520 C 0.57898 0.95232 0.55182 0.0
C521 C 0.56337 0.9574 0.5644 0.0
C522 C 0.55019 0.97397 0.53277 0.0
C523 C 0.54899 0.9681 0.55488 0.0
C524 C 0.56548 0.96789 0.52019 0.0
C525 C 0.57968 0.95733 0.52963 0.0
U526 U 0.62076 0.92688 0.58559 0.0
O527 O 0.63991 0.90826 0.56713 0.0
O528 O 0.64948 0.93604 0.57867 0.0
C529 C 0.65332 0.92067 0.56778 0.0
C530 C 0.59552 0.94308 0.56115 0.0
C531 C 0.67193 0.91713 0.55835 0.0
C532 C 0.6928 0.91606 0.52669 0.0
C533 C 0.67474 0.91733 0.53547 0.0
C534 C 0.70528 0.91366 0.56352 0.0
C535 C 0.70835 0.91462 0.54067 0.0
C536 C 0.68731 0.91502 0.57224 0.0
C537 C 0.61354 0.91422 0.65016 0.0
C538 C 0.62946 0.90439 0.68357 0.0
C539 C 0.59684 0.91288 0.68493 0.0
C540 C 0.59714 0.91652 0.66236 0.0
C541 C 0.61299 0.90691 0.69575 0.0
C542 C 0.62974 0.90801 0.66083 0.0
C543 C 0.61315 0.9196 0.62678 0.0
O544 O 0.60728 0.95248 0.57335 0.0
O545 O 0.5967 0.92485 0.56291 0.0
O546 O 0.61086 0.90718 0.61108 0.0
O547 O 0.62066 0.93537 0.62042 0.0
H548 H 0.56257 0.95362 0.58161 0.0
H549 H 0.53744 0.97246 0.56511 0.0
H550 H 0.56671 0.97156 0.50299 0.0
H551 H 0.59157 0.95345 0.51962 0.0
H552 H 0.69465 0.91701 0.50904 0.0
H553 H 0.66304 0.91913 0.52444 0.0
H554 H 0.71689 0.91229 0.57476 0.0
H555 H 0.68546 0.91482 0.58992 0.0
H556 H 0.64206 0.89974 0.69167 0.0
H557 H 0.58403 0.91496 0.694 0.0
H558 H 0.58454 0.92143 0.65445 0.0
H559 H 0.64257 0.90623 0.65171 0.0
C560 C 0.56589 0.58011 0.05066 0.0
C561 C 0.56371 0.5639 0.0634 0.0
C562 C 0.54438 0.55005 0.03457 0.0
C563 C 0.55305 0.54889 0.05531 0.0
C564 C 0.54713 0.56604 0.02179 0.0
C565 C 0.55782 0.58081 0.0297 0.0
U566 U 0.59087 0.62233 0.08389 0.0
O567 O 0.60996 0.64182 0.06686 0.0
O568 O 0.58162 0.65113 0.07667 0.0
C569 C 0.59757 0.65536 0.06741 0.0
C570 C 0.57501 0.59731 0.05862 0.0
C571 C 0.60069 0.67365 0.05682 0.0
C572 C 0.59598 0.69555 0.02663 0.0
C573 C 0.59354 0.67775 0.03586 0.0
C574 C 0.61306 0.7052 0.05893 0.0
C575 C 0.60572 0.70947 0.03812 0.0
C576 C 0.61049 0.6875 0.06821 0.0
C577 C 0.60293 0.6152 0.14864 0.0
C578 C 0.61837 0.62904 0.18033 0.0
C579 C 0.59978 0.60124 0.18487 0.0
C580 C 0.59593 0.60122 0.16238 0.0
C581 C 0.61093 0.61519 0.19415 0.0
C582 C 0.61432 0.62912 0.15767 0.0
C583 C 0.59758 0.61451 0.12522 0.0
O584 O 0.56555 0.60922 0.07068 0.0
O585 O 0.59316 0.59822 0.06115 0.0
O586 O 0.6102 0.6125 0.10973 0.0
O587 O 0.58175 0.6218 0.11859 0.0
H588 H 0.56973 0.56307 0.0797 0.0
H589 H 0.55092 0.53675 0.06558 0.0
H590 H 0.54048 0.56737 1.00588 0.0
H591 H 0.55924 0.59319 0.01964 0.0
H592 H 0.59033 0.69843 1.01047 0.0
H593 H 0.58596 0.66726 0.02674 0.0
H594 H 0.62058 0.71566 0.06817 0.0
H595 H 0.61604 0.68466 0.08443 0.0
H596 H 0.62697 0.63998 0.18713 0.0
H597 H 0.59403 0.59029 0.19505 0.0
H598 H 0.58723 0.59029 0.1557 0.0
H599 H 0.61989 0.64005 0.14734 0.0
C600 C 0.93978 0.56603 0.55257 0.0
C601 C 0.95735 0.56453 0.56253 0.0
C602 C 0.9682 0.54437 0.53271 0.0
C603 C 0.97149 0.55382 0.55264 0.0
C604 C 0.95082 0.54672 0.5224 0.0
C605 C 0.93676 0.55736 0.53227 0.0
U606 U 0.89673 0.59181 0.5845 0.0
O607 O 0.87873 0.61032 0.56413 0.0
O608 O 0.86886 0.58248 0.57462 0.0
C609 C 0.8656 0.59762 0.56308 0.0
C610 C 0.92417 0.5753 0.56396 0.0
C611 C 0.84647 0.60183 0.5555 0.0
C612 C 0.82457 0.60359 0.52486 0.0
C613 C 0.84285 0.6021 0.5328 0.0
C614 C 0.81324 0.6052 0.56227 0.0
C615 C 0.80949 0.60475 0.53951 0.0
C616 C 0.83155 0.6037 0.5702 0.0
C617 C 0.90262 0.60443 0.64955 0.0
C618 C 0.88917 0.61309 0.68486 0.0
C619 C 0.92179 0.60491 0.68237 0.0
C620 C 0.91989 0.60206 0.65975 0.0
C621 C 0.90648 0.61049 0.69535 0.0
C622 C 0.88725 0.60998 0.66219 0.0
C623 C 0.90052 0.59987 0.6261 0.0
O624 O 0.91111 0.5659 0.57415 0.0
O625 O 0.92249 0.59354 0.56468 0.0
O626 O 0.90491 0.61177 0.61049 0.0
O627 O 0.89384 0.58382 0.61944 0.0
H628 H 0.95993 0.57108 0.57829 0.0
H629 H 0.98467 0.55225 0.56108 0.0
H630 H 0.94791 0.53993 0.50687 0.0
H631 H 0.92333 0.55842 0.52429 0.0
H632 H 0.8222 0.60298 0.50729 0.0
H633 H 0.85415 0.60044 0.52116 0.0
H634 H 0.80193 0.60621 0.57399 0.0
H635 H 0.83397 0.60347 0.58778 0.0
H636 H 0.87709 0.61763 0.69408 0.0
H637 H 0.93526 0.60225 0.6897 0.0
H638 H 0.93186 0.59754 0.65029 0.0
H639 H 0.87375 0.61181 0.65456 0.0
H640 H 0.12167 0.38846 0.22744 0.0
H641 H 0.08357 0.43462 0.21898 0.0
H642 H 0.08436 0.44088 0.25811 0.0
H643 H 0.09566 0.43377 0.29468 0.0
H644 H 0.13273 0.38712 0.30476 0.0
H645 H 0.13268 0.3808 0.26518 0.0
C646 C 0.11346 0.39982 0.23419 0.0
C647 C 0.1028 0.41123 0.22003 0.0
C648 C 0.11381 0.40336 0.25705 0.0
C649 C 0.09232 0.42589 0.2292 0.0
C650 C 0.09262 0.42943 0.2517 0.0
C651 C 0.10357 0.42201 0.2884 0.0
C652 C 0.11407 0.41088 0.3029 0.0
C653 C 0.10331 0.41832 0.26575 0.0
C654 C 0.12462 0.39608 0.29409 0.0
C655 C 0.12449 0.39236 0.27142 0.0
H656 H 0.08581 0.10573 0.72421 0.0
H657 H 0.14563 0.11108 0.71965 0.0
H658 H 0.14718 0.11661 0.75901 0.0
H659 H 0.13178 0.1179 0.79568 0.0
H660 H 0.07273 0.1083 0.79961 0.0
H661 H 0.07096 0.10541 0.75974 0.0
C662 C 0.0994 0.1075 0.73152 0.0
C663 C 0.11557 0.10765 0.71831 0.0
C664 C 0.10042 0.10968 0.75441 0.0
C665 C 0.13274 0.1111 0.72879 0.0
C666 C 0.13374 0.11406 0.75156 0.0
C667 C 0.11856 0.11529 0.78768 0.0
C668 C 0.10237 0.11332 0.80047 0.0
C669 C 0.11769 0.11315 0.76462 0.0
C670 C 0.08535 0.10979 0.79004 0.0
C671 C 0.08434 0.10816 0.76726 0.0
H672 H 0.38999 0.12711 0.29396 0.0
H673 H 0.42688 0.07988 0.30125 0.0
H674 H 0.43274 0.07963 0.26197 0.0
H675 H 0.42834 0.09292 0.22582 0.0
H676 H 0.3906 0.13925 0.21682 0.0
H677 H 0.38463 0.13999 0.25641 0.0
C678 C 0.39923 0.11672 0.28689 0.0
C679 C 0.40823 0.10371 0.3007 0.0
C680 C 0.40259 0.11657 0.26398 0.0
C681 C 0.42011 0.09035 0.29119 0.0
C682 C 0.42341 0.09011 0.26865 0.0
C683 C 0.41848 0.10302 0.23225 0.0
C684 C 0.40986 0.1159 0.21802 0.0
C685 C 0.41485 0.10318 0.25492 0.0
C686 C 0.39767 0.12923 0.2272 0.0
C687 C 0.39411 0.12958 0.2499 0.0
H688 H 0.38532 0.40808 0.79791 0.0
H689 H 0.44492 0.4021 0.79988 0.0
H690 H 0.44642 0.40414 0.7598 0.0
H691 H 0.43106 0.40797 0.72445 0.0
H692 H 0.37151 0.41618 0.72199 0.0
H693 H 0.36972 0.41209 0.76169 0.0
C694 C 0.39856 0.40702 0.78943 0.0
C695 C 0.41501 0.40473 0.80169 0.0
C696 C 0.39935 0.40846 0.76627 0.0
C697 C 0.43211 0.40369 0.79068 0.0
C698 C 0.43297 0.4049 0.76779 0.0
C699 C 0.41763 0.40921 0.73242 0.0
C700 C 0.40147 0.41256 0.7198 0.0
C701 C 0.4167 0.40743 0.75542 0.0
C702 C 0.38425 0.41335 0.73087 0.0
C703 C 0.38319 0.41121 0.75375 0.0
H704 H 0.93098 0.62278 0.79452 0.0
H705 H 0.87494 0.6045 0.80634 0.0
H706 H 0.86944 0.60209 0.7666 0.0
H707 H 0.88113 0.604 0.72857 0.0
H708 H 0.93702 0.62383 0.71718 0.0
H709 H 0.94203 0.62644 0.7565 0.0
C710 C 0.91752 0.61847 0.78828 0.0
C711 C 0.90329 0.61401 0.80313 0.0
C712 C 0.9145 0.61713 0.76549 0.0
C713 C 0.88599 0.6082 0.79506 0.0
C714 C 0.88289 0.60676 0.77239 0.0
C715 C 0.89433 0.6092 0.73456 0.0
C716 C 0.90875 0.61338 0.7196 0.0
C717 C 0.8971 0.61109 0.75741 0.0
C718 C 0.92577 0.61991 0.72805 0.0
C719 C 0.92866 0.6216 0.75064 0.0
H720 H 0.90005 0.88274 0.22887 0.0
H721 H 0.91626 0.94039 0.21907 0.0
H722 H 0.91684 0.94494 0.25814 0.0
H723 H 0.91214 0.93346 0.29549 0.0
H724 H 0.89305 0.8772 0.30562 0.0
H725 H 0.89315 0.8719 0.26588 0.0
C726 C 0.90334 0.89656 0.23471 0.0
C727 C 0.90844 0.91099 0.21991 0.0
C728 C 0.90284 0.89958 0.25761 0.0
C729 C 0.91292 0.92849 0.22912 0.0
C730 C 0.91303 0.93134 0.25184 0.0
C731 C 0.90812 0.91996 0.28907 0.0
C732 C 0.90272 0.90571 0.30364 0.0
C733 C 0.90806 0.91702 0.26622 0.0
C734 C 0.89715 0.88848 0.29487 0.0
C735 C 0.89731 0.88541 0.27211 0.0
H736 H 0.62496 0.92993 0.72799 0.0
H737 H 0.5992 0.87671 0.717 0.0
H738 H 0.59638 0.87187 0.75683 0.0
H739 H 0.59991 0.88364 0.79488 0.0
H740 H 0.62614 0.93701 0.80517 0.0
H741 H 0.62972 0.941 0.7658 0.0
C742 C 0.61891 0.91721 0.73441 0.0
C743 C 0.61246 0.90358 0.71976 0.0
C744 C 0.61714 0.91466 0.75726 0.0
C745 C 0.60439 0.88729 0.72812 0.0
C746 C 0.60274 0.88456 0.75085 0.0
C747 C 0.60669 0.896 0.78857 0.0
C748 C 0.61245 0.9101 0.80323 0.0
C749 C 0.60893 0.89824 0.76564 0.0
C750 C 0.62107 0.92608 0.79448 0.0
C751 C 0.62327 0.92838 0.77186 0.0
H752 H 0.63728 0.61164 0.29335 0.0
H753 H 0.57764 0.61345 0.30319 0.0
H754 H 0.57287 0.61413 0.26393 0.0
H755 H 0.58509 0.61415 0.22644 0.0
H756 H 0.64425 0.61647 0.21583 0.0
H757 H 0.64961 0.61497 0.25567 0.0
C758 C 0.62319 0.61254 0.28714 0.0
C759 C 0.60787 0.61181 0.30177 0.0
C760 C 0.62037 0.61383 0.26421 0.0
C761 C 0.58983 0.613 0.29279 0.0
C762 C 0.58699 0.61367 0.27014 0.0
C763 C 0.59917 0.61435 0.23288 0.0
C764 C 0.61427 0.6153 0.21826 0.0
C765 C 0.6021 0.61392 0.2557 0.0
C766 C 0.63241 0.61581 0.2268 0.0
C767 C 0.63545 0.61489 0.24956 0.0
H768 H 0.1181 0.29428 1.00433 0.0
H769 H 0.08086 0.28146 0.05776 0.0
H770 H 0.07795 0.24951 0.04459 0.0
H771 H 0.08451 0.22584 0.01712 0.0
H772 H 0.12455 0.23705 0.96574 0.0
H773 H 0.12728 0.26902 0.97856 0.0
C774 C 0.10943 0.28442 0.01309 0.0
C775 C 0.09968 0.29021 0.032 0.0
C776 C 0.10805 0.26584 1.00564 0.0
C777 C 0.08861 0.27729 0.04328 0.0
C778 C 0.08687 0.25903 0.0357 0.0
C779 C 0.09426 0.23493 1.00886 0.0
C780 C 0.10408 0.22867 0.99013 0.0
C781 C 0.09641 0.25318 0.01681 0.0
C782 C 0.11624 0.24128 0.97972 0.0
C783 C 0.11802 0.25966 0.9872 0.0
H784 H 0.295 0.1011 0.52343 0.0
H785 H 0.27628 0.10628 0.4562 0.0
H786 H 0.24417 0.10774 0.46871 0.0
H787 H 0.22083 0.10574 0.49868 0.0
H788 H 0.24014 0.09882 0.56541 0.0
H789 H 0.27218 0.09939 0.55295 0.0
C790 C 0.284 0.10228 0.51132 0.0
C791 C 0.28843 0.10341 0.48875 0.0
C792 C 0.26538 0.10263 0.51853 0.0
C793 C 0.27366 0.10562 0.4737 0.0
C794 C 0.25512 0.10625 0.48083 0.0
C795 C 0.23204 0.10428 0.51048 0.0
C796 C 0.22786 0.10237 0.53305 0.0
C797 C 0.25074 0.10446 0.50319 0.0
C798 C 0.24273 0.10068 0.54801 0.0
C799 C 0.26118 0.10088 0.54089 0.0
H800 H 0.44211 0.28672 1.0006 0.0
H801 H 0.38343 0.28989 0.98636 0.0
H802 H 0.37898 0.25881 1.00201 0.0
H803 H 0.39192 0.23045 0.02031 0.0
H804 H 0.45089 0.22745 0.03264 0.0
H805 H 0.45491 0.25872 0.01771 0.0
C806 C 0.42828 0.28075 1.00111 0.0
C807 C 0.41315 0.29083 0.99242 0.0
C808 C 0.42583 0.26279 1.00993 0.0
C809 C 0.39542 0.28251 0.99278 0.0
C810 C 0.39283 0.26472 1.00185 0.0
C811 C 0.40563 0.23667 0.01962 0.0
C812 C 0.42116 0.22655 0.02742 0.0
C813 C 0.40795 0.25468 1.01052 0.0
C814 C 0.4388 0.23482 0.02647 0.0
C815 C 0.4411 0.25275 0.01801 0.0
H816 H 0.2746 0.42096 0.55273 0.0
H817 H 0.30592 0.41429 0.4926 0.0
H818 H 0.27707 0.41366 0.47161 0.0
H819 H 0.24301 0.41644 0.4699 0.0
H820 H 0.21166 0.42064 0.53038 0.0
H821 H 0.24046 0.42077 0.5513 0.0
C822 C 0.27527 0.41907 0.53507 0.0
C823 C 0.29276 0.41796 0.52443 0.0
C824 C 0.25851 0.41844 0.52296 0.0
C825 C 0.29292 0.41572 0.50142 0.0
C826 C 0.27632 0.41519 0.48932 0.0
C827 C 0.24227 0.41706 0.48767 0.0
C828 C 0.2248 0.41886 0.49828 0.0
C829 C 0.25902 0.41678 0.49986 0.0
C830 C 0.22465 0.41985 0.52142 0.0
C831 C 0.24122 0.41973 0.53355 0.0
H832 H 0.9088 0.79629 0.99722 0.0
H833 H 0.91424 0.77803 0.06468 0.0
H834 H 0.91313 0.74577 0.05269 0.0
H835 H 0.91172 0.7225 0.02316 0.0
H836 H 0.9106 0.74128 0.95558 0.0
H837 H 0.90905 0.7733 0.9678 0.0
C838 C 0.91011 0.78542 1.00948 0.0
C839 C 0.91162 0.79003 0.032 0.0
C840 C 0.91023 0.76673 1.00247 0.0
C841 C 0.91264 0.77531 0.0473 0.0
C842 C 0.91224 0.75669 0.04043 0.0
C843 C 0.91138 0.73349 0.01096 0.0
C844 C 0.91106 0.72902 0.98834 0.0
C845 C 0.91122 0.75221 0.01804 0.0
C846 C 0.91027 0.74383 0.9731 0.0
C847 C 0.90962 0.76236 0.98006 0.0
H848 H 0.72377 0.89637 0.50504 0.0
H849 H 0.73665 0.93557 0.55661 0.0
H850 H 0.76838 0.93823 0.54307 0.0
H851 H 0.79236 0.93036 0.51616 0.0
H852 H 0.78051 0.88956 0.46583 0.0
H853 H 0.74867 0.88712 0.47896 0.0
C854 C 0.73353 0.90552 0.51327 0.0
C855 C 0.72775 0.9157 0.53193 0.0
C856 C 0.75201 0.90691 0.50549 0.0
C857 C 0.74069 0.92735 0.54243 0.0
C858 C 0.75888 0.92898 0.53462 0.0
C859 C 0.78303 0.92065 0.50817 0.0
C860 C 0.78914 0.91035 0.48974 0.0
C861 C 0.76471 0.91887 0.51615 0.0
C862 C 0.77638 0.89814 0.47964 0.0
C863 C 0.75807 0.89656 0.48728 0.0
H864 H 0.57898 0.73444 0.0262 0.0
H865 H 0.63837 0.72693 0.02867 0.0
H866 H 0.6429 0.75774 0.01205 0.0
H867 H 0.62976 0.78705 0.9965 0.0
H868 H 0.57031 0.79517 0.99712 0.0
H869 H 0.56604 0.76417 0.01279 0.0
C870 C 0.5929 0.73959 0.02305 0.0
C871 C 0.60832 0.72836 0.02843 0.0
C872 C 0.59539 0.75753 0.01407 0.0
C873 C 0.62629 0.73531 0.02461 0.0
C874 C 0.62886 0.75292 0.01508 0.0
C875 C 0.61589 0.78202 1.00016 0.0
C876 C 0.60035 0.79352 0.99571 0.0
C877 C 0.61351 0.7642 1.0097 0.0
C878 C 0.58251 0.78677 1.00062 0.0
C879 C 0.58004 0.76897 1.00949 0.0
H880 H 0.72569 0.5874 0.51544 0.0
H881 H 0.73501 0.63171 0.46871 0.0
H882 H 0.76696 0.6347 0.48153 0.0
H883 H 0.79271 0.62472 0.50613 0.0
H884 H 0.78224 0.58199 0.55435 0.0
H885 H 0.75039 0.57884 0.54115 0.0
C886 C 0.73448 0.59798 0.50818 0.0
C887 C 0.72765 0.60916 0.49082 0.0
C888 C 0.75283 0.60001 0.516 0.0
C889 C 0.73973 0.62249 0.48165 0.0
C890 C 0.75808 0.62437 0.48913 0.0
C891 C 0.78342 0.61475 0.51375 0.0
C892 C 0.7899 0.60366 0.53134 0.0
C893 C 0.76487 0.61313 0.50623 0.0
C894 C 0.77761 0.59088 0.54102 0.0
C895 C 0.75938 0.58899 0.53339 0.0
H896 H 1.0054 0.54672 1.00447 0.0
H897 H 0.95961 0.51127 0.98595 0.0
H898 H 0.97635 0.48413 1.00006 0.0
H899 H 1.00387 0.47041 0.0181 0.0
H900 H 0.04898 0.5061 0.03788 0.0
H901 H 0.03248 0.53321 0.0231 0.0
C902 C 0.99894 0.53311 1.00368 0.0
C903 C 0.98122 0.53112 0.99402 0.0
C904 C 1.00851 0.51757 0.01212 0.0
C905 C 0.97332 0.51324 0.9929 0.0
C906 C 0.98284 0.4977 1.00114 0.0
C907 C 0.01008 0.48414 0.01913 0.0
C908 C 0.0276 0.48628 0.02916 0.0
C909 C 1.00044 0.49969 1.01077 0.0
C910 C 0.03542 0.50414 0.03049 0.0
C911 C 0.02603 0.51962 0.02195 0.0
H912 H 0.03147 0.03575 0.4987 0.0
H913 H 0.03377 0.01043 0.56307 0.0
H914 H 0.00931 0.98884 0.55256 0.0
H915 H 0.9879 0.97613 0.52475 0.0
H916 H 0.98608 1.00125 0.46026 0.0
H917 H 0.01019 0.02312 0.47101 0.0
C918 C 0.02686 0.02543 0.51048 0.0
C919 C 0.03469 0.02499 0.53181 0.0
C920 C 0.01297 0.01264 0.50419 0.0
C921 C 0.02796 0.01159 0.54672 0.0
C922 C 0.01402 0.999 0.54063 0.0
C923 C 0.99264 0.98644 0.51301 0.0
C924 C 0.9851 0.98674 0.49153 0.0
C925 C 1.00648 0.99929 0.51937 0.0
C926 C 0.99176 1.00021 0.47669 0.0
C927 C 1.00549 0.01294 0.48291 0.0
H928 H 0.47529 0.01898 0.01533 0.0
H929 H 0.51917 0.05419 0.03935 0.0
H930 H 0.54258 0.03212 0.02568 0.0
H931 H 0.55075 1.00233 1.00709 0.0
H932 H 0.50678 0.96656 0.9845 0.0
H933 H 0.48342 0.98896 0.99745 0.0
C934 C 0.48999 0.0217 0.01768 0.0
C935 C 0.49552 0.03811 0.02855 0.0
C936 C 0.50342 1.00879 1.00994 0.0
C937 C 0.51459 0.04154 0.0313 0.0
C938 C 0.52798 0.02895 0.02338 0.0
C939 C 0.53605 0.99961 1.00481 0.0
C940 C 0.53046 0.98298 0.99444 0.0
C941 C 0.52261 0.01249 0.01267 0.0
C942 C 0.51138 0.97941 0.99208 0.0
C943 C 0.49802 0.99218 0.99959 0.0
H944 H 0.51113 0.54736 0.49078 0.0
H945 H 0.55662 0.51124 0.50923 0.0
H946 H 0.5349 0.48923 0.52545 0.0
H947 H 0.50268 0.47972 0.5345 0.0
H948 H 0.4572 0.51529 0.51499 0.0
H949 H 0.479 0.53773 0.49939 0.0
C950 C 0.51631 0.53465 0.49827 0.0
C951 C 0.53565 0.53122 0.49896 0.0
C952 C 0.50365 0.52182 0.50759 0.0
C953 C 0.54193 0.5146 0.50883 0.0
C954 C 0.52946 0.50186 0.51805 0.0
C955 C 0.49759 0.49246 0.52698 0.0
C956 C 0.47829 0.49584 0.52603 0.0
C957 C 0.51027 0.5053 0.51766 0.0
C958 C 0.47197 0.51232 0.51594 0.0
C959 C 0.48444 0.52519 0.50698 0.0
H960 H 0.0299 0.01548 0.97732 0.0
H961 H 0.01421 0.05842 0.02358 0.0
H962 H 0.99331 0.03687 0.04201 0.0
H963 H 0.97861 1.00607 0.04458 0.0
H964 H 0.99506 0.96286 0.99893 0.0
H965 H 0.01576 0.98444 0.9805 0.0
C966 C 0.02184 0.02021 0.99135 0.0
C967 C 0.02385 0.03865 0.99902 0.0
C968 C 0.00964 1.00772 1.00193 0.0
C969 C 0.01336 0.04428 0.01744 0.0
C970 C 1.00121 0.03197 0.02795 0.0
C971 C 0.98682 1.00121 0.03075 0.0
C972 C 0.98482 0.98271 0.02311 0.0
C973 C 0.99918 0.01365 0.02034 0.0
C974 C 0.99564 0.97703 1.00496 0.0
C975 C 1.00775 0.98937 0.99445 0.0
H976 H 0.50366 0.03544 0.48154 0.0
H977 H 0.45862 1.00973 0.51707 0.0
H978 H 0.48036 0.98813 0.53441 0.0
H979 H 0.51221 0.97594 0.53912 0.0
H980 H 0.55727 1.00254 0.50438 0.0
H981 H 0.53552 0.02384 0.48699 0.0
C982 C 0.49859 0.02505 0.493 0.0
C983 C 0.4795 0.02433 0.49802 0.0
C984 C 0.51119 0.0126 0.50302 0.0
C985 C 0.47326 0.01086 0.51312 0.0
C986 C 0.48569 0.99838 0.52298 0.0
C987 C 0.51732 0.98648 0.5279 0.0
C988 C 0.53644 0.98727 0.5229 0.0
C989 C 0.50471 0.99908 0.51807 0.0
C990 C 0.54264 1.00108 0.50818 0.0
C991 C 0.5302 0.01348 0.49829 0.0
H992 H 0.55063 0.51557 0.01635 0.0
H993 H 0.5071 0.55367 0.03539 0.0
H994 H 0.48351 0.53206 0.02167 0.0
H995 H 0.47509 0.50217 1.00395 0.0
H996 H 0.51859 0.4646 0.98349 0.0
H997 H 0.54221 0.48588 0.99798 0.0
C998 C 0.53596 0.51898 0.01765 0.0
C999 C 0.53054 0.53603 0.02718 0.0
C1000 C 0.52243 0.50658 1.00932 0.0
C1001 C 0.51153 0.5405 0.02836 0.0
C1002 C 0.49806 0.52818 0.02044 0.0
C1003 C 0.48976 0.49877 1.00259 0.0
C1004 C 0.49517 0.48196 0.99249 0.0
C1005 C 0.5033 0.51119 1.01082 0.0
C1006 C 0.51417 0.47759 0.99098 0.0
C1007 C 0.52766 0.48972 0.99934 0.0
H1008 H 1.00604 0.5486 0.5277 0.0
H1009 H 0.96146 0.50956 0.51717 0.0
H1010 H 0.98324 0.48714 0.50138 0.0
H1011 H 0.01524 0.47824 0.49044 0.0
H1012 H 0.05987 0.51697 0.50152 0.0
H1013 H 0.03799 0.53971 0.51685 0.0
C1014 C 1.00112 0.53516 0.52199 0.0
C1015 C 0.98204 0.53091 0.52343 0.0
C1016 C 0.01378 0.52221 0.51281 0.0
C1017 C 0.97597 0.5134 0.51591 0.0
C1018 C 0.98846 0.50048 0.50694 0.0
C1019 C 0.02008 0.49173 0.49604 0.0
C1020 C 0.03912 0.49601 0.49468 0.0
C1021 C 1.0074 0.50472 0.50517 0.0
C1022 C 0.04525 0.51342 0.50232 0.0
C1023 C 0.03275 0.52642 0.51115 0.0
loop_
_geom_bond_atom_site_label_1
_geom_bond_atom_site_label_2
_geom_bond_distance
_geom_bond_site_symmetry_2
_ccdc_geom_bond_type
C0 C1 1.264 . S
C0 C5 1.479 . S
C0 C10 1.465 . S
C1 C0 1.264 . S
C1 C3 1.339 . S
C1 H28 0.931 . S
C2 C3 1.395 . S
C2 C4 1.320 . S
C3 C1 1.339 . S
C3 C2 1.395 . S
C3 H29 0.929 . S
C4 C2 1.320 . S
C4 C5 1.405 . S
C4 H30 0.930 1_554 S
C5 C0 1.479 . S
C5 C4 1.405 . S
C5 H31 0.931 . S
U6 O7 2.454 . S
U6 O8 2.458 . S
U6 C9 2.984 . S
U6 C10 2.847 . S
U6 C23 2.882 . S
U6 O24 2.441 . S
U6 O25 2.420 . S
U6 O26 2.455 . S
U6 O27 2.449 . S
O7 U6 2.454 . S
O7 C9 1.353 . S
O8 U6 2.458 . S
O8 C9 1.286 . S
C9 U6 2.984 . S
C9 O7 1.353 . S
C9 O8 1.286 . S
C9 C11 1.363 . S
C10 C0 1.465 . S
C10 U6 2.847 . S
C10 O24 1.249 . S
C10 O25 1.202 . S
C11 C9 1.363 . S
C11 C13 1.408 . S
C11 C16 1.342 . S
C12 C13 1.310 . S
C12 C15 1.461 . S
C12 H32 0.932 1_554 S
C13 C11 1.408 . S
C13 C12 1.310 . S
C13 H33 0.930 . S
C14 C15 1.474 . S
C14 C16 1.285 . S
C14 H34 0.929 . S
C15 C12 1.461 . S
C15 C14 1.474 . S
C16 C11 1.342 . S
C16 C14 1.285 . S
C16 H35 0.930 . S
C17 C20 1.424 . S
C17 C22 1.245 . S
C17 C23 1.428 . S
C18 C21 1.260 . S
C18 C22 1.477 . S
C18 H36 0.932 . S
C19 C20 1.384 . S
C19 C21 1.479 . S
C19 H37 0.929 . S
C20 C17 1.424 . S
C20 C19 1.384 . S
C20 H38 0.928 . S
C21 C18 1.260 . S
C21 C19 1.479 . S
C22 C17 1.245 . S
C22 C18 1.477 . S
C22 H39 0.932 . S
C23 U6 2.882 . S
C23 C17 1.428 . S
C23 O26 1.301 . S
C23 O27 1.282 . S
O24 U6 2.441 . S
O24 C10 1.249 . S
O25 U6 2.420 . S
O25 C10 1.202 . S
O26 U6 2.455 . S
O26 C23 1.301 . S
O27 U6 2.449 . S
O27 C23 1.282 . S
H28 C1 0.931 . S
H29 C3 0.929 . S
H30 C4 0.930 1_556 S
H31 C5 0.931 . S
H32 C12 0.932 1_556 S
H33 C13 0.930 . S
H34 C14 0.929 . S
H35 C16 0.930 . S
H36 C18 0.932 . S
H37 C19 0.929 . S
H38 C20 0.928 . S
H39 C22 0.932 . S
C40 C41 1.264 . S
C40 C45 1.479 . S
C40 C50 1.465 . S
C41 C40 1.264 . S
C41 C43 1.339 . S
C41 H68 0.931 . S
C42 C43 1.395 . S
C42 C44 1.320 . S
C43 C41 1.339 . S
C43 C42 1.395 . S
C43 H69 0.929 . S
C44 C42 1.320 . S
C44 C45 1.405 . S
C44 H70 0.930 . S
C45 C40 1.479 . S
C45 C44 1.405 . S
C45 H71 0.931 . S
U46 O47 2.454 . S
U46 O48 2.458 . S
U46 C49 2.984 . S
U46 C50 2.847 . S
U46 C63 2.882 . S
U46 O64 2.441 . S
U46 O65 2.420 . S
U46 O66 2.455 . S
U46 O67 2.449 . S
O47 U46 2.454 . S
O47 C49 1.353 . S
O48 U46 2.458 . S
O48 C49 1.286 . S
C49 U46 2.984 . S
C49 O47 1.353 . S
C49 O48 1.286 . S
C49 C51 1.363 . S
C50 C40 1.465 . S
C50 U46 2.847 . S
C50 O64 1.249 . S
C50 O65 1.202 . S
C51 C49 1.363 . S
C51 C53 1.408 . S
C51 C56 1.342 . S
C52 C53 1.310 . S
C52 C55 1.461 . S
C52 H72 0.932 . S
C53 C51 1.408 . S
C53 C52 1.310 . S
C53 H73 0.930 . S
C54 C55 1.474 . S
C54 C56 1.285 . S
C54 H74 0.929 . S
C55 C52 1.461 . S
C55 C54 1.474 . S
C56 C51 1.342 . S
C56 C54 1.285 . S
C56 H75 0.930 . S
C57 C60 1.424 . S
C57 C62 1.245 . S
C57 C63 1.428 . S
C58 C61 1.260 . S
C58 C62 1.477 . S
C58 H76 0.932 . S
C59 C60 1.384 . S
C59 C61 1.479 . S
C59 H77 0.929 . S
C60 C57 1.424 . S
C60 C59 1.384 . S
C60 H78 0.928 . S
C61 C58 1.260 . S
C61 C59 1.479 . S
C62 C57 1.245 . S
C62 C58 1.477 . S
C62 H79 0.932 . S
C63 U46 2.882 . S
C63 C57 1.428 . S
C63 O66 1.301 . S
C63 O67 1.282 . S
O64 U46 2.441 . S
O64 C50 1.249 . S
O65 U46 2.420 . S
O65 C50 1.202 . S
O66 U46 2.455 . S
O66 C63 1.301 . S
O67 U46 2.449 . S
O67 C63 1.282 . S
H68 C41 0.931 . S
H69 C43 0.929 . S
H70 C44 0.930 . S
H71 C45 0.931 . S
H72 C52 0.932 . S
H73 C53 0.930 . S
H74 C54 0.929 . S
H75 C56 0.930 . S
H76 C58 0.932 . S
H77 C59 0.929 . S
H78 C60 0.928 . S
H79 C62 0.932 . S
C80 C81 1.264 . S
C80 C85 1.479 . S
C80 C90 1.465 . S
C81 C80 1.264 . S
C81 C83 1.339 . S
C81 H108 0.931 . S
C82 C83 1.395 . S
C82 C84 1.320 . S
C83 C81 1.339 . S
C83 C82 1.395 . S
C83 H109 0.929 . S
C84 C82 1.320 . S
C84 C85 1.405 . S
C84 H110 0.930 1_554 S
C85 C80 1.479 . S
C85 C84 1.405 . S
C85 H111 0.931 . S
U86 O87 2.454 . S
U86 O88 2.458 . S
U86 C89 2.984 . S
U86 C90 2.847 . S
U86 C103 2.882 . S
U86 O104 2.441 . S
U86 O105 2.420 . S
U86 O106 2.455 . S
U86 O107 2.449 . S
O87 U86 2.454 . S
O87 C89 1.353 . S
O88 U86 2.458 . S
O88 C89 1.286 . S
C89 U86 2.984 . S
C89 O87 1.353 . S
C89 O88 1.286 . S
C89 C91 1.363 . S
C90 C80 1.465 . S
C90 U86 2.847 . S
C90 O104 1.249 . S
C90 O105 1.202 . S
C91 C89 1.363 . S
C91 C93 1.408 . S
C91 C96 1.342 . S
C92 C93 1.310 . S
C92 C95 1.461 . S
C92 H112 0.932 1_554 S
C93 C91 1.408 . S
C93 C92 1.310 . S
C93 H113 0.930 . S
C94 C95 1.474 . S
C94 C96 1.285 . S
C94 H114 0.929 . S
C95 C92 1.461 . S
C95 C94 1.474 . S
C96 C91 1.342 . S
C96 C94 1.285 . S
C96 H115 0.930 . S
C97 C100 1.424 . S
C97 C102 1.245 . S
C97 C103 1.428 . S
C98 C101 1.260 . S
C98 C102 1.477 . S
C98 H116 0.932 . S
C99 C100 1.384 . S
C99 C101 1.479 . S
C99 H117 0.929 . S
C100 C97 1.424 . S
C100 C99 1.384 . S
C100 H118 0.928 . S
C101 C98 1.260 . S
C101 C99 1.479 . S
C102 C97 1.245 . S
C102 C98 1.477 . S
C102 H119 0.932 . S
C103 U86 2.882 . S
C103 C97 1.428 . S
C103 O106 1.301 . S
C103 O107 1.282 . S
O104 U86 2.441 . S
O104 C90 1.249 . S
O105 U86 2.420 . S
O105 C90 1.202 . S
O106 U86 2.455 . S
O106 C103 1.301 . S
O107 U86 2.449 . S
O107 C103 1.282 . S
H108 C81 0.931 . S
H109 C83 0.929 . S
H110 C84 0.930 1_556 S
H111 C85 0.931 . S
H112 C92 0.932 1_556 S
H113 C93 0.930 . S
H114 C94 0.929 . S
H115 C96 0.930 . S
H116 C98 0.932 . S
H117 C99 0.929 . S
H118 C100 0.928 . S
H119 C102 0.932 . S
C120 C121 1.264 . S
C120 C125 1.479 . S
C120 C130 1.465 . S
C121 C120 1.264 . S
C121 C123 1.339 . S
C121 H148 0.931 . S
C122 C123 1.395 . S
C122 C124 1.320 . S
C123 C121 1.339 . S
C123 C122 1.395 . S
C123 H149 0.929 . S
C124 C122 1.320 . S
C124 C125 1.405 . S
C124 H150 0.930 . S
C125 C120 1.479 . S
C125 C124 1.405 . S
C125 H151 0.931 . S
U126 O127 2.454 . S
U126 O128 2.458 . S
U126 C129 2.984 . S
U126 C130 2.847 . S
U126 C143 2.882 . S
U126 O144 2.441 . S
U126 O145 2.420 . S
U126 O146 2.455 . S
U126 O147 2.449 . S
O127 U126 2.454 . S
O127 C129 1.353 . S
O128 U126 2.458 . S
O128 C129 1.286 . S
C129 U126 2.984 . S
C129 O127 1.353 . S
C129 O128 1.286 . S
C129 C131 1.363 . S
C130 C120 1.465 . S
C130 U126 2.847 . S
C130 O144 1.249 . S
C130 O145 1.202 . S
C131 C129 1.363 . S
C131 C133 1.408 . S
C131 C136 1.342 . S
C132 C133 1.310 . S
C132 C135 1.461 . S
C132 H152 0.932 . S
C133 C131 1.408 . S
C133 C132 1.310 . S
C133 H153 0.930 . S
C134 C135 1.474 . S
C134 C136 1.285 . S
C134 H154 0.929 . S
C135 C132 1.461 . S
C135 C134 1.474 . S
C136 C131 1.342 . S
C136 C134 1.285 . S
C136 H155 0.930 . S
C137 C140 1.424 . S
C137 C142 1.245 . S
C137 C143 1.428 . S
C138 C141 1.260 . S
C138 C142 1.477 . S
C138 H156 0.932 . S
C139 C140 1.384 . S
C139 C141 1.479 . S
C139 H157 0.929 . S
C140 C137 1.424 . S
C140 C139 1.384 . S
C140 H158 0.928 . S
C141 C138 1.260 . S
C141 C139 1.479 . S
C142 C137 1.245 . S
C142 C138 1.477 . S
C142 H159 0.932 . S
C143 U126 2.882 . S
C143 C137 1.428 . S
C143 O146 1.301 . S
C143 O147 1.282 . S
O144 U126 2.441 . S
O144 C130 1.249 . S
O145 U126 2.420 . S
O145 C130 1.202 . S
O146 U126 2.455 . S
O146 C143 1.301 . S
O147 U126 2.449 . S
O147 C143 1.282 . S
H148 C121 0.931 . S
H149 C123 0.929 . S
H150 C124 0.930 . S
H151 C125 0.931 . S
H152 C132 0.932 . S
H153 C133 0.930 . S
H154 C134 0.929 . S
H155 C136 0.930 . S
H156 C138 0.932 . S
H157 C139 0.929 . S
H158 C140 0.928 . S
H159 C142 0.932 . S
C160 C161 1.264 . S
C160 C165 1.479 . S
C160 C170 1.465 . S
C161 C160 1.264 . S
C161 C163 1.339 . S
C161 H188 0.931 . S
C162 C163 1.395 . S
C162 C164 1.320 . S
C163 C161 1.339 . S
C163 C162 1.395 . S
C163 H189 0.929 . S
C164 C162 1.320 . S
C164 C165 1.405 . S
C164 H190 0.930 1_556 S
C165 C160 1.479 . S
C165 C164 1.405 . S
C165 H191 0.931 . S
U166 O167 2.454 . S
U166 O168 2.458 . S
U166 C169 2.984 . S
U166 C170 2.847 . S
U166 C183 2.882 . S
U166 O184 2.441 . S
U166 O185 2.420 . S
U166 O186 2.455 . S
U166 O187 2.449 . S
O167 U166 2.454 . S
O167 C169 1.353 . S
O168 U166 2.458 . S
O168 C169 1.286 . S
C169 U166 2.984 . S
C169 O167 1.353 . S
C169 O168 1.286 . S
C169 C171 1.363 . S
C170 C160 1.465 . S
C170 U166 2.847 . S
C170 O184 1.249 . S
C170 O185 1.202 . S
C171 C169 1.363 . S
C171 C173 1.408 . S
C171 C176 1.342 . S
C172 C173 1.310 . S
C172 C175 1.461 . S
C172 H192 0.932 1_556 S
C173 C171 1.408 . S
C173 C172 1.310 . S
C173 H193 0.930 . S
C174 C175 1.474 . S
C174 C176 1.285 . S
C174 H194 0.929 . S
C175 C172 1.461 . S
C175 C174 1.474 . S
C176 C171 1.342 . S
C176 C174 1.285 . S
C176 H195 0.930 . S
C177 C180 1.424 . S
C177 C182 1.245 . S
C177 C183 1.428 . S
C178 C181 1.260 . S
C178 C182 1.477 . S
C178 H196 0.932 . S
C179 C180 1.384 . S
C179 C181 1.479 . S
C179 H197 0.929 . S
C180 C177 1.424 . S
C180 C179 1.384 . S
C180 H198 0.928 . S
C181 C178 1.260 . S
C181 C179 1.479 . S
C182 C177 1.245 . S
C182 C178 1.477 . S
C182 H199 0.932 . S
C183 U166 2.882 . S
C183 C177 1.428 . S
C183 O186 1.301 . S
C183 O187 1.282 . S
O184 U166 2.441 . S
O184 C170 1.249 . S
O185 U166 2.420 . S
O185 C170 1.202 . S
O186 U166 2.455 . S
O186 C183 1.301 . S
O187 U166 2.449 . S
O187 C183 1.282 . S
H188 C161 0.931 . S
H189 C163 0.929 . S
H190 C164 0.930 1_554 S
H191 C165 0.931 . S
H192 C172 0.932 1_554 S
H193 C173 0.930 . S
H194 C174 0.929 . S
H195 C176 0.930 . S
H196 C178 0.932 . S
H197 C179 0.929 . S
H198 C180 0.928 . S
H199 C182 0.932 . S
C200 C201 1.264 . S
C200 C205 1.479 . S
C200 C210 1.465 . S
C201 C200 1.264 . S
C201 C203 1.339 . S
C201 H228 0.931 . S
C202 C203 1.395 . S
C202 C204 1.320 . S
C203 C201 1.339 . S
C203 C202 1.395 . S
C203 H229 0.929 . S
C204 C202 1.320 . S
C204 C205 1.405 . S
C204 H230 0.930 . S
C205 C200 1.479 . S
C205 C204 1.405 . S
C205 H231 0.931 . S
U206 O207 2.454 . S
U206 O208 2.458 . S
U206 C209 2.984 . S
U206 C210 2.847 . S
U206 C223 2.882 . S
U206 O224 2.441 . S
U206 O225 2.420 . S
U206 O226 2.455 . S
U206 O227 2.449 . S
O207 U206 2.454 . S
O207 C209 1.353 . S
O208 U206 2.458 . S
O208 C209 1.286 . S
C209 U206 2.984 . S
C209 O207 1.353 . S
C209 O208 1.286 . S
C209 C211 1.363 . S
C210 C200 1.465 . S
C210 U206 2.847 . S
C210 O224 1.249 . S
C210 O225 1.202 . S
C211 C209 1.363 . S
C211 C213 1.408 . S
C211 C216 1.342 . S
C212 C213 1.310 . S
C212 C215 1.461 . S
C212 H232 0.932 . S
C213 C211 1.408 . S
C213 C212 1.310 . S
C213 H233 0.930 . S
C214 C215 1.474 . S
C214 C216 1.285 . S
C214 H234 0.929 . S
C215 C212 1.461 . S
C215 C214 1.474 . S
C216 C211 1.342 . S
C216 C214 1.285 . S
C216 H235 0.930 . S
C217 C220 1.424 . S
C217 C222 1.245 . S
C217 C223 1.428 . S
C218 C221 1.260 . S
C218 C222 1.477 . S
C218 H236 0.932 . S
C219 C220 1.384 . S
C219 C221 1.479 . S
C219 H237 0.929 . S
C220 C217 1.424 . S
C220 C219 1.384 . S
C220 H238 0.928 . S
C221 C218 1.260 . S
C221 C219 1.479 . S
C222 C217 1.245 . S
C222 C218 1.477 . S
C222 H239 0.932 . S
C223 U206 2.882 . S
C223 C217 1.428 . S
C223 O226 1.301 . S
C223 O227 1.282 . S
O224 U206 2.441 . S
O224 C210 1.249 . S
O225 U206 2.420 . S
O225 C210 1.202 . S
O226 U206 2.455 . S
O226 C223 1.301 . S
O227 U206 2.449 . S
O227 C223 1.282 . S
H228 C201 0.931 . S
H229 C203 0.929 . S
H230 C204 0.930 . S
H231 C205 0.931 . S
H232 C212 0.932 . S
H233 C213 0.930 . S
H234 C214 0.929 . S
H235 C216 0.930 . S
H236 C218 0.932 . S
H237 C219 0.929 . S
H238 C220 0.928 . S
H239 C222 0.932 . S
C240 C241 1.264 . S
C240 C245 1.479 . S
C240 C250 1.465 . S
C241 C240 1.264 . S
C241 C243 1.339 . S
C241 H268 0.931 . S
C242 C243 1.395 . S
C242 C244 1.320 . S
C243 C241 1.339 . S
C243 C242 1.395 . S
C243 H269 0.929 . S
C244 C242 1.320 . S
C244 C245 1.405 . S
C244 H270 0.930 1_556 S
C245 C240 1.479 . S
C245 C244 1.405 . S
C245 H271 0.931 . S
U246 O247 2.454 . S
U246 O248 2.458 . S
U246 C249 2.984 . S
U246 C250 2.847 . S
U246 C263 2.882 . S
U246 O264 2.441 . S
U246 O265 2.420 . S
U246 O266 2.455 . S
U246 O267 2.449 . S
O247 U246 2.454 . S
O247 C249 1.353 . S
O248 U246 2.458 . S
O248 C249 1.286 . S
C249 U246 2.984 . S
C249 O247 1.353 . S
C249 O248 1.286 . S
C249 C251 1.363 . S
C250 C240 1.465 . S
C250 U246 2.847 . S
C250 O264 1.249 . S
C250 O265 1.202 . S
C251 C249 1.363 . S
C251 C253 1.408 . S
C251 C256 1.342 . S
C252 C253 1.310 . S
C252 C255 1.461 . S
C252 H272 0.932 1_556 S
C253 C251 1.408 . S
C253 C252 1.310 . S
C253 H273 0.930 . S
C254 C255 1.474 . S
C254 C256 1.285 . S
C254 H274 0.929 . S
C255 C252 1.461 . S
C255 C254 1.474 . S
C256 C251 1.342 . S
C256 C254 1.285 . S
C256 H275 0.930 . S
C257 C260 1.424 . S
C257 C262 1.245 . S
C257 C263 1.428 . S
C258 C261 1.260 . S
C258 C262 1.477 . S
C258 H276 0.932 . S
C259 C260 1.384 . S
C259 C261 1.479 . S
C259 H277 0.929 . S
C260 C257 1.424 . S
C260 C259 1.384 . S
C260 H278 0.928 . S
C261 C258 1.260 . S
C261 C259 1.479 . S
C262 C257 1.245 . S
C262 C258 1.477 . S
C262 H279 0.932 . S
C263 U246 2.882 . S
C263 C257 1.428 . S
C263 O266 1.301 . S
C263 O267 1.282 . S
O264 U246 2.441 . S
O264 C250 1.249 . S
O265 U246 2.420 . S
O265 C250 1.202 . S
O266 U246 2.455 . S
O266 C263 1.301 . S
O267 U246 2.449 . S
O267 C263 1.282 . S
H268 C241 0.931 . S
H269 C243 0.929 . S
H270 C244 0.930 1_554 S
H271 C245 0.931 . S
H272 C252 0.932 1_554 S
H273 C253 0.930 . S
H274 C254 0.929 . S
H275 C256 0.930 . S
H276 C258 0.932 . S
H277 C259 0.929 . S
H278 C260 0.928 . S
H279 C262 0.932 . S
C280 C281 1.264 . S
C280 C285 1.479 . S
C280 C290 1.465 . S
C281 C280 1.264 . S
C281 C283 1.339 . S
C281 H308 0.931 . S
C282 C283 1.395 . S
C282 C284 1.320 . S
C283 C281 1.339 . S
C283 C282 1.395 . S
C283 H309 0.929 . S
C284 C282 1.320 . S
C284 C285 1.405 . S
C284 H310 0.930 . S
C285 C280 1.479 . S
C285 C284 1.405 . S
C285 H311 0.931 . S
U286 O287 2.454 . S
U286 O288 2.458 . S
U286 C289 2.984 . S
U286 C290 2.847 . S
U286 C303 2.882 . S
U286 O304 2.441 . S
U286 O305 2.420 . S
U286 O306 2.455 . S
U286 O307 2.449 . S
O287 U286 2.454 . S
O287 C289 1.353 . S
O288 U286 2.458 . S
O288 C289 1.286 . S
C289 U286 2.984 . S
C289 O287 1.353 . S
C289 O288 1.286 . S
C289 C291 1.363 . S
C290 C280 1.465 . S
C290 U286 2.847 . S
C290 O304 1.249 . S
C290 O305 1.202 . S
C291 C289 1.363 . S
C291 C293 1.408 . S
C291 C296 1.342 . S
C292 C293 1.310 . S
C292 C295 1.461 . S
C292 H312 0.932 . S
C293 C291 1.408 . S
C293 C292 1.310 . S
C293 H313 0.930 . S
C294 C295 1.474 . S
C294 C296 1.285 . S
C294 H314 0.929 . S
C295 C292 1.461 . S
C295 C294 1.474 . S
C296 C291 1.342 . S
C296 C294 1.285 . S
C296 H315 0.930 . S
C297 C300 1.424 . S
C297 C302 1.245 . S
C297 C303 1.428 . S
C298 C301 1.260 . S
C298 C302 1.477 . S
C298 H316 0.932 . S
C299 C300 1.384 . S
C299 C301 1.479 . S
C299 H317 0.929 . S
C300 C297 1.424 . S
C300 C299 1.384 . S
C300 H318 0.928 . S
C301 C298 1.260 . S
C301 C299 1.479 . S
C302 C297 1.245 . S
C302 C298 1.477 . S
C302 H319 0.932 . S
C303 U286 2.882 . S
C303 C297 1.428 . S
C303 O306 1.301 . S
C303 O307 1.282 . S
O304 U286 2.441 . S
O304 C290 1.249 . S
O305 U286 2.420 . S
O305 C290 1.202 . S
O306 U286 2.455 . S
O306 C303 1.301 . S
O307 U286 2.449 . S
O307 C303 1.282 . S
H308 C281 0.931 . S
H309 C283 0.929 . S
H310 C284 0.930 . S
H311 C285 0.931 . S
H312 C292 0.932 . S
H313 C293 0.930 . S
H314 C294 0.929 . S
H315 C296 0.930 . S
H316 C298 0.932 . S
H317 C299 0.929 . S
H318 C300 0.928 . S
H319 C302 0.932 . S
C320 C321 1.264 . S
C320 C325 1.479 . S
C320 C330 1.465 . S
C321 C320 1.264 . S
C321 C323 1.339 . S
C321 H348 0.931 . S
C322 C323 1.395 . S
C322 C324 1.320 . S
C323 C321 1.339 . S
C323 C322 1.395 . S
C323 H349 0.929 . S
C324 C322 1.320 . S
C324 C325 1.405 . S
C324 H350 0.930 1_556 S
C325 C320 1.479 . S
C325 C324 1.405 . S
C325 H351 0.931 . S
U326 O327 2.454 . S
U326 O328 2.458 . S
U326 C329 2.984 . S
U326 C330 2.847 . S
U326 C343 2.882 . S
U326 O344 2.441 . S
U326 O345 2.420 . S
U326 O346 2.455 . S
U326 O347 2.449 . S
O327 U326 2.454 . S
O327 C329 1.353 . S
O328 U326 2.458 . S
O328 C329 1.286 . S
C329 U326 2.984 . S
C329 O327 1.353 . S
C329 O328 1.286 . S
C329 C331 1.363 . S
C330 C320 1.465 . S
C330 U326 2.847 . S
C330 O344 1.249 . S
C330 O345 1.202 . S
C331 C329 1.363 . S
C331 C333 1.408 . S
C331 C336 1.342 . S
C332 C333 1.310 . S
C332 C335 1.461 . S
C332 H352 0.932 1_556 S
C333 C331 1.408 . S
C333 C332 1.310 . S
C333 H353 0.930 . S
C334 C335 1.474 . S
C334 C336 1.285 . S
C334 H354 0.929 . S
C335 C332 1.461 . S
C335 C334 1.474 . S
C336 C331 1.342 . S
C336 C334 1.285 . S
C336 H355 0.930 . S
C337 C340 1.424 . S
C337 C342 1.245 . S
C337 C343 1.428 . S
C338 C341 1.260 . S
C338 C342 1.477 . S
C338 H356 0.932 . S
C339 C340 1.384 . S
C339 C341 1.479 . S
C339 H357 0.929 . S
C340 C337 1.424 . S
C340 C339 1.384 . S
C340 H358 0.928 . S
C341 C338 1.260 . S
C341 C339 1.479 . S
C342 C337 1.245 . S
C342 C338 1.477 . S
C342 H359 0.932 . S
C343 U326 2.882 . S
C343 C337 1.428 . S
C343 O346 1.301 . S
C343 O347 1.282 . S
O344 U326 2.441 . S
O344 C330 1.249 . S
O345 U326 2.420 . S
O345 C330 1.202 . S
O346 U326 2.455 . S
O346 C343 1.301 . S
O347 U326 2.449 . S
O347 C343 1.282 . S
H348 C321 0.931 . S
H349 C323 0.929 . S
H350 C324 0.930 1_554 S
H351 C325 0.931 . S
H352 C332 0.932 1_554 S
H353 C333 0.930 . S
H354 C334 0.929 . S
H355 C336 0.930 . S
H356 C338 0.932 . S
H357 C339 0.929 . S
H358 C340 0.928 . S
H359 C342 0.932 . S
C360 C361 1.264 . S
C360 C365 1.479 . S
C360 C370 1.465 . S
C361 C360 1.264 . S
C361 C363 1.339 . S
C361 H388 0.931 . S
C362 C363 1.395 . S
C362 C364 1.320 . S
C363 C361 1.339 . S
C363 C362 1.395 . S
C363 H389 0.929 . S
C364 C362 1.320 . S
C364 C365 1.405 . S
C364 H390 0.930 . S
C365 C360 1.479 . S
C365 C364 1.405 . S
C365 H391 0.931 . S
U366 O367 2.454 . S
U366 O368 2.458 . S
U366 C369 2.984 . S
U366 C370 2.847 . S
U366 C383 2.882 . S
U366 O384 2.441 . S
U366 O385 2.420 . S
U366 O386 2.455 . S
U366 O387 2.449 . S
O367 U366 2.454 . S
O367 C369 1.353 . S
O368 U366 2.458 . S
O368 C369 1.286 . S
C369 U366 2.984 . S
C369 O367 1.353 . S
C369 O368 1.286 . S
C369 C371 1.363 . S
C370 C360 1.465 . S
C370 U366 2.847 . S
C370 O384 1.249 . S
C370 O385 1.202 . S
C371 C369 1.363 . S
C371 C373 1.408 . S
C371 C376 1.342 . S
C372 C373 1.310 . S
C372 C375 1.461 . S
C372 H392 0.932 . S
C373 C371 1.408 . S
C373 C372 1.310 . S
C373 H393 0.930 . S
C374 C375 1.474 . S
C374 C376 1.285 . S
C374 H394 0.929 . S
C375 C372 1.461 . S
C375 C374 1.474 . S
C376 C371 1.342 . S
C376 C374 1.285 . S
C376 H395 0.930 . S
C377 C380 1.424 . S
C377 C382 1.245 . S
C377 C383 1.428 . S
C378 C381 1.260 . S
C378 C382 1.477 . S
C378 H396 0.932 . S
C379 C380 1.384 . S
C379 C381 1.479 . S
C379 H397 0.929 . S
C380 C377 1.424 . S
C380 C379 1.384 . S
C380 H398 0.928 . S
C381 C378 1.260 . S
C381 C379 1.479 . S
C382 C377 1.245 . S
C382 C378 1.477 . S
C382 H399 0.932 . S
C383 U366 2.882 . S
C383 C377 1.428 . S
C383 O386 1.301 . S
C383 O387 1.282 . S
O384 U366 2.441 . S
O384 C370 1.249 . S
O385 U366 2.420 . S
O385 C370 1.202 . S
O386 U366 2.455 . S
O386 C383 1.301 . S
O387 U366 2.449 . S
O387 C383 1.282 . S
H388 C361 0.931 . S
H389 C363 0.929 . S
H390 C364 0.930 . S
H391 C365 0.931 . S
H392 C372 0.932 . S
H393 C373 0.930 . S
H394 C374 0.929 . S
H395 C376 0.930 . S
H396 C378 0.932 . S
H397 C379 0.929 . S
H398 C380 0.928 . S
H399 C382 0.932 . S
C400 C401 1.264 . S
C400 C405 1.479 . S
C400 C410 1.465 . S
C401 C400 1.264 . S
C401 C403 1.339 . S
C401 H428 0.931 . S
C402 C403 1.395 . S
C402 C404 1.320 . S
C403 C401 1.339 . S
C403 C402 1.395 . S
C403 H429 0.929 . S
C404 C402 1.320 . S
C404 C405 1.405 . S
C404 H430 0.930 1_556 S
C405 C400 1.479 . S
C405 C404 1.405 . S
C405 H431 0.931 . S
U406 O407 2.454 . S
U406 O408 2.458 . S
U406 C409 2.984 . S
U406 C410 2.847 . S
U406 C423 2.882 . S
U406 O424 2.441 . S
U406 O425 2.420 . S
U406 O426 2.455 . S
U406 O427 2.449 . S
O407 U406 2.454 . S
O407 C409 1.353 . S
O408 U406 2.458 . S
O408 C409 1.286 . S
C409 U406 2.984 . S
C409 O407 1.353 . S
C409 O408 1.286 . S
C409 C411 1.363 . S
C410 C400 1.465 . S
C410 U406 2.847 . S
C410 O424 1.249 . S
C410 O425 1.202 . S
C411 C409 1.363 . S
C411 C413 1.408 . S
C411 C416 1.342 . S
C412 C413 1.310 . S
C412 C415 1.461 . S
C412 H432 0.932 1_556 S
C413 C411 1.408 . S
C413 C412 1.310 . S
C413 H433 0.930 . S
C414 C415 1.474 . S
C414 C416 1.285 . S
C414 H434 0.929 . S
C415 C412 1.461 . S
C415 C414 1.474 . S
C416 C411 1.342 . S
C416 C414 1.285 . S
C416 H435 0.930 . S
C417 C420 1.424 . S
C417 C422 1.245 . S
C417 C423 1.428 . S
C418 C421 1.260 . S
C418 C422 1.477 . S
C418 H436 0.932 . S
C419 C420 1.384 . S
C419 C421 1.479 . S
C419 H437 0.929 . S
C420 C417 1.424 . S
C420 C419 1.384 . S
C420 H438 0.928 . S
C421 C418 1.260 . S
C421 C419 1.479 . S
C422 C417 1.245 . S
C422 C418 1.477 . S
C422 H439 0.932 . S
C423 U406 2.882 . S
C423 C417 1.428 . S
C423 O426 1.301 . S
C423 O427 1.282 . S
O424 U406 2.441 . S
O424 C410 1.249 . S
O425 U406 2.420 . S
O425 C410 1.202 . S
O426 U406 2.455 . S
O426 C423 1.301 . S
O427 U406 2.449 . S
O427 C423 1.282 . S
H428 C401 0.931 . S
H429 C403 0.929 . S
H430 C404 0.930 1_554 S
H431 C405 0.931 . S
H432 C412 0.932 1_554 S
H433 C413 0.930 . S
H434 C414 0.929 . S
H435 C416 0.930 . S
H436 C418 0.932 . S
H437 C419 0.929 . S
H438 C420 0.928 . S
H439 C422 0.932 . S
C440 C441 1.264 . S
C440 C445 1.479 . S
C440 C450 1.465 . S
C441 C440 1.264 . S
C441 C443 1.339 . S
C441 H468 0.931 . S
C442 C443 1.395 . S
C442 C444 1.320 . S
C443 C441 1.339 . S
C443 C442 1.395 . S
C443 H469 0.929 . S
C444 C442 1.320 . S
C444 C445 1.405 . S
C444 H470 0.930 . S
C445 C440 1.479 . S
C445 C444 1.405 . S
C445 H471 0.931 . S
U446 O447 2.454 . S
U446 O448 2.458 . S
U446 C449 2.984 . S
U446 C450 2.847 . S
U446 C463 2.882 . S
U446 O464 2.441 . S
U446 O465 2.420 . S
U446 O466 2.455 . S
U446 O467 2.449 . S
O447 U446 2.454 . S
O447 C449 1.353 . S
O448 U446 2.458 . S
O448 C449 1.286 . S
C449 U446 2.984 . S
C449 O447 1.353 . S
C449 O448 1.286 . S
C449 C451 1.363 . S
C450 C440 1.465 . S
C450 U446 2.847 . S
C450 O464 1.249 . S
C450 O465 1.202 . S
C451 C449 1.363 . S
C451 C453 1.408 . S
C451 C456 1.342 . S
C452 C453 1.310 . S
C452 C455 1.461 . S
C452 H472 0.932 . S
C453 C451 1.408 . S
C453 C452 1.310 . S
C453 H473 0.930 . S
C454 C455 1.474 . S
C454 C456 1.285 . S
C454 H474 0.929 . S
C455 C452 1.461 . S
C455 C454 1.474 . S
C456 C451 1.342 . S
C456 C454 1.285 . S
C456 H475 0.930 . S
C457 C460 1.424 . S
C457 C462 1.245 . S
C457 C463 1.428 . S
C458 C461 1.260 . S
C458 C462 1.477 . S
C458 H476 0.932 . S
C459 C460 1.384 . S
C459 C461 1.479 . S
C459 H477 0.929 . S
C460 C457 1.424 . S
C460 C459 1.384 . S
C460 H478 0.928 . S
C461 C458 1.260 . S
C461 C459 1.479 . S
C462 C457 1.245 . S
C462 C458 1.477 . S
C462 H479 0.932 . S
C463 U446 2.882 . S
C463 C457 1.428 . S
C463 O466 1.301 . S
C463 O467 1.282 . S
O464 U446 2.441 . S
O464 C450 1.249 . S
O465 U446 2.420 . S
O465 C450 1.202 . S
O466 U446 2.455 . S
O466 C463 1.301 . S
O467 U446 2.449 . S
O467 C463 1.282 . S
H468 C441 0.931 . S
H469 C443 0.929 . S
H470 C444 0.930 . S
H471 C445 0.931 . S
H472 C452 0.932 . S
H473 C453 0.930 . S
H474 C454 0.929 . S
H475 C456 0.930 . S
H476 C458 0.932 . S
H477 C459 0.929 . S
H478 C460 0.928 . S
H479 C462 0.932 . S
C480 C481 1.264 . S
C480 C485 1.479 . S
C480 C490 1.465 . S
C481 C480 1.264 . S
C481 C483 1.339 . S
C481 H508 0.931 . S
C482 C483 1.395 . S
C482 C484 1.320 . S
C483 C481 1.339 . S
C483 C482 1.395 . S
C483 H509 0.929 . S
C484 C482 1.320 . S
C484 C485 1.405 . S
C484 H510 0.930 1_554 S
C485 C480 1.479 . S
C485 C484 1.405 . S
C485 H511 0.931 . S
U486 O487 2.454 . S
U486 O488 2.458 . S
U486 C489 2.984 . S
U486 C490 2.847 . S
U486 C503 2.882 . S
U486 O504 2.441 . S
U486 O505 2.420 . S
U486 O506 2.455 . S
U486 O507 2.449 . S
O487 U486 2.454 . S
O487 C489 1.353 . S
O488 U486 2.458 . S
O488 C489 1.286 . S
C489 U486 2.984 . S
C489 O487 1.353 . S
C489 O488 1.286 . S
C489 C491 1.363 . S
C490 C480 1.465 . S
C490 U486 2.847 . S
C490 O504 1.249 . S
C490 O505 1.202 . S
C491 C489 1.363 . S
C491 C493 1.408 . S
C491 C496 1.342 . S
C492 C493 1.310 . S
C492 C495 1.461 . S
C492 H512 0.932 1_554 S
C493 C491 1.408 . S
C493 C492 1.310 . S
C493 H513 0.930 . S
C494 C495 1.474 . S
C494 C496 1.285 . S
C494 H514 0.929 . S
C495 C492 1.461 . S
C495 C494 1.474 . S
C496 C491 1.342 . S
C496 C494 1.285 . S
C496 H515 0.930 . S
C497 C500 1.424 . S
C497 C502 1.245 . S
C497 C503 1.428 . S
C498 C501 1.260 . S
C498 C502 1.477 . S
C498 H516 0.932 . S
C499 C500 1.384 . S
C499 C501 1.479 . S
C499 H517 0.929 . S
C500 C497 1.424 . S
C500 C499 1.384 . S
C500 H518 0.928 . S
C501 C498 1.260 . S
C501 C499 1.479 . S
C502 C497 1.245 . S
C502 C498 1.477 . S
C502 H519 0.932 . S
C503 U486 2.882 . S
C503 C497 1.428 . S
C503 O506 1.301 . S
C503 O507 1.282 . S
O504 U486 2.441 . S
O504 C490 1.249 . S
O505 U486 2.420 . S
O505 C490 1.202 . S
O506 U486 2.455 . S
O506 C503 1.301 . S
O507 U486 2.449 . S
O507 C503 1.282 . S
H508 C481 0.931 . S
H509 C483 0.929 . S
H510 C484 0.930 1_556 S
H511 C485 0.931 . S
H512 C492 0.932 1_556 S
H513 C493 0.930 . S
H514 C494 0.929 . S
H515 C496 0.930 . S
H516 C498 0.932 . S
H517 C499 0.929 . S
H518 C500 0.928 . S
H519 C502 0.932 . S
C520 C521 1.264 . S
C520 C525 1.479 . S
C520 C530 1.465 . S
C521 C520 1.264 . S
C521 C523 1.339 . S
C521 H548 0.931 . S
C522 C523 1.395 . S
C522 C524 1.320 . S
C523 C521 1.339 . S
C523 C522 1.395 . S
C523 H549 0.929 . S
C524 C522 1.320 . S
C524 C525 1.405 . S
C524 H550 0.930 . S
C525 C520 1.479 . S
C525 C524 1.405 . S
C525 H551 0.931 . S
U526 O527 2.454 . S
U526 O528 2.458 . S
U526 C529 2.984 . S
U526 C530 2.847 . S
U526 C543 2.882 . S
U526 O544 2.441 . S
U526 O545 2.420 . S
U526 O546 2.455 . S
U526 O547 2.449 . S
O527 U526 2.454 . S
O527 C529 1.353 . S
O528 U526 2.458 . S
O528 C529 1.286 . S
C529 U526 2.984 . S
C529 O527 1.353 . S
C529 O528 1.286 . S
C529 C531 1.363 . S
C530 C520 1.465 . S
C530 U526 2.847 . S
C530 O544 1.249 . S
C530 O545 1.202 . S
C531 C529 1.363 . S
C531 C533 1.408 . S
C531 C536 1.342 . S
C532 C533 1.310 . S
C532 C535 1.461 . S
C532 H552 0.932 . S
C533 C531 1.408 . S
C533 C532 1.310 . S
C533 H553 0.930 . S
C534 C535 1.474 . S
C534 C536 1.285 . S
C534 H554 0.929 . S
C535 C532 1.461 . S
C535 C534 1.474 . S
C536 C531 1.342 . S
C536 C534 1.285 . S
C536 H555 0.930 . S
C537 C540 1.424 . S
C537 C542 1.245 . S
C537 C543 1.428 . S
C538 C541 1.260 . S
C538 C542 1.477 . S
C538 H556 0.932 . S
C539 C540 1.384 . S
C539 C541 1.479 . S
C539 H557 0.929 . S
C540 C537 1.424 . S
C540 C539 1.384 . S
C540 H558 0.928 . S
C541 C538 1.260 . S
C541 C539 1.479 . S
C542 C537 1.245 . S
C542 C538 1.477 . S
C542 H559 0.932 . S
C543 U526 2.882 . S
C543 C537 1.428 . S
C543 O546 1.301 . S
C543 O547 1.282 . S
O544 U526 2.441 . S
O544 C530 1.249 . S
O545 U526 2.420 . S
O545 C530 1.202 . S
O546 U526 2.455 . S
O546 C543 1.301 . S
O547 U526 2.449 . S
O547 C543 1.282 . S
H548 C521 0.931 . S
H549 C523 0.929 . S
H550 C524 0.930 . S
H551 C525 0.931 . S
H552 C532 0.932 . S
H553 C533 0.930 . S
H554 C534 0.929 . S
H555 C536 0.930 . S
H556 C538 0.932 . S
H557 C539 0.929 . S
H558 C540 0.928 . S
H559 C542 0.932 . S
C560 C561 1.264 . S
C560 C565 1.479 . S
C560 C570 1.465 . S
C561 C560 1.264 . S
C561 C563 1.339 . S
C561 H588 0.931 . S
C562 C563 1.395 . S
C562 C564 1.320 . S
C563 C561 1.339 . S
C563 C562 1.395 . S
C563 H589 0.929 . S
C564 C562 1.320 . S
C564 C565 1.405 . S
C564 H590 0.930 1_554 S
C565 C560 1.479 . S
C565 C564 1.405 . S
C565 H591 0.931 . S
U566 O567 2.454 . S
U566 O568 2.458 . S
U566 C569 2.984 . S
U566 C570 2.847 . S
U566 C583 2.882 . S
U566 O584 2.441 . S
U566 O585 2.420 . S
U566 O586 2.455 . S
U566 O587 2.449 . S
O567 U566 2.454 . S
O567 C569 1.353 . S
O568 U566 2.458 . S
O568 C569 1.286 . S
C569 U566 2.984 . S
C569 O567 1.353 . S
C569 O568 1.286 . S
C569 C571 1.363 . S
C570 C560 1.465 . S
C570 U566 2.847 . S
C570 O584 1.249 . S
C570 O585 1.202 . S
C571 C569 1.363 . S
C571 C573 1.408 . S
C571 C576 1.342 . S
C572 C573 1.310 . S
C572 C575 1.461 . S
C572 H592 0.932 1_554 S
C573 C571 1.408 . S
C573 C572 1.310 . S
C573 H593 0.930 . S
C574 C575 1.474 . S
C574 C576 1.285 . S
C574 H594 0.929 . S
C575 C572 1.461 . S
C575 C574 1.474 . S
C576 C571 1.342 . S
C576 C574 1.285 . S
C576 H595 0.930 . S
C577 C580 1.424 . S
C577 C582 1.245 . S
C577 C583 1.428 . S
C578 C581 1.260 . S
C578 C582 1.477 . S
C578 H596 0.932 . S
C579 C580 1.384 . S
C579 C581 1.479 . S
C579 H597 0.929 . S
C580 C577 1.424 . S
C580 C579 1.384 . S
C580 H598 0.928 . S
C581 C578 1.260 . S
C581 C579 1.479 . S
C582 C577 1.245 . S
C582 C578 1.477 . S
C582 H599 0.932 . S
C583 U566 2.882 . S
C583 C577 1.428 . S
C583 O586 1.301 . S
C583 O587 1.282 . S
O584 U566 2.441 . S
O584 C570 1.249 . S
O585 U566 2.420 . S
O585 C570 1.202 . S
O586 U566 2.455 . S
O586 C583 1.301 . S
O587 U566 2.449 . S
O587 C583 1.282 . S
H588 C561 0.931 . S
H589 C563 0.929 . S
H590 C564 0.930 1_556 S
H591 C565 0.931 . S
H592 C572 0.932 1_556 S
H593 C573 0.930 . S
H594 C574 0.929 . S
H595 C576 0.930 . S
H596 C578 0.932 . S
H597 C579 0.929 . S
H598 C580 0.928 . S
H599 C582 0.932 . S
C600 C601 1.264 . S
C600 C605 1.479 . S
C600 C610 1.465 . S
C601 C600 1.264 . S
C601 C603 1.339 . S
C601 H628 0.931 . S
C602 C603 1.395 . S
C602 C604 1.320 . S
C603 C601 1.339 . S
C603 C602 1.395 . S
C603 H629 0.929 . S
C604 C602 1.320 . S
C604 C605 1.405 . S
C604 H630 0.930 . S
C605 C600 1.479 . S
C605 C604 1.405 . S
C605 H631 0.931 . S
U606 O607 2.454 . S
U606 O608 2.458 . S
U606 C609 2.984 . S
U606 C610 2.847 . S
U606 C623 2.882 . S
U606 O624 2.441 . S
U606 O625 2.420 . S
U606 O626 2.455 . S
U606 O627 2.449 . S
O607 U606 2.454 . S
O607 C609 1.353 . S
O608 U606 2.458 . S
O608 C609 1.286 . S
C609 U606 2.984 . S
C609 O607 1.353 . S
C609 O608 1.286 . S
C609 C611 1.363 . S
C610 C600 1.465 . S
C610 U606 2.847 . S
C610 O624 1.249 . S
C610 O625 1.202 . S
C611 C609 1.363 . S
C611 C613 1.408 . S
C611 C616 1.342 . S
C612 C613 1.310 . S
C612 C615 1.461 . S
C612 H632 0.932 . S
C613 C611 1.408 . S
C613 C612 1.310 . S
C613 H633 0.930 . S
C614 C615 1.474 . S
C614 C616 1.285 . S
C614 H634 0.929 . S
C615 C612 1.461 . S
C615 C614 1.474 . S
C616 C611 1.342 . S
C616 C614 1.285 . S
C616 H635 0.930 . S
C617 C620 1.424 . S
C617 C622 1.245 . S
C617 C623 1.428 . S
C618 C621 1.260 . S
C618 C622 1.477 . S
C618 H636 0.932 . S
C619 C620 1.384 . S
C619 C621 1.479 . S
C619 H637 0.929 . S
C620 C617 1.424 . S
C620 C619 1.384 . S
C620 H638 0.928 . S
C621 C618 1.260 . S
C621 C619 1.479 . S
C622 C617 1.245 . S
C622 C618 1.477 . S
C622 H639 0.932 . S
C623 U606 2.882 . S
C623 C617 1.428 . S
C623 O626 1.301 . S
C623 O627 1.282 . S
O624 U606 2.441 . S
O624 C610 1.249 . S
O625 U606 2.420 . S
O625 C610 1.202 . S
O626 U606 2.455 . S
O626 C623 1.301 . S
O627 U606 2.449 . S
O627 C623 1.282 . S
H628 C601 0.931 . S
H629 C603 0.929 . S
H630 C604 0.930 . S
H631 C605 0.931 . S
H632 C612 0.932 . S
H633 C613 0.930 . S
H634 C614 0.929 . S
H635 C616 0.930 . S
H636 C618 0.932 . S
H637 C619 0.929 . S
H638 C620 0.928 . S
H639 C622 0.932 . S
H640 C646 0.930 . S
H641 C649 0.930 . S
H642 C650 0.930 . S
H643 C651 0.930 . S
H644 C654 0.930 . S
H645 C655 0.930 . S
C646 H640 0.930 . S
C646 C647 1.355 . S
C646 C648 1.415 . S
C647 C646 1.355 . S
C647 C649 1.419 . S
C648 C646 1.415 . S
C648 C653 1.425 . S
C648 C655 1.409 . S
C649 H641 0.930 . S
C649 C647 1.419 . S
C649 C650 1.362 . S
C650 H642 0.930 . S
C650 C649 1.362 . S
C650 C653 1.409 . S
C651 H643 0.930 . S
C651 C652 1.355 . S
C651 C653 1.415 . S
C652 C651 1.355 . S
C652 C654 1.419 . S
C653 C648 1.425 . S
C653 C650 1.409 . S
C653 C651 1.415 . S
C654 H644 0.930 . S
C654 C652 1.419 . S
C654 C655 1.362 . S
C655 H645 0.930 . S
C655 C648 1.409 . S
C655 C654 1.362 . S
H656 C662 0.930 . S
H657 C665 0.930 . S
H658 C666 0.930 . S
H659 C667 0.930 . S
H660 C670 0.930 . S
H661 C671 0.930 . S
C662 H656 0.930 . S
C662 C663 1.355 . S
C662 C664 1.415 . S
C663 C662 1.355 . S
C663 C665 1.419 . S
C664 C662 1.415 . S
C664 C669 1.425 . S
C664 C671 1.409 . S
C665 H657 0.930 . S
C665 C663 1.419 . S
C665 C666 1.362 . S
C666 H658 0.930 . S
C666 C665 1.362 . S
C666 C669 1.409 . S
C667 H659 0.930 . S
C667 C668 1.355 . S
C667 C669 1.415 . S
C668 C667 1.355 . S
C668 C670 1.419 . S
C669 C664 1.425 . S
C669 C666 1.409 . S
C669 C667 1.415 . S
C670 H660 0.930 . S
C670 C668 1.419 . S
C670 C671 1.362 . S
C671 H661 0.930 . S
C671 C664 1.409 . S
C671 C670 1.362 . S
H672 C678 0.930 . S
H673 C681 0.930 . S
H674 C682 0.930 . S
H675 C683 0.930 . S
H676 C686 0.930 . S
H677 C687 0.930 . S
C678 H672 0.930 . S
C678 C679 1.355 . S
C678 C680 1.415 . S
C679 C678 1.355 . S
C679 C681 1.419 . S
C680 C678 1.415 . S
C680 C685 1.425 . S
C680 C687 1.409 . S
C681 H673 0.930 . S
C681 C679 1.419 . S
C681 C682 1.362 . S
C682 H674 0.930 . S
C682 C681 1.362 . S
C682 C685 1.409 . S
C683 H675 0.930 . S
C683 C684 1.355 . S
C683 C685 1.415 . S
C684 C683 1.355 . S
C684 C686 1.419 . S
C685 C680 1.425 . S
C685 C682 1.409 . S
C685 C683 1.415 . S
C686 H676 0.930 . S
C686 C684 1.419 . S
C686 C687 1.362 . S
C687 H677 0.930 . S
C687 C680 1.409 . S
C687 C686 1.362 . S
H688 C694 0.930 . S
H689 C697 0.930 . S
H690 C698 0.930 . S
H691 C699 0.930 . S
H692 C702 0.930 . S
H693 C703 0.930 . S
C694 H688 0.930 . S
C694 C695 1.355 . S
C694 C696 1.415 . S
C695 C694 1.355 . S
C695 C697 1.419 . S
C696 C694 1.415 . S
C696 C701 1.425 . S
C696 C703 1.409 . S
C697 H689 0.930 . S
C697 C695 1.419 . S
C697 C698 1.362 . S
C698 H690 0.930 . S
C698 C697 1.362 . S
C698 C701 1.409 . S
C699 H691 0.930 . S
C699 C700 1.355 . S
C699 C701 1.415 . S
C700 C699 1.355 . S
C700 C702 1.419 . S
C701 C696 1.425 . S
C701 C698 1.409 . S
C701 C699 1.415 . S
C702 H692 0.930 . S
C702 C700 1.419 . S
C702 C703 1.362 . S
C703 H693 0.930 . S
C703 C696 1.409 . S
C703 C702 1.362 . S
H704 C710 0.930 . S
H705 C713 0.930 . S
H706 C714 0.930 . S
H707 C715 0.930 . S
H708 C718 0.930 . S
H709 C719 0.930 . S
C710 H704 0.930 . S
C710 C711 1.355 . S
C710 C712 1.415 . S
C711 C710 1.355 . S
C711 C713 1.419 . S
C712 C710 1.415 . S
C712 C717 1.425 . S
C712 C719 1.409 . S
C713 H705 0.930 . S
C713 C711 1.419 . S
C713 C714 1.362 . S
C714 H706 0.930 . S
C714 C713 1.362 . S
C714 C717 1.409 . S
C715 H707 0.930 . S
C715 C716 1.355 . S
C715 C717 1.415 . S
C716 C715 1.355 . S
C716 C718 1.419 . S
C717 C712 1.425 . S
C717 C714 1.409 . S
C717 C715 1.415 . S
C718 H708 0.930 . S
C718 C716 1.419 . S
C718 C719 1.362 . S
C719 H709 0.930 . S
C719 C712 1.409 . S
C719 C718 1.362 . S
H720 C726 0.930 . S
H721 C729 0.930 . S
H722 C730 0.930 . S
H723 C731 0.930 . S
H724 C734 0.930 . S
H725 C735 0.930 . S
C726 H720 0.930 . S
C726 C727 1.355 . S
C726 C728 1.415 . S
C727 C726 1.355 . S
C727 C729 1.419 . S
C728 C726 1.415 . S
C728 C733 1.425 . S
C728 C735 1.409 . S
C729 H721 0.930 . S
C729 C727 1.419 . S
C729 C730 1.362 . S
C730 H722 0.930 . S
C730 C729 1.362 . S
C730 C733 1.409 . S
C731 H723 0.930 . S
C731 C732 1.355 . S
C731 C733 1.415 . S
C732 C731 1.355 . S
C732 C734 1.419 . S
C733 C728 1.425 . S
C733 C730 1.409 . S
C733 C731 1.415 . S
C734 H724 0.930 . S
C734 C732 1.419 . S
C734 C735 1.362 . S
C735 H725 0.930 . S
C735 C728 1.409 . S
C735 C734 1.362 . S
H736 C742 0.930 . S
H737 C745 0.930 . S
H738 C746 0.930 . S
H739 C747 0.930 . S
H740 C750 0.930 . S
H741 C751 0.930 . S
C742 H736 0.930 . S
C742 C743 1.355 . S
C742 C744 1.415 . S
C743 C742 1.355 . S
C743 C745 1.419 . S
C744 C742 1.415 . S
C744 C749 1.425 . S
C744 C751 1.409 . S
C745 H737 0.930 . S
C745 C743 1.419 . S
C745 C746 1.362 . S
C746 H738 0.930 . S
C746 C745 1.362 . S
C746 C749 1.409 . S
C747 H739 0.930 . S
C747 C748 1.355 . S
C747 C749 1.415 . S
C748 C747 1.355 . S
C748 C750 1.419 . S
C749 C744 1.425 . S
C749 C746 1.409 . S
C749 C747 1.415 . S
C750 H740 0.930 . S
C750 C748 1.419 . S
C750 C751 1.362 . S
C751 H741 0.930 . S
C751 C744 1.409 . S
C751 C750 1.362 . S
H752 C758 0.930 . S
H753 C761 0.930 . S
H754 C762 0.930 . S
H755 C763 0.930 . S
H756 C766 0.930 . S
H757 C767 0.930 . S
C758 H752 0.930 . S
C758 C759 1.355 . S
C758 C760 1.415 . S
C759 C758 1.355 . S
C759 C761 1.419 . S
C760 C758 1.415 . S
C760 C765 1.425 . S
C760 C767 1.409 . S
C761 H753 0.930 . S
C761 C759 1.419 . S
C761 C762 1.362 . S
C762 H754 0.930 . S
C762 C761 1.362 . S
C762 C765 1.409 . S
C763 H755 0.930 . S
C763 C764 1.355 . S
C763 C765 1.415 . S
C764 C763 1.355 . S
C764 C766 1.419 . S
C765 C760 1.425 . S
C765 C762 1.409 . S
C765 C763 1.415 . S
C766 H756 0.930 . S
C766 C764 1.419 . S
C766 C767 1.362 . S
C767 H757 0.930 . S
C767 C760 1.409 . S
C767 C766 1.362 . S
H768 C774 0.930 . S
H769 C777 0.930 . S
H770 C778 0.930 . S
H771 C779 0.930 . S
H772 C782 0.930 . S
H773 C783 0.930 . S
C774 H768 0.930 . S
C774 C775 1.355 1_556 S
C774 C776 1.415 . S
C775 C774 1.355 1_554 S
C775 C777 1.419 . S
C776 C774 1.415 . S
C776 C781 1.425 1_556 S
C776 C783 1.409 . S
C777 H769 0.930 . S
C777 C775 1.419 . S
C777 C778 1.362 . S
C778 H770 0.930 . S
C778 C777 1.362 . S
C778 C781 1.409 . S
C779 H771 0.930 . S
C779 C780 1.355 1_554 S
C779 C781 1.415 . S
C780 C779 1.355 1_556 S
C780 C782 1.419 . S
C781 C776 1.425 1_554 S
C781 C778 1.409 . S
C781 C779 1.415 . S
C782 H772 0.930 . S
C782 C780 1.419 . S
C782 C783 1.362 . S
C783 H773 0.930 . S
C783 C776 1.409 . S
C783 C782 1.362 . S
H784 C790 0.930 . S
H785 C793 0.930 . S
H786 C794 0.930 . S
H787 C795 0.930 . S
H788 C798 0.930 . S
H789 C799 0.930 . S
C790 H784 0.930 . S
C790 C791 1.355 . S
C790 C792 1.415 . S
C791 C790 1.355 . S
C791 C793 1.419 . S
C792 C790 1.415 . S
C792 C797 1.425 . S
C792 C799 1.409 . S
C793 H785 0.930 . S
C793 C791 1.419 . S
C793 C794 1.362 . S
C794 H786 0.930 . S
C794 C793 1.362 . S
C794 C797 1.409 . S
C795 H787 0.930 . S
C795 C796 1.355 . S
C795 C797 1.415 . S
C796 C795 1.355 . S
C796 C798 1.419 . S
C797 C792 1.425 . S
C797 C794 1.409 . S
C797 C795 1.415 . S
C798 H788 0.930 . S
C798 C796 1.419 . S
C798 C799 1.362 . S
C799 H789 0.930 . S
C799 C792 1.409 . S
C799 C798 1.362 . S
H800 C806 0.930 . S
H801 C809 0.930 . S
H802 C810 0.930 . S
H803 C811 0.930 . S
H804 C814 0.930 . S
H805 C815 0.930 . S
C806 H800 0.930 . S
C806 C807 1.355 . S
C806 C808 1.406 1_556 S
C807 C806 1.355 . S
C807 C809 1.419 . S
C808 C806 1.406 1_554 S
C808 C813 1.424 1_554 S
C808 C815 1.419 . S
C809 H801 0.930 . S
C809 C807 1.419 . S
C809 C810 1.362 . S
C810 H802 0.930 . S
C810 C809 1.362 . S
C810 C813 1.419 . S
C811 H803 0.930 . S
C811 C812 1.355 . S
C811 C813 1.406 1_554 S
C812 C811 1.355 . S
C812 C814 1.419 . S
C813 C808 1.424 1_556 S
C813 C810 1.419 . S
C813 C811 1.406 1_556 S
C814 H804 0.930 . S
C814 C812 1.419 . S
C814 C815 1.362 . S
C815 H805 0.930 . S
C815 C808 1.419 . S
C815 C814 1.362 . S
H816 C822 0.930 . S
H817 C825 0.930 . S
H818 C826 0.930 . S
H819 C827 0.930 . S
H820 C830 0.930 . S
H821 C831 0.930 . S
C822 H816 0.930 . S
C822 C823 1.355 . S
C822 C824 1.415 . S
C823 C822 1.355 . S
C823 C825 1.419 . S
C824 C822 1.415 . S
C824 C829 1.425 . S
C824 C831 1.409 . S
C825 H817 0.930 . S
C825 C823 1.419 . S
C825 C826 1.362 . S
C826 H818 0.930 . S
C826 C825 1.362 . S
C826 C829 1.409 . S
C827 H819 0.930 . S
C827 C828 1.355 . S
C827 C829 1.415 . S
C828 C827 1.355 . S
C828 C830 1.419 . S
C829 C824 1.425 . S
C829 C826 1.409 . S
C829 C827 1.415 . S
C830 H820 0.930 . S
C830 C828 1.419 . S
C830 C831 1.362 . S
C831 H821 0.930 . S
C831 C824 1.409 . S
C831 C830 1.362 . S
H832 C838 0.930 . S
H833 C841 0.930 . S
H834 C842 0.930 . S
H835 C843 0.930 . S
H836 C846 0.930 . S
H837 C847 0.930 . S
C838 H832 0.930 . S
C838 C839 1.355 1_556 S
C838 C840 1.415 . S
C839 C838 1.355 1_554 S
C839 C841 1.419 . S
C840 C838 1.415 . S
C840 C845 1.425 1_556 S
C840 C847 1.409 . S
C841 H833 0.930 . S
C841 C839 1.419 . S
C841 C842 1.362 . S
C842 H834 0.930 . S
C842 C841 1.362 . S
C842 C845 1.409 . S
C843 H835 0.930 . S
C843 C844 1.355 1_554 S
C843 C845 1.415 . S
C844 C843 1.355 1_556 S
C844 C846 1.419 . S
C845 C840 1.425 1_554 S
C845 C842 1.409 . S
C845 C843 1.415 . S
C846 H836 0.930 . S
C846 C844 1.419 . S
C846 C847 1.362 . S
C847 H837 0.930 . S
C847 C840 1.409 . S
C847 C846 1.362 . S
H848 C854 0.930 . S
H849 C857 0.930 . S
H850 C858 0.930 . S
H851 C859 0.930 . S
H852 C862 0.930 . S
H853 C863 0.930 . S
C854 H848 0.930 . S
C854 C855 1.355 . S
C854 C856 1.415 . S
C855 C854 1.355 . S
C855 C857 1.419 . S
C856 C854 1.415 . S
C856 C861 1.425 . S
C856 C863 1.409 . S
C857 H849 0.930 . S
C857 C855 1.419 . S
C857 C858 1.362 . S
C858 H850 0.930 . S
C858 C857 1.362 . S
C858 C861 1.409 . S
C859 H851 0.930 . S
C859 C860 1.355 . S
C859 C861 1.415 . S
C860 C859 1.355 . S
C860 C862 1.419 . S
C861 C856 1.425 . S
C861 C858 1.409 . S
C861 C859 1.415 . S
C862 H852 0.930 . S
C862 C860 1.419 . S
C862 C863 1.362 . S
C863 H853 0.930 . S
C863 C856 1.409 . S
C863 C862 1.362 . S
H864 C870 0.930 . S
H865 C873 0.930 . S
H866 C874 0.930 . S
H867 C875 0.930 . S
H868 C878 0.930 . S
H869 C879 0.930 . S
C870 H864 0.930 . S
C870 C871 1.355 . S
C870 C872 1.415 . S
C871 C870 1.355 . S
C871 C873 1.419 . S
C872 C870 1.415 . S
C872 C877 1.425 1_554 S
C872 C879 1.409 1_554 S
C873 H865 0.930 . S
C873 C871 1.419 . S
C873 C874 1.362 . S
C874 H866 0.930 . S
C874 C873 1.362 . S
C874 C877 1.409 1_554 S
C875 H867 0.930 . S
C875 C876 1.355 . S
C875 C877 1.415 . S
C876 C875 1.355 . S
C876 C878 1.419 . S
C877 C872 1.425 1_556 S
C877 C874 1.409 1_556 S
C877 C875 1.415 . S
C878 H868 0.930 . S
C878 C876 1.419 . S
C878 C879 1.362 . S
C879 H869 0.930 . S
C879 C872 1.409 1_556 S
C879 C878 1.362 . S
H880 C886 0.930 . S
H881 C889 0.930 . S
H882 C890 0.930 . S
H883 C891 0.930 . S
H884 C894 0.930 . S
H885 C895 0.930 . S
C886 H880 0.930 . S
C886 C887 1.355 . S
C886 C888 1.415 . S
C887 C886 1.355 . S
C887 C889 1.419 . S
C888 C886 1.415 . S
C888 C893 1.425 . S
C888 C895 1.409 . S
C889 H881 0.930 . S
C889 C887 1.419 . S
C889 C890 1.362 . S
C890 H882 0.930 . S
C890 C889 1.362 . S
C890 C893 1.409 . S
C891 H883 0.930 . S
C891 C892 1.355 . S
C891 C893 1.415 . S
C892 C891 1.355 . S
C892 C894 1.419 . S
C893 C888 1.425 . S
C893 C890 1.409 . S
C893 C891 1.415 . S
C894 H884 0.930 . S
C894 C892 1.419 . S
C894 C895 1.362 . S
C895 H885 0.930 . S
C895 C888 1.409 . S
C895 C894 1.362 . S
H896 C902 0.930 . S
H897 C905 0.930 . S
H898 C906 0.930 . S
H899 C907 0.930 . S
H900 C910 0.930 . S
H901 C911 0.930 . S
C902 H896 0.930 . S
C902 C903 1.355 . S
C902 C904 1.415 1_655 S
C903 C902 1.355 . S
C903 C905 1.419 . S
C904 C902 1.415 1_455 S
C904 C909 1.425 1_456 S
C904 C911 1.409 1_556 S
C905 H897 0.930 . S
C905 C903 1.419 . S
C905 C906 1.362 . S
C906 H898 0.930 . S
C906 C905 1.362 . S
C906 C909 1.409 1_556 S
C907 H899 0.930 . S
C907 C908 1.355 . S
C907 C909 1.415 1_455 S
C908 C907 1.355 . S
C908 C910 1.419 . S
C909 C904 1.425 1_654 S
C909 C906 1.409 1_554 S
C909 C907 1.415 1_655 S
C910 H900 0.930 . S
C910 C908 1.419 . S
C910 C911 1.362 . S
C911 H901 0.930 . S
C911 C904 1.409 1_554 S
C911 C910 1.362 . S
H912 C918 0.930 . S
H913 C921 0.930 . S
H914 C922 0.930 . S
H915 C923 0.930 . S
H916 C926 0.930 . S
H917 C927 0.930 . S
C918 H912 0.930 . S
C918 C919 1.355 . S
C918 C920 1.401 1_455 S
C919 C918 1.355 . S
C919 C921 1.419 . S
C920 C918 1.401 1_655 S
C920 C925 1.423 1_645 S
C920 C927 1.425 . S
C921 H913 0.930 . S
C921 C919 1.419 . S
C921 C922 1.362 1_545 S
C922 H914 0.930 . S
C922 C921 1.362 1_565 S
C922 C925 1.425 . S
C923 H915 0.930 . S
C923 C924 1.355 . S
C923 C925 1.401 1_655 S
C924 C923 1.355 . S
C924 C926 1.419 . S
C925 C920 1.423 1_465 S
C925 C922 1.425 . S
C925 C923 1.401 1_455 S
C926 H916 0.930 . S
C926 C924 1.419 . S
C926 C927 1.362 1_565 S
C927 H917 0.930 . S
C927 C920 1.425 . S
C927 C926 1.362 1_545 S
H928 C934 0.922 1_566 S
H929 C937 0.930 . S
H930 C938 0.930 . S
H931 C939 0.922 1_544 S
H932 C942 0.930 . S
H933 C943 0.930 . S
C934 H928 0.922 1_544 S
C934 C935 1.355 . S
C934 C936 1.415 1_544 S
C935 C934 1.355 . S
C935 C937 1.419 . S
C936 C934 1.415 1_566 S
C936 C941 1.425 1_566 S
C936 C943 1.409 . S
C937 H929 0.930 . S
C937 C935 1.419 . S
C937 C938 1.362 . S
C938 H930 0.930 . S
C938 C937 1.362 . S
C938 C941 1.409 . S
C939 H931 0.922 1_566 S
C939 C940 1.355 . S
C939 C941 1.415 1_566 S
C940 C939 1.355 . S
C940 C942 1.419 . S
C941 C936 1.425 1_544 S
C941 C938 1.409 . S
C941 C939 1.415 1_544 S
C942 H932 0.930 . S
C942 C940 1.419 . S
C942 C943 1.362 . S
C943 H933 0.930 . S
C943 C936 1.409 . S
C943 C942 1.362 . S
H944 C950 0.930 . S
H945 C953 0.930 . S
H946 C954 0.930 . S
H947 C955 0.930 . S
H948 C958 0.930 . S
H949 C959 0.930 . S
C950 H944 0.930 . S
C950 C951 1.355 . S
C950 C952 1.415 . S
C951 C950 1.355 . S
C951 C953 1.419 . S
C952 C950 1.415 . S
C952 C957 1.425 . S
C952 C959 1.409 . S
C953 H945 0.930 . S
C953 C951 1.419 . S
C953 C954 1.362 . S
C954 H946 0.930 . S
C954 C953 1.362 . S
C954 C957 1.409 . S
C955 H947 0.930 . S
C955 C956 1.355 . S
C955 C957 1.415 . S
C956 C955 1.355 . S
C956 C958 1.419 . S
C957 C952 1.425 . S
C957 C954 1.409 . S
C957 C955 1.415 . S
C958 H948 0.930 . S
C958 C956 1.419 . S
C958 C959 1.362 . S
C959 H949 0.930 . S
C959 C952 1.409 . S
C959 C958 1.362 . S
H960 C966 0.930 1_565 S
H961 C969 0.930 . S
H962 C970 0.930 1_655 S
H963 C971 0.930 1_545 S
H964 C974 0.930 . S
H965 C975 0.930 1_455 S
C966 H960 0.930 1_545 S
C966 C967 1.355 . S
C966 C968 1.415 1_545 S
C967 C966 1.355 . S
C967 C969 1.419 1_556 S
C968 C966 1.415 1_565 S
C968 C973 1.425 1_466 S
C968 C975 1.409 1_455 S
C969 H961 0.930 . S
C969 C967 1.419 1_554 S
C969 C970 1.362 . S
C970 H962 0.930 1_455 S
C970 C969 1.362 . S
C970 C973 1.409 1_455 S
C971 H963 0.930 1_565 S
C971 C972 1.355 . S
C971 C973 1.415 1_565 S
C972 C971 1.355 . S
C972 C974 1.419 1_554 S
C973 C968 1.425 1_644 S
C973 C970 1.409 1_655 S
C973 C971 1.415 1_545 S
C974 H964 0.930 . S
C974 C972 1.419 1_556 S
C974 C975 1.362 . S
C975 H965 0.930 1_655 S
C975 C968 1.409 1_655 S
C975 C974 1.362 . S
H976 C982 0.930 . S
H977 C985 0.930 . S
H978 C986 0.930 . S
H979 C987 0.930 . S
H980 C990 0.930 . S
H981 C991 0.930 . S
C982 H976 0.930 . S
C982 C983 1.355 . S
C982 C984 1.415 . S
C983 C982 1.355 . S
C983 C985 1.419 . S
C984 C982 1.415 . S
C984 C989 1.425 1_545 S
C984 C991 1.409 . S
C985 H977 0.930 . S
C985 C983 1.419 . S
C985 C986 1.362 1_545 S
C986 H978 0.930 . S
C986 C985 1.362 1_565 S
C986 C989 1.409 . S
C987 H979 0.930 . S
C987 C988 1.355 . S
C987 C989 1.415 . S
C988 C987 1.355 . S
C988 C990 1.419 . S
C989 C984 1.425 1_565 S
C989 C986 1.409 . S
C989 C987 1.415 . S
C990 H980 0.930 . S
C990 C988 1.419 . S
C990 C991 1.362 1_565 S
C991 H981 0.930 . S
C991 C984 1.409 . S
C991 C990 1.362 1_545 S
H992 C998 0.930 1_556 S
H993 C1001 0.930 . S
H994 C1002 0.930 . S
H995 C1003 0.930 1_554 S
H996 C1006 0.930 . S
H997 C1007 0.930 . S
C998 H992 0.930 1_554 S
C998 C999 1.355 . S
C998 C1000 1.415 1_554 S
C999 C998 1.355 . S
C999 C1001 1.419 . S
C1000 C998 1.415 1_556 S
C1000 C1005 1.425 1_556 S
C1000 C1007 1.409 . S
C1001 H993 0.930 . S
C1001 C999 1.419 . S
C1001 C1002 1.362 . S
C1002 H994 0.930 . S
C1002 C1001 1.362 . S
C1002 C1005 1.409 . S
C1003 H995 0.930 1_556 S
C1003 C1004 1.355 . S
C1003 C1005 1.415 1_556 S
C1004 C1003 1.355 . S
C1004 C1006 1.419 . S
C1005 C1000 1.425 1_554 S
C1005 C1002 1.409 . S
C1005 C1003 1.415 1_554 S
C1006 H996 0.930 . S
C1006 C1004 1.419 . S
C1006 C1007 1.362 . S
C1007 H997 0.930 . S
C1007 C1000 1.409 . S
C1007 C1006 1.362 . S
H1008 C1014 0.930 1_455 S
H1009 C1017 0.930 . S
H1010 C1018 0.930 . S
H1011 C1019 0.930 1_655 S
H1012 C1022 0.930 . S
H1013 C1023 0.930 . S
C1014 H1008 0.930 1_655 S
C1014 C1015 1.355 . S
C1014 C1016 1.415 1_655 S
C1015 C1014 1.355 . S
C1015 C1017 1.419 . S
C1016 C1014 1.415 1_455 S
C1016 C1021 1.425 1_455 S
C1016 C1023 1.409 . S
C1017 H1009 0.930 . S
C1017 C1015 1.419 . S
C1017 C1018 1.362 . S
C1018 H1010 0.930 . S
C1018 C1017 1.362 . S
C1018 C1021 1.409 . S
C1019 H1011 0.930 1_455 S
C1019 C1020 1.355 . S
C1019 C1021 1.415 1_455 S
C1020 C1019 1.355 . S
C1020 C1022 1.419 . S
C1021 C1016 1.425 1_655 S
C1021 C1018 1.409 . S
C1021 C1019 1.415 1_655 S
C1022 H1012 0.930 . S
C1022 C1020 1.419 . S
C1022 C1023 1.362 . S
C1023 H1013 0.930 . S
C1023 C1016 1.409 . S
C1023 C1022 1.362 . S
C647 C21 1.703 . S
C652 C301 1.730 . S
C663 C61 1.724 . S
C668 C181 1.699 . S
C679 C221 1.694 . S
C684 C101 1.716 . S
C695 C261 1.688 . S
C700 C141 1.696 . S
C711 C341 1.825 . S
C716 C621 1.823 . S
C727 C501 1.823 . S
C732 C381 1.824 . S
C743 C541 1.825 . S
C748 C421 1.824 . S
C759 C461 1.825 . S
C764 C581 1.826 . S
C775 C15 1.673 . S
C780 C175 1.691 . S
C791 C215 1.676 . S
C796 C55 1.679 . S
C807 C255 1.692 . S
C812 C95 1.673 . S
C823 C135 1.700 . S
C828 C295 1.690 . S
C839 C495 1.685 . S
C844 C335 1.681 . S
C855 C535 1.680 . S
C860 C375 1.686 . S
C871 C575 1.701 . S
C876 C415 1.685 . S
C887 C455 1.695 . S
C892 C615 1.680 . S
C903 C322 1.893 . S
C908 C2 1.805 . S
C919 C42 1.756 . S
C924 C362 1.874 . S
C935 C82 1.737 . S
C940 C402 1.865 . S
C951 C442 1.864 . S
C956 C122 1.745 . S
C967 C162 1.746 . S
C972 C482 1.865 . S
C983 C202 1.738 . S
C988 C522 1.863 . S
C999 C562 1.862 . S
C1004 C242 1.737 . S
C1015 C602 1.864 . S
C1020 C282 1.742 . S
