# Generated by pormake.
# Topology whk, (6)-cn, num edge types: 1
# Building blocks:
#     Node 0, Type 0, BuildingBlock: MIFKUJ_clean_sbu_0, # of connection points: 6
#     Node 1, Type 0, BuildingBlock: MIFKUJ_clean_sbu_0, # of connection points: 6
#     Node 2, Type 0, BuildingBlock: MIFKUJ_clean_sbu_0, # of connection points: 6
#     Node 3, Type 0, BuildingBlock: MIFKUJ_clean_sbu_0, # of connection points: 6
#     Node 4, Type 0, BuildingBlock: MIFKUJ_clean_sbu_0, # of connection points: 6
#     Node 5, Type 0, BuildingBlock: MIFKUJ_clean_sbu_0, # of connection points: 6
#     Node 6, Type 0, BuildingBlock: MIFKUJ_clean_sbu_0, # of connection points: 6
#     Node 7, Type 0, BuildingBlock: MIFKUJ_clean_sbu_0, # of connection points: 6
#     Node 8, Type 0, BuildingBlock: MIFKUJ_clean_sbu_0, # of connection points: 6
#     Node 9, Type 0, BuildingBlock: MIFKUJ_clean_sbu_0, # of connection points: 6
#     Node 10, Type 0, BuildingBlock: MIFKUJ_clean_sbu_0, # of connection points: 6
#     Node 11, Type 0, BuildingBlock: MIFKUJ_clean_sbu_0, # of connection points: 6
#     Node 12, Type 0, BuildingBlock: MIFKUJ_clean_sbu_0, # of connection points: 6
#     Node 13, Type 0, BuildingBlock: MIFKUJ_clean_sbu_0, # of connection points: 6
#     Node 14, Type 0, BuildingBlock: MIFKUJ_clean_sbu_0, # of connection points: 6
#     Node 15, Type 0, BuildingBlock: MIFKUJ_clean_sbu_0, # of connection points: 6
#     Edge 16, Type (0, 0), BuildingBlock: OJICUG_clean_linker_0, # of connection points: 2
#     Edge 17, Type (0, 0), BuildingBlock: OJICUG_clean_linker_0, # of connection points: 2
#     Edge 18, Type (0, 0), BuildingBlock: OJICUG_clean_linker_0, # of connection points: 2
#     Edge 19, Type (0, 0), BuildingBlock: OJICUG_clean_linker_0, # of connection points: 2
#     Edge 20, Type (0, 0), BuildingBlock: OJICUG_clean_linker_0, # of connection points: 2
#     Edge 21, Type (0, 0), BuildingBlock: OJICUG_clean_linker_0, # of connection points: 2
#     Edge 22, Type (0, 0), BuildingBlock: OJICUG_clean_linker_0, # of connection points: 2
#     Edge 23, Type (0, 0), BuildingBlock: OJICUG_clean_linker_0, # of connection points: 2
#     Edge 24, Type (0, 0), BuildingBlock: OJICUG_clean_linker_0, # of connection points: 2
#     Edge 25, Type (0, 0), BuildingBlock: OJICUG_clean_linker_0, # of connection points: 2
#     Edge 26, Type (0, 0), BuildingBlock: OJICUG_clean_linker_0, # of connection points: 2
#     Edge 27, Type (0, 0), BuildingBlock: OJICUG_clean_linker_0, # of connection points: 2
#     Edge 28, Type (0, 0), BuildingBlock: OJICUG_clean_linker_0, # of connection points: 2
#     Edge 29, Type (0, 0), BuildingBlock: OJICUG_clean_linker_0, # of connection points: 2
#     Edge 30, Type (0, 0), BuildingBlock: OJICUG_clean_linker_0, # of connection points: 2
#     Edge 31, Type (0, 0), BuildingBlock: OJICUG_clean_linker_0, # of connection points: 2
#     Edge 32, Type (0, 0), BuildingBlock: OJICUG_clean_linker_0, # of connection points: 2
#     Edge 33, Type (0, 0), BuildingBlock: OJICUG_clean_linker_0, # of connection points: 2
#     Edge 34, Type (0, 0), BuildingBlock: OJICUG_clean_linker_0, # of connection points: 2
#     Edge 35, Type (0, 0), BuildingBlock: OJICUG_clean_linker_0, # of connection points: 2
#     Edge 36, Type (0, 0), BuildingBlock: OJICUG_clean_linker_0, # of connection points: 2
#     Edge 37, Type (0, 0), BuildingBlock: OJICUG_clean_linker_0, # of connection points: 2
#     Edge 38, Type (0, 0), BuildingBlock: OJICUG_clean_linker_0, # of connection points: 2
#     Edge 39, Type (0, 0), BuildingBlock: OJICUG_clean_linker_0, # of connection points: 2
#     Edge 40, Type (0, 0), BuildingBlock: OJICUG_clean_linker_0, # of connection points: 2
#     Edge 41, Type (0, 0), BuildingBlock: OJICUG_clean_linker_0, # of connection points: 2
#     Edge 42, Type (0, 0), BuildingBlock: OJICUG_clean_linker_0, # of connection points: 2
#     Edge 43, Type (0, 0), BuildingBlock: OJICUG_clean_linker_0, # of connection points: 2
#     Edge 44, Type (0, 0), BuildingBlock: OJICUG_clean_linker_0, # of connection points: 2
#     Edge 45, Type (0, 0), BuildingBlock: OJICUG_clean_linker_0, # of connection points: 2
#     Edge 46, Type (0, 0), BuildingBlock: OJICUG_clean_linker_0, # of connection points: 2
#     Edge 47, Type (0, 0), BuildingBlock: OJICUG_clean_linker_0, # of connection points: 2
#     Edge 48, Type (0, 0), BuildingBlock: OJICUG_clean_linker_0, # of connection points: 2
#     Edge 49, Type (0, 0), BuildingBlock: OJICUG_clean_linker_0, # of connection points: 2
#     Edge 50, Type (0, 0), BuildingBlock: OJICUG_clean_linker_0, # of connection points: 2
#     Edge 51, Type (0, 0), BuildingBlock: OJICUG_clean_linker_0, # of connection points: 2
#     Edge 52, Type (0, 0), BuildingBlock: OJICUG_clean_linker_0, # of connection points: 2
#     Edge 53, Type (0, 0), BuildingBlock: OJICUG_clean_linker_0, # of connection points: 2
#     Edge 54, Type (0, 0), BuildingBlock: OJICUG_clean_linker_0, # of connection points: 2
#     Edge 55, Type (0, 0), BuildingBlock: OJICUG_clean_linker_0, # of connection points: 2
#     Edge 56, Type (0, 0), BuildingBlock: OJICUG_clean_linker_0, # of connection points: 2
#     Edge 57, Type (0, 0), BuildingBlock: OJICUG_clean_linker_0, # of connection points: 2
#     Edge 58, Type (0, 0), BuildingBlock: OJICUG_clean_linker_0, # of connection points: 2
#     Edge 59, Type (0, 0), BuildingBlock: OJICUG_clean_linker_0, # of connection points: 2
#     Edge 60, Type (0, 0), BuildingBlock: OJICUG_clean_linker_0, # of connection points: 2
#     Edge 61, Type (0, 0), BuildingBlock: OJICUG_clean_linker_0, # of connection points: 2
#     Edge 62, Type (0, 0), BuildingBlock: OJICUG_clean_linker_0, # of connection points: 2
#     Edge 63, Type (0, 0), BuildingBlock: OJICUG_clean_linker_0, # of connection points: 2
# Relax obj value: 0.403
# Max RMSD: 0.271
# Mean RMSD: 0.271
data_MOF--net-whk--node1-MIFKUJ_clean_sbu_0--edge1-OJICUG_clean_linker_0
_symmetry_space_group_name_H-M    P1
_symmetry_Int_Tables_number       1
_symmetry_cell_setting            triclinic
loop_
_symmetry_equiv_pos_as_xyz
'x, y, z'
_cell_length_a     30.809096
_cell_length_b     30.836016
_cell_length_c     30.923184
_cell_angle_alpha  89.952449
_cell_angle_beta   90.03674
_cell_angle_gamma 90.072755
loop_
_atom_site_label
_atom_site_type_symbol
_atom_site_fract_x
_atom_site_fract_y
_atom_site_fract_z
_atom_type_partial_charge
Zn0 Zn 0.49347 0.14913 0.39432 0.0
Zn1 Zn 0.61435 0.14904 0.38905 0.0
C2 C 0.45648 0.23084 0.40073 0.0
O3 O 0.44967 0.21373 0.43907 0.0
C4 C 0.67637 0.09275 0.42627 0.0
O5 O 0.68482 0.08906 0.38479 0.0
O6 O 0.4367 0.11947 0.40896 0.0
O7 O 0.52095 0.1137 0.345 0.0
O8 O 0.59308 0.11029 0.34338 0.0
C9 C 0.41162 0.11007 0.37756 0.0
O10 O 0.42462 0.11824 0.33791 0.0
O11 O 0.47533 0.20806 0.37204 0.0
C12 C 0.6777 0.20557 0.39858 0.0
O13 O 0.65734 0.20169 0.43572 0.0
O14 O 0.66424 0.18378 0.36645 0.0
O15 O 0.57292 0.1965 0.40632 0.0
O16 O 0.52717 0.16482 0.44968 0.0
O17 O 0.64305 0.11448 0.43774 0.0
C18 C 0.5562 0.09955 0.32867 0.0
C19 C 0.55473 0.19479 0.44288 0.0
Zn20 Zn 0.35929 0.48827 0.39048 0.0
Zn21 Zn 0.37233 0.61695 0.3977 0.0
C22 C 0.27602 0.45436 0.40175 0.0
O23 O 0.29544 0.44387 0.43813 0.0
C24 C 0.43413 0.67964 0.42314 0.0
O25 O 0.42995 0.68902 0.38189 0.0
O26 O 0.38769 0.43049 0.40122 0.0
O27 O 0.39293 0.51745 0.34133 0.0
O28 O 0.40151 0.58903 0.34775 0.0
C29 C 0.39792 0.40622 0.36958 0.0
O30 O 0.39112 0.42003 0.32995 0.0
O31 O 0.29764 0.47439 0.37286 0.0
C32 C 0.32205 0.68664 0.41112 0.0
O33 O 0.33172 0.67096 0.44947 0.0
O34 O 0.3367 0.66762 0.3777 0.0
O35 O 0.32691 0.58294 0.42871 0.0
O36 O 0.35359 0.51964 0.44774 0.0
O37 O 0.41599 0.64538 0.4376 0.0
C38 C 0.40835 0.55352 0.32816 0.0
C39 C 0.32332 0.54751 0.449 0.0
Zn40 Zn 0.01786 0.35812 0.39371 0.0
Zn41 Zn 0.89632 0.36545 0.39013 0.0
C42 C 0.05238 0.27491 0.40441 0.0
O43 O 0.05859 0.29297 0.44239 0.0
C44 C 0.83574 0.42401 0.42618 0.0
O45 O 0.82782 0.42787 0.3846 0.0
O46 O 0.07483 0.38747 0.40766 0.0
O47 O 0.99114 0.39335 0.34342 0.0
O48 O 0.91947 0.40259 0.34409 0.0
C49 C 0.09883 0.39824 0.3759 0.0
O50 O 0.08481 0.39117 0.33639 0.0
O51 O 0.03499 0.29742 0.37445 0.0
C52 C 0.831 0.31116 0.3996 0.0
O53 O 0.85101 0.31482 0.43697 0.0
O54 O 0.8454 0.33233 0.36743 0.0
O55 O 0.93532 0.31634 0.40823 0.0
O56 O 0.98392 0.34645 0.44957 0.0
O57 O 0.86836 0.40142 0.4381 0.0
C58 C 0.95653 0.40998 0.32793 0.0
C59 C 0.95489 0.31767 0.4441 0.0
Zn60 Zn 0.15186 0.01743 0.39893 0.0
Zn61 Zn 0.14829 0.89521 0.39602 0.0
C62 C 0.23508 0.05276 0.40735 0.0
O63 O 0.21789 0.05932 0.44566 0.0
C64 C 0.08448 0.8416 0.43451 0.0
O65 O 0.07578 0.83618 0.39327 0.0
O66 O 0.12165 0.07445 0.41144 0.0
O67 O 0.11726 0.98777 0.34953 0.0
O68 O 0.11116 0.91567 0.3486 0.0
C69 C 0.11196 0.09854 0.37935 0.0
O70 O 0.12032 0.08459 0.34009 0.0
O71 O 0.21191 0.03497 0.37814 0.0
C72 C 0.20471 0.83115 0.4106 0.0
O73 O 0.19803 0.85055 0.44779 0.0
O74 O 0.18386 0.84417 0.37758 0.0
O75 O 0.19445 0.9383 0.41118 0.0
O76 O 0.16585 0.98476 0.45534 0.0
O77 O 0.11201 0.87061 0.44525 0.0
C78 C 0.10231 0.95275 0.33313 0.0
C79 C 0.193 0.95456 0.44856 0.0
Zn80 Zn 0.99363 0.85985 0.09772 0.0
Zn81 Zn 0.11497 0.86575 0.10134 0.0
C82 C 0.95785 0.77715 0.08716 0.0
O83 O 0.95195 0.79509 0.04905 0.0
C84 C 0.17564 0.92412 0.06441 0.0
O85 O 0.1842 0.92795 0.10587 0.0
O86 O 0.93708 0.89001 0.08366 0.0
O87 O 0.02082 0.89391 0.14855 0.0
O88 O 0.09259 0.90254 0.14799 0.0
C89 C 0.9121 0.89928 0.11512 0.0
O90 O 0.92488 0.89037 0.15469 0.0
O91 O 0.97548 0.79957 0.11702 0.0
C92 C 0.17982 0.81132 0.09102 0.0
O93 O 0.15938 0.81522 0.05392 0.0
O94 O 0.16597 0.83243 0.12341 0.0
O95 O 0.07556 0.81667 0.0836 0.0
O96 O 0.02758 0.84727 0.04195 0.0
O97 O 0.14263 0.90176 0.05302 0.0
C98 C 0.05562 0.9099 0.16435 0.0
C99 C 0.05614 0.81812 0.04766 0.0
Zn100 Zn 0.65329 0.99377 0.09486 0.0
Zn101 Zn 0.64554 0.11552 0.09872 0.0
C102 C 0.73672 0.95955 0.08546 0.0
O103 O 0.71946 0.9535 0.04707 0.0
C104 C 0.58766 0.17681 0.06223 0.0
O105 O 0.58397 0.18502 0.10375 0.0
O106 O 0.62404 0.93673 0.0811 0.0
O107 O 0.61821 0.02049 0.14489 0.0
O108 O 0.60842 0.09204 0.1448 0.0
C109 C 0.61479 0.91213 0.11291 0.0
O110 O 0.62329 0.92561 0.15232 0.0
O111 O 0.71362 0.97678 0.11497 0.0
C112 C 0.70004 0.18076 0.08959 0.0
O113 O 0.69652 0.16077 0.05223 0.0
O114 O 0.67868 0.16637 0.12165 0.0
O115 O 0.69488 0.07666 0.08074 0.0
O116 O 0.66558 0.0278 0.03915 0.0
O117 O 0.60975 0.14379 0.05056 0.0
C118 C 0.60145 0.05478 0.16074 0.0
C119 C 0.69403 0.05711 0.04487 0.0
Zn120 Zn 0.51848 0.65405 0.09525 0.0
Zn121 Zn 0.39715 0.65047 0.09879 0.0
C122 C 0.5547 0.73636 0.08583 0.0
O123 O 0.56108 0.71848 0.04781 0.0
C124 C 0.33568 0.59308 0.06222 0.0
O125 O 0.32763 0.5892 0.10377 0.0
O126 O 0.57521 0.62408 0.08164 0.0
O127 O 0.49086 0.61931 0.14532 0.0
O128 O 0.4189 0.61256 0.14468 0.0
C129 C 0.59978 0.61474 0.11346 0.0
O130 O 0.5864 0.6234 0.15285 0.0
O131 O 0.53653 0.71396 0.1154 0.0
C132 C 0.33307 0.70614 0.08968 0.0
O133 O 0.35311 0.70269 0.05234 0.0
O134 O 0.34703 0.6844 0.12163 0.0
O135 O 0.43767 0.69862 0.08138 0.0
O136 O 0.48493 0.66758 0.03934 0.0
O137 O 0.36859 0.61538 0.05046 0.0
C138 C 0.45568 0.60387 0.16078 0.0
C139 C 0.45674 0.69704 0.04529 0.0
Zn140 Zn 0.85847 0.51981 0.09561 0.0
Zn141 Zn 0.86057 0.39861 0.10024 0.0
C142 C 0.77583 0.55532 0.08643 0.0
O143 O 0.79363 0.56178 0.04836 0.0
C144 C 0.91789 0.33722 0.06378 0.0
O145 O 0.92159 0.32908 0.10533 0.0
O146 O 0.88815 0.57675 0.0818 0.0
O147 O 0.89393 0.49237 0.14533 0.0
O148 O 0.89898 0.42034 0.14591 0.0
C149 C 0.89745 0.60125 0.11365 0.0
O150 O 0.88884 0.5877 0.15302 0.0
O151 O 0.79842 0.5374 0.11601 0.0
C152 C 0.80452 0.33479 0.09064 0.0
O153 O 0.80834 0.35507 0.05344 0.0
O154 O 0.82603 0.34858 0.12285 0.0
O155 O 0.81316 0.43977 0.08242 0.0
O156 O 0.84491 0.48615 0.03982 0.0
O157 O 0.89566 0.3701 0.05196 0.0
C158 C 0.90885 0.45718 0.16119 0.0
C159 C 0.81534 0.45801 0.04591 0.0
Zn160 Zn 0.39672 0.85042 0.60035 0.0
Zn161 Zn 0.51898 0.86219 0.59599 0.0
C162 C 0.3294 0.90338 0.5674 0.0
O163 O 0.32157 0.90448 0.60915 0.0
C164 C 0.55557 0.77967 0.58689 0.0
O165 O 0.56391 0.79813 0.54949 0.0
O166 O 0.35334 0.8066 0.62155 0.0
O167 O 0.44572 0.81313 0.57994 0.0
O168 O 0.48829 0.85085 0.53855 0.0
C169 C 0.34529 0.7805 0.59075 0.0
O170 O 0.36412 0.78699 0.5532 0.0
O171 O 0.36316 0.88345 0.55412 0.0
C172 C 0.60038 0.90229 0.61668 0.0
O173 O 0.587 0.89365 0.6561 0.0
O174 O 0.57588 0.89289 0.58487 0.0
O175 O 0.48727 0.89573 0.64407 0.0
O176 O 0.41497 0.89067 0.6467 0.0
O177 O 0.53619 0.80171 0.61589 0.0
C178 C 0.4618 0.81961 0.54294 0.0
C179 C 0.45069 0.90586 0.66065 0.0
Zn180 Zn 0.64707 0.39899 0.59795 0.0
Zn181 Zn 0.65292 0.52168 0.59515 0.0
C182 C 0.59071 0.33595 0.56179 0.0
O183 O 0.58741 0.32788 0.60339 0.0
C184 C 0.73578 0.55738 0.58609 0.0
O185 O 0.71804 0.56381 0.54797 0.0
O186 O 0.68128 0.34916 0.62145 0.0
O187 O 0.69532 0.43947 0.58038 0.0
O188 O 0.66596 0.48849 0.53905 0.0
C189 C 0.70308 0.33512 0.58959 0.0
O190 O 0.69968 0.3551 0.55219 0.0
O191 O 0.61214 0.36938 0.54979 0.0
C192 C 0.61295 0.60289 0.61357 0.0
O193 O 0.62044 0.58899 0.65305 0.0
O194 O 0.62321 0.57874 0.58177 0.0
O195 O 0.61763 0.49348 0.64461 0.0
O196 O 0.60909 0.4217 0.64359 0.0
O197 O 0.71316 0.53925 0.61553 0.0
C198 C 0.6942 0.45897 0.54447 0.0
C199 C 0.60125 0.45861 0.65985 0.0
Zn200 Zn 0.12159 0.62697 0.58709 0.0
Zn201 Zn 0.99408 0.65624 0.59508 0.0
C202 C 0.17334 0.55702 0.5568 0.0
O203 O 0.1807 0.55371 0.59854 0.0
C204 C 0.96159 0.74004 0.58394 0.0
O205 O 0.95432 0.72203 0.54613 0.0
O206 O 0.17649 0.65306 0.61065 0.0
O207 O 0.09561 0.67931 0.55932 0.0
O208 O 0.02866 0.6641 0.53956 0.0
C209 C 0.20266 0.66364 0.5807 0.0
O210 O 0.19178 0.65618 0.5403 0.0
O211 O 0.14325 0.58236 0.54407 0.0
C212 C 0.91167 0.61795 0.61402 0.0
O213 O 0.92548 0.62542 0.65353 0.0
O214 O 0.93612 0.62781 0.58227 0.0
O215 O 0.02098 0.62143 0.64485 0.0
O216 O 0.09 0.60118 0.63674 0.0
O217 O 0.97921 0.71738 0.61359 0.0
C218 C 0.06071 0.69012 0.54058 0.0
C219 C 0.05444 0.6006 0.65746 0.0
Zn220 Zn 0.86255 0.11675 0.60091 0.0
Zn221 Zn 0.85974 0.99583 0.59607 0.0
C222 C 0.92073 0.1771 0.56381 0.0
O223 O 0.925 0.18532 0.60528 0.0
C224 C 0.77674 0.96041 0.58769 0.0
O225 O 0.79387 0.95427 0.54927 0.0
O226 O 0.82878 0.16741 0.62307 0.0
O227 O 0.81435 0.07629 0.58325 0.0
O228 O 0.84593 0.02991 0.54065 0.0
C229 C 0.8074 0.18122 0.59078 0.0
O230 O 0.8111 0.1608 0.55368 0.0
O231 O 0.89796 0.14442 0.55238 0.0
C232 C 0.90022 0.9149 0.61279 0.0
O233 O 0.89239 0.92798 0.65245 0.0
O234 O 0.88968 0.93943 0.58135 0.0
O235 O 0.89517 0.02284 0.64586 0.0
O236 O 0.9006 0.09482 0.64684 0.0
O237 O 0.79992 0.97794 0.61701 0.0
C238 C 0.81625 0.0578 0.54687 0.0
C239 C 0.9102 0.05786 0.66197 0.0
Zn240 Zn 0.89664 0.14995 0.89027 0.0
Zn241 Zn 0.01783 0.15558 0.89506 0.0
C242 C 0.83605 0.09163 0.92687 0.0
O243 O 0.82827 0.08729 0.88532 0.0
C244 C 0.0527 0.23872 0.90426 0.0
O245 O 0.05874 0.22139 0.94263 0.0
O246 O 0.84593 0.18322 0.86741 0.0
O247 O 0.93639 0.19868 0.908 0.0
O248 O 0.98369 0.16837 0.95059 0.0
C249 C 0.83165 0.20452 0.89949 0.0
O250 O 0.85174 0.20101 0.93683 0.0
O251 O 0.8686 0.11445 0.93862 0.0
C252 C 0.09929 0.11705 0.87758 0.0
O253 O 0.08592 0.12569 0.83815 0.0
O254 O 0.07466 0.12627 0.90932 0.0
O255 O 0.99119 0.12017 0.84505 0.0
O256 O 0.91936 0.11227 0.84456 0.0
O257 O 0.03526 0.21572 0.87474 0.0
C258 C 0.95497 0.19724 0.94438 0.0
C259 C 0.95653 0.10407 0.8291 0.0
Zn260 Zn 0.36404 0.89936 0.89044 0.0
Zn261 Zn 0.35744 0.0208 0.89389 0.0
C262 C 0.42242 0.83824 0.92625 0.0
O263 O 0.42562 0.82999 0.88469 0.0
C264 C 0.27479 0.05632 0.90477 0.0
O265 O 0.29275 0.06221 0.94288 0.0
O266 O 0.33058 0.8486 0.86804 0.0
O267 O 0.31485 0.93822 0.90874 0.0
O268 O 0.34522 0.98687 0.94981 0.0
C269 C 0.30947 0.83432 0.90029 0.0
O270 O 0.31353 0.85421 0.93765 0.0
O271 O 0.40043 0.87123 0.93815 0.0
C272 C 0.3967 0.10212 0.87543 0.0
O273 O 0.38743 0.08892 0.8361 0.0
O274 O 0.38775 0.07745 0.90726 0.0
O275 O 0.39065 0.99379 0.84267 0.0
O276 O 0.40027 0.92222 0.8436 0.0
O277 O 0.29716 0.03874 0.87492 0.0
C278 C 0.31621 0.95804 0.94443 0.0
C279 C 0.40684 0.95918 0.82692 0.0
Zn280 Zn 0.61374 0.36452 0.88889 0.0
Zn281 Zn 0.49216 0.36068 0.89281 0.0
C282 C 0.67572 0.42162 0.92534 0.0
O283 O 0.68423 0.42482 0.88383 0.0
C284 C 0.45666 0.278 0.90229 0.0
O285 O 0.45031 0.2958 0.94036 0.0
O286 O 0.66398 0.33037 0.86637 0.0
O287 O 0.57327 0.31639 0.90676 0.0
O288 O 0.52588 0.34741 0.94868 0.0
C289 C 0.67775 0.30887 0.89859 0.0
O290 O 0.65746 0.31264 0.93576 0.0
O291 O 0.64239 0.39989 0.93707 0.0
C292 C 0.4106 0.39975 0.87483 0.0
O293 O 0.42394 0.3913 0.83538 0.0
O294 O 0.43525 0.39032 0.90656 0.0
O295 O 0.51959 0.39581 0.84288 0.0
O296 O 0.59159 0.40234 0.84285 0.0
O297 O 0.47448 0.30059 0.87266 0.0
C298 C 0.55418 0.31803 0.94285 0.0
C299 C 0.55466 0.41123 0.82712 0.0
Zn300 Zn 0.14804 0.61724 0.88976 0.0
Zn301 Zn 0.1522 0.49583 0.89298 0.0
C302 C 0.09072 0.67833 0.92717 0.0
O303 O 0.08665 0.68686 0.88573 0.0
C304 C 0.23482 0.45988 0.90239 0.0
O305 O 0.21708 0.45358 0.94051 0.0
O306 O 0.18199 0.66766 0.8673 0.0
O307 O 0.1963 0.57675 0.90678 0.0
O308 O 0.16562 0.52923 0.94888 0.0
C309 C 0.20362 0.68134 0.89947 0.0
O310 O 0.20005 0.6609 0.9366 0.0
O311 O 0.11298 0.64528 0.93847 0.0
C312 C 0.11263 0.41436 0.87523 0.0
O313 O 0.12122 0.42743 0.8357 0.0
O314 O 0.1221 0.43915 0.9068 0.0
O315 O 0.11738 0.52366 0.84299 0.0
O316 O 0.11019 0.59551 0.84367 0.0
O317 O 0.21226 0.47787 0.87284 0.0
C318 C 0.19482 0.55776 0.94294 0.0
C319 C 0.10177 0.55872 0.82746 0.0
C320 C 0.5322 0.09265 0.25245 0.0
C321 C 0.55582 0.07586 0.28741 0.0
H322 H 0.52867 0.09878 0.18352 0.0
C323 C 0.58718 0.04366 0.27985 0.0
H324 H 0.50814 0.11773 0.25748 0.0
C325 C 0.59817 0.03199 0.2376 0.0
C326 C 0.57876 0.05336 0.20255 0.0
H327 H 0.60583 0.03037 0.30646 0.0
H328 H 0.62518 0.01011 0.23252 0.0
C329 C 0.54405 0.08191 0.21018 0.0
C330 C 0.426 0.54635 0.20859 0.0
C331 C 0.45555 0.58056 0.20227 0.0
H332 H 0.38875 0.50971 0.25436 0.0
C333 C 0.47628 0.59906 0.23815 0.0
H334 H 0.40951 0.53178 0.18125 0.0
C335 C 0.46352 0.5873 0.2799 0.0
C336 C 0.43075 0.55612 0.28618 0.0
H337 H 0.49882 0.62576 0.23405 0.0
H338 H 0.47695 0.60483 0.30717 0.0
C339 C 0.41411 0.53375 0.25035 0.0
C340 C 0.92814 0.46782 0.27966 0.0
C341 C 0.95727 0.43338 0.28644 0.0
H342 H 0.89101 0.5039 0.23337 0.0
C343 C 0.97839 0.41485 0.25084 0.0
H344 H 0.91146 0.48254 0.30676 0.0
C345 C 0.96593 0.42637 0.20891 0.0
C346 C 0.9331 0.45732 0.20221 0.0
H347 H 1.00071 0.38808 0.25525 0.0
H348 H 0.97912 0.40835 0.18188 0.0
C349 C 0.91653 0.48014 0.23772 0.0
C350 C 0.09628 0.97695 0.25672 0.0
C351 C 0.07899 0.95351 0.29156 0.0
H352 H 0.10198 0.9811 0.18779 0.0
C353 C 0.04588 0.92304 0.28381 0.0
H354 H 0.12203 1.00036 0.26187 0.0
C355 C 0.0336 0.91278 0.2415 0.0
C356 C 0.05521 0.93205 0.20651 0.0
H357 H 0.03211 0.90456 0.3103 0.0
H358 H 0.01089 0.88644 0.23627 0.0
C359 C 0.08487 0.96585 0.21438 0.0
C360 C 0.40467 0.97546 0.74864 0.0
C361 C 0.42783 0.95957 0.7843 0.0
H362 H 0.39388 0.97011 0.68038 0.0
C363 C 0.4647 0.9337 0.77739 0.0
H364 H 0.37581 0.99495 0.75329 0.0
C365 C 0.47569 0.92033 0.73564 0.0
C366 C 0.44905 0.93161 0.70063 0.0
H367 H 0.48274 0.9208 0.8046 0.0
H368 H 0.50205 0.89748 0.73148 0.0
C369 C 0.41483 0.96102 0.70704 0.0
C370 C 0.58467 0.46832 0.77885 0.0
C371 C 0.55433 0.43491 0.78577 0.0
H372 H 0.62227 0.50361 0.73233 0.0
C373 C 0.53193 0.41749 0.75034 0.0
H374 H 0.60236 0.48217 0.80582 0.0
C375 C 0.54407 0.42901 0.70831 0.0
C376 C 0.57789 0.4589 0.70136 0.0
H377 H 0.50865 0.3915 0.75485 0.0
H378 H 0.52969 0.41179 0.68133 0.0
C379 C 0.59597 0.4807 0.73684 0.0
C380 C 0.03462 0.60066 0.73554 0.0
C381 C 0.05517 0.58022 0.70063 0.0
H382 H 0.03359 0.6094 0.80422 0.0
C383 C 0.08351 0.54538 0.70877 0.0
H384 H 0.0127 0.62759 0.73019 0.0
C385 C 0.09474 0.53432 0.75117 0.0
C386 C 0.07852 0.55865 0.78583 0.0
H387 H 0.09954 0.5289 0.68229 0.0
H388 H 0.11948 0.50992 0.75644 0.0
C389 C 0.04663 0.59028 0.77788 0.0
C390 C 0.9672 0.08784 0.7103 0.0
C391 C 0.93404 0.05729 0.70319 0.0
H392 H 1.00197 0.12557 0.75708 0.0
C393 C 0.91675 0.03452 0.73846 0.0
H394 H 0.98093 0.1058 0.68344 0.0
C395 C 0.92801 0.04658 0.78055 0.0
C396 C 0.95753 0.08066 0.7877 0.0
H397 H 0.89095 0.01107 0.73378 0.0
H398 H 0.91078 0.032 0.80744 0.0
C399 C 0.97934 0.09905 0.75238 0.0
C400 C 0.35012 0.0915 0.42731 0.0
C401 C 0.36727 0.09304 0.38529 0.0
H402 H 0.29509 0.07775 0.46707 0.0
C403 C 0.34094 0.07982 0.35045 0.0
H404 H 0.36946 0.10144 0.45485 0.0
C405 C 0.29818 0.06603 0.35745 0.0
C406 C 0.28075 0.06556 0.39939 0.0
H407 H 0.3532 0.0805 0.31764 0.0
H408 H 0.27858 0.05648 0.32996 0.0
C409 C 0.30735 0.07808 0.43425 0.0
C410 C 0.41602 0.345 0.41949 0.0
C411 C 0.41484 0.36197 0.37736 0.0
H412 H 0.42995 0.29046 0.45972 0.0
C413 C 0.42867 0.33577 0.34277 0.0
H414 H 0.40564 0.36426 0.44686 0.0
C415 C 0.44284 0.29327 0.35018 0.0
C416 C 0.44304 0.27609 0.39226 0.0
H417 H 0.42826 0.34795 0.30991 0.0
H418 H 0.45296 0.2737 0.32293 0.0
C419 C 0.42981 0.30255 0.42682 0.0
C420 C 0.16819 0.43017 0.34777 0.0
C421 C 0.14312 0.4156 0.38295 0.0
H422 H 0.2298 0.45418 0.32606 0.0
C423 C 0.16152 0.416 0.42451 0.0
H424 H 0.1549 0.43049 0.31534 0.0
C425 C 0.20448 0.42928 0.43054 0.0
C426 C 0.2299 0.44274 0.39521 0.0
H427 H 0.14309 0.40514 0.45231 0.0
H428 H 0.21789 0.42863 0.46293 0.0
C429 C 0.21109 0.44381 0.35387 0.0
C430 C 0.08138 0.16824 0.35022 0.0
C431 C 0.09424 0.14279 0.38584 0.0
H432 H 0.05781 0.22984 0.328 0.0
C433 C 0.0916 0.16072 0.42747 0.0
H434 H 0.08287 0.15537 0.31768 0.0
C435 C 0.07753 0.2034 0.43327 0.0
C436 C 0.06549 0.22916 0.39764 0.0
H437 H 0.10117 0.14208 0.4556 0.0
H438 H 0.07639 0.21628 0.46583 0.0
C439 C 0.06697 0.21092 0.35608 0.0
C440 C 0.84179 0.92989 0.14242 0.0
C441 C 0.86812 0.91717 0.10746 0.0
H442 H 0.77968 0.95352 0.16301 0.0
C443 C 0.85135 0.92014 0.06534 0.0
H444 H 0.85378 0.92814 0.17531 0.0
C445 C 0.80888 0.93439 0.0584 0.0
C446 C 0.78223 0.94629 0.09337 0.0
H447 H 0.87073 0.91068 0.03771 0.0
H448 H 0.79685 0.93579 0.0255 0.0
C449 C 0.79933 0.94448 0.13543 0.0
C450 C 0.56949 0.79968 0.13483 0.0
C451 C 0.56818 0.78187 0.09309 0.0
H452 H 0.58533 0.85482 0.17386 0.0
C453 C 0.58059 0.80788 0.05776 0.0
H454 H 0.56003 0.78052 0.16266 0.0
C455 C 0.59476 0.85046 0.06407 0.0
C456 C 0.59716 0.86796 0.10589 0.0
H457 H 0.57957 0.79529 0.02508 0.0
H458 H 0.60457 0.86935 0.03619 0.0
C459 C 0.58403 0.84224 0.14119 0.0
C460 C 0.66975 0.58413 0.14178 0.0
C461 C 0.64395 0.59709 0.10646 0.0
H462 H 0.7316 0.56048 0.16329 0.0
C463 C 0.66146 0.59464 0.06463 0.0
H464 H 0.65719 0.58547 0.17446 0.0
C465 C 0.7041 0.58065 0.05835 0.0
C466 C 0.7302 0.56848 0.0937 0.0
H467 H 0.64252 0.60432 0.03673 0.0
H468 H 0.71668 0.57964 0.02566 0.0
C469 C 0.71238 0.56977 0.13545 0.0
C470 C 0.94281 0.71362 0.13594 0.0
C471 C 0.94431 0.73158 0.09423 0.0
H472 H 0.92676 0.65837 0.17479 0.0
C473 C 0.93205 0.70568 0.05881 0.0
H474 H 0.95215 0.73267 0.16386 0.0
C475 C 0.9178 0.66308 0.06496 0.0
C476 C 0.9152 0.64543 0.10674 0.0
H477 H 0.9332 0.71838 0.02615 0.0
H478 H 0.90809 0.64428 0.037 0.0
C479 C 0.92821 0.67104 0.14215 0.0
C480 C 0.70436 0.93595 0.56054 0.0
C481 C 0.73109 0.94753 0.59558 0.0
H482 H 0.64224 0.91312 0.5396 0.0
C483 C 0.71385 0.94602 0.63759 0.0
H484 H 0.71646 0.93716 0.52768 0.0
C485 C 0.67111 0.93203 0.64444 0.0
C486 C 0.64468 0.91966 0.60938 0.0
H487 H 0.73358 0.95487 0.66522 0.0
H488 H 0.65898 0.93047 0.67727 0.0
C489 C 0.66165 0.92233 0.56733 0.0
C490 C 0.58179 0.67261 0.64175 0.0
C491 C 0.59567 0.64722 0.60654 0.0
H492 H 0.55795 0.7343 0.66328 0.0
C493 C 0.59455 0.66531 0.56487 0.0
H494 H 0.58208 0.6596 0.67429 0.0
C495 C 0.58106 0.70812 0.55869 0.0
C496 C 0.56808 0.73382 0.59396 0.0
H497 H 0.60491 0.6467 0.53705 0.0
H498 H 0.58108 0.72115 0.52615 0.0
C499 C 0.56793 0.71541 0.6355 0.0
C500 C 0.84982 0.5984 0.56498 0.0
C501 C 0.86739 0.60041 0.60684 0.0
H502 H 0.79471 0.58333 0.52577 0.0
C503 C 0.84167 0.58677 0.64197 0.0
H504 H 0.86868 0.6086 0.53722 0.0
C505 C 0.79913 0.57206 0.63541 0.0
C506 C 0.7813 0.57106 0.59362 0.0
H507 H 0.85426 0.58777 0.67466 0.0
H508 H 0.78001 0.5622 0.66311 0.0
C509 C 0.80728 0.58404 0.55848 0.0
C510 C 0.92096 0.85408 0.56315 0.0
C511 C 0.91858 0.87116 0.60516 0.0
H512 H 0.93646 0.79939 0.52361 0.0
C513 C 0.93239 0.84536 0.64013 0.0
H514 H 0.91069 0.87308 0.5355 0.0
C515 C 0.94733 0.80307 0.63332 0.0
C516 C 0.94844 0.78559 0.59142 0.0
H517 H 0.93116 0.85761 0.67292 0.0
H518 H 0.9571 0.7838 0.66095 0.0
C519 C 0.9356 0.81174 0.55638 0.0
C520 C 0.16081 0.09658 0.92654 0.0
C521 C 0.14336 0.09925 0.88468 0.0
H522 H 0.21591 0.08102 0.96559 0.0
C523 C 0.16905 0.0862 0.84938 0.0
H524 H 0.14192 0.10632 0.95441 0.0
C525 C 0.21154 0.0715 0.85578 0.0
C526 C 0.22931 0.06993 0.89757 0.0
H527 H 0.15651 0.0877 0.81669 0.0
H528 H 0.23067 0.06214 0.82795 0.0
C529 C 0.20334 0.08223 0.93289 0.0
C530 C 0.4272 0.1721 0.84699 0.0
C531 C 0.41455 0.14623 0.88237 0.0
H532 H 0.45071 0.23397 0.82541 0.0
C533 C 0.41748 0.16361 0.92422 0.0
H534 H 0.42548 0.15962 0.8143 0.0
C535 C 0.43161 0.20622 0.93047 0.0
C536 C 0.44343 0.23239 0.89507 0.0
H537 H 0.40806 0.14461 0.95216 0.0
H538 H 0.43299 0.21872 0.96317 0.0
C539 C 0.4417 0.21469 0.85329 0.0
C540 C 0.34902 0.41978 0.92383 0.0
C541 C 0.36645 0.41743 0.88197 0.0
H542 H 0.29394 0.43492 0.96296 0.0
C543 C 0.34064 0.43062 0.84674 0.0
H544 H 0.36797 0.40993 0.95167 0.0
C545 C 0.29809 0.44515 0.85321 0.0
C546 C 0.28036 0.44642 0.895 0.0
H547 H 0.35314 0.42934 0.81404 0.0
H548 H 0.27887 0.45464 0.82543 0.0
C549 C 0.30645 0.43396 0.93025 0.0
C550 C 0.09224 0.35325 0.92476 0.0
C551 C 0.09488 0.37028 0.88272 0.0
H552 H 0.07694 0.29852 0.96438 0.0
C553 C 0.08199 0.3441 0.84768 0.0
H554 H 0.10186 0.37249 0.95245 0.0
C555 C 0.0675 0.30157 0.85451 0.0
C556 C 0.06599 0.28425 0.89649 0.0
H557 H 0.08349 0.35628 0.81485 0.0
H558 H 0.05828 0.28206 0.82688 0.0
C559 C 0.0781 0.31072 0.93154 0.0
C560 C 0.7356 0.24583 0.35729 0.0
C561 C 0.71689 0.2325 0.39657 0.0
H562 H 0.78697 0.28228 0.32715 0.0
C563 C 0.73588 0.24526 0.43564 0.0
H564 H 0.72137 0.23635 0.32669 0.0
C565 C 0.7728 0.27073 0.43591 0.0
C566 C 0.79166 0.28447 0.3971 0.0
H567 H 0.72232 0.23518 0.46631 0.0
H568 H 0.78652 0.27988 0.4668 0.0
C569 C 0.77282 0.27209 0.35756 0.0
C570 C 0.28967 0.75126 0.44522 0.0
C571 C 0.2944 0.72532 0.40834 0.0
H572 H 0.25802 0.80476 0.47467 0.0
C573 C 0.27101 0.73563 0.3707 0.0
H574 H 0.30793 0.74468 0.47438 0.0
C575 C 0.24195 0.77058 0.37076 0.0
C576 C 0.23628 0.79546 0.40842 0.0
H577 H 0.27421 0.71606 0.34181 0.0
H578 H 0.22346 0.77756 0.34179 0.0
C579 C 0.261 0.78584 0.44531 0.0
C580 C 0.27571 0.74597 0.13185 0.0
C581 C 0.29378 0.73274 0.09227 0.0
H582 H 0.22489 0.7823 0.16282 0.0
C583 C 0.27413 0.74542 0.05352 0.0
H584 H 0.29047 0.73653 0.16222 0.0
C585 C 0.23723 0.77083 0.05386 0.0
C586 C 0.21905 0.78454 0.09295 0.0
H587 H 0.28718 0.73539 0.02264 0.0
H588 H 0.223 0.78003 0.02322 0.0
C589 C 0.2385 0.77214 0.13218 0.0
C590 C 0.76604 0.27584 0.0536 0.0
C591 C 0.77804 0.29531 0.09266 0.0
H592 H 0.73221 0.2247 0.02247 0.0
C593 C 0.76434 0.27683 0.13192 0.0
H594 H 0.77644 0.28918 0.02294 0.0
C595 C 0.73837 0.23941 0.13165 0.0
C596 C 0.72664 0.22015 0.09213 0.0
H597 H 0.77326 0.29142 0.16251 0.0
H598 H 0.72783 0.22549 0.16206 0.0
C599 C 0.74084 0.23874 0.05335 0.0
C600 C 0.24517 0.71774 0.6237 0.0
C601 C 0.2428 0.68767 0.58966 0.0
H602 H 0.28004 0.77164 0.65079 0.0
C603 C 0.27735 0.68439 0.56043 0.0
H604 H 0.21877 0.72076 0.64662 0.0
C605 C 0.31229 0.71279 0.56314 0.0
C606 C 0.31291 0.7456 0.59457 0.0
H607 H 0.27655 0.66094 0.53433 0.0
H608 H 0.3379 0.71027 0.53928 0.0
C609 C 0.28008 0.74679 0.62605 0.0
C610 C 0.76675 0.23872 0.55368 0.0
C611 C 0.78072 0.22054 0.59274 0.0
H612 H 0.73137 0.28883 0.52257 0.0
C613 C 0.76881 0.24018 0.63199 0.0
H614 H 0.77556 0.22441 0.52299 0.0
C615 C 0.74289 0.27757 0.63173 0.0
C616 C 0.72943 0.29564 0.59219 0.0
H617 H 0.7792 0.2266 0.6626 0.0
H618 H 0.73385 0.29247 0.66211 0.0
C619 C 0.74159 0.27579 0.55342 0.0
C620 C 0.77336 0.24339 0.85748 0.0
C621 C 0.79219 0.23094 0.89701 0.0
H622 H 0.72176 0.27888 0.82666 0.0
C623 C 0.77316 0.24426 0.93583 0.0
H624 H 0.78762 0.23349 0.82706 0.0
C625 C 0.73609 0.26943 0.93561 0.0
C626 C 0.71711 0.28228 0.89655 0.0
H627 H 0.78684 0.23497 0.9667 0.0
H628 H 0.7224 0.27916 0.9663 0.0
C629 C 0.73598 0.26933 0.85726 0.0
C630 C 0.2679 0.77697 0.93662 0.0
C631 C 0.28236 0.79529 0.89782 0.0
H632 H 0.23175 0.72692 0.96706 0.0
C633 C 0.27045 0.7761 0.85832 0.0
H634 H 0.27666 0.791 0.96747 0.0
C635 C 0.24412 0.73896 0.8581 0.0
C636 C 0.23022 0.7207 0.89739 0.0
H637 H 0.2812 0.78982 0.8279 0.0
H638 H 0.23513 0.72435 0.82753 0.0
C639 C 0.24232 0.74014 0.93641 0.0
C640 C 0.70723 0.09297 0.5014 0.0
C641 C 0.70958 0.07888 0.45835 0.0
H642 H 0.7388 0.09748 0.56268 0.0
C643 C 0.74639 0.05516 0.44515 0.0
H644 H 0.67959 0.11142 0.5127 0.0
C645 C 0.78071 0.04711 0.47395 0.0
C646 C 0.77911 0.06291 0.51647 0.0
H647 H 0.74928 0.04377 0.41216 0.0
H648 H 0.80895 0.02965 0.46255 0.0
C649 C 0.74152 0.08517 0.53 0.0
C650 C 0.46751 0.78951 0.46745 0.0
C651 C 0.46159 0.783 0.51194 0.0
H652 H 0.46387 0.76152 0.40413 0.0
C653 C 0.45257 0.74084 0.52707 0.0
H654 H 0.47477 0.82153 0.45496 0.0
C655 C 0.44662 0.70657 0.4983 0.0
C656 C 0.4494 0.71354 0.45357 0.0
H657 H 0.44867 0.73443 0.5613 0.0
H658 H 0.43777 0.67509 0.51115 0.0
C659 C 0.46133 0.75506 0.43846 0.0
C660 C 0.80379 0.42369 0.50077 0.0
C661 C 0.80231 0.43824 0.45781 0.0
H662 H 0.77113 0.41871 0.56137 0.0
C663 C 0.76601 0.46256 0.4442 0.0
H664 H 0.83103 0.4048 0.51239 0.0
C665 C 0.73126 0.47062 0.47244 0.0
C666 C 0.73193 0.4542 0.51478 0.0
H667 H 0.76381 0.47433 0.41126 0.0
H668 H 0.70337 0.48846 0.46071 0.0
C669 C 0.76908 0.43146 0.52878 0.0
C670 C 0.08869 0.76531 0.52998 0.0
C671 C 0.06044 0.73192 0.51678 0.0
H672 H 0.11759 0.82663 0.51512 0.0
C673 C 0.03529 0.73804 0.47942 0.0
H674 H 0.10806 0.76187 0.55904 0.0
C675 C 0.04094 0.77535 0.45398 0.0
C676 C 0.07142 0.8074 0.46577 0.0
H677 H 0.0131 0.71304 0.46859 0.0
H678 H 0.02291 0.77809 0.42403 0.0
C679 C 0.09392 0.8027 0.50497 0.0
C680 C 0.24155 0.93029 0.96117 0.0
C681 C 0.27872 0.95348 0.97449 0.0
H682 H 0.17979 0.90355 0.97849 0.0
C683 C 0.27965 0.97052 0.01657 0.0
H684 H 0.23932 0.91698 0.92884 0.0
C685 C 0.24515 0.96271 0.04521 0.0
C686 C 0.20879 0.93802 0.03227 0.0
H687 H 0.30757 0.9887 0.02779 0.0
H688 H 0.24756 0.97498 0.07792 0.0
C689 C 0.20705 0.92279 0.98958 0.0
C690 C 0.55009 0.24696 0.04374 0.0
C691 C 0.57384 0.21025 0.03035 0.0
H692 H 0.52499 0.3098 0.02682 0.0
C693 C 0.58821 0.20831 0.98736 0.0
H694 H 0.53848 0.24954 0.07668 0.0
C695 C 0.5808 0.24293 0.95909 0.0
C696 C 0.5586 0.28046 0.97285 0.0
H697 H 0.60668 0.18076 0.9759 0.0
H698 H 0.59339 0.24051 0.92649 0.0
C699 C 0.5424 0.28162 0.01525 0.0
C700 C 0.23113 0.54675 0.01546 0.0
C701 C 0.2323 0.5627 0.97295 0.0
H702 H 0.26313 0.54348 0.07697 0.0
C703 C 0.26974 0.58512 0.95907 0.0
H704 H 0.20301 0.52917 0.0271 0.0
C705 C 0.30426 0.59301 0.98735 0.0
C706 C 0.30231 0.5789 0.03043 0.0
H707 H 0.27215 0.5975 0.92637 0.0
H708 H 0.33175 0.61163 0.9758 0.0
C709 C 0.2657 0.55492 0.04394 0.0
C710 C 0.95661 0.26773 0.04554 0.0
C711 C 0.93232 0.30406 0.03201 0.0
H712 H 0.98307 0.2055 0.02867 0.0
C713 C 0.91822 0.30593 0.98891 0.0
H714 H 0.96803 0.26523 0.07857 0.0
C715 C 0.92653 0.27161 0.9606 0.0
C716 C 0.94936 0.23448 0.97447 0.0
H717 H 0.89935 0.3332 0.97736 0.0
H718 H 0.91419 0.27395 0.92788 0.0
C719 C 0.9652 0.23338 0.01703 0.0
C720 C 0.29955 0.9112 0.49235 0.0
C721 C 0.29646 0.92041 0.53663 0.0
H722 H 0.26964 0.91477 0.43024 0.0
C723 C 0.25986 0.94337 0.55166 0.0
H724 H 0.3271 0.89355 0.47961 0.0
C725 C 0.22654 0.95568 0.52318 0.0
C726 C 0.22898 0.9449 0.47918 0.0
H727 H 0.25648 0.95111 0.58564 0.0
H728 H 0.19843 0.9725 0.53579 0.0
C729 C 0.2663 0.92323 0.46407 0.0
C730 C 0.55345 0.26533 0.54413 0.0
C731 C 0.5766 0.30232 0.53021 0.0
H732 H 0.52814 0.20239 0.52774 0.0
C733 C 0.58979 0.30451 0.48685 0.0
H734 H 0.54273 0.26252 0.57736 0.0
C735 C 0.58169 0.26997 0.45867 0.0
C736 C 0.56003 0.23222 0.47291 0.0
H737 H 0.60777 0.33228 0.47497 0.0
H738 H 0.5933 0.27263 0.42571 0.0
C739 C 0.54511 0.23074 0.51577 0.0
C740 C 0.24381 0.55751 0.4574 0.0
C741 C 0.28277 0.54015 0.47351 0.0
H742 H 0.17807 0.57496 0.47041 0.0
C743 C 0.28291 0.52085 0.51458 0.0
H744 H 0.24261 0.57191 0.42544 0.0
C745 C 0.24575 0.52291 0.54074 0.0
C746 C 0.20785 0.54388 0.52595 0.0
H747 H 0.31246 0.50703 0.5276 0.0
H748 H 0.24767 0.51059 0.57349 0.0
C749 C 0.20667 0.55901 0.48313 0.0
C750 C 0.95952 0.24645 0.54474 0.0
C751 C 0.93468 0.21026 0.53175 0.0
H752 H 0.98565 0.30879 0.52741 0.0
C753 C 0.91937 0.20865 0.48906 0.0
H754 H 0.97187 0.24873 0.57745 0.0
C755 C 0.92691 0.24315 0.4607 0.0
C756 C 0.95022 0.28019 0.4741 0.0
H757 H 0.90004 0.18149 0.47793 0.0
H758 H 0.91356 0.24105 0.42836 0.0
C759 C 0.96737 0.28098 0.51616 0.0
C760 C 0.76658 0.05263 0.94521 0.0
C761 C 0.80252 0.07767 0.95856 0.0
H762 H 0.70412 0.02623 0.9618 0.0
C763 C 0.8035 0.09315 0.00119 0.0
H764 H 0.76477 0.04015 0.91253 0.0
C765 C 0.76865 0.08552 0.02911 0.0
C766 C 0.73188 0.06196 0.01534 0.0
H767 H 0.83044 0.11265 0.01258 0.0
H768 H 0.77029 0.09898 0.06141 0.0
C769 C 0.73171 0.0447 0.97335 0.0
C770 C 0.42266 0.80682 0.00112 0.0
C771 C 0.43658 0.80483 0.95799 0.0
H772 H 0.41799 0.77466 0.06204 0.0
C773 C 0.46015 0.76808 0.94438 0.0
H774 H 0.40435 0.83441 0.01275 0.0
C775 C 0.46806 0.73342 0.97281 0.0
C776 C 0.45224 0.73463 0.01535 0.0
H777 H 0.47142 0.76546 0.91132 0.0
H778 H 0.48528 0.70519 0.96108 0.0
C779 C 0.43028 0.77221 0.02932 0.0
C780 C 0.78023 0.46765 0.97258 0.0
C781 C 0.77826 0.45272 0.01542 0.0
H782 H 0.74916 0.46989 0.91055 0.0
C783 C 0.74037 0.43103 0.02924 0.0
H784 H 0.80872 0.48464 0.96096 0.0
C785 C 0.70617 0.42286 0.00064 0.0
C786 C 0.70889 0.43598 0.95729 0.0
H787 H 0.73734 0.41944 0.06218 0.0
H788 H 0.67829 0.40483 0.0122 0.0
C789 C 0.74598 0.45922 0.94378 0.0
C790 C 0.04427 0.78202 0.97519 0.0
C791 C 0.06103 0.78088 0.0174 0.0
H792 H 0.04014 0.75028 0.91365 0.0
C793 C 0.08417 0.74372 0.0307 0.0
H794 H 0.02615 0.80992 0.96398 0.0
C795 C 0.09186 0.70944 0.00216 0.0
C796 C 0.07685 0.71137 0.95936 0.0
H797 H 0.09724 0.74135 0.06314 0.0
H798 H 0.11101 0.68217 0.01324 0.0
C799 C 0.05225 0.74772 0.94644 0.0
loop_
_geom_bond_atom_site_label_1
_geom_bond_atom_site_label_2
_geom_bond_distance
_geom_bond_site_symmetry_2
_ccdc_geom_bond_type
Zn0 O6 1.969 . S
Zn0 O7 1.965 . S
Zn0 O11 2.024 . S
Zn0 O16 1.969 . S
Zn1 O8 1.969 . S
Zn1 O14 1.969 . S
Zn1 O15 1.965 . S
Zn1 O17 2.024 . S
C2 O3 1.229 . S
C2 O11 1.058 . S
O3 C2 1.229 . S
C4 O5 1.229 . S
C4 O17 1.058 . S
O5 C4 1.229 . S
O6 Zn0 1.969 . S
O6 C9 1.267 . S
O7 Zn0 1.965 . S
O7 C18 1.260 . S
O8 Zn1 1.969 . S
O8 C18 1.258 . S
C9 O6 1.267 . S
C9 O10 1.228 . S
O10 C9 1.228 . S
O11 Zn0 2.024 . S
O11 C2 1.058 . S
C12 O13 1.228 . S
C12 O14 1.267 . S
O13 C12 1.228 . S
O14 Zn1 1.969 . S
O14 C12 1.267 . S
O15 Zn1 1.965 . S
O15 C19 1.260 . S
O16 Zn0 1.969 . S
O16 C19 1.258 . S
O17 Zn1 2.024 . S
O17 C4 1.058 . S
C18 O7 1.260 . S
C18 O8 1.258 . S
C19 O15 1.260 . S
C19 O16 1.258 . S
Zn20 O26 1.969 . S
Zn20 O27 1.965 . S
Zn20 O31 2.024 . S
Zn20 O36 1.969 . S
Zn21 O28 1.969 . S
Zn21 O34 1.969 . S
Zn21 O35 1.965 . S
Zn21 O37 2.024 . S
C22 O23 1.229 . S
C22 O31 1.058 . S
O23 C22 1.229 . S
C24 O25 1.229 . S
C24 O37 1.058 . S
O25 C24 1.229 . S
O26 Zn20 1.969 . S
O26 C29 1.267 . S
O27 Zn20 1.965 . S
O27 C38 1.260 . S
O28 Zn21 1.969 . S
O28 C38 1.258 . S
C29 O26 1.267 . S
C29 O30 1.228 . S
O30 C29 1.228 . S
O31 Zn20 2.024 . S
O31 C22 1.058 . S
C32 O33 1.228 . S
C32 O34 1.267 . S
O33 C32 1.228 . S
O34 Zn21 1.969 . S
O34 C32 1.267 . S
O35 Zn21 1.965 . S
O35 C39 1.260 . S
O36 Zn20 1.969 . S
O36 C39 1.258 . S
O37 Zn21 2.024 . S
O37 C24 1.058 . S
C38 O27 1.260 . S
C38 O28 1.258 . S
C39 O35 1.260 . S
C39 O36 1.258 . S
Zn40 O46 1.969 . S
Zn40 O47 1.965 1_455 S
Zn40 O51 2.024 . S
Zn40 O56 1.969 1_455 S
Zn41 O48 1.969 . S
Zn41 O54 1.969 . S
Zn41 O55 1.965 . S
Zn41 O57 2.024 . S
C42 O43 1.229 . S
C42 O51 1.058 . S
O43 C42 1.229 . S
C44 O45 1.229 . S
C44 O57 1.058 . S
O45 C44 1.229 . S
O46 Zn40 1.969 . S
O46 C49 1.267 . S
O47 Zn40 1.965 1_655 S
O47 C58 1.260 . S
O48 Zn41 1.969 . S
O48 C58 1.258 . S
C49 O46 1.267 . S
C49 O50 1.228 . S
O50 C49 1.228 . S
O51 Zn40 2.024 . S
O51 C42 1.058 . S
C52 O53 1.228 . S
C52 O54 1.267 . S
O53 C52 1.228 . S
O54 Zn41 1.969 . S
O54 C52 1.267 . S
O55 Zn41 1.965 . S
O55 C59 1.260 . S
O56 Zn40 1.969 1_655 S
O56 C59 1.258 . S
O57 Zn41 2.024 . S
O57 C44 1.058 . S
C58 O47 1.260 . S
C58 O48 1.258 . S
C59 O55 1.260 . S
C59 O56 1.258 . S
Zn60 O66 1.969 . S
Zn60 O67 1.965 1_545 S
Zn60 O71 2.024 . S
Zn60 O76 1.969 1_545 S
Zn61 O68 1.969 . S
Zn61 O74 1.969 . S
Zn61 O75 1.965 . S
Zn61 O77 2.024 . S
C62 O63 1.229 . S
C62 O71 1.058 . S
O63 C62 1.229 . S
C64 O65 1.229 . S
C64 O77 1.058 . S
O65 C64 1.229 . S
O66 Zn60 1.969 . S
O66 C69 1.267 . S
O67 Zn60 1.965 1_565 S
O67 C78 1.260 . S
O68 Zn61 1.969 . S
O68 C78 1.258 . S
C69 O66 1.267 . S
C69 O70 1.228 . S
O70 C69 1.228 . S
O71 Zn60 2.024 . S
O71 C62 1.058 . S
C72 O73 1.228 . S
C72 O74 1.267 . S
O73 C72 1.228 . S
O74 Zn61 1.969 . S
O74 C72 1.267 . S
O75 Zn61 1.965 . S
O75 C79 1.260 . S
O76 Zn60 1.969 1_565 S
O76 C79 1.258 . S
O77 Zn61 2.024 . S
O77 C64 1.058 . S
C78 O67 1.260 . S
C78 O68 1.258 . S
C79 O75 1.260 . S
C79 O76 1.258 . S
Zn80 O86 1.969 . S
Zn80 O87 1.965 1_655 S
Zn80 O91 2.024 . S
Zn80 O96 1.969 1_655 S
Zn81 O88 1.969 . S
Zn81 O94 1.969 . S
Zn81 O95 1.965 . S
Zn81 O97 2.024 . S
C82 O83 1.229 . S
C82 O91 1.058 . S
O83 C82 1.229 . S
C84 O85 1.229 . S
C84 O97 1.058 . S
O85 C84 1.229 . S
O86 Zn80 1.969 . S
O86 C89 1.267 . S
O87 Zn80 1.965 1_455 S
O87 C98 1.260 . S
O88 Zn81 1.969 . S
O88 C98 1.258 . S
C89 O86 1.267 . S
C89 O90 1.228 . S
O90 C89 1.228 . S
O91 Zn80 2.024 . S
O91 C82 1.058 . S
C92 O93 1.228 . S
C92 O94 1.267 . S
O93 C92 1.228 . S
O94 Zn81 1.969 . S
O94 C92 1.267 . S
O95 Zn81 1.965 . S
O95 C99 1.260 . S
O96 Zn80 1.969 1_455 S
O96 C99 1.258 . S
O97 Zn81 2.024 . S
O97 C84 1.058 . S
C98 O87 1.260 . S
C98 O88 1.258 . S
C99 O95 1.260 . S
C99 O96 1.258 . S
Zn100 O106 1.969 . S
Zn100 O107 1.965 1_565 S
Zn100 O111 2.024 . S
Zn100 O116 1.969 1_565 S
Zn101 O108 1.969 . S
Zn101 O114 1.969 . S
Zn101 O115 1.965 . S
Zn101 O117 2.024 . S
C102 O103 1.229 . S
C102 O111 1.058 . S
O103 C102 1.229 . S
C104 O105 1.229 . S
C104 O117 1.058 . S
O105 C104 1.229 . S
O106 Zn100 1.969 . S
O106 C109 1.267 . S
O107 Zn100 1.965 1_545 S
O107 C118 1.260 . S
O108 Zn101 1.969 . S
O108 C118 1.258 . S
C109 O106 1.267 . S
C109 O110 1.228 . S
O110 C109 1.228 . S
O111 Zn100 2.024 . S
O111 C102 1.058 . S
C112 O113 1.228 . S
C112 O114 1.267 . S
O113 C112 1.228 . S
O114 Zn101 1.969 . S
O114 C112 1.267 . S
O115 Zn101 1.965 . S
O115 C119 1.260 . S
O116 Zn100 1.969 1_545 S
O116 C119 1.258 . S
O117 Zn101 2.024 . S
O117 C104 1.058 . S
C118 O107 1.260 . S
C118 O108 1.258 . S
C119 O115 1.260 . S
C119 O116 1.258 . S
Zn120 O126 1.969 . S
Zn120 O127 1.965 . S
Zn120 O131 2.024 . S
Zn120 O136 1.969 . S
Zn121 O128 1.969 . S
Zn121 O134 1.969 . S
Zn121 O135 1.965 . S
Zn121 O137 2.024 . S
C122 O123 1.229 . S
C122 O131 1.058 . S
O123 C122 1.229 . S
C124 O125 1.229 . S
C124 O137 1.058 . S
O125 C124 1.229 . S
O126 Zn120 1.969 . S
O126 C129 1.267 . S
O127 Zn120 1.965 . S
O127 C138 1.260 . S
O128 Zn121 1.969 . S
O128 C138 1.258 . S
C129 O126 1.267 . S
C129 O130 1.228 . S
O130 C129 1.228 . S
O131 Zn120 2.024 . S
O131 C122 1.058 . S
C132 O133 1.228 . S
C132 O134 1.267 . S
O133 C132 1.228 . S
O134 Zn121 1.969 . S
O134 C132 1.267 . S
O135 Zn121 1.965 . S
O135 C139 1.260 . S
O136 Zn120 1.969 . S
O136 C139 1.258 . S
O137 Zn121 2.024 . S
O137 C124 1.058 . S
C138 O127 1.260 . S
C138 O128 1.258 . S
C139 O135 1.260 . S
C139 O136 1.258 . S
Zn140 O146 1.969 . S
Zn140 O147 1.965 . S
Zn140 O151 2.024 . S
Zn140 O156 1.969 . S
Zn141 O148 1.969 . S
Zn141 O154 1.969 . S
Zn141 O155 1.965 . S
Zn141 O157 2.024 . S
C142 O143 1.229 . S
C142 O151 1.058 . S
O143 C142 1.229 . S
C144 O145 1.229 . S
C144 O157 1.058 . S
O145 C144 1.229 . S
O146 Zn140 1.969 . S
O146 C149 1.267 . S
O147 Zn140 1.965 . S
O147 C158 1.260 . S
O148 Zn141 1.969 . S
O148 C158 1.258 . S
C149 O146 1.267 . S
C149 O150 1.228 . S
O150 C149 1.228 . S
O151 Zn140 2.024 . S
O151 C142 1.058 . S
C152 O153 1.228 . S
C152 O154 1.267 . S
O153 C152 1.228 . S
O154 Zn141 1.969 . S
O154 C152 1.267 . S
O155 Zn141 1.965 . S
O155 C159 1.260 . S
O156 Zn140 1.969 . S
O156 C159 1.258 . S
O157 Zn141 2.024 . S
O157 C144 1.058 . S
C158 O147 1.260 . S
C158 O148 1.258 . S
C159 O155 1.260 . S
C159 O156 1.258 . S
Zn160 O166 1.969 . S
Zn160 O167 1.965 . S
Zn160 O171 2.024 . S
Zn160 O176 1.969 . S
Zn161 O168 1.969 . S
Zn161 O174 1.969 . S
Zn161 O175 1.965 . S
Zn161 O177 2.024 . S
C162 O163 1.229 . S
C162 O171 1.058 . S
O163 C162 1.229 . S
C164 O165 1.229 . S
C164 O177 1.058 . S
O165 C164 1.229 . S
O166 Zn160 1.969 . S
O166 C169 1.267 . S
O167 Zn160 1.965 . S
O167 C178 1.260 . S
O168 Zn161 1.969 . S
O168 C178 1.258 . S
C169 O166 1.267 . S
C169 O170 1.228 . S
O170 C169 1.228 . S
O171 Zn160 2.024 . S
O171 C162 1.058 . S
C172 O173 1.228 . S
C172 O174 1.267 . S
O173 C172 1.228 . S
O174 Zn161 1.969 . S
O174 C172 1.267 . S
O175 Zn161 1.965 . S
O175 C179 1.260 . S
O176 Zn160 1.969 . S
O176 C179 1.258 . S
O177 Zn161 2.024 . S
O177 C164 1.058 . S
C178 O167 1.260 . S
C178 O168 1.258 . S
C179 O175 1.260 . S
C179 O176 1.258 . S
Zn180 O186 1.969 . S
Zn180 O187 1.965 . S
Zn180 O191 2.024 . S
Zn180 O196 1.969 . S
Zn181 O188 1.969 . S
Zn181 O194 1.969 . S
Zn181 O195 1.965 . S
Zn181 O197 2.024 . S
C182 O183 1.229 . S
C182 O191 1.058 . S
O183 C182 1.229 . S
C184 O185 1.229 . S
C184 O197 1.058 . S
O185 C184 1.229 . S
O186 Zn180 1.969 . S
O186 C189 1.267 . S
O187 Zn180 1.965 . S
O187 C198 1.260 . S
O188 Zn181 1.969 . S
O188 C198 1.258 . S
C189 O186 1.267 . S
C189 O190 1.228 . S
O190 C189 1.228 . S
O191 Zn180 2.024 . S
O191 C182 1.058 . S
C192 O193 1.228 . S
C192 O194 1.267 . S
O193 C192 1.228 . S
O194 Zn181 1.969 . S
O194 C192 1.267 . S
O195 Zn181 1.965 . S
O195 C199 1.260 . S
O196 Zn180 1.969 . S
O196 C199 1.258 . S
O197 Zn181 2.024 . S
O197 C184 1.058 . S
C198 O187 1.260 . S
C198 O188 1.258 . S
C199 O195 1.260 . S
C199 O196 1.258 . S
Zn200 O206 1.969 . S
Zn200 O207 1.965 . S
Zn200 O211 2.024 . S
Zn200 O216 1.969 . S
Zn201 O208 1.969 1_655 S
Zn201 O214 1.969 . S
Zn201 O215 1.965 1_655 S
Zn201 O217 2.024 . S
C202 O203 1.229 . S
C202 O211 1.058 . S
O203 C202 1.229 . S
C204 O205 1.229 . S
C204 O217 1.058 . S
O205 C204 1.229 . S
O206 Zn200 1.969 . S
O206 C209 1.267 . S
O207 Zn200 1.965 . S
O207 C218 1.260 . S
O208 Zn201 1.969 1_455 S
O208 C218 1.258 . S
C209 O206 1.267 . S
C209 O210 1.228 . S
O210 C209 1.228 . S
O211 Zn200 2.024 . S
O211 C202 1.058 . S
C212 O213 1.228 . S
C212 O214 1.267 . S
O213 C212 1.228 . S
O214 Zn201 1.969 . S
O214 C212 1.267 . S
O215 Zn201 1.965 1_455 S
O215 C219 1.260 . S
O216 Zn200 1.969 . S
O216 C219 1.258 . S
O217 Zn201 2.024 . S
O217 C204 1.058 . S
C218 O207 1.260 . S
C218 O208 1.258 . S
C219 O215 1.260 . S
C219 O216 1.258 . S
Zn220 O226 1.969 . S
Zn220 O227 1.965 . S
Zn220 O231 2.024 . S
Zn220 O236 1.969 . S
Zn221 O228 1.969 1_565 S
Zn221 O234 1.969 . S
Zn221 O235 1.965 1_565 S
Zn221 O237 2.024 . S
C222 O223 1.229 . S
C222 O231 1.058 . S
O223 C222 1.229 . S
C224 O225 1.229 . S
C224 O237 1.058 . S
O225 C224 1.229 . S
O226 Zn220 1.969 . S
O226 C229 1.267 . S
O227 Zn220 1.965 . S
O227 C238 1.260 . S
O228 Zn221 1.969 1_545 S
O228 C238 1.258 . S
C229 O226 1.267 . S
C229 O230 1.228 . S
O230 C229 1.228 . S
O231 Zn220 2.024 . S
O231 C222 1.058 . S
C232 O233 1.228 . S
C232 O234 1.267 . S
O233 C232 1.228 . S
O234 Zn221 1.969 . S
O234 C232 1.267 . S
O235 Zn221 1.965 1_545 S
O235 C239 1.260 . S
O236 Zn220 1.969 . S
O236 C239 1.258 . S
O237 Zn221 2.024 . S
O237 C224 1.058 . S
C238 O227 1.260 . S
C238 O228 1.258 . S
C239 O235 1.260 . S
C239 O236 1.258 . S
Zn240 O246 1.969 . S
Zn240 O247 1.965 . S
Zn240 O251 2.024 . S
Zn240 O256 1.969 . S
Zn241 O248 1.969 1_455 S
Zn241 O254 1.969 . S
Zn241 O255 1.965 1_455 S
Zn241 O257 2.024 . S
C242 O243 1.229 . S
C242 O251 1.058 . S
O243 C242 1.229 . S
C244 O245 1.229 . S
C244 O257 1.058 . S
O245 C244 1.229 . S
O246 Zn240 1.969 . S
O246 C249 1.267 . S
O247 Zn240 1.965 . S
O247 C258 1.260 . S
O248 Zn241 1.969 1_655 S
O248 C258 1.258 . S
C249 O246 1.267 . S
C249 O250 1.228 . S
O250 C249 1.228 . S
O251 Zn240 2.024 . S
O251 C242 1.058 . S
C252 O253 1.228 . S
C252 O254 1.267 . S
O253 C252 1.228 . S
O254 Zn241 1.969 . S
O254 C252 1.267 . S
O255 Zn241 1.965 1_655 S
O255 C259 1.260 . S
O256 Zn240 1.969 . S
O256 C259 1.258 . S
O257 Zn241 2.024 . S
O257 C244 1.058 . S
C258 O247 1.260 . S
C258 O248 1.258 . S
C259 O255 1.260 . S
C259 O256 1.258 . S
Zn260 O266 1.969 . S
Zn260 O267 1.965 . S
Zn260 O271 2.024 . S
Zn260 O276 1.969 . S
Zn261 O268 1.969 1_545 S
Zn261 O274 1.969 . S
Zn261 O275 1.965 1_545 S
Zn261 O277 2.024 . S
C262 O263 1.229 . S
C262 O271 1.058 . S
O263 C262 1.229 . S
C264 O265 1.229 . S
C264 O277 1.058 . S
O265 C264 1.229 . S
O266 Zn260 1.969 . S
O266 C269 1.267 . S
O267 Zn260 1.965 . S
O267 C278 1.260 . S
O268 Zn261 1.969 1_565 S
O268 C278 1.258 . S
C269 O266 1.267 . S
C269 O270 1.228 . S
O270 C269 1.228 . S
O271 Zn260 2.024 . S
O271 C262 1.058 . S
C272 O273 1.228 . S
C272 O274 1.267 . S
O273 C272 1.228 . S
O274 Zn261 1.969 . S
O274 C272 1.267 . S
O275 Zn261 1.965 1_565 S
O275 C279 1.260 . S
O276 Zn260 1.969 . S
O276 C279 1.258 . S
O277 Zn261 2.024 . S
O277 C264 1.058 . S
C278 O267 1.260 . S
C278 O268 1.258 . S
C279 O275 1.260 . S
C279 O276 1.258 . S
Zn280 O286 1.969 . S
Zn280 O287 1.965 . S
Zn280 O291 2.024 . S
Zn280 O296 1.969 . S
Zn281 O288 1.969 . S
Zn281 O294 1.969 . S
Zn281 O295 1.965 . S
Zn281 O297 2.024 . S
C282 O283 1.229 . S
C282 O291 1.058 . S
O283 C282 1.229 . S
C284 O285 1.229 . S
C284 O297 1.058 . S
O285 C284 1.229 . S
O286 Zn280 1.969 . S
O286 C289 1.267 . S
O287 Zn280 1.965 . S
O287 C298 1.260 . S
O288 Zn281 1.969 . S
O288 C298 1.258 . S
C289 O286 1.267 . S
C289 O290 1.228 . S
O290 C289 1.228 . S
O291 Zn280 2.024 . S
O291 C282 1.058 . S
C292 O293 1.228 . S
C292 O294 1.267 . S
O293 C292 1.228 . S
O294 Zn281 1.969 . S
O294 C292 1.267 . S
O295 Zn281 1.965 . S
O295 C299 1.260 . S
O296 Zn280 1.969 . S
O296 C299 1.258 . S
O297 Zn281 2.024 . S
O297 C284 1.058 . S
C298 O287 1.260 . S
C298 O288 1.258 . S
C299 O295 1.260 . S
C299 O296 1.258 . S
Zn300 O306 1.969 . S
Zn300 O307 1.965 . S
Zn300 O311 2.024 . S
Zn300 O316 1.969 . S
Zn301 O308 1.969 . S
Zn301 O314 1.969 . S
Zn301 O315 1.965 . S
Zn301 O317 2.024 . S
C302 O303 1.229 . S
C302 O311 1.058 . S
O303 C302 1.229 . S
C304 O305 1.229 . S
C304 O317 1.058 . S
O305 C304 1.229 . S
O306 Zn300 1.969 . S
O306 C309 1.267 . S
O307 Zn300 1.965 . S
O307 C318 1.260 . S
O308 Zn301 1.969 . S
O308 C318 1.258 . S
C309 O306 1.267 . S
C309 O310 1.228 . S
O310 C309 1.228 . S
O311 Zn300 2.024 . S
O311 C302 1.058 . S
C312 O313 1.228 . S
C312 O314 1.267 . S
O313 C312 1.228 . S
O314 Zn301 1.969 . S
O314 C312 1.267 . S
O315 Zn301 1.965 . S
O315 C319 1.260 . S
O316 Zn300 1.969 . S
O316 C319 1.258 . S
O317 Zn301 2.024 . S
O317 C304 1.058 . S
C318 O307 1.260 . S
C318 O308 1.258 . S
C319 O315 1.260 . S
C319 O316 1.258 . S
C320 C321 1.387 . S
C320 H324 0.950 . S
C320 C329 1.390 . S
C321 C320 1.387 . S
C321 C323 1.387 . S
H322 C329 0.950 . S
C323 C321 1.387 . S
C323 C325 1.390 . S
C323 H327 0.950 . S
H324 C320 0.950 . S
C325 C323 1.390 . S
C325 C326 1.387 . S
C325 H328 0.950 . S
C326 C325 1.387 . S
C326 C329 1.387 . S
H327 C323 0.950 . S
H328 C325 0.950 . S
C329 C320 1.390 . S
C329 H322 0.950 . S
C329 C326 1.387 . S
C330 C331 1.387 . S
C330 H334 0.950 . S
C330 C339 1.390 . S
C331 C330 1.387 . S
C331 C333 1.387 . S
H332 C339 0.950 . S
C333 C331 1.387 . S
C333 C335 1.390 . S
C333 H337 0.950 . S
H334 C330 0.950 . S
C335 C333 1.390 . S
C335 C336 1.387 . S
C335 H338 0.950 . S
C336 C335 1.387 . S
C336 C339 1.387 . S
H337 C333 0.950 . S
H338 C335 0.950 . S
C339 C330 1.390 . S
C339 H332 0.950 . S
C339 C336 1.387 . S
C340 C341 1.387 . S
C340 H344 0.950 . S
C340 C349 1.390 . S
C341 C340 1.387 . S
C341 C343 1.387 . S
H342 C349 0.950 . S
C343 C341 1.387 . S
C343 C345 1.390 . S
C343 H347 0.950 . S
H344 C340 0.950 . S
C345 C343 1.390 . S
C345 C346 1.387 . S
C345 H348 0.950 . S
C346 C345 1.387 . S
C346 C349 1.387 . S
H347 C343 0.950 . S
H348 C345 0.950 . S
C349 C340 1.390 . S
C349 H342 0.950 . S
C349 C346 1.387 . S
C350 C351 1.387 . S
C350 H354 0.950 . S
C350 C359 1.390 . S
C351 C350 1.387 . S
C351 C353 1.387 . S
H352 C359 0.950 . S
C353 C351 1.387 . S
C353 C355 1.390 . S
C353 H357 0.950 . S
H354 C350 0.950 . S
C355 C353 1.390 . S
C355 C356 1.387 . S
C355 H358 0.950 . S
C356 C355 1.387 . S
C356 C359 1.387 . S
H357 C353 0.950 . S
H358 C355 0.950 . S
C359 C350 1.390 . S
C359 H352 0.950 . S
C359 C356 1.387 . S
C360 C361 1.387 . S
C360 H364 0.950 . S
C360 C369 1.390 . S
C361 C360 1.387 . S
C361 C363 1.387 . S
H362 C369 0.950 . S
C363 C361 1.387 . S
C363 C365 1.390 . S
C363 H367 0.950 . S
H364 C360 0.950 . S
C365 C363 1.390 . S
C365 C366 1.387 . S
C365 H368 0.950 . S
C366 C365 1.387 . S
C366 C369 1.387 . S
H367 C363 0.950 . S
H368 C365 0.950 . S
C369 C360 1.390 . S
C369 H362 0.950 . S
C369 C366 1.387 . S
C370 C371 1.387 . S
C370 H374 0.950 . S
C370 C379 1.390 . S
C371 C370 1.387 . S
C371 C373 1.387 . S
H372 C379 0.950 . S
C373 C371 1.387 . S
C373 C375 1.390 . S
C373 H377 0.950 . S
H374 C370 0.950 . S
C375 C373 1.390 . S
C375 C376 1.387 . S
C375 H378 0.950 . S
C376 C375 1.387 . S
C376 C379 1.387 . S
H377 C373 0.950 . S
H378 C375 0.950 . S
C379 C370 1.390 . S
C379 H372 0.950 . S
C379 C376 1.387 . S
C380 C381 1.387 . S
C380 H384 0.950 . S
C380 C389 1.390 . S
C381 C380 1.387 . S
C381 C383 1.387 . S
H382 C389 0.950 . S
C383 C381 1.387 . S
C383 C385 1.390 . S
C383 H387 0.950 . S
H384 C380 0.950 . S
C385 C383 1.390 . S
C385 C386 1.387 . S
C385 H388 0.950 . S
C386 C385 1.387 . S
C386 C389 1.387 . S
H387 C383 0.950 . S
H388 C385 0.950 . S
C389 C380 1.390 . S
C389 H382 0.950 . S
C389 C386 1.387 . S
C390 C391 1.387 . S
C390 H394 0.950 . S
C390 C399 1.390 . S
C391 C390 1.387 . S
C391 C393 1.387 . S
H392 C399 0.950 . S
C393 C391 1.387 . S
C393 C395 1.390 . S
C393 H397 0.950 . S
H394 C390 0.950 . S
C395 C393 1.390 . S
C395 C396 1.387 . S
C395 H398 0.950 . S
C396 C395 1.387 . S
C396 C399 1.387 . S
H397 C393 0.950 . S
H398 C395 0.950 . S
C399 C390 1.390 . S
C399 H392 0.950 . S
C399 C396 1.387 . S
C400 C401 1.387 . S
C400 H404 0.950 . S
C400 C409 1.390 . S
C401 C400 1.387 . S
C401 C403 1.387 . S
H402 C409 0.950 . S
C403 C401 1.387 . S
C403 C405 1.390 . S
C403 H407 0.950 . S
H404 C400 0.950 . S
C405 C403 1.390 . S
C405 C406 1.387 . S
C405 H408 0.950 . S
C406 C405 1.387 . S
C406 C409 1.387 . S
H407 C403 0.950 . S
H408 C405 0.950 . S
C409 C400 1.390 . S
C409 H402 0.950 . S
C409 C406 1.387 . S
C410 C411 1.387 . S
C410 H414 0.950 . S
C410 C419 1.390 . S
C411 C410 1.387 . S
C411 C413 1.387 . S
H412 C419 0.950 . S
C413 C411 1.387 . S
C413 C415 1.390 . S
C413 H417 0.950 . S
H414 C410 0.950 . S
C415 C413 1.390 . S
C415 C416 1.387 . S
C415 H418 0.950 . S
C416 C415 1.387 . S
C416 C419 1.387 . S
H417 C413 0.950 . S
H418 C415 0.950 . S
C419 C410 1.390 . S
C419 H412 0.950 . S
C419 C416 1.387 . S
C420 C421 1.387 . S
C420 H424 0.950 . S
C420 C429 1.390 . S
C421 C420 1.387 . S
C421 C423 1.387 . S
H422 C429 0.950 . S
C423 C421 1.387 . S
C423 C425 1.390 . S
C423 H427 0.950 . S
H424 C420 0.950 . S
C425 C423 1.390 . S
C425 C426 1.387 . S
C425 H428 0.950 . S
C426 C425 1.387 . S
C426 C429 1.387 . S
H427 C423 0.950 . S
H428 C425 0.950 . S
C429 C420 1.390 . S
C429 H422 0.950 . S
C429 C426 1.387 . S
C430 C431 1.387 . S
C430 H434 0.950 . S
C430 C439 1.390 . S
C431 C430 1.387 . S
C431 C433 1.387 . S
H432 C439 0.950 . S
C433 C431 1.387 . S
C433 C435 1.390 . S
C433 H437 0.950 . S
H434 C430 0.950 . S
C435 C433 1.390 . S
C435 C436 1.387 . S
C435 H438 0.950 . S
C436 C435 1.387 . S
C436 C439 1.387 . S
H437 C433 0.950 . S
H438 C435 0.950 . S
C439 C430 1.390 . S
C439 H432 0.950 . S
C439 C436 1.387 . S
C440 C441 1.387 . S
C440 H444 0.950 . S
C440 C449 1.390 . S
C441 C440 1.387 . S
C441 C443 1.387 . S
H442 C449 0.950 . S
C443 C441 1.387 . S
C443 C445 1.390 . S
C443 H447 0.950 . S
H444 C440 0.950 . S
C445 C443 1.390 . S
C445 C446 1.387 . S
C445 H448 0.950 . S
C446 C445 1.387 . S
C446 C449 1.387 . S
H447 C443 0.950 . S
H448 C445 0.950 . S
C449 C440 1.390 . S
C449 H442 0.950 . S
C449 C446 1.387 . S
C450 C451 1.387 . S
C450 H454 0.950 . S
C450 C459 1.390 . S
C451 C450 1.387 . S
C451 C453 1.387 . S
H452 C459 0.950 . S
C453 C451 1.387 . S
C453 C455 1.390 . S
C453 H457 0.950 . S
H454 C450 0.950 . S
C455 C453 1.390 . S
C455 C456 1.387 . S
C455 H458 0.950 . S
C456 C455 1.387 . S
C456 C459 1.387 . S
H457 C453 0.950 . S
H458 C455 0.950 . S
C459 C450 1.390 . S
C459 H452 0.950 . S
C459 C456 1.387 . S
C460 C461 1.387 . S
C460 H464 0.950 . S
C460 C469 1.390 . S
C461 C460 1.387 . S
C461 C463 1.387 . S
H462 C469 0.950 . S
C463 C461 1.387 . S
C463 C465 1.390 . S
C463 H467 0.950 . S
H464 C460 0.950 . S
C465 C463 1.390 . S
C465 C466 1.387 . S
C465 H468 0.950 . S
C466 C465 1.387 . S
C466 C469 1.387 . S
H467 C463 0.950 . S
H468 C465 0.950 . S
C469 C460 1.390 . S
C469 H462 0.950 . S
C469 C466 1.387 . S
C470 C471 1.387 . S
C470 H474 0.950 . S
C470 C479 1.390 . S
C471 C470 1.387 . S
C471 C473 1.387 . S
H472 C479 0.950 . S
C473 C471 1.387 . S
C473 C475 1.390 . S
C473 H477 0.950 . S
H474 C470 0.950 . S
C475 C473 1.390 . S
C475 C476 1.387 . S
C475 H478 0.950 . S
C476 C475 1.387 . S
C476 C479 1.387 . S
H477 C473 0.950 . S
H478 C475 0.950 . S
C479 C470 1.390 . S
C479 H472 0.950 . S
C479 C476 1.387 . S
C480 C481 1.387 . S
C480 H484 0.950 . S
C480 C489 1.390 . S
C481 C480 1.387 . S
C481 C483 1.387 . S
H482 C489 0.950 . S
C483 C481 1.387 . S
C483 C485 1.390 . S
C483 H487 0.950 . S
H484 C480 0.950 . S
C485 C483 1.390 . S
C485 C486 1.387 . S
C485 H488 0.950 . S
C486 C485 1.387 . S
C486 C489 1.387 . S
H487 C483 0.950 . S
H488 C485 0.950 . S
C489 C480 1.390 . S
C489 H482 0.950 . S
C489 C486 1.387 . S
C490 C491 1.387 . S
C490 H494 0.950 . S
C490 C499 1.390 . S
C491 C490 1.387 . S
C491 C493 1.387 . S
H492 C499 0.950 . S
C493 C491 1.387 . S
C493 C495 1.390 . S
C493 H497 0.950 . S
H494 C490 0.950 . S
C495 C493 1.390 . S
C495 C496 1.387 . S
C495 H498 0.950 . S
C496 C495 1.387 . S
C496 C499 1.387 . S
H497 C493 0.950 . S
H498 C495 0.950 . S
C499 C490 1.390 . S
C499 H492 0.950 . S
C499 C496 1.387 . S
C500 C501 1.387 . S
C500 H504 0.950 . S
C500 C509 1.390 . S
C501 C500 1.387 . S
C501 C503 1.387 . S
H502 C509 0.950 . S
C503 C501 1.387 . S
C503 C505 1.390 . S
C503 H507 0.950 . S
H504 C500 0.950 . S
C505 C503 1.390 . S
C505 C506 1.387 . S
C505 H508 0.950 . S
C506 C505 1.387 . S
C506 C509 1.387 . S
H507 C503 0.950 . S
H508 C505 0.950 . S
C509 C500 1.390 . S
C509 H502 0.950 . S
C509 C506 1.387 . S
C510 C511 1.387 . S
C510 H514 0.950 . S
C510 C519 1.390 . S
C511 C510 1.387 . S
C511 C513 1.387 . S
H512 C519 0.950 . S
C513 C511 1.387 . S
C513 C515 1.390 . S
C513 H517 0.950 . S
H514 C510 0.950 . S
C515 C513 1.390 . S
C515 C516 1.387 . S
C515 H518 0.950 . S
C516 C515 1.387 . S
C516 C519 1.387 . S
H517 C513 0.950 . S
H518 C515 0.950 . S
C519 C510 1.390 . S
C519 H512 0.950 . S
C519 C516 1.387 . S
C520 C521 1.387 . S
C520 H524 0.950 . S
C520 C529 1.390 . S
C521 C520 1.387 . S
C521 C523 1.387 . S
H522 C529 0.950 . S
C523 C521 1.387 . S
C523 C525 1.390 . S
C523 H527 0.950 . S
H524 C520 0.950 . S
C525 C523 1.390 . S
C525 C526 1.387 . S
C525 H528 0.950 . S
C526 C525 1.387 . S
C526 C529 1.387 . S
H527 C523 0.950 . S
H528 C525 0.950 . S
C529 C520 1.390 . S
C529 H522 0.950 . S
C529 C526 1.387 . S
C530 C531 1.387 . S
C530 H534 0.950 . S
C530 C539 1.390 . S
C531 C530 1.387 . S
C531 C533 1.387 . S
H532 C539 0.950 . S
C533 C531 1.387 . S
C533 C535 1.390 . S
C533 H537 0.950 . S
H534 C530 0.950 . S
C535 C533 1.390 . S
C535 C536 1.387 . S
C535 H538 0.950 . S
C536 C535 1.387 . S
C536 C539 1.387 . S
H537 C533 0.950 . S
H538 C535 0.950 . S
C539 C530 1.390 . S
C539 H532 0.950 . S
C539 C536 1.387 . S
C540 C541 1.387 . S
C540 H544 0.950 . S
C540 C549 1.390 . S
C541 C540 1.387 . S
C541 C543 1.387 . S
H542 C549 0.950 . S
C543 C541 1.387 . S
C543 C545 1.390 . S
C543 H547 0.950 . S
H544 C540 0.950 . S
C545 C543 1.390 . S
C545 C546 1.387 . S
C545 H548 0.950 . S
C546 C545 1.387 . S
C546 C549 1.387 . S
H547 C543 0.950 . S
H548 C545 0.950 . S
C549 C540 1.390 . S
C549 H542 0.950 . S
C549 C546 1.387 . S
C550 C551 1.387 . S
C550 H554 0.950 . S
C550 C559 1.390 . S
C551 C550 1.387 . S
C551 C553 1.387 . S
H552 C559 0.950 . S
C553 C551 1.387 . S
C553 C555 1.390 . S
C553 H557 0.950 . S
H554 C550 0.950 . S
C555 C553 1.390 . S
C555 C556 1.387 . S
C555 H558 0.950 . S
C556 C555 1.387 . S
C556 C559 1.387 . S
H557 C553 0.950 . S
H558 C555 0.950 . S
C559 C550 1.390 . S
C559 H552 0.950 . S
C559 C556 1.387 . S
C560 C561 1.387 . S
C560 H564 0.950 . S
C560 C569 1.390 . S
C561 C560 1.387 . S
C561 C563 1.387 . S
H562 C569 0.950 . S
C563 C561 1.387 . S
C563 C565 1.390 . S
C563 H567 0.950 . S
H564 C560 0.950 . S
C565 C563 1.390 . S
C565 C566 1.387 . S
C565 H568 0.950 . S
C566 C565 1.387 . S
C566 C569 1.387 . S
H567 C563 0.950 . S
H568 C565 0.950 . S
C569 C560 1.390 . S
C569 H562 0.950 . S
C569 C566 1.387 . S
C570 C571 1.387 . S
C570 H574 0.950 . S
C570 C579 1.390 . S
C571 C570 1.387 . S
C571 C573 1.387 . S
H572 C579 0.950 . S
C573 C571 1.387 . S
C573 C575 1.390 . S
C573 H577 0.950 . S
H574 C570 0.950 . S
C575 C573 1.390 . S
C575 C576 1.387 . S
C575 H578 0.950 . S
C576 C575 1.387 . S
C576 C579 1.387 . S
H577 C573 0.950 . S
H578 C575 0.950 . S
C579 C570 1.390 . S
C579 H572 0.950 . S
C579 C576 1.387 . S
C580 C581 1.387 . S
C580 H584 0.950 . S
C580 C589 1.390 . S
C581 C580 1.387 . S
C581 C583 1.387 . S
H582 C589 0.950 . S
C583 C581 1.387 . S
C583 C585 1.390 . S
C583 H587 0.950 . S
H584 C580 0.950 . S
C585 C583 1.390 . S
C585 C586 1.387 . S
C585 H588 0.950 . S
C586 C585 1.387 . S
C586 C589 1.387 . S
H587 C583 0.950 . S
H588 C585 0.950 . S
C589 C580 1.390 . S
C589 H582 0.950 . S
C589 C586 1.387 . S
C590 C591 1.387 . S
C590 H594 0.950 . S
C590 C599 1.390 . S
C591 C590 1.387 . S
C591 C593 1.387 . S
H592 C599 0.950 . S
C593 C591 1.387 . S
C593 C595 1.390 . S
C593 H597 0.950 . S
H594 C590 0.950 . S
C595 C593 1.390 . S
C595 C596 1.387 . S
C595 H598 0.950 . S
C596 C595 1.387 . S
C596 C599 1.387 . S
H597 C593 0.950 . S
H598 C595 0.950 . S
C599 C590 1.390 . S
C599 H592 0.950 . S
C599 C596 1.387 . S
C600 C601 1.387 . S
C600 H604 0.950 . S
C600 C609 1.390 . S
C601 C600 1.387 . S
C601 C603 1.387 . S
H602 C609 0.950 . S
C603 C601 1.387 . S
C603 C605 1.390 . S
C603 H607 0.950 . S
H604 C600 0.950 . S
C605 C603 1.390 . S
C605 C606 1.387 . S
C605 H608 0.950 . S
C606 C605 1.387 . S
C606 C609 1.387 . S
H607 C603 0.950 . S
H608 C605 0.950 . S
C609 C600 1.390 . S
C609 H602 0.950 . S
C609 C606 1.387 . S
C610 C611 1.387 . S
C610 H614 0.950 . S
C610 C619 1.390 . S
C611 C610 1.387 . S
C611 C613 1.387 . S
H612 C619 0.950 . S
C613 C611 1.387 . S
C613 C615 1.390 . S
C613 H617 0.950 . S
H614 C610 0.950 . S
C615 C613 1.390 . S
C615 C616 1.387 . S
C615 H618 0.950 . S
C616 C615 1.387 . S
C616 C619 1.387 . S
H617 C613 0.950 . S
H618 C615 0.950 . S
C619 C610 1.390 . S
C619 H612 0.950 . S
C619 C616 1.387 . S
C620 C621 1.387 . S
C620 H624 0.950 . S
C620 C629 1.390 . S
C621 C620 1.387 . S
C621 C623 1.387 . S
H622 C629 0.950 . S
C623 C621 1.387 . S
C623 C625 1.390 . S
C623 H627 0.950 . S
H624 C620 0.950 . S
C625 C623 1.390 . S
C625 C626 1.387 . S
C625 H628 0.950 . S
C626 C625 1.387 . S
C626 C629 1.387 . S
H627 C623 0.950 . S
H628 C625 0.950 . S
C629 C620 1.390 . S
C629 H622 0.950 . S
C629 C626 1.387 . S
C630 C631 1.387 . S
C630 H634 0.950 . S
C630 C639 1.390 . S
C631 C630 1.387 . S
C631 C633 1.387 . S
H632 C639 0.950 . S
C633 C631 1.387 . S
C633 C635 1.390 . S
C633 H637 0.950 . S
H634 C630 0.950 . S
C635 C633 1.390 . S
C635 C636 1.387 . S
C635 H638 0.950 . S
C636 C635 1.387 . S
C636 C639 1.387 . S
H637 C633 0.950 . S
H638 C635 0.950 . S
C639 C630 1.390 . S
C639 H632 0.950 . S
C639 C636 1.387 . S
C640 C641 1.387 . S
C640 H644 0.950 . S
C640 C649 1.390 . S
C641 C640 1.387 . S
C641 C643 1.387 . S
H642 C649 0.950 . S
C643 C641 1.387 . S
C643 C645 1.390 . S
C643 H647 0.950 . S
H644 C640 0.950 . S
C645 C643 1.390 . S
C645 C646 1.387 . S
C645 H648 0.950 . S
C646 C645 1.387 . S
C646 C649 1.387 . S
H647 C643 0.950 . S
H648 C645 0.950 . S
C649 C640 1.390 . S
C649 H642 0.950 . S
C649 C646 1.387 . S
C650 C651 1.387 . S
C650 H654 0.950 . S
C650 C659 1.390 . S
C651 C650 1.387 . S
C651 C653 1.387 . S
H652 C659 0.950 . S
C653 C651 1.387 . S
C653 C655 1.390 . S
C653 H657 0.950 . S
H654 C650 0.950 . S
C655 C653 1.390 . S
C655 C656 1.387 . S
C655 H658 0.950 . S
C656 C655 1.387 . S
C656 C659 1.387 . S
H657 C653 0.950 . S
H658 C655 0.950 . S
C659 C650 1.390 . S
C659 H652 0.950 . S
C659 C656 1.387 . S
C660 C661 1.387 . S
C660 H664 0.950 . S
C660 C669 1.390 . S
C661 C660 1.387 . S
C661 C663 1.387 . S
H662 C669 0.950 . S
C663 C661 1.387 . S
C663 C665 1.390 . S
C663 H667 0.950 . S
H664 C660 0.950 . S
C665 C663 1.390 . S
C665 C666 1.387 . S
C665 H668 0.950 . S
C666 C665 1.387 . S
C666 C669 1.387 . S
H667 C663 0.950 . S
H668 C665 0.950 . S
C669 C660 1.390 . S
C669 H662 0.950 . S
C669 C666 1.387 . S
C670 C671 1.387 . S
C670 H674 0.950 . S
C670 C679 1.390 . S
C671 C670 1.387 . S
C671 C673 1.387 . S
H672 C679 0.950 . S
C673 C671 1.387 . S
C673 C675 1.390 . S
C673 H677 0.950 . S
H674 C670 0.950 . S
C675 C673 1.390 . S
C675 C676 1.387 . S
C675 H678 0.950 . S
C676 C675 1.387 . S
C676 C679 1.387 . S
H677 C673 0.950 . S
H678 C675 0.950 . S
C679 C670 1.390 . S
C679 H672 0.950 . S
C679 C676 1.387 . S
C680 C681 1.387 . S
C680 H684 0.950 . S
C680 C689 1.390 1_556 S
C681 C680 1.387 . S
C681 C683 1.387 1_556 S
H682 C689 0.951 . S
C683 C681 1.387 1_554 S
C683 C685 1.390 . S
C683 H687 0.950 . S
H684 C680 0.950 . S
C685 C683 1.390 . S
C685 C686 1.387 . S
C685 H688 0.950 . S
C686 C685 1.387 . S
C686 C689 1.387 . S
H687 C683 0.950 . S
H688 C685 0.950 . S
C689 C680 1.390 1_554 S
C689 H682 0.951 . S
C689 C686 1.387 . S
C690 C691 1.387 . S
C690 H694 0.950 . S
C690 C699 1.390 . S
C691 C690 1.387 . S
C691 C693 1.387 . S
H692 C699 0.950 . S
C693 C691 1.387 . S
C693 C695 1.390 1_554 S
C693 H697 0.950 . S
H694 C690 0.950 . S
C695 C693 1.390 1_556 S
C695 C696 1.387 . S
C695 H698 0.950 . S
C696 C695 1.387 . S
C696 C699 1.387 1_556 S
H697 C693 0.950 . S
H698 C695 0.950 . S
C699 C690 1.390 . S
C699 H692 0.950 . S
C699 C696 1.387 1_554 S
C700 C701 1.387 1_554 S
C700 H704 0.950 . S
C700 C709 1.390 . S
C701 C700 1.387 1_556 S
C701 C703 1.387 . S
H702 C709 0.950 . S
C703 C701 1.387 . S
C703 C705 1.390 1_556 S
C703 H707 0.950 . S
H704 C700 0.950 . S
C705 C703 1.390 1_554 S
C705 C706 1.387 . S
C705 H708 0.950 . S
C706 C705 1.387 . S
C706 C709 1.387 . S
H707 C703 0.950 . S
H708 C705 0.950 . S
C709 C700 1.390 . S
C709 H702 0.950 . S
C709 C706 1.387 . S
C710 C711 1.387 . S
C710 H714 0.950 . S
C710 C719 1.390 . S
C711 C710 1.387 . S
C711 C713 1.387 1_554 S
H712 C719 0.950 . S
C713 C711 1.387 1_556 S
C713 C715 1.390 . S
C713 H717 0.950 . S
H714 C710 0.950 . S
C715 C713 1.390 . S
C715 C716 1.387 . S
C715 H718 0.950 . S
C716 C715 1.387 . S
C716 C719 1.387 1_556 S
H717 C713 0.950 . S
H718 C715 0.950 . S
C719 C710 1.390 . S
C719 H712 0.950 . S
C719 C716 1.387 1_554 S
C720 C721 1.387 . S
C720 H724 0.950 . S
C720 C729 1.390 . S
C721 C720 1.387 . S
C721 C723 1.387 . S
H722 C729 0.950 . S
C723 C721 1.387 . S
C723 C725 1.390 . S
C723 H727 0.950 . S
H724 C720 0.950 . S
C725 C723 1.390 . S
C725 C726 1.387 . S
C725 H728 0.950 . S
C726 C725 1.387 . S
C726 C729 1.387 . S
H727 C723 0.950 . S
H728 C725 0.950 . S
C729 C720 1.390 . S
C729 H722 0.950 . S
C729 C726 1.387 . S
C730 C731 1.387 . S
C730 H734 0.950 . S
C730 C739 1.390 . S
C731 C730 1.387 . S
C731 C733 1.387 . S
H732 C739 0.950 . S
C733 C731 1.387 . S
C733 C735 1.390 . S
C733 H737 0.950 . S
H734 C730 0.950 . S
C735 C733 1.390 . S
C735 C736 1.387 . S
C735 H738 0.950 . S
C736 C735 1.387 . S
C736 C739 1.387 . S
H737 C733 0.950 . S
H738 C735 0.950 . S
C739 C730 1.390 . S
C739 H732 0.950 . S
C739 C736 1.387 . S
C740 C741 1.387 . S
C740 H744 0.950 . S
C740 C749 1.390 . S
C741 C740 1.387 . S
C741 C743 1.387 . S
H742 C749 0.950 . S
C743 C741 1.387 . S
C743 C745 1.390 . S
C743 H747 0.950 . S
H744 C740 0.950 . S
C745 C743 1.390 . S
C745 C746 1.387 . S
C745 H748 0.950 . S
C746 C745 1.387 . S
C746 C749 1.387 . S
H747 C743 0.950 . S
H748 C745 0.950 . S
C749 C740 1.390 . S
C749 H742 0.950 . S
C749 C746 1.387 . S
C750 C751 1.387 . S
C750 H754 0.950 . S
C750 C759 1.390 . S
C751 C750 1.387 . S
C751 C753 1.387 . S
H752 C759 0.950 . S
C753 C751 1.387 . S
C753 C755 1.390 . S
C753 H757 0.950 . S
H754 C750 0.950 . S
C755 C753 1.390 . S
C755 C756 1.387 . S
C755 H758 0.950 . S
C756 C755 1.387 . S
C756 C759 1.387 . S
H757 C753 0.950 . S
H758 C755 0.950 . S
C759 C750 1.390 . S
C759 H752 0.950 . S
C759 C756 1.387 . S
C760 C761 1.387 . S
C760 H764 0.950 . S
C760 C769 1.390 . S
C761 C760 1.387 . S
C761 C763 1.387 . S
H762 C769 0.950 . S
C763 C761 1.387 . S
C763 C765 1.390 1_556 S
C763 H767 0.950 1_556 S
H764 C760 0.950 . S
C765 C763 1.390 1_554 S
C765 C766 1.387 . S
C765 H768 0.950 . S
C766 C765 1.387 . S
C766 C769 1.387 1_554 S
H767 C763 0.950 1_554 S
H768 C765 0.950 . S
C769 C760 1.390 . S
C769 H762 0.950 . S
C769 C766 1.387 1_556 S
C770 C771 1.387 1_554 S
C770 H774 0.950 . S
C770 C779 1.390 . S
C771 C770 1.387 1_556 S
C771 C773 1.387 . S
H772 C779 0.950 . S
C773 C771 1.387 . S
C773 C775 1.390 . S
C773 H777 0.950 . S
H774 C770 0.950 . S
C775 C773 1.390 . S
C775 C776 1.387 1_556 S
C775 H778 0.950 . S
C776 C775 1.387 1_554 S
C776 C779 1.387 . S
H777 C773 0.950 . S
H778 C775 0.950 . S
C779 C770 1.390 . S
C779 H772 0.950 . S
C779 C776 1.387 . S
C780 C781 1.387 1_556 S
C780 H784 0.950 . S
C780 C789 1.390 . S
C781 C780 1.387 1_554 S
C781 C783 1.387 . S
H782 C789 0.950 . S
C783 C781 1.387 . S
C783 C785 1.390 1_554 S
C783 H787 0.950 . S
H784 C780 0.950 . S
C785 C783 1.390 1_556 S
C785 C786 1.387 . S
C785 H788 0.950 . S
C786 C785 1.387 . S
C786 C789 1.387 . S
H787 C783 0.950 . S
H788 C785 0.950 . S
C789 C780 1.390 . S
C789 H782 0.950 . S
C789 C786 1.387 . S
C790 C791 1.387 1_556 S
C790 H794 0.950 . S
C790 C799 1.390 . S
C791 C790 1.387 1_554 S
C791 C793 1.387 . S
H792 C799 0.950 . S
C793 C791 1.387 . S
C793 C795 1.390 . S
C793 H797 0.950 . S
H794 C790 0.950 . S
C795 C793 1.390 . S
C795 C796 1.387 1_554 S
C795 H798 0.950 . S
C796 C795 1.387 1_556 S
C796 C799 1.387 . S
H797 C793 0.950 . S
H798 C795 0.950 . S
C799 C790 1.390 . S
C799 H792 0.950 . S
C799 C796 1.387 . S
C321 C18 1.934 . S
C326 C118 1.933 . S
C331 C138 1.934 . S
C336 C38 1.935 . S
C341 C58 1.933 . S
C346 C158 1.935 . S
C351 C78 1.935 . S
C356 C98 1.934 . S
C361 C279 1.935 . S
C366 C179 1.936 . S
C371 C299 1.936 . S
C376 C199 1.934 . S
C381 C219 1.933 . S
C386 C319 1.934 . S
C391 C239 1.934 . S
C396 C259 1.934 . S
C401 C9 1.828 . S
C406 C62 1.704 . S
C411 C29 1.829 . S
C416 C2 1.704 . S
C421 C49 1.830 . S
C426 C22 1.707 . S
C431 C69 1.829 . S
C436 C42 1.707 . S
C441 C89 1.828 . S
C446 C102 1.704 . S
C451 C122 1.706 . S
C456 C109 1.829 . S
C461 C129 1.829 . S
C466 C142 1.707 . S
C471 C82 1.703 . S
C476 C149 1.828 . S
C481 C224 1.708 . S
C486 C172 1.830 . S
C491 C192 1.828 . S
C496 C164 1.703 . S
C501 C212 1.830 . S
C506 C184 1.708 . S
C511 C232 1.831 . S
C516 C204 1.708 . S
C521 C252 1.827 . S
C526 C264 1.703 . S
C531 C272 1.830 . S
C536 C284 1.705 . S
C541 C292 1.829 . S
C546 C304 1.707 . S
C551 C312 1.829 . S
C556 C244 1.706 . S
C561 C12 0.637 . S
C566 C52 0.637 . S
C571 C32 0.642 . S
C576 C72 0.642 . S
C581 C132 0.637 . S
C586 C92 0.637 . S
C591 C152 0.642 . S
C596 C112 0.642 . S
C601 C209 0.642 . S
C606 C169 0.642 . S
C611 C229 0.637 . S
C616 C189 0.637 . S
C621 C249 0.642 . S
C626 C289 0.642 . S
C631 C269 0.637 . S
C636 C309 0.637 . S
C641 C4 1.359 . S
C646 C238 1.445 . S
C651 C178 1.448 . S
C656 C24 1.362 . S
C661 C44 1.358 . S
C666 C198 1.445 . S
C671 C218 1.445 . S
C676 C64 1.358 . S
C681 C278 1.445 . S
C686 C84 1.358 . S
C691 C104 1.361 . S
C696 C298 1.445 . S
C701 C318 1.448 . S
C706 C124 1.362 . S
C711 C144 1.362 . S
C716 C258 1.446 . S
C721 C162 1.363 . S
C726 C79 1.448 . S
C731 C182 1.361 . S
C736 C19 1.448 . S
C741 C39 1.448 . S
C746 C202 1.363 . S
C751 C222 1.358 . S
C756 C59 1.445 . S
C761 C242 1.358 . S
C766 C119 1.445 . S
C771 C262 1.362 . S
C776 C139 1.446 . S
C781 C159 1.445 . S
C786 C282 1.359 . S
C791 C99 1.446 . S
C796 C302 1.358 . S
