# Generated by pormake.
# Topology uoc, (4)-cn, num edge types: 1
# Building blocks:
#     Node 0, Type 0, BuildingBlock: GALJAG_clean_sbu_0, # of connection points: 4
#     Node 1, Type 0, BuildingBlock: GALJAG_clean_sbu_0, # of connection points: 4
#     Node 2, Type 0, BuildingBlock: GALJAG_clean_sbu_0, # of connection points: 4
#     Node 3, Type 0, BuildingBlock: GALJAG_clean_sbu_0, # of connection points: 4
#     Node 4, Type 0, BuildingBlock: GALJAG_clean_sbu_0, # of connection points: 4
#     Node 5, Type 0, BuildingBlock: GALJAG_clean_sbu_0, # of connection points: 4
#     Node 6, Type 0, BuildingBlock: GALJAG_clean_sbu_0, # of connection points: 4
#     Node 7, Type 0, BuildingBlock: GALJAG_clean_sbu_0, # of connection points: 4
#     Edge 8, Type (0, 0), BuildingBlock: OJICUG_clean_linker_0, # of connection points: 2
#     Edge 9, Type (0, 0), BuildingBlock: OJICUG_clean_linker_0, # of connection points: 2
#     Edge 10, Type (0, 0), BuildingBlock: OJICUG_clean_linker_0, # of connection points: 2
#     Edge 11, Type (0, 0), BuildingBlock: OJICUG_clean_linker_0, # of connection points: 2
#     Edge 12, Type (0, 0), BuildingBlock: OJICUG_clean_linker_0, # of connection points: 2
#     Edge 13, Type (0, 0), BuildingBlock: OJICUG_clean_linker_0, # of connection points: 2
#     Edge 14, Type (0, 0), BuildingBlock: OJICUG_clean_linker_0, # of connection points: 2
#     Edge 15, Type (0, 0), BuildingBlock: OJICUG_clean_linker_0, # of connection points: 2
#     Edge 16, Type (0, 0), BuildingBlock: OJICUG_clean_linker_0, # of connection points: 2
#     Edge 17, Type (0, 0), BuildingBlock: OJICUG_clean_linker_0, # of connection points: 2
#     Edge 18, Type (0, 0), BuildingBlock: OJICUG_clean_linker_0, # of connection points: 2
#     Edge 19, Type (0, 0), BuildingBlock: OJICUG_clean_linker_0, # of connection points: 2
#     Edge 20, Type (0, 0), BuildingBlock: OJICUG_clean_linker_0, # of connection points: 2
#     Edge 21, Type (0, 0), BuildingBlock: OJICUG_clean_linker_0, # of connection points: 2
#     Edge 22, Type (0, 0), BuildingBlock: OJICUG_clean_linker_0, # of connection points: 2
#     Edge 23, Type (0, 0), BuildingBlock: OJICUG_clean_linker_0, # of connection points: 2
# Relax obj value: 0.017
# Max RMSD: 0.050
# Mean RMSD: 0.050
data_MOF--net-uoc--node1-GALJAG_clean_sbu_0--edge1-OJICUG_clean_linker_0
_symmetry_space_group_name_H-M    P1
_symmetry_Int_Tables_number       1
_symmetry_cell_setting            triclinic
loop_
_symmetry_equiv_pos_as_xyz
'x, y, z'
_cell_length_a     20.333581
_cell_length_b     20.25386
_cell_length_c     40.814497
_cell_angle_alpha  90.165158
_cell_angle_beta   89.936302
_cell_angle_gamma 90.52699
loop_
_atom_site_label
_atom_site_type_symbol
_atom_site_fract_x
_atom_site_fract_y
_atom_site_fract_z
_atom_type_partial_charge
In0 In 0.11326 0.25464 0.11725 0.0
O1 O 0.0226 0.321 0.11749 0.0
O2 O 0.11725 0.36671 0.11827 0.0
C3 C 0.05553 0.13415 0.11624 0.0
C4 C 0.16913 0.25975 0.17699 0.0
C5 C 0.17077 0.24977 0.05784 0.0
O6 O 0.11705 0.14269 0.11629 0.0
O7 O 0.02245 0.18678 0.11666 0.0
O8 O 0.20062 0.23339 0.08366 0.0
O9 O 0.1128 0.26954 0.06217 0.0
C10 C 0.05573 0.37419 0.11811 0.0
O11 O 0.19967 0.27721 0.15143 0.0
O12 O 0.11129 0.23899 0.17225 0.0
In13 In 0.75079 0.61287 0.36834 0.0
O14 O 0.7726 0.70023 0.33451 0.0
O15 O 0.73612 0.61114 0.31324 0.0
C16 C 0.74594 0.66896 0.42817 0.0
C17 C 0.87029 0.55594 0.36752 0.0
C18 C 0.63032 0.55583 0.36911 0.0
O19 O 0.73061 0.70001 0.40251 0.0
O20 O 0.76465 0.61052 0.42346 0.0
O21 O 0.68248 0.52219 0.36869 0.0
O22 O 0.63932 0.61754 0.36908 0.0
C23 C 0.75607 0.66953 0.30876 0.0
O24 O 0.81753 0.52227 0.36742 0.0
O25 O 0.86238 0.61763 0.36804 0.0
In26 In 0.38417 0.24799 0.61719 0.0
O27 O 0.47484 0.18165 0.61712 0.0
O28 O 0.38019 0.13593 0.61808 0.0
C29 C 0.44179 0.36853 0.61641 0.0
C30 C 0.32852 0.2428 0.67703 0.0
C31 C 0.32698 0.25271 0.55777 0.0
O32 O 0.47491 0.31592 0.61676 0.0
O33 O 0.38026 0.35995 0.61643 0.0
O34 O 0.29699 0.26927 0.58361 0.0
O35 O 0.38485 0.23278 0.5621 0.0
C36 C 0.44171 0.12845 0.61778 0.0
O37 O 0.29791 0.2252 0.65149 0.0
O38 O 0.38623 0.26384 0.67221 0.0
In39 In 0.74891 0.88895 0.86866 0.0
O40 O 0.72701 0.80191 0.83444 0.0
O41 O 0.76325 0.89124 0.81354 0.0
C42 C 0.75328 0.83237 0.92823 0.0
C43 C 0.6295 0.94602 0.86808 0.0
C44 C 0.86946 0.94585 0.86957 0.0
O45 O 0.76913 0.80162 0.90246 0.0
O46 O 0.73435 0.89074 0.92376 0.0
O47 O 0.81732 0.97954 0.8695 0.0
O48 O 0.8604 0.88416 0.86915 0.0
C49 C 0.74325 0.8329 0.8088 0.0
O50 O 0.68229 0.97965 0.86823 0.0
O51 O 0.63736 0.88432 0.86827 0.0
In52 In 0.6172 0.75013 0.61818 0.0
O53 O 0.52644 0.81633 0.61887 0.0
O54 O 0.62105 0.86215 0.61759 0.0
C55 C 0.55954 0.62961 0.61742 0.0
C56 C 0.67264 0.75791 0.67799 0.0
C57 C 0.67433 0.74345 0.55872 0.0
O58 O 0.52645 0.68224 0.6169 0.0
O59 O 0.62103 0.63817 0.61844 0.0
O60 O 0.70411 0.72688 0.58454 0.0
O61 O 0.61681 0.76441 0.5631 0.0
C62 C 0.55953 0.86957 0.61829 0.0
O63 O 0.70325 0.77466 0.65232 0.0
O64 O 0.6151 0.73626 0.6733 0.0
In65 In 0.25101 0.11888 0.86826 0.0
O66 O 0.27326 0.20494 0.83372 0.0
O67 O 0.23666 0.11515 0.81321 0.0
C68 C 0.24563 0.17664 0.92766 0.0
C69 C 0.37053 0.06203 0.86793 0.0
C70 C 0.13057 0.06182 0.86933 0.0
O71 O 0.22984 0.20679 0.90181 0.0
O72 O 0.26516 0.11837 0.92334 0.0
O73 O 0.18275 0.02818 0.8694 0.0
O74 O 0.13956 0.12351 0.86867 0.0
C75 C 0.25688 0.17328 0.80823 0.0
O76 O 0.31778 0.02832 0.86805 0.0
O77 O 0.36258 0.12373 0.86805 0.0
In78 In 0.88031 0.75252 0.11817 0.0
O79 O 0.79425 0.72867 0.15244 0.0
O80 O 0.88255 0.76709 0.17327 0.0
C81 C 0.82359 0.75812 0.05867 0.0
C82 C 0.93794 0.63308 0.11842 0.0
C83 C 0.93779 0.87309 0.11727 0.0
O84 O 0.7935 0.77481 0.08446 0.0
O85 O 0.88119 0.73754 0.0631 0.0
O86 O 0.97095 0.8205 0.11687 0.0
O87 O 0.8763 0.86448 0.11826 0.0
C88 C 0.82499 0.74558 0.17806 0.0
O89 O 0.97106 0.68631 0.11881 0.0
O90 O 0.87642 0.6405 0.11781 0.0
In91 In 0.24871 0.38296 0.36824 0.0
O92 O 0.22623 0.29673 0.33361 0.0
O93 O 0.26315 0.38629 0.3132 0.0
C94 C 0.2537 0.32568 0.42761 0.0
C95 C 0.12927 0.43993 0.36778 0.0
C96 C 0.36921 0.43986 0.36913 0.0
O97 O 0.26959 0.2953 0.40174 0.0
O98 O 0.23431 0.38395 0.42333 0.0
O99 O 0.31707 0.47354 0.36949 0.0
O100 O 0.36017 0.37817 0.36829 0.0
C101 C 0.24268 0.32822 0.30815 0.0
O102 O 0.18204 0.4736 0.36813 0.0
O103 O 0.13716 0.37823 0.36779 0.0
C104 C 0.24819 0.1935 0.01969 0.0
C105 C 0.19812 0.23964 0.02479 0.0
H106 H 0.30233 0.13698 0.98455 0.0
C107 C 0.16954 0.27074 -0.00236 0.0
H108 H 0.27092 0.16874 0.0402 0.0
C109 C 0.18835 0.25347 0.96584 0.0
C110 C 0.23499 0.20384 0.96073 0.0
H111 H 0.13098 0.30671 0.00097 0.0
H112 H 0.16361 0.27618 0.94531 0.0
C113 C 0.26599 0.17522 0.98788 0.0
C114 C 0.8114 0.7478 0.27026 0.0
C115 C 0.76562 0.69669 0.27562 0.0
H116 H 0.86645 0.8032 0.2348 0.0
C117 C 0.73394 0.66719 0.24865 0.0
H118 H 0.8366 0.77124 0.29063 0.0
C119 C 0.75012 0.68629 0.21675 0.0
C120 C 0.79922 0.73418 0.21134 0.0
H121 H 0.69823 0.62782 0.25217 0.0
H122 H 0.72687 0.66095 0.19636 0.0
C123 C 0.82857 0.76592 0.23835 0.0
C124 C 0.32855 0.23144 0.49754 0.0
C125 C 0.29995 0.26286 0.52471 0.0
H126 H 0.33491 0.22569 0.44521 0.0
C127 C 0.25028 0.30937 0.51963 0.0
H128 H 0.36681 0.19519 0.50085 0.0
C129 C 0.23292 0.32763 0.48783 0.0
C130 C 0.26394 0.29865 0.46066 0.0
H131 H 0.22756 0.3344 0.54016 0.0
H132 H 0.19689 0.36612 0.48452 0.0
C133 C 0.31017 0.24869 0.46574 0.0
C134 C 0.76431 0.8361 0.74858 0.0
C135 C 0.7332 0.80616 0.77555 0.0
H136 H 0.77052 0.84295 0.69629 0.0
C137 C 0.68745 0.755 0.77012 0.0
H138 H 0.79996 0.87555 0.75215 0.0
C139 C 0.6698 0.73721 0.7382 0.0
C140 C 0.69866 0.76931 0.71123 0.0
H141 H 0.66266 0.73123 0.79049 0.0
H142 H 0.63202 0.69982 0.73463 0.0
C143 C 0.74767 0.81733 0.71666 0.0
C144 C 0.18501 0.25275 0.269 0.0
C145 C 0.23201 0.3026 0.27475 0.0
H146 H 0.12781 0.20036 0.23318 0.0
C147 C 0.26355 0.3328 0.24798 0.0
H148 H 0.15987 0.22886 0.28922 0.0
C149 C 0.24606 0.31572 0.21595 0.0
C150 C 0.19578 0.26919 0.21024 0.0
H151 H 0.30016 0.37124 0.2518 0.0
H152 H 0.26929 0.34157 0.19576 0.0
C153 C 0.16654 0.23666 0.23698 0.0
C154 C 0.74908 0.68418 0.52033 0.0
C155 C 0.70106 0.73239 0.52562 0.0
H156 H 0.80068 0.62583 0.48497 0.0
C157 C 0.67357 0.76484 0.49859 0.0
H158 H 0.77084 0.65828 0.54076 0.0
C159 C 0.69147 0.74713 0.46672 0.0
C160 C 0.73606 0.69571 0.4614 0.0
H161 H 0.63657 0.80237 0.50206 0.0
H162 H 0.66765 0.77114 0.44629 0.0
C163 C 0.76593 0.66549 0.48845 0.0
C164 C 0.33136 0.2658 0.73709 0.0
C165 C 0.30223 0.23301 0.71033 0.0
H166 H 0.33848 0.27355 0.78933 0.0
C167 C 0.2526 0.18584 0.71606 0.0
H168 H 0.36961 0.30258 0.73328 0.0
C169 C 0.23566 0.16844 0.74809 0.0
C170 C 0.2671 0.19894 0.77486 0.0
H171 H 0.22949 0.15975 0.69585 0.0
H172 H 0.19954 0.12954 0.75191 0.0
C173 C 0.31343 0.24938 0.76912 0.0
C174 C 0.74851 0.81635 0.02029 0.0
C175 C 0.79713 0.76882 0.02553 0.0
H176 H 0.69675 0.87418 0.985 0.0
C177 C 0.82552 0.73689 -0.00154 0.0
H178 H 0.72602 0.84182 0.04075 0.0
C179 C 0.80797 0.75455 0.9666 0.0
C180 C 0.7628 0.8054 0.96136 0.0
H181 H 0.86301 0.69988 0.00189 0.0
H182 H 0.83252 0.73104 0.94615 0.0
C183 C 0.73198 0.835 0.98843 0.0
C184 C 0.95655 0.05946 0.11676 0.0
C185 C 0.02519 0.06748 0.11613 0.0
H186 H 0.87517 0.99165 0.11763 0.0
C187 C 0.06496 0.01101 0.11567 0.0
H188 H 0.92466 0.10199 0.11713 0.0
C189 C 0.03669 0.94781 0.11596 0.0
C190 C 0.96806 0.93978 0.11674 0.0
H191 H 0.11807 0.01559 0.11516 0.0
H192 H 0.06859 0.90527 0.11566 0.0
C193 C 0.92828 0.99624 0.11707 0.0
C194 C 0.05578 0.53865 0.36781 0.0
C195 C 0.06313 0.46981 0.36752 0.0
H196 H 0.98902 0.61978 0.36801 0.0
C197 C 0.00649 0.42938 0.36704 0.0
H198 H 0.09846 0.57106 0.36816 0.0
C199 C 0.94379 0.45723 0.36695 0.0
C200 C 0.93644 0.52607 0.36734 0.0
H201 H 0.01055 0.37609 0.36677 0.0
H202 H 0.90111 0.42482 0.36664 0.0
C203 C 0.99308 0.56649 0.36772 0.0
C204 C 0.43234 0.49168 0.6157 0.0
C205 C 0.4721 0.43522 0.61635 0.0
H206 H 0.42872 0.59742 0.61552 0.0
C207 C 0.54072 0.44325 0.61719 0.0
H208 H 0.37924 0.48708 0.61503 0.0
C209 C 0.56899 0.50646 0.61749 0.0
C210 C 0.52923 0.56293 0.61695 0.0
H211 H 0.57261 0.40072 0.61771 0.0
H212 H 0.62209 0.51105 0.61821 0.0
C213 C 0.46061 0.55489 0.61599 0.0
C214 C 0.55603 0.04477 0.86784 0.0
C215 C 0.56337 0.97592 0.86789 0.0
H216 H 0.48927 0.12591 0.86781 0.0
C217 C 0.50673 0.9355 0.86783 0.0
H218 H 0.59871 0.07717 0.86787 0.0
C219 C 0.44403 0.96334 0.86781 0.0
C220 C 0.43668 0.03219 0.86783 0.0
H221 H 0.51077 0.88221 0.86785 0.0
H222 H 0.40135 0.93093 0.86781 0.0
C223 C 0.49333 0.07262 0.86781 0.0
C224 C 0.9285 0.50976 0.11799 0.0
C225 C 0.96827 0.56696 0.11852 0.0
H226 H 0.92489 0.40396 0.11746 0.0
C227 C 0.0369 0.56021 0.11909 0.0
H228 H 0.87539 0.51336 0.11757 0.0
C229 C 0.0652 0.49752 0.11903 0.0
C230 C 0.02543 0.44032 0.11841 0.0
H231 H 0.06879 0.60334 0.11953 0.0
H232 H 0.11831 0.49392 0.11942 0.0
C233 C 0.95679 0.44708 0.11793 0.0
C234 C 0.44453 0.53854 0.36993 0.0
C235 C 0.43591 0.46971 0.3694 0.0
H236 H 0.51277 0.61966 0.37027 0.0
C237 C 0.49181 0.42927 0.36896 0.0
H238 H 0.40245 0.57095 0.37029 0.0
C239 C 0.55503 0.45711 0.36895 0.0
C240 C 0.56364 0.52595 0.36937 0.0
H241 H 0.48677 0.37599 0.36856 0.0
H242 H 0.5971 0.4247 0.36854 0.0
C243 C 0.50774 0.56637 0.36992 0.0
C244 C 0.54064 0.05556 0.61732 0.0
C245 C 0.47201 0.06232 0.61804 0.0
H246 H 0.62205 0.98927 0.61683 0.0
C247 C 0.43226 0.00514 0.61894 0.0
H248 H 0.57253 0.09867 0.61662 0.0
C249 C 0.46056 0.94245 0.61906 0.0
C250 C 0.52919 0.93569 0.61828 0.0
H251 H 0.37915 0.00875 0.61954 0.0
H252 H 0.42868 0.89934 0.61974 0.0
C253 C 0.56894 0.99288 0.61743 0.0
C254 C 0.99206 0.93526 0.86995 0.0
C255 C 0.93616 0.9757 0.86985 0.0
H256 H 0.09736 0.93069 0.86989 0.0
C257 C 0.94478 0.04454 0.86983 0.0
H258 H 0.98702 0.88197 0.86999 0.0
C259 C 0.00799 0.07237 0.86976 0.0
C260 C 0.06389 0.03194 0.86972 0.0
H261 H 0.9027 0.07696 0.86978 0.0
H262 H 0.01302 0.12566 0.86967 0.0
C263 C 0.05528 0.9631 0.86989 0.0
loop_
_geom_bond_atom_site_label_1
_geom_bond_atom_site_label_2
_geom_bond_distance
_geom_bond_site_symmetry_2
_ccdc_geom_bond_type
In0 O1 2.294 . S
In0 O2 2.326 . S
In0 O6 2.266 . S
In0 O7 2.326 . S
In0 O8 2.266 . S
In0 O9 2.326 . S
In0 O11 2.294 . S
In0 O12 2.326 . S
O1 In0 2.294 . S
O1 C10 1.240 . S
O2 In0 2.326 . S
O2 C10 1.252 . S
C3 O6 1.252 . S
C3 O7 1.260 . S
C4 O11 1.240 . S
C4 O12 1.252 . S
C5 O8 1.252 . S
C5 O9 1.260 . S
O6 In0 2.266 . S
O6 C3 1.252 . S
O7 In0 2.326 . S
O7 C3 1.260 . S
O8 In0 2.266 . S
O8 C5 1.252 . S
O9 In0 2.326 . S
O9 C5 1.260 . S
C10 O1 1.240 . S
C10 O2 1.252 . S
O11 In0 2.294 . S
O11 C4 1.240 . S
O12 In0 2.326 . S
O12 C4 1.252 . S
In13 O14 2.294 . S
In13 O15 2.326 . S
In13 O19 2.266 . S
In13 O20 2.326 . S
In13 O21 2.266 . S
In13 O22 2.326 . S
In13 O24 2.294 . S
In13 O25 2.326 . S
O14 In13 2.294 . S
O14 C23 1.240 . S
O15 In13 2.326 . S
O15 C23 1.252 . S
C16 O19 1.252 . S
C16 O20 1.260 . S
C17 O24 1.240 . S
C17 O25 1.252 . S
C18 O21 1.252 . S
C18 O22 1.260 . S
O19 In13 2.266 . S
O19 C16 1.252 . S
O20 In13 2.326 . S
O20 C16 1.260 . S
O21 In13 2.266 . S
O21 C18 1.252 . S
O22 In13 2.326 . S
O22 C18 1.260 . S
C23 O14 1.240 . S
C23 O15 1.252 . S
O24 In13 2.294 . S
O24 C17 1.240 . S
O25 In13 2.326 . S
O25 C17 1.252 . S
In26 O27 2.294 . S
In26 O28 2.326 . S
In26 O32 2.266 . S
In26 O33 2.326 . S
In26 O34 2.266 . S
In26 O35 2.326 . S
In26 O37 2.294 . S
In26 O38 2.326 . S
O27 In26 2.294 . S
O27 C36 1.240 . S
O28 In26 2.326 . S
O28 C36 1.252 . S
C29 O32 1.252 . S
C29 O33 1.260 . S
C30 O37 1.240 . S
C30 O38 1.252 . S
C31 O34 1.252 . S
C31 O35 1.260 . S
O32 In26 2.266 . S
O32 C29 1.252 . S
O33 In26 2.326 . S
O33 C29 1.260 . S
O34 In26 2.266 . S
O34 C31 1.252 . S
O35 In26 2.326 . S
O35 C31 1.260 . S
C36 O27 1.240 . S
C36 O28 1.252 . S
O37 In26 2.294 . S
O37 C30 1.240 . S
O38 In26 2.326 . S
O38 C30 1.252 . S
In39 O40 2.294 . S
In39 O41 2.326 . S
In39 O45 2.266 . S
In39 O46 2.326 . S
In39 O47 2.266 . S
In39 O48 2.326 . S
In39 O50 2.294 . S
In39 O51 2.326 . S
O40 In39 2.294 . S
O40 C49 1.240 . S
O41 In39 2.326 . S
O41 C49 1.252 . S
C42 O45 1.252 . S
C42 O46 1.260 . S
C43 O50 1.240 . S
C43 O51 1.252 . S
C44 O47 1.252 . S
C44 O48 1.260 . S
O45 In39 2.266 . S
O45 C42 1.252 . S
O46 In39 2.326 . S
O46 C42 1.260 . S
O47 In39 2.266 . S
O47 C44 1.252 . S
O48 In39 2.326 . S
O48 C44 1.260 . S
C49 O40 1.240 . S
C49 O41 1.252 . S
O50 In39 2.294 . S
O50 C43 1.240 . S
O51 In39 2.326 . S
O51 C43 1.252 . S
In52 O53 2.294 . S
In52 O54 2.326 . S
In52 O58 2.266 . S
In52 O59 2.326 . S
In52 O60 2.266 . S
In52 O61 2.326 . S
In52 O63 2.294 . S
In52 O64 2.326 . S
O53 In52 2.294 . S
O53 C62 1.240 . S
O54 In52 2.326 . S
O54 C62 1.252 . S
C55 O58 1.252 . S
C55 O59 1.260 . S
C56 O63 1.240 . S
C56 O64 1.252 . S
C57 O60 1.252 . S
C57 O61 1.260 . S
O58 In52 2.266 . S
O58 C55 1.252 . S
O59 In52 2.326 . S
O59 C55 1.260 . S
O60 In52 2.266 . S
O60 C57 1.252 . S
O61 In52 2.326 . S
O61 C57 1.260 . S
C62 O53 1.240 . S
C62 O54 1.252 . S
O63 In52 2.294 . S
O63 C56 1.240 . S
O64 In52 2.326 . S
O64 C56 1.252 . S
In65 O66 2.294 . S
In65 O67 2.326 . S
In65 O71 2.266 . S
In65 O72 2.326 . S
In65 O73 2.266 . S
In65 O74 2.326 . S
In65 O76 2.294 . S
In65 O77 2.326 . S
O66 In65 2.294 . S
O66 C75 1.240 . S
O67 In65 2.326 . S
O67 C75 1.252 . S
C68 O71 1.252 . S
C68 O72 1.260 . S
C69 O76 1.240 . S
C69 O77 1.252 . S
C70 O73 1.252 . S
C70 O74 1.260 . S
O71 In65 2.266 . S
O71 C68 1.252 . S
O72 In65 2.326 . S
O72 C68 1.260 . S
O73 In65 2.266 . S
O73 C70 1.252 . S
O74 In65 2.326 . S
O74 C70 1.260 . S
C75 O66 1.240 . S
C75 O67 1.252 . S
O76 In65 2.294 . S
O76 C69 1.240 . S
O77 In65 2.326 . S
O77 C69 1.252 . S
In78 O79 2.294 . S
In78 O80 2.326 . S
In78 O84 2.266 . S
In78 O85 2.326 . S
In78 O86 2.266 . S
In78 O87 2.326 . S
In78 O89 2.294 . S
In78 O90 2.326 . S
O79 In78 2.294 . S
O79 C88 1.240 . S
O80 In78 2.326 . S
O80 C88 1.252 . S
C81 O84 1.252 . S
C81 O85 1.260 . S
C82 O89 1.240 . S
C82 O90 1.252 . S
C83 O86 1.252 . S
C83 O87 1.260 . S
O84 In78 2.266 . S
O84 C81 1.252 . S
O85 In78 2.326 . S
O85 C81 1.260 . S
O86 In78 2.266 . S
O86 C83 1.252 . S
O87 In78 2.326 . S
O87 C83 1.260 . S
C88 O79 1.240 . S
C88 O80 1.252 . S
O89 In78 2.294 . S
O89 C82 1.240 . S
O90 In78 2.326 . S
O90 C82 1.252 . S
In91 O92 2.294 . S
In91 O93 2.326 . S
In91 O97 2.266 . S
In91 O98 2.326 . S
In91 O99 2.266 . S
In91 O100 2.326 . S
In91 O102 2.294 . S
In91 O103 2.326 . S
O92 In91 2.294 . S
O92 C101 1.240 . S
O93 In91 2.326 . S
O93 C101 1.252 . S
C94 O97 1.252 . S
C94 O98 1.260 . S
C95 O102 1.240 . S
C95 O103 1.252 . S
C96 O99 1.252 . S
C96 O100 1.260 . S
O97 In91 2.266 . S
O97 C94 1.252 . S
O98 In91 2.326 . S
O98 C94 1.260 . S
O99 In91 2.266 . S
O99 C96 1.252 . S
O100 In91 2.326 . S
O100 C96 1.260 . S
C101 O92 1.240 . S
C101 O93 1.252 . S
O102 In91 2.294 . S
O102 C95 1.240 . S
O103 In91 2.326 . S
O103 C95 1.252 . S
C104 C105 1.387 . S
C104 H108 0.950 . S
C104 C113 1.390 1_554 S
C105 C104 1.387 . S
C105 C107 1.387 . S
H106 C113 0.950 . S
C107 C105 1.387 . S
C107 C109 1.390 1_554 S
C107 H111 0.950 . S
H108 C104 0.950 . S
C109 C107 1.390 1_556 S
C109 C110 1.387 . S
C109 H112 0.950 . S
C110 C109 1.387 . S
C110 C113 1.387 . S
H111 C107 0.950 . S
H112 C109 0.950 . S
C113 C104 1.390 1_556 S
C113 H106 0.950 . S
C113 C110 1.387 . S
C114 C115 1.387 . S
C114 H118 0.950 . S
C114 C123 1.390 . S
C115 C114 1.387 . S
C115 C117 1.387 . S
H116 C123 0.950 . S
C117 C115 1.387 . S
C117 C119 1.390 . S
C117 H121 0.950 . S
H118 C114 0.950 . S
C119 C117 1.390 . S
C119 C120 1.387 . S
C119 H122 0.950 . S
C120 C119 1.387 . S
C120 C123 1.387 . S
H121 C117 0.950 . S
H122 C119 0.950 . S
C123 C114 1.390 . S
C123 H116 0.950 . S
C123 C120 1.387 . S
C124 C125 1.387 . S
C124 H128 0.950 . S
C124 C133 1.390 . S
C125 C124 1.387 . S
C125 C127 1.387 . S
H126 C133 0.950 . S
C127 C125 1.387 . S
C127 C129 1.390 . S
C127 H131 0.950 . S
H128 C124 0.950 . S
C129 C127 1.390 . S
C129 C130 1.387 . S
C129 H132 0.950 . S
C130 C129 1.387 . S
C130 C133 1.387 . S
H131 C127 0.950 . S
H132 C129 0.950 . S
C133 C124 1.390 . S
C133 H126 0.950 . S
C133 C130 1.387 . S
C134 C135 1.387 . S
C134 H138 0.950 . S
C134 C143 1.390 . S
C135 C134 1.387 . S
C135 C137 1.387 . S
H136 C143 0.950 . S
C137 C135 1.387 . S
C137 C139 1.390 . S
C137 H141 0.950 . S
H138 C134 0.950 . S
C139 C137 1.390 . S
C139 C140 1.387 . S
C139 H142 0.950 . S
C140 C139 1.387 . S
C140 C143 1.387 . S
H141 C137 0.950 . S
H142 C139 0.950 . S
C143 C134 1.390 . S
C143 H136 0.950 . S
C143 C140 1.387 . S
C144 C145 1.387 . S
C144 H148 0.950 . S
C144 C153 1.390 . S
C145 C144 1.387 . S
C145 C147 1.387 . S
H146 C153 0.950 . S
C147 C145 1.387 . S
C147 C149 1.390 . S
C147 H151 0.950 . S
H148 C144 0.950 . S
C149 C147 1.390 . S
C149 C150 1.387 . S
C149 H152 0.950 . S
C150 C149 1.387 . S
C150 C153 1.387 . S
H151 C147 0.950 . S
H152 C149 0.950 . S
C153 C144 1.390 . S
C153 H146 0.950 . S
C153 C150 1.387 . S
C154 C155 1.387 . S
C154 H158 0.950 . S
C154 C163 1.390 . S
C155 C154 1.387 . S
C155 C157 1.387 . S
H156 C163 0.950 . S
C157 C155 1.387 . S
C157 C159 1.390 . S
C157 H161 0.950 . S
H158 C154 0.950 . S
C159 C157 1.390 . S
C159 C160 1.387 . S
C159 H162 0.950 . S
C160 C159 1.387 . S
C160 C163 1.387 . S
H161 C157 0.950 . S
H162 C159 0.950 . S
C163 C154 1.390 . S
C163 H156 0.950 . S
C163 C160 1.387 . S
C164 C165 1.387 . S
C164 H168 0.950 . S
C164 C173 1.390 . S
C165 C164 1.387 . S
C165 C167 1.387 . S
H166 C173 0.950 . S
C167 C165 1.387 . S
C167 C169 1.390 . S
C167 H171 0.950 . S
H168 C164 0.950 . S
C169 C167 1.390 . S
C169 C170 1.387 . S
C169 H172 0.950 . S
C170 C169 1.387 . S
C170 C173 1.387 . S
H171 C167 0.950 . S
H172 C169 0.950 . S
C173 C164 1.390 . S
C173 H166 0.950 . S
C173 C170 1.387 . S
C174 C175 1.387 . S
C174 H178 0.950 . S
C174 C183 1.390 1_554 S
C175 C174 1.387 . S
C175 C177 1.387 . S
H176 C183 0.950 . S
C177 C175 1.387 . S
C177 C179 1.390 1_554 S
C177 H181 0.950 . S
H178 C174 0.950 . S
C179 C177 1.390 1_556 S
C179 C180 1.387 . S
C179 H182 0.950 . S
C180 C179 1.387 . S
C180 C183 1.387 . S
H181 C177 0.950 . S
H182 C179 0.950 . S
C183 C174 1.390 1_556 S
C183 H176 0.950 . S
C183 C180 1.387 . S
C184 C185 1.387 . S
C184 H188 0.950 . S
C184 C193 1.390 1_445 S
C185 C184 1.387 . S
C185 C187 1.387 . S
H186 C193 0.950 . S
C187 C185 1.387 . S
C187 C189 1.390 1_445 S
C187 H191 0.950 . S
H188 C184 0.950 . S
C189 C187 1.390 1_665 S
C189 C190 1.387 . S
C189 H192 0.950 . S
C190 C189 1.387 . S
C190 C193 1.387 . S
H191 C187 0.950 . S
H192 C189 0.950 . S
C193 C184 1.390 1_665 S
C193 H186 0.950 . S
C193 C190 1.387 . S
C194 C195 1.387 . S
C194 H198 0.950 . S
C194 C203 1.390 1_455 S
C195 C194 1.387 . S
C195 C197 1.387 . S
H196 C203 0.950 . S
C197 C195 1.387 . S
C197 C199 1.390 1_455 S
C197 H201 0.950 . S
H198 C194 0.950 . S
C199 C197 1.390 1_655 S
C199 C200 1.387 . S
C199 H202 0.950 . S
C200 C199 1.387 . S
C200 C203 1.387 . S
H201 C197 0.950 . S
H202 C199 0.950 . S
C203 C194 1.390 1_655 S
C203 H196 0.950 . S
C203 C200 1.387 . S
C204 C205 1.387 . S
C204 H208 0.950 . S
C204 C213 1.390 . S
C205 C204 1.387 . S
C205 C207 1.387 . S
H206 C213 0.950 . S
C207 C205 1.387 . S
C207 C209 1.390 . S
C207 H211 0.950 . S
H208 C204 0.950 . S
C209 C207 1.390 . S
C209 C210 1.387 . S
C209 H212 0.950 . S
C210 C209 1.387 . S
C210 C213 1.387 . S
H211 C207 0.950 . S
H212 C209 0.950 . S
C213 C204 1.390 . S
C213 H206 0.950 . S
C213 C210 1.387 . S
C214 C215 1.387 . S
C214 H218 0.950 . S
C214 C223 1.390 1_565 S
C215 C214 1.387 . S
C215 C217 1.387 . S
H216 C223 0.950 . S
C217 C215 1.387 . S
C217 C219 1.390 1_565 S
C217 H221 0.950 . S
H218 C214 0.950 . S
C219 C217 1.390 1_545 S
C219 C220 1.387 . S
C219 H222 0.950 . S
C220 C219 1.387 . S
C220 C223 1.387 . S
H221 C217 0.950 . S
H222 C219 0.950 . S
C223 C214 1.390 1_545 S
C223 H216 0.950 . S
C223 C220 1.387 . S
C224 C225 1.387 . S
C224 H228 0.950 . S
C224 C233 1.390 1_655 S
C225 C224 1.387 . S
C225 C227 1.387 . S
H226 C233 0.950 . S
C227 C225 1.387 . S
C227 C229 1.390 1_655 S
C227 H231 0.950 . S
H228 C224 0.950 . S
C229 C227 1.390 1_455 S
C229 C230 1.387 . S
C229 H232 0.950 . S
C230 C229 1.387 . S
C230 C233 1.387 . S
H231 C227 0.950 . S
H232 C229 0.950 . S
C233 C224 1.390 1_455 S
C233 H226 0.950 . S
C233 C230 1.387 . S
C234 C235 1.387 . S
C234 H238 0.950 . S
C234 C243 1.390 . S
C235 C234 1.387 . S
C235 C237 1.387 . S
H236 C243 0.950 . S
C237 C235 1.387 . S
C237 C239 1.390 . S
C237 H241 0.950 . S
H238 C234 0.950 . S
C239 C237 1.390 . S
C239 C240 1.387 . S
C239 H242 0.950 . S
C240 C239 1.387 . S
C240 C243 1.387 . S
H241 C237 0.950 . S
H242 C239 0.950 . S
C243 C234 1.390 . S
C243 H236 0.950 . S
C243 C240 1.387 . S
C244 C245 1.387 . S
C244 H248 0.950 . S
C244 C253 1.390 1_545 S
C245 C244 1.387 . S
C245 C247 1.387 . S
H246 C253 0.950 . S
C247 C245 1.387 . S
C247 C249 1.390 1_545 S
C247 H251 0.950 . S
H248 C244 0.950 . S
C249 C247 1.390 1_565 S
C249 C250 1.387 . S
C249 H252 0.950 . S
C250 C249 1.387 . S
C250 C253 1.387 . S
H251 C247 0.950 . S
H252 C249 0.950 . S
C253 C244 1.390 1_565 S
C253 H246 0.950 . S
C253 C250 1.387 . S
C254 C255 1.387 . S
C254 H258 0.950 . S
C254 C263 1.390 1_665 S
C255 C254 1.387 . S
C255 C257 1.387 . S
H256 C263 0.950 . S
C257 C255 1.387 . S
C257 C259 1.390 1_665 S
C257 H261 0.950 . S
H258 C254 0.950 . S
C259 C257 1.390 1_445 S
C259 C260 1.387 . S
C259 H262 0.950 . S
C260 C259 1.387 . S
C260 C263 1.387 . S
H261 C257 0.950 . S
H262 C259 0.950 . S
C263 C254 1.390 1_445 S
C263 H256 0.950 . S
C263 C260 1.387 . S
C105 C5 1.384 . S
C110 C68 1.383 . S
C115 C23 1.389 . S
C120 C88 1.388 . S
C125 C31 1.383 . S
C130 C94 1.384 . S
C135 C49 1.389 . S
C140 C56 1.389 . S
C145 C101 1.388 . S
C150 C4 1.388 . S
C155 C57 1.384 . S
C160 C16 1.383 . S
C165 C30 1.388 . S
C170 C75 1.388 . S
C175 C81 1.384 . S
C180 C42 1.383 . S
C185 C3 1.527 . S
C190 C83 1.527 . S
C195 C95 1.523 . S
C200 C17 1.523 . S
C205 C29 1.527 . S
C210 C55 1.527 . S
C215 C43 1.523 . S
C220 C69 1.523 . S
C225 C82 1.523 . S
C230 C10 1.523 . S
C235 C96 1.527 . S
C240 C18 1.527 . S
C245 C36 1.523 . S
C250 C62 1.523 . S
C255 C44 1.527 . S
C260 C70 1.527 . S
