# Generated by pormake.
# Topology ukk, (4)-cn, num edge types: 1
# Building blocks:
#     Node 0, Type 0, BuildingBlock: KOZSID_clean_sbu_0, # of connection points: 4
#     Node 1, Type 0, BuildingBlock: KOZSID_clean_sbu_0, # of connection points: 4
#     Node 2, Type 0, BuildingBlock: KOZSID_clean_sbu_0, # of connection points: 4
#     Node 3, Type 0, BuildingBlock: KOZSID_clean_sbu_0, # of connection points: 4
#     Node 4, Type 0, BuildingBlock: KOZSID_clean_sbu_0, # of connection points: 4
#     Node 5, Type 0, BuildingBlock: KOZSID_clean_sbu_0, # of connection points: 4
#     Node 6, Type 0, BuildingBlock: KOZSID_clean_sbu_0, # of connection points: 4
#     Node 7, Type 0, BuildingBlock: KOZSID_clean_sbu_0, # of connection points: 4
#     Node 8, Type 0, BuildingBlock: KOZSID_clean_sbu_0, # of connection points: 4
#     Node 9, Type 0, BuildingBlock: KOZSID_clean_sbu_0, # of connection points: 4
#     Node 10, Type 0, BuildingBlock: KOZSID_clean_sbu_0, # of connection points: 4
#     Node 11, Type 0, BuildingBlock: KOZSID_clean_sbu_0, # of connection points: 4
#     Node 12, Type 0, BuildingBlock: KOZSID_clean_sbu_0, # of connection points: 4
#     Node 13, Type 0, BuildingBlock: KOZSID_clean_sbu_0, # of connection points: 4
#     Node 14, Type 0, BuildingBlock: KOZSID_clean_sbu_0, # of connection points: 4
#     Node 15, Type 0, BuildingBlock: KOZSID_clean_sbu_0, # of connection points: 4
#     Edge 16, Type (0, 0), BuildingBlock: XUDNAN_clean_linker_2, # of connection points: 2
#     Edge 17, Type (0, 0), BuildingBlock: XUDNAN_clean_linker_2, # of connection points: 2
#     Edge 18, Type (0, 0), BuildingBlock: XUDNAN_clean_linker_2, # of connection points: 2
#     Edge 19, Type (0, 0), BuildingBlock: XUDNAN_clean_linker_2, # of connection points: 2
#     Edge 20, Type (0, 0), BuildingBlock: XUDNAN_clean_linker_2, # of connection points: 2
#     Edge 21, Type (0, 0), BuildingBlock: XUDNAN_clean_linker_2, # of connection points: 2
#     Edge 22, Type (0, 0), BuildingBlock: XUDNAN_clean_linker_2, # of connection points: 2
#     Edge 23, Type (0, 0), BuildingBlock: XUDNAN_clean_linker_2, # of connection points: 2
#     Edge 24, Type (0, 0), BuildingBlock: XUDNAN_clean_linker_2, # of connection points: 2
#     Edge 25, Type (0, 0), BuildingBlock: XUDNAN_clean_linker_2, # of connection points: 2
#     Edge 26, Type (0, 0), BuildingBlock: XUDNAN_clean_linker_2, # of connection points: 2
#     Edge 27, Type (0, 0), BuildingBlock: XUDNAN_clean_linker_2, # of connection points: 2
#     Edge 28, Type (0, 0), BuildingBlock: XUDNAN_clean_linker_2, # of connection points: 2
#     Edge 29, Type (0, 0), BuildingBlock: XUDNAN_clean_linker_2, # of connection points: 2
#     Edge 30, Type (0, 0), BuildingBlock: XUDNAN_clean_linker_2, # of connection points: 2
#     Edge 31, Type (0, 0), BuildingBlock: XUDNAN_clean_linker_2, # of connection points: 2
#     Edge 32, Type (0, 0), BuildingBlock: XUDNAN_clean_linker_2, # of connection points: 2
#     Edge 33, Type (0, 0), BuildingBlock: XUDNAN_clean_linker_2, # of connection points: 2
#     Edge 34, Type (0, 0), BuildingBlock: XUDNAN_clean_linker_2, # of connection points: 2
#     Edge 35, Type (0, 0), BuildingBlock: XUDNAN_clean_linker_2, # of connection points: 2
#     Edge 36, Type (0, 0), BuildingBlock: XUDNAN_clean_linker_2, # of connection points: 2
#     Edge 37, Type (0, 0), BuildingBlock: XUDNAN_clean_linker_2, # of connection points: 2
#     Edge 38, Type (0, 0), BuildingBlock: XUDNAN_clean_linker_2, # of connection points: 2
#     Edge 39, Type (0, 0), BuildingBlock: XUDNAN_clean_linker_2, # of connection points: 2
#     Edge 40, Type (0, 0), BuildingBlock: XUDNAN_clean_linker_2, # of connection points: 2
#     Edge 41, Type (0, 0), BuildingBlock: XUDNAN_clean_linker_2, # of connection points: 2
#     Edge 42, Type (0, 0), BuildingBlock: XUDNAN_clean_linker_2, # of connection points: 2
#     Edge 43, Type (0, 0), BuildingBlock: XUDNAN_clean_linker_2, # of connection points: 2
#     Edge 44, Type (0, 0), BuildingBlock: XUDNAN_clean_linker_2, # of connection points: 2
#     Edge 45, Type (0, 0), BuildingBlock: XUDNAN_clean_linker_2, # of connection points: 2
#     Edge 46, Type (0, 0), BuildingBlock: XUDNAN_clean_linker_2, # of connection points: 2
#     Edge 47, Type (0, 0), BuildingBlock: XUDNAN_clean_linker_2, # of connection points: 2
# Relax obj value: 0.060
# Max RMSD: 0.202
# Mean RMSD: 0.202
data_MOF--net-ukk--node1-KOZSID_clean_sbu_0--edge1-XUDNAN_clean_linker_2
_symmetry_space_group_name_H-M    P1
_symmetry_Int_Tables_number       1
_symmetry_cell_setting            triclinic
loop_
_symmetry_equiv_pos_as_xyz
'x, y, z'
_cell_length_a     65.031046
_cell_length_b     65.138631
_cell_length_c     26.336824
_cell_angle_alpha  89.969276
_cell_angle_beta   89.923301
_cell_angle_gamma 90.019612
loop_
_atom_site_label
_atom_site_type_symbol
_atom_site_fract_x
_atom_site_fract_y
_atom_site_fract_z
_atom_type_partial_charge
C0 C 0.37043 0.09174 0.17552 0.0
C1 C 0.35848 0.08469 0.21568 0.0
C2 C 0.34691 0.10097 0.23199 0.0
C3 C 0.35233 0.11703 0.20105 0.0
N4 N 0.36674 0.11197 0.16648 0.0
Co5 Co 0.37826 0.13078 0.11396 0.0
N6 N 0.36815 0.15553 0.15027 0.0
C7 C 0.35331 0.15579 0.18591 0.0
C8 C 0.34917 0.17514 0.20382 0.0
C9 C 0.36216 0.1879 0.17764 0.0
C10 C 0.37355 0.17555 0.14517 0.0
N11 N 0.39003 0.14973 0.06219 0.0
C12 C 0.39379 0.17026 0.06472 0.0
C13 C 0.40207 0.1774 0.01951 0.0
C14 C 0.40338 0.16077 0.98757 0.0
C15 C 0.39586 0.14444 0.01498 0.0
N16 N 0.38794 0.10589 0.07727 0.0
C17 C 0.394 0.10542 0.02835 0.0
C18 C 0.40003 0.08622 0.01293 0.0
C19 C 0.39738 0.07379 0.05451 0.0
C20 C 0.38966 0.08608 0.09317 0.0
N21 N 0.35212 0.12947 0.07479 0.0
C22 C 0.31762 0.12536 0.00848 0.0
C23 C 0.32435 0.10917 0.04002 0.0
C24 C 0.34162 0.11134 0.07137 0.0
C25 C 0.32819 0.14417 0.01392 0.0
C26 C 0.34498 0.14598 0.04766 0.0
N27 N 0.40448 0.13185 0.15172 0.0
C28 C 0.44135 0.12724 0.15181 0.0
C29 C 0.44226 0.13031 0.20436 0.0
C30 C 0.42385 0.13484 0.22993 0.0
C31 C 0.40511 0.13536 0.203 0.0
C32 C 0.42252 0.12831 0.12633 0.0
H33 H 0.39109 0.13823 0.22379 0.0
H34 H 0.42258 0.12586 0.08594 0.0
H35 H 0.34669 0.09801 0.09202 0.0
H36 H 0.35253 0.16067 0.05054 0.0
C37 C 0.34621 0.13745 0.20724 0.0
C38 C 0.38301 0.07818 0.14322 0.0
C39 C 0.38837 0.1835 0.10798 0.0
C40 C 0.39687 0.1237 1.00101 0.0
H41 H 0.35776 0.06926 0.23086 0.0
H42 H 0.3361 0.10114 0.26328 0.0
H43 H 0.33853 0.1794 0.23365 0.0
H44 H 0.36308 0.20441 0.18179 0.0
H45 H 0.40654 0.19298 0.01047 0.0
H46 H 0.40968 0.16053 0.94952 0.0
H47 H 0.40633 0.08188 0.97642 0.0
H48 H 0.40074 0.05754 0.05602 0.0
H49 H 0.31661 0.09451 0.04085 0.0
H50 H 0.32402 0.15745 0.99161 0.0
H51 H 0.45518 0.12386 0.13042 0.0
H52 H 0.42383 0.13724 0.27061 0.0
C53 C 0.09125 0.63559 0.91597 0.0
C54 C 0.08088 0.6275 0.95739 0.0
C55 C 0.09511 0.62554 0.99566 0.0
C56 C 0.11333 0.63255 0.97556 0.0
N57 N 0.11143 0.63875 0.92712 0.0
Co58 Co 0.13403 0.64935 0.88342 0.0
N59 N 0.15587 0.63817 0.92881 0.0
C60 C 0.15287 0.63213 0.97721 0.0
C61 C 0.17073 0.6264 1.00104 0.0
C62 C 0.186 0.62934 0.96582 0.0
C63 C 0.17662 0.63668 0.92214 0.0
N64 N 0.15644 0.65977 0.83861 0.0
C65 C 0.17678 0.65508 0.8373 0.0
C66 C 0.18642 0.66478 0.79669 0.0
C67 C 0.17192 0.67668 0.77348 0.0
C68 C 0.15418 0.67333 0.80036 0.0
N69 N 0.11229 0.6609 0.83847 0.0
C70 C 0.11505 0.67532 0.80248 0.0
C71 C 0.09737 0.68005 0.7767 0.0
C72 C 0.08248 0.66785 0.79765 0.0
C73 C 0.09196 0.6564 0.83547 0.0
N74 N 0.13446 0.67529 0.92354 0.0
C75 C 0.13608 0.70712 0.99737 0.0
C76 C 0.15397 0.69944 0.97413 0.0
C77 C 0.15285 0.68377 0.93764 0.0
C78 C 0.11718 0.69947 0.97958 0.0
C79 C 0.11671 0.68368 0.94274 0.0
N80 N 0.13359 0.62311 0.84529 0.0
C81 C 0.13174 0.60355 0.76708 0.0
C82 C 0.13118 0.58499 0.79422 0.0
C83 C 0.1321 0.58596 0.84716 0.0
C84 C 0.13337 0.60498 0.87176 0.0
C85 C 0.13295 0.62244 0.79329 0.0
H86 H 0.13383 0.60493 0.91256 0.0
H87 H 0.13307 0.63647 0.77153 0.0
H88 H 0.16709 0.67795 0.92263 0.0
H89 H 0.10194 0.67764 0.93152 0.0
C90 C 0.1329 0.63032 0.99719 0.0
C91 C 0.08126 0.6416 0.86812 0.0
C92 C 0.18816 0.64427 0.87763 0.0
C93 C 0.1348 0.68065 0.78685 0.0
H94 H 0.06473 0.62358 0.95967 0.0
H95 H 0.0926 0.61902 0.03297 0.0
H96 H 0.17245 0.62067 0.03938 0.0
H97 H 0.20226 0.62688 0.97204 0.0
H98 H 0.20246 0.66389 0.78591 0.0
H99 H 0.17398 0.68629 0.74031 0.0
H100 H 0.09572 0.69022 0.74443 0.0
H101 H 0.06662 0.66726 0.78553 0.0
H102 H 0.16898 0.70512 0.98507 0.0
H103 H 0.10287 0.70489 0.99576 0.0
H104 H 0.13084 0.60349 0.72602 0.0
H105 H 0.13153 0.57203 0.86962 0.0
C106 C 0.65636 0.9323 0.17807 0.0
C107 C 0.66875 0.94038 0.21609 0.0
C108 C 0.6799 0.92439 0.23545 0.0
C109 C 0.67382 0.90751 0.20824 0.0
N110 N 0.65948 0.91179 0.17299 0.0
Co111 Co 0.6471 0.89169 0.12505 0.0
N112 N 0.65635 0.86783 0.16663 0.0
C113 C 0.67048 0.86851 0.20393 0.0
C114 C 0.67309 0.85006 0.22811 0.0
C115 C 0.65999 0.8368 0.20417 0.0
C116 C 0.65035 0.84784 0.16579 0.0
N117 N 0.63481 0.87153 0.07711 0.0
C118 C 0.63124 0.85104 0.08241 0.0
C119 C 0.62339 0.84286 0.03778 0.0
C120 C 0.62208 0.8587 1.00362 0.0
C121 C 0.62925 0.87565 0.02896 0.0
N122 N 0.63798 0.91566 0.08388 0.0
C123 C 0.6319 0.9149 0.0351 0.0
C124 C 0.62615 0.93374 0.01651 0.0
C125 C 0.62896 0.94722 0.05592 0.0
C126 C 0.63645 0.93587 0.09649 0.0
N127 N 0.6732 0.89073 0.08536 0.0
C128 C 0.70833 0.88882 0.02086 0.0
C129 C 0.70038 0.90772 0.03761 0.0
C130 C 0.68305 0.90833 0.07008 0.0
C131 C 0.69825 0.87098 0.03778 0.0
C132 C 0.68091 0.87224 0.06951 0.0
N133 N 0.62081 0.89259 0.16321 0.0
C134 C 0.58384 0.89679 0.16226 0.0
C135 C 0.5827 0.89481 0.21515 0.0
C136 C 0.60114 0.89132 0.24155 0.0
C137 C 0.62003 0.89049 0.21498 0.0
C138 C 0.60281 0.89541 0.1372 0.0
H139 H 0.63399 0.88831 0.23639 0.0
H140 H 0.60283 0.8968 0.09649 0.0
H141 H 0.67751 0.92313 0.08234 0.0
H142 H 0.67356 0.85809 0.08048 0.0
C143 C 0.67857 0.88721 0.22026 0.0
C144 C 0.64317 0.94489 0.14516 0.0
C145 C 0.63701 0.8385 0.12688 0.0
C146 C 0.62869 0.89594 0.01123 0.0
H147 H 0.66978 0.9562 0.22836 0.0
H148 H 0.69062 0.92491 0.26684 0.0
H149 H 0.68274 0.84681 0.26057 0.0
H150 H 0.65794 0.82082 0.21406 0.0
H151 H 0.61943 0.82701 0.03027 0.0
H152 H 0.61626 0.85798 0.96518 0.0
H153 H 0.6199 0.93716 0.97939 0.0
H154 H 0.62587 0.96353 0.05477 0.0
H155 H 0.70768 0.92197 0.02641 0.0
H156 H 0.70352 0.85596 0.02589 0.0
H157 H 0.57004 0.89938 0.14015 0.0
H158 H 0.60106 0.88985 0.2825 0.0
C159 C 0.93258 0.3871 0.91102 0.0
C160 C 0.9426 0.39834 0.94824 0.0
C161 C 0.92784 0.40496 0.98139 0.0
C162 C 0.90965 0.39751 0.96261 0.0
N163 N 0.9119 0.38636 0.91969 0.0
Co164 Co 0.88912 0.37375 0.87862 0.0
N165 N 0.86713 0.38512 0.92454 0.0
C166 C 0.87025 0.39621 0.96725 0.0
C167 C 0.85242 0.40167 0.99158 0.0
C168 C 0.83695 0.39364 0.96266 0.0
C169 C 0.84623 0.3838 0.92191 0.0
N170 N 0.86651 0.36139 0.83672 0.0
C171 C 0.84573 0.36318 0.84054 0.0
C172 C 0.83586 0.35366 0.80008 0.0
C173 C 0.85077 0.34505 0.7707 0.0
C174 C 0.86886 0.35003 0.79413 0.0
N175 N 0.911 0.36233 0.83249 0.0
C176 C 0.908 0.34992 0.79204 0.0
C177 C 0.92572 0.34433 0.76757 0.0
C178 C 0.94106 0.35391 0.79352 0.0
C179 C 0.93174 0.36499 0.83231 0.0
N180 N 0.89035 0.34814 0.92196 0.0
C181 C 0.89221 0.31213 0.98432 0.0
C182 C 0.89169 0.31089 0.93108 0.0
C183 C 0.89058 0.32882 0.90105 0.0
C184 C 0.89156 0.3318 0.00544 0.0
C185 C 0.89083 0.34931 0.9741 0.0
N186 N 0.88777 0.39935 0.83635 0.0
C187 C 0.88614 0.41653 0.75446 0.0
C188 C 0.88418 0.43594 0.77733 0.0
C189 C 0.88447 0.43648 0.8305 0.0
C190 C 0.88637 0.41831 0.85879 0.0
C191 C 0.88786 0.39866 0.78429 0.0
H192 H 0.88647 0.42002 0.89898 0.0
H193 H 0.88918 0.3844 0.76448 0.0
H194 H 0.88995 0.32666 0.86093 0.0
H195 H 0.89082 0.36363 0.99331 0.0
C196 C 0.89013 0.40156 0.98284 0.0
C197 C 0.94332 0.37796 0.86743 0.0
C198 C 0.83454 0.37324 0.88203 0.0
C199 C 0.88827 0.34498 0.77576 0.0
H200 H 0.95887 0.40171 0.95069 0.0
H201 H 0.93006 0.41449 0.01459 0.0
H202 H 0.85085 0.4105 0.02617 0.0
H203 H 0.82069 0.39491 0.97076 0.0
H204 H 0.81955 0.35304 0.79229 0.0
H205 H 0.84869 0.33648 0.73588 0.0
H206 H 0.92725 0.3348 0.73412 0.0
H207 H 0.95726 0.353 0.78441 0.0
H208 H 0.89196 0.29609 0.91242 0.0
H209 H 0.8922 0.33381 0.04623 0.0
H210 H 0.88648 0.41502 0.71355 0.0
H211 H 0.88277 0.45084 0.85073 0.0
C212 C 0.36447 0.42635 0.08019 0.0
C213 C 0.351 0.43431 0.04432 0.0
C214 C 0.33688 0.41918 0.03414 0.0
C215 C 0.34259 0.40281 0.06382 0.0
N216 N 0.35948 0.40666 0.09156 0.0
Co217 Co 0.37258 0.3871 0.13919 0.0
N218 N 0.35971 0.36311 0.10532 0.0
C219 C 0.34172 0.36411 0.08027 0.0
C220 C 0.33278 0.34529 0.07346 0.0
C221 C 0.34605 0.3316 0.09547 0.0
C222 C 0.36309 0.34266 0.11205 0.0
N223 N 0.38534 0.36754 0.18738 0.0
C224 C 0.38682 0.3467 0.18529 0.0
C225 C 0.39194 0.33907 0.23301 0.0
C226 C 0.39516 0.35564 0.26424 0.0
C227 C 0.39099 0.37253 0.23494 0.0
N228 N 0.38524 0.41115 0.1727 0.0
C229 C 0.39236 0.41152 0.22053 0.0
C230 C 0.40017 0.43041 0.2337 0.0
C231 C 0.39761 0.44261 0.19145 0.0
C232 C 0.38836 0.43045 0.15476 0.0
N233 N 0.34843 0.38921 0.1855 0.0
C234 C 0.31795 0.39161 0.26243 0.0
C235 C 0.32499 0.40935 0.23739 0.0
C236 C 0.34022 0.40783 0.19916 0.0
C237 C 0.32568 0.37269 0.24572 0.0
C238 C 0.34067 0.37182 0.20763 0.0
N239 N 0.39686 0.38504 0.09465 0.0
C240 C 0.43386 0.38473 0.08593 0.0
C241 C 0.4325 0.38396 0.03273 0.0
C242 C 0.41258 0.3835 0.01154 0.0
C243 C 0.39506 0.38387 0.04302 0.0
C244 C 0.41605 0.38542 0.11583 0.0
H245 H 0.38002 0.38346 0.02567 0.0
H246 H 0.41788 0.38638 0.15643 0.0
H247 H 0.34586 0.42179 0.18194 0.0
H248 H 0.34649 0.35691 0.19771 0.0
C249 C 0.3343 0.38296 0.06209 0.0
C250 C 0.38081 0.43814 0.10553 0.0
C251 C 0.38066 0.33396 0.14091 0.0
C252 C 0.39379 0.39322 0.24871 0.0
H253 H 0.35114 0.44947 0.02759 0.0
H254 H 0.32434 0.41987 0.00723 0.0
H255 H 0.31806 0.34196 0.05621 0.0
H256 H 0.34262 0.31556 0.10165 0.0
H257 H 0.39247 0.3232 0.24502 0.0
H258 H 0.39976 0.35536 0.3037 0.0
H259 H 0.4073 0.4347 0.26925 0.0
H260 H 0.40167 0.45867 0.18829 0.0
H261 H 0.31949 0.42435 0.24879 0.0
H262 H 0.32054 0.35849 0.263 0.0
H263 H 0.4486 0.38459 0.10492 0.0
H264 H 0.4104 0.38316 0.97083 0.0
C265 C 0.43913 0.63554 0.84591 0.0
C266 C 0.4499 0.62376 0.81101 0.0
C267 C 0.4356 0.61316 0.78344 0.0
C268 C 0.41693 0.61909 0.80275 0.0
N269 N 0.41841 0.63314 0.84015 0.0
Co270 Co 0.39475 0.64455 0.87985 0.0
N271 N 0.37373 0.63197 0.83366 0.0
C272 C 0.37757 0.61791 0.79742 0.0
C273 C 0.36037 0.61219 0.77083 0.0
C274 C 0.34455 0.62316 0.79186 0.0
C275 C 0.35299 0.63489 0.83052 0.0
N276 N 0.37125 0.65565 0.92043 0.0
C277 C 0.3507 0.65574 0.91114 0.0
C278 C 0.33981 0.66354 0.95231 0.0
C279 C 0.35395 0.66877 0.98824 0.0
C280 C 0.37257 0.6637 0.96743 0.0
N281 N 0.41567 0.65737 0.92616 0.0
C282 C 0.4116 0.66633 0.97119 0.0
C283 C 0.42864 0.67373 0.9955 0.0
C284 C 0.44473 0.66879 0.96465 0.0
C285 C 0.43658 0.65853 0.92299 0.0
N286 N 0.39494 0.66966 0.83646 0.0
C287 C 0.39645 0.7052 0.77342 0.0
C288 C 0.39558 0.70671 0.82675 0.0
C289 C 0.39464 0.68892 0.8573 0.0
C290 C 0.39609 0.68539 0.75266 0.0
C291 C 0.39554 0.668 0.78451 0.0
N292 N 0.39451 0.61913 0.92194 0.0
C293 C 0.41334 0.5921 0.96449 0.0
C294 C 0.39571 0.57973 0.9682 0.0
C295 C 0.37711 0.58831 0.95119 0.0
C296 C 0.37682 0.60797 0.92881 0.0
C297 C 0.41243 0.61144 0.94135 0.0
H298 H 0.36226 0.61377 0.91573 0.0
H299 H 0.42651 0.61982 0.93825 0.0
H300 H 0.39385 0.69084 0.89787 0.0
H301 H 0.39586 0.6532 0.7666 0.0
C302 C 0.39776 0.61237 0.78562 0.0
C303 C 0.44942 0.64691 0.8871 0.0
C304 C 0.3407 0.64755 0.8655 0.0
C305 C 0.39155 0.66813 0.98883 0.0
H306 H 0.46642 0.62247 0.80712 0.0
H307 H 0.4385 0.60227 0.75324 0.0
H308 H 0.3595 0.6017 0.73905 0.0
H309 H 0.32863 0.62246 0.78019 0.0
H310 H 0.32333 0.66505 0.95647 0.0
H311 H 0.35101 0.67568 0.0249 0.0
H312 H 0.42932 0.6815 0.03178 0.0
H313 H 0.46071 0.67159 0.97346 0.0
H314 H 0.39563 0.72161 0.84495 0.0
H315 H 0.39696 0.68324 0.71194 0.0
H316 H 0.42803 0.58683 0.97871 0.0
H317 H 0.36291 0.57967 0.95332 0.0
C318 C 0.65575 0.59234 0.08917 0.0
C319 C 0.66791 0.58387 0.05115 0.0
C320 C 0.68036 0.59926 0.03351 0.0
C321 C 0.67524 0.61621 0.06166 0.0
N322 N 0.66024 0.61255 0.09575 0.0
Co323 Co 0.64901 0.63294 0.14475 0.0
N324 N 0.66046 0.65652 0.1058 0.0
C325 C 0.67517 0.65531 0.06991 0.0
C326 C 0.67929 0.67382 0.04727 0.0
C327 C 0.66652 0.68761 0.0706 0.0
C328 C 0.65548 0.67678 0.10708 0.0
N329 N 0.63775 0.65336 0.19341 0.0
C330 C 0.63499 0.67395 0.18834 0.0
C331 C 0.62717 0.68232 0.23282 0.0
C332 C 0.62494 0.66641 0.26658 0.0
C333 C 0.63159 0.64926 0.24113 0.0
N334 N 0.63773 0.60929 0.18378 0.0
C335 C 0.63125 0.61003 0.23232 0.0
C336 C 0.62389 0.59152 0.24941 0.0
C337 C 0.6261 0.57825 0.20934 0.0
C338 C 0.63492 0.58936 0.16991 0.0
N339 N 0.67473 0.63134 0.18544 0.0
C340 C 0.71015 0.62824 0.24837 0.0
C341 C 0.70091 0.61081 0.2266 0.0
C342 C 0.68344 0.61266 0.19562 0.0
C343 C 0.70105 0.64734 0.23763 0.0
C344 C 0.68355 0.64857 0.20602 0.0
N345 N 0.62321 0.63442 0.1052 0.0
C346 C 0.58611 0.63211 0.10301 0.0
C347 C 0.58596 0.63426 0.05012 0.0
C348 C 0.60489 0.63698 0.02535 0.0
C349 C 0.62333 0.63685 0.05349 0.0
C350 C 0.60473 0.63249 0.12971 0.0
H351 H 0.6377 0.63837 0.03332 0.0
H352 H 0.60412 0.63086 0.17036 0.0
H353 H 0.67687 0.59879 0.18034 0.0
H354 H 0.67711 0.66353 0.19849 0.0
C355 C 0.68188 0.63624 0.0522 0.0
C356 C 0.64177 0.58021 0.12141 0.0
C357 C 0.64125 0.68625 0.14391 0.0
C358 C 0.62934 0.6289 0.25748 0.0
H359 H 0.66806 0.56813 0.03802 0.0
H360 H 0.69144 0.59831 1.00288 0.0
H361 H 0.68956 0.67677 0.01572 0.0
H362 H 0.66543 0.70371 0.06107 0.0
H363 H 0.62367 0.69827 0.2403 0.0
H364 H 0.61864 0.6672 0.30459 0.0
H365 H 0.61704 0.58821 0.28599 0.0
H366 H 0.62177 0.56222 0.20938 0.0
H367 H 0.70697 0.59561 0.23391 0.0
H368 H 0.7076 0.66134 0.25279 0.0
H369 H 0.57186 0.62997 0.12368 0.0
H370 H 0.60549 0.6385 0.98443 0.0
C371 C 0.58404 0.39216 0.84782 0.0
C372 C 0.57391 0.40464 0.81326 0.0
C373 C 0.58854 0.41216 0.78089 0.0
C374 C 0.60677 0.40403 0.79759 0.0
N375 N 0.60465 0.39151 0.83824 0.0
Co376 Co 0.62763 0.37797 0.87685 0.0
N377 N 0.64936 0.38979 0.83094 0.0
C378 C 0.64597 0.40093 0.78844 0.0
C379 C 0.66364 0.4061 0.763 0.0
C380 C 0.67927 0.39768 0.79072 0.0
C381 C 0.67025 0.38793 0.83197 0.0
N382 N 0.65045 0.36528 0.91735 0.0
C383 C 0.67118 0.3672 0.91312 0.0
C384 C 0.68125 0.3576 0.95316 0.0
C385 C 0.66649 0.34872 0.98258 0.0
C386 C 0.64831 0.35369 0.9596 0.0
N387 N 0.606 0.36547 0.92181 0.0
C388 C 0.60922 0.35191 0.9598 0.0
C389 C 0.5916 0.34538 0.98327 0.0
C390 C 0.5761 0.35545 0.95907 0.0
C391 C 0.58523 0.36777 0.92233 0.0
N392 N 0.62639 0.35315 0.83106 0.0
C393 C 0.62896 0.31966 0.76144 0.0
C394 C 0.63227 0.31676 0.8136 0.0
C395 C 0.63097 0.33361 0.84753 0.0
C396 C 0.62337 0.33932 0.74561 0.0
C397 C 0.62201 0.35549 0.7804 0.0
N398 N 0.62903 0.4029 0.92127 0.0
C399 C 0.62846 0.41937 1.0041 0.0
C400 C 0.63111 0.43893 0.98238 0.0
C401 C 0.63267 0.43988 0.92949 0.0
C402 C 0.63159 0.42199 0.90017 0.0
C403 C 0.62743 0.40172 0.97315 0.0
H404 H 0.63301 0.42409 0.86028 0.0
H405 H 0.62535 0.38724 0.99181 0.0
H406 H 0.63415 0.33058 0.88669 0.0
H407 H 0.61781 0.36987 0.76466 0.0
C408 C 0.6261 0.40741 0.77545 0.0
C409 C 0.57348 0.3816 0.88965 0.0
C410 C 0.68213 0.37696 0.87084 0.0
C411 C 0.62901 0.34745 0.97633 0.0
H412 H 0.55764 0.40807 0.81187 0.0
H413 H 0.58618 0.42246 0.74916 0.0
H414 H 0.66502 0.41513 0.72865 0.0
H415 H 0.69547 0.39866 0.78163 0.0
H416 H 0.69763 0.35686 0.96019 0.0
H417 H 0.66875 0.33971 0.01666 0.0
H418 H 0.59023 0.33502 0.01526 0.0
H419 H 0.55992 0.35409 0.96811 0.0
H420 H 0.63664 0.3018 0.8279 0.0
H421 H 0.62037 0.34237 0.70585 0.0
H422 H 0.62697 0.41762 0.04482 0.0
H423 H 0.63516 0.45439 0.91038 0.0
C424 C 0.8617 0.59086 0.66664 0.0
C425 C 0.84863 0.584 0.70476 0.0
C426 C 0.84252 0.60094 0.73123 0.0
C427 C 0.85208 0.61714 0.70779 0.0
N428 N 0.86368 0.61168 0.66759 0.0
Co429 Co 0.88022 0.63084 0.62394 0.0
N430 N 0.86778 0.65584 0.65597 0.0
C431 C 0.85508 0.65593 0.69651 0.0
C432 C 0.84682 0.67479 0.70686 0.0
C433 C 0.85496 0.68762 0.6712 0.0
C434 C 0.86833 0.67597 0.64175 0.0
N435 N 0.89686 0.65003 0.58074 0.0
C436 C 0.89641 0.6709 0.57611 0.0
C437 C 0.91279 0.67777 0.5466 0.0
C438 C 0.92357 0.66083 0.53171 0.0
C439 C 0.91351 0.64457 0.55336 0.0
N440 N 0.89269 0.6058 0.59206 0.0
C441 C 0.90943 0.60567 0.56191 0.0
C442 C 0.91539 0.58639 0.54714 0.0
C443 C 0.90179 0.57334 0.57009 0.0
C444 C 0.88825 0.58546 0.59773 0.0
N445 N 0.85807 0.63069 0.57177 0.0
C446 C 0.82708 0.62872 0.49555 0.0
C447 C 0.84811 0.62727 0.48353 0.0
C448 C 0.86314 0.62827 0.52167 0.0
C449 C 0.82205 0.63179 0.54694 0.0
C450 C 0.83766 0.63266 0.58423 0.0
N451 N 0.90274 0.63081 0.67497 0.0
C452 C 0.92732 0.61129 0.72416 0.0
C453 C 0.94019 0.62845 0.72995 0.0
C454 C 0.9328 0.64729 0.71124 0.0
C455 C 0.91401 0.64817 0.68468 0.0
C456 C 0.90896 0.61275 0.69667 0.0
H457 H 0.90916 0.66283 0.67018 0.0
H458 H 0.90033 0.59888 0.69145 0.0
H459 H 0.87896 0.62686 0.51028 0.0
H460 H 0.83307 0.63466 0.62317 0.0
C461 C 0.84895 0.63769 0.71943 0.0
C462 C 0.87328 0.57683 0.63373 0.0
C463 C 0.88224 0.68488 0.60323 0.0
C464 C 0.91864 0.62398 0.54672 0.0
H465 H 0.84426 0.56832 0.71313 0.0
H466 H 0.83211 0.60142 0.76333 0.0
H467 H 0.83552 0.6786 0.73557 0.0
H468 H 0.85127 0.70373 0.66747 0.0
H469 H 0.91714 0.6934 0.53805 0.0
H470 H 0.93725 0.66044 0.5083 0.0
H471 H 0.92822 0.58228 0.52296 0.0
H472 H 0.90228 0.55675 0.56826 0.0
H473 H 0.85306 0.62531 0.44457 0.0
H474 H 0.80612 0.63293 0.55863 0.0
H475 H 0.93157 0.59649 0.73965 0.0
H476 H 0.9418 0.66118 0.71496 0.0
C477 C 0.58783 0.13077 0.41162 0.0
C478 C 0.57601 0.11913 0.44474 0.0
C479 C 0.58876 0.11303 0.48315 0.0
C480 C 0.60761 0.12126 0.47149 0.0
N481 N 0.60758 0.13248 0.42829 0.0
Co482 Co 0.63204 0.146 0.39606 0.0
N483 N 0.65152 0.13419 0.44729 0.0
C484 C 0.64619 0.12422 0.49031 0.0
C485 C 0.66239 0.12107 0.52255 0.0
C486 C 0.67912 0.12896 0.49779 0.0
C487 C 0.67241 0.13551 0.45042 0.0
N488 N 0.6565 0.15934 0.36345 0.0
C489 C 0.67664 0.15899 0.37725 0.0
C490 C 0.68717 0.17531 0.35542 0.0
C491 C 0.67413 0.18421 0.3213 0.0
C492 C 0.65599 0.17378 0.32671 0.0
N493 N 0.61272 0.15781 0.34421 0.0
C494 C 0.61776 0.17083 0.30616 0.0
C495 C 0.60169 0.1755 0.27465 0.0
C496 C 0.58541 0.16462 0.29323 0.0
C497 C 0.59246 0.15399 0.3355 0.0
N498 N 0.62826 0.1711 0.44113 0.0
C499 C 0.62905 0.2063 0.50663 0.0
C500 C 0.62998 0.20818 0.4536 0.0
C501 C 0.62935 0.19072 0.42214 0.0
C502 C 0.62613 0.18648 0.52576 0.0
C503 C 0.62555 0.16943 0.49285 0.0
N504 N 0.63583 0.12119 0.35271 0.0
C505 C 0.63956 0.10505 0.2702 0.0
C506 C 0.63896 0.08526 0.29172 0.0
C507 C 0.63717 0.0841 0.34468 0.0
C508 C 0.63561 0.10198 0.37402 0.0
C509 C 0.63817 0.12264 0.30112 0.0
H510 H 0.63424 0.09995 0.41414 0.0
H511 H 0.6389 0.13734 0.2828 0.0
H512 H 0.62979 0.19368 0.38257 0.0
H513 H 0.62299 0.15511 0.51077 0.0
C514 C 0.6258 0.11805 0.49892 0.0
C515 C 0.57955 0.13986 0.36488 0.0
C516 C 0.68606 0.14289 0.40914 0.0
C517 C 0.6379 0.17788 0.30007 0.0
H518 H 0.55987 0.11532 0.4412 0.0
H519 H 0.58484 0.1034 0.51525 0.0
H520 H 0.66207 0.11407 0.55983 0.0
H521 H 0.69451 0.12981 0.51318 0.0
H522 H 0.70263 0.18049 0.36349 0.0
H523 H 0.67732 0.19712 0.29664 0.0
H524 H 0.6019 0.18528 0.24142 0.0
H525 H 0.57019 0.16432 0.27676 0.0
H526 H 0.63123 0.22315 0.43598 0.0
H527 H 0.62487 0.18391 0.56627 0.0
H528 H 0.64083 0.10709 0.22954 0.0
H529 H 0.63722 0.06942 0.36395 0.0
C530 C 0.15382 0.43015 0.6894 0.0
C531 C 0.16621 0.43759 0.72823 0.0
C532 C 0.17984 0.42226 0.74014 0.0
C533 C 0.17486 0.40622 0.70876 0.0
N534 N 0.1588 0.41038 0.67834 0.0
Co535 Co 0.14659 0.39089 0.62886 0.0
N536 N 0.15883 0.36668 0.6636 0.0
C537 C 0.17625 0.36765 0.69104 0.0
C538 C 0.18528 0.3489 0.6981 0.0
C539 C 0.17269 0.33525 0.67375 0.0
C540 C 0.15585 0.34622 0.6556 0.0
N541 N 0.13468 0.37142 0.57894 0.0
C542 C 0.13342 0.35053 0.57998 0.0
C543 C 0.12929 0.34319 0.53139 0.0
C544 C 0.1264 0.35993 0.50056 0.0
C545 C 0.12981 0.37663 0.531 0.0
N546 N 0.13456 0.41514 0.59444 0.0
C547 C 0.12824 0.41557 0.5459 0.0
C548 C 0.1211 0.43455 0.5315 0.0
C549 C 0.12327 0.44683 0.57363 0.0
C550 C 0.13162 0.43463 0.61158 0.0
N551 N 0.17159 0.3931 0.58537 0.0
C552 C 0.20669 0.39513 0.52153 0.0
C553 C 0.19772 0.41304 0.54135 0.0
C554 C 0.18032 0.41169 0.57351 0.0
C555 C 0.19751 0.37635 0.53394 0.0
C556 C 0.18011 0.37567 0.56516 0.0
N557 N 0.12159 0.38858 0.67088 0.0
C558 C 0.08448 0.38765 0.67668 0.0
C559 C 0.0852 0.38583 0.72984 0.0
C560 C 0.10485 0.38543 0.75248 0.0
C561 C 0.12273 0.38665 0.72248 0.0
C562 C 0.10268 0.38911 0.64822 0.0
H563 H 0.13753 0.38612 0.741 0.0
H564 H 0.1014 0.39063 0.60757 0.0
H565 H 0.17397 0.42569 0.58885 0.0
H566 H 0.17362 0.36082 0.57272 0.0
C567 C 0.18306 0.38638 0.71094 0.0
C568 C 0.13869 0.44258 0.66112 0.0
C569 C 0.13901 0.33745 0.62431 0.0
C570 C 0.12725 0.39736 0.51748 0.0
H571 H 0.16571 0.45251 0.74608 0.0
H572 H 0.19156 0.4226 0.76926 0.0
H573 H 0.19968 0.34562 0.71698 0.0
H574 H 0.17653 0.31934 0.6671 0.0
H575 H 0.12934 0.32744 0.5185 0.0
H576 H 0.12262 0.35988 0.46056 0.0
H577 H 0.1148 0.4389 0.49504 0.0
H578 H 0.11963 0.46301 0.57575 0.0
H579 H 0.2044 0.42792 0.53323 0.0
H580 H 0.20378 0.36209 0.51949 0.0
H581 H 0.06997 0.38762 0.65664 0.0
H582 H 0.10655 0.38439 0.79326 0.0
C583 C 0.43619 0.89383 0.4221 0.0
C584 C 0.44743 0.90639 0.45422 0.0
C585 C 0.434 0.9136 0.49004 0.0
C586 C 0.41535 0.90507 0.4779 0.0
N587 N 0.41614 0.8925 0.43708 0.0
Co588 Co 0.39206 0.87875 0.40344 0.0
N589 N 0.37168 0.89212 0.45025 0.0
C590 C 0.37623 0.90365 0.49146 0.0
C591 C 0.35918 0.91066 0.51673 0.0
C592 C 0.34278 0.9034 0.48977 0.0
C593 C 0.35071 0.89248 0.44896 0.0
N594 N 0.36799 0.86568 0.36817 0.0
C595 C 0.34741 0.86934 0.3723 0.0
C596 C 0.33645 0.85857 0.33567 0.0
C597 C 0.35038 0.84747 0.30848 0.0
C598 C 0.36906 0.85229 0.32908 0.0
N599 N 0.41245 0.86514 0.35697 0.0
C600 C 0.40817 0.85078 0.32161 0.0
C601 C 0.42498 0.84449 0.29435 0.0
C602 C 0.44099 0.8557 0.31297 0.0
C603 C 0.43301 0.86821 0.35085 0.0
N604 N 0.39406 0.85459 0.45209 0.0
C605 C 0.39754 0.82141 0.52378 0.0
C606 C 0.39279 0.81784 0.47244 0.0
C607 C 0.39114 0.83446 0.43763 0.0
C608 C 0.39986 0.84197 0.53805 0.0
C609 C 0.39829 0.85787 0.50247 0.0
N610 N 0.39014 0.90284 0.35645 0.0
C611 C 0.38892 0.91794 0.27205 0.0
C612 C 0.38834 0.93798 0.29207 0.0
C613 C 0.38852 0.93981 0.34495 0.0
C614 C 0.38943 0.92237 0.37586 0.0
C615 C 0.38981 0.90072 0.30464 0.0
H616 H 0.38952 0.92514 0.41567 0.0
H617 H 0.39029 0.88578 0.28748 0.0
H618 H 0.38762 0.83059 0.39922 0.0
H619 H 0.40069 0.87274 0.51732 0.0
C620 C 0.39658 0.90951 0.50188 0.0
C621 C 0.44527 0.88363 0.37765 0.0
C622 C 0.33769 0.88313 0.40949 0.0
C623 C 0.38792 0.84577 0.30994 0.0
H624 H 0.4636 0.91018 0.45147 0.0
H625 H 0.43733 0.92428 0.52041 0.0
H626 H 0.35873 0.92049 0.54984 0.0
H627 H 0.32677 0.90617 0.49865 0.0
H628 H 0.32014 0.85895 0.328 0.0
H629 H 0.34731 0.83767 0.27617 0.0
H630 H 0.42535 0.83384 0.26284 0.0
H631 H 0.4566 0.85516 0.29882 0.0
H632 H 0.39077 0.8023 0.45878 0.0
H633 H 0.40292 0.84604 0.57718 0.0
H634 H 0.38894 0.91547 0.23141 0.0
H635 H 0.38757 0.95472 0.36297 0.0
C636 C 0.86604 0.93182 0.58777 0.0
C637 C 0.8522 0.94092 0.55451 0.0
C638 C 0.83895 0.92581 0.53911 0.0
C639 C 0.84538 0.90839 0.56371 0.0
N640 N 0.8619 0.91151 0.59341 0.0
Co641 Co 0.87545 0.89035 0.63621 0.0
N642 N 0.86308 0.86762 0.59639 0.0
C643 C 0.84612 0.86926 0.5674 0.0
C644 C 0.83952 0.85083 0.54837 0.0
C645 C 0.8531 0.83662 0.56676 0.0
C646 C 0.8675 0.84726 0.59563 0.0
N647 N 0.88891 0.86896 0.67879 0.0
C648 C 0.89242 0.84869 0.66915 0.0
C649 C 0.90391 0.84001 0.70803 0.0
C650 C 0.90688 0.85508 0.74374 0.0
C651 C 0.89742 0.87225 0.72463 0.0
N652 N 0.88751 0.91336 0.67578 0.0
C653 C 0.89574 0.91173 0.72242 0.0
C654 C 0.90316 0.9301 0.74027 0.0
C655 C 0.89922 0.94416 0.7026 0.0
C656 C 0.88948 0.9336 0.66371 0.0
N657 N 0.8513 0.88995 0.68293 0.0
C658 C 0.82027 0.8884 0.7593 0.0
C659 C 0.82705 0.90722 0.73897 0.0
C660 C 0.8425 0.90767 0.701 0.0
C661 C 0.82874 0.87047 0.73817 0.0
C662 C 0.84404 0.87155 0.70065 0.0
N663 N 0.89991 0.89056 0.59126 0.0
C664 C 0.93703 0.8903 0.58302 0.0
C665 C 0.9359 0.8894 0.52985 0.0
C666 C 0.91601 0.88932 0.5083 0.0
C667 C 0.89832 0.88983 0.5395 0.0
C668 C 0.91911 0.891 0.61257 0.0
H669 H 0.88334 0.88955 0.52183 0.0
H670 H 0.92095 0.89163 0.65309 0.0
H671 H 0.84775 0.9224 0.6874 0.0
H672 H 0.85041 0.85731 0.68715 0.0
C673 C 0.83826 0.88852 0.55442 0.0
C674 C 0.88142 0.94335 0.61705 0.0
C675 C 0.88389 0.83721 0.62532 0.0
C676 C 0.89953 0.8923 0.74354 0.0
H677 H 0.85147 0.95688 0.54323 0.0
H678 H 0.82649 0.92726 0.51217 0.0
H679 H 0.82654 0.84805 0.52364 0.0
H680 H 0.85211 0.82024 0.56056 0.0
H681 H 0.90985 0.82456 0.71048 0.0
H682 H 0.91581 0.85388 0.77827 0.0
H683 H 0.91131 0.93282 0.77543 0.0
H684 H 0.90316 0.96029 0.70362 0.0
H685 H 0.82109 0.92156 0.75361 0.0
H686 H 0.82383 0.85547 0.75115 0.0
H687 H 0.95169 0.88997 0.60235 0.0
H688 H 0.91399 0.88897 0.46755 0.0
C689 C 0.93364 0.13033 0.34347 0.0
C690 C 0.94529 0.12089 0.30595 0.0
C691 C 0.93231 0.11722 0.26588 0.0
C692 C 0.91345 0.12447 0.28104 0.0
N693 N 0.91374 0.13229 0.32832 0.0
Co694 Co 0.88971 0.14433 0.36422 0.0
N695 N 0.86972 0.13156 0.31677 0.0
C696 C 0.87417 0.12417 0.27039 0.0
C697 C 0.8572 0.11633 0.24608 0.0
C698 C 0.84109 0.11908 0.27923 0.0
C699 C 0.84916 0.12847 0.32204 0.0
N700 N 0.86578 0.15635 0.40045 0.0
C701 C 0.84563 0.15103 0.39905 0.0
C702 C 0.83399 0.16373 0.43012 0.0
C703 C 0.84737 0.17751 0.45147 0.0
C704 C 0.86636 0.17247 0.43231 0.0
N705 N 0.90954 0.15738 0.41165 0.0
C706 C 0.90543 0.17342 0.44228 0.0
C707 C 0.92212 0.1796 0.47016 0.0
C708 C 0.93778 0.16678 0.45594 0.0
C709 C 0.92974 0.15338 0.42002 0.0
N710 N 0.89116 0.16883 0.31911 0.0
C711 C 0.89396 0.20032 0.24469 0.0
C712 C 0.87481 0.19287 0.26121 0.0
C713 C 0.87374 0.17712 0.29802 0.0
C714 C 0.91156 0.19227 0.26831 0.0
C715 C 0.90985 0.17685 0.30546 0.0
N716 N 0.88837 0.11966 0.40796 0.0
C717 C 0.88654 0.10357 0.4907 0.0
C718 C 0.88672 0.08374 0.46911 0.0
C719 C 0.88782 0.08261 0.41589 0.0
C720 C 0.88879 0.10054 0.3864 0.0
C721 C 0.8872 0.12119 0.45968 0.0
H722 H 0.88979 0.09883 0.34582 0.0
H723 H 0.88685 0.13608 0.47759 0.0
H724 H 0.85879 0.17122 0.30818 0.0
H725 H 0.92381 0.17098 0.32199 0.0
C726 C 0.89474 0.12165 0.25536 0.0
C727 C 0.94226 0.13861 0.39117 0.0
C728 C 0.83686 0.13521 0.36588 0.0
C729 C 0.8852 0.18017 0.44932 0.0
H730 H 0.9615 0.11721 0.30718 0.0
H731 H 0.93607 0.10961 0.23055 0.0
H732 H 0.85672 0.10875 0.20954 0.0
H733 H 0.82526 0.11469 0.27271 0.0
H734 H 0.81754 0.16322 0.43632 0.0
H735 H 0.84377 0.1893 0.47901 0.0
H736 H 0.92271 0.19163 0.49847 0.0
H737 H 0.95342 0.16748 0.46984 0.0
H738 H 0.86074 0.1985 0.24422 0.0
H739 H 0.92672 0.19765 0.25761 0.0
H740 H 0.88609 0.10564 0.53143 0.0
H741 H 0.88761 0.06797 0.39654 0.0
C742 C 0.15221 0.09426 0.58128 0.0
C743 C 0.16515 0.08708 0.54321 0.0
C744 C 0.17764 0.10312 0.52964 0.0
C745 C 0.17174 0.11917 0.56002 0.0
N746 N 0.15617 0.11434 0.59161 0.0
Co747 Co 0.14362 0.13322 0.64246 0.0
N748 N 0.15529 0.15788 0.60863 0.0
C749 C 0.1711 0.15794 0.57562 0.0
C750 C 0.17607 0.17727 0.55877 0.0
C751 C 0.1626 0.19021 0.58286 0.0
C752 C 0.15011 0.17798 0.6131 0.0
N753 N 0.13103 0.15225 0.6928 0.0
C754 C 0.1278 0.17286 0.69018 0.0
C755 C 0.11851 0.18 0.73416 0.0
C756 C 0.11598 0.16328 0.76538 0.0
C757 C 0.12382 0.14689 0.73881 0.0
N758 N 0.13213 0.10847 0.67642 0.0
C759 C 0.1246 0.10792 0.72405 0.0
C760 C 0.11762 0.08881 0.73774 0.0
C761 C 0.12118 0.07652 0.69636 0.0
C762 C 0.13033 0.08879 0.65958 0.0
N763 N 0.16859 0.13105 0.68572 0.0
C764 C 0.20219 0.12627 0.75447 0.0
C765 C 0.19524 0.11007 0.72329 0.0
C766 C 0.1784 0.1126 0.69066 0.0
C767 C 0.19221 0.14532 0.74793 0.0
C768 C 0.17583 0.14744 0.71307 0.0
N769 N 0.1186 0.13519 0.6003 0.0
C770 C 0.08149 0.13492 0.59352 0.0
C771 C 0.08243 0.13708 0.54047 0.0
C772 C 0.10216 0.13828 0.5184 0.0
C773 C 0.1199 0.1375 0.54879 0.0
C774 C 0.09958 0.13387 0.6224 0.0
H775 H 0.1347 0.13862 0.53049 0.0
H776 H 0.0981 0.132 0.66286 0.0
H777 H 0.1732 0.09935 0.66992 0.0
H778 H 0.16875 0.16233 0.70922 0.0
C779 C 0.17845 0.1395 0.55534 0.0
C780 C 0.13829 0.08092 0.61069 0.0
C781 C 0.13448 0.18611 0.64797 0.0
C782 C 0.12165 0.12611 0.75165 0.0
H783 H 0.16584 0.07173 0.52763 0.0
H784 H 0.18933 0.10316 0.50035 0.0
H785 H 0.1876 0.18141 0.53091 0.0
H786 H 0.16209 0.20674 0.57887 0.0
H787 H 0.1141 0.19563 0.7428 0.0
H788 H 0.10858 0.16301 0.80222 0.0
H789 H 0.11022 0.08445 0.77296 0.0
H790 H 0.11754 0.06035 0.69376 0.0
H791 H 0.20254 0.09518 0.72358 0.0
H792 H 0.19657 0.15857 0.77013 0.0
H793 H 0.06688 0.13431 0.61315 0.0
H794 H 0.10406 0.13958 0.47771 0.0
C795 C 0.08785 0.88911 0.34227 0.0
C796 C 0.07728 0.89773 0.3018 0.0
C797 C 0.0914 0.90087 0.26377 0.0
C798 C 0.10983 0.89416 0.28303 0.0
N799 N 0.10822 0.88715 0.33092 0.0
Co800 Co 0.13141 0.87652 0.3726 0.0
N801 N 0.15264 0.88894 0.32755 0.0
C802 C 0.14931 0.89538 0.27968 0.0
C803 C 0.16683 0.90238 0.25629 0.0
C804 C 0.1822 0.90005 0.29146 0.0
C805 C 0.17318 0.89183 0.33478 0.0
N806 N 0.15449 0.86588 0.41495 0.0
C807 C 0.17466 0.87141 0.41658 0.0
C808 C 0.18481 0.86093 0.45511 0.0
C809 C 0.17085 0.84777 0.47639 0.0
C810 C 0.15287 0.85118 0.45071 0.0
N811 N 0.11024 0.8639 0.41756 0.0
C812 C 0.11364 0.84876 0.4513 0.0
C813 C 0.09621 0.84269 0.47656 0.0
C814 C 0.08079 0.8547 0.45747 0.0
C815 C 0.08972 0.86756 0.42159 0.0
N816 N 0.1322 0.85115 0.3304 0.0
C817 C 0.13431 0.81671 0.26398 0.0
C818 C 0.15212 0.82635 0.28262 0.0
C819 C 0.15076 0.84328 0.31538 0.0
C820 C 0.1153 0.82487 0.27974 0.0
C821 C 0.11458 0.8419 0.31306 0.0
N822 N 0.13084 0.90203 0.41335 0.0
C823 C 0.13196 0.91966 0.49413 0.0
C824 C 0.13235 0.93902 0.47016 0.0
C825 C 0.13144 0.9392 0.41689 0.0
C826 C 0.13062 0.92072 0.38949 0.0
C827 C 0.13127 0.90149 0.46525 0.0
H828 H 0.13016 0.92165 0.3487 0.0
H829 H 0.13128 0.88698 0.48498 0.0
H830 H 0.16492 0.85017 0.32792 0.0
H831 H 0.09972 0.84765 0.32448 0.0
C832 C 0.12922 0.89704 0.26079 0.0
C833 C 0.07793 0.8818 0.38952 0.0
C834 C 0.18496 0.88516 0.37986 0.0
C835 C 0.13368 0.8433 0.46445 0.0
H836 H 0.06107 0.90136 0.29981 0.0
H837 H 0.08866 0.9079 0.22716 0.0
H838 H 0.16823 0.9088 0.21853 0.0
H839 H 0.19827 0.90363 0.28546 0.0
H840 H 0.20064 0.8625 0.467 0.0
H841 H 0.17334 0.83757 0.50824 0.0
H842 H 0.09498 0.83142 0.50665 0.0
H843 H 0.06477 0.85395 0.46852 0.0
H844 H 0.16723 0.82104 0.27142 0.0
H845 H 0.10105 0.81797 0.26712 0.0
H846 H 0.13218 0.91843 0.5351 0.0
H847 H 0.13193 0.95351 0.39601 0.0
H848 H 0.40553 0.97657 0.3081 0.0
H849 H 0.36774 0.94278 0.20105 0.0
H850 H 0.36373 0.97425 0.14971 0.0
H851 H 0.37602 0.02286 0.30514 0.0
H852 H 0.39798 0.03961 0.31035 0.0
H853 H 0.39893 0.01417 0.33706 0.0
H854 H 0.43163 1.00628 0.28432 0.0
H855 H 0.43077 0.03171 0.25743 0.0
H856 H 0.43109 1.00959 0.21637 0.0
H857 H 0.36192 1.01035 0.11241 0.0
H858 H 0.36339 0.0474 0.0916 0.0
H859 H 0.40225 0.05796 0.22241 0.0
C860 C 0.39635 0.97567 0.27394 0.0
C861 C 0.38697 0.95688 0.25899 0.0
C862 C 0.37539 0.95667 0.21334 0.0
C863 C 0.37289 0.9746 0.18397 0.0
C864 C 0.38208 0.99281 0.20031 0.0
C865 C 0.39366 0.99345 0.24419 0.0
C866 C 0.40153 0.01509 0.2541 0.0
C867 C 0.39311 0.02342 0.30466 0.0
C868 C 0.42516 0.0157 0.25298 0.0
C869 C 0.39246 0.02661 0.20918 0.0
C870 C 0.38129 0.01346 0.17856 0.0
C871 C 0.37088 0.02066 0.13578 0.0
C872 C 0.37188 0.04173 0.12404 0.0
C873 C 0.38338 0.0555 0.1545 0.0
C874 C 0.39372 0.04774 0.19777 0.0
H875 H 0.04506 0.66385 0.86977 0.0
H876 H 0.06986 0.60393 0.83363 0.0
H877 H 0.03609 0.59351 0.79836 0.0
H878 H 0.99216 0.64686 0.90204 0.0
H879 H 0.98048 0.66906 0.87314 0.0
H880 H 1.00585 0.67092 0.90024 0.0
H881 H 0.01983 0.6845 0.81449 0.0
H882 H 0.99459 0.68247 0.78693 0.0
H883 H 0.01605 0.66953 0.75772 0.0
H884 H 1.00074 0.59089 0.75945 0.0
H885 H 0.96616 0.59515 0.72384 0.0
H886 H 0.96329 0.65688 0.78603 0.0
C887 C 0.04315 0.64838 0.85546 0.0
C888 C 0.06 0.63458 0.85463 0.0
C889 C 0.05709 0.6146 0.83503 0.0
C890 C 0.03799 0.60863 0.8147 0.0
C891 C 0.02186 0.62281 0.81441 0.0
C892 C 0.02417 0.64223 0.83472 0.0
C893 C 1.0047 0.65485 0.82729 0.0
C894 C 0.99524 0.66077 0.87875 0.0
C895 C 1.00906 0.67397 0.79467 0.0
C896 C 0.99114 0.63961 0.79911 0.0
C897 C 1.00138 0.62123 0.79224 0.0
C898 C 0.99245 0.60509 0.76555 0.0
C899 C 0.97257 0.60766 0.74571 0.0
C900 C 0.96141 0.62623 0.75263 0.0
C901 C 0.97109 0.64243 0.7798 0.0
H902 H 0.62351 0.96537 0.22293 0.0
H903 H 0.66218 0.97546 0.09131 0.0
H904 H 0.66418 0.01249 0.11208 0.0
H905 H 0.59529 0.01442 0.21708 0.0
H906 H 0.59481 0.01741 0.28511 0.0
H907 H 0.59521 0.99209 0.25756 0.0
H908 H 0.62769 0.98331 0.30999 0.0
H909 H 0.62751 1.00864 0.33737 0.0
H910 H 0.65011 0.99946 0.30483 0.0
H911 H 0.66378 0.04823 0.15068 0.0
H912 H 0.66057 0.07961 0.20221 0.0
H913 H 0.62138 0.04676 0.30852 0.0
C914 C 0.63197 0.97552 0.19791 0.0
C915 C 0.64221 0.96764 0.15458 0.0
C916 C 0.65372 0.98126 0.12371 0.0
C917 C 0.65506 1.0023 0.1355 0.0
C918 C 0.6449 1.00959 0.17861 0.0
C919 C 0.63348 0.99662 0.20923 0.0
C920 C 0.62474 1.00823 0.25448 0.0
C921 C 0.60111 1.00802 0.25348 0.0
C922 C 0.63301 0.99938 0.30463 0.0
C923 C 0.63313 0.02968 0.24479 0.0
C924 C 0.64471 0.03013 0.20082 0.0
C925 C 0.65452 0.04807 0.18485 0.0
C926 C 0.65246 0.06597 0.2144 0.0
C927 C 0.64059 0.06606 0.25974 0.0
C928 C 0.63077 0.04748 0.27461 0.0
H929 H 0.0463 0.40222 0.71034 0.0
H930 H 0.07922 0.36488 0.82024 0.0
H931 H 0.0475 0.36145 0.87057 0.0
H932 H 0.01232 0.42817 0.79828 0.0
H933 H 0.99045 0.42715 0.75641 0.0
H934 H 0.01609 0.42799 0.73044 0.0
H935 H 1.00898 0.39465 0.67982 0.0
H936 H 0.98328 0.39382 0.70531 0.0
H937 H 1.00014 0.37209 0.71303 0.0
H938 H 1.01135 0.36072 0.90803 0.0
H939 H 0.9739 0.36153 0.92608 0.0
H940 H 0.96411 0.39802 0.79084 0.0
C941 C 0.04699 0.3932 0.74479 0.0
C942 C 0.06572 0.38402 0.76101 0.0
C943 C 0.06551 0.37259 0.807 0.0
C944 C 0.0474 0.37039 0.83593 0.0
C945 C 0.02934 0.37958 0.81865 0.0
C946 C 0.02898 0.39066 0.77394 0.0
C947 C 1.00734 0.39819 0.7625 0.0
C948 C 1.00651 0.42178 0.76188 0.0
C949 C 0.99947 0.38915 0.71218 0.0
C950 C 0.99555 0.38953 0.80756 0.0
C951 C 1.00856 0.37896 0.83977 0.0
C952 C 1.0011 0.3691 0.8832 0.0
C953 C 0.97983 0.36973 0.8934 0.0
C954 C 0.96617 0.3801 0.86039 0.0
C955 C 0.97426 0.3903 0.81723 0.0
H956 H 0.35836 0.47431 0.10332 0.0
H957 H 0.41759 0.44852 0.06351 0.0
H958 H 0.42799 0.48183 0.0257 0.0
H959 H 0.3519 0.5044 0.9904 0.0
H960 H 0.33986 0.52581 0.02201 0.0
H961 H 0.33742 0.50032 0.04795 0.0
H962 H 0.35224 0.51297 0.13359 0.0
H963 H 0.35464 0.53852 0.108 0.0
H964 H 0.37678 0.52584 0.13462 0.0
H965 H 0.43115 0.51735 0.98803 0.0
H966 H 0.42789 0.55267 0.95657 0.0
H967 H 0.3667 0.55653 0.02243 0.0
C968 C 0.37355 0.47579 0.08679 0.0
C969 C 0.38719 0.45881 0.0859 0.0
C970 C 0.40696 0.46131 0.06442 0.0
C971 C 0.41293 0.48017 0.04278 0.0
C972 C 0.399 0.49649 0.04319 0.0
C973 C 0.37975 0.49456 0.06495 0.0
C974 C 0.36763 0.51445 0.05966 0.0
C975 C 0.34804 0.51104 0.02813 0.0
C976 C 0.36253 0.52348 0.11209 0.0
C977 C 0.38301 0.52785 0.03127 0.0
C978 C 0.40097 0.51713 0.02219 0.0
C979 C 0.41726 0.52596 0.99563 0.0
C980 C 0.41527 0.54626 0.97821 0.0
C981 C 0.39717 0.55792 0.9875 0.0
C982 C 0.38078 0.54831 0.01435 0.0
H983 H 0.48513 0.67037 0.89528 0.0
H984 H 0.46136 0.60897 0.91944 0.0
H985 H 0.49423 0.59875 0.95878 0.0
H986 H 0.53915 0.65499 0.86876 0.0
H987 H 0.54978 0.67671 0.90201 0.0
H988 H 0.52505 0.67878 0.87158 0.0
H989 H 0.50881 0.69029 0.95669 0.0
H990 H 0.53343 0.68814 0.98747 0.0
H991 H 0.5116 0.67425 0.01204 0.0
H992 H 0.52826 0.59598 1.00332 0.0
H993 H 0.56193 0.6003 0.04553 0.0
H994 H 0.56506 0.66311 0.99185 0.0
C995 C 0.48708 0.65467 0.90793 0.0
C996 C 0.47061 0.64043 0.90408 0.0
C997 C 0.47368 0.62011 0.92167 0.0
C998 C 0.49233 0.61418 0.94424 0.0
C999 C 0.50801 0.62868 0.94884 0.0
C1000 C 0.50572 0.64846 0.93071 0.0
C1001 C 0.52478 0.66122 0.94249 0.0
C1002 C 0.53532 0.66834 0.89327 0.0
C1003 C 0.51932 0.67956 0.9767 0.0
C1004 C 0.53799 0.64562 0.97069 0.0
C1005 C 0.52793 0.62695 0.97385 0.0
C1006 C 0.53638 0.61044 1.00038 0.0
C1007 C 0.55551 0.61303 0.02434 0.0
C1008 C 0.56624 0.6319 0.02149 0.0
C1009 C 0.55738 0.64838 0.99387 0.0
H1010 H 0.61688 0.47822 0.96066 0.0
H1011 H 0.64978 0.44362 0.07572 0.0
H1012 H 0.65446 0.4754 0.12541 0.0
H1013 H 0.64889 0.52283 0.96525 0.0
H1014 H 0.62811 0.54071 0.95564 0.0
H1015 H 0.62634 0.51508 0.93045 0.0
H1016 H 0.592 0.50965 0.97858 0.0
H1017 H 0.5937 0.53527 1.00398 0.0
H1018 H 0.59108 0.51366 0.04627 0.0
H1019 H 0.65767 0.51167 0.16026 0.0
H1020 H 0.65812 0.54897 0.17817 0.0
H1021 H 0.62291 0.56024 0.0415 0.0
C1022 C 0.6251 0.47723 0.99628 0.0
C1023 C 0.6329 0.45814 0.01401 0.0
C1024 C 0.64332 0.45779 0.06133 0.0
C1025 C 0.64619 0.47587 0.08979 0.0
C1026 C 0.63852 0.49436 0.07084 0.0
C1027 C 0.6281 0.49515 0.02523 0.0
C1028 C 0.62177 0.51708 0.01278 0.0
C1029 C 0.63188 0.52435 0.96308 0.0
C1030 C 0.59824 0.51902 0.01026 0.0
C1031 C 0.6304 0.52855 0.05828 0.0
C1032 C 0.64001 0.51514 0.09134 0.0
C1033 C 0.64987 0.52221 0.13501 0.0
C1034 C 0.64994 0.54343 0.1451 0.0
C1035 C 0.64001 0.55747 0.11214 0.0
C1036 C 0.63017 0.54982 0.06806 0.0
H1037 H 0.47112 0.40088 0.05228 0.0
H1038 H 0.43808 0.36535 0.93901 0.0
H1039 H 0.46952 0.3637 0.88696 0.0
H1040 H 0.50417 0.4293 0.9669 0.0
H1041 H 0.52627 0.42769 0.00795 0.0
H1042 H 0.50075 0.42756 0.03471 0.0
H1043 H 0.50857 0.39325 0.08061 0.0
H1044 H 0.53414 0.39338 0.05432 0.0
H1045 H 0.51756 0.3716 0.04419 0.0
H1046 H 0.50552 0.36448 0.84818 0.0
H1047 H 0.54289 0.36622 0.82935 0.0
H1048 H 0.55281 0.39965 0.96917 0.0
C1049 C 0.47033 0.3926 0.01674 0.0
C1050 C 0.45168 0.38336 1.00018 0.0
C1051 C 0.45175 0.37302 0.95267 0.0
C1052 C 0.46969 0.37186 0.92274 0.0
C1053 C 0.4877 0.38099 0.94053 0.0
C1054 C 0.48817 0.39106 0.98664 0.0
C1055 C 0.50975 0.39866 0.99848 0.0
C1056 C 0.51026 0.4222 1.00222 0.0
C1057 C 0.51799 0.38862 0.04729 0.0
C1058 C 0.52141 0.39118 0.95202 0.0
C1059 C 0.50838 0.38118 0.91875 0.0
C1060 C 0.51577 0.37243 0.87385 0.0
C1061 C 0.53699 0.37358 0.86323 0.0
C1062 C 0.55065 0.38334 0.89734 0.0
C1063 C 0.54264 0.39244 0.94199 0.0
H1064 H 0.89734 0.47579 0.79897 0.0
H1065 H 0.86422 0.44056 0.68537 0.0
H1066 H 0.85889 0.47213 0.63554 0.0
H1067 H 0.86422 0.52002 0.79437 0.0
H1068 H 0.88479 0.5382 0.80345 0.0
H1069 H 0.88691 0.51267 0.8292 0.0
H1070 H 0.92127 0.50754 0.78101 0.0
H1071 H 0.91923 0.53305 0.75508 0.0
H1072 H 0.92208 0.51135 0.71323 0.0
H1073 H 0.85642 0.50821 0.59798 0.0
H1074 H 0.85682 0.54546 0.57769 0.0
H1075 H 0.8903 0.5574 0.71653 0.0
C1076 C 0.88884 0.47458 0.76381 0.0
C1077 C 0.88137 0.4553 0.74642 0.0
C1078 C 0.87057 0.4548 0.69955 0.0
C1079 C 0.86729 0.47279 0.67094 0.0
C1080 C 0.87476 0.49142 0.6894 0.0
C1081 C 0.88529 0.49244 0.73486 0.0
C1082 C 0.89137 0.51447 0.74682 0.0
C1083 C 0.88121 0.52176 0.7964 0.0
C1084 C 0.91488 0.51673 0.74916 0.0
C1085 C 0.88257 0.52569 0.70113 0.0
C1086 C 0.8731 0.51211 0.66829 0.0
C1087 C 0.8638 0.51892 0.62351 0.0
C1088 C 0.86408 0.54008 0.6122 0.0
C1089 C 0.87352 0.55425 0.64552 0.0
C1090 C 0.88294 0.54687 0.69043 0.0
H1091 H 0.54419 0.16347 0.35825 0.0
H1092 H 0.56819 0.10285 0.32598 0.0
H1093 H 0.53506 0.09327 0.28599 0.0
H1094 H 0.49079 0.14744 0.38522 0.0
H1095 H 0.47974 0.16974 0.35524 0.0
H1096 H 0.50477 0.17135 0.38434 0.0
H1097 H 0.52015 0.18458 0.29973 0.0
H1098 H 0.49521 0.18297 0.27033 0.0
H1099 H 0.5168 0.16966 0.24271 0.0
H1100 H 0.50043 0.09123 0.24325 0.0
H1101 H 0.46631 0.09624 0.20389 0.0
H1102 H 0.46367 0.15794 0.26501 0.0
C1103 C 0.54227 0.14809 0.3434 0.0
C1104 C 0.55872 0.13381 0.34528 0.0
C1105 C 0.55575 0.11391 0.32515 0.0
C1106 C 0.53701 0.10839 0.30229 0.0
C1107 C 0.52122 0.1229 0.30007 0.0
C1108 C 0.52357 0.14231 0.32045 0.0
C1109 C 0.50438 0.1552 0.31144 0.0
C1110 C 0.49432 0.16129 0.36208 0.0
C1111 C 0.50944 0.17422 0.27913 0.0
C1112 C 0.49096 0.14013 0.28227 0.0
C1113 C 0.50104 0.12159 0.27616 0.0
C1114 C 0.49233 0.10559 0.24837 0.0
C1115 C 0.47294 0.10858 0.22605 0.0
C1116 C 0.46221 0.12737 0.23172 0.0
C1117 C 0.47132 0.14328 0.26076 0.0
H1118 H 0.16039 0.55919 0.75179 0.0
H1119 H 0.09515 0.56452 0.78186 0.0
H1120 H 0.08965 0.52946 0.74787 0.0
H1121 H 0.15601 0.5292 0.63355 0.0
H1122 H 0.17813 0.51353 0.64756 0.0
H1123 H 0.17671 0.53943 0.67136 0.0
H1124 H 0.18216 0.52593 0.76284 0.0
H1125 H 0.18346 0.49999 0.73935 0.0
H1126 H 0.16504 0.50662 0.78782 0.0
H1127 H 0.09157 0.49272 0.7148 0.0
H1128 H 0.10075 0.45781 0.68475 0.0
H1129 H 0.16458 0.47628 0.6733 0.0
C1130 C 0.14493 0.55306 0.75021 0.0
C1131 C 0.12809 0.5647 0.76872 0.0
C1132 C 0.10816 0.55598 0.76723 0.0
C1133 C 0.10493 0.53604 0.7481 0.0
C1134 C 0.12182 0.52485 0.73053 0.0
C1135 C 0.14143 0.53308 0.73114 0.0
C1136 C 0.157 0.51751 0.71158 0.0
C1137 C 0.16759 0.52539 0.66312 0.0
C1138 C 0.17285 0.51221 0.75286 0.0
C1139 C 0.14315 0.49923 0.70024 0.0
C1140 C 0.1229 0.50377 0.7115 0.0
C1141 C 0.10739 0.48909 0.70572 0.0
C1142 C 0.11272 0.46928 0.6886 0.0
C1143 C 0.13338 0.46414 0.67748 0.0
C1144 C 0.14868 0.47957 0.68241 0.0
H1145 H 0.48194 0.86168 0.37583 0.0
H1146 H 0.45503 0.91978 0.33153 0.0
H1147 H 0.48769 0.92962 0.28943 0.0
H1148 H 0.53449 0.88106 0.39885 0.0
H1149 H 0.54664 0.85843 0.37331 0.0
H1150 H 0.52169 0.85655 0.40282 0.0
H1151 H 0.50709 0.83993 0.32123 0.0
H1152 H 0.53196 0.84181 0.29141 0.0
H1153 H 0.5098 0.85312 0.2614 0.0
H1154 H 0.52234 0.93196 0.24602 0.0
H1155 H 0.55679 0.92746 0.20785 0.0
H1156 H 0.56238 0.86815 0.28117 0.0
C1157 C 0.4831 0.87659 0.35788 0.0
C1158 C 0.46593 0.89004 0.35701 0.0
C1159 C 0.46798 0.90934 0.33288 0.0
C1160 C 0.48648 0.915 0.30875 0.0
C1161 C 0.50298 0.90126 0.30924 0.0
C1162 C 0.50155 0.8825 0.33355 0.0
C1163 C 0.5214 0.87032 0.32695 0.0
C1164 C 0.53166 0.86636 0.37856 0.0
C1165 C 0.51731 0.8501 0.29856 0.0
C1166 C 0.53414 0.88504 0.29473 0.0
C1167 C 0.52314 0.90278 0.28493 0.0
C1168 C 0.53114 0.91824 0.254 0.0
C1169 C 0.55074 0.91553 0.23235 0.0
C1170 C 0.56244 0.89757 0.24176 0.0
C1171 C 0.55401 0.88221 0.27392 0.0
H1172 H 0.89943 0.96307 0.53555 0.0
H1173 H 0.86611 0.97472 0.67501 0.0
H1174 H 0.86492 0.0118 0.65431 0.0
H1175 H 0.92993 1.01104 0.53565 0.0
H1176 H 0.92833 0.01402 0.46772 0.0
H1177 H 0.92779 0.98874 0.49548 0.0
H1178 H 0.89341 0.98129 0.44964 0.0
H1179 H 0.89371 1.00661 0.42216 0.0
H1180 H 0.87188 0.9983 0.45911 0.0
H1181 H 0.86501 0.04743 0.61472 0.0
H1182 H 0.86758 0.07861 0.5624 0.0
H1183 H 0.90237 0.04446 0.4495 0.0
C1184 C 0.89237 0.97356 0.56226 0.0
C1185 C 0.88336 0.96607 0.60769 0.0
C1186 C 0.87364 0.98017 0.64085 0.0
C1187 C 0.87275 1.00126 0.62913 0.0
C1188 C 0.88163 1.00815 0.58389 0.0
C1189 C 0.89143 0.99474 0.55116 0.0
C1190 C 0.89913 1.00603 0.50422 0.0
C1191 C 0.9227 1.00489 0.50057 0.0
C1192 C 0.88892 0.99755 0.45593 0.0
C1193 C 0.89196 0.02782 0.51534 0.0
C1194 C 0.88186 0.02868 0.56144 0.0
C1195 C 0.87319 0.04695 0.57893 0.0
C1196 C 0.87491 0.06475 0.54883 0.0
C1197 C 0.88539 0.0645 0.50141 0.0
C1198 C 0.89406 0.04555 0.48499 0.0
H1199 H 0.96246 0.12015 0.47127 0.0
H1200 H 0.97294 0.1568 0.33649 0.0
H1201 H 1.00988 0.15954 0.3583 0.0
H1202 H 0.99615 0.14779 0.55213 0.0
H1203 H 1.00544 0.12567 0.58626 0.0
H1204 H 0.98016 0.12532 0.55845 0.0
H1205 H 0.9894 0.09243 0.50823 0.0
H1206 H 0.01466 0.09255 0.53627 0.0
H1207 H 1.01191 0.09227 0.46818 0.0
H1208 H 0.04523 0.16046 0.39835 0.0
H1209 H 0.07647 0.15821 0.45046 0.0
H1210 H 0.04385 0.11942 0.55818 0.0
C1211 C 0.9727 0.12832 0.44586 0.0
C1212 C 0.96496 0.13785 0.40144 0.0
C1213 C 0.97866 0.14896 0.36989 0.0
C1214 C 0.99963 0.1507 0.38223 0.0
C1215 C 1.00678 0.14128 0.42643 0.0
C1216 C 0.99377 0.13014 0.45757 0.0
C1217 C 1.00532 0.12201 0.50359 0.0
C1218 C 0.99622 0.13072 0.55302 0.0
C1219 C 1.00532 0.09841 0.50408 0.0
C1220 C 0.02677 0.13047 0.49374 0.0
C1221 C 0.02724 0.14158 0.4491 0.0
C1222 C 0.04509 0.15149 0.43296 0.0
C1223 C 0.06293 0.14995 0.46289 0.0
C1224 C 0.06311 0.13841 0.50871 0.0
C1225 C 0.04456 0.12854 0.52389 0.0
H1226 H 0.11642 0.978 0.44879 0.0
H1227 H 0.15348 0.94531 0.55965 0.0
H1228 H 0.15763 0.97727 0.60833 0.0
H1229 H 0.14672 0.02443 0.44997 0.0
H1230 H 0.12493 0.04127 0.4428 0.0
H1231 H 0.124 0.0156 0.41743 0.0
H1232 H 0.09083 1.00842 0.46894 0.0
H1233 H 0.09169 0.03405 0.49457 0.0
H1234 H 0.09087 0.01226 0.53673 0.0
H1235 H 0.15893 0.01326 0.64438 0.0
H1236 H 0.15718 0.05037 0.66423 0.0
H1237 H 0.11999 0.06044 0.53021 0.0
C1238 C 0.12551 0.97746 0.48315 0.0
C1239 C 0.13442 0.95871 0.50017 0.0
C1240 C 0.146 0.95906 0.54588 0.0
C1241 C 0.14863 0.9773 0.5738 0.0
C1242 C 0.13969 0.99536 0.55588 0.0
C1243 C 0.12838 0.99562 0.51153 0.0
C1244 C 0.12076 0.01726 0.50016 0.0
C1245 C 0.12963 0.0251 0.44958 0.0
C1246 C 0.09713 0.01804 0.50011 0.0
C1247 C 0.12958 0.02911 0.54494 0.0
C1248 C 0.14042 0.01613 0.57666 0.0
C1249 C 0.15031 0.02349 0.62 0.0
C1250 C 0.14915 0.04458 0.63118 0.0
C1251 C 0.13807 0.05823 0.59951 0.0
C1252 C 0.12824 0.05032 0.55564 0.0
H1253 H 0.9751 0.90524 0.54967 0.0
H1254 H 0.94143 0.86982 0.43736 0.0
H1255 H 0.9732 0.86618 0.38708 0.0
H1256 H 1.0097 0.93137 0.46328 0.0
H1257 H 0.03149 0.92957 0.50526 0.0
H1258 H 1.00584 0.93063 0.53106 0.0
H1259 H 0.01229 0.89673 0.5799 0.0
H1260 H 0.03799 0.89564 0.55446 0.0
H1261 H 0.0207 0.87431 0.54554 0.0
H1262 H 1.00955 0.86475 0.3503 0.0
H1263 H 0.04692 0.86537 0.33187 0.0
H1264 H 0.05738 0.90068 0.46865 0.0
C1265 C 0.97423 0.8966 0.51468 0.0
C1266 C 0.95529 0.88794 0.49793 0.0
C1267 C 0.95532 0.87706 0.45116 0.0
C1268 C 0.97345 0.87474 0.42227 0.0
C1269 C 0.99174 0.88329 0.44027 0.0
C1270 C 0.99226 0.89397 0.48552 0.0
C1271 C 0.01407 0.90099 0.49745 0.0
C1272 C 0.01534 0.92454 0.49937 0.0
C1273 C 0.02171 0.89134 0.54729 0.0
C1274 C 0.02578 0.89253 0.45199 0.0
C1275 C 0.01258 0.88245 0.41928 0.0
C1276 C 0.01992 0.87284 0.37542 0.0
C1277 C 0.04118 0.8734 0.36498 0.0
C1278 C 0.05504 0.88357 0.39794 0.0
C1279 C 0.04711 0.89324 0.44206 0.0
H1280 H 0.37 0.30348 0.06657 0.0
H1281 H 0.41542 0.31464 0.18332 0.0
H1282 H 0.42365 0.27797 0.18434 0.0
H1283 H 0.34942 0.25751 0.11778 0.0
H1284 H 0.34577 0.2455 0.05682 0.0
H1285 H 0.34492 0.27303 0.06219 0.0
H1286 H 0.37343 0.27604 0.9938 0.0
H1287 H 0.3745 0.24847 0.98858 0.0
H1288 H 0.39749 0.2628 1.00284 0.0
H1289 H 0.42337 0.23863 0.18187 0.0
H1290 H 0.41702 0.20145 0.16873 0.0
H1291 H 0.37145 0.21576 0.05453 0.0
C1292 C 0.3805 0.29846 0.09547 0.0
C1293 C 0.38912 0.31218 0.13192 0.0
C1294 C 0.4061 0.30455 0.16044 0.0
C1295 C 0.41141 0.28358 0.16024 0.0
C1296 C 0.40043 0.27021 0.12913 0.0
C1297 C 0.38569 0.27748 0.09621 0.0
C1298 C 0.37595 0.25995 0.06657 0.0
C1299 C 0.35264 0.25894 0.07645 0.0
C1300 C 0.38062 0.26194 0.00956 0.0
C1301 C 0.38697 0.24157 0.08942 0.0
C1302 C 0.4013 0.24785 0.12497 0.0
C1303 C 0.41252 0.23361 0.15334 0.0
C1304 C 0.40886 0.21253 0.14562 0.0
C1305 C 0.39418 0.20577 0.10976 0.0
C1306 C 0.38322 0.22053 0.08107 0.0
H1307 H 0.22031 0.61586 0.87518 0.0
H1308 H 0.20759 0.68097 0.88787 0.0
H1309 H 0.24466 0.68855 0.88019 0.0
H1310 H 0.26798 0.61827 0.95201 0.0
H1311 H 0.28081 0.59875 0.91529 0.0
H1312 H 0.25321 0.5984 0.92139 0.0
H1313 H 0.24997 0.59836 0.82343 0.0
H1314 H 0.27756 0.59915 0.81705 0.0
H1315 H 0.26197 0.61857 0.78714 0.0
H1316 H 0.28255 0.68948 0.86302 0.0
H1317 H 0.32 0.68353 0.85634 0.0
H1318 H 0.30974 0.61786 0.86498 0.0
C1319 C 0.22544 0.63165 0.87702 0.0
C1320 C 0.211 0.64789 0.88101 0.0
C1321 C 0.21833 0.66835 0.88399 0.0
C1322 C 0.23936 0.67281 0.87942 0.0
C1323 C 0.25313 0.65661 0.87341 0.0
C1324 C 0.24662 0.6364 0.87388 0.0
C1325 C 0.26499 0.62196 0.8696 0.0
C1326 C 0.26686 0.60855 0.91742 0.0
C1327 C 0.26352 0.60873 0.82144 0.0
C1328 C 0.28269 0.63724 0.86584 0.0
C1329 C 0.27535 0.65714 0.86715 0.0
C1330 C 0.28849 0.67397 0.86261 0.0
C1331 C 0.30973 0.67045 0.85841 0.0
C1332 C 0.31784 0.65029 0.85979 0.0
C1333 C 0.30403 0.63345 0.86298 0.0
H1334 H 0.66556 0.80708 0.1256 0.0
H1335 H 0.59994 0.81837 0.12745 0.0
H1336 H 0.59354 0.78079 0.13073 0.0
H1337 H 0.66542 0.76039 0.05229 0.0
H1338 H 0.68534 0.74835 0.08931 0.0
H1339 H 0.68453 0.7759 0.08362 0.0
H1340 H 0.68375 0.7793 0.18162 0.0
H1341 H 0.68461 0.75177 0.18762 0.0
H1342 H 0.66413 0.76606 0.21729 0.0
H1343 H 0.59469 0.74128 0.13393 0.0
H1344 H 0.60323 0.70417 0.13903 0.0
H1345 H 0.66802 0.71934 0.14537 0.0
C1346 C 0.64983 0.80164 0.12699 0.0
C1347 C 0.6332 0.81569 0.12693 0.0
C1348 C 0.61287 0.80791 0.12773 0.0
C1349 C 0.60913 0.78659 0.1297 0.0
C1350 C 0.6259 0.77317 0.13126 0.0
C1351 C 0.64586 0.78047 0.1303 0.0
C1352 C 0.66123 0.76302 0.13468 0.0
C1353 C 0.67494 0.76185 0.08714 0.0
C1354 C 0.67419 0.76517 0.18319 0.0
C1355 C 0.64687 0.74469 0.13789 0.0
C1356 C 0.62654 0.75079 0.13527 0.0
C1357 C 0.61058 0.73642 0.13609 0.0
C1358 C 0.61554 0.71538 0.13908 0.0
C1359 C 0.63627 0.7088 0.14159 0.0
C1360 C 0.65204 0.72381 0.1422 0.0
H1361 H 0.71435 0.4052 0.87119 0.0
H1362 H 0.7012 0.34013 0.85946 0.0
H1363 H 0.7383 0.33242 0.86565 0.0
H1364 H 0.76187 0.40268 0.79283 0.0
H1365 H 0.7748 0.42216 0.82943 0.0
H1366 H 0.7472 0.42258 0.82366 0.0
H1367 H 0.74404 0.42261 0.92166 0.0
H1368 H 0.77162 0.42174 0.92772 0.0
H1369 H 0.75599 0.40236 0.95777 0.0
H1370 H 0.77615 0.33143 0.88296 0.0
H1371 H 0.81355 0.33727 0.89069 0.0
H1372 H 0.80372 0.40296 0.88052 0.0
C1373 C 0.71939 0.38938 0.86883 0.0
C1374 C 0.70485 0.3732 0.86535 0.0
C1375 C 0.71204 0.35271 0.86244 0.0
C1376 C 0.73307 0.34818 0.86624 0.0
C1377 C 0.74694 0.36435 0.87156 0.0
C1378 C 0.74053 0.38458 0.87118 0.0
C1379 C 0.75894 0.39898 0.87526 0.0
C1380 C 0.76081 0.41239 0.82744 0.0
C1381 C 0.75755 0.4122 0.92348 0.0
C1382 C 0.77657 0.38365 0.8788 0.0
C1383 C 0.76915 0.36378 0.87761 0.0
C1384 C 0.78217 0.34691 0.88285 0.0
C1385 C 0.80338 0.35038 0.8875 0.0
C1386 C 0.8116 0.3705 0.8855 0.0
C1387 C 0.7979 0.38739 0.88199 0.0
H1388 H 0.88639 0.71507 0.67794 0.0
H1389 H 0.88226 0.70735 0.51468 0.0
H1390 H 0.88698 0.74478 0.5035 0.0
H1391 H 0.85272 0.75975 0.67495 0.0
H1392 H 0.86496 0.77176 0.72867 0.0
H1393 H 0.86471 0.7442 0.72318 0.0
H1394 H 0.90442 0.74391 0.73068 0.0
H1395 H 0.9048 0.77152 0.73496 0.0
H1396 H 0.9196 0.75871 0.68653 0.0
H1397 H 0.89441 0.78332 0.51096 0.0
H1398 H 0.89397 0.82006 0.53437 0.0
H1399 H 0.88263 0.80331 0.69136 0.0
C1400 C 0.88613 0.72118 0.63973 0.0
C1401 C 0.8842 0.70796 0.59706 0.0
C1402 C 0.88419 0.71691 0.54795 0.0
C1403 C 0.88684 0.73821 0.54125 0.0
C1404 C 0.88855 0.7507 0.58412 0.0
C1405 C 0.88732 0.74257 0.63243 0.0
C1406 C 0.88643 0.75956 0.67202 0.0
C1407 C 0.86599 0.75877 0.70143 0.0
C1408 C 0.90492 0.75834 0.70819 0.0
C1409 C 0.8877 0.77854 0.63847 0.0
C1410 C 0.88974 0.77302 0.58806 0.0
C1411 C 0.89241 0.78776 0.55024 0.0
C1412 C 0.89223 0.80863 0.56397 0.0
C1413 C 0.88844 0.81484 0.61478 0.0
C1414 C 0.88626 0.79939 0.65249 0.0
H1415 H 0.80384 0.15158 0.31464 0.0
H1416 H 0.81979 0.10784 0.43182 0.0
H1417 H 0.78274 0.1019 0.4493 0.0
H1418 H 0.76328 0.17472 0.3796 0.0
H1419 H 0.74692 0.17847 0.32519 0.0
H1420 H 0.77439 0.17732 0.31716 0.0
H1421 H 0.77047 0.14764 0.25247 0.0
H1422 H 0.74294 0.14895 0.25958 0.0
H1423 H 0.75616 0.12501 0.27008 0.0
H1424 H 0.74326 0.10127 0.45397 0.0
H1425 H 0.70653 0.10869 0.45327 0.0
H1426 H 0.71648 0.15299 0.33323 0.0
C1427 C 0.79943 0.14032 0.3429 0.0
C1428 C 0.81459 0.12976 0.37116 0.0
C1429 C 0.80836 0.1157 0.40913 0.0
C1430 C 0.78736 0.11228 0.41928 0.0
C1431 C 0.77272 0.1231 0.39119 0.0
C1432 C 0.77851 0.13679 0.3536 0.0
C1433 C 0.75981 0.14749 0.33138 0.0
C1434 C 0.76119 0.17088 0.33879 0.0
C1435 C 0.75719 0.14194 0.27504 0.0
C1436 C 0.74272 0.13827 0.36354 0.0
C1437 C 0.75041 0.12405 0.39719 0.0
C1438 C 0.73736 0.11328 0.42959 0.0
C1439 C 0.71627 0.11827 0.43016 0.0
C1440 C 0.70816 0.13482 0.40083 0.0
C1441 C 0.72166 0.14315 0.36326 0.0
H1442 H 0.14885 0.30636 0.69818 0.0
H1443 H 0.10565 0.31755 0.57653 0.0
H1444 H 0.09886 0.28064 0.57131 0.0
H1445 H 0.17222 0.26168 0.64646 0.0
H1446 H 0.17486 0.249 0.70695 0.0
H1447 H 0.17493 0.27661 0.70368 0.0
H1448 H 0.14482 0.27788 0.76805 0.0
H1449 H 0.14454 0.25024 0.7712 0.0
H1450 H 0.12146 0.264 0.75469 0.0
H1451 H 0.10052 0.24125 0.57072 0.0
H1452 H 0.10738 0.2041 0.58299 0.0
H1453 H 0.14982 0.21842 0.70434 0.0
C1454 C 0.13928 0.30137 0.66734 0.0
C1455 C 0.13103 0.31529 0.63077 0.0
C1456 C 0.11492 0.30748 0.59961 0.0
C1457 C 0.1104 0.28632 0.59735 0.0
C1458 C 0.12121 0.2729 0.62869 0.0
C1459 C 0.1349 0.28022 0.6642 0.0
C1460 C 0.14451 0.26264 0.69395 0.0
C1461 C 0.16802 0.26248 0.68735 0.0
C1462 C 0.13847 0.26377 0.75032 0.0
C1463 C 0.13463 0.2442 0.66831 0.0
C1464 C 0.121 0.25047 0.63113 0.0
C1465 C 0.11085 0.23623 0.60041 0.0
C1466 C 0.11481 0.21516 0.60761 0.0
C1467 C 0.12874 0.2084 0.64528 0.0
C1468 C 0.13868 0.22317 0.67615 0.0
H1469 H 0.21699 0.85695 0.38382 0.0
H1470 H 0.20482 0.92233 0.38181 0.0
H1471 H 0.24227 0.9292 0.38853 0.0
H1472 H 0.25656 0.85973 0.48035 0.0
H1473 H 0.27162 0.83925 0.45324 0.0
H1474 H 0.24415 0.83967 0.44459 0.0
H1475 H 0.24918 0.83807 0.3471 0.0
H1476 H 0.27667 0.83772 0.35544 0.0
H1477 H 0.26496 0.85711 0.31615 0.0
H1478 H 0.28182 0.9286 0.39334 0.0
H1479 H 0.31901 0.92073 0.40059 0.0
H1480 H 0.30472 0.85594 0.41256 0.0
C1481 C 0.22216 0.87273 0.38547 0.0
C1482 C 0.20783 0.88914 0.38306 0.0
C1483 C 0.21542 0.90953 0.38386 0.0
C1484 C 0.23668 0.91355 0.38777 0.0
C1485 C 0.25031 0.89702 0.39155 0.0
C1486 C 0.24326 0.877 0.39102 0.0
C1487 C 0.26092 0.86197 0.39796 0.0
C1488 C 0.25815 0.84941 0.44695 0.0
C1489 C 0.26305 0.84789 0.35139 0.0
C1490 C 0.27906 0.87658 0.40207 0.0
C1491 C 0.27269 0.89674 0.39749 0.0
C1492 C 0.28687 0.91286 0.39751 0.0
C1493 C 0.30799 0.90827 0.40185 0.0
C1494 C 0.31491 0.88774 0.40701 0.0
C1495 C 0.30004 0.87179 0.40818 0.0
H1496 H 0.22801 0.15509 0.80466 0.0
H1497 H 0.21501 0.08951 0.79796 0.0
H1498 H 0.24315 0.08305 0.85637 0.0
H1499 H 0.2829 0.15227 0.81902 0.0
H1500 H 0.28457 0.17236 0.86588 0.0
H1501 H 0.26401 0.17252 0.82006 0.0
H1502 H 0.23722 0.17369 0.89269 0.0
H1503 H 0.2577 0.17366 0.93872 0.0
H1504 H 0.23788 0.15435 0.94166 0.0
H1505 H 0.27422 0.0827 0.91127 0.0
H1506 H 0.30275 0.08862 0.96869 0.0
H1507 H 0.29302 0.15464 0.9559 0.0
C1508 C 0.23081 0.13932 0.81532 0.0
C1509 C 0.21919 0.12287 0.79358 0.0
C1510 C 0.22385 0.1026 0.81038 0.0
C1511 C 0.23985 0.09864 0.84471 0.0
C1512 C 0.25105 0.11503 0.86415 0.0
C1513 C 0.2465 0.13502 0.85117 0.0
C1514 C 0.26037 0.14976 0.88067 0.0
C1515 C 0.27376 0.16248 0.84422 0.0
C1516 C 0.24752 0.16369 0.91551 0.0
C1517 C 0.27347 0.13481 0.9116 0.0
C1518 C 0.2679 0.11489 0.90056 0.0
C1519 C 0.2783 0.09827 0.92146 0.0
C1520 C 0.29455 0.10196 0.95524 0.0
C1521 C 0.30028 0.12221 0.9701 0.0
C1522 C 0.28942 0.13887 0.9469 0.0
H1523 H 0.11088 0.80557 0.1784 0.0
H1524 H 0.16169 0.78497 0.27229 0.0
H1525 H 0.16683 0.7554 0.21578 0.0
H1526 H 0.09117 0.75386 0.14872 0.0
H1527 H 0.08439 0.76022 0.08426 0.0
H1528 H 0.08406 0.7798 0.13259 0.0
H1529 H 0.10888 0.80197 0.07877 0.0
H1530 H 0.10934 0.78244 0.03036 0.0
H1531 H 0.13305 0.79124 0.05823 0.0
H1532 H 0.16764 0.72845 0.14847 0.0
H1533 H 0.16358 0.70531 0.07552 0.0
H1534 H 0.11199 0.74171 0.02234 0.0
C1535 C 0.12293 0.79471 0.18741 0.0
C1536 C 0.13603 0.798 0.23006 0.0
C1537 C 0.15168 0.78331 0.23974 0.0
C1538 C 0.15467 0.76627 0.20786 0.0
C1539 C 0.14186 0.76372 0.16595 0.0
C1540 C 0.1262 0.77742 0.15561 0.0
C1541 C 0.11489 0.77094 0.10727 0.0
C1542 C 0.09228 0.76591 0.11891 0.0
C1543 C 0.11665 0.78765 0.06623 0.0
C1544 C 0.12677 0.75164 0.09207 0.0
C1545 C 0.14224 0.74787 0.12674 0.0
C1546 C 0.15558 0.73129 0.12108 0.0
C1547 C 0.15322 0.71825 0.079 0.0
C1548 C 0.13762 0.72159 0.04223 0.0
C1549 C 0.12406 0.73854 0.0495 0.0
H1550 H 0.71969 0.91211 0.93531 0.0
H1551 H 0.74035 0.86196 0.03104 0.0
H1552 H 0.77078 0.85747 0.97651 0.0
H1553 H 0.73568 0.88962 0.81649 0.0
H1554 H 0.74405 0.9134 0.78818 0.0
H1555 H 0.72405 0.91353 0.83559 0.0
H1556 H 0.74504 0.93924 0.8895 0.0
H1557 H 0.7651 0.93921 0.8422 0.0
H1558 H 0.77106 0.93298 0.90723 0.0
H1559 H 0.79882 0.85759 0.91157 0.0
H1560 H 0.82256 0.86195 0.83978 0.0
H1561 H 0.78485 0.91174 0.782 0.0
C1562 C 0.73074 0.90033 0.9451 0.0
C1563 C 0.72734 0.8873 0.98783 0.0
C1564 C 0.74222 0.87197 0.99853 0.0
C1565 C 0.75972 0.86936 0.96779 0.0
C1566 C 0.76244 0.88216 0.92585 0.0
C1567 C 0.74842 0.89738 0.91428 0.0
C1568 C 0.75502 0.90859 0.86585 0.0
C1569 C 0.73873 0.90614 0.82406 0.0
C1570 C 0.75931 0.93136 0.87686 0.0
C1571 C 0.77483 0.89722 0.85207 0.0
C1572 C 0.77873 0.88209 0.88757 0.0
C1573 C 0.79584 0.86933 0.88346 0.0
C1574 C 0.80923 0.87186 0.842 0.0
C1575 C 0.80567 0.88699 0.80413 0.0
C1576 C 0.78821 0.90004 0.80996 0.0
H1577 H 0.8728 0.23708 0.22649 0.0
H1578 H 0.91959 0.1972 0.16288 0.0
H1579 H 0.92354 0.22073 0.09006 0.0
H1580 H 0.84956 0.25279 0.10697 0.0
H1581 H 0.84545 0.27901 0.12631 0.0
H1582 H 0.84571 0.25882 0.17311 0.0
H1583 H 0.87431 0.27782 0.22254 0.0
H1584 H 0.87413 0.29807 0.17592 0.0
H1585 H 0.89775 0.28482 0.19025 0.0
H1586 H 0.92214 0.24826 0.02241 0.0
H1587 H 0.91719 0.27881 0.96832 0.0
H1588 H 0.8725 0.30249 0.07579 0.0
C1589 C 0.8838 0.23327 0.19709 0.0
C1590 C 0.8959 0.21513 0.20079 0.0
C1591 C 0.91026 0.21096 0.16151 0.0
C1592 C 0.91255 0.22424 0.11969 0.0
C1593 C 0.90054 0.24195 0.11729 0.0
C1594 C 0.88656 0.24664 0.15514 0.0
C1595 C 0.87613 0.26713 0.1438 0.0
C1596 C 0.85283 0.26426 0.13716 0.0
C1597 C 0.88087 0.28289 0.18562 0.0
C1598 C 0.88635 0.27313 0.09372 0.0
C1599 C 0.90024 0.25823 0.07897 0.0
C1600 C 0.91133 0.26002 0.03375 0.0
C1601 C 0.90831 0.27745 1.00296 0.0
C1602 C 0.89443 0.29324 0.01727 0.0
C1603 C 0.88335 0.29089 0.06362 0.0
H1604 H 0.21585 0.4156 0.43068 0.0
H1605 H 0.24163 0.37421 0.54277 0.0
H1606 H 0.27308 0.37078 0.4911 0.0
H1607 H 0.23482 0.3887 0.3223 0.0
H1608 H 0.24057 0.41121 0.28503 0.0
H1609 H 0.22058 0.4121 0.33241 0.0
H1610 H 0.23849 0.443 0.37537 0.0
H1611 H 0.25851 0.44224 0.32798 0.0
H1612 H 0.26502 0.44083 0.3944 0.0
H1613 H 0.30083 0.36991 0.42634 0.0
H1614 H 0.32356 0.37152 0.35174 0.0
H1615 H 0.281 0.41317 0.27771 0.0
C1616 C 0.22832 0.40617 0.44467 0.0
C1617 C 0.22627 0.39525 0.4912 0.0
C1618 C 0.2428 0.38272 0.50753 0.0
C1619 C 0.26077 0.3807 0.47839 0.0
C1620 C 0.2622 0.39127 0.43248 0.0
C1621 C 0.24651 0.40381 0.41552 0.0
C1622 C 0.25186 0.41254 0.36326 0.0
C1623 C 0.23601 0.40573 0.32339 0.0
C1624 C 0.25357 0.43605 0.36539 0.0
C1625 C 0.27282 0.4027 0.35344 0.0
C1626 C 0.2784 0.3906 0.39426 0.0
C1627 C 0.29664 0.37939 0.39424 0.0
C1628 C 0.30944 0.38034 0.35139 0.0
C1629 C 0.30416 0.39235 0.3084 0.0
C1630 C 0.28563 0.40396 0.30995 0.0
H1631 H 0.37741 0.78315 0.53562 0.0
H1632 H 0.42587 0.82071 0.60075 0.0
H1633 H 0.43004 0.79584 0.66979 0.0
H1634 H 0.35516 0.76588 0.65311 0.0
H1635 H 0.35041 0.73993 0.63248 0.0
H1636 H 0.35091 0.76053 0.58679 0.0
H1637 H 0.37893 0.7415 0.53536 0.0
H1638 H 0.37842 0.72078 0.58075 0.0
H1639 H 0.4023 0.73363 0.56655 0.0
H1640 H 0.42809 0.76817 0.73559 0.0
H1641 H 0.42234 0.73764 0.78912 0.0
H1642 H 0.37687 0.71549 0.68186 0.0
C1643 C 0.38906 0.78605 0.56404 0.0
C1644 C 0.40091 0.80448 0.56266 0.0
C1645 C 0.416 0.80733 0.60107 0.0
C1646 C 0.41866 0.7931 0.64062 0.0
C1647 C 0.40642 0.77558 0.64171 0.0
C1648 C 0.39213 0.77172 0.60409 0.0
C1649 C 0.38126 0.75132 0.61466 0.0
C1650 C 0.35805 0.75462 0.6222 0.0
C1651 C 0.38548 0.73589 0.57177 0.0
C1652 C 0.39155 0.74456 0.66415 0.0
C1653 C 0.4059 0.75896 0.67903 0.0
C1654 C 0.41698 0.75672 0.72407 0.0
C1655 C 0.41348 0.73931 0.75457 0.0
C1656 C 0.39913 0.72398 0.74025 0.0
C1657 C 0.38807 0.72675 0.69399 0.0
H1658 H 0.7216 0.64942 0.33695 0.0
H1659 H 0.74288 0.60254 0.2322 0.0
H1660 H 0.7739 0.59762 0.28407 0.0
H1661 H 0.7722 0.67141 0.36294 0.0
H1662 H 0.76703 0.67609 0.42919 0.0
H1663 H 0.74625 0.67622 0.38396 0.0
H1664 H 0.7272 0.64861 0.43675 0.0
H1665 H 0.74796 0.64834 0.48202 0.0
H1666 H 0.74005 0.62484 0.45162 0.0
H1667 H 0.80275 0.5972 0.34696 0.0
H1668 H 0.82777 0.60168 0.41594 0.0
H1669 H 0.78932 0.64915 0.48218 0.0
C1670 C 0.73285 0.63822 0.32469 0.0
C1671 C 0.72942 0.62623 0.28022 0.0
C1672 C 0.74467 0.61168 0.26623 0.0
C1673 C 0.76252 0.60883 0.29544 0.0
C1674 C 0.76526 0.62061 0.33909 0.0
C1675 C 0.75091 0.63508 0.35379 0.0
C1676 C 0.75782 0.64557 0.40281 0.0
C1677 C 0.76102 0.6687 0.3942 0.0
C1678 C 0.74233 0.6416 0.44585 0.0
C1679 C 0.77825 0.63475 0.41314 0.0
C1680 C 0.78214 0.62044 0.37566 0.0
C1681 C 0.7999 0.60848 0.37629 0.0
C1682 C 0.81417 0.61126 0.41575 0.0
C1683 C 0.81091 0.62597 0.45475 0.0
C1684 C 0.79243 0.63773 0.45336 0.0
H1685 H 0.61063 0.215 0.60087 0.0
H1686 H 0.65432 0.23952 0.49161 0.0
H1687 H 0.65949 0.26975 0.54593 0.0
H1688 H 0.58786 0.26346 0.63595 0.0
H1689 H 0.5851 0.25715 0.70225 0.0
H1690 H 0.58473 0.23708 0.6552 0.0
H1691 H 0.6145 0.21864 0.70167 0.0
H1692 H 0.615 0.2387 0.74879 0.0
H1693 H 0.63804 0.23236 0.71407 0.0
H1694 H 0.65979 0.29787 0.6105 0.0
H1695 H 0.65473 0.32234 0.68082 0.0
H1696 H 0.61171 0.28034 0.75204 0.0
C1697 C 0.62141 0.22662 0.58842 0.0
C1698 C 0.63187 0.22469 0.54104 0.0
C1699 C 0.64568 0.24057 0.52668 0.0
C1700 C 0.64891 0.25782 0.55769 0.0
C1701 C 0.63835 0.25925 0.60365 0.0
C1702 C 0.62487 0.24411 0.61917 0.0
C1703 C 0.61532 0.24978 0.67032 0.0
C1704 C 0.59186 0.252 0.66563 0.0
C1705 C 0.62106 0.23392 0.71113 0.0
C1706 C 0.62548 0.27048 0.68087 0.0
C1707 C 0.63873 0.27552 0.64169 0.0
C1708 C 0.64952 0.29402 0.64144 0.0
C1709 C 0.64654 0.30785 0.68165 0.0
C1710 C 0.63293 0.30333 0.72226 0.0
C1711 C 0.62245 0.28417 0.72204 0.0
loop_
_geom_bond_atom_site_label_1
_geom_bond_atom_site_label_2
_geom_bond_distance
_geom_bond_site_symmetry_2
_ccdc_geom_bond_type
C0 C1 1.443 . S
C0 N4 1.376 . S
C0 C38 1.389 . S
C1 C0 1.443 . S
C1 C2 1.340 . S
C1 H41 0.951 . S
C2 C1 1.340 . S
C2 C3 1.439 . S
C2 H42 0.950 . S
C3 C2 1.439 . S
C3 N4 1.374 . S
C3 C37 1.395 . S
N4 C0 1.376 . S
N4 C3 1.374 . S
N4 Co5 2.008 . S
Co5 N4 2.008 . S
Co5 N6 1.995 . S
Co5 N11 2.008 . S
Co5 N16 1.995 . S
Co5 N21 2.282 . S
Co5 N27 2.282 . S
N6 Co5 1.995 . S
N6 C7 1.376 . S
N6 C10 1.383 . S
C7 N6 1.376 . S
C7 C8 1.446 . S
C7 C37 1.391 . S
C8 C7 1.446 . S
C8 C9 1.339 . S
C8 H43 0.949 . S
C9 C8 1.339 . S
C9 C10 1.439 . S
C9 H44 0.950 . S
C10 N6 1.383 . S
C10 C9 1.439 . S
C10 C39 1.392 . S
N11 Co5 2.008 . S
N11 C12 1.376 . S
N11 C15 1.374 . S
C12 N11 1.376 . S
C12 C13 1.443 . S
C12 C39 1.389 . S
C13 C12 1.443 . S
C13 C14 1.340 . S
C13 H45 0.951 . S
C14 C13 1.340 . S
C14 C15 1.439 . S
C14 H46 0.950 1_554 S
C15 N11 1.374 . S
C15 C14 1.439 . S
C15 C40 1.395 . S
N16 Co5 1.995 . S
N16 C17 1.376 . S
N16 C20 1.383 . S
C17 N16 1.376 . S
C17 C18 1.446 . S
C17 C40 1.391 . S
C18 C17 1.446 . S
C18 C19 1.339 . S
C18 H47 0.949 . S
C19 C18 1.339 . S
C19 C20 1.439 . S
C19 H48 0.950 . S
C20 N16 1.383 . S
C20 C19 1.439 . S
C20 C38 1.392 . S
N21 Co5 2.282 . S
N21 C24 1.332 . S
N21 C26 1.332 . S
C22 C23 1.386 . S
C22 C25 1.388 . S
C23 C22 1.386 . S
C23 C24 1.382 . S
C23 H49 0.950 1_554 S
C24 N21 1.332 . S
C24 C23 1.382 . S
C24 H35 0.952 . S
C25 C22 1.388 . S
C25 C26 1.382 . S
C25 H50 0.950 . S
C26 N21 1.332 . S
C26 C25 1.382 . S
C26 H36 0.948 . S
N27 Co5 2.282 . S
N27 C31 1.332 . S
N27 C32 1.332 . S
C28 C29 1.388 . S
C28 C32 1.382 . S
C28 H51 0.950 . S
C29 C28 1.388 . S
C29 C30 1.386 . S
C30 C29 1.386 . S
C30 C31 1.382 . S
C30 H52 0.950 . S
C31 N27 1.332 . S
C31 C30 1.382 . S
C31 H33 0.952 . S
C32 N27 1.332 . S
C32 C28 1.382 . S
C32 H34 0.948 . S
H33 C31 0.952 . S
H34 C32 0.948 . S
H35 C24 0.952 . S
H36 C26 0.948 . S
C37 C3 1.395 . S
C37 C7 1.391 . S
C38 C0 1.389 . S
C38 C20 1.392 . S
C39 C10 1.392 . S
C39 C12 1.389 . S
C40 C15 1.395 . S
C40 C17 1.391 . S
H41 C1 0.951 . S
H42 C2 0.950 . S
H43 C8 0.949 . S
H44 C9 0.950 . S
H45 C13 0.951 . S
H46 C14 0.950 1_556 S
H47 C18 0.949 . S
H48 C19 0.950 . S
H49 C23 0.950 1_556 S
H50 C25 0.950 . S
H51 C28 0.950 . S
H52 C30 0.950 . S
C53 C54 1.443 . S
C53 N57 1.376 . S
C53 C91 1.389 . S
C54 C53 1.443 . S
C54 C55 1.340 . S
C54 H94 0.951 . S
C55 C54 1.340 . S
C55 C56 1.439 . S
C55 H95 0.950 . S
C56 C55 1.439 . S
C56 N57 1.374 . S
C56 C90 1.395 . S
N57 C53 1.376 . S
N57 C56 1.374 . S
N57 Co58 2.008 . S
Co58 N57 2.008 . S
Co58 N59 1.995 . S
Co58 N64 2.008 . S
Co58 N69 1.995 . S
Co58 N74 2.282 . S
Co58 N80 2.282 . S
N59 Co58 1.995 . S
N59 C60 1.376 . S
N59 C63 1.383 . S
C60 N59 1.376 . S
C60 C61 1.446 . S
C60 C90 1.391 . S
C61 C60 1.446 . S
C61 C62 1.339 . S
C61 H96 0.949 1_556 S
C62 C61 1.339 . S
C62 C63 1.439 . S
C62 H97 0.950 . S
C63 N59 1.383 . S
C63 C62 1.439 . S
C63 C92 1.392 . S
N64 Co58 2.008 . S
N64 C65 1.376 . S
N64 C68 1.374 . S
C65 N64 1.376 . S
C65 C66 1.443 . S
C65 C92 1.389 . S
C66 C65 1.443 . S
C66 C67 1.340 . S
C66 H98 0.951 . S
C67 C66 1.340 . S
C67 C68 1.439 . S
C67 H99 0.950 . S
C68 N64 1.374 . S
C68 C67 1.439 . S
C68 C93 1.395 . S
N69 Co58 1.995 . S
N69 C70 1.376 . S
N69 C73 1.383 . S
C70 N69 1.376 . S
C70 C71 1.446 . S
C70 C93 1.391 . S
C71 C70 1.446 . S
C71 C72 1.339 . S
C71 H100 0.949 . S
C72 C71 1.339 . S
C72 C73 1.439 . S
C72 H101 0.950 . S
C73 N69 1.383 . S
C73 C72 1.439 . S
C73 C91 1.392 . S
N74 Co58 2.282 . S
N74 C77 1.332 . S
N74 C79 1.332 . S
C75 C76 1.386 . S
C75 C78 1.388 . S
C76 C75 1.386 . S
C76 C77 1.382 . S
C76 H102 0.950 . S
C77 N74 1.332 . S
C77 C76 1.382 . S
C77 H88 0.952 . S
C78 C75 1.388 . S
C78 C79 1.382 . S
C78 H103 0.950 1_556 S
C79 N74 1.332 . S
C79 C78 1.382 . S
C79 H89 0.948 . S
N80 Co58 2.282 . S
N80 C84 1.332 . S
N80 C85 1.332 . S
C81 C82 1.388 . S
C81 C85 1.382 . S
C81 H104 0.950 . S
C82 C81 1.388 . S
C82 C83 1.386 . S
C83 C82 1.386 . S
C83 C84 1.382 . S
C83 H105 0.950 . S
C84 N80 1.332 . S
C84 C83 1.382 . S
C84 H86 0.952 . S
C85 N80 1.332 . S
C85 C81 1.382 . S
C85 H87 0.948 . S
H86 C84 0.952 . S
H87 C85 0.948 . S
H88 C77 0.952 . S
H89 C79 0.948 . S
C90 C56 1.395 . S
C90 C60 1.391 . S
C91 C53 1.389 . S
C91 C73 1.392 . S
C92 C63 1.392 . S
C92 C65 1.389 . S
C93 C68 1.395 . S
C93 C70 1.391 . S
H94 C54 0.951 . S
H95 C55 0.950 . S
H96 C61 0.949 1_554 S
H97 C62 0.950 . S
H98 C66 0.951 . S
H99 C67 0.950 . S
H100 C71 0.949 . S
H101 C72 0.950 . S
H102 C76 0.950 . S
H103 C78 0.950 1_554 S
H104 C81 0.950 . S
H105 C83 0.950 . S
C106 C107 1.443 . S
C106 N110 1.376 . S
C106 C144 1.389 . S
C107 C106 1.443 . S
C107 C108 1.340 . S
C107 H147 0.951 . S
C108 C107 1.340 . S
C108 C109 1.439 . S
C108 H148 0.950 . S
C109 C108 1.439 . S
C109 N110 1.374 . S
C109 C143 1.395 . S
N110 C106 1.376 . S
N110 C109 1.374 . S
N110 Co111 2.008 . S
Co111 N110 2.008 . S
Co111 N112 1.995 . S
Co111 N117 2.008 . S
Co111 N122 1.995 . S
Co111 N127 2.282 . S
Co111 N133 2.282 . S
N112 Co111 1.995 . S
N112 C113 1.376 . S
N112 C116 1.383 . S
C113 N112 1.376 . S
C113 C114 1.446 . S
C113 C143 1.391 . S
C114 C113 1.446 . S
C114 C115 1.339 . S
C114 H149 0.949 . S
C115 C114 1.339 . S
C115 C116 1.439 . S
C115 H150 0.950 . S
C116 N112 1.383 . S
C116 C115 1.439 . S
C116 C145 1.392 . S
N117 Co111 2.008 . S
N117 C118 1.376 . S
N117 C121 1.374 . S
C118 N117 1.376 . S
C118 C119 1.443 . S
C118 C145 1.389 . S
C119 C118 1.443 . S
C119 C120 1.340 . S
C119 H151 0.951 . S
C120 C119 1.340 . S
C120 C121 1.439 . S
C120 H152 0.950 1_554 S
C121 N117 1.374 . S
C121 C120 1.439 . S
C121 C146 1.395 . S
N122 Co111 1.995 . S
N122 C123 1.376 . S
N122 C126 1.383 . S
C123 N122 1.376 . S
C123 C124 1.446 . S
C123 C146 1.391 . S
C124 C123 1.446 . S
C124 C125 1.339 . S
C124 H153 0.949 . S
C125 C124 1.339 . S
C125 C126 1.439 . S
C125 H154 0.950 . S
C126 N122 1.383 . S
C126 C125 1.439 . S
C126 C144 1.392 . S
N127 Co111 2.282 . S
N127 C130 1.332 . S
N127 C132 1.332 . S
C128 C129 1.386 . S
C128 C131 1.388 . S
C129 C128 1.386 . S
C129 C130 1.382 . S
C129 H155 0.950 1_554 S
C130 N127 1.332 . S
C130 C129 1.382 . S
C130 H141 0.952 . S
C131 C128 1.388 . S
C131 C132 1.382 . S
C131 H156 0.950 . S
C132 N127 1.332 . S
C132 C131 1.382 . S
C132 H142 0.948 . S
N133 Co111 2.282 . S
N133 C137 1.332 . S
N133 C138 1.332 . S
C134 C135 1.388 . S
C134 C138 1.382 . S
C134 H157 0.950 . S
C135 C134 1.388 . S
C135 C136 1.386 . S
C136 C135 1.386 . S
C136 C137 1.382 . S
C136 H158 0.950 . S
C137 N133 1.332 . S
C137 C136 1.382 . S
C137 H139 0.952 . S
C138 N133 1.332 . S
C138 C134 1.382 . S
C138 H140 0.948 . S
H139 C137 0.952 . S
H140 C138 0.948 . S
H141 C130 0.952 . S
H142 C132 0.948 . S
C143 C109 1.395 . S
C143 C113 1.391 . S
C144 C106 1.389 . S
C144 C126 1.392 . S
C145 C116 1.392 . S
C145 C118 1.389 . S
C146 C121 1.395 . S
C146 C123 1.391 . S
H147 C107 0.951 . S
H148 C108 0.950 . S
H149 C114 0.949 . S
H150 C115 0.950 . S
H151 C119 0.951 . S
H152 C120 0.950 1_556 S
H153 C124 0.949 . S
H154 C125 0.950 . S
H155 C129 0.950 1_556 S
H156 C131 0.950 . S
H157 C134 0.950 . S
H158 C136 0.950 . S
C159 C160 1.443 . S
C159 N163 1.376 . S
C159 C197 1.389 . S
C160 C159 1.443 . S
C160 C161 1.340 . S
C160 H200 0.951 . S
C161 C160 1.340 . S
C161 C162 1.439 . S
C161 H201 0.950 . S
C162 C161 1.439 . S
C162 N163 1.374 . S
C162 C196 1.395 . S
N163 C159 1.376 . S
N163 C162 1.374 . S
N163 Co164 2.008 . S
Co164 N163 2.008 . S
Co164 N165 1.995 . S
Co164 N170 2.008 . S
Co164 N175 1.995 . S
Co164 N180 2.282 . S
Co164 N186 2.282 . S
N165 Co164 1.995 . S
N165 C166 1.376 . S
N165 C169 1.383 . S
C166 N165 1.376 . S
C166 C167 1.446 . S
C166 C196 1.391 . S
C167 C166 1.446 . S
C167 C168 1.339 . S
C167 H202 0.949 1_556 S
C168 C167 1.339 . S
C168 C169 1.439 . S
C168 H203 0.950 . S
C169 N165 1.383 . S
C169 C168 1.439 . S
C169 C198 1.392 . S
N170 Co164 2.008 . S
N170 C171 1.376 . S
N170 C174 1.374 . S
C171 N170 1.376 . S
C171 C172 1.443 . S
C171 C198 1.389 . S
C172 C171 1.443 . S
C172 C173 1.340 . S
C172 H204 0.951 . S
C173 C172 1.340 . S
C173 C174 1.439 . S
C173 H205 0.950 . S
C174 N170 1.374 . S
C174 C173 1.439 . S
C174 C199 1.395 . S
N175 Co164 1.995 . S
N175 C176 1.376 . S
N175 C179 1.383 . S
C176 N175 1.376 . S
C176 C177 1.446 . S
C176 C199 1.391 . S
C177 C176 1.446 . S
C177 C178 1.339 . S
C177 H206 0.949 . S
C178 C177 1.339 . S
C178 C179 1.439 . S
C178 H207 0.950 . S
C179 N175 1.383 . S
C179 C178 1.439 . S
C179 C197 1.392 . S
N180 Co164 2.282 . S
N180 C183 1.332 . S
N180 C185 1.332 . S
C181 C182 1.386 . S
C181 C184 1.388 . S
C182 C181 1.386 . S
C182 C183 1.382 . S
C182 H208 0.950 . S
C183 N180 1.332 . S
C183 C182 1.382 . S
C183 H194 0.952 . S
C184 C181 1.388 . S
C184 C185 1.382 . S
C184 H209 0.950 1_556 S
C185 N180 1.332 . S
C185 C184 1.382 . S
C185 H195 0.948 . S
N186 Co164 2.282 . S
N186 C190 1.332 . S
N186 C191 1.332 . S
C187 C188 1.388 . S
C187 C191 1.382 . S
C187 H210 0.950 . S
C188 C187 1.388 . S
C188 C189 1.386 . S
C189 C188 1.386 . S
C189 C190 1.382 . S
C189 H211 0.950 . S
C190 N186 1.332 . S
C190 C189 1.382 . S
C190 H192 0.952 . S
C191 N186 1.332 . S
C191 C187 1.382 . S
C191 H193 0.948 . S
H192 C190 0.952 . S
H193 C191 0.948 . S
H194 C183 0.952 . S
H195 C185 0.948 . S
C196 C162 1.395 . S
C196 C166 1.391 . S
C197 C159 1.389 . S
C197 C179 1.392 . S
C198 C169 1.392 . S
C198 C171 1.389 . S
C199 C174 1.395 . S
C199 C176 1.391 . S
H200 C160 0.951 . S
H201 C161 0.950 . S
H202 C167 0.949 1_554 S
H203 C168 0.950 . S
H204 C172 0.951 . S
H205 C173 0.950 . S
H206 C177 0.949 . S
H207 C178 0.950 . S
H208 C182 0.950 . S
H209 C184 0.950 1_554 S
H210 C187 0.950 . S
H211 C189 0.950 . S
C212 C213 1.443 1_554 S
C212 N216 1.376 . S
C212 C250 1.389 . S
C213 C212 1.443 1_556 S
C213 C214 1.340 . S
C213 H253 0.951 . S
C214 C213 1.340 . S
C214 C215 1.439 1_556 S
C214 H254 0.950 . S
C215 C214 1.439 1_554 S
C215 N216 1.374 . S
C215 C249 1.395 1_554 S
N216 C212 1.376 . S
N216 C215 1.374 . S
N216 Co217 2.008 . S
Co217 N216 2.008 . S
Co217 N218 1.995 . S
Co217 N223 2.008 . S
Co217 N228 1.995 . S
Co217 N233 2.282 . S
Co217 N239 2.282 . S
N218 Co217 1.995 . S
N218 C219 1.376 . S
N218 C222 1.383 . S
C219 N218 1.376 . S
C219 C220 1.446 . S
C219 C249 1.391 1_554 S
C220 C219 1.446 . S
C220 C221 1.339 . S
C220 H255 0.949 1_554 S
C221 C220 1.339 . S
C221 C222 1.439 . S
C221 H256 0.950 . S
C222 N218 1.383 . S
C222 C221 1.439 . S
C222 C251 1.392 . S
N223 Co217 2.008 . S
N223 C224 1.376 . S
N223 C227 1.374 . S
C224 N223 1.376 . S
C224 C225 1.443 . S
C224 C251 1.389 . S
C225 C224 1.443 . S
C225 C226 1.340 . S
C225 H257 0.951 . S
C226 C225 1.340 . S
C226 C227 1.439 . S
C226 H258 0.950 . S
C227 N223 1.374 . S
C227 C226 1.439 . S
C227 C252 1.395 . S
N228 Co217 1.995 . S
N228 C229 1.376 . S
N228 C232 1.383 . S
C229 N228 1.376 . S
C229 C230 1.446 . S
C229 C252 1.391 . S
C230 C229 1.446 . S
C230 C231 1.339 . S
C230 H259 0.949 . S
C231 C230 1.339 . S
C231 C232 1.439 . S
C231 H260 0.950 . S
C232 N228 1.383 . S
C232 C231 1.439 . S
C232 C250 1.392 . S
N233 Co217 2.282 . S
N233 C236 1.332 . S
N233 C238 1.332 . S
C234 C235 1.386 . S
C234 C237 1.388 . S
C235 C234 1.386 . S
C235 C236 1.382 . S
C235 H261 0.950 . S
C236 N233 1.332 . S
C236 C235 1.382 . S
C236 H247 0.952 . S
C237 C234 1.388 . S
C237 C238 1.382 . S
C237 H262 0.950 . S
C238 N233 1.332 . S
C238 C237 1.382 . S
C238 H248 0.948 . S
N239 Co217 2.282 . S
N239 C243 1.332 . S
N239 C244 1.332 . S
C240 C241 1.388 . S
C240 C244 1.382 . S
C240 H263 0.950 . S
C241 C240 1.388 . S
C241 C242 1.386 1_554 S
C242 C241 1.386 1_556 S
C242 C243 1.382 1_556 S
C242 H264 0.950 . S
C243 N239 1.332 . S
C243 C242 1.382 1_554 S
C243 H245 0.952 . S
C244 N239 1.332 . S
C244 C240 1.382 . S
C244 H246 0.948 . S
H245 C243 0.952 . S
H246 C244 0.948 . S
H247 C236 0.952 . S
H248 C238 0.948 . S
C249 C215 1.395 1_556 S
C249 C219 1.391 1_556 S
C250 C212 1.389 . S
C250 C232 1.392 . S
C251 C222 1.392 . S
C251 C224 1.389 . S
C252 C227 1.395 . S
C252 C229 1.391 . S
H253 C213 0.951 . S
H254 C214 0.950 . S
H255 C220 0.949 1_556 S
H256 C221 0.950 . S
H257 C225 0.951 . S
H258 C226 0.950 . S
H259 C230 0.949 . S
H260 C231 0.950 . S
H261 C235 0.950 . S
H262 C237 0.950 . S
H263 C240 0.950 . S
H264 C242 0.950 . S
C265 C266 1.443 . S
C265 N269 1.376 . S
C265 C303 1.389 . S
C266 C265 1.443 . S
C266 C267 1.340 . S
C266 H306 0.951 . S
C267 C266 1.340 . S
C267 C268 1.439 . S
C267 H307 0.950 . S
C268 C267 1.439 . S
C268 N269 1.374 . S
C268 C302 1.395 . S
N269 C265 1.376 . S
N269 C268 1.374 . S
N269 Co270 2.008 . S
Co270 N269 2.008 . S
Co270 N271 1.995 . S
Co270 N276 2.008 . S
Co270 N281 1.995 . S
Co270 N286 2.282 . S
Co270 N292 2.282 . S
N271 Co270 1.995 . S
N271 C272 1.376 . S
N271 C275 1.383 . S
C272 N271 1.376 . S
C272 C273 1.446 . S
C272 C302 1.391 . S
C273 C272 1.446 . S
C273 C274 1.339 . S
C273 H308 0.949 . S
C274 C273 1.339 . S
C274 C275 1.439 . S
C274 H309 0.950 . S
C275 N271 1.383 . S
C275 C274 1.439 . S
C275 C304 1.392 . S
N276 Co270 2.008 . S
N276 C277 1.376 . S
N276 C280 1.374 . S
C277 N276 1.376 . S
C277 C278 1.443 . S
C277 C304 1.389 . S
C278 C277 1.443 . S
C278 C279 1.340 . S
C278 H310 0.951 . S
C279 C278 1.340 . S
C279 C280 1.439 . S
C279 H311 0.935 1_556 S
C280 N276 1.374 . S
C280 C279 1.439 . S
C280 C305 1.395 . S
N281 Co270 1.995 . S
N281 C282 1.376 . S
N281 C285 1.383 . S
C282 N281 1.376 . S
C282 C283 1.446 1_556 S
C282 C305 1.391 . S
C283 C282 1.446 1_554 S
C283 C284 1.339 1_554 S
C283 H312 0.949 . S
C284 C283 1.339 1_556 S
C284 C285 1.439 . S
C284 H313 0.950 1_556 S
C285 N281 1.383 . S
C285 C284 1.439 . S
C285 C303 1.392 . S
N286 Co270 2.282 . S
N286 C289 1.332 . S
N286 C291 1.332 . S
C287 C288 1.386 . S
C287 C290 1.388 . S
C288 C287 1.386 . S
C288 C289 1.382 . S
C288 H314 0.950 . S
C289 N286 1.332 . S
C289 C288 1.382 . S
C289 H300 0.952 . S
C290 C287 1.388 . S
C290 C291 1.382 . S
C290 H315 0.950 . S
C291 N286 1.332 . S
C291 C290 1.382 . S
C291 H301 0.948 . S
N292 Co270 2.282 . S
N292 C296 1.332 . S
N292 C297 1.332 . S
C293 C294 1.388 1_554 S
C293 C297 1.382 1_554 S
C293 H316 0.950 . S
C294 C293 1.388 1_556 S
C294 C295 1.386 . S
C295 C294 1.386 . S
C295 C296 1.382 . S
C295 H317 0.950 . S
C296 N292 1.332 . S
C296 C295 1.382 . S
C296 H298 0.952 . S
C297 N292 1.332 . S
C297 C293 1.382 1_556 S
C297 H299 0.948 1_556 S
H298 C296 0.952 . S
H299 C297 0.948 1_554 S
H300 C289 0.952 . S
H301 C291 0.948 . S
C302 C268 1.395 . S
C302 C272 1.391 . S
C303 C265 1.389 . S
C303 C285 1.392 . S
C304 C275 1.392 . S
C304 C277 1.389 . S
C305 C280 1.395 . S
C305 C282 1.391 . S
H306 C266 0.951 . S
H307 C267 0.950 . S
H308 C273 0.949 . S
H309 C274 0.950 . S
H310 C278 0.951 . S
H311 C279 0.935 1_554 S
H312 C283 0.949 . S
H313 C284 0.950 1_554 S
H314 C288 0.950 . S
H315 C290 0.950 . S
H316 C293 0.950 . S
H317 C295 0.950 . S
C318 C319 1.443 1_554 S
C318 N322 1.376 . S
C318 C356 1.389 . S
C319 C318 1.443 1_556 S
C319 C320 1.340 . S
C319 H359 0.951 . S
C320 C319 1.340 . S
C320 C321 1.439 1_556 S
C320 H360 0.950 . S
C321 C320 1.439 1_554 S
C321 N322 1.374 . S
C321 C355 1.395 1_554 S
N322 C318 1.376 . S
N322 C321 1.374 . S
N322 Co323 2.008 . S
Co323 N322 2.008 . S
Co323 N324 1.995 . S
Co323 N329 2.008 . S
Co323 N334 1.995 . S
Co323 N339 2.282 . S
Co323 N345 2.282 . S
N324 Co323 1.995 . S
N324 C325 1.376 . S
N324 C328 1.383 . S
C325 N324 1.376 . S
C325 C326 1.446 . S
C325 C355 1.391 1_554 S
C326 C325 1.446 . S
C326 C327 1.339 . S
C326 H361 0.949 1_554 S
C327 C326 1.339 . S
C327 C328 1.439 . S
C327 H362 0.950 . S
C328 N324 1.383 . S
C328 C327 1.439 . S
C328 C357 1.392 . S
N329 Co323 2.008 . S
N329 C330 1.376 . S
N329 C333 1.374 . S
C330 N329 1.376 . S
C330 C331 1.443 . S
C330 C357 1.389 . S
C331 C330 1.443 . S
C331 C332 1.340 . S
C331 H363 0.951 . S
C332 C331 1.340 . S
C332 C333 1.439 . S
C332 H364 0.950 . S
C333 N329 1.374 . S
C333 C332 1.439 . S
C333 C358 1.395 . S
N334 Co323 1.995 . S
N334 C335 1.376 . S
N334 C338 1.383 . S
C335 N334 1.376 . S
C335 C336 1.446 . S
C335 C358 1.391 . S
C336 C335 1.446 . S
C336 C337 1.339 . S
C336 H365 0.949 . S
C337 C336 1.339 . S
C337 C338 1.439 . S
C337 H366 0.950 . S
C338 N334 1.383 . S
C338 C337 1.439 . S
C338 C356 1.392 . S
N339 Co323 2.282 . S
N339 C342 1.332 . S
N339 C344 1.332 . S
C340 C341 1.386 . S
C340 C343 1.388 . S
C341 C340 1.386 . S
C341 C342 1.382 . S
C341 H367 0.950 . S
C342 N339 1.332 . S
C342 C341 1.382 . S
C342 H353 0.952 . S
C343 C340 1.388 . S
C343 C344 1.382 . S
C343 H368 0.950 . S
C344 N339 1.332 . S
C344 C343 1.382 . S
C344 H354 0.948 . S
N345 Co323 2.282 . S
N345 C349 1.332 . S
N345 C350 1.332 . S
C346 C347 1.388 . S
C346 C350 1.382 . S
C346 H369 0.950 . S
C347 C346 1.388 . S
C347 C348 1.386 1_554 S
C348 C347 1.386 1_556 S
C348 C349 1.382 1_556 S
C348 H370 0.950 . S
C349 N345 1.332 . S
C349 C348 1.382 1_554 S
C349 H351 0.952 . S
C350 N345 1.332 . S
C350 C346 1.382 . S
C350 H352 0.948 . S
H351 C349 0.952 . S
H352 C350 0.948 . S
H353 C342 0.952 . S
H354 C344 0.948 . S
C355 C321 1.395 1_556 S
C355 C325 1.391 1_556 S
C356 C318 1.389 . S
C356 C338 1.392 . S
C357 C328 1.392 . S
C357 C330 1.389 . S
C358 C333 1.395 . S
C358 C335 1.391 . S
H359 C319 0.951 . S
H360 C320 0.950 . S
H361 C326 0.949 1_556 S
H362 C327 0.950 . S
H363 C331 0.951 . S
H364 C332 0.950 . S
H365 C336 0.949 . S
H366 C337 0.950 . S
H367 C341 0.950 . S
H368 C343 0.950 . S
H369 C346 0.950 . S
H370 C348 0.950 . S
C371 C372 1.443 . S
C371 N375 1.376 . S
C371 C409 1.389 . S
C372 C371 1.443 . S
C372 C373 1.340 . S
C372 H412 0.951 . S
C373 C372 1.340 . S
C373 C374 1.439 . S
C373 H413 0.950 . S
C374 C373 1.439 . S
C374 N375 1.374 . S
C374 C408 1.395 . S
N375 C371 1.376 . S
N375 C374 1.374 . S
N375 Co376 2.008 . S
Co376 N375 2.008 . S
Co376 N377 1.995 . S
Co376 N382 2.008 . S
Co376 N387 1.995 . S
Co376 N392 2.282 . S
Co376 N398 2.282 . S
N377 Co376 1.995 . S
N377 C378 1.376 . S
N377 C381 1.383 . S
C378 N377 1.376 . S
C378 C379 1.446 . S
C378 C408 1.391 . S
C379 C378 1.446 . S
C379 C380 1.339 . S
C379 H414 0.949 . S
C380 C379 1.339 . S
C380 C381 1.439 . S
C380 H415 0.950 . S
C381 N377 1.383 . S
C381 C380 1.439 . S
C381 C410 1.392 . S
N382 Co376 2.008 . S
N382 C383 1.376 . S
N382 C386 1.374 . S
C383 N382 1.376 . S
C383 C384 1.443 . S
C383 C410 1.389 . S
C384 C383 1.443 . S
C384 C385 1.340 . S
C384 H416 0.951 . S
C385 C384 1.340 . S
C385 C386 1.439 . S
C385 H417 0.935 1_556 S
C386 N382 1.374 . S
C386 C385 1.439 . S
C386 C411 1.395 . S
N387 Co376 1.995 . S
N387 C388 1.376 . S
N387 C391 1.383 . S
C388 N387 1.376 . S
C388 C389 1.446 1_556 S
C388 C411 1.391 . S
C389 C388 1.446 1_554 S
C389 C390 1.339 1_554 S
C389 H418 0.949 . S
C390 C389 1.339 1_556 S
C390 C391 1.439 . S
C390 H419 0.950 1_556 S
C391 N387 1.383 . S
C391 C390 1.439 . S
C391 C409 1.392 . S
N392 Co376 2.282 . S
N392 C395 1.332 . S
N392 C397 1.332 . S
C393 C394 1.386 . S
C393 C396 1.388 . S
C394 C393 1.386 . S
C394 C395 1.382 . S
C394 H420 0.950 . S
C395 N392 1.332 . S
C395 C394 1.382 . S
C395 H406 0.952 . S
C396 C393 1.388 . S
C396 C397 1.382 . S
C396 H421 0.950 . S
C397 N392 1.332 . S
C397 C396 1.382 . S
C397 H407 0.948 . S
N398 Co376 2.282 . S
N398 C402 1.332 . S
N398 C403 1.332 . S
C399 C400 1.388 1_554 S
C399 C403 1.382 1_554 S
C399 H422 0.950 . S
C400 C399 1.388 1_556 S
C400 C401 1.386 . S
C401 C400 1.386 . S
C401 C402 1.382 . S
C401 H423 0.950 . S
C402 N398 1.332 . S
C402 C401 1.382 . S
C402 H404 0.952 . S
C403 N398 1.332 . S
C403 C399 1.382 1_556 S
C403 H405 0.948 1_556 S
H404 C402 0.952 . S
H405 C403 0.948 1_554 S
H406 C395 0.952 . S
H407 C397 0.948 . S
C408 C374 1.395 . S
C408 C378 1.391 . S
C409 C371 1.389 . S
C409 C391 1.392 . S
C410 C381 1.392 . S
C410 C383 1.389 . S
C411 C386 1.395 . S
C411 C388 1.391 . S
H412 C372 0.951 . S
H413 C373 0.950 . S
H414 C379 0.949 . S
H415 C380 0.950 . S
H416 C384 0.951 . S
H417 C385 0.935 1_554 S
H418 C389 0.949 . S
H419 C390 0.950 1_554 S
H420 C394 0.950 . S
H421 C396 0.950 . S
H422 C399 0.950 . S
H423 C401 0.950 . S
C424 C425 1.443 . S
C424 N428 1.376 . S
C424 C462 1.389 . S
C425 C424 1.443 . S
C425 C426 1.340 . S
C425 H465 0.951 . S
C426 C425 1.340 . S
C426 C427 1.439 . S
C426 H466 0.950 . S
C427 C426 1.439 . S
C427 N428 1.374 . S
C427 C461 1.395 . S
N428 C424 1.376 . S
N428 C427 1.374 . S
N428 Co429 2.008 . S
Co429 N428 2.008 . S
Co429 N430 1.995 . S
Co429 N435 2.008 . S
Co429 N440 1.995 . S
Co429 N445 2.282 . S
Co429 N451 2.282 . S
N430 Co429 1.995 . S
N430 C431 1.376 . S
N430 C434 1.383 . S
C431 N430 1.376 . S
C431 C432 1.446 . S
C431 C461 1.391 . S
C432 C431 1.446 . S
C432 C433 1.339 . S
C432 H467 0.949 . S
C433 C432 1.339 . S
C433 C434 1.439 . S
C433 H468 0.950 . S
C434 N430 1.383 . S
C434 C433 1.439 . S
C434 C463 1.392 . S
N435 Co429 2.008 . S
N435 C436 1.376 . S
N435 C439 1.374 . S
C436 N435 1.376 . S
C436 C437 1.443 . S
C436 C463 1.389 . S
C437 C436 1.443 . S
C437 C438 1.340 . S
C437 H469 0.951 . S
C438 C437 1.340 . S
C438 C439 1.439 . S
C438 H470 0.950 . S
C439 N435 1.374 . S
C439 C438 1.439 . S
C439 C464 1.395 . S
N440 Co429 1.995 . S
N440 C441 1.376 . S
N440 C444 1.383 . S
C441 N440 1.376 . S
C441 C442 1.446 . S
C441 C464 1.391 . S
C442 C441 1.446 . S
C442 C443 1.339 . S
C442 H471 0.949 . S
C443 C442 1.339 . S
C443 C444 1.439 . S
C443 H472 0.950 . S
C444 N440 1.383 . S
C444 C443 1.439 . S
C444 C462 1.392 . S
N445 Co429 2.282 . S
N445 C448 1.332 . S
N445 C450 1.332 . S
C446 C447 1.386 . S
C446 C449 1.388 . S
C447 C446 1.386 . S
C447 C448 1.382 . S
C447 H473 0.950 . S
C448 N445 1.332 . S
C448 C447 1.382 . S
C448 H459 0.952 . S
C449 C446 1.388 . S
C449 C450 1.382 . S
C449 H474 0.950 . S
C450 N445 1.332 . S
C450 C449 1.382 . S
C450 H460 0.948 . S
N451 Co429 2.282 . S
N451 C455 1.332 . S
N451 C456 1.332 . S
C452 C453 1.388 . S
C452 C456 1.382 . S
C452 H475 0.950 . S
C453 C452 1.388 . S
C453 C454 1.386 . S
C454 C453 1.386 . S
C454 C455 1.382 . S
C454 H476 0.950 . S
C455 N451 1.332 . S
C455 C454 1.382 . S
C455 H457 0.952 . S
C456 N451 1.332 . S
C456 C452 1.382 . S
C456 H458 0.948 . S
H457 C455 0.952 . S
H458 C456 0.948 . S
H459 C448 0.952 . S
H460 C450 0.948 . S
C461 C427 1.395 . S
C461 C431 1.391 . S
C462 C424 1.389 . S
C462 C444 1.392 . S
C463 C434 1.392 . S
C463 C436 1.389 . S
C464 C439 1.395 . S
C464 C441 1.391 . S
H465 C425 0.951 . S
H466 C426 0.950 . S
H467 C432 0.949 . S
H468 C433 0.950 . S
H469 C437 0.951 . S
H470 C438 0.950 . S
H471 C442 0.949 . S
H472 C443 0.950 . S
H473 C447 0.950 . S
H474 C449 0.950 . S
H475 C452 0.950 . S
H476 C454 0.950 . S
C477 C478 1.443 . S
C477 N481 1.376 . S
C477 C515 1.389 . S
C478 C477 1.443 . S
C478 C479 1.340 . S
C478 H518 0.951 . S
C479 C478 1.340 . S
C479 C480 1.439 . S
C479 H519 0.950 . S
C480 C479 1.439 . S
C480 N481 1.374 . S
C480 C514 1.395 . S
N481 C477 1.376 . S
N481 C480 1.374 . S
N481 Co482 2.008 . S
Co482 N481 2.008 . S
Co482 N483 1.995 . S
Co482 N488 2.008 . S
Co482 N493 1.995 . S
Co482 N498 2.282 . S
Co482 N504 2.282 . S
N483 Co482 1.995 . S
N483 C484 1.376 . S
N483 C487 1.383 . S
C484 N483 1.376 . S
C484 C485 1.446 . S
C484 C514 1.391 . S
C485 C484 1.446 . S
C485 C486 1.339 . S
C485 H520 0.949 . S
C486 C485 1.339 . S
C486 C487 1.439 . S
C486 H521 0.950 . S
C487 N483 1.383 . S
C487 C486 1.439 . S
C487 C516 1.392 . S
N488 Co482 2.008 . S
N488 C489 1.376 . S
N488 C492 1.374 . S
C489 N488 1.376 . S
C489 C490 1.443 . S
C489 C516 1.389 . S
C490 C489 1.443 . S
C490 C491 1.340 . S
C490 H522 0.951 . S
C491 C490 1.340 . S
C491 C492 1.439 . S
C491 H523 0.950 . S
C492 N488 1.374 . S
C492 C491 1.439 . S
C492 C517 1.395 . S
N493 Co482 1.995 . S
N493 C494 1.376 . S
N493 C497 1.383 . S
C494 N493 1.376 . S
C494 C495 1.446 . S
C494 C517 1.391 . S
C495 C494 1.446 . S
C495 C496 1.339 . S
C495 H524 0.949 . S
C496 C495 1.339 . S
C496 C497 1.439 . S
C496 H525 0.950 . S
C497 N493 1.383 . S
C497 C496 1.439 . S
C497 C515 1.392 . S
N498 Co482 2.282 . S
N498 C501 1.332 . S
N498 C503 1.332 . S
C499 C500 1.386 . S
C499 C502 1.388 . S
C500 C499 1.386 . S
C500 C501 1.382 . S
C500 H526 0.950 . S
C501 N498 1.332 . S
C501 C500 1.382 . S
C501 H512 0.952 . S
C502 C499 1.388 . S
C502 C503 1.382 . S
C502 H527 0.950 . S
C503 N498 1.332 . S
C503 C502 1.382 . S
C503 H513 0.948 . S
N504 Co482 2.282 . S
N504 C508 1.332 . S
N504 C509 1.332 . S
C505 C506 1.388 . S
C505 C509 1.382 . S
C505 H528 0.950 . S
C506 C505 1.388 . S
C506 C507 1.386 . S
C507 C506 1.386 . S
C507 C508 1.382 . S
C507 H529 0.950 . S
C508 N504 1.332 . S
C508 C507 1.382 . S
C508 H510 0.952 . S
C509 N504 1.332 . S
C509 C505 1.382 . S
C509 H511 0.948 . S
H510 C508 0.952 . S
H511 C509 0.948 . S
H512 C501 0.952 . S
H513 C503 0.948 . S
C514 C480 1.395 . S
C514 C484 1.391 . S
C515 C477 1.389 . S
C515 C497 1.392 . S
C516 C487 1.392 . S
C516 C489 1.389 . S
C517 C492 1.395 . S
C517 C494 1.391 . S
H518 C478 0.951 . S
H519 C479 0.950 . S
H520 C485 0.949 . S
H521 C486 0.950 . S
H522 C490 0.951 . S
H523 C491 0.950 . S
H524 C495 0.949 . S
H525 C496 0.950 . S
H526 C500 0.950 . S
H527 C502 0.950 . S
H528 C505 0.950 . S
H529 C507 0.950 . S
C530 C531 1.443 . S
C530 N534 1.376 . S
C530 C568 1.389 . S
C531 C530 1.443 . S
C531 C532 1.340 . S
C531 H571 0.951 . S
C532 C531 1.340 . S
C532 C533 1.439 . S
C532 H572 0.950 . S
C533 C532 1.439 . S
C533 N534 1.374 . S
C533 C567 1.395 . S
N534 C530 1.376 . S
N534 C533 1.374 . S
N534 Co535 2.008 . S
Co535 N534 2.008 . S
Co535 N536 1.995 . S
Co535 N541 2.008 . S
Co535 N546 1.995 . S
Co535 N551 2.282 . S
Co535 N557 2.282 . S
N536 Co535 1.995 . S
N536 C537 1.376 . S
N536 C540 1.383 . S
C537 N536 1.376 . S
C537 C538 1.446 . S
C537 C567 1.391 . S
C538 C537 1.446 . S
C538 C539 1.339 . S
C538 H573 0.949 . S
C539 C538 1.339 . S
C539 C540 1.439 . S
C539 H574 0.950 . S
C540 N536 1.383 . S
C540 C539 1.439 . S
C540 C569 1.392 . S
N541 Co535 2.008 . S
N541 C542 1.376 . S
N541 C545 1.374 . S
C542 N541 1.376 . S
C542 C543 1.443 . S
C542 C569 1.389 . S
C543 C542 1.443 . S
C543 C544 1.340 . S
C543 H575 0.951 . S
C544 C543 1.340 . S
C544 C545 1.439 . S
C544 H576 0.950 . S
C545 N541 1.374 . S
C545 C544 1.439 . S
C545 C570 1.395 . S
N546 Co535 1.995 . S
N546 C547 1.376 . S
N546 C550 1.383 . S
C547 N546 1.376 . S
C547 C548 1.446 . S
C547 C570 1.391 . S
C548 C547 1.446 . S
C548 C549 1.339 . S
C548 H577 0.949 . S
C549 C548 1.339 . S
C549 C550 1.439 . S
C549 H578 0.950 . S
C550 N546 1.383 . S
C550 C549 1.439 . S
C550 C568 1.392 . S
N551 Co535 2.282 . S
N551 C554 1.332 . S
N551 C556 1.332 . S
C552 C553 1.386 . S
C552 C555 1.388 . S
C553 C552 1.386 . S
C553 C554 1.382 . S
C553 H579 0.950 . S
C554 N551 1.332 . S
C554 C553 1.382 . S
C554 H565 0.952 . S
C555 C552 1.388 . S
C555 C556 1.382 . S
C555 H580 0.950 . S
C556 N551 1.332 . S
C556 C555 1.382 . S
C556 H566 0.948 . S
N557 Co535 2.282 . S
N557 C561 1.332 . S
N557 C562 1.332 . S
C558 C559 1.388 . S
C558 C562 1.382 . S
C558 H581 0.950 . S
C559 C558 1.388 . S
C559 C560 1.386 . S
C560 C559 1.386 . S
C560 C561 1.382 . S
C560 H582 0.950 . S
C561 N557 1.332 . S
C561 C560 1.382 . S
C561 H563 0.952 . S
C562 N557 1.332 . S
C562 C558 1.382 . S
C562 H564 0.948 . S
H563 C561 0.952 . S
H564 C562 0.948 . S
H565 C554 0.952 . S
H566 C556 0.948 . S
C567 C533 1.395 . S
C567 C537 1.391 . S
C568 C530 1.389 . S
C568 C550 1.392 . S
C569 C540 1.392 . S
C569 C542 1.389 . S
C570 C545 1.395 . S
C570 C547 1.391 . S
H571 C531 0.951 . S
H572 C532 0.950 . S
H573 C538 0.949 . S
H574 C539 0.950 . S
H575 C543 0.951 . S
H576 C544 0.950 . S
H577 C548 0.949 . S
H578 C549 0.950 . S
H579 C553 0.950 . S
H580 C555 0.950 . S
H581 C558 0.950 . S
H582 C560 0.950 . S
C583 C584 1.443 . S
C583 N587 1.376 . S
C583 C621 1.389 . S
C584 C583 1.443 . S
C584 C585 1.340 . S
C584 H624 0.951 . S
C585 C584 1.340 . S
C585 C586 1.439 . S
C585 H625 0.950 . S
C586 C585 1.439 . S
C586 N587 1.374 . S
C586 C620 1.395 . S
N587 C583 1.376 . S
N587 C586 1.374 . S
N587 Co588 2.008 . S
Co588 N587 2.008 . S
Co588 N589 1.995 . S
Co588 N594 2.008 . S
Co588 N599 1.995 . S
Co588 N604 2.282 . S
Co588 N610 2.282 . S
N589 Co588 1.995 . S
N589 C590 1.376 . S
N589 C593 1.383 . S
C590 N589 1.376 . S
C590 C591 1.446 . S
C590 C620 1.391 . S
C591 C590 1.446 . S
C591 C592 1.339 . S
C591 H626 0.949 . S
C592 C591 1.339 . S
C592 C593 1.439 . S
C592 H627 0.950 . S
C593 N589 1.383 . S
C593 C592 1.439 . S
C593 C622 1.392 . S
N594 Co588 2.008 . S
N594 C595 1.376 . S
N594 C598 1.374 . S
C595 N594 1.376 . S
C595 C596 1.443 . S
C595 C622 1.389 . S
C596 C595 1.443 . S
C596 C597 1.340 . S
C596 H628 0.951 . S
C597 C596 1.340 . S
C597 C598 1.439 . S
C597 H629 0.950 . S
C598 N594 1.374 . S
C598 C597 1.439 . S
C598 C623 1.395 . S
N599 Co588 1.995 . S
N599 C600 1.376 . S
N599 C603 1.383 . S
C600 N599 1.376 . S
C600 C601 1.446 . S
C600 C623 1.391 . S
C601 C600 1.446 . S
C601 C602 1.339 . S
C601 H630 0.949 . S
C602 C601 1.339 . S
C602 C603 1.439 . S
C602 H631 0.950 . S
C603 N599 1.383 . S
C603 C602 1.439 . S
C603 C621 1.392 . S
N604 Co588 2.282 . S
N604 C607 1.332 . S
N604 C609 1.332 . S
C605 C606 1.386 . S
C605 C608 1.388 . S
C606 C605 1.386 . S
C606 C607 1.382 . S
C606 H632 0.950 . S
C607 N604 1.332 . S
C607 C606 1.382 . S
C607 H618 0.952 . S
C608 C605 1.388 . S
C608 C609 1.382 . S
C608 H633 0.950 . S
C609 N604 1.332 . S
C609 C608 1.382 . S
C609 H619 0.948 . S
N610 Co588 2.282 . S
N610 C614 1.332 . S
N610 C615 1.332 . S
C611 C612 1.388 . S
C611 C615 1.382 . S
C611 H634 0.950 . S
C612 C611 1.388 . S
C612 C613 1.386 . S
C613 C612 1.386 . S
C613 C614 1.382 . S
C613 H635 0.950 . S
C614 N610 1.332 . S
C614 C613 1.382 . S
C614 H616 0.952 . S
C615 N610 1.332 . S
C615 C611 1.382 . S
C615 H617 0.948 . S
H616 C614 0.952 . S
H617 C615 0.948 . S
H618 C607 0.952 . S
H619 C609 0.948 . S
C620 C586 1.395 . S
C620 C590 1.391 . S
C621 C583 1.389 . S
C621 C603 1.392 . S
C622 C593 1.392 . S
C622 C595 1.389 . S
C623 C598 1.395 . S
C623 C600 1.391 . S
H624 C584 0.951 . S
H625 C585 0.950 . S
H626 C591 0.949 . S
H627 C592 0.950 . S
H628 C596 0.951 . S
H629 C597 0.950 . S
H630 C601 0.949 . S
H631 C602 0.950 . S
H632 C606 0.950 . S
H633 C608 0.950 . S
H634 C611 0.950 . S
H635 C613 0.950 . S
C636 C637 1.443 . S
C636 N640 1.376 . S
C636 C674 1.389 . S
C637 C636 1.443 . S
C637 C638 1.340 . S
C637 H677 0.951 . S
C638 C637 1.340 . S
C638 C639 1.439 . S
C638 H678 0.950 . S
C639 C638 1.439 . S
C639 N640 1.374 . S
C639 C673 1.395 . S
N640 C636 1.376 . S
N640 C639 1.374 . S
N640 Co641 2.008 . S
Co641 N640 2.008 . S
Co641 N642 1.995 . S
Co641 N647 2.008 . S
Co641 N652 1.995 . S
Co641 N657 2.282 . S
Co641 N663 2.282 . S
N642 Co641 1.995 . S
N642 C643 1.376 . S
N642 C646 1.383 . S
C643 N642 1.376 . S
C643 C644 1.446 . S
C643 C673 1.391 . S
C644 C643 1.446 . S
C644 C645 1.339 . S
C644 H679 0.949 . S
C645 C644 1.339 . S
C645 C646 1.439 . S
C645 H680 0.950 . S
C646 N642 1.383 . S
C646 C645 1.439 . S
C646 C675 1.392 . S
N647 Co641 2.008 . S
N647 C648 1.376 . S
N647 C651 1.374 . S
C648 N647 1.376 . S
C648 C649 1.443 . S
C648 C675 1.389 . S
C649 C648 1.443 . S
C649 C650 1.340 . S
C649 H681 0.951 . S
C650 C649 1.340 . S
C650 C651 1.439 . S
C650 H682 0.950 . S
C651 N647 1.374 . S
C651 C650 1.439 . S
C651 C676 1.395 . S
N652 Co641 1.995 . S
N652 C653 1.376 . S
N652 C656 1.383 . S
C653 N652 1.376 . S
C653 C654 1.446 . S
C653 C676 1.391 . S
C654 C653 1.446 . S
C654 C655 1.339 . S
C654 H683 0.949 . S
C655 C654 1.339 . S
C655 C656 1.439 . S
C655 H684 0.950 . S
C656 N652 1.383 . S
C656 C655 1.439 . S
C656 C674 1.392 . S
N657 Co641 2.282 . S
N657 C660 1.332 . S
N657 C662 1.332 . S
C658 C659 1.386 . S
C658 C661 1.388 . S
C659 C658 1.386 . S
C659 C660 1.382 . S
C659 H685 0.950 . S
C660 N657 1.332 . S
C660 C659 1.382 . S
C660 H671 0.952 . S
C661 C658 1.388 . S
C661 C662 1.382 . S
C661 H686 0.950 . S
C662 N657 1.332 . S
C662 C661 1.382 . S
C662 H672 0.948 . S
N663 Co641 2.282 . S
N663 C667 1.332 . S
N663 C668 1.332 . S
C664 C665 1.388 . S
C664 C668 1.382 . S
C664 H687 0.950 . S
C665 C664 1.388 . S
C665 C666 1.386 . S
C666 C665 1.386 . S
C666 C667 1.382 . S
C666 H688 0.950 . S
C667 N663 1.332 . S
C667 C666 1.382 . S
C667 H669 0.952 . S
C668 N663 1.332 . S
C668 C664 1.382 . S
C668 H670 0.948 . S
H669 C667 0.952 . S
H670 C668 0.948 . S
H671 C660 0.952 . S
H672 C662 0.948 . S
C673 C639 1.395 . S
C673 C643 1.391 . S
C674 C636 1.389 . S
C674 C656 1.392 . S
C675 C646 1.392 . S
C675 C648 1.389 . S
C676 C651 1.395 . S
C676 C653 1.391 . S
H677 C637 0.951 . S
H678 C638 0.950 . S
H679 C644 0.949 . S
H680 C645 0.950 . S
H681 C649 0.951 . S
H682 C650 0.950 . S
H683 C654 0.949 . S
H684 C655 0.950 . S
H685 C659 0.950 . S
H686 C661 0.950 . S
H687 C664 0.950 . S
H688 C666 0.950 . S
C689 C690 1.443 . S
C689 N693 1.376 . S
C689 C727 1.389 . S
C690 C689 1.443 . S
C690 C691 1.340 . S
C690 H730 0.951 . S
C691 C690 1.340 . S
C691 C692 1.439 . S
C691 H731 0.950 . S
C692 C691 1.439 . S
C692 N693 1.374 . S
C692 C726 1.395 . S
N693 C689 1.376 . S
N693 C692 1.374 . S
N693 Co694 2.008 . S
Co694 N693 2.008 . S
Co694 N695 1.995 . S
Co694 N700 2.008 . S
Co694 N705 1.995 . S
Co694 N710 2.282 . S
Co694 N716 2.282 . S
N695 Co694 1.995 . S
N695 C696 1.376 . S
N695 C699 1.383 . S
C696 N695 1.376 . S
C696 C697 1.446 . S
C696 C726 1.391 . S
C697 C696 1.446 . S
C697 C698 1.339 . S
C697 H732 0.949 . S
C698 C697 1.339 . S
C698 C699 1.439 . S
C698 H733 0.950 . S
C699 N695 1.383 . S
C699 C698 1.439 . S
C699 C728 1.392 . S
N700 Co694 2.008 . S
N700 C701 1.376 . S
N700 C704 1.374 . S
C701 N700 1.376 . S
C701 C702 1.443 . S
C701 C728 1.389 . S
C702 C701 1.443 . S
C702 C703 1.340 . S
C702 H734 0.951 . S
C703 C702 1.340 . S
C703 C704 1.439 . S
C703 H735 0.950 . S
C704 N700 1.374 . S
C704 C703 1.439 . S
C704 C729 1.395 . S
N705 Co694 1.995 . S
N705 C706 1.376 . S
N705 C709 1.383 . S
C706 N705 1.376 . S
C706 C707 1.446 . S
C706 C729 1.391 . S
C707 C706 1.446 . S
C707 C708 1.339 . S
C707 H736 0.949 . S
C708 C707 1.339 . S
C708 C709 1.439 . S
C708 H737 0.950 . S
C709 N705 1.383 . S
C709 C708 1.439 . S
C709 C727 1.392 . S
N710 Co694 2.282 . S
N710 C713 1.332 . S
N710 C715 1.332 . S
C711 C712 1.386 . S
C711 C714 1.388 . S
C712 C711 1.386 . S
C712 C713 1.382 . S
C712 H738 0.950 . S
C713 N710 1.332 . S
C713 C712 1.382 . S
C713 H724 0.952 . S
C714 C711 1.388 . S
C714 C715 1.382 . S
C714 H739 0.950 . S
C715 N710 1.332 . S
C715 C714 1.382 . S
C715 H725 0.948 . S
N716 Co694 2.282 . S
N716 C720 1.332 . S
N716 C721 1.332 . S
C717 C718 1.388 . S
C717 C721 1.382 . S
C717 H740 0.950 . S
C718 C717 1.388 . S
C718 C719 1.386 . S
C719 C718 1.386 . S
C719 C720 1.382 . S
C719 H741 0.950 . S
C720 N716 1.332 . S
C720 C719 1.382 . S
C720 H722 0.952 . S
C721 N716 1.332 . S
C721 C717 1.382 . S
C721 H723 0.948 . S
H722 C720 0.952 . S
H723 C721 0.948 . S
H724 C713 0.952 . S
H725 C715 0.948 . S
C726 C692 1.395 . S
C726 C696 1.391 . S
C727 C689 1.389 . S
C727 C709 1.392 . S
C728 C699 1.392 . S
C728 C701 1.389 . S
C729 C704 1.395 . S
C729 C706 1.391 . S
H730 C690 0.951 . S
H731 C691 0.950 . S
H732 C697 0.949 . S
H733 C698 0.950 . S
H734 C702 0.951 . S
H735 C703 0.950 . S
H736 C707 0.949 . S
H737 C708 0.950 . S
H738 C712 0.950 . S
H739 C714 0.950 . S
H740 C717 0.950 . S
H741 C719 0.950 . S
C742 C743 1.443 . S
C742 N746 1.376 . S
C742 C780 1.389 . S
C743 C742 1.443 . S
C743 C744 1.340 . S
C743 H783 0.951 . S
C744 C743 1.340 . S
C744 C745 1.439 . S
C744 H784 0.950 . S
C745 C744 1.439 . S
C745 N746 1.374 . S
C745 C779 1.395 . S
N746 C742 1.376 . S
N746 C745 1.374 . S
N746 Co747 2.008 . S
Co747 N746 2.008 . S
Co747 N748 1.995 . S
Co747 N753 2.008 . S
Co747 N758 1.995 . S
Co747 N763 2.282 . S
Co747 N769 2.282 . S
N748 Co747 1.995 . S
N748 C749 1.376 . S
N748 C752 1.383 . S
C749 N748 1.376 . S
C749 C750 1.446 . S
C749 C779 1.391 . S
C750 C749 1.446 . S
C750 C751 1.339 . S
C750 H785 0.949 . S
C751 C750 1.339 . S
C751 C752 1.439 . S
C751 H786 0.950 . S
C752 N748 1.383 . S
C752 C751 1.439 . S
C752 C781 1.392 . S
N753 Co747 2.008 . S
N753 C754 1.376 . S
N753 C757 1.374 . S
C754 N753 1.376 . S
C754 C755 1.443 . S
C754 C781 1.389 . S
C755 C754 1.443 . S
C755 C756 1.340 . S
C755 H787 0.951 . S
C756 C755 1.340 . S
C756 C757 1.439 . S
C756 H788 0.950 . S
C757 N753 1.374 . S
C757 C756 1.439 . S
C757 C782 1.395 . S
N758 Co747 1.995 . S
N758 C759 1.376 . S
N758 C762 1.383 . S
C759 N758 1.376 . S
C759 C760 1.446 . S
C759 C782 1.391 . S
C760 C759 1.446 . S
C760 C761 1.339 . S
C760 H789 0.949 . S
C761 C760 1.339 . S
C761 C762 1.439 . S
C761 H790 0.950 . S
C762 N758 1.383 . S
C762 C761 1.439 . S
C762 C780 1.392 . S
N763 Co747 2.282 . S
N763 C766 1.332 . S
N763 C768 1.332 . S
C764 C765 1.386 . S
C764 C767 1.388 . S
C765 C764 1.386 . S
C765 C766 1.382 . S
C765 H791 0.950 . S
C766 N763 1.332 . S
C766 C765 1.382 . S
C766 H777 0.952 . S
C767 C764 1.388 . S
C767 C768 1.382 . S
C767 H792 0.950 . S
C768 N763 1.332 . S
C768 C767 1.382 . S
C768 H778 0.948 . S
N769 Co747 2.282 . S
N769 C773 1.332 . S
N769 C774 1.332 . S
C770 C771 1.388 . S
C770 C774 1.382 . S
C770 H793 0.950 . S
C771 C770 1.388 . S
C771 C772 1.386 . S
C772 C771 1.386 . S
C772 C773 1.382 . S
C772 H794 0.950 . S
C773 N769 1.332 . S
C773 C772 1.382 . S
C773 H775 0.952 . S
C774 N769 1.332 . S
C774 C770 1.382 . S
C774 H776 0.948 . S
H775 C773 0.952 . S
H776 C774 0.948 . S
H777 C766 0.952 . S
H778 C768 0.948 . S
C779 C745 1.395 . S
C779 C749 1.391 . S
C780 C742 1.389 . S
C780 C762 1.392 . S
C781 C752 1.392 . S
C781 C754 1.389 . S
C782 C757 1.395 . S
C782 C759 1.391 . S
H783 C743 0.951 . S
H784 C744 0.950 . S
H785 C750 0.949 . S
H786 C751 0.950 . S
H787 C755 0.951 . S
H788 C756 0.950 . S
H789 C760 0.949 . S
H790 C761 0.950 . S
H791 C765 0.950 . S
H792 C767 0.950 . S
H793 C770 0.950 . S
H794 C772 0.950 . S
C795 C796 1.443 . S
C795 N799 1.376 . S
C795 C833 1.389 . S
C796 C795 1.443 . S
C796 C797 1.340 . S
C796 H836 0.951 . S
C797 C796 1.340 . S
C797 C798 1.439 . S
C797 H837 0.950 . S
C798 C797 1.439 . S
C798 N799 1.374 . S
C798 C832 1.395 . S
N799 C795 1.376 . S
N799 C798 1.374 . S
N799 Co800 2.008 . S
Co800 N799 2.008 . S
Co800 N801 1.995 . S
Co800 N806 2.008 . S
Co800 N811 1.995 . S
Co800 N816 2.282 . S
Co800 N822 2.282 . S
N801 Co800 1.995 . S
N801 C802 1.376 . S
N801 C805 1.383 . S
C802 N801 1.376 . S
C802 C803 1.446 . S
C802 C832 1.391 . S
C803 C802 1.446 . S
C803 C804 1.339 . S
C803 H838 0.949 . S
C804 C803 1.339 . S
C804 C805 1.439 . S
C804 H839 0.950 . S
C805 N801 1.383 . S
C805 C804 1.439 . S
C805 C834 1.392 . S
N806 Co800 2.008 . S
N806 C807 1.376 . S
N806 C810 1.374 . S
C807 N806 1.376 . S
C807 C808 1.443 . S
C807 C834 1.389 . S
C808 C807 1.443 . S
C808 C809 1.340 . S
C808 H840 0.951 . S
C809 C808 1.340 . S
C809 C810 1.439 . S
C809 H841 0.950 . S
C810 N806 1.374 . S
C810 C809 1.439 . S
C810 C835 1.395 . S
N811 Co800 1.995 . S
N811 C812 1.376 . S
N811 C815 1.383 . S
C812 N811 1.376 . S
C812 C813 1.446 . S
C812 C835 1.391 . S
C813 C812 1.446 . S
C813 C814 1.339 . S
C813 H842 0.949 . S
C814 C813 1.339 . S
C814 C815 1.439 . S
C814 H843 0.950 . S
C815 N811 1.383 . S
C815 C814 1.439 . S
C815 C833 1.392 . S
N816 Co800 2.282 . S
N816 C819 1.332 . S
N816 C821 1.332 . S
C817 C818 1.386 . S
C817 C820 1.388 . S
C818 C817 1.386 . S
C818 C819 1.382 . S
C818 H844 0.950 . S
C819 N816 1.332 . S
C819 C818 1.382 . S
C819 H830 0.952 . S
C820 C817 1.388 . S
C820 C821 1.382 . S
C820 H845 0.950 . S
C821 N816 1.332 . S
C821 C820 1.382 . S
C821 H831 0.948 . S
N822 Co800 2.282 . S
N822 C826 1.332 . S
N822 C827 1.332 . S
C823 C824 1.388 . S
C823 C827 1.382 . S
C823 H846 0.950 . S
C824 C823 1.388 . S
C824 C825 1.386 . S
C825 C824 1.386 . S
C825 C826 1.382 . S
C825 H847 0.950 . S
C826 N822 1.332 . S
C826 C825 1.382 . S
C826 H828 0.952 . S
C827 N822 1.332 . S
C827 C823 1.382 . S
C827 H829 0.948 . S
H828 C826 0.952 . S
H829 C827 0.948 . S
H830 C819 0.952 . S
H831 C821 0.948 . S
C832 C798 1.395 . S
C832 C802 1.391 . S
C833 C795 1.389 . S
C833 C815 1.392 . S
C834 C805 1.392 . S
C834 C807 1.389 . S
C835 C810 1.395 . S
C835 C812 1.391 . S
H836 C796 0.951 . S
H837 C797 0.950 . S
H838 C803 0.949 . S
H839 C804 0.950 . S
H840 C808 0.951 . S
H841 C809 0.950 . S
H842 C813 0.949 . S
H843 C814 0.950 . S
H844 C818 0.950 . S
H845 C820 0.950 . S
H846 C823 0.950 . S
H847 C825 0.950 . S
H848 C860 0.930 . S
H849 C862 0.930 . S
H850 C863 0.930 . S
H851 C867 0.959 . S
H852 C867 0.959 . S
H853 C867 0.961 1_565 S
H854 C868 0.998 . S
H855 C868 0.961 . S
H856 C868 0.959 . S
H857 C871 0.929 . S
H858 C872 0.931 . S
H859 C874 0.930 . S
C860 H848 0.930 . S
C860 C861 1.399 . S
C860 C865 1.399 . S
C861 C860 1.399 . S
C861 C862 1.376 . S
C862 H849 0.930 . S
C862 C861 1.376 . S
C862 C863 1.388 . S
C863 H850 0.930 . S
C863 C862 1.388 . S
C863 C864 1.390 . S
C864 C863 1.390 . S
C864 C865 1.394 . S
C864 C870 1.465 1_565 S
C865 C860 1.399 . S
C865 C864 1.394 . S
C865 C866 1.516 1_565 S
C866 C865 1.516 1_545 S
C866 C867 1.502 . S
C866 C868 1.561 . S
C866 C869 1.526 . S
C867 H851 0.959 . S
C867 H852 0.959 . S
C867 H853 0.961 1_545 S
C867 C866 1.502 . S
C868 H854 0.998 . S
C868 H855 0.961 . S
C868 H856 0.959 . S
C868 C866 1.561 . S
C869 C866 1.526 . S
C869 C870 1.396 . S
C869 C874 1.390 . S
C870 C864 1.465 1_545 S
C870 C869 1.396 . S
C870 C871 1.399 . S
C871 H857 0.929 . S
C871 C870 1.399 . S
C871 C872 1.385 . S
C872 H858 0.931 . S
C872 C871 1.385 . S
C872 C873 1.389 . S
C873 C872 1.389 . S
C873 C874 1.387 . S
C874 H859 0.930 . S
C874 C869 1.390 . S
C874 C873 1.387 . S
H875 C887 0.930 . S
H876 C889 0.930 . S
H877 C890 0.930 . S
H878 C894 0.959 . S
H879 C894 0.959 . S
H880 C894 0.961 1_455 S
H881 C895 0.960 1_455 S
H882 C895 0.961 . S
H883 C895 0.959 . S
H884 C898 0.929 . S
H885 C899 0.931 . S
H886 C901 0.930 . S
C887 H875 0.930 . S
C887 C888 1.399 . S
C887 C892 1.399 . S
C888 C887 1.399 . S
C888 C889 1.376 . S
C889 H876 0.930 . S
C889 C888 1.376 . S
C889 C890 1.388 . S
C890 H877 0.930 . S
C890 C889 1.388 . S
C890 C891 1.390 . S
C891 C890 1.390 . S
C891 C892 1.394 . S
C891 C897 1.465 1_455 S
C892 C887 1.399 . S
C892 C891 1.394 . S
C892 C893 1.516 1_455 S
C893 C892 1.516 1_655 S
C893 C894 1.502 . S
C893 C895 1.561 . S
C893 C896 1.526 . S
C894 H878 0.959 . S
C894 H879 0.959 . S
C894 H880 0.961 1_655 S
C894 C893 1.502 . S
C895 H881 0.960 1_655 S
C895 H882 0.961 . S
C895 H883 0.959 . S
C895 C893 1.561 . S
C896 C893 1.526 . S
C896 C897 1.396 . S
C896 C901 1.390 . S
C897 C891 1.465 1_655 S
C897 C896 1.396 . S
C897 C898 1.399 . S
C898 H884 0.929 . S
C898 C897 1.399 . S
C898 C899 1.385 . S
C899 H885 0.931 . S
C899 C898 1.385 . S
C899 C900 1.389 . S
C900 C899 1.389 . S
C900 C901 1.387 . S
C901 H886 0.930 . S
C901 C896 1.390 . S
C901 C900 1.387 . S
H902 C914 0.930 . S
H903 C916 0.930 . S
H904 C917 0.930 . S
H905 C921 0.959 . S
H906 C921 0.956 . S
H907 C921 0.961 . S
H908 C922 0.960 . S
H909 C922 0.961 . S
H910 C922 0.959 . S
H911 C925 0.929 . S
H912 C926 0.931 . S
H913 C928 0.930 . S
C914 H902 0.930 . S
C914 C915 1.399 . S
C914 C919 1.399 . S
C915 C914 1.399 . S
C915 C916 1.376 . S
C916 H903 0.930 . S
C916 C915 1.376 . S
C916 C917 1.388 . S
C917 H904 0.930 . S
C917 C916 1.388 . S
C917 C918 1.390 . S
C918 C917 1.390 . S
C918 C919 1.394 . S
C918 C924 1.465 1_565 S
C919 C914 1.399 . S
C919 C918 1.394 . S
C919 C920 1.516 . S
C920 C919 1.516 . S
C920 C921 1.502 . S
C920 C922 1.561 . S
C920 C923 1.526 1_565 S
C921 H905 0.959 . S
C921 H906 0.956 . S
C921 H907 0.961 . S
C921 C920 1.502 . S
C922 H908 0.960 . S
C922 H909 0.961 . S
C922 H910 0.959 . S
C922 C920 1.561 . S
C923 C920 1.526 1_545 S
C923 C924 1.396 . S
C923 C928 1.390 . S
C924 C918 1.465 1_545 S
C924 C923 1.396 . S
C924 C925 1.399 . S
C925 H911 0.929 . S
C925 C924 1.399 . S
C925 C926 1.385 . S
C926 H912 0.931 . S
C926 C925 1.385 . S
C926 C927 1.389 . S
C927 C926 1.389 . S
C927 C928 1.387 . S
C928 H913 0.930 . S
C928 C923 1.390 . S
C928 C927 1.387 . S
H929 C941 0.930 . S
H930 C943 0.930 . S
H931 C944 0.930 . S
H932 C948 0.959 . S
H933 C948 0.959 . S
H934 C948 0.991 . S
H935 C949 0.960 1_455 S
H936 C949 0.961 . S
H937 C949 0.959 . S
H938 C952 0.929 . S
H939 C953 0.931 . S
H940 C955 0.930 . S
C941 H929 0.930 . S
C941 C942 1.399 . S
C941 C946 1.399 . S
C942 C941 1.399 . S
C942 C943 1.376 . S
C943 H930 0.930 . S
C943 C942 1.376 . S
C943 C944 1.388 . S
C944 H931 0.930 . S
C944 C943 1.388 . S
C944 C945 1.390 . S
C945 C944 1.390 . S
C945 C946 1.394 . S
C945 C951 1.465 1_455 S
C946 C941 1.399 . S
C946 C945 1.394 . S
C946 C947 1.516 1_455 S
C947 C946 1.516 1_655 S
C947 C948 1.502 . S
C947 C949 1.561 . S
C947 C950 1.526 . S
C948 H932 0.959 . S
C948 H933 0.959 . S
C948 H934 0.991 . S
C948 C947 1.502 . S
C949 H935 0.960 1_655 S
C949 H936 0.961 . S
C949 H937 0.959 . S
C949 C947 1.561 . S
C950 C947 1.526 . S
C950 C951 1.396 . S
C950 C955 1.390 . S
C951 C945 1.465 1_655 S
C951 C950 1.396 . S
C951 C952 1.399 . S
C952 H938 0.929 . S
C952 C951 1.399 . S
C952 C953 1.385 . S
C953 H939 0.931 . S
C953 C952 1.385 . S
C953 C954 1.389 . S
C954 C953 1.389 . S
C954 C955 1.387 . S
C955 H940 0.930 . S
C955 C950 1.390 . S
C955 C954 1.387 . S
H956 C968 0.930 . S
H957 C970 0.930 . S
H958 C971 0.930 . S
H959 C975 0.959 . S
H960 C975 0.959 . S
H961 C975 0.961 . S
H962 C976 0.960 . S
H963 C976 0.961 . S
H964 C976 0.959 1_554 S
H965 C979 0.929 . S
H966 C980 0.931 . S
H967 C982 0.930 . S
C968 H956 0.930 . S
C968 C969 1.399 . S
C968 C973 1.399 . S
C969 C968 1.399 . S
C969 C970 1.376 . S
C970 H957 0.930 . S
C970 C969 1.376 . S
C970 C971 1.388 . S
C971 H958 0.930 . S
C971 C970 1.388 . S
C971 C972 1.390 . S
C972 C971 1.390 . S
C972 C973 1.394 . S
C972 C978 1.465 . S
C973 C968 1.399 . S
C973 C972 1.394 . S
C973 C974 1.516 1_554 S
C974 C973 1.516 1_556 S
C974 C975 1.502 . S
C974 C976 1.561 . S
C974 C977 1.526 1_556 S
C975 H959 0.959 . S
C975 H960 0.959 . S
C975 H961 0.961 . S
C975 C974 1.502 . S
C976 H962 0.960 . S
C976 H963 0.961 . S
C976 H964 0.959 1_556 S
C976 C974 1.561 . S
C977 C974 1.526 1_554 S
C977 C978 1.396 . S
C977 C982 1.390 1_554 S
C978 C972 1.465 . S
C978 C977 1.396 . S
C978 C979 1.399 . S
C979 H965 0.929 . S
C979 C978 1.399 . S
C979 C980 1.385 . S
C980 H966 0.931 . S
C980 C979 1.385 . S
C980 C981 1.389 . S
C981 C980 1.389 . S
C981 C982 1.387 1_554 S
C982 H967 0.930 . S
C982 C977 1.390 1_556 S
C982 C981 1.387 1_556 S
H983 C995 0.930 . S
H984 C997 0.930 . S
H985 C998 0.930 . S
H986 C1002 0.959 . S
H987 C1002 0.959 . S
H988 C1002 0.961 . S
H989 C1003 0.960 . S
H990 C1003 0.961 . S
H991 C1003 0.959 . S
H992 C1006 0.929 . S
H993 C1007 0.931 . S
H994 C1009 0.930 . S
C995 H983 0.930 . S
C995 C996 1.399 . S
C995 C1000 1.399 . S
C996 C995 1.399 . S
C996 C997 1.376 . S
C997 H984 0.930 . S
C997 C996 1.376 . S
C997 C998 1.388 . S
C998 H985 0.930 . S
C998 C997 1.388 . S
C998 C999 1.390 . S
C999 C998 1.390 . S
C999 C1000 1.394 . S
C999 C1005 1.465 . S
C1000 C995 1.399 . S
C1000 C999 1.394 . S
C1000 C1001 1.516 . S
C1001 C1000 1.516 . S
C1001 C1002 1.502 . S
C1001 C1003 1.561 1_556 S
C1001 C1004 1.526 . S
C1002 H986 0.959 . S
C1002 H987 0.959 . S
C1002 H988 0.961 . S
C1002 C1001 1.502 . S
C1003 H989 0.960 . S
C1003 H990 0.961 . S
C1003 H991 0.959 . S
C1003 C1001 1.561 1_554 S
C1004 C1001 1.526 . S
C1004 C1005 1.396 . S
C1004 C1009 1.390 . S
C1005 C999 1.465 . S
C1005 C1004 1.396 . S
C1005 C1006 1.399 . S
C1006 H992 0.929 . S
C1006 C1005 1.399 . S
C1006 C1007 1.385 . S
C1007 H993 0.931 . S
C1007 C1006 1.385 . S
C1007 C1008 1.389 . S
C1008 C1007 1.389 . S
C1008 C1009 1.387 . S
C1009 H994 0.930 . S
C1009 C1004 1.390 . S
C1009 C1008 1.387 . S
H1010 C1022 0.930 . S
H1011 C1024 0.930 . S
H1012 C1025 0.930 . S
H1013 C1029 0.959 . S
H1014 C1029 0.959 . S
H1015 C1029 0.961 . S
H1016 C1030 0.960 . S
H1017 C1030 0.961 . S
H1018 C1030 0.959 . S
H1019 C1033 0.929 . S
H1020 C1034 0.931 1_556 S
H1021 C1036 0.930 . S
C1022 H1010 0.930 . S
C1022 C1023 1.399 . S
C1022 C1027 1.399 . S
C1023 C1022 1.399 . S
C1023 C1024 1.376 1_554 S
C1024 H1011 0.930 . S
C1024 C1023 1.376 1_556 S
C1024 C1025 1.388 . S
C1025 H1012 0.930 . S
C1025 C1024 1.388 . S
C1025 C1026 1.390 1_556 S
C1026 C1025 1.390 1_554 S
C1026 C1027 1.394 . S
C1026 C1032 1.465 . S
C1027 C1022 1.399 . S
C1027 C1026 1.394 . S
C1027 C1028 1.516 . S
C1028 C1027 1.516 . S
C1028 C1029 1.502 . S
C1028 C1030 1.561 . S
C1028 C1031 1.526 . S
C1029 H1013 0.959 . S
C1029 H1014 0.959 . S
C1029 H1015 0.961 . S
C1029 C1028 1.502 . S
C1030 H1016 0.960 . S
C1030 H1017 0.961 . S
C1030 H1018 0.959 . S
C1030 C1028 1.561 . S
C1031 C1028 1.526 . S
C1031 C1032 1.396 . S
C1031 C1036 1.390 . S
C1032 C1026 1.465 . S
C1032 C1031 1.396 . S
C1032 C1033 1.399 1_554 S
C1033 H1019 0.929 . S
C1033 C1032 1.399 1_556 S
C1033 C1034 1.385 1_556 S
C1034 H1020 0.931 1_554 S
C1034 C1033 1.385 1_554 S
C1034 C1035 1.389 . S
C1035 C1034 1.389 . S
C1035 C1036 1.387 . S
C1036 H1021 0.930 . S
C1036 C1031 1.390 . S
C1036 C1035 1.387 . S
H1037 C1049 0.930 . S
H1038 C1051 0.930 . S
H1039 C1052 0.930 . S
H1040 C1056 0.959 . S
H1041 C1056 0.959 . S
H1042 C1056 0.961 . S
H1043 C1057 0.960 . S
H1044 C1057 0.961 . S
H1045 C1057 0.959 . S
H1046 C1060 0.930 1_554 S
H1047 C1061 0.931 . S
H1048 C1063 0.930 . S
C1049 H1037 0.930 . S
C1049 C1050 1.399 . S
C1049 C1054 1.399 . S
C1050 C1049 1.399 . S
C1050 C1051 1.376 1_556 S
C1051 H1038 0.930 . S
C1051 C1050 1.376 1_554 S
C1051 C1052 1.388 . S
C1052 H1039 0.930 . S
C1052 C1051 1.388 . S
C1052 C1053 1.390 1_554 S
C1053 C1052 1.390 1_556 S
C1053 C1054 1.394 . S
C1053 C1059 1.465 . S
C1054 C1049 1.399 . S
C1054 C1053 1.394 . S
C1054 C1055 1.516 . S
C1055 C1054 1.516 . S
C1055 C1056 1.502 . S
C1055 C1057 1.561 . S
C1055 C1058 1.526 . S
C1056 H1040 0.959 . S
C1056 H1041 0.959 . S
C1056 H1042 0.961 . S
C1056 C1055 1.502 . S
C1057 H1043 0.960 . S
C1057 H1044 0.961 . S
C1057 H1045 0.959 . S
C1057 C1055 1.561 . S
C1058 C1055 1.526 . S
C1058 C1059 1.396 . S
C1058 C1063 1.390 . S
C1059 C1053 1.465 . S
C1059 C1058 1.396 . S
C1059 C1060 1.398 . S
C1060 H1046 0.930 1_556 S
C1060 C1059 1.398 . S
C1060 C1061 1.385 . S
C1061 H1047 0.931 . S
C1061 C1060 1.385 . S
C1061 C1062 1.389 . S
C1062 C1061 1.389 . S
C1062 C1063 1.387 . S
C1063 H1048 0.930 . S
C1063 C1058 1.390 . S
C1063 C1062 1.387 . S
H1064 C1076 0.930 . S
H1065 C1078 0.930 . S
H1066 C1079 0.930 . S
H1067 C1083 0.959 . S
H1068 C1083 0.959 . S
H1069 C1083 0.961 . S
H1070 C1084 0.960 . S
H1071 C1084 0.961 . S
H1072 C1084 0.959 . S
H1073 C1087 0.929 . S
H1074 C1088 0.931 . S
H1075 C1090 0.930 . S
C1076 H1064 0.930 . S
C1076 C1077 1.399 . S
C1076 C1081 1.399 . S
C1077 C1076 1.399 . S
C1077 C1078 1.376 . S
C1078 H1065 0.930 . S
C1078 C1077 1.376 . S
C1078 C1079 1.388 . S
C1079 H1066 0.930 . S
C1079 C1078 1.388 . S
C1079 C1080 1.390 . S
C1080 C1079 1.390 . S
C1080 C1081 1.394 . S
C1080 C1086 1.465 . S
C1081 C1076 1.399 . S
C1081 C1080 1.394 . S
C1081 C1082 1.516 . S
C1082 C1081 1.516 . S
C1082 C1083 1.502 . S
C1082 C1084 1.561 . S
C1082 C1085 1.526 . S
C1083 H1067 0.959 . S
C1083 H1068 0.959 . S
C1083 H1069 0.961 . S
C1083 C1082 1.502 . S
C1084 H1070 0.960 . S
C1084 H1071 0.961 . S
C1084 H1072 0.959 . S
C1084 C1082 1.561 . S
C1085 C1082 1.526 . S
C1085 C1086 1.396 . S
C1085 C1090 1.390 . S
C1086 C1080 1.465 . S
C1086 C1085 1.396 . S
C1086 C1087 1.399 . S
C1087 H1073 0.929 . S
C1087 C1086 1.399 . S
C1087 C1088 1.385 . S
C1088 H1074 0.931 . S
C1088 C1087 1.385 . S
C1088 C1089 1.389 . S
C1089 C1088 1.389 . S
C1089 C1090 1.387 . S
C1090 H1075 0.930 . S
C1090 C1085 1.390 . S
C1090 C1089 1.387 . S
H1091 C1103 0.930 . S
H1092 C1105 0.930 . S
H1093 C1106 0.930 . S
H1094 C1110 0.959 . S
H1095 C1110 0.959 . S
H1096 C1110 0.961 . S
H1097 C1111 0.960 . S
H1098 C1111 0.961 . S
H1099 C1111 0.959 . S
H1100 C1114 0.929 . S
H1101 C1115 0.931 . S
H1102 C1117 0.930 . S
C1103 H1091 0.930 . S
C1103 C1104 1.399 . S
C1103 C1108 1.399 . S
C1104 C1103 1.399 . S
C1104 C1105 1.376 . S
C1105 H1092 0.930 . S
C1105 C1104 1.376 . S
C1105 C1106 1.388 . S
C1106 H1093 0.930 . S
C1106 C1105 1.388 . S
C1106 C1107 1.390 . S
C1107 C1106 1.390 . S
C1107 C1108 1.394 . S
C1107 C1113 1.465 . S
C1108 C1103 1.399 . S
C1108 C1107 1.394 . S
C1108 C1109 1.516 . S
C1109 C1108 1.516 . S
C1109 C1110 1.502 . S
C1109 C1111 1.561 . S
C1109 C1112 1.526 . S
C1110 H1094 0.959 . S
C1110 H1095 0.959 . S
C1110 H1096 0.961 . S
C1110 C1109 1.502 . S
C1111 H1097 0.960 . S
C1111 H1098 0.961 . S
C1111 H1099 0.959 . S
C1111 C1109 1.561 . S
C1112 C1109 1.526 . S
C1112 C1113 1.396 . S
C1112 C1117 1.390 . S
C1113 C1107 1.465 . S
C1113 C1112 1.396 . S
C1113 C1114 1.399 . S
C1114 H1100 0.929 . S
C1114 C1113 1.399 . S
C1114 C1115 1.385 . S
C1115 H1101 0.931 . S
C1115 C1114 1.385 . S
C1115 C1116 1.389 . S
C1116 C1115 1.389 . S
C1116 C1117 1.387 . S
C1117 H1102 0.930 . S
C1117 C1112 1.390 . S
C1117 C1116 1.387 . S
H1118 C1130 0.930 . S
H1119 C1132 0.930 . S
H1120 C1133 0.930 . S
H1121 C1137 0.959 . S
H1122 C1137 0.959 . S
H1123 C1137 0.961 . S
H1124 C1138 0.960 . S
H1125 C1138 0.961 . S
H1126 C1138 0.959 . S
H1127 C1141 0.929 . S
H1128 C1142 0.931 . S
H1129 C1144 0.930 . S
C1130 H1118 0.930 . S
C1130 C1131 1.399 . S
C1130 C1135 1.399 . S
C1131 C1130 1.399 . S
C1131 C1132 1.376 . S
C1132 H1119 0.930 . S
C1132 C1131 1.376 . S
C1132 C1133 1.388 . S
C1133 H1120 0.930 . S
C1133 C1132 1.388 . S
C1133 C1134 1.390 . S
C1134 C1133 1.390 . S
C1134 C1135 1.394 . S
C1134 C1140 1.465 . S
C1135 C1130 1.399 . S
C1135 C1134 1.394 . S
C1135 C1136 1.516 . S
C1136 C1135 1.516 . S
C1136 C1137 1.502 . S
C1136 C1138 1.561 . S
C1136 C1139 1.526 . S
C1137 H1121 0.959 . S
C1137 H1122 0.959 . S
C1137 H1123 0.961 . S
C1137 C1136 1.502 . S
C1138 H1124 0.960 . S
C1138 H1125 0.961 . S
C1138 H1126 0.959 . S
C1138 C1136 1.561 . S
C1139 C1136 1.526 . S
C1139 C1140 1.396 . S
C1139 C1144 1.390 . S
C1140 C1134 1.465 . S
C1140 C1139 1.396 . S
C1140 C1141 1.399 . S
C1141 H1127 0.929 . S
C1141 C1140 1.399 . S
C1141 C1142 1.385 . S
C1142 H1128 0.931 . S
C1142 C1141 1.385 . S
C1142 C1143 1.389 . S
C1143 C1142 1.389 . S
C1143 C1144 1.387 . S
C1144 H1129 0.930 . S
C1144 C1139 1.390 . S
C1144 C1143 1.387 . S
H1145 C1157 0.930 . S
H1146 C1159 0.930 . S
H1147 C1160 0.930 . S
H1148 C1164 0.959 . S
H1149 C1164 0.959 . S
H1150 C1164 0.961 . S
H1151 C1165 0.960 . S
H1152 C1165 0.961 . S
H1153 C1165 0.959 . S
H1154 C1168 0.929 . S
H1155 C1169 0.931 . S
H1156 C1171 0.930 . S
C1157 H1145 0.930 . S
C1157 C1158 1.399 . S
C1157 C1162 1.399 . S
C1158 C1157 1.399 . S
C1158 C1159 1.376 . S
C1159 H1146 0.930 . S
C1159 C1158 1.376 . S
C1159 C1160 1.388 . S
C1160 H1147 0.930 . S
C1160 C1159 1.388 . S
C1160 C1161 1.390 . S
C1161 C1160 1.390 . S
C1161 C1162 1.394 . S
C1161 C1167 1.465 . S
C1162 C1157 1.399 . S
C1162 C1161 1.394 . S
C1162 C1163 1.516 . S
C1163 C1162 1.516 . S
C1163 C1164 1.502 . S
C1163 C1165 1.561 . S
C1163 C1166 1.526 . S
C1164 H1148 0.959 . S
C1164 H1149 0.959 . S
C1164 H1150 0.961 . S
C1164 C1163 1.502 . S
C1165 H1151 0.960 . S
C1165 H1152 0.961 . S
C1165 H1153 0.959 . S
C1165 C1163 1.561 . S
C1166 C1163 1.526 . S
C1166 C1167 1.396 . S
C1166 C1171 1.390 . S
C1167 C1161 1.465 . S
C1167 C1166 1.396 . S
C1167 C1168 1.399 . S
C1168 H1154 0.929 . S
C1168 C1167 1.399 . S
C1168 C1169 1.385 . S
C1169 H1155 0.931 . S
C1169 C1168 1.385 . S
C1169 C1170 1.389 . S
C1170 C1169 1.389 . S
C1170 C1171 1.387 . S
C1171 H1156 0.930 . S
C1171 C1166 1.390 . S
C1171 C1170 1.387 . S
H1172 C1184 0.930 . S
H1173 C1186 0.930 . S
H1174 C1187 0.930 . S
H1175 C1191 0.959 . S
H1176 C1191 0.959 . S
H1177 C1191 0.961 . S
H1178 C1192 0.960 . S
H1179 C1192 0.999 . S
H1180 C1192 0.959 . S
H1181 C1195 0.929 . S
H1182 C1196 0.931 . S
H1183 C1198 0.930 . S
C1184 H1172 0.930 . S
C1184 C1185 1.399 . S
C1184 C1189 1.399 . S
C1185 C1184 1.399 . S
C1185 C1186 1.376 . S
C1186 H1173 0.930 . S
C1186 C1185 1.376 . S
C1186 C1187 1.388 . S
C1187 H1174 0.930 . S
C1187 C1186 1.388 . S
C1187 C1188 1.390 . S
C1188 C1187 1.390 . S
C1188 C1189 1.394 . S
C1188 C1194 1.465 1_565 S
C1189 C1184 1.399 . S
C1189 C1188 1.394 . S
C1189 C1190 1.516 . S
C1190 C1189 1.516 . S
C1190 C1191 1.502 . S
C1190 C1192 1.561 . S
C1190 C1193 1.526 1_565 S
C1191 H1175 0.959 . S
C1191 H1176 0.959 . S
C1191 H1177 0.961 . S
C1191 C1190 1.502 . S
C1192 H1178 0.960 . S
C1192 H1179 0.999 . S
C1192 H1180 0.959 . S
C1192 C1190 1.561 . S
C1193 C1190 1.526 1_545 S
C1193 C1194 1.396 . S
C1193 C1198 1.390 . S
C1194 C1188 1.465 1_545 S
C1194 C1193 1.396 . S
C1194 C1195 1.399 . S
C1195 H1181 0.929 . S
C1195 C1194 1.399 . S
C1195 C1196 1.385 . S
C1196 H1182 0.931 . S
C1196 C1195 1.385 . S
C1196 C1197 1.389 . S
C1197 C1196 1.389 . S
C1197 C1198 1.387 . S
C1198 H1183 0.930 . S
C1198 C1193 1.390 . S
C1198 C1197 1.387 . S
H1199 C1211 0.930 . S
H1200 C1213 0.930 . S
H1201 C1214 0.930 . S
H1202 C1218 0.959 . S
H1203 C1218 0.983 . S
H1204 C1218 0.961 . S
H1205 C1219 0.960 . S
H1206 C1219 0.961 1_455 S
H1207 C1219 0.959 . S
H1208 C1222 0.929 . S
H1209 C1223 0.931 . S
H1210 C1225 0.930 . S
C1211 H1199 0.930 . S
C1211 C1212 1.399 . S
C1211 C1216 1.399 . S
C1212 C1211 1.399 . S
C1212 C1213 1.376 . S
C1213 H1200 0.930 . S
C1213 C1212 1.376 . S
C1213 C1214 1.388 . S
C1214 H1201 0.930 . S
C1214 C1213 1.388 . S
C1214 C1215 1.390 . S
C1215 C1214 1.390 . S
C1215 C1216 1.394 . S
C1215 C1221 1.465 1_655 S
C1216 C1211 1.399 . S
C1216 C1215 1.394 . S
C1216 C1217 1.516 . S
C1217 C1216 1.516 . S
C1217 C1218 1.502 . S
C1217 C1219 1.561 . S
C1217 C1220 1.526 1_655 S
C1218 H1202 0.959 . S
C1218 H1203 0.983 . S
C1218 H1204 0.961 . S
C1218 C1217 1.502 . S
C1219 H1205 0.960 . S
C1219 H1206 0.961 1_655 S
C1219 H1207 0.959 . S
C1219 C1217 1.561 . S
C1220 C1217 1.526 1_455 S
C1220 C1221 1.396 . S
C1220 C1225 1.390 . S
C1221 C1215 1.465 1_455 S
C1221 C1220 1.396 . S
C1221 C1222 1.399 . S
C1222 H1208 0.929 . S
C1222 C1221 1.399 . S
C1222 C1223 1.385 . S
C1223 H1209 0.931 . S
C1223 C1222 1.385 . S
C1223 C1224 1.389 . S
C1224 C1223 1.389 . S
C1224 C1225 1.387 . S
C1225 H1210 0.930 . S
C1225 C1220 1.390 . S
C1225 C1224 1.387 . S
H1226 C1238 0.930 . S
H1227 C1240 0.930 . S
H1228 C1241 0.930 . S
H1229 C1245 0.959 . S
H1230 C1245 0.959 . S
H1231 C1245 0.961 1_565 S
H1232 C1246 0.922 1_565 S
H1233 C1246 0.998 . S
H1234 C1246 0.954 1_565 S
H1235 C1249 0.929 . S
H1236 C1250 0.931 . S
H1237 C1252 0.930 . S
C1238 H1226 0.930 . S
C1238 C1239 1.399 . S
C1238 C1243 1.399 . S
C1239 C1238 1.399 . S
C1239 C1240 1.376 . S
C1240 H1227 0.930 . S
C1240 C1239 1.376 . S
C1240 C1241 1.388 . S
C1241 H1228 0.930 . S
C1241 C1240 1.388 . S
C1241 C1242 1.390 . S
C1242 C1241 1.390 . S
C1242 C1243 1.394 . S
C1242 C1248 1.465 1_565 S
C1243 C1238 1.399 . S
C1243 C1242 1.394 . S
C1243 C1244 1.516 1_565 S
C1244 C1243 1.516 1_545 S
C1244 C1245 1.502 . S
C1244 C1246 1.568 . S
C1244 C1247 1.526 . S
C1245 H1229 0.959 . S
C1245 H1230 0.959 . S
C1245 H1231 0.961 1_545 S
C1245 C1244 1.502 . S
C1246 H1232 0.922 1_545 S
C1246 H1233 0.998 . S
C1246 H1234 0.954 1_545 S
C1246 C1244 1.568 . S
C1247 C1244 1.526 . S
C1247 C1248 1.396 . S
C1247 C1252 1.390 . S
C1248 C1242 1.465 1_545 S
C1248 C1247 1.396 . S
C1248 C1249 1.399 . S
C1249 H1235 0.929 . S
C1249 C1248 1.399 . S
C1249 C1250 1.385 . S
C1250 H1236 0.931 . S
C1250 C1249 1.385 . S
C1250 C1251 1.389 . S
C1251 C1250 1.389 . S
C1251 C1252 1.387 . S
C1252 H1237 0.930 . S
C1252 C1247 1.390 . S
C1252 C1251 1.387 . S
H1253 C1265 0.930 . S
H1254 C1267 0.930 . S
H1255 C1268 0.930 . S
H1256 C1272 0.959 . S
H1257 C1272 0.959 . S
H1258 C1272 0.961 1_655 S
H1259 C1273 0.920 1_655 S
H1260 C1273 0.961 . S
H1261 C1273 0.959 . S
H1262 C1276 0.929 . S
H1263 C1277 0.931 . S
H1264 C1279 0.930 . S
C1265 H1253 0.930 . S
C1265 C1266 1.399 . S
C1265 C1270 1.399 . S
C1266 C1265 1.399 . S
C1266 C1267 1.376 . S
C1267 H1254 0.930 . S
C1267 C1266 1.376 . S
C1267 C1268 1.388 . S
C1268 H1255 0.930 . S
C1268 C1267 1.388 . S
C1268 C1269 1.390 . S
C1269 C1268 1.390 . S
C1269 C1270 1.394 . S
C1269 C1275 1.465 1_655 S
C1270 C1265 1.399 . S
C1270 C1269 1.394 . S
C1270 C1271 1.516 1_655 S
C1271 C1270 1.516 1_455 S
C1271 C1272 1.502 . S
C1271 C1273 1.561 . S
C1271 C1274 1.526 . S
C1272 H1256 0.959 . S
C1272 H1257 0.959 . S
C1272 H1258 0.961 1_455 S
C1272 C1271 1.502 . S
C1273 H1259 0.920 1_455 S
C1273 H1260 0.961 . S
C1273 H1261 0.959 . S
C1273 C1271 1.561 . S
C1274 C1271 1.526 . S
C1274 C1275 1.396 . S
C1274 C1279 1.390 . S
C1275 C1269 1.465 1_455 S
C1275 C1274 1.396 . S
C1275 C1276 1.399 . S
C1276 H1262 0.929 . S
C1276 C1275 1.399 . S
C1276 C1277 1.385 . S
C1277 H1263 0.931 . S
C1277 C1276 1.385 . S
C1277 C1278 1.389 . S
C1278 C1277 1.389 . S
C1278 C1279 1.387 . S
C1279 H1264 0.930 . S
C1279 C1274 1.390 . S
C1279 C1278 1.387 . S
H1280 C1292 0.930 . S
H1281 C1294 0.930 . S
H1282 C1295 0.930 . S
H1283 C1299 0.959 . S
H1284 C1299 0.959 . S
H1285 C1299 0.961 . S
H1286 C1300 0.960 . S
H1287 C1300 0.961 1_556 S
H1288 C1300 0.959 . S
H1289 C1303 0.929 . S
H1290 C1304 0.931 . S
H1291 C1306 0.930 . S
C1292 H1280 0.930 . S
C1292 C1293 1.399 . S
C1292 C1297 1.399 . S
C1293 C1292 1.399 . S
C1293 C1294 1.376 . S
C1294 H1281 0.930 . S
C1294 C1293 1.376 . S
C1294 C1295 1.388 . S
C1295 H1282 0.930 . S
C1295 C1294 1.388 . S
C1295 C1296 1.390 . S
C1296 C1295 1.390 . S
C1296 C1297 1.394 . S
C1296 C1302 1.465 . S
C1297 C1292 1.399 . S
C1297 C1296 1.394 . S
C1297 C1298 1.516 . S
C1298 C1297 1.516 . S
C1298 C1299 1.502 . S
C1298 C1300 1.561 . S
C1298 C1301 1.526 . S
C1299 H1283 0.959 . S
C1299 H1284 0.959 . S
C1299 H1285 0.961 . S
C1299 C1298 1.502 . S
C1300 H1286 0.960 . S
C1300 H1287 0.961 1_554 S
C1300 H1288 0.959 . S
C1300 C1298 1.561 . S
C1301 C1298 1.526 . S
C1301 C1302 1.396 . S
C1301 C1306 1.390 . S
C1302 C1296 1.465 . S
C1302 C1301 1.396 . S
C1302 C1303 1.399 . S
C1303 H1289 0.929 . S
C1303 C1302 1.399 . S
C1303 C1304 1.385 . S
C1304 H1290 0.931 . S
C1304 C1303 1.385 . S
C1304 C1305 1.389 . S
C1305 C1304 1.389 . S
C1305 C1306 1.387 . S
C1306 H1291 0.930 . S
C1306 C1301 1.390 . S
C1306 C1305 1.387 . S
H1307 C1319 0.930 . S
H1308 C1321 0.930 . S
H1309 C1322 0.930 . S
H1310 C1326 0.959 . S
H1311 C1326 0.959 . S
H1312 C1326 0.961 . S
H1313 C1327 0.960 . S
H1314 C1327 0.961 . S
H1315 C1327 0.959 . S
H1316 C1330 0.929 . S
H1317 C1331 0.931 . S
H1318 C1333 0.930 . S
C1319 H1307 0.930 . S
C1319 C1320 1.399 . S
C1319 C1324 1.399 . S
C1320 C1319 1.399 . S
C1320 C1321 1.376 . S
C1321 H1308 0.930 . S
C1321 C1320 1.376 . S
C1321 C1322 1.388 . S
C1322 H1309 0.930 . S
C1322 C1321 1.388 . S
C1322 C1323 1.390 . S
C1323 C1322 1.390 . S
C1323 C1324 1.394 . S
C1323 C1329 1.465 . S
C1324 C1319 1.399 . S
C1324 C1323 1.394 . S
C1324 C1325 1.516 . S
C1325 C1324 1.516 . S
C1325 C1326 1.502 . S
C1325 C1327 1.561 . S
C1325 C1328 1.526 . S
C1326 H1310 0.959 . S
C1326 H1311 0.959 . S
C1326 H1312 0.961 . S
C1326 C1325 1.502 . S
C1327 H1313 0.960 . S
C1327 H1314 0.961 . S
C1327 H1315 0.959 . S
C1327 C1325 1.561 . S
C1328 C1325 1.526 . S
C1328 C1329 1.396 . S
C1328 C1333 1.390 . S
C1329 C1323 1.465 . S
C1329 C1328 1.396 . S
C1329 C1330 1.399 . S
C1330 H1316 0.929 . S
C1330 C1329 1.399 . S
C1330 C1331 1.385 . S
C1331 H1317 0.931 . S
C1331 C1330 1.385 . S
C1331 C1332 1.389 . S
C1332 C1331 1.389 . S
C1332 C1333 1.387 . S
C1333 H1318 0.930 . S
C1333 C1328 1.390 . S
C1333 C1332 1.387 . S
H1334 C1346 0.930 . S
H1335 C1348 0.930 . S
H1336 C1349 0.930 . S
H1337 C1353 0.959 . S
H1338 C1353 0.959 . S
H1339 C1353 0.961 . S
H1340 C1354 0.960 . S
H1341 C1354 0.961 . S
H1342 C1354 0.959 . S
H1343 C1357 0.929 . S
H1344 C1358 0.931 . S
H1345 C1360 0.930 . S
C1346 H1334 0.930 . S
C1346 C1347 1.399 . S
C1346 C1351 1.399 . S
C1347 C1346 1.399 . S
C1347 C1348 1.376 . S
C1348 H1335 0.930 . S
C1348 C1347 1.376 . S
C1348 C1349 1.388 . S
C1349 H1336 0.930 . S
C1349 C1348 1.388 . S
C1349 C1350 1.390 . S
C1350 C1349 1.390 . S
C1350 C1351 1.394 . S
C1350 C1356 1.465 . S
C1351 C1346 1.399 . S
C1351 C1350 1.394 . S
C1351 C1352 1.516 . S
C1352 C1351 1.516 . S
C1352 C1353 1.502 . S
C1352 C1354 1.561 . S
C1352 C1355 1.526 . S
C1353 H1337 0.959 . S
C1353 H1338 0.959 . S
C1353 H1339 0.961 . S
C1353 C1352 1.502 . S
C1354 H1340 0.960 . S
C1354 H1341 0.961 . S
C1354 H1342 0.959 . S
C1354 C1352 1.561 . S
C1355 C1352 1.526 . S
C1355 C1356 1.396 . S
C1355 C1360 1.390 . S
C1356 C1350 1.465 . S
C1356 C1355 1.396 . S
C1356 C1357 1.399 . S
C1357 H1343 0.929 . S
C1357 C1356 1.399 . S
C1357 C1358 1.385 . S
C1358 H1344 0.931 . S
C1358 C1357 1.385 . S
C1358 C1359 1.389 . S
C1359 C1358 1.389 . S
C1359 C1360 1.387 . S
C1360 H1345 0.930 . S
C1360 C1355 1.390 . S
C1360 C1359 1.387 . S
H1361 C1373 0.930 . S
H1362 C1375 0.930 . S
H1363 C1376 0.930 . S
H1364 C1380 0.959 . S
H1365 C1380 0.959 . S
H1366 C1380 0.961 . S
H1367 C1381 0.960 . S
H1368 C1381 0.961 . S
H1369 C1381 0.959 . S
H1370 C1384 0.929 . S
H1371 C1385 0.931 . S
H1372 C1387 0.930 . S
C1373 H1361 0.930 . S
C1373 C1374 1.399 . S
C1373 C1378 1.399 . S
C1374 C1373 1.399 . S
C1374 C1375 1.376 . S
C1375 H1362 0.930 . S
C1375 C1374 1.376 . S
C1375 C1376 1.388 . S
C1376 H1363 0.930 . S
C1376 C1375 1.388 . S
C1376 C1377 1.390 . S
C1377 C1376 1.390 . S
C1377 C1378 1.394 . S
C1377 C1383 1.465 . S
C1378 C1373 1.399 . S
C1378 C1377 1.394 . S
C1378 C1379 1.516 . S
C1379 C1378 1.516 . S
C1379 C1380 1.502 . S
C1379 C1381 1.561 . S
C1379 C1382 1.526 . S
C1380 H1364 0.959 . S
C1380 H1365 0.959 . S
C1380 H1366 0.961 . S
C1380 C1379 1.502 . S
C1381 H1367 0.960 . S
C1381 H1368 0.961 . S
C1381 H1369 0.959 . S
C1381 C1379 1.561 . S
C1382 C1379 1.526 . S
C1382 C1383 1.396 . S
C1382 C1387 1.390 . S
C1383 C1377 1.465 . S
C1383 C1382 1.396 . S
C1383 C1384 1.399 . S
C1384 H1370 0.929 . S
C1384 C1383 1.399 . S
C1384 C1385 1.385 . S
C1385 H1371 0.931 . S
C1385 C1384 1.385 . S
C1385 C1386 1.389 . S
C1386 C1385 1.389 . S
C1386 C1387 1.387 . S
C1387 H1372 0.930 . S
C1387 C1382 1.390 . S
C1387 C1386 1.387 . S
H1388 C1400 0.930 . S
H1389 C1402 0.930 . S
H1390 C1403 0.930 . S
H1391 C1407 0.959 . S
H1392 C1407 0.959 . S
H1393 C1407 0.961 . S
H1394 C1408 0.960 . S
H1395 C1408 0.961 . S
H1396 C1408 0.959 . S
H1397 C1411 0.929 . S
H1398 C1412 0.931 . S
H1399 C1414 0.930 . S
C1400 H1388 0.930 . S
C1400 C1401 1.399 . S
C1400 C1405 1.399 . S
C1401 C1400 1.399 . S
C1401 C1402 1.376 . S
C1402 H1389 0.930 . S
C1402 C1401 1.376 . S
C1402 C1403 1.388 . S
C1403 H1390 0.930 . S
C1403 C1402 1.388 . S
C1403 C1404 1.390 . S
C1404 C1403 1.390 . S
C1404 C1405 1.394 . S
C1404 C1410 1.465 . S
C1405 C1400 1.399 . S
C1405 C1404 1.394 . S
C1405 C1406 1.516 . S
C1406 C1405 1.516 . S
C1406 C1407 1.502 . S
C1406 C1408 1.561 . S
C1406 C1409 1.526 . S
C1407 H1391 0.959 . S
C1407 H1392 0.959 . S
C1407 H1393 0.961 . S
C1407 C1406 1.502 . S
C1408 H1394 0.960 . S
C1408 H1395 0.961 . S
C1408 H1396 0.959 . S
C1408 C1406 1.561 . S
C1409 C1406 1.526 . S
C1409 C1410 1.396 . S
C1409 C1414 1.390 . S
C1410 C1404 1.465 . S
C1410 C1409 1.396 . S
C1410 C1411 1.399 . S
C1411 H1397 0.929 . S
C1411 C1410 1.399 . S
C1411 C1412 1.385 . S
C1412 H1398 0.931 . S
C1412 C1411 1.385 . S
C1412 C1413 1.389 . S
C1413 C1412 1.389 . S
C1413 C1414 1.387 . S
C1414 H1399 0.930 . S
C1414 C1409 1.390 . S
C1414 C1413 1.387 . S
H1415 C1427 0.930 . S
H1416 C1429 0.930 . S
H1417 C1430 0.930 . S
H1418 C1434 0.959 . S
H1419 C1434 0.959 . S
H1420 C1434 0.961 . S
H1421 C1435 0.960 . S
H1422 C1435 0.961 . S
H1423 C1435 0.959 . S
H1424 C1438 0.929 . S
H1425 C1439 0.931 . S
H1426 C1441 0.930 . S
C1427 H1415 0.930 . S
C1427 C1428 1.399 . S
C1427 C1432 1.399 . S
C1428 C1427 1.399 . S
C1428 C1429 1.376 . S
C1429 H1416 0.930 . S
C1429 C1428 1.376 . S
C1429 C1430 1.388 . S
C1430 H1417 0.930 . S
C1430 C1429 1.388 . S
C1430 C1431 1.390 . S
C1431 C1430 1.390 . S
C1431 C1432 1.394 . S
C1431 C1437 1.465 . S
C1432 C1427 1.399 . S
C1432 C1431 1.394 . S
C1432 C1433 1.516 . S
C1433 C1432 1.516 . S
C1433 C1434 1.502 . S
C1433 C1435 1.561 . S
C1433 C1436 1.526 . S
C1434 H1418 0.959 . S
C1434 H1419 0.959 . S
C1434 H1420 0.961 . S
C1434 C1433 1.502 . S
C1435 H1421 0.960 . S
C1435 H1422 0.961 . S
C1435 H1423 0.959 . S
C1435 C1433 1.561 . S
C1436 C1433 1.526 . S
C1436 C1437 1.396 . S
C1436 C1441 1.390 . S
C1437 C1431 1.465 . S
C1437 C1436 1.396 . S
C1437 C1438 1.399 . S
C1438 H1424 0.929 . S
C1438 C1437 1.399 . S
C1438 C1439 1.385 . S
C1439 H1425 0.931 . S
C1439 C1438 1.385 . S
C1439 C1440 1.389 . S
C1440 C1439 1.389 . S
C1440 C1441 1.387 . S
C1441 H1426 0.930 . S
C1441 C1436 1.390 . S
C1441 C1440 1.387 . S
H1442 C1454 0.930 . S
H1443 C1456 0.930 . S
H1444 C1457 0.930 . S
H1445 C1461 0.959 . S
H1446 C1461 0.959 . S
H1447 C1461 0.961 . S
H1448 C1462 0.960 . S
H1449 C1462 0.961 . S
H1450 C1462 0.959 . S
H1451 C1465 0.929 . S
H1452 C1466 0.931 . S
H1453 C1468 0.930 . S
C1454 H1442 0.930 . S
C1454 C1455 1.399 . S
C1454 C1459 1.399 . S
C1455 C1454 1.399 . S
C1455 C1456 1.376 . S
C1456 H1443 0.930 . S
C1456 C1455 1.376 . S
C1456 C1457 1.388 . S
C1457 H1444 0.930 . S
C1457 C1456 1.388 . S
C1457 C1458 1.390 . S
C1458 C1457 1.390 . S
C1458 C1459 1.394 . S
C1458 C1464 1.465 . S
C1459 C1454 1.399 . S
C1459 C1458 1.394 . S
C1459 C1460 1.516 . S
C1460 C1459 1.516 . S
C1460 C1461 1.502 . S
C1460 C1462 1.561 . S
C1460 C1463 1.526 . S
C1461 H1445 0.959 . S
C1461 H1446 0.959 . S
C1461 H1447 0.961 . S
C1461 C1460 1.502 . S
C1462 H1448 0.960 . S
C1462 H1449 0.961 . S
C1462 H1450 0.959 . S
C1462 C1460 1.561 . S
C1463 C1460 1.526 . S
C1463 C1464 1.396 . S
C1463 C1468 1.390 . S
C1464 C1458 1.465 . S
C1464 C1463 1.396 . S
C1464 C1465 1.399 . S
C1465 H1451 0.929 . S
C1465 C1464 1.399 . S
C1465 C1466 1.385 . S
C1466 H1452 0.931 . S
C1466 C1465 1.385 . S
C1466 C1467 1.389 . S
C1467 C1466 1.389 . S
C1467 C1468 1.387 . S
C1468 H1453 0.930 . S
C1468 C1463 1.390 . S
C1468 C1467 1.387 . S
H1469 C1481 0.930 . S
H1470 C1483 0.930 . S
H1471 C1484 0.930 . S
H1472 C1488 0.959 . S
H1473 C1488 0.959 . S
H1474 C1488 0.961 . S
H1475 C1489 0.960 . S
H1476 C1489 0.961 . S
H1477 C1489 0.959 . S
H1478 C1492 0.929 . S
H1479 C1493 0.931 . S
H1480 C1495 0.930 . S
C1481 H1469 0.930 . S
C1481 C1482 1.399 . S
C1481 C1486 1.399 . S
C1482 C1481 1.399 . S
C1482 C1483 1.376 . S
C1483 H1470 0.930 . S
C1483 C1482 1.376 . S
C1483 C1484 1.388 . S
C1484 H1471 0.930 . S
C1484 C1483 1.388 . S
C1484 C1485 1.390 . S
C1485 C1484 1.390 . S
C1485 C1486 1.394 . S
C1485 C1491 1.465 . S
C1486 C1481 1.399 . S
C1486 C1485 1.394 . S
C1486 C1487 1.516 . S
C1487 C1486 1.516 . S
C1487 C1488 1.502 . S
C1487 C1489 1.561 . S
C1487 C1490 1.526 . S
C1488 H1472 0.959 . S
C1488 H1473 0.959 . S
C1488 H1474 0.961 . S
C1488 C1487 1.502 . S
C1489 H1475 0.960 . S
C1489 H1476 0.961 . S
C1489 H1477 0.959 . S
C1489 C1487 1.561 . S
C1490 C1487 1.526 . S
C1490 C1491 1.396 . S
C1490 C1495 1.390 . S
C1491 C1485 1.465 . S
C1491 C1490 1.396 . S
C1491 C1492 1.399 . S
C1492 H1478 0.929 . S
C1492 C1491 1.399 . S
C1492 C1493 1.385 . S
C1493 H1479 0.931 . S
C1493 C1492 1.385 . S
C1493 C1494 1.389 . S
C1494 C1493 1.389 . S
C1494 C1495 1.387 . S
C1495 H1480 0.930 . S
C1495 C1490 1.390 . S
C1495 C1494 1.387 . S
H1496 C1508 0.930 . S
H1497 C1510 0.930 . S
H1498 C1511 0.930 . S
H1499 C1515 0.959 . S
H1500 C1515 0.959 . S
H1501 C1515 0.961 . S
H1502 C1516 0.960 . S
H1503 C1516 0.961 . S
H1504 C1516 0.959 . S
H1505 C1519 0.929 . S
H1506 C1520 0.931 . S
H1507 C1522 0.930 . S
C1508 H1496 0.930 . S
C1508 C1509 1.399 . S
C1508 C1513 1.399 . S
C1509 C1508 1.399 . S
C1509 C1510 1.376 . S
C1510 H1497 0.930 . S
C1510 C1509 1.376 . S
C1510 C1511 1.388 . S
C1511 H1498 0.930 . S
C1511 C1510 1.388 . S
C1511 C1512 1.390 . S
C1512 C1511 1.390 . S
C1512 C1513 1.394 . S
C1512 C1518 1.465 . S
C1513 C1508 1.399 . S
C1513 C1512 1.394 . S
C1513 C1514 1.516 . S
C1514 C1513 1.516 . S
C1514 C1515 1.502 . S
C1514 C1516 1.561 . S
C1514 C1517 1.526 . S
C1515 H1499 0.959 . S
C1515 H1500 0.959 . S
C1515 H1501 0.961 . S
C1515 C1514 1.502 . S
C1516 H1502 0.960 . S
C1516 H1503 0.961 . S
C1516 H1504 0.959 . S
C1516 C1514 1.561 . S
C1517 C1514 1.526 . S
C1517 C1518 1.396 . S
C1517 C1522 1.390 . S
C1518 C1512 1.465 . S
C1518 C1517 1.396 . S
C1518 C1519 1.399 . S
C1519 H1505 0.929 . S
C1519 C1518 1.399 . S
C1519 C1520 1.385 . S
C1520 H1506 0.931 . S
C1520 C1519 1.385 . S
C1520 C1521 1.389 . S
C1521 C1520 1.389 . S
C1521 C1522 1.387 . S
C1522 H1507 0.930 . S
C1522 C1517 1.390 . S
C1522 C1521 1.387 . S
H1523 C1535 0.930 . S
H1524 C1537 0.930 . S
H1525 C1538 0.930 . S
H1526 C1542 0.959 . S
H1527 C1542 0.959 . S
H1528 C1542 0.961 . S
H1529 C1543 0.960 . S
H1530 C1543 0.961 . S
H1531 C1543 0.959 . S
H1532 C1546 0.929 . S
H1533 C1547 0.931 . S
H1534 C1549 0.930 . S
C1535 H1523 0.930 . S
C1535 C1536 1.399 . S
C1535 C1540 1.399 . S
C1536 C1535 1.399 . S
C1536 C1537 1.376 . S
C1537 H1524 0.930 . S
C1537 C1536 1.376 . S
C1537 C1538 1.388 . S
C1538 H1525 0.930 . S
C1538 C1537 1.388 . S
C1538 C1539 1.390 . S
C1539 C1538 1.390 . S
C1539 C1540 1.394 . S
C1539 C1545 1.465 . S
C1540 C1535 1.399 . S
C1540 C1539 1.394 . S
C1540 C1541 1.516 . S
C1541 C1540 1.516 . S
C1541 C1542 1.502 . S
C1541 C1543 1.561 . S
C1541 C1544 1.526 . S
C1542 H1526 0.959 . S
C1542 H1527 0.959 . S
C1542 H1528 0.961 . S
C1542 C1541 1.502 . S
C1543 H1529 0.960 . S
C1543 H1530 0.961 . S
C1543 H1531 0.959 . S
C1543 C1541 1.561 . S
C1544 C1541 1.526 . S
C1544 C1545 1.396 . S
C1544 C1549 1.390 . S
C1545 C1539 1.465 . S
C1545 C1544 1.396 . S
C1545 C1546 1.399 . S
C1546 H1532 0.929 . S
C1546 C1545 1.399 . S
C1546 C1547 1.385 . S
C1547 H1533 0.931 . S
C1547 C1546 1.385 . S
C1547 C1548 1.389 . S
C1548 C1547 1.389 . S
C1548 C1549 1.387 . S
C1549 H1534 0.930 . S
C1549 C1544 1.390 . S
C1549 C1548 1.387 . S
H1550 C1562 0.930 . S
H1551 C1564 0.930 1_554 S
H1552 C1565 0.930 . S
H1553 C1569 0.959 . S
H1554 C1569 0.959 . S
H1555 C1569 0.961 . S
H1556 C1570 0.960 . S
H1557 C1570 0.961 . S
H1558 C1570 0.959 . S
H1559 C1573 0.929 . S
H1560 C1574 0.931 . S
H1561 C1576 0.930 . S
C1562 H1550 0.930 . S
C1562 C1563 1.399 . S
C1562 C1567 1.399 . S
C1563 C1562 1.399 . S
C1563 C1564 1.376 . S
C1564 H1551 0.930 1_556 S
C1564 C1563 1.376 . S
C1564 C1565 1.388 . S
C1565 H1552 0.930 . S
C1565 C1564 1.388 . S
C1565 C1566 1.390 . S
C1566 C1565 1.390 . S
C1566 C1567 1.394 . S
C1566 C1572 1.465 . S
C1567 C1562 1.399 . S
C1567 C1566 1.394 . S
C1567 C1568 1.516 . S
C1568 C1567 1.516 . S
C1568 C1569 1.502 . S
C1568 C1570 1.561 . S
C1568 C1571 1.526 . S
C1569 H1553 0.959 . S
C1569 H1554 0.959 . S
C1569 H1555 0.961 . S
C1569 C1568 1.502 . S
C1570 H1556 0.960 . S
C1570 H1557 0.961 . S
C1570 H1558 0.959 . S
C1570 C1568 1.561 . S
C1571 C1568 1.526 . S
C1571 C1572 1.396 . S
C1571 C1576 1.390 . S
C1572 C1566 1.465 . S
C1572 C1571 1.396 . S
C1572 C1573 1.399 . S
C1573 H1559 0.929 . S
C1573 C1572 1.399 . S
C1573 C1574 1.385 . S
C1574 H1560 0.931 . S
C1574 C1573 1.385 . S
C1574 C1575 1.389 . S
C1575 C1574 1.389 . S
C1575 C1576 1.387 . S
C1576 H1561 0.930 . S
C1576 C1571 1.390 . S
C1576 C1575 1.387 . S
H1577 C1589 0.930 . S
H1578 C1591 0.930 . S
H1579 C1592 0.930 . S
H1580 C1596 0.959 . S
H1581 C1596 0.959 . S
H1582 C1596 0.961 . S
H1583 C1597 0.960 . S
H1584 C1597 0.961 . S
H1585 C1597 0.959 . S
H1586 C1600 0.929 . S
H1587 C1601 0.931 1_556 S
H1588 C1603 0.930 . S
C1589 H1577 0.930 . S
C1589 C1590 1.399 . S
C1589 C1594 1.399 . S
C1590 C1589 1.399 . S
C1590 C1591 1.376 . S
C1591 H1578 0.930 . S
C1591 C1590 1.376 . S
C1591 C1592 1.388 . S
C1592 H1579 0.930 . S
C1592 C1591 1.388 . S
C1592 C1593 1.390 . S
C1593 C1592 1.390 . S
C1593 C1594 1.394 . S
C1593 C1599 1.465 . S
C1594 C1589 1.399 . S
C1594 C1593 1.394 . S
C1594 C1595 1.516 . S
C1595 C1594 1.516 . S
C1595 C1596 1.502 . S
C1595 C1597 1.561 . S
C1595 C1598 1.526 . S
C1596 H1580 0.959 . S
C1596 H1581 0.959 . S
C1596 H1582 0.961 . S
C1596 C1595 1.502 . S
C1597 H1583 0.960 . S
C1597 H1584 0.961 . S
C1597 H1585 0.959 . S
C1597 C1595 1.561 . S
C1598 C1595 1.526 . S
C1598 C1599 1.396 . S
C1598 C1603 1.390 . S
C1599 C1593 1.465 . S
C1599 C1598 1.396 . S
C1599 C1600 1.399 . S
C1600 H1586 0.929 . S
C1600 C1599 1.399 . S
C1600 C1601 1.385 . S
C1601 H1587 0.931 1_554 S
C1601 C1600 1.385 . S
C1601 C1602 1.389 . S
C1602 C1601 1.389 . S
C1602 C1603 1.387 . S
C1603 H1588 0.930 . S
C1603 C1598 1.390 . S
C1603 C1602 1.387 . S
H1604 C1616 0.930 . S
H1605 C1618 0.930 . S
H1606 C1619 0.930 . S
H1607 C1623 0.959 . S
H1608 C1623 0.959 . S
H1609 C1623 0.961 . S
H1610 C1624 0.960 . S
H1611 C1624 0.961 . S
H1612 C1624 0.959 . S
H1613 C1627 0.929 . S
H1614 C1628 0.931 . S
H1615 C1630 0.930 . S
C1616 H1604 0.930 . S
C1616 C1617 1.399 . S
C1616 C1621 1.399 . S
C1617 C1616 1.399 . S
C1617 C1618 1.376 . S
C1618 H1605 0.930 . S
C1618 C1617 1.376 . S
C1618 C1619 1.388 . S
C1619 H1606 0.930 . S
C1619 C1618 1.388 . S
C1619 C1620 1.390 . S
C1620 C1619 1.390 . S
C1620 C1621 1.394 . S
C1620 C1626 1.465 . S
C1621 C1616 1.399 . S
C1621 C1620 1.394 . S
C1621 C1622 1.516 . S
C1622 C1621 1.516 . S
C1622 C1623 1.502 . S
C1622 C1624 1.561 . S
C1622 C1625 1.526 . S
C1623 H1607 0.959 . S
C1623 H1608 0.959 . S
C1623 H1609 0.961 . S
C1623 C1622 1.502 . S
C1624 H1610 0.960 . S
C1624 H1611 0.961 . S
C1624 H1612 0.959 . S
C1624 C1622 1.561 . S
C1625 C1622 1.526 . S
C1625 C1626 1.396 . S
C1625 C1630 1.390 . S
C1626 C1620 1.465 . S
C1626 C1625 1.396 . S
C1626 C1627 1.399 . S
C1627 H1613 0.929 . S
C1627 C1626 1.399 . S
C1627 C1628 1.385 . S
C1628 H1614 0.931 . S
C1628 C1627 1.385 . S
C1628 C1629 1.389 . S
C1629 C1628 1.389 . S
C1629 C1630 1.387 . S
C1630 H1615 0.930 . S
C1630 C1625 1.390 . S
C1630 C1629 1.387 . S
H1631 C1643 0.930 . S
H1632 C1645 0.930 . S
H1633 C1646 0.930 . S
H1634 C1650 0.959 . S
H1635 C1650 0.959 . S
H1636 C1650 0.961 . S
H1637 C1651 0.960 . S
H1638 C1651 0.961 . S
H1639 C1651 0.959 . S
H1640 C1654 0.929 . S
H1641 C1655 0.931 . S
H1642 C1657 0.930 . S
C1643 H1631 0.930 . S
C1643 C1644 1.399 . S
C1643 C1648 1.399 . S
C1644 C1643 1.399 . S
C1644 C1645 1.376 . S
C1645 H1632 0.930 . S
C1645 C1644 1.376 . S
C1645 C1646 1.388 . S
C1646 H1633 0.930 . S
C1646 C1645 1.388 . S
C1646 C1647 1.390 . S
C1647 C1646 1.390 . S
C1647 C1648 1.394 . S
C1647 C1653 1.465 . S
C1648 C1643 1.399 . S
C1648 C1647 1.394 . S
C1648 C1649 1.516 . S
C1649 C1648 1.516 . S
C1649 C1650 1.502 . S
C1649 C1651 1.561 . S
C1649 C1652 1.526 . S
C1650 H1634 0.959 . S
C1650 H1635 0.959 . S
C1650 H1636 0.961 . S
C1650 C1649 1.502 . S
C1651 H1637 0.960 . S
C1651 H1638 0.961 . S
C1651 H1639 0.959 . S
C1651 C1649 1.561 . S
C1652 C1649 1.526 . S
C1652 C1653 1.396 . S
C1652 C1657 1.390 . S
C1653 C1647 1.465 . S
C1653 C1652 1.396 . S
C1653 C1654 1.399 . S
C1654 H1640 0.929 . S
C1654 C1653 1.399 . S
C1654 C1655 1.385 . S
C1655 H1641 0.931 . S
C1655 C1654 1.385 . S
C1655 C1656 1.389 . S
C1656 C1655 1.389 . S
C1656 C1657 1.387 . S
C1657 H1642 0.930 . S
C1657 C1652 1.390 . S
C1657 C1656 1.387 . S
H1658 C1670 0.930 . S
H1659 C1672 0.930 . S
H1660 C1673 0.930 . S
H1661 C1677 0.959 . S
H1662 C1677 0.959 . S
H1663 C1677 0.961 . S
H1664 C1678 0.960 . S
H1665 C1678 0.961 . S
H1666 C1678 0.959 . S
H1667 C1681 0.929 . S
H1668 C1682 0.931 . S
H1669 C1684 0.930 . S
C1670 H1658 0.930 . S
C1670 C1671 1.399 . S
C1670 C1675 1.399 . S
C1671 C1670 1.399 . S
C1671 C1672 1.376 . S
C1672 H1659 0.930 . S
C1672 C1671 1.376 . S
C1672 C1673 1.388 . S
C1673 H1660 0.930 . S
C1673 C1672 1.388 . S
C1673 C1674 1.390 . S
C1674 C1673 1.390 . S
C1674 C1675 1.394 . S
C1674 C1680 1.465 . S
C1675 C1670 1.399 . S
C1675 C1674 1.394 . S
C1675 C1676 1.516 . S
C1676 C1675 1.516 . S
C1676 C1677 1.502 . S
C1676 C1678 1.561 . S
C1676 C1679 1.526 . S
C1677 H1661 0.959 . S
C1677 H1662 0.959 . S
C1677 H1663 0.961 . S
C1677 C1676 1.502 . S
C1678 H1664 0.960 . S
C1678 H1665 0.961 . S
C1678 H1666 0.959 . S
C1678 C1676 1.561 . S
C1679 C1676 1.526 . S
C1679 C1680 1.396 . S
C1679 C1684 1.390 . S
C1680 C1674 1.465 . S
C1680 C1679 1.396 . S
C1680 C1681 1.399 . S
C1681 H1667 0.929 . S
C1681 C1680 1.399 . S
C1681 C1682 1.385 . S
C1682 H1668 0.931 . S
C1682 C1681 1.385 . S
C1682 C1683 1.389 . S
C1683 C1682 1.389 . S
C1683 C1684 1.387 . S
C1684 H1669 0.930 . S
C1684 C1679 1.390 . S
C1684 C1683 1.387 . S
H1685 C1697 0.930 . S
H1686 C1699 0.930 . S
H1687 C1700 0.930 . S
H1688 C1704 0.959 . S
H1689 C1704 0.959 . S
H1690 C1704 0.961 . S
H1691 C1705 0.960 . S
H1692 C1705 0.961 . S
H1693 C1705 0.959 . S
H1694 C1708 0.929 . S
H1695 C1709 0.931 . S
H1696 C1711 0.930 . S
C1697 H1685 0.930 . S
C1697 C1698 1.399 . S
C1697 C1702 1.399 . S
C1698 C1697 1.399 . S
C1698 C1699 1.376 . S
C1699 H1686 0.930 . S
C1699 C1698 1.376 . S
C1699 C1700 1.388 . S
C1700 H1687 0.930 . S
C1700 C1699 1.388 . S
C1700 C1701 1.390 . S
C1701 C1700 1.390 . S
C1701 C1702 1.394 . S
C1701 C1707 1.465 . S
C1702 C1697 1.399 . S
C1702 C1701 1.394 . S
C1702 C1703 1.516 . S
C1703 C1702 1.516 . S
C1703 C1704 1.502 . S
C1703 C1705 1.561 . S
C1703 C1706 1.526 . S
C1704 H1688 0.959 . S
C1704 H1689 0.959 . S
C1704 H1690 0.961 . S
C1704 C1703 1.502 . S
C1705 H1691 0.960 . S
C1705 H1692 0.961 . S
C1705 H1693 0.959 . S
C1705 C1703 1.561 . S
C1706 C1703 1.526 . S
C1706 C1707 1.396 . S
C1706 C1711 1.390 . S
C1707 C1701 1.465 . S
C1707 C1706 1.396 . S
C1707 C1708 1.399 . S
C1708 H1694 0.929 . S
C1708 C1707 1.399 . S
C1708 C1709 1.385 . S
C1709 H1695 0.931 . S
C1709 C1708 1.385 . S
C1709 C1710 1.389 . S
C1710 C1709 1.389 . S
C1710 C1711 1.387 . S
C1711 H1696 0.930 . S
C1711 C1706 1.390 . S
C1711 C1710 1.387 . S
C861 C612 1.730 . S
C873 C38 1.736 . S
C888 C91 1.739 . S
C900 C453 1.676 . S
C915 C144 1.729 . S
C927 C506 1.712 . S
C942 C559 1.722 . S
C954 C197 1.732 . S
C969 C250 1.734 . S
C981 C294 1.730 1_554 S
C996 C303 1.742 . S
C1008 C347 1.713 1_556 S
C1023 C400 1.682 1_554 S
C1035 C356 1.736 . S
C1050 C241 1.674 1_556 S
C1062 C409 1.738 . S
C1077 C188 1.730 . S
C1089 C462 1.736 . S
C1104 C515 1.743 . S
C1116 C29 1.697 . S
C1131 C82 1.727 . S
C1143 C568 1.738 . S
C1158 C621 1.743 . S
C1170 C135 1.692 . S
C1185 C674 1.730 . S
C1197 C718 1.718 . S
C1212 C727 1.729 . S
C1224 C771 1.706 . S
C1239 C824 1.703 . S
C1251 C780 1.730 . S
C1266 C665 1.681 . S
C1278 C833 1.732 . S
C1293 C251 1.424 . S
C1305 C39 1.386 . S
C1320 C92 1.391 . S
C1332 C304 1.439 . S
C1347 C145 1.420 . S
C1359 C357 1.387 . S
C1374 C410 1.427 . S
C1386 C198 1.408 . S
C1401 C463 1.430 . S
C1413 C675 1.386 . S
C1428 C728 1.389 . S
C1440 C516 1.423 . S
C1455 C569 1.423 . S
C1467 C781 1.386 . S
C1482 C834 1.419 . S
C1494 C622 1.393 . S
C1509 C764 2.105 . S
C1521 C22 2.118 1_556 S
C1536 C817 2.118 . S
C1548 C75 2.113 1_554 S
C1563 C128 2.141 1_556 S
C1575 C658 2.114 . S
C1590 C711 2.107 . S
C1602 C181 2.113 1_554 S
C1617 C552 2.142 . S
C1629 C234 2.110 . S
C1644 C605 2.092 . S
C1656 C287 2.129 . S
C1671 C340 2.111 . S
C1683 C446 2.111 . S
C1698 C499 2.124 . S
C1710 C393 2.107 . S
