# Generated by pormake.
# Topology fna, (5)-cn, num edge types: 1
# Building blocks:
#     Node 0, Type 0, BuildingBlock: XOMCOT_clean_sbu_1, # of connection points: 5
#     Node 1, Type 0, BuildingBlock: XOMCOT_clean_sbu_1, # of connection points: 5
#     Node 2, Type 0, BuildingBlock: XOMCOT_clean_sbu_1, # of connection points: 5
#     Node 3, Type 0, BuildingBlock: XOMCOT_clean_sbu_1, # of connection points: 5
#     Node 4, Type 0, BuildingBlock: XOMCOT_clean_sbu_1, # of connection points: 5
#     Node 5, Type 0, BuildingBlock: XOMCOT_clean_sbu_1, # of connection points: 5
#     Node 6, Type 0, BuildingBlock: XOMCOT_clean_sbu_1, # of connection points: 5
#     Node 7, Type 0, BuildingBlock: XOMCOT_clean_sbu_1, # of connection points: 5
#     Node 8, Type 0, BuildingBlock: XOMCOT_clean_sbu_1, # of connection points: 5
#     Node 9, Type 0, BuildingBlock: XOMCOT_clean_sbu_1, # of connection points: 5
#     Node 10, Type 0, BuildingBlock: XOMCOT_clean_sbu_1, # of connection points: 5
#     Node 11, Type 0, BuildingBlock: XOMCOT_clean_sbu_1, # of connection points: 5
#     Edge 12, Type (0, 0), BuildingBlock: EZIPEK_clean_linker_0, # of connection points: 2
#     Edge 13, Type (0, 0), BuildingBlock: EZIPEK_clean_linker_0, # of connection points: 2
#     Edge 14, Type (0, 0), BuildingBlock: EZIPEK_clean_linker_0, # of connection points: 2
#     Edge 15, Type (0, 0), BuildingBlock: EZIPEK_clean_linker_0, # of connection points: 2
#     Edge 16, Type (0, 0), BuildingBlock: EZIPEK_clean_linker_0, # of connection points: 2
#     Edge 17, Type (0, 0), BuildingBlock: EZIPEK_clean_linker_0, # of connection points: 2
#     Edge 18, Type (0, 0), BuildingBlock: EZIPEK_clean_linker_0, # of connection points: 2
#     Edge 19, Type (0, 0), BuildingBlock: EZIPEK_clean_linker_0, # of connection points: 2
#     Edge 20, Type (0, 0), BuildingBlock: EZIPEK_clean_linker_0, # of connection points: 2
#     Edge 21, Type (0, 0), BuildingBlock: EZIPEK_clean_linker_0, # of connection points: 2
#     Edge 22, Type (0, 0), BuildingBlock: EZIPEK_clean_linker_0, # of connection points: 2
#     Edge 23, Type (0, 0), BuildingBlock: EZIPEK_clean_linker_0, # of connection points: 2
#     Edge 24, Type (0, 0), BuildingBlock: EZIPEK_clean_linker_0, # of connection points: 2
#     Edge 25, Type (0, 0), BuildingBlock: EZIPEK_clean_linker_0, # of connection points: 2
#     Edge 26, Type (0, 0), BuildingBlock: EZIPEK_clean_linker_0, # of connection points: 2
#     Edge 27, Type (0, 0), BuildingBlock: EZIPEK_clean_linker_0, # of connection points: 2
#     Edge 28, Type (0, 0), BuildingBlock: EZIPEK_clean_linker_0, # of connection points: 2
#     Edge 29, Type (0, 0), BuildingBlock: EZIPEK_clean_linker_0, # of connection points: 2
#     Edge 30, Type (0, 0), BuildingBlock: EZIPEK_clean_linker_0, # of connection points: 2
#     Edge 31, Type (0, 0), BuildingBlock: EZIPEK_clean_linker_0, # of connection points: 2
#     Edge 32, Type (0, 0), BuildingBlock: EZIPEK_clean_linker_0, # of connection points: 2
#     Edge 33, Type (0, 0), BuildingBlock: EZIPEK_clean_linker_0, # of connection points: 2
#     Edge 34, Type (0, 0), BuildingBlock: EZIPEK_clean_linker_0, # of connection points: 2
#     Edge 35, Type (0, 0), BuildingBlock: EZIPEK_clean_linker_0, # of connection points: 2
#     Edge 36, Type (0, 0), BuildingBlock: EZIPEK_clean_linker_0, # of connection points: 2
#     Edge 37, Type (0, 0), BuildingBlock: EZIPEK_clean_linker_0, # of connection points: 2
#     Edge 38, Type (0, 0), BuildingBlock: EZIPEK_clean_linker_0, # of connection points: 2
#     Edge 39, Type (0, 0), BuildingBlock: EZIPEK_clean_linker_0, # of connection points: 2
#     Edge 40, Type (0, 0), BuildingBlock: EZIPEK_clean_linker_0, # of connection points: 2
#     Edge 41, Type (0, 0), BuildingBlock: EZIPEK_clean_linker_0, # of connection points: 2
# Relax obj value: 0.388
# Max RMSD: 0.210
# Mean RMSD: 0.210
data_MOF--net-fna--node1-XOMCOT_clean_sbu_1--edge1-EZIPEK_clean_linker_0
_symmetry_space_group_name_H-M    P1
_symmetry_Int_Tables_number       1
_symmetry_cell_setting            triclinic
loop_
_symmetry_equiv_pos_as_xyz
'x, y, z'
_cell_length_a     34.591716
_cell_length_b     35.107035
_cell_length_c     32.870166
_cell_angle_alpha  90.016769
_cell_angle_beta   89.946969
_cell_angle_gamma 119.10273
loop_
_atom_site_label
_atom_site_type_symbol
_atom_site_fract_x
_atom_site_fract_y
_atom_site_fract_z
_atom_type_partial_charge
C0 C 0.41255 0.35148 0.51637 0.0
C1 C 0.42523 0.36762 0.55487 0.0
N2 N 0.38853 0.35351 0.57764 0.0
N3 N 0.36803 0.32735 0.51486 0.0
C4 C 0.35412 0.32917 0.55285 0.0
H5 H 0.43453 0.35526 0.49142 0.0
Co6 Co 0.33936 0.29331 0.4698 0.0
C7 C 0.2592 0.30815 0.46921 0.0
O8 O 0.26928 0.32898 0.43429 0.0
N9 N 0.313 0.25767 0.42445 0.0
C10 C 0.2693 0.21197 0.37673 0.0
C11 C 0.2753 0.24496 0.40309 0.0
C12 C 0.32947 0.23238 0.41 0.0
N13 N 0.30336 0.20408 0.3814 0.0
O14 O 0.31902 0.24216 0.50224 0.0
H15 H 0.25214 0.25678 0.4072 0.0
H16 H 0.35908 0.23321 0.42175 0.0
O17 O 0.28436 0.29454 0.48437 0.0
C18 C 0.34971 0.23498 0.51442 0.0
O19 O 0.39015 0.2609 0.50141 0.0
N20 N 0.36316 0.34443 0.43807 0.0
C21 C 0.43296 0.42606 0.41717 0.0
C22 C 0.39725 0.42267 0.4401 0.0
C23 C 0.36327 0.38144 0.45126 0.0
C24 C 0.39495 0.34738 0.41166 0.0
C25 C 0.43044 0.38792 0.40115 0.0
H26 H 0.34107 0.37964 0.47503 0.0
H27 H 0.3963 0.31838 0.403 0.0
H28 H 0.32001 0.3112 0.56272 0.0
H29 H 0.45879 0.38686 0.56585 0.0
H30 H 0.24137 0.1941 0.35669 0.0
H31 H 0.39827 0.45148 0.45317 0.0
H32 H 0.45745 0.38927 0.38333 0.0
C33 C 0.05795 0.37768 0.69359 0.0
C34 C 0.04553 0.38238 0.73175 0.0
N35 N 1.00753 0.34637 0.74064 0.0
N36 N 0.02785 0.33881 0.67774 0.0
C37 C 0.99699 0.32047 0.70738 0.0
H38 H 0.0893 0.39998 0.68003 0.0
Co39 Co 0.03929 0.31627 0.63009 0.0
C40 C 0.97236 0.23338 0.63791 0.0
O41 O 0.96152 0.24576 0.60406 0.0
N42 N 0.053 0.29492 0.58257 0.0
C43 C 0.06699 0.2921 0.51684 0.0
C44 C 0.04145 0.29966 0.54446 0.0
C45 C 0.08359 0.28188 0.57714 0.0
N46 N 0.09443 0.28218 0.53765 0.0
O47 O 0.09466 0.32825 0.65653 0.0
H48 H 1.01919 0.31212 0.53727 0.0
H49 H 0.10036 0.27549 0.60166 0.0
O50 O 1.01015 0.25853 0.65369 0.0
C51 C 0.13581 0.34014 0.65416 0.0
O52 O 0.15659 0.35095 0.61905 0.0
N53 N 0.06138 0.37159 0.60592 0.0
C54 C 0.07186 0.45322 0.58662 0.0
C55 C 0.02983 0.41661 0.58712 0.0
C56 C 1.02541 0.37607 0.59663 0.0
C57 C 0.10307 0.40616 0.60189 0.0
C58 C 0.10903 0.44772 0.59258 0.0
H59 H 0.99264 0.34825 0.59959 0.0
H60 H 0.13161 0.40301 0.60887 0.0
H61 H 0.96962 0.28757 0.70624 0.0
H62 H 0.06448 0.40888 0.75263 0.0
H63 H 0.06899 0.29853 0.48448 0.0
H64 H 1.00052 0.41974 0.58228 0.0
H65 H 0.14203 0.47554 0.59209 0.0
C66 C 0.68103 0.05098 0.85568 0.0
C67 C 0.66784 0.04978 0.89516 0.0
N68 N 0.68583 0.03045 0.91752 0.0
N69 N 0.70641 0.03165 0.85276 0.0
C70 C 0.70997 0.02073 0.89153 0.0
H71 H 0.67585 0.06845 0.83133 0.0
Co72 Co 0.73933 0.0368 0.80585 0.0
C73 C 0.71294 0.94417 0.83515 0.0
O74 O 0.67935 0.93965 0.85727 0.0
N75 N 0.77386 0.0455 0.75949 0.0
C76 C 0.80976 0.04087 0.70504 0.0
C77 C 0.77563 0.01761 0.73223 0.0
C78 C 0.80673 0.08512 0.74825 0.0
N79 N 0.82935 0.08328 0.71561 0.0
O80 O 0.7919 0.06234 0.83813 0.0
H81 H 0.75394 0.98271 0.73234 0.0
H82 H 0.81409 0.11506 0.76364 0.0
O83 O 0.73527 0.97863 0.81368 0.0
C84 C 0.80124 0.10082 0.84809 0.0
O85 O 0.77569 0.11576 0.83369 0.0
N86 N 0.68693 0.01529 0.77395 0.0
C87 C 0.6031 1.00457 0.75638 0.0
C88 C 0.60794 0.96996 0.77182 0.0
C89 C 0.65016 0.97577 0.77981 0.0
C90 C 0.68317 0.04758 0.75419 0.0
C91 C 0.64139 0.04287 0.74498 0.0
H92 H 0.65232 0.94954 0.79383 0.0
H93 H 0.71227 0.07904 0.74997 0.0
H94 H 0.73134 1.00783 0.90088 0.0
H95 H 0.648 0.06346 0.90696 0.0
H96 H 0.81949 0.02778 0.67963 0.0
H97 H 0.57915 0.93947 0.78008 0.0
H98 H 0.63898 0.07016 0.73244 0.0
C99 C 0.62538 0.65769 0.02237 0.0
C100 C 0.61744 0.64064 0.06101 0.0
N101 N 0.65617 0.64738 0.07695 0.0
N102 N 0.66895 0.67563 0.01441 0.0
C103 C 0.68659 0.66736 0.04747 0.0
H104 H 0.60158 0.65971 0.00243 0.0
Co105 Co 0.69578 0.71028 0.96987 0.0
C106 C 0.77705 0.69628 0.96576 0.0
O107 O 0.76882 0.6769 0.9302 0.0
N108 N 0.72134 0.74611 0.92416 0.0
C109 C 0.74742 0.77274 0.8624 0.0
C110 C 0.73866 0.73959 0.88963 0.0
C111 C 0.71926 0.78294 0.91675 0.0
N112 N 0.73524 0.79988 0.87984 0.0
O113 O 0.71844 0.76084 0.00494 0.0
H114 H 0.74157 0.71103 0.88303 0.0
H115 H 0.70378 0.79589 0.93684 0.0
O116 O 0.75059 0.70819 0.98096 0.0
C117 C 0.69198 0.77418 0.01686 0.0
O118 O 0.65173 0.75604 0.00187 0.0
N119 N 0.67018 0.65994 0.93759 0.0
C120 C 0.60011 0.57881 0.91661 0.0
C121 C 0.63691 0.58183 0.93728 0.0
C122 C 0.67142 0.62287 0.94816 0.0
C123 C 0.63671 0.65753 0.91394 0.0
C124 C 0.60119 0.61717 0.90316 0.0
H125 H 0.69573 0.62429 0.96949 0.0
H126 H 0.63487 0.68681 0.90747 0.0
H127 H 0.72157 0.67854 0.05117 0.0
H128 H 0.58624 0.62699 0.07715 0.0
H129 H 0.75947 0.77549 0.83155 0.0
H130 H 0.63688 0.55276 0.94835 0.0
H131 H 0.57321 0.61594 0.8872 0.0
C132 C 0.06456 0.67307 0.16862 0.0
C133 C 0.08154 0.67055 0.20575 0.0
N134 N 0.07209 0.6938 0.23243 0.0
N135 N 0.04373 0.69706 0.17225 0.0
C136 C 0.05071 0.71059 0.21129 0.0
H137 H 0.06719 0.65792 0.14099 0.0
Co138 Co 1.01455 0.71091 0.13128 0.0
C139 C 0.08869 0.7897 0.14164 0.0
O140 O 0.10471 0.76705 0.12332 0.0
N141 N 0.98718 0.72515 0.08965 0.0
C142 C 0.9783 0.75279 0.03174 0.0
C143 C 1.00865 0.75113 0.05782 0.0
C144 C 0.94385 0.71134 0.08236 0.0
N145 N 0.93763 0.7277 0.04731 0.0
O146 O 0.96579 0.70289 0.16892 0.0
H147 H 0.04413 0.76723 0.05357 0.0
H148 H 0.91724 0.68902 0.10165 0.0
O149 O 0.04698 0.77141 0.14732 0.0
C150 C 0.9486 0.68227 0.20207 0.0
O151 O 0.96135 0.65585 0.21779 0.0
N152 N 0.9865 0.65253 0.11331 0.0
C153 C 0.97524 0.57047 0.09481 0.0
C154 C 1.00604 0.60717 0.07339 0.0
C155 C 1.01068 0.64799 0.08278 0.0
C156 C 0.95283 0.61643 0.13106 0.0
C157 C 0.94671 0.57487 0.12225 0.0
H158 H 0.03706 0.6768 0.06874 0.0
H159 H 0.93195 0.61895 0.15359 0.0
H160 H 0.03892 0.731 0.22459 0.0
H161 H 0.0979 0.65183 0.21302 0.0
H162 H 0.98537 0.7705 0.00331 0.0
H163 H 0.02818 0.60468 0.05155 0.0
H164 H 0.92187 0.54682 0.1386 0.0
C165 C 0.37735 0.96391 0.3568 0.0
C166 C 0.39915 0.97675 0.39328 0.0
N167 N 0.39345 0.00937 0.40906 0.0
N168 N 0.35653 0.98701 0.34976 0.0
C169 C 0.36598 0.01353 0.38211 0.0
H170 H 0.37498 0.93798 0.33743 0.0
Co171 Co 0.32345 0.98088 0.30368 0.0
C172 C 0.33613 0.07475 0.30534 0.0
O173 O 0.36687 0.09203 0.27718 0.0
N174 N 0.28952 0.97284 0.25688 0.0
C175 C 0.25929 0.98122 0.20012 0.0
C176 C 0.29305 1.00168 0.22793 0.0
C177 C 0.25407 0.93493 0.24551 0.0
N178 N 0.23502 0.93924 0.2113 0.0
O179 O 0.27046 0.95161 0.33596 0.0
H180 H 0.31851 0.03533 0.22671 0.0
H181 H 0.24223 0.90466 0.26205 0.0
O182 O 0.32151 0.03495 0.31535 0.0
C183 C 0.25741 0.91328 0.34945 0.0
O184 O 0.27811 0.89205 0.33822 0.0
N185 N 0.37688 1.00804 0.27374 0.0
C186 C 0.46167 0.02091 0.25793 0.0
C187 C 0.45574 0.05075 0.28161 0.0
C188 C 0.4131 0.04372 0.28928 0.0
C189 C 0.38239 0.9811 0.24722 0.0
C190 C 0.42475 0.98708 0.2387 0.0
H191 H 0.40939 0.06327 0.31266 0.0
H192 H 0.35379 0.95184 0.23653 0.0
H193 H 0.35039 0.03318 0.38653 0.0
H194 H 0.41483 0.96031 0.40794 0.0
H195 H 0.25307 0.99584 0.17371 0.0
H196 H 0.4835 0.07687 0.29733 0.0
H197 H 0.42825 0.96324 0.22045 0.0
C198 C 0.69417 0.59684 0.3007 0.0
C199 C 0.67787 0.58641 0.26185 0.0
N200 N 0.68209 0.6228 0.24416 0.0
N201 N 0.70946 0.63974 0.30699 0.0
C202 C 0.70023 0.6544 0.27256 0.0
H203 H 0.69755 0.57528 0.32213 0.0
Co204 Co 0.74291 0.66733 0.35208 0.0
C205 C 0.73186 0.74945 0.35127 0.0
O206 O 0.70489 0.73746 0.38261 0.0
N207 N 0.77794 0.69264 0.39843 0.0
C208 C 0.80874 0.72567 0.45693 0.0
C209 C 0.77512 0.71647 0.42945 0.0
C210 C 0.81287 0.68711 0.40828 0.0
N211 N 0.83233 0.70713 0.44327 0.0
O212 O 0.79518 0.6867 0.31936 0.0
H213 H 0.74974 0.72559 0.43289 0.0
H214 H 0.82366 0.66807 0.39063 0.0
O215 O 0.74538 0.72361 0.33818 0.0
C216 C 0.80915 0.66049 0.30929 0.0
O217 O 0.78995 0.62092 0.32461 0.0
N218 N 0.69015 0.6454 0.38218 0.0
C219 C 0.60455 0.58213 0.40305 0.0
C220 C 0.6115 0.61737 0.37842 0.0
C221 C 0.65449 0.64789 0.36729 0.0
C222 C 0.68404 0.61359 0.40933 0.0
C223 C 0.64134 0.58133 0.42003 0.0
H224 H 0.65849 0.67015 0.34296 0.0
H225 H 0.71209 0.61027 0.41916 0.0
H226 H 0.7091 0.68796 0.26723 0.0
H227 H 0.66637 0.55526 0.24689 0.0
H228 H 0.81501 0.7439 0.48497 0.0
H229 H 0.5838 0.61865 0.36444 0.0
H230 H 0.63709 0.55433 0.43901 0.0
C231 C 0.11254 0.69629 0.4654 0.0
C232 C 0.11289 0.68503 0.42542 0.0
N233 N 0.08685 0.69653 0.40446 0.0
N234 N 0.08595 0.71423 0.46943 0.0
C235 C 0.07066 0.71389 0.43164 0.0
H236 H 0.13242 0.69399 0.48963 0.0
Co237 Co 0.08321 0.74264 0.51604 0.0
C238 C 0.98394 0.70879 0.51835 0.0
O239 O 0.97839 0.68939 0.55375 0.0
N240 N 0.08429 0.77377 0.563 0.0
C241 C 0.07582 0.8131 0.61203 0.0
C242 C 0.05427 0.78021 0.584 0.0
C243 C 0.12367 0.80326 0.57894 0.0
N244 N 0.11944 0.82749 0.60857 0.0
O245 O 0.10389 0.79504 0.48532 0.0
H246 H 1.01932 0.76474 0.57816 0.0
H247 H 0.1552 0.80833 0.56764 0.0
O248 O 1.02245 0.72899 0.50231 0.0
C249 C 0.14428 0.81176 0.47512 0.0
O250 O 0.16749 0.79411 0.48923 0.0
N251 N 0.06538 0.69063 0.54568 0.0
C252 C 0.06526 0.61411 0.56885 0.0
C253 C 0.03299 0.6126 0.54225 0.0
C254 C 0.03384 0.6513 0.53071 0.0
C255 C 0.09508 0.69219 0.57387 0.0
C256 C 0.09554 0.65419 0.58598 0.0
H257 H 1.01244 0.64996 0.50621 0.0
H258 H 0.12145 0.72328 0.58398 0.0
H259 H 0.05012 0.72816 0.42376 0.0
H260 H 0.1326 0.67185 0.41228 0.0
H261 H 0.06092 0.82697 0.63189 0.0
H262 H 1.00956 0.58219 0.52804 0.0
H263 H 0.12122 0.65644 0.60628 0.0
C264 C 0.42487 0.07524 0.63704 0.0
C265 C 0.43655 0.07034 0.5983 0.0
N266 N 0.39927 0.04536 0.57728 0.0
N267 N 0.38043 0.05356 0.64036 0.0
C268 C 0.36565 0.03485 0.60365 0.0
H269 H 0.44713 0.09517 0.66081 0.0
Co270 Co 0.35217 0.0595 0.68584 0.0
C271 C 0.27163 0.96757 0.68408 0.0
O272 O 0.28602 0.95257 0.71364 0.0
N273 N 0.32511 0.06883 0.73212 0.0
C274 C 0.28504 0.06283 0.78741 0.0
C275 C 0.29796 0.04085 0.76063 0.0
C276 C 0.32885 0.10778 0.74297 0.0
N277 N 0.30471 0.10501 0.77626 0.0
O278 O 0.33288 0.0918 0.65293 0.0
H279 H 0.28813 1.00672 0.76234 0.0
H280 H 0.34859 0.13785 0.72669 0.0
O281 O 0.2959 1.00677 0.67187 0.0
C282 C 0.36013 0.13134 0.64451 0.0
O283 O 0.39826 0.15088 0.66365 0.0
N284 N 0.37475 0.02894 0.71654 0.0
C285 C 0.43536 1.00256 0.74571 0.0
C286 C 0.40617 0.98104 0.71317 0.0
C287 C 0.37613 0.99404 0.69974 0.0
C288 C 0.403 0.05133 0.7473 0.0
C289 C 0.43356 0.03918 0.76183 0.0
H290 H 0.35703 0.97857 0.67278 0.0
H291 H 0.40488 0.0813 0.7581 0.0
H292 H 0.33117 0.01598 0.59561 0.0
H293 H 0.46972 0.08547 0.58586 0.0
H294 H 0.26293 0.04898 0.81311 0.0
H295 H 0.40806 0.95655 0.69496 0.0
H296 H 0.45768 0.06113 0.78329 0.0
C297 C 0.35565 0.40641 0.79757 0.0
C298 C 0.38015 0.41674 0.76264 0.0
N299 N 0.37398 0.37957 0.74443 0.0
N300 N 0.33232 0.36294 0.80111 0.0
C301 C 0.343 0.34739 0.76802 0.0
H302 H 0.35365 0.42916 0.81853 0.0
Co303 Co 0.29494 0.33692 0.84457 0.0
C304 C 0.30222 0.2533 0.84997 0.0
O305 O 0.32526 0.26562 0.88376 0.0
N306 N 0.25618 0.31254 0.88943 0.0
C307 C 0.22764 0.28734 0.95089 0.0
C308 C 0.26145 0.29501 0.92423 0.0
C309 C 0.21898 0.31541 0.89604 0.0
N310 N 0.2011 0.30031 0.93301 0.0
O311 O 0.24585 0.32054 0.80831 0.0
H312 H 0.28966 0.29105 0.93144 0.0
H313 H 0.20637 0.33061 0.87535 0.0
O314 O 0.29157 0.27968 0.83294 0.0
C315 C 0.23726 0.35079 0.79849 0.0
O316 O 0.25653 0.38775 0.8187 0.0
N317 N 0.34549 0.35754 0.87811 0.0
C318 C 0.43021 0.42108 0.90132 0.0
C319 C 0.42419 0.3848 0.87875 0.0
C320 C 0.38165 0.35397 0.86653 0.0
C321 C 0.35055 0.39035 0.90357 0.0
C322 C 0.39275 0.42268 0.91543 0.0
H323 H 0.37871 0.33072 0.84355 0.0
H324 H 0.32231 0.39452 0.91074 0.0
H325 H 0.32683 0.31312 0.76075 0.0
H326 H 0.39864 0.44952 0.75119 0.0
H327 H 0.22413 0.27545 0.98181 0.0
H328 H 0.45245 0.38287 0.86697 0.0
H329 H 0.39626 0.45045 0.93273 0.0
C330 C 0.92962 0.32595 0.96729 0.0
C331 C 0.93054 0.33616 0.92677 0.0
N332 N 0.96184 0.33003 0.90818 0.0
N333 N 0.95968 0.31277 0.97393 0.0
C334 C 0.97986 0.31705 0.93779 0.0
H335 H 0.90593 0.32437 0.98964 0.0
Co336 Co 0.9609 0.28281 0.01978 0.0
C337 C 0.06026 0.31265 0.01541 0.0
O338 O 0.07168 0.33844 0.04727 0.0
N339 N 0.95963 0.25053 0.06609 0.0
C340 C 0.97327 0.22129 0.12077 0.0
C341 C 0.99142 0.2542 0.09227 0.0
C342 C 0.92243 0.21553 0.07988 0.0
N343 N 0.92986 0.19723 0.11283 0.0
O344 O 0.9351 0.23075 0.98779 0.0
H345 H 1.02561 0.27884 0.09127 0.0
H346 H 0.89025 0.20331 0.06609 0.0
O347 O 1.01978 0.29157 0.00415 0.0
C348 C 0.89371 0.21322 0.98078 0.0
O349 O 0.86988 0.22681 0.0009 0.0
N350 N 0.98306 0.33483 0.05001 0.0
C351 C 0.98655 0.41208 0.07559 0.0
C352 C 1.01603 0.41283 0.04609 0.0
C353 C 1.01362 0.37376 0.03353 0.0
C354 C 0.95634 0.33407 0.08097 0.0
C355 C 0.95776 0.37253 0.09447 0.0
H356 H 0.03272 0.37446 0.00728 0.0
H357 H 0.93059 0.30324 0.09242 0.0
H358 H 1.0047 0.30733 0.93237 0.0
H359 H 0.90804 0.34471 0.9116 0.0
H360 H 0.99051 0.21533 0.1453 0.0
H361 H 0.03819 0.44288 0.03058 0.0
H362 H 0.93419 0.37096 0.11703 0.0
C363 C 0.63773 0.9416 0.13627 0.0
C364 C 0.62691 0.95407 0.10062 0.0
N365 N 0.6638 0.98721 0.08399 0.0
N366 N 0.68158 0.96497 0.14186 0.0
C367 C 0.69684 0.99128 0.10907 0.0
H368 H 0.61514 0.91643 0.1567 0.0
Co369 Co 0.70836 0.95781 0.18785 0.0
C370 C 0.78686 0.05023 0.19108 0.0
O371 O 0.77127 0.06148 0.22259 0.0
N372 N 0.73338 0.94709 0.23436 0.0
C373 C 0.77655 0.94693 0.28462 0.0
C374 C 0.76828 0.97267 0.25829 0.0
C375 C 0.72066 0.90608 0.24741 0.0
N376 N 0.74663 0.90506 0.27752 0.0
O377 O 0.73075 0.92741 0.15555 0.0
H378 H 0.78801 1.00751 0.25622 0.0
H379 H 0.69383 0.87724 0.23399 0.0
O380 O 0.76383 0.01202 0.17625 0.0
C381 C 0.70208 0.88953 0.14393 0.0
O382 O 0.66158 0.87282 0.1582 0.0
N383 N 0.68331 0.98619 0.21857 0.0
C384 C 0.62362 0.01273 0.24989 0.0
C385 C 0.6532 0.03522 0.21784 0.0
C386 C 0.68269 0.02205 0.20329 0.0
C387 C 0.65419 0.9625 0.24838 0.0
C388 C 0.624 0.97469 0.2639 0.0
H389 H 0.70275 0.03902 0.17724 0.0
H390 H 0.65164 0.93187 0.25785 0.0
H391 H 0.73168 0.0119 0.10347 0.0
H392 H 0.59419 0.93766 0.08761 0.0
H393 H 0.80335 0.95792 0.30636 0.0
H394 H 0.65215 0.06106 0.20109 0.0
H395 H 0.59931 0.95187 0.28443 0.0
C396 C 0.38081 0.16434 0.57481 0.0
C397 C 0.35226 0.15281 0.60906 0.0
C398 C 0.31422 0.18924 0.57831 0.0
C399 C 0.34239 0.19965 0.5436 0.0
N400 N 0.38849 0.18068 0.50296 0.0
N401 N 0.28441 0.14405 0.63828 0.0
C402 C 0.37114 0.18179 0.54004 0.0
C403 C 0.31628 0.16155 0.60893 0.0
N404 N 0.41724 0.15878 0.57508 0.0
N405 N 0.28777 0.20771 0.58398 0.0
H406 H 0.28563 0.12493 0.66187 0.0
H407 H 0.25496 0.14532 0.63716 0.0
H408 H 0.28376 0.22752 0.56295 0.0
H409 H 0.27187 0.20589 0.61142 0.0
H410 H 0.44167 0.17154 0.55271 0.0
H411 H 0.42482 0.14399 0.59875 0.0
H412 H 0.40817 0.1662 0.49813 0.0
H413 H 0.37888 0.18975 0.47618 0.0
C414 C 0.20021 0.38129 0.70062 0.0
C415 C 0.16068 0.34245 0.69169 0.0
C416 C 0.16827 0.31032 0.75558 0.0
C417 C 0.2107 0.3471 0.76159 0.0
N418 N 0.27134 0.41273 0.73319 0.0
N419 N 0.11092 0.26663 0.70713 0.0
C420 C 0.22789 0.38125 0.73228 0.0
C421 C 0.14561 0.30596 0.71822 0.0
N422 N 0.21072 0.41893 0.68002 0.0
N423 N 0.14879 0.2804 0.78598 0.0
H424 H 0.09424 0.26156 0.67957 0.0
H425 H 0.1015 0.23801 0.72345 0.0
H426 H 0.16384 0.28282 0.81403 0.0
H427 H 0.11602 0.25554 0.78481 0.0
H428 H 0.23695 0.44911 0.68838 0.0
H429 H 0.19053 0.42102 0.65763 0.0
H430 H 0.28632 0.43543 0.70992 0.0
H431 H 0.2937 0.41325 0.75453 0.0
C432 C 0.85151 0.17393 0.87448 0.0
C433 C 0.83699 0.12885 0.87721 0.0
C434 C 0.86992 0.14148 0.94555 0.0
C435 C 0.87429 0.18376 0.94546 0.0
N436 N 0.85892 0.23607 0.91105 0.0
N437 N 0.84067 0.07112 0.91589 0.0
C438 C 0.86206 0.19884 0.91035 0.0
C439 C 0.84886 0.11294 0.91236 0.0
N440 N 0.85536 0.19298 0.83739 0.0
N441 N 0.88357 0.12731 0.97833 0.0
H442 H 0.82702 0.04775 0.89312 0.0
H443 H 0.82702 0.04775 0.89312 0.0
H444 H 0.89821 0.14686 0.00368 0.0
H445 H 0.88045 0.09622 0.97979 0.0
H446 H 0.86885 0.22656 0.83366 0.0
H447 H 0.85024 0.17561 0.81032 0.0
H448 H 0.86272 0.25383 0.93736 0.0
H449 H 0.8471 0.24618 0.88647 0.0
C450 C 0.73046 0.85049 0.04532 0.0
C451 C 0.70341 0.80502 0.05147 0.0
C452 C 0.69439 0.81869 0.12282 0.0
C453 C 0.71227 0.86356 0.11446 0.0
N454 N 0.74554 0.92271 0.06575 0.0
N455 N 0.65329 0.74652 0.09551 0.0
C456 C 0.73074 0.87999 0.07538 0.0
C457 C 0.68388 0.78924 0.09016 0.0
N458 N 0.75497 0.86548 0.01058 0.0
N459 N 0.68709 0.80415 0.1621 0.0
H460 H 0.64368 0.72399 0.07213 0.0
H461 H 0.63492 0.73447 0.12215 0.0
H462 H 0.69546 0.82536 0.1868 0.0
H463 H 0.67767 0.77203 0.16997 0.0
H464 H 0.77824 0.89811 0.00604 0.0
H465 H 0.75501 0.84466 0.98798 0.0
H466 H 0.75414 0.93492 0.03629 0.0
H467 H 0.7464 0.94554 0.08639 0.0
C468 C 0.86814 0.65664 0.21268 0.0
C469 C 0.91253 0.68601 0.22306 0.0
C470 C 0.88763 0.70701 0.28511 0.0
C471 C 0.84406 0.67262 0.27783 0.0
N472 N 0.7919 0.61509 0.23432 0.0
N473 N 0.96536 0.7422 0.26651 0.0
C474 C 0.83401 0.64786 0.24127 0.0
C475 C 0.92239 0.71256 0.25828 0.0
N476 N 0.85864 0.63761 0.17513 0.0
N477 N 0.89589 0.73394 0.31787 0.0
H478 H 0.99033 0.75013 0.24521 0.0
H479 H 0.97649 0.75852 0.29405 0.0
H480 H 0.872 0.72962 0.33939 0.0
H481 H 0.92577 0.76217 0.32287 0.0
H482 H 0.82676 0.61931 0.16365 0.0
H483 H 0.88303 0.64371 0.15366 0.0
H484 H 0.7834 0.59189 0.21144 0.0
H485 H 0.76528 0.60984 0.25264 0.0
C486 C 0.17908 0.87267 0.37516 0.0
C487 C 0.22511 0.89588 0.38339 0.0
C488 C 0.20999 0.88029 0.45596 0.0
C489 C 0.16607 0.84907 0.44657 0.0
N490 N 0.1056 0.82004 0.39862 0.0
N491 N 0.28491 0.9207 0.43195 0.0
C492 C 0.14926 0.84731 0.40673 0.0
C493 C 0.24066 0.90019 0.42402 0.0
N494 N 0.16419 0.87453 0.33714 0.0
N495 N 0.22236 0.88993 0.49573 0.0
H496 H 0.30835 0.93432 0.40918 0.0
H497 H 0.29832 0.92082 0.46034 0.0
H498 H 0.20009 0.87496 0.51956 0.0
H499 H 0.25283 0.91548 0.50481 0.0
H500 H 0.13094 0.86128 0.32952 0.0
H501 H 0.1856 0.89219 0.31358 0.0
H502 H 0.09256 0.81182 0.3694 0.0
H503 H 0.08202 0.80546 0.42138 0.0
C504 C 0.31776 0.17209 0.32033 0.0
C505 C 0.30829 0.16963 0.36235 0.0
C506 C 0.30426 0.09772 0.36579 0.0
C507 C 0.31835 0.10234 0.32429 0.0
N508 N 0.31709 0.13345 0.25922 0.0
N509 N 0.29381 0.13179 0.42618 0.0
C510 C 0.31905 0.13666 0.3007 0.0
C511 C 0.30198 0.13291 0.38538 0.0
N512 N 0.32761 0.20941 0.29954 0.0
N513 N 0.28885 0.0587 0.38547 0.0
H514 H 0.28743 0.15457 0.44064 0.0
H515 H 0.29586 0.1099 0.44623 0.0
H516 H 0.28206 0.02986 0.37102 0.0
H517 H 0.2761 0.05278 0.41486 0.0
H518 H 0.3398 0.21542 0.2699 0.0
H519 H 0.32744 0.23613 0.31327 0.0
H520 H 0.31361 0.15541 0.24036 0.0
H521 H 0.31276 0.10559 0.24395 0.0
C522 C 0.18249 0.25779 0.49722 0.0
C523 C 0.21813 0.30081 0.49095 0.0
C524 C 0.17208 0.3312 0.51691 0.0
C525 C 0.13658 0.28834 0.52311 0.0
N526 N 0.10929 0.21134 0.52604 0.0
N527 N 0.25008 0.37799 0.50311 0.0
C528 C 0.14236 0.25178 0.51547 0.0
C529 C 0.21374 0.33738 0.50304 0.0
N530 N 0.18622 0.22276 0.48411 0.0
N531 N 0.16574 0.36615 0.524 0.0
H532 H 0.2812 0.3838 0.49375 0.0
H533 H 0.25063 0.40541 0.51579 0.0
H534 H 0.13732 0.36341 0.53763 0.0
H535 H 0.18773 0.3978 0.51478 0.0
H536 H 0.16002 0.191 0.48341 0.0
H537 H 0.2152 0.22553 0.47176 0.0
H538 H 0.1124 0.18332 0.52541 0.0
H539 H 0.07927 0.20634 0.53816 0.0
C540 C 0.909 0.1253 0.69644 0.0
C541 C 0.86564 0.12004 0.69568 0.0
C542 C 0.89471 0.19233 0.66496 0.0
C543 C 0.9371 0.19538 0.66057 0.0
N544 N 0.98327 0.16187 0.66807 0.0
N545 N 0.81582 0.14464 0.67217 0.0
C546 C 0.94404 0.16113 0.67539 0.0
C547 C 0.85817 0.15249 0.67787 0.0
N548 N 0.91693 0.09687 0.71847 0.0
N549 N 0.88958 0.22814 0.65877 0.0
H550 H 0.78829 0.11522 0.68035 0.0
H551 H 0.80806 0.16532 0.65562 0.0
H552 H 0.91573 0.25879 0.6515 0.0
H553 H 0.8604 0.22867 0.66547 0.0
H554 H 0.94854 0.1013 0.72373 0.0
H555 H 0.89206 0.07079 0.73446 0.0
H556 H 0.9886 0.13573 0.67445 0.0
H557 H 1.00945 0.18727 0.65262 0.0
C558 C 0.69069 0.86537 0.82677 0.0
C559 C 0.72427 0.90827 0.83628 0.0
C560 C 0.76969 0.87848 0.865 0.0
C561 C 0.73328 0.83602 0.86126 0.0
N562 N 0.65906 0.7877 0.83934 0.0
N563 N 0.79716 0.95655 0.86249 0.0
C564 C 0.6939 0.82906 0.84189 0.0
C565 C 0.76465 0.91515 0.85411 0.0
N566 N 0.65633 0.85961 0.80237 0.0
N567 N 0.80889 0.88334 0.87932 0.0
H568 H 0.79586 0.98398 0.85251 0.0
H569 H 0.82493 0.96395 0.88007 0.0
H570 H 0.81261 0.85683 0.88843 0.0
H571 H 0.8383 0.91283 0.87974 0.0
H572 H 0.63242 0.82943 0.79146 0.0
H573 H 0.65443 0.88576 0.7895 0.0
H574 H 0.62751 0.78051 0.82993 0.0
H575 H 0.66118 0.76044 0.84889 0.0
C576 C 0.84832 0.74672 0.00207 0.0
C577 C 0.81743 0.70398 0.98875 0.0
C578 C 0.86715 0.67726 0.01316 0.0
C579 C 0.89616 0.71909 0.02908 0.0
N580 N 0.9105 0.79126 0.0461 0.0
N581 N 0.79319 0.62679 0.98989 0.0
C582 C 0.88548 0.7531 0.02576 0.0
C583 C 0.82564 0.66869 -0.00336 0.0
N584 N 0.84358 0.78159 0.99034 0.0
N585 N 0.88011 0.64622 0.01237 0.0
H586 H 0.76196 0.61896 0.97889 0.0
H587 H 0.79569 0.59965 -0.00104 0.0
H588 H 0.91054 0.6517 0.02372 0.0
H589 H 0.86255 0.61655 -0.00273 0.0
H590 H 0.86746 0.81382 -0.00435 0.0
H591 H 0.81779 0.77873 0.9719 0.0
H592 H 0.90203 0.81588 0.0484 0.0
H593 H 0.9376 0.7965 0.06393 0.0
C594 C 0.19848 0.89142 0.15217 0.0
C595 C 0.19583 0.90594 0.19164 0.0
C596 C 0.11786 0.84951 0.19639 0.0
C597 C 0.12061 0.83455 0.15664 0.0
N598 N 0.15827 0.85304 0.09193 0.0
N599 N 0.15039 0.90858 0.24546 0.0
C600 C 0.15932 0.85943 0.133 0.0
C601 C 0.15464 0.8879 0.21197 0.0
N602 N 0.23869 0.90658 0.13375 0.0
N603 N 0.08137 0.82674 0.22016 0.0
H604 H 0.17662 0.93732 0.25675 0.0
H605 H 0.12017 0.89973 0.2595 0.0
H606 H 0.0517 0.80177 0.20939 0.0
H607 H 0.08098 0.83227 0.25127 0.0
H608 H 0.24305 0.89378 0.10662 0.0
H609 H 0.26819 0.92915 0.14749 0.0
H610 H 0.18445 0.8726 0.07269 0.0
H611 H 0.12928 0.83156 0.0767 0.0
C612 C 0.9052 0.66847 0.49298 0.0
C613 C 0.9453 0.70847 0.49774 0.0
C614 C 0.91143 0.74663 0.4623 0.0
C615 C 0.87029 0.70775 0.4621 0.0
N616 N 0.82576 0.63319 0.48267 0.0
N617 N 0.9837 0.78732 0.49313 0.0
C618 C 0.86656 0.66907 0.47902 0.0
C619 C 0.94778 0.74808 0.48392 0.0
N620 N 0.90444 0.62971 0.49986 0.0
N621 N 0.91603 0.78185 0.44077 0.0
H622 H 1.01053 0.79043 0.50999 0.0
H623 H 0.98502 0.81712 0.48745 0.0
H624 H 0.88998 0.78153 0.42452 0.0
H625 H 0.94641 0.80969 0.43598 0.0
H626 H 0.87733 0.59957 0.49302 0.0
H627 H 0.93234 0.62761 0.50838 0.0
H628 H 0.82011 0.60526 0.49853 0.0
H629 H 0.79691 0.63292 0.47298 0.0
C630 C 0.21623 0.94033 0.62399 0.0
C631 C 0.227 0.93751 0.66553 0.0
C632 C 0.16366 0.86337 0.66962 0.0
C633 C 0.15456 0.86522 0.62811 0.0
N634 N 0.16265 0.90856 0.5691 0.0
N635 N 0.19649 0.90478 0.73067 0.0
C636 C 0.17818 0.90465 0.60619 0.0
C637 C 0.19628 0.90148 0.68925 0.0
N638 N 0.24156 0.9766 0.60129 0.0
N639 N 0.14177 0.82481 0.69012 0.0
H640 H 0.21659 0.93399 0.7458 0.0
H641 H 0.17275 0.88076 0.74929 0.0
H642 H 0.11756 0.79635 0.67641 0.0
H643 H 0.15027 0.8204 0.71947 0.0
H644 H 0.24093 0.97676 0.56961 0.0
H645 H 0.26184 1.00709 0.61381 0.0
H646 H 0.17523 0.93769 0.55296 0.0
H647 H 0.13463 0.88311 0.55575 0.0
C648 C 0.29989 0.18044 0.8553 0.0
C649 C 0.29262 0.21007 0.83107 0.0
C650 C 0.28085 0.16125 0.77263 0.0
C651 C 0.29949 0.13966 0.79495 0.0
N652 N 0.33182 0.13269 0.85732 0.0
N653 N 0.26971 0.22353 0.76487 0.0
C654 C 0.31041 0.15036 0.83627 0.0
C655 C 0.2812 0.19912 0.78915 0.0
N656 N 0.29364 0.17872 0.89642 0.0
N657 N 0.2597 0.14346 0.7369 0.0
H658 H 0.25857 0.24423 0.77576 0.0
H659 H 0.26993 0.22189 0.73321 0.0
H660 H 0.25573 0.1138 0.72622 0.0
H661 H 0.24174 0.15505 0.7206 0.0
H662 H 0.29577 0.15564 0.91486 0.0
H663 H 0.27973 0.19564 0.91092 0.0
H664 H 0.34382 0.14252 0.88675 0.0
H665 H 0.34148 0.11171 0.84392 0.0
C666 C 0.13326 0.34742 0.97838 0.0
C667 C 0.09521 0.30896 0.99187 0.0
C668 C 0.125 0.26484 0.9608 0.0
C669 C 0.16497 0.30329 0.95195 0.0
N670 N 0.21047 0.38089 0.95879 0.0
N671 N 0.05797 0.23077 0.00127 0.0
C672 C 0.16999 0.34455 0.96246 0.0
C673 C 0.0917 0.26746 0.9843 0.0
N674 N 0.13371 0.38656 0.9792 0.0
N675 N 0.11869 0.2259 0.94599 0.0
H676 H 0.03362 0.2312 0.01965 0.0
H677 H 0.05632 0.20037 0.00022 0.0
H678 H 0.14265 0.2233 0.92873 0.0
H679 H 0.08859 0.19712 0.9477 0.0
H680 H 0.15876 0.41481 0.96602 0.0
H681 H 0.10693 0.38993 0.98915 0.0
H682 H 0.2174 0.41133 0.96995 0.0
H683 H 0.23829 0.37977 0.94811 0.0
C684 C 0.8576 0.12188 0.19523 0.0
C685 C 0.83043 0.08336 0.1726 0.0
C686 C 0.87968 0.11764 0.11381 0.0
C687 C 0.89806 0.15842 0.13372 0.0
N688 N 0.90224 0.20036 0.19297 0.0
N689 N 0.82214 0.04269 0.11005 0.0
C690 C 0.88652 0.16082 0.17441 0.0
C691 C 0.84336 0.08046 0.13179 0.0
N692 N 0.85811 0.12062 0.23674 0.0
N693 N 0.89903 0.11404 0.07887 0.0
H694 H 0.80438 0.0121 0.12325 0.0
H695 H 0.824 0.04173 0.07845 0.0
H696 H 0.92722 0.14035 0.06665 0.0
H697 H 0.89023 0.08452 0.06446 0.0
H698 H 0.87962 0.1472 0.2544 0.0
H699 H 0.84201 0.09143 0.25294 0.0
H700 H 0.89136 0.20404 0.22155 0.0
H701 H 0.92296 0.22964 0.17823 0.0
C702 C 0.75779 0.84054 0.27194 0.0
C703 C 0.74604 0.86719 0.29548 0.0
C704 C 0.74326 0.82575 0.35623 0.0
C705 C 0.74539 0.79329 0.33185 0.0
N706 N 0.7624 0.77433 0.26554 0.0
N707 N 0.72332 0.88289 0.35945 0.0
C708 C 0.75508 0.80198 0.2894 0.0
C709 C 0.73769 0.85917 0.33749 0.0
N710 N 0.7742 0.85365 0.23359 0.0
N711 N 0.74961 0.82642 0.3973 0.0
H712 H 0.71825 0.90718 0.34637 0.0
H713 H 0.71253 0.87557 0.38949 0.0
H714 H 0.75893 0.80556 0.41154 0.0
H715 H 0.75181 0.8513 0.4161 0.0
H716 H 0.78773 0.83845 0.21593 0.0
H717 H 0.77773 0.88222 0.2205 0.0
H718 H 0.76004 0.77378 0.23393 0.0
H719 H 0.77268 0.75315 0.2769 0.0
C720 C 0.49972 0.48978 0.44933 0.0
C721 C 0.47512 0.46834 0.4138 0.0
C722 C 0.53712 0.5194 0.37151 0.0
C723 C 0.55941 0.54366 0.40677 0.0
N724 N 0.55699 0.55703 0.47842 0.0
N725 N 0.46668 0.4695 0.34107 0.0
C726 C 0.53912 0.53046 0.44545 0.0
C727 C 0.49267 0.48534 0.37486 0.0
N728 N 0.48718 0.47034 0.48661 0.0
N729 N 0.55899 0.52714 0.33519 0.0
H730 H 0.43361 0.44524 0.3425 0.0
H731 H 0.47659 0.48357 0.31237 0.0
H732 H 0.59227 0.55015 0.33162 0.0
H733 H 0.54544 0.50748 0.30966 0.0
H734 H 0.50661 0.48259 0.5126 0.0
H735 H 0.45981 0.43976 0.49103 0.0
H736 H 0.54105 0.55091 0.50651 0.0
H737 H 0.58554 0.58733 0.47662 0.0
C738 C 0.08678 0.51957 0.54558 0.0
C739 C 0.07571 0.49721 0.58329 0.0
C740 C 0.05787 0.55148 0.61198 0.0
C741 C 0.07053 0.57478 0.57473 0.0
N742 N 0.10614 0.58654 0.5092 0.0
N743 N 0.05962 0.49601 0.6548 0.0
C744 C 0.08776 0.56046 0.54244 0.0
C745 C 0.06406 0.51455 0.61729 0.0
N746 N 0.09474 0.50096 0.51236 0.0
N747 N 0.03831 0.56361 0.64164 0.0
H748 H 0.06398 0.46899 0.65979 0.0
H749 H 0.05551 0.50956 0.68154 0.0
H750 H 0.03357 0.59066 0.63892 0.0
H751 H 1.02377 0.54514 0.6676 0.0
H752 H 0.0977 0.513 0.48291 0.0
H753 H 0.09537 0.47158 0.51375 0.0
H754 H 0.12337 0.58013 0.48667 0.0
H755 H 0.10765 0.61675 0.50586 0.0
C756 C 0.54687 0.02364 0.78602 0.0
C757 C 0.5582 1.00125 0.7561 0.0
C758 C 0.48018 0.96195 0.73571 0.0
C759 C 0.47205 0.99218 0.75765 0.0
N760 N 0.48704 0.02308 0.82463 0.0
N761 N 0.53424 0.94866 0.70141 0.0
C762 C 0.5024 0.01529 0.7891 0.0
C763 C 0.52438 0.97011 0.73074 0.0
N764 N 0.57829 0.05306 0.8115 0.0
N765 N 0.44582 0.92192 0.72642 0.0
H766 H 0.5663 0.95408 0.6963 0.0
H767 H 0.51102 0.92844 0.68005 0.0
H768 H 0.41397 0.91191 0.73747 0.0
H769 H 0.45017 0.89706 0.71366 0.0
H770 H 0.57257 0.07359 0.83049 0.0
H771 H 0.61079 0.05919 0.81159 0.0
H772 H 0.50654 0.03588 0.8505 0.0
H773 H 0.45322 0.01095 0.82961 0.0
C774 C 0.54207 0.5188 0.87396 0.0
C775 C 0.55845 0.5363 0.91298 0.0
C776 C 0.49424 0.47413 0.94441 0.0
C777 C 0.47518 0.45987 0.9054 0.0
N778 N 0.47746 0.47443 0.83321 0.0
N779 N 0.54572 0.53488 0.98551 0.0
C780 C 0.49821 0.48368 0.87013 0.0
C781 C 0.53346 0.51504 0.94836 0.0
N782 N 0.56866 0.53531 0.84055 0.0
N783 N 0.47539 0.44822 0.97763 0.0
H784 H 0.57337 0.56538 0.98984 0.0
H785 H 0.52613 0.52298 0.01146 0.0
H786 H 0.44687 0.4179 0.97578 0.0
H787 H 0.49032 0.45491 0.00618 0.0
H788 H 0.56 0.52096 0.81188 0.0
H789 H 0.60114 0.56081 0.84232 0.0
H790 H 0.4911 0.49368 0.80746 0.0
H791 H 0.4448 0.45021 0.82912 0.0
C792 C 1.00631 0.48152 0.11334 0.0
C793 C 0.98172 0.45145 0.08228 0.0
C794 C 0.95274 0.49933 0.05919 0.0
C795 C 0.9759 0.52855 0.09129 0.0
N796 N 1.02001 0.54561 0.15233 0.0
N797 N 0.92677 0.42781 0.02914 0.0
C798 C 1.00123 0.51901 0.11946 0.0
C799 C 0.95348 0.45923 0.05622 0.0
N800 N 0.03554 0.4748 0.1361 0.0
N801 N 0.93089 0.51049 0.03103 0.0
H802 H 0.92713 0.3985 0.02534 0.0
H803 H 0.90198 0.42918 0.01238 0.0
H804 H 0.9281 0.5387 0.03327 0.0
H805 H 0.91774 0.49335 0.00416 0.0
H806 H 0.05832 0.49775 0.15604 0.0
H807 H 0.03904 0.44704 0.1332 0.0
H808 H 0.03466 0.53811 0.17639 0.0
H809 H 1.01843 0.57416 0.15716 0.0
C810 C 0.51152 0.99369 0.28627 0.0
C811 C 0.50524 0.02184 0.25912 0.0
C812 C 0.58481 0.05942 0.24495 0.0
C813 C 0.58819 0.02442 0.26299 0.0
N814 N 0.56551 0.98513 0.32602 0.0
N815 N 0.53718 0.0832 0.21315 0.0
C816 C 0.55452 0.99855 0.29109 0.0
C817 C 0.54235 0.05546 0.23882 0.0
N818 N 0.4767 0.96237 0.30762 0.0
N819 N 0.62192 0.09881 0.24011 0.0
H820 H 0.50657 0.08134 0.20784 0.0
H821 H 0.56279 0.10563 0.19484 0.0
H822 H 0.65254 0.10438 0.25116 0.0
H823 H 0.62113 0.12676 0.23065 0.0
H824 H 0.47892 0.93828 0.32434 0.0
H825 H 0.445 0.95869 0.30651 0.0
H826 H 0.54329 0.96971 0.34974 0.0
H827 H 0.59849 0.99535 0.33337 0.0
C828 C 0.41058 0.41039 0.67772 0.0
C829 C 0.39017 0.37471 0.70482 0.0
C830 C 0.37937 0.32531 0.64795 0.0
C831 C 0.38814 0.35996 0.6207 0.0
N832 N 0.41142 0.43587 0.6095 0.0
N833 N 0.38228 0.30401 0.7178 0.0
C834 C 0.40358 0.40266 0.63558 0.0
C835 C 0.38191 0.33324 0.69065 0.0
N836 N 0.44216 0.45001 0.69145 0.0
N837 N 0.36954 0.28539 0.63285 0.0
H838 H 0.39168 0.31266 0.74804 0.0
H839 H 0.37849 0.27368 0.70999 0.0
H840 H 0.37186 0.28014 0.60196 0.0
H841 H 0.35818 0.2574 0.65053 0.0
H842 H 0.46018 0.47644 0.67218 0.0
H843 H 0.45541 0.45365 0.72063 0.0
H844 H 0.41952 0.46702 0.61965 0.0
H845 H 0.40599 0.43112 0.57823 0.0
C846 C 0.9885 0.30309 0.80425 0.0
C847 C 0.98843 0.3368 0.78068 0.0
C848 C 0.97504 0.368 0.84194 0.0
C849 C 0.97014 0.33174 0.86493 0.0
N850 N 0.96032 0.25844 0.8641 0.0
N851 N 0.97132 0.39515 0.77519 0.0
C852 C 0.97314 0.29723 0.84496 0.0
C853 C 0.97782 0.36696 0.79902 0.0
N854 N 1.00591 0.27847 0.78902 0.0
N855 N 0.98039 0.40476 0.8611 0.0
H856 H 0.97281 0.3945 0.74349 0.0
H857 H 0.96012 0.41574 0.78667 0.0
H858 H 0.98292 0.40846 0.8926 0.0
H859 H 0.98774 0.4334 0.84561 0.0
H860 H 1.01087 0.25664 0.8068 0.0
H861 H 1.01968 0.28292 0.76008 0.0
H862 H 0.95808 0.23122 0.84919 0.0
H863 H 0.94708 0.25171 0.89323 0.0
C864 C 0.63768 0.99549 0.97621 0.0
C865 C 0.68044 0.02315 0.96063 0.0
C866 C 0.70898 0.0419 0.03027 0.0
C867 C 0.66768 1.00845 0.04483 0.0
N868 N 0.59045 0.98439 0.03364 0.0
N869 N 0.75621 0.07744 0.97198 0.0
C870 C 0.6308 0.99369 0.01858 0.0
C871 C 0.71609 0.0479 0.98747 0.0
N872 N 0.6037 0.97028 0.95065 0.0
N873 N 0.73826 0.07151 0.05711 0.0
H874 H 0.76097 0.08523 0.94114 0.0
H875 H 0.78487 0.09306 0.98938 0.0
H876 H 0.72946 0.07239 0.08734 0.0
H877 H 0.76819 0.09828 0.04882 0.0
H878 H 0.57266 0.94706 0.96131 0.0
H879 H 0.60787 0.96973 0.91925 0.0
H880 H 0.56311 0.97647 0.01511 0.0
H881 H 0.58677 0.99181 0.06367 0.0
C882 C 0.70032 0.6734 0.14075 0.0
C883 C 0.66398 0.64056 0.11874 0.0
C884 C 0.63662 0.59869 0.18158 0.0
C885 C 0.6761 0.62836 0.20169 0.0
N886 N 0.75208 0.68555 0.1946 0.0
N887 N 0.60493 0.56593 0.11687 0.0
C888 C 0.71006 0.66324 0.17959 0.0
C889 C 0.63423 0.60127 0.13875 0.0
N890 N 0.72422 0.71489 0.12619 0.0
N891 N 0.6009 0.56924 0.20329 0.0
H892 H 0.60476 0.56554 0.08515 0.0
H893 H 0.58479 0.53562 0.13017 0.0
H894 H 0.60051 0.56841 0.235 0.0
H895 H 0.57027 0.54921 0.18988 0.0
H896 H 0.74844 0.74013 0.14349 0.0
H897 H 0.71647 0.72557 0.09954 0.0
H898 H 0.77835 0.70917 0.17771 0.0
H899 H 0.76178 0.67668 0.22134 0.0
C900 C 0.04496 0.65826 0.2989 0.0
C901 C 0.07623 0.69433 0.27587 0.0
C902 C 0.11486 0.73166 0.33802 0.0
C903 C 0.08272 0.69632 0.36108 0.0
N904 N 1.01531 0.62839 0.3657 0.0
N905 N 0.137 0.76734 0.27217 0.0
C906 C 0.04716 0.66024 0.34207 0.0
C907 C 0.11008 0.73171 0.29512 0.0
N908 N 1.01346 0.62218 0.27924 0.0
N909 N 0.15043 0.76447 0.35733 0.0
H910 H 0.13507 0.76738 0.24049 0.0
H911 H 0.15938 0.79748 0.28436 0.0
H912 H 0.15398 0.76574 0.38888 0.0
H913 H 0.1775 0.78912 0.34224 0.0
H914 H 0.99207 0.59306 0.29367 0.0
H915 H 1.00985 0.62052 0.24773 0.0
H916 H 0.98612 0.60279 0.35446 0.0
H917 H 1.01705 0.62894 0.39741 0.0
C918 C 0.38086 0.05608 0.50674 0.0
C919 C 0.39754 0.03647 0.53435 0.0
C920 C 0.4284 0.0154 0.47711 0.0
C921 C 0.40528 0.02822 0.44977 0.0
N922 N 0.38952 0.08697 0.43959 0.0
N923 N 0.43355 0.99357 0.54574 0.0
C924 C 0.38956 0.05602 0.46461 0.0
C925 C 0.42048 0.01517 0.51943 0.0
N926 N 0.3567 0.07474 0.52034 0.0
N927 N 0.46229 0.00958 0.46318 0.0
H928 H 0.42686 0.99164 0.57686 0.0
H929 H 0.44692 0.97415 0.53604 0.0
H930 H 0.47391 0.01768 0.43338 0.0
H931 H 0.48278 1.00355 0.48222 0.0
H932 H 0.33961 0.08468 0.50076 0.0
H933 H 0.3507 0.07721 0.55092 0.0
H934 H 0.38038 0.10982 0.4489 0.0
H935 H 0.40479 0.09347 0.41109 0.0
loop_
_geom_bond_atom_site_label_1
_geom_bond_atom_site_label_2
_geom_bond_distance
_geom_bond_site_symmetry_2
_ccdc_geom_bond_type
C0 C1 1.351 . S
C0 N3 1.368 . S
C0 H5 0.931 . S
C1 C0 1.351 . S
C1 N2 1.373 . S
C1 H29 0.930 . S
N2 C1 1.373 . S
N2 C4 1.340 . S
N3 C0 1.368 . S
N3 C4 1.321 . S
N3 Co6 2.135 . S
C4 N2 1.340 . S
C4 N3 1.321 . S
C4 H28 0.930 . S
H5 C0 0.931 . S
Co6 N3 2.135 . S
Co6 N9 2.121 . S
Co6 O14 2.055 . S
Co6 O17 2.039 . S
Co6 N20 2.140 . S
C7 O8 1.227 . S
C7 O17 1.265 . S
O8 C7 1.227 . S
N9 Co6 2.121 . S
N9 C11 1.375 . S
N9 C12 1.313 . S
C10 C11 1.338 . S
C10 N13 1.377 . S
C10 H30 0.930 . S
C11 N9 1.375 . S
C11 C10 1.338 . S
C11 H15 0.931 . S
C12 N9 1.313 . S
C12 N13 1.344 . S
C12 H16 0.930 . S
N13 C10 1.377 . S
N13 C12 1.344 . S
O14 Co6 2.055 . S
O14 C18 1.253 . S
H15 C11 0.931 . S
H16 C12 0.930 . S
O17 Co6 2.039 . S
O17 C7 1.265 . S
C18 O14 1.253 . S
C18 O19 1.227 . S
O19 C18 1.227 . S
N20 Co6 2.140 . S
N20 C23 1.346 . S
N20 C24 1.345 . S
C21 C22 1.387 . S
C21 C25 1.391 . S
C22 C21 1.387 . S
C22 C23 1.369 . S
C22 H31 0.929 . S
C23 N20 1.346 . S
C23 C22 1.369 . S
C23 H26 0.928 . S
C24 N20 1.345 . S
C24 C25 1.371 . S
C24 H27 0.931 . S
C25 C21 1.391 . S
C25 C24 1.371 . S
C25 H32 0.930 . S
H26 C23 0.928 . S
H27 C24 0.931 . S
H28 C4 0.930 . S
H29 C1 0.930 . S
H30 C10 0.930 . S
H31 C22 0.929 . S
H32 C25 0.930 . S
C33 C34 1.351 . S
C33 N36 1.368 . S
C33 H38 0.931 . S
C34 C33 1.351 . S
C34 N35 1.373 . S
C34 H62 0.930 . S
N35 C34 1.373 . S
N35 C37 1.340 . S
N36 C33 1.368 . S
N36 C37 1.321 . S
N36 Co39 2.135 . S
C37 N35 1.340 . S
C37 N36 1.321 . S
C37 H61 0.930 1_455 S
H38 C33 0.931 . S
Co39 N36 2.135 . S
Co39 N42 2.121 . S
Co39 O47 2.055 . S
Co39 O50 2.039 . S
Co39 N53 2.140 . S
C40 O41 1.227 . S
C40 O50 1.265 1_655 S
O41 C40 1.227 . S
N42 Co39 2.121 . S
N42 C44 1.375 . S
N42 C45 1.313 . S
C43 C44 1.338 . S
C43 N46 1.377 . S
C43 H63 0.930 . S
C44 N42 1.375 . S
C44 C43 1.338 . S
C44 H48 0.931 . S
C45 N42 1.313 . S
C45 N46 1.344 . S
C45 H49 0.930 . S
N46 C43 1.377 . S
N46 C45 1.344 . S
O47 Co39 2.055 . S
O47 C51 1.253 . S
H48 C44 0.931 . S
H49 C45 0.930 . S
O50 Co39 2.039 . S
O50 C40 1.265 1_455 S
C51 O47 1.253 . S
C51 O52 1.227 . S
O52 C51 1.227 . S
N53 Co39 2.140 . S
N53 C56 1.346 . S
N53 C57 1.345 . S
C54 C55 1.387 . S
C54 C58 1.391 . S
C55 C54 1.387 . S
C55 C56 1.369 . S
C55 H64 0.902 1_455 S
C56 N53 1.346 . S
C56 C55 1.369 . S
C56 H59 0.928 . S
C57 N53 1.345 . S
C57 C58 1.371 . S
C57 H60 0.931 . S
C58 C54 1.391 . S
C58 C57 1.371 . S
C58 H65 0.930 . S
H59 C56 0.928 . S
H60 C57 0.931 . S
H61 C37 0.930 1_655 S
H62 C34 0.930 . S
H63 C43 0.930 . S
H64 C55 0.902 1_655 S
H65 C58 0.930 . S
C66 C67 1.351 . S
C66 N69 1.368 . S
C66 H71 0.931 . S
C67 C66 1.351 . S
C67 N68 1.373 . S
C67 H95 0.930 . S
N68 C67 1.373 . S
N68 C70 1.340 . S
N69 C66 1.368 . S
N69 C70 1.321 . S
N69 Co72 2.135 . S
C70 N68 1.340 . S
C70 N69 1.321 . S
C70 H94 0.930 1_545 S
H71 C66 0.931 . S
Co72 N69 2.135 . S
Co72 N75 2.121 . S
Co72 O80 2.055 . S
Co72 O83 2.039 . S
Co72 N86 2.140 . S
C73 O74 1.227 . S
C73 O83 1.265 1_565 S
O74 C73 1.227 . S
N75 Co72 2.121 . S
N75 C77 1.375 . S
N75 C78 1.313 . S
C76 C77 1.338 . S
C76 N79 1.377 . S
C76 H96 0.930 . S
C77 N75 1.375 . S
C77 C76 1.338 . S
C77 H81 0.931 . S
C78 N75 1.313 . S
C78 N79 1.344 . S
C78 H82 0.930 . S
N79 C76 1.377 . S
N79 C78 1.344 . S
O80 Co72 2.055 . S
O80 C84 1.253 . S
H81 C77 0.931 . S
H82 C78 0.930 . S
O83 Co72 2.039 . S
O83 C73 1.265 1_545 S
C84 O80 1.253 . S
C84 O85 1.227 . S
O85 C84 1.227 . S
N86 Co72 2.140 . S
N86 C89 1.346 . S
N86 C90 1.345 . S
C87 C88 1.387 . S
C87 C91 1.391 . S
C88 C87 1.387 . S
C88 C89 1.369 . S
C88 H97 0.920 1_545 S
C89 N86 1.346 . S
C89 C88 1.369 . S
C89 H92 0.928 . S
C90 N86 1.345 . S
C90 C91 1.371 . S
C90 H93 0.931 . S
C91 C87 1.391 . S
C91 C90 1.371 . S
C91 H98 0.930 . S
H92 C89 0.928 . S
H93 C90 0.931 . S
H94 C70 0.930 1_565 S
H95 C67 0.930 . S
H96 C76 0.930 . S
H97 C88 0.920 1_565 S
H98 C91 0.930 . S
C99 C100 1.351 . S
C99 N102 1.368 . S
C99 H104 0.931 . S
C100 C99 1.351 . S
C100 N101 1.373 . S
C100 H128 0.930 . S
N101 C100 1.373 . S
N101 C103 1.340 . S
N102 C99 1.368 . S
N102 C103 1.321 . S
N102 Co105 2.135 1_554 S
C103 N101 1.340 . S
C103 N102 1.321 . S
C103 H127 0.930 . S
H104 C99 0.931 . S
Co105 N102 2.135 1_556 S
Co105 N108 2.121 . S
Co105 O113 2.055 1_556 S
Co105 O116 2.039 . S
Co105 N119 2.140 . S
C106 O107 1.227 . S
C106 O116 1.265 . S
O107 C106 1.227 . S
N108 Co105 2.121 . S
N108 C110 1.375 . S
N108 C111 1.313 . S
C109 C110 1.338 . S
C109 N112 1.377 . S
C109 H129 0.930 . S
C110 N108 1.375 . S
C110 C109 1.338 . S
C110 H114 0.931 . S
C111 N108 1.313 . S
C111 N112 1.344 . S
C111 H115 0.930 . S
N112 C109 1.377 . S
N112 C111 1.344 . S
O113 Co105 2.055 1_554 S
O113 C117 1.253 . S
H114 C110 0.931 . S
H115 C111 0.930 . S
O116 Co105 2.039 . S
O116 C106 1.265 . S
C117 O113 1.253 . S
C117 O118 1.224 1_554 S
O118 C117 1.224 1_556 S
N119 Co105 2.140 . S
N119 C122 1.346 . S
N119 C123 1.345 . S
C120 C121 1.387 . S
C120 C124 1.391 . S
C121 C120 1.387 . S
C121 C122 1.369 . S
C121 H130 0.929 . S
C122 N119 1.346 . S
C122 C121 1.369 . S
C122 H125 0.928 . S
C123 N119 1.345 . S
C123 C124 1.371 . S
C123 H126 0.931 . S
C124 C120 1.391 . S
C124 C123 1.371 . S
C124 H131 0.930 . S
H125 C122 0.928 . S
H126 C123 0.931 . S
H127 C103 0.930 . S
H128 C100 0.930 . S
H129 C109 0.930 . S
H130 C121 0.929 . S
H131 C124 0.930 . S
C132 C133 1.351 . S
C132 N135 1.368 . S
C132 H137 0.931 . S
C133 C132 1.351 . S
C133 N134 1.373 . S
C133 H161 0.930 . S
N134 C133 1.373 . S
N134 C136 1.340 . S
N135 C132 1.368 . S
N135 C136 1.321 . S
N135 Co138 2.135 . S
C136 N134 1.340 . S
C136 N135 1.321 . S
C136 H160 0.930 1_655 S
H137 C132 0.931 . S
Co138 N135 2.135 . S
Co138 N141 2.121 . S
Co138 O146 2.055 . S
Co138 O149 2.039 . S
Co138 N152 2.140 . S
C139 O140 1.227 . S
C139 O149 1.265 1_455 S
O140 C139 1.227 . S
N141 Co138 2.121 . S
N141 C143 1.375 . S
N141 C144 1.313 . S
C142 C143 1.338 . S
C142 N145 1.377 . S
C142 H162 0.930 . S
C143 N141 1.375 . S
C143 C142 1.338 . S
C143 H147 0.931 . S
C144 N141 1.313 . S
C144 N145 1.344 . S
C144 H148 0.930 . S
N145 C142 1.377 . S
N145 C144 1.344 . S
O146 Co138 2.055 . S
O146 C150 1.253 . S
H147 C143 0.931 . S
H148 C144 0.930 . S
O149 Co138 2.039 . S
O149 C139 1.265 1_655 S
C150 O146 1.253 . S
C150 O151 1.227 . S
O151 C150 1.227 . S
N152 Co138 2.140 . S
N152 C155 1.346 . S
N152 C156 1.345 . S
C153 C154 1.387 . S
C153 C157 1.391 . S
C154 C153 1.387 . S
C154 C155 1.369 . S
C154 H163 0.902 1_655 S
C155 N152 1.346 . S
C155 C154 1.369 . S
C155 H158 0.928 . S
C156 N152 1.345 . S
C156 C157 1.371 . S
C156 H159 0.931 . S
C157 C153 1.391 . S
C157 C156 1.371 . S
C157 H164 0.930 . S
H158 C155 0.928 . S
H159 C156 0.931 . S
H160 C136 0.930 1_455 S
H161 C133 0.930 . S
H162 C142 0.930 . S
H163 C154 0.902 1_455 S
H164 C157 0.930 . S
C165 C166 1.351 . S
C165 N168 1.368 . S
C165 H170 0.931 . S
C166 C165 1.351 . S
C166 N167 1.373 . S
C166 H194 0.930 . S
N167 C166 1.373 . S
N167 C169 1.340 . S
N168 C165 1.368 . S
N168 C169 1.321 . S
N168 Co171 2.135 . S
C169 N167 1.340 . S
C169 N168 1.321 . S
C169 H193 0.930 1_565 S
H170 C165 0.931 . S
Co171 N168 2.135 . S
Co171 N174 2.121 . S
Co171 O179 2.055 . S
Co171 O182 2.039 . S
Co171 N185 2.140 . S
C172 O173 1.227 . S
C172 O182 1.265 1_545 S
O173 C172 1.227 . S
N174 Co171 2.121 . S
N174 C176 1.375 . S
N174 C177 1.313 . S
C175 C176 1.338 . S
C175 N178 1.377 . S
C175 H195 0.930 . S
C176 N174 1.375 . S
C176 C175 1.338 . S
C176 H180 0.931 . S
C177 N174 1.313 . S
C177 N178 1.344 . S
C177 H181 0.930 . S
N178 C175 1.377 . S
N178 C177 1.344 . S
O179 Co171 2.055 . S
O179 C183 1.253 . S
H180 C176 0.931 . S
H181 C177 0.930 . S
O182 Co171 2.039 . S
O182 C172 1.265 1_565 S
C183 O179 1.253 . S
C183 O184 1.227 . S
O184 C183 1.227 . S
N185 Co171 2.140 . S
N185 C188 1.346 . S
N185 C189 1.345 . S
C186 C187 1.387 . S
C186 C190 1.391 . S
C187 C186 1.387 . S
C187 C188 1.369 . S
C187 H196 0.920 1_565 S
C188 N185 1.346 . S
C188 C187 1.369 . S
C188 H191 0.928 . S
C189 N185 1.345 . S
C189 C190 1.371 . S
C189 H192 0.931 . S
C190 C186 1.391 . S
C190 C189 1.371 . S
C190 H197 0.930 . S
H191 C188 0.928 . S
H192 C189 0.931 . S
H193 C169 0.930 1_545 S
H194 C166 0.930 . S
H195 C175 0.930 . S
H196 C187 0.920 1_545 S
H197 C190 0.930 . S
C198 C199 1.351 . S
C198 N201 1.368 . S
C198 H203 0.931 . S
C199 C198 1.351 . S
C199 N200 1.373 . S
C199 H227 0.930 . S
N200 C199 1.373 . S
N200 C202 1.340 . S
N201 C198 1.368 . S
N201 C202 1.321 . S
N201 Co204 2.135 . S
C202 N200 1.340 . S
C202 N201 1.321 . S
C202 H226 0.930 . S
H203 C198 0.931 . S
Co204 N201 2.135 . S
Co204 N207 2.121 . S
Co204 O212 2.055 . S
Co204 O215 2.039 . S
Co204 N218 2.140 . S
C205 O206 1.227 . S
C205 O215 1.265 . S
O206 C205 1.227 . S
N207 Co204 2.121 . S
N207 C209 1.375 . S
N207 C210 1.313 . S
C208 C209 1.338 . S
C208 N211 1.377 . S
C208 H228 0.930 . S
C209 N207 1.375 . S
C209 C208 1.338 . S
C209 H213 0.931 . S
C210 N207 1.313 . S
C210 N211 1.344 . S
C210 H214 0.930 . S
N211 C208 1.377 . S
N211 C210 1.344 . S
O212 Co204 2.055 . S
O212 C216 1.253 . S
H213 C209 0.931 . S
H214 C210 0.930 . S
O215 Co204 2.039 . S
O215 C205 1.265 . S
C216 O212 1.253 . S
C216 O217 1.227 . S
O217 C216 1.227 . S
N218 Co204 2.140 . S
N218 C221 1.346 . S
N218 C222 1.345 . S
C219 C220 1.387 . S
C219 C223 1.391 . S
C220 C219 1.387 . S
C220 C221 1.369 . S
C220 H229 0.929 . S
C221 N218 1.346 . S
C221 C220 1.369 . S
C221 H224 0.928 . S
C222 N218 1.345 . S
C222 C223 1.371 . S
C222 H225 0.931 . S
C223 C219 1.391 . S
C223 C222 1.371 . S
C223 H230 0.930 . S
H224 C221 0.928 . S
H225 C222 0.931 . S
H226 C202 0.930 . S
H227 C199 0.930 . S
H228 C208 0.930 . S
H229 C220 0.929 . S
H230 C223 0.930 . S
C231 C232 1.351 . S
C231 N234 1.368 . S
C231 H236 0.931 . S
C232 C231 1.351 . S
C232 N233 1.373 . S
C232 H260 0.930 . S
N233 C232 1.373 . S
N233 C235 1.340 . S
N234 C231 1.368 . S
N234 C235 1.321 . S
N234 Co237 2.135 . S
C235 N233 1.340 . S
C235 N234 1.321 . S
C235 H259 0.930 1_455 S
H236 C231 0.931 . S
Co237 N234 2.135 . S
Co237 N240 2.121 . S
Co237 O245 2.055 . S
Co237 O248 2.039 . S
Co237 N251 2.140 . S
C238 O239 1.227 . S
C238 O248 1.265 1_655 S
O239 C238 1.227 . S
N240 Co237 2.121 . S
N240 C242 1.375 . S
N240 C243 1.313 . S
C241 C242 1.338 . S
C241 N244 1.377 . S
C241 H261 0.930 . S
C242 N240 1.375 . S
C242 C241 1.338 . S
C242 H246 0.931 . S
C243 N240 1.313 . S
C243 N244 1.344 . S
C243 H247 0.930 . S
N244 C241 1.377 . S
N244 C243 1.344 . S
O245 Co237 2.055 . S
O245 C249 1.253 . S
H246 C242 0.931 . S
H247 C243 0.930 . S
O248 Co237 2.039 . S
O248 C238 1.265 1_455 S
C249 O245 1.253 . S
C249 O250 1.227 . S
O250 C249 1.227 . S
N251 Co237 2.140 . S
N251 C254 1.346 . S
N251 C255 1.345 . S
C252 C253 1.387 . S
C252 C256 1.391 . S
C253 C252 1.387 . S
C253 C254 1.369 . S
C253 H262 0.920 1_455 S
C254 N251 1.346 . S
C254 C253 1.369 . S
C254 H257 0.928 . S
C255 N251 1.345 . S
C255 C256 1.371 . S
C255 H258 0.931 . S
C256 C252 1.391 . S
C256 C255 1.371 . S
C256 H263 0.930 . S
H257 C254 0.928 . S
H258 C255 0.931 . S
H259 C235 0.930 1_655 S
H260 C232 0.930 . S
H261 C241 0.930 . S
H262 C253 0.920 1_655 S
H263 C256 0.930 . S
C264 C265 1.351 . S
C264 N267 1.368 . S
C264 H269 0.931 . S
C265 C264 1.351 . S
C265 N266 1.373 . S
C265 H293 0.930 . S
N266 C265 1.373 . S
N266 C268 1.340 . S
N267 C264 1.368 . S
N267 C268 1.321 . S
N267 Co270 2.135 . S
C268 N266 1.340 . S
C268 N267 1.321 . S
C268 H292 0.930 1_545 S
H269 C264 0.931 . S
Co270 N267 2.135 . S
Co270 N273 2.121 . S
Co270 O278 2.055 . S
Co270 O281 2.039 . S
Co270 N284 2.140 . S
C271 O272 1.227 . S
C271 O281 1.265 1_565 S
O272 C271 1.227 . S
N273 Co270 2.121 . S
N273 C275 1.375 . S
N273 C276 1.313 . S
C274 C275 1.338 . S
C274 N277 1.377 . S
C274 H294 0.930 . S
C275 N273 1.375 . S
C275 C274 1.338 . S
C275 H279 0.931 . S
C276 N273 1.313 . S
C276 N277 1.344 . S
C276 H280 0.930 . S
N277 C274 1.377 . S
N277 C276 1.344 . S
O278 Co270 2.055 . S
O278 C282 1.253 . S
H279 C275 0.931 . S
H280 C276 0.930 . S
O281 Co270 2.039 . S
O281 C271 1.265 1_545 S
C282 O278 1.253 . S
C282 O283 1.227 . S
O283 C282 1.227 . S
N284 Co270 2.140 . S
N284 C287 1.346 . S
N284 C288 1.345 . S
C285 C286 1.387 . S
C285 C289 1.391 . S
C286 C285 1.387 . S
C286 C287 1.369 . S
C286 H295 0.902 1_545 S
C287 N284 1.346 . S
C287 C286 1.369 . S
C287 H290 0.928 . S
C288 N284 1.345 . S
C288 C289 1.371 . S
C288 H291 0.931 . S
C289 C285 1.391 . S
C289 C288 1.371 . S
C289 H296 0.930 . S
H290 C287 0.928 . S
H291 C288 0.931 . S
H292 C268 0.930 1_565 S
H293 C265 0.930 . S
H294 C274 0.930 . S
H295 C286 0.902 1_565 S
H296 C289 0.930 . S
C297 C298 1.351 . S
C297 N300 1.368 . S
C297 H302 0.931 . S
C298 C297 1.351 . S
C298 N299 1.373 . S
C298 H326 0.930 . S
N299 C298 1.373 . S
N299 C301 1.340 . S
N300 C297 1.368 . S
N300 C301 1.321 . S
N300 Co303 2.135 . S
C301 N299 1.340 . S
C301 N300 1.321 . S
C301 H325 0.930 . S
H302 C297 0.931 . S
Co303 N300 2.135 . S
Co303 N306 2.121 . S
Co303 O311 2.055 . S
Co303 O314 2.039 . S
Co303 N317 2.140 . S
C304 O305 1.227 . S
C304 O314 1.265 . S
O305 C304 1.227 . S
N306 Co303 2.121 . S
N306 C308 1.375 . S
N306 C309 1.313 . S
C307 C308 1.338 . S
C307 N310 1.377 . S
C307 H327 0.930 . S
C308 N306 1.375 . S
C308 C307 1.338 . S
C308 H312 0.931 . S
C309 N306 1.313 . S
C309 N310 1.344 . S
C309 H313 0.930 . S
N310 C307 1.377 . S
N310 C309 1.344 . S
O311 Co303 2.055 . S
O311 C315 1.253 . S
H312 C308 0.931 . S
H313 C309 0.930 . S
O314 Co303 2.039 . S
O314 C304 1.265 . S
C315 O311 1.253 . S
C315 O316 1.227 . S
O316 C315 1.227 . S
N317 Co303 2.140 . S
N317 C320 1.346 . S
N317 C321 1.345 . S
C318 C319 1.387 . S
C318 C322 1.391 . S
C319 C318 1.387 . S
C319 C320 1.369 . S
C319 H328 0.929 . S
C320 N317 1.346 . S
C320 C319 1.369 . S
C320 H323 0.928 . S
C321 N317 1.345 . S
C321 C322 1.371 . S
C321 H324 0.931 . S
C322 C318 1.391 . S
C322 C321 1.371 . S
C322 H329 0.930 . S
H323 C320 0.928 . S
H324 C321 0.931 . S
H325 C301 0.930 . S
H326 C298 0.930 . S
H327 C307 0.930 . S
H328 C319 0.929 . S
H329 C322 0.930 . S
C330 C331 1.351 . S
C330 N333 1.368 . S
C330 H335 0.931 . S
C331 C330 1.351 . S
C331 N332 1.373 . S
C331 H359 0.930 . S
N332 C331 1.373 . S
N332 C334 1.340 . S
N333 C330 1.368 . S
N333 C334 1.321 . S
N333 Co336 2.135 1_556 S
C334 N332 1.340 . S
C334 N333 1.321 . S
C334 H358 0.930 1_655 S
H335 C330 0.931 . S
Co336 N333 2.135 1_554 S
Co336 N339 2.121 . S
Co336 O344 2.055 1_554 S
Co336 O347 2.039 . S
Co336 N350 2.140 . S
C337 O338 1.227 . S
C337 O347 1.265 1_455 S
O338 C337 1.227 . S
N339 Co336 2.121 . S
N339 C341 1.375 . S
N339 C342 1.313 . S
C340 C341 1.338 . S
C340 N343 1.377 . S
C340 H360 0.930 . S
C341 N339 1.375 . S
C341 C340 1.338 . S
C341 H345 0.931 . S
C342 N339 1.313 . S
C342 N343 1.344 . S
C342 H346 0.930 . S
N343 C340 1.377 . S
N343 C342 1.344 . S
O344 Co336 2.055 1_556 S
O344 C348 1.253 . S
H345 C341 0.931 . S
H346 C342 0.930 . S
O347 Co336 2.039 . S
O347 C337 1.265 1_655 S
C348 O344 1.253 . S
C348 O349 1.224 1_556 S
O349 C348 1.224 1_554 S
N350 Co336 2.140 . S
N350 C353 1.346 . S
N350 C354 1.345 . S
C351 C352 1.387 . S
C351 C355 1.391 . S
C352 C351 1.387 . S
C352 C353 1.369 . S
C352 H361 0.920 1_655 S
C353 N350 1.346 . S
C353 C352 1.369 . S
C353 H356 0.928 . S
C354 N350 1.345 . S
C354 C355 1.371 . S
C354 H357 0.931 . S
C355 C351 1.391 . S
C355 C354 1.371 . S
C355 H362 0.930 . S
H356 C353 0.928 . S
H357 C354 0.931 . S
H358 C334 0.930 1_455 S
H359 C331 0.930 . S
H360 C340 0.930 . S
H361 C352 0.920 1_455 S
H362 C355 0.930 . S
C363 C364 1.351 . S
C363 N366 1.368 . S
C363 H368 0.931 . S
C364 C363 1.351 . S
C364 N365 1.373 . S
C364 H392 0.930 . S
N365 C364 1.373 . S
N365 C367 1.340 . S
N366 C363 1.368 . S
N366 C367 1.321 . S
N366 Co369 2.135 . S
C367 N365 1.340 . S
C367 N366 1.321 . S
C367 H391 0.930 1_565 S
H368 C363 0.931 . S
Co369 N366 2.135 . S
Co369 N372 2.121 . S
Co369 O377 2.055 . S
Co369 O380 2.039 . S
Co369 N383 2.140 . S
C370 O371 1.227 . S
C370 O380 1.265 1_545 S
O371 C370 1.227 . S
N372 Co369 2.121 . S
N372 C374 1.375 . S
N372 C375 1.313 . S
C373 C374 1.338 . S
C373 N376 1.377 . S
C373 H393 0.930 . S
C374 N372 1.375 . S
C374 C373 1.338 . S
C374 H378 0.931 . S
C375 N372 1.313 . S
C375 N376 1.344 . S
C375 H379 0.930 . S
N376 C373 1.377 . S
N376 C375 1.344 . S
O377 Co369 2.055 . S
O377 C381 1.253 . S
H378 C374 0.931 . S
H379 C375 0.930 . S
O380 Co369 2.039 . S
O380 C370 1.265 1_565 S
C381 O377 1.253 . S
C381 O382 1.227 . S
O382 C381 1.227 . S
N383 Co369 2.140 . S
N383 C386 1.346 . S
N383 C387 1.345 . S
C384 C385 1.387 . S
C384 C388 1.391 . S
C385 C384 1.387 . S
C385 C386 1.369 . S
C385 H394 0.902 1_565 S
C386 N383 1.346 . S
C386 C385 1.369 . S
C386 H389 0.928 . S
C387 N383 1.345 . S
C387 C388 1.371 . S
C387 H390 0.931 . S
C388 C384 1.391 . S
C388 C387 1.371 . S
C388 H395 0.930 . S
H389 C386 0.928 . S
H390 C387 0.931 . S
H391 C367 0.930 1_545 S
H392 C364 0.930 . S
H393 C373 0.930 . S
H394 C385 0.902 1_545 S
H395 C388 0.930 . S
C396 C397 1.363 . S
C396 C402 1.379 . S
C396 N404 1.356 . S
C397 C396 1.363 . S
C397 C403 1.363 . S
C398 C399 1.363 . S
C398 C403 1.379 . S
C398 N405 1.356 . S
C399 C398 1.363 . S
C399 C402 1.363 . S
N400 C402 1.356 . S
N400 H412 0.984 . S
N400 H413 0.985 . S
N401 C403 1.356 . S
N401 H406 0.984 . S
N401 H407 0.985 . S
C402 C396 1.379 . S
C402 C399 1.363 . S
C402 N400 1.356 . S
C403 C397 1.363 . S
C403 C398 1.379 . S
C403 N401 1.356 . S
N404 C396 1.356 . S
N404 H410 0.984 . S
N404 H411 0.984 . S
N405 C398 1.356 . S
N405 H408 0.984 . S
N405 H409 0.985 . S
H406 N401 0.984 . S
H407 N401 0.985 . S
H408 N405 0.984 . S
H409 N405 0.985 . S
H410 N404 0.984 . S
H411 N404 0.984 . S
H412 N400 0.984 . S
H413 N400 0.985 . S
C414 C415 1.363 . S
C414 C420 1.379 . S
C414 N422 1.356 . S
C415 C414 1.363 . S
C415 C421 1.363 . S
C416 C417 1.363 . S
C416 C421 1.379 . S
C416 N423 1.356 . S
C417 C416 1.363 . S
C417 C420 1.363 . S
N418 C420 1.356 . S
N418 H430 0.984 . S
N418 H431 0.985 . S
N419 C421 1.356 . S
N419 H424 0.984 . S
N419 H425 0.985 . S
C420 C414 1.379 . S
C420 C417 1.363 . S
C420 N418 1.356 . S
C421 C415 1.363 . S
C421 C416 1.379 . S
C421 N419 1.356 . S
N422 C414 1.356 . S
N422 H428 0.984 . S
N422 H429 0.984 . S
N423 C416 1.356 . S
N423 H426 0.984 . S
N423 H427 0.985 . S
H424 N419 0.984 . S
H425 N419 0.985 . S
H426 N423 0.984 . S
H427 N423 0.985 . S
H428 N422 0.984 . S
H429 N422 0.984 . S
H430 N418 0.984 . S
H431 N418 0.985 . S
C432 C433 1.363 . S
C432 C438 1.379 . S
C432 N440 1.356 . S
C433 C432 1.363 . S
C433 C439 1.363 . S
C434 C435 1.363 . S
C434 C439 1.379 . S
C434 N441 1.356 . S
C435 C434 1.363 . S
C435 C438 1.363 . S
N436 C438 1.356 . S
N436 H448 0.984 . S
N436 H449 0.985 . S
N437 C439 1.356 . S
N437 H442 0.984 . S
N437 H443 0.985 . S
C438 C432 1.379 . S
C438 C435 1.363 . S
C438 N436 1.356 . S
C439 C433 1.363 . S
C439 C434 1.379 . S
C439 N437 1.356 . S
N440 C432 1.356 . S
N440 H446 0.984 . S
N440 H447 0.984 . S
N441 C434 1.356 . S
N441 H444 0.984 1_556 S
N441 H445 0.985 . S
H442 N437 0.984 . S
H443 N437 0.985 . S
H444 N441 0.984 1_554 S
H445 N441 0.985 . S
H446 N440 0.984 . S
H447 N440 0.984 . S
H448 N436 0.984 . S
H449 N436 0.985 . S
C450 C451 1.363 . S
C450 C456 1.379 . S
C450 N458 1.356 . S
C451 C450 1.363 . S
C451 C457 1.363 . S
C452 C453 1.363 . S
C452 C457 1.379 . S
C452 N459 1.356 . S
C453 C452 1.363 . S
C453 C456 1.363 . S
N454 C456 1.356 . S
N454 H466 0.984 . S
N454 H467 0.985 . S
N455 C457 1.356 . S
N455 H460 0.984 . S
N455 H461 0.985 . S
C456 C450 1.379 . S
C456 C453 1.363 . S
C456 N454 1.356 . S
C457 C451 1.363 . S
C457 C452 1.379 . S
C457 N455 1.356 . S
N458 C450 1.356 . S
N458 H464 0.984 . S
N458 H465 0.984 1_554 S
N459 C452 1.356 . S
N459 H462 0.984 . S
N459 H463 0.985 . S
H460 N455 0.984 . S
H461 N455 0.985 . S
H462 N459 0.984 . S
H463 N459 0.985 . S
H464 N458 0.984 . S
H465 N458 0.984 1_556 S
H466 N454 0.984 . S
H467 N454 0.985 . S
C468 C469 1.363 . S
C468 C474 1.379 . S
C468 N476 1.356 . S
C469 C468 1.363 . S
C469 C475 1.363 . S
C470 C471 1.363 . S
C470 C475 1.379 . S
C470 N477 1.356 . S
C471 C470 1.363 . S
C471 C474 1.363 . S
N472 C474 1.356 . S
N472 H484 0.984 . S
N472 H485 0.985 . S
N473 C475 1.356 . S
N473 H478 0.984 . S
N473 H479 0.985 . S
C474 C468 1.379 . S
C474 C471 1.363 . S
C474 N472 1.356 . S
C475 C469 1.363 . S
C475 C470 1.379 . S
C475 N473 1.356 . S
N476 C468 1.356 . S
N476 H482 0.984 . S
N476 H483 0.984 . S
N477 C470 1.356 . S
N477 H480 0.984 . S
N477 H481 0.985 . S
H478 N473 0.984 . S
H479 N473 0.985 . S
H480 N477 0.984 . S
H481 N477 0.985 . S
H482 N476 0.984 . S
H483 N476 0.984 . S
H484 N472 0.984 . S
H485 N472 0.985 . S
C486 C487 1.363 . S
C486 C492 1.379 . S
C486 N494 1.356 . S
C487 C486 1.363 . S
C487 C493 1.363 . S
C488 C489 1.363 . S
C488 C493 1.379 . S
C488 N495 1.356 . S
C489 C488 1.363 . S
C489 C492 1.363 . S
N490 C492 1.356 . S
N490 H502 0.984 . S
N490 H503 0.985 . S
N491 C493 1.356 . S
N491 H496 0.984 . S
N491 H497 0.985 . S
C492 C486 1.379 . S
C492 C489 1.363 . S
C492 N490 1.356 . S
C493 C487 1.363 . S
C493 C488 1.379 . S
C493 N491 1.356 . S
N494 C486 1.356 . S
N494 H500 0.984 . S
N494 H501 0.984 . S
N495 C488 1.356 . S
N495 H498 0.984 . S
N495 H499 0.985 . S
H496 N491 0.984 . S
H497 N491 0.985 . S
H498 N495 0.984 . S
H499 N495 0.985 . S
H500 N494 0.984 . S
H501 N494 0.984 . S
H502 N490 0.984 . S
H503 N490 0.985 . S
C504 C505 1.363 . S
C504 C510 1.379 . S
C504 N512 1.356 . S
C505 C504 1.363 . S
C505 C511 1.363 . S
C506 C507 1.363 . S
C506 C511 1.379 . S
C506 N513 1.356 . S
C507 C506 1.363 . S
C507 C510 1.363 . S
N508 C510 1.356 . S
N508 H520 0.984 . S
N508 H521 0.985 . S
N509 C511 1.356 . S
N509 H514 0.984 . S
N509 H515 0.985 . S
C510 C504 1.379 . S
C510 C507 1.363 . S
C510 N508 1.356 . S
C511 C505 1.363 . S
C511 C506 1.379 . S
C511 N509 1.356 . S
N512 C504 1.356 . S
N512 H518 0.984 . S
N512 H519 0.984 . S
N513 C506 1.356 . S
N513 H516 0.984 . S
N513 H517 0.985 . S
H514 N509 0.984 . S
H515 N509 0.985 . S
H516 N513 0.984 . S
H517 N513 0.985 . S
H518 N512 0.984 . S
H519 N512 0.984 . S
H520 N508 0.984 . S
H521 N508 0.985 . S
C522 C523 1.363 . S
C522 C528 1.379 . S
C522 N530 1.356 . S
C523 C522 1.363 . S
C523 C529 1.363 . S
C524 C525 1.363 . S
C524 C529 1.379 . S
C524 N531 1.356 . S
C525 C524 1.363 . S
C525 C528 1.363 . S
N526 C528 1.356 . S
N526 H538 0.984 . S
N526 H539 0.985 . S
N527 C529 1.356 . S
N527 H532 0.984 . S
N527 H533 0.985 . S
C528 C522 1.379 . S
C528 C525 1.363 . S
C528 N526 1.356 . S
C529 C523 1.363 . S
C529 C524 1.379 . S
C529 N527 1.356 . S
N530 C522 1.356 . S
N530 H536 0.984 . S
N530 H537 0.984 . S
N531 C524 1.356 . S
N531 H534 0.984 . S
N531 H535 0.985 . S
H532 N527 0.984 . S
H533 N527 0.985 . S
H534 N531 0.984 . S
H535 N531 0.985 . S
H536 N530 0.984 . S
H537 N530 0.984 . S
H538 N526 0.984 . S
H539 N526 0.985 . S
C540 C541 1.363 . S
C540 C546 1.379 . S
C540 N548 1.356 . S
C541 C540 1.363 . S
C541 C547 1.363 . S
C542 C543 1.363 . S
C542 C547 1.379 . S
C542 N549 1.356 . S
C543 C542 1.363 . S
C543 C546 1.363 . S
N544 C546 1.356 . S
N544 H556 0.984 . S
N544 H557 0.985 . S
N545 C547 1.356 . S
N545 H550 0.984 . S
N545 H551 0.985 . S
C546 C540 1.379 . S
C546 C543 1.363 . S
C546 N544 1.356 . S
C547 C541 1.363 . S
C547 C542 1.379 . S
C547 N545 1.356 . S
N548 C540 1.356 . S
N548 H554 0.984 . S
N548 H555 0.984 . S
N549 C542 1.356 . S
N549 H552 0.984 . S
N549 H553 0.985 . S
H550 N545 0.984 . S
H551 N545 0.985 . S
H552 N549 0.984 . S
H553 N549 0.985 . S
H554 N548 0.984 . S
H555 N548 0.984 . S
H556 N544 0.984 . S
H557 N544 0.985 . S
C558 C559 1.363 . S
C558 C564 1.379 . S
C558 N566 1.356 . S
C559 C558 1.363 . S
C559 C565 1.363 . S
C560 C561 1.363 . S
C560 C565 1.379 . S
C560 N567 1.356 . S
C561 C560 1.363 . S
C561 C564 1.363 . S
N562 C564 1.356 . S
N562 H574 0.984 . S
N562 H575 0.985 . S
N563 C565 1.356 . S
N563 H568 0.984 . S
N563 H569 0.985 . S
C564 C558 1.379 . S
C564 C561 1.363 . S
C564 N562 1.356 . S
C565 C559 1.363 . S
C565 C560 1.379 . S
C565 N563 1.356 . S
N566 C558 1.356 . S
N566 H572 0.984 . S
N566 H573 0.984 . S
N567 C560 1.356 . S
N567 H570 0.984 . S
N567 H571 0.985 . S
H568 N563 0.984 . S
H569 N563 0.985 . S
H570 N567 0.984 . S
H571 N567 0.985 . S
H572 N566 0.984 . S
H573 N566 0.984 . S
H574 N562 0.984 . S
H575 N562 0.985 . S
C576 C577 1.363 . S
C576 C582 1.379 1_556 S
C576 N584 1.356 . S
C577 C576 1.363 . S
C577 C583 1.361 1_556 S
C578 C579 1.363 . S
C578 C583 1.382 . S
C578 N585 1.356 . S
C579 C578 1.363 . S
C579 C582 1.363 . S
N580 C582 1.356 . S
N580 H592 0.984 . S
N580 H593 0.985 . S
N581 C583 1.354 1_556 S
N581 H586 0.984 . S
N581 H587 0.985 . S
C582 C576 1.379 1_554 S
C582 C579 1.363 . S
C582 N580 1.356 . S
C583 C577 1.361 1_554 S
C583 C578 1.382 . S
C583 N581 1.354 1_554 S
N584 C576 1.356 . S
N584 H590 0.984 . S
N584 H591 0.984 . S
N585 C578 1.356 . S
N585 H588 0.984 . S
N585 H589 0.985 . S
H586 N581 0.984 . S
H587 N581 0.985 . S
H588 N585 0.984 . S
H589 N585 0.985 . S
H590 N584 0.984 . S
H591 N584 0.984 . S
H592 N580 0.984 . S
H593 N580 0.985 . S
C594 C595 1.363 . S
C594 C600 1.379 . S
C594 N602 1.356 . S
C595 C594 1.363 . S
C595 C601 1.363 . S
C596 C597 1.363 . S
C596 C601 1.379 . S
C596 N603 1.356 . S
C597 C596 1.363 . S
C597 C600 1.363 . S
N598 C600 1.356 . S
N598 H610 0.984 . S
N598 H611 0.985 . S
N599 C601 1.356 . S
N599 H604 0.984 . S
N599 H605 0.985 . S
C600 C594 1.379 . S
C600 C597 1.363 . S
C600 N598 1.356 . S
C601 C595 1.363 . S
C601 C596 1.379 . S
C601 N599 1.356 . S
N602 C594 1.356 . S
N602 H608 0.984 . S
N602 H609 0.984 . S
N603 C596 1.356 . S
N603 H606 0.984 . S
N603 H607 0.985 . S
H604 N599 0.984 . S
H605 N599 0.985 . S
H606 N603 0.984 . S
H607 N603 0.985 . S
H608 N602 0.984 . S
H609 N602 0.984 . S
H610 N598 0.984 . S
H611 N598 0.985 . S
C612 C613 1.363 . S
C612 C618 1.379 . S
C612 N620 1.356 . S
C613 C612 1.363 . S
C613 C619 1.363 . S
C614 C615 1.363 . S
C614 C619 1.379 . S
C614 N621 1.356 . S
C615 C614 1.363 . S
C615 C618 1.363 . S
N616 C618 1.356 . S
N616 H628 0.984 . S
N616 H629 0.985 . S
N617 C619 1.356 . S
N617 H622 0.984 . S
N617 H623 0.985 . S
C618 C612 1.379 . S
C618 C615 1.363 . S
C618 N616 1.356 . S
C619 C613 1.363 . S
C619 C614 1.379 . S
C619 N617 1.356 . S
N620 C612 1.356 . S
N620 H626 0.984 . S
N620 H627 0.984 . S
N621 C614 1.356 . S
N621 H624 0.984 . S
N621 H625 0.985 . S
H622 N617 0.984 . S
H623 N617 0.985 . S
H624 N621 0.984 . S
H625 N621 0.985 . S
H626 N620 0.984 . S
H627 N620 0.984 . S
H628 N616 0.984 . S
H629 N616 0.985 . S
C630 C631 1.363 . S
C630 C636 1.379 . S
C630 N638 1.356 . S
C631 C630 1.363 . S
C631 C637 1.363 . S
C632 C633 1.363 . S
C632 C637 1.379 . S
C632 N639 1.356 . S
C633 C632 1.363 . S
C633 C636 1.363 . S
N634 C636 1.356 . S
N634 H646 0.984 . S
N634 H647 0.985 . S
N635 C637 1.356 . S
N635 H640 0.984 . S
N635 H641 0.985 . S
C636 C630 1.379 . S
C636 C633 1.363 . S
C636 N634 1.356 . S
C637 C631 1.363 . S
C637 C632 1.379 . S
C637 N635 1.356 . S
N638 C630 1.356 . S
N638 H644 0.984 . S
N638 H645 0.984 . S
N639 C632 1.356 . S
N639 H642 0.984 . S
N639 H643 0.985 . S
H640 N635 0.984 . S
H641 N635 0.985 . S
H642 N639 0.984 . S
H643 N639 0.985 . S
H644 N638 0.984 . S
H645 N638 0.984 . S
H646 N634 0.984 . S
H647 N634 0.985 . S
C648 C649 1.363 . S
C648 C654 1.379 . S
C648 N656 1.356 . S
C649 C648 1.363 . S
C649 C655 1.363 . S
C650 C651 1.363 . S
C650 C655 1.379 . S
C650 N657 1.356 . S
C651 C650 1.363 . S
C651 C654 1.363 . S
N652 C654 1.356 . S
N652 H664 0.984 . S
N652 H665 0.985 . S
N653 C655 1.356 . S
N653 H658 0.984 . S
N653 H659 0.985 . S
C654 C648 1.379 . S
C654 C651 1.363 . S
C654 N652 1.356 . S
C655 C649 1.363 . S
C655 C650 1.379 . S
C655 N653 1.356 . S
N656 C648 1.356 . S
N656 H662 0.984 . S
N656 H663 0.984 . S
N657 C650 1.356 . S
N657 H660 0.984 . S
N657 H661 0.985 . S
H658 N653 0.984 . S
H659 N653 0.985 . S
H660 N657 0.984 . S
H661 N657 0.985 . S
H662 N656 0.984 . S
H663 N656 0.984 . S
H664 N652 0.984 . S
H665 N652 0.985 . S
C666 C667 1.363 . S
C666 C672 1.379 1_554 S
C666 N674 1.356 . S
C667 C666 1.363 . S
C667 C673 1.363 1_554 S
C668 C669 1.363 . S
C668 C673 1.379 . S
C668 N675 1.356 . S
C669 C668 1.363 . S
C669 C672 1.363 . S
N670 C672 1.356 . S
N670 H682 0.984 . S
N670 H683 0.985 . S
N671 C673 1.356 1_554 S
N671 H676 0.984 . S
N671 H677 0.985 1_554 S
C672 C666 1.379 1_556 S
C672 C669 1.363 . S
C672 N670 1.356 . S
C673 C667 1.363 1_556 S
C673 C668 1.379 . S
C673 N671 1.356 1_556 S
N674 C666 1.356 . S
N674 H680 0.984 . S
N674 H681 0.984 . S
N675 C668 1.356 . S
N675 H678 0.984 . S
N675 H679 0.985 . S
H676 N671 0.984 . S
H677 N671 0.985 1_556 S
H678 N675 0.984 . S
H679 N675 0.985 . S
H680 N674 0.984 . S
H681 N674 0.984 . S
H682 N670 0.984 . S
H683 N670 0.985 . S
C684 C685 1.363 . S
C684 C690 1.379 . S
C684 N692 1.356 . S
C685 C684 1.363 . S
C685 C691 1.363 . S
C686 C687 1.363 . S
C686 C691 1.379 . S
C686 N693 1.356 . S
C687 C686 1.363 . S
C687 C690 1.363 . S
N688 C690 1.356 . S
N688 H700 0.984 . S
N688 H701 0.985 . S
N689 C691 1.356 . S
N689 H694 0.984 . S
N689 H695 0.985 . S
C690 C684 1.379 . S
C690 C687 1.363 . S
C690 N688 1.356 . S
C691 C685 1.363 . S
C691 C686 1.379 . S
C691 N689 1.356 . S
N692 C684 1.356 . S
N692 H698 0.984 . S
N692 H699 0.984 . S
N693 C686 1.356 . S
N693 H696 0.984 . S
N693 H697 0.985 . S
H694 N689 0.984 . S
H695 N689 0.985 . S
H696 N693 0.984 . S
H697 N693 0.985 . S
H698 N692 0.984 . S
H699 N692 0.984 . S
H700 N688 0.984 . S
H701 N688 0.985 . S
C702 C703 1.363 . S
C702 C708 1.379 . S
C702 N710 1.356 . S
C703 C702 1.363 . S
C703 C709 1.363 . S
C704 C705 1.363 . S
C704 C709 1.379 . S
C704 N711 1.356 . S
C705 C704 1.363 . S
C705 C708 1.363 . S
N706 C708 1.356 . S
N706 H718 0.984 . S
N706 H719 0.985 . S
N707 C709 1.356 . S
N707 H712 0.984 . S
N707 H713 0.985 . S
C708 C702 1.379 . S
C708 C705 1.363 . S
C708 N706 1.356 . S
C709 C703 1.363 . S
C709 C704 1.379 . S
C709 N707 1.356 . S
N710 C702 1.356 . S
N710 H716 0.984 . S
N710 H717 0.984 . S
N711 C704 1.356 . S
N711 H714 0.984 . S
N711 H715 0.985 . S
H712 N707 0.984 . S
H713 N707 0.985 . S
H714 N711 0.984 . S
H715 N711 0.985 . S
H716 N710 0.984 . S
H717 N710 0.984 . S
H718 N706 0.984 . S
H719 N706 0.985 . S
C720 C721 1.363 . S
C720 C726 1.379 . S
C720 N728 1.356 . S
C721 C720 1.363 . S
C721 C727 1.363 . S
C722 C723 1.363 . S
C722 C727 1.379 . S
C722 N729 1.356 . S
C723 C722 1.363 . S
C723 C726 1.363 . S
N724 C726 1.356 . S
N724 H736 0.984 . S
N724 H737 0.985 . S
N725 C727 1.356 . S
N725 H730 0.984 . S
N725 H731 0.985 . S
C726 C720 1.379 . S
C726 C723 1.363 . S
C726 N724 1.356 . S
C727 C721 1.363 . S
C727 C722 1.379 . S
C727 N725 1.356 . S
N728 C720 1.356 . S
N728 H734 0.984 . S
N728 H735 0.984 . S
N729 C722 1.356 . S
N729 H732 0.984 . S
N729 H733 0.985 . S
H730 N725 0.984 . S
H731 N725 0.985 . S
H732 N729 0.984 . S
H733 N729 0.985 . S
H734 N728 0.984 . S
H735 N728 0.984 . S
H736 N724 0.984 . S
H737 N724 0.985 . S
C738 C739 1.363 . S
C738 C744 1.379 . S
C738 N746 1.356 . S
C739 C738 1.363 . S
C739 C745 1.363 . S
C740 C741 1.363 . S
C740 C745 1.379 . S
C740 N747 1.356 . S
C741 C740 1.363 . S
C741 C744 1.363 . S
N742 C744 1.356 . S
N742 H754 0.984 . S
N742 H755 0.985 . S
N743 C745 1.356 . S
N743 H748 0.984 . S
N743 H749 0.985 1_455 S
C744 C738 1.379 . S
C744 C741 1.363 . S
C744 N742 1.356 . S
C745 C739 1.363 . S
C745 C740 1.379 . S
C745 N743 1.356 . S
N746 C738 1.356 . S
N746 H752 0.984 . S
N746 H753 0.984 . S
N747 C740 1.356 . S
N747 H750 0.984 . S
N747 H751 0.985 1_455 S
H748 N743 0.984 . S
H749 N743 0.985 1_655 S
H750 N747 0.984 . S
H751 N747 0.985 1_655 S
H752 N746 0.984 . S
H753 N746 0.984 . S
H754 N742 0.984 . S
H755 N742 0.985 . S
C756 C757 1.363 . S
C756 C762 1.379 . S
C756 N764 1.356 . S
C757 C756 1.363 . S
C757 C763 1.363 . S
C758 C759 1.363 . S
C758 C763 1.379 . S
C758 N765 1.356 1_545 S
C759 C758 1.363 . S
C759 C762 1.363 . S
N760 C762 1.356 . S
N760 H772 0.984 . S
N760 H773 0.985 . S
N761 C763 1.356 1_565 S
N761 H766 0.984 1_565 S
N761 H767 0.985 . S
C762 C756 1.379 . S
C762 C759 1.363 . S
C762 N760 1.356 . S
C763 C757 1.363 . S
C763 C758 1.379 . S
C763 N761 1.356 1_545 S
N764 C756 1.356 . S
N764 H770 0.984 . S
N764 H771 0.984 . S
N765 C758 1.356 1_565 S
N765 H768 0.984 1_565 S
N765 H769 0.985 . S
H766 N761 0.984 1_545 S
H767 N761 0.985 . S
H768 N765 0.984 1_545 S
H769 N765 0.985 . S
H770 N764 0.984 . S
H771 N764 0.984 . S
H772 N760 0.984 . S
H773 N760 0.985 . S
C774 C775 1.363 . S
C774 C780 1.379 . S
C774 N782 1.356 . S
C775 C774 1.363 . S
C775 C781 1.363 . S
C776 C777 1.363 . S
C776 C781 1.379 . S
C776 N783 1.356 . S
C777 C776 1.363 . S
C777 C780 1.363 . S
N778 C780 1.356 . S
N778 H790 0.984 . S
N778 H791 0.985 . S
N779 C781 1.356 . S
N779 H784 0.984 . S
N779 H785 0.985 . S
C780 C774 1.379 . S
C780 C777 1.363 . S
C780 N778 1.356 . S
C781 C775 1.363 . S
C781 C776 1.379 . S
C781 N779 1.356 . S
N782 C774 1.356 . S
N782 H788 0.984 . S
N782 H789 0.984 . S
N783 C776 1.356 . S
N783 H786 0.984 . S
N783 H787 0.985 . S
H784 N779 0.984 . S
H785 N779 0.985 . S
H786 N783 0.984 . S
H787 N783 0.985 . S
H788 N782 0.984 . S
H789 N782 0.984 . S
H790 N778 0.984 . S
H791 N778 0.985 . S
C792 C793 1.363 . S
C792 C798 1.379 . S
C792 N800 1.356 . S
C793 C792 1.363 . S
C793 C799 1.363 . S
C794 C795 1.363 . S
C794 C799 1.379 . S
C794 N801 1.356 . S
C795 C794 1.363 . S
C795 C798 1.363 . S
N796 C798 1.356 . S
N796 H808 0.984 . S
N796 H809 0.985 . S
N797 C799 1.356 . S
N797 H802 0.984 . S
N797 H803 0.985 1_655 S
C798 C792 1.379 . S
C798 C795 1.363 . S
C798 N796 1.356 . S
C799 C793 1.363 . S
C799 C794 1.379 . S
C799 N797 1.356 . S
N800 C792 1.356 . S
N800 H806 0.984 . S
N800 H807 0.984 . S
N801 C794 1.356 . S
N801 H804 0.984 . S
N801 H805 0.985 1_655 S
H802 N797 0.984 . S
H803 N797 0.985 1_455 S
H804 N801 0.984 . S
H805 N801 0.985 1_455 S
H806 N800 0.984 . S
H807 N800 0.984 . S
H808 N796 0.984 . S
H809 N796 0.985 . S
C810 C811 1.363 . S
C810 C816 1.379 . S
C810 N818 1.356 . S
C811 C810 1.363 . S
C811 C817 1.363 . S
C812 C813 1.363 . S
C812 C817 1.379 . S
C812 N819 1.356 1_565 S
C813 C812 1.363 . S
C813 C816 1.363 . S
N814 C816 1.356 . S
N814 H826 0.984 . S
N814 H827 0.985 . S
N815 C817 1.356 1_545 S
N815 H820 0.984 1_545 S
N815 H821 0.985 . S
C816 C810 1.379 . S
C816 C813 1.363 . S
C816 N814 1.356 . S
C817 C811 1.363 . S
C817 C812 1.379 . S
C817 N815 1.356 1_565 S
N818 C810 1.356 . S
N818 H824 0.984 . S
N818 H825 0.984 . S
N819 C812 1.356 1_545 S
N819 H822 0.984 1_545 S
N819 H823 0.985 . S
H820 N815 0.984 1_565 S
H821 N815 0.985 . S
H822 N819 0.984 1_565 S
H823 N819 0.985 . S
H824 N818 0.984 . S
H825 N818 0.984 . S
H826 N814 0.984 . S
H827 N814 0.985 . S
C828 C829 1.363 . S
C828 C834 1.379 . S
C828 N836 1.356 . S
C829 C828 1.363 . S
C829 C835 1.363 . S
C830 C831 1.363 . S
C830 C835 1.379 . S
C830 N837 1.356 . S
C831 C830 1.363 . S
C831 C834 1.363 . S
N832 C834 1.356 . S
N832 H844 0.984 . S
N832 H845 0.985 . S
N833 C835 1.356 . S
N833 H838 0.984 . S
N833 H839 0.985 . S
C834 C828 1.379 . S
C834 C831 1.363 . S
C834 N832 1.356 . S
C835 C829 1.363 . S
C835 C830 1.379 . S
C835 N833 1.356 . S
N836 C828 1.356 . S
N836 H842 0.984 . S
N836 H843 0.984 . S
N837 C830 1.356 . S
N837 H840 0.984 . S
N837 H841 0.985 . S
H838 N833 0.984 . S
H839 N833 0.985 . S
H840 N837 0.984 . S
H841 N837 0.985 . S
H842 N836 0.984 . S
H843 N836 0.984 . S
H844 N832 0.984 . S
H845 N832 0.985 . S
C846 C847 1.363 . S
C846 C852 1.379 . S
C846 N854 1.356 . S
C847 C846 1.363 . S
C847 C853 1.363 1_655 S
C848 C849 1.363 . S
C848 C853 1.379 . S
C848 N855 1.356 . S
C849 C848 1.363 . S
C849 C852 1.363 1_455 S
N850 C852 1.356 . S
N850 H862 0.984 . S
N850 H863 0.985 . S
N851 C853 1.356 . S
N851 H856 0.984 . S
N851 H857 0.985 . S
C852 C846 1.379 . S
C852 C849 1.363 1_655 S
C852 N850 1.356 . S
C853 C847 1.363 1_455 S
C853 C848 1.379 . S
C853 N851 1.356 . S
N854 C846 1.356 . S
N854 H860 0.984 . S
N854 H861 0.984 . S
N855 C848 1.356 . S
N855 H858 0.984 . S
N855 H859 0.985 . S
H856 N851 0.984 . S
H857 N851 0.985 . S
H858 N855 0.984 . S
H859 N855 0.985 . S
H860 N854 0.984 . S
H861 N854 0.984 . S
H862 N850 0.984 . S
H863 N850 0.985 . S
C864 C865 1.363 . S
C864 C870 1.379 1_556 S
C864 N872 1.356 . S
C865 C864 1.363 . S
C865 C871 1.363 1_565 S
C866 C867 1.363 . S
C866 C871 1.379 1_554 S
C866 N873 1.356 . S
C867 C866 1.363 . S
C867 C870 1.363 1_545 S
N868 C870 1.356 . S
N868 H880 0.984 . S
N868 H881 0.985 . S
N869 C871 1.356 . S
N869 H874 0.984 . S
N869 H875 0.985 . S
C870 C864 1.379 1_554 S
C870 C867 1.363 1_565 S
C870 N868 1.356 . S
C871 C865 1.363 1_545 S
C871 C866 1.379 1_556 S
C871 N869 1.356 . S
N872 C864 1.356 . S
N872 H878 0.984 . S
N872 H879 0.984 . S
N873 C866 1.356 . S
N873 H876 0.984 . S
N873 H877 0.985 . S
H874 N869 0.984 . S
H875 N869 0.985 . S
H876 N873 0.984 . S
H877 N873 0.985 . S
H878 N872 0.984 . S
H879 N872 0.984 . S
H880 N868 0.984 . S
H881 N868 0.985 . S
C882 C883 1.363 . S
C882 C888 1.379 . S
C882 N890 1.356 . S
C883 C882 1.363 . S
C883 C889 1.363 . S
C884 C885 1.363 . S
C884 C889 1.379 . S
C884 N891 1.356 . S
C885 C884 1.363 . S
C885 C888 1.363 . S
N886 C888 1.356 . S
N886 H898 0.984 . S
N886 H899 0.985 . S
N887 C889 1.356 . S
N887 H892 0.984 . S
N887 H893 0.985 . S
C888 C882 1.379 . S
C888 C885 1.363 . S
C888 N886 1.356 . S
C889 C883 1.363 . S
C889 C884 1.379 . S
C889 N887 1.356 . S
N890 C882 1.356 . S
N890 H896 0.984 . S
N890 H897 0.984 . S
N891 C884 1.356 . S
N891 H894 0.984 . S
N891 H895 0.985 . S
H892 N887 0.984 . S
H893 N887 0.985 . S
H894 N891 0.984 . S
H895 N891 0.985 . S
H896 N890 0.984 . S
H897 N890 0.984 . S
H898 N886 0.984 . S
H899 N886 0.985 . S
C900 C901 1.363 1_655 S
C900 C906 1.379 . S
C900 N908 1.356 . S
C901 C900 1.363 1_455 S
C901 C907 1.363 . S
C902 C903 1.363 1_455 S
C902 C907 1.379 . S
C902 N909 1.356 . S
C903 C902 1.363 1_655 S
C903 C906 1.363 . S
N904 C906 1.356 . S
N904 H916 0.984 . S
N904 H917 0.985 . S
N905 C907 1.356 . S
N905 H910 0.984 . S
N905 H911 0.985 . S
C906 C900 1.379 . S
C906 C903 1.363 . S
C906 N904 1.356 . S
C907 C901 1.363 . S
C907 C902 1.379 . S
C907 N905 1.356 . S
N908 C900 1.356 . S
N908 H914 0.984 . S
N908 H915 0.984 . S
N909 C902 1.356 . S
N909 H912 0.984 . S
N909 H913 0.985 . S
H910 N905 0.984 . S
H911 N905 0.985 . S
H912 N909 0.984 . S
H913 N909 0.985 . S
H914 N908 0.984 . S
H915 N908 0.984 . S
H916 N904 0.984 . S
H917 N904 0.985 . S
C918 C919 1.363 1_545 S
C918 C924 1.379 . S
C918 N926 1.356 . S
C919 C918 1.363 1_565 S
C919 C925 1.363 . S
C920 C921 1.363 1_565 S
C920 C925 1.379 . S
C920 N927 1.356 . S
C921 C920 1.363 1_545 S
C921 C924 1.363 . S
N922 C924 1.356 . S
N922 H934 0.984 . S
N922 H935 0.985 . S
N923 C925 1.356 . S
N923 H928 0.984 . S
N923 H929 0.985 . S
C924 C918 1.379 . S
C924 C921 1.363 . S
C924 N922 1.356 . S
C925 C919 1.363 . S
C925 C920 1.379 . S
C925 N923 1.356 . S
N926 C918 1.356 . S
N926 H932 0.984 . S
N926 H933 0.984 . S
N927 C920 1.356 . S
N927 H930 0.984 . S
N927 H931 0.985 . S
H928 N923 0.984 . S
H929 N923 0.985 . S
H930 N927 0.984 . S
H931 N927 0.985 . S
H932 N926 0.984 . S
H933 N926 0.984 . S
H934 N922 0.984 . S
H935 N922 0.985 . S
C397 C282 1.233 . S
C399 C18 1.233 . S
C415 C51 1.233 . S
C417 C315 1.233 . S
C433 C84 1.233 . S
C435 C348 1.233 . S
C451 C117 1.233 . S
C453 C381 1.233 . S
C469 C150 1.233 . S
C471 C216 1.233 . S
C487 C183 1.233 . S
C489 C249 1.233 . S
C505 N13 1.821 . S
C507 C172 1.774 . S
C523 C7 1.774 . S
C525 N46 1.821 . S
C541 N79 1.821 . S
C543 C40 1.774 . S
C559 C73 1.774 . S
C561 N112 1.821 . S
C577 C106 1.774 . S
C579 N145 1.821 . S
C595 N178 1.821 . S
C597 C139 1.774 . S
C613 C238 1.774 . S
C615 N211 1.821 . S
C631 C271 1.774 . S
C633 N244 1.821 . S
C649 C304 1.774 . S
C651 N277 1.821 . S
C667 C337 1.774 . S
C669 N310 1.821 . S
C685 C370 1.774 . S
C687 N343 1.821 . S
C703 N376 1.821 . S
C705 C205 1.774 . S
C721 C21 1.397 . S
C723 C219 1.397 . S
C739 C54 1.397 . S
C741 C252 1.397 . S
C757 C87 1.397 . S
C759 C285 1.397 . S
C775 C120 1.397 . S
C777 C318 1.397 . S
C793 C351 1.397 . S
C795 C153 1.397 . S
C811 C186 1.397 . S
C813 C384 1.397 . S
C829 N299 0.906 . S
C831 N2 0.906 . S
C847 N35 0.906 1_655 S
C849 N332 0.906 1_455 S
C865 N68 0.906 1_565 S
C867 N365 0.906 1_545 S
C883 N101 0.906 . S
C885 N200 0.906 . S
C901 N134 0.906 1_455 S
C903 N233 0.906 1_655 S
C919 N266 0.906 1_565 S
C921 N167 0.906 1_545 S
