# Generated by pormake.
# Topology whh, (6)-cn, num edge types: 1
# Building blocks:
#     Node 0, Type 0, BuildingBlock: CUKXOW_clean_sbu_0, # of connection points: 6
#     Node 1, Type 0, BuildingBlock: CUKXOW_clean_sbu_0, # of connection points: 6
#     Node 2, Type 0, BuildingBlock: CUKXOW_clean_sbu_0, # of connection points: 6
#     Node 3, Type 0, BuildingBlock: CUKXOW_clean_sbu_0, # of connection points: 6
#     Node 4, Type 0, BuildingBlock: CUKXOW_clean_sbu_0, # of connection points: 6
#     Node 5, Type 0, BuildingBlock: CUKXOW_clean_sbu_0, # of connection points: 6
#     Node 6, Type 0, BuildingBlock: CUKXOW_clean_sbu_0, # of connection points: 6
#     Node 7, Type 0, BuildingBlock: CUKXOW_clean_sbu_0, # of connection points: 6
#     Node 8, Type 0, BuildingBlock: CUKXOW_clean_sbu_0, # of connection points: 6
#     Node 9, Type 0, BuildingBlock: CUKXOW_clean_sbu_0, # of connection points: 6
#     Node 10, Type 0, BuildingBlock: CUKXOW_clean_sbu_0, # of connection points: 6
#     Node 11, Type 0, BuildingBlock: CUKXOW_clean_sbu_0, # of connection points: 6
#     Node 12, Type 0, BuildingBlock: CUKXOW_clean_sbu_0, # of connection points: 6
#     Node 13, Type 0, BuildingBlock: CUKXOW_clean_sbu_0, # of connection points: 6
#     Node 14, Type 0, BuildingBlock: CUKXOW_clean_sbu_0, # of connection points: 6
#     Node 15, Type 0, BuildingBlock: CUKXOW_clean_sbu_0, # of connection points: 6
#     Edge 16, Type (0, 0), BuildingBlock: OJICUG_clean_linker_0, # of connection points: 2
#     Edge 17, Type (0, 0), BuildingBlock: OJICUG_clean_linker_0, # of connection points: 2
#     Edge 18, Type (0, 0), BuildingBlock: OJICUG_clean_linker_0, # of connection points: 2
#     Edge 19, Type (0, 0), BuildingBlock: OJICUG_clean_linker_0, # of connection points: 2
#     Edge 20, Type (0, 0), BuildingBlock: OJICUG_clean_linker_0, # of connection points: 2
#     Edge 21, Type (0, 0), BuildingBlock: OJICUG_clean_linker_0, # of connection points: 2
#     Edge 22, Type (0, 0), BuildingBlock: OJICUG_clean_linker_0, # of connection points: 2
#     Edge 23, Type (0, 0), BuildingBlock: OJICUG_clean_linker_0, # of connection points: 2
#     Edge 24, Type (0, 0), BuildingBlock: OJICUG_clean_linker_0, # of connection points: 2
#     Edge 25, Type (0, 0), BuildingBlock: OJICUG_clean_linker_0, # of connection points: 2
#     Edge 26, Type (0, 0), BuildingBlock: OJICUG_clean_linker_0, # of connection points: 2
#     Edge 27, Type (0, 0), BuildingBlock: OJICUG_clean_linker_0, # of connection points: 2
#     Edge 28, Type (0, 0), BuildingBlock: OJICUG_clean_linker_0, # of connection points: 2
#     Edge 29, Type (0, 0), BuildingBlock: OJICUG_clean_linker_0, # of connection points: 2
#     Edge 30, Type (0, 0), BuildingBlock: OJICUG_clean_linker_0, # of connection points: 2
#     Edge 31, Type (0, 0), BuildingBlock: OJICUG_clean_linker_0, # of connection points: 2
#     Edge 32, Type (0, 0), BuildingBlock: OJICUG_clean_linker_0, # of connection points: 2
#     Edge 33, Type (0, 0), BuildingBlock: OJICUG_clean_linker_0, # of connection points: 2
#     Edge 34, Type (0, 0), BuildingBlock: OJICUG_clean_linker_0, # of connection points: 2
#     Edge 35, Type (0, 0), BuildingBlock: OJICUG_clean_linker_0, # of connection points: 2
#     Edge 36, Type (0, 0), BuildingBlock: OJICUG_clean_linker_0, # of connection points: 2
#     Edge 37, Type (0, 0), BuildingBlock: OJICUG_clean_linker_0, # of connection points: 2
#     Edge 38, Type (0, 0), BuildingBlock: OJICUG_clean_linker_0, # of connection points: 2
#     Edge 39, Type (0, 0), BuildingBlock: OJICUG_clean_linker_0, # of connection points: 2
#     Edge 40, Type (0, 0), BuildingBlock: OJICUG_clean_linker_0, # of connection points: 2
#     Edge 41, Type (0, 0), BuildingBlock: OJICUG_clean_linker_0, # of connection points: 2
#     Edge 42, Type (0, 0), BuildingBlock: OJICUG_clean_linker_0, # of connection points: 2
#     Edge 43, Type (0, 0), BuildingBlock: OJICUG_clean_linker_0, # of connection points: 2
#     Edge 44, Type (0, 0), BuildingBlock: OJICUG_clean_linker_0, # of connection points: 2
#     Edge 45, Type (0, 0), BuildingBlock: OJICUG_clean_linker_0, # of connection points: 2
#     Edge 46, Type (0, 0), BuildingBlock: OJICUG_clean_linker_0, # of connection points: 2
#     Edge 47, Type (0, 0), BuildingBlock: OJICUG_clean_linker_0, # of connection points: 2
#     Edge 48, Type (0, 0), BuildingBlock: OJICUG_clean_linker_0, # of connection points: 2
#     Edge 49, Type (0, 0), BuildingBlock: OJICUG_clean_linker_0, # of connection points: 2
#     Edge 50, Type (0, 0), BuildingBlock: OJICUG_clean_linker_0, # of connection points: 2
#     Edge 51, Type (0, 0), BuildingBlock: OJICUG_clean_linker_0, # of connection points: 2
#     Edge 52, Type (0, 0), BuildingBlock: OJICUG_clean_linker_0, # of connection points: 2
#     Edge 53, Type (0, 0), BuildingBlock: OJICUG_clean_linker_0, # of connection points: 2
#     Edge 54, Type (0, 0), BuildingBlock: OJICUG_clean_linker_0, # of connection points: 2
#     Edge 55, Type (0, 0), BuildingBlock: OJICUG_clean_linker_0, # of connection points: 2
#     Edge 56, Type (0, 0), BuildingBlock: OJICUG_clean_linker_0, # of connection points: 2
#     Edge 57, Type (0, 0), BuildingBlock: OJICUG_clean_linker_0, # of connection points: 2
#     Edge 58, Type (0, 0), BuildingBlock: OJICUG_clean_linker_0, # of connection points: 2
#     Edge 59, Type (0, 0), BuildingBlock: OJICUG_clean_linker_0, # of connection points: 2
#     Edge 60, Type (0, 0), BuildingBlock: OJICUG_clean_linker_0, # of connection points: 2
#     Edge 61, Type (0, 0), BuildingBlock: OJICUG_clean_linker_0, # of connection points: 2
#     Edge 62, Type (0, 0), BuildingBlock: OJICUG_clean_linker_0, # of connection points: 2
#     Edge 63, Type (0, 0), BuildingBlock: OJICUG_clean_linker_0, # of connection points: 2
# Relax obj value: 0.368
# Max RMSD: 0.317
# Mean RMSD: 0.277
data_MOF--net-whh--node1-CUKXOW_clean_sbu_0--edge1-OJICUG_clean_linker_0
_symmetry_space_group_name_H-M    P1
_symmetry_Int_Tables_number       1
_symmetry_cell_setting            triclinic
loop_
_symmetry_equiv_pos_as_xyz
'x, y, z'
_cell_length_a     23.212804
_cell_length_b     23.297634
_cell_length_c     38.921114
_cell_angle_alpha  93.549087
_cell_angle_beta   100.45733
_cell_angle_gamma 90.199655
loop_
_atom_site_label
_atom_site_type_symbol
_atom_site_fract_x
_atom_site_fract_y
_atom_site_fract_z
_atom_type_partial_charge
Tb0 Tb 0.12064 0.59882 0.13915 0.0
C1 C 0.13857 0.71535 0.18071 0.0
Tb2 Tb 0.06803 0.70677 0.1009 0.0
O3 O 0.21187 0.63249 0.14197 0.0
O4 O 0.14486 0.65983 0.10462 0.0
O5 O 0.15335 0.66111 0.18061 0.0
C6 C 0.03439 0.8143 0.08786 0.0
O7 O 0.10284 0.73804 0.15453 0.0
C8 C 0.99085 0.63665 0.11598 0.0
C9 C 0.06886 0.58808 0.0575 0.0
O10 O 0.08523 0.7995 0.10471 0.0
O11 O 1.00621 0.76766 0.07464 0.0
O12 O 0.97958 0.67358 0.09242 0.0
O13 O 0.04204 0.64682 0.1334 0.0
O14 O 0.07295 0.64551 0.05644 0.0
O15 O 0.08291 0.56052 0.08705 0.0
C16 C 0.09619 0.53689 0.19146 0.0
O17 O 0.13088 0.51948 0.16952 0.0
O18 O 0.07583 0.58671 0.18263 0.0
C19 C 0.19789 0.67014 0.11821 0.0
Tb20 Tb 0.86581 0.09417 0.16852 0.0
C21 C 0.99107 0.11917 0.18075 0.0
Tb22 Tb 0.90652 0.10239 0.10227 0.0
O23 O 0.8632 0.99839 0.16002 0.0
O24 O 0.92428 0.04736 0.14198 0.0
O25 O 0.94417 0.14526 0.18649 0.0
C26 C 0.95247 0.06987 0.04486 0.0
O27 O 0.98576 0.09566 0.14763 0.0
C28 C 0.8456 0.19603 0.1203 0.0
C29 C 0.77661 0.05148 0.10596 0.0
O30 O 0.96961 0.11387 0.0667 0.0
O31 O 0.90722 0.04677 0.0543 0.0
O32 O 0.88762 0.19736 0.10209 0.0
O33 O 0.83891 0.14374 0.12472 0.0
O34 O 0.82153 0.04944 0.0882 0.0
O35 O 0.78186 0.08008 0.13655 0.0
C36 C 0.82391 0.11655 0.2257 0.0
O37 O 0.83579 0.15447 0.20507 0.0
O38 O 0.84906 0.06911 0.21816 0.0
C39 C 0.90352 0.99773 0.14082 0.0
Tb40 Tb 0.49184 0.88895 0.16103 0.0
C41 C 0.47294 0.99928 0.18922 0.0
Tb42 Tb 0.45634 0.9218 0.1125 0.0
O43 O 0.58262 0.88531 0.15091 0.0
O44 O 0.53368 0.95878 0.13954 0.0
O45 O 0.50791 0.958 0.19912 0.0
C46 C 0.47127 0.95694 0.04981 0.0
O47 O 0.44379 0.99341 0.15564 0.0
C48 C 0.36455 0.85919 0.11576 0.0
C49 C 0.51525 0.79082 0.12461 0.0
O50 O 0.43071 0.97459 0.06684 0.0
O51 O 0.50087 0.91839 0.06738 0.0
O52 O 0.3606 0.91172 0.10598 0.0
O53 O 0.41797 0.84564 0.12414 0.0
O54 O 0.48992 0.82915 0.10193 0.0
O55 O 0.52634 0.80774 0.15742 0.0
C56 C 0.42922 0.86663 0.20828 0.0
O57 O 0.48431 0.8524 0.2096 0.0
O58 O 0.41323 0.89943 0.18263 0.0
C59 C 0.58222 0.93562 0.13835 0.0
Tb60 Tb 0.56719 0.44065 0.13363 0.0
C61 C 0.67685 0.49753 0.18136 0.0
Tb62 Tb 0.67468 0.48669 0.10176 0.0
O63 O 0.59985 0.34907 0.13538 0.0
O64 O 0.6451 0.41152 0.11818 0.0
O65 O 0.63274 0.46126 0.1782 0.0
C66 C 0.78848 0.49766 0.10066 0.0
O67 O 0.69491 0.52068 0.15519 0.0
C68 C 0.58905 0.55922 0.09946 0.0
C69 C 0.55999 0.44686 0.05318 0.0
O70 O 0.76635 0.47488 0.12491 0.0
O71 O 0.74623 0.51203 0.07589 0.0
O72 O 0.62753 0.5585 0.0788 0.0
O73 O 0.60406 0.52304 0.12286 0.0
O74 O 0.61765 0.43784 0.05937 0.0
O75 O 0.52828 0.4464 0.07865 0.0
C76 C 0.49594 0.46045 0.18183 0.0
O77 O 0.51131 0.40992 0.17037 0.0
O78 O 0.51627 0.49801 0.16363 0.0
C79 C 0.6487 0.35922 0.12426 0.0
Tb80 Tb 1.00444 0.86018 0.30189 0.0
C81 C 0.06471 0.97655 0.30043 0.0
Tb82 Tb 0.05788 0.91345 0.37084 0.0
O83 O 0.9171 0.86751 0.31641 0.0
O84 O 0.98147 0.92861 0.33496 0.0
O85 O 0.06034 0.92392 0.28595 0.0
C86 C 0.0464 0.96009 0.43352 0.0
O87 O 0.0588 0.98486 0.33407 0.0
C88 C 0.13991 0.84716 0.3515 0.0
C89 C 1.01351 0.7809 0.35992 0.0
O90 O 0.08206 0.97909 0.4143 0.0
O91 O 0.01867 0.91487 0.41767 0.0
O92 O 0.14807 0.88201 0.37946 0.0
O93 O 0.08859 0.85461 0.33447 0.0
O94 O 0.01733 0.82917 0.3808 0.0
O95 O 0.02164 0.78311 0.32769 0.0
C96 C 0.99358 0.8151 0.23823 0.0
O97 O 0.97592 0.79059 0.2635 0.0
O98 O 0.99541 0.86986 0.24645 0.0
C99 C 0.93115 0.91237 0.33751 0.0
Tb100 Tb 0.63229 0.06713 0.32141 0.0
C101 C 0.52359 0.11646 0.32237 0.0
Tb102 Tb 0.61762 0.08587 0.38815 0.0
O103 O 0.56384 0.99822 0.31131 0.0
O104 O 0.61678 1.0068 0.35929 0.0
O105 O 0.57326 0.13757 0.31926 0.0
C106 C 0.57887 0.06665 0.44801 0.0
O107 O 0.52971 0.08495 0.35005 0.0
C108 C 0.67077 0.18044 0.3701 0.0
C109 C 0.74008 0.035 0.37106 0.0
O110 O 0.55306 0.09667 0.42298 0.0
O111 O 0.62884 0.05069 0.44045 0.0
O112 O 0.63558 0.18042 0.39259 0.0
O113 O 0.67759 0.12826 0.36097 0.0
O114 O 0.70611 0.04312 0.39558 0.0
O115 O 0.72134 0.04706 0.33835 0.0
C116 C 0.62809 0.0821 0.25489 0.0
O117 O 0.65066 0.03737 0.27075 0.0
O118 O 0.61267 0.11872 0.27744 0.0
C119 C 0.57413 0.97875 0.34207 0.0
Tb120 Tb 0.41048 0.66906 0.30075 0.0
C121 C 0.40257 0.54636 0.30712 0.0
Tb122 Tb 0.42973 0.63171 0.37738 0.0
O123 O 0.49866 0.6373 0.29045 0.0
O124 O 0.47378 0.63516 0.33718 0.0
O125 O 0.36652 0.58786 0.2989 0.0
C126 C 0.46625 0.58138 0.43766 0.0
O127 O 0.4357 0.5534 0.33925 0.0
C128 C 0.32499 0.67822 0.3524 0.0
C129 C 0.46893 0.7602 0.35901 0.0
O130 O 0.42713 0.56105 0.41159 0.0
O131 O 0.48402 0.63166 0.43031 0.0
O132 O 0.33334 0.64064 0.37613 0.0
O133 O 0.37488 0.68946 0.34648 0.0
O134 O 0.47431 0.72024 0.38345 0.0
O135 O 0.44041 0.74977 0.32642 0.0
C136 C 0.34568 0.69747 0.24236 0.0
O137 O 0.4029 0.69829 0.24922 0.0
O138 O 0.32501 0.68246 0.26919 0.0
C139 C 0.51634 0.62476 0.32286 0.0
Tb140 Tb 0.93428 0.43836 0.35522 0.0
C141 C 0.82535 0.48346 0.30849 0.0
Tb142 Tb 0.83344 0.48619 0.38964 0.0
O143 O 0.88634 0.35566 0.33828 0.0
O144 O 0.86755 0.40371 0.38081 0.0
O145 O 0.87274 0.45332 0.30964 0.0
C146 C 0.71939 0.50316 0.38867 0.0
O147 O 0.80576 0.50498 0.33593 0.0
C148 C 0.91534 0.56254 0.38836 0.0
C149 C 0.94892 0.45518 0.43742 0.0
O150 O 0.74188 0.46093 0.37247 0.0
O151 O 0.76204 0.53176 0.40913 0.0
O152 O 0.88176 0.56346 0.41181 0.0
O153 O 0.89801 0.52186 0.36512 0.0
O154 O 0.89077 0.45571 0.43476 0.0
O155 O 0.97599 0.44725 0.41003 0.0
C156 C 0.01682 0.4566 0.31522 0.0
O157 O 0.99915 0.40599 0.32253 0.0
O158 O 0.99191 0.49453 0.33315 0.0
C159 C 0.84949 0.36074 0.3599 0.0
Tb160 Tb 0.95614 0.33796 0.88867 0.0
C161 C 0.9509 0.4535 0.93374 0.0
Tb162 Tb 0.90644 0.44617 0.85036 0.0
O163 O 0.03826 0.38065 0.90754 0.0
O164 O 0.98739 0.40125 0.85931 0.0
O165 O 0.94908 0.39576 0.9342 0.0
C166 C 0.93111 0.51311 0.80028 0.0
O167 O 0.93787 0.48189 0.90429 0.0
C168 C 0.82625 0.37212 0.86541 0.0
C169 C 0.89389 0.33107 0.80732 0.0
O170 O 0.89448 0.52705 0.82173 0.0
O171 O 0.95365 0.46386 0.80846 0.0
O172 O 0.8151 0.41036 0.84189 0.0
O173 O 0.87771 0.38308 0.88163 0.0
O174 O 0.88281 0.38601 0.80675 0.0
O175 O 0.92058 0.3062 0.83545 0.0
C176 C 1.00575 0.23486 0.89458 0.0
O177 O 0.95125 0.24491 0.89763 0.0
O178 O 0.03112 0.28318 0.89175 0.0
C179 C 0.03334 0.41439 0.88204 0.0
Tb180 Tb 0.12378 0.92923 0.88366 0.0
C181 C 0.24995 0.97986 0.87344 0.0
Tb182 Tb 0.1523 0.93541 0.81437 0.0
O183 O 0.14563 0.83572 0.88564 0.0
O184 O 0.1888 0.88805 0.85826 0.0
O185 O 0.20969 0.9804 0.89447 0.0
C186 C 0.18722 0.92017 0.75435 0.0
O187 O 0.23856 0.95468 0.8417 0.0
C188 C 0.10984 0.03129 0.84024 0.0
C189 C 0.03387 0.90154 0.80831 0.0
O190 O 0.17628 0.87943 0.77343 0.0
O191 O 0.15993 0.96509 0.76397 0.0
O192 O 0.14636 0.03058 0.81872 0.0
O193 O 0.0948 0.98063 0.84288 0.0
O194 O 0.08055 0.87593 0.80241 0.0
O195 O 0.04045 0.92792 0.84073 0.0
C196 C 0.08289 0.9635 0.94257 0.0
O197 O 0.06756 0.91664 0.92291 0.0
O198 O 0.12394 0.98886 0.93013 0.0
C199 C 0.18458 0.83627 0.86524 0.0
Tb200 Tb 0.57377 0.1207 0.8832 0.0
C201 C 0.52391 0.24677 0.8703 0.0
Tb202 Tb 0.5272 0.14345 0.82011 0.0
O203 O 0.66085 0.15419 0.90047 0.0
O204 O 0.61438 0.17282 0.8492 0.0
O205 O 0.54669 0.21122 0.8946 0.0
C206 C 0.50272 0.17805 0.75678 0.0
O207 O 0.51202 0.2284 0.83749 0.0
C208 C 0.45779 0.0793 0.84992 0.0
C209 C 0.60072 0.05074 0.81457 0.0
O210 O 0.47808 0.19786 0.78231 0.0
O211 O 0.51566 0.12571 0.76391 0.0
O212 O 0.47049 0.06622 0.81952 0.0
O213 O 0.48491 0.12418 0.86212 0.0
O214 O 0.60352 0.1038 0.8077 0.0
O215 O 0.58056 0.04364 0.84416 0.0
C216 C 0.55982 0.07354 0.94258 0.0
O217 O 0.58999 0.0514 0.92006 0.0
O218 O 0.54125 0.12303 0.93254 0.0
C219 C 0.66185 0.1813 0.87236 0.0
Tb220 Tb 0.36128 0.55083 0.89072 0.0
C221 C 0.47652 0.58876 0.93794 0.0
Tb222 Tb 0.46705 0.5946 0.85666 0.0
O223 O 0.40857 0.47865 0.91354 0.0
O224 O 0.43093 0.51325 0.86899 0.0
O225 O 0.41921 0.59917 0.93263 0.0
C226 C 0.53516 0.57302 0.80674 0.0
O227 O 0.50626 0.58506 0.91146 0.0
C228 C 0.38628 0.67728 0.86551 0.0
C229 C 0.35378 0.54257 0.81099 0.0
O230 O 0.54794 0.61029 0.83395 0.0
O231 O 0.48641 0.54786 0.80917 0.0
O232 O 0.43332 0.68566 0.85208 0.0
O233 O 0.3919 0.62639 0.87444 0.0
O234 O 0.39911 0.57711 0.81339 0.0
O235 O 0.33839 0.51775 0.83736 0.0
C236 C 0.24763 0.53859 0.89235 0.0
O237 O 0.26909 0.56182 0.868 0.0
O238 O 0.29038 0.52506 0.91708 0.0
C239 C 0.44653 0.47775 0.89259 0.0
Tb240 Tb 0.98092 0.1177 0.62304 0.0
C241 C 0.02038 0.2511 0.63197 0.0
Tb242 Tb 0.03304 0.17231 0.68927 0.0
O243 O 0.89113 0.14695 0.61179 0.0
O244 O 0.94707 0.17922 0.6576 0.0
O245 O 0.02019 0.20214 0.61208 0.0
C246 C 0.04925 0.22068 0.75277 0.0
O247 O 1.0102 0.24877 0.66371 0.0
C248 C 0.10731 0.12129 0.65386 0.0
C249 C 0.97635 0.05526 0.69469 0.0
O250 O 0.06732 0.24189 0.72656 0.0
O251 O 0.04219 0.16601 0.74507 0.0
O252 O 0.11915 0.16871 0.67285 0.0
O253 O 0.05836 0.1031 0.65774 0.0
O254 O 0.98653 0.10686 0.71003 0.0
O255 O 0.97688 0.04689 0.66021 0.0
C256 C 0.99104 0.07019 0.56015 0.0
O257 O 0.95621 0.05137 0.57988 0.0
O258 O 0.01911 0.11537 0.57575 0.0
C259 C 0.89613 0.18338 0.63886 0.0
Tb260 Tb 0.42226 0.94623 0.60944 0.0
C261 C 0.29675 0.99484 0.62104 0.0
Tb262 Tb 0.39836 0.96294 0.67328 0.0
O263 O 0.40651 0.85077 0.60658 0.0
O264 O 0.35587 0.90404 0.63214 0.0
O265 O 0.33803 0.99689 0.60104 0.0
C266 C 0.40014 0.95339 0.74115 0.0
O267 O 0.30851 0.9703 0.65093 0.0
C268 C 0.4368 0.06013 0.65116 0.0
C269 C 0.51363 0.92551 0.67996 0.0
O270 O 0.40514 0.91215 0.71826 0.0
O271 O 0.39352 1.00055 0.72498 0.0
O272 O 0.39721 0.05667 0.67037 0.0
O273 O 0.45762 1.0105 0.64756 0.0
O274 O 0.46564 0.90085 0.683 0.0
O275 O 0.50704 0.95392 0.65074 0.0
C276 C 0.4568 0.96778 0.54879 0.0
O277 O 0.47625 0.92711 0.56904 0.0
O278 O 0.4152 0.99346 0.5616 0.0
C279 C 0.36484 0.85172 0.62501 0.0
Tb280 Tb 0.60493 0.39897 0.61587 0.0
C281 C 0.55475 0.27632 0.63761 0.0
Tb282 Tb 0.63159 0.36217 0.69277 0.0
O283 O 0.69922 0.39191 0.61208 0.0
O284 O 0.66648 0.34572 0.64628 0.0
O285 O 0.55455 0.31397 0.61222 0.0
C286 C 0.68877 0.30793 0.7459 0.0
O287 O 0.58466 0.28555 0.66993 0.0
C288 C 0.52301 0.40306 0.67283 0.0
C289 C 0.63659 0.48554 0.68637 0.0
O290 O 0.68945 0.29572 0.7131 0.0
O291 O 0.66363 0.35777 0.74806 0.0
O292 O 0.54227 0.38826 0.70476 0.0
O293 O 0.56541 0.39537 0.65786 0.0
O294 O 0.67313 0.4449 0.69691 0.0
O295 O 0.60261 0.47648 0.6545 0.0
C296 C 0.56347 0.4518 0.55716 0.0
O297 O 0.59794 0.47431 0.5847 0.0
O298 O 0.55265 0.39823 0.56226 0.0
C299 C 0.71429 0.35863 0.63772 0.0
Tb300 Tb 0.20187 0.54816 0.60473 0.0
C301 C 0.08789 0.57734 0.55569 0.0
Tb302 Tb 0.09936 0.59196 0.63797 0.0
O303 O 0.15637 0.46863 0.58346 0.0
O304 O 0.13747 0.50932 0.62911 0.0
O305 O 0.14626 0.57863 0.55896 0.0
C306 C 1.01383 0.59424 0.67812 0.0
O307 O 0.05979 0.58283 0.58279 0.0
C308 C 0.1837 0.67172 0.63318 0.0
C309 C 0.20475 0.5501 0.6842 0.0
O310 O 0.05854 0.62924 0.68154 0.0
O311 O 1.014 0.5623 0.64938 0.0
O312 O 0.15 0.67328 0.65652 0.0
O313 O 0.16467 0.62986 0.61178 0.0
O314 O 0.14812 0.54476 0.67816 0.0
O315 O 0.23411 0.56157 0.65985 0.0
C316 C 0.31533 0.52082 0.60691 0.0
O317 O 0.29582 0.56705 0.62076 0.0
O318 O 0.27045 0.4932 0.58824 0.0
C319 C 0.12158 0.46867 0.60593 0.0
C320 C 0.88196 0.53282 0.13906 0.0
C321 C 0.84935 0.51878 0.10528 0.0
H322 H 0.95459 0.58184 0.16945 0.0
C323 C 0.8717 0.53356 0.07603 0.0
H324 H 0.86501 0.52229 0.1621 0.0
C325 C 0.92328 0.56589 0.08031 0.0
C326 C 0.95295 0.58526 0.11389 0.0
H327 H 0.84737 0.52334 0.04984 0.0
H328 H 0.93694 0.58028 0.05705 0.0
C329 C 0.93352 0.56636 0.14338 0.0
C330 C 0.94726 0.87883 0.08078 0.0
C331 C 1.00301 0.86521 0.09909 0.0
H332 H 0.8712 0.9317 0.08008 0.0
C333 C 0.02381 0.89377 0.13188 0.0
H334 H 0.92992 0.85701 0.05562 0.0
C335 C 0.98946 0.93439 0.14633 0.0
C336 C 0.93368 0.94752 0.12829 0.0
H337 H 0.0661 0.88354 0.14687 0.0
H338 H 1.00691 0.9561 0.17149 0.0
C339 C 0.91312 0.92029 0.09511 0.0
C340 C 0.68053 0.93096 0.11896 0.0
C341 C 0.62924 0.96117 0.12225 0.0
H342 H 0.76792 0.93547 0.10808 0.0
C343 C 0.62302 1.01667 0.10989 0.0
H344 H 0.68623 0.8877 0.1276 0.0
C345 C 0.66917 0.04337 0.09783 0.0
C346 C 0.72275 1.01529 0.09757 0.0
H347 H 0.58371 0.04088 0.11144 0.0
H348 H 0.66522 0.08836 0.0923 0.0
C349 C 0.72673 0.95771 0.10668 0.0
C350 C 0.52818 0.70717 0.08183 0.0
C351 C 0.52454 0.72891 0.1157 0.0
H352 H 0.55047 0.63485 0.05011 0.0
C353 C 0.53238 0.69065 0.14299 0.0
H354 H 0.52149 0.73504 0.06024 0.0
C355 C 0.54835 0.63357 0.13729 0.0
C356 C 0.55679 0.61311 0.10408 0.0
H357 H 0.52835 0.70532 0.1694 0.0
H358 H 0.55794 0.60689 0.15938 0.0
C359 C 0.54441 0.64975 0.07612 0.0
C360 C 0.88884 1.00651 0.35328 0.0
C361 C 0.89007 0.94657 0.35493 0.0
H362 H 0.83944 0.08287 0.35879 0.0
C363 C 0.84891 0.91932 0.37105 0.0
H364 H 0.92006 0.02847 0.34087 0.0
C365 C 0.80393 0.9509 0.38264 0.0
C366 C 0.79886 1.00984 0.37744 0.0
H367 H 0.84979 0.87316 0.37304 0.0
H368 H 0.76962 0.92811 0.39195 0.0
C369 C 0.84331 0.03778 0.36415 0.0
C370 C 0.57499 0.88984 0.37805 0.0
C371 C 0.54618 0.92636 0.35277 0.0
H372 H 0.5739 0.80682 0.40042 0.0
C373 C 0.4893 0.91138 0.33605 0.0
H374 H 0.61897 0.90051 0.39176 0.0
C375 C 0.46218 0.86131 0.34314 0.0
C376 C 0.49247 0.82086 0.36503 0.0
H377 H 0.46581 0.93728 0.31633 0.0
H378 H 0.41844 0.85183 0.32856 0.0
C379 C 0.54883 0.83666 0.38358 0.0
C380 C 0.58891 0.60187 0.37555 0.0
C381 C 0.56891 0.59399 0.33914 0.0
H382 H 0.65249 0.57945 0.41995 0.0
C383 C 0.5966 0.55379 0.31967 0.0
H384 H 0.56812 0.6327 0.39114 0.0
C385 C 0.64344 0.52189 0.33638 0.0
C386 C 0.66422 0.53048 0.37276 0.0
H387 H 0.58149 0.5464 0.29172 0.0
H388 H 0.66469 0.49182 0.32053 0.0
C389 C 0.63673 0.57113 0.39212 0.0
C390 C 0.98463 0.67771 0.34358 0.0
C391 C 0.99431 0.72367 0.36961 0.0
H392 H 0.9504 0.59286 0.32835 0.0
C393 C 0.98166 0.71421 0.40273 0.0
H394 H 0.99332 0.68277 0.31751 0.0
C395 C 0.95879 0.66064 0.40923 0.0
C396 C 0.94722 0.61574 0.38264 0.0
H397 H 0.98818 0.74836 0.4233 0.0
H398 H 0.94838 0.65494 0.43484 0.0
C399 C 0.96073 0.62509 0.34983 0.0
C400 C 0.11103 0.47778 0.91541 0.0
C401 C 0.07857 0.45918 0.88238 0.0
H402 H 0.19025 0.51648 0.94433 0.0
C403 C 0.09838 0.47429 0.85215 0.0
H404 H 0.09685 0.46681 0.93926 0.0
C405 C 0.15209 0.50419 0.85527 0.0
C406 C 0.18649 0.51829 0.88859 0.0
H407 H 0.07499 0.45947 0.82645 0.0
H408 H 0.1686 0.51257 0.83172 0.0
C409 C 0.16466 0.50618 0.91849 0.0
C410 C 0.06896 0.18535 0.85771 0.0
C411 C 0.02963 0.1808 0.88115 0.0
H412 H 0.1245 0.14224 0.82648 0.0
C413 C 0.01486 0.12605 0.89018 0.0
H414 H 0.08008 0.2268 0.84931 0.0
C415 C 0.04079 0.07705 0.87675 0.0
C416 C 0.08138 0.0823 0.85402 0.0
H417 H 0.98438 0.12124 0.90787 0.0
H418 H 0.02928 0.03515 0.88424 0.0
C419 C 0.09445 0.13688 0.84437 0.0
C420 C 0.35413 0.96789 0.87118 0.0
C421 C 0.31094 1.0021 0.88336 0.0
H422 H 0.43234 0.96597 0.84907 0.0
C423 C 0.32253 0.06121 0.89066 0.0
H424 H 0.3464 0.92218 0.86503 0.0
C425 C 0.37314 0.08612 0.88218 0.0
C426 C 0.41131 0.05246 0.8652 0.0
H427 H 0.28994 0.08886 0.89941 0.0
H428 H 0.37964 0.1323 0.88606 0.0
C429 C 0.40288 0.99291 0.86136 0.0
C430 C 0.48772 0.34107 0.84892 0.0
C431 C 0.51097 0.30838 0.87756 0.0
H432 H 0.45246 0.4207 0.83108 0.0
C433 C 0.51965 0.33537 0.91135 0.0
H434 H 0.47841 0.32216 0.82245 0.0
C435 C 0.50237 0.39269 0.91622 0.0
C436 C 0.47804 0.42414 0.88736 0.0
H437 H 0.53746 0.31179 0.9339 0.0
H438 H 0.50569 0.41168 0.94261 0.0
C439 C 0.47267 0.39827 0.85368 0.0
C440 C 0.14623 0.02782 0.6342 0.0
C441 C 0.14895 0.08808 0.63634 0.0
H442 H 0.19176 0.95 0.62596 0.0
C443 C 0.1941 0.11591 0.62384 0.0
H444 H 0.11171 1.00529 0.64353 0.0
C445 C 0.23917 0.08401 0.61256 0.0
C446 C 0.24004 0.02408 0.61441 0.0
H447 H 0.19623 0.16243 0.62459 0.0
H448 H 0.27636 0.10662 0.60626 0.0
C449 C 0.19158 0.99613 0.62355 0.0
C450 C 0.48311 0.21765 0.66108 0.0
C451 C 0.5151 0.22429 0.63399 0.0
H452 H 0.43441 0.16213 0.68741 0.0
C453 C 0.51876 0.17608 0.61073 0.0
H454 H 0.48029 0.25312 0.68006 0.0
C455 C 0.49328 0.12232 0.61574 0.0
C456 C 0.46336 0.11599 0.64392 0.0
H457 H 0.54384 0.17902 0.58999 0.0
H458 H 0.49763 0.08568 0.59792 0.0
C459 C 0.4574 0.16496 0.66571 0.0
C460 C 0.40119 0.45652 0.60369 0.0
C461 C 0.36935 0.49193 0.62358 0.0
H462 H 0.47471 0.40123 0.60391 0.0
C463 C 0.38622 0.49536 0.6604 0.0
H464 H 0.38859 0.45212 0.57544 0.0
C465 C 0.43406 0.46408 0.6769 0.0
C466 C 0.4674 0.43049 0.65686 0.0
H467 H 0.36156 0.52133 0.67654 0.0
H468 H 0.44608 0.46767 0.70517 0.0
C469 C 0.45024 0.42708 0.6201 0.0
C470 C 0.06803 0.40849 0.64169 0.0
C471 C 0.08863 0.41575 0.61062 0.0
H472 H 0.02998 0.35172 0.67236 0.0
C473 C 0.08196 0.36964 0.58478 0.0
H474 H 0.07251 0.44287 0.66209 0.0
C475 C 0.0579 0.31639 0.59065 0.0
C476 C 0.03945 0.30837 0.6224 0.0
H477 H 0.09714 0.37414 0.56034 0.0
H478 H 0.05535 0.28125 0.57084 0.0
C479 C 0.04368 0.35572 0.64745 0.0
C480 C 0.14044 0.80802 0.21089 0.0
C481 C 0.15044 0.74919 0.214 0.0
H482 H 0.07413 0.87176 0.20947 0.0
C483 C 0.12585 0.72239 0.23907 0.0
H484 H 0.16565 0.833 0.19613 0.0
C485 C 0.07129 0.74117 0.2445 0.0
C486 C 0.04885 0.79278 0.23044 0.0
H487 H 0.13976 0.67996 0.24671 0.0
H488 H 0.04676 0.71495 0.25902 0.0
C489 C 0.08661 0.82874 0.21657 0.0
C490 C 0.67054 0.15619 0.22898 0.0
C491 C 0.6449 0.10087 0.22352 0.0
H492 H 0.75319 0.2012 0.24223 0.0
C493 C 0.67186 0.05804 0.20602 0.0
H494 H 0.64734 0.19218 0.23874 0.0
C495 C 0.73201 0.06162 0.20941 0.0
C496 C 0.76239 0.11153 0.2259 0.0
H497 H 0.65019 1.01681 0.19813 0.0
H498 H 0.75433 0.02496 0.19972 0.0
C499 C 0.73104 0.16059 0.23302 0.0
C500 C 0.38458 0.77405 0.18728 0.0
C501 C 0.38711 0.82273 0.21078 0.0
H502 H 0.34616 0.69121 0.17224 0.0
C503 C 0.34285 0.8319 0.23043 0.0
H504 H 0.41535 0.76841 0.16954 0.0
C505 C 0.30348 0.78682 0.23148 0.0
C506 C 0.31461 0.73272 0.21613 0.0
H507 H 0.34085 0.87173 0.24607 0.0
H508 H 0.27515 0.79039 0.25076 0.0
C509 C 0.34309 0.73122 0.18752 0.0
C510 C 0.73797 0.4433 0.22301 0.0
C511 C 0.7167 0.49701 0.21319 0.0
H512 H 0.79121 0.39783 0.26216 0.0
C513 C 0.73295 0.54747 0.2338 0.0
H514 H 0.72515 0.40424 0.20667 0.0
C515 C 0.76995 0.54362 0.26564 0.0
C516 C 0.79076 0.48965 0.27535 0.0
H517 H 0.71597 0.58876 0.22574 0.0
H518 H 0.78214 0.58205 0.2826 0.0
C519 C 0.77557 0.43966 0.25413 0.0
C520 C 0.95318 0.21564 0.77204 0.0
C521 C 0.9974 0.24882 0.76183 0.0
H522 H 0.86989 0.21673 0.78791 0.0
C523 C 0.98424 0.30472 0.75133 0.0
H524 H 0.95972 0.17092 0.77763 0.0
C525 C 0.9309 0.3286 0.75493 0.0
C526 C 0.89541 0.30013 0.77412 0.0
H527 H 0.01515 0.33016 0.74065 0.0
H528 H 0.92468 0.3736 0.7502 0.0
C529 C 0.90026 0.2406 0.77588 0.0
C530 C 0.34629 0.88769 0.76796 0.0
C531 C 0.36988 0.94351 0.76971 0.0
H532 H 0.26768 0.8372 0.75277 0.0
C533 C 0.33522 0.98973 0.77725 0.0
H534 H 0.37368 0.85054 0.76572 0.0
C535 C 0.27501 0.98342 0.76759 0.0
C536 C 0.24982 0.9287 0.75627 0.0
H537 H 0.35376 0.03287 0.78224 0.0
H538 H 0.24858 0.02134 0.76938 0.0
C539 C 0.28602 0.88036 0.75829 0.0
C540 C 0.57107 0.25977 0.77766 0.0
C541 C 0.55605 0.21081 0.7546 0.0
H542 H 0.63663 0.31986 0.8023 0.0
C543 C 0.6001 0.1843 0.73909 0.0
H544 H 0.5392 0.28196 0.79019 0.0
C545 C 0.65634 0.20845 0.74504 0.0
C546 C 0.66704 0.26204 0.76408 0.0
H547 H 0.59081 0.14528 0.72233 0.0
H548 H 0.68774 0.19085 0.72989 0.0
C549 C 0.62786 0.28072 0.78549 0.0
C550 C 0.23658 0.49884 0.73629 0.0
C551 C 0.23531 0.54909 0.7185 0.0
H552 H 0.27894 0.45661 0.78109 0.0
C553 C 0.2694 0.5973 0.73157 0.0
H554 H 0.20958 0.4617 0.72541 0.0
C555 C 0.30815 0.59443 0.76216 0.0
C556 C 0.31268 0.54314 0.77939 0.0
H557 H 0.26731 0.63631 0.71753 0.0
H558 H 0.33473 0.6323 0.77214 0.0
C559 C 0.27594 0.49578 0.76728 0.0
C560 C 0.27357 0.71993 0.08995 0.0
C561 C 0.23435 0.72239 0.11367 0.0
H562 H 0.34498 0.76092 0.0717 0.0
C563 C 0.23415 0.77393 0.13479 0.0
H564 H 0.27479 0.68165 0.07286 0.0
C565 C 0.27326 0.82 0.13355 0.0
C566 C 0.31494 0.81589 0.11152 0.0
H567 H 0.20593 0.77836 0.15365 0.0
H568 H 0.27362 0.85723 0.15171 0.0
C569 C 0.3137 0.76561 0.08918 0.0
C570 C 0.79452 0.29261 0.10515 0.0
C571 C 0.79687 0.23995 0.12159 0.0
H572 H 0.74681 0.37048 0.09239 0.0
C573 C 0.74951 0.22769 0.13846 0.0
H574 H 0.82918 0.30392 0.09146 0.0
C575 C 0.70222 0.26586 0.13895 0.0
C576 C 0.69973 0.31842 0.12264 0.0
H577 H 0.74863 0.18801 0.15141 0.0
H578 H 0.66744 0.25412 0.15246 0.0
C579 C 0.74695 0.33107 0.10571 0.0
C580 C 0.28574 0.77844 0.3432 0.0
C581 C 0.27495 0.71976 0.34712 0.0
H582 H 0.25182 0.86433 0.34176 0.0
C583 C 0.21685 0.70267 0.34766 0.0
H584 H 0.32969 0.79349 0.34256 0.0
C585 C 0.17146 0.7434 0.34573 0.0
C586 C 0.18329 0.80252 0.34418 0.0
H587 H 0.20673 0.65795 0.35035 0.0
H588 H 0.12787 0.72895 0.34767 0.0
C589 C 0.24093 0.81922 0.34248 0.0
C590 C 0.79449 0.26574 0.3402 0.0
C591 C 0.80267 0.31587 0.36305 0.0
H592 H 0.74834 0.18516 0.32453 0.0
C593 C 0.76586 0.32136 0.38831 0.0
H594 H 0.82138 0.25926 0.32032 0.0
C595 C 0.72273 0.27858 0.39042 0.0
C596 C 0.7151 0.2282 0.36764 0.0
H597 H 0.7704 0.35877 0.40659 0.0
H598 H 0.69582 0.28468 0.41031 0.0
C599 C 0.75214 0.22286 0.34259 0.0
C600 C 0.73041 0.23503 0.84066 0.0
C601 C 0.70824 0.22669 0.87122 0.0
H602 H 0.78259 0.28795 0.81419 0.0
C603 C 0.73063 0.26305 0.90117 0.0
H604 H 0.71774 0.20523 0.81813 0.0
C605 C 0.77064 0.30855 0.89974 0.0
C606 C 0.78873 0.31993 0.86815 0.0
H607 H 0.71589 0.25737 0.92562 0.0
H608 H 0.78561 0.33627 0.92307 0.0
C609 C 0.76865 0.28179 0.83878 0.0
C610 C 0.32758 0.76604 0.84569 0.0
C611 C 0.33392 0.71704 0.8656 0.0
H612 H 0.27685 0.8402 0.82955 0.0
C613 C 0.28934 0.70689 0.88505 0.0
H614 H 0.36019 0.77571 0.83012 0.0
C615 C 0.24084 0.74439 0.88474 0.0
C616 C 0.23462 0.79351 0.86479 0.0
H617 H 0.29231 0.67022 0.90102 0.0
H618 H 0.20848 0.73519 0.90055 0.0
C619 C 0.27917 0.80324 0.84525 0.0
C620 C 0.82677 0.25515 0.60918 0.0
C621 C 0.85394 0.23201 0.6406 0.0
H622 H 0.76341 0.31307 0.5838 0.0
C623 C 0.83804 0.25437 0.67195 0.0
H624 H 0.83857 0.23996 0.58454 0.0
C625 C 0.7941 0.29667 0.67145 0.0
C626 C 0.76523 0.31797 0.63966 0.0
H627 H 0.8583 0.23807 0.69665 0.0
H628 H 0.78342 0.31309 0.69602 0.0
C629 C 0.78371 0.29756 0.60874 0.0
C630 C 0.31102 0.75439 0.60304 0.0
C631 C 0.32003 0.80372 0.62669 0.0
H632 H 0.26154 0.6754 0.58577 0.0
C633 C 0.28327 0.80839 0.65197 0.0
H634 H 0.3373 0.74894 0.5828 0.0
C635 C 0.24034 0.76578 0.65398 0.0
C636 C 0.23087 0.71667 0.63035 0.0
H637 H 0.28794 0.84532 0.67065 0.0
H638 H 0.21402 0.77171 0.67419 0.0
C639 C 0.26707 0.71201 0.60467 0.0
C640 C 1.01051 0.46055 0.99484 0.0
C641 C 0.97785 0.48761 0.96641 0.0
H642 H 0.06603 0.47072 0.04527 0.0
C643 C 0.97749 0.54812 0.96779 0.0
H644 H 1.01311 0.41412 0.99446 0.0
C645 C 1.00876 0.58066 -0.00329 0.0
C646 C 0.04133 0.55363 0.02514 0.0
H647 H 0.95331 0.5706 0.94633 0.0
H648 H 1.00636 0.6271 -0.00298 0.0
C649 C 0.04171 0.49312 0.02382 0.0
C650 C 0.06953 0.0426 0.98806 0.0
C651 C 0.05095 0.98968 0.96981 0.0
H652 H 0.05321 0.10948 0.02571 0.0
C653 C 0.99894 0.9643 0.97595 0.0
H654 H 0.10904 0.06374 0.98382 0.0
C655 C 0.96648 0.99096 -0.00039 0.0
C656 C 0.98507 0.04381 0.01791 0.0
H657 H 0.98287 0.92397 0.96215 0.0
H658 H 0.9269 0.96983 0.00377 0.0
C659 C 0.03719 0.06915 0.01187 0.0
C660 C 0.49128 0.06649 0.98482 0.0
C661 C 0.53809 0.04334 0.97023 0.0
H662 H 0.43221 0.05659 0.02067 0.0
C663 C 0.56043 0.99002 0.98063 0.0
H664 H 0.47251 0.10719 0.97693 0.0
C665 C 0.53722 0.9611 0.00572 0.0
C666 C 0.49067 0.98453 0.02048 0.0
H667 H 0.59601 0.97091 0.96958 0.0
H668 H 0.55627 0.92066 0.01392 0.0
C669 C 0.46761 0.03726 0.00954 0.0
C670 C 0.57228 0.49113 -0.00228 0.0
C671 C 0.53657 0.47963 0.02217 0.0
H672 H 0.58285 0.53621 0.95304 0.0
C673 C 0.48302 0.5085 0.02022 0.0
H674 H 0.61433 0.4707 -0.0013 0.0
C675 C 0.46554 0.54732 0.99444 0.0
C676 C 0.50087 0.55815 0.96966 0.0
H677 H 0.45491 0.50214 0.03907 0.0
H678 H 0.42344 0.56768 0.99344 0.0
C679 C 0.55476 0.52988 0.97191 0.0
C680 C 0.03164 0.07335 0.50518 0.0
C681 C 1.00254 0.04238 0.52701 0.0
H682 H 0.06879 0.07137 0.45847 0.0
C683 C 0.98859 0.98413 0.51806 0.0
H684 H 0.04256 0.1185 0.51143 0.0
C685 C 1.00402 0.95718 0.48793 0.0
C686 C 0.0336 0.98805 0.46629 0.0
H687 H 0.96688 0.95918 0.53468 0.0
H688 H 0.99307 0.91204 0.48165 0.0
C689 C 0.0471 0.0464 0.47509 0.0
C690 C 0.46402 0.03868 0.50356 0.0
C691 C 0.48666 0.99089 0.52166 0.0
H692 H 0.47573 0.10037 0.46653 0.0
C693 C 0.54098 0.96929 0.51609 0.0
H694 H 0.42263 0.0568 0.50751 0.0
C695 C 0.57207 0.99509 0.49315 0.0
C696 C 0.54932 0.04283 0.47504 0.0
H697 H 0.55992 0.93292 0.52989 0.0
H698 H 0.61348 0.97708 0.48917 0.0
C699 C 0.49478 0.06409 0.48039 0.0
C700 C 0.49771 0.45893 0.49844 0.0
C701 C 0.53868 0.48428 0.52627 0.0
H702 H 0.44237 0.4701 0.44886 0.0
C703 C 0.5551 0.54228 0.525 0.0
H704 H 0.48406 0.41447 0.49866 0.0
C705 C 0.53137 0.57419 0.49649 0.0
C706 C 0.49031 0.54891 0.46869 0.0
H707 H 0.58646 0.56316 0.54612 0.0
H708 H 0.5452 0.61858 0.49622 0.0
C709 C 0.47367 0.49097 0.47002 0.0
C710 C 0.9928 0.55829 0.51581 0.0
C711 C 0.05368 0.55162 0.52295 0.0
H712 H 0.91157 0.53123 0.48397 0.0
C713 C 0.07953 0.51004 0.50305 0.0
H714 H 0.97174 0.58943 0.53109 0.0
C715 C 0.04498 0.4756 0.47656 0.0
C716 C 0.98403 0.48202 0.4696 0.0
H717 H 0.12621 0.50246 0.50877 0.0
H718 H 0.06597 0.44438 0.46129 0.0
C719 C 0.95828 0.52376 0.48945 0.0
C720 C 0.05696 0.53113 0.28194 0.0
C721 C 0.0466 0.47244 0.28554 0.0
H722 H 0.07992 0.59608 0.25027 0.0
C723 C 0.05795 0.43298 0.2585 0.0
H724 H 0.04868 0.56321 0.30176 0.0
C725 C 0.07746 0.45235 0.22843 0.0
C726 C 0.08494 0.51164 0.22451 0.0
H727 H 0.04963 0.38752 0.25991 0.0
H728 H 0.08375 0.42131 0.20761 0.0
C729 C 0.07509 0.5502 0.25209 0.0
C730 C 0.99457 1.01314 0.25187 0.0
C731 C 0.04879 0.02143 0.27411 0.0
H732 H 0.93818 0.03301 0.20609 0.0
C733 C 0.08767 0.06254 0.26491 0.0
H734 H 0.96337 0.98177 0.25737 0.0
C735 C 0.07133 0.09425 0.23424 0.0
C736 C 0.01709 0.08335 0.21125 0.0
H737 H 0.13065 0.06953 0.28094 0.0
H738 H 0.101 0.12679 0.22854 0.0
C739 C 0.98 0.04245 0.22146 0.0
C740 C 0.45348 0.046 0.2816 0.0
C741 C 0.4842 0.09869 0.28727 0.0
H742 H 0.42553 0.973 0.24593 0.0
C743 C 0.49115 0.12646 0.2567 0.0
H744 H 0.44346 0.02503 0.30378 0.0
C745 C 0.48067 0.09708 0.22305 0.0
C746 C 0.45949 0.04008 0.21849 0.0
H747 H 0.51222 0.16846 0.25932 0.0
H748 H 0.49486 0.11696 0.20151 0.0
C749 C 0.44256 1.01659 0.24802 0.0
C750 C 0.41931 0.54942 0.24488 0.0
C751 C 0.42611 0.51898 0.27575 0.0
H752 H 0.43641 0.55649 0.19309 0.0
C753 C 0.45408 0.46529 0.27456 0.0
H754 H 0.39795 0.59034 0.24359 0.0
C755 C 0.4742 0.44382 0.24362 0.0
C756 C 0.46852 0.47633 0.21353 0.0
H757 H 0.46005 0.43983 0.29724 0.0
H758 H 0.49588 0.40277 0.24369 0.0
C759 C 0.44109 0.52954 0.21513 0.0
C760 C 0.99043 0.61357 0.73959 0.0
C761 C 0.98283 0.57958 0.70762 0.0
H762 H 0.97888 0.62063 0.79365 0.0
C763 C 0.95178 0.52714 0.70597 0.0
H764 H 1.01477 0.65382 0.74224 0.0
C765 C 0.93161 0.50819 0.7355 0.0
C766 C 0.94089 0.54103 0.76779 0.0
H767 H 0.94556 0.49914 0.68227 0.0
H768 H 0.91012 0.46653 0.73333 0.0
C769 C 0.96953 0.59472 0.76917 0.0
C770 C 1.00053 0.95395 0.71472 0.0
C771 C 0.97516 1.00784 0.71965 0.0
H772 H 0.03686 0.87783 0.73803 0.0
C773 C 0.96017 0.02145 0.75294 0.0
H774 H 1.01418 0.94201 0.69011 0.0
C775 C 0.97392 0.98497 0.78093 0.0
C776 C 1.00305 0.93281 0.77688 0.0
H777 H 0.94086 0.06259 0.75816 0.0
H778 H 0.96524 0.9997 0.8064 0.0
C779 C 1.01387 0.91711 0.74268 0.0
C780 C 0.58625 0.99807 0.71775 0.0
C781 C 0.55038 0.94867 0.71474 0.0
H782 H 0.63429 0.06497 0.75155 0.0
C783 C 0.54077 0.92698 0.74672 0.0
H784 H 0.59517 1.01672 0.69442 0.0
C785 C 0.55991 0.95705 0.77969 0.0
C786 C 0.59249 1.00856 0.78237 0.0
H787 H 0.51443 0.88839 0.74615 0.0
H788 H 0.54639 0.94149 0.80269 0.0
C789 C 0.60805 0.02633 0.75089 0.0
C790 C 0.53315 0.56146 0.74116 0.0
C791 C 0.56567 0.56232 0.77566 0.0
H792 H 0.53048 0.54138 0.68599 0.0
C793 C 0.6244 0.54515 0.77952 0.0
H794 H 0.48763 0.57399 0.73696 0.0
C795 C 0.64847 0.52451 0.75019 0.0
C796 C 0.61521 0.52127 0.71567 0.0
H797 H 0.65074 0.54416 0.80546 0.0
H798 H 0.69267 0.50826 0.75488 0.0
C799 C 0.55777 0.54255 0.71171 0.0
loop_
_geom_bond_atom_site_label_1
_geom_bond_atom_site_label_2
_geom_bond_distance
_geom_bond_site_symmetry_2
_ccdc_geom_bond_type
Tb0 O3 2.453 . S
Tb0 O4 2.596 . S
Tb0 O5 2.374 . S
Tb0 O13 2.343 . S
Tb0 O15 2.353 . S
Tb0 O17 2.427 . S
Tb0 O18 2.513 . S
C1 O5 1.251 . S
C1 O7 1.263 . S
Tb2 O4 2.343 . S
Tb2 O7 2.353 . S
Tb2 O10 2.427 . S
Tb2 O11 2.513 . S
Tb2 O12 2.453 1_455 S
Tb2 O13 2.596 . S
Tb2 O14 2.374 . S
O3 Tb0 2.453 . S
O3 C19 1.245 . S
O4 Tb0 2.596 . S
O4 Tb2 2.343 . S
O4 C19 1.259 . S
O5 Tb0 2.374 . S
O5 C1 1.251 . S
C6 O10 1.275 . S
C6 O11 1.246 . S
O7 C1 1.263 . S
O7 Tb2 2.353 . S
C8 O12 1.245 . S
C8 O13 1.259 1_655 S
C9 O14 1.250 . S
C9 O15 1.263 . S
O10 Tb2 2.427 . S
O10 C6 1.275 . S
O11 Tb2 2.513 . S
O11 C6 1.246 . S
O12 Tb2 2.453 1_655 S
O12 C8 1.245 . S
O13 Tb0 2.343 . S
O13 Tb2 2.596 . S
O13 C8 1.259 1_455 S
O14 Tb2 2.374 . S
O14 C9 1.250 . S
O15 Tb0 2.353 . S
O15 C9 1.263 . S
C16 O17 1.275 . S
C16 O18 1.246 . S
O17 Tb0 2.427 . S
O17 C16 1.275 . S
O18 Tb0 2.513 . S
O18 C16 1.246 . S
C19 O3 1.245 . S
C19 O4 1.259 . S
Tb20 O23 2.453 1_545 S
Tb20 O24 2.596 . S
Tb20 O25 2.374 . S
Tb20 O33 2.343 . S
Tb20 O35 2.353 . S
Tb20 O37 2.427 . S
Tb20 O38 2.513 . S
C21 O25 1.251 . S
C21 O27 1.263 . S
Tb22 O24 2.343 . S
Tb22 O27 2.353 . S
Tb22 O30 2.427 . S
Tb22 O31 2.513 . S
Tb22 O32 2.453 . S
Tb22 O33 2.596 . S
Tb22 O34 2.374 . S
O23 Tb20 2.453 1_565 S
O23 C39 1.245 1_565 S
O24 Tb20 2.596 . S
O24 Tb22 2.343 . S
O24 C39 1.259 . S
O25 Tb20 2.374 . S
O25 C21 1.251 . S
C26 O30 1.275 . S
C26 O31 1.246 . S
O27 C21 1.263 . S
O27 Tb22 2.353 . S
C28 O32 1.245 . S
C28 O33 1.259 . S
C29 O34 1.250 . S
C29 O35 1.263 . S
O30 Tb22 2.427 . S
O30 C26 1.275 . S
O31 Tb22 2.513 . S
O31 C26 1.246 . S
O32 Tb22 2.453 . S
O32 C28 1.245 . S
O33 Tb20 2.343 . S
O33 Tb22 2.596 . S
O33 C28 1.259 . S
O34 Tb22 2.374 . S
O34 C29 1.250 . S
O35 Tb20 2.353 . S
O35 C29 1.263 . S
C36 O37 1.275 . S
C36 O38 1.246 . S
O37 Tb20 2.427 . S
O37 C36 1.275 . S
O38 Tb20 2.513 . S
O38 C36 1.246 . S
C39 O23 1.245 1_545 S
C39 O24 1.259 . S
Tb40 O43 2.453 . S
Tb40 O44 2.596 . S
Tb40 O45 2.374 . S
Tb40 O53 2.343 . S
Tb40 O55 2.353 . S
Tb40 O57 2.427 . S
Tb40 O58 2.513 . S
C41 O45 1.251 1_545 S
C41 O47 1.263 . S
Tb42 O44 2.343 . S
Tb42 O47 2.352 1_565 S
Tb42 O50 2.427 1_565 S
Tb42 O51 2.513 . S
Tb42 O52 2.453 . S
Tb42 O53 2.596 . S
Tb42 O54 2.374 . S
O43 Tb40 2.453 . S
O43 C59 1.245 . S
O44 Tb40 2.596 . S
O44 Tb42 2.343 . S
O44 C59 1.259 . S
O45 Tb40 2.374 . S
O45 C41 1.251 1_565 S
C46 O50 1.275 1_565 S
C46 O51 1.246 . S
O47 C41 1.263 . S
O47 Tb42 2.352 1_545 S
C48 O52 1.245 . S
C48 O53 1.259 . S
C49 O54 1.250 . S
C49 O55 1.263 . S
O50 Tb42 2.427 1_545 S
O50 C46 1.275 1_545 S
O51 Tb42 2.513 . S
O51 C46 1.246 . S
O52 Tb42 2.453 . S
O52 C48 1.245 . S
O53 Tb40 2.343 . S
O53 Tb42 2.596 . S
O53 C48 1.259 . S
O54 Tb42 2.374 . S
O54 C49 1.250 . S
O55 Tb40 2.353 . S
O55 C49 1.263 . S
C56 O57 1.275 . S
C56 O58 1.246 . S
O57 Tb40 2.427 . S
O57 C56 1.275 . S
O58 Tb40 2.513 . S
O58 C56 1.246 . S
C59 O43 1.245 . S
C59 O44 1.259 . S
Tb60 O63 2.453 . S
Tb60 O64 2.596 . S
Tb60 O65 2.374 . S
Tb60 O73 2.343 . S
Tb60 O75 2.353 . S
Tb60 O77 2.427 . S
Tb60 O78 2.513 . S
C61 O65 1.251 . S
C61 O67 1.263 . S
Tb62 O64 2.343 . S
Tb62 O67 2.353 . S
Tb62 O70 2.427 . S
Tb62 O71 2.513 . S
Tb62 O72 2.453 . S
Tb62 O73 2.596 . S
Tb62 O74 2.374 . S
O63 Tb60 2.453 . S
O63 C79 1.245 . S
O64 Tb60 2.596 . S
O64 Tb62 2.343 . S
O64 C79 1.259 . S
O65 Tb60 2.374 . S
O65 C61 1.251 . S
C66 O70 1.275 . S
C66 O71 1.246 . S
O67 C61 1.263 . S
O67 Tb62 2.353 . S
C68 O72 1.245 . S
C68 O73 1.259 . S
C69 O74 1.250 . S
C69 O75 1.263 . S
O70 Tb62 2.427 . S
O70 C66 1.275 . S
O71 Tb62 2.513 . S
O71 C66 1.246 . S
O72 Tb62 2.453 . S
O72 C68 1.245 . S
O73 Tb60 2.343 . S
O73 Tb62 2.596 . S
O73 C68 1.259 . S
O74 Tb62 2.374 . S
O74 C69 1.250 . S
O75 Tb60 2.353 . S
O75 C69 1.263 . S
C76 O77 1.275 . S
C76 O78 1.246 . S
O77 Tb60 2.427 . S
O77 C76 1.275 . S
O78 Tb60 2.513 . S
O78 C76 1.246 . S
C79 O63 1.245 . S
C79 O64 1.259 . S
Tb80 O83 2.453 1_455 S
Tb80 O84 2.596 . S
Tb80 O85 2.374 . S
Tb80 O93 2.343 . S
Tb80 O95 2.353 . S
Tb80 O97 2.427 . S
Tb80 O98 2.513 . S
C81 O85 1.251 . S
C81 O87 1.263 . S
Tb82 O84 2.343 . S
Tb82 O87 2.353 . S
Tb82 O90 2.427 1_565 S
Tb82 O91 2.513 . S
Tb82 O92 2.453 . S
Tb82 O93 2.596 . S
Tb82 O94 2.374 . S
O83 Tb80 2.453 1_655 S
O83 C99 1.245 . S
O84 Tb80 2.596 . S
O84 Tb82 2.343 . S
O84 C99 1.259 1_455 S
O85 Tb80 2.374 . S
O85 C81 1.251 . S
C86 O90 1.275 1_565 S
C86 O91 1.246 . S
O87 C81 1.263 . S
O87 Tb82 2.353 . S
C88 O92 1.245 . S
C88 O93 1.259 . S
C89 O94 1.250 . S
C89 O95 1.263 . S
O90 Tb82 2.427 1_545 S
O90 C86 1.275 1_545 S
O91 Tb82 2.513 . S
O91 C86 1.246 . S
O92 Tb82 2.453 . S
O92 C88 1.245 . S
O93 Tb80 2.343 . S
O93 Tb82 2.596 . S
O93 C88 1.259 . S
O94 Tb82 2.374 . S
O94 C89 1.250 . S
O95 Tb80 2.353 . S
O95 C89 1.263 . S
C96 O97 1.275 . S
C96 O98 1.246 . S
O97 Tb80 2.427 . S
O97 C96 1.275 . S
O98 Tb80 2.513 . S
O98 C96 1.246 . S
C99 O83 1.245 . S
C99 O84 1.259 1_655 S
Tb100 O103 2.453 1_545 S
Tb100 O104 2.596 . S
Tb100 O105 2.374 . S
Tb100 O113 2.343 . S
Tb100 O115 2.353 . S
Tb100 O117 2.427 . S
Tb100 O118 2.513 . S
C101 O105 1.251 . S
C101 O107 1.263 . S
Tb102 O104 2.343 . S
Tb102 O107 2.353 . S
Tb102 O110 2.427 . S
Tb102 O111 2.513 . S
Tb102 O112 2.453 . S
Tb102 O113 2.596 . S
Tb102 O114 2.374 . S
O103 Tb100 2.453 1_565 S
O103 C119 1.245 . S
O104 Tb100 2.596 . S
O104 Tb102 2.343 . S
O104 C119 1.259 1_545 S
O105 Tb100 2.374 . S
O105 C101 1.251 . S
C106 O110 1.275 . S
C106 O111 1.246 . S
O107 C101 1.263 . S
O107 Tb102 2.353 . S
C108 O112 1.245 . S
C108 O113 1.259 . S
C109 O114 1.250 . S
C109 O115 1.263 . S
O110 Tb102 2.427 . S
O110 C106 1.275 . S
O111 Tb102 2.513 . S
O111 C106 1.246 . S
O112 Tb102 2.453 . S
O112 C108 1.245 . S
O113 Tb100 2.343 . S
O113 Tb102 2.596 . S
O113 C108 1.259 . S
O114 Tb102 2.374 . S
O114 C109 1.250 . S
O115 Tb100 2.353 . S
O115 C109 1.263 . S
C116 O117 1.275 . S
C116 O118 1.246 . S
O117 Tb100 2.427 . S
O117 C116 1.275 . S
O118 Tb100 2.513 . S
O118 C116 1.246 . S
C119 O103 1.245 . S
C119 O104 1.259 1_565 S
Tb120 O123 2.453 . S
Tb120 O124 2.596 . S
Tb120 O125 2.374 . S
Tb120 O133 2.343 . S
Tb120 O135 2.353 . S
Tb120 O137 2.427 . S
Tb120 O138 2.513 . S
C121 O125 1.251 . S
C121 O127 1.263 . S
Tb122 O124 2.343 . S
Tb122 O127 2.353 . S
Tb122 O130 2.427 . S
Tb122 O131 2.513 . S
Tb122 O132 2.453 . S
Tb122 O133 2.596 . S
Tb122 O134 2.374 . S
O123 Tb120 2.453 . S
O123 C139 1.245 . S
O124 Tb120 2.596 . S
O124 Tb122 2.343 . S
O124 C139 1.259 . S
O125 Tb120 2.374 . S
O125 C121 1.251 . S
C126 O130 1.275 . S
C126 O131 1.246 . S
O127 C121 1.263 . S
O127 Tb122 2.353 . S
C128 O132 1.245 . S
C128 O133 1.259 . S
C129 O134 1.250 . S
C129 O135 1.263 . S
O130 Tb122 2.427 . S
O130 C126 1.275 . S
O131 Tb122 2.513 . S
O131 C126 1.246 . S
O132 Tb122 2.453 . S
O132 C128 1.245 . S
O133 Tb120 2.343 . S
O133 Tb122 2.596 . S
O133 C128 1.259 . S
O134 Tb122 2.374 . S
O134 C129 1.250 . S
O135 Tb120 2.353 . S
O135 C129 1.263 . S
C136 O137 1.275 . S
C136 O138 1.246 . S
O137 Tb120 2.427 . S
O137 C136 1.275 . S
O138 Tb120 2.513 . S
O138 C136 1.246 . S
C139 O123 1.245 . S
C139 O124 1.259 . S
Tb140 O143 2.453 . S
Tb140 O144 2.596 . S
Tb140 O145 2.374 . S
Tb140 O153 2.343 . S
Tb140 O155 2.353 . S
Tb140 O157 2.427 1_655 S
Tb140 O158 2.513 . S
C141 O145 1.251 . S
C141 O147 1.263 . S
Tb142 O144 2.343 . S
Tb142 O147 2.353 . S
Tb142 O150 2.427 . S
Tb142 O151 2.513 . S
Tb142 O152 2.453 . S
Tb142 O153 2.596 . S
Tb142 O154 2.374 . S
O143 Tb140 2.453 . S
O143 C159 1.245 . S
O144 Tb140 2.596 . S
O144 Tb142 2.343 . S
O144 C159 1.259 . S
O145 Tb140 2.374 . S
O145 C141 1.251 . S
C146 O150 1.275 . S
C146 O151 1.246 . S
O147 C141 1.263 . S
O147 Tb142 2.353 . S
C148 O152 1.245 . S
C148 O153 1.259 . S
C149 O154 1.250 . S
C149 O155 1.263 . S
O150 Tb142 2.427 . S
O150 C146 1.275 . S
O151 Tb142 2.513 . S
O151 C146 1.246 . S
O152 Tb142 2.453 . S
O152 C148 1.245 . S
O153 Tb140 2.343 . S
O153 Tb142 2.596 . S
O153 C148 1.259 . S
O154 Tb142 2.374 . S
O154 C149 1.250 . S
O155 Tb140 2.353 . S
O155 C149 1.263 . S
C156 O157 1.275 . S
C156 O158 1.246 1_455 S
O157 Tb140 2.427 1_455 S
O157 C156 1.275 . S
O158 Tb140 2.513 . S
O158 C156 1.246 1_655 S
C159 O143 1.245 . S
C159 O144 1.259 . S
Tb160 O163 2.453 1_655 S
Tb160 O164 2.596 . S
Tb160 O165 2.374 . S
Tb160 O173 2.343 . S
Tb160 O175 2.353 . S
Tb160 O177 2.427 . S
Tb160 O178 2.513 . S
C161 O165 1.251 . S
C161 O167 1.263 . S
Tb162 O164 2.343 . S
Tb162 O167 2.353 . S
Tb162 O170 2.427 . S
Tb162 O171 2.513 . S
Tb162 O172 2.453 . S
Tb162 O173 2.596 . S
Tb162 O174 2.374 . S
O163 Tb160 2.453 1_455 S
O163 C179 1.245 . S
O164 Tb160 2.596 . S
O164 Tb162 2.343 . S
O164 C179 1.259 1_655 S
O165 Tb160 2.374 . S
O165 C161 1.251 . S
C166 O170 1.275 . S
C166 O171 1.246 . S
O167 C161 1.263 . S
O167 Tb162 2.353 . S
C168 O172 1.245 . S
C168 O173 1.259 . S
C169 O174 1.250 . S
C169 O175 1.263 . S
O170 Tb162 2.427 . S
O170 C166 1.275 . S
O171 Tb162 2.513 . S
O171 C166 1.246 . S
O172 Tb162 2.453 . S
O172 C168 1.245 . S
O173 Tb160 2.343 . S
O173 Tb162 2.596 . S
O173 C168 1.259 . S
O174 Tb162 2.374 . S
O174 C169 1.250 . S
O175 Tb160 2.353 . S
O175 C169 1.263 . S
C176 O177 1.275 . S
C176 O178 1.246 . S
O177 Tb160 2.427 . S
O177 C176 1.275 . S
O178 Tb160 2.513 . S
O178 C176 1.246 . S
C179 O163 1.245 . S
C179 O164 1.259 1_455 S
Tb180 O183 2.453 . S
Tb180 O184 2.596 . S
Tb180 O185 2.374 . S
Tb180 O193 2.343 . S
Tb180 O195 2.353 . S
Tb180 O197 2.427 . S
Tb180 O198 2.513 . S
C181 O185 1.251 . S
C181 O187 1.263 . S
Tb182 O184 2.343 . S
Tb182 O187 2.353 . S
Tb182 O190 2.427 . S
Tb182 O191 2.513 . S
Tb182 O192 2.453 1_565 S
Tb182 O193 2.596 . S
Tb182 O194 2.374 . S
O183 Tb180 2.453 . S
O183 C199 1.245 . S
O184 Tb180 2.596 . S
O184 Tb182 2.343 . S
O184 C199 1.259 . S
O185 Tb180 2.374 . S
O185 C181 1.251 . S
C186 O190 1.275 . S
C186 O191 1.246 . S
O187 C181 1.263 . S
O187 Tb182 2.353 . S
C188 O192 1.245 1_565 S
C188 O193 1.259 . S
C189 O194 1.250 . S
C189 O195 1.263 . S
O190 Tb182 2.427 . S
O190 C186 1.275 . S
O191 Tb182 2.513 . S
O191 C186 1.246 . S
O192 Tb182 2.453 1_545 S
O192 C188 1.245 1_545 S
O193 Tb180 2.343 . S
O193 Tb182 2.596 . S
O193 C188 1.259 . S
O194 Tb182 2.374 . S
O194 C189 1.250 . S
O195 Tb180 2.353 . S
O195 C189 1.263 . S
C196 O197 1.275 . S
C196 O198 1.246 . S
O197 Tb180 2.427 . S
O197 C196 1.275 . S
O198 Tb180 2.513 . S
O198 C196 1.246 . S
C199 O183 1.245 . S
C199 O184 1.259 . S
Tb200 O203 2.453 . S
Tb200 O204 2.596 . S
Tb200 O205 2.374 . S
Tb200 O213 2.343 . S
Tb200 O215 2.352 1_545 S
Tb200 O217 2.427 1_545 S
Tb200 O218 2.513 . S
C201 O205 1.251 . S
C201 O207 1.263 . S
Tb202 O204 2.343 . S
Tb202 O207 2.353 . S
Tb202 O210 2.427 . S
Tb202 O211 2.513 . S
Tb202 O212 2.453 . S
Tb202 O213 2.596 . S
Tb202 O214 2.374 . S
O203 Tb200 2.453 . S
O203 C219 1.245 . S
O204 Tb200 2.596 . S
O204 Tb202 2.343 . S
O204 C219 1.259 . S
O205 Tb200 2.374 . S
O205 C201 1.251 . S
C206 O210 1.275 . S
C206 O211 1.246 . S
O207 C201 1.263 . S
O207 Tb202 2.353 . S
C208 O212 1.245 . S
C208 O213 1.259 . S
C209 O214 1.250 1_565 S
C209 O215 1.263 . S
O210 Tb202 2.427 . S
O210 C206 1.275 . S
O211 Tb202 2.513 . S
O211 C206 1.246 . S
O212 Tb202 2.453 . S
O212 C208 1.245 . S
O213 Tb200 2.343 . S
O213 Tb202 2.596 . S
O213 C208 1.259 . S
O214 Tb202 2.374 . S
O214 C209 1.250 1_545 S
O215 Tb200 2.352 1_565 S
O215 C209 1.263 . S
C216 O217 1.275 1_545 S
C216 O218 1.246 . S
O217 Tb200 2.427 1_565 S
O217 C216 1.275 1_565 S
O218 Tb200 2.513 . S
O218 C216 1.246 . S
C219 O203 1.245 . S
C219 O204 1.259 . S
Tb220 O223 2.453 . S
Tb220 O224 2.596 . S
Tb220 O225 2.374 . S
Tb220 O233 2.343 . S
Tb220 O235 2.353 . S
Tb220 O237 2.427 . S
Tb220 O238 2.513 . S
C221 O225 1.251 . S
C221 O227 1.263 . S
Tb222 O224 2.343 . S
Tb222 O227 2.353 . S
Tb222 O230 2.427 . S
Tb222 O231 2.513 . S
Tb222 O232 2.453 . S
Tb222 O233 2.596 . S
Tb222 O234 2.374 . S
O223 Tb220 2.453 . S
O223 C239 1.245 . S
O224 Tb220 2.596 . S
O224 Tb222 2.343 . S
O224 C239 1.259 . S
O225 Tb220 2.374 . S
O225 C221 1.251 . S
C226 O230 1.275 . S
C226 O231 1.246 . S
O227 C221 1.263 . S
O227 Tb222 2.353 . S
C228 O232 1.245 . S
C228 O233 1.259 . S
C229 O234 1.250 . S
C229 O235 1.263 . S
O230 Tb222 2.427 . S
O230 C226 1.275 . S
O231 Tb222 2.513 . S
O231 C226 1.246 . S
O232 Tb222 2.453 . S
O232 C228 1.245 . S
O233 Tb220 2.343 . S
O233 Tb222 2.596 . S
O233 C228 1.259 . S
O234 Tb222 2.374 . S
O234 C229 1.250 . S
O235 Tb220 2.353 . S
O235 C229 1.263 . S
C236 O237 1.275 . S
C236 O238 1.246 . S
O237 Tb220 2.427 . S
O237 C236 1.275 . S
O238 Tb220 2.513 . S
O238 C236 1.246 . S
C239 O223 1.245 . S
C239 O224 1.259 . S
Tb240 O243 2.453 . S
Tb240 O244 2.596 . S
Tb240 O245 2.374 . S
Tb240 O253 2.343 . S
Tb240 O255 2.353 . S
Tb240 O257 2.427 1_545 S
Tb240 O258 2.513 . S
C241 O245 1.251 . S
C241 O247 1.263 . S
Tb242 O244 2.343 . S
Tb242 O247 2.353 . S
Tb242 O250 2.427 . S
Tb242 O251 2.513 . S
Tb242 O252 2.453 1_655 S
Tb242 O253 2.596 . S
Tb242 O254 2.374 . S
O243 Tb240 2.453 . S
O243 C259 1.245 . S
O244 Tb240 2.596 . S
O244 Tb242 2.343 . S
O244 C259 1.259 . S
O245 Tb240 2.374 . S
O245 C241 1.251 . S
C246 O250 1.275 . S
C246 O251 1.246 . S
O247 C241 1.263 . S
O247 Tb242 2.353 . S
C248 O252 1.245 . S
C248 O253 1.259 1_455 S
C249 O254 1.250 . S
C249 O255 1.263 . S
O250 Tb242 2.427 . S
O250 C246 1.275 . S
O251 Tb242 2.513 . S
O251 C246 1.246 . S
O252 Tb242 2.453 1_455 S
O252 C248 1.245 . S
O253 Tb240 2.343 . S
O253 Tb242 2.596 . S
O253 C248 1.259 1_655 S
O254 Tb242 2.374 . S
O254 C249 1.250 . S
O255 Tb240 2.353 . S
O255 C249 1.263 . S
C256 O257 1.275 1_545 S
C256 O258 1.246 . S
O257 Tb240 2.427 1_565 S
O257 C256 1.275 1_565 S
O258 Tb240 2.513 . S
O258 C256 1.246 . S
C259 O243 1.245 . S
C259 O244 1.259 . S
Tb260 O263 2.453 . S
Tb260 O264 2.596 . S
Tb260 O265 2.374 . S
Tb260 O273 2.343 . S
Tb260 O275 2.353 . S
Tb260 O277 2.427 . S
Tb260 O278 2.513 . S
C261 O265 1.251 . S
C261 O267 1.263 . S
Tb262 O264 2.343 . S
Tb262 O267 2.353 . S
Tb262 O270 2.427 . S
Tb262 O271 2.513 . S
Tb262 O272 2.453 1_565 S
Tb262 O273 2.596 . S
Tb262 O274 2.374 . S
O263 Tb260 2.453 . S
O263 C279 1.245 . S
O264 Tb260 2.596 . S
O264 Tb262 2.343 . S
O264 C279 1.259 . S
O265 Tb260 2.374 . S
O265 C261 1.251 . S
C266 O270 1.275 . S
C266 O271 1.246 . S
O267 C261 1.263 . S
O267 Tb262 2.353 . S
C268 O272 1.245 . S
C268 O273 1.259 1_545 S
C269 O274 1.250 . S
C269 O275 1.263 . S
O270 Tb262 2.427 . S
O270 C266 1.275 . S
O271 Tb262 2.513 . S
O271 C266 1.246 . S
O272 Tb262 2.453 1_545 S
O272 C268 1.245 . S
O273 Tb260 2.343 . S
O273 Tb262 2.596 . S
O273 C268 1.259 1_565 S
O274 Tb262 2.374 . S
O274 C269 1.250 . S
O275 Tb260 2.353 . S
O275 C269 1.263 . S
C276 O277 1.275 . S
C276 O278 1.246 . S
O277 Tb260 2.427 . S
O277 C276 1.275 . S
O278 Tb260 2.513 . S
O278 C276 1.246 . S
C279 O263 1.245 . S
C279 O264 1.259 . S
Tb280 O283 2.453 . S
Tb280 O284 2.596 . S
Tb280 O285 2.374 . S
Tb280 O293 2.343 . S
Tb280 O295 2.353 . S
Tb280 O297 2.427 . S
Tb280 O298 2.513 . S
C281 O285 1.251 . S
C281 O287 1.263 . S
Tb282 O284 2.343 . S
Tb282 O287 2.353 . S
Tb282 O290 2.427 . S
Tb282 O291 2.513 . S
Tb282 O292 2.453 . S
Tb282 O293 2.596 . S
Tb282 O294 2.374 . S
O283 Tb280 2.453 . S
O283 C299 1.245 . S
O284 Tb280 2.596 . S
O284 Tb282 2.343 . S
O284 C299 1.259 . S
O285 Tb280 2.374 . S
O285 C281 1.251 . S
C286 O290 1.275 . S
C286 O291 1.246 . S
O287 C281 1.263 . S
O287 Tb282 2.353 . S
C288 O292 1.245 . S
C288 O293 1.259 . S
C289 O294 1.250 . S
C289 O295 1.263 . S
O290 Tb282 2.427 . S
O290 C286 1.275 . S
O291 Tb282 2.513 . S
O291 C286 1.246 . S
O292 Tb282 2.453 . S
O292 C288 1.245 . S
O293 Tb280 2.343 . S
O293 Tb282 2.596 . S
O293 C288 1.259 . S
O294 Tb282 2.374 . S
O294 C289 1.250 . S
O295 Tb280 2.353 . S
O295 C289 1.263 . S
C296 O297 1.275 . S
C296 O298 1.246 . S
O297 Tb280 2.427 . S
O297 C296 1.275 . S
O298 Tb280 2.513 . S
O298 C296 1.246 . S
C299 O283 1.245 . S
C299 O284 1.259 . S
Tb300 O303 2.453 . S
Tb300 O304 2.596 . S
Tb300 O305 2.374 . S
Tb300 O313 2.343 . S
Tb300 O315 2.353 . S
Tb300 O317 2.427 . S
Tb300 O318 2.513 . S
C301 O305 1.251 . S
C301 O307 1.263 . S
Tb302 O304 2.343 . S
Tb302 O307 2.353 . S
Tb302 O310 2.427 1_455 S
Tb302 O311 2.513 . S
Tb302 O312 2.453 . S
Tb302 O313 2.596 . S
Tb302 O314 2.374 . S
O303 Tb300 2.453 . S
O303 C319 1.245 . S
O304 Tb300 2.596 . S
O304 Tb302 2.343 . S
O304 C319 1.259 . S
O305 Tb300 2.374 . S
O305 C301 1.251 . S
C306 O310 1.275 . S
C306 O311 1.246 1_655 S
O307 C301 1.263 . S
O307 Tb302 2.353 . S
C308 O312 1.245 . S
C308 O313 1.259 . S
C309 O314 1.250 . S
C309 O315 1.263 . S
O310 Tb302 2.427 1_655 S
O310 C306 1.275 . S
O311 Tb302 2.513 . S
O311 C306 1.246 1_455 S
O312 Tb302 2.453 . S
O312 C308 1.245 . S
O313 Tb300 2.343 . S
O313 Tb302 2.596 . S
O313 C308 1.259 . S
O314 Tb302 2.374 . S
O314 C309 1.250 . S
O315 Tb300 2.353 . S
O315 C309 1.263 . S
C316 O317 1.275 . S
C316 O318 1.246 . S
O317 Tb300 2.427 . S
O317 C316 1.275 . S
O318 Tb300 2.513 . S
O318 C316 1.246 . S
C319 O303 1.245 . S
C319 O304 1.259 . S
C320 C321 1.387 . S
C320 H324 0.950 . S
C320 C329 1.390 . S
C321 C320 1.387 . S
C321 C323 1.387 . S
H322 C329 0.950 . S
C323 C321 1.387 . S
C323 C325 1.390 . S
C323 H327 0.950 . S
H324 C320 0.950 . S
C325 C323 1.390 . S
C325 C326 1.387 . S
C325 H328 0.950 . S
C326 C325 1.387 . S
C326 C329 1.387 . S
H327 C323 0.950 . S
H328 C325 0.950 . S
C329 C320 1.390 . S
C329 H322 0.950 . S
C329 C326 1.387 . S
C330 C331 1.387 . S
C330 H334 0.950 . S
C330 C339 1.390 1_455 S
C331 C330 1.387 . S
C331 C333 1.387 . S
H332 C339 0.950 . S
C333 C331 1.387 . S
C333 C335 1.390 . S
C333 H337 0.950 . S
H334 C330 0.950 . S
C335 C333 1.390 . S
C335 C336 1.387 1_455 S
C335 H338 0.950 . S
C336 C335 1.387 1_655 S
C336 C339 1.387 . S
H337 C333 0.950 . S
H338 C335 0.950 . S
C339 C330 1.390 1_655 S
C339 H332 0.950 . S
C339 C336 1.387 . S
C340 C341 1.387 1_565 S
C340 H344 0.950 . S
C340 C349 1.390 1_565 S
C341 C340 1.387 1_545 S
C341 C343 1.387 . S
H342 C349 0.950 1_565 S
C343 C341 1.387 . S
C343 C345 1.390 . S
C343 H347 0.950 . S
H344 C340 0.950 . S
C345 C343 1.390 . S
C345 C346 1.387 . S
C345 H348 0.950 . S
C346 C345 1.387 . S
C346 C349 1.387 . S
H347 C343 0.950 . S
H348 C345 0.950 . S
C349 C340 1.390 1_545 S
C349 H342 0.950 1_545 S
C349 C346 1.387 . S
C350 C351 1.387 . S
C350 H354 0.950 . S
C350 C359 1.390 . S
C351 C350 1.387 . S
C351 C353 1.387 . S
H352 C359 0.950 . S
C353 C351 1.387 . S
C353 C355 1.390 . S
C353 H357 0.950 . S
H354 C350 0.950 . S
C355 C353 1.390 . S
C355 C356 1.387 . S
C355 H358 0.950 . S
C356 C355 1.387 . S
C356 C359 1.387 . S
H357 C353 0.950 . S
H358 C355 0.950 . S
C359 C350 1.390 . S
C359 H352 0.950 . S
C359 C356 1.387 . S
C360 C361 1.387 1_545 S
C360 H364 0.950 . S
C360 C369 1.390 . S
C361 C360 1.387 1_565 S
C361 C363 1.387 . S
H362 C369 0.950 . S
C363 C361 1.387 . S
C363 C365 1.390 . S
C363 H367 0.950 . S
H364 C360 0.950 . S
C365 C363 1.390 . S
C365 C366 1.387 1_565 S
C365 H368 0.950 . S
C366 C365 1.387 1_545 S
C366 C369 1.387 . S
H367 C363 0.950 . S
H368 C365 0.950 . S
C369 C360 1.390 . S
C369 H362 0.950 . S
C369 C366 1.387 . S
C370 C371 1.387 . S
C370 H374 0.950 . S
C370 C379 1.390 . S
C371 C370 1.387 . S
C371 C373 1.387 . S
H372 C379 0.950 . S
C373 C371 1.387 . S
C373 C375 1.390 . S
C373 H377 0.950 . S
H374 C370 0.950 . S
C375 C373 1.390 . S
C375 C376 1.387 . S
C375 H378 0.950 . S
C376 C375 1.387 . S
C376 C379 1.387 . S
H377 C373 0.950 . S
H378 C375 0.950 . S
C379 C370 1.390 . S
C379 H372 0.950 . S
C379 C376 1.387 . S
C380 C381 1.387 . S
C380 H384 0.950 . S
C380 C389 1.390 . S
C381 C380 1.387 . S
C381 C383 1.387 . S
H382 C389 0.950 . S
C383 C381 1.387 . S
C383 C385 1.390 . S
C383 H387 0.950 . S
H384 C380 0.950 . S
C385 C383 1.390 . S
C385 C386 1.387 . S
C385 H388 0.950 . S
C386 C385 1.387 . S
C386 C389 1.387 . S
H387 C383 0.950 . S
H388 C385 0.950 . S
C389 C380 1.390 . S
C389 H382 0.950 . S
C389 C386 1.387 . S
C390 C391 1.387 . S
C390 H394 0.950 . S
C390 C399 1.390 1_455 S
C391 C390 1.387 . S
C391 C393 1.387 . S
H392 C399 0.950 . S
C393 C391 1.387 . S
C393 C395 1.390 1_455 S
C393 H397 0.950 . S
H394 C390 0.950 . S
C395 C393 1.390 1_655 S
C395 C396 1.387 . S
C395 H398 0.950 . S
C396 C395 1.387 . S
C396 C399 1.387 . S
H397 C393 0.950 . S
H398 C395 0.950 . S
C399 C390 1.390 1_655 S
C399 H392 0.950 . S
C399 C396 1.387 . S
C400 C401 1.387 . S
C400 H404 0.950 . S
C400 C409 1.390 . S
C401 C400 1.387 . S
C401 C403 1.387 . S
H402 C409 0.950 . S
C403 C401 1.387 . S
C403 C405 1.390 . S
C403 H407 0.950 . S
H404 C400 0.950 . S
C405 C403 1.390 . S
C405 C406 1.387 . S
C405 H408 0.950 . S
C406 C405 1.387 . S
C406 C409 1.387 . S
H407 C403 0.950 . S
H408 C405 0.950 . S
C409 C400 1.390 . S
C409 H402 0.950 . S
C409 C406 1.387 . S
C410 C411 1.387 . S
C410 H414 0.950 . S
C410 C419 1.390 1_655 S
C411 C410 1.387 . S
C411 C413 1.387 . S
H412 C419 0.950 . S
C413 C411 1.387 . S
C413 C415 1.390 . S
C413 H417 0.950 . S
H414 C410 0.950 . S
C415 C413 1.390 . S
C415 C416 1.387 1_655 S
C415 H418 0.950 1_655 S
C416 C415 1.387 1_455 S
C416 C419 1.387 . S
H417 C413 0.950 . S
H418 C415 0.950 1_455 S
C419 C410 1.390 1_455 S
C419 H412 0.950 . S
C419 C416 1.387 . S
C420 C421 1.387 . S
C420 H424 0.950 . S
C420 C429 1.390 . S
C421 C420 1.387 . S
C421 C423 1.387 . S
H422 C429 0.950 . S
C423 C421 1.387 . S
C423 C425 1.390 1_565 S
C423 H427 0.950 1_565 S
H424 C420 0.950 . S
C425 C423 1.390 1_545 S
C425 C426 1.387 1_545 S
C425 H428 0.950 . S
C426 C425 1.387 1_565 S
C426 C429 1.387 . S
H427 C423 0.950 1_545 S
H428 C425 0.950 . S
C429 C420 1.390 . S
C429 H422 0.950 . S
C429 C426 1.387 . S
C430 C431 1.387 . S
C430 H434 0.950 . S
C430 C439 1.390 . S
C431 C430 1.387 . S
C431 C433 1.387 . S
H432 C439 0.950 . S
C433 C431 1.387 . S
C433 C435 1.390 . S
C433 H437 0.950 . S
H434 C430 0.950 . S
C435 C433 1.390 . S
C435 C436 1.387 . S
C435 H438 0.950 . S
C436 C435 1.387 . S
C436 C439 1.387 . S
H437 C433 0.950 . S
H438 C435 0.950 . S
C439 C430 1.390 . S
C439 H432 0.950 . S
C439 C436 1.387 . S
C440 C441 1.387 1_565 S
C440 H444 0.950 . S
C440 C449 1.390 . S
C441 C440 1.387 1_545 S
C441 C443 1.387 . S
H442 C449 0.950 . S
C443 C441 1.387 . S
C443 C445 1.390 . S
C443 H447 0.950 . S
H444 C440 0.950 . S
C445 C443 1.390 . S
C445 C446 1.387 1_545 S
C445 H448 0.950 . S
C446 C445 1.387 1_565 S
C446 C449 1.387 . S
H447 C443 0.950 . S
H448 C445 0.950 . S
C449 C440 1.390 . S
C449 H442 0.950 . S
C449 C446 1.387 . S
C450 C451 1.387 . S
C450 H454 0.950 . S
C450 C459 1.390 . S
C451 C450 1.387 . S
C451 C453 1.387 . S
H452 C459 0.950 . S
C453 C451 1.387 . S
C453 C455 1.390 . S
C453 H457 0.950 . S
H454 C450 0.950 . S
C455 C453 1.390 . S
C455 C456 1.387 . S
C455 H458 0.950 . S
C456 C455 1.387 . S
C456 C459 1.387 . S
H457 C453 0.950 . S
H458 C455 0.950 . S
C459 C450 1.390 . S
C459 H452 0.950 . S
C459 C456 1.387 . S
C460 C461 1.387 . S
C460 H464 0.950 . S
C460 C469 1.390 . S
C461 C460 1.387 . S
C461 C463 1.387 . S
H462 C469 0.950 . S
C463 C461 1.387 . S
C463 C465 1.390 . S
C463 H467 0.950 . S
H464 C460 0.950 . S
C465 C463 1.390 . S
C465 C466 1.387 . S
C465 H468 0.950 . S
C466 C465 1.387 . S
C466 C469 1.387 . S
H467 C463 0.950 . S
H468 C465 0.950 . S
C469 C460 1.390 . S
C469 H462 0.950 . S
C469 C466 1.387 . S
C470 C471 1.387 . S
C470 H474 0.950 . S
C470 C479 1.390 1_455 S
C471 C470 1.387 . S
C471 C473 1.387 . S
H472 C479 0.950 . S
C473 C471 1.387 . S
C473 C475 1.390 1_455 S
C473 H477 0.950 . S
H474 C470 0.950 . S
C475 C473 1.390 1_655 S
C475 C476 1.387 . S
C475 H478 0.950 . S
C476 C475 1.387 . S
C476 C479 1.387 . S
H477 C473 0.950 . S
H478 C475 0.950 . S
C479 C470 1.390 1_655 S
C479 H472 0.950 . S
C479 C476 1.387 . S
C480 C481 1.387 . S
C480 H484 0.950 . S
C480 C489 1.390 . S
C481 C480 1.387 . S
C481 C483 1.387 . S
H482 C489 0.950 . S
C483 C481 1.387 . S
C483 C485 1.390 . S
C483 H487 0.950 . S
H484 C480 0.950 . S
C485 C483 1.390 . S
C485 C486 1.387 . S
C485 H488 0.950 . S
C486 C485 1.387 . S
C486 C489 1.387 . S
H487 C483 0.950 . S
H488 C485 0.950 . S
C489 C480 1.390 . S
C489 H482 0.950 . S
C489 C486 1.387 . S
C490 C491 1.387 . S
C490 H494 0.950 . S
C490 C499 1.390 . S
C491 C490 1.387 . S
C491 C493 1.387 . S
H492 C499 0.950 . S
C493 C491 1.387 . S
C493 C495 1.390 . S
C493 H497 0.950 . S
H494 C490 0.950 . S
C495 C493 1.390 . S
C495 C496 1.387 . S
C495 H498 0.950 . S
C496 C495 1.387 . S
C496 C499 1.387 . S
H497 C493 0.950 . S
H498 C495 0.950 . S
C499 C490 1.390 . S
C499 H492 0.950 . S
C499 C496 1.387 . S
C500 C501 1.387 . S
C500 H504 0.950 . S
C500 C509 1.390 . S
C501 C500 1.387 . S
C501 C503 1.387 . S
H502 C509 0.950 . S
C503 C501 1.387 . S
C503 C505 1.390 . S
C503 H507 0.950 . S
H504 C500 0.950 . S
C505 C503 1.390 . S
C505 C506 1.387 . S
C505 H508 0.950 . S
C506 C505 1.387 . S
C506 C509 1.387 . S
H507 C503 0.950 . S
H508 C505 0.950 . S
C509 C500 1.390 . S
C509 H502 0.950 . S
C509 C506 1.387 . S
C510 C511 1.387 . S
C510 H514 0.950 . S
C510 C519 1.390 . S
C511 C510 1.387 . S
C511 C513 1.387 . S
H512 C519 0.950 . S
C513 C511 1.387 . S
C513 C515 1.390 . S
C513 H517 0.950 . S
H514 C510 0.950 . S
C515 C513 1.390 . S
C515 C516 1.387 . S
C515 H518 0.950 . S
C516 C515 1.387 . S
C516 C519 1.387 . S
H517 C513 0.950 . S
H518 C515 0.950 . S
C519 C510 1.390 . S
C519 H512 0.950 . S
C519 C516 1.387 . S
C520 C521 1.387 . S
C520 H524 0.950 . S
C520 C529 1.390 . S
C521 C520 1.387 . S
C521 C523 1.387 . S
H522 C529 0.950 . S
C523 C521 1.387 . S
C523 C525 1.390 . S
C523 H527 0.950 . S
H524 C520 0.950 . S
C525 C523 1.390 . S
C525 C526 1.387 . S
C525 H528 0.950 . S
C526 C525 1.387 . S
C526 C529 1.387 . S
H527 C523 0.950 . S
H528 C525 0.950 . S
C529 C520 1.390 . S
C529 H522 0.950 . S
C529 C526 1.387 . S
C530 C531 1.387 . S
C530 H534 0.950 . S
C530 C539 1.390 . S
C531 C530 1.387 . S
C531 C533 1.387 . S
H532 C539 0.950 . S
C533 C531 1.387 . S
C533 C535 1.390 . S
C533 H537 0.950 . S
H534 C530 0.950 . S
C535 C533 1.390 . S
C535 C536 1.387 . S
C535 H538 0.950 . S
C536 C535 1.387 . S
C536 C539 1.387 . S
H537 C533 0.950 . S
H538 C535 0.950 . S
C539 C530 1.390 . S
C539 H532 0.950 . S
C539 C536 1.387 . S
C540 C541 1.387 . S
C540 H544 0.950 . S
C540 C549 1.390 . S
C541 C540 1.387 . S
C541 C543 1.387 . S
H542 C549 0.950 . S
C543 C541 1.387 . S
C543 C545 1.390 . S
C543 H547 0.950 . S
H544 C540 0.950 . S
C545 C543 1.390 . S
C545 C546 1.387 . S
C545 H548 0.950 . S
C546 C545 1.387 . S
C546 C549 1.387 . S
H547 C543 0.950 . S
H548 C545 0.950 . S
C549 C540 1.390 . S
C549 H542 0.950 . S
C549 C546 1.387 . S
C550 C551 1.387 . S
C550 H554 0.950 . S
C550 C559 1.390 . S
C551 C550 1.387 . S
C551 C553 1.387 . S
H552 C559 0.950 . S
C553 C551 1.387 . S
C553 C555 1.390 . S
C553 H557 0.950 . S
H554 C550 0.950 . S
C555 C553 1.390 . S
C555 C556 1.387 . S
C555 H558 0.950 . S
C556 C555 1.387 . S
C556 C559 1.387 . S
H557 C553 0.950 . S
H558 C555 0.950 . S
C559 C550 1.390 . S
C559 H552 0.950 . S
C559 C556 1.387 . S
C560 C561 1.387 . S
C560 H564 0.950 . S
C560 C569 1.390 . S
C561 C560 1.387 . S
C561 C563 1.387 . S
H562 C569 0.950 . S
C563 C561 1.387 . S
C563 C565 1.390 . S
C563 H567 0.950 . S
H564 C560 0.950 . S
C565 C563 1.390 . S
C565 C566 1.387 . S
C565 H568 0.950 . S
C566 C565 1.387 . S
C566 C569 1.387 . S
H567 C563 0.950 . S
H568 C565 0.950 . S
C569 C560 1.390 . S
C569 H562 0.950 . S
C569 C566 1.387 . S
C570 C571 1.387 . S
C570 H574 0.950 . S
C570 C579 1.390 . S
C571 C570 1.387 . S
C571 C573 1.387 . S
H572 C579 0.950 . S
C573 C571 1.387 . S
C573 C575 1.390 . S
C573 H577 0.950 . S
H574 C570 0.950 . S
C575 C573 1.390 . S
C575 C576 1.387 . S
C575 H578 0.950 . S
C576 C575 1.387 . S
C576 C579 1.387 . S
H577 C573 0.950 . S
H578 C575 0.950 . S
C579 C570 1.390 . S
C579 H572 0.950 . S
C579 C576 1.387 . S
C580 C581 1.387 . S
C580 H584 0.950 . S
C580 C589 1.390 . S
C581 C580 1.387 . S
C581 C583 1.387 . S
H582 C589 0.950 . S
C583 C581 1.387 . S
C583 C585 1.390 . S
C583 H587 0.950 . S
H584 C580 0.950 . S
C585 C583 1.390 . S
C585 C586 1.387 . S
C585 H588 0.950 . S
C586 C585 1.387 . S
C586 C589 1.387 . S
H587 C583 0.950 . S
H588 C585 0.950 . S
C589 C580 1.390 . S
C589 H582 0.950 . S
C589 C586 1.387 . S
C590 C591 1.387 . S
C590 H594 0.950 . S
C590 C599 1.390 . S
C591 C590 1.387 . S
C591 C593 1.387 . S
H592 C599 0.950 . S
C593 C591 1.387 . S
C593 C595 1.390 . S
C593 H597 0.950 . S
H594 C590 0.950 . S
C595 C593 1.390 . S
C595 C596 1.387 . S
C595 H598 0.950 . S
C596 C595 1.387 . S
C596 C599 1.387 . S
H597 C593 0.950 . S
H598 C595 0.950 . S
C599 C590 1.390 . S
C599 H592 0.950 . S
C599 C596 1.387 . S
C600 C601 1.387 . S
C600 H604 0.950 . S
C600 C609 1.390 . S
C601 C600 1.387 . S
C601 C603 1.387 . S
H602 C609 0.950 . S
C603 C601 1.387 . S
C603 C605 1.390 . S
C603 H607 0.950 . S
H604 C600 0.950 . S
C605 C603 1.390 . S
C605 C606 1.387 . S
C605 H608 0.950 . S
C606 C605 1.387 . S
C606 C609 1.387 . S
H607 C603 0.950 . S
H608 C605 0.950 . S
C609 C600 1.390 . S
C609 H602 0.950 . S
C609 C606 1.387 . S
C610 C611 1.387 . S
C610 H614 0.950 . S
C610 C619 1.390 . S
C611 C610 1.387 . S
C611 C613 1.387 . S
H612 C619 0.950 . S
C613 C611 1.387 . S
C613 C615 1.390 . S
C613 H617 0.950 . S
H614 C610 0.950 . S
C615 C613 1.390 . S
C615 C616 1.387 . S
C615 H618 0.950 . S
C616 C615 1.387 . S
C616 C619 1.387 . S
H617 C613 0.950 . S
H618 C615 0.950 . S
C619 C610 1.390 . S
C619 H612 0.950 . S
C619 C616 1.387 . S
C620 C621 1.387 . S
C620 H624 0.950 . S
C620 C629 1.390 . S
C621 C620 1.387 . S
C621 C623 1.387 . S
H622 C629 0.950 . S
C623 C621 1.387 . S
C623 C625 1.390 . S
C623 H627 0.950 . S
H624 C620 0.950 . S
C625 C623 1.390 . S
C625 C626 1.387 . S
C625 H628 0.950 . S
C626 C625 1.387 . S
C626 C629 1.387 . S
H627 C623 0.950 . S
H628 C625 0.950 . S
C629 C620 1.390 . S
C629 H622 0.950 . S
C629 C626 1.387 . S
C630 C631 1.387 . S
C630 H634 0.950 . S
C630 C639 1.390 . S
C631 C630 1.387 . S
C631 C633 1.387 . S
H632 C639 0.950 . S
C633 C631 1.387 . S
C633 C635 1.390 . S
C633 H637 0.950 . S
H634 C630 0.950 . S
C635 C633 1.390 . S
C635 C636 1.387 . S
C635 H638 0.950 . S
C636 C635 1.387 . S
C636 C639 1.387 . S
H637 C633 0.950 . S
H638 C635 0.950 . S
C639 C630 1.390 . S
C639 H632 0.950 . S
C639 C636 1.387 . S
C640 C641 1.387 . S
C640 H644 0.950 . S
C640 C649 1.390 1_656 S
C641 C640 1.387 . S
C641 C643 1.387 . S
H642 C649 0.950 . S
C643 C641 1.387 . S
C643 C645 1.390 1_656 S
C643 H647 0.950 . S
H644 C640 0.950 . S
C645 C643 1.390 1_454 S
C645 C646 1.387 . S
C645 H648 0.950 . S
C646 C645 1.387 . S
C646 C649 1.387 . S
H647 C643 0.950 . S
H648 C645 0.950 . S
C649 C640 1.390 1_454 S
C649 H642 0.950 . S
C649 C646 1.387 . S
C650 C651 1.387 1_545 S
C650 H654 0.950 . S
C650 C659 1.390 1_556 S
C651 C650 1.387 1_565 S
C651 C653 1.387 1_455 S
H652 C659 0.950 . S
C653 C651 1.387 1_655 S
C653 C655 1.390 1_556 S
C653 H657 0.950 . S
H654 C650 0.950 . S
C655 C653 1.390 1_554 S
C655 C656 1.387 1_565 S
C655 H658 0.950 . S
C656 C655 1.387 1_545 S
C656 C659 1.387 1_655 S
H657 C653 0.950 . S
H658 C655 0.950 . S
C659 C650 1.390 1_554 S
C659 H652 0.950 . S
C659 C656 1.387 1_455 S
C660 C661 1.387 1_545 S
C660 H664 0.950 . S
C660 C669 1.390 . S
C661 C660 1.387 1_565 S
C661 C663 1.387 1_556 S
H662 C669 0.950 . S
C663 C661 1.387 1_554 S
C663 C665 1.390 . S
C663 H667 0.950 . S
H664 C660 0.950 . S
C665 C663 1.390 . S
C665 C666 1.387 1_565 S
C665 H668 0.950 . S
C666 C665 1.387 1_545 S
C666 C669 1.387 1_554 S
H667 C663 0.950 . S
H668 C665 0.950 . S
C669 C660 1.390 . S
C669 H662 0.950 . S
C669 C666 1.387 1_556 S
C670 C671 1.387 . S
C670 H674 0.950 . S
C670 C679 1.390 1_554 S
C671 C670 1.387 . S
C671 C673 1.387 . S
H672 C679 0.950 . S
C673 C671 1.387 . S
C673 C675 1.390 1_554 S
C673 H677 0.950 . S
H674 C670 0.950 . S
C675 C673 1.390 1_556 S
C675 C676 1.387 . S
C675 H678 0.950 . S
C676 C675 1.387 . S
C676 C679 1.387 . S
H677 C673 0.950 . S
H678 C675 0.950 . S
C679 C670 1.390 1_556 S
C679 H672 0.950 . S
C679 C676 1.387 . S
C680 C681 1.387 1_545 S
C680 H684 0.950 . S
C680 C689 1.390 1_655 S
C681 C680 1.387 1_565 S
C681 C683 1.387 . S
H682 C689 0.950 . S
C683 C681 1.387 . S
C683 C685 1.390 1_655 S
C683 H687 0.950 . S
H684 C680 0.950 . S
C685 C683 1.390 1_455 S
C685 C686 1.387 1_565 S
C685 H688 0.950 . S
C686 C685 1.387 1_545 S
C686 C689 1.387 . S
H687 C683 0.950 . S
H688 C685 0.950 . S
C689 C680 1.390 1_455 S
C689 H682 0.950 . S
C689 C686 1.387 . S
C690 C691 1.387 1_545 S
C690 H694 0.950 . S
C690 C699 1.390 . S
C691 C690 1.387 1_565 S
C691 C693 1.387 . S
H692 C699 0.950 . S
C693 C691 1.387 . S
C693 C695 1.390 . S
C693 H697 0.950 . S
H694 C690 0.950 . S
C695 C693 1.390 . S
C695 C696 1.387 1_565 S
C695 H698 0.950 . S
C696 C695 1.387 1_545 S
C696 C699 1.387 . S
H697 C693 0.950 . S
H698 C695 0.950 . S
C699 C690 1.390 . S
C699 H692 0.950 . S
C699 C696 1.387 . S
C700 C701 1.387 . S
C700 H704 0.950 . S
C700 C709 1.390 . S
C701 C700 1.387 . S
C701 C703 1.387 . S
H702 C709 0.950 . S
C703 C701 1.387 . S
C703 C705 1.390 . S
C703 H707 0.950 . S
H704 C700 0.950 . S
C705 C703 1.390 . S
C705 C706 1.387 . S
C705 H708 0.950 . S
C706 C705 1.387 . S
C706 C709 1.387 . S
H707 C703 0.950 . S
H708 C705 0.950 . S
C709 C700 1.390 . S
C709 H702 0.950 . S
C709 C706 1.387 . S
C710 C711 1.387 1_655 S
C710 H714 0.950 . S
C710 C719 1.390 . S
C711 C710 1.387 1_455 S
C711 C713 1.387 . S
H712 C719 0.950 . S
C713 C711 1.387 . S
C713 C715 1.390 . S
C713 H717 0.950 . S
H714 C710 0.950 . S
C715 C713 1.390 . S
C715 C716 1.387 1_455 S
C715 H718 0.950 . S
C716 C715 1.387 1_655 S
C716 C719 1.387 . S
H717 C713 0.950 . S
H718 C715 0.950 . S
C719 C710 1.390 . S
C719 H712 0.950 . S
C719 C716 1.387 . S
C720 C721 1.387 . S
C720 H724 0.950 . S
C720 C729 1.390 . S
C721 C720 1.387 . S
C721 C723 1.387 . S
H722 C729 0.950 . S
C723 C721 1.387 . S
C723 C725 1.390 . S
C723 H727 0.950 . S
H724 C720 0.950 . S
C725 C723 1.390 . S
C725 C726 1.387 . S
C725 H728 0.950 . S
C726 C725 1.387 . S
C726 C729 1.387 . S
H727 C723 0.950 . S
H728 C725 0.950 . S
C729 C720 1.390 . S
C729 H722 0.950 . S
C729 C726 1.387 . S
C730 C731 1.387 . S
C730 H734 0.940 1_445 S
C730 C739 1.390 1_455 S
C731 C730 1.387 . S
C731 C733 1.387 . S
H732 C739 0.950 . S
C733 C731 1.387 . S
C733 C735 1.390 . S
C733 H737 0.950 . S
H734 C730 0.940 1_665 S
C735 C733 1.390 . S
C735 C736 1.387 . S
C735 H738 0.950 . S
C736 C735 1.387 . S
C736 C739 1.387 1_455 S
H737 C733 0.950 . S
H738 C735 0.950 . S
C739 C730 1.390 1_655 S
C739 H732 0.950 . S
C739 C736 1.387 1_655 S
C740 C741 1.387 . S
C740 H744 0.950 . S
C740 C749 1.390 . S
C741 C740 1.387 . S
C741 C743 1.387 . S
H742 C749 0.950 1_565 S
C743 C741 1.387 . S
C743 C745 1.390 . S
C743 H747 0.950 . S
H744 C740 0.950 . S
C745 C743 1.390 . S
C745 C746 1.387 . S
C745 H748 0.950 . S
C746 C745 1.387 . S
C746 C749 1.387 . S
H747 C743 0.950 . S
H748 C745 0.950 . S
C749 C740 1.390 . S
C749 H742 0.950 1_545 S
C749 C746 1.387 . S
C750 C751 1.387 . S
C750 H754 0.950 . S
C750 C759 1.390 . S
C751 C750 1.387 . S
C751 C753 1.387 . S
H752 C759 0.950 . S
C753 C751 1.387 . S
C753 C755 1.390 . S
C753 H757 0.950 . S
H754 C750 0.950 . S
C755 C753 1.390 . S
C755 C756 1.387 . S
C755 H758 0.950 . S
C756 C755 1.387 . S
C756 C759 1.387 . S
H757 C753 0.950 . S
H758 C755 0.950 . S
C759 C750 1.390 . S
C759 H752 0.950 . S
C759 C756 1.387 . S
C760 C761 1.387 . S
C760 H764 0.950 . S
C760 C769 1.390 . S
C761 C760 1.387 . S
C761 C763 1.387 . S
H762 C769 0.950 . S
C763 C761 1.387 . S
C763 C765 1.390 . S
C763 H767 0.950 . S
H764 C760 0.950 . S
C765 C763 1.390 . S
C765 C766 1.387 . S
C765 H768 0.950 . S
C766 C765 1.387 . S
C766 C769 1.387 . S
H767 C763 0.950 . S
H768 C765 0.950 . S
C769 C760 1.390 . S
C769 H762 0.950 . S
C769 C766 1.387 . S
C770 C771 1.387 . S
C770 H774 0.950 1_655 S
C770 C779 1.390 1_655 S
C771 C770 1.387 . S
C771 C773 1.387 . S
H772 C779 0.950 . S
C773 C771 1.387 . S
C773 C775 1.390 . S
C773 H777 0.950 . S
H774 C770 0.950 1_455 S
C775 C773 1.390 . S
C775 C776 1.387 . S
C775 H778 0.950 . S
C776 C775 1.387 . S
C776 C779 1.387 1_655 S
H777 C773 0.950 . S
H778 C775 0.950 . S
C779 C770 1.390 1_455 S
C779 H772 0.950 . S
C779 C776 1.387 1_455 S
C780 C781 1.387 . S
C780 H784 0.950 . S
C780 C789 1.390 . S
C781 C780 1.387 . S
C781 C783 1.387 . S
H782 C789 0.950 1_545 S
C783 C781 1.387 . S
C783 C785 1.390 . S
C783 H787 0.950 . S
H784 C780 0.950 . S
C785 C783 1.390 . S
C785 C786 1.387 . S
C785 H788 0.950 . S
C786 C785 1.387 . S
C786 C789 1.387 . S
H787 C783 0.950 . S
H788 C785 0.950 . S
C789 C780 1.390 . S
C789 H782 0.950 1_565 S
C789 C786 1.387 . S
C790 C791 1.387 . S
C790 H794 0.950 . S
C790 C799 1.390 . S
C791 C790 1.387 . S
C791 C793 1.387 . S
H792 C799 0.950 . S
C793 C791 1.387 . S
C793 C795 1.390 . S
C793 H797 0.950 . S
H794 C790 0.950 . S
C795 C793 1.390 . S
C795 C796 1.387 . S
C795 H798 0.950 . S
C796 C795 1.387 . S
C796 C799 1.387 . S
H797 C793 0.950 . S
H798 C795 0.950 . S
C799 C790 1.390 . S
C799 H792 0.950 . S
C799 C796 1.387 . S
C321 C66 1.917 . S
C326 C8 2.137 . S
C331 C6 2.158 . S
C336 C39 2.593 1_565 S
C341 C59 2.781 1_545 S
C346 C29 2.572 . S
C351 C49 2.476 . S
C356 C68 2.530 . S
C361 C99 2.679 . S
C366 C109 2.464 . S
C371 C119 2.661 . S
C376 C129 2.450 . S
C381 C139 2.312 . S
C386 C146 1.950 . S
C391 C89 2.288 . S
C396 C148 2.319 . S
C401 C179 2.137 . S
C406 C236 1.917 . S
C411 C176 2.158 . S
C416 C188 2.593 1_545 S
C421 C181 2.572 . S
C426 C208 2.780 1_565 S
C431 C201 2.476 . S
C436 C239 2.530 . S
C441 C248 2.678 . S
C446 C261 2.467 . S
C451 C281 2.450 . S
C456 C268 2.661 . S
C461 C316 1.946 . S
C466 C288 2.313 . S
C471 C319 2.317 . S
C476 C241 2.290 . S
C481 C1 0.572 . S
C486 C96 0.550 . S
C491 C116 0.687 . S
C496 C36 0.698 . S
C501 C56 0.442 . S
C506 C136 0.644 . S
C511 C61 0.931 . S
C516 C141 0.918 . S
C521 C246 0.553 . S
C526 C169 0.568 . S
C531 C266 0.685 . S
C536 C186 0.698 . S
C541 C206 0.440 . S
C546 C286 0.654 . S
C551 C309 0.918 . S
C556 C229 0.931 . S
C561 C19 1.448 . S
C566 C48 1.421 . S
C571 C28 1.473 . S
C576 C79 1.518 . S
C581 C128 1.131 . S
C586 C88 1.160 . S
C591 C159 1.326 . S
C596 C108 1.307 . S
C601 C219 1.421 . S
C606 C168 1.448 . S
C611 C228 1.518 . S
C616 C199 1.473 . S
C621 C259 1.159 . S
C626 C299 1.132 . S
C631 C279 1.307 . S
C636 C308 1.326 . S
C641 C161 1.712 . S
C646 C9 1.712 . S
C651 C196 1.482 . S
C656 C26 1.482 . S
C661 C216 1.443 1_565 S
C666 C46 1.443 1_545 S
C671 C69 1.682 . S
C676 C221 1.682 . S
C681 C256 1.349 1_565 S
C686 C86 1.349 1_545 S
C691 C276 1.478 . S
C696 C106 1.478 . S
C701 C296 1.467 . S
C706 C126 1.467 . S
C711 C301 1.736 . S
C716 C149 1.736 . S
C721 C156 1.923 . S
C726 C16 1.875 . S
C731 C81 2.089 1_545 S
C736 C21 1.989 1_455 S
C741 C101 2.038 . S
C746 C41 2.053 . S
C751 C121 1.943 . S
C756 C76 1.975 . S
C761 C306 1.923 . S
C766 C166 1.875 . S
C771 C249 2.091 1_565 S
C776 C189 1.989 1_655 S
C781 C269 2.042 . S
C786 C209 2.053 . S
C791 C226 1.976 . S
C796 C289 1.945 . S
