# Generated by pormake.
# Topology smk, (6)-cn, num edge types: 1
# Building blocks:
#     Node 0, Type 0, BuildingBlock: VOLQOD_clean_sbu_1, # of connection points: 6
#     Node 1, Type 0, BuildingBlock: VOLQOD_clean_sbu_1, # of connection points: 6
#     Node 2, Type 0, BuildingBlock: VOLQOD_clean_sbu_1, # of connection points: 6
#     Node 3, Type 0, BuildingBlock: VOLQOD_clean_sbu_1, # of connection points: 6
#     Node 4, Type 0, BuildingBlock: VOLQOD_clean_sbu_1, # of connection points: 6
#     Node 5, Type 0, BuildingBlock: VOLQOD_clean_sbu_1, # of connection points: 6
#     Edge 6, Type (0, 0), BuildingBlock: TEMPAE_clean_linker_10, # of connection points: 2
#     Edge 7, Type (0, 0), BuildingBlock: TEMPAE_clean_linker_10, # of connection points: 2
#     Edge 8, Type (0, 0), BuildingBlock: TEMPAE_clean_linker_10, # of connection points: 2
#     Edge 9, Type (0, 0), BuildingBlock: TEMPAE_clean_linker_10, # of connection points: 2
#     Edge 10, Type (0, 0), BuildingBlock: TEMPAE_clean_linker_10, # of connection points: 2
#     Edge 11, Type (0, 0), BuildingBlock: TEMPAE_clean_linker_10, # of connection points: 2
#     Edge 12, Type (0, 0), BuildingBlock: TEMPAE_clean_linker_10, # of connection points: 2
#     Edge 13, Type (0, 0), BuildingBlock: TEMPAE_clean_linker_10, # of connection points: 2
#     Edge 14, Type (0, 0), BuildingBlock: TEMPAE_clean_linker_10, # of connection points: 2
#     Edge 15, Type (0, 0), BuildingBlock: TEMPAE_clean_linker_10, # of connection points: 2
#     Edge 16, Type (0, 0), BuildingBlock: TEMPAE_clean_linker_10, # of connection points: 2
#     Edge 17, Type (0, 0), BuildingBlock: TEMPAE_clean_linker_10, # of connection points: 2
#     Edge 18, Type (0, 0), BuildingBlock: TEMPAE_clean_linker_10, # of connection points: 2
#     Edge 19, Type (0, 0), BuildingBlock: TEMPAE_clean_linker_10, # of connection points: 2
#     Edge 20, Type (0, 0), BuildingBlock: TEMPAE_clean_linker_10, # of connection points: 2
#     Edge 21, Type (0, 0), BuildingBlock: TEMPAE_clean_linker_10, # of connection points: 2
#     Edge 22, Type (0, 0), BuildingBlock: TEMPAE_clean_linker_10, # of connection points: 2
#     Edge 23, Type (0, 0), BuildingBlock: TEMPAE_clean_linker_10, # of connection points: 2
# Relax obj value: 0.161
# Max RMSD: 0.170
# Mean RMSD: 0.170
data_MOF--net-smk--node1-VOLQOD_clean_sbu_1--edge1-TEMPAE_clean_linker_10
_symmetry_space_group_name_H-M    P1
_symmetry_Int_Tables_number       1
_symmetry_cell_setting            triclinic
loop_
_symmetry_equiv_pos_as_xyz
'x, y, z'
_cell_length_a     44.825355
_cell_length_b     44.861117
_cell_length_c     17.304079
_cell_angle_alpha  90.087241
_cell_angle_beta   90.019453
_cell_angle_gamma 120.04051
loop_
_atom_site_label
_atom_site_type_symbol
_atom_site_fract_x
_atom_site_fract_y
_atom_site_fract_z
_atom_type_partial_charge
O0 O 0.44507 0.25011 0.72895 0.0
Zn1 Zn 0.4369 0.25672 0.61756 0.0
O2 O 0.43115 0.21793 0.55742 0.0
Zn3 Zn 0.47244 0.23097 0.49845 0.0
Zn4 Zn 0.42268 0.18078 0.626 0.0
Zn5 Zn 0.39249 0.20333 0.48865 0.0
O6 O 0.46109 0.21999 0.3855 0.0
O7 O 0.40963 0.21609 0.38106 0.0
O8 O 0.47544 0.30174 0.57416 0.0
O9 O 0.50251 0.28199 0.50072 0.0
O10 O 0.50015 0.21106 0.54385 0.0
O11 O 0.46431 0.17517 0.63207 0.0
O12 O 0.3819 0.13594 0.59177 0.0
O13 O 0.39298 0.25812 0.61581 0.0
O14 O 0.36307 0.15179 0.48976 0.0
O15 O 0.36299 0.2239 0.51798 0.0
C16 C 0.43195 0.22213 0.7674 0.0
C17 C 0.43616 0.21885 0.34739 0.0
C18 C 0.49332 0.18929 0.59786 0.0
C19 C 0.5002 0.30683 0.52963 0.0
C20 C 0.36137 0.12856 0.53474 0.0
C21 C 0.36646 0.24447 0.57253 0.0
O22 O 0.41731 0.19287 0.73396 0.0
O23 O 0.18611 0.43741 0.89142 0.0
Zn24 Zn 0.1757 0.43423 0.77615 0.0
O25 O 0.20707 0.42431 0.72024 0.0
Zn26 Zn 0.23832 0.46296 0.65686 0.0
Zn27 Zn 0.23371 0.41598 0.79307 0.0
Zn28 Zn 0.18212 0.38317 0.65873 0.0
O29 O 0.23487 0.44775 0.54551 0.0
O30 O 0.18528 0.39782 0.54841 0.0
O31 O 0.17672 0.47686 0.73325 0.0
O32 O 0.22165 0.49665 0.6538 0.0
O33 O 0.28687 0.4894 0.70248 0.0
O34 O 0.27867 0.45838 0.80816 0.0
O35 O 0.24316 0.37938 0.75632 0.0
O36 O 0.12768 0.39459 0.76409 0.0
O37 O 0.20438 0.35361 0.66331 0.0
O38 O 0.13237 0.35576 0.69282 0.0
C39 C 0.19747 0.42084 0.92988 0.0
C40 C 0.20932 0.42279 0.51101 0.0
C41 C 0.29734 0.4849 0.76771 0.0
C42 C 0.19718 0.49902 0.68466 0.0
C43 C 0.22926 0.35638 0.70426 0.0
C44 C 0.11444 0.36495 0.73279 0.0
O45 O 0.21166 0.40584 0.89632 0.0
O46 O 0.74636 0.1925 0.08179 0.0
Zn47 Zn 0.73807 0.18044 0.96813 0.0
O48 O 0.77908 0.21062 0.91008 0.0
Zn49 Zn 0.77132 0.24108 0.84549 0.0
Zn50 Zn 0.81597 0.23731 0.98023 0.0
Zn51 Zn 0.79232 0.1843 0.84611 0.0
O52 O 0.78563 0.23964 0.73575 0.0
O53 O 0.77976 0.18734 0.73706 0.0
O54 O 0.69617 0.18086 0.92503 0.0
O55 O 0.72056 0.22219 0.83653 0.0
O56 O 0.79229 0.28898 0.89271 0.0
O57 O 0.82102 0.28391 -0.00841 0.0
O58 O 0.86096 0.2423 0.94361 0.0
O59 O 0.7289 0.13199 0.95918 0.0
O60 O 0.8436 0.20507 0.84616 0.0
O61 O 0.76963 0.13489 0.88088 0.0
C62 C 0.77448 0.2039 0.11964 0.0
C63 C 0.7822 0.21308 0.70038 0.0
C64 C 0.81054 0.30119 0.95364 0.0
C65 C 0.69405 0.19892 0.87086 0.0
C66 C 0.86754 0.22782 0.88802 0.0
C67 C 0.74379 0.11786 0.92495 0.0
O68 O 0.80354 0.21717 0.08557 0.0
O69 O 0.54775 0.74278 0.23259 0.0
Zn70 Zn 0.55263 0.73679 0.11759 0.0
O71 O 0.56228 0.77827 0.06327 0.0
Zn72 Zn 0.52311 0.77111 0.00182 0.0
Zn73 Zn 0.57331 0.81397 0.13722 0.0
Zn74 Zn 0.60145 0.79277 -0.00263 0.0
O75 O 0.53662 0.78224 0.88915 0.0
O76 O 0.58476 0.7793 0.88929 0.0
O77 O 0.51074 0.69541 0.07165 0.0
O78 O 0.48891 0.72073 -0.00116 0.0
O79 O 0.49862 0.79453 0.04976 0.0
O80 O 0.53257 0.82007 0.15077 0.0
O81 O 0.61363 0.85917 0.10411 0.0
O82 O 0.59293 0.72925 0.10669 0.0
O83 O 0.63094 0.84421 -0.00181 0.0
O84 O 0.62977 0.77149 0.0301 0.0
C85 C 0.56421 0.77025 0.2728 0.0
C86 C 0.56001 0.77942 0.85327 0.0
C87 C 0.50523 0.81167 0.11259 0.0
C88 C 0.48765 0.69378 0.02593 0.0
C89 C 0.63327 0.86705 0.0454 0.0
C90 C 0.62194 0.74544 0.07262 0.0
O91 O 0.58048 0.79975 0.24098 0.0
O92 O 0.79573 0.55088 0.39724 0.0
Zn93 Zn 0.81045 0.55846 0.28559 0.0
O94 O 0.77965 0.56771 0.22641 0.0
Zn95 Zn 0.74812 0.52744 0.16741 0.0
Zn96 Zn 0.75462 0.57991 0.29707 0.0
Zn97 Zn 0.80581 0.60575 0.15799 0.0
O98 O 0.75008 0.53953 0.05428 0.0
O99 O 0.80091 0.58795 0.05077 0.0
O100 O 0.81259 0.5178 0.24013 0.0
O101 O 0.76483 0.49357 0.16881 0.0
O102 O 0.69998 0.50393 0.21344 0.0
O103 O 0.70641 0.54079 0.30649 0.0
O104 O 0.75295 0.62168 0.26184 0.0
O105 O 0.85753 0.60029 0.28466 0.0
O106 O 0.78599 0.63723 0.15711 0.0
O107 O 0.85592 0.6328 0.18949 0.0
C108 C 0.78447 0.56728 0.43652 0.0
C109 C 0.77561 0.56283 0.01663 0.0
C110 C 0.68805 0.5125 0.27096 0.0
C111 C 0.79124 0.49366 0.19612 0.0
C112 C 0.76591 0.64097 0.20301 0.0
C113 C 0.87197 0.62732 0.24327 0.0
O114 O 0.7733 0.58521 0.40374 0.0
O115 O 0.2455 0.8064 0.57119 0.0
Zn116 Zn 0.25294 0.81641 0.45595 0.0
O117 O 0.21177 0.78483 0.39965 0.0
Zn118 Zn 0.21968 0.75396 0.3357 0.0
Zn119 Zn 0.17671 0.75768 0.472 0.0
Zn120 Zn 0.19529 0.80966 0.33863 0.0
O121 O 0.20789 0.75738 0.22445 0.0
O122 O 0.20631 0.80626 0.2281 0.0
O123 O 0.29478 0.81554 0.41393 0.0
O124 O 0.27024 0.77099 0.33311 0.0
O125 O 0.19752 0.70529 0.37994 0.0
O126 O 0.1745 0.71285 0.48627 0.0
O127 O 0.13051 0.74789 0.43486 0.0
O128 O 0.26154 0.86437 0.4426 0.0
O129 O 0.14341 0.78739 0.34397 0.0
O130 O 0.21807 0.85966 0.37116 0.0
C131 C 0.21744 0.79449 0.6094 0.0
C132 C 0.20774 0.78256 0.19035 0.0
C133 C 0.18248 0.69448 0.44494 0.0
C134 C 0.29689 0.79542 0.36489 0.0
C135 C 0.12134 0.76209 0.38383 0.0
C136 C 0.24538 0.87768 0.41062 0.0
O137 O 0.18825 0.77956 0.57567 0.0
C138 C 0.46614 0.22364 0.22201 0.0
C139 C 0.43787 0.22124 0.26226 0.0
C140 C 0.46756 0.22566 0.14112 0.0
C141 C 0.44009 0.22529 0.10002 0.0
C142 C 0.41181 0.22347 0.1403 0.0
C143 C 0.41103 0.22143 0.22091 0.0
C144 C 0.49809 0.22756 0.09957 0.0
C145 C 0.38203 0.22302 0.0982 0.0
C146 C 0.45072 0.25491 0.89196 0.0
C147 C 0.43458 0.22332 0.85251 0.0
C148 C 0.45348 0.25604 0.97274 0.0
C149 C 0.43975 0.22487 0.0146 0.0
C150 C 0.42385 0.19297 0.97516 0.0
C151 C 0.42143 0.19258 0.89459 0.0
C152 C 0.47057 0.2905 0.01334 0.0
C153 C 0.40885 0.1592 0.01815 0.0
H154 H 0.48705 0.22367 0.25356 0.0
H155 H 0.38915 0.21981 0.25144 0.0
H156 H 0.48943 0.20436 0.06284 0.0
H157 H 0.50992 0.25026 0.06075 0.0
H158 H 0.5181 0.22931 0.1402 0.0
H159 H 0.36272 0.22302 0.13842 0.0
H160 H 0.3916 0.24576 0.05981 0.0
H161 H 0.36895 0.19975 0.06106 0.0
H162 H 0.46109 0.27877 0.85984 0.0
H163 H 0.40908 0.16803 0.86466 0.0
H164 H 0.4916 0.29289 0.05134 0.0
H165 H 0.45157 0.29252 0.0508 0.0
H166 H 0.48142 0.31239 0.97211 0.0
H167 H 0.42874 0.15892 0.05579 0.0
H168 H 0.39864 0.1367 0.97851 0.0
H169 H 0.38759 0.15621 0.05614 0.0
C170 C 0.2329 0.44958 0.382 0.0
C171 C 0.20665 0.42321 0.4258 0.0
C172 C 0.23027 0.45025 0.30131 0.0
C173 C 0.20066 0.42399 0.26373 0.0
C174 C 0.17385 0.39764 0.30759 0.0
C175 C 0.1772 0.39752 0.38803 0.0
C176 C 0.25945 0.47865 0.25612 0.0
C177 C 0.14188 0.36922 0.26941 0.0
C178 C 0.18303 0.43823 0.05623 0.0
C179 C 0.1964 0.42049 0.01538 0.0
C180 C 0.18401 0.43947 0.13736 0.0
C181 C 0.19877 0.42267 0.17817 0.0
C182 C 0.21186 0.40439 0.13733 0.0
C183 C 0.21043 0.40345 0.05659 0.0
C184 C 0.16961 0.45901 0.1794 0.0
C185 C 0.22778 0.38612 0.17888 0.0
H186 H 0.25566 0.46962 0.41064 0.0
H187 H 0.15662 0.37715 0.42129 0.0
H188 H 0.27114 0.46752 0.21751 0.0
H189 H 0.24956 0.4919 0.21887 0.0
H190 H 0.27992 0.49805 0.2943 0.0
H191 H 0.12252 0.35178 0.31213 0.0
H192 H 0.12978 0.38034 0.2321 0.0
H193 H 0.14893 0.3537 0.23165 0.0
H194 H 0.17217 0.45147 0.02489 0.0
H195 H 0.22084 0.38963 0.02576 0.0
H196 H 0.19026 0.48025 0.21365 0.0
H197 H 0.14937 0.44173 0.22062 0.0
H198 H 0.15837 0.47008 0.13924 0.0
H199 H 0.25014 0.40486 0.2138 0.0
H200 H 0.23665 0.3729 0.13843 0.0
H201 H 0.20883 0.36673 0.21934 0.0
C202 C 0.74317 0.1924 0.24573 0.0
C203 C 0.77399 0.20341 0.205 0.0
C204 C 0.74304 0.19355 0.32673 0.0
C205 C 0.77443 0.20594 0.36752 0.0
C206 C 0.80551 0.21672 0.32687 0.0
C207 C 0.80491 0.21531 0.24614 0.0
C208 C 0.70942 0.18175 0.36865 0.0
C209 C 0.83947 0.22995 0.36863 0.0
C210 C 0.7831 0.23933 0.57223 0.0
C211 C 0.77999 0.21143 0.61516 0.0
C212 C 0.78069 0.23767 0.4914 0.0
C213 C 0.77497 0.20739 0.45296 0.0
C214 C 0.77142 0.17902 0.49588 0.0
C215 C 0.77404 0.1814 0.57647 0.0
C216 C 0.78471 0.26845 0.44708 0.0
C217 C 0.76533 0.14632 0.45663 0.0
H218 H 0.71919 0.18323 0.21439 0.0
H219 H 0.82887 0.22382 0.21528 0.0
H220 H 0.70442 0.16053 0.40895 0.0
H221 H 0.71101 0.20318 0.4039 0.0
H222 H 0.68723 0.17264 0.32837 0.0
H223 H 0.86133 0.23734 0.32826 0.0
H224 H 0.84495 0.25273 0.40423 0.0
H225 H 0.83807 0.20995 0.40849 0.0
H226 H 0.78758 0.26256 0.60167 0.0
H227 H 0.77141 0.15961 0.60911 0.0
H228 H 0.76193 0.26075 0.4095 0.0
H229 H 0.80759 0.27848 0.40883 0.0
H230 H 0.7878 0.28958 0.48584 0.0
H231 H 0.74214 0.13596 0.41921 0.0
H232 H 0.76179 0.12612 0.49869 0.0
H233 H 0.78752 0.15192 0.41884 0.0
C234 C 0.58215 0.79909 0.40123 0.0
C235 C 0.56296 0.76873 0.35824 0.0
C236 C 0.57997 0.79908 0.48182 0.0
C237 C 0.55815 0.76792 0.52071 0.0
C238 C 0.53895 0.73706 0.47811 0.0
C239 C 0.54159 0.73781 0.39715 0.0
C240 C 0.60101 0.83251 0.52533 0.0
C241 C 0.51555 0.70336 0.51805 0.0
C242 C 0.58128 0.76741 0.73052 0.0
C243 C 0.5583 0.77523 0.76826 0.0
C244 C 0.58054 0.7636 0.65017 0.0
C245 C 0.55638 0.7679 0.60625 0.0
C246 C 0.53256 0.775 0.64383 0.0
C247 C 0.53374 0.77851 0.72459 0.0
C248 C 0.60631 0.75593 0.6121 0.0
C249 C 0.50652 0.77988 0.59855 0.0
H250 H 0.5988 0.82314 0.37189 0.0
H251 H 0.52659 0.71428 0.36439 0.0
H252 H 0.58378 0.83834 0.56019 0.0
H253 H 0.61883 0.83013 0.56604 0.0
H254 H 0.61643 0.85458 0.48619 0.0
H255 H 0.50235 0.68165 0.47658 0.0
H256 H 0.53061 0.69719 0.55935 0.0
H257 H 0.49573 0.70556 0.55199 0.0
H258 H 0.60011 0.76441 0.76373 0.0
H259 H 0.51577 0.78434 0.75329 0.0
H260 H 0.62425 0.7781 0.57583 0.0
H261 H 0.59291 0.73324 0.5734 0.0
H262 H 0.62169 0.75084 0.65491 0.0
H263 H 0.52007 0.80312 0.56169 0.0
H264 H 0.48827 0.78289 0.6367 0.0
H265 H 0.49158 0.75759 0.55955 0.0
C266 C 0.79577 0.54601 0.56068 0.0
C267 C 0.78287 0.56456 0.52163 0.0
C268 C 0.79386 0.54311 0.64145 0.0
C269 C 0.77868 0.55912 0.6837 0.0
C270 C 0.76522 0.57747 0.64461 0.0
C271 C 0.76753 0.58002 0.56409 0.0
C272 C 0.80853 0.52342 0.68164 0.0
C273 C 0.74887 0.59491 0.68793 0.0
C274 C 0.74924 0.53398 0.89064 0.0
C275 C 0.77644 0.56091 0.93147 0.0
C276 C 0.74997 0.53249 0.80972 0.0
C277 C 0.77854 0.55853 0.76916 0.0
C278 C 0.80631 0.58538 0.81006 0.0
C279 C 0.80491 0.58625 0.89067 0.0
C280 C 0.71992 0.5035 0.76755 0.0
C281 C 0.83719 0.61363 0.7686 0.0
H282 H 0.80752 0.53388 0.52826 0.0
H283 H 0.75725 0.5942 0.53446 0.0
H284 H 0.83026 0.54108 0.7195 0.0
H285 H 0.7887 0.50318 0.71919 0.0
H286 H 0.81798 0.51109 0.64015 0.0
H287 H 0.73837 0.60696 0.64853 0.0
H288 H 0.72765 0.57601 0.72505 0.0
H289 H 0.76821 0.61518 0.72647 0.0
H290 H 0.72724 0.51421 0.92174 0.0
H291 H 0.82617 0.60708 0.92162 0.0
H292 H 0.72915 0.4902 0.72845 0.0
H293 H 0.70704 0.51405 0.73104 0.0
H294 H 0.70058 0.48427 0.80778 0.0
H295 H 0.84872 0.60238 0.72991 0.0
H296 H 0.85738 0.63173 0.80924 0.0
H297 H 0.829 0.62851 0.73184 0.0
C298 C 0.21481 0.81495 0.06805 0.0
C299 C 0.21059 0.78526 0.10515 0.0
C300 C 0.21813 0.81837 -0.01238 0.0
C301 C 0.217 0.79137 0.94312 0.0
C302 C 0.2131 0.76148 0.98001 0.0
C303 C 0.21001 0.75881 0.06071 0.0
C304 C 0.22233 0.85065 0.95018 0.0
C305 C 0.21155 0.73208 0.9341 0.0
C306 C 0.18696 0.78239 0.73588 0.0
C307 C 0.21807 0.79581 0.69487 0.0
C308 C 0.18637 0.78101 0.81662 0.0
C309 C 0.21767 0.79348 0.85762 0.0
C310 C 0.24927 0.80772 0.81702 0.0
C311 C 0.24911 0.80871 0.73591 0.0
C312 C 0.15215 0.76571 0.85799 0.0
C313 C 0.28314 0.82146 0.85924 0.0
H314 H 0.21558 0.83569 0.10184 0.0
H315 H 0.2069 0.73585 0.08886 0.0
H316 H 0.24561 0.8625 0.91306 0.0
H317 H 0.19986 0.84409 0.91237 0.0
H318 H 0.22456 0.87002 -0.00664 0.0
H319 H 0.20989 0.71127 0.97176 0.0
H320 H 0.18875 0.72098 0.89534 0.0
H321 H 0.23471 0.74158 0.89695 0.0
H322 H 0.1628 0.77243 0.70487 0.0
H323 H 0.27324 0.8191 0.70473 0.0
H324 H 0.15219 0.78479 0.89891 0.0
H325 H 0.14794 0.74308 0.89239 0.0
H326 H 0.13016 0.75745 0.81744 0.0
H327 H 0.28642 0.84165 0.90108 0.0
H328 H 0.30552 0.83252 0.81925 0.0
H329 H 0.28328 0.80048 0.89282 0.0
C330 C 0.32666 0.06683 0.57364 0.0
C331 C 0.33734 0.09205 0.51609 0.0
C332 C 0.30737 0.03174 0.55484 0.0
C333 C 0.29945 0.02175 0.47644 0.0
C334 C 0.30885 0.04714 0.41853 0.0
C335 C 0.32737 0.08204 0.43923 0.0
C336 C 0.29701 0.00538 0.61844 0.0
C337 C 0.30151 0.03753 0.33417 0.0
C338 C 0.29437 0.9371 0.42778 0.0
C339 C 0.25877 0.91483 0.42127 0.0
C340 C 0.30787 0.97217 0.44315 0.0
C341 C 0.28513 0.98509 0.45441 0.0
C342 C 0.24912 0.9628 0.44691 0.0
C343 C 0.23633 0.92788 0.42931 0.0
C344 C 0.3465 0.99527 0.44866 0.0
C345 C 0.22412 0.97557 0.46019 0.0
H346 H 0.33402 0.07451 0.63322 0.0
H347 H 0.33573 0.10147 0.39446 0.0
H348 H 0.26953 0.98522 0.61221 0.0
H349 H 0.31258 0.99248 0.61429 0.0
H350 H 0.30095 0.01719 0.67675 0.0
H351 H 0.30719 0.06005 0.2974 0.0
H352 H 0.3176 0.02665 0.31406 0.0
H353 H 0.27418 0.01742 0.32567 0.0
H354 H 0.31173 0.92703 0.42089 0.0
H355 H 0.20877 0.91053 0.4249 0.0
H356 H 0.35377 0.00531 0.50844 0.0
H357 H 0.35513 0.01777 0.40981 0.0
H358 H 0.3606 0.98162 0.43312 0.0
H359 H 0.22611 0.9843 0.52098 0.0
H360 H 0.19703 0.95535 0.4486 0.0
H361 H 0.23067 -0.00193 0.42277 0.0
C362 C 0.32846 0.2666 0.52788 0.0
C363 C 0.33934 0.25297 0.5869 0.0
C364 C 0.3066 0.27979 0.54425 0.0
C365 C 0.29465 0.27811 0.62085 0.0
C366 C 0.30354 0.26184 0.67916 0.0
C367 C 0.32642 0.2501 0.66177 0.0
C368 C 0.29853 0.29785 0.48105 0.0
C369 C 0.29046 0.25855 0.76088 0.0
C370 C 0.28077 0.34987 0.6928 0.0
C371 C 0.24503 0.33529 0.6855 0.0
C372 C 0.29715 0.33166 0.67047 0.0
C373 C 0.27713 0.29755 0.64253 0.0
C374 C 0.24088 0.28233 0.63654 0.0
C375 C 0.22525 0.30169 0.65684 0.0
C376 C 0.33597 0.34917 0.6759 0.0
C377 C 0.2187 0.24564 0.60941 0.0
H378 H 0.33876 0.2689 0.47011 0.0
H379 H 0.33477 0.23921 0.70707 0.0
H380 H 0.27056 0.28882 0.47934 0.0
H381 H 0.31214 0.32593 0.49315 0.0
H382 H 0.30667 0.29374 0.42326 0.0
H383 H 0.2951 0.24046 0.79566 0.0
H384 H 0.30374 0.28412 0.78953 0.0
H385 H 0.26244 0.24948 0.76098 0.0
H386 H 0.29616 0.37607 0.71382 0.0
H387 H 0.19758 0.29045 0.65129 0.0
H388 H 0.34695 0.34844 0.61891 0.0
H389 H 0.34346 0.33531 0.71757 0.0
H390 H 0.34781 0.37645 0.6948 0.0
H391 H 0.22612 0.24271 0.54997 0.0
H392 H 0.19083 0.23737 0.60976 0.0
H393 H 0.2229 0.22808 0.64715 0.0
C394 C 0.93038 0.25775 0.91964 0.0
C395 C 0.90373 0.24045 0.86593 0.0
C396 C 0.96499 0.27389 0.89644 0.0
C397 C 0.97296 0.27346 0.81738 0.0
C398 C 0.9462 0.25468 0.76359 0.0
C399 C 0.91188 0.23804 0.78873 0.0
C400 C 0.99292 0.29291 0.95585 0.0
C401 C 0.95359 0.25419 0.67859 0.0
C402 C 0.05461 0.35288 0.75247 0.0
C403 C 0.07769 0.34055 0.74667 0.0
C404 C 0.02014 0.33091 0.77272 0.0
C405 C 0.00878 0.29598 0.78983 0.0
C406 C 0.03185 0.28321 0.7828 0.0
C407 C 0.06606 0.30564 0.76017 0.0
C408 C -0.00392 0.3453 0.77739 0.0
C409 C 0.0208 0.24632 0.80225 0.0
H410 H 0.92418 0.25937 0.97949 0.0
H411 H 0.89136 0.22484 0.74683 0.0
H412 H 0.01365 0.28642 0.94935 0.0
H413 H 0.00471 0.32106 0.94687 0.0
H414 H 0.98282 0.28683 0.01583 0.0
H415 H 0.93037 0.23541 0.64583 0.0
H416 H 0.96288 0.28019 0.6539 0.0
H417 H 0.97424 0.24777 0.66988 0.0
H418 H 0.06363 0.37988 0.74155 0.0
H419 H 0.08409 0.29626 0.75646 0.0
H420 H 0.9877 0.34449 0.83805 0.0
H421 H 0.97261 0.32936 0.74233 0.0
H422 H 0.00836 0.37233 0.75677 0.0
H423 H 0.01423 0.24171 0.86455 0.0
H424 H 0.04127 0.23994 0.78963 0.0
H425 H -0.0027 0.22845 0.76934 0.0
C426 C 0.66384 0.91428 0.95009 0.0
C427 C 0.65653 0.9037 0.02733 0.0
C428 C 0.68125 0.94931 0.93085 0.0
C429 C 0.69235 0.97424 -0.00951 0.0
C430 C 0.68717 0.96369 0.06878 0.0
C431 C 0.66882 0.92846 0.08628 0.0
C432 C 0.68559 0.95952 0.8467 0.0
C433 C 0.69951 0.98958 0.13397 0.0
C434 C 0.75349 0.06797 0.93985 0.0
C435 C 0.73083 0.08095 0.93802 0.0
C436 C 0.74145 0.03323 0.95738 0.0
C437 C 0.70586 0.01099 0.97106 0.0
C438 C 0.6828 0.02387 0.96702 0.0
C439 C 0.69567 0.05883 0.95165 0.0
C440 C 0.76683 0.02053 0.96319 0.0
C441 C 0.64452 0.00076 0.97929 0.0
H442 H 0.65415 0.89516 0.90433 0.0
H443 H 0.66345 0.92029 0.14607 0.0
H444 H 0.66904 0.9707 0.83287 0.0
H445 H 0.7126 0.97958 0.83459 0.0
H446 H 0.67842 0.93726 0.8076 0.0
H447 H 0.6977 0.9774 0.19095 0.0
H448 H 0.72663 0.01001 0.12428 0.0
H449 H 0.68366 0.00222 0.13603 0.0
H450 H 0.78076 0.08522 0.93001 0.0
H451 H 0.67812 0.06885 0.94966 0.0
H452 H 0.75953 -0.00128 0.9228 0.0
H453 H 0.76623 0.01078 0.0224 0.0
H454 H 0.79361 0.04104 0.95004 0.0
H455 H 0.63435 0.97845 0.93918 0.0
H456 H 0.62994 0.01447 0.97002 0.0
H457 H 0.63957 0.99042 0.03898 0.0
C458 C 0.75131 0.67208 0.10456 0.0
C459 C 0.75378 0.66503 0.18248 0.0
C460 C 0.73365 0.68917 0.08279 0.0
C461 C 0.7189 0.70013 0.14056 0.0
C462 C 0.72386 0.69563 0.21957 0.0
C463 C 0.74086 0.67767 0.2396 0.0
C464 C 0.72839 0.69292 -0.00207 0.0
C465 C 0.70933 0.70784 0.28287 0.0
C466 C 0.68258 0.7578 0.08641 0.0
C467 C 0.64716 0.73397 0.08476 0.0
C468 C 0.70648 0.74726 0.10425 0.0
C469 C 0.69455 0.712 0.11863 0.0
C470 C 0.65887 0.68774 0.11422 0.0
C471 C 0.63558 0.6991 0.09838 0.0
C472 C 0.74424 0.77389 0.1102 0.0
C473 C 0.6452 0.64977 0.12731 0.0
H474 H 0.76113 0.66218 0.06016 0.0
H475 H 0.74306 0.67255 0.29994 0.0
H476 H 0.70107 0.67497 -0.01759 0.0
H477 H 0.7338 0.71937 -0.01503 0.0
H478 H 0.74502 0.68707 0.96073 0.0
H479 H 0.71982 0.70709 0.34057 0.0
H480 H 0.71506 0.73452 0.27137 0.0
H481 H 0.6809 0.69114 0.28457 0.0
H482 H 0.6915 0.78483 0.07652 0.0
H483 H 0.60819 0.68064 0.09647 0.0
H484 H 0.7597 0.76679 0.07243 0.0
H485 H 0.75324 0.7748 0.17037 0.0
H486 H 0.74947 0.80002 0.09396 0.0
H487 H 0.65848 0.64039 0.08857 0.0
H488 H 0.617 0.63409 0.11685 0.0
H489 H 0.65049 0.64543 0.18763 0.0
C490 C 0.93284 0.66475 0.20185 0.0
C491 C 0.90794 0.65305 0.26015 0.0
C492 C 0.9679 0.68589 0.21988 0.0
C493 C 0.97779 0.69634 0.29751 0.0
C494 C 0.95229 0.68642 0.35547 0.0
C495 C 0.91767 0.66426 0.33629 0.0
C496 C 0.99439 0.69506 0.15693 0.0
C497 C 0.96168 0.6979 0.43837 0.0
C498 C 0.06366 0.71028 0.3687 0.0
C499 C 0.08446 0.74615 0.36455 0.0
C500 C 0.02913 0.69385 0.34548 0.0
C501 C 0.01471 0.71389 0.31995 0.0
C502 C 0.03538 0.75023 0.31722 0.0
C503 C 0.07033 0.76596 0.33825 0.0
C504 C 0.00823 0.65497 0.34732 0.0
C505 C 0.02051 0.77241 0.29282 0.0
H506 H 0.92509 0.65581 0.14305 0.0
H507 H 0.89814 0.65534 0.38105 0.0
H508 H 0.01302 0.72311 0.15708 0.0
H509 H 0.00921 0.68174 0.16784 0.0
H510 H 0.98242 0.68749 0.09871 0.0
H511 H 0.93872 0.69224 0.47359 0.0
H512 H 0.97426 0.68445 0.4647 0.0
H513 H 0.98034 0.72595 0.44117 0.0
H514 H 0.07472 0.69489 0.38787 0.0
H515 H 0.08649 0.79372 0.33511 0.0
H516 H -0.0031 0.64489 0.2895 0.0
H517 H 0.98658 0.64649 0.38865 0.0
H518 H 0.02391 0.6432 0.3646 0.0
H519 H 0.01055 0.76595 0.23285 0.0
H520 H 0.03982 0.80032 0.29574 0.0
H521 H -0.0016 0.7672 0.33053 0.0
C522 C 0.56028 0.35066 0.49768 0.0
C523 C 0.52572 0.34184 0.5047 0.0
C524 C 0.58425 0.38129 0.46152 0.0
C525 C 0.57312 0.40313 0.42949 0.0
C526 C 0.53842 0.39492 0.43875 0.0
C527 C 0.51511 0.36442 0.47723 0.0
C528 C 0.62124 0.38958 0.45499 0.0
C529 C 0.52549 0.41724 0.40428 0.0
C530 C 0.64655 0.49199 0.38114 0.0
C531 C 0.65445 0.48715 0.30518 0.0
C532 C 0.61873 0.4655 0.42108 0.0
C533 C 0.59784 0.4336 0.38372 0.0
C534 C 0.60381 0.42956 0.30496 0.0
C535 C 0.63228 0.45629 0.26678 0.0
C536 C 0.61356 0.47076 0.50518 0.0
C537 C 0.5815 0.39618 0.26252 0.0
H538 H 0.56836 0.33307 0.51894 0.0
H539 H 0.48819 0.35721 0.48159 0.0
H540 H 0.62761 0.38844 0.3935 0.0
H541 H 0.63893 0.41611 0.47601 0.0
H542 H 0.62622 0.37139 0.48846 0.0
H543 H 0.49887 0.40929 0.42336 0.0
H544 H 0.54271 0.44463 0.42009 0.0
H545 H 0.52563 0.4155 0.34031 0.0
H546 H 0.66343 0.51575 0.4115 0.0
H547 H 0.63794 0.45244 0.20792 0.0
H548 H 0.62183 0.45584 0.54161 0.0
H549 H 0.58596 0.46116 0.51763 0.0
H550 H 0.6287 0.49828 0.52253 0.0
H551 H 0.58697 0.37614 0.28428 0.0
H552 H 0.58624 0.39885 0.19922 0.0
H553 H 0.55382 0.38696 0.27317 0.0
C554 C 0.21985 0.55902 0.63947 0.0
C555 C 0.19147 0.52694 0.65802 0.0
C556 C 0.21538 0.58478 0.60521 0.0
C557 C 0.18171 0.5779 0.58696 0.0
C558 C 0.15288 0.54562 0.6063 0.0
C559 C 0.1581 0.5206 0.64271 0.0
C560 C 0.24674 0.61924 0.58778 0.0
C561 C 0.11669 0.53715 0.58624 0.0
C562 C 0.17289 0.65671 0.55858 0.0
C563 C 0.17774 0.66201 0.47846 0.0
C564 C 0.1729 0.62875 0.59428 0.0
C565 C 0.17705 0.60492 0.54866 0.0
C566 C 0.17992 0.60891 0.46725 0.0
C567 C 0.18069 0.63771 0.4331 0.0
C568 C 0.17058 0.62593 0.68135 0.0
C569 C 0.18353 0.58347 0.41659 0.0
H570 H 0.24566 0.56386 0.65133 0.0
H571 H 0.1362 0.49554 0.65588 0.0
H572 H 0.249 0.6238 0.52452 0.0
H573 H 0.24409 0.64022 0.61489 0.0
H574 H 0.27094 0.62093 0.60897 0.0
H575 H 0.09704 0.51104 0.60608 0.0
H576 H 0.11099 0.5563 0.61261 0.0
H577 H 0.11429 0.53858 0.5227 0.0
H578 H 0.17075 0.67541 0.59437 0.0
H579 H 0.18421 0.64151 0.3712 0.0
H580 H 0.19532 0.6299 0.70508 0.0
H581 H 0.15017 0.59984 0.699 0.0
H582 H 0.16505 0.6452 0.70797 0.0
H583 H 0.20905 0.58577 0.42656 0.0
H584 H 0.18122 0.58781 0.35422 0.0
H585 H 0.1636 0.55675 0.43156 0.0
C586 C 0.64171 0.20471 0.86788 0.0
C587 C 0.66035 0.18992 0.83857 0.0
C588 C 0.61256 0.20085 0.82851 0.0
C589 C 0.60219 0.18188 0.75837 0.0
C590 C 0.62026 0.16568 0.73067 0.0
C591 C 0.64933 0.17011 0.77101 0.0
C592 C 0.59396 0.21854 0.85979 0.0
C593 C 0.60995 0.14512 0.65652 0.0
C594 C 0.51327 0.1575 0.68268 0.0
C595 C 0.52107 0.18408 0.62966 0.0
C596 C 0.53947 0.1557 0.72314 0.0
C597 C 0.57423 0.18133 0.71101 0.0
C598 C 0.58236 0.20738 0.65526 0.0
C599 C 0.55569 0.20828 0.61483 0.0
C600 C 0.52989 0.12713 0.78092 0.0
C601 C 0.61915 0.23526 0.64082 0.0
H602 H 0.65077 0.22042 0.91967 0.0
H603 H 0.66426 0.15911 0.74824 0.0
H604 H 0.59727 0.23918 0.81945 0.0
H605 H 0.56593 0.19999 0.86416 0.0
H606 H 0.6037 0.23016 0.91763 0.0
H607 H 0.62438 0.13123 0.64736 0.0
H608 H 0.58195 0.12612 0.65663 0.0
H609 H 0.61501 0.16262 0.60682 0.0
H610 H 0.48658 0.13861 0.69425 0.0
H611 H 0.56198 0.22903 0.57439 0.0
H612 H 0.53628 0.13809 0.84013 0.0
H613 H 0.54499 0.1141 0.77016 0.0
H614 H 0.50201 0.1076 0.77876 0.0
H615 H 0.63013 0.25063 0.69429 0.0
H616 H 0.62121 0.25293 0.59357 0.0
H617 H 0.63517 0.22365 0.62569 0.0
C618 C 0.42785 0.65541 0.97945 0.0
C619 C 0.46052 0.66023 -0.00358 0.0
C620 C 0.40294 0.62548 0.94213 0.0
C621 C 0.41133 0.60025 0.91912 0.0
C622 C 0.44422 0.60482 0.9368 0.0
C623 C 0.46833 0.63463 0.97634 0.0
C624 C 0.36779 0.62106 0.92655 0.0
C625 C 0.45429 0.57882 0.9117 0.0
C626 C 0.33507 0.51152 0.88259 0.0
C627 C 0.32954 0.51256 0.80289 0.0
C628 C 0.36232 0.53942 0.92063 0.0
C629 C 0.38522 0.56889 0.8778 0.0
C630 C 0.38117 0.56936 0.79661 0.0
C631 C 0.35308 0.5413 0.76013 0.0
C632 C 0.36525 0.53813 0.00744 0.0
C633 C 0.40569 0.60007 0.74882 0.0
H634 H 0.42189 0.6753 -0.00511 0.0
H635 H 0.49386 0.63869 -0.0118 0.0
H636 H 0.36321 0.62003 0.86336 0.0
H637 H 0.34747 0.59637 0.95129 0.0
H638 H 0.36494 0.64236 0.95138 0.0
H639 H 0.48073 0.586 0.93076 0.0
H640 H 0.43592 0.55305 0.93529 0.0
H641 H 0.45301 0.57653 0.84776 0.0
H642 H 0.31703 0.48951 0.91646 0.0
H643 H 0.34913 0.54223 0.69858 0.0
H644 H 0.36011 0.55754 0.03459 0.0
H645 H 0.39173 0.54468 0.02417 0.0
H646 H 0.3468 0.51242 0.0315 0.0
H647 H 0.40204 0.62222 0.7624 0.0
H648 H 0.40159 0.59475 0.68582 0.0
H649 H 0.43277 0.60788 0.76311 0.0
C650 C 0.77061 0.43328 0.15529 0.0
C651 C 0.79819 0.46641 0.17 0.0
C652 C 0.77605 0.40798 0.12154 0.0
C653 C 0.80982 0.41634 0.09985 0.0
C654 C 0.8379 0.44964 0.11569 0.0
C655 C 0.83179 0.47421 0.15164 0.0
C656 C 0.74551 0.37248 0.10781 0.0
C657 C 0.87414 0.45969 0.09194 0.0
C658 C 0.82253 0.33992 0.06714 0.0
C659 C 0.81566 0.33377 -0.01231 0.0
C660 C 0.82202 0.3675 0.10396 0.0
C661 C 0.81531 0.39006 0.06003 0.0
C662 C 0.81059 0.38536 0.97899 0.0
C663 C 0.81036 0.35697 0.94386 0.0
C664 C 0.82641 0.37111 0.19066 0.0
C665 C 0.80425 0.40943 0.92991 0.0
H666 H 0.74462 0.42725 0.16959 0.0
H667 H 0.85308 0.50002 0.16192 0.0
H668 H 0.74175 0.36716 0.04487 0.0
H669 H 0.75032 0.35269 0.13394 0.0
H670 H 0.72131 0.36959 0.1324 0.0
H671 H 0.89328 0.48621 0.1108 0.0
H672 H 0.88151 0.44148 0.1166 0.0
H673 H 0.87543 0.45819 0.02811 0.0
H674 H 0.82643 0.32202 0.10173 0.0
H675 H 0.80525 0.3525 0.88245 0.0
H676 H 0.8017 0.36557 0.21765 0.0
H677 H 0.84596 0.39784 0.20666 0.0
H678 H 0.83427 0.35324 0.21549 0.0
H679 H 0.77841 0.40579 0.94306 0.0
H680 H 0.80543 0.40489 0.86714 0.0
H681 H 0.8235 0.43662 0.94335 0.0
C682 C 0.45054 0.8142 0.10595 0.0
C683 C 0.47864 0.81758 0.14865 0.0
C684 C 0.42296 0.81492 0.14282 0.0
C685 C 0.42315 0.81814 0.22437 0.0
C686 C 0.45209 0.82298 0.26728 0.0
C687 C 0.47963 0.82308 0.22882 0.0
C688 C 0.39291 0.81064 0.09491 0.0
C689 C 0.453 0.82568 0.3544 0.0
C690 C 0.35736 0.83538 0.32294 0.0
C691 C 0.3308 0.80179 0.33824 0.0
C692 C 0.38769 0.84125 0.28569 0.0
C693 C 0.39175 0.81286 0.26548 0.0
C694 C 0.36556 0.77901 0.2842 0.0
C695 C 0.33518 0.77388 0.31925 0.0
C696 C 0.41472 0.87761 0.26515 0.0
C697 C 0.36931 0.74812 0.26587 0.0
H698 H 0.44969 0.81015 0.04402 0.0
H699 H 0.50112 0.82551 0.26256 0.0
H700 H 0.37015 0.7849 0.1058 0.0
H701 H 0.38579 0.83016 0.1116 0.0
H702 H 0.39865 0.81301 0.03204 0.0
H703 H 0.47854 0.83224 0.37858 0.0
H704 H 0.44665 0.84546 0.37345 0.0
H705 H 0.43326 0.80072 0.3793 0.0
H706 H 0.35367 0.85693 0.33648 0.0
H707 H 0.31457 0.74791 0.33113 0.0
H708 H 0.41739 0.88016 0.20138 0.0
H709 H 0.44016 0.88366 0.28872 0.0
H710 H 0.40823 0.89692 0.28737 0.0
H711 H 0.37063 0.74552 0.20239 0.0
H712 H 0.34752 0.7238 0.28864 0.0
H713 H 0.39367 0.75159 0.29079 0.0
loop_
_geom_bond_atom_site_label_1
_geom_bond_atom_site_label_2
_geom_bond_distance
_geom_bond_site_symmetry_2
_ccdc_geom_bond_type
O0 Zn1 1.953 . S
O0 C16 1.225 . S
Zn1 O0 1.953 . S
Zn1 O2 1.949 . S
Zn1 O8 1.919 . S
Zn1 O13 1.924 . S
O2 Zn1 1.949 . S
O2 Zn3 1.923 . S
O2 Zn4 1.950 . S
O2 Zn5 1.945 . S
Zn3 O2 1.923 . S
Zn3 O6 1.933 . S
Zn3 O9 1.941 . S
Zn3 O10 1.965 . S
Zn4 O2 1.950 . S
Zn4 O11 1.938 . S
Zn4 O12 1.906 . S
Zn4 O22 1.953 . S
Zn5 O2 1.945 . S
Zn5 O7 1.932 . S
Zn5 O14 1.977 . S
Zn5 O15 1.910 . S
O6 Zn3 1.933 . S
O6 C17 1.226 . S
O7 Zn5 1.932 . S
O7 C17 1.307 . S
O8 Zn1 1.919 . S
O8 C19 1.253 . S
O9 Zn3 1.941 . S
O9 C19 1.283 . S
O10 Zn3 1.965 . S
O10 C18 1.303 . S
O11 Zn4 1.938 . S
O11 C18 1.247 . S
O12 Zn4 1.906 . S
O12 C20 1.304 . S
O13 Zn1 1.924 . S
O13 C21 1.311 . S
O14 Zn5 1.977 . S
O14 C20 1.272 . S
O15 Zn5 1.910 . S
O15 C21 1.231 . S
C16 O0 1.225 . S
C16 O22 1.298 . S
C17 O6 1.226 . S
C17 O7 1.307 . S
C18 O10 1.303 . S
C18 O11 1.247 . S
C19 O8 1.253 . S
C19 O9 1.283 . S
C20 O12 1.304 . S
C20 O14 1.272 . S
C21 O13 1.311 . S
C21 O15 1.231 . S
O22 Zn4 1.953 . S
O22 C16 1.298 . S
O23 Zn24 1.953 . S
O23 C39 1.225 . S
Zn24 O23 1.953 . S
Zn24 O25 1.949 . S
Zn24 O31 1.919 . S
Zn24 O36 1.924 . S
O25 Zn24 1.949 . S
O25 Zn26 1.923 . S
O25 Zn27 1.950 . S
O25 Zn28 1.945 . S
Zn26 O25 1.923 . S
Zn26 O29 1.933 . S
Zn26 O32 1.941 . S
Zn26 O33 1.965 . S
Zn27 O25 1.950 . S
Zn27 O34 1.938 . S
Zn27 O35 1.906 . S
Zn27 O45 1.953 . S
Zn28 O25 1.945 . S
Zn28 O30 1.932 . S
Zn28 O37 1.977 . S
Zn28 O38 1.910 . S
O29 Zn26 1.933 . S
O29 C40 1.226 . S
O30 Zn28 1.932 . S
O30 C40 1.307 . S
O31 Zn24 1.919 . S
O31 C42 1.253 . S
O32 Zn26 1.941 . S
O32 C42 1.283 . S
O33 Zn26 1.965 . S
O33 C41 1.303 . S
O34 Zn27 1.938 . S
O34 C41 1.247 . S
O35 Zn27 1.906 . S
O35 C43 1.304 . S
O36 Zn24 1.924 . S
O36 C44 1.311 . S
O37 Zn28 1.977 . S
O37 C43 1.272 . S
O38 Zn28 1.910 . S
O38 C44 1.231 . S
C39 O23 1.225 . S
C39 O45 1.298 . S
C40 O29 1.226 . S
C40 O30 1.307 . S
C41 O33 1.303 . S
C41 O34 1.247 . S
C42 O31 1.253 . S
C42 O32 1.283 . S
C43 O35 1.304 . S
C43 O37 1.272 . S
C44 O36 1.311 . S
C44 O38 1.231 . S
O45 Zn27 1.953 . S
O45 C39 1.298 . S
O46 Zn47 1.953 1_554 S
O46 C62 1.225 . S
Zn47 O46 1.953 1_556 S
Zn47 O48 1.949 . S
Zn47 O54 1.919 . S
Zn47 O59 1.924 . S
O48 Zn47 1.949 . S
O48 Zn49 1.923 . S
O48 Zn50 1.950 . S
O48 Zn51 1.945 . S
Zn49 O48 1.923 . S
Zn49 O52 1.933 . S
Zn49 O55 1.941 . S
Zn49 O56 1.965 . S
Zn50 O48 1.950 . S
Zn50 O57 1.938 . S
Zn50 O58 1.906 . S
Zn50 O68 1.953 1_556 S
Zn51 O48 1.945 . S
Zn51 O53 1.932 . S
Zn51 O60 1.977 . S
Zn51 O61 1.910 . S
O52 Zn49 1.933 . S
O52 C63 1.226 . S
O53 Zn51 1.932 . S
O53 C63 1.307 . S
O54 Zn47 1.919 . S
O54 C65 1.253 . S
O55 Zn49 1.941 . S
O55 C65 1.283 . S
O56 Zn49 1.965 . S
O56 C64 1.303 . S
O57 Zn50 1.938 . S
O57 C64 1.247 . S
O58 Zn50 1.906 . S
O58 C66 1.304 . S
O59 Zn47 1.924 . S
O59 C67 1.311 . S
O60 Zn51 1.977 . S
O60 C66 1.272 . S
O61 Zn51 1.910 . S
O61 C67 1.231 . S
C62 O46 1.225 . S
C62 O68 1.298 . S
C63 O52 1.226 . S
C63 O53 1.307 . S
C64 O56 1.303 . S
C64 O57 1.247 . S
C65 O54 1.253 . S
C65 O55 1.283 . S
C66 O58 1.304 . S
C66 O60 1.272 . S
C67 O59 1.311 . S
C67 O61 1.231 . S
O68 Zn50 1.953 1_554 S
O68 C62 1.298 . S
O69 Zn70 1.953 . S
O69 C85 1.225 . S
Zn70 O69 1.953 . S
Zn70 O71 1.949 . S
Zn70 O77 1.919 . S
Zn70 O82 1.924 . S
O71 Zn70 1.949 . S
O71 Zn72 1.923 . S
O71 Zn73 1.950 . S
O71 Zn74 1.945 . S
Zn72 O71 1.923 . S
Zn72 O75 1.933 1_554 S
Zn72 O78 1.941 . S
Zn72 O79 1.965 . S
Zn73 O71 1.950 . S
Zn73 O80 1.938 . S
Zn73 O81 1.906 . S
Zn73 O91 1.953 . S
Zn74 O71 1.945 . S
Zn74 O76 1.932 1_554 S
Zn74 O83 1.977 . S
Zn74 O84 1.910 . S
O75 Zn72 1.933 1_556 S
O75 C86 1.226 . S
O76 Zn74 1.932 1_556 S
O76 C86 1.307 . S
O77 Zn70 1.919 . S
O77 C88 1.253 . S
O78 Zn72 1.941 . S
O78 C88 1.283 . S
O79 Zn72 1.965 . S
O79 C87 1.303 . S
O80 Zn73 1.938 . S
O80 C87 1.247 . S
O81 Zn73 1.906 . S
O81 C89 1.304 . S
O82 Zn70 1.924 . S
O82 C90 1.311 . S
O83 Zn74 1.977 . S
O83 C89 1.272 . S
O84 Zn74 1.910 . S
O84 C90 1.231 . S
C85 O69 1.225 . S
C85 O91 1.298 . S
C86 O75 1.226 . S
C86 O76 1.307 . S
C87 O79 1.303 . S
C87 O80 1.247 . S
C88 O77 1.253 . S
C88 O78 1.283 . S
C89 O81 1.304 . S
C89 O83 1.272 . S
C90 O82 1.311 . S
C90 O84 1.231 . S
O91 Zn73 1.953 . S
O91 C85 1.298 . S
O92 Zn93 1.953 . S
O92 C108 1.225 . S
Zn93 O92 1.953 . S
Zn93 O94 1.949 . S
Zn93 O100 1.919 . S
Zn93 O105 1.924 . S
O94 Zn93 1.949 . S
O94 Zn95 1.923 . S
O94 Zn96 1.950 . S
O94 Zn97 1.945 . S
Zn95 O94 1.923 . S
Zn95 O98 1.933 . S
Zn95 O101 1.941 . S
Zn95 O102 1.965 . S
Zn96 O94 1.950 . S
Zn96 O103 1.938 . S
Zn96 O104 1.906 . S
Zn96 O114 1.953 . S
Zn97 O94 1.945 . S
Zn97 O99 1.932 . S
Zn97 O106 1.977 . S
Zn97 O107 1.910 . S
O98 Zn95 1.933 . S
O98 C109 1.226 . S
O99 Zn97 1.932 . S
O99 C109 1.307 . S
O100 Zn93 1.919 . S
O100 C111 1.253 . S
O101 Zn95 1.941 . S
O101 C111 1.283 . S
O102 Zn95 1.965 . S
O102 C110 1.303 . S
O103 Zn96 1.938 . S
O103 C110 1.247 . S
O104 Zn96 1.906 . S
O104 C112 1.304 . S
O105 Zn93 1.924 . S
O105 C113 1.311 . S
O106 Zn97 1.977 . S
O106 C112 1.272 . S
O107 Zn97 1.910 . S
O107 C113 1.231 . S
C108 O92 1.225 . S
C108 O114 1.298 . S
C109 O98 1.226 . S
C109 O99 1.307 . S
C110 O102 1.303 . S
C110 O103 1.247 . S
C111 O100 1.253 . S
C111 O101 1.283 . S
C112 O104 1.304 . S
C112 O106 1.272 . S
C113 O105 1.311 . S
C113 O107 1.231 . S
O114 Zn96 1.953 . S
O114 C108 1.298 . S
O115 Zn116 1.953 . S
O115 C131 1.225 . S
Zn116 O115 1.953 . S
Zn116 O117 1.949 . S
Zn116 O123 1.919 . S
Zn116 O128 1.924 . S
O117 Zn116 1.949 . S
O117 Zn118 1.923 . S
O117 Zn119 1.950 . S
O117 Zn120 1.945 . S
Zn118 O117 1.923 . S
Zn118 O121 1.933 . S
Zn118 O124 1.941 . S
Zn118 O125 1.965 . S
Zn119 O117 1.950 . S
Zn119 O126 1.938 . S
Zn119 O127 1.906 . S
Zn119 O137 1.953 . S
Zn120 O117 1.945 . S
Zn120 O122 1.932 . S
Zn120 O129 1.977 . S
Zn120 O130 1.910 . S
O121 Zn118 1.933 . S
O121 C132 1.226 . S
O122 Zn120 1.932 . S
O122 C132 1.307 . S
O123 Zn116 1.919 . S
O123 C134 1.253 . S
O124 Zn118 1.941 . S
O124 C134 1.283 . S
O125 Zn118 1.965 . S
O125 C133 1.303 . S
O126 Zn119 1.938 . S
O126 C133 1.247 . S
O127 Zn119 1.906 . S
O127 C135 1.304 . S
O128 Zn116 1.924 . S
O128 C136 1.311 . S
O129 Zn120 1.977 . S
O129 C135 1.272 . S
O130 Zn120 1.910 . S
O130 C136 1.231 . S
C131 O115 1.225 . S
C131 O137 1.298 . S
C132 O121 1.226 . S
C132 O122 1.307 . S
C133 O125 1.303 . S
C133 O126 1.247 . S
C134 O123 1.253 . S
C134 O124 1.283 . S
C135 O127 1.304 . S
C135 O129 1.272 . S
C136 O128 1.311 . S
C136 O130 1.231 . S
O137 Zn119 1.953 . S
O137 C131 1.298 . S
C138 C139 1.391 . S
C138 C140 1.394 . S
C138 H154 0.931 . S
C139 C138 1.391 . S
C139 C143 1.376 . S
C140 C138 1.394 . S
C140 C141 1.369 . S
C140 C144 1.531 . S
C141 C140 1.369 . S
C141 C142 1.410 . S
C141 C149 1.503 . S
C142 C141 1.410 . S
C142 C143 1.392 . S
C142 C145 1.511 . S
C143 C139 1.376 . S
C143 C142 1.392 . S
C143 H155 0.929 . S
C144 C140 1.531 . S
C144 H156 0.960 . S
C144 H157 0.962 . S
C144 H158 0.960 . S
C145 C142 1.511 . S
C145 H159 0.961 . S
C145 H160 0.961 . S
C145 H161 0.961 . S
C146 C147 1.370 . S
C146 C148 1.363 1_556 S
C146 H162 0.931 . S
C147 C146 1.370 . S
C147 C151 1.408 . S
C148 C146 1.363 1_554 S
C148 C149 1.370 . S
C148 C152 1.524 . S
C149 C141 1.503 . S
C149 C148 1.370 . S
C149 C150 1.403 1_554 S
C150 C149 1.403 1_556 S
C150 C151 1.404 . S
C150 C153 1.539 1_556 S
C151 C147 1.408 . S
C151 C150 1.404 . S
C151 H163 0.930 . S
C152 C148 1.524 . S
C152 H164 0.956 . S
C152 H165 0.961 . S
C152 H166 0.961 . S
C153 C150 1.539 1_554 S
C153 H167 0.958 . S
C153 H168 0.961 1_554 S
C153 H169 0.960 . S
H154 C138 0.931 . S
H155 C143 0.929 . S
H156 C144 0.960 . S
H157 C144 0.962 . S
H158 C144 0.960 . S
H159 C145 0.961 . S
H160 C145 0.961 . S
H161 C145 0.961 . S
H162 C146 0.931 . S
H163 C151 0.930 . S
H164 C152 0.956 . S
H165 C152 0.961 . S
H166 C152 0.961 . S
H167 C153 0.958 . S
H168 C153 0.961 1_556 S
H169 C153 0.960 . S
C170 C171 1.391 . S
C170 C172 1.394 . S
C170 H186 0.931 . S
C171 C170 1.391 . S
C171 C175 1.376 . S
C172 C170 1.394 . S
C172 C173 1.369 . S
C172 C176 1.531 . S
C173 C172 1.369 . S
C173 C174 1.410 . S
C173 C181 1.503 . S
C174 C173 1.410 . S
C174 C175 1.392 . S
C174 C177 1.511 . S
C175 C171 1.376 . S
C175 C174 1.392 . S
C175 H187 0.929 . S
C176 C172 1.531 . S
C176 H188 0.960 . S
C176 H189 0.962 . S
C176 H190 0.960 . S
C177 C174 1.511 . S
C177 H191 0.961 . S
C177 H192 0.961 . S
C177 H193 0.961 . S
C178 C179 1.370 . S
C178 C180 1.363 . S
C178 H194 0.931 . S
C179 C178 1.370 . S
C179 C183 1.408 . S
C180 C178 1.363 . S
C180 C181 1.370 . S
C180 C184 1.524 . S
C181 C173 1.503 . S
C181 C180 1.370 . S
C181 C182 1.403 . S
C182 C181 1.403 . S
C182 C183 1.404 . S
C182 C185 1.539 . S
C183 C179 1.408 . S
C183 C182 1.404 . S
C183 H195 0.930 . S
C184 C180 1.524 . S
C184 H196 0.956 . S
C184 H197 0.961 . S
C184 H198 0.961 . S
C185 C182 1.539 . S
C185 H199 0.958 . S
C185 H200 0.961 . S
C185 H201 0.960 . S
H186 C170 0.931 . S
H187 C175 0.929 . S
H188 C176 0.960 . S
H189 C176 0.962 . S
H190 C176 0.960 . S
H191 C177 0.961 . S
H192 C177 0.961 . S
H193 C177 0.961 . S
H194 C178 0.931 . S
H195 C183 0.930 . S
H196 C184 0.956 . S
H197 C184 0.961 . S
H198 C184 0.961 . S
H199 C185 0.958 . S
H200 C185 0.961 . S
H201 C185 0.960 . S
C202 C203 1.391 . S
C202 C204 1.394 . S
C202 H218 0.931 . S
C203 C202 1.391 . S
C203 C207 1.376 . S
C204 C202 1.394 . S
C204 C205 1.369 . S
C204 C208 1.531 . S
C205 C204 1.369 . S
C205 C206 1.410 . S
C205 C213 1.503 . S
C206 C205 1.410 . S
C206 C207 1.392 . S
C206 C209 1.511 . S
C207 C203 1.376 . S
C207 C206 1.392 . S
C207 H219 0.929 . S
C208 C204 1.531 . S
C208 H220 0.960 . S
C208 H221 0.962 . S
C208 H222 0.960 . S
C209 C206 1.511 . S
C209 H223 0.961 . S
C209 H224 0.961 . S
C209 H225 0.961 . S
C210 C211 1.370 . S
C210 C212 1.363 . S
C210 H226 0.931 . S
C211 C210 1.370 . S
C211 C215 1.408 . S
C212 C210 1.363 . S
C212 C213 1.370 . S
C212 C216 1.524 . S
C213 C205 1.503 . S
C213 C212 1.370 . S
C213 C214 1.403 . S
C214 C213 1.403 . S
C214 C215 1.404 . S
C214 C217 1.539 . S
C215 C211 1.408 . S
C215 C214 1.404 . S
C215 H227 0.930 . S
C216 C212 1.524 . S
C216 H228 0.956 . S
C216 H229 0.961 . S
C216 H230 0.961 . S
C217 C214 1.539 . S
C217 H231 0.958 . S
C217 H232 0.961 . S
C217 H233 0.960 . S
H218 C202 0.931 . S
H219 C207 0.929 . S
H220 C208 0.960 . S
H221 C208 0.962 . S
H222 C208 0.960 . S
H223 C209 0.961 . S
H224 C209 0.961 . S
H225 C209 0.961 . S
H226 C210 0.931 . S
H227 C215 0.930 . S
H228 C216 0.956 . S
H229 C216 0.961 . S
H230 C216 0.961 . S
H231 C217 0.958 . S
H232 C217 0.961 . S
H233 C217 0.960 . S
C234 C235 1.391 . S
C234 C236 1.394 . S
C234 H250 0.931 . S
C235 C234 1.391 . S
C235 C239 1.376 . S
C236 C234 1.394 . S
C236 C237 1.369 . S
C236 C240 1.531 . S
C237 C236 1.369 . S
C237 C238 1.410 . S
C237 C245 1.503 . S
C238 C237 1.410 . S
C238 C239 1.392 . S
C238 C241 1.511 . S
C239 C235 1.376 . S
C239 C238 1.392 . S
C239 H251 0.929 . S
C240 C236 1.531 . S
C240 H252 0.960 . S
C240 H253 0.962 . S
C240 H254 0.960 . S
C241 C238 1.511 . S
C241 H255 0.961 . S
C241 H256 0.961 . S
C241 H257 0.961 . S
C242 C243 1.370 . S
C242 C244 1.363 . S
C242 H258 0.931 . S
C243 C242 1.370 . S
C243 C247 1.408 . S
C244 C242 1.363 . S
C244 C245 1.370 . S
C244 C248 1.524 . S
C245 C237 1.503 . S
C245 C244 1.370 . S
C245 C246 1.403 . S
C246 C245 1.403 . S
C246 C247 1.404 . S
C246 C249 1.539 . S
C247 C243 1.408 . S
C247 C246 1.404 . S
C247 H259 0.930 . S
C248 C244 1.524 . S
C248 H260 0.956 . S
C248 H261 0.961 . S
C248 H262 0.961 . S
C249 C246 1.539 . S
C249 H263 0.958 . S
C249 H264 0.961 . S
C249 H265 0.960 . S
H250 C234 0.931 . S
H251 C239 0.929 . S
H252 C240 0.960 . S
H253 C240 0.962 . S
H254 C240 0.960 . S
H255 C241 0.961 . S
H256 C241 0.961 . S
H257 C241 0.961 . S
H258 C242 0.931 . S
H259 C247 0.930 . S
H260 C248 0.956 . S
H261 C248 0.961 . S
H262 C248 0.961 . S
H263 C249 0.958 . S
H264 C249 0.961 . S
H265 C249 0.960 . S
C266 C267 1.391 . S
C266 C268 1.394 . S
C266 H282 0.931 . S
C267 C266 1.391 . S
C267 C271 1.376 . S
C268 C266 1.394 . S
C268 C269 1.369 . S
C268 C272 1.531 . S
C269 C268 1.369 . S
C269 C270 1.410 . S
C269 C277 1.503 . S
C270 C269 1.410 . S
C270 C271 1.392 . S
C270 C273 1.511 . S
C271 C267 1.376 . S
C271 C270 1.392 . S
C271 H283 0.929 . S
C272 C268 1.531 . S
C272 H284 0.960 . S
C272 H285 0.962 . S
C272 H286 0.960 . S
C273 C270 1.511 . S
C273 H287 0.961 . S
C273 H288 0.961 . S
C273 H289 0.961 . S
C274 C275 1.370 . S
C274 C276 1.363 . S
C274 H290 0.931 . S
C275 C274 1.370 . S
C275 C279 1.408 . S
C276 C274 1.363 . S
C276 C277 1.370 . S
C276 C280 1.524 . S
C277 C269 1.503 . S
C277 C276 1.370 . S
C277 C278 1.403 . S
C278 C277 1.403 . S
C278 C279 1.404 . S
C278 C281 1.539 . S
C279 C275 1.408 . S
C279 C278 1.404 . S
C279 H291 0.930 . S
C280 C276 1.524 . S
C280 H292 0.956 . S
C280 H293 0.961 . S
C280 H294 0.961 . S
C281 C278 1.539 . S
C281 H295 0.958 . S
C281 H296 0.961 . S
C281 H297 0.960 . S
H282 C266 0.931 . S
H283 C271 0.929 . S
H284 C272 0.960 . S
H285 C272 0.962 . S
H286 C272 0.960 . S
H287 C273 0.961 . S
H288 C273 0.961 . S
H289 C273 0.961 . S
H290 C274 0.931 . S
H291 C279 0.930 . S
H292 C280 0.956 . S
H293 C280 0.961 . S
H294 C280 0.961 . S
H295 C281 0.958 . S
H296 C281 0.961 . S
H297 C281 0.960 . S
C298 C299 1.391 . S
C298 C300 1.394 . S
C298 H314 0.931 . S
C299 C298 1.391 . S
C299 C303 1.376 . S
C300 C298 1.394 . S
C300 C301 1.369 1_554 S
C300 C304 1.531 1_554 S
C301 C300 1.369 1_556 S
C301 C302 1.410 1_556 S
C301 C309 1.503 . S
C302 C301 1.410 1_554 S
C302 C303 1.392 . S
C302 C305 1.511 1_554 S
C303 C299 1.376 . S
C303 C302 1.392 . S
C303 H315 0.929 . S
C304 C300 1.531 1_556 S
C304 H316 0.960 . S
C304 H317 0.962 . S
C304 H318 0.960 . S
C305 C302 1.511 1_556 S
C305 H319 0.961 . S
C305 H320 0.961 . S
C305 H321 0.961 . S
C306 C307 1.370 . S
C306 C308 1.363 . S
C306 H322 0.931 . S
C307 C306 1.370 . S
C307 C311 1.408 . S
C308 C306 1.363 . S
C308 C309 1.370 . S
C308 C312 1.524 . S
C309 C301 1.503 . S
C309 C308 1.370 . S
C309 C310 1.403 . S
C310 C309 1.403 . S
C310 C311 1.404 . S
C310 C313 1.539 . S
C311 C307 1.408 . S
C311 C310 1.404 . S
C311 H323 0.930 . S
C312 C308 1.524 . S
C312 H324 0.956 . S
C312 H325 0.961 . S
C312 H326 0.961 . S
C313 C310 1.539 . S
C313 H327 0.958 . S
C313 H328 0.961 . S
C313 H329 0.960 . S
H314 C298 0.931 . S
H315 C303 0.929 . S
H316 C304 0.960 . S
H317 C304 0.962 . S
H318 C304 0.960 . S
H319 C305 0.961 . S
H320 C305 0.961 . S
H321 C305 0.961 . S
H322 C306 0.931 . S
H323 C311 0.930 . S
H324 C312 0.956 . S
H325 C312 0.961 . S
H326 C312 0.961 . S
H327 C313 0.958 . S
H328 C313 0.961 . S
H329 C313 0.960 . S
C330 C331 1.391 . S
C330 C332 1.394 . S
C330 H346 0.931 . S
C331 C330 1.391 . S
C331 C335 1.376 . S
C332 C330 1.394 . S
C332 C333 1.369 . S
C332 C336 1.531 . S
C333 C332 1.369 . S
C333 C334 1.410 . S
C333 C341 1.503 1_545 S
C334 C333 1.410 . S
C334 C335 1.392 . S
C334 C337 1.511 . S
C335 C331 1.376 . S
C335 C334 1.392 . S
C335 H347 0.929 . S
C336 C332 1.531 . S
C336 H348 0.960 1_545 S
C336 H349 0.962 1_545 S
C336 H350 0.960 . S
C337 C334 1.511 . S
C337 H351 0.961 . S
C337 H352 0.961 . S
C337 H353 0.961 . S
C338 C339 1.370 . S
C338 C340 1.363 . S
C338 H354 0.931 . S
C339 C338 1.370 . S
C339 C343 1.408 . S
C340 C338 1.363 . S
C340 C341 1.370 . S
C340 C344 1.524 . S
C341 C333 1.503 1_565 S
C341 C340 1.370 . S
C341 C342 1.403 . S
C342 C341 1.403 . S
C342 C343 1.404 . S
C342 C345 1.539 . S
C343 C339 1.408 . S
C343 C342 1.404 . S
C343 H355 0.930 . S
C344 C340 1.524 . S
C344 H356 0.956 . S
C344 H357 0.961 . S
C344 H358 0.961 . S
C345 C342 1.539 . S
C345 H359 0.958 . S
C345 H360 0.961 . S
C345 H361 0.960 1_565 S
H346 C330 0.931 . S
H347 C335 0.929 . S
H348 C336 0.960 1_565 S
H349 C336 0.962 1_565 S
H350 C336 0.960 . S
H351 C337 0.961 . S
H352 C337 0.961 . S
H353 C337 0.961 . S
H354 C338 0.931 . S
H355 C343 0.930 . S
H356 C344 0.956 . S
H357 C344 0.961 . S
H358 C344 0.961 . S
H359 C345 0.958 . S
H360 C345 0.961 . S
H361 C345 0.960 1_545 S
C362 C363 1.391 . S
C362 C364 1.394 . S
C362 H378 0.931 . S
C363 C362 1.391 . S
C363 C367 1.376 . S
C364 C362 1.394 . S
C364 C365 1.369 . S
C364 C368 1.531 . S
C365 C364 1.369 . S
C365 C366 1.410 . S
C365 C373 1.503 . S
C366 C365 1.410 . S
C366 C367 1.392 . S
C366 C369 1.511 . S
C367 C363 1.376 . S
C367 C366 1.392 . S
C367 H379 0.929 . S
C368 C364 1.531 . S
C368 H380 0.960 . S
C368 H381 0.962 . S
C368 H382 0.960 . S
C369 C366 1.511 . S
C369 H383 0.961 . S
C369 H384 0.961 . S
C369 H385 0.961 . S
C370 C371 1.370 . S
C370 C372 1.363 . S
C370 H386 0.931 . S
C371 C370 1.370 . S
C371 C375 1.408 . S
C372 C370 1.363 . S
C372 C373 1.370 . S
C372 C376 1.524 . S
C373 C365 1.503 . S
C373 C372 1.370 . S
C373 C374 1.403 . S
C374 C373 1.403 . S
C374 C375 1.404 . S
C374 C377 1.539 . S
C375 C371 1.408 . S
C375 C374 1.404 . S
C375 H387 0.930 . S
C376 C372 1.524 . S
C376 H388 0.956 . S
C376 H389 0.961 . S
C376 H390 0.961 . S
C377 C374 1.539 . S
C377 H391 0.958 . S
C377 H392 0.961 . S
C377 H393 0.960 . S
H378 C362 0.931 . S
H379 C367 0.929 . S
H380 C368 0.960 . S
H381 C368 0.962 . S
H382 C368 0.960 . S
H383 C369 0.961 . S
H384 C369 0.961 . S
H385 C369 0.961 . S
H386 C370 0.931 . S
H387 C375 0.930 . S
H388 C376 0.956 . S
H389 C376 0.961 . S
H390 C376 0.961 . S
H391 C377 0.958 . S
H392 C377 0.961 . S
H393 C377 0.960 . S
C394 C395 1.391 . S
C394 C396 1.394 . S
C394 H410 0.931 . S
C395 C394 1.391 . S
C395 C399 1.376 . S
C396 C394 1.394 . S
C396 C397 1.369 . S
C396 C400 1.531 . S
C397 C396 1.369 . S
C397 C398 1.410 . S
C397 C405 1.503 1_655 S
C398 C397 1.410 . S
C398 C399 1.392 . S
C398 C401 1.511 . S
C399 C395 1.376 . S
C399 C398 1.392 . S
C399 H411 0.929 . S
C400 C396 1.531 . S
C400 H412 0.960 1_655 S
C400 H413 0.951 . S
C400 H414 0.960 1_556 S
C401 C398 1.511 . S
C401 H415 0.961 . S
C401 H416 0.961 . S
C401 H417 0.961 . S
C402 C403 1.370 . S
C402 C404 1.363 . S
C402 H418 0.931 . S
C403 C402 1.370 . S
C403 C407 1.408 . S
C404 C402 1.363 . S
C404 C405 1.370 . S
C404 C408 1.524 . S
C405 C397 1.503 1_455 S
C405 C404 1.370 . S
C405 C406 1.403 . S
C406 C405 1.403 . S
C406 C407 1.404 . S
C406 C409 1.539 . S
C407 C403 1.408 . S
C407 C406 1.404 . S
C407 H419 0.930 . S
C408 C404 1.524 . S
C408 H420 0.956 1_455 S
C408 H421 0.961 1_455 S
C408 H422 0.961 . S
C409 C406 1.539 . S
C409 H423 0.958 . S
C409 H424 0.961 . S
C409 H425 0.960 . S
H410 C394 0.931 . S
H411 C399 0.929 . S
H412 C400 0.960 1_455 S
H413 C400 0.951 . S
H414 C400 0.960 1_554 S
H415 C401 0.961 . S
H416 C401 0.961 . S
H417 C401 0.961 . S
H418 C402 0.931 . S
H419 C407 0.930 . S
H420 C408 0.956 1_655 S
H421 C408 0.961 1_655 S
H422 C408 0.961 . S
H423 C409 0.958 . S
H424 C409 0.961 . S
H425 C409 0.960 . S
C426 C427 1.391 1_556 S
C426 C428 1.394 . S
C426 H442 0.931 . S
C427 C426 1.391 1_554 S
C427 C431 1.376 . S
C428 C426 1.394 . S
C428 C429 1.369 1_556 S
C428 C432 1.531 . S
C429 C428 1.369 1_554 S
C429 C430 1.410 . S
C429 C437 1.503 1_564 S
C430 C429 1.410 . S
C430 C431 1.392 . S
C430 C433 1.511 . S
C431 C427 1.376 . S
C431 C430 1.392 . S
C431 H443 0.929 . S
C432 C428 1.531 . S
C432 H444 0.960 . S
C432 H445 0.962 . S
C432 H446 0.960 . S
C433 C430 1.511 . S
C433 H447 0.961 . S
C433 H448 0.961 1_565 S
C433 H449 0.961 1_565 S
C434 C435 1.370 . S
C434 C436 1.363 . S
C434 H450 0.931 . S
C435 C434 1.370 . S
C435 C439 1.408 1_556 S
C436 C434 1.363 . S
C436 C437 1.370 . S
C436 C440 1.524 . S
C437 C429 1.503 1_546 S
C437 C436 1.370 . S
C437 C438 1.403 1_556 S
C438 C437 1.403 1_554 S
C438 C439 1.404 . S
C438 C441 1.539 . S
C439 C435 1.408 1_554 S
C439 C438 1.404 . S
C439 H451 0.930 . S
C440 C436 1.524 . S
C440 H452 0.956 1_545 S
C440 H453 0.961 1_545 S
C440 H454 0.961 . S
C441 C438 1.539 . S
C441 H455 0.958 . S
C441 H456 0.961 . S
C441 H457 0.960 . S
H442 C426 0.931 . S
H443 C431 0.929 . S
H444 C432 0.960 . S
H445 C432 0.962 . S
H446 C432 0.960 . S
H447 C433 0.961 . S
H448 C433 0.961 1_545 S
H449 C433 0.961 1_545 S
H450 C434 0.931 . S
H451 C439 0.930 . S
H452 C440 0.956 1_565 S
H453 C440 0.961 1_565 S
H454 C440 0.961 . S
H455 C441 0.958 . S
H456 C441 0.961 . S
H457 C441 0.960 . S
C458 C459 1.391 . S
C458 C460 1.394 . S
C458 H474 0.931 . S
C459 C458 1.391 . S
C459 C463 1.376 . S
C460 C458 1.394 . S
C460 C461 1.369 . S
C460 C464 1.531 . S
C461 C460 1.369 . S
C461 C462 1.410 . S
C461 C469 1.503 . S
C462 C461 1.410 . S
C462 C463 1.392 . S
C462 C465 1.511 . S
C463 C459 1.376 . S
C463 C462 1.392 . S
C463 H475 0.929 . S
C464 C460 1.531 . S
C464 H476 0.960 . S
C464 H477 0.962 . S
C464 H478 0.968 . S
C465 C462 1.511 . S
C465 H479 0.961 . S
C465 H480 0.961 . S
C465 H481 0.961 . S
C466 C467 1.370 . S
C466 C468 1.363 . S
C466 H482 0.931 . S
C467 C466 1.370 . S
C467 C471 1.408 . S
C468 C466 1.363 . S
C468 C469 1.370 . S
C468 C472 1.524 . S
C469 C461 1.503 . S
C469 C468 1.370 . S
C469 C470 1.403 . S
C470 C469 1.403 . S
C470 C471 1.404 . S
C470 C473 1.539 . S
C471 C467 1.408 . S
C471 C470 1.404 . S
C471 H483 0.930 . S
C472 C468 1.524 . S
C472 H484 0.956 . S
C472 H485 0.961 . S
C472 H486 0.961 . S
C473 C470 1.539 . S
C473 H487 0.958 . S
C473 H488 0.961 . S
C473 H489 0.960 . S
H474 C458 0.931 . S
H475 C463 0.929 . S
H476 C464 0.960 . S
H477 C464 0.962 . S
H478 C464 0.968 . S
H479 C465 0.961 . S
H480 C465 0.961 . S
H481 C465 0.961 . S
H482 C466 0.931 . S
H483 C471 0.930 . S
H484 C472 0.956 . S
H485 C472 0.961 . S
H486 C472 0.961 . S
H487 C473 0.958 . S
H488 C473 0.961 . S
H489 C473 0.960 . S
C490 C491 1.391 . S
C490 C492 1.394 . S
C490 H506 0.931 . S
C491 C490 1.391 . S
C491 C495 1.376 . S
C492 C490 1.394 . S
C492 C493 1.369 . S
C492 C496 1.531 . S
C493 C492 1.369 . S
C493 C494 1.410 . S
C493 C501 1.503 1_655 S
C494 C493 1.410 . S
C494 C495 1.392 . S
C494 C497 1.511 . S
C495 C491 1.376 . S
C495 C494 1.392 . S
C495 H507 0.929 . S
C496 C492 1.531 . S
C496 H508 0.960 1_655 S
C496 H509 0.962 1_655 S
C496 H510 0.960 . S
C497 C494 1.511 . S
C497 H511 0.961 . S
C497 H512 0.961 . S
C497 H513 0.961 . S
C498 C499 1.370 . S
C498 C500 1.363 . S
C498 H514 0.931 . S
C499 C498 1.370 . S
C499 C503 1.408 . S
C500 C498 1.363 . S
C500 C501 1.370 . S
C500 C504 1.524 . S
C501 C493 1.503 1_455 S
C501 C500 1.370 . S
C501 C502 1.403 . S
C502 C501 1.403 . S
C502 C503 1.404 . S
C502 C505 1.539 . S
C503 C499 1.408 . S
C503 C502 1.404 . S
C503 H515 0.930 . S
C504 C500 1.524 . S
C504 H516 0.956 . S
C504 H517 0.961 1_455 S
C504 H518 0.961 . S
C505 C502 1.539 . S
C505 H519 0.958 . S
C505 H520 0.961 . S
C505 H521 0.960 1_455 S
H506 C490 0.931 . S
H507 C495 0.929 . S
H508 C496 0.960 1_455 S
H509 C496 0.962 1_455 S
H510 C496 0.960 . S
H511 C497 0.961 . S
H512 C497 0.961 . S
H513 C497 0.961 . S
H514 C498 0.931 . S
H515 C503 0.930 . S
H516 C504 0.956 . S
H517 C504 0.961 1_655 S
H518 C504 0.961 . S
H519 C505 0.958 . S
H520 C505 0.961 . S
H521 C505 0.960 1_655 S
C522 C523 1.391 . S
C522 C524 1.394 . S
C522 H538 0.931 . S
C523 C522 1.391 . S
C523 C527 1.376 . S
C524 C522 1.394 . S
C524 C525 1.369 . S
C524 C528 1.531 . S
C525 C524 1.369 . S
C525 C526 1.410 . S
C525 C533 1.503 . S
C526 C525 1.410 . S
C526 C527 1.392 . S
C526 C529 1.511 . S
C527 C523 1.376 . S
C527 C526 1.392 . S
C527 H539 0.929 . S
C528 C524 1.531 . S
C528 H540 0.960 . S
C528 H541 0.962 . S
C528 H542 0.960 . S
C529 C526 1.511 . S
C529 H543 0.961 . S
C529 H544 0.961 . S
C529 H545 0.961 . S
C530 C531 1.370 . S
C530 C532 1.363 . S
C530 H546 0.931 . S
C531 C530 1.370 . S
C531 C535 1.408 . S
C532 C530 1.363 . S
C532 C533 1.370 . S
C532 C536 1.524 . S
C533 C525 1.503 . S
C533 C532 1.370 . S
C533 C534 1.403 . S
C534 C533 1.403 . S
C534 C535 1.404 . S
C534 C537 1.539 . S
C535 C531 1.408 . S
C535 C534 1.404 . S
C535 H547 0.930 . S
C536 C532 1.524 . S
C536 H548 0.956 . S
C536 H549 0.961 . S
C536 H550 0.961 . S
C537 C534 1.539 . S
C537 H551 0.958 . S
C537 H552 0.961 . S
C537 H553 0.960 . S
H538 C522 0.931 . S
H539 C527 0.929 . S
H540 C528 0.960 . S
H541 C528 0.962 . S
H542 C528 0.960 . S
H543 C529 0.961 . S
H544 C529 0.961 . S
H545 C529 0.961 . S
H546 C530 0.931 . S
H547 C535 0.930 . S
H548 C536 0.956 . S
H549 C536 0.961 . S
H550 C536 0.961 . S
H551 C537 0.958 . S
H552 C537 0.961 . S
H553 C537 0.960 . S
C554 C555 1.391 . S
C554 C556 1.394 . S
C554 H570 0.931 . S
C555 C554 1.391 . S
C555 C559 1.376 . S
C556 C554 1.394 . S
C556 C557 1.369 . S
C556 C560 1.531 . S
C557 C556 1.369 . S
C557 C558 1.410 . S
C557 C565 1.503 . S
C558 C557 1.410 . S
C558 C559 1.392 . S
C558 C561 1.511 . S
C559 C555 1.376 . S
C559 C558 1.392 . S
C559 H571 0.929 . S
C560 C556 1.531 . S
C560 H572 0.960 . S
C560 H573 0.962 . S
C560 H574 0.960 . S
C561 C558 1.511 . S
C561 H575 0.961 . S
C561 H576 0.961 . S
C561 H577 0.961 . S
C562 C563 1.370 . S
C562 C564 1.363 . S
C562 H578 0.931 . S
C563 C562 1.370 . S
C563 C567 1.408 . S
C564 C562 1.363 . S
C564 C565 1.370 . S
C564 C568 1.524 . S
C565 C557 1.503 . S
C565 C564 1.370 . S
C565 C566 1.403 . S
C566 C565 1.403 . S
C566 C567 1.404 . S
C566 C569 1.539 . S
C567 C563 1.408 . S
C567 C566 1.404 . S
C567 H579 0.930 . S
C568 C564 1.524 . S
C568 H580 0.956 . S
C568 H581 0.961 . S
C568 H582 0.961 . S
C569 C566 1.539 . S
C569 H583 0.958 . S
C569 H584 0.961 . S
C569 H585 0.960 . S
H570 C554 0.931 . S
H571 C559 0.929 . S
H572 C560 0.960 . S
H573 C560 0.962 . S
H574 C560 0.960 . S
H575 C561 0.961 . S
H576 C561 0.961 . S
H577 C561 0.961 . S
H578 C562 0.931 . S
H579 C567 0.930 . S
H580 C568 0.956 . S
H581 C568 0.961 . S
H582 C568 0.961 . S
H583 C569 0.958 . S
H584 C569 0.961 . S
H585 C569 0.960 . S
C586 C587 1.391 . S
C586 C588 1.394 . S
C586 H602 0.931 . S
C587 C586 1.391 . S
C587 C591 1.376 . S
C588 C586 1.394 . S
C588 C589 1.369 . S
C588 C592 1.531 . S
C589 C588 1.369 . S
C589 C590 1.410 . S
C589 C597 1.503 . S
C590 C589 1.410 . S
C590 C591 1.392 . S
C590 C593 1.511 . S
C591 C587 1.376 . S
C591 C590 1.392 . S
C591 H603 0.929 . S
C592 C588 1.531 . S
C592 H604 0.960 . S
C592 H605 0.962 . S
C592 H606 0.960 . S
C593 C590 1.511 . S
C593 H607 0.961 . S
C593 H608 0.961 . S
C593 H609 0.961 . S
C594 C595 1.370 . S
C594 C596 1.363 . S
C594 H610 0.931 . S
C595 C594 1.370 . S
C595 C599 1.408 . S
C596 C594 1.363 . S
C596 C597 1.370 . S
C596 C600 1.524 . S
C597 C589 1.503 . S
C597 C596 1.370 . S
C597 C598 1.403 . S
C598 C597 1.403 . S
C598 C599 1.404 . S
C598 C601 1.539 . S
C599 C595 1.408 . S
C599 C598 1.404 . S
C599 H611 0.930 . S
C600 C596 1.524 . S
C600 H612 0.956 . S
C600 H613 0.961 . S
C600 H614 0.961 . S
C601 C598 1.539 . S
C601 H615 0.958 . S
C601 H616 0.961 . S
C601 H617 0.960 . S
H602 C586 0.931 . S
H603 C591 0.929 . S
H604 C592 0.960 . S
H605 C592 0.962 . S
H606 C592 0.960 . S
H607 C593 0.961 . S
H608 C593 0.961 . S
H609 C593 0.961 . S
H610 C594 0.931 . S
H611 C599 0.930 . S
H612 C600 0.956 . S
H613 C600 0.961 . S
H614 C600 0.961 . S
H615 C601 0.958 . S
H616 C601 0.961 . S
H617 C601 0.960 . S
C618 C619 1.391 . S
C618 C620 1.394 . S
C618 H634 0.931 . S
C619 C618 1.391 . S
C619 C623 1.376 . S
C620 C618 1.394 . S
C620 C621 1.369 . S
C620 C624 1.531 . S
C621 C620 1.369 . S
C621 C622 1.410 . S
C621 C629 1.503 . S
C622 C621 1.410 . S
C622 C623 1.392 . S
C622 C625 1.511 . S
C623 C619 1.376 . S
C623 C622 1.392 . S
C623 H635 0.929 . S
C624 C620 1.531 . S
C624 H636 0.960 . S
C624 H637 0.962 . S
C624 H638 0.960 . S
C625 C622 1.511 . S
C625 H639 0.961 . S
C625 H640 0.961 . S
C625 H641 0.961 . S
C626 C627 1.370 . S
C626 C628 1.363 . S
C626 H642 0.931 . S
C627 C626 1.370 . S
C627 C631 1.408 . S
C628 C626 1.363 . S
C628 C629 1.370 . S
C628 C632 1.524 1_556 S
C629 C621 1.503 . S
C629 C628 1.370 . S
C629 C630 1.403 . S
C630 C629 1.403 . S
C630 C631 1.404 . S
C630 C633 1.539 . S
C631 C627 1.408 . S
C631 C630 1.404 . S
C631 H643 0.930 . S
C632 C628 1.524 1_554 S
C632 H644 0.956 . S
C632 H645 0.961 . S
C632 H646 0.961 . S
C633 C630 1.539 . S
C633 H647 0.958 . S
C633 H648 0.961 . S
C633 H649 0.960 . S
H634 C618 0.931 . S
H635 C623 0.929 . S
H636 C624 0.960 . S
H637 C624 0.962 . S
H638 C624 0.960 . S
H639 C625 0.961 . S
H640 C625 0.961 . S
H641 C625 0.961 . S
H642 C626 0.931 . S
H643 C631 0.930 . S
H644 C632 0.956 . S
H645 C632 0.961 . S
H646 C632 0.961 . S
H647 C633 0.958 . S
H648 C633 0.961 . S
H649 C633 0.960 . S
C650 C651 1.391 . S
C650 C652 1.394 . S
C650 H666 0.931 . S
C651 C650 1.391 . S
C651 C655 1.376 . S
C652 C650 1.394 . S
C652 C653 1.369 . S
C652 C656 1.531 . S
C653 C652 1.369 . S
C653 C654 1.410 . S
C653 C661 1.503 . S
C654 C653 1.410 . S
C654 C655 1.392 . S
C654 C657 1.511 1_554 S
C655 C651 1.376 . S
C655 C654 1.392 . S
C655 H667 0.929 . S
C656 C652 1.531 . S
C656 H668 0.960 . S
C656 H669 0.962 . S
C656 H670 0.960 . S
C657 C654 1.511 1_556 S
C657 H671 0.961 . S
C657 H672 0.961 . S
C657 H673 0.961 . S
C658 C659 1.370 1_554 S
C658 C660 1.363 . S
C658 H674 0.931 . S
C659 C658 1.370 1_556 S
C659 C663 1.408 . S
C660 C658 1.363 . S
C660 C661 1.370 . S
C660 C664 1.524 . S
C661 C653 1.503 . S
C661 C660 1.370 . S
C661 C662 1.403 . S
C662 C661 1.403 . S
C662 C663 1.404 1_554 S
C662 C665 1.539 1_554 S
C663 C659 1.408 . S
C663 C662 1.404 1_556 S
C663 H675 0.930 . S
C664 C660 1.524 . S
C664 H676 0.956 . S
C664 H677 0.961 . S
C664 H678 0.961 . S
C665 C662 1.539 1_556 S
C665 H679 0.958 . S
C665 H680 0.961 . S
C665 H681 0.960 . S
H666 C650 0.931 . S
H667 C655 0.929 . S
H668 C656 0.960 . S
H669 C656 0.962 . S
H670 C656 0.960 . S
H671 C657 0.961 . S
H672 C657 0.961 . S
H673 C657 0.961 . S
H674 C658 0.931 . S
H675 C663 0.930 . S
H676 C664 0.956 . S
H677 C664 0.961 . S
H678 C664 0.961 . S
H679 C665 0.958 . S
H680 C665 0.961 . S
H681 C665 0.960 . S
C682 C683 1.391 . S
C682 C684 1.394 . S
C682 H698 0.931 . S
C683 C682 1.391 . S
C683 C687 1.376 . S
C684 C682 1.394 . S
C684 C685 1.369 . S
C684 C688 1.531 . S
C685 C684 1.369 . S
C685 C686 1.410 . S
C685 C693 1.503 . S
C686 C685 1.410 . S
C686 C687 1.392 . S
C686 C689 1.511 . S
C687 C683 1.376 . S
C687 C686 1.392 . S
C687 H699 0.929 . S
C688 C684 1.531 . S
C688 H700 0.960 . S
C688 H701 0.962 . S
C688 H702 0.960 . S
C689 C686 1.511 . S
C689 H703 0.961 . S
C689 H704 0.961 . S
C689 H705 0.961 . S
C690 C691 1.370 . S
C690 C692 1.363 . S
C690 H706 0.931 . S
C691 C690 1.370 . S
C691 C695 1.408 . S
C692 C690 1.363 . S
C692 C693 1.370 . S
C692 C696 1.524 . S
C693 C685 1.503 . S
C693 C692 1.370 . S
C693 C694 1.403 . S
C694 C693 1.403 . S
C694 C695 1.404 . S
C694 C697 1.539 . S
C695 C691 1.408 . S
C695 C694 1.404 . S
C695 H707 0.930 . S
C696 C692 1.524 . S
C696 H708 0.956 . S
C696 H709 0.961 . S
C696 H710 0.961 . S
C697 C694 1.539 . S
C697 H711 0.958 . S
C697 H712 0.961 . S
C697 H713 0.960 . S
H698 C682 0.931 . S
H699 C687 0.929 . S
H700 C688 0.960 . S
H701 C688 0.962 . S
H702 C688 0.960 . S
H703 C689 0.961 . S
H704 C689 0.961 . S
H705 C689 0.961 . S
H706 C690 0.931 . S
H707 C695 0.930 . S
H708 C696 0.956 . S
H709 C696 0.961 . S
H710 C696 0.961 . S
H711 C697 0.958 . S
H712 C697 0.961 . S
H713 C697 0.960 . S
C139 C17 1.278 . S
C147 C16 1.275 . S
C171 C40 1.277 . S
C179 C39 1.272 1_554 S
C203 C62 1.277 . S
C211 C63 1.276 . S
C235 C85 1.262 . S
C243 C86 1.280 . S
C267 C108 1.269 . S
C275 C109 1.279 1_556 S
C299 C132 1.266 . S
C307 C131 1.280 . S
C331 C20 1.493 . S
C339 C136 1.468 . S
C363 C21 1.484 . S
C371 C43 1.493 . S
C395 C66 1.489 . S
C403 C44 1.474 . S
C427 C89 1.484 . S
C435 C67 1.462 . S
C459 C112 1.485 . S
C467 C90 1.457 . S
C491 C113 1.483 . S
C499 C135 1.493 . S
C523 C19 1.639 . S
C531 C110 1.659 . S
C555 C42 1.647 . S
C563 C133 1.658 . S
C587 C65 1.616 . S
C595 C18 1.661 . S
C619 C88 1.640 1_556 S
C627 C41 1.659 . S
C651 C111 1.622 . S
C659 C64 1.661 . S
C683 C87 1.660 . S
C691 C134 1.627 . S
