# Generated by pormake.
# Topology unv, (4)-cn, num edge types: 1
# Building blocks:
#     Node 0, Type 0, BuildingBlock: NAHDIM_clean_sbu_0, # of connection points: 4
#     Node 1, Type 0, BuildingBlock: NAHDIM_clean_sbu_0, # of connection points: 4
#     Node 2, Type 0, BuildingBlock: NAHDIM_clean_sbu_0, # of connection points: 4
#     Node 3, Type 0, BuildingBlock: NAHDIM_clean_sbu_0, # of connection points: 4
#     Node 4, Type 0, BuildingBlock: NAHDIM_clean_sbu_0, # of connection points: 4
#     Node 5, Type 0, BuildingBlock: NAHDIM_clean_sbu_0, # of connection points: 4
#     Node 6, Type 0, BuildingBlock: NAHDIM_clean_sbu_0, # of connection points: 4
#     Node 7, Type 0, BuildingBlock: NAHDIM_clean_sbu_0, # of connection points: 4
#     Node 8, Type 0, BuildingBlock: NAHDIM_clean_sbu_0, # of connection points: 4
#     Node 9, Type 0, BuildingBlock: NAHDIM_clean_sbu_0, # of connection points: 4
#     Node 10, Type 0, BuildingBlock: NAHDIM_clean_sbu_0, # of connection points: 4
#     Node 11, Type 0, BuildingBlock: NAHDIM_clean_sbu_0, # of connection points: 4
#     Node 12, Type 0, BuildingBlock: NAHDIM_clean_sbu_0, # of connection points: 4
#     Node 13, Type 0, BuildingBlock: NAHDIM_clean_sbu_0, # of connection points: 4
#     Node 14, Type 0, BuildingBlock: NAHDIM_clean_sbu_0, # of connection points: 4
#     Node 15, Type 0, BuildingBlock: NAHDIM_clean_sbu_0, # of connection points: 4
#     Node 16, Type 0, BuildingBlock: NAHDIM_clean_sbu_0, # of connection points: 4
#     Node 17, Type 0, BuildingBlock: NAHDIM_clean_sbu_0, # of connection points: 4
#     Node 18, Type 0, BuildingBlock: NAHDIM_clean_sbu_0, # of connection points: 4
#     Node 19, Type 0, BuildingBlock: NAHDIM_clean_sbu_0, # of connection points: 4
#     Node 20, Type 0, BuildingBlock: NAHDIM_clean_sbu_0, # of connection points: 4
#     Node 21, Type 0, BuildingBlock: NAHDIM_clean_sbu_0, # of connection points: 4
#     Node 22, Type 0, BuildingBlock: NAHDIM_clean_sbu_0, # of connection points: 4
#     Node 23, Type 0, BuildingBlock: NAHDIM_clean_sbu_0, # of connection points: 4
#     Edge 24, Type (0, 0), BuildingBlock: TEMPAE_clean_linker_10, # of connection points: 2
#     Edge 25, Type (0, 0), BuildingBlock: TEMPAE_clean_linker_10, # of connection points: 2
#     Edge 26, Type (0, 0), BuildingBlock: TEMPAE_clean_linker_10, # of connection points: 2
#     Edge 27, Type (0, 0), BuildingBlock: TEMPAE_clean_linker_10, # of connection points: 2
#     Edge 28, Type (0, 0), BuildingBlock: TEMPAE_clean_linker_10, # of connection points: 2
#     Edge 29, Type (0, 0), BuildingBlock: TEMPAE_clean_linker_10, # of connection points: 2
#     Edge 30, Type (0, 0), BuildingBlock: TEMPAE_clean_linker_10, # of connection points: 2
#     Edge 31, Type (0, 0), BuildingBlock: TEMPAE_clean_linker_10, # of connection points: 2
#     Edge 32, Type (0, 0), BuildingBlock: TEMPAE_clean_linker_10, # of connection points: 2
#     Edge 33, Type (0, 0), BuildingBlock: TEMPAE_clean_linker_10, # of connection points: 2
#     Edge 34, Type (0, 0), BuildingBlock: TEMPAE_clean_linker_10, # of connection points: 2
#     Edge 35, Type (0, 0), BuildingBlock: TEMPAE_clean_linker_10, # of connection points: 2
#     Edge 36, Type (0, 0), BuildingBlock: TEMPAE_clean_linker_10, # of connection points: 2
#     Edge 37, Type (0, 0), BuildingBlock: TEMPAE_clean_linker_10, # of connection points: 2
#     Edge 38, Type (0, 0), BuildingBlock: TEMPAE_clean_linker_10, # of connection points: 2
#     Edge 39, Type (0, 0), BuildingBlock: TEMPAE_clean_linker_10, # of connection points: 2
#     Edge 40, Type (0, 0), BuildingBlock: TEMPAE_clean_linker_10, # of connection points: 2
#     Edge 41, Type (0, 0), BuildingBlock: TEMPAE_clean_linker_10, # of connection points: 2
#     Edge 42, Type (0, 0), BuildingBlock: TEMPAE_clean_linker_10, # of connection points: 2
#     Edge 43, Type (0, 0), BuildingBlock: TEMPAE_clean_linker_10, # of connection points: 2
#     Edge 44, Type (0, 0), BuildingBlock: TEMPAE_clean_linker_10, # of connection points: 2
#     Edge 45, Type (0, 0), BuildingBlock: TEMPAE_clean_linker_10, # of connection points: 2
#     Edge 46, Type (0, 0), BuildingBlock: TEMPAE_clean_linker_10, # of connection points: 2
#     Edge 47, Type (0, 0), BuildingBlock: TEMPAE_clean_linker_10, # of connection points: 2
#     Edge 48, Type (0, 0), BuildingBlock: TEMPAE_clean_linker_10, # of connection points: 2
#     Edge 49, Type (0, 0), BuildingBlock: TEMPAE_clean_linker_10, # of connection points: 2
#     Edge 50, Type (0, 0), BuildingBlock: TEMPAE_clean_linker_10, # of connection points: 2
#     Edge 51, Type (0, 0), BuildingBlock: TEMPAE_clean_linker_10, # of connection points: 2
#     Edge 52, Type (0, 0), BuildingBlock: TEMPAE_clean_linker_10, # of connection points: 2
#     Edge 53, Type (0, 0), BuildingBlock: TEMPAE_clean_linker_10, # of connection points: 2
#     Edge 54, Type (0, 0), BuildingBlock: TEMPAE_clean_linker_10, # of connection points: 2
#     Edge 55, Type (0, 0), BuildingBlock: TEMPAE_clean_linker_10, # of connection points: 2
#     Edge 56, Type (0, 0), BuildingBlock: TEMPAE_clean_linker_10, # of connection points: 2
#     Edge 57, Type (0, 0), BuildingBlock: TEMPAE_clean_linker_10, # of connection points: 2
#     Edge 58, Type (0, 0), BuildingBlock: TEMPAE_clean_linker_10, # of connection points: 2
#     Edge 59, Type (0, 0), BuildingBlock: TEMPAE_clean_linker_10, # of connection points: 2
#     Edge 60, Type (0, 0), BuildingBlock: TEMPAE_clean_linker_10, # of connection points: 2
#     Edge 61, Type (0, 0), BuildingBlock: TEMPAE_clean_linker_10, # of connection points: 2
#     Edge 62, Type (0, 0), BuildingBlock: TEMPAE_clean_linker_10, # of connection points: 2
#     Edge 63, Type (0, 0), BuildingBlock: TEMPAE_clean_linker_10, # of connection points: 2
#     Edge 64, Type (0, 0), BuildingBlock: TEMPAE_clean_linker_10, # of connection points: 2
#     Edge 65, Type (0, 0), BuildingBlock: TEMPAE_clean_linker_10, # of connection points: 2
#     Edge 66, Type (0, 0), BuildingBlock: TEMPAE_clean_linker_10, # of connection points: 2
#     Edge 67, Type (0, 0), BuildingBlock: TEMPAE_clean_linker_10, # of connection points: 2
#     Edge 68, Type (0, 0), BuildingBlock: TEMPAE_clean_linker_10, # of connection points: 2
#     Edge 69, Type (0, 0), BuildingBlock: TEMPAE_clean_linker_10, # of connection points: 2
#     Edge 70, Type (0, 0), BuildingBlock: TEMPAE_clean_linker_10, # of connection points: 2
#     Edge 71, Type (0, 0), BuildingBlock: TEMPAE_clean_linker_10, # of connection points: 2
# Relax obj value: 0.371
# Max RMSD: 0.323
# Mean RMSD: 0.307
data_MOF--net-unv--node1-NAHDIM_clean_sbu_0--edge1-TEMPAE_clean_linker_10
_symmetry_space_group_name_H-M    P1
_symmetry_Int_Tables_number       1
_symmetry_cell_setting            triclinic
loop_
_symmetry_equiv_pos_as_xyz
'x, y, z'
_cell_length_a     48.462586
_cell_length_b     48.485005
_cell_length_c     48.512065
_cell_angle_alpha  90.013141
_cell_angle_beta   90.013521
_cell_angle_gamma 89.999912
loop_
_atom_site_label
_atom_site_type_symbol
_atom_site_fract_x
_atom_site_fract_y
_atom_site_fract_z
_atom_type_partial_charge
C0 C 0.02737 0.13848 0.3518 0.0
O1 O 0.05401 0.13571 0.35599 0.0
O2 O 0.03855 0.06164 0.32038 0.0
Zn3 Zn 0.02795 0.0791 0.35655 0.0
O4 O 0.06027 0.07907 0.3828 0.0
C5 C 0.98712 0.03545 0.36171 0.0
O6 O 0.99054 0.03305 0.33495 0.0
O7 O 0.01227 0.11707 0.35106 0.0
C8 C 0.06849 0.05514 0.38973 0.0
O9 O 0.0567 0.03356 0.37832 0.0
C10 C 0.06313 0.05724 0.3124 0.0
O11 O 0.08381 0.06639 0.32733 0.0
O12 O -0.00037 0.0546 0.37453 0.0
C13 C 0.94455 0.32918 0.34362 0.0
O14 O 0.94804 0.34506 0.32195 0.0
O15 O 0.901 0.39174 0.33445 0.0
Zn16 Zn 0.9245 0.37971 0.36657 0.0
O17 O 0.90656 0.38994 0.40273 0.0
C18 C 0.96186 0.42396 0.35167 0.0
O19 O 0.94084 0.43205 0.33661 0.0
O20 O 0.93383 0.33938 0.36524 0.0
C21 C 0.90077 0.41532 0.40599 0.0
O22 O 0.90521 0.43244 0.38548 0.0
C23 C 0.87577 0.39886 0.33551 0.0
O24 O 0.86182 0.39496 0.3584 0.0
O25 O 0.96005 0.40159 0.36526 0.0
C26 C 0.02153 0.82733 0.18119 0.0
O27 O 0.02568 0.84666 0.19972 0.0
O28 O 0.065 0.88794 0.17407 0.0
Zn29 Zn 0.04386 0.86837 0.14433 0.0
O30 O 0.06769 0.86588 0.11019 0.0
C31 C 0.00124 0.90842 0.15533 0.0
O32 O 0.00785 0.90335 0.1811 0.0
O33 O 0.0286 0.83174 0.15634 0.0
C34 C 0.05698 0.87185 0.08702 0.0
O35 O 0.03025 0.87611 0.08559 0.0
C36 C 0.07342 0.91171 0.16682 0.0
O37 O 0.0713 0.91877 0.14075 0.0
O38 O 0.0126 0.89446 0.13625 0.0
C39 C 0.91014 0.6556 0.20875 0.0
O40 O 0.88345 0.65651 0.20404 0.0
O41 O 0.88442 0.57659 0.21973 0.0
Zn42 Zn 0.90449 0.59877 0.19097 0.0
O43 O 0.87977 0.60811 0.15899 0.0
C44 C 0.94619 0.55551 0.18831 0.0
O45 O 0.93996 0.55155 0.21437 0.0
O46 O 0.92278 0.63282 0.20594 0.0
C47 C 0.88727 0.62606 0.14142 0.0
O48 O 0.91001 0.64014 0.14584 0.0
C49 C 0.86695 0.55851 0.21215 0.0
O50 O 0.8605 0.55674 0.1859 0.0
O51 O 0.93408 0.57455 0.17498 0.0
C52 C 0.34991 0.05174 0.14387 0.0
O53 O 0.33453 0.04349 0.12313 0.0
O54 O 0.33325 0.09817 0.08699 0.0
Zn55 Zn 0.37013 0.08538 0.10126 0.0
O56 O 0.39984 0.11424 0.09684 0.0
C57 C 0.36624 0.04189 0.05981 0.0
O58 O 0.34036 0.04975 0.05805 0.0
O59 O 0.36707 0.07119 0.13996 0.0
C60 C 0.4074 0.11804 0.07201 0.0
O61 O 0.39447 0.10464 0.05231 0.0
C62 C 0.3288 0.11987 0.07298 0.0
O63 O 0.34848 0.13828 0.07029 0.0
O64 O 0.38204 0.05343 0.0773 0.0
C65 C 0.67969 0.44203 0.14394 0.0
O66 O 0.69433 0.42799 0.12598 0.0
O67 O 0.66851 0.43564 0.07106 0.0
Zn68 Zn 0.64034 0.44852 0.09876 0.0
O69 O 0.60681 0.42327 0.0982 0.0
C70 C 0.64605 0.50133 0.07218 0.0
O71 O 0.67235 0.49472 0.07225 0.0
O72 O 0.65649 0.45196 0.13674 0.0
C73 C 0.58614 0.43024 0.08356 0.0
O74 O 0.58674 0.45381 0.07025 0.0
C75 C 0.66067 0.4347 0.04605 0.0
O76 O 0.63437 0.43806 0.04051 0.0
O77 O 0.62905 0.48602 0.08501 0.0
C78 C 0.36044 0.94261 0.32015 0.0
O79 O 0.37862 0.92258 0.32182 0.0
O80 O 0.32511 0.90992 0.39304 0.0
Zn81 Zn 0.35608 0.93366 0.37881 0.0
O82 O 0.39265 0.91373 0.37901 0.0
C83 C 0.33947 0.97204 0.42154 0.0
O84 O 0.3149 0.96156 0.41698 0.0
O85 O 0.34773 0.95015 0.34178 0.0
C86 C 0.40373 0.91021 0.4025 0.0
O87 O 0.39037 0.91845 0.4246 0.0
C88 C 0.32853 0.88754 0.40627 0.0
O89 O 0.35271 0.87536 0.40564 0.0
O90 O 0.35964 0.9644 0.40659 0.0
C91 C 0.71168 0.47453 0.34321 0.0
O92 O 0.72444 0.49652 0.3526 0.0
O93 O 0.7096 0.49941 0.41428 0.0
Zn94 Zn 0.67954 0.47977 0.39338 0.0
O95 O 0.64851 0.50642 0.38587 0.0
C96 C 0.67215 0.44512 0.44163 0.0
O97 O 0.69591 0.45575 0.44918 0.0
O98 O 0.6927 0.46363 0.35764 0.0
C99 C 0.63578 0.51536 0.40697 0.0
O100 O 0.64418 0.50756 0.43152 0.0
C101 C 0.71162 0.52554 0.41513 0.0
O102 O 0.69512 0.54062 0.39983 0.0
O103 O 0.66264 0.45075 0.41786 0.0
C104 C 0.12364 0.35969 0.01488 0.0
O105 O 0.10482 0.34182 0.00703 0.0
O106 O 0.05626 0.35145 0.0412 0.0
Zn107 Zn 0.07548 0.38746 0.03392 0.0
O108 O 0.0675 0.41294 0.06577 0.0
C109 C 0.04101 0.39247 0.98525 0.0
O110 O 0.03862 0.3656 0.98779 0.0
O111 O 0.11603 0.38154 0.02724 0.0
C112 C 0.04171 0.41599 0.06965 0.0
O113 O 0.0245 0.40229 0.0538 0.0
C114 C 0.0524 0.34153 0.06513 0.0
O115 O 0.06282 0.3543 0.08663 0.0
O116 O 0.05728 0.4054 0.00124 0.0
C117 C 0.16223 0.64198 0.41009 0.0
O118 O 0.14647 0.65075 0.38987 0.0
O119 O 0.08634 0.65023 0.42063 0.0
Zn120 Zn 0.11129 0.61963 0.43348 0.0
O121 O 0.10069 0.58429 0.41361 0.0
C122 C 0.09593 0.63705 0.48809 0.0
O123 O 0.10141 0.66167 0.47816 0.0
O124 O 0.15148 0.62858 0.42987 0.0
C125 C 0.09192 0.56394 0.42767 0.0
O126 O 0.09243 0.56539 0.45468 0.0
C127 C 0.06085 0.64462 0.42356 0.0
O128 O 0.05389 0.61948 0.43093 0.0
O129 O 0.10149 0.61599 0.47351 0.0
C130 C 0.85981 0.81202 0.52534 0.0
O131 O 0.86949 0.79143 0.51064 0.0
O132 O 0.92886 0.80093 0.49964 0.0
Zn133 Zn 0.91391 0.83605 0.51595 0.0
O134 O 0.91485 0.86579 0.48716 0.0
C135 C 0.95871 0.83296 0.55521 0.0
O136 O 0.95817 0.80657 0.54908 0.0
O137 O 0.87538 0.83244 0.53058 0.0
C138 C 0.9386 0.87219 0.47808 0.0
O139 O 0.96017 0.85844 0.48707 0.0
C140 C 0.92904 0.79538 0.47403 0.0
O141 O 0.91666 0.81214 0.45672 0.0
O142 O 0.94028 0.84873 0.54528 0.0
C143 C 0.36605 0.66628 0.43178 0.0
O144 O 0.37545 0.6864 0.44729 0.0
O145 O 0.43358 0.67654 0.45989 0.0
Zn146 Zn 0.41764 0.64042 0.44685 0.0
O147 O 0.4125 0.61485 0.47908 0.0
C148 C 0.46716 0.63369 0.41394 0.0
O149 O 0.46989 0.66031 0.41823 0.0
O150 O 0.38103 0.64512 0.42788 0.0
C151 C 0.43421 0.60656 0.49121 0.0
O152 O 0.45821 0.61621 0.48308 0.0
C153 C 0.43229 0.68514 0.48461 0.0
O154 O 0.41847 0.67077 0.50294 0.0
O155 O 0.44552 0.62156 0.42245 0.0
C156 C 0.52595 0.64569 0.85086 0.0
O157 O 0.55107 0.63623 0.84704 0.0
O158 O 0.5291 0.57146 0.82759 0.0
Zn159 Zn 0.5166 0.58903 0.86338 0.0
O160 O 0.54536 0.58565 0.89342 0.0
C161 C 0.47108 0.55024 0.86161 0.0
O162 O 0.47723 0.54904 0.83527 0.0
O163 O 0.50701 0.62894 0.85778 0.0
C164 C 0.54664 0.56277 0.90619 0.0
O165 O 0.53031 0.54251 0.8986 0.0
C166 C 0.54693 0.55225 0.82632 0.0
O167 O 0.56065 0.54542 0.84862 0.0
O168 O 0.48355 0.56759 0.87684 0.0
C169 C 0.48852 0.85038 0.84429 0.0
O170 O 0.48268 0.86314 0.82112 0.0
O171 O 0.46227 0.91827 0.83334 0.0
Zn172 Zn 0.4826 0.90513 0.86723 0.0
O173 O 0.4604 0.91619 0.90056 0.0
C174 C 0.52595 0.94396 0.85304 0.0
O175 O 0.5128 0.94522 0.8294 0.0
O176 O 0.48958 0.8642 0.86655 0.0
C177 C 0.4578 0.94215 0.90335 0.0
O178 O 0.46876 0.9584 0.88464 0.0
C179 C 0.4365 0.9232 0.83316 0.0
O180 O 0.42174 0.91748 0.85514 0.0
O181 O 0.51816 0.9265 0.87097 0.0
C182 C 0.48817 0.34167 0.63756 0.0
O183 O 0.51394 0.34752 0.64365 0.0
O184 O 0.50107 0.41527 0.66059 0.0
Zn185 Zn 0.48873 0.39873 0.62428 0.0
O186 O 0.52073 0.3962 0.59771 0.0
C187 C 0.45225 0.44604 0.61826 0.0
O188 O 0.45781 0.45001 0.64446 0.0
O189 O 0.47246 0.36093 0.62924 0.0
C190 C 0.52789 0.41821 0.58539 0.0
O191 O 0.51493 0.44129 0.59124 0.0
C192 C 0.52534 0.42443 0.66462 0.0
O193 O 0.54413 0.42115 0.64541 0.0
O194 O 0.46139 0.4245 0.6064 0.0
C195 C 0.43444 0.14123 0.62576 0.0
O196 O 0.44095 0.12783 0.60312 0.0
O197 O 0.40845 0.06975 0.67844 0.0
Zn198 Zn 0.42145 0.0866 0.64265 0.0
O199 O 0.39711 0.07615 0.61039 0.0
C200 C 0.46794 0.04909 0.64597 0.0
O201 O 0.4534 0.03834 0.66612 0.0
O202 O 0.42485 0.12778 0.64608 0.0
C203 C 0.39804 0.05111 0.60261 0.0
O204 O 0.41303 0.03356 0.6168 0.0
C205 C 0.38874 0.05263 0.68104 0.0
O206 O 0.37279 0.04732 0.65981 0.0
O207 O 0.45908 0.07062 0.63387 0.0
C208 C 0.85169 0.591 0.65249 0.0
O209 O 0.84978 0.61462 0.63934 0.0
O210 O 0.84623 0.58849 0.57542 0.0
Zn211 Zn 0.87457 0.57244 0.60097 0.0
O212 O 0.91001 0.59365 0.59762 0.0
C213 C 0.86265 0.51813 0.5795 0.0
O214 O 0.83748 0.52395 0.58767 0.0
O215 O 0.86158 0.57018 0.64005 0.0
C216 C 0.917 0.59904 0.57296 0.0
O217 O 0.90026 0.59191 0.55287 0.0
C218 C 0.82037 0.58561 0.57843 0.0
O219 O 0.81087 0.57582 0.60183 0.0
O220 O 0.88208 0.5348 0.58521 0.0
C221 C 0.19721 0.95677 0.65146 0.0
O222 O 0.19798 0.93079 0.64377 0.0
O223 O 0.21454 0.94207 0.5766 0.0
Zn224 Zn 0.18332 0.96223 0.59528 0.0
O225 O 0.15029 0.93738 0.59829 0.0
C226 C 0.18519 0.00174 0.55013 0.0
O227 O 0.21012 0.99181 0.54629 0.0
O228 O 0.19267 0.97516 0.63337 0.0
C229 C 0.13755 0.93121 0.57626 0.0
O230 O 0.14706 0.94043 0.55262 0.0
C231 C 0.21407 0.91636 0.57141 0.0
O232 O 0.1938 0.90123 0.5811 0.0
O233 O 0.17124 0.99357 0.57077 0.0
C234 C 0.81961 0.56318 0.85448 0.0
O235 O 0.79666 0.5531 0.86478 0.0
O236 O 0.80892 0.5277 0.91865 0.0
Zn237 Zn 0.84402 0.54601 0.90655 0.0
O238 O 0.87474 0.51821 0.90724 0.0
C239 C 0.83517 0.58839 0.94766 0.0
O240 O 0.80947 0.58733 0.93908 0.0
O241 O 0.84148 0.56275 0.86891 0.0
C242 C 0.87951 0.50686 0.93035 0.0
O243 O 0.86379 0.51325 0.95148 0.0
C244 C 0.80347 0.50234 0.9149 0.0
O245 O 0.8205 0.48713 0.90031 0.0
O246 O 0.85335 0.57404 0.9354 0.0
C247 C 0.16051 0.9976 0.85111 0.0
O248 O 0.13492 0.99432 0.85945 0.0
O249 O 0.19734 0.03562 0.9262 0.0
Zn250 Zn 0.16817 0.01242 0.90773 0.0
O251 O 0.13155 0.03215 0.91039 0.0
C252 C 0.17276 0.9739 0.95286 0.0
O253 O 0.18856 0.99342 0.96302 0.0
O254 O 0.17863 0.0053 0.86837 0.0
C255 C 0.12333 0.03675 0.93486 0.0
O256 O 0.13909 0.02909 0.95551 0.0
C257 C 0.19469 0.06138 0.93042 0.0
O258 O 0.17288 0.07429 0.92082 0.0
O259 O 0.16319 0.97658 0.92859 0.0
C260 C 0.65661 0.84674 0.53913 0.0
O261 O 0.63989 0.83815 0.55865 0.0
O262 O 0.58243 0.84056 0.5286 0.0
Zn263 Zn 0.6072 0.87194 0.51721 0.0
O264 O 0.59805 0.90552 0.54045 0.0
C265 C 0.58938 0.85919 0.46243 0.0
O266 O 0.59477 0.83388 0.47046 0.0
O267 O 0.64708 0.86154 0.51972 0.0
C268 C 0.58267 0.92424 0.53033 0.0
O269 O 0.57466 0.92226 0.50455 0.0
C270 C 0.55668 0.84511 0.5262 0.0
O271 O 0.54843 0.87003 0.51951 0.0
O272 O 0.59663 0.87913 0.47785 0.0
C273 C 0.67551 0.1686 0.94428 0.0
O274 O 0.66869 0.15396 0.92252 0.0
O275 O 0.59665 0.19977 0.9307 0.0
Zn276 Zn 0.61671 0.16995 0.9517 0.0
O277 O 0.61274 0.13287 0.93286 0.0
C278 C 0.58336 0.18769 0.99769 0.0
O279 O 0.5867 0.21213 0.9865 0.0
O280 O 0.65653 0.1786 0.95932 0.0
C281 C 0.58989 0.12029 0.93575 0.0
O282 O 0.57021 0.13208 0.95018 0.0
C283 C 0.57992 0.1946 0.91117 0.0
O284 O 0.57994 0.16993 0.90002 0.0
O285 O 0.5962 0.16715 0.9876 0.0
C286 C 0.32553 0.33422 0.97176 0.0
O287 O 0.33502 0.34247 0.94777 0.0
O288 O 0.40061 0.30288 0.9616 0.0
Zn289 Zn 0.38297 0.33385 0.9831 0.0
O290 O 0.38784 0.36946 0.96224 0.0
C291 C 0.42364 0.32176 0.02513 0.0
O292 O 0.42619 0.29856 0.01139 0.0
O293 O 0.34261 0.32799 0.99065 0.0
C294 C 0.41221 0.37878 0.95966 0.0
O295 O 0.43282 0.36469 0.97023 0.0
C296 C 0.40912 0.30528 0.93692 0.0
O297 O 0.40258 0.32744 0.9228 0.0
O298 O 0.4048 0.33869 0.01826 0.0
C299 C 0.869 0.15281 0.01746 0.0
O300 O 0.88979 0.16769 0.00848 0.0
O301 O 0.93229 0.15831 0.06078 0.0
Zn302 Zn 0.91234 0.12492 0.04663 0.0
O303 O 0.9136 0.09505 0.07529 0.0
C304 C 0.95029 0.12607 0.00065 0.0
O305 O 0.95007 0.15274 0.0054 0.0
O306 O 0.87362 0.13341 0.03447 0.0
C307 C 0.93764 0.09009 0.08452 0.0
O308 O 0.95821 0.1057 0.07626 0.0
C309 C 0.9224 0.18078 0.06987 0.0
O310 O 0.89553 0.18388 0.0716 0.0
O311 O 0.9346 0.11048 0.01472 0.0
C312 C 0.14335 0.02448 0.53034 0.0
C313 C 0.17137 0.01758 0.52794 0.0
C314 C 0.12848 0.03456 0.50769 0.0
C315 C 0.14198 0.03798 0.48204 0.0
C316 C 0.17072 0.03315 0.48005 0.0
C317 C 0.18509 0.02295 0.50304 0.0
C318 C 0.09787 0.03954 0.51071 0.0
C319 C 0.18593 0.03686 0.45316 0.0
C320 C 0.0966 0.02449 0.41994 0.0
C321 C 0.08932 0.05125 0.41174 0.0
C322 C 0.11436 0.02002 0.44227 0.0
C323 C 0.12531 0.04289 0.45676 0.0
C324 C 0.11893 0.07 0.44799 0.0
C325 C 0.10091 0.07389 0.42559 0.0
C326 C 0.12063 0.99074 0.45094 0.0
C327 C 0.13044 0.09485 0.46279 0.0
H328 H 0.13259 0.02064 0.54955 0.0
H329 H 0.20679 0.01791 0.50103 0.0
H330 H 0.09207 0.05975 0.50171 0.0
H331 H 0.08636 0.02338 0.49927 0.0
H332 H 0.09115 0.03906 0.5326 0.0
H333 H 0.20867 0.03656 0.45604 0.0
H334 H 0.18025 0.01994 0.43884 0.0
H335 H 0.18 0.05658 0.44318 0.0
H336 H 0.08787 0.00686 0.40931 0.0
H337 H 0.09547 0.09464 0.41932 0.0
H338 H 0.11254 0.98703 0.47201 0.0
H339 H 0.14326 0.98738 0.45161 0.0
H340 H 0.11137 0.97527 0.43679 0.0
H341 H 0.12161 0.096 0.48385 0.0
H342 H 0.12569 0.11441 0.45184 0.0
H343 H 0.15315 0.09297 0.46504 0.0
C344 C 0.89175 0.40946 0.45661 0.0
C345 C 0.89137 0.4261 0.43294 0.0
C346 C 0.88554 0.42055 0.48266 0.0
C347 C 0.87882 0.44887 0.48498 0.0
C348 C 0.87724 0.46542 0.46099 0.0
C349 C 0.88354 0.45384 0.4353 0.0
C350 C 0.88727 0.40226 0.50777 0.0
C351 C 0.86982 0.49567 0.46254 0.0
C352 C 0.84492 0.48209 0.54706 0.0
C353 C 0.86735 0.49605 0.55893 0.0
C354 C 0.84855 0.46513 0.52387 0.0
C355 C 0.87523 0.46201 0.51244 0.0
C356 C 0.89819 0.47444 0.52553 0.0
C357 C 0.89398 0.49128 0.54864 0.0
C358 C 0.82367 0.4518 0.51069 0.0
C359 C 0.92699 0.47162 0.51398 0.0
H360 H 0.89772 0.38799 0.45493 0.0
H361 H 0.88293 0.46678 0.4171 0.0
H362 H 0.90524 0.40847 0.52051 0.0
H363 H 0.86857 0.40468 0.52073 0.0
H364 H 0.88961 0.38016 0.50221 0.0
H365 H 0.86824 0.50533 0.44184 0.0
H366 H 0.84984 0.49837 0.47336 0.0
H367 H 0.88572 0.50691 0.47459 0.0
H368 H 0.82429 0.4855 0.55496 0.0
H369 H 0.91146 0.5018 0.55781 0.0
H370 H 0.82666 0.42915 0.50959 0.0
H371 H 0.82124 0.45932 0.48923 0.0
H372 H 0.80433 0.45614 0.52219 0.0
H373 H 0.93181 0.44966 0.50973 0.0
H374 H 0.9429 0.48001 0.52818 0.0
H375 H 0.92836 0.4829 0.49412 0.0
C376 C 0.06536 0.89926 0.04453 0.0
C377 C 0.07484 0.87975 0.06363 0.0
C378 C 0.08322 0.91081 0.02498 0.0
C379 C 0.11105 0.90199 0.02393 0.0
C380 C 0.12021 0.88077 0.04178 0.0
C381 C 0.1021 0.87021 0.0618 0.0
C382 C 0.07272 0.93381 0.00676 0.0
C383 C 0.14945 0.87012 0.04058 0.0
C384 C 0.1485 0.92892 0.96073 0.0
C385 C 0.16117 0.95265 0.97139 0.0
C386 C 0.13379 0.91089 0.97801 0.0
C387 C 0.13098 0.91731 0.00635 0.0
C388 C 0.14484 0.94053 0.01738 0.0
C389 C 0.1601 0.95767 -0.00018 0.0
C390 C 0.12013 0.88578 0.96569 0.0
C391 C 0.14195 0.94849 0.04736 0.0
H392 H 0.04436 0.90683 0.04593 0.0
H393 H 0.10943 0.85495 0.0764 0.0
H394 H 0.08374 0.95324 0.01183 0.0
H395 H 0.07691 0.92911 0.9848 0.0
H396 H 0.05021 0.93737 0.00928 0.0
H397 H 0.15191 0.85058 0.05228 0.0
H398 H 0.15584 0.8666 0.01889 0.0
H399 H 0.16365 0.88568 0.04948 0.0
H400 H 0.14948 0.92484 0.93877 0.0
H401 H 0.16974 0.97603 0.00819 0.0
H402 H 0.0976 0.88938 0.96395 0.0
H403 H 0.12317 0.86753 0.97916 0.0
H404 H 0.12829 0.88101 0.94482 0.0
H405 H 0.12016 0.95404 0.05172 0.0
H406 H 0.15525 0.96628 0.05298 0.0
H407 H 0.14733 0.93084 0.06085 0.0
C408 C 0.85658 0.60566 0.10551 0.0
C409 C 0.87372 0.6273 0.11413 0.0
C410 C 0.84795 0.60362 0.07801 0.0
C411 C 0.85624 0.62401 0.05882 0.0
C412 C 0.87149 0.64716 0.06794 0.0
C413 C 0.8803 0.64841 0.09548 0.0
C414 C 0.83184 0.57848 0.06909 0.0
C415 C 0.88004 0.66971 0.04827 0.0
C416 C 0.86742 0.59594 0.98697 0.0
C417 C 0.84201 0.60159 0.97432 0.0
C418 C 0.87268 0.60418 0.01413 0.0
C419 C 0.85224 0.61893 0.02887 0.0
C420 C 0.82732 0.62642 0.01562 0.0
C421 C 0.82237 0.61742 0.98852 0.0
C422 C 0.89948 0.5956 0.02755 0.0
C423 C 0.80537 0.64276 0.03046 0.0
H424 H 0.85131 0.58931 0.11981 0.0
H425 H 0.89325 0.6654 0.10213 0.0
H426 H 0.8135 0.58461 0.05688 0.0
H427 H 0.84498 0.5654 0.05565 0.0
H428 H 0.82488 0.56587 0.08689 0.0
H429 H 0.88733 0.6884 0.05933 0.0
H430 H 0.89705 0.66215 0.03496 0.0
H431 H 0.86263 0.67552 0.03459 0.0
H432 H 0.88277 0.58379 0.97618 0.0
H433 H 0.80277 0.62206 0.97879 0.0
H434 H 0.89516 0.58109 0.04472 0.0
H435 H 0.91009 0.61379 0.03647 0.0
H436 H 0.91374 0.58535 0.01283 0.0
H437 H 0.79508 0.62942 0.04593 0.0
H438 H 0.78941 0.65072 0.01607 0.0
H439 H 0.81467 0.66039 0.04169 0.0
C440 C 0.4488 0.14597 0.08592 0.0
C441 C 0.4318 0.13506 0.06519 0.0
C442 C 0.47386 0.15899 0.07928 0.0
C443 C 0.48205 0.1609 0.05134 0.0
C444 C 0.46415 0.15142 0.03031 0.0
C445 C 0.43925 0.1387 0.0375 0.0
C446 C 0.49218 0.16935 0.1022 0.0
C447 C 0.47202 0.15313 0.0002 0.0
C448 C 0.54062 0.20338 0.02207 0.0
C449 C 0.56038 0.18277 0.01716 0.0
C450 C 0.51565 0.19715 0.03536 0.0
C451 C 0.51042 0.1697 0.04381 0.0
C452 C 0.53128 0.14945 0.04104 0.0
C453 C 0.55605 0.15626 0.02782 0.0
C454 C 0.49408 0.21942 0.03832 0.0
C455 C 0.52658 0.11992 0.04982 0.0
H456 H 0.44306 0.14344 0.10737 0.0
H457 H 0.42609 0.13066 0.02131 0.0
H458 H 0.50996 0.15517 0.10475 0.0
H459 H 0.50059 0.19002 0.09712 0.0
H460 H 0.48102 0.1706 0.12216 0.0
H461 H 0.45475 0.14719 0.98635 0.0
H462 H 0.47867 0.17434 0.99485 0.0
H463 H 0.48971 0.13917 0.99613 0.0
H464 H 0.54386 0.224 0.01406 0.0
H465 H 0.57134 0.1403 0.0244 0.0
H466 H 0.48405 0.21833 0.05884 0.0
H467 H 0.47778 0.21637 0.02254 0.0
H468 H 0.50297 0.24036 0.0355 0.0
H469 H 0.51806 0.1191 0.07101 0.0
H470 H 0.54585 0.10753 0.04917 0.0
H471 H 0.51125 0.11019 0.03586 0.0
C472 C 0.55575 0.39129 0.09917 0.0
C473 C 0.56248 0.41146 0.07957 0.0
C474 C 0.53286 0.37385 0.09525 0.0
C475 C 0.51694 0.37629 0.07088 0.0
C476 C 0.52401 0.39636 0.05089 0.0
C477 C 0.54646 0.41387 0.05565 0.0
C478 C 0.5255 0.35312 0.11724 0.0
C479 C 0.50794 0.39933 0.02433 0.0
C480 C 0.47292 0.32008 0.03974 0.0
C481 C 0.44648 0.33142 0.04289 0.0
C482 C 0.49617 0.33333 0.05075 0.0
C483 C 0.49275 0.35814 0.06576 0.0
C484 C 0.46584 0.36794 0.07155 0.0
C485 C 0.443 0.35463 0.05976 0.0
C486 C 0.52446 0.32229 0.04379 0.0
C487 C 0.46126 0.39387 0.08816 0.0
H488 H 0.56804 0.38951 0.11775 0.0
H489 H 0.55175 0.42925 0.04031 0.0
H490 H 0.50429 0.35715 0.12487 0.0
H491 H 0.52561 0.33198 0.1085 0.0
H492 H 0.53997 0.35381 0.13499 0.0
H493 H 0.51684 0.41526 0.01048 0.0
H494 H 0.50753 0.37936 0.01314 0.0
H495 H 0.48625 0.40504 0.02891 0.0
H496 H 0.4758 0.30208 0.02679 0.0
H497 H 0.42255 0.36327 0.06257 0.0
H498 H 0.53834 0.3232 0.06194 0.0
H499 H 0.53376 0.33526 0.02739 0.0
H500 H 0.52359 0.30066 0.03625 0.0
H501 H 0.47509 0.39438 0.10638 0.0
H502 H 0.43954 0.39571 0.09525 0.0
H503 H 0.46616 0.41212 0.07526 0.0
C504 C 0.55987 0.89133 0.43532 0.0
C505 C 0.56763 0.86419 0.44162 0.0
C506 C 0.53439 0.89694 0.42289 0.0
C507 C 0.51643 0.87485 0.41643 0.0
C508 C 0.52562 0.84733 0.41957 0.0
C509 C 0.5512 0.84228 0.43219 0.0
C510 C 0.5255 0.9266 0.41961 0.0
C511 C 0.50734 0.82329 0.41202 0.0
C512 C 0.44184 0.89168 0.43143 0.0
C513 C 0.43167 0.89829 0.40521 0.0
C514 C 0.46908 0.88286 0.43505 0.0
C515 C 0.4867 0.88064 0.41186 0.0
C516 C 0.47624 0.88597 0.38514 0.0
C517 C 0.44877 0.89479 0.38212 0.0
C518 C 0.47929 0.8769 0.46391 0.0
C519 C 0.49429 0.88361 0.35991 0.0
H520 H 0.57268 0.90837 0.44208 0.0
H521 H 0.55719 0.8212 0.43661 0.0
H522 H 0.51545 0.92985 0.39933 0.0
H523 H 0.51016 0.93174 0.43582 0.0
H524 H 0.54314 0.94111 0.42152 0.0
H525 H 0.51854 0.80332 0.41297 0.0
H526 H 0.48955 0.82239 0.42639 0.0
H527 H 0.49888 0.82605 0.39095 0.0
H528 H 0.42865 0.89396 0.44933 0.0
H529 H 0.44099 0.89978 0.36177 0.0
H530 H 0.49596 0.89159 0.46945 0.0
H531 H 0.48811 0.85582 0.46494 0.0
H532 H 0.46265 0.87858 0.47956 0.0
H533 H 0.50793 0.90194 0.35864 0.0
H534 H 0.48187 0.88256 0.34068 0.0
H535 H 0.5077 0.86511 0.36108 0.0
C536 C 0.48903 0.58833 0.40269 0.0
C537 C 0.49114 0.61712 0.40474 0.0
C538 C 0.51258 0.57189 0.39917 0.0
C539 C 0.53886 0.58455 0.39772 0.0
C540 C 0.54092 0.61367 0.39777 0.0
C541 C 0.51701 0.62963 0.40121 0.0
C542 C 0.50949 0.5409 0.39894 0.0
C543 C 0.56856 0.62795 0.39618 0.0
C544 C 0.59837 0.54382 0.42788 0.0
C545 C 0.61153 0.53373 0.4042 0.0
C546 C 0.57489 0.56055 0.42594 0.0
C547 C 0.56421 0.56738 0.39965 0.0
C548 C 0.57748 0.5575 0.37561 0.0
C549 C 0.60105 0.54079 0.37816 0.0
C550 C 0.56137 0.57073 0.45211 0.0
C551 C 0.56659 0.56431 0.34726 0.0
H552 H 0.4691 0.57848 0.40515 0.0
H553 H 0.51885 0.65186 0.40259 0.0
H554 H 0.52174 0.53171 0.38195 0.0
H555 H 0.51751 0.53231 0.41857 0.0
H556 H 0.48762 0.53443 0.3966 0.0
H557 H 0.56642 0.65052 0.39285 0.0
H558 H 0.58 0.62458 0.41571 0.0
H559 H 0.58121 0.61918 0.37926 0.0
H560 H 0.60632 0.53851 0.44808 0.0
H561 H 0.61109 0.53304 0.35976 0.0
H562 H 0.53985 0.56303 0.45326 0.0
H563 H 0.56044 0.5936 0.45206 0.0
H564 H 0.57255 0.56394 0.47091 0.0
H565 H 0.54534 0.5561 0.34493 0.0
H566 H 0.57968 0.55558 0.33061 0.0
H567 H 0.5654 0.58699 0.34455 0.0
C568 C 0.04828 0.45368 0.1046 0.0
C569 C 0.03079 0.43548 0.09044 0.0
C570 C 0.03746 0.47354 0.12276 0.0
C571 C 0.00856 0.47508 0.12683 0.0
C572 C 0.99096 0.45614 0.11328 0.0
C573 C 0.00228 0.43663 0.09527 0.0
C574 C 0.05682 0.49339 0.13691 0.0
C575 C 0.96003 0.45702 0.11711 0.0
C576 C 0.97485 0.5125 0.18672 0.0
C577 C 0.96515 0.53648 0.17376 0.0
C578 C 0.99032 0.49287 0.17207 0.0
C579 C 0.99624 0.4974 0.14386 0.0
C580 C 0.98772 0.52222 0.13108 0.0
C581 C 0.97227 0.54144 0.14617 0.0
C582 C -0.00091 0.46666 0.1864 0.0
C583 C 0.99369 0.52788 0.10104 0.0
H584 H 0.07033 0.45288 0.10098 0.0
H585 H 0.98862 0.42251 0.08459 0.0
H586 H 0.05306 0.5146 0.12918 0.0
H587 H 0.0529 0.4936 0.15944 0.0
H588 H 0.07883 0.48811 0.1333 0.0
H589 H 0.94938 0.43993 0.10617 0.0
H590 H 0.95479 0.45582 0.13934 0.0
H591 H 0.95182 0.47688 0.10923 0.0
H592 H 0.96954 0.50855 0.20806 0.0
H593 H 0.96508 0.56003 0.13604 0.0
H594 H 0.0212 0.46232 0.18238 0.0
H595 H 0.98705 0.44904 0.17811 0.0
H596 H 0.99577 0.46768 0.20904 0.0
H597 H 0.01591 0.52468 0.09659 0.0
H598 H 0.98796 0.54921 0.09493 0.0
H599 H 0.98191 0.51321 0.08801 0.0
C600 C 0.01002 0.43323 0.36785 0.0
C601 C 0.98519 0.44295 0.35666 0.0
C602 C 0.03078 0.45164 0.37619 0.0
C603 C 0.02619 0.4804 0.37397 0.0
C604 C 0.00172 0.49024 0.3614 0.0
C605 C 0.98167 0.47136 0.35257 0.0
C606 C 0.05695 0.44036 0.38873 0.0
C607 C 0.99575 0.52073 0.35913 0.0
C608 C 0.05681 0.52665 0.4289 0.0
C609 C 0.07715 0.54096 0.41418 0.0
C610 C 0.04042 0.50663 0.41609 0.0
C611 C 0.04499 0.50015 0.388 0.0
C612 C 0.06632 0.51365 0.37329 0.0
C613 C 0.0819 0.53428 0.38646 0.0
C614 C 0.01747 0.4932 0.43237 0.0
C615 C 0.07229 0.50669 0.34357 0.0
H616 H 0.01295 0.41125 0.37075 0.0
H617 H 0.96249 0.47901 0.34398 0.0
H618 H 0.07525 0.45129 0.38038 0.0
H619 H 0.05667 0.44375 0.41134 0.0
H620 H 0.05933 0.4179 0.38484 0.0
H621 H 0.97697 0.52499 0.34669 0.0
H622 H 0.99269 0.52946 0.38006 0.0
H623 H 0.01344 0.53171 0.34969 0.0
H624 H 0.05286 0.5319 0.45027 0.0
H625 H 0.09772 0.54524 0.37508 0.0
H626 H 0.02009 0.47049 0.43243 0.0
H627 H 0.99729 0.49772 0.42253 0.0
H628 H 0.01675 0.5005 0.45407 0.0
H629 H 0.07452 0.48405 0.34104 0.0
H630 H 0.09136 0.51688 0.33598 0.0
H631 H 0.05478 0.5133 0.33042 0.0
C632 C 0.91972 0.91202 0.45101 0.0
C633 C 0.94227 0.89568 0.45896 0.0
C634 C 0.92342 0.93528 0.43415 0.0
C635 C 0.95027 0.94227 0.42505 0.0
C636 C 0.97299 0.92551 0.43253 0.0
C637 C 0.96871 0.90244 0.44938 0.0
C638 C 0.89875 0.9527 0.42657 0.0
C639 C 0.00196 0.93224 0.42319 0.0
C640 C 0.96441 0.98916 0.36417 0.0
C641 C 0.97314 0.01334 0.37746 0.0
C642 C 0.95542 0.96624 0.37938 0.0
C643 C 0.95508 0.96761 0.40852 0.0
C644 C 0.96214 0.99255 0.42195 0.0
C645 C 0.9711 0.01512 0.40626 0.0
C646 C 0.94793 0.94003 0.36432 0.0
C647 C 0.96186 0.99489 0.45299 0.0
H648 H 0.89922 0.90692 0.45833 0.0
H649 H 0.98624 0.8899 0.45535 0.0
H650 H 0.90107 0.97366 0.43547 0.0
H651 H 0.89746 0.95511 0.40387 0.0
H652 H 0.87908 0.94369 0.43413 0.0
H653 H 0.01723 0.9166 0.43008 0.0
H654 H 0.00273 0.93361 0.40037 0.0
H655 H 0.00823 0.95264 0.43146 0.0
H656 H 0.96579 0.98764 0.34192 0.0
H657 H 0.9776 0.03379 0.41671 0.0
H658 H 0.92818 0.93158 0.3722 0.0
H659 H 0.96409 0.92424 0.36803 0.0
H660 H 0.94604 0.94329 0.34173 0.0
H661 H 0.94202 0.9872 0.46141 0.0
H662 H 0.965 0.01645 0.46008 0.0
H663 H 0.97853 0.98189 0.46178 0.0
C664 C 0.40746 0.57328 0.52044 0.0
C665 C 0.43285 0.58475 0.51252 0.0
C666 C 0.4063 0.55112 0.53907 0.0
C667 C 0.43111 0.54016 0.54988 0.0
C668 C 0.45671 0.55219 0.54257 0.0
C669 C 0.45725 0.57435 0.52404 0.0
C670 C 0.37863 0.53892 0.54654 0.0
C671 C 0.48366 0.54111 0.55367 0.0
C672 C 0.43594 0.49478 0.61327 0.0
C673 C 0.4411 0.46891 0.60134 0.0
C674 C 0.43077 0.51801 0.59678 0.0
C675 C 0.43079 0.51525 0.56773 0.0
C676 C 0.43387 0.48883 0.55569 0.0
C677 C 0.43894 0.46597 0.57265 0.0
C678 C 0.42726 0.54578 0.6104 0.0
C679 C 0.43386 0.48499 0.5248 0.0
H680 H 0.38849 0.58126 0.51169 0.0
H681 H 0.47695 0.5831 0.51812 0.0
H682 H 0.37713 0.51764 0.53828 0.0
H683 H 0.37646 0.53753 0.56926 0.0
H684 H 0.36119 0.55122 0.5382 0.0
H685 H 0.50169 0.55345 0.54677 0.0
H686 H 0.48328 0.54094 0.57653 0.0
H687 H 0.48658 0.51949 0.54673 0.0
H688 H 0.43735 0.49723 0.63543 0.0
H689 H 0.44265 0.44603 0.56323 0.0
H690 H 0.40977 0.55721 0.60106 0.0
H691 H 0.44616 0.55829 0.60713 0.0
H692 H 0.42365 0.5439 0.63293 0.0
H693 H 0.41591 0.49561 0.51539 0.0
H694 H 0.43327 0.46287 0.51884 0.0
H695 H 0.45279 0.49435 0.51597 0.0
C696 C 0.60718 0.52778 0.05137 0.0
C697 C 0.63526 0.52083 0.05137 0.0
C698 C 0.59491 0.53996 0.02823 0.0
C699 C 0.61113 0.54523 0.00454 0.0
C700 C 0.64 0.54095 0.0055 0.0
C701 C 0.65177 0.52877 0.02896 0.0
C702 C 0.56412 0.54469 0.02824 0.0
C703 C 0.65821 0.54658 0.98091 0.0
C704 C 0.57232 0.53209 0.93822 0.0
C705 C 0.56549 0.55886 0.92978 0.0
C706 C 0.58825 0.52756 0.96186 0.0
C707 C 0.59717 0.55037 0.97776 0.0
C708 C 0.59121 0.57752 0.96885 0.0
C709 C 0.57554 0.58148 0.94478 0.0
C710 C 0.59487 0.49826 0.97024 0.0
C711 C 0.60067 0.60227 0.98518 0.0
H712 H 0.59437 0.52206 0.06878 0.0
H713 H 0.67354 0.52363 0.02879 0.0
H714 H 0.55904 0.56502 0.01907 0.0
H715 H 0.55398 0.52861 0.01547 0.0
H716 H 0.55529 0.54373 0.04935 0.0
H717 H 0.67954 0.55174 0.98752 0.0
H718 H 0.65919 0.52777 0.96791 0.0
H719 H 0.6502 0.56371 0.96805 0.0
H720 H 0.56493 0.51456 0.92647 0.0
H721 H 0.57032 0.60222 0.93827 0.0
H722 H 0.58509 0.49357 0.99038 0.0
H723 H 0.61748 0.49573 0.97281 0.0
H724 H 0.58752 0.48292 0.95488 0.0
H725 H 0.59019 0.60249 0.00552 0.0
H726 H 0.59615 0.62199 0.97443 0.0
H727 H 0.62318 0.601 0.98915 0.0
C728 C 0.36198 0.01398 0.01666 0.0
C729 C 0.37782 0.02243 0.03935 0.0
C730 C 0.37373 -0.00164 0.99533 0.0
C731 C 0.40193 0.99091 0.99682 0.0
C732 C 0.41764 0.99814 0.02034 0.0
C733 C 0.4054 0.01387 0.0413 0.0
C734 C 0.35633 0.99107 0.97054 0.0
C735 C 0.44775 0.99047 0.02275 0.0
C736 C 0.43086 0.93738 0.94729 0.0
C737 C 0.443 0.95422 0.92714 0.0
C738 C 0.41721 0.94897 0.97008 0.0
C739 C 0.41572 0.97802 0.97269 0.0
C740 C 0.42782 0.99507 0.95233 0.0
C741 C 0.44128 0.98297 0.92984 0.0
C742 C 0.40459 0.9302 0.99145 0.0
C743 C 0.42671 0.02616 0.95438 0.0
H744 H 0.34063 0.02045 0.01499 0.0
H745 H 0.41774 0.02016 0.05886 0.0
H746 H 0.36391 0.00256 0.95226 0.0
H747 H 0.35814 0.96876 0.96581 0.0
H748 H 0.3342 0.99618 0.97366 0.0
H749 H 0.45627 0.99522 0.04347 0.0
H750 H 0.45066 0.96818 0.01853 0.0
H751 H 0.45986 0.00201 0.00714 0.0
H752 H 0.43212 0.91515 0.94533 0.0
H753 H 0.45062 0.99616 0.91441 0.0
H754 H 0.38224 0.93469 0.99359 0.0
H755 H 0.41425 0.93405 0.01182 0.0
H756 H 0.40716 0.90805 0.98618 0.0
H757 H 0.40494 0.03316 0.95536 0.0
H758 H 0.43691 0.03645 0.93663 0.0
H759 H 0.43698 0.03307 0.97362 0.0
C760 C 0.56418 0.39365 0.55778 0.0
C761 C 0.55047 0.41816 0.56485 0.0
C762 C 0.58528 0.39359 0.5379 0.0
C763 C 0.5928 0.41862 0.52491 0.0
C764 C 0.57914 0.44341 0.53212 0.0
C765 C 0.55817 0.44286 0.55196 0.0
C766 C 0.59937 0.3668 0.53065 0.0
C767 C 0.58656 0.47057 0.51874 0.0
C768 C 0.66149 0.43198 0.49033 0.0
C769 C 0.65379 0.43236 0.46245 0.0
C770 C 0.64224 0.42557 0.51096 0.0
C771 C 0.61471 0.41929 0.50349 0.0
C772 C 0.60745 0.41735 0.4753 0.0
C773 C 0.62708 0.42392 0.4551 0.0
C774 C 0.65084 0.42769 0.5408 0.0
C775 C 0.57837 0.41047 0.46646 0.0
H776 H 0.55832 0.37447 0.56765 0.0
H777 H 0.54772 0.4619 0.55729 0.0
H778 H 0.59628 0.36215 0.50847 0.0
H779 H 0.62193 0.36861 0.5341 0.0
H780 H 0.59144 0.34919 0.54298 0.0
H781 H 0.57414 0.48802 0.5269 0.0
H782 H 0.60872 0.47519 0.52216 0.0
H783 H 0.58326 0.46928 0.49614 0.0
H784 H 0.68213 0.43825 0.49623 0.0
H785 H 0.621 0.42386 0.43359 0.0
H786 H 0.64306 0.4098 0.55274 0.0
H787 H 0.64171 0.44657 0.54999 0.0
H788 H 0.67362 0.42879 0.54314 0.0
H789 H 0.57042 0.39248 0.47814 0.0
H790 H 0.57705 0.40587 0.44407 0.0
H791 H 0.56464 0.42821 0.47101 0.0
C792 C 0.38319 0.01375 0.57058 0.0
C793 C 0.3843 0.04195 0.57694 0.0
C794 C 0.37297 0.00458 0.54516 0.0
C795 C 0.36375 0.02409 0.52551 0.0
C796 C 0.36368 0.05252 0.53221 0.0
C797 C 0.37393 0.06113 0.55793 0.0
C798 C 0.37309 0.97404 0.53894 0.0
C799 C 0.35399 0.07389 0.51178 0.0
C800 C 0.37119 -0.00111 0.45202 0.0
C801 C 0.34457 0.98904 0.4464 0.0
C802 C 0.37733 0.01164 0.47722 0.0
C803 C 0.35635 0.01461 0.49732 0.0
C804 C 0.32911 0.00599 0.49125 0.0
C805 C 0.32352 0.99338 0.46579 0.0
C806 C 0.40666 0.02057 0.4829 0.0
C807 C 0.30616 0.00909 0.51207 0.0
H808 H 0.39091 -0.00123 0.58526 0.0
H809 H 0.37471 0.08296 0.56272 0.0
H810 H 0.35237 0.96729 0.53192 0.0
H811 H 0.38781 0.96971 0.52196 0.0
H812 H 0.37911 0.96147 0.55711 0.0
H813 H 0.35242 0.09474 0.52117 0.0
H814 H 0.36868 0.07491 0.49428 0.0
H815 H 0.33357 0.06811 0.50321 0.0
H816 H 0.38755 0.99578 0.43711 0.0
H817 H 0.30284 0.98598 0.46155 0.0
H818 H 0.41566 0.00735 0.49926 0.0
H819 H 0.40709 0.04214 0.49051 0.0
H820 H 0.41994 0.0191 0.46429 0.0
H821 H 0.3115 0.99792 0.53131 0.0
H822 H 0.28615 0.00108 0.50426 0.0
H823 H 0.30359 0.03115 0.51757 0.0
C824 C 0.06311 0.65717 0.52245 0.0
C825 C 0.07637 0.63398 0.51131 0.0
C826 C 0.0392 0.65423 0.53853 0.0
C827 C 0.02843 0.62754 0.54336 0.0
C828 C 0.04355 0.60407 0.53487 0.0
C829 C 0.06745 0.60757 0.51906 0.0
C830 C 0.02428 0.67964 0.54857 0.0
C831 C 0.03297 0.57521 0.53993 0.0
C832 C 0.96502 0.61257 0.58694 0.0
C833 C 0.94471 0.61003 0.56645 0.0
C834 C 0.99229 0.61967 0.58007 0.0
C835 C -0.00072 0.62411 0.5521 0.0
C836 C 0.9785 0.62301 0.53159 0.0
C837 C 0.9515 0.61606 0.53904 0.0
C838 C 0.01376 0.62087 0.60257 0.0
C839 C 0.98503 0.62785 0.50148 0.0
H840 H 0.07019 0.67767 0.51704 0.0
H841 H 0.0779 0.58951 0.51101 0.0
H842 H 0.00307 0.6802 0.54 0.0
H843 H 0.02229 0.6789 0.57133 0.0
H844 H 0.03514 0.69896 0.54276 0.0
H845 H 0.04893 0.55933 0.53564 0.0
H846 H 0.0259 0.57288 0.56154 0.0
H847 H 0.01499 0.57123 0.52632 0.0
H848 H 0.95989 0.60804 0.60821 0.0
H849 H 0.93588 0.61446 0.52312 0.0
H850 H 0.02863 0.63787 0.59897 0.0
H851 H 0.02557 0.60127 0.60276 0.0
H852 H 0.0042 0.62363 0.6232 0.0
H853 H 0.99577 0.64786 0.4988 0.0
H854 H 0.96622 0.62785 0.4884 0.0
H855 H -0.0009 0.61146 0.49391 0.0
C856 C 0.9849 0.8738 0.5725 0.0
C857 C 0.98375 0.84531 0.56757 0.0
C858 C 0.01005 0.88688 0.57821 0.0
C859 C 0.03459 0.87108 0.57895 0.0
C860 C 0.03323 0.84203 0.57635 0.0
C861 C 0.00776 0.82945 0.57076 0.0
C862 C 0.0106 0.91787 0.58122 0.0
C863 C 0.05893 0.82446 0.57721 0.0
C864 C 0.09839 0.90765 0.55264 0.0
C865 C 0.11194 0.91464 0.57718 0.0
C866 C 0.07346 0.89305 0.55303 0.0
C867 C 0.06175 0.88525 0.57861 0.0
C868 C 0.07553 0.89178 0.60347 0.0
C869 C 0.10053 0.90641 0.60247 0.0
C870 C 0.05941 0.88638 0.52602 0.0
C871 C 0.06361 0.88381 0.63109 0.0
H872 H 0.96638 0.88616 0.57041 0.0
H873 H 0.00704 0.8074 0.56718 0.0
H874 H 0.02356 0.92403 0.59904 0.0
H875 H 0.01987 0.92716 0.56248 0.0
H876 H 0.9896 0.92663 0.584 0.0
H877 H 0.05401 0.80215 0.57907 0.0
H878 H 0.07091 0.82762 0.55798 0.0
H879 H 0.07234 0.83055 0.59471 0.0
H880 H 0.10711 0.91385 0.53302 0.0
H881 H 0.1109 0.91173 0.62154 0.0
H882 H 0.03893 0.89659 0.52518 0.0
H883 H 0.05587 0.86383 0.52436 0.0
H884 H 0.07167 0.89319 0.50791 0.0
H885 H 0.04365 0.89455 0.63427 0.0
H886 H 0.07761 0.88912 0.64844 0.0
H887 H 0.05936 0.86134 0.63168 0.0
C888 C 0.02173 0.43709 0.96817 0.0
C889 C 0.02066 0.40818 0.96875 0.0
C890 C -0.00035 0.45259 0.95774 0.0
C891 C 0.97596 0.43883 0.94763 0.0
C892 C 0.97571 0.40968 0.94605 0.0
C893 C 0.99811 0.39467 0.95661 0.0
C894 C 0.00083 0.48366 0.95955 0.0
C895 C 0.95092 0.39426 0.93518 0.0
C896 C 0.90851 0.47631 0.95987 0.0
C897 C 0.90326 0.48802 0.93397 0.0
C898 C 0.93179 0.45978 0.96432 0.0
C899 C 0.95031 0.45476 0.94231 0.0
C900 C 0.94481 0.46588 0.91591 0.0
C901 C 0.92132 0.48242 0.91204 0.0
C902 C 0.9369 0.44824 0.9928 0.0
C903 C 0.96406 0.46085 0.89197 0.0
H904 H 0.0392 0.44773 0.97721 0.0
H905 H 0.99718 0.37234 0.95677 0.0
H906 H 0.99408 0.49314 0.93987 0.0
H907 H 0.98652 0.49088 0.97589 0.0
H908 H 0.0219 0.49122 0.96452 0.0
H909 H 0.95556 0.37214 0.93139 0.0
H910 H 0.93389 0.39556 0.95041 0.0
H911 H 0.94343 0.40367 0.91573 0.0
H912 H 0.89463 0.48042 0.9769 0.0
H913 H 0.91737 0.49135 0.89194 0.0
H914 H 0.95649 0.45664 0.00117 0.0
H915 H 0.9391 0.42549 0.9918 0.0
H916 H 0.91999 0.4533 0.00742 0.0
H917 H 0.98432 0.47063 0.8962 0.0
H918 H 0.95583 0.4693 0.87233 0.0
H919 H 0.96778 0.43843 0.88936 0.0
C920 C 0.08973 0.05769 0.96753 0.0
C921 C 0.09673 0.05065 0.94039 0.0
C922 C 0.06456 0.07045 0.97362 0.0
C923 C 0.04577 0.07626 0.95204 0.0
C924 C 0.05268 0.06935 0.92454 0.0
C925 C 0.07817 0.05666 0.919 0.0
C926 C 0.05804 0.0776 0.00324 0.0
C927 C 0.03305 0.07514 0.90108 0.0
C928 C 0.97324 0.08512 0.97928 0.0
C929 C 0.97205 0.11378 0.98311 0.0
C930 C 0.99638 0.07269 0.96715 0.0
C931 C 0.01887 0.08932 0.95879 0.0
C932 C 0.01689 0.11839 0.96066 0.0
C933 C 0.99343 0.13029 0.97273 0.0
C934 C 0.99758 0.04163 0.96524 0.0
C935 C 0.04041 0.13684 0.95193 0.0
H936 H 0.10396 0.05321 0.98418 0.0
H937 H 0.08344 0.05122 0.89798 0.0
H938 H 0.05391 0.10003 0.00516 0.0
H939 H 0.03914 0.06658 0.00994 0.0
H940 H 0.07511 0.0721 0.01751 0.0
H941 H 0.04171 0.06893 0.88081 0.0
H942 H 0.01341 0.06387 0.90442 0.0
H943 H 0.028 0.09744 0.90041 0.0
H944 H 0.95667 0.07222 0.98694 0.0
H945 H 0.99262 0.15247 0.97541 0.0
H946 H 0.0121 0.03361 0.98101 0.0
H947 H 0.00541 0.03509 0.94478 0.0
H948 H 0.97708 0.032 0.96873 0.0
H949 H 0.0576 0.13484 0.96693 0.0
H950 H 0.03417 0.15886 0.95098 0.0
H951 H 0.04844 0.13056 0.93146 0.0
C952 C 0.49265 0.00473 0.63831 0.0
C953 C 0.49097 0.03324 0.6338 0.0
C954 C 0.51104 0.98834 0.62319 0.0
C955 C 0.52867 0.00089 0.6036 0.0
C956 C 0.52864 0.02994 0.6006 0.0
C957 C 0.50948 0.04578 0.61548 0.0
C958 C 0.51 0.95739 0.62666 0.0
C959 C 0.54774 0.04414 0.58054 0.0
C960 C 0.58323 0.95363 0.57289 0.0
C961 C 0.57048 0.94568 0.54819 0.0
C962 C 0.57053 0.97273 0.59064 0.0
C963 C 0.54416 0.98332 0.58384 0.0
C964 C 0.53147 0.97566 0.55869 0.0
C965 C 0.54497 0.95725 0.54102 0.0
C966 C 0.58502 0.9811 0.61688 0.0
C967 C 0.50308 0.98597 0.55091 0.0
H968 H 0.47837 0.99488 0.65242 0.0
H969 H 0.50844 0.06786 0.61214 0.0
H970 H 0.50146 0.94789 0.60766 0.0
H971 H 0.53103 0.94892 0.62968 0.0
H972 H 0.49694 0.95109 0.64439 0.0
H973 H 0.54857 0.06677 0.58408 0.0
H974 H 0.56893 0.03562 0.58216 0.0
H975 H 0.54045 0.04046 0.55918 0.0
H976 H 0.60306 0.94484 0.57837 0.0
H977 H 0.53493 0.95103 0.52204 0.0
H978 H 0.57381 0.97261 0.63491 0.0
H979 H 0.58504 0.0039 0.61899 0.0
H980 H 0.60666 0.97359 0.61757 0.0
H981 H 0.48784 0.97931 0.56663 0.0
H982 H 0.49626 0.97822 0.53046 0.0
H983 H 0.50284 0.00884 0.55045 0.0
C984 C 0.55845 0.08158 0.92323 0.0
C985 C 0.58487 0.09331 0.92234 0.0
C986 C 0.55293 0.05624 0.91052 0.0
C987 C 0.57441 0.0421 0.89667 0.0
C988 C 0.60122 0.05366 0.89584 0.0
C989 C 0.60613 0.07924 0.90861 0.0
C990 C 0.52398 0.04468 0.9118 0.0
C991 C 0.62465 0.03901 0.88149 0.0
C992 C 0.55677 0.96668 0.88764 0.0
C993 C 0.54434 0.96687 0.86151 0.0
C994 C 0.56883 0.99062 0.89856 0.0
C995 C 0.56829 0.01532 0.88302 0.0
C996 C 0.55797 0.01499 0.85572 0.0
C997 C 0.54624 0.99071 0.84523 0.0
C998 C 0.58005 0.99 0.92759 0.0
C999 C 0.55706 0.04088 0.83844 0.0
H1000 H 0.54188 0.0923 0.93373 0.0
H1001 H 0.62663 0.08815 0.90793 0.0
H1002 H 0.51581 0.04168 0.89064 0.0
H1003 H 0.52419 0.02419 0.92199 0.0
H1004 H 0.50959 0.05835 0.92326 0.0
H1005 H 0.64439 0.05056 0.88305 0.0
H1006 H 0.62759 0.01822 0.89057 0.0
H1007 H 0.61961 0.03607 0.85938 0.0
H1008 H 0.55571 0.94826 0.90026 0.0
H1009 H 0.5369 0.99102 0.82493 0.0
H1010 H 0.56529 0.00041 0.94163 0.0
H1011 H 0.59992 0.00129 0.92887 0.0
H1012 H 0.58324 0.96857 0.93507 0.0
H1013 H 0.5409 0.05487 0.84662 0.0
H1014 H 0.55228 0.03638 0.8165 0.0
H1015 H 0.577 0.05205 0.8395 0.0
C1016 C 0.44906 0.52854 0.90287 0.0
C1017 C 0.45489 0.52782 0.87455 0.0
C1018 C 0.43856 0.50527 0.91648 0.0
C1019 C 0.43398 0.48068 0.90143 0.0
C1020 C 0.43806 0.4804 0.87254 0.0
C1021 C 0.44834 0.50405 0.85941 0.0
C1022 C 0.4341 0.50649 0.94726 0.0
C1023 C 0.43347 0.45456 0.85577 0.0
C1024 C 0.44467 0.41353 0.93998 0.0
C1025 C 0.41749 0.40484 0.94468 0.0
C1026 C 0.45022 0.4381 0.92584 0.0
C1027 C 0.42804 0.45453 0.91629 0.0
C1028 C 0.40052 0.44597 0.92099 0.0
C1029 C 0.39556 0.42113 0.93507 0.0
C1030 C 0.47989 0.44647 0.9211 0.0
C1031 C 0.37639 0.46308 0.91128 0.0
H1032 H 0.45385 0.5469 0.91469 0.0
H1033 H 0.4527 0.5033 0.83751 0.0
H1034 H 0.4138 0.49749 0.95279 0.0
H1035 H 0.45021 0.4941 0.95778 0.0
H1036 H 0.43509 0.52794 0.95527 0.0
H1037 H 0.4345 0.45859 0.83325 0.0
H1038 H 0.44949 0.4391 0.8611 0.0
H1039 H 0.41312 0.4453 0.86065 0.0
H1040 H 0.46174 0.40105 0.94729 0.0
H1041 H 0.37449 0.41458 0.93868 0.0
H1042 H 0.48393 0.46677 0.93086 0.0
H1043 H 0.48385 0.44877 0.89869 0.0
H1044 H 0.49474 0.43122 0.92961 0.0
H1045 H 0.37735 0.48392 0.92069 0.0
H1046 H 0.35624 0.45354 0.91659 0.0
H1047 H 0.37741 0.46586 0.8886 0.0
C1048 C 0.97053 0.05837 0.10813 0.0
C1049 C 0.94328 0.06501 0.101 0.0
C1050 C 0.97701 0.03291 0.12015 0.0
C1051 C 0.95567 0.01368 0.12536 0.0
C1052 C 0.92791 0.02094 0.11993 0.0
C1053 C 0.92202 0.04653 0.10768 0.0
C1054 C 0.0069 0.02599 0.12572 0.0
C1055 C 0.90459 0.00115 0.12575 0.0
C1056 C 0.9798 0.93967 0.12055 0.0
C1057 C 0.98521 0.93339 0.14823 0.0
C1058 C 0.96884 0.96531 0.11299 0.0
C1059 C 0.96296 0.9851 0.13364 0.0
C1060 C 0.96675 0.97829 0.16175 0.0
C1061 C 0.9779 0.95248 0.16873 0.0
C1062 C 0.96519 0.97181 0.08275 0.0
C1063 C 0.96058 -0.00124 0.18438 0.0
H1064 H 0.98708 0.07261 0.10329 0.0
H1065 H 0.90087 0.05161 0.10246 0.0
H1066 H 0.00953 0.01857 0.14718 0.0
H1067 H 0.01357 0.00908 0.1118 0.0
H1068 H 0.02075 0.04395 0.12246 0.0
H1069 H 0.88408 0.01119 0.12385 0.0
H1070 H 0.90551 0.9837 0.11099 0.0
H1071 H 0.90661 0.9924 0.14679 0.0
H1072 H 0.98526 0.925 0.10459 0.0
H1073 H 0.98199 0.94781 0.1902 0.0
H1074 H 0.97991 0.98824 0.07662 0.0
H1075 H 0.94408 0.9797 0.07878 0.0
H1076 H 0.96878 0.95352 0.06943 0.0
H1077 H 0.97669 0.01501 0.18455 0.0
H1078 H 0.9602 0.98884 0.20502 0.0
H1079 H 0.94045 0.00904 0.18073 0.0
C1080 C 0.98667 0.16901 0.34286 0.0
C1081 C 0.01487 0.16621 0.34884 0.0
C1082 C 0.97436 0.19514 0.34085 0.0
C1083 C 0.99059 0.21902 0.34507 0.0
C1084 C 0.01913 0.21636 0.35077 0.0
C1085 C 0.03094 0.18999 0.35251 0.0
C1086 C 0.9439 0.19717 0.33456 0.0
C1087 C 0.03709 0.24137 0.35548 0.0
C1088 C 0.9654 0.28863 0.31935 0.0
C1089 C 0.95489 0.30042 0.34358 0.0
C1090 C 0.97666 0.26195 0.3194 0.0
C1091 C 0.97761 0.2468 0.34433 0.0
C1092 C 0.96667 0.25842 0.36876 0.0
C1093 C 0.95534 0.28504 0.36807 0.0
C1094 C 0.98791 0.25012 0.29289 0.0
C1095 C 0.96741 0.24294 0.39577 0.0
H1096 H 0.97411 0.15076 0.33987 0.0
H1097 H 0.05273 0.18802 0.35714 0.0
H1098 H 0.93302 0.20715 0.35203 0.0
H1099 H 0.94055 0.21028 0.31612 0.0
H1100 H 0.93439 0.17666 0.33081 0.0
H1101 H 0.05903 0.2358 0.3591 0.0
H1102 H 0.03599 0.25535 0.33741 0.0
H1103 H 0.02946 0.25309 0.37359 0.0
H1104 H 0.96505 0.30033 0.30032 0.0
H1105 H 0.94732 0.294 0.38691 0.0
H1106 H 0.97788 0.23005 0.28837 0.0
H1107 H 0.01035 0.24615 0.29506 0.0
H1108 H 0.98466 0.26412 0.27506 0.0
H1109 H 0.95672 0.22283 0.3936 0.0
H1110 H 0.95755 0.25467 0.4128 0.0
H1111 H 0.98911 0.23851 0.40156 0.0
C1112 C 0.91364 0.70706 0.20758 0.0
C1113 C 0.92624 0.68138 0.21187 0.0
C1114 C 0.92946 0.73124 0.20575 0.0
C1115 C 0.95851 0.72969 0.20846 0.0
C1116 C 0.97113 0.70412 0.21465 0.0
C1117 C 0.95485 0.68025 0.21623 0.0
C1118 C 0.91522 0.75816 0.1992 0.0
C1119 C 0.00202 0.70167 0.21799 0.0
C1120 C 4e-05 0.7823 0.16821 0.0
C1121 C 0.00683 0.8016 0.18865 0.0
C1122 C 0.98459 0.7587 0.17453 0.0
C1123 C 0.97581 0.75416 0.20199 0.0
C1124 C 0.98311 0.7732 0.22287 0.0
C1125 C 0.9985 0.79676 0.21594 0.0
C1126 C 0.97723 0.73885 0.15166 0.0
C1127 C 0.97429 0.7689 0.2524 0.0
H1128 H 0.89155 0.70816 0.20428 0.0
H1129 H 0.96474 0.66052 0.21982 0.0
H1130 H 0.92219 0.77459 0.21351 0.0
H1131 H 0.92078 0.76476 0.17802 0.0
H1132 H 0.8924 0.75644 0.20053 0.0
H1133 H 0.00823 0.68113 0.22604 0.0
H1134 H 0.01216 0.70485 0.19774 0.0
H1135 H 0.00987 0.71781 0.23217 0.0
H1136 H 0.00638 0.78585 0.14709 0.0
H1137 H 0.00371 0.81153 0.23188 0.0
H1138 H 0.95446 0.7375 0.14958 0.0
H1139 H 0.98487 0.71788 0.1567 0.0
H1140 H 0.98602 0.74516 0.13148 0.0
H1141 H 0.95144 0.76922 0.25378 0.0
H1142 H 0.98269 0.78498 0.2664 0.0
H1143 H 0.98123 0.74839 0.25978 0.0
C1144 C 0.36696 0.04412 0.19198 0.0
C1145 C 0.34891 0.03695 0.17053 0.0
C1146 C 0.36758 0.02892 0.21657 0.0
C1147 C 0.34971 0.00604 0.21979 0.0
C1148 C 0.33097 -0.00087 0.19853 0.0
C1149 C 0.33079 0.01467 0.17415 0.0
C1150 C 0.38781 0.03695 0.23886 0.0
C1151 C 0.31154 0.97492 0.20128 0.0
C1152 C 0.37198 0.95087 0.27059 0.0
C1153 C 0.35637 0.95771 0.29395 0.0
C1154 C 0.36968 0.96619 0.24617 0.0
C1155 C 0.3513 0.98885 0.24508 0.0
C1156 C 0.335 0.99548 0.26835 0.0
C1157 C 0.33773 0.97983 0.29252 0.0
C1158 C 0.38734 0.95846 0.22171 0.0
C1159 C 0.31508 0.01943 0.26789 0.0
H1160 H 0.381 0.06132 0.18937 0.0
H1161 H 0.31674 0.00901 0.15771 0.0
H1162 H 0.37677 0.04048 0.25858 0.0
H1163 H 0.40267 0.01988 0.24234 0.0
H1164 H 0.39958 0.05588 0.23356 0.0
H1165 H 0.29738 0.97303 0.18337 0.0
H1166 H 0.32357 0.95554 0.20315 0.0
H1167 H 0.29901 0.97699 0.22031 0.0
H1168 H 0.38639 0.9338 0.27149 0.0
H1169 H 0.32553 0.98523 0.31045 0.0
H1170 H 0.4014 0.97576 0.21654 0.0
H1171 H 0.37416 0.95469 0.20339 0.0
H1172 H 0.39997 0.93974 0.22563 0.0
H1173 H 0.32656 0.03895 0.2646 0.0
H1174 H 0.30313 0.02119 0.28735 0.0
H1175 H 0.30041 0.01715 0.25049 0.0
C1176 C 0.67524 0.46353 0.19042 0.0
C1177 C 0.68977 0.44615 0.17246 0.0
C1178 C 0.68363 0.46699 0.21782 0.0
C1179 C 0.70708 0.4526 0.22764 0.0
C1180 C 0.72238 0.43565 0.20946 0.0
C1181 C 0.71352 0.43261 0.18202 0.0
C1182 C 0.6669 0.48554 0.23647 0.0
C1183 C 0.74752 0.42006 0.21917 0.0
C1184 C 0.73144 0.48125 0.29597 0.0
C1185 C 0.71574 0.46538 0.31438 0.0
C1186 C 0.73078 0.47588 0.26752 0.0
C1187 C 0.71406 0.45417 0.25742 0.0
C1188 C 0.7004 0.43648 0.27617 0.0
C1189 C 0.70138 0.44232 0.30444 0.0
C1190 C 0.74607 0.49494 0.24825 0.0
C1191 C 0.68281 0.41275 0.26628 0.0
H1192 H 0.65704 0.47431 0.18317 0.0
H1193 H 0.72493 0.4192 0.16824 0.0
H1194 H 0.65756 0.47317 0.2533 0.0
H1195 H 0.68046 0.50122 0.24617 0.0
H1196 H 0.6501 0.49636 0.22525 0.0
H1197 H 0.75964 0.41154 0.2017 0.0
H1198 H 0.76112 0.43356 0.23168 0.0
H1199 H 0.74096 0.4027 0.23254 0.0
H1200 H 0.74296 0.49887 0.30351 0.0
H1201 H 0.68964 0.4296 0.31858 0.0
H1202 H 0.73139 0.51029 0.2397 0.0
H1203 H 0.75507 0.48342 0.23067 0.0
H1204 H 0.76283 0.50627 0.25902 0.0
H1205 H 0.66372 0.42093 0.25663 0.0
H1206 H 0.67681 0.39875 0.28338 0.0
H1207 H 0.6939 0.40059 0.25039 0.0
C1208 C 0.28526 0.32656 0.00324 0.0
C1209 C 0.29551 0.33483 0.97749 0.0
C1210 C 0.25712 0.32913 0.00961 0.0
C1211 C 0.23884 0.34034 0.98979 0.0
C1212 C 0.24893 0.34804 0.96352 0.0
C1213 C 0.27712 0.34513 0.95766 0.0
C1214 C 0.24706 0.32047 0.03776 0.0
C1215 C 0.23007 0.36009 0.94184 0.0
C1216 C 0.1616 0.32941 0.99737 0.0
C1217 C 0.15318 0.35454 0.009 0.0
C1218 C 0.18946 0.32435 0.9913 0.0
C1219 C 0.20935 0.34499 0.99684 0.0
C1220 C 0.20102 0.37035 0.00869 0.0
C1221 C 0.17305 0.37479 0.01471 0.0
C1222 C 0.1976 0.29701 0.97879 0.0
C1223 C 0.22163 0.39291 0.01476 0.0
H1224 H 0.29931 0.31849 0.01865 0.0
H1225 H 0.28483 0.35155 0.9377 0.0
H1226 H 0.23908 0.33871 0.04905 0.0
H1227 H 0.22974 0.30564 0.03573 0.0
H1228 H 0.26361 0.31078 0.0503 0.0
H1229 H 0.24095 0.36403 0.92208 0.0
H1230 H 0.21255 0.34591 0.93786 0.0
H1231 H 0.22126 0.37982 0.94937 0.0
H1232 H 0.14641 0.3136 0.99297 0.0
H1233 H 0.16672 0.39428 0.02365 0.0
H1234 H 0.21332 0.28676 0.99189 0.0
H1235 H 0.20708 0.30037 0.95825 0.0
H1236 H 0.17971 0.28288 0.97637 0.0
H1237 H 0.23784 0.38512 0.0289 0.0
H1238 H 0.21185 0.41133 0.02427 0.0
H1239 H 0.23203 0.39935 0.99543 0.0
C1240 C 0.20498 0.66134 0.38815 0.0
C1241 C 0.19226 0.64763 0.41023 0.0
C1242 C 0.23353 0.66651 0.38829 0.0
C1243 C 0.2496 0.6578 0.41105 0.0
C1244 C 0.23682 0.64412 0.43343 0.0
C1245 C 0.20836 0.63919 0.43273 0.0
C1246 C 0.24652 0.68112 0.36408 0.0
C1247 C 0.25322 0.63455 0.45814 0.0
C1248 C 0.32633 0.64379 0.40769 0.0
C1249 C 0.33699 0.66637 0.42232 0.0
C1250 C 0.29799 0.64159 0.40226 0.0
C1251 C 0.2799 0.66247 0.41169 0.0
C1252 C 0.29074 0.68619 0.42481 0.0
C1253 C 0.31919 0.68787 0.42996 0.0
C1254 C 0.28724 0.61604 0.38804 0.0
C1255 C 0.27212 0.70897 0.43503 0.0
H1256 H 0.19268 0.66794 0.3707 0.0
H1257 H 0.19874 0.62866 0.44993 0.0
H1258 H 0.25728 0.70003 0.37119 0.0
H1259 H 0.26228 0.66764 0.35441 0.0
H1260 H 0.2311 0.68697 0.34818 0.0
H1261 H 0.24007 0.62449 0.47397 0.0
H1262 H 0.26932 0.61968 0.45154 0.0
H1263 H 0.26392 0.65233 0.4678 0.0
H1264 H 0.33996 0.62719 0.40145 0.0
H1265 H 0.32726 0.70552 0.44106 0.0
H1266 H 0.27251 0.62166 0.37147 0.0
H1267 H 0.27592 0.6031 0.40314 0.0
H1268 H 0.30412 0.60348 0.37896 0.0
H1269 H 0.25715 0.71503 0.41883 0.0
H1270 H 0.28394 0.72753 0.44146 0.0
H1271 H 0.26008 0.70147 0.45298 0.0
C1272 C 0.70341 0.84752 0.51774 0.0
C1273 C 0.68622 0.8393 0.53949 0.0
C1274 C 0.73155 0.84096 0.51767 0.0
C1275 C 0.74285 0.82585 0.53993 0.0
C1276 C 0.72564 0.81726 0.56187 0.0
C1277 C 0.69746 0.82408 0.56139 0.0
C1278 C 0.74924 0.85047 0.49385 0.0
C1279 C 0.73704 0.80115 0.58594 0.0
C1280 C 0.81182 0.79302 0.52331 0.0
C1281 C 0.8302 0.81329 0.53272 0.0
C1282 C 0.78324 0.79603 0.52693 0.0
C1283 C 0.7729 0.81985 0.54028 0.0
C1284 C 0.79144 0.8395 0.55132 0.0
C1285 C 0.81987 0.83598 0.54742 0.0
C1286 C 0.76409 0.77454 0.51503 0.0
C1287 C 0.78121 0.86509 0.56584 0.0
H1288 H 0.69491 0.85919 0.50068 0.0
H1289 H 0.6843 0.81763 0.57825 0.0
H1290 H 0.76571 0.86443 0.50147 0.0
H1291 H 0.75952 0.83252 0.48407 0.0
H1292 H 0.73713 0.86155 0.47787 0.0
H1293 H 0.72075 0.79527 0.60094 0.0
H1294 H 0.74738 0.78215 0.57849 0.0
H1295 H 0.75286 0.81362 0.59682 0.0
H1296 H 0.81963 0.77532 0.51211 0.0
H1297 H 0.83394 0.8516 0.55503 0.0
H1298 H 0.75313 0.78328 0.49694 0.0
H1299 H 0.74821 0.76855 0.53037 0.0
H1300 H 0.77533 0.75573 0.50833 0.0
H1301 H 0.77093 0.87886 0.55072 0.0
H1302 H 0.79822 0.87675 0.57585 0.0
H1303 H 0.76569 0.85964 0.58173 0.0
C1304 C 0.50192 0.80704 0.86892 0.0
C1305 C 0.49385 0.82029 0.84451 0.0
C1306 C 0.50709 0.77858 0.86944 0.0
C1307 C 0.50402 0.76294 0.84499 0.0
C1308 C 0.49584 0.77615 0.82028 0.0
C1309 C 0.4909 0.80468 0.82032 0.0
C1310 C 0.51588 0.76523 0.89617 0.0
C1311 C 0.49227 0.76012 0.79383 0.0
C1312 C 0.54124 0.6941 0.84152 0.0
C1313 C 0.52006 0.67556 0.84825 0.0
C1314 C 0.53623 0.72257 0.84001 0.0
C1315 C 0.50937 0.73274 0.84534 0.0
C1316 C 0.4878 0.71412 0.8517 0.0
C1317 C 0.4934 0.68576 0.85309 0.0
C1318 C 0.55975 0.7418 0.83314 0.0
C1319 C 0.45888 0.72421 0.85745 0.0
H1320 H 0.5043 0.81893 0.8877 0.0
H1321 H 0.48464 0.81473 0.80138 0.0
H1322 H 0.5009 0.74895 0.90204 0.0
H1323 H 0.53623 0.7551 0.89352 0.0
H1324 H 0.51741 0.78031 0.91335 0.0
H1325 H 0.48575 0.77346 0.77639 0.0
H1326 H 0.51194 0.74984 0.78823 0.0
H1327 H 0.47661 0.74369 0.7967 0.0
H1328 H 0.56189 0.68642 0.8377 0.0
H1329 H 0.47689 0.67159 0.85825 0.0
H1330 H 0.56338 0.75616 0.85058 0.0
H1331 H 0.55441 0.75451 0.81489 0.0
H1332 H 0.57924 0.73054 0.82879 0.0
H1333 H 0.45896 0.73791 0.87577 0.0
H1334 H 0.44424 0.707 0.86125 0.0
H1335 H 0.45121 0.73656 0.83979 0.0
C1336 C 0.45134 0.30616 0.62997 0.0
C1337 C 0.47827 0.31276 0.63834 0.0
C1338 C 0.44241 0.27863 0.62879 0.0
C1339 C 0.46085 0.25722 0.63617 0.0
C1340 C 0.48778 0.2638 0.64536 0.0
C1341 C 0.49616 0.29148 0.64634 0.0
C1342 C 0.4135 0.2724 0.61898 0.0
C1343 C 0.50803 0.24154 0.65346 0.0
C1344 C 0.43407 0.18541 0.65263 0.0
C1345 C 0.43968 0.17126 0.62802 0.0
C1346 C 0.44034 0.21355 0.65543 0.0
C1347 C 0.45251 0.22786 0.6331 0.0
C1348 C 0.45767 0.21384 0.60802 0.0
C1349 C 0.45119 0.18573 0.60578 0.0
C1350 C 0.43447 0.22784 0.68246 0.0
C1351 C 0.47059 0.22841 0.58371 0.0
H1352 H 0.43735 0.32247 0.62381 0.0
H1353 H 0.51696 0.29637 0.65293 0.0
H1354 H 0.41439 0.26062 0.59939 0.0
H1355 H 0.40261 0.25932 0.63426 0.0
H1356 H 0.40121 0.29143 0.61551 0.0
H1357 H 0.52775 0.25015 0.66136 0.0
H1358 H 0.49892 0.22811 0.66958 0.0
H1359 H 0.5126 0.2283 0.63538 0.0
H1360 H 0.42513 0.17441 0.66991 0.0
H1361 H 0.45553 0.17501 0.58666 0.0
H1362 H 0.4215 0.24636 0.67894 0.0
H1363 H 0.45409 0.23498 0.69185 0.0
H1364 H 0.42378 0.21414 0.69739 0.0
H1365 H 0.45816 0.24677 0.57805 0.0
H1366 H 0.47236 0.21481 0.56536 0.0
H1367 H 0.49151 0.23581 0.58934 0.0
C1368 C 0.79832 0.56856 0.80771 0.0
C1369 C 0.82098 0.57213 0.82535 0.0
C1370 C 0.80061 0.57391 0.77936 0.0
C1371 C 0.82614 0.58301 0.76851 0.0
C1372 C 0.84861 0.58804 0.78643 0.0
C1373 C 0.84575 0.58257 0.81463 0.0
C1374 C 0.77614 0.56851 0.76086 0.0
C1375 C 0.87617 0.59784 0.77565 0.0
C1376 C 0.84651 0.56363 0.69573 0.0
C1377 C 0.84334 0.58873 0.68173 0.0
C1378 C 0.84018 0.56136 0.7238 0.0
C1379 C 0.83036 0.58474 0.73825 0.0
C1380 C 0.82629 0.60994 0.7241 0.0
C1381 C 0.83289 0.61166 0.69597 0.0
C1382 C 0.84482 0.5341 0.73819 0.0
C1383 C 0.81569 0.63523 0.73885 0.0
H1384 H 0.77906 0.56065 0.81586 0.0
H1385 H 0.8633 0.58565 0.82814 0.0
H1386 H 0.77263 0.58625 0.74685 0.0
H1387 H 0.78035 0.55021 0.74779 0.0
H1388 H 0.75696 0.56464 0.77279 0.0
H1389 H 0.8908 0.60297 0.79252 0.0
H1390 H 0.88555 0.5815 0.76265 0.0
H1391 H 0.87344 0.61633 0.76248 0.0
H1392 H 0.85444 0.54576 0.68488 0.0
H1393 H 0.83024 0.63109 0.68526 0.0
H1394 H 0.82566 0.52741 0.74876 0.0
H1395 H 0.861 0.53649 0.7542 0.0
H1396 H 0.85132 0.51758 0.72371 0.0
H1397 H 0.79639 0.63032 0.75013 0.0
H1398 H 0.81158 0.65258 0.72447 0.0
H1399 H 0.83107 0.6421 0.75434 0.0
C1400 C 0.2002 0.94332 0.7011 0.0
C1401 C 0.19735 0.96402 0.68111 0.0
C1402 C 0.19662 0.94918 0.72919 0.0
C1403 C 0.19002 0.97638 0.73745 0.0
C1404 C 0.18852 0.99765 0.71753 0.0
C1405 C 0.19224 0.99122 0.68957 0.0
C1406 C 0.1986 0.92599 0.74987 0.0
C1407 C 0.18166 0.02695 0.72558 0.0
C1408 C 0.14795 0.98452 0.80287 0.0
C1409 C 0.16815 0.99237 0.82202 0.0
C1410 C 0.15484 0.97939 0.77527 0.0
C1411 C 0.1826 0.98214 0.76661 0.0
C1412 C 0.2031 0.99011 0.78579 0.0
C1413 C 0.19562 0.99516 0.81328 0.0
C1414 C 0.13238 0.97096 0.75538 0.0
C1415 C 0.23291 0.9932 0.77728 0.0
H1416 H 0.20432 0.92228 0.69477 0.0
H1417 H 0.19013 0.00738 0.67428 0.0
H1418 H 0.21258 0.9318 0.76703 0.0
H1419 H 0.17795 0.92202 0.75892 0.0
H1420 H 0.20625 0.90656 0.74043 0.0
H1421 H 0.18368 0.04148 0.70799 0.0
H1422 H 0.16015 0.02791 0.73335 0.0
H1423 H 0.19535 0.03398 0.7425 0.0
H1424 H 0.12668 0.98235 0.80942 0.0
H1425 H 0.21137 0.00122 0.82795 0.0
H1426 H 0.13716 0.95042 0.7465 0.0
H1427 H 0.13136 0.98581 0.73801 0.0
H1428 H 0.11177 0.96998 0.76535 0.0
H1429 H 0.24078 0.97334 0.7691 0.0
H1430 H 0.24631 -0.00022 0.79466 0.0
H1431 H 0.23467 0.00861 0.76046 0.0
C1432 C 0.81907 0.14017 0.01456 0.0
C1433 C 0.84071 0.15783 0.00707 0.0
C1434 C 0.79242 0.14389 0.00393 0.0
C1435 C 0.78724 0.1659 0.98547 0.0
C1436 C 0.80884 0.18415 0.97823 0.0
C1437 C 0.83537 0.17985 0.98907 0.0
C1438 C 0.7699 0.12396 0.01211 0.0
C1439 C 0.80402 0.20795 0.95876 0.0
C1440 C 0.72527 0.15613 0.93873 0.0
C1441 C 0.70471 0.17056 0.95308 0.0
C1442 C 0.75248 0.15524 0.94856 0.0
C1443 C 0.75931 0.16922 0.97325 0.0
C1444 C 0.73896 0.18485 0.98717 0.0
C1445 C 0.71188 0.1853 0.97693 0.0
C1446 C 0.77365 0.13838 0.93312 0.0
C1447 C 0.74554 0.20021 0.01344 0.0
H1448 H 0.823 0.12311 0.02846 0.0
H1449 H 0.85195 0.19367 0.98326 0.0
H1450 H 0.75234 0.13534 0.02139 0.0
H1451 H 0.76197 0.11317 0.99356 0.0
H1452 H 0.77719 0.10826 0.02712 0.0
H1453 H 0.82273 0.22092 0.95608 0.0
H1454 H 0.79763 0.20002 0.93828 0.0
H1455 H 0.787 0.22114 0.96651 0.0
H1456 H 0.71996 0.14476 0.92023 0.0
H1457 H 0.69616 0.19664 0.98808 0.0
H1458 H 0.7803 0.12069 0.94604 0.0
H1459 H 0.79224 0.151 0.9288 0.0
H1460 H 0.76551 0.13026 0.91331 0.0
H1461 H 0.75054 0.18525 0.03002 0.0
H1462 H 0.72806 0.21327 0.02045 0.0
H1463 H 0.76394 0.2135 0.01051 0.0
C1464 C 0.07666 0.92715 0.21593 0.0
C1465 C 0.07923 0.93312 0.18777 0.0
C1466 C 0.07715 0.94828 0.23568 0.0
C1467 C 0.08029 0.97601 0.22703 0.0
C1468 C 0.08458 0.98199 0.19882 0.0
C1469 C 0.08405 0.96045 0.17953 0.0
C1470 C 0.07265 0.94109 0.26563 0.0
C1471 C 0.08801 0.01126 0.18878 0.0
C1472 C 0.04584 0.02909 0.27284 0.0
C1473 C 0.06813 0.03879 0.28858 0.0
C1474 C 0.0497 0.00925 0.25219 0.0
C1475 C 0.07651 -0.00122 0.24718 0.0
C1476 C 0.09925 0.00922 0.26221 0.0
C1477 C 0.0948 0.02915 0.28274 0.0
C1478 C 0.02493 -0.00116 0.23634 0.0
C1479 C 0.12814 -0.00133 0.25723 0.0
H1480 H 0.07299 0.90609 0.22248 0.0
H1481 H 0.08616 0.96528 0.15782 0.0
H1482 H 0.08865 0.95096 0.27868 0.0
H1483 H 0.05232 0.94912 0.27245 0.0
H1484 H 0.07312 0.91847 0.26927 0.0
H1485 H 0.09489 0.01212 0.16695 0.0
H1486 H 0.06802 0.02228 0.19048 0.0
H1487 H 0.10317 0.02253 0.20171 0.0
H1488 H 0.02518 0.03653 0.27709 0.0
H1489 H 0.11213 0.03655 0.29477 0.0
H1490 H 0.02187 0.97655 0.24052 0.0
H1491 H 0.02841 0.0011 0.21385 0.0
H1492 H 0.00569 0.00998 0.24189 0.0
H1493 H 0.12936 0.97658 0.26305 0.0
H1494 H 0.14382 0.01027 0.26926 0.0
H1495 H 0.13337 0.00013 0.23501 0.0
C1496 C 0.88073 0.42225 0.29007 0.0
C1497 C 0.86497 0.41749 0.31384 0.0
C1498 C 0.87486 0.44444 0.27256 0.0
C1499 C 0.85254 0.4622 0.27884 0.0
C1500 C 0.83483 0.45586 0.30116 0.0
C1501 C 0.84132 0.43356 0.31852 0.0
C1502 C 0.89407 0.4502 0.24871 0.0
C1503 C 0.81035 0.47381 0.30808 0.0
C1504 C 0.87002 0.5351 0.25789 0.0
C1505 C 0.85829 0.53652 0.23151 0.0
C1506 C 0.86649 0.51169 0.27446 0.0
C1507 C 0.85066 0.48923 0.26449 0.0
C1508 C 0.83668 0.49158 0.239 0.0
C1509 C 0.84076 0.51519 0.22271 0.0
C1510 C 0.88153 0.51014 0.3017 0.0
C1511 C 0.81902 0.4684 0.22803 0.0
H1512 H 0.89877 0.40966 0.28603 0.0
H1513 H 0.82884 0.42988 0.33668 0.0
H1514 H 0.88215 0.45408 0.22959 0.0
H1515 H 0.90632 0.46903 0.25315 0.0
H1516 H 0.9086 0.43289 0.2449 0.0
H1517 H 0.79516 0.46271 0.32116 0.0
H1518 H 0.81755 0.49225 0.31955 0.0
H1519 H 0.79981 0.4811 0.28914 0.0
H1520 H 0.88332 0.55159 0.26503 0.0
H1521 H 0.83126 0.51629 0.20251 0.0
H1522 H 0.89842 0.49474 0.30025 0.0
H1523 H 0.86733 0.50326 0.31825 0.0
H1524 H 0.89063 0.53029 0.30774 0.0
H1525 H 0.83251 0.45163 0.22024 0.0
H1526 H 0.80551 0.47534 0.21089 0.0
H1527 H 0.80597 0.45958 0.24462 0.0
C1528 C 0.23971 0.0637 0.95517 0.0
C1529 C 0.21413 0.07566 0.94903 0.0
C1530 C 0.25718 0.07533 0.97504 0.0
C1531 C 0.24864 0.0993 0.9894 0.0
C1532 C 0.22326 0.11204 0.98264 0.0
C1533 C 0.20635 0.10015 0.96236 0.0
C1534 C 0.28434 0.06136 0.98136 0.0
C1535 C 0.21337 0.13742 0.99773 0.0
C1536 C 0.28222 0.10292 0.05953 0.0
C1537 C 0.30482 0.12015 0.05421 0.0
C1538 C 0.26244 0.09765 0.03913 0.0
C1539 C 0.26561 0.10963 0.01271 0.0
C1540 C 0.28714 0.12875 0.00792 0.0
C1541 C 0.30643 0.13397 0.02887 0.0
C1542 C 0.2394 0.0776 0.04524 0.0
C1543 C 0.29124 0.14187 0.98 0.0
H1544 H 0.2459 0.04488 0.94479 0.0
H1545 H 0.18651 0.10941 0.9578 0.0
H1546 H 0.30148 0.07648 0.98026 0.0
H1547 H 0.28395 0.05301 0.00265 0.0
H1548 H 0.28884 0.04414 0.96693 0.0
H1549 H 0.19459 0.14642 0.98815 0.0
H1550 H 0.20855 0.13198 0.01941 0.0
H1551 H 0.22977 0.15337 -0.00178 0.0
H1552 H 0.28078 0.09239 0.07919 0.0
H1553 H 0.3239 0.14727 0.0246 0.0
H1554 H 0.24333 0.05791 0.03426 0.0
H1555 H 0.21939 0.08579 0.03774 0.0
H1556 H 0.2376 0.07313 0.06763 0.0
H1557 H 0.29928 0.12618 0.96541 0.0
H1558 H 0.30612 0.15928 0.98081 0.0
H1559 H 0.27138 0.14951 0.9716 0.0
C1560 C 0.70948 0.43581 0.0294 0.0
C1561 C 0.68117 0.43672 0.02356 0.0
C1562 C 0.72901 0.44309 0.00934 0.0
C1563 C 0.71996 0.45152 0.9829 0.0
C1564 C 0.69153 0.45066 0.97632 0.0
C1565 C 0.67247 0.44317 0.99671 0.0
C1566 C 0.75918 0.44363 0.0171 0.0
C1567 C 0.68105 0.45969 0.94843 0.0
C1568 C 0.76468 0.50547 0.94854 0.0
C1569 C 0.78024 0.48957 0.93004 0.0
C1570 C 0.74459 0.49334 0.96536 0.0
C1571 C 0.73977 0.46461 0.96356 0.0
C1572 C 0.75459 0.44857 0.9442 0.0
C1573 C 0.77476 0.46124 0.92768 0.0
C1574 C 0.72936 0.51116 0.98589 0.0
C1575 C 0.74975 0.41793 0.94156 0.0
H1576 H 0.71636 0.43071 0.05004 0.0
H1577 H 0.65062 0.44391 0.99197 0.0
H1578 H 0.7718 0.43336 0.00103 0.0
H1579 H 0.76628 0.46534 0.01857 0.0
H1580 H 0.76311 0.43337 0.0372 0.0
H1581 H 0.65889 0.45461 0.94546 0.0
H1582 H 0.68358 0.48235 0.94633 0.0
H1583 H 0.6932 0.44987 0.93173 0.0
H1584 H 0.76874 0.52736 0.95055 0.0
H1585 H 0.78664 0.44883 0.91339 0.0
H1586 H 0.73633 0.50601 0.00706 0.0
H1587 H 0.70687 0.5071 0.98494 0.0
H1588 H 0.73294 0.53351 0.98233 0.0
H1589 H 0.75606 0.40746 0.96089 0.0
H1590 H 0.76148 0.40877 0.92415 0.0
H1591 H 0.72746 0.41367 0.93849 0.0
C1592 C 0.31757 0.86617 0.45182 0.0
C1593 C 0.3088 0.88104 0.4286 0.0
C1594 C 0.30215 0.86651 0.47632 0.0
C1595 C 0.27736 0.88187 0.47741 0.0
C1596 C 0.26708 0.89458 0.45322 0.0
C1597 C 0.28295 0.89402 0.42909 0.0
C1598 C 0.31371 0.85257 0.50163 0.0
C1599 C 0.24048 0.9108 0.45339 0.0
C1600 C 0.22712 0.87989 0.53733 0.0
C1601 C 0.23315 0.90495 0.55052 0.0
C1602 C 0.24226 0.87124 0.51421 0.0
C1603 C 0.26402 0.88796 0.5043 0.0
C1604 C 0.27141 0.91227 0.51872 0.0
C1605 C 0.25579 0.92054 0.54157 0.0
C1606 C 0.23382 0.84518 0.49942 0.0
C1607 C 0.29479 0.9305 0.50906 0.0
H1608 H 0.3375 0.85601 0.45163 0.0
H1609 H 0.27591 0.90529 0.41112 0.0
H1610 H 0.32256 0.86842 0.51558 0.0
H1611 H 0.29724 0.84166 0.51317 0.0
H1612 H 0.33023 0.83759 0.49635 0.0
H1613 H 0.23359 0.91629 0.43224 0.0
H1614 H 0.22385 0.8989 0.46365 0.0
H1615 H 0.24345 0.93016 0.46525 0.0
H1616 H 0.20965 0.8677 0.54413 0.0
H1617 H 0.26072 0.93981 0.5518 0.0
H1618 H 0.25216 0.83253 0.49418 0.0
H1619 H 0.22343 0.85064 0.47978 0.0
H1620 H 0.2194 0.83248 0.51191 0.0
H1621 H 0.31347 0.91804 0.50463 0.0
H1622 H 0.30021 0.94648 0.52454 0.0
H1623 H 0.28873 0.94099 0.48965 0.0
C1624 C 0.7751 0.57706 0.55526 0.0
C1625 C 0.80266 0.58569 0.55357 0.0
C1626 C 0.75998 0.57092 0.53137 0.0
C1627 C 0.77276 0.57348 0.50525 0.0
C1628 C 0.79981 0.58423 0.50331 0.0
C1629 C 0.8144 0.59033 0.5275 0.0
C1630 C 0.73101 0.5598 0.53423 0.0
C1631 C 0.81413 0.58732 0.47584 0.0
C1632 C 0.74786 0.5225 0.45157 0.0
C1633 C 0.72955 0.53863 0.43605 0.0
C1634 C 0.76267 0.53387 0.47364 0.0
C1635 C 0.75897 0.56204 0.48042 0.0
C1636 C 0.74134 0.57871 0.46421 0.0
C1637 C 0.72687 0.56681 0.44213 0.0
C1638 C 0.78161 0.51549 0.49021 0.0
C1639 C 0.73701 0.60883 0.47079 0.0
H1640 H 0.76579 0.57361 0.57528 0.0
H1641 H 0.83564 0.59719 0.52593 0.0
H1642 H 0.71683 0.57054 0.51985 0.0
H1643 H 0.73082 0.53758 0.52874 0.0
H1644 H 0.72296 0.56207 0.55555 0.0
H1645 H 0.83332 0.59974 0.4775 0.0
H1646 H 0.81963 0.56661 0.46779 0.0
H1647 H 0.80027 0.59717 0.46054 0.0
H1648 H 0.75018 0.50076 0.44689 0.0
H1649 H 0.71273 0.57941 0.43025 0.0
H1650 H 0.77415 0.5141 0.51179 0.0
H1651 H 0.8027 0.52437 0.49085 0.0
H1652 H 0.78287 0.4943 0.48159 0.0
H1653 H 0.72659 0.61084 0.49105 0.0
H1654 H 0.72427 0.61943 0.45498 0.0
H1655 H 0.75716 0.61958 0.47243 0.0
C1656 C 0.02207 0.30485 0.04555 0.0
C1657 C 0.03423 0.31726 0.06867 0.0
C1658 C 0.00369 0.28275 0.04842 0.0
C1659 C 0.99735 0.27272 0.07506 0.0
C1660 C 0.0097 0.28495 0.09851 0.0
C1661 C 0.02802 0.30712 0.09504 0.0
C1662 C 0.99099 0.27019 0.02288 0.0
C1663 C 0.00348 0.27466 0.12721 0.0
C1664 C 0.93122 0.23099 0.07843 0.0
C1665 C 0.94135 0.2041 0.07522 0.0
C1666 C 0.94933 0.25357 0.0798 0.0
C1667 C 0.97815 0.24903 0.07804 0.0
C1668 C 0.9885 0.22181 0.07639 0.0
C1669 C 0.96998 0.19969 0.07498 0.0
C1670 C 0.93757 0.28234 0.08163 0.0
C1671 C 0.01909 0.21611 0.07462 0.0
H1672 H 0.0267 0.31256 0.02509 0.0
H1673 H 0.03729 0.31665 0.11301 0.0
H1674 H 0.99652 0.24803 0.02151 0.0
H1675 H 0.96816 0.27146 0.02406 0.0
H1676 H 0.99788 0.28062 0.00369 0.0
H1677 H 0.01479 0.28642 0.1433 0.0
H1678 H 0.98103 0.27627 0.13137 0.0
H1679 H 0.00911 0.25255 0.12897 0.0
H1680 H 0.90914 0.23454 0.07872 0.0
H1681 H 0.978 0.17893 0.0728 0.0
H1682 H 0.94128 0.29336 0.06193 0.0
H1683 H 0.94804 0.29422 0.09815 0.0
H1684 H 0.91503 0.28223 0.08577 0.0
H1685 H 0.02713 0.22371 0.0546 0.0
H1686 H 0.02386 0.19376 0.07632 0.0
H1687 H 0.0303 0.22728 0.09114 0.0
C1688 C 0.04764 0.69456 0.42268 0.0
C1689 C 0.03982 0.66675 0.42404 0.0
C1690 C 0.02844 0.71565 0.42774 0.0
C1691 C 0.00079 0.70871 0.4342 0.0
C1692 C 0.99244 0.68077 0.43397 0.0
C1693 C 0.01205 0.66012 0.42891 0.0
C1694 C 0.03813 0.74524 0.42785 0.0
C1695 C 0.96313 0.67255 0.44064 0.0
C1696 C 0.96244 0.75706 0.48213 0.0
C1697 C 0.94588 0.77206 0.46376 0.0
C1698 C 0.98028 0.73639 0.47269 0.0
C1699 C 0.98146 0.73032 0.44418 0.0
C1700 C 0.96439 0.74492 0.42554 0.0
C1701 C 0.94684 0.76572 0.43555 0.0
C1702 C 0.99821 0.72134 0.49324 0.0
C1703 C 0.96499 0.73885 0.39503 0.0
H1704 H 0.06904 0.69987 0.41893 0.0
H1705 H 0.00576 0.63869 0.42989 0.0
H1706 H 0.024 0.75834 0.41551 0.0
H1707 H 0.03791 0.75327 0.44927 0.0
H1708 H 0.05938 0.74741 0.41952 0.0
H1709 H 0.95933 0.65025 0.43697 0.0
H1710 H 0.95871 0.67714 0.46261 0.0
H1711 H 0.94837 0.68469 0.42806 0.0
H1712 H 0.96194 0.76183 0.50396 0.0
H1713 H 0.93412 0.77722 0.42121 0.0
H1714 H 0.0203 0.72464 0.48825 0.0
H1715 H 0.99425 0.69885 0.49199 0.0
H1716 H 0.99449 0.72825 0.51475 0.0
H1717 H 0.98589 0.74309 0.38671 0.0
H1718 H 0.94976 0.75139 0.38337 0.0
H1719 H 0.96061 0.71669 0.39133 0.0
C1720 C 0.5457 0.79471 0.52863 0.0
C1721 C 0.53668 0.82206 0.52602 0.0
C1722 C 0.52748 0.7726 0.52444 0.0
C1723 C 0.49962 0.77802 0.51749 0.0
C1724 C 0.49007 0.80557 0.51624 0.0
C1725 C 0.50871 0.82725 0.52057 0.0
C1726 C 0.53839 0.74348 0.52605 0.0
C1727 C 0.46058 0.81226 0.50873 0.0
C1728 C 0.46384 0.7243 0.47338 0.0
C1729 C 0.44809 0.70992 0.49292 0.0
C1730 C 0.48035 0.74674 0.48111 0.0
C1731 C 0.48119 0.75501 0.50908 0.0
C1732 C 0.4649 0.74102 0.52883 0.0
C1733 C 0.44852 0.7186 0.52052 0.0
C1734 C 0.49738 0.76121 0.45942 0.0
C1735 C 0.46512 0.74948 0.55878 0.0
H1736 H 0.56725 0.79052 0.5329 0.0
H1737 H 0.50151 0.84832 0.51862 0.0
H1738 H 0.52498 0.73069 0.53948 0.0
H1739 H 0.53813 0.73404 0.50521 0.0
H1740 H 0.55982 0.74268 0.53413 0.0
H1741 H 0.45538 0.83417 0.51298 0.0
H1742 H 0.45738 0.80834 0.48641 0.0
H1743 H 0.446 0.79889 0.52022 0.0
H1744 H 0.46364 0.71779 0.45201 0.0
H1745 H 0.43639 0.70764 0.53575 0.0
H1746 H 0.51964 0.75783 0.46358 0.0
H1747 H 0.49367 0.78376 0.46021 0.0
H1748 H 0.4927 0.75375 0.43827 0.0
H1749 H 0.48621 0.74713 0.56735 0.0
H1750 H 0.45063 0.73703 0.57143 0.0
H1751 H 0.45944 0.77157 0.56073 0.0
C1752 C 0.53539 0.54267 0.77697 0.0
C1753 C 0.54849 0.53462 0.80146 0.0
C1754 C 0.53369 0.52465 0.7544 0.0
C1755 C 0.54506 0.49783 0.75651 0.0
C1756 C 0.55915 0.48992 0.7808 0.0
C1757 C 0.56086 0.50849 0.80293 0.0
C1758 C 0.51889 0.53398 0.72864 0.0
C1759 C 0.57134 0.46143 0.7839 0.0
C1760 C 0.51234 0.4433 0.71085 0.0
C1761 C 0.53145 0.44144 0.68923 0.0
C1762 C 0.51688 0.46109 0.73322 0.0
C1763 C 0.54096 0.47763 0.73381 0.0
C1764 C 0.5606 0.47543 0.71236 0.0
C1765 C 0.55569 0.45723 0.6904 0.0
C1766 C 0.49562 0.4626 0.75594 0.0
C1767 C 0.58641 0.49289 0.71219 0.0
H1768 H 0.52588 0.56287 0.77565 0.0
H1769 H 0.57092 0.50204 0.82181 0.0
H1770 H 0.53211 0.53061 0.71028 0.0
H1771 H 0.49988 0.52155 0.72573 0.0
H1772 H 0.51303 0.55612 0.72952 0.0
H1773 H 0.58314 0.4591 0.8034 0.0
H1774 H 0.55457 0.44585 0.78362 0.0
H1775 H 0.58524 0.45675 0.76635 0.0
H1776 H 0.49361 0.4311 0.71015 0.0
H1777 H 0.57052 0.45601 0.67372 0.0
H1778 H 0.48648 0.48357 0.75662 0.0
H1779 H 0.50553 0.45884 0.77622 0.0
H1780 H 0.47872 0.44738 0.75309 0.0
H1781 H 0.58071 0.51503 0.71102 0.0
H1782 H 0.60015 0.48794 0.69454 0.0
H1783 H 0.59811 0.48992 0.73161 0.0
C1784 C 0.39878 0.95227 0.81324 0.0
C1785 C 0.42429 0.93894 0.81006 0.0
C1786 C 0.38875 0.97028 0.7929 0.0
C1787 C 0.4045 0.9748 0.76877 0.0
C1788 C 0.42955 0.96028 0.76483 0.0
C1789 C 0.43921 0.94263 0.78559 0.0
C1790 C 0.36203 0.9855 0.79787 0.0
C1791 C 0.44677 0.96425 0.73918 0.0
C1792 C 0.37575 0.00849 0.70429 0.0
C1793 C 0.38807 0.03465 0.70565 0.0
C1794 C 0.37974 0.98909 0.72541 0.0
C1795 C 0.39614 0.9962 0.74849 0.0
C1796 C 0.40689 0.02325 0.75087 0.0
C1797 C 0.40286 0.0421 0.72934 0.0
C1798 C 0.368 0.96044 0.72209 0.0
C1799 C 0.4241 0.03179 0.77539 0.0
H1800 H 0.38716 0.94957 0.83213 0.0
H1801 H 0.45883 0.93224 0.78291 0.0
H1802 H 0.36641 0.00774 0.80101 0.0
H1803 H 0.3483 0.98377 0.77966 0.0
H1804 H 0.35088 0.97762 0.81626 0.0
H1805 H 0.46454 0.94979 0.73831 0.0
H1806 H 0.43394 0.96121 0.72049 0.0
H1807 H 0.45483 0.98566 0.73856 0.0
H1808 H 0.36435 0.00255 0.686 0.0
H1809 H 0.41223 0.06236 0.7306 0.0
H1810 H 0.35781 0.9536 0.74138 0.0
H1811 H 0.38501 0.94574 0.71778 0.0
H1812 H 0.35286 0.95926 0.70494 0.0
H1813 H 0.41352 0.02619 0.79488 0.0
H1814 H 0.42837 0.0543 0.77555 0.0
H1815 H 0.44409 0.02064 0.77498 0.0
C1816 C 0.43916 0.26379 0.94278 0.0
C1817 C 0.43099 0.28647 0.92679 0.0
C1818 C 0.46293 0.24868 0.9362 0.0
C1819 C 0.47894 0.25645 0.91305 0.0
C1820 C 0.46995 0.27827 0.89589 0.0
C1821 C 0.44601 0.29301 0.90294 0.0
C1822 C 0.47171 0.22537 0.95494 0.0
C1823 C 0.48646 0.28712 0.87103 0.0
C1824 C 0.55452 0.23836 0.92104 0.0
C1825 C 0.5561 0.21325 0.90675 0.0
C1826 C 0.52983 0.25341 0.922 0.0
C1827 C 0.50616 0.24312 0.90832 0.0
C1828 C 0.50812 0.21883 0.89227 0.0
C1829 C 0.53312 0.20421 0.8916 0.0
C1830 C 0.52865 0.27939 0.93916 0.0
C1831 C 0.48335 0.20725 0.87737 0.0
H1832 H 0.4276 0.25847 0.96116 0.0
H1833 H 0.43987 0.31049 0.89044 0.0
H1834 H 0.47636 0.2066 0.94272 0.0
H1835 H 0.49086 0.23123 0.96605 0.0
H1836 H 0.45564 0.22022 0.97044 0.0
H1837 H 0.47509 0.3022 0.85806 0.0
H1838 H 0.50603 0.29679 0.87794 0.0
H1839 H 0.49197 0.26901 0.85819 0.0
H1840 H 0.57219 0.24561 0.93267 0.0
H1841 H 0.53412 0.18486 0.88045 0.0
H1842 H 0.51569 0.27575 0.95766 0.0
H1843 H 0.519 0.29639 0.92727 0.0
H1844 H 0.54943 0.28614 0.94609 0.0
H1845 H 0.46846 0.19899 0.89265 0.0
H1846 H 0.48908 0.19035 0.86299 0.0
H1847 H 0.47262 0.22365 0.86558 0.0
loop_
_geom_bond_atom_site_label_1
_geom_bond_atom_site_label_2
_geom_bond_distance
_geom_bond_site_symmetry_2
_ccdc_geom_bond_type
C0 O1 1.160 1_655 S
C0 O7 1.185 . S
O1 C0 1.160 1_455 S
O2 Zn3 1.899 . S
O2 C10 1.284 1_655 S
Zn3 O2 1.899 . S
Zn3 O4 2.032 1_655 S
Zn3 O7 2.086 . S
Zn3 O12 1.977 . S
O4 Zn3 2.032 1_455 S
O4 C8 1.278 . S
C5 O6 1.203 . S
C5 O12 1.267 . S
O6 C5 1.203 . S
O7 C0 1.185 . S
O7 Zn3 2.086 . S
C8 O4 1.278 . S
C8 O9 1.211 . S
O9 C8 1.211 . S
C10 O2 1.284 1_455 S
C10 O11 1.273 . S
O11 C10 1.273 . S
O12 Zn3 1.977 . S
O12 C5 1.267 . S
C13 O14 1.160 1_455 S
C13 O20 1.185 . S
O14 C13 1.160 1_655 S
O15 Zn16 1.899 . S
O15 C23 1.284 1_455 S
Zn16 O15 1.899 . S
Zn16 O17 2.032 1_455 S
Zn16 O20 2.086 . S
Zn16 O25 1.977 . S
O17 Zn16 2.032 1_655 S
O17 C21 1.278 . S
C18 O19 1.203 . S
C18 O25 1.267 . S
O19 C18 1.203 . S
O20 C13 1.185 . S
O20 Zn16 2.086 . S
C21 O17 1.278 . S
C21 O22 1.211 . S
O22 C21 1.211 . S
C23 O15 1.284 1_655 S
C23 O24 1.273 . S
O24 C23 1.273 . S
O25 Zn16 1.977 . S
O25 C18 1.267 . S
C26 O27 1.160 1_655 S
C26 O33 1.185 . S
O27 C26 1.160 1_455 S
O28 Zn29 1.899 . S
O28 C36 1.284 1_655 S
Zn29 O28 1.899 . S
Zn29 O30 2.032 1_655 S
Zn29 O33 2.086 . S
Zn29 O38 1.977 . S
O30 Zn29 2.032 1_455 S
O30 C34 1.278 . S
C31 O32 1.203 . S
C31 O38 1.267 . S
O32 C31 1.203 . S
O33 C26 1.185 . S
O33 Zn29 2.086 . S
C34 O30 1.278 . S
C34 O35 1.211 . S
O35 C34 1.211 . S
C36 O28 1.284 1_455 S
C36 O37 1.273 . S
O37 C36 1.273 . S
O38 Zn29 1.977 . S
O38 C31 1.267 . S
C39 O40 1.160 1_455 S
C39 O46 1.185 . S
O40 C39 1.160 1_655 S
O41 Zn42 1.899 . S
O41 C49 1.284 1_455 S
Zn42 O41 1.899 . S
Zn42 O43 2.032 1_455 S
Zn42 O46 2.086 . S
Zn42 O51 1.977 . S
O43 Zn42 2.032 1_655 S
O43 C47 1.278 . S
C44 O45 1.203 . S
C44 O51 1.267 . S
O45 C44 1.203 . S
O46 C39 1.185 . S
O46 Zn42 2.086 . S
C47 O43 1.278 . S
C47 O48 1.211 . S
O48 C47 1.211 . S
C49 O41 1.284 1_655 S
C49 O50 1.273 . S
O50 C49 1.273 . S
O51 Zn42 1.977 . S
O51 C44 1.267 . S
C52 O53 1.160 1_565 S
C52 O59 1.185 . S
O53 C52 1.160 1_545 S
O54 Zn55 1.899 . S
O54 C62 1.284 1_565 S
Zn55 O54 1.899 . S
Zn55 O56 2.032 1_565 S
Zn55 O59 2.086 . S
Zn55 O64 1.977 . S
O56 Zn55 2.032 1_545 S
O56 C60 1.278 . S
C57 O58 1.203 . S
C57 O64 1.267 . S
O58 C57 1.203 . S
O59 C52 1.185 . S
O59 Zn55 2.086 . S
C60 O56 1.278 . S
C60 O61 1.211 . S
O61 C60 1.211 . S
C62 O54 1.284 1_545 S
C62 O63 1.273 . S
O63 C62 1.273 . S
O64 Zn55 1.977 . S
O64 C57 1.267 . S
C65 O66 1.160 . S
C65 O72 1.185 . S
O66 C65 1.160 . S
O67 Zn68 1.899 . S
O67 C75 1.284 . S
Zn68 O67 1.899 . S
Zn68 O69 2.032 . S
Zn68 O72 2.086 . S
Zn68 O77 1.977 . S
O69 Zn68 2.032 . S
O69 C73 1.278 . S
C70 O71 1.203 . S
C70 O77 1.267 . S
O71 C70 1.203 . S
O72 C65 1.185 . S
O72 Zn68 2.086 . S
C73 O69 1.278 . S
C73 O74 1.211 . S
O74 C73 1.211 . S
C75 O67 1.284 . S
C75 O76 1.273 . S
O76 C75 1.273 . S
O77 Zn68 1.977 . S
O77 C70 1.267 . S
C78 O79 1.160 1_545 S
C78 O85 1.185 . S
O79 C78 1.160 1_565 S
O80 Zn81 1.899 . S
O80 C88 1.284 1_545 S
Zn81 O80 1.899 . S
Zn81 O82 2.032 1_545 S
Zn81 O85 2.086 . S
Zn81 O90 1.977 . S
O82 Zn81 2.032 1_565 S
O82 C86 1.278 . S
C83 O84 1.203 . S
C83 O90 1.267 . S
O84 C83 1.203 . S
O85 C78 1.185 . S
O85 Zn81 2.086 . S
C86 O82 1.278 . S
C86 O87 1.211 . S
O87 C86 1.211 . S
C88 O80 1.284 1_565 S
C88 O89 1.273 . S
O89 C88 1.273 . S
O90 Zn81 1.977 . S
O90 C83 1.267 . S
C91 O92 1.160 . S
C91 O98 1.185 . S
O92 C91 1.160 . S
O93 Zn94 1.899 . S
O93 C101 1.284 . S
Zn94 O93 1.899 . S
Zn94 O95 2.032 . S
Zn94 O98 2.086 . S
Zn94 O103 1.977 . S
O95 Zn94 2.032 . S
O95 C99 1.278 . S
C96 O97 1.203 . S
C96 O103 1.267 . S
O97 C96 1.203 . S
O98 C91 1.185 . S
O98 Zn94 2.086 . S
C99 O95 1.278 . S
C99 O100 1.211 . S
O100 C99 1.211 . S
C101 O93 1.284 . S
C101 O102 1.273 . S
O102 C101 1.273 . S
O103 Zn94 1.977 . S
O103 C96 1.267 . S
C104 O105 1.160 1_556 S
C104 O111 1.185 . S
O105 C104 1.160 1_554 S
O106 Zn107 1.899 . S
O106 C114 1.284 1_556 S
Zn107 O106 1.899 . S
Zn107 O108 2.032 1_556 S
Zn107 O111 2.086 . S
Zn107 O116 1.977 . S
O108 Zn107 2.032 1_554 S
O108 C112 1.278 . S
C109 O110 1.203 . S
C109 O116 1.267 . S
O110 C109 1.203 . S
O111 C104 1.185 . S
O111 Zn107 2.086 . S
C112 O108 1.278 . S
C112 O113 1.211 . S
O113 C112 1.211 . S
C114 O106 1.284 1_554 S
C114 O115 1.273 . S
O115 C114 1.273 . S
O116 Zn107 1.977 . S
O116 C109 1.267 . S
C117 O118 1.160 . S
C117 O124 1.185 . S
O118 C117 1.160 . S
O119 Zn120 1.899 . S
O119 C127 1.284 . S
Zn120 O119 1.899 . S
Zn120 O121 2.032 . S
Zn120 O124 2.086 . S
Zn120 O129 1.977 . S
O121 Zn120 2.032 . S
O121 C125 1.278 . S
C122 O123 1.203 . S
C122 O129 1.267 . S
O123 C122 1.203 . S
O124 C117 1.185 . S
O124 Zn120 2.086 . S
C125 O121 1.278 . S
C125 O126 1.211 . S
O126 C125 1.211 . S
C127 O119 1.284 . S
C127 O128 1.273 . S
O128 C127 1.273 . S
O129 Zn120 1.977 . S
O129 C122 1.267 . S
C130 O131 1.160 . S
C130 O137 1.185 . S
O131 C130 1.160 . S
O132 Zn133 1.899 . S
O132 C140 1.284 . S
Zn133 O132 1.899 . S
Zn133 O134 2.032 . S
Zn133 O137 2.086 . S
Zn133 O142 1.977 . S
O134 Zn133 2.032 . S
O134 C138 1.278 . S
C135 O136 1.203 . S
C135 O142 1.267 . S
O136 C135 1.203 . S
O137 C130 1.185 . S
O137 Zn133 2.086 . S
C138 O134 1.278 . S
C138 O139 1.211 . S
O139 C138 1.211 . S
C140 O132 1.284 . S
C140 O141 1.273 . S
O141 C140 1.273 . S
O142 Zn133 1.977 . S
O142 C135 1.267 . S
C143 O144 1.160 . S
C143 O150 1.185 . S
O144 C143 1.160 . S
O145 Zn146 1.899 . S
O145 C153 1.284 . S
Zn146 O145 1.899 . S
Zn146 O147 2.032 . S
Zn146 O150 2.086 . S
Zn146 O155 1.977 . S
O147 Zn146 2.032 . S
O147 C151 1.278 . S
C148 O149 1.203 . S
C148 O155 1.267 . S
O149 C148 1.203 . S
O150 C143 1.185 . S
O150 Zn146 2.086 . S
C151 O147 1.278 . S
C151 O152 1.211 . S
O152 C151 1.211 . S
C153 O145 1.284 . S
C153 O154 1.273 . S
O154 C153 1.273 . S
O155 Zn146 1.977 . S
O155 C148 1.267 . S
C156 O157 1.160 . S
C156 O163 1.185 . S
O157 C156 1.160 . S
O158 Zn159 1.899 . S
O158 C166 1.284 . S
Zn159 O158 1.899 . S
Zn159 O160 2.032 . S
Zn159 O163 2.086 . S
Zn159 O168 1.977 . S
O160 Zn159 2.032 . S
O160 C164 1.278 . S
C161 O162 1.203 . S
C161 O168 1.267 . S
O162 C161 1.203 . S
O163 C156 1.185 . S
O163 Zn159 2.086 . S
C164 O160 1.278 . S
C164 O165 1.211 . S
O165 C164 1.211 . S
C166 O158 1.284 . S
C166 O167 1.273 . S
O167 C166 1.273 . S
O168 Zn159 1.977 . S
O168 C161 1.267 . S
C169 O170 1.160 . S
C169 O176 1.185 . S
O170 C169 1.160 . S
O171 Zn172 1.899 . S
O171 C179 1.284 . S
Zn172 O171 1.899 . S
Zn172 O173 2.032 . S
Zn172 O176 2.086 . S
Zn172 O181 1.977 . S
O173 Zn172 2.032 . S
O173 C177 1.278 . S
C174 O175 1.203 . S
C174 O181 1.267 . S
O175 C174 1.203 . S
O176 C169 1.185 . S
O176 Zn172 2.086 . S
C177 O173 1.278 . S
C177 O178 1.211 . S
O178 C177 1.211 . S
C179 O171 1.284 . S
C179 O180 1.273 . S
O180 C179 1.273 . S
O181 Zn172 1.977 . S
O181 C174 1.267 . S
C182 O183 1.160 . S
C182 O189 1.185 . S
O183 C182 1.160 . S
O184 Zn185 1.899 . S
O184 C192 1.284 . S
Zn185 O184 1.899 . S
Zn185 O186 2.032 . S
Zn185 O189 2.086 . S
Zn185 O194 1.977 . S
O186 Zn185 2.032 . S
O186 C190 1.278 . S
C187 O188 1.203 . S
C187 O194 1.267 . S
O188 C187 1.203 . S
O189 C182 1.185 . S
O189 Zn185 2.086 . S
C190 O186 1.278 . S
C190 O191 1.211 . S
O191 C190 1.211 . S
C192 O184 1.284 . S
C192 O193 1.273 . S
O193 C192 1.273 . S
O194 Zn185 1.977 . S
O194 C187 1.267 . S
C195 O196 1.160 . S
C195 O202 1.185 . S
O196 C195 1.160 . S
O197 Zn198 1.899 . S
O197 C205 1.284 . S
Zn198 O197 1.899 . S
Zn198 O199 2.032 . S
Zn198 O202 2.086 . S
Zn198 O207 1.977 . S
O199 Zn198 2.032 . S
O199 C203 1.278 . S
C200 O201 1.203 . S
C200 O207 1.267 . S
O201 C200 1.203 . S
O202 C195 1.185 . S
O202 Zn198 2.086 . S
C203 O199 1.278 . S
C203 O204 1.211 . S
O204 C203 1.211 . S
C205 O197 1.284 . S
C205 O206 1.273 . S
O206 C205 1.273 . S
O207 Zn198 1.977 . S
O207 C200 1.267 . S
C208 O209 1.160 . S
C208 O215 1.185 . S
O209 C208 1.160 . S
O210 Zn211 1.899 . S
O210 C218 1.284 . S
Zn211 O210 1.899 . S
Zn211 O212 2.032 . S
Zn211 O215 2.086 . S
Zn211 O220 1.977 . S
O212 Zn211 2.032 . S
O212 C216 1.278 . S
C213 O214 1.203 . S
C213 O220 1.267 . S
O214 C213 1.203 . S
O215 C208 1.185 . S
O215 Zn211 2.086 . S
C216 O212 1.278 . S
C216 O217 1.211 . S
O217 C216 1.211 . S
C218 O210 1.284 . S
C218 O219 1.273 . S
O219 C218 1.273 . S
O220 Zn211 1.977 . S
O220 C213 1.267 . S
C221 O222 1.160 1_545 S
C221 O228 1.185 . S
O222 C221 1.160 1_565 S
O223 Zn224 1.899 . S
O223 C231 1.284 1_545 S
Zn224 O223 1.899 . S
Zn224 O225 2.032 1_545 S
Zn224 O228 2.086 . S
Zn224 O233 1.977 . S
O225 Zn224 2.032 1_565 S
O225 C229 1.278 . S
C226 O227 1.203 . S
C226 O233 1.267 . S
O227 C226 1.203 . S
O228 C221 1.185 . S
O228 Zn224 2.086 . S
C229 O225 1.278 . S
C229 O230 1.211 . S
O230 C229 1.211 . S
C231 O223 1.284 1_565 S
C231 O232 1.273 . S
O232 C231 1.273 . S
O233 Zn224 1.977 . S
O233 C226 1.267 . S
C234 O235 1.160 . S
C234 O241 1.185 . S
O235 C234 1.160 . S
O236 Zn237 1.899 . S
O236 C244 1.284 . S
Zn237 O236 1.899 . S
Zn237 O238 2.032 . S
Zn237 O241 2.086 . S
Zn237 O246 1.977 . S
O238 Zn237 2.032 . S
O238 C242 1.278 . S
C239 O240 1.203 . S
C239 O246 1.267 . S
O240 C239 1.203 . S
O241 C234 1.185 . S
O241 Zn237 2.086 . S
C242 O238 1.278 . S
C242 O243 1.211 . S
O243 C242 1.211 . S
C244 O236 1.284 . S
C244 O245 1.273 . S
O245 C244 1.273 . S
O246 Zn237 1.977 . S
O246 C239 1.267 . S
C247 O248 1.160 1_565 S
C247 O254 1.185 . S
O248 C247 1.160 1_545 S
O249 Zn250 1.899 . S
O249 C257 1.284 1_565 S
Zn250 O249 1.899 . S
Zn250 O251 2.032 1_565 S
Zn250 O254 2.086 . S
Zn250 O259 1.977 . S
O251 Zn250 2.032 1_545 S
O251 C255 1.278 . S
C252 O253 1.203 . S
C252 O259 1.267 . S
O253 C252 1.203 . S
O254 C247 1.185 . S
O254 Zn250 2.086 . S
C255 O251 1.278 . S
C255 O256 1.211 . S
O256 C255 1.211 . S
C257 O249 1.284 1_545 S
C257 O258 1.273 . S
O258 C257 1.273 . S
O259 Zn250 1.977 . S
O259 C252 1.267 . S
C260 O261 1.160 . S
C260 O267 1.185 . S
O261 C260 1.160 . S
O262 Zn263 1.899 . S
O262 C270 1.284 . S
Zn263 O262 1.899 . S
Zn263 O264 2.032 . S
Zn263 O267 2.086 . S
Zn263 O272 1.977 . S
O264 Zn263 2.032 . S
O264 C268 1.278 . S
C265 O266 1.203 . S
C265 O272 1.267 . S
O266 C265 1.203 . S
O267 C260 1.185 . S
O267 Zn263 2.086 . S
C268 O264 1.278 . S
C268 O269 1.211 . S
O269 C268 1.211 . S
C270 O262 1.284 . S
C270 O271 1.273 . S
O271 C270 1.273 . S
O272 Zn263 1.977 . S
O272 C265 1.267 . S
C273 O274 1.160 1_554 S
C273 O280 1.185 . S
O274 C273 1.160 1_556 S
O275 Zn276 1.899 . S
O275 C283 1.284 1_554 S
Zn276 O275 1.899 . S
Zn276 O277 2.032 1_554 S
Zn276 O280 2.086 . S
Zn276 O285 1.977 . S
O277 Zn276 2.032 1_556 S
O277 C281 1.278 . S
C278 O279 1.203 . S
C278 O285 1.267 . S
O279 C278 1.203 . S
O280 C273 1.185 . S
O280 Zn276 2.086 . S
C281 O277 1.278 . S
C281 O282 1.211 . S
O282 C281 1.211 . S
C283 O275 1.284 1_556 S
C283 O284 1.273 . S
O284 C283 1.273 . S
O285 Zn276 1.977 . S
O285 C278 1.267 . S
C286 O287 1.160 1_554 S
C286 O293 1.185 . S
O287 C286 1.160 1_556 S
O288 Zn289 1.899 . S
O288 C296 1.284 1_554 S
Zn289 O288 1.899 . S
Zn289 O290 2.032 1_554 S
Zn289 O293 2.086 . S
Zn289 O298 1.977 . S
O290 Zn289 2.032 1_556 S
O290 C294 1.278 . S
C291 O292 1.203 . S
C291 O298 1.267 . S
O292 C291 1.203 . S
O293 C286 1.185 . S
O293 Zn289 2.086 . S
C294 O290 1.278 . S
C294 O295 1.211 . S
O295 C294 1.211 . S
C296 O288 1.284 1_556 S
C296 O297 1.273 . S
O297 C296 1.273 . S
O298 Zn289 1.977 . S
O298 C291 1.267 . S
C299 O300 1.160 1_556 S
C299 O306 1.185 . S
O300 C299 1.160 1_554 S
O301 Zn302 1.899 . S
O301 C309 1.284 1_556 S
Zn302 O301 1.899 . S
Zn302 O303 2.032 1_556 S
Zn302 O306 2.086 . S
Zn302 O311 1.977 . S
O303 Zn302 2.032 1_554 S
O303 C307 1.278 . S
C304 O305 1.203 . S
C304 O311 1.267 . S
O305 C304 1.203 . S
O306 C299 1.185 . S
O306 Zn302 2.086 . S
C307 O303 1.278 . S
C307 O308 1.211 . S
O308 C307 1.211 . S
C309 O301 1.284 1_554 S
C309 O310 1.273 . S
O310 C309 1.273 . S
O311 Zn302 1.977 . S
O311 C304 1.267 . S
C312 C313 1.391 . S
C312 C314 1.394 . S
C312 H328 0.931 . S
C313 C312 1.391 . S
C313 C317 1.376 . S
C314 C312 1.394 . S
C314 C315 1.369 . S
C314 C318 1.531 . S
C315 C314 1.369 . S
C315 C316 1.410 . S
C315 C323 1.503 . S
C316 C315 1.410 . S
C316 C317 1.392 . S
C316 C319 1.511 . S
C317 C313 1.376 . S
C317 C316 1.392 . S
C317 H329 0.929 . S
C318 C314 1.531 . S
C318 H330 0.960 . S
C318 H331 0.962 . S
C318 H332 0.960 . S
C319 C316 1.511 . S
C319 H333 0.961 . S
C319 H334 0.961 . S
C319 H335 0.961 . S
C320 C321 1.370 . S
C320 C322 1.363 . S
C320 H336 0.931 . S
C321 C320 1.370 . S
C321 C325 1.408 . S
C322 C320 1.363 . S
C322 C323 1.370 . S
C322 C326 1.524 . S
C323 C315 1.503 . S
C323 C322 1.370 . S
C323 C324 1.403 . S
C324 C323 1.403 . S
C324 C325 1.404 . S
C324 C327 1.539 . S
C325 C321 1.408 . S
C325 C324 1.404 . S
C325 H337 0.930 . S
C326 C322 1.524 . S
C326 H338 0.956 . S
C326 H339 0.961 . S
C326 H340 0.961 . S
C327 C324 1.539 . S
C327 H341 0.958 . S
C327 H342 0.961 . S
C327 H343 0.960 . S
H328 C312 0.931 . S
H329 C317 0.929 . S
H330 C318 0.960 . S
H331 C318 0.962 . S
H332 C318 0.960 . S
H333 C319 0.961 . S
H334 C319 0.961 . S
H335 C319 0.961 . S
H336 C320 0.931 . S
H337 C325 0.930 . S
H338 C326 0.956 . S
H339 C326 0.961 . S
H340 C326 0.961 . S
H341 C327 0.958 . S
H342 C327 0.961 . S
H343 C327 0.960 . S
C344 C345 1.391 . S
C344 C346 1.394 . S
C344 H360 0.931 . S
C345 C344 1.391 . S
C345 C349 1.376 . S
C346 C344 1.394 . S
C346 C347 1.369 . S
C346 C350 1.531 . S
C347 C346 1.369 . S
C347 C348 1.410 . S
C347 C355 1.503 . S
C348 C347 1.410 . S
C348 C349 1.392 . S
C348 C351 1.511 . S
C349 C345 1.376 . S
C349 C348 1.392 . S
C349 H361 0.929 . S
C350 C346 1.531 . S
C350 H362 0.960 . S
C350 H363 0.962 . S
C350 H364 0.960 . S
C351 C348 1.511 . S
C351 H365 0.961 . S
C351 H366 0.961 . S
C351 H367 0.961 . S
C352 C353 1.370 . S
C352 C354 1.363 . S
C352 H368 0.931 . S
C353 C352 1.370 . S
C353 C357 1.408 . S
C354 C352 1.363 . S
C354 C355 1.370 . S
C354 C358 1.524 . S
C355 C347 1.503 . S
C355 C354 1.370 . S
C355 C356 1.403 . S
C356 C355 1.403 . S
C356 C357 1.404 . S
C356 C359 1.539 . S
C357 C353 1.408 . S
C357 C356 1.404 . S
C357 H369 0.930 . S
C358 C354 1.524 . S
C358 H370 0.956 . S
C358 H371 0.961 . S
C358 H372 0.961 . S
C359 C356 1.539 . S
C359 H373 0.958 . S
C359 H374 0.961 . S
C359 H375 0.960 . S
H360 C344 0.931 . S
H361 C349 0.929 . S
H362 C350 0.960 . S
H363 C350 0.962 . S
H364 C350 0.960 . S
H365 C351 0.961 . S
H366 C351 0.961 . S
H367 C351 0.961 . S
H368 C352 0.931 . S
H369 C357 0.930 . S
H370 C358 0.956 . S
H371 C358 0.961 . S
H372 C358 0.961 . S
H373 C359 0.958 . S
H374 C359 0.961 . S
H375 C359 0.960 . S
C376 C377 1.391 . S
C376 C378 1.394 . S
C376 H392 0.931 . S
C377 C376 1.391 . S
C377 C381 1.376 . S
C378 C376 1.394 . S
C378 C379 1.369 . S
C378 C382 1.531 . S
C379 C378 1.369 . S
C379 C380 1.410 . S
C379 C387 1.503 . S
C380 C379 1.410 . S
C380 C381 1.392 . S
C380 C383 1.511 . S
C381 C377 1.376 . S
C381 C380 1.392 . S
C381 H393 0.929 . S
C382 C378 1.531 . S
C382 H394 0.960 . S
C382 H395 0.962 . S
C382 H396 0.960 . S
C383 C380 1.511 . S
C383 H397 0.961 . S
C383 H398 0.961 . S
C383 H399 0.961 . S
C384 C385 1.370 . S
C384 C386 1.363 . S
C384 H400 0.931 . S
C385 C384 1.370 . S
C385 C389 1.408 . S
C386 C384 1.363 . S
C386 C387 1.370 1_556 S
C386 C390 1.524 1_556 S
C387 C379 1.503 . S
C387 C386 1.370 1_554 S
C387 C388 1.403 1_554 S
C388 C387 1.403 1_556 S
C388 C389 1.404 . S
C388 C391 1.539 1_556 S
C389 C385 1.408 . S
C389 C388 1.404 . S
C389 H401 0.930 . S
C390 C386 1.524 1_554 S
C390 H402 0.956 . S
C390 H403 0.961 . S
C390 H404 0.961 . S
C391 C388 1.539 1_554 S
C391 H405 0.958 . S
C391 H406 0.961 1_554 S
C391 H407 0.960 . S
H392 C376 0.931 . S
H393 C381 0.929 . S
H394 C382 0.960 . S
H395 C382 0.962 . S
H396 C382 0.960 . S
H397 C383 0.961 . S
H398 C383 0.961 . S
H399 C383 0.961 . S
H400 C384 0.931 . S
H401 C389 0.930 . S
H402 C390 0.956 . S
H403 C390 0.961 . S
H404 C390 0.961 . S
H405 C391 0.958 . S
H406 C391 0.961 1_556 S
H407 C391 0.960 . S
C408 C409 1.391 . S
C408 C410 1.394 . S
C408 H424 0.931 . S
C409 C408 1.391 . S
C409 C413 1.376 . S
C410 C408 1.394 . S
C410 C411 1.369 . S
C410 C414 1.531 . S
C411 C410 1.369 . S
C411 C412 1.410 . S
C411 C419 1.503 . S
C412 C411 1.410 . S
C412 C413 1.392 . S
C412 C415 1.511 . S
C413 C409 1.376 . S
C413 C412 1.392 . S
C413 H425 0.929 . S
C414 C410 1.531 . S
C414 H426 0.960 . S
C414 H427 0.962 . S
C414 H428 0.960 . S
C415 C412 1.511 . S
C415 H429 0.961 . S
C415 H430 0.961 . S
C415 H431 0.961 . S
C416 C417 1.370 . S
C416 C418 1.363 . S
C416 H432 0.931 . S
C417 C416 1.370 . S
C417 C421 1.408 . S
C418 C416 1.363 . S
C418 C419 1.370 1_556 S
C418 C422 1.524 1_556 S
C419 C411 1.503 . S
C419 C418 1.370 1_554 S
C419 C420 1.403 1_554 S
C420 C419 1.403 1_556 S
C420 C421 1.404 . S
C420 C423 1.543 . S
C421 C417 1.408 . S
C421 C420 1.404 . S
C421 H433 0.930 . S
C422 C418 1.524 1_554 S
C422 H434 0.956 . S
C422 H435 0.961 . S
C422 H436 0.961 . S
C423 C420 1.543 . S
C423 H437 0.953 1_556 S
C423 H438 0.972 . S
C423 H439 0.950 1_556 S
H424 C408 0.931 . S
H425 C413 0.929 . S
H426 C414 0.960 . S
H427 C414 0.962 . S
H428 C414 0.960 . S
H429 C415 0.961 . S
H430 C415 0.961 . S
H431 C415 0.961 . S
H432 C416 0.931 . S
H433 C421 0.930 . S
H434 C422 0.956 . S
H435 C422 0.961 . S
H436 C422 0.961 . S
H437 C423 0.953 1_554 S
H438 C423 0.972 . S
H439 C423 0.950 1_554 S
C440 C441 1.391 . S
C440 C442 1.394 . S
C440 H456 0.931 . S
C441 C440 1.391 . S
C441 C445 1.376 . S
C442 C440 1.394 . S
C442 C443 1.369 . S
C442 C446 1.531 . S
C443 C442 1.369 . S
C443 C444 1.410 . S
C443 C451 1.503 . S
C444 C443 1.410 . S
C444 C445 1.392 . S
C444 C447 1.511 . S
C445 C441 1.376 . S
C445 C444 1.392 . S
C445 H457 0.929 . S
C446 C442 1.531 . S
C446 H458 0.960 . S
C446 H459 0.962 . S
C446 H460 0.960 . S
C447 C444 1.511 . S
C447 H461 0.961 . S
C447 H462 0.961 . S
C447 H463 0.961 . S
C448 C449 1.370 . S
C448 C450 1.363 . S
C448 H464 0.931 . S
C449 C448 1.370 . S
C449 C453 1.408 . S
C450 C448 1.363 . S
C450 C451 1.370 . S
C450 C454 1.524 . S
C451 C443 1.503 . S
C451 C450 1.370 . S
C451 C452 1.403 . S
C452 C451 1.403 . S
C452 C453 1.404 . S
C452 C455 1.539 . S
C453 C449 1.408 . S
C453 C452 1.404 . S
C453 H465 0.930 . S
C454 C450 1.524 . S
C454 H466 0.956 . S
C454 H467 0.961 . S
C454 H468 0.961 . S
C455 C452 1.539 . S
C455 H469 0.958 . S
C455 H470 0.961 . S
C455 H471 0.960 . S
H456 C440 0.931 . S
H457 C445 0.929 . S
H458 C446 0.960 . S
H459 C446 0.962 . S
H460 C446 0.960 . S
H461 C447 0.961 . S
H462 C447 0.961 . S
H463 C447 0.961 . S
H464 C448 0.931 . S
H465 C453 0.930 . S
H466 C454 0.956 . S
H467 C454 0.961 . S
H468 C454 0.961 . S
H469 C455 0.958 . S
H470 C455 0.961 . S
H471 C455 0.960 . S
C472 C473 1.391 . S
C472 C474 1.394 . S
C472 H488 0.931 . S
C473 C472 1.391 . S
C473 C477 1.376 . S
C474 C472 1.394 . S
C474 C475 1.369 . S
C474 C478 1.531 . S
C475 C474 1.369 . S
C475 C476 1.410 . S
C475 C483 1.503 . S
C476 C475 1.410 . S
C476 C477 1.392 . S
C476 C479 1.511 . S
C477 C473 1.376 . S
C477 C476 1.392 . S
C477 H489 0.929 . S
C478 C474 1.531 . S
C478 H490 0.960 . S
C478 H491 0.962 . S
C478 H492 0.960 . S
C479 C476 1.511 . S
C479 H493 0.961 . S
C479 H494 0.961 . S
C479 H495 0.961 . S
C480 C481 1.370 . S
C480 C482 1.363 . S
C480 H496 0.931 . S
C481 C480 1.370 . S
C481 C485 1.408 . S
C482 C480 1.363 . S
C482 C483 1.370 . S
C482 C486 1.524 . S
C483 C475 1.503 . S
C483 C482 1.370 . S
C483 C484 1.403 . S
C484 C483 1.403 . S
C484 C485 1.404 . S
C484 C487 1.539 . S
C485 C481 1.408 . S
C485 C484 1.404 . S
C485 H497 0.930 . S
C486 C482 1.524 . S
C486 H498 0.956 . S
C486 H499 0.961 . S
C486 H500 0.987 . S
C487 C484 1.539 . S
C487 H501 0.958 . S
C487 H502 0.961 . S
C487 H503 0.960 . S
H488 C472 0.931 . S
H489 C477 0.929 . S
H490 C478 0.960 . S
H491 C478 0.962 . S
H492 C478 0.960 . S
H493 C479 0.961 . S
H494 C479 0.961 . S
H495 C479 0.961 . S
H496 C480 0.931 . S
H497 C485 0.930 . S
H498 C486 0.956 . S
H499 C486 0.961 . S
H500 C486 0.987 . S
H501 C487 0.958 . S
H502 C487 0.961 . S
H503 C487 0.960 . S
C504 C505 1.391 . S
C504 C506 1.394 . S
C504 H520 0.931 . S
C505 C504 1.391 . S
C505 C509 1.376 . S
C506 C504 1.394 . S
C506 C507 1.369 . S
C506 C510 1.531 . S
C507 C506 1.369 . S
C507 C508 1.410 . S
C507 C515 1.503 . S
C508 C507 1.410 . S
C508 C509 1.392 . S
C508 C511 1.511 . S
C509 C505 1.376 . S
C509 C508 1.392 . S
C509 H521 0.929 . S
C510 C506 1.531 . S
C510 H522 0.960 . S
C510 H523 0.962 . S
C510 H524 0.960 . S
C511 C508 1.511 . S
C511 H525 0.961 . S
C511 H526 0.961 . S
C511 H527 0.961 . S
C512 C513 1.370 . S
C512 C514 1.363 . S
C512 H528 0.931 . S
C513 C512 1.370 . S
C513 C517 1.408 . S
C514 C512 1.363 . S
C514 C515 1.370 . S
C514 C518 1.524 . S
C515 C507 1.503 . S
C515 C514 1.370 . S
C515 C516 1.403 . S
C516 C515 1.403 . S
C516 C517 1.404 . S
C516 C519 1.539 . S
C517 C513 1.408 . S
C517 C516 1.404 . S
C517 H529 0.930 . S
C518 C514 1.524 . S
C518 H530 0.956 . S
C518 H531 0.961 . S
C518 H532 0.961 . S
C519 C516 1.539 . S
C519 H533 0.958 . S
C519 H534 0.961 . S
C519 H535 0.960 . S
H520 C504 0.931 . S
H521 C509 0.929 . S
H522 C510 0.960 . S
H523 C510 0.962 . S
H524 C510 0.960 . S
H525 C511 0.961 . S
H526 C511 0.961 . S
H527 C511 0.961 . S
H528 C512 0.931 . S
H529 C517 0.930 . S
H530 C518 0.956 . S
H531 C518 0.961 . S
H532 C518 0.961 . S
H533 C519 0.958 . S
H534 C519 0.961 . S
H535 C519 0.960 . S
C536 C537 1.391 . S
C536 C538 1.394 . S
C536 H552 0.931 . S
C537 C536 1.391 . S
C537 C541 1.376 . S
C538 C536 1.394 . S
C538 C539 1.369 . S
C538 C542 1.531 . S
C539 C538 1.369 . S
C539 C540 1.410 . S
C539 C547 1.503 . S
C540 C539 1.410 . S
C540 C541 1.392 . S
C540 C543 1.511 . S
C541 C537 1.376 . S
C541 C540 1.392 . S
C541 H553 0.929 . S
C542 C538 1.531 . S
C542 H554 0.960 . S
C542 H555 0.962 . S
C542 H556 0.960 . S
C543 C540 1.511 . S
C543 H557 0.961 . S
C543 H558 0.961 . S
C543 H559 0.961 . S
C544 C545 1.370 . S
C544 C546 1.363 . S
C544 H560 0.931 . S
C545 C544 1.370 . S
C545 C549 1.408 . S
C546 C544 1.363 . S
C546 C547 1.370 . S
C546 C550 1.524 . S
C547 C539 1.503 . S
C547 C546 1.370 . S
C547 C548 1.403 . S
C548 C547 1.403 . S
C548 C549 1.404 . S
C548 C551 1.539 . S
C549 C545 1.408 . S
C549 C548 1.404 . S
C549 H561 0.930 . S
C550 C546 1.524 . S
C550 H562 0.956 . S
C550 H563 0.961 . S
C550 H564 0.961 . S
C551 C548 1.539 . S
C551 H565 0.958 . S
C551 H566 0.961 . S
C551 H567 0.960 . S
H552 C536 0.931 . S
H553 C541 0.929 . S
H554 C542 0.960 . S
H555 C542 0.962 . S
H556 C542 0.960 . S
H557 C543 0.961 . S
H558 C543 0.961 . S
H559 C543 0.961 . S
H560 C544 0.931 . S
H561 C549 0.930 . S
H562 C550 0.956 . S
H563 C550 0.961 . S
H564 C550 0.961 . S
H565 C551 0.958 . S
H566 C551 0.961 . S
H567 C551 0.960 . S
C568 C569 1.391 . S
C568 C570 1.394 . S
C568 H584 0.931 . S
C569 C568 1.391 . S
C569 C573 1.376 . S
C570 C568 1.394 . S
C570 C571 1.369 . S
C570 C574 1.531 . S
C571 C570 1.369 . S
C571 C572 1.410 . S
C571 C579 1.503 . S
C572 C571 1.410 . S
C572 C573 1.392 . S
C572 C575 1.511 . S
C573 C569 1.376 . S
C573 C572 1.392 . S
C573 H585 0.929 . S
C574 C570 1.531 . S
C574 H586 0.960 . S
C574 H587 0.962 . S
C574 H588 0.960 . S
C575 C572 1.511 . S
C575 H589 0.961 . S
C575 H590 0.961 . S
C575 H591 0.961 . S
C576 C577 1.370 . S
C576 C578 1.363 . S
C576 H592 0.931 . S
C577 C576 1.370 . S
C577 C581 1.408 . S
C578 C576 1.363 . S
C578 C579 1.370 . S
C578 C582 1.524 . S
C579 C571 1.503 . S
C579 C578 1.370 . S
C579 C580 1.403 . S
C580 C579 1.403 . S
C580 C581 1.404 . S
C580 C583 1.539 . S
C581 C577 1.408 . S
C581 C580 1.404 . S
C581 H593 0.930 . S
C582 C578 1.524 . S
C582 H594 0.956 . S
C582 H595 0.961 . S
C582 H596 0.961 . S
C583 C580 1.539 . S
C583 H597 0.958 . S
C583 H598 0.961 . S
C583 H599 0.960 . S
H584 C568 0.931 . S
H585 C573 0.929 . S
H586 C574 0.960 . S
H587 C574 0.962 . S
H588 C574 0.960 . S
H589 C575 0.961 . S
H590 C575 0.961 . S
H591 C575 0.961 . S
H592 C576 0.931 . S
H593 C581 0.930 . S
H594 C582 0.956 . S
H595 C582 0.961 . S
H596 C582 0.961 . S
H597 C583 0.958 . S
H598 C583 0.961 . S
H599 C583 0.960 . S
C600 C601 1.391 . S
C600 C602 1.394 . S
C600 H616 0.931 . S
C601 C600 1.391 . S
C601 C605 1.376 . S
C602 C600 1.394 . S
C602 C603 1.369 . S
C602 C606 1.531 . S
C603 C602 1.369 . S
C603 C604 1.410 . S
C603 C611 1.503 . S
C604 C603 1.410 . S
C604 C605 1.392 . S
C604 C607 1.511 . S
C605 C601 1.376 . S
C605 C604 1.392 . S
C605 H617 0.929 . S
C606 C602 1.531 . S
C606 H618 0.960 . S
C606 H619 0.962 . S
C606 H620 0.960 . S
C607 C604 1.511 . S
C607 H621 0.961 . S
C607 H622 0.961 . S
C607 H623 0.961 . S
C608 C609 1.370 . S
C608 C610 1.363 . S
C608 H624 0.931 . S
C609 C608 1.370 . S
C609 C613 1.408 . S
C610 C608 1.363 . S
C610 C611 1.370 . S
C610 C614 1.524 . S
C611 C603 1.503 . S
C611 C610 1.370 . S
C611 C612 1.403 . S
C612 C611 1.403 . S
C612 C613 1.404 . S
C612 C615 1.539 . S
C613 C609 1.408 . S
C613 C612 1.404 . S
C613 H625 0.930 . S
C614 C610 1.524 . S
C614 H626 0.956 . S
C614 H627 0.961 . S
C614 H628 0.961 . S
C615 C612 1.539 . S
C615 H629 0.958 . S
C615 H630 0.961 . S
C615 H631 0.960 . S
H616 C600 0.931 . S
H617 C605 0.929 . S
H618 C606 0.960 . S
H619 C606 0.962 . S
H620 C606 0.960 . S
H621 C607 0.961 . S
H622 C607 0.961 . S
H623 C607 0.961 . S
H624 C608 0.931 . S
H625 C613 0.930 . S
H626 C614 0.956 . S
H627 C614 0.961 . S
H628 C614 0.961 . S
H629 C615 0.958 . S
H630 C615 0.961 . S
H631 C615 0.960 . S
C632 C633 1.391 . S
C632 C634 1.394 . S
C632 H648 0.931 . S
C633 C632 1.391 . S
C633 C637 1.376 . S
C634 C632 1.394 . S
C634 C635 1.369 . S
C634 C638 1.531 . S
C635 C634 1.369 . S
C635 C636 1.410 . S
C635 C643 1.503 . S
C636 C635 1.410 . S
C636 C637 1.392 . S
C636 C639 1.511 . S
C637 C633 1.376 . S
C637 C636 1.392 . S
C637 H649 0.929 . S
C638 C634 1.531 . S
C638 H650 0.960 . S
C638 H651 0.962 . S
C638 H652 0.960 . S
C639 C636 1.511 . S
C639 H653 0.961 . S
C639 H654 0.961 . S
C639 H655 0.961 . S
C640 C641 1.370 . S
C640 C642 1.363 1_545 S
C640 H656 0.931 . S
C641 C640 1.370 . S
C641 C645 1.408 . S
C642 C640 1.363 1_565 S
C642 C643 1.370 . S
C642 C646 1.524 . S
C643 C635 1.503 . S
C643 C642 1.370 . S
C643 C644 1.403 1_565 S
C644 C643 1.403 1_545 S
C644 C645 1.404 . S
C644 C647 1.539 . S
C645 C641 1.408 . S
C645 C644 1.404 . S
C645 H657 0.930 . S
C646 C642 1.524 . S
C646 H658 0.956 . S
C646 H659 0.961 . S
C646 H660 0.961 . S
C647 C644 1.539 . S
C647 H661 0.958 . S
C647 H662 0.961 . S
C647 H663 0.960 1_545 S
H648 C632 0.931 . S
H649 C637 0.929 . S
H650 C638 0.960 . S
H651 C638 0.962 . S
H652 C638 0.960 . S
H653 C639 0.961 . S
H654 C639 0.961 . S
H655 C639 0.961 . S
H656 C640 0.931 . S
H657 C645 0.930 . S
H658 C646 0.956 . S
H659 C646 0.961 . S
H660 C646 0.961 . S
H661 C647 0.958 . S
H662 C647 0.961 . S
H663 C647 0.960 1_565 S
C664 C665 1.391 . S
C664 C666 1.394 . S
C664 H680 0.931 . S
C665 C664 1.391 . S
C665 C669 1.376 . S
C666 C664 1.394 . S
C666 C667 1.369 . S
C666 C670 1.531 . S
C667 C666 1.369 . S
C667 C668 1.410 . S
C667 C675 1.503 . S
C668 C667 1.410 . S
C668 C669 1.392 . S
C668 C671 1.511 . S
C669 C665 1.376 . S
C669 C668 1.392 . S
C669 H681 0.929 . S
C670 C666 1.531 . S
C670 H682 0.960 . S
C670 H683 0.962 . S
C670 H684 0.960 . S
C671 C668 1.511 . S
C671 H685 0.961 . S
C671 H686 0.961 . S
C671 H687 0.961 . S
C672 C673 1.370 . S
C672 C674 1.363 . S
C672 H688 0.931 . S
C673 C672 1.370 . S
C673 C677 1.408 . S
C674 C672 1.363 . S
C674 C675 1.370 . S
C674 C678 1.524 . S
C675 C667 1.503 . S
C675 C674 1.370 . S
C675 C676 1.403 . S
C676 C675 1.403 . S
C676 C677 1.404 . S
C676 C679 1.539 . S
C677 C673 1.408 . S
C677 C676 1.404 . S
C677 H689 0.930 . S
C678 C674 1.524 . S
C678 H690 0.956 . S
C678 H691 0.961 . S
C678 H692 0.961 . S
C679 C676 1.539 . S
C679 H693 0.958 . S
C679 H694 0.961 . S
C679 H695 0.960 . S
H680 C664 0.931 . S
H681 C669 0.929 . S
H682 C670 0.960 . S
H683 C670 0.962 . S
H684 C670 0.960 . S
H685 C671 0.961 . S
H686 C671 0.961 . S
H687 C671 0.961 . S
H688 C672 0.931 . S
H689 C677 0.930 . S
H690 C678 0.956 . S
H691 C678 0.961 . S
H692 C678 0.961 . S
H693 C679 0.958 . S
H694 C679 0.961 . S
H695 C679 0.960 . S
C696 C697 1.391 . S
C696 C698 1.394 . S
C696 H712 0.931 . S
C697 C696 1.391 . S
C697 C701 1.376 . S
C698 C696 1.394 . S
C698 C699 1.369 1_554 S
C698 C702 1.535 . S
C699 C698 1.369 1_556 S
C699 C700 1.410 . S
C699 C707 1.503 . S
C700 C699 1.410 . S
C700 C701 1.392 1_556 S
C700 C703 1.511 . S
C701 C697 1.376 . S
C701 C700 1.392 1_554 S
C701 H713 0.929 . S
C702 C698 1.535 . S
C702 H714 0.943 1_554 S
C702 H715 0.965 . S
C702 H716 0.971 . S
C703 C700 1.511 . S
C703 H717 0.961 . S
C703 H718 0.961 . S
C703 H719 0.961 . S
C704 C705 1.370 . S
C704 C706 1.363 . S
C704 H720 0.931 . S
C705 C704 1.370 . S
C705 C709 1.408 . S
C706 C704 1.363 . S
C706 C707 1.370 . S
C706 C710 1.524 . S
C707 C699 1.503 . S
C707 C706 1.370 . S
C707 C708 1.403 . S
C708 C707 1.403 . S
C708 C709 1.404 . S
C708 C711 1.539 . S
C709 C705 1.408 . S
C709 C708 1.404 . S
C709 H721 0.930 . S
C710 C706 1.524 . S
C710 H722 0.956 . S
C710 H723 0.961 . S
C710 H724 0.961 . S
C711 C708 1.539 . S
C711 H725 0.958 . S
C711 H726 0.961 . S
C711 H727 0.960 . S
H712 C696 0.931 . S
H713 C701 0.929 . S
H714 C702 0.943 1_556 S
H715 C702 0.965 . S
H716 C702 0.971 . S
H717 C703 0.961 . S
H718 C703 0.961 . S
H719 C703 0.961 . S
H720 C704 0.931 . S
H721 C709 0.930 . S
H722 C710 0.956 . S
H723 C710 0.961 . S
H724 C710 0.961 . S
H725 C711 0.958 . S
H726 C711 0.961 . S
H727 C711 0.960 . S
C728 C729 1.391 . S
C728 C730 1.375 1_554 S
C728 H744 0.931 . S
C729 C728 1.391 . S
C729 C733 1.376 . S
C730 C728 1.375 1_556 S
C730 C731 1.379 . S
C730 C734 1.539 . S
C731 C730 1.379 . S
C731 C732 1.410 . S
C731 C739 1.503 . S
C732 C731 1.410 . S
C732 C733 1.392 1_556 S
C732 C735 1.511 . S
C733 C729 1.376 . S
C733 C732 1.392 1_554 S
C733 H745 0.929 . S
C734 C730 1.539 . S
C734 H746 0.960 . S
C734 H747 0.962 . S
C734 H748 0.960 . S
C735 C732 1.511 . S
C735 H749 0.961 1_565 S
C735 H750 0.961 . S
C735 H751 0.961 . S
C736 C737 1.370 . S
C736 C738 1.363 . S
C736 H752 0.931 . S
C737 C736 1.370 . S
C737 C741 1.408 . S
C738 C736 1.363 . S
C738 C739 1.370 . S
C738 C742 1.524 . S
C739 C731 1.503 . S
C739 C738 1.370 . S
C739 C740 1.403 . S
C740 C739 1.403 . S
C740 C741 1.404 . S
C740 C743 1.539 . S
C741 C737 1.408 . S
C741 C740 1.404 . S
C741 H753 0.930 . S
C742 C738 1.524 . S
C742 H754 0.956 . S
C742 H755 0.961 . S
C742 H756 0.961 . S
C743 C740 1.539 . S
C743 H757 0.958 . S
C743 H758 0.961 . S
C743 H759 0.960 . S
H744 C728 0.931 . S
H745 C733 0.929 . S
H746 C734 0.960 . S
H747 C734 0.962 . S
H748 C734 0.960 . S
H749 C735 0.961 1_545 S
H750 C735 0.961 . S
H751 C735 0.961 . S
H752 C736 0.931 . S
H753 C741 0.930 . S
H754 C742 0.956 . S
H755 C742 0.961 . S
H756 C742 0.961 . S
H757 C743 0.958 . S
H758 C743 0.961 . S
H759 C743 0.960 . S
C760 C761 1.391 . S
C760 C762 1.394 . S
C760 H776 0.931 . S
C761 C760 1.391 . S
C761 C765 1.376 . S
C762 C760 1.394 . S
C762 C763 1.369 . S
C762 C766 1.531 . S
C763 C762 1.369 . S
C763 C764 1.410 . S
C763 C771 1.503 . S
C764 C763 1.410 . S
C764 C765 1.392 . S
C764 C767 1.511 . S
C765 C761 1.376 . S
C765 C764 1.392 . S
C765 H777 0.929 . S
C766 C762 1.531 . S
C766 H778 0.960 . S
C766 H779 0.962 . S
C766 H780 0.960 . S
C767 C764 1.511 . S
C767 H781 0.961 . S
C767 H782 0.961 . S
C767 H783 0.961 . S
C768 C769 1.370 . S
C768 C770 1.363 . S
C768 H784 0.931 . S
C769 C768 1.370 . S
C769 C773 1.408 . S
C770 C768 1.363 . S
C770 C771 1.370 . S
C770 C774 1.524 . S
C771 C763 1.503 . S
C771 C770 1.370 . S
C771 C772 1.403 . S
C772 C771 1.403 . S
C772 C773 1.404 . S
C772 C775 1.539 . S
C773 C769 1.408 . S
C773 C772 1.404 . S
C773 H785 0.930 . S
C774 C770 1.524 . S
C774 H786 0.956 . S
C774 H787 0.961 . S
C774 H788 0.961 . S
C775 C772 1.539 . S
C775 H789 0.958 . S
C775 H790 0.961 . S
C775 H791 0.960 . S
H776 C760 0.931 . S
H777 C765 0.929 . S
H778 C766 0.960 . S
H779 C766 0.962 . S
H780 C766 0.960 . S
H781 C767 0.961 . S
H782 C767 0.961 . S
H783 C767 0.961 . S
H784 C768 0.931 . S
H785 C773 0.930 . S
H786 C774 0.956 . S
H787 C774 0.961 . S
H788 C774 0.961 . S
H789 C775 0.958 . S
H790 C775 0.961 . S
H791 C775 0.960 . S
C792 C793 1.391 . S
C792 C794 1.394 . S
C792 H808 0.931 . S
C793 C792 1.391 . S
C793 C797 1.376 . S
C794 C792 1.394 . S
C794 C795 1.369 . S
C794 C798 1.531 . S
C795 C794 1.369 . S
C795 C796 1.410 . S
C795 C803 1.503 . S
C796 C795 1.410 . S
C796 C797 1.392 . S
C796 C799 1.511 . S
C797 C793 1.376 . S
C797 C796 1.392 . S
C797 H809 0.929 . S
C798 C794 1.531 . S
C798 H810 0.960 . S
C798 H811 0.962 . S
C798 H812 0.960 . S
C799 C796 1.511 . S
C799 H813 0.961 . S
C799 H814 0.961 . S
C799 H815 0.961 . S
C800 C801 1.370 . S
C800 C802 1.363 . S
C800 H816 0.931 . S
C801 C800 1.370 . S
C801 C805 1.408 . S
C802 C800 1.363 . S
C802 C803 1.370 . S
C802 C806 1.524 . S
C803 C795 1.503 . S
C803 C802 1.370 . S
C803 C804 1.403 . S
C804 C803 1.403 . S
C804 C805 1.404 . S
C804 C807 1.539 . S
C805 C801 1.408 . S
C805 C804 1.404 . S
C805 H817 0.930 . S
C806 C802 1.524 . S
C806 H818 0.956 . S
C806 H819 0.961 . S
C806 H820 0.961 . S
C807 C804 1.539 . S
C807 H821 0.958 1_545 S
C807 H822 0.961 1_545 S
C807 H823 0.960 . S
H808 C792 0.931 . S
H809 C797 0.929 . S
H810 C798 0.960 . S
H811 C798 0.962 . S
H812 C798 0.960 . S
H813 C799 0.961 . S
H814 C799 0.961 . S
H815 C799 0.961 . S
H816 C800 0.931 . S
H817 C805 0.930 . S
H818 C806 0.956 . S
H819 C806 0.961 . S
H820 C806 0.961 . S
H821 C807 0.958 1_565 S
H822 C807 0.961 1_565 S
H823 C807 0.960 . S
C824 C825 1.391 . S
C824 C826 1.394 1_455 S
C824 H840 0.931 . S
C825 C824 1.391 . S
C825 C829 1.376 . S
C826 C824 1.394 1_655 S
C826 C827 1.369 . S
C826 C830 1.531 . S
C827 C826 1.369 . S
C827 C828 1.410 1_655 S
C827 C835 1.503 . S
C828 C827 1.410 1_455 S
C828 C829 1.392 . S
C828 C831 1.518 . S
C829 C825 1.376 . S
C829 C828 1.392 . S
C829 H841 0.929 . S
C830 C826 1.531 . S
C830 H842 0.960 . S
C830 H843 0.962 . S
C830 H844 0.960 . S
C831 C828 1.518 . S
C831 H845 0.987 . S
C831 H846 0.939 1_455 S
C831 H847 0.950 1_455 S
C832 C833 1.370 . S
C832 C834 1.363 . S
C832 H848 0.931 . S
C833 C832 1.370 . S
C833 C837 1.408 . S
C834 C832 1.363 . S
C834 C835 1.370 . S
C834 C838 1.524 . S
C835 C827 1.503 . S
C835 C834 1.370 . S
C835 C836 1.403 . S
C836 C835 1.403 . S
C836 C837 1.404 . S
C836 C839 1.539 . S
C837 C833 1.408 . S
C837 C836 1.404 . S
C837 H849 0.930 . S
C838 C834 1.524 . S
C838 H850 0.956 . S
C838 H851 0.961 . S
C838 H852 0.961 . S
C839 C836 1.539 . S
C839 H853 0.958 . S
C839 H854 0.961 . S
C839 H855 0.960 . S
H840 C824 0.931 . S
H841 C829 0.929 . S
H842 C830 0.960 . S
H843 C830 0.962 . S
H844 C830 0.960 . S
H845 C831 0.987 . S
H846 C831 0.939 1_655 S
H847 C831 0.950 1_655 S
H848 C832 0.931 . S
H849 C837 0.930 . S
H850 C838 0.956 . S
H851 C838 0.961 . S
H852 C838 0.961 . S
H853 C839 0.958 . S
H854 C839 0.961 . S
H855 C839 0.960 . S
C856 C857 1.391 . S
C856 C858 1.394 . S
C856 H872 0.931 . S
C857 C856 1.391 . S
C857 C861 1.376 . S
C858 C856 1.394 . S
C858 C859 1.369 1_655 S
C858 C862 1.531 . S
C859 C858 1.369 1_455 S
C859 C860 1.410 . S
C859 C867 1.503 . S
C860 C859 1.410 . S
C860 C861 1.392 1_455 S
C860 C863 1.511 . S
C861 C857 1.376 . S
C861 C860 1.392 1_655 S
C861 H873 0.929 . S
C862 C858 1.531 . S
C862 H874 0.960 1_655 S
C862 H875 0.962 . S
C862 H876 0.960 . S
C863 C860 1.511 . S
C863 H877 0.961 . S
C863 H878 0.961 . S
C863 H879 0.961 . S
C864 C865 1.370 . S
C864 C866 1.363 . S
C864 H880 0.931 . S
C865 C864 1.370 . S
C865 C869 1.408 . S
C866 C864 1.363 . S
C866 C867 1.370 . S
C866 C870 1.524 . S
C867 C859 1.503 . S
C867 C866 1.370 . S
C867 C868 1.403 . S
C868 C867 1.403 . S
C868 C869 1.404 . S
C868 C871 1.539 . S
C869 C865 1.408 . S
C869 C868 1.404 . S
C869 H881 0.930 . S
C870 C866 1.524 . S
C870 H882 0.956 . S
C870 H883 0.961 . S
C870 H884 0.961 . S
C871 C868 1.539 . S
C871 H885 0.958 . S
C871 H886 0.961 . S
C871 H887 0.960 . S
H872 C856 0.931 . S
H873 C861 0.929 . S
H874 C862 0.960 1_455 S
H875 C862 0.962 . S
H876 C862 0.960 . S
H877 C863 0.961 . S
H878 C863 0.961 . S
H879 C863 0.961 . S
H880 C864 0.931 . S
H881 C869 0.930 . S
H882 C870 0.956 . S
H883 C870 0.961 . S
H884 C870 0.961 . S
H885 C871 0.958 . S
H886 C871 0.961 . S
H887 C871 0.960 . S
C888 C889 1.391 . S
C888 C890 1.394 . S
C888 H904 0.931 . S
C889 C888 1.391 . S
C889 C893 1.376 . S
C890 C888 1.394 . S
C890 C891 1.369 1_455 S
C890 C894 1.532 . S
C891 C890 1.369 1_655 S
C891 C892 1.410 . S
C891 C899 1.503 . S
C892 C891 1.410 . S
C892 C893 1.392 1_655 S
C892 C895 1.511 . S
C893 C889 1.376 . S
C893 C892 1.392 1_455 S
C893 H905 0.929 . S
C894 C890 1.532 . S
C894 H906 0.952 1_455 S
C894 H907 0.963 . S
C894 H908 0.965 . S
C895 C892 1.511 . S
C895 H909 0.997 . S
C895 H910 0.961 . S
C895 H911 0.961 . S
C896 C897 1.370 . S
C896 C898 1.363 . S
C896 H912 0.931 . S
C897 C896 1.370 . S
C897 C901 1.408 . S
C898 C896 1.363 . S
C898 C899 1.370 . S
C898 C902 1.524 . S
C899 C891 1.503 . S
C899 C898 1.370 . S
C899 C900 1.403 . S
C900 C899 1.403 . S
C900 C901 1.404 . S
C900 C903 1.539 . S
C901 C897 1.408 . S
C901 C900 1.404 . S
C901 H913 0.930 . S
C902 C898 1.524 . S
C902 H914 0.956 . S
C902 H915 0.961 . S
C902 H916 0.961 . S
C903 C900 1.539 . S
C903 H917 0.958 . S
C903 H918 0.961 . S
C903 H919 0.960 . S
H904 C888 0.931 . S
H905 C893 0.929 . S
H906 C894 0.952 1_655 S
H907 C894 0.963 . S
H908 C894 0.965 . S
H909 C895 0.997 . S
H910 C895 0.961 . S
H911 C895 0.961 . S
H912 C896 0.931 . S
H913 C901 0.930 . S
H914 C902 0.956 . S
H915 C902 0.961 . S
H916 C902 0.961 . S
H917 C903 0.958 . S
H918 C903 0.961 . S
H919 C903 0.960 . S
C920 C921 1.391 . S
C920 C922 1.394 . S
C920 H936 0.931 . S
C921 C920 1.391 . S
C921 C925 1.376 . S
C922 C920 1.394 . S
C922 C923 1.369 . S
C922 C926 1.531 . S
C923 C922 1.369 . S
C923 C924 1.410 . S
C923 C931 1.503 . S
C924 C923 1.410 . S
C924 C925 1.392 . S
C924 C927 1.511 . S
C925 C921 1.376 . S
C925 C924 1.392 . S
C925 H937 0.929 . S
C926 C922 1.531 . S
C926 H938 0.960 . S
C926 H939 0.962 . S
C926 H940 0.960 . S
C927 C924 1.511 . S
C927 H941 0.961 . S
C927 H942 0.961 . S
C927 H943 0.961 . S
C928 C929 1.370 . S
C928 C930 1.363 . S
C928 H944 0.931 . S
C929 C928 1.370 . S
C929 C933 1.408 . S
C930 C928 1.363 . S
C930 C931 1.370 1_655 S
C930 C934 1.524 1_655 S
C931 C923 1.503 . S
C931 C930 1.370 1_455 S
C931 C932 1.403 1_455 S
C932 C931 1.403 1_655 S
C932 C933 1.404 . S
C932 C935 1.539 1_655 S
C933 C929 1.408 . S
C933 C932 1.404 . S
C933 H945 0.930 . S
C934 C930 1.524 1_455 S
C934 H946 0.956 . S
C934 H947 0.961 . S
C934 H948 0.961 1_455 S
C935 C932 1.539 1_455 S
C935 H949 0.958 . S
C935 H950 0.961 1_455 S
C935 H951 0.960 . S
H936 C920 0.931 . S
H937 C925 0.929 . S
H938 C926 0.960 . S
H939 C926 0.962 . S
H940 C926 0.960 . S
H941 C927 0.961 . S
H942 C927 0.961 . S
H943 C927 0.961 . S
H944 C928 0.931 . S
H945 C933 0.930 . S
H946 C934 0.956 . S
H947 C934 0.961 . S
H948 C934 0.961 1_655 S
H949 C935 0.958 . S
H950 C935 0.961 1_655 S
H951 C935 0.960 . S
C952 C953 1.391 . S
C952 C954 1.394 1_545 S
C952 H968 0.931 . S
C953 C952 1.391 . S
C953 C957 1.376 . S
C954 C952 1.394 1_565 S
C954 C955 1.369 . S
C954 C958 1.531 . S
C955 C954 1.369 . S
C955 C956 1.410 1_565 S
C955 C963 1.503 . S
C956 C955 1.410 1_545 S
C956 C957 1.392 . S
C956 C959 1.505 1_545 S
C957 C953 1.376 . S
C957 C956 1.392 . S
C957 H969 0.929 . S
C958 C954 1.531 . S
C958 H970 0.960 . S
C958 H971 0.962 . S
C958 H972 0.960 . S
C959 C956 1.505 1_565 S
C959 H973 0.938 1_565 S
C959 H974 0.981 . S
C959 H975 0.971 . S
C960 C961 1.370 . S
C960 C962 1.363 . S
C960 H976 0.931 . S
C961 C960 1.370 . S
C961 C965 1.408 . S
C962 C960 1.363 . S
C962 C963 1.370 . S
C962 C966 1.524 . S
C963 C955 1.503 . S
C963 C962 1.370 . S
C963 C964 1.403 . S
C964 C963 1.403 . S
C964 C965 1.404 . S
C964 C967 1.539 . S
C965 C961 1.408 . S
C965 C964 1.404 . S
C965 H977 0.930 . S
C966 C962 1.524 . S
C966 H978 0.956 . S
C966 H979 0.961 . S
C966 H980 0.961 . S
C967 C964 1.539 . S
C967 H981 0.958 . S
C967 H982 0.961 . S
C967 H983 0.960 . S
H968 C952 0.931 . S
H969 C957 0.929 . S
H970 C958 0.960 . S
H971 C958 0.962 . S
H972 C958 0.960 . S
H973 C959 0.938 1_545 S
H974 C959 0.981 . S
H975 C959 0.971 . S
H976 C960 0.931 . S
H977 C965 0.930 . S
H978 C966 0.956 . S
H979 C966 0.961 . S
H980 C966 0.961 . S
H981 C967 0.958 . S
H982 C967 0.961 . S
H983 C967 0.960 . S
C984 C985 1.391 . S
C984 C986 1.394 . S
C984 H1000 0.931 . S
C985 C984 1.391 . S
C985 C989 1.376 . S
C986 C984 1.394 . S
C986 C987 1.369 . S
C986 C990 1.531 . S
C987 C986 1.369 . S
C987 C988 1.410 . S
C987 C995 1.503 . S
C988 C987 1.410 . S
C988 C989 1.392 . S
C988 C991 1.511 . S
C989 C985 1.376 . S
C989 C988 1.392 . S
C989 H1001 0.929 . S
C990 C986 1.531 . S
C990 H1002 0.960 . S
C990 H1003 0.962 . S
C990 H1004 0.960 . S
C991 C988 1.511 . S
C991 H1005 0.961 . S
C991 H1006 0.961 . S
C991 H1007 0.961 . S
C992 C993 1.370 . S
C992 C994 1.363 . S
C992 H1008 0.931 . S
C993 C992 1.370 . S
C993 C997 1.408 . S
C994 C992 1.363 . S
C994 C995 1.370 1_565 S
C994 C998 1.524 . S
C995 C987 1.503 . S
C995 C994 1.370 1_545 S
C995 C996 1.403 . S
C996 C995 1.403 . S
C996 C997 1.404 1_545 S
C996 C999 1.539 . S
C997 C993 1.408 . S
C997 C996 1.404 1_565 S
C997 H1009 0.930 . S
C998 C994 1.524 . S
C998 H1010 0.956 1_565 S
C998 H1011 0.961 1_565 S
C998 H1012 0.961 . S
C999 C996 1.539 . S
C999 H1013 0.958 . S
C999 H1014 0.961 . S
C999 H1015 0.960 . S
H1000 C984 0.931 . S
H1001 C989 0.929 . S
H1002 C990 0.960 . S
H1003 C990 0.962 . S
H1004 C990 0.960 . S
H1005 C991 0.961 . S
H1006 C991 0.961 . S
H1007 C991 0.961 . S
H1008 C992 0.931 . S
H1009 C997 0.930 . S
H1010 C998 0.956 1_545 S
H1011 C998 0.961 1_545 S
H1012 C998 0.961 . S
H1013 C999 0.958 . S
H1014 C999 0.961 . S
H1015 C999 0.960 . S
C1016 C1017 1.391 . S
C1016 C1018 1.394 . S
C1016 H1032 0.931 . S
C1017 C1016 1.391 . S
C1017 C1021 1.376 . S
C1018 C1016 1.394 . S
C1018 C1019 1.369 . S
C1018 C1022 1.531 . S
C1019 C1018 1.369 . S
C1019 C1020 1.410 . S
C1019 C1027 1.503 . S
C1020 C1019 1.410 . S
C1020 C1021 1.392 . S
C1020 C1023 1.511 . S
C1021 C1017 1.376 . S
C1021 C1020 1.392 . S
C1021 H1033 0.929 . S
C1022 C1018 1.531 . S
C1022 H1034 0.960 . S
C1022 H1035 0.962 . S
C1022 H1036 0.960 . S
C1023 C1020 1.511 . S
C1023 H1037 0.961 . S
C1023 H1038 0.961 . S
C1023 H1039 0.961 . S
C1024 C1025 1.370 . S
C1024 C1026 1.363 . S
C1024 H1040 0.931 . S
C1025 C1024 1.370 . S
C1025 C1029 1.408 . S
C1026 C1024 1.363 . S
C1026 C1027 1.370 . S
C1026 C1030 1.524 . S
C1027 C1019 1.503 . S
C1027 C1026 1.370 . S
C1027 C1028 1.403 . S
C1028 C1027 1.403 . S
C1028 C1029 1.404 . S
C1028 C1031 1.539 . S
C1029 C1025 1.408 . S
C1029 C1028 1.404 . S
C1029 H1041 0.930 . S
C1030 C1026 1.524 . S
C1030 H1042 0.956 . S
C1030 H1043 0.961 . S
C1030 H1044 0.961 . S
C1031 C1028 1.539 . S
C1031 H1045 0.958 . S
C1031 H1046 0.961 . S
C1031 H1047 0.960 . S
H1032 C1016 0.931 . S
H1033 C1021 0.929 . S
H1034 C1022 0.960 . S
H1035 C1022 0.962 . S
H1036 C1022 0.960 . S
H1037 C1023 0.961 . S
H1038 C1023 0.961 . S
H1039 C1023 0.961 . S
H1040 C1024 0.931 . S
H1041 C1029 0.930 . S
H1042 C1030 0.956 . S
H1043 C1030 0.961 . S
H1044 C1030 0.961 . S
H1045 C1031 0.958 . S
H1046 C1031 0.961 . S
H1047 C1031 0.960 . S
C1048 C1049 1.391 . S
C1048 C1050 1.394 . S
C1048 H1064 0.931 . S
C1049 C1048 1.391 . S
C1049 C1053 1.376 . S
C1050 C1048 1.394 . S
C1050 C1051 1.369 . S
C1050 C1054 1.531 . S
C1051 C1050 1.369 . S
C1051 C1052 1.410 . S
C1051 C1059 1.503 . S
C1052 C1051 1.410 . S
C1052 C1053 1.392 . S
C1052 C1055 1.511 . S
C1053 C1049 1.376 . S
C1053 C1052 1.392 . S
C1053 H1065 0.929 . S
C1054 C1050 1.531 . S
C1054 H1066 0.960 . S
C1054 H1067 0.962 . S
C1054 H1068 0.960 . S
C1055 C1052 1.511 . S
C1055 H1069 0.961 . S
C1055 H1070 0.961 . S
C1055 H1071 0.961 . S
C1056 C1057 1.370 . S
C1056 C1058 1.363 . S
C1056 H1072 0.931 . S
C1057 C1056 1.370 . S
C1057 C1061 1.408 . S
C1058 C1056 1.363 . S
C1058 C1059 1.370 1_565 S
C1058 C1062 1.525 1_565 S
C1059 C1051 1.503 . S
C1059 C1058 1.370 1_545 S
C1059 C1060 1.403 . S
C1060 C1059 1.403 . S
C1060 C1061 1.404 1_545 S
C1060 C1063 1.539 . S
C1061 C1057 1.408 . S
C1061 C1060 1.404 1_565 S
C1061 H1073 0.930 . S
C1062 C1058 1.525 1_545 S
C1062 H1074 0.954 . S
C1062 H1075 0.959 . S
C1062 H1076 0.963 1_545 S
C1063 C1060 1.539 . S
C1063 H1077 0.958 . S
C1063 H1078 0.961 . S
C1063 H1079 0.960 . S
H1064 C1048 0.931 . S
H1065 C1053 0.929 . S
H1066 C1054 0.960 . S
H1067 C1054 0.962 . S
H1068 C1054 0.960 . S
H1069 C1055 0.961 . S
H1070 C1055 0.961 . S
H1071 C1055 0.961 . S
H1072 C1056 0.931 . S
H1073 C1061 0.930 . S
H1074 C1062 0.954 . S
H1075 C1062 0.959 . S
H1076 C1062 0.963 1_565 S
H1077 C1063 0.958 . S
H1078 C1063 0.961 . S
H1079 C1063 0.960 . S
C1080 C1081 1.391 . S
C1080 C1082 1.394 . S
C1080 H1096 0.931 . S
C1081 C1080 1.391 . S
C1081 C1085 1.376 1_655 S
C1082 C1080 1.394 . S
C1082 C1083 1.369 1_655 S
C1082 C1086 1.531 . S
C1083 C1082 1.369 1_455 S
C1083 C1084 1.410 . S
C1083 C1091 1.503 . S
C1084 C1083 1.410 . S
C1084 C1085 1.392 . S
C1084 C1087 1.511 . S
C1085 C1081 1.376 1_455 S
C1085 C1084 1.392 . S
C1085 H1097 0.929 . S
C1086 C1082 1.531 . S
C1086 H1098 0.960 . S
C1086 H1099 0.962 . S
C1086 H1100 0.960 . S
C1087 C1084 1.511 . S
C1087 H1101 0.961 . S
C1087 H1102 0.961 . S
C1087 H1103 0.961 . S
C1088 C1089 1.370 1_655 S
C1088 C1090 1.363 . S
C1088 H1104 0.931 . S
C1089 C1088 1.370 1_455 S
C1089 C1093 1.408 . S
C1090 C1088 1.363 . S
C1090 C1091 1.370 1_655 S
C1090 C1094 1.524 . S
C1091 C1083 1.503 . S
C1091 C1090 1.370 1_455 S
C1091 C1092 1.403 . S
C1092 C1091 1.403 . S
C1092 C1093 1.404 . S
C1092 C1095 1.539 . S
C1093 C1089 1.408 . S
C1093 C1092 1.404 . S
C1093 H1105 0.930 . S
C1094 C1090 1.524 . S
C1094 H1106 0.956 . S
C1094 H1107 0.961 . S
C1094 H1108 0.961 . S
C1095 C1092 1.539 . S
C1095 H1109 0.958 . S
C1095 H1110 0.961 . S
C1095 H1111 0.960 . S
H1096 C1080 0.931 . S
H1097 C1085 0.929 . S
H1098 C1086 0.960 . S
H1099 C1086 0.962 . S
H1100 C1086 0.960 . S
H1101 C1087 0.961 . S
H1102 C1087 0.961 . S
H1103 C1087 0.961 . S
H1104 C1088 0.931 . S
H1105 C1093 0.930 . S
H1106 C1094 0.956 . S
H1107 C1094 0.961 . S
H1108 C1094 0.961 . S
H1109 C1095 0.958 . S
H1110 C1095 0.961 . S
H1111 C1095 0.960 . S
C1112 C1113 1.391 1_655 S
C1112 C1114 1.394 . S
C1112 H1128 0.931 . S
C1113 C1112 1.391 1_455 S
C1113 C1117 1.376 . S
C1114 C1112 1.394 . S
C1114 C1115 1.366 1_655 S
C1114 C1118 1.531 . S
C1115 C1114 1.366 1_455 S
C1115 C1116 1.413 . S
C1115 C1123 1.503 1_455 S
C1116 C1115 1.413 . S
C1116 C1117 1.392 . S
C1116 C1119 1.511 . S
C1117 C1113 1.376 . S
C1117 C1116 1.392 . S
C1117 H1129 0.929 . S
C1118 C1114 1.531 . S
C1118 H1130 0.960 . S
C1118 H1131 0.962 . S
C1118 H1132 0.960 . S
C1119 C1116 1.511 . S
C1119 H1133 0.961 . S
C1119 H1134 0.961 . S
C1119 H1135 0.961 . S
C1120 C1121 1.371 . S
C1120 C1122 1.363 1_655 S
C1120 H1136 0.931 1_655 S
C1121 C1120 1.371 . S
C1121 C1125 1.408 . S
C1122 C1120 1.363 1_455 S
C1122 C1123 1.370 1_455 S
C1122 C1126 1.524 . S
C1123 C1115 1.503 1_655 S
C1123 C1122 1.370 1_655 S
C1123 C1124 1.403 . S
C1124 C1123 1.403 . S
C1124 C1125 1.404 . S
C1124 C1127 1.539 . S
C1125 C1121 1.408 . S
C1125 C1124 1.404 . S
C1125 H1137 0.930 . S
C1126 C1122 1.524 . S
C1126 H1138 0.956 . S
C1126 H1139 0.961 . S
C1126 H1140 0.961 . S
C1127 C1124 1.539 . S
C1127 H1141 0.958 . S
C1127 H1142 0.961 . S
C1127 H1143 0.960 . S
H1128 C1112 0.931 . S
H1129 C1117 0.929 . S
H1130 C1118 0.960 . S
H1131 C1118 0.962 . S
H1132 C1118 0.960 . S
H1133 C1119 0.961 . S
H1134 C1119 0.961 . S
H1135 C1119 0.961 . S
H1136 C1120 0.931 1_455 S
H1137 C1125 0.930 . S
H1138 C1126 0.956 . S
H1139 C1126 0.961 . S
H1140 C1126 0.961 . S
H1141 C1127 0.958 . S
H1142 C1127 0.961 . S
H1143 C1127 0.960 . S
C1144 C1145 1.391 1_545 S
C1144 C1146 1.394 . S
C1144 H1160 0.931 . S
C1145 C1144 1.391 1_565 S
C1145 C1149 1.376 . S
C1146 C1144 1.394 . S
C1146 C1147 1.369 . S
C1146 C1150 1.531 . S
C1147 C1146 1.369 . S
C1147 C1148 1.410 1_545 S
C1147 C1155 1.503 . S
C1148 C1147 1.410 1_565 S
C1148 C1149 1.392 . S
C1148 C1151 1.511 . S
C1149 C1145 1.376 . S
C1149 C1148 1.392 . S
C1149 H1161 0.929 . S
C1150 C1146 1.531 . S
C1150 H1162 0.960 . S
C1150 H1163 0.962 . S
C1150 H1164 0.960 . S
C1151 C1148 1.511 . S
C1151 H1165 0.961 . S
C1151 H1166 0.961 . S
C1151 H1167 0.961 . S
C1152 C1153 1.370 1_565 S
C1152 C1154 1.363 . S
C1152 H1168 0.931 . S
C1153 C1152 1.370 1_545 S
C1153 C1157 1.408 . S
C1154 C1152 1.363 . S
C1154 C1155 1.370 1_565 S
C1154 C1158 1.524 . S
C1155 C1147 1.503 . S
C1155 C1154 1.370 1_545 S
C1155 C1156 1.403 . S
C1156 C1155 1.403 . S
C1156 C1157 1.404 . S
C1156 C1159 1.539 . S
C1157 C1153 1.408 . S
C1157 C1156 1.404 . S
C1157 H1169 0.930 . S
C1158 C1154 1.524 . S
C1158 H1170 0.956 . S
C1158 H1171 0.961 . S
C1158 H1172 0.961 . S
C1159 C1156 1.539 . S
C1159 H1173 0.958 . S
C1159 H1174 0.961 . S
C1159 H1175 0.960 . S
H1160 C1144 0.931 . S
H1161 C1149 0.929 . S
H1162 C1150 0.960 . S
H1163 C1150 0.962 . S
H1164 C1150 0.960 . S
H1165 C1151 0.961 . S
H1166 C1151 0.961 . S
H1167 C1151 0.961 . S
H1168 C1152 0.931 . S
H1169 C1157 0.930 . S
H1170 C1158 0.956 . S
H1171 C1158 0.961 . S
H1172 C1158 0.961 . S
H1173 C1159 0.958 . S
H1174 C1159 0.961 . S
H1175 C1159 0.960 . S
C1176 C1177 1.391 . S
C1176 C1178 1.394 . S
C1176 H1192 0.931 . S
C1177 C1176 1.391 . S
C1177 C1181 1.376 . S
C1178 C1176 1.394 . S
C1178 C1179 1.369 . S
C1178 C1182 1.531 . S
C1179 C1178 1.369 . S
C1179 C1180 1.410 . S
C1179 C1187 1.503 . S
C1180 C1179 1.410 . S
C1180 C1181 1.392 . S
C1180 C1183 1.511 . S
C1181 C1177 1.376 . S
C1181 C1180 1.392 . S
C1181 H1193 0.929 . S
C1182 C1178 1.531 . S
C1182 H1194 0.960 . S
C1182 H1195 0.962 . S
C1182 H1196 0.960 . S
C1183 C1180 1.511 . S
C1183 H1197 0.961 . S
C1183 H1198 0.961 . S
C1183 H1199 0.961 . S
C1184 C1185 1.370 . S
C1184 C1186 1.363 . S
C1184 H1200 0.931 . S
C1185 C1184 1.370 . S
C1185 C1189 1.408 . S
C1186 C1184 1.363 . S
C1186 C1187 1.370 . S
C1186 C1190 1.524 . S
C1187 C1179 1.503 . S
C1187 C1186 1.370 . S
C1187 C1188 1.403 . S
C1188 C1187 1.403 . S
C1188 C1189 1.404 . S
C1188 C1191 1.539 . S
C1189 C1185 1.408 . S
C1189 C1188 1.404 . S
C1189 H1201 0.930 . S
C1190 C1186 1.524 . S
C1190 H1202 0.956 . S
C1190 H1203 0.961 . S
C1190 H1204 0.961 . S
C1191 C1188 1.539 . S
C1191 H1205 0.958 . S
C1191 H1206 0.961 . S
C1191 H1207 0.960 . S
H1192 C1176 0.931 . S
H1193 C1181 0.929 . S
H1194 C1182 0.960 . S
H1195 C1182 0.962 . S
H1196 C1182 0.960 . S
H1197 C1183 0.961 . S
H1198 C1183 0.961 . S
H1199 C1183 0.961 . S
H1200 C1184 0.931 . S
H1201 C1189 0.930 . S
H1202 C1190 0.956 . S
H1203 C1190 0.961 . S
H1204 C1190 0.961 . S
H1205 C1191 0.958 . S
H1206 C1191 0.961 . S
H1207 C1191 0.960 . S
C1208 C1209 1.391 . S
C1208 C1210 1.394 . S
C1208 H1224 0.931 . S
C1209 C1208 1.391 . S
C1209 C1213 1.376 1_554 S
C1210 C1208 1.394 . S
C1210 C1211 1.369 . S
C1210 C1214 1.531 . S
C1211 C1210 1.369 . S
C1211 C1212 1.410 1_554 S
C1211 C1219 1.499 1_554 S
C1212 C1211 1.410 1_556 S
C1212 C1213 1.392 . S
C1212 C1215 1.511 . S
C1213 C1209 1.376 1_556 S
C1213 C1212 1.392 . S
C1213 H1225 0.929 . S
C1214 C1210 1.531 . S
C1214 H1226 0.960 . S
C1214 H1227 0.962 . S
C1214 H1228 0.960 . S
C1215 C1212 1.511 . S
C1215 H1229 0.961 . S
C1215 H1230 0.961 . S
C1215 H1231 0.961 . S
C1216 C1217 1.370 . S
C1216 C1218 1.363 . S
C1216 H1232 0.931 . S
C1217 C1216 1.370 . S
C1217 C1221 1.408 . S
C1218 C1216 1.363 . S
C1218 C1219 1.376 . S
C1218 C1222 1.524 . S
C1219 C1211 1.499 1_556 S
C1219 C1218 1.376 . S
C1219 C1220 1.402 1_556 S
C1220 C1219 1.402 1_554 S
C1220 C1221 1.403 1_554 S
C1220 C1223 1.540 . S
C1221 C1217 1.408 . S
C1221 C1220 1.403 1_556 S
C1221 H1233 0.930 . S
C1222 C1218 1.524 . S
C1222 H1234 0.956 1_556 S
C1222 H1235 0.961 . S
C1222 H1236 0.961 . S
C1223 C1220 1.540 . S
C1223 H1237 0.958 . S
C1223 H1238 0.961 1_554 S
C1223 H1239 0.960 1_554 S
H1224 C1208 0.931 . S
H1225 C1213 0.929 . S
H1226 C1214 0.960 . S
H1227 C1214 0.962 . S
H1228 C1214 0.960 . S
H1229 C1215 0.961 . S
H1230 C1215 0.961 . S
H1231 C1215 0.961 . S
H1232 C1216 0.931 . S
H1233 C1221 0.930 . S
H1234 C1222 0.956 1_554 S
H1235 C1222 0.961 . S
H1236 C1222 0.961 . S
H1237 C1223 0.958 . S
H1238 C1223 0.961 1_556 S
H1239 C1223 0.960 1_556 S
C1240 C1241 1.391 . S
C1240 C1242 1.394 . S
C1240 H1256 0.931 . S
C1241 C1240 1.391 . S
C1241 C1245 1.376 . S
C1242 C1240 1.394 . S
C1242 C1243 1.369 . S
C1242 C1246 1.531 . S
C1243 C1242 1.369 . S
C1243 C1244 1.410 . S
C1243 C1251 1.503 . S
C1244 C1243 1.410 . S
C1244 C1245 1.392 . S
C1244 C1247 1.511 . S
C1245 C1241 1.376 . S
C1245 C1244 1.392 . S
C1245 H1257 0.929 . S
C1246 C1242 1.531 . S
C1246 H1258 0.960 . S
C1246 H1259 0.962 . S
C1246 H1260 0.960 . S
C1247 C1244 1.511 . S
C1247 H1261 0.961 . S
C1247 H1262 0.961 . S
C1247 H1263 0.961 . S
C1248 C1249 1.370 . S
C1248 C1250 1.363 . S
C1248 H1264 0.931 . S
C1249 C1248 1.370 . S
C1249 C1253 1.408 . S
C1250 C1248 1.363 . S
C1250 C1251 1.370 . S
C1250 C1254 1.524 . S
C1251 C1243 1.503 . S
C1251 C1250 1.370 . S
C1251 C1252 1.403 . S
C1252 C1251 1.403 . S
C1252 C1253 1.404 . S
C1252 C1255 1.539 . S
C1253 C1249 1.408 . S
C1253 C1252 1.404 . S
C1253 H1265 0.930 . S
C1254 C1250 1.524 . S
C1254 H1266 0.956 . S
C1254 H1267 0.961 . S
C1254 H1268 0.961 . S
C1255 C1252 1.539 . S
C1255 H1269 0.958 . S
C1255 H1270 0.961 . S
C1255 H1271 0.960 . S
H1256 C1240 0.931 . S
H1257 C1245 0.929 . S
H1258 C1246 0.960 . S
H1259 C1246 0.962 . S
H1260 C1246 0.960 . S
H1261 C1247 0.961 . S
H1262 C1247 0.961 . S
H1263 C1247 0.961 . S
H1264 C1248 0.931 . S
H1265 C1253 0.930 . S
H1266 C1254 0.956 . S
H1267 C1254 0.961 . S
H1268 C1254 0.961 . S
H1269 C1255 0.958 . S
H1270 C1255 0.961 . S
H1271 C1255 0.960 . S
C1272 C1273 1.391 . S
C1272 C1274 1.394 . S
C1272 H1288 0.931 . S
C1273 C1272 1.391 . S
C1273 C1277 1.376 . S
C1274 C1272 1.394 . S
C1274 C1275 1.369 . S
C1274 C1278 1.531 . S
C1275 C1274 1.369 . S
C1275 C1276 1.410 . S
C1275 C1283 1.503 . S
C1276 C1275 1.410 . S
C1276 C1277 1.392 . S
C1276 C1279 1.511 . S
C1277 C1273 1.376 . S
C1277 C1276 1.392 . S
C1277 H1289 0.929 . S
C1278 C1274 1.531 . S
C1278 H1290 0.960 . S
C1278 H1291 0.962 . S
C1278 H1292 0.960 . S
C1279 C1276 1.511 . S
C1279 H1293 0.961 . S
C1279 H1294 0.961 . S
C1279 H1295 0.961 . S
C1280 C1281 1.370 . S
C1280 C1282 1.363 . S
C1280 H1296 0.931 . S
C1281 C1280 1.370 . S
C1281 C1285 1.408 . S
C1282 C1280 1.363 . S
C1282 C1283 1.370 . S
C1282 C1286 1.524 . S
C1283 C1275 1.503 . S
C1283 C1282 1.370 . S
C1283 C1284 1.403 . S
C1284 C1283 1.403 . S
C1284 C1285 1.404 . S
C1284 C1287 1.539 . S
C1285 C1281 1.408 . S
C1285 C1284 1.404 . S
C1285 H1297 0.930 . S
C1286 C1282 1.524 . S
C1286 H1298 0.956 . S
C1286 H1299 0.961 . S
C1286 H1300 0.961 . S
C1287 C1284 1.539 . S
C1287 H1301 0.958 . S
C1287 H1302 0.961 . S
C1287 H1303 0.960 . S
H1288 C1272 0.931 . S
H1289 C1277 0.929 . S
H1290 C1278 0.960 . S
H1291 C1278 0.962 . S
H1292 C1278 0.960 . S
H1293 C1279 0.961 . S
H1294 C1279 0.961 . S
H1295 C1279 0.961 . S
H1296 C1280 0.931 . S
H1297 C1285 0.930 . S
H1298 C1286 0.956 . S
H1299 C1286 0.961 . S
H1300 C1286 0.961 . S
H1301 C1287 0.958 . S
H1302 C1287 0.961 . S
H1303 C1287 0.960 . S
C1304 C1305 1.391 . S
C1304 C1306 1.394 . S
C1304 H1320 0.931 . S
C1305 C1304 1.391 . S
C1305 C1309 1.376 . S
C1306 C1304 1.394 . S
C1306 C1307 1.369 . S
C1306 C1310 1.531 . S
C1307 C1306 1.369 . S
C1307 C1308 1.410 . S
C1307 C1315 1.503 . S
C1308 C1307 1.410 . S
C1308 C1309 1.392 . S
C1308 C1311 1.511 . S
C1309 C1305 1.376 . S
C1309 C1308 1.392 . S
C1309 H1321 0.929 . S
C1310 C1306 1.531 . S
C1310 H1322 0.960 . S
C1310 H1323 0.962 . S
C1310 H1324 0.960 . S
C1311 C1308 1.511 . S
C1311 H1325 0.961 . S
C1311 H1326 0.961 . S
C1311 H1327 0.961 . S
C1312 C1313 1.370 . S
C1312 C1314 1.363 . S
C1312 H1328 0.931 . S
C1313 C1312 1.370 . S
C1313 C1317 1.408 . S
C1314 C1312 1.363 . S
C1314 C1315 1.370 . S
C1314 C1318 1.524 . S
C1315 C1307 1.503 . S
C1315 C1314 1.370 . S
C1315 C1316 1.403 . S
C1316 C1315 1.403 . S
C1316 C1317 1.404 . S
C1316 C1319 1.539 . S
C1317 C1313 1.408 . S
C1317 C1316 1.404 . S
C1317 H1329 0.930 . S
C1318 C1314 1.524 . S
C1318 H1330 0.956 . S
C1318 H1331 0.961 . S
C1318 H1332 0.961 . S
C1319 C1316 1.539 . S
C1319 H1333 0.958 . S
C1319 H1334 0.961 . S
C1319 H1335 0.960 . S
H1320 C1304 0.931 . S
H1321 C1309 0.929 . S
H1322 C1310 0.960 . S
H1323 C1310 0.962 . S
H1324 C1310 0.960 . S
H1325 C1311 0.961 . S
H1326 C1311 0.961 . S
H1327 C1311 0.961 . S
H1328 C1312 0.931 . S
H1329 C1317 0.930 . S
H1330 C1318 0.956 . S
H1331 C1318 0.961 . S
H1332 C1318 0.961 . S
H1333 C1319 0.958 . S
H1334 C1319 0.961 . S
H1335 C1319 0.960 . S
C1336 C1337 1.391 . S
C1336 C1338 1.394 . S
C1336 H1352 0.931 . S
C1337 C1336 1.391 . S
C1337 C1341 1.376 . S
C1338 C1336 1.394 . S
C1338 C1339 1.369 . S
C1338 C1342 1.531 . S
C1339 C1338 1.369 . S
C1339 C1340 1.410 . S
C1339 C1347 1.503 . S
C1340 C1339 1.410 . S
C1340 C1341 1.392 . S
C1340 C1343 1.511 . S
C1341 C1337 1.376 . S
C1341 C1340 1.392 . S
C1341 H1353 0.929 . S
C1342 C1338 1.531 . S
C1342 H1354 0.960 . S
C1342 H1355 0.962 . S
C1342 H1356 0.960 . S
C1343 C1340 1.511 . S
C1343 H1357 0.961 . S
C1343 H1358 0.961 . S
C1343 H1359 0.961 . S
C1344 C1345 1.370 . S
C1344 C1346 1.363 . S
C1344 H1360 0.931 . S
C1345 C1344 1.370 . S
C1345 C1349 1.408 . S
C1346 C1344 1.363 . S
C1346 C1347 1.370 . S
C1346 C1350 1.524 . S
C1347 C1339 1.503 . S
C1347 C1346 1.370 . S
C1347 C1348 1.403 . S
C1348 C1347 1.403 . S
C1348 C1349 1.404 . S
C1348 C1351 1.539 . S
C1349 C1345 1.408 . S
C1349 C1348 1.404 . S
C1349 H1361 0.930 . S
C1350 C1346 1.524 . S
C1350 H1362 0.956 . S
C1350 H1363 0.961 . S
C1350 H1364 0.961 . S
C1351 C1348 1.539 . S
C1351 H1365 0.958 . S
C1351 H1366 0.961 . S
C1351 H1367 0.960 . S
H1352 C1336 0.931 . S
H1353 C1341 0.929 . S
H1354 C1342 0.960 . S
H1355 C1342 0.962 . S
H1356 C1342 0.960 . S
H1357 C1343 0.961 . S
H1358 C1343 0.961 . S
H1359 C1343 0.961 . S
H1360 C1344 0.931 . S
H1361 C1349 0.930 . S
H1362 C1350 0.956 . S
H1363 C1350 0.961 . S
H1364 C1350 0.961 . S
H1365 C1351 0.958 . S
H1366 C1351 0.961 . S
H1367 C1351 0.960 . S
C1368 C1369 1.391 . S
C1368 C1370 1.394 . S
C1368 H1384 0.931 . S
C1369 C1368 1.391 . S
C1369 C1373 1.376 . S
C1370 C1368 1.394 . S
C1370 C1371 1.369 . S
C1370 C1374 1.531 . S
C1371 C1370 1.369 . S
C1371 C1372 1.410 . S
C1371 C1379 1.503 . S
C1372 C1371 1.410 . S
C1372 C1373 1.392 . S
C1372 C1375 1.511 . S
C1373 C1369 1.376 . S
C1373 C1372 1.392 . S
C1373 H1385 0.929 . S
C1374 C1370 1.531 . S
C1374 H1386 0.960 . S
C1374 H1387 0.962 . S
C1374 H1388 0.960 . S
C1375 C1372 1.511 . S
C1375 H1389 0.961 . S
C1375 H1390 0.961 . S
C1375 H1391 0.961 . S
C1376 C1377 1.370 . S
C1376 C1378 1.363 . S
C1376 H1392 0.931 . S
C1377 C1376 1.370 . S
C1377 C1381 1.408 . S
C1378 C1376 1.363 . S
C1378 C1379 1.370 . S
C1378 C1382 1.524 . S
C1379 C1371 1.503 . S
C1379 C1378 1.370 . S
C1379 C1380 1.403 . S
C1380 C1379 1.403 . S
C1380 C1381 1.404 . S
C1380 C1383 1.539 . S
C1381 C1377 1.408 . S
C1381 C1380 1.404 . S
C1381 H1393 0.930 . S
C1382 C1378 1.524 . S
C1382 H1394 0.956 . S
C1382 H1395 0.961 . S
C1382 H1396 0.961 . S
C1383 C1380 1.539 . S
C1383 H1397 0.958 . S
C1383 H1398 0.961 . S
C1383 H1399 0.960 . S
H1384 C1368 0.931 . S
H1385 C1373 0.929 . S
H1386 C1374 0.960 . S
H1387 C1374 0.962 . S
H1388 C1374 0.960 . S
H1389 C1375 0.961 . S
H1390 C1375 0.961 . S
H1391 C1375 0.961 . S
H1392 C1376 0.931 . S
H1393 C1381 0.930 . S
H1394 C1382 0.956 . S
H1395 C1382 0.961 . S
H1396 C1382 0.961 . S
H1397 C1383 0.958 . S
H1398 C1383 0.961 . S
H1399 C1383 0.960 . S
C1400 C1401 1.391 1_565 S
C1400 C1402 1.394 . S
C1400 H1416 0.931 . S
C1401 C1400 1.391 1_545 S
C1401 C1405 1.376 . S
C1402 C1400 1.394 . S
C1402 C1403 1.369 . S
C1402 C1406 1.531 . S
C1403 C1402 1.369 . S
C1403 C1404 1.410 1_565 S
C1403 C1411 1.503 . S
C1404 C1403 1.410 1_545 S
C1404 C1405 1.392 . S
C1404 C1407 1.511 . S
C1405 C1401 1.376 . S
C1405 C1404 1.392 . S
C1405 H1417 0.929 . S
C1406 C1402 1.531 . S
C1406 H1418 0.960 . S
C1406 H1419 0.962 . S
C1406 H1420 0.960 . S
C1407 C1404 1.511 . S
C1407 H1421 0.961 . S
C1407 H1422 0.961 . S
C1407 H1423 0.961 . S
C1408 C1409 1.370 1_545 S
C1408 C1410 1.363 . S
C1408 H1424 0.931 . S
C1409 C1408 1.370 1_565 S
C1409 C1413 1.408 . S
C1410 C1408 1.363 . S
C1410 C1411 1.370 1_545 S
C1410 C1414 1.524 . S
C1411 C1403 1.503 . S
C1411 C1410 1.370 1_565 S
C1411 C1412 1.403 . S
C1412 C1411 1.403 . S
C1412 C1413 1.404 . S
C1412 C1415 1.539 . S
C1413 C1409 1.408 . S
C1413 C1412 1.404 . S
C1413 H1425 0.930 . S
C1414 C1410 1.524 . S
C1414 H1426 0.956 . S
C1414 H1427 0.961 . S
C1414 H1428 0.961 . S
C1415 C1412 1.539 . S
C1415 H1429 0.958 . S
C1415 H1430 0.961 . S
C1415 H1431 0.960 . S
H1416 C1400 0.931 . S
H1417 C1405 0.929 . S
H1418 C1406 0.960 . S
H1419 C1406 0.962 . S
H1420 C1406 0.960 . S
H1421 C1407 0.961 . S
H1422 C1407 0.961 . S
H1423 C1407 0.961 . S
H1424 C1408 0.931 . S
H1425 C1413 0.930 . S
H1426 C1414 0.956 . S
H1427 C1414 0.961 . S
H1428 C1414 0.961 . S
H1429 C1415 0.958 . S
H1430 C1415 0.961 . S
H1431 C1415 0.960 . S
C1432 C1433 1.391 . S
C1432 C1434 1.394 . S
C1432 H1448 0.931 . S
C1433 C1432 1.391 . S
C1433 C1437 1.376 1_556 S
C1434 C1432 1.394 . S
C1434 C1435 1.369 1_556 S
C1434 C1438 1.531 . S
C1435 C1434 1.369 1_554 S
C1435 C1436 1.410 . S
C1435 C1443 1.503 . S
C1436 C1435 1.410 . S
C1436 C1437 1.392 . S
C1436 C1439 1.511 . S
C1437 C1433 1.376 1_554 S
C1437 C1436 1.392 . S
C1437 H1449 0.929 . S
C1438 C1434 1.531 . S
C1438 H1450 0.960 . S
C1438 H1451 0.962 . S
C1438 H1452 0.960 . S
C1439 C1436 1.511 . S
C1439 H1453 0.961 . S
C1439 H1454 0.961 . S
C1439 H1455 0.961 . S
C1440 C1441 1.370 1_556 S
C1440 C1442 1.363 . S
C1440 H1456 0.931 . S
C1441 C1440 1.370 1_554 S
C1441 C1445 1.408 . S
C1442 C1440 1.363 . S
C1442 C1443 1.370 1_556 S
C1442 C1446 1.524 . S
C1443 C1435 1.503 . S
C1443 C1442 1.370 1_554 S
C1443 C1444 1.403 . S
C1444 C1443 1.403 . S
C1444 C1445 1.404 . S
C1444 C1447 1.539 . S
C1445 C1441 1.408 . S
C1445 C1444 1.404 . S
C1445 H1457 0.930 . S
C1446 C1442 1.524 . S
C1446 H1458 0.956 . S
C1446 H1459 0.961 . S
C1446 H1460 0.961 . S
C1447 C1444 1.539 . S
C1447 H1461 0.958 . S
C1447 H1462 0.961 . S
C1447 H1463 0.960 . S
H1448 C1432 0.931 . S
H1449 C1437 0.929 . S
H1450 C1438 0.960 . S
H1451 C1438 0.962 . S
H1452 C1438 0.960 . S
H1453 C1439 0.961 . S
H1454 C1439 0.961 . S
H1455 C1439 0.961 . S
H1456 C1440 0.931 . S
H1457 C1445 0.930 . S
H1458 C1446 0.956 . S
H1459 C1446 0.961 . S
H1460 C1446 0.961 . S
H1461 C1447 0.958 . S
H1462 C1447 0.961 . S
H1463 C1447 0.960 . S
C1464 C1465 1.391 1_655 S
C1464 C1466 1.394 . S
C1464 H1480 0.931 . S
C1465 C1464 1.391 1_455 S
C1465 C1469 1.376 . S
C1466 C1464 1.394 . S
C1466 C1467 1.369 1_655 S
C1466 C1470 1.531 . S
C1467 C1466 1.369 1_455 S
C1467 C1468 1.410 . S
C1467 C1475 1.503 1_565 S
C1468 C1467 1.410 . S
C1468 C1469 1.392 . S
C1468 C1471 1.511 1_565 S
C1469 C1465 1.376 . S
C1469 C1468 1.392 . S
C1469 H1481 0.929 . S
C1470 C1466 1.531 . S
C1470 H1482 0.960 . S
C1470 H1483 0.962 . S
C1470 H1484 0.960 . S
C1471 C1468 1.511 1_545 S
C1471 H1485 0.961 . S
C1471 H1486 0.961 . S
C1471 H1487 0.975 . S
C1472 C1473 1.370 1_655 S
C1472 C1474 1.363 . S
C1472 H1488 0.931 . S
C1473 C1472 1.370 1_455 S
C1473 C1477 1.408 . S
C1474 C1472 1.363 . S
C1474 C1475 1.370 1_655 S
C1474 C1478 1.524 . S
C1475 C1467 1.503 1_545 S
C1475 C1474 1.370 1_455 S
C1475 C1476 1.403 . S
C1476 C1475 1.403 . S
C1476 C1477 1.404 . S
C1476 C1479 1.539 1_545 S
C1477 C1473 1.408 . S
C1477 C1476 1.404 . S
C1477 H1489 0.930 . S
C1478 C1474 1.524 . S
C1478 H1490 0.956 . S
C1478 H1491 0.961 . S
C1478 H1492 0.961 . S
C1479 C1476 1.539 1_565 S
C1479 H1493 0.958 . S
C1479 H1494 0.961 . S
C1479 H1495 0.960 . S
H1480 C1464 0.931 . S
H1481 C1469 0.929 . S
H1482 C1470 0.960 . S
H1483 C1470 0.962 . S
H1484 C1470 0.960 . S
H1485 C1471 0.961 . S
H1486 C1471 0.961 . S
H1487 C1471 0.975 . S
H1488 C1472 0.931 . S
H1489 C1477 0.930 . S
H1490 C1478 0.956 . S
H1491 C1478 0.961 . S
H1492 C1478 0.961 . S
H1493 C1479 0.958 . S
H1494 C1479 0.961 . S
H1495 C1479 0.960 . S
C1496 C1497 1.391 1_455 S
C1496 C1498 1.396 . S
C1496 H1512 0.931 . S
C1497 C1496 1.391 1_655 S
C1497 C1501 1.376 . S
C1498 C1496 1.396 . S
C1498 C1499 1.352 1_455 S
C1498 C1502 1.546 . S
C1499 C1498 1.352 1_655 S
C1499 C1500 1.410 . S
C1499 C1507 1.503 . S
C1500 C1499 1.410 . S
C1500 C1501 1.392 . S
C1500 C1503 1.511 . S
C1501 C1497 1.376 . S
C1501 C1500 1.392 . S
C1501 H1513 0.929 . S
C1502 C1498 1.546 . S
C1502 H1514 0.960 . S
C1502 H1515 0.962 . S
C1502 H1516 0.960 . S
C1503 C1500 1.511 . S
C1503 H1517 0.961 . S
C1503 H1518 0.961 . S
C1503 H1519 0.961 . S
C1504 C1505 1.370 1_455 S
C1504 C1506 1.363 . S
C1504 H1520 0.931 . S
C1505 C1504 1.370 1_655 S
C1505 C1509 1.408 . S
C1506 C1504 1.363 . S
C1506 C1507 1.370 1_455 S
C1506 C1510 1.524 . S
C1507 C1499 1.503 . S
C1507 C1506 1.370 1_655 S
C1507 C1508 1.403 . S
C1508 C1507 1.403 . S
C1508 C1509 1.404 . S
C1508 C1511 1.539 . S
C1509 C1505 1.408 . S
C1509 C1508 1.404 . S
C1509 H1521 0.930 . S
C1510 C1506 1.524 . S
C1510 H1522 0.956 . S
C1510 H1523 0.961 . S
C1510 H1524 0.961 . S
C1511 C1508 1.539 . S
C1511 H1525 0.958 . S
C1511 H1526 0.961 . S
C1511 H1527 0.960 . S
H1512 C1496 0.931 . S
H1513 C1501 0.929 . S
H1514 C1502 0.960 . S
H1515 C1502 0.962 . S
H1516 C1502 0.960 . S
H1517 C1503 0.961 . S
H1518 C1503 0.961 . S
H1519 C1503 0.961 . S
H1520 C1504 0.931 . S
H1521 C1509 0.930 . S
H1522 C1510 0.956 . S
H1523 C1510 0.961 . S
H1524 C1510 0.961 . S
H1525 C1511 0.958 . S
H1526 C1511 0.961 . S
H1527 C1511 0.960 . S
C1528 C1529 1.391 1_565 S
C1528 C1530 1.394 . S
C1528 H1544 0.931 . S
C1529 C1528 1.391 1_545 S
C1529 C1533 1.376 . S
C1530 C1528 1.394 . S
C1530 C1531 1.369 1_565 S
C1530 C1534 1.531 . S
C1531 C1530 1.369 1_545 S
C1531 C1532 1.410 . S
C1531 C1539 1.503 1_556 S
C1532 C1531 1.410 . S
C1532 C1533 1.392 . S
C1532 C1535 1.526 . S
C1533 C1529 1.376 . S
C1533 C1532 1.392 . S
C1533 H1545 0.929 . S
C1534 C1530 1.531 . S
C1534 H1546 0.960 . S
C1534 H1547 0.962 . S
C1534 H1548 0.960 . S
C1535 C1532 1.526 . S
C1535 H1549 0.957 1_556 S
C1535 H1550 0.938 1_556 S
C1535 H1551 0.973 . S
C1536 C1537 1.379 . S
C1536 C1538 1.364 . S
C1536 H1552 0.921 1_545 S
C1537 C1536 1.379 . S
C1537 C1541 1.408 . S
C1538 C1536 1.364 . S
C1538 C1539 1.370 . S
C1538 C1542 1.524 1_545 S
C1539 C1531 1.503 1_554 S
C1539 C1538 1.370 . S
C1539 C1540 1.401 1_554 S
C1540 C1539 1.401 1_556 S
C1540 C1541 1.399 1_556 S
C1540 C1543 1.545 . S
C1541 C1537 1.408 . S
C1541 C1540 1.399 1_554 S
C1541 H1553 0.930 . S
C1542 C1538 1.524 1_565 S
C1542 H1554 0.956 . S
C1542 H1555 0.961 1_565 S
C1542 H1556 0.961 . S
C1543 C1540 1.545 . S
C1543 H1557 0.958 . S
C1543 H1558 0.961 . S
C1543 H1559 0.960 . S
H1544 C1528 0.931 . S
H1545 C1533 0.929 . S
H1546 C1534 0.960 . S
H1547 C1534 0.962 . S
H1548 C1534 0.960 . S
H1549 C1535 0.957 1_554 S
H1550 C1535 0.938 1_554 S
H1551 C1535 0.973 . S
H1552 C1536 0.921 1_565 S
H1553 C1541 0.930 . S
H1554 C1542 0.956 . S
H1555 C1542 0.961 1_545 S
H1556 C1542 0.961 . S
H1557 C1543 0.958 . S
H1558 C1543 0.961 . S
H1559 C1543 0.960 . S
C1560 C1561 1.391 . S
C1560 C1562 1.394 . S
C1560 H1576 0.931 . S
C1561 C1560 1.391 . S
C1561 C1565 1.376 . S
C1562 C1560 1.394 . S
C1562 C1563 1.369 . S
C1562 C1566 1.531 . S
C1563 C1562 1.369 . S
C1563 C1564 1.413 . S
C1563 C1571 1.503 1_554 S
C1564 C1563 1.413 . S
C1564 C1565 1.400 . S
C1564 C1567 1.500 1_554 S
C1565 C1561 1.376 . S
C1565 C1564 1.400 . S
C1565 H1577 0.929 . S
C1566 C1562 1.531 . S
C1566 H1578 0.960 . S
C1566 H1579 0.962 . S
C1566 H1580 0.960 . S
C1567 C1564 1.500 1_556 S
C1567 H1581 0.961 . S
C1567 H1582 0.961 . S
C1567 H1583 0.961 . S
C1568 C1569 1.370 . S
C1568 C1570 1.363 . S
C1568 H1584 0.931 . S
C1569 C1568 1.370 . S
C1569 C1573 1.408 . S
C1570 C1568 1.363 . S
C1570 C1571 1.370 . S
C1570 C1574 1.524 . S
C1571 C1563 1.503 1_556 S
C1571 C1570 1.370 . S
C1571 C1572 1.403 . S
C1572 C1571 1.403 . S
C1572 C1573 1.404 . S
C1572 C1575 1.539 . S
C1573 C1569 1.408 . S
C1573 C1572 1.404 . S
C1573 H1585 0.930 . S
C1574 C1570 1.524 . S
C1574 H1586 0.956 1_556 S
C1574 H1587 0.961 . S
C1574 H1588 0.961 . S
C1575 C1572 1.539 . S
C1575 H1589 0.958 1_556 S
C1575 H1590 0.961 . S
C1575 H1591 0.960 . S
H1576 C1560 0.931 . S
H1577 C1565 0.929 . S
H1578 C1566 0.960 . S
H1579 C1566 0.962 . S
H1580 C1566 0.960 . S
H1581 C1567 0.961 . S
H1582 C1567 0.961 . S
H1583 C1567 0.961 . S
H1584 C1568 0.931 . S
H1585 C1573 0.930 . S
H1586 C1574 0.956 1_554 S
H1587 C1574 0.961 . S
H1588 C1574 0.961 . S
H1589 C1575 0.958 1_554 S
H1590 C1575 0.961 . S
H1591 C1575 0.960 . S
C1592 C1593 1.391 1_545 S
C1592 C1594 1.394 . S
C1592 H1608 0.931 . S
C1593 C1592 1.391 1_565 S
C1593 C1597 1.376 . S
C1594 C1592 1.394 . S
C1594 C1595 1.369 1_545 S
C1594 C1598 1.531 . S
C1595 C1594 1.369 1_565 S
C1595 C1596 1.410 . S
C1595 C1603 1.503 . S
C1596 C1595 1.410 . S
C1596 C1597 1.392 . S
C1596 C1599 1.511 . S
C1597 C1593 1.376 . S
C1597 C1596 1.392 . S
C1597 H1609 0.929 . S
C1598 C1594 1.531 . S
C1598 H1610 0.960 . S
C1598 H1611 0.962 . S
C1598 H1612 0.960 . S
C1599 C1596 1.511 . S
C1599 H1613 0.961 . S
C1599 H1614 0.961 . S
C1599 H1615 0.961 . S
C1600 C1601 1.370 . S
C1600 C1602 1.363 . S
C1600 H1616 0.931 . S
C1601 C1600 1.370 . S
C1601 C1605 1.408 1_565 S
C1602 C1600 1.363 . S
C1602 C1603 1.370 . S
C1602 C1606 1.524 . S
C1603 C1595 1.503 . S
C1603 C1602 1.370 . S
C1603 C1604 1.403 1_565 S
C1604 C1603 1.403 1_545 S
C1604 C1605 1.404 . S
C1604 C1607 1.539 . S
C1605 C1601 1.408 1_545 S
C1605 C1604 1.404 . S
C1605 H1617 0.930 . S
C1606 C1602 1.524 . S
C1606 H1618 0.956 . S
C1606 H1619 0.961 . S
C1606 H1620 0.961 . S
C1607 C1604 1.539 . S
C1607 H1621 0.958 . S
C1607 H1622 0.961 . S
C1607 H1623 0.960 . S
H1608 C1592 0.931 . S
H1609 C1597 0.929 . S
H1610 C1598 0.960 . S
H1611 C1598 0.962 . S
H1612 C1598 0.960 . S
H1613 C1599 0.961 . S
H1614 C1599 0.961 . S
H1615 C1599 0.961 . S
H1616 C1600 0.931 . S
H1617 C1605 0.930 . S
H1618 C1606 0.956 . S
H1619 C1606 0.961 . S
H1620 C1606 0.961 . S
H1621 C1607 0.958 . S
H1622 C1607 0.961 . S
H1623 C1607 0.960 . S
C1624 C1625 1.391 . S
C1624 C1626 1.394 . S
C1624 H1640 0.931 . S
C1625 C1624 1.391 . S
C1625 C1629 1.376 . S
C1626 C1624 1.394 . S
C1626 C1627 1.369 . S
C1626 C1630 1.531 . S
C1627 C1626 1.369 . S
C1627 C1628 1.410 . S
C1627 C1635 1.503 . S
C1628 C1627 1.410 . S
C1628 C1629 1.392 . S
C1628 C1631 1.511 . S
C1629 C1625 1.376 . S
C1629 C1628 1.392 . S
C1629 H1641 0.929 . S
C1630 C1626 1.531 . S
C1630 H1642 0.960 . S
C1630 H1643 0.962 . S
C1630 H1644 0.960 . S
C1631 C1628 1.511 . S
C1631 H1645 0.961 . S
C1631 H1646 0.961 . S
C1631 H1647 0.961 . S
C1632 C1633 1.370 . S
C1632 C1634 1.363 . S
C1632 H1648 0.931 . S
C1633 C1632 1.370 . S
C1633 C1637 1.408 . S
C1634 C1632 1.363 . S
C1634 C1635 1.370 . S
C1634 C1638 1.524 . S
C1635 C1627 1.503 . S
C1635 C1634 1.370 . S
C1635 C1636 1.403 . S
C1636 C1635 1.403 . S
C1636 C1637 1.404 . S
C1636 C1639 1.539 . S
C1637 C1633 1.408 . S
C1637 C1636 1.404 . S
C1637 H1649 0.930 . S
C1638 C1634 1.524 . S
C1638 H1650 0.956 . S
C1638 H1651 0.961 . S
C1638 H1652 0.961 . S
C1639 C1636 1.539 . S
C1639 H1653 0.958 . S
C1639 H1654 0.961 . S
C1639 H1655 0.960 . S
H1640 C1624 0.931 . S
H1641 C1629 0.929 . S
H1642 C1630 0.960 . S
H1643 C1630 0.962 . S
H1644 C1630 0.960 . S
H1645 C1631 0.961 . S
H1646 C1631 0.961 . S
H1647 C1631 0.961 . S
H1648 C1632 0.931 . S
H1649 C1637 0.930 . S
H1650 C1638 0.956 . S
H1651 C1638 0.961 . S
H1652 C1638 0.961 . S
H1653 C1639 0.958 . S
H1654 C1639 0.961 . S
H1655 C1639 0.960 . S
C1656 C1657 1.391 1_556 S
C1656 C1658 1.394 . S
C1656 H1672 0.931 . S
C1657 C1656 1.391 1_554 S
C1657 C1661 1.376 . S
C1658 C1656 1.394 . S
C1658 C1659 1.369 1_556 S
C1658 C1662 1.531 . S
C1659 C1658 1.369 1_554 S
C1659 C1660 1.410 . S
C1659 C1667 1.503 1_455 S
C1660 C1659 1.410 . S
C1660 C1661 1.392 . S
C1660 C1663 1.511 . S
C1661 C1657 1.376 . S
C1661 C1660 1.392 . S
C1661 H1673 0.929 . S
C1662 C1658 1.531 . S
C1662 H1674 0.965 . S
C1662 H1675 0.962 1_455 S
C1662 H1676 0.960 . S
C1663 C1660 1.511 . S
C1663 H1677 0.961 . S
C1663 H1678 0.961 . S
C1663 H1679 0.961 . S
C1664 C1665 1.370 . S
C1664 C1666 1.363 . S
C1664 H1680 0.931 . S
C1665 C1664 1.370 . S
C1665 C1669 1.408 . S
C1666 C1664 1.363 . S
C1666 C1667 1.370 . S
C1666 C1670 1.524 . S
C1667 C1659 1.503 1_655 S
C1667 C1666 1.370 . S
C1667 C1668 1.403 . S
C1668 C1667 1.403 . S
C1668 C1669 1.404 . S
C1668 C1671 1.538 1_654 S
C1669 C1665 1.408 . S
C1669 C1668 1.404 . S
C1669 H1681 0.930 . S
C1670 C1666 1.524 . S
C1670 H1682 0.956 . S
C1670 H1683 0.961 . S
C1670 H1684 0.961 . S
C1671 C1668 1.538 1_456 S
C1671 H1685 0.967 . S
C1671 H1686 0.958 1_556 S
C1671 H1687 0.955 1_556 S
H1672 C1656 0.931 . S
H1673 C1661 0.929 . S
H1674 C1662 0.965 . S
H1675 C1662 0.962 1_655 S
H1676 C1662 0.960 . S
H1677 C1663 0.961 . S
H1678 C1663 0.961 . S
H1679 C1663 0.961 . S
H1680 C1664 0.931 . S
H1681 C1669 0.930 . S
H1682 C1670 0.956 . S
H1683 C1670 0.961 . S
H1684 C1670 0.961 . S
H1685 C1671 0.967 . S
H1686 C1671 0.958 1_554 S
H1687 C1671 0.955 1_554 S
C1688 C1689 1.391 . S
C1688 C1690 1.394 . S
C1688 H1704 0.931 . S
C1689 C1688 1.391 . S
C1689 C1693 1.376 . S
C1690 C1688 1.394 . S
C1690 C1691 1.369 . S
C1690 C1694 1.531 . S
C1691 C1690 1.369 . S
C1691 C1692 1.399 1_455 S
C1691 C1699 1.503 1_455 S
C1692 C1691 1.399 1_655 S
C1692 C1693 1.366 1_655 S
C1692 C1695 1.548 . S
C1693 C1689 1.376 . S
C1693 C1692 1.366 1_455 S
C1693 H1705 0.929 . S
C1694 C1690 1.531 . S
C1694 H1706 0.960 . S
C1694 H1707 0.962 . S
C1694 H1708 0.960 . S
C1695 C1692 1.548 . S
C1695 H1709 0.961 . S
C1695 H1710 0.961 . S
C1695 H1711 0.961 . S
C1696 C1697 1.370 . S
C1696 C1698 1.363 . S
C1696 H1712 0.931 . S
C1697 C1696 1.370 . S
C1697 C1701 1.408 . S
C1698 C1696 1.363 . S
C1698 C1699 1.370 . S
C1698 C1702 1.524 . S
C1699 C1691 1.503 1_655 S
C1699 C1698 1.370 . S
C1699 C1700 1.403 . S
C1700 C1699 1.403 . S
C1700 C1701 1.404 . S
C1700 C1703 1.539 . S
C1701 C1697 1.408 . S
C1701 C1700 1.404 . S
C1701 H1713 0.930 . S
C1702 C1698 1.524 . S
C1702 H1714 0.956 1_655 S
C1702 H1715 0.961 . S
C1702 H1716 0.961 . S
C1703 C1700 1.539 . S
C1703 H1717 0.958 . S
C1703 H1718 0.961 . S
C1703 H1719 0.960 . S
H1704 C1688 0.931 . S
H1705 C1693 0.929 . S
H1706 C1694 0.960 . S
H1707 C1694 0.962 . S
H1708 C1694 0.960 . S
H1709 C1695 0.961 . S
H1710 C1695 0.961 . S
H1711 C1695 0.961 . S
H1712 C1696 0.931 . S
H1713 C1701 0.930 . S
H1714 C1702 0.956 1_455 S
H1715 C1702 0.961 . S
H1716 C1702 0.961 . S
H1717 C1703 0.958 . S
H1718 C1703 0.961 . S
H1719 C1703 0.960 . S
C1720 C1721 1.391 . S
C1720 C1722 1.394 . S
C1720 H1736 0.931 . S
C1721 C1720 1.391 . S
C1721 C1725 1.376 . S
C1722 C1720 1.394 . S
C1722 C1723 1.369 . S
C1722 C1726 1.531 . S
C1723 C1722 1.369 . S
C1723 C1724 1.410 . S
C1723 C1731 1.503 . S
C1724 C1723 1.410 . S
C1724 C1725 1.392 . S
C1724 C1727 1.511 . S
C1725 C1721 1.376 . S
C1725 C1724 1.392 . S
C1725 H1737 0.929 . S
C1726 C1722 1.531 . S
C1726 H1738 0.960 . S
C1726 H1739 0.962 . S
C1726 H1740 0.960 . S
C1727 C1724 1.511 . S
C1727 H1741 0.961 . S
C1727 H1742 0.961 . S
C1727 H1743 0.961 . S
C1728 C1729 1.370 . S
C1728 C1730 1.363 . S
C1728 H1744 0.931 . S
C1729 C1728 1.370 . S
C1729 C1733 1.408 . S
C1730 C1728 1.363 . S
C1730 C1731 1.370 . S
C1730 C1734 1.524 . S
C1731 C1723 1.503 . S
C1731 C1730 1.370 . S
C1731 C1732 1.403 . S
C1732 C1731 1.403 . S
C1732 C1733 1.404 . S
C1732 C1735 1.539 . S
C1733 C1729 1.408 . S
C1733 C1732 1.404 . S
C1733 H1745 0.930 . S
C1734 C1730 1.524 . S
C1734 H1746 0.956 . S
C1734 H1747 0.961 . S
C1734 H1748 0.961 . S
C1735 C1732 1.539 . S
C1735 H1749 0.958 . S
C1735 H1750 0.961 . S
C1735 H1751 0.960 . S
H1736 C1720 0.931 . S
H1737 C1725 0.929 . S
H1738 C1726 0.960 . S
H1739 C1726 0.962 . S
H1740 C1726 0.960 . S
H1741 C1727 0.961 . S
H1742 C1727 0.961 . S
H1743 C1727 0.961 . S
H1744 C1728 0.931 . S
H1745 C1733 0.930 . S
H1746 C1734 0.956 . S
H1747 C1734 0.961 . S
H1748 C1734 0.961 . S
H1749 C1735 0.958 . S
H1750 C1735 0.961 . S
H1751 C1735 0.960 . S
C1752 C1753 1.391 . S
C1752 C1754 1.394 . S
C1752 H1768 0.931 . S
C1753 C1752 1.391 . S
C1753 C1757 1.376 . S
C1754 C1752 1.394 . S
C1754 C1755 1.369 . S
C1754 C1758 1.531 . S
C1755 C1754 1.369 . S
C1755 C1756 1.410 . S
C1755 C1763 1.503 . S
C1756 C1755 1.410 . S
C1756 C1757 1.392 . S
C1756 C1759 1.511 . S
C1757 C1753 1.376 . S
C1757 C1756 1.392 . S
C1757 H1769 0.929 . S
C1758 C1754 1.531 . S
C1758 H1770 0.960 . S
C1758 H1771 0.962 . S
C1758 H1772 0.960 . S
C1759 C1756 1.511 . S
C1759 H1773 0.961 . S
C1759 H1774 0.961 . S
C1759 H1775 0.961 . S
C1760 C1761 1.370 . S
C1760 C1762 1.363 . S
C1760 H1776 0.931 . S
C1761 C1760 1.370 . S
C1761 C1765 1.408 . S
C1762 C1760 1.363 . S
C1762 C1763 1.370 . S
C1762 C1766 1.524 . S
C1763 C1755 1.503 . S
C1763 C1762 1.370 . S
C1763 C1764 1.403 . S
C1764 C1763 1.403 . S
C1764 C1765 1.404 . S
C1764 C1767 1.539 . S
C1765 C1761 1.408 . S
C1765 C1764 1.404 . S
C1765 H1777 0.930 . S
C1766 C1762 1.524 . S
C1766 H1778 0.956 . S
C1766 H1779 0.961 . S
C1766 H1780 0.961 . S
C1767 C1764 1.539 . S
C1767 H1781 0.958 . S
C1767 H1782 0.961 . S
C1767 H1783 0.960 . S
H1768 C1752 0.931 . S
H1769 C1757 0.929 . S
H1770 C1758 0.960 . S
H1771 C1758 0.962 . S
H1772 C1758 0.960 . S
H1773 C1759 0.961 . S
H1774 C1759 0.961 . S
H1775 C1759 0.961 . S
H1776 C1760 0.931 . S
H1777 C1765 0.930 . S
H1778 C1766 0.956 . S
H1779 C1766 0.961 . S
H1780 C1766 0.961 . S
H1781 C1767 0.958 . S
H1782 C1767 0.961 . S
H1783 C1767 0.960 . S
C1784 C1785 1.391 . S
C1784 C1786 1.394 . S
C1784 H1800 0.931 . S
C1785 C1784 1.391 . S
C1785 C1789 1.376 . S
C1786 C1784 1.394 . S
C1786 C1787 1.369 . S
C1786 C1790 1.531 1_565 S
C1787 C1786 1.369 . S
C1787 C1788 1.410 . S
C1787 C1795 1.503 1_565 S
C1788 C1787 1.410 . S
C1788 C1789 1.392 . S
C1788 C1791 1.511 . S
C1789 C1785 1.376 . S
C1789 C1788 1.392 . S
C1789 H1801 0.929 . S
C1790 C1786 1.531 1_545 S
C1790 H1802 0.960 . S
C1790 H1803 0.962 . S
C1790 H1804 0.960 . S
C1791 C1788 1.511 . S
C1791 H1805 0.961 . S
C1791 H1806 0.961 . S
C1791 H1807 0.961 . S
C1792 C1793 1.370 . S
C1792 C1794 1.363 . S
C1792 H1808 0.931 . S
C1793 C1792 1.370 . S
C1793 C1797 1.408 . S
C1794 C1792 1.363 . S
C1794 C1795 1.370 . S
C1794 C1798 1.524 1_545 S
C1795 C1787 1.503 1_545 S
C1795 C1794 1.370 . S
C1795 C1796 1.403 . S
C1796 C1795 1.403 . S
C1796 C1797 1.404 . S
C1796 C1799 1.539 . S
C1797 C1793 1.408 . S
C1797 C1796 1.404 . S
C1797 H1809 0.930 . S
C1798 C1794 1.524 1_565 S
C1798 H1810 0.956 . S
C1798 H1811 0.961 . S
C1798 H1812 0.961 . S
C1799 C1796 1.539 . S
C1799 H1813 0.958 . S
C1799 H1814 0.961 . S
C1799 H1815 0.960 . S
H1800 C1784 0.931 . S
H1801 C1789 0.929 . S
H1802 C1790 0.960 . S
H1803 C1790 0.962 . S
H1804 C1790 0.960 . S
H1805 C1791 0.961 . S
H1806 C1791 0.961 . S
H1807 C1791 0.961 . S
H1808 C1792 0.931 . S
H1809 C1797 0.930 . S
H1810 C1798 0.956 . S
H1811 C1798 0.961 . S
H1812 C1798 0.961 . S
H1813 C1799 0.958 . S
H1814 C1799 0.961 . S
H1815 C1799 0.960 . S
C1816 C1817 1.391 1_554 S
C1816 C1818 1.394 . S
C1816 H1832 0.931 . S
C1817 C1816 1.391 1_556 S
C1817 C1821 1.376 . S
C1818 C1816 1.394 . S
C1818 C1819 1.369 1_554 S
C1818 C1822 1.531 . S
C1819 C1818 1.369 1_556 S
C1819 C1820 1.410 . S
C1819 C1827 1.503 . S
C1820 C1819 1.410 . S
C1820 C1821 1.392 . S
C1820 C1823 1.511 . S
C1821 C1817 1.376 . S
C1821 C1820 1.392 . S
C1821 H1833 0.929 . S
C1822 C1818 1.531 . S
C1822 H1834 0.960 . S
C1822 H1835 0.962 . S
C1822 H1836 0.960 . S
C1823 C1820 1.511 . S
C1823 H1837 0.961 . S
C1823 H1838 0.961 . S
C1823 H1839 0.961 . S
C1824 C1825 1.370 . S
C1824 C1826 1.363 . S
C1824 H1840 0.931 1_556 S
C1825 C1824 1.370 . S
C1825 C1829 1.408 . S
C1826 C1824 1.363 . S
C1826 C1827 1.370 . S
C1826 C1830 1.524 1_556 S
C1827 C1819 1.503 . S
C1827 C1826 1.370 . S
C1827 C1828 1.403 . S
C1828 C1827 1.403 . S
C1828 C1829 1.404 . S
C1828 C1831 1.539 . S
C1829 C1825 1.408 . S
C1829 C1828 1.404 . S
C1829 H1841 0.930 . S
C1830 C1826 1.524 1_554 S
C1830 H1842 0.956 . S
C1830 H1843 0.961 1_554 S
C1830 H1844 0.961 . S
C1831 C1828 1.539 . S
C1831 H1845 0.958 . S
C1831 H1846 0.961 . S
C1831 H1847 0.960 . S
H1832 C1816 0.931 . S
H1833 C1821 0.929 . S
H1834 C1822 0.960 . S
H1835 C1822 0.962 . S
H1836 C1822 0.960 . S
H1837 C1823 0.961 . S
H1838 C1823 0.961 . S
H1839 C1823 0.961 . S
H1840 C1824 0.931 1_554 S
H1841 C1829 0.930 . S
H1842 C1830 0.956 . S
H1843 C1830 0.961 1_556 S
H1844 C1830 0.961 . S
H1845 C1831 0.958 . S
H1846 C1831 0.961 . S
H1847 C1831 0.960 . S
C313 C226 0.777 . S
C321 C8 0.709 . S
C345 C21 0.723 . S
C353 C213 0.774 . S
C377 C34 0.815 . S
C385 C252 0.778 . S
C409 C47 0.802 . S
C417 C239 0.815 . S
C441 C60 0.693 . S
C449 C278 0.740 . S
C473 C73 0.728 . S
C481 C291 0.775 . S
C505 C265 0.814 . S
C513 C86 0.744 . S
C537 C148 0.826 . S
C545 C99 0.797 . S
C569 C112 0.585 . S
C577 C44 0.689 . S
C601 C18 0.751 . S
C609 C125 0.763 . S
C633 C138 0.717 . S
C641 C5 0.805 . S
C665 C151 0.683 . S
C673 C187 0.767 . S
C697 C70 0.834 . S
C705 C164 0.876 . S
C729 C57 0.736 . S
C737 C177 0.826 . S
C761 C190 0.708 . S
C769 C96 0.795 . S
C793 C203 0.737 . S
C801 C83 0.693 . S
C825 C122 0.721 . S
C833 C216 0.853 . S
C857 C135 0.795 . S
C865 C229 0.817 . S
C889 C109 0.789 . S
C897 C242 0.833 . S
C921 C255 0.822 . S
C929 C304 0.774 . S
C953 C200 0.723 . S
C961 C268 0.855 . S
C985 C281 0.855 . S
C993 C174 0.747 . S
C1017 C161 0.830 . S
C1025 C294 0.700 . S
C1049 C307 0.837 . S
C1057 C31 0.747 . S
C1081 C0 1.516 . S
C1089 C13 1.533 . S
C1113 C39 1.440 . S
C1121 C26 1.456 . S
C1145 C52 1.488 . S
C1153 C78 1.524 . S
C1177 C65 1.654 . S
C1185 C91 1.636 . S
C1209 C286 1.536 . S
C1217 C104 1.526 . S
C1241 C117 1.615 . S
C1249 C143 1.624 . S
C1273 C260 1.600 . S
C1281 C130 1.585 . S
C1305 C169 1.571 . S
C1313 C156 1.594 . S
C1337 C182 1.659 . S
C1345 C195 1.627 . S
C1369 C234 1.606 . S
C1377 C208 1.577 . S
C1401 C221 1.437 . S
C1409 C247 1.461 . S
C1433 C299 1.468 . S
C1441 C273 1.478 . S
C1465 C36 1.250 . S
C1473 C10 1.221 . S
C1497 C23 1.344 . S
C1505 C49 1.324 . S
C1529 C257 1.254 . S
C1537 C62 1.219 . S
C1561 C75 1.285 . S
C1569 C244 1.292 . S
C1593 C88 1.347 . S
C1601 C231 1.325 . S
C1625 C218 1.376 . S
C1633 C101 1.402 . S
C1657 C114 1.260 . S
C1665 C309 1.218 . S
C1689 C127 1.276 . S
C1697 C140 1.296 . S
C1721 C270 1.384 . S
C1729 C153 1.398 . S
C1753 C166 1.417 . S
C1761 C192 1.386 . S
C1785 C179 1.270 . S
C1793 C205 1.305 . S
C1817 C296 1.352 . S
C1825 C283 1.320 . S
