# Generated by pormake.
# Topology whp, (6)-cn, num edge types: 1
# Building blocks:
#     Node 0, Type 0, BuildingBlock: OJICUG_clean_sbu_0, # of connection points: 6
#     Node 1, Type 0, BuildingBlock: OJICUG_clean_sbu_0, # of connection points: 6
#     Node 2, Type 0, BuildingBlock: OJICUG_clean_sbu_0, # of connection points: 6
#     Node 3, Type 0, BuildingBlock: OJICUG_clean_sbu_0, # of connection points: 6
#     Node 4, Type 0, BuildingBlock: OJICUG_clean_sbu_0, # of connection points: 6
#     Node 5, Type 0, BuildingBlock: OJICUG_clean_sbu_0, # of connection points: 6
#     Node 6, Type 0, BuildingBlock: OJICUG_clean_sbu_0, # of connection points: 6
#     Node 7, Type 0, BuildingBlock: OJICUG_clean_sbu_0, # of connection points: 6
#     Node 8, Type 0, BuildingBlock: OJICUG_clean_sbu_0, # of connection points: 6
#     Node 9, Type 0, BuildingBlock: OJICUG_clean_sbu_0, # of connection points: 6
#     Node 10, Type 0, BuildingBlock: OJICUG_clean_sbu_0, # of connection points: 6
#     Node 11, Type 0, BuildingBlock: OJICUG_clean_sbu_0, # of connection points: 6
#     Node 12, Type 0, BuildingBlock: OJICUG_clean_sbu_0, # of connection points: 6
#     Node 13, Type 0, BuildingBlock: OJICUG_clean_sbu_0, # of connection points: 6
#     Node 14, Type 0, BuildingBlock: OJICUG_clean_sbu_0, # of connection points: 6
#     Node 15, Type 0, BuildingBlock: OJICUG_clean_sbu_0, # of connection points: 6
#     Edge 16, Type (0, 0), BuildingBlock: ZUJKAS_clean_linker_0, # of connection points: 2
#     Edge 17, Type (0, 0), BuildingBlock: ZUJKAS_clean_linker_0, # of connection points: 2
#     Edge 18, Type (0, 0), BuildingBlock: ZUJKAS_clean_linker_0, # of connection points: 2
#     Edge 19, Type (0, 0), BuildingBlock: ZUJKAS_clean_linker_0, # of connection points: 2
#     Edge 20, Type (0, 0), BuildingBlock: ZUJKAS_clean_linker_0, # of connection points: 2
#     Edge 21, Type (0, 0), BuildingBlock: ZUJKAS_clean_linker_0, # of connection points: 2
#     Edge 22, Type (0, 0), BuildingBlock: ZUJKAS_clean_linker_0, # of connection points: 2
#     Edge 23, Type (0, 0), BuildingBlock: ZUJKAS_clean_linker_0, # of connection points: 2
#     Edge 24, Type (0, 0), BuildingBlock: ZUJKAS_clean_linker_0, # of connection points: 2
#     Edge 25, Type (0, 0), BuildingBlock: ZUJKAS_clean_linker_0, # of connection points: 2
#     Edge 26, Type (0, 0), BuildingBlock: ZUJKAS_clean_linker_0, # of connection points: 2
#     Edge 27, Type (0, 0), BuildingBlock: ZUJKAS_clean_linker_0, # of connection points: 2
#     Edge 28, Type (0, 0), BuildingBlock: ZUJKAS_clean_linker_0, # of connection points: 2
#     Edge 29, Type (0, 0), BuildingBlock: ZUJKAS_clean_linker_0, # of connection points: 2
#     Edge 30, Type (0, 0), BuildingBlock: ZUJKAS_clean_linker_0, # of connection points: 2
#     Edge 31, Type (0, 0), BuildingBlock: ZUJKAS_clean_linker_0, # of connection points: 2
#     Edge 32, Type (0, 0), BuildingBlock: ZUJKAS_clean_linker_0, # of connection points: 2
#     Edge 33, Type (0, 0), BuildingBlock: ZUJKAS_clean_linker_0, # of connection points: 2
#     Edge 34, Type (0, 0), BuildingBlock: ZUJKAS_clean_linker_0, # of connection points: 2
#     Edge 35, Type (0, 0), BuildingBlock: ZUJKAS_clean_linker_0, # of connection points: 2
#     Edge 36, Type (0, 0), BuildingBlock: ZUJKAS_clean_linker_0, # of connection points: 2
#     Edge 37, Type (0, 0), BuildingBlock: ZUJKAS_clean_linker_0, # of connection points: 2
#     Edge 38, Type (0, 0), BuildingBlock: ZUJKAS_clean_linker_0, # of connection points: 2
#     Edge 39, Type (0, 0), BuildingBlock: ZUJKAS_clean_linker_0, # of connection points: 2
#     Edge 40, Type (0, 0), BuildingBlock: ZUJKAS_clean_linker_0, # of connection points: 2
#     Edge 41, Type (0, 0), BuildingBlock: ZUJKAS_clean_linker_0, # of connection points: 2
#     Edge 42, Type (0, 0), BuildingBlock: ZUJKAS_clean_linker_0, # of connection points: 2
#     Edge 43, Type (0, 0), BuildingBlock: ZUJKAS_clean_linker_0, # of connection points: 2
#     Edge 44, Type (0, 0), BuildingBlock: ZUJKAS_clean_linker_0, # of connection points: 2
#     Edge 45, Type (0, 0), BuildingBlock: ZUJKAS_clean_linker_0, # of connection points: 2
#     Edge 46, Type (0, 0), BuildingBlock: ZUJKAS_clean_linker_0, # of connection points: 2
#     Edge 47, Type (0, 0), BuildingBlock: ZUJKAS_clean_linker_0, # of connection points: 2
#     Edge 48, Type (0, 0), BuildingBlock: ZUJKAS_clean_linker_0, # of connection points: 2
#     Edge 49, Type (0, 0), BuildingBlock: ZUJKAS_clean_linker_0, # of connection points: 2
#     Edge 50, Type (0, 0), BuildingBlock: ZUJKAS_clean_linker_0, # of connection points: 2
#     Edge 51, Type (0, 0), BuildingBlock: ZUJKAS_clean_linker_0, # of connection points: 2
#     Edge 52, Type (0, 0), BuildingBlock: ZUJKAS_clean_linker_0, # of connection points: 2
#     Edge 53, Type (0, 0), BuildingBlock: ZUJKAS_clean_linker_0, # of connection points: 2
#     Edge 54, Type (0, 0), BuildingBlock: ZUJKAS_clean_linker_0, # of connection points: 2
#     Edge 55, Type (0, 0), BuildingBlock: ZUJKAS_clean_linker_0, # of connection points: 2
#     Edge 56, Type (0, 0), BuildingBlock: ZUJKAS_clean_linker_0, # of connection points: 2
#     Edge 57, Type (0, 0), BuildingBlock: ZUJKAS_clean_linker_0, # of connection points: 2
#     Edge 58, Type (0, 0), BuildingBlock: ZUJKAS_clean_linker_0, # of connection points: 2
#     Edge 59, Type (0, 0), BuildingBlock: ZUJKAS_clean_linker_0, # of connection points: 2
#     Edge 60, Type (0, 0), BuildingBlock: ZUJKAS_clean_linker_0, # of connection points: 2
#     Edge 61, Type (0, 0), BuildingBlock: ZUJKAS_clean_linker_0, # of connection points: 2
#     Edge 62, Type (0, 0), BuildingBlock: ZUJKAS_clean_linker_0, # of connection points: 2
#     Edge 63, Type (0, 0), BuildingBlock: ZUJKAS_clean_linker_0, # of connection points: 2
# Relax obj value: 0.276
# Max RMSD: 0.243
# Mean RMSD: 0.243
data_MOF--net-whp--node1-OJICUG_clean_sbu_0--edge1-ZUJKAS_clean_linker_0
_symmetry_space_group_name_H-M    P1
_symmetry_Int_Tables_number       1
_symmetry_cell_setting            triclinic
loop_
_symmetry_equiv_pos_as_xyz
'x, y, z'
_cell_length_a     61.357629
_cell_length_b     61.360737
_cell_length_c     39.056627
_cell_angle_alpha  90.020047
_cell_angle_beta   90.006502
_cell_angle_gamma 90.012638
loop_
_atom_site_label
_atom_site_type_symbol
_atom_site_fract_x
_atom_site_fract_y
_atom_site_fract_z
_atom_type_partial_charge
Sc0 Sc 0.29914 0.55156 0.36188 0.0
Sc1 Sc 0.33157 0.51727 0.31093 0.0
Sc2 Sc 0.2769 0.50289 0.32866 0.0
O3 O 0.30252 0.52391 0.33378 0.0
C4 C 0.27177 0.51769 0.40658 0.0
C5 C 0.34677 0.53563 0.38353 0.0
C6 C 0.31671 0.4703 0.33837 0.0
C7 C 0.32912 0.56878 0.30071 0.0
C8 C 0.25388 0.54948 0.3217 0.0
C9 C 0.29771 0.50237 0.25357 0.0
O10 O 0.2828 0.53503 0.40286 0.0
O11 O 0.3501 0.52438 0.35666 0.0
O12 O 0.29648 0.47461 0.34073 0.0
O13 O 0.31544 0.57175 0.32469 0.0
O14 O 0.25468 0.52906 0.31589 0.0
O15 O 0.31622 0.50971 0.26263 0.0
O16 O 0.26862 0.55968 0.33807 0.0
O17 O 0.33618 0.55002 0.29257 0.0
O18 O 0.28241 0.4986 0.27469 0.0
O19 O 0.32921 0.54614 0.38867 0.0
O20 O 0.26812 0.50453 0.38211 0.0
O21 O 0.33065 0.4839 0.32732 0.0
Sc22 Sc 0.94584 0.30132 0.85361 0.0
Sc23 Sc 0.98201 0.33417 0.80671 0.0
Sc24 Sc 0.99583 0.27946 0.82565 0.0
O25 O 0.97457 0.30498 0.82857 0.0
C26 C 0.97854 0.27456 0.90183 0.0
C27 C 0.96088 0.34863 0.87795 0.0
C28 C 0.02817 0.31957 0.83695 0.0
C29 C 0.93107 0.33175 0.79131 0.0
C30 C 0.94953 0.25599 0.81493 0.0
C31 C 0.99834 0.29985 0.75049 0.0
O32 O 0.96053 0.28393 0.89545 0.0
O33 O 0.97263 0.35245 0.85176 0.0
O34 O 0.02403 0.29927 0.83737 0.0
O35 O 0.92727 0.31836 0.81537 0.0
O36 O 0.97028 0.25624 0.81374 0.0
O37 O 0.99214 0.31882 0.75949 0.0
O38 O 0.93839 0.27154 0.82735 0.0
O39 O 0.95013 0.33858 0.78445 0.0
O40 O 0.00028 0.28411 0.77149 0.0
O41 O 0.95061 0.33083 0.88214 0.0
O42 O 0.99348 0.27235 0.87955 0.0
O43 O 0.01453 0.33371 0.82675 0.0
Sc44 Sc 0.22288 0.99556 0.33068 0.0
Sc45 Sc 0.16875 0.98001 0.31139 0.0
Sc46 Sc 0.20137 0.94634 0.36293 0.0
O47 O 0.19769 0.97397 0.33492 0.0
C48 C 0.24689 0.94918 0.32422 0.0
C49 C 0.20313 0.99571 0.25514 0.0
C50 C 0.17208 0.92876 0.30097 0.0
C51 C 0.18207 0.02732 0.33876 0.0
C52 C 0.22764 0.98096 0.40829 0.0
C53 C 0.15351 0.96127 0.38397 0.0
O54 O 0.24625 0.96982 0.32052 0.0
O55 O 0.18436 0.98891 0.26393 0.0
O56 O 0.18469 0.92598 0.3264 0.0
O57 O 0.20245 0.02364 0.34029 0.0
O58 O 0.2182 0.96278 0.40363 0.0
O59 O 0.14991 0.9716 0.35628 0.0
O60 O 0.23004 0.99493 0.38462 0.0
O61 O 0.16834 0.01313 0.32894 0.0
O62 O 0.17153 0.95185 0.39029 0.0
O63 O 0.21852 0.99883 0.27637 0.0
O64 O 0.23157 0.93841 0.33815 0.0
O65 O 0.1656 0.94746 0.29145 0.0
Sc66 Sc 0.5025 0.22085 0.82518 0.0
Sc67 Sc 0.51841 0.16685 0.80537 0.0
Sc68 Sc 0.55087 0.19896 0.85957 0.0
O69 O 0.52392 0.19558 0.82995 0.0
C70 C 0.54921 0.24436 0.82052 0.0
C71 C 0.50351 0.20155 0.74924 0.0
C72 C 0.56982 0.1696 0.79856 0.0
C73 C 0.47063 0.18005 0.83131 0.0
C74 C 0.51599 0.22586 0.90329 0.0
C75 C 0.53521 0.15117 0.8789 0.0
O76 O 0.52866 0.24386 0.81558 0.0
O77 O 0.51057 0.18284 0.75778 0.0
O78 O 0.57192 0.18191 0.82451 0.0
O79 O 0.47435 0.20038 0.83409 0.0
O80 O 0.53401 0.21607 0.89929 0.0
O81 O 0.52602 0.14757 0.85022 0.0
O82 O 0.50235 0.22833 0.87916 0.0
O83 O 0.4849 0.1665 0.82114 0.0
O84 O 0.54413 0.16925 0.88646 0.0
O85 O 0.49973 0.2166 0.77077 0.0
O86 O 0.55961 0.2291 0.8353 0.0
O87 O 0.55137 0.16367 0.78716 0.0
Sc88 Sc 0.80182 0.4469 0.13828 0.0
Sc89 Sc 0.83385 0.48135 0.18954 0.0
Sc90 Sc 0.77959 0.49616 0.16906 0.0
O91 O 0.80507 0.47482 0.16568 0.0
C92 C 0.77557 0.4807 0.09154 0.0
C93 C 0.84972 0.46218 0.11765 0.0
C94 C 0.82003 0.52835 0.16111 0.0
C95 C 0.83065 0.43005 0.20108 0.0
C96 C 0.75597 0.44974 0.17631 0.0
C97 C 0.79904 0.49719 0.24494 0.0
O98 O 0.78578 0.463 0.09652 0.0
O99 O 0.85307 0.47325 0.14474 0.0
O100 O 0.79978 0.52425 0.15834 0.0
O101 O 0.8178 0.42696 0.17605 0.0
O102 O 0.75655 0.47034 0.18037 0.0
O103 O 0.81778 0.48997 0.23681 0.0
O104 O 0.77126 0.43913 0.162 0.0
O105 O 0.83747 0.44884 0.20959 0.0
O106 O 0.78396 0.50042 0.22323 0.0
O107 O 0.83198 0.45212 0.11198 0.0
O108 O 0.77218 0.49452 0.11517 0.0
O109 O 0.83375 0.51452 0.17214 0.0
Sc110 Sc 0.00242 0.77618 0.66564 0.0
Sc111 Sc 0.01594 0.8312 0.68277 0.0
Sc112 Sc 0.05125 0.79873 0.63372 0.0
O113 O 0.0232 0.80202 0.66076 0.0
C114 C 0.04931 0.75361 0.67371 0.0
C115 C 0.00121 0.79724 0.74049 0.0
C116 C 0.06721 0.82948 0.69504 0.0
C117 C 0.96941 0.81577 0.65503 0.0
C118 C 0.01782 0.7709 0.58826 0.0
C119 C 0.03524 0.84588 0.6104 0.0
O120 O 0.02868 0.75379 0.67723 0.0
O121 O 0.00708 0.81615 0.73078 0.0
O122 O 0.07066 0.81611 0.67077 0.0
O123 O 0.9737 0.79549 0.65466 0.0
O124 O 0.03552 0.78123 0.59294 0.0
O125 O 0.02412 0.84954 0.6373 0.0
O126 O 0.00385 0.76806 0.61189 0.0
O127 O 0.98307 0.83012 0.66444 0.0
O128 O 0.04549 0.82816 0.60545 0.0
O129 O 0.99889 0.78135 0.71988 0.0
O130 O 0.05974 0.76896 0.65927 0.0
O131 O 0.04821 0.83596 0.70306 0.0
Sc132 Sc 0.72223 0.00319 0.16902 0.0
Sc133 Sc 0.6679 0.01854 0.18745 0.0
Sc134 Sc 0.7002 0.0513 0.13406 0.0
O135 O 0.6968 0.02432 0.1636 0.0
C136 C 0.74483 0.05041 0.17508 0.0
C137 C 0.70221 0.00408 0.24451 0.0
C138 C 0.66974 0.0699 0.19415 0.0
C139 C 0.68178 0.97087 0.16195 0.0
C140 C 0.72839 0.01686 0.09128 0.0
C141 C 0.65321 0.03456 0.11298 0.0
O142 O 0.74475 0.02976 0.1791 0.0
O143 O 0.68345 0.01074 0.23546 0.0
O144 O 0.68187 0.07212 0.16802 0.0
O145 O 0.70213 0.97473 0.15995 0.0
O146 O 0.71871 0.03494 0.09528 0.0
O147 O 0.64908 0.02609 0.14203 0.0
O148 O 0.73017 0.00294 0.11516 0.0
O149 O 0.66797 0.98508 0.17145 0.0
O150 O 0.67135 0.04342 0.10561 0.0
O151 O 0.71755 0.00058 0.22337 0.0
O152 O 0.72951 0.06072 0.16022 0.0
O153 O 0.66438 0.05138 0.2059 0.0
Sc154 Sc 0.44611 0.70039 0.62969 0.0
Sc155 Sc 0.47893 0.6681 0.68323 0.0
Sc156 Sc 0.49407 0.72254 0.66562 0.0
O157 O 0.47303 0.69703 0.65956 0.0
C158 C 0.48121 0.72761 0.58692 0.0
C159 C 0.4621 0.65262 0.60966 0.0
C160 C 0.52655 0.68235 0.65807 0.0
C161 C 0.42735 0.67092 0.69054 0.0
C162 C 0.44736 0.74572 0.6696 0.0
C163 C 0.4929 0.7022 0.74094 0.0
O164 O 0.46357 0.71696 0.58982 0.0
O165 O 0.47217 0.64924 0.63765 0.0
O166 O 0.52253 0.70265 0.65592 0.0
O167 O 0.42497 0.68384 0.66536 0.0
O168 O 0.4677 0.74499 0.67612 0.0
O169 O 0.48608 0.68356 0.73159 0.0
O170 O 0.43737 0.73083 0.65323 0.0
O171 O 0.44588 0.66433 0.70067 0.0
O172 O 0.49679 0.71753 0.71994 0.0
O173 O 0.45233 0.67041 0.60313 0.0
O174 O 0.49401 0.7309 0.61198 0.0
O175 O 0.51251 0.66846 0.66793 0.0
Sc176 Sc 0.72077 0.49594 0.66805 0.0
Sc177 Sc 0.66681 0.48061 0.68909 0.0
Sc178 Sc 0.69805 0.44811 0.63361 0.0
O179 O 0.6952 0.47493 0.66365 0.0
C180 C 0.72489 0.48322 0.58988 0.0
C181 C 0.68043 0.52873 0.6661 0.0
C182 C 0.6507 0.46526 0.61496 0.0
C183 C 0.70265 0.49365 0.74472 0.0
C184 C 0.74388 0.44885 0.67086 0.0
C185 C 0.66872 0.42912 0.69457 0.0
O186 O 0.72685 0.49716 0.61372 0.0
O187 O 0.66667 0.51441 0.67532 0.0
O188 O 0.6686 0.45617 0.60687 0.0
O189 O 0.71765 0.49708 0.72291 0.0
O190 O 0.72792 0.43844 0.65798 0.0
O191 O 0.66339 0.44759 0.70653 0.0
O192 O 0.74385 0.4695 0.67464 0.0
O193 O 0.68349 0.48776 0.73636 0.0
O194 O 0.68052 0.42698 0.66808 0.0
O195 O 0.70059 0.52463 0.66202 0.0
O196 O 0.71576 0.46488 0.59429 0.0
O197 O 0.64711 0.4738 0.64417 0.0
Sc198 Sc 0.00537 0.72297 0.16516 0.0
Sc199 Sc 0.01959 0.66821 0.18242 0.0
Sc200 Sc 0.05321 0.70028 0.12979 0.0
O201 O 0.02606 0.69718 0.15918 0.0
C202 C 0.0186 0.72793 0.08658 0.0
C203 C 0.97241 0.68312 0.15669 0.0
C204 C 0.037 0.65273 0.10919 0.0
C205 C 0.00571 0.70236 0.24029 0.0
C206 C 0.05238 0.74557 0.16968 0.0
C207 C 0.0711 0.67042 0.1909 0.0
O208 O 0.00557 0.73119 0.11137 0.0
O209 O 0.98631 0.66894 0.16587 0.0
O210 O 0.04679 0.67052 0.10278 0.0
O211 O 0.0028 0.71805 0.21955 0.0
O212 O 0.06231 0.73047 0.15376 0.0
O213 O 0.0524 0.66418 0.20091 0.0
O214 O 0.03196 0.74517 0.17557 0.0
O215 O 0.01166 0.68349 0.23062 0.0
O216 O 0.07379 0.68323 0.16566 0.0
O217 O 0.97655 0.70343 0.1556 0.0
O218 O 0.03621 0.71727 0.08984 0.0
O219 O 0.02682 0.64935 0.13705 0.0
Sc220 Sc 0.80104 0.05184 0.63819 0.0
Sc221 Sc 0.83352 0.01665 0.68754 0.0
Sc222 Sc 0.77874 0.0027 0.66932 0.0
O223 O 0.80442 0.02372 0.66506 0.0
C224 C 0.75577 0.04935 0.67772 0.0
C225 C 0.83154 0.06798 0.69957 0.0
C226 C 0.79943 0.00136 0.74445 0.0
C227 C 0.84842 0.03592 0.61538 0.0
C228 C 0.77349 0.0187 0.59219 0.0
C229 C 0.81847 0.96992 0.65943 0.0
O230 O 0.77087 0.05988 0.66283 0.0
O231 O 0.83841 0.04905 0.70711 0.0
O232 O 0.78398 0.99822 0.72331 0.0
O233 O 0.83078 0.04635 0.61058 0.0
O234 O 0.77054 0.00464 0.61563 0.0
O235 O 0.83253 0.9835 0.67015 0.0
O236 O 0.78398 0.03627 0.59701 0.0
O237 O 0.85204 0.02456 0.64205 0.0
O238 O 0.79826 0.97434 0.65739 0.0
O239 O 0.81783 0.07137 0.67577 0.0
O240 O 0.75627 0.02877 0.68198 0.0
O241 O 0.81811 0.00837 0.73554 0.0
Sc242 Sc 0.44679 0.79864 0.13762 0.0
Sc243 Sc 0.48294 0.8312 0.18494 0.0
Sc244 Sc 0.49614 0.77616 0.16732 0.0
O245 O 0.47531 0.80199 0.16335 0.0
C246 C 0.44922 0.75366 0.17737 0.0
C247 C 0.43192 0.82988 0.19906 0.0
C248 C 0.49833 0.79708 0.24207 0.0
C249 C 0.46263 0.84552 0.11302 0.0
C250 C 0.47944 0.77065 0.09092 0.0
C251 C 0.52914 0.81579 0.15615 0.0
O252 O 0.43852 0.76936 0.16447 0.0
O253 O 0.45107 0.83605 0.20675 0.0
O254 O 0.49999 0.78107 0.22151 0.0
O255 O 0.45248 0.82769 0.10841 0.0
O256 O 0.49431 0.76864 0.11339 0.0
O257 O 0.51546 0.83019 0.16523 0.0
O258 O 0.46152 0.78032 0.0968 0.0
O259 O 0.4739 0.84939 0.13971 0.0
O260 O 0.52491 0.79549 0.1564 0.0
O261 O 0.42809 0.81665 0.17475 0.0
O262 O 0.46997 0.75351 0.17894 0.0
O263 O 0.49272 0.8161 0.23248 0.0
Sc264 Sc 0.22177 0.50352 0.82822 0.0
Sc265 Sc 0.16704 0.51725 0.80996 0.0
Sc266 Sc 0.19902 0.552 0.86101 0.0
O267 O 0.19595 0.52424 0.83308 0.0
C268 C 0.22644 0.51829 0.90616 0.0
C269 C 0.18265 0.46985 0.83413 0.0
C270 C 0.15171 0.53479 0.88278 0.0
C271 C 0.20133 0.50391 0.75261 0.0
C272 C 0.24447 0.55041 0.82172 0.0
C273 C 0.1685 0.56898 0.80067 0.0
O274 O 0.22988 0.50478 0.88206 0.0
O275 O 0.16866 0.48342 0.82324 0.0
O276 O 0.16888 0.54606 0.88738 0.0
O277 O 0.21658 0.5 0.77384 0.0
O278 O 0.22944 0.56059 0.8374 0.0
O279 O 0.16137 0.55015 0.79317 0.0
O280 O 0.24395 0.52993 0.81645 0.0
O281 O 0.18267 0.51089 0.76166 0.0
O282 O 0.18268 0.57212 0.82384 0.0
O283 O 0.20253 0.47475 0.83907 0.0
O284 O 0.21565 0.53574 0.90199 0.0
O285 O 0.14864 0.52307 0.8563 0.0
Sc286 Sc 0.94903 0.19938 0.36523 0.0
Sc287 Sc 0.98005 0.16897 0.30643 0.0
Sc288 Sc 0.99579 0.22272 0.32779 0.0
O289 O 0.97496 0.19703 0.33313 0.0
C290 C 0.94875 0.24556 0.32796 0.0
C291 C 0.92829 0.17104 0.30452 0.0
C292 C 0.9922 0.20486 0.25089 0.0
C293 C 0.96669 0.1516 0.38063 0.0
C294 C 0.98488 0.22612 0.4073 0.0
C295 C 0.02864 0.18269 0.32791 0.0
O296 O 0.93914 0.23014 0.34373 0.0
O297 O 0.94648 0.16523 0.29203 0.0
O298 O 0.99722 0.21924 0.27297 0.0
O299 O 0.95717 0.16911 0.38951 0.0
O300 O 0.99721 0.22983 0.38186 0.0
O301 O 0.01437 0.16927 0.31725 0.0
O302 O 0.96721 0.21553 0.40466 0.0
O303 O 0.97517 0.14868 0.35122 0.0
O304 O 0.02442 0.20258 0.33431 0.0
O305 O 0.92676 0.18311 0.33085 0.0
O306 O 0.96899 0.24521 0.32062 0.0
O307 O 0.98507 0.18611 0.25897 0.0
Sc308 Sc 0.29726 0.9457 0.86182 0.0
Sc309 Sc 0.32984 0.97999 0.81124 0.0
Sc310 Sc 0.27549 0.99496 0.83024 0.0
O311 O 0.30084 0.97355 0.83435 0.0
C312 C 0.25194 0.94843 0.82251 0.0
C313 C 0.32701 0.92877 0.79996 0.0
C314 C 0.29562 0.99593 0.75497 0.0
C315 C 0.34491 0.96084 0.88361 0.0
C316 C 0.27052 0.97973 0.90756 0.0
C317 C 0.31598 0.02696 0.83939 0.0
O318 O 0.26725 0.93772 0.83659 0.0
O319 O 0.33341 0.94758 0.79084 0.0
O320 O 0.28014 0.99881 0.7761 0.0
O321 O 0.32695 0.95121 0.8895 0.0
O322 O 0.26805 0.99381 0.88407 0.0
O323 O 0.32985 0.01297 0.82936 0.0
O324 O 0.28017 0.96169 0.90271 0.0
O325 O 0.34855 0.97146 0.8562 0.0
O326 O 0.29563 0.02313 0.84074 0.0
O327 O 0.31422 0.92575 0.8251 0.0
O328 O 0.25241 0.96909 0.81913 0.0
O329 O 0.31436 0.98907 0.76376 0.0
Sc330 Sc 0.50305 0.27842 0.32504 0.0
Sc331 Sc 0.5176 0.3327 0.30492 0.0
Sc332 Sc 0.5519 0.30084 0.35683 0.0
O333 O 0.52417 0.30398 0.32892 0.0
C334 C 0.51824 0.27392 0.40265 0.0
C335 C 0.47009 0.31807 0.33062 0.0
C336 C 0.53521 0.34843 0.37762 0.0
C337 C 0.503 0.29804 0.24902 0.0
C338 C 0.54967 0.25515 0.31824 0.0
C339 C 0.56925 0.33073 0.29578 0.0
O340 O 0.50457 0.27055 0.37882 0.0
O341 O 0.48375 0.33169 0.31876 0.0
O342 O 0.54598 0.33104 0.38298 0.0
O343 O 0.49875 0.28327 0.27087 0.0
O344 O 0.56008 0.27024 0.33344 0.0
O345 O 0.55049 0.33774 0.28764 0.0
O346 O 0.52916 0.25581 0.31317 0.0
O347 O 0.5109 0.31651 0.25709 0.0
O348 O 0.57217 0.31694 0.31958 0.0
O349 O 0.47479 0.29821 0.33622 0.0
O350 O 0.53577 0.2845 0.39814 0.0
O351 O 0.524 0.35166 0.35062 0.0
H352 H 0.38938 0.52191 0.3787 0.0
H353 H 0.41916 0.5299 0.41866 0.0
H354 H 0.37388 0.56288 0.48541 0.0
H355 H 0.34424 0.55465 0.44647 0.0
H356 H 0.43331 0.56952 0.43396 0.0
H357 H 0.40926 0.53052 0.55461 0.0
H358 H 0.39719 0.52291 0.51413 0.0
H359 H 0.38638 0.54545 0.53852 0.0
C360 C 0.3857 0.53041 0.40231 0.0
C361 C 0.36442 0.53777 0.40923 0.0
C362 C 0.40274 0.53494 0.4251 0.0
C363 C 0.39872 0.54667 0.45533 0.0
C364 C 0.37734 0.55326 0.4628 0.0
H365 H 0.44465 0.65471 0.54555 0.0
H366 H 0.43668 0.62472 0.50715 0.0
C367 C 0.36039 0.54876 0.44018 0.0
C368 C 0.41682 0.55485 0.47695 0.0
H369 H 0.42801 0.56611 0.56054 0.0
C370 C 0.43262 0.56822 0.46163 0.0
C371 C 0.41652 0.55268 0.513 0.0
C372 C 0.40154 0.53687 0.53089 0.0
C373 C 0.44627 0.58148 0.48155 0.0
C374 C 0.44359 0.58173 0.51752 0.0
C375 C 0.42973 0.56638 0.5329 0.0
C376 C 0.45178 0.59999 0.53882 0.0
C377 C 0.4626 0.5959 0.4637 0.0
C378 C 0.46281 0.59616 0.56976 0.0
C379 C 0.46716 0.61341 0.59226 0.0
C380 C 0.46032 0.63472 0.5843 0.0
C381 C 0.45011 0.63854 0.55264 0.0
C382 C 0.44578 0.62138 0.53033 0.0
H383 H 0.4692 0.58769 0.44055 0.0
H384 H 0.45439 0.61105 0.45509 0.0
H385 H 0.47636 0.60032 0.48081 0.0
H386 H 0.4674 0.57975 0.57699 0.0
H387 H 0.47506 0.60988 0.61642 0.0
H388 H 0.84685 0.44345 0.05465 0.0
H389 H 0.87623 0.43495 0.01542 0.0
H390 H 0.92218 0.46721 0.08195 0.0
H391 H 0.89263 0.47541 0.12238 0.0
H392 H 0.90658 0.45909 0.97971 0.0
H393 H 0.94628 0.40536 0.0766 0.0
H394 H 0.91935 0.41628 0.08328 0.0
H395 H 0.94275 0.43371 0.08684 0.0
C396 C 0.86313 0.44894 0.06106 0.0
C397 C 0.86741 0.45976 0.09207 0.0
C398 C 0.87994 0.44418 0.03837 0.0
C399 C 0.90145 0.45016 0.04597 0.0
C400 C 0.90573 0.46211 0.0759 0.0
H401 H 0.97839 0.39005 0.879 0.0
H402 H 0.97106 0.41896 0.92088 0.0
C403 C 0.88881 0.46686 0.09887 0.0
C404 C 0.91906 0.44189 0.0235 0.0
H405 H 0.95592 0.40036 0.01946 0.0
C406 C 0.91789 0.44667 0.98839 0.0
C407 C 0.93383 0.42578 0.03505 0.0
C408 C 0.9357 0.41981 0.07243 0.0
C409 C 0.92929 0.43419 0.96419 0.0
C410 C 0.9426 0.41684 0.97561 0.0
C411 C 0.94561 0.41364 0.01089 0.0
C412 C 0.94959 0.39925 0.95206 0.0
C413 C 0.92534 0.43833 0.92659 0.0
C414 C 0.94061 0.37842 0.95644 0.0
C415 C 0.94485 0.36192 0.93291 0.0
C416 C 0.95815 0.36585 0.90426 0.0
C417 C 0.9679 0.38652 0.90059 0.0
C418 C 0.96368 0.40309 0.92441 0.0
H419 H 0.91266 0.45095 0.9222 0.0
H420 H 0.94068 0.44393 0.91442 0.0
H421 H 0.92018 0.42307 0.91362 0.0
H422 H 0.92966 0.37509 0.97757 0.0
H423 H 0.93717 0.34622 0.93684 0.0
H424 H 0.02215 0.88869 0.61485 0.0
H425 H 0.03065 0.91819 0.57472 0.0
H426 H 0.06288 0.87218 0.5083 0.0
H427 H 0.05414 0.84279 0.54743 0.0
H428 H 0.07066 0.93144 0.55964 0.0
H429 H 0.03121 0.90809 0.43888 0.0
H430 H 0.02334 0.89622 0.47938 0.0
H431 H 0.04572 0.88499 0.45511 0.0
C432 C 0.03058 0.88479 0.59127 0.0
C433 C 0.0376 0.86337 0.58451 0.0
C434 C 0.03541 0.90168 0.56838 0.0
C435 C 0.04709 0.89737 0.53822 0.0
C436 C 0.05331 0.87586 0.53087 0.0
H437 H 0.15572 0.94253 0.44719 0.0
H438 H 0.12583 0.93417 0.4856 0.0
C439 C 0.04851 0.85905 0.55359 0.0
C440 C 0.05564 0.91528 0.51661 0.0
H441 H 0.06695 0.92644 0.43304 0.0
C442 C 0.06931 0.93082 0.53196 0.0
C443 C 0.05345 0.91503 0.48056 0.0
C444 C 0.0374 0.90031 0.46266 0.0
C445 C 0.08275 0.94428 0.51208 0.0
C446 C 0.08286 0.9417 0.47609 0.0
C447 C 0.0673 0.92808 0.46069 0.0
C448 C 0.10107 0.94987 0.45472 0.0
C449 C 0.09749 0.96033 0.52996 0.0
C450 C 0.09716 0.96132 0.42421 0.0
C451 C 0.11433 0.96592 0.40173 0.0
C452 C 0.13566 0.95891 0.40926 0.0
C453 C 0.13955 0.94816 0.44045 0.0
C454 C 0.12245 0.94359 0.46276 0.0
H455 H 0.08955 0.96685 0.55339 0.0
H456 H 0.11263 0.9519 0.53807 0.0
H457 H 0.10191 0.97417 0.51301 0.0
H458 H 0.08074 0.96613 0.41734 0.0
H459 H 0.11074 0.97424 0.37794 0.0
H460 H 0.54147 0.15416 0.94769 0.0
H461 H 0.55444 0.12537 0.98567 0.0
H462 H 0.54871 0.0786 0.90381 0.0
H463 H 0.53543 0.10734 0.86548 0.0
H464 H 0.53884 0.06486 0.98267 0.0
H465 H 0.61818 0.10339 0.94959 0.0
H466 H 0.59679 0.12174 0.96223 0.0
H467 H 0.59419 0.10642 0.92327 0.0
C468 C 0.54235 0.13764 0.938 0.0
C469 C 0.53782 0.13306 0.90346 0.0
C470 C 0.54963 0.1212 0.95979 0.0
C471 C 0.55264 0.1 0.94736 0.0
C472 C 0.54634 0.0949 0.9138 0.0
H473 H 0.65726 0.02927 0.04435 0.0
H474 H 0.63031 0.03856 0.00066 0.0
C475 C 0.53882 0.11135 0.89196 0.0
C476 C 0.56608 0.08468 0.96732 0.0
H477 H 0.61819 0.07825 0.99518 0.0
C478 C 0.55625 0.06747 0.98518 0.0
C479 C 0.58879 0.08799 0.96987 0.0
C480 C 0.60023 0.10577 0.95005 0.0
C481 C 0.5686 0.05396 0.0069 0.0
C482 C 0.59115 0.0582 0.01115 0.0
C483 C 0.60095 0.0749 0.992 0.0
C484 C 0.60491 0.04692 0.03688 0.0
C485 C 0.55737 0.03542 0.02506 0.0
C486 C 0.59928 0.04748 0.07176 0.0
C487 C 0.61454 0.04166 0.09673 0.0
C488 C 0.6358 0.0358 0.08716 0.0
C489 C 0.64098 0.0339 0.0523 0.0
C490 C 0.62559 0.03917 0.02738 0.0
H491 H 0.54321 0.02941 0.01005 0.0
H492 H 0.56869 0.02161 0.02971 0.0
H493 H 0.55113 0.04128 0.05009 0.0
H494 H 0.58368 0.05392 0.07987 0.0
H495 H 0.61025 0.04341 0.1235 0.0
H496 H 0.533 0.39251 0.36666 0.0
H497 H 0.54569 0.42108 0.40598 0.0
H498 H 0.55575 0.37284 0.4846 0.0
H499 H 0.54343 0.34429 0.44562 0.0
H500 H 0.53653 0.43257 0.4855 0.0
H501 H 0.61741 0.39919 0.44837 0.0
H502 H 0.59327 0.3952 0.42271 0.0
H503 H 0.59734 0.37935 0.46081 0.0
C504 C 0.53724 0.38812 0.39268 0.0
C505 C 0.5376 0.36615 0.40294 0.0
C506 C 0.54443 0.40445 0.41508 0.0
C507 C 0.55175 0.39895 0.44798 0.0
C508 C 0.55016 0.37733 0.45924 0.0
H509 H 0.60825 0.45449 0.62616 0.0
H510 H 0.58171 0.44371 0.58256 0.0
C511 C 0.54325 0.36104 0.43688 0.0
C512 C 0.56461 0.41457 0.46841 0.0
H513 H 0.61656 0.42304 0.49573 0.0
C514 C 0.55407 0.43082 0.4875 0.0
C515 C 0.58747 0.4124 0.47037 0.0
C516 C 0.59965 0.39572 0.4493 0.0
C517 C 0.56591 0.44443 0.50982 0.0
C518 C 0.58867 0.44128 0.51341 0.0
C519 C 0.59914 0.42557 0.49307 0.0
C520 C 0.60209 0.45271 0.53949 0.0
C521 C 0.5539 0.46191 0.5293 0.0
C522 C 0.62226 0.46172 0.52998 0.0
C523 C 0.63765 0.46717 0.55483 0.0
C524 C 0.63295 0.46421 0.58967 0.0
C525 C 0.61211 0.45711 0.59941 0.0
C526 C 0.59687 0.45111 0.57446 0.0
H527 H 0.53929 0.46749 0.51497 0.0
H528 H 0.54825 0.45516 0.55411 0.0
H529 H 0.56452 0.47619 0.5345 0.0
H530 H 0.62667 0.46315 0.50321 0.0
H531 H 0.65362 0.4727 0.54678 0.0
H532 H 0.10983 0.51851 0.87991 0.0
H533 H 0.07978 0.52669 0.91931 0.0
H534 H 0.12358 0.56438 0.98226 0.0
H535 H 0.15354 0.55587 0.94409 0.0
H536 H 0.09436 0.54088 0.02047 0.0
H537 H 0.0523 0.58696 0.91658 0.0
H538 H 0.05728 0.55839 0.91014 0.0
H539 H 0.07977 0.57709 0.91147 0.0
C540 C 0.11311 0.52822 0.90249 0.0
C541 C 0.13405 0.53686 0.90847 0.0
C542 C 0.09589 0.53296 0.92485 0.0
C543 C 0.09936 0.54649 0.95333 0.0
C544 C 0.12049 0.55394 0.96039 0.0
H545 H 0.05815 0.65373 0.04783 0.0
H546 H 0.06613 0.62334 0.01017 0.0
C547 C 0.13763 0.54916 0.93833 0.0
C548 C 0.08118 0.55492 0.97449 0.0
H549 H 0.04197 0.59432 0.97275 0.0
C550 C 0.08242 0.55212 0.01011 0.0
C551 C 0.06557 0.56948 0.96074 0.0
C552 C 0.06357 0.57334 0.92269 0.0
C553 C 0.07024 0.56522 0.03249 0.0
C554 C 0.05601 0.58111 0.01871 0.0
C555 C 0.05298 0.58217 0.98313 0.0
C556 C 0.04807 0.59958 0.03974 0.0
C557 C 0.07435 0.5634 0.0705 0.0
C558 C 0.03465 0.59651 0.06845 0.0
C559 C 0.03022 0.61397 0.09051 0.0
C560 C 0.03902 0.63477 0.08398 0.0
C561 C 0.05127 0.63795 0.05397 0.0
C562 C 0.05577 0.62056 0.03221 0.0
H563 H 0.08782 0.55193 0.07654 0.0
H564 H 0.07846 0.5796 0.08142 0.0
H565 H 0.05938 0.55743 0.08339 0.0
H566 H 0.02817 0.58053 0.07434 0.0
H567 H 0.02052 0.611 0.1132 0.0
H568 H 0.97603 0.15311 0.44833 0.0
H569 H 0.96639 0.12582 0.4913 0.0
H570 H 0.94379 0.08288 0.41121 0.0
H571 H 0.95469 0.10969 0.36817 0.0
H572 H 0.92612 0.11744 0.5001 0.0
H573 H 0.96634 0.03843 0.47631 0.0
H574 H 0.97596 0.06347 0.45726 0.0
H575 H 0.9539 0.04845 0.43791 0.0
C576 C 0.96985 0.13745 0.43995 0.0
C577 C 0.96602 0.13342 0.40511 0.0
C578 C 0.96433 0.12187 0.46445 0.0
C579 C 0.95434 0.10222 0.45461 0.0
C580 C 0.95194 0.0976 0.41954 0.0
H581 H 0.84401 0.04735 0.54846 0.0
H582 H 0.8727 0.05973 0.50985 0.0
C583 C 0.95803 0.113 0.39491 0.0
C584 C 0.94266 0.08897 0.48062 0.0
H585 H 0.93145 0.03687 0.50632 0.0
C586 C 0.92776 0.09987 0.50189 0.0
C587 C 0.94464 0.06602 0.4831 0.0
C588 C 0.96126 0.05348 0.46263 0.0
C589 C 0.9142 0.08849 0.52437 0.0
C590 C 0.91513 0.06551 0.52514 0.0
C591 C 0.93063 0.05451 0.5052 0.0
C592 C 0.89898 0.05309 0.54522 0.0
C593 C 0.89843 0.10112 0.54648 0.0
C594 C 0.90447 0.04434 0.57723 0.0
C595 C 0.88805 0.03715 0.59945 0.0
C596 C 0.866 0.03888 0.58991 0.0
C597 C 0.86081 0.04609 0.55673 0.0
C598 C 0.87718 0.05305 0.53455 0.0
H599 H 0.903 0.1186 0.54841 0.0
H600 H 0.88188 0.10011 0.53512 0.0
H601 H 0.89768 0.09413 0.57268 0.0
H602 H 0.92125 0.04437 0.58586 0.0
H603 H 0.89254 0.03166 0.62485 0.0
H604 H 0.38705 0.97626 0.88012 0.0
H605 H 0.41712 0.96785 0.91933 0.0
H606 H 0.37312 0.93078 0.98278 0.0
H607 H 0.34312 0.93947 0.94472 0.0
H608 H 0.40252 0.95477 0.02053 0.0
H609 H 0.44414 0.90722 0.91783 0.0
H610 H 0.43924 0.93571 0.91041 0.0
H611 H 0.41668 0.91712 0.91269 0.0
C612 C 0.38374 0.96658 0.90271 0.0
C613 C 0.36271 0.95824 0.90893 0.0
C614 C 0.40096 0.96173 0.92498 0.0
C615 C 0.39742 0.94837 0.9536 0.0
C616 C 0.37624 0.94109 0.9608 0.0
H617 H 0.44032 0.84298 0.0528 0.0
H618 H 0.43136 0.87245 0.0139 0.0
C619 C 0.35909 0.946 0.93882 0.0
C620 C 0.41557 0.9401 0.97493 0.0
H621 H 0.45506 0.90098 0.97411 0.0
C622 C 0.41447 0.94344 0.01044 0.0
C623 C 0.43117 0.92542 0.96149 0.0
C624 C 0.43295 0.92097 0.92357 0.0
C625 C 0.42694 0.93085 0.03313 0.0
C626 C 0.44125 0.9149 0.01974 0.0
C627 C 0.44401 0.91321 0.98417 0.0
C628 C 0.44968 0.897 0.04144 0.0
C629 C 0.42311 0.93327 0.07113 0.0
C630 C 0.46353 0.90085 0.06939 0.0
C631 C 0.46854 0.88393 0.09215 0.0
C632 C 0.45987 0.86292 0.08707 0.0
C633 C 0.44712 0.85895 0.05782 0.0
C634 C 0.44206 0.8758 0.03535 0.0
H635 H 0.40957 0.94471 0.07696 0.0
H636 H 0.41926 0.91722 0.08277 0.0
H637 H 0.43812 0.9396 0.08348 0.0
H638 H 0.46991 0.91702 0.07417 0.0
H639 H 0.47861 0.8875 0.11423 0.0
H640 H 0.29428 0.43146 0.3411 0.0
H641 H 0.30961 0.39516 0.35286 0.0
H642 H 0.37259 0.42428 0.37067 0.0
H643 H 0.3576 0.46014 0.35912 0.0
H644 H 0.34259 0.37704 0.31379 0.0
H645 H 0.36927 0.38023 0.44818 0.0
H646 H 0.34863 0.39832 0.43129 0.0
H647 H 0.37716 0.4048 0.42671 0.0
C648 C 0.31128 0.43008 0.34823 0.0
C649 C 0.32479 0.44861 0.34888 0.0
C650 C 0.31998 0.40938 0.355 0.0
C651 C 0.34214 0.40707 0.36329 0.0
C652 C 0.35533 0.42569 0.36524 0.0
H653 H 0.45056 0.35314 0.30174 0.0
H654 H 0.41429 0.36736 0.31262 0.0
C655 C 0.34679 0.44619 0.35813 0.0
C656 C 0.35271 0.38541 0.365 0.0
H657 H 0.39365 0.36013 0.40863 0.0
C658 C 0.35313 0.37277 0.33506 0.0
C659 C 0.36614 0.37949 0.39294 0.0
C660 C 0.36507 0.39134 0.42671 0.0
C661 C 0.36874 0.35632 0.33069 0.0
C662 C 0.38429 0.35267 0.35676 0.0
C663 C 0.38194 0.36322 0.3884 0.0
C664 C 0.40543 0.34226 0.34895 0.0
C665 C 0.36969 0.34427 0.29709 0.0
C666 C 0.41262 0.32353 0.3662 0.0
C667 C 0.43354 0.31521 0.35989 0.0
C668 C 0.44764 0.32588 0.33691 0.0
C669 C 0.44022 0.34459 0.31977 0.0
C670 C 0.41937 0.35263 0.32568 0.0
H671 H 0.35327 0.34312 0.28522 0.0
H672 H 0.38043 0.35328 0.27914 0.0
H673 H 0.37637 0.32758 0.3005 0.0
H674 H 0.40215 0.31551 0.38463 0.0
H675 H 0.43886 0.30079 0.37354 0.0
H676 H 0.06651 0.29647 0.84221 0.0
H677 H 0.10282 0.31113 0.85558 0.0
H678 H 0.07476 0.37491 0.87014 0.0
H679 H 0.03883 0.36057 0.85713 0.0
H680 H 0.1229 0.34268 0.81726 0.0
H681 H 0.11676 0.37189 0.95001 0.0
H682 H 0.09834 0.35168 0.93268 0.0
H683 H 0.09313 0.38035 0.92658 0.0
C684 C 0.06808 0.31352 0.84896 0.0
C685 C 0.04982 0.3274 0.84833 0.0
C686 C 0.0888 0.32184 0.85666 0.0
C687 C 0.09144 0.34402 0.86453 0.0
C688 C 0.07308 0.35763 0.8651 0.0
H689 H 0.14942 0.44952 0.80189 0.0
H690 H 0.13481 0.4134 0.81274 0.0
C691 C 0.05254 0.34944 0.85715 0.0
C692 C 0.11332 0.35408 0.86727 0.0
H693 H 0.13864 0.39504 0.91086 0.0
C694 C 0.12686 0.3535 0.83833 0.0
C695 C 0.11888 0.36784 0.89501 0.0
C696 C 0.10609 0.36776 0.92796 0.0
C697 C 0.14395 0.36848 0.83451 0.0
C698 C 0.14732 0.38444 0.86006 0.0
C699 C 0.13578 0.38303 0.89098 0.0
C700 C 0.15837 0.40522 0.85192 0.0
C701 C 0.15705 0.36833 0.80186 0.0
C702 C 0.17642 0.41273 0.87065 0.0
C703 C 0.18498 0.43357 0.86432 0.0
C704 C 0.17515 0.44725 0.83988 0.0
C705 C 0.15726 0.43946 0.82107 0.0
C706 C 0.14903 0.4187 0.82698 0.0
H707 H 0.15827 0.35158 0.79122 0.0
H708 H 0.14878 0.37867 0.78251 0.0
H709 H 0.17373 0.37485 0.8061 0.0
H710 H 0.18364 0.40263 0.89036 0.0
H711 H 0.19874 0.43923 0.87925 0.0
H712 H 0.20383 0.06653 0.33893 0.0
H713 H 0.18794 0.10285 0.34816 0.0
H714 H 0.12545 0.07329 0.3683 0.0
H715 H 0.14102 0.03735 0.35926 0.0
H716 H 0.15455 0.1193 0.30796 0.0
H717 H 0.12862 0.11949 0.44293 0.0
H718 H 0.14927 0.10111 0.4269 0.0
H719 H 0.12077 0.09443 0.42281 0.0
C720 C 0.18682 0.06782 0.34606 0.0
C721 C 0.17363 0.0491 0.3481 0.0
C722 C 0.1778 0.08854 0.35135 0.0
C723 C 0.15561 0.09074 0.35951 0.0
C724 C 0.14272 0.07199 0.36288 0.0
H725 H 0.04686 0.14759 0.29694 0.0
H726 H 0.08282 0.13213 0.30642 0.0
C727 C 0.15161 0.05143 0.35726 0.0
C728 C 0.14478 0.1123 0.35983 0.0
H729 H 0.10464 0.13925 0.40284 0.0
C730 C 0.14422 0.12418 0.32915 0.0
C731 C 0.13162 0.119 0.38763 0.0
C732 C 0.1328 0.10794 0.42204 0.0
C733 C 0.12887 0.14081 0.32419 0.0
C734 C 0.11368 0.14542 0.35042 0.0
C735 C 0.11607 0.13545 0.38252 0.0
C736 C 0.09294 0.1567 0.34288 0.0
C737 C 0.12796 0.1522 0.29003 0.0
C738 C 0.08659 0.17558 0.36057 0.0
C739 C 0.06587 0.18459 0.35509 0.0
C740 C 0.05112 0.17448 0.33248 0.0
C741 C 0.05775 0.15572 0.31467 0.0
C742 C 0.07841 0.14697 0.31978 0.0
H743 H 0.14432 0.15278 0.27788 0.0
H744 H 0.11695 0.14304 0.27266 0.0
H745 H 0.12164 0.16908 0.29268 0.0
H746 H 0.09751 0.18312 0.37885 0.0
H747 H 0.06116 0.19901 0.36927 0.0
H748 H 0.35629 0.03647 0.86341 0.0
H749 H 0.3719 0.07221 0.8742 0.0
H750 H 0.31061 0.10254 0.84866 0.0
H751 H 0.29464 0.06638 0.83778 0.0
H752 H 0.34674 0.11845 0.81167 0.0
H753 H 0.36545 0.11801 0.9496 0.0
H754 H 0.37337 0.09269 0.93032 0.0
H755 H 0.34502 0.1004 0.93088 0.0
C756 C 0.34597 0.05068 0.86058 0.0
C757 C 0.32428 0.04863 0.84952 0.0
C758 C 0.35485 0.07111 0.86716 0.0
C759 C 0.34231 0.09001 0.86282 0.0
C760 C 0.32044 0.08811 0.85262 0.0
H761 H 0.43205 0.20256 0.83945 0.0
H762 H 0.39585 0.18703 0.85159 0.0
C763 C 0.31138 0.06749 0.84641 0.0
C764 C 0.35337 0.11141 0.86466 0.0
H765 H 0.39201 0.13702 0.91276 0.0
C766 C 0.35597 0.1232 0.83415 0.0
C767 C 0.36523 0.11769 0.89409 0.0
C768 C 0.36192 0.10663 0.92816 0.0
C769 C 0.37218 0.13924 0.83116 0.0
C770 C 0.3859 0.1435 0.85944 0.0
C771 C 0.38155 0.13355 0.89103 0.0
C772 C 0.40742 0.15379 0.85453 0.0
C773 C 0.37614 0.14984 0.79689 0.0
C774 C 0.42572 0.14022 0.85258 0.0
C775 C 0.44617 0.14889 0.84548 0.0
C776 C 0.44883 0.17141 0.84035 0.0
C777 C 0.43052 0.18514 0.84324 0.0
C778 C 0.40987 0.17634 0.85014 0.0
H779 H 0.36345 0.14543 0.7778 0.0
H780 H 0.3764 0.16783 0.79984 0.0
H781 H 0.39229 0.14476 0.78686 0.0
H782 H 0.42408 0.12276 0.85584 0.0
H783 H 0.45989 0.13784 0.8438 0.0
H784 H 0.9626 0.64358 0.13023 0.0
H785 H 0.92676 0.62826 0.11932 0.0
H786 H 0.89668 0.68872 0.15002 0.0
H787 H 0.93299 0.70441 0.16102 0.0
H788 H 0.88113 0.65146 0.18471 0.0
H789 H 0.88026 0.63679 0.04561 0.0
H790 H 0.9058 0.62841 0.06361 0.0
H791 H 0.898 0.65672 0.06534 0.0
C792 C 0.94842 0.6538 0.13421 0.0
C793 C 0.95058 0.67515 0.14672 0.0
C794 C 0.92792 0.64509 0.12754 0.0
C795 C 0.90907 0.65747 0.13326 0.0
C796 C 0.91108 0.67903 0.14498 0.0
H797 H 0.79724 0.56688 0.15526 0.0
H798 H 0.81246 0.60332 0.14401 0.0
C799 C 0.93177 0.68793 0.15126 0.0
C800 C 0.88767 0.64642 0.13113 0.0
H801 H 0.8618 0.60902 0.08096 0.0
C802 C 0.87621 0.64286 0.16172 0.0
C803 C 0.88116 0.63537 0.10105 0.0
C804 C 0.89185 0.63972 0.06698 0.0
C805 C 0.8603 0.62646 0.16394 0.0
C806 C 0.85582 0.61354 0.13482 0.0
C807 C 0.86543 0.61886 0.10333 0.0
C808 C 0.8456 0.59187 0.13843 0.0
C809 C 0.85009 0.62146 0.19818 0.0
C810 C 0.85918 0.57353 0.1384 0.0
C811 C 0.85068 0.55293 0.14501 0.0
C812 C 0.82833 0.55017 0.15157 0.0
C813 C 0.81453 0.5685 0.1503 0.0
C814 C 0.82316 0.58928 0.14395 0.0
H815 H 0.85489 0.63342 0.21817 0.0
H816 H 0.83207 0.62154 0.19579 0.0
H817 H 0.85507 0.60493 0.20668 0.0
H818 H 0.87656 0.57525 0.13423 0.0
H819 H 0.86175 0.53918 0.14541 0.0
H820 H 0.93017 0.79406 0.65816 0.0
H821 H 0.89386 0.80937 0.64611 0.0
H822 H 0.92372 0.87004 0.6159 0.0
H823 H 0.95956 0.85509 0.62781 0.0
H824 H 0.8777 0.8461 0.68045 0.0
H825 H 0.87775 0.86164 0.54168 0.0
H826 H 0.89561 0.84183 0.5614 0.0
H827 H 0.90309 0.87024 0.5601 0.0
C828 C 0.92892 0.81049 0.64823 0.0
C829 C 0.94766 0.82345 0.64417 0.0
C830 C 0.90822 0.81918 0.64135 0.0
C831 C 0.90613 0.8407 0.62951 0.0
C832 C 0.92493 0.85323 0.62418 0.0
H833 H 0.85981 0.95865 0.64226 0.0
H834 H 0.87399 0.92248 0.63008 0.0
C835 C 0.94543 0.84474 0.63143 0.0
C836 C 0.88466 0.85159 0.62712 0.0
H837 H 0.85916 0.88935 0.57724 0.0
C838 C 0.87294 0.85488 0.65754 0.0
C839 C 0.87834 0.86284 0.59714 0.0
C840 C 0.88926 0.85874 0.56317 0.0
C841 C 0.85704 0.87127 0.65983 0.0
C842 C 0.85281 0.88445 0.63091 0.0
C843 C 0.8626 0.87933 0.59947 0.0
C844 C 0.84287 0.90622 0.63488 0.0
C845 C 0.8466 0.87599 0.694 0.0
C846 C 0.82052 0.90908 0.64106 0.0
C847 C 0.81225 0.92993 0.64802 0.0
C848 C 0.82632 0.94806 0.64924 0.0
C849 C 0.84855 0.94505 0.64194 0.0
C850 C 0.85668 0.9244 0.63474 0.0
H851 H 0.85138 0.86396 0.71388 0.0
H852 H 0.8514 0.89252 0.70283 0.0
H853 H 0.8286 0.87577 0.69136 0.0
H854 H 0.80963 0.89518 0.64119 0.0
H855 H 0.79504 0.93175 0.65351 0.0
H856 H 0.53893 0.85438 0.12647 0.0
H857 H 0.57482 0.86985 0.11638 0.0
H858 H 0.60489 0.81063 0.15254 0.0
H859 H 0.56855 0.79483 0.16275 0.0
H860 H 0.61902 0.84825 0.18622 0.0
H861 H 0.62353 0.86121 0.04694 0.0
H862 H 0.59753 0.86985 0.06286 0.0
H863 H 0.60523 0.84156 0.06603 0.0
C864 C 0.55315 0.84443 0.13166 0.0
C865 C 0.55096 0.82345 0.14559 0.0
C866 C 0.57368 0.85321 0.12551 0.0
C867 C 0.59255 0.84127 0.13316 0.0
C868 C 0.59051 0.81998 0.14602 0.0
H869 H 0.70423 0.93197 0.15892 0.0
H870 H 0.68882 0.89552 0.1482 0.0
C871 C 0.5698 0.811 0.15181 0.0
C872 C 0.61385 0.85263 0.13213 0.0
H873 H 0.64094 0.88951 0.08263 0.0
C874 C 0.6245 0.85661 0.16332 0.0
C875 C 0.62108 0.86338 0.1022 0.0
C876 C 0.61135 0.85857 0.06757 0.0
C877 C 0.64032 0.87305 0.16611 0.0
C878 C 0.64558 0.8856 0.13693 0.0
C879 C 0.63673 0.87995 0.10503 0.0
C880 C 0.65594 0.90722 0.14053 0.0
C881 C 0.64966 0.87844 0.20081 0.0
C882 C 0.64257 0.9257 0.13922 0.0
C883 C 0.65117 0.9463 0.14553 0.0
C884 C 0.67342 0.94894 0.15307 0.0
C885 C 0.68702 0.93045 0.15319 0.0
C886 C 0.67829 0.90966 0.14714 0.0
H887 H 0.6443 0.86676 0.22084 0.0
H888 H 0.66773 0.87827 0.19958 0.0
H889 H 0.64455 0.8951 0.20848 0.0
H890 H 0.62527 0.9241 0.1342 0.0
H891 H 0.64025 0.96017 0.14485 0.0
H892 H 0.56561 0.70444 0.65819 0.0
H893 H 0.60205 0.68891 0.64827 0.0
H894 H 0.57292 0.62631 0.62747 0.0
H895 H 0.5369 0.64148 0.63726 0.0
H896 H 0.61895 0.65499 0.68767 0.0
H897 H 0.61859 0.63071 0.55191 0.0
H898 H 0.60036 0.65126 0.56875 0.0
H899 H 0.59356 0.62274 0.57203 0.0
C900 C 0.56703 0.68748 0.65083 0.0
C901 C 0.54842 0.67413 0.64879 0.0
C902 C 0.5878 0.67867 0.64512 0.0
C903 C 0.59015 0.65657 0.6365 0.0
C904 C 0.57149 0.64353 0.63323 0.0
H905 H 0.64435 0.54673 0.69434 0.0
H906 H 0.62958 0.58299 0.68509 0.0
C907 C 0.55089 0.65218 0.6393 0.0
C908 C 0.61178 0.64591 0.63555 0.0
H909 H 0.6383 0.60607 0.59118 0.0
C910 C 0.62375 0.64491 0.66612 0.0
C911 C 0.61833 0.63306 0.60729 0.0
C912 C 0.60713 0.6347 0.57304 0.0
C913 C 0.64023 0.62935 0.67052 0.0
C914 C 0.64463 0.61444 0.64382 0.0
C915 C 0.63467 0.61732 0.61183 0.0
C916 C 0.65533 0.59335 0.65092 0.0
C917 C 0.65158 0.62776 0.70467 0.0
C918 C 0.67465 0.58706 0.63439 0.0
C919 C 0.68329 0.56616 0.63981 0.0
C920 C 0.67237 0.55122 0.66111 0.0
C921 C 0.6531 0.55776 0.67759 0.0
C922 C 0.64473 0.57858 0.67261 0.0
H923 H 0.65209 0.64386 0.71769 0.0
H924 H 0.64244 0.61634 0.72139 0.0
H925 H 0.66847 0.62154 0.70173 0.0
H926 H 0.68287 0.59819 0.61719 0.0
H927 H 0.69813 0.56152 0.62668 0.0
H928 H 0.23114 0.5471 0.95869 0.0
H929 H 0.24537 0.54025 0.0158 0.0
H930 H 0.25598 0.47275 0.98974 0.0
H931 H 0.24221 0.47962 0.9318 0.0
H932 H 0.22909 0.51358 0.06342 0.0
H933 H 0.31398 0.48911 0.03241 0.0
H934 H 0.29616 0.50166 0.00141 0.0
H935 H 0.2933 0.47323 0.0115 0.0
C936 C 0.23658 0.53078 0.96491 0.0
C937 C 0.23551 0.51389 0.94062 0.0
C938 C 0.24475 0.52691 -0.00237 0.0
C939 C 0.25195 0.50606 0.00697 0.0
C940 C 0.25095 0.48909 0.98287 0.0
H941 H 0.26619 0.47688 0.22471 0.0
H942 H 0.25605 0.47479 0.16431 0.0
C943 C 0.24295 0.49301 0.94984 0.0
C944 C 0.2595 0.5022 0.04252 0.0
H945 H 0.30339 0.48688 0.09063 0.0
C946 C 0.24532 0.50767 0.06937 0.0
C947 C 0.28075 0.49469 0.05018 0.0
C948 C 0.29703 0.48951 0.02241 0.0
C949 C 0.25188 0.50624 0.10365 0.0
C950 C 0.273 0.4984 0.11141 0.0
C951 C 0.28714 0.49266 0.0846 0.0
C952 C 0.28099 0.49721 0.14717 0.0
C953 C 0.23636 0.51399 0.13111 0.0
C954 C 0.29918 0.50951 0.15729 0.0
C955 C 0.30527 0.51045 0.19176 0.0
C956 C 0.29315 0.49921 0.2167 0.0
C957 C 0.27564 0.48601 0.20619 0.0
C958 C 0.26976 0.48485 0.1717 0.0
H959 H 0.22343 0.52472 0.12051 0.0
H960 H 0.22828 0.49969 0.14299 0.0
H961 H 0.24515 0.52307 0.15148 0.0
H962 H 0.30815 0.51908 0.13872 0.0
H963 H 0.31887 0.52073 0.19902 0.0
H964 H 0.00848 0.26087 0.7204 0.0
H965 H 0.01212 0.25304 0.65959 0.0
H966 H 0.00164 0.32089 0.63601 0.0
H967 H 0.99749 0.32891 0.69701 0.0
H968 H 0.97543 0.29508 0.59946 0.0
H969 H 0.05941 0.26332 0.58986 0.0
H970 H 0.04439 0.24944 0.62263 0.0
H971 H 0.04985 0.27817 0.62686 0.0
C972 C 0.00726 0.27425 0.70243 0.0
C973 C 0.0026 0.29554 0.71371 0.0
C974 C 0.00957 0.26975 0.66759 0.0
C975 C 0.00755 0.28644 0.64326 0.0
C976 C 0.00344 0.3078 0.65439 0.0
H977 H 0.01836 0.25415 0.42362 0.0
H978 H 0.0256 0.27111 0.47938 0.0
C979 C 0.00104 0.31233 0.68929 0.0
C980 C 0.00733 0.28103 0.60626 0.0
H981 H 0.03453 0.25224 0.5448 0.0
C982 C 0.98855 0.28608 0.58736 0.0
C983 C 0.02456 0.26956 0.59024 0.0
C984 C 0.04578 0.26503 0.60839 0.0
C985 C 0.98596 0.27881 0.55359 0.0
C986 C 0.00241 0.2658 0.53858 0.0
C987 C 0.02179 0.26191 0.55662 0.0
C988 C 0.99898 0.25489 0.50523 0.0
C989 C 0.96542 0.28474 0.5345 0.0
C990 C 0.98206 0.23971 0.5017 0.0
C991 C 0.97788 0.23003 0.4701 0.0
C992 C 0.99064 0.23522 0.4413 0.0
C993 C 0.00816 0.24984 0.44522 0.0
C994 C 0.01232 0.25957 0.477 0.0
H995 H 0.95783 0.29974 0.54511 0.0
H996 H 0.96873 0.28731 0.50685 0.0
H997 H 0.95345 0.27128 0.53704 0.0
H998 H 0.97191 0.23551 0.52341 0.0
H999 H 0.96442 0.21867 0.46823 0.0
H1000 H 0.25549 0.01873 0.93272 0.0
H1001 H 0.24325 0.02652 0.99117 0.0
H1002 H 0.2537 0.95929 0.01879 0.0
H1003 H 0.26631 0.95141 0.96099 0.0
H1004 H 0.20954 0.0094 0.02993 0.0
H1005 H 0.28927 0.99187 0.09014 0.0
H1006 H 0.28613 0.99532 0.04452 0.0
H1007 H 0.27982 0.96959 0.06435 0.0
C1008 C 0.25517 0.0056 0.95124 0.0
C1009 C 0.26213 0.98449 0.94227 0.0
C1010 C 0.24816 0.01009 0.98458 0.0
C1011 C 0.24802 0.99358 0.0094 0.0
C1012 C 0.25424 0.97238 0.00022 0.0
H1013 H 0.18138 0.97879 0.20012 0.0
H1014 H 0.19142 0.98182 0.13982 0.0
C1015 C 0.26137 0.96791 0.96709 0.0
C1016 C 0.24142 0.99828 0.04505 0.0
H1017 H 0.25839 0.99257 0.12761 0.0
C1018 C 0.22027 0.00601 0.05135 0.0
C1019 C 0.25562 0.99429 0.07285 0.0
C1020 C 0.27905 0.98754 0.06765 0.0
C1021 C 0.2126 0.00886 0.08492 0.0
C1022 C 0.22631 0.00335 0.11273 0.0
C1023 C 0.24778 0.99657 0.1063 0.0
C1024 C 0.21868 0.00353 0.14872 0.0
C1025 C 0.18992 0.01776 0.09017 0.0
C1026 C 0.23081 0.0145 0.17386 0.0
C1027 C 0.2254 0.0124 0.20839 0.0
C1028 C 0.20764 0.9994 0.21845 0.0
C1029 C 0.19503 0.98906 0.19316 0.0
C1030 C 0.20065 0.99093 0.15863 0.0
H1031 H 0.18474 0.02796 0.06813 0.0
H1032 H 0.17828 0.00398 0.09228 0.0
H1033 H 0.18886 0.02768 0.11389 0.0
H1034 H 0.24483 0.02425 0.1668 0.0
H1035 H 0.23534 0.02069 0.22725 0.0
H1036 H 0.54734 0.26895 0.45466 0.0
H1037 H 0.54069 0.2547 0.51182 0.0
H1038 H 0.4729 0.24488 0.48679 0.0
H1039 H 0.47956 0.25866 0.42882 0.0
H1040 H 0.51432 0.2712 0.5599 0.0
H1041 H 0.48916 0.18653 0.5285 0.0
H1042 H 0.50172 0.20436 0.49751 0.0
H1043 H 0.47335 0.20739 0.50794 0.0
C1044 C 0.531 0.26369 0.46114 0.0
C1045 C 0.51397 0.26496 0.43715 0.0
C1046 C 0.52724 0.25551 0.49386 0.0
C1047 C 0.50637 0.24851 0.50345 0.0
C1048 C 0.48925 0.24975 0.47967 0.0
H1049 H 0.47823 0.23347 0.72122 0.0
H1050 H 0.47594 0.24399 0.66101 0.0
C1051 C 0.49305 0.25775 0.44665 0.0
C1052 C 0.50266 0.2409 0.53894 0.0
H1053 H 0.48739 0.19693 0.58683 0.0
C1054 C 0.50836 0.25498 0.5658 0.0
C1055 C 0.49507 0.21967 0.54649 0.0
C1056 C 0.48964 0.20351 0.51864 0.0
C1057 C 0.5071 0.24832 0.60002 0.0
C1058 C 0.49921 0.2272 0.60766 0.0
C1059 C 0.49322 0.21318 0.58085 0.0
C1060 C 0.49823 0.21908 0.64331 0.0
C1061 C 0.51509 0.26369 0.62752 0.0
C1062 C 0.51055 0.20083 0.653 0.0
C1063 C 0.51161 0.19454 0.68733 0.0
C1064 C 0.50047 0.20652 0.71254 0.0
C1065 C 0.48729 0.22414 0.70247 0.0
C1066 C 0.48601 0.23022 0.66811 0.0
H1067 H 0.52579 0.27663 0.61687 0.0
H1068 H 0.50091 0.27177 0.63973 0.0
H1069 H 0.52428 0.25479 0.64762 0.0
H1070 H 0.52002 0.19196 0.63418 0.0
H1071 H 0.52186 0.18086 0.69428 0.0
H1072 H 0.81942 0.4798 0.30096 0.0
H1073 H 0.80794 0.48271 0.3608 0.0
H1074 H 0.7564 0.52668 0.33139 0.0
H1075 H 0.7673 0.52334 0.27146 0.0
H1076 H 0.80244 0.51615 0.40721 0.0
H1077 H 0.7232 0.47715 0.37576 0.0
H1078 H 0.74546 0.47828 0.34571 0.0
H1079 H 0.72844 0.50177 0.3524 0.0
C1080 C 0.80579 0.49028 0.30728 0.0
C1081 C 0.79402 0.50104 0.28145 0.0
C1082 C 0.79928 0.49195 0.34148 0.0
C1083 C 0.78103 0.50453 0.35037 0.0
C1084 C 0.77018 0.51644 0.32492 0.0
H1085 H 0.73881 0.52266 0.56437 0.0
H1086 H 0.75276 0.53011 0.50668 0.0
C1087 C 0.77646 0.51454 0.29072 0.0
C1088 C 0.7725 0.50394 0.38581 0.0
H1089 H 0.72816 0.48867 0.43271 0.0
C1090 C 0.78618 0.51024 0.41288 0.0
C1091 C 0.75135 0.49596 0.39303 0.0
C1092 C 0.73631 0.4877 0.36527 0.0
C1093 C 0.77934 0.50853 0.44711 0.0
C1094 C 0.75814 0.50071 0.45423 0.0
C1095 C 0.74436 0.49481 0.4271 0.0
C1096 C 0.7504 0.49663 0.48955 0.0
C1097 C 0.79514 0.51427 0.47532 0.0
C1098 C 0.74411 0.47547 0.49878 0.0
C1099 C 0.73589 0.47124 0.53132 0.0
C1100 C 0.73383 0.48809 0.55552 0.0
C1101 C 0.7403 0.50931 0.54638 0.0
C1102 C 0.7484 0.51357 0.51352 0.0
H1103 H 0.81216 0.51543 0.46577 0.0
H1104 H 0.79059 0.5303 0.48635 0.0
H1105 H 0.79454 0.50197 0.49615 0.0
H1106 H 0.74553 0.46216 0.48067 0.0
H1107 H 0.73122 0.45468 0.53747 0.0
H1108 H 0.99293 0.75833 0.77215 0.0
H1109 H 0.99075 0.75114 0.83335 0.0
H1110 H 0.9997 0.81955 0.85448 0.0
H1111 H 0.00238 0.82693 0.7931 0.0
H1112 H 0.02706 0.79502 0.89108 0.0
H1113 H 0.94409 0.76113 0.9042 0.0
H1114 H 0.95916 0.74719 0.87154 0.0
H1115 H 0.95282 0.77567 0.86641 0.0
C1116 C 0.99412 0.77195 0.78969 0.0
C1117 C 0.99789 0.79323 0.77759 0.0
C1118 C 0.99267 0.76781 0.82476 0.0
C1119 C 0.99467 0.78485 0.84852 0.0
C1120 C 0.99794 0.80618 0.83658 0.0
H1121 H 0.98464 0.75499 0.0688 0.0
H1122 H 0.97755 0.77134 0.01261 0.0
C1123 C 0.9995 0.81035 0.80146 0.0
C1124 C 0.9955 0.77998 0.88569 0.0
H1125 H 0.96962 0.75173 0.9491 0.0
C1126 C 0.01432 0.78589 0.9039 0.0
C1127 C 0.97874 0.76837 0.90264 0.0
C1128 C 0.95747 0.76294 0.88525 0.0
C1129 C 0.01738 0.77941 0.93798 0.0
C1130 C 0.00141 0.76629 0.95401 0.0
C1131 C 0.98201 0.76148 0.93655 0.0
C1132 C 0.00528 0.75626 0.98795 0.0
C1133 C 0.03787 0.78641 0.95633 0.0
C1134 C 0.02289 0.74199 0.9924 0.0
C1135 C 0.02701 0.73267 0.0243 0.0
C1136 C 0.01347 0.73727 0.05248 0.0
C1137 C 0.99545 0.75115 0.04772 0.0
C1138 C 0.99136 0.76052 0.01567 0.0
H1139 H 0.04473 0.80155 0.94503 0.0
H1140 H 0.03476 0.78924 0.98398 0.0
H1141 H 0.05034 0.77341 0.95386 0.0
H1142 H 0.0335 0.73804 0.97112 0.0
H1143 H 0.0409 0.7219 0.02681 0.0
H1144 H 0.68044 0.02187 0.29894 0.0
H1145 H 0.69108 0.02056 0.3593 0.0
H1146 H 0.74474 0.97813 0.33388 0.0
H1147 H 0.73465 0.97987 0.27345 0.0
H1148 H 0.69679 0.98812 0.40704 0.0
H1149 H 0.7753 0.02924 0.37843 0.0
H1150 H 0.75373 0.02698 0.3473 0.0
H1151 H 0.77151 0.00423 0.35539 0.0
C1152 C 0.69438 0.01209 0.30625 0.0
C1153 C 0.70692 0.00126 0.28137 0.0
C1154 C 0.70042 0.01134 0.34074 0.0
C1155 C 0.71898 0.99965 0.3509 0.0
C1156 C 0.7307 0.98772 0.32642 0.0
H1157 H 0.75862 0.98016 0.56489 0.0
H1158 H 0.74469 0.97407 0.50684 0.0
C1159 C 0.72486 0.98869 0.29192 0.0
C1160 C 0.72678 0.00095 0.38672 0.0
H1161 H 0.77009 0.01715 0.4352 0.0
C1162 C 0.71282 0.99443 0.41329 0.0
C1163 C 0.74759 0.0095 0.39473 0.0
C1164 C 0.76283 0.01809 0.36752 0.0
C1165 C 0.71912 0.99627 0.44776 0.0
C1166 C 0.74011 0.00441 0.45567 0.0
C1167 C 0.75408 0.01076 0.42905 0.0
C1168 C 0.7476 0.00782 0.49133 0.0
C1169 C 0.70302 0.99017 0.47534 0.0
C1170 C 0.75421 0.02869 0.50163 0.0
C1171 C 0.76249 0.03214 0.5344 0.0
C1172 C 0.76424 0.01478 0.55774 0.0
C1173 C 0.75734 0.99389 0.54758 0.0
C1174 C 0.74925 0.99041 0.5145 0.0
H1175 H 0.68608 0.98947 0.46535 0.0
H1176 H 0.70721 0.97383 0.48553 0.0
H1177 H 0.70359 0.00199 0.49687 0.0
H1178 H 0.75309 0.04236 0.48416 0.0
H1179 H 0.76749 0.04847 0.5414 0.0
H1180 H 0.44873 0.76318 0.04191 0.0
H1181 H 0.4541 0.74915 0.98423 0.0
H1182 H 0.52318 0.74372 0.00295 0.0
H1183 H 0.51787 0.7573 0.06138 0.0
H1184 H 0.47739 0.7675 0.93407 0.0
H1185 H 0.50954 0.68473 0.96127 0.0
H1186 H 0.49695 0.70146 0.99374 0.0
H1187 H 0.52469 0.70638 0.98106 0.0
C1188 C 0.46508 0.75889 0.03395 0.0
C1189 C 0.48289 0.76141 0.05629 0.0
C1190 C 0.46811 0.75083 0.00093 0.0
C1191 C 0.48899 0.74517 0.98936 0.0
C1192 C 0.50684 0.74753 0.01158 0.0
H1193 H 0.51545 0.7356 0.77077 0.0
H1194 H 0.51672 0.74519 0.83141 0.0
C1195 C 0.5038 0.75542 0.04489 0.0
C1196 C 0.49195 0.73804 0.95339 0.0
H1197 H 0.50967 0.69605 0.90313 0.0
C1198 C 0.48446 0.75187 0.92732 0.0
C1199 C 0.50098 0.71755 0.94467 0.0
C1200 C 0.50833 0.70156 0.97163 0.0
C1201 C 0.48558 0.74578 0.89279 0.0
C1202 C 0.49508 0.72553 0.88396 0.0
C1203 C 0.50262 0.71166 0.90998 0.0
C1204 C 0.49652 0.71825 0.84786 0.0
C1205 C 0.47592 0.76083 0.86623 0.0
C1206 C 0.48568 0.69927 0.83723 0.0
C1207 C 0.48516 0.69355 0.80258 0.0
C1208 C 0.49541 0.70679 0.77797 0.0
C1209 C 0.5071 0.72523 0.78898 0.0
C1210 C 0.50779 0.73079 0.82362 0.0
H1211 H 0.46427 0.77259 0.87776 0.0
H1212 H 0.48919 0.77033 0.85398 0.0
H1213 H 0.4673 0.75149 0.84599 0.0
H1214 H 0.47697 0.68931 0.85559 0.0
H1215 H 0.47605 0.67922 0.79498 0.0
H1216 H 0.74276 0.50026 0.77347 0.0
H1217 H 0.75193 0.50151 0.83418 0.0
H1218 H 0.68405 0.49401 0.86028 0.0
H1219 H 0.67467 0.49229 0.79949 0.0
H1220 H 0.7389 0.52876 0.88714 0.0
H1221 H 0.71297 0.4431 0.90977 0.0
H1222 H 0.71604 0.45429 0.86735 0.0
H1223 H 0.69231 0.46064 0.89241 0.0
C1224 C 0.72971 0.49898 0.79203 0.0
C1225 C 0.70799 0.49593 0.78154 0.0
C1226 C 0.735 0.49976 0.82675 0.0
C1227 C 0.71871 0.49753 0.85167 0.0
C1228 C 0.69691 0.49533 0.8414 0.0
H1229 H 0.74724 0.51291 0.07127 0.0
H1230 H 0.73206 0.5186 0.01395 0.0
C1231 C 0.69159 0.49441 0.80664 0.0
C1232 C 0.72484 0.49662 0.88827 0.0
H1233 H 0.72617 0.46261 0.95731 0.0
C1234 C 0.736 0.51438 0.90264 0.0
C1235 C 0.72119 0.47772 0.90819 0.0
C1236 C 0.71014 0.45776 0.89367 0.0
C1237 C 0.74399 0.5136 0.9363 0.0
C1238 C 0.74038 0.49468 0.95614 0.0
C1239 C 0.7288 0.47713 0.942 0.0
C1240 C 0.74983 0.49196 0.99072 0.0
C1241 C 0.75697 0.53263 0.94985 0.0
C1242 C 0.76461 0.47496 0.99665 0.0
C1243 C 0.77313 0.47154 0.02928 0.0
C1244 C 0.76704 0.48506 0.05674 0.0
C1245 C 0.75237 0.50227 0.05066 0.0
C1246 C 0.74374 0.50561 0.01791 0.0
H1247 H 0.76214 0.54386 0.92907 0.0
H1248 H 0.74679 0.542 0.96815 0.0
H1249 H 0.7717 0.52689 0.9637 0.0
H1250 H 0.76951 0.46426 0.97597 0.0
H1251 H 0.78445 0.45819 0.03293 0.0
H1252 H 0.00662 0.67277 0.293 0.0
H1253 H 0.00361 0.68023 0.35435 0.0
H1254 H 0.9959 0.74875 0.33304 0.0
H1255 H 0.99838 0.74149 0.27187 0.0
H1256 H 0.03057 0.70437 0.39236 0.0
H1257 H 0.94778 0.73923 0.40155 0.0
H1258 H 0.95708 0.72465 0.36414 0.0
H1259 H 0.9637 0.75304 0.36975 0.0
C1260 C 0.00399 0.6894 0.30132 0.0
C1261 C 0.00271 0.70652 0.27741 0.0
C1262 C 0.00225 0.69362 0.33641 0.0
C1263 C 0.99914 0.71499 0.34827 0.0
C1264 C 0.99767 0.73206 0.32449 0.0
H1265 H 0.04214 0.77644 0.53034 0.0
H1266 H 0.03611 0.76056 0.47404 0.0
C1267 C 0.99928 0.72787 0.28945 0.0
C1268 C 0.99933 0.71982 0.38548 0.0
H1269 H 0.97242 0.74807 0.44784 0.0
C1270 C 0.01768 0.71362 0.40461 0.0
C1271 C 0.98236 0.73155 0.40169 0.0
C1272 C 0.96152 0.73729 0.38328 0.0
C1273 C 0.02006 0.71987 0.43893 0.0
C1274 C 0.0039 0.73309 0.45429 0.0
C1275 C 0.98497 0.73824 0.43584 0.0
C1276 C 0.00707 0.74285 0.48862 0.0
C1277 C 0.04002 0.71248 0.45829 0.0
C1278 C 0.99226 0.73878 0.51526 0.0
C1279 C 0.99555 0.74803 0.54764 0.0
C1280 C 0.01366 0.76157 0.55382 0.0
C1281 C 0.02814 0.76592 0.52673 0.0
C1282 C 0.02481 0.75675 0.49449 0.0
H1283 H 0.04688 0.69728 0.4472 0.0
H1284 H 0.05275 0.72529 0.45663 0.0
H1285 H 0.03627 0.7096 0.48574 0.0
H1286 H 0.97834 0.72826 0.51111 0.0
H1287 H 0.98404 0.74438 0.56786 0.0
H1288 H 0.74205 0.97743 0.06537 0.0
H1289 H 0.75597 0.97012 0.0076 0.0
H1290 H 0.75047 0.03843 0.98301 0.0
H1291 H 0.73619 0.04577 0.03991 0.0
H1292 H 0.73192 0.01287 0.93499 0.0
H1293 H 0.81529 0.98313 0.96522 0.0
H1294 H 0.79353 0.96876 0.98614 0.0
H1295 H 0.79844 0.99688 0.99635 0.0
C1296 C 0.74399 0.99089 0.04771 0.0
C1297 C 0.7379 0.01216 0.05722 0.0
C1298 C 0.75206 0.98671 0.01479 0.0
C1299 C 0.75445 0.00377 0.99112 0.0
C1300 C 0.74874 0.02501 0.00085 0.0
H1301 H 0.82138 0.01811 0.79956 0.0
H1302 H 0.81082 0.01581 0.85987 0.0
C1303 C 0.74053 0.02916 0.03344 0.0
C1304 C 0.7617 0.99971 0.9555 0.0
H1305 H 0.80476 0.9827 0.90692 0.0
C1306 C 0.74781 0.00617 0.92884 0.0
C1307 C 0.78251 0.99114 0.94762 0.0
C1308 C 0.79843 0.98473 0.97528 0.0
C1309 C 0.75428 0.00478 0.89452 0.0
C1310 C 0.775 0.99601 0.88654 0.0
C1311 C 0.78881 0.98921 0.91315 0.0
C1312 C 0.78294 0.99498 0.85075 0.0
C1313 C 0.73917 0.01357 0.86729 0.0
C1314 C 0.77123 0.9834 0.82583 0.0
C1315 C 0.77702 0.98494 0.79135 0.0
C1316 C 0.79491 0.99775 0.78123 0.0
C1317 C 0.80749 0.00816 0.80651 0.0
C1318 C 0.80149 0.00684 0.84099 0.0
H1319 H 0.72665 0.02465 0.87823 0.0
H1320 H 0.74838 0.0226 0.84735 0.0
H1321 H 0.73055 0.99981 0.85479 0.0
H1322 H 0.75719 0.97371 0.83293 0.0
H1323 H 0.76721 0.97643 0.77256 0.0
H1324 H 0.49934 0.82701 0.29433 0.0
H1325 H 0.50276 0.81975 0.35566 0.0
H1326 H 0.5085 0.75095 0.33487 0.0
H1327 H 0.5056 0.758 0.27374 0.0
H1328 H 0.47487 0.79659 0.39319 0.0
H1329 H 0.55633 0.75903 0.40427 0.0
H1330 H 0.54784 0.77383 0.36659 0.0
H1331 H 0.54036 0.74565 0.37209 0.0
C1332 C 0.50168 0.81035 0.30275 0.0
C1333 C 0.50216 0.79309 0.27902 0.0
C1334 C 0.50368 0.80626 0.33782 0.0
C1335 C 0.50625 0.78485 0.34983 0.0
C1336 C 0.50715 0.76766 0.32619 0.0
H1337 H 0.45869 0.72277 0.52707 0.0
H1338 H 0.46662 0.73914 0.47172 0.0
C1339 C 0.50528 0.77173 0.29117 0.0
C1340 C 0.50565 0.78012 0.38702 0.0
H1341 H 0.53069 0.75041 0.44958 0.0
C1342 C 0.48729 0.78684 0.40567 0.0
C1343 C 0.522 0.7677 0.40351 0.0
C1344 C 0.54285 0.76135 0.38563 0.0
C1345 C 0.4842 0.78034 0.43971 0.0
C1346 C 0.49964 0.76639 0.45523 0.0
C1347 C 0.51868 0.7608 0.43739 0.0
C1348 C 0.49546 0.75622 0.48892 0.0
C1349 C 0.46418 0.78813 0.45854 0.0
C1350 C 0.50953 0.75979 0.51667 0.0
C1351 C 0.50512 0.75032 0.54853 0.0
C1352 C 0.48663 0.737 0.55301 0.0
C1353 C 0.47295 0.73308 0.52476 0.0
C1354 C 0.47737 0.74252 0.49307 0.0
H1355 H 0.4579 0.8036 0.44755 0.0
H1356 H 0.45114 0.77568 0.45618 0.0
H1357 H 0.46764 0.79067 0.48616 0.0
H1358 H 0.5237 0.77016 0.51382 0.0
H1359 H 0.51606 0.75362 0.56967 0.0
H1360 H 0.17218 0.5055 0.69947 0.0
H1361 H 0.17998 0.50241 0.6383 0.0
H1362 H 0.24816 0.49298 0.66079 0.0
H1363 H 0.24052 0.49556 0.72187 0.0
H1364 H 0.20505 0.5292 0.60167 0.0
H1365 H 0.23795 0.44565 0.59094 0.0
H1366 H 0.22329 0.45494 0.62828 0.0
H1367 H 0.25186 0.46095 0.6234 0.0
C1368 C 0.1888 0.50249 0.69145 0.0
C1369 C 0.20572 0.50079 0.71564 0.0
C1370 C 0.19321 0.50067 0.65647 0.0
C1371 C 0.21458 0.49709 0.645 0.0
C1372 C 0.23145 0.49512 0.66906 0.0
H1373 H 0.27853 0.54033 0.46583 0.0
H1374 H 0.26239 0.53373 0.52177 0.0
C1375 C 0.22706 0.4968 0.70403 0.0
C1376 C 0.21966 0.4975 0.60793 0.0
H1377 H 0.24761 0.47052 0.54534 0.0
C1378 C 0.21404 0.51619 0.58922 0.0
C1379 C 0.23106 0.48039 0.59151 0.0
C1380 C 0.23618 0.45926 0.60951 0.0
C1381 C 0.22058 0.51877 0.5551 0.0
C1382 C 0.23347 0.50244 0.53956 0.0
C1383 C 0.23802 0.48318 0.55755 0.0
C1384 C 0.24353 0.50577 0.50557 0.0
C1385 C 0.21389 0.53914 0.53617 0.0
C1386 C 0.23887 0.49172 0.47819 0.0
C1387 C 0.24821 0.49536 0.446 0.0
C1388 C 0.26246 0.51305 0.44082 0.0
C1389 C 0.26746 0.5267 0.46869 0.0
C1390 C 0.25817 0.52303 0.50071 0.0
H1391 H 0.19891 0.54642 0.54733 0.0
H1392 H 0.22713 0.55141 0.53815 0.0
H1393 H 0.21094 0.53572 0.50863 0.0
H1394 H 0.22775 0.47818 0.48159 0.0
H1395 H 0.24407 0.48447 0.42516 0.0
H1396 H 0.97428 0.18379 0.19584 0.0
H1397 H 0.97591 0.19468 0.13575 0.0
H1398 H 0.01681 0.24926 0.16266 0.0
H1399 H 0.01476 0.23888 0.22289 0.0
H1400 H 0.98421 0.26173 0.12307 0.0
H1401 H 0.02309 0.18932 0.06475 0.0
H1402 H 0.99924 0.18231 0.0889 0.0
H1403 H 0.02253 0.19377 0.11044 0.0
C1404 C 0.98384 0.19796 0.18894 0.0
C1405 C 0.99435 0.21049 0.21419 0.0
C1406 C 0.9849 0.20407 0.15451 0.0
C1407 C 0.99679 0.22257 0.14462 0.0
C1408 C 0.00762 0.23486 0.1697 0.0
H1409 H 0.01686 0.26035 0.93054 0.0
H1410 H 0.02271 0.24809 0.98953 0.0
C1411 C 0.00639 0.22892 0.20414 0.0
C1412 C 0.99651 0.23015 0.10859 0.0
H1413 H 0.00514 0.2139 0.02607 0.0
C1414 C 0.98902 0.25133 0.10191 0.0
C1415 C 0.00308 0.21671 0.081 0.0
C1416 C 0.01266 0.19435 0.08663 0.0
C1417 C 0.98726 0.25922 0.06837 0.0
C1418 C 0.99256 0.24532 0.0407 0.0
C1419 C 0.00079 0.22441 0.04734 0.0
C1420 C 0.98903 0.25206 0.00474 0.0
C1421 C 0.97981 0.28241 0.06296 0.0
C1422 C 0.96809 0.25786 0.99363 0.0
C1423 C 0.96472 0.265 0.96017 0.0
C1424 C 0.98219 0.26619 0.93692 0.0
C1425 C 0.00307 0.25968 0.94781 0.0
C1426 C 0.00644 0.25267 0.98148 0.0
H1427 H 0.98297 0.29264 0.08591 0.0
H1428 H 0.98809 0.28993 0.04061 0.0
H1429 H 0.96198 0.28254 0.05815 0.0
H1430 H 0.95433 0.25694 0.01093 0.0
H1431 H 0.94838 0.26959 0.95258 0.0
H1432 H 0.23141 0.95308 0.46235 0.0
H1433 H 0.24414 0.96128 0.51996 0.0
H1434 H 0.25542 0.02816 0.491 0.0
H1435 H 0.24301 0.02004 0.43271 0.0
H1436 H 0.28909 0.01062 0.52993 0.0
H1437 H 0.20915 0.9951 0.59078 0.0
H1438 H 0.21802 0.9725 0.56519 0.0
H1439 H 0.21226 0.99827 0.54509 0.0
C1440 C 0.23654 0.96957 0.4681 0.0
C1441 C 0.23598 0.98596 0.44296 0.0
C1442 C 0.24374 0.97424 0.50112 0.0
C1443 C 0.25025 0.99542 0.50986 0.0
C1444 C 0.25027 0.01174 0.48474 0.0
H1445 H 0.26409 0.02195 0.72765 0.0
H1446 H 0.25465 0.0262 0.6673 0.0
C1447 C 0.24317 0.00706 0.4515 0.0
C1448 C 0.25701 0.00027 0.54536 0.0
H1449 H 0.24017 0.99509 0.62805 0.0
C1450 C 0.27835 0.00754 0.55145 0.0
C1451 C 0.2428 0.99669 0.57328 0.0
C1452 C 0.21922 0.99044 0.56828 0.0
C1453 C 0.2862 0.01027 0.58494 0.0
C1454 C 0.27246 0.00509 0.61288 0.0
C1455 C 0.25081 0.99884 0.60666 0.0
C1456 C 0.28025 0.00497 0.64878 0.0
C1457 C 0.30911 0.01862 0.58998 0.0
C1458 C 0.29799 0.99188 0.65841 0.0
C1459 C 0.3036 0.98963 0.69289 0.0
C1460 C 0.29124 6e-05 0.71837 0.0
C1461 C 0.27382 0.01357 0.70861 0.0
C1462 C 0.26844 0.01607 0.67414 0.0
H1463 H 0.3144 0.02877 0.56795 0.0
H1464 H 0.31052 0.02843 0.61376 0.0
H1465 H 0.32043 0.00457 0.59183 0.0
H1466 H 0.30696 0.98267 0.63942 0.0
H1467 H 0.31699 0.97897 0.69966 0.0
H1468 H 0.47675 0.24081 0.92806 0.0
H1469 H 0.46914 0.25447 0.9859 0.0
H1470 H 0.53662 0.24522 0.01324 0.0
H1471 H 0.54426 0.23123 0.9563 0.0
H1472 H 0.50881 0.22777 0.05993 0.0
H1473 H 0.48535 0.31308 0.02892 0.0
H1474 H 0.47019 0.29216 0.00721 0.0
H1475 H 0.49872 0.29547 -0.00159 0.0
C1476 C 0.48996 0.24182 0.94638 0.0
C1477 C 0.51109 0.23485 0.93759 0.0
C1478 C 0.48561 0.24973 0.97932 0.0
C1479 C 0.50237 0.25103 0.00371 0.0
C1480 C 0.52345 0.24433 0.9948 0.0
H1481 H 0.52155 0.31757 0.19321 0.0
H1482 H 0.51815 0.30646 0.13328 0.0
C1483 C 0.52777 0.23629 0.96218 0.0
C1484 C 0.49818 0.25845 0.03913 0.0
H1485 H 0.48438 0.30285 0.08717 0.0
C1486 C 0.5033 0.24413 0.06593 0.0
C1487 C 0.49116 0.27986 0.04674 0.0
C1488 C 0.48618 0.29615 0.01888 0.0
C1489 C 0.50229 0.2508 0.10017 0.0
C1490 C 0.49526 0.27221 0.10787 0.0
C1491 C 0.4896 0.28641 0.08112 0.0
C1492 C 0.49516 0.28049 0.14346 0.0
C1493 C 0.50977 0.23514 0.1276 0.0
C1494 C 0.48283 0.27002 0.16881 0.0
C1495 C 0.48501 0.27608 0.20308 0.0
C1496 C 0.49924 0.29303 0.21249 0.0
C1497 C 0.51053 0.3044 0.18678 0.0
C1498 C 0.50856 0.29811 0.15253 0.0
H1499 H 0.51966 0.2216 0.11684 0.0
H1500 H 0.51963 0.24364 0.14736 0.0
H1501 H 0.49532 0.22787 0.14029 0.0
H1502 H 0.47196 0.25676 0.16221 0.0
H1503 H 0.47579 0.26727 0.22225 0.0
H1504 H 0.2264 0.5393 0.26875 0.0
H1505 H 0.19596 0.56106 0.24692 0.0
H1506 H 0.20761 0.60927 0.32528 0.0
H1507 H 0.2385 0.58812 0.34626 0.0
H1508 H 0.15891 0.57337 0.27462 0.0
H1509 H 0.20612 0.64747 0.24281 0.0
H1510 H 0.21906 0.6221 0.25414 0.0
H1511 H 0.20904 0.64013 0.28698 0.0
C1512 C 0.2225 0.55458 0.28123 0.0
C1513 C 0.23499 0.5621 0.30899 0.0
C1514 C 0.20512 0.56701 0.26873 0.0
C1515 C 0.19979 0.58707 0.28395 0.0
C1516 C 0.21184 0.59424 0.31235 0.0
H1517 H 0.07402 0.65083 0.25379 0.0
H1518 H 0.10538 0.63151 0.27773 0.0
C1519 C 0.22941 0.58203 0.32448 0.0
C1520 C 0.18134 0.60026 0.27066 0.0
H1521 H 0.16742 0.65121 0.24312 0.0
C1522 C 0.1608 0.59036 0.26754 0.0
C1523 C 0.18386 0.62235 0.2609 0.0
C1524 C 0.20576 0.63356 0.26102 0.0
C1525 C 0.14268 0.60196 0.25534 0.0
C1526 C 0.14498 0.62434 0.24718 0.0
C1527 C 0.16557 0.63417 0.24991 0.0
C1528 C 0.12646 0.63761 0.2343 0.0
C1529 C 0.12147 0.5899 0.25041 0.0
C1530 C 0.12826 0.64859 0.2029 0.0
C1531 C 0.11056 0.66011 0.18958 0.0
C1532 C 0.0906 0.66072 0.20726 0.0
C1533 C 0.08909 0.65045 0.23935 0.0
C1534 C 0.10694 0.63922 0.25292 0.0
H1535 H 0.12411 0.57205 0.24798 0.0
H1536 H 0.11087 0.59265 0.27302 0.0
H1537 H 0.11273 0.59569 0.22725 0.0
H1538 H 0.1432 0.64773 0.18817 0.0
H1539 H 0.11228 0.66779 0.16476 0.0
H1540 H 0.86721 0.06844 0.7417 0.0
H1541 H 0.88653 0.10034 0.76376 0.0
H1542 H 0.83834 0.14253 0.71861 0.0
H1543 H 0.81886 0.11078 0.69608 0.0
H1544 H 0.89869 0.13923 0.71063 0.0
H1545 H 0.85081 0.15959 0.82762 0.0
H1546 H 0.85324 0.1319 0.81224 0.0
H1547 H 0.8367 0.15104 0.78937 0.0
C1548 C 0.86045 0.08446 0.73688 0.0
C1549 C 0.8415 0.08703 0.71693 0.0
C1550 C 0.87158 0.10264 0.74945 0.0
C1551 C 0.86382 0.12366 0.7427 0.0
C1552 C 0.84449 0.12635 0.72407 0.0
H1553 H 0.90638 0.25295 0.79854 0.0
H1554 H 0.88637 0.22072 0.77981 0.0
C1555 C 0.83341 0.10819 0.71124 0.0
C1556 C 0.8767 0.14285 0.75314 0.0
H1557 H 0.8797 0.18312 0.81307 0.0
C1558 C 0.89466 0.14885 0.73306 0.0
C1559 C 0.87115 0.1553 0.78218 0.0
C1560 C 0.85197 0.14924 0.80435 0.0
C1561 C 0.90715 0.16733 0.74107 0.0
C1562 C 0.90182 0.17972 0.7705 0.0
C1563 C 0.88382 0.17359 0.79058 0.0
C1564 C 0.9144 0.19934 0.78064 0.0
C1565 C 0.9255 0.17372 0.71737 0.0
C1566 C 0.93687 0.19806 0.78731 0.0
C1567 C 0.94845 0.21657 0.79764 0.0
C1568 C 0.93768 0.2366 0.80213 0.0
C1569 C 0.91518 0.23778 0.79546 0.0
C1570 C 0.90369 0.21935 0.78478 0.0
H1571 H 0.92339 0.16653 0.69147 0.0
H1572 H 0.92666 0.1917 0.71478 0.0
H1573 H 0.94113 0.1676 0.72793 0.0
H1574 H 0.94538 0.18267 0.7851 0.0
H1575 H 0.96571 0.21504 0.80292 0.0
H1576 H 0.28359 0.96539 0.2928 0.0
H1577 H 0.31568 0.945 0.27379 0.0
H1578 H 0.28648 0.88524 0.30932 0.0
H1579 H 0.25451 0.90534 0.32869 0.0
H1580 H 0.33035 0.89046 0.32915 0.0
H1581 H 0.31846 0.90441 0.18976 0.0
H1582 H 0.319 0.92862 0.21565 0.0
H1583 H 0.29723 0.90931 0.22081 0.0
C1584 C 0.28394 0.94791 0.29652 0.0
C1585 C 0.26637 0.93704 0.3122 0.0
C1586 C 0.30227 0.93628 0.28552 0.0
C1587 C 0.30333 0.9136 0.28985 0.0
C1588 C 0.28596 0.90274 0.3057 0.0
H1589 H 0.38847 0.82165 0.18937 0.0
H1590 H 0.35762 0.84131 0.21386 0.0
C1591 C 0.26765 0.9143 0.31667 0.0
C1592 C 0.32253 0.90105 0.27805 0.0
H1593 H 0.35071 0.88619 0.20643 0.0
C1594 C 0.33485 0.88952 0.30234 0.0
C1595 C 0.32816 0.89968 0.24301 0.0
C1596 C 0.31495 0.91099 0.21568 0.0
C1597 C 0.35278 0.87674 0.29251 0.0
C1598 C 0.35861 0.87567 0.25754 0.0
C1599 C 0.34623 0.88712 0.23326 0.0
C1600 C 0.37735 0.86257 0.24534 0.0
C1601 C 0.36504 0.86413 0.3195 0.0
C1602 C 0.39868 0.86782 0.25533 0.0
C1603 C 0.41642 0.85656 0.24144 0.0
C1604 C 0.41315 0.83995 0.21709 0.0
C1605 C 0.39166 0.83433 0.208 0.0
C1606 C 0.37397 0.84559 0.2219 0.0
H1607 H 0.35546 0.86251 0.34351 0.0
H1608 H 0.36932 0.84759 0.31012 0.0
H1609 H 0.38041 0.87282 0.32566 0.0
H1610 H 0.40166 0.88109 0.27301 0.0
H1611 H 0.43271 0.8614 0.24896 0.0
H1612 H 0.58865 0.25827 0.84407 0.0
H1613 H 0.60947 0.28999 0.8255 0.0
H1614 H 0.5596 0.30525 0.75138 0.0
H1615 H 0.5382 0.27394 0.77085 0.0
H1616 H 0.6274 0.2992 0.76662 0.0
H1617 H 0.5668 0.36333 0.79609 0.0
H1618 H 0.56362 0.33558 0.8104 0.0
H1619 H 0.55615 0.34315 0.76742 0.0
C1620 C 0.58203 0.26844 0.82393 0.0
C1621 C 0.5617 0.26366 0.80905 0.0
C1622 C 0.59397 0.28658 0.81334 0.0
C1623 C 0.58597 0.30025 0.78743 0.0
C1624 C 0.56583 0.29533 0.77211 0.0
H1625 H 0.66452 0.38859 0.66637 0.0
H1626 H 0.64552 0.35719 0.6903 0.0
C1627 C 0.55367 0.27735 0.7831 0.0
C1628 C 0.59913 0.31919 0.77585 0.0
H1629 H 0.59711 0.37404 0.76172 0.0
C1630 C 0.62081 0.31559 0.76578 0.0
C1631 C 0.5907 0.34066 0.77535 0.0
C1632 C 0.56812 0.34597 0.78824 0.0
C1633 C 0.63416 0.33277 0.75468 0.0
C1634 C 0.62537 0.35404 0.75245 0.0
C1635 C 0.60381 0.3577 0.7631 0.0
C1636 C 0.63805 0.3727 0.73871 0.0
C1637 C 0.65766 0.32794 0.74612 0.0
C1638 C 0.63986 0.39209 0.75764 0.0
C1639 C 0.65037 0.41025 0.74373 0.0
C1640 C 0.65941 0.40935 0.71067 0.0
C1641 C 0.65802 0.38976 0.69209 0.0
C1642 C 0.64723 0.37171 0.70582 0.0
H1643 H 0.66357 0.31322 0.75984 0.0
H1644 H 0.65911 0.32471 0.71825 0.0
H1645 H 0.66843 0.34185 0.75275 0.0
H1646 H 0.63286 0.39326 0.78303 0.0
H1647 H 0.65116 0.42509 0.75871 0.0
H1648 H 0.71934 0.46546 0.20857 0.0
H1649 H 0.68743 0.44469 0.22739 0.0
H1650 H 0.71688 0.38543 0.19026 0.0
H1651 H 0.74864 0.4059 0.17108 0.0
H1652 H 0.67327 0.39062 0.17032 0.0
H1653 H 0.68437 0.40316 0.31018 0.0
H1654 H 0.68385 0.42768 0.28504 0.0
H1655 H 0.70571 0.40854 0.27951 0.0
C1656 C 0.71908 0.448 0.20448 0.0
C1657 C 0.73663 0.43739 0.18835 0.0
C1658 C 0.70086 0.43615 0.2154 0.0
C1659 C 0.69993 0.4135 0.21052 0.0
C1660 C 0.71732 0.4029 0.19431 0.0
H1661 H 0.61236 0.3217 0.30774 0.0
H1662 H 0.64406 0.34087 0.28482 0.0
C1663 C 0.73549 0.41467 0.18343 0.0
C1664 C 0.68074 0.40075 0.22179 0.0
H1665 H 0.65203 0.38532 0.29258 0.0
C1666 C 0.66859 0.38944 0.19704 0.0
C1667 C 0.67491 0.39904 0.25671 0.0
C1668 C 0.68796 0.41008 0.2845 0.0
C1669 C 0.65059 0.3766 0.20625 0.0
C1670 C 0.64447 0.37528 0.24108 0.0
C1671 C 0.65674 0.38644 0.26586 0.0
C1672 C 0.62532 0.36251 0.25251 0.0
C1673 C 0.63853 0.36426 0.17872 0.0
C1674 C 0.60429 0.36815 0.24158 0.0
C1675 C 0.58611 0.35719 0.25451 0.0
C1676 C 0.5886 0.34046 0.27888 0.0
C1677 C 0.60978 0.33446 0.28902 0.0
C1678 C 0.62794 0.34544 0.27604 0.0
H1679 H 0.64852 0.36241 0.15517 0.0
H1680 H 0.63367 0.34782 0.18785 0.0
H1681 H 0.62351 0.37333 0.17182 0.0
H1682 H 0.60189 0.38151 0.22386 0.0
H1683 H 0.57008 0.36233 0.2462 0.0
H1684 H 0.09339 0.747 0.67028 0.0
H1685 H 0.11397 0.71546 0.69014 0.0
H1686 H 0.05461 0.68541 0.72559 0.0
H1687 H 0.03374 0.71705 0.70611 0.0
H1688 H 0.08905 0.6838 0.77304 0.0
H1689 H 0.11516 0.65503 0.64468 0.0
H1690 H 0.12136 0.68313 0.65317 0.0
H1691 H 0.09341 0.67448 0.65061 0.0
C1692 C 0.08461 0.73371 0.68224 0.0
C1693 C 0.06183 0.73456 0.6864 0.0
C1694 C 0.09644 0.71563 0.69339 0.0
C1695 C 0.08576 0.69797 0.70876 0.0
C1696 C 0.06311 0.69884 0.71353 0.0
H1697 H 0.13693 0.56924 0.75102 0.0
H1698 H 0.11746 0.60076 0.72822 0.0
C1699 C 0.05122 0.71694 0.70236 0.0
C1700 C 0.09833 0.67879 0.72048 0.0
H1701 H 0.13188 0.63806 0.69269 0.0
C1702 C 0.09837 0.67375 0.7555 0.0
C1703 C 0.11027 0.6656 0.69743 0.0
C1704 C 0.10995 0.66965 0.65933 0.0
C1705 C 0.11035 0.65604 0.76822 0.0
C1706 C 0.12286 0.64327 0.74531 0.0
C1707 C 0.1225 0.64807 0.71021 0.0
C1708 C 0.13587 0.62445 0.75729 0.0
C1709 C 0.10923 0.65091 0.80597 0.0
C1710 C 0.15315 0.62743 0.78034 0.0
C1711 C 0.16435 0.60945 0.79348 0.0
C1712 C 0.15851 0.58815 0.78368 0.0
C1713 C 0.14182 0.58536 0.75931 0.0
C1714 C 0.13065 0.60336 0.74622 0.0
H1715 H 0.09505 0.65889 0.81845 0.0
H1716 H 0.10813 0.63306 0.81029 0.0
H1717 H 0.12426 0.65692 0.81866 0.0
H1718 H 0.15771 0.64364 0.78864 0.0
H1719 H 0.17719 0.61225 0.81199 0.0
H1720 H 0.77389 0.03879 0.22512 0.0
H1721 H 0.80398 0.0606 0.24799 0.0
H1722 H 0.78864 0.11213 0.17683 0.0
H1723 H 0.75811 0.09084 0.15483 0.0
H1724 H 0.83977 0.07549 0.21946 0.0
H1725 H 0.79143 0.14615 0.26377 0.0
H1726 H 0.77891 0.121 0.25019 0.0
H1727 H 0.78739 0.14094 0.21906 0.0
C1728 C 0.7769 0.0548 0.21444 0.0
C1729 C 0.7635 0.06316 0.18836 0.0
C1730 C 0.79408 0.06726 0.22755 0.0
C1731 C 0.79829 0.08823 0.21467 0.0
C1732 C 0.78529 0.09633 0.188 0.0
H1733 H 0.9227 0.15446 0.2401 0.0
H1734 H 0.89077 0.13537 0.21768 0.0
C1735 C 0.76792 0.08405 0.17526 0.0
C1736 C 0.81671 0.10133 0.22836 0.0
H1737 H 0.82999 0.15129 0.26089 0.0
C1738 C 0.8376 0.09202 0.22872 0.0
C1739 C 0.81385 0.12279 0.241 0.0
C1740 C 0.79164 0.13322 0.24386 0.0
C1741 C 0.85574 0.10363 0.24082 0.0
C1742 C 0.85307 0.12549 0.25175 0.0
C1743 C 0.83212 0.13468 0.25196 0.0
C1744 C 0.8717 0.13885 0.26401 0.0
C1745 C 0.87745 0.09211 0.24253 0.0
C1746 C 0.87112 0.14836 0.29671 0.0
C1747 C 0.88915 0.15976 0.30928 0.0
C1748 C 0.9082 0.16171 0.28947 0.0
C1749 C 0.90838 0.153 0.25616 0.0
C1750 C 0.89021 0.1419 0.24342 0.0
H1751 H 0.87542 0.07413 0.24336 0.0
H1752 H 0.88707 0.09611 0.21931 0.0
H1753 H 0.8869 0.09725 0.2654 0.0
H1754 H 0.85695 0.14638 0.31297 0.0
H1755 H 0.88849 0.16623 0.33506 0.0
H1756 H 0.32886 0.88709 0.82408 0.0
H1757 H 0.34855 0.85635 0.79948 0.0
H1758 H 0.36581 0.89557 0.71191 0.0
H1759 H 0.34686 0.92678 0.73712 0.0
H1760 H 0.34506 0.83321 0.74343 0.0
H1761 H 0.42483 0.87558 0.74177 0.0
H1762 H 0.40119 0.88692 0.76256 0.0
H1763 H 0.4045 0.88936 0.71691 0.0
C1764 C 0.33668 0.88918 0.79944 0.0
C1765 C 0.33648 0.90947 0.78272 0.0
C1766 C 0.34798 0.87156 0.78542 0.0
C1767 C 0.35915 0.87378 0.75426 0.0
C1768 C 0.35794 0.89367 0.73653 0.0
H1769 H 0.40938 0.76131 0.64292 0.0
H1770 H 0.3881 0.79251 0.66253 0.0
C1771 C 0.34693 0.91144 0.75082 0.0
C1772 C 0.37226 0.85532 0.74083 0.0
H1773 H 0.42343 0.84097 0.71484 0.0
C1774 C 0.36221 0.8349 0.73722 0.0
C1775 C 0.39476 0.85742 0.7334 0.0
C1776 C 0.40703 0.87843 0.73918 0.0
C1777 C 0.37395 0.81654 0.72631 0.0
C1778 C 0.39623 0.81884 0.71751 0.0
C1779 C 0.40631 0.83925 0.72124 0.0
C1780 C 0.40949 0.80025 0.70493 0.0
C1781 C 0.36248 0.79478 0.72543 0.0
C1782 C 0.42916 0.79477 0.72124 0.0
C1783 C 0.44167 0.77724 0.70953 0.0
C1784 C 0.43461 0.76473 0.68149 0.0
C1785 C 0.41508 0.77042 0.66493 0.0
C1786 C 0.4028 0.78818 0.67626 0.0
H1787 H 0.34817 0.79453 0.74287 0.0
H1788 H 0.35645 0.79165 0.6991 0.0
H1789 H 0.37362 0.78133 0.73282 0.0
H1790 H 0.43472 0.80392 0.7433 0.0
H1791 H 0.45663 0.77323 0.72283 0.0
H1792 H 0.88807 0.32049 0.79722 0.0
H1793 H 0.85668 0.33908 0.77243 0.0
H1794 H 0.89955 0.38326 0.71923 0.0
H1795 H 0.93118 0.36467 0.74366 0.0
H1796 H 0.84752 0.38311 0.78401 0.0
H1797 H 0.85527 0.36539 0.64505 0.0
H1798 H 0.86933 0.34975 0.67741 0.0
H1799 H 0.87945 0.37604 0.66492 0.0
C1800 C 0.89092 0.33393 0.77981 0.0
C1801 C 0.91222 0.34114 0.77261 0.0
C1802 C 0.87292 0.34455 0.7657 0.0
C1803 C 0.87579 0.36247 0.74391 0.0
C1804 C 0.89698 0.36924 0.73559 0.0
H1805 H 0.78051 0.46413 0.70332 0.0
H1806 H 0.81269 0.44336 0.7206 0.0
C1807 C 0.91505 0.35862 0.7497 0.0
C1808 C 0.85659 0.37508 0.73226 0.0
H1809 H 0.82873 0.39165 0.66121 0.0
C1810 C 0.84337 0.38494 0.75717 0.0
C1811 C 0.85119 0.37732 0.69725 0.0
C1812 C 0.86441 0.36643 0.66955 0.0
C1813 C 0.82495 0.39714 0.748 0.0
C1814 C 0.8198 0.39977 0.71298 0.0
C1815 C 0.83287 0.38974 0.68804 0.0
C1816 C 0.80056 0.41248 0.70184 0.0
C1817 C 0.81094 0.40683 0.77588 0.0
C1818 C 0.78328 0.40203 0.68507 0.0
C1819 C 0.76486 0.41382 0.67514 0.0
C1820 C 0.76344 0.43636 0.68157 0.0
C1821 C 0.78097 0.44681 0.69806 0.0
C1822 C 0.79937 0.43496 0.70806 0.0
H1823 H 0.81433 0.39935 0.80123 0.0
H1824 H 0.8143 0.42456 0.77781 0.0
H1825 H 0.79337 0.40472 0.76989 0.0
H1826 H 0.78394 0.38468 0.68 0.0
H1827 H 0.75175 0.40522 0.66238 0.0
H1828 H 0.15339 0.92623 0.23734 0.0
H1829 H 0.13482 0.89482 0.212 0.0
H1830 H 0.15042 0.85637 0.30116 0.0
H1831 H 0.16976 0.8873 0.32593 0.0
H1832 H 0.15462 0.83264 0.24575 0.0
H1833 H 0.07522 0.87555 0.24003 0.0
H1834 H 0.09603 0.88896 0.21566 0.0
H1835 H 0.09862 0.88691 0.26148 0.0
C1836 C 0.15304 0.911 0.25137 0.0
C1837 C 0.16291 0.90931 0.28377 0.0
C1838 C 0.14225 0.89313 0.237 0.0
C1839 C 0.14066 0.87342 0.25511 0.0
C1840 C 0.15128 0.87145 0.28679 0.0
H1841 H 0.04274 0.77356 0.22209 0.0
H1842 H 0.06475 0.80411 0.24281 0.0
C1843 C 0.16238 0.88916 0.30091 0.0
C1844 C 0.12763 0.85492 0.2416 0.0
H1845 H 0.07679 0.8407 0.21389 0.0
C1846 C 0.13758 0.83439 0.23883 0.0
C1847 C 0.10527 0.8571 0.23322 0.0
C1848 C 0.09308 0.87825 0.23807 0.0
C1849 C 0.12587 0.81602 0.22786 0.0
C1850 C 0.10375 0.81841 0.21814 0.0
C1851 C 0.09379 0.83892 0.22101 0.0
C1852 C 0.09052 0.7998 0.20552 0.0
C1853 C 0.13718 0.79418 0.22788 0.0
C1854 C 0.0975 0.7874 0.17738 0.0
C1855 C 0.08515 0.76972 0.16591 0.0
C1856 C 0.06527 0.76444 0.18178 0.0
C1857 C 0.05797 0.77725 0.20932 0.0
C1858 C 0.07054 0.7947 0.22117 0.0
H1859 H 0.15122 0.79398 0.24586 0.0
H1860 H 0.12582 0.78087 0.23514 0.0
H1861 H 0.14357 0.79077 0.20185 0.0
H1862 H 0.11247 0.79143 0.16414 0.0
H1863 H 0.09106 0.76036 0.1443 0.0
H1864 H 0.74116 0.08843 0.65411 0.0
H1865 H 0.70976 0.10924 0.67384 0.0
H1866 H 0.69591 0.05974 0.74921 0.0
H1867 H 0.72694 0.03828 0.72852 0.0
H1868 H 0.65965 0.07267 0.71946 0.0
H1869 H 0.70603 0.14603 0.75764 0.0
H1870 H 0.71035 0.13947 0.71345 0.0
H1871 H 0.71924 0.12081 0.74623 0.0
C1872 C 0.73151 0.08199 0.67501 0.0
C1873 C 0.73664 0.06179 0.68997 0.0
C1874 C 0.71362 0.094 0.68642 0.0
C1875 C 0.7008 0.08637 0.71363 0.0
C1876 C 0.70568 0.06604 0.72834 0.0
H1877 H 0.61013 0.1665 0.82757 0.0
H1878 H 0.64152 0.14635 0.8062 0.0
C1879 C 0.7234 0.0538 0.71651 0.0
C1880 C 0.68201 0.09939 0.72608 0.0
H1881 H 0.6674 0.15013 0.75369 0.0
C1882 C 0.66136 0.08956 0.72718 0.0
C1883 C 0.68429 0.12136 0.73666 0.0
C1884 C 0.70622 0.13245 0.73881 0.0
C1885 C 0.64289 0.10114 0.7381 0.0
C1886 C 0.645 0.12343 0.74698 0.0
C1887 C 0.6657 0.13317 0.74632 0.0
C1888 C 0.62615 0.13668 0.75866 0.0
C1889 C 0.62148 0.08914 0.74088 0.0
C1890 C 0.60723 0.13857 0.7386 0.0
C1891 C 0.58907 0.14987 0.751 0.0
C1892 C 0.58969 0.15993 0.78335 0.0
C1893 C 0.60909 0.15902 0.8025 0.0
C1894 C 0.62707 0.14743 0.79035 0.0
H1895 H 0.62396 0.07126 0.7431 0.0
H1896 H 0.61198 0.09477 0.7634 0.0
H1897 H 0.61171 0.09217 0.71747 0.0
H1898 H 0.60638 0.13105 0.71356 0.0
H1899 H 0.57445 0.15045 0.73549 0.0
H1900 H 0.40496 0.74889 0.18067 0.0
H1901 H 0.38435 0.71744 0.20069 0.0
H1902 H 0.44427 0.68362 0.22306 0.0
H1903 H 0.46521 0.7152 0.20339 0.0
H1904 H 0.38553 0.67478 0.17531 0.0
H1905 H 0.40929 0.67837 0.31254 0.0
H1906 H 0.41358 0.70085 0.2835 0.0
H1907 H 0.43164 0.67781 0.28282 0.0
C1908 C 0.41386 0.73485 0.18997 0.0
C1909 C 0.43681 0.73464 0.19045 0.0
C1910 C 0.402 0.71685 0.20135 0.0
C1911 C 0.41277 0.6983 0.21361 0.0
C1912 C 0.43565 0.69794 0.21419 0.0
H1913 H 0.35788 0.56962 0.24696 0.0
H1914 H 0.37723 0.60123 0.22409 0.0
C1915 C 0.44758 0.71598 0.20281 0.0
C1916 C 0.39991 0.67924 0.22513 0.0
H1917 H 0.38831 0.64795 0.29502 0.0
C1918 C 0.38613 0.66889 0.20147 0.0
C1919 C 0.40056 0.67179 0.25937 0.0
C1920 C 0.4144 0.68286 0.28618 0.0
C1921 C 0.37308 0.65112 0.21109 0.0
C1922 C 0.37404 0.64343 0.24515 0.0
C1923 C 0.3877 0.65388 0.26887 0.0
C1924 C 0.361 0.62457 0.25686 0.0
C1925 C 0.35809 0.64095 0.18496 0.0
C1926 C 0.34538 0.62726 0.28271 0.0
C1927 C 0.33426 0.60924 0.29587 0.0
C1928 C 0.33874 0.58813 0.28365 0.0
C1929 C 0.35398 0.58561 0.25698 0.0
C1930 C 0.36503 0.60367 0.24377 0.0
H1931 H 0.35559 0.65175 0.16247 0.0
H1932 H 0.36534 0.62546 0.17575 0.0
H1933 H 0.34199 0.63716 0.19648 0.0
H1934 H 0.34208 0.64328 0.29316 0.0
H1935 H 0.3227 0.61183 0.31642 0.0
H1936 H 0.42384 0.6523 0.75399 0.0
H1937 H 0.39227 0.6333 0.77789 0.0
H1938 H 0.35523 0.6483 0.687 0.0
H1939 H 0.38637 0.66807 0.6636 0.0
H1940 H 0.33043 0.65217 0.74138 0.0
H1941 H 0.37425 0.57342 0.74924 0.0
H1942 H 0.38718 0.59436 0.774 0.0
H1943 H 0.38564 0.59692 0.72812 0.0
C1944 C 0.40889 0.65173 0.73925 0.0
C1945 C 0.40766 0.66155 0.70678 0.0
C1946 C 0.39092 0.64069 0.7528 0.0
C1947 C 0.37158 0.63879 0.7338 0.0
C1948 C 0.37003 0.64938 0.70203 0.0
H1949 H 0.27243 0.53993 0.76962 0.0
H1950 H 0.3027 0.56182 0.74756 0.0
C1951 C 0.38785 0.66073 0.68871 0.0
C1952 C 0.35304 0.62554 0.74664 0.0
H1953 H 0.33931 0.57482 0.77543 0.0
C1954 C 0.33236 0.63523 0.74872 0.0
C1955 C 0.35544 0.60328 0.75551 0.0
C1956 C 0.37677 0.59131 0.75127 0.0
C1957 C 0.31409 0.6234 0.7598 0.0
C1958 C 0.31671 0.60146 0.77028 0.0
C1959 C 0.33734 0.5917 0.7678 0.0
C1960 C 0.29829 0.58826 0.78366 0.0
C1961 C 0.2921 0.63443 0.75922 0.0
C1962 C 0.28596 0.59565 0.81161 0.0
C1963 C 0.26847 0.58335 0.82387 0.0
C1964 C 0.26328 0.56313 0.80898 0.0
C1965 C 0.27605 0.55542 0.78166 0.0
C1966 C 0.29333 0.56793 0.76902 0.0
H1967 H 0.29175 0.6481 0.74058 0.0
H1968 H 0.27893 0.62278 0.7525 0.0
H1969 H 0.28861 0.6413 0.78492 0.0
H1970 H 0.2899 0.6109 0.8241 0.0
H1971 H 0.25915 0.58959 0.84529 0.0
H1972 H 0.83183 0.38797 0.17861 0.0
H1973 H 0.84984 0.35704 0.20552 0.0
H1974 H 0.86712 0.3973 0.29197 0.0
H1975 H 0.84985 0.42868 0.26441 0.0
H1976 H 0.90099 0.37545 0.27179 0.0
H1977 H 0.83256 0.31736 0.281 0.0
H1978 H 0.83597 0.32641 0.23773 0.0
H1979 H 0.82848 0.3457 0.27052 0.0
C1980 C 0.83912 0.3902 0.20362 0.0
C1981 C 0.83936 0.4108 0.21939 0.0
C1982 C 0.84932 0.37241 0.21911 0.0
C1983 C 0.85951 0.37468 0.25111 0.0
C1984 C 0.85929 0.39512 0.26733 0.0
H1985 H 0.9105 0.25968 0.35605 0.0
H1986 H 0.88925 0.29179 0.3401 0.0
C1987 C 0.84939 0.41303 0.25159 0.0
C1988 C 0.87183 0.35618 0.26622 0.0
H1989 H 0.86858 0.30184 0.28421 0.0
C1990 C 0.8938 0.35942 0.27494 0.0
C1991 C 0.86242 0.33532 0.27092 0.0
C1992 C 0.8385 0.33106 0.2649 0.0
C1993 C 0.90679 0.34227 0.28711 0.0
C1994 C 0.89779 0.32108 0.28944 0.0
C1995 C 0.87562 0.31799 0.28186 0.0
C1996 C 0.91106 0.30186 0.29949 0.0
C1997 C 0.92993 0.3472 0.29772 0.0
C1998 C 0.93029 0.29664 0.28176 0.0
C1999 C 0.94267 0.2785 0.29121 0.0
C2000 C 0.93576 0.26487 0.31801 0.0
C2001 C 0.91625 0.26983 0.33523 0.0
C2002 C 0.90408 0.28819 0.32616 0.0
H2003 H 0.93182 0.36453 0.30542 0.0
H2004 H 0.93518 0.33673 0.31937 0.0
H2005 H 0.94097 0.34426 0.2757 0.0
H2006 H 0.93565 0.30649 0.26036 0.0
H2007 H 0.95746 0.27494 0.27713 0.0
H2008 H 0.11054 0.82128 0.68388 0.0
H2009 H 0.14173 0.84053 0.70828 0.0
H2010 H 0.09841 0.87971 0.76964 0.0
H2011 H 0.06707 0.86044 0.74574 0.0
H2012 H 0.14905 0.88532 0.70235 0.0
H2013 H 0.14481 0.86002 0.83868 0.0
H2014 H 0.13055 0.84569 0.80505 0.0
H2015 H 0.11979 0.87076 0.82177 0.0
C2016 C 0.1076 0.83374 0.70297 0.0
C2017 C 0.08623 0.8393 0.71276 0.0
C2018 C 0.12547 0.84477 0.71681 0.0
C2019 C 0.12238 0.86144 0.74089 0.0
C2020 C 0.10117 0.86665 0.75148 0.0
H2021 H 0.21527 0.96441 0.79071 0.0
H2022 H 0.18357 0.94374 0.77075 0.0
C2023 C 0.08326 0.85564 0.73766 0.0
C2024 C 0.14126 0.87428 0.75324 0.0
H2025 H 0.16952 0.88855 0.82512 0.0
C2026 C 0.15358 0.886 0.72918 0.0
C2027 C 0.14716 0.87501 0.78821 0.0
C2028 C 0.13503 0.86206 0.81494 0.0
C2029 C 0.17159 0.89857 0.73919 0.0
C2030 C 0.17721 0.89968 0.77425 0.0
C2031 C 0.16501 0.88782 0.79829 0.0
C2032 C 0.19624 0.91238 0.78638 0.0
C2033 C 0.18471 0.91021 0.71211 0.0
C2034 C 0.21365 0.90163 0.8023 0.0
C2035 C 0.23171 0.91334 0.81384 0.0
C2036 C 0.23271 0.93613 0.80987 0.0
C2037 C 0.21512 0.94689 0.79407 0.0
C2038 C 0.19702 0.9351 0.7825 0.0
H2039 H 0.18132 0.90374 0.68607 0.0
H2040 H 0.18045 0.92778 0.71231 0.0
H2041 H 0.20244 0.90873 0.71729 0.0
H2042 H 0.21332 0.88409 0.80559 0.0
H2043 H 0.24488 0.90446 0.82591 0.0
H2044 H 0.66574 0.11034 0.16569 0.0
H2045 H 0.64639 0.14174 0.18885 0.0
H2046 H 0.63252 0.10584 0.28128 0.0
H2047 H 0.65118 0.07396 0.25766 0.0
H2048 H 0.59712 0.12527 0.25916 0.0
H2049 H 0.66391 0.18577 0.25851 0.0
H2050 H 0.65975 0.17424 0.21685 0.0
H2051 H 0.66869 0.15711 0.25159 0.0
C2052 C 0.65889 0.1092 0.19119 0.0
C2053 C 0.66009 0.08964 0.20988 0.0
C2054 C 0.64789 0.12725 0.20448 0.0
C2055 C 0.6383 0.12633 0.23708 0.0
C2056 C 0.63985 0.10697 0.2561 0.0
H2057 H 0.58901 0.24099 0.34177 0.0
H2058 H 0.6097 0.20921 0.32309 0.0
C2059 C 0.65057 0.08878 0.24261 0.0
C2060 C 0.62557 0.1451 0.25043 0.0
H2061 H 0.62778 0.19996 0.2645 0.0
C2062 C 0.6039 0.14157 0.26063 0.0
C2063 C 0.63445 0.16634 0.25276 0.0
C2064 C 0.65804 0.17106 0.24469 0.0
C2065 C 0.59077 0.15871 0.27258 0.0
C2066 C 0.59932 0.18014 0.27325 0.0
C2067 C 0.6211 0.1836 0.26356 0.0
C2068 C 0.58624 0.19916 0.2848 0.0
C2069 C 0.56808 0.15352 0.28505 0.0
C2070 C 0.56617 0.20424 0.26939 0.0
C2071 C 0.55408 0.22226 0.28045 0.0
C2072 C 0.56212 0.23584 0.30656 0.0
C2073 C 0.58238 0.23092 0.32151 0.0
C2074 C 0.59425 0.21273 0.31085 0.0
H2075 H 0.56657 0.13616 0.29277 0.0
H2076 H 0.56349 0.16391 0.30719 0.0
H2077 H 0.55627 0.15648 0.26403 0.0
H2078 H 0.55993 0.19441 0.24856 0.0
H2079 H 0.53865 0.22578 0.26816 0.0
loop_
_geom_bond_atom_site_label_1
_geom_bond_atom_site_label_2
_geom_bond_distance
_geom_bond_site_symmetry_2
_ccdc_geom_bond_type
Sc0 O3 2.025 . S
Sc0 O10 2.105 . S
Sc0 O13 2.105 . S
Sc0 O16 2.105 . S
Sc0 O19 2.105 . S
Sc1 O3 2.025 . S
Sc1 O11 2.105 . S
Sc1 O15 2.105 . S
Sc1 O17 2.105 . S
Sc1 O21 2.105 . S
Sc2 O3 2.025 . S
Sc2 O12 2.105 . S
Sc2 O14 2.105 . S
Sc2 O18 2.105 . S
Sc2 O20 2.105 . S
O3 Sc0 2.025 . S
O3 Sc1 2.025 . S
O3 Sc2 2.025 . S
C4 O10 1.268 . S
C4 O20 1.268 . S
C5 O11 1.268 . S
C5 O19 1.268 . S
C6 O12 1.268 . S
C6 O21 1.268 . S
C7 O13 1.268 . S
C7 O17 1.268 . S
C8 O14 1.268 . S
C8 O16 1.268 . S
C9 O15 1.268 . S
C9 O18 1.268 . S
O10 Sc0 2.105 . S
O10 C4 1.268 . S
O11 Sc1 2.105 . S
O11 C5 1.268 . S
O12 Sc2 2.105 . S
O12 C6 1.268 . S
O13 Sc0 2.105 . S
O13 C7 1.268 . S
O14 Sc2 2.105 . S
O14 C8 1.268 . S
O15 Sc1 2.105 . S
O15 C9 1.268 . S
O16 Sc0 2.105 . S
O16 C8 1.268 . S
O17 Sc1 2.105 . S
O17 C7 1.268 . S
O18 Sc2 2.105 . S
O18 C9 1.268 . S
O19 Sc0 2.105 . S
O19 C5 1.268 . S
O20 Sc2 2.105 . S
O20 C4 1.268 . S
O21 Sc1 2.105 . S
O21 C6 1.268 . S
Sc22 O25 2.025 . S
Sc22 O32 2.105 . S
Sc22 O35 2.105 . S
Sc22 O38 2.105 . S
Sc22 O41 2.105 . S
Sc23 O25 2.025 . S
Sc23 O33 2.105 . S
Sc23 O37 2.105 . S
Sc23 O39 2.105 . S
Sc23 O43 2.114 . S
Sc24 O25 2.025 . S
Sc24 O34 2.105 1_655 S
Sc24 O36 2.105 . S
Sc24 O40 2.105 . S
Sc24 O42 2.105 . S
O25 Sc22 2.025 . S
O25 Sc23 2.025 . S
O25 Sc24 2.025 . S
C26 O32 1.268 . S
C26 O42 1.268 . S
C27 O33 1.268 . S
C27 O41 1.268 . S
C28 O34 1.268 . S
C28 O43 1.261 1_455 S
C29 O35 1.268 . S
C29 O39 1.268 . S
C30 O36 1.268 . S
C30 O38 1.268 . S
C31 O37 1.268 . S
C31 O40 1.268 . S
O32 Sc22 2.105 . S
O32 C26 1.268 . S
O33 Sc23 2.105 . S
O33 C27 1.268 . S
O34 Sc24 2.105 1_455 S
O34 C28 1.268 . S
O35 Sc22 2.105 . S
O35 C29 1.268 . S
O36 Sc24 2.105 . S
O36 C30 1.268 . S
O37 Sc23 2.105 . S
O37 C31 1.268 . S
O38 Sc22 2.105 . S
O38 C30 1.268 . S
O39 Sc23 2.105 . S
O39 C29 1.268 . S
O40 Sc24 2.105 . S
O40 C31 1.268 . S
O41 Sc22 2.105 . S
O41 C27 1.268 . S
O42 Sc24 2.105 . S
O42 C26 1.268 . S
O43 Sc23 2.114 . S
O43 C28 1.261 1_655 S
Sc44 O47 2.025 . S
Sc44 O54 2.105 . S
Sc44 O57 2.105 1_565 S
Sc44 O60 2.105 . S
Sc44 O63 2.105 . S
Sc45 O47 2.025 . S
Sc45 O55 2.105 . S
Sc45 O59 2.105 . S
Sc45 O61 2.114 . S
Sc45 O65 2.105 . S
Sc46 O47 2.025 . S
Sc46 O56 2.105 . S
Sc46 O58 2.105 . S
Sc46 O62 2.105 . S
Sc46 O64 2.105 . S
O47 Sc44 2.025 . S
O47 Sc45 2.025 . S
O47 Sc46 2.025 . S
C48 O54 1.268 . S
C48 O64 1.268 . S
C49 O55 1.268 . S
C49 O63 1.268 . S
C50 O56 1.268 . S
C50 O65 1.268 . S
C51 O57 1.268 . S
C51 O61 1.261 1_545 S
C52 O58 1.268 . S
C52 O60 1.268 . S
C53 O59 1.268 . S
C53 O62 1.268 . S
O54 Sc44 2.105 . S
O54 C48 1.268 . S
O55 Sc45 2.105 . S
O55 C49 1.268 . S
O56 Sc46 2.105 . S
O56 C50 1.268 . S
O57 Sc44 2.105 1_545 S
O57 C51 1.268 . S
O58 Sc46 2.105 . S
O58 C52 1.268 . S
O59 Sc45 2.105 . S
O59 C53 1.268 . S
O60 Sc44 2.105 . S
O60 C52 1.268 . S
O61 Sc45 2.114 . S
O61 C51 1.261 1_565 S
O62 Sc46 2.105 . S
O62 C53 1.268 . S
O63 Sc44 2.105 . S
O63 C49 1.268 . S
O64 Sc46 2.105 . S
O64 C48 1.268 . S
O65 Sc45 2.105 . S
O65 C50 1.268 . S
Sc66 O69 2.025 . S
Sc66 O76 2.105 . S
Sc66 O79 2.105 . S
Sc66 O82 2.105 . S
Sc66 O85 2.105 . S
Sc67 O69 2.025 . S
Sc67 O77 2.105 . S
Sc67 O81 2.105 . S
Sc67 O83 2.105 . S
Sc67 O87 2.105 . S
Sc68 O69 2.025 . S
Sc68 O78 2.105 . S
Sc68 O80 2.105 . S
Sc68 O84 2.105 . S
Sc68 O86 2.105 . S
O69 Sc66 2.025 . S
O69 Sc67 2.025 . S
O69 Sc68 2.025 . S
C70 O76 1.268 . S
C70 O86 1.268 . S
C71 O77 1.268 . S
C71 O85 1.268 . S
C72 O78 1.268 . S
C72 O87 1.268 . S
C73 O79 1.268 . S
C73 O83 1.268 . S
C74 O80 1.268 . S
C74 O82 1.268 . S
C75 O81 1.268 . S
C75 O84 1.268 . S
O76 Sc66 2.105 . S
O76 C70 1.268 . S
O77 Sc67 2.105 . S
O77 C71 1.268 . S
O78 Sc68 2.105 . S
O78 C72 1.268 . S
O79 Sc66 2.105 . S
O79 C73 1.268 . S
O80 Sc68 2.105 . S
O80 C74 1.268 . S
O81 Sc67 2.105 . S
O81 C75 1.268 . S
O82 Sc66 2.105 . S
O82 C74 1.268 . S
O83 Sc67 2.105 . S
O83 C73 1.268 . S
O84 Sc68 2.105 . S
O84 C75 1.268 . S
O85 Sc66 2.105 . S
O85 C71 1.268 . S
O86 Sc68 2.105 . S
O86 C70 1.268 . S
O87 Sc67 2.105 . S
O87 C72 1.268 . S
Sc88 O91 2.025 . S
Sc88 O98 2.105 . S
Sc88 O101 2.105 . S
Sc88 O104 2.105 . S
Sc88 O107 2.105 . S
Sc89 O91 2.025 . S
Sc89 O99 2.105 . S
Sc89 O103 2.105 . S
Sc89 O105 2.105 . S
Sc89 O109 2.105 . S
Sc90 O91 2.025 . S
Sc90 O100 2.105 . S
Sc90 O102 2.105 . S
Sc90 O106 2.105 . S
Sc90 O108 2.105 . S
O91 Sc88 2.025 . S
O91 Sc89 2.025 . S
O91 Sc90 2.025 . S
C92 O98 1.268 . S
C92 O108 1.268 . S
C93 O99 1.268 . S
C93 O107 1.268 . S
C94 O100 1.268 . S
C94 O109 1.268 . S
C95 O101 1.268 . S
C95 O105 1.268 . S
C96 O102 1.268 . S
C96 O104 1.268 . S
C97 O103 1.268 . S
C97 O106 1.268 . S
O98 Sc88 2.105 . S
O98 C92 1.268 . S
O99 Sc89 2.105 . S
O99 C93 1.268 . S
O100 Sc90 2.105 . S
O100 C94 1.268 . S
O101 Sc88 2.105 . S
O101 C95 1.268 . S
O102 Sc90 2.105 . S
O102 C96 1.268 . S
O103 Sc89 2.105 . S
O103 C97 1.268 . S
O104 Sc88 2.105 . S
O104 C96 1.268 . S
O105 Sc89 2.105 . S
O105 C95 1.268 . S
O106 Sc90 2.105 . S
O106 C97 1.268 . S
O107 Sc88 2.105 . S
O107 C93 1.268 . S
O108 Sc90 2.105 . S
O108 C92 1.268 . S
O109 Sc89 2.105 . S
O109 C94 1.268 . S
Sc110 O113 2.025 . S
Sc110 O120 2.105 . S
Sc110 O123 2.105 1_455 S
Sc110 O126 2.105 . S
Sc110 O129 2.105 . S
Sc111 O113 2.025 . S
Sc111 O121 2.105 . S
Sc111 O125 2.105 . S
Sc111 O127 2.114 . S
Sc111 O131 2.105 . S
Sc112 O113 2.025 . S
Sc112 O122 2.105 . S
Sc112 O124 2.105 . S
Sc112 O128 2.105 . S
Sc112 O130 2.105 . S
O113 Sc110 2.025 . S
O113 Sc111 2.025 . S
O113 Sc112 2.025 . S
C114 O120 1.268 . S
C114 O130 1.268 . S
C115 O121 1.268 . S
C115 O129 1.268 . S
C116 O122 1.268 . S
C116 O131 1.268 . S
C117 O123 1.268 . S
C117 O127 1.261 1_655 S
C118 O124 1.268 . S
C118 O126 1.268 . S
C119 O125 1.268 . S
C119 O128 1.268 . S
O120 Sc110 2.105 . S
O120 C114 1.268 . S
O121 Sc111 2.105 . S
O121 C115 1.268 . S
O122 Sc112 2.105 . S
O122 C116 1.268 . S
O123 Sc110 2.105 1_655 S
O123 C117 1.268 . S
O124 Sc112 2.105 . S
O124 C118 1.268 . S
O125 Sc111 2.105 . S
O125 C119 1.268 . S
O126 Sc110 2.105 . S
O126 C118 1.268 . S
O127 Sc111 2.114 . S
O127 C117 1.261 1_455 S
O128 Sc112 2.105 . S
O128 C119 1.268 . S
O129 Sc110 2.105 . S
O129 C115 1.268 . S
O130 Sc112 2.105 . S
O130 C114 1.268 . S
O131 Sc111 2.105 . S
O131 C116 1.268 . S
Sc132 O135 2.025 . S
Sc132 O142 2.105 . S
Sc132 O145 2.105 1_545 S
Sc132 O148 2.105 . S
Sc132 O151 2.105 . S
Sc133 O135 2.025 . S
Sc133 O143 2.105 . S
Sc133 O147 2.105 . S
Sc133 O149 2.114 . S
Sc133 O153 2.105 . S
Sc134 O135 2.025 . S
Sc134 O144 2.105 . S
Sc134 O146 2.105 . S
Sc134 O150 2.105 . S
Sc134 O152 2.105 . S
O135 Sc132 2.025 . S
O135 Sc133 2.025 . S
O135 Sc134 2.025 . S
C136 O142 1.268 . S
C136 O152 1.268 . S
C137 O143 1.268 . S
C137 O151 1.268 . S
C138 O144 1.268 . S
C138 O153 1.268 . S
C139 O145 1.268 . S
C139 O149 1.261 1_565 S
C140 O146 1.268 . S
C140 O148 1.268 . S
C141 O147 1.268 . S
C141 O150 1.268 . S
O142 Sc132 2.105 . S
O142 C136 1.268 . S
O143 Sc133 2.105 . S
O143 C137 1.268 . S
O144 Sc134 2.105 . S
O144 C138 1.268 . S
O145 Sc132 2.105 1_565 S
O145 C139 1.268 . S
O146 Sc134 2.105 . S
O146 C140 1.268 . S
O147 Sc133 2.105 . S
O147 C141 1.268 . S
O148 Sc132 2.105 . S
O148 C140 1.268 . S
O149 Sc133 2.114 . S
O149 C139 1.261 1_545 S
O150 Sc134 2.105 . S
O150 C141 1.268 . S
O151 Sc132 2.105 . S
O151 C137 1.268 . S
O152 Sc134 2.105 . S
O152 C136 1.268 . S
O153 Sc133 2.105 . S
O153 C138 1.268 . S
Sc154 O157 2.025 . S
Sc154 O164 2.105 . S
Sc154 O167 2.105 . S
Sc154 O170 2.105 . S
Sc154 O173 2.105 . S
Sc155 O157 2.025 . S
Sc155 O165 2.105 . S
Sc155 O169 2.105 . S
Sc155 O171 2.105 . S
Sc155 O175 2.105 . S
Sc156 O157 2.025 . S
Sc156 O166 2.105 . S
Sc156 O168 2.105 . S
Sc156 O172 2.105 . S
Sc156 O174 2.105 . S
O157 Sc154 2.025 . S
O157 Sc155 2.025 . S
O157 Sc156 2.025 . S
C158 O164 1.268 . S
C158 O174 1.268 . S
C159 O165 1.268 . S
C159 O173 1.268 . S
C160 O166 1.268 . S
C160 O175 1.268 . S
C161 O167 1.268 . S
C161 O171 1.268 . S
C162 O168 1.268 . S
C162 O170 1.268 . S
C163 O169 1.268 . S
C163 O172 1.268 . S
O164 Sc154 2.105 . S
O164 C158 1.268 . S
O165 Sc155 2.105 . S
O165 C159 1.268 . S
O166 Sc156 2.105 . S
O166 C160 1.268 . S
O167 Sc154 2.105 . S
O167 C161 1.268 . S
O168 Sc156 2.105 . S
O168 C162 1.268 . S
O169 Sc155 2.105 . S
O169 C163 1.268 . S
O170 Sc154 2.105 . S
O170 C162 1.268 . S
O171 Sc155 2.105 . S
O171 C161 1.268 . S
O172 Sc156 2.105 . S
O172 C163 1.268 . S
O173 Sc154 2.105 . S
O173 C159 1.268 . S
O174 Sc156 2.105 . S
O174 C158 1.268 . S
O175 Sc155 2.105 . S
O175 C160 1.268 . S
Sc176 O179 2.025 . S
Sc176 O186 2.105 . S
Sc176 O189 2.105 . S
Sc176 O192 2.105 . S
Sc176 O195 2.105 . S
Sc177 O179 2.025 . S
Sc177 O187 2.105 . S
Sc177 O191 2.105 . S
Sc177 O193 2.105 . S
Sc177 O197 2.105 . S
Sc178 O179 2.025 . S
Sc178 O188 2.105 . S
Sc178 O190 2.105 . S
Sc178 O194 2.105 . S
Sc178 O196 2.105 . S
O179 Sc176 2.025 . S
O179 Sc177 2.025 . S
O179 Sc178 2.025 . S
C180 O186 1.268 . S
C180 O196 1.268 . S
C181 O187 1.268 . S
C181 O195 1.268 . S
C182 O188 1.268 . S
C182 O197 1.268 . S
C183 O189 1.268 . S
C183 O193 1.268 . S
C184 O190 1.268 . S
C184 O192 1.268 . S
C185 O191 1.268 . S
C185 O194 1.268 . S
O186 Sc176 2.105 . S
O186 C180 1.268 . S
O187 Sc177 2.105 . S
O187 C181 1.268 . S
O188 Sc178 2.105 . S
O188 C182 1.268 . S
O189 Sc176 2.105 . S
O189 C183 1.268 . S
O190 Sc178 2.105 . S
O190 C184 1.268 . S
O191 Sc177 2.105 . S
O191 C185 1.268 . S
O192 Sc176 2.105 . S
O192 C184 1.268 . S
O193 Sc177 2.105 . S
O193 C183 1.268 . S
O194 Sc178 2.105 . S
O194 C185 1.268 . S
O195 Sc176 2.105 . S
O195 C181 1.268 . S
O196 Sc178 2.105 . S
O196 C180 1.268 . S
O197 Sc177 2.105 . S
O197 C182 1.268 . S
Sc198 O201 2.025 . S
Sc198 O208 2.105 . S
Sc198 O211 2.105 . S
Sc198 O214 2.105 . S
Sc198 O217 2.105 1_455 S
Sc199 O201 2.025 . S
Sc199 O209 2.114 . S
Sc199 O213 2.105 . S
Sc199 O215 2.105 . S
Sc199 O219 2.105 . S
Sc200 O201 2.025 . S
Sc200 O210 2.105 . S
Sc200 O212 2.105 . S
Sc200 O216 2.105 . S
Sc200 O218 2.105 . S
O201 Sc198 2.025 . S
O201 Sc199 2.025 . S
O201 Sc200 2.025 . S
C202 O208 1.268 . S
C202 O218 1.268 . S
C203 O209 1.261 1_655 S
C203 O217 1.268 . S
C204 O210 1.268 . S
C204 O219 1.268 . S
C205 O211 1.268 . S
C205 O215 1.268 . S
C206 O212 1.268 . S
C206 O214 1.268 . S
C207 O213 1.268 . S
C207 O216 1.268 . S
O208 Sc198 2.105 . S
O208 C202 1.268 . S
O209 Sc199 2.114 . S
O209 C203 1.261 1_455 S
O210 Sc200 2.105 . S
O210 C204 1.268 . S
O211 Sc198 2.105 . S
O211 C205 1.268 . S
O212 Sc200 2.105 . S
O212 C206 1.268 . S
O213 Sc199 2.105 . S
O213 C207 1.268 . S
O214 Sc198 2.105 . S
O214 C206 1.268 . S
O215 Sc199 2.105 . S
O215 C205 1.268 . S
O216 Sc200 2.105 . S
O216 C207 1.268 . S
O217 Sc198 2.105 1_655 S
O217 C203 1.268 . S
O218 Sc200 2.105 . S
O218 C202 1.268 . S
O219 Sc199 2.105 . S
O219 C204 1.268 . S
Sc220 O223 2.025 . S
Sc220 O230 2.105 . S
Sc220 O233 2.105 . S
Sc220 O236 2.105 . S
Sc220 O239 2.105 . S
Sc221 O223 2.025 . S
Sc221 O231 2.105 . S
Sc221 O235 2.114 . S
Sc221 O237 2.105 . S
Sc221 O241 2.105 . S
Sc222 O223 2.025 . S
Sc222 O232 2.105 . S
Sc222 O234 2.105 . S
Sc222 O238 2.105 1_545 S
Sc222 O240 2.105 . S
O223 Sc220 2.025 . S
O223 Sc221 2.025 . S
O223 Sc222 2.025 . S
C224 O230 1.268 . S
C224 O240 1.268 . S
C225 O231 1.268 . S
C225 O239 1.268 . S
C226 O232 1.268 . S
C226 O241 1.268 . S
C227 O233 1.268 . S
C227 O237 1.268 . S
C228 O234 1.268 . S
C228 O236 1.268 . S
C229 O235 1.261 1_565 S
C229 O238 1.268 . S
O230 Sc220 2.105 . S
O230 C224 1.268 . S
O231 Sc221 2.105 . S
O231 C225 1.268 . S
O232 Sc222 2.105 . S
O232 C226 1.268 . S
O233 Sc220 2.105 . S
O233 C227 1.268 . S
O234 Sc222 2.105 . S
O234 C228 1.268 . S
O235 Sc221 2.114 . S
O235 C229 1.261 1_545 S
O236 Sc220 2.105 . S
O236 C228 1.268 . S
O237 Sc221 2.105 . S
O237 C227 1.268 . S
O238 Sc222 2.105 1_565 S
O238 C229 1.268 . S
O239 Sc220 2.105 . S
O239 C225 1.268 . S
O240 Sc222 2.105 . S
O240 C224 1.268 . S
O241 Sc221 2.105 . S
O241 C226 1.268 . S
Sc242 O245 2.025 . S
Sc242 O252 2.105 . S
Sc242 O255 2.105 . S
Sc242 O258 2.105 . S
Sc242 O261 2.105 . S
Sc243 O245 2.025 . S
Sc243 O253 2.105 . S
Sc243 O257 2.105 . S
Sc243 O259 2.105 . S
Sc243 O263 2.105 . S
Sc244 O245 2.025 . S
Sc244 O254 2.105 . S
Sc244 O256 2.105 . S
Sc244 O260 2.105 . S
Sc244 O262 2.105 . S
O245 Sc242 2.025 . S
O245 Sc243 2.025 . S
O245 Sc244 2.025 . S
C246 O252 1.268 . S
C246 O262 1.268 . S
C247 O253 1.268 . S
C247 O261 1.268 . S
C248 O254 1.268 . S
C248 O263 1.268 . S
C249 O255 1.268 . S
C249 O259 1.268 . S
C250 O256 1.268 . S
C250 O258 1.268 . S
C251 O257 1.268 . S
C251 O260 1.268 . S
O252 Sc242 2.105 . S
O252 C246 1.268 . S
O253 Sc243 2.105 . S
O253 C247 1.268 . S
O254 Sc244 2.105 . S
O254 C248 1.268 . S
O255 Sc242 2.105 . S
O255 C249 1.268 . S
O256 Sc244 2.105 . S
O256 C250 1.268 . S
O257 Sc243 2.105 . S
O257 C251 1.268 . S
O258 Sc242 2.105 . S
O258 C250 1.268 . S
O259 Sc243 2.105 . S
O259 C249 1.268 . S
O260 Sc244 2.105 . S
O260 C251 1.268 . S
O261 Sc242 2.105 . S
O261 C247 1.268 . S
O262 Sc244 2.105 . S
O262 C246 1.268 . S
O263 Sc243 2.105 . S
O263 C248 1.268 . S
Sc264 O267 2.025 . S
Sc264 O274 2.105 . S
Sc264 O277 2.105 . S
Sc264 O280 2.105 . S
Sc264 O283 2.105 . S
Sc265 O267 2.025 . S
Sc265 O275 2.105 . S
Sc265 O279 2.105 . S
Sc265 O281 2.105 . S
Sc265 O285 2.105 . S
Sc266 O267 2.025 . S
Sc266 O276 2.105 . S
Sc266 O278 2.105 . S
Sc266 O282 2.105 . S
Sc266 O284 2.105 . S
O267 Sc264 2.025 . S
O267 Sc265 2.025 . S
O267 Sc266 2.025 . S
C268 O274 1.268 . S
C268 O284 1.268 . S
C269 O275 1.268 . S
C269 O283 1.268 . S
C270 O276 1.268 . S
C270 O285 1.268 . S
C271 O277 1.268 . S
C271 O281 1.268 . S
C272 O278 1.268 . S
C272 O280 1.268 . S
C273 O279 1.268 . S
C273 O282 1.268 . S
O274 Sc264 2.105 . S
O274 C268 1.268 . S
O275 Sc265 2.105 . S
O275 C269 1.268 . S
O276 Sc266 2.105 . S
O276 C270 1.268 . S
O277 Sc264 2.105 . S
O277 C271 1.268 . S
O278 Sc266 2.105 . S
O278 C272 1.268 . S
O279 Sc265 2.105 . S
O279 C273 1.268 . S
O280 Sc264 2.105 . S
O280 C272 1.268 . S
O281 Sc265 2.105 . S
O281 C271 1.268 . S
O282 Sc266 2.105 . S
O282 C273 1.268 . S
O283 Sc264 2.105 . S
O283 C269 1.268 . S
O284 Sc266 2.105 . S
O284 C268 1.268 . S
O285 Sc265 2.105 . S
O285 C270 1.268 . S
Sc286 O289 2.025 . S
Sc286 O296 2.105 . S
Sc286 O299 2.105 . S
Sc286 O302 2.105 . S
Sc286 O305 2.105 . S
Sc287 O289 2.025 . S
Sc287 O297 2.105 . S
Sc287 O301 2.114 . S
Sc287 O303 2.105 . S
Sc287 O307 2.105 . S
Sc288 O289 2.025 . S
Sc288 O298 2.105 . S
Sc288 O300 2.105 . S
Sc288 O304 2.105 1_655 S
Sc288 O306 2.105 . S
O289 Sc286 2.025 . S
O289 Sc287 2.025 . S
O289 Sc288 2.025 . S
C290 O296 1.268 . S
C290 O306 1.268 . S
C291 O297 1.268 . S
C291 O305 1.268 . S
C292 O298 1.268 . S
C292 O307 1.268 . S
C293 O299 1.268 . S
C293 O303 1.268 . S
C294 O300 1.268 . S
C294 O302 1.268 . S
C295 O301 1.261 1_455 S
C295 O304 1.268 . S
O296 Sc286 2.105 . S
O296 C290 1.268 . S
O297 Sc287 2.105 . S
O297 C291 1.268 . S
O298 Sc288 2.105 . S
O298 C292 1.268 . S
O299 Sc286 2.105 . S
O299 C293 1.268 . S
O300 Sc288 2.105 . S
O300 C294 1.268 . S
O301 Sc287 2.114 . S
O301 C295 1.261 1_655 S
O302 Sc286 2.105 . S
O302 C294 1.268 . S
O303 Sc287 2.105 . S
O303 C293 1.268 . S
O304 Sc288 2.105 1_455 S
O304 C295 1.268 . S
O305 Sc286 2.105 . S
O305 C291 1.268 . S
O306 Sc288 2.105 . S
O306 C290 1.268 . S
O307 Sc287 2.105 . S
O307 C292 1.268 . S
Sc308 O311 2.025 . S
Sc308 O318 2.105 . S
Sc308 O321 2.105 . S
Sc308 O324 2.105 . S
Sc308 O327 2.105 . S
Sc309 O311 2.025 . S
Sc309 O319 2.105 . S
Sc309 O323 2.114 . S
Sc309 O325 2.105 . S
Sc309 O329 2.105 . S
Sc310 O311 2.025 . S
Sc310 O320 2.105 . S
Sc310 O322 2.105 . S
Sc310 O326 2.105 1_565 S
Sc310 O328 2.105 . S
O311 Sc308 2.025 . S
O311 Sc309 2.025 . S
O311 Sc310 2.025 . S
C312 O318 1.268 . S
C312 O328 1.268 . S
C313 O319 1.268 . S
C313 O327 1.268 . S
C314 O320 1.268 . S
C314 O329 1.268 . S
C315 O321 1.268 . S
C315 O325 1.268 . S
C316 O322 1.268 . S
C316 O324 1.268 . S
C317 O323 1.261 1_545 S
C317 O326 1.268 . S
O318 Sc308 2.105 . S
O318 C312 1.268 . S
O319 Sc309 2.105 . S
O319 C313 1.268 . S
O320 Sc310 2.105 . S
O320 C314 1.268 . S
O321 Sc308 2.105 . S
O321 C315 1.268 . S
O322 Sc310 2.105 . S
O322 C316 1.268 . S
O323 Sc309 2.114 . S
O323 C317 1.261 1_565 S
O324 Sc308 2.105 . S
O324 C316 1.268 . S
O325 Sc309 2.105 . S
O325 C315 1.268 . S
O326 Sc310 2.105 1_545 S
O326 C317 1.268 . S
O327 Sc308 2.105 . S
O327 C313 1.268 . S
O328 Sc310 2.105 . S
O328 C312 1.268 . S
O329 Sc309 2.105 . S
O329 C314 1.268 . S
Sc330 O333 2.025 . S
Sc330 O340 2.105 . S
Sc330 O343 2.105 . S
Sc330 O346 2.105 . S
Sc330 O349 2.105 . S
Sc331 O333 2.025 . S
Sc331 O341 2.105 . S
Sc331 O345 2.105 . S
Sc331 O347 2.105 . S
Sc331 O351 2.105 . S
Sc332 O333 2.025 . S
Sc332 O342 2.105 . S
Sc332 O344 2.105 . S
Sc332 O348 2.105 . S
Sc332 O350 2.105 . S
O333 Sc330 2.025 . S
O333 Sc331 2.025 . S
O333 Sc332 2.025 . S
C334 O340 1.268 . S
C334 O350 1.268 . S
C335 O341 1.268 . S
C335 O349 1.268 . S
C336 O342 1.268 . S
C336 O351 1.268 . S
C337 O343 1.268 . S
C337 O347 1.268 . S
C338 O344 1.268 . S
C338 O346 1.268 . S
C339 O345 1.268 . S
C339 O348 1.268 . S
O340 Sc330 2.105 . S
O340 C334 1.268 . S
O341 Sc331 2.105 . S
O341 C335 1.268 . S
O342 Sc332 2.105 . S
O342 C336 1.268 . S
O343 Sc330 2.105 . S
O343 C337 1.268 . S
O344 Sc332 2.105 . S
O344 C338 1.268 . S
O345 Sc331 2.105 . S
O345 C339 1.268 . S
O346 Sc330 2.105 . S
O346 C338 1.268 . S
O347 Sc331 2.105 . S
O347 C337 1.268 . S
O348 Sc332 2.105 . S
O348 C339 1.268 . S
O349 Sc330 2.105 . S
O349 C335 1.268 . S
O350 Sc332 2.105 . S
O350 C334 1.268 . S
O351 Sc331 2.105 . S
O351 C336 1.268 . S
H352 C360 0.929 . S
H353 C362 0.930 . S
H354 C364 0.930 . S
H355 C367 0.929 . S
H356 C370 0.930 . S
H357 C372 0.960 . S
H358 C372 0.960 . S
H359 C372 0.960 . S
C360 H352 0.929 . S
C360 C361 1.377 . S
C360 C362 1.384 . S
C361 C360 1.377 . S
C361 C367 1.390 . S
C362 H353 0.930 . S
C362 C360 1.384 . S
C362 C363 1.372 . S
C363 C362 1.372 . S
C363 C364 1.400 . S
C363 C368 1.490 . S
C364 H354 0.930 . S
C364 C363 1.400 . S
C364 C367 1.386 . S
H365 C381 0.930 . S
H366 C382 0.931 . S
C367 H355 0.929 . S
C367 C361 1.390 . S
C367 C364 1.386 . S
C368 C363 1.490 . S
C368 C370 1.395 . S
C368 C371 1.403 . S
H369 C375 0.930 . S
C370 H356 0.930 . S
C370 C368 1.395 . S
C370 C373 1.403 . S
C371 C368 1.403 . S
C371 C372 1.524 . S
C371 C375 1.400 . S
C372 H357 0.960 . S
C372 H358 0.960 . S
C372 H359 0.960 . S
C372 C371 1.524 . S
C373 C370 1.403 . S
C373 C374 1.392 . S
C373 C377 1.495 . S
C374 C373 1.392 . S
C374 C375 1.385 . S
C374 C376 1.478 . S
C375 H369 0.930 . S
C375 C371 1.400 . S
C375 C374 1.385 . S
C376 C374 1.478 . S
C376 C378 1.381 . S
C376 C382 1.383 . S
C377 C373 1.495 . S
C377 H383 0.959 . S
C377 H384 0.961 . S
C377 H385 0.960 . S
C378 C376 1.381 . S
C378 C379 1.394 . S
C378 H386 0.930 . S
C379 C378 1.394 . S
C379 C380 1.383 . S
C379 H387 0.929 . S
C380 C379 1.383 . S
C380 C381 1.377 . S
C381 H365 0.930 . S
C381 C380 1.377 . S
C381 C382 1.379 . S
C382 H366 0.931 . S
C382 C376 1.383 . S
C382 C381 1.379 . S
H383 C377 0.959 . S
H384 C377 0.961 . S
H385 C377 0.960 . S
H386 C378 0.930 . S
H387 C379 0.929 . S
H388 C396 0.929 . S
H389 C398 0.930 . S
H390 C400 0.930 . S
H391 C403 0.929 . S
H392 C406 0.930 . S
H393 C408 0.960 . S
H394 C408 0.960 . S
H395 C408 0.960 . S
C396 H388 0.929 . S
C396 C397 1.377 . S
C396 C398 1.384 . S
C397 C396 1.377 . S
C397 C403 1.390 . S
C398 H389 0.930 . S
C398 C396 1.384 . S
C398 C399 1.372 . S
C399 C398 1.372 . S
C399 C400 1.400 . S
C399 C404 1.490 . S
C400 H390 0.930 . S
C400 C399 1.400 . S
C400 C403 1.386 . S
H401 C417 0.930 . S
H402 C418 0.931 . S
C403 H391 0.929 . S
C403 C397 1.390 . S
C403 C400 1.386 . S
C404 C399 1.490 . S
C404 C406 1.395 1_554 S
C404 C407 1.403 . S
H405 C411 0.930 . S
C406 H392 0.930 . S
C406 C404 1.395 1_556 S
C406 C409 1.403 . S
C407 C404 1.403 . S
C407 C408 1.524 . S
C407 C411 1.400 . S
C408 H393 0.960 . S
C408 H394 0.960 . S
C408 H395 0.960 . S
C408 C407 1.524 . S
C409 C406 1.403 . S
C409 C410 1.392 . S
C409 C413 1.495 . S
C410 C409 1.392 . S
C410 C411 1.385 1_556 S
C410 C412 1.478 . S
C411 H405 0.930 . S
C411 C407 1.400 . S
C411 C410 1.385 1_554 S
C412 C410 1.478 . S
C412 C414 1.381 . S
C412 C418 1.383 . S
C413 C409 1.495 . S
C413 H419 0.959 . S
C413 H420 0.961 . S
C413 H421 0.960 . S
C414 C412 1.381 . S
C414 C415 1.394 . S
C414 H422 0.930 . S
C415 C414 1.394 . S
C415 C416 1.383 . S
C415 H423 0.929 . S
C416 C415 1.383 . S
C416 C417 1.377 . S
C417 H401 0.930 . S
C417 C416 1.377 . S
C417 C418 1.379 . S
C418 H402 0.931 . S
C418 C412 1.383 . S
C418 C417 1.379 . S
H419 C413 0.959 . S
H420 C413 0.961 . S
H421 C413 0.960 . S
H422 C414 0.930 . S
H423 C415 0.929 . S
H424 C432 0.929 . S
H425 C434 0.930 . S
H426 C436 0.930 . S
H427 C439 0.929 . S
H428 C442 0.930 . S
H429 C444 0.960 . S
H430 C444 0.960 . S
H431 C444 0.960 . S
C432 H424 0.929 . S
C432 C433 1.377 . S
C432 C434 1.384 . S
C433 C432 1.377 . S
C433 C439 1.390 . S
C434 H425 0.930 . S
C434 C432 1.384 . S
C434 C435 1.372 . S
C435 C434 1.372 . S
C435 C436 1.400 . S
C435 C440 1.490 . S
C436 H426 0.930 . S
C436 C435 1.400 . S
C436 C439 1.386 . S
H437 C453 0.930 . S
H438 C454 0.931 . S
C439 H427 0.929 . S
C439 C433 1.390 . S
C439 C436 1.386 . S
C440 C435 1.490 . S
C440 C442 1.395 . S
C440 C443 1.403 . S
H441 C447 0.930 . S
C442 H428 0.930 . S
C442 C440 1.395 . S
C442 C445 1.403 . S
C443 C440 1.403 . S
C443 C444 1.524 . S
C443 C447 1.400 . S
C444 H429 0.960 . S
C444 H430 0.960 . S
C444 H431 0.960 . S
C444 C443 1.524 . S
C445 C442 1.403 . S
C445 C446 1.392 . S
C445 C449 1.495 . S
C446 C445 1.392 . S
C446 C447 1.385 . S
C446 C448 1.478 . S
C447 H441 0.930 . S
C447 C443 1.400 . S
C447 C446 1.385 . S
C448 C446 1.478 . S
C448 C450 1.381 . S
C448 C454 1.383 . S
C449 C445 1.495 . S
C449 H455 0.959 . S
C449 H456 0.961 . S
C449 H457 0.960 . S
C450 C448 1.381 . S
C450 C451 1.394 . S
C450 H458 0.930 . S
C451 C450 1.394 . S
C451 C452 1.383 . S
C451 H459 0.929 . S
C452 C451 1.383 . S
C452 C453 1.377 . S
C453 H437 0.930 . S
C453 C452 1.377 . S
C453 C454 1.379 . S
C454 H438 0.931 . S
C454 C448 1.383 . S
C454 C453 1.379 . S
H455 C449 0.959 . S
H456 C449 0.961 . S
H457 C449 0.960 . S
H458 C450 0.930 . S
H459 C451 0.929 . S
H460 C468 0.929 . S
H461 C470 0.930 . S
H462 C472 0.930 . S
H463 C475 0.929 . S
H464 C478 0.930 . S
H465 C480 0.960 . S
H466 C480 0.960 . S
H467 C480 0.960 . S
C468 H460 0.929 . S
C468 C469 1.377 . S
C468 C470 1.384 . S
C469 C468 1.377 . S
C469 C475 1.390 . S
C470 H461 0.930 . S
C470 C468 1.384 . S
C470 C471 1.372 . S
C471 C470 1.372 . S
C471 C472 1.400 . S
C471 C476 1.490 . S
C472 H462 0.930 . S
C472 C471 1.400 . S
C472 C475 1.386 . S
H473 C489 0.930 . S
H474 C490 0.931 . S
C475 H463 0.929 . S
C475 C469 1.390 . S
C475 C472 1.386 . S
C476 C471 1.490 . S
C476 C478 1.395 1_556 S
C476 C479 1.403 . S
H477 C483 0.934 . S
C478 H464 0.930 . S
C478 C476 1.395 1_554 S
C478 C481 1.403 . S
C479 C476 1.403 . S
C479 C480 1.524 . S
C479 C483 1.419 . S
C480 H465 0.960 . S
C480 H466 0.960 . S
C480 H467 0.960 . S
C480 C479 1.524 . S
C481 C478 1.403 . S
C481 C482 1.392 . S
C481 C485 1.495 . S
C482 C481 1.392 . S
C482 C483 1.363 1_554 S
C482 C484 1.478 . S
C483 H477 0.934 . S
C483 C479 1.419 . S
C483 C482 1.363 1_556 S
C484 C482 1.478 . S
C484 C486 1.381 . S
C484 C490 1.383 . S
C485 C481 1.495 . S
C485 H491 0.959 . S
C485 H492 0.961 . S
C485 H493 0.960 . S
C486 C484 1.381 . S
C486 C487 1.394 . S
C486 H494 0.930 . S
C487 C486 1.394 . S
C487 C488 1.383 . S
C487 H495 0.929 . S
C488 C487 1.383 . S
C488 C489 1.377 . S
C489 H473 0.930 . S
C489 C488 1.377 . S
C489 C490 1.379 . S
C490 H474 0.931 . S
C490 C484 1.383 . S
C490 C489 1.379 . S
H491 C485 0.959 . S
H492 C485 0.961 . S
H493 C485 0.960 . S
H494 C486 0.930 . S
H495 C487 0.929 . S
H496 C504 0.929 . S
H497 C506 0.930 . S
H498 C508 0.930 . S
H499 C511 0.929 . S
H500 C514 0.930 . S
H501 C516 0.960 . S
H502 C516 0.960 . S
H503 C516 0.960 . S
C504 H496 0.929 . S
C504 C505 1.377 . S
C504 C506 1.384 . S
C505 C504 1.377 . S
C505 C511 1.390 . S
C506 H497 0.930 . S
C506 C504 1.384 . S
C506 C507 1.372 . S
C507 C506 1.372 . S
C507 C508 1.400 . S
C507 C512 1.490 . S
C508 H498 0.930 . S
C508 C507 1.400 . S
C508 C511 1.386 . S
H509 C525 0.930 . S
H510 C526 0.931 . S
C511 H499 0.929 . S
C511 C505 1.390 . S
C511 C508 1.386 . S
C512 C507 1.490 . S
C512 C514 1.395 . S
C512 C515 1.403 . S
H513 C519 0.930 . S
C514 H500 0.930 . S
C514 C512 1.395 . S
C514 C517 1.403 . S
C515 C512 1.403 . S
C515 C516 1.524 . S
C515 C519 1.400 . S
C516 H501 0.960 . S
C516 H502 0.960 . S
C516 H503 0.960 . S
C516 C515 1.524 . S
C517 C514 1.403 . S
C517 C518 1.392 . S
C517 C521 1.495 . S
C518 C517 1.392 . S
C518 C519 1.385 . S
C518 C520 1.478 . S
C519 H513 0.930 . S
C519 C515 1.400 . S
C519 C518 1.385 . S
C520 C518 1.478 . S
C520 C522 1.381 . S
C520 C526 1.383 . S
C521 C517 1.495 . S
C521 H527 0.959 . S
C521 H528 0.961 . S
C521 H529 0.960 . S
C522 C520 1.381 . S
C522 C523 1.394 . S
C522 H530 0.930 . S
C523 C522 1.394 . S
C523 C524 1.383 . S
C523 H531 0.929 . S
C524 C523 1.383 . S
C524 C525 1.377 . S
C525 H509 0.930 . S
C525 C524 1.377 . S
C525 C526 1.379 . S
C526 H510 0.931 . S
C526 C520 1.383 . S
C526 C525 1.379 . S
H527 C521 0.959 . S
H528 C521 0.961 . S
H529 C521 0.960 . S
H530 C522 0.930 . S
H531 C523 0.929 . S
H532 C540 0.929 . S
H533 C542 0.930 . S
H534 C544 0.930 . S
H535 C547 0.929 . S
H536 C550 0.930 . S
H537 C552 0.960 . S
H538 C552 0.960 . S
H539 C552 0.960 . S
C540 H532 0.929 . S
C540 C541 1.377 . S
C540 C542 1.384 . S
C541 C540 1.377 . S
C541 C547 1.390 . S
C542 H533 0.930 . S
C542 C540 1.384 . S
C542 C543 1.372 . S
C543 C542 1.372 . S
C543 C544 1.400 . S
C543 C548 1.490 . S
C544 H534 0.930 . S
C544 C543 1.400 . S
C544 C547 1.386 . S
H545 C561 0.930 . S
H546 C562 0.931 . S
C547 H535 0.929 . S
C547 C541 1.390 . S
C547 C544 1.386 . S
C548 C543 1.490 . S
C548 C550 1.395 1_556 S
C548 C551 1.403 . S
H549 C555 0.930 . S
C550 H536 0.930 . S
C550 C548 1.395 1_554 S
C550 C553 1.403 . S
C551 C548 1.403 . S
C551 C552 1.524 . S
C551 C555 1.400 . S
C552 H537 0.960 . S
C552 H538 0.960 . S
C552 H539 0.960 . S
C552 C551 1.524 . S
C553 C550 1.403 . S
C553 C554 1.392 . S
C553 C557 1.495 . S
C554 C553 1.392 . S
C554 C555 1.385 1_554 S
C554 C556 1.478 . S
C555 H549 0.930 . S
C555 C551 1.400 . S
C555 C554 1.385 1_556 S
C556 C554 1.478 . S
C556 C558 1.381 . S
C556 C562 1.383 . S
C557 C553 1.495 . S
C557 H563 0.959 . S
C557 H564 0.961 . S
C557 H565 0.960 . S
C558 C556 1.381 . S
C558 C559 1.394 . S
C558 H566 0.930 . S
C559 C558 1.394 . S
C559 C560 1.383 . S
C559 H567 0.929 . S
C560 C559 1.383 . S
C560 C561 1.377 . S
C561 H545 0.930 . S
C561 C560 1.377 . S
C561 C562 1.379 . S
C562 H546 0.931 . S
C562 C556 1.383 . S
C562 C561 1.379 . S
H563 C557 0.959 . S
H564 C557 0.961 . S
H565 C557 0.960 . S
H566 C558 0.930 . S
H567 C559 0.929 . S
H568 C576 0.929 . S
H569 C578 0.930 . S
H570 C580 0.930 . S
H571 C583 0.929 . S
H572 C586 0.930 . S
H573 C588 0.960 . S
H574 C588 0.960 . S
H575 C588 0.960 . S
C576 H568 0.929 . S
C576 C577 1.377 . S
C576 C578 1.384 . S
C577 C576 1.377 . S
C577 C583 1.390 . S
C578 H569 0.930 . S
C578 C576 1.384 . S
C578 C579 1.372 . S
C579 C578 1.372 . S
C579 C580 1.400 . S
C579 C584 1.490 . S
C580 H570 0.930 . S
C580 C579 1.400 . S
C580 C583 1.386 . S
H581 C597 0.930 . S
H582 C598 0.931 . S
C583 H571 0.929 . S
C583 C577 1.390 . S
C583 C580 1.386 . S
C584 C579 1.490 . S
C584 C586 1.395 . S
C584 C587 1.403 . S
H585 C591 0.930 . S
C586 H572 0.930 . S
C586 C584 1.395 . S
C586 C589 1.403 . S
C587 C584 1.403 . S
C587 C588 1.524 . S
C587 C591 1.400 . S
C588 H573 0.960 . S
C588 H574 0.960 . S
C588 H575 0.960 . S
C588 C587 1.524 . S
C589 C586 1.403 . S
C589 C590 1.392 . S
C589 C593 1.495 . S
C590 C589 1.392 . S
C590 C591 1.385 . S
C590 C592 1.478 . S
C591 H585 0.930 . S
C591 C587 1.400 . S
C591 C590 1.385 . S
C592 C590 1.478 . S
C592 C594 1.381 . S
C592 C598 1.383 . S
C593 C589 1.495 . S
C593 H599 0.959 . S
C593 H600 0.961 . S
C593 H601 0.960 . S
C594 C592 1.381 . S
C594 C595 1.394 . S
C594 H602 0.930 . S
C595 C594 1.394 . S
C595 C596 1.383 . S
C595 H603 0.929 . S
C596 C595 1.383 . S
C596 C597 1.377 . S
C597 H581 0.930 . S
C597 C596 1.377 . S
C597 C598 1.379 . S
C598 H582 0.931 . S
C598 C592 1.383 . S
C598 C597 1.379 . S
H599 C593 0.959 . S
H600 C593 0.961 . S
H601 C593 0.960 . S
H602 C594 0.930 . S
H603 C595 0.929 . S
H604 C612 0.929 . S
H605 C614 0.930 . S
H606 C616 0.930 . S
H607 C619 0.929 . S
H608 C622 0.930 . S
H609 C624 0.960 . S
H610 C624 0.960 . S
H611 C624 0.960 . S
C612 H604 0.929 . S
C612 C613 1.377 . S
C612 C614 1.384 . S
C613 C612 1.377 . S
C613 C619 1.390 . S
C614 H605 0.930 . S
C614 C612 1.384 . S
C614 C615 1.372 . S
C615 C614 1.372 . S
C615 C616 1.400 . S
C615 C620 1.490 . S
C616 H606 0.930 . S
C616 C615 1.400 . S
C616 C619 1.386 . S
H617 C633 0.930 . S
H618 C634 0.931 . S
C619 H607 0.929 . S
C619 C613 1.390 . S
C619 C616 1.386 . S
C620 C615 1.490 . S
C620 C622 1.395 1_556 S
C620 C623 1.403 . S
H621 C627 0.930 . S
C622 H608 0.930 . S
C622 C620 1.395 1_554 S
C622 C625 1.403 . S
C623 C620 1.403 . S
C623 C624 1.524 . S
C623 C627 1.400 . S
C624 H609 0.960 . S
C624 H610 0.960 . S
C624 H611 0.960 . S
C624 C623 1.524 . S
C625 C622 1.403 . S
C625 C626 1.392 . S
C625 C629 1.495 . S
C626 C625 1.392 . S
C626 C627 1.385 1_554 S
C626 C628 1.478 . S
C627 H621 0.930 . S
C627 C623 1.400 . S
C627 C626 1.385 1_556 S
C628 C626 1.478 . S
C628 C630 1.381 . S
C628 C634 1.383 . S
C629 C625 1.495 . S
C629 H635 0.959 . S
C629 H636 0.961 . S
C629 H637 0.960 . S
C630 C628 1.381 . S
C630 C631 1.394 . S
C630 H638 0.930 . S
C631 C630 1.394 . S
C631 C632 1.383 . S
C631 H639 0.929 . S
C632 C631 1.383 . S
C632 C633 1.377 . S
C633 H617 0.930 . S
C633 C632 1.377 . S
C633 C634 1.379 . S
C634 H618 0.931 . S
C634 C628 1.383 . S
C634 C633 1.379 . S
H635 C629 0.959 . S
H636 C629 0.961 . S
H637 C629 0.960 . S
H638 C630 0.930 . S
H639 C631 0.929 . S
H640 C648 0.929 . S
H641 C650 0.930 . S
H642 C652 0.930 . S
H643 C655 0.929 . S
H644 C658 0.930 . S
H645 C660 0.960 . S
H646 C660 0.960 . S
H647 C660 0.960 . S
C648 H640 0.929 . S
C648 C649 1.377 . S
C648 C650 1.384 . S
C649 C648 1.377 . S
C649 C655 1.390 . S
C650 H641 0.930 . S
C650 C648 1.384 . S
C650 C651 1.372 . S
C651 C650 1.372 . S
C651 C652 1.400 . S
C651 C656 1.490 . S
C652 H642 0.930 . S
C652 C651 1.400 . S
C652 C655 1.386 . S
H653 C669 0.930 . S
H654 C670 0.931 . S
C655 H643 0.929 . S
C655 C649 1.390 . S
C655 C652 1.386 . S
C656 C651 1.490 . S
C656 C658 1.395 . S
C656 C659 1.403 . S
H657 C663 0.930 . S
C658 H644 0.930 . S
C658 C656 1.395 . S
C658 C661 1.403 . S
C659 C656 1.403 . S
C659 C660 1.524 . S
C659 C663 1.400 . S
C660 H645 0.960 . S
C660 H646 0.960 . S
C660 H647 0.960 . S
C660 C659 1.524 . S
C661 C658 1.403 . S
C661 C662 1.392 . S
C661 C665 1.495 . S
C662 C661 1.392 . S
C662 C663 1.385 . S
C662 C664 1.478 . S
C663 H657 0.930 . S
C663 C659 1.400 . S
C663 C662 1.385 . S
C664 C662 1.478 . S
C664 C666 1.381 . S
C664 C670 1.383 . S
C665 C661 1.495 . S
C665 H671 0.959 . S
C665 H672 0.961 . S
C665 H673 0.960 . S
C666 C664 1.381 . S
C666 C667 1.394 . S
C666 H674 0.930 . S
C667 C666 1.394 . S
C667 C668 1.383 . S
C667 H675 0.929 . S
C668 C667 1.383 . S
C668 C669 1.377 . S
C669 H653 0.930 . S
C669 C668 1.377 . S
C669 C670 1.379 . S
C670 H654 0.931 . S
C670 C664 1.383 . S
C670 C669 1.379 . S
H671 C665 0.959 . S
H672 C665 0.961 . S
H673 C665 0.960 . S
H674 C666 0.930 . S
H675 C667 0.929 . S
H676 C684 0.929 . S
H677 C686 0.930 . S
H678 C688 0.930 . S
H679 C691 0.929 . S
H680 C694 0.930 . S
H681 C696 0.960 . S
H682 C696 0.960 . S
H683 C696 0.960 . S
C684 H676 0.929 . S
C684 C685 1.377 . S
C684 C686 1.384 . S
C685 C684 1.377 . S
C685 C691 1.390 . S
C686 H677 0.930 . S
C686 C684 1.384 . S
C686 C687 1.372 . S
C687 C686 1.372 . S
C687 C688 1.400 . S
C687 C692 1.490 . S
C688 H678 0.930 . S
C688 C687 1.400 . S
C688 C691 1.386 . S
H689 C705 0.930 . S
H690 C706 0.931 . S
C691 H679 0.929 . S
C691 C685 1.390 . S
C691 C688 1.386 . S
C692 C687 1.490 . S
C692 C694 1.395 . S
C692 C695 1.403 . S
H693 C699 0.930 . S
C694 H680 0.930 . S
C694 C692 1.395 . S
C694 C697 1.403 . S
C695 C692 1.403 . S
C695 C696 1.524 . S
C695 C699 1.400 . S
C696 H681 0.960 . S
C696 H682 0.960 . S
C696 H683 0.960 . S
C696 C695 1.524 . S
C697 C694 1.403 . S
C697 C698 1.392 . S
C697 C701 1.495 . S
C698 C697 1.392 . S
C698 C699 1.385 . S
C698 C700 1.478 . S
C699 H693 0.930 . S
C699 C695 1.400 . S
C699 C698 1.385 . S
C700 C698 1.478 . S
C700 C702 1.381 . S
C700 C706 1.383 . S
C701 C697 1.495 . S
C701 H707 0.959 . S
C701 H708 0.961 . S
C701 H709 0.960 . S
C702 C700 1.381 . S
C702 C703 1.394 . S
C702 H710 0.930 . S
C703 C702 1.394 . S
C703 C704 1.383 . S
C703 H711 0.929 . S
C704 C703 1.383 . S
C704 C705 1.377 . S
C705 H689 0.930 . S
C705 C704 1.377 . S
C705 C706 1.379 . S
C706 H690 0.931 . S
C706 C700 1.383 . S
C706 C705 1.379 . S
H707 C701 0.959 . S
H708 C701 0.961 . S
H709 C701 0.960 . S
H710 C702 0.930 . S
H711 C703 0.929 . S
H712 C720 0.929 . S
H713 C722 0.930 . S
H714 C724 0.930 . S
H715 C727 0.929 . S
H716 C730 0.930 . S
H717 C732 0.960 . S
H718 C732 0.960 . S
H719 C732 0.960 . S
C720 H712 0.929 . S
C720 C721 1.377 . S
C720 C722 1.384 . S
C721 C720 1.377 . S
C721 C727 1.390 . S
C722 H713 0.930 . S
C722 C720 1.384 . S
C722 C723 1.372 . S
C723 C722 1.372 . S
C723 C724 1.400 . S
C723 C728 1.490 . S
C724 H714 0.930 . S
C724 C723 1.400 . S
C724 C727 1.386 . S
H725 C741 0.930 . S
H726 C742 0.931 . S
C727 H715 0.929 . S
C727 C721 1.390 . S
C727 C724 1.386 . S
C728 C723 1.490 . S
C728 C730 1.395 . S
C728 C731 1.403 . S
H729 C735 0.930 . S
C730 H716 0.930 . S
C730 C728 1.395 . S
C730 C733 1.403 . S
C731 C728 1.403 . S
C731 C732 1.524 . S
C731 C735 1.400 . S
C732 H717 0.960 . S
C732 H718 0.960 . S
C732 H719 0.960 . S
C732 C731 1.524 . S
C733 C730 1.403 . S
C733 C734 1.392 . S
C733 C737 1.495 . S
C734 C733 1.392 . S
C734 C735 1.385 . S
C734 C736 1.478 . S
C735 H729 0.930 . S
C735 C731 1.400 . S
C735 C734 1.385 . S
C736 C734 1.478 . S
C736 C738 1.381 . S
C736 C742 1.383 . S
C737 C733 1.495 . S
C737 H743 0.959 . S
C737 H744 0.961 . S
C737 H745 0.960 . S
C738 C736 1.381 . S
C738 C739 1.394 . S
C738 H746 0.930 . S
C739 C738 1.394 . S
C739 C740 1.383 . S
C739 H747 0.929 . S
C740 C739 1.383 . S
C740 C741 1.377 . S
C741 H725 0.930 . S
C741 C740 1.377 . S
C741 C742 1.379 . S
C742 H726 0.931 . S
C742 C736 1.383 . S
C742 C741 1.379 . S
H743 C737 0.959 . S
H744 C737 0.961 . S
H745 C737 0.960 . S
H746 C738 0.930 . S
H747 C739 0.929 . S
H748 C756 0.929 . S
H749 C758 0.930 . S
H750 C760 0.930 . S
H751 C763 0.929 . S
H752 C766 0.930 . S
H753 C768 0.960 . S
H754 C768 0.960 . S
H755 C768 0.960 . S
C756 H748 0.929 . S
C756 C757 1.377 . S
C756 C758 1.384 . S
C757 C756 1.377 . S
C757 C763 1.390 . S
C758 H749 0.930 . S
C758 C756 1.384 . S
C758 C759 1.372 . S
C759 C758 1.372 . S
C759 C760 1.400 . S
C759 C764 1.490 . S
C760 H750 0.930 . S
C760 C759 1.400 . S
C760 C763 1.386 . S
H761 C777 0.930 . S
H762 C778 0.931 . S
C763 H751 0.929 . S
C763 C757 1.390 . S
C763 C760 1.386 . S
C764 C759 1.490 . S
C764 C766 1.395 . S
C764 C767 1.403 . S
H765 C771 0.930 . S
C766 H752 0.930 . S
C766 C764 1.395 . S
C766 C769 1.403 . S
C767 C764 1.403 . S
C767 C768 1.524 . S
C767 C771 1.400 . S
C768 H753 0.960 . S
C768 H754 0.960 . S
C768 H755 0.960 . S
C768 C767 1.524 . S
C769 C766 1.403 . S
C769 C770 1.392 . S
C769 C773 1.495 . S
C770 C769 1.392 . S
C770 C771 1.385 . S
C770 C772 1.478 . S
C771 H765 0.930 . S
C771 C767 1.400 . S
C771 C770 1.385 . S
C772 C770 1.478 . S
C772 C774 1.381 . S
C772 C778 1.383 . S
C773 C769 1.495 . S
C773 H779 0.959 . S
C773 H780 0.961 . S
C773 H781 0.960 . S
C774 C772 1.381 . S
C774 C775 1.394 . S
C774 H782 0.930 . S
C775 C774 1.394 . S
C775 C776 1.383 . S
C775 H783 0.929 . S
C776 C775 1.383 . S
C776 C777 1.377 . S
C777 H761 0.930 . S
C777 C776 1.377 . S
C777 C778 1.379 . S
C778 H762 0.931 . S
C778 C772 1.383 . S
C778 C777 1.379 . S
H779 C773 0.959 . S
H780 C773 0.961 . S
H781 C773 0.960 . S
H782 C774 0.930 . S
H783 C775 0.929 . S
H784 C792 0.929 . S
H785 C794 0.930 . S
H786 C796 0.930 . S
H787 C799 0.929 . S
H788 C802 0.930 . S
H789 C804 0.960 . S
H790 C804 0.960 . S
H791 C804 0.960 . S
C792 H784 0.929 . S
C792 C793 1.377 . S
C792 C794 1.384 . S
C793 C792 1.377 . S
C793 C799 1.390 . S
C794 H785 0.930 . S
C794 C792 1.384 . S
C794 C795 1.372 . S
C795 C794 1.372 . S
C795 C796 1.400 . S
C795 C800 1.490 . S
C796 H786 0.930 . S
C796 C795 1.400 . S
C796 C799 1.386 . S
H797 C813 0.930 . S
H798 C814 0.931 . S
C799 H787 0.929 . S
C799 C793 1.390 . S
C799 C796 1.386 . S
C800 C795 1.490 . S
C800 C802 1.395 . S
C800 C803 1.403 . S
H801 C807 0.930 . S
C802 H788 0.930 . S
C802 C800 1.395 . S
C802 C805 1.403 . S
C803 C800 1.403 . S
C803 C804 1.524 . S
C803 C807 1.400 . S
C804 H789 0.960 . S
C804 H790 0.960 . S
C804 H791 0.960 . S
C804 C803 1.524 . S
C805 C802 1.403 . S
C805 C806 1.392 . S
C805 C809 1.495 . S
C806 C805 1.392 . S
C806 C807 1.385 . S
C806 C808 1.478 . S
C807 H801 0.930 . S
C807 C803 1.400 . S
C807 C806 1.385 . S
C808 C806 1.478 . S
C808 C810 1.381 . S
C808 C814 1.383 . S
C809 C805 1.495 . S
C809 H815 0.959 . S
C809 H816 0.961 . S
C809 H817 0.960 . S
C810 C808 1.381 . S
C810 C811 1.394 . S
C810 H818 0.930 . S
C811 C810 1.394 . S
C811 C812 1.383 . S
C811 H819 0.929 . S
C812 C811 1.383 . S
C812 C813 1.377 . S
C813 H797 0.930 . S
C813 C812 1.377 . S
C813 C814 1.379 . S
C814 H798 0.931 . S
C814 C808 1.383 . S
C814 C813 1.379 . S
H815 C809 0.959 . S
H816 C809 0.961 . S
H817 C809 0.960 . S
H818 C810 0.930 . S
H819 C811 0.929 . S
H820 C828 0.929 . S
H821 C830 0.930 . S
H822 C832 0.930 . S
H823 C835 0.929 . S
H824 C838 0.930 . S
H825 C840 0.960 . S
H826 C840 0.960 . S
H827 C840 0.960 . S
C828 H820 0.929 . S
C828 C829 1.377 . S
C828 C830 1.384 . S
C829 C828 1.377 . S
C829 C835 1.390 . S
C830 H821 0.930 . S
C830 C828 1.384 . S
C830 C831 1.372 . S
C831 C830 1.372 . S
C831 C832 1.400 . S
C831 C836 1.490 . S
C832 H822 0.930 . S
C832 C831 1.400 . S
C832 C835 1.386 . S
H833 C849 0.930 . S
H834 C850 0.931 . S
C835 H823 0.929 . S
C835 C829 1.390 . S
C835 C832 1.386 . S
C836 C831 1.490 . S
C836 C838 1.395 . S
C836 C839 1.403 . S
H837 C843 0.930 . S
C838 H824 0.930 . S
C838 C836 1.395 . S
C838 C841 1.403 . S
C839 C836 1.403 . S
C839 C840 1.524 . S
C839 C843 1.400 . S
C840 H825 0.960 . S
C840 H826 0.960 . S
C840 H827 0.960 . S
C840 C839 1.524 . S
C841 C838 1.403 . S
C841 C842 1.392 . S
C841 C845 1.495 . S
C842 C841 1.392 . S
C842 C843 1.385 . S
C842 C844 1.478 . S
C843 H837 0.930 . S
C843 C839 1.400 . S
C843 C842 1.385 . S
C844 C842 1.478 . S
C844 C846 1.381 . S
C844 C850 1.383 . S
C845 C841 1.495 . S
C845 H851 0.959 . S
C845 H852 0.961 . S
C845 H853 0.960 . S
C846 C844 1.381 . S
C846 C847 1.394 . S
C846 H854 0.930 . S
C847 C846 1.394 . S
C847 C848 1.383 . S
C847 H855 0.929 . S
C848 C847 1.383 . S
C848 C849 1.377 . S
C849 H833 0.930 . S
C849 C848 1.377 . S
C849 C850 1.379 . S
C850 H834 0.931 . S
C850 C844 1.383 . S
C850 C849 1.379 . S
H851 C845 0.959 . S
H852 C845 0.961 . S
H853 C845 0.960 . S
H854 C846 0.930 . S
H855 C847 0.929 . S
H856 C864 0.929 . S
H857 C866 0.930 . S
H858 C868 0.930 . S
H859 C871 0.929 . S
H860 C874 0.930 . S
H861 C876 0.960 . S
H862 C876 0.960 . S
H863 C876 0.960 . S
C864 H856 0.929 . S
C864 C865 1.377 . S
C864 C866 1.384 . S
C865 C864 1.377 . S
C865 C871 1.390 . S
C866 H857 0.930 . S
C866 C864 1.384 . S
C866 C867 1.372 . S
C867 C866 1.372 . S
C867 C868 1.400 . S
C867 C872 1.490 . S
C868 H858 0.930 . S
C868 C867 1.400 . S
C868 C871 1.386 . S
H869 C885 0.930 . S
H870 C886 0.931 . S
C871 H859 0.929 . S
C871 C865 1.390 . S
C871 C868 1.386 . S
C872 C867 1.490 . S
C872 C874 1.395 . S
C872 C875 1.403 . S
H873 C879 0.930 . S
C874 H860 0.930 . S
C874 C872 1.395 . S
C874 C877 1.403 . S
C875 C872 1.403 . S
C875 C876 1.524 . S
C875 C879 1.400 . S
C876 H861 0.960 . S
C876 H862 0.960 . S
C876 H863 0.960 . S
C876 C875 1.524 . S
C877 C874 1.403 . S
C877 C878 1.392 . S
C877 C881 1.495 . S
C878 C877 1.392 . S
C878 C879 1.385 . S
C878 C880 1.478 . S
C879 H873 0.930 . S
C879 C875 1.400 . S
C879 C878 1.385 . S
C880 C878 1.478 . S
C880 C882 1.381 . S
C880 C886 1.383 . S
C881 C877 1.495 . S
C881 H887 0.959 . S
C881 H888 0.961 . S
C881 H889 0.960 . S
C882 C880 1.381 . S
C882 C883 1.394 . S
C882 H890 0.930 . S
C883 C882 1.394 . S
C883 C884 1.383 . S
C883 H891 0.929 . S
C884 C883 1.383 . S
C884 C885 1.377 . S
C885 H869 0.930 . S
C885 C884 1.377 . S
C885 C886 1.379 . S
C886 H870 0.931 . S
C886 C880 1.383 . S
C886 C885 1.379 . S
H887 C881 0.959 . S
H888 C881 0.961 . S
H889 C881 0.960 . S
H890 C882 0.930 . S
H891 C883 0.929 . S
H892 C900 0.929 . S
H893 C902 0.930 . S
H894 C904 0.930 . S
H895 C907 0.929 . S
H896 C910 0.930 . S
H897 C912 0.960 . S
H898 C912 0.960 . S
H899 C912 0.960 . S
C900 H892 0.929 . S
C900 C901 1.377 . S
C900 C902 1.384 . S
C901 C900 1.377 . S
C901 C907 1.390 . S
C902 H893 0.930 . S
C902 C900 1.384 . S
C902 C903 1.372 . S
C903 C902 1.372 . S
C903 C904 1.400 . S
C903 C908 1.490 . S
C904 H894 0.930 . S
C904 C903 1.400 . S
C904 C907 1.386 . S
H905 C921 0.930 . S
H906 C922 0.931 . S
C907 H895 0.929 . S
C907 C901 1.390 . S
C907 C904 1.386 . S
C908 C903 1.490 . S
C908 C910 1.395 . S
C908 C911 1.403 . S
H909 C915 0.930 . S
C910 H896 0.930 . S
C910 C908 1.395 . S
C910 C913 1.403 . S
C911 C908 1.403 . S
C911 C912 1.524 . S
C911 C915 1.400 . S
C912 H897 0.960 . S
C912 H898 0.960 . S
C912 H899 0.960 . S
C912 C911 1.524 . S
C913 C910 1.403 . S
C913 C914 1.392 . S
C913 C917 1.495 . S
C914 C913 1.392 . S
C914 C915 1.385 . S
C914 C916 1.478 . S
C915 H909 0.930 . S
C915 C911 1.400 . S
C915 C914 1.385 . S
C916 C914 1.478 . S
C916 C918 1.381 . S
C916 C922 1.383 . S
C917 C913 1.495 . S
C917 H923 0.959 . S
C917 H924 0.961 . S
C917 H925 0.960 . S
C918 C916 1.381 . S
C918 C919 1.394 . S
C918 H926 0.930 . S
C919 C918 1.394 . S
C919 C920 1.383 . S
C919 H927 0.929 . S
C920 C919 1.383 . S
C920 C921 1.377 . S
C921 H905 0.930 . S
C921 C920 1.377 . S
C921 C922 1.379 . S
C922 H906 0.931 . S
C922 C916 1.383 . S
C922 C921 1.379 . S
H923 C917 0.959 . S
H924 C917 0.961 . S
H925 C917 0.960 . S
H926 C918 0.930 . S
H927 C919 0.929 . S
H928 C936 0.929 . S
H929 C938 0.922 1_554 S
H930 C940 0.930 1_554 S
H931 C943 0.929 . S
H932 C946 0.930 . S
H933 C948 0.960 . S
H934 C948 0.960 . S
H935 C948 0.960 . S
C936 H928 0.929 . S
C936 C937 1.377 . S
C936 C938 1.397 . S
C937 C936 1.377 . S
C937 C943 1.390 . S
C938 H929 0.922 1_556 S
C938 C936 1.397 . S
C938 C939 1.366 1_556 S
C939 C938 1.366 1_554 S
C939 C940 1.400 1_554 S
C939 C944 1.490 . S
C940 H930 0.930 1_556 S
C940 C939 1.400 1_556 S
C940 C943 1.386 . S
H941 C957 0.930 . S
H942 C958 0.931 . S
C943 H931 0.929 . S
C943 C937 1.390 . S
C943 C940 1.386 . S
C944 C939 1.490 . S
C944 C946 1.395 . S
C944 C947 1.403 . S
H945 C951 0.930 . S
C946 H932 0.930 . S
C946 C944 1.395 . S
C946 C949 1.403 . S
C947 C944 1.403 . S
C947 C948 1.524 . S
C947 C951 1.400 . S
C948 H933 0.960 . S
C948 H934 0.960 . S
C948 H935 0.960 . S
C948 C947 1.524 . S
C949 C946 1.403 . S
C949 C950 1.392 . S
C949 C953 1.495 . S
C950 C949 1.392 . S
C950 C951 1.385 . S
C950 C952 1.478 . S
C951 H945 0.930 . S
C951 C947 1.400 . S
C951 C950 1.385 . S
C952 C950 1.478 . S
C952 C954 1.381 . S
C952 C958 1.383 . S
C953 C949 1.495 . S
C953 H959 0.959 . S
C953 H960 0.961 . S
C953 H961 0.960 . S
C954 C952 1.381 . S
C954 C955 1.394 . S
C954 H962 0.930 . S
C955 C954 1.394 . S
C955 C956 1.383 . S
C955 H963 0.929 . S
C956 C955 1.383 . S
C956 C957 1.377 . S
C957 H941 0.930 . S
C957 C956 1.377 . S
C957 C958 1.379 . S
C958 H942 0.931 . S
C958 C952 1.383 . S
C958 C957 1.379 . S
H959 C953 0.959 . S
H960 C953 0.961 . S
H961 C953 0.960 . S
H962 C954 0.930 . S
H963 C955 0.929 . S
H964 C972 0.929 . S
H965 C974 0.930 . S
H966 C976 0.930 . S
H967 C979 0.929 . S
H968 C982 0.930 . S
H969 C984 0.960 . S
H970 C984 0.960 . S
H971 C984 0.960 . S
C972 H964 0.929 . S
C972 C973 1.377 . S
C972 C974 1.384 . S
C973 C972 1.377 . S
C973 C979 1.390 . S
C974 H965 0.930 . S
C974 C972 1.384 . S
C974 C975 1.372 . S
C975 C974 1.372 . S
C975 C976 1.400 . S
C975 C980 1.490 . S
C976 H966 0.930 . S
C976 C975 1.400 . S
C976 C979 1.386 . S
H977 C993 0.930 . S
H978 C994 0.931 . S
C979 H967 0.929 . S
C979 C973 1.390 . S
C979 C976 1.386 . S
C980 C975 1.490 . S
C980 C982 1.395 . S
C980 C983 1.403 1_655 S
H981 C987 0.930 1_455 S
C982 H968 0.930 . S
C982 C980 1.395 . S
C982 C985 1.403 . S
C983 C980 1.403 1_455 S
C983 C984 1.524 . S
C983 C987 1.400 1_455 S
C984 H969 0.960 . S
C984 H970 0.960 . S
C984 H971 0.960 . S
C984 C983 1.524 . S
C985 C982 1.403 . S
C985 C986 1.392 . S
C985 C989 1.495 . S
C986 C985 1.392 . S
C986 C987 1.385 . S
C986 C988 1.478 . S
C987 H981 0.930 1_655 S
C987 C983 1.400 1_655 S
C987 C986 1.385 . S
C988 C986 1.478 . S
C988 C990 1.381 . S
C988 C994 1.383 . S
C989 C985 1.495 . S
C989 H995 0.959 . S
C989 H996 0.961 . S
C989 H997 0.960 . S
C990 C988 1.381 . S
C990 C991 1.394 . S
C990 H998 0.930 . S
C991 C990 1.394 . S
C991 C992 1.383 . S
C991 H999 0.929 . S
C992 C991 1.383 . S
C992 C993 1.377 . S
C993 H977 0.930 . S
C993 C992 1.377 . S
C993 C994 1.379 . S
C994 H978 0.931 . S
C994 C988 1.383 . S
C994 C993 1.379 . S
H995 C989 0.959 . S
H996 C989 0.961 . S
H997 C989 0.960 . S
H998 C990 0.930 . S
H999 C991 0.929 . S
H1000 C1008 0.929 . S
H1001 C1010 0.929 1_554 S
H1002 C1012 0.942 . S
H1003 C1015 0.929 . S
H1004 C1018 0.930 . S
H1005 C1020 0.960 . S
H1006 C1020 0.960 . S
H1007 C1020 0.960 . S
C1008 H1000 0.929 . S
C1008 C1009 1.377 1_545 S
C1008 C1010 1.384 . S
C1009 C1008 1.377 1_565 S
C1009 C1015 1.390 . S
C1010 H1001 0.929 1_556 S
C1010 C1008 1.384 . S
C1010 C1011 1.372 1_546 S
C1011 C1010 1.372 1_564 S
C1011 C1012 1.407 . S
C1011 C1016 1.490 . S
C1012 H1002 0.942 . S
C1012 C1011 1.407 . S
C1012 C1015 1.367 1_554 S
H1013 C1029 0.930 . S
H1014 C1030 0.931 . S
C1015 H1003 0.929 . S
C1015 C1009 1.390 . S
C1015 C1012 1.367 1_556 S
C1016 C1011 1.490 . S
C1016 C1018 1.395 . S
C1016 C1019 1.403 . S
H1017 C1023 0.930 . S
C1018 H1004 0.930 . S
C1018 C1016 1.395 . S
C1018 C1021 1.403 . S
C1019 C1016 1.403 . S
C1019 C1020 1.524 . S
C1019 C1023 1.400 . S
C1020 H1005 0.960 . S
C1020 H1006 0.960 . S
C1020 H1007 0.960 . S
C1020 C1019 1.524 . S
C1021 C1018 1.403 . S
C1021 C1022 1.392 . S
C1021 C1025 1.495 . S
C1022 C1021 1.392 . S
C1022 C1023 1.385 . S
C1022 C1024 1.478 . S
C1023 H1017 0.930 . S
C1023 C1019 1.400 . S
C1023 C1022 1.385 . S
C1024 C1022 1.478 . S
C1024 C1026 1.381 1_565 S
C1024 C1030 1.383 . S
C1025 C1021 1.495 . S
C1025 H1031 0.959 . S
C1025 H1032 0.961 . S
C1025 H1033 0.960 1_565 S
C1026 C1024 1.381 1_545 S
C1026 C1027 1.394 . S
C1026 H1034 0.930 . S
C1027 C1026 1.394 . S
C1027 C1028 1.383 1_545 S
C1027 H1035 0.929 . S
C1028 C1027 1.383 1_565 S
C1028 C1029 1.377 . S
C1029 H1013 0.930 . S
C1029 C1028 1.377 . S
C1029 C1030 1.379 . S
C1030 H1014 0.931 . S
C1030 C1024 1.383 . S
C1030 C1029 1.379 . S
H1031 C1025 0.959 . S
H1032 C1025 0.961 . S
H1033 C1025 0.960 1_545 S
H1034 C1026 0.930 . S
H1035 C1027 0.929 . S
H1036 C1044 0.929 . S
H1037 C1046 0.930 . S
H1038 C1048 0.930 . S
H1039 C1051 0.929 . S
H1040 C1054 0.930 . S
H1041 C1056 0.960 . S
H1042 C1056 0.960 . S
H1043 C1056 0.960 . S
C1044 H1036 0.929 . S
C1044 C1045 1.377 . S
C1044 C1046 1.384 . S
C1045 C1044 1.377 . S
C1045 C1051 1.390 . S
C1046 H1037 0.930 . S
C1046 C1044 1.384 . S
C1046 C1047 1.372 . S
C1047 C1046 1.372 . S
C1047 C1048 1.400 . S
C1047 C1052 1.490 . S
C1048 H1038 0.930 . S
C1048 C1047 1.400 . S
C1048 C1051 1.386 . S
H1049 C1065 0.930 . S
H1050 C1066 0.931 . S
C1051 H1039 0.929 . S
C1051 C1045 1.390 . S
C1051 C1048 1.386 . S
C1052 C1047 1.490 . S
C1052 C1054 1.395 . S
C1052 C1055 1.403 . S
H1053 C1059 0.930 . S
C1054 H1040 0.930 . S
C1054 C1052 1.395 . S
C1054 C1057 1.403 . S
C1055 C1052 1.403 . S
C1055 C1056 1.524 . S
C1055 C1059 1.400 . S
C1056 H1041 0.960 . S
C1056 H1042 0.960 . S
C1056 H1043 0.960 . S
C1056 C1055 1.524 . S
C1057 C1054 1.403 . S
C1057 C1058 1.392 . S
C1057 C1061 1.495 . S
C1058 C1057 1.392 . S
C1058 C1059 1.385 . S
C1058 C1060 1.478 . S
C1059 H1053 0.930 . S
C1059 C1055 1.400 . S
C1059 C1058 1.385 . S
C1060 C1058 1.478 . S
C1060 C1062 1.381 . S
C1060 C1066 1.383 . S
C1061 C1057 1.495 . S
C1061 H1067 0.959 . S
C1061 H1068 0.961 . S
C1061 H1069 0.960 . S
C1062 C1060 1.381 . S
C1062 C1063 1.394 . S
C1062 H1070 0.930 . S
C1063 C1062 1.394 . S
C1063 C1064 1.383 . S
C1063 H1071 0.929 . S
C1064 C1063 1.383 . S
C1064 C1065 1.377 . S
C1065 H1049 0.930 . S
C1065 C1064 1.377 . S
C1065 C1066 1.379 . S
C1066 H1050 0.931 . S
C1066 C1060 1.383 . S
C1066 C1065 1.379 . S
H1067 C1061 0.959 . S
H1068 C1061 0.961 . S
H1069 C1061 0.960 . S
H1070 C1062 0.930 . S
H1071 C1063 0.929 . S
H1072 C1080 0.929 . S
H1073 C1082 0.930 . S
H1074 C1084 0.930 . S
H1075 C1087 0.929 . S
H1076 C1090 0.930 . S
H1077 C1092 0.960 . S
H1078 C1092 0.960 . S
H1079 C1092 0.960 . S
C1080 H1072 0.929 . S
C1080 C1081 1.377 . S
C1080 C1082 1.384 . S
C1081 C1080 1.377 . S
C1081 C1087 1.390 . S
C1082 H1073 0.930 . S
C1082 C1080 1.384 . S
C1082 C1083 1.372 . S
C1083 C1082 1.372 . S
C1083 C1084 1.400 . S
C1083 C1088 1.490 . S
C1084 H1074 0.930 . S
C1084 C1083 1.400 . S
C1084 C1087 1.386 . S
H1085 C1101 0.930 . S
H1086 C1102 0.931 . S
C1087 H1075 0.929 . S
C1087 C1081 1.390 . S
C1087 C1084 1.386 . S
C1088 C1083 1.490 . S
C1088 C1090 1.395 . S
C1088 C1091 1.403 . S
H1089 C1095 0.930 . S
C1090 H1076 0.930 . S
C1090 C1088 1.395 . S
C1090 C1093 1.403 . S
C1091 C1088 1.403 . S
C1091 C1092 1.524 . S
C1091 C1095 1.400 . S
C1092 H1077 0.960 . S
C1092 H1078 0.960 . S
C1092 H1079 0.960 . S
C1092 C1091 1.524 . S
C1093 C1090 1.403 . S
C1093 C1094 1.392 . S
C1093 C1097 1.495 . S
C1094 C1093 1.392 . S
C1094 C1095 1.385 . S
C1094 C1096 1.478 . S
C1095 H1089 0.930 . S
C1095 C1091 1.400 . S
C1095 C1094 1.385 . S
C1096 C1094 1.478 . S
C1096 C1098 1.381 . S
C1096 C1102 1.383 . S
C1097 C1093 1.495 . S
C1097 H1103 0.959 . S
C1097 H1104 0.961 . S
C1097 H1105 0.960 . S
C1098 C1096 1.381 . S
C1098 C1099 1.394 . S
C1098 H1106 0.930 . S
C1099 C1098 1.394 . S
C1099 C1100 1.383 . S
C1099 H1107 0.929 . S
C1100 C1099 1.383 . S
C1100 C1101 1.377 . S
C1101 H1085 0.930 . S
C1101 C1100 1.377 . S
C1101 C1102 1.379 . S
C1102 H1086 0.931 . S
C1102 C1096 1.383 . S
C1102 C1101 1.379 . S
H1103 C1097 0.959 . S
H1104 C1097 0.961 . S
H1105 C1097 0.960 . S
H1106 C1098 0.930 . S
H1107 C1099 0.929 . S
H1108 C1116 0.929 . S
H1109 C1118 0.930 . S
H1110 C1120 0.959 . S
H1111 C1123 0.929 . S
H1112 C1126 0.930 . S
H1113 C1128 0.960 . S
H1114 C1128 0.960 . S
H1115 C1128 0.960 . S
C1116 H1108 0.929 . S
C1116 C1117 1.377 . S
C1116 C1118 1.384 . S
C1117 C1116 1.377 . S
C1117 C1123 1.390 1_455 S
C1118 H1109 0.930 . S
C1118 C1116 1.384 . S
C1118 C1119 1.372 . S
C1119 C1118 1.372 . S
C1119 C1120 1.370 1_455 S
C1119 C1124 1.490 . S
C1120 H1110 0.959 . S
C1120 C1119 1.370 1_655 S
C1120 C1123 1.387 . S
H1121 C1137 0.930 1_655 S
H1122 C1138 0.931 1_655 S
C1123 H1111 0.929 . S
C1123 C1117 1.390 1_655 S
C1123 C1120 1.387 . S
C1124 C1119 1.490 . S
C1124 C1126 1.395 . S
C1124 C1127 1.403 . S
H1125 C1131 0.930 1_655 S
C1126 H1112 0.930 . S
C1126 C1124 1.395 . S
C1126 C1129 1.403 . S
C1127 C1124 1.403 . S
C1127 C1128 1.524 1_455 S
C1127 C1131 1.400 . S
C1128 H1113 0.960 . S
C1128 H1114 0.960 . S
C1128 H1115 0.960 . S
C1128 C1127 1.524 1_655 S
C1129 C1126 1.403 . S
C1129 C1130 1.392 . S
C1129 C1133 1.495 . S
C1130 C1129 1.392 . S
C1130 C1131 1.385 . S
C1130 C1132 1.478 . S
C1131 H1125 0.930 1_455 S
C1131 C1127 1.400 . S
C1131 C1130 1.385 . S
C1132 C1130 1.478 . S
C1132 C1134 1.383 . S
C1132 C1138 1.383 1_556 S
C1133 C1129 1.495 . S
C1133 H1139 0.959 . S
C1133 H1140 0.961 . S
C1133 H1141 0.960 . S
C1134 C1132 1.383 . S
C1134 C1135 1.390 1_556 S
C1134 H1142 0.933 . S
C1135 C1134 1.390 1_554 S
C1135 C1136 1.383 . S
C1135 H1143 0.929 . S
C1136 C1135 1.383 . S
C1136 C1137 1.377 . S
C1137 H1121 0.930 1_455 S
C1137 C1136 1.377 . S
C1137 C1138 1.379 . S
C1138 H1122 0.931 1_455 S
C1138 C1132 1.383 1_554 S
C1138 C1137 1.379 . S
H1139 C1133 0.959 . S
H1140 C1133 0.961 . S
H1141 C1133 0.960 . S
H1142 C1134 0.933 . S
H1143 C1135 0.929 . S
H1144 C1152 0.929 . S
H1145 C1154 0.930 . S
H1146 C1156 0.930 . S
H1147 C1159 0.929 . S
H1148 C1162 0.930 . S
H1149 C1164 0.960 . S
H1150 C1164 0.960 . S
H1151 C1164 0.960 1_565 S
C1152 H1144 0.929 . S
C1152 C1153 1.377 . S
C1152 C1154 1.384 . S
C1153 C1152 1.377 . S
C1153 C1159 1.390 1_545 S
C1154 H1145 0.930 . S
C1154 C1152 1.384 . S
C1154 C1155 1.372 . S
C1155 C1154 1.372 . S
C1155 C1156 1.400 1_545 S
C1155 C1160 1.490 . S
C1156 H1146 0.930 . S
C1156 C1155 1.400 1_565 S
C1156 C1159 1.386 . S
H1157 C1173 0.930 . S
H1158 C1174 0.974 . S
C1159 H1147 0.929 . S
C1159 C1153 1.390 1_565 S
C1159 C1156 1.386 . S
C1160 C1155 1.490 . S
C1160 C1162 1.395 . S
C1160 C1163 1.403 . S
H1161 C1167 0.930 . S
C1162 H1148 0.930 . S
C1162 C1160 1.395 . S
C1162 C1165 1.403 . S
C1163 C1160 1.403 . S
C1163 C1164 1.524 . S
C1163 C1167 1.400 . S
C1164 H1149 0.960 . S
C1164 H1150 0.960 . S
C1164 H1151 0.960 1_545 S
C1164 C1163 1.524 . S
C1165 C1162 1.403 . S
C1165 C1166 1.392 . S
C1165 C1169 1.495 . S
C1166 C1165 1.392 . S
C1166 C1167 1.385 . S
C1166 C1168 1.478 . S
C1167 H1161 0.930 . S
C1167 C1163 1.400 . S
C1167 C1166 1.385 . S
C1168 C1166 1.478 . S
C1168 C1170 1.381 . S
C1168 C1174 1.340 1_545 S
C1169 C1165 1.495 . S
C1169 H1175 0.959 . S
C1169 H1176 0.961 . S
C1169 H1177 0.960 . S
C1170 C1168 1.381 . S
C1170 C1171 1.394 . S
C1170 H1178 0.930 . S
C1171 C1170 1.394 . S
C1171 C1172 1.383 . S
C1171 H1179 0.929 . S
C1172 C1171 1.383 . S
C1172 C1173 1.377 1_545 S
C1173 H1157 0.930 . S
C1173 C1172 1.377 1_565 S
C1173 C1174 1.381 . S
C1174 H1158 0.974 . S
C1174 C1168 1.340 1_565 S
C1174 C1173 1.381 . S
H1175 C1169 0.959 . S
H1176 C1169 0.961 . S
H1177 C1169 0.960 . S
H1178 C1170 0.930 . S
H1179 C1171 0.929 . S
H1180 C1188 0.929 . S
H1181 C1190 0.934 . S
H1182 C1192 0.934 . S
H1183 C1195 0.929 . S
H1184 C1198 0.930 . S
H1185 C1200 0.960 . S
H1186 C1200 0.960 . S
H1187 C1200 0.960 . S
C1188 H1180 0.929 . S
C1188 C1189 1.377 . S
C1188 C1190 1.384 . S
C1189 C1188 1.377 . S
C1189 C1195 1.390 . S
C1190 H1181 0.934 . S
C1190 C1188 1.384 . S
C1190 C1191 1.372 1_554 S
C1191 C1190 1.372 1_556 S
C1191 C1192 1.402 . S
C1191 C1196 1.490 . S
C1192 H1182 0.934 . S
C1192 C1191 1.402 . S
C1192 C1195 1.379 1_556 S
H1193 C1209 0.930 . S
H1194 C1210 0.931 . S
C1195 H1183 0.929 . S
C1195 C1189 1.390 . S
C1195 C1192 1.379 1_554 S
C1196 C1191 1.490 . S
C1196 C1198 1.395 . S
C1196 C1199 1.403 . S
H1197 C1203 0.930 . S
C1198 H1184 0.930 . S
C1198 C1196 1.395 . S
C1198 C1201 1.403 . S
C1199 C1196 1.403 . S
C1199 C1200 1.524 . S
C1199 C1203 1.400 . S
C1200 H1185 0.960 . S
C1200 H1186 0.960 . S
C1200 H1187 0.960 . S
C1200 C1199 1.524 . S
C1201 C1198 1.403 . S
C1201 C1202 1.392 . S
C1201 C1205 1.495 . S
C1202 C1201 1.392 . S
C1202 C1203 1.385 . S
C1202 C1204 1.478 . S
C1203 H1197 0.930 . S
C1203 C1199 1.400 . S
C1203 C1202 1.385 . S
C1204 C1202 1.478 . S
C1204 C1206 1.381 . S
C1204 C1210 1.383 . S
C1205 C1201 1.495 . S
C1205 H1211 0.959 . S
C1205 H1212 0.961 . S
C1205 H1213 0.960 . S
C1206 C1204 1.381 . S
C1206 C1207 1.394 . S
C1206 H1214 0.930 . S
C1207 C1206 1.394 . S
C1207 C1208 1.383 . S
C1207 H1215 0.929 . S
C1208 C1207 1.383 . S
C1208 C1209 1.377 . S
C1209 H1193 0.930 . S
C1209 C1208 1.377 . S
C1209 C1210 1.379 . S
C1210 H1194 0.931 . S
C1210 C1204 1.383 . S
C1210 C1209 1.379 . S
H1211 C1205 0.959 . S
H1212 C1205 0.961 . S
H1213 C1205 0.960 . S
H1214 C1206 0.930 . S
H1215 C1207 0.929 . S
H1216 C1224 0.929 . S
H1217 C1226 0.930 . S
H1218 C1228 0.930 . S
H1219 C1231 0.929 . S
H1220 C1234 0.930 . S
H1221 C1236 0.960 . S
H1222 C1236 0.960 . S
H1223 C1236 0.960 . S
C1224 H1216 0.929 . S
C1224 C1225 1.377 . S
C1224 C1226 1.384 . S
C1225 C1224 1.377 . S
C1225 C1231 1.390 . S
C1226 H1217 0.930 . S
C1226 C1224 1.384 . S
C1226 C1227 1.372 . S
C1227 C1226 1.372 . S
C1227 C1228 1.400 . S
C1227 C1232 1.490 . S
C1228 H1218 0.930 . S
C1228 C1227 1.400 . S
C1228 C1231 1.386 . S
H1229 C1245 0.930 . S
H1230 C1246 0.931 . S
C1231 H1219 0.929 . S
C1231 C1225 1.390 . S
C1231 C1228 1.386 . S
C1232 C1227 1.490 . S
C1232 C1234 1.395 . S
C1232 C1235 1.403 . S
H1233 C1239 0.930 . S
C1234 H1220 0.930 . S
C1234 C1232 1.395 . S
C1234 C1237 1.403 . S
C1235 C1232 1.403 . S
C1235 C1236 1.524 . S
C1235 C1239 1.400 . S
C1236 H1221 0.960 . S
C1236 H1222 0.960 . S
C1236 H1223 0.960 . S
C1236 C1235 1.524 . S
C1237 C1234 1.403 . S
C1237 C1238 1.392 . S
C1237 C1241 1.495 . S
C1238 C1237 1.392 . S
C1238 C1239 1.385 . S
C1238 C1240 1.478 . S
C1239 H1233 0.930 . S
C1239 C1235 1.400 . S
C1239 C1238 1.385 . S
C1240 C1238 1.478 . S
C1240 C1242 1.381 . S
C1240 C1246 1.383 1_556 S
C1241 C1237 1.495 . S
C1241 H1247 0.959 . S
C1241 H1248 0.961 . S
C1241 H1249 0.960 . S
C1242 C1240 1.381 . S
C1242 C1243 1.394 1_556 S
C1242 H1250 0.930 . S
C1243 C1242 1.394 1_554 S
C1243 C1244 1.383 . S
C1243 H1251 0.929 . S
C1244 C1243 1.383 . S
C1244 C1245 1.377 . S
C1245 H1229 0.930 . S
C1245 C1244 1.377 . S
C1245 C1246 1.379 . S
C1246 H1230 0.931 . S
C1246 C1240 1.383 1_554 S
C1246 C1245 1.379 . S
H1247 C1241 0.959 . S
H1248 C1241 0.961 . S
H1249 C1241 0.960 . S
H1250 C1242 0.930 . S
H1251 C1243 0.929 . S
H1252 C1260 0.937 . S
H1253 C1262 0.941 . S
H1254 C1264 0.930 . S
H1255 C1267 0.929 . S
H1256 C1270 0.930 . S
H1257 C1272 0.960 . S
H1258 C1272 0.960 1_655 S
H1259 C1272 0.960 . S
C1260 H1252 0.937 . S
C1260 C1261 1.370 1_655 S
C1260 C1262 1.384 . S
C1261 C1260 1.370 1_455 S
C1261 C1267 1.390 . S
C1262 H1253 0.941 . S
C1262 C1260 1.384 . S
C1262 C1263 1.362 1_655 S
C1263 C1262 1.362 1_455 S
C1263 C1264 1.400 . S
C1263 C1268 1.490 . S
C1264 H1254 0.930 . S
C1264 C1263 1.400 . S
C1264 C1267 1.386 . S
H1265 C1281 0.930 . S
H1266 C1282 0.931 . S
C1267 H1255 0.929 . S
C1267 C1261 1.390 . S
C1267 C1264 1.386 . S
C1268 C1263 1.490 . S
C1268 C1270 1.395 . S
C1268 C1271 1.403 . S
H1269 C1275 0.930 . S
C1270 H1256 0.930 . S
C1270 C1268 1.395 . S
C1270 C1273 1.403 . S
C1271 C1268 1.403 . S
C1271 C1272 1.524 . S
C1271 C1275 1.400 . S
C1272 H1257 0.960 . S
C1272 H1258 0.960 1_455 S
C1272 H1259 0.960 . S
C1272 C1271 1.524 . S
C1273 C1270 1.403 . S
C1273 C1274 1.392 . S
C1273 C1277 1.495 . S
C1274 C1273 1.392 . S
C1274 C1275 1.385 . S
C1274 C1276 1.478 . S
C1275 H1269 0.930 . S
C1275 C1271 1.400 . S
C1275 C1274 1.385 . S
C1276 C1274 1.478 . S
C1276 C1278 1.410 . S
C1276 C1282 1.383 . S
C1277 C1273 1.495 . S
C1277 H1283 0.959 . S
C1277 H1284 0.961 . S
C1277 H1285 0.960 . S
C1278 C1276 1.410 . S
C1278 C1279 1.394 . S
C1278 H1286 0.902 1_455 S
C1279 C1278 1.394 . S
C1279 C1280 1.410 . S
C1279 H1287 0.903 1_455 S
C1280 C1279 1.410 . S
C1280 C1281 1.377 . S
C1281 H1265 0.930 . S
C1281 C1280 1.377 . S
C1281 C1282 1.379 . S
C1282 H1266 0.931 . S
C1282 C1276 1.383 . S
C1282 C1281 1.379 . S
H1283 C1277 0.959 . S
H1284 C1277 0.961 . S
H1285 C1277 0.960 . S
H1286 C1278 0.902 1_655 S
H1287 C1279 0.903 1_655 S
H1288 C1296 0.929 1_565 S
H1289 C1298 0.930 1_565 S
H1290 C1300 0.930 . S
H1291 C1303 0.929 . S
H1292 C1306 0.930 . S
H1293 C1308 0.970 . S
H1294 C1308 0.960 1_565 S
H1295 C1308 0.960 . S
C1296 H1288 0.929 1_545 S
C1296 C1297 1.377 . S
C1296 C1298 1.384 1_554 S
C1297 C1296 1.377 . S
C1297 C1303 1.390 . S
C1298 H1289 0.930 1_545 S
C1298 C1296 1.384 1_556 S
C1298 C1299 1.372 . S
C1299 C1298 1.372 . S
C1299 C1300 1.400 1_556 S
C1299 C1304 1.490 . S
C1300 H1290 0.930 . S
C1300 C1299 1.400 1_554 S
C1300 C1303 1.386 . S
H1301 C1317 0.930 . S
H1302 C1318 0.931 . S
C1303 H1291 0.929 . S
C1303 C1297 1.390 . S
C1303 C1300 1.386 . S
C1304 C1299 1.490 . S
C1304 C1306 1.395 . S
C1304 C1307 1.403 . S
H1305 C1311 0.930 . S
C1306 H1292 0.930 . S
C1306 C1304 1.395 . S
C1306 C1309 1.403 . S
C1307 C1304 1.403 . S
C1307 C1308 1.524 . S
C1307 C1311 1.400 . S
C1308 H1293 0.970 . S
C1308 H1294 0.960 1_545 S
C1308 H1295 0.960 . S
C1308 C1307 1.524 . S
C1309 C1306 1.403 . S
C1309 C1310 1.392 . S
C1309 C1313 1.495 . S
C1310 C1309 1.392 . S
C1310 C1311 1.385 . S
C1310 C1312 1.478 . S
C1311 H1305 0.930 . S
C1311 C1307 1.400 . S
C1311 C1310 1.385 . S
C1312 C1310 1.478 . S
C1312 C1314 1.381 . S
C1312 C1318 1.383 . S
C1313 C1309 1.495 . S
C1313 H1319 0.959 . S
C1313 H1320 0.961 . S
C1313 H1321 0.960 . S
C1314 C1312 1.381 . S
C1314 C1315 1.394 . S
C1314 H1322 0.930 1_545 S
C1315 C1314 1.394 . S
C1315 C1316 1.383 . S
C1315 H1323 0.929 1_545 S
C1316 C1315 1.383 . S
C1316 C1317 1.377 . S
C1317 H1301 0.930 . S
C1317 C1316 1.377 . S
C1317 C1318 1.379 . S
C1318 H1302 0.931 . S
C1318 C1312 1.383 . S
C1318 C1317 1.379 . S
H1319 C1313 0.959 . S
H1320 C1313 0.961 . S
H1321 C1313 0.960 . S
H1322 C1314 0.930 1_565 S
H1323 C1315 0.929 1_565 S
H1324 C1332 0.929 . S
H1325 C1334 0.930 . S
H1326 C1336 0.930 . S
H1327 C1339 0.929 . S
H1328 C1342 0.930 . S
H1329 C1344 0.960 . S
H1330 C1344 0.960 . S
H1331 C1344 0.960 . S
C1332 H1324 0.929 . S
C1332 C1333 1.377 . S
C1332 C1334 1.384 . S
C1333 C1332 1.377 . S
C1333 C1339 1.390 . S
C1334 H1325 0.930 . S
C1334 C1332 1.384 . S
C1334 C1335 1.372 . S
C1335 C1334 1.372 . S
C1335 C1336 1.400 . S
C1335 C1340 1.490 . S
C1336 H1326 0.930 . S
C1336 C1335 1.400 . S
C1336 C1339 1.386 . S
H1337 C1353 0.930 . S
H1338 C1354 0.931 . S
C1339 H1327 0.929 . S
C1339 C1333 1.390 . S
C1339 C1336 1.386 . S
C1340 C1335 1.490 . S
C1340 C1342 1.395 . S
C1340 C1343 1.403 . S
H1341 C1347 0.930 . S
C1342 H1328 0.930 . S
C1342 C1340 1.395 . S
C1342 C1345 1.403 . S
C1343 C1340 1.403 . S
C1343 C1344 1.524 . S
C1343 C1347 1.400 . S
C1344 H1329 0.960 . S
C1344 H1330 0.960 . S
C1344 H1331 0.960 . S
C1344 C1343 1.524 . S
C1345 C1342 1.403 . S
C1345 C1346 1.392 . S
C1345 C1349 1.495 . S
C1346 C1345 1.392 . S
C1346 C1347 1.385 . S
C1346 C1348 1.478 . S
C1347 H1341 0.930 . S
C1347 C1343 1.400 . S
C1347 C1346 1.385 . S
C1348 C1346 1.478 . S
C1348 C1350 1.381 . S
C1348 C1354 1.383 . S
C1349 C1345 1.495 . S
C1349 H1355 0.959 . S
C1349 H1356 0.961 . S
C1349 H1357 0.960 . S
C1350 C1348 1.381 . S
C1350 C1351 1.394 . S
C1350 H1358 0.930 . S
C1351 C1350 1.394 . S
C1351 C1352 1.383 . S
C1351 H1359 0.929 . S
C1352 C1351 1.383 . S
C1352 C1353 1.377 . S
C1353 H1337 0.930 . S
C1353 C1352 1.377 . S
C1353 C1354 1.379 . S
C1354 H1338 0.931 . S
C1354 C1348 1.383 . S
C1354 C1353 1.379 . S
H1355 C1349 0.959 . S
H1356 C1349 0.961 . S
H1357 C1349 0.960 . S
H1358 C1350 0.930 . S
H1359 C1351 0.929 . S
H1360 C1368 0.929 . S
H1361 C1370 0.930 . S
H1362 C1372 0.930 . S
H1363 C1375 0.929 . S
H1364 C1378 0.930 . S
H1365 C1380 0.960 . S
H1366 C1380 0.960 . S
H1367 C1380 0.960 . S
C1368 H1360 0.929 . S
C1368 C1369 1.377 . S
C1368 C1370 1.384 . S
C1369 C1368 1.377 . S
C1369 C1375 1.390 . S
C1370 H1361 0.930 . S
C1370 C1368 1.384 . S
C1370 C1371 1.372 . S
C1371 C1370 1.372 . S
C1371 C1372 1.400 . S
C1371 C1376 1.490 . S
C1372 H1362 0.930 . S
C1372 C1371 1.400 . S
C1372 C1375 1.386 . S
H1373 C1389 0.930 . S
H1374 C1390 0.931 . S
C1375 H1363 0.929 . S
C1375 C1369 1.390 . S
C1375 C1372 1.386 . S
C1376 C1371 1.490 . S
C1376 C1378 1.395 . S
C1376 C1379 1.403 . S
H1377 C1383 0.930 . S
C1378 H1364 0.930 . S
C1378 C1376 1.395 . S
C1378 C1381 1.403 . S
C1379 C1376 1.403 . S
C1379 C1380 1.524 . S
C1379 C1383 1.400 . S
C1380 H1365 0.960 . S
C1380 H1366 0.960 . S
C1380 H1367 0.960 . S
C1380 C1379 1.524 . S
C1381 C1378 1.403 . S
C1381 C1382 1.392 . S
C1381 C1385 1.495 . S
C1382 C1381 1.392 . S
C1382 C1383 1.385 . S
C1382 C1384 1.478 . S
C1383 H1377 0.930 . S
C1383 C1379 1.400 . S
C1383 C1382 1.385 . S
C1384 C1382 1.478 . S
C1384 C1386 1.381 . S
C1384 C1390 1.383 . S
C1385 C1381 1.495 . S
C1385 H1391 0.959 . S
C1385 H1392 0.961 . S
C1385 H1393 0.960 . S
C1386 C1384 1.381 . S
C1386 C1387 1.394 . S
C1386 H1394 0.930 . S
C1387 C1386 1.394 . S
C1387 C1388 1.383 . S
C1387 H1395 0.929 . S
C1388 C1387 1.383 . S
C1388 C1389 1.377 . S
C1389 H1373 0.930 . S
C1389 C1388 1.377 . S
C1389 C1390 1.379 . S
C1390 H1374 0.931 . S
C1390 C1384 1.383 . S
C1390 C1389 1.379 . S
H1391 C1385 0.959 . S
H1392 C1385 0.961 . S
H1393 C1385 0.960 . S
H1394 C1386 0.930 . S
H1395 C1387 0.929 . S
H1396 C1404 0.929 . S
H1397 C1406 0.930 . S
H1398 C1408 0.930 1_455 S
H1399 C1411 0.929 1_455 S
H1400 C1414 0.930 . S
H1401 C1416 0.960 . S
H1402 C1416 0.960 . S
H1403 C1416 0.960 . S
C1404 H1396 0.929 . S
C1404 C1405 1.377 . S
C1404 C1406 1.384 . S
C1405 C1404 1.377 . S
C1405 C1411 1.390 . S
C1406 H1397 0.930 . S
C1406 C1404 1.384 . S
C1406 C1407 1.372 . S
C1407 C1406 1.372 . S
C1407 C1408 1.400 . S
C1407 C1412 1.490 . S
C1408 H1398 0.930 1_655 S
C1408 C1407 1.400 . S
C1408 C1411 1.386 . S
H1409 C1425 0.930 . S
H1410 C1426 0.931 . S
C1411 H1399 0.929 1_655 S
C1411 C1405 1.390 . S
C1411 C1408 1.386 . S
C1412 C1407 1.490 . S
C1412 C1414 1.395 . S
C1412 C1415 1.403 1_655 S
H1413 C1419 0.930 1_455 S
C1414 H1400 0.930 . S
C1414 C1412 1.395 . S
C1414 C1417 1.403 . S
C1415 C1412 1.403 1_455 S
C1415 C1416 1.524 . S
C1415 C1419 1.400 1_455 S
C1416 H1401 0.960 . S
C1416 H1402 0.960 . S
C1416 H1403 0.960 . S
C1416 C1415 1.524 . S
C1417 C1414 1.403 . S
C1417 C1418 1.392 . S
C1417 C1421 1.495 . S
C1418 C1417 1.392 . S
C1418 C1419 1.385 . S
C1418 C1420 1.478 . S
C1419 H1413 0.930 1_655 S
C1419 C1415 1.400 1_655 S
C1419 C1418 1.385 . S
C1420 C1418 1.478 . S
C1420 C1422 1.381 1_554 S
C1420 C1426 1.383 . S
C1421 C1417 1.495 . S
C1421 H1427 0.959 . S
C1421 H1428 0.961 . S
C1421 H1429 0.960 . S
C1422 C1420 1.381 1_556 S
C1422 C1423 1.394 . S
C1422 H1430 0.930 . S
C1423 C1422 1.394 . S
C1423 C1424 1.383 . S
C1423 H1431 0.929 . S
C1424 C1423 1.383 . S
C1424 C1425 1.377 . S
C1425 H1409 0.930 . S
C1425 C1424 1.377 . S
C1425 C1426 1.379 1_556 S
C1426 H1410 0.931 . S
C1426 C1420 1.383 . S
C1426 C1425 1.379 1_554 S
H1427 C1421 0.959 . S
H1428 C1421 0.961 . S
H1429 C1421 0.960 . S
H1430 C1422 0.930 . S
H1431 C1423 0.929 . S
H1432 C1440 0.929 . S
H1433 C1442 0.930 . S
H1434 C1444 0.930 1_545 S
H1435 C1447 0.929 1_545 S
H1436 C1450 0.930 . S
H1437 C1452 0.960 . S
H1438 C1452 0.960 . S
H1439 C1452 0.960 . S
C1440 H1432 0.929 . S
C1440 C1441 1.377 . S
C1440 C1442 1.384 . S
C1441 C1440 1.377 . S
C1441 C1447 1.390 . S
C1442 H1433 0.930 . S
C1442 C1440 1.384 . S
C1442 C1443 1.372 . S
C1443 C1442 1.372 . S
C1443 C1444 1.400 . S
C1443 C1448 1.490 . S
C1444 H1434 0.930 1_565 S
C1444 C1443 1.400 . S
C1444 C1447 1.386 . S
H1445 C1461 0.953 . S
H1446 C1462 0.956 . S
C1447 H1435 0.929 1_565 S
C1447 C1441 1.390 . S
C1447 C1444 1.386 . S
C1448 C1443 1.490 . S
C1448 C1450 1.395 . S
C1448 C1451 1.403 . S
H1449 C1455 0.930 . S
C1450 H1436 0.930 . S
C1450 C1448 1.395 . S
C1450 C1453 1.403 . S
C1451 C1448 1.403 . S
C1451 C1452 1.524 . S
C1451 C1455 1.400 . S
C1452 H1437 0.960 . S
C1452 H1438 0.960 . S
C1452 H1439 0.960 . S
C1452 C1451 1.524 . S
C1453 C1450 1.403 . S
C1453 C1454 1.392 . S
C1453 C1457 1.495 . S
C1454 C1453 1.392 . S
C1454 C1455 1.385 . S
C1454 C1456 1.478 . S
C1455 H1449 0.930 . S
C1455 C1451 1.400 . S
C1455 C1454 1.385 . S
C1456 C1454 1.478 . S
C1456 C1458 1.381 . S
C1456 C1462 1.359 1_565 S
C1457 C1453 1.495 . S
C1457 H1463 0.959 . S
C1457 H1464 0.961 1_565 S
C1457 H1465 0.960 . S
C1458 C1456 1.381 . S
C1458 C1459 1.394 . S
C1458 H1466 0.930 . S
C1459 C1458 1.394 . S
C1459 C1460 1.383 . S
C1459 H1467 0.929 . S
C1460 C1459 1.383 . S
C1460 C1461 1.354 1_565 S
C1461 H1445 0.953 . S
C1461 C1460 1.354 1_545 S
C1461 C1462 1.379 . S
C1462 H1446 0.956 . S
C1462 C1456 1.359 1_545 S
C1462 C1461 1.379 . S
H1463 C1457 0.959 . S
H1464 C1457 0.961 1_545 S
H1465 C1457 0.960 . S
H1466 C1458 0.930 . S
H1467 C1459 0.929 . S
H1468 C1476 0.929 . S
H1469 C1478 0.930 1_554 S
H1470 C1480 0.930 1_554 S
H1471 C1483 0.929 . S
H1472 C1486 0.930 . S
H1473 C1488 0.960 . S
H1474 C1488 0.960 . S
H1475 C1488 0.960 . S
C1476 H1468 0.929 . S
C1476 C1477 1.377 . S
C1476 C1478 1.384 . S
C1477 C1476 1.377 . S
C1477 C1483 1.390 . S
C1478 H1469 0.930 1_556 S
C1478 C1476 1.384 . S
C1478 C1479 1.372 1_556 S
C1479 C1478 1.372 1_554 S
C1479 C1480 1.400 1_554 S
C1479 C1484 1.490 . S
C1480 H1470 0.930 1_556 S
C1480 C1479 1.400 1_556 S
C1480 C1483 1.386 . S
H1481 C1497 0.930 . S
H1482 C1498 0.931 . S
C1483 H1471 0.929 . S
C1483 C1477 1.390 . S
C1483 C1480 1.386 . S
C1484 C1479 1.490 . S
C1484 C1486 1.395 . S
C1484 C1487 1.403 . S
H1485 C1491 0.930 . S
C1486 H1472 0.930 . S
C1486 C1484 1.395 . S
C1486 C1489 1.403 . S
C1487 C1484 1.403 . S
C1487 C1488 1.524 . S
C1487 C1491 1.400 . S
C1488 H1473 0.960 . S
C1488 H1474 0.960 . S
C1488 H1475 0.960 . S
C1488 C1487 1.524 . S
C1489 C1486 1.403 . S
C1489 C1490 1.392 . S
C1489 C1493 1.495 . S
C1490 C1489 1.392 . S
C1490 C1491 1.385 . S
C1490 C1492 1.478 . S
C1491 H1485 0.930 . S
C1491 C1487 1.400 . S
C1491 C1490 1.385 . S
C1492 C1490 1.478 . S
C1492 C1494 1.381 . S
C1492 C1498 1.383 . S
C1493 C1489 1.495 . S
C1493 H1499 0.959 . S
C1493 H1500 0.961 . S
C1493 H1501 0.960 . S
C1494 C1492 1.381 . S
C1494 C1495 1.394 . S
C1494 H1502 0.930 . S
C1495 C1494 1.394 . S
C1495 C1496 1.383 . S
C1495 H1503 0.929 . S
C1496 C1495 1.383 . S
C1496 C1497 1.377 . S
C1497 H1481 0.930 . S
C1497 C1496 1.377 . S
C1497 C1498 1.379 . S
C1498 H1482 0.931 . S
C1498 C1492 1.383 . S
C1498 C1497 1.379 . S
H1499 C1493 0.959 . S
H1500 C1493 0.961 . S
H1501 C1493 0.960 . S
H1502 C1494 0.930 . S
H1503 C1495 0.929 . S
H1504 C1512 0.929 . S
H1505 C1514 0.930 . S
H1506 C1516 0.930 . S
H1507 C1519 0.929 . S
H1508 C1522 0.930 . S
H1509 C1524 0.960 . S
H1510 C1524 0.960 . S
H1511 C1524 0.960 . S
C1512 H1504 0.929 . S
C1512 C1513 1.377 . S
C1512 C1514 1.384 . S
C1513 C1512 1.377 . S
C1513 C1519 1.390 . S
C1514 H1505 0.930 . S
C1514 C1512 1.384 . S
C1514 C1515 1.372 . S
C1515 C1514 1.372 . S
C1515 C1516 1.400 . S
C1515 C1520 1.490 . S
C1516 H1506 0.930 . S
C1516 C1515 1.400 . S
C1516 C1519 1.386 . S
H1517 C1533 0.930 . S
H1518 C1534 0.931 . S
C1519 H1507 0.929 . S
C1519 C1513 1.390 . S
C1519 C1516 1.386 . S
C1520 C1515 1.490 . S
C1520 C1522 1.395 . S
C1520 C1523 1.403 . S
H1521 C1527 0.930 . S
C1522 H1508 0.930 . S
C1522 C1520 1.395 . S
C1522 C1525 1.403 . S
C1523 C1520 1.403 . S
C1523 C1524 1.524 . S
C1523 C1527 1.400 . S
C1524 H1509 0.960 . S
C1524 H1510 0.960 . S
C1524 H1511 0.960 . S
C1524 C1523 1.524 . S
C1525 C1522 1.403 . S
C1525 C1526 1.392 . S
C1525 C1529 1.495 . S
C1526 C1525 1.392 . S
C1526 C1527 1.385 . S
C1526 C1528 1.478 . S
C1527 H1521 0.930 . S
C1527 C1523 1.400 . S
C1527 C1526 1.385 . S
C1528 C1526 1.478 . S
C1528 C1530 1.381 . S
C1528 C1534 1.383 . S
C1529 C1525 1.495 . S
C1529 H1535 0.959 . S
C1529 H1536 0.961 . S
C1529 H1537 0.960 . S
C1530 C1528 1.381 . S
C1530 C1531 1.394 . S
C1530 H1538 0.930 . S
C1531 C1530 1.394 . S
C1531 C1532 1.383 . S
C1531 H1539 0.929 . S
C1532 C1531 1.383 . S
C1532 C1533 1.377 . S
C1533 H1517 0.930 . S
C1533 C1532 1.377 . S
C1533 C1534 1.379 . S
C1534 H1518 0.931 . S
C1534 C1528 1.383 . S
C1534 C1533 1.379 . S
H1535 C1529 0.959 . S
H1536 C1529 0.961 . S
H1537 C1529 0.960 . S
H1538 C1530 0.930 . S
H1539 C1531 0.929 . S
H1540 C1548 0.929 . S
H1541 C1550 0.930 . S
H1542 C1552 0.930 . S
H1543 C1555 0.929 . S
H1544 C1558 0.930 . S
H1545 C1560 0.960 . S
H1546 C1560 0.960 . S
H1547 C1560 0.960 . S
C1548 H1540 0.929 . S
C1548 C1549 1.377 . S
C1548 C1550 1.384 . S
C1549 C1548 1.377 . S
C1549 C1555 1.390 . S
C1550 H1541 0.930 . S
C1550 C1548 1.384 . S
C1550 C1551 1.372 . S
C1551 C1550 1.372 . S
C1551 C1552 1.400 . S
C1551 C1556 1.490 . S
C1552 H1542 0.930 . S
C1552 C1551 1.400 . S
C1552 C1555 1.386 . S
H1553 C1569 0.930 . S
H1554 C1570 0.931 . S
C1555 H1543 0.929 . S
C1555 C1549 1.390 . S
C1555 C1552 1.386 . S
C1556 C1551 1.490 . S
C1556 C1558 1.395 . S
C1556 C1559 1.403 . S
H1557 C1563 0.930 . S
C1558 H1544 0.930 . S
C1558 C1556 1.395 . S
C1558 C1561 1.403 . S
C1559 C1556 1.403 . S
C1559 C1560 1.524 . S
C1559 C1563 1.400 . S
C1560 H1545 0.960 . S
C1560 H1546 0.960 . S
C1560 H1547 0.960 . S
C1560 C1559 1.524 . S
C1561 C1558 1.403 . S
C1561 C1562 1.392 . S
C1561 C1565 1.495 . S
C1562 C1561 1.392 . S
C1562 C1563 1.385 . S
C1562 C1564 1.478 . S
C1563 H1557 0.930 . S
C1563 C1559 1.400 . S
C1563 C1562 1.385 . S
C1564 C1562 1.478 . S
C1564 C1566 1.381 . S
C1564 C1570 1.383 . S
C1565 C1561 1.495 . S
C1565 H1571 0.959 . S
C1565 H1572 0.961 . S
C1565 H1573 0.960 . S
C1566 C1564 1.381 . S
C1566 C1567 1.394 . S
C1566 H1574 0.930 . S
C1567 C1566 1.394 . S
C1567 C1568 1.383 . S
C1567 H1575 0.929 . S
C1568 C1567 1.383 . S
C1568 C1569 1.377 . S
C1569 H1553 0.930 . S
C1569 C1568 1.377 . S
C1569 C1570 1.379 . S
C1570 H1554 0.931 . S
C1570 C1564 1.383 . S
C1570 C1569 1.379 . S
H1571 C1565 0.959 . S
H1572 C1565 0.961 . S
H1573 C1565 0.960 . S
H1574 C1566 0.930 . S
H1575 C1567 0.929 . S
H1576 C1584 0.929 . S
H1577 C1586 0.930 . S
H1578 C1588 0.930 . S
H1579 C1591 0.929 . S
H1580 C1594 0.930 . S
H1581 C1596 0.960 . S
H1582 C1596 0.960 . S
H1583 C1596 0.960 . S
C1584 H1576 0.929 . S
C1584 C1585 1.377 . S
C1584 C1586 1.384 . S
C1585 C1584 1.377 . S
C1585 C1591 1.390 . S
C1586 H1577 0.930 . S
C1586 C1584 1.384 . S
C1586 C1587 1.372 . S
C1587 C1586 1.372 . S
C1587 C1588 1.400 . S
C1587 C1592 1.490 . S
C1588 H1578 0.930 . S
C1588 C1587 1.400 . S
C1588 C1591 1.386 . S
H1589 C1605 0.930 . S
H1590 C1606 0.931 . S
C1591 H1579 0.929 . S
C1591 C1585 1.390 . S
C1591 C1588 1.386 . S
C1592 C1587 1.490 . S
C1592 C1594 1.395 . S
C1592 C1595 1.403 . S
H1593 C1599 0.930 . S
C1594 H1580 0.930 . S
C1594 C1592 1.395 . S
C1594 C1597 1.403 . S
C1595 C1592 1.403 . S
C1595 C1596 1.524 . S
C1595 C1599 1.400 . S
C1596 H1581 0.960 . S
C1596 H1582 0.960 . S
C1596 H1583 0.960 . S
C1596 C1595 1.524 . S
C1597 C1594 1.403 . S
C1597 C1598 1.392 . S
C1597 C1601 1.495 . S
C1598 C1597 1.392 . S
C1598 C1599 1.385 . S
C1598 C1600 1.478 . S
C1599 H1593 0.930 . S
C1599 C1595 1.400 . S
C1599 C1598 1.385 . S
C1600 C1598 1.478 . S
C1600 C1602 1.381 . S
C1600 C1606 1.383 . S
C1601 C1597 1.495 . S
C1601 H1607 0.959 . S
C1601 H1608 0.961 . S
C1601 H1609 0.960 . S
C1602 C1600 1.381 . S
C1602 C1603 1.394 . S
C1602 H1610 0.930 . S
C1603 C1602 1.394 . S
C1603 C1604 1.383 . S
C1603 H1611 0.929 . S
C1604 C1603 1.383 . S
C1604 C1605 1.377 . S
C1605 H1589 0.930 . S
C1605 C1604 1.377 . S
C1605 C1606 1.379 . S
C1606 H1590 0.931 . S
C1606 C1600 1.383 . S
C1606 C1605 1.379 . S
H1607 C1601 0.959 . S
H1608 C1601 0.961 . S
H1609 C1601 0.960 . S
H1610 C1602 0.930 . S
H1611 C1603 0.929 . S
H1612 C1620 0.929 . S
H1613 C1622 0.930 . S
H1614 C1624 0.930 . S
H1615 C1627 0.929 . S
H1616 C1630 0.930 . S
H1617 C1632 0.960 . S
H1618 C1632 0.960 . S
H1619 C1632 0.960 . S
C1620 H1612 0.929 . S
C1620 C1621 1.377 . S
C1620 C1622 1.384 . S
C1621 C1620 1.377 . S
C1621 C1627 1.390 . S
C1622 H1613 0.930 . S
C1622 C1620 1.384 . S
C1622 C1623 1.372 . S
C1623 C1622 1.372 . S
C1623 C1624 1.400 . S
C1623 C1628 1.490 . S
C1624 H1614 0.930 . S
C1624 C1623 1.400 . S
C1624 C1627 1.386 . S
H1625 C1641 0.930 . S
H1626 C1642 0.931 . S
C1627 H1615 0.929 . S
C1627 C1621 1.390 . S
C1627 C1624 1.386 . S
C1628 C1623 1.490 . S
C1628 C1630 1.395 . S
C1628 C1631 1.403 . S
H1629 C1635 0.930 . S
C1630 H1616 0.930 . S
C1630 C1628 1.395 . S
C1630 C1633 1.403 . S
C1631 C1628 1.403 . S
C1631 C1632 1.524 . S
C1631 C1635 1.400 . S
C1632 H1617 0.960 . S
C1632 H1618 0.960 . S
C1632 H1619 0.960 . S
C1632 C1631 1.524 . S
C1633 C1630 1.403 . S
C1633 C1634 1.392 . S
C1633 C1637 1.495 . S
C1634 C1633 1.392 . S
C1634 C1635 1.385 . S
C1634 C1636 1.478 . S
C1635 H1629 0.930 . S
C1635 C1631 1.400 . S
C1635 C1634 1.385 . S
C1636 C1634 1.478 . S
C1636 C1638 1.381 . S
C1636 C1642 1.383 . S
C1637 C1633 1.495 . S
C1637 H1643 0.959 . S
C1637 H1644 0.961 . S
C1637 H1645 0.960 . S
C1638 C1636 1.381 . S
C1638 C1639 1.394 . S
C1638 H1646 0.930 . S
C1639 C1638 1.394 . S
C1639 C1640 1.383 . S
C1639 H1647 0.929 . S
C1640 C1639 1.383 . S
C1640 C1641 1.377 . S
C1641 H1625 0.930 . S
C1641 C1640 1.377 . S
C1641 C1642 1.379 . S
C1642 H1626 0.931 . S
C1642 C1636 1.383 . S
C1642 C1641 1.379 . S
H1643 C1637 0.959 . S
H1644 C1637 0.961 . S
H1645 C1637 0.960 . S
H1646 C1638 0.930 . S
H1647 C1639 0.929 . S
H1648 C1656 0.929 . S
H1649 C1658 0.930 . S
H1650 C1660 0.930 . S
H1651 C1663 0.929 . S
H1652 C1666 0.930 . S
H1653 C1668 0.960 . S
H1654 C1668 0.960 . S
H1655 C1668 0.960 . S
C1656 H1648 0.929 . S
C1656 C1657 1.377 . S
C1656 C1658 1.384 . S
C1657 C1656 1.377 . S
C1657 C1663 1.390 . S
C1658 H1649 0.930 . S
C1658 C1656 1.384 . S
C1658 C1659 1.372 . S
C1659 C1658 1.372 . S
C1659 C1660 1.400 . S
C1659 C1664 1.490 . S
C1660 H1650 0.930 . S
C1660 C1659 1.400 . S
C1660 C1663 1.386 . S
H1661 C1677 0.930 . S
H1662 C1678 0.931 . S
C1663 H1651 0.929 . S
C1663 C1657 1.390 . S
C1663 C1660 1.386 . S
C1664 C1659 1.490 . S
C1664 C1666 1.395 . S
C1664 C1667 1.403 . S
H1665 C1671 0.930 . S
C1666 H1652 0.930 . S
C1666 C1664 1.395 . S
C1666 C1669 1.403 . S
C1667 C1664 1.403 . S
C1667 C1668 1.524 . S
C1667 C1671 1.400 . S
C1668 H1653 0.960 . S
C1668 H1654 0.960 . S
C1668 H1655 0.960 . S
C1668 C1667 1.524 . S
C1669 C1666 1.403 . S
C1669 C1670 1.392 . S
C1669 C1673 1.495 . S
C1670 C1669 1.392 . S
C1670 C1671 1.385 . S
C1670 C1672 1.478 . S
C1671 H1665 0.930 . S
C1671 C1667 1.400 . S
C1671 C1670 1.385 . S
C1672 C1670 1.478 . S
C1672 C1674 1.381 . S
C1672 C1678 1.383 . S
C1673 C1669 1.495 . S
C1673 H1679 0.959 . S
C1673 H1680 0.961 . S
C1673 H1681 0.960 . S
C1674 C1672 1.381 . S
C1674 C1675 1.394 . S
C1674 H1682 0.930 . S
C1675 C1674 1.394 . S
C1675 C1676 1.383 . S
C1675 H1683 0.929 . S
C1676 C1675 1.383 . S
C1676 C1677 1.377 . S
C1677 H1661 0.930 . S
C1677 C1676 1.377 . S
C1677 C1678 1.379 . S
C1678 H1662 0.931 . S
C1678 C1672 1.383 . S
C1678 C1677 1.379 . S
H1679 C1673 0.959 . S
H1680 C1673 0.961 . S
H1681 C1673 0.960 . S
H1682 C1674 0.930 . S
H1683 C1675 0.929 . S
H1684 C1692 0.929 . S
H1685 C1694 0.930 . S
H1686 C1696 0.930 . S
H1687 C1699 0.929 . S
H1688 C1702 0.930 . S
H1689 C1704 0.960 . S
H1690 C1704 0.960 . S
H1691 C1704 0.960 . S
C1692 H1684 0.929 . S
C1692 C1693 1.377 . S
C1692 C1694 1.384 . S
C1693 C1692 1.377 . S
C1693 C1699 1.390 . S
C1694 H1685 0.930 . S
C1694 C1692 1.384 . S
C1694 C1695 1.372 . S
C1695 C1694 1.372 . S
C1695 C1696 1.400 . S
C1695 C1700 1.490 . S
C1696 H1686 0.930 . S
C1696 C1695 1.400 . S
C1696 C1699 1.386 . S
H1697 C1713 0.930 . S
H1698 C1714 0.931 . S
C1699 H1687 0.929 . S
C1699 C1693 1.390 . S
C1699 C1696 1.386 . S
C1700 C1695 1.490 . S
C1700 C1702 1.395 . S
C1700 C1703 1.403 . S
H1701 C1707 0.930 . S
C1702 H1688 0.930 . S
C1702 C1700 1.395 . S
C1702 C1705 1.403 . S
C1703 C1700 1.403 . S
C1703 C1704 1.524 . S
C1703 C1707 1.400 . S
C1704 H1689 0.960 . S
C1704 H1690 0.960 . S
C1704 H1691 0.960 . S
C1704 C1703 1.524 . S
C1705 C1702 1.403 . S
C1705 C1706 1.392 . S
C1705 C1709 1.495 . S
C1706 C1705 1.392 . S
C1706 C1707 1.385 . S
C1706 C1708 1.478 . S
C1707 H1701 0.930 . S
C1707 C1703 1.400 . S
C1707 C1706 1.385 . S
C1708 C1706 1.478 . S
C1708 C1710 1.381 . S
C1708 C1714 1.383 . S
C1709 C1705 1.495 . S
C1709 H1715 0.959 . S
C1709 H1716 0.961 . S
C1709 H1717 0.960 . S
C1710 C1708 1.381 . S
C1710 C1711 1.394 . S
C1710 H1718 0.930 . S
C1711 C1710 1.394 . S
C1711 C1712 1.383 . S
C1711 H1719 0.929 . S
C1712 C1711 1.383 . S
C1712 C1713 1.377 . S
C1713 H1697 0.930 . S
C1713 C1712 1.377 . S
C1713 C1714 1.379 . S
C1714 H1698 0.931 . S
C1714 C1708 1.383 . S
C1714 C1713 1.379 . S
H1715 C1709 0.959 . S
H1716 C1709 0.961 . S
H1717 C1709 0.960 . S
H1718 C1710 0.930 . S
H1719 C1711 0.929 . S
H1720 C1728 0.929 . S
H1721 C1730 0.930 . S
H1722 C1732 0.930 . S
H1723 C1735 0.929 . S
H1724 C1738 0.930 . S
H1725 C1740 0.960 . S
H1726 C1740 0.960 . S
H1727 C1740 0.960 . S
C1728 H1720 0.929 . S
C1728 C1729 1.377 . S
C1728 C1730 1.384 . S
C1729 C1728 1.377 . S
C1729 C1735 1.390 . S
C1730 H1721 0.930 . S
C1730 C1728 1.384 . S
C1730 C1731 1.372 . S
C1731 C1730 1.372 . S
C1731 C1732 1.400 . S
C1731 C1736 1.490 . S
C1732 H1722 0.930 . S
C1732 C1731 1.400 . S
C1732 C1735 1.386 . S
H1733 C1749 0.930 . S
H1734 C1750 0.931 . S
C1735 H1723 0.929 . S
C1735 C1729 1.390 . S
C1735 C1732 1.386 . S
C1736 C1731 1.490 . S
C1736 C1738 1.395 . S
C1736 C1739 1.403 . S
H1737 C1743 0.930 . S
C1738 H1724 0.930 . S
C1738 C1736 1.395 . S
C1738 C1741 1.403 . S
C1739 C1736 1.403 . S
C1739 C1740 1.524 . S
C1739 C1743 1.400 . S
C1740 H1725 0.960 . S
C1740 H1726 0.960 . S
C1740 H1727 0.960 . S
C1740 C1739 1.524 . S
C1741 C1738 1.403 . S
C1741 C1742 1.392 . S
C1741 C1745 1.495 . S
C1742 C1741 1.392 . S
C1742 C1743 1.385 . S
C1742 C1744 1.478 . S
C1743 H1737 0.930 . S
C1743 C1739 1.400 . S
C1743 C1742 1.385 . S
C1744 C1742 1.478 . S
C1744 C1746 1.381 . S
C1744 C1750 1.383 . S
C1745 C1741 1.495 . S
C1745 H1751 0.959 . S
C1745 H1752 0.961 . S
C1745 H1753 0.960 . S
C1746 C1744 1.381 . S
C1746 C1747 1.394 . S
C1746 H1754 0.930 . S
C1747 C1746 1.394 . S
C1747 C1748 1.383 . S
C1747 H1755 0.929 . S
C1748 C1747 1.383 . S
C1748 C1749 1.377 . S
C1749 H1733 0.930 . S
C1749 C1748 1.377 . S
C1749 C1750 1.379 . S
C1750 H1734 0.931 . S
C1750 C1744 1.383 . S
C1750 C1749 1.379 . S
H1751 C1745 0.959 . S
H1752 C1745 0.961 . S
H1753 C1745 0.960 . S
H1754 C1746 0.930 . S
H1755 C1747 0.929 . S
H1756 C1764 0.929 . S
H1757 C1766 0.930 . S
H1758 C1768 0.930 . S
H1759 C1771 0.929 . S
H1760 C1774 0.930 . S
H1761 C1776 0.960 . S
H1762 C1776 0.960 . S
H1763 C1776 0.960 . S
C1764 H1756 0.929 . S
C1764 C1765 1.377 . S
C1764 C1766 1.384 . S
C1765 C1764 1.377 . S
C1765 C1771 1.390 . S
C1766 H1757 0.930 . S
C1766 C1764 1.384 . S
C1766 C1767 1.372 . S
C1767 C1766 1.372 . S
C1767 C1768 1.400 . S
C1767 C1772 1.490 . S
C1768 H1758 0.930 . S
C1768 C1767 1.400 . S
C1768 C1771 1.386 . S
H1769 C1785 0.930 . S
H1770 C1786 0.931 . S
C1771 H1759 0.929 . S
C1771 C1765 1.390 . S
C1771 C1768 1.386 . S
C1772 C1767 1.490 . S
C1772 C1774 1.395 . S
C1772 C1775 1.403 . S
H1773 C1779 0.930 . S
C1774 H1760 0.930 . S
C1774 C1772 1.395 . S
C1774 C1777 1.403 . S
C1775 C1772 1.403 . S
C1775 C1776 1.524 . S
C1775 C1779 1.400 . S
C1776 H1761 0.960 . S
C1776 H1762 0.960 . S
C1776 H1763 0.960 . S
C1776 C1775 1.524 . S
C1777 C1774 1.403 . S
C1777 C1778 1.392 . S
C1777 C1781 1.495 . S
C1778 C1777 1.392 . S
C1778 C1779 1.385 . S
C1778 C1780 1.478 . S
C1779 H1773 0.930 . S
C1779 C1775 1.400 . S
C1779 C1778 1.385 . S
C1780 C1778 1.478 . S
C1780 C1782 1.381 . S
C1780 C1786 1.383 . S
C1781 C1777 1.495 . S
C1781 H1787 0.959 . S
C1781 H1788 0.961 . S
C1781 H1789 0.960 . S
C1782 C1780 1.381 . S
C1782 C1783 1.394 . S
C1782 H1790 0.930 . S
C1783 C1782 1.394 . S
C1783 C1784 1.383 . S
C1783 H1791 0.929 . S
C1784 C1783 1.383 . S
C1784 C1785 1.377 . S
C1785 H1769 0.930 . S
C1785 C1784 1.377 . S
C1785 C1786 1.379 . S
C1786 H1770 0.931 . S
C1786 C1780 1.383 . S
C1786 C1785 1.379 . S
H1787 C1781 0.959 . S
H1788 C1781 0.961 . S
H1789 C1781 0.960 . S
H1790 C1782 0.930 . S
H1791 C1783 0.929 . S
H1792 C1800 0.929 . S
H1793 C1802 0.930 . S
H1794 C1804 0.930 . S
H1795 C1807 0.929 . S
H1796 C1810 0.930 . S
H1797 C1812 0.960 . S
H1798 C1812 0.960 . S
H1799 C1812 0.960 . S
C1800 H1792 0.929 . S
C1800 C1801 1.377 . S
C1800 C1802 1.384 . S
C1801 C1800 1.377 . S
C1801 C1807 1.390 . S
C1802 H1793 0.930 . S
C1802 C1800 1.384 . S
C1802 C1803 1.372 . S
C1803 C1802 1.372 . S
C1803 C1804 1.400 . S
C1803 C1808 1.490 . S
C1804 H1794 0.930 . S
C1804 C1803 1.400 . S
C1804 C1807 1.386 . S
H1805 C1821 0.930 . S
H1806 C1822 0.931 . S
C1807 H1795 0.929 . S
C1807 C1801 1.390 . S
C1807 C1804 1.386 . S
C1808 C1803 1.490 . S
C1808 C1810 1.395 . S
C1808 C1811 1.403 . S
H1809 C1815 0.930 . S
C1810 H1796 0.930 . S
C1810 C1808 1.395 . S
C1810 C1813 1.403 . S
C1811 C1808 1.403 . S
C1811 C1812 1.524 . S
C1811 C1815 1.400 . S
C1812 H1797 0.960 . S
C1812 H1798 0.960 . S
C1812 H1799 0.960 . S
C1812 C1811 1.524 . S
C1813 C1810 1.403 . S
C1813 C1814 1.392 . S
C1813 C1817 1.495 . S
C1814 C1813 1.392 . S
C1814 C1815 1.385 . S
C1814 C1816 1.478 . S
C1815 H1809 0.930 . S
C1815 C1811 1.400 . S
C1815 C1814 1.385 . S
C1816 C1814 1.478 . S
C1816 C1818 1.381 . S
C1816 C1822 1.383 . S
C1817 C1813 1.495 . S
C1817 H1823 0.959 . S
C1817 H1824 0.961 . S
C1817 H1825 0.960 . S
C1818 C1816 1.381 . S
C1818 C1819 1.394 . S
C1818 H1826 0.930 . S
C1819 C1818 1.394 . S
C1819 C1820 1.383 . S
C1819 H1827 0.929 . S
C1820 C1819 1.383 . S
C1820 C1821 1.377 . S
C1821 H1805 0.930 . S
C1821 C1820 1.377 . S
C1821 C1822 1.379 . S
C1822 H1806 0.931 . S
C1822 C1816 1.383 . S
C1822 C1821 1.379 . S
H1823 C1817 0.959 . S
H1824 C1817 0.961 . S
H1825 C1817 0.960 . S
H1826 C1818 0.930 . S
H1827 C1819 0.929 . S
H1828 C1836 0.929 . S
H1829 C1838 0.930 . S
H1830 C1840 0.930 . S
H1831 C1843 0.929 . S
H1832 C1846 0.930 . S
H1833 C1848 0.960 . S
H1834 C1848 0.960 . S
H1835 C1848 0.960 . S
C1836 H1828 0.929 . S
C1836 C1837 1.377 . S
C1836 C1838 1.384 . S
C1837 C1836 1.377 . S
C1837 C1843 1.390 . S
C1838 H1829 0.930 . S
C1838 C1836 1.384 . S
C1838 C1839 1.372 . S
C1839 C1838 1.372 . S
C1839 C1840 1.400 . S
C1839 C1844 1.490 . S
C1840 H1830 0.930 . S
C1840 C1839 1.400 . S
C1840 C1843 1.386 . S
H1841 C1857 0.930 . S
H1842 C1858 0.931 . S
C1843 H1831 0.929 . S
C1843 C1837 1.390 . S
C1843 C1840 1.386 . S
C1844 C1839 1.490 . S
C1844 C1846 1.395 . S
C1844 C1847 1.403 . S
H1845 C1851 0.930 . S
C1846 H1832 0.930 . S
C1846 C1844 1.395 . S
C1846 C1849 1.403 . S
C1847 C1844 1.403 . S
C1847 C1848 1.524 . S
C1847 C1851 1.400 . S
C1848 H1833 0.960 . S
C1848 H1834 0.960 . S
C1848 H1835 0.960 . S
C1848 C1847 1.524 . S
C1849 C1846 1.403 . S
C1849 C1850 1.392 . S
C1849 C1853 1.495 . S
C1850 C1849 1.392 . S
C1850 C1851 1.385 . S
C1850 C1852 1.478 . S
C1851 H1845 0.930 . S
C1851 C1847 1.400 . S
C1851 C1850 1.385 . S
C1852 C1850 1.478 . S
C1852 C1854 1.381 . S
C1852 C1858 1.383 . S
C1853 C1849 1.495 . S
C1853 H1859 0.959 . S
C1853 H1860 0.961 . S
C1853 H1861 0.960 . S
C1854 C1852 1.381 . S
C1854 C1855 1.394 . S
C1854 H1862 0.930 . S
C1855 C1854 1.394 . S
C1855 C1856 1.383 . S
C1855 H1863 0.929 . S
C1856 C1855 1.383 . S
C1856 C1857 1.377 . S
C1857 H1841 0.930 . S
C1857 C1856 1.377 . S
C1857 C1858 1.379 . S
C1858 H1842 0.931 . S
C1858 C1852 1.383 . S
C1858 C1857 1.379 . S
H1859 C1853 0.959 . S
H1860 C1853 0.961 . S
H1861 C1853 0.960 . S
H1862 C1854 0.930 . S
H1863 C1855 0.929 . S
H1864 C1872 0.929 . S
H1865 C1874 0.930 . S
H1866 C1876 0.930 . S
H1867 C1879 0.929 . S
H1868 C1882 0.930 . S
H1869 C1884 0.960 . S
H1870 C1884 0.960 . S
H1871 C1884 0.960 . S
C1872 H1864 0.929 . S
C1872 C1873 1.377 . S
C1872 C1874 1.384 . S
C1873 C1872 1.377 . S
C1873 C1879 1.390 . S
C1874 H1865 0.930 . S
C1874 C1872 1.384 . S
C1874 C1875 1.372 . S
C1875 C1874 1.372 . S
C1875 C1876 1.400 . S
C1875 C1880 1.490 . S
C1876 H1866 0.930 . S
C1876 C1875 1.400 . S
C1876 C1879 1.386 . S
H1877 C1893 0.930 . S
H1878 C1894 0.931 . S
C1879 H1867 0.929 . S
C1879 C1873 1.390 . S
C1879 C1876 1.386 . S
C1880 C1875 1.490 . S
C1880 C1882 1.395 . S
C1880 C1883 1.403 . S
H1881 C1887 0.930 . S
C1882 H1868 0.930 . S
C1882 C1880 1.395 . S
C1882 C1885 1.403 . S
C1883 C1880 1.403 . S
C1883 C1884 1.524 . S
C1883 C1887 1.400 . S
C1884 H1869 0.960 . S
C1884 H1870 0.960 . S
C1884 H1871 0.960 . S
C1884 C1883 1.524 . S
C1885 C1882 1.403 . S
C1885 C1886 1.392 . S
C1885 C1889 1.495 . S
C1886 C1885 1.392 . S
C1886 C1887 1.385 . S
C1886 C1888 1.478 . S
C1887 H1881 0.930 . S
C1887 C1883 1.400 . S
C1887 C1886 1.385 . S
C1888 C1886 1.478 . S
C1888 C1890 1.381 . S
C1888 C1894 1.383 . S
C1889 C1885 1.495 . S
C1889 H1895 0.959 . S
C1889 H1896 0.961 . S
C1889 H1897 0.960 . S
C1890 C1888 1.381 . S
C1890 C1891 1.394 . S
C1890 H1898 0.930 . S
C1891 C1890 1.394 . S
C1891 C1892 1.383 . S
C1891 H1899 0.929 . S
C1892 C1891 1.383 . S
C1892 C1893 1.377 . S
C1893 H1877 0.930 . S
C1893 C1892 1.377 . S
C1893 C1894 1.379 . S
C1894 H1878 0.931 . S
C1894 C1888 1.383 . S
C1894 C1893 1.379 . S
H1895 C1889 0.959 . S
H1896 C1889 0.961 . S
H1897 C1889 0.960 . S
H1898 C1890 0.930 . S
H1899 C1891 0.929 . S
H1900 C1908 0.929 . S
H1901 C1910 0.930 . S
H1902 C1912 0.930 . S
H1903 C1915 0.929 . S
H1904 C1918 0.930 . S
H1905 C1920 0.960 . S
H1906 C1920 0.960 . S
H1907 C1920 0.960 . S
C1908 H1900 0.929 . S
C1908 C1909 1.377 . S
C1908 C1910 1.384 . S
C1909 C1908 1.377 . S
C1909 C1915 1.390 . S
C1910 H1901 0.930 . S
C1910 C1908 1.384 . S
C1910 C1911 1.372 . S
C1911 C1910 1.372 . S
C1911 C1912 1.400 . S
C1911 C1916 1.490 . S
C1912 H1902 0.930 . S
C1912 C1911 1.400 . S
C1912 C1915 1.386 . S
H1913 C1929 0.930 . S
H1914 C1930 0.931 . S
C1915 H1903 0.929 . S
C1915 C1909 1.390 . S
C1915 C1912 1.386 . S
C1916 C1911 1.490 . S
C1916 C1918 1.395 . S
C1916 C1919 1.403 . S
H1917 C1923 0.930 . S
C1918 H1904 0.930 . S
C1918 C1916 1.395 . S
C1918 C1921 1.403 . S
C1919 C1916 1.403 . S
C1919 C1920 1.524 . S
C1919 C1923 1.400 . S
C1920 H1905 0.960 . S
C1920 H1906 0.960 . S
C1920 H1907 0.960 . S
C1920 C1919 1.524 . S
C1921 C1918 1.403 . S
C1921 C1922 1.392 . S
C1921 C1925 1.495 . S
C1922 C1921 1.392 . S
C1922 C1923 1.385 . S
C1922 C1924 1.478 . S
C1923 H1917 0.930 . S
C1923 C1919 1.400 . S
C1923 C1922 1.385 . S
C1924 C1922 1.478 . S
C1924 C1926 1.381 . S
C1924 C1930 1.383 . S
C1925 C1921 1.495 . S
C1925 H1931 0.959 . S
C1925 H1932 0.961 . S
C1925 H1933 0.960 . S
C1926 C1924 1.381 . S
C1926 C1927 1.394 . S
C1926 H1934 0.930 . S
C1927 C1926 1.394 . S
C1927 C1928 1.383 . S
C1927 H1935 0.929 . S
C1928 C1927 1.383 . S
C1928 C1929 1.377 . S
C1929 H1913 0.930 . S
C1929 C1928 1.377 . S
C1929 C1930 1.379 . S
C1930 H1914 0.931 . S
C1930 C1924 1.383 . S
C1930 C1929 1.379 . S
H1931 C1925 0.959 . S
H1932 C1925 0.961 . S
H1933 C1925 0.960 . S
H1934 C1926 0.930 . S
H1935 C1927 0.929 . S
H1936 C1944 0.929 . S
H1937 C1946 0.930 . S
H1938 C1948 0.930 . S
H1939 C1951 0.929 . S
H1940 C1954 0.930 . S
H1941 C1956 0.960 . S
H1942 C1956 0.960 . S
H1943 C1956 0.960 . S
C1944 H1936 0.929 . S
C1944 C1945 1.377 . S
C1944 C1946 1.384 . S
C1945 C1944 1.377 . S
C1945 C1951 1.390 . S
C1946 H1937 0.930 . S
C1946 C1944 1.384 . S
C1946 C1947 1.372 . S
C1947 C1946 1.372 . S
C1947 C1948 1.400 . S
C1947 C1952 1.490 . S
C1948 H1938 0.930 . S
C1948 C1947 1.400 . S
C1948 C1951 1.386 . S
H1949 C1965 0.930 . S
H1950 C1966 0.931 . S
C1951 H1939 0.929 . S
C1951 C1945 1.390 . S
C1951 C1948 1.386 . S
C1952 C1947 1.490 . S
C1952 C1954 1.395 . S
C1952 C1955 1.403 . S
H1953 C1959 0.930 . S
C1954 H1940 0.930 . S
C1954 C1952 1.395 . S
C1954 C1957 1.403 . S
C1955 C1952 1.403 . S
C1955 C1956 1.524 . S
C1955 C1959 1.400 . S
C1956 H1941 0.960 . S
C1956 H1942 0.960 . S
C1956 H1943 0.960 . S
C1956 C1955 1.524 . S
C1957 C1954 1.403 . S
C1957 C1958 1.392 . S
C1957 C1961 1.495 . S
C1958 C1957 1.392 . S
C1958 C1959 1.385 . S
C1958 C1960 1.478 . S
C1959 H1953 0.930 . S
C1959 C1955 1.400 . S
C1959 C1958 1.385 . S
C1960 C1958 1.478 . S
C1960 C1962 1.381 . S
C1960 C1966 1.383 . S
C1961 C1957 1.495 . S
C1961 H1967 0.959 . S
C1961 H1968 0.961 . S
C1961 H1969 0.960 . S
C1962 C1960 1.381 . S
C1962 C1963 1.394 . S
C1962 H1970 0.930 . S
C1963 C1962 1.394 . S
C1963 C1964 1.383 . S
C1963 H1971 0.929 . S
C1964 C1963 1.383 . S
C1964 C1965 1.377 . S
C1965 H1949 0.930 . S
C1965 C1964 1.377 . S
C1965 C1966 1.379 . S
C1966 H1950 0.931 . S
C1966 C1960 1.383 . S
C1966 C1965 1.379 . S
H1967 C1961 0.959 . S
H1968 C1961 0.961 . S
H1969 C1961 0.960 . S
H1970 C1962 0.930 . S
H1971 C1963 0.929 . S
H1972 C1980 0.929 . S
H1973 C1982 0.930 . S
H1974 C1984 0.930 . S
H1975 C1987 0.929 . S
H1976 C1990 0.930 . S
H1977 C1992 0.960 . S
H1978 C1992 0.960 . S
H1979 C1992 0.960 . S
C1980 H1972 0.929 . S
C1980 C1981 1.377 . S
C1980 C1982 1.384 . S
C1981 C1980 1.377 . S
C1981 C1987 1.390 . S
C1982 H1973 0.930 . S
C1982 C1980 1.384 . S
C1982 C1983 1.372 . S
C1983 C1982 1.372 . S
C1983 C1984 1.400 . S
C1983 C1988 1.490 . S
C1984 H1974 0.930 . S
C1984 C1983 1.400 . S
C1984 C1987 1.386 . S
H1985 C2001 0.930 . S
H1986 C2002 0.931 . S
C1987 H1975 0.929 . S
C1987 C1981 1.390 . S
C1987 C1984 1.386 . S
C1988 C1983 1.490 . S
C1988 C1990 1.395 . S
C1988 C1991 1.403 . S
H1989 C1995 0.930 . S
C1990 H1976 0.930 . S
C1990 C1988 1.395 . S
C1990 C1993 1.403 . S
C1991 C1988 1.403 . S
C1991 C1992 1.524 . S
C1991 C1995 1.400 . S
C1992 H1977 0.960 . S
C1992 H1978 0.960 . S
C1992 H1979 0.960 . S
C1992 C1991 1.524 . S
C1993 C1990 1.403 . S
C1993 C1994 1.392 . S
C1993 C1997 1.495 . S
C1994 C1993 1.392 . S
C1994 C1995 1.385 . S
C1994 C1996 1.478 . S
C1995 H1989 0.930 . S
C1995 C1991 1.400 . S
C1995 C1994 1.385 . S
C1996 C1994 1.478 . S
C1996 C1998 1.381 . S
C1996 C2002 1.383 . S
C1997 C1993 1.495 . S
C1997 H2003 0.959 . S
C1997 H2004 0.961 . S
C1997 H2005 0.960 . S
C1998 C1996 1.381 . S
C1998 C1999 1.394 . S
C1998 H2006 0.930 . S
C1999 C1998 1.394 . S
C1999 C2000 1.383 . S
C1999 H2007 0.929 . S
C2000 C1999 1.383 . S
C2000 C2001 1.377 . S
C2001 H1985 0.930 . S
C2001 C2000 1.377 . S
C2001 C2002 1.379 . S
C2002 H1986 0.931 . S
C2002 C1996 1.383 . S
C2002 C2001 1.379 . S
H2003 C1997 0.959 . S
H2004 C1997 0.961 . S
H2005 C1997 0.960 . S
H2006 C1998 0.930 . S
H2007 C1999 0.929 . S
H2008 C2016 0.929 . S
H2009 C2018 0.930 . S
H2010 C2020 0.930 . S
H2011 C2023 0.929 . S
H2012 C2026 0.930 . S
H2013 C2028 0.960 . S
H2014 C2028 0.960 . S
H2015 C2028 0.960 . S
C2016 H2008 0.929 . S
C2016 C2017 1.377 . S
C2016 C2018 1.384 . S
C2017 C2016 1.377 . S
C2017 C2023 1.390 . S
C2018 H2009 0.930 . S
C2018 C2016 1.384 . S
C2018 C2019 1.372 . S
C2019 C2018 1.372 . S
C2019 C2020 1.400 . S
C2019 C2024 1.490 . S
C2020 H2010 0.930 . S
C2020 C2019 1.400 . S
C2020 C2023 1.386 . S
H2021 C2037 0.930 . S
H2022 C2038 0.931 . S
C2023 H2011 0.929 . S
C2023 C2017 1.390 . S
C2023 C2020 1.386 . S
C2024 C2019 1.490 . S
C2024 C2026 1.395 . S
C2024 C2027 1.403 . S
H2025 C2031 0.930 . S
C2026 H2012 0.930 . S
C2026 C2024 1.395 . S
C2026 C2029 1.403 . S
C2027 C2024 1.403 . S
C2027 C2028 1.524 . S
C2027 C2031 1.400 . S
C2028 H2013 0.960 . S
C2028 H2014 0.960 . S
C2028 H2015 0.960 . S
C2028 C2027 1.524 . S
C2029 C2026 1.403 . S
C2029 C2030 1.392 . S
C2029 C2033 1.495 . S
C2030 C2029 1.392 . S
C2030 C2031 1.385 . S
C2030 C2032 1.478 . S
C2031 H2025 0.930 . S
C2031 C2027 1.400 . S
C2031 C2030 1.385 . S
C2032 C2030 1.478 . S
C2032 C2034 1.381 . S
C2032 C2038 1.383 . S
C2033 C2029 1.495 . S
C2033 H2039 0.959 . S
C2033 H2040 0.961 . S
C2033 H2041 0.960 . S
C2034 C2032 1.381 . S
C2034 C2035 1.394 . S
C2034 H2042 0.930 . S
C2035 C2034 1.394 . S
C2035 C2036 1.383 . S
C2035 H2043 0.929 . S
C2036 C2035 1.383 . S
C2036 C2037 1.377 . S
C2037 H2021 0.930 . S
C2037 C2036 1.377 . S
C2037 C2038 1.379 . S
C2038 H2022 0.931 . S
C2038 C2032 1.383 . S
C2038 C2037 1.379 . S
H2039 C2033 0.959 . S
H2040 C2033 0.961 . S
H2041 C2033 0.960 . S
H2042 C2034 0.930 . S
H2043 C2035 0.929 . S
H2044 C2052 0.929 . S
H2045 C2054 0.930 . S
H2046 C2056 0.930 . S
H2047 C2059 0.929 . S
H2048 C2062 0.930 . S
H2049 C2064 0.960 . S
H2050 C2064 0.960 . S
H2051 C2064 0.960 . S
C2052 H2044 0.929 . S
C2052 C2053 1.377 . S
C2052 C2054 1.384 . S
C2053 C2052 1.377 . S
C2053 C2059 1.390 . S
C2054 H2045 0.930 . S
C2054 C2052 1.384 . S
C2054 C2055 1.372 . S
C2055 C2054 1.372 . S
C2055 C2056 1.400 . S
C2055 C2060 1.490 . S
C2056 H2046 0.930 . S
C2056 C2055 1.400 . S
C2056 C2059 1.386 . S
H2057 C2073 0.930 . S
H2058 C2074 0.931 . S
C2059 H2047 0.929 . S
C2059 C2053 1.390 . S
C2059 C2056 1.386 . S
C2060 C2055 1.490 . S
C2060 C2062 1.395 . S
C2060 C2063 1.403 . S
H2061 C2067 0.930 . S
C2062 H2048 0.930 . S
C2062 C2060 1.395 . S
C2062 C2065 1.403 . S
C2063 C2060 1.403 . S
C2063 C2064 1.524 . S
C2063 C2067 1.400 . S
C2064 H2049 0.960 . S
C2064 H2050 0.960 . S
C2064 H2051 0.960 . S
C2064 C2063 1.524 . S
C2065 C2062 1.403 . S
C2065 C2066 1.392 . S
C2065 C2069 1.495 . S
C2066 C2065 1.392 . S
C2066 C2067 1.385 . S
C2066 C2068 1.478 . S
C2067 H2061 0.930 . S
C2067 C2063 1.400 . S
C2067 C2066 1.385 . S
C2068 C2066 1.478 . S
C2068 C2070 1.381 . S
C2068 C2074 1.383 . S
C2069 C2065 1.495 . S
C2069 H2075 0.959 . S
C2069 H2076 0.961 . S
C2069 H2077 0.960 . S
C2070 C2068 1.381 . S
C2070 C2071 1.394 . S
C2070 H2078 0.930 . S
C2071 C2070 1.394 . S
C2071 C2072 1.383 . S
C2071 H2079 0.929 . S
C2072 C2071 1.383 . S
C2072 C2073 1.377 . S
C2073 H2057 0.930 . S
C2073 C2072 1.377 . S
C2073 C2074 1.379 . S
C2074 H2058 0.931 . S
C2074 C2068 1.383 . S
C2074 C2073 1.379 . S
H2075 C2069 0.959 . S
H2076 C2069 0.961 . S
H2077 C2069 0.960 . S
H2078 C2070 0.930 . S
H2079 C2071 0.929 . S
C361 C5 0.721 . S
C380 C159 0.715 . S
C397 C93 0.700 . S
C416 C27 0.659 . S
C433 C119 0.722 . S
C452 C53 0.761 . S
C469 C75 0.702 . S
C488 C141 0.724 . S
C505 C336 0.707 . S
C524 C182 0.728 . S
C541 C270 0.714 . S
C560 C204 0.695 . S
C577 C293 0.722 . S
C596 C227 0.655 . S
C613 C315 0.719 . S
C632 C249 0.670 . S
C649 C6 1.267 . S
C668 C335 1.273 . S
C685 C28 1.267 . S
C704 C269 1.275 . S
C721 C51 1.270 . S
C740 C295 1.258 . S
C757 C317 1.267 . S
C776 C73 1.231 . S
C793 C203 1.269 . S
C812 C94 1.234 . S
C829 C117 1.269 . S
C848 C229 1.265 . S
C865 C251 1.270 . S
C884 C139 1.243 . S
C901 C160 1.265 . S
C920 C181 1.282 . S
C937 C268 1.548 . S
C956 C9 1.571 . S
C973 C31 1.581 . S
C992 C294 1.531 . S
C1009 C316 1.557 . S
C1028 C49 1.588 . S
C1045 C334 1.549 . S
C1064 C71 1.571 . S
C1081 C97 1.582 . S
C1100 C180 1.542 . S
C1117 C115 1.581 . S
C1136 C202 1.529 . S
C1153 C137 1.581 . S
C1172 C228 1.536 . S
C1189 C250 1.550 . S
C1208 C163 1.573 . S
C1225 C183 1.581 . S
C1244 C92 1.568 . S
C1261 C205 1.582 . S
C1280 C118 1.536 . S
C1297 C140 1.556 . S
C1316 C226 1.571 . S
C1333 C248 1.582 . S
C1352 C158 1.537 . S
C1369 C271 1.583 . S
C1388 C4 1.532 . S
C1405 C292 1.584 . S
C1424 C26 1.534 . S
C1441 C52 1.549 . S
C1460 C314 1.587 . S
C1477 C74 1.553 . S
C1496 C337 1.571 . S
C1513 C8 1.410 . S
C1532 C207 1.316 . S
C1549 C225 1.349 . S
C1568 C30 1.412 . S
C1585 C48 1.410 . S
C1604 C247 1.374 . S
C1621 C70 1.408 . S
C1640 C185 1.371 . S
C1657 C96 1.411 . S
C1676 C339 1.348 . S
C1693 C114 1.406 . S
C1712 C273 1.326 . S
C1729 C136 1.410 . S
C1748 C291 1.319 . S
C1765 C313 1.336 . S
C1784 C162 1.400 . S
C1801 C29 1.350 . S
C1820 C184 1.412 . S
C1837 C50 1.342 . S
C1856 C206 1.396 . S
C1873 C224 1.406 . S
C1892 C72 1.325 . S
C1909 C246 1.411 . S
C1928 C7 1.374 . S
C1945 C161 1.346 . S
C1964 C272 1.402 . S
C1981 C95 1.338 . S
C2000 C290 1.407 . S
C2017 C116 1.350 . S
C2036 C312 1.415 . S
C2053 C138 1.340 . S
C2072 C338 1.410 . S
