# Generated by pormake.
# Topology wiv, (6)-cn, num edge types: 1
# Building blocks:
#     Node 0, Type 0, BuildingBlock: INOVEN_clean_sbu_0, # of connection points: 6
#     Node 1, Type 0, BuildingBlock: INOVEN_clean_sbu_0, # of connection points: 6
#     Node 2, Type 0, BuildingBlock: INOVEN_clean_sbu_0, # of connection points: 6
#     Node 3, Type 0, BuildingBlock: INOVEN_clean_sbu_0, # of connection points: 6
#     Node 4, Type 0, BuildingBlock: INOVEN_clean_sbu_0, # of connection points: 6
#     Node 5, Type 0, BuildingBlock: INOVEN_clean_sbu_0, # of connection points: 6
#     Node 6, Type 0, BuildingBlock: INOVEN_clean_sbu_0, # of connection points: 6
#     Node 7, Type 0, BuildingBlock: INOVEN_clean_sbu_0, # of connection points: 6
#     Node 8, Type 0, BuildingBlock: INOVEN_clean_sbu_0, # of connection points: 6
#     Node 9, Type 0, BuildingBlock: INOVEN_clean_sbu_0, # of connection points: 6
#     Node 10, Type 0, BuildingBlock: INOVEN_clean_sbu_0, # of connection points: 6
#     Node 11, Type 0, BuildingBlock: INOVEN_clean_sbu_0, # of connection points: 6
#     Node 12, Type 0, BuildingBlock: INOVEN_clean_sbu_0, # of connection points: 6
#     Node 13, Type 0, BuildingBlock: INOVEN_clean_sbu_0, # of connection points: 6
#     Node 14, Type 0, BuildingBlock: INOVEN_clean_sbu_0, # of connection points: 6
#     Node 15, Type 0, BuildingBlock: INOVEN_clean_sbu_0, # of connection points: 6
#     Edge 16, Type (0, 0), BuildingBlock: MIFKUJ_clean_linker_0, # of connection points: 2
#     Edge 17, Type (0, 0), BuildingBlock: MIFKUJ_clean_linker_0, # of connection points: 2
#     Edge 18, Type (0, 0), BuildingBlock: MIFKUJ_clean_linker_0, # of connection points: 2
#     Edge 19, Type (0, 0), BuildingBlock: MIFKUJ_clean_linker_0, # of connection points: 2
#     Edge 20, Type (0, 0), BuildingBlock: MIFKUJ_clean_linker_0, # of connection points: 2
#     Edge 21, Type (0, 0), BuildingBlock: MIFKUJ_clean_linker_0, # of connection points: 2
#     Edge 22, Type (0, 0), BuildingBlock: MIFKUJ_clean_linker_0, # of connection points: 2
#     Edge 23, Type (0, 0), BuildingBlock: MIFKUJ_clean_linker_0, # of connection points: 2
#     Edge 24, Type (0, 0), BuildingBlock: MIFKUJ_clean_linker_0, # of connection points: 2
#     Edge 25, Type (0, 0), BuildingBlock: MIFKUJ_clean_linker_0, # of connection points: 2
#     Edge 26, Type (0, 0), BuildingBlock: MIFKUJ_clean_linker_0, # of connection points: 2
#     Edge 27, Type (0, 0), BuildingBlock: MIFKUJ_clean_linker_0, # of connection points: 2
#     Edge 28, Type (0, 0), BuildingBlock: MIFKUJ_clean_linker_0, # of connection points: 2
#     Edge 29, Type (0, 0), BuildingBlock: MIFKUJ_clean_linker_0, # of connection points: 2
#     Edge 30, Type (0, 0), BuildingBlock: MIFKUJ_clean_linker_0, # of connection points: 2
#     Edge 31, Type (0, 0), BuildingBlock: MIFKUJ_clean_linker_0, # of connection points: 2
#     Edge 32, Type (0, 0), BuildingBlock: MIFKUJ_clean_linker_0, # of connection points: 2
#     Edge 33, Type (0, 0), BuildingBlock: MIFKUJ_clean_linker_0, # of connection points: 2
#     Edge 34, Type (0, 0), BuildingBlock: MIFKUJ_clean_linker_0, # of connection points: 2
#     Edge 35, Type (0, 0), BuildingBlock: MIFKUJ_clean_linker_0, # of connection points: 2
#     Edge 36, Type (0, 0), BuildingBlock: MIFKUJ_clean_linker_0, # of connection points: 2
#     Edge 37, Type (0, 0), BuildingBlock: MIFKUJ_clean_linker_0, # of connection points: 2
#     Edge 38, Type (0, 0), BuildingBlock: MIFKUJ_clean_linker_0, # of connection points: 2
#     Edge 39, Type (0, 0), BuildingBlock: MIFKUJ_clean_linker_0, # of connection points: 2
#     Edge 40, Type (0, 0), BuildingBlock: MIFKUJ_clean_linker_0, # of connection points: 2
#     Edge 41, Type (0, 0), BuildingBlock: MIFKUJ_clean_linker_0, # of connection points: 2
#     Edge 42, Type (0, 0), BuildingBlock: MIFKUJ_clean_linker_0, # of connection points: 2
#     Edge 43, Type (0, 0), BuildingBlock: MIFKUJ_clean_linker_0, # of connection points: 2
#     Edge 44, Type (0, 0), BuildingBlock: MIFKUJ_clean_linker_0, # of connection points: 2
#     Edge 45, Type (0, 0), BuildingBlock: MIFKUJ_clean_linker_0, # of connection points: 2
#     Edge 46, Type (0, 0), BuildingBlock: MIFKUJ_clean_linker_0, # of connection points: 2
#     Edge 47, Type (0, 0), BuildingBlock: MIFKUJ_clean_linker_0, # of connection points: 2
#     Edge 48, Type (0, 0), BuildingBlock: MIFKUJ_clean_linker_0, # of connection points: 2
#     Edge 49, Type (0, 0), BuildingBlock: MIFKUJ_clean_linker_0, # of connection points: 2
#     Edge 50, Type (0, 0), BuildingBlock: MIFKUJ_clean_linker_0, # of connection points: 2
#     Edge 51, Type (0, 0), BuildingBlock: MIFKUJ_clean_linker_0, # of connection points: 2
#     Edge 52, Type (0, 0), BuildingBlock: MIFKUJ_clean_linker_0, # of connection points: 2
#     Edge 53, Type (0, 0), BuildingBlock: MIFKUJ_clean_linker_0, # of connection points: 2
#     Edge 54, Type (0, 0), BuildingBlock: MIFKUJ_clean_linker_0, # of connection points: 2
#     Edge 55, Type (0, 0), BuildingBlock: MIFKUJ_clean_linker_0, # of connection points: 2
#     Edge 56, Type (0, 0), BuildingBlock: MIFKUJ_clean_linker_0, # of connection points: 2
#     Edge 57, Type (0, 0), BuildingBlock: MIFKUJ_clean_linker_0, # of connection points: 2
#     Edge 58, Type (0, 0), BuildingBlock: MIFKUJ_clean_linker_0, # of connection points: 2
#     Edge 59, Type (0, 0), BuildingBlock: MIFKUJ_clean_linker_0, # of connection points: 2
#     Edge 60, Type (0, 0), BuildingBlock: MIFKUJ_clean_linker_0, # of connection points: 2
#     Edge 61, Type (0, 0), BuildingBlock: MIFKUJ_clean_linker_0, # of connection points: 2
#     Edge 62, Type (0, 0), BuildingBlock: MIFKUJ_clean_linker_0, # of connection points: 2
#     Edge 63, Type (0, 0), BuildingBlock: MIFKUJ_clean_linker_0, # of connection points: 2
# Relax obj value: 0.090
# Max RMSD: 0.160
# Mean RMSD: 0.160
data_MOF--net-wiv--node1-INOVEN_clean_sbu_0--edge1-MIFKUJ_clean_linker_0
_symmetry_space_group_name_H-M    P1
_symmetry_Int_Tables_number       1
_symmetry_cell_setting            triclinic
loop_
_symmetry_equiv_pos_as_xyz
'x, y, z'
_cell_length_a     68.744048
_cell_length_b     68.679755
_cell_length_c     29.774757
_cell_angle_alpha  90.045932
_cell_angle_beta   90.003925
_cell_angle_gamma 89.968995
loop_
_atom_site_label
_atom_site_type_symbol
_atom_site_fract_x
_atom_site_fract_y
_atom_site_fract_z
_atom_type_partial_charge
Gd0 Gd 0.35326 0.11162 0.15505 0.0
Gd1 Gd 0.3786 0.11482 0.07489 0.0
C2 C 0.40062 0.11867 0.16732 0.0
C3 C 0.33857 0.10205 0.23236 0.0
C4 C 0.34327 0.10373 0.28083 0.0
C5 C 0.34953 0.12136 0.30002 0.0
C6 C 0.34096 0.08742 0.30868 0.0
C7 C 0.35051 0.10639 0.37446 0.0
C8 C 0.34457 0.0887 0.3549 0.0
C9 C 0.35304 0.12269 0.34635 0.0
C10 C 0.35701 0.14873 0.12482 0.0
C11 C 0.33169 0.10965 0.06009 0.0
C12 C 0.39364 0.123 0.99719 0.0
C13 C 0.38828 0.12146 0.94903 0.0
C14 C 0.38143 0.10394 0.93032 0.0
C15 C 0.39057 0.1377 0.92092 0.0
C16 C 0.37992 0.11882 0.8559 0.0
C17 C 0.38639 0.13643 0.87495 0.0
C18 C 0.37738 0.10262 0.88426 0.0
C19 C 0.37652 0.07851 0.11061 0.0
O20 O 0.38406 0.11239 0.18523 0.0
O21 O 0.40151 0.12344 0.12442 0.0
O22 O 0.33404 0.11803 0.2109 0.0
O23 O 0.3495 0.0904 0.20854 0.0
O24 O 0.34092 0.14122 0.13948 0.0
O25 O 0.37052 0.13629 0.12732 0.0
O26 O 0.34852 0.11578 0.04415 0.0
O27 O 0.33007 0.10451 0.10286 0.0
O28 O 0.397 0.10677 0.01881 0.0
O29 O 0.38398 0.13567 0.02132 0.0
O30 O 0.39222 0.08618 0.09431 0.0
O31 O 0.36234 0.09002 0.10512 0.0
H32 H 0.3516 0.13416 0.27933 0.0
H33 H 0.33612 0.07368 0.29472 0.0
H34 H 0.34228 0.07591 0.37547 0.0
H35 H 0.35786 0.13647 0.36013 0.0
H36 H 0.37934 0.09119 0.95116 0.0
H37 H 0.39585 0.15135 0.93447 0.0
H38 H 0.38867 0.14914 0.85412 0.0
H39 H 0.37216 0.08892 0.87085 0.0
Gd40 Gd 0.11328 0.63056 0.96037 0.0
Gd41 Gd 0.11251 0.65625 0.88069 0.0
C42 C 0.10951 0.67763 0.97566 0.0
C43 C 0.11909 0.61397 0.03778 0.0
C44 C 0.11894 0.61875 0.08621 0.0
C45 C 0.11035 0.6359 0.10246 0.0
C46 C 0.12715 0.60564 0.11684 0.0
C47 C 0.11844 0.62684 0.17978 0.0
C48 C 0.12682 0.60954 0.16301 0.0
C49 C 0.11024 0.64 0.14867 0.0
C50 C 0.07786 0.63343 0.92032 0.0
C51 C 0.1189 0.6088 0.86768 0.0
C52 C 0.10483 0.67129 0.80258 0.0
C53 C 0.10674 0.66627 0.75424 0.0
C54 C 0.12483 0.66178 0.73469 0.0
C55 C 0.09012 0.66651 0.72679 0.0
C56 C 0.10963 0.65837 0.66087 0.0
C57 C 0.09152 0.66255 0.68073 0.0
C58 C 0.12625 0.65794 0.68851 0.0
C59 C 0.14869 0.65227 0.91596 0.0
O60 O 0.11482 0.66053 0.99187 0.0
O61 O 0.10523 0.67955 0.93246 0.0
O62 O 0.10231 0.61423 0.01723 0.0
O63 O 0.13303 0.62157 1.01358 0.0
O64 O 0.08497 0.6175 0.93686 0.0
O65 O 0.08948 0.64741 0.92729 0.0
O66 O 0.11426 0.62578 0.84927 0.0
O67 O 0.12157 0.60724 0.91141 0.0
O68 O 0.12074 0.67496 0.82513 0.0
O69 O 0.09227 0.66119 0.82581 0.0
O70 O 0.14149 0.66842 0.90066 0.0
O71 O 0.13635 0.63869 0.91148 0.0
H72 H 0.10362 0.64604 0.07941 0.0
H73 H 0.13366 0.5922 0.10508 0.0
H74 H 0.13287 0.59877 0.18554 0.0
H75 H 0.10384 0.65357 0.15984 0.0
H76 H 0.13791 0.66136 0.75493 0.0
H77 H 0.07602 0.66999 0.74093 0.0
H78 H 0.07845 0.66322 0.66049 0.0
H79 H 0.14038 0.65452 0.67449 0.0
Gd80 Gd 0.65515 0.89455 0.15715 0.0
Gd81 Gd 0.62957 0.89259 0.07746 0.0
C82 C 0.60779 0.88757 0.16999 0.0
C83 C 0.67033 0.90282 0.23486 0.0
C84 C 0.66596 0.90087 0.28356 0.0
C85 C 0.66641 0.88269 0.30529 0.0
C86 C 0.6623 0.91762 0.30935 0.0
C87 C 0.65993 0.89815 0.37774 0.0
C88 C 0.65926 0.91628 0.35576 0.0
C89 C 0.66341 0.88135 0.35176 0.0
C90 C 0.65175 0.85795 0.1237 0.0
C91 C 0.67629 0.89888 0.0616 0.0
C92 C 0.61456 0.88444 0.99978 0.0
C93 C 0.62007 0.88579 0.95157 0.0
C94 C 0.62039 0.90374 0.92883 0.0
C95 C 0.62438 0.86876 0.92732 0.0
C96 C 0.62893 0.88751 0.85849 0.0
C97 C 0.62882 0.86961 0.88147 0.0
C98 C 0.62477 0.90458 0.88291 0.0
C99 C 0.63161 0.92848 0.11555 0.0
O100 O 0.62453 0.89316 0.18821 0.0
O101 O 0.60659 0.88386 0.1266 0.0
O102 O 0.67438 0.887 0.21227 0.0
O103 O 0.65962 0.91499 0.21191 0.0
O104 O 0.66779 0.86551 0.13852 0.0
O105 O 0.63804 0.87016 0.12753 0.0
O106 O 0.65924 0.89391 0.04479 0.0
O107 O 0.67841 0.90193 0.10533 0.0
O108 O 0.61114 0.90069 0.02137 0.0
O109 O 0.62405 0.87174 0.02417 0.0
O110 O 0.61593 0.92108 0.09831 0.0
O111 O 0.64582 0.91701 0.10949 0.0
H112 H 0.66934 0.86948 0.28659 0.0
H113 H 0.66196 0.93184 0.29364 0.0
H114 H 0.65632 0.92951 0.3744 0.0
H115 H 0.66428 0.86717 0.36747 0.0
H116 H 0.61701 0.91716 0.9463 0.0
H117 H 0.62418 0.8547 0.94379 0.0
H118 H 0.63222 0.85618 0.86407 0.0
H119 H 0.62444 0.91861 0.86633 0.0
Gd120 Gd 0.89146 0.37777 0.95362 0.0
Gd121 Gd 0.89576 0.35224 0.87416 0.0
C122 C 0.89754 0.33102 0.96943 0.0
C123 C 0.88322 0.39237 0.03181 0.0
C124 C 0.88542 0.38657 0.07962 0.0
C125 C 0.90317 0.37957 0.09668 0.0
C126 C 0.86954 0.38839 0.10898 0.0
C127 C 0.88921 0.37679 0.17198 0.0
C128 C 0.87138 0.38352 0.15452 0.0
C129 C 0.90506 0.37486 0.14232 0.0
C130 C 0.92799 0.37622 0.91881 0.0
C131 C 0.88746 0.39939 0.8613 0.0
C132 C 0.90591 0.33762 0.79698 0.0
C133 C 0.90448 0.34226 0.7484 0.0
C134 C 0.8871 0.34906 0.72897 0.0
C135 C 0.9207 0.33927 0.72063 0.0
C136 C 0.90213 0.34916 0.65447 0.0
C137 C 0.91958 0.3427 0.67429 0.0
C138 C 0.88593 0.3524 0.68254 0.0
C139 C 0.85839 0.35497 0.90355 0.0
O140 O 0.89069 0.34773 0.98449 0.0
O141 O 0.90327 0.32938 0.92703 0.0
O142 O 0.8991 0.39649 1.00956 0.0
O143 O 0.87074 0.38244 1.00784 0.0
O144 O 0.91981 0.39196 0.93373 0.0
O145 O 0.91679 0.36185 0.92459 0.0
O146 O 0.89507 0.38317 0.84438 0.0
O147 O 0.88171 0.40006 0.90358 0.0
O148 O 0.88986 0.33302 0.81796 0.0
O149 O 0.91733 0.34863 0.82122 0.0
O150 O 0.86651 0.33911 0.88914 0.0
O151 O 0.8704 0.36887 0.90102 0.0
H152 H 0.91566 0.37784 0.07487 0.0
H153 H 0.85571 0.39377 0.09675 0.0
H154 H 0.85891 0.38549 0.17626 0.0
H155 H 0.91898 0.36964 0.15425 0.0
H156 H 0.87438 0.35165 0.74958 0.0
H157 H 0.93425 0.33401 0.73474 0.0
H158 H 0.93229 0.33984 0.65384 0.0
H159 H 0.87235 0.35764 0.66864 0.0
Gd160 Gd 0.35355 0.39679 0.12722 0.0
Gd161 Gd 0.37988 0.39081 0.21299 0.0
C162 C 0.40027 0.38533 0.11834 0.0
C163 C 0.3404 0.41245 0.05426 0.0
C164 C 0.34285 0.40946 1.00505 0.0
C165 C 0.3267 0.40484 0.97812 0.0
C166 C 0.36109 0.4118 0.98419 0.0
C167 C 0.34686 0.40536 0.91052 0.0
C168 C 0.36304 0.40982 0.93759 0.0
C169 C 0.32869 0.40272 0.93146 0.0
C170 C 0.3578 0.35795 0.14262 0.0
C171 C 0.33282 0.39867 0.22566 0.0
C172 C 0.39401 0.38133 0.29075 0.0
C173 C 0.38845 0.38295 0.33877 0.0
C174 C 0.40233 0.38932 0.37001 0.0
C175 C 0.36959 0.37853 0.35396 0.0
C176 C 0.37861 0.38721 0.43093 0.0
C177 C 0.36471 0.38067 0.39951 0.0
C178 C 0.39751 0.39138 0.41545 0.0
C179 C 0.37963 0.42679 0.17527 0.0
O180 O 0.38469 0.39383 0.10034 0.0
O181 O 0.40071 0.37989 0.16098 0.0
O182 O 0.33075 0.39913 0.07666 0.0
O183 O 0.35556 0.41903 0.07624 0.0
O184 O 0.34721 0.36527 0.11082 0.0
O185 O 0.36504 0.37179 0.16502 0.0
O186 O 0.35 0.39442 0.24328 0.0
O187 O 0.33043 0.40129 0.18161 0.0
O188 O 0.39814 0.39767 0.27031 0.0
O189 O 0.38407 0.36928 0.26545 0.0
O190 O 0.39494 0.41879 0.19297 0.0
O191 O 0.36512 0.41571 0.18029 0.0
H192 H 0.31246 0.40306 0.99315 0.0
H193 H 0.3739 0.4153 1.00377 0.0
H194 H 0.37731 0.41167 0.92275 0.0
H195 H 0.31589 0.39944 0.91165 0.0
H196 H 0.41699 0.39271 0.35921 0.0
H197 H 0.35859 0.37352 0.33065 0.0
H198 H 0.34996 0.37748 0.40993 0.0
H199 H 0.40874 0.39607 0.43856 0.0
Gd200 Gd 0.39097 0.62806 0.82295 0.0
Gd201 Gd 0.39494 0.65271 0.90406 0.0
C202 C 0.39656 0.67502 0.81042 0.0
C203 C 0.38208 0.61254 0.74584 0.0
C204 C 0.38366 0.61618 0.69688 0.0
C205 C 0.40043 0.62439 0.67764 0.0
C206 C 0.36838 0.61046 0.66856 0.0
C207 C 0.38664 0.62074 0.60229 0.0
C208 C 0.36981 0.61273 0.62191 0.0
C209 C 0.40193 0.62656 0.63089 0.0
C210 C 0.4278 0.62996 0.85626 0.0
C211 C 0.38815 0.6055 0.91518 0.0
C212 C 0.40448 0.66719 0.9818 0.0
C213 C 0.4023 0.66247 0.02997 0.0
C214 C 0.38764 0.64991 0.04542 0.0
C215 C 0.4153 0.67061 0.06104 0.0
C216 C 0.39903 0.65382 0.12264 0.0
C217 C 0.41369 0.66635 0.10686 0.0
C218 C 0.38595 0.64571 0.0914 0.0
C219 C 0.35759 0.6495 0.87456 0.0
O220 O 0.38946 0.65861 0.79401 0.0
O221 O 0.40281 0.67587 0.8525 0.0
O222 O 0.39816 0.60886 0.76762 0.0
O223 O 0.37014 0.62357 0.76874 0.0
O224 O 0.42006 0.61448 0.83904 0.0
O225 O 0.4161 0.64411 0.8528 0.0
O226 O 0.39493 0.62185 0.93303 0.0
O227 O 0.38262 0.60498 0.87271 0.0
O228 O 0.38874 0.67209 0.95993 0.0
O229 O 0.41575 0.65568 0.95852 0.0
O230 O 0.36548 0.66542 0.8892 0.0
O231 O 0.36985 0.63578 0.87656 0.0
H232 H 0.41243 0.629 0.69867 0.0
H233 H 0.35536 0.60397 0.68255 0.0
H234 H 0.35782 0.60788 0.60115 0.0
H235 H 0.415 0.63303 0.61719 0.0
H236 H 0.37754 0.64333 0.02195 0.0
H237 H 0.42676 0.68028 0.04982 0.0
H238 H 0.42388 0.67296 0.13005 0.0
H239 H 0.3746 0.63588 0.10245 0.0
Gd240 Gd 0.65158 0.61127 0.13512 0.0
Gd241 Gd 0.62611 0.61582 0.21539 0.0
C242 C 0.60451 0.61903 0.12255 0.0
C243 C 0.66557 0.60138 0.0572 0.0
C244 C 0.65953 0.60228 1.00947 0.0
C245 C 0.64734 0.61717 0.99344 0.0
C246 C 0.66651 0.58828 0.97913 0.0
C247 C 0.64998 0.60452 0.9169 0.0
C248 C 0.66174 0.58934 0.93342 0.0
C249 C 0.6427 0.61834 0.94761 0.0
C250 C 0.64944 0.64856 0.1652 0.0
C251 C 0.67284 0.60775 0.2304 0.0
C252 C 0.61158 0.62577 0.29264 0.0
C253 C 0.61666 0.62427 0.34092 0.0
C254 C 0.62831 0.60905 0.35748 0.0
C255 C 0.60947 0.6382 0.37112 0.0
C256 C 0.62479 0.62139 0.4342 0.0
C257 C 0.61348 0.63681 0.41716 0.0
C258 C 0.63231 0.60761 0.40363 0.0
C259 C 0.62692 0.57939 0.18003 0.0
O260 O 0.62076 0.61153 0.10579 0.0
O261 O 0.60374 0.625 0.1647 0.0
O262 O 0.66932 0.61795 0.07698 0.0
O263 O 0.656 0.58939 0.0831 0.0
O264 O 0.66516 0.64019 0.15083 0.0
O265 O 0.63533 0.63676 0.16272 0.0
O266 O 0.65599 0.61355 0.2471 0.0
O267 O 0.67481 0.60402 0.18691 0.0
O268 O 0.60716 0.60958 0.27179 0.0
O269 O 0.62234 0.63737 0.26822 0.0
O270 O 0.61143 0.58756 0.19636 0.0
O271 O 0.64144 0.59044 0.1855 0.0
H272 H 0.6416 0.62805 1.01625 0.0
H273 H 0.67587 0.57663 0.99073 0.0
H274 H 0.66772 0.57853 0.91078 0.0
H275 H 0.63343 0.63009 0.93619 0.0
H276 H 0.63417 0.5982 0.3348 0.0
H277 H 0.60048 0.65008 0.35913 0.0
H278 H 0.60728 0.64758 0.43957 0.0
H279 H 0.64133 0.59573 0.41537 0.0
Gd280 Gd 0.61496 0.37993 0.82164 0.0
Gd281 Gd 0.61226 0.35475 0.90138 0.0
C282 C 0.61052 0.33313 0.80704 0.0
C283 C 0.62187 0.39584 0.74401 0.0
C284 C 0.62085 0.39123 0.69545 0.0
C285 C 0.61655 0.4062 0.66504 0.0
C286 C 0.62425 0.37237 0.6788 0.0
C287 C 0.61962 0.3838 0.60165 0.0
C288 C 0.62364 0.36869 0.63239 0.0
C289 C 0.61591 0.40255 0.6188 0.0
C290 C 0.5787 0.37719 0.85784 0.0
C291 C 0.61813 0.4022 0.91369 0.0
C292 C 0.60419 0.33928 0.97887 0.0
C293 C 0.60683 0.3436 0.02722 0.0
C294 C 0.61064 0.32829 0.05707 0.0
C295 C 0.60532 0.36263 0.04423 0.0
C296 C 0.61071 0.3508 0.12069 0.0
C297 C 0.60718 0.36619 0.09045 0.0
C298 C 0.61261 0.33182 0.10317 0.0
C299 C 0.64916 0.35833 0.86974 0.0
O300 O 0.61748 0.34972 0.79158 0.0
O301 O 0.60427 0.3319 0.84905 0.0
O302 O 0.60533 0.39752 0.76519 0.0
O303 O 0.63511 0.38689 0.76787 0.0
O304 O 0.58623 0.39312 0.84248 0.0
O305 O 0.5904 0.36322 0.85191 0.0
O306 O 0.61176 0.38561 0.93125 0.0
O307 O 0.62342 0.40301 0.87111 0.0
O308 O 0.61986 0.33515 0.956 0.0
O309 O 0.5921 0.35031 0.95646 0.0
O310 O 0.64146 0.34225 0.88379 0.0
O311 O 0.63696 0.37206 0.87327 0.0
H312 H 0.61373 0.42082 0.6771 0.0
H313 H 0.62755 0.36054 0.70156 0.0
H314 H 0.6267 0.35409 0.62061 0.0
H315 H 0.61234 0.41448 0.5965 0.0
H316 H 0.61201 0.31351 0.0447 0.0
H317 H 0.60245 0.3747 0.02188 0.0
H318 H 0.60544 0.38097 0.10249 0.0
H319 H 0.61574 0.31963 0.12504 0.0
Gd320 Gd 0.85078 0.61035 0.66062 0.0
Gd321 Gd 0.87674 0.61696 0.57445 0.0
C322 C 0.89727 0.62215 0.66876 0.0
C323 C 0.83783 0.59414 0.73306 0.0
C324 C 0.83923 0.59729 0.78217 0.0
C325 C 0.83627 0.61568 0.80178 0.0
C326 C 0.84439 0.58159 0.80984 0.0
C327 C 0.84371 0.60252 0.87617 0.0
C328 C 0.84666 0.58416 0.85617 0.0
C329 C 0.83841 0.61824 0.84828 0.0
C330 C 0.85515 0.64931 0.64628 0.0
C331 C 0.82953 0.60973 0.56273 0.0
C332 C 0.89022 0.62689 0.49644 0.0
C333 C 0.8845 0.62486 0.44839 0.0
C334 C 0.88777 0.60741 0.42473 0.0
C335 C 0.87646 0.64075 0.42508 0.0
C336 C 0.87532 0.62188 0.3555 0.0
C337 C 0.87188 0.63927 0.37933 0.0
C338 C 0.88321 0.60594 0.37898 0.0
C339 C 0.87622 0.5804 0.60974 0.0
O340 O 0.88216 0.61265 0.68611 0.0
O341 O 0.89731 0.62835 0.62667 0.0
O342 O 0.82759 0.60661 0.70936 0.0
O343 O 0.85404 0.58895 0.7133 0.0
O344 O 0.84465 0.64194 0.6782 0.0
O345 O 0.86218 0.63546 0.62369 0.0
O346 O 0.84657 0.61445 0.54498 0.0
O347 O 0.82754 0.60597 0.60643 0.0
O348 O 0.89553 0.61106 0.51765 0.0
O349 O 0.87975 0.63855 0.52156 0.0
O350 O 0.89143 0.58835 0.59155 0.0
O351 O 0.86187 0.59181 0.60623 0.0
H352 H 0.8324 0.62809 0.78122 0.0
H353 H 0.84693 0.56732 0.79545 0.0
H354 H 0.85111 0.57177 0.87615 0.0
H355 H 0.83578 0.63254 0.86236 0.0
H356 H 0.89411 0.59491 0.44133 0.0
H357 H 0.87386 0.65444 0.44216 0.0
H358 H 0.86559 0.65178 0.36265 0.0
H359 H 0.88635 0.5924 0.36178 0.0
Gd360 Gd 0.61654 0.13206 0.45715 0.0
Gd361 Gd 0.61483 0.1572 0.37661 0.0
C362 C 0.61071 0.17898 0.47053 0.0
C363 C 0.62414 0.11679 0.53491 0.0
C364 C 0.62185 0.1215 0.5833 0.0
C365 C 0.6034 0.12313 0.60342 0.0
C366 C 0.63846 0.12363 0.61034 0.0
C367 C 0.61829 0.12846 0.67683 0.0
C368 C 0.63672 0.12713 0.65648 0.0
C369 C 0.60166 0.12654 0.64965 0.0
C370 C 0.58084 0.13352 0.41847 0.0
C371 C 0.62117 0.11008 0.36491 0.0
C372 C 0.60943 0.17315 0.29846 0.0
C373 C 0.60955 0.16732 0.25036 0.0
C374 C 0.62712 0.16644 0.2262 0.0
C375 C 0.59204 0.16369 0.22742 0.0
C376 C 0.60966 0.15888 0.15708 0.0
C377 C 0.59209 0.15945 0.18135 0.0
C378 C 0.62717 0.16222 0.18027 0.0
C379 C 0.65096 0.15408 0.41288 0.0
O380 O 0.61676 0.16236 0.48784 0.0
O381 O 0.60635 0.18038 0.42736 0.0
O382 O 0.60841 0.11293 0.51187 0.0
O383 O 0.63669 0.12718 0.51224 0.0
O384 O 0.58795 0.11819 0.43771 0.0
O385 O 0.59218 0.14787 0.42361 0.0
O386 O 0.61395 0.12628 0.34715 0.0
O387 O 0.62653 0.10964 0.40748 0.0
O388 O 0.6261 0.17305 0.31947 0.0
O389 O 0.59524 0.16679 0.32362 0.0
O390 O 0.64314 0.17024 0.39951 0.0
O391 O 0.63905 0.14026 0.40742 0.0
H392 H 0.59028 0.12161 0.5836 0.0
H393 H 0.65286 0.12231 0.59583 0.0
H394 H 0.64985 0.12835 0.6764 0.0
H395 H 0.58725 0.12777 0.66409 0.0
H396 H 0.6409 0.16924 0.24261 0.0
H397 H 0.57824 0.16445 0.24491 0.0
H398 H 0.57832 0.15716 0.16451 0.0
H399 H 0.64099 0.1616 0.16286 0.0
Gd400 Gd 0.15502 0.39946 0.65559 0.0
Gd401 Gd 0.1286 0.39431 0.56979 0.0
C402 C 0.10812 0.38854 0.66435 0.0
C403 C 0.16857 0.41532 0.72806 0.0
C404 C 0.16682 0.41204 0.77697 0.0
C405 C 0.15896 0.39471 0.79411 0.0
C406 C 0.17224 0.42683 0.80693 0.0
C407 C 0.16203 0.40703 0.87094 0.0
C408 C 0.16989 0.42437 0.85334 0.0
C409 C 0.15663 0.3922 0.84058 0.0
C410 C 0.15023 0.36078 0.63954 0.0
C411 C 0.1758 0.40088 0.55716 0.0
C412 C 0.1146 0.38528 0.4916 0.0
C413 C 0.12068 0.38634 0.44384 0.0
C414 C 0.13083 0.4025 0.42683 0.0
C415 C 0.11564 0.37124 0.41434 0.0
C416 C 0.12995 0.38879 0.35097 0.0
C417 C 0.12025 0.37239 0.36856 0.0
C418 C 0.13537 0.40373 0.38097 0.0
C419 C 0.12976 0.43022 0.60799 0.0
O420 O 0.12397 0.39632 0.68285 0.0
O421 O 0.10733 0.38387 0.62124 0.0
O422 O 0.17815 0.40219 0.70482 0.0
O423 O 0.15268 0.42122 0.70793 0.0
O424 O 0.1609 0.36785 0.67156 0.0
O425 O 0.14316 0.37477 0.61729 0.0
O426 O 0.15852 0.39718 0.53949 0.0
O427 O 0.17827 0.40333 0.60124 0.0
O428 O 0.11111 0.40182 0.51192 0.0
O429 O 0.12376 0.37278 0.51722 0.0
O430 O 0.11422 0.42266 0.59027 0.0
O431 O 0.14396 0.41876 0.60278 0.0
H432 H 0.15452 0.38315 0.77152 0.0
H433 H 0.1781 0.44042 0.79438 0.0
H434 H 0.17388 0.43627 0.87537 0.0
H435 H 0.15073 0.37857 0.8527 0.0
H436 H 0.13499 0.41436 0.44885 0.0
H437 H 0.10791 0.35857 0.42666 0.0
H438 H 0.11618 0.36038 0.34695 0.0
H439 H 0.14269 0.41666 0.36891 0.0
Gd440 Gd 0.39243 0.87843 0.46498 0.0
Gd441 Gd 0.39516 0.85338 0.38439 0.0
C442 C 0.39926 0.8316 0.47861 0.0
C443 C 0.38399 0.89348 0.54256 0.0
C444 C 0.38553 0.88874 0.59113 0.0
C445 C 0.40363 0.88774 0.61311 0.0
C446 C 0.36852 0.88612 0.61656 0.0
C447 C 0.38757 0.88197 0.68504 0.0
C448 C 0.36951 0.8827 0.66285 0.0
C449 C 0.40462 0.88443 0.6595 0.0
C450 C 0.42837 0.8772 0.42729 0.0
C451 C 0.38725 0.90053 0.37267 0.0
C452 C 0.40371 0.83917 0.30606 0.0
C453 C 0.40105 0.84452 0.25815 0.0
C454 C 0.38245 0.84571 0.23855 0.0
C455 C 0.41743 0.84792 0.23111 0.0
C456 C 0.39679 0.85319 0.16558 0.0
C457 C 0.41534 0.85228 0.18543 0.0
C458 C 0.38036 0.84995 0.19278 0.0
C459 C 0.35839 0.85603 0.41721 0.0
O460 O 0.39388 0.84836 0.49641 0.0
O461 O 0.40285 0.82997 0.43507 0.0
O462 O 0.40008 0.89723 0.52073 0.0
O463 O 0.37164 0.88325 0.51882 0.0
O464 O 0.42061 0.8927 0.44458 0.0
O465 O 0.4172 0.86276 0.43286 0.0
O466 O 0.39352 0.88406 0.35433 0.0
O467 O 0.38311 0.90137 0.41593 0.0
O468 O 0.38824 0.8342 0.32883 0.0
O469 O 0.41571 0.8499 0.32948 0.0
O470 O 0.36628 0.84022 0.40188 0.0
O471 O 0.37039 0.86993 0.41406 0.0
H472 H 0.41706 0.88969 0.59462 0.0
H473 H 0.35436 0.887 0.60067 0.0
H474 H 0.35607 0.88108 0.68146 0.0
H475 H 0.41879 0.88369 0.67534 0.0
H476 H 0.36949 0.84324 0.2584 0.0
H477 H 0.43193 0.84699 0.24524 0.0
H478 H 0.42831 0.85446 0.16542 0.0
H479 H 0.36586 0.85077 0.1787 0.0
Gd480 Gd 0.85321 0.89511 0.631 0.0
Gd481 Gd 0.87887 0.89291 0.71021 0.0
C482 C 0.90033 0.88821 0.61753 0.0
C483 C 0.8377 0.90258 0.55314 0.0
C484 C 0.84209 0.9 0.50478 0.0
C485 C 0.82678 0.89665 0.47467 0.0
C486 C 0.86115 0.90125 0.48798 0.0
C487 C 0.8493 0.89677 0.41109 0.0
C488 C 0.86472 0.89969 0.44168 0.0
C489 C 0.83032 0.89498 0.42851 0.0
C490 C 0.85701 0.85838 0.66398 0.0
C491 C 0.83203 0.89829 0.72599 0.0
C492 C 0.89485 0.88594 0.78774 0.0
C493 C 0.89014 0.88738 0.83631 0.0
C494 C 0.90371 0.89576 0.86575 0.0
C495 C 0.87261 0.88014 0.85403 0.0
C496 C 0.88246 0.88953 0.92991 0.0
C497 C 0.86876 0.88132 0.90025 0.0
C498 C 0.89996 0.89679 0.91195 0.0
C499 C 0.87678 0.92886 0.67215 0.0
O500 O 0.88385 0.89499 0.60031 0.0
O501 O 0.90133 0.88327 0.6603 0.0
O502 O 0.83396 0.88685 0.57615 0.0
O503 O 0.84839 0.91498 0.5755 0.0
O504 O 0.84081 0.86598 0.65031 0.0
O505 O 0.87059 0.87064 0.6597 0.0
O506 O 0.84887 0.892 0.74169 0.0
O507 O 0.83033 0.90324 0.68312 0.0
O508 O 0.89704 0.90231 0.766 0.0
O509 O 0.88566 0.87278 0.76409 0.0
O510 O 0.89253 0.9212 0.68827 0.0
O511 O 0.86254 0.91754 0.67878 0.0
H512 H 0.81198 0.89546 0.48687 0.0
H513 H 0.87325 0.90382 0.51049 0.0
H514 H 0.87951 0.9014 0.42988 0.0
H515 H 0.81808 0.89222 0.40652 0.0
H516 H 0.91734 0.90142 0.85301 0.0
H517 H 0.86198 0.87336 0.83226 0.0
H518 H 0.85523 0.87539 0.91289 0.0
H519 H 0.91074 0.90343 0.93362 0.0
Gd520 Gd 0.89265 0.12942 0.32024 0.0
Gd521 Gd 0.89678 0.15462 0.40129 0.0
C522 C 0.90046 0.17628 0.30648 0.0
C523 C 0.88268 0.11472 0.24311 0.0
C524 C 0.88459 0.11919 0.19471 0.0
C525 C 0.89654 0.13435 0.17929 0.0
C526 C 0.87416 0.10811 0.16337 0.0
C527 C 0.88756 0.12722 0.10143 0.0
C528 C 0.87563 0.11204 0.11733 0.0
C529 C 0.89802 0.13834 0.13314 0.0
C530 C 0.92906 0.13018 0.35539 0.0
C531 C 0.88876 0.10768 0.41288 0.0
C532 C 0.90585 0.16914 0.47934 0.0
C533 C 0.90543 0.16339 0.52716 0.0
C534 C 0.89416 0.14764 0.54218 0.0
C535 C 0.91612 0.17421 0.55852 0.0
C536 C 0.90385 0.15406 0.61987 0.0
C537 C 0.91533 0.16964 0.60431 0.0
C538 C 0.89333 0.14307 0.58807 0.0
C539 C 0.85977 0.15252 0.36966 0.0
O540 O 0.89502 0.15943 0.28909 0.0
O541 O 0.9039 0.17812 0.35012 0.0
O542 O 0.89859 0.10991 0.26451 0.0
O543 O 0.87149 0.12631 0.26658 0.0
O544 O 0.92108 0.11484 0.33786 0.0
O545 O 0.91788 0.14471 0.3511 0.0
O546 O 0.89669 0.12366 0.42995 0.0
O547 O 0.88277 0.10724 0.37075 0.0
O548 O 0.88905 0.17177 0.45983 0.0
O549 O 0.91823 0.16001 0.45357 0.0
O550 O 0.86803 0.16828 0.38415 0.0
O551 O 0.87156 0.13844 0.37274 0.0
H552 H 0.90472 0.14308 0.20294 0.0
H553 H 0.86488 0.09632 0.17451 0.0
H554 H 0.8676 0.10292 0.09415 0.0
H555 H 0.90717 0.15029 0.1224 0.0
H556 H 0.88586 0.13901 0.5185 0.0
H557 H 0.9249 0.18643 0.54765 0.0
H558 H 0.92344 0.17862 0.62762 0.0
H559 H 0.88451 0.13086 0.59858 0.0
Gd560 Gd 0.15336 0.11488 0.633 0.0
Gd561 Gd 0.12765 0.11798 0.71256 0.0
C562 C 0.10616 0.12134 0.61987 0.0
C563 C 0.16802 0.1063 0.55496 0.0
C564 C 0.16263 0.10787 0.50665 0.0
C565 C 0.16367 0.12575 0.48373 0.0
C566 C 0.15732 0.09113 0.48233 0.0
C567 C 0.15468 0.11002 0.41313 0.0
C568 C 0.15329 0.0922 0.43623 0.0
C569 C 0.15975 0.1268 0.43761 0.0
C570 C 0.1497 0.15194 0.664 0.0
C571 C 0.17446 0.11116 0.72839 0.0
C572 C 0.11264 0.12673 0.78994 0.0
C573 C 0.11746 0.12444 0.83841 0.0
C574 C 0.11537 0.10644 0.86046 0.0
C575 C 0.1235 0.14066 0.86365 0.0
C576 C 0.12507 0.12103 0.9319 0.0
C577 C 0.12733 0.13897 0.90971 0.0
C578 C 0.11912 0.10476 0.90658 0.0
C579 C 0.12964 0.08179 0.67624 0.0
O580 O 0.12262 0.11437 0.60301 0.0
O581 O 0.10523 0.12708 0.66213 0.0
O582 O 0.17183 0.12241 0.57658 0.0
O583 O 0.15826 0.09389 0.57943 0.0
O584 O 0.16584 0.14419 0.65031 0.0
O585 O 0.13609 0.13963 0.66071 0.0
O586 O 0.15744 0.11642 0.74506 0.0
O587 O 0.17658 0.10775 0.68482 0.0
O588 O 0.10803 0.11105 0.76729 0.0
O589 O 0.12344 0.13876 0.76669 0.0
O590 O 0.11392 0.0894 0.69278 0.0
O591 O 0.14384 0.09322 0.68214 0.0
H592 H 0.16776 0.13896 0.50122 0.0
H593 H 0.15657 0.0771 0.49885 0.0
H594 H 0.14961 0.07894 0.41844 0.0
H595 H 0.16071 0.14081 0.42108 0.0
H596 H 0.11068 0.09362 0.84223 0.0
H597 H 0.12504 0.15478 0.84785 0.0
H598 H 0.13162 0.15187 0.92816 0.0
H599 H 0.11743 0.09067 0.92239 0.0
Gd600 Gd 0.11551 0.88114 0.32303 0.0
Gd601 Gd 0.11369 0.85591 0.40287 0.0
C602 C 0.10939 0.83436 0.30807 0.0
C603 C 0.12328 0.89551 0.24459 0.0
C604 C 0.12122 0.88948 0.19686 0.0
C605 C 0.10301 0.88945 0.17527 0.0
C606 C 0.13779 0.88424 0.17192 0.0
C607 C 0.11808 0.87947 0.10467 0.0
C608 C 0.13623 0.87921 0.12647 0.0
C609 C 0.10147 0.88452 0.12975 0.0
C610 C 0.07957 0.87895 0.36046 0.0
C611 C 0.12032 0.90344 0.41455 0.0
C612 C 0.1062 0.84081 0.48102 0.0
C613 C 0.10829 0.84544 0.52955 0.0
C614 C 0.12642 0.84446 0.55139 0.0
C615 C 0.09168 0.84986 0.55514 0.0
C616 C 0.11117 0.85189 0.62346 0.0
C617 C 0.0931 0.85312 0.60143 0.0
C618 C 0.12783 0.84764 0.59778 0.0
C619 C 0.15012 0.85923 0.36864 0.0
O620 O 0.11489 0.85126 0.2914 0.0
O621 O 0.1058 0.83251 0.35162 0.0
O622 O 0.10737 0.89952 0.26691 0.0
O623 O 0.13601 0.88596 0.26875 0.0
O624 O 0.08687 0.89462 0.343 0.0
O625 O 0.09116 0.8648 0.35509 0.0
O626 O 0.11449 0.88681 0.43301 0.0
O627 O 0.12444 0.90431 0.37136 0.0
O628 O 0.12197 0.83704 0.45812 0.0
O629 O 0.09369 0.85114 0.45818 0.0
O630 O 0.1425 0.84313 0.38291 0.0
O631 O 0.13802 0.87298 0.37319 0.0
H632 H 0.08992 0.8934 0.19335 0.0
H633 H 0.15204 0.88427 0.18745 0.0
H634 H 0.14935 0.87564 0.10809 0.0
H635 H 0.08724 0.88467 0.11416 0.0
H636 H 0.13953 0.84102 0.53281 0.0
H637 H 0.07747 0.85049 0.53943 0.0
H638 H 0.07993 0.8561 0.62018 0.0
H639 H 0.142 0.84679 0.61355 0.0
H640 H 0.39384 0.90472 0.28189 0.0
H641 H 0.39086 0.93431 0.23643 0.0
H642 H 0.37161 0.96617 0.35308 0.0
H643 H 0.37478 0.93681 0.39875 0.0
H644 H 0.36183 0.95829 0.21353 0.0
H645 H 0.38878 0.01267 0.34878 0.0
H646 H 0.41052 0.01315 0.41474 0.0
H647 H 0.44306 0.96524 0.36037 0.0
H648 H 0.42172 0.96465 0.29382 0.0
H649 H 0.34492 0.05771 0.14232 0.0
H650 H 0.34546 0.02693 0.18479 0.0
H651 H 0.4081 0.02627 0.17792 0.0
H652 H 0.40762 0.05673 0.13574 0.0
H653 H 0.39645 0.01818 0.2612 0.0
H654 H 0.38162 0.99569 0.11309 0.0
H655 H 0.36347 0.99344 0.04183 0.0
H656 H 0.31227 0.97566 0.11345 0.0
H657 H 0.33007 0.97802 0.18523 0.0
C658 C 0.38893 0.918 0.29793 0.0
C659 C 0.38469 0.9183 0.34423 0.0
C660 C 0.38715 0.93495 0.27176 0.0
C661 C 0.38121 0.95266 0.29122 0.0
C662 C 0.37652 0.95285 0.3372 0.0
C663 C 0.37829 0.93595 0.36335 0.0
C664 C 0.3804 0.971 0.26388 0.0
C665 C 0.36932 0.9714 0.22416 0.0
C666 C 0.39045 0.98813 0.27692 0.0
C667 C 0.4035 0.98849 0.31658 0.0
C668 C 0.40062 1.00228 0.35085 0.0
C669 C 0.41287 1.00257 0.38834 0.0
C670 C 0.42811 0.98919 0.39182 0.0
C671 C 0.4312 0.97554 0.35773 0.0
C672 C 0.41902 0.97521 0.32014 0.0
C673 C 0.35877 0.05093 0.14978 0.0
C674 C 0.37622 0.05969 0.13557 0.0
C675 C 0.35908 0.03329 0.17394 0.0
C676 C 0.37684 0.02413 0.1846 0.0
C677 C 0.39421 0.03296 0.17037 0.0
C678 C 0.3939 0.0504 0.14603 0.0
C679 C 0.3776 0.00561 0.21124 0.0
C680 C 0.38874 0.00516 0.25084 0.0
C681 C 0.36795 0.98836 0.19753 0.0
C682 C 0.35711 0.98728 0.15457 0.0
C683 C 0.36643 0.99152 0.11369 0.0
C684 C 0.35622 0.99017 0.07319 0.0
C685 C 0.33671 0.98448 0.07312 0.0
C686 C 0.32738 0.9801 0.11356 0.0
C687 C 0.33752 0.98143 0.15416 0.0
H688 H 0.32885 0.98341 0.04173 0.0
H689 H 0.43757 0.98943 0.42089 0.0
H690 H 0.92465 0.65105 0.66146 0.0
H691 H 0.95422 0.65552 0.70598 0.0
H692 H 0.94032 0.60403 0.78254 0.0
H693 H 0.91016 0.60027 0.73978 0.0
H694 H 0.9548 0.62738 0.83704 0.0
H695 H 0.97669 0.607 0.69195 0.0
H696 H 0.98012 0.60788 0.60953 0.0
H697 H 0.00594 0.66469 0.61786 0.0
H698 H 1.00242 0.66425 0.70034 0.0
H699 H 0.05131 0.60438 0.91047 0.0
H700 H 0.0202 0.6051 0.87064 0.0
H701 H 0.02972 0.66526 0.83608 0.0
H702 H 0.06073 0.66483 0.87755 0.0
H703 H 0.01788 0.63975 0.76147 0.0
H704 H 0.99738 0.65705 0.91111 0.0
H705 H 0.99498 0.65291 0.99318 0.0
H706 H 0.96785 0.59718 0.97468 0.0
H707 H 0.97028 0.60088 0.89247 0.0
C708 C 0.92787 0.64071 0.68788 0.0
C709 C 0.91504 0.62523 0.6968 0.0
C710 C 0.94495 0.64318 0.71323 0.0
C711 C 0.95004 0.62985 0.74727 0.0
C712 C 0.93697 0.61457 0.75663 0.0
C713 C 0.91966 0.61239 0.73202 0.0
C714 C 0.96884 0.63174 0.77307 0.0
C715 C 0.96856 0.62986 0.82018 0.0
C716 C 0.98702 0.63533 0.75184 0.0
C717 C 0.98908 0.63568 0.70226 0.0
C718 C 0.98295 0.61974 0.67617 0.0
C719 C 0.98494 0.62015 0.62945 0.0
C720 C 0.99319 0.63635 0.60846 0.0
C721 C 0.99951 0.65216 0.63416 0.0
C722 C 0.99754 0.65184 0.68089 0.0
C723 C 0.04677 0.61785 0.89471 0.0
C724 C 0.05865 0.63452 0.897 0.0
C725 C 0.02893 0.61823 0.87191 0.0
C726 C 0.02252 0.63522 0.85026 0.0
C727 C 0.03433 0.65194 0.85239 0.0
C728 C 0.05209 0.65168 0.87604 0.0
C729 C 0.00368 0.63523 0.82491 0.0
C730 C 0.00402 0.63741 0.77803 0.0
C731 C 0.98565 0.63143 0.84618 0.0
C732 C 0.98419 0.62917 0.89562 0.0
C733 C 0.99106 0.64383 0.92453 0.0
C734 C 0.98966 0.64158 0.97109 0.0
C735 C 0.98134 0.62476 0.98913 0.0
C736 C 0.97436 0.61017 0.96066 0.0
C737 C 0.9757 0.61236 0.91408 0.0
H738 H 0.98023 0.62306 0.02518 0.0
H739 H 0.99472 0.63664 0.57229 0.0
H740 H 0.6023 0.95499 0.12297 0.0
H741 H 0.60238 0.98624 0.16268 0.0
H742 H 0.662 0.97691 0.20164 0.0
H743 H 0.66234 0.94594 0.1599 0.0
H744 H 0.62836 0.9882 0.27423 0.0
H745 H 0.66188 0.0073 0.13726 0.0
H746 H 0.66514 0.00957 0.05496 0.0
H747 H 0.6111 0.04078 0.04746 0.0
H748 H 0.60736 0.0384 0.12971 0.0
H749 H 0.64462 0.07865 0.38107 0.0
H750 H 0.64783 0.04879 0.33726 0.0
H751 H 0.60544 0.07025 0.24256 0.0
H752 H 0.60291 0.10067 0.28541 0.0
H753 H 0.63083 0.05218 0.19722 0.0
H754 H 0.59556 0.03412 0.32814 0.0
H755 H 0.58834 0.03099 0.40893 0.0
H756 H 0.64016 0.99697 0.42731 0.0
H757 H 0.64783 1.00012 0.3467 0.0
C758 C 0.61552 0.95962 0.13964 0.0
C759 C 0.63227 0.9478 0.13856 0.0
C760 C 0.61551 0.97751 0.1624 0.0
C761 C 0.63216 0.98394 0.18532 0.0
C762 C 0.64896 0.97223 0.18434 0.0
C763 C 0.64911 0.95449 0.16059 0.0
C764 C 0.63172 1.00271 0.21082 0.0
C765 C 0.62927 1.00222 0.25759 0.0
C766 C 0.63199 0.02099 0.18894 0.0
C767 C 0.63423 0.02245 0.13956 0.0
C768 C 0.65058 0.01444 0.11801 0.0
C769 C 0.65254 0.0158 0.07138 0.0
C770 C 0.6383 0.02526 0.04598 0.0
C771 C 0.6221 0.03343 0.06717 0.0
C772 C 0.62006 0.03208 0.11379 0.0
C773 C 0.63598 0.07706 0.35087 0.0
C774 C 0.6234 0.09209 0.33703 0.0
C775 C 0.63773 0.05983 0.32586 0.0
C776 C 0.62654 0.0568 0.28686 0.0
C777 C 0.61423 0.07199 0.27248 0.0
C778 C 0.61275 0.08944 0.2971 0.0
C779 C 0.62772 0.03787 0.26128 0.0
C780 C 0.6301 0.03826 0.2143 0.0
C781 C 0.6269 0.01943 0.28293 0.0
C782 C 0.62238 0.01755 0.33146 0.0
C783 C 0.6055 0.0261 0.34947 0.0
C784 C 0.60131 0.02431 0.39523 0.0
C785 C 0.61381 0.01384 0.42326 0.0
C786 C 0.63051 0.00511 0.40557 0.0
C787 C 0.63478 0.00689 0.35985 0.0
H788 H 0.61054 0.01246 0.45867 0.0
H789 H 0.63985 0.02631 1.00989 0.0
H790 H 0.95142 0.34486 0.89832 0.0
H791 H 0.98283 0.34524 0.85887 0.0
H792 H 0.97754 0.40735 0.84058 0.0
H793 H 0.94689 0.40708 0.88185 0.0
H794 H 0.99529 0.35246 0.78114 0.0
H795 H 0.01961 0.43031 0.83375 0.0
H796 H 0.01625 0.45256 0.89839 0.0
H797 H 0.00695 0.40382 0.98601 0.0
H798 H 0.01048 0.38127 0.92201 0.0
H799 H 0.07064 0.38289 0.63579 0.0
H800 H 0.04127 0.37933 0.68088 0.0
H801 H 0.07553 0.38342 0.80193 0.0
H802 H 0.10496 0.38792 0.75668 0.0
H803 H 0.04505 0.40247 0.81617 0.0
H804 H 0.05442 0.33864 0.759 0.0
H805 H 0.05997 0.31308 0.70222 0.0
H806 H 0.00607 0.32784 0.63773 0.0
H807 H 1.00032 0.35368 0.69378 0.0
C808 C 0.95709 0.35859 0.88614 0.0
C809 C 0.9468 0.37597 0.89385 0.0
C810 C 0.97505 0.35882 0.86337 0.0
C811 C 0.98303 0.37641 0.84732 0.0
C812 C 0.97228 0.39364 0.85374 0.0
C813 C 0.9546 0.39346 0.8772 0.0
C814 C 1.00241 0.37682 0.82363 0.0
C815 C 0.00615 0.3634 0.78897 0.0
C816 C 0.01705 0.39069 0.8342 0.0
C817 C 0.01515 0.40413 0.873 0.0
C818 C 0.01694 0.42434 0.86685 0.0
C819 C 0.01498 0.43701 0.90336 0.0
C820 C 0.01133 0.42961 0.94625 0.0
C821 C 0.00971 0.40953 0.95275 0.0
C822 C 0.01166 0.39681 0.91636 0.0
C823 C 0.07201 0.38292 0.67202 0.0
C824 C 0.0903 0.3856 0.69244 0.0
C825 C 0.0551 0.38075 0.69795 0.0
C826 C 0.05596 0.38068 0.7452 0.0
C827 C 0.07426 0.38337 0.76568 0.0
C828 C 0.09117 0.38589 0.73969 0.0
C829 C 0.03778 0.37838 0.77298 0.0
C830 C 0.03425 0.39147 0.80842 0.0
C831 C 0.02366 0.36376 0.76417 0.0
C832 C 0.02703 0.34822 0.73039 0.0
C833 C 0.04381 0.33653 0.73253 0.0
C834 C 0.04699 0.32198 0.7005 0.0
C835 C 0.0334 0.31887 0.66633 0.0
C836 C 0.01659 0.33028 0.66419 0.0
C837 C 0.01336 0.34487 0.69611 0.0
H838 H 0.03588 0.30759 0.64156 0.0
H839 H 0.00981 0.43944 0.97447 0.0
H840 H 0.41129 0.44766 0.14879 0.0
H841 H 0.4122 0.47827 0.10694 0.0
H842 H 0.3495 0.47897 0.10195 0.0
H843 H 0.34856 0.44834 0.14453 0.0
H844 H 0.40093 0.48776 0.02532 0.0
H845 H 0.33368 0.52645 0.10029 0.0
H846 H 0.31515 0.52758 0.17125 0.0
H847 H 0.36615 0.51037 0.24448 0.0
H848 H 0.38501 0.50935 0.17405 0.0
H849 H 0.37622 0.56902 0.88939 0.0
H850 H 0.37432 0.53948 0.93487 0.0
H851 H 0.39454 0.57143 0.05047 0.0
H852 H 0.39638 0.60116 1.00519 0.0
H853 H 0.36526 0.54696 0.07379 0.0
H854 H 0.42516 0.54194 0.99298 0.0
H855 H 0.44629 0.54195 0.92606 0.0
H856 H 0.41466 0.49344 0.87174 0.0
H857 H 0.39314 0.49333 0.93808 0.0
C858 C 0.39767 0.45436 0.13896 0.0
C859 C 0.37984 0.44552 0.14999 0.0
C860 C 0.39821 0.47186 0.11479 0.0
C861 C 0.38094 0.48115 0.10129 0.0
C862 C 0.36307 0.47233 0.11232 0.0
C863 C 0.36252 0.45475 0.1365 0.0
C864 C 0.3818 0.49987 0.07536 0.0
C865 C 0.39304 0.50064 0.03593 0.0
C866 C 0.37185 0.51694 0.08928 0.0
C867 C 0.36068 0.51762 0.13184 0.0
C868 C 0.34094 0.52296 0.13156 0.0
C869 C 0.33038 0.52357 0.17168 0.0
C870 C 0.33945 0.51898 0.21232 0.0
C871 C 0.35912 0.51383 0.21295 0.0
C872 C 0.36974 0.5132 0.17294 0.0
C873 C 0.38022 0.56985 0.92451 0.0
C874 C 0.38652 0.58757 0.94342 0.0
C875 C 0.37918 0.55286 0.95053 0.0
C876 C 0.38445 0.55306 0.99617 0.0
C877 C 0.39037 0.57081 1.01541 0.0
C878 C 0.39149 0.58783 0.98934 0.0
C879 C 0.38411 0.5347 0.02342 0.0
C880 C 0.37302 0.53401 0.06306 0.0
C881 C 0.39447 0.51778 1.01014 0.0
C882 C 0.40742 0.51775 0.97029 0.0
C883 C 0.42261 0.53137 0.9666 0.0
C884 C 0.43467 0.53138 0.9288 0.0
C885 C 0.43179 0.51774 0.89462 0.0
C886 C 0.41686 0.50402 0.89822 0.0
C887 C 0.40473 0.50397 0.93592 0.0
H888 H 0.44114 0.51776 0.86538 0.0
H889 H 0.33125 0.51946 0.24333 0.0
H890 H 0.59507 0.59697 0.04896 0.0
H891 H 0.56569 0.59868 1.00294 0.0
H892 H 0.54492 0.64682 0.08303 0.0
H893 H 0.57378 0.64426 0.13085 0.0
H894 H 0.5158 0.62573 0.0663 0.0
H895 H 0.56632 0.65047 0.96845 0.0
H896 H 0.59787 0.64886 0.92908 0.0
H897 H 0.57957 0.59705 0.86029 0.0
H898 H 0.54797 0.59825 0.89954 0.0
H899 H 0.44521 0.65976 0.90397 0.0
H900 H 0.47549 0.65815 0.94798 0.0
H901 H 0.48487 0.59933 0.90245 0.0
H902 H 0.45421 0.60046 0.86065 0.0
H903 H 0.51945 0.6259 0.89992 0.0
H904 H 0.46944 0.60117 0.99578 0.0
H905 H 0.43804 0.60152 0.03569 0.0
H906 H 0.45577 0.65231 0.10921 0.0
H907 H 0.48705 0.65264 0.06861 0.0
C908 C 0.58428 0.60798 0.05667 0.0
C909 C 0.58688 0.62057 0.0935 0.0
C910 C 0.56744 0.60906 0.03002 0.0
C911 C 0.55304 0.62323 0.03842 0.0
C912 C 0.55567 0.63576 0.07541 0.0
C913 C 0.57226 0.63434 0.10276 0.0
C914 C 0.53516 0.62488 1.00932 0.0
C915 C 0.51675 0.62613 0.02995 0.0
C916 C 0.53602 0.62484 0.9616 0.0
C917 C 0.55482 0.6244 0.9371 0.0
C918 C 0.56904 0.63872 0.94497 0.0
C919 C 0.58693 0.63787 0.9227 0.0
C920 C 0.59072 0.62286 0.89223 0.0
C921 C 0.5766 0.60868 0.88387 0.0
C922 C 0.55869 0.60946 0.90604 0.0
C923 C 0.45364 0.64645 0.90364 0.0
C924 C 0.44705 0.63012 0.87949 0.0
C925 C 0.47102 0.64558 0.92857 0.0
C926 C 0.48246 0.62858 0.92872 0.0
C927 C 0.47634 0.6126 0.90292 0.0
C928 C 0.45876 0.61328 0.87907 0.0
C929 C 0.50038 0.6271 0.95711 0.0
C930 C 0.51867 0.62576 0.93631 0.0
C931 C 0.49943 0.62706 1.0046 0.0
C932 C 0.4805 0.62711 0.02861 0.0
C933 C 0.46653 0.61262 0.01987 0.0
C934 C 0.44876 0.61267 0.04269 0.0
C935 C 0.44489 0.62696 0.07486 0.0
C936 C 0.45875 0.64129 0.08414 0.0
C937 C 0.47649 0.64139 0.06116 0.0
H938 H 0.43119 0.62684 0.09275 0.0
H939 H 0.60456 0.62223 0.875 0.0
H940 H 0.65804 0.55683 0.15372 0.0
H941 H 0.65722 0.52651 0.10952 0.0
H942 H 0.5947 0.53007 0.10269 0.0
H943 H 0.59541 0.56006 0.14719 0.0
H944 H 0.63714 0.48992 0.12632 0.0
H945 H 0.5825 0.5159 0.99286 0.0
H946 H 0.57103 0.54679 0.95985 0.0
H947 H 0.62651 0.57305 0.98584 0.0
H948 H 0.63853 0.54222 0.01801 0.0
H949 H 0.60294 0.40861 0.99815 0.0
H950 H 0.6046 0.43832 0.04343 0.0
H951 H 0.63753 0.4665 0.93879 0.0
H952 H 0.63567 0.43696 0.89313 0.0
H953 H 0.61134 0.49119 0.9707 0.0
H954 H 0.65931 0.44842 0.03841 0.0
H955 H 0.67006 0.41769 0.07338 0.0
H956 H 0.62837 0.42539 0.17933 0.0
H957 H 0.61728 0.45612 0.14477 0.0
C958 C 0.64413 0.55107 0.14296 0.0
C959 C 0.62679 0.56084 0.15403 0.0
C960 C 0.64367 0.53371 0.11785 0.0
C961 C 0.62589 0.52598 0.10259 0.0
C962 C 0.60859 0.53572 0.11386 0.0
C963 C 0.60903 0.55287 0.13942 0.0
C964 C 0.62535 0.50804 0.07402 0.0
C965 C 0.63152 0.49021 0.09228 0.0
C966 C 0.61803 0.50833 0.02951 0.0
C967 C 0.61134 0.52674 1.00826 0.0
C968 C 0.59233 0.5282 0.99117 0.0
C969 C 0.58574 0.54571 0.97262 0.0
C970 C 0.59805 0.56187 0.97081 0.0
C971 C 0.61702 0.56052 0.98727 0.0
C972 C 0.62373 0.54302 1.00568 0.0
C973 C 0.61069 0.42104 0.98486 0.0
C974 C 0.61935 0.42019 0.94202 0.0
C975 C 0.61163 0.43811 1.01089 0.0
C976 C 0.62144 0.45475 0.99502 0.0
C977 C 0.62988 0.45397 0.95204 0.0
C978 C 0.62886 0.43696 0.92594 0.0
C979 C 0.62303 0.47292 0.02301 0.0
C980 C 0.61699 0.49084 1.00469 0.0
C981 C 0.63044 0.47272 0.06752 0.0
C982 C 0.6374 0.4545 0.08887 0.0
C983 C 0.65241 0.44353 0.0691 0.0
C984 C 0.65856 0.42612 0.08885 0.0
C985 C 0.64989 0.41959 0.12852 0.0
C986 C 0.63508 0.43048 0.14862 0.0
C987 C 0.62889 0.44792 0.12902 0.0
H988 H 0.65468 0.4061 0.14373 0.0
H989 H 0.59289 0.57545 0.95665 0.0
H990 H 0.40559 0.39287 0.02806 0.0
H991 H 0.43555 0.38968 0.98402 0.0
H992 H 0.4658 0.36876 0.10126 0.0
H993 H 0.43604 0.37192 0.14543 0.0
H994 H 0.48761 0.39507 0.0591 0.0
H995 H 0.45235 0.33814 0.01711 0.0
H996 H 0.42456 0.31908 0.98876 0.0
H997 H 0.42871 0.34794 0.86132 0.0
H998 H 0.45621 0.3676 0.88926 0.0
H999 H 0.55915 0.34499 0.8899 0.0
H1000 H 0.52886 0.34447 0.93407 0.0
H1001 H 0.52604 0.40711 0.92781 0.0
H1002 H 0.5561 0.40769 0.88398 0.0
H1003 H 0.49135 0.35741 0.91709 0.0
H1004 H 0.50947 0.42441 0.02736 0.0
H1005 H 0.53842 0.44097 0.05807 0.0
H1006 H 0.57017 0.38717 0.0549 0.0
H1007 H 0.54142 0.37025 0.02452 0.0
C1008 C 0.41857 0.38748 0.0445 0.0
C1009 C 0.41824 0.38263 0.09048 0.0
C1010 C 0.43575 0.38562 0.01915 0.0
C1011 C 0.45307 0.37889 0.03909 0.0
C1012 C 0.45274 0.37403 0.08493 0.0
C1013 C 0.43559 0.37577 0.11018 0.0
C1014 C 0.47159 0.37716 1.01259 0.0
C1015 C 0.48834 0.38686 0.02802 0.0
C1016 C 0.47287 0.36615 0.97234 0.0
C1017 C 0.45622 0.35451 0.95549 0.0
C1018 C 0.44719 0.34061 0.98321 0.0
C1019 C 0.43149 0.3297 0.9672 0.0
C1020 C 0.4248 0.33239 0.92334 0.0
C1021 C 0.43383 0.34599 0.89537 0.0
C1022 C 0.44947 0.35702 0.91129 0.0
C1023 C 0.55201 0.35862 0.89787 0.0
C1024 C 0.56008 0.37638 0.88347 0.0
C1025 C 0.53465 0.35832 0.923 0.0
C1026 C 0.52515 0.37577 0.93472 0.0
C1027 C 0.53312 0.39345 0.91976 0.0
C1028 C 0.55032 0.39375 0.89449 0.0
C1029 C 0.50713 0.3757 0.96312 0.0
C1030 C 0.49053 0.36567 0.9481 0.0
C1031 C 0.50604 0.38615 1.00413 0.0
C1032 C 0.52331 0.39612 0.02328 0.0
C1033 C 0.52261 0.4161 0.03339 0.0
C1034 C 0.53901 0.42556 0.05065 0.0
C1035 C 0.55617 0.41514 0.05821 0.0
C1036 C 0.55693 0.39524 0.04874 0.0
C1037 C 0.54059 0.38572 0.03144 0.0
H1038 H 0.56886 0.42249 0.07152 0.0
H1039 H 0.41268 0.32389 0.91096 0.0
H1040 H 0.90785 0.40917 0.78517 0.0
H1041 H 0.90527 0.4392 0.74068 0.0
H1042 H 0.8593 0.45951 0.82721 0.0
H1043 H 0.86215 0.42984 0.87252 0.0
H1044 H 0.85301 0.46358 0.72694 0.0
H1045 H 0.89918 0.47841 0.84613 0.0
H1046 H 0.92894 0.47188 0.88988 0.0
H1047 H 0.96334 0.47609 0.76991 0.0
H1048 H 0.93372 0.48237 0.72533 0.0
H1049 H 0.84618 0.56195 0.65393 0.0
H1050 H 0.84748 0.53146 0.69619 0.0
H1051 H 0.90719 0.52338 0.65509 0.0
H1052 H 0.90639 0.55479 0.61687 0.0
H1053 H 0.90647 0.51197 0.73237 0.0
H1054 H 0.8636 0.49661 0.61123 0.0
H1055 H 0.83529 0.50021 0.56099 0.0
H1056 H 0.79666 0.49373 0.6733 0.0
H1057 H 0.82474 0.49031 0.7243 0.0
C1058 C 0.89711 0.41997 0.79459 0.0
C1059 C 0.88525 0.41708 0.83256 0.0
C1060 C 0.89567 0.43716 0.76915 0.0
C1061 C 0.88208 0.45166 0.78054 0.0
C1062 C 0.86986 0.44856 0.81765 0.0
C1063 C 0.87158 0.43159 0.84366 0.0
C1064 C 0.88103 0.47035 0.75479 0.0
C1065 C 0.86458 0.4743 0.72839 0.0
C1066 C 0.89639 0.48405 0.75542 0.0
C1067 C 0.91422 0.48067 0.78235 0.0
C1068 C 0.91307 0.4778 0.82904 0.0
C1069 C 0.92992 0.47417 0.85399 0.0
C1070 C 0.94801 0.47351 0.83267 0.0
C1071 C 0.94931 0.47658 0.78637 0.0
C1072 C 0.9325 0.48019 0.76126 0.0
C1073 C 0.85965 0.55378 0.65445 0.0
C1074 C 0.87627 0.56106 0.63268 0.0
C1075 C 0.86032 0.53606 0.67807 0.0
C1076 C 0.87737 0.52459 0.67867 0.0
C1077 C 0.89383 0.53174 0.65583 0.0
C1078 C 0.89333 0.54974 0.63354 0.0
C1079 C 0.87833 0.50549 0.70373 0.0
C1080 C 0.89481 0.50138 0.73033 0.0
C1081 C 0.8632 0.49137 0.70216 0.0
C1082 C 0.84628 0.4934 0.67162 0.0
C1083 C 0.84906 0.49608 0.62524 0.0
C1084 C 0.83306 0.49807 0.59663 0.0
C1085 C 0.81419 0.49725 0.61396 0.0
C1086 C 0.81128 0.49438 0.65993 0.0
C1087 C 0.82724 0.4924 0.6887 0.0
H1088 H 0.80182 0.4988 0.59176 0.0
H1089 H 0.96103 0.47067 0.85203 0.0
H1090 H 0.545 0.12709 0.45476 0.0
H1091 H 0.51356 0.12544 0.41551 0.0
H1092 H 0.54242 0.13763 0.29003 0.0
H1093 H 0.57371 0.13867 0.32916 0.0
H1094 H 0.50886 0.1584 0.29672 0.0
H1095 H 0.52833 0.09178 0.31727 0.0
H1096 H 0.53868 0.063 0.36059 0.0
H1097 H 0.48574 0.0652 0.43699 0.0
H1098 H 0.47519 0.09419 0.39452 0.0
H1099 H 0.43726 0.12911 0.14042 0.0
H1100 H 0.46658 0.13234 0.18584 0.0
H1101 H 0.43414 0.11656 0.30428 0.0
H1102 H 0.40465 0.11286 0.25861 0.0
H1103 H 0.46841 0.09872 0.30513 0.0
H1104 H 0.44818 0.16454 0.28229 0.0
H1105 H 0.43777 0.19318 0.23854 0.0
H1106 H 0.49196 0.19269 0.16685 0.0
H1107 H 0.50259 0.16386 0.20971 0.0
C1108 C 0.54453 0.12967 0.41889 0.0
C1109 C 0.56171 0.1339 0.39528 0.0
C1110 C 0.52658 0.12863 0.3964 0.0
C1111 C 0.52548 0.13148 0.34963 0.0
C1112 C 0.54272 0.1357 0.32613 0.0
C1113 C 0.56063 0.13666 0.34863 0.0
C1114 C 0.50655 0.12965 0.32491 0.0
C1115 C 0.50013 0.14526 0.29825 0.0
C1116 C 0.49478 0.11273 0.32757 0.0
C1117 C 0.50107 0.09528 0.35306 0.0
C1118 C 0.51897 0.08623 0.34356 0.0
C1119 C 0.52486 0.06986 0.36792 0.0
C1120 C 0.5129 0.06231 0.40161 0.0
C1121 C 0.495 0.07108 0.41093 0.0
C1122 C 0.48906 0.08748 0.38672 0.0
C1123 C 0.43625 0.12636 0.17616 0.0
C1124 C 0.41844 0.12082 0.19573 0.0
C1125 C 0.45311 0.12832 0.20225 0.0
C1126 C 0.45267 0.12504 0.24885 0.0
C1127 C 0.43496 0.11926 0.2685 0.0
C1128 C 0.41804 0.11721 0.2423 0.0
C1129 C 0.47075 0.12743 0.27665 0.0
C1130 C 0.47703 0.11192 0.30384 0.0
C1131 C 0.48238 0.14448 0.27455 0.0
C1132 C 0.47611 0.16193 0.24898 0.0
C1133 C 0.45783 0.17046 0.25699 0.0
C1134 C 0.45189 0.18674 0.23237 0.0
C1135 C 0.46418 0.19473 0.19987 0.0
C1136 C 0.48245 0.18648 0.19201 0.0
C1137 C 0.48845 0.17018 0.21649 0.0
H1138 H 0.45956 0.20733 0.18084 0.0
H1139 H 0.51748 0.04963 0.42042 0.0
H1140 H 0.11775 0.57054 0.89305 0.0
H1141 H 0.12144 0.54163 0.8462 0.0
H1142 H 0.1304 0.57805 0.72999 0.0
H1143 H 0.12568 0.60709 0.77662 0.0
H1144 H 0.11026 0.55023 0.70374 0.0
H1145 H 0.16863 0.55151 0.78696 0.0
H1146 H 0.18989 0.55362 0.85347 0.0
H1147 H 0.1652 0.5008 0.90537 0.0
H1148 H 0.14356 0.49853 0.83948 0.0
H1149 H 0.16164 0.45055 0.63839 0.0
H1150 H 0.16207 0.48195 0.67789 0.0
H1151 H 0.09938 0.48398 0.67269 0.0
H1152 H 0.09899 0.45295 0.63245 0.0
H1153 H 0.15043 0.49431 0.75377 0.0
H1154 H 0.08216 0.53001 0.66913 0.0
H1155 H 0.06654 0.53145 0.59462 0.0
H1156 H 0.12034 0.515 0.53191 0.0
H1157 H 0.13636 0.51375 0.60592 0.0
C1158 C 0.12056 0.57244 0.85752 0.0
C1159 C 0.1215 0.59121 0.83874 0.0
C1160 C 0.12282 0.5558 0.83065 0.0
C1161 C 0.12665 0.55741 0.78434 0.0
C1162 C 0.1275 0.57621 0.76549 0.0
C1163 C 0.12484 0.59288 0.79226 0.0
C1164 C 0.12926 0.53951 0.75567 0.0
C1165 C 0.11906 0.53804 0.71484 0.0
C1166 C 0.14132 0.5237 0.76875 0.0
C1167 C 0.15434 0.52494 0.80843 0.0
C1168 C 0.16763 0.54041 0.81269 0.0
C1169 C 0.17977 0.54163 0.85027 0.0
C1170 C 0.17887 0.52737 0.88365 0.0
C1171 C 0.16586 0.51184 0.87949 0.0
C1172 C 0.15367 0.51057 0.84201 0.0
C1173 C 0.14797 0.45776 0.64556 0.0
C1174 C 0.13029 0.44926 0.63213 0.0
C1175 C 0.14821 0.47573 0.66827 0.0
C1176 C 0.13077 0.48568 0.67799 0.0
C1177 C 0.1131 0.47701 0.66489 0.0
C1178 C 0.11288 0.45914 0.64203 0.0
C1179 C 0.1309 0.50481 0.70267 0.0
C1180 C 0.14164 0.50652 0.74271 0.0
C1181 C 0.12006 0.52119 0.68781 0.0
C1182 C 0.1104 0.52156 0.64321 0.0
C1183 C 0.09067 0.52671 0.63945 0.0
C1184 C 0.08174 0.5275 0.59729 0.0
C1185 C 0.09242 0.52324 0.55858 0.0
C1186 C 0.11205 0.51819 0.56194 0.0
C1187 C 0.12106 0.51741 0.60401 0.0
H1188 H 0.0855 0.52392 0.52597 0.0
H1189 H 0.18828 0.52834 0.91272 0.0
H1190 H 0.57086 0.87827 0.14267 0.0
H1191 H 0.5414 0.87561 0.18795 0.0
H1192 H 0.5743 0.88913 0.30717 0.0
H1193 H 0.60405 0.89176 0.26191 0.0
H1194 H 0.54802 0.85992 0.32344 0.0
H1195 H 0.54655 0.92361 0.25821 0.0
H1196 H 0.54795 0.94766 0.19685 0.0
H1197 H 0.49812 0.92128 0.13472 0.0
H1198 H 0.49661 0.89688 0.1954 0.0
H1199 H 0.45135 0.90833 0.40826 0.0
H1200 H 0.48209 0.90906 0.36718 0.0
H1201 H 0.47901 0.84687 0.34837 0.0
H1202 H 0.44821 0.84606 0.39038 0.0
H1203 H 0.49113 0.90096 0.28406 0.0
H1204 H 0.52572 0.82842 0.34101 0.0
H1205 H 0.52534 0.80635 0.40638 0.0
H1206 H 0.51044 0.85419 0.49276 0.0
H1207 H 0.51097 0.87656 0.42802 0.0
C1208 C 0.57195 0.88063 0.17855 0.0
C1209 C 0.58996 0.88533 0.19844 0.0
C1210 C 0.55499 0.87914 0.20447 0.0
C1211 C 0.55545 0.88235 0.25109 0.0
C1212 C 0.57347 0.88659 0.27132 0.0
C1213 C 0.5905 0.88817 0.2453 0.0
C1214 C 0.53705 0.88177 0.27822 0.0
C1215 C 0.53558 0.86887 0.31472 0.0
C1216 C 0.52078 0.89359 0.26754 0.0
C1217 C 0.52159 0.9083 0.23112 0.0
C1218 C 0.53599 0.92285 0.23128 0.0
C1219 C 0.53679 0.93656 0.19665 0.0
C1220 C 0.52316 0.93597 0.16185 0.0
C1221 C 0.50868 0.9217 0.16167 0.0
C1222 C 0.50784 0.90793 0.19619 0.0
C1223 C 0.45724 0.89476 0.39563 0.0
C1224 C 0.4473 0.87712 0.40275 0.0
C1225 C 0.47484 0.89521 0.37187 0.0
C1226 C 0.48311 0.87803 0.35467 0.0
C1227 C 0.47318 0.86034 0.36169 0.0
C1228 C 0.4555 0.85988 0.38557 0.0
C1229 C 0.50193 0.8789 0.32901 0.0
C1230 C 0.5035 0.89189 0.29269 0.0
C1231 C 0.51835 0.86737 0.34034 0.0
C1232 C 0.51818 0.8541 0.37958 0.0
C1233 C 0.52242 0.83423 0.37398 0.0
C1234 C 0.52217 0.82167 0.41092 0.0
C1235 C 0.5178 0.82885 0.45367 0.0
C1236 C 0.51374 0.84863 0.4596 0.0
C1237 C 0.51399 0.86125 0.42279 0.0
H1238 H 0.5176 0.8191 0.48221 0.0
H1239 H 0.5238 0.9466 0.13507 0.0
H1240 H 0.84575 0.94709 0.63048 0.0
H1241 H 0.84618 0.97794 0.58844 0.0
H1242 H 0.9071 0.98487 0.61878 0.0
H1243 H 0.90682 0.95407 0.65988 0.0
H1244 H 0.88648 0.0195 0.63007 0.0
H1245 H 0.89307 0.9689 0.51644 0.0
H1246 H 0.88285 0.93975 0.4742 0.0
H1247 H 0.82923 0.96789 0.43858 0.0
H1248 H 0.83909 0.99717 0.48088 0.0
H1249 H 0.91309 0.09452 0.47882 0.0
H1250 H 0.91013 0.06486 0.52352 0.0
H1251 H 0.85534 0.05209 0.4589 0.0
H1252 H 0.85929 0.08091 0.41144 0.0
H1253 H 0.87112 0.02053 0.46739 0.0
H1254 H 0.86105 0.06947 0.58123 0.0
H1255 H 0.86892 0.09973 0.6221 0.0
H1256 H 0.92483 0.0765 0.65765 0.0
H1257 H 0.91708 0.04589 0.6179 0.0
C1258 C 0.85922 0.95519 0.6281 0.0
C1259 C 0.87628 0.94799 0.64832 0.0
C1260 C 0.85947 0.97285 0.60405 0.0
C1261 C 0.87672 0.9838 0.60009 0.0
C1262 C 0.8936 0.97682 0.62126 0.0
C1263 C 0.89341 0.95912 0.64474 0.0
C1264 C 0.87748 1.0023 0.57327 0.0
C1265 C 0.88322 0.0197 0.59443 0.0
C1266 C 0.87272 1.00287 0.527 0.0
C1267 C 0.86673 0.98515 0.50215 0.0
C1268 C 0.87902 0.9688 0.49994 0.0
C1269 C 0.87331 0.95227 0.47591 0.0
C1270 C 0.85537 0.95196 0.45382 0.0
C1271 C 0.8431 0.96815 0.45575 0.0
C1272 C 0.84876 0.98472 0.47968 0.0
C1273 C 0.90039 0.08539 0.47434 0.0
C1274 C 0.8864 0.0901 0.44167 0.0
C1275 C 0.89854 0.06845 0.50039 0.0
C1276 C 0.88218 0.05618 0.49602 0.0
C1277 C 0.86814 0.06108 0.46341 0.0
C1278 C 0.87034 0.07766 0.43625 0.0
C1279 C 0.88002 0.03798 0.52405 0.0
C1280 C 0.87413 0.02054 0.50314 0.0
C1281 C 0.88413 0.0375 0.57082 0.0
C1282 C 0.88854 0.05548 0.59639 0.0
C1283 C 0.875 0.07082 0.5979 0.0
C1284 C 0.87943 0.08801 0.62089 0.0
C1285 C 0.89743 0.0901 0.64215 0.0
C1286 C 0.91091 0.07487 0.64105 0.0
C1287 C 0.90644 0.05753 0.61869 0.0
H1288 H 0.90089 0.10347 0.65971 0.0
H1289 H 0.85097 0.93924 0.43497 0.0
H1290 H 0.09716 0.09962 0.54543 0.0
H1291 H 0.06752 0.1009 0.50006 0.0
H1292 H 0.04574 0.14775 0.58258 0.0
H1293 H 0.07487 0.1457 0.62959 0.0
H1294 H 0.01714 0.12583 0.56563 0.0
H1295 H 0.06594 0.1536 0.46892 0.0
H1296 H 0.09751 0.15417 0.4295 0.0
H1297 H 0.08199 0.10228 0.35744 0.0
H1298 H 0.05037 0.10131 0.39674 0.0
H1299 H 0.9476 0.16039 0.39883 0.0
H1300 H 0.97773 0.15883 0.44325 0.0
H1301 H 0.98462 0.09845 0.40733 0.0
H1302 H 0.954 0.09959 0.3652 0.0
H1303 H 0.02031 0.12738 0.3992 0.0
H1304 H 0.97194 0.09954 0.49816 0.0
H1305 H 0.94082 0.09878 0.53933 0.0
H1306 H 0.956 0.1518 0.60725 0.0
H1307 H 0.9871 0.15305 0.56588 0.0
C1308 C 0.08609 0.11027 0.55377 0.0
C1309 C 0.08848 0.12266 0.59101 0.0
C1310 C 0.06913 0.11108 0.52756 0.0
C1311 C 0.05436 0.12474 0.53692 0.0
C1312 C 0.05677 0.13707 0.57429 0.0
C1313 C 0.07353 0.13595 0.60114 0.0
C1314 C 0.03635 0.12604 0.50829 0.0
C1315 C 0.01798 0.12647 0.52929 0.0
C1316 C 0.03709 0.12649 0.46059 0.0
C1317 C 0.05584 0.12733 0.43595 0.0
C1318 C 0.06928 0.1423 0.44471 0.0
C1319 C 0.08717 0.14268 0.42242 0.0
C1320 C 0.09175 0.12826 0.39103 0.0
C1321 C 0.0784 0.11345 0.38174 0.0
C1322 C 0.06047 0.113 0.40394 0.0
C1323 C 0.9554 0.14673 0.40085 0.0
C1324 C 0.94815 0.13003 0.37922 0.0
C1325 C 0.9727 0.14589 0.42596 0.0
C1326 C 0.98341 0.12848 0.4288 0.0
C1327 C 0.97662 0.11202 0.40569 0.0
C1328 C 0.95908 0.11272 0.38163 0.0
C1329 C 1.00141 0.1273 0.45676 0.0
C1330 C 0.01966 0.12688 0.43558 0.0
C1331 C 1.00059 0.12699 0.50422 0.0
C1332 C 0.98173 0.12653 0.52845 0.0
C1333 C 0.96852 0.1112 0.52135 0.0
C1334 C 0.9509 0.11065 0.54481 0.0
C1335 C 0.94641 0.12527 0.57575 0.0
C1336 C 0.95948 0.14051 0.58317 0.0
C1337 C 0.9771 0.14115 0.55973 0.0
H1338 H 0.93287 0.12467 0.5942 0.0
H1339 H 0.10562 0.12859 0.37385 0.0
H1340 H 0.13121 0.93981 0.38649 0.0
H1341 H 0.13407 0.96962 0.43054 0.0
H1342 H 0.11654 0.93847 0.54949 0.0
H1343 H 0.11384 0.90836 0.5055 0.0
H1344 H 0.10901 0.99099 0.47483 0.0
H1345 H 0.13839 0.95885 0.64165 0.0
H1346 H 0.15853 0.93125 0.66714 0.0
H1347 H 0.18679 0.92906 0.53874 0.0
H1348 H 0.16708 0.95678 0.51265 0.0
H1349 H 0.09866 0.0599 0.65018 0.0
H1350 H 0.09854 0.02999 0.6057 0.0
H1351 H 0.16115 0.03167 0.59813 0.0
H1352 H 0.16134 0.06175 0.64315 0.0
H1353 H 0.14837 0.99476 0.61421 0.0
H1354 H 0.13417 0.04517 0.5095 0.0
H1355 H 0.11705 0.07385 0.47905 0.0
H1356 H 0.06369 0.04154 0.47449 0.0
H1357 H 0.08034 0.01276 0.5058 0.0
C1358 C 0.12801 0.93918 0.42207 0.0
C1359 C 0.12234 0.92152 0.44231 0.0
C1360 C 0.12958 0.95637 0.44727 0.0
C1361 C 0.12564 0.95646 0.49357 0.0
C1362 C 0.11992 0.93885 0.51398 0.0
C1363 C 0.11832 0.9216 0.4887 0.0
C1364 C 0.12749 0.97499 0.52011 0.0
C1365 C 0.11756 0.99174 0.50538 0.0
C1366 C 0.13903 0.97632 0.55948 0.0
C1367 C 0.15111 0.95977 0.57508 0.0
C1368 C 0.14895 0.95252 0.61892 0.0
C1369 C 0.1603 0.93685 0.63349 0.0
C1370 C 0.1739 0.92837 0.60462 0.0
C1371 C 0.17623 0.93558 0.56109 0.0
C1372 C 0.16496 0.95126 0.54636 0.0
C1373 C 0.11244 0.0539 0.63923 0.0
C1374 C 0.13002 0.06327 0.65015 0.0
C1375 C 0.11234 0.03679 0.61355 0.0
C1376 C 0.12981 0.02856 0.59801 0.0
C1377 C 0.14746 0.03769 0.6096 0.0
C1378 C 0.14756 0.05492 0.63521 0.0
C1379 C 0.1295 0.01056 0.5695 0.0
C1380 C 0.13973 0.99395 0.58379 0.0
C1381 C 0.11857 0.00949 0.52915 0.0
C1382 C 0.10849 0.02682 0.51037 0.0
C1383 C 0.11874 0.04421 0.5024 0.0
C1384 C 0.10914 0.06049 0.48492 0.0
C1385 C 0.08932 0.05951 0.47483 0.0
C1386 C 0.07904 0.04227 0.48232 0.0
C1387 C 0.08856 0.02597 0.49994 0.0
H1388 H 0.08195 0.07208 0.46103 0.0
H1389 H 0.18267 0.91627 0.61609 0.0
H1390 H 0.06309 0.84883 0.40856 0.0
H1391 H 0.03284 0.84945 0.45184 0.0
H1392 H 0.02108 0.90751 0.40327 0.0
H1393 H 0.05219 0.90754 0.36396 0.0
H1394 H 0.01084 0.90819 0.48145 0.0
H1395 H 0.99652 0.86143 0.36694 0.0
H1396 H 1.00125 0.83197 0.32078 0.0
H1397 H 0.99752 0.79625 0.43876 0.0
H1398 H 0.993 0.82553 0.48571 0.0
H1399 H 0.90899 0.90728 0.53896 0.0
H1400 H 0.93868 0.90452 0.49347 0.0
H1401 H 0.96094 0.86105 0.58421 0.0
H1402 H 0.93155 0.86404 0.63041 0.0
H1403 H 0.9649 0.85259 0.48542 0.0
H1404 H 0.97861 0.90219 0.59763 0.0
H1405 H 0.97129 0.93269 0.63804 0.0
H1406 H 0.97314 0.9644 0.51388 0.0
H1407 H 0.98019 0.93401 0.47264 0.0
C1408 C 0.05416 0.8618 0.40762 0.0
C1409 C 0.06028 0.87825 0.3834 0.0
C1410 C 0.03658 0.86206 0.43184 0.0
C1411 C 0.0242 0.87846 0.43075 0.0
C1412 C 0.03019 0.89467 0.40538 0.0
C1413 C 0.04801 0.89464 0.38247 0.0
C1414 C 0.00537 0.87911 0.45679 0.0
C1415 C 1.00077 0.89604 0.48144 0.0
C1416 C 0.99199 0.86332 0.458 0.0
C1417 C 0.99462 0.84569 0.42987 0.0
C1418 C 0.99683 0.8473 0.38306 0.0
C1419 C 0.99946 0.83063 0.35676 0.0
C1420 C 0.99974 0.81225 0.37684 0.0
C1421 C 0.99733 0.8105 0.42326 0.0
C1422 C 0.99472 0.82712 0.44973 0.0
C1423 C 0.92014 0.89703 0.54909 0.0
C1424 C 0.91787 0.88592 0.58847 0.0
C1425 C 0.93713 0.89549 0.52307 0.0
C1426 C 0.95208 0.88257 0.53537 0.0
C1427 C 0.94962 0.87108 0.57394 0.0
C1428 C 0.93282 0.87289 0.60046 0.0
C1429 C 0.97061 0.88159 0.5091 0.0
C1430 C 0.97508 0.86464 0.48479 0.0
C1431 C 0.98362 0.89751 0.50714 0.0
C1432 C 0.97974 0.91581 0.53202 0.0
C1433 C 0.97731 0.91564 0.57891 0.0
C1434 C 0.97324 0.93291 0.60197 0.0
C1435 C 0.9717 0.95046 0.57853 0.0
C1436 C 0.97431 0.95079 0.53199 0.0
C1437 C 0.97836 0.93355 0.50876 0.0
H1438 H 0.96853 0.96381 0.59643 0.0
H1439 H 1.00179 0.79937 0.35642 0.0
H1440 H 0.32974 0.17692 0.11296 0.0
H1441 H 0.33398 0.21227 0.11728 0.0
H1442 H 0.39537 0.2045 0.14083 0.0
H1443 H 0.39124 0.16897 0.13574 0.0
H1444 H 0.37646 0.23182 0.2016 0.0
H1445 H 0.38368 0.22036 0.04406 0.0
H1446 H 0.37476 0.20668 0.97031 0.0
H1447 H 0.32074 0.23807 0.97338 0.0
H1448 H 0.3292 0.25171 0.04752 0.0
H1449 H 0.38863 0.33703 0.17866 0.0
H1450 H 0.39259 0.30131 0.17729 0.0
H1451 H 0.33499 0.29553 0.1211 0.0
H1452 H 0.33145 0.33073 0.12085 0.0
H1453 H 0.35783 0.27453 0.0745 0.0
H1454 H 0.34837 0.28312 0.23446 0.0
H1455 H 0.35609 0.29623 0.30951 0.0
H1456 H 0.41285 0.27024 0.30335 0.0
H1457 H 0.40555 0.25717 0.22796 0.0
C1458 C 0.34418 0.18273 0.11858 0.0
C1459 C 0.36015 0.17015 0.12375 0.0
C1460 C 0.34659 0.20295 0.12116 0.0
C1461 C 0.36499 0.2111 0.12945 0.0
C1462 C 0.38103 0.19858 0.13453 0.0
C1463 C 0.37867 0.17829 0.13123 0.0
C1464 C 0.36721 0.2327 0.13256 0.0
C1465 C 0.37272 0.24121 0.17361 0.0
C1466 C 0.3621 0.24498 0.09632 0.0
C1467 C 0.35702 0.23694 0.05153 0.0
C1468 C 0.36983 0.22423 0.02918 0.0
C1469 C 0.36487 0.2165 0.98727 0.0
C1470 C 0.34718 0.22147 0.96721 0.0
C1471 C 0.33443 0.23422 0.98897 0.0
C1472 C 0.33932 0.24197 0.03092 0.0
C1473 C 0.37675 0.32802 0.16686 0.0
C1474 C 0.35973 0.33665 0.14987 0.0
C1475 C 0.379 0.30759 0.16597 0.0
C1476 C 0.3641 0.29552 0.14888 0.0
C1477 C 0.34684 0.30432 0.13392 0.0
C1478 C 0.34476 0.32453 0.13409 0.0
C1479 C 0.36636 0.27387 0.1442 0.0
C1480 C 0.36176 0.26527 0.10257 0.0
C1481 C 0.37214 0.26158 0.18007 0.0
C1482 C 0.37651 0.26938 0.22537 0.0
C1483 C 0.36256 0.28033 0.24897 0.0
C1484 C 0.36684 0.28773 0.29159 0.0
C1485 C 0.38497 0.28413 0.31112 0.0
C1486 C 0.39883 0.27306 0.28813 0.0
C1487 C 0.39462 0.26564 0.24547 0.0
H1488 H 0.38826 0.28987 0.34412 0.0
H1489 H 0.34336 0.21547 0.93476 0.0
H1490 H 0.33009 0.67776 0.86917 0.0
H1491 H 0.29493 0.67457 0.87794 0.0
H1492 H 0.30098 0.61228 0.88982 0.0
H1493 H 0.3364 0.61542 0.87996 0.0
H1494 H 0.26817 0.62117 0.84344 0.0
H1495 H 0.29537 0.6404 0.98342 0.0
H1496 H 0.31562 0.6599 0.03489 0.0
H1497 H 0.28256 0.71104 1.00239 0.0
H1498 H 0.26228 0.69191 0.95017 0.0
H1499 H 0.16924 0.61784 0.92398 0.0
H1500 H 0.20475 0.61358 0.92087 0.0
H1501 H 0.21186 0.67579 0.90921 0.0
H1502 H 0.17674 0.68007 0.91365 0.0
H1503 H 0.23864 0.66227 0.96242 0.0
H1504 H 0.21344 0.64223 0.81617 0.0
H1505 H 0.19284 0.62163 0.76768 0.0
H1506 H 0.22192 0.57045 0.81618 0.0
H1507 H 0.24253 0.59074 0.86539 0.0
C1508 C 0.32394 0.66334 0.8731 0.0
C1509 C 0.33608 0.64687 0.87425 0.0
C1510 C 0.30379 0.66153 0.87838 0.0
C1511 C 0.2952 0.64322 0.88568 0.0
C1512 C 0.30719 0.62659 0.88458 0.0
C1513 C 0.32745 0.62839 0.87891 0.0
C1514 C 0.27391 0.64182 0.8963 0.0
C1515 C 0.26177 0.62994 0.8699 0.0
C1516 C 0.26537 0.65318 0.93088 0.0
C1517 C 0.27739 0.66473 0.96263 0.0
C1518 C 0.29249 0.65583 0.98704 0.0
C1519 C 0.30397 0.66681 1.01637 0.0
C1520 C 0.3004 0.6867 0.02185 0.0
C1521 C 0.28531 0.69564 0.99809 0.0
C1522 C 0.2738 0.68472 0.96866 0.0
C1523 C 0.17844 0.63059 0.92134 0.0
C1524 C 0.17013 0.64929 0.91883 0.0
C1525 C 0.19876 0.62814 0.91915 0.0
C1526 C 0.21115 0.64434 0.91392 0.0
C1527 C 0.20278 0.66301 0.91307 0.0
C1528 C 0.1826 0.66545 0.91554 0.0
C1529 C 0.23276 0.64222 0.90848 0.0
C1530 C 0.24502 0.65339 0.93612 0.0
C1531 C 0.24135 0.63008 0.87535 0.0
C1532 C 0.22939 0.61798 0.84474 0.0
C1533 C 0.21539 0.62658 0.81658 0.0
C1534 C 0.20371 0.61496 0.78899 0.0
C1535 C 0.20602 0.59474 0.78897 0.0
C1536 C 0.22012 0.58611 0.81631 0.0
C1537 C 0.23181 0.59766 0.84401 0.0
H1538 H 0.19692 0.58576 0.76772 0.0
H1539 H 0.30931 0.69519 0.04456 0.0
H1540 H 0.67995 0.83026 0.1206 0.0
H1541 H 0.67633 0.79499 0.12532 0.0
H1542 H 0.61393 0.80131 0.12795 0.0
H1543 H 0.61753 0.83693 0.12371 0.0
H1544 H 0.62579 0.77553 0.19123 0.0
H1545 H 0.63683 0.7835 0.03466 0.0
H1546 H 0.65318 0.7956 0.96649 0.0
H1547 H 0.70564 0.76593 1.00452 0.0
H1548 H 0.6897 0.75387 0.0733 0.0
H1549 H 0.61592 0.67071 0.16762 0.0
H1550 H 0.61324 0.70622 0.15885 0.0
H1551 H 0.67577 0.7106 0.15318 0.0
H1552 H 0.67848 0.67535 0.16154 0.0
H1553 H 0.65982 0.73087 0.08644 0.0
H1554 H 0.64905 0.72515 0.24619 0.0
H1555 H 0.63239 0.7131 0.31404 0.0
H1556 H 0.57873 0.73836 0.26865 0.0
H1557 H 0.59503 0.75034 0.20017 0.0
C1558 C 0.66542 0.82418 0.12166 0.0
C1559 C 0.64904 0.83644 0.12163 0.0
C1560 C 0.66336 0.80393 0.12428 0.0
C1561 C 0.64484 0.79532 0.12666 0.0
C1562 C 0.62838 0.80753 0.12612 0.0
C1563 C 0.63045 0.82789 0.12335 0.0
C1564 C 0.64296 0.77364 0.13087 0.0
C1565 C 0.63292 0.76576 0.1678 0.0
C1566 C 0.65246 0.76076 0.10079 0.0
C1567 C 0.6621 0.76789 0.05933 0.0
C1568 C 0.6519 0.77966 0.02866 0.0
C1569 C 0.66109 0.7865 0.98988 0.0
C1570 C 0.68045 0.78157 0.98122 0.0
C1571 C 0.69065 0.76974 1.01129 0.0
C1572 C 0.68153 0.76288 0.05015 0.0
C1573 C 0.62908 0.6793 0.16513 0.0
C1574 C 0.64742 0.67017 0.16521 0.0
C1575 C 0.62754 0.69963 0.16008 0.0
C1576 C 0.64432 0.71123 0.15525 0.0
C1577 C 0.6626 0.70208 0.1565 0.0
C1578 C 0.66413 0.68187 0.16153 0.0
C1579 C 0.64309 0.73276 0.1474 0.0
C1580 C 0.65252 0.74062 0.10965 0.0
C1581 C 0.63298 0.74556 0.17662 0.0
C1582 C 0.6232 0.73844 0.21782 0.0
C1583 C 0.63366 0.728 0.2505 0.0
C1584 C 0.62429 0.72121 0.2891 0.0
C1585 C 0.6045 0.72491 0.29558 0.0
C1586 C 0.59405 0.73547 0.26353 0.0
C1587 C 0.60335 0.74227 0.22484 0.0
H1588 H 0.59728 0.71964 0.32549 0.0
H1589 H 0.68754 0.78687 0.95118 0.0
H1590 H 0.83712 0.38885 0.91137 0.0
H1591 H 0.80169 0.39264 0.90418 0.0
H1592 H 0.79571 0.3305 0.88852 0.0
H1593 H 0.83091 0.32668 0.89548 0.0
H1594 H 0.77542 0.34933 0.82499 0.0
H1595 H 0.78261 0.35405 0.98587 0.0
H1596 H 0.79558 0.3678 0.05629 0.0
H1597 H 0.77137 0.4236 0.02302 0.0
H1598 H 0.75849 0.41024 0.95204 0.0
H1599 H 0.67625 0.32986 0.86159 0.0
H1600 H 0.71159 0.33278 0.86505 0.0
H1601 H 0.70638 0.39515 0.87694 0.0
H1602 H 0.67069 0.39224 0.87372 0.0
H1603 H 0.73248 0.38052 0.93797 0.0
H1604 H 0.72291 0.37532 0.7803 0.0
H1605 H 0.70983 0.36173 0.70985 0.0
H1606 H 0.73862 0.30743 0.73608 0.0
H1607 H 0.75165 0.32058 0.80707 0.0
C1608 C 0.8282 0.37599 0.90694 0.0
C1609 C 0.83686 0.35746 0.90392 0.0
C1610 C 0.80793 0.37817 0.90282 0.0
C1611 C 0.79591 0.36185 0.89572 0.0
C1612 C 0.80458 0.34334 0.89368 0.0
C1613 C 0.82475 0.34117 0.8979 0.0
C1614 C 0.7744 0.36386 0.88905 0.0
C1615 C 0.76604 0.35601 0.84994 0.0
C1616 C 0.76211 0.37318 0.9207 0.0
C1617 C 0.76979 0.3812 0.9634 0.0
C1618 C 0.7802 0.36929 0.99338 0.0
C1619 C 0.78751 0.37701 0.03343 0.0
C1620 C 0.78436 0.39658 0.04405 0.0
C1621 C 0.77384 0.40846 1.0147 0.0
C1622 C 0.76652 0.40082 0.97457 0.0
C1623 C 0.6826 0.34425 0.86444 0.0
C1624 C 0.67064 0.36082 0.86724 0.0
C1625 C 0.70286 0.34591 0.86634 0.0
C1626 C 0.71179 0.3642 0.87096 0.0
C1627 C 0.69989 0.38087 0.87332 0.0
C1628 C 0.6795 0.37921 0.87115 0.0
C1629 C 0.73349 0.36557 0.8744 0.0
C1630 C 0.74188 0.37404 0.9128 0.0
C1631 C 0.74587 0.35688 0.84202 0.0
C1632 C 0.73815 0.34891 0.79921 0.0
C1633 C 0.72634 0.36043 0.77123 0.0
C1634 C 0.71895 0.35281 0.73116 0.0
C1635 C 0.72336 0.33372 0.71854 0.0
C1636 C 0.73521 0.32221 0.74592 0.0
C1637 C 0.74262 0.32975 0.78605 0.0
H1638 H 0.71762 0.32785 0.6875 0.0
H1639 H 0.79003 0.40252 0.07508 0.0
H1640 H 0.88495 0.66952 0.60439 0.0
H1641 H 0.88885 0.70528 0.6011 0.0
H1642 H 0.83374 0.71242 0.66829 0.0
H1643 H 0.83006 0.67717 0.6725 0.0
H1644 H 0.83902 0.73763 0.59316 0.0
H1645 H 0.87348 0.71551 0.7275 0.0
H1646 H 0.89883 0.69593 0.76488 0.0
H1647 H 0.94293 0.72466 0.68727 0.0
H1648 H 0.91778 0.74421 0.64891 0.0
H1649 H 0.82977 0.83078 0.68105 0.0
H1650 H 0.83282 0.7955 0.67355 0.0
H1651 H 0.89339 0.80195 0.63874 0.0
H1652 H 0.89052 0.83741 0.6481 0.0
H1653 H 0.88955 0.76996 0.68595 0.0
H1654 H 0.85753 0.79443 0.55702 0.0
H1655 H 0.83359 0.81337 0.51354 0.0
H1656 H 0.78707 0.78002 0.57124 0.0
H1657 H 0.81073 0.76106 0.61562 0.0
C1658 C 0.87361 0.67879 0.61783 0.0
C1659 C 0.85719 0.67057 0.63864 0.0
C1660 C 0.87587 0.69918 0.61619 0.0
C1661 C 0.86159 0.71157 0.63461 0.0
C1662 C 0.84493 0.70325 0.6538 0.0
C1663 C 0.84287 0.68305 0.65621 0.0
C1664 C 0.86386 0.7332 0.63578 0.0
C1665 C 0.85003 0.74471 0.61352 0.0
C1666 C 0.87863 0.74251 0.66105 0.0
C1667 C 0.89375 0.73116 0.68501 0.0
C1668 C 0.88857 0.71756 0.71821 0.0
C1669 C 0.9029 0.70648 0.73959 0.0
C1670 C 0.92248 0.709 0.72834 0.0
C1671 C 0.92776 0.7227 0.69588 0.0
C1672 C 0.91348 0.73379 0.67433 0.0
C1673 C 0.84382 0.82467 0.6724 0.0
C1674 C 0.85985 0.83691 0.66489 0.0
C1675 C 0.84553 0.80446 0.66771 0.0
C1676 C 0.86321 0.79592 0.65419 0.0
C1677 C 0.87954 0.80807 0.64879 0.0
C1678 C 0.87789 0.82836 0.6542 0.0
C1679 C 0.86423 0.77449 0.64445 0.0
C1680 C 0.87867 0.763 0.665 0.0
C1681 C 0.85022 0.76515 0.61676 0.0
C1682 C 0.83591 0.77641 0.5899 0.0
C1683 C 0.84219 0.79121 0.56066 0.0
C1684 C 0.82867 0.80194 0.53583 0.0
C1685 C 0.80882 0.79792 0.53968 0.0
C1686 C 0.80245 0.78312 0.56831 0.0
C1687 C 0.81592 0.77236 0.59327 0.0
H1688 H 0.79837 0.80625 0.52044 0.0
H1689 H 0.93355 0.70037 0.74485 0.0
H1690 H 0.8379 0.11889 0.36996 0.0
H1691 H 0.80248 0.11619 0.37935 0.0
H1692 H 0.79771 0.17882 0.37932 0.0
H1693 H 0.83292 0.18155 0.37046 0.0
H1694 H 0.77786 0.16389 0.44792 0.0
H1695 H 0.7831 0.15026 0.28901 0.0
H1696 H 0.79506 0.13239 0.22265 0.0
H1697 H 0.77044 0.07942 0.2739 0.0
H1698 H 0.75856 0.09695 0.3409 0.0
H1699 H 0.67829 0.18264 0.41502 0.0
H1700 H 0.71355 0.17928 0.41019 0.0
H1701 H 0.70783 0.11673 0.41054 0.0
H1702 H 0.67224 0.12008 0.41451 0.0
H1703 H 0.73317 0.12774 0.3472 0.0
H1704 H 0.72563 0.14142 0.50283 0.0
H1705 H 0.71355 0.15888 0.56962 0.0
H1706 H 0.74268 0.21088 0.52644 0.0
H1707 H 0.75471 0.19382 0.45901 0.0
C1708 C 0.82923 0.13205 0.37127 0.0
C1709 C 0.83823 0.15044 0.36953 0.0
C1710 C 0.80897 0.13051 0.37669 0.0
C1711 C 0.79731 0.14731 0.38015 0.0
C1712 C 0.80631 0.16563 0.37709 0.0
C1713 C 0.82647 0.16717 0.37176 0.0
C1714 C 0.77587 0.1461 0.38853 0.0
C1715 C 0.7681 0.15613 0.4256 0.0
C1716 C 0.76308 0.13538 0.36054 0.0
C1717 C 0.77013 0.12487 0.32019 0.0
C1718 C 0.78037 0.13477 0.28629 0.0
C1719 C 0.78711 0.12471 0.24854 0.0
C1720 C 0.78356 0.10477 0.24412 0.0
C1721 C 0.77321 0.09486 0.2774 0.0
C1722 C 0.76646 0.10485 0.31525 0.0
C1723 C 0.68451 0.16814 0.4146 0.0
C1724 C 0.67244 0.15163 0.41526 0.0
C1725 C 0.70474 0.16623 0.41196 0.0
C1726 C 0.71351 0.14774 0.4104 0.0
C1727 C 0.70148 0.13116 0.41173 0.0
C1728 C 0.68114 0.13308 0.41434 0.0
C1729 C 0.73514 0.14597 0.40594 0.0
C1730 C 0.74295 0.13535 0.36977 0.0
C1731 C 0.74803 0.15607 0.43491 0.0
C1732 C 0.74096 0.16636 0.47566 0.0
C1733 C 0.72936 0.15662 0.50741 0.0
C1734 C 0.72253 0.16644 0.54541 0.0
C1735 C 0.72731 0.18599 0.55223 0.0
C1736 C 0.73898 0.19574 0.52111 0.0
C1737 C 0.74583 0.18599 0.48301 0.0
H1738 H 0.722 0.19357 0.58166 0.0
H1739 H 0.78879 0.097 0.21487 0.0
H1740 H 0.17528 0.33291 0.66524 0.0
H1741 H 0.1715 0.29771 0.66149 0.0
H1742 H 0.11621 0.30476 0.59514 0.0
H1743 H 0.12013 0.34057 0.59825 0.0
H1744 H 0.11685 0.27738 0.67218 0.0
H1745 H 0.15041 0.28846 0.53383 0.0
H1746 H 0.17583 0.30289 0.48589 0.0
H1747 H 0.22002 0.27416 0.5633 0.0
H1748 H 0.19488 0.25978 0.61217 0.0
H1749 H 0.11596 0.17258 0.64882 0.0
H1750 H 0.11272 0.20785 0.63786 0.0
H1751 H 0.17382 0.21504 0.66685 0.0
H1752 H 0.17717 0.17985 0.67598 0.0
H1753 H 0.1661 0.23552 0.59791 0.0
H1754 H 0.13455 0.22825 0.74149 0.0
H1755 H 0.11046 0.21518 0.79489 0.0
H1756 H 0.06399 0.23751 0.71343 0.0
H1757 H 0.08782 0.25049 0.6592 0.0
C1758 C 0.16239 0.32704 0.64926 0.0
C1759 C 0.14806 0.33953 0.63177 0.0
C1760 C 0.16025 0.30686 0.6472 0.0
C1761 C 0.14361 0.29851 0.628 0.0
C1762 C 0.1292 0.31088 0.61009 0.0
C1763 C 0.13151 0.33129 0.6115 0.0
C1764 C 0.14159 0.27684 0.62796 0.0
C1765 C 0.12731 0.26815 0.65507 0.0
C1766 C 0.15557 0.26481 0.60674 0.0
C1767 C 0.17074 0.27311 0.57684 0.0
C1768 C 0.16555 0.2853 0.54081 0.0
C1769 C 0.17991 0.29347 0.51344 0.0
C1770 C 0.19953 0.28947 0.52159 0.0
C1771 C 0.20482 0.27724 0.55702 0.0
C1772 C 0.19051 0.26905 0.58453 0.0
C1773 C 0.12862 0.18175 0.65348 0.0
C1774 C 0.14683 0.17342 0.66336 0.0
C1775 C 0.12677 0.20197 0.64723 0.0
C1776 C 0.14301 0.21435 0.65162 0.0
C1777 C 0.16105 0.20597 0.66285 0.0
C1778 C 0.16294 0.18581 0.66842 0.0
C1779 C 0.14163 0.23588 0.64321 0.0
C1780 C 0.15536 0.24459 0.6145 0.0
C1781 C 0.12729 0.24792 0.66347 0.0
C1782 C 0.11296 0.24012 0.69601 0.0
C1783 C 0.11919 0.23022 0.73477 0.0
C1784 C 0.10558 0.22286 0.76522 0.0
C1785 C 0.0857 0.22545 0.75748 0.0
C1786 C 0.07939 0.23547 0.71932 0.0
C1787 C 0.09294 0.24284 0.68873 0.0
H1788 H 0.07519 0.21974 0.7811 0.0
H1789 H 0.21063 0.29584 0.50041 0.0
H1790 H 0.33096 0.82789 0.40671 0.0
H1791 H 0.29591 0.83193 0.39735 0.0
H1792 H 0.3017 0.89374 0.41863 0.0
H1793 H 0.33711 0.8898 0.42767 0.0
H1794 H 0.26844 0.87636 0.46272 0.0
H1795 H 0.2971 0.87953 0.31643 0.0
H1796 H 0.31846 0.86847 0.25496 0.0
H1797 H 0.28651 0.8149 0.246 0.0
H1798 H 0.26517 0.8255 0.30799 0.0
H1799 H 0.17144 0.89274 0.3812 0.0
H1800 H 0.20699 0.89542 0.38818 0.0
H1801 H 0.21268 0.83409 0.35996 0.0
H1802 H 0.17731 0.83134 0.35338 0.0
H1803 H 0.24068 0.85516 0.31676 0.0
H1804 H 0.21407 0.84998 0.46494 0.0
H1805 H 0.19335 0.85914 0.52913 0.0
H1806 H 0.22174 0.91472 0.53685 0.0
H1807 H 0.24233 0.90606 0.47192 0.0
C1808 C 0.32482 0.84235 0.40989 0.0
C1809 C 0.33689 0.85855 0.41759 0.0
C1810 C 0.30474 0.84464 0.40438 0.0
C1811 C 0.29616 0.86316 0.40662 0.0
C1812 C 0.308 0.87931 0.41656 0.0
C1813 C 0.32822 0.87704 0.42175 0.0
C1814 C 0.27498 0.8655 0.39664 0.0
C1815 C 0.2624 0.87213 0.43049 0.0
C1816 C 0.26701 0.85958 0.35491 0.0
C1817 C 0.27962 0.85326 0.31712 0.0
C1818 C 0.29471 0.86533 0.30157 0.0
C1819 C 0.30681 0.85915 0.26661 0.0
C1820 C 0.30387 0.84097 0.24665 0.0
C1821 C 0.28878 0.82897 0.26152 0.0
C1822 C 0.27667 0.83507 0.29655 0.0
C1823 C 0.18032 0.87992 0.37578 0.0
C1824 C 0.17157 0.8618 0.36682 0.0
C1825 C 0.20063 0.88143 0.38007 0.0
C1826 C 0.21257 0.86491 0.37505 0.0
C1827 C 0.20385 0.84704 0.36404 0.0
C1828 C 0.1836 0.84548 0.36031 0.0
C1829 C 0.23404 0.86587 0.38299 0.0
C1830 C 0.24671 0.85974 0.34874 0.0
C1831 C 0.24205 0.87214 0.42446 0.0
C1832 C 0.22954 0.87749 0.46313 0.0
C1833 C 0.21572 0.86426 0.47993 0.0
C1834 C 0.20402 0.86934 0.51649 0.0
C1835 C 0.20617 0.88753 0.53692 0.0
C1836 C 0.22003 0.90067 0.52085 0.0
C1837 C 0.2317 0.89569 0.48412 0.0
H1838 H 0.19716 0.89138 0.56534 0.0
H1839 H 0.31325 0.83621 0.2196 0.0
H1840 H 0.21357 0.11878 0.71537 0.0
H1841 H 0.23965 0.11813 0.7715 0.0
H1842 H 0.19903 0.09697 0.87065 0.0
H1843 H 0.17285 0.09912 0.81556 0.0
H1844 H 0.21951 0.11982 0.91191 0.0
H1845 H 0.23973 0.06743 0.81362 0.0
H1846 H 0.24813 0.05265 0.74055 0.0
H1847 H 0.2931 0.09521 0.72157 0.0
H1848 H 0.28514 0.11007 0.79478 0.0
H1849 H 0.29419 0.09523 0.07333 0.0
H1850 H 0.26739 0.09385 0.01862 0.0
H1851 H 0.304 0.12116 0.91941 0.0
H1852 H 0.33066 0.12207 0.97287 0.0
H1853 H 0.28533 0.09396 0.87964 0.0
H1854 H 0.26514 0.1451 0.98175 0.0
H1855 H 0.2562 0.15895 0.05539 0.0
H1856 H 0.20994 0.11732 0.06795 0.0
H1857 H 0.21878 0.10305 0.99462 0.0
C1858 C 0.21029 0.11379 0.74902 0.0
C1859 C 0.19108 0.10888 0.76068 0.0
C1860 C 0.22531 0.11327 0.78135 0.0
C1861 C 0.22175 0.10708 0.82591 0.0
C1862 C 0.20252 0.10188 0.83704 0.0
C1863 C 0.18745 0.10297 0.80521 0.0
C1864 C 0.23765 0.10653 0.86133 0.0
C1865 C 0.23377 0.11382 0.90477 0.0
C1866 C 0.25661 0.09913 0.85286 0.0
C1867 C 0.26176 0.08991 0.80947 0.0
C1868 C 0.25143 0.0736 0.79385 0.0
C1869 C 0.25615 0.06518 0.75249 0.0
C1870 C 0.27117 0.07296 0.72648 0.0
C1871 C 0.28155 0.08913 0.74186 0.0
C1872 C 0.27701 0.09749 0.78337 0.0
C1873 C 0.29651 0.10096 0.03989 0.0
C1874 C 0.31475 0.10878 0.02797 0.0
C1875 C 0.28108 0.10027 1.00849 0.0
C1876 C 0.28337 0.1076 0.96445 0.0
C1877 C 0.30161 0.11533 0.95276 0.0
C1878 C 0.31696 0.1159 0.98379 0.0
C1879 C 0.26714 0.1072 0.93006 0.0
C1880 C 0.27099 0.09979 0.8868 0.0
C1881 C 0.24809 0.11426 0.93892 0.0
C1882 C 0.24278 0.12287 0.98294 0.0
C1883 C 0.25316 0.13881 1.00037 0.0
C1884 C 0.24809 0.14675 0.04203 0.0
C1885 C 0.23256 0.13898 0.06639 0.0
C1886 C 0.222 0.12329 0.04908 0.0
C1887 C 0.22703 0.11528 1.00748 0.0
H1888 H 0.22866 0.14514 0.09864 0.0
H1889 H 0.27477 0.06647 0.6944 0.0
H1890 H 0.10067 0.71668 0.95938 0.0
H1891 H 0.09955 0.74357 1.01427 0.0
H1892 H 0.115 0.70367 0.12003 0.0
H1893 H 0.11662 0.67722 0.06604 0.0
H1894 H 0.08518 0.72719 0.14624 0.0
H1895 H 0.14733 0.73432 0.07446 0.0
H1896 H 0.17033 0.73971 1.01224 0.0
H1897 H 0.14486 0.79573 0.98697 0.0
H1898 H 0.12122 0.79039 0.04799 0.0
H1899 H 0.10914 0.79439 0.3242 0.0
H1900 H 0.10815 0.76801 0.26826 0.0
H1901 H 0.10327 0.81052 0.16224 0.0
H1902 H 0.10498 0.83659 0.21726 0.0
H1903 H 0.12697 0.7857 0.13477 0.0
H1904 H 0.06463 0.77952 0.20366 0.0
H1905 H 0.04065 0.77485 0.26423 0.0
H1906 H 0.06458 0.71843 0.29252 0.0
H1907 H 0.08911 0.72298 0.23302 0.0
C1908 C 0.10382 0.71363 0.99431 0.0
C1909 C 0.10854 0.69454 1.00793 0.0
C1910 C 0.10321 0.72907 0.02578 0.0
C1911 C 0.10715 0.72577 0.0717 0.0
C1912 C 0.11173 0.70674 0.08514 0.0
C1913 C 0.11261 0.69149 0.05387 0.0
C1914 C 0.10667 0.74188 0.10618 0.0
C1915 C 0.09444 0.73993 0.14387 0.0
C1916 C 0.11837 0.75882 0.10296 0.0
C1917 C 0.13224 0.76178 0.06536 0.0
C1918 C 0.14637 0.74763 0.05512 0.0
C1919 C 0.15955 0.7507 0.02008 0.0
C1920 C 0.15895 0.76799 0.99543 0.0
C1921 C 0.1452 0.78227 1.00584 0.0
C1922 C 0.13186 0.7792 0.04055 0.0
C1923 C 0.10769 0.79807 0.289 0.0
C1924 C 0.10719 0.81773 0.27557 0.0
C1925 C 0.10706 0.78293 0.25681 0.0
C1926 C 0.1055 0.78702 0.2104 0.0
C1927 C 0.10463 0.80668 0.19739 0.0
C1928 C 0.10554 0.82171 0.22924 0.0
C1929 C 0.10533 0.77118 0.17499 0.0
C1930 C 0.11753 0.7731 0.13715 0.0
C1931 C 0.09339 0.75435 0.17777 0.0
C1932 C 0.07893 0.75174 0.21428 0.0
C1933 C 0.06498 0.76623 0.22322 0.0
C1934 C 0.05128 0.7636 0.25737 0.0
C1935 C 0.05119 0.74641 0.28243 0.0
C1936 C 0.06478 0.7318 0.27333 0.0
C1937 C 0.07861 0.73442 0.23947 0.0
H1938 H 0.04052 0.74437 0.30873 0.0
H1939 H 0.16922 0.77037 0.96844 0.0
H1940 H 0.71555 0.89128 0.07397 0.0
H1941 H 0.74143 0.89189 0.01718 0.0
H1942 H 0.70036 0.91302 0.91894 0.0
H1943 H 0.67446 0.91106 0.97463 0.0
H1944 H 0.72036 0.89 0.87728 0.0
H1945 H 0.74055 0.94151 0.97585 0.0
H1946 H 0.74991 0.95691 0.04753 0.0
H1947 H 0.79747 0.91677 0.06113 0.0
H1948 H 0.78825 0.90098 0.9898 0.0
H1949 H 0.79468 0.91334 0.71325 0.0
H1950 H 0.76807 0.91526 0.76845 0.0
H1951 H 0.80457 0.88743 0.86716 0.0
H1952 H 0.83095 0.88594 0.81319 0.0
H1953 H 0.78659 0.91533 0.90673 0.0
H1954 H 0.76503 0.86411 0.80572 0.0
H1955 H 0.75548 0.85056 0.73219 0.0
H1956 H 0.70995 0.89312 0.72114 0.0
H1957 H 0.71938 0.90707 0.7944 0.0
C1958 C 0.71213 0.89626 0.04038 0.0
C1959 C 0.69287 0.90122 0.02917 0.0
C1960 C 0.72702 0.89672 1.00766 0.0
C1961 C 0.72326 0.90283 0.9631 0.0
C1962 C 0.704 0.90813 0.95248 0.0
C1963 C 0.68909 0.90715 0.9847 0.0
C1964 C 0.73895 0.90319 0.92713 0.0
C1965 C 0.73472 0.89587 0.88388 0.0
C1966 C 0.75803 0.91049 0.93479 0.0
C1967 C 0.76357 0.91993 0.97772 0.0
C1968 C 0.75292 0.93588 0.99429 0.0
C1969 C 0.75822 0.94469 0.03484 0.0
C1970 C 0.77424 0.93778 0.05893 0.0
C1971 C 0.78504 0.92208 0.04248 0.0
C1972 C 0.77979 0.91321 1.00198 0.0
C1973 C 0.79701 0.90761 0.74669 0.0
C1974 C 0.81517 0.89948 0.75834 0.0
C1975 C 0.78169 0.90862 0.77837 0.0
C1976 C 0.78401 0.90132 0.82246 0.0
C1977 C 0.80215 0.89326 0.83383 0.0
C1978 C 0.81737 0.89237 0.8025 0.0
C1979 C 0.76796 0.90209 0.85728 0.0
C1980 C 0.77216 0.90959 0.90028 0.0
C1981 C 0.74879 0.89525 0.84917 0.0
C1982 C 0.74306 0.88676 0.80531 0.0
C1983 C 0.75307 0.87065 0.78748 0.0
C1984 C 0.74766 0.86289 0.74587 0.0
C1985 C 0.73216 0.87102 0.72195 0.0
C1986 C 0.72198 0.88687 0.73967 0.0
C1987 C 0.72734 0.8947 0.78124 0.0
H1988 H 0.72801 0.865 0.68973 0.0
H1989 H 0.77832 0.94463 0.09031 0.0
H1990 H 0.88207 0.32956 0.05385 0.0
H1991 H 0.88364 0.30371 0.10916 0.0
H1992 H 0.91707 0.26847 0.01748 0.0
H1993 H 0.91504 0.29446 0.96054 0.0
H1994 H 0.89129 0.24607 0.06075 0.0
H1995 H 0.93877 0.29342 0.11489 0.0
H1996 H 0.94982 0.32608 0.13845 0.0
H1997 H 0.90406 0.32872 0.23637 0.0
H1998 H 0.89289 0.29602 0.21379 0.0
H1999 H 0.91606 0.17558 0.22253 0.0
H2000 H 0.91721 0.20149 0.16672 0.0
H2001 H 0.89005 0.24081 0.26086 0.0
H2002 H 0.88998 0.2149 0.31794 0.0
H2003 H 0.91323 0.2612 0.21565 0.0
H2004 H 0.86408 0.21732 0.16509 0.0
H2005 H 0.85003 0.18535 0.14565 0.0
H2006 H 0.89373 0.17727 0.04439 0.0
H2007 H 0.90809 0.20921 0.06333 0.0
C2008 C 0.88985 0.31638 0.04501 0.0
C2009 C 0.89857 0.31435 1.00232 0.0
C2010 C 0.89086 0.30153 0.07723 0.0
C2011 C 0.90095 0.28411 0.06857 0.0
C2012 C 0.90934 0.28176 0.02558 0.0
C2013 C 0.90819 0.29668 0.99289 0.0
C2014 C 0.90239 0.26851 0.1043 0.0
C2015 C 0.89644 0.24937 0.09434 0.0
C2016 C 0.90829 0.27266 0.14909 0.0
C2017 C 0.915 0.29231 0.16261 0.0
C2018 C 0.93106 0.301 0.1414 0.0
C2019 C 0.93737 0.31949 0.15467 0.0
C2020 C 0.92769 0.32943 0.18902 0.0
C2021 C 0.91158 0.32098 0.20989 0.0
C2022 C 0.90534 0.30242 0.19711 0.0
C2023 C 0.91043 0.18978 0.23152 0.0
C2024 C 0.90281 0.19306 0.27475 0.0
C2025 C 0.91089 0.20465 0.19921 0.0
C2026 C 0.90307 0.2232 0.20835 0.0
C2027 C 0.89606 0.22672 0.25225 0.0
C2028 C 0.89605 0.21188 0.2851 0.0
C2029 C 0.90219 0.23871 0.17216 0.0
C2030 C 0.90818 0.25783 0.18202 0.0
C2031 C 0.89583 0.23467 0.12763 0.0
C2032 C 0.88715 0.21562 0.1156 0.0
C2033 C 0.87069 0.20871 0.13867 0.0
C2034 C 0.86267 0.19062 0.12773 0.0
C2035 C 0.87094 0.17933 0.09366 0.0
C2036 C 0.88729 0.18609 0.07057 0.0
C2037 C 0.89533 0.20421 0.08127 0.0
H2038 H 0.86467 0.16536 0.0852 0.0
H2039 H 0.93273 0.34362 0.19965 0.0
H2040 H 0.29301 0.40208 0.2086 0.0
H2041 H 0.26636 0.40322 0.26384 0.0
H2042 H 0.30809 0.40037 0.37167 0.0
H2043 H 0.33443 0.39938 0.31745 0.0
H2044 H 0.27919 0.37617 0.3893 0.0
H2045 H 0.28369 0.44321 0.34296 0.0
H2046 H 0.28366 0.47027 0.28855 0.0
H2047 H 0.2256 0.45532 0.248 0.0
H2048 H 0.22539 0.428 0.30179 0.0
H2049 H 0.21574 0.40058 0.57386 0.0
H2050 H 0.2423 0.40097 0.51831 0.0
H2051 H 0.20028 0.40447 0.41119 0.0
H2052 H 0.174 0.40422 0.46575 0.0
H2053 H 0.22916 0.42812 0.39265 0.0
H2054 H 0.22367 0.36211 0.44038 0.0
H2055 H 0.22333 0.33456 0.49335 0.0
H2056 H 0.28274 0.34618 0.52883 0.0
H2057 H 0.28337 0.37398 0.47651 0.0
C2058 C 0.29652 0.40183 0.24405 0.0
C2059 C 0.31606 0.40047 0.2581 0.0
C2060 C 0.28122 0.4025 0.27579 0.0
C2061 C 0.28504 0.40189 0.32241 0.0
C2062 C 0.30453 0.4007 0.33622 0.0
C2063 C 0.31971 0.40012 0.30479 0.0
C2064 C 0.26902 0.40232 0.35716 0.0
C2065 C 0.26842 0.3877 0.3903 0.0
C2066 C 0.25453 0.41702 0.35831 0.0
C2067 C 0.25461 0.43344 0.32605 0.0
C2068 C 0.27098 0.4456 0.32219 0.0
C2069 C 0.27099 0.461 0.29151 0.0
C2070 C 0.25466 0.46448 0.26474 0.0
C2071 C 0.23826 0.45259 0.26869 0.0
C2072 C 0.23818 0.43716 0.29929 0.0
C2073 C 0.21217 0.40158 0.53852 0.0
C2074 C 0.19257 0.40229 0.52472 0.0
C2075 C 0.22741 0.40168 0.5066 0.0
C2076 C 0.22346 0.40256 0.46007 0.0
C2077 C 0.20393 0.40377 0.44655 0.0
C2078 C 0.1888 0.40355 0.47816 0.0
C2079 C 0.2394 0.40204 0.42513 0.0
C2080 C 0.23996 0.41661 0.39184 0.0
C2081 C 0.25378 0.3872 0.42371 0.0
C2082 C 0.25343 0.37044 0.4552 0.0
C2083 C 0.23659 0.35897 0.4599 0.0
C2084 C 0.23636 0.34326 0.48971 0.0
C2085 C 0.25296 0.3387 0.51466 0.0
C2086 C 0.26986 0.34978 0.50965 0.0
C2087 C 0.27016 0.36553 0.47993 0.0
H2088 H 0.25276 0.32652 0.5377 0.0
H2089 H 0.2547 0.47641 0.24101 0.0
H2090 H 0.37056 0.68457 0.74516 0.0
H2091 H 0.37144 0.71155 0.69219 0.0
H2092 H 0.42516 0.73163 0.75095 0.0
H2093 H 0.42348 0.70515 0.80661 0.0
H2094 H 0.40628 0.76212 0.72649 0.0
H2095 H 0.42154 0.70366 0.64157 0.0
H2096 H 0.41551 0.66998 0.6162 0.0
H2097 H 0.35977 0.68698 0.56423 0.0
H2098 H 0.36558 0.72082 0.58878 0.0
H2099 H 0.42719 0.82471 0.54184 0.0
H2100 H 0.42836 0.79846 0.59748 0.0
H2101 H 0.37505 0.77485 0.54364 0.0
H2102 H 0.37477 0.80042 0.48604 0.0
H2103 H 0.39533 0.74616 0.56594 0.0
H2104 H 0.37914 0.80411 0.65239 0.0
H2105 H 0.38498 0.83812 0.67527 0.0
H2106 H 0.44199 0.82267 0.72226 0.0
H2107 H 0.43631 0.78847 0.70039 0.0
C2108 C 0.38255 0.69477 0.74708 0.0
C2109 C 0.39705 0.69248 0.78007 0.0
C2110 C 0.38318 0.71019 0.71618 0.0
C2111 C 0.39879 0.72349 0.71572 0.0
C2112 C 0.41301 0.72162 0.74974 0.0
C2113 C 0.41207 0.70641 0.7817 0.0
C2114 C 0.40025 0.73899 0.67955 0.0
C2115 C 0.40413 0.75848 0.6914 0.0
C2116 C 0.39714 0.73478 0.63331 0.0
C2117 C 0.39395 0.71467 0.61721 0.0
C2118 C 0.40802 0.70019 0.62466 0.0
C2119 C 0.40465 0.6811 0.61041 0.0
C2120 C 0.38724 0.67639 0.5888 0.0
C2121 C 0.37322 0.6907 0.58109 0.0
C2122 C 0.3766 0.70985 0.59483 0.0
C2123 C 0.41593 0.81368 0.54148 0.0
C2124 C 0.40104 0.81448 0.50918 0.0
C2125 C 0.41638 0.79879 0.57395 0.0
C2126 C 0.40146 0.78471 0.57633 0.0
C2127 C 0.38677 0.78538 0.54322 0.0
C2128 C 0.38661 0.8 0.51004 0.0
C2129 C 0.40111 0.76932 0.61283 0.0
C2130 C 0.39749 0.74983 0.60104 0.0
C2131 C 0.40437 0.77358 0.65901 0.0
C2132 C 0.40732 0.7938 0.67473 0.0
C2133 C 0.39284 0.80796 0.66799 0.0
C2134 C 0.39611 0.82726 0.68091 0.0
C2135 C 0.41379 0.83253 0.70061 0.0
C2136 C 0.42822 0.81852 0.70745 0.0
C2137 C 0.42495 0.79916 0.69511 0.0
H2138 H 0.41638 0.84747 0.71046 0.0
H2139 H 0.38461 0.66168 0.57787 0.0
H2140 H 0.67093 0.59529 0.31705 0.0
H2141 H 0.69671 0.59359 0.37303 0.0
H2142 H 0.73802 0.61434 0.27503 0.0
H2143 H 0.71219 0.61478 0.21781 0.0
H2144 H 0.75621 0.59069 0.32381 0.0
H2145 H 0.71511 0.64415 0.36593 0.0
H2146 H 0.68371 0.65977 0.38351 0.0
H2147 H 0.67575 0.62097 0.49499 0.0
H2148 H 0.70707 0.60497 0.47781 0.0
H2149 H 0.82818 0.62211 0.47552 0.0
H2150 H 0.8016 0.62059 0.42211 0.0
H2151 H 0.76517 0.59347 0.52186 0.0
H2152 H 0.79195 0.59547 0.57677 0.0
H2153 H 0.74415 0.61927 0.47433 0.0
H2154 H 0.78699 0.56652 0.43045 0.0
H2155 H 0.81838 0.55172 0.40902 0.0
H2156 H 0.82316 0.59145 0.29823 0.0
H2157 H 0.79224 0.60693 0.32028 0.0
C2158 C 0.68554 0.59936 0.3072 0.0
C2159 C 0.68939 0.60528 0.26279 0.0
C2160 C 0.70035 0.5986 0.33962 0.0
C2161 C 0.71947 0.60452 0.32941 0.0
C2162 C 0.72349 0.60984 0.2845 0.0
C2163 C 0.70868 0.61008 0.25156 0.0
C2164 C 0.73507 0.60518 0.36543 0.0
C2165 C 0.75352 0.59719 0.35643 0.0
C2166 C 0.73183 0.61325 0.40889 0.0
C2167 C 0.71336 0.62328 0.42037 0.0
C2168 C 0.70666 0.63893 0.39417 0.0
C2169 C 0.68887 0.64784 0.40403 0.0
C2170 C 0.67773 0.64134 0.44026 0.0
C2171 C 0.6844 0.62598 0.46691 0.0
C2172 C 0.70219 0.61701 0.45719 0.0
C2173 C 0.8146 0.61573 0.48655 0.0
C2174 C 0.81249 0.60872 0.53087 0.0
C2175 C 0.79929 0.61477 0.45548 0.0
C2176 C 0.78129 0.60646 0.46704 0.0
C2177 C 0.77888 0.59983 0.51159 0.0
C2178 C 0.79427 0.60093 0.54309 0.0
C2179 C 0.76523 0.60488 0.43243 0.0
C2180 C 0.74674 0.6127 0.44173 0.0
C2181 C 0.76847 0.59688 0.38903 0.0
C2182 C 0.78728 0.58778 0.3767 0.0
C2183 C 0.79483 0.57217 0.40173 0.0
C2184 C 0.81259 0.56371 0.38961 0.0
C2185 C 0.82281 0.57065 0.35233 0.0
C2186 C 0.81533 0.58611 0.3272 0.0
C2187 C 0.7977 0.59471 0.33944 0.0
H2188 H 0.83651 0.56403 0.3429 0.0
H2189 H 0.66396 0.64824 0.44769 0.0
H2190 H 0.64094 0.19701 0.51187 0.0
H2191 H 0.63999 0.22328 0.56738 0.0
H2192 H 0.57741 0.22516 0.55692 0.0
H2193 H 0.57862 0.19969 0.49872 0.0
H2194 H 0.58803 0.25988 0.57177 0.0
H2195 H 0.6046 0.20085 0.64651 0.0
H2196 H 0.62322 0.17057 0.65732 0.0
H2197 H 0.6753 0.20369 0.67958 0.0
H2198 H 0.65705 0.23422 0.66792 0.0
H2199 H 0.58527 0.30155 0.80507 0.0
H2200 H 0.58394 0.27527 0.74844 0.0
H2201 H 0.63401 0.29952 0.68206 0.0
H2202 H 0.63502 0.32597 0.73705 0.0
H2203 H 0.62717 0.25083 0.71026 0.0
H2204 H 0.60784 0.31009 0.62425 0.0
H2205 H 0.58666 0.33893 0.61738 0.0
H2206 H 0.53608 0.30236 0.62276 0.0
H2207 H 0.55698 0.27336 0.63151 0.0
C2208 C 0.62701 0.20328 0.5209 0.0
C2209 C 0.60988 0.19634 0.50074 0.0
C2210 C 0.62641 0.21818 0.55324 0.0
C2211 C 0.60856 0.22604 0.56807 0.0
C2212 C 0.59142 0.21947 0.54675 0.0
C2213 C 0.59209 0.20487 0.51334 0.0
C2214 C 0.60786 0.24064 0.60628 0.0
C2215 C 0.59652 0.25766 0.60203 0.0
C2216 C 0.61865 0.23807 0.6467 0.0
C2217 C 0.62948 0.21982 0.65595 0.0
C2218 C 0.62003 0.20168 0.65365 0.0
C2219 C 0.63053 0.18446 0.65984 0.0
C2220 C 0.65045 0.18519 0.66899 0.0
C2221 C 0.65987 0.20316 0.67239 0.0
C2222 C 0.64946 0.22043 0.666 0.0
C2223 C 0.59605 0.3012 0.77856 0.0
C2224 C 0.61019 0.316 0.77566 0.0
C2225 C 0.59525 0.2862 0.74609 0.0
C2226 C 0.60879 0.28544 0.71058 0.0
C2227 C 0.6233 0.29979 0.70874 0.0
C2228 C 0.62383 0.31496 0.74034 0.0
C2229 C 0.60782 0.27 0.67485 0.0
C2230 C 0.61874 0.25285 0.67984 0.0
C2231 C 0.5964 0.27225 0.63561 0.0
C2232 C 0.58395 0.28962 0.62923 0.0
C2233 C 0.59221 0.30822 0.62458 0.0
C2234 C 0.58026 0.32459 0.6202 0.0
C2235 C 0.56005 0.32248 0.61956 0.0
C2236 C 0.55174 0.30399 0.62333 0.0
C2237 C 0.56362 0.28759 0.62814 0.0
H2238 H 0.55083 0.33517 0.61609 0.0
H2239 H 0.6586 0.17184 0.67344 0.0
H2240 H 0.33959 0.13593 0.4313 0.0
H2241 H 0.34421 0.13799 0.51259 0.0
H2242 H 0.37321 0.08229 0.51147 0.0
H2243 H 0.36848 0.08008 0.43017 0.0
H2244 H 0.34889 0.08383 0.5798 0.0
H2245 H 0.39844 0.12626 0.52224 0.0
H2246 H 0.41147 0.15351 0.47754 0.0
H2247 H 0.37562 0.19372 0.55081 0.0
H2248 H 0.36218 0.16666 0.59556 0.0
H2249 H 0.39026 0.08922 0.79881 0.0
H2250 H 0.38494 0.08708 0.71776 0.0
H2251 H 0.35589 0.14276 0.72002 0.0
H2252 H 0.36141 0.14508 0.80106 0.0
H2253 H 0.37982 0.14127 0.65118 0.0
H2254 H 0.33159 0.09825 0.71192 0.0
H2255 H 0.31964 0.07065 0.75712 0.0
H2256 H 0.35342 0.03099 0.67748 0.0
H2257 H 0.36608 0.05838 0.63267 0.0
C2258 C 0.34714 0.1242 0.44825 0.0
C2259 C 0.35372 0.10787 0.42403 0.0
C2260 C 0.34976 0.12539 0.49485 0.0
C2261 C 0.35928 0.1104 0.51837 0.0
C2262 C 0.36579 0.09404 0.49428 0.0
C2263 C 0.36306 0.09279 0.44772 0.0
C2264 C 0.36231 0.11168 0.56803 0.0
C2265 C 0.35588 0.09628 0.59534 0.0
C2266 C 0.37103 0.12811 0.58866 0.0
C2267 C 0.37917 0.14441 0.56194 0.0
C2268 C 0.39323 0.1409 0.52859 0.0
C2269 C 0.40071 0.15631 0.50329 0.0
C2270 C 0.39434 0.17533 0.51125 0.0
C2271 C 0.38052 0.17897 0.54463 0.0
C2272 C 0.37298 0.16361 0.57 0.0
C2273 C 0.38256 0.10092 0.78215 0.0
C2274 C 0.37621 0.11729 0.80657 0.0
C2275 C 0.37952 0.09969 0.7357 0.0
C2276 C 0.36977 0.11464 0.71258 0.0
C2277 C 0.36346 0.13102 0.7369 0.0
C2278 C 0.36664 0.13234 0.7833 0.0
C2279 C 0.36644 0.11339 0.66303 0.0
C2280 C 0.37279 0.12881 0.63572 0.0
C2281 C 0.35771 0.09694 0.64243 0.0
C2282 C 0.34992 0.08043 0.66914 0.0
C2283 C 0.3366 0.08367 0.70424 0.0
C2284 C 0.32969 0.06806 0.72978 0.0
C2285 C 0.33573 0.0491 0.72011 0.0
C2286 C 0.34875 0.0457 0.68493 0.0
C2287 C 0.35582 0.06126 0.6595 0.0
H2288 H 0.33033 0.03704 0.73988 0.0
H2289 H 0.40015 0.18724 0.49162 0.0
H2290 H 0.08525 0.63693 0.60696 0.0
H2291 H 0.08738 0.63191 0.5257 0.0
H2292 H 0.13959 0.66662 0.52139 0.0
H2293 H 0.13737 0.67198 0.60254 0.0
H2294 H 0.11493 0.67632 0.45374 0.0
H2295 H 0.14224 0.61767 0.51465 0.0
H2296 H 0.14265 0.58839 0.56251 0.0
H2297 H 0.09229 0.56628 0.49414 0.0
H2298 H 0.09141 0.5956 0.44625 0.0
H2299 H 0.14591 0.61706 0.24341 0.0
H2300 H 0.14475 0.6224 0.32436 0.0
H2301 H 0.08977 0.65192 0.31045 0.0
H2302 H 0.09027 0.64589 0.22952 0.0
H2303 H 0.11736 0.6101 0.38729 0.0
H2304 H 0.09117 0.69054 0.39324 0.0
H2305 H 0.09293 0.72049 0.34784 0.0
H2306 H 0.14444 0.69926 0.28263 0.0
H2307 H 0.14343 0.66952 0.3288 0.0
C2308 C 0.09714 0.64358 0.58873 0.0
C2309 C 0.11116 0.65484 0.61143 0.0
C2310 C 0.09842 0.64058 0.54225 0.0
C2311 C 0.11372 0.64877 0.51732 0.0
C2312 C 0.12766 0.66012 0.53982 0.0
C2313 C 0.12646 0.66303 0.58633 0.0
C2314 C 0.11516 0.64558 0.46783 0.0
C2315 C 0.11539 0.66184 0.43919 0.0
C2316 C 0.11602 0.62669 0.44877 0.0
C2317 C 0.11665 0.60893 0.47714 0.0
C2318 C 0.13117 0.60664 0.51002 0.0
C2319 C 0.1315 0.59002 0.53712 0.0
C2320 C 0.11747 0.57551 0.53145 0.0
C2321 C 0.10313 0.57755 0.49853 0.0
C2322 C 0.10272 0.59416 0.47137 0.0
C2323 C 0.13337 0.62444 0.25735 0.0
C2324 C 0.11812 0.6309 0.22937 0.0
C2325 C 0.13282 0.62758 0.30382 0.0
C2326 C 0.11721 0.63758 0.32358 0.0
C2327 C 0.10206 0.64429 0.29595 0.0
C2328 C 0.10247 0.64093 0.24947 0.0
C2329 C 0.11677 0.64085 0.37311 0.0
C2330 C 0.11675 0.62459 0.40177 0.0
C2331 C 0.11623 0.65976 0.39217 0.0
C2332 C 0.11701 0.6776 0.36403 0.0
C2333 C 0.10289 0.69226 0.36927 0.0
C2334 C 0.10378 0.70922 0.34343 0.0
C2335 C 0.11868 0.7117 0.31205 0.0
C2336 C 0.13283 0.69727 0.30673 0.0
C2337 C 0.13211 0.68035 0.33277 0.0
H2338 H 0.11931 0.72484 0.29204 0.0
H2339 H 0.11774 0.56268 0.55253 0.0
H2340 H 0.67344 0.92312 0.44291 0.0
H2341 H 0.66877 0.92107 0.52409 0.0
H2342 H 0.63638 0.86781 0.50716 0.0
H2343 H 0.64033 0.87016 0.42576 0.0
H2344 H 0.61846 0.89062 0.56496 0.0
H2345 H 0.68415 0.86878 0.54587 0.0
H2346 H 0.7184 0.87032 0.52162 0.0
H2347 H 0.72716 0.92141 0.6023 0.0
H2348 H 0.69286 0.92039 0.62645 0.0
H2349 H 0.61706 0.86184 0.79321 0.0
H2350 H 0.62322 0.86328 0.71259 0.0
H2351 H 0.6552 0.91674 0.73044 0.0
H2352 H 0.64983 0.91495 0.81154 0.0
H2353 H 0.6735 0.89383 0.67243 0.0
H2354 H 0.60766 0.91608 0.69003 0.0
H2355 H 0.57359 0.91415 0.71553 0.0
H2356 H 0.56539 0.86195 0.63835 0.0
H2357 H 0.59951 0.86343 0.61285 0.0
C2358 C 0.66516 0.91104 0.45632 0.0
C2359 C 0.65727 0.8968 0.42752 0.0
C2360 C 0.66271 0.90977 0.50293 0.0
C2361 C 0.65244 0.89414 0.52202 0.0
C2362 C 0.64445 0.87997 0.49339 0.0
C2363 C 0.64686 0.88125 0.44676 0.0
C2364 C 0.64958 0.8928 0.57165 0.0
C2365 C 0.63055 0.89105 0.58836 0.0
C2366 C 0.66527 0.89386 0.60251 0.0
C2367 C 0.68584 0.89465 0.58752 0.0
C2368 C 0.69331 0.88048 0.55805 0.0
C2369 C 0.71275 0.88123 0.5444 0.0
C2370 C 0.72493 0.89599 0.56029 0.0
C2371 C 0.7177 0.91001 0.58993 0.0
C2372 C 0.69826 0.90935 0.6036 0.0
C2373 C 0.62563 0.8738 0.7802 0.0
C2374 C 0.63289 0.88831 0.80913 0.0
C2375 C 0.62894 0.87472 0.73387 0.0
C2376 C 0.6394 0.8903 0.71514 0.0
C2377 C 0.64698 0.90463 0.74394 0.0
C2378 C 0.64373 0.90368 0.79035 0.0
C2379 C 0.64241 0.89165 0.66559 0.0
C2380 C 0.66144 0.89342 0.64894 0.0
C2381 C 0.62674 0.89062 0.63475 0.0
C2382 C 0.60619 0.88977 0.64987 0.0
C2383 C 0.59863 0.90411 0.67875 0.0
C2384 C 0.57931 0.90311 0.69316 0.0
C2385 C 0.56735 0.88791 0.67866 0.0
C2386 C 0.57468 0.87371 0.6496 0.0
C2387 C 0.594 0.87463 0.63513 0.0
H2388 H 0.55239 0.88716 0.68986 0.0
H2389 H 0.73999 0.89653 0.54973 0.0
H2390 H 0.92018 0.38465 0.22766 0.0
H2391 H 0.92285 0.3788 0.30832 0.0
H2392 H 0.86569 0.35299 0.30867 0.0
H2393 H 0.86291 0.35881 0.22793 0.0
H2394 H 0.86853 0.3775 0.37588 0.0
H2395 H 0.90884 0.32367 0.32583 0.0
H2396 H 0.93561 0.30788 0.28412 0.0
H2397 H 0.97678 0.34652 0.34579 0.0
H2398 H 0.95031 0.36228 0.38851 0.0
H2399 H 0.87206 0.33942 0.59794 0.0
H2400 H 0.87019 0.34357 0.51653 0.0
H2401 H 0.92724 0.36966 0.51644 0.0
H2402 H 0.92925 0.36543 0.59789 0.0
H2403 H 0.92459 0.34498 0.44909 0.0
H2404 H 0.88461 0.39705 0.5037 0.0
H2405 H 0.8581 0.41204 0.54754 0.0
H2406 H 0.81613 0.37746 0.47652 0.0
H2407 H 0.84242 0.36206 0.43264 0.0
C2408 C 0.90827 0.37745 0.24467 0.0
C2409 C 0.89129 0.37229 0.22102 0.0
C2410 C 0.90984 0.37407 0.29099 0.0
C2411 C 0.89455 0.36527 0.3149 0.0
C2412 C 0.87769 0.35986 0.29126 0.0
C2413 C 0.87608 0.36329 0.24498 0.0
C2414 C 0.89569 0.3626 0.36478 0.0
C2415 C 0.88066 0.3701 0.39176 0.0
C2416 C 0.91174 0.35349 0.38603 0.0
C2417 C 0.9276 0.34426 0.35994 0.0
C2418 C 0.92359 0.32886 0.33025 0.0
C2419 C 0.93871 0.31988 0.30657 0.0
C2420 C 0.95784 0.32632 0.31197 0.0
C2421 C 0.96194 0.3416 0.3415 0.0
C2422 C 0.94692 0.35048 0.36565 0.0
C2423 C 0.88413 0.34625 0.58073 0.0
C2424 C 0.90078 0.35214 0.60473 0.0
C2425 C 0.88305 0.34862 0.53402 0.0
C2426 C 0.89848 0.35716 0.51006 0.0
C2427 C 0.91514 0.363 0.53392 0.0
C2428 C 0.91628 0.36054 0.5806 0.0
C2429 C 0.89737 0.35977 0.46018 0.0
C2430 C 0.91243 0.35233 0.43322 0.0
C2431 C 0.88135 0.36898 0.43897 0.0
C2432 C 0.86551 0.37827 0.46519 0.0
C2433 C 0.86974 0.39254 0.49766 0.0
C2434 C 0.85475 0.40113 0.52248 0.0
C2435 C 0.83545 0.39567 0.51491 0.0
C2436 C 0.83109 0.38165 0.4824 0.0
C2437 C 0.84603 0.373 0.45751 0.0
H2438 H 0.82387 0.40234 0.53416 0.0
H2439 H 0.9695 0.3194 0.29345 0.0
H2440 H 0.35516 0.36406 0.4838 0.0
H2441 H 0.3482 0.36752 0.56402 0.0
H2442 H 0.38383 0.41913 0.56897 0.0
H2443 H 0.39063 0.41595 0.48885 0.0
H2444 H 0.39269 0.39566 0.63667 0.0
H2445 H 0.33411 0.42155 0.57437 0.0
H2446 H 0.30416 0.4226 0.52888 0.0
H2447 H 0.28183 0.37298 0.59967 0.0
H2448 H 0.31181 0.37141 0.64514 0.0
H2449 H 0.36756 0.42905 0.85399 0.0
H2450 H 0.37159 0.4261 0.77274 0.0
H2451 H 0.33509 0.37505 0.77252 0.0
H2452 H 0.3308 0.37808 0.85393 0.0
H2453 H 0.32644 0.39749 0.70251 0.0
H2454 H 0.38563 0.37239 0.76583 0.0
H2455 H 0.41485 0.37345 0.8137 0.0
H2456 H 0.43591 0.42306 0.74086 0.0
H2457 H 0.4066 0.42256 0.69308 0.0
C2458 C 0.3613 0.37632 0.50173 0.0
C2459 C 0.37357 0.38965 0.47959 0.0
C2460 C 0.35731 0.37827 0.54775 0.0
C2461 C 0.36543 0.39363 0.57275 0.0
C2462 C 0.37748 0.40707 0.55064 0.0
C2463 C 0.38143 0.40516 0.50471 0.0
C2464 C 0.36199 0.39539 0.62217 0.0
C2465 C 0.37818 0.3963 0.65094 0.0
C2466 C 0.34309 0.39576 0.64116 0.0
C2467 C 0.32531 0.39624 0.61287 0.0
C2468 C 0.32293 0.4107 0.57987 0.0
C2469 C 0.30593 0.41142 0.55417 0.0
C2470 C 0.29111 0.39787 0.56141 0.0
C2471 C 0.29333 0.38347 0.59412 0.0
C2472 C 0.31033 0.38265 0.61986 0.0
C2473 C 0.36048 0.4171 0.83674 0.0
C2474 C 0.34898 0.4037 0.86068 0.0
C2475 C 0.36279 0.41544 0.79017 0.0
C2476 C 0.35393 0.40014 0.76633 0.0
C2477 C 0.34212 0.38696 0.78999 0.0
C2478 C 0.33966 0.38872 0.8366 0.0
C2479 C 0.35713 0.39783 0.71691 0.0
C2480 C 0.34093 0.39677 0.68819 0.0
C2481 C 0.37603 0.39739 0.69786 0.0
C2482 C 0.39383 0.39753 0.72611 0.0
C2483 C 0.39643 0.3836 0.76018 0.0
C2484 C 0.41302 0.38409 0.78729 0.0
C2485 C 0.42723 0.3983 0.78036 0.0
C2486 C 0.42489 0.41205 0.74622 0.0
C2487 C 0.40829 0.41168 0.7191 0.0
H2488 H 0.44007 0.39865 0.80142 0.0
H2489 H 0.27789 0.3986 0.54179 0.0
H2490 H 0.42827 0.64342 0.18025 0.0
H2491 H 0.426 0.63694 0.26105 0.0
H2492 H 0.36424 0.64767 0.25657 0.0
H2493 H 0.36641 0.65407 0.17561 0.0
H2494 H 0.38354 0.66725 0.32761 0.0
H2495 H 0.37889 0.60265 0.26615 0.0
H2496 H 0.38936 0.57492 0.21935 0.0
H2497 H 0.44324 0.57185 0.29197 0.0
H2498 H 0.43319 0.59974 0.33886 0.0
H2499 H 0.358 0.63224 0.54359 0.0
H2500 H 0.36046 0.63732 0.46263 0.0
H2501 H 0.42094 0.6208 0.46647 0.0
H2502 H 0.41853 0.61532 0.54756 0.0
H2503 H 0.4027 0.60412 0.39546 0.0
H2504 H 0.4092 0.66832 0.45452 0.0
H2505 H 0.40119 0.69751 0.49908 0.0
H2506 H 0.34629 0.7023 0.43119 0.0
H2507 H 0.354 0.67312 0.3861 0.0
C2508 C 0.41421 0.64439 0.19649 0.0
C2509 C 0.39752 0.64928 0.17151 0.0
C2510 C 0.41291 0.64059 0.24262 0.0
C2511 C 0.39493 0.64175 0.26493 0.0
C2512 C 0.37825 0.64667 0.24011 0.0
C2513 C 0.37949 0.65021 0.19381 0.0
C2514 C 0.39362 0.63815 0.31424 0.0
C2515 C 0.38743 0.65335 0.34239 0.0
C2516 C 0.39932 0.62023 0.33374 0.0
C2517 C 0.40537 0.60341 0.30572 0.0
C2518 C 0.39304 0.59617 0.27189 0.0
C2519 C 0.39888 0.5804 0.2454 0.0
C2520 C 0.41698 0.57166 0.2526 0.0
C2521 C 0.42924 0.57865 0.2864 0.0
C2522 C 0.42347 0.59442 0.31298 0.0
C2523 C 0.37179 0.62941 0.52726 0.0
C2524 C 0.38807 0.62333 0.5524 0.0
C2525 C 0.37323 0.63257 0.48091 0.0
C2526 C 0.39094 0.62965 0.45833 0.0
C2527 C 0.40713 0.62323 0.48306 0.0
C2528 C 0.40575 0.62022 0.52956 0.0
C2529 C 0.39247 0.6332 0.40894 0.0
C2530 C 0.39874 0.61801 0.38075 0.0
C2531 C 0.38706 0.65122 0.3894 0.0
C2532 C 0.3821 0.66843 0.41725 0.0
C2533 C 0.39534 0.67549 0.44936 0.0
C2534 C 0.3909 0.6921 0.47454 0.0
C2535 C 0.37323 0.70174 0.46801 0.0
C2536 C 0.35997 0.69482 0.43621 0.0
C2537 C 0.3644 0.67828 0.41073 0.0
H2538 H 0.36981 0.71458 0.48759 0.0
H2539 H 0.42147 0.55946 0.23206 0.0
H2540 H 0.6402 0.57556 0.85734 0.0
H2541 H 0.63543 0.57823 0.77611 0.0
H2542 H 0.64612 0.64003 0.78353 0.0
H2543 H 0.65066 0.63746 0.86483 0.0
H2544 H 0.61729 0.63339 0.72743 0.0
H2545 H 0.68144 0.60645 0.74656 0.0
H2546 H 0.70555 0.58283 0.77479 0.0
H2547 H 0.67613 0.53663 0.70529 0.0
H2548 H 0.65169 0.55994 0.67712 0.0
H2549 H 0.63299 0.65027 0.49538 0.0
H2550 H 0.63723 0.64727 0.57652 0.0
H2551 H 0.62808 0.58529 0.56698 0.0
H2552 H 0.62428 0.58815 0.48557 0.0
H2553 H 0.65584 0.59175 0.62431 0.0
H2554 H 0.59183 0.61849 0.60468 0.0
H2555 H 0.56749 0.64192 0.57664 0.0
H2556 H 0.59627 0.68824 0.64719 0.0
H2557 H 0.62093 0.66512 0.67518 0.0
C2558 C 0.64159 0.58972 0.84166 0.0
C2559 C 0.64599 0.60627 0.86767 0.0
C2560 C 0.63888 0.59123 0.79511 0.0
C2561 C 0.64078 0.60929 0.77323 0.0
C2562 C 0.64462 0.62591 0.79936 0.0
C2563 C 0.64719 0.62443 0.84596 0.0
C2564 C 0.639 0.61086 0.7232 0.0
C2565 C 0.62592 0.62444 0.70493 0.0
C2566 C 0.64986 0.59891 0.69349 0.0
C2567 C 0.66464 0.58491 0.71008 0.0
C2568 C 0.68005 0.59123 0.73754 0.0
C2569 C 0.69378 0.57791 0.75349 0.0
C2570 C 0.69235 0.55824 0.74193 0.0
C2571 C 0.67721 0.55186 0.71426 0.0
C2572 C 0.66342 0.56513 0.69826 0.0
C2573 C 0.63184 0.63599 0.51048 0.0
C2574 C 0.6282 0.61947 0.48371 0.0
C2575 C 0.63422 0.63429 0.55708 0.0
C2576 C 0.63259 0.61609 0.5784 0.0
C2577 C 0.62938 0.59952 0.55162 0.0
C2578 C 0.62724 0.60118 0.50492 0.0
C2579 C 0.63415 0.61432 0.62846 0.0
C2580 C 0.64719 0.60069 0.64677 0.0
C2581 C 0.62321 0.62621 0.65821 0.0
C2582 C 0.60832 0.6401 0.64168 0.0
C2583 C 0.59303 0.63369 0.61398 0.0
C2584 C 0.57917 0.64692 0.59813 0.0
C2585 C 0.58036 0.66656 0.61004 0.0
C2586 C 0.59538 0.67302 0.63795 0.0
C2587 C 0.60929 0.65986 0.65385 0.0
H2588 H 0.56962 0.67678 0.59772 0.0
H2589 H 0.70299 0.54794 0.75433 0.0
H2590 H 0.60602 0.35164 0.55585 0.0
H2591 H 0.6052 0.34624 0.4748 0.0
H2592 H 0.63187 0.40226 0.45326 0.0
H2593 H 0.6328 0.40776 0.53425 0.0
H2594 H 0.60294 0.39732 0.39537 0.0
H2595 H 0.65781 0.35956 0.44199 0.0
H2596 H 0.67545 0.33513 0.48697 0.0
H2597 H 0.63737 0.29029 0.43835 0.0
H2598 H 0.61932 0.31451 0.39351 0.0
H2599 H 0.62714 0.38206 0.16473 0.0
H2600 H 0.6292 0.38777 0.24567 0.0
H2601 H 0.59989 0.33333 0.27028 0.0
H2602 H 0.59746 0.32766 0.18954 0.0
H2603 H 0.63083 0.33779 0.32617 0.0
H2604 H 0.57568 0.37624 0.28043 0.0
H2605 H 0.55899 0.40083 0.23399 0.0
H2606 H 0.5988 0.44468 0.28003 0.0
H2607 H 0.61588 0.42028 0.32638 0.0
C2608 C 0.61187 0.36277 0.53404 0.0
C2609 C 0.61941 0.38019 0.55198 0.0
C2610 C 0.61138 0.35966 0.4875 0.0
C2611 C 0.6186 0.37377 0.45766 0.0
C2612 C 0.62611 0.39116 0.47541 0.0
C2613 C 0.62657 0.39431 0.5219 0.0
C2614 C 0.61825 0.37048 0.408 0.0
C2615 C 0.60928 0.38441 0.38027 0.0
C2616 C 0.62622 0.35352 0.38803 0.0
C2617 C 0.6371 0.33888 0.41474 0.0
C2618 C 0.65311 0.34451 0.44115 0.0
C2619 C 0.66319 0.3307 0.46657 0.0
C2620 C 0.6575 0.31118 0.46562 0.0
C2621 C 0.64174 0.30542 0.43911 0.0
C2622 C 0.63159 0.31918 0.41364 0.0
C2623 C 0.62096 0.37136 0.18724 0.0
C2624 C 0.61214 0.35437 0.17025 0.0
C2625 C 0.62221 0.37462 0.23365 0.0
C2626 C 0.6146 0.36102 0.26425 0.0
C2627 C 0.60597 0.34399 0.24746 0.0
C2628 C 0.60466 0.34075 0.20112 0.0
C2629 C 0.61545 0.36457 0.31371 0.0
C2630 C 0.62451 0.35069 0.34135 0.0
C2631 C 0.60766 0.38162 0.33358 0.0
C2632 C 0.59715 0.39641 0.30657 0.0
C2633 C 0.58093 0.39111 0.28049 0.0
C2634 C 0.5714 0.40501 0.2542 0.0
C2635 C 0.57786 0.4243 0.25398 0.0
C2636 C 0.59382 0.42974 0.28021 0.0
C2637 C 0.60342 0.41588 0.30655 0.0
H2638 H 0.57048 0.43504 0.23355 0.0
H2639 H 0.66533 0.30051 0.48533 0.0
H2640 H 0.85901 0.63406 0.92123 0.0
H2641 H 0.86351 0.6381 1.00205 0.0
H2642 H 0.83984 0.58077 0.02447 0.0
H2643 H 0.83427 0.57707 0.94403 0.0
H2644 H 0.826 0.60443 0.08461 0.0
H2645 H 0.8903 0.59125 0.02845 0.0
H2646 H 0.91881 0.59655 0.97964 0.0
H2647 H 0.9256 0.65424 0.03303 0.0
H2648 H 0.89698 0.64938 0.08176 0.0
H2649 H 0.86049 0.59076 0.30845 0.0
H2650 H 0.8543 0.58832 0.22781 0.0
H2651 H 0.87442 0.64725 0.20992 0.0
H2652 H 0.88094 0.64972 0.29045 0.0
H2653 H 0.89 0.62344 0.1477 0.0
H2654 H 0.82587 0.63655 0.2037 0.0
H2655 H 0.7959 0.63231 0.24819 0.0
H2656 H 0.78867 0.57476 0.19435 0.0
H2657 H 0.81868 0.5786 0.14976 0.0
C2658 C 0.8545 0.62239 0.9433 0.0
C2659 C 0.84634 0.60518 0.92573 0.0
C2660 C 0.85735 0.62462 0.98963 0.0
C2661 C 0.85237 0.6096 0.01957 0.0
C2662 C 0.84395 0.59255 1.00222 0.0
C2663 C 0.84095 0.59037 0.95598 0.0
C2664 C 0.85571 0.61165 0.06896 0.0
C2665 C 0.84009 0.60829 0.09838 0.0
C2666 C 0.87395 0.6172 0.08714 0.0
C2667 C 0.89137 0.62002 0.05841 0.0
C2668 C 0.89781 0.60511 0.0296 0.0
C2669 C 0.914 0.60803 1.00198 0.0
C2670 C 0.92395 0.62575 1.00311 0.0
C2671 C 0.91784 0.64053 0.03212 0.0
C2672 C 0.90165 0.6377 0.05978 0.0
C2673 C 0.86363 0.60322 0.28745 0.0
C2674 C 0.8711 0.62049 0.30627 0.0
C2675 C 0.85993 0.60185 0.24127 0.0
C2676 C 0.8637 0.61767 0.21268 0.0
C2677 C 0.87129 0.63487 0.23124 0.0
C2678 C 0.87486 0.63631 0.27746 0.0
C2679 C 0.86031 0.61608 0.16329 0.0
C2680 C 0.87593 0.61952 0.1339 0.0
C2681 C 0.84209 0.61052 0.14513 0.0
C2682 C 0.82461 0.60781 0.17365 0.0
C2683 C 0.81802 0.62291 0.20174 0.0
C2684 C 0.80096 0.62062 0.22677 0.0
C2685 C 0.79035 0.60331 0.22392 0.0
C2686 C 0.79687 0.58818 0.19639 0.0
C2687 C 0.81389 0.59042 0.1712 0.0
H2688 H 0.77708 0.6016 0.2431 0.0
H2689 H 0.93638 0.62805 0.9815 0.0
H2690 H 0.63955 0.15306 0.73028 0.0
H2691 H 0.63707 0.15777 0.81124 0.0
H2692 H 0.59086 0.11537 0.81696 0.0
H2693 H 0.59299 0.11094 0.73554 0.0
H2694 H 0.58236 0.14479 0.86994 0.0
H2695 H 0.6385 0.10443 0.84951 0.0
H2696 H 0.67027 0.09502 0.81772 0.0
H2697 H 0.69618 0.1467 0.87263 0.0
H2698 H 0.6645 0.15655 0.90426 0.0
H2699 H 0.58773 0.13278 0.10861 0.0
H2700 H 0.58826 0.12711 0.02739 0.0
H2701 H 0.63238 0.17125 1.01245 0.0
H2702 H 0.63186 0.17706 0.09333 0.0
H2703 H 0.64146 0.13944 0.96475 0.0
H2704 H 0.5847 0.17986 0.98391 0.0
H2705 H 0.55284 0.18872 1.01606 0.0
H2706 H 0.52804 0.13592 0.96422 0.0
H2707 H 0.55984 0.12661 0.93225 0.0
C2708 C 0.62886 0.14473 0.74866 0.0
C2709 C 0.61649 0.13162 0.72625 0.0
C2710 C 0.62749 0.14738 0.79511 0.0
C2711 C 0.614 0.13667 0.82054 0.0
C2712 C 0.6014 0.1238 0.7982 0.0
C2713 C 0.60261 0.12131 0.75158 0.0
C2714 C 0.61314 0.13886 0.87035 0.0
C2715 C 0.59524 0.14333 0.89071 0.0
C2716 C 0.62997 0.13727 0.8976 0.0
C2717 C 0.64909 0.13131 0.87892 0.0
C2718 C 0.65095 0.11385 0.85456 0.0
C2719 C 0.66894 0.10843 0.8366 0.0
C2720 C 0.68523 0.12028 0.84306 0.0
C2721 C 0.68355 0.13754 0.86761 0.0
C2722 C 0.66559 0.14304 0.88561 0.0
C2723 C 0.59742 0.1414 0.08799 0.0
C2724 C 0.60978 0.15535 0.10762 0.0
C2725 C 0.59772 0.13813 0.04153 0.0
C2726 C 0.61027 0.14885 1.01367 0.0
C2727 C 0.62264 0.16273 0.03321 0.0
C2728 C 0.62237 0.16599 0.07956 0.0
C2729 C 0.61074 0.14555 0.96422 0.0
C2730 C 0.62857 0.14083 0.94396 0.0
C2731 C 0.59384 0.14681 0.93716 0.0
C2732 C 0.57469 0.15245 0.95608 0.0
C2733 C 0.57249 0.17007 0.97965 0.0
C2734 C 0.55444 0.17518 0.99779 0.0
C2735 C 0.53844 0.16287 0.99229 0.0
C2736 C 0.54045 0.14543 0.96851 0.0
C2737 C 0.55848 0.14024 0.95034 0.0
H2738 H 0.52448 0.16685 1.00637 0.0
H2739 H 0.69914 0.11606 0.82912 0.0
H2740 H 0.10699 0.3767 0.28055 0.0
H2741 H 0.11344 0.37928 0.20021 0.0
H2742 H 0.16797 0.4078 0.22797 0.0
H2743 H 0.1619 0.40485 0.30868 0.0
H2744 H 0.14777 0.42631 0.161 0.0
H2745 H 0.16759 0.36111 0.1942 0.0
H2746 H 0.16409 0.32791 0.2246 0.0
H2747 H 0.11563 0.31756 0.13679 0.0
H2748 H 0.11866 0.35081 0.1063 0.0
H2749 H 0.18603 0.41927 0.93936 0.0
H2750 H 0.18106 0.41611 0.02027 0.0
H2751 H 0.12708 0.38587 0.99661 0.0
H2752 H 0.13179 0.38919 0.91556 0.0
H2753 H 0.14772 0.36819 0.06193 0.0
H2754 H 0.12749 0.43345 0.02953 0.0
H2755 H 0.13089 0.46661 0.99884 0.0
H2756 H 0.1799 0.47692 0.08505 0.0
H2757 H 0.17697 0.44369 0.1158 0.0
C2758 C 0.12053 0.38326 0.26982 0.0
C2759 C 0.13396 0.39043 0.30156 0.0
C2760 C 0.12415 0.38482 0.22366 0.0
C2761 C 0.14128 0.39359 0.20784 0.0
C2762 C 0.15462 0.401 0.23925 0.0
C2763 C 0.15107 0.39935 0.28552 0.0
C2764 C 0.14515 0.3951 0.15856 0.0
C2765 C 0.14805 0.41357 0.13947 0.0
C2766 C 0.14508 0.37855 0.13009 0.0
C2767 C 0.14323 0.35852 0.14829 0.0
C2768 C 0.15608 0.35181 0.18164 0.0
C2769 C 0.1542 0.33297 0.19884 0.0
C2770 C 0.13962 0.32065 0.18272 0.0
C2771 C 0.12691 0.32713 0.14929 0.0
C2772 C 0.12871 0.34597 0.13201 0.0
C2773 C 0.17298 0.4121 0.95122 0.0
C2774 C 0.15927 0.40459 0.92058 0.0
C2775 C 0.17019 0.41026 0.99766 0.0
C2776 C 0.15357 0.40094 1.01478 0.0
C2777 C 0.14003 0.39311 0.98437 0.0
C2778 C 0.1428 0.39496 0.93789 0.0
C2779 C 0.15029 0.39942 0.0643 0.0
C2780 C 0.14748 0.38094 0.08345 0.0
C2781 C 0.15041 0.41597 0.0928 0.0
C2782 C 0.15213 0.436 0.07462 0.0
C2783 C 0.13909 0.44273 0.0417 0.0
C2784 C 0.14091 0.46155 0.02433 0.0
C2785 C 0.15564 0.47384 0.03989 0.0
C2786 C 0.16852 0.46736 0.07297 0.0
C2787 C 0.16678 0.44854 0.0904 0.0
H2788 H 0.15703 0.4884 0.02639 0.0
H2789 H 0.13819 0.30607 0.19607 0.0
H2790 H 0.41643 0.87984 0.11407 0.0
H2791 H 0.41385 0.88508 0.033 0.0
H2792 H 0.36968 0.84064 0.02488 0.0
H2793 H 0.37246 0.83506 0.10581 0.0
H2794 H 0.39651 0.836 0.95985 0.0
H2795 H 0.35771 0.88833 1.01591 0.0
H2796 H 0.34999 0.91712 0.06212 0.0
H2797 H 0.39639 0.94889 0.99946 0.0
H2798 H 0.40459 0.92018 0.95329 0.0
H2799 H 0.36602 0.85677 0.73645 0.0
H2800 H 0.36722 0.85219 0.81779 0.0
H2801 H 0.41256 0.89533 0.82763 0.0
H2802 H 0.41126 0.90021 0.74621 0.0
H2803 H 0.38429 0.90077 0.89167 0.0
H2804 H 0.42628 0.84707 0.84685 0.0
H2805 H 0.4353 0.81796 0.80304 0.0
H2806 H 0.38231 0.7898 0.84292 0.0
H2807 H 0.37336 0.81853 0.8885 0.0
C2808 C 0.40619 0.87116 0.09503 0.0
C2809 C 0.39465 0.85703 0.11651 0.0
C2810 C 0.4046 0.87429 0.04871 0.0
C2811 C 0.39144 0.86337 0.02279 0.0
C2812 C 0.37989 0.84929 0.04414 0.0
C2813 C 0.38139 0.84622 0.09049 0.0
C2814 C 0.39021 0.8662 0.97325 0.0
C2815 C 0.39352 0.85013 0.94507 0.0
C2816 C 0.38676 0.8847 0.9537 0.0
C2817 C 0.3819 0.90201 0.98145 0.0
C2818 C 0.36639 0.90139 1.01225 0.0
C2819 C 0.3619 0.91771 0.03839 0.0
C2820 C 0.37273 0.93481 0.03382 0.0
C2821 C 0.38804 0.93563 1.00301 0.0
C2822 C 0.3926 0.91934 0.97682 0.0
C2823 C 0.37622 0.86535 0.75586 0.0
C2824 C 0.38856 0.87886 0.73464 0.0
C2825 C 0.37701 0.86258 0.80239 0.0
C2826 C 0.3901 0.8733 0.82889 0.0
C2827 C 0.40238 0.88686 0.80791 0.0
C2828 C 0.40171 0.88952 0.76129 0.0
C2829 C 0.39068 0.8706 0.87853 0.0
C2830 C 0.38722 0.88667 0.90664 0.0
C2831 C 0.39396 0.85214 0.89815 0.0
C2832 C 0.39909 0.83496 0.87061 0.0
C2833 C 0.41654 0.83469 0.84608 0.0
C2834 C 0.42166 0.81824 0.82107 0.0
C2835 C 0.40926 0.80213 0.81962 0.0
C2836 C 0.39186 0.80232 0.84389 0.0
C2837 C 0.38683 0.8186 0.86965 0.0
H2838 H 0.4132 0.78947 0.79992 0.0
H2839 H 0.36923 0.94742 0.05409 0.0
H2840 H 0.82574 0.91027 0.34295 0.0
H2841 H 0.83113 0.90849 0.26208 0.0
H2842 H 0.88659 0.88091 0.28441 0.0
H2843 H 0.88103 0.88182 0.36553 0.0
H2844 H 0.88786 0.91157 0.22085 0.0
H2845 H 0.85023 0.85389 0.25027 0.0
H2846 H 0.82225 0.83546 0.27976 0.0
H2847 H 0.78357 0.86821 0.19541 0.0
H2848 H 0.81131 0.88706 0.16588 0.0
H2849 H 0.90792 0.88146 0.99828 0.0
H2850 H 0.90209 0.88289 0.0791 0.0
H2851 H 0.84283 0.90072 0.05497 0.0
H2852 H 0.84853 0.89903 0.97384 0.0
H2853 H 0.84314 0.87543 0.12005 0.0
H2854 H 0.8791 0.93331 0.09053 0.0
H2855 H 0.90601 0.95333 0.06127 0.0
H2856 H 0.94643 0.9227 0.1455 0.0
H2857 H 0.91978 0.90229 0.17483 0.0
C2858 C 0.83897 0.90348 0.33094 0.0
C2859 C 0.85284 0.89602 0.36133 0.0
C2860 C 0.84207 0.90262 0.28448 0.0
C2861 C 0.8592 0.89445 0.26704 0.0
C2862 C 0.87326 0.88731 0.29705 0.0
C2863 C 0.87007 0.88795 0.34358 0.0
C2864 C 0.86242 0.89342 0.21752 0.0
C2865 C 0.87826 0.90344 0.19884 0.0
C2866 C 0.84952 0.88336 0.18858 0.0
C2867 C 0.83283 0.87203 0.20623 0.0
C2868 C 0.83574 0.85729 0.23831 0.0
C2869 C 0.81993 0.84674 0.25497 0.0
C2870 C 0.80114 0.8507 0.23957 0.0
C2871 C 0.79813 0.86518 0.20737 0.0
C2872 C 0.8139 0.87579 0.19064 0.0
C2873 C 0.89367 0.88585 1.01011 0.0
C2874 C 0.87874 0.89027 0.9794 0.0
C2875 C 0.89035 0.88668 0.05648 0.0
C2876 C 0.8721 0.89225 0.07351 0.0
C2877 C 0.85706 0.89641 0.04291 0.0
C2878 C 0.86033 0.89541 0.99644 0.0
C2879 C 0.86869 0.89354 0.1231 0.0
C2880 C 0.85279 0.88359 0.14189 0.0
C2881 C 0.88139 0.90391 0.15211 0.0
C2882 C 0.89747 0.91613 0.13454 0.0
C2883 C 0.89375 0.93073 0.10255 0.0
C2884 C 0.90895 0.94217 0.08599 0.0
C2885 C 0.92792 0.93925 0.10142 0.0
C2886 C 0.93173 0.92492 0.13352 0.0
C2887 C 0.91658 0.91342 0.15016 0.0
H2888 H 0.93967 0.94813 0.08857 0.0
H2889 H 0.78892 0.84251 0.25249 0.0
H2890 H 0.91993 0.13792 0.05268 0.0
H2891 H 0.92248 0.14316 0.97165 0.0
H2892 H 0.86139 0.13059 0.95672 0.0
H2893 H 0.85862 0.1257 0.03772 0.0
H2894 H 0.88213 0.11081 0.89573 0.0
H2895 H 0.87759 0.17825 0.93927 0.0
H2896 H 0.88571 0.2084 0.98029 0.0
H2897 H 0.94503 0.20398 0.93633 0.0
H2898 H 0.93715 0.17401 0.89425 0.0
H2899 H 0.87181 0.14285 0.66882 0.0
H2900 H 0.86947 0.13765 0.74981 0.0
H2901 H 0.93059 0.15032 0.76393 0.0
H2902 H 0.93311 0.15532 0.68285 0.0
H2903 H 0.90991 0.17001 0.82528 0.0
H2904 H 0.91386 0.10246 0.78059 0.0
H2905 H 0.90485 0.07324 0.73716 0.0
H2906 H 0.84575 0.07852 0.7822 0.0
H2907 H 0.85454 0.10753 0.82685 0.0
C2908 C 0.90695 0.13654 0.03235 0.0
C2909 C 0.88909 0.13123 0.05204 0.0
C2910 C 0.90843 0.13956 0.98586 0.0
C2911 C 0.89211 0.13735 0.95784 0.0
C2912 C 0.87423 0.13229 0.97743 0.0
C2913 C 0.87271 0.12937 0.02388 0.0
C2914 C 0.89384 0.13943 0.908 0.0
C2915 C 0.88797 0.12388 0.88039 0.0
C2916 C 0.90185 0.15624 0.88762 0.0
C2917 C 0.90683 0.17382 0.91406 0.0
C2918 C 0.89239 0.18365 0.93862 0.0
C2919 C 0.89692 0.20077 0.96179 0.0
C2920 C 0.9159 0.20804 0.96115 0.0
C2921 C 0.93035 0.19831 0.93692 0.0
C2922 C 0.92584 0.18132 0.91317 0.0
C2923 C 0.88485 0.14422 0.68895 0.0
C2924 C 0.90263 0.14964 0.66905 0.0
C2925 C 0.88349 0.14125 0.73543 0.0
C2926 C 0.89987 0.1435 0.76323 0.0
C2927 C 0.9177 0.14859 0.74339 0.0
C2928 C 0.91909 0.15153 0.69692 0.0
C2929 C 0.89825 0.14138 0.81307 0.0
C2930 C 0.90413 0.15691 0.84066 0.0
C2931 C 0.89018 0.1246 0.83342 0.0
C2932 C 0.88481 0.10722 0.80667 0.0
C2933 C 0.89893 0.09742 0.78106 0.0
C2934 C 0.89387 0.08088 0.75633 0.0
C2935 C 0.8747 0.07414 0.75648 0.0
C2936 C 0.86059 0.08379 0.78195 0.0
C2937 C 0.86562 0.1002 0.80725 0.0
H2938 H 0.8708 0.0614 0.73704 0.0
H2939 H 0.91938 0.22125 0.97931 0.0
H2940 H 0.1036 0.10079 0.99401 0.0
H2941 H 0.10883 0.09862 0.07505 0.0
H2942 H 0.15913 0.13577 0.06341 0.0
H2943 H 0.15429 0.13758 0.98207 0.0
H2944 H 0.16655 0.10632 0.11909 0.0
H2945 H 0.11562 0.15318 0.10319 0.0
H2946 H 0.08406 0.16605 0.07741 0.0
H2947 H 0.05427 0.12075 0.14901 0.0
H2948 H 0.0857 0.10743 0.1747 0.0
H2949 H 0.17578 0.13034 0.35069 0.0
H2950 H 0.1708 0.1318 0.26948 0.0
H2951 H 0.12163 0.09319 0.28151 0.0
H2952 H 0.12631 0.09196 0.36306 0.0
H2953 H 0.11367 0.12323 0.22563 0.0
H2954 H 0.1655 0.07713 0.24329 0.0
H2955 H 0.19743 0.06499 0.26852 0.0
H2956 H 0.22603 0.10988 0.19304 0.0
H2957 H 0.19425 0.12252 0.16799 0.0
C2958 C 0.1159 0.10835 1.00856 0.0
C2959 C 0.12848 0.11942 0.98136 0.0
C2960 C 0.11876 0.10726 0.05507 0.0
C2961 C 0.13422 0.11726 0.07563 0.0
C2962 C 0.14703 0.12801 0.04849 0.0
C2963 C 0.14415 0.12915 1.00196 0.0
C2964 C 0.13704 0.11647 0.12534 0.0
C2965 C 0.15506 0.11027 0.14237 0.0
C2966 C 0.12196 0.12124 0.1559 0.0
C2967 C 0.10303 0.12918 0.14046 0.0
C2968 C 0.10235 0.14586 0.11311 0.0
C2969 C 0.08448 0.15326 0.09857 0.0
C2970 C 0.06717 0.14419 0.11145 0.0
C2971 C 0.0677 0.12773 0.13899 0.0
C2972 C 0.08554 0.12026 0.15357 0.0
C2973 C 0.1638 0.12227 0.33617 0.0
C2974 C 0.15146 0.11101 0.36353 0.0
C2975 C 0.16108 0.12297 0.28958 0.0
C2976 C 0.14599 0.11241 0.26912 0.0
C2977 C 0.13346 0.10138 0.29638 0.0
C2978 C 0.13624 0.10057 0.343 0.0
C2979 C 0.14317 0.11305 0.21941 0.0
C2980 C 0.12515 0.11924 0.20236 0.0
C2981 C 0.15831 0.10841 0.18885 0.0
C2982 C 0.17745 0.10093 0.20423 0.0
C2983 C 0.17858 0.08456 0.23247 0.0
C2984 C 0.19666 0.07756 0.24667 0.0
C2985 C 0.21374 0.08671 0.23254 0.0
C2986 C 0.21278 0.10285 0.20409 0.0
C2987 C 0.19474 0.10994 0.18988 0.0
H2988 H 0.22773 0.08125 0.24352 0.0
H2989 H 0.05335 0.14995 0.10018 0.0
H2990 H 0.09254 0.87906 0.67565 0.0
H2991 H 0.09386 0.88275 0.75727 0.0
H2992 H 0.13423 0.8348 0.76557 0.0
H2993 H 0.1326 0.83071 0.68395 0.0
H2994 H 0.10642 0.8319 0.82944 0.0
H2995 H 0.15029 0.88139 0.77861 0.0
H2996 H 0.16097 0.90982 0.73468 0.0
H2997 H 0.11538 0.94436 0.79297 0.0
H2998 H 0.10437 0.91604 0.83715 0.0
H2999 H 0.13651 0.85072 0.05641 0.0
H3000 H 0.13518 0.84501 0.97523 0.0
H3001 H 0.09489 0.89277 0.96089 0.0
H3002 H 0.09648 0.89881 0.04169 0.0
H3003 H 0.12331 0.89511 0.90001 0.0
H3004 H 0.08072 0.84547 0.95479 0.0
H3005 H 0.07076 0.8169 0.99916 0.0
H3006 H 0.11381 0.78197 0.93265 0.0
H3007 H 0.12455 0.8105 0.88899 0.0
C3008 C 0.10164 0.86923 0.69481 0.0
C3009 C 0.11249 0.8546 0.67313 0.0
C3010 C 0.10251 0.87146 0.74151 0.0
C3011 C 0.11428 0.85916 0.76766 0.0
C3012 C 0.12507 0.84449 0.74617 0.0
C3013 C 0.12426 0.84229 0.69942 0.0
C3014 C 0.11519 0.86153 0.8174 0.0
C3015 C 0.1104 0.84563 0.84495 0.0
C3016 C 0.11996 0.87955 0.83767 0.0
C3017 C 0.1264 0.89655 0.81083 0.0
C3018 C 0.14244 0.895 0.78176 0.0
C3019 C 0.14858 0.91111 0.75688 0.0
C3020 C 0.13881 0.92888 0.76088 0.0
C3021 C 0.12291 0.93058 0.78986 0.0
C3022 C 0.11674 0.91451 0.8149 0.0
C3023 C 0.12739 0.86002 0.03595 0.0
C3024 C 0.1166 0.87523 0.05563 0.0
C3025 C 0.12651 0.85663 0.98956 0.0
C3026 C 0.11484 0.86838 0.96187 0.0
C3027 C 0.10398 0.88348 0.9815 0.0
C3028 C 0.10478 0.88682 0.02782 0.0
C3029 C 0.11445 0.86551 0.91225 0.0
C3030 C 0.11935 0.88133 0.88465 0.0
C3031 C 0.10984 0.84738 0.89208 0.0
C3032 C 0.10363 0.83025 0.91899 0.0
C3033 C 0.08829 0.83179 0.95008 0.0
C3034 C 0.08249 0.81558 0.97511 0.0
C3035 C 0.09171 0.79765 0.96889 0.0
C3036 C 0.10674 0.79589 0.93757 0.0
C3037 C 0.11274 0.8121 0.91279 0.0
H3038 H 0.08719 0.78511 0.98825 0.0
H3039 H 0.14359 0.94137 0.74166 0.0
loop_
_geom_bond_atom_site_label_1
_geom_bond_atom_site_label_2
_geom_bond_distance
_geom_bond_site_symmetry_2
_ccdc_geom_bond_type
Gd0 C3 2.818 . S
Gd0 O20 2.377 . S
Gd0 O22 2.448 . S
Gd0 O23 2.506 . S
Gd0 O24 2.435 . S
Gd0 O25 2.717 . S
Gd0 O27 2.395 . S
Gd0 O31 2.327 . S
Gd1 C12 2.818 1_554 S
Gd1 O21 2.395 . S
Gd1 O25 2.327 . S
Gd1 O26 2.377 . S
Gd1 O28 2.448 . S
Gd1 O29 2.506 . S
Gd1 O30 2.435 . S
Gd1 O31 2.717 . S
C2 O20 1.240 . S
C2 O21 1.240 . S
C3 Gd0 2.818 . S
C3 C4 1.510 . S
C3 O22 1.249 . S
C3 O23 1.252 . S
C4 C3 1.510 . S
C4 C5 1.404 . S
C4 C6 1.352 . S
C5 C4 1.404 . S
C5 C9 1.389 . S
C5 H32 0.930 . S
C6 C4 1.352 . S
C6 C8 1.374 . S
C6 H33 0.931 . S
C7 C8 1.359 . S
C7 C9 1.364 . S
C8 C6 1.374 . S
C8 C7 1.359 . S
C8 H34 0.931 . S
C9 C5 1.389 . S
C9 C7 1.364 . S
C9 H35 0.931 . S
C10 O24 1.256 . S
C10 O25 1.257 . S
C11 O26 1.240 . S
C11 O27 1.240 . S
C12 Gd1 2.818 1_556 S
C12 C13 1.510 . S
C12 O28 1.249 1_556 S
C12 O29 1.252 1_556 S
C13 C12 1.510 . S
C13 C14 1.404 . S
C13 C15 1.352 . S
C14 C13 1.404 . S
C14 C18 1.389 . S
C14 H36 0.930 . S
C15 C13 1.352 . S
C15 C17 1.374 . S
C15 H37 0.931 . S
C16 C17 1.359 . S
C16 C18 1.364 . S
C17 C15 1.374 . S
C17 C16 1.359 . S
C17 H38 0.931 . S
C18 C14 1.389 . S
C18 C16 1.364 . S
C18 H39 0.931 . S
C19 O30 1.256 . S
C19 O31 1.257 . S
O20 Gd0 2.377 . S
O20 C2 1.240 . S
O21 Gd1 2.395 . S
O21 C2 1.240 . S
O22 Gd0 2.448 . S
O22 C3 1.249 . S
O23 Gd0 2.506 . S
O23 C3 1.252 . S
O24 Gd0 2.435 . S
O24 C10 1.256 . S
O25 Gd0 2.717 . S
O25 Gd1 2.327 . S
O25 C10 1.257 . S
O26 Gd1 2.377 . S
O26 C11 1.240 . S
O27 Gd0 2.395 . S
O27 C11 1.240 . S
O28 Gd1 2.448 . S
O28 C12 1.249 1_554 S
O29 Gd1 2.506 . S
O29 C12 1.252 1_554 S
O30 Gd1 2.435 . S
O30 C19 1.256 . S
O31 Gd0 2.327 . S
O31 Gd1 2.717 . S
O31 C19 1.257 . S
H32 C5 0.930 . S
H33 C6 0.931 . S
H34 C8 0.931 . S
H35 C9 0.931 . S
H36 C14 0.930 . S
H37 C15 0.931 . S
H38 C17 0.931 . S
H39 C18 0.931 . S
Gd40 C43 2.818 1_556 S
Gd40 O60 2.377 . S
Gd40 O62 2.448 . S
Gd40 O63 2.506 . S
Gd40 O64 2.435 . S
Gd40 O65 2.717 . S
Gd40 O67 2.395 . S
Gd40 O71 2.327 . S
Gd41 C52 2.818 . S
Gd41 O61 2.395 . S
Gd41 O65 2.327 . S
Gd41 O66 2.377 . S
Gd41 O68 2.448 . S
Gd41 O69 2.506 . S
Gd41 O70 2.435 . S
Gd41 O71 2.717 . S
C42 O60 1.240 . S
C42 O61 1.240 . S
C43 Gd40 2.818 1_554 S
C43 C44 1.510 . S
C43 O62 1.249 1_554 S
C43 O63 1.252 1_554 S
C44 C43 1.510 . S
C44 C45 1.404 . S
C44 C46 1.352 . S
C45 C44 1.404 . S
C45 C49 1.389 . S
C45 H72 0.930 . S
C46 C44 1.352 . S
C46 C48 1.374 . S
C46 H73 0.931 . S
C47 C48 1.359 . S
C47 C49 1.364 . S
C48 C46 1.374 . S
C48 C47 1.359 . S
C48 H74 0.931 . S
C49 C45 1.389 . S
C49 C47 1.364 . S
C49 H75 0.931 . S
C50 O64 1.256 . S
C50 O65 1.257 . S
C51 O66 1.240 . S
C51 O67 1.240 . S
C52 Gd41 2.818 . S
C52 C53 1.510 . S
C52 O68 1.249 . S
C52 O69 1.252 . S
C53 C52 1.510 . S
C53 C54 1.404 . S
C53 C55 1.352 . S
C54 C53 1.404 . S
C54 C58 1.389 . S
C54 H76 0.930 . S
C55 C53 1.352 . S
C55 C57 1.374 . S
C55 H77 0.931 . S
C56 C57 1.359 . S
C56 C58 1.364 . S
C57 C55 1.374 . S
C57 C56 1.359 . S
C57 H78 0.931 . S
C58 C54 1.389 . S
C58 C56 1.364 . S
C58 H79 0.931 . S
C59 O70 1.256 . S
C59 O71 1.257 . S
O60 Gd40 2.377 . S
O60 C42 1.240 . S
O61 Gd41 2.395 . S
O61 C42 1.240 . S
O62 Gd40 2.448 . S
O62 C43 1.249 1_556 S
O63 Gd40 2.506 . S
O63 C43 1.252 1_556 S
O64 Gd40 2.435 . S
O64 C50 1.256 . S
O65 Gd40 2.717 . S
O65 Gd41 2.327 . S
O65 C50 1.257 . S
O66 Gd41 2.377 . S
O66 C51 1.240 . S
O67 Gd40 2.395 . S
O67 C51 1.240 . S
O68 Gd41 2.448 . S
O68 C52 1.249 . S
O69 Gd41 2.506 . S
O69 C52 1.252 . S
O70 Gd41 2.435 . S
O70 C59 1.256 . S
O71 Gd40 2.327 . S
O71 Gd41 2.717 . S
O71 C59 1.257 . S
H72 C45 0.930 . S
H73 C46 0.931 . S
H74 C48 0.931 . S
H75 C49 0.931 . S
H76 C54 0.930 . S
H77 C55 0.931 . S
H78 C57 0.931 . S
H79 C58 0.931 . S
Gd80 C83 2.818 . S
Gd80 O100 2.377 . S
Gd80 O102 2.448 . S
Gd80 O103 2.506 . S
Gd80 O104 2.435 . S
Gd80 O105 2.717 . S
Gd80 O107 2.395 . S
Gd80 O111 2.327 . S
Gd81 C92 2.818 1_554 S
Gd81 O101 2.395 . S
Gd81 O105 2.327 . S
Gd81 O106 2.377 . S
Gd81 O108 2.448 . S
Gd81 O109 2.506 . S
Gd81 O110 2.435 . S
Gd81 O111 2.717 . S
C82 O100 1.240 . S
C82 O101 1.240 . S
C83 Gd80 2.818 . S
C83 C84 1.510 . S
C83 O102 1.249 . S
C83 O103 1.252 . S
C84 C83 1.510 . S
C84 C85 1.404 . S
C84 C86 1.352 . S
C85 C84 1.404 . S
C85 C89 1.389 . S
C85 H112 0.930 . S
C86 C84 1.352 . S
C86 C88 1.374 . S
C86 H113 0.931 . S
C87 C88 1.359 . S
C87 C89 1.364 . S
C88 C86 1.374 . S
C88 C87 1.359 . S
C88 H114 0.931 . S
C89 C85 1.389 . S
C89 C87 1.364 . S
C89 H115 0.931 . S
C90 O104 1.256 . S
C90 O105 1.257 . S
C91 O106 1.240 . S
C91 O107 1.240 . S
C92 Gd81 2.818 1_556 S
C92 C93 1.510 . S
C92 O108 1.249 1_556 S
C92 O109 1.252 1_556 S
C93 C92 1.510 . S
C93 C94 1.404 . S
C93 C95 1.352 . S
C94 C93 1.404 . S
C94 C98 1.389 . S
C94 H116 0.930 . S
C95 C93 1.352 . S
C95 C97 1.374 . S
C95 H117 0.931 . S
C96 C97 1.359 . S
C96 C98 1.364 . S
C97 C95 1.374 . S
C97 C96 1.359 . S
C97 H118 0.931 . S
C98 C94 1.389 . S
C98 C96 1.364 . S
C98 H119 0.931 . S
C99 O110 1.256 . S
C99 O111 1.257 . S
O100 Gd80 2.377 . S
O100 C82 1.240 . S
O101 Gd81 2.395 . S
O101 C82 1.240 . S
O102 Gd80 2.448 . S
O102 C83 1.249 . S
O103 Gd80 2.506 . S
O103 C83 1.252 . S
O104 Gd80 2.435 . S
O104 C90 1.256 . S
O105 Gd80 2.717 . S
O105 Gd81 2.327 . S
O105 C90 1.257 . S
O106 Gd81 2.377 . S
O106 C91 1.240 . S
O107 Gd80 2.395 . S
O107 C91 1.240 . S
O108 Gd81 2.448 . S
O108 C92 1.249 1_554 S
O109 Gd81 2.506 . S
O109 C92 1.252 1_554 S
O110 Gd81 2.435 . S
O110 C99 1.256 . S
O111 Gd80 2.327 . S
O111 Gd81 2.717 . S
O111 C99 1.257 . S
H112 C85 0.930 . S
H113 C86 0.931 . S
H114 C88 0.931 . S
H115 C89 0.931 . S
H116 C94 0.930 . S
H117 C95 0.931 . S
H118 C97 0.931 . S
H119 C98 0.931 . S
Gd120 C123 2.818 1_556 S
Gd120 O140 2.377 . S
Gd120 O142 2.448 . S
Gd120 O143 2.506 . S
Gd120 O144 2.435 . S
Gd120 O145 2.717 . S
Gd120 O147 2.395 . S
Gd120 O151 2.327 . S
Gd121 C132 2.818 . S
Gd121 O141 2.395 . S
Gd121 O145 2.327 . S
Gd121 O146 2.377 . S
Gd121 O148 2.448 . S
Gd121 O149 2.506 . S
Gd121 O150 2.435 . S
Gd121 O151 2.717 . S
C122 O140 1.240 . S
C122 O141 1.240 . S
C123 Gd120 2.818 1_554 S
C123 C124 1.510 . S
C123 O142 1.249 1_554 S
C123 O143 1.252 1_554 S
C124 C123 1.510 . S
C124 C125 1.404 . S
C124 C126 1.352 . S
C125 C124 1.404 . S
C125 C129 1.389 . S
C125 H152 0.930 . S
C126 C124 1.352 . S
C126 C128 1.374 . S
C126 H153 0.931 . S
C127 C128 1.359 . S
C127 C129 1.364 . S
C128 C126 1.374 . S
C128 C127 1.359 . S
C128 H154 0.931 . S
C129 C125 1.389 . S
C129 C127 1.364 . S
C129 H155 0.931 . S
C130 O144 1.256 . S
C130 O145 1.257 . S
C131 O146 1.240 . S
C131 O147 1.240 . S
C132 Gd121 2.818 . S
C132 C133 1.510 . S
C132 O148 1.249 . S
C132 O149 1.252 . S
C133 C132 1.510 . S
C133 C134 1.404 . S
C133 C135 1.352 . S
C134 C133 1.404 . S
C134 C138 1.389 . S
C134 H156 0.930 . S
C135 C133 1.352 . S
C135 C137 1.374 . S
C135 H157 0.931 . S
C136 C137 1.359 . S
C136 C138 1.364 . S
C137 C135 1.374 . S
C137 C136 1.359 . S
C137 H158 0.931 . S
C138 C134 1.389 . S
C138 C136 1.364 . S
C138 H159 0.931 . S
C139 O150 1.256 . S
C139 O151 1.257 . S
O140 Gd120 2.377 . S
O140 C122 1.240 . S
O141 Gd121 2.395 . S
O141 C122 1.240 . S
O142 Gd120 2.448 . S
O142 C123 1.249 1_556 S
O143 Gd120 2.506 . S
O143 C123 1.252 1_556 S
O144 Gd120 2.435 . S
O144 C130 1.256 . S
O145 Gd120 2.717 . S
O145 Gd121 2.327 . S
O145 C130 1.257 . S
O146 Gd121 2.377 . S
O146 C131 1.240 . S
O147 Gd120 2.395 . S
O147 C131 1.240 . S
O148 Gd121 2.448 . S
O148 C132 1.249 . S
O149 Gd121 2.506 . S
O149 C132 1.252 . S
O150 Gd121 2.435 . S
O150 C139 1.256 . S
O151 Gd120 2.327 . S
O151 Gd121 2.717 . S
O151 C139 1.257 . S
H152 C125 0.930 . S
H153 C126 0.931 . S
H154 C128 0.931 . S
H155 C129 0.931 . S
H156 C134 0.930 . S
H157 C135 0.931 . S
H158 C137 0.931 . S
H159 C138 0.931 . S
Gd160 C163 2.818 1_554 S
Gd160 O180 2.377 . S
Gd160 O182 2.448 1_554 S
Gd160 O183 2.500 1_554 S
Gd160 O184 2.435 . S
Gd160 O185 2.717 . S
Gd160 O187 2.395 . S
Gd160 O191 2.327 . S
Gd161 C172 2.818 . S
Gd161 O181 2.395 . S
Gd161 O185 2.327 . S
Gd161 O186 2.377 . S
Gd161 O188 2.448 . S
Gd161 O189 2.506 . S
Gd161 O190 2.435 . S
Gd161 O191 2.717 . S
C162 O180 1.240 . S
C162 O181 1.240 . S
C163 Gd160 2.818 1_556 S
C163 C164 1.510 . S
C163 O182 1.249 . S
C163 O183 1.255 . S
C164 C163 1.510 . S
C164 C165 1.404 . S
C164 C166 1.352 . S
C165 C164 1.404 . S
C165 C169 1.389 . S
C165 H192 0.930 . S
C166 C164 1.352 . S
C166 C168 1.374 . S
C166 H193 0.931 . S
C167 C168 1.359 . S
C167 C169 1.364 . S
C168 C166 1.374 . S
C168 C167 1.359 . S
C168 H194 0.931 . S
C169 C165 1.389 . S
C169 C167 1.364 . S
C169 H195 0.931 . S
C170 O184 1.256 . S
C170 O185 1.257 . S
C171 O186 1.240 . S
C171 O187 1.240 . S
C172 Gd161 2.818 . S
C172 C173 1.510 . S
C172 O188 1.249 . S
C172 O189 1.252 . S
C173 C172 1.510 . S
C173 C174 1.404 . S
C173 C175 1.352 . S
C174 C173 1.404 . S
C174 C178 1.389 . S
C174 H196 0.930 . S
C175 C173 1.352 . S
C175 C177 1.374 . S
C175 H197 0.931 . S
C176 C177 1.359 . S
C176 C178 1.364 . S
C177 C175 1.374 . S
C177 C176 1.359 . S
C177 H198 0.931 . S
C178 C174 1.389 . S
C178 C176 1.364 . S
C178 H199 0.931 . S
C179 O190 1.256 . S
C179 O191 1.257 . S
O180 Gd160 2.377 . S
O180 C162 1.240 . S
O181 Gd161 2.395 . S
O181 C162 1.240 . S
O182 Gd160 2.448 1_556 S
O182 C163 1.249 . S
O183 Gd160 2.500 1_556 S
O183 C163 1.255 . S
O184 Gd160 2.435 . S
O184 C170 1.256 . S
O185 Gd160 2.717 . S
O185 Gd161 2.327 . S
O185 C170 1.257 . S
O186 Gd161 2.377 . S
O186 C171 1.240 . S
O187 Gd160 2.395 . S
O187 C171 1.240 . S
O188 Gd161 2.448 . S
O188 C172 1.249 . S
O189 Gd161 2.506 . S
O189 C172 1.252 . S
O190 Gd161 2.435 . S
O190 C179 1.256 . S
O191 Gd160 2.327 . S
O191 Gd161 2.717 . S
O191 C179 1.257 . S
H192 C165 0.930 . S
H193 C166 0.931 . S
H194 C168 0.931 . S
H195 C169 0.931 . S
H196 C174 0.930 . S
H197 C175 0.931 . S
H198 C177 0.931 . S
H199 C178 0.931 . S
Gd200 C203 2.818 . S
Gd200 O220 2.377 . S
Gd200 O222 2.448 . S
Gd200 O223 2.506 . S
Gd200 O224 2.435 . S
Gd200 O225 2.717 . S
Gd200 O227 2.395 . S
Gd200 O231 2.327 . S
Gd201 C212 2.818 1_556 S
Gd201 O221 2.395 . S
Gd201 O225 2.327 . S
Gd201 O226 2.377 . S
Gd201 O228 2.448 1_556 S
Gd201 O229 2.500 1_556 S
Gd201 O230 2.435 . S
Gd201 O231 2.717 . S
C202 O220 1.240 . S
C202 O221 1.240 . S
C203 Gd200 2.818 . S
C203 C204 1.510 . S
C203 O222 1.249 . S
C203 O223 1.252 . S
C204 C203 1.510 . S
C204 C205 1.404 . S
C204 C206 1.352 . S
C205 C204 1.404 . S
C205 C209 1.389 . S
C205 H232 0.930 . S
C206 C204 1.352 . S
C206 C208 1.374 . S
C206 H233 0.931 . S
C207 C208 1.359 . S
C207 C209 1.364 . S
C208 C206 1.374 . S
C208 C207 1.359 . S
C208 H234 0.931 . S
C209 C205 1.389 . S
C209 C207 1.364 . S
C209 H235 0.931 . S
C210 O224 1.256 . S
C210 O225 1.257 . S
C211 O226 1.240 . S
C211 O227 1.240 . S
C212 Gd201 2.818 1_554 S
C212 C213 1.510 . S
C212 O228 1.249 . S
C212 O229 1.255 . S
C213 C212 1.510 . S
C213 C214 1.404 . S
C213 C215 1.352 . S
C214 C213 1.404 . S
C214 C218 1.389 . S
C214 H236 0.930 . S
C215 C213 1.352 . S
C215 C217 1.374 . S
C215 H237 0.931 . S
C216 C217 1.359 . S
C216 C218 1.364 . S
C217 C215 1.374 . S
C217 C216 1.359 . S
C217 H238 0.931 . S
C218 C214 1.389 . S
C218 C216 1.364 . S
C218 H239 0.931 . S
C219 O230 1.256 . S
C219 O231 1.257 . S
O220 Gd200 2.377 . S
O220 C202 1.240 . S
O221 Gd201 2.395 . S
O221 C202 1.240 . S
O222 Gd200 2.448 . S
O222 C203 1.249 . S
O223 Gd200 2.506 . S
O223 C203 1.252 . S
O224 Gd200 2.435 . S
O224 C210 1.256 . S
O225 Gd200 2.717 . S
O225 Gd201 2.327 . S
O225 C210 1.257 . S
O226 Gd201 2.377 . S
O226 C211 1.240 . S
O227 Gd200 2.395 . S
O227 C211 1.240 . S
O228 Gd201 2.448 1_554 S
O228 C212 1.249 . S
O229 Gd201 2.500 1_554 S
O229 C212 1.255 . S
O230 Gd201 2.435 . S
O230 C219 1.256 . S
O231 Gd200 2.327 . S
O231 Gd201 2.717 . S
O231 C219 1.257 . S
H232 C205 0.930 . S
H233 C206 0.931 . S
H234 C208 0.931 . S
H235 C209 0.931 . S
H236 C214 0.930 . S
H237 C215 0.931 . S
H238 C217 0.931 . S
H239 C218 0.931 . S
Gd240 C243 2.818 1_554 S
Gd240 O260 2.377 . S
Gd240 O262 2.448 1_554 S
Gd240 O263 2.500 1_554 S
Gd240 O264 2.435 . S
Gd240 O265 2.717 . S
Gd240 O267 2.395 . S
Gd240 O271 2.327 . S
Gd241 C252 2.818 . S
Gd241 O261 2.395 . S
Gd241 O265 2.327 . S
Gd241 O266 2.377 . S
Gd241 O268 2.448 . S
Gd241 O269 2.506 . S
Gd241 O270 2.435 . S
Gd241 O271 2.717 . S
C242 O260 1.240 . S
C242 O261 1.240 . S
C243 Gd240 2.818 1_556 S
C243 C244 1.510 . S
C243 O262 1.249 . S
C243 O263 1.255 . S
C244 C243 1.510 . S
C244 C245 1.404 . S
C244 C246 1.352 . S
C245 C244 1.404 . S
C245 C249 1.389 . S
C245 H272 0.930 . S
C246 C244 1.352 . S
C246 C248 1.374 . S
C246 H273 0.931 . S
C247 C248 1.359 . S
C247 C249 1.364 . S
C248 C246 1.374 . S
C248 C247 1.359 . S
C248 H274 0.931 . S
C249 C245 1.389 . S
C249 C247 1.364 . S
C249 H275 0.931 . S
C250 O264 1.256 . S
C250 O265 1.257 . S
C251 O266 1.240 . S
C251 O267 1.240 . S
C252 Gd241 2.818 . S
C252 C253 1.510 . S
C252 O268 1.249 . S
C252 O269 1.252 . S
C253 C252 1.510 . S
C253 C254 1.404 . S
C253 C255 1.352 . S
C254 C253 1.404 . S
C254 C258 1.389 . S
C254 H276 0.930 . S
C255 C253 1.352 . S
C255 C257 1.374 . S
C255 H277 0.931 . S
C256 C257 1.359 . S
C256 C258 1.364 . S
C257 C255 1.374 . S
C257 C256 1.359 . S
C257 H278 0.931 . S
C258 C254 1.389 . S
C258 C256 1.364 . S
C258 H279 0.931 . S
C259 O270 1.256 . S
C259 O271 1.257 . S
O260 Gd240 2.377 . S
O260 C242 1.240 . S
O261 Gd241 2.395 . S
O261 C242 1.240 . S
O262 Gd240 2.448 1_556 S
O262 C243 1.249 . S
O263 Gd240 2.500 1_556 S
O263 C243 1.255 . S
O264 Gd240 2.435 . S
O264 C250 1.256 . S
O265 Gd240 2.717 . S
O265 Gd241 2.327 . S
O265 C250 1.257 . S
O266 Gd241 2.377 . S
O266 C251 1.240 . S
O267 Gd240 2.395 . S
O267 C251 1.240 . S
O268 Gd241 2.448 . S
O268 C252 1.249 . S
O269 Gd241 2.506 . S
O269 C252 1.252 . S
O270 Gd241 2.435 . S
O270 C259 1.256 . S
O271 Gd240 2.327 . S
O271 Gd241 2.717 . S
O271 C259 1.257 . S
H272 C245 0.930 . S
H273 C246 0.931 . S
H274 C248 0.931 . S
H275 C249 0.931 . S
H276 C254 0.930 . S
H277 C255 0.931 . S
H278 C257 0.931 . S
H279 C258 0.931 . S
Gd280 C283 2.818 . S
Gd280 O300 2.377 . S
Gd280 O302 2.448 . S
Gd280 O303 2.506 . S
Gd280 O304 2.435 . S
Gd280 O305 2.717 . S
Gd280 O307 2.395 . S
Gd280 O311 2.327 . S
Gd281 C292 2.818 1_556 S
Gd281 O301 2.395 . S
Gd281 O305 2.327 . S
Gd281 O306 2.377 . S
Gd281 O308 2.448 1_556 S
Gd281 O309 2.500 1_556 S
Gd281 O310 2.435 . S
Gd281 O311 2.717 . S
C282 O300 1.240 . S
C282 O301 1.240 . S
C283 Gd280 2.818 . S
C283 C284 1.510 . S
C283 O302 1.249 . S
C283 O303 1.252 . S
C284 C283 1.510 . S
C284 C285 1.404 . S
C284 C286 1.352 . S
C285 C284 1.404 . S
C285 C289 1.389 . S
C285 H312 0.930 . S
C286 C284 1.352 . S
C286 C288 1.374 . S
C286 H313 0.931 . S
C287 C288 1.359 . S
C287 C289 1.364 . S
C288 C286 1.374 . S
C288 C287 1.359 . S
C288 H314 0.931 . S
C289 C285 1.389 . S
C289 C287 1.364 . S
C289 H315 0.931 . S
C290 O304 1.256 . S
C290 O305 1.257 . S
C291 O306 1.240 . S
C291 O307 1.240 . S
C292 Gd281 2.818 1_554 S
C292 C293 1.510 . S
C292 O308 1.249 . S
C292 O309 1.255 . S
C293 C292 1.510 . S
C293 C294 1.404 . S
C293 C295 1.352 . S
C294 C293 1.404 . S
C294 C298 1.389 . S
C294 H316 0.930 . S
C295 C293 1.352 . S
C295 C297 1.374 . S
C295 H317 0.931 . S
C296 C297 1.359 . S
C296 C298 1.364 . S
C297 C295 1.374 . S
C297 C296 1.359 . S
C297 H318 0.931 . S
C298 C294 1.389 . S
C298 C296 1.364 . S
C298 H319 0.931 . S
C299 O310 1.256 . S
C299 O311 1.257 . S
O300 Gd280 2.377 . S
O300 C282 1.240 . S
O301 Gd281 2.395 . S
O301 C282 1.240 . S
O302 Gd280 2.448 . S
O302 C283 1.249 . S
O303 Gd280 2.506 . S
O303 C283 1.252 . S
O304 Gd280 2.435 . S
O304 C290 1.256 . S
O305 Gd280 2.717 . S
O305 Gd281 2.327 . S
O305 C290 1.257 . S
O306 Gd281 2.377 . S
O306 C291 1.240 . S
O307 Gd280 2.395 . S
O307 C291 1.240 . S
O308 Gd281 2.448 1_554 S
O308 C292 1.249 . S
O309 Gd281 2.500 1_554 S
O309 C292 1.255 . S
O310 Gd281 2.435 . S
O310 C299 1.256 . S
O311 Gd280 2.327 . S
O311 Gd281 2.717 . S
O311 C299 1.257 . S
H312 C285 0.930 . S
H313 C286 0.931 . S
H314 C288 0.931 . S
H315 C289 0.931 . S
H316 C294 0.930 . S
H317 C295 0.931 . S
H318 C297 0.931 . S
H319 C298 0.931 . S
Gd320 C323 2.818 . S
Gd320 O340 2.377 . S
Gd320 O342 2.448 . S
Gd320 O343 2.506 . S
Gd320 O344 2.435 . S
Gd320 O345 2.717 . S
Gd320 O347 2.395 . S
Gd320 O351 2.327 . S
Gd321 C332 2.818 . S
Gd321 O341 2.395 . S
Gd321 O345 2.327 . S
Gd321 O346 2.377 . S
Gd321 O348 2.448 . S
Gd321 O349 2.506 . S
Gd321 O350 2.435 . S
Gd321 O351 2.717 . S
C322 O340 1.240 . S
C322 O341 1.240 . S
C323 Gd320 2.818 . S
C323 C324 1.510 . S
C323 O342 1.249 . S
C323 O343 1.252 . S
C324 C323 1.510 . S
C324 C325 1.404 . S
C324 C326 1.352 . S
C325 C324 1.404 . S
C325 C329 1.389 . S
C325 H352 0.930 . S
C326 C324 1.352 . S
C326 C328 1.374 . S
C326 H353 0.931 . S
C327 C328 1.359 . S
C327 C329 1.364 . S
C328 C326 1.374 . S
C328 C327 1.359 . S
C328 H354 0.931 . S
C329 C325 1.389 . S
C329 C327 1.364 . S
C329 H355 0.931 . S
C330 O344 1.256 . S
C330 O345 1.257 . S
C331 O346 1.240 . S
C331 O347 1.240 . S
C332 Gd321 2.818 . S
C332 C333 1.510 . S
C332 O348 1.249 . S
C332 O349 1.252 . S
C333 C332 1.510 . S
C333 C334 1.404 . S
C333 C335 1.352 . S
C334 C333 1.404 . S
C334 C338 1.389 . S
C334 H356 0.930 . S
C335 C333 1.352 . S
C335 C337 1.374 . S
C335 H357 0.931 . S
C336 C337 1.359 . S
C336 C338 1.364 . S
C337 C335 1.374 . S
C337 C336 1.359 . S
C337 H358 0.931 . S
C338 C334 1.389 . S
C338 C336 1.364 . S
C338 H359 0.931 . S
C339 O350 1.256 . S
C339 O351 1.257 . S
O340 Gd320 2.377 . S
O340 C322 1.240 . S
O341 Gd321 2.395 . S
O341 C322 1.240 . S
O342 Gd320 2.448 . S
O342 C323 1.249 . S
O343 Gd320 2.506 . S
O343 C323 1.252 . S
O344 Gd320 2.435 . S
O344 C330 1.256 . S
O345 Gd320 2.717 . S
O345 Gd321 2.327 . S
O345 C330 1.257 . S
O346 Gd321 2.377 . S
O346 C331 1.240 . S
O347 Gd320 2.395 . S
O347 C331 1.240 . S
O348 Gd321 2.448 . S
O348 C332 1.249 . S
O349 Gd321 2.506 . S
O349 C332 1.252 . S
O350 Gd321 2.435 . S
O350 C339 1.256 . S
O351 Gd320 2.327 . S
O351 Gd321 2.717 . S
O351 C339 1.257 . S
H352 C325 0.930 . S
H353 C326 0.931 . S
H354 C328 0.931 . S
H355 C329 0.931 . S
H356 C334 0.930 . S
H357 C335 0.931 . S
H358 C337 0.931 . S
H359 C338 0.931 . S
Gd360 C363 2.818 . S
Gd360 O380 2.377 . S
Gd360 O382 2.448 . S
Gd360 O383 2.506 . S
Gd360 O384 2.435 . S
Gd360 O385 2.717 . S
Gd360 O387 2.395 . S
Gd360 O391 2.327 . S
Gd361 C372 2.818 . S
Gd361 O381 2.395 . S
Gd361 O385 2.327 . S
Gd361 O386 2.377 . S
Gd361 O388 2.448 . S
Gd361 O389 2.506 . S
Gd361 O390 2.435 . S
Gd361 O391 2.717 . S
C362 O380 1.240 . S
C362 O381 1.240 . S
C363 Gd360 2.818 . S
C363 C364 1.510 . S
C363 O382 1.249 . S
C363 O383 1.252 . S
C364 C363 1.510 . S
C364 C365 1.404 . S
C364 C366 1.352 . S
C365 C364 1.404 . S
C365 C369 1.389 . S
C365 H392 0.930 . S
C366 C364 1.352 . S
C366 C368 1.374 . S
C366 H393 0.931 . S
C367 C368 1.359 . S
C367 C369 1.364 . S
C368 C366 1.374 . S
C368 C367 1.359 . S
C368 H394 0.931 . S
C369 C365 1.389 . S
C369 C367 1.364 . S
C369 H395 0.931 . S
C370 O384 1.256 . S
C370 O385 1.257 . S
C371 O386 1.240 . S
C371 O387 1.240 . S
C372 Gd361 2.818 . S
C372 C373 1.510 . S
C372 O388 1.249 . S
C372 O389 1.252 . S
C373 C372 1.510 . S
C373 C374 1.404 . S
C373 C375 1.352 . S
C374 C373 1.404 . S
C374 C378 1.389 . S
C374 H396 0.930 . S
C375 C373 1.352 . S
C375 C377 1.374 . S
C375 H397 0.931 . S
C376 C377 1.359 . S
C376 C378 1.364 . S
C377 C375 1.374 . S
C377 C376 1.359 . S
C377 H398 0.931 . S
C378 C374 1.389 . S
C378 C376 1.364 . S
C378 H399 0.931 . S
C379 O390 1.256 . S
C379 O391 1.257 . S
O380 Gd360 2.377 . S
O380 C362 1.240 . S
O381 Gd361 2.395 . S
O381 C362 1.240 . S
O382 Gd360 2.448 . S
O382 C363 1.249 . S
O383 Gd360 2.506 . S
O383 C363 1.252 . S
O384 Gd360 2.435 . S
O384 C370 1.256 . S
O385 Gd360 2.717 . S
O385 Gd361 2.327 . S
O385 C370 1.257 . S
O386 Gd361 2.377 . S
O386 C371 1.240 . S
O387 Gd360 2.395 . S
O387 C371 1.240 . S
O388 Gd361 2.448 . S
O388 C372 1.249 . S
O389 Gd361 2.506 . S
O389 C372 1.252 . S
O390 Gd361 2.435 . S
O390 C379 1.256 . S
O391 Gd360 2.327 . S
O391 Gd361 2.717 . S
O391 C379 1.257 . S
H392 C365 0.930 . S
H393 C366 0.931 . S
H394 C368 0.931 . S
H395 C369 0.931 . S
H396 C374 0.930 . S
H397 C375 0.931 . S
H398 C377 0.931 . S
H399 C378 0.931 . S
Gd400 C403 2.818 . S
Gd400 O420 2.377 . S
Gd400 O422 2.448 . S
Gd400 O423 2.506 . S
Gd400 O424 2.435 . S
Gd400 O425 2.717 . S
Gd400 O427 2.395 . S
Gd400 O431 2.327 . S
Gd401 C412 2.818 . S
Gd401 O421 2.395 . S
Gd401 O425 2.327 . S
Gd401 O426 2.377 . S
Gd401 O428 2.448 . S
Gd401 O429 2.506 . S
Gd401 O430 2.435 . S
Gd401 O431 2.717 . S
C402 O420 1.240 . S
C402 O421 1.240 . S
C403 Gd400 2.818 . S
C403 C404 1.510 . S
C403 O422 1.249 . S
C403 O423 1.252 . S
C404 C403 1.510 . S
C404 C405 1.404 . S
C404 C406 1.352 . S
C405 C404 1.404 . S
C405 C409 1.389 . S
C405 H432 0.930 . S
C406 C404 1.352 . S
C406 C408 1.374 . S
C406 H433 0.931 . S
C407 C408 1.359 . S
C407 C409 1.364 . S
C408 C406 1.374 . S
C408 C407 1.359 . S
C408 H434 0.931 . S
C409 C405 1.389 . S
C409 C407 1.364 . S
C409 H435 0.931 . S
C410 O424 1.256 . S
C410 O425 1.257 . S
C411 O426 1.240 . S
C411 O427 1.240 . S
C412 Gd401 2.818 . S
C412 C413 1.510 . S
C412 O428 1.249 . S
C412 O429 1.252 . S
C413 C412 1.510 . S
C413 C414 1.404 . S
C413 C415 1.352 . S
C414 C413 1.404 . S
C414 C418 1.389 . S
C414 H436 0.930 . S
C415 C413 1.352 . S
C415 C417 1.374 . S
C415 H437 0.931 . S
C416 C417 1.359 . S
C416 C418 1.364 . S
C417 C415 1.374 . S
C417 C416 1.359 . S
C417 H438 0.931 . S
C418 C414 1.389 . S
C418 C416 1.364 . S
C418 H439 0.931 . S
C419 O430 1.256 . S
C419 O431 1.257 . S
O420 Gd400 2.377 . S
O420 C402 1.240 . S
O421 Gd401 2.395 . S
O421 C402 1.240 . S
O422 Gd400 2.448 . S
O422 C403 1.249 . S
O423 Gd400 2.506 . S
O423 C403 1.252 . S
O424 Gd400 2.435 . S
O424 C410 1.256 . S
O425 Gd400 2.717 . S
O425 Gd401 2.327 . S
O425 C410 1.257 . S
O426 Gd401 2.377 . S
O426 C411 1.240 . S
O427 Gd400 2.395 . S
O427 C411 1.240 . S
O428 Gd401 2.448 . S
O428 C412 1.249 . S
O429 Gd401 2.506 . S
O429 C412 1.252 . S
O430 Gd401 2.435 . S
O430 C419 1.256 . S
O431 Gd400 2.327 . S
O431 Gd401 2.717 . S
O431 C419 1.257 . S
H432 C405 0.930 . S
H433 C406 0.931 . S
H434 C408 0.931 . S
H435 C409 0.931 . S
H436 C414 0.930 . S
H437 C415 0.931 . S
H438 C417 0.931 . S
H439 C418 0.931 . S
Gd440 C443 2.818 . S
Gd440 O460 2.377 . S
Gd440 O462 2.448 . S
Gd440 O463 2.506 . S
Gd440 O464 2.435 . S
Gd440 O465 2.717 . S
Gd440 O467 2.395 . S
Gd440 O471 2.327 . S
Gd441 C452 2.818 . S
Gd441 O461 2.395 . S
Gd441 O465 2.327 . S
Gd441 O466 2.377 . S
Gd441 O468 2.448 . S
Gd441 O469 2.506 . S
Gd441 O470 2.435 . S
Gd441 O471 2.717 . S
C442 O460 1.240 . S
C442 O461 1.240 . S
C443 Gd440 2.818 . S
C443 C444 1.510 . S
C443 O462 1.249 . S
C443 O463 1.252 . S
C444 C443 1.510 . S
C444 C445 1.404 . S
C444 C446 1.352 . S
C445 C444 1.404 . S
C445 C449 1.389 . S
C445 H472 0.930 . S
C446 C444 1.352 . S
C446 C448 1.374 . S
C446 H473 0.931 . S
C447 C448 1.359 . S
C447 C449 1.364 . S
C448 C446 1.374 . S
C448 C447 1.359 . S
C448 H474 0.931 . S
C449 C445 1.389 . S
C449 C447 1.364 . S
C449 H475 0.931 . S
C450 O464 1.256 . S
C450 O465 1.257 . S
C451 O466 1.240 . S
C451 O467 1.240 . S
C452 Gd441 2.818 . S
C452 C453 1.510 . S
C452 O468 1.249 . S
C452 O469 1.252 . S
C453 C452 1.510 . S
C453 C454 1.404 . S
C453 C455 1.352 . S
C454 C453 1.404 . S
C454 C458 1.389 . S
C454 H476 0.930 . S
C455 C453 1.352 . S
C455 C457 1.374 . S
C455 H477 0.931 . S
C456 C457 1.359 . S
C456 C458 1.364 . S
C457 C455 1.374 . S
C457 C456 1.359 . S
C457 H478 0.931 . S
C458 C454 1.389 . S
C458 C456 1.364 . S
C458 H479 0.931 . S
C459 O470 1.256 . S
C459 O471 1.257 . S
O460 Gd440 2.377 . S
O460 C442 1.240 . S
O461 Gd441 2.395 . S
O461 C442 1.240 . S
O462 Gd440 2.448 . S
O462 C443 1.249 . S
O463 Gd440 2.506 . S
O463 C443 1.252 . S
O464 Gd440 2.435 . S
O464 C450 1.256 . S
O465 Gd440 2.717 . S
O465 Gd441 2.327 . S
O465 C450 1.257 . S
O466 Gd441 2.377 . S
O466 C451 1.240 . S
O467 Gd440 2.395 . S
O467 C451 1.240 . S
O468 Gd441 2.448 . S
O468 C452 1.249 . S
O469 Gd441 2.506 . S
O469 C452 1.252 . S
O470 Gd441 2.435 . S
O470 C459 1.256 . S
O471 Gd440 2.327 . S
O471 Gd441 2.717 . S
O471 C459 1.257 . S
H472 C445 0.930 . S
H473 C446 0.931 . S
H474 C448 0.931 . S
H475 C449 0.931 . S
H476 C454 0.930 . S
H477 C455 0.931 . S
H478 C457 0.931 . S
H479 C458 0.931 . S
Gd480 C483 2.818 . S
Gd480 O500 2.377 . S
Gd480 O502 2.448 . S
Gd480 O503 2.506 . S
Gd480 O504 2.435 . S
Gd480 O505 2.717 . S
Gd480 O507 2.395 . S
Gd480 O511 2.327 . S
Gd481 C492 2.818 . S
Gd481 O501 2.395 . S
Gd481 O505 2.327 . S
Gd481 O506 2.377 . S
Gd481 O508 2.448 . S
Gd481 O509 2.506 . S
Gd481 O510 2.435 . S
Gd481 O511 2.717 . S
C482 O500 1.240 . S
C482 O501 1.240 . S
C483 Gd480 2.818 . S
C483 C484 1.510 . S
C483 O502 1.249 . S
C483 O503 1.252 . S
C484 C483 1.510 . S
C484 C485 1.404 . S
C484 C486 1.352 . S
C485 C484 1.404 . S
C485 C489 1.389 . S
C485 H512 0.930 . S
C486 C484 1.352 . S
C486 C488 1.374 . S
C486 H513 0.931 . S
C487 C488 1.359 . S
C487 C489 1.364 . S
C488 C486 1.374 . S
C488 C487 1.359 . S
C488 H514 0.931 . S
C489 C485 1.389 . S
C489 C487 1.364 . S
C489 H515 0.931 . S
C490 O504 1.256 . S
C490 O505 1.257 . S
C491 O506 1.240 . S
C491 O507 1.240 . S
C492 Gd481 2.818 . S
C492 C493 1.510 . S
C492 O508 1.249 . S
C492 O509 1.252 . S
C493 C492 1.510 . S
C493 C494 1.404 . S
C493 C495 1.352 . S
C494 C493 1.404 . S
C494 C498 1.389 . S
C494 H516 0.930 . S
C495 C493 1.352 . S
C495 C497 1.374 . S
C495 H517 0.931 . S
C496 C497 1.359 . S
C496 C498 1.364 . S
C497 C495 1.374 . S
C497 C496 1.359 . S
C497 H518 0.931 . S
C498 C494 1.389 . S
C498 C496 1.364 . S
C498 H519 0.931 . S
C499 O510 1.256 . S
C499 O511 1.257 . S
O500 Gd480 2.377 . S
O500 C482 1.240 . S
O501 Gd481 2.395 . S
O501 C482 1.240 . S
O502 Gd480 2.448 . S
O502 C483 1.249 . S
O503 Gd480 2.506 . S
O503 C483 1.252 . S
O504 Gd480 2.435 . S
O504 C490 1.256 . S
O505 Gd480 2.717 . S
O505 Gd481 2.327 . S
O505 C490 1.257 . S
O506 Gd481 2.377 . S
O506 C491 1.240 . S
O507 Gd480 2.395 . S
O507 C491 1.240 . S
O508 Gd481 2.448 . S
O508 C492 1.249 . S
O509 Gd481 2.506 . S
O509 C492 1.252 . S
O510 Gd481 2.435 . S
O510 C499 1.256 . S
O511 Gd480 2.327 . S
O511 Gd481 2.717 . S
O511 C499 1.257 . S
H512 C485 0.930 . S
H513 C486 0.931 . S
H514 C488 0.931 . S
H515 C489 0.931 . S
H516 C494 0.930 . S
H517 C495 0.931 . S
H518 C497 0.931 . S
H519 C498 0.931 . S
Gd520 C523 2.818 . S
Gd520 O540 2.377 . S
Gd520 O542 2.448 . S
Gd520 O543 2.506 . S
Gd520 O544 2.435 . S
Gd520 O545 2.717 . S
Gd520 O547 2.395 . S
Gd520 O551 2.327 . S
Gd521 C532 2.818 . S
Gd521 O541 2.395 . S
Gd521 O545 2.327 . S
Gd521 O546 2.377 . S
Gd521 O548 2.448 . S
Gd521 O549 2.506 . S
Gd521 O550 2.435 . S
Gd521 O551 2.717 . S
C522 O540 1.240 . S
C522 O541 1.240 . S
C523 Gd520 2.818 . S
C523 C524 1.510 . S
C523 O542 1.249 . S
C523 O543 1.252 . S
C524 C523 1.510 . S
C524 C525 1.404 . S
C524 C526 1.352 . S
C525 C524 1.404 . S
C525 C529 1.389 . S
C525 H552 0.930 . S
C526 C524 1.352 . S
C526 C528 1.374 . S
C526 H553 0.931 . S
C527 C528 1.359 . S
C527 C529 1.364 . S
C528 C526 1.374 . S
C528 C527 1.359 . S
C528 H554 0.931 . S
C529 C525 1.389 . S
C529 C527 1.364 . S
C529 H555 0.931 . S
C530 O544 1.256 . S
C530 O545 1.257 . S
C531 O546 1.240 . S
C531 O547 1.240 . S
C532 Gd521 2.818 . S
C532 C533 1.510 . S
C532 O548 1.249 . S
C532 O549 1.252 . S
C533 C532 1.510 . S
C533 C534 1.404 . S
C533 C535 1.352 . S
C534 C533 1.404 . S
C534 C538 1.389 . S
C534 H556 0.930 . S
C535 C533 1.352 . S
C535 C537 1.374 . S
C535 H557 0.931 . S
C536 C537 1.359 . S
C536 C538 1.364 . S
C537 C535 1.374 . S
C537 C536 1.359 . S
C537 H558 0.931 . S
C538 C534 1.389 . S
C538 C536 1.364 . S
C538 H559 0.931 . S
C539 O550 1.256 . S
C539 O551 1.257 . S
O540 Gd520 2.377 . S
O540 C522 1.240 . S
O541 Gd521 2.395 . S
O541 C522 1.240 . S
O542 Gd520 2.448 . S
O542 C523 1.249 . S
O543 Gd520 2.506 . S
O543 C523 1.252 . S
O544 Gd520 2.435 . S
O544 C530 1.256 . S
O545 Gd520 2.717 . S
O545 Gd521 2.327 . S
O545 C530 1.257 . S
O546 Gd521 2.377 . S
O546 C531 1.240 . S
O547 Gd520 2.395 . S
O547 C531 1.240 . S
O548 Gd521 2.448 . S
O548 C532 1.249 . S
O549 Gd521 2.506 . S
O549 C532 1.252 . S
O550 Gd521 2.435 . S
O550 C539 1.256 . S
O551 Gd520 2.327 . S
O551 Gd521 2.717 . S
O551 C539 1.257 . S
H552 C525 0.930 . S
H553 C526 0.931 . S
H554 C528 0.931 . S
H555 C529 0.931 . S
H556 C534 0.930 . S
H557 C535 0.931 . S
H558 C537 0.931 . S
H559 C538 0.931 . S
Gd560 C563 2.818 . S
Gd560 O580 2.377 . S
Gd560 O582 2.448 . S
Gd560 O583 2.506 . S
Gd560 O584 2.435 . S
Gd560 O585 2.717 . S
Gd560 O587 2.395 . S
Gd560 O591 2.327 . S
Gd561 C572 2.818 . S
Gd561 O581 2.395 . S
Gd561 O585 2.327 . S
Gd561 O586 2.377 . S
Gd561 O588 2.448 . S
Gd561 O589 2.506 . S
Gd561 O590 2.435 . S
Gd561 O591 2.717 . S
C562 O580 1.240 . S
C562 O581 1.240 . S
C563 Gd560 2.818 . S
C563 C564 1.510 . S
C563 O582 1.249 . S
C563 O583 1.252 . S
C564 C563 1.510 . S
C564 C565 1.404 . S
C564 C566 1.352 . S
C565 C564 1.404 . S
C565 C569 1.389 . S
C565 H592 0.930 . S
C566 C564 1.352 . S
C566 C568 1.374 . S
C566 H593 0.931 . S
C567 C568 1.359 . S
C567 C569 1.364 . S
C568 C566 1.374 . S
C568 C567 1.359 . S
C568 H594 0.931 . S
C569 C565 1.389 . S
C569 C567 1.364 . S
C569 H595 0.931 . S
C570 O584 1.256 . S
C570 O585 1.257 . S
C571 O586 1.240 . S
C571 O587 1.240 . S
C572 Gd561 2.818 . S
C572 C573 1.510 . S
C572 O588 1.249 . S
C572 O589 1.252 . S
C573 C572 1.510 . S
C573 C574 1.404 . S
C573 C575 1.352 . S
C574 C573 1.404 . S
C574 C578 1.389 . S
C574 H596 0.930 . S
C575 C573 1.352 . S
C575 C577 1.374 . S
C575 H597 0.931 . S
C576 C577 1.359 . S
C576 C578 1.364 . S
C577 C575 1.374 . S
C577 C576 1.359 . S
C577 H598 0.931 . S
C578 C574 1.389 . S
C578 C576 1.364 . S
C578 H599 0.931 . S
C579 O590 1.256 . S
C579 O591 1.257 . S
O580 Gd560 2.377 . S
O580 C562 1.240 . S
O581 Gd561 2.395 . S
O581 C562 1.240 . S
O582 Gd560 2.448 . S
O582 C563 1.249 . S
O583 Gd560 2.506 . S
O583 C563 1.252 . S
O584 Gd560 2.435 . S
O584 C570 1.256 . S
O585 Gd560 2.717 . S
O585 Gd561 2.327 . S
O585 C570 1.257 . S
O586 Gd561 2.377 . S
O586 C571 1.240 . S
O587 Gd560 2.395 . S
O587 C571 1.240 . S
O588 Gd561 2.448 . S
O588 C572 1.249 . S
O589 Gd561 2.506 . S
O589 C572 1.252 . S
O590 Gd561 2.435 . S
O590 C579 1.256 . S
O591 Gd560 2.327 . S
O591 Gd561 2.717 . S
O591 C579 1.257 . S
H592 C565 0.930 . S
H593 C566 0.931 . S
H594 C568 0.931 . S
H595 C569 0.931 . S
H596 C574 0.930 . S
H597 C575 0.931 . S
H598 C577 0.931 . S
H599 C578 0.931 . S
Gd600 C603 2.818 . S
Gd600 O620 2.377 . S
Gd600 O622 2.448 . S
Gd600 O623 2.506 . S
Gd600 O624 2.435 . S
Gd600 O625 2.717 . S
Gd600 O627 2.395 . S
Gd600 O631 2.327 . S
Gd601 C612 2.818 . S
Gd601 O621 2.395 . S
Gd601 O625 2.327 . S
Gd601 O626 2.377 . S
Gd601 O628 2.448 . S
Gd601 O629 2.506 . S
Gd601 O630 2.435 . S
Gd601 O631 2.717 . S
C602 O620 1.240 . S
C602 O621 1.240 . S
C603 Gd600 2.818 . S
C603 C604 1.510 . S
C603 O622 1.249 . S
C603 O623 1.252 . S
C604 C603 1.510 . S
C604 C605 1.404 . S
C604 C606 1.352 . S
C605 C604 1.404 . S
C605 C609 1.389 . S
C605 H632 0.930 . S
C606 C604 1.352 . S
C606 C608 1.374 . S
C606 H633 0.931 . S
C607 C608 1.359 . S
C607 C609 1.364 . S
C608 C606 1.374 . S
C608 C607 1.359 . S
C608 H634 0.931 . S
C609 C605 1.389 . S
C609 C607 1.364 . S
C609 H635 0.931 . S
C610 O624 1.256 . S
C610 O625 1.257 . S
C611 O626 1.240 . S
C611 O627 1.240 . S
C612 Gd601 2.818 . S
C612 C613 1.510 . S
C612 O628 1.249 . S
C612 O629 1.252 . S
C613 C612 1.510 . S
C613 C614 1.404 . S
C613 C615 1.352 . S
C614 C613 1.404 . S
C614 C618 1.389 . S
C614 H636 0.930 . S
C615 C613 1.352 . S
C615 C617 1.374 . S
C615 H637 0.931 . S
C616 C617 1.359 . S
C616 C618 1.364 . S
C617 C615 1.374 . S
C617 C616 1.359 . S
C617 H638 0.931 . S
C618 C614 1.389 . S
C618 C616 1.364 . S
C618 H639 0.931 . S
C619 O630 1.256 . S
C619 O631 1.257 . S
O620 Gd600 2.377 . S
O620 C602 1.240 . S
O621 Gd601 2.395 . S
O621 C602 1.240 . S
O622 Gd600 2.448 . S
O622 C603 1.249 . S
O623 Gd600 2.506 . S
O623 C603 1.252 . S
O624 Gd600 2.435 . S
O624 C610 1.256 . S
O625 Gd600 2.717 . S
O625 Gd601 2.327 . S
O625 C610 1.257 . S
O626 Gd601 2.377 . S
O626 C611 1.240 . S
O627 Gd600 2.395 . S
O627 C611 1.240 . S
O628 Gd601 2.448 . S
O628 C612 1.249 . S
O629 Gd601 2.506 . S
O629 C612 1.252 . S
O630 Gd601 2.435 . S
O630 C619 1.256 . S
O631 Gd600 2.327 . S
O631 Gd601 2.717 . S
O631 C619 1.257 . S
H632 C605 0.930 . S
H633 C606 0.931 . S
H634 C608 0.931 . S
H635 C609 0.931 . S
H636 C614 0.930 . S
H637 C615 0.931 . S
H638 C617 0.931 . S
H639 C618 0.931 . S
H640 C658 0.951 . S
H641 C660 0.951 . S
H642 C662 0.950 . S
H643 C663 0.950 . S
H644 C665 0.950 . S
H645 C668 0.950 . S
H646 C669 0.950 . S
H647 C671 0.950 . S
H648 C672 0.950 . S
H649 C673 0.951 . S
H650 C675 0.951 . S
H651 C677 0.950 . S
H652 C678 0.950 . S
H653 C680 0.950 1_545 S
H654 C683 0.950 . S
H655 C684 0.972 . S
H656 C686 0.950 . S
H657 C687 0.950 . S
C658 H640 0.951 . S
C658 C659 1.366 . S
C658 C660 1.388 . S
C659 C658 1.366 . S
C659 C663 1.385 . S
C660 H641 0.951 . S
C660 C658 1.388 . S
C660 C661 1.366 . S
C661 C660 1.366 . S
C661 C662 1.414 . S
C661 C664 1.499 . S
C662 H642 0.950 . S
C662 C661 1.414 . S
C662 C663 1.374 . S
C663 H643 0.950 . S
C663 C659 1.385 . S
C663 C662 1.374 . S
C664 C661 1.499 . S
C664 C665 1.373 . S
C664 C666 1.389 . S
C665 H644 0.950 . S
C665 C664 1.373 . S
C665 C681 1.377 . S
C666 C664 1.389 . S
C666 C667 1.524 . S
C666 C680 1.377 . S
C667 C666 1.524 . S
C667 C668 1.397 . S
C667 C672 1.363 . S
C668 H645 0.950 . S
C668 C667 1.397 . S
C668 C669 1.334 . S
C669 H646 0.950 . S
C669 C668 1.334 . S
C669 C670 1.287 . S
C670 C669 1.287 . S
C670 C671 1.524 . S
C670 H689 0.913 . S
C671 H647 0.950 . S
C671 C670 1.524 . S
C671 C672 1.415 . S
C672 H648 0.950 . S
C672 C667 1.363 . S
C672 C671 1.415 . S
C673 H649 0.951 . S
C673 C674 1.366 . S
C673 C675 1.388 . S
C674 C673 1.366 . S
C674 C678 1.385 . S
C675 H650 0.951 . S
C675 C673 1.388 . S
C675 C676 1.366 . S
C676 C675 1.366 . S
C676 C677 1.414 . S
C676 C679 1.501 1_545 S
C677 H651 0.950 . S
C677 C676 1.414 . S
C677 C678 1.374 . S
C678 H652 0.950 . S
C678 C674 1.385 . S
C678 C677 1.374 . S
C679 C676 1.501 1_565 S
C679 C680 1.373 . S
C679 C681 1.387 . S
C680 H653 0.950 1_565 S
C680 C666 1.377 . S
C680 C679 1.373 . S
C681 C665 1.377 . S
C681 C679 1.387 . S
C681 C682 1.524 . S
C682 C681 1.524 . S
C682 C683 1.397 . S
C682 C687 1.363 . S
C683 H654 0.950 . S
C683 C682 1.397 . S
C683 C684 1.334 . S
C684 H655 0.972 . S
C684 C683 1.334 . S
C684 C685 1.287 . S
C685 C684 1.287 . S
C685 C686 1.524 . S
C685 H688 0.999 . S
C686 H656 0.950 . S
C686 C685 1.524 . S
C686 C687 1.415 . S
C687 H657 0.950 . S
C687 C682 1.363 . S
C687 C686 1.415 . S
H688 C685 0.999 . S
H689 C670 0.913 . S
H690 C708 0.951 . S
H691 C710 0.951 . S
H692 C712 0.950 . S
H693 C713 0.950 . S
H694 C715 0.950 . S
H695 C718 0.950 . S
H696 C719 0.950 . S
H697 C721 0.950 . S
H698 C722 0.950 . S
H699 C723 0.951 . S
H700 C725 0.951 . S
H701 C727 0.950 . S
H702 C728 0.950 . S
H703 C730 0.950 1_455 S
H704 C733 0.950 . S
H705 C734 0.950 . S
H706 C736 0.950 . S
H707 C737 0.950 . S
C708 H690 0.951 . S
C708 C709 1.366 . S
C708 C710 1.388 . S
C709 C708 1.366 . S
C709 C713 1.385 . S
C710 H691 0.951 . S
C710 C708 1.388 . S
C710 C711 1.366 . S
C711 C710 1.366 . S
C711 C712 1.414 . S
C711 C714 1.499 . S
C712 H692 0.950 . S
C712 C711 1.414 . S
C712 C713 1.374 . S
C713 H693 0.950 . S
C713 C709 1.385 . S
C713 C712 1.374 . S
C714 C711 1.499 . S
C714 C715 1.373 . S
C714 C716 1.389 . S
C715 H694 0.950 . S
C715 C714 1.373 . S
C715 C731 1.377 . S
C716 C714 1.389 . S
C716 C717 1.524 . S
C716 C730 1.377 . S
C717 C716 1.524 . S
C717 C718 1.397 . S
C717 C722 1.363 . S
C718 H695 0.950 . S
C718 C717 1.397 . S
C718 C719 1.334 . S
C719 H696 0.950 . S
C719 C718 1.334 . S
C719 C720 1.287 . S
C720 C719 1.287 . S
C720 C721 1.524 . S
C720 H739 0.913 . S
C721 H697 0.950 . S
C721 C720 1.524 . S
C721 C722 1.415 . S
C722 H698 0.950 . S
C722 C717 1.363 . S
C722 C721 1.415 . S
C723 H699 0.951 . S
C723 C724 1.366 . S
C723 C725 1.388 . S
C724 C723 1.366 . S
C724 C728 1.385 . S
C725 H700 0.951 . S
C725 C723 1.388 . S
C725 C726 1.366 . S
C726 C725 1.366 . S
C726 C727 1.414 . S
C726 C729 1.493 1_455 S
C727 H701 0.950 . S
C727 C726 1.414 . S
C727 C728 1.374 . S
C728 H702 0.950 . S
C728 C724 1.385 . S
C728 C727 1.374 . S
C729 C726 1.493 1_655 S
C729 C730 1.374 . S
C729 C731 1.394 . S
C730 H703 0.950 1_655 S
C730 C716 1.377 . S
C730 C729 1.374 . S
C731 C715 1.377 . S
C731 C729 1.394 . S
C731 C732 1.524 . S
C732 C731 1.524 . S
C732 C733 1.397 . S
C732 C737 1.363 . S
C733 H704 0.950 . S
C733 C732 1.397 . S
C733 C734 1.334 . S
C734 H705 0.950 . S
C734 C733 1.334 . S
C734 C735 1.287 . S
C735 C734 1.287 . S
C735 C736 1.524 . S
C735 H738 0.999 . S
C736 H706 0.950 . S
C736 C735 1.524 . S
C736 C737 1.415 . S
C737 H707 0.950 . S
C737 C732 1.363 . S
C737 C736 1.415 . S
H738 C735 0.999 . S
H739 C720 0.913 . S
H740 C758 0.951 . S
H741 C760 0.951 . S
H742 C762 0.950 . S
H743 C763 0.950 . S
H744 C765 0.950 1_565 S
H745 C768 0.950 . S
H746 C769 0.974 . S
H747 C771 0.950 . S
H748 C772 0.950 . S
H749 C773 0.951 . S
H750 C775 0.951 . S
H751 C777 0.950 . S
H752 C778 0.950 . S
H753 C780 0.950 . S
H754 C783 0.950 . S
H755 C784 0.950 . S
H756 C786 0.950 . S
H757 C787 0.950 . S
C758 H740 0.951 . S
C758 C759 1.366 . S
C758 C760 1.388 . S
C759 C758 1.366 . S
C759 C763 1.385 . S
C760 H741 0.951 . S
C760 C758 1.388 . S
C760 C761 1.366 . S
C761 C760 1.366 . S
C761 C762 1.414 . S
C761 C764 1.501 1_565 S
C762 H742 0.950 . S
C762 C761 1.414 . S
C762 C763 1.374 . S
C763 H743 0.950 . S
C763 C759 1.385 . S
C763 C762 1.374 . S
C764 C761 1.501 1_545 S
C764 C765 1.373 . S
C764 C766 1.387 . S
C765 H744 0.950 1_545 S
C765 C764 1.373 . S
C765 C781 1.377 . S
C766 C764 1.387 . S
C766 C767 1.524 . S
C766 C780 1.377 . S
C767 C766 1.524 . S
C767 C768 1.397 . S
C767 C772 1.363 . S
C768 H745 0.950 . S
C768 C767 1.397 . S
C768 C769 1.334 . S
C769 H746 0.974 . S
C769 C768 1.334 . S
C769 C770 1.287 . S
C770 C769 1.287 . S
C770 C771 1.524 . S
C770 H789 0.913 . S
C771 H747 0.950 . S
C771 C770 1.524 . S
C771 C772 1.415 . S
C772 H748 0.950 . S
C772 C767 1.363 . S
C772 C771 1.415 . S
C773 H749 0.951 . S
C773 C774 1.366 . S
C773 C775 1.388 . S
C774 C773 1.366 . S
C774 C778 1.385 . S
C775 H750 0.951 . S
C775 C773 1.388 . S
C775 C776 1.366 . S
C776 C775 1.366 . S
C776 C777 1.414 . S
C776 C779 1.499 . S
C777 H751 0.950 . S
C777 C776 1.414 . S
C777 C778 1.374 . S
C778 H752 0.950 . S
C778 C774 1.385 . S
C778 C777 1.374 . S
C779 C776 1.499 . S
C779 C780 1.373 . S
C779 C781 1.389 . S
C780 H753 0.950 . S
C780 C766 1.377 . S
C780 C779 1.373 . S
C781 C765 1.377 . S
C781 C779 1.389 . S
C781 C782 1.524 . S
C782 C781 1.524 . S
C782 C783 1.397 . S
C782 C787 1.363 . S
C783 H754 0.950 . S
C783 C782 1.397 . S
C783 C784 1.334 . S
C784 H755 0.950 . S
C784 C783 1.334 . S
C784 C785 1.287 . S
C785 C784 1.287 . S
C785 C786 1.524 . S
C785 H788 0.999 . S
C786 H756 0.950 . S
C786 C785 1.524 . S
C786 C787 1.415 . S
C787 H757 0.950 . S
C787 C782 1.363 . S
C787 C786 1.415 . S
H788 C785 0.999 . S
H789 C770 0.913 . S
H790 C808 0.951 . S
H791 C810 0.951 . S
H792 C812 0.950 . S
H793 C813 0.950 . S
H794 C815 0.950 1_655 S
H795 C818 0.950 . S
H796 C819 0.950 . S
H797 C821 0.950 . S
H798 C822 0.950 . S
H799 C823 0.951 . S
H800 C825 0.951 . S
H801 C827 0.950 . S
H802 C828 0.950 . S
H803 C830 0.950 . S
H804 C833 0.950 . S
H805 C834 0.950 . S
H806 C836 0.950 . S
H807 C837 0.950 . S
C808 H790 0.951 . S
C808 C809 1.366 . S
C808 C810 1.388 . S
C809 C808 1.366 . S
C809 C813 1.385 . S
C810 H791 0.951 . S
C810 C808 1.388 . S
C810 C811 1.366 . S
C811 C810 1.366 . S
C811 C812 1.414 . S
C811 C814 1.518 . S
C812 H792 0.950 . S
C812 C811 1.414 . S
C812 C813 1.374 . S
C813 H793 0.950 . S
C813 C809 1.385 . S
C813 C812 1.374 . S
C814 C811 1.518 . S
C814 C815 1.369 1_655 S
C814 C816 1.374 1_655 S
C815 H794 0.950 1_455 S
C815 C814 1.369 1_455 S
C815 C831 1.377 . S
C816 C814 1.374 1_455 S
C816 C817 1.524 . S
C816 C830 1.377 . S
C817 C816 1.524 . S
C817 C818 1.397 1_455 S
C817 C822 1.363 . S
C818 H795 0.950 . S
C818 C817 1.397 1_655 S
C818 C819 1.334 . S
C819 H796 0.950 . S
C819 C818 1.334 . S
C819 C820 1.287 1_655 S
C820 C819 1.287 1_455 S
C820 C821 1.524 . S
C820 H839 0.913 . S
C821 H797 0.950 . S
C821 C820 1.524 . S
C821 C822 1.415 . S
C822 H798 0.950 . S
C822 C817 1.363 . S
C822 C821 1.415 . S
C823 H799 0.951 . S
C823 C824 1.366 . S
C823 C825 1.388 . S
C824 C823 1.366 . S
C824 C828 1.385 . S
C825 H800 0.951 . S
C825 C823 1.388 . S
C825 C826 1.366 . S
C826 C825 1.366 . S
C826 C827 1.414 . S
C826 C829 1.499 . S
C827 H801 0.950 . S
C827 C826 1.414 . S
C827 C828 1.374 . S
C828 H802 0.950 . S
C828 C824 1.385 . S
C828 C827 1.374 . S
C829 C826 1.499 . S
C829 C830 1.373 . S
C829 C831 1.389 . S
C830 H803 0.950 . S
C830 C816 1.377 . S
C830 C829 1.373 . S
C831 C815 1.377 . S
C831 C829 1.389 . S
C831 C832 1.524 . S
C832 C831 1.524 . S
C832 C833 1.397 . S
C832 C837 1.363 . S
C833 H804 0.950 . S
C833 C832 1.397 . S
C833 C834 1.334 . S
C834 H805 0.950 . S
C834 C833 1.334 . S
C834 C835 1.287 . S
C835 C834 1.287 . S
C835 C836 1.524 . S
C835 H838 0.999 . S
C836 H806 0.950 . S
C836 C835 1.524 . S
C836 C837 1.415 . S
C837 H807 0.950 . S
C837 C832 1.363 . S
C837 C836 1.415 . S
H838 C835 0.999 . S
H839 C820 0.913 . S
H840 C858 0.951 . S
H841 C860 0.951 . S
H842 C862 0.950 . S
H843 C863 0.950 . S
H844 C865 0.949 1_556 S
H845 C868 0.950 . S
H846 C869 0.950 . S
H847 C871 0.950 . S
H848 C872 0.950 . S
H849 C873 0.951 . S
H850 C875 0.951 . S
H851 C877 0.950 . S
H852 C878 0.950 1_554 S
H853 C880 0.950 . S
H854 C883 0.950 . S
H855 C884 0.950 . S
H856 C886 0.950 . S
H857 C887 0.950 . S
C858 H840 0.951 . S
C858 C859 1.366 . S
C858 C860 1.388 . S
C859 C858 1.366 . S
C859 C863 1.385 . S
C860 H841 0.951 . S
C860 C858 1.388 . S
C860 C861 1.366 . S
C861 C860 1.366 . S
C861 C862 1.414 . S
C861 C864 1.499 . S
C862 H842 0.950 . S
C862 C861 1.414 . S
C862 C863 1.374 . S
C863 H843 0.950 . S
C863 C859 1.385 . S
C863 C862 1.374 . S
C864 C861 1.499 . S
C864 C865 1.375 . S
C864 C866 1.389 . S
C865 H844 0.949 1_554 S
C865 C864 1.375 . S
C865 C881 1.376 1_554 S
C866 C864 1.389 . S
C866 C867 1.524 . S
C866 C880 1.377 . S
C867 C866 1.524 . S
C867 C868 1.397 . S
C867 C872 1.363 . S
C868 H845 0.950 . S
C868 C867 1.397 . S
C868 C869 1.334 . S
C869 H846 0.950 . S
C869 C868 1.334 . S
C869 C870 1.287 . S
C870 C869 1.287 . S
C870 C871 1.524 . S
C870 H889 0.913 . S
C871 H847 0.950 . S
C871 C870 1.524 . S
C871 C872 1.415 . S
C872 H848 0.950 . S
C872 C867 1.363 . S
C872 C871 1.415 . S
C873 H849 0.951 . S
C873 C874 1.366 . S
C873 C875 1.388 . S
C874 C873 1.366 . S
C874 C878 1.385 . S
C875 H850 0.951 . S
C875 C873 1.388 . S
C875 C876 1.366 . S
C876 C875 1.366 . S
C876 C877 1.414 1_556 S
C876 C879 1.499 1_556 S
C877 H851 0.950 . S
C877 C876 1.414 1_554 S
C877 C878 1.374 1_554 S
C878 H852 0.950 1_556 S
C878 C874 1.385 . S
C878 C877 1.374 1_556 S
C879 C876 1.499 1_554 S
C879 C880 1.373 . S
C879 C881 1.389 1_554 S
C880 H853 0.950 . S
C880 C866 1.377 . S
C880 C879 1.373 . S
C881 C865 1.376 1_556 S
C881 C879 1.389 1_556 S
C881 C882 1.524 . S
C882 C881 1.524 . S
C882 C883 1.397 . S
C882 C887 1.363 . S
C883 H854 0.950 . S
C883 C882 1.397 . S
C883 C884 1.334 . S
C884 H855 0.950 . S
C884 C883 1.334 . S
C884 C885 1.287 . S
C885 C884 1.287 . S
C885 C886 1.524 . S
C885 H888 0.999 . S
C886 H856 0.950 . S
C886 C885 1.524 . S
C886 C887 1.415 . S
C887 H857 0.950 . S
C887 C882 1.363 . S
C887 C886 1.415 . S
H888 C885 0.999 . S
H889 C870 0.913 . S
H890 C908 0.951 1_556 S
H891 C910 0.951 . S
H892 C912 0.950 . S
H893 C913 0.950 . S
H894 C915 0.950 . S
H895 C918 0.950 . S
H896 C919 0.950 . S
H897 C921 0.950 . S
H898 C922 0.950 . S
H899 C923 0.951 . S
H900 C925 0.951 . S
H901 C927 0.950 . S
H902 C928 0.950 . S
H903 C930 0.950 . S
H904 C933 0.950 1_556 S
H905 C934 0.950 . S
H906 C936 0.950 . S
H907 C937 0.950 . S
C908 H890 0.951 1_554 S
C908 C909 1.366 . S
C908 C910 1.388 1_554 S
C909 C908 1.366 . S
C909 C913 1.385 . S
C910 H891 0.951 . S
C910 C908 1.388 1_556 S
C910 C911 1.366 1_556 S
C911 C910 1.366 1_554 S
C911 C912 1.414 . S
C911 C914 1.499 1_554 S
C912 H892 0.950 . S
C912 C911 1.414 . S
C912 C913 1.374 . S
C913 H893 0.950 . S
C913 C909 1.385 . S
C913 C912 1.374 . S
C914 C911 1.499 1_556 S
C914 C915 1.373 1_556 S
C914 C916 1.389 . S
C915 H894 0.950 . S
C915 C914 1.373 1_554 S
C915 C931 1.377 . S
C916 C914 1.389 . S
C916 C917 1.524 . S
C916 C930 1.377 . S
C917 C916 1.524 . S
C917 C918 1.397 . S
C917 C922 1.363 . S
C918 H895 0.950 . S
C918 C917 1.397 . S
C918 C919 1.334 . S
C919 H896 0.950 . S
C919 C918 1.334 . S
C919 C920 1.287 . S
C920 C919 1.287 . S
C920 C921 1.524 . S
C920 H939 0.913 . S
C921 H897 0.950 . S
C921 C920 1.524 . S
C921 C922 1.415 . S
C922 H898 0.950 . S
C922 C917 1.363 . S
C922 C921 1.415 . S
C923 H899 0.951 . S
C923 C924 1.366 . S
C923 C925 1.388 . S
C924 C923 1.366 . S
C924 C928 1.385 . S
C925 H900 0.951 . S
C925 C923 1.388 . S
C925 C926 1.366 . S
C926 C925 1.366 . S
C926 C927 1.414 . S
C926 C929 1.499 . S
C927 H901 0.950 . S
C927 C926 1.414 . S
C927 C928 1.374 . S
C928 H902 0.950 . S
C928 C924 1.385 . S
C928 C927 1.374 . S
C929 C926 1.499 . S
C929 C930 1.373 . S
C929 C931 1.389 1_556 S
C930 H903 0.950 . S
C930 C916 1.377 . S
C930 C929 1.373 . S
C931 C915 1.377 . S
C931 C929 1.389 1_554 S
C931 C932 1.524 . S
C932 C931 1.524 . S
C932 C933 1.397 . S
C932 C937 1.363 . S
C933 H904 0.950 1_554 S
C933 C932 1.397 . S
C933 C934 1.334 . S
C934 H905 0.950 . S
C934 C933 1.334 . S
C934 C935 1.287 . S
C935 C934 1.287 . S
C935 C936 1.524 . S
C935 H938 0.999 . S
C936 H906 0.950 . S
C936 C935 1.524 . S
C936 C937 1.415 . S
C937 H907 0.950 . S
C937 C932 1.363 . S
C937 C936 1.415 . S
H938 C935 0.999 . S
H939 C920 0.913 . S
H940 C958 0.951 . S
H941 C960 0.951 . S
H942 C962 0.950 . S
H943 C963 0.950 . S
H944 C965 0.950 . S
H945 C968 0.950 . S
H946 C969 0.950 1_554 S
H947 C971 0.950 . S
H948 C972 0.950 . S
H949 C973 0.951 1_554 S
H950 C975 0.951 . S
H951 C977 0.950 . S
H952 C978 0.950 . S
H953 C980 0.950 . S
H954 C983 0.950 . S
H955 C984 0.950 . S
H956 C986 0.950 . S
H957 C987 0.950 . S
C958 H940 0.951 . S
C958 C959 1.366 . S
C958 C960 1.388 . S
C959 C958 1.366 . S
C959 C963 1.385 . S
C960 H941 0.951 . S
C960 C958 1.388 . S
C960 C961 1.366 . S
C961 C960 1.366 . S
C961 C962 1.414 . S
C961 C964 1.499 . S
C962 H942 0.950 . S
C962 C961 1.414 . S
C962 C963 1.374 . S
C963 H943 0.950 . S
C963 C959 1.385 . S
C963 C962 1.374 . S
C964 C961 1.499 . S
C964 C965 1.373 . S
C964 C966 1.389 . S
C965 H944 0.950 . S
C965 C964 1.373 . S
C965 C981 1.377 . S
C966 C964 1.389 . S
C966 C967 1.524 1_554 S
C966 C980 1.377 1_554 S
C967 C966 1.524 1_556 S
C967 C968 1.397 1_556 S
C967 C972 1.363 . S
C968 H945 0.950 . S
C968 C967 1.397 1_554 S
C968 C969 1.334 1_554 S
C969 H946 0.950 1_556 S
C969 C968 1.334 1_556 S
C969 C970 1.287 . S
C970 C969 1.287 . S
C970 C971 1.524 . S
C970 H989 0.913 . S
C971 H947 0.950 . S
C971 C970 1.524 . S
C971 C972 1.415 . S
C972 H948 0.950 . S
C972 C967 1.363 . S
C972 C971 1.415 . S
C973 H949 0.951 1_556 S
C973 C974 1.366 . S
C973 C975 1.388 1_556 S
C974 C973 1.366 . S
C974 C978 1.385 . S
C975 H950 0.951 . S
C975 C973 1.388 1_554 S
C975 C976 1.366 1_554 S
C976 C975 1.366 1_556 S
C976 C977 1.414 . S
C976 C979 1.499 1_556 S
C977 H951 0.950 . S
C977 C976 1.414 . S
C977 C978 1.374 . S
C978 H952 0.950 . S
C978 C974 1.385 . S
C978 C977 1.374 . S
C979 C976 1.499 1_554 S
C979 C980 1.373 1_554 S
C979 C981 1.389 . S
C980 H953 0.950 . S
C980 C966 1.377 1_556 S
C980 C979 1.373 1_556 S
C981 C965 1.377 . S
C981 C979 1.389 . S
C981 C982 1.524 . S
C982 C981 1.524 . S
C982 C983 1.397 . S
C982 C987 1.363 . S
C983 H954 0.950 . S
C983 C982 1.397 . S
C983 C984 1.334 . S
C984 H955 0.950 . S
C984 C983 1.334 . S
C984 C985 1.287 . S
C985 C984 1.287 . S
C985 C986 1.524 . S
C985 H988 0.999 . S
C986 H956 0.950 . S
C986 C985 1.524 . S
C986 C987 1.415 . S
C987 H957 0.950 . S
C987 C982 1.363 . S
C987 C986 1.415 . S
H988 C985 0.999 . S
H989 C970 0.913 . S
H990 C1008 0.951 1_556 S
H991 C1010 0.951 . S
H992 C1012 0.950 . S
H993 C1013 0.950 . S
H994 C1015 0.950 . S
H995 C1018 0.950 . S
H996 C1019 0.950 . S
H997 C1021 0.950 . S
H998 C1022 0.950 . S
H999 C1023 0.951 . S
H1000 C1025 0.951 . S
H1001 C1027 0.950 . S
H1002 C1028 0.950 . S
H1003 C1030 0.950 . S
H1004 C1033 0.950 1_556 S
H1005 C1034 0.950 . S
H1006 C1036 0.950 . S
H1007 C1037 0.950 . S
C1008 H990 0.951 1_554 S
C1008 C1009 1.366 . S
C1008 C1010 1.388 1_554 S
C1009 C1008 1.366 . S
C1009 C1013 1.385 . S
C1010 H991 0.951 . S
C1010 C1008 1.388 1_556 S
C1010 C1011 1.366 1_556 S
C1011 C1010 1.366 1_554 S
C1011 C1012 1.414 . S
C1011 C1014 1.499 1_554 S
C1012 H992 0.950 . S
C1012 C1011 1.414 . S
C1012 C1013 1.374 . S
C1013 H993 0.950 . S
C1013 C1009 1.385 . S
C1013 C1012 1.374 . S
C1014 C1011 1.499 1_556 S
C1014 C1015 1.373 1_556 S
C1014 C1016 1.389 . S
C1015 H994 0.950 . S
C1015 C1014 1.373 1_554 S
C1015 C1031 1.377 . S
C1016 C1014 1.389 . S
C1016 C1017 1.524 . S
C1016 C1030 1.377 . S
C1017 C1016 1.524 . S
C1017 C1018 1.397 . S
C1017 C1022 1.363 . S
C1018 H995 0.950 . S
C1018 C1017 1.397 . S
C1018 C1019 1.334 . S
C1019 H996 0.950 . S
C1019 C1018 1.334 . S
C1019 C1020 1.287 . S
C1020 C1019 1.287 . S
C1020 C1021 1.524 . S
C1020 H1039 0.913 . S
C1021 H997 0.950 . S
C1021 C1020 1.524 . S
C1021 C1022 1.415 . S
C1022 H998 0.950 . S
C1022 C1017 1.363 . S
C1022 C1021 1.415 . S
C1023 H999 0.951 . S
C1023 C1024 1.366 . S
C1023 C1025 1.388 . S
C1024 C1023 1.366 . S
C1024 C1028 1.385 . S
C1025 H1000 0.951 . S
C1025 C1023 1.388 . S
C1025 C1026 1.366 . S
C1026 C1025 1.366 . S
C1026 C1027 1.414 . S
C1026 C1029 1.499 . S
C1027 H1001 0.950 . S
C1027 C1026 1.414 . S
C1027 C1028 1.374 . S
C1028 H1002 0.950 . S
C1028 C1024 1.385 . S
C1028 C1027 1.374 . S
C1029 C1026 1.499 . S
C1029 C1030 1.373 . S
C1029 C1031 1.389 1_556 S
C1030 H1003 0.950 . S
C1030 C1016 1.377 . S
C1030 C1029 1.373 . S
C1031 C1015 1.377 . S
C1031 C1029 1.389 1_554 S
C1031 C1032 1.524 . S
C1032 C1031 1.524 . S
C1032 C1033 1.397 . S
C1032 C1037 1.363 . S
C1033 H1004 0.950 1_554 S
C1033 C1032 1.397 . S
C1033 C1034 1.334 . S
C1034 H1005 0.950 . S
C1034 C1033 1.334 . S
C1034 C1035 1.287 . S
C1035 C1034 1.287 . S
C1035 C1036 1.524 . S
C1035 H1038 0.999 . S
C1036 H1006 0.950 . S
C1036 C1035 1.524 . S
C1036 C1037 1.415 . S
C1037 H1007 0.950 . S
C1037 C1032 1.363 . S
C1037 C1036 1.415 . S
H1038 C1035 0.999 . S
H1039 C1020 0.913 . S
H1040 C1058 0.951 . S
H1041 C1060 0.951 . S
H1042 C1062 0.950 . S
H1043 C1063 0.950 . S
H1044 C1065 0.950 . S
H1045 C1068 0.950 . S
H1046 C1069 0.950 . S
H1047 C1071 0.950 . S
H1048 C1072 0.950 . S
H1049 C1073 0.951 . S
H1050 C1075 0.951 . S
H1051 C1077 0.950 . S
H1052 C1078 0.950 . S
H1053 C1080 0.950 . S
H1054 C1083 0.950 . S
H1055 C1084 0.950 . S
H1056 C1086 0.950 . S
H1057 C1087 0.950 . S
C1058 H1040 0.951 . S
C1058 C1059 1.366 . S
C1058 C1060 1.388 . S
C1059 C1058 1.366 . S
C1059 C1063 1.385 . S
C1060 H1041 0.951 . S
C1060 C1058 1.388 . S
C1060 C1061 1.366 . S
C1061 C1060 1.366 . S
C1061 C1062 1.414 . S
C1061 C1064 1.499 . S
C1062 H1042 0.950 . S
C1062 C1061 1.414 . S
C1062 C1063 1.374 . S
C1063 H1043 0.950 . S
C1063 C1059 1.385 . S
C1063 C1062 1.374 . S
C1064 C1061 1.499 . S
C1064 C1065 1.373 . S
C1064 C1066 1.389 . S
C1065 H1044 0.950 . S
C1065 C1064 1.373 . S
C1065 C1081 1.377 . S
C1066 C1064 1.389 . S
C1066 C1067 1.524 . S
C1066 C1080 1.377 . S
C1067 C1066 1.524 . S
C1067 C1068 1.397 . S
C1067 C1072 1.363 . S
C1068 H1045 0.950 . S
C1068 C1067 1.397 . S
C1068 C1069 1.334 . S
C1069 H1046 0.950 . S
C1069 C1068 1.334 . S
C1069 C1070 1.287 . S
C1070 C1069 1.287 . S
C1070 C1071 1.524 . S
C1070 H1089 0.913 . S
C1071 H1047 0.950 . S
C1071 C1070 1.524 . S
C1071 C1072 1.415 . S
C1072 H1048 0.950 . S
C1072 C1067 1.363 . S
C1072 C1071 1.415 . S
C1073 H1049 0.951 . S
C1073 C1074 1.366 . S
C1073 C1075 1.388 . S
C1074 C1073 1.366 . S
C1074 C1078 1.385 . S
C1075 H1050 0.951 . S
C1075 C1073 1.388 . S
C1075 C1076 1.366 . S
C1076 C1075 1.366 . S
C1076 C1077 1.414 . S
C1076 C1079 1.499 . S
C1077 H1051 0.950 . S
C1077 C1076 1.414 . S
C1077 C1078 1.374 . S
C1078 H1052 0.950 . S
C1078 C1074 1.385 . S
C1078 C1077 1.374 . S
C1079 C1076 1.499 . S
C1079 C1080 1.373 . S
C1079 C1081 1.389 . S
C1080 H1053 0.950 . S
C1080 C1066 1.377 . S
C1080 C1079 1.373 . S
C1081 C1065 1.377 . S
C1081 C1079 1.389 . S
C1081 C1082 1.524 . S
C1082 C1081 1.524 . S
C1082 C1083 1.397 . S
C1082 C1087 1.363 . S
C1083 H1054 0.950 . S
C1083 C1082 1.397 . S
C1083 C1084 1.334 . S
C1084 H1055 0.950 . S
C1084 C1083 1.334 . S
C1084 C1085 1.287 . S
C1085 C1084 1.287 . S
C1085 C1086 1.524 . S
C1085 H1088 0.999 . S
C1086 H1056 0.950 . S
C1086 C1085 1.524 . S
C1086 C1087 1.415 . S
C1087 H1057 0.950 . S
C1087 C1082 1.363 . S
C1087 C1086 1.415 . S
H1088 C1085 0.999 . S
H1089 C1070 0.913 . S
H1090 C1108 0.951 . S
H1091 C1110 0.951 . S
H1092 C1112 0.950 . S
H1093 C1113 0.950 . S
H1094 C1115 0.950 . S
H1095 C1118 0.950 . S
H1096 C1119 0.950 . S
H1097 C1121 0.950 . S
H1098 C1122 0.950 . S
H1099 C1123 0.951 . S
H1100 C1125 0.951 . S
H1101 C1127 0.950 . S
H1102 C1128 0.950 . S
H1103 C1130 0.950 . S
H1104 C1133 0.950 . S
H1105 C1134 0.950 . S
H1106 C1136 0.950 . S
H1107 C1137 0.950 . S
C1108 H1090 0.951 . S
C1108 C1109 1.366 . S
C1108 C1110 1.388 . S
C1109 C1108 1.366 . S
C1109 C1113 1.385 . S
C1110 H1091 0.951 . S
C1110 C1108 1.388 . S
C1110 C1111 1.366 . S
C1111 C1110 1.366 . S
C1111 C1112 1.414 . S
C1111 C1114 1.499 . S
C1112 H1092 0.950 . S
C1112 C1111 1.414 . S
C1112 C1113 1.374 . S
C1113 H1093 0.950 . S
C1113 C1109 1.385 . S
C1113 C1112 1.374 . S
C1114 C1111 1.499 . S
C1114 C1115 1.373 . S
C1114 C1116 1.389 . S
C1115 H1094 0.950 . S
C1115 C1114 1.373 . S
C1115 C1131 1.377 . S
C1116 C1114 1.389 . S
C1116 C1117 1.524 . S
C1116 C1130 1.377 . S
C1117 C1116 1.524 . S
C1117 C1118 1.397 . S
C1117 C1122 1.363 . S
C1118 H1095 0.950 . S
C1118 C1117 1.397 . S
C1118 C1119 1.334 . S
C1119 H1096 0.950 . S
C1119 C1118 1.334 . S
C1119 C1120 1.287 . S
C1120 C1119 1.287 . S
C1120 C1121 1.524 . S
C1120 H1139 0.913 . S
C1121 H1097 0.950 . S
C1121 C1120 1.524 . S
C1121 C1122 1.415 . S
C1122 H1098 0.950 . S
C1122 C1117 1.363 . S
C1122 C1121 1.415 . S
C1123 H1099 0.951 . S
C1123 C1124 1.366 . S
C1123 C1125 1.388 . S
C1124 C1123 1.366 . S
C1124 C1128 1.385 . S
C1125 H1100 0.951 . S
C1125 C1123 1.388 . S
C1125 C1126 1.366 . S
C1126 C1125 1.366 . S
C1126 C1127 1.414 . S
C1126 C1129 1.499 . S
C1127 H1101 0.950 . S
C1127 C1126 1.414 . S
C1127 C1128 1.374 . S
C1128 H1102 0.950 . S
C1128 C1124 1.385 . S
C1128 C1127 1.374 . S
C1129 C1126 1.499 . S
C1129 C1130 1.373 . S
C1129 C1131 1.389 . S
C1130 H1103 0.950 . S
C1130 C1116 1.377 . S
C1130 C1129 1.373 . S
C1131 C1115 1.377 . S
C1131 C1129 1.389 . S
C1131 C1132 1.524 . S
C1132 C1131 1.524 . S
C1132 C1133 1.397 . S
C1132 C1137 1.363 . S
C1133 H1104 0.950 . S
C1133 C1132 1.397 . S
C1133 C1134 1.334 . S
C1134 H1105 0.950 . S
C1134 C1133 1.334 . S
C1134 C1135 1.287 . S
C1135 C1134 1.287 . S
C1135 C1136 1.524 . S
C1135 H1138 0.999 . S
C1136 H1106 0.950 . S
C1136 C1135 1.524 . S
C1136 C1137 1.415 . S
C1137 H1107 0.950 . S
C1137 C1132 1.363 . S
C1137 C1136 1.415 . S
H1138 C1135 0.999 . S
H1139 C1120 0.913 . S
H1140 C1158 0.951 . S
H1141 C1160 0.951 . S
H1142 C1162 0.950 . S
H1143 C1163 0.950 . S
H1144 C1165 0.950 . S
H1145 C1168 0.950 . S
H1146 C1169 0.950 . S
H1147 C1171 0.950 . S
H1148 C1172 0.950 . S
H1149 C1173 0.951 . S
H1150 C1175 0.951 . S
H1151 C1177 0.950 . S
H1152 C1178 0.950 . S
H1153 C1180 0.950 . S
H1154 C1183 0.950 . S
H1155 C1184 0.950 . S
H1156 C1186 0.950 . S
H1157 C1187 0.950 . S
C1158 H1140 0.951 . S
C1158 C1159 1.366 . S
C1158 C1160 1.388 . S
C1159 C1158 1.366 . S
C1159 C1163 1.385 . S
C1160 H1141 0.951 . S
C1160 C1158 1.388 . S
C1160 C1161 1.366 . S
C1161 C1160 1.366 . S
C1161 C1162 1.414 . S
C1161 C1164 1.499 . S
C1162 H1142 0.950 . S
C1162 C1161 1.414 . S
C1162 C1163 1.374 . S
C1163 H1143 0.950 . S
C1163 C1159 1.385 . S
C1163 C1162 1.374 . S
C1164 C1161 1.499 . S
C1164 C1165 1.373 . S
C1164 C1166 1.389 . S
C1165 H1144 0.950 . S
C1165 C1164 1.373 . S
C1165 C1181 1.377 . S
C1166 C1164 1.389 . S
C1166 C1167 1.524 . S
C1166 C1180 1.377 . S
C1167 C1166 1.524 . S
C1167 C1168 1.397 . S
C1167 C1172 1.363 . S
C1168 H1145 0.950 . S
C1168 C1167 1.397 . S
C1168 C1169 1.334 . S
C1169 H1146 0.950 . S
C1169 C1168 1.334 . S
C1169 C1170 1.287 . S
C1170 C1169 1.287 . S
C1170 C1171 1.524 . S
C1170 H1189 0.913 . S
C1171 H1147 0.950 . S
C1171 C1170 1.524 . S
C1171 C1172 1.415 . S
C1172 H1148 0.950 . S
C1172 C1167 1.363 . S
C1172 C1171 1.415 . S
C1173 H1149 0.951 . S
C1173 C1174 1.366 . S
C1173 C1175 1.388 . S
C1174 C1173 1.366 . S
C1174 C1178 1.385 . S
C1175 H1150 0.951 . S
C1175 C1173 1.388 . S
C1175 C1176 1.366 . S
C1176 C1175 1.366 . S
C1176 C1177 1.414 . S
C1176 C1179 1.499 . S
C1177 H1151 0.950 . S
C1177 C1176 1.414 . S
C1177 C1178 1.374 . S
C1178 H1152 0.950 . S
C1178 C1174 1.385 . S
C1178 C1177 1.374 . S
C1179 C1176 1.499 . S
C1179 C1180 1.373 . S
C1179 C1181 1.389 . S
C1180 H1153 0.950 . S
C1180 C1166 1.377 . S
C1180 C1179 1.373 . S
C1181 C1165 1.377 . S
C1181 C1179 1.389 . S
C1181 C1182 1.524 . S
C1182 C1181 1.524 . S
C1182 C1183 1.397 . S
C1182 C1187 1.363 . S
C1183 H1154 0.950 . S
C1183 C1182 1.397 . S
C1183 C1184 1.334 . S
C1184 H1155 0.950 . S
C1184 C1183 1.334 . S
C1184 C1185 1.287 . S
C1185 C1184 1.287 . S
C1185 C1186 1.524 . S
C1185 H1188 0.999 . S
C1186 H1156 0.950 . S
C1186 C1185 1.524 . S
C1186 C1187 1.415 . S
C1187 H1157 0.950 . S
C1187 C1182 1.363 . S
C1187 C1186 1.415 . S
H1188 C1185 0.999 . S
H1189 C1170 0.913 . S
H1190 C1208 0.951 . S
H1191 C1210 0.951 . S
H1192 C1212 0.950 . S
H1193 C1213 0.950 . S
H1194 C1215 0.950 . S
H1195 C1218 0.950 . S
H1196 C1219 0.950 . S
H1197 C1221 0.950 . S
H1198 C1222 0.950 . S
H1199 C1223 0.951 . S
H1200 C1225 0.951 . S
H1201 C1227 0.950 . S
H1202 C1228 0.950 . S
H1203 C1230 0.950 . S
H1204 C1233 0.950 . S
H1205 C1234 0.950 . S
H1206 C1236 0.950 . S
H1207 C1237 0.950 . S
C1208 H1190 0.951 . S
C1208 C1209 1.366 . S
C1208 C1210 1.388 . S
C1209 C1208 1.366 . S
C1209 C1213 1.385 . S
C1210 H1191 0.951 . S
C1210 C1208 1.388 . S
C1210 C1211 1.366 . S
C1211 C1210 1.366 . S
C1211 C1212 1.414 . S
C1211 C1214 1.499 . S
C1212 H1192 0.950 . S
C1212 C1211 1.414 . S
C1212 C1213 1.374 . S
C1213 H1193 0.950 . S
C1213 C1209 1.385 . S
C1213 C1212 1.374 . S
C1214 C1211 1.499 . S
C1214 C1215 1.373 . S
C1214 C1216 1.389 . S
C1215 H1194 0.950 . S
C1215 C1214 1.373 . S
C1215 C1231 1.377 . S
C1216 C1214 1.389 . S
C1216 C1217 1.524 . S
C1216 C1230 1.377 . S
C1217 C1216 1.524 . S
C1217 C1218 1.397 . S
C1217 C1222 1.363 . S
C1218 H1195 0.950 . S
C1218 C1217 1.397 . S
C1218 C1219 1.334 . S
C1219 H1196 0.950 . S
C1219 C1218 1.334 . S
C1219 C1220 1.287 . S
C1220 C1219 1.287 . S
C1220 C1221 1.524 . S
C1220 H1239 0.913 . S
C1221 H1197 0.950 . S
C1221 C1220 1.524 . S
C1221 C1222 1.415 . S
C1222 H1198 0.950 . S
C1222 C1217 1.363 . S
C1222 C1221 1.415 . S
C1223 H1199 0.951 . S
C1223 C1224 1.366 . S
C1223 C1225 1.388 . S
C1224 C1223 1.366 . S
C1224 C1228 1.385 . S
C1225 H1200 0.951 . S
C1225 C1223 1.388 . S
C1225 C1226 1.366 . S
C1226 C1225 1.366 . S
C1226 C1227 1.414 . S
C1226 C1229 1.499 . S
C1227 H1201 0.950 . S
C1227 C1226 1.414 . S
C1227 C1228 1.374 . S
C1228 H1202 0.950 . S
C1228 C1224 1.385 . S
C1228 C1227 1.374 . S
C1229 C1226 1.499 . S
C1229 C1230 1.373 . S
C1229 C1231 1.389 . S
C1230 H1203 0.950 . S
C1230 C1216 1.377 . S
C1230 C1229 1.373 . S
C1231 C1215 1.377 . S
C1231 C1229 1.389 . S
C1231 C1232 1.524 . S
C1232 C1231 1.524 . S
C1232 C1233 1.397 . S
C1232 C1237 1.363 . S
C1233 H1204 0.950 . S
C1233 C1232 1.397 . S
C1233 C1234 1.334 . S
C1234 H1205 0.950 . S
C1234 C1233 1.334 . S
C1234 C1235 1.287 . S
C1235 C1234 1.287 . S
C1235 C1236 1.524 . S
C1235 H1238 0.999 . S
C1236 H1206 0.950 . S
C1236 C1235 1.524 . S
C1236 C1237 1.415 . S
C1237 H1207 0.950 . S
C1237 C1232 1.363 . S
C1237 C1236 1.415 . S
H1238 C1235 0.999 . S
H1239 C1220 0.913 . S
H1240 C1258 0.951 . S
H1241 C1260 0.951 . S
H1242 C1262 0.950 . S
H1243 C1263 0.950 . S
H1244 C1265 0.950 . S
H1245 C1268 0.950 . S
H1246 C1269 0.950 . S
H1247 C1271 0.950 . S
H1248 C1272 0.950 1_545 S
H1249 C1273 0.951 . S
H1250 C1275 0.951 . S
H1251 C1277 0.950 . S
H1252 C1278 0.950 . S
H1253 C1280 0.950 . S
H1254 C1283 0.950 . S
H1255 C1284 0.950 . S
H1256 C1286 0.950 . S
H1257 C1287 0.950 . S
C1258 H1240 0.951 . S
C1258 C1259 1.366 . S
C1258 C1260 1.388 . S
C1259 C1258 1.366 . S
C1259 C1263 1.385 . S
C1260 H1241 0.951 . S
C1260 C1258 1.388 . S
C1260 C1261 1.366 . S
C1261 C1260 1.366 . S
C1261 C1262 1.414 . S
C1261 C1264 1.534 . S
C1262 H1242 0.950 . S
C1262 C1261 1.414 . S
C1262 C1263 1.374 . S
C1263 H1243 0.950 . S
C1263 C1259 1.385 . S
C1263 C1262 1.374 . S
C1264 C1261 1.534 . S
C1264 C1265 1.347 1_565 S
C1264 C1266 1.380 1_565 S
C1265 H1244 0.950 . S
C1265 C1264 1.347 1_545 S
C1265 C1281 1.377 . S
C1266 C1264 1.380 1_545 S
C1266 C1267 1.524 1_545 S
C1266 C1280 1.377 . S
C1267 C1266 1.524 1_565 S
C1267 C1268 1.397 . S
C1267 C1272 1.363 . S
C1268 H1245 0.950 . S
C1268 C1267 1.397 . S
C1268 C1269 1.334 . S
C1269 H1246 0.950 . S
C1269 C1268 1.334 . S
C1269 C1270 1.287 . S
C1270 C1269 1.287 . S
C1270 C1271 1.524 . S
C1270 H1289 0.913 . S
C1271 H1247 0.950 . S
C1271 C1270 1.524 . S
C1271 C1272 1.415 . S
C1272 H1248 0.950 1_565 S
C1272 C1267 1.363 . S
C1272 C1271 1.415 . S
C1273 H1249 0.951 . S
C1273 C1274 1.366 . S
C1273 C1275 1.388 . S
C1274 C1273 1.366 . S
C1274 C1278 1.385 . S
C1275 H1250 0.951 . S
C1275 C1273 1.388 . S
C1275 C1276 1.366 . S
C1276 C1275 1.366 . S
C1276 C1277 1.414 . S
C1276 C1279 1.499 . S
C1277 H1251 0.950 . S
C1277 C1276 1.414 . S
C1277 C1278 1.374 . S
C1278 H1252 0.950 . S
C1278 C1274 1.385 . S
C1278 C1277 1.374 . S
C1279 C1276 1.499 . S
C1279 C1280 1.373 . S
C1279 C1281 1.389 . S
C1280 H1253 0.950 . S
C1280 C1266 1.377 . S
C1280 C1279 1.373 . S
C1281 C1265 1.377 . S
C1281 C1279 1.389 . S
C1281 C1282 1.524 . S
C1282 C1281 1.524 . S
C1282 C1283 1.397 . S
C1282 C1287 1.363 . S
C1283 H1254 0.950 . S
C1283 C1282 1.397 . S
C1283 C1284 1.334 . S
C1284 H1255 0.950 . S
C1284 C1283 1.334 . S
C1284 C1285 1.287 . S
C1285 C1284 1.287 . S
C1285 C1286 1.524 . S
C1285 H1288 0.999 . S
C1286 H1256 0.950 . S
C1286 C1285 1.524 . S
C1286 C1287 1.415 . S
C1287 H1257 0.950 . S
C1287 C1282 1.363 . S
C1287 C1286 1.415 . S
H1288 C1285 0.999 . S
H1289 C1270 0.913 . S
H1290 C1308 0.951 . S
H1291 C1310 0.951 . S
H1292 C1312 0.950 . S
H1293 C1313 0.950 . S
H1294 C1315 0.950 . S
H1295 C1318 0.950 . S
H1296 C1319 0.950 . S
H1297 C1321 0.950 . S
H1298 C1322 0.950 . S
H1299 C1323 0.951 . S
H1300 C1325 0.951 . S
H1301 C1327 0.950 . S
H1302 C1328 0.950 . S
H1303 C1330 0.950 . S
H1304 C1333 0.950 . S
H1305 C1334 0.950 . S
H1306 C1336 0.950 . S
H1307 C1337 0.950 . S
C1308 H1290 0.951 . S
C1308 C1309 1.366 . S
C1308 C1310 1.388 . S
C1309 C1308 1.366 . S
C1309 C1313 1.385 . S
C1310 H1291 0.951 . S
C1310 C1308 1.388 . S
C1310 C1311 1.366 . S
C1311 C1310 1.366 . S
C1311 C1312 1.414 . S
C1311 C1314 1.499 . S
C1312 H1292 0.950 . S
C1312 C1311 1.414 . S
C1312 C1313 1.374 . S
C1313 H1293 0.950 . S
C1313 C1309 1.385 . S
C1313 C1312 1.374 . S
C1314 C1311 1.499 . S
C1314 C1315 1.373 . S
C1314 C1316 1.389 . S
C1315 H1294 0.950 . S
C1315 C1314 1.373 . S
C1315 C1331 1.377 . S
C1316 C1314 1.389 . S
C1316 C1317 1.524 . S
C1316 C1330 1.377 . S
C1317 C1316 1.524 . S
C1317 C1318 1.397 . S
C1317 C1322 1.363 . S
C1318 H1295 0.950 . S
C1318 C1317 1.397 . S
C1318 C1319 1.334 . S
C1319 H1296 0.950 . S
C1319 C1318 1.334 . S
C1319 C1320 1.287 . S
C1320 C1319 1.287 . S
C1320 C1321 1.524 . S
C1320 H1339 0.913 . S
C1321 H1297 0.950 . S
C1321 C1320 1.524 . S
C1321 C1322 1.415 . S
C1322 H1298 0.950 . S
C1322 C1317 1.363 . S
C1322 C1321 1.415 . S
C1323 H1299 0.951 . S
C1323 C1324 1.366 . S
C1323 C1325 1.388 . S
C1324 C1323 1.366 . S
C1324 C1328 1.385 . S
C1325 H1300 0.951 . S
C1325 C1323 1.388 . S
C1325 C1326 1.366 . S
C1326 C1325 1.366 . S
C1326 C1327 1.414 . S
C1326 C1329 1.507 . S
C1327 H1301 0.950 . S
C1327 C1326 1.414 . S
C1327 C1328 1.374 . S
C1328 H1302 0.950 . S
C1328 C1324 1.385 . S
C1328 C1327 1.374 . S
C1329 C1326 1.507 . S
C1329 C1330 1.366 1_655 S
C1329 C1331 1.388 1_655 S
C1330 H1303 0.950 . S
C1330 C1316 1.377 . S
C1330 C1329 1.366 1_455 S
C1331 C1315 1.377 . S
C1331 C1329 1.388 1_455 S
C1331 C1332 1.524 1_455 S
C1332 C1331 1.524 1_655 S
C1332 C1333 1.397 . S
C1332 C1337 1.363 . S
C1333 H1304 0.950 . S
C1333 C1332 1.397 . S
C1333 C1334 1.334 . S
C1334 H1305 0.950 . S
C1334 C1333 1.334 . S
C1334 C1335 1.287 . S
C1335 C1334 1.287 . S
C1335 C1336 1.524 . S
C1335 H1338 0.999 . S
C1336 H1306 0.950 . S
C1336 C1335 1.524 . S
C1336 C1337 1.415 . S
C1337 H1307 0.950 . S
C1337 C1332 1.363 . S
C1337 C1336 1.415 . S
H1338 C1335 0.999 . S
H1339 C1320 0.913 . S
H1340 C1358 0.951 . S
H1341 C1360 0.951 . S
H1342 C1362 0.950 . S
H1343 C1363 0.950 . S
H1344 C1365 0.950 . S
H1345 C1368 0.950 . S
H1346 C1369 0.950 . S
H1347 C1371 0.950 . S
H1348 C1372 0.950 . S
H1349 C1373 0.951 . S
H1350 C1375 0.951 . S
H1351 C1377 0.950 . S
H1352 C1378 0.950 . S
H1353 C1380 0.950 . S
H1354 C1383 0.950 . S
H1355 C1384 0.950 . S
H1356 C1386 0.950 . S
H1357 C1387 0.971 . S
C1358 H1340 0.951 . S
C1358 C1359 1.366 . S
C1358 C1360 1.388 . S
C1359 C1358 1.366 . S
C1359 C1363 1.385 . S
C1360 H1341 0.951 . S
C1360 C1358 1.388 . S
C1360 C1361 1.366 . S
C1361 C1360 1.366 . S
C1361 C1362 1.414 . S
C1361 C1364 1.499 . S
C1362 H1342 0.950 . S
C1362 C1361 1.414 . S
C1362 C1363 1.374 . S
C1363 H1343 0.950 . S
C1363 C1359 1.385 . S
C1363 C1362 1.374 . S
C1364 C1361 1.499 . S
C1364 C1365 1.373 . S
C1364 C1366 1.389 . S
C1365 H1344 0.950 . S
C1365 C1364 1.373 . S
C1365 C1381 1.377 . S
C1366 C1364 1.389 . S
C1366 C1367 1.524 . S
C1366 C1380 1.377 . S
C1367 C1366 1.524 . S
C1367 C1368 1.397 . S
C1367 C1372 1.363 . S
C1368 H1345 0.950 . S
C1368 C1367 1.397 . S
C1368 C1369 1.334 . S
C1369 H1346 0.950 . S
C1369 C1368 1.334 . S
C1369 C1370 1.287 . S
C1370 C1369 1.287 . S
C1370 C1371 1.524 . S
C1370 H1389 0.913 . S
C1371 H1347 0.950 . S
C1371 C1370 1.524 . S
C1371 C1372 1.415 . S
C1372 H1348 0.950 . S
C1372 C1367 1.363 . S
C1372 C1371 1.415 . S
C1373 H1349 0.951 . S
C1373 C1374 1.366 . S
C1373 C1375 1.388 . S
C1374 C1373 1.366 . S
C1374 C1378 1.385 . S
C1375 H1350 0.951 . S
C1375 C1373 1.388 . S
C1375 C1376 1.366 . S
C1376 C1375 1.366 . S
C1376 C1377 1.414 . S
C1376 C1379 1.528 . S
C1377 H1351 0.950 . S
C1377 C1376 1.414 . S
C1377 C1378 1.374 . S
C1378 H1352 0.950 . S
C1378 C1374 1.385 . S
C1378 C1377 1.374 . S
C1379 C1376 1.528 . S
C1379 C1380 1.349 1_545 S
C1379 C1381 1.383 1_545 S
C1380 H1353 0.950 . S
C1380 C1366 1.377 . S
C1380 C1379 1.349 1_565 S
C1381 C1365 1.377 . S
C1381 C1379 1.383 1_565 S
C1381 C1382 1.524 1_565 S
C1382 C1381 1.524 1_545 S
C1382 C1383 1.397 . S
C1382 C1387 1.363 . S
C1383 H1354 0.950 . S
C1383 C1382 1.397 . S
C1383 C1384 1.334 . S
C1384 H1355 0.950 . S
C1384 C1383 1.334 . S
C1384 C1385 1.287 . S
C1385 C1384 1.287 . S
C1385 C1386 1.524 . S
C1385 H1388 0.999 . S
C1386 H1356 0.950 . S
C1386 C1385 1.524 . S
C1386 C1387 1.415 . S
C1387 H1357 0.971 . S
C1387 C1382 1.363 . S
C1387 C1386 1.415 . S
H1388 C1385 0.999 . S
H1389 C1370 0.913 . S
H1390 C1408 0.951 . S
H1391 C1410 0.951 . S
H1392 C1412 0.950 . S
H1393 C1413 0.950 . S
H1394 C1415 0.978 . S
H1395 C1418 0.952 . S
H1396 C1419 0.950 . S
H1397 C1421 0.949 1_455 S
H1398 C1422 0.950 . S
H1399 C1423 0.951 . S
H1400 C1425 0.951 . S
H1401 C1427 0.950 . S
H1402 C1428 0.950 . S
H1403 C1430 0.950 . S
H1404 C1433 0.950 . S
H1405 C1434 0.950 . S
H1406 C1436 0.950 . S
H1407 C1437 0.950 . S
C1408 H1390 0.951 . S
C1408 C1409 1.366 . S
C1408 C1410 1.388 . S
C1409 C1408 1.366 . S
C1409 C1413 1.385 . S
C1410 H1391 0.951 . S
C1410 C1408 1.388 . S
C1410 C1411 1.366 . S
C1411 C1410 1.366 . S
C1411 C1412 1.414 . S
C1411 C1414 1.485 1_455 S
C1412 H1392 0.950 . S
C1412 C1411 1.414 . S
C1412 C1413 1.374 . S
C1413 H1393 0.950 . S
C1413 C1409 1.385 . S
C1413 C1412 1.374 . S
C1414 C1411 1.485 1_655 S
C1414 C1415 1.379 . S
C1414 C1416 1.397 . S
C1415 H1394 0.978 . S
C1415 C1414 1.379 . S
C1415 C1431 1.377 . S
C1416 C1414 1.397 . S
C1416 C1417 1.524 . S
C1416 C1430 1.377 . S
C1417 C1416 1.524 . S
C1417 C1418 1.405 . S
C1417 C1422 1.363 . S
C1418 H1395 0.952 . S
C1418 C1417 1.405 . S
C1418 C1419 1.325 1_655 S
C1419 H1396 0.950 . S
C1419 C1418 1.325 1_455 S
C1419 C1420 1.287 . S
C1420 C1419 1.287 . S
C1420 C1421 1.519 1_455 S
C1420 H1439 0.913 . S
C1421 H1397 0.949 1_655 S
C1421 C1420 1.519 1_655 S
C1421 C1422 1.422 . S
C1422 H1398 0.950 . S
C1422 C1417 1.363 . S
C1422 C1421 1.422 . S
C1423 H1399 0.951 . S
C1423 C1424 1.366 . S
C1423 C1425 1.388 . S
C1424 C1423 1.366 . S
C1424 C1428 1.385 . S
C1425 H1400 0.951 . S
C1425 C1423 1.388 . S
C1425 C1426 1.366 . S
C1426 C1425 1.366 . S
C1426 C1427 1.414 . S
C1426 C1429 1.499 . S
C1427 H1401 0.950 . S
C1427 C1426 1.414 . S
C1427 C1428 1.374 . S
C1428 H1402 0.950 . S
C1428 C1424 1.385 . S
C1428 C1427 1.374 . S
C1429 C1426 1.499 . S
C1429 C1430 1.373 . S
C1429 C1431 1.389 . S
C1430 H1403 0.950 . S
C1430 C1416 1.377 . S
C1430 C1429 1.373 . S
C1431 C1415 1.377 . S
C1431 C1429 1.389 . S
C1431 C1432 1.524 . S
C1432 C1431 1.524 . S
C1432 C1433 1.397 . S
C1432 C1437 1.363 . S
C1433 H1404 0.950 . S
C1433 C1432 1.397 . S
C1433 C1434 1.334 . S
C1434 H1405 0.950 . S
C1434 C1433 1.334 . S
C1434 C1435 1.287 . S
C1435 C1434 1.287 . S
C1435 C1436 1.524 . S
C1435 H1438 0.999 . S
C1436 H1406 0.950 . S
C1436 C1435 1.524 . S
C1436 C1437 1.415 . S
C1437 H1407 0.950 . S
C1437 C1432 1.363 . S
C1437 C1436 1.415 . S
H1438 C1435 0.999 . S
H1439 C1420 0.913 . S
H1440 C1458 0.951 . S
H1441 C1460 0.951 . S
H1442 C1462 0.950 . S
H1443 C1463 0.950 . S
H1444 C1465 0.950 . S
H1445 C1468 0.950 . S
H1446 C1469 0.950 . S
H1447 C1471 0.950 . S
H1448 C1472 0.950 . S
H1449 C1473 0.951 . S
H1450 C1475 0.951 . S
H1451 C1477 0.950 . S
H1452 C1478 0.950 . S
H1453 C1480 0.950 . S
H1454 C1483 0.950 . S
H1455 C1484 0.950 . S
H1456 C1486 0.950 . S
H1457 C1487 0.950 . S
C1458 H1440 0.951 . S
C1458 C1459 1.366 . S
C1458 C1460 1.388 . S
C1459 C1458 1.366 . S
C1459 C1463 1.385 . S
C1460 H1441 0.951 . S
C1460 C1458 1.388 . S
C1460 C1461 1.366 . S
C1461 C1460 1.366 . S
C1461 C1462 1.414 . S
C1461 C1464 1.499 . S
C1462 H1442 0.950 . S
C1462 C1461 1.414 . S
C1462 C1463 1.374 . S
C1463 H1443 0.950 . S
C1463 C1459 1.385 . S
C1463 C1462 1.374 . S
C1464 C1461 1.499 . S
C1464 C1465 1.373 . S
C1464 C1466 1.389 . S
C1465 H1444 0.950 . S
C1465 C1464 1.373 . S
C1465 C1481 1.377 . S
C1466 C1464 1.389 . S
C1466 C1467 1.524 . S
C1466 C1480 1.377 . S
C1467 C1466 1.524 . S
C1467 C1468 1.397 . S
C1467 C1472 1.363 . S
C1468 H1445 0.950 . S
C1468 C1467 1.397 . S
C1468 C1469 1.334 1_554 S
C1469 H1446 0.950 . S
C1469 C1468 1.334 1_556 S
C1469 C1470 1.287 . S
C1470 C1469 1.287 . S
C1470 C1471 1.524 . S
C1470 H1489 0.913 . S
C1471 H1447 0.950 . S
C1471 C1470 1.524 . S
C1471 C1472 1.415 1_556 S
C1472 H1448 0.950 . S
C1472 C1467 1.363 . S
C1472 C1471 1.415 1_554 S
C1473 H1449 0.951 . S
C1473 C1474 1.366 . S
C1473 C1475 1.388 . S
C1474 C1473 1.366 . S
C1474 C1478 1.385 . S
C1475 H1450 0.951 . S
C1475 C1473 1.388 . S
C1475 C1476 1.366 . S
C1476 C1475 1.366 . S
C1476 C1477 1.414 . S
C1476 C1479 1.499 . S
C1477 H1451 0.950 . S
C1477 C1476 1.414 . S
C1477 C1478 1.374 . S
C1478 H1452 0.950 . S
C1478 C1474 1.385 . S
C1478 C1477 1.374 . S
C1479 C1476 1.499 . S
C1479 C1480 1.373 . S
C1479 C1481 1.389 . S
C1480 H1453 0.950 . S
C1480 C1466 1.377 . S
C1480 C1479 1.373 . S
C1481 C1465 1.377 . S
C1481 C1479 1.389 . S
C1481 C1482 1.524 . S
C1482 C1481 1.524 . S
C1482 C1483 1.397 . S
C1482 C1487 1.363 . S
C1483 H1454 0.950 . S
C1483 C1482 1.397 . S
C1483 C1484 1.334 . S
C1484 H1455 0.950 . S
C1484 C1483 1.334 . S
C1484 C1485 1.287 . S
C1485 C1484 1.287 . S
C1485 C1486 1.524 . S
C1485 H1488 0.999 . S
C1486 H1456 0.950 . S
C1486 C1485 1.524 . S
C1486 C1487 1.415 . S
C1487 H1457 0.950 . S
C1487 C1482 1.363 . S
C1487 C1486 1.415 . S
H1488 C1485 0.999 . S
H1489 C1470 0.913 . S
H1490 C1508 0.951 . S
H1491 C1510 0.951 . S
H1492 C1512 0.950 . S
H1493 C1513 0.950 . S
H1494 C1515 0.950 . S
H1495 C1518 0.950 . S
H1496 C1519 0.950 . S
H1497 C1521 0.950 . S
H1498 C1522 0.950 . S
H1499 C1523 0.951 . S
H1500 C1525 0.951 . S
H1501 C1527 0.950 . S
H1502 C1528 0.950 . S
H1503 C1530 0.950 . S
H1504 C1533 0.950 . S
H1505 C1534 0.950 . S
H1506 C1536 0.950 . S
H1507 C1537 0.950 . S
C1508 H1490 0.951 . S
C1508 C1509 1.366 . S
C1508 C1510 1.388 . S
C1509 C1508 1.366 . S
C1509 C1513 1.385 . S
C1510 H1491 0.951 . S
C1510 C1508 1.388 . S
C1510 C1511 1.366 . S
C1511 C1510 1.366 . S
C1511 C1512 1.414 . S
C1511 C1514 1.499 . S
C1512 H1492 0.950 . S
C1512 C1511 1.414 . S
C1512 C1513 1.374 . S
C1513 H1493 0.950 . S
C1513 C1509 1.385 . S
C1513 C1512 1.374 . S
C1514 C1511 1.499 . S
C1514 C1515 1.373 . S
C1514 C1516 1.389 . S
C1515 H1494 0.950 . S
C1515 C1514 1.373 . S
C1515 C1531 1.377 . S
C1516 C1514 1.389 . S
C1516 C1517 1.524 . S
C1516 C1530 1.377 . S
C1517 C1516 1.524 . S
C1517 C1518 1.397 . S
C1517 C1522 1.363 . S
C1518 H1495 0.950 . S
C1518 C1517 1.397 . S
C1518 C1519 1.334 . S
C1519 H1496 0.950 . S
C1519 C1518 1.334 . S
C1519 C1520 1.287 . S
C1520 C1519 1.287 . S
C1520 C1521 1.524 . S
C1520 H1539 0.913 . S
C1521 H1497 0.950 . S
C1521 C1520 1.524 . S
C1521 C1522 1.415 . S
C1522 H1498 0.950 . S
C1522 C1517 1.363 . S
C1522 C1521 1.415 . S
C1523 H1499 0.951 . S
C1523 C1524 1.366 . S
C1523 C1525 1.388 . S
C1524 C1523 1.366 . S
C1524 C1528 1.385 . S
C1525 H1500 0.951 . S
C1525 C1523 1.388 . S
C1525 C1526 1.366 . S
C1526 C1525 1.366 . S
C1526 C1527 1.414 . S
C1526 C1529 1.499 . S
C1527 H1501 0.950 . S
C1527 C1526 1.414 . S
C1527 C1528 1.374 . S
C1528 H1502 0.950 . S
C1528 C1524 1.385 . S
C1528 C1527 1.374 . S
C1529 C1526 1.499 . S
C1529 C1530 1.373 . S
C1529 C1531 1.389 . S
C1530 H1503 0.950 . S
C1530 C1516 1.377 . S
C1530 C1529 1.373 . S
C1531 C1515 1.377 . S
C1531 C1529 1.389 . S
C1531 C1532 1.524 . S
C1532 C1531 1.524 . S
C1532 C1533 1.397 . S
C1532 C1537 1.363 . S
C1533 H1504 0.950 . S
C1533 C1532 1.397 . S
C1533 C1534 1.334 . S
C1534 H1505 0.950 . S
C1534 C1533 1.334 . S
C1534 C1535 1.287 . S
C1535 C1534 1.287 . S
C1535 C1536 1.524 . S
C1535 H1538 0.999 . S
C1536 H1506 0.950 . S
C1536 C1535 1.524 . S
C1536 C1537 1.415 . S
C1537 H1507 0.950 . S
C1537 C1532 1.363 . S
C1537 C1536 1.415 . S
H1538 C1535 0.999 . S
H1539 C1520 0.913 . S
H1540 C1558 0.951 . S
H1541 C1560 0.951 . S
H1542 C1562 0.950 . S
H1543 C1563 0.950 . S
H1544 C1565 0.950 . S
H1545 C1568 0.950 . S
H1546 C1569 0.950 . S
H1547 C1571 0.950 . S
H1548 C1572 0.950 . S
H1549 C1573 0.951 . S
H1550 C1575 0.951 . S
H1551 C1577 0.950 . S
H1552 C1578 0.950 . S
H1553 C1580 0.950 . S
H1554 C1583 0.950 . S
H1555 C1584 0.950 . S
H1556 C1586 0.950 . S
H1557 C1587 0.950 . S
C1558 H1540 0.951 . S
C1558 C1559 1.366 . S
C1558 C1560 1.388 . S
C1559 C1558 1.366 . S
C1559 C1563 1.385 . S
C1560 H1541 0.951 . S
C1560 C1558 1.388 . S
C1560 C1561 1.366 . S
C1561 C1560 1.366 . S
C1561 C1562 1.414 . S
C1561 C1564 1.499 . S
C1562 H1542 0.950 . S
C1562 C1561 1.414 . S
C1562 C1563 1.374 . S
C1563 H1543 0.950 . S
C1563 C1559 1.385 . S
C1563 C1562 1.374 . S
C1564 C1561 1.499 . S
C1564 C1565 1.373 . S
C1564 C1566 1.389 . S
C1565 H1544 0.950 . S
C1565 C1564 1.373 . S
C1565 C1581 1.377 . S
C1566 C1564 1.389 . S
C1566 C1567 1.524 . S
C1566 C1580 1.377 . S
C1567 C1566 1.524 . S
C1567 C1568 1.397 . S
C1567 C1572 1.363 . S
C1568 H1545 0.950 . S
C1568 C1567 1.397 . S
C1568 C1569 1.334 1_554 S
C1569 H1546 0.950 . S
C1569 C1568 1.334 1_556 S
C1569 C1570 1.287 . S
C1570 C1569 1.287 . S
C1570 C1571 1.524 . S
C1570 H1589 0.913 . S
C1571 H1547 0.950 . S
C1571 C1570 1.524 . S
C1571 C1572 1.415 1_556 S
C1572 H1548 0.950 . S
C1572 C1567 1.363 . S
C1572 C1571 1.415 1_554 S
C1573 H1549 0.951 . S
C1573 C1574 1.366 . S
C1573 C1575 1.388 . S
C1574 C1573 1.366 . S
C1574 C1578 1.385 . S
C1575 H1550 0.951 . S
C1575 C1573 1.388 . S
C1575 C1576 1.366 . S
C1576 C1575 1.366 . S
C1576 C1577 1.414 . S
C1576 C1579 1.499 . S
C1577 H1551 0.950 . S
C1577 C1576 1.414 . S
C1577 C1578 1.374 . S
C1578 H1552 0.950 . S
C1578 C1574 1.385 . S
C1578 C1577 1.374 . S
C1579 C1576 1.499 . S
C1579 C1580 1.373 . S
C1579 C1581 1.389 . S
C1580 H1553 0.950 . S
C1580 C1566 1.377 . S
C1580 C1579 1.373 . S
C1581 C1565 1.377 . S
C1581 C1579 1.389 . S
C1581 C1582 1.524 . S
C1582 C1581 1.524 . S
C1582 C1583 1.397 . S
C1582 C1587 1.363 . S
C1583 H1554 0.950 . S
C1583 C1582 1.397 . S
C1583 C1584 1.334 . S
C1584 H1555 0.950 . S
C1584 C1583 1.334 . S
C1584 C1585 1.287 . S
C1585 C1584 1.287 . S
C1585 C1586 1.524 . S
C1585 H1588 0.999 . S
C1586 H1556 0.950 . S
C1586 C1585 1.524 . S
C1586 C1587 1.415 . S
C1587 H1557 0.950 . S
C1587 C1582 1.363 . S
C1587 C1586 1.415 . S
H1588 C1585 0.999 . S
H1589 C1570 0.913 . S
H1590 C1608 0.951 . S
H1591 C1610 0.951 . S
H1592 C1612 0.950 . S
H1593 C1613 0.950 . S
H1594 C1615 0.950 . S
H1595 C1618 0.950 . S
H1596 C1619 0.950 . S
H1597 C1621 0.950 . S
H1598 C1622 0.950 . S
H1599 C1623 0.951 . S
H1600 C1625 0.951 . S
H1601 C1627 0.950 . S
H1602 C1628 0.950 . S
H1603 C1630 0.950 . S
H1604 C1633 0.950 . S
H1605 C1634 0.950 . S
H1606 C1636 0.950 . S
H1607 C1637 0.950 . S
C1608 H1590 0.951 . S
C1608 C1609 1.366 . S
C1608 C1610 1.388 . S
C1609 C1608 1.366 . S
C1609 C1613 1.385 . S
C1610 H1591 0.951 . S
C1610 C1608 1.388 . S
C1610 C1611 1.366 . S
C1611 C1610 1.366 . S
C1611 C1612 1.414 . S
C1611 C1614 1.499 . S
C1612 H1592 0.950 . S
C1612 C1611 1.414 . S
C1612 C1613 1.374 . S
C1613 H1593 0.950 . S
C1613 C1609 1.385 . S
C1613 C1612 1.374 . S
C1614 C1611 1.499 . S
C1614 C1615 1.373 . S
C1614 C1616 1.389 . S
C1615 H1594 0.950 . S
C1615 C1614 1.373 . S
C1615 C1631 1.377 . S
C1616 C1614 1.389 . S
C1616 C1617 1.524 . S
C1616 C1630 1.377 . S
C1617 C1616 1.524 . S
C1617 C1618 1.397 . S
C1617 C1622 1.363 . S
C1618 H1595 0.950 . S
C1618 C1617 1.397 . S
C1618 C1619 1.334 . S
C1619 H1596 0.950 . S
C1619 C1618 1.334 . S
C1619 C1620 1.287 . S
C1620 C1619 1.287 . S
C1620 C1621 1.524 1_556 S
C1620 H1639 0.913 . S
C1621 H1597 0.950 . S
C1621 C1620 1.524 1_554 S
C1621 C1622 1.415 1_554 S
C1622 H1598 0.950 . S
C1622 C1617 1.363 . S
C1622 C1621 1.415 1_556 S
C1623 H1599 0.951 . S
C1623 C1624 1.366 . S
C1623 C1625 1.388 . S
C1624 C1623 1.366 . S
C1624 C1628 1.385 . S
C1625 H1600 0.951 . S
C1625 C1623 1.388 . S
C1625 C1626 1.366 . S
C1626 C1625 1.366 . S
C1626 C1627 1.414 . S
C1626 C1629 1.499 . S
C1627 H1601 0.950 . S
C1627 C1626 1.414 . S
C1627 C1628 1.374 . S
C1628 H1602 0.950 . S
C1628 C1624 1.385 . S
C1628 C1627 1.374 . S
C1629 C1626 1.499 . S
C1629 C1630 1.373 . S
C1629 C1631 1.389 . S
C1630 H1603 0.950 . S
C1630 C1616 1.377 . S
C1630 C1629 1.373 . S
C1631 C1615 1.377 . S
C1631 C1629 1.389 . S
C1631 C1632 1.524 . S
C1632 C1631 1.524 . S
C1632 C1633 1.397 . S
C1632 C1637 1.363 . S
C1633 H1604 0.950 . S
C1633 C1632 1.397 . S
C1633 C1634 1.334 . S
C1634 H1605 0.950 . S
C1634 C1633 1.334 . S
C1634 C1635 1.287 . S
C1635 C1634 1.287 . S
C1635 C1636 1.524 . S
C1635 H1638 0.999 . S
C1636 H1606 0.950 . S
C1636 C1635 1.524 . S
C1636 C1637 1.415 . S
C1637 H1607 0.950 . S
C1637 C1632 1.363 . S
C1637 C1636 1.415 . S
H1638 C1635 0.999 . S
H1639 C1620 0.913 . S
H1640 C1658 0.951 . S
H1641 C1660 0.951 . S
H1642 C1662 0.950 . S
H1643 C1663 0.950 . S
H1644 C1665 0.950 . S
H1645 C1668 0.950 . S
H1646 C1669 0.950 . S
H1647 C1671 0.950 . S
H1648 C1672 0.950 . S
H1649 C1673 0.951 . S
H1650 C1675 0.951 . S
H1651 C1677 0.950 . S
H1652 C1678 0.950 . S
H1653 C1680 0.950 . S
H1654 C1683 0.950 . S
H1655 C1684 0.950 . S
H1656 C1686 0.950 . S
H1657 C1687 0.950 . S
C1658 H1640 0.951 . S
C1658 C1659 1.366 . S
C1658 C1660 1.388 . S
C1659 C1658 1.366 . S
C1659 C1663 1.385 . S
C1660 H1641 0.951 . S
C1660 C1658 1.388 . S
C1660 C1661 1.366 . S
C1661 C1660 1.366 . S
C1661 C1662 1.414 . S
C1661 C1664 1.499 . S
C1662 H1642 0.950 . S
C1662 C1661 1.414 . S
C1662 C1663 1.374 . S
C1663 H1643 0.950 . S
C1663 C1659 1.385 . S
C1663 C1662 1.374 . S
C1664 C1661 1.499 . S
C1664 C1665 1.373 . S
C1664 C1666 1.389 . S
C1665 H1644 0.950 . S
C1665 C1664 1.373 . S
C1665 C1681 1.377 . S
C1666 C1664 1.389 . S
C1666 C1667 1.524 . S
C1666 C1680 1.377 . S
C1667 C1666 1.524 . S
C1667 C1668 1.397 . S
C1667 C1672 1.363 . S
C1668 H1645 0.950 . S
C1668 C1667 1.397 . S
C1668 C1669 1.334 . S
C1669 H1646 0.950 . S
C1669 C1668 1.334 . S
C1669 C1670 1.287 . S
C1670 C1669 1.287 . S
C1670 C1671 1.524 . S
C1670 H1689 0.913 . S
C1671 H1647 0.950 . S
C1671 C1670 1.524 . S
C1671 C1672 1.415 . S
C1672 H1648 0.950 . S
C1672 C1667 1.363 . S
C1672 C1671 1.415 . S
C1673 H1649 0.951 . S
C1673 C1674 1.366 . S
C1673 C1675 1.388 . S
C1674 C1673 1.366 . S
C1674 C1678 1.385 . S
C1675 H1650 0.951 . S
C1675 C1673 1.388 . S
C1675 C1676 1.366 . S
C1676 C1675 1.366 . S
C1676 C1677 1.414 . S
C1676 C1679 1.499 . S
C1677 H1651 0.950 . S
C1677 C1676 1.414 . S
C1677 C1678 1.374 . S
C1678 H1652 0.950 . S
C1678 C1674 1.385 . S
C1678 C1677 1.374 . S
C1679 C1676 1.499 . S
C1679 C1680 1.373 . S
C1679 C1681 1.389 . S
C1680 H1653 0.950 . S
C1680 C1666 1.377 . S
C1680 C1679 1.373 . S
C1681 C1665 1.377 . S
C1681 C1679 1.389 . S
C1681 C1682 1.524 . S
C1682 C1681 1.524 . S
C1682 C1683 1.397 . S
C1682 C1687 1.363 . S
C1683 H1654 0.950 . S
C1683 C1682 1.397 . S
C1683 C1684 1.334 . S
C1684 H1655 0.950 . S
C1684 C1683 1.334 . S
C1684 C1685 1.287 . S
C1685 C1684 1.287 . S
C1685 C1686 1.524 . S
C1685 H1688 0.999 . S
C1686 H1656 0.950 . S
C1686 C1685 1.524 . S
C1686 C1687 1.415 . S
C1687 H1657 0.950 . S
C1687 C1682 1.363 . S
C1687 C1686 1.415 . S
H1688 C1685 0.999 . S
H1689 C1670 0.913 . S
H1690 C1708 0.951 . S
H1691 C1710 0.951 . S
H1692 C1712 0.950 . S
H1693 C1713 0.950 . S
H1694 C1715 0.950 . S
H1695 C1718 0.950 . S
H1696 C1719 0.950 . S
H1697 C1721 0.950 . S
H1698 C1722 0.950 . S
H1699 C1723 0.951 . S
H1700 C1725 0.951 . S
H1701 C1727 0.950 . S
H1702 C1728 0.950 . S
H1703 C1730 0.950 . S
H1704 C1733 0.950 . S
H1705 C1734 0.950 . S
H1706 C1736 0.950 . S
H1707 C1737 0.950 . S
C1708 H1690 0.951 . S
C1708 C1709 1.366 . S
C1708 C1710 1.388 . S
C1709 C1708 1.366 . S
C1709 C1713 1.385 . S
C1710 H1691 0.951 . S
C1710 C1708 1.388 . S
C1710 C1711 1.366 . S
C1711 C1710 1.366 . S
C1711 C1712 1.414 . S
C1711 C1714 1.499 . S
C1712 H1692 0.950 . S
C1712 C1711 1.414 . S
C1712 C1713 1.374 . S
C1713 H1693 0.950 . S
C1713 C1709 1.385 . S
C1713 C1712 1.374 . S
C1714 C1711 1.499 . S
C1714 C1715 1.373 . S
C1714 C1716 1.389 . S
C1715 H1694 0.950 . S
C1715 C1714 1.373 . S
C1715 C1731 1.377 . S
C1716 C1714 1.389 . S
C1716 C1717 1.524 . S
C1716 C1730 1.377 . S
C1717 C1716 1.524 . S
C1717 C1718 1.397 . S
C1717 C1722 1.363 . S
C1718 H1695 0.950 . S
C1718 C1717 1.397 . S
C1718 C1719 1.334 . S
C1719 H1696 0.950 . S
C1719 C1718 1.334 . S
C1719 C1720 1.287 . S
C1720 C1719 1.287 . S
C1720 C1721 1.524 . S
C1720 H1739 0.913 . S
C1721 H1697 0.950 . S
C1721 C1720 1.524 . S
C1721 C1722 1.415 . S
C1722 H1698 0.950 . S
C1722 C1717 1.363 . S
C1722 C1721 1.415 . S
C1723 H1699 0.951 . S
C1723 C1724 1.366 . S
C1723 C1725 1.388 . S
C1724 C1723 1.366 . S
C1724 C1728 1.385 . S
C1725 H1700 0.951 . S
C1725 C1723 1.388 . S
C1725 C1726 1.366 . S
C1726 C1725 1.366 . S
C1726 C1727 1.414 . S
C1726 C1729 1.499 . S
C1727 H1701 0.950 . S
C1727 C1726 1.414 . S
C1727 C1728 1.374 . S
C1728 H1702 0.950 . S
C1728 C1724 1.385 . S
C1728 C1727 1.374 . S
C1729 C1726 1.499 . S
C1729 C1730 1.373 . S
C1729 C1731 1.389 . S
C1730 H1703 0.950 . S
C1730 C1716 1.377 . S
C1730 C1729 1.373 . S
C1731 C1715 1.377 . S
C1731 C1729 1.389 . S
C1731 C1732 1.524 . S
C1732 C1731 1.524 . S
C1732 C1733 1.397 . S
C1732 C1737 1.363 . S
C1733 H1704 0.950 . S
C1733 C1732 1.397 . S
C1733 C1734 1.334 . S
C1734 H1705 0.950 . S
C1734 C1733 1.334 . S
C1734 C1735 1.287 . S
C1735 C1734 1.287 . S
C1735 C1736 1.524 . S
C1735 H1738 0.999 . S
C1736 H1706 0.950 . S
C1736 C1735 1.524 . S
C1736 C1737 1.415 . S
C1737 H1707 0.950 . S
C1737 C1732 1.363 . S
C1737 C1736 1.415 . S
H1738 C1735 0.999 . S
H1739 C1720 0.913 . S
H1740 C1758 0.951 . S
H1741 C1760 0.951 . S
H1742 C1762 0.950 . S
H1743 C1763 0.950 . S
H1744 C1765 0.950 . S
H1745 C1768 0.950 . S
H1746 C1769 0.950 . S
H1747 C1771 0.950 . S
H1748 C1772 0.950 . S
H1749 C1773 0.951 . S
H1750 C1775 0.951 . S
H1751 C1777 0.950 . S
H1752 C1778 0.950 . S
H1753 C1780 0.950 . S
H1754 C1783 0.950 . S
H1755 C1784 0.950 . S
H1756 C1786 0.950 . S
H1757 C1787 0.950 . S
C1758 H1740 0.951 . S
C1758 C1759 1.366 . S
C1758 C1760 1.388 . S
C1759 C1758 1.366 . S
C1759 C1763 1.385 . S
C1760 H1741 0.951 . S
C1760 C1758 1.388 . S
C1760 C1761 1.366 . S
C1761 C1760 1.366 . S
C1761 C1762 1.414 . S
C1761 C1764 1.499 . S
C1762 H1742 0.950 . S
C1762 C1761 1.414 . S
C1762 C1763 1.374 . S
C1763 H1743 0.950 . S
C1763 C1759 1.385 . S
C1763 C1762 1.374 . S
C1764 C1761 1.499 . S
C1764 C1765 1.373 . S
C1764 C1766 1.389 . S
C1765 H1744 0.950 . S
C1765 C1764 1.373 . S
C1765 C1781 1.377 . S
C1766 C1764 1.389 . S
C1766 C1767 1.524 . S
C1766 C1780 1.377 . S
C1767 C1766 1.524 . S
C1767 C1768 1.397 . S
C1767 C1772 1.363 . S
C1768 H1745 0.950 . S
C1768 C1767 1.397 . S
C1768 C1769 1.334 . S
C1769 H1746 0.950 . S
C1769 C1768 1.334 . S
C1769 C1770 1.287 . S
C1770 C1769 1.287 . S
C1770 C1771 1.524 . S
C1770 H1789 0.913 . S
C1771 H1747 0.950 . S
C1771 C1770 1.524 . S
C1771 C1772 1.415 . S
C1772 H1748 0.950 . S
C1772 C1767 1.363 . S
C1772 C1771 1.415 . S
C1773 H1749 0.951 . S
C1773 C1774 1.366 . S
C1773 C1775 1.388 . S
C1774 C1773 1.366 . S
C1774 C1778 1.385 . S
C1775 H1750 0.951 . S
C1775 C1773 1.388 . S
C1775 C1776 1.366 . S
C1776 C1775 1.366 . S
C1776 C1777 1.414 . S
C1776 C1779 1.499 . S
C1777 H1751 0.950 . S
C1777 C1776 1.414 . S
C1777 C1778 1.374 . S
C1778 H1752 0.950 . S
C1778 C1774 1.385 . S
C1778 C1777 1.374 . S
C1779 C1776 1.499 . S
C1779 C1780 1.373 . S
C1779 C1781 1.389 . S
C1780 H1753 0.950 . S
C1780 C1766 1.377 . S
C1780 C1779 1.373 . S
C1781 C1765 1.377 . S
C1781 C1779 1.389 . S
C1781 C1782 1.524 . S
C1782 C1781 1.524 . S
C1782 C1783 1.397 . S
C1782 C1787 1.363 . S
C1783 H1754 0.950 . S
C1783 C1782 1.397 . S
C1783 C1784 1.334 . S
C1784 H1755 0.950 . S
C1784 C1783 1.334 . S
C1784 C1785 1.287 . S
C1785 C1784 1.287 . S
C1785 C1786 1.524 . S
C1785 H1788 0.999 . S
C1786 H1756 0.950 . S
C1786 C1785 1.524 . S
C1786 C1787 1.415 . S
C1787 H1757 0.950 . S
C1787 C1782 1.363 . S
C1787 C1786 1.415 . S
H1788 C1785 0.999 . S
H1789 C1770 0.913 . S
H1790 C1808 0.951 . S
H1791 C1810 0.951 . S
H1792 C1812 0.950 . S
H1793 C1813 0.950 . S
H1794 C1815 0.950 . S
H1795 C1818 0.950 . S
H1796 C1819 0.950 . S
H1797 C1821 0.950 . S
H1798 C1822 0.950 . S
H1799 C1823 0.951 . S
H1800 C1825 0.951 . S
H1801 C1827 0.950 . S
H1802 C1828 0.950 . S
H1803 C1830 0.950 . S
H1804 C1833 0.950 . S
H1805 C1834 0.950 . S
H1806 C1836 0.950 . S
H1807 C1837 0.950 . S
C1808 H1790 0.951 . S
C1808 C1809 1.366 . S
C1808 C1810 1.388 . S
C1809 C1808 1.366 . S
C1809 C1813 1.385 . S
C1810 H1791 0.951 . S
C1810 C1808 1.388 . S
C1810 C1811 1.366 . S
C1811 C1810 1.366 . S
C1811 C1812 1.414 . S
C1811 C1814 1.499 . S
C1812 H1792 0.950 . S
C1812 C1811 1.414 . S
C1812 C1813 1.374 . S
C1813 H1793 0.950 . S
C1813 C1809 1.385 . S
C1813 C1812 1.374 . S
C1814 C1811 1.499 . S
C1814 C1815 1.373 . S
C1814 C1816 1.389 . S
C1815 H1794 0.950 . S
C1815 C1814 1.373 . S
C1815 C1831 1.377 . S
C1816 C1814 1.389 . S
C1816 C1817 1.524 . S
C1816 C1830 1.377 . S
C1817 C1816 1.524 . S
C1817 C1818 1.397 . S
C1817 C1822 1.363 . S
C1818 H1795 0.950 . S
C1818 C1817 1.397 . S
C1818 C1819 1.334 . S
C1819 H1796 0.950 . S
C1819 C1818 1.334 . S
C1819 C1820 1.287 . S
C1820 C1819 1.287 . S
C1820 C1821 1.524 . S
C1820 H1839 0.913 . S
C1821 H1797 0.950 . S
C1821 C1820 1.524 . S
C1821 C1822 1.415 . S
C1822 H1798 0.950 . S
C1822 C1817 1.363 . S
C1822 C1821 1.415 . S
C1823 H1799 0.951 . S
C1823 C1824 1.366 . S
C1823 C1825 1.388 . S
C1824 C1823 1.366 . S
C1824 C1828 1.385 . S
C1825 H1800 0.951 . S
C1825 C1823 1.388 . S
C1825 C1826 1.366 . S
C1826 C1825 1.366 . S
C1826 C1827 1.414 . S
C1826 C1829 1.499 . S
C1827 H1801 0.950 . S
C1827 C1826 1.414 . S
C1827 C1828 1.374 . S
C1828 H1802 0.950 . S
C1828 C1824 1.385 . S
C1828 C1827 1.374 . S
C1829 C1826 1.499 . S
C1829 C1830 1.373 . S
C1829 C1831 1.389 . S
C1830 H1803 0.950 . S
C1830 C1816 1.377 . S
C1830 C1829 1.373 . S
C1831 C1815 1.377 . S
C1831 C1829 1.389 . S
C1831 C1832 1.524 . S
C1832 C1831 1.524 . S
C1832 C1833 1.397 . S
C1832 C1837 1.363 . S
C1833 H1804 0.950 . S
C1833 C1832 1.397 . S
C1833 C1834 1.334 . S
C1834 H1805 0.950 . S
C1834 C1833 1.334 . S
C1834 C1835 1.287 . S
C1835 C1834 1.287 . S
C1835 C1836 1.524 . S
C1835 H1838 0.999 . S
C1836 H1806 0.950 . S
C1836 C1835 1.524 . S
C1836 C1837 1.415 . S
C1837 H1807 0.950 . S
C1837 C1832 1.363 . S
C1837 C1836 1.415 . S
H1838 C1835 0.999 . S
H1839 C1820 0.913 . S
H1840 C1858 0.951 . S
H1841 C1860 0.951 . S
H1842 C1862 0.950 . S
H1843 C1863 0.950 . S
H1844 C1865 0.950 . S
H1845 C1868 0.950 . S
H1846 C1869 0.950 . S
H1847 C1871 0.950 . S
H1848 C1872 0.950 . S
H1849 C1873 0.951 . S
H1850 C1875 0.951 . S
H1851 C1877 0.950 . S
H1852 C1878 0.950 . S
H1853 C1880 0.950 . S
H1854 C1883 0.950 . S
H1855 C1884 0.950 . S
H1856 C1886 0.950 1_554 S
H1857 C1887 0.950 . S
C1858 H1840 0.951 . S
C1858 C1859 1.366 . S
C1858 C1860 1.388 . S
C1859 C1858 1.366 . S
C1859 C1863 1.385 . S
C1860 H1841 0.951 . S
C1860 C1858 1.388 . S
C1860 C1861 1.366 . S
C1861 C1860 1.366 . S
C1861 C1862 1.414 . S
C1861 C1864 1.499 . S
C1862 H1842 0.950 . S
C1862 C1861 1.414 . S
C1862 C1863 1.374 . S
C1863 H1843 0.950 . S
C1863 C1859 1.385 . S
C1863 C1862 1.374 . S
C1864 C1861 1.499 . S
C1864 C1865 1.373 . S
C1864 C1866 1.389 . S
C1865 H1844 0.950 . S
C1865 C1864 1.373 . S
C1865 C1881 1.377 . S
C1866 C1864 1.389 . S
C1866 C1867 1.524 . S
C1866 C1880 1.377 . S
C1867 C1866 1.524 . S
C1867 C1868 1.397 . S
C1867 C1872 1.363 . S
C1868 H1845 0.950 . S
C1868 C1867 1.397 . S
C1868 C1869 1.334 . S
C1869 H1846 0.950 . S
C1869 C1868 1.334 . S
C1869 C1870 1.287 . S
C1870 C1869 1.287 . S
C1870 C1871 1.524 . S
C1870 H1889 0.913 . S
C1871 H1847 0.950 . S
C1871 C1870 1.524 . S
C1871 C1872 1.415 . S
C1872 H1848 0.950 . S
C1872 C1867 1.363 . S
C1872 C1871 1.415 . S
C1873 H1849 0.951 . S
C1873 C1874 1.366 . S
C1873 C1875 1.388 1_554 S
C1874 C1873 1.366 . S
C1874 C1878 1.385 1_554 S
C1875 H1850 0.951 . S
C1875 C1873 1.388 1_556 S
C1875 C1876 1.366 . S
C1876 C1875 1.366 . S
C1876 C1877 1.414 . S
C1876 C1879 1.499 . S
C1877 H1851 0.950 . S
C1877 C1876 1.414 . S
C1877 C1878 1.374 . S
C1878 H1852 0.950 . S
C1878 C1874 1.385 1_556 S
C1878 C1877 1.374 . S
C1879 C1876 1.499 . S
C1879 C1880 1.373 . S
C1879 C1881 1.389 . S
C1880 H1853 0.950 . S
C1880 C1866 1.377 . S
C1880 C1879 1.373 . S
C1881 C1865 1.377 . S
C1881 C1879 1.389 . S
C1881 C1882 1.524 . S
C1882 C1881 1.524 . S
C1882 C1883 1.397 . S
C1882 C1887 1.363 . S
C1883 H1854 0.950 . S
C1883 C1882 1.397 . S
C1883 C1884 1.334 . S
C1884 H1855 0.950 . S
C1884 C1883 1.334 . S
C1884 C1885 1.287 1_556 S
C1885 C1884 1.287 1_554 S
C1885 C1886 1.524 1_554 S
C1885 H1888 0.999 . S
C1886 H1856 0.950 1_556 S
C1886 C1885 1.524 1_556 S
C1886 C1887 1.415 . S
C1887 H1857 0.950 . S
C1887 C1882 1.363 . S
C1887 C1886 1.415 . S
H1888 C1885 0.999 . S
H1889 C1870 0.913 . S
H1890 C1908 0.951 . S
H1891 C1910 0.951 . S
H1892 C1912 0.950 . S
H1893 C1913 0.950 . S
H1894 C1915 0.950 . S
H1895 C1918 0.950 . S
H1896 C1919 0.950 . S
H1897 C1921 0.950 . S
H1898 C1922 0.950 . S
H1899 C1923 0.951 . S
H1900 C1925 0.951 . S
H1901 C1927 0.950 . S
H1902 C1928 0.950 . S
H1903 C1930 0.950 . S
H1904 C1933 0.950 . S
H1905 C1934 0.950 . S
H1906 C1936 0.950 . S
H1907 C1937 0.950 . S
C1908 H1890 0.951 . S
C1908 C1909 1.366 . S
C1908 C1910 1.388 1_556 S
C1909 C1908 1.366 . S
C1909 C1913 1.385 1_556 S
C1910 H1891 0.951 . S
C1910 C1908 1.388 1_554 S
C1910 C1911 1.366 . S
C1911 C1910 1.366 . S
C1911 C1912 1.414 . S
C1911 C1914 1.499 . S
C1912 H1892 0.950 . S
C1912 C1911 1.414 . S
C1912 C1913 1.374 . S
C1913 H1893 0.950 . S
C1913 C1909 1.385 1_554 S
C1913 C1912 1.374 . S
C1914 C1911 1.499 . S
C1914 C1915 1.373 . S
C1914 C1916 1.389 . S
C1915 H1894 0.950 . S
C1915 C1914 1.373 . S
C1915 C1931 1.377 . S
C1916 C1914 1.389 . S
C1916 C1917 1.524 . S
C1916 C1930 1.377 . S
C1917 C1916 1.524 . S
C1917 C1918 1.397 . S
C1917 C1922 1.363 . S
C1918 H1895 0.950 . S
C1918 C1917 1.397 . S
C1918 C1919 1.334 1_554 S
C1919 H1896 0.950 . S
C1919 C1918 1.334 1_556 S
C1919 C1920 1.287 . S
C1920 C1919 1.287 . S
C1920 C1921 1.524 . S
C1920 H1939 0.913 . S
C1921 H1897 0.950 . S
C1921 C1920 1.524 . S
C1921 C1922 1.415 1_556 S
C1922 H1898 0.950 . S
C1922 C1917 1.363 . S
C1922 C1921 1.415 1_554 S
C1923 H1899 0.951 . S
C1923 C1924 1.366 . S
C1923 C1925 1.388 . S
C1924 C1923 1.366 . S
C1924 C1928 1.385 . S
C1925 H1900 0.951 . S
C1925 C1923 1.388 . S
C1925 C1926 1.366 . S
C1926 C1925 1.366 . S
C1926 C1927 1.414 . S
C1926 C1929 1.499 . S
C1927 H1901 0.950 . S
C1927 C1926 1.414 . S
C1927 C1928 1.374 . S
C1928 H1902 0.950 . S
C1928 C1924 1.385 . S
C1928 C1927 1.374 . S
C1929 C1926 1.499 . S
C1929 C1930 1.373 . S
C1929 C1931 1.389 . S
C1930 H1903 0.950 . S
C1930 C1916 1.377 . S
C1930 C1929 1.373 . S
C1931 C1915 1.377 . S
C1931 C1929 1.389 . S
C1931 C1932 1.524 . S
C1932 C1931 1.524 . S
C1932 C1933 1.397 . S
C1932 C1937 1.363 . S
C1933 H1904 0.950 . S
C1933 C1932 1.397 . S
C1933 C1934 1.334 . S
C1934 H1905 0.950 . S
C1934 C1933 1.334 . S
C1934 C1935 1.287 . S
C1935 C1934 1.287 . S
C1935 C1936 1.524 . S
C1935 H1938 0.999 . S
C1936 H1906 0.950 . S
C1936 C1935 1.524 . S
C1936 C1937 1.415 . S
C1937 H1907 0.950 . S
C1937 C1932 1.363 . S
C1937 C1936 1.415 . S
H1938 C1935 0.999 . S
H1939 C1920 0.913 . S
H1940 C1958 0.951 . S
H1941 C1960 0.951 . S
H1942 C1962 0.950 . S
H1943 C1963 0.950 . S
H1944 C1965 0.950 . S
H1945 C1968 0.950 . S
H1946 C1969 0.950 . S
H1947 C1971 0.950 1_554 S
H1948 C1972 0.950 . S
H1949 C1973 0.951 . S
H1950 C1975 0.951 . S
H1951 C1977 0.950 . S
H1952 C1978 0.950 . S
H1953 C1980 0.950 . S
H1954 C1983 0.950 . S
H1955 C1984 0.950 . S
H1956 C1986 0.950 . S
H1957 C1987 0.950 . S
C1958 H1940 0.951 . S
C1958 C1959 1.366 . S
C1958 C1960 1.388 1_554 S
C1959 C1958 1.366 . S
C1959 C1963 1.385 1_554 S
C1960 H1941 0.951 . S
C1960 C1958 1.388 1_556 S
C1960 C1961 1.366 . S
C1961 C1960 1.366 . S
C1961 C1962 1.414 . S
C1961 C1964 1.499 . S
C1962 H1942 0.950 . S
C1962 C1961 1.414 . S
C1962 C1963 1.374 . S
C1963 H1943 0.950 . S
C1963 C1959 1.385 1_556 S
C1963 C1962 1.374 . S
C1964 C1961 1.499 . S
C1964 C1965 1.373 . S
C1964 C1966 1.389 . S
C1965 H1944 0.950 . S
C1965 C1964 1.373 . S
C1965 C1981 1.377 . S
C1966 C1964 1.389 . S
C1966 C1967 1.524 . S
C1966 C1980 1.377 . S
C1967 C1966 1.524 . S
C1967 C1968 1.397 . S
C1967 C1972 1.363 . S
C1968 H1945 0.950 . S
C1968 C1967 1.397 . S
C1968 C1969 1.334 . S
C1969 H1946 0.950 . S
C1969 C1968 1.334 . S
C1969 C1970 1.287 . S
C1970 C1969 1.287 . S
C1970 C1971 1.524 . S
C1970 H1989 0.913 1_556 S
C1971 H1947 0.950 1_556 S
C1971 C1970 1.524 . S
C1971 C1972 1.415 . S
C1972 H1948 0.950 . S
C1972 C1967 1.363 . S
C1972 C1971 1.415 . S
C1973 H1949 0.951 . S
C1973 C1974 1.366 . S
C1973 C1975 1.388 . S
C1974 C1973 1.366 . S
C1974 C1978 1.385 . S
C1975 H1950 0.951 . S
C1975 C1973 1.388 . S
C1975 C1976 1.366 . S
C1976 C1975 1.366 . S
C1976 C1977 1.414 . S
C1976 C1979 1.499 . S
C1977 H1951 0.950 . S
C1977 C1976 1.414 . S
C1977 C1978 1.374 . S
C1978 H1952 0.950 . S
C1978 C1974 1.385 . S
C1978 C1977 1.374 . S
C1979 C1976 1.499 . S
C1979 C1980 1.373 . S
C1979 C1981 1.389 . S
C1980 H1953 0.950 . S
C1980 C1966 1.377 . S
C1980 C1979 1.373 . S
C1981 C1965 1.377 . S
C1981 C1979 1.389 . S
C1981 C1982 1.524 . S
C1982 C1981 1.524 . S
C1982 C1983 1.397 . S
C1982 C1987 1.363 . S
C1983 H1954 0.950 . S
C1983 C1982 1.397 . S
C1983 C1984 1.334 . S
C1984 H1955 0.950 . S
C1984 C1983 1.334 . S
C1984 C1985 1.287 . S
C1985 C1984 1.287 . S
C1985 C1986 1.524 . S
C1985 H1988 0.999 . S
C1986 H1956 0.950 . S
C1986 C1985 1.524 . S
C1986 C1987 1.415 . S
C1987 H1957 0.950 . S
C1987 C1982 1.363 . S
C1987 C1986 1.415 . S
H1988 C1985 0.999 . S
H1989 C1970 0.913 1_554 S
H1990 C2008 0.951 . S
H1991 C2010 0.951 . S
H1992 C2012 0.950 . S
H1993 C2013 0.950 . S
H1994 C2015 0.950 . S
H1995 C2018 0.950 . S
H1996 C2019 0.950 . S
H1997 C2021 0.950 . S
H1998 C2022 0.950 . S
H1999 C2023 0.951 . S
H2000 C2025 0.951 . S
H2001 C2027 0.950 . S
H2002 C2028 0.950 . S
H2003 C2030 0.950 . S
H2004 C2033 0.950 . S
H2005 C2034 0.950 . S
H2006 C2036 0.950 . S
H2007 C2037 0.950 . S
C2008 H1990 0.951 . S
C2008 C2009 1.366 1_554 S
C2008 C2010 1.388 . S
C2009 C2008 1.366 1_556 S
C2009 C2013 1.385 . S
C2010 H1991 0.951 . S
C2010 C2008 1.388 . S
C2010 C2011 1.366 . S
C2011 C2010 1.366 . S
C2011 C2012 1.414 . S
C2011 C2014 1.499 . S
C2012 H1992 0.950 . S
C2012 C2011 1.414 . S
C2012 C2013 1.374 1_554 S
C2013 H1993 0.950 . S
C2013 C2009 1.385 . S
C2013 C2012 1.374 1_556 S
C2014 C2011 1.499 . S
C2014 C2015 1.373 . S
C2014 C2016 1.389 . S
C2015 H1994 0.950 . S
C2015 C2014 1.373 . S
C2015 C2031 1.377 . S
C2016 C2014 1.389 . S
C2016 C2017 1.524 . S
C2016 C2030 1.377 . S
C2017 C2016 1.524 . S
C2017 C2018 1.397 . S
C2017 C2022 1.363 . S
C2018 H1995 0.950 . S
C2018 C2017 1.397 . S
C2018 C2019 1.334 . S
C2019 H1996 0.950 . S
C2019 C2018 1.334 . S
C2019 C2020 1.287 . S
C2020 C2019 1.287 . S
C2020 C2021 1.524 . S
C2020 H2039 0.913 . S
C2021 H1997 0.950 . S
C2021 C2020 1.524 . S
C2021 C2022 1.415 . S
C2022 H1998 0.950 . S
C2022 C2017 1.363 . S
C2022 C2021 1.415 . S
C2023 H1999 0.951 . S
C2023 C2024 1.366 . S
C2023 C2025 1.388 . S
C2024 C2023 1.366 . S
C2024 C2028 1.385 . S
C2025 H2000 0.951 . S
C2025 C2023 1.388 . S
C2025 C2026 1.366 . S
C2026 C2025 1.366 . S
C2026 C2027 1.414 . S
C2026 C2029 1.499 . S
C2027 H2001 0.950 . S
C2027 C2026 1.414 . S
C2027 C2028 1.374 . S
C2028 H2002 0.950 . S
C2028 C2024 1.385 . S
C2028 C2027 1.374 . S
C2029 C2026 1.499 . S
C2029 C2030 1.373 . S
C2029 C2031 1.389 . S
C2030 H2003 0.950 . S
C2030 C2016 1.377 . S
C2030 C2029 1.373 . S
C2031 C2015 1.377 . S
C2031 C2029 1.389 . S
C2031 C2032 1.524 . S
C2032 C2031 1.524 . S
C2032 C2033 1.397 . S
C2032 C2037 1.363 . S
C2033 H2004 0.950 . S
C2033 C2032 1.397 . S
C2033 C2034 1.334 . S
C2034 H2005 0.950 . S
C2034 C2033 1.334 . S
C2034 C2035 1.287 . S
C2035 C2034 1.287 . S
C2035 C2036 1.524 . S
C2035 H2038 0.999 . S
C2036 H2006 0.950 . S
C2036 C2035 1.524 . S
C2036 C2037 1.415 . S
C2037 H2007 0.950 . S
C2037 C2032 1.363 . S
C2037 C2036 1.415 . S
H2038 C2035 0.999 . S
H2039 C2020 0.913 . S
H2040 C2058 0.951 . S
H2041 C2060 0.951 . S
H2042 C2062 0.950 . S
H2043 C2063 0.950 . S
H2044 C2065 0.950 . S
H2045 C2068 0.950 . S
H2046 C2069 0.950 . S
H2047 C2071 0.950 . S
H2048 C2072 0.950 . S
H2049 C2073 0.951 . S
H2050 C2075 0.951 . S
H2051 C2077 0.950 . S
H2052 C2078 0.950 . S
H2053 C2080 0.950 . S
H2054 C2083 0.950 . S
H2055 C2084 0.950 . S
H2056 C2086 0.950 . S
H2057 C2087 0.950 . S
C2058 H2040 0.951 . S
C2058 C2059 1.366 . S
C2058 C2060 1.388 . S
C2059 C2058 1.366 . S
C2059 C2063 1.385 . S
C2060 H2041 0.951 . S
C2060 C2058 1.388 . S
C2060 C2061 1.366 . S
C2061 C2060 1.366 . S
C2061 C2062 1.414 . S
C2061 C2064 1.499 . S
C2062 H2042 0.950 . S
C2062 C2061 1.414 . S
C2062 C2063 1.374 . S
C2063 H2043 0.950 . S
C2063 C2059 1.385 . S
C2063 C2062 1.374 . S
C2064 C2061 1.499 . S
C2064 C2065 1.373 . S
C2064 C2066 1.389 . S
C2065 H2044 0.950 . S
C2065 C2064 1.373 . S
C2065 C2081 1.377 . S
C2066 C2064 1.389 . S
C2066 C2067 1.524 . S
C2066 C2080 1.377 . S
C2067 C2066 1.524 . S
C2067 C2068 1.397 . S
C2067 C2072 1.363 . S
C2068 H2045 0.950 . S
C2068 C2067 1.397 . S
C2068 C2069 1.334 . S
C2069 H2046 0.950 . S
C2069 C2068 1.334 . S
C2069 C2070 1.287 . S
C2070 C2069 1.287 . S
C2070 C2071 1.524 . S
C2070 H2089 0.913 . S
C2071 H2047 0.950 . S
C2071 C2070 1.524 . S
C2071 C2072 1.415 . S
C2072 H2048 0.950 . S
C2072 C2067 1.363 . S
C2072 C2071 1.415 . S
C2073 H2049 0.951 . S
C2073 C2074 1.366 . S
C2073 C2075 1.388 . S
C2074 C2073 1.366 . S
C2074 C2078 1.385 . S
C2075 H2050 0.951 . S
C2075 C2073 1.388 . S
C2075 C2076 1.366 . S
C2076 C2075 1.366 . S
C2076 C2077 1.414 . S
C2076 C2079 1.499 . S
C2077 H2051 0.950 . S
C2077 C2076 1.414 . S
C2077 C2078 1.374 . S
C2078 H2052 0.950 . S
C2078 C2074 1.385 . S
C2078 C2077 1.374 . S
C2079 C2076 1.499 . S
C2079 C2080 1.373 . S
C2079 C2081 1.389 . S
C2080 H2053 0.950 . S
C2080 C2066 1.377 . S
C2080 C2079 1.373 . S
C2081 C2065 1.377 . S
C2081 C2079 1.389 . S
C2081 C2082 1.524 . S
C2082 C2081 1.524 . S
C2082 C2083 1.397 . S
C2082 C2087 1.363 . S
C2083 H2054 0.950 . S
C2083 C2082 1.397 . S
C2083 C2084 1.334 . S
C2084 H2055 0.950 . S
C2084 C2083 1.334 . S
C2084 C2085 1.287 . S
C2085 C2084 1.287 . S
C2085 C2086 1.524 . S
C2085 H2088 0.999 . S
C2086 H2056 0.950 . S
C2086 C2085 1.524 . S
C2086 C2087 1.415 . S
C2087 H2057 0.950 . S
C2087 C2082 1.363 . S
C2087 C2086 1.415 . S
H2088 C2085 0.999 . S
H2089 C2070 0.913 . S
H2090 C2108 0.951 . S
H2091 C2110 0.951 . S
H2092 C2112 0.950 . S
H2093 C2113 0.950 . S
H2094 C2115 0.950 . S
H2095 C2118 0.950 . S
H2096 C2119 0.950 . S
H2097 C2121 0.950 . S
H2098 C2122 0.950 . S
H2099 C2123 0.951 . S
H2100 C2125 0.951 . S
H2101 C2127 0.950 . S
H2102 C2128 0.950 . S
H2103 C2130 0.950 . S
H2104 C2133 0.950 . S
H2105 C2134 0.950 . S
H2106 C2136 0.950 . S
H2107 C2137 0.950 . S
C2108 H2090 0.951 . S
C2108 C2109 1.366 . S
C2108 C2110 1.388 . S
C2109 C2108 1.366 . S
C2109 C2113 1.385 . S
C2110 H2091 0.951 . S
C2110 C2108 1.388 . S
C2110 C2111 1.366 . S
C2111 C2110 1.366 . S
C2111 C2112 1.414 . S
C2111 C2114 1.499 . S
C2112 H2092 0.950 . S
C2112 C2111 1.414 . S
C2112 C2113 1.374 . S
C2113 H2093 0.950 . S
C2113 C2109 1.385 . S
C2113 C2112 1.374 . S
C2114 C2111 1.499 . S
C2114 C2115 1.373 . S
C2114 C2116 1.389 . S
C2115 H2094 0.950 . S
C2115 C2114 1.373 . S
C2115 C2131 1.377 . S
C2116 C2114 1.389 . S
C2116 C2117 1.524 . S
C2116 C2130 1.377 . S
C2117 C2116 1.524 . S
C2117 C2118 1.397 . S
C2117 C2122 1.363 . S
C2118 H2095 0.950 . S
C2118 C2117 1.397 . S
C2118 C2119 1.334 . S
C2119 H2096 0.950 . S
C2119 C2118 1.334 . S
C2119 C2120 1.287 . S
C2120 C2119 1.287 . S
C2120 C2121 1.524 . S
C2120 H2139 0.913 . S
C2121 H2097 0.950 . S
C2121 C2120 1.524 . S
C2121 C2122 1.415 . S
C2122 H2098 0.950 . S
C2122 C2117 1.363 . S
C2122 C2121 1.415 . S
C2123 H2099 0.951 . S
C2123 C2124 1.366 . S
C2123 C2125 1.388 . S
C2124 C2123 1.366 . S
C2124 C2128 1.385 . S
C2125 H2100 0.951 . S
C2125 C2123 1.388 . S
C2125 C2126 1.366 . S
C2126 C2125 1.366 . S
C2126 C2127 1.414 . S
C2126 C2129 1.499 . S
C2127 H2101 0.950 . S
C2127 C2126 1.414 . S
C2127 C2128 1.374 . S
C2128 H2102 0.950 . S
C2128 C2124 1.385 . S
C2128 C2127 1.374 . S
C2129 C2126 1.499 . S
C2129 C2130 1.373 . S
C2129 C2131 1.389 . S
C2130 H2103 0.950 . S
C2130 C2116 1.377 . S
C2130 C2129 1.373 . S
C2131 C2115 1.377 . S
C2131 C2129 1.389 . S
C2131 C2132 1.524 . S
C2132 C2131 1.524 . S
C2132 C2133 1.397 . S
C2132 C2137 1.363 . S
C2133 H2104 0.950 . S
C2133 C2132 1.397 . S
C2133 C2134 1.334 . S
C2134 H2105 0.950 . S
C2134 C2133 1.334 . S
C2134 C2135 1.287 . S
C2135 C2134 1.287 . S
C2135 C2136 1.524 . S
C2135 H2138 0.999 . S
C2136 H2106 0.950 . S
C2136 C2135 1.524 . S
C2136 C2137 1.415 . S
C2137 H2107 0.950 . S
C2137 C2132 1.363 . S
C2137 C2136 1.415 . S
H2138 C2135 0.999 . S
H2139 C2120 0.913 . S
H2140 C2158 0.951 . S
H2141 C2160 0.951 . S
H2142 C2162 0.950 . S
H2143 C2163 0.950 . S
H2144 C2165 0.950 . S
H2145 C2168 0.950 . S
H2146 C2169 0.950 . S
H2147 C2171 0.950 . S
H2148 C2172 0.950 . S
H2149 C2173 0.951 . S
H2150 C2175 0.951 . S
H2151 C2177 0.950 . S
H2152 C2178 0.950 . S
H2153 C2180 0.950 . S
H2154 C2183 0.950 . S
H2155 C2184 0.950 . S
H2156 C2186 0.950 . S
H2157 C2187 0.950 . S
C2158 H2140 0.951 . S
C2158 C2159 1.366 . S
C2158 C2160 1.388 . S
C2159 C2158 1.366 . S
C2159 C2163 1.385 . S
C2160 H2141 0.951 . S
C2160 C2158 1.388 . S
C2160 C2161 1.366 . S
C2161 C2160 1.366 . S
C2161 C2162 1.414 . S
C2161 C2164 1.499 . S
C2162 H2142 0.950 . S
C2162 C2161 1.414 . S
C2162 C2163 1.374 . S
C2163 H2143 0.950 . S
C2163 C2159 1.385 . S
C2163 C2162 1.374 . S
C2164 C2161 1.499 . S
C2164 C2165 1.373 . S
C2164 C2166 1.389 . S
C2165 H2144 0.950 . S
C2165 C2164 1.373 . S
C2165 C2181 1.377 . S
C2166 C2164 1.389 . S
C2166 C2167 1.524 . S
C2166 C2180 1.377 . S
C2167 C2166 1.524 . S
C2167 C2168 1.397 . S
C2167 C2172 1.363 . S
C2168 H2145 0.950 . S
C2168 C2167 1.397 . S
C2168 C2169 1.334 . S
C2169 H2146 0.950 . S
C2169 C2168 1.334 . S
C2169 C2170 1.287 . S
C2170 C2169 1.287 . S
C2170 C2171 1.524 . S
C2170 H2189 0.913 . S
C2171 H2147 0.950 . S
C2171 C2170 1.524 . S
C2171 C2172 1.415 . S
C2172 H2148 0.950 . S
C2172 C2167 1.363 . S
C2172 C2171 1.415 . S
C2173 H2149 0.951 . S
C2173 C2174 1.366 . S
C2173 C2175 1.388 . S
C2174 C2173 1.366 . S
C2174 C2178 1.385 . S
C2175 H2150 0.951 . S
C2175 C2173 1.388 . S
C2175 C2176 1.366 . S
C2176 C2175 1.366 . S
C2176 C2177 1.414 . S
C2176 C2179 1.499 . S
C2177 H2151 0.950 . S
C2177 C2176 1.414 . S
C2177 C2178 1.374 . S
C2178 H2152 0.950 . S
C2178 C2174 1.385 . S
C2178 C2177 1.374 . S
C2179 C2176 1.499 . S
C2179 C2180 1.373 . S
C2179 C2181 1.389 . S
C2180 H2153 0.950 . S
C2180 C2166 1.377 . S
C2180 C2179 1.373 . S
C2181 C2165 1.377 . S
C2181 C2179 1.389 . S
C2181 C2182 1.524 . S
C2182 C2181 1.524 . S
C2182 C2183 1.397 . S
C2182 C2187 1.363 . S
C2183 H2154 0.950 . S
C2183 C2182 1.397 . S
C2183 C2184 1.334 . S
C2184 H2155 0.950 . S
C2184 C2183 1.334 . S
C2184 C2185 1.287 . S
C2185 C2184 1.287 . S
C2185 C2186 1.524 . S
C2185 H2188 0.999 . S
C2186 H2156 0.950 . S
C2186 C2185 1.524 . S
C2186 C2187 1.415 . S
C2187 H2157 0.950 . S
C2187 C2182 1.363 . S
C2187 C2186 1.415 . S
H2188 C2185 0.999 . S
H2189 C2170 0.913 . S
H2190 C2208 0.951 . S
H2191 C2210 0.951 . S
H2192 C2212 0.950 . S
H2193 C2213 0.950 . S
H2194 C2215 0.950 . S
H2195 C2218 0.950 . S
H2196 C2219 0.950 . S
H2197 C2221 0.950 . S
H2198 C2222 0.950 . S
H2199 C2223 0.951 . S
H2200 C2225 0.951 . S
H2201 C2227 0.950 . S
H2202 C2228 0.950 . S
H2203 C2230 0.950 . S
H2204 C2233 0.950 . S
H2205 C2234 0.950 . S
H2206 C2236 0.950 . S
H2207 C2237 0.950 . S
C2208 H2190 0.951 . S
C2208 C2209 1.366 . S
C2208 C2210 1.388 . S
C2209 C2208 1.366 . S
C2209 C2213 1.385 . S
C2210 H2191 0.951 . S
C2210 C2208 1.388 . S
C2210 C2211 1.366 . S
C2211 C2210 1.366 . S
C2211 C2212 1.414 . S
C2211 C2214 1.499 . S
C2212 H2192 0.950 . S
C2212 C2211 1.414 . S
C2212 C2213 1.374 . S
C2213 H2193 0.950 . S
C2213 C2209 1.385 . S
C2213 C2212 1.374 . S
C2214 C2211 1.499 . S
C2214 C2215 1.373 . S
C2214 C2216 1.389 . S
C2215 H2194 0.950 . S
C2215 C2214 1.373 . S
C2215 C2231 1.377 . S
C2216 C2214 1.389 . S
C2216 C2217 1.524 . S
C2216 C2230 1.377 . S
C2217 C2216 1.524 . S
C2217 C2218 1.397 . S
C2217 C2222 1.363 . S
C2218 H2195 0.950 . S
C2218 C2217 1.397 . S
C2218 C2219 1.334 . S
C2219 H2196 0.950 . S
C2219 C2218 1.334 . S
C2219 C2220 1.287 . S
C2220 C2219 1.287 . S
C2220 C2221 1.524 . S
C2220 H2239 0.913 . S
C2221 H2197 0.950 . S
C2221 C2220 1.524 . S
C2221 C2222 1.415 . S
C2222 H2198 0.950 . S
C2222 C2217 1.363 . S
C2222 C2221 1.415 . S
C2223 H2199 0.951 . S
C2223 C2224 1.366 . S
C2223 C2225 1.388 . S
C2224 C2223 1.366 . S
C2224 C2228 1.385 . S
C2225 H2200 0.951 . S
C2225 C2223 1.388 . S
C2225 C2226 1.366 . S
C2226 C2225 1.366 . S
C2226 C2227 1.414 . S
C2226 C2229 1.499 . S
C2227 H2201 0.950 . S
C2227 C2226 1.414 . S
C2227 C2228 1.374 . S
C2228 H2202 0.950 . S
C2228 C2224 1.385 . S
C2228 C2227 1.374 . S
C2229 C2226 1.499 . S
C2229 C2230 1.373 . S
C2229 C2231 1.389 . S
C2230 H2203 0.950 . S
C2230 C2216 1.377 . S
C2230 C2229 1.373 . S
C2231 C2215 1.377 . S
C2231 C2229 1.389 . S
C2231 C2232 1.524 . S
C2232 C2231 1.524 . S
C2232 C2233 1.397 . S
C2232 C2237 1.363 . S
C2233 H2204 0.950 . S
C2233 C2232 1.397 . S
C2233 C2234 1.334 . S
C2234 H2205 0.950 . S
C2234 C2233 1.334 . S
C2234 C2235 1.287 . S
C2235 C2234 1.287 . S
C2235 C2236 1.524 . S
C2235 H2238 0.999 . S
C2236 H2206 0.950 . S
C2236 C2235 1.524 . S
C2236 C2237 1.415 . S
C2237 H2207 0.950 . S
C2237 C2232 1.363 . S
C2237 C2236 1.415 . S
H2238 C2235 0.999 . S
H2239 C2220 0.913 . S
H2240 C2258 0.951 . S
H2241 C2260 0.951 . S
H2242 C2262 0.950 . S
H2243 C2263 0.950 . S
H2244 C2265 0.950 . S
H2245 C2268 0.950 . S
H2246 C2269 0.950 . S
H2247 C2271 0.950 . S
H2248 C2272 0.950 . S
H2249 C2273 0.951 . S
H2250 C2275 0.951 . S
H2251 C2277 0.950 . S
H2252 C2278 0.950 . S
H2253 C2280 0.950 . S
H2254 C2283 0.950 . S
H2255 C2284 0.950 . S
H2256 C2286 0.950 . S
H2257 C2287 0.950 . S
C2258 H2240 0.951 . S
C2258 C2259 1.366 . S
C2258 C2260 1.388 . S
C2259 C2258 1.366 . S
C2259 C2263 1.385 . S
C2260 H2241 0.951 . S
C2260 C2258 1.388 . S
C2260 C2261 1.366 . S
C2261 C2260 1.366 . S
C2261 C2262 1.414 . S
C2261 C2264 1.499 . S
C2262 H2242 0.950 . S
C2262 C2261 1.414 . S
C2262 C2263 1.374 . S
C2263 H2243 0.950 . S
C2263 C2259 1.385 . S
C2263 C2262 1.374 . S
C2264 C2261 1.499 . S
C2264 C2265 1.373 . S
C2264 C2266 1.389 . S
C2265 H2244 0.950 . S
C2265 C2264 1.373 . S
C2265 C2281 1.377 . S
C2266 C2264 1.389 . S
C2266 C2267 1.524 . S
C2266 C2280 1.377 . S
C2267 C2266 1.524 . S
C2267 C2268 1.397 . S
C2267 C2272 1.363 . S
C2268 H2245 0.950 . S
C2268 C2267 1.397 . S
C2268 C2269 1.334 . S
C2269 H2246 0.950 . S
C2269 C2268 1.334 . S
C2269 C2270 1.287 . S
C2270 C2269 1.287 . S
C2270 C2271 1.524 . S
C2270 H2289 0.913 . S
C2271 H2247 0.950 . S
C2271 C2270 1.524 . S
C2271 C2272 1.415 . S
C2272 H2248 0.950 . S
C2272 C2267 1.363 . S
C2272 C2271 1.415 . S
C2273 H2249 0.951 . S
C2273 C2274 1.366 . S
C2273 C2275 1.388 . S
C2274 C2273 1.366 . S
C2274 C2278 1.385 . S
C2275 H2250 0.951 . S
C2275 C2273 1.388 . S
C2275 C2276 1.366 . S
C2276 C2275 1.366 . S
C2276 C2277 1.414 . S
C2276 C2279 1.499 . S
C2277 H2251 0.950 . S
C2277 C2276 1.414 . S
C2277 C2278 1.374 . S
C2278 H2252 0.950 . S
C2278 C2274 1.385 . S
C2278 C2277 1.374 . S
C2279 C2276 1.499 . S
C2279 C2280 1.373 . S
C2279 C2281 1.389 . S
C2280 H2253 0.950 . S
C2280 C2266 1.377 . S
C2280 C2279 1.373 . S
C2281 C2265 1.377 . S
C2281 C2279 1.389 . S
C2281 C2282 1.524 . S
C2282 C2281 1.524 . S
C2282 C2283 1.397 . S
C2282 C2287 1.363 . S
C2283 H2254 0.950 . S
C2283 C2282 1.397 . S
C2283 C2284 1.334 . S
C2284 H2255 0.950 . S
C2284 C2283 1.334 . S
C2284 C2285 1.287 . S
C2285 C2284 1.287 . S
C2285 C2286 1.524 . S
C2285 H2288 0.999 . S
C2286 H2256 0.950 . S
C2286 C2285 1.524 . S
C2286 C2287 1.415 . S
C2287 H2257 0.950 . S
C2287 C2282 1.363 . S
C2287 C2286 1.415 . S
H2288 C2285 0.999 . S
H2289 C2270 0.913 . S
H2290 C2308 0.951 . S
H2291 C2310 0.951 . S
H2292 C2312 0.950 . S
H2293 C2313 0.950 . S
H2294 C2315 0.950 . S
H2295 C2318 0.950 . S
H2296 C2319 0.950 . S
H2297 C2321 0.950 . S
H2298 C2322 0.950 . S
H2299 C2323 0.951 . S
H2300 C2325 0.951 . S
H2301 C2327 0.950 . S
H2302 C2328 0.950 . S
H2303 C2330 0.950 . S
H2304 C2333 0.950 . S
H2305 C2334 0.950 . S
H2306 C2336 0.950 . S
H2307 C2337 0.950 . S
C2308 H2290 0.951 . S
C2308 C2309 1.366 . S
C2308 C2310 1.388 . S
C2309 C2308 1.366 . S
C2309 C2313 1.385 . S
C2310 H2291 0.951 . S
C2310 C2308 1.388 . S
C2310 C2311 1.366 . S
C2311 C2310 1.366 . S
C2311 C2312 1.414 . S
C2311 C2314 1.499 . S
C2312 H2292 0.950 . S
C2312 C2311 1.414 . S
C2312 C2313 1.374 . S
C2313 H2293 0.950 . S
C2313 C2309 1.385 . S
C2313 C2312 1.374 . S
C2314 C2311 1.499 . S
C2314 C2315 1.373 . S
C2314 C2316 1.389 . S
C2315 H2294 0.950 . S
C2315 C2314 1.373 . S
C2315 C2331 1.377 . S
C2316 C2314 1.389 . S
C2316 C2317 1.524 . S
C2316 C2330 1.377 . S
C2317 C2316 1.524 . S
C2317 C2318 1.397 . S
C2317 C2322 1.363 . S
C2318 H2295 0.950 . S
C2318 C2317 1.397 . S
C2318 C2319 1.334 . S
C2319 H2296 0.950 . S
C2319 C2318 1.334 . S
C2319 C2320 1.287 . S
C2320 C2319 1.287 . S
C2320 C2321 1.524 . S
C2320 H2339 0.913 . S
C2321 H2297 0.950 . S
C2321 C2320 1.524 . S
C2321 C2322 1.415 . S
C2322 H2298 0.950 . S
C2322 C2317 1.363 . S
C2322 C2321 1.415 . S
C2323 H2299 0.951 . S
C2323 C2324 1.366 . S
C2323 C2325 1.388 . S
C2324 C2323 1.366 . S
C2324 C2328 1.385 . S
C2325 H2300 0.951 . S
C2325 C2323 1.388 . S
C2325 C2326 1.366 . S
C2326 C2325 1.366 . S
C2326 C2327 1.414 . S
C2326 C2329 1.499 . S
C2327 H2301 0.950 . S
C2327 C2326 1.414 . S
C2327 C2328 1.374 . S
C2328 H2302 0.950 . S
C2328 C2324 1.385 . S
C2328 C2327 1.374 . S
C2329 C2326 1.499 . S
C2329 C2330 1.373 . S
C2329 C2331 1.389 . S
C2330 H2303 0.950 . S
C2330 C2316 1.377 . S
C2330 C2329 1.373 . S
C2331 C2315 1.377 . S
C2331 C2329 1.389 . S
C2331 C2332 1.524 . S
C2332 C2331 1.524 . S
C2332 C2333 1.397 . S
C2332 C2337 1.363 . S
C2333 H2304 0.950 . S
C2333 C2332 1.397 . S
C2333 C2334 1.334 . S
C2334 H2305 0.950 . S
C2334 C2333 1.334 . S
C2334 C2335 1.287 . S
C2335 C2334 1.287 . S
C2335 C2336 1.524 . S
C2335 H2338 0.999 . S
C2336 H2306 0.950 . S
C2336 C2335 1.524 . S
C2336 C2337 1.415 . S
C2337 H2307 0.950 . S
C2337 C2332 1.363 . S
C2337 C2336 1.415 . S
H2338 C2335 0.999 . S
H2339 C2320 0.913 . S
H2340 C2358 0.951 . S
H2341 C2360 0.951 . S
H2342 C2362 0.950 . S
H2343 C2363 0.950 . S
H2344 C2365 0.950 . S
H2345 C2368 0.950 . S
H2346 C2369 0.950 . S
H2347 C2371 0.950 . S
H2348 C2372 0.950 . S
H2349 C2373 0.951 . S
H2350 C2375 0.951 . S
H2351 C2377 0.950 . S
H2352 C2378 0.950 . S
H2353 C2380 0.950 . S
H2354 C2383 0.950 . S
H2355 C2384 0.950 . S
H2356 C2386 0.950 . S
H2357 C2387 0.950 . S
C2358 H2340 0.951 . S
C2358 C2359 1.366 . S
C2358 C2360 1.388 . S
C2359 C2358 1.366 . S
C2359 C2363 1.385 . S
C2360 H2341 0.951 . S
C2360 C2358 1.388 . S
C2360 C2361 1.366 . S
C2361 C2360 1.366 . S
C2361 C2362 1.414 . S
C2361 C2364 1.499 . S
C2362 H2342 0.950 . S
C2362 C2361 1.414 . S
C2362 C2363 1.374 . S
C2363 H2343 0.950 . S
C2363 C2359 1.385 . S
C2363 C2362 1.374 . S
C2364 C2361 1.499 . S
C2364 C2365 1.373 . S
C2364 C2366 1.389 . S
C2365 H2344 0.950 . S
C2365 C2364 1.373 . S
C2365 C2381 1.377 . S
C2366 C2364 1.389 . S
C2366 C2367 1.524 . S
C2366 C2380 1.377 . S
C2367 C2366 1.524 . S
C2367 C2368 1.397 . S
C2367 C2372 1.363 . S
C2368 H2345 0.950 . S
C2368 C2367 1.397 . S
C2368 C2369 1.334 . S
C2369 H2346 0.950 . S
C2369 C2368 1.334 . S
C2369 C2370 1.287 . S
C2370 C2369 1.287 . S
C2370 C2371 1.524 . S
C2370 H2389 0.913 . S
C2371 H2347 0.950 . S
C2371 C2370 1.524 . S
C2371 C2372 1.415 . S
C2372 H2348 0.950 . S
C2372 C2367 1.363 . S
C2372 C2371 1.415 . S
C2373 H2349 0.951 . S
C2373 C2374 1.366 . S
C2373 C2375 1.388 . S
C2374 C2373 1.366 . S
C2374 C2378 1.385 . S
C2375 H2350 0.951 . S
C2375 C2373 1.388 . S
C2375 C2376 1.366 . S
C2376 C2375 1.366 . S
C2376 C2377 1.414 . S
C2376 C2379 1.499 . S
C2377 H2351 0.950 . S
C2377 C2376 1.414 . S
C2377 C2378 1.374 . S
C2378 H2352 0.950 . S
C2378 C2374 1.385 . S
C2378 C2377 1.374 . S
C2379 C2376 1.499 . S
C2379 C2380 1.373 . S
C2379 C2381 1.389 . S
C2380 H2353 0.950 . S
C2380 C2366 1.377 . S
C2380 C2379 1.373 . S
C2381 C2365 1.377 . S
C2381 C2379 1.389 . S
C2381 C2382 1.524 . S
C2382 C2381 1.524 . S
C2382 C2383 1.397 . S
C2382 C2387 1.363 . S
C2383 H2354 0.950 . S
C2383 C2382 1.397 . S
C2383 C2384 1.334 . S
C2384 H2355 0.950 . S
C2384 C2383 1.334 . S
C2384 C2385 1.287 . S
C2385 C2384 1.287 . S
C2385 C2386 1.524 . S
C2385 H2388 0.999 . S
C2386 H2356 0.950 . S
C2386 C2385 1.524 . S
C2386 C2387 1.415 . S
C2387 H2357 0.950 . S
C2387 C2382 1.363 . S
C2387 C2386 1.415 . S
H2388 C2385 0.999 . S
H2389 C2370 0.913 . S
H2390 C2408 0.951 . S
H2391 C2410 0.951 . S
H2392 C2412 0.950 . S
H2393 C2413 0.950 . S
H2394 C2415 0.950 . S
H2395 C2418 0.950 . S
H2396 C2419 0.950 . S
H2397 C2421 0.950 . S
H2398 C2422 0.950 . S
H2399 C2423 0.951 . S
H2400 C2425 0.951 . S
H2401 C2427 0.950 . S
H2402 C2428 0.950 . S
H2403 C2430 0.950 . S
H2404 C2433 0.950 . S
H2405 C2434 0.950 . S
H2406 C2436 0.950 . S
H2407 C2437 0.950 . S
C2408 H2390 0.951 . S
C2408 C2409 1.366 . S
C2408 C2410 1.388 . S
C2409 C2408 1.366 . S
C2409 C2413 1.385 . S
C2410 H2391 0.951 . S
C2410 C2408 1.388 . S
C2410 C2411 1.366 . S
C2411 C2410 1.366 . S
C2411 C2412 1.414 . S
C2411 C2414 1.499 . S
C2412 H2392 0.950 . S
C2412 C2411 1.414 . S
C2412 C2413 1.374 . S
C2413 H2393 0.950 . S
C2413 C2409 1.385 . S
C2413 C2412 1.374 . S
C2414 C2411 1.499 . S
C2414 C2415 1.373 . S
C2414 C2416 1.389 . S
C2415 H2394 0.950 . S
C2415 C2414 1.373 . S
C2415 C2431 1.377 . S
C2416 C2414 1.389 . S
C2416 C2417 1.524 . S
C2416 C2430 1.377 . S
C2417 C2416 1.524 . S
C2417 C2418 1.397 . S
C2417 C2422 1.363 . S
C2418 H2395 0.950 . S
C2418 C2417 1.397 . S
C2418 C2419 1.334 . S
C2419 H2396 0.950 . S
C2419 C2418 1.334 . S
C2419 C2420 1.287 . S
C2420 C2419 1.287 . S
C2420 C2421 1.524 . S
C2420 H2439 0.913 . S
C2421 H2397 0.950 . S
C2421 C2420 1.524 . S
C2421 C2422 1.415 . S
C2422 H2398 0.950 . S
C2422 C2417 1.363 . S
C2422 C2421 1.415 . S
C2423 H2399 0.951 . S
C2423 C2424 1.366 . S
C2423 C2425 1.388 . S
C2424 C2423 1.366 . S
C2424 C2428 1.385 . S
C2425 H2400 0.951 . S
C2425 C2423 1.388 . S
C2425 C2426 1.366 . S
C2426 C2425 1.366 . S
C2426 C2427 1.414 . S
C2426 C2429 1.499 . S
C2427 H2401 0.950 . S
C2427 C2426 1.414 . S
C2427 C2428 1.374 . S
C2428 H2402 0.950 . S
C2428 C2424 1.385 . S
C2428 C2427 1.374 . S
C2429 C2426 1.499 . S
C2429 C2430 1.373 . S
C2429 C2431 1.389 . S
C2430 H2403 0.950 . S
C2430 C2416 1.377 . S
C2430 C2429 1.373 . S
C2431 C2415 1.377 . S
C2431 C2429 1.389 . S
C2431 C2432 1.524 . S
C2432 C2431 1.524 . S
C2432 C2433 1.397 . S
C2432 C2437 1.363 . S
C2433 H2404 0.950 . S
C2433 C2432 1.397 . S
C2433 C2434 1.334 . S
C2434 H2405 0.950 . S
C2434 C2433 1.334 . S
C2434 C2435 1.287 . S
C2435 C2434 1.287 . S
C2435 C2436 1.524 . S
C2435 H2438 0.999 . S
C2436 H2406 0.950 . S
C2436 C2435 1.524 . S
C2436 C2437 1.415 . S
C2437 H2407 0.950 . S
C2437 C2432 1.363 . S
C2437 C2436 1.415 . S
H2438 C2435 0.999 . S
H2439 C2420 0.913 . S
H2440 C2458 0.951 . S
H2441 C2460 0.951 . S
H2442 C2462 0.950 . S
H2443 C2463 0.950 . S
H2444 C2465 0.950 . S
H2445 C2468 0.950 . S
H2446 C2469 0.950 . S
H2447 C2471 0.950 . S
H2448 C2472 0.950 . S
H2449 C2473 0.951 . S
H2450 C2475 0.951 . S
H2451 C2477 0.950 . S
H2452 C2478 0.950 . S
H2453 C2480 0.950 . S
H2454 C2483 0.950 . S
H2455 C2484 0.950 . S
H2456 C2486 0.950 . S
H2457 C2487 0.950 . S
C2458 H2440 0.951 . S
C2458 C2459 1.366 . S
C2458 C2460 1.388 . S
C2459 C2458 1.366 . S
C2459 C2463 1.385 . S
C2460 H2441 0.951 . S
C2460 C2458 1.388 . S
C2460 C2461 1.366 . S
C2461 C2460 1.366 . S
C2461 C2462 1.414 . S
C2461 C2464 1.499 . S
C2462 H2442 0.950 . S
C2462 C2461 1.414 . S
C2462 C2463 1.374 . S
C2463 H2443 0.950 . S
C2463 C2459 1.385 . S
C2463 C2462 1.374 . S
C2464 C2461 1.499 . S
C2464 C2465 1.373 . S
C2464 C2466 1.389 . S
C2465 H2444 0.950 . S
C2465 C2464 1.373 . S
C2465 C2481 1.377 . S
C2466 C2464 1.389 . S
C2466 C2467 1.524 . S
C2466 C2480 1.377 . S
C2467 C2466 1.524 . S
C2467 C2468 1.397 . S
C2467 C2472 1.363 . S
C2468 H2445 0.950 . S
C2468 C2467 1.397 . S
C2468 C2469 1.334 . S
C2469 H2446 0.950 . S
C2469 C2468 1.334 . S
C2469 C2470 1.287 . S
C2470 C2469 1.287 . S
C2470 C2471 1.524 . S
C2470 H2489 0.913 . S
C2471 H2447 0.950 . S
C2471 C2470 1.524 . S
C2471 C2472 1.415 . S
C2472 H2448 0.950 . S
C2472 C2467 1.363 . S
C2472 C2471 1.415 . S
C2473 H2449 0.951 . S
C2473 C2474 1.366 . S
C2473 C2475 1.388 . S
C2474 C2473 1.366 . S
C2474 C2478 1.385 . S
C2475 H2450 0.951 . S
C2475 C2473 1.388 . S
C2475 C2476 1.366 . S
C2476 C2475 1.366 . S
C2476 C2477 1.414 . S
C2476 C2479 1.499 . S
C2477 H2451 0.950 . S
C2477 C2476 1.414 . S
C2477 C2478 1.374 . S
C2478 H2452 0.950 . S
C2478 C2474 1.385 . S
C2478 C2477 1.374 . S
C2479 C2476 1.499 . S
C2479 C2480 1.373 . S
C2479 C2481 1.389 . S
C2480 H2453 0.950 . S
C2480 C2466 1.377 . S
C2480 C2479 1.373 . S
C2481 C2465 1.377 . S
C2481 C2479 1.389 . S
C2481 C2482 1.524 . S
C2482 C2481 1.524 . S
C2482 C2483 1.397 . S
C2482 C2487 1.363 . S
C2483 H2454 0.950 . S
C2483 C2482 1.397 . S
C2483 C2484 1.334 . S
C2484 H2455 0.950 . S
C2484 C2483 1.334 . S
C2484 C2485 1.287 . S
C2485 C2484 1.287 . S
C2485 C2486 1.524 . S
C2485 H2488 0.999 . S
C2486 H2456 0.950 . S
C2486 C2485 1.524 . S
C2486 C2487 1.415 . S
C2487 H2457 0.950 . S
C2487 C2482 1.363 . S
C2487 C2486 1.415 . S
H2488 C2485 0.999 . S
H2489 C2470 0.913 . S
H2490 C2508 0.951 . S
H2491 C2510 0.951 . S
H2492 C2512 0.950 . S
H2493 C2513 0.950 . S
H2494 C2515 0.950 . S
H2495 C2518 0.950 . S
H2496 C2519 0.950 . S
H2497 C2521 0.950 . S
H2498 C2522 0.950 . S
H2499 C2523 0.951 . S
H2500 C2525 0.951 . S
H2501 C2527 0.950 . S
H2502 C2528 0.950 . S
H2503 C2530 0.950 . S
H2504 C2533 0.950 . S
H2505 C2534 0.950 . S
H2506 C2536 0.950 . S
H2507 C2537 0.950 . S
C2508 H2490 0.951 . S
C2508 C2509 1.366 . S
C2508 C2510 1.388 . S
C2509 C2508 1.366 . S
C2509 C2513 1.385 . S
C2510 H2491 0.951 . S
C2510 C2508 1.388 . S
C2510 C2511 1.366 . S
C2511 C2510 1.366 . S
C2511 C2512 1.414 . S
C2511 C2514 1.499 . S
C2512 H2492 0.950 . S
C2512 C2511 1.414 . S
C2512 C2513 1.374 . S
C2513 H2493 0.950 . S
C2513 C2509 1.385 . S
C2513 C2512 1.374 . S
C2514 C2511 1.499 . S
C2514 C2515 1.373 . S
C2514 C2516 1.389 . S
C2515 H2494 0.950 . S
C2515 C2514 1.373 . S
C2515 C2531 1.377 . S
C2516 C2514 1.389 . S
C2516 C2517 1.524 . S
C2516 C2530 1.377 . S
C2517 C2516 1.524 . S
C2517 C2518 1.397 . S
C2517 C2522 1.363 . S
C2518 H2495 0.950 . S
C2518 C2517 1.397 . S
C2518 C2519 1.334 . S
C2519 H2496 0.950 . S
C2519 C2518 1.334 . S
C2519 C2520 1.287 . S
C2520 C2519 1.287 . S
C2520 C2521 1.524 . S
C2520 H2539 0.913 . S
C2521 H2497 0.950 . S
C2521 C2520 1.524 . S
C2521 C2522 1.415 . S
C2522 H2498 0.950 . S
C2522 C2517 1.363 . S
C2522 C2521 1.415 . S
C2523 H2499 0.951 . S
C2523 C2524 1.366 . S
C2523 C2525 1.388 . S
C2524 C2523 1.366 . S
C2524 C2528 1.385 . S
C2525 H2500 0.951 . S
C2525 C2523 1.388 . S
C2525 C2526 1.366 . S
C2526 C2525 1.366 . S
C2526 C2527 1.414 . S
C2526 C2529 1.499 . S
C2527 H2501 0.950 . S
C2527 C2526 1.414 . S
C2527 C2528 1.374 . S
C2528 H2502 0.950 . S
C2528 C2524 1.385 . S
C2528 C2527 1.374 . S
C2529 C2526 1.499 . S
C2529 C2530 1.373 . S
C2529 C2531 1.389 . S
C2530 H2503 0.950 . S
C2530 C2516 1.377 . S
C2530 C2529 1.373 . S
C2531 C2515 1.377 . S
C2531 C2529 1.389 . S
C2531 C2532 1.524 . S
C2532 C2531 1.524 . S
C2532 C2533 1.397 . S
C2532 C2537 1.363 . S
C2533 H2504 0.950 . S
C2533 C2532 1.397 . S
C2533 C2534 1.334 . S
C2534 H2505 0.950 . S
C2534 C2533 1.334 . S
C2534 C2535 1.287 . S
C2535 C2534 1.287 . S
C2535 C2536 1.524 . S
C2535 H2538 0.999 . S
C2536 H2506 0.950 . S
C2536 C2535 1.524 . S
C2536 C2537 1.415 . S
C2537 H2507 0.950 . S
C2537 C2532 1.363 . S
C2537 C2536 1.415 . S
H2538 C2535 0.999 . S
H2539 C2520 0.913 . S
H2540 C2558 0.951 . S
H2541 C2560 0.951 . S
H2542 C2562 0.950 . S
H2543 C2563 0.950 . S
H2544 C2565 0.950 . S
H2545 C2568 0.950 . S
H2546 C2569 0.950 . S
H2547 C2571 0.950 . S
H2548 C2572 0.950 . S
H2549 C2573 0.951 . S
H2550 C2575 0.951 . S
H2551 C2577 0.950 . S
H2552 C2578 0.950 . S
H2553 C2580 0.950 . S
H2554 C2583 0.950 . S
H2555 C2584 0.950 . S
H2556 C2586 0.950 . S
H2557 C2587 0.950 . S
C2558 H2540 0.951 . S
C2558 C2559 1.366 . S
C2558 C2560 1.388 . S
C2559 C2558 1.366 . S
C2559 C2563 1.385 . S
C2560 H2541 0.951 . S
C2560 C2558 1.388 . S
C2560 C2561 1.366 . S
C2561 C2560 1.366 . S
C2561 C2562 1.414 . S
C2561 C2564 1.499 . S
C2562 H2542 0.950 . S
C2562 C2561 1.414 . S
C2562 C2563 1.374 . S
C2563 H2543 0.950 . S
C2563 C2559 1.385 . S
C2563 C2562 1.374 . S
C2564 C2561 1.499 . S
C2564 C2565 1.373 . S
C2564 C2566 1.389 . S
C2565 H2544 0.950 . S
C2565 C2564 1.373 . S
C2565 C2581 1.377 . S
C2566 C2564 1.389 . S
C2566 C2567 1.524 . S
C2566 C2580 1.377 . S
C2567 C2566 1.524 . S
C2567 C2568 1.397 . S
C2567 C2572 1.363 . S
C2568 H2545 0.950 . S
C2568 C2567 1.397 . S
C2568 C2569 1.334 . S
C2569 H2546 0.950 . S
C2569 C2568 1.334 . S
C2569 C2570 1.287 . S
C2570 C2569 1.287 . S
C2570 C2571 1.524 . S
C2570 H2589 0.913 . S
C2571 H2547 0.950 . S
C2571 C2570 1.524 . S
C2571 C2572 1.415 . S
C2572 H2548 0.950 . S
C2572 C2567 1.363 . S
C2572 C2571 1.415 . S
C2573 H2549 0.951 . S
C2573 C2574 1.366 . S
C2573 C2575 1.388 . S
C2574 C2573 1.366 . S
C2574 C2578 1.385 . S
C2575 H2550 0.951 . S
C2575 C2573 1.388 . S
C2575 C2576 1.366 . S
C2576 C2575 1.366 . S
C2576 C2577 1.414 . S
C2576 C2579 1.499 . S
C2577 H2551 0.950 . S
C2577 C2576 1.414 . S
C2577 C2578 1.374 . S
C2578 H2552 0.950 . S
C2578 C2574 1.385 . S
C2578 C2577 1.374 . S
C2579 C2576 1.499 . S
C2579 C2580 1.373 . S
C2579 C2581 1.389 . S
C2580 H2553 0.950 . S
C2580 C2566 1.377 . S
C2580 C2579 1.373 . S
C2581 C2565 1.377 . S
C2581 C2579 1.389 . S
C2581 C2582 1.524 . S
C2582 C2581 1.524 . S
C2582 C2583 1.397 . S
C2582 C2587 1.363 . S
C2583 H2554 0.950 . S
C2583 C2582 1.397 . S
C2583 C2584 1.334 . S
C2584 H2555 0.950 . S
C2584 C2583 1.334 . S
C2584 C2585 1.287 . S
C2585 C2584 1.287 . S
C2585 C2586 1.524 . S
C2585 H2588 0.999 . S
C2586 H2556 0.950 . S
C2586 C2585 1.524 . S
C2586 C2587 1.415 . S
C2587 H2557 0.950 . S
C2587 C2582 1.363 . S
C2587 C2586 1.415 . S
H2588 C2585 0.999 . S
H2589 C2570 0.913 . S
H2590 C2608 0.951 . S
H2591 C2610 0.951 . S
H2592 C2612 0.950 . S
H2593 C2613 0.950 . S
H2594 C2615 0.950 . S
H2595 C2618 0.950 . S
H2596 C2619 0.950 . S
H2597 C2621 0.950 . S
H2598 C2622 0.950 . S
H2599 C2623 0.951 . S
H2600 C2625 0.951 . S
H2601 C2627 0.950 . S
H2602 C2628 0.950 . S
H2603 C2630 0.950 . S
H2604 C2633 0.950 . S
H2605 C2634 0.950 . S
H2606 C2636 0.950 . S
H2607 C2637 0.950 . S
C2608 H2590 0.951 . S
C2608 C2609 1.366 . S
C2608 C2610 1.388 . S
C2609 C2608 1.366 . S
C2609 C2613 1.385 . S
C2610 H2591 0.951 . S
C2610 C2608 1.388 . S
C2610 C2611 1.366 . S
C2611 C2610 1.366 . S
C2611 C2612 1.414 . S
C2611 C2614 1.499 . S
C2612 H2592 0.950 . S
C2612 C2611 1.414 . S
C2612 C2613 1.374 . S
C2613 H2593 0.950 . S
C2613 C2609 1.385 . S
C2613 C2612 1.374 . S
C2614 C2611 1.499 . S
C2614 C2615 1.373 . S
C2614 C2616 1.389 . S
C2615 H2594 0.950 . S
C2615 C2614 1.373 . S
C2615 C2631 1.377 . S
C2616 C2614 1.389 . S
C2616 C2617 1.524 . S
C2616 C2630 1.377 . S
C2617 C2616 1.524 . S
C2617 C2618 1.397 . S
C2617 C2622 1.363 . S
C2618 H2595 0.950 . S
C2618 C2617 1.397 . S
C2618 C2619 1.334 . S
C2619 H2596 0.950 . S
C2619 C2618 1.334 . S
C2619 C2620 1.287 . S
C2620 C2619 1.287 . S
C2620 C2621 1.524 . S
C2620 H2639 0.913 . S
C2621 H2597 0.950 . S
C2621 C2620 1.524 . S
C2621 C2622 1.415 . S
C2622 H2598 0.950 . S
C2622 C2617 1.363 . S
C2622 C2621 1.415 . S
C2623 H2599 0.951 . S
C2623 C2624 1.366 . S
C2623 C2625 1.388 . S
C2624 C2623 1.366 . S
C2624 C2628 1.385 . S
C2625 H2600 0.951 . S
C2625 C2623 1.388 . S
C2625 C2626 1.366 . S
C2626 C2625 1.366 . S
C2626 C2627 1.414 . S
C2626 C2629 1.499 . S
C2627 H2601 0.950 . S
C2627 C2626 1.414 . S
C2627 C2628 1.374 . S
C2628 H2602 0.950 . S
C2628 C2624 1.385 . S
C2628 C2627 1.374 . S
C2629 C2626 1.499 . S
C2629 C2630 1.373 . S
C2629 C2631 1.389 . S
C2630 H2603 0.950 . S
C2630 C2616 1.377 . S
C2630 C2629 1.373 . S
C2631 C2615 1.377 . S
C2631 C2629 1.389 . S
C2631 C2632 1.524 . S
C2632 C2631 1.524 . S
C2632 C2633 1.397 . S
C2632 C2637 1.363 . S
C2633 H2604 0.950 . S
C2633 C2632 1.397 . S
C2633 C2634 1.334 . S
C2634 H2605 0.950 . S
C2634 C2633 1.334 . S
C2634 C2635 1.287 . S
C2635 C2634 1.287 . S
C2635 C2636 1.524 . S
C2635 H2638 0.999 . S
C2636 H2606 0.950 . S
C2636 C2635 1.524 . S
C2636 C2637 1.415 . S
C2637 H2607 0.950 . S
C2637 C2632 1.363 . S
C2637 C2636 1.415 . S
H2638 C2635 0.999 . S
H2639 C2620 0.913 . S
H2640 C2658 0.951 . S
H2641 C2660 0.951 . S
H2642 C2662 0.950 . S
H2643 C2663 0.950 . S
H2644 C2665 0.950 . S
H2645 C2668 0.950 . S
H2646 C2669 0.950 . S
H2647 C2671 0.950 . S
H2648 C2672 0.950 . S
H2649 C2673 0.951 . S
H2650 C2675 0.951 . S
H2651 C2677 0.950 . S
H2652 C2678 0.950 . S
H2653 C2680 0.950 . S
H2654 C2683 0.950 . S
H2655 C2684 0.950 . S
H2656 C2686 0.950 . S
H2657 C2687 0.950 . S
C2658 H2640 0.951 . S
C2658 C2659 1.366 . S
C2658 C2660 1.388 1_556 S
C2659 C2658 1.366 . S
C2659 C2663 1.385 . S
C2660 H2641 0.951 . S
C2660 C2658 1.388 1_554 S
C2660 C2661 1.366 . S
C2661 C2660 1.366 . S
C2661 C2662 1.414 . S
C2661 C2664 1.499 . S
C2662 H2642 0.950 . S
C2662 C2661 1.414 . S
C2662 C2663 1.374 1_554 S
C2663 H2643 0.950 . S
C2663 C2659 1.385 . S
C2663 C2662 1.374 1_556 S
C2664 C2661 1.499 . S
C2664 C2665 1.373 . S
C2664 C2666 1.389 . S
C2665 H2644 0.950 . S
C2665 C2664 1.373 . S
C2665 C2681 1.377 . S
C2666 C2664 1.389 . S
C2666 C2667 1.524 . S
C2666 C2680 1.377 . S
C2667 C2666 1.524 . S
C2667 C2668 1.397 . S
C2667 C2672 1.363 . S
C2668 H2645 0.950 . S
C2668 C2667 1.397 . S
C2668 C2669 1.334 . S
C2669 H2646 0.950 . S
C2669 C2668 1.334 . S
C2669 C2670 1.287 . S
C2670 C2669 1.287 . S
C2670 C2671 1.524 . S
C2670 H2689 0.913 . S
C2671 H2647 0.950 . S
C2671 C2670 1.524 . S
C2671 C2672 1.415 . S
C2672 H2648 0.950 . S
C2672 C2667 1.363 . S
C2672 C2671 1.415 . S
C2673 H2649 0.951 . S
C2673 C2674 1.366 . S
C2673 C2675 1.388 . S
C2674 C2673 1.366 . S
C2674 C2678 1.385 . S
C2675 H2650 0.951 . S
C2675 C2673 1.388 . S
C2675 C2676 1.366 . S
C2676 C2675 1.366 . S
C2676 C2677 1.414 . S
C2676 C2679 1.499 . S
C2677 H2651 0.950 . S
C2677 C2676 1.414 . S
C2677 C2678 1.374 . S
C2678 H2652 0.950 . S
C2678 C2674 1.385 . S
C2678 C2677 1.374 . S
C2679 C2676 1.499 . S
C2679 C2680 1.373 . S
C2679 C2681 1.389 . S
C2680 H2653 0.950 . S
C2680 C2666 1.377 . S
C2680 C2679 1.373 . S
C2681 C2665 1.377 . S
C2681 C2679 1.389 . S
C2681 C2682 1.524 . S
C2682 C2681 1.524 . S
C2682 C2683 1.397 . S
C2682 C2687 1.363 . S
C2683 H2654 0.950 . S
C2683 C2682 1.397 . S
C2683 C2684 1.334 . S
C2684 H2655 0.950 . S
C2684 C2683 1.334 . S
C2684 C2685 1.287 . S
C2685 C2684 1.287 . S
C2685 C2686 1.524 . S
C2685 H2688 0.999 . S
C2686 H2656 0.950 . S
C2686 C2685 1.524 . S
C2686 C2687 1.415 . S
C2687 H2657 0.950 . S
C2687 C2682 1.363 . S
C2687 C2686 1.415 . S
H2688 C2685 0.999 . S
H2689 C2670 0.913 . S
H2690 C2708 0.951 . S
H2691 C2710 0.951 . S
H2692 C2712 0.950 . S
H2693 C2713 0.950 . S
H2694 C2715 0.950 . S
H2695 C2718 0.950 . S
H2696 C2719 0.950 . S
H2697 C2721 0.950 . S
H2698 C2722 0.950 . S
H2699 C2723 0.951 . S
H2700 C2725 0.951 . S
H2701 C2727 0.950 . S
H2702 C2728 0.950 . S
H2703 C2730 0.950 . S
H2704 C2733 0.950 . S
H2705 C2734 0.950 . S
H2706 C2736 0.950 . S
H2707 C2737 0.950 . S
C2708 H2690 0.951 . S
C2708 C2709 1.366 . S
C2708 C2710 1.388 . S
C2709 C2708 1.366 . S
C2709 C2713 1.385 . S
C2710 H2691 0.951 . S
C2710 C2708 1.388 . S
C2710 C2711 1.366 . S
C2711 C2710 1.366 . S
C2711 C2712 1.414 . S
C2711 C2714 1.499 . S
C2712 H2692 0.950 . S
C2712 C2711 1.414 . S
C2712 C2713 1.374 . S
C2713 H2693 0.950 . S
C2713 C2709 1.385 . S
C2713 C2712 1.374 . S
C2714 C2711 1.499 . S
C2714 C2715 1.373 . S
C2714 C2716 1.389 . S
C2715 H2694 0.950 . S
C2715 C2714 1.373 . S
C2715 C2731 1.377 . S
C2716 C2714 1.389 . S
C2716 C2717 1.524 . S
C2716 C2730 1.377 . S
C2717 C2716 1.524 . S
C2717 C2718 1.397 . S
C2717 C2722 1.363 . S
C2718 H2695 0.950 . S
C2718 C2717 1.397 . S
C2718 C2719 1.334 . S
C2719 H2696 0.950 . S
C2719 C2718 1.334 . S
C2719 C2720 1.287 . S
C2720 C2719 1.287 . S
C2720 C2721 1.524 . S
C2720 H2739 0.913 . S
C2721 H2697 0.950 . S
C2721 C2720 1.524 . S
C2721 C2722 1.415 . S
C2722 H2698 0.950 . S
C2722 C2717 1.363 . S
C2722 C2721 1.415 . S
C2723 H2699 0.951 . S
C2723 C2724 1.366 . S
C2723 C2725 1.388 1_554 S
C2724 C2723 1.366 . S
C2724 C2728 1.385 . S
C2725 H2700 0.951 . S
C2725 C2723 1.388 1_556 S
C2725 C2726 1.366 . S
C2726 C2725 1.366 . S
C2726 C2727 1.414 . S
C2726 C2729 1.499 . S
C2727 H2701 0.950 . S
C2727 C2726 1.414 . S
C2727 C2728 1.374 1_556 S
C2728 H2702 0.950 . S
C2728 C2724 1.385 . S
C2728 C2727 1.374 1_554 S
C2729 C2726 1.499 . S
C2729 C2730 1.373 . S
C2729 C2731 1.389 . S
C2730 H2703 0.950 . S
C2730 C2716 1.377 . S
C2730 C2729 1.373 . S
C2731 C2715 1.377 . S
C2731 C2729 1.389 . S
C2731 C2732 1.524 . S
C2732 C2731 1.524 . S
C2732 C2733 1.397 . S
C2732 C2737 1.363 . S
C2733 H2704 0.950 . S
C2733 C2732 1.397 . S
C2733 C2734 1.334 . S
C2734 H2705 0.950 . S
C2734 C2733 1.334 . S
C2734 C2735 1.287 . S
C2735 C2734 1.287 . S
C2735 C2736 1.524 . S
C2735 H2738 0.999 . S
C2736 H2706 0.950 . S
C2736 C2735 1.524 . S
C2736 C2737 1.415 . S
C2737 H2707 0.950 . S
C2737 C2732 1.363 . S
C2737 C2736 1.415 . S
H2738 C2735 0.999 . S
H2739 C2720 0.913 . S
H2740 C2758 0.951 . S
H2741 C2760 0.951 . S
H2742 C2762 0.950 . S
H2743 C2763 0.950 . S
H2744 C2765 0.950 . S
H2745 C2768 0.950 . S
H2746 C2769 0.950 . S
H2747 C2771 0.950 . S
H2748 C2772 0.950 . S
H2749 C2773 0.951 . S
H2750 C2775 0.951 . S
H2751 C2777 0.950 . S
H2752 C2778 0.950 . S
H2753 C2780 0.950 . S
H2754 C2783 0.950 . S
H2755 C2784 0.950 . S
H2756 C2786 0.950 . S
H2757 C2787 0.950 . S
C2758 H2740 0.951 . S
C2758 C2759 1.366 . S
C2758 C2760 1.388 . S
C2759 C2758 1.366 . S
C2759 C2763 1.385 . S
C2760 H2741 0.951 . S
C2760 C2758 1.388 . S
C2760 C2761 1.366 . S
C2761 C2760 1.366 . S
C2761 C2762 1.414 . S
C2761 C2764 1.499 . S
C2762 H2742 0.950 . S
C2762 C2761 1.414 . S
C2762 C2763 1.374 . S
C2763 H2743 0.950 . S
C2763 C2759 1.385 . S
C2763 C2762 1.374 . S
C2764 C2761 1.499 . S
C2764 C2765 1.373 . S
C2764 C2766 1.389 . S
C2765 H2744 0.950 . S
C2765 C2764 1.373 . S
C2765 C2781 1.377 . S
C2766 C2764 1.389 . S
C2766 C2767 1.524 . S
C2766 C2780 1.377 . S
C2767 C2766 1.524 . S
C2767 C2768 1.397 . S
C2767 C2772 1.363 . S
C2768 H2745 0.950 . S
C2768 C2767 1.397 . S
C2768 C2769 1.334 . S
C2769 H2746 0.950 . S
C2769 C2768 1.334 . S
C2769 C2770 1.287 . S
C2770 C2769 1.287 . S
C2770 C2771 1.524 . S
C2770 H2789 0.913 . S
C2771 H2747 0.950 . S
C2771 C2770 1.524 . S
C2771 C2772 1.415 . S
C2772 H2748 0.950 . S
C2772 C2767 1.363 . S
C2772 C2771 1.415 . S
C2773 H2749 0.951 . S
C2773 C2774 1.366 . S
C2773 C2775 1.388 1_556 S
C2774 C2773 1.366 . S
C2774 C2778 1.385 . S
C2775 H2750 0.951 . S
C2775 C2773 1.388 1_554 S
C2775 C2776 1.366 . S
C2776 C2775 1.366 . S
C2776 C2777 1.414 . S
C2776 C2779 1.499 . S
C2777 H2751 0.950 . S
C2777 C2776 1.414 . S
C2777 C2778 1.374 1_554 S
C2778 H2752 0.950 . S
C2778 C2774 1.385 . S
C2778 C2777 1.374 1_556 S
C2779 C2776 1.499 . S
C2779 C2780 1.373 . S
C2779 C2781 1.389 . S
C2780 H2753 0.950 . S
C2780 C2766 1.377 . S
C2780 C2779 1.373 . S
C2781 C2765 1.377 . S
C2781 C2779 1.389 . S
C2781 C2782 1.524 . S
C2782 C2781 1.524 . S
C2782 C2783 1.397 . S
C2782 C2787 1.363 . S
C2783 H2754 0.950 . S
C2783 C2782 1.397 . S
C2783 C2784 1.334 . S
C2784 H2755 0.950 . S
C2784 C2783 1.334 . S
C2784 C2785 1.287 . S
C2785 C2784 1.287 . S
C2785 C2786 1.524 . S
C2785 H2788 0.999 . S
C2786 H2756 0.950 . S
C2786 C2785 1.524 . S
C2786 C2787 1.415 . S
C2787 H2757 0.950 . S
C2787 C2782 1.363 . S
C2787 C2786 1.415 . S
H2788 C2785 0.999 . S
H2789 C2770 0.913 . S
H2790 C2808 0.951 . S
H2791 C2810 0.951 . S
H2792 C2812 0.950 . S
H2793 C2813 0.950 . S
H2794 C2815 0.950 . S
H2795 C2818 0.950 . S
H2796 C2819 0.950 . S
H2797 C2821 0.950 . S
H2798 C2822 0.950 . S
H2799 C2823 0.951 . S
H2800 C2825 0.951 . S
H2801 C2827 0.950 . S
H2802 C2828 0.950 . S
H2803 C2830 0.950 . S
H2804 C2833 0.950 . S
H2805 C2834 0.950 . S
H2806 C2836 0.950 . S
H2807 C2837 0.950 . S
C2808 H2790 0.951 . S
C2808 C2809 1.366 . S
C2808 C2810 1.388 1_554 S
C2809 C2808 1.366 . S
C2809 C2813 1.385 . S
C2810 H2791 0.951 . S
C2810 C2808 1.388 1_556 S
C2810 C2811 1.366 . S
C2811 C2810 1.366 . S
C2811 C2812 1.414 . S
C2811 C2814 1.499 . S
C2812 H2792 0.950 . S
C2812 C2811 1.414 . S
C2812 C2813 1.374 1_556 S
C2813 H2793 0.950 . S
C2813 C2809 1.385 . S
C2813 C2812 1.374 1_554 S
C2814 C2811 1.499 . S
C2814 C2815 1.373 . S
C2814 C2816 1.389 . S
C2815 H2794 0.950 . S
C2815 C2814 1.373 . S
C2815 C2831 1.377 . S
C2816 C2814 1.389 . S
C2816 C2817 1.524 . S
C2816 C2830 1.377 . S
C2817 C2816 1.524 . S
C2817 C2818 1.397 . S
C2817 C2822 1.363 . S
C2818 H2795 0.950 . S
C2818 C2817 1.397 . S
C2818 C2819 1.334 . S
C2819 H2796 0.950 . S
C2819 C2818 1.334 . S
C2819 C2820 1.287 . S
C2820 C2819 1.287 . S
C2820 C2821 1.524 . S
C2820 H2839 0.913 . S
C2821 H2797 0.950 . S
C2821 C2820 1.524 . S
C2821 C2822 1.415 . S
C2822 H2798 0.950 . S
C2822 C2817 1.363 . S
C2822 C2821 1.415 . S
C2823 H2799 0.951 . S
C2823 C2824 1.366 . S
C2823 C2825 1.388 . S
C2824 C2823 1.366 . S
C2824 C2828 1.385 . S
C2825 H2800 0.951 . S
C2825 C2823 1.388 . S
C2825 C2826 1.366 . S
C2826 C2825 1.366 . S
C2826 C2827 1.414 . S
C2826 C2829 1.499 . S
C2827 H2801 0.950 . S
C2827 C2826 1.414 . S
C2827 C2828 1.374 . S
C2828 H2802 0.950 . S
C2828 C2824 1.385 . S
C2828 C2827 1.374 . S
C2829 C2826 1.499 . S
C2829 C2830 1.373 . S
C2829 C2831 1.389 . S
C2830 H2803 0.950 . S
C2830 C2816 1.377 . S
C2830 C2829 1.373 . S
C2831 C2815 1.377 . S
C2831 C2829 1.389 . S
C2831 C2832 1.524 . S
C2832 C2831 1.524 . S
C2832 C2833 1.397 . S
C2832 C2837 1.363 . S
C2833 H2804 0.950 . S
C2833 C2832 1.397 . S
C2833 C2834 1.334 . S
C2834 H2805 0.950 . S
C2834 C2833 1.334 . S
C2834 C2835 1.287 . S
C2835 C2834 1.287 . S
C2835 C2836 1.524 . S
C2835 H2838 0.999 . S
C2836 H2806 0.950 . S
C2836 C2835 1.524 . S
C2836 C2837 1.415 . S
C2837 H2807 0.950 . S
C2837 C2832 1.363 . S
C2837 C2836 1.415 . S
H2838 C2835 0.999 . S
H2839 C2820 0.913 . S
H2840 C2858 0.951 . S
H2841 C2860 0.951 . S
H2842 C2862 0.950 . S
H2843 C2863 0.950 . S
H2844 C2865 0.950 . S
H2845 C2868 0.950 . S
H2846 C2869 0.950 . S
H2847 C2871 0.950 . S
H2848 C2872 0.950 . S
H2849 C2873 0.951 . S
H2850 C2875 0.951 . S
H2851 C2877 0.950 . S
H2852 C2878 0.950 . S
H2853 C2880 0.950 . S
H2854 C2883 0.950 . S
H2855 C2884 0.950 . S
H2856 C2886 0.950 . S
H2857 C2887 0.950 . S
C2858 H2840 0.951 . S
C2858 C2859 1.366 . S
C2858 C2860 1.388 . S
C2859 C2858 1.366 . S
C2859 C2863 1.385 . S
C2860 H2841 0.951 . S
C2860 C2858 1.388 . S
C2860 C2861 1.366 . S
C2861 C2860 1.366 . S
C2861 C2862 1.414 . S
C2861 C2864 1.499 . S
C2862 H2842 0.950 . S
C2862 C2861 1.414 . S
C2862 C2863 1.374 . S
C2863 H2843 0.950 . S
C2863 C2859 1.385 . S
C2863 C2862 1.374 . S
C2864 C2861 1.499 . S
C2864 C2865 1.373 . S
C2864 C2866 1.389 . S
C2865 H2844 0.950 . S
C2865 C2864 1.373 . S
C2865 C2881 1.377 . S
C2866 C2864 1.389 . S
C2866 C2867 1.524 . S
C2866 C2880 1.377 . S
C2867 C2866 1.524 . S
C2867 C2868 1.397 . S
C2867 C2872 1.363 . S
C2868 H2845 0.950 . S
C2868 C2867 1.397 . S
C2868 C2869 1.334 . S
C2869 H2846 0.950 . S
C2869 C2868 1.334 . S
C2869 C2870 1.287 . S
C2870 C2869 1.287 . S
C2870 C2871 1.524 . S
C2870 H2889 0.913 . S
C2871 H2847 0.950 . S
C2871 C2870 1.524 . S
C2871 C2872 1.415 . S
C2872 H2848 0.950 . S
C2872 C2867 1.363 . S
C2872 C2871 1.415 . S
C2873 H2849 0.951 . S
C2873 C2874 1.366 . S
C2873 C2875 1.388 1_556 S
C2874 C2873 1.366 . S
C2874 C2878 1.385 . S
C2875 H2850 0.951 . S
C2875 C2873 1.388 1_554 S
C2875 C2876 1.366 . S
C2876 C2875 1.366 . S
C2876 C2877 1.414 . S
C2876 C2879 1.499 . S
C2877 H2851 0.950 . S
C2877 C2876 1.414 . S
C2877 C2878 1.374 1_554 S
C2878 H2852 0.950 . S
C2878 C2874 1.385 . S
C2878 C2877 1.374 1_556 S
C2879 C2876 1.499 . S
C2879 C2880 1.373 . S
C2879 C2881 1.389 . S
C2880 H2853 0.950 . S
C2880 C2866 1.377 . S
C2880 C2879 1.373 . S
C2881 C2865 1.377 . S
C2881 C2879 1.389 . S
C2881 C2882 1.524 . S
C2882 C2881 1.524 . S
C2882 C2883 1.397 . S
C2882 C2887 1.363 . S
C2883 H2854 0.950 . S
C2883 C2882 1.397 . S
C2883 C2884 1.334 . S
C2884 H2855 0.950 . S
C2884 C2883 1.334 . S
C2884 C2885 1.287 . S
C2885 C2884 1.287 . S
C2885 C2886 1.524 . S
C2885 H2888 0.999 . S
C2886 H2856 0.950 . S
C2886 C2885 1.524 . S
C2886 C2887 1.415 . S
C2887 H2857 0.950 . S
C2887 C2882 1.363 . S
C2887 C2886 1.415 . S
H2888 C2885 0.999 . S
H2889 C2870 0.913 . S
H2890 C2908 0.951 . S
H2891 C2910 0.951 . S
H2892 C2912 0.950 . S
H2893 C2913 0.950 . S
H2894 C2915 0.950 . S
H2895 C2918 0.950 . S
H2896 C2919 0.950 . S
H2897 C2921 0.950 . S
H2898 C2922 0.950 . S
H2899 C2923 0.951 . S
H2900 C2925 0.951 . S
H2901 C2927 0.950 . S
H2902 C2928 0.950 . S
H2903 C2930 0.950 . S
H2904 C2933 0.950 . S
H2905 C2934 0.950 . S
H2906 C2936 0.950 . S
H2907 C2937 0.950 . S
C2908 H2890 0.951 . S
C2908 C2909 1.366 . S
C2908 C2910 1.388 1_554 S
C2909 C2908 1.366 . S
C2909 C2913 1.385 . S
C2910 H2891 0.951 . S
C2910 C2908 1.388 1_556 S
C2910 C2911 1.366 . S
C2911 C2910 1.366 . S
C2911 C2912 1.414 . S
C2911 C2914 1.499 . S
C2912 H2892 0.950 . S
C2912 C2911 1.414 . S
C2912 C2913 1.374 1_556 S
C2913 H2893 0.950 . S
C2913 C2909 1.385 . S
C2913 C2912 1.374 1_554 S
C2914 C2911 1.499 . S
C2914 C2915 1.373 . S
C2914 C2916 1.389 . S
C2915 H2894 0.950 . S
C2915 C2914 1.373 . S
C2915 C2931 1.377 . S
C2916 C2914 1.389 . S
C2916 C2917 1.524 . S
C2916 C2930 1.377 . S
C2917 C2916 1.524 . S
C2917 C2918 1.397 . S
C2917 C2922 1.363 . S
C2918 H2895 0.950 . S
C2918 C2917 1.397 . S
C2918 C2919 1.334 . S
C2919 H2896 0.950 . S
C2919 C2918 1.334 . S
C2919 C2920 1.287 . S
C2920 C2919 1.287 . S
C2920 C2921 1.524 . S
C2920 H2939 0.913 . S
C2921 H2897 0.950 . S
C2921 C2920 1.524 . S
C2921 C2922 1.415 . S
C2922 H2898 0.950 . S
C2922 C2917 1.363 . S
C2922 C2921 1.415 . S
C2923 H2899 0.951 . S
C2923 C2924 1.366 . S
C2923 C2925 1.388 . S
C2924 C2923 1.366 . S
C2924 C2928 1.385 . S
C2925 H2900 0.951 . S
C2925 C2923 1.388 . S
C2925 C2926 1.366 . S
C2926 C2925 1.366 . S
C2926 C2927 1.414 . S
C2926 C2929 1.499 . S
C2927 H2901 0.950 . S
C2927 C2926 1.414 . S
C2927 C2928 1.374 . S
C2928 H2902 0.950 . S
C2928 C2924 1.385 . S
C2928 C2927 1.374 . S
C2929 C2926 1.499 . S
C2929 C2930 1.373 . S
C2929 C2931 1.389 . S
C2930 H2903 0.950 . S
C2930 C2916 1.377 . S
C2930 C2929 1.373 . S
C2931 C2915 1.377 . S
C2931 C2929 1.389 . S
C2931 C2932 1.524 . S
C2932 C2931 1.524 . S
C2932 C2933 1.397 . S
C2932 C2937 1.363 . S
C2933 H2904 0.950 . S
C2933 C2932 1.397 . S
C2933 C2934 1.334 . S
C2934 H2905 0.950 . S
C2934 C2933 1.334 . S
C2934 C2935 1.287 . S
C2935 C2934 1.287 . S
C2935 C2936 1.524 . S
C2935 H2938 0.999 . S
C2936 H2906 0.950 . S
C2936 C2935 1.524 . S
C2936 C2937 1.415 . S
C2937 H2907 0.950 . S
C2937 C2932 1.363 . S
C2937 C2936 1.415 . S
H2938 C2935 0.999 . S
H2939 C2920 0.913 . S
H2940 C2958 0.951 . S
H2941 C2960 0.951 . S
H2942 C2962 0.950 . S
H2943 C2963 0.950 . S
H2944 C2965 0.950 . S
H2945 C2968 0.950 . S
H2946 C2969 0.950 . S
H2947 C2971 0.950 . S
H2948 C2972 0.950 . S
H2949 C2973 0.951 . S
H2950 C2975 0.951 . S
H2951 C2977 0.950 . S
H2952 C2978 0.950 . S
H2953 C2980 0.950 . S
H2954 C2983 0.950 . S
H2955 C2984 0.950 . S
H2956 C2986 0.950 . S
H2957 C2987 0.950 . S
C2958 H2940 0.951 . S
C2958 C2959 1.366 . S
C2958 C2960 1.388 1_556 S
C2959 C2958 1.366 . S
C2959 C2963 1.385 . S
C2960 H2941 0.951 . S
C2960 C2958 1.388 1_554 S
C2960 C2961 1.366 . S
C2961 C2960 1.366 . S
C2961 C2962 1.414 . S
C2961 C2964 1.499 . S
C2962 H2942 0.950 . S
C2962 C2961 1.414 . S
C2962 C2963 1.374 1_554 S
C2963 H2943 0.950 . S
C2963 C2959 1.385 . S
C2963 C2962 1.374 1_556 S
C2964 C2961 1.499 . S
C2964 C2965 1.373 . S
C2964 C2966 1.389 . S
C2965 H2944 0.950 . S
C2965 C2964 1.373 . S
C2965 C2981 1.377 . S
C2966 C2964 1.389 . S
C2966 C2967 1.524 . S
C2966 C2980 1.377 . S
C2967 C2966 1.524 . S
C2967 C2968 1.397 . S
C2967 C2972 1.363 . S
C2968 H2945 0.950 . S
C2968 C2967 1.397 . S
C2968 C2969 1.334 . S
C2969 H2946 0.950 . S
C2969 C2968 1.334 . S
C2969 C2970 1.287 . S
C2970 C2969 1.287 . S
C2970 C2971 1.524 . S
C2970 H2989 0.913 . S
C2971 H2947 0.950 . S
C2971 C2970 1.524 . S
C2971 C2972 1.415 . S
C2972 H2948 0.950 . S
C2972 C2967 1.363 . S
C2972 C2971 1.415 . S
C2973 H2949 0.951 . S
C2973 C2974 1.366 . S
C2973 C2975 1.388 . S
C2974 C2973 1.366 . S
C2974 C2978 1.385 . S
C2975 H2950 0.951 . S
C2975 C2973 1.388 . S
C2975 C2976 1.366 . S
C2976 C2975 1.366 . S
C2976 C2977 1.414 . S
C2976 C2979 1.499 . S
C2977 H2951 0.950 . S
C2977 C2976 1.414 . S
C2977 C2978 1.374 . S
C2978 H2952 0.950 . S
C2978 C2974 1.385 . S
C2978 C2977 1.374 . S
C2979 C2976 1.499 . S
C2979 C2980 1.373 . S
C2979 C2981 1.389 . S
C2980 H2953 0.950 . S
C2980 C2966 1.377 . S
C2980 C2979 1.373 . S
C2981 C2965 1.377 . S
C2981 C2979 1.389 . S
C2981 C2982 1.524 . S
C2982 C2981 1.524 . S
C2982 C2983 1.397 . S
C2982 C2987 1.363 . S
C2983 H2954 0.950 . S
C2983 C2982 1.397 . S
C2983 C2984 1.334 . S
C2984 H2955 0.950 . S
C2984 C2983 1.334 . S
C2984 C2985 1.287 . S
C2985 C2984 1.287 . S
C2985 C2986 1.524 . S
C2985 H2988 0.999 . S
C2986 H2956 0.950 . S
C2986 C2985 1.524 . S
C2986 C2987 1.415 . S
C2987 H2957 0.950 . S
C2987 C2982 1.363 . S
C2987 C2986 1.415 . S
H2988 C2985 0.999 . S
H2989 C2970 0.913 . S
H2990 C3008 0.951 . S
H2991 C3010 0.951 . S
H2992 C3012 0.950 . S
H2993 C3013 0.950 . S
H2994 C3015 0.950 . S
H2995 C3018 0.950 . S
H2996 C3019 0.950 . S
H2997 C3021 0.950 . S
H2998 C3022 0.950 . S
H2999 C3023 0.951 . S
H3000 C3025 0.951 . S
H3001 C3027 0.950 . S
H3002 C3028 0.950 . S
H3003 C3030 0.950 . S
H3004 C3033 0.950 . S
H3005 C3034 0.950 . S
H3006 C3036 0.950 . S
H3007 C3037 0.950 . S
C3008 H2990 0.951 . S
C3008 C3009 1.366 . S
C3008 C3010 1.388 . S
C3009 C3008 1.366 . S
C3009 C3013 1.385 . S
C3010 H2991 0.951 . S
C3010 C3008 1.388 . S
C3010 C3011 1.366 . S
C3011 C3010 1.366 . S
C3011 C3012 1.414 . S
C3011 C3014 1.499 . S
C3012 H2992 0.950 . S
C3012 C3011 1.414 . S
C3012 C3013 1.374 . S
C3013 H2993 0.950 . S
C3013 C3009 1.385 . S
C3013 C3012 1.374 . S
C3014 C3011 1.499 . S
C3014 C3015 1.373 . S
C3014 C3016 1.389 . S
C3015 H2994 0.950 . S
C3015 C3014 1.373 . S
C3015 C3031 1.377 . S
C3016 C3014 1.389 . S
C3016 C3017 1.524 . S
C3016 C3030 1.377 . S
C3017 C3016 1.524 . S
C3017 C3018 1.397 . S
C3017 C3022 1.363 . S
C3018 H2995 0.950 . S
C3018 C3017 1.397 . S
C3018 C3019 1.334 . S
C3019 H2996 0.950 . S
C3019 C3018 1.334 . S
C3019 C3020 1.287 . S
C3020 C3019 1.287 . S
C3020 C3021 1.524 . S
C3020 H3039 0.913 . S
C3021 H2997 0.950 . S
C3021 C3020 1.524 . S
C3021 C3022 1.415 . S
C3022 H2998 0.950 . S
C3022 C3017 1.363 . S
C3022 C3021 1.415 . S
C3023 H2999 0.951 . S
C3023 C3024 1.366 . S
C3023 C3025 1.388 1_554 S
C3024 C3023 1.366 . S
C3024 C3028 1.385 . S
C3025 H3000 0.951 . S
C3025 C3023 1.388 1_556 S
C3025 C3026 1.366 . S
C3026 C3025 1.366 . S
C3026 C3027 1.414 . S
C3026 C3029 1.499 . S
C3027 H3001 0.950 . S
C3027 C3026 1.414 . S
C3027 C3028 1.374 1_556 S
C3028 H3002 0.950 . S
C3028 C3024 1.385 . S
C3028 C3027 1.374 1_554 S
C3029 C3026 1.499 . S
C3029 C3030 1.373 . S
C3029 C3031 1.389 . S
C3030 H3003 0.950 . S
C3030 C3016 1.377 . S
C3030 C3029 1.373 . S
C3031 C3015 1.377 . S
C3031 C3029 1.389 . S
C3031 C3032 1.524 . S
C3032 C3031 1.524 . S
C3032 C3033 1.397 . S
C3032 C3037 1.363 . S
C3033 H3004 0.950 . S
C3033 C3032 1.397 . S
C3033 C3034 1.334 . S
C3034 H3005 0.950 . S
C3034 C3033 1.334 . S
C3034 C3035 1.287 . S
C3035 C3034 1.287 . S
C3035 C3036 1.524 . S
C3035 H3038 0.999 . S
C3036 H3006 0.950 . S
C3036 C3035 1.524 . S
C3036 C3037 1.415 . S
C3037 H3007 0.950 . S
C3037 C3032 1.363 . S
C3037 C3036 1.415 . S
H3038 C3035 0.999 . S
H3039 C3020 0.913 . S
C659 C451 1.710 . S
C674 C19 1.713 . S
C709 C322 1.710 . S
C724 C50 1.713 . S
C759 C99 1.713 . S
C774 C371 1.709 . S
C809 C130 1.713 . S
C824 C402 1.710 . S
C859 C179 1.713 . S
C874 C211 1.709 . S
C909 C242 1.709 . S
C924 C210 1.713 . S
C959 C259 1.713 . S
C974 C291 1.709 . S
C1009 C162 1.709 . S
C1024 C290 1.713 . S
C1059 C131 1.709 . S
C1074 C339 1.713 . S
C1109 C370 1.713 . S
C1124 C2 1.710 . S
C1159 C51 1.710 . S
C1174 C419 1.713 . S
C1209 C82 1.709 . S
C1224 C450 1.713 . S
C1259 C499 1.713 . S
C1274 C531 1.709 . S
C1309 C562 1.709 . S
C1324 C530 1.713 . S
C1359 C611 1.709 . S
C1374 C579 1.713 . S
C1409 C610 1.713 . S
C1424 C482 1.709 . S
C1459 C10 1.141 . S
C1474 C170 1.141 . S
C1509 C219 1.142 . S
C1524 C59 1.141 . S
C1559 C90 1.141 . S
C1574 C250 1.141 . S
C1609 C139 1.141 . S
C1624 C299 1.141 . S
C1659 C330 1.141 . S
C1674 C490 1.142 . S
C1709 C539 1.141 . S
C1724 C379 1.142 . S
C1759 C410 1.141 . S
C1774 C570 1.141 . S
C1809 C459 1.142 . S
C1824 C619 1.142 . S
C1859 C571 2.244 . S
C1874 C11 2.244 . S
C1909 C42 2.244 . S
C1924 C602 2.244 . S
C1959 C91 2.244 . S
C1974 C491 2.244 . S
C2009 C122 2.244 . S
C2024 C522 2.244 . S
C2059 C171 2.244 . S
C2074 C411 2.244 . S
C2109 C202 2.244 . S
C2124 C442 2.244 . S
C2159 C251 2.244 . S
C2174 C331 2.244 . S
C2209 C362 2.244 . S
C2224 C282 2.244 . S
C2259 C7 1.119 . S
C2274 C16 1.119 . S
C2309 C56 1.119 . S
C2324 C47 1.119 . S
C2359 C87 1.119 . S
C2374 C96 1.119 . S
C2409 C127 1.119 . S
C2424 C136 1.119 . S
C2459 C176 1.119 . S
C2474 C167 1.119 . S
C2509 C216 1.119 . S
C2524 C207 1.119 . S
C2559 C247 1.119 . S
C2574 C256 1.119 . S
C2609 C287 1.119 . S
C2624 C296 1.119 . S
C2659 C327 1.119 . S
C2674 C336 1.119 . S
C2709 C367 1.119 . S
C2724 C376 1.119 . S
C2759 C416 1.119 . S
C2774 C407 1.119 . S
C2809 C456 1.119 . S
C2824 C447 1.119 . S
C2859 C487 1.119 . S
C2874 C496 1.119 . S
C2909 C527 1.119 . S
C2924 C536 1.119 . S
C2959 C576 1.119 . S
C2974 C567 1.119 . S
C3009 C616 1.119 . S
C3024 C607 1.119 . S
