# Generated by pormake.
# Topology wmc, (6)-cn, num edge types: 1
# Building blocks:
#     Node 0, Type 0, BuildingBlock: JUFBIX_clean_sbu_0, # of connection points: 6
#     Node 1, Type 0, BuildingBlock: JUFBIX_clean_sbu_0, # of connection points: 6
#     Node 2, Type 0, BuildingBlock: JUFBIX_clean_sbu_0, # of connection points: 6
#     Node 3, Type 0, BuildingBlock: JUFBIX_clean_sbu_0, # of connection points: 6
#     Node 4, Type 0, BuildingBlock: JUFBIX_clean_sbu_0, # of connection points: 6
#     Node 5, Type 0, BuildingBlock: JUFBIX_clean_sbu_0, # of connection points: 6
#     Node 6, Type 0, BuildingBlock: JUFBIX_clean_sbu_0, # of connection points: 6
#     Node 7, Type 0, BuildingBlock: JUFBIX_clean_sbu_0, # of connection points: 6
#     Node 8, Type 0, BuildingBlock: JUFBIX_clean_sbu_0, # of connection points: 6
#     Node 9, Type 0, BuildingBlock: JUFBIX_clean_sbu_0, # of connection points: 6
#     Node 10, Type 0, BuildingBlock: JUFBIX_clean_sbu_0, # of connection points: 6
#     Node 11, Type 0, BuildingBlock: JUFBIX_clean_sbu_0, # of connection points: 6
#     Node 12, Type 0, BuildingBlock: JUFBIX_clean_sbu_0, # of connection points: 6
#     Node 13, Type 0, BuildingBlock: JUFBIX_clean_sbu_0, # of connection points: 6
#     Node 14, Type 0, BuildingBlock: JUFBIX_clean_sbu_0, # of connection points: 6
#     Node 15, Type 0, BuildingBlock: JUFBIX_clean_sbu_0, # of connection points: 6
#     Node 16, Type 0, BuildingBlock: JUFBIX_clean_sbu_0, # of connection points: 6
#     Node 17, Type 0, BuildingBlock: JUFBIX_clean_sbu_0, # of connection points: 6
#     Edge 18, Type (0, 0), BuildingBlock: XIVTED_clean_linker_0, # of connection points: 2
#     Edge 19, Type (0, 0), BuildingBlock: XIVTED_clean_linker_0, # of connection points: 2
#     Edge 20, Type (0, 0), BuildingBlock: XIVTED_clean_linker_0, # of connection points: 2
#     Edge 21, Type (0, 0), BuildingBlock: XIVTED_clean_linker_0, # of connection points: 2
#     Edge 22, Type (0, 0), BuildingBlock: XIVTED_clean_linker_0, # of connection points: 2
#     Edge 23, Type (0, 0), BuildingBlock: XIVTED_clean_linker_0, # of connection points: 2
#     Edge 24, Type (0, 0), BuildingBlock: XIVTED_clean_linker_0, # of connection points: 2
#     Edge 25, Type (0, 0), BuildingBlock: XIVTED_clean_linker_0, # of connection points: 2
#     Edge 26, Type (0, 0), BuildingBlock: XIVTED_clean_linker_0, # of connection points: 2
#     Edge 27, Type (0, 0), BuildingBlock: XIVTED_clean_linker_0, # of connection points: 2
#     Edge 28, Type (0, 0), BuildingBlock: XIVTED_clean_linker_0, # of connection points: 2
#     Edge 29, Type (0, 0), BuildingBlock: XIVTED_clean_linker_0, # of connection points: 2
#     Edge 30, Type (0, 0), BuildingBlock: XIVTED_clean_linker_0, # of connection points: 2
#     Edge 31, Type (0, 0), BuildingBlock: XIVTED_clean_linker_0, # of connection points: 2
#     Edge 32, Type (0, 0), BuildingBlock: XIVTED_clean_linker_0, # of connection points: 2
#     Edge 33, Type (0, 0), BuildingBlock: XIVTED_clean_linker_0, # of connection points: 2
#     Edge 34, Type (0, 0), BuildingBlock: XIVTED_clean_linker_0, # of connection points: 2
#     Edge 35, Type (0, 0), BuildingBlock: XIVTED_clean_linker_0, # of connection points: 2
#     Edge 36, Type (0, 0), BuildingBlock: XIVTED_clean_linker_0, # of connection points: 2
#     Edge 37, Type (0, 0), BuildingBlock: XIVTED_clean_linker_0, # of connection points: 2
#     Edge 38, Type (0, 0), BuildingBlock: XIVTED_clean_linker_0, # of connection points: 2
#     Edge 39, Type (0, 0), BuildingBlock: XIVTED_clean_linker_0, # of connection points: 2
#     Edge 40, Type (0, 0), BuildingBlock: XIVTED_clean_linker_0, # of connection points: 2
#     Edge 41, Type (0, 0), BuildingBlock: XIVTED_clean_linker_0, # of connection points: 2
#     Edge 42, Type (0, 0), BuildingBlock: XIVTED_clean_linker_0, # of connection points: 2
#     Edge 43, Type (0, 0), BuildingBlock: XIVTED_clean_linker_0, # of connection points: 2
#     Edge 44, Type (0, 0), BuildingBlock: XIVTED_clean_linker_0, # of connection points: 2
#     Edge 45, Type (0, 0), BuildingBlock: XIVTED_clean_linker_0, # of connection points: 2
#     Edge 46, Type (0, 0), BuildingBlock: XIVTED_clean_linker_0, # of connection points: 2
#     Edge 47, Type (0, 0), BuildingBlock: XIVTED_clean_linker_0, # of connection points: 2
#     Edge 48, Type (0, 0), BuildingBlock: XIVTED_clean_linker_0, # of connection points: 2
#     Edge 49, Type (0, 0), BuildingBlock: XIVTED_clean_linker_0, # of connection points: 2
#     Edge 50, Type (0, 0), BuildingBlock: XIVTED_clean_linker_0, # of connection points: 2
#     Edge 51, Type (0, 0), BuildingBlock: XIVTED_clean_linker_0, # of connection points: 2
#     Edge 52, Type (0, 0), BuildingBlock: XIVTED_clean_linker_0, # of connection points: 2
#     Edge 53, Type (0, 0), BuildingBlock: XIVTED_clean_linker_0, # of connection points: 2
#     Edge 54, Type (0, 0), BuildingBlock: XIVTED_clean_linker_0, # of connection points: 2
#     Edge 55, Type (0, 0), BuildingBlock: XIVTED_clean_linker_0, # of connection points: 2
#     Edge 56, Type (0, 0), BuildingBlock: XIVTED_clean_linker_0, # of connection points: 2
#     Edge 57, Type (0, 0), BuildingBlock: XIVTED_clean_linker_0, # of connection points: 2
#     Edge 58, Type (0, 0), BuildingBlock: XIVTED_clean_linker_0, # of connection points: 2
#     Edge 59, Type (0, 0), BuildingBlock: XIVTED_clean_linker_0, # of connection points: 2
#     Edge 60, Type (0, 0), BuildingBlock: XIVTED_clean_linker_0, # of connection points: 2
#     Edge 61, Type (0, 0), BuildingBlock: XIVTED_clean_linker_0, # of connection points: 2
#     Edge 62, Type (0, 0), BuildingBlock: XIVTED_clean_linker_0, # of connection points: 2
#     Edge 63, Type (0, 0), BuildingBlock: XIVTED_clean_linker_0, # of connection points: 2
#     Edge 64, Type (0, 0), BuildingBlock: XIVTED_clean_linker_0, # of connection points: 2
#     Edge 65, Type (0, 0), BuildingBlock: XIVTED_clean_linker_0, # of connection points: 2
#     Edge 66, Type (0, 0), BuildingBlock: XIVTED_clean_linker_0, # of connection points: 2
#     Edge 67, Type (0, 0), BuildingBlock: XIVTED_clean_linker_0, # of connection points: 2
#     Edge 68, Type (0, 0), BuildingBlock: XIVTED_clean_linker_0, # of connection points: 2
#     Edge 69, Type (0, 0), BuildingBlock: XIVTED_clean_linker_0, # of connection points: 2
#     Edge 70, Type (0, 0), BuildingBlock: XIVTED_clean_linker_0, # of connection points: 2
#     Edge 71, Type (0, 0), BuildingBlock: XIVTED_clean_linker_0, # of connection points: 2
# Relax obj value: 0.515
# Max RMSD: 0.260
# Mean RMSD: 0.260
data_MOF--net-wmc--node1-JUFBIX_clean_sbu_0--edge1-XIVTED_clean_linker_0
_symmetry_space_group_name_H-M    P1
_symmetry_Int_Tables_number       1
_symmetry_cell_setting            triclinic
loop_
_symmetry_equiv_pos_as_xyz
'x, y, z'
_cell_length_a     51.127003
_cell_length_b     51.113079
_cell_length_c     28.972201
_cell_angle_alpha  90.404801
_cell_angle_beta   89.7195
_cell_angle_gamma 120.14488
loop_
_atom_site_label
_atom_site_type_symbol
_atom_site_fract_x
_atom_site_fract_y
_atom_site_fract_z
_atom_type_partial_charge
Co0 Co 0.60524 0.10845 0.00266 0.0
C1 C 0.54511 0.07422 0.9777 0.0
Co2 Co 0.58321 0.13652 0.00221 0.0
C3 C 0.65409 0.10007 0.03387 0.0
C4 C 0.6311 0.07023 0.97737 0.0
N5 N 0.62952 0.09026 0.00603 0.0
N6 N 0.67137 0.0877 0.02317 0.0
C7 C 0.65661 0.06852 -0.01211 0.0
H8 H 0.65991 0.11703 0.06054 0.0
H9 H 0.61583 0.05904 0.94886 0.0
C10 C 0.64226 0.17138 0.02398 0.0
N11 N 0.56129 0.15659 0.00145 0.0
C12 C 0.5707 0.18592 -0.00773 0.0
C13 C 0.53222 0.14472 0.01479 0.0
N14 N 0.54867 0.19282 -0.0004 0.0
C15 C 0.52442 0.16678 0.01361 0.0
C16 C 0.57926 0.10924 0.08496 0.0
O17 O 0.64094 0.14615 0.01767 0.0
O18 O 0.61815 0.17252 0.02108 0.0
O19 O 0.57185 0.12597 0.0633 0.0
O20 O 0.59543 0.10003 0.06539 0.0
O21 O 0.5484 0.10046 0.98268 0.0
H22 H 0.51791 0.12172 0.0264 0.0
H23 H 0.59347 0.20197 0.98128 0.0
O24 O 0.56784 0.07071 0.98579 0.0
O25 O 0.61434 0.11681 0.93984 0.0
O26 O 0.5946 0.14655 0.94087 0.0
C27 C 0.60787 0.13475 0.91937 0.0
H28 H 0.66454 0.05547 0.96908 0.0
H29 H 0.50288 0.16406 0.0243 0.0
Co30 Co 0.92517 0.49933 0.00055 0.0
C31 C 0.96089 0.47371 0.97922 0.0
Co32 Co 0.89757 0.44978 0.98694 0.0
C33 C 0.93194 0.55383 0.04405 0.0
C34 C 0.96894 0.56495 -0.00176 0.0
N35 N 0.94404 0.5411 0.01601 0.0
N36 N 0.94781 0.58446 0.04391 0.0
C37 C 0.97138 0.59147 0.01539 0.0
H38 H 0.91136 0.54082 0.06368 0.0
H39 H 0.98364 0.56325 0.9729 0.0
C40 C 0.86143 0.4734 0.00513 0.0
N41 N 0.87624 0.40859 0.9742 0.0
C42 C 0.85057 0.38776 -0.00483 0.0
C43 C 0.88225 0.39288 0.94249 0.0
N44 N 0.84017 0.35969 0.97782 0.0
C45 C 0.86015 0.36278 0.94472 0.0
C46 C 0.91318 0.46269 0.07716 0.0
O47 O 0.8868 0.49742 0.01004 0.0
O48 O 0.86091 0.44901 -0.00458 0.0
O49 O 0.89847 0.44144 0.04864 0.0
O50 O 0.92659 0.49004 0.0637 0.0
O51 O 0.93449 0.45058 0.97769 0.0
H52 H 0.90127 0.40272 0.91897 0.0
H53 H 0.83976 0.39313 0.02292 0.0
O54 O 0.96363 0.49956 -0.0109 0.0
O55 O 0.92351 0.50772 0.93684 0.0
O56 O 0.89676 0.45847 0.92528 0.0
C57 C 0.90897 0.48523 0.90976 0.0
H58 H 0.98848 0.61418 0.0058 0.0
H59 H 0.85851 0.34476 0.92286 0.0
Co60 Co 0.53881 0.43503 -0.01021 0.0
C61 C 0.56484 0.49562 0.9675 0.0
Co62 Co 0.58771 0.45511 0.97372 0.0
C63 C 0.48477 0.38749 0.03372 0.0
C64 C 0.47369 0.41414 -0.00976 0.0
N65 N 0.49749 0.41277 0.00708 0.0
N66 N 0.45415 0.37263 0.03337 0.0
C67 C 0.44718 0.3897 0.00639 0.0
H68 H 0.49776 0.37946 0.05198 0.0
H69 H 0.47541 0.43078 0.9657 0.0
C70 C 0.56377 0.3959 -0.00665 0.0
N71 N 0.62814 0.47449 0.95746 0.0
C72 C 0.65079 0.47352 0.97963 0.0
C73 C 0.64088 0.49039 0.91867 0.0
N74 N 0.67697 0.48776 0.95588 0.0
C75 C 0.67088 0.49829 0.91738 0.0
C76 C 0.57753 0.46021 0.06492 0.0
O77 O 0.54016 0.39807 -0.00286 0.0
O78 O 0.58864 0.41937 0.98397 0.0
O79 O 0.59814 0.46663 0.0352 0.0
O80 O 0.54989 0.4458 0.05272 0.0
O81 O 0.58704 0.49112 0.96307 0.0
H82 H 0.62884 0.49492 0.89222 0.0
H83 H 0.64776 0.46115 0.01128 0.0
O84 O 0.53918 0.4735 0.98048 0.0
O85 O 0.52837 0.42508 0.92675 0.0
O86 O 0.57673 0.44321 0.91219 0.0
C87 C 0.54955 0.43065 0.89837 0.0
H88 H 0.42451 0.3841 -0.00324 0.0
H89 H 0.68679 0.51008 0.88978 0.0
Co90 Co 0.9029 0.46075 0.48329 0.0
C91 C 0.86646 0.40081 0.49987 0.0
Co92 Co 0.93056 0.43957 0.49929 0.0
C93 C 0.85694 0.47788 0.48402 0.0
C94 C 0.88784 0.49741 0.4275 0.0
N95 N 0.88235 0.48028 0.4655 0.0
N96 N 0.84615 0.49238 0.4586 0.0
C97 C 0.86545 0.50465 0.42296 0.0
H98 H 0.84556 0.46425 0.51396 0.0
H99 H 0.90622 0.50313 0.40354 0.0
C100 C 0.96647 0.50063 0.47962 0.0
N101 N 0.94907 0.41721 0.51733 0.0
C102 C 0.93567 0.39132 0.54254 0.0
C103 C 0.97502 0.41932 0.50219 0.0
N104 N 0.9517 0.37682 0.54287 0.0
C105 C 0.97674 0.39472 0.51788 0.0
C106 C 0.91813 0.43658 0.40844 0.0
O107 O 0.94011 0.49677 0.47395 0.0
O108 O 0.96908 0.47807 0.4926 0.0
O109 O 0.93315 0.43073 0.43705 0.0
O110 O 0.90328 0.44904 0.42181 0.0
O111 O 0.89206 0.40264 0.50379 0.0
H112 H 0.9908 0.43664 0.47904 0.0
H113 H 0.91391 0.38264 0.55921 0.0
O114 O 0.86559 0.42473 0.49226 0.0
O115 O 0.9029 0.47216 0.54481 0.0
O116 O 0.92797 0.44889 0.56175 0.0
C117 C 0.91557 0.46401 0.5744 0.0
H118 H 0.86298 0.51713 0.39493 0.0
H119 H 0.99432 0.38961 0.50922 0.0
Co120 Co 0.58505 0.4531 0.47338 0.0
C121 C 0.64509 0.47772 0.48937 0.0
Co122 Co 0.60568 0.50198 0.49099 0.0
C123 C 0.57121 0.39126 0.47546 0.0
C124 C 0.54326 0.39732 0.42702 0.0
N125 N 0.56557 0.41235 0.45802 0.0
N126 N 0.55344 0.36369 0.45654 0.0
C127 C 0.53568 0.36735 0.42614 0.0
H128 H 0.58801 0.39607 0.50178 0.0
H129 H 0.53338 0.40754 0.40605 0.0
C130 C 0.54434 0.47568 0.47246 0.0
N131 N 0.62795 0.5434 0.50767 0.0
C132 C 0.65364 0.55653 0.53348 0.0
C133 C 0.6264 0.56692 0.49011 0.0
N134 N 0.66861 0.58714 0.53185 0.0
C135 C 0.65116 0.59368 0.50495 0.0
C136 C 0.60695 0.49084 0.39826 0.0
O137 O 0.54823 0.4531 0.46769 0.0
O138 O 0.56712 0.50146 0.4834 0.0
O139 O 0.61445 0.51205 0.42757 0.0
O140 O 0.59371 0.46347 0.41123 0.0
O141 O 0.64284 0.50099 0.49699 0.0
H142 H 0.60947 0.5648 0.46573 0.0
H143 H 0.66192 0.5438 0.55185 0.0
O144 O 0.62166 0.45319 0.47843 0.0
O145 O 0.57665 0.4431 0.53578 0.0
O146 O 0.59607 0.49116 0.55403 0.0
C147 C 0.58294 0.4635 0.56595 0.0
H148 H 0.51896 0.34984 0.40402 0.0
H149 H 0.65672 0.61615 0.49434 0.0
Co150 Co 0.58844 0.13885 0.49778 0.0
C151 C 0.56426 0.17561 0.50076 0.0
Co152 Co 0.53818 0.11177 0.50571 0.0
C153 C 0.65041 0.18844 0.48193 0.0
C154 C 0.64868 0.14825 0.50631 0.0
N155 N 0.6308 0.15913 0.49252 0.0
N156 N 0.6796 0.19614 0.48887 0.0
C157 C 0.67843 0.1707 0.5039 0.0
H158 H 0.6434 0.20415 0.47094 0.0
H159 H 0.64076 0.12597 0.52021 0.0
C160 C 0.56332 0.07469 0.49939 0.0
N161 N 0.49587 0.09399 0.51414 0.0
C162 C 0.48218 0.10685 0.53809 0.0
C163 C 0.47287 0.06962 0.49361 0.0
N164 N 0.45174 0.09194 0.5328 0.0
C165 C 0.44587 0.06824 0.50507 0.0
C166 C 0.55775 0.12074 0.41615 0.0
O167 O 0.58691 0.1008 0.49864 0.0
O168 O 0.53742 0.07282 0.50357 0.0
O169 O 0.53402 0.10977 0.44105 0.0
O170 O 0.58384 0.13512 0.43444 0.0
O171 O 0.54022 0.15031 0.50587 0.0
H172 H 0.47563 0.05464 0.47009 0.0
H173 H 0.49453 0.12741 0.55818 0.0
O174 O 0.58918 0.17615 0.49628 0.0
O175 O 0.59255 0.14215 0.56095 0.0
O176 O 0.54335 0.11384 0.57054 0.0
C177 C 0.56979 0.12925 0.58726 0.0
H178 H 0.69754 0.16883 0.51531 0.0
H179 H 0.42379 0.05177 0.49204 0.0
Co180 Co 0.27287 0.44445 0.327 0.0
C181 C 0.21157 0.40963 0.30838 0.0
Co182 Co 0.25293 0.47328 0.311 0.0
C183 C 0.32036 0.4378 0.36955 0.0
C184 C 0.29274 0.39959 0.32659 0.0
N185 N 0.29477 0.42515 0.34355 0.0
N186 N 0.3348 0.4217 0.3687 0.0
C187 C 0.31713 0.39736 0.34204 0.0
H188 H 0.32891 0.45912 0.38766 0.0
H189 H 0.27567 0.38448 0.30242 0.0
C190 C 0.3131 0.5085 0.32698 0.0
N191 N 0.23367 0.49454 0.29575 0.0
C192 C 0.23879 0.5211 0.31386 0.0
C193 C 0.21168 0.48707 0.26421 0.0
N194 N 0.22094 0.53057 0.2949 0.0
C195 C 0.20374 0.50913 0.26371 0.0
C196 C 0.25047 0.46076 0.4028 0.0
O197 O 0.3104 0.48261 0.33232 0.0
O198 O 0.28973 0.51002 0.31781 0.0
O199 O 0.24392 0.4746 0.37305 0.0
O200 O 0.26368 0.44636 0.39034 0.0
O201 O 0.21593 0.43628 0.30384 0.0
H202 H 0.20223 0.46702 0.24266 0.0
H203 H 0.25525 0.53319 0.34069 0.0
O204 O 0.23403 0.4064 0.31976 0.0
O205 O 0.28119 0.44243 0.26363 0.0
O206 O 0.26222 0.47184 0.24893 0.0
C207 C 0.2745 0.45693 0.23511 0.0
H208 H 0.32227 0.37997 0.33214 0.0
H209 H 0.18719 0.50974 0.24128 0.0
Co210 Co 0.5986 0.83749 0.33993 0.0
C211 C 0.635 0.8111 0.33231 0.0
Co212 Co 0.57198 0.78813 0.32401 0.0
C213 C 0.60229 0.89092 0.38222 0.0
C214 C 0.64309 0.90298 0.34533 0.0
N215 N 0.61651 0.87882 0.35766 0.0
N216 N 0.61852 0.9215 0.38511 0.0
C217 C 0.64444 0.92907 0.36221 0.0
H218 H 0.58003 0.8775 0.39722 0.0
H219 H 0.65989 0.90184 0.32392 0.0
C220 C 0.53554 0.81295 0.32842 0.0
N221 N 0.55133 0.7472 0.3087 0.0
C222 C 0.52324 0.72633 0.3227 0.0
C223 C 0.56047 0.73178 0.2815 0.0
N224 N 0.51438 0.69852 0.30531 0.0
C225 C 0.53785 0.70186 0.27945 0.0
C226 C 0.57702 0.7992 0.41585 0.0
O227 O 0.56044 0.83639 0.3386 0.0
O228 O 0.53536 0.78856 0.31976 0.0
O229 O 0.56454 0.77824 0.38613 0.0
O230 O 0.59308 0.82654 0.40306 0.0
O231 O 0.60884 0.78785 0.32777 0.0
H232 H 0.58208 0.74171 0.26398 0.0
H233 H 0.50961 0.73147 0.3456 0.0
O234 O 0.63712 0.83701 0.33908 0.0
O235 O 0.60426 0.84767 0.27672 0.0
O236 O 0.58015 0.79858 0.26198 0.0
C237 C 0.59486 0.8258 0.24817 0.0
H238 H 0.66264 0.95196 0.3563 0.0
H239 H 0.53841 0.68413 0.2596 0.0
Co240 Co 0.20737 0.76952 0.32241 0.0
C241 C 0.2336 0.8305 0.3028 0.0
Co242 Co 0.25645 0.78995 0.30664 0.0
C243 C 0.15314 0.7222 0.36603 0.0
C244 C 0.14237 0.74898 0.3223 0.0
N245 N 0.16602 0.74738 0.33922 0.0
N246 N 0.12254 0.70763 0.3658 0.0
C247 C 0.11576 0.72477 0.33863 0.0
H248 H 0.16602 0.71408 0.38443 0.0
H249 H 0.14424 0.76567 0.29772 0.0
C250 C 0.23183 0.73021 0.32416 0.0
N251 N 0.29723 0.80939 0.29123 0.0
C252 C 0.31862 0.80412 0.30858 0.0
C253 C 0.31192 0.8315 0.25991 0.0
N254 N 0.34603 0.82197 0.28934 0.0
C255 C 0.34194 0.83935 0.2588 0.0
C256 C 0.24568 0.79342 0.39799 0.0
O257 O 0.20831 0.73243 0.32868 0.0
O258 O 0.2567 0.75368 0.31481 0.0
O259 O 0.26648 0.79998 0.36857 0.0
O260 O 0.21813 0.77948 0.38534 0.0
O261 O 0.25608 0.82645 0.29832 0.0
H262 H 0.30142 0.84104 0.23882 0.0
H263 H 0.31417 0.78752 0.33503 0.0
O264 O 0.20787 0.80796 0.31436 0.0
O265 O 0.19736 0.76046 0.25928 0.0
O266 O 0.24595 0.77964 0.24458 0.0
C267 C 0.21872 0.76696 0.23078 0.0
H268 H 0.09315 0.71939 0.3291 0.0
H269 H 0.3592 0.85596 0.23638 0.0
Co270 Co 0.56815 0.79207 0.83009 0.0
C271 C 0.53276 0.73332 0.85229 0.0
Co272 Co 0.59635 0.77037 0.83514 0.0
C273 C 0.51913 0.80466 0.8165 0.0
C274 C 0.56055 0.84362 0.83735 0.0
N275 N 0.54845 0.81418 0.82583 0.0
N276 N 0.51248 0.82699 0.82206 0.0
C277 C 0.53864 0.85156 0.83493 0.0
H278 H 0.50285 0.78158 0.80711 0.0
H279 H 0.58352 0.8581 0.84905 0.0
C280 C 0.63118 0.83017 0.80961 0.0
N281 N 0.6144 0.7461 0.84194 0.0
C282 C 0.60348 0.72125 0.86933 0.0
C283 C 0.63571 0.74492 0.81595 0.0
N284 N 0.61641 0.7042 0.8608 0.0
C285 C 0.63708 0.71939 0.82754 0.0
C286 C 0.57209 0.7665 0.74904 0.0
O287 O 0.60478 0.82668 0.81203 0.0
O288 O 0.6346 0.80763 0.81963 0.0
O289 O 0.58962 0.76053 0.77187 0.0
O290 O 0.55978 0.78005 0.7683 0.0
O291 O 0.55821 0.73477 0.8487 0.0
H292 H 0.64808 0.7605 0.78838 0.0
H293 H 0.5854 0.71507 0.89403 0.0
O294 O 0.53159 0.75732 0.84747 0.0
O295 O 0.57685 0.80398 0.89171 0.0
O296 O 0.60307 0.78092 0.89835 0.0
C297 C 0.59297 0.79697 0.91589 0.0
H298 H 0.54148 0.87334 0.84447 0.0
H299 H 0.651 0.71173 0.81071 0.0
Co300 Co 0.25088 0.78888 0.80645 0.0
C301 C 0.3102 0.81275 0.8258 0.0
Co302 Co 0.2716 0.83803 0.82172 0.0
C303 C 0.23556 0.72692 0.81285 0.0
C304 C 0.21006 0.73276 0.7597 0.0
N305 N 0.2311 0.74798 0.79241 0.0
N306 N 0.21839 0.69919 0.79412 0.0
C307 C 0.20214 0.7027 0.76076 0.0
H308 H 0.25124 0.73191 0.841 0.0
H309 H 0.20145 0.74295 0.73613 0.0
C310 C 0.21097 0.81234 0.79934 0.0
N311 N 0.29443 0.87964 0.83732 0.0
C312 C 0.3197 0.89244 0.86414 0.0
C313 C 0.29418 0.90338 0.81789 0.0
N314 N 0.33567 0.92301 0.86133 0.0
C315 C 0.31928 0.92991 0.83262 0.0
C316 C 0.27513 0.82555 0.73051 0.0
O317 O 0.21493 0.78975 0.79592 0.0
O318 O 0.2334 0.83802 0.81175 0.0
O319 O 0.28129 0.84714 0.75848 0.0
O320 O 0.26193 0.79841 0.74461 0.0
O321 O 0.30827 0.83648 0.82963 0.0
H322 H 0.27798 0.90149 0.79228 0.0
H323 H 0.32701 0.87945 0.884 0.0
O324 O 0.28662 0.78799 0.81647 0.0
O325 O 0.24018 0.77976 0.86827 0.0
O326 O 0.26118 0.82819 0.88492 0.0
C327 C 0.24685 0.80068 0.89762 0.0
H328 H 0.18641 0.68505 0.73778 0.0
H329 H 0.32585 0.9524 0.82069 0.0
Co330 Co 0.25362 0.47678 0.81312 0.0
C331 C 0.22797 0.51085 0.8319 0.0
Co332 Co 0.20438 0.44719 0.82715 0.0
C333 C 0.31514 0.52514 0.82169 0.0
C334 C 0.31087 0.49386 0.76869 0.0
N335 N 0.29476 0.49923 0.80049 0.0
N336 N 0.34329 0.53626 0.8044 0.0
C337 C 0.34073 0.51655 0.7711 0.0
H338 H 0.30941 0.53555 0.8496 0.0
H339 H 0.30146 0.47486 0.74501 0.0
C340 C 0.23152 0.41339 0.8055 0.0
N341 N 0.16257 0.42744 0.84198 0.0
C342 C 0.14944 0.43945 0.86928 0.0
C343 C 0.13903 0.40318 0.82212 0.0
N344 N 0.11888 0.42433 0.86641 0.0
C345 C 0.11229 0.40114 0.83715 0.0
C346 C 0.21756 0.46291 0.73601 0.0
O347 O 0.25391 0.44023 0.8026 0.0
O348 O 0.20557 0.40963 0.81724 0.0
O349 O 0.19578 0.44726 0.76349 0.0
O350 O 0.24451 0.47771 0.75096 0.0
O351 O 0.2047 0.48479 0.835 0.0
H352 H 0.14116 0.38905 0.79615 0.0
H353 H 0.16219 0.45981 0.88964 0.0
O354 O 0.25318 0.51292 0.8232 0.0
O355 O 0.26229 0.47564 0.87505 0.0
O356 O 0.21389 0.44707 0.89068 0.0
C357 C 0.24133 0.46092 0.90392 0.0
H358 H 0.35896 0.51873 0.74928 0.0
H359 H 0.08984 0.38486 0.82512 0.0
Co360 Co 0.93641 0.78063 0.66835 0.0
C361 C 0.87628 0.74551 0.64422 0.0
Co362 Co 0.91344 0.80771 0.66966 0.0
C363 C 0.98591 0.77287 0.69843 0.0
C364 C 0.963 0.74332 0.64159 0.0
N365 N 0.96128 0.76307 0.67071 0.0
N366 N 1.00331 0.76073 0.68723 0.0
C367 C 0.98862 0.74174 0.65174 0.0
H368 H 0.99162 0.78956 0.72548 0.0
H369 H 0.94768 0.73217 0.61312 0.0
C370 C 0.97261 0.84341 0.69084 0.0
N371 N 0.89092 0.82694 0.66982 0.0
C372 C 0.89985 0.85591 0.65923 0.0
C373 C 0.86214 0.8151 0.68461 0.0
N374 N 0.87785 0.86272 0.6672 0.0
C375 C 0.85405 0.83696 0.68298 0.0
C376 C 0.91019 0.78022 0.752 0.0
O377 O 0.97153 0.81829 0.68464 0.0
O378 O 0.94835 0.84427 0.68779 0.0
O379 O 0.90295 0.79726 0.73094 0.0
O380 O 0.92611 0.77093 0.73157 0.0
O381 O 0.8788 0.7713 0.65087 0.0
H382 H 0.84827 0.79231 0.69736 0.0
H383 H 0.92227 0.87179 0.64669 0.0
O384 O 0.89963 0.74276 0.65034 0.0
O385 O 0.94606 0.79051 0.60495 0.0
O386 O 0.92383 0.81784 0.60828 0.0
C387 C 0.93827 0.80785 0.58552 0.0
H388 H 0.99664 0.72887 0.63263 0.0
H389 H 0.83271 0.83435 0.69452 0.0
Co390 Co 0.25954 0.17108 0.65626 0.0
C391 C 0.29275 0.14323 0.63461 0.0
Co392 Co 0.22961 0.12159 0.64495 0.0
C393 C 0.26887 0.22703 0.69671 0.0
C394 C 0.30342 0.2361 0.64702 0.0
N395 N 0.27986 0.21315 0.66895 0.0
N396 N 0.28395 0.2575 0.69221 0.0
C397 C 0.30606 0.26325 0.66131 0.0
H398 H 0.24921 0.21483 0.71856 0.0
H399 H 0.31657 0.23323 0.6202 0.0
C400 C 0.19611 0.14792 0.66399 0.0
N401 N 0.20671 0.08018 0.63436 0.0
C402 C 0.18106 0.06035 0.65656 0.0
C403 C 0.21141 0.06336 0.60299 0.0
N404 N 0.16948 0.03185 0.64029 0.0
C405 C 0.18862 0.03362 0.60665 0.0
C406 C 0.2478 0.13609 0.73466 0.0
O407 O 0.22225 0.17124 0.66524 0.0
O408 O 0.19382 0.12247 0.65648 0.0
O409 O 0.23241 0.11437 0.70709 0.0
O410 O 0.26107 0.16316 0.71994 0.0
O411 O 0.26582 0.12087 0.633 0.0
H412 H 0.23 0.07219 0.57868 0.0
H413 H 0.17113 0.06672 0.68438 0.0
O414 O 0.29681 0.16945 0.64542 0.0
O415 O 0.25803 0.17816 0.59241 0.0
O416 O 0.22703 0.12923 0.58258 0.0
C417 C 0.24155 0.1558 0.56623 0.0
H418 H 0.32191 0.28534 0.64769 0.0
H419 H 0.18593 1.01494 0.58539 0.0
Co420 Co 0.86877 0.10461 0.65919 0.0
C421 C 0.89478 0.16577 0.64127 0.0
Co422 Co 0.91787 0.12542 0.64353 0.0
C423 C 0.81442 0.05615 0.70098 0.0
C424 C 0.80347 0.08223 0.65599 0.0
N425 N 0.82721 0.08166 0.67482 0.0
N426 N 0.78383 0.04035 0.69838 0.0
C427 C 0.77695 0.05709 0.67043 0.0
H428 H 0.82745 0.04858 0.7202 0.0
H429 H 0.80533 0.09872 0.63102 0.0
C430 C 0.89356 0.06561 0.65947 0.0
N431 N 0.95876 0.14528 0.62954 0.0
C432 C 0.97977 0.14022 0.64883 0.0
C433 C 0.97404 0.16717 0.59817 0.0
N434 N 1.00754 0.15786 0.63065 0.0
C435 C 1.00408 0.17501 0.59884 0.0
C436 C 0.90644 0.12742 0.73545 0.0
O437 O 0.87005 0.06776 0.66464 0.0
O438 O 0.91836 0.08916 0.65027 0.0
O439 O 0.92716 0.13435 0.70578 0.0
O440 O 0.87888 0.11379 0.72281 0.0
O441 O 0.91736 0.16188 0.63657 0.0
H442 H 0.96392 0.17651 0.57583 0.0
H443 H 0.97473 0.12383 0.67585 0.0
O444 O 0.86899 0.14301 0.65206 0.0
O445 O 0.85947 0.0962 0.59539 0.0
O446 O 0.9082 0.11614 0.58117 0.0
C447 C 0.88105 0.10322 0.56706 0.0
H448 H 0.75444 0.05079 0.65882 0.0
H449 H 1.02176 0.19139 0.5767 0.0
Co450 Co 0.23635 0.12226 0.14054 0.0
C451 C 0.2007 0.06157 0.15341 0.0
Co452 Co 0.26434 0.1016 0.15773 0.0
C453 C 0.18829 0.13566 0.14413 0.0
C454 C 0.22227 0.16407 0.09558 0.0
N455 N 0.215 0.14151 0.12585 0.0
N456 N 0.17847 0.15355 0.1265 0.0
C457 C 0.19987 0.17158 0.09599 0.0
H458 H 0.1764 0.1187 0.1703 0.0
H459 H 0.24246 0.17427 0.07443 0.0
C460 C 0.29954 0.16352 0.14179 0.0
N461 N 0.28366 0.07977 0.17424 0.0
C462 C 0.27106 0.05417 0.20006 0.0
C463 C 0.30929 0.08193 0.15748 0.0
N464 N 0.28727 0.03984 0.19927 0.0
C465 C 0.31161 0.0576 0.17285 0.0
C466 C 0.25427 0.10222 0.06508 0.0
O467 O 0.27305 0.15959 0.13753 0.0
O468 O 0.30245 0.1406 0.15134 0.0
O469 O 0.26675 0.09358 0.09434 0.0
O470 O 0.24009 0.11543 0.07813 0.0
O471 O 0.22612 0.06398 0.16237 0.0
H472 H 0.3244 0.09906 0.13349 0.0
H473 H 0.24972 0.04555 0.21798 0.0
O474 O 0.19982 0.08506 0.14271 0.0
O475 O 0.23289 0.12896 0.2033 0.0
O476 O 0.2621 0.11037 0.22082 0.0
C477 C 0.24683 0.12263 0.23324 0.0
H478 H 0.19908 0.18851 0.07474 0.0
H479 H 0.32907 0.05255 0.16304 0.0
Co480 Co 0.92075 0.11889 0.14302 0.0
C481 C 0.98004 0.14405 0.16338 0.0
Co482 Co 0.94012 0.16784 0.15909 0.0
C483 C 0.90498 0.05603 0.14578 0.0
C484 C 0.88618 0.06594 0.0871 0.0
N485 N 0.90234 0.07843 0.12586 0.0
N486 N 0.89158 0.03032 0.1205 0.0
C487 C 0.87976 0.03643 0.08352 0.0
H488 H 0.91794 0.05902 0.17681 0.0
H489 H 0.88053 0.07791 0.06206 0.0
C490 C 0.87959 0.14094 0.13557 0.0
N491 N 0.96172 0.20923 0.17669 0.0
C492 C 0.9871 0.22244 0.20326 0.0
C493 C 0.96002 0.23272 0.15938 0.0
N494 N 1.00174 0.25306 0.20235 0.0
C495 C 0.98437 0.25952 0.17512 0.0
C496 C 0.945 0.15741 0.06797 0.0
O497 O 0.88434 0.11886 0.13144 0.0
O498 O 0.9014 0.16666 0.14922 0.0
O499 O 0.9501 0.17847 0.09639 0.0
O500 O 0.93299 0.13026 0.08168 0.0
O501 O 0.97738 0.16738 0.16679 0.0
H502 H 0.9433 0.23061 0.13459 0.0
H503 H 0.99544 0.20978 0.2217 0.0
O504 O 0.95685 0.11888 0.15413 0.0
O505 O 0.90886 0.10814 0.20436 0.0
O506 O 0.92921 0.15649 0.2217 0.0
C507 C 0.91495 0.12886 0.23393 0.0
H508 H 0.86799 0.02089 0.05541 0.0
H509 H 0.98975 0.28201 0.1649 0.0
Co510 Co 0.92429 0.80353 0.15667 0.0
C511 C 0.90061 0.84132 0.16071 0.0
Co512 Co 0.87523 0.77876 0.17511 0.0
C513 C 0.98743 0.84959 0.15491 0.0
C514 C 0.97687 0.816 0.10251 0.0
N515 N 0.96462 0.8232 0.13828 0.0
N516 N 1.0132 0.85931 0.13054 0.0
C517 C 1.00667 0.83834 0.0974 0.0
H518 H 0.98478 0.86226 0.18284 0.0
H519 H 0.96465 0.79633 0.08055 0.0
C520 C 0.90057 0.74103 0.16727 0.0
N521 N 0.83435 0.76161 0.19489 0.0
C522 C 0.82256 0.77644 0.21864 0.0
C523 C 0.81012 0.73449 0.18483 0.0
N524 N 0.79206 0.76 0.22321 0.0
C525 C 0.78429 0.73339 0.20219 0.0
C526 C 0.88438 0.77939 0.08291 0.0
O527 O 0.92404 0.76669 0.16056 0.0
O528 O 0.87529 0.73988 0.17604 0.0
O529 O 0.86322 0.77103 0.11242 0.0
O530 O 0.91184 0.79433 0.09546 0.0
O531 O 0.87686 0.81705 0.17204 0.0
H532 H 0.81098 0.71705 0.16464 0.0
H533 H 0.83613 0.79924 0.23182 0.0
O534 O 0.92451 0.84056 0.15188 0.0
O535 O 0.93607 0.81177 0.2183 0.0
O536 O 0.88791 0.78662 0.23749 0.0
C537 C 0.91564 0.80166 0.249 0.0
H538 H 1.02218 0.83943 0.07088 0.0
H539 H 0.76141 0.7148 0.19786 0.0
H540 H 0.50262 0.20451 -0.0101 0.0
H541 H 0.61056 0.3843 -0.00726 0.0
H542 H 0.5997 0.24847 0.00363 0.0
H543 H 0.5132 0.33975 0.00144 0.0
H544 H 0.60723 0.33491 -0.0062 0.0
H545 H 0.5063 0.2539 -0.00961 0.0
C546 C 0.52474 0.22447 -0.00682 0.0
C547 C 0.55087 0.2221 -0.00294 0.0
C548 C 0.5866 0.33593 -0.00432 0.0
C549 C 0.55524 0.27906 -0.0029 0.0
C550 C 0.58847 0.36414 -0.00487 0.0
C551 C 0.5621 0.3662 -0.003 0.0
C552 C 0.55814 0.3095 -0.00222 0.0
C553 C 0.53412 0.33928 5e-05 0.0
C554 C 0.52681 0.25275 -0.00668 0.0
C555 C 0.57894 0.24901 0.00016 0.0
N556 N 0.53288 0.31207 0.00012 0.0
N557 N 0.58036 0.27633 0.00018 0.0
H558 H 0.654 0.22968 0.03549 0.0
H559 H 0.82898 0.30191 0.97278 0.0
H560 H 0.69844 0.17721 0.02018 0.0
H561 H 0.78844 0.35524 0.01167 0.0
H562 H 0.78148 0.25596 -0.00851 0.0
H563 H 0.70324 0.27601 0.02995 0.0
C564 C 0.67413 0.22788 0.0317 0.0
C565 C 0.67202 0.19947 0.02807 0.0
C566 C 0.78303 0.27773 -0.00373 0.0
C567 C 0.72843 0.25245 0.0209 0.0
C568 C 0.8101 0.30395 0.98526 0.0
C569 C 0.8127 0.33248 -0.00951 0.0
C570 C 0.7582 0.27997 0.01215 0.0
C571 C 0.78758 0.33378 0.00748 0.0
C572 C 0.70225 0.25436 0.02838 0.0
C573 C 0.69892 0.19858 0.02306 0.0
N574 N 0.76134 0.30792 0.01733 0.0
N575 N 0.72592 0.22464 0.01911 0.0
H576 H 0.70688 0.50124 0.03715 0.0
H577 H 0.80839 0.43267 0.96499 0.0
H578 H 0.70821 0.47249 0.89751 0.0
H579 H 0.85001 0.51639 0.04251 0.0
H580 H 0.7633 0.43698 0.95525 0.0
H581 H 0.75263 0.49815 0.05385 0.0
C582 C 0.71693 0.49438 0.01016 0.0
C583 C 0.70417 0.48729 0.96589 0.0
C584 C 0.78224 0.45421 0.97475 0.0
C585 C 0.75518 0.48287 0.98486 0.0
C586 C 0.80788 0.45171 0.98066 0.0
C587 C 0.83303 0.47431 0.00447 0.0
C588 C 0.78141 0.47906 -0.00633 0.0
C589 C 0.83111 0.49858 0.02375 0.0
C590 C 0.74286 0.49271 0.0196 0.0
C591 C 0.71772 0.47842 0.93186 0.0
N592 N 0.80558 0.50031 0.01808 0.0
N593 N 0.74231 0.47606 0.9422 0.0
H594 H 0.69673 0.51797 0.53588 0.0
H595 H 0.80449 0.47972 0.3927 0.0
H596 H 0.66124 0.44206 0.44165 0.0
H597 H 0.82283 0.5015 0.53712 0.0
H598 H 0.75496 0.47581 0.40279 0.0
H599 H 0.74664 0.52172 0.53071 0.0
C600 C 0.69942 0.50208 0.51432 0.0
C601 C 0.67487 0.47962 0.48925 0.0
C602 C 0.76989 0.48153 0.43221 0.0
C603 C 0.73158 0.48429 0.48241 0.0
C604 C 0.79809 0.48394 0.42641 0.0
C605 C 0.81754 0.49095 0.46417 0.0
C606 C 0.76146 0.48694 0.47581 0.0
C607 C 0.80823 0.49593 0.50736 0.0
C608 C 0.72776 0.50418 0.51153 0.0
C609 C 0.67951 0.45958 0.46178 0.0
N610 N 0.78085 0.49413 0.51202 0.0
N611 N 0.70741 0.46265 0.45859 0.0
H612 H 0.61157 0.23397 0.49788 0.0
H613 H 0.50691 0.30584 0.45083 0.0
H614 H 0.51398 0.18155 0.49729 0.0
H615 H 0.60199 0.35925 0.48243 0.0
H616 H 0.50923 0.25982 0.46436 0.0
H617 H 0.60877 0.28007 0.48952 0.0
C618 C 0.58955 0.23215 0.49617 0.0
C619 C 0.56297 0.20383 0.49814 0.0
C620 C 0.52956 0.28163 0.46855 0.0
C621 C 0.55962 0.25651 0.48822 0.0
C622 C 0.52827 0.30787 0.46055 0.0
C623 C 0.55428 0.33642 0.4655 0.0
C624 C 0.55715 0.28392 0.48109 0.0
C625 C 0.58131 0.33775 0.47872 0.0
C626 C 0.58797 0.25849 0.49146 0.0
C627 C 0.53506 0.20288 0.49588 0.0
N628 N 0.58209 0.31188 0.48577 0.0
N629 N 0.53412 0.22881 0.49073 0.0
H630 H 0.73787 0.2095 0.47888 0.0
H631 H 0.8078 0.38881 0.49557 0.0
H632 H 0.68284 0.2511 0.49504 0.0
H633 H 0.86075 0.34469 0.50484 0.0
H634 H 0.7618 0.33911 0.49128 0.0
H635 H 0.78307 0.25934 0.48296 0.0
C636 C 0.73521 0.22907 0.48332 0.0
C637 C 0.70633 0.22586 0.48704 0.0
C638 C 0.78347 0.34033 0.49446 0.0
C639 C 0.75834 0.2834 0.49134 0.0
C640 C 0.80976 0.3687 0.49701 0.0
C641 C 0.83823 0.37097 0.50061 0.0
C642 C 0.78565 0.314 0.49514 0.0
C643 C 0.83934 0.34409 0.5022 0.0
C644 C 0.76111 0.25761 0.48557 0.0
C645 C 0.70449 0.25231 0.49169 0.0
N646 N 0.81349 0.3168 0.49924 0.0
N647 N 0.73013 0.27993 0.49385 0.0
H648 H 0.27859 0.71883 0.32746 0.0
H649 H 0.17409 0.54109 0.28826 0.0
H650 H 0.18105 0.67389 0.32613 0.0
H651 H 0.26885 0.58395 0.32239 0.0
H652 H 0.17602 0.58947 0.30063 0.0
H653 H 0.27542 0.66958 0.325 0.0
C654 C 0.25648 0.69858 0.32697 0.0
C655 C 0.23004 0.70048 0.32676 0.0
C656 C 0.19633 0.58822 0.30574 0.0
C657 C 0.22627 0.64397 0.32346 0.0
C658 C 0.19528 0.56067 0.29839 0.0
C659 C 0.22137 0.55851 0.30415 0.0
C660 C 0.22376 0.61389 0.31839 0.0
C661 C 0.24815 0.58451 0.31794 0.0
C662 C 0.2547 0.67045 0.32562 0.0
C663 C 0.20202 0.67347 0.32628 0.0
N664 N 0.24871 0.61116 0.32421 0.0
N665 N 0.20087 0.64632 0.32419 0.0
H666 H 0.46018 0.69446 0.32262 0.0
H667 H 0.36893 0.51323 0.33253 0.0
H668 H 0.50233 0.6403 0.30244 0.0
H669 H 0.32601 0.56737 0.32488 0.0
H670 H 0.41841 0.55959 0.33002 0.0
H671 H 0.41136 0.64822 0.33191 0.0
C672 C 0.45925 0.67286 0.32052 0.0
C673 C 0.48548 0.67133 0.31168 0.0
C674 C 0.39816 0.56131 0.32905 0.0
C675 C 0.42944 0.61811 0.32204 0.0
C676 C 0.36989 0.53485 0.33068 0.0
C677 C 0.34323 0.53637 0.32875 0.0
C678 C 0.39984 0.58954 0.32578 0.0
C679 C 0.34592 0.56506 0.32627 0.0
C680 C 0.43129 0.64642 0.32554 0.0
C681 C 0.4827 0.64258 0.30866 0.0
N682 N 0.37366 0.59045 0.32482 0.0
N683 N 0.45522 0.61714 0.31389 0.0
H684 H 0.47762 0.76552 0.32076 0.0
H685 H 0.40357 0.86902 0.28385 0.0
H686 H 0.52897 0.86301 0.32981 0.0
H687 H 0.3513 0.7737 0.31388 0.0
H688 H 0.45004 0.86723 0.29582 0.0
H689 H 0.43126 0.76793 0.31374 0.0
C690 C 0.47915 0.78745 0.32134 0.0
C691 C 0.50724 0.81412 0.32574 0.0
C692 C 0.4284 0.84675 0.30003 0.0
C693 C 0.45421 0.81702 0.31741 0.0
C694 C 0.40189 0.84773 0.29293 0.0
C695 C 0.37353 0.82148 0.29784 0.0
C696 C 0.42655 0.81921 0.3115 0.0
C697 C 0.37266 0.79453 0.3102 0.0
C698 C 0.45265 0.78879 0.31746 0.0
C699 C 0.50781 0.84188 0.32648 0.0
N700 N 0.39876 0.79405 0.31626 0.0
N701 N 0.48171 0.84262 0.32202 0.0
H702 H 0.5006 0.87258 0.80886 0.0
H703 H 0.32129 0.76566 0.82597 0.0
H704 H 0.45709 0.77625 0.83132 0.0
H705 H 0.36651 0.86322 0.83098 0.0
H706 H 0.37053 0.7687 0.82421 0.0
H707 H 0.45134 0.86911 0.81195 0.0
C708 C 0.48075 0.85068 0.81453 0.0
C709 C 0.48319 0.82471 0.8202 0.0
C710 C 0.36968 0.78943 0.82594 0.0
C711 C 0.42646 0.82056 0.82333 0.0
C712 C 0.34158 0.78773 0.82702 0.0
C713 C 0.33978 0.81425 0.82861 0.0
C714 C 0.39621 0.81785 0.82605 0.0
C715 C 0.36682 0.8422 0.82989 0.0
C716 C 0.45257 0.84872 0.81621 0.0
C717 C 0.45644 0.79685 0.82639 0.0
N718 N 0.39391 0.84326 0.82831 0.0
N719 N 0.42921 0.79554 0.82788 0.0
H720 H 0.17636 0.51463 0.83201 0.0
H721 H 0.26604 0.69559 0.82691 0.0
H722 H 0.27371 0.56971 0.83681 0.0
H723 H 0.17258 0.64103 0.78638 0.0
H724 H 0.26754 0.64957 0.84292 0.0
H725 H 0.17304 0.5607 0.82776 0.0
C726 C 0.19702 0.5364 0.83274 0.0
C727 C 0.22538 0.53834 0.83445 0.0
C728 C 0.24665 0.64764 0.83072 0.0
C729 C 0.2217 0.59102 0.82948 0.0
C730 C 0.24571 0.67392 0.82186 0.0
C731 C 0.21913 0.67214 0.8052 0.0
C732 C 0.22078 0.6193 0.82316 0.0
C733 C 0.19362 0.64339 0.79864 0.0
C734 C 0.19509 0.56266 0.83005 0.0
C735 C 0.25138 0.56715 0.83521 0.0
N736 N 0.19506 0.61806 0.80763 0.0
N737 N 0.24892 0.59234 0.83258 0.0
H738 H 0.34648 0.58747 0.83833 0.0
H739 H 0.52736 0.67729 0.85188 0.0
H740 H 0.40148 0.54867 0.80019 0.0
H741 H 0.47407 0.72122 0.85875 0.0
H742 H 0.48085 0.6284 0.84572 0.0
H743 H 0.39239 0.63495 0.85773 0.0
C744 C 0.36819 0.58882 0.83447 0.0
C745 C 0.37013 0.56405 0.81743 0.0
C746 C 0.47931 0.64871 0.84899 0.0
C747 C 0.42281 0.61841 0.83949 0.0
C748 C 0.50587 0.67666 0.85285 0.0
C749 C 0.50467 0.70349 0.85563 0.0
C750 C 0.45125 0.64745 0.84806 0.0
C751 C 0.47611 0.70117 0.85654 0.0
C752 C 0.3944 0.616 0.84531 0.0
C753 C 0.39894 0.56728 0.81261 0.0
N754 N 0.45054 0.67366 0.85249 0.0
N755 N 0.42412 0.59393 0.82356 0.0
H756 H 0.94016 0.05384 0.65601 0.0
H757 H 0.83166 0.87418 0.65818 0.0
H758 H 0.84295 1.00972 0.66809 0.0
H759 H 0.92891 0.91823 0.66872 0.0
H760 H 0.83545 0.92365 0.65722 0.0
H761 H 0.93656 1.00434 0.65667 0.0
C762 C 0.91806 0.03374 0.65897 0.0
C763 C 0.8918 0.03591 0.66202 0.0
C764 C 0.85596 0.92248 0.65972 0.0
C765 C 0.88753 0.97919 0.66246 0.0
C766 C 0.85382 0.89419 0.6604 0.0
C767 C 0.87998 0.89188 0.6638 0.0
C768 C 0.88449 0.94877 0.66226 0.0
C769 C 0.90813 0.91876 0.6656 0.0
C770 C 0.91603 1.00549 0.65933 0.0
C771 C 0.86378 1.00912 0.6658 0.0
N772 N 0.90961 0.94606 0.6649 0.0
N773 N 0.86238 0.98186 0.66574 0.0
H774 H 0.11876 0.0296 0.67437 0.0
H775 H 0.02858 0.8489 0.69192 0.0
H776 H 0.15678 0.97355 0.63837 0.0
H777 H 0.98462 0.9022 0.69717 0.0
H778 H 0.0774 0.89529 0.68575 0.0
H779 H 0.07126 0.9841 0.69509 0.0
C780 C 0.11724 1.00776 0.67128 0.0
C781 C 0.14177 1.00537 0.6544 0.0
C782 C 0.05712 0.89689 0.6887 0.0
C783 C 0.08744 0.95322 0.678 0.0
C784 C 0.02919 0.87038 0.69255 0.0
C785 C 1.00236 0.87158 0.69482 0.0
C786 C 0.0584 0.92495 0.68716 0.0
C787 C 1.00468 0.90016 0.69539 0.0
C788 C 0.09006 0.98179 0.68288 0.0
C789 C 0.13835 0.97642 0.65061 0.0
N790 N 0.0322 0.92572 0.69123 0.0
N791 N 0.11172 0.95152 0.66228 0.0
H792 H 1.01137 0.10982 0.66102 0.0
H793 H 0.19242 0.19962 0.66382 0.0
H794 H 0.06569 0.20384 0.62376 0.0
H795 H 0.13729 0.10232 0.67066 0.0
H796 H 0.14635 0.20299 0.66059 0.0
H797 H 0.05746 0.10822 0.67589 0.0
C798 C 0.03299 0.13024 0.65643 0.0
C799 C 0.03465 0.15702 0.64102 0.0
C800 C 0.14438 0.18094 0.6631 0.0
C801 C 0.08763 0.15526 0.65765 0.0
C802 C 0.17064 0.17899 0.66519 0.0
C803 C 0.16869 0.15062 0.66719 0.0
C804 C 0.11598 0.15435 0.66335 0.0
C805 C 0.13987 0.12466 0.66882 0.0
C806 C 0.05933 0.12926 0.66465 0.0
C807 C 0.06337 0.18265 0.63503 0.0
N808 N 0.11468 0.12715 0.6667 0.0
N809 N 0.08875 0.18114 0.64333 0.0
H810 H 0.12583 0.10493 0.15426 0.0
H811 H 0.03582 0.19556 0.16539 0.0
H812 H 0.16681 0.19983 0.12227 0.0
H813 H 0.9927 0.09811 0.16647 0.0
H814 H 0.08517 0.19868 0.16095 0.0
H815 H 0.07809 0.10328 0.16985 0.0
C816 C 0.12488 0.12552 0.15094 0.0
C817 C 0.15038 0.15257 0.13684 0.0
C818 C 0.06489 0.17664 0.16247 0.0
C819 C 0.09561 0.15078 0.15435 0.0
C820 C 0.03673 0.17483 0.16526 0.0
C821 C 1.01008 0.14651 0.166 0.0
C822 C 0.0664 0.14995 0.16075 0.0
C823 C 1.01263 0.12042 0.16567 0.0
C824 C 0.09754 0.12451 0.15957 0.0
C825 C 0.14763 0.17843 0.13248 0.0
N826 N 0.04026 0.12277 0.16291 0.0
N827 N 0.12073 0.1769 0.14119 0.0
H828 H 0.93692 0.88986 0.10689 0.0
H829 H 0.88187 1.00004 0.20079 0.0
H830 H 0.86344 0.85777 0.2048 0.0
H831 H 0.90471 0.99944 0.05766 0.0
H832 H 0.88412 0.95343 0.21257 0.0
H833 H 0.9349 0.93648 0.09805 0.0
C834 C 0.92052 0.89273 0.12677 0.0
C835 C 0.90023 0.86992 0.15648 0.0
C836 C 0.88859 0.96358 0.17865 0.0
C837 C 0.89821 0.92325 0.14707 0.0
C838 C 0.88744 0.99008 0.17203 0.0
C839 C 0.89292 1.00327 0.12818 0.0
C840 C 0.89619 0.95091 0.14143 0.0
C841 C 0.90003 0.98966 0.09181 0.0
C842 C 0.91932 0.91922 0.12154 0.0
C843 C 0.87935 0.87476 0.18131 0.0
N844 N 0.90177 0.96436 0.09932 0.0
N845 N 0.87901 0.90106 0.17633 0.0
H846 H 0.15071 0.04484 0.10106 0.0
H847 H 0.04387 0.88475 0.20944 0.0
H848 H 0.18718 1.01027 0.20217 0.0
H849 H 0.04479 0.89878 0.06293 0.0
H850 H 0.09073 0.93428 0.21687 0.0
H851 H 0.10519 0.99479 0.09606 0.0
C852 C 0.14901 0.02678 0.12254 0.0
C853 C 0.17273 0.03166 0.15209 0.0
C854 C 0.08064 0.92635 0.18316 0.0
C855 C 0.12059 0.97464 0.14694 0.0
C856 C 0.05401 0.89834 0.17897 0.0
C857 C 0.04075 0.88783 0.1355 0.0
C858 C 0.09335 0.94423 0.14379 0.0
C859 C 0.05459 0.90608 0.09691 0.0
C860 C 0.12315 0.99826 0.11942 0.0
C861 C 0.16942 1.00737 0.17887 0.0
N862 N 0.07994 0.9336 0.102 0.0
N863 N 0.14363 0.97988 0.17603 0.0
H864 H 0.51072 0.10638 0.35695 0.0
H865 H 0.60011 0.08478 0.14801 0.0
H866 H 0.59945 0.11596 0.3657 0.0
H867 H 0.53528 0.11454 0.12961 0.0
H868 H 0.5878 0.07806 0.23022 0.0
H869 H 0.50887 0.09304 0.27474 0.0
C870 C 0.52967 0.10562 0.34152 0.0
C871 C 0.5556 0.11305 0.36731 0.0
C872 C 0.576 0.08562 0.20789 0.0
C873 C 0.55319 0.09694 0.27534 0.0
C874 C 0.58302 0.08949 0.16119 0.0
C875 C 0.56936 0.10113 0.13265 0.0
C876 C 0.55524 0.09345 0.22566 0.0
C877 C 0.54696 0.10637 0.15102 0.0
C878 C 0.52853 0.09784 0.29509 0.0
C879 C 0.57941 0.11124 0.34648 0.0
N880 N 0.54085 0.10289 0.19676 0.0
N881 N 0.57766 0.10343 0.30157 0.0
H882 H 0.96821 0.45594 0.35542 0.0
H883 H 0.87444 0.41093 0.12158 0.0
H884 H 0.87074 0.40696 0.35108 0.0
H885 H 0.95688 0.49645 0.14054 0.0
H886 H 0.87815 0.39764 0.20114 0.0
H887 H 0.96929 0.45821 0.27055 0.0
C888 C 0.94714 0.44477 0.33635 0.0
C889 C 0.91933 0.43133 0.35941 0.0
C890 C 0.8955 0.41917 0.18759 0.0
C891 C 0.92039 0.4338 0.2641 0.0
C892 C 0.89338 0.42684 0.1425 0.0
C893 C 0.91518 0.45501 0.12501 0.0
C894 C 0.91982 0.43961 0.21492 0.0
C895 C 0.93937 0.47475 0.15324 0.0
C896 C 0.94777 0.44632 0.28836 0.0
C897 C 0.89253 0.41756 0.33395 0.0
N898 N 0.94106 0.46666 0.19713 0.0
N899 N 0.89369 0.41926 0.28735 0.0
H900 H 0.58699 0.52128 0.34641 0.0
H901 H 0.62984 0.47329 0.1082 0.0
H902 H 0.63538 0.47248 0.33897 0.0
H903 H 0.54476 0.47026 0.13011 0.0
H904 H 0.64344 0.48921 0.18864 0.0
H905 H 0.58367 0.51972 0.26157 0.0
C906 C 0.59781 0.51123 0.32669 0.0
C907 C 0.6115 0.49701 0.34897 0.0
C908 C 0.62195 0.48531 0.17554 0.0
C909 C 0.60779 0.4951 0.25343 0.0
C910 C 0.61413 0.47617 0.1299 0.0
C911 C 0.58596 0.47008 0.11293 0.0
C912 C 0.60172 0.48894 0.20391 0.0
C913 C 0.56648 0.47429 0.14225 0.0
C914 C 0.59565 0.51007 0.27865 0.0
C915 C 0.6247 0.48368 0.32253 0.0
N916 N 0.57474 0.48351 0.18653 0.0
N917 N 0.62244 0.48294 0.27591 0.0
H918 H 0.94527 0.5346 0.85537 0.0
H919 H 0.92274 0.43557 0.64762 0.0
H920 H 0.86822 0.44393 0.85098 0.0
H921 H 0.9085 0.50942 0.61193 0.0
H922 H 0.92027 0.4465 0.72925 0.0
H923 H 0.94688 0.53425 0.77011 0.0
C924 C 0.92834 0.51505 0.83656 0.0
C925 C 0.90704 0.48899 0.85998 0.0
C926 C 0.91801 0.46041 0.7033 0.0
C927 C 0.90902 0.48849 0.7644 0.0
C928 C 0.91941 0.45426 0.65698 0.0
C929 C 0.91552 0.47148 0.62328 0.0
C930 C 0.91328 0.48421 0.71581 0.0
C931 C 0.91123 0.49547 0.63719 0.0
C932 C 0.9293 0.5149 0.78829 0.0
C933 C 0.8855 0.4642 0.83425 0.0
N934 N 0.91022 0.50126 0.68283 0.0
N935 N 0.88748 0.46429 0.78778 0.0
H936 H 0.57349 0.41224 0.60863 0.0
H937 H 0.51733 0.44791 0.8452 0.0
H938 H 0.57054 0.49425 0.63169 0.0
H939 H 0.57084 0.40433 0.83983 0.0
H940 H 0.52026 0.45206 0.76053 0.0
H941 H 0.55721 0.39737 0.68856 0.0
C942 C 0.56931 0.42703 0.63052 0.0
C943 C 0.57372 0.45469 0.614 0.0
C944 C 0.53065 0.44092 0.778 0.0
C945 C 0.55436 0.43742 0.7043 0.0
C946 C 0.52869 0.43824 0.82595 0.0
C947 C 0.54389 0.42579 0.84888 0.0
C948 C 0.5474 0.43051 0.75344 0.0
C949 C 0.55889 0.41408 0.82295 0.0
C950 C 0.55995 0.41848 0.67584 0.0
C951 C 0.56784 0.47299 0.64351 0.0
N952 N 0.56041 0.41684 0.7764 0.0
N953 N 0.55836 0.46398 0.68741 0.0
H954 H 0.61845 0.18357 0.86877 0.0
H955 H 0.54072 0.08524 0.65118 0.0
H956 H 0.60201 0.09224 0.85772 0.0
H957 H 0.61118 0.17824 0.63419 0.0
H958 H 0.55524 0.08816 0.7326 0.0
H959 H 0.61062 0.18349 0.78533 0.0
C960 C 0.6139 0.16384 0.84847 0.0
C961 C 0.61077 0.13786 0.86954 0.0
C962 C 0.56735 0.10786 0.71082 0.0
C963 C 0.60075 0.13723 0.77595 0.0
C964 C 0.55884 0.10633 0.66496 0.0
C965 C 0.57488 0.13155 0.6367 0.0
C966 C 0.59145 0.13495 0.72804 0.0
C967 C 0.59846 0.15836 0.65539 0.0
C968 C 0.60934 0.16376 0.80127 0.0
C969 C 0.60474 0.11272 0.84233 0.0
N970 N 0.60602 0.15948 0.7003 0.0
N971 N 0.59921 0.11275 0.79673 0.0
H972 H 0.24201 0.50323 0.44615 0.0
H973 H 0.18504 0.41315 0.68236 0.0
H974 H 0.23819 0.41794 0.46832 0.0
H975 H 0.24082 0.51029 0.67753 0.0
H976 H 0.18829 0.41132 0.59773 0.0
H977 H 0.22647 0.50263 0.52642 0.0
C978 C 0.23779 0.48435 0.46793 0.0
C979 C 0.24171 0.46076 0.45105 0.0
C980 C 0.19917 0.43301 0.61533 0.0
C981 C 0.22321 0.45961 0.54174 0.0
C982 C 0.19705 0.43409 0.66323 0.0
C983 C 0.21273 0.46191 0.68631 0.0
C984 C 0.21653 0.46 0.59093 0.0
C985 C 0.2285 0.48846 0.66055 0.0
C986 C 0.22886 0.48401 0.51344 0.0
C987 C 0.23583 0.43674 0.48042 0.0
N988 N 0.23011 0.48688 0.61401 0.0
N989 N 0.22676 0.43672 0.52455 0.0
H990 H 0.61978 0.82779 0.48154 0.0
H991 H 0.52324 0.75344 0.69608 0.0
H992 H 0.5296 0.7525 0.45975 0.0
H993 H 0.61452 0.76953 0.68953 0.0
H994 H 0.52287 0.75632 0.61159 0.0
H995 H 0.61704 0.81235 0.56208 0.0
C996 C 0.59934 0.8082 0.49396 0.0
C997 C 0.57478 0.79142 0.46457 0.0
C998 C 0.54264 0.75849 0.6288 0.0
C999 C 0.5716 0.77385 0.55554 0.0
C1000 C 0.5429 0.75691 0.67667 0.0
C1001 C 0.56903 0.76149 0.69928 0.0
C1002 C 0.56902 0.76567 0.60416 0.0
C1003 C 0.59397 0.76588 0.67306 0.0
C1004 C 0.59797 0.79921 0.53944 0.0
C1005 C 0.54892 0.76595 0.48177 0.0
N1006 N 0.59367 0.76866 0.62664 0.0
N1007 N 0.54777 0.75809 0.52665 0.0
H1008 H 0.30213 0.8038 0.67444 0.0
H1009 H 0.21282 0.80431 0.46157 0.0
H1010 H 0.25906 0.85782 0.67546 0.0
H1011 H 0.29716 0.80533 0.44281 0.0
H1012 H 0.22719 0.8211 0.54156 0.0
H1013 H 0.30025 0.80246 0.58999 0.0
C1014 C 0.29304 0.81604 0.65658 0.0
C1015 C 0.28077 0.83097 0.68124 0.0
C1016 C 0.24263 0.81797 0.51964 0.0
C1017 C 0.27746 0.82856 0.58581 0.0
C1018 C 0.2343 0.80802 0.47439 0.0
C1019 C 0.25373 0.80316 0.44603 0.0
C1020 C 0.27018 0.8223 0.53663 0.0
C1021 C 0.28152 0.8087 0.46385 0.0
C1022 C 0.29194 0.81526 0.60865 0.0
C1023 C 0.26893 0.84631 0.65715 0.0
N1024 N 0.28876 0.81755 0.50843 0.0
N1025 N 0.26683 0.84408 0.61045 0.0
H1026 H 0.579 0.83566 0.96002 0.0
H1027 H 0.62319 0.80143 0.20312 0.0
H1028 H 0.62412 0.78427 0.97972 0.0
H1029 H 0.58778 0.86146 0.18519 0.0
H1030 H 0.63151 0.8021 0.12031 0.0
H1031 H 0.58863 0.85167 0.04052 0.0
C1032 C 0.59105 0.82783 0.98127 0.0
C1033 C 0.6002 0.80805 0.96357 0.0
C1034 C 0.62235 0.81555 0.13426 0.0
C1035 C 0.61144 0.82647 0.05541 0.0
C1036 C 0.61758 0.8151 0.18141 0.0
C1037 C 0.60435 0.83099 0.20016 0.0
C1038 C 0.61304 0.83138 0.1057 0.0
C1039 C 0.59781 0.84877 0.1714 0.0
C1040 C 0.59674 0.83719 0.02711 0.0
C1041 C 0.61623 0.79912 -0.00776 0.0
N1042 N 0.60165 0.848 0.12508 0.0
N1043 N 0.62103 0.80813 0.037 0.0
H1044 H 0.23841 0.83424 0.96361 0.0
H1045 H 0.23871 0.74009 0.17109 0.0
H1046 H 0.23398 0.74854 0.94069 0.0
H1047 H 0.18779 0.78631 0.179 0.0
H1048 H 0.23953 0.74398 0.08685 0.0
H1049 H 0.22317 0.81976 0.04414 0.0
C1050 C 0.23422 0.81244 0.97557 0.0
C1051 C 0.23767 0.79263 0.94585 0.0
C1052 C 0.22754 0.75261 0.10696 0.0
C1053 C 0.2204 0.77611 0.037 0.0
C1054 C 0.22702 0.75032 0.15476 0.0
C1055 C 0.21301 0.76275 0.18133 0.0
C1056 C 0.21493 0.76842 0.08614 0.0
C1057 C 0.19849 0.7762 0.15918 0.0
C1058 C 0.22522 0.80407 0.02115 0.0
C1059 C 0.23165 0.76447 0.96268 0.0
N1060 N 0.20043 0.77937 0.11259 0.0
N1061 N 0.22373 0.7572 0.00745 0.0
H1062 H 0.29365 0.4997 0.94769 0.0
H1063 H 0.25056 0.40631 0.18195 0.0
H1064 H 0.20791 0.41794 0.96837 0.0
H1065 H 0.30524 0.5035 0.17693 0.0
H1066 H 0.2455 0.40513 0.0974 0.0
H1067 H 0.3078 0.49619 0.02684 0.0
C1068 C 0.27783 0.48098 0.96892 0.0
C1069 C 0.24941 0.45925 0.95188 0.0
C1070 C 0.25922 0.42658 0.11487 0.0
C1071 C 0.26578 0.45483 0.04159 0.0
C1072 C 0.26241 0.42722 0.16272 0.0
C1073 C 0.27842 0.45504 0.18567 0.0
C1074 C 0.27257 0.45394 0.09051 0.0
C1075 C 0.29284 0.48168 0.15994 0.0
C1076 C 0.28599 0.47896 0.01385 0.0
C1077 C 0.22983 0.43537 0.9806 0.0
N1078 N 0.28946 0.48052 0.11352 0.0
N1079 N 0.23841 0.43375 0.02429 0.0
H1080 H 0.92493 0.74854 0.81217 0.0
H1081 H 0.84308 0.77957 0.02288 0.0
H1082 H 0.86992 0.79032 0.79906 0.0
H1083 H 0.91191 0.75489 0.03574 0.0
H1084 H 0.84117 0.76976 0.93927 0.0
H1085 H 0.90908 0.73726 0.89279 0.0
C1086 C 0.9094 0.75515 0.82617 0.0
C1087 C 0.89938 0.77109 0.79943 0.0
C1088 C 0.85626 0.76597 0.96066 0.0
C1089 C 0.88109 0.75822 0.89104 0.0
C1090 C 0.85724 0.77149 0.00809 0.0
C1091 C 0.87822 0.76875 0.03528 0.0
C1092 C 0.87625 0.75751 0.94121 0.0
C1093 C 0.89601 0.758 0.01523 0.0
C1094 C 0.90025 0.74862 0.87203 0.0
C1095 C 0.8788 0.77865 0.8189 0.0
N1096 N 0.89489 0.75309 0.96922 0.0
N1097 N 0.87062 0.77247 0.86377 0.0
H1098 H 0.28853 0.17418 0.79873 0.0
H1099 H 0.2127 0.06204 0.00593 0.0
H1100 H 0.21537 0.08245 0.77926 0.0
H1101 H 0.30306 0.13858 0.01371 0.0
H1102 H 0.2139 0.06761 0.92196 0.0
H1103 H 0.29443 0.16155 0.87785 0.0
C1104 C 0.27368 0.15145 0.81116 0.0
C1105 C 0.25126 0.1294 0.7827 0.0
C1106 C 0.2338 0.0827 0.94181 0.0
C1107 C 0.25802 0.11478 0.87253 0.0
C1108 C 0.23315 0.07933 -0.01052 0.0
C1109 C 0.25797 0.09965 0.01589 0.0
C1110 C 0.2591 0.10717 0.92113 0.0
C1111 C 0.28375 0.12227 -0.00616 0.0
C1112 C 0.27728 0.14415 0.85604 0.0
C1113 C 0.23286 0.10017 0.80021 0.0
N1114 N 0.2835 0.12582 0.94753 0.0
N1115 N 0.23648 0.09377 0.84419 0.0
H1116 H 0.8741 0.1365 0.80277 0.0
H1117 H 0.97117 0.13684 0.00781 0.0
H1118 H 0.9583 0.13832 0.77752 0.0
H1119 H 0.92571 0.18848 0.01648 0.0
H1120 H 0.96571 0.13482 0.92374 0.0
H1121 H 0.88984 0.15193 0.88302 0.0
C1122 C 0.8958 0.14007 0.8142 0.0
C1123 C 0.91487 0.13595 0.78386 0.0
C1124 C 0.95761 0.14724 0.94395 0.0
C1125 C 0.93285 0.1535 0.87466 0.0
C1126 C 0.96084 0.14849 -0.00834 0.0
C1127 C 0.94903 0.16301 0.01847 0.0
C1128 C 0.94151 0.15966 0.92349 0.0
C1129 C 0.93539 0.17742 -0.00349 0.0
C1130 C 0.9049 0.14921 0.85961 0.0
C1131 C 0.94294 0.1412 0.8 0.0
N1132 N 0.9313 0.17477 0.95008 0.0
N1133 N 0.95094 0.14933 0.84459 0.0
H1134 H 0.28971 0.13546 0.29874 0.0
H1135 H 0.19319 0.12906 0.5093 0.0
H1136 H 0.2034 0.12951 0.27688 0.0
H1137 H 0.28976 0.18936 0.51063 0.0
H1138 H 0.19486 0.12588 0.42502 0.0
H1139 H 0.28918 0.15103 0.3788 0.0
C1140 C 0.27062 0.13731 0.31093 0.0
C1141 C 0.24643 0.13099 0.2816 0.0
C1142 C 0.21555 0.14036 0.44372 0.0
C1143 C 0.24577 0.1487 0.37229 0.0
C1144 C 0.2146 0.1422 0.49154 0.0
C1145 C 0.24138 0.1595 0.51636 0.0
C1146 C 0.2436 0.1551 0.42116 0.0
C1147 C 0.26866 0.17598 0.4923 0.0
C1148 C 0.27054 0.14655 0.35622 0.0
C1149 C 0.22242 0.13411 0.29866 0.0
N1150 N 0.26922 0.17281 0.44581 0.0
N1151 N 0.22246 0.14235 0.34327 0.0
H1152 H 0.90238 0.07723 0.27899 0.0
H1153 H 0.85049 0.1217 0.51225 0.0
H1154 H 0.90325 0.16159 0.29686 0.0
H1155 H 0.90088 0.07482 0.5103 0.0
H1156 H 0.85277 0.12372 0.42733 0.0
H1157 H 0.88571 0.06436 0.3593 0.0
C1158 C 0.89887 0.09292 0.29976 0.0
C1159 C 0.90459 0.1207 0.28176 0.0
C1160 C 0.86263 0.11236 0.44564 0.0
C1161 C 0.88485 0.10576 0.37245 0.0
C1162 C 0.86108 0.11096 0.49373 0.0
C1163 C 0.87556 0.09811 0.51759 0.0
C1164 C 0.87823 0.1003 0.42194 0.0
C1165 C 0.88953 0.08493 0.49264 0.0
C1166 C 0.8893 0.08552 0.34531 0.0
C1167 C 0.89955 0.14018 0.30985 0.0
N1168 N 0.89064 0.08644 0.44595 0.0
N1169 N 0.88991 0.13233 0.35399 0.0
H1170 H 0.96647 0.80793 0.28953 0.0
H1171 H 0.92289 0.84295 0.53589 0.0
H1172 H 0.88381 0.80843 0.31837 0.0
H1173 H 0.96488 0.78797 0.52241 0.0
H1174 H 0.92284 0.84682 0.4523 0.0
H1175 H 0.97874 0.81543 0.37235 0.0
C1176 C 0.95113 0.80992 0.31331 0.0
C1177 C 0.92401 0.80734 0.29767 0.0
C1178 C 0.93243 0.83428 0.46781 0.0
C1179 C 0.93818 0.81659 0.39081 0.0
C1180 C 0.93253 0.83204 0.51542 0.0
C1181 C 0.94326 0.81446 0.536 0.0
C1182 C 0.94339 0.81914 0.44065 0.0
C1183 C 0.95597 0.80132 0.50775 0.0
C1184 C 0.95811 0.81413 0.36019 0.0
C1185 C 0.90476 0.80998 0.32939 0.0
N1186 N 0.95539 0.80365 0.46113 0.0
N1187 N 0.9123 0.81461 0.37463 0.0
H1188 H 0.36027 0.98313 0.87935 0.0
H1189 H 0.52405 1.01257 0.95937 0.0
H1190 H 0.38008 0.9106 0.88664 0.0
H1191 H 0.49559 0.07907 0.95968 0.0
H1192 H 0.47285 0.97436 0.93228 0.0
H1193 H 0.41092 0.0181 0.90792 0.0
C1194 C 0.37522 0.97446 0.88686 0.0
C1195 C 0.36551 0.94366 0.88034 0.0
C1196 C 0.47799 0.99737 0.93847 0.0
C1197 C 0.42444 0.98411 0.91365 0.0
C1198 C 0.50725 0.0192 0.95395 0.0
C1199 C 0.51454 0.04933 0.96201 0.0
C1200 C 0.45591 1.00576 0.93086 0.0
C1201 C 0.49155 0.05637 0.95417 0.0
C1202 C 0.40431 0.99453 0.90345 0.0
C1203 C 0.38621 0.93399 0.89146 0.0
N1204 N 0.46371 0.03501 0.93916 0.0
N1205 N 0.41461 0.95408 0.90731 0.0
H1206 H 0.95943 0.41993 0.9747 0.0
H1207 H 0.13023 0.48117 0.89043 0.0
H1208 H 1.0217 0.51541 0.95734 0.0
H1209 H 0.05922 0.38772 0.88679 0.0
H1210 H 0.09381 0.4951 0.92078 0.0
H1211 H 0.9983 0.40919 0.94974 0.0
C1212 C 0.9814 0.43887 0.96584 0.0
C1213 C 0.98691 0.46878 0.96805 0.0
C1214 C 0.08626 0.47156 0.91344 0.0
C1215 C 0.03243 0.45619 0.93867 0.0
C1216 C 0.10712 0.46348 0.89635 0.0
C1217 C 0.09797 0.43305 0.88593 0.0
C1218 C 0.05595 0.44909 0.92076 0.0
C1219 C 0.06747 0.4114 0.8938 0.0
C1220 C 1.00374 0.43257 0.95135 0.0
C1221 C 1.01623 0.49204 0.95633 0.0
N1222 N 0.0478 0.41981 0.91071 0.0
N1223 N 0.03783 0.48526 0.94197 0.0
H1224 H 0.56125 0.66154 0.89544 0.0
H1225 H 0.61928 0.54569 0.95129 0.0
H1226 H 0.65129 0.67808 0.86831 0.0
H1227 H 0.52435 0.51748 0.95733 0.0
H1228 H 0.63066 0.59554 0.92774 0.0
H1229 H 0.54702 0.61088 0.92392 0.0
C1230 C 0.57816 0.65476 0.89576 0.0
C1231 C 0.60769 0.67446 0.8793 0.0
C1232 C 0.60727 0.57865 0.93414 0.0
C1233 C 0.5913 0.61606 0.91197 0.0
C1234 C 0.6006 0.54985 0.94783 0.0
C1235 C 0.5706 0.52678 0.95626 0.0
C1236 C 0.58397 0.58524 0.92858 0.0
C1237 C 0.54777 0.53433 0.9513 0.0
C1238 C 0.56988 0.62564 0.9118 0.0
C1239 C 0.62828 0.66388 0.88013 0.0
N1240 N 0.55491 0.56287 0.93768 0.0
N1241 N 0.61975 0.63569 0.89619 0.0
H1242 H 0.02726 0.51922 0.46079 0.0
H1243 H 0.06412 0.68691 0.39118 0.0
H1244 H 0.9654 0.55305 0.47407 0.0
H1245 H 0.13243 0.66103 0.38713 0.0
H1246 H 0.0283 0.63731 0.42229 0.0
H1247 H 0.06693 0.57019 0.43573 0.0
C1248 C 1.02207 0.53729 0.45907 0.0
C1249 C 0.99273 0.53153 0.46945 0.0
C1250 C 0.05115 0.64238 0.41483 0.0
C1251 C 0.03788 0.58983 0.44031 0.0
C1252 C 0.07166 0.67083 0.39677 0.0
C1253 C 0.10151 0.67848 0.38628 0.0
C1254 C 0.06014 0.62084 0.42244 0.0
C1255 C 0.10983 0.65647 0.39503 0.0
C1256 C 0.04468 0.56637 0.44451 0.0
C1257 C 0.98743 0.55599 0.46615 0.0
N1258 N 0.08929 0.6287 0.41227 0.0
N1259 N 1.00951 0.58366 0.45181 0.0
H1260 H 0.525 0.51725 0.45522 0.0
H1261 H 0.35609 0.38443 0.39254 0.0
H1262 H 0.49207 0.42162 0.468 0.0
H1263 H 0.38179 0.47868 0.38834 0.0
H1264 H 0.4064 0.3989 0.4211 0.0
H1265 H 0.47347 0.50517 0.43266 0.0
C1266 C 0.50703 0.49384 0.45387 0.0
C1267 C 0.51319 0.4705 0.46342 0.0
C1268 C 0.40113 0.41654 0.41415 0.0
C1269 C 0.45422 0.45646 0.43718 0.0
C1270 C 0.37227 0.4082 0.39756 0.0
C1271 C 0.36437 0.43022 0.38779 0.0
C1272 C 0.42281 0.44728 0.42096 0.0
C1273 C 0.38654 0.46077 0.39574 0.0
C1274 C 0.47762 0.48692 0.44076 0.0
C1275 C 0.48882 0.44054 0.4607 0.0
N1276 N 0.41468 0.46837 0.41154 0.0
N1277 N 0.4608 0.43451 0.44776 0.0
H1278 H 0.65483 0.97802 0.42015 0.0
H1279 H 0.52246 0.01693 0.46533 0.0
H1280 H 0.56107 0.91206 0.39649 0.0
H1281 H 0.61451 0.07167 0.51191 0.0
H1282 H 0.53449 0.97784 0.43993 0.0
H1283 H 0.63947 1.01266 0.452 0.0
C1284 C 0.63098 0.97076 0.42155 0.0
C1285 C 0.60936 0.94188 0.40544 0.0
C1286 C 0.55192 0.99832 0.45618 0.0
C1287 C 0.59128 0.98193 0.44229 0.0
C1288 C 0.54496 0.02057 0.47107 0.0
C1289 C 0.56746 0.04791 0.49079 0.0
C1290 C 0.58163 1.00349 0.46077 0.0
C1291 C 0.59637 0.0513 0.49659 0.0
C1292 C 0.62213 0.99058 0.44006 0.0
C1293 C 0.57865 0.93388 0.40882 0.0
N1294 N 0.60257 0.02971 0.48145 0.0
N1295 N 0.57058 0.95377 0.42649 0.0
H1296 H 0.19132 0.34806 0.29321 0.0
H1297 H 1.02361 0.31228 0.22472 0.0
H1298 H 0.15993 0.41215 0.29988 0.0
H1299 H 0.04825 0.24302 0.22402 0.0
H1300 H 0.07393 0.34844 0.25343 0.0
H1301 H 0.13979 0.30851 0.26999 0.0
C1302 C 0.1737 0.35381 0.29033 0.0
C1303 C 0.18031 0.38371 0.29848 0.0
C1304 C 0.06843 0.32532 0.24722 0.0
C1305 C 0.12128 0.3386 0.27149 0.0
C1306 C 0.03954 0.30458 0.23054 0.0
C1307 C 0.03131 0.27434 0.22167 0.0
C1308 C 0.08982 0.31616 0.25509 0.0
C1309 C 0.05321 0.2659 0.23067 0.0
C1310 C 0.14428 0.33124 0.27686 0.0
C1311 C 0.15634 0.38966 0.2938 0.0
N1312 N 0.08137 0.28664 0.24657 0.0
N1313 N 0.1283 0.36757 0.28059 0.0
H1314 H 0.63649 0.75909 0.34322 0.0
H1315 H 0.8015 0.81761 0.23343 0.0
H1316 H 0.6941 0.85209 0.30338 0.0
H1317 H 0.73564 0.72411 0.25898 0.0
H1318 H 0.76585 0.83228 0.2648 0.0
H1319 H 0.67568 0.74804 0.31997 0.0
C1320 C 0.65762 0.77744 0.33014 0.0
C1321 C 0.66174 0.80668 0.32544 0.0
C1322 C 0.75927 0.80858 0.26367 0.0
C1323 C 0.70734 0.79378 0.29758 0.0
C1324 C 0.77974 0.80012 0.24594 0.0
C1325 C 0.77177 0.7694 0.24326 0.0
C1326 C 0.73057 0.78627 0.27939 0.0
C1327 C 0.74291 0.74796 0.25965 0.0
C1328 C 0.68007 0.77098 0.31653 0.0
C1329 C 0.68986 0.8293 0.30813 0.0
N1330 N 0.7236 0.75677 0.27687 0.0
N1331 N 0.71145 0.82234 0.29453 0.0
H1332 H 0.19207 0.85003 0.28675 0.0
H1333 H 0.32464 0.01862 0.22278 0.0
H1334 H 0.28776 0.88244 0.29599 0.0
H1335 H 0.23038 0.99284 0.21886 0.0
H1336 H 0.31029 0.96832 0.25099 0.0
H1337 H 0.2041 0.90152 0.26414 0.0
C1338 C 0.21548 0.86787 0.28455 0.0
C1339 C 0.23884 0.86159 0.29317 0.0
C1340 C 0.29263 0.97357 0.24418 0.0
C1341 C 0.25281 0.92049 0.26698 0.0
C1342 C 0.30089 1.00243 0.22779 0.0
C1343 C 0.27883 1.0103 0.2182 0.0
C1344 C 0.26192 0.95189 0.25098 0.0
C1345 C 0.24832 0.98812 0.22614 0.0
C1346 C 0.22237 0.89725 0.27144 0.0
C1347 C 0.26882 0.88579 0.28943 0.0
N1348 N 0.24079 0.95999 0.24177 0.0
N1349 N 0.27481 0.91378 0.27657 0.0
H1350 H 0.72359 1.01564 0.71523 0.0
H1351 H 0.6936 0.85205 0.79736 0.0
H1352 H 0.79605 0.99579 0.72404 0.0
H1353 H 0.62623 0.87902 0.78715 0.0
H1354 H 0.73223 0.90343 0.77174 0.0
H1355 H 0.68843 0.9649 0.74264 0.0
C1356 C 0.73222 1.00067 0.7228 0.0
C1357 C 0.76306 1.01041 0.71694 0.0
C1358 C 0.70892 0.89792 0.7753 0.0
C1359 C 0.72232 0.95129 0.74907 0.0
C1360 C 0.68685 0.86855 0.78993 0.0
C1361 C 0.65635 0.86079 0.79469 0.0
C1362 C 0.70043 0.91966 0.76532 0.0
C1363 C 0.6492 0.88342 0.78435 0.0
C1364 C 0.71202 0.97149 0.73874 0.0
C1365 C 0.77263 0.98966 0.72826 0.0
N1366 N 0.67081 0.91137 0.77035 0.0
N1367 N 0.75241 0.96116 0.74354 0.0
H1368 H 0.02937 0.72567 0.68932 0.0
H1369 H 0.18994 0.85354 0.79167 0.0
H1370 H 0.04541 0.81421 0.72748 0.0
H1371 H 0.16106 0.75869 0.7778 0.0
H1372 H 0.13901 0.84192 0.76606 0.0
H1373 H 0.07948 0.73957 0.71824 0.0
C1374 C 0.0434 0.74808 0.7037 0.0
C1375 C 0.03283 0.76865 0.70584 0.0
C1376 C 0.14398 0.82375 0.76891 0.0
C1377 C 0.091 0.78504 0.73941 0.0
C1378 C 0.17305 0.83039 0.78362 0.0
C1379 C 0.18019 0.8072 0.78692 0.0
C1380 C 0.12199 0.79377 0.75711 0.0
C1381 C 0.15714 0.77758 0.77575 0.0
C1382 C 0.07212 0.75604 0.7205 0.0
C1383 C 0.05228 0.79739 0.72545 0.0
N1384 N 0.12952 0.77189 0.76132 0.0
N1385 N 0.08038 0.80477 0.74119 0.0
H1386 H 0.32113 0.31783 0.70713 0.0
H1387 H 0.19039 0.35143 0.7931 0.0
H1388 H 0.22828 0.24674 0.72177 0.0
H1389 H 0.28577 0.41712 0.78919 0.0
H1390 H 0.2023 0.31225 0.76762 0.0
H1391 H 0.3073 0.35406 0.73681 0.0
C1392 C 0.2978 0.30975 0.71653 0.0
C1393 C 0.27599 0.27897 0.71176 0.0
C1394 C 0.22055 0.33527 0.77262 0.0
C1395 C 0.25969 0.32083 0.74627 0.0
C1396 C 0.21374 0.35764 0.78732 0.0
C1397 C 0.23699 0.38785 0.79334 0.0
C1398 C 0.25081 0.34315 0.76375 0.0
C1399 C 0.26687 0.39436 0.78497 0.0
C1400 C 0.28986 0.33053 0.73376 0.0
C1401 C 0.24607 0.27007 0.72521 0.0
N1402 N 0.27276 0.37245 0.77061 0.0
N1403 N 0.23881 0.29083 0.74155 0.0
H1404 H 0.71473 0.5764 0.55297 0.0
H1405 H 0.82533 0.74859 0.63083 0.0
H1406 H 0.6916 0.64675 0.55265 0.0
H1407 H 0.85684 0.68457 0.62266 0.0
H1408 H 0.77594 0.70983 0.60541 0.0
H1409 H 0.76546 0.6133 0.58132 0.0
C1410 C 0.72007 0.59945 0.55918 0.0
C1411 C 0.69847 0.60827 0.55027 0.0
C1412 C 0.79345 0.70397 0.60905 0.0
C1413 C 0.75703 0.65088 0.58254 0.0
C1414 C 0.82202 0.72629 0.62377 0.0
C1415 C 0.84583 0.72019 0.62908 0.0
C1416 C 0.78784 0.6747 0.59919 0.0
C1417 C 0.83939 0.69051 0.61915 0.0
C1418 C 0.74924 0.6206 0.57511 0.0
C1419 C 0.70727 0.63874 0.55843 0.0
N1420 N 0.81105 0.66889 0.60468 0.0
N1421 N 0.7356 0.65869 0.57401 0.0
H1422 H 0.28816 0.08861 0.61783 0.0
H1423 H 0.46288 0.14848 0.55871 0.0
H1424 H 0.35509 0.18363 0.62346 0.0
H1425 H 0.39102 0.05573 0.54598 0.0
H1426 H 0.42577 0.16242 0.58544 0.0
H1427 H 0.32698 0.07725 0.59499 0.0
C1428 C 0.31111 0.10729 0.61442 0.0
C1429 C 0.31803 0.1373 0.62269 0.0
C1430 C 0.41818 0.13903 0.57686 0.0
C1431 C 0.3635 0.12401 0.59586 0.0
C1432 C 0.43943 0.13093 0.5618 0.0
C1433 C 0.4303 0.1007 0.54989 0.0
C1434 C 0.38742 0.1168 0.5804 0.0
C1435 C 0.39934 0.07929 0.55414 0.0
C1436 C 0.33344 0.10065 0.60119 0.0
C1437 C 0.34851 0.16018 0.6176 0.0
N1438 N 0.37927 0.08772 0.56896 0.0
N1439 N 0.37007 0.15308 0.60445 0.0
H1440 H 0.98815 0.35516 0.56946 0.0
H1441 H 0.85365 0.18546 0.62238 0.0
H1442 H 0.89421 0.32969 0.55854 0.0
H1443 H 0.94886 0.21798 0.6404 0.0
H1444 H 0.86635 0.2374 0.60125 0.0
H1445 H 0.97283 0.30445 0.59683 0.0
C1446 C 0.96427 0.33894 0.57276 0.0
C1447 C 0.94259 0.34702 0.56142 0.0
C1448 C 0.88435 0.23305 0.61018 0.0
C1449 C 0.92453 0.28812 0.5932 0.0
C1450 C 0.87708 0.20342 0.62247 0.0
C1451 C 0.90015 0.19705 0.633 0.0
C1452 C 0.91488 0.25645 0.60849 0.0
C1453 C 0.93016 0.2214 0.63219 0.0
C1454 C 0.95543 0.30985 0.58867 0.0
C1455 C 0.91185 0.3248 0.56718 0.0
N1456 N 0.93653 0.24963 0.62005 0.0
N1457 N 0.90376 0.29641 0.58234 0.0
H1458 H 0.36023 0.18286 0.1213 0.0
H1459 H 0.39555 0.35102 0.05873 0.0
H1460 H 0.29815 0.21596 0.14058 0.0
H1461 H 0.46464 0.32625 0.05335 0.0
H1462 H 0.36007 0.30091 0.08877 0.0
H1463 H 0.39949 0.23434 0.09768 0.0
C1464 C 0.35492 0.20088 0.12126 0.0
C1465 C 0.32562 0.19477 0.13292 0.0
C1466 C 0.38301 0.30635 0.08126 0.0
C1467 C 0.37032 0.25368 0.10527 0.0
C1468 C 0.40334 0.33509 0.06381 0.0
C1469 C 0.43331 0.3432 0.05327 0.0
C1470 C 0.39233 0.28498 0.08811 0.0
C1471 C 0.44194 0.32134 0.0613 0.0
C1472 C 0.3773 0.23026 0.1075 0.0
C1473 C 0.32017 0.21919 0.13169 0.0
N1474 N 0.42159 0.2933 0.07788 0.0
N1475 N 0.34202 0.24716 0.11798 0.0
H1476 H 0.85689 0.18088 0.13202 0.0
H1477 H 0.69785 0.05297 0.02464 0.0
H1478 H 0.83119 0.0875 0.10853 0.0
H1479 H 0.7132 0.14108 0.06412 0.0
H1480 H 0.74804 0.06707 0.05337 0.0
H1481 H 0.80586 0.16874 0.10632 0.0
C1482 C 0.84068 0.15792 0.12179 0.0
C1483 C 0.84872 0.13531 0.12257 0.0
C1484 C 0.74051 0.08341 0.05597 0.0
C1485 C 0.79032 0.12128 0.09274 0.0
C1486 C 0.71173 0.07532 0.03928 0.0
C1487 C 0.70092 0.09571 0.0418 0.0
C1488 C 0.75921 0.11233 0.07527 0.0
C1489 C 0.72021 0.12437 0.06179 0.0
C1490 C 0.81153 0.15099 0.10705 0.0
C1491 C 0.82651 0.10593 0.10865 0.0
N1492 N 0.74835 0.13185 0.07749 0.0
N1493 N 0.79875 0.09994 0.09434 0.0
H1494 H 0.98614 0.64219 0.07243 0.0
H1495 H 0.85737 0.68204 0.141 0.0
H1496 H 0.89147 0.57483 0.0666 0.0
H1497 H 0.95208 0.73813 0.17295 0.0
H1498 H 0.86764 0.64202 0.11401 0.0
H1499 H 0.97289 0.67761 0.10759 0.0
C1500 C 0.96253 0.63479 0.07848 0.0
C1501 C 0.94002 0.6053 0.06637 0.0
C1502 C 0.88605 0.66298 0.12755 0.0
C1503 C 0.92438 0.64622 0.10702 0.0
C1504 C 0.88011 0.68574 0.14342 0.0
C1505 C 0.90382 0.71368 0.15945 0.0
C1506 C 0.91594 0.66825 0.12738 0.0
C1507 C 0.93297 0.71717 0.16081 0.0
C1508 C 0.95491 0.65505 0.09889 0.0
C1509 C 0.90971 0.59713 0.07569 0.0
N1510 N 0.93815 0.69509 0.14473 0.0
N1511 N 0.9028 0.61746 0.09504 0.0
loop_
_geom_bond_atom_site_label_1
_geom_bond_atom_site_label_2
_geom_bond_distance
_geom_bond_site_symmetry_2
_ccdc_geom_bond_type
Co0 N5 2.057 . S
Co0 O17 2.021 . S
Co0 O20 2.062 . S
Co0 O24 2.117 . S
Co0 O25 2.020 1_554 S
C1 O21 1.259 1_556 S
C1 O24 1.258 1_556 S
Co2 N11 2.057 . S
Co2 O18 2.117 . S
Co2 O19 2.020 . S
Co2 O21 2.021 . S
Co2 O26 2.062 1_554 S
C3 N5 1.316 . S
C3 N6 1.347 . S
C3 H8 0.931 . S
C4 N5 1.375 . S
C4 C7 1.350 . S
C4 H9 0.930 1_554 S
N5 Co0 2.057 . S
N5 C3 1.316 . S
N5 C4 1.375 . S
N6 C3 1.347 . S
N6 C7 1.373 . S
C7 C4 1.350 . S
C7 N6 1.373 . S
C7 H28 0.931 . S
H8 C3 0.931 . S
H9 C4 0.930 1_556 S
C10 O17 1.259 . S
C10 O18 1.258 . S
N11 Co2 2.057 . S
N11 C12 1.316 1_554 S
N11 C13 1.375 . S
C12 N11 1.316 1_556 S
C12 N14 1.347 . S
C12 H23 0.931 . S
C13 N11 1.375 . S
C13 C15 1.350 1_554 S
C13 H22 0.930 . S
N14 C12 1.347 . S
N14 C15 1.373 . S
C15 C13 1.350 1_556 S
C15 N14 1.373 . S
C15 H29 0.931 . S
C16 O19 1.256 . S
C16 O20 1.255 . S
O17 Co0 2.021 . S
O17 C10 1.259 . S
O18 Co2 2.117 . S
O18 C10 1.258 . S
O19 Co2 2.020 . S
O19 C16 1.256 . S
O20 Co0 2.062 . S
O20 C16 1.255 . S
O21 C1 1.259 1_554 S
O21 Co2 2.021 . S
H22 C13 0.930 . S
H23 C12 0.931 . S
O24 Co0 2.117 . S
O24 C1 1.258 1_554 S
O25 Co0 2.020 1_556 S
O25 C27 1.256 . S
O26 Co2 2.062 1_556 S
O26 C27 1.255 . S
C27 O25 1.256 . S
C27 O26 1.255 . S
H28 C7 0.931 . S
H29 C15 0.931 . S
Co30 N35 2.057 . S
Co30 O47 2.021 . S
Co30 O50 2.062 . S
Co30 O54 2.117 . S
Co30 O55 2.020 1_554 S
C31 O51 1.259 1_556 S
C31 O54 1.258 1_556 S
Co32 N41 2.057 . S
Co32 O48 2.117 . S
Co32 O49 2.020 . S
Co32 O51 2.021 . S
Co32 O56 2.062 1_554 S
C33 N35 1.316 . S
C33 N36 1.347 . S
C33 H38 0.931 . S
C34 N35 1.375 . S
C34 C37 1.350 . S
C34 H39 0.930 1_554 S
N35 Co30 2.057 . S
N35 C33 1.316 . S
N35 C34 1.375 . S
N36 C33 1.347 . S
N36 C37 1.373 . S
C37 C34 1.350 . S
C37 N36 1.373 . S
C37 H58 0.931 . S
H38 C33 0.931 . S
H39 C34 0.930 1_556 S
C40 O47 1.259 . S
C40 O48 1.258 . S
N41 Co32 2.057 . S
N41 C42 1.316 1_554 S
N41 C43 1.375 . S
C42 N41 1.316 1_556 S
C42 N44 1.347 . S
C42 H53 0.931 . S
C43 N41 1.375 . S
C43 C45 1.350 1_554 S
C43 H52 0.930 . S
N44 C42 1.347 . S
N44 C45 1.373 . S
C45 C43 1.350 1_556 S
C45 N44 1.373 . S
C45 H59 0.931 . S
C46 O49 1.256 . S
C46 O50 1.255 . S
O47 Co30 2.021 . S
O47 C40 1.259 . S
O48 Co32 2.117 . S
O48 C40 1.258 . S
O49 Co32 2.020 . S
O49 C46 1.256 . S
O50 Co30 2.062 . S
O50 C46 1.255 . S
O51 C31 1.259 1_554 S
O51 Co32 2.021 . S
H52 C43 0.930 . S
H53 C42 0.931 . S
O54 Co30 2.117 . S
O54 C31 1.258 1_554 S
O55 Co30 2.020 1_556 S
O55 C57 1.256 . S
O56 Co32 2.062 1_556 S
O56 C57 1.255 . S
C57 O55 1.256 . S
C57 O56 1.255 . S
H58 C37 0.931 . S
H59 C45 0.931 . S
Co60 N65 2.057 . S
Co60 O77 2.021 . S
Co60 O80 2.062 . S
Co60 O84 2.117 . S
Co60 O85 2.020 1_554 S
C61 O81 1.259 1_556 S
C61 O84 1.258 1_556 S
Co62 N71 2.057 . S
Co62 O78 2.117 . S
Co62 O79 2.020 . S
Co62 O81 2.021 . S
Co62 O86 2.062 1_554 S
C63 N65 1.316 . S
C63 N66 1.347 . S
C63 H68 0.931 . S
C64 N65 1.375 . S
C64 C67 1.350 . S
C64 H69 0.930 1_554 S
N65 Co60 2.057 . S
N65 C63 1.316 . S
N65 C64 1.375 . S
N66 C63 1.347 . S
N66 C67 1.373 . S
C67 C64 1.350 . S
C67 N66 1.373 . S
C67 H88 0.931 . S
H68 C63 0.931 . S
H69 C64 0.930 1_556 S
C70 O77 1.259 . S
C70 O78 1.258 . S
N71 Co62 2.057 . S
N71 C72 1.316 1_554 S
N71 C73 1.375 . S
C72 N71 1.316 1_556 S
C72 N74 1.347 . S
C72 H83 0.931 . S
C73 N71 1.375 . S
C73 C75 1.350 1_554 S
C73 H82 0.930 . S
N74 C72 1.347 . S
N74 C75 1.373 . S
C75 C73 1.350 1_556 S
C75 N74 1.373 . S
C75 H89 0.931 . S
C76 O79 1.256 . S
C76 O80 1.255 . S
O77 Co60 2.021 . S
O77 C70 1.259 . S
O78 Co62 2.117 . S
O78 C70 1.258 . S
O79 Co62 2.020 . S
O79 C76 1.256 . S
O80 Co60 2.062 . S
O80 C76 1.255 . S
O81 C61 1.259 1_554 S
O81 Co62 2.021 . S
H82 C73 0.930 . S
H83 C72 0.931 . S
O84 Co60 2.117 . S
O84 C61 1.258 1_554 S
O85 Co60 2.020 1_556 S
O85 C87 1.256 . S
O86 Co62 2.062 1_556 S
O86 C87 1.255 . S
C87 O85 1.256 . S
C87 O86 1.255 . S
H88 C67 0.931 . S
H89 C75 0.931 . S
Co90 N95 2.057 . S
Co90 O107 2.021 . S
Co90 O110 2.062 . S
Co90 O114 2.117 . S
Co90 O115 2.020 . S
C91 O111 1.259 . S
C91 O114 1.258 . S
Co92 N101 2.057 . S
Co92 O108 2.117 . S
Co92 O109 2.020 . S
Co92 O111 2.021 . S
Co92 O116 2.062 . S
C93 N95 1.316 . S
C93 N96 1.347 . S
C93 H98 0.931 . S
C94 N95 1.375 . S
C94 C97 1.350 . S
C94 H99 0.930 . S
N95 Co90 2.057 . S
N95 C93 1.316 . S
N95 C94 1.375 . S
N96 C93 1.347 . S
N96 C97 1.373 . S
C97 C94 1.350 . S
C97 N96 1.373 . S
C97 H118 0.931 . S
H98 C93 0.931 . S
H99 C94 0.930 . S
C100 O107 1.259 . S
C100 O108 1.258 . S
N101 Co92 2.057 . S
N101 C102 1.316 . S
N101 C103 1.375 . S
C102 N101 1.316 . S
C102 N104 1.347 . S
C102 H113 0.931 . S
C103 N101 1.375 . S
C103 C105 1.350 . S
C103 H112 0.930 . S
N104 C102 1.347 . S
N104 C105 1.373 . S
C105 C103 1.350 . S
C105 N104 1.373 . S
C105 H119 0.931 . S
C106 O109 1.256 . S
C106 O110 1.255 . S
O107 Co90 2.021 . S
O107 C100 1.259 . S
O108 Co92 2.117 . S
O108 C100 1.258 . S
O109 Co92 2.020 . S
O109 C106 1.256 . S
O110 Co90 2.062 . S
O110 C106 1.255 . S
O111 C91 1.259 . S
O111 Co92 2.021 . S
H112 C103 0.930 . S
H113 C102 0.931 . S
O114 Co90 2.117 . S
O114 C91 1.258 . S
O115 Co90 2.020 . S
O115 C117 1.256 . S
O116 Co92 2.062 . S
O116 C117 1.255 . S
C117 O115 1.256 . S
C117 O116 1.255 . S
H118 C97 0.931 . S
H119 C105 0.931 . S
Co120 N125 2.057 . S
Co120 O137 2.021 . S
Co120 O140 2.062 . S
Co120 O144 2.117 . S
Co120 O145 2.020 . S
C121 O141 1.259 . S
C121 O144 1.258 . S
Co122 N131 2.057 . S
Co122 O138 2.117 . S
Co122 O139 2.020 . S
Co122 O141 2.021 . S
Co122 O146 2.062 . S
C123 N125 1.316 . S
C123 N126 1.347 . S
C123 H128 0.931 . S
C124 N125 1.375 . S
C124 C127 1.350 . S
C124 H129 0.930 . S
N125 Co120 2.057 . S
N125 C123 1.316 . S
N125 C124 1.375 . S
N126 C123 1.347 . S
N126 C127 1.373 . S
C127 C124 1.350 . S
C127 N126 1.373 . S
C127 H148 0.931 . S
H128 C123 0.931 . S
H129 C124 0.930 . S
C130 O137 1.259 . S
C130 O138 1.258 . S
N131 Co122 2.057 . S
N131 C132 1.316 . S
N131 C133 1.375 . S
C132 N131 1.316 . S
C132 N134 1.347 . S
C132 H143 0.931 . S
C133 N131 1.375 . S
C133 C135 1.350 . S
C133 H142 0.930 . S
N134 C132 1.347 . S
N134 C135 1.373 . S
C135 C133 1.350 . S
C135 N134 1.373 . S
C135 H149 0.931 . S
C136 O139 1.256 . S
C136 O140 1.255 . S
O137 Co120 2.021 . S
O137 C130 1.259 . S
O138 Co122 2.117 . S
O138 C130 1.258 . S
O139 Co122 2.020 . S
O139 C136 1.256 . S
O140 Co120 2.062 . S
O140 C136 1.255 . S
O141 C121 1.259 . S
O141 Co122 2.021 . S
H142 C133 0.930 . S
H143 C132 0.931 . S
O144 Co120 2.117 . S
O144 C121 1.258 . S
O145 Co120 2.020 . S
O145 C147 1.256 . S
O146 Co122 2.062 . S
O146 C147 1.255 . S
C147 O145 1.256 . S
C147 O146 1.255 . S
H148 C127 0.931 . S
H149 C135 0.931 . S
Co150 N155 2.057 . S
Co150 O167 2.021 . S
Co150 O170 2.062 . S
Co150 O174 2.117 . S
Co150 O175 2.020 . S
C151 O171 1.259 . S
C151 O174 1.258 . S
Co152 N161 2.057 . S
Co152 O168 2.117 . S
Co152 O169 2.020 . S
Co152 O171 2.021 . S
Co152 O176 2.062 . S
C153 N155 1.316 . S
C153 N156 1.347 . S
C153 H158 0.931 . S
C154 N155 1.375 . S
C154 C157 1.350 . S
C154 H159 0.930 . S
N155 Co150 2.057 . S
N155 C153 1.316 . S
N155 C154 1.375 . S
N156 C153 1.347 . S
N156 C157 1.373 . S
C157 C154 1.350 . S
C157 N156 1.373 . S
C157 H178 0.931 . S
H158 C153 0.931 . S
H159 C154 0.930 . S
C160 O167 1.259 . S
C160 O168 1.258 . S
N161 Co152 2.057 . S
N161 C162 1.316 . S
N161 C163 1.375 . S
C162 N161 1.316 . S
C162 N164 1.347 . S
C162 H173 0.931 . S
C163 N161 1.375 . S
C163 C165 1.350 . S
C163 H172 0.930 . S
N164 C162 1.347 . S
N164 C165 1.373 . S
C165 C163 1.350 . S
C165 N164 1.373 . S
C165 H179 0.931 . S
C166 O169 1.256 . S
C166 O170 1.255 . S
O167 Co150 2.021 . S
O167 C160 1.259 . S
O168 Co152 2.117 . S
O168 C160 1.258 . S
O169 Co152 2.020 . S
O169 C166 1.256 . S
O170 Co150 2.062 . S
O170 C166 1.255 . S
O171 C151 1.259 . S
O171 Co152 2.021 . S
H172 C163 0.930 . S
H173 C162 0.931 . S
O174 Co150 2.117 . S
O174 C151 1.258 . S
O175 Co150 2.020 . S
O175 C177 1.256 . S
O176 Co152 2.062 . S
O176 C177 1.255 . S
C177 O175 1.256 . S
C177 O176 1.255 . S
H178 C157 0.931 . S
H179 C165 0.931 . S
Co180 N185 2.057 . S
Co180 O197 2.021 . S
Co180 O200 2.062 . S
Co180 O204 2.117 . S
Co180 O205 2.020 . S
C181 O201 1.259 . S
C181 O204 1.258 . S
Co182 N191 2.057 . S
Co182 O198 2.117 . S
Co182 O199 2.020 . S
Co182 O201 2.021 . S
Co182 O206 2.062 . S
C183 N185 1.316 . S
C183 N186 1.347 . S
C183 H188 0.931 . S
C184 N185 1.375 . S
C184 C187 1.350 . S
C184 H189 0.930 . S
N185 Co180 2.057 . S
N185 C183 1.316 . S
N185 C184 1.375 . S
N186 C183 1.347 . S
N186 C187 1.373 . S
C187 C184 1.350 . S
C187 N186 1.373 . S
C187 H208 0.931 . S
H188 C183 0.931 . S
H189 C184 0.930 . S
C190 O197 1.259 . S
C190 O198 1.258 . S
N191 Co182 2.057 . S
N191 C192 1.316 . S
N191 C193 1.375 . S
C192 N191 1.316 . S
C192 N194 1.347 . S
C192 H203 0.931 . S
C193 N191 1.375 . S
C193 C195 1.350 . S
C193 H202 0.930 . S
N194 C192 1.347 . S
N194 C195 1.373 . S
C195 C193 1.350 . S
C195 N194 1.373 . S
C195 H209 0.931 . S
C196 O199 1.256 . S
C196 O200 1.255 . S
O197 Co180 2.021 . S
O197 C190 1.259 . S
O198 Co182 2.117 . S
O198 C190 1.258 . S
O199 Co182 2.020 . S
O199 C196 1.256 . S
O200 Co180 2.062 . S
O200 C196 1.255 . S
O201 C181 1.259 . S
O201 Co182 2.021 . S
H202 C193 0.930 . S
H203 C192 0.931 . S
O204 Co180 2.117 . S
O204 C181 1.258 . S
O205 Co180 2.020 . S
O205 C207 1.256 . S
O206 Co182 2.062 . S
O206 C207 1.255 . S
C207 O205 1.256 . S
C207 O206 1.255 . S
H208 C187 0.931 . S
H209 C195 0.931 . S
Co210 N215 2.057 . S
Co210 O227 2.021 . S
Co210 O230 2.062 . S
Co210 O234 2.117 . S
Co210 O235 2.020 . S
C211 O231 1.259 . S
C211 O234 1.258 . S
Co212 N221 2.057 . S
Co212 O228 2.117 . S
Co212 O229 2.020 . S
Co212 O231 2.021 . S
Co212 O236 2.062 . S
C213 N215 1.316 . S
C213 N216 1.347 . S
C213 H218 0.931 . S
C214 N215 1.375 . S
C214 C217 1.350 . S
C214 H219 0.930 . S
N215 Co210 2.057 . S
N215 C213 1.316 . S
N215 C214 1.375 . S
N216 C213 1.347 . S
N216 C217 1.373 . S
C217 C214 1.350 . S
C217 N216 1.373 . S
C217 H238 0.931 . S
H218 C213 0.931 . S
H219 C214 0.930 . S
C220 O227 1.259 . S
C220 O228 1.258 . S
N221 Co212 2.057 . S
N221 C222 1.316 . S
N221 C223 1.375 . S
C222 N221 1.316 . S
C222 N224 1.347 . S
C222 H233 0.931 . S
C223 N221 1.375 . S
C223 C225 1.350 . S
C223 H232 0.930 . S
N224 C222 1.347 . S
N224 C225 1.373 . S
C225 C223 1.350 . S
C225 N224 1.373 . S
C225 H239 0.931 . S
C226 O229 1.256 . S
C226 O230 1.255 . S
O227 Co210 2.021 . S
O227 C220 1.259 . S
O228 Co212 2.117 . S
O228 C220 1.258 . S
O229 Co212 2.020 . S
O229 C226 1.256 . S
O230 Co210 2.062 . S
O230 C226 1.255 . S
O231 C211 1.259 . S
O231 Co212 2.021 . S
H232 C223 0.930 . S
H233 C222 0.931 . S
O234 Co210 2.117 . S
O234 C211 1.258 . S
O235 Co210 2.020 . S
O235 C237 1.256 . S
O236 Co212 2.062 . S
O236 C237 1.255 . S
C237 O235 1.256 . S
C237 O236 1.255 . S
H238 C217 0.931 . S
H239 C225 0.931 . S
Co240 N245 2.057 . S
Co240 O257 2.021 . S
Co240 O260 2.062 . S
Co240 O264 2.117 . S
Co240 O265 2.020 . S
C241 O261 1.259 . S
C241 O264 1.258 . S
Co242 N251 2.057 . S
Co242 O258 2.117 . S
Co242 O259 2.020 . S
Co242 O261 2.021 . S
Co242 O266 2.062 . S
C243 N245 1.316 . S
C243 N246 1.347 . S
C243 H248 0.931 . S
C244 N245 1.375 . S
C244 C247 1.350 . S
C244 H249 0.930 . S
N245 Co240 2.057 . S
N245 C243 1.316 . S
N245 C244 1.375 . S
N246 C243 1.347 . S
N246 C247 1.373 . S
C247 C244 1.350 . S
C247 N246 1.373 . S
C247 H268 0.931 . S
H248 C243 0.931 . S
H249 C244 0.930 . S
C250 O257 1.259 . S
C250 O258 1.258 . S
N251 Co242 2.057 . S
N251 C252 1.316 . S
N251 C253 1.375 . S
C252 N251 1.316 . S
C252 N254 1.347 . S
C252 H263 0.931 . S
C253 N251 1.375 . S
C253 C255 1.350 . S
C253 H262 0.930 . S
N254 C252 1.347 . S
N254 C255 1.373 . S
C255 C253 1.350 . S
C255 N254 1.373 . S
C255 H269 0.931 . S
C256 O259 1.256 . S
C256 O260 1.255 . S
O257 Co240 2.021 . S
O257 C250 1.259 . S
O258 Co242 2.117 . S
O258 C250 1.258 . S
O259 Co242 2.020 . S
O259 C256 1.256 . S
O260 Co240 2.062 . S
O260 C256 1.255 . S
O261 C241 1.259 . S
O261 Co242 2.021 . S
H262 C253 0.930 . S
H263 C252 0.931 . S
O264 Co240 2.117 . S
O264 C241 1.258 . S
O265 Co240 2.020 . S
O265 C267 1.256 . S
O266 Co242 2.062 . S
O266 C267 1.255 . S
C267 O265 1.256 . S
C267 O266 1.255 . S
H268 C247 0.931 . S
H269 C255 0.931 . S
Co270 N275 2.057 . S
Co270 O287 2.021 . S
Co270 O290 2.062 . S
Co270 O294 2.117 . S
Co270 O295 2.020 . S
C271 O291 1.259 . S
C271 O294 1.258 . S
Co272 N281 2.057 . S
Co272 O288 2.117 . S
Co272 O289 2.020 . S
Co272 O291 2.021 . S
Co272 O296 2.062 . S
C273 N275 1.316 . S
C273 N276 1.347 . S
C273 H278 0.931 . S
C274 N275 1.375 . S
C274 C277 1.350 . S
C274 H279 0.930 . S
N275 Co270 2.057 . S
N275 C273 1.316 . S
N275 C274 1.375 . S
N276 C273 1.347 . S
N276 C277 1.373 . S
C277 C274 1.350 . S
C277 N276 1.373 . S
C277 H298 0.931 . S
H278 C273 0.931 . S
H279 C274 0.930 . S
C280 O287 1.259 . S
C280 O288 1.258 . S
N281 Co272 2.057 . S
N281 C282 1.316 . S
N281 C283 1.375 . S
C282 N281 1.316 . S
C282 N284 1.347 . S
C282 H293 0.931 . S
C283 N281 1.375 . S
C283 C285 1.350 . S
C283 H292 0.930 . S
N284 C282 1.347 . S
N284 C285 1.373 . S
C285 C283 1.350 . S
C285 N284 1.373 . S
C285 H299 0.931 . S
C286 O289 1.256 . S
C286 O290 1.255 . S
O287 Co270 2.021 . S
O287 C280 1.259 . S
O288 Co272 2.117 . S
O288 C280 1.258 . S
O289 Co272 2.020 . S
O289 C286 1.256 . S
O290 Co270 2.062 . S
O290 C286 1.255 . S
O291 C271 1.259 . S
O291 Co272 2.021 . S
H292 C283 0.930 . S
H293 C282 0.931 . S
O294 Co270 2.117 . S
O294 C271 1.258 . S
O295 Co270 2.020 . S
O295 C297 1.256 . S
O296 Co272 2.062 . S
O296 C297 1.255 . S
C297 O295 1.256 . S
C297 O296 1.255 . S
H298 C277 0.931 . S
H299 C285 0.931 . S
Co300 N305 2.057 . S
Co300 O317 2.021 . S
Co300 O320 2.062 . S
Co300 O324 2.117 . S
Co300 O325 2.020 . S
C301 O321 1.259 . S
C301 O324 1.258 . S
Co302 N311 2.057 . S
Co302 O318 2.117 . S
Co302 O319 2.020 . S
Co302 O321 2.021 . S
Co302 O326 2.062 . S
C303 N305 1.316 . S
C303 N306 1.347 . S
C303 H308 0.931 . S
C304 N305 1.375 . S
C304 C307 1.350 . S
C304 H309 0.930 . S
N305 Co300 2.057 . S
N305 C303 1.316 . S
N305 C304 1.375 . S
N306 C303 1.347 . S
N306 C307 1.373 . S
C307 C304 1.350 . S
C307 N306 1.373 . S
C307 H328 0.931 . S
H308 C303 0.931 . S
H309 C304 0.930 . S
C310 O317 1.259 . S
C310 O318 1.258 . S
N311 Co302 2.057 . S
N311 C312 1.316 . S
N311 C313 1.375 . S
C312 N311 1.316 . S
C312 N314 1.347 . S
C312 H323 0.931 . S
C313 N311 1.375 . S
C313 C315 1.350 . S
C313 H322 0.930 . S
N314 C312 1.347 . S
N314 C315 1.373 . S
C315 C313 1.350 . S
C315 N314 1.373 . S
C315 H329 0.931 . S
C316 O319 1.256 . S
C316 O320 1.255 . S
O317 Co300 2.021 . S
O317 C310 1.259 . S
O318 Co302 2.117 . S
O318 C310 1.258 . S
O319 Co302 2.020 . S
O319 C316 1.256 . S
O320 Co300 2.062 . S
O320 C316 1.255 . S
O321 C301 1.259 . S
O321 Co302 2.021 . S
H322 C313 0.930 . S
H323 C312 0.931 . S
O324 Co300 2.117 . S
O324 C301 1.258 . S
O325 Co300 2.020 . S
O325 C327 1.256 . S
O326 Co302 2.062 . S
O326 C327 1.255 . S
C327 O325 1.256 . S
C327 O326 1.255 . S
H328 C307 0.931 . S
H329 C315 0.931 . S
Co330 N335 2.057 . S
Co330 O347 2.021 . S
Co330 O350 2.062 . S
Co330 O354 2.117 . S
Co330 O355 2.020 . S
C331 O351 1.259 . S
C331 O354 1.258 . S
Co332 N341 2.057 . S
Co332 O348 2.117 . S
Co332 O349 2.020 . S
Co332 O351 2.021 . S
Co332 O356 2.062 . S
C333 N335 1.316 . S
C333 N336 1.347 . S
C333 H338 0.931 . S
C334 N335 1.375 . S
C334 C337 1.350 . S
C334 H339 0.930 . S
N335 Co330 2.057 . S
N335 C333 1.316 . S
N335 C334 1.375 . S
N336 C333 1.347 . S
N336 C337 1.373 . S
C337 C334 1.350 . S
C337 N336 1.373 . S
C337 H358 0.931 . S
H338 C333 0.931 . S
H339 C334 0.930 . S
C340 O347 1.259 . S
C340 O348 1.258 . S
N341 Co332 2.057 . S
N341 C342 1.316 . S
N341 C343 1.375 . S
C342 N341 1.316 . S
C342 N344 1.347 . S
C342 H353 0.931 . S
C343 N341 1.375 . S
C343 C345 1.350 . S
C343 H352 0.930 . S
N344 C342 1.347 . S
N344 C345 1.373 . S
C345 C343 1.350 . S
C345 N344 1.373 . S
C345 H359 0.931 . S
C346 O349 1.256 . S
C346 O350 1.255 . S
O347 Co330 2.021 . S
O347 C340 1.259 . S
O348 Co332 2.117 . S
O348 C340 1.258 . S
O349 Co332 2.020 . S
O349 C346 1.256 . S
O350 Co330 2.062 . S
O350 C346 1.255 . S
O351 C331 1.259 . S
O351 Co332 2.021 . S
H352 C343 0.930 . S
H353 C342 0.931 . S
O354 Co330 2.117 . S
O354 C331 1.258 . S
O355 Co330 2.020 . S
O355 C357 1.256 . S
O356 Co332 2.062 . S
O356 C357 1.255 . S
C357 O355 1.256 . S
C357 O356 1.255 . S
H358 C337 0.931 . S
H359 C345 0.931 . S
Co360 N365 2.057 . S
Co360 O377 2.021 . S
Co360 O380 2.062 . S
Co360 O384 2.117 . S
Co360 O385 2.020 . S
C361 O381 1.259 . S
C361 O384 1.258 . S
Co362 N371 2.057 . S
Co362 O378 2.117 . S
Co362 O379 2.020 . S
Co362 O381 2.021 . S
Co362 O386 2.062 . S
C363 N365 1.316 . S
C363 N366 1.347 . S
C363 H368 0.931 1_655 S
C364 N365 1.375 . S
C364 C367 1.350 . S
C364 H369 0.930 . S
N365 Co360 2.057 . S
N365 C363 1.316 . S
N365 C364 1.375 . S
N366 C363 1.347 . S
N366 C367 1.373 . S
C367 C364 1.350 . S
C367 N366 1.373 . S
C367 H388 0.931 . S
H368 C363 0.931 1_455 S
H369 C364 0.930 . S
C370 O377 1.259 . S
C370 O378 1.258 . S
N371 Co362 2.057 . S
N371 C372 1.316 . S
N371 C373 1.375 . S
C372 N371 1.316 . S
C372 N374 1.347 . S
C372 H383 0.931 . S
C373 N371 1.375 . S
C373 C375 1.350 . S
C373 H382 0.930 . S
N374 C372 1.347 . S
N374 C375 1.373 . S
C375 C373 1.350 . S
C375 N374 1.373 . S
C375 H389 0.931 . S
C376 O379 1.256 . S
C376 O380 1.255 . S
O377 Co360 2.021 . S
O377 C370 1.259 . S
O378 Co362 2.117 . S
O378 C370 1.258 . S
O379 Co362 2.020 . S
O379 C376 1.256 . S
O380 Co360 2.062 . S
O380 C376 1.255 . S
O381 C361 1.259 . S
O381 Co362 2.021 . S
H382 C373 0.930 . S
H383 C372 0.931 . S
O384 Co360 2.117 . S
O384 C361 1.258 . S
O385 Co360 2.020 . S
O385 C387 1.256 . S
O386 Co362 2.062 . S
O386 C387 1.255 . S
C387 O385 1.256 . S
C387 O386 1.255 . S
H388 C367 0.931 . S
H389 C375 0.931 . S
Co390 N395 2.057 . S
Co390 O407 2.021 . S
Co390 O410 2.062 . S
Co390 O414 2.117 . S
Co390 O415 2.020 . S
C391 O411 1.259 . S
C391 O414 1.258 . S
Co392 N401 2.057 . S
Co392 O408 2.117 . S
Co392 O409 2.020 . S
Co392 O411 2.021 . S
Co392 O416 2.062 . S
C393 N395 1.316 . S
C393 N396 1.347 . S
C393 H398 0.931 . S
C394 N395 1.375 . S
C394 C397 1.350 . S
C394 H399 0.930 . S
N395 Co390 2.057 . S
N395 C393 1.316 . S
N395 C394 1.375 . S
N396 C393 1.347 . S
N396 C397 1.373 . S
C397 C394 1.350 . S
C397 N396 1.373 . S
C397 H418 0.931 . S
H398 C393 0.931 . S
H399 C394 0.930 . S
C400 O407 1.259 . S
C400 O408 1.258 . S
N401 Co392 2.057 . S
N401 C402 1.316 . S
N401 C403 1.375 . S
C402 N401 1.316 . S
C402 N404 1.347 . S
C402 H413 0.931 . S
C403 N401 1.375 . S
C403 C405 1.350 . S
C403 H412 0.930 . S
N404 C402 1.347 . S
N404 C405 1.373 . S
C405 C403 1.350 . S
C405 N404 1.373 . S
C405 H419 0.931 1_545 S
C406 O409 1.256 . S
C406 O410 1.255 . S
O407 Co390 2.021 . S
O407 C400 1.259 . S
O408 Co392 2.117 . S
O408 C400 1.258 . S
O409 Co392 2.020 . S
O409 C406 1.256 . S
O410 Co390 2.062 . S
O410 C406 1.255 . S
O411 C391 1.259 . S
O411 Co392 2.021 . S
H412 C403 0.930 . S
H413 C402 0.931 . S
O414 Co390 2.117 . S
O414 C391 1.258 . S
O415 Co390 2.020 . S
O415 C417 1.256 . S
O416 Co392 2.062 . S
O416 C417 1.255 . S
C417 O415 1.256 . S
C417 O416 1.255 . S
H418 C397 0.931 . S
H419 C405 0.931 1_565 S
Co420 N425 2.057 . S
Co420 O437 2.021 . S
Co420 O440 2.062 . S
Co420 O444 2.117 . S
Co420 O445 2.020 . S
C421 O441 1.259 . S
C421 O444 1.258 . S
Co422 N431 2.057 . S
Co422 O438 2.117 . S
Co422 O439 2.020 . S
Co422 O441 2.021 . S
Co422 O446 2.062 . S
C423 N425 1.316 . S
C423 N426 1.347 . S
C423 H428 0.931 1_545 S
C424 N425 1.375 . S
C424 C427 1.350 . S
C424 H429 0.930 . S
N425 Co420 2.057 . S
N425 C423 1.316 . S
N425 C424 1.375 . S
N426 C423 1.347 . S
N426 C427 1.373 . S
C427 C424 1.350 . S
C427 N426 1.373 . S
C427 H448 0.931 . S
H428 C423 0.931 1_565 S
H429 C424 0.930 . S
C430 O437 1.259 . S
C430 O438 1.258 . S
N431 Co422 2.057 . S
N431 C432 1.316 . S
N431 C433 1.375 . S
C432 N431 1.316 . S
C432 N434 1.347 . S
C432 H443 0.931 . S
C433 N431 1.375 . S
C433 C435 1.350 . S
C433 H442 0.930 . S
N434 C432 1.347 . S
N434 C435 1.373 . S
C435 C433 1.350 . S
C435 N434 1.373 . S
C435 H449 0.931 1_655 S
C436 O439 1.256 . S
C436 O440 1.255 . S
O437 Co420 2.021 . S
O437 C430 1.259 . S
O438 Co422 2.117 . S
O438 C430 1.258 . S
O439 Co422 2.020 . S
O439 C436 1.256 . S
O440 Co420 2.062 . S
O440 C436 1.255 . S
O441 C421 1.259 . S
O441 Co422 2.021 . S
H442 C433 0.930 . S
H443 C432 0.931 . S
O444 Co420 2.117 . S
O444 C421 1.258 . S
O445 Co420 2.020 . S
O445 C447 1.256 . S
O446 Co422 2.062 . S
O446 C447 1.255 . S
C447 O445 1.256 . S
C447 O446 1.255 . S
H448 C427 0.931 . S
H449 C435 0.931 1_455 S
Co450 N455 2.057 . S
Co450 O467 2.021 . S
Co450 O470 2.062 . S
Co450 O474 2.117 . S
Co450 O475 2.020 . S
C451 O471 1.259 . S
C451 O474 1.258 . S
Co452 N461 2.057 . S
Co452 O468 2.117 . S
Co452 O469 2.020 . S
Co452 O471 2.021 . S
Co452 O476 2.062 . S
C453 N455 1.316 . S
C453 N456 1.347 . S
C453 H458 0.931 . S
C454 N455 1.375 . S
C454 C457 1.350 . S
C454 H459 0.930 . S
N455 Co450 2.057 . S
N455 C453 1.316 . S
N455 C454 1.375 . S
N456 C453 1.347 . S
N456 C457 1.373 . S
C457 C454 1.350 . S
C457 N456 1.373 . S
C457 H478 0.931 . S
H458 C453 0.931 . S
H459 C454 0.930 . S
C460 O467 1.259 . S
C460 O468 1.258 . S
N461 Co452 2.057 . S
N461 C462 1.316 . S
N461 C463 1.375 . S
C462 N461 1.316 . S
C462 N464 1.347 . S
C462 H473 0.931 1_545 S
C463 N461 1.375 . S
C463 C465 1.350 . S
C463 H472 0.930 . S
N464 C462 1.347 . S
N464 C465 1.373 . S
C465 C463 1.350 . S
C465 N464 1.373 . S
C465 H479 0.931 . S
C466 O469 1.256 . S
C466 O470 1.255 . S
O467 Co450 2.021 . S
O467 C460 1.259 . S
O468 Co452 2.117 . S
O468 C460 1.258 . S
O469 Co452 2.020 . S
O469 C466 1.256 . S
O470 Co450 2.062 . S
O470 C466 1.255 . S
O471 C451 1.259 . S
O471 Co452 2.021 . S
H472 C463 0.930 . S
H473 C462 0.931 1_565 S
O474 Co450 2.117 . S
O474 C451 1.258 . S
O475 Co450 2.020 . S
O475 C477 1.256 . S
O476 Co452 2.062 . S
O476 C477 1.255 . S
C477 O475 1.256 . S
C477 O476 1.255 . S
H478 C457 0.931 . S
H479 C465 0.931 . S
Co480 N485 2.057 . S
Co480 O497 2.021 . S
Co480 O500 2.062 . S
Co480 O504 2.117 . S
Co480 O505 2.020 . S
C481 O501 1.259 . S
C481 O504 1.258 . S
Co482 N491 2.057 . S
Co482 O498 2.117 . S
Co482 O499 2.020 . S
Co482 O501 2.021 . S
Co482 O506 2.062 . S
C483 N485 1.316 . S
C483 N486 1.347 . S
C483 H488 0.931 . S
C484 N485 1.375 . S
C484 C487 1.350 . S
C484 H489 0.930 . S
N485 Co480 2.057 . S
N485 C483 1.316 . S
N485 C484 1.375 . S
N486 C483 1.347 . S
N486 C487 1.373 . S
C487 C484 1.350 . S
C487 N486 1.373 . S
C487 H508 0.931 1_545 S
H488 C483 0.931 . S
H489 C484 0.930 . S
C490 O497 1.259 . S
C490 O498 1.258 . S
N491 Co482 2.057 . S
N491 C492 1.316 . S
N491 C493 1.375 . S
C492 N491 1.316 . S
C492 N494 1.347 . S
C492 H503 0.931 1_655 S
C493 N491 1.375 . S
C493 C495 1.350 . S
C493 H502 0.930 . S
N494 C492 1.347 . S
N494 C495 1.373 . S
C495 C493 1.350 . S
C495 N494 1.373 . S
C495 H509 0.931 . S
C496 O499 1.256 . S
C496 O500 1.255 . S
O497 Co480 2.021 . S
O497 C490 1.259 . S
O498 Co482 2.117 . S
O498 C490 1.258 . S
O499 Co482 2.020 . S
O499 C496 1.256 . S
O500 Co480 2.062 . S
O500 C496 1.255 . S
O501 C481 1.259 . S
O501 Co482 2.021 . S
H502 C493 0.930 . S
H503 C492 0.931 1_455 S
O504 Co480 2.117 . S
O504 C481 1.258 . S
O505 Co480 2.020 . S
O505 C507 1.256 . S
O506 Co482 2.062 . S
O506 C507 1.255 . S
C507 O505 1.256 . S
C507 O506 1.255 . S
H508 C487 0.931 1_565 S
H509 C495 0.931 . S
Co510 N515 2.057 . S
Co510 O527 2.021 . S
Co510 O530 2.062 . S
Co510 O534 2.117 . S
Co510 O535 2.020 . S
C511 O531 1.259 . S
C511 O534 1.258 . S
Co512 N521 2.057 . S
Co512 O528 2.117 . S
Co512 O529 2.020 . S
Co512 O531 2.021 . S
Co512 O536 2.062 . S
C513 N515 1.316 . S
C513 N516 1.347 . S
C513 H518 0.931 . S
C514 N515 1.375 . S
C514 C517 1.350 . S
C514 H519 0.930 . S
N515 Co510 2.057 . S
N515 C513 1.316 . S
N515 C514 1.375 . S
N516 C513 1.347 . S
N516 C517 1.373 . S
C517 C514 1.350 . S
C517 N516 1.373 . S
C517 H538 0.931 1_655 S
H518 C513 0.931 . S
H519 C514 0.930 . S
C520 O527 1.259 . S
C520 O528 1.258 . S
N521 Co512 2.057 . S
N521 C522 1.316 . S
N521 C523 1.375 . S
C522 N521 1.316 . S
C522 N524 1.347 . S
C522 H533 0.931 . S
C523 N521 1.375 . S
C523 C525 1.350 . S
C523 H532 0.930 . S
N524 C522 1.347 . S
N524 C525 1.373 . S
C525 C523 1.350 . S
C525 N524 1.373 . S
C525 H539 0.931 . S
C526 O529 1.256 . S
C526 O530 1.255 . S
O527 Co510 2.021 . S
O527 C520 1.259 . S
O528 Co512 2.117 . S
O528 C520 1.258 . S
O529 Co512 2.020 . S
O529 C526 1.256 . S
O530 Co510 2.062 . S
O530 C526 1.255 . S
O531 C511 1.259 . S
O531 Co512 2.021 . S
H532 C523 0.930 . S
H533 C522 0.931 . S
O534 Co510 2.117 . S
O534 C511 1.258 . S
O535 Co510 2.020 . S
O535 C537 1.256 . S
O536 Co512 2.062 . S
O536 C537 1.255 . S
C537 O535 1.256 . S
C537 O536 1.255 . S
H538 C517 0.931 1_455 S
H539 C525 0.931 . S
H540 C546 0.930 . S
H541 C550 0.930 . S
H542 C555 0.929 . S
H543 C553 0.929 . S
H544 C548 0.929 . S
H545 C554 0.929 . S
C546 H540 0.930 . S
C546 C547 1.367 1_554 S
C546 C554 1.378 . S
C547 C546 1.367 1_556 S
C547 C555 1.433 . S
C548 H544 0.929 . S
C548 C550 1.378 . S
C548 C552 1.350 . S
C549 C552 1.463 . S
C549 C554 1.350 1_556 S
C549 N557 1.427 . S
C550 H541 0.930 . S
C550 C548 1.378 . S
C550 C551 1.367 1_556 S
C551 C550 1.367 1_554 S
C551 C553 1.433 . S
C552 C548 1.350 . S
C552 C549 1.463 . S
C552 N556 1.427 1_556 S
C553 H543 0.929 . S
C553 C551 1.433 . S
C553 N556 1.384 . S
C554 H545 0.929 . S
C554 C546 1.378 . S
C554 C549 1.350 1_554 S
C555 H542 0.929 . S
C555 C547 1.433 . S
C555 N557 1.384 . S
N556 C552 1.427 1_554 S
N556 C553 1.384 . S
N557 C549 1.427 . S
N557 C555 1.384 . S
H558 C564 0.930 . S
H559 C568 0.930 . S
H560 C573 0.929 . S
H561 C571 0.929 . S
H562 C566 0.929 . S
H563 C572 0.929 . S
C564 H558 0.930 . S
C564 C565 1.367 1_556 S
C564 C572 1.378 . S
C565 C564 1.367 1_554 S
C565 C573 1.433 . S
C566 H562 0.929 . S
C566 C568 1.378 . S
C566 C570 1.350 1_554 S
C567 C570 1.463 . S
C567 C572 1.350 . S
C567 N575 1.427 1_556 S
C568 H559 0.930 . S
C568 C566 1.378 . S
C568 C569 1.367 1_554 S
C569 C568 1.367 1_556 S
C569 C571 1.433 . S
C570 C566 1.350 1_556 S
C570 C567 1.463 . S
C570 N574 1.427 . S
C571 H561 0.929 . S
C571 C569 1.433 . S
C571 N574 1.384 . S
C572 H563 0.929 . S
C572 C564 1.378 . S
C572 C567 1.350 . S
C573 H560 0.929 . S
C573 C565 1.433 . S
C573 N575 1.384 . S
N574 C570 1.427 . S
N574 C571 1.384 . S
N575 C567 1.427 1_554 S
N575 C573 1.384 . S
H576 C582 0.930 . S
H577 C586 0.930 . S
H578 C591 0.929 . S
H579 C589 0.929 . S
H580 C584 0.929 . S
H581 C590 0.929 . S
C582 H576 0.930 . S
C582 C583 1.367 1_554 S
C582 C590 1.378 . S
C583 C582 1.367 1_556 S
C583 C591 1.433 . S
C584 H580 0.929 . S
C584 C586 1.378 . S
C584 C588 1.350 . S
C585 C588 1.463 . S
C585 C590 1.350 1_556 S
C585 N593 1.427 . S
C586 H577 0.930 . S
C586 C584 1.378 . S
C586 C587 1.367 1_556 S
C587 C586 1.367 1_554 S
C587 C589 1.433 . S
C588 C584 1.350 . S
C588 C585 1.463 . S
C588 N592 1.427 1_556 S
C589 H579 0.929 . S
C589 C587 1.433 . S
C589 N592 1.384 . S
C590 H581 0.929 . S
C590 C582 1.378 . S
C590 C585 1.350 1_554 S
C591 H578 0.929 . S
C591 C583 1.433 . S
C591 N593 1.384 . S
N592 C588 1.427 1_554 S
N592 C589 1.384 . S
N593 C585 1.427 . S
N593 C591 1.384 . S
H594 C600 0.930 . S
H595 C604 0.930 . S
H596 C609 0.929 . S
H597 C607 0.929 . S
H598 C602 0.929 . S
H599 C608 0.929 . S
C600 H594 0.930 . S
C600 C601 1.367 . S
C600 C608 1.378 . S
C601 C600 1.367 . S
C601 C609 1.433 . S
C602 H598 0.929 . S
C602 C604 1.378 . S
C602 C606 1.350 . S
C603 C606 1.463 . S
C603 C608 1.350 . S
C603 N611 1.427 . S
C604 H595 0.930 . S
C604 C602 1.378 . S
C604 C605 1.367 . S
C605 C604 1.367 . S
C605 C607 1.433 . S
C606 C602 1.350 . S
C606 C603 1.463 . S
C606 N610 1.427 . S
C607 H597 0.929 . S
C607 C605 1.433 . S
C607 N610 1.384 . S
C608 H599 0.929 . S
C608 C600 1.378 . S
C608 C603 1.350 . S
C609 H596 0.929 . S
C609 C601 1.433 . S
C609 N611 1.384 . S
N610 C606 1.427 . S
N610 C607 1.384 . S
N611 C603 1.427 . S
N611 C609 1.384 . S
H612 C618 0.930 . S
H613 C622 0.930 . S
H614 C627 0.929 . S
H615 C625 0.929 . S
H616 C620 0.929 . S
H617 C626 0.929 . S
C618 H612 0.930 . S
C618 C619 1.367 . S
C618 C626 1.378 . S
C619 C618 1.367 . S
C619 C627 1.433 . S
C620 H616 0.929 . S
C620 C622 1.378 . S
C620 C624 1.350 . S
C621 C624 1.463 . S
C621 C626 1.350 . S
C621 N629 1.427 . S
C622 H613 0.930 . S
C622 C620 1.378 . S
C622 C623 1.367 . S
C623 C622 1.367 . S
C623 C625 1.433 . S
C624 C620 1.350 . S
C624 C621 1.463 . S
C624 N628 1.427 . S
C625 H615 0.929 . S
C625 C623 1.433 . S
C625 N628 1.384 . S
C626 H617 0.929 . S
C626 C618 1.378 . S
C626 C621 1.350 . S
C627 H614 0.929 . S
C627 C619 1.433 . S
C627 N629 1.384 . S
N628 C624 1.427 . S
N628 C625 1.384 . S
N629 C621 1.427 . S
N629 C627 1.384 . S
H630 C636 0.930 . S
H631 C640 0.930 . S
H632 C645 0.929 . S
H633 C643 0.929 . S
H634 C638 0.929 . S
H635 C644 0.929 . S
C636 H630 0.930 . S
C636 C637 1.367 . S
C636 C644 1.378 . S
C637 C636 1.367 . S
C637 C645 1.433 . S
C638 H634 0.929 . S
C638 C640 1.378 . S
C638 C642 1.350 . S
C639 C642 1.463 . S
C639 C644 1.350 . S
C639 N647 1.427 . S
C640 H631 0.930 . S
C640 C638 1.378 . S
C640 C641 1.367 . S
C641 C640 1.367 . S
C641 C643 1.433 . S
C642 C638 1.350 . S
C642 C639 1.463 . S
C642 N646 1.427 . S
C643 H633 0.929 . S
C643 C641 1.433 . S
C643 N646 1.384 . S
C644 H635 0.929 . S
C644 C636 1.378 . S
C644 C639 1.350 . S
C645 H632 0.929 . S
C645 C637 1.433 . S
C645 N647 1.384 . S
N646 C642 1.427 . S
N646 C643 1.384 . S
N647 C639 1.427 . S
N647 C645 1.384 . S
H648 C654 0.930 . S
H649 C658 0.930 . S
H650 C663 0.929 . S
H651 C661 0.929 . S
H652 C656 0.929 . S
H653 C662 0.929 . S
C654 H648 0.930 . S
C654 C655 1.367 . S
C654 C662 1.378 . S
C655 C654 1.367 . S
C655 C663 1.433 . S
C656 H652 0.929 . S
C656 C658 1.378 . S
C656 C660 1.350 . S
C657 C660 1.463 . S
C657 C662 1.350 . S
C657 N665 1.427 . S
C658 H649 0.930 . S
C658 C656 1.378 . S
C658 C659 1.367 . S
C659 C658 1.367 . S
C659 C661 1.433 . S
C660 C656 1.350 . S
C660 C657 1.463 . S
C660 N664 1.427 . S
C661 H651 0.929 . S
C661 C659 1.433 . S
C661 N664 1.384 . S
C662 H653 0.929 . S
C662 C654 1.378 . S
C662 C657 1.350 . S
C663 H650 0.929 . S
C663 C655 1.433 . S
C663 N665 1.384 . S
N664 C660 1.427 . S
N664 C661 1.384 . S
N665 C657 1.427 . S
N665 C663 1.384 . S
H666 C672 0.930 . S
H667 C676 0.930 . S
H668 C681 0.929 . S
H669 C679 0.929 . S
H670 C674 0.929 . S
H671 C680 0.929 . S
C672 H666 0.930 . S
C672 C673 1.367 . S
C672 C680 1.378 . S
C673 C672 1.367 . S
C673 C681 1.433 . S
C674 H670 0.929 . S
C674 C676 1.378 . S
C674 C678 1.350 . S
C675 C678 1.463 . S
C675 C680 1.350 . S
C675 N683 1.427 . S
C676 H667 0.930 . S
C676 C674 1.378 . S
C676 C677 1.367 . S
C677 C676 1.367 . S
C677 C679 1.433 . S
C678 C674 1.350 . S
C678 C675 1.463 . S
C678 N682 1.427 . S
C679 H669 0.929 . S
C679 C677 1.433 . S
C679 N682 1.384 . S
C680 H671 0.929 . S
C680 C672 1.378 . S
C680 C675 1.350 . S
C681 H668 0.929 . S
C681 C673 1.433 . S
C681 N683 1.384 . S
N682 C678 1.427 . S
N682 C679 1.384 . S
N683 C675 1.427 . S
N683 C681 1.384 . S
H684 C690 0.930 . S
H685 C694 0.930 . S
H686 C699 0.929 . S
H687 C697 0.929 . S
H688 C692 0.929 . S
H689 C698 0.929 . S
C690 H684 0.930 . S
C690 C691 1.367 . S
C690 C698 1.378 . S
C691 C690 1.367 . S
C691 C699 1.433 . S
C692 H688 0.929 . S
C692 C694 1.378 . S
C692 C696 1.350 . S
C693 C696 1.463 . S
C693 C698 1.350 . S
C693 N701 1.427 . S
C694 H685 0.930 . S
C694 C692 1.378 . S
C694 C695 1.367 . S
C695 C694 1.367 . S
C695 C697 1.433 . S
C696 C692 1.350 . S
C696 C693 1.463 . S
C696 N700 1.427 . S
C697 H687 0.929 . S
C697 C695 1.433 . S
C697 N700 1.384 . S
C698 H689 0.929 . S
C698 C690 1.378 . S
C698 C693 1.350 . S
C699 H686 0.929 . S
C699 C691 1.433 . S
C699 N701 1.384 . S
N700 C696 1.427 . S
N700 C697 1.384 . S
N701 C693 1.427 . S
N701 C699 1.384 . S
H702 C708 0.930 . S
H703 C712 0.930 . S
H704 C717 0.929 . S
H705 C715 0.929 . S
H706 C710 0.929 . S
H707 C716 0.929 . S
C708 H702 0.930 . S
C708 C709 1.367 . S
C708 C716 1.378 . S
C709 C708 1.367 . S
C709 C717 1.433 . S
C710 H706 0.929 . S
C710 C712 1.378 . S
C710 C714 1.350 . S
C711 C714 1.463 . S
C711 C716 1.350 . S
C711 N719 1.427 . S
C712 H703 0.930 . S
C712 C710 1.378 . S
C712 C713 1.367 . S
C713 C712 1.367 . S
C713 C715 1.433 . S
C714 C710 1.350 . S
C714 C711 1.463 . S
C714 N718 1.427 . S
C715 H705 0.929 . S
C715 C713 1.433 . S
C715 N718 1.384 . S
C716 H707 0.929 . S
C716 C708 1.378 . S
C716 C711 1.350 . S
C717 H704 0.929 . S
C717 C709 1.433 . S
C717 N719 1.384 . S
N718 C714 1.427 . S
N718 C715 1.384 . S
N719 C711 1.427 . S
N719 C717 1.384 . S
H720 C726 0.930 . S
H721 C730 0.930 . S
H722 C735 0.929 . S
H723 C733 0.929 . S
H724 C728 0.929 . S
H725 C734 0.929 . S
C726 H720 0.930 . S
C726 C727 1.367 . S
C726 C734 1.378 . S
C727 C726 1.367 . S
C727 C735 1.433 . S
C728 H724 0.929 . S
C728 C730 1.378 . S
C728 C732 1.350 . S
C729 C732 1.463 . S
C729 C734 1.350 . S
C729 N737 1.427 . S
C730 H721 0.930 . S
C730 C728 1.378 . S
C730 C731 1.367 . S
C731 C730 1.367 . S
C731 C733 1.433 . S
C732 C728 1.350 . S
C732 C729 1.463 . S
C732 N736 1.427 . S
C733 H723 0.929 . S
C733 C731 1.433 . S
C733 N736 1.384 . S
C734 H725 0.929 . S
C734 C726 1.378 . S
C734 C729 1.350 . S
C735 H722 0.929 . S
C735 C727 1.433 . S
C735 N737 1.384 . S
N736 C732 1.427 . S
N736 C733 1.384 . S
N737 C729 1.427 . S
N737 C735 1.384 . S
H738 C744 0.930 . S
H739 C748 0.930 . S
H740 C753 0.929 . S
H741 C751 0.929 . S
H742 C746 0.929 . S
H743 C752 0.929 . S
C744 H738 0.930 . S
C744 C745 1.367 . S
C744 C752 1.378 . S
C745 C744 1.367 . S
C745 C753 1.433 . S
C746 H742 0.929 . S
C746 C748 1.378 . S
C746 C750 1.350 . S
C747 C750 1.463 . S
C747 C752 1.350 . S
C747 N755 1.427 . S
C748 H739 0.930 . S
C748 C746 1.378 . S
C748 C749 1.367 . S
C749 C748 1.367 . S
C749 C751 1.433 . S
C750 C746 1.350 . S
C750 C747 1.463 . S
C750 N754 1.427 . S
C751 H741 0.929 . S
C751 C749 1.433 . S
C751 N754 1.384 . S
C752 H743 0.929 . S
C752 C744 1.378 . S
C752 C747 1.350 . S
C753 H740 0.929 . S
C753 C745 1.433 . S
C753 N755 1.384 . S
N754 C750 1.427 . S
N754 C751 1.384 . S
N755 C747 1.427 . S
N755 C753 1.384 . S
H756 C762 0.950 . S
H757 C766 0.930 . S
H758 C771 0.929 . S
H759 C769 0.929 . S
H760 C764 0.929 . S
H761 C770 0.929 . S
C762 H756 0.950 . S
C762 C763 1.387 . S
C762 C770 1.339 1_545 S
C763 C762 1.387 . S
C763 C771 1.433 1_545 S
C764 H760 0.929 . S
C764 C766 1.378 . S
C764 C768 1.350 . S
C765 C768 1.463 . S
C765 C770 1.350 . S
C765 N773 1.427 . S
C766 H757 0.930 . S
C766 C764 1.378 . S
C766 C767 1.367 . S
C767 C766 1.367 . S
C767 C769 1.433 . S
C768 C764 1.350 . S
C768 C765 1.463 . S
C768 N772 1.427 . S
C769 H759 0.929 . S
C769 C767 1.433 . S
C769 N772 1.384 . S
C770 H761 0.929 . S
C770 C762 1.339 1_565 S
C770 C765 1.350 . S
C771 H758 0.929 . S
C771 C763 1.433 1_565 S
C771 N773 1.384 . S
N772 C768 1.427 . S
N772 C769 1.384 . S
N773 C765 1.427 . S
N773 C771 1.384 . S
H774 C780 0.930 1_545 S
H775 C784 0.930 . S
H776 C789 0.929 . S
H777 C787 0.929 1_655 S
H778 C782 0.929 . S
H779 C788 0.929 . S
C780 H774 0.930 1_565 S
C780 C781 1.367 . S
C780 C788 1.378 . S
C781 C780 1.367 . S
C781 C789 1.433 . S
C782 H778 0.929 . S
C782 C784 1.378 . S
C782 C786 1.350 . S
C783 C786 1.463 . S
C783 C788 1.350 . S
C783 N791 1.427 . S
C784 H775 0.930 . S
C784 C782 1.378 . S
C784 C785 1.367 1_455 S
C785 C784 1.367 1_655 S
C785 C787 1.433 1_655 S
C786 C782 1.350 . S
C786 C783 1.463 . S
C786 N790 1.427 . S
C787 H777 0.929 1_455 S
C787 C785 1.433 1_455 S
C787 N790 1.384 . S
C788 H779 0.929 . S
C788 C780 1.378 . S
C788 C783 1.350 . S
C789 H776 0.929 . S
C789 C781 1.433 . S
C789 N791 1.384 . S
N790 C786 1.427 . S
N790 C787 1.384 . S
N791 C783 1.427 . S
N791 C789 1.384 . S
H792 C798 0.930 . S
H793 C802 0.930 . S
H794 C807 0.929 . S
H795 C805 0.929 . S
H796 C800 0.929 . S
H797 C806 0.929 . S
C798 H792 0.930 . S
C798 C799 1.367 . S
C798 C806 1.378 . S
C799 C798 1.367 . S
C799 C807 1.433 . S
C800 H796 0.929 . S
C800 C802 1.378 . S
C800 C804 1.350 . S
C801 C804 1.463 . S
C801 C806 1.350 . S
C801 N809 1.427 . S
C802 H793 0.930 . S
C802 C800 1.378 . S
C802 C803 1.367 . S
C803 C802 1.367 . S
C803 C805 1.433 . S
C804 C800 1.350 . S
C804 C801 1.463 . S
C804 N808 1.427 . S
C805 H795 0.929 . S
C805 C803 1.433 . S
C805 N808 1.384 . S
C806 H797 0.929 . S
C806 C798 1.378 . S
C806 C801 1.350 . S
C807 H794 0.929 . S
C807 C799 1.433 . S
C807 N809 1.384 . S
N808 C804 1.427 . S
N808 C805 1.384 . S
N809 C801 1.427 . S
N809 C807 1.384 . S
H810 C816 0.930 . S
H811 C820 0.930 . S
H812 C825 0.929 . S
H813 C823 0.929 1_655 S
H814 C818 0.929 . S
H815 C824 0.929 . S
C816 H810 0.930 . S
C816 C817 1.367 . S
C816 C824 1.378 . S
C817 C816 1.367 . S
C817 C825 1.433 . S
C818 H814 0.929 . S
C818 C820 1.378 . S
C818 C822 1.350 . S
C819 C822 1.463 . S
C819 C824 1.350 . S
C819 N827 1.427 . S
C820 H811 0.930 . S
C820 C818 1.378 . S
C820 C821 1.367 1_455 S
C821 C820 1.367 1_655 S
C821 C823 1.433 1_655 S
C822 C818 1.350 . S
C822 C819 1.463 . S
C822 N826 1.427 . S
C823 H813 0.929 1_455 S
C823 C821 1.433 1_455 S
C823 N826 1.384 . S
C824 H815 0.929 . S
C824 C816 1.378 . S
C824 C819 1.350 . S
C825 H812 0.929 . S
C825 C817 1.433 . S
C825 N827 1.384 . S
N826 C822 1.427 . S
N826 C823 1.384 . S
N827 C819 1.427 . S
N827 C825 1.384 . S
H828 C834 0.930 . S
H829 C838 0.930 . S
H830 C843 0.929 . S
H831 C841 0.929 . S
H832 C836 0.929 . S
H833 C842 0.929 . S
C834 H828 0.930 . S
C834 C835 1.367 . S
C834 C842 1.378 . S
C835 C834 1.367 . S
C835 C843 1.433 . S
C836 H832 0.929 . S
C836 C838 1.378 . S
C836 C840 1.350 . S
C837 C840 1.463 . S
C837 C842 1.350 . S
C837 N845 1.427 . S
C838 H829 0.930 . S
C838 C836 1.378 . S
C838 C839 1.367 . S
C839 C838 1.367 . S
C839 C841 1.433 . S
C840 C836 1.350 . S
C840 C837 1.463 . S
C840 N844 1.427 . S
C841 H831 0.929 . S
C841 C839 1.433 . S
C841 N844 1.384 . S
C842 H833 0.929 . S
C842 C834 1.378 . S
C842 C837 1.350 . S
C843 H830 0.929 . S
C843 C835 1.433 . S
C843 N845 1.384 . S
N844 C840 1.427 . S
N844 C841 1.384 . S
N845 C837 1.427 . S
N845 C843 1.384 . S
H846 C852 0.930 1_545 S
H847 C856 0.930 . S
H848 C861 0.929 . S
H849 C859 0.929 . S
H850 C854 0.929 . S
H851 C860 0.929 . S
C852 H846 0.930 1_565 S
C852 C853 1.367 1_565 S
C852 C860 1.378 . S
C853 C852 1.367 1_545 S
C853 C861 1.433 1_545 S
C854 H850 0.929 . S
C854 C856 1.378 . S
C854 C858 1.350 . S
C855 C858 1.463 . S
C855 C860 1.350 . S
C855 N863 1.427 . S
C856 H847 0.930 . S
C856 C854 1.378 . S
C856 C857 1.367 . S
C857 C856 1.367 . S
C857 C859 1.433 . S
C858 C854 1.350 . S
C858 C855 1.463 . S
C858 N862 1.427 . S
C859 H849 0.929 . S
C859 C857 1.433 . S
C859 N862 1.384 . S
C860 H851 0.929 . S
C860 C852 1.378 . S
C860 C855 1.350 . S
C861 H848 0.929 . S
C861 C853 1.433 1_565 S
C861 N863 1.384 . S
N862 C858 1.427 . S
N862 C859 1.384 . S
N863 C855 1.427 . S
N863 C861 1.384 . S
H864 C870 0.930 . S
H865 C874 0.930 . S
H866 C879 0.929 . S
H867 C877 0.929 . S
H868 C872 0.929 . S
H869 C878 0.929 . S
C870 H864 0.930 . S
C870 C871 1.367 . S
C870 C878 1.378 . S
C871 C870 1.367 . S
C871 C879 1.433 . S
C872 H868 0.929 . S
C872 C874 1.378 . S
C872 C876 1.350 . S
C873 C876 1.463 . S
C873 C878 1.350 . S
C873 N881 1.427 . S
C874 H865 0.930 . S
C874 C872 1.378 . S
C874 C875 1.367 . S
C875 C874 1.367 . S
C875 C877 1.433 . S
C876 C872 1.350 . S
C876 C873 1.463 . S
C876 N880 1.427 . S
C877 H867 0.929 . S
C877 C875 1.433 . S
C877 N880 1.384 . S
C878 H869 0.929 . S
C878 C870 1.378 . S
C878 C873 1.350 . S
C879 H866 0.929 . S
C879 C871 1.433 . S
C879 N881 1.384 . S
N880 C876 1.427 . S
N880 C877 1.384 . S
N881 C873 1.427 . S
N881 C879 1.384 . S
H882 C888 0.930 . S
H883 C892 0.930 . S
H884 C897 0.929 . S
H885 C895 0.929 . S
H886 C890 0.929 . S
H887 C896 0.929 . S
C888 H882 0.930 . S
C888 C889 1.367 . S
C888 C896 1.378 . S
C889 C888 1.367 . S
C889 C897 1.433 . S
C890 H886 0.929 . S
C890 C892 1.378 . S
C890 C894 1.350 . S
C891 C894 1.463 . S
C891 C896 1.350 . S
C891 N899 1.427 . S
C892 H883 0.930 . S
C892 C890 1.378 . S
C892 C893 1.367 . S
C893 C892 1.367 . S
C893 C895 1.433 . S
C894 C890 1.350 . S
C894 C891 1.463 . S
C894 N898 1.427 . S
C895 H885 0.929 . S
C895 C893 1.433 . S
C895 N898 1.384 . S
C896 H887 0.929 . S
C896 C888 1.378 . S
C896 C891 1.350 . S
C897 H884 0.929 . S
C897 C889 1.433 . S
C897 N899 1.384 . S
N898 C894 1.427 . S
N898 C895 1.384 . S
N899 C891 1.427 . S
N899 C897 1.384 . S
H900 C906 0.930 . S
H901 C910 0.930 . S
H902 C915 0.929 . S
H903 C913 0.929 . S
H904 C908 0.929 . S
H905 C914 0.929 . S
C906 H900 0.930 . S
C906 C907 1.367 . S
C906 C914 1.378 . S
C907 C906 1.367 . S
C907 C915 1.433 . S
C908 H904 0.929 . S
C908 C910 1.378 . S
C908 C912 1.350 . S
C909 C912 1.463 . S
C909 C914 1.350 . S
C909 N917 1.427 . S
C910 H901 0.930 . S
C910 C908 1.378 . S
C910 C911 1.367 . S
C911 C910 1.367 . S
C911 C913 1.433 . S
C912 C908 1.350 . S
C912 C909 1.463 . S
C912 N916 1.427 . S
C913 H903 0.929 . S
C913 C911 1.433 . S
C913 N916 1.384 . S
C914 H905 0.929 . S
C914 C906 1.378 . S
C914 C909 1.350 . S
C915 H902 0.929 . S
C915 C907 1.433 . S
C915 N917 1.384 . S
N916 C912 1.427 . S
N916 C913 1.384 . S
N917 C909 1.427 . S
N917 C915 1.384 . S
H918 C924 0.930 . S
H919 C928 0.930 . S
H920 C933 0.929 . S
H921 C931 0.929 . S
H922 C926 0.929 . S
H923 C932 0.929 . S
C924 H918 0.930 . S
C924 C925 1.367 . S
C924 C932 1.378 . S
C925 C924 1.367 . S
C925 C933 1.433 . S
C926 H922 0.929 . S
C926 C928 1.378 . S
C926 C930 1.350 . S
C927 C930 1.463 . S
C927 C932 1.350 . S
C927 N935 1.427 . S
C928 H919 0.930 . S
C928 C926 1.378 . S
C928 C929 1.367 . S
C929 C928 1.367 . S
C929 C931 1.433 . S
C930 C926 1.350 . S
C930 C927 1.463 . S
C930 N934 1.427 . S
C931 H921 0.929 . S
C931 C929 1.433 . S
C931 N934 1.384 . S
C932 H923 0.929 . S
C932 C924 1.378 . S
C932 C927 1.350 . S
C933 H920 0.929 . S
C933 C925 1.433 . S
C933 N935 1.384 . S
N934 C930 1.427 . S
N934 C931 1.384 . S
N935 C927 1.427 . S
N935 C933 1.384 . S
H936 C942 0.930 . S
H937 C946 0.930 . S
H938 C951 0.929 . S
H939 C949 0.929 . S
H940 C944 0.929 . S
H941 C950 0.929 . S
C942 H936 0.930 . S
C942 C943 1.367 . S
C942 C950 1.378 . S
C943 C942 1.367 . S
C943 C951 1.433 . S
C944 H940 0.929 . S
C944 C946 1.378 . S
C944 C948 1.350 . S
C945 C948 1.463 . S
C945 C950 1.350 . S
C945 N953 1.427 . S
C946 H937 0.930 . S
C946 C944 1.378 . S
C946 C947 1.367 . S
C947 C946 1.367 . S
C947 C949 1.433 . S
C948 C944 1.350 . S
C948 C945 1.463 . S
C948 N952 1.427 . S
C949 H939 0.929 . S
C949 C947 1.433 . S
C949 N952 1.384 . S
C950 H941 0.929 . S
C950 C942 1.378 . S
C950 C945 1.350 . S
C951 H938 0.929 . S
C951 C943 1.433 . S
C951 N953 1.384 . S
N952 C948 1.427 . S
N952 C949 1.384 . S
N953 C945 1.427 . S
N953 C951 1.384 . S
H954 C960 0.930 . S
H955 C964 0.930 . S
H956 C969 0.929 . S
H957 C967 0.929 . S
H958 C962 0.929 . S
H959 C968 0.929 . S
C960 H954 0.930 . S
C960 C961 1.367 . S
C960 C968 1.378 . S
C961 C960 1.367 . S
C961 C969 1.433 . S
C962 H958 0.929 . S
C962 C964 1.378 . S
C962 C966 1.350 . S
C963 C966 1.463 . S
C963 C968 1.350 . S
C963 N971 1.427 . S
C964 H955 0.930 . S
C964 C962 1.378 . S
C964 C965 1.367 . S
C965 C964 1.367 . S
C965 C967 1.433 . S
C966 C962 1.350 . S
C966 C963 1.463 . S
C966 N970 1.427 . S
C967 H957 0.929 . S
C967 C965 1.433 . S
C967 N970 1.384 . S
C968 H959 0.929 . S
C968 C960 1.378 . S
C968 C963 1.350 . S
C969 H956 0.929 . S
C969 C961 1.433 . S
C969 N971 1.384 . S
N970 C966 1.427 . S
N970 C967 1.384 . S
N971 C963 1.427 . S
N971 C969 1.384 . S
H972 C978 0.930 . S
H973 C982 0.930 . S
H974 C987 0.929 . S
H975 C985 0.929 . S
H976 C980 0.929 . S
H977 C986 0.929 . S
C978 H972 0.930 . S
C978 C979 1.367 . S
C978 C986 1.378 . S
C979 C978 1.367 . S
C979 C987 1.433 . S
C980 H976 0.929 . S
C980 C982 1.378 . S
C980 C984 1.350 . S
C981 C984 1.463 . S
C981 C986 1.350 . S
C981 N989 1.427 . S
C982 H973 0.930 . S
C982 C980 1.378 . S
C982 C983 1.367 . S
C983 C982 1.367 . S
C983 C985 1.433 . S
C984 C980 1.350 . S
C984 C981 1.463 . S
C984 N988 1.427 . S
C985 H975 0.929 . S
C985 C983 1.433 . S
C985 N988 1.384 . S
C986 H977 0.929 . S
C986 C978 1.378 . S
C986 C981 1.350 . S
C987 H974 0.929 . S
C987 C979 1.433 . S
C987 N989 1.384 . S
N988 C984 1.427 . S
N988 C985 1.384 . S
N989 C981 1.427 . S
N989 C987 1.384 . S
H990 C996 0.930 . S
H991 C1000 0.930 . S
H992 C1005 0.929 . S
H993 C1003 0.929 . S
H994 C998 0.929 . S
H995 C1004 0.929 . S
C996 H990 0.930 . S
C996 C997 1.367 . S
C996 C1004 1.378 . S
C997 C996 1.367 . S
C997 C1005 1.433 . S
C998 H994 0.929 . S
C998 C1000 1.378 . S
C998 C1002 1.350 . S
C999 C1002 1.463 . S
C999 C1004 1.350 . S
C999 N1007 1.427 . S
C1000 H991 0.930 . S
C1000 C998 1.378 . S
C1000 C1001 1.367 . S
C1001 C1000 1.367 . S
C1001 C1003 1.433 . S
C1002 C998 1.350 . S
C1002 C999 1.463 . S
C1002 N1006 1.427 . S
C1003 H993 0.929 . S
C1003 C1001 1.433 . S
C1003 N1006 1.384 . S
C1004 H995 0.929 . S
C1004 C996 1.378 . S
C1004 C999 1.350 . S
C1005 H992 0.929 . S
C1005 C997 1.433 . S
C1005 N1007 1.384 . S
N1006 C1002 1.427 . S
N1006 C1003 1.384 . S
N1007 C999 1.427 . S
N1007 C1005 1.384 . S
H1008 C1014 0.930 . S
H1009 C1018 0.930 . S
H1010 C1023 0.929 . S
H1011 C1021 0.929 . S
H1012 C1016 0.929 . S
H1013 C1022 0.929 . S
C1014 H1008 0.930 . S
C1014 C1015 1.367 . S
C1014 C1022 1.378 . S
C1015 C1014 1.367 . S
C1015 C1023 1.433 . S
C1016 H1012 0.929 . S
C1016 C1018 1.378 . S
C1016 C1020 1.350 . S
C1017 C1020 1.463 . S
C1017 C1022 1.350 . S
C1017 N1025 1.427 . S
C1018 H1009 0.930 . S
C1018 C1016 1.378 . S
C1018 C1019 1.367 . S
C1019 C1018 1.367 . S
C1019 C1021 1.433 . S
C1020 C1016 1.350 . S
C1020 C1017 1.463 . S
C1020 N1024 1.427 . S
C1021 H1011 0.929 . S
C1021 C1019 1.433 . S
C1021 N1024 1.384 . S
C1022 H1013 0.929 . S
C1022 C1014 1.378 . S
C1022 C1017 1.350 . S
C1023 H1010 0.929 . S
C1023 C1015 1.433 . S
C1023 N1025 1.384 . S
N1024 C1020 1.427 . S
N1024 C1021 1.384 . S
N1025 C1017 1.427 . S
N1025 C1023 1.384 . S
H1026 C1032 0.930 . S
H1027 C1036 0.930 . S
H1028 C1041 0.929 . S
H1029 C1039 0.929 . S
H1030 C1034 0.929 . S
H1031 C1040 0.929 . S
C1032 H1026 0.930 . S
C1032 C1033 1.367 . S
C1032 C1040 1.378 1_556 S
C1033 C1032 1.367 . S
C1033 C1041 1.433 1_556 S
C1034 H1030 0.929 . S
C1034 C1036 1.378 . S
C1034 C1038 1.350 . S
C1035 C1038 1.463 . S
C1035 C1040 1.350 . S
C1035 N1043 1.427 . S
C1036 H1027 0.930 . S
C1036 C1034 1.378 . S
C1036 C1037 1.367 . S
C1037 C1036 1.367 . S
C1037 C1039 1.433 . S
C1038 C1034 1.350 . S
C1038 C1035 1.463 . S
C1038 N1042 1.427 . S
C1039 H1029 0.929 . S
C1039 C1037 1.433 . S
C1039 N1042 1.384 . S
C1040 H1031 0.929 . S
C1040 C1032 1.378 1_554 S
C1040 C1035 1.350 . S
C1041 H1028 0.929 . S
C1041 C1033 1.433 1_554 S
C1041 N1043 1.384 . S
N1042 C1038 1.427 . S
N1042 C1039 1.384 . S
N1043 C1035 1.427 . S
N1043 C1041 1.384 . S
H1044 C1050 0.930 1_556 S
H1045 C1054 0.930 . S
H1046 C1059 0.929 . S
H1047 C1057 0.929 . S
H1048 C1052 0.929 . S
H1049 C1058 0.929 . S
C1050 H1044 0.930 1_554 S
C1050 C1051 1.367 1_554 S
C1050 C1058 1.378 . S
C1051 C1050 1.367 1_556 S
C1051 C1059 1.433 . S
C1052 H1048 0.929 . S
C1052 C1054 1.378 . S
C1052 C1056 1.350 . S
C1053 C1056 1.463 . S
C1053 C1058 1.350 . S
C1053 N1061 1.427 . S
C1054 H1045 0.930 . S
C1054 C1052 1.378 . S
C1054 C1055 1.367 . S
C1055 C1054 1.367 . S
C1055 C1057 1.433 . S
C1056 C1052 1.350 . S
C1056 C1053 1.463 . S
C1056 N1060 1.427 . S
C1057 H1047 0.929 . S
C1057 C1055 1.433 . S
C1057 N1060 1.384 . S
C1058 H1049 0.929 . S
C1058 C1050 1.378 . S
C1058 C1053 1.350 . S
C1059 H1046 0.929 . S
C1059 C1051 1.433 . S
C1059 N1061 1.384 1_556 S
N1060 C1056 1.427 . S
N1060 C1057 1.384 . S
N1061 C1053 1.427 . S
N1061 C1059 1.384 1_554 S
H1062 C1068 0.930 . S
H1063 C1072 0.930 . S
H1064 C1077 0.929 . S
H1065 C1075 0.929 . S
H1066 C1070 0.929 . S
H1067 C1076 0.929 . S
C1068 H1062 0.930 . S
C1068 C1069 1.367 . S
C1068 C1076 1.378 1_556 S
C1069 C1068 1.367 . S
C1069 C1077 1.433 1_556 S
C1070 H1066 0.929 . S
C1070 C1072 1.378 . S
C1070 C1074 1.350 . S
C1071 C1074 1.463 . S
C1071 C1076 1.350 . S
C1071 N1079 1.427 . S
C1072 H1063 0.930 . S
C1072 C1070 1.378 . S
C1072 C1073 1.367 . S
C1073 C1072 1.367 . S
C1073 C1075 1.433 . S
C1074 C1070 1.350 . S
C1074 C1071 1.463 . S
C1074 N1078 1.427 . S
C1075 H1065 0.929 . S
C1075 C1073 1.433 . S
C1075 N1078 1.384 . S
C1076 H1067 0.929 . S
C1076 C1068 1.378 1_554 S
C1076 C1071 1.350 . S
C1077 H1064 0.929 . S
C1077 C1069 1.433 1_554 S
C1077 N1079 1.384 . S
N1078 C1074 1.427 . S
N1078 C1075 1.384 . S
N1079 C1071 1.427 . S
N1079 C1077 1.384 . S
H1080 C1086 0.930 . S
H1081 C1090 0.930 . S
H1082 C1095 0.929 . S
H1083 C1093 0.929 . S
H1084 C1088 0.929 . S
H1085 C1094 0.929 . S
C1086 H1080 0.930 . S
C1086 C1087 1.367 . S
C1086 C1094 1.378 . S
C1087 C1086 1.367 . S
C1087 C1095 1.433 . S
C1088 H1084 0.929 . S
C1088 C1090 1.378 1_556 S
C1088 C1092 1.350 . S
C1089 C1092 1.463 . S
C1089 C1094 1.350 . S
C1089 N1097 1.427 . S
C1090 H1081 0.930 . S
C1090 C1088 1.378 1_554 S
C1090 C1091 1.367 . S
C1091 C1090 1.367 . S
C1091 C1093 1.433 . S
C1092 C1088 1.350 . S
C1092 C1089 1.463 . S
C1092 N1096 1.427 . S
C1093 H1083 0.929 . S
C1093 C1091 1.433 . S
C1093 N1096 1.384 1_554 S
C1094 H1085 0.929 . S
C1094 C1086 1.378 . S
C1094 C1089 1.350 . S
C1095 H1082 0.929 . S
C1095 C1087 1.433 . S
C1095 N1097 1.384 . S
N1096 C1092 1.427 . S
N1096 C1093 1.384 1_556 S
N1097 C1089 1.427 . S
N1097 C1095 1.384 . S
H1098 C1104 0.930 . S
H1099 C1108 0.930 1_554 S
H1100 C1113 0.929 . S
H1101 C1111 0.929 . S
H1102 C1106 0.929 . S
H1103 C1112 0.929 . S
C1104 H1098 0.930 . S
C1104 C1105 1.367 . S
C1104 C1112 1.378 . S
C1105 C1104 1.367 . S
C1105 C1113 1.433 . S
C1106 H1102 0.929 . S
C1106 C1108 1.378 . S
C1106 C1110 1.350 . S
C1107 C1110 1.463 . S
C1107 C1112 1.350 . S
C1107 N1115 1.427 . S
C1108 H1099 0.930 1_556 S
C1108 C1106 1.378 . S
C1108 C1109 1.367 1_556 S
C1109 C1108 1.367 1_554 S
C1109 C1111 1.433 . S
C1110 C1106 1.350 . S
C1110 C1107 1.463 . S
C1110 N1114 1.427 . S
C1111 H1101 0.929 . S
C1111 C1109 1.433 . S
C1111 N1114 1.384 1_554 S
C1112 H1103 0.929 . S
C1112 C1104 1.378 . S
C1112 C1107 1.350 . S
C1113 H1100 0.929 . S
C1113 C1105 1.433 . S
C1113 N1115 1.384 . S
N1114 C1110 1.427 . S
N1114 C1111 1.384 1_556 S
N1115 C1107 1.427 . S
N1115 C1113 1.384 . S
H1116 C1122 0.930 . S
H1117 C1126 0.930 . S
H1118 C1131 0.929 . S
H1119 C1129 0.929 . S
H1120 C1124 0.929 . S
H1121 C1130 0.929 . S
C1122 H1116 0.930 . S
C1122 C1123 1.367 . S
C1122 C1130 1.378 . S
C1123 C1122 1.367 . S
C1123 C1131 1.433 . S
C1124 H1120 0.929 . S
C1124 C1126 1.378 1_556 S
C1124 C1128 1.350 . S
C1125 C1128 1.463 . S
C1125 C1130 1.350 . S
C1125 N1133 1.427 . S
C1126 H1117 0.930 . S
C1126 C1124 1.378 1_554 S
C1126 C1127 1.367 . S
C1127 C1126 1.367 . S
C1127 C1129 1.433 . S
C1128 C1124 1.350 . S
C1128 C1125 1.463 . S
C1128 N1132 1.427 . S
C1129 H1119 0.929 . S
C1129 C1127 1.433 . S
C1129 N1132 1.384 1_554 S
C1130 H1121 0.929 . S
C1130 C1122 1.378 . S
C1130 C1125 1.350 . S
C1131 H1118 0.929 . S
C1131 C1123 1.433 . S
C1131 N1133 1.384 . S
N1132 C1128 1.427 . S
N1132 C1129 1.384 1_556 S
N1133 C1125 1.427 . S
N1133 C1131 1.384 . S
H1134 C1140 0.930 . S
H1135 C1144 0.930 . S
H1136 C1149 0.929 . S
H1137 C1147 0.929 . S
H1138 C1142 0.929 . S
H1139 C1148 0.929 . S
C1140 H1134 0.930 . S
C1140 C1141 1.367 . S
C1140 C1148 1.378 . S
C1141 C1140 1.367 . S
C1141 C1149 1.433 . S
C1142 H1138 0.929 . S
C1142 C1144 1.378 . S
C1142 C1146 1.350 . S
C1143 C1146 1.463 . S
C1143 C1148 1.350 . S
C1143 N1151 1.427 . S
C1144 H1135 0.930 . S
C1144 C1142 1.378 . S
C1144 C1145 1.367 . S
C1145 C1144 1.367 . S
C1145 C1147 1.433 . S
C1146 C1142 1.350 . S
C1146 C1143 1.463 . S
C1146 N1150 1.427 . S
C1147 H1137 0.929 . S
C1147 C1145 1.433 . S
C1147 N1150 1.384 . S
C1148 H1139 0.929 . S
C1148 C1140 1.378 . S
C1148 C1143 1.350 . S
C1149 H1136 0.929 . S
C1149 C1141 1.433 . S
C1149 N1151 1.384 . S
N1150 C1146 1.427 . S
N1150 C1147 1.384 . S
N1151 C1143 1.427 . S
N1151 C1149 1.384 . S
H1152 C1158 0.930 . S
H1153 C1162 0.930 . S
H1154 C1167 0.929 . S
H1155 C1165 0.929 . S
H1156 C1160 0.929 . S
H1157 C1166 0.929 . S
C1158 H1152 0.930 . S
C1158 C1159 1.367 . S
C1158 C1166 1.378 . S
C1159 C1158 1.367 . S
C1159 C1167 1.433 . S
C1160 H1156 0.929 . S
C1160 C1162 1.378 . S
C1160 C1164 1.350 . S
C1161 C1164 1.463 . S
C1161 C1166 1.350 . S
C1161 N1169 1.427 . S
C1162 H1153 0.930 . S
C1162 C1160 1.378 . S
C1162 C1163 1.367 . S
C1163 C1162 1.367 . S
C1163 C1165 1.433 . S
C1164 C1160 1.350 . S
C1164 C1161 1.463 . S
C1164 N1168 1.427 . S
C1165 H1155 0.929 . S
C1165 C1163 1.433 . S
C1165 N1168 1.384 . S
C1166 H1157 0.929 . S
C1166 C1158 1.378 . S
C1166 C1161 1.350 . S
C1167 H1154 0.929 . S
C1167 C1159 1.433 . S
C1167 N1169 1.384 . S
N1168 C1164 1.427 . S
N1168 C1165 1.384 . S
N1169 C1161 1.427 . S
N1169 C1167 1.384 . S
H1170 C1176 0.930 . S
H1171 C1180 0.930 . S
H1172 C1185 0.929 . S
H1173 C1183 0.929 . S
H1174 C1178 0.929 . S
H1175 C1184 0.929 . S
C1176 H1170 0.930 . S
C1176 C1177 1.367 . S
C1176 C1184 1.378 . S
C1177 C1176 1.367 . S
C1177 C1185 1.433 . S
C1178 H1174 0.929 . S
C1178 C1180 1.378 . S
C1178 C1182 1.350 . S
C1179 C1182 1.463 . S
C1179 C1184 1.350 . S
C1179 N1187 1.427 . S
C1180 H1171 0.930 . S
C1180 C1178 1.378 . S
C1180 C1181 1.367 . S
C1181 C1180 1.367 . S
C1181 C1183 1.433 . S
C1182 C1178 1.350 . S
C1182 C1179 1.463 . S
C1182 N1186 1.427 . S
C1183 H1173 0.929 . S
C1183 C1181 1.433 . S
C1183 N1186 1.384 . S
C1184 H1175 0.929 . S
C1184 C1176 1.378 . S
C1184 C1179 1.350 . S
C1185 H1172 0.929 . S
C1185 C1177 1.433 . S
C1185 N1187 1.384 . S
N1186 C1182 1.427 . S
N1186 C1183 1.384 . S
N1187 C1179 1.427 . S
N1187 C1185 1.384 . S
H1188 C1194 0.930 . S
H1189 C1198 0.930 . S
H1190 C1203 0.929 . S
H1191 C1201 0.929 . S
H1192 C1196 0.929 . S
H1193 C1202 0.929 . S
C1194 H1188 0.930 . S
C1194 C1195 1.367 . S
C1194 C1202 1.378 . S
C1195 C1194 1.367 . S
C1195 C1203 1.433 . S
C1196 H1192 0.929 . S
C1196 C1198 1.378 . S
C1196 C1200 1.350 . S
C1197 C1200 1.463 1_565 S
C1197 C1202 1.350 . S
C1197 N1205 1.427 . S
C1198 H1189 0.930 . S
C1198 C1196 1.378 . S
C1198 C1199 1.367 . S
C1199 C1198 1.367 . S
C1199 C1201 1.433 1_556 S
C1200 C1196 1.350 . S
C1200 C1197 1.463 1_545 S
C1200 N1204 1.427 . S
C1201 H1191 0.929 . S
C1201 C1199 1.433 1_554 S
C1201 N1204 1.384 1_554 S
C1202 H1193 0.929 . S
C1202 C1194 1.378 . S
C1202 C1197 1.350 . S
C1203 H1190 0.929 . S
C1203 C1195 1.433 . S
C1203 N1205 1.384 . S
N1204 C1200 1.427 . S
N1204 C1201 1.384 1_556 S
N1205 C1197 1.427 . S
N1205 C1203 1.384 . S
H1206 C1212 0.930 . S
H1207 C1216 0.930 . S
H1208 C1221 0.929 . S
H1209 C1219 0.929 . S
H1210 C1214 0.929 . S
H1211 C1220 0.929 . S
C1212 H1206 0.930 . S
C1212 C1213 1.367 . S
C1212 C1220 1.378 . S
C1213 C1212 1.367 . S
C1213 C1221 1.433 . S
C1214 H1210 0.929 . S
C1214 C1216 1.378 . S
C1214 C1218 1.350 . S
C1215 C1218 1.463 1_655 S
C1215 C1220 1.350 . S
C1215 N1223 1.427 . S
C1216 H1207 0.930 . S
C1216 C1214 1.378 . S
C1216 C1217 1.367 . S
C1217 C1216 1.367 . S
C1217 C1219 1.433 . S
C1218 C1214 1.350 . S
C1218 C1215 1.463 1_455 S
C1218 N1222 1.427 . S
C1219 H1209 0.929 . S
C1219 C1217 1.433 . S
C1219 N1222 1.386 . S
C1220 H1211 0.929 . S
C1220 C1212 1.378 . S
C1220 C1215 1.350 . S
C1221 H1208 0.929 . S
C1221 C1213 1.433 . S
C1221 N1223 1.384 . S
N1222 C1218 1.427 . S
N1222 C1219 1.386 . S
N1223 C1215 1.427 . S
N1223 C1221 1.384 . S
H1224 C1230 0.930 . S
H1225 C1234 0.930 . S
H1226 C1239 0.929 . S
H1227 C1237 0.929 . S
H1228 C1232 0.929 . S
H1229 C1238 0.929 . S
C1230 H1224 0.930 . S
C1230 C1231 1.367 . S
C1230 C1238 1.378 . S
C1231 C1230 1.367 . S
C1231 C1239 1.433 . S
C1232 H1228 0.929 . S
C1232 C1234 1.378 . S
C1232 C1236 1.350 . S
C1233 C1236 1.463 . S
C1233 C1238 1.350 . S
C1233 N1241 1.427 . S
C1234 H1225 0.930 . S
C1234 C1232 1.378 . S
C1234 C1235 1.367 . S
C1235 C1234 1.367 . S
C1235 C1237 1.433 1_556 S
C1236 C1232 1.350 . S
C1236 C1233 1.463 . S
C1236 N1240 1.427 . S
C1237 H1227 0.929 . S
C1237 C1235 1.433 1_554 S
C1237 N1240 1.384 1_554 S
C1238 H1229 0.929 . S
C1238 C1230 1.378 . S
C1238 C1233 1.350 . S
C1239 H1226 0.929 . S
C1239 C1231 1.433 . S
C1239 N1241 1.384 . S
N1240 C1236 1.427 . S
N1240 C1237 1.384 1_556 S
N1241 C1233 1.427 . S
N1241 C1239 1.384 . S
H1242 C1248 0.930 . S
H1243 C1252 0.930 . S
H1244 C1257 0.929 . S
H1245 C1255 0.929 . S
H1246 C1250 0.929 1_655 S
H1247 C1256 0.929 1_455 S
C1248 H1242 0.930 . S
C1248 C1249 1.367 . S
C1248 C1256 1.378 . S
C1249 C1248 1.367 . S
C1249 C1257 1.433 . S
C1250 H1246 0.929 1_455 S
C1250 C1252 1.378 . S
C1250 C1254 1.350 . S
C1251 C1254 1.463 1_655 S
C1251 C1256 1.350 . S
C1251 N1259 1.427 . S
C1252 H1243 0.930 . S
C1252 C1250 1.378 . S
C1252 C1253 1.367 . S
C1253 C1252 1.367 . S
C1253 C1255 1.433 . S
C1254 C1250 1.350 . S
C1254 C1251 1.463 1_455 S
C1254 N1258 1.427 . S
C1255 H1245 0.929 . S
C1255 C1253 1.433 . S
C1255 N1258 1.384 . S
C1256 H1247 0.929 1_655 S
C1256 C1248 1.378 . S
C1256 C1251 1.350 . S
C1257 H1244 0.929 . S
C1257 C1249 1.433 . S
C1257 N1259 1.384 . S
N1258 C1254 1.427 . S
N1258 C1255 1.384 . S
N1259 C1251 1.427 . S
N1259 C1257 1.384 . S
H1260 C1266 0.930 . S
H1261 C1270 0.930 . S
H1262 C1275 0.929 . S
H1263 C1273 0.929 . S
H1264 C1268 0.929 . S
H1265 C1274 0.929 . S
C1266 H1260 0.930 . S
C1266 C1267 1.367 . S
C1266 C1274 1.378 . S
C1267 C1266 1.367 . S
C1267 C1275 1.433 . S
C1268 H1264 0.929 . S
C1268 C1270 1.378 . S
C1268 C1272 1.350 . S
C1269 C1272 1.463 . S
C1269 C1274 1.350 . S
C1269 N1277 1.427 . S
C1270 H1261 0.930 . S
C1270 C1268 1.378 . S
C1270 C1271 1.367 . S
C1271 C1270 1.367 . S
C1271 C1273 1.433 . S
C1272 C1268 1.350 . S
C1272 C1269 1.463 . S
C1272 N1276 1.427 . S
C1273 H1263 0.929 . S
C1273 C1271 1.433 . S
C1273 N1276 1.384 . S
C1274 H1265 0.929 . S
C1274 C1266 1.378 . S
C1274 C1269 1.350 . S
C1275 H1262 0.929 . S
C1275 C1267 1.433 . S
C1275 N1277 1.384 . S
N1276 C1272 1.427 . S
N1276 C1273 1.384 . S
N1277 C1269 1.427 . S
N1277 C1275 1.384 . S
H1278 C1284 0.930 . S
H1279 C1288 0.930 . S
H1280 C1293 0.929 . S
H1281 C1291 0.929 . S
H1282 C1286 0.929 . S
H1283 C1292 0.929 . S
C1284 H1278 0.930 . S
C1284 C1285 1.367 . S
C1284 C1292 1.378 . S
C1285 C1284 1.367 . S
C1285 C1293 1.433 . S
C1286 H1282 0.929 . S
C1286 C1288 1.378 . S
C1286 C1290 1.350 . S
C1287 C1290 1.463 1_565 S
C1287 C1292 1.350 . S
C1287 N1295 1.427 . S
C1288 H1279 0.930 . S
C1288 C1286 1.378 . S
C1288 C1289 1.367 . S
C1289 C1288 1.367 . S
C1289 C1291 1.433 . S
C1290 C1286 1.350 . S
C1290 C1287 1.463 1_545 S
C1290 N1294 1.427 . S
C1291 H1281 0.929 . S
C1291 C1289 1.433 . S
C1291 N1294 1.384 . S
C1292 H1283 0.929 . S
C1292 C1284 1.378 . S
C1292 C1287 1.350 . S
C1293 H1280 0.929 . S
C1293 C1285 1.433 . S
C1293 N1295 1.384 . S
N1294 C1290 1.427 . S
N1294 C1291 1.384 . S
N1295 C1287 1.427 . S
N1295 C1293 1.384 . S
H1296 C1302 0.930 . S
H1297 C1306 0.930 . S
H1298 C1311 0.929 . S
H1299 C1309 0.929 . S
H1300 C1304 0.929 . S
H1301 C1310 0.929 . S
C1302 H1296 0.930 . S
C1302 C1303 1.367 . S
C1302 C1310 1.378 . S
C1303 C1302 1.367 . S
C1303 C1311 1.433 . S
C1304 H1300 0.929 . S
C1304 C1306 1.378 . S
C1304 C1308 1.350 . S
C1305 C1308 1.463 . S
C1305 C1310 1.350 . S
C1305 N1313 1.427 . S
C1306 H1297 0.930 . S
C1306 C1304 1.378 . S
C1306 C1307 1.367 . S
C1307 C1306 1.367 . S
C1307 C1309 1.433 . S
C1308 C1304 1.350 . S
C1308 C1305 1.463 . S
C1308 N1312 1.427 . S
C1309 H1299 0.929 . S
C1309 C1307 1.433 . S
C1309 N1312 1.384 . S
C1310 H1301 0.929 . S
C1310 C1302 1.378 . S
C1310 C1305 1.350 . S
C1311 H1298 0.929 . S
C1311 C1303 1.433 . S
C1311 N1313 1.384 . S
N1312 C1308 1.427 . S
N1312 C1309 1.384 . S
N1313 C1305 1.427 . S
N1313 C1311 1.384 . S
H1314 C1320 0.930 . S
H1315 C1324 0.930 . S
H1316 C1329 0.929 . S
H1317 C1327 0.929 . S
H1318 C1322 0.929 . S
H1319 C1328 0.929 . S
C1320 H1314 0.930 . S
C1320 C1321 1.367 . S
C1320 C1328 1.378 . S
C1321 C1320 1.367 . S
C1321 C1329 1.433 . S
C1322 H1318 0.929 . S
C1322 C1324 1.378 . S
C1322 C1326 1.350 . S
C1323 C1326 1.463 . S
C1323 C1328 1.350 . S
C1323 N1331 1.427 . S
C1324 H1315 0.930 . S
C1324 C1322 1.378 . S
C1324 C1325 1.367 . S
C1325 C1324 1.367 . S
C1325 C1327 1.433 . S
C1326 C1322 1.350 . S
C1326 C1323 1.463 . S
C1326 N1330 1.427 . S
C1327 H1317 0.929 . S
C1327 C1325 1.433 . S
C1327 N1330 1.384 . S
C1328 H1319 0.929 . S
C1328 C1320 1.378 . S
C1328 C1323 1.350 . S
C1329 H1316 0.929 . S
C1329 C1321 1.433 . S
C1329 N1331 1.384 . S
N1330 C1326 1.427 . S
N1330 C1327 1.384 . S
N1331 C1323 1.427 . S
N1331 C1329 1.384 . S
H1332 C1338 0.930 . S
H1333 C1342 0.930 . S
H1334 C1347 0.929 . S
H1335 C1345 0.929 . S
H1336 C1340 0.929 . S
H1337 C1346 0.929 . S
C1338 H1332 0.930 . S
C1338 C1339 1.367 . S
C1338 C1346 1.378 . S
C1339 C1338 1.367 . S
C1339 C1347 1.433 . S
C1340 H1336 0.929 . S
C1340 C1342 1.378 . S
C1340 C1344 1.350 . S
C1341 C1344 1.463 . S
C1341 C1346 1.350 . S
C1341 N1349 1.427 . S
C1342 H1333 0.930 . S
C1342 C1340 1.378 . S
C1342 C1343 1.367 . S
C1343 C1342 1.367 . S
C1343 C1345 1.433 . S
C1344 C1340 1.350 . S
C1344 C1341 1.463 . S
C1344 N1348 1.427 . S
C1345 H1335 0.929 . S
C1345 C1343 1.433 . S
C1345 N1348 1.384 . S
C1346 H1337 0.929 . S
C1346 C1338 1.378 . S
C1346 C1341 1.350 . S
C1347 H1334 0.929 . S
C1347 C1339 1.433 . S
C1347 N1349 1.384 . S
N1348 C1344 1.427 . S
N1348 C1345 1.384 . S
N1349 C1341 1.427 . S
N1349 C1347 1.384 . S
H1350 C1356 0.930 . S
H1351 C1360 0.930 . S
H1352 C1365 0.929 . S
H1353 C1363 0.929 . S
H1354 C1358 0.929 . S
H1355 C1364 0.929 . S
C1356 H1350 0.930 . S
C1356 C1357 1.367 . S
C1356 C1364 1.378 . S
C1357 C1356 1.367 . S
C1357 C1365 1.433 . S
C1358 H1354 0.929 . S
C1358 C1360 1.378 . S
C1358 C1362 1.350 . S
C1359 C1362 1.463 . S
C1359 C1364 1.350 . S
C1359 N1367 1.427 . S
C1360 H1351 0.930 . S
C1360 C1358 1.378 . S
C1360 C1361 1.367 . S
C1361 C1360 1.367 . S
C1361 C1363 1.433 . S
C1362 C1358 1.350 . S
C1362 C1359 1.463 . S
C1362 N1366 1.427 . S
C1363 H1353 0.929 . S
C1363 C1361 1.433 . S
C1363 N1366 1.384 . S
C1364 H1355 0.929 . S
C1364 C1356 1.378 . S
C1364 C1359 1.350 . S
C1365 H1352 0.929 . S
C1365 C1357 1.433 . S
C1365 N1367 1.384 . S
N1366 C1362 1.427 . S
N1366 C1363 1.384 . S
N1367 C1359 1.427 . S
N1367 C1365 1.384 . S
H1368 C1374 0.930 . S
H1369 C1378 0.930 . S
H1370 C1383 0.929 . S
H1371 C1381 0.929 . S
H1372 C1376 0.929 . S
H1373 C1382 0.929 . S
C1374 H1368 0.930 . S
C1374 C1375 1.367 . S
C1374 C1382 1.378 . S
C1375 C1374 1.367 . S
C1375 C1383 1.433 . S
C1376 H1372 0.929 . S
C1376 C1378 1.378 . S
C1376 C1380 1.350 . S
C1377 C1380 1.463 . S
C1377 C1382 1.350 . S
C1377 N1385 1.427 . S
C1378 H1369 0.930 . S
C1378 C1376 1.378 . S
C1378 C1379 1.367 . S
C1379 C1378 1.367 . S
C1379 C1381 1.433 . S
C1380 C1376 1.350 . S
C1380 C1377 1.463 . S
C1380 N1384 1.427 . S
C1381 H1371 0.929 . S
C1381 C1379 1.433 . S
C1381 N1384 1.384 . S
C1382 H1373 0.929 . S
C1382 C1374 1.378 . S
C1382 C1377 1.350 . S
C1383 H1370 0.929 . S
C1383 C1375 1.433 . S
C1383 N1385 1.384 . S
N1384 C1380 1.427 . S
N1384 C1381 1.384 . S
N1385 C1377 1.427 . S
N1385 C1383 1.384 . S
H1386 C1392 0.930 . S
H1387 C1396 0.930 . S
H1388 C1401 0.929 . S
H1389 C1399 0.929 . S
H1390 C1394 0.929 . S
H1391 C1400 0.929 . S
C1392 H1386 0.930 . S
C1392 C1393 1.367 . S
C1392 C1400 1.378 . S
C1393 C1392 1.367 . S
C1393 C1401 1.433 . S
C1394 H1390 0.929 . S
C1394 C1396 1.378 . S
C1394 C1398 1.350 . S
C1395 C1398 1.463 . S
C1395 C1400 1.350 . S
C1395 N1403 1.427 . S
C1396 H1387 0.930 . S
C1396 C1394 1.378 . S
C1396 C1397 1.367 . S
C1397 C1396 1.367 . S
C1397 C1399 1.433 . S
C1398 C1394 1.350 . S
C1398 C1395 1.463 . S
C1398 N1402 1.427 . S
C1399 H1389 0.929 . S
C1399 C1397 1.433 . S
C1399 N1402 1.384 . S
C1400 H1391 0.929 . S
C1400 C1392 1.378 . S
C1400 C1395 1.350 . S
C1401 H1388 0.929 . S
C1401 C1393 1.433 . S
C1401 N1403 1.384 . S
N1402 C1398 1.427 . S
N1402 C1399 1.384 . S
N1403 C1395 1.427 . S
N1403 C1401 1.384 . S
H1404 C1410 0.930 . S
H1405 C1414 0.930 . S
H1406 C1419 0.929 . S
H1407 C1417 0.929 . S
H1408 C1412 0.929 . S
H1409 C1418 0.929 . S
C1410 H1404 0.930 . S
C1410 C1411 1.367 . S
C1410 C1418 1.378 . S
C1411 C1410 1.367 . S
C1411 C1419 1.433 . S
C1412 H1408 0.929 . S
C1412 C1414 1.378 . S
C1412 C1416 1.350 . S
C1413 C1416 1.463 . S
C1413 C1418 1.350 . S
C1413 N1421 1.427 . S
C1414 H1405 0.930 . S
C1414 C1412 1.378 . S
C1414 C1415 1.367 . S
C1415 C1414 1.367 . S
C1415 C1417 1.433 . S
C1416 C1412 1.350 . S
C1416 C1413 1.463 . S
C1416 N1420 1.427 . S
C1417 H1407 0.929 . S
C1417 C1415 1.433 . S
C1417 N1420 1.384 . S
C1418 H1409 0.929 . S
C1418 C1410 1.378 . S
C1418 C1413 1.350 . S
C1419 H1406 0.929 . S
C1419 C1411 1.433 . S
C1419 N1421 1.384 . S
N1420 C1416 1.427 . S
N1420 C1417 1.384 . S
N1421 C1413 1.427 . S
N1421 C1419 1.384 . S
H1422 C1428 0.930 . S
H1423 C1432 0.930 . S
H1424 C1437 0.929 . S
H1425 C1435 0.929 . S
H1426 C1430 0.929 . S
H1427 C1436 0.929 . S
C1428 H1422 0.930 . S
C1428 C1429 1.367 . S
C1428 C1436 1.378 . S
C1429 C1428 1.367 . S
C1429 C1437 1.433 . S
C1430 H1426 0.929 . S
C1430 C1432 1.378 . S
C1430 C1434 1.350 . S
C1431 C1434 1.463 . S
C1431 C1436 1.350 . S
C1431 N1439 1.427 . S
C1432 H1423 0.930 . S
C1432 C1430 1.378 . S
C1432 C1433 1.367 . S
C1433 C1432 1.367 . S
C1433 C1435 1.433 . S
C1434 C1430 1.350 . S
C1434 C1431 1.463 . S
C1434 N1438 1.427 . S
C1435 H1425 0.929 . S
C1435 C1433 1.433 . S
C1435 N1438 1.384 . S
C1436 H1427 0.929 . S
C1436 C1428 1.378 . S
C1436 C1431 1.350 . S
C1437 H1424 0.929 . S
C1437 C1429 1.433 . S
C1437 N1439 1.384 . S
N1438 C1434 1.427 . S
N1438 C1435 1.384 . S
N1439 C1431 1.427 . S
N1439 C1437 1.384 . S
H1440 C1446 0.930 . S
H1441 C1450 0.930 . S
H1442 C1455 0.929 . S
H1443 C1453 0.929 . S
H1444 C1448 0.929 . S
H1445 C1454 0.929 . S
C1446 H1440 0.930 . S
C1446 C1447 1.367 . S
C1446 C1454 1.378 . S
C1447 C1446 1.367 . S
C1447 C1455 1.433 . S
C1448 H1444 0.929 . S
C1448 C1450 1.378 . S
C1448 C1452 1.350 . S
C1449 C1452 1.463 . S
C1449 C1454 1.350 . S
C1449 N1457 1.427 . S
C1450 H1441 0.930 . S
C1450 C1448 1.378 . S
C1450 C1451 1.367 . S
C1451 C1450 1.367 . S
C1451 C1453 1.433 . S
C1452 C1448 1.350 . S
C1452 C1449 1.463 . S
C1452 N1456 1.427 . S
C1453 H1443 0.929 . S
C1453 C1451 1.433 . S
C1453 N1456 1.384 . S
C1454 H1445 0.929 . S
C1454 C1446 1.378 . S
C1454 C1449 1.350 . S
C1455 H1442 0.929 . S
C1455 C1447 1.433 . S
C1455 N1457 1.384 . S
N1456 C1452 1.427 . S
N1456 C1453 1.384 . S
N1457 C1449 1.427 . S
N1457 C1455 1.384 . S
H1458 C1464 0.930 . S
H1459 C1468 0.930 1_556 S
H1460 C1473 0.929 . S
H1461 C1471 0.929 . S
H1462 C1466 0.929 . S
H1463 C1472 0.929 . S
C1464 H1458 0.930 . S
C1464 C1465 1.367 . S
C1464 C1472 1.378 . S
C1465 C1464 1.367 . S
C1465 C1473 1.433 . S
C1466 H1462 0.929 . S
C1466 C1468 1.378 . S
C1466 C1470 1.350 . S
C1467 C1470 1.463 . S
C1467 C1472 1.350 . S
C1467 N1475 1.427 . S
C1468 H1459 0.930 1_554 S
C1468 C1466 1.378 . S
C1468 C1469 1.367 . S
C1469 C1468 1.367 . S
C1469 C1471 1.433 . S
C1470 C1466 1.350 . S
C1470 C1467 1.463 . S
C1470 N1474 1.427 . S
C1471 H1461 0.929 . S
C1471 C1469 1.433 . S
C1471 N1474 1.384 . S
C1472 H1463 0.929 . S
C1472 C1464 1.378 . S
C1472 C1467 1.350 . S
C1473 H1460 0.929 . S
C1473 C1465 1.433 . S
C1473 N1475 1.384 . S
N1474 C1470 1.427 . S
N1474 C1471 1.384 . S
N1475 C1467 1.427 . S
N1475 C1473 1.384 . S
H1476 C1482 0.930 . S
H1477 C1486 0.930 1_556 S
H1478 C1491 0.929 . S
H1479 C1489 0.929 . S
H1480 C1484 0.929 . S
H1481 C1490 0.929 . S
C1482 H1476 0.930 . S
C1482 C1483 1.367 . S
C1482 C1490 1.378 . S
C1483 C1482 1.367 . S
C1483 C1491 1.433 . S
C1484 H1480 0.929 . S
C1484 C1486 1.378 . S
C1484 C1488 1.350 . S
C1485 C1488 1.463 . S
C1485 C1490 1.350 . S
C1485 N1493 1.427 . S
C1486 H1477 0.930 1_554 S
C1486 C1484 1.378 . S
C1486 C1487 1.367 . S
C1487 C1486 1.367 . S
C1487 C1489 1.433 . S
C1488 C1484 1.350 . S
C1488 C1485 1.463 . S
C1488 N1492 1.427 . S
C1489 H1479 0.929 . S
C1489 C1487 1.433 . S
C1489 N1492 1.384 . S
C1490 H1481 0.929 . S
C1490 C1482 1.378 . S
C1490 C1485 1.350 . S
C1491 H1478 0.929 . S
C1491 C1483 1.433 . S
C1491 N1493 1.384 . S
N1492 C1488 1.427 . S
N1492 C1489 1.384 . S
N1493 C1485 1.427 . S
N1493 C1491 1.384 . S
H1494 C1500 0.930 . S
H1495 C1504 0.930 . S
H1496 C1509 0.929 . S
H1497 C1507 0.929 . S
H1498 C1502 0.929 . S
H1499 C1508 0.929 . S
C1500 H1494 0.930 . S
C1500 C1501 1.367 . S
C1500 C1508 1.378 . S
C1501 C1500 1.367 . S
C1501 C1509 1.433 . S
C1502 H1498 0.929 . S
C1502 C1504 1.378 . S
C1502 C1506 1.350 . S
C1503 C1506 1.463 . S
C1503 C1508 1.350 . S
C1503 N1511 1.427 . S
C1504 H1495 0.930 . S
C1504 C1502 1.378 . S
C1504 C1505 1.367 . S
C1505 C1504 1.367 . S
C1505 C1507 1.433 . S
C1506 C1502 1.350 . S
C1506 C1503 1.463 . S
C1506 N1510 1.427 . S
C1507 H1497 0.929 . S
C1507 C1505 1.433 . S
C1507 N1510 1.384 . S
C1508 H1499 0.929 . S
C1508 C1500 1.378 . S
C1508 C1503 1.350 . S
C1509 H1496 0.929 . S
C1509 C1501 1.433 . S
C1509 N1511 1.384 . S
N1510 C1506 1.427 . S
N1510 C1507 1.384 . S
N1511 C1503 1.427 . S
N1511 C1509 1.384 . S
C547 N14 0.787 . S
C551 C70 0.842 . S
C565 C10 0.841 . S
C569 N44 0.785 . S
C583 N74 0.777 . S
C587 C40 0.838 . S
C601 C121 0.852 . S
C605 N96 0.798 . S
C619 C151 0.856 . S
C623 N126 0.813 . S
C637 N156 0.789 . S
C641 C91 0.843 . S
C655 C250 0.842 . S
C659 N194 0.787 . S
C673 N224 0.767 . S
C677 C190 0.834 . S
C691 C220 0.842 . S
C695 N254 0.786 . S
C709 N276 0.793 . S
C713 C301 0.844 . S
C727 C331 0.834 . S
C731 N306 0.765 . S
C745 N336 0.768 . S
C749 C271 0.835 . S
C763 C430 0.847 . S
C767 N374 0.798 . S
C781 N404 0.763 1_565 S
C785 C370 0.833 . S
C799 N434 0.792 1_455 S
C803 C400 0.850 . S
C817 N456 0.763 . S
C821 C481 0.833 . S
C835 C511 0.837 . S
C839 N486 0.775 1_565 S
C853 C451 0.837 . S
C857 N516 0.775 1_455 S
C871 C166 1.308 . S
C875 C16 1.310 . S
C889 C106 1.301 . S
C893 C46 1.304 . S
C907 C136 1.299 . S
C911 C76 1.302 . S
C925 C57 1.310 . S
C929 C117 1.313 . S
C943 C147 1.303 . S
C947 C87 1.300 . S
C961 C27 1.308 . S
C965 C177 1.311 . S
C979 C196 1.302 . S
C983 C346 1.299 . S
C997 C226 1.313 . S
C1001 C286 1.311 . S
C1015 C316 1.299 . S
C1019 C256 1.302 . S
C1033 C297 1.302 . S
C1037 C237 1.298 . S
C1051 C327 1.311 . S
C1055 C267 1.308 . S
C1069 C357 1.301 . S
C1073 C207 1.298 . S
C1087 C376 1.307 . S
C1091 C526 1.304 . S
C1105 C406 1.313 . S
C1109 C466 1.311 . S
C1123 C436 1.305 . S
C1127 C496 1.302 . S
C1141 C477 1.313 . S
C1145 C417 1.311 . S
C1159 C507 1.302 . S
C1163 C447 1.299 . S
C1177 C537 1.302 . S
C1181 C387 1.299 . S
C1195 N314 2.230 . S
C1199 C1 2.191 . S
C1213 C31 2.187 . S
C1217 N344 2.227 . S
C1231 N284 2.228 . S
C1235 C61 2.188 . S
C1249 C100 2.194 . S
C1253 N246 2.230 . S
C1267 C130 2.190 . S
C1271 N186 2.230 . S
C1285 N216 2.231 . S
C1289 C160 2.192 . S
C1303 C181 2.192 . S
C1307 N494 2.231 1_455 S
C1321 C211 2.187 . S
C1325 N524 2.227 . S
C1339 C241 2.195 . S
C1343 N464 2.232 1_565 S
C1357 N426 2.230 1_565 S
C1361 C280 2.190 . S
C1375 N366 2.231 1_455 S
C1379 C310 2.195 . S
C1393 N396 2.230 . S
C1397 C340 2.194 . S
C1411 N134 2.227 . S
C1415 C361 2.190 . S
C1429 C391 2.190 . S
C1433 N164 2.227 . S
C1447 N104 2.231 . S
C1451 C421 2.192 . S
C1465 C460 2.194 . S
C1469 N66 2.229 . S
C1483 C490 2.193 . S
C1487 N6 2.229 . S
C1501 N36 2.231 . S
C1505 C520 2.192 . S
