# Generated by pormake.
# Topology vbj, (5)-cn, num edge types: 1
# Building blocks:
#     Node 0, Type 0, BuildingBlock: XOMCOT_clean_sbu_1, # of connection points: 5
#     Node 1, Type 0, BuildingBlock: XOMCOT_clean_sbu_1, # of connection points: 5
#     Node 2, Type 0, BuildingBlock: XOMCOT_clean_sbu_1, # of connection points: 5
#     Node 3, Type 0, BuildingBlock: XOMCOT_clean_sbu_1, # of connection points: 5
#     Node 4, Type 0, BuildingBlock: XOMCOT_clean_sbu_1, # of connection points: 5
#     Node 5, Type 0, BuildingBlock: XOMCOT_clean_sbu_1, # of connection points: 5
#     Node 6, Type 0, BuildingBlock: XOMCOT_clean_sbu_1, # of connection points: 5
#     Node 7, Type 0, BuildingBlock: XOMCOT_clean_sbu_1, # of connection points: 5
#     Node 8, Type 0, BuildingBlock: XOMCOT_clean_sbu_1, # of connection points: 5
#     Node 9, Type 0, BuildingBlock: XOMCOT_clean_sbu_1, # of connection points: 5
#     Node 10, Type 0, BuildingBlock: XOMCOT_clean_sbu_1, # of connection points: 5
#     Node 11, Type 0, BuildingBlock: XOMCOT_clean_sbu_1, # of connection points: 5
#     Node 12, Type 0, BuildingBlock: XOMCOT_clean_sbu_1, # of connection points: 5
#     Node 13, Type 0, BuildingBlock: XOMCOT_clean_sbu_1, # of connection points: 5
#     Node 14, Type 0, BuildingBlock: XOMCOT_clean_sbu_1, # of connection points: 5
#     Node 15, Type 0, BuildingBlock: XOMCOT_clean_sbu_1, # of connection points: 5
#     Edge 16, Type (0, 0), None
#     Edge 17, Type (0, 0), None
#     Edge 18, Type (0, 0), None
#     Edge 19, Type (0, 0), None
#     Edge 20, Type (0, 0), None
#     Edge 21, Type (0, 0), None
#     Edge 22, Type (0, 0), None
#     Edge 23, Type (0, 0), None
#     Edge 24, Type (0, 0), None
#     Edge 25, Type (0, 0), None
#     Edge 26, Type (0, 0), None
#     Edge 27, Type (0, 0), None
#     Edge 28, Type (0, 0), None
#     Edge 29, Type (0, 0), None
#     Edge 30, Type (0, 0), None
#     Edge 31, Type (0, 0), None
#     Edge 32, Type (0, 0), None
#     Edge 33, Type (0, 0), None
#     Edge 34, Type (0, 0), None
#     Edge 35, Type (0, 0), None
#     Edge 36, Type (0, 0), None
#     Edge 37, Type (0, 0), None
#     Edge 38, Type (0, 0), None
#     Edge 39, Type (0, 0), None
#     Edge 40, Type (0, 0), None
#     Edge 41, Type (0, 0), None
#     Edge 42, Type (0, 0), None
#     Edge 43, Type (0, 0), None
#     Edge 44, Type (0, 0), None
#     Edge 45, Type (0, 0), None
#     Edge 46, Type (0, 0), None
#     Edge 47, Type (0, 0), None
#     Edge 48, Type (0, 0), None
#     Edge 49, Type (0, 0), None
#     Edge 50, Type (0, 0), None
#     Edge 51, Type (0, 0), None
#     Edge 52, Type (0, 0), None
#     Edge 53, Type (0, 0), None
#     Edge 54, Type (0, 0), None
#     Edge 55, Type (0, 0), None
# Relax obj value: 0.090
# Max RMSD: 0.138
# Mean RMSD: 0.138
data_MOF--net-vbj--node1-XOMCOT_clean_sbu_1--edge1-none
_symmetry_space_group_name_H-M    P1
_symmetry_Int_Tables_number       1
_symmetry_cell_setting            triclinic
loop_
_symmetry_equiv_pos_as_xyz
'x, y, z'
_cell_length_a     15.466488
_cell_length_b     34.167348
_cell_length_c     19.495514
_cell_angle_alpha  89.999701
_cell_angle_beta   89.999865
_cell_angle_gamma 89.999878
loop_
_atom_site_label
_atom_site_type_symbol
_atom_site_fract_x
_atom_site_fract_y
_atom_site_fract_z
_atom_type_partial_charge
C0 C 0.01218 0.23476 0.11476 0.0
C1 C -0.01218 0.27328 0.11866 0.0
N2 N -0.03247 0.28103 0.18415 0.0
N3 N 0.00835 0.21793 0.17754 0.0
C4 C -0.01942 0.2472 0.21927 0.0
H5 H 0.02793 0.21961 1.06781 0.0
Co6 Co 0.0296 0.16332 0.18782 0.0
C7 C -0.05282 0.1391 0.31745 0.0
O8 O 0.91693 0.10956 0.28178 0.0
N9 N 0.05756 0.10723 0.19514 0.0
C10 C 0.07516 1.04367 0.16945 0.0
C11 C 0.02024 0.07564 0.16538 0.0
C12 C 0.1349 0.09272 0.21824 0.0
N13 N 0.14731 0.05455 0.20273 0.0
O14 O 0.1486 0.17406 0.20068 0.0
H15 H -0.04038 0.07598 0.13805 0.0
H16 H 0.18434 0.11019 0.24258 0.0
O17 O -0.00123 0.16392 0.28866 0.0
C18 C 0.16972 0.16929 0.13764 0.0
O19 O 0.10958 0.15978 1.09305 0.0
N20 N 0.91489 0.15542 0.16219 0.0
C21 C 0.75816 0.16942 1.09713 0.0
C22 C 0.77077 0.1805 0.16533 0.0
C23 C 0.84965 0.174 0.19645 0.0
C24 C 0.90454 0.14562 1.09467 0.0
C25 C 0.82619 0.1524 1.06084 0.0
H26 H 0.8594 0.18704 0.24612 0.0
H27 H -0.04155 0.13416 1.06577 0.0
H28 H -0.03273 0.24341 0.27335 0.0
H29 H -0.01829 0.29341 1.0761 0.0
H30 H 0.06607 1.01588 0.14427 0.0
H31 H 0.71988 0.19465 0.19447 0.0
H32 H 0.81842 0.1435 1.0079 0.0
C33 C 0.36476 0.85422 0.11412 0.0
C34 C 0.38918 0.81571 0.11811 0.0
N35 N 0.4086 0.80791 0.18375 0.0
N36 N 0.3677 0.87099 0.17698 0.0
C37 C 0.39502 0.84171 0.21886 0.0
H38 H 0.34957 0.86941 1.06709 0.0
Co39 Co 0.34601 0.92555 0.1873 0.0
C40 C 0.42825 0.94984 0.31695 0.0
O41 O 0.45827 0.97944 0.28133 0.0
N42 N 0.3176 0.98158 0.19466 0.0
C43 C 0.29949 0.04513 0.16909 0.0
C44 C 0.35463 1.01325 0.16489 0.0
C45 C 0.2402 0.99596 0.21791 0.0
N46 N 0.22747 1.0341 0.20239 0.0
O47 O 0.22709 0.91463 0.20014 0.0
H48 H 0.41522 1.01302 0.13752 0.0
H49 H 0.19101 0.97841 0.24239 0.0
O50 O 0.37682 0.92496 0.28813 0.0
C51 C 0.20598 0.9193 0.13707 0.0
O52 O 0.26612 0.92877 1.09246 0.0
N53 N 0.46065 0.93364 0.16169 0.0
C54 C 0.61742 0.91982 1.0966 0.0
C55 C 0.60489 0.90871 0.16479 0.0
C56 C 0.52598 0.91511 0.19591 0.0
C57 C 0.47095 0.94349 1.09418 0.0
C58 C 0.54932 0.93679 1.06032 0.0
H59 H 0.51627 0.90201 0.24554 0.0
H60 H 0.41697 0.9549 1.06529 0.0
H61 H 0.40758 0.84545 0.27306 0.0
H62 H 0.3959 0.79562 1.07555 0.0
H63 H 0.30835 0.07297 0.14402 0.0
H64 H 0.65584 0.89458 0.1939 0.0
H65 H 0.55705 0.94572 1.00739 0.0
C66 C 0.51216 0.85417 0.59388 0.0
C67 C 0.48779 0.81565 0.58999 0.0
N68 N 0.46752 0.8079 0.52449 0.0
N69 N 0.50835 0.871 0.5311 0.0
C70 C 0.48058 0.84173 0.48937 0.0
H71 H 0.52789 0.86932 0.64084 0.0
Co72 Co 0.5296 0.92561 0.52081 0.0
C73 C 0.44719 0.94983 0.39119 0.0
O74 O 0.41694 0.97937 0.42685 0.0
N75 N 0.55756 0.9817 0.5135 0.0
C76 C 0.57516 0.04526 0.53918 0.0
C77 C 0.52024 1.01329 0.54325 0.0
C78 C 0.63491 0.99621 0.4904 0.0
N79 N 0.64732 1.03438 0.5059 0.0
O80 O 0.6486 0.91487 0.50796 0.0
H81 H 0.45962 1.01296 0.57057 0.0
H82 H 0.68435 0.97874 0.46607 0.0
O83 O 0.49878 0.92501 0.41997 0.0
C84 C 0.66971 0.91963 0.571 0.0
O85 O 0.60957 0.92915 0.61559 0.0
N86 N 0.41489 0.93351 0.54644 0.0
C87 C 0.25816 0.91952 0.6115 0.0
C88 C 0.27077 0.90844 0.5433 0.0
C89 C 0.34965 0.91493 0.51218 0.0
C90 C 0.40454 0.94331 0.61396 0.0
C91 C 0.32619 0.93654 0.6478 0.0
H92 H 0.3594 0.90189 0.46252 0.0
H93 H 0.45845 0.95478 0.64287 0.0
H94 H 0.46728 0.84552 0.43529 0.0
H95 H 0.48167 0.79553 0.63255 0.0
H96 H 0.56608 0.07305 0.56436 0.0
H97 H 0.21988 0.89428 0.51416 0.0
H98 H 0.31842 0.94544 0.70073 0.0
C99 C 0.86474 0.23471 0.59451 0.0
C100 C 0.88916 0.27322 0.59052 0.0
N101 N 0.9086 0.28102 0.52488 0.0
N102 N 0.8677 0.21795 0.53166 0.0
C103 C 0.89503 0.24722 0.48978 0.0
H104 H 0.84955 0.21952 0.64155 0.0
Co105 Co 0.84601 0.16338 0.52134 0.0
C106 C 0.92824 0.13909 0.39169 0.0
O107 O -0.04172 0.10949 0.42731 0.0
N108 N 0.81761 0.10735 0.51398 0.0
C109 C 0.79949 1.0438 0.53955 0.0
C110 C 0.85463 0.07568 0.54375 0.0
C111 C 0.74021 0.09297 0.49073 0.0
N112 N 0.72748 0.05483 0.50625 0.0
O113 O 0.72709 0.1743 0.5085 0.0
H114 H 0.91522 0.07591 0.57112 0.0
H115 H 0.69102 0.11052 0.46625 0.0
O116 O 0.87682 0.16397 0.4205 0.0
C117 C 0.70599 0.16963 0.57157 0.0
O118 O 0.76612 0.16015 0.61618 0.0
N119 N -0.03935 0.15529 0.54695 0.0
C120 C 0.11743 0.16911 0.61204 0.0
C121 C 0.10489 0.18023 0.54384 0.0
C122 C 0.02598 0.17382 0.51272 0.0
C123 C -0.02904 0.14544 0.61446 0.0
C124 C 0.04932 0.15214 0.64831 0.0
H125 H 0.01628 0.18692 0.46309 0.0
H126 H 0.91698 0.13403 0.64335 0.0
H127 H 0.9076 0.24348 0.43558 0.0
H128 H 0.89587 0.29331 0.63308 0.0
H129 H 0.80836 1.01596 0.56462 0.0
H130 H 0.15584 0.19435 0.51473 0.0
H131 H 0.05705 0.14322 0.70124 0.0
C132 C 0.86351 0.85417 1.0939 0.0
C133 C 0.88788 0.81565 1.09 0.0
N134 N 0.90812 0.8079 1.0245 0.0
N135 N 0.8673 0.871 1.03111 0.0
C136 C 0.89505 0.84173 0.98938 0.0
H137 H 0.84779 0.86933 0.14085 0.0
Co138 Co 0.84604 0.92561 1.02082 0.0
C139 C 0.92846 0.94982 0.89119 0.0
O140 O -0.04128 0.97936 0.92685 0.0
N141 N 0.81807 0.9817 1.01349 0.0
C142 C 0.80051 0.04527 1.03913 0.0
C143 C 0.85542 1.0133 1.0432 0.0
C144 C 0.74071 0.9962 0.99041 0.0
N145 N 0.72832 1.03438 1.00589 0.0
O146 O 0.72704 0.91487 1.00796 0.0
H147 H 0.91607 1.01297 1.07049 0.0
H148 H 0.69126 0.97873 0.96611 0.0
O149 O 0.87686 0.925 0.91998 0.0
C150 C 0.70593 0.91963 1.07101 0.0
O151 O 0.76607 0.92914 0.1156 0.0
N152 N -0.03926 0.93351 1.04645 0.0
C153 C 0.11746 0.91953 0.11151 0.0
C154 C 0.10486 0.90843 1.04332 0.0
C155 C 0.02599 0.91493 1.0122 0.0
C156 C -0.0289 0.94333 0.11396 0.0
C157 C 0.04944 0.93656 0.1478 0.0
H158 H 0.01623 0.90188 0.96254 0.0
H159 H 0.91719 0.9548 0.14286 0.0
H160 H 0.90833 0.84552 0.93529 0.0
H161 H 0.89401 0.79553 0.13256 0.0
H162 H 0.80962 0.07306 1.06427 0.0
H163 H 0.15575 0.89427 1.01419 0.0
H164 H 0.05722 0.94547 0.20073 0.0
C165 C 0.51083 0.23471 1.09453 0.0
C166 C 0.48641 0.27322 1.09054 0.0
N167 N 0.46702 0.28102 1.0249 0.0
N168 N 0.50792 0.21795 1.03167 0.0
C169 C 0.48062 0.24723 0.98979 0.0
H170 H 0.52599 0.21952 0.14157 0.0
Co171 Co 0.52963 0.16339 1.02135 0.0
C172 C 0.44738 0.13911 0.89169 0.0
O173 O 0.41735 0.1095 0.92731 0.0
N174 N 0.55805 0.10736 1.01398 0.0
C175 C 0.57613 1.0438 1.03949 0.0
C176 C 0.52099 0.07568 1.04369 0.0
C177 C 0.63546 0.09299 0.99075 0.0
N178 N 0.64817 0.05484 1.00624 0.0
O179 O 0.64854 0.17432 1.00851 0.0
H180 H 0.46037 0.0759 1.07103 0.0
H181 H 0.68467 0.11053 0.9663 0.0
O182 O 0.49882 0.16398 0.92051 0.0
C183 C 0.66964 0.16965 1.07157 0.0
O184 O 0.60951 0.16018 0.11619 0.0
N185 N 0.41499 0.15529 1.04696 0.0
C186 C 0.25822 0.1691 0.11205 0.0
C187 C 0.27075 0.18023 1.04386 0.0
C188 C 0.34966 0.17383 1.01274 0.0
C189 C 0.40468 0.14543 0.11446 0.0
C190 C 0.32632 0.15212 0.14832 0.0
H191 H 0.35937 0.18693 0.96312 0.0
H192 H 0.45866 0.13401 0.14334 0.0
H193 H 0.46809 0.24349 0.93559 0.0
H194 H 0.47966 0.29331 0.13311 0.0
H195 H 0.56723 1.01595 1.06452 0.0
H196 H 0.2198 0.19436 1.01476 0.0
H197 H 0.31859 0.14318 0.20124 0.0
C198 C 0.36353 0.23476 0.61474 0.0
C199 C 0.3879 0.27328 0.61863 0.0
N200 N 0.40813 0.28103 0.68413 0.0
N201 N 0.36731 0.21794 0.67752 0.0
C202 C 0.39505 0.2472 0.71926 0.0
H203 H 0.34783 0.2196 0.56778 0.0
Co204 Co 0.34604 0.16333 0.68782 0.0
C205 C 0.42845 0.13911 0.81745 0.0
O206 O 0.45871 0.10957 0.78179 0.0
N207 N 0.31806 0.10724 0.69514 0.0
C208 C 0.3005 1.04367 0.66952 0.0
C209 C 0.35542 0.07564 0.66544 0.0
C210 C 0.2407 0.09274 0.71822 0.0
N211 N 0.22831 0.05456 0.70275 0.0
O212 O 0.22704 0.17407 0.70067 0.0
H213 H 0.41607 0.07597 0.63816 0.0
H214 H 0.19124 0.11021 0.74252 0.0
O215 O 0.37686 0.16393 0.78866 0.0
C216 C 0.20593 0.16931 0.63762 0.0
O217 O 0.26607 0.1598 0.59304 0.0
N218 N 0.46074 0.15542 0.66219 0.0
C219 C 0.61746 0.1694 0.59713 0.0
C220 C 0.60487 0.1805 0.66532 0.0
C221 C 0.52599 0.174 0.69644 0.0
C222 C 0.4711 0.1456 0.59468 0.0
C223 C 0.54944 0.15237 0.56084 0.0
H224 H 0.51623 0.18705 0.7461 0.0
H225 H 0.41719 0.13413 0.56578 0.0
H226 H 0.40832 0.24342 0.77334 0.0
H227 H 0.39405 0.2934 0.57607 0.0
H228 H 0.30962 1.01587 0.64438 0.0
H229 H 0.65576 0.19466 0.69445 0.0
H230 H 0.55722 0.14346 0.50791 0.0
C231 C 0.01085 0.85422 0.61411 0.0
C232 C -0.01357 0.81571 0.6181 0.0
N233 N -0.03298 0.80791 0.68374 0.0
N234 N 0.00792 0.87098 0.67697 0.0
C235 C -0.01939 0.8417 0.71885 0.0
H236 H 0.02602 0.86942 0.56707 0.0
Co237 Co 0.02962 0.92555 0.68729 0.0
C238 C -0.05261 0.94983 0.81695 0.0
O239 O 0.91734 0.97943 0.78133 0.0
N240 N 0.05804 0.98158 0.69466 0.0
C241 C 0.07612 0.04514 0.66914 0.0
C242 C 0.02099 1.01325 0.66494 0.0
C243 C 0.13545 0.99595 0.71789 0.0
N244 N 0.14816 1.0341 0.7024 0.0
O245 O 0.14854 0.91462 0.70013 0.0
H246 H -0.03963 1.01303 0.6376 0.0
H247 H 0.18466 0.97841 0.74234 0.0
O248 O -0.00118 0.92496 0.78813 0.0
C249 C 0.16964 0.91929 0.63706 0.0
O250 O 0.10951 0.92877 0.59245 0.0
N251 N 0.91499 0.93365 0.66168 0.0
C252 C 0.75822 0.91983 0.59659 0.0
C253 C 0.77075 0.90871 0.66478 0.0
C254 C 0.84965 0.91511 0.69591 0.0
C255 C 0.90468 0.94351 0.59418 0.0
C256 C 0.82632 0.93681 0.56032 0.0
H257 H 0.85936 0.90201 0.74553 0.0
H258 H -0.04134 0.95492 0.56529 0.0
H259 H -0.03193 0.84544 0.77305 0.0
H260 H -0.02031 0.79563 0.57554 0.0
H261 H 0.06722 0.07299 0.64411 0.0
H262 H 0.7198 0.89457 0.69388 0.0
H263 H 0.81858 0.94574 0.50739 0.0
C264 C 0.51407 0.72884 0.27001 0.0
C265 C 0.48473 0.76695 0.26853 0.0
N266 N 0.44475 0.77253 0.20819 0.0
N267 N 0.49254 0.71045 0.21093 0.0
C268 C 0.45081 0.73814 0.17389 0.0
H269 H 0.54963 0.71546 0.31163 0.0
Co270 Co 0.5181 0.65736 0.19077 0.0
C271 C 0.44914 0.61646 0.31717 0.0
O272 O 0.42428 0.58682 0.27913 0.0
N273 N 0.55006 0.60322 0.17332 0.0
C274 C 0.58466 0.54705 0.12044 0.0
C275 C 0.5255 0.57739 0.12431 0.0
C276 C 0.62353 0.58671 0.19956 0.0
N277 N 0.64599 0.55301 0.16808 0.0
O278 O 0.63888 0.6676 0.20319 0.0
H279 H 0.4722 0.58123 1.08941 0.0
H280 H 0.66423 0.60061 0.2375 0.0
O281 O 0.49165 0.64477 0.28966 0.0
C282 C 0.65768 0.67481 0.14017 0.0
O283 O 0.59387 0.68317 1.09813 0.0
N284 N 0.40243 0.65029 0.16308 0.0
C285 C 0.2433 0.66614 1.09976 0.0
C286 C 0.2523 0.66684 0.17177 0.0
C287 C 0.33227 0.65928 0.20236 0.0
C288 C 0.39473 0.64939 1.09312 0.0
C289 C 0.31553 0.65636 1.06043 0.0
H290 H 0.33878 0.6642 0.25676 0.0
H291 H 0.45179 0.64589 1.06176 0.0
H292 H 0.42523 0.73308 0.12304 0.0
H293 H 0.49389 0.78891 0.30783 0.0
H294 H 0.58599 0.52405 1.08226 0.0
H295 H 0.19858 0.67457 0.20471 0.0
H296 H 0.31193 0.6557 1.00497 0.0
C297 C 0.86114 0.36006 0.26983 0.0
C298 C 0.89056 0.32197 0.26851 0.0
N299 N 0.93105 0.31639 0.20837 0.0
N300 N 0.8831 0.37846 0.21086 0.0
C301 C 0.92518 0.35078 0.17403 0.0
H302 H 0.82524 0.37343 0.31127 0.0
Co303 Co 0.85753 0.43155 0.19068 0.0
C304 C 0.92648 0.47246 0.31706 0.0
O305 O -0.04867 0.50209 0.279 0.0
N306 N 0.82555 0.4857 0.17324 0.0
C307 C 0.79069 0.54183 0.12031 0.0
C308 C 0.84996 0.51153 0.12418 0.0
C309 C 0.75209 0.50217 0.19955 0.0
N310 N 0.72941 0.5358 0.16796 0.0
O311 O 0.73675 0.4213 0.20308 0.0
H312 H 0.90325 0.50772 1.08925 0.0
H313 H 0.71152 0.48826 0.23758 0.0
O314 O 0.88397 0.44414 0.28957 0.0
C315 C 0.71795 0.41409 0.14006 0.0
O316 O 0.78177 0.40573 1.09802 0.0
N317 N -0.0268 0.43863 0.16299 0.0
C318 C 0.13233 0.42282 1.09965 0.0
C319 C 0.12333 0.4221 0.17166 0.0
C320 C 0.04336 0.42965 0.20226 0.0
C321 C -0.01911 0.43955 1.09303 0.0
C322 C 0.06009 0.4326 1.06033 0.0
H323 H 0.03686 0.42472 0.25666 0.0
H324 H 0.92383 0.44306 1.06168 0.0
H325 H -0.04882 0.35586 0.12331 0.0
H326 H 0.88115 0.30001 0.30777 0.0
H327 H 0.78925 0.56483 1.08214 0.0
H328 H 0.17706 0.41437 0.2046 0.0
H329 H 0.06369 0.43327 1.00487 0.0
C330 C 0.01407 0.36009 0.43863 0.0
C331 C -0.01526 0.32198 0.4401 0.0
N332 N -0.05525 0.3164 0.50045 0.0
N333 N -0.00745 0.37848 0.4977 0.0
C334 C -0.04919 0.35079 0.53475 0.0
H335 H 0.04964 0.37347 0.39701 0.0
Co336 Co 0.0181 0.43157 0.51787 0.0
C337 C -0.05086 0.47247 0.39147 0.0
O338 O 0.92428 0.50211 0.4295 0.0
N339 N 0.05007 0.48571 0.53531 0.0
C340 C 0.08466 0.54188 0.5882 0.0
C341 C 0.0255 0.51154 0.58432 0.0
C342 C 0.12353 0.50222 0.50907 0.0
N343 N 0.14599 0.53592 0.54055 0.0
O344 O 0.13888 0.42133 0.50544 0.0
H345 H -0.02781 0.50771 0.61922 0.0
H346 H 0.16424 0.48832 0.47114 0.0
O347 O -0.00834 0.44416 0.41898 0.0
C348 C 0.15768 0.41412 0.56846 0.0
O349 O 0.09387 0.40576 0.6105 0.0
N350 N 0.90243 0.43864 0.54556 0.0
C351 C 0.7433 0.42279 0.60888 0.0
C352 C 0.7523 0.42209 0.53687 0.0
C353 C 0.83227 0.42965 0.50628 0.0
C354 C 0.89473 0.43954 0.61552 0.0
C355 C 0.81553 0.43257 0.6482 0.0
H356 H 0.83879 0.42472 0.45188 0.0
H357 H -0.0482 0.44304 0.64687 0.0
H358 H 0.92523 0.35585 0.5856 0.0
H359 H -0.00611 0.30002 0.40081 0.0
H360 H 0.08598 0.56489 0.62637 0.0
H361 H 0.69858 0.41436 0.50393 0.0
H362 H 0.81194 0.43323 0.70367 0.0
C363 C 0.36115 0.72887 0.43881 0.0
C364 C 0.39056 0.76696 0.44013 0.0
N365 N 0.43104 0.77254 0.50027 0.0
N366 N 0.3831 0.71047 0.49778 0.0
C367 C 0.42518 0.73815 0.53461 0.0
H368 H 0.32525 0.7155 0.39736 0.0
Co369 Co 0.35753 0.65738 0.51796 0.0
C370 C 0.42648 0.61647 0.39158 0.0
O371 O 0.45132 0.58684 0.42963 0.0
N372 N 0.32555 0.60324 0.5354 0.0
C373 C 0.29069 0.54711 0.58832 0.0
C374 C 0.34996 0.5774 0.58446 0.0
C375 C 0.25209 0.58676 0.50909 0.0
N376 N 0.22941 0.55313 0.54067 0.0
O377 O 0.23675 0.66763 0.50555 0.0
H378 H 0.40325 0.58121 0.61939 0.0
H379 H 0.21152 0.60067 0.47106 0.0
O380 O 0.38397 0.64479 0.41907 0.0
C381 C 0.21795 0.67484 0.56857 0.0
O382 O 0.28177 0.6832 0.61061 0.0
N383 N 0.4732 0.6503 0.54565 0.0
C384 C 0.63233 0.66612 0.60899 0.0
C385 C 0.62333 0.66683 0.53698 0.0
C386 C 0.54336 0.65928 0.50638 0.0
C387 C 0.48089 0.64938 0.61561 0.0
C388 C 0.56009 0.65633 0.6483 0.0
H389 H 0.53686 0.66421 0.45198 0.0
H390 H 0.42382 0.64588 0.64696 0.0
H391 H 0.45117 0.73308 0.58533 0.0
H392 H 0.38116 0.78892 0.40086 0.0
H393 H 0.28925 0.5241 0.62649 0.0
H394 H 0.67706 0.67457 0.50404 0.0
H395 H 0.56368 0.65567 0.70377 0.0
C396 C 0.36157 0.3601 0.93863 0.0
C397 C 0.3909 0.32199 0.94011 0.0
N398 N 0.43087 0.3164 1.00046 0.0
N399 N 0.38309 0.37849 0.99771 0.0
C400 C 0.42481 0.3508 1.03476 0.0
H401 H 0.32601 0.37348 0.897 0.0
Co402 Co 0.35753 0.43158 1.01787 0.0
C403 C 0.42649 0.47248 0.89147 0.0
O404 O 0.45136 0.50211 0.9295 0.0
N405 N 0.32557 0.48572 1.03531 0.0
C406 C 0.29096 0.54188 1.08821 0.0
C407 C 0.35012 0.51155 1.08434 0.0
C408 C 0.25211 0.50223 1.00907 0.0
N409 N 0.22964 0.53593 1.04055 0.0
O410 O 0.23675 0.42134 1.00545 0.0
H411 H 0.40342 0.50771 0.11924 0.0
H412 H 0.21142 0.48833 0.97112 0.0
O413 O 0.38398 0.44417 0.91898 0.0
C414 C 0.21796 0.41414 1.06847 0.0
O415 O 0.28177 0.40577 0.11052 0.0
N416 N 0.4732 0.43864 1.04556 0.0
C417 C 0.63233 0.42279 0.10888 0.0
C418 C 0.62333 0.42209 1.03688 0.0
C419 C 0.54336 0.42966 1.00628 0.0
C420 C 0.4809 0.43954 0.11552 0.0
C421 C 0.5601 0.43257 0.14821 0.0
H422 H 0.53685 0.42473 0.95188 0.0
H423 H 0.42384 0.44305 0.14687 0.0
H424 H 0.45039 0.35586 1.08561 0.0
H425 H 0.38175 0.30003 0.90081 0.0
H426 H 0.28963 0.56488 0.12639 0.0
H427 H 0.67705 0.41436 1.00393 0.0
H428 H 0.56369 0.43323 0.20367 0.0
C429 C 0.01448 0.72887 0.93881 0.0
C430 C -0.01493 0.76696 0.94014 0.0
N431 N -0.05541 0.77254 1.00028 0.0
N432 N -0.00746 0.71047 0.99778 0.0
C433 C -0.04954 0.73815 1.03462 0.0
H434 H 0.05038 0.7155 0.89736 0.0
Co435 Co 0.0181 0.65737 1.01796 0.0
C436 C -0.05085 0.61647 0.89158 0.0
O437 O 0.9243 0.58684 0.92963 0.0
N438 N 0.05007 0.60323 1.0354 0.0
C439 C 0.08495 0.54711 1.08833 0.0
C440 C 0.02567 0.5774 1.08447 0.0
C441 C 0.12353 0.58676 1.00908 0.0
N442 N 0.14622 0.55313 1.04068 0.0
O443 O 0.13888 0.66763 1.00556 0.0
H444 H -0.02761 0.58122 0.11941 0.0
H445 H 0.16409 0.60067 0.97105 0.0
O446 O -0.00834 0.64479 0.91907 0.0
C447 C 0.15767 0.67483 1.06858 0.0
O448 O 0.09386 0.6832 0.11062 0.0
N449 N 0.90243 0.6503 1.04565 0.0
C450 C 0.7433 0.66612 0.10899 0.0
C451 C 0.7523 0.66684 1.03698 0.0
C452 C 0.83227 0.65928 1.00638 0.0
C453 C 0.89474 0.64938 0.11561 0.0
C454 C 0.81554 0.65634 0.14831 0.0
H455 H 0.83877 0.66422 0.95198 0.0
H456 H -0.04819 0.64588 0.14696 0.0
H457 H 0.92448 0.73308 1.08534 0.0
H458 H -0.00553 0.78892 0.90087 0.0
H459 H 0.0864 0.5241 0.12651 0.0
H460 H 0.69857 0.67457 1.00405 0.0
H461 H 0.81195 0.65567 0.20377 0.0
C462 C 0.86156 0.72884 0.77001 0.0
C463 C 0.8909 0.76695 0.76853 0.0
N464 N 0.93087 0.77253 0.70818 0.0
N465 N 0.88308 0.71045 0.71093 0.0
C466 C 0.92481 0.73814 0.67388 0.0
H467 H 0.82601 0.71546 0.81163 0.0
Co468 Co 0.85753 0.65736 0.69077 0.0
C469 C 0.92649 0.61646 0.81717 0.0
O470 O -0.04864 0.58682 0.77913 0.0
N471 N 0.82557 0.60321 0.67332 0.0
C472 C 0.79097 0.54706 0.62043 0.0
C473 C 0.85013 0.57739 0.6243 0.0
C474 C 0.75211 0.5867 0.69957 0.0
N475 N 0.72964 0.55301 0.66808 0.0
O476 O 0.73675 0.6676 0.70319 0.0
H477 H 0.90343 0.58123 0.5894 0.0
H478 H 0.71141 0.60061 0.73751 0.0
O479 O 0.88398 0.64477 0.78966 0.0
C480 C 0.71796 0.6748 0.64016 0.0
O481 O 0.78176 0.68317 0.59812 0.0
N482 N -0.0268 0.6503 0.66308 0.0
C483 C 0.13233 0.66614 0.59975 0.0
C484 C 0.12333 0.66685 0.67176 0.0
C485 C 0.04336 0.65928 0.70235 0.0
C486 C -0.0191 0.64939 0.59312 0.0
C487 C 0.06009 0.65636 0.56043 0.0
H488 H 0.03685 0.66421 0.75676 0.0
H489 H 0.92383 0.64589 0.56176 0.0
H490 H -0.04961 0.73308 0.62303 0.0
H491 H 0.88175 0.78891 0.80782 0.0
H492 H 0.78963 0.52405 0.58225 0.0
H493 H 0.17705 0.67458 0.7047 0.0
H494 H 0.06369 0.65571 0.50497 0.0
C495 C 0.51448 0.36007 0.76983 0.0
C496 C 0.48507 0.32197 0.7685 0.0
N497 N 0.4446 0.3164 0.70836 0.0
N498 N 0.49254 0.37847 0.71085 0.0
C499 C 0.45047 0.35079 0.67402 0.0
H500 H 0.55037 0.37344 0.81128 0.0
Co501 Co 0.5181 0.43156 0.69067 0.0
C502 C 0.44915 0.47247 0.81705 0.0
O503 O 0.4243 0.5021 0.779 0.0
N504 N 0.55008 0.4857 0.67324 0.0
C505 C 0.58495 0.54183 0.6203 0.0
C506 C 0.52567 0.51153 0.62416 0.0
C507 C 0.62353 0.50218 0.69955 0.0
N508 N 0.64622 0.5358 0.66796 0.0
O509 O 0.63888 0.42131 0.70308 0.0
H510 H 0.4724 0.50772 0.58923 0.0
H511 H 0.66409 0.48827 0.73759 0.0
O512 O 0.49165 0.44415 0.78957 0.0
C513 C 0.65767 0.41411 0.64005 0.0
O514 O 0.59386 0.40574 0.59801 0.0
N515 N 0.40243 0.43864 0.66299 0.0
C516 C 0.24331 0.42281 0.59965 0.0
C517 C 0.2523 0.4221 0.67165 0.0
C518 C 0.33227 0.42966 0.70225 0.0
C519 C 0.39474 0.43956 0.59302 0.0
C520 C 0.31554 0.4326 0.56033 0.0
H521 H 0.33877 0.42472 0.75665 0.0
H522 H 0.45181 0.44306 0.56167 0.0
H523 H 0.42449 0.35586 0.6233 0.0
H524 H 0.49447 0.30002 0.80777 0.0
H525 H 0.5864 0.56483 0.58212 0.0
H526 H 0.19858 0.41436 0.70459 0.0
H527 H 0.31195 0.43326 0.50486 0.0
loop_
_geom_bond_atom_site_label_1
_geom_bond_atom_site_label_2
_geom_bond_distance
_geom_bond_site_symmetry_2
_ccdc_geom_bond_type
C0 C1 1.351 . S
C0 N3 1.368 . S
C0 H5 0.931 . S
C1 C0 1.351 . S
C1 N2 1.373 . S
C1 H29 0.930 . S
N2 C1 1.373 . S
N2 C4 1.340 . S
N3 C0 1.368 . S
N3 C4 1.321 . S
N3 Co6 2.135 . S
C4 N2 1.340 . S
C4 N3 1.321 . S
C4 H28 0.930 . S
H5 C0 0.931 . S
Co6 N3 2.135 . S
Co6 N9 2.121 . S
Co6 O14 2.055 . S
Co6 O17 2.039 . S
Co6 N20 2.140 1_455 S
C7 O8 1.227 1_455 S
C7 O17 1.265 . S
O8 C7 1.227 1_655 S
N9 Co6 2.121 . S
N9 C11 1.375 . S
N9 C12 1.313 . S
C10 C11 1.338 . S
C10 N13 1.377 . S
C10 H30 0.930 1_545 S
C11 N9 1.375 . S
C11 C10 1.338 . S
C11 H15 0.931 . S
C12 N9 1.313 . S
C12 N13 1.344 . S
C12 H16 0.930 . S
N13 C10 1.377 . S
N13 C12 1.344 . S
O14 Co6 2.055 . S
O14 C18 1.253 . S
H15 C11 0.931 . S
H16 C12 0.930 . S
O17 Co6 2.039 . S
O17 C7 1.265 . S
C18 O14 1.253 . S
C18 O19 1.227 . S
O19 C18 1.227 . S
N20 Co6 2.140 1_655 S
N20 C23 1.346 . S
N20 C24 1.345 . S
C21 C22 1.387 . S
C21 C25 1.391 1_554 S
C22 C21 1.387 . S
C22 C23 1.369 . S
C22 H31 0.929 . S
C23 N20 1.346 . S
C23 C22 1.369 . S
C23 H26 0.928 . S
C24 N20 1.345 . S
C24 C25 1.371 1_554 S
C24 H27 0.931 1_655 S
C25 C21 1.391 1_556 S
C25 C24 1.371 1_556 S
C25 H32 0.930 . S
H26 C23 0.928 . S
H27 C24 0.931 1_455 S
H28 C4 0.930 . S
H29 C1 0.930 . S
H30 C10 0.930 1_565 S
H31 C22 0.929 . S
H32 C25 0.930 . S
C33 C34 1.351 . S
C33 N36 1.368 . S
C33 H38 0.931 . S
C34 C33 1.351 . S
C34 N35 1.373 . S
C34 H62 0.930 . S
N35 C34 1.373 . S
N35 C37 1.340 . S
N36 C33 1.368 . S
N36 C37 1.321 . S
N36 Co39 2.135 . S
C37 N35 1.340 . S
C37 N36 1.321 . S
C37 H61 0.930 . S
H38 C33 0.931 . S
Co39 N36 2.135 . S
Co39 N42 2.121 . S
Co39 O47 2.055 . S
Co39 O50 2.039 . S
Co39 N53 2.140 . S
C40 O41 1.227 . S
C40 O50 1.265 . S
O41 C40 1.227 . S
N42 Co39 2.121 . S
N42 C44 1.375 . S
N42 C45 1.313 . S
C43 C44 1.338 . S
C43 N46 1.377 . S
C43 H63 0.930 1_565 S
C44 N42 1.375 . S
C44 C43 1.338 . S
C44 H48 0.931 . S
C45 N42 1.313 . S
C45 N46 1.344 . S
C45 H49 0.930 . S
N46 C43 1.377 . S
N46 C45 1.344 . S
O47 Co39 2.055 . S
O47 C51 1.253 . S
H48 C44 0.931 . S
H49 C45 0.930 . S
O50 Co39 2.039 . S
O50 C40 1.265 . S
C51 O47 1.253 . S
C51 O52 1.227 . S
O52 C51 1.227 . S
N53 Co39 2.140 . S
N53 C56 1.346 . S
N53 C57 1.345 . S
C54 C55 1.387 . S
C54 C58 1.391 1_554 S
C55 C54 1.387 . S
C55 C56 1.369 . S
C55 H64 0.929 . S
C56 N53 1.346 . S
C56 C55 1.369 . S
C56 H59 0.928 . S
C57 N53 1.345 . S
C57 C58 1.371 1_554 S
C57 H60 0.931 . S
C58 C54 1.391 1_556 S
C58 C57 1.371 1_556 S
C58 H65 0.930 . S
H59 C56 0.928 . S
H60 C57 0.931 . S
H61 C37 0.930 . S
H62 C34 0.930 . S
H63 C43 0.930 1_545 S
H64 C55 0.929 . S
H65 C58 0.930 . S
C66 C67 1.351 . S
C66 N69 1.368 . S
C66 H71 0.931 . S
C67 C66 1.351 . S
C67 N68 1.373 . S
C67 H95 0.930 . S
N68 C67 1.373 . S
N68 C70 1.340 . S
N69 C66 1.368 . S
N69 C70 1.321 . S
N69 Co72 2.135 . S
C70 N68 1.340 . S
C70 N69 1.321 . S
C70 H94 0.930 . S
H71 C66 0.931 . S
Co72 N69 2.135 . S
Co72 N75 2.121 . S
Co72 O80 2.055 . S
Co72 O83 2.039 . S
Co72 N86 2.140 . S
C73 O74 1.227 . S
C73 O83 1.265 . S
O74 C73 1.227 . S
N75 Co72 2.121 . S
N75 C77 1.375 . S
N75 C78 1.313 . S
C76 C77 1.338 . S
C76 N79 1.377 . S
C76 H96 0.930 1_565 S
C77 N75 1.375 . S
C77 C76 1.338 . S
C77 H81 0.931 . S
C78 N75 1.313 . S
C78 N79 1.344 . S
C78 H82 0.930 . S
N79 C76 1.377 . S
N79 C78 1.344 . S
O80 Co72 2.055 . S
O80 C84 1.253 . S
H81 C77 0.931 . S
H82 C78 0.930 . S
O83 Co72 2.039 . S
O83 C73 1.265 . S
C84 O80 1.253 . S
C84 O85 1.227 . S
O85 C84 1.227 . S
N86 Co72 2.140 . S
N86 C89 1.346 . S
N86 C90 1.345 . S
C87 C88 1.387 . S
C87 C91 1.391 . S
C88 C87 1.387 . S
C88 C89 1.369 . S
C88 H97 0.929 . S
C89 N86 1.346 . S
C89 C88 1.369 . S
C89 H92 0.928 . S
C90 N86 1.345 . S
C90 C91 1.371 . S
C90 H93 0.931 . S
C91 C87 1.391 . S
C91 C90 1.371 . S
C91 H98 0.930 . S
H92 C89 0.928 . S
H93 C90 0.931 . S
H94 C70 0.930 . S
H95 C67 0.930 . S
H96 C76 0.930 1_545 S
H97 C88 0.929 . S
H98 C91 0.930 . S
C99 C100 1.351 . S
C99 N102 1.368 . S
C99 H104 0.931 . S
C100 C99 1.351 . S
C100 N101 1.373 . S
C100 H128 0.930 . S
N101 C100 1.373 . S
N101 C103 1.340 . S
N102 C99 1.368 . S
N102 C103 1.321 . S
N102 Co105 2.135 . S
C103 N101 1.340 . S
C103 N102 1.321 . S
C103 H127 0.930 . S
H104 C99 0.931 . S
Co105 N102 2.135 . S
Co105 N108 2.121 . S
Co105 O113 2.055 . S
Co105 O116 2.039 . S
Co105 N119 2.140 1_655 S
C106 O107 1.227 1_655 S
C106 O116 1.265 . S
O107 C106 1.227 1_455 S
N108 Co105 2.121 . S
N108 C110 1.375 . S
N108 C111 1.313 . S
C109 C110 1.338 . S
C109 N112 1.377 . S
C109 H129 0.930 1_545 S
C110 N108 1.375 . S
C110 C109 1.338 . S
C110 H114 0.931 . S
C111 N108 1.313 . S
C111 N112 1.344 . S
C111 H115 0.930 . S
N112 C109 1.377 . S
N112 C111 1.344 . S
O113 Co105 2.055 . S
O113 C117 1.253 . S
H114 C110 0.931 . S
H115 C111 0.930 . S
O116 Co105 2.039 . S
O116 C106 1.265 . S
C117 O113 1.253 . S
C117 O118 1.227 . S
O118 C117 1.227 . S
N119 Co105 2.140 1_455 S
N119 C122 1.346 . S
N119 C123 1.345 . S
C120 C121 1.387 . S
C120 C124 1.391 . S
C121 C120 1.387 . S
C121 C122 1.369 . S
C121 H130 0.929 . S
C122 N119 1.346 . S
C122 C121 1.369 . S
C122 H125 0.928 . S
C123 N119 1.345 . S
C123 C124 1.371 . S
C123 H126 0.931 1_455 S
C124 C120 1.391 . S
C124 C123 1.371 . S
C124 H131 0.930 . S
H125 C122 0.928 . S
H126 C123 0.931 1_655 S
H127 C103 0.930 . S
H128 C100 0.930 . S
H129 C109 0.930 1_565 S
H130 C121 0.929 . S
H131 C124 0.930 . S
C132 C133 1.351 . S
C132 N135 1.368 . S
C132 H137 0.931 . S
C133 C132 1.351 . S
C133 N134 1.373 . S
C133 H161 0.930 . S
N134 C133 1.373 . S
N134 C136 1.340 . S
N135 C132 1.368 . S
N135 C136 1.321 . S
N135 Co138 2.135 . S
C136 N134 1.340 . S
C136 N135 1.321 . S
C136 H160 0.930 . S
H137 C132 0.931 . S
Co138 N135 2.135 . S
Co138 N141 2.121 . S
Co138 O146 2.055 . S
Co138 O149 2.039 . S
Co138 N152 2.140 1_655 S
C139 O140 1.227 1_655 S
C139 O149 1.265 . S
O140 C139 1.227 1_455 S
N141 Co138 2.121 . S
N141 C143 1.375 . S
N141 C144 1.313 . S
C142 C143 1.338 . S
C142 N145 1.377 . S
C142 H162 0.930 1_565 S
C143 N141 1.375 . S
C143 C142 1.338 . S
C143 H147 0.931 . S
C144 N141 1.313 . S
C144 N145 1.344 . S
C144 H148 0.930 . S
N145 C142 1.377 . S
N145 C144 1.344 . S
O146 Co138 2.055 . S
O146 C150 1.253 . S
H147 C143 0.931 . S
H148 C144 0.930 . S
O149 Co138 2.039 . S
O149 C139 1.265 . S
C150 O146 1.253 . S
C150 O151 1.227 . S
O151 C150 1.227 . S
N152 Co138 2.140 1_455 S
N152 C155 1.346 . S
N152 C156 1.345 . S
C153 C154 1.387 . S
C153 C157 1.391 1_556 S
C154 C153 1.387 . S
C154 C155 1.369 . S
C154 H163 0.929 . S
C155 N152 1.346 . S
C155 C154 1.369 . S
C155 H158 0.928 . S
C156 N152 1.345 . S
C156 C157 1.371 1_556 S
C156 H159 0.931 1_455 S
C157 C153 1.391 1_554 S
C157 C156 1.371 1_554 S
C157 H164 0.930 . S
H158 C155 0.928 . S
H159 C156 0.931 1_655 S
H160 C136 0.930 . S
H161 C133 0.930 . S
H162 C142 0.930 1_545 S
H163 C154 0.929 . S
H164 C157 0.930 . S
C165 C166 1.351 . S
C165 N168 1.368 . S
C165 H170 0.931 . S
C166 C165 1.351 . S
C166 N167 1.373 . S
C166 H194 0.930 . S
N167 C166 1.373 . S
N167 C169 1.340 . S
N168 C165 1.368 . S
N168 C169 1.321 . S
N168 Co171 2.135 . S
C169 N167 1.340 . S
C169 N168 1.321 . S
C169 H193 0.930 . S
H170 C165 0.931 . S
Co171 N168 2.135 . S
Co171 N174 2.121 . S
Co171 O179 2.055 . S
Co171 O182 2.039 . S
Co171 N185 2.140 . S
C172 O173 1.227 . S
C172 O182 1.265 . S
O173 C172 1.227 . S
N174 Co171 2.121 . S
N174 C176 1.375 . S
N174 C177 1.313 . S
C175 C176 1.338 . S
C175 N178 1.377 . S
C175 H195 0.930 1_545 S
C176 N174 1.375 . S
C176 C175 1.338 . S
C176 H180 0.931 . S
C177 N174 1.313 . S
C177 N178 1.344 . S
C177 H181 0.930 . S
N178 C175 1.377 . S
N178 C177 1.344 . S
O179 Co171 2.055 . S
O179 C183 1.253 . S
H180 C176 0.931 . S
H181 C177 0.930 . S
O182 Co171 2.039 . S
O182 C172 1.265 . S
C183 O179 1.253 . S
C183 O184 1.227 . S
O184 C183 1.227 . S
N185 Co171 2.140 . S
N185 C188 1.346 . S
N185 C189 1.345 . S
C186 C187 1.387 . S
C186 C190 1.391 1_556 S
C187 C186 1.387 . S
C187 C188 1.369 . S
C187 H196 0.929 . S
C188 N185 1.346 . S
C188 C187 1.369 . S
C188 H191 0.928 . S
C189 N185 1.345 . S
C189 C190 1.371 1_556 S
C189 H192 0.931 . S
C190 C186 1.391 1_554 S
C190 C189 1.371 1_554 S
C190 H197 0.930 . S
H191 C188 0.928 . S
H192 C189 0.931 . S
H193 C169 0.930 . S
H194 C166 0.930 . S
H195 C175 0.930 1_565 S
H196 C187 0.929 . S
H197 C190 0.930 . S
C198 C199 1.351 . S
C198 N201 1.368 . S
C198 H203 0.931 . S
C199 C198 1.351 . S
C199 N200 1.373 . S
C199 H227 0.930 . S
N200 C199 1.373 . S
N200 C202 1.340 . S
N201 C198 1.368 . S
N201 C202 1.321 . S
N201 Co204 2.135 . S
C202 N200 1.340 . S
C202 N201 1.321 . S
C202 H226 0.930 . S
H203 C198 0.931 . S
Co204 N201 2.135 . S
Co204 N207 2.121 . S
Co204 O212 2.055 . S
Co204 O215 2.039 . S
Co204 N218 2.140 . S
C205 O206 1.227 . S
C205 O215 1.265 . S
O206 C205 1.227 . S
N207 Co204 2.121 . S
N207 C209 1.375 . S
N207 C210 1.313 . S
C208 C209 1.338 . S
C208 N211 1.377 . S
C208 H228 0.930 1_545 S
C209 N207 1.375 . S
C209 C208 1.338 . S
C209 H213 0.931 . S
C210 N207 1.313 . S
C210 N211 1.344 . S
C210 H214 0.930 . S
N211 C208 1.377 . S
N211 C210 1.344 . S
O212 Co204 2.055 . S
O212 C216 1.253 . S
H213 C209 0.931 . S
H214 C210 0.930 . S
O215 Co204 2.039 . S
O215 C205 1.265 . S
C216 O212 1.253 . S
C216 O217 1.227 . S
O217 C216 1.227 . S
N218 Co204 2.140 . S
N218 C221 1.346 . S
N218 C222 1.345 . S
C219 C220 1.387 . S
C219 C223 1.391 . S
C220 C219 1.387 . S
C220 C221 1.369 . S
C220 H229 0.929 . S
C221 N218 1.346 . S
C221 C220 1.369 . S
C221 H224 0.928 . S
C222 N218 1.345 . S
C222 C223 1.371 . S
C222 H225 0.931 . S
C223 C219 1.391 . S
C223 C222 1.371 . S
C223 H230 0.930 . S
H224 C221 0.928 . S
H225 C222 0.931 . S
H226 C202 0.930 . S
H227 C199 0.930 . S
H228 C208 0.930 1_565 S
H229 C220 0.929 . S
H230 C223 0.930 . S
C231 C232 1.351 . S
C231 N234 1.368 . S
C231 H236 0.931 . S
C232 C231 1.351 . S
C232 N233 1.373 . S
C232 H260 0.930 . S
N233 C232 1.373 . S
N233 C235 1.340 . S
N234 C231 1.368 . S
N234 C235 1.321 . S
N234 Co237 2.135 . S
C235 N233 1.340 . S
C235 N234 1.321 . S
C235 H259 0.930 . S
H236 C231 0.931 . S
Co237 N234 2.135 . S
Co237 N240 2.121 . S
Co237 O245 2.055 . S
Co237 O248 2.039 . S
Co237 N251 2.140 1_455 S
C238 O239 1.227 1_455 S
C238 O248 1.265 . S
O239 C238 1.227 1_655 S
N240 Co237 2.121 . S
N240 C242 1.375 . S
N240 C243 1.313 . S
C241 C242 1.338 . S
C241 N244 1.377 . S
C241 H261 0.930 1_565 S
C242 N240 1.375 . S
C242 C241 1.338 . S
C242 H246 0.931 . S
C243 N240 1.313 . S
C243 N244 1.344 . S
C243 H247 0.930 . S
N244 C241 1.377 . S
N244 C243 1.344 . S
O245 Co237 2.055 . S
O245 C249 1.253 . S
H246 C242 0.931 . S
H247 C243 0.930 . S
O248 Co237 2.039 . S
O248 C238 1.265 . S
C249 O245 1.253 . S
C249 O250 1.227 . S
O250 C249 1.227 . S
N251 Co237 2.140 1_655 S
N251 C254 1.346 . S
N251 C255 1.345 . S
C252 C253 1.387 . S
C252 C256 1.391 . S
C253 C252 1.387 . S
C253 C254 1.369 . S
C253 H262 0.929 . S
C254 N251 1.346 . S
C254 C253 1.369 . S
C254 H257 0.928 . S
C255 N251 1.345 . S
C255 C256 1.371 . S
C255 H258 0.931 1_655 S
C256 C252 1.391 . S
C256 C255 1.371 . S
C256 H263 0.930 . S
H257 C254 0.928 . S
H258 C255 0.931 1_455 S
H259 C235 0.930 . S
H260 C232 0.930 . S
H261 C241 0.930 1_545 S
H262 C253 0.929 . S
H263 C256 0.930 . S
C264 C265 1.351 . S
C264 N267 1.368 . S
C264 H269 0.931 . S
C265 C264 1.351 . S
C265 N266 1.373 . S
C265 H293 0.930 . S
N266 C265 1.373 . S
N266 C268 1.340 . S
N267 C264 1.368 . S
N267 C268 1.321 . S
N267 Co270 2.135 . S
C268 N266 1.340 . S
C268 N267 1.321 . S
C268 H292 0.930 . S
H269 C264 0.931 . S
Co270 N267 2.135 . S
Co270 N273 2.121 . S
Co270 O278 2.055 . S
Co270 O281 2.039 . S
Co270 N284 2.140 . S
C271 O272 1.227 . S
C271 O281 1.265 . S
O272 C271 1.227 . S
N273 Co270 2.121 . S
N273 C275 1.375 . S
N273 C276 1.313 . S
C274 C275 1.338 . S
C274 N277 1.377 . S
C274 H294 0.930 . S
C275 N273 1.375 . S
C275 C274 1.338 . S
C275 H279 0.931 . S
C276 N273 1.313 . S
C276 N277 1.344 . S
C276 H280 0.930 . S
N277 C274 1.377 . S
N277 C276 1.344 . S
O278 Co270 2.055 . S
O278 C282 1.253 . S
H279 C275 0.931 . S
H280 C276 0.930 . S
O281 Co270 2.039 . S
O281 C271 1.265 . S
C282 O278 1.253 . S
C282 O283 1.227 . S
O283 C282 1.227 . S
N284 Co270 2.140 . S
N284 C287 1.346 . S
N284 C288 1.345 . S
C285 C286 1.387 . S
C285 C289 1.391 1_554 S
C286 C285 1.387 . S
C286 C287 1.369 . S
C286 H295 0.929 . S
C287 N284 1.346 . S
C287 C286 1.369 . S
C287 H290 0.928 . S
C288 N284 1.345 . S
C288 C289 1.371 1_554 S
C288 H291 0.931 . S
C289 C285 1.391 1_556 S
C289 C288 1.371 1_556 S
C289 H296 0.930 . S
H290 C287 0.928 . S
H291 C288 0.931 . S
H292 C268 0.930 . S
H293 C265 0.930 . S
H294 C274 0.930 . S
H295 C286 0.929 . S
H296 C289 0.930 . S
C297 C298 1.351 . S
C297 N300 1.368 . S
C297 H302 0.931 . S
C298 C297 1.351 . S
C298 N299 1.373 . S
C298 H326 0.930 . S
N299 C298 1.373 . S
N299 C301 1.340 . S
N300 C297 1.368 . S
N300 C301 1.321 . S
N300 Co303 2.135 . S
C301 N299 1.340 . S
C301 N300 1.321 . S
C301 H325 0.930 . S
H302 C297 0.931 . S
Co303 N300 2.135 . S
Co303 N306 2.121 . S
Co303 O311 2.055 . S
Co303 O314 2.039 . S
Co303 N317 2.140 1_655 S
C304 O305 1.227 1_655 S
C304 O314 1.265 . S
O305 C304 1.227 1_455 S
N306 Co303 2.121 . S
N306 C308 1.375 . S
N306 C309 1.313 . S
C307 C308 1.338 . S
C307 N310 1.377 . S
C307 H327 0.930 . S
C308 N306 1.375 . S
C308 C307 1.338 . S
C308 H312 0.931 . S
C309 N306 1.313 . S
C309 N310 1.344 . S
C309 H313 0.930 . S
N310 C307 1.377 . S
N310 C309 1.344 . S
O311 Co303 2.055 . S
O311 C315 1.253 . S
H312 C308 0.931 . S
H313 C309 0.930 . S
O314 Co303 2.039 . S
O314 C304 1.265 . S
C315 O311 1.253 . S
C315 O316 1.227 . S
O316 C315 1.227 . S
N317 Co303 2.140 1_455 S
N317 C320 1.346 . S
N317 C321 1.345 . S
C318 C319 1.387 . S
C318 C322 1.391 1_554 S
C319 C318 1.387 . S
C319 C320 1.369 . S
C319 H328 0.929 . S
C320 N317 1.346 . S
C320 C319 1.369 . S
C320 H323 0.928 . S
C321 N317 1.345 . S
C321 C322 1.371 1_554 S
C321 H324 0.931 1_455 S
C322 C318 1.391 1_556 S
C322 C321 1.371 1_556 S
C322 H329 0.930 . S
H323 C320 0.928 . S
H324 C321 0.931 1_655 S
H325 C301 0.930 . S
H326 C298 0.930 . S
H327 C307 0.930 . S
H328 C319 0.929 . S
H329 C322 0.930 . S
C330 C331 1.351 . S
C330 N333 1.368 . S
C330 H335 0.931 . S
C331 C330 1.351 . S
C331 N332 1.373 . S
C331 H359 0.930 . S
N332 C331 1.373 . S
N332 C334 1.340 . S
N333 C330 1.368 . S
N333 C334 1.321 . S
N333 Co336 2.135 . S
C334 N332 1.340 . S
C334 N333 1.321 . S
C334 H358 0.930 . S
H335 C330 0.931 . S
Co336 N333 2.135 . S
Co336 N339 2.121 . S
Co336 O344 2.055 . S
Co336 O347 2.039 . S
Co336 N350 2.140 1_455 S
C337 O338 1.227 1_455 S
C337 O347 1.265 . S
O338 C337 1.227 1_655 S
N339 Co336 2.121 . S
N339 C341 1.375 . S
N339 C342 1.313 . S
C340 C341 1.338 . S
C340 N343 1.377 . S
C340 H360 0.930 . S
C341 N339 1.375 . S
C341 C340 1.338 . S
C341 H345 0.931 . S
C342 N339 1.313 . S
C342 N343 1.344 . S
C342 H346 0.930 . S
N343 C340 1.377 . S
N343 C342 1.344 . S
O344 Co336 2.055 . S
O344 C348 1.253 . S
H345 C341 0.931 . S
H346 C342 0.930 . S
O347 Co336 2.039 . S
O347 C337 1.265 . S
C348 O344 1.253 . S
C348 O349 1.227 . S
O349 C348 1.227 . S
N350 Co336 2.140 1_655 S
N350 C353 1.346 . S
N350 C354 1.345 . S
C351 C352 1.387 . S
C351 C355 1.391 . S
C352 C351 1.387 . S
C352 C353 1.369 . S
C352 H361 0.929 . S
C353 N350 1.346 . S
C353 C352 1.369 . S
C353 H356 0.928 . S
C354 N350 1.345 . S
C354 C355 1.371 . S
C354 H357 0.931 1_655 S
C355 C351 1.391 . S
C355 C354 1.371 . S
C355 H362 0.930 . S
H356 C353 0.928 . S
H357 C354 0.931 1_455 S
H358 C334 0.930 . S
H359 C331 0.930 . S
H360 C340 0.930 . S
H361 C352 0.929 . S
H362 C355 0.930 . S
C363 C364 1.351 . S
C363 N366 1.368 . S
C363 H368 0.931 . S
C364 C363 1.351 . S
C364 N365 1.373 . S
C364 H392 0.930 . S
N365 C364 1.373 . S
N365 C367 1.340 . S
N366 C363 1.368 . S
N366 C367 1.321 . S
N366 Co369 2.135 . S
C367 N365 1.340 . S
C367 N366 1.321 . S
C367 H391 0.930 . S
H368 C363 0.931 . S
Co369 N366 2.135 . S
Co369 N372 2.121 . S
Co369 O377 2.055 . S
Co369 O380 2.039 . S
Co369 N383 2.140 . S
C370 O371 1.227 . S
C370 O380 1.265 . S
O371 C370 1.227 . S
N372 Co369 2.121 . S
N372 C374 1.375 . S
N372 C375 1.313 . S
C373 C374 1.338 . S
C373 N376 1.377 . S
C373 H393 0.930 . S
C374 N372 1.375 . S
C374 C373 1.338 . S
C374 H378 0.931 . S
C375 N372 1.313 . S
C375 N376 1.344 . S
C375 H379 0.930 . S
N376 C373 1.377 . S
N376 C375 1.344 . S
O377 Co369 2.055 . S
O377 C381 1.253 . S
H378 C374 0.931 . S
H379 C375 0.930 . S
O380 Co369 2.039 . S
O380 C370 1.265 . S
C381 O377 1.253 . S
C381 O382 1.227 . S
O382 C381 1.227 . S
N383 Co369 2.140 . S
N383 C386 1.346 . S
N383 C387 1.345 . S
C384 C385 1.387 . S
C384 C388 1.391 . S
C385 C384 1.387 . S
C385 C386 1.369 . S
C385 H394 0.929 . S
C386 N383 1.346 . S
C386 C385 1.369 . S
C386 H389 0.928 . S
C387 N383 1.345 . S
C387 C388 1.371 . S
C387 H390 0.931 . S
C388 C384 1.391 . S
C388 C387 1.371 . S
C388 H395 0.930 . S
H389 C386 0.928 . S
H390 C387 0.931 . S
H391 C367 0.930 . S
H392 C364 0.930 . S
H393 C373 0.930 . S
H394 C385 0.929 . S
H395 C388 0.930 . S
C396 C397 1.351 . S
C396 N399 1.368 . S
C396 H401 0.931 . S
C397 C396 1.351 . S
C397 N398 1.373 . S
C397 H425 0.930 . S
N398 C397 1.373 . S
N398 C400 1.340 . S
N399 C396 1.368 . S
N399 C400 1.321 . S
N399 Co402 2.135 . S
C400 N398 1.340 . S
C400 N399 1.321 . S
C400 H424 0.930 . S
H401 C396 0.931 . S
Co402 N399 2.135 . S
Co402 N405 2.121 . S
Co402 O410 2.055 . S
Co402 O413 2.039 . S
Co402 N416 2.140 . S
C403 O404 1.227 . S
C403 O413 1.265 . S
O404 C403 1.227 . S
N405 Co402 2.121 . S
N405 C407 1.375 . S
N405 C408 1.313 . S
C406 C407 1.338 . S
C406 N409 1.377 . S
C406 H426 0.930 . S
C407 N405 1.375 . S
C407 C406 1.338 . S
C407 H411 0.931 . S
C408 N405 1.313 . S
C408 N409 1.344 . S
C408 H412 0.930 . S
N409 C406 1.377 . S
N409 C408 1.344 . S
O410 Co402 2.055 . S
O410 C414 1.253 . S
H411 C407 0.931 . S
H412 C408 0.930 . S
O413 Co402 2.039 . S
O413 C403 1.265 . S
C414 O410 1.253 . S
C414 O415 1.227 . S
O415 C414 1.227 . S
N416 Co402 2.140 . S
N416 C419 1.346 . S
N416 C420 1.345 . S
C417 C418 1.387 . S
C417 C421 1.391 1_556 S
C418 C417 1.387 . S
C418 C419 1.369 . S
C418 H427 0.929 . S
C419 N416 1.346 . S
C419 C418 1.369 . S
C419 H422 0.928 . S
C420 N416 1.345 . S
C420 C421 1.371 1_556 S
C420 H423 0.931 . S
C421 C417 1.391 1_554 S
C421 C420 1.371 1_554 S
C421 H428 0.930 . S
H422 C419 0.928 . S
H423 C420 0.931 . S
H424 C400 0.930 . S
H425 C397 0.930 . S
H426 C406 0.930 . S
H427 C418 0.929 . S
H428 C421 0.930 . S
C429 C430 1.351 . S
C429 N432 1.368 . S
C429 H434 0.931 . S
C430 C429 1.351 . S
C430 N431 1.373 . S
C430 H458 0.930 . S
N431 C430 1.373 . S
N431 C433 1.340 . S
N432 C429 1.368 . S
N432 C433 1.321 . S
N432 Co435 2.135 . S
C433 N431 1.340 . S
C433 N432 1.321 . S
C433 H457 0.930 . S
H434 C429 0.931 . S
Co435 N432 2.135 . S
Co435 N438 2.121 . S
Co435 O443 2.055 . S
Co435 O446 2.039 . S
Co435 N449 2.140 1_455 S
C436 O437 1.227 1_455 S
C436 O446 1.265 . S
O437 C436 1.227 1_655 S
N438 Co435 2.121 . S
N438 C440 1.375 . S
N438 C441 1.313 . S
C439 C440 1.338 . S
C439 N442 1.377 . S
C439 H459 0.930 . S
C440 N438 1.375 . S
C440 C439 1.338 . S
C440 H444 0.931 . S
C441 N438 1.313 . S
C441 N442 1.344 . S
C441 H445 0.930 . S
N442 C439 1.377 . S
N442 C441 1.344 . S
O443 Co435 2.055 . S
O443 C447 1.253 . S
H444 C440 0.931 . S
H445 C441 0.930 . S
O446 Co435 2.039 . S
O446 C436 1.265 . S
C447 O443 1.253 . S
C447 O448 1.227 . S
O448 C447 1.227 . S
N449 Co435 2.140 1_655 S
N449 C452 1.346 . S
N449 C453 1.345 . S
C450 C451 1.387 . S
C450 C454 1.391 1_556 S
C451 C450 1.387 . S
C451 C452 1.369 . S
C451 H460 0.929 . S
C452 N449 1.346 . S
C452 C451 1.369 . S
C452 H455 0.928 . S
C453 N449 1.345 . S
C453 C454 1.371 1_556 S
C453 H456 0.931 1_655 S
C454 C450 1.391 1_554 S
C454 C453 1.371 1_554 S
C454 H461 0.930 . S
H455 C452 0.928 . S
H456 C453 0.931 1_455 S
H457 C433 0.930 . S
H458 C430 0.930 . S
H459 C439 0.930 . S
H460 C451 0.929 . S
H461 C454 0.930 . S
C462 C463 1.351 . S
C462 N465 1.368 . S
C462 H467 0.931 . S
C463 C462 1.351 . S
C463 N464 1.373 . S
C463 H491 0.930 . S
N464 C463 1.373 . S
N464 C466 1.340 . S
N465 C462 1.368 . S
N465 C466 1.321 . S
N465 Co468 2.135 . S
C466 N464 1.340 . S
C466 N465 1.321 . S
C466 H490 0.930 . S
H467 C462 0.931 . S
Co468 N465 2.135 . S
Co468 N471 2.121 . S
Co468 O476 2.055 . S
Co468 O479 2.039 . S
Co468 N482 2.140 1_655 S
C469 O470 1.227 1_655 S
C469 O479 1.265 . S
O470 C469 1.227 1_455 S
N471 Co468 2.121 . S
N471 C473 1.375 . S
N471 C474 1.313 . S
C472 C473 1.338 . S
C472 N475 1.377 . S
C472 H492 0.930 . S
C473 N471 1.375 . S
C473 C472 1.338 . S
C473 H477 0.931 . S
C474 N471 1.313 . S
C474 N475 1.344 . S
C474 H478 0.930 . S
N475 C472 1.377 . S
N475 C474 1.344 . S
O476 Co468 2.055 . S
O476 C480 1.253 . S
H477 C473 0.931 . S
H478 C474 0.930 . S
O479 Co468 2.039 . S
O479 C469 1.265 . S
C480 O476 1.253 . S
C480 O481 1.227 . S
O481 C480 1.227 . S
N482 Co468 2.140 1_455 S
N482 C485 1.346 . S
N482 C486 1.345 . S
C483 C484 1.387 . S
C483 C487 1.391 . S
C484 C483 1.387 . S
C484 C485 1.369 . S
C484 H493 0.929 . S
C485 N482 1.346 . S
C485 C484 1.369 . S
C485 H488 0.928 . S
C486 N482 1.345 . S
C486 C487 1.371 . S
C486 H489 0.931 1_455 S
C487 C483 1.391 . S
C487 C486 1.371 . S
C487 H494 0.930 . S
H488 C485 0.928 . S
H489 C486 0.931 1_655 S
H490 C466 0.930 . S
H491 C463 0.930 . S
H492 C472 0.930 . S
H493 C484 0.929 . S
H494 C487 0.930 . S
C495 C496 1.351 . S
C495 N498 1.368 . S
C495 H500 0.931 . S
C496 C495 1.351 . S
C496 N497 1.373 . S
C496 H524 0.930 . S
N497 C496 1.373 . S
N497 C499 1.340 . S
N498 C495 1.368 . S
N498 C499 1.321 . S
N498 Co501 2.135 . S
C499 N497 1.340 . S
C499 N498 1.321 . S
C499 H523 0.930 . S
H500 C495 0.931 . S
Co501 N498 2.135 . S
Co501 N504 2.121 . S
Co501 O509 2.055 . S
Co501 O512 2.039 . S
Co501 N515 2.140 . S
C502 O503 1.227 . S
C502 O512 1.265 . S
O503 C502 1.227 . S
N504 Co501 2.121 . S
N504 C506 1.375 . S
N504 C507 1.313 . S
C505 C506 1.338 . S
C505 N508 1.377 . S
C505 H525 0.930 . S
C506 N504 1.375 . S
C506 C505 1.338 . S
C506 H510 0.931 . S
C507 N504 1.313 . S
C507 N508 1.344 . S
C507 H511 0.930 . S
N508 C505 1.377 . S
N508 C507 1.344 . S
O509 Co501 2.055 . S
O509 C513 1.253 . S
H510 C506 0.931 . S
H511 C507 0.930 . S
O512 Co501 2.039 . S
O512 C502 1.265 . S
C513 O509 1.253 . S
C513 O514 1.227 . S
O514 C513 1.227 . S
N515 Co501 2.140 . S
N515 C518 1.346 . S
N515 C519 1.345 . S
C516 C517 1.387 . S
C516 C520 1.391 . S
C517 C516 1.387 . S
C517 C518 1.369 . S
C517 H526 0.929 . S
C518 N515 1.346 . S
C518 C517 1.369 . S
C518 H521 0.928 . S
C519 N515 1.345 . S
C519 C520 1.371 . S
C519 H522 0.931 . S
C520 C516 1.391 . S
C520 C519 1.371 . S
C520 H527 0.930 . S
H521 C518 0.928 . S
H522 C519 0.931 . S
H523 C499 0.930 . S
H524 C496 0.930 . S
H525 C505 0.930 . S
H526 C517 0.929 . S
H527 C520 0.930 . S
C186 C18 1.469 1_556 S
C153 C51 1.469 1_556 S
C84 C252 1.469 . S
C117 C219 1.469 . S
C150 C54 1.469 1_556 S
C183 C21 1.469 1_556 S
C120 C216 1.469 . S
C249 C87 1.469 . S
C282 C450 1.469 1_554 S
C315 C417 1.469 1_554 S
C348 C516 1.469 . S
C381 C483 1.469 . S
C414 C318 1.469 1_556 S
C447 C285 1.469 1_556 S
C384 C480 1.469 . S
C351 C513 1.469 . S
N13 N46 2.239 1_545 S
N79 N112 2.239 1_565 S
N178 N145 2.239 1_545 S
N244 N211 2.239 1_565 S
N310 N277 2.239 . S
N376 N343 2.239 . S
N409 N442 2.239 . S
N475 N508 2.239 . S
N299 N2 1.651 1_655 S
N35 N266 1.651 . S
N68 N365 1.651 . S
N332 N101 1.651 1_455 S
N134 N431 1.651 1_655 S
N167 N398 1.651 . S
N200 N497 1.651 . S
N464 N233 1.651 1_655 S
C7 C106 1.519 1_455 S
C40 C73 1.519 . S
C139 C238 1.519 1_655 S
C172 C205 1.519 . S
C370 C271 1.519 . S
C337 C304 1.519 1_455 S
C403 C502 1.519 . S
C436 C469 1.519 1_455 S
