# Generated by pormake.
# Topology ukr, (4)-cn, num edge types: 1
# Building blocks:
#     Node 0, Type 0, BuildingBlock: CEKHIL_clean_sbu_0, # of connection points: 4
#     Node 1, Type 0, BuildingBlock: CEKHIL_clean_sbu_0, # of connection points: 4
#     Node 2, Type 0, BuildingBlock: CEKHIL_clean_sbu_0, # of connection points: 4
#     Node 3, Type 0, BuildingBlock: CEKHIL_clean_sbu_0, # of connection points: 4
#     Node 4, Type 0, BuildingBlock: CEKHIL_clean_sbu_0, # of connection points: 4
#     Node 5, Type 0, BuildingBlock: CEKHIL_clean_sbu_0, # of connection points: 4
#     Node 6, Type 0, BuildingBlock: CEKHIL_clean_sbu_0, # of connection points: 4
#     Node 7, Type 0, BuildingBlock: CEKHIL_clean_sbu_0, # of connection points: 4
#     Node 8, Type 0, BuildingBlock: CEKHIL_clean_sbu_0, # of connection points: 4
#     Node 9, Type 0, BuildingBlock: CEKHIL_clean_sbu_0, # of connection points: 4
#     Node 10, Type 0, BuildingBlock: CEKHIL_clean_sbu_0, # of connection points: 4
#     Node 11, Type 0, BuildingBlock: CEKHIL_clean_sbu_0, # of connection points: 4
#     Node 12, Type 0, BuildingBlock: CEKHIL_clean_sbu_0, # of connection points: 4
#     Node 13, Type 0, BuildingBlock: CEKHIL_clean_sbu_0, # of connection points: 4
#     Node 14, Type 0, BuildingBlock: CEKHIL_clean_sbu_0, # of connection points: 4
#     Node 15, Type 0, BuildingBlock: CEKHIL_clean_sbu_0, # of connection points: 4
#     Node 16, Type 0, BuildingBlock: CEKHIL_clean_sbu_0, # of connection points: 4
#     Node 17, Type 0, BuildingBlock: CEKHIL_clean_sbu_0, # of connection points: 4
#     Node 18, Type 0, BuildingBlock: CEKHIL_clean_sbu_0, # of connection points: 4
#     Node 19, Type 0, BuildingBlock: CEKHIL_clean_sbu_0, # of connection points: 4
#     Node 20, Type 0, BuildingBlock: CEKHIL_clean_sbu_0, # of connection points: 4
#     Node 21, Type 0, BuildingBlock: CEKHIL_clean_sbu_0, # of connection points: 4
#     Node 22, Type 0, BuildingBlock: CEKHIL_clean_sbu_0, # of connection points: 4
#     Node 23, Type 0, BuildingBlock: CEKHIL_clean_sbu_0, # of connection points: 4
#     Node 24, Type 0, BuildingBlock: CEKHIL_clean_sbu_0, # of connection points: 4
#     Node 25, Type 0, BuildingBlock: CEKHIL_clean_sbu_0, # of connection points: 4
#     Node 26, Type 0, BuildingBlock: CEKHIL_clean_sbu_0, # of connection points: 4
#     Node 27, Type 0, BuildingBlock: CEKHIL_clean_sbu_0, # of connection points: 4
#     Node 28, Type 0, BuildingBlock: CEKHIL_clean_sbu_0, # of connection points: 4
#     Node 29, Type 0, BuildingBlock: CEKHIL_clean_sbu_0, # of connection points: 4
#     Node 30, Type 0, BuildingBlock: CEKHIL_clean_sbu_0, # of connection points: 4
#     Node 31, Type 0, BuildingBlock: CEKHIL_clean_sbu_0, # of connection points: 4
#     Node 32, Type 0, BuildingBlock: CEKHIL_clean_sbu_0, # of connection points: 4
#     Node 33, Type 0, BuildingBlock: CEKHIL_clean_sbu_0, # of connection points: 4
#     Node 34, Type 0, BuildingBlock: CEKHIL_clean_sbu_0, # of connection points: 4
#     Node 35, Type 0, BuildingBlock: CEKHIL_clean_sbu_0, # of connection points: 4
#     Node 36, Type 0, BuildingBlock: CEKHIL_clean_sbu_0, # of connection points: 4
#     Node 37, Type 0, BuildingBlock: CEKHIL_clean_sbu_0, # of connection points: 4
#     Node 38, Type 0, BuildingBlock: CEKHIL_clean_sbu_0, # of connection points: 4
#     Node 39, Type 0, BuildingBlock: CEKHIL_clean_sbu_0, # of connection points: 4
#     Node 40, Type 0, BuildingBlock: CEKHIL_clean_sbu_0, # of connection points: 4
#     Node 41, Type 0, BuildingBlock: CEKHIL_clean_sbu_0, # of connection points: 4
#     Node 42, Type 0, BuildingBlock: CEKHIL_clean_sbu_0, # of connection points: 4
#     Node 43, Type 0, BuildingBlock: CEKHIL_clean_sbu_0, # of connection points: 4
#     Node 44, Type 0, BuildingBlock: CEKHIL_clean_sbu_0, # of connection points: 4
#     Node 45, Type 0, BuildingBlock: CEKHIL_clean_sbu_0, # of connection points: 4
#     Node 46, Type 0, BuildingBlock: CEKHIL_clean_sbu_0, # of connection points: 4
#     Node 47, Type 0, BuildingBlock: CEKHIL_clean_sbu_0, # of connection points: 4
#     Edge 48, Type (0, 0), BuildingBlock: ZUJKAS_clean_linker_0, # of connection points: 2
#     Edge 49, Type (0, 0), BuildingBlock: ZUJKAS_clean_linker_0, # of connection points: 2
#     Edge 50, Type (0, 0), BuildingBlock: ZUJKAS_clean_linker_0, # of connection points: 2
#     Edge 51, Type (0, 0), BuildingBlock: ZUJKAS_clean_linker_0, # of connection points: 2
#     Edge 52, Type (0, 0), BuildingBlock: ZUJKAS_clean_linker_0, # of connection points: 2
#     Edge 53, Type (0, 0), BuildingBlock: ZUJKAS_clean_linker_0, # of connection points: 2
#     Edge 54, Type (0, 0), BuildingBlock: ZUJKAS_clean_linker_0, # of connection points: 2
#     Edge 55, Type (0, 0), BuildingBlock: ZUJKAS_clean_linker_0, # of connection points: 2
#     Edge 56, Type (0, 0), BuildingBlock: ZUJKAS_clean_linker_0, # of connection points: 2
#     Edge 57, Type (0, 0), BuildingBlock: ZUJKAS_clean_linker_0, # of connection points: 2
#     Edge 58, Type (0, 0), BuildingBlock: ZUJKAS_clean_linker_0, # of connection points: 2
#     Edge 59, Type (0, 0), BuildingBlock: ZUJKAS_clean_linker_0, # of connection points: 2
#     Edge 60, Type (0, 0), BuildingBlock: ZUJKAS_clean_linker_0, # of connection points: 2
#     Edge 61, Type (0, 0), BuildingBlock: ZUJKAS_clean_linker_0, # of connection points: 2
#     Edge 62, Type (0, 0), BuildingBlock: ZUJKAS_clean_linker_0, # of connection points: 2
#     Edge 63, Type (0, 0), BuildingBlock: ZUJKAS_clean_linker_0, # of connection points: 2
#     Edge 64, Type (0, 0), BuildingBlock: ZUJKAS_clean_linker_0, # of connection points: 2
#     Edge 65, Type (0, 0), BuildingBlock: ZUJKAS_clean_linker_0, # of connection points: 2
#     Edge 66, Type (0, 0), BuildingBlock: ZUJKAS_clean_linker_0, # of connection points: 2
#     Edge 67, Type (0, 0), BuildingBlock: ZUJKAS_clean_linker_0, # of connection points: 2
#     Edge 68, Type (0, 0), BuildingBlock: ZUJKAS_clean_linker_0, # of connection points: 2
#     Edge 69, Type (0, 0), BuildingBlock: ZUJKAS_clean_linker_0, # of connection points: 2
#     Edge 70, Type (0, 0), BuildingBlock: ZUJKAS_clean_linker_0, # of connection points: 2
#     Edge 71, Type (0, 0), BuildingBlock: ZUJKAS_clean_linker_0, # of connection points: 2
#     Edge 72, Type (0, 0), BuildingBlock: ZUJKAS_clean_linker_0, # of connection points: 2
#     Edge 73, Type (0, 0), BuildingBlock: ZUJKAS_clean_linker_0, # of connection points: 2
#     Edge 74, Type (0, 0), BuildingBlock: ZUJKAS_clean_linker_0, # of connection points: 2
#     Edge 75, Type (0, 0), BuildingBlock: ZUJKAS_clean_linker_0, # of connection points: 2
#     Edge 76, Type (0, 0), BuildingBlock: ZUJKAS_clean_linker_0, # of connection points: 2
#     Edge 77, Type (0, 0), BuildingBlock: ZUJKAS_clean_linker_0, # of connection points: 2
#     Edge 78, Type (0, 0), BuildingBlock: ZUJKAS_clean_linker_0, # of connection points: 2
#     Edge 79, Type (0, 0), BuildingBlock: ZUJKAS_clean_linker_0, # of connection points: 2
#     Edge 80, Type (0, 0), BuildingBlock: ZUJKAS_clean_linker_0, # of connection points: 2
#     Edge 81, Type (0, 0), BuildingBlock: ZUJKAS_clean_linker_0, # of connection points: 2
#     Edge 82, Type (0, 0), BuildingBlock: ZUJKAS_clean_linker_0, # of connection points: 2
#     Edge 83, Type (0, 0), BuildingBlock: ZUJKAS_clean_linker_0, # of connection points: 2
#     Edge 84, Type (0, 0), BuildingBlock: ZUJKAS_clean_linker_0, # of connection points: 2
#     Edge 85, Type (0, 0), BuildingBlock: ZUJKAS_clean_linker_0, # of connection points: 2
#     Edge 86, Type (0, 0), BuildingBlock: ZUJKAS_clean_linker_0, # of connection points: 2
#     Edge 87, Type (0, 0), BuildingBlock: ZUJKAS_clean_linker_0, # of connection points: 2
#     Edge 88, Type (0, 0), BuildingBlock: ZUJKAS_clean_linker_0, # of connection points: 2
#     Edge 89, Type (0, 0), BuildingBlock: ZUJKAS_clean_linker_0, # of connection points: 2
#     Edge 90, Type (0, 0), BuildingBlock: ZUJKAS_clean_linker_0, # of connection points: 2
#     Edge 91, Type (0, 0), BuildingBlock: ZUJKAS_clean_linker_0, # of connection points: 2
#     Edge 92, Type (0, 0), BuildingBlock: ZUJKAS_clean_linker_0, # of connection points: 2
#     Edge 93, Type (0, 0), BuildingBlock: ZUJKAS_clean_linker_0, # of connection points: 2
#     Edge 94, Type (0, 0), BuildingBlock: ZUJKAS_clean_linker_0, # of connection points: 2
#     Edge 95, Type (0, 0), BuildingBlock: ZUJKAS_clean_linker_0, # of connection points: 2
#     Edge 96, Type (0, 0), BuildingBlock: ZUJKAS_clean_linker_0, # of connection points: 2
#     Edge 97, Type (0, 0), BuildingBlock: ZUJKAS_clean_linker_0, # of connection points: 2
#     Edge 98, Type (0, 0), BuildingBlock: ZUJKAS_clean_linker_0, # of connection points: 2
#     Edge 99, Type (0, 0), BuildingBlock: ZUJKAS_clean_linker_0, # of connection points: 2
#     Edge 100, Type (0, 0), BuildingBlock: ZUJKAS_clean_linker_0, # of connection points: 2
#     Edge 101, Type (0, 0), BuildingBlock: ZUJKAS_clean_linker_0, # of connection points: 2
#     Edge 102, Type (0, 0), BuildingBlock: ZUJKAS_clean_linker_0, # of connection points: 2
#     Edge 103, Type (0, 0), BuildingBlock: ZUJKAS_clean_linker_0, # of connection points: 2
#     Edge 104, Type (0, 0), BuildingBlock: ZUJKAS_clean_linker_0, # of connection points: 2
#     Edge 105, Type (0, 0), BuildingBlock: ZUJKAS_clean_linker_0, # of connection points: 2
#     Edge 106, Type (0, 0), BuildingBlock: ZUJKAS_clean_linker_0, # of connection points: 2
#     Edge 107, Type (0, 0), BuildingBlock: ZUJKAS_clean_linker_0, # of connection points: 2
#     Edge 108, Type (0, 0), BuildingBlock: ZUJKAS_clean_linker_0, # of connection points: 2
#     Edge 109, Type (0, 0), BuildingBlock: ZUJKAS_clean_linker_0, # of connection points: 2
#     Edge 110, Type (0, 0), BuildingBlock: ZUJKAS_clean_linker_0, # of connection points: 2
#     Edge 111, Type (0, 0), BuildingBlock: ZUJKAS_clean_linker_0, # of connection points: 2
#     Edge 112, Type (0, 0), BuildingBlock: ZUJKAS_clean_linker_0, # of connection points: 2
#     Edge 113, Type (0, 0), BuildingBlock: ZUJKAS_clean_linker_0, # of connection points: 2
#     Edge 114, Type (0, 0), BuildingBlock: ZUJKAS_clean_linker_0, # of connection points: 2
#     Edge 115, Type (0, 0), BuildingBlock: ZUJKAS_clean_linker_0, # of connection points: 2
#     Edge 116, Type (0, 0), BuildingBlock: ZUJKAS_clean_linker_0, # of connection points: 2
#     Edge 117, Type (0, 0), BuildingBlock: ZUJKAS_clean_linker_0, # of connection points: 2
#     Edge 118, Type (0, 0), BuildingBlock: ZUJKAS_clean_linker_0, # of connection points: 2
#     Edge 119, Type (0, 0), BuildingBlock: ZUJKAS_clean_linker_0, # of connection points: 2
#     Edge 120, Type (0, 0), BuildingBlock: ZUJKAS_clean_linker_0, # of connection points: 2
#     Edge 121, Type (0, 0), BuildingBlock: ZUJKAS_clean_linker_0, # of connection points: 2
#     Edge 122, Type (0, 0), BuildingBlock: ZUJKAS_clean_linker_0, # of connection points: 2
#     Edge 123, Type (0, 0), BuildingBlock: ZUJKAS_clean_linker_0, # of connection points: 2
#     Edge 124, Type (0, 0), BuildingBlock: ZUJKAS_clean_linker_0, # of connection points: 2
#     Edge 125, Type (0, 0), BuildingBlock: ZUJKAS_clean_linker_0, # of connection points: 2
#     Edge 126, Type (0, 0), BuildingBlock: ZUJKAS_clean_linker_0, # of connection points: 2
#     Edge 127, Type (0, 0), BuildingBlock: ZUJKAS_clean_linker_0, # of connection points: 2
#     Edge 128, Type (0, 0), BuildingBlock: ZUJKAS_clean_linker_0, # of connection points: 2
#     Edge 129, Type (0, 0), BuildingBlock: ZUJKAS_clean_linker_0, # of connection points: 2
#     Edge 130, Type (0, 0), BuildingBlock: ZUJKAS_clean_linker_0, # of connection points: 2
#     Edge 131, Type (0, 0), BuildingBlock: ZUJKAS_clean_linker_0, # of connection points: 2
#     Edge 132, Type (0, 0), BuildingBlock: ZUJKAS_clean_linker_0, # of connection points: 2
#     Edge 133, Type (0, 0), BuildingBlock: ZUJKAS_clean_linker_0, # of connection points: 2
#     Edge 134, Type (0, 0), BuildingBlock: ZUJKAS_clean_linker_0, # of connection points: 2
#     Edge 135, Type (0, 0), BuildingBlock: ZUJKAS_clean_linker_0, # of connection points: 2
#     Edge 136, Type (0, 0), BuildingBlock: ZUJKAS_clean_linker_0, # of connection points: 2
#     Edge 137, Type (0, 0), BuildingBlock: ZUJKAS_clean_linker_0, # of connection points: 2
#     Edge 138, Type (0, 0), BuildingBlock: ZUJKAS_clean_linker_0, # of connection points: 2
#     Edge 139, Type (0, 0), BuildingBlock: ZUJKAS_clean_linker_0, # of connection points: 2
#     Edge 140, Type (0, 0), BuildingBlock: ZUJKAS_clean_linker_0, # of connection points: 2
#     Edge 141, Type (0, 0), BuildingBlock: ZUJKAS_clean_linker_0, # of connection points: 2
#     Edge 142, Type (0, 0), BuildingBlock: ZUJKAS_clean_linker_0, # of connection points: 2
#     Edge 143, Type (0, 0), BuildingBlock: ZUJKAS_clean_linker_0, # of connection points: 2
# Relax obj value: 0.470
# Max RMSD: 0.180
# Mean RMSD: 0.180
data_MOF--net-ukr--node1-CEKHIL_clean_sbu_0--edge1-ZUJKAS_clean_linker_0
_symmetry_space_group_name_H-M    P1
_symmetry_Int_Tables_number       1
_symmetry_cell_setting            triclinic
loop_
_symmetry_equiv_pos_as_xyz
'x, y, z'
_cell_length_a     87.727221
_cell_length_b     87.724612
_cell_length_c     87.707561
_cell_angle_alpha  89.994365
_cell_angle_beta   89.993764
_cell_angle_gamma 89.991419
loop_
_atom_site_label
_atom_site_type_symbol
_atom_site_fract_x
_atom_site_fract_y
_atom_site_fract_z
_atom_type_partial_charge
Co0 Co 0.09834 0.27007 0.19536 0.0
O1 O 0.07862 0.27694 0.20193 0.0
O2 O 0.08754 0.27884 0.17835 0.0
C3 C 0.09778 0.24716 0.20694 0.0
O4 O 0.11751 0.26357 0.18392 0.0
Co5 Co 0.1245 0.26278 0.21816 0.0
O6 O 0.13402 0.25282 0.2003 0.0
C7 C 0.11638 0.29479 0.21154 0.0
C8 C 0.07647 0.2812 0.1879 0.0
C9 C 0.12965 0.25582 0.18678 0.0
O10 O 0.10718 0.29063 0.20089 0.0
O11 O 0.12359 0.28546 0.22012 0.0
O12 O 0.09097 0.24906 0.1939 0.0
O13 O 0.1033 0.25934 0.21306 0.0
Co14 Co 0.22809 0.59588 0.70014 0.0
O15 O 0.22426 0.57533 0.70652 0.0
O16 O 0.21965 0.58444 0.68337 0.0
C17 C 0.25157 0.59829 0.71021 0.0
O18 O 0.23128 0.61601 0.68912 0.0
Co19 Co 0.23269 0.62179 0.7239 0.0
O20 O 0.23967 0.63356 0.70582 0.0
C21 C 0.20271 0.60743 0.72001 0.0
C22 C 0.21925 0.57298 0.69277 0.0
C23 C 0.23703 0.62915 0.69221 0.0
O24 O 0.20698 0.60185 0.70714 0.0
O25 O 0.21172 0.61434 0.72916 0.0
O26 O 0.24979 0.59146 0.69717 0.0
O27 O 0.23916 0.60177 0.71727 0.0
Co28 Co 0.90219 0.72875 0.19507 0.0
O29 O 0.92141 0.72046 0.2015 0.0
O30 O 0.9119 0.71863 0.17814 0.0
C31 C 0.90487 0.75193 0.20583 0.0
O32 O 0.88339 0.73648 0.18379 0.0
Co33 Co 0.87728 0.73911 0.2181 0.0
O34 O 0.86868 0.74968 0.20009 0.0
C35 C 0.88222 0.70627 0.21229 0.0
C36 C 0.92297 0.7157 0.18756 0.0
C37 C 0.87231 0.74571 0.1866 0.0
O38 O 0.8917 0.70921 0.20146 0.0
O39 O 0.87603 0.71652 0.22063 0.0
O40 O 0.91124 0.74904 0.19275 0.0
O41 O 0.89855 0.74044 0.21247 0.0
Co42 Co 0.76734 0.40572 0.70148 0.0
O43 O 0.77387 0.42584 0.70684 0.0
O44 O 0.77906 0.4143 0.68494 0.0
C45 C 0.74299 0.40815 0.70911 0.0
O46 O 0.76191 0.38547 0.69158 0.0
Co47 Co 0.756 0.38304 0.72618 0.0
O48 O 0.74908 0.37093 0.70834 0.0
C49 C 0.78868 0.39051 0.72402 0.0
C50 C 0.78036 0.42631 0.69354 0.0
C51 C 0.75386 0.37366 0.69488 0.0
O52 O 0.7864 0.39702 0.71106 0.0
O53 O 0.77784 0.38551 0.73241 0.0
O54 O 0.7471 0.41321 0.69579 0.0
O55 O 0.75386 0.40331 0.71774 0.0
Co56 Co 0.09828 0.72765 0.79827 0.0
O57 O 0.07802 0.72215 0.79219 0.0
O58 O 0.08798 0.71781 0.81504 0.0
C59 C 0.09816 0.75154 0.78886 0.0
O60 O 0.11834 0.7323 0.80897 0.0
Co61 Co 0.12307 0.73555 0.77417 0.0
O62 O 0.13474 0.74266 0.7922 0.0
C63 C 0.11237 0.7039 0.77771 0.0
C64 C 0.07639 0.71671 0.80587 0.0
C65 C 0.13095 0.73911 0.80578 0.0
O66 O 0.10597 0.70738 0.79045 0.0
O67 O 0.11845 0.71383 0.7689 0.0
O68 O 0.09193 0.74874 0.80203 0.0
O69 O 0.10266 0.73973 0.78137 0.0
Co70 Co 0.7697 0.59441 0.29905 0.0
O71 O 0.77588 0.5741 0.29387 0.0
O72 O 0.78114 0.5857 0.31572 0.0
C73 C 0.74529 0.59247 0.29129 0.0
O74 O 0.76462 0.61484 0.30883 0.0
Co75 Co 0.75871 0.61724 0.27424 0.0
O76 O 0.7518 0.62937 0.29205 0.0
C77 C 0.7911 0.60834 0.27598 0.0
C78 C 0.78224 0.5736 0.30724 0.0
C79 C 0.75658 0.62667 0.30551 0.0
O80 O 0.78896 0.6026 0.28933 0.0
O81 O 0.7802 0.61334 0.26765 0.0
O82 O 0.74923 0.58731 0.30462 0.0
O83 O 0.75634 0.59707 0.28278 0.0
Co84 Co 0.90303 0.27015 0.79949 0.0
O85 O 0.92355 0.27546 0.79417 0.0
O86 O 0.91285 0.27973 0.81669 0.0
C87 C 0.90302 0.24632 0.78992 0.0
O88 O 0.88261 0.26561 0.80939 0.0
Co89 Co 0.87909 0.2631 0.77429 0.0
O90 O 0.86657 0.25604 0.79183 0.0
C91 C 0.89037 0.2943 0.77861 0.0
C92 C 0.92478 0.28076 0.80795 0.0
C93 C 0.86999 0.25917 0.80562 0.0
O94 O 0.89574 0.29059 0.79175 0.0
O95 O 0.88486 0.28463 0.76919 0.0
O96 O 0.90898 0.24895 0.80324 0.0
O97 O 0.89904 0.25827 0.78233 0.0
Co98 Co 0.22537 0.39868 0.30192 0.0
O99 O 0.21755 0.41823 0.29586 0.0
O100 O 0.21672 0.40879 0.31938 0.0
C101 C 0.24805 0.4002 0.28995 0.0
O102 O 0.23285 0.3796 0.31286 0.0
Co103 Co 0.2331 0.37319 0.27851 0.0
O104 O 0.24364 0.36359 0.29601 0.0
C105 C 0.20098 0.38004 0.28597 0.0
C106 C 0.21365 0.41986 0.31005 0.0
C107 C 0.24084 0.36772 0.30965 0.0
O108 O 0.20504 0.38916 0.29671 0.0
O109 O 0.21037 0.37336 0.27703 0.0
O110 O 0.24611 0.4068 0.30308 0.0
O111 O 0.23595 0.39441 0.28391 0.0
Co112 Co 0.19992 0.09659 0.26922 0.0
O113 O 0.20586 0.07608 0.27397 0.0
O114 O 0.18282 0.08579 0.27778 0.0
C115 C 0.21039 0.09792 0.24581 0.0
O116 O 0.18922 0.11672 0.26507 0.0
Co117 Co 0.22394 0.12211 0.2638 0.0
O118 O 0.20611 0.13363 0.25586 0.0
C119 C 0.21919 0.10954 0.2945 0.0
C120 C 0.19198 0.07418 0.27878 0.0
C121 C 0.19245 0.1295 0.25865 0.0
O122 O 0.20665 0.1033 0.29019 0.0
O123 O 0.22841 0.11627 0.28543 0.0
O124 O 0.19723 0.09135 0.24767 0.0
O125 O 0.2173 0.10182 0.25819 0.0
Co126 Co 0.40396 0.70259 0.76902 0.0
O127 O 0.42451 0.7075 0.77464 0.0
O128 O 0.41273 0.68586 0.78033 0.0
C129 C 0.40525 0.71013 0.7445 0.0
O130 O 0.38326 0.69308 0.7645 0.0
Co131 Co 0.3812 0.72774 0.75866 0.0
O132 O 0.36853 0.71013 0.75226 0.0
C133 C 0.39091 0.7259 0.79079 0.0
C134 C 0.42497 0.69417 0.78108 0.0
C135 C 0.37122 0.69662 0.75689 0.0
O136 O 0.39643 0.71248 0.78847 0.0
O137 O 0.38573 0.7343 0.78004 0.0
O138 O 0.41044 0.6968 0.74843 0.0
O139 O 0.40113 0.71882 0.75562 0.0
Co140 Co 0.8023 0.90083 0.27141 0.0
O141 O 0.79571 0.92033 0.27889 0.0
O142 O 0.81948 0.91173 0.27967 0.0
C143 C 0.78979 0.90161 0.24897 0.0
O144 O 0.81377 0.88194 0.2642 0.0
Co145 Co 0.77965 0.87444 0.26462 0.0
O146 O 0.7973 0.86514 0.25408 0.0
C147 C 0.7874 0.88218 0.29648 0.0
C148 C 0.80986 0.9226 0.28264 0.0
C149 C 0.81084 0.86972 0.2566 0.0
O150 O 0.79775 0.89158 0.29203 0.0
O151 O 0.77855 0.87501 0.28738 0.0
O152 O 0.80279 0.90858 0.25048 0.0
O153 O 0.78427 0.89577 0.26129 0.0
Co154 Co 0.59521 0.30048 0.76936 0.0
O155 O 0.57603 0.29331 0.77703 0.0
O156 O 0.58457 0.31701 0.77922 0.0
C157 C 0.59362 0.28962 0.74613 0.0
O158 O 0.61391 0.31237 0.76229 0.0
Co159 Co 0.62121 0.27829 0.76002 0.0
O160 O 0.6293 0.29649 0.74938 0.0
C161 C 0.61489 0.28402 0.79264 0.0
C162 C 0.57384 0.30713 0.78188 0.0
C163 C 0.62525 0.30988 0.75329 0.0
O164 O 0.60522 0.29452 0.78924 0.0
O165 O 0.62176 0.27584 0.78269 0.0
O166 O 0.58672 0.30247 0.7488 0.0
O167 O 0.59983 0.28322 0.75782 0.0
Co168 Co 0.198 0.90447 0.72811 0.0
O169 O 0.20348 0.92464 0.72169 0.0
O170 O 0.18106 0.91369 0.71753 0.0
C171 C 0.207 0.906 0.75212 0.0
O172 O 0.18783 0.88438 0.73366 0.0
Co173 Co 0.22254 0.88077 0.73773 0.0
O174 O 0.20472 0.86933 0.74571 0.0
C175 C 0.21953 0.89001 0.70553 0.0
C176 C 0.18984 0.92553 0.71598 0.0
C177 C 0.19113 0.8725 0.74163 0.0
O178 O 0.20645 0.89607 0.70835 0.0
O179 O 0.22821 0.88467 0.71598 0.0
O180 O 0.1937 0.91169 0.74884 0.0
O181 O 0.21481 0.90121 0.74064 0.0
Co182 Co 0.59635 0.69511 0.22851 0.0
O183 O 0.57639 0.70145 0.22227 0.0
O184 O 0.58567 0.67806 0.2197 0.0
C185 C 0.59632 0.70626 0.25162 0.0
O186 O 0.61588 0.68407 0.23432 0.0
Co187 Co 0.62201 0.71873 0.23477 0.0
O188 O 0.63283 0.7009 0.24362 0.0
C189 C 0.61073 0.71372 0.20364 0.0
C190 C 0.57441 0.6875 0.21771 0.0
C191 C 0.62844 0.68725 0.24119 0.0
O192 O 0.6045 0.70114 0.20783 0.0
O193 O 0.61691 0.72312 0.21291 0.0
O194 O 0.58961 0.69317 0.24971 0.0
O195 O 0.60127 0.71269 0.23935 0.0
Co196 Co 0.80078 0.09451 0.72849 0.0
O197 O 0.79476 0.07486 0.72103 0.0
O198 O 0.81778 0.08492 0.71831 0.0
C199 C 0.79058 0.0923 0.75198 0.0
O200 O 0.81154 0.11397 0.73532 0.0
Co201 Co 0.77696 0.11893 0.73824 0.0
O202 O 0.79484 0.12892 0.74774 0.0
C203 C 0.7826 0.1131 0.70554 0.0
C204 C 0.80861 0.07351 0.71598 0.0
C205 C 0.80841 0.12554 0.7438 0.0
O206 O 0.79376 0.10411 0.70871 0.0
O207 O 0.77411 0.11933 0.71564 0.0
O208 O 0.80379 0.08625 0.74902 0.0
O209 O 0.7835 0.09799 0.74041 0.0
Co210 Co 0.40187 0.30087 0.22953 0.0
O211 O 0.42227 0.2956 0.22369 0.0
O212 O 0.41138 0.31806 0.21964 0.0
C213 C 0.40257 0.2913 0.25335 0.0
O214 O 0.38156 0.31082 0.23457 0.0
Co215 Co 0.37802 0.2759 0.23753 0.0
O216 O 0.36588 0.29348 0.24509 0.0
C217 C 0.38815 0.28006 0.20581 0.0
C218 C 0.4233 0.30935 0.21828 0.0
C219 C 0.3692 0.3072 0.2416 0.0
O220 O 0.3941 0.293 0.20933 0.0
O221 O 0.38262 0.27088 0.21572 0.0
O222 O 0.40835 0.30468 0.25059 0.0
O223 O 0.39823 0.28374 0.24153 0.0
Co224 Co 0.27079 0.19974 0.0927 0.0
O225 O 0.27725 0.20425 0.07231 0.0
O226 O 0.28186 0.18258 0.08452 0.0
C227 C 0.24658 0.20802 0.09064 0.0
O228 O 0.26535 0.19067 0.11331 0.0
Co229 Co 0.26077 0.2256 0.11479 0.0
O230 O 0.25373 0.20838 0.12776 0.0
C231 C 0.29276 0.22274 0.1054 0.0
C232 C 0.28333 0.19074 0.07224 0.0
C233 C 0.25781 0.19464 0.12524 0.0
O234 O 0.29024 0.20904 0.10082 0.0
O235 O 0.28218 0.23181 0.10971 0.0
O236 O 0.25024 0.19455 0.08564 0.0
O237 O 0.25785 0.21641 0.09495 0.0
Co238 Co 0.27232 0.80276 0.90114 0.0
O239 O 0.27915 0.79595 0.9208 0.0
O240 O 0.28011 0.81984 0.91257 0.0
C241 C 0.24991 0.79023 0.90094 0.0
O242 O 0.26565 0.81439 0.88213 0.0
Co243 Co 0.26667 0.78021 0.87435 0.0
O244 O 0.25621 0.79788 0.86495 0.0
C245 C 0.29811 0.78815 0.88324 0.0
C246 C 0.28272 0.81008 0.92342 0.0
C247 C 0.25842 0.81143 0.8697 0.0
O248 O 0.29326 0.79841 0.89252 0.0
O249 O 0.28939 0.77923 0.87569 0.0
O250 O 0.25115 0.80311 0.90817 0.0
O251 O 0.26244 0.78476 0.89553 0.0
Co252 Co 0.69988 0.77197 0.39977 0.0
O253 O 0.70682 0.77807 0.41962 0.0
O254 O 0.68317 0.78067 0.41109 0.0
C255 C 0.71103 0.74882 0.39938 0.0
O256 O 0.68809 0.76632 0.38054 0.0
Co257 Co 0.72224 0.76521 0.37309 0.0
O258 O 0.70414 0.75551 0.36376 0.0
C259 C 0.71602 0.79705 0.38213 0.0
C260 C 0.6929 0.7825 0.42211 0.0
C261 C 0.6907 0.75868 0.36827 0.0
O262 O 0.70559 0.79273 0.3915 0.0
O263 O 0.72434 0.78785 0.37445 0.0
O264 O 0.69815 0.75075 0.40648 0.0
O265 O 0.71731 0.76107 0.3942 0.0
Co266 Co 0.72601 0.19725 0.89939 0.0
O267 O 0.71939 0.20484 0.91881 0.0
O268 O 0.71762 0.18077 0.91127 0.0
C269 C 0.7488 0.20906 0.89896 0.0
O270 O 0.73232 0.18489 0.88071 0.0
Co271 Co 0.73259 0.21887 0.87202 0.0
O272 O 0.74249 0.20063 0.86322 0.0
C273 C 0.7008 0.21212 0.88088 0.0
C274 C 0.71534 0.19092 0.92183 0.0
C275 C 0.73974 0.18729 0.86826 0.0
O276 O 0.70525 0.20207 0.8906 0.0
O277 O 0.7099 0.22046 0.87311 0.0
O278 O 0.74715 0.19639 0.90648 0.0
O279 O 0.73647 0.21476 0.89335 0.0
Co280 Co 0.3007 0.22664 0.40346 0.0
O281 O 0.295 0.21991 0.42345 0.0
O282 O 0.31763 0.21611 0.41277 0.0
C283 C 0.29147 0.25051 0.40512 0.0
O284 O 0.31101 0.23259 0.38354 0.0
Co285 Co 0.27617 0.23608 0.37966 0.0
O286 O 0.29398 0.24428 0.36834 0.0
C287 C 0.27959 0.20391 0.38864 0.0
C288 C 0.30868 0.21432 0.42446 0.0
C289 C 0.30762 0.2405 0.37164 0.0
O290 O 0.29262 0.20691 0.3947 0.0
O291 O 0.2707 0.21424 0.38341 0.0
O292 O 0.30471 0.24729 0.41097 0.0
O293 O 0.2838 0.239 0.40015 0.0
Co294 Co 0.72652 0.80019 0.0976 0.0
O295 O 0.72127 0.79336 0.07751 0.0
O296 O 0.71543 0.81603 0.08704 0.0
C297 C 0.75098 0.79231 0.09725 0.0
O298 O 0.7307 0.81158 0.11742 0.0
Co299 Co 0.73642 0.77712 0.12269 0.0
O300 O 0.74233 0.7958 0.13395 0.0
C301 C 0.70446 0.77824 0.11234 0.0
C302 C 0.71492 0.8066 0.07561 0.0
C303 C 0.73783 0.80904 0.13 0.0
O304 O 0.70691 0.79112 0.10569 0.0
O305 O 0.7151 0.77029 0.11839 0.0
O306 O 0.74727 0.80519 0.09088 0.0
O307 O 0.73974 0.78422 0.10211 0.0
Co308 Co 0.69957 0.22853 0.59794 0.0
O309 O 0.70719 0.22227 0.57838 0.0
O310 O 0.68326 0.21976 0.58613 0.0
C311 C 0.71071 0.25169 0.59855 0.0
O312 O 0.68715 0.23436 0.61671 0.0
Co313 Co 0.7211 0.23548 0.62526 0.0
O314 O 0.70266 0.24508 0.63405 0.0
C315 C 0.71495 0.20357 0.61646 0.0
C316 C 0.69336 0.21784 0.57546 0.0
C317 C 0.68938 0.24193 0.6291 0.0
O318 O 0.70495 0.20784 0.6066 0.0
O319 O 0.72303 0.21281 0.62432 0.0
O320 O 0.69809 0.24971 0.59102 0.0
O321 O 0.71681 0.23946 0.60398 0.0
Co322 Co 0.29796 0.7697 0.59748 0.0
O323 O 0.29137 0.77696 0.57788 0.0
O324 O 0.31487 0.77898 0.58699 0.0
C325 C 0.28677 0.74662 0.59635 0.0
O326 O 0.30948 0.76294 0.6165 0.0
Co327 Co 0.27532 0.76128 0.62344 0.0
O328 O 0.29339 0.7515 0.63281 0.0
C329 C 0.28126 0.79362 0.61609 0.0
C330 C 0.30535 0.78147 0.57591 0.0
C331 C 0.30683 0.75487 0.62847 0.0
O332 O 0.29203 0.78994 0.60683 0.0
O333 O 0.27287 0.78391 0.62303 0.0
O334 O 0.29979 0.74889 0.58963 0.0
O335 O 0.28045 0.75857 0.60214 0.0
Co336 Co 0.90084 0.72852 0.7989 0.0
O337 O 0.92063 0.72236 0.79185 0.0
O338 O 0.91232 0.72013 0.81563 0.0
C339 C 0.90011 0.75153 0.78757 0.0
O340 O 0.88179 0.73436 0.81084 0.0
Co341 Co 0.87386 0.73474 0.7768 0.0
O342 O 0.86457 0.74461 0.79486 0.0
C343 C 0.88286 0.70306 0.78366 0.0
C344 C 0.92325 0.71818 0.80583 0.0
C345 C 0.86941 0.74181 0.80827 0.0
O346 O 0.89255 0.70766 0.79367 0.0
O347 O 0.87495 0.71203 0.77532 0.0
O348 O 0.90745 0.74974 0.80032 0.0
O349 O 0.89502 0.73919 0.78138 0.0
Co350 Co 0.76676 0.40365 0.29755 0.0
O351 O 0.77255 0.42409 0.29232 0.0
O352 O 0.77712 0.41296 0.31457 0.0
C353 C 0.74269 0.40438 0.28867 0.0
O354 O 0.76187 0.38329 0.30748 0.0
Co355 Co 0.75794 0.37994 0.27273 0.0
O356 O 0.75026 0.36808 0.29044 0.0
C357 C 0.78996 0.38942 0.27629 0.0
C358 C 0.77828 0.42496 0.30596 0.0
C359 C 0.75427 0.37122 0.30406 0.0
O360 O 0.78674 0.39583 0.28911 0.0
O361 O 0.77981 0.38379 0.26744 0.0
O362 O 0.74584 0.41013 0.30197 0.0
O363 O 0.75431 0.40016 0.28072 0.0
Co364 Co 0.09555 0.26641 0.80024 0.0
O365 O 0.07522 0.27239 0.79482 0.0
O366 O 0.08622 0.27688 0.81716 0.0
C367 C 0.09453 0.24239 0.79135 0.0
O368 O 0.11571 0.26133 0.81047 0.0
Co369 Co 0.11958 0.25715 0.77598 0.0
O370 O 0.13118 0.24945 0.79385 0.0
C371 C 0.10963 0.28917 0.77865 0.0
C372 C 0.07432 0.27818 0.80843 0.0
C373 C 0.12773 0.25352 0.80736 0.0
O374 O 0.10349 0.2863 0.79167 0.0
O375 O 0.11533 0.27879 0.77011 0.0
O376 O 0.0889 0.24556 0.8047 0.0
O377 O 0.09905 0.25391 0.78343 0.0
Co378 Co 0.22932 0.59567 0.30035 0.0
O379 O 0.22591 0.57509 0.29415 0.0
O380 O 0.21892 0.58475 0.31647 0.0
C381 C 0.25374 0.59707 0.29258 0.0
O382 O 0.23191 0.61617 0.31095 0.0
Co383 Co 0.23693 0.62037 0.27602 0.0
O384 O 0.2423 0.63265 0.29424 0.0
C385 C 0.20593 0.60782 0.27806 0.0
C386 C 0.21962 0.57305 0.30737 0.0
C387 C 0.23824 0.62903 0.30774 0.0
O388 O 0.20913 0.6019 0.29111 0.0
O389 O 0.21591 0.61425 0.26958 0.0
O390 O 0.2505 0.59085 0.30565 0.0
O391 O 0.24218 0.60063 0.28426 0.0
Co392 Co 0.90531 0.27119 0.20039 0.0
O393 O 0.92573 0.27736 0.2051 0.0
O394 O 0.91399 0.28171 0.1831 0.0
C395 C 0.90682 0.24713 0.20921 0.0
O396 O 0.8847 0.26591 0.19117 0.0
Co397 Co 0.8828 0.26219 0.22628 0.0
O398 O 0.87005 0.25479 0.20905 0.0
C399 C 0.89254 0.294 0.22262 0.0
C400 C 0.92617 0.28309 0.19144 0.0
C401 C 0.87267 0.25855 0.19524 0.0
O402 O 0.89739 0.29101 0.2091 0.0
O403 O 0.88792 0.28375 0.23191 0.0
O404 O 0.91209 0.25042 0.19574 0.0
O405 O 0.90262 0.25866 0.2173 0.0
Co406 Co 0.2279 0.39882 0.7006 0.0
O407 O 0.22098 0.41839 0.70756 0.0
O408 O 0.2178 0.40933 0.68417 0.0
C409 C 0.25153 0.40003 0.71062 0.0
O410 O 0.23408 0.37979 0.68878 0.0
Co411 Co 0.23751 0.37295 0.72288 0.0
O412 O 0.24641 0.36363 0.70435 0.0
C413 C 0.20487 0.38011 0.71841 0.0
C414 C 0.21585 0.42041 0.6938 0.0
C415 C 0.24231 0.36785 0.69108 0.0
O416 O 0.208 0.38941 0.70749 0.0
O417 O 0.215 0.37327 0.72637 0.0
O418 O 0.24858 0.40674 0.69773 0.0
O419 O 0.23994 0.39421 0.71754 0.0
Co420 Co 0.09538 0.72559 0.19855 0.0
O421 O 0.07491 0.72006 0.20379 0.0
O422 O 0.08561 0.71615 0.18121 0.0
C423 C 0.09509 0.74927 0.20846 0.0
O424 O 0.11583 0.73046 0.18875 0.0
Co425 Co 0.11918 0.73257 0.22391 0.0
O426 O 0.13155 0.7402 0.20652 0.0
C427 C 0.10806 0.70136 0.21926 0.0
C428 C 0.0737 0.71492 0.18996 0.0
C429 C 0.12829 0.73716 0.19267 0.0
O430 O 0.10277 0.70511 0.2061 0.0
O431 O 0.11352 0.71096 0.22877 0.0
O432 O 0.08925 0.74679 0.19506 0.0
O433 O 0.0992 0.73726 0.21586 0.0
Co434 Co 0.77224 0.59846 0.69741 0.0
O435 O 0.779 0.57888 0.70461 0.0
O436 O 0.78055 0.58696 0.68069 0.0
C437 C 0.74951 0.59887 0.70936 0.0
O438 O 0.76586 0.61718 0.68527 0.0
Co439 Co 0.76589 0.62577 0.71904 0.0
O440 O 0.75544 0.63447 0.70101 0.0
C441 C 0.7976 0.61688 0.71215 0.0
C442 C 0.78306 0.57623 0.69059 0.0
C443 C 0.75817 0.62944 0.68766 0.0
O444 O 0.79303 0.60718 0.70215 0.0
O445 O 0.78862 0.62475 0.72052 0.0
O446 O 0.7511 0.59141 0.69664 0.0
O447 O 0.76189 0.6044 0.71507 0.0
Co448 Co 0.79633 0.90603 0.73269 0.0
O449 O 0.79173 0.92597 0.72497 0.0
O450 O 0.81318 0.91334 0.72056 0.0
C451 C 0.78881 0.91017 0.75692 0.0
O452 O 0.80557 0.88573 0.73918 0.0
Co453 Co 0.77138 0.8847 0.74603 0.0
O454 O 0.78916 0.87378 0.75479 0.0
C455 C 0.77416 0.88857 0.7126 0.0
C456 C 0.80508 0.9256 0.71858 0.0
C457 C 0.8024 0.87529 0.749 0.0
O458 O 0.78639 0.89654 0.71417 0.0
O459 O 0.76622 0.8837 0.72384 0.0
O460 O 0.80228 0.91448 0.7525 0.0
O461 O 0.78004 0.90495 0.74636 0.0
Co462 Co 0.59152 0.29897 0.23046 0.0
O463 O 0.57136 0.29424 0.22347 0.0
O464 O 0.58333 0.31616 0.21945 0.0
C465 C 0.58896 0.29033 0.25448 0.0
O466 O 0.6118 0.30841 0.23655 0.0
Co467 Co 0.61398 0.27369 0.24095 0.0
O468 O 0.62629 0.29106 0.24868 0.0
C469 C 0.60608 0.27686 0.20843 0.0
C470 C 0.5712 0.30785 0.21761 0.0
C471 C 0.62354 0.30472 0.24455 0.0
O472 O 0.6002 0.29006 0.21105 0.0
O473 O 0.61082 0.26804 0.21906 0.0
O474 O 0.58393 0.30382 0.25089 0.0
O475 O 0.59372 0.28214 0.24324 0.0
Co476 Co 0.20278 0.09469 0.7314 0.0
O477 O 0.20716 0.07402 0.7258 0.0
O478 O 0.18562 0.08619 0.72057 0.0
C479 C 0.21096 0.09338 0.75569 0.0
O480 O 0.19373 0.11554 0.73598 0.0
Co481 Co 0.22832 0.11719 0.7411 0.0
O482 O 0.21091 0.12941 0.74894 0.0
C483 C 0.22535 0.10791 0.70888 0.0
C484 C 0.19368 0.07378 0.71968 0.0
C485 C 0.19735 0.1271 0.74426 0.0
O486 O 0.21221 0.10198 0.71165 0.0
O487 O 0.234 0.11329 0.71933 0.0
O488 O 0.1974 0.0885 0.75218 0.0
O489 O 0.21944 0.09727 0.74433 0.0
Co490 Co 0.40353 0.69864 0.22727 0.0
O491 O 0.42312 0.70457 0.21954 0.0
O492 O 0.41325 0.68134 0.21791 0.0
C493 C 0.40538 0.70987 0.25029 0.0
O494 O 0.38431 0.68783 0.23453 0.0
Co495 Co 0.37853 0.72229 0.23573 0.0
O496 O 0.36884 0.7047 0.24604 0.0
C497 C 0.38495 0.71552 0.20339 0.0
C498 C 0.42453 0.69051 0.21507 0.0
C499 C 0.37265 0.69106 0.24283 0.0
O500 O 0.39397 0.70459 0.20716 0.0
O501 O 0.37845 0.72433 0.21303 0.0
O502 O 0.41175 0.6967 0.24792 0.0
O503 O 0.39964 0.71637 0.2384 0.0
Co504 Co 0.80278 0.09678 0.27097 0.0
O505 O 0.79617 0.07714 0.27795 0.0
O506 O 0.81979 0.08596 0.27974 0.0
C507 C 0.79113 0.09606 0.2481 0.0
O508 O 0.81418 0.11594 0.26434 0.0
Co509 Co 0.77982 0.12282 0.26365 0.0
O510 O 0.79768 0.1325 0.25384 0.0
C511 C 0.7868 0.11504 0.29568 0.0
C512 C 0.81019 0.07494 0.28216 0.0
C513 C 0.81123 0.12817 0.25676 0.0
O514 O 0.79737 0.10576 0.2915 0.0
O515 O 0.77812 0.12216 0.28636 0.0
O516 O 0.80417 0.08927 0.24999 0.0
O517 O 0.78506 0.10165 0.26026 0.0
Co518 Co 0.40148 0.2963 0.76944 0.0
O519 O 0.42096 0.28956 0.7768 0.0
O520 O 0.41146 0.31276 0.78004 0.0
C521 C 0.40349 0.28659 0.74572 0.0
O522 O 0.38244 0.30788 0.76286 0.0
Co523 Co 0.37631 0.27369 0.75881 0.0
O524 O 0.36694 0.29218 0.74985 0.0
C525 C 0.38245 0.27788 0.79172 0.0
C526 C 0.42265 0.30327 0.78215 0.0
C527 C 0.37081 0.30548 0.75423 0.0
O528 O 0.39157 0.28905 0.78897 0.0
O529 O 0.37619 0.26986 0.78126 0.0
O530 O 0.40991 0.29955 0.74899 0.0
O531 O 0.3975 0.27945 0.75709 0.0
Co532 Co 0.19642 0.89986 0.27512 0.0
O533 O 0.20307 0.91959 0.28179 0.0
O534 O 0.17939 0.9109 0.28359 0.0
C535 C 0.20814 0.90011 0.25227 0.0
O536 O 0.18505 0.88058 0.26877 0.0
Co537 Co 0.21949 0.87372 0.26865 0.0
O538 O 0.20177 0.86398 0.25867 0.0
C539 C 0.21216 0.88211 0.3004 0.0
C540 C 0.18903 0.92192 0.28589 0.0
C541 C 0.18816 0.86828 0.26136 0.0
O542 O 0.20166 0.89129 0.29586 0.0
O543 O 0.22095 0.87475 0.29138 0.0
O544 O 0.19514 0.907 0.25404 0.0
O545 O 0.2142 0.89475 0.26456 0.0
Co546 Co 0.5965 0.70059 0.76953 0.0
O547 O 0.57591 0.70603 0.77447 0.0
O548 O 0.58669 0.68381 0.77988 0.0
C549 C 0.59651 0.70905 0.74526 0.0
O550 O 0.61704 0.69053 0.76548 0.0
Co551 Co 0.62045 0.72532 0.76101 0.0
O552 O 0.63258 0.70749 0.75417 0.0
C553 C 0.60955 0.72255 0.79268 0.0
C554 C 0.57471 0.69253 0.78042 0.0
C555 C 0.62937 0.69391 0.75826 0.0
O556 O 0.60358 0.70948 0.78963 0.0
O557 O 0.61542 0.73117 0.78248 0.0
O558 O 0.59069 0.69579 0.74846 0.0
O559 O 0.60041 0.71717 0.75687 0.0
Co560 Co 0.7301 0.79934 0.90277 0.0
O561 O 0.72266 0.79239 0.92213 0.0
O562 O 0.71881 0.81548 0.9126 0.0
C563 C 0.75403 0.79035 0.90525 0.0
O564 O 0.73662 0.81101 0.88371 0.0
Co565 Co 0.7419 0.77697 0.87791 0.0
O566 O 0.75112 0.79567 0.8692 0.0
C567 C 0.70877 0.77997 0.88361 0.0
C568 C 0.71681 0.8059 0.92373 0.0
C569 C 0.74606 0.80885 0.87266 0.0
O570 O 0.71097 0.79135 0.89264 0.0
O571 O 0.7196 0.77232 0.87751 0.0
O572 O 0.75031 0.80328 0.91149 0.0
O573 O 0.74298 0.78287 0.89911 0.0
Co574 Co 0.7269 0.19994 0.09932 0.0
O575 O 0.72208 0.20703 0.07917 0.0
O576 O 0.71882 0.18334 0.08742 0.0
C577 C 0.75005 0.21089 0.1013 0.0
O578 O 0.73126 0.1881 0.11879 0.0
Co579 Co 0.73175 0.22246 0.1263 0.0
O580 O 0.74011 0.20418 0.13666 0.0
C581 C 0.70087 0.21692 0.11439 0.0
C582 C 0.71769 0.19316 0.07637 0.0
C583 C 0.73756 0.19074 0.13177 0.0
O584 O 0.70571 0.20569 0.10632 0.0
O585 O 0.70954 0.22567 0.12218 0.0
O586 O 0.74849 0.1981 0.09397 0.0
O587 O 0.73752 0.21727 0.10564 0.0
Co588 Co 0.29949 0.2277 0.59598 0.0
O589 O 0.29315 0.22051 0.57628 0.0
O590 O 0.31643 0.21811 0.58583 0.0
C591 C 0.28873 0.251 0.59458 0.0
O592 O 0.31076 0.23428 0.61518 0.0
Co593 Co 0.27652 0.23658 0.62149 0.0
O594 O 0.29458 0.24605 0.63118 0.0
C595 C 0.28239 0.2041 0.6147 0.0
C596 C 0.3071 0.2158 0.57456 0.0
C597 C 0.30804 0.24239 0.62711 0.0
O598 O 0.29314 0.2076 0.60534 0.0
O599 O 0.27405 0.21394 0.62151 0.0
O600 O 0.30181 0.24845 0.58807 0.0
O601 O 0.28209 0.23919 0.60029 0.0
Co602 Co 0.27242 0.80056 0.09963 0.0
O603 O 0.27816 0.79415 0.07951 0.0
O604 O 0.28066 0.81764 0.0885 0.0
C605 C 0.24941 0.78914 0.10021 0.0
O606 O 0.26709 0.81177 0.11929 0.0
Co607 Co 0.2665 0.7773 0.12577 0.0
O608 O 0.25719 0.79509 0.13604 0.0
C609 C 0.29807 0.7844 0.11642 0.0
C610 C 0.28234 0.80817 0.07723 0.0
C611 C 0.26005 0.80869 0.13181 0.0
O612 O 0.29341 0.79493 0.10733 0.0
O613 O 0.28916 0.77573 0.12404 0.0
O614 O 0.25105 0.80223 0.09343 0.0
O615 O 0.26183 0.78286 0.10494 0.0
Co616 Co 0.70224 0.7683 0.59424 0.0
O617 O 0.70817 0.77573 0.57455 0.0
O618 O 0.68555 0.77946 0.58523 0.0
C619 C 0.71109 0.74435 0.59151 0.0
O620 O 0.69168 0.76173 0.61387 0.0
Co621 Co 0.72641 0.7572 0.61772 0.0
O622 O 0.7084 0.74947 0.62899 0.0
C623 C 0.72316 0.79002 0.61108 0.0
C624 C 0.69456 0.7815 0.57364 0.0
C625 C 0.69487 0.75367 0.62572 0.0
O626 O 0.71058 0.78751 0.60393 0.0
O627 O 0.73172 0.77931 0.61608 0.0
O628 O 0.69792 0.74807 0.58581 0.0
O629 O 0.71893 0.75547 0.59706 0.0
Co630 Co 0.26805 0.20079 0.90544 0.0
O631 O 0.27409 0.20517 0.92598 0.0
O632 O 0.27939 0.18378 0.91356 0.0
C633 C 0.24365 0.20854 0.90735 0.0
O634 O 0.26311 0.19177 0.88464 0.0
Co635 Co 0.25735 0.2263 0.88331 0.0
O636 O 0.24962 0.20884 0.87112 0.0
C637 C 0.28982 0.22387 0.89184 0.0
C638 C 0.28046 0.19179 0.92599 0.0
C639 C 0.25458 0.19534 0.87324 0.0
O640 O 0.28742 0.21063 0.89772 0.0
O641 O 0.27908 0.23237 0.88677 0.0
O642 O 0.24752 0.19506 0.91217 0.0
O643 O 0.25477 0.2172 0.90322 0.0
Co644 Co 0.30212 0.7728 0.40057 0.0
O645 O 0.29494 0.77883 0.42033 0.0
O646 O 0.31885 0.78081 0.41237 0.0
C647 C 0.29018 0.75007 0.39972 0.0
O648 O 0.31406 0.76707 0.38144 0.0
Co649 Co 0.27991 0.7673 0.37348 0.0
O650 O 0.29789 0.75748 0.36403 0.0
C651 C 0.28709 0.79872 0.38316 0.0
C652 C 0.30891 0.78282 0.42318 0.0
C653 C 0.31136 0.76003 0.36883 0.0
O654 O 0.29724 0.79385 0.39256 0.0
O655 O 0.27854 0.78998 0.37521 0.0
O656 O 0.30303 0.75145 0.40699 0.0
O657 O 0.28443 0.76259 0.39457 0.0
Co658 Co 0.69934 0.2271 0.39945 0.0
O659 O 0.70675 0.22019 0.41884 0.0
O660 O 0.68287 0.218 0.41084 0.0
C661 C 0.71056 0.2502 0.3998 0.0
O662 O 0.68723 0.23357 0.38065 0.0
Co663 Co 0.72121 0.23489 0.37266 0.0
O664 O 0.70317 0.24613 0.36503 0.0
C665 C 0.71499 0.20269 0.38046 0.0
C666 C 0.69289 0.21571 0.42152 0.0
C667 C 0.68976 0.24256 0.36931 0.0
O668 O 0.70481 0.20669 0.39025 0.0
O669 O 0.72315 0.21218 0.37295 0.0
O670 O 0.69781 0.24802 0.40705 0.0
O671 O 0.71669 0.23815 0.39401 0.0
H672 H 0.94989 0.2936 0.20815 0.0
H673 H 0.97465 0.30193 0.19891 0.0
H674 H 0.95931 0.29687 0.15245 0.0
H675 H 0.93424 0.28845 0.16172 0.0
H676 H 0.98503 0.2803 0.15905 0.0
H677 H 0.9935 0.33916 0.17888 0.0
H678 H 0.98556 0.32786 0.19393 0.0
H679 H 0.97476 0.33085 0.17669 0.0
C680 C 0.95164 0.29458 0.19596 0.0
C681 C 0.94021 0.29026 0.18565 0.0
C682 C 0.96576 0.29954 0.19068 0.0
C683 C 0.96875 0.30028 0.17498 0.0
C684 C 0.95714 0.29659 0.1646 0.0
H685 H 0.0673 0.28838 0.15888 0.0
H686 H 0.04185 0.29688 0.15086 0.0
C687 C 0.94288 0.29175 0.16991 0.0
C688 C 0.98471 0.30229 0.16992 0.0
H689 H 0.01635 0.32265 0.17955 0.0
C690 C 0.99189 0.28982 0.16294 0.0
C691 C 0.99358 0.31479 0.17486 0.0
C692 C 0.98638 0.32898 0.18135 0.0
C693 C 0.00782 0.28863 0.16263 0.0
C694 C 0.01668 0.30033 0.1693 0.0
C695 C 0.00951 0.3136 0.17462 0.0
C696 C 0.03269 0.29756 0.17375 0.0
C697 C 0.01499 0.27417 0.15664 0.0
C698 C 0.03603 0.29567 0.18927 0.0
C699 C 0.05044 0.29084 0.19386 0.0
C700 C 0.06181 0.28784 0.183 0.0
C701 C 0.0587 0.2905 0.16749 0.0
C702 C 0.04421 0.29533 0.16289 0.0
H703 H 0.00635 0.26573 0.15284 0.0
H704 H 0.02245 0.27691 0.1468 0.0
H705 H 0.02218 0.26883 0.16559 0.0
H706 H 0.02727 0.2973 0.19783 0.0
H707 H 0.05251 0.28902 0.2059 0.0
H708 H 0.21484 0.54837 0.71097 0.0
H709 H 0.20664 0.52294 0.70348 0.0
H710 H 0.20202 0.53785 0.65685 0.0
H711 H 0.21038 0.56355 0.66428 0.0
H712 H 0.17904 0.51264 0.68744 0.0
H713 H 0.23331 0.50182 0.65596 0.0
H714 H 0.23173 0.51742 0.66928 0.0
H715 H 0.22201 0.51832 0.65132 0.0
C716 C 0.21201 0.54632 0.69913 0.0
C717 C 0.21341 0.5579 0.68818 0.0
C718 C 0.20723 0.5318 0.69489 0.0
C719 C 0.2038 0.52854 0.67963 0.0
C720 C 0.20472 0.54016 0.66868 0.0
H721 H 0.20921 0.43018 0.66491 0.0
H722 H 0.20136 0.45592 0.65727 0.0
C723 C 0.20948 0.55479 0.67294 0.0
C724 C 0.20046 0.5126 0.67543 0.0
H725 H 0.21901 0.48065 0.66345 0.0
C726 C 0.18753 0.50565 0.68178 0.0
C727 C 0.21144 0.50358 0.66783 0.0
C728 C 0.22545 0.51056 0.6607 0.0
C729 C 0.18604 0.48974 0.68201 0.0
C730 C 0.19792 0.48066 0.67602 0.0
C731 C 0.20998 0.48766 0.66817 0.0
C732 C 0.19971 0.46447 0.68035 0.0
C733 C 0.1722 0.4828 0.68947 0.0
C734 C 0.20122 0.46074 0.69584 0.0
C735 C 0.2058 0.44617 0.70021 0.0
C736 C 0.20902 0.43506 0.68916 0.0
C737 C 0.20679 0.43854 0.67367 0.0
C738 C 0.20228 0.4532 0.66928 0.0
H739 H 0.16204 0.49021 0.6879 0.0
H740 H 0.16967 0.47131 0.68479 0.0
H741 H 0.17426 0.48173 0.70191 0.0
H742 H 0.1997 0.46934 0.70456 0.0
H743 H 0.2074 0.44382 0.71223 0.0
H744 H 0.06554 0.70785 0.16056 0.0
H745 H 0.0402 0.69989 0.15161 0.0
H746 H 0.02395 0.69975 0.19803 0.0
H747 H 0.04901 0.70753 0.20699 0.0
H748 H 0.01319 0.67461 0.17928 0.0
H749 H 0.00522 0.73191 0.15269 0.0
H750 H 0.02131 0.72043 0.14719 0.0
H751 H 0.02051 0.72843 0.16599 0.0
C752 C 0.0566 0.70589 0.16884 0.0
C753 C 0.05917 0.70851 0.18445 0.0
C754 C 0.04216 0.70136 0.16371 0.0
C755 C 0.03021 0.69937 0.17417 0.0
C756 C 0.03304 0.7012 0.18979 0.0
H757 H 0.9455 0.7043 0.20545 0.0
H758 H 0.97063 0.69572 0.19743 0.0
C759 C 0.04735 0.70576 0.19488 0.0
C760 C 0.0143 0.69697 0.16919 0.0
H761 H 0.9834 0.71782 0.15829 0.0
C762 C 0.00669 0.68384 0.17423 0.0
C763 C 0.00589 0.70894 0.16242 0.0
C764 C 0.01355 0.72328 0.15676 0.0
C765 C 0.99073 0.68301 0.17405 0.0
C766 C 0.98227 0.69574 0.16896 0.0
C767 C 0.98993 0.70812 0.16231 0.0
C768 C 0.9661 0.69793 0.17325 0.0
C769 C 0.98306 0.66892 0.18019 0.0
C770 C 0.95514 0.70199 0.16232 0.0
C771 C 0.9407 0.70699 0.16692 0.0
C772 C 0.93716 0.70824 0.18251 0.0
C773 C 0.94792 0.7035 0.19336 0.0
C774 C 0.96224 0.69841 0.18877 0.0
H775 H 0.99006 0.65862 0.17789 0.0
H776 H 0.98182 0.66997 0.19274 0.0
H777 H 0.97157 0.6673 0.17512 0.0
H778 H 0.95797 0.70188 0.1503 0.0
H779 H 0.93262 0.7106 0.15831 0.0
H780 H 0.78797 0.45078 0.71074 0.0
H781 H 0.79743 0.4753 0.70198 0.0
H782 H 0.80013 0.45814 0.65596 0.0
H783 H 0.79039 0.43335 0.6647 0.0
H784 H 0.82364 0.48559 0.68523 0.0
H785 H 0.76888 0.49331 0.65365 0.0
H786 H 0.77118 0.47803 0.66721 0.0
H787 H 0.78087 0.47728 0.64921 0.0
C788 C 0.79075 0.4521 0.69878 0.0
C789 C 0.78818 0.44025 0.68836 0.0
C790 C 0.79628 0.4661 0.69381 0.0
C791 C 0.79931 0.46857 0.67831 0.0
C792 C 0.79769 0.45648 0.66795 0.0
H793 H 0.78944 0.56615 0.66176 0.0
H794 H 0.79838 0.54072 0.65436 0.0
C795 C 0.79216 0.44236 0.67296 0.0
C796 C 0.80224 0.48436 0.67325 0.0
H797 H 0.78219 0.51517 0.66068 0.0
C798 C 0.81485 0.49205 0.6794 0.0
C799 C 0.79086 0.49272 0.66545 0.0
C800 C 0.77714 0.48501 0.65849 0.0
C801 C 0.81553 0.50801 0.67939 0.0
C802 C 0.80319 0.51638 0.67331 0.0
C803 C 0.79155 0.50869 0.6655 0.0
C804 C 0.80048 0.53248 0.67752 0.0
C805 C 0.82897 0.51576 0.68678 0.0
C806 C 0.79874 0.53626 0.69297 0.0
C807 C 0.79352 0.55065 0.69722 0.0
C808 C 0.78987 0.56154 0.68608 0.0
C809 C 0.79215 0.55797 0.67061 0.0
C810 C 0.79732 0.54349 0.66635 0.0
H811 H 0.83951 0.50888 0.6853 0.0
H812 H 0.83089 0.52732 0.68197 0.0
H813 H 0.82684 0.51686 0.6992 0.0
H814 H 0.80068 0.52782 0.70177 0.0
H815 H 0.7919 0.55308 0.70922 0.0
H816 H 0.93332 0.71186 0.8347 0.0
H817 H 0.9592 0.70441 0.84228 0.0
H818 H 0.97277 0.70357 0.79502 0.0
H819 H 0.94706 0.71087 0.78736 0.0
H820 H 0.98469 0.67873 0.81395 0.0
H821 H 0.99374 0.73684 0.83831 0.0
H822 H 0.97784 0.72572 0.84496 0.0
H823 H 0.97794 0.7328 0.82578 0.0
C824 C 0.94178 0.70987 0.82593 0.0
C825 C 0.93825 0.71214 0.81044 0.0
C826 C 0.95653 0.70564 0.83028 0.0
C827 C 0.96787 0.70359 0.8192 0.0
C828 C 0.96414 0.70509 0.80373 0.0
H829 H 0.0535 0.70667 0.78774 0.0
H830 H 0.02792 0.6992 0.79544 0.0
C831 C 0.94947 0.70935 0.79938 0.0
C832 C 0.984 0.70137 0.82344 0.0
H833 H 0.0153 0.72198 0.83368 0.0
C834 C 0.99138 0.68801 0.81866 0.0
C835 C 0.99264 0.71343 0.82975 0.0
C836 C 0.98524 0.72806 0.83498 0.0
C837 C 0.00732 0.6869 0.81888 0.0
C838 C 0.016 0.69956 0.82373 0.0
C839 C 0.00858 0.71231 0.82992 0.0
C840 C 0.03226 0.7012 0.81967 0.0
C841 C 0.01476 0.67251 0.81313 0.0
C842 C 0.04325 0.70478 0.83074 0.0
C843 C 0.05797 0.70908 0.82633 0.0
C844 C 0.06173 0.71017 0.81079 0.0
C845 C 0.05089 0.706 0.7998 0.0
C846 C 0.03631 0.70155 0.8042 0.0
H847 H 0.00742 0.66243 0.81531 0.0
H848 H 0.01645 0.67341 0.80062 0.0
H849 H 0.02604 0.67065 0.81858 0.0
H850 H 0.04026 0.70478 0.84273 0.0
H851 H 0.06613 0.71228 0.83503 0.0
H852 H 0.78892 0.56536 0.33665 0.0
H853 H 0.79773 0.54023 0.34539 0.0
H854 H 0.80087 0.52523 0.29864 0.0
H855 H 0.79214 0.55004 0.28994 0.0
H856 H 0.78098 0.51464 0.33953 0.0
H857 H 0.83868 0.50591 0.3168 0.0
H858 H 0.83064 0.52471 0.31952 0.0
H859 H 0.82689 0.51412 0.30229 0.0
C860 C 0.79189 0.55679 0.32827 0.0
C861 C 0.78973 0.55956 0.31262 0.0
C862 C 0.79696 0.54249 0.33327 0.0
C863 C 0.80022 0.53095 0.32267 0.0
C864 C 0.79883 0.53406 0.30703 0.0
H865 H 0.78497 0.45013 0.28928 0.0
H866 H 0.79433 0.47458 0.29847 0.0
C867 C 0.79364 0.54821 0.30206 0.0
C868 C 0.80238 0.51494 0.3275 0.0
H869 H 0.82166 0.48327 0.31594 0.0
C870 C 0.79019 0.50776 0.33498 0.0
C871 C 0.8145 0.50601 0.32177 0.0
C872 C 0.82849 0.51316 0.31481 0.0
C873 C 0.78875 0.49183 0.3349 0.0
C874 C 0.79988 0.48301 0.32728 0.0
C875 C 0.81303 0.4901 0.32159 0.0
C876 C 0.79633 0.46742 0.322 0.0
C877 C 0.77453 0.48469 0.34145 0.0
C878 C 0.79465 0.45519 0.33217 0.0
C879 C 0.78923 0.44112 0.32692 0.0
C880 C 0.78537 0.43919 0.31146 0.0
C881 C 0.78771 0.45129 0.30126 0.0
C882 C 0.79316 0.46525 0.30648 0.0
H883 H 0.76674 0.49328 0.34654 0.0
H884 H 0.76829 0.47842 0.33241 0.0
H885 H 0.77771 0.47638 0.35044 0.0
H886 H 0.79713 0.45666 0.34418 0.0
H887 H 0.78761 0.43194 0.33502 0.0
H888 H 0.05066 0.28788 0.79108 0.0
H889 H 0.02605 0.29727 0.79978 0.0
H890 H 0.04113 0.29431 0.8465 0.0
H891 H 0.06603 0.28487 0.8378 0.0
H892 H 0.01465 0.27826 0.84051 0.0
H893 H 0.00889 0.33649 0.81794 0.0
H894 H 0.01662 0.32414 0.8036 0.0
H895 H 0.02723 0.32753 0.82088 0.0
C896 C 0.04887 0.2895 0.8032 0.0
C897 C 0.06019 0.28553 0.81377 0.0
C898 C 0.03486 0.29506 0.80815 0.0
C899 C 0.03186 0.29676 0.82378 0.0
C900 C 0.04332 0.2933 0.83439 0.0
H901 H 0.93254 0.28899 0.83715 0.0
H902 H 0.95779 0.29715 0.84617 0.0
C903 C 0.05748 0.28786 0.8294 0.0
C904 C 0.01601 0.2997 0.82867 0.0
H905 H 0.9854 0.32093 0.81773 0.0
C906 C 0.00824 0.28788 0.83613 0.0
C907 C 0.00775 0.31237 0.82313 0.0
C908 C 0.01562 0.32592 0.81609 0.0
C909 C 0.99227 0.28737 0.83626 0.0
C910 C 0.984 0.29909 0.8289 0.0
C911 C 0.99178 0.31186 0.82321 0.0
C912 C 0.96816 0.29653 0.82379 0.0
C913 C 0.98442 0.27349 0.84274 0.0
C914 C 0.9656 0.29398 0.80822 0.0
C915 C 0.95134 0.28933 0.80308 0.0
C916 C 0.93932 0.28718 0.81342 0.0
C917 C 0.94165 0.29047 0.82895 0.0
C918 C 0.95603 0.29511 0.83412 0.0
H919 H 0.99263 0.26507 0.84743 0.0
H920 H 0.97658 0.27701 0.85202 0.0
H921 H 0.97751 0.26783 0.83377 0.0
H922 H 0.97484 0.29497 0.80009 0.0
H923 H 0.94987 0.28702 0.79104 0.0
H924 H 0.18514 0.43109 0.30535 0.0
H925 H 0.17632 0.45706 0.31113 0.0
H926 H 0.22008 0.46716 0.33134 0.0
H927 H 0.2283 0.44097 0.32666 0.0
H928 H 0.19898 0.48303 0.34522 0.0
H929 H 0.19029 0.48872 0.28247 0.0
H930 H 0.17792 0.47555 0.292 0.0
H931 H 0.19804 0.47166 0.29076 0.0
C932 C 0.19262 0.43883 0.31141 0.0
C933 C 0.20738 0.43429 0.31549 0.0
C934 C 0.18766 0.45365 0.31459 0.0
C935 C 0.19771 0.46424 0.32121 0.0
C936 C 0.21211 0.45926 0.32618 0.0
H937 H 0.22943 0.5462 0.29635 0.0
H938 H 0.21988 0.52087 0.30207 0.0
C939 C 0.21686 0.44435 0.32345 0.0
C940 C 0.19442 0.48084 0.32119 0.0
H941 H 0.1911 0.51086 0.29669 0.0
C942 C 0.19698 0.48916 0.33466 0.0
C943 C 0.19165 0.48882 0.3074 0.0
C944 C 0.18942 0.48079 0.29232 0.0
C945 C 0.19848 0.5051 0.33442 0.0
C946 C 0.19686 0.51288 0.32041 0.0
C947 C 0.19248 0.50476 0.30737 0.0
C948 C 0.20273 0.52854 0.3181 0.0
C949 C 0.20308 0.51332 0.34881 0.0
C950 C 0.19648 0.5413 0.3255 0.0
C951 C 0.2022 0.55593 0.32242 0.0
C952 C 0.21397 0.55787 0.31171 0.0
C953 C 0.22024 0.54505 0.30453 0.0
C954 C 0.21477 0.53057 0.30778 0.0
H955 H 0.20544 0.50533 0.35835 0.0
H956 H 0.21341 0.52033 0.34676 0.0
H957 H 0.19376 0.52109 0.35237 0.0
H958 H 0.18705 0.54001 0.33335 0.0
H959 H 0.19716 0.56569 0.32804 0.0
H960 H 0.20737 0.94488 0.29547 0.0
H961 H 0.19992 0.97069 0.30223 0.0
H962 H 0.15252 0.95862 0.29714 0.0
H963 H 0.15997 0.93256 0.29017 0.0
H964 H 0.16053 0.98275 0.27977 0.0
H965 H 0.18145 0.99292 0.33798 0.0
H966 H 0.19609 0.98388 0.32698 0.0
H967 H 0.17845 0.97393 0.33055 0.0
C968 C 0.19534 0.94759 0.29609 0.0
C969 C 0.18425 0.93676 0.29215 0.0
C970 C 0.19108 0.96233 0.30017 0.0
C971 C 0.17564 0.96653 0.30046 0.0
C972 C 0.16448 0.95554 0.29718 0.0
H973 H 0.16301 0.06566 0.28687 0.0
H974 H 0.15464 0.04036 0.29549 0.0
C975 C 0.16875 0.9407 0.29316 0.0
C976 C 0.17171 0.98288 0.30163 0.0
H977 H 0.18309 0.01494 0.3204 0.0
C978 C 0.1649 0.98982 0.28892 0.0
C979 C 0.17728 0.99207 0.31364 0.0
C980 C 0.18356 0.98525 0.32812 0.0
C981 C 0.16523 0.00569 0.28706 0.0
C982 C 0.17244 0.01473 0.29827 0.0
C983 C 0.17774 0.00792 0.31174 0.0
C984 C 0.17722 0.03049 0.29486 0.0
C985 C 0.15925 0.01254 0.27245 0.0
C986 C 0.19269 0.0333 0.292 0.0
C987 C 0.19748 0.0476 0.28704 0.0
C988 C 0.18687 0.05939 0.28492 0.0
C989 C 0.17142 0.05674 0.28834 0.0
C990 C 0.16662 0.04234 0.29326 0.0
H991 H 0.15468 0.00378 0.26453 0.0
H992 H 0.14998 0.02073 0.2751 0.0
H993 H 0.16846 0.01892 0.26655 0.0
H994 H 0.20102 0.02424 0.29313 0.0
H995 H 0.20946 0.04931 0.28462 0.0
H996 H 0.56671 0.66359 0.78939 0.0
H997 H 0.54143 0.65502 0.79801 0.0
H998 H 0.5248 0.70118 0.79482 0.0
H999 H 0.54977 0.70978 0.78637 0.0
H1000 H 0.51476 0.68404 0.82171 0.0
H1001 H 0.50571 0.65361 0.76652 0.0
H1002 H 0.52213 0.64925 0.77805 0.0
H1003 H 0.52091 0.66732 0.76856 0.0
C1004 C 0.55768 0.67191 0.79074 0.0
C1005 C 0.56014 0.68733 0.78704 0.0
C1006 C 0.54329 0.667 0.79564 0.0
C1007 C 0.53127 0.67747 0.79694 0.0
C1008 C 0.53395 0.69293 0.79393 0.0
H1009 H 0.44899 0.7112 0.79033 0.0
H1010 H 0.47369 0.70222 0.79916 0.0
C1011 C 0.54822 0.69781 0.789 0.0
C1012 C 0.51543 0.67262 0.79998 0.0
H1013 H 0.48408 0.66115 0.78011 0.0
C1014 C 0.50806 0.67854 0.81288 0.0
C1015 C 0.50676 0.66522 0.78857 0.0
C1016 C 0.51417 0.65846 0.7746 0.0
C1017 C 0.49211 0.67879 0.81384 0.0
C1018 C 0.48343 0.67323 0.80147 0.0
C1019 C 0.4908 0.66556 0.78952 0.0
C1020 C 0.46755 0.6783 0.79892 0.0
C1021 C 0.48471 0.68602 0.82756 0.0
C1022 C 0.45585 0.66784 0.79582 0.0
C1023 C 0.44162 0.673 0.79073 0.0
C1024 C 0.43908 0.68865 0.78836 0.0
C1025 C 0.45064 0.69908 0.79199 0.0
C1026 C 0.46472 0.69395 0.79723 0.0
H1027 H 0.49168 0.68413 0.83796 0.0
H1028 H 0.48386 0.69851 0.82573 0.0
H1029 H 0.47307 0.68142 0.82951 0.0
H1030 H 0.4579 0.6557 0.79684 0.0
H1031 H 0.43289 0.66472 0.78796 0.0
H1032 H 0.83923 0.06533 0.28866 0.0
H1033 H 0.84707 0.03963 0.29651 0.0
H1034 H 0.79992 0.02576 0.29797 0.0
H1035 H 0.79203 0.05126 0.29037 0.0
H1036 H 0.81855 0.01367 0.32224 0.0
H1037 H 0.84365 0.00531 0.26433 0.0
H1038 H 0.8504 0.02089 0.27582 0.0
H1039 H 0.83132 0.02124 0.26845 0.0
C1040 C 0.83055 0.05685 0.29091 0.0
C1041 C 0.81503 0.06021 0.28868 0.0
C1042 C 0.83505 0.0422 0.29536 0.0
C1043 C 0.82407 0.0308 0.29763 0.0
C1044 C 0.80857 0.03442 0.29628 0.0
H1045 H 0.79185 0.9454 0.29337 0.0
H1046 H 0.79973 0.97079 0.30131 0.0
C1047 C 0.80408 0.04898 0.29183 0.0
C1048 C 0.82837 0.01465 0.29975 0.0
H1049 H 0.83847 0.98361 0.2787 0.0
C1050 C 0.82331 0.00709 0.31292 0.0
C1051 C 0.83476 0.00615 0.28763 0.0
C1052 C 0.84032 0.01371 0.2732 0.0
C1053 C 0.82325 0.99113 0.31371 0.0
C1054 C 0.82812 0.98262 0.30093 0.0
C1055 C 0.83465 0.99019 0.28845 0.0
C1056 C 0.82391 0.96642 0.29893 0.0
C1057 C 0.81721 0.98353 0.32789 0.0
C1058 C 0.8349 0.9555 0.29493 0.0
C1059 C 0.83039 0.94093 0.29028 0.0
C1060 C 0.81483 0.9372 0.28933 0.0
C1061 C 0.80392 0.94796 0.29393 0.0
C1062 C 0.80842 0.96243 0.29867 0.0
H1063 H 0.81956 0.99057 0.33815 0.0
H1064 H 0.80466 0.98227 0.32691 0.0
H1065 H 0.82229 0.97205 0.32953 0.0
H1066 H 0.84689 0.95843 0.29487 0.0
H1067 H 0.83904 0.93284 0.28679 0.0
H1068 H 0.56331 0.33584 0.78828 0.0
H1069 H 0.5378 0.34267 0.79753 0.0
H1070 H 0.5265 0.29495 0.80132 0.0
H1071 H 0.55178 0.28811 0.79227 0.0
H1072 H 0.51261 0.33511 0.78155 0.0
H1073 H 0.50668 0.31163 0.83937 0.0
H1074 H 0.52507 0.31518 0.83076 0.0
H1075 H 0.51505 0.2976 0.82711 0.0
C1076 C 0.55548 0.32684 0.79146 0.0
C1077 C 0.55945 0.31144 0.78942 0.0
C1078 C 0.54096 0.33076 0.79678 0.0
C1079 C 0.53033 0.31933 0.80036 0.0
C1080 C 0.53462 0.30397 0.79904 0.0
H1081 H 0.44692 0.28536 0.78919 0.0
H1082 H 0.47206 0.29358 0.79764 0.0
C1083 C 0.54903 0.30007 0.79366 0.0
C1084 C 0.51407 0.32304 0.80287 0.0
H1085 H 0.48348 0.31068 0.82339 0.0
C1086 C 0.50621 0.33031 0.79098 0.0
C1087 C 0.50579 0.3169 0.81525 0.0
C1088 C 0.51365 0.31005 0.82891 0.0
C1089 C 0.49026 0.32991 0.79021 0.0
C1090 C 0.48204 0.32222 0.80176 0.0
C1091 C 0.48983 0.31643 0.81447 0.0
C1092 C 0.46607 0.31746 0.79927 0.0
C1093 C 0.48244 0.33638 0.7763 0.0
C1094 C 0.45424 0.32812 0.79786 0.0
C1095 C 0.43981 0.32344 0.79293 0.0
C1096 C 0.43707 0.30805 0.78937 0.0
C1097 C 0.44871 0.29731 0.79171 0.0
C1098 C 0.46306 0.30198 0.79663 0.0
H1099 H 0.49068 0.34077 0.76774 0.0
H1100 H 0.47526 0.32752 0.77079 0.0
H1101 H 0.47488 0.34591 0.77976 0.0
H1102 H 0.45632 0.3401 0.80002 0.0
H1103 H 0.43101 0.33196 0.79133 0.0
H1104 H 0.16434 0.0676 0.71067 0.0
H1105 H 0.15445 0.04311 0.70125 0.0
H1106 H 0.19978 0.02416 0.70318 0.0
H1107 H 0.20968 0.04836 0.71247 0.0
H1108 H 0.18145 0.01577 0.67622 0.0
H1109 H 0.15219 0.00666 0.73203 0.0
H1110 H 0.1484 0.02361 0.72108 0.0
H1111 H 0.16661 0.02119 0.73005 0.0
C1112 C 0.1722 0.05825 0.70886 0.0
C1113 C 0.18775 0.0598 0.71249 0.0
C1114 C 0.16653 0.04431 0.70349 0.0
C1115 C 0.1764 0.03186 0.70163 0.0
C1116 C 0.19201 0.03368 0.70451 0.0
H1117 H 0.20727 0.9488 0.70558 0.0
H1118 H 0.19874 0.9737 0.69694 0.0
C1119 C 0.19763 0.04748 0.70992 0.0
C1120 C 0.17071 0.01637 0.6983 0.0
H1121 H 0.15859 0.98508 0.71782 0.0
C1122 C 0.17594 0.0091 0.68505 0.0
C1123 C 0.16329 0.00775 0.70971 0.0
C1124 C 0.15726 0.0151 0.72406 0.0
C1125 C 0.17551 0.99318 0.68373 0.0
C1126 C 0.17001 0.98444 0.6961 0.0
C1127 C 0.16296 0.99182 0.70842 0.0
C1128 C 0.17466 0.96838 0.69826 0.0
C1129 C 0.18201 0.98581 0.66963 0.0
C1130 C 0.16396 0.95704 0.70188 0.0
C1131 C 0.16886 0.9427 0.70691 0.0
C1132 C 0.18451 0.93968 0.70866 0.0
C1133 C 0.19514 0.95083 0.70441 0.0
C1134 C 0.19027 0.96502 0.69926 0.0
H1135 H 0.17987 0.99301 0.65943 0.0
H1136 H 0.19455 0.98467 0.67093 0.0
H1137 H 0.17707 0.97432 0.66769 0.0
H1138 H 0.15186 0.95949 0.7014 0.0
H1139 H 0.16042 0.93428 0.71014 0.0
H1140 H 0.44808 0.70775 0.20476 0.0
H1141 H 0.47289 0.69889 0.19611 0.0
H1142 H 0.45794 0.65221 0.20025 0.0
H1143 H 0.43294 0.66106 0.20908 0.0
H1144 H 0.4833 0.65814 0.21669 0.0
H1145 H 0.49214 0.68012 0.15867 0.0
H1146 H 0.48441 0.6949 0.17045 0.0
H1147 H 0.47335 0.67793 0.16687 0.0
C1148 C 0.44993 0.6956 0.20352 0.0
C1149 C 0.43865 0.68509 0.20775 0.0
C1150 C 0.46407 0.69054 0.19836 0.0
C1151 C 0.46718 0.67488 0.19727 0.0
C1152 C 0.45569 0.66434 0.20081 0.0
H1153 H 0.56564 0.65862 0.20949 0.0
H1154 H 0.54039 0.65068 0.20032 0.0
C1155 C 0.44146 0.66941 0.20591 0.0
C1156 C 0.48315 0.66992 0.19516 0.0
H1157 H 0.51495 0.68016 0.17535 0.0
C1158 C 0.49022 0.66238 0.20737 0.0
C1159 C 0.49211 0.67529 0.18289 0.0
C1160 C 0.48503 0.68235 0.16891 0.0
C1161 C 0.50614 0.66191 0.20862 0.0
C1162 C 0.51509 0.66902 0.19724 0.0
C1163 C 0.50803 0.67488 0.18414 0.0
C1164 C 0.531 0.67348 0.20039 0.0
C1165 C 0.51319 0.65531 0.22287 0.0
C1166 C 0.53413 0.68894 0.20296 0.0
C1167 C 0.5484 0.69348 0.20818 0.0
C1168 C 0.55985 0.68264 0.2109 0.0
C1169 C 0.55697 0.66721 0.20761 0.0
C1170 C 0.54259 0.66265 0.20238 0.0
H1171 H 0.50449 0.65109 0.23105 0.0
H1172 H 0.52074 0.64565 0.21977 0.0
H1173 H 0.52028 0.66405 0.22868 0.0
H1174 H 0.5253 0.69746 0.20154 0.0
H1175 H 0.55031 0.70547 0.21046 0.0
H1176 H 0.79108 0.0495 0.70751 0.0
H1177 H 0.79962 0.02452 0.69901 0.0
H1178 H 0.84628 0.04003 0.69935 0.0
H1179 H 0.83778 0.06523 0.70814 0.0
H1180 H 0.81767 0.01331 0.67413 0.0
H1181 H 0.84549 0.00513 0.73083 0.0
H1182 H 0.83263 0.02083 0.72754 0.0
H1183 H 0.85123 0.02088 0.71903 0.0
C1184 C 0.80315 0.0477 0.70559 0.0
C1185 C 0.81378 0.05924 0.70874 0.0
C1186 C 0.80801 0.03344 0.70062 0.0
C1187 C 0.82358 0.03038 0.69872 0.0
C1188 C 0.83421 0.04213 0.70093 0.0
H1189 H 0.83479 0.93254 0.71185 0.0
H1190 H 0.8444 0.95685 0.70178 0.0
C1191 C 0.82934 0.0565 0.70591 0.0
C1192 C 0.8283 0.01439 0.69624 0.0
H1193 H 0.83871 0.98338 0.71722 0.0
C1194 C 0.82275 0.00677 0.68331 0.0
C1195 C 0.83517 0.00589 0.70812 0.0
C1196 C 0.84147 0.0135 0.72221 0.0
C1197 C 0.82233 0.9908 0.68273 0.0
C1198 C 0.82737 0.98235 0.69549 0.0
C1199 C 0.83471 0.98992 0.70751 0.0
C1200 C 0.82202 0.9666 0.69831 0.0
C1201 C 0.81549 0.98315 0.66895 0.0
C1202 C 0.80628 0.964 0.69951 0.0
C1203 C 0.80081 0.95032 0.70543 0.0
C1204 C 0.81096 0.93894 0.71022 0.0
C1205 C 0.82671 0.94113 0.70819 0.0
C1206 C 0.83222 0.95497 0.70241 0.0
H1207 H 0.81793 0.9898 0.65845 0.0
H1208 H 0.81993 0.97138 0.6675 0.0
H1209 H 0.80293 0.9826 0.67031 0.0
H1210 H 0.79819 0.97293 0.6968 0.0
H1211 H 0.78861 0.94892 0.70681 0.0
H1212 H 0.54755 0.29128 0.20669 0.0
H1213 H 0.52327 0.30074 0.19728 0.0
H1214 H 0.5393 0.34703 0.20168 0.0
H1215 H 0.56387 0.33753 0.21119 0.0
H1216 H 0.51316 0.34154 0.21758 0.0
H1217 H 0.50546 0.32002 0.15927 0.0
H1218 H 0.51298 0.30511 0.17104 0.0
H1219 H 0.52409 0.32213 0.16786 0.0
C1220 C 0.54606 0.30347 0.20533 0.0
C1221 C 0.55752 0.31368 0.20981 0.0
C1222 C 0.53223 0.30887 0.19975 0.0
C1223 C 0.52955 0.3246 0.19852 0.0
C1224 C 0.54123 0.33485 0.20233 0.0
H1225 H 0.43071 0.33854 0.2097 0.0
H1226 H 0.45562 0.34757 0.20054 0.0
C1227 C 0.55521 0.32941 0.2078 0.0
C1228 C 0.51374 0.32988 0.19599 0.0
H1229 H 0.48235 0.3194 0.17569 0.0
C1230 C 0.50642 0.33732 0.20811 0.0
C1231 C 0.50501 0.32458 0.18354 0.0
C1232 C 0.51237 0.31767 0.16963 0.0
C1233 C 0.49047 0.33758 0.20916 0.0
C1234 C 0.48177 0.33035 0.19767 0.0
C1235 C 0.48907 0.32475 0.18459 0.0
C1236 C 0.46604 0.32522 0.20081 0.0
C1237 C 0.48313 0.344 0.22334 0.0
C1238 C 0.4636 0.30966 0.20351 0.0
C1239 C 0.44954 0.30451 0.20875 0.0
C1240 C 0.4376 0.31483 0.21133 0.0
C1241 C 0.43977 0.33035 0.20789 0.0
C1242 C 0.45395 0.33552 0.20267 0.0
H1243 H 0.49164 0.34872 0.23145 0.0
H1244 H 0.47511 0.35325 0.22015 0.0
H1245 H 0.47649 0.33499 0.22924 0.0
H1246 H 0.47282 0.30153 0.20219 0.0
H1247 H 0.44819 0.29247 0.21115 0.0
H1248 H 0.29 0.16107 0.065 0.0
H1249 H 0.29959 0.15157 0.04043 0.0
H1250 H 0.30339 0.19785 0.02418 0.0
H1251 H 0.29389 0.2073 0.04843 0.0
H1252 H 0.28373 0.1567 0.01418 0.0
H1253 H 0.34167 0.17906 0.00648 0.0
H1254 H 0.33314 0.17677 0.02512 0.0
H1255 H 0.32979 0.19382 0.0141 0.0
C1256 C 0.29326 0.16919 0.05628 0.0
C1257 C 0.29107 0.18491 0.05852 0.0
C1258 C 0.29879 0.16375 0.04231 0.0
C1259 C 0.30248 0.174 0.03058 0.0
C1260 C 0.30103 0.18972 0.03319 0.0
H1261 H 0.28788 0.20773 0.95138 0.0
H1262 H 0.29776 0.19782 0.97533 0.0
C1263 C 0.29538 0.19512 0.047 0.0
C1264 C 0.30512 0.16871 0.01479 0.0
H1265 H 0.32503 0.18002 0.98343 0.0
C1266 C 0.2931 0.16115 0.00744 0.0
C1267 C 0.31746 0.17428 0.00606 0.0
C1268 C 0.33131 0.18128 0.01343 0.0
C1269 C 0.29195 0.16115 0.9915 0.0
C1270 C 0.3032 0.16878 0.98284 0.0
C1271 C 0.31629 0.17438 0.99013 0.0
C1272 C 0.29965 0.17452 0.96741 0.0
C1273 C 0.27782 0.15463 0.98415 0.0
C1274 C 0.29778 0.16473 0.9549 0.0
C1275 C 0.29206 0.17041 0.94111 0.0
C1276 C 0.28808 0.1859 0.93976 0.0
C1277 C 0.29069 0.19573 0.95211 0.0
C1278 C 0.29645 0.19009 0.96577 0.0
H1279 H 0.27003 0.1493 0.99259 0.0
H1280 H 0.27152 0.16376 0.97804 0.0
H1281 H 0.28111 0.14586 0.97565 0.0
H1282 H 0.30027 0.15269 0.95596 0.0
H1283 H 0.29023 0.1626 0.93172 0.0
H1284 H 0.28792 0.83733 0.06743 0.0
H1285 H 0.29482 0.84535 0.0415 0.0
H1286 H 0.29651 0.79828 0.02742 0.0
H1287 H 0.28976 0.7902 0.05314 0.0
H1288 H 0.32072 0.81773 0.01533 0.0
H1289 H 0.26206 0.84113 0.00733 0.0
H1290 H 0.27335 0.84787 0.02308 0.0
H1291 H 0.26654 0.82859 0.023 0.0
C1292 C 0.28998 0.82871 0.05884 0.0
C1293 C 0.28811 0.81314 0.06223 0.0
C1294 C 0.2939 0.83331 0.04406 0.0
C1295 C 0.29602 0.82239 0.03257 0.0
C1296 C 0.29493 0.80686 0.03616 0.0
H1297 H 0.29332 0.79176 0.94601 0.0
H1298 H 0.30043 0.79913 0.97181 0.0
C1299 C 0.29098 0.80227 0.05084 0.0
C1300 C 0.29792 0.8268 0.01643 0.0
H1301 H 0.27659 0.83671 0.9855 0.0
C1302 C 0.31124 0.82228 0.00881 0.0
C1303 C 0.2856 0.8329 0.008 0.0
C1304 C 0.27102 0.83789 0.01567 0.0
C1305 C 0.31208 0.82255 0.99284 0.0
C1306 C 0.29917 0.82717 0.98438 0.0
C1307 C 0.28644 0.83309 0.99204 0.0
C1308 C 0.29745 0.82335 0.96805 0.0
C1309 C 0.32648 0.81715 0.98517 0.0
C1310 C 0.29337 0.83452 0.95735 0.0
C1311 C 0.28922 0.8303 0.94253 0.0
C1312 C 0.28885 0.81483 0.93833 0.0
C1313 C 0.29346 0.80376 0.94892 0.0
C1314 C 0.2977 0.80798 0.96363 0.0
H1315 H 0.33662 0.81958 0.99235 0.0
H1316 H 0.32587 0.80462 0.98351 0.0
H1317 H 0.32804 0.82264 0.97386 0.0
H1318 H 0.29292 0.84642 0.96061 0.0
H1319 H 0.2857 0.83908 0.93459 0.0
H1320 H 0.71234 0.79225 0.55078 0.0
H1321 H 0.70417 0.80102 0.52579 0.0
H1322 H 0.6571 0.79659 0.53936 0.0
H1323 H 0.66529 0.78768 0.56462 0.0
H1324 H 0.66412 0.78021 0.5139 0.0
H1325 H 0.68565 0.83861 0.5064 0.0
H1326 H 0.70025 0.82684 0.5145 0.0
H1327 H 0.6829 0.83018 0.52502 0.0
C1328 C 0.70025 0.79348 0.5486 0.0
C1329 C 0.68945 0.78916 0.55958 0.0
C1330 C 0.69558 0.79869 0.53435 0.0
C1331 C 0.68002 0.7997 0.53078 0.0
C1332 C 0.66916 0.79608 0.54197 0.0
H1333 H 0.66417 0.7901 0.4318 0.0
H1334 H 0.65661 0.79805 0.45756 0.0
C1335 C 0.67385 0.79098 0.55636 0.0
C1336 C 0.67555 0.8019 0.51466 0.0
H1337 H 0.68619 0.82238 0.48339 0.0
C1338 C 0.66839 0.78969 0.50722 0.0
C1339 C 0.68101 0.81435 0.50601 0.0
C1340 C 0.68773 0.8283 0.51346 0.0
C1341 C 0.66826 0.78871 0.49126 0.0
C1342 C 0.67531 0.80037 0.48263 0.0
C1343 C 0.68095 0.81337 0.49005 0.0
C1344 C 0.67958 0.79785 0.46653 0.0
C1345 C 0.66196 0.77453 0.48382 0.0
C1346 C 0.69501 0.79563 0.46299 0.0
C1347 C 0.69934 0.79111 0.44839 0.0
C1348 C 0.68832 0.78876 0.43703 0.0
C1349 C 0.67291 0.79172 0.44037 0.0
C1350 C 0.66856 0.79624 0.45505 0.0
H1351 H 0.65802 0.76599 0.4923 0.0
H1352 H 0.65215 0.77763 0.47646 0.0
H1353 H 0.67076 0.76916 0.47648 0.0
H1354 H 0.70367 0.79678 0.47172 0.0
H1355 H 0.71131 0.78904 0.44615 0.0
H1356 H 0.71 0.16462 0.06622 0.0
H1357 H 0.70252 0.15738 0.04024 0.0
H1358 H 0.70527 0.20447 0.02636 0.0
H1359 H 0.71258 0.21179 0.05215 0.0
H1360 H 0.67905 0.18752 0.01467 0.0
H1361 H 0.73491 0.15842 0.0055 0.0
H1362 H 0.72333 0.1528 0.02147 0.0
H1363 H 0.73201 0.17131 0.02126 0.0
C1364 C 0.70885 0.17343 0.05765 0.0
C1365 C 0.71204 0.18875 0.06115 0.0
C1366 C 0.7046 0.16927 0.04285 0.0
C1367 C 0.70348 0.18039 0.03141 0.0
C1368 C 0.70605 0.19573 0.03506 0.0
H1369 H 0.7066 0.21026 0.94437 0.0
H1370 H 0.69952 0.20376 0.97038 0.0
C1371 C 0.71032 0.19988 0.04978 0.0
C1372 C 0.70087 0.17626 0.0153 0.0
H1373 H 0.72037 0.16413 0.98397 0.0
C1374 C 0.68789 0.18205 0.00797 0.0
C1375 C 0.71232 0.16893 0.00665 0.0
C1376 C 0.72649 0.16252 0.01402 0.0
C1377 C 0.68663 0.18177 0.99203 0.0
C1378 C 0.69881 0.17585 0.9833 0.0
C1379 C 0.71109 0.16875 0.99071 0.0
C1380 C 0.70048 0.17934 0.96689 0.0
C1381 C 0.67262 0.18848 0.98468 0.0
C1382 C 0.70345 0.16776 0.95625 0.0
C1383 C 0.70763 0.17147 0.94131 0.0
C1384 C 0.70912 0.18681 0.9369 0.0
C1385 C 0.70558 0.19833 0.94743 0.0
C1386 C 0.70134 0.19463 0.96228 0.0
H1387 H 0.66246 0.18693 0.99208 0.0
H1388 H 0.67432 0.20092 0.98307 0.0
H1389 H 0.67033 0.18323 0.97339 0.0
H1390 H 0.70303 0.1559 0.95965 0.0
H1391 H 0.7103 0.16236 0.93342 0.0
H1392 H 0.33614 0.20765 0.56643 0.0
H1393 H 0.34478 0.19891 0.54128 0.0
H1394 H 0.29836 0.19982 0.52509 0.0
H1395 H 0.28966 0.20835 0.55006 0.0
H1396 H 0.31651 0.17395 0.51473 0.0
H1397 H 0.3447 0.23035 0.50588 0.0
H1398 H 0.34989 0.21901 0.52217 0.0
H1399 H 0.33129 0.22747 0.52121 0.0
C1400 C 0.32777 0.20575 0.55756 0.0
C1401 C 0.31224 0.20887 0.56013 0.0
C1402 C 0.33273 0.20078 0.54323 0.0
C1403 C 0.32221 0.19888 0.53134 0.0
C1404 C 0.30665 0.2012 0.53415 0.0
H1405 H 0.29096 0.20358 0.44734 0.0
H1406 H 0.29915 0.19485 0.47233 0.0
C1407 C 0.3017 0.20616 0.5484 0.0
C1408 C 0.32717 0.19606 0.51549 0.0
H1409 H 0.339 0.21596 0.4843 0.0
C1410 C 0.32187 0.18291 0.50809 0.0
C1411 C 0.3344 0.20765 0.50692 0.0
C1412 C 0.3404 0.22197 0.51435 0.0
C1413 C 0.32221 0.18176 0.49216 0.0
C1414 C 0.32772 0.19419 0.48351 0.0
C1415 C 0.33466 0.2065 0.49098 0.0
C1416 C 0.3233 0.19634 0.46738 0.0
C1417 C 0.31577 0.16769 0.48469 0.0
C1418 C 0.33415 0.20008 0.45622 0.0
C1419 C 0.32945 0.20517 0.44184 0.0
C1420 C 0.31385 0.20687 0.4386 0.0
C1421 C 0.30306 0.20246 0.44955 0.0
C1422 C 0.30774 0.19726 0.46379 0.0
H1423 H 0.3179 0.15745 0.49183 0.0
H1424 H 0.30324 0.16897 0.4835 0.0
H1425 H 0.32076 0.16582 0.47321 0.0
H1426 H 0.34621 0.19966 0.45886 0.0
H1427 H 0.338 0.20852 0.43358 0.0
H1428 H 0.70968 0.78793 0.05153 0.0
H1429 H 0.70153 0.7951 0.026 0.0
H1430 H 0.69652 0.84184 0.04042 0.0
H1431 H 0.70489 0.83473 0.06621 0.0
H1432 H 0.67496 0.81055 0.01399 0.0
H1433 H 0.72911 0.84307 0.00615 0.0
H1434 H 0.72667 0.83008 0.0219 0.0
H1435 H 0.71674 0.84796 0.02177 0.0
C1436 C 0.70669 0.79972 0.04937 0.0
C1437 C 0.70814 0.81082 0.06081 0.0
C1438 C 0.70193 0.80378 0.03478 0.0
C1439 C 0.69857 0.81901 0.03131 0.0
C1440 C 0.69921 0.83004 0.04288 0.0
H1441 H 0.70892 0.83457 0.93334 0.0
H1442 H 0.6995 0.84176 0.9587 0.0
C1443 C 0.70396 0.82596 0.05758 0.0
C1444 C 0.696 0.82314 0.01517 0.0
H1445 H 0.71591 0.83579 0.98428 0.0
C1446 C 0.68366 0.81647 0.00749 0.0
C1447 C 0.70727 0.83104 0.00676 0.0
C1448 C 0.72075 0.83844 0.01447 0.0
C1449 C 0.68303 0.81628 0.99152 0.0
C1450 C 0.69519 0.82268 0.9831 0.0
C1451 C 0.70665 0.83078 0.99078 0.0
C1452 C 0.69795 0.81857 0.96696 0.0
C1453 C 0.66981 0.80848 0.98381 0.0
C1454 C 0.70005 0.80317 0.96318 0.0
C1455 C 0.70552 0.79906 0.94885 0.0
C1456 C 0.70906 0.81028 0.938 0.0
C1457 C 0.70626 0.82568 0.94149 0.0
C1458 C 0.70086 0.8298 0.95594 0.0
H1459 H 0.65923 0.80972 0.99067 0.0
H1460 H 0.66776 0.81314 0.97222 0.0
H1461 H 0.67228 0.79611 0.98281 0.0
H1462 H 0.69829 0.79432 0.97161 0.0
H1463 H 0.70752 0.78711 0.94649 0.0
H1464 H 0.71244 0.2118 0.55179 0.0
H1465 H 0.70553 0.20398 0.52603 0.0
H1466 H 0.65823 0.20154 0.53921 0.0
H1467 H 0.66504 0.20959 0.56513 0.0
H1468 H 0.68909 0.17814 0.51388 0.0
H1469 H 0.65938 0.23367 0.50467 0.0
H1470 H 0.67185 0.23069 0.52075 0.0
H1471 H 0.6534 0.22187 0.52034 0.0
C1472 C 0.70057 0.20946 0.54929 0.0
C1473 C 0.68925 0.21152 0.56042 0.0
C1474 C 0.69666 0.20491 0.53458 0.0
C1475 C 0.68136 0.20235 0.53071 0.0
C1476 C 0.67007 0.20364 0.54197 0.0
H1477 H 0.66427 0.20991 0.43264 0.0
H1478 H 0.65763 0.20206 0.45866 0.0
C1479 C 0.67399 0.20821 0.55674 0.0
C1480 C 0.67745 0.19976 0.51453 0.0
H1481 H 0.66527 0.21922 0.48318 0.0
C1482 C 0.68353 0.18692 0.50717 0.0
C1483 C 0.67002 0.21113 0.50585 0.0
C1484 C 0.66331 0.22518 0.51321 0.0
C1485 C 0.68344 0.18576 0.49122 0.0
C1486 C 0.67738 0.19788 0.4825 0.0
C1487 C 0.66999 0.20998 0.48991 0.0
C1488 C 0.68102 0.19974 0.46613 0.0
C1489 C 0.69047 0.17191 0.48386 0.0
C1490 C 0.69635 0.2009 0.4617 0.0
C1491 C 0.70015 0.20546 0.44697 0.0
C1492 C 0.6887 0.20904 0.43638 0.0
C1493 C 0.67333 0.20722 0.44057 0.0
C1494 C 0.66952 0.2027 0.4554 0.0
H1495 H 0.68898 0.16167 0.49116 0.0
H1496 H 0.68541 0.16962 0.47248 0.0
H1497 H 0.7029 0.17382 0.48244 0.0
H1498 H 0.70542 0.19909 0.46988 0.0
H1499 H 0.71209 0.20673 0.44407 0.0
H1500 H 0.33753 0.78992 0.43363 0.0
H1501 H 0.34454 0.79757 0.45965 0.0
H1502 H 0.29711 0.79679 0.4726 0.0
H1503 H 0.29004 0.78942 0.4468 0.0
H1504 H 0.31412 0.82174 0.48514 0.0
H1505 H 0.34233 0.76533 0.49384 0.0
H1506 H 0.34878 0.77731 0.4785 0.0
H1507 H 0.33019 0.76882 0.47761 0.0
C1508 C 0.32861 0.79158 0.442 0.0
C1509 C 0.31325 0.78886 0.43826 0.0
C1510 C 0.33263 0.79593 0.45683 0.0
C1511 C 0.32134 0.79756 0.46805 0.0
C1512 C 0.30599 0.7956 0.46409 0.0
H1513 H 0.28735 0.79108 0.5526 0.0
H1514 H 0.29543 0.79943 0.52738 0.0
C1515 C 0.30197 0.79128 0.44935 0.0
C1516 C 0.3252 0.79983 0.48429 0.0
H1517 H 0.33575 0.77922 0.51549 0.0
C1518 C 0.31925 0.81265 0.49179 0.0
C1519 C 0.33209 0.78806 0.4929 0.0
C1520 C 0.33869 0.77404 0.4854 0.0
C1521 C 0.31874 0.81335 0.50775 0.0
C1522 C 0.3241 0.80081 0.51632 0.0
C1523 C 0.33153 0.78877 0.50886 0.0
C1524 C 0.31958 0.79848 0.5324 0.0
C1525 C 0.31171 0.82711 0.51527 0.0
C1526 C 0.33049 0.79513 0.54361 0.0
C1527 C 0.32587 0.79024 0.55808 0.0
C1528 C 0.31029 0.78841 0.56142 0.0
C1529 C 0.29943 0.79234 0.55035 0.0
C1530 C 0.30404 0.7973 0.53598 0.0
H1531 H 0.31364 0.83753 0.50832 0.0
H1532 H 0.29922 0.8254 0.51622 0.0
H1533 H 0.31643 0.82897 0.52687 0.0
H1534 H 0.34254 0.79577 0.541 0.0
H1535 H 0.3345 0.78728 0.56641 0.0
H1536 H 0.1877 0.35298 0.28035 0.0
H1537 H 0.16264 0.34873 0.2692 0.0
H1538 H 0.15261 0.39675 0.27283 0.0
H1539 H 0.17792 0.40104 0.28431 0.0
H1540 H 0.13059 0.35704 0.2772 0.0
H1541 H 0.15418 0.38602 0.22577 0.0
H1542 H 0.16695 0.37997 0.2407 0.0
H1543 H 0.15393 0.39538 0.24407 0.0
C1544 C 0.17997 0.36256 0.27924 0.0
C1545 C 0.1847 0.37732 0.28307 0.0
C1546 C 0.16564 0.36013 0.27291 0.0
C1547 C 0.15585 0.37245 0.27007 0.0
C1548 C 0.16005 0.38712 0.27492 0.0
H1549 H 0.09459 0.31692 0.21475 0.0
H1550 H 0.09837 0.34201 0.22686 0.0
C1551 C 0.17442 0.38953 0.28152 0.0
C1552 C 0.14262 0.36968 0.26001 0.0
H1553 H 0.13707 0.36578 0.22175 0.0
C1554 C 0.13139 0.35952 0.26511 0.0
C1555 C 0.14366 0.37306 0.24427 0.0
C1556 C 0.15528 0.38423 0.23826 0.0
C1557 C 0.12276 0.35094 0.25472 0.0
C1558 C 0.12553 0.35266 0.23892 0.0
C1559 C 0.13506 0.36446 0.23388 0.0
C1560 C 0.12287 0.33969 0.22848 0.0
C1561 C 0.11229 0.33868 0.26071 0.0
C1562 C 0.13543 0.33051 0.22479 0.0
C1563 C 0.13331 0.3163 0.2181 0.0
C1564 C 0.11859 0.31109 0.21475 0.0
C1565 C 0.10606 0.32081 0.21714 0.0
C1566 C 0.10819 0.33505 0.22411 0.0
H1567 H 0.11097 0.33923 0.27329 0.0
H1568 H 0.10086 0.33983 0.25541 0.0
H1569 H 0.11686 0.32728 0.25762 0.0
H1570 H 0.14685 0.33386 0.22812 0.0
H1571 H 0.14312 0.309 0.21634 0.0
H1572 H 0.1074 0.67811 0.79504 0.0
H1573 H 0.11321 0.65169 0.78775 0.0
H1574 H 0.12593 0.66693 0.74276 0.0
H1575 H 0.11991 0.69299 0.74971 0.0
H1576 H 0.11146 0.638 0.7428 0.0
H1577 H 0.15873 0.64191 0.78531 0.0
H1578 H 0.1394 0.64393 0.79179 0.0
H1579 H 0.14779 0.65851 0.78012 0.0
C1580 C 0.11115 0.67575 0.78351 0.0
C1581 C 0.11358 0.68771 0.77308 0.0
C1582 C 0.11446 0.66067 0.77938 0.0
C1583 C 0.12024 0.65741 0.76479 0.0
C1584 C 0.12149 0.66918 0.75407 0.0
H1585 H 0.17907 0.62151 0.70605 0.0
H1586 H 0.15457 0.62743 0.71783 0.0
C1587 C 0.11821 0.68414 0.75815 0.0
C1588 C 0.12729 0.64254 0.76104 0.0
H1589 H 0.1614 0.62468 0.76556 0.0
C1590 C 0.12217 0.6347 0.74804 0.0
C1591 C 0.14112 0.63809 0.76802 0.0
C1592 C 0.1472 0.64601 0.78205 0.0
C1593 C 0.13127 0.62359 0.74097 0.0
C1594 C 0.14595 0.62053 0.74689 0.0
C1595 C 0.15022 0.62709 0.76088 0.0
C1596 C 0.15815 0.61315 0.73772 0.0
C1597 C 0.12534 0.61581 0.72684 0.0
C1598 C 0.16824 0.60283 0.74468 0.0
C1599 C 0.18246 0.59989 0.73815 0.0
C1600 C 0.1866 0.60687 0.72437 0.0
C1601 C 0.17595 0.61585 0.71658 0.0
C1602 C 0.16187 0.61911 0.72328 0.0
H1603 H 0.11289 0.61373 0.72783 0.0
H1604 H 0.12711 0.62337 0.71685 0.0
H1605 H 0.13118 0.60478 0.72473 0.0
H1606 H 0.16568 0.59811 0.7558 0.0
H1607 H 0.19061 0.59298 0.74435 0.0
H1608 H 0.79922 0.61347 0.24658 0.0
H1609 H 0.82388 0.62094 0.23695 0.0
H1610 H 0.8436 0.6144 0.28157 0.0
H1611 H 0.81843 0.60728 0.29155 0.0
H1612 H 0.84953 0.64139 0.27225 0.0
H1613 H 0.86371 0.6049 0.22385 0.0
H1614 H 0.84421 0.61027 0.22134 0.0
H1615 H 0.84971 0.59918 0.23784 0.0
C1616 C 0.80881 0.6133 0.25436 0.0
C1617 C 0.80677 0.61007 0.26992 0.0
C1618 C 0.82307 0.61731 0.24872 0.0
C1619 C 0.83577 0.618 0.25842 0.0
C1620 C 0.83401 0.6138 0.27381 0.0
H1621 H 0.90116 0.68138 0.21401 0.0
H1622 H 0.89479 0.65658 0.22575 0.0
C1623 C 0.81962 0.60978 0.27952 0.0
C1624 C 0.84963 0.62609 0.25298 0.0
H1625 H 0.86816 0.63318 0.21948 0.0
C1626 C 0.85413 0.63919 0.26099 0.0
C1627 C 0.85605 0.6232 0.23843 0.0
C1628 C 0.85325 0.60849 0.23002 0.0
C1629 C 0.86297 0.65046 0.25394 0.0
C1630 C 0.86716 0.64866 0.23849 0.0
C1631 C 0.86456 0.6347 0.23121 0.0
C1632 C 0.87103 0.66218 0.22923 0.0
C1633 C 0.86648 0.6649 0.2626 0.0
C1634 C 0.85963 0.67308 0.22673 0.0
C1635 C 0.8632 0.68707 0.22022 0.0
C1636 C 0.87822 0.69037 0.21587 0.0
C1637 C 0.88947 0.67901 0.21721 0.0
C1638 C 0.88588 0.66494 0.22396 0.0
H1639 H 0.8668 0.6628 0.27509 0.0
H1640 H 0.87757 0.66981 0.25895 0.0
H1641 H 0.85742 0.67343 0.26031 0.0
H1642 H 0.84805 0.67103 0.23054 0.0
H1643 H 0.85432 0.6956 0.2192 0.0
H1644 H 0.90072 0.30775 0.75287 0.0
H1645 H 0.89268 0.33245 0.74275 0.0
H1646 H 0.86734 0.34092 0.78411 0.0
H1647 H 0.87626 0.31671 0.79455 0.0
H1648 H 0.86498 0.33563 0.73617 0.0
H1649 H 0.87815 0.38346 0.77436 0.0
H1650 H 0.88784 0.36536 0.77595 0.0
H1651 H 0.86982 0.36847 0.7854 0.0
C1652 C 0.89402 0.31527 0.76003 0.0
C1653 C 0.88906 0.31045 0.77444 0.0
C1654 C 0.88941 0.32936 0.75425 0.0
C1655 C 0.87938 0.33865 0.76262 0.0
C1656 C 0.87539 0.33427 0.77754 0.0
H1657 H 0.79784 0.38104 0.75216 0.0
H1658 H 0.82312 0.37261 0.75977 0.0
C1659 C 0.88038 0.32034 0.78349 0.0
C1660 C 0.87055 0.35077 0.75472 0.0
H1661 H 0.85362 0.38534 0.76049 0.0
C1662 C 0.86293 0.34673 0.74122 0.0
C1663 C 0.86783 0.36529 0.76123 0.0
C1664 C 0.87651 0.37092 0.77495 0.0
C1665 C 0.85169 0.3561 0.73487 0.0
C1666 C 0.84801 0.37 0.74216 0.0
C1667 C 0.85642 0.37464 0.75497 0.0
C1668 C 0.83381 0.37821 0.73826 0.0
C1669 C 0.84293 0.35044 0.72116 0.0
C1670 C 0.83156 0.38469 0.7238 0.0
C1671 C 0.81699 0.38944 0.71931 0.0
C1672 C 0.8045 0.38774 0.72925 0.0
C1673 C 0.80712 0.38228 0.74411 0.0
C1674 C 0.82162 0.37758 0.74855 0.0
H1675 H 0.84613 0.33861 0.71794 0.0
H1676 H 0.83049 0.35075 0.72344 0.0
H1677 H 0.84527 0.35797 0.71127 0.0
H1678 H 0.8409 0.3854 0.71576 0.0
H1679 H 0.8154 0.39375 0.70785 0.0
H1680 H 0.25072 0.19374 0.38427 0.0
H1681 H 0.24266 0.16828 0.37727 0.0
H1682 H 0.28883 0.15203 0.38212 0.0
H1683 H 0.29714 0.17787 0.38901 0.0
H1684 H 0.27781 0.14662 0.35453 0.0
H1685 H 0.23451 0.12717 0.39524 0.0
H1686 H 0.23034 0.14647 0.39005 0.0
H1687 H 0.24791 0.14213 0.39986 0.0
C1688 C 0.25917 0.18473 0.38417 0.0
C1689 C 0.27463 0.18789 0.38693 0.0
C1690 C 0.25447 0.17006 0.38041 0.0
C1691 C 0.26507 0.15814 0.37941 0.0
C1692 C 0.28042 0.16103 0.38302 0.0
H1693 H 0.24056 0.09248 0.30875 0.0
H1694 H 0.25235 0.09829 0.33347 0.0
C1695 C 0.28516 0.17579 0.38689 0.0
C1696 C 0.26044 0.14387 0.37162 0.0
H1697 H 0.22952 0.12053 0.36808 0.0
C1698 C 0.26759 0.14045 0.35774 0.0
C1699 C 0.24716 0.13576 0.37587 0.0
C1700 C 0.23968 0.138 0.39118 0.0
C1701 C 0.26079 0.13063 0.34714 0.0
C1702 C 0.24659 0.12379 0.35073 0.0
C1703 C 0.2403 0.12591 0.36528 0.0
C1704 C 0.23703 0.11693 0.33862 0.0
C1705 C 0.2681 0.12895 0.33163 0.0
C1706 C 0.22376 0.12463 0.334 0.0
C1707 C 0.21684 0.12109 0.32011 0.0
C1708 C 0.22314 0.10983 0.31071 0.0
C1709 C 0.23552 0.10116 0.31595 0.0
C1710 C 0.2423 0.10454 0.32997 0.0
H1711 H 0.27802 0.13668 0.33011 0.0
H1712 H 0.27218 0.11707 0.33017 0.0
H1713 H 0.25971 0.1314 0.32248 0.0
H1714 H 0.21952 0.13424 0.3405 0.0
H1715 H 0.2074 0.128 0.31614 0.0
H1716 H 0.31374 0.79161 0.8571 0.0
H1717 H 0.339 0.78126 0.85147 0.0
H1718 H 0.34419 0.7679 0.8985 0.0
H1719 H 0.31889 0.77871 0.90428 0.0
H1720 H 0.37213 0.78298 0.86913 0.0
H1721 H 0.33967 0.72837 0.86733 0.0
H1722 H 0.32949 0.746 0.86439 0.0
H1723 H 0.33743 0.74182 0.88276 0.0
C1724 C 0.32057 0.78707 0.86635 0.0
C1725 C 0.31455 0.786 0.8811 0.0
C1726 C 0.33495 0.78117 0.86315 0.0
C1727 C 0.34338 0.77383 0.87457 0.0
C1728 C 0.33787 0.77367 0.88959 0.0
H1729 H 0.39353 0.71045 0.81811 0.0
H1730 H 0.38802 0.72055 0.84365 0.0
C1731 C 0.3235 0.77985 0.89287 0.0
C1732 C 0.35634 0.76422 0.86981 0.0
H1733 H 0.3614 0.73028 0.85171 0.0
C1734 C 0.37011 0.77125 0.8658 0.0
C1735 C 0.35382 0.74882 0.8658 0.0
C1736 C 0.33935 0.74068 0.8703 0.0
C1737 C 0.38068 0.76376 0.8564 0.0
C1738 C 0.37699 0.74923 0.8504 0.0
C1739 C 0.36418 0.7415 0.85608 0.0
C1740 C 0.38376 0.74361 0.83593 0.0
C1741 C 0.39521 0.77191 0.85221 0.0
C1742 C 0.38341 0.7532 0.82313 0.0
C1743 C 0.38649 0.7475 0.80867 0.0
C1744 C 0.3898 0.73197 0.80651 0.0
C1745 C 0.39096 0.72246 0.81938 0.0
C1746 C 0.38787 0.72822 0.83398 0.0
H1747 H 0.39977 0.77819 0.86222 0.0
H1748 H 0.40407 0.7639 0.84801 0.0
H1749 H 0.39278 0.78047 0.84321 0.0
H1750 H 0.37979 0.76496 0.82414 0.0
H1751 H 0.38564 0.75523 0.79907 0.0
H1752 H 0.72041 0.8117 0.35556 0.0
H1753 H 0.7318 0.83676 0.35201 0.0
H1754 H 0.73117 0.84419 0.40064 0.0
H1755 H 0.71945 0.81887 0.40424 0.0
H1756 H 0.72506 0.86837 0.36226 0.0
H1757 H 0.77741 0.84253 0.38739 0.0
H1758 H 0.76189 0.8303 0.3817 0.0
H1759 H 0.75966 0.8428 0.39774 0.0
C1760 C 0.72224 0.81887 0.36546 0.0
C1761 C 0.71918 0.8134 0.38015 0.0
C1762 C 0.7287 0.8332 0.36343 0.0
C1763 C 0.73244 0.84225 0.37607 0.0
C1764 C 0.72838 0.83733 0.39076 0.0
H1765 H 0.78609 0.90357 0.31923 0.0
H1766 H 0.7754 0.8996 0.34494 0.0
C1767 C 0.72165 0.82295 0.39278 0.0
C1768 C 0.74262 0.85543 0.37341 0.0
H1769 H 0.78071 0.86017 0.36747 0.0
C1770 C 0.73724 0.86718 0.364 0.0
C1771 C 0.75849 0.85391 0.37586 0.0
C1772 C 0.76482 0.84175 0.38624 0.0
C1773 C 0.74734 0.87585 0.35512 0.0
C1774 C 0.76312 0.87258 0.35576 0.0
C1775 C 0.76859 0.86255 0.36695 0.0
C1776 C 0.77278 0.87522 0.3422 0.0
C1777 C 0.74095 0.88691 0.34361 0.0
C1778 C 0.77545 0.86277 0.33253 0.0
C1779 C 0.78133 0.86501 0.31798 0.0
C1780 C 0.78488 0.87973 0.31288 0.0
C1781 C 0.78351 0.89209 0.323 0.0
C1782 C 0.77735 0.88986 0.3376 0.0
H1783 H 0.72848 0.88865 0.34505 0.0
H1784 H 0.74673 0.89811 0.34473 0.0
H1785 H 0.74309 0.8826 0.3319 0.0
H1786 H 0.77195 0.85139 0.33583 0.0
H1787 H 0.78234 0.85531 0.31039 0.0
H1788 H 0.68612 0.2141 0.85406 0.0
H1789 H 0.66129 0.22569 0.84961 0.0
H1790 H 0.654 0.22921 0.89813 0.0
H1791 H 0.67907 0.2173 0.90264 0.0
H1792 H 0.62952 0.22132 0.86005 0.0
H1793 H 0.6578 0.27406 0.88161 0.0
H1794 H 0.66914 0.25749 0.87717 0.0
H1795 H 0.6566 0.25723 0.89334 0.0
C1796 C 0.67898 0.21682 0.86377 0.0
C1797 C 0.68444 0.21492 0.87866 0.0
C1798 C 0.66479 0.22341 0.86124 0.0
C1799 C 0.6559 0.22845 0.87354 0.0
C1800 C 0.66074 0.22542 0.88851 0.0
H1801 H 0.59487 0.28374 0.81669 0.0
H1802 H 0.59967 0.27281 0.84216 0.0
C1803 C 0.67497 0.21857 0.89106 0.0
C1804 C 0.64319 0.239 0.87013 0.0
H1805 H 0.63967 0.27687 0.86216 0.0
C1806 C 0.63117 0.23353 0.86111 0.0
C1807 C 0.64534 0.25491 0.87163 0.0
C1808 C 0.65788 0.26139 0.88146 0.0
C1809 C 0.62269 0.24346 0.85186 0.0
C1810 C 0.62644 0.25912 0.85167 0.0
C1811 C 0.6369 0.26482 0.86232 0.0
C1812 C 0.62352 0.2683 0.83785 0.0
C1813 C 0.61121 0.2369 0.84087 0.0
C1814 C 0.63545 0.26979 0.82732 0.0
C1815 C 0.63274 0.27578 0.8129 0.0
C1816 C 0.61807 0.28059 0.80877 0.0
C1817 C 0.60631 0.28016 0.81967 0.0
C1818 C 0.609 0.2739 0.83415 0.0
H1819 H 0.60887 0.22466 0.84315 0.0
H1820 H 0.60034 0.24333 0.84165 0.0
H1821 H 0.61553 0.23805 0.82902 0.0
H1822 H 0.64673 0.26549 0.82997 0.0
H1823 H 0.64201 0.27608 0.80474 0.0
H1824 H 0.27629 0.80668 0.64336 0.0
H1825 H 0.2648 0.83154 0.64817 0.0
H1826 H 0.26584 0.84163 0.60006 0.0
H1827 H 0.27775 0.81658 0.59516 0.0
H1828 H 0.27359 0.86745 0.6266 0.0
H1829 H 0.21849 0.83679 0.62887 0.0
H1830 H 0.23397 0.82647 0.63749 0.0
H1831 H 0.2344 0.83043 0.61738 0.0
C1832 C 0.27448 0.81436 0.63385 0.0
C1833 C 0.27782 0.80977 0.61892 0.0
C1834 C 0.26791 0.82852 0.63659 0.0
C1835 C 0.26433 0.83825 0.62444 0.0
C1836 C 0.26855 0.8342 0.60955 0.0
H1837 H 0.20282 0.89156 0.67888 0.0
H1838 H 0.21182 0.88516 0.65312 0.0
C1839 C 0.27538 0.81999 0.60679 0.0
C1840 C 0.2548 0.85171 0.62774 0.0
H1841 H 0.22119 0.85839 0.64584 0.0
C1842 C 0.2619 0.86578 0.63027 0.0
C1843 C 0.23942 0.84969 0.63204 0.0
C1844 C 0.23104 0.83507 0.62867 0.0
C1845 C 0.25462 0.87712 0.63892 0.0
C1846 C 0.24026 0.87393 0.64562 0.0
C1847 C 0.23233 0.8608 0.64105 0.0
C1848 C 0.23527 0.88148 0.65993 0.0
C1849 C 0.26287 0.89192 0.64174 0.0
C1850 C 0.24544 0.88179 0.67227 0.0
C1851 C 0.24036 0.88535 0.68686 0.0
C1852 C 0.22489 0.88851 0.68959 0.0
C1853 C 0.2148 0.88911 0.67714 0.0
C1854 C 0.21994 0.88551 0.66242 0.0
H1855 H 0.26866 0.89578 0.63116 0.0
H1856 H 0.255 0.90103 0.64567 0.0
H1857 H 0.27184 0.89014 0.65049 0.0
H1858 H 0.25718 0.87825 0.6709 0.0
H1859 H 0.24851 0.88495 0.69612 0.0
H1860 H 0.67722 0.79327 0.10733 0.0
H1861 H 0.65154 0.78381 0.11339 0.0
H1862 H 0.67073 0.74058 0.12688 0.0
H1863 H 0.69601 0.74963 0.12055 0.0
H1864 H 0.64257 0.73733 0.11261 0.0
H1865 H 0.64083 0.78154 0.15842 0.0
H1866 H 0.64231 0.78762 0.13891 0.0
H1867 H 0.65805 0.778 0.14779 0.0
C1868 C 0.67589 0.78167 0.11132 0.0
C1869 C 0.68871 0.77235 0.11382 0.0
C1870 C 0.66122 0.77629 0.1148 0.0
C1871 C 0.65927 0.76158 0.12085 0.0
C1872 C 0.67194 0.75197 0.12225 0.0
H1873 H 0.62865 0.70152 0.18166 0.0
H1874 H 0.63457 0.71328 0.15709 0.0
C1875 C 0.68646 0.75726 0.11877 0.0
C1876 C 0.64474 0.7565 0.12782 0.0
H1877 H 0.62575 0.76013 0.16147 0.0
C1878 C 0.6385 0.74253 0.12306 0.0
C1879 C 0.63927 0.7634 0.14133 0.0
C1880 C 0.64543 0.77843 0.14703 0.0
C1881 C 0.62815 0.73453 0.13228 0.0
C1882 C 0.62414 0.74059 0.14667 0.0
C1883 C 0.62895 0.75537 0.15052 0.0
C1884 C 0.61751 0.73109 0.15901 0.0
C1885 C 0.62227 0.71932 0.12686 0.0
C1886 C 0.60575 0.73692 0.1682 0.0
C1887 C 0.60266 0.73039 0.18238 0.0
C1888 C 0.61107 0.71777 0.18745 0.0
C1889 C 0.62187 0.71109 0.17778 0.0
C1890 C 0.62515 0.71777 0.16369 0.0
H1891 H 0.62067 0.71938 0.1143 0.0
H1892 H 0.63078 0.71036 0.12955 0.0
H1893 H 0.61128 0.7163 0.13238 0.0
H1894 H 0.59978 0.74722 0.16491 0.0
H1895 H 0.59437 0.73576 0.18981 0.0
H1896 H 0.7744 0.14043 0.6943 0.0
H1897 H 0.76408 0.14597 0.66913 0.0
H1898 H 0.77156 0.09934 0.65547 0.0
H1899 H 0.78229 0.09372 0.68091 0.0
H1900 H 0.77709 0.13865 0.63642 0.0
H1901 H 0.72285 0.1108 0.65404 0.0
H1902 H 0.73565 0.11735 0.66873 0.0
H1903 H 0.74115 0.10174 0.65672 0.0
C1904 C 0.77417 0.13142 0.68584 0.0
C1905 C 0.77904 0.11664 0.68952 0.0
C1906 C 0.76832 0.13461 0.67147 0.0
C1907 C 0.76703 0.12305 0.66052 0.0
C1908 C 0.77254 0.10839 0.66381 0.0
H1909 H 0.71939 0.18124 0.59503 0.0
H1910 H 0.73031 0.15576 0.59986 0.0
C1911 C 0.77868 0.10523 0.67826 0.0
C1912 C 0.75834 0.12656 0.64653 0.0
H1913 H 0.72096 0.13231 0.63773 0.0
C1914 C 0.76489 0.1367 0.63606 0.0
C1915 C 0.74246 0.1239 0.64611 0.0
C1916 C 0.73501 0.11281 0.65693 0.0
C1917 C 0.75571 0.14584 0.62666 0.0
C1918 C 0.73967 0.14478 0.62794 0.0
C1919 C 0.73326 0.13311 0.63681 0.0
C1920 C 0.73008 0.15818 0.62441 0.0
C1921 C 0.76314 0.15796 0.61698 0.0
C1922 C 0.7258 0.16759 0.63661 0.0
C1923 C 0.71982 0.18202 0.6339 0.0
C1924 C 0.71776 0.18723 0.61894 0.0
C1925 C 0.7208 0.17736 0.60668 0.0
C1926 C 0.72707 0.16289 0.60941 0.0
H1927 H 0.77575 0.15682 0.61674 0.0
H1928 H 0.75879 0.15725 0.60512 0.0
H1929 H 0.7602 0.16942 0.6215 0.0
H1930 H 0.72809 0.16419 0.64827 0.0
H1931 H 0.71753 0.18943 0.64352 0.0
H1932 H 0.31611 0.20871 0.12016 0.0
H1933 H 0.33953 0.22105 0.1291 0.0
H1934 H 0.32835 0.26124 0.10303 0.0
H1935 H 0.3045 0.24925 0.09487 0.0
H1936 H 0.36536 0.23591 0.11885 0.0
H1937 H 0.32495 0.27675 0.14601 0.0
H1938 H 0.3185 0.2598 0.13642 0.0
H1939 H 0.3244 0.27619 0.12558 0.0
C1940 C 0.31891 0.22 0.11602 0.0
C1941 C 0.30849 0.22818 0.10708 0.0
C1942 C 0.33228 0.22705 0.1211 0.0
C1943 C 0.33544 0.24224 0.11709 0.0
C1944 C 0.3259 0.24969 0.10662 0.0
H1945 H 0.38656 0.2989 0.18087 0.0
H1946 H 0.37838 0.29167 0.15511 0.0
C1947 C 0.31235 0.24282 0.10191 0.0
C1948 C 0.34712 0.25086 0.12573 0.0
H1949 H 0.3504 0.27855 0.15284 0.0
C1950 C 0.36218 0.24542 0.12608 0.0
C1951 C 0.34297 0.26333 0.13515 0.0
C1952 C 0.32683 0.26932 0.13592 0.0
C1953 C 0.37296 0.25159 0.13619 0.0
C1954 C 0.3685 0.26339 0.14623 0.0
C1955 C 0.35382 0.26957 0.14505 0.0
C1956 C 0.37747 0.26749 0.15993 0.0
C1957 C 0.38885 0.24506 0.13645 0.0
C1958 C 0.38007 0.25627 0.17101 0.0
C1959 C 0.38453 0.26036 0.18569 0.0
C1960 C 0.38647 0.27578 0.1896 0.0
C1961 C 0.38511 0.28694 0.17818 0.0
C1962 C 0.38049 0.28282 0.16346 0.0
H1963 H 0.39218 0.24079 0.125 0.0
H1964 H 0.39733 0.25364 0.14028 0.0
H1965 H 0.38917 0.23525 0.14444 0.0
H1966 H 0.37749 0.24442 0.16869 0.0
H1967 H 0.38566 0.25149 0.1942 0.0
H1968 H 0.81305 0.64338 0.71271 0.0
H1969 H 0.83822 0.64768 0.72359 0.0
H1970 H 0.8439 0.59925 0.73005 0.0
H1971 H 0.81859 0.5949 0.71869 0.0
H1972 H 0.84526 0.61645 0.75696 0.0
H1973 H 0.88363 0.64187 0.7144 0.0
H1974 H 0.86484 0.64962 0.71226 0.0
H1975 H 0.86794 0.62953 0.70917 0.0
C1976 C 0.81994 0.63363 0.71585 0.0
C1977 C 0.81401 0.61884 0.71485 0.0
C1978 C 0.83437 0.63606 0.72198 0.0
C1979 C 0.84304 0.62376 0.72746 0.0
C1980 C 0.8375 0.60885 0.72566 0.0
H1981 H 0.90475 0.68159 0.77814 0.0
H1982 H 0.90035 0.65601 0.76739 0.0
C1983 C 0.8231 0.60638 0.71917 0.0
C1984 C 0.85606 0.62717 0.73764 0.0
H1985 H 0.88407 0.65389 0.74007 0.0
C1986 C 0.85423 0.62411 0.75325 0.0
C1987 C 0.86803 0.63682 0.73286 0.0
C1988 C 0.87132 0.6395 0.71621 0.0
C1989 C 0.8624 0.63239 0.76421 0.0
C1990 C 0.87247 0.644 0.75937 0.0
C1991 C 0.87611 0.6452 0.74382 0.0
C1992 C 0.87578 0.65731 0.7692 0.0
C1993 C 0.85908 0.62974 0.78086 0.0
C1994 C 0.86347 0.66632 0.77404 0.0
C1995 C 0.86594 0.68088 0.77983 0.0
C1996 C 0.88077 0.68664 0.78111 0.0
C1997 C 0.89321 0.67725 0.77741 0.0
C1998 C 0.89072 0.6627 0.77127 0.0
H1999 H 0.85648 0.61753 0.78301 0.0
H2000 H 0.86881 0.63325 0.78815 0.0
H2001 H 0.84889 0.63646 0.7842 0.0
H2002 H 0.85183 0.66259 0.77221 0.0
H2003 H 0.85619 0.68798 0.78252 0.0
H2004 H 0.87945 0.3174 0.20705 0.0
H2005 H 0.87041 0.34132 0.21812 0.0
H2006 H 0.89313 0.33039 0.2604 0.0
H2007 H 0.90135 0.30606 0.24959 0.0
H2008 H 0.86492 0.33393 0.26535 0.0
H2009 H 0.88213 0.38312 0.23054 0.0
H2010 H 0.87408 0.36884 0.21838 0.0
H2011 H 0.89137 0.36479 0.22878 0.0
C2012 C 0.88296 0.32041 0.21851 0.0
C2013 C 0.89094 0.30993 0.22756 0.0
C2014 C 0.8779 0.33416 0.22482 0.0
C2015 C 0.88114 0.33777 0.24012 0.0
C2016 C 0.89046 0.32789 0.2486 0.0
H2017 H 0.81564 0.39149 0.29423 0.0
H2018 H 0.84149 0.38328 0.28731 0.0
C2019 C 0.89515 0.314 0.24244 0.0
C2020 C 0.87222 0.3498 0.24806 0.0
H2021 H 0.85715 0.38537 0.24333 0.0
C2022 C 0.86364 0.34536 0.26084 0.0
C2023 C 0.87049 0.36474 0.24223 0.0
C2024 C 0.88017 0.37066 0.22932 0.0
C2025 C 0.85243 0.35487 0.26706 0.0
C2026 C 0.84983 0.36933 0.26042 0.0
C2027 C 0.85916 0.37426 0.24838 0.0
C2028 C 0.83574 0.37792 0.26392 0.0
C2029 C 0.8426 0.34881 0.27984 0.0
C2030 C 0.82426 0.37844 0.25284 0.0
C2031 C 0.80959 0.38308 0.25672 0.0
C2032 C 0.80609 0.38733 0.27179 0.0
C2033 C 0.81794 0.38812 0.28257 0.0
C2034 C 0.83269 0.38343 0.27865 0.0
H2035 H 0.84503 0.33666 0.28246 0.0
H2036 H 0.84468 0.35557 0.29033 0.0
H2037 H 0.83034 0.34989 0.27687 0.0
H2038 H 0.82638 0.37427 0.2414 0.0
H2039 H 0.80081 0.38262 0.24805 0.0
H2040 H 0.106 0.31589 0.79493 0.0
H2041 H 0.11161 0.34183 0.78597 0.0
H2042 H 0.12193 0.32397 0.74128 0.0
H2043 H 0.11599 0.29855 0.74988 0.0
H2044 H 0.13832 0.35051 0.77809 0.0
H2045 H 0.10325 0.36263 0.72824 0.0
H2046 H 0.09788 0.34805 0.74178 0.0
H2047 H 0.10994 0.34356 0.72566 0.0
C2048 C 0.10904 0.31762 0.78308 0.0
C2049 C 0.11079 0.30511 0.77319 0.0
C2050 C 0.11218 0.33245 0.77796 0.0
C2051 C 0.11693 0.33499 0.76284 0.0
C2052 C 0.1178 0.32254 0.75283 0.0
H2053 H 0.1931 0.353 0.72657 0.0
H2054 H 0.16821 0.34808 0.73782 0.0
C2055 C 0.11469 0.30785 0.75789 0.0
C2056 C 0.12401 0.34962 0.75809 0.0
H2057 H 0.13169 0.3682 0.72478 0.0
C2058 C 0.13639 0.35495 0.76671 0.0
C2059 C 0.1214 0.35592 0.74343 0.0
C2060 C 0.10724 0.35231 0.73439 0.0
C2061 C 0.14753 0.36427 0.76009 0.0
C2062 C 0.14633 0.36807 0.74448 0.0
C2063 C 0.13279 0.36488 0.73664 0.0
C2064 C 0.16026 0.37133 0.73563 0.0
C2065 C 0.16143 0.36848 0.76928 0.0
C2066 C 0.16367 0.3859 0.72998 0.0
C2067 C 0.17796 0.38872 0.72331 0.0
C2068 C 0.18887 0.37699 0.72242 0.0
C2069 C 0.18495 0.36227 0.72727 0.0
C2070 C 0.17077 0.35946 0.73371 0.0
H2071 H 0.15874 0.36902 0.78165 0.0
H2072 H 0.17035 0.35966 0.76761 0.0
H2073 H 0.16613 0.37963 0.76556 0.0
H2074 H 0.15561 0.39516 0.73132 0.0
H2075 H 0.18079 0.40018 0.7197 0.0
H2076 H 0.17987 0.60668 0.29541 0.0
H2077 H 0.15407 0.61345 0.28701 0.0
H2078 H 0.17029 0.61763 0.24076 0.0
H2079 H 0.1958 0.61076 0.24897 0.0
H2080 H 0.15024 0.64146 0.27573 0.0
H2081 H 0.12822 0.60111 0.23313 0.0
H2082 H 0.14313 0.59602 0.24642 0.0
H2083 H 0.14765 0.6057 0.22885 0.0
C2084 C 0.17779 0.60851 0.28338 0.0
C2085 C 0.1899 0.60847 0.27288 0.0
C2086 C 0.16304 0.61233 0.27859 0.0
C2087 C 0.16019 0.61591 0.26322 0.0
C2088 C 0.17206 0.61458 0.25259 0.0
H2089 H 0.12498 0.67945 0.20557 0.0
H2090 H 0.13284 0.65532 0.21725 0.0
C2091 C 0.18674 0.61088 0.25736 0.0
C2092 C 0.14621 0.62427 0.25872 0.0
H2093 H 0.12146 0.62813 0.22893 0.0
C2094 C 0.14354 0.63833 0.26582 0.0
C2095 C 0.13753 0.62019 0.24576 0.0
C2096 C 0.1392 0.60484 0.23823 0.0
C2097 C 0.13367 0.64912 0.2594 0.0
C2098 C 0.12586 0.64552 0.24571 0.0
C2099 C 0.1275 0.63092 0.23935 0.0
C2100 C 0.11794 0.65752 0.23683 0.0
C2101 C 0.13288 0.66476 0.2666 0.0
C2102 C 0.10627 0.66624 0.24345 0.0
C2103 C 0.1021 0.68018 0.23698 0.0
C2104 C 0.10909 0.68523 0.2235 0.0
C2105 C 0.11939 0.67567 0.21591 0.0
C2106 C 0.12386 0.6619 0.22259 0.0
H2107 H 0.14177 0.66642 0.27547 0.0
H2108 H 0.13427 0.6738 0.25786 0.0
H2109 H 0.12161 0.66627 0.27213 0.0
H2110 H 0.10127 0.66288 0.25422 0.0
H2111 H 0.09409 0.68744 0.24296 0.0
H2112 H 0.75876 0.86307 0.70502 0.0
H2113 H 0.749 0.85567 0.68025 0.0
H2114 H 0.76736 0.89679 0.6604 0.0
H2115 H 0.77777 0.90409 0.68546 0.0
H2116 H 0.72811 0.87073 0.6625 0.0
H2117 H 0.78324 0.86412 0.63153 0.0
H2118 H 0.78279 0.86606 0.652 0.0
H2119 H 0.77862 0.88217 0.64009 0.0
C2120 C 0.76078 0.87057 0.69541 0.0
C2121 C 0.76898 0.88418 0.69719 0.0
C2122 C 0.75514 0.86635 0.68124 0.0
C2123 C 0.75736 0.8757 0.66845 0.0
C2124 C 0.76563 0.88932 0.67007 0.0
H2125 H 0.70881 0.81705 0.60335 0.0
H2126 H 0.7161 0.84287 0.61141 0.0
C2127 C 0.77156 0.89348 0.68436 0.0
C2128 C 0.75097 0.8705 0.65369 0.0
H2129 H 0.76208 0.85126 0.62182 0.0
C2130 C 0.7354 0.86682 0.6533 0.0
C2131 C 0.76048 0.86576 0.64158 0.0
C2132 C 0.77723 0.86965 0.6412 0.0
C2133 C 0.72956 0.85657 0.64251 0.0
C2134 C 0.73953 0.85033 0.63146 0.0
C2135 C 0.75453 0.8559 0.63045 0.0
C2136 C 0.73607 0.83555 0.62397 0.0
C2137 C 0.7133 0.8512 0.64421 0.0
C2138 C 0.74524 0.823 0.62767 0.0
C2139 C 0.74126 0.80842 0.62297 0.0
C2140 C 0.72789 0.8059 0.6145 0.0
C2141 C 0.71906 0.81856 0.61006 0.0
C2142 C 0.72319 0.83332 0.61469 0.0
H2143 H 0.70758 0.85626 0.65431 0.0
H2144 H 0.70668 0.85445 0.63393 0.0
H2145 H 0.71292 0.8386 0.64531 0.0
H2146 H 0.75521 0.82437 0.63484 0.0
H2147 H 0.74849 0.79904 0.62648 0.0
H2148 H 0.60501 0.29369 0.18189 0.0
H2149 H 0.61184 0.28492 0.15618 0.0
H2150 H 0.61887 0.23949 0.17368 0.0
H2151 H 0.61185 0.24796 0.19897 0.0
H2152 H 0.63926 0.27489 0.14948 0.0
H2153 H 0.59981 0.2291 0.13383 0.0
H2154 H 0.59527 0.2428 0.14854 0.0
H2155 H 0.60593 0.22575 0.153 0.0
C2156 C 0.60763 0.28175 0.18013 0.0
C2157 C 0.60809 0.27157 0.19252 0.0
C2158 C 0.61147 0.27675 0.16543 0.0
C2159 C 0.6156 0.26147 0.1629 0.0
C2160 C 0.61528 0.25121 0.17516 0.0
H2161 H 0.6816 0.20741 0.13629 0.0
H2162 H 0.65678 0.21867 0.14226 0.0
C2163 C 0.61151 0.25616 0.18975 0.0
C2164 C 0.62295 0.25658 0.14847 0.0
H2165 H 0.62711 0.22455 0.12679 0.0
C2166 C 0.63628 0.2642 0.14402 0.0
C2167 C 0.61899 0.24274 0.14118 0.0
C2168 C 0.60409 0.23477 0.14431 0.0
C2169 C 0.64675 0.25737 0.13406 0.0
C2170 C 0.64368 0.24259 0.12834 0.0
C2171 C 0.62953 0.23578 0.13136 0.0
C2172 C 0.65615 0.23306 0.12221 0.0
C2173 C 0.66173 0.26529 0.13104 0.0
C2174 C 0.66359 0.23684 0.10856 0.0
C2175 C 0.67778 0.23036 0.10515 0.0
C2176 C 0.6845 0.21998 0.11529 0.0
C2177 C 0.67645 0.21523 0.12823 0.0
C2178 C 0.66231 0.22166 0.13162 0.0
H2179 H 0.66268 0.27633 0.13718 0.0
H2180 H 0.67138 0.25789 0.13457 0.0
H2181 H 0.66291 0.26755 0.11865 0.0
H2182 H 0.65898 0.24557 0.10114 0.0
H2183 H 0.68397 0.23429 0.09521 0.0
H2184 H 0.27829 0.1805 0.59459 0.0
H2185 H 0.26746 0.15523 0.60077 0.0
H2186 H 0.26832 0.16674 0.64856 0.0
H2187 H 0.2787 0.19181 0.64249 0.0
H2188 H 0.27785 0.13079 0.6286 0.0
H2189 H 0.22128 0.15883 0.63075 0.0
H2190 H 0.23642 0.16507 0.61821 0.0
H2191 H 0.23665 0.17029 0.63802 0.0
C2192 C 0.27654 0.17737 0.60641 0.0
C2193 C 0.27922 0.18801 0.6181 0.0
C2194 C 0.27033 0.16303 0.6099 0.0
C2195 C 0.26702 0.15928 0.62509 0.0
C2196 C 0.27075 0.16952 0.63677 0.0
H2197 H 0.25405 0.11451 0.69933 0.0
H2198 H 0.26233 0.12103 0.67389 0.0
C2199 C 0.27668 0.1838 0.6333 0.0
C2200 C 0.25826 0.14555 0.62926 0.0
H2201 H 0.22535 0.13806 0.64831 0.0
C2202 C 0.26615 0.13203 0.6324 0.0
C2203 C 0.24288 0.14701 0.63378 0.0
C2204 C 0.23372 0.16103 0.6299 0.0
C2205 C 0.25962 0.12078 0.64174 0.0
C2206 C 0.2452 0.12352 0.64847 0.0
C2207 C 0.23653 0.136 0.64345 0.0
C2208 C 0.24065 0.1162 0.66306 0.0
C2209 C 0.2687 0.1066 0.64515 0.0
C2210 C 0.22559 0.11135 0.66567 0.0
C2211 C 0.22067 0.10785 0.68048 0.0
C2212 C 0.2307 0.10934 0.69291 0.0
C2213 C 0.24595 0.11337 0.69008 0.0
C2214 C 0.25082 0.11684 0.67539 0.0
H2215 H 0.27471 0.10262 0.63473 0.0
H2216 H 0.27754 0.10925 0.6538 0.0
H2217 H 0.26136 0.09723 0.64948 0.0
H2218 H 0.21748 0.11095 0.65637 0.0
H2219 H 0.20886 0.10473 0.68227 0.0
H2220 H 0.31968 0.78051 0.09419 0.0
H2221 H 0.34524 0.76936 0.09797 0.0
H2222 H 0.33837 0.77067 0.14667 0.0
H2223 H 0.31308 0.78147 0.14294 0.0
H2224 H 0.36987 0.77718 0.13577 0.0
H2225 H 0.34397 0.72371 0.11316 0.0
H2226 H 0.34404 0.74101 0.10207 0.0
H2227 H 0.33173 0.7394 0.11833 0.0
C2228 C 0.32394 0.77887 0.10567 0.0
C2229 C 0.31449 0.78169 0.11831 0.0
C2230 C 0.33845 0.77247 0.10781 0.0
C2231 C 0.34361 0.7691 0.12259 0.0
C2232 C 0.33464 0.77324 0.13517 0.0
H2233 H 0.35801 0.72311 0.19076 0.0
H2234 H 0.35364 0.73328 0.16529 0.0
C2235 C 0.32018 0.77936 0.13305 0.0
C2236 C 0.35687 0.75911 0.12551 0.0
H2237 H 0.36173 0.72133 0.13311 0.0
C2238 C 0.36871 0.76493 0.13455 0.0
C2239 C 0.35537 0.74315 0.12377 0.0
C2240 C 0.34314 0.73633 0.11379 0.0
C2241 C 0.3775 0.75523 0.14375 0.0
C2242 C 0.37424 0.73945 0.14385 0.0
C2243 C 0.3641 0.73347 0.13305 0.0
C2244 C 0.37699 0.73046 0.15782 0.0
C2245 C 0.38868 0.76209 0.15485 0.0
C2246 C 0.39149 0.725 0.16184 0.0
C2247 C 0.39397 0.71895 0.17645 0.0
C2248 C 0.38202 0.71863 0.18716 0.0
C2249 C 0.3674 0.72331 0.18273 0.0
C2250 C 0.3649 0.72906 0.16818 0.0
H2251 H 0.39093 0.77431 0.1524 0.0
H2252 H 0.38411 0.76111 0.16662 0.0
H2253 H 0.39964 0.75577 0.15443 0.0
H2254 H 0.40095 0.72604 0.15397 0.0
H2255 H 0.40537 0.71549 0.17969 0.0
H2256 H 0.71669 0.17988 0.40177 0.0
H2257 H 0.72784 0.15437 0.39781 0.0
H2258 H 0.73184 0.1638 0.3497 0.0
H2259 H 0.72101 0.18906 0.3536 0.0
H2260 H 0.72267 0.13194 0.35871 0.0
H2261 H 0.77508 0.1545 0.38666 0.0
H2262 H 0.75681 0.15518 0.39608 0.0
H2263 H 0.76061 0.16767 0.38033 0.0
C2264 C 0.71954 0.17624 0.39032 0.0
C2265 C 0.71816 0.1864 0.37798 0.0
C2266 C 0.72594 0.16175 0.38809 0.0
C2267 C 0.73074 0.15729 0.37348 0.0
C2268 C 0.72816 0.16701 0.36105 0.0
H2269 H 0.78278 0.14208 0.30951 0.0
H2270 H 0.77159 0.14649 0.33454 0.0
C2271 C 0.72204 0.18146 0.36329 0.0
C2272 C 0.74037 0.14372 0.37086 0.0
H2273 H 0.77839 0.13704 0.36654 0.0
C2274 C 0.73481 0.13244 0.36101 0.0
C2275 C 0.75617 0.14437 0.37402 0.0
C2276 C 0.76264 0.15603 0.38488 0.0
C2277 C 0.74482 0.12334 0.35247 0.0
C2278 C 0.76071 0.12572 0.35389 0.0
C2279 C 0.76619 0.13533 0.36544 0.0
C2280 C 0.77084 0.12262 0.34078 0.0
C2281 C 0.73838 0.1128 0.34051 0.0
C2282 C 0.7748 0.10776 0.3363 0.0
C2283 C 0.78143 0.10525 0.32195 0.0
C2284 C 0.78389 0.11756 0.31198 0.0
C2285 C 0.78095 0.13243 0.31701 0.0
C2286 C 0.77461 0.13494 0.33131 0.0
H2287 H 0.72578 0.11178 0.34133 0.0
H2288 H 0.74133 0.1171 0.32898 0.0
H2289 H 0.74344 0.10128 0.34176 0.0
H2290 H 0.77198 0.09812 0.34348 0.0
H2291 H 0.78351 0.09367 0.31821 0.0
H2292 H 0.31684 0.20855 0.89694 0.0
H2293 H 0.34258 0.21731 0.89037 0.0
H2294 H 0.32395 0.26039 0.87558 0.0
H2295 H 0.2987 0.25208 0.88254 0.0
H2296 H 0.35136 0.22224 0.86338 0.0
H2297 H 0.36234 0.27606 0.89233 0.0
H2298 H 0.3478 0.26313 0.89909 0.0
H2299 H 0.34334 0.27767 0.88516 0.0
C2300 C 0.31834 0.22004 0.89269 0.0
C2301 C 0.30565 0.22951 0.89004 0.0
C2302 C 0.33307 0.22506 0.889 0.0
C2303 C 0.33534 0.23964 0.88271 0.0
C2304 C 0.32273 0.24931 0.88089 0.0
H2305 H 0.3563 0.26517 0.8017 0.0
H2306 H 0.35067 0.25534 0.82694 0.0
C2307 C 0.30814 0.24438 0.88462 0.0
C2308 C 0.3499 0.24383 0.87511 0.0
H2309 H 0.36823 0.2762 0.86376 0.0
C2310 C 0.35556 0.23385 0.86395 0.0
C2311 C 0.35597 0.25878 0.87602 0.0
C2312 C 0.35211 0.26939 0.88897 0.0
C2313 C 0.36503 0.23918 0.85227 0.0
C2314 C 0.36857 0.25489 0.85157 0.0
C2315 C 0.36505 0.26426 0.86402 0.0
C2316 C 0.37228 0.26205 0.83678 0.0
C2317 C 0.36988 0.22828 0.83989 0.0
C2318 C 0.38599 0.26988 0.83417 0.0
C2319 C 0.38922 0.27574 0.81961 0.0
C2320 C 0.37874 0.27376 0.80761 0.0
C2321 C 0.36474 0.26661 0.81061 0.0
C2322 C 0.36153 0.26092 0.82502 0.0
H2323 H 0.37141 0.21659 0.84451 0.0
H2324 H 0.36086 0.22776 0.83103 0.0
H2325 H 0.38068 0.23201 0.83442 0.0
H2326 H 0.39431 0.27106 0.84322 0.0
H2327 H 0.40009 0.28124 0.81759 0.0
H2328 H 0.28606 0.81485 0.35709 0.0
H2329 H 0.2748 0.83998 0.35364 0.0
H2330 H 0.26933 0.84441 0.40234 0.0
H2331 H 0.28102 0.81912 0.40582 0.0
H2332 H 0.24216 0.84566 0.38627 0.0
H2333 H 0.28266 0.88534 0.3597 0.0
H2334 H 0.28501 0.86681 0.35142 0.0
H2335 H 0.28882 0.86953 0.37145 0.0
C2336 C 0.28307 0.82148 0.36708 0.0
C2337 C 0.28439 0.81517 0.38169 0.0
C2338 C 0.27673 0.8359 0.36514 0.0
C2339 C 0.27138 0.84418 0.37775 0.0
C2340 C 0.2736 0.83831 0.39249 0.0
H2341 H 0.21726 0.90425 0.32164 0.0
H2342 H 0.22873 0.90032 0.34697 0.0
C2343 C 0.28028 0.82392 0.39446 0.0
C2344 C 0.26077 0.857 0.37487 0.0
H2345 H 0.25659 0.88497 0.34832 0.0
C2346 C 0.24535 0.85475 0.37851 0.0
C2347 C 0.26486 0.86913 0.3651 0.0
C2348 C 0.28129 0.87293 0.36185 0.0
C2349 C 0.23387 0.8626 0.37063 0.0
C2350 C 0.238 0.87278 0.35886 0.0
C2351 C 0.25338 0.87689 0.35712 0.0
C2352 C 0.22766 0.8757 0.34585 0.0
C2353 C 0.21743 0.8588 0.37386 0.0
C2354 C 0.22297 0.86319 0.33703 0.0
C2355 C 0.21676 0.8654 0.3226 0.0
C2356 C 0.21491 0.88016 0.31679 0.0
C2357 C 0.21842 0.89276 0.32603 0.0
C2358 C 0.22497 0.89054 0.34045 0.0
H2359 H 0.21578 0.85618 0.38615 0.0
H2360 H 0.20975 0.86831 0.37058 0.0
H2361 H 0.21416 0.8485 0.36728 0.0
H2362 H 0.22527 0.85165 0.34077 0.0
H2363 H 0.21425 0.85554 0.31559 0.0
H2364 H 0.60608 0.70588 0.81918 0.0
H2365 H 0.61271 0.71419 0.84507 0.0
H2366 H 0.62288 0.75915 0.82778 0.0
H2367 H 0.61577 0.75121 0.80247 0.0
H2368 H 0.63944 0.72074 0.85282 0.0
H2369 H 0.60768 0.77189 0.86769 0.0
H2370 H 0.60101 0.75924 0.85286 0.0
H2371 H 0.61362 0.77497 0.84845 0.0
C2372 C 0.60924 0.71767 0.82106 0.0
C2373 C 0.61069 0.7278 0.80871 0.0
C2374 C 0.61299 0.72242 0.83587 0.0
C2375 C 0.61814 0.73739 0.83854 0.0
C2376 C 0.61851 0.7477 0.82631 0.0
H2377 H 0.69931 0.76652 0.85761 0.0
H2378 H 0.67463 0.75522 0.8523 0.0
C2379 C 0.61471 0.74302 0.81165 0.0
C2380 C 0.62626 0.74155 0.85284 0.0
H2381 H 0.63658 0.77396 0.87172 0.0
C2382 C 0.63837 0.73215 0.85746 0.0
C2383 C 0.62476 0.75618 0.85953 0.0
C2384 C 0.6109 0.766 0.85695 0.0
C2385 C 0.65023 0.73792 0.86644 0.0
C2386 C 0.65016 0.75352 0.87049 0.0
C2387 C 0.63693 0.76215 0.86807 0.0
C2388 C 0.66461 0.76149 0.87397 0.0
C2389 C 0.66344 0.72761 0.87032 0.0
C2390 C 0.66688 0.76965 0.88756 0.0
C2391 C 0.68109 0.77641 0.89057 0.0
C2392 C 0.69309 0.77502 0.88 0.0
C2393 C 0.6904 0.76754 0.86611 0.0
C2394 C 0.67632 0.76098 0.8631 0.0
H2395 H 0.6595 0.71569 0.87199 0.0
H2396 H 0.67168 0.7276 0.86071 0.0
H2397 H 0.66943 0.73147 0.88079 0.0
H2398 H 0.65787 0.77041 0.89597 0.0
H2399 H 0.68288 0.78213 0.90137 0.0
H2400 H 0.09382 0.21923 0.19336 0.0
H2401 H 0.10421 0.19475 0.2021 0.0
H2402 H 0.12203 0.21677 0.24232 0.0
H2403 H 0.11142 0.24093 0.23393 0.0
H2404 H 0.13375 0.1891 0.20552 0.0
H2405 H 0.10586 0.17831 0.26071 0.0
H2406 H 0.09847 0.19198 0.24721 0.0
H2407 H 0.11332 0.19731 0.2604 0.0
C2408 C 0.0996 0.21871 0.20426 0.0
C2409 C 0.10186 0.23198 0.21294 0.0
C2410 C 0.10554 0.20475 0.20923 0.0
C2411 C 0.1137 0.20386 0.22299 0.0
C2412 C 0.11542 0.21703 0.2319 0.0
H2413 H 0.19442 0.1582 0.24659 0.0
H2414 H 0.17371 0.17415 0.2372 0.0
C2415 C 0.10948 0.2309 0.22698 0.0
C2416 C 0.12221 0.18988 0.22721 0.0
H2417 H 0.13162 0.16794 0.25793 0.0
C2418 C 0.13302 0.18423 0.21686 0.0
C2419 C 0.12113 0.18331 0.2419 0.0
C2420 C 0.10893 0.18796 0.2531 0.0
C2421 C 0.14355 0.17301 0.22121 0.0
C2422 C 0.14348 0.16761 0.23641 0.0
C2423 C 0.1319 0.17236 0.24638 0.0
C2424 C 0.1559 0.15788 0.24242 0.0
C2425 C 0.15486 0.16733 0.20956 0.0
C2426 C 0.15271 0.1437 0.24907 0.0
C2427 C 0.16454 0.13459 0.25466 0.0
C2428 C 0.17979 0.13955 0.25373 0.0
C2429 C 0.18286 0.15395 0.2474 0.0
C2430 C 0.17103 0.16304 0.24189 0.0
H2431 H 0.15027 0.16843 0.1978 0.0
H2432 H 0.16539 0.17429 0.21023 0.0
H2433 H 0.15791 0.15522 0.21161 0.0
H2434 H 0.14108 0.13959 0.24974 0.0
H2435 H 0.16175 0.12357 0.25947 0.0
H2436 H 0.37567 0.6657 0.75783 0.0
H2437 H 0.35826 0.64577 0.74898 0.0
H2438 H 0.32466 0.67995 0.73802 0.0
H2439 H 0.34207 0.69992 0.74641 0.0
H2440 H 0.33054 0.63714 0.75815 0.0
H2441 H 0.32684 0.65693 0.69846 0.0
H2442 H 0.34086 0.66424 0.71162 0.0
H2443 H 0.32177 0.67183 0.71149 0.0
C2444 C 0.36455 0.66897 0.75358 0.0
C2445 C 0.36031 0.68442 0.75272 0.0
C2446 C 0.35464 0.65757 0.74847 0.0
C2447 C 0.34032 0.6614 0.74245 0.0
C2448 C 0.33585 0.67676 0.74213 0.0
H2449 H 0.25735 0.61331 0.73661 0.0
H2450 H 0.28071 0.62622 0.74403 0.0
C2451 C 0.34578 0.68816 0.74708 0.0
C2452 C 0.32982 0.64938 0.73686 0.0
H2453 H 0.30683 0.64008 0.70688 0.0
C2454 C 0.32553 0.63765 0.74685 0.0
C2455 C 0.32357 0.64978 0.72198 0.0
C2456 C 0.32864 0.66128 0.71022 0.0
C2457 C 0.31447 0.62686 0.7427 0.0
C2458 C 0.30725 0.62809 0.72832 0.0
C2459 C 0.31221 0.63925 0.71799 0.0
C2460 C 0.29363 0.61891 0.72431 0.0
C2461 C 0.31053 0.61437 0.75385 0.0
C2462 C 0.29298 0.61066 0.71058 0.0
C2463 C 0.27947 0.60338 0.70617 0.0
C2464 C 0.2664 0.60435 0.71539 0.0
C2465 C 0.26723 0.61229 0.72927 0.0
C2466 C 0.28066 0.61958 0.73362 0.0
H2467 H 0.32041 0.61158 0.76126 0.0
H2468 H 0.30112 0.61829 0.76135 0.0
H2469 H 0.30682 0.60383 0.7479 0.0
H2470 H 0.30283 0.61012 0.70315 0.0
H2471 H 0.27913 0.59742 0.69537 0.0
H2472 H 0.80966 0.84063 0.24572 0.0
H2473 H 0.83052 0.82527 0.23578 0.0
H2474 H 0.86178 0.86248 0.24327 0.0
H2475 H 0.84095 0.87788 0.25373 0.0
H2476 H 0.8487 0.82977 0.21148 0.0
H2477 H 0.88346 0.82786 0.26452 0.0
H2478 H 0.86415 0.83489 0.26431 0.0
H2479 H 0.87942 0.84655 0.25721 0.0
C2480 C 0.82097 0.84558 0.24533 0.0
C2481 C 0.82364 0.86047 0.25063 0.0
C2482 C 0.83289 0.83678 0.23959 0.0
C2483 C 0.84775 0.84266 0.23891 0.0
C2484 C 0.85047 0.8576 0.24397 0.0
H2485 H 0.90908 0.77891 0.19038 0.0
H2486 H 0.89877 0.80395 0.19757 0.0
C2487 C 0.83854 0.86639 0.2499 0.0
C2488 C 0.86019 0.83288 0.23294 0.0
H2489 H 0.89226 0.81364 0.24368 0.0
C2490 C 0.85837 0.82638 0.21842 0.0
C2491 C 0.87277 0.82851 0.24203 0.0
C2492 C 0.87508 0.83469 0.25793 0.0
C2493 C 0.86819 0.81492 0.21313 0.0
C2494 C 0.88049 0.81019 0.22244 0.0
C2495 C 0.88288 0.81739 0.23654 0.0
C2496 C 0.88926 0.79617 0.21899 0.0
C2497 C 0.8646 0.80723 0.19814 0.0
C2498 C 0.88816 0.7838 0.22905 0.0
C2499 C 0.89421 0.76967 0.22511 0.0
C2500 C 0.90142 0.76757 0.21097 0.0
C2501 C 0.9035 0.7802 0.20132 0.0
C2502 C 0.8975 0.79445 0.20535 0.0
H2503 H 0.85321 0.81051 0.19367 0.0
H2504 H 0.87326 0.81055 0.18954 0.0
H2505 H 0.86493 0.79463 0.19938 0.0
H2506 H 0.88192 0.78485 0.23966 0.0
H2507 H 0.89255 0.76019 0.23286 0.0
H2508 H 0.64768 0.30936 0.73172 0.0
H2509 H 0.6642 0.33027 0.72385 0.0
H2510 H 0.64024 0.36088 0.7539 0.0
H2511 H 0.6235 0.33996 0.76194 0.0
H2512 H 0.6491 0.37234 0.72171 0.0
H2513 H 0.69569 0.34735 0.75668 0.0
H2514 H 0.68613 0.33429 0.7441 0.0
H2515 H 0.67586 0.3427 0.75969 0.0
C2516 C 0.64581 0.32053 0.73664 0.0
C2517 C 0.63441 0.32291 0.74768 0.0
C2518 C 0.65523 0.33247 0.73205 0.0
C2519 C 0.65347 0.34702 0.73839 0.0
C2520 C 0.64172 0.34969 0.74889 0.0
H2521 H 0.73035 0.40819 0.73715 0.0
H2522 H 0.70613 0.39663 0.74457 0.0
C2523 C 0.63223 0.33771 0.7535 0.0
C2524 C 0.66483 0.35896 0.73498 0.0
H2525 H 0.70244 0.36719 0.73978 0.0
C2526 C 0.66075 0.37138 0.72576 0.0
C2527 C 0.6799 0.35769 0.74046 0.0
C2528 C 0.6847 0.34487 0.75089 0.0
C2529 C 0.6716 0.38238 0.72145 0.0
C2530 C 0.68687 0.38072 0.7264 0.0
C2531 C 0.69074 0.36849 0.73599 0.0
C2532 C 0.69933 0.39103 0.72151 0.0
C2533 C 0.66664 0.39563 0.7117 0.0
C2534 C 0.70324 0.39235 0.70602 0.0
C2535 C 0.71698 0.39926 0.70175 0.0
C2536 C 0.72707 0.40461 0.71295 0.0
C2537 C 0.72271 0.40414 0.72832 0.0
C2538 C 0.70891 0.39753 0.73256 0.0
H2539 H 0.65423 0.39787 0.71291 0.0
H2540 H 0.67301 0.40616 0.71467 0.0
H2541 H 0.66891 0.39291 0.69955 0.0
H2542 H 0.69623 0.38711 0.69731 0.0
H2543 H 0.72024 0.39927 0.68983 0.0
H2544 H 0.09417 0.77861 0.80413 0.0
H2545 H 0.10427 0.80367 0.79677 0.0
H2546 H 0.1228 0.78403 0.75564 0.0
H2547 H 0.11238 0.75937 0.76258 0.0
H2548 H 0.13318 0.81093 0.79381 0.0
H2549 H 0.10564 0.82243 0.73867 0.0
H2550 H 0.09872 0.80788 0.75149 0.0
H2551 H 0.11388 0.80376 0.73821 0.0
C2552 C 0.10009 0.77977 0.79335 0.0
C2553 C 0.10251 0.76703 0.78394 0.0
C2554 C 0.10586 0.79407 0.78917 0.0
C2555 C 0.11407 0.79582 0.77551 0.0
C2556 C 0.11611 0.78314 0.76598 0.0
H2557 H 0.19363 0.84444 0.75494 0.0
H2558 H 0.17318 0.82811 0.76418 0.0
C2559 C 0.11029 0.76896 0.77007 0.0
C2560 C 0.12208 0.81025 0.77188 0.0
H2561 H 0.13121 0.83329 0.7419 0.0
C2562 C 0.13248 0.81605 0.78257 0.0
C2563 C 0.12097 0.81724 0.75737 0.0
C2564 C 0.10905 0.81258 0.74588 0.0
C2565 C 0.14264 0.82778 0.77871 0.0
C2566 C 0.1427 0.83351 0.76362 0.0
C2567 C 0.13145 0.82863 0.75335 0.0
C2568 C 0.155 0.84363 0.75798 0.0
C2569 C 0.1534 0.83366 0.79077 0.0
C2570 C 0.15158 0.8575 0.75078 0.0
C2571 C 0.16328 0.86678 0.7452 0.0
C2572 C 0.17863 0.86234 0.7467 0.0
C2573 C 0.18197 0.8483 0.75369 0.0
C2574 C 0.17028 0.839 0.75914 0.0
H2575 H 0.14835 0.83251 0.80233 0.0
H2576 H 0.16404 0.82682 0.79056 0.0
H2577 H 0.15637 0.84582 0.78883 0.0
H2578 H 0.13986 0.86121 0.7496 0.0
H2579 H 0.1603 0.87754 0.73991 0.0
H2580 H 0.62021 0.65737 0.24513 0.0
H2581 H 0.6354 0.63691 0.2565 0.0
H2582 H 0.67327 0.66786 0.2616 0.0
H2583 H 0.65808 0.68843 0.25071 0.0
H2584 H 0.66094 0.62357 0.24795 0.0
H2585 H 0.67101 0.65055 0.30377 0.0
H2586 H 0.65714 0.65784 0.29043 0.0
H2587 H 0.67695 0.66314 0.28882 0.0
C2588 C 0.63178 0.65982 0.24867 0.0
C2589 C 0.63791 0.67457 0.2471 0.0
C2590 C 0.64042 0.64812 0.25523 0.0
C2591 C 0.65533 0.65095 0.2603 0.0
C2592 C 0.66161 0.66553 0.25828 0.0
H2593 H 0.73493 0.60127 0.26365 0.0
H2594 H 0.71017 0.61196 0.25754 0.0
C2595 C 0.65295 0.67726 0.2519 0.0
C2596 C 0.66468 0.63858 0.26706 0.0
H2597 H 0.68968 0.63157 0.29599 0.0
C2598 C 0.66698 0.62518 0.25862 0.0
C2599 C 0.67218 0.64035 0.28124 0.0
C2600 C 0.66904 0.65368 0.29165 0.0
C2601 C 0.67759 0.61417 0.26333 0.0
C2602 C 0.68642 0.61687 0.27656 0.0
C2603 C 0.68313 0.62959 0.28569 0.0
C2604 C 0.70046 0.60805 0.27991 0.0
C2605 C 0.6795 0.59996 0.25383 0.0
C2606 C 0.70338 0.6023 0.29459 0.0
C2607 C 0.71775 0.59632 0.29821 0.0
C2608 C 0.7294 0.59615 0.28721 0.0
C2609 C 0.72618 0.60124 0.27237 0.0
C2610 C 0.71193 0.60722 0.2688 0.0
H2611 H 0.66848 0.59655 0.24859 0.0
H2612 H 0.68761 0.6023 0.2444 0.0
H2613 H 0.68391 0.59029 0.2607 0.0
H2614 H 0.69474 0.60297 0.30339 0.0
H2615 H 0.71995 0.59255 0.30976 0.0
H2616 H 0.90649 0.21918 0.80512 0.0
H2617 H 0.89569 0.19438 0.79795 0.0
H2618 H 0.87712 0.2144 0.75702 0.0
H2619 H 0.88828 0.23882 0.76377 0.0
H2620 H 0.86671 0.18765 0.79538 0.0
H2621 H 0.89331 0.17571 0.73983 0.0
H2622 H 0.90057 0.19021 0.7525 0.0
H2623 H 0.88517 0.19443 0.73953 0.0
C2624 C 0.90041 0.21816 0.79442 0.0
C2625 C 0.89822 0.23094 0.78501 0.0
C2626 C 0.89423 0.20401 0.79035 0.0
C2627 C 0.88581 0.20243 0.7768 0.0
C2628 C 0.88395 0.21515 0.76728 0.0
H2629 H 0.80597 0.15331 0.75763 0.0
H2630 H 0.8264 0.16971 0.76667 0.0
C2631 C 0.89022 0.22919 0.77125 0.0
C2632 C 0.8775 0.18811 0.7733 0.0
H2633 H 0.86802 0.16469 0.74372 0.0
C2634 C 0.86725 0.18241 0.7842 0.0
C2635 C 0.8784 0.18099 0.75884 0.0
C2636 C 0.89011 0.18558 0.7471 0.0
C2637 C 0.85711 0.17058 0.78063 0.0
C2638 C 0.85689 0.16461 0.76564 0.0
C2639 C 0.86793 0.16948 0.75512 0.0
C2640 C 0.8446 0.1543 0.76031 0.0
C2641 C 0.84654 0.16481 0.79293 0.0
C2642 C 0.84802 0.1404 0.75313 0.0
C2643 C 0.8363 0.13105 0.74765 0.0
C2644 C 0.82096 0.13546 0.74924 0.0
C2645 C 0.81763 0.14946 0.75632 0.0
C2646 C 0.82931 0.15881 0.76165 0.0
H2647 H 0.85176 0.16613 0.8044 0.0
H2648 H 0.83588 0.17162 0.79279 0.0
H2649 H 0.84359 0.15263 0.79119 0.0
H2650 H 0.85975 0.13676 0.75182 0.0
H2651 H 0.83927 0.12034 0.74227 0.0
H2652 H 0.37392 0.3381 0.24047 0.0
H2653 H 0.35684 0.35825 0.24946 0.0
H2654 H 0.32341 0.32442 0.2619 0.0
H2655 H 0.34045 0.30423 0.2533 0.0
H2656 H 0.32853 0.36647 0.24049 0.0
H2657 H 0.32692 0.34869 0.30088 0.0
H2658 H 0.34072 0.34122 0.28756 0.0
H2659 H 0.32182 0.33324 0.28852 0.0
C2660 C 0.36292 0.33493 0.24512 0.0
C2661 C 0.3586 0.31952 0.24625 0.0
C2662 C 0.35321 0.34648 0.25028 0.0
C2663 C 0.33902 0.34282 0.25669 0.0
C2664 C 0.3345 0.32749 0.25743 0.0
H2665 H 0.2546 0.3864 0.26306 0.0
H2666 H 0.27891 0.37576 0.25506 0.0
C2667 C 0.34422 0.31595 0.25237 0.0
C2668 C 0.32863 0.35495 0.2622 0.0
H2669 H 0.30613 0.36461 0.29239 0.0
C2670 C 0.32382 0.36624 0.25193 0.0
C2671 C 0.32281 0.35494 0.27725 0.0
C2672 C 0.32848 0.34397 0.28923 0.0
C2673 C 0.31252 0.37682 0.25597 0.0
C2674 C 0.30564 0.37584 0.27053 0.0
C2675 C 0.31125 0.36526 0.28115 0.0
C2676 C 0.29156 0.38435 0.27443 0.0
C2677 C 0.30789 0.38876 0.24449 0.0
C2678 C 0.29051 0.39272 0.28806 0.0
C2679 C 0.27648 0.39869 0.29279 0.0
C2680 C 0.2633 0.39625 0.28402 0.0
C2681 C 0.26455 0.38848 0.27007 0.0
C2682 C 0.27851 0.3825 0.26539 0.0
H2683 H 0.31759 0.3918 0.23694 0.0
H2684 H 0.29867 0.38414 0.23717 0.0
H2685 H 0.30368 0.39928 0.25015 0.0
H2686 H 0.30042 0.39418 0.29527 0.0
H2687 H 0.27584 0.40459 0.30362 0.0
H2688 H 0.2588 0.16368 0.12134 0.0
H2689 H 0.24968 0.14402 0.13885 0.0
H2690 H 0.23751 0.17869 0.17154 0.0
H2691 H 0.24617 0.19843 0.15396 0.0
H2692 H 0.2586 0.13609 0.16665 0.0
H2693 H 0.19853 0.15477 0.16943 0.0
H2694 H 0.2117 0.16216 0.15546 0.0
H2695 H 0.21119 0.17 0.17444 0.0
C2696 C 0.25419 0.16714 0.13226 0.0
C2697 C 0.25314 0.18266 0.13621 0.0
C2698 C 0.24894 0.15588 0.14223 0.0
C2699 C 0.24257 0.15989 0.15635 0.0
C2700 C 0.24193 0.17534 0.1605 0.0
H2701 H 0.23685 0.11276 0.23987 0.0
H2702 H 0.24432 0.12533 0.21634 0.0
C2703 C 0.24702 0.18662 0.15049 0.0
C2704 C 0.23708 0.14795 0.167 0.0
H2705 H 0.20704 0.13836 0.18977 0.0
C2706 C 0.24724 0.13645 0.17154 0.0
C2707 C 0.22213 0.14814 0.17307 0.0
C2708 C 0.21022 0.15933 0.16771 0.0
C2709 C 0.24317 0.1257 0.18266 0.0
C2710 C 0.22869 0.12675 0.18972 0.0
C2711 C 0.21821 0.13767 0.18451 0.0
C2712 C 0.22472 0.11769 0.20343 0.0
C2713 C 0.25449 0.11344 0.18683 0.0
C2714 C 0.21106 0.10934 0.20414 0.0
C2715 C 0.2066 0.10228 0.21776 0.0
C2716 C 0.21572 0.10356 0.23087 0.0
C2717 C 0.22958 0.11152 0.22996 0.0
C2718 C 0.23396 0.11861 0.21644 0.0
H2719 H 0.26196 0.11062 0.177 0.0
H2720 H 0.26191 0.11764 0.19618 0.0
H2721 H 0.2487 0.10287 0.1907 0.0
H2722 H 0.20368 0.10858 0.19426 0.0
H2723 H 0.19582 0.09628 0.21814 0.0
H2724 H 0.33681 0.75269 0.61987 0.0
H2725 H 0.35802 0.74219 0.63472 0.0
H2726 H 0.32754 0.73412 0.67248 0.0
H2727 H 0.30631 0.74405 0.65762 0.0
H2728 H 0.37075 0.75117 0.66023 0.0
H2729 H 0.34788 0.69354 0.66997 0.0
H2730 H 0.33953 0.70643 0.65628 0.0
H2731 H 0.33422 0.70739 0.67613 0.0
C2732 C 0.33464 0.74862 0.63132 0.0
C2733 C 0.31985 0.74911 0.63753 0.0
C2734 C 0.34675 0.74257 0.63977 0.0
C2735 C 0.34431 0.73697 0.65457 0.0
C2736 C 0.32963 0.73783 0.66089 0.0
H2737 H 0.39444 0.73713 0.7342 0.0
H2738 H 0.38307 0.74245 0.70955 0.0
C2739 C 0.31751 0.74367 0.65242 0.0
C2740 C 0.35713 0.73103 0.66387 0.0
H2741 H 0.36601 0.7027 0.68897 0.0
C2742 C 0.36988 0.7404 0.66625 0.0
C2743 C 0.35633 0.71676 0.67137 0.0
C2744 C 0.34382 0.7054 0.66814 0.0
C2745 C 0.38112 0.7365 0.67694 0.0
C2746 C 0.37931 0.72313 0.68579 0.0
C2747 C 0.36729 0.71311 0.68242 0.0
C2748 C 0.38833 0.72036 0.69983 0.0
C2749 C 0.39461 0.74698 0.6789 0.0
C2750 C 0.395 0.70608 0.70274 0.0
C2751 C 0.40133 0.70289 0.71706 0.0
C2752 C 0.40098 0.71392 0.72867 0.0
C2753 C 0.39491 0.72839 0.72548 0.0
C2754 C 0.38854 0.73152 0.71129 0.0
H2755 H 0.39771 0.75243 0.66789 0.0
H2756 H 0.39157 0.75624 0.68698 0.0
H2757 H 0.40473 0.74082 0.68338 0.0
H2758 H 0.39484 0.69724 0.69412 0.0
H2759 H 0.40587 0.69161 0.71923 0.0
H2760 H 0.76357 0.88618 0.24351 0.0
H2761 H 0.75451 0.87629 0.21924 0.0
H2762 H 0.79155 0.89881 0.196 0.0
H2763 H 0.80105 0.90842 0.22053 0.0
H2764 H 0.74554 0.88814 0.19173 0.0
H2765 H 0.79899 0.85428 0.18591 0.0
H2766 H 0.79428 0.86434 0.2032 0.0
H2767 H 0.80116 0.87462 0.18687 0.0
C2768 C 0.76974 0.88919 0.23324 0.0
C2769 C 0.7832 0.89784 0.23395 0.0
C2770 C 0.76448 0.88359 0.21934 0.0
C2771 C 0.7725 0.88657 0.20585 0.0
C2772 C 0.78536 0.89612 0.20634 0.0
H2773 H 0.73628 0.83975 0.12372 0.0
H2774 H 0.74462 0.86081 0.14013 0.0
C2775 C 0.79073 0.90165 0.22033 0.0
C2776 C 0.76805 0.87836 0.19177 0.0
H2777 H 0.77936 0.84914 0.16872 0.0
C2778 C 0.75299 0.87979 0.18648 0.0
C2779 C 0.7778 0.86741 0.18504 0.0
C2780 C 0.79392 0.86492 0.19056 0.0
C2781 C 0.74718 0.86999 0.17522 0.0
C2782 C 0.75677 0.85865 0.16897 0.0
C2783 C 0.77206 0.85785 0.17359 0.0
C2784 C 0.75086 0.84631 0.15908 0.0
C2785 C 0.7306 0.87118 0.17081 0.0
C2786 C 0.7516 0.83122 0.16431 0.0
C2787 C 0.74699 0.81922 0.15499 0.0
C2788 C 0.74149 0.82202 0.1402 0.0
C2789 C 0.74038 0.8372 0.13509 0.0
C2790 C 0.74511 0.84926 0.14444 0.0
H2791 H 0.72419 0.87906 0.17838 0.0
H2792 H 0.72972 0.87549 0.15895 0.0
H2793 H 0.72509 0.85979 0.17122 0.0
H2794 H 0.75595 0.82871 0.1756 0.0
H2795 H 0.74794 0.80771 0.15936 0.0
H2796 H 0.6083 0.2636 0.73836 0.0
H2797 H 0.61867 0.25684 0.71358 0.0
H2798 H 0.59759 0.29657 0.69367 0.0
H2799 H 0.58754 0.30378 0.71881 0.0
H2800 H 0.60764 0.25082 0.68539 0.0
H2801 H 0.64228 0.30407 0.68506 0.0
H2802 H 0.6317 0.29807 0.70161 0.0
H2803 H 0.62195 0.3064 0.68563 0.0
C2804 C 0.60569 0.27084 0.7287 0.0
C2805 C 0.59734 0.28437 0.73058 0.0
C2806 C 0.61158 0.26691 0.7145 0.0
C2807 C 0.60917 0.27635 0.70183 0.0
C2808 C 0.59987 0.2893 0.70339 0.0
H2809 H 0.65915 0.24219 0.62072 0.0
H2810 H 0.6375 0.25165 0.63566 0.0
C2811 C 0.59405 0.29335 0.71771 0.0
C2812 C 0.61768 0.27309 0.68759 0.0
H2813 H 0.64792 0.28574 0.66665 0.0
C2814 C 0.61627 0.25854 0.68106 0.0
C2815 C 0.62898 0.28319 0.68207 0.0
C2816 C 0.63146 0.29877 0.68897 0.0
C2817 C 0.62652 0.25341 0.66988 0.0
C2818 C 0.63822 0.26329 0.66484 0.0
C2819 C 0.63893 0.27821 0.67058 0.0
C2820 C 0.65108 0.25782 0.65532 0.0
C2821 C 0.62541 0.23713 0.66442 0.0
C2822 C 0.6659 0.25844 0.66128 0.0
C2823 C 0.67825 0.25324 0.65276 0.0
C2824 C 0.67608 0.2472 0.63808 0.0
C2825 C 0.66121 0.24662 0.63207 0.0
C2826 C 0.64881 0.25198 0.64059 0.0
H2827 H 0.61746 0.23026 0.67149 0.0
H2828 H 0.62118 0.23701 0.6525 0.0
H2829 H 0.63679 0.23158 0.66459 0.0
H2830 H 0.66792 0.26287 0.67264 0.0
H2831 H 0.68952 0.25389 0.65778 0.0
H2832 H 0.23413 0.89432 0.761 0.0
H2833 H 0.24054 0.88324 0.78555 0.0
H2834 H 0.19704 0.89748 0.80357 0.0
H2835 H 0.19025 0.90821 0.77859 0.0
H2836 H 0.24323 0.8932 0.81446 0.0
H2837 H 0.19529 0.85182 0.80962 0.0
H2838 H 0.20073 0.86408 0.79406 0.0
H2839 H 0.19017 0.87164 0.80991 0.0
C2840 C 0.22595 0.89527 0.7702 0.0
C2841 C 0.21158 0.90191 0.7678 0.0
C2842 C 0.22967 0.88897 0.78428 0.0
C2843 C 0.21916 0.88925 0.79632 0.0
C2844 C 0.20518 0.89683 0.79432 0.0
H2845 H 0.25429 0.84131 0.87818 0.0
H2846 H 0.24332 0.86194 0.86284 0.0
C2847 C 0.20137 0.90307 0.7801 0.0
C2848 C 0.22269 0.88046 0.81033 0.0
H2849 H 0.21286 0.8479 0.82924 0.0
C2850 C 0.23648 0.88343 0.8179 0.0
C2851 C 0.21388 0.86765 0.81469 0.0
C2852 C 0.19925 0.86347 0.80662 0.0
C2853 C 0.24221 0.87343 0.82901 0.0
C2854 C 0.23365 0.86035 0.83299 0.0
C2855 C 0.21939 0.85794 0.82614 0.0
C2856 C 0.24003 0.84805 0.8427 0.0
C2857 C 0.25783 0.87642 0.8356 0.0
C2858 C 0.24151 0.83333 0.83661 0.0
C2859 C 0.24754 0.82153 0.84537 0.0
C2860 C 0.25235 0.82418 0.86043 0.0
C2861 C 0.25087 0.83894 0.86655 0.0
C2862 C 0.24464 0.85075 0.85779 0.0
H2863 H 0.26415 0.88523 0.82904 0.0
H2864 H 0.25662 0.88053 0.8475 0.0
H2865 H 0.26474 0.86582 0.83578 0.0
H2866 H 0.23807 0.83098 0.82498 0.0
H2867 H 0.24851 0.81033 0.84027 0.0
H2868 H 0.59126 0.69322 0.27963 0.0
H2869 H 0.60114 0.70203 0.30429 0.0
H2870 H 0.62143 0.74098 0.28215 0.0
H2871 H 0.61129 0.73258 0.2578 0.0
H2872 H 0.6302 0.70443 0.31149 0.0
H2873 H 0.60444 0.7611 0.31923 0.0
H2874 H 0.59715 0.74757 0.30553 0.0
H2875 H 0.61281 0.75998 0.30064 0.0
C2876 C 0.59752 0.70385 0.28013 0.0
C2877 C 0.60054 0.7122 0.26679 0.0
C2878 C 0.60315 0.70886 0.29421 0.0
C2879 C 0.6118 0.72232 0.29514 0.0
C2880 C 0.61441 0.73084 0.28185 0.0
H2881 H 0.69182 0.74425 0.34073 0.0
H2882 H 0.67066 0.73459 0.32568 0.0
C2883 C 0.60874 0.7259 0.26787 0.0
C2884 C 0.61979 0.7266 0.30941 0.0
H2885 H 0.62977 0.75765 0.33062 0.0
C2886 C 0.62981 0.71596 0.31593 0.0
C2887 C 0.6191 0.74154 0.31547 0.0
C2888 C 0.60764 0.75311 0.30993 0.0
C2889 C 0.64006 0.72024 0.32741 0.0
C2890 C 0.64055 0.73563 0.33221 0.0
C2891 C 0.62963 0.74592 0.32669 0.0
C2892 C 0.65321 0.74153 0.34169 0.0
C2893 C 0.6506 0.70831 0.33395 0.0
C2894 C 0.6504 0.7492 0.35544 0.0
C2895 C 0.66254 0.75495 0.36407 0.0
C2896 C 0.67768 0.75319 0.35901 0.0
C2897 C 0.68035 0.74572 0.34508 0.0
C2898 C 0.66826 0.74005 0.33649 0.0
H2899 H 0.64535 0.6968 0.3334 0.0
H2900 H 0.66125 0.70799 0.32713 0.0
H2901 H 0.65358 0.71086 0.34598 0.0
H2902 H 0.63885 0.75062 0.35956 0.0
H2903 H 0.66007 0.76065 0.37474 0.0
H2904 H 0.76347 0.10437 0.76044 0.0
H2905 H 0.75668 0.11485 0.78519 0.0
H2906 H 0.79918 0.09865 0.80392 0.0
H2907 H 0.80632 0.08847 0.77882 0.0
H2908 H 0.75322 0.10432 0.81426 0.0
H2909 H 0.80233 0.14441 0.81006 0.0
H2910 H 0.79659 0.13255 0.79432 0.0
H2911 H 0.80681 0.12443 0.81011 0.0
C2912 C 0.77132 0.10284 0.76985 0.0
C2913 C 0.78555 0.09585 0.76763 0.0
C2914 C 0.76738 0.10877 0.78403 0.0
C2915 C 0.77755 0.1078 0.79632 0.0
C2916 C 0.7913 0.0998 0.79448 0.0
H2917 H 0.74303 0.15751 0.8775 0.0
H2918 H 0.75351 0.13623 0.86267 0.0
C2919 C 0.79532 0.0939 0.78019 0.0
C2920 C 0.77412 0.11656 0.81036 0.0
H2921 H 0.78453 0.14889 0.8293 0.0
C2922 C 0.76018 0.11391 0.81779 0.0
C2923 C 0.78321 0.12912 0.81482 0.0
C2924 C 0.79802 0.13294 0.80689 0.0
C2925 C 0.7546 0.12404 0.82886 0.0
C2926 C 0.7634 0.13695 0.83285 0.0
C2927 C 0.77781 0.13899 0.82618 0.0
C2928 C 0.75714 0.14955 0.84221 0.0
C2929 C 0.73889 0.12143 0.83537 0.0
C2930 C 0.75596 0.16413 0.83574 0.0
C2931 C 0.7502 0.17628 0.84419 0.0
C2932 C 0.74539 0.17413 0.85932 0.0
C2933 C 0.74649 0.1595 0.86581 0.0
C2934 C 0.75244 0.14732 0.85735 0.0
H2935 H 0.73252 0.11251 0.82901 0.0
H2936 H 0.73992 0.11767 0.8474 0.0
H2937 H 0.73213 0.13213 0.83518 0.0
H2938 H 0.75946 0.16611 0.82406 0.0
H2939 H 0.74949 0.18736 0.83879 0.0
H2940 H 0.40402 0.3074 0.2802 0.0
H2941 H 0.39311 0.29985 0.30487 0.0
H2942 H 0.37941 0.25676 0.2855 0.0
H2943 H 0.39059 0.26397 0.26123 0.0
H2944 H 0.36398 0.29458 0.31021 0.0
H2945 H 0.39539 0.24252 0.32556 0.0
H2946 H 0.40216 0.25547 0.31106 0.0
H2947 H 0.3885 0.24081 0.30642 0.0
C2948 C 0.39904 0.29617 0.28138 0.0
C2949 C 0.39813 0.28629 0.2688 0.0
C2950 C 0.39278 0.29188 0.29544 0.0
C2951 C 0.38565 0.27763 0.29713 0.0
C2952 C 0.38523 0.26762 0.28467 0.0
H2953 H 0.30522 0.25224 0.34289 0.0
H2954 H 0.32555 0.26232 0.32688 0.0
C2955 C 0.3915 0.27184 0.27071 0.0
C2956 C 0.377 0.27376 0.31114 0.0
H2957 H 0.36909 0.24393 0.33482 0.0
C2958 C 0.36533 0.28365 0.31583 0.0
C2959 C 0.37891 0.25965 0.31875 0.0
C2960 C 0.39205 0.24912 0.31527 0.0
C2961 C 0.35483 0.27933 0.3271 0.0
C2962 C 0.35576 0.26453 0.33348 0.0
C2963 C 0.36813 0.25513 0.32967 0.0
C2964 C 0.34351 0.25826 0.34332 0.0
C2965 C 0.34272 0.2906 0.33182 0.0
C2966 C 0.34692 0.25192 0.35761 0.0
C2967 C 0.33532 0.24581 0.3667 0.0
C2968 C 0.32009 0.24597 0.36165 0.0
C2969 C 0.31678 0.25206 0.3472 0.0
C2970 C 0.32839 0.25799 0.33808 0.0
H2971 H 0.34678 0.30251 0.33041 0.0
H2972 H 0.33256 0.28914 0.32443 0.0
H2973 H 0.33922 0.28891 0.34388 0.0
H2974 H 0.35853 0.25184 0.36181 0.0
H2975 H 0.33825 0.24125 0.37779 0.0
H2976 H 0.22085 0.19018 0.08976 0.0
H2977 H 0.19575 0.19654 0.10037 0.0
H2978 H 0.21213 0.24146 0.11195 0.0
H2979 H 0.2368 0.2354 0.101 0.0
H2980 H 0.19046 0.20243 0.12917 0.0
H2981 H 0.17089 0.25228 0.09662 0.0
H2982 H 0.18619 0.24023 0.08993 0.0
H2983 H 0.18998 0.25566 0.10301 0.0
C2984 C 0.21891 0.20155 0.09416 0.0
C2985 C 0.23079 0.21228 0.09459 0.0
C2986 C 0.20459 0.20516 0.10025 0.0
C2987 C 0.20195 0.21957 0.10676 0.0
C2988 C 0.21367 0.23044 0.1066 0.0
H2989 H 0.15881 0.2451 0.18778 0.0
H2990 H 0.17393 0.23485 0.1669 0.0
C2991 C 0.22788 0.22689 0.10047 0.0
C2992 C 0.18786 0.22275 0.11557 0.0
H2993 H 0.16265 0.25133 0.12339 0.0
C2994 C 0.18412 0.21294 0.12765 0.0
C2995 C 0.17931 0.23628 0.11347 0.0
C2996 C 0.18172 0.24659 0.09992 0.0
C2997 C 0.17297 0.21691 0.1384 0.0
C2998 C 0.1657 0.23128 0.13728 0.0
C2999 C 0.16848 0.24048 0.12448 0.0
C3000 C 0.15626 0.23749 0.14986 0.0
C3001 C 0.16937 0.20578 0.15102 0.0
C3002 C 0.14151 0.24308 0.14713 0.0
C3003 C 0.13289 0.24928 0.15905 0.0
C3004 C 0.13889 0.24997 0.17392 0.0
C3005 C 0.15376 0.24458 0.17653 0.0
C3006 C 0.16238 0.23856 0.16461 0.0
H3007 H 0.17117 0.19384 0.1472 0.0
H3008 H 0.17716 0.20787 0.16076 0.0
H3009 H 0.15743 0.207 0.15504 0.0
H3010 H 0.13662 0.24254 0.1358 0.0
H3011 H 0.12147 0.25331 0.15667 0.0
H3012 H 0.24493 0.76414 0.88511 0.0
H3013 H 0.22114 0.75556 0.87372 0.0
H3014 H 0.1973 0.79302 0.89486 0.0
H3015 H 0.22134 0.80201 0.90602 0.0
H3016 H 0.19294 0.74712 0.88431 0.0
H3017 H 0.18968 0.80024 0.84967 0.0
H3018 H 0.20637 0.79529 0.86059 0.0
H3019 H 0.18976 0.80273 0.86999 0.0
C3020 C 0.23462 0.7705 0.88749 0.0
C3021 C 0.23504 0.7839 0.89625 0.0
C3022 C 0.221 0.76553 0.88102 0.0
C3023 C 0.20751 0.77381 0.88321 0.0
C3024 C 0.20766 0.78665 0.89278 0.0
H3025 H 0.12535 0.7384 0.8366 0.0
H3026 H 0.14221 0.74704 0.85711 0.0
C3027 C 0.22137 0.79171 0.89922 0.0
C3028 C 0.19379 0.76952 0.87435 0.0
H3029 H 0.17176 0.78119 0.84447 0.0
C3030 C 0.18812 0.75461 0.87574 0.0
C3031 C 0.18767 0.77932 0.86308 0.0
C3032 C 0.19371 0.79525 0.86059 0.0
C3033 C 0.17695 0.74901 0.86574 0.0
C3034 C 0.17112 0.75869 0.85424 0.0
C3035 C 0.17627 0.77381 0.85332 0.0
C3036 C 0.16083 0.75306 0.84209 0.0
C3037 C 0.17213 0.73254 0.867 0.0
C3038 C 0.16564 0.75373 0.82685 0.0
C3039 C 0.15603 0.74896 0.81513 0.0
C3040 C 0.14137 0.74337 0.81838 0.0
C3041 C 0.13661 0.74253 0.8337 0.0
C3042 C 0.14624 0.74741 0.84545 0.0
H3043 H 0.17987 0.72588 0.87449 0.0
H3044 H 0.16048 0.73197 0.8719 0.0
H3045 H 0.17184 0.72707 0.85558 0.0
H3046 H 0.17687 0.75802 0.82402 0.0
H3047 H 0.1601 0.74976 0.8035 0.0
H3048 H 0.69781 0.72089 0.40445 0.0
H3049 H 0.70584 0.69632 0.39373 0.0
H3050 H 0.74429 0.71828 0.37232 0.0
H3051 H 0.73669 0.74253 0.3833 0.0
H3052 H 0.70709 0.68944 0.36448 0.0
H3053 H 0.76455 0.68082 0.38823 0.0
H3054 H 0.75147 0.69466 0.39603 0.0
H3055 H 0.76329 0.69941 0.37988 0.0
C3056 C 0.70818 0.72037 0.39776 0.0
C3057 C 0.71661 0.73364 0.39469 0.0
C3058 C 0.71273 0.70634 0.39163 0.0
C3059 C 0.72582 0.70538 0.38241 0.0
C3060 C 0.73443 0.71859 0.37974 0.0
H3061 H 0.74315 0.65464 0.30265 0.0
H3062 H 0.73512 0.67184 0.32292 0.0
C3063 C 0.72996 0.73252 0.38591 0.0
C3064 C 0.72963 0.69114 0.37412 0.0
H3065 H 0.7598 0.66898 0.36349 0.0
C3066 C 0.71853 0.68476 0.36452 0.0
C3067 C 0.74447 0.68479 0.37435 0.0
C3068 C 0.75654 0.6902 0.38533 0.0
C3069 C 0.72216 0.67294 0.35438 0.0
C3070 C 0.73738 0.66767 0.35352 0.0
C3071 C 0.7482 0.67326 0.3639 0.0
C3072 C 0.74249 0.65713 0.34132 0.0
C3073 C 0.70966 0.66641 0.34453 0.0
C3074 C 0.74992 0.64342 0.34489 0.0
C3075 C 0.75478 0.63362 0.33328 0.0
C3076 C 0.7523 0.63738 0.31787 0.0
C3077 C 0.74513 0.65129 0.31437 0.0
C3078 C 0.74039 0.66109 0.32596 0.0
H3079 H 0.69835 0.66759 0.3501 0.0
H3080 H 0.70922 0.67276 0.3336 0.0
H3081 H 0.71168 0.65417 0.34199 0.0
H3082 H 0.7518 0.64022 0.35668 0.0
H3083 H 0.76025 0.623 0.33639 0.0
H3084 H 0.75451 0.23512 0.88341 0.0
H3085 H 0.77851 0.24315 0.87207 0.0
H3086 H 0.80129 0.2047 0.8926 0.0
H3087 H 0.77701 0.19628 0.90374 0.0
H3088 H 0.80687 0.25062 0.88303 0.0
H3089 H 0.80882 0.19824 0.84718 0.0
H3090 H 0.79222 0.2034 0.85814 0.0
H3091 H 0.80858 0.19533 0.86745 0.0
C3092 C 0.76463 0.22842 0.88567 0.0
C3093 C 0.76384 0.21494 0.89427 0.0
C3094 C 0.77837 0.23308 0.87922 0.0
C3095 C 0.79161 0.22438 0.88127 0.0
C3096 C 0.79111 0.2114 0.89065 0.0
H3097 H 0.87492 0.25886 0.8365 0.0
H3098 H 0.8575 0.25002 0.8564 0.0
C3099 C 0.77728 0.20667 0.89708 0.0
C3100 C 0.80546 0.22849 0.87253 0.0
H3101 H 0.82721 0.21698 0.8424 0.0
C3102 C 0.8115 0.24321 0.87429 0.0
C3103 C 0.81132 0.21882 0.86103 0.0
C3104 C 0.80488 0.20311 0.85819 0.0
C3105 C 0.82282 0.24877 0.86442 0.0
C3106 C 0.82842 0.2392 0.85271 0.0
C3107 C 0.82286 0.22426 0.8514 0.0
C3108 C 0.83907 0.24481 0.84087 0.0
C3109 C 0.82804 0.26507 0.8661 0.0
C3110 C 0.83456 0.24461 0.82552 0.0
C3111 C 0.8445 0.24949 0.81411 0.0
C3112 C 0.85919 0.25473 0.81782 0.0
C3113 C 0.86364 0.25505 0.83324 0.0
C3114 C 0.85369 0.25004 0.84466 0.0
H3115 H 0.82029 0.2718 0.87353 0.0
H3116 H 0.83956 0.26524 0.8713 0.0
H3117 H 0.82874 0.27075 0.8548 0.0
H3118 H 0.8233 0.24062 0.82235 0.0
H3119 H 0.84068 0.24909 0.80238 0.0
H3120 H 0.26441 0.25939 0.39332 0.0
H3121 H 0.25823 0.28382 0.38185 0.0
H3122 H 0.30181 0.30171 0.396 0.0
H3123 H 0.30835 0.27686 0.40714 0.0
H3124 H 0.2558 0.3129 0.39145 0.0
H3125 H 0.30371 0.30691 0.35016 0.0
H3126 H 0.29807 0.2916 0.36265 0.0
H3127 H 0.30882 0.30742 0.36997 0.0
C3128 C 0.27264 0.26855 0.39418 0.0
C3129 C 0.28696 0.26615 0.40091 0.0
C3130 C 0.26906 0.28255 0.38766 0.0
C3131 C 0.27967 0.2945 0.38779 0.0
C3132 C 0.29359 0.29252 0.39547 0.0
H3133 H 0.24511 0.3761 0.33945 0.0
H3134 H 0.25617 0.36074 0.35999 0.0
C3135 C 0.29725 0.27838 0.40195 0.0
C3136 C 0.27631 0.30838 0.37877 0.0
H3137 H 0.2864 0.32673 0.34598 0.0
C3138 C 0.2626 0.31613 0.38164 0.0
C3139 C 0.28517 0.31244 0.36591 0.0
C3140 C 0.29971 0.30413 0.36185 0.0
C3141 C 0.25699 0.32715 0.37148 0.0
C3142 C 0.26563 0.33087 0.35837 0.0
C3143 C 0.27981 0.32382 0.35604 0.0
C3144 C 0.25944 0.34064 0.34603 0.0
C3145 C 0.24142 0.33389 0.37436 0.0
C3146 C 0.25802 0.33462 0.33128 0.0
C3147 C 0.25198 0.34342 0.3195 0.0
C3148 C 0.24708 0.35842 0.32226 0.0
C3149 C 0.24857 0.3645 0.33703 0.0
C3150 C 0.25485 0.35573 0.34879 0.0
H3151 H 0.23495 0.32734 0.38306 0.0
H3152 H 0.24271 0.34574 0.3786 0.0
H3153 H 0.2346 0.33423 0.3637 0.0
H3154 H 0.26146 0.323 0.32888 0.0
H3155 H 0.251 0.33839 0.30827 0.0
H3156 H 0.77735 0.80806 0.09085 0.0
H3157 H 0.80329 0.80151 0.09921 0.0
H3158 H 0.78587 0.76102 0.12107 0.0
H3159 H 0.7604 0.7671 0.11234 0.0
H3160 H 0.81359 0.79979 0.12708 0.0
H3161 H 0.82256 0.74341 0.10149 0.0
H3162 H 0.80738 0.75585 0.09526 0.0
H3163 H 0.80464 0.74315 0.11123 0.0
C3164 C 0.77918 0.79761 0.09716 0.0
C3165 C 0.76685 0.7881 0.10093 0.0
C3166 C 0.79398 0.79388 0.10193 0.0
C3167 C 0.79662 0.78058 0.11048 0.0
C3168 C 0.78429 0.77104 0.11403 0.0
H3169 H 0.84628 0.76268 0.18821 0.0
H3170 H 0.83109 0.77261 0.16731 0.0
C3171 C 0.76963 0.77466 0.10918 0.0
C3172 C 0.81175 0.7773 0.1173 0.0
H3173 H 0.83468 0.74732 0.12662 0.0
C3174 C 0.81846 0.78843 0.12664 0.0
C3175 C 0.81848 0.76266 0.11643 0.0
C3176 C 0.81295 0.75069 0.10539 0.0
C3177 C 0.8307 0.78482 0.13629 0.0
C3178 C 0.83599 0.76959 0.13695 0.0
C3179 C 0.83036 0.7589 0.12646 0.0
C3180 C 0.84594 0.76412 0.1495 0.0
C3181 C 0.83749 0.79729 0.146 0.0
C3182 C 0.85909 0.7555 0.14649 0.0
C3183 C 0.86771 0.74947 0.15851 0.0
C3184 C 0.86328 0.75194 0.17374 0.0
C3185 C 0.85011 0.7606 0.17666 0.0
C3186 C 0.84148 0.76648 0.16468 0.0
H3187 H 0.83689 0.80845 0.14004 0.0
H3188 H 0.83082 0.79834 0.1567 0.0
H3189 H 0.84956 0.79488 0.14893 0.0
H3190 H 0.86265 0.75338 0.13486 0.0
H3191 H 0.87781 0.74289 0.15585 0.0
H3192 H 0.74262 0.34476 0.69778 0.0
H3193 H 0.73528 0.32723 0.6775 0.0
H3194 H 0.74764 0.3608 0.64375 0.0
H3195 H 0.75547 0.3783 0.66401 0.0
H3196 H 0.71361 0.3301 0.65602 0.0
H3197 H 0.77031 0.32389 0.6284 0.0
H3198 H 0.76793 0.33289 0.64673 0.0
H3199 H 0.76336 0.3431 0.62955 0.0
C3200 C 0.74389 0.34841 0.68605 0.0
C3201 C 0.74975 0.3629 0.68253 0.0
C3202 C 0.73964 0.33838 0.67446 0.0
C3203 C 0.74107 0.34262 0.65909 0.0
C3204 C 0.74676 0.35714 0.6555 0.0
H3205 H 0.69712 0.27954 0.59384 0.0
H3206 H 0.70429 0.30387 0.60567 0.0
C3207 C 0.75119 0.36715 0.66711 0.0
C3208 C 0.73637 0.33178 0.64699 0.0
H3209 H 0.74989 0.31045 0.61737 0.0
C3210 C 0.7215 0.32588 0.64747 0.0
C3211 C 0.7467 0.32631 0.63587 0.0
C3212 C 0.763 0.33175 0.63512 0.0
C3213 C 0.71685 0.31419 0.6376 0.0
C3214 C 0.72725 0.30854 0.62663 0.0
C3215 C 0.74191 0.31491 0.6257 0.0
C3216 C 0.72389 0.29469 0.61755 0.0
C3217 C 0.70117 0.30738 0.63965 0.0
C3218 C 0.733 0.28171 0.61961 0.0
C3219 C 0.72908 0.26796 0.61272 0.0
C3220 C 0.71592 0.26685 0.60367 0.0
C3221 C 0.70727 0.28004 0.60086 0.0
C3222 C 0.71128 0.2939 0.6077 0.0
H3223 H 0.69578 0.31101 0.65052 0.0
H3224 H 0.69371 0.31113 0.63015 0.0
H3225 H 0.7017 0.29473 0.63948 0.0
H3226 H 0.74282 0.28206 0.6271 0.0
H3227 H 0.73608 0.25804 0.615 0.0
H3228 H 0.23724 0.62256 0.66162 0.0
H3229 H 0.24666 0.63863 0.64085 0.0
H3230 H 0.25617 0.67462 0.67296 0.0
H3231 H 0.24709 0.65863 0.69379 0.0
H3232 H 0.23751 0.66635 0.63027 0.0
H3233 H 0.29675 0.67013 0.65128 0.0
H3234 H 0.28325 0.6565 0.65873 0.0
H3235 H 0.28341 0.67582 0.66568 0.0
C3236 C 0.24129 0.63392 0.66427 0.0
C3237 C 0.24151 0.63925 0.67942 0.0
C3238 C 0.24671 0.64306 0.65238 0.0
C3239 C 0.25248 0.65766 0.65542 0.0
C3240 C 0.2522 0.66321 0.67042 0.0
H3241 H 0.25941 0.73966 0.60875 0.0
H3242 H 0.25148 0.71547 0.61963 0.0
C3243 C 0.24686 0.65408 0.68231 0.0
C3244 C 0.25852 0.66733 0.64296 0.0
H3245 H 0.28885 0.68981 0.63371 0.0
C3246 C 0.24883 0.67127 0.63085 0.0
C3247 C 0.27346 0.6734 0.64345 0.0
C3248 C 0.28487 0.6686 0.6554 0.0
C3249 C 0.25328 0.68204 0.61988 0.0
C3250 C 0.26764 0.68926 0.62129 0.0
C3251 C 0.27776 0.68443 0.63271 0.0
C3252 C 0.27163 0.70312 0.61247 0.0
C3253 C 0.24241 0.68582 0.60711 0.0
C3254 C 0.28567 0.70432 0.60483 0.0
C3255 C 0.29035 0.71831 0.59871 0.0
C3256 C 0.2811 0.73129 0.6003 0.0
C3257 C 0.26679 0.72986 0.60733 0.0
C3258 C 0.26215 0.71596 0.61343 0.0
H3259 H 0.23531 0.67577 0.60409 0.0
H3260 H 0.23458 0.69501 0.61089 0.0
H3261 H 0.24855 0.68973 0.59675 0.0
H3262 H 0.29322 0.69458 0.60409 0.0
H3263 H 0.30147 0.71912 0.59342 0.0
H3264 H 0.80286 0.857 0.77415 0.0
H3265 H 0.82219 0.8383 0.78126 0.0
H3266 H 0.8483 0.84987 0.74121 0.0
H3267 H 0.82918 0.86893 0.73421 0.0
H3268 H 0.82988 0.81357 0.7657 0.0
H3269 H 0.88122 0.84957 0.77329 0.0
H3270 H 0.86227 0.85748 0.77193 0.0
H3271 H 0.87243 0.85197 0.75498 0.0
C3272 C 0.81276 0.85565 0.76689 0.0
C3273 C 0.81444 0.86439 0.75356 0.0
C3274 C 0.82383 0.84499 0.77101 0.0
C3275 C 0.83679 0.8428 0.76188 0.0
C3276 C 0.83859 0.85162 0.74864 0.0
H3277 H 0.88751 0.75859 0.76022 0.0
H3278 H 0.87358 0.78179 0.7536 0.0
C3279 C 0.82759 0.86243 0.74459 0.0
C3280 C 0.84772 0.83044 0.76563 0.0
H3281 H 0.88533 0.82262 0.77218 0.0
C3282 C 0.84199 0.81559 0.7672 0.0
C3283 C 0.8635 0.8331 0.76774 0.0
C3284 C 0.87022 0.84892 0.76706 0.0
C3285 C 0.85159 0.8033 0.7706 0.0
C3286 C 0.86744 0.80585 0.77207 0.0
C3287 C 0.8732 0.82071 0.77081 0.0
C3288 C 0.87804 0.79308 0.77506 0.0
C3289 C 0.84463 0.7877 0.77281 0.0
C3290 C 0.88589 0.79215 0.78897 0.0
C3291 C 0.89402 0.77895 0.79273 0.0
C3292 C 0.89434 0.76653 0.78261 0.0
C3293 C 0.88734 0.76794 0.76828 0.0
C3294 C 0.87933 0.78115 0.76451 0.0
H3295 H 0.8322 0.78839 0.77514 0.0
H3296 H 0.84624 0.7809 0.76226 0.0
H3297 H 0.8502 0.78155 0.78237 0.0
H3298 H 0.88506 0.8013 0.79724 0.0
H3299 H 0.89929 0.77815 0.80387 0.0
H3300 H 0.61719 0.33497 0.24815 0.0
H3301 H 0.63424 0.35495 0.25744 0.0
H3302 H 0.67068 0.32212 0.26125 0.0
H3303 H 0.65347 0.30196 0.25268 0.0
H3304 H 0.67027 0.3398 0.28534 0.0
H3305 H 0.66644 0.37645 0.2339 0.0
H3306 H 0.64839 0.3732 0.24291 0.0
H3307 H 0.65857 0.3575 0.23446 0.0
C3308 C 0.62888 0.33204 0.25086 0.0
C3309 C 0.63405 0.31692 0.24952 0.0
C3310 C 0.63863 0.34349 0.25612 0.0
C3311 C 0.65385 0.34013 0.25975 0.0
C3312 C 0.65899 0.32501 0.25848 0.0
H3313 H 0.73383 0.39286 0.26147 0.0
H3314 H 0.71038 0.37925 0.25579 0.0
C3315 C 0.64917 0.3135 0.25353 0.0
C3316 C 0.66448 0.35223 0.26497 0.0
H3317 H 0.68082 0.38598 0.2545 0.0
C3318 C 0.67254 0.34994 0.27863 0.0
C3319 C 0.66746 0.36545 0.25618 0.0
C3320 C 0.65988 0.36826 0.24098 0.0
C3321 C 0.68388 0.36014 0.28345 0.0
C3322 C 0.68685 0.37334 0.27464 0.0
C3323 C 0.67838 0.37595 0.26131 0.0
C3324 C 0.70007 0.38339 0.27784 0.0
C3325 C 0.69313 0.35622 0.29744 0.0
C3326 C 0.70186 0.3908 0.29193 0.0
C3327 C 0.71544 0.39852 0.29529 0.0
C3328 C 0.72729 0.39903 0.28452 0.0
C3329 C 0.72497 0.39255 0.27007 0.0
C3330 C 0.71153 0.38478 0.26678 0.0
H3331 H 0.6915 0.34418 0.30101 0.0
H3332 H 0.70547 0.35814 0.29537 0.0
H3333 H 0.68955 0.36364 0.30704 0.0
H3334 H 0.69299 0.3902 0.3005 0.0
H3335 H 0.71691 0.40346 0.30651 0.0
H3336 H 0.16714 0.12672 0.73617 0.0
H3337 H 0.14712 0.14437 0.74428 0.0
H3338 H 0.17982 0.16925 0.77123 0.0
H3339 H 0.19994 0.15183 0.76313 0.0
H3340 H 0.13686 0.15192 0.77433 0.0
H3341 H 0.16053 0.20186 0.74348 0.0
H3342 H 0.16657 0.18258 0.7396 0.0
H3343 H 0.1739 0.19259 0.75591 0.0
C3344 C 0.17012 0.13599 0.74376 0.0
C3345 C 0.18522 0.13795 0.74884 0.0
C3346 C 0.15863 0.14601 0.74844 0.0
C3347 C 0.16204 0.15818 0.75822 0.0
C3348 C 0.17702 0.16005 0.76348 0.0
H3349 H 0.10464 0.21952 0.80994 0.0
H3350 H 0.11921 0.19708 0.80181 0.0
C3351 C 0.1885 0.15007 0.75882 0.0
C3352 C 0.15002 0.16912 0.76274 0.0
H3353 H 0.14047 0.20672 0.7609 0.0
C3354 C 0.13755 0.1639 0.77133 0.0
C3355 C 0.15089 0.18467 0.75865 0.0
C3356 C 0.16361 0.19077 0.74878 0.0
C3357 C 0.12606 0.17396 0.77622 0.0
C3358 C 0.12723 0.1896 0.77255 0.0
C3359 C 0.13959 0.19472 0.76375 0.0
C3360 C 0.11594 0.2011 0.77766 0.0
C3361 C 0.11273 0.16774 0.78512 0.0
C3362 C 0.10901 0.2106 0.76682 0.0
C3363 C 0.10092 0.22347 0.77144 0.0
C3364 C 0.09946 0.22698 0.78698 0.0
C3365 C 0.10537 0.21687 0.7979 0.0
C3366 C 0.1137 0.20406 0.79325 0.0
H3367 H 0.11132 0.15528 0.78331 0.0
H3368 H 0.11471 0.16968 0.79746 0.0
H3369 H 0.10197 0.17357 0.78188 0.0
H3370 H 0.11059 0.20854 0.75475 0.0
H3371 H 0.09651 0.23115 0.76282 0.0
H3372 H 0.38014 0.66079 0.2452 0.0
H3373 H 0.36461 0.64027 0.25604 0.0
H3374 H 0.3284 0.67236 0.2649 0.0
H3375 H 0.34395 0.69292 0.25462 0.0
H3376 H 0.33307 0.65373 0.28885 0.0
H3377 H 0.3291 0.61973 0.2354 0.0
H3378 H 0.34802 0.62316 0.24239 0.0
H3379 H 0.33666 0.63883 0.23568 0.0
C3380 C 0.36884 0.66345 0.2494 0.0
C3381 C 0.36323 0.67848 0.24894 0.0
C3382 C 0.35997 0.6517 0.25556 0.0
C3383 C 0.34527 0.65475 0.2611 0.0
C3384 C 0.33973 0.66975 0.26072 0.0
H3385 H 0.26215 0.61168 0.26673 0.0
H3386 H 0.2868 0.62268 0.2607 0.0
C3387 C 0.34862 0.68149 0.25477 0.0
C3388 C 0.33536 0.64248 0.26716 0.0
H3389 H 0.31497 0.61118 0.25636 0.0
C3390 C 0.32924 0.64428 0.28185 0.0
C3391 C 0.33047 0.63015 0.25799 0.0
C3392 C 0.33628 0.62784 0.24195 0.0
C3393 C 0.31757 0.63477 0.28722 0.0
C3394 C 0.31223 0.62282 0.27779 0.0
C3395 C 0.31914 0.62034 0.26356 0.0
C3396 C 0.29789 0.61459 0.28122 0.0
C3397 C 0.31033 0.63831 0.30243 0.0
C3398 C 0.29597 0.60605 0.29464 0.0
C3399 C 0.28169 0.59988 0.29827 0.0
C3400 C 0.26924 0.60205 0.28841 0.0
C3401 C 0.27146 0.60991 0.27464 0.0
C3402 C 0.2856 0.61615 0.27113 0.0
H3403 H 0.31414 0.64946 0.30706 0.0
H3404 H 0.29771 0.63848 0.30144 0.0
H3405 H 0.31349 0.62934 0.31077 0.0
H3406 H 0.3054 0.60443 0.30244 0.0
H3407 H 0.28031 0.59375 0.3089 0.0
H3408 H 0.84135 0.12027 0.25343 0.0
H3409 H 0.86203 0.13617 0.24337 0.0
H3410 H 0.83055 0.17356 0.23781 0.0
H3411 H 0.80987 0.15771 0.2473 0.0
H3412 H 0.84816 0.17023 0.21317 0.0
H3413 H 0.88421 0.16982 0.26536 0.0
H3414 H 0.88012 0.15144 0.25733 0.0
H3415 H 0.86494 0.16268 0.26528 0.0
C3416 C 0.83888 0.13191 0.25013 0.0
C3417 C 0.82397 0.13774 0.25122 0.0
C3418 C 0.85072 0.14099 0.24443 0.0
C3419 C 0.84788 0.15612 0.24 0.0
C3420 C 0.83301 0.16191 0.24111 0.0
H3421 H 0.89468 0.2382 0.23619 0.0
H3422 H 0.8832 0.21372 0.24223 0.0
C3423 C 0.82119 0.15283 0.2466 0.0
C3424 C 0.86019 0.16615 0.23416 0.0
H3425 H 0.89269 0.18469 0.24482 0.0
C3426 C 0.85802 0.17328 0.21999 0.0
C3427 C 0.87303 0.17007 0.2431 0.0
C3428 C 0.87572 0.16322 0.25866 0.0
C3429 C 0.86777 0.1849 0.21492 0.0
C3430 C 0.88037 0.18913 0.22407 0.0
C3431 C 0.88308 0.18135 0.2378 0.0
C3432 C 0.88935 0.20308 0.22083 0.0
C3433 C 0.86382 0.19324 0.20038 0.0
C3434 C 0.89715 0.2051 0.20698 0.0
C3435 C 0.90359 0.21927 0.20337 0.0
C3436 C 0.90245 0.2315 0.21366 0.0
C3437 C 0.89561 0.22906 0.22794 0.0
C3438 C 0.88909 0.21502 0.23145 0.0
H3439 H 0.85217 0.19043 0.19626 0.0
H3440 H 0.86454 0.20577 0.20205 0.0
H3441 H 0.87203 0.19 0.19132 0.0
H3442 H 0.89781 0.19592 0.19876 0.0
H3443 H 0.90891 0.2208 0.19233 0.0
H3444 H 0.25984 0.38525 0.73643 0.0
H3445 H 0.28482 0.37538 0.74296 0.0
H3446 H 0.30389 0.39645 0.7028 0.0
H3447 H 0.27851 0.40599 0.69583 0.0
H3448 H 0.31177 0.36778 0.70407 0.0
H3449 H 0.32297 0.39188 0.76079 0.0
H3450 H 0.30445 0.38334 0.7609 0.0
H3451 H 0.30821 0.39935 0.74853 0.0
C3452 C 0.26937 0.38805 0.72909 0.0
C3453 C 0.26719 0.39632 0.71556 0.0
C3454 C 0.28374 0.38254 0.73296 0.0
C3455 C 0.29635 0.38541 0.72356 0.0
C3456 C 0.29435 0.39422 0.71031 0.0
H3457 H 0.37714 0.33601 0.75727 0.0
H3458 H 0.36176 0.35753 0.74827 0.0
C3459 C 0.27987 0.39968 0.70635 0.0
C3460 C 0.31094 0.37744 0.72667 0.0
H3461 H 0.33383 0.36641 0.75612 0.0
C3462 C 0.31685 0.3678 0.71534 0.0
C3463 C 0.31788 0.37765 0.74124 0.0
C3464 C 0.31312 0.38878 0.75346 0.0
C3465 C 0.32856 0.35742 0.71861 0.0
C3466 C 0.33417 0.35635 0.7337 0.0
C3467 C 0.32927 0.36695 0.74464 0.0
C3468 C 0.34391 0.34346 0.73868 0.0
C3469 C 0.33448 0.34741 0.70593 0.0
C3470 C 0.33884 0.32844 0.73654 0.0
C3471 C 0.34758 0.31617 0.74159 0.0
C3472 C 0.36151 0.31863 0.74913 0.0
C3473 C 0.36646 0.33371 0.75151 0.0
C3474 C 0.35772 0.34602 0.74634 0.0
H3475 H 0.33358 0.35327 0.69473 0.0
H3476 H 0.34656 0.34413 0.70783 0.0
H3477 H 0.32748 0.3369 0.70529 0.0
H3478 H 0.32798 0.32618 0.73113 0.0
H3479 H 0.34332 0.30474 0.73967 0.0
H3480 H 0.15774 0.87549 0.25883 0.0
H3481 H 0.13736 0.85948 0.24833 0.0
H3482 H 0.16975 0.82327 0.24069 0.0
H3483 H 0.1901 0.83918 0.25071 0.0
H3484 H 0.15161 0.828 0.21609 0.0
H3485 H 0.1167 0.82353 0.26891 0.0
H3486 H 0.12037 0.84249 0.26209 0.0
H3487 H 0.13585 0.83102 0.26901 0.0
C3488 C 0.16048 0.86408 0.25499 0.0
C3489 C 0.17556 0.85861 0.25566 0.0
C3490 C 0.14882 0.85494 0.24903 0.0
C3491 C 0.15202 0.84013 0.24385 0.0
C3492 C 0.16703 0.83468 0.24457 0.0
H3493 H 0.10871 0.75651 0.23525 0.0
H3494 H 0.11966 0.78088 0.24263 0.0
C3495 C 0.17866 0.8438 0.25036 0.0
C3496 C 0.13996 0.83009 0.23758 0.0
H3497 H 0.10866 0.80934 0.24773 0.0
C3498 C 0.14207 0.82406 0.2229 0.0
C3499 C 0.12756 0.82499 0.24653 0.0
C3500 C 0.12497 0.83072 0.26255 0.0
C3501 C 0.1327 0.81239 0.21727 0.0
C3502 C 0.12058 0.80694 0.22642 0.0
C3503 C 0.11791 0.81362 0.24073 0.0
C3504 C 0.11214 0.79286 0.22241 0.0
C3505 C 0.13656 0.8053 0.20205 0.0
C3506 C 0.10384 0.79158 0.20876 0.0
C3507 C 0.09769 0.77751 0.20439 0.0
C3508 C 0.09963 0.76461 0.21369 0.0
C3509 C 0.10713 0.7662 0.22775 0.0
C3510 C 0.11335 0.78016 0.23203 0.0
H3511 H 0.1479 0.80899 0.19779 0.0
H3512 H 0.1365 0.79267 0.20285 0.0
H3513 H 0.12788 0.80874 0.19351 0.0
H3514 H 0.10249 0.80133 0.20132 0.0
H3515 H 0.09186 0.77663 0.19354 0.0
H3516 H 0.74377 0.61393 0.73574 0.0
H3517 H 0.71984 0.6253 0.7439 0.0
H3518 H 0.6972 0.6063 0.70459 0.0
H3519 H 0.7214 0.59509 0.6961 0.0
H3520 H 0.69183 0.63625 0.70727 0.0
H3521 H 0.68146 0.60938 0.76315 0.0
H3522 H 0.70044 0.61686 0.76227 0.0
H3523 H 0.69489 0.60169 0.74958 0.0
C3524 C 0.73365 0.61191 0.72895 0.0
C3525 C 0.73447 0.60365 0.71525 0.0
C3526 C 0.71992 0.61831 0.73372 0.0
C3527 C 0.70664 0.61645 0.72501 0.0
C3528 C 0.70728 0.60776 0.71156 0.0
H3529 H 0.62479 0.66299 0.76005 0.0
H3530 H 0.64182 0.64276 0.75108 0.0
C3531 C 0.72109 0.60134 0.70675 0.0
C3532 C 0.69271 0.62509 0.72915 0.0
H3533 H 0.67034 0.63456 0.75957 0.0
C3534 C 0.68692 0.63565 0.71861 0.0
C3535 C 0.68609 0.62417 0.74385 0.0
C3536 C 0.69095 0.61228 0.75528 0.0
C3537 C 0.67542 0.64599 0.72269 0.0
C3538 C 0.66984 0.64601 0.73784 0.0
C3539 C 0.67485 0.63476 0.74806 0.0
C3540 C 0.65954 0.65815 0.7435 0.0
C3541 C 0.66956 0.65694 0.71079 0.0
C3542 C 0.66403 0.67348 0.74261 0.0
C3543 C 0.65435 0.68504 0.74766 0.0
C3544 C 0.64002 0.68152 0.75394 0.0
C3545 C 0.63574 0.66611 0.7553 0.0
C3546 C 0.64543 0.65453 0.75013 0.0
H3547 H 0.67093 0.65221 0.69912 0.0
H3548 H 0.65735 0.6597 0.71264 0.0
H3549 H 0.67623 0.66768 0.71136 0.0
H3550 H 0.67506 0.67652 0.73797 0.0
H3551 H 0.65809 0.69675 0.74655 0.0
H3552 H 0.73626 0.8386 0.87424 0.0
H3553 H 0.7438 0.85986 0.8577 0.0
H3554 H 0.77472 0.83025 0.83358 0.0
H3555 H 0.76735 0.809 0.84991 0.0
H3556 H 0.77554 0.87217 0.84991 0.0
H3557 H 0.74289 0.84746 0.80153 0.0
H3558 H 0.73942 0.84213 0.82111 0.0
H3559 H 0.75558 0.83452 0.81111 0.0
C3560 C 0.74473 0.83662 0.86548 0.0
C3561 C 0.75102 0.82201 0.86328 0.0
C3562 C 0.74907 0.8488 0.8561 0.0
C3563 C 0.75971 0.84654 0.84439 0.0
C3564 C 0.76639 0.83215 0.84251 0.0
H3565 H 0.80828 0.90122 0.77955 0.0
H3566 H 0.80085 0.88837 0.80323 0.0
C3567 C 0.7621 0.82001 0.85183 0.0
C3568 C 0.76319 0.85884 0.83341 0.0
H3569 H 0.75934 0.86804 0.79588 0.0
C3570 C 0.77191 0.87141 0.83811 0.0
C3571 C 0.75827 0.85783 0.81812 0.0
C3572 C 0.74841 0.84484 0.81262 0.0
C3573 C 0.77624 0.88282 0.8277 0.0
C3574 C 0.7718 0.88147 0.81225 0.0
C3575 C 0.76274 0.86908 0.80773 0.0
C3576 C 0.77667 0.89236 0.80028 0.0
C3577 C 0.78548 0.89619 0.83327 0.0
C3578 C 0.7656 0.89923 0.79099 0.0
C3579 C 0.76981 0.90635 0.77742 0.0
C3580 C 0.78516 0.90686 0.77296 0.0
C3581 C 0.79639 0.90121 0.78288 0.0
C3582 C 0.79215 0.89386 0.79641 0.0
H3583 H 0.78427 0.89779 0.84578 0.0
H3584 H 0.79771 0.8941 0.83076 0.0
H3585 H 0.78203 0.90687 0.82742 0.0
H3586 H 0.75361 0.89819 0.79374 0.0
H3587 H 0.76095 0.91058 0.76991 0.0
H3588 H 0.59532 0.30931 0.27843 0.0
H3589 H 0.60889 0.3021 0.30185 0.0
H3590 H 0.60611 0.25477 0.28895 0.0
H3591 H 0.59278 0.26185 0.26554 0.0
H3592 H 0.6043 0.27726 0.32734 0.0
H3593 H 0.6527 0.26961 0.28703 0.0
H3594 H 0.63603 0.28072 0.28231 0.0
H3595 H 0.63518 0.26028 0.28189 0.0
C3596 C 0.5971 0.29734 0.2809 0.0
C3597 C 0.59314 0.28612 0.27017 0.0
C3598 C 0.60486 0.29325 0.29424 0.0
C3599 C 0.60857 0.27793 0.29698 0.0
C3600 C 0.60335 0.26664 0.28696 0.0
H3601 H 0.6604 0.23176 0.36774 0.0
H3602 H 0.63976 0.24135 0.35151 0.0
C3603 C 0.59576 0.27071 0.27362 0.0
C3604 C 0.61992 0.27389 0.30873 0.0
H3605 H 0.65665 0.26184 0.31243 0.0
C3606 C 0.61578 0.27394 0.32417 0.0
C3607 C 0.6349 0.2698 0.30447 0.0
C3608 C 0.64008 0.27018 0.28805 0.0
C3609 C 0.62628 0.26969 0.33553 0.0
C3610 C 0.64114 0.26509 0.3312 0.0
C3611 C 0.64525 0.2653 0.31574 0.0
C3612 C 0.65285 0.26018 0.34235 0.0
C3613 C 0.62147 0.27037 0.35202 0.0
C3614 C 0.66706 0.26749 0.34252 0.0
C3615 C 0.6789 0.26188 0.3515 0.0
C3616 C 0.67678 0.24885 0.36059 0.0
C3617 C 0.66237 0.24184 0.36087 0.0
C3618 C 0.65053 0.24738 0.3517 0.0
H3619 H 0.61147 0.27797 0.35365 0.0
H3620 H 0.61821 0.25877 0.35587 0.0
H3621 H 0.63094 0.27446 0.35936 0.0
H3622 H 0.66911 0.27738 0.3354 0.0
H3623 H 0.6898 0.26769 0.35119 0.0
H3624 H 0.23936 0.09639 0.76712 0.0
H3625 H 0.24676 0.11043 0.78998 0.0
H3626 H 0.19936 0.11693 0.80141 0.0
H3627 H 0.1919 0.10251 0.77864 0.0
H3628 H 0.2388 0.14032 0.79233 0.0
H3629 H 0.21864 0.10842 0.84313 0.0
H3630 H 0.22081 0.09962 0.82463 0.0
H3631 H 0.20441 0.11121 0.82865 0.0
C3632 C 0.23053 0.10036 0.7748 0.0
C3633 C 0.21508 0.09837 0.77117 0.0
C3634 C 0.23476 0.10841 0.78782 0.0
C3635 C 0.22362 0.11471 0.79741 0.0
C3636 C 0.20815 0.11192 0.79433 0.0
H3637 H 0.23476 0.1977 0.84926 0.0
H3638 H 0.22712 0.17775 0.83144 0.0
C3639 C 0.20389 0.10368 0.78133 0.0
C3640 C 0.22823 0.12591 0.80918 0.0
H3641 H 0.22666 0.1341 0.84721 0.0
C3642 C 0.23623 0.1389 0.80434 0.0
C3643 C 0.2249 0.124 0.82483 0.0
C3644 C 0.21684 0.11 0.83069 0.0
C3645 C 0.24088 0.15012 0.8147 0.0
C3646 C 0.23717 0.14847 0.83029 0.0
C3647 C 0.22937 0.13537 0.83521 0.0
C3648 C 0.24131 0.1603 0.84157 0.0
C3649 C 0.24989 0.16358 0.80886 0.0
C3650 C 0.25156 0.15699 0.85337 0.0
C3651 C 0.25597 0.16838 0.86363 0.0
C3652 C 0.25014 0.18327 0.86227 0.0
C3653 C 0.23965 0.18643 0.85055 0.0
C3654 C 0.23525 0.17505 0.84034 0.0
H3655 H 0.25509 0.16121 0.79756 0.0
H3656 H 0.24217 0.17351 0.80759 0.0
H3657 H 0.25908 0.16674 0.81697 0.0
H3658 H 0.25633 0.14566 0.85451 0.0
H3659 H 0.26398 0.1655 0.87257 0.0
H3660 H 0.34172 0.75838 0.37655 0.0
H3661 H 0.36271 0.74864 0.36085 0.0
H3662 H 0.33119 0.73997 0.32411 0.0
H3663 H 0.31025 0.74927 0.3397 0.0
H3664 H 0.35023 0.71595 0.32926 0.0
H3665 H 0.38304 0.77013 0.32507 0.0
H3666 H 0.37926 0.76318 0.34398 0.0
H3667 H 0.36376 0.7695 0.3322 0.0
C3668 C 0.33929 0.75447 0.3651 0.0
C3669 C 0.32429 0.75466 0.35938 0.0
C3670 C 0.3513 0.74894 0.35613 0.0
C3671 C 0.34853 0.74371 0.34126 0.0
C3672 C 0.33359 0.74392 0.33557 0.0
H3673 H 0.39146 0.73647 0.25766 0.0
H3674 H 0.3809 0.74374 0.28225 0.0
C3675 C 0.32162 0.74929 0.34451 0.0
C3676 C 0.36095 0.73791 0.33138 0.0
H3677 H 0.3919 0.74936 0.31077 0.0
C3678 C 0.35951 0.72315 0.32537 0.0
C3679 C 0.37301 0.74736 0.32636 0.0
C3680 C 0.37488 0.76347 0.33211 0.0
C3681 C 0.36918 0.71791 0.31376 0.0
C3682 C 0.38092 0.72756 0.30835 0.0
C3683 C 0.38295 0.74197 0.31503 0.0
C3684 C 0.38948 0.72394 0.29423 0.0
C3685 C 0.36601 0.70254 0.30667 0.0
C3686 C 0.39832 0.71065 0.29289 0.0
C3687 C 0.40426 0.70634 0.2787 0.0
C3688 C 0.40154 0.71536 0.26574 0.0
C3689 C 0.39363 0.72919 0.26739 0.0
C3690 C 0.38763 0.7334 0.28148 0.0
H3691 H 0.3549 0.69774 0.31041 0.0
H3692 H 0.36595 0.70337 0.29403 0.0
H3693 H 0.37509 0.69441 0.31003 0.0
H3694 H 0.40015 0.70334 0.30267 0.0
H3695 H 0.41041 0.69567 0.27778 0.0
H3696 H 0.73895 0.16045 0.12387 0.0
H3697 H 0.74867 0.13932 0.13936 0.0
H3698 H 0.75688 0.17035 0.1766 0.0
H3699 H 0.74752 0.19149 0.16124 0.0
H3700 H 0.78156 0.1517 0.17007 0.0
H3701 H 0.72796 0.11812 0.17553 0.0
H3702 H 0.73418 0.12265 0.15653 0.0
H3703 H 0.72806 0.13764 0.16904 0.0
C3704 C 0.7427 0.16275 0.13541 0.0
C3705 C 0.74244 0.17769 0.14132 0.0
C3706 C 0.74821 0.15065 0.14424 0.0
C3707 C 0.7534 0.15327 0.15914 0.0
C3708 C 0.75297 0.1681 0.16509 0.0
H3709 H 0.76439 0.1102 0.2419 0.0
H3710 H 0.75605 0.12068 0.21763 0.0
C3711 C 0.74757 0.18018 0.1563 0.0
C3712 C 0.75964 0.14081 0.16866 0.0
H3713 H 0.74927 0.10944 0.18918 0.0
C3714 C 0.77461 0.14229 0.17409 0.0
C3715 C 0.75051 0.12857 0.17379 0.0
C3716 C 0.73425 0.12661 0.16854 0.0
C3717 C 0.78041 0.13246 0.18527 0.0
C3718 C 0.77106 0.12057 0.19089 0.0
C3719 C 0.75641 0.1185 0.18476 0.0
C3720 C 0.77525 0.11198 0.20481 0.0
C3721 C 0.79605 0.13559 0.19175 0.0
C3722 C 0.78858 0.10312 0.20557 0.0
C3723 C 0.7935 0.09721 0.21957 0.0
C3724 C 0.78508 0.10002 0.23291 0.0
C3725 C 0.77122 0.10798 0.23186 0.0
C3726 C 0.76638 0.11391 0.21796 0.0
H3727 H 0.80072 0.14669 0.18784 0.0
H3728 H 0.79571 0.13563 0.20441 0.0
H3729 H 0.80401 0.12649 0.18807 0.0
H3730 H 0.79543 0.10124 0.19548 0.0
H3731 H 0.80417 0.09101 0.22004 0.0
H3732 H 0.39076 0.25997 0.73677 0.0
H3733 H 0.38038 0.25377 0.7119 0.0
H3734 H 0.39753 0.29623 0.69391 0.0
H3735 H 0.4076 0.3028 0.7192 0.0
H3736 H 0.36848 0.29318 0.68758 0.0
H3737 H 0.39616 0.23915 0.67203 0.0
H3738 H 0.38865 0.23751 0.69094 0.0
H3739 H 0.40349 0.25121 0.68702 0.0
C3740 C 0.39263 0.26788 0.72747 0.0
C3741 C 0.39991 0.28192 0.72996 0.0
C3742 C 0.38683 0.26423 0.71316 0.0
C3743 C 0.38839 0.27439 0.70092 0.0
C3744 C 0.39631 0.28815 0.70317 0.0
H3745 H 0.33851 0.24189 0.62001 0.0
H3746 H 0.35972 0.25137 0.6355 0.0
C3747 C 0.40209 0.29187 0.71759 0.0
C3748 C 0.37989 0.27142 0.6866 0.0
H3749 H 0.37001 0.24251 0.66254 0.0
C3750 C 0.3691 0.28224 0.68184 0.0
C3751 C 0.38084 0.2573 0.67885 0.0
C3752 C 0.39306 0.24574 0.6824 0.0
C3753 C 0.35843 0.27883 0.67044 0.0
C3754 C 0.35827 0.26406 0.66396 0.0
C3755 C 0.36987 0.25371 0.66776 0.0
C3756 C 0.34549 0.25872 0.65427 0.0
C3757 C 0.3472 0.291 0.66576 0.0
C3758 C 0.33049 0.25941 0.6598 0.0
C3759 C 0.31837 0.25411 0.65098 0.0
C3760 C 0.32101 0.24772 0.63652 0.0
C3761 C 0.33608 0.24674 0.63111 0.0
C3762 C 0.34822 0.25219 0.63991 0.0
H3763 H 0.35217 0.30256 0.66719 0.0
H3764 H 0.34359 0.2896 0.6537 0.0
H3765 H 0.33697 0.2903 0.67316 0.0
H3766 H 0.32815 0.26391 0.67106 0.0
H3767 H 0.30695 0.25491 0.65559 0.0
H3768 H 0.19588 0.9065 0.2242 0.0
H3769 H 0.20449 0.89661 0.19947 0.0
H3770 H 0.24221 0.87413 0.22163 0.0
H3771 H 0.23401 0.88427 0.24612 0.0
H3772 H 0.25031 0.88637 0.19393 0.0
H3773 H 0.19711 0.85197 0.18939 0.0
H3774 H 0.19472 0.87227 0.19062 0.0
H3775 H 0.20225 0.86192 0.20662 0.0
C3776 C 0.20614 0.89965 0.22372 0.0
C3777 C 0.21415 0.89596 0.23711 0.0
C3778 C 0.211 0.89396 0.20962 0.0
C3779 C 0.22382 0.8844 0.20878 0.0
C3780 C 0.23227 0.88145 0.22202 0.0
H3781 H 0.24858 0.80657 0.16062 0.0
H3782 H 0.23959 0.82706 0.17696 0.0
C3783 C 0.22751 0.8872 0.23604 0.0
C3784 C 0.22793 0.87633 0.19453 0.0
H3785 H 0.21618 0.84737 0.17137 0.0
C3786 C 0.24278 0.87802 0.18879 0.0
C3787 C 0.21808 0.86537 0.18795 0.0
C3788 C 0.20219 0.86263 0.19397 0.0
C3789 C 0.24835 0.86847 0.17721 0.0
C3790 C 0.23867 0.85715 0.17104 0.0
C3791 C 0.22355 0.85608 0.17615 0.0
C3792 C 0.24444 0.84505 0.16079 0.0
C3793 C 0.26479 0.8699 0.17237 0.0
C3794 C 0.25023 0.84836 0.14624 0.0
C3795 C 0.25554 0.8366 0.13683 0.0
C3796 C 0.255 0.82134 0.14179 0.0
C3797 C 0.24916 0.81815 0.15638 0.0
C3798 C 0.24397 0.82986 0.16575 0.0
H3799 H 0.27138 0.87751 0.18005 0.0
H3800 H 0.27038 0.85854 0.17216 0.0
H3801 H 0.26531 0.8747 0.16068 0.0
H3802 H 0.25048 0.85999 0.14211 0.0
H3803 H 0.25985 0.83945 0.12562 0.0
H3804 H 0.66451 0.75092 0.61894 0.0
H3805 H 0.64417 0.74162 0.63565 0.0
H3806 H 0.67659 0.73648 0.67229 0.0
H3807 H 0.69701 0.74514 0.65552 0.0
H3808 H 0.65875 0.71229 0.67054 0.0
H3809 H 0.62278 0.7644 0.66885 0.0
H3810 H 0.62618 0.7559 0.65056 0.0
H3811 H 0.64181 0.76394 0.66112 0.0
C3812 C 0.66726 0.74791 0.6306 0.0
C3813 C 0.68235 0.74883 0.63594 0.0
C3814 C 0.65561 0.74264 0.64015 0.0
C3815 C 0.65879 0.73855 0.65531 0.0
C3816 C 0.67385 0.73954 0.66064 0.0
H3817 H 0.60895 0.73592 0.73657 0.0
H3818 H 0.62177 0.74168 0.7127 0.0
C3819 C 0.68551 0.74455 0.65105 0.0
C3820 C 0.64663 0.73309 0.66574 0.0
H3821 H 0.61364 0.74382 0.6834 0.0
C3822 C 0.64881 0.71912 0.67328 0.0
C3823 C 0.63368 0.74204 0.6693 0.0
C3824 C 0.63099 0.75746 0.66215 0.0
C3825 C 0.63885 0.71421 0.6848 0.0
C3826 C 0.62601 0.72326 0.6885 0.0
C3827 C 0.62342 0.73685 0.68044 0.0
C3828 C 0.61648 0.72004 0.70209 0.0
C3829 C 0.64273 0.69987 0.69352 0.0
C3830 C 0.60875 0.70612 0.70392 0.0
C3831 C 0.6015 0.70269 0.71775 0.0
C3832 C 0.60179 0.71322 0.72983 0.0
C3833 C 0.60865 0.7275 0.72754 0.0
C3834 C 0.61596 0.73084 0.71386 0.0
H3835 H 0.65457 0.69596 0.69126 0.0
H3836 H 0.64143 0.70168 0.70599 0.0
H3837 H 0.63485 0.6906 0.69006 0.0
H3838 H 0.6087 0.69775 0.69485 0.0
H3839 H 0.59622 0.69162 0.71918 0.0
H3840 H 0.879 0.74624 0.83768 0.0
H3841 H 0.86433 0.75696 0.85888 0.0
H3842 H 0.82499 0.76093 0.82962 0.0
H3843 H 0.83967 0.7508 0.80833 0.0
H3844 H 0.82906 0.78622 0.84605 0.0
H3845 H 0.83262 0.73555 0.88405 0.0
H3846 H 0.85057 0.74366 0.87851 0.0
H3847 H 0.83855 0.73495 0.86439 0.0
C3848 C 0.86719 0.7493 0.83581 0.0
C3849 C 0.86046 0.74757 0.82135 0.0
C3850 C 0.85882 0.75539 0.84795 0.0
C3851 C 0.8435 0.75956 0.8459 0.0
C3852 C 0.8368 0.75782 0.83147 0.0
H3853 H 0.76388 0.76316 0.89477 0.0
H3854 H 0.78856 0.7574 0.88363 0.0
C3855 C 0.8452 0.75196 0.81931 0.0
C3856 C 0.83422 0.76578 0.8586 0.0
H3857 H 0.81791 0.75616 0.89259 0.0
C3858 C 0.82676 0.77976 0.85634 0.0
C3859 C 0.83131 0.75733 0.87203 0.0
C3860 C 0.83857 0.74199 0.87491 0.0
C3861 C 0.81566 0.78502 0.86658 0.0
C3862 C 0.81234 0.77629 0.87975 0.0
C3863 C 0.82058 0.76286 0.88255 0.0
C3864 C 0.79855 0.77931 0.88904 0.0
C3865 C 0.80679 0.79923 0.86257 0.0
C3866 C 0.79614 0.79333 0.89641 0.0
C3867 C 0.78185 0.79675 0.90271 0.0
C3868 C 0.76991 0.7861 0.90178 0.0
C3869 C 0.77281 0.77166 0.89552 0.0
C3870 C 0.78696 0.76831 0.88919 0.0
H3871 H 0.80913 0.80317 0.85076 0.0
H3872 H 0.79434 0.7972 0.8637 0.0
H3873 H 0.80998 0.80855 0.87049 0.0
H3874 H 0.80506 0.80185 0.89671 0.0
H3875 H 0.77993 0.80795 0.90753 0.0
H3876 H 0.84472 0.24533 0.19934 0.0
H3877 H 0.82693 0.23673 0.17981 0.0
H3878 H 0.85779 0.25192 0.14468 0.0
H3879 H 0.87559 0.26093 0.16417 0.0
H3880 H 0.82897 0.26015 0.13848 0.0
H3881 H 0.83006 0.19905 0.15369 0.0
H3882 H 0.82534 0.21059 0.16988 0.0
H3883 H 0.84379 0.21248 0.16106 0.0
C3884 C 0.84777 0.24686 0.18747 0.0
C3885 C 0.86163 0.2538 0.18335 0.0
C3886 C 0.83763 0.24179 0.17631 0.0
C3887 C 0.8412 0.24333 0.16079 0.0
C3888 C 0.85488 0.25048 0.1566 0.0
H3889 H 0.77818 0.19772 0.09751 0.0
H3890 H 0.80229 0.20582 0.10918 0.0
C3891 C 0.86502 0.25566 0.16777 0.0
C3892 C 0.83031 0.23799 0.14901 0.0
H3893 H 0.80838 0.20748 0.13896 0.0
C3894 C 0.82464 0.24857 0.13842 0.0
C3895 C 0.82494 0.22278 0.14865 0.0
C3896 C 0.83148 0.21054 0.15882 0.0
C3897 C 0.81305 0.24459 0.12814 0.0
C3898 C 0.80672 0.22976 0.12873 0.0
C3899 C 0.81307 0.21892 0.13864 0.0
C3900 C 0.79267 0.22567 0.12026 0.0
C3901 C 0.8076 0.25639 0.11688 0.0
C3902 C 0.77931 0.23414 0.12257 0.0
C3903 C 0.76564 0.22962 0.11586 0.0
C3904 C 0.76495 0.21638 0.10689 0.0
C3905 C 0.77838 0.20801 0.10432 0.0
C3906 C 0.79213 0.21261 0.111 0.0
H3907 H 0.81684 0.26456 0.11399 0.0
H3908 H 0.80342 0.25105 0.10619 0.0
H3909 H 0.79813 0.26301 0.12205 0.0
H3910 H 0.77932 0.244 0.13 0.0
H3911 H 0.75549 0.23629 0.11812 0.0
H3912 H 0.25589 0.33986 0.69151 0.0
H3913 H 0.26467 0.32484 0.66992 0.0
H3914 H 0.24932 0.35983 0.63898 0.0
H3915 H 0.24011 0.37492 0.66062 0.0
H3916 H 0.24132 0.33198 0.62909 0.0
H3917 H 0.30224 0.33107 0.64439 0.0
H3918 H 0.29096 0.32467 0.66017 0.0
H3919 H 0.28888 0.34394 0.65331 0.0
C3920 C 0.2544 0.34445 0.68014 0.0
C3921 C 0.24735 0.35865 0.67783 0.0
C3922 C 0.25957 0.33588 0.6678 0.0
C3923 C 0.25804 0.3414 0.65286 0.0
C3924 C 0.25078 0.35545 0.65043 0.0
H3925 H 0.30323 0.27834 0.5897 0.0
H3926 H 0.29561 0.30333 0.59973 0.0
C3927 C 0.24549 0.36403 0.66282 0.0
C3928 C 0.2634 0.33198 0.63989 0.0
H3929 H 0.29341 0.30996 0.62872 0.0
C3930 C 0.25281 0.32742 0.62879 0.0
C3931 C 0.27851 0.32638 0.63916 0.0
C3932 C 0.29083 0.33193 0.64981 0.0
C3933 C 0.25657 0.31638 0.61784 0.0
C3934 C 0.27115 0.30947 0.61828 0.0
C3935 C 0.28213 0.31504 0.6285 0.0
C3936 C 0.27461 0.29521 0.60986 0.0
C3937 C 0.24473 0.31196 0.60618 0.0
C3938 C 0.26526 0.28242 0.61201 0.0
C3939 C 0.26951 0.26826 0.60622 0.0
C3940 C 0.28336 0.26649 0.59837 0.0
C3941 C 0.29247 0.27938 0.59567 0.0
C3942 C 0.28814 0.29364 0.60141 0.0
H3943 H 0.23742 0.32187 0.60322 0.0
H3944 H 0.25002 0.30749 0.59558 0.0
H3945 H 0.23721 0.30303 0.61106 0.0
H3946 H 0.25502 0.28317 0.61886 0.0
H3947 H 0.26223 0.25855 0.60851 0.0
H3948 H 0.24364 0.76241 0.11465 0.0
H3949 H 0.21967 0.75396 0.12572 0.0
H3950 H 0.19712 0.79384 0.10784 0.0
H3951 H 0.22136 0.80264 0.09696 0.0
H3952 H 0.19151 0.79019 0.1376 0.0
H3953 H 0.18148 0.7352 0.10885 0.0
H3954 H 0.20038 0.73586 0.11656 0.0
H3955 H 0.19498 0.74902 0.10173 0.0
C3956 C 0.23354 0.76929 0.11283 0.0
C3957 C 0.23439 0.78322 0.10497 0.0
C3958 C 0.21979 0.76435 0.11905 0.0
C3959 C 0.20652 0.77312 0.11739 0.0
C3960 C 0.2072 0.78683 0.10913 0.0
H3961 H 0.12404 0.7368 0.16165 0.0
H3962 H 0.14135 0.74648 0.14201 0.0
C3963 C 0.22103 0.79182 0.10291 0.0
C3964 C 0.19252 0.76868 0.12577 0.0
H3965 H 0.17005 0.738 0.13398 0.0
C3966 C 0.18661 0.77888 0.13659 0.0
C3967 C 0.18593 0.75403 0.12429 0.0
C3968 C 0.19093 0.74298 0.1121 0.0
C3969 C 0.17499 0.77448 0.14664 0.0
C3970 C 0.16941 0.75935 0.1461 0.0
C3971 C 0.17456 0.74949 0.1346 0.0
C3972 C 0.15892 0.75333 0.15791 0.0
C3973 C 0.16899 0.78602 0.15791 0.0
C3974 C 0.16322 0.75361 0.17331 0.0
C3975 C 0.15338 0.74814 0.18455 0.0
C3976 C 0.13907 0.74208 0.18061 0.0
C3977 C 0.13497 0.74139 0.1651 0.0
C3978 C 0.14482 0.74695 0.15385 0.0
H3979 H 0.17048 0.79784 0.15361 0.0
H3980 H 0.15673 0.78412 0.16039 0.0
H3981 H 0.17547 0.78503 0.16873 0.0
H3982 H 0.17424 0.75806 0.17666 0.0
H3983 H 0.15699 0.74875 0.19634 0.0
H3984 H 0.74588 0.65803 0.68758 0.0
H3985 H 0.7356 0.67207 0.66597 0.0
H3986 H 0.74602 0.63435 0.63618 0.0
H3987 H 0.75677 0.62028 0.65778 0.0
H3988 H 0.75439 0.66051 0.62357 0.0
H3989 H 0.69559 0.66706 0.6445 0.0
H3990 H 0.70866 0.67374 0.65869 0.0
H3991 H 0.70889 0.65394 0.65315 0.0
C3992 C 0.74595 0.65265 0.67646 0.0
C3993 C 0.75213 0.63801 0.67443 0.0
C3994 C 0.73991 0.66064 0.66413 0.0
C3995 C 0.73964 0.65409 0.64953 0.0
C3996 C 0.74594 0.63954 0.64739 0.0
H3997 H 0.69374 0.71846 0.58841 0.0
H3998 H 0.7 0.69296 0.59814 0.0
C3999 C 0.75213 0.63156 0.65973 0.0
C4000 C 0.73362 0.66298 0.63648 0.0
H4001 H 0.70445 0.68681 0.62696 0.0
C4002 C 0.74332 0.66598 0.62411 0.0
C4003 C 0.71897 0.66973 0.63685 0.0
C4004 C 0.70739 0.66578 0.64894 0.0
C4005 C 0.73933 0.67668 0.61291 0.0
C4006 C 0.72551 0.68488 0.6144 0.0
C4007 C 0.71519 0.68076 0.62592 0.0
C4008 C 0.72261 0.69917 0.60585 0.0
C4009 C 0.75023 0.67945 0.5999 0.0
C4010 C 0.73332 0.71102 0.6067 0.0
C4011 C 0.72982 0.72544 0.6011 0.0
C4012 C 0.71545 0.72844 0.59474 0.0
C4013 C 0.70494 0.71644 0.5932 0.0
C4014 C 0.70849 0.7019 0.59878 0.0
H4015 H 0.75617 0.66874 0.59668 0.0
H4016 H 0.7443 0.68404 0.5897 0.0
H4017 H 0.75907 0.68773 0.60355 0.0
H4018 H 0.74409 0.70939 0.61249 0.0
H4019 H 0.73816 0.73445 0.60245 0.0
H4020 H 0.15749 0.24434 0.80614 0.0
H4021 H 0.17317 0.23481 0.82707 0.0
H4022 H 0.13554 0.2408 0.85819 0.0
H4023 H 0.11999 0.25095 0.83742 0.0
H4024 H 0.16033 0.25013 0.8711 0.0
H4025 H 0.17251 0.19375 0.84625 0.0
H4026 H 0.17838 0.20839 0.83329 0.0
H4027 H 0.15849 0.20644 0.83816 0.0
C4028 C 0.15256 0.24365 0.81744 0.0
C4029 C 0.1375 0.2484 0.82011 0.0
C4030 C 0.16148 0.23803 0.82938 0.0
C4031 C 0.1554 0.23665 0.84414 0.0
C4032 C 0.14044 0.24162 0.84688 0.0
H4033 H 0.21856 0.18978 0.90614 0.0
H4034 H 0.19395 0.19572 0.89419 0.0
C4035 C 0.13159 0.24748 0.835 0.0
C4036 C 0.16494 0.23067 0.85679 0.0
H4037 H 0.19034 0.20255 0.86549 0.0
C4038 C 0.16667 0.23958 0.86999 0.0
C4039 C 0.17284 0.21664 0.85567 0.0
C4040 C 0.1703 0.20569 0.84265 0.0
C4041 C 0.17695 0.2354 0.88151 0.0
C4042 C 0.1861 0.22227 0.87955 0.0
C4043 C 0.18352 0.21277 0.86693 0.0
C4044 C 0.19964 0.21922 0.88923 0.0
C4045 C 0.17803 0.24529 0.89554 0.0
C4046 C 0.21087 0.23051 0.8907 0.0
C4047 C 0.22475 0.22721 0.89762 0.0
C4048 C 0.22788 0.21245 0.90298 0.0
C4049 C 0.21643 0.20128 0.90218 0.0
C4050 C 0.2024 0.20464 0.8953 0.0
H4051 H 0.16678 0.25041 0.89833 0.0
H4052 H 0.18212 0.23876 0.90559 0.0
H4053 H 0.18607 0.25481 0.89332 0.0
H4054 H 0.20926 0.2417 0.88573 0.0
H4055 H 0.23336 0.23606 0.89805 0.0
H4056 H 0.30233 0.72162 0.40456 0.0
H4057 H 0.29308 0.69741 0.39398 0.0
H4058 H 0.25492 0.72085 0.37368 0.0
H4059 H 0.26383 0.74485 0.38441 0.0
H4060 H 0.24704 0.69249 0.38555 0.0
H4061 H 0.29844 0.68935 0.34836 0.0
H4062 H 0.30184 0.68997 0.36855 0.0
H4063 H 0.29372 0.70622 0.35911 0.0
C4064 C 0.29184 0.72154 0.39804 0.0
C4065 C 0.28391 0.73515 0.39513 0.0
C4066 C 0.28662 0.70773 0.39196 0.0
C4067 C 0.27346 0.7074 0.38284 0.0
C4068 C 0.26512 0.72085 0.38066 0.0
H4069 H 0.24637 0.6589 0.30505 0.0
H4070 H 0.25454 0.67618 0.32517 0.0
C4071 C 0.27028 0.73458 0.38674 0.0
C4072 C 0.26888 0.69351 0.37441 0.0
H4073 H 0.2793 0.67125 0.34426 0.0
C4074 C 0.25416 0.68764 0.37667 0.0
C4075 C 0.27818 0.68736 0.36275 0.0
C4076 C 0.29388 0.69356 0.3594 0.0
C4077 C 0.24822 0.67622 0.36714 0.0
C4078 C 0.25737 0.6704 0.35522 0.0
C4079 C 0.27234 0.67576 0.35344 0.0
C4080 C 0.25126 0.65994 0.34345 0.0
C4081 C 0.23197 0.67107 0.36937 0.0
C4082 C 0.24645 0.64513 0.34709 0.0
C4083 C 0.24162 0.63518 0.33556 0.0
C4084 C 0.2417 0.63988 0.32021 0.0
C4085 C 0.24622 0.65486 0.31672 0.0
C4086 C 0.25093 0.66476 0.32821 0.0
H4087 H 0.22564 0.67858 0.37737 0.0
H4088 H 0.22582 0.67082 0.3583 0.0
H4089 H 0.23192 0.65934 0.3741 0.0
H4090 H 0.24683 0.64112 0.35877 0.0
H4091 H 0.23834 0.62368 0.33863 0.0
H4092 H 0.74099 0.34312 0.30144 0.0
H4093 H 0.73281 0.32621 0.32192 0.0
H4094 H 0.74829 0.3588 0.35532 0.0
H4095 H 0.75693 0.37567 0.33489 0.0
H4096 H 0.75695 0.33088 0.3629 0.0
H4097 H 0.69574 0.32943 0.3485 0.0
H4098 H 0.70703 0.32408 0.33233 0.0
H4099 H 0.70868 0.34304 0.34008 0.0
C4100 C 0.74267 0.34673 0.31313 0.0
C4101 C 0.74963 0.36077 0.3165 0.0
C4102 C 0.73782 0.33711 0.32484 0.0
C4103 C 0.73958 0.34141 0.34016 0.0
C4104 C 0.74668 0.35532 0.34358 0.0
H4105 H 0.69642 0.27775 0.40439 0.0
H4106 H 0.7037 0.30236 0.39323 0.0
C4107 C 0.75166 0.36492 0.33187 0.0
C4108 C 0.73467 0.33097 0.35252 0.0
H4109 H 0.7051 0.30834 0.36368 0.0
C4110 C 0.74552 0.32616 0.36325 0.0
C4111 C 0.71966 0.32512 0.35329 0.0
C4112 C 0.70708 0.33084 0.34303 0.0
C4113 C 0.74207 0.31485 0.37402 0.0
C4114 C 0.72751 0.3079 0.37375 0.0
C4115 C 0.71634 0.31349 0.36375 0.0
C4116 C 0.72417 0.29378 0.38243 0.0
C4117 C 0.75416 0.31029 0.38537 0.0
C4118 C 0.73333 0.28086 0.38022 0.0
C4119 C 0.72929 0.26692 0.38666 0.0
C4120 C 0.71584 0.26551 0.39522 0.0
C4121 C 0.70689 0.27853 0.3979 0.0
C4122 C 0.71101 0.29256 0.39149 0.0
H4123 H 0.76173 0.32007 0.3881 0.0
H4124 H 0.74907 0.30596 0.39613 0.0
H4125 H 0.76137 0.30119 0.38035 0.0
H4126 H 0.74328 0.28137 0.37293 0.0
H4127 H 0.73641 0.25709 0.38435 0.0
loop_
_geom_bond_atom_site_label_1
_geom_bond_atom_site_label_2
_geom_bond_distance
_geom_bond_site_symmetry_2
_ccdc_geom_bond_type
Co0 O1 2.216 . S
Co0 O2 2.091 . S
Co0 O4 2.004 . S
Co0 O10 2.021 . S
Co0 O12 2.137 . S
Co0 O13 2.244 . S
O1 Co0 2.216 . S
O1 C8 1.247 . S
O2 Co0 2.091 . S
O2 C8 1.261 . S
C3 O12 1.247 . S
C3 O13 1.272 . S
O4 Co0 2.004 . S
O4 C9 1.259 . S
Co5 O6 2.061 . S
Co5 O11 2.052 . S
Co5 O13 2.135 . S
O6 Co5 2.061 . S
O6 C9 1.235 . S
C7 O10 1.238 . S
C7 O11 1.241 . S
C8 O1 1.247 . S
C8 O2 1.261 . S
C9 O4 1.259 . S
C9 O6 1.235 . S
O10 Co0 2.021 . S
O10 C7 1.238 . S
O11 Co5 2.052 . S
O11 C7 1.241 . S
O12 Co0 2.137 . S
O12 C3 1.247 . S
O13 Co0 2.244 . S
O13 C3 1.272 . S
O13 Co5 2.135 . S
Co14 O15 2.216 . S
Co14 O16 2.091 . S
Co14 O18 2.004 . S
Co14 O24 2.021 . S
Co14 O26 2.137 . S
Co14 O27 2.244 . S
O15 Co14 2.216 . S
O15 C22 1.247 . S
O16 Co14 2.091 . S
O16 C22 1.261 . S
C17 O26 1.247 . S
C17 O27 1.272 . S
O18 Co14 2.004 . S
O18 C23 1.259 . S
Co19 O20 2.061 . S
Co19 O25 2.052 . S
Co19 O27 2.135 . S
O20 Co19 2.061 . S
O20 C23 1.235 . S
C21 O24 1.238 . S
C21 O25 1.241 . S
C22 O15 1.247 . S
C22 O16 1.261 . S
C23 O18 1.259 . S
C23 O20 1.235 . S
O24 Co14 2.021 . S
O24 C21 1.238 . S
O25 Co19 2.052 . S
O25 C21 1.241 . S
O26 Co14 2.137 . S
O26 C17 1.247 . S
O27 Co14 2.244 . S
O27 C17 1.272 . S
O27 Co19 2.135 . S
Co28 O29 2.216 . S
Co28 O30 2.091 . S
Co28 O32 2.004 . S
Co28 O38 2.021 . S
Co28 O40 2.137 . S
Co28 O41 2.244 . S
O29 Co28 2.216 . S
O29 C36 1.247 . S
O30 Co28 2.091 . S
O30 C36 1.261 . S
C31 O40 1.247 . S
C31 O41 1.272 . S
O32 Co28 2.004 . S
O32 C37 1.259 . S
Co33 O34 2.061 . S
Co33 O39 2.052 . S
Co33 O41 2.135 . S
O34 Co33 2.061 . S
O34 C37 1.235 . S
C35 O38 1.238 . S
C35 O39 1.241 . S
C36 O29 1.247 . S
C36 O30 1.261 . S
C37 O32 1.259 . S
C37 O34 1.235 . S
O38 Co28 2.021 . S
O38 C35 1.238 . S
O39 Co33 2.052 . S
O39 C35 1.241 . S
O40 Co28 2.137 . S
O40 C31 1.247 . S
O41 Co28 2.244 . S
O41 C31 1.272 . S
O41 Co33 2.135 . S
Co42 O43 2.216 . S
Co42 O44 2.091 . S
Co42 O46 2.004 . S
Co42 O52 2.021 . S
Co42 O54 2.137 . S
Co42 O55 2.244 . S
O43 Co42 2.216 . S
O43 C50 1.247 . S
O44 Co42 2.091 . S
O44 C50 1.261 . S
C45 O54 1.247 . S
C45 O55 1.272 . S
O46 Co42 2.004 . S
O46 C51 1.259 . S
Co47 O48 2.061 . S
Co47 O53 2.052 . S
Co47 O55 2.135 . S
O48 Co47 2.061 . S
O48 C51 1.235 . S
C49 O52 1.238 . S
C49 O53 1.241 . S
C50 O43 1.247 . S
C50 O44 1.261 . S
C51 O46 1.259 . S
C51 O48 1.235 . S
O52 Co42 2.021 . S
O52 C49 1.238 . S
O53 Co47 2.052 . S
O53 C49 1.241 . S
O54 Co42 2.137 . S
O54 C45 1.247 . S
O55 Co42 2.244 . S
O55 C45 1.272 . S
O55 Co47 2.135 . S
Co56 O57 2.216 . S
Co56 O58 2.091 . S
Co56 O60 2.004 . S
Co56 O66 2.021 . S
Co56 O68 2.137 . S
Co56 O69 2.244 . S
O57 Co56 2.216 . S
O57 C64 1.247 . S
O58 Co56 2.091 . S
O58 C64 1.261 . S
C59 O68 1.247 . S
C59 O69 1.272 . S
O60 Co56 2.004 . S
O60 C65 1.259 . S
Co61 O62 2.061 . S
Co61 O67 2.052 . S
Co61 O69 2.135 . S
O62 Co61 2.061 . S
O62 C65 1.235 . S
C63 O66 1.238 . S
C63 O67 1.241 . S
C64 O57 1.247 . S
C64 O58 1.261 . S
C65 O60 1.259 . S
C65 O62 1.235 . S
O66 Co56 2.021 . S
O66 C63 1.238 . S
O67 Co61 2.052 . S
O67 C63 1.241 . S
O68 Co56 2.137 . S
O68 C59 1.247 . S
O69 Co56 2.244 . S
O69 C59 1.272 . S
O69 Co61 2.135 . S
Co70 O71 2.216 . S
Co70 O72 2.091 . S
Co70 O74 2.004 . S
Co70 O80 2.021 . S
Co70 O82 2.137 . S
Co70 O83 2.244 . S
O71 Co70 2.216 . S
O71 C78 1.247 . S
O72 Co70 2.091 . S
O72 C78 1.261 . S
C73 O82 1.247 . S
C73 O83 1.272 . S
O74 Co70 2.004 . S
O74 C79 1.259 . S
Co75 O76 2.061 . S
Co75 O81 2.052 . S
Co75 O83 2.135 . S
O76 Co75 2.061 . S
O76 C79 1.235 . S
C77 O80 1.238 . S
C77 O81 1.241 . S
C78 O71 1.247 . S
C78 O72 1.261 . S
C79 O74 1.259 . S
C79 O76 1.235 . S
O80 Co70 2.021 . S
O80 C77 1.238 . S
O81 Co75 2.052 . S
O81 C77 1.241 . S
O82 Co70 2.137 . S
O82 C73 1.247 . S
O83 Co70 2.244 . S
O83 C73 1.272 . S
O83 Co75 2.135 . S
Co84 O85 2.216 . S
Co84 O86 2.091 . S
Co84 O88 2.004 . S
Co84 O94 2.021 . S
Co84 O96 2.137 . S
Co84 O97 2.244 . S
O85 Co84 2.216 . S
O85 C92 1.247 . S
O86 Co84 2.091 . S
O86 C92 1.261 . S
C87 O96 1.247 . S
C87 O97 1.272 . S
O88 Co84 2.004 . S
O88 C93 1.259 . S
Co89 O90 2.061 . S
Co89 O95 2.052 . S
Co89 O97 2.135 . S
O90 Co89 2.061 . S
O90 C93 1.235 . S
C91 O94 1.238 . S
C91 O95 1.241 . S
C92 O85 1.247 . S
C92 O86 1.261 . S
C93 O88 1.259 . S
C93 O90 1.235 . S
O94 Co84 2.021 . S
O94 C91 1.238 . S
O95 Co89 2.052 . S
O95 C91 1.241 . S
O96 Co84 2.137 . S
O96 C87 1.247 . S
O97 Co84 2.244 . S
O97 C87 1.272 . S
O97 Co89 2.135 . S
Co98 O99 2.216 . S
Co98 O100 2.091 . S
Co98 O102 2.004 . S
Co98 O108 2.021 . S
Co98 O110 2.137 . S
Co98 O111 2.244 . S
O99 Co98 2.216 . S
O99 C106 1.247 . S
O100 Co98 2.091 . S
O100 C106 1.261 . S
C101 O110 1.247 . S
C101 O111 1.272 . S
O102 Co98 2.004 . S
O102 C107 1.259 . S
Co103 O104 2.061 . S
Co103 O109 2.052 . S
Co103 O111 2.135 . S
O104 Co103 2.061 . S
O104 C107 1.235 . S
C105 O108 1.238 . S
C105 O109 1.241 . S
C106 O99 1.247 . S
C106 O100 1.261 . S
C107 O102 1.259 . S
C107 O104 1.235 . S
O108 Co98 2.021 . S
O108 C105 1.238 . S
O109 Co103 2.052 . S
O109 C105 1.241 . S
O110 Co98 2.137 . S
O110 C101 1.247 . S
O111 Co98 2.244 . S
O111 C101 1.272 . S
O111 Co103 2.135 . S
Co112 O113 2.216 . S
Co112 O114 2.091 . S
Co112 O116 2.004 . S
Co112 O122 2.021 . S
Co112 O124 2.137 . S
Co112 O125 2.244 . S
O113 Co112 2.216 . S
O113 C120 1.247 . S
O114 Co112 2.091 . S
O114 C120 1.261 . S
C115 O124 1.247 . S
C115 O125 1.272 . S
O116 Co112 2.004 . S
O116 C121 1.259 . S
Co117 O118 2.061 . S
Co117 O123 2.052 . S
Co117 O125 2.135 . S
O118 Co117 2.061 . S
O118 C121 1.235 . S
C119 O122 1.238 . S
C119 O123 1.241 . S
C120 O113 1.247 . S
C120 O114 1.261 . S
C121 O116 1.259 . S
C121 O118 1.235 . S
O122 Co112 2.021 . S
O122 C119 1.238 . S
O123 Co117 2.052 . S
O123 C119 1.241 . S
O124 Co112 2.137 . S
O124 C115 1.247 . S
O125 Co112 2.244 . S
O125 C115 1.272 . S
O125 Co117 2.135 . S
Co126 O127 2.216 . S
Co126 O128 2.091 . S
Co126 O130 2.004 . S
Co126 O136 2.021 . S
Co126 O138 2.137 . S
Co126 O139 2.244 . S
O127 Co126 2.216 . S
O127 C134 1.247 . S
O128 Co126 2.091 . S
O128 C134 1.261 . S
C129 O138 1.247 . S
C129 O139 1.272 . S
O130 Co126 2.004 . S
O130 C135 1.259 . S
Co131 O132 2.061 . S
Co131 O137 2.052 . S
Co131 O139 2.135 . S
O132 Co131 2.061 . S
O132 C135 1.235 . S
C133 O136 1.238 . S
C133 O137 1.241 . S
C134 O127 1.247 . S
C134 O128 1.261 . S
C135 O130 1.259 . S
C135 O132 1.235 . S
O136 Co126 2.021 . S
O136 C133 1.238 . S
O137 Co131 2.052 . S
O137 C133 1.241 . S
O138 Co126 2.137 . S
O138 C129 1.247 . S
O139 Co126 2.244 . S
O139 C129 1.272 . S
O139 Co131 2.135 . S
Co140 O141 2.216 . S
Co140 O142 2.091 . S
Co140 O144 2.004 . S
Co140 O150 2.021 . S
Co140 O152 2.137 . S
Co140 O153 2.244 . S
O141 Co140 2.216 . S
O141 C148 1.247 . S
O142 Co140 2.091 . S
O142 C148 1.261 . S
C143 O152 1.247 . S
C143 O153 1.272 . S
O144 Co140 2.004 . S
O144 C149 1.259 . S
Co145 O146 2.061 . S
Co145 O151 2.052 . S
Co145 O153 2.135 . S
O146 Co145 2.061 . S
O146 C149 1.235 . S
C147 O150 1.238 . S
C147 O151 1.241 . S
C148 O141 1.247 . S
C148 O142 1.261 . S
C149 O144 1.259 . S
C149 O146 1.235 . S
O150 Co140 2.021 . S
O150 C147 1.238 . S
O151 Co145 2.052 . S
O151 C147 1.241 . S
O152 Co140 2.137 . S
O152 C143 1.247 . S
O153 Co140 2.244 . S
O153 C143 1.272 . S
O153 Co145 2.135 . S
Co154 O155 2.216 . S
Co154 O156 2.091 . S
Co154 O158 2.004 . S
Co154 O164 2.021 . S
Co154 O166 2.137 . S
Co154 O167 2.244 . S
O155 Co154 2.216 . S
O155 C162 1.247 . S
O156 Co154 2.091 . S
O156 C162 1.261 . S
C157 O166 1.247 . S
C157 O167 1.272 . S
O158 Co154 2.004 . S
O158 C163 1.259 . S
Co159 O160 2.061 . S
Co159 O165 2.052 . S
Co159 O167 2.135 . S
O160 Co159 2.061 . S
O160 C163 1.235 . S
C161 O164 1.238 . S
C161 O165 1.241 . S
C162 O155 1.247 . S
C162 O156 1.261 . S
C163 O158 1.259 . S
C163 O160 1.235 . S
O164 Co154 2.021 . S
O164 C161 1.238 . S
O165 Co159 2.052 . S
O165 C161 1.241 . S
O166 Co154 2.137 . S
O166 C157 1.247 . S
O167 Co154 2.244 . S
O167 C157 1.272 . S
O167 Co159 2.135 . S
Co168 O169 2.216 . S
Co168 O170 2.091 . S
Co168 O172 2.004 . S
Co168 O178 2.021 . S
Co168 O180 2.137 . S
Co168 O181 2.244 . S
O169 Co168 2.216 . S
O169 C176 1.247 . S
O170 Co168 2.091 . S
O170 C176 1.261 . S
C171 O180 1.247 . S
C171 O181 1.272 . S
O172 Co168 2.004 . S
O172 C177 1.259 . S
Co173 O174 2.061 . S
Co173 O179 2.052 . S
Co173 O181 2.135 . S
O174 Co173 2.061 . S
O174 C177 1.235 . S
C175 O178 1.238 . S
C175 O179 1.241 . S
C176 O169 1.247 . S
C176 O170 1.261 . S
C177 O172 1.259 . S
C177 O174 1.235 . S
O178 Co168 2.021 . S
O178 C175 1.238 . S
O179 Co173 2.052 . S
O179 C175 1.241 . S
O180 Co168 2.137 . S
O180 C171 1.247 . S
O181 Co168 2.244 . S
O181 C171 1.272 . S
O181 Co173 2.135 . S
Co182 O183 2.216 . S
Co182 O184 2.091 . S
Co182 O186 2.004 . S
Co182 O192 2.021 . S
Co182 O194 2.137 . S
Co182 O195 2.244 . S
O183 Co182 2.216 . S
O183 C190 1.247 . S
O184 Co182 2.091 . S
O184 C190 1.261 . S
C185 O194 1.247 . S
C185 O195 1.272 . S
O186 Co182 2.004 . S
O186 C191 1.259 . S
Co187 O188 2.061 . S
Co187 O193 2.052 . S
Co187 O195 2.135 . S
O188 Co187 2.061 . S
O188 C191 1.235 . S
C189 O192 1.238 . S
C189 O193 1.241 . S
C190 O183 1.247 . S
C190 O184 1.261 . S
C191 O186 1.259 . S
C191 O188 1.235 . S
O192 Co182 2.021 . S
O192 C189 1.238 . S
O193 Co187 2.052 . S
O193 C189 1.241 . S
O194 Co182 2.137 . S
O194 C185 1.247 . S
O195 Co182 2.244 . S
O195 C185 1.272 . S
O195 Co187 2.135 . S
Co196 O197 2.216 . S
Co196 O198 2.091 . S
Co196 O200 2.004 . S
Co196 O206 2.021 . S
Co196 O208 2.137 . S
Co196 O209 2.244 . S
O197 Co196 2.216 . S
O197 C204 1.247 . S
O198 Co196 2.091 . S
O198 C204 1.261 . S
C199 O208 1.247 . S
C199 O209 1.272 . S
O200 Co196 2.004 . S
O200 C205 1.259 . S
Co201 O202 2.061 . S
Co201 O207 2.052 . S
Co201 O209 2.135 . S
O202 Co201 2.061 . S
O202 C205 1.235 . S
C203 O206 1.238 . S
C203 O207 1.241 . S
C204 O197 1.247 . S
C204 O198 1.261 . S
C205 O200 1.259 . S
C205 O202 1.235 . S
O206 Co196 2.021 . S
O206 C203 1.238 . S
O207 Co201 2.052 . S
O207 C203 1.241 . S
O208 Co196 2.137 . S
O208 C199 1.247 . S
O209 Co196 2.244 . S
O209 C199 1.272 . S
O209 Co201 2.135 . S
Co210 O211 2.216 . S
Co210 O212 2.091 . S
Co210 O214 2.004 . S
Co210 O220 2.021 . S
Co210 O222 2.137 . S
Co210 O223 2.244 . S
O211 Co210 2.216 . S
O211 C218 1.247 . S
O212 Co210 2.091 . S
O212 C218 1.261 . S
C213 O222 1.247 . S
C213 O223 1.272 . S
O214 Co210 2.004 . S
O214 C219 1.259 . S
Co215 O216 2.061 . S
Co215 O221 2.052 . S
Co215 O223 2.135 . S
O216 Co215 2.061 . S
O216 C219 1.235 . S
C217 O220 1.238 . S
C217 O221 1.241 . S
C218 O211 1.247 . S
C218 O212 1.261 . S
C219 O214 1.259 . S
C219 O216 1.235 . S
O220 Co210 2.021 . S
O220 C217 1.238 . S
O221 Co215 2.052 . S
O221 C217 1.241 . S
O222 Co210 2.137 . S
O222 C213 1.247 . S
O223 Co210 2.244 . S
O223 C213 1.272 . S
O223 Co215 2.135 . S
Co224 O225 2.216 . S
Co224 O226 2.091 . S
Co224 O228 2.004 . S
Co224 O234 2.021 . S
Co224 O236 2.137 . S
Co224 O237 2.244 . S
O225 Co224 2.216 . S
O225 C232 1.247 . S
O226 Co224 2.091 . S
O226 C232 1.261 . S
C227 O236 1.247 . S
C227 O237 1.272 . S
O228 Co224 2.004 . S
O228 C233 1.259 . S
Co229 O230 2.061 . S
Co229 O235 2.052 . S
Co229 O237 2.135 . S
O230 Co229 2.061 . S
O230 C233 1.235 . S
C231 O234 1.238 . S
C231 O235 1.241 . S
C232 O225 1.247 . S
C232 O226 1.261 . S
C233 O228 1.259 . S
C233 O230 1.235 . S
O234 Co224 2.021 . S
O234 C231 1.238 . S
O235 Co229 2.052 . S
O235 C231 1.241 . S
O236 Co224 2.137 . S
O236 C227 1.247 . S
O237 Co224 2.244 . S
O237 C227 1.272 . S
O237 Co229 2.135 . S
Co238 O239 2.216 . S
Co238 O240 2.091 . S
Co238 O242 2.004 . S
Co238 O248 2.021 . S
Co238 O250 2.137 . S
Co238 O251 2.244 . S
O239 Co238 2.216 . S
O239 C246 1.247 . S
O240 Co238 2.091 . S
O240 C246 1.261 . S
C241 O250 1.247 . S
C241 O251 1.272 . S
O242 Co238 2.004 . S
O242 C247 1.259 . S
Co243 O244 2.061 . S
Co243 O249 2.052 . S
Co243 O251 2.135 . S
O244 Co243 2.061 . S
O244 C247 1.235 . S
C245 O248 1.238 . S
C245 O249 1.241 . S
C246 O239 1.247 . S
C246 O240 1.261 . S
C247 O242 1.259 . S
C247 O244 1.235 . S
O248 Co238 2.021 . S
O248 C245 1.238 . S
O249 Co243 2.052 . S
O249 C245 1.241 . S
O250 Co238 2.137 . S
O250 C241 1.247 . S
O251 Co238 2.244 . S
O251 C241 1.272 . S
O251 Co243 2.135 . S
Co252 O253 2.216 . S
Co252 O254 2.091 . S
Co252 O256 2.004 . S
Co252 O262 2.021 . S
Co252 O264 2.137 . S
Co252 O265 2.244 . S
O253 Co252 2.216 . S
O253 C260 1.247 . S
O254 Co252 2.091 . S
O254 C260 1.261 . S
C255 O264 1.247 . S
C255 O265 1.272 . S
O256 Co252 2.004 . S
O256 C261 1.259 . S
Co257 O258 2.061 . S
Co257 O263 2.052 . S
Co257 O265 2.135 . S
O258 Co257 2.061 . S
O258 C261 1.235 . S
C259 O262 1.238 . S
C259 O263 1.241 . S
C260 O253 1.247 . S
C260 O254 1.261 . S
C261 O256 1.259 . S
C261 O258 1.235 . S
O262 Co252 2.021 . S
O262 C259 1.238 . S
O263 Co257 2.052 . S
O263 C259 1.241 . S
O264 Co252 2.137 . S
O264 C255 1.247 . S
O265 Co252 2.244 . S
O265 C255 1.272 . S
O265 Co257 2.135 . S
Co266 O267 2.216 . S
Co266 O268 2.091 . S
Co266 O270 2.004 . S
Co266 O276 2.021 . S
Co266 O278 2.137 . S
Co266 O279 2.244 . S
O267 Co266 2.216 . S
O267 C274 1.247 . S
O268 Co266 2.091 . S
O268 C274 1.261 . S
C269 O278 1.247 . S
C269 O279 1.272 . S
O270 Co266 2.004 . S
O270 C275 1.259 . S
Co271 O272 2.061 . S
Co271 O277 2.052 . S
Co271 O279 2.135 . S
O272 Co271 2.061 . S
O272 C275 1.235 . S
C273 O276 1.238 . S
C273 O277 1.241 . S
C274 O267 1.247 . S
C274 O268 1.261 . S
C275 O270 1.259 . S
C275 O272 1.235 . S
O276 Co266 2.021 . S
O276 C273 1.238 . S
O277 Co271 2.052 . S
O277 C273 1.241 . S
O278 Co266 2.137 . S
O278 C269 1.247 . S
O279 Co266 2.244 . S
O279 C269 1.272 . S
O279 Co271 2.135 . S
Co280 O281 2.216 . S
Co280 O282 2.091 . S
Co280 O284 2.004 . S
Co280 O290 2.021 . S
Co280 O292 2.137 . S
Co280 O293 2.244 . S
O281 Co280 2.216 . S
O281 C288 1.247 . S
O282 Co280 2.091 . S
O282 C288 1.261 . S
C283 O292 1.247 . S
C283 O293 1.272 . S
O284 Co280 2.004 . S
O284 C289 1.259 . S
Co285 O286 2.061 . S
Co285 O291 2.052 . S
Co285 O293 2.135 . S
O286 Co285 2.061 . S
O286 C289 1.235 . S
C287 O290 1.238 . S
C287 O291 1.241 . S
C288 O281 1.247 . S
C288 O282 1.261 . S
C289 O284 1.259 . S
C289 O286 1.235 . S
O290 Co280 2.021 . S
O290 C287 1.238 . S
O291 Co285 2.052 . S
O291 C287 1.241 . S
O292 Co280 2.137 . S
O292 C283 1.247 . S
O293 Co280 2.244 . S
O293 C283 1.272 . S
O293 Co285 2.135 . S
Co294 O295 2.216 . S
Co294 O296 2.091 . S
Co294 O298 2.004 . S
Co294 O304 2.021 . S
Co294 O306 2.137 . S
Co294 O307 2.244 . S
O295 Co294 2.216 . S
O295 C302 1.247 . S
O296 Co294 2.091 . S
O296 C302 1.261 . S
C297 O306 1.247 . S
C297 O307 1.272 . S
O298 Co294 2.004 . S
O298 C303 1.259 . S
Co299 O300 2.061 . S
Co299 O305 2.052 . S
Co299 O307 2.135 . S
O300 Co299 2.061 . S
O300 C303 1.235 . S
C301 O304 1.238 . S
C301 O305 1.241 . S
C302 O295 1.247 . S
C302 O296 1.261 . S
C303 O298 1.259 . S
C303 O300 1.235 . S
O304 Co294 2.021 . S
O304 C301 1.238 . S
O305 Co299 2.052 . S
O305 C301 1.241 . S
O306 Co294 2.137 . S
O306 C297 1.247 . S
O307 Co294 2.244 . S
O307 C297 1.272 . S
O307 Co299 2.135 . S
Co308 O309 2.216 . S
Co308 O310 2.091 . S
Co308 O312 2.004 . S
Co308 O318 2.021 . S
Co308 O320 2.137 . S
Co308 O321 2.244 . S
O309 Co308 2.216 . S
O309 C316 1.247 . S
O310 Co308 2.091 . S
O310 C316 1.261 . S
C311 O320 1.247 . S
C311 O321 1.272 . S
O312 Co308 2.004 . S
O312 C317 1.259 . S
Co313 O314 2.061 . S
Co313 O319 2.052 . S
Co313 O321 2.135 . S
O314 Co313 2.061 . S
O314 C317 1.235 . S
C315 O318 1.238 . S
C315 O319 1.241 . S
C316 O309 1.247 . S
C316 O310 1.261 . S
C317 O312 1.259 . S
C317 O314 1.235 . S
O318 Co308 2.021 . S
O318 C315 1.238 . S
O319 Co313 2.052 . S
O319 C315 1.241 . S
O320 Co308 2.137 . S
O320 C311 1.247 . S
O321 Co308 2.244 . S
O321 C311 1.272 . S
O321 Co313 2.135 . S
Co322 O323 2.216 . S
Co322 O324 2.091 . S
Co322 O326 2.004 . S
Co322 O332 2.021 . S
Co322 O334 2.137 . S
Co322 O335 2.244 . S
O323 Co322 2.216 . S
O323 C330 1.247 . S
O324 Co322 2.091 . S
O324 C330 1.261 . S
C325 O334 1.247 . S
C325 O335 1.272 . S
O326 Co322 2.004 . S
O326 C331 1.259 . S
Co327 O328 2.061 . S
Co327 O333 2.052 . S
Co327 O335 2.135 . S
O328 Co327 2.061 . S
O328 C331 1.235 . S
C329 O332 1.238 . S
C329 O333 1.241 . S
C330 O323 1.247 . S
C330 O324 1.261 . S
C331 O326 1.259 . S
C331 O328 1.235 . S
O332 Co322 2.021 . S
O332 C329 1.238 . S
O333 Co327 2.052 . S
O333 C329 1.241 . S
O334 Co322 2.137 . S
O334 C325 1.247 . S
O335 Co322 2.244 . S
O335 C325 1.272 . S
O335 Co327 2.135 . S
Co336 O337 2.216 . S
Co336 O338 2.091 . S
Co336 O340 2.004 . S
Co336 O346 2.021 . S
Co336 O348 2.137 . S
Co336 O349 2.244 . S
O337 Co336 2.216 . S
O337 C344 1.247 . S
O338 Co336 2.091 . S
O338 C344 1.261 . S
C339 O348 1.247 . S
C339 O349 1.272 . S
O340 Co336 2.004 . S
O340 C345 1.259 . S
Co341 O342 2.061 . S
Co341 O347 2.052 . S
Co341 O349 2.135 . S
O342 Co341 2.061 . S
O342 C345 1.235 . S
C343 O346 1.238 . S
C343 O347 1.241 . S
C344 O337 1.247 . S
C344 O338 1.261 . S
C345 O340 1.259 . S
C345 O342 1.235 . S
O346 Co336 2.021 . S
O346 C343 1.238 . S
O347 Co341 2.052 . S
O347 C343 1.241 . S
O348 Co336 2.137 . S
O348 C339 1.247 . S
O349 Co336 2.244 . S
O349 C339 1.272 . S
O349 Co341 2.135 . S
Co350 O351 2.216 . S
Co350 O352 2.091 . S
Co350 O354 2.004 . S
Co350 O360 2.021 . S
Co350 O362 2.137 . S
Co350 O363 2.244 . S
O351 Co350 2.216 . S
O351 C358 1.247 . S
O352 Co350 2.091 . S
O352 C358 1.261 . S
C353 O362 1.247 . S
C353 O363 1.272 . S
O354 Co350 2.004 . S
O354 C359 1.259 . S
Co355 O356 2.061 . S
Co355 O361 2.052 . S
Co355 O363 2.135 . S
O356 Co355 2.061 . S
O356 C359 1.235 . S
C357 O360 1.238 . S
C357 O361 1.241 . S
C358 O351 1.247 . S
C358 O352 1.261 . S
C359 O354 1.259 . S
C359 O356 1.235 . S
O360 Co350 2.021 . S
O360 C357 1.238 . S
O361 Co355 2.052 . S
O361 C357 1.241 . S
O362 Co350 2.137 . S
O362 C353 1.247 . S
O363 Co350 2.244 . S
O363 C353 1.272 . S
O363 Co355 2.135 . S
Co364 O365 2.216 . S
Co364 O366 2.091 . S
Co364 O368 2.004 . S
Co364 O374 2.021 . S
Co364 O376 2.137 . S
Co364 O377 2.244 . S
O365 Co364 2.216 . S
O365 C372 1.247 . S
O366 Co364 2.091 . S
O366 C372 1.261 . S
C367 O376 1.247 . S
C367 O377 1.272 . S
O368 Co364 2.004 . S
O368 C373 1.259 . S
Co369 O370 2.061 . S
Co369 O375 2.052 . S
Co369 O377 2.135 . S
O370 Co369 2.061 . S
O370 C373 1.235 . S
C371 O374 1.238 . S
C371 O375 1.241 . S
C372 O365 1.247 . S
C372 O366 1.261 . S
C373 O368 1.259 . S
C373 O370 1.235 . S
O374 Co364 2.021 . S
O374 C371 1.238 . S
O375 Co369 2.052 . S
O375 C371 1.241 . S
O376 Co364 2.137 . S
O376 C367 1.247 . S
O377 Co364 2.244 . S
O377 C367 1.272 . S
O377 Co369 2.135 . S
Co378 O379 2.216 . S
Co378 O380 2.091 . S
Co378 O382 2.004 . S
Co378 O388 2.021 . S
Co378 O390 2.137 . S
Co378 O391 2.244 . S
O379 Co378 2.216 . S
O379 C386 1.247 . S
O380 Co378 2.091 . S
O380 C386 1.261 . S
C381 O390 1.247 . S
C381 O391 1.272 . S
O382 Co378 2.004 . S
O382 C387 1.259 . S
Co383 O384 2.061 . S
Co383 O389 2.052 . S
Co383 O391 2.135 . S
O384 Co383 2.061 . S
O384 C387 1.235 . S
C385 O388 1.238 . S
C385 O389 1.241 . S
C386 O379 1.247 . S
C386 O380 1.261 . S
C387 O382 1.259 . S
C387 O384 1.235 . S
O388 Co378 2.021 . S
O388 C385 1.238 . S
O389 Co383 2.052 . S
O389 C385 1.241 . S
O390 Co378 2.137 . S
O390 C381 1.247 . S
O391 Co378 2.244 . S
O391 C381 1.272 . S
O391 Co383 2.135 . S
Co392 O393 2.216 . S
Co392 O394 2.091 . S
Co392 O396 2.004 . S
Co392 O402 2.021 . S
Co392 O404 2.137 . S
Co392 O405 2.244 . S
O393 Co392 2.216 . S
O393 C400 1.247 . S
O394 Co392 2.091 . S
O394 C400 1.261 . S
C395 O404 1.247 . S
C395 O405 1.272 . S
O396 Co392 2.004 . S
O396 C401 1.259 . S
Co397 O398 2.061 . S
Co397 O403 2.052 . S
Co397 O405 2.135 . S
O398 Co397 2.061 . S
O398 C401 1.235 . S
C399 O402 1.238 . S
C399 O403 1.241 . S
C400 O393 1.247 . S
C400 O394 1.261 . S
C401 O396 1.259 . S
C401 O398 1.235 . S
O402 Co392 2.021 . S
O402 C399 1.238 . S
O403 Co397 2.052 . S
O403 C399 1.241 . S
O404 Co392 2.137 . S
O404 C395 1.247 . S
O405 Co392 2.244 . S
O405 C395 1.272 . S
O405 Co397 2.135 . S
Co406 O407 2.216 . S
Co406 O408 2.091 . S
Co406 O410 2.004 . S
Co406 O416 2.021 . S
Co406 O418 2.137 . S
Co406 O419 2.244 . S
O407 Co406 2.216 . S
O407 C414 1.247 . S
O408 Co406 2.091 . S
O408 C414 1.261 . S
C409 O418 1.247 . S
C409 O419 1.272 . S
O410 Co406 2.004 . S
O410 C415 1.259 . S
Co411 O412 2.061 . S
Co411 O417 2.052 . S
Co411 O419 2.135 . S
O412 Co411 2.061 . S
O412 C415 1.235 . S
C413 O416 1.238 . S
C413 O417 1.241 . S
C414 O407 1.247 . S
C414 O408 1.261 . S
C415 O410 1.259 . S
C415 O412 1.235 . S
O416 Co406 2.021 . S
O416 C413 1.238 . S
O417 Co411 2.052 . S
O417 C413 1.241 . S
O418 Co406 2.137 . S
O418 C409 1.247 . S
O419 Co406 2.244 . S
O419 C409 1.272 . S
O419 Co411 2.135 . S
Co420 O421 2.216 . S
Co420 O422 2.091 . S
Co420 O424 2.004 . S
Co420 O430 2.021 . S
Co420 O432 2.137 . S
Co420 O433 2.244 . S
O421 Co420 2.216 . S
O421 C428 1.247 . S
O422 Co420 2.091 . S
O422 C428 1.261 . S
C423 O432 1.247 . S
C423 O433 1.272 . S
O424 Co420 2.004 . S
O424 C429 1.259 . S
Co425 O426 2.061 . S
Co425 O431 2.052 . S
Co425 O433 2.135 . S
O426 Co425 2.061 . S
O426 C429 1.235 . S
C427 O430 1.238 . S
C427 O431 1.241 . S
C428 O421 1.247 . S
C428 O422 1.261 . S
C429 O424 1.259 . S
C429 O426 1.235 . S
O430 Co420 2.021 . S
O430 C427 1.238 . S
O431 Co425 2.052 . S
O431 C427 1.241 . S
O432 Co420 2.137 . S
O432 C423 1.247 . S
O433 Co420 2.244 . S
O433 C423 1.272 . S
O433 Co425 2.135 . S
Co434 O435 2.216 . S
Co434 O436 2.091 . S
Co434 O438 2.004 . S
Co434 O444 2.021 . S
Co434 O446 2.137 . S
Co434 O447 2.244 . S
O435 Co434 2.216 . S
O435 C442 1.247 . S
O436 Co434 2.091 . S
O436 C442 1.261 . S
C437 O446 1.247 . S
C437 O447 1.272 . S
O438 Co434 2.004 . S
O438 C443 1.259 . S
Co439 O440 2.061 . S
Co439 O445 2.052 . S
Co439 O447 2.135 . S
O440 Co439 2.061 . S
O440 C443 1.235 . S
C441 O444 1.238 . S
C441 O445 1.241 . S
C442 O435 1.247 . S
C442 O436 1.261 . S
C443 O438 1.259 . S
C443 O440 1.235 . S
O444 Co434 2.021 . S
O444 C441 1.238 . S
O445 Co439 2.052 . S
O445 C441 1.241 . S
O446 Co434 2.137 . S
O446 C437 1.247 . S
O447 Co434 2.244 . S
O447 C437 1.272 . S
O447 Co439 2.135 . S
Co448 O449 2.216 . S
Co448 O450 2.091 . S
Co448 O452 2.004 . S
Co448 O458 2.021 . S
Co448 O460 2.137 . S
Co448 O461 2.244 . S
O449 Co448 2.216 . S
O449 C456 1.247 . S
O450 Co448 2.091 . S
O450 C456 1.261 . S
C451 O460 1.247 . S
C451 O461 1.272 . S
O452 Co448 2.004 . S
O452 C457 1.259 . S
Co453 O454 2.061 . S
Co453 O459 2.052 . S
Co453 O461 2.135 . S
O454 Co453 2.061 . S
O454 C457 1.235 . S
C455 O458 1.238 . S
C455 O459 1.241 . S
C456 O449 1.247 . S
C456 O450 1.261 . S
C457 O452 1.259 . S
C457 O454 1.235 . S
O458 Co448 2.021 . S
O458 C455 1.238 . S
O459 Co453 2.052 . S
O459 C455 1.241 . S
O460 Co448 2.137 . S
O460 C451 1.247 . S
O461 Co448 2.244 . S
O461 C451 1.272 . S
O461 Co453 2.135 . S
Co462 O463 2.216 . S
Co462 O464 2.091 . S
Co462 O466 2.004 . S
Co462 O472 2.021 . S
Co462 O474 2.137 . S
Co462 O475 2.244 . S
O463 Co462 2.216 . S
O463 C470 1.247 . S
O464 Co462 2.091 . S
O464 C470 1.261 . S
C465 O474 1.247 . S
C465 O475 1.272 . S
O466 Co462 2.004 . S
O466 C471 1.259 . S
Co467 O468 2.061 . S
Co467 O473 2.052 . S
Co467 O475 2.135 . S
O468 Co467 2.061 . S
O468 C471 1.235 . S
C469 O472 1.238 . S
C469 O473 1.241 . S
C470 O463 1.247 . S
C470 O464 1.261 . S
C471 O466 1.259 . S
C471 O468 1.235 . S
O472 Co462 2.021 . S
O472 C469 1.238 . S
O473 Co467 2.052 . S
O473 C469 1.241 . S
O474 Co462 2.137 . S
O474 C465 1.247 . S
O475 Co462 2.244 . S
O475 C465 1.272 . S
O475 Co467 2.135 . S
Co476 O477 2.216 . S
Co476 O478 2.091 . S
Co476 O480 2.004 . S
Co476 O486 2.021 . S
Co476 O488 2.137 . S
Co476 O489 2.244 . S
O477 Co476 2.216 . S
O477 C484 1.247 . S
O478 Co476 2.091 . S
O478 C484 1.261 . S
C479 O488 1.247 . S
C479 O489 1.272 . S
O480 Co476 2.004 . S
O480 C485 1.259 . S
Co481 O482 2.061 . S
Co481 O487 2.052 . S
Co481 O489 2.135 . S
O482 Co481 2.061 . S
O482 C485 1.235 . S
C483 O486 1.238 . S
C483 O487 1.241 . S
C484 O477 1.247 . S
C484 O478 1.261 . S
C485 O480 1.259 . S
C485 O482 1.235 . S
O486 Co476 2.021 . S
O486 C483 1.238 . S
O487 Co481 2.052 . S
O487 C483 1.241 . S
O488 Co476 2.137 . S
O488 C479 1.247 . S
O489 Co476 2.244 . S
O489 C479 1.272 . S
O489 Co481 2.135 . S
Co490 O491 2.216 . S
Co490 O492 2.091 . S
Co490 O494 2.004 . S
Co490 O500 2.021 . S
Co490 O502 2.137 . S
Co490 O503 2.244 . S
O491 Co490 2.216 . S
O491 C498 1.247 . S
O492 Co490 2.091 . S
O492 C498 1.261 . S
C493 O502 1.247 . S
C493 O503 1.272 . S
O494 Co490 2.004 . S
O494 C499 1.259 . S
Co495 O496 2.061 . S
Co495 O501 2.052 . S
Co495 O503 2.135 . S
O496 Co495 2.061 . S
O496 C499 1.235 . S
C497 O500 1.238 . S
C497 O501 1.241 . S
C498 O491 1.247 . S
C498 O492 1.261 . S
C499 O494 1.259 . S
C499 O496 1.235 . S
O500 Co490 2.021 . S
O500 C497 1.238 . S
O501 Co495 2.052 . S
O501 C497 1.241 . S
O502 Co490 2.137 . S
O502 C493 1.247 . S
O503 Co490 2.244 . S
O503 C493 1.272 . S
O503 Co495 2.135 . S
Co504 O505 2.216 . S
Co504 O506 2.091 . S
Co504 O508 2.004 . S
Co504 O514 2.021 . S
Co504 O516 2.137 . S
Co504 O517 2.244 . S
O505 Co504 2.216 . S
O505 C512 1.247 . S
O506 Co504 2.091 . S
O506 C512 1.261 . S
C507 O516 1.247 . S
C507 O517 1.272 . S
O508 Co504 2.004 . S
O508 C513 1.259 . S
Co509 O510 2.061 . S
Co509 O515 2.052 . S
Co509 O517 2.135 . S
O510 Co509 2.061 . S
O510 C513 1.235 . S
C511 O514 1.238 . S
C511 O515 1.241 . S
C512 O505 1.247 . S
C512 O506 1.261 . S
C513 O508 1.259 . S
C513 O510 1.235 . S
O514 Co504 2.021 . S
O514 C511 1.238 . S
O515 Co509 2.052 . S
O515 C511 1.241 . S
O516 Co504 2.137 . S
O516 C507 1.247 . S
O517 Co504 2.244 . S
O517 C507 1.272 . S
O517 Co509 2.135 . S
Co518 O519 2.216 . S
Co518 O520 2.091 . S
Co518 O522 2.004 . S
Co518 O528 2.021 . S
Co518 O530 2.137 . S
Co518 O531 2.244 . S
O519 Co518 2.216 . S
O519 C526 1.247 . S
O520 Co518 2.091 . S
O520 C526 1.261 . S
C521 O530 1.247 . S
C521 O531 1.272 . S
O522 Co518 2.004 . S
O522 C527 1.259 . S
Co523 O524 2.061 . S
Co523 O529 2.052 . S
Co523 O531 2.135 . S
O524 Co523 2.061 . S
O524 C527 1.235 . S
C525 O528 1.238 . S
C525 O529 1.241 . S
C526 O519 1.247 . S
C526 O520 1.261 . S
C527 O522 1.259 . S
C527 O524 1.235 . S
O528 Co518 2.021 . S
O528 C525 1.238 . S
O529 Co523 2.052 . S
O529 C525 1.241 . S
O530 Co518 2.137 . S
O530 C521 1.247 . S
O531 Co518 2.244 . S
O531 C521 1.272 . S
O531 Co523 2.135 . S
Co532 O533 2.216 . S
Co532 O534 2.091 . S
Co532 O536 2.004 . S
Co532 O542 2.021 . S
Co532 O544 2.137 . S
Co532 O545 2.244 . S
O533 Co532 2.216 . S
O533 C540 1.247 . S
O534 Co532 2.091 . S
O534 C540 1.261 . S
C535 O544 1.247 . S
C535 O545 1.272 . S
O536 Co532 2.004 . S
O536 C541 1.259 . S
Co537 O538 2.061 . S
Co537 O543 2.052 . S
Co537 O545 2.135 . S
O538 Co537 2.061 . S
O538 C541 1.235 . S
C539 O542 1.238 . S
C539 O543 1.241 . S
C540 O533 1.247 . S
C540 O534 1.261 . S
C541 O536 1.259 . S
C541 O538 1.235 . S
O542 Co532 2.021 . S
O542 C539 1.238 . S
O543 Co537 2.052 . S
O543 C539 1.241 . S
O544 Co532 2.137 . S
O544 C535 1.247 . S
O545 Co532 2.244 . S
O545 C535 1.272 . S
O545 Co537 2.135 . S
Co546 O547 2.216 . S
Co546 O548 2.091 . S
Co546 O550 2.004 . S
Co546 O556 2.021 . S
Co546 O558 2.137 . S
Co546 O559 2.244 . S
O547 Co546 2.216 . S
O547 C554 1.247 . S
O548 Co546 2.091 . S
O548 C554 1.261 . S
C549 O558 1.247 . S
C549 O559 1.272 . S
O550 Co546 2.004 . S
O550 C555 1.259 . S
Co551 O552 2.061 . S
Co551 O557 2.052 . S
Co551 O559 2.135 . S
O552 Co551 2.061 . S
O552 C555 1.235 . S
C553 O556 1.238 . S
C553 O557 1.241 . S
C554 O547 1.247 . S
C554 O548 1.261 . S
C555 O550 1.259 . S
C555 O552 1.235 . S
O556 Co546 2.021 . S
O556 C553 1.238 . S
O557 Co551 2.052 . S
O557 C553 1.241 . S
O558 Co546 2.137 . S
O558 C549 1.247 . S
O559 Co546 2.244 . S
O559 C549 1.272 . S
O559 Co551 2.135 . S
Co560 O561 2.216 . S
Co560 O562 2.091 . S
Co560 O564 2.004 . S
Co560 O570 2.021 . S
Co560 O572 2.137 . S
Co560 O573 2.244 . S
O561 Co560 2.216 . S
O561 C568 1.247 . S
O562 Co560 2.091 . S
O562 C568 1.261 . S
C563 O572 1.247 . S
C563 O573 1.272 . S
O564 Co560 2.004 . S
O564 C569 1.259 . S
Co565 O566 2.061 . S
Co565 O571 2.052 . S
Co565 O573 2.135 . S
O566 Co565 2.061 . S
O566 C569 1.235 . S
C567 O570 1.238 . S
C567 O571 1.241 . S
C568 O561 1.247 . S
C568 O562 1.261 . S
C569 O564 1.259 . S
C569 O566 1.235 . S
O570 Co560 2.021 . S
O570 C567 1.238 . S
O571 Co565 2.052 . S
O571 C567 1.241 . S
O572 Co560 2.137 . S
O572 C563 1.247 . S
O573 Co560 2.244 . S
O573 C563 1.272 . S
O573 Co565 2.135 . S
Co574 O575 2.216 . S
Co574 O576 2.091 . S
Co574 O578 2.004 . S
Co574 O584 2.021 . S
Co574 O586 2.137 . S
Co574 O587 2.244 . S
O575 Co574 2.216 . S
O575 C582 1.247 . S
O576 Co574 2.091 . S
O576 C582 1.261 . S
C577 O586 1.247 . S
C577 O587 1.272 . S
O578 Co574 2.004 . S
O578 C583 1.259 . S
Co579 O580 2.061 . S
Co579 O585 2.052 . S
Co579 O587 2.135 . S
O580 Co579 2.061 . S
O580 C583 1.235 . S
C581 O584 1.238 . S
C581 O585 1.241 . S
C582 O575 1.247 . S
C582 O576 1.261 . S
C583 O578 1.259 . S
C583 O580 1.235 . S
O584 Co574 2.021 . S
O584 C581 1.238 . S
O585 Co579 2.052 . S
O585 C581 1.241 . S
O586 Co574 2.137 . S
O586 C577 1.247 . S
O587 Co574 2.244 . S
O587 C577 1.272 . S
O587 Co579 2.135 . S
Co588 O589 2.216 . S
Co588 O590 2.091 . S
Co588 O592 2.004 . S
Co588 O598 2.021 . S
Co588 O600 2.137 . S
Co588 O601 2.244 . S
O589 Co588 2.216 . S
O589 C596 1.247 . S
O590 Co588 2.091 . S
O590 C596 1.261 . S
C591 O600 1.247 . S
C591 O601 1.272 . S
O592 Co588 2.004 . S
O592 C597 1.259 . S
Co593 O594 2.061 . S
Co593 O599 2.052 . S
Co593 O601 2.135 . S
O594 Co593 2.061 . S
O594 C597 1.235 . S
C595 O598 1.238 . S
C595 O599 1.241 . S
C596 O589 1.247 . S
C596 O590 1.261 . S
C597 O592 1.259 . S
C597 O594 1.235 . S
O598 Co588 2.021 . S
O598 C595 1.238 . S
O599 Co593 2.052 . S
O599 C595 1.241 . S
O600 Co588 2.137 . S
O600 C591 1.247 . S
O601 Co588 2.244 . S
O601 C591 1.272 . S
O601 Co593 2.135 . S
Co602 O603 2.216 . S
Co602 O604 2.091 . S
Co602 O606 2.004 . S
Co602 O612 2.021 . S
Co602 O614 2.137 . S
Co602 O615 2.244 . S
O603 Co602 2.216 . S
O603 C610 1.247 . S
O604 Co602 2.091 . S
O604 C610 1.261 . S
C605 O614 1.247 . S
C605 O615 1.272 . S
O606 Co602 2.004 . S
O606 C611 1.259 . S
Co607 O608 2.061 . S
Co607 O613 2.052 . S
Co607 O615 2.135 . S
O608 Co607 2.061 . S
O608 C611 1.235 . S
C609 O612 1.238 . S
C609 O613 1.241 . S
C610 O603 1.247 . S
C610 O604 1.261 . S
C611 O606 1.259 . S
C611 O608 1.235 . S
O612 Co602 2.021 . S
O612 C609 1.238 . S
O613 Co607 2.052 . S
O613 C609 1.241 . S
O614 Co602 2.137 . S
O614 C605 1.247 . S
O615 Co602 2.244 . S
O615 C605 1.272 . S
O615 Co607 2.135 . S
Co616 O617 2.216 . S
Co616 O618 2.091 . S
Co616 O620 2.004 . S
Co616 O626 2.021 . S
Co616 O628 2.137 . S
Co616 O629 2.244 . S
O617 Co616 2.216 . S
O617 C624 1.247 . S
O618 Co616 2.091 . S
O618 C624 1.261 . S
C619 O628 1.247 . S
C619 O629 1.272 . S
O620 Co616 2.004 . S
O620 C625 1.259 . S
Co621 O622 2.061 . S
Co621 O627 2.052 . S
Co621 O629 2.135 . S
O622 Co621 2.061 . S
O622 C625 1.235 . S
C623 O626 1.238 . S
C623 O627 1.241 . S
C624 O617 1.247 . S
C624 O618 1.261 . S
C625 O620 1.259 . S
C625 O622 1.235 . S
O626 Co616 2.021 . S
O626 C623 1.238 . S
O627 Co621 2.052 . S
O627 C623 1.241 . S
O628 Co616 2.137 . S
O628 C619 1.247 . S
O629 Co616 2.244 . S
O629 C619 1.272 . S
O629 Co621 2.135 . S
Co630 O631 2.216 . S
Co630 O632 2.091 . S
Co630 O634 2.004 . S
Co630 O640 2.021 . S
Co630 O642 2.137 . S
Co630 O643 2.244 . S
O631 Co630 2.216 . S
O631 C638 1.247 . S
O632 Co630 2.091 . S
O632 C638 1.261 . S
C633 O642 1.247 . S
C633 O643 1.272 . S
O634 Co630 2.004 . S
O634 C639 1.259 . S
Co635 O636 2.061 . S
Co635 O641 2.052 . S
Co635 O643 2.135 . S
O636 Co635 2.061 . S
O636 C639 1.235 . S
C637 O640 1.238 . S
C637 O641 1.241 . S
C638 O631 1.247 . S
C638 O632 1.261 . S
C639 O634 1.259 . S
C639 O636 1.235 . S
O640 Co630 2.021 . S
O640 C637 1.238 . S
O641 Co635 2.052 . S
O641 C637 1.241 . S
O642 Co630 2.137 . S
O642 C633 1.247 . S
O643 Co630 2.244 . S
O643 C633 1.272 . S
O643 Co635 2.135 . S
Co644 O645 2.216 . S
Co644 O646 2.091 . S
Co644 O648 2.004 . S
Co644 O654 2.021 . S
Co644 O656 2.137 . S
Co644 O657 2.244 . S
O645 Co644 2.216 . S
O645 C652 1.247 . S
O646 Co644 2.091 . S
O646 C652 1.261 . S
C647 O656 1.247 . S
C647 O657 1.272 . S
O648 Co644 2.004 . S
O648 C653 1.259 . S
Co649 O650 2.061 . S
Co649 O655 2.052 . S
Co649 O657 2.135 . S
O650 Co649 2.061 . S
O650 C653 1.235 . S
C651 O654 1.238 . S
C651 O655 1.241 . S
C652 O645 1.247 . S
C652 O646 1.261 . S
C653 O648 1.259 . S
C653 O650 1.235 . S
O654 Co644 2.021 . S
O654 C651 1.238 . S
O655 Co649 2.052 . S
O655 C651 1.241 . S
O656 Co644 2.137 . S
O656 C647 1.247 . S
O657 Co644 2.244 . S
O657 C647 1.272 . S
O657 Co649 2.135 . S
Co658 O659 2.216 . S
Co658 O660 2.091 . S
Co658 O662 2.004 . S
Co658 O668 2.021 . S
Co658 O670 2.137 . S
Co658 O671 2.244 . S
O659 Co658 2.216 . S
O659 C666 1.247 . S
O660 Co658 2.091 . S
O660 C666 1.261 . S
C661 O670 1.247 . S
C661 O671 1.272 . S
O662 Co658 2.004 . S
O662 C667 1.259 . S
Co663 O664 2.061 . S
Co663 O669 2.052 . S
Co663 O671 2.135 . S
O664 Co663 2.061 . S
O664 C667 1.235 . S
C665 O668 1.238 . S
C665 O669 1.241 . S
C666 O659 1.247 . S
C666 O660 1.261 . S
C667 O662 1.259 . S
C667 O664 1.235 . S
O668 Co658 2.021 . S
O668 C665 1.238 . S
O669 Co663 2.052 . S
O669 C665 1.241 . S
O670 Co658 2.137 . S
O670 C661 1.247 . S
O671 Co658 2.244 . S
O671 C661 1.272 . S
O671 Co663 2.135 . S
H672 C680 0.929 . S
H673 C682 0.930 . S
H674 C684 0.930 . S
H675 C687 0.929 . S
H676 C690 0.930 . S
H677 C692 0.960 . S
H678 C692 0.960 . S
H679 C692 0.960 . S
C680 H672 0.929 . S
C680 C681 1.377 . S
C680 C682 1.384 . S
C681 C680 1.377 . S
C681 C687 1.390 . S
C682 H673 0.930 . S
C682 C680 1.384 . S
C682 C683 1.372 . S
C683 C682 1.372 . S
C683 C684 1.400 . S
C683 C688 1.490 . S
C684 H674 0.930 . S
C684 C683 1.400 . S
C684 C687 1.386 . S
H685 C701 0.930 . S
H686 C702 0.931 . S
C687 H675 0.929 . S
C687 C681 1.390 . S
C687 C684 1.386 . S
C688 C683 1.490 . S
C688 C690 1.395 . S
C688 C691 1.403 . S
H689 C695 0.930 . S
C690 H676 0.930 . S
C690 C688 1.395 . S
C690 C693 1.403 1_655 S
C691 C688 1.403 . S
C691 C692 1.524 . S
C691 C695 1.400 1_655 S
C692 H677 0.960 . S
C692 H678 0.960 . S
C692 H679 0.960 . S
C692 C691 1.524 . S
C693 C690 1.403 1_455 S
C693 C694 1.392 . S
C693 C697 1.495 . S
C694 C693 1.392 . S
C694 C695 1.385 . S
C694 C696 1.478 . S
C695 H689 0.930 . S
C695 C691 1.400 1_455 S
C695 C694 1.385 . S
C696 C694 1.478 . S
C696 C698 1.381 . S
C696 C702 1.383 . S
C697 C693 1.495 . S
C697 H703 0.959 . S
C697 H704 0.961 . S
C697 H705 0.960 . S
C698 C696 1.381 . S
C698 C699 1.394 . S
C698 H706 0.930 . S
C699 C698 1.394 . S
C699 C700 1.383 . S
C699 H707 0.929 . S
C700 C699 1.383 . S
C700 C701 1.377 . S
C701 H685 0.930 . S
C701 C700 1.377 . S
C701 C702 1.379 . S
C702 H686 0.931 . S
C702 C696 1.383 . S
C702 C701 1.379 . S
H703 C697 0.959 . S
H704 C697 0.961 . S
H705 C697 0.960 . S
H706 C698 0.930 . S
H707 C699 0.929 . S
H708 C716 0.929 . S
H709 C718 0.930 . S
H710 C720 0.930 . S
H711 C723 0.929 . S
H712 C726 0.930 . S
H713 C728 0.960 . S
H714 C728 0.960 . S
H715 C728 0.960 . S
C716 H708 0.929 . S
C716 C717 1.377 . S
C716 C718 1.384 . S
C717 C716 1.377 . S
C717 C723 1.390 . S
C718 H709 0.930 . S
C718 C716 1.384 . S
C718 C719 1.372 . S
C719 C718 1.372 . S
C719 C720 1.400 . S
C719 C724 1.490 . S
C720 H710 0.930 . S
C720 C719 1.400 . S
C720 C723 1.386 . S
H721 C737 0.930 . S
H722 C738 0.931 . S
C723 H711 0.929 . S
C723 C717 1.390 . S
C723 C720 1.386 . S
C724 C719 1.490 . S
C724 C726 1.395 . S
C724 C727 1.403 . S
H725 C731 0.930 . S
C726 H712 0.930 . S
C726 C724 1.395 . S
C726 C729 1.403 . S
C727 C724 1.403 . S
C727 C728 1.524 . S
C727 C731 1.400 . S
C728 H713 0.960 . S
C728 H714 0.960 . S
C728 H715 0.960 . S
C728 C727 1.524 . S
C729 C726 1.403 . S
C729 C730 1.392 . S
C729 C733 1.495 . S
C730 C729 1.392 . S
C730 C731 1.385 . S
C730 C732 1.478 . S
C731 H725 0.930 . S
C731 C727 1.400 . S
C731 C730 1.385 . S
C732 C730 1.478 . S
C732 C734 1.381 . S
C732 C738 1.383 . S
C733 C729 1.495 . S
C733 H739 0.959 . S
C733 H740 0.961 . S
C733 H741 0.960 . S
C734 C732 1.381 . S
C734 C735 1.394 . S
C734 H742 0.930 . S
C735 C734 1.394 . S
C735 C736 1.383 . S
C735 H743 0.929 . S
C736 C735 1.383 . S
C736 C737 1.377 . S
C737 H721 0.930 . S
C737 C736 1.377 . S
C737 C738 1.379 . S
C738 H722 0.931 . S
C738 C732 1.383 . S
C738 C737 1.379 . S
H739 C733 0.959 . S
H740 C733 0.961 . S
H741 C733 0.960 . S
H742 C734 0.930 . S
H743 C735 0.929 . S
H744 C752 0.929 . S
H745 C754 0.930 . S
H746 C756 0.930 . S
H747 C759 0.929 . S
H748 C762 0.930 . S
H749 C764 0.960 . S
H750 C764 0.960 . S
H751 C764 0.960 . S
C752 H744 0.929 . S
C752 C753 1.377 . S
C752 C754 1.384 . S
C753 C752 1.377 . S
C753 C759 1.390 . S
C754 H745 0.930 . S
C754 C752 1.384 . S
C754 C755 1.372 . S
C755 C754 1.372 . S
C755 C756 1.400 . S
C755 C760 1.490 . S
C756 H746 0.930 . S
C756 C755 1.400 . S
C756 C759 1.386 . S
H757 C773 0.930 . S
H758 C774 0.931 . S
C759 H747 0.929 . S
C759 C753 1.390 . S
C759 C756 1.386 . S
C760 C755 1.490 . S
C760 C762 1.395 . S
C760 C763 1.403 . S
H761 C767 0.930 . S
C762 H748 0.930 . S
C762 C760 1.395 . S
C762 C765 1.403 1_455 S
C763 C760 1.403 . S
C763 C764 1.524 . S
C763 C767 1.400 1_455 S
C764 H749 0.960 . S
C764 H750 0.960 . S
C764 H751 0.960 . S
C764 C763 1.524 . S
C765 C762 1.403 1_655 S
C765 C766 1.392 . S
C765 C769 1.495 . S
C766 C765 1.392 . S
C766 C767 1.385 . S
C766 C768 1.478 . S
C767 H761 0.930 . S
C767 C763 1.400 1_655 S
C767 C766 1.385 . S
C768 C766 1.478 . S
C768 C770 1.381 . S
C768 C774 1.383 . S
C769 C765 1.495 . S
C769 H775 0.959 . S
C769 H776 0.961 . S
C769 H777 0.960 . S
C770 C768 1.381 . S
C770 C771 1.394 . S
C770 H778 0.930 . S
C771 C770 1.394 . S
C771 C772 1.383 . S
C771 H779 0.929 . S
C772 C771 1.383 . S
C772 C773 1.377 . S
C773 H757 0.930 . S
C773 C772 1.377 . S
C773 C774 1.379 . S
C774 H758 0.931 . S
C774 C768 1.383 . S
C774 C773 1.379 . S
H775 C769 0.959 . S
H776 C769 0.961 . S
H777 C769 0.960 . S
H778 C770 0.930 . S
H779 C771 0.929 . S
H780 C788 0.929 . S
H781 C790 0.930 . S
H782 C792 0.930 . S
H783 C795 0.929 . S
H784 C798 0.930 . S
H785 C800 0.960 . S
H786 C800 0.960 . S
H787 C800 0.960 . S
C788 H780 0.929 . S
C788 C789 1.377 . S
C788 C790 1.384 . S
C789 C788 1.377 . S
C789 C795 1.390 . S
C790 H781 0.930 . S
C790 C788 1.384 . S
C790 C791 1.372 . S
C791 C790 1.372 . S
C791 C792 1.400 . S
C791 C796 1.490 . S
C792 H782 0.930 . S
C792 C791 1.400 . S
C792 C795 1.386 . S
H793 C809 0.930 . S
H794 C810 0.931 . S
C795 H783 0.929 . S
C795 C789 1.390 . S
C795 C792 1.386 . S
C796 C791 1.490 . S
C796 C798 1.395 . S
C796 C799 1.403 . S
H797 C803 0.930 . S
C798 H784 0.930 . S
C798 C796 1.395 . S
C798 C801 1.403 . S
C799 C796 1.403 . S
C799 C800 1.524 . S
C799 C803 1.400 . S
C800 H785 0.960 . S
C800 H786 0.960 . S
C800 H787 0.960 . S
C800 C799 1.524 . S
C801 C798 1.403 . S
C801 C802 1.392 . S
C801 C805 1.495 . S
C802 C801 1.392 . S
C802 C803 1.385 . S
C802 C804 1.478 . S
C803 H797 0.930 . S
C803 C799 1.400 . S
C803 C802 1.385 . S
C804 C802 1.478 . S
C804 C806 1.381 . S
C804 C810 1.383 . S
C805 C801 1.495 . S
C805 H811 0.959 . S
C805 H812 0.961 . S
C805 H813 0.960 . S
C806 C804 1.381 . S
C806 C807 1.394 . S
C806 H814 0.930 . S
C807 C806 1.394 . S
C807 C808 1.383 . S
C807 H815 0.929 . S
C808 C807 1.383 . S
C808 C809 1.377 . S
C809 H793 0.930 . S
C809 C808 1.377 . S
C809 C810 1.379 . S
C810 H794 0.931 . S
C810 C804 1.383 . S
C810 C809 1.379 . S
H811 C805 0.959 . S
H812 C805 0.961 . S
H813 C805 0.960 . S
H814 C806 0.930 . S
H815 C807 0.929 . S
H816 C824 0.929 . S
H817 C826 0.930 . S
H818 C828 0.930 . S
H819 C831 0.929 . S
H820 C834 0.930 . S
H821 C836 0.960 . S
H822 C836 0.960 . S
H823 C836 0.960 . S
C824 H816 0.929 . S
C824 C825 1.377 . S
C824 C826 1.384 . S
C825 C824 1.377 . S
C825 C831 1.390 . S
C826 H817 0.930 . S
C826 C824 1.384 . S
C826 C827 1.372 . S
C827 C826 1.372 . S
C827 C828 1.400 . S
C827 C832 1.490 . S
C828 H818 0.930 . S
C828 C827 1.400 . S
C828 C831 1.386 . S
H829 C845 0.930 . S
H830 C846 0.931 . S
C831 H819 0.929 . S
C831 C825 1.390 . S
C831 C828 1.386 . S
C832 C827 1.490 . S
C832 C834 1.395 . S
C832 C835 1.403 . S
H833 C839 0.930 . S
C834 H820 0.930 . S
C834 C832 1.395 . S
C834 C837 1.403 1_655 S
C835 C832 1.403 . S
C835 C836 1.524 . S
C835 C839 1.400 1_655 S
C836 H821 0.960 . S
C836 H822 0.960 . S
C836 H823 0.960 . S
C836 C835 1.524 . S
C837 C834 1.403 1_455 S
C837 C838 1.392 . S
C837 C841 1.495 . S
C838 C837 1.392 . S
C838 C839 1.385 . S
C838 C840 1.478 . S
C839 H833 0.930 . S
C839 C835 1.400 1_455 S
C839 C838 1.385 . S
C840 C838 1.478 . S
C840 C842 1.381 . S
C840 C846 1.383 . S
C841 C837 1.495 . S
C841 H847 0.959 . S
C841 H848 0.961 . S
C841 H849 0.960 . S
C842 C840 1.381 . S
C842 C843 1.394 . S
C842 H850 0.930 . S
C843 C842 1.394 . S
C843 C844 1.383 . S
C843 H851 0.929 . S
C844 C843 1.383 . S
C844 C845 1.377 . S
C845 H829 0.930 . S
C845 C844 1.377 . S
C845 C846 1.379 . S
C846 H830 0.931 . S
C846 C840 1.383 . S
C846 C845 1.379 . S
H847 C841 0.959 . S
H848 C841 0.961 . S
H849 C841 0.960 . S
H850 C842 0.930 . S
H851 C843 0.929 . S
H852 C860 0.929 . S
H853 C862 0.930 . S
H854 C864 0.930 . S
H855 C867 0.929 . S
H856 C870 0.930 . S
H857 C872 0.960 . S
H858 C872 0.960 . S
H859 C872 0.960 . S
C860 H852 0.929 . S
C860 C861 1.377 . S
C860 C862 1.384 . S
C861 C860 1.377 . S
C861 C867 1.390 . S
C862 H853 0.930 . S
C862 C860 1.384 . S
C862 C863 1.372 . S
C863 C862 1.372 . S
C863 C864 1.400 . S
C863 C868 1.490 . S
C864 H854 0.930 . S
C864 C863 1.400 . S
C864 C867 1.386 . S
H865 C881 0.930 . S
H866 C882 0.931 . S
C867 H855 0.929 . S
C867 C861 1.390 . S
C867 C864 1.386 . S
C868 C863 1.490 . S
C868 C870 1.395 . S
C868 C871 1.403 . S
H869 C875 0.930 . S
C870 H856 0.930 . S
C870 C868 1.395 . S
C870 C873 1.403 . S
C871 C868 1.403 . S
C871 C872 1.524 . S
C871 C875 1.400 . S
C872 H857 0.960 . S
C872 H858 0.960 . S
C872 H859 0.960 . S
C872 C871 1.524 . S
C873 C870 1.403 . S
C873 C874 1.392 . S
C873 C877 1.495 . S
C874 C873 1.392 . S
C874 C875 1.385 . S
C874 C876 1.478 . S
C875 H869 0.930 . S
C875 C871 1.400 . S
C875 C874 1.385 . S
C876 C874 1.478 . S
C876 C878 1.381 . S
C876 C882 1.383 . S
C877 C873 1.495 . S
C877 H883 0.959 . S
C877 H884 0.961 . S
C877 H885 0.960 . S
C878 C876 1.381 . S
C878 C879 1.394 . S
C878 H886 0.930 . S
C879 C878 1.394 . S
C879 C880 1.383 . S
C879 H887 0.929 . S
C880 C879 1.383 . S
C880 C881 1.377 . S
C881 H865 0.930 . S
C881 C880 1.377 . S
C881 C882 1.379 . S
C882 H866 0.931 . S
C882 C876 1.383 . S
C882 C881 1.379 . S
H883 C877 0.959 . S
H884 C877 0.961 . S
H885 C877 0.960 . S
H886 C878 0.930 . S
H887 C879 0.929 . S
H888 C896 0.929 . S
H889 C898 0.930 . S
H890 C900 0.930 . S
H891 C903 0.929 . S
H892 C906 0.930 . S
H893 C908 0.960 . S
H894 C908 0.960 . S
H895 C908 0.960 . S
C896 H888 0.929 . S
C896 C897 1.377 . S
C896 C898 1.384 . S
C897 C896 1.377 . S
C897 C903 1.390 . S
C898 H889 0.930 . S
C898 C896 1.384 . S
C898 C899 1.372 . S
C899 C898 1.372 . S
C899 C900 1.400 . S
C899 C904 1.490 . S
C900 H890 0.930 . S
C900 C899 1.400 . S
C900 C903 1.386 . S
H901 C917 0.930 . S
H902 C918 0.931 . S
C903 H891 0.929 . S
C903 C897 1.390 . S
C903 C900 1.386 . S
C904 C899 1.490 . S
C904 C906 1.395 . S
C904 C907 1.403 . S
H905 C911 0.930 . S
C906 H892 0.930 . S
C906 C904 1.395 . S
C906 C909 1.403 1_455 S
C907 C904 1.403 . S
C907 C908 1.524 . S
C907 C911 1.400 1_455 S
C908 H893 0.960 . S
C908 H894 0.960 . S
C908 H895 0.960 . S
C908 C907 1.524 . S
C909 C906 1.403 1_655 S
C909 C910 1.392 . S
C909 C913 1.495 . S
C910 C909 1.392 . S
C910 C911 1.385 . S
C910 C912 1.478 . S
C911 H905 0.930 . S
C911 C907 1.400 1_655 S
C911 C910 1.385 . S
C912 C910 1.478 . S
C912 C914 1.381 . S
C912 C918 1.383 . S
C913 C909 1.495 . S
C913 H919 0.959 . S
C913 H920 0.961 . S
C913 H921 0.960 . S
C914 C912 1.381 . S
C914 C915 1.394 . S
C914 H922 0.930 . S
C915 C914 1.394 . S
C915 C916 1.383 . S
C915 H923 0.929 . S
C916 C915 1.383 . S
C916 C917 1.377 . S
C917 H901 0.930 . S
C917 C916 1.377 . S
C917 C918 1.379 . S
C918 H902 0.931 . S
C918 C912 1.383 . S
C918 C917 1.379 . S
H919 C913 0.959 . S
H920 C913 0.961 . S
H921 C913 0.960 . S
H922 C914 0.930 . S
H923 C915 0.929 . S
H924 C932 0.929 . S
H925 C934 0.930 . S
H926 C936 0.930 . S
H927 C939 0.929 . S
H928 C942 0.930 . S
H929 C944 0.960 . S
H930 C944 0.960 . S
H931 C944 0.960 . S
C932 H924 0.929 . S
C932 C933 1.377 . S
C932 C934 1.384 . S
C933 C932 1.377 . S
C933 C939 1.390 . S
C934 H925 0.930 . S
C934 C932 1.384 . S
C934 C935 1.372 . S
C935 C934 1.372 . S
C935 C936 1.400 . S
C935 C940 1.490 . S
C936 H926 0.930 . S
C936 C935 1.400 . S
C936 C939 1.386 . S
H937 C953 0.930 . S
H938 C954 0.931 . S
C939 H927 0.929 . S
C939 C933 1.390 . S
C939 C936 1.386 . S
C940 C935 1.490 . S
C940 C942 1.395 . S
C940 C943 1.403 . S
H941 C947 0.930 . S
C942 H928 0.930 . S
C942 C940 1.395 . S
C942 C945 1.403 . S
C943 C940 1.403 . S
C943 C944 1.524 . S
C943 C947 1.400 . S
C944 H929 0.960 . S
C944 H930 0.960 . S
C944 H931 0.960 . S
C944 C943 1.524 . S
C945 C942 1.403 . S
C945 C946 1.392 . S
C945 C949 1.495 . S
C946 C945 1.392 . S
C946 C947 1.385 . S
C946 C948 1.478 . S
C947 H941 0.930 . S
C947 C943 1.400 . S
C947 C946 1.385 . S
C948 C946 1.478 . S
C948 C950 1.381 . S
C948 C954 1.383 . S
C949 C945 1.495 . S
C949 H955 0.959 . S
C949 H956 0.961 . S
C949 H957 0.960 . S
C950 C948 1.381 . S
C950 C951 1.394 . S
C950 H958 0.930 . S
C951 C950 1.394 . S
C951 C952 1.383 . S
C951 H959 0.929 . S
C952 C951 1.383 . S
C952 C953 1.377 . S
C953 H937 0.930 . S
C953 C952 1.377 . S
C953 C954 1.379 . S
C954 H938 0.931 . S
C954 C948 1.383 . S
C954 C953 1.379 . S
H955 C949 0.959 . S
H956 C949 0.961 . S
H957 C949 0.960 . S
H958 C950 0.930 . S
H959 C951 0.929 . S
H960 C968 0.929 . S
H961 C970 0.930 . S
H962 C972 0.930 . S
H963 C975 0.929 . S
H964 C978 0.930 . S
H965 C980 0.960 . S
H966 C980 0.960 . S
H967 C980 0.960 . S
C968 H960 0.929 . S
C968 C969 1.377 . S
C968 C970 1.384 . S
C969 C968 1.377 . S
C969 C975 1.390 . S
C970 H961 0.930 . S
C970 C968 1.384 . S
C970 C971 1.372 . S
C971 C970 1.372 . S
C971 C972 1.400 . S
C971 C976 1.490 . S
C972 H962 0.930 . S
C972 C971 1.400 . S
C972 C975 1.386 . S
H973 C989 0.930 . S
H974 C990 0.931 . S
C975 H963 0.929 . S
C975 C969 1.390 . S
C975 C972 1.386 . S
C976 C971 1.490 . S
C976 C978 1.395 . S
C976 C979 1.403 . S
H977 C983 0.930 . S
C978 H964 0.930 . S
C978 C976 1.395 . S
C978 C981 1.403 1_565 S
C979 C976 1.403 . S
C979 C980 1.524 . S
C979 C983 1.400 1_565 S
C980 H965 0.960 . S
C980 H966 0.960 . S
C980 H967 0.960 . S
C980 C979 1.524 . S
C981 C978 1.403 1_545 S
C981 C982 1.392 . S
C981 C985 1.495 . S
C982 C981 1.392 . S
C982 C983 1.385 . S
C982 C984 1.478 . S
C983 H977 0.930 . S
C983 C979 1.400 1_545 S
C983 C982 1.385 . S
C984 C982 1.478 . S
C984 C986 1.381 . S
C984 C990 1.383 . S
C985 C981 1.495 . S
C985 H991 0.959 . S
C985 H992 0.961 . S
C985 H993 0.960 . S
C986 C984 1.381 . S
C986 C987 1.394 . S
C986 H994 0.930 . S
C987 C986 1.394 . S
C987 C988 1.383 . S
C987 H995 0.929 . S
C988 C987 1.383 . S
C988 C989 1.377 . S
C989 H973 0.930 . S
C989 C988 1.377 . S
C989 C990 1.379 . S
C990 H974 0.931 . S
C990 C984 1.383 . S
C990 C989 1.379 . S
H991 C985 0.959 . S
H992 C985 0.961 . S
H993 C985 0.960 . S
H994 C986 0.930 . S
H995 C987 0.929 . S
H996 C1004 0.929 . S
H997 C1006 0.930 . S
H998 C1008 0.930 . S
H999 C1011 0.929 . S
H1000 C1014 0.930 . S
H1001 C1016 0.960 . S
H1002 C1016 0.960 . S
H1003 C1016 0.960 . S
C1004 H996 0.929 . S
C1004 C1005 1.377 . S
C1004 C1006 1.384 . S
C1005 C1004 1.377 . S
C1005 C1011 1.390 . S
C1006 H997 0.930 . S
C1006 C1004 1.384 . S
C1006 C1007 1.372 . S
C1007 C1006 1.372 . S
C1007 C1008 1.400 . S
C1007 C1012 1.490 . S
C1008 H998 0.930 . S
C1008 C1007 1.400 . S
C1008 C1011 1.386 . S
H1009 C1025 0.930 . S
H1010 C1026 0.931 . S
C1011 H999 0.929 . S
C1011 C1005 1.390 . S
C1011 C1008 1.386 . S
C1012 C1007 1.490 . S
C1012 C1014 1.395 . S
C1012 C1015 1.403 . S
H1013 C1019 0.930 . S
C1014 H1000 0.930 . S
C1014 C1012 1.395 . S
C1014 C1017 1.403 . S
C1015 C1012 1.403 . S
C1015 C1016 1.524 . S
C1015 C1019 1.400 . S
C1016 H1001 0.960 . S
C1016 H1002 0.960 . S
C1016 H1003 0.960 . S
C1016 C1015 1.524 . S
C1017 C1014 1.403 . S
C1017 C1018 1.392 . S
C1017 C1021 1.495 . S
C1018 C1017 1.392 . S
C1018 C1019 1.385 . S
C1018 C1020 1.478 . S
C1019 H1013 0.930 . S
C1019 C1015 1.400 . S
C1019 C1018 1.385 . S
C1020 C1018 1.478 . S
C1020 C1022 1.381 . S
C1020 C1026 1.383 . S
C1021 C1017 1.495 . S
C1021 H1027 0.959 . S
C1021 H1028 0.961 . S
C1021 H1029 0.960 . S
C1022 C1020 1.381 . S
C1022 C1023 1.394 . S
C1022 H1030 0.930 . S
C1023 C1022 1.394 . S
C1023 C1024 1.383 . S
C1023 H1031 0.929 . S
C1024 C1023 1.383 . S
C1024 C1025 1.377 . S
C1025 H1009 0.930 . S
C1025 C1024 1.377 . S
C1025 C1026 1.379 . S
C1026 H1010 0.931 . S
C1026 C1020 1.383 . S
C1026 C1025 1.379 . S
H1027 C1021 0.959 . S
H1028 C1021 0.961 . S
H1029 C1021 0.960 . S
H1030 C1022 0.930 . S
H1031 C1023 0.929 . S
H1032 C1040 0.929 . S
H1033 C1042 0.930 . S
H1034 C1044 0.930 . S
H1035 C1047 0.929 . S
H1036 C1050 0.930 . S
H1037 C1052 0.960 . S
H1038 C1052 0.960 . S
H1039 C1052 0.960 . S
C1040 H1032 0.929 . S
C1040 C1041 1.377 . S
C1040 C1042 1.384 . S
C1041 C1040 1.377 . S
C1041 C1047 1.390 . S
C1042 H1033 0.930 . S
C1042 C1040 1.384 . S
C1042 C1043 1.372 . S
C1043 C1042 1.372 . S
C1043 C1044 1.400 . S
C1043 C1048 1.490 . S
C1044 H1034 0.930 . S
C1044 C1043 1.400 . S
C1044 C1047 1.386 . S
H1045 C1061 0.930 . S
H1046 C1062 0.931 . S
C1047 H1035 0.929 . S
C1047 C1041 1.390 . S
C1047 C1044 1.386 . S
C1048 C1043 1.490 . S
C1048 C1050 1.395 . S
C1048 C1051 1.403 . S
H1049 C1055 0.930 . S
C1050 H1036 0.930 . S
C1050 C1048 1.395 . S
C1050 C1053 1.403 1_545 S
C1051 C1048 1.403 . S
C1051 C1052 1.524 . S
C1051 C1055 1.400 1_545 S
C1052 H1037 0.960 . S
C1052 H1038 0.960 . S
C1052 H1039 0.960 . S
C1052 C1051 1.524 . S
C1053 C1050 1.403 1_565 S
C1053 C1054 1.392 . S
C1053 C1057 1.495 . S
C1054 C1053 1.392 . S
C1054 C1055 1.385 . S
C1054 C1056 1.478 . S
C1055 H1049 0.930 . S
C1055 C1051 1.400 1_565 S
C1055 C1054 1.385 . S
C1056 C1054 1.478 . S
C1056 C1058 1.381 . S
C1056 C1062 1.383 . S
C1057 C1053 1.495 . S
C1057 H1063 0.959 . S
C1057 H1064 0.961 . S
C1057 H1065 0.960 . S
C1058 C1056 1.381 . S
C1058 C1059 1.394 . S
C1058 H1066 0.930 . S
C1059 C1058 1.394 . S
C1059 C1060 1.383 . S
C1059 H1067 0.929 . S
C1060 C1059 1.383 . S
C1060 C1061 1.377 . S
C1061 H1045 0.930 . S
C1061 C1060 1.377 . S
C1061 C1062 1.379 . S
C1062 H1046 0.931 . S
C1062 C1056 1.383 . S
C1062 C1061 1.379 . S
H1063 C1057 0.959 . S
H1064 C1057 0.961 . S
H1065 C1057 0.960 . S
H1066 C1058 0.930 . S
H1067 C1059 0.929 . S
H1068 C1076 0.929 . S
H1069 C1078 0.930 . S
H1070 C1080 0.930 . S
H1071 C1083 0.929 . S
H1072 C1086 0.930 . S
H1073 C1088 0.960 . S
H1074 C1088 0.960 . S
H1075 C1088 0.960 . S
C1076 H1068 0.929 . S
C1076 C1077 1.377 . S
C1076 C1078 1.384 . S
C1077 C1076 1.377 . S
C1077 C1083 1.390 . S
C1078 H1069 0.930 . S
C1078 C1076 1.384 . S
C1078 C1079 1.372 . S
C1079 C1078 1.372 . S
C1079 C1080 1.400 . S
C1079 C1084 1.490 . S
C1080 H1070 0.930 . S
C1080 C1079 1.400 . S
C1080 C1083 1.386 . S
H1081 C1097 0.930 . S
H1082 C1098 0.931 . S
C1083 H1071 0.929 . S
C1083 C1077 1.390 . S
C1083 C1080 1.386 . S
C1084 C1079 1.490 . S
C1084 C1086 1.395 . S
C1084 C1087 1.403 . S
H1085 C1091 0.930 . S
C1086 H1072 0.930 . S
C1086 C1084 1.395 . S
C1086 C1089 1.403 . S
C1087 C1084 1.403 . S
C1087 C1088 1.524 . S
C1087 C1091 1.400 . S
C1088 H1073 0.960 . S
C1088 H1074 0.960 . S
C1088 H1075 0.960 . S
C1088 C1087 1.524 . S
C1089 C1086 1.403 . S
C1089 C1090 1.392 . S
C1089 C1093 1.495 . S
C1090 C1089 1.392 . S
C1090 C1091 1.385 . S
C1090 C1092 1.478 . S
C1091 H1085 0.930 . S
C1091 C1087 1.400 . S
C1091 C1090 1.385 . S
C1092 C1090 1.478 . S
C1092 C1094 1.381 . S
C1092 C1098 1.383 . S
C1093 C1089 1.495 . S
C1093 H1099 0.959 . S
C1093 H1100 0.961 . S
C1093 H1101 0.960 . S
C1094 C1092 1.381 . S
C1094 C1095 1.394 . S
C1094 H1102 0.930 . S
C1095 C1094 1.394 . S
C1095 C1096 1.383 . S
C1095 H1103 0.929 . S
C1096 C1095 1.383 . S
C1096 C1097 1.377 . S
C1097 H1081 0.930 . S
C1097 C1096 1.377 . S
C1097 C1098 1.379 . S
C1098 H1082 0.931 . S
C1098 C1092 1.383 . S
C1098 C1097 1.379 . S
H1099 C1093 0.959 . S
H1100 C1093 0.961 . S
H1101 C1093 0.960 . S
H1102 C1094 0.930 . S
H1103 C1095 0.929 . S
H1104 C1112 0.929 . S
H1105 C1114 0.930 . S
H1106 C1116 0.930 . S
H1107 C1119 0.929 . S
H1108 C1122 0.930 . S
H1109 C1124 0.960 . S
H1110 C1124 0.960 . S
H1111 C1124 0.960 . S
C1112 H1104 0.929 . S
C1112 C1113 1.377 . S
C1112 C1114 1.384 . S
C1113 C1112 1.377 . S
C1113 C1119 1.390 . S
C1114 H1105 0.930 . S
C1114 C1112 1.384 . S
C1114 C1115 1.372 . S
C1115 C1114 1.372 . S
C1115 C1116 1.400 . S
C1115 C1120 1.490 . S
C1116 H1106 0.930 . S
C1116 C1115 1.400 . S
C1116 C1119 1.386 . S
H1117 C1133 0.930 . S
H1118 C1134 0.931 . S
C1119 H1107 0.929 . S
C1119 C1113 1.390 . S
C1119 C1116 1.386 . S
C1120 C1115 1.490 . S
C1120 C1122 1.395 . S
C1120 C1123 1.403 . S
H1121 C1127 0.930 . S
C1122 H1108 0.930 . S
C1122 C1120 1.395 . S
C1122 C1125 1.403 1_545 S
C1123 C1120 1.403 . S
C1123 C1124 1.524 . S
C1123 C1127 1.400 1_545 S
C1124 H1109 0.960 . S
C1124 H1110 0.960 . S
C1124 H1111 0.960 . S
C1124 C1123 1.524 . S
C1125 C1122 1.403 1_565 S
C1125 C1126 1.392 . S
C1125 C1129 1.495 . S
C1126 C1125 1.392 . S
C1126 C1127 1.385 . S
C1126 C1128 1.478 . S
C1127 H1121 0.930 . S
C1127 C1123 1.400 1_565 S
C1127 C1126 1.385 . S
C1128 C1126 1.478 . S
C1128 C1130 1.381 . S
C1128 C1134 1.383 . S
C1129 C1125 1.495 . S
C1129 H1135 0.959 . S
C1129 H1136 0.961 . S
C1129 H1137 0.960 . S
C1130 C1128 1.381 . S
C1130 C1131 1.394 . S
C1130 H1138 0.930 . S
C1131 C1130 1.394 . S
C1131 C1132 1.383 . S
C1131 H1139 0.929 . S
C1132 C1131 1.383 . S
C1132 C1133 1.377 . S
C1133 H1117 0.930 . S
C1133 C1132 1.377 . S
C1133 C1134 1.379 . S
C1134 H1118 0.931 . S
C1134 C1128 1.383 . S
C1134 C1133 1.379 . S
H1135 C1129 0.959 . S
H1136 C1129 0.961 . S
H1137 C1129 0.960 . S
H1138 C1130 0.930 . S
H1139 C1131 0.929 . S
H1140 C1148 0.929 . S
H1141 C1150 0.930 . S
H1142 C1152 0.930 . S
H1143 C1155 0.929 . S
H1144 C1158 0.930 . S
H1145 C1160 0.960 . S
H1146 C1160 0.960 . S
H1147 C1160 0.960 . S
C1148 H1140 0.929 . S
C1148 C1149 1.377 . S
C1148 C1150 1.384 . S
C1149 C1148 1.377 . S
C1149 C1155 1.390 . S
C1150 H1141 0.930 . S
C1150 C1148 1.384 . S
C1150 C1151 1.372 . S
C1151 C1150 1.372 . S
C1151 C1152 1.400 . S
C1151 C1156 1.490 . S
C1152 H1142 0.930 . S
C1152 C1151 1.400 . S
C1152 C1155 1.386 . S
H1153 C1169 0.930 . S
H1154 C1170 0.931 . S
C1155 H1143 0.929 . S
C1155 C1149 1.390 . S
C1155 C1152 1.386 . S
C1156 C1151 1.490 . S
C1156 C1158 1.395 . S
C1156 C1159 1.403 . S
H1157 C1163 0.930 . S
C1158 H1144 0.930 . S
C1158 C1156 1.395 . S
C1158 C1161 1.403 . S
C1159 C1156 1.403 . S
C1159 C1160 1.524 . S
C1159 C1163 1.400 . S
C1160 H1145 0.960 . S
C1160 H1146 0.960 . S
C1160 H1147 0.960 . S
C1160 C1159 1.524 . S
C1161 C1158 1.403 . S
C1161 C1162 1.392 . S
C1161 C1165 1.495 . S
C1162 C1161 1.392 . S
C1162 C1163 1.385 . S
C1162 C1164 1.478 . S
C1163 H1157 0.930 . S
C1163 C1159 1.400 . S
C1163 C1162 1.385 . S
C1164 C1162 1.478 . S
C1164 C1166 1.381 . S
C1164 C1170 1.383 . S
C1165 C1161 1.495 . S
C1165 H1171 0.959 . S
C1165 H1172 0.961 . S
C1165 H1173 0.960 . S
C1166 C1164 1.381 . S
C1166 C1167 1.394 . S
C1166 H1174 0.930 . S
C1167 C1166 1.394 . S
C1167 C1168 1.383 . S
C1167 H1175 0.929 . S
C1168 C1167 1.383 . S
C1168 C1169 1.377 . S
C1169 H1153 0.930 . S
C1169 C1168 1.377 . S
C1169 C1170 1.379 . S
C1170 H1154 0.931 . S
C1170 C1164 1.383 . S
C1170 C1169 1.379 . S
H1171 C1165 0.959 . S
H1172 C1165 0.961 . S
H1173 C1165 0.960 . S
H1174 C1166 0.930 . S
H1175 C1167 0.929 . S
H1176 C1184 0.929 . S
H1177 C1186 0.930 . S
H1178 C1188 0.930 . S
H1179 C1191 0.929 . S
H1180 C1194 0.930 . S
H1181 C1196 0.960 . S
H1182 C1196 0.960 . S
H1183 C1196 0.960 . S
C1184 H1176 0.929 . S
C1184 C1185 1.377 . S
C1184 C1186 1.384 . S
C1185 C1184 1.377 . S
C1185 C1191 1.390 . S
C1186 H1177 0.930 . S
C1186 C1184 1.384 . S
C1186 C1187 1.372 . S
C1187 C1186 1.372 . S
C1187 C1188 1.400 . S
C1187 C1192 1.490 . S
C1188 H1178 0.930 . S
C1188 C1187 1.400 . S
C1188 C1191 1.386 . S
H1189 C1205 0.930 . S
H1190 C1206 0.931 . S
C1191 H1179 0.929 . S
C1191 C1185 1.390 . S
C1191 C1188 1.386 . S
C1192 C1187 1.490 . S
C1192 C1194 1.395 . S
C1192 C1195 1.403 . S
H1193 C1199 0.930 . S
C1194 H1180 0.930 . S
C1194 C1192 1.395 . S
C1194 C1197 1.403 1_545 S
C1195 C1192 1.403 . S
C1195 C1196 1.524 . S
C1195 C1199 1.400 1_545 S
C1196 H1181 0.960 . S
C1196 H1182 0.960 . S
C1196 H1183 0.960 . S
C1196 C1195 1.524 . S
C1197 C1194 1.403 1_565 S
C1197 C1198 1.392 . S
C1197 C1201 1.495 . S
C1198 C1197 1.392 . S
C1198 C1199 1.385 . S
C1198 C1200 1.478 . S
C1199 H1193 0.930 . S
C1199 C1195 1.400 1_565 S
C1199 C1198 1.385 . S
C1200 C1198 1.478 . S
C1200 C1202 1.381 . S
C1200 C1206 1.383 . S
C1201 C1197 1.495 . S
C1201 H1207 0.959 . S
C1201 H1208 0.961 . S
C1201 H1209 0.960 . S
C1202 C1200 1.381 . S
C1202 C1203 1.394 . S
C1202 H1210 0.930 . S
C1203 C1202 1.394 . S
C1203 C1204 1.383 . S
C1203 H1211 0.929 . S
C1204 C1203 1.383 . S
C1204 C1205 1.377 . S
C1205 H1189 0.930 . S
C1205 C1204 1.377 . S
C1205 C1206 1.379 . S
C1206 H1190 0.931 . S
C1206 C1200 1.383 . S
C1206 C1205 1.379 . S
H1207 C1201 0.959 . S
H1208 C1201 0.961 . S
H1209 C1201 0.960 . S
H1210 C1202 0.930 . S
H1211 C1203 0.929 . S
H1212 C1220 0.929 . S
H1213 C1222 0.930 . S
H1214 C1224 0.930 . S
H1215 C1227 0.929 . S
H1216 C1230 0.930 . S
H1217 C1232 0.960 . S
H1218 C1232 0.960 . S
H1219 C1232 0.960 . S
C1220 H1212 0.929 . S
C1220 C1221 1.377 . S
C1220 C1222 1.384 . S
C1221 C1220 1.377 . S
C1221 C1227 1.390 . S
C1222 H1213 0.930 . S
C1222 C1220 1.384 . S
C1222 C1223 1.372 . S
C1223 C1222 1.372 . S
C1223 C1224 1.400 . S
C1223 C1228 1.490 . S
C1224 H1214 0.930 . S
C1224 C1223 1.400 . S
C1224 C1227 1.386 . S
H1225 C1241 0.930 . S
H1226 C1242 0.931 . S
C1227 H1215 0.929 . S
C1227 C1221 1.390 . S
C1227 C1224 1.386 . S
C1228 C1223 1.490 . S
C1228 C1230 1.395 . S
C1228 C1231 1.403 . S
H1229 C1235 0.930 . S
C1230 H1216 0.930 . S
C1230 C1228 1.395 . S
C1230 C1233 1.403 . S
C1231 C1228 1.403 . S
C1231 C1232 1.524 . S
C1231 C1235 1.400 . S
C1232 H1217 0.960 . S
C1232 H1218 0.960 . S
C1232 H1219 0.960 . S
C1232 C1231 1.524 . S
C1233 C1230 1.403 . S
C1233 C1234 1.392 . S
C1233 C1237 1.495 . S
C1234 C1233 1.392 . S
C1234 C1235 1.385 . S
C1234 C1236 1.478 . S
C1235 H1229 0.930 . S
C1235 C1231 1.400 . S
C1235 C1234 1.385 . S
C1236 C1234 1.478 . S
C1236 C1238 1.381 . S
C1236 C1242 1.383 . S
C1237 C1233 1.495 . S
C1237 H1243 0.959 . S
C1237 H1244 0.961 . S
C1237 H1245 0.960 . S
C1238 C1236 1.381 . S
C1238 C1239 1.394 . S
C1238 H1246 0.930 . S
C1239 C1238 1.394 . S
C1239 C1240 1.383 . S
C1239 H1247 0.929 . S
C1240 C1239 1.383 . S
C1240 C1241 1.377 . S
C1241 H1225 0.930 . S
C1241 C1240 1.377 . S
C1241 C1242 1.379 . S
C1242 H1226 0.931 . S
C1242 C1236 1.383 . S
C1242 C1241 1.379 . S
H1243 C1237 0.959 . S
H1244 C1237 0.961 . S
H1245 C1237 0.960 . S
H1246 C1238 0.930 . S
H1247 C1239 0.929 . S
H1248 C1256 0.929 . S
H1249 C1258 0.930 . S
H1250 C1260 0.930 . S
H1251 C1263 0.929 . S
H1252 C1266 0.930 . S
H1253 C1268 0.960 . S
H1254 C1268 0.960 . S
H1255 C1268 0.960 . S
C1256 H1248 0.929 . S
C1256 C1257 1.377 . S
C1256 C1258 1.384 . S
C1257 C1256 1.377 . S
C1257 C1263 1.390 . S
C1258 H1249 0.930 . S
C1258 C1256 1.384 . S
C1258 C1259 1.372 . S
C1259 C1258 1.372 . S
C1259 C1260 1.400 . S
C1259 C1264 1.490 . S
C1260 H1250 0.930 . S
C1260 C1259 1.400 . S
C1260 C1263 1.386 . S
H1261 C1277 0.930 . S
H1262 C1278 0.931 . S
C1263 H1251 0.929 . S
C1263 C1257 1.390 . S
C1263 C1260 1.386 . S
C1264 C1259 1.490 . S
C1264 C1266 1.395 . S
C1264 C1267 1.403 . S
H1265 C1271 0.930 . S
C1266 H1252 0.930 . S
C1266 C1264 1.395 . S
C1266 C1269 1.403 1_554 S
C1267 C1264 1.403 . S
C1267 C1268 1.524 . S
C1267 C1271 1.400 1_554 S
C1268 H1253 0.960 . S
C1268 H1254 0.960 . S
C1268 H1255 0.960 . S
C1268 C1267 1.524 . S
C1269 C1266 1.403 1_556 S
C1269 C1270 1.392 . S
C1269 C1273 1.495 . S
C1270 C1269 1.392 . S
C1270 C1271 1.385 . S
C1270 C1272 1.478 . S
C1271 H1265 0.930 . S
C1271 C1267 1.400 1_556 S
C1271 C1270 1.385 . S
C1272 C1270 1.478 . S
C1272 C1274 1.381 . S
C1272 C1278 1.383 . S
C1273 C1269 1.495 . S
C1273 H1279 0.959 . S
C1273 H1280 0.961 . S
C1273 H1281 0.960 . S
C1274 C1272 1.381 . S
C1274 C1275 1.394 . S
C1274 H1282 0.930 . S
C1275 C1274 1.394 . S
C1275 C1276 1.383 . S
C1275 H1283 0.929 . S
C1276 C1275 1.383 . S
C1276 C1277 1.377 . S
C1277 H1261 0.930 . S
C1277 C1276 1.377 . S
C1277 C1278 1.379 . S
C1278 H1262 0.931 . S
C1278 C1272 1.383 . S
C1278 C1277 1.379 . S
H1279 C1273 0.959 . S
H1280 C1273 0.961 . S
H1281 C1273 0.960 . S
H1282 C1274 0.930 . S
H1283 C1275 0.929 . S
H1284 C1292 0.929 . S
H1285 C1294 0.930 . S
H1286 C1296 0.930 . S
H1287 C1299 0.929 . S
H1288 C1302 0.930 . S
H1289 C1304 0.960 . S
H1290 C1304 0.960 . S
H1291 C1304 0.960 . S
C1292 H1284 0.929 . S
C1292 C1293 1.377 . S
C1292 C1294 1.384 . S
C1293 C1292 1.377 . S
C1293 C1299 1.390 . S
C1294 H1285 0.930 . S
C1294 C1292 1.384 . S
C1294 C1295 1.372 . S
C1295 C1294 1.372 . S
C1295 C1296 1.400 . S
C1295 C1300 1.490 . S
C1296 H1286 0.930 . S
C1296 C1295 1.400 . S
C1296 C1299 1.386 . S
H1297 C1313 0.930 . S
H1298 C1314 0.931 . S
C1299 H1287 0.929 . S
C1299 C1293 1.390 . S
C1299 C1296 1.386 . S
C1300 C1295 1.490 . S
C1300 C1302 1.395 . S
C1300 C1303 1.403 . S
H1301 C1307 0.930 . S
C1302 H1288 0.930 . S
C1302 C1300 1.395 . S
C1302 C1305 1.403 1_554 S
C1303 C1300 1.403 . S
C1303 C1304 1.524 . S
C1303 C1307 1.400 1_554 S
C1304 H1289 0.960 . S
C1304 H1290 0.960 . S
C1304 H1291 0.960 . S
C1304 C1303 1.524 . S
C1305 C1302 1.403 1_556 S
C1305 C1306 1.392 . S
C1305 C1309 1.495 . S
C1306 C1305 1.392 . S
C1306 C1307 1.385 . S
C1306 C1308 1.478 . S
C1307 H1301 0.930 . S
C1307 C1303 1.400 1_556 S
C1307 C1306 1.385 . S
C1308 C1306 1.478 . S
C1308 C1310 1.381 . S
C1308 C1314 1.383 . S
C1309 C1305 1.495 . S
C1309 H1315 0.959 . S
C1309 H1316 0.961 . S
C1309 H1317 0.960 . S
C1310 C1308 1.381 . S
C1310 C1311 1.394 . S
C1310 H1318 0.930 . S
C1311 C1310 1.394 . S
C1311 C1312 1.383 . S
C1311 H1319 0.929 . S
C1312 C1311 1.383 . S
C1312 C1313 1.377 . S
C1313 H1297 0.930 . S
C1313 C1312 1.377 . S
C1313 C1314 1.379 . S
C1314 H1298 0.931 . S
C1314 C1308 1.383 . S
C1314 C1313 1.379 . S
H1315 C1309 0.959 . S
H1316 C1309 0.961 . S
H1317 C1309 0.960 . S
H1318 C1310 0.930 . S
H1319 C1311 0.929 . S
H1320 C1328 0.929 . S
H1321 C1330 0.930 . S
H1322 C1332 0.930 . S
H1323 C1335 0.929 . S
H1324 C1338 0.930 . S
H1325 C1340 0.960 . S
H1326 C1340 0.960 . S
H1327 C1340 0.960 . S
C1328 H1320 0.929 . S
C1328 C1329 1.377 . S
C1328 C1330 1.384 . S
C1329 C1328 1.377 . S
C1329 C1335 1.390 . S
C1330 H1321 0.930 . S
C1330 C1328 1.384 . S
C1330 C1331 1.372 . S
C1331 C1330 1.372 . S
C1331 C1332 1.400 . S
C1331 C1336 1.490 . S
C1332 H1322 0.930 . S
C1332 C1331 1.400 . S
C1332 C1335 1.386 . S
H1333 C1349 0.930 . S
H1334 C1350 0.931 . S
C1335 H1323 0.929 . S
C1335 C1329 1.390 . S
C1335 C1332 1.386 . S
C1336 C1331 1.490 . S
C1336 C1338 1.395 . S
C1336 C1339 1.403 . S
H1337 C1343 0.930 . S
C1338 H1324 0.930 . S
C1338 C1336 1.395 . S
C1338 C1341 1.403 . S
C1339 C1336 1.403 . S
C1339 C1340 1.524 . S
C1339 C1343 1.400 . S
C1340 H1325 0.960 . S
C1340 H1326 0.960 . S
C1340 H1327 0.960 . S
C1340 C1339 1.524 . S
C1341 C1338 1.403 . S
C1341 C1342 1.392 . S
C1341 C1345 1.495 . S
C1342 C1341 1.392 . S
C1342 C1343 1.385 . S
C1342 C1344 1.478 . S
C1343 H1337 0.930 . S
C1343 C1339 1.400 . S
C1343 C1342 1.385 . S
C1344 C1342 1.478 . S
C1344 C1346 1.381 . S
C1344 C1350 1.383 . S
C1345 C1341 1.495 . S
C1345 H1351 0.959 . S
C1345 H1352 0.961 . S
C1345 H1353 0.960 . S
C1346 C1344 1.381 . S
C1346 C1347 1.394 . S
C1346 H1354 0.930 . S
C1347 C1346 1.394 . S
C1347 C1348 1.383 . S
C1347 H1355 0.929 . S
C1348 C1347 1.383 . S
C1348 C1349 1.377 . S
C1349 H1333 0.930 . S
C1349 C1348 1.377 . S
C1349 C1350 1.379 . S
C1350 H1334 0.931 . S
C1350 C1344 1.383 . S
C1350 C1349 1.379 . S
H1351 C1345 0.959 . S
H1352 C1345 0.961 . S
H1353 C1345 0.960 . S
H1354 C1346 0.930 . S
H1355 C1347 0.929 . S
H1356 C1364 0.929 . S
H1357 C1366 0.930 . S
H1358 C1368 0.930 . S
H1359 C1371 0.929 . S
H1360 C1374 0.930 . S
H1361 C1376 0.960 . S
H1362 C1376 0.960 . S
H1363 C1376 0.960 . S
C1364 H1356 0.929 . S
C1364 C1365 1.377 . S
C1364 C1366 1.384 . S
C1365 C1364 1.377 . S
C1365 C1371 1.390 . S
C1366 H1357 0.930 . S
C1366 C1364 1.384 . S
C1366 C1367 1.372 . S
C1367 C1366 1.372 . S
C1367 C1368 1.400 . S
C1367 C1372 1.490 . S
C1368 H1358 0.930 . S
C1368 C1367 1.400 . S
C1368 C1371 1.386 . S
H1369 C1385 0.930 . S
H1370 C1386 0.931 . S
C1371 H1359 0.929 . S
C1371 C1365 1.390 . S
C1371 C1368 1.386 . S
C1372 C1367 1.490 . S
C1372 C1374 1.395 . S
C1372 C1375 1.403 . S
H1373 C1379 0.930 . S
C1374 H1360 0.930 . S
C1374 C1372 1.395 . S
C1374 C1377 1.403 1_554 S
C1375 C1372 1.403 . S
C1375 C1376 1.524 . S
C1375 C1379 1.400 1_554 S
C1376 H1361 0.960 . S
C1376 H1362 0.960 . S
C1376 H1363 0.960 . S
C1376 C1375 1.524 . S
C1377 C1374 1.403 1_556 S
C1377 C1378 1.392 . S
C1377 C1381 1.495 . S
C1378 C1377 1.392 . S
C1378 C1379 1.385 . S
C1378 C1380 1.478 . S
C1379 H1373 0.930 . S
C1379 C1375 1.400 1_556 S
C1379 C1378 1.385 . S
C1380 C1378 1.478 . S
C1380 C1382 1.381 . S
C1380 C1386 1.383 . S
C1381 C1377 1.495 . S
C1381 H1387 0.959 . S
C1381 H1388 0.961 . S
C1381 H1389 0.960 . S
C1382 C1380 1.381 . S
C1382 C1383 1.394 . S
C1382 H1390 0.930 . S
C1383 C1382 1.394 . S
C1383 C1384 1.383 . S
C1383 H1391 0.929 . S
C1384 C1383 1.383 . S
C1384 C1385 1.377 . S
C1385 H1369 0.930 . S
C1385 C1384 1.377 . S
C1385 C1386 1.379 . S
C1386 H1370 0.931 . S
C1386 C1380 1.383 . S
C1386 C1385 1.379 . S
H1387 C1381 0.959 . S
H1388 C1381 0.961 . S
H1389 C1381 0.960 . S
H1390 C1382 0.930 . S
H1391 C1383 0.929 . S
H1392 C1400 0.929 . S
H1393 C1402 0.930 . S
H1394 C1404 0.930 . S
H1395 C1407 0.929 . S
H1396 C1410 0.930 . S
H1397 C1412 0.960 . S
H1398 C1412 0.960 . S
H1399 C1412 0.960 . S
C1400 H1392 0.929 . S
C1400 C1401 1.377 . S
C1400 C1402 1.384 . S
C1401 C1400 1.377 . S
C1401 C1407 1.390 . S
C1402 H1393 0.930 . S
C1402 C1400 1.384 . S
C1402 C1403 1.372 . S
C1403 C1402 1.372 . S
C1403 C1404 1.400 . S
C1403 C1408 1.490 . S
C1404 H1394 0.930 . S
C1404 C1403 1.400 . S
C1404 C1407 1.386 . S
H1405 C1421 0.930 . S
H1406 C1422 0.931 . S
C1407 H1395 0.929 . S
C1407 C1401 1.390 . S
C1407 C1404 1.386 . S
C1408 C1403 1.490 . S
C1408 C1410 1.395 . S
C1408 C1411 1.403 . S
H1409 C1415 0.930 . S
C1410 H1396 0.930 . S
C1410 C1408 1.395 . S
C1410 C1413 1.403 . S
C1411 C1408 1.403 . S
C1411 C1412 1.524 . S
C1411 C1415 1.400 . S
C1412 H1397 0.960 . S
C1412 H1398 0.960 . S
C1412 H1399 0.960 . S
C1412 C1411 1.524 . S
C1413 C1410 1.403 . S
C1413 C1414 1.392 . S
C1413 C1417 1.495 . S
C1414 C1413 1.392 . S
C1414 C1415 1.385 . S
C1414 C1416 1.478 . S
C1415 H1409 0.930 . S
C1415 C1411 1.400 . S
C1415 C1414 1.385 . S
C1416 C1414 1.478 . S
C1416 C1418 1.381 . S
C1416 C1422 1.383 . S
C1417 C1413 1.495 . S
C1417 H1423 0.959 . S
C1417 H1424 0.961 . S
C1417 H1425 0.960 . S
C1418 C1416 1.381 . S
C1418 C1419 1.394 . S
C1418 H1426 0.930 . S
C1419 C1418 1.394 . S
C1419 C1420 1.383 . S
C1419 H1427 0.929 . S
C1420 C1419 1.383 . S
C1420 C1421 1.377 . S
C1421 H1405 0.930 . S
C1421 C1420 1.377 . S
C1421 C1422 1.379 . S
C1422 H1406 0.931 . S
C1422 C1416 1.383 . S
C1422 C1421 1.379 . S
H1423 C1417 0.959 . S
H1424 C1417 0.961 . S
H1425 C1417 0.960 . S
H1426 C1418 0.930 . S
H1427 C1419 0.929 . S
H1428 C1436 0.929 . S
H1429 C1438 0.930 . S
H1430 C1440 0.930 . S
H1431 C1443 0.929 . S
H1432 C1446 0.930 . S
H1433 C1448 0.960 . S
H1434 C1448 0.960 . S
H1435 C1448 0.960 . S
C1436 H1428 0.929 . S
C1436 C1437 1.377 . S
C1436 C1438 1.384 . S
C1437 C1436 1.377 . S
C1437 C1443 1.390 . S
C1438 H1429 0.930 . S
C1438 C1436 1.384 . S
C1438 C1439 1.372 . S
C1439 C1438 1.372 . S
C1439 C1440 1.400 . S
C1439 C1444 1.490 . S
C1440 H1430 0.930 . S
C1440 C1439 1.400 . S
C1440 C1443 1.386 . S
H1441 C1457 0.930 . S
H1442 C1458 0.931 . S
C1443 H1431 0.929 . S
C1443 C1437 1.390 . S
C1443 C1440 1.386 . S
C1444 C1439 1.490 . S
C1444 C1446 1.395 . S
C1444 C1447 1.403 . S
H1445 C1451 0.930 . S
C1446 H1432 0.930 . S
C1446 C1444 1.395 . S
C1446 C1449 1.403 1_554 S
C1447 C1444 1.403 . S
C1447 C1448 1.524 . S
C1447 C1451 1.400 1_554 S
C1448 H1433 0.960 . S
C1448 H1434 0.960 . S
C1448 H1435 0.960 . S
C1448 C1447 1.524 . S
C1449 C1446 1.403 1_556 S
C1449 C1450 1.392 . S
C1449 C1453 1.495 . S
C1450 C1449 1.392 . S
C1450 C1451 1.385 . S
C1450 C1452 1.478 . S
C1451 H1445 0.930 . S
C1451 C1447 1.400 1_556 S
C1451 C1450 1.385 . S
C1452 C1450 1.478 . S
C1452 C1454 1.381 . S
C1452 C1458 1.383 . S
C1453 C1449 1.495 . S
C1453 H1459 0.959 . S
C1453 H1460 0.961 . S
C1453 H1461 0.960 . S
C1454 C1452 1.381 . S
C1454 C1455 1.394 . S
C1454 H1462 0.930 . S
C1455 C1454 1.394 . S
C1455 C1456 1.383 . S
C1455 H1463 0.929 . S
C1456 C1455 1.383 . S
C1456 C1457 1.377 . S
C1457 H1441 0.930 . S
C1457 C1456 1.377 . S
C1457 C1458 1.379 . S
C1458 H1442 0.931 . S
C1458 C1452 1.383 . S
C1458 C1457 1.379 . S
H1459 C1453 0.959 . S
H1460 C1453 0.961 . S
H1461 C1453 0.960 . S
H1462 C1454 0.930 . S
H1463 C1455 0.929 . S
H1464 C1472 0.929 . S
H1465 C1474 0.930 . S
H1466 C1476 0.930 . S
H1467 C1479 0.929 . S
H1468 C1482 0.930 . S
H1469 C1484 0.960 . S
H1470 C1484 0.960 . S
H1471 C1484 0.960 . S
C1472 H1464 0.929 . S
C1472 C1473 1.377 . S
C1472 C1474 1.384 . S
C1473 C1472 1.377 . S
C1473 C1479 1.390 . S
C1474 H1465 0.930 . S
C1474 C1472 1.384 . S
C1474 C1475 1.372 . S
C1475 C1474 1.372 . S
C1475 C1476 1.400 . S
C1475 C1480 1.490 . S
C1476 H1466 0.930 . S
C1476 C1475 1.400 . S
C1476 C1479 1.386 . S
H1477 C1493 0.930 . S
H1478 C1494 0.931 . S
C1479 H1467 0.929 . S
C1479 C1473 1.390 . S
C1479 C1476 1.386 . S
C1480 C1475 1.490 . S
C1480 C1482 1.395 . S
C1480 C1483 1.403 . S
H1481 C1487 0.930 . S
C1482 H1468 0.930 . S
C1482 C1480 1.395 . S
C1482 C1485 1.403 . S
C1483 C1480 1.403 . S
C1483 C1484 1.524 . S
C1483 C1487 1.400 . S
C1484 H1469 0.960 . S
C1484 H1470 0.960 . S
C1484 H1471 0.960 . S
C1484 C1483 1.524 . S
C1485 C1482 1.403 . S
C1485 C1486 1.392 . S
C1485 C1489 1.495 . S
C1486 C1485 1.392 . S
C1486 C1487 1.385 . S
C1486 C1488 1.478 . S
C1487 H1481 0.930 . S
C1487 C1483 1.400 . S
C1487 C1486 1.385 . S
C1488 C1486 1.478 . S
C1488 C1490 1.381 . S
C1488 C1494 1.383 . S
C1489 C1485 1.495 . S
C1489 H1495 0.959 . S
C1489 H1496 0.961 . S
C1489 H1497 0.960 . S
C1490 C1488 1.381 . S
C1490 C1491 1.394 . S
C1490 H1498 0.930 . S
C1491 C1490 1.394 . S
C1491 C1492 1.383 . S
C1491 H1499 0.929 . S
C1492 C1491 1.383 . S
C1492 C1493 1.377 . S
C1493 H1477 0.930 . S
C1493 C1492 1.377 . S
C1493 C1494 1.379 . S
C1494 H1478 0.931 . S
C1494 C1488 1.383 . S
C1494 C1493 1.379 . S
H1495 C1489 0.959 . S
H1496 C1489 0.961 . S
H1497 C1489 0.960 . S
H1498 C1490 0.930 . S
H1499 C1491 0.929 . S
H1500 C1508 0.929 . S
H1501 C1510 0.930 . S
H1502 C1512 0.930 . S
H1503 C1515 0.929 . S
H1504 C1518 0.930 . S
H1505 C1520 0.960 . S
H1506 C1520 0.960 . S
H1507 C1520 0.960 . S
C1508 H1500 0.929 . S
C1508 C1509 1.377 . S
C1508 C1510 1.384 . S
C1509 C1508 1.377 . S
C1509 C1515 1.390 . S
C1510 H1501 0.930 . S
C1510 C1508 1.384 . S
C1510 C1511 1.372 . S
C1511 C1510 1.372 . S
C1511 C1512 1.400 . S
C1511 C1516 1.490 . S
C1512 H1502 0.930 . S
C1512 C1511 1.400 . S
C1512 C1515 1.386 . S
H1513 C1529 0.930 . S
H1514 C1530 0.931 . S
C1515 H1503 0.929 . S
C1515 C1509 1.390 . S
C1515 C1512 1.386 . S
C1516 C1511 1.490 . S
C1516 C1518 1.395 . S
C1516 C1519 1.403 . S
H1517 C1523 0.930 . S
C1518 H1504 0.930 . S
C1518 C1516 1.395 . S
C1518 C1521 1.403 . S
C1519 C1516 1.403 . S
C1519 C1520 1.524 . S
C1519 C1523 1.400 . S
C1520 H1505 0.960 . S
C1520 H1506 0.960 . S
C1520 H1507 0.960 . S
C1520 C1519 1.524 . S
C1521 C1518 1.403 . S
C1521 C1522 1.392 . S
C1521 C1525 1.495 . S
C1522 C1521 1.392 . S
C1522 C1523 1.385 . S
C1522 C1524 1.478 . S
C1523 H1517 0.930 . S
C1523 C1519 1.400 . S
C1523 C1522 1.385 . S
C1524 C1522 1.478 . S
C1524 C1526 1.381 . S
C1524 C1530 1.383 . S
C1525 C1521 1.495 . S
C1525 H1531 0.959 . S
C1525 H1532 0.961 . S
C1525 H1533 0.960 . S
C1526 C1524 1.381 . S
C1526 C1527 1.394 . S
C1526 H1534 0.930 . S
C1527 C1526 1.394 . S
C1527 C1528 1.383 . S
C1527 H1535 0.929 . S
C1528 C1527 1.383 . S
C1528 C1529 1.377 . S
C1529 H1513 0.930 . S
C1529 C1528 1.377 . S
C1529 C1530 1.379 . S
C1530 H1514 0.931 . S
C1530 C1524 1.383 . S
C1530 C1529 1.379 . S
H1531 C1525 0.959 . S
H1532 C1525 0.961 . S
H1533 C1525 0.960 . S
H1534 C1526 0.930 . S
H1535 C1527 0.929 . S
H1536 C1544 0.929 . S
H1537 C1546 0.930 . S
H1538 C1548 0.930 . S
H1539 C1551 0.929 . S
H1540 C1554 0.930 . S
H1541 C1556 0.960 . S
H1542 C1556 0.960 . S
H1543 C1556 0.960 . S
C1544 H1536 0.929 . S
C1544 C1545 1.377 . S
C1544 C1546 1.384 . S
C1545 C1544 1.377 . S
C1545 C1551 1.390 . S
C1546 H1537 0.930 . S
C1546 C1544 1.384 . S
C1546 C1547 1.372 . S
C1547 C1546 1.372 . S
C1547 C1548 1.400 . S
C1547 C1552 1.490 . S
C1548 H1538 0.930 . S
C1548 C1547 1.400 . S
C1548 C1551 1.386 . S
H1549 C1565 0.930 . S
H1550 C1566 0.931 . S
C1551 H1539 0.929 . S
C1551 C1545 1.390 . S
C1551 C1548 1.386 . S
C1552 C1547 1.490 . S
C1552 C1554 1.395 . S
C1552 C1555 1.403 . S
H1553 C1559 0.930 . S
C1554 H1540 0.930 . S
C1554 C1552 1.395 . S
C1554 C1557 1.403 . S
C1555 C1552 1.403 . S
C1555 C1556 1.524 . S
C1555 C1559 1.400 . S
C1556 H1541 0.960 . S
C1556 H1542 0.960 . S
C1556 H1543 0.960 . S
C1556 C1555 1.524 . S
C1557 C1554 1.403 . S
C1557 C1558 1.392 . S
C1557 C1561 1.495 . S
C1558 C1557 1.392 . S
C1558 C1559 1.385 . S
C1558 C1560 1.478 . S
C1559 H1553 0.930 . S
C1559 C1555 1.400 . S
C1559 C1558 1.385 . S
C1560 C1558 1.478 . S
C1560 C1562 1.381 . S
C1560 C1566 1.383 . S
C1561 C1557 1.495 . S
C1561 H1567 0.959 . S
C1561 H1568 0.961 . S
C1561 H1569 0.960 . S
C1562 C1560 1.381 . S
C1562 C1563 1.394 . S
C1562 H1570 0.930 . S
C1563 C1562 1.394 . S
C1563 C1564 1.383 . S
C1563 H1571 0.929 . S
C1564 C1563 1.383 . S
C1564 C1565 1.377 . S
C1565 H1549 0.930 . S
C1565 C1564 1.377 . S
C1565 C1566 1.379 . S
C1566 H1550 0.931 . S
C1566 C1560 1.383 . S
C1566 C1565 1.379 . S
H1567 C1561 0.959 . S
H1568 C1561 0.961 . S
H1569 C1561 0.960 . S
H1570 C1562 0.930 . S
H1571 C1563 0.929 . S
H1572 C1580 0.929 . S
H1573 C1582 0.930 . S
H1574 C1584 0.930 . S
H1575 C1587 0.929 . S
H1576 C1590 0.930 . S
H1577 C1592 0.960 . S
H1578 C1592 0.960 . S
H1579 C1592 0.960 . S
C1580 H1572 0.929 . S
C1580 C1581 1.377 . S
C1580 C1582 1.384 . S
C1581 C1580 1.377 . S
C1581 C1587 1.390 . S
C1582 H1573 0.930 . S
C1582 C1580 1.384 . S
C1582 C1583 1.372 . S
C1583 C1582 1.372 . S
C1583 C1584 1.400 . S
C1583 C1588 1.490 . S
C1584 H1574 0.930 . S
C1584 C1583 1.400 . S
C1584 C1587 1.386 . S
H1585 C1601 0.930 . S
H1586 C1602 0.931 . S
C1587 H1575 0.929 . S
C1587 C1581 1.390 . S
C1587 C1584 1.386 . S
C1588 C1583 1.490 . S
C1588 C1590 1.395 . S
C1588 C1591 1.403 . S
H1589 C1595 0.930 . S
C1590 H1576 0.930 . S
C1590 C1588 1.395 . S
C1590 C1593 1.403 . S
C1591 C1588 1.403 . S
C1591 C1592 1.524 . S
C1591 C1595 1.400 . S
C1592 H1577 0.960 . S
C1592 H1578 0.960 . S
C1592 H1579 0.960 . S
C1592 C1591 1.524 . S
C1593 C1590 1.403 . S
C1593 C1594 1.392 . S
C1593 C1597 1.495 . S
C1594 C1593 1.392 . S
C1594 C1595 1.385 . S
C1594 C1596 1.478 . S
C1595 H1589 0.930 . S
C1595 C1591 1.400 . S
C1595 C1594 1.385 . S
C1596 C1594 1.478 . S
C1596 C1598 1.381 . S
C1596 C1602 1.383 . S
C1597 C1593 1.495 . S
C1597 H1603 0.959 . S
C1597 H1604 0.961 . S
C1597 H1605 0.960 . S
C1598 C1596 1.381 . S
C1598 C1599 1.394 . S
C1598 H1606 0.930 . S
C1599 C1598 1.394 . S
C1599 C1600 1.383 . S
C1599 H1607 0.929 . S
C1600 C1599 1.383 . S
C1600 C1601 1.377 . S
C1601 H1585 0.930 . S
C1601 C1600 1.377 . S
C1601 C1602 1.379 . S
C1602 H1586 0.931 . S
C1602 C1596 1.383 . S
C1602 C1601 1.379 . S
H1603 C1597 0.959 . S
H1604 C1597 0.961 . S
H1605 C1597 0.960 . S
H1606 C1598 0.930 . S
H1607 C1599 0.929 . S
H1608 C1616 0.929 . S
H1609 C1618 0.930 . S
H1610 C1620 0.930 . S
H1611 C1623 0.929 . S
H1612 C1626 0.930 . S
H1613 C1628 0.960 . S
H1614 C1628 0.960 . S
H1615 C1628 0.960 . S
C1616 H1608 0.929 . S
C1616 C1617 1.377 . S
C1616 C1618 1.384 . S
C1617 C1616 1.377 . S
C1617 C1623 1.390 . S
C1618 H1609 0.930 . S
C1618 C1616 1.384 . S
C1618 C1619 1.372 . S
C1619 C1618 1.372 . S
C1619 C1620 1.400 . S
C1619 C1624 1.490 . S
C1620 H1610 0.930 . S
C1620 C1619 1.400 . S
C1620 C1623 1.386 . S
H1621 C1637 0.930 . S
H1622 C1638 0.931 . S
C1623 H1611 0.929 . S
C1623 C1617 1.390 . S
C1623 C1620 1.386 . S
C1624 C1619 1.490 . S
C1624 C1626 1.395 . S
C1624 C1627 1.403 . S
H1625 C1631 0.930 . S
C1626 H1612 0.930 . S
C1626 C1624 1.395 . S
C1626 C1629 1.403 . S
C1627 C1624 1.403 . S
C1627 C1628 1.524 . S
C1627 C1631 1.400 . S
C1628 H1613 0.960 . S
C1628 H1614 0.960 . S
C1628 H1615 0.960 . S
C1628 C1627 1.524 . S
C1629 C1626 1.403 . S
C1629 C1630 1.392 . S
C1629 C1633 1.495 . S
C1630 C1629 1.392 . S
C1630 C1631 1.385 . S
C1630 C1632 1.478 . S
C1631 H1625 0.930 . S
C1631 C1627 1.400 . S
C1631 C1630 1.385 . S
C1632 C1630 1.478 . S
C1632 C1634 1.381 . S
C1632 C1638 1.383 . S
C1633 C1629 1.495 . S
C1633 H1639 0.959 . S
C1633 H1640 0.961 . S
C1633 H1641 0.960 . S
C1634 C1632 1.381 . S
C1634 C1635 1.394 . S
C1634 H1642 0.930 . S
C1635 C1634 1.394 . S
C1635 C1636 1.383 . S
C1635 H1643 0.929 . S
C1636 C1635 1.383 . S
C1636 C1637 1.377 . S
C1637 H1621 0.930 . S
C1637 C1636 1.377 . S
C1637 C1638 1.379 . S
C1638 H1622 0.931 . S
C1638 C1632 1.383 . S
C1638 C1637 1.379 . S
H1639 C1633 0.959 . S
H1640 C1633 0.961 . S
H1641 C1633 0.960 . S
H1642 C1634 0.930 . S
H1643 C1635 0.929 . S
H1644 C1652 0.929 . S
H1645 C1654 0.930 . S
H1646 C1656 0.930 . S
H1647 C1659 0.929 . S
H1648 C1662 0.930 . S
H1649 C1664 0.960 . S
H1650 C1664 0.960 . S
H1651 C1664 0.960 . S
C1652 H1644 0.929 . S
C1652 C1653 1.377 . S
C1652 C1654 1.384 . S
C1653 C1652 1.377 . S
C1653 C1659 1.390 . S
C1654 H1645 0.930 . S
C1654 C1652 1.384 . S
C1654 C1655 1.372 . S
C1655 C1654 1.372 . S
C1655 C1656 1.400 . S
C1655 C1660 1.490 . S
C1656 H1646 0.930 . S
C1656 C1655 1.400 . S
C1656 C1659 1.386 . S
H1657 C1673 0.930 . S
H1658 C1674 0.931 . S
C1659 H1647 0.929 . S
C1659 C1653 1.390 . S
C1659 C1656 1.386 . S
C1660 C1655 1.490 . S
C1660 C1662 1.395 . S
C1660 C1663 1.403 . S
H1661 C1667 0.930 . S
C1662 H1648 0.930 . S
C1662 C1660 1.395 . S
C1662 C1665 1.403 . S
C1663 C1660 1.403 . S
C1663 C1664 1.524 . S
C1663 C1667 1.400 . S
C1664 H1649 0.960 . S
C1664 H1650 0.960 . S
C1664 H1651 0.960 . S
C1664 C1663 1.524 . S
C1665 C1662 1.403 . S
C1665 C1666 1.392 . S
C1665 C1669 1.495 . S
C1666 C1665 1.392 . S
C1666 C1667 1.385 . S
C1666 C1668 1.478 . S
C1667 H1661 0.930 . S
C1667 C1663 1.400 . S
C1667 C1666 1.385 . S
C1668 C1666 1.478 . S
C1668 C1670 1.381 . S
C1668 C1674 1.383 . S
C1669 C1665 1.495 . S
C1669 H1675 0.959 . S
C1669 H1676 0.961 . S
C1669 H1677 0.960 . S
C1670 C1668 1.381 . S
C1670 C1671 1.394 . S
C1670 H1678 0.930 . S
C1671 C1670 1.394 . S
C1671 C1672 1.383 . S
C1671 H1679 0.929 . S
C1672 C1671 1.383 . S
C1672 C1673 1.377 . S
C1673 H1657 0.930 . S
C1673 C1672 1.377 . S
C1673 C1674 1.379 . S
C1674 H1658 0.931 . S
C1674 C1668 1.383 . S
C1674 C1673 1.379 . S
H1675 C1669 0.959 . S
H1676 C1669 0.961 . S
H1677 C1669 0.960 . S
H1678 C1670 0.930 . S
H1679 C1671 0.929 . S
H1680 C1688 0.929 . S
H1681 C1690 0.930 . S
H1682 C1692 0.930 . S
H1683 C1695 0.929 . S
H1684 C1698 0.930 . S
H1685 C1700 0.960 . S
H1686 C1700 0.960 . S
H1687 C1700 0.960 . S
C1688 H1680 0.929 . S
C1688 C1689 1.377 . S
C1688 C1690 1.384 . S
C1689 C1688 1.377 . S
C1689 C1695 1.390 . S
C1690 H1681 0.930 . S
C1690 C1688 1.384 . S
C1690 C1691 1.372 . S
C1691 C1690 1.372 . S
C1691 C1692 1.400 . S
C1691 C1696 1.490 . S
C1692 H1682 0.930 . S
C1692 C1691 1.400 . S
C1692 C1695 1.386 . S
H1693 C1709 0.930 . S
H1694 C1710 0.931 . S
C1695 H1683 0.929 . S
C1695 C1689 1.390 . S
C1695 C1692 1.386 . S
C1696 C1691 1.490 . S
C1696 C1698 1.395 . S
C1696 C1699 1.403 . S
H1697 C1703 0.930 . S
C1698 H1684 0.930 . S
C1698 C1696 1.395 . S
C1698 C1701 1.403 . S
C1699 C1696 1.403 . S
C1699 C1700 1.524 . S
C1699 C1703 1.400 . S
C1700 H1685 0.960 . S
C1700 H1686 0.960 . S
C1700 H1687 0.960 . S
C1700 C1699 1.524 . S
C1701 C1698 1.403 . S
C1701 C1702 1.392 . S
C1701 C1705 1.495 . S
C1702 C1701 1.392 . S
C1702 C1703 1.385 . S
C1702 C1704 1.478 . S
C1703 H1697 0.930 . S
C1703 C1699 1.400 . S
C1703 C1702 1.385 . S
C1704 C1702 1.478 . S
C1704 C1706 1.381 . S
C1704 C1710 1.383 . S
C1705 C1701 1.495 . S
C1705 H1711 0.959 . S
C1705 H1712 0.961 . S
C1705 H1713 0.960 . S
C1706 C1704 1.381 . S
C1706 C1707 1.394 . S
C1706 H1714 0.930 . S
C1707 C1706 1.394 . S
C1707 C1708 1.383 . S
C1707 H1715 0.929 . S
C1708 C1707 1.383 . S
C1708 C1709 1.377 . S
C1709 H1693 0.930 . S
C1709 C1708 1.377 . S
C1709 C1710 1.379 . S
C1710 H1694 0.931 . S
C1710 C1704 1.383 . S
C1710 C1709 1.379 . S
H1711 C1705 0.959 . S
H1712 C1705 0.961 . S
H1713 C1705 0.960 . S
H1714 C1706 0.930 . S
H1715 C1707 0.929 . S
H1716 C1724 0.929 . S
H1717 C1726 0.930 . S
H1718 C1728 0.930 . S
H1719 C1731 0.929 . S
H1720 C1734 0.930 . S
H1721 C1736 0.960 . S
H1722 C1736 0.960 . S
H1723 C1736 0.960 . S
C1724 H1716 0.929 . S
C1724 C1725 1.377 . S
C1724 C1726 1.384 . S
C1725 C1724 1.377 . S
C1725 C1731 1.390 . S
C1726 H1717 0.930 . S
C1726 C1724 1.384 . S
C1726 C1727 1.372 . S
C1727 C1726 1.372 . S
C1727 C1728 1.400 . S
C1727 C1732 1.490 . S
C1728 H1718 0.930 . S
C1728 C1727 1.400 . S
C1728 C1731 1.386 . S
H1729 C1745 0.930 . S
H1730 C1746 0.931 . S
C1731 H1719 0.929 . S
C1731 C1725 1.390 . S
C1731 C1728 1.386 . S
C1732 C1727 1.490 . S
C1732 C1734 1.395 . S
C1732 C1735 1.403 . S
H1733 C1739 0.930 . S
C1734 H1720 0.930 . S
C1734 C1732 1.395 . S
C1734 C1737 1.403 . S
C1735 C1732 1.403 . S
C1735 C1736 1.524 . S
C1735 C1739 1.400 . S
C1736 H1721 0.960 . S
C1736 H1722 0.960 . S
C1736 H1723 0.960 . S
C1736 C1735 1.524 . S
C1737 C1734 1.403 . S
C1737 C1738 1.392 . S
C1737 C1741 1.495 . S
C1738 C1737 1.392 . S
C1738 C1739 1.385 . S
C1738 C1740 1.478 . S
C1739 H1733 0.930 . S
C1739 C1735 1.400 . S
C1739 C1738 1.385 . S
C1740 C1738 1.478 . S
C1740 C1742 1.381 . S
C1740 C1746 1.383 . S
C1741 C1737 1.495 . S
C1741 H1747 0.959 . S
C1741 H1748 0.961 . S
C1741 H1749 0.960 . S
C1742 C1740 1.381 . S
C1742 C1743 1.394 . S
C1742 H1750 0.930 . S
C1743 C1742 1.394 . S
C1743 C1744 1.383 . S
C1743 H1751 0.929 . S
C1744 C1743 1.383 . S
C1744 C1745 1.377 . S
C1745 H1729 0.930 . S
C1745 C1744 1.377 . S
C1745 C1746 1.379 . S
C1746 H1730 0.931 . S
C1746 C1740 1.383 . S
C1746 C1745 1.379 . S
H1747 C1741 0.959 . S
H1748 C1741 0.961 . S
H1749 C1741 0.960 . S
H1750 C1742 0.930 . S
H1751 C1743 0.929 . S
H1752 C1760 0.929 . S
H1753 C1762 0.930 . S
H1754 C1764 0.930 . S
H1755 C1767 0.929 . S
H1756 C1770 0.930 . S
H1757 C1772 0.960 . S
H1758 C1772 0.960 . S
H1759 C1772 0.960 . S
C1760 H1752 0.929 . S
C1760 C1761 1.377 . S
C1760 C1762 1.384 . S
C1761 C1760 1.377 . S
C1761 C1767 1.390 . S
C1762 H1753 0.930 . S
C1762 C1760 1.384 . S
C1762 C1763 1.372 . S
C1763 C1762 1.372 . S
C1763 C1764 1.400 . S
C1763 C1768 1.490 . S
C1764 H1754 0.930 . S
C1764 C1763 1.400 . S
C1764 C1767 1.386 . S
H1765 C1781 0.930 . S
H1766 C1782 0.931 . S
C1767 H1755 0.929 . S
C1767 C1761 1.390 . S
C1767 C1764 1.386 . S
C1768 C1763 1.490 . S
C1768 C1770 1.395 . S
C1768 C1771 1.403 . S
H1769 C1775 0.930 . S
C1770 H1756 0.930 . S
C1770 C1768 1.395 . S
C1770 C1773 1.403 . S
C1771 C1768 1.403 . S
C1771 C1772 1.524 . S
C1771 C1775 1.400 . S
C1772 H1757 0.960 . S
C1772 H1758 0.960 . S
C1772 H1759 0.960 . S
C1772 C1771 1.524 . S
C1773 C1770 1.403 . S
C1773 C1774 1.392 . S
C1773 C1777 1.495 . S
C1774 C1773 1.392 . S
C1774 C1775 1.385 . S
C1774 C1776 1.478 . S
C1775 H1769 0.930 . S
C1775 C1771 1.400 . S
C1775 C1774 1.385 . S
C1776 C1774 1.478 . S
C1776 C1778 1.381 . S
C1776 C1782 1.383 . S
C1777 C1773 1.495 . S
C1777 H1783 0.959 . S
C1777 H1784 0.961 . S
C1777 H1785 0.960 . S
C1778 C1776 1.381 . S
C1778 C1779 1.394 . S
C1778 H1786 0.930 . S
C1779 C1778 1.394 . S
C1779 C1780 1.383 . S
C1779 H1787 0.929 . S
C1780 C1779 1.383 . S
C1780 C1781 1.377 . S
C1781 H1765 0.930 . S
C1781 C1780 1.377 . S
C1781 C1782 1.379 . S
C1782 H1766 0.931 . S
C1782 C1776 1.383 . S
C1782 C1781 1.379 . S
H1783 C1777 0.959 . S
H1784 C1777 0.961 . S
H1785 C1777 0.960 . S
H1786 C1778 0.930 . S
H1787 C1779 0.929 . S
H1788 C1796 0.929 . S
H1789 C1798 0.930 . S
H1790 C1800 0.930 . S
H1791 C1803 0.929 . S
H1792 C1806 0.930 . S
H1793 C1808 0.960 . S
H1794 C1808 0.960 . S
H1795 C1808 0.960 . S
C1796 H1788 0.929 . S
C1796 C1797 1.377 . S
C1796 C1798 1.384 . S
C1797 C1796 1.377 . S
C1797 C1803 1.390 . S
C1798 H1789 0.930 . S
C1798 C1796 1.384 . S
C1798 C1799 1.372 . S
C1799 C1798 1.372 . S
C1799 C1800 1.400 . S
C1799 C1804 1.490 . S
C1800 H1790 0.930 . S
C1800 C1799 1.400 . S
C1800 C1803 1.386 . S
H1801 C1817 0.930 . S
H1802 C1818 0.931 . S
C1803 H1791 0.929 . S
C1803 C1797 1.390 . S
C1803 C1800 1.386 . S
C1804 C1799 1.490 . S
C1804 C1806 1.395 . S
C1804 C1807 1.403 . S
H1805 C1811 0.930 . S
C1806 H1792 0.930 . S
C1806 C1804 1.395 . S
C1806 C1809 1.403 . S
C1807 C1804 1.403 . S
C1807 C1808 1.524 . S
C1807 C1811 1.400 . S
C1808 H1793 0.960 . S
C1808 H1794 0.960 . S
C1808 H1795 0.960 . S
C1808 C1807 1.524 . S
C1809 C1806 1.403 . S
C1809 C1810 1.392 . S
C1809 C1813 1.495 . S
C1810 C1809 1.392 . S
C1810 C1811 1.385 . S
C1810 C1812 1.478 . S
C1811 H1805 0.930 . S
C1811 C1807 1.400 . S
C1811 C1810 1.385 . S
C1812 C1810 1.478 . S
C1812 C1814 1.381 . S
C1812 C1818 1.383 . S
C1813 C1809 1.495 . S
C1813 H1819 0.959 . S
C1813 H1820 0.961 . S
C1813 H1821 0.960 . S
C1814 C1812 1.381 . S
C1814 C1815 1.394 . S
C1814 H1822 0.930 . S
C1815 C1814 1.394 . S
C1815 C1816 1.383 . S
C1815 H1823 0.929 . S
C1816 C1815 1.383 . S
C1816 C1817 1.377 . S
C1817 H1801 0.930 . S
C1817 C1816 1.377 . S
C1817 C1818 1.379 . S
C1818 H1802 0.931 . S
C1818 C1812 1.383 . S
C1818 C1817 1.379 . S
H1819 C1813 0.959 . S
H1820 C1813 0.961 . S
H1821 C1813 0.960 . S
H1822 C1814 0.930 . S
H1823 C1815 0.929 . S
H1824 C1832 0.929 . S
H1825 C1834 0.930 . S
H1826 C1836 0.930 . S
H1827 C1839 0.929 . S
H1828 C1842 0.930 . S
H1829 C1844 0.960 . S
H1830 C1844 0.960 . S
H1831 C1844 0.960 . S
C1832 H1824 0.929 . S
C1832 C1833 1.377 . S
C1832 C1834 1.384 . S
C1833 C1832 1.377 . S
C1833 C1839 1.390 . S
C1834 H1825 0.930 . S
C1834 C1832 1.384 . S
C1834 C1835 1.372 . S
C1835 C1834 1.372 . S
C1835 C1836 1.400 . S
C1835 C1840 1.490 . S
C1836 H1826 0.930 . S
C1836 C1835 1.400 . S
C1836 C1839 1.386 . S
H1837 C1853 0.930 . S
H1838 C1854 0.931 . S
C1839 H1827 0.929 . S
C1839 C1833 1.390 . S
C1839 C1836 1.386 . S
C1840 C1835 1.490 . S
C1840 C1842 1.395 . S
C1840 C1843 1.403 . S
H1841 C1847 0.930 . S
C1842 H1828 0.930 . S
C1842 C1840 1.395 . S
C1842 C1845 1.403 . S
C1843 C1840 1.403 . S
C1843 C1844 1.524 . S
C1843 C1847 1.400 . S
C1844 H1829 0.960 . S
C1844 H1830 0.960 . S
C1844 H1831 0.960 . S
C1844 C1843 1.524 . S
C1845 C1842 1.403 . S
C1845 C1846 1.392 . S
C1845 C1849 1.495 . S
C1846 C1845 1.392 . S
C1846 C1847 1.385 . S
C1846 C1848 1.478 . S
C1847 H1841 0.930 . S
C1847 C1843 1.400 . S
C1847 C1846 1.385 . S
C1848 C1846 1.478 . S
C1848 C1850 1.381 . S
C1848 C1854 1.383 . S
C1849 C1845 1.495 . S
C1849 H1855 0.959 . S
C1849 H1856 0.961 . S
C1849 H1857 0.960 . S
C1850 C1848 1.381 . S
C1850 C1851 1.394 . S
C1850 H1858 0.930 . S
C1851 C1850 1.394 . S
C1851 C1852 1.383 . S
C1851 H1859 0.929 . S
C1852 C1851 1.383 . S
C1852 C1853 1.377 . S
C1853 H1837 0.930 . S
C1853 C1852 1.377 . S
C1853 C1854 1.379 . S
C1854 H1838 0.931 . S
C1854 C1848 1.383 . S
C1854 C1853 1.379 . S
H1855 C1849 0.959 . S
H1856 C1849 0.961 . S
H1857 C1849 0.960 . S
H1858 C1850 0.930 . S
H1859 C1851 0.929 . S
H1860 C1868 0.929 . S
H1861 C1870 0.930 . S
H1862 C1872 0.930 . S
H1863 C1875 0.929 . S
H1864 C1878 0.930 . S
H1865 C1880 0.960 . S
H1866 C1880 0.960 . S
H1867 C1880 0.960 . S
C1868 H1860 0.929 . S
C1868 C1869 1.377 . S
C1868 C1870 1.384 . S
C1869 C1868 1.377 . S
C1869 C1875 1.390 . S
C1870 H1861 0.930 . S
C1870 C1868 1.384 . S
C1870 C1871 1.372 . S
C1871 C1870 1.372 . S
C1871 C1872 1.400 . S
C1871 C1876 1.490 . S
C1872 H1862 0.930 . S
C1872 C1871 1.400 . S
C1872 C1875 1.386 . S
H1873 C1889 0.930 . S
H1874 C1890 0.931 . S
C1875 H1863 0.929 . S
C1875 C1869 1.390 . S
C1875 C1872 1.386 . S
C1876 C1871 1.490 . S
C1876 C1878 1.395 . S
C1876 C1879 1.403 . S
H1877 C1883 0.930 . S
C1878 H1864 0.930 . S
C1878 C1876 1.395 . S
C1878 C1881 1.403 . S
C1879 C1876 1.403 . S
C1879 C1880 1.524 . S
C1879 C1883 1.400 . S
C1880 H1865 0.960 . S
C1880 H1866 0.960 . S
C1880 H1867 0.960 . S
C1880 C1879 1.524 . S
C1881 C1878 1.403 . S
C1881 C1882 1.392 . S
C1881 C1885 1.495 . S
C1882 C1881 1.392 . S
C1882 C1883 1.385 . S
C1882 C1884 1.478 . S
C1883 H1877 0.930 . S
C1883 C1879 1.400 . S
C1883 C1882 1.385 . S
C1884 C1882 1.478 . S
C1884 C1886 1.381 . S
C1884 C1890 1.383 . S
C1885 C1881 1.495 . S
C1885 H1891 0.959 . S
C1885 H1892 0.961 . S
C1885 H1893 0.960 . S
C1886 C1884 1.381 . S
C1886 C1887 1.394 . S
C1886 H1894 0.930 . S
C1887 C1886 1.394 . S
C1887 C1888 1.383 . S
C1887 H1895 0.929 . S
C1888 C1887 1.383 . S
C1888 C1889 1.377 . S
C1889 H1873 0.930 . S
C1889 C1888 1.377 . S
C1889 C1890 1.379 . S
C1890 H1874 0.931 . S
C1890 C1884 1.383 . S
C1890 C1889 1.379 . S
H1891 C1885 0.959 . S
H1892 C1885 0.961 . S
H1893 C1885 0.960 . S
H1894 C1886 0.930 . S
H1895 C1887 0.929 . S
H1896 C1904 0.929 . S
H1897 C1906 0.930 . S
H1898 C1908 0.930 . S
H1899 C1911 0.929 . S
H1900 C1914 0.930 . S
H1901 C1916 0.960 . S
H1902 C1916 0.960 . S
H1903 C1916 0.960 . S
C1904 H1896 0.929 . S
C1904 C1905 1.377 . S
C1904 C1906 1.384 . S
C1905 C1904 1.377 . S
C1905 C1911 1.390 . S
C1906 H1897 0.930 . S
C1906 C1904 1.384 . S
C1906 C1907 1.372 . S
C1907 C1906 1.372 . S
C1907 C1908 1.400 . S
C1907 C1912 1.490 . S
C1908 H1898 0.930 . S
C1908 C1907 1.400 . S
C1908 C1911 1.386 . S
H1909 C1925 0.930 . S
H1910 C1926 0.931 . S
C1911 H1899 0.929 . S
C1911 C1905 1.390 . S
C1911 C1908 1.386 . S
C1912 C1907 1.490 . S
C1912 C1914 1.395 . S
C1912 C1915 1.403 . S
H1913 C1919 0.930 . S
C1914 H1900 0.930 . S
C1914 C1912 1.395 . S
C1914 C1917 1.403 . S
C1915 C1912 1.403 . S
C1915 C1916 1.524 . S
C1915 C1919 1.400 . S
C1916 H1901 0.960 . S
C1916 H1902 0.960 . S
C1916 H1903 0.960 . S
C1916 C1915 1.524 . S
C1917 C1914 1.403 . S
C1917 C1918 1.392 . S
C1917 C1921 1.495 . S
C1918 C1917 1.392 . S
C1918 C1919 1.385 . S
C1918 C1920 1.478 . S
C1919 H1913 0.930 . S
C1919 C1915 1.400 . S
C1919 C1918 1.385 . S
C1920 C1918 1.478 . S
C1920 C1922 1.381 . S
C1920 C1926 1.383 . S
C1921 C1917 1.495 . S
C1921 H1927 0.959 . S
C1921 H1928 0.961 . S
C1921 H1929 0.960 . S
C1922 C1920 1.381 . S
C1922 C1923 1.394 . S
C1922 H1930 0.930 . S
C1923 C1922 1.394 . S
C1923 C1924 1.383 . S
C1923 H1931 0.929 . S
C1924 C1923 1.383 . S
C1924 C1925 1.377 . S
C1925 H1909 0.930 . S
C1925 C1924 1.377 . S
C1925 C1926 1.379 . S
C1926 H1910 0.931 . S
C1926 C1920 1.383 . S
C1926 C1925 1.379 . S
H1927 C1921 0.959 . S
H1928 C1921 0.961 . S
H1929 C1921 0.960 . S
H1930 C1922 0.930 . S
H1931 C1923 0.929 . S
H1932 C1940 0.929 . S
H1933 C1942 0.930 . S
H1934 C1944 0.930 . S
H1935 C1947 0.929 . S
H1936 C1950 0.930 . S
H1937 C1952 0.960 . S
H1938 C1952 0.960 . S
H1939 C1952 0.960 . S
C1940 H1932 0.929 . S
C1940 C1941 1.377 . S
C1940 C1942 1.384 . S
C1941 C1940 1.377 . S
C1941 C1947 1.390 . S
C1942 H1933 0.930 . S
C1942 C1940 1.384 . S
C1942 C1943 1.372 . S
C1943 C1942 1.372 . S
C1943 C1944 1.400 . S
C1943 C1948 1.490 . S
C1944 H1934 0.930 . S
C1944 C1943 1.400 . S
C1944 C1947 1.386 . S
H1945 C1961 0.930 . S
H1946 C1962 0.931 . S
C1947 H1935 0.929 . S
C1947 C1941 1.390 . S
C1947 C1944 1.386 . S
C1948 C1943 1.490 . S
C1948 C1950 1.395 . S
C1948 C1951 1.403 . S
H1949 C1955 0.930 . S
C1950 H1936 0.930 . S
C1950 C1948 1.395 . S
C1950 C1953 1.403 . S
C1951 C1948 1.403 . S
C1951 C1952 1.524 . S
C1951 C1955 1.400 . S
C1952 H1937 0.960 . S
C1952 H1938 0.960 . S
C1952 H1939 0.960 . S
C1952 C1951 1.524 . S
C1953 C1950 1.403 . S
C1953 C1954 1.392 . S
C1953 C1957 1.495 . S
C1954 C1953 1.392 . S
C1954 C1955 1.385 . S
C1954 C1956 1.478 . S
C1955 H1949 0.930 . S
C1955 C1951 1.400 . S
C1955 C1954 1.385 . S
C1956 C1954 1.478 . S
C1956 C1958 1.381 . S
C1956 C1962 1.383 . S
C1957 C1953 1.495 . S
C1957 H1963 0.959 . S
C1957 H1964 0.961 . S
C1957 H1965 0.960 . S
C1958 C1956 1.381 . S
C1958 C1959 1.394 . S
C1958 H1966 0.930 . S
C1959 C1958 1.394 . S
C1959 C1960 1.383 . S
C1959 H1967 0.929 . S
C1960 C1959 1.383 . S
C1960 C1961 1.377 . S
C1961 H1945 0.930 . S
C1961 C1960 1.377 . S
C1961 C1962 1.379 . S
C1962 H1946 0.931 . S
C1962 C1956 1.383 . S
C1962 C1961 1.379 . S
H1963 C1957 0.959 . S
H1964 C1957 0.961 . S
H1965 C1957 0.960 . S
H1966 C1958 0.930 . S
H1967 C1959 0.929 . S
H1968 C1976 0.929 . S
H1969 C1978 0.930 . S
H1970 C1980 0.930 . S
H1971 C1983 0.929 . S
H1972 C1986 0.930 . S
H1973 C1988 0.960 . S
H1974 C1988 0.960 . S
H1975 C1988 0.960 . S
C1976 H1968 0.929 . S
C1976 C1977 1.377 . S
C1976 C1978 1.384 . S
C1977 C1976 1.377 . S
C1977 C1983 1.390 . S
C1978 H1969 0.930 . S
C1978 C1976 1.384 . S
C1978 C1979 1.372 . S
C1979 C1978 1.372 . S
C1979 C1980 1.400 . S
C1979 C1984 1.490 . S
C1980 H1970 0.930 . S
C1980 C1979 1.400 . S
C1980 C1983 1.386 . S
H1981 C1997 0.930 . S
H1982 C1998 0.931 . S
C1983 H1971 0.929 . S
C1983 C1977 1.390 . S
C1983 C1980 1.386 . S
C1984 C1979 1.490 . S
C1984 C1986 1.395 . S
C1984 C1987 1.403 . S
H1985 C1991 0.930 . S
C1986 H1972 0.930 . S
C1986 C1984 1.395 . S
C1986 C1989 1.403 . S
C1987 C1984 1.403 . S
C1987 C1988 1.524 . S
C1987 C1991 1.400 . S
C1988 H1973 0.960 . S
C1988 H1974 0.960 . S
C1988 H1975 0.960 . S
C1988 C1987 1.524 . S
C1989 C1986 1.403 . S
C1989 C1990 1.392 . S
C1989 C1993 1.495 . S
C1990 C1989 1.392 . S
C1990 C1991 1.385 . S
C1990 C1992 1.478 . S
C1991 H1985 0.930 . S
C1991 C1987 1.400 . S
C1991 C1990 1.385 . S
C1992 C1990 1.478 . S
C1992 C1994 1.381 . S
C1992 C1998 1.383 . S
C1993 C1989 1.495 . S
C1993 H1999 0.959 . S
C1993 H2000 0.961 . S
C1993 H2001 0.960 . S
C1994 C1992 1.381 . S
C1994 C1995 1.394 . S
C1994 H2002 0.930 . S
C1995 C1994 1.394 . S
C1995 C1996 1.383 . S
C1995 H2003 0.929 . S
C1996 C1995 1.383 . S
C1996 C1997 1.377 . S
C1997 H1981 0.930 . S
C1997 C1996 1.377 . S
C1997 C1998 1.379 . S
C1998 H1982 0.931 . S
C1998 C1992 1.383 . S
C1998 C1997 1.379 . S
H1999 C1993 0.959 . S
H2000 C1993 0.961 . S
H2001 C1993 0.960 . S
H2002 C1994 0.930 . S
H2003 C1995 0.929 . S
H2004 C2012 0.929 . S
H2005 C2014 0.930 . S
H2006 C2016 0.930 . S
H2007 C2019 0.929 . S
H2008 C2022 0.930 . S
H2009 C2024 0.960 . S
H2010 C2024 0.960 . S
H2011 C2024 0.960 . S
C2012 H2004 0.929 . S
C2012 C2013 1.377 . S
C2012 C2014 1.384 . S
C2013 C2012 1.377 . S
C2013 C2019 1.390 . S
C2014 H2005 0.930 . S
C2014 C2012 1.384 . S
C2014 C2015 1.372 . S
C2015 C2014 1.372 . S
C2015 C2016 1.400 . S
C2015 C2020 1.490 . S
C2016 H2006 0.930 . S
C2016 C2015 1.400 . S
C2016 C2019 1.386 . S
H2017 C2033 0.930 . S
H2018 C2034 0.931 . S
C2019 H2007 0.929 . S
C2019 C2013 1.390 . S
C2019 C2016 1.386 . S
C2020 C2015 1.490 . S
C2020 C2022 1.395 . S
C2020 C2023 1.403 . S
H2021 C2027 0.930 . S
C2022 H2008 0.930 . S
C2022 C2020 1.395 . S
C2022 C2025 1.403 . S
C2023 C2020 1.403 . S
C2023 C2024 1.524 . S
C2023 C2027 1.400 . S
C2024 H2009 0.960 . S
C2024 H2010 0.960 . S
C2024 H2011 0.960 . S
C2024 C2023 1.524 . S
C2025 C2022 1.403 . S
C2025 C2026 1.392 . S
C2025 C2029 1.495 . S
C2026 C2025 1.392 . S
C2026 C2027 1.385 . S
C2026 C2028 1.478 . S
C2027 H2021 0.930 . S
C2027 C2023 1.400 . S
C2027 C2026 1.385 . S
C2028 C2026 1.478 . S
C2028 C2030 1.381 . S
C2028 C2034 1.383 . S
C2029 C2025 1.495 . S
C2029 H2035 0.959 . S
C2029 H2036 0.961 . S
C2029 H2037 0.960 . S
C2030 C2028 1.381 . S
C2030 C2031 1.394 . S
C2030 H2038 0.930 . S
C2031 C2030 1.394 . S
C2031 C2032 1.383 . S
C2031 H2039 0.929 . S
C2032 C2031 1.383 . S
C2032 C2033 1.377 . S
C2033 H2017 0.930 . S
C2033 C2032 1.377 . S
C2033 C2034 1.379 . S
C2034 H2018 0.931 . S
C2034 C2028 1.383 . S
C2034 C2033 1.379 . S
H2035 C2029 0.959 . S
H2036 C2029 0.961 . S
H2037 C2029 0.960 . S
H2038 C2030 0.930 . S
H2039 C2031 0.929 . S
H2040 C2048 0.929 . S
H2041 C2050 0.930 . S
H2042 C2052 0.930 . S
H2043 C2055 0.929 . S
H2044 C2058 0.930 . S
H2045 C2060 0.960 . S
H2046 C2060 0.960 . S
H2047 C2060 0.960 . S
C2048 H2040 0.929 . S
C2048 C2049 1.377 . S
C2048 C2050 1.384 . S
C2049 C2048 1.377 . S
C2049 C2055 1.390 . S
C2050 H2041 0.930 . S
C2050 C2048 1.384 . S
C2050 C2051 1.372 . S
C2051 C2050 1.372 . S
C2051 C2052 1.400 . S
C2051 C2056 1.490 . S
C2052 H2042 0.930 . S
C2052 C2051 1.400 . S
C2052 C2055 1.386 . S
H2053 C2069 0.930 . S
H2054 C2070 0.931 . S
C2055 H2043 0.929 . S
C2055 C2049 1.390 . S
C2055 C2052 1.386 . S
C2056 C2051 1.490 . S
C2056 C2058 1.395 . S
C2056 C2059 1.403 . S
H2057 C2063 0.930 . S
C2058 H2044 0.930 . S
C2058 C2056 1.395 . S
C2058 C2061 1.403 . S
C2059 C2056 1.403 . S
C2059 C2060 1.524 . S
C2059 C2063 1.400 . S
C2060 H2045 0.960 . S
C2060 H2046 0.960 . S
C2060 H2047 0.960 . S
C2060 C2059 1.524 . S
C2061 C2058 1.403 . S
C2061 C2062 1.392 . S
C2061 C2065 1.495 . S
C2062 C2061 1.392 . S
C2062 C2063 1.385 . S
C2062 C2064 1.478 . S
C2063 H2057 0.930 . S
C2063 C2059 1.400 . S
C2063 C2062 1.385 . S
C2064 C2062 1.478 . S
C2064 C2066 1.381 . S
C2064 C2070 1.383 . S
C2065 C2061 1.495 . S
C2065 H2071 0.959 . S
C2065 H2072 0.961 . S
C2065 H2073 0.960 . S
C2066 C2064 1.381 . S
C2066 C2067 1.394 . S
C2066 H2074 0.930 . S
C2067 C2066 1.394 . S
C2067 C2068 1.383 . S
C2067 H2075 0.929 . S
C2068 C2067 1.383 . S
C2068 C2069 1.377 . S
C2069 H2053 0.930 . S
C2069 C2068 1.377 . S
C2069 C2070 1.379 . S
C2070 H2054 0.931 . S
C2070 C2064 1.383 . S
C2070 C2069 1.379 . S
H2071 C2065 0.959 . S
H2072 C2065 0.961 . S
H2073 C2065 0.960 . S
H2074 C2066 0.930 . S
H2075 C2067 0.929 . S
H2076 C2084 0.929 . S
H2077 C2086 0.930 . S
H2078 C2088 0.930 . S
H2079 C2091 0.929 . S
H2080 C2094 0.930 . S
H2081 C2096 0.960 . S
H2082 C2096 0.960 . S
H2083 C2096 0.960 . S
C2084 H2076 0.929 . S
C2084 C2085 1.377 . S
C2084 C2086 1.384 . S
C2085 C2084 1.377 . S
C2085 C2091 1.390 . S
C2086 H2077 0.930 . S
C2086 C2084 1.384 . S
C2086 C2087 1.372 . S
C2087 C2086 1.372 . S
C2087 C2088 1.400 . S
C2087 C2092 1.490 . S
C2088 H2078 0.930 . S
C2088 C2087 1.400 . S
C2088 C2091 1.386 . S
H2089 C2105 0.930 . S
H2090 C2106 0.931 . S
C2091 H2079 0.929 . S
C2091 C2085 1.390 . S
C2091 C2088 1.386 . S
C2092 C2087 1.490 . S
C2092 C2094 1.395 . S
C2092 C2095 1.403 . S
H2093 C2099 0.930 . S
C2094 H2080 0.930 . S
C2094 C2092 1.395 . S
C2094 C2097 1.403 . S
C2095 C2092 1.403 . S
C2095 C2096 1.524 . S
C2095 C2099 1.400 . S
C2096 H2081 0.960 . S
C2096 H2082 0.960 . S
C2096 H2083 0.960 . S
C2096 C2095 1.524 . S
C2097 C2094 1.403 . S
C2097 C2098 1.392 . S
C2097 C2101 1.495 . S
C2098 C2097 1.392 . S
C2098 C2099 1.385 . S
C2098 C2100 1.478 . S
C2099 H2093 0.930 . S
C2099 C2095 1.400 . S
C2099 C2098 1.385 . S
C2100 C2098 1.478 . S
C2100 C2102 1.381 . S
C2100 C2106 1.383 . S
C2101 C2097 1.495 . S
C2101 H2107 0.959 . S
C2101 H2108 0.961 . S
C2101 H2109 0.960 . S
C2102 C2100 1.381 . S
C2102 C2103 1.394 . S
C2102 H2110 0.930 . S
C2103 C2102 1.394 . S
C2103 C2104 1.383 . S
C2103 H2111 0.929 . S
C2104 C2103 1.383 . S
C2104 C2105 1.377 . S
C2105 H2089 0.930 . S
C2105 C2104 1.377 . S
C2105 C2106 1.379 . S
C2106 H2090 0.931 . S
C2106 C2100 1.383 . S
C2106 C2105 1.379 . S
H2107 C2101 0.959 . S
H2108 C2101 0.961 . S
H2109 C2101 0.960 . S
H2110 C2102 0.930 . S
H2111 C2103 0.929 . S
H2112 C2120 0.929 . S
H2113 C2122 0.930 . S
H2114 C2124 0.930 . S
H2115 C2127 0.929 . S
H2116 C2130 0.930 . S
H2117 C2132 0.960 . S
H2118 C2132 0.960 . S
H2119 C2132 0.960 . S
C2120 H2112 0.929 . S
C2120 C2121 1.377 . S
C2120 C2122 1.384 . S
C2121 C2120 1.377 . S
C2121 C2127 1.390 . S
C2122 H2113 0.930 . S
C2122 C2120 1.384 . S
C2122 C2123 1.372 . S
C2123 C2122 1.372 . S
C2123 C2124 1.400 . S
C2123 C2128 1.490 . S
C2124 H2114 0.930 . S
C2124 C2123 1.400 . S
C2124 C2127 1.386 . S
H2125 C2141 0.930 . S
H2126 C2142 0.931 . S
C2127 H2115 0.929 . S
C2127 C2121 1.390 . S
C2127 C2124 1.386 . S
C2128 C2123 1.490 . S
C2128 C2130 1.395 . S
C2128 C2131 1.403 . S
H2129 C2135 0.930 . S
C2130 H2116 0.930 . S
C2130 C2128 1.395 . S
C2130 C2133 1.403 . S
C2131 C2128 1.403 . S
C2131 C2132 1.524 . S
C2131 C2135 1.400 . S
C2132 H2117 0.960 . S
C2132 H2118 0.960 . S
C2132 H2119 0.960 . S
C2132 C2131 1.524 . S
C2133 C2130 1.403 . S
C2133 C2134 1.392 . S
C2133 C2137 1.495 . S
C2134 C2133 1.392 . S
C2134 C2135 1.385 . S
C2134 C2136 1.478 . S
C2135 H2129 0.930 . S
C2135 C2131 1.400 . S
C2135 C2134 1.385 . S
C2136 C2134 1.478 . S
C2136 C2138 1.381 . S
C2136 C2142 1.383 . S
C2137 C2133 1.495 . S
C2137 H2143 0.959 . S
C2137 H2144 0.961 . S
C2137 H2145 0.960 . S
C2138 C2136 1.381 . S
C2138 C2139 1.394 . S
C2138 H2146 0.930 . S
C2139 C2138 1.394 . S
C2139 C2140 1.383 . S
C2139 H2147 0.929 . S
C2140 C2139 1.383 . S
C2140 C2141 1.377 . S
C2141 H2125 0.930 . S
C2141 C2140 1.377 . S
C2141 C2142 1.379 . S
C2142 H2126 0.931 . S
C2142 C2136 1.383 . S
C2142 C2141 1.379 . S
H2143 C2137 0.959 . S
H2144 C2137 0.961 . S
H2145 C2137 0.960 . S
H2146 C2138 0.930 . S
H2147 C2139 0.929 . S
H2148 C2156 0.929 . S
H2149 C2158 0.930 . S
H2150 C2160 0.930 . S
H2151 C2163 0.929 . S
H2152 C2166 0.930 . S
H2153 C2168 0.960 . S
H2154 C2168 0.960 . S
H2155 C2168 0.960 . S
C2156 H2148 0.929 . S
C2156 C2157 1.377 . S
C2156 C2158 1.384 . S
C2157 C2156 1.377 . S
C2157 C2163 1.390 . S
C2158 H2149 0.930 . S
C2158 C2156 1.384 . S
C2158 C2159 1.372 . S
C2159 C2158 1.372 . S
C2159 C2160 1.400 . S
C2159 C2164 1.490 . S
C2160 H2150 0.930 . S
C2160 C2159 1.400 . S
C2160 C2163 1.386 . S
H2161 C2177 0.930 . S
H2162 C2178 0.931 . S
C2163 H2151 0.929 . S
C2163 C2157 1.390 . S
C2163 C2160 1.386 . S
C2164 C2159 1.490 . S
C2164 C2166 1.395 . S
C2164 C2167 1.403 . S
H2165 C2171 0.930 . S
C2166 H2152 0.930 . S
C2166 C2164 1.395 . S
C2166 C2169 1.403 . S
C2167 C2164 1.403 . S
C2167 C2168 1.524 . S
C2167 C2171 1.400 . S
C2168 H2153 0.960 . S
C2168 H2154 0.960 . S
C2168 H2155 0.960 . S
C2168 C2167 1.524 . S
C2169 C2166 1.403 . S
C2169 C2170 1.392 . S
C2169 C2173 1.495 . S
C2170 C2169 1.392 . S
C2170 C2171 1.385 . S
C2170 C2172 1.478 . S
C2171 H2165 0.930 . S
C2171 C2167 1.400 . S
C2171 C2170 1.385 . S
C2172 C2170 1.478 . S
C2172 C2174 1.381 . S
C2172 C2178 1.383 . S
C2173 C2169 1.495 . S
C2173 H2179 0.959 . S
C2173 H2180 0.961 . S
C2173 H2181 0.960 . S
C2174 C2172 1.381 . S
C2174 C2175 1.394 . S
C2174 H2182 0.930 . S
C2175 C2174 1.394 . S
C2175 C2176 1.383 . S
C2175 H2183 0.929 . S
C2176 C2175 1.383 . S
C2176 C2177 1.377 . S
C2177 H2161 0.930 . S
C2177 C2176 1.377 . S
C2177 C2178 1.379 . S
C2178 H2162 0.931 . S
C2178 C2172 1.383 . S
C2178 C2177 1.379 . S
H2179 C2173 0.959 . S
H2180 C2173 0.961 . S
H2181 C2173 0.960 . S
H2182 C2174 0.930 . S
H2183 C2175 0.929 . S
H2184 C2192 0.929 . S
H2185 C2194 0.930 . S
H2186 C2196 0.930 . S
H2187 C2199 0.929 . S
H2188 C2202 0.930 . S
H2189 C2204 0.960 . S
H2190 C2204 0.960 . S
H2191 C2204 0.960 . S
C2192 H2184 0.929 . S
C2192 C2193 1.377 . S
C2192 C2194 1.384 . S
C2193 C2192 1.377 . S
C2193 C2199 1.390 . S
C2194 H2185 0.930 . S
C2194 C2192 1.384 . S
C2194 C2195 1.372 . S
C2195 C2194 1.372 . S
C2195 C2196 1.400 . S
C2195 C2200 1.490 . S
C2196 H2186 0.930 . S
C2196 C2195 1.400 . S
C2196 C2199 1.386 . S
H2197 C2213 0.930 . S
H2198 C2214 0.931 . S
C2199 H2187 0.929 . S
C2199 C2193 1.390 . S
C2199 C2196 1.386 . S
C2200 C2195 1.490 . S
C2200 C2202 1.395 . S
C2200 C2203 1.403 . S
H2201 C2207 0.930 . S
C2202 H2188 0.930 . S
C2202 C2200 1.395 . S
C2202 C2205 1.403 . S
C2203 C2200 1.403 . S
C2203 C2204 1.524 . S
C2203 C2207 1.400 . S
C2204 H2189 0.960 . S
C2204 H2190 0.960 . S
C2204 H2191 0.960 . S
C2204 C2203 1.524 . S
C2205 C2202 1.403 . S
C2205 C2206 1.392 . S
C2205 C2209 1.495 . S
C2206 C2205 1.392 . S
C2206 C2207 1.385 . S
C2206 C2208 1.478 . S
C2207 H2201 0.930 . S
C2207 C2203 1.400 . S
C2207 C2206 1.385 . S
C2208 C2206 1.478 . S
C2208 C2210 1.381 . S
C2208 C2214 1.383 . S
C2209 C2205 1.495 . S
C2209 H2215 0.959 . S
C2209 H2216 0.961 . S
C2209 H2217 0.960 . S
C2210 C2208 1.381 . S
C2210 C2211 1.394 . S
C2210 H2218 0.930 . S
C2211 C2210 1.394 . S
C2211 C2212 1.383 . S
C2211 H2219 0.929 . S
C2212 C2211 1.383 . S
C2212 C2213 1.377 . S
C2213 H2197 0.930 . S
C2213 C2212 1.377 . S
C2213 C2214 1.379 . S
C2214 H2198 0.931 . S
C2214 C2208 1.383 . S
C2214 C2213 1.379 . S
H2215 C2209 0.959 . S
H2216 C2209 0.961 . S
H2217 C2209 0.960 . S
H2218 C2210 0.930 . S
H2219 C2211 0.929 . S
H2220 C2228 0.929 . S
H2221 C2230 0.930 . S
H2222 C2232 0.930 . S
H2223 C2235 0.929 . S
H2224 C2238 0.930 . S
H2225 C2240 0.960 . S
H2226 C2240 0.960 . S
H2227 C2240 0.960 . S
C2228 H2220 0.929 . S
C2228 C2229 1.377 . S
C2228 C2230 1.384 . S
C2229 C2228 1.377 . S
C2229 C2235 1.390 . S
C2230 H2221 0.930 . S
C2230 C2228 1.384 . S
C2230 C2231 1.372 . S
C2231 C2230 1.372 . S
C2231 C2232 1.400 . S
C2231 C2236 1.490 . S
C2232 H2222 0.930 . S
C2232 C2231 1.400 . S
C2232 C2235 1.386 . S
H2233 C2249 0.930 . S
H2234 C2250 0.931 . S
C2235 H2223 0.929 . S
C2235 C2229 1.390 . S
C2235 C2232 1.386 . S
C2236 C2231 1.490 . S
C2236 C2238 1.395 . S
C2236 C2239 1.403 . S
H2237 C2243 0.930 . S
C2238 H2224 0.930 . S
C2238 C2236 1.395 . S
C2238 C2241 1.403 . S
C2239 C2236 1.403 . S
C2239 C2240 1.524 . S
C2239 C2243 1.400 . S
C2240 H2225 0.960 . S
C2240 H2226 0.960 . S
C2240 H2227 0.960 . S
C2240 C2239 1.524 . S
C2241 C2238 1.403 . S
C2241 C2242 1.392 . S
C2241 C2245 1.495 . S
C2242 C2241 1.392 . S
C2242 C2243 1.385 . S
C2242 C2244 1.478 . S
C2243 H2237 0.930 . S
C2243 C2239 1.400 . S
C2243 C2242 1.385 . S
C2244 C2242 1.478 . S
C2244 C2246 1.381 . S
C2244 C2250 1.383 . S
C2245 C2241 1.495 . S
C2245 H2251 0.959 . S
C2245 H2252 0.961 . S
C2245 H2253 0.960 . S
C2246 C2244 1.381 . S
C2246 C2247 1.394 . S
C2246 H2254 0.930 . S
C2247 C2246 1.394 . S
C2247 C2248 1.383 . S
C2247 H2255 0.929 . S
C2248 C2247 1.383 . S
C2248 C2249 1.377 . S
C2249 H2233 0.930 . S
C2249 C2248 1.377 . S
C2249 C2250 1.379 . S
C2250 H2234 0.931 . S
C2250 C2244 1.383 . S
C2250 C2249 1.379 . S
H2251 C2245 0.959 . S
H2252 C2245 0.961 . S
H2253 C2245 0.960 . S
H2254 C2246 0.930 . S
H2255 C2247 0.929 . S
H2256 C2264 0.929 . S
H2257 C2266 0.930 . S
H2258 C2268 0.930 . S
H2259 C2271 0.929 . S
H2260 C2274 0.930 . S
H2261 C2276 0.960 . S
H2262 C2276 0.960 . S
H2263 C2276 0.960 . S
C2264 H2256 0.929 . S
C2264 C2265 1.377 . S
C2264 C2266 1.384 . S
C2265 C2264 1.377 . S
C2265 C2271 1.390 . S
C2266 H2257 0.930 . S
C2266 C2264 1.384 . S
C2266 C2267 1.372 . S
C2267 C2266 1.372 . S
C2267 C2268 1.400 . S
C2267 C2272 1.490 . S
C2268 H2258 0.930 . S
C2268 C2267 1.400 . S
C2268 C2271 1.386 . S
H2269 C2285 0.930 . S
H2270 C2286 0.931 . S
C2271 H2259 0.929 . S
C2271 C2265 1.390 . S
C2271 C2268 1.386 . S
C2272 C2267 1.490 . S
C2272 C2274 1.395 . S
C2272 C2275 1.403 . S
H2273 C2279 0.930 . S
C2274 H2260 0.930 . S
C2274 C2272 1.395 . S
C2274 C2277 1.403 . S
C2275 C2272 1.403 . S
C2275 C2276 1.524 . S
C2275 C2279 1.400 . S
C2276 H2261 0.960 . S
C2276 H2262 0.960 . S
C2276 H2263 0.960 . S
C2276 C2275 1.524 . S
C2277 C2274 1.403 . S
C2277 C2278 1.392 . S
C2277 C2281 1.495 . S
C2278 C2277 1.392 . S
C2278 C2279 1.385 . S
C2278 C2280 1.478 . S
C2279 H2273 0.930 . S
C2279 C2275 1.400 . S
C2279 C2278 1.385 . S
C2280 C2278 1.478 . S
C2280 C2282 1.381 . S
C2280 C2286 1.383 . S
C2281 C2277 1.495 . S
C2281 H2287 0.959 . S
C2281 H2288 0.961 . S
C2281 H2289 0.960 . S
C2282 C2280 1.381 . S
C2282 C2283 1.394 . S
C2282 H2290 0.930 . S
C2283 C2282 1.394 . S
C2283 C2284 1.383 . S
C2283 H2291 0.929 . S
C2284 C2283 1.383 . S
C2284 C2285 1.377 . S
C2285 H2269 0.930 . S
C2285 C2284 1.377 . S
C2285 C2286 1.379 . S
C2286 H2270 0.931 . S
C2286 C2280 1.383 . S
C2286 C2285 1.379 . S
H2287 C2281 0.959 . S
H2288 C2281 0.961 . S
H2289 C2281 0.960 . S
H2290 C2282 0.930 . S
H2291 C2283 0.929 . S
H2292 C2300 0.929 . S
H2293 C2302 0.930 . S
H2294 C2304 0.930 . S
H2295 C2307 0.929 . S
H2296 C2310 0.930 . S
H2297 C2312 0.960 . S
H2298 C2312 0.960 . S
H2299 C2312 0.960 . S
C2300 H2292 0.929 . S
C2300 C2301 1.377 . S
C2300 C2302 1.384 . S
C2301 C2300 1.377 . S
C2301 C2307 1.390 . S
C2302 H2293 0.930 . S
C2302 C2300 1.384 . S
C2302 C2303 1.372 . S
C2303 C2302 1.372 . S
C2303 C2304 1.400 . S
C2303 C2308 1.490 . S
C2304 H2294 0.930 . S
C2304 C2303 1.400 . S
C2304 C2307 1.386 . S
H2305 C2321 0.930 . S
H2306 C2322 0.931 . S
C2307 H2295 0.929 . S
C2307 C2301 1.390 . S
C2307 C2304 1.386 . S
C2308 C2303 1.490 . S
C2308 C2310 1.395 . S
C2308 C2311 1.403 . S
H2309 C2315 0.930 . S
C2310 H2296 0.930 . S
C2310 C2308 1.395 . S
C2310 C2313 1.403 . S
C2311 C2308 1.403 . S
C2311 C2312 1.524 . S
C2311 C2315 1.400 . S
C2312 H2297 0.960 . S
C2312 H2298 0.960 . S
C2312 H2299 0.960 . S
C2312 C2311 1.524 . S
C2313 C2310 1.403 . S
C2313 C2314 1.392 . S
C2313 C2317 1.495 . S
C2314 C2313 1.392 . S
C2314 C2315 1.385 . S
C2314 C2316 1.478 . S
C2315 H2309 0.930 . S
C2315 C2311 1.400 . S
C2315 C2314 1.385 . S
C2316 C2314 1.478 . S
C2316 C2318 1.381 . S
C2316 C2322 1.383 . S
C2317 C2313 1.495 . S
C2317 H2323 0.959 . S
C2317 H2324 0.961 . S
C2317 H2325 0.960 . S
C2318 C2316 1.381 . S
C2318 C2319 1.394 . S
C2318 H2326 0.930 . S
C2319 C2318 1.394 . S
C2319 C2320 1.383 . S
C2319 H2327 0.929 . S
C2320 C2319 1.383 . S
C2320 C2321 1.377 . S
C2321 H2305 0.930 . S
C2321 C2320 1.377 . S
C2321 C2322 1.379 . S
C2322 H2306 0.931 . S
C2322 C2316 1.383 . S
C2322 C2321 1.379 . S
H2323 C2317 0.959 . S
H2324 C2317 0.961 . S
H2325 C2317 0.960 . S
H2326 C2318 0.930 . S
H2327 C2319 0.929 . S
H2328 C2336 0.929 . S
H2329 C2338 0.930 . S
H2330 C2340 0.930 . S
H2331 C2343 0.929 . S
H2332 C2346 0.930 . S
H2333 C2348 0.960 . S
H2334 C2348 0.960 . S
H2335 C2348 0.960 . S
C2336 H2328 0.929 . S
C2336 C2337 1.377 . S
C2336 C2338 1.384 . S
C2337 C2336 1.377 . S
C2337 C2343 1.390 . S
C2338 H2329 0.930 . S
C2338 C2336 1.384 . S
C2338 C2339 1.372 . S
C2339 C2338 1.372 . S
C2339 C2340 1.400 . S
C2339 C2344 1.490 . S
C2340 H2330 0.930 . S
C2340 C2339 1.400 . S
C2340 C2343 1.386 . S
H2341 C2357 0.930 . S
H2342 C2358 0.931 . S
C2343 H2331 0.929 . S
C2343 C2337 1.390 . S
C2343 C2340 1.386 . S
C2344 C2339 1.490 . S
C2344 C2346 1.395 . S
C2344 C2347 1.403 . S
H2345 C2351 0.930 . S
C2346 H2332 0.930 . S
C2346 C2344 1.395 . S
C2346 C2349 1.403 . S
C2347 C2344 1.403 . S
C2347 C2348 1.524 . S
C2347 C2351 1.400 . S
C2348 H2333 0.960 . S
C2348 H2334 0.960 . S
C2348 H2335 0.960 . S
C2348 C2347 1.524 . S
C2349 C2346 1.403 . S
C2349 C2350 1.392 . S
C2349 C2353 1.495 . S
C2350 C2349 1.392 . S
C2350 C2351 1.385 . S
C2350 C2352 1.478 . S
C2351 H2345 0.930 . S
C2351 C2347 1.400 . S
C2351 C2350 1.385 . S
C2352 C2350 1.478 . S
C2352 C2354 1.381 . S
C2352 C2358 1.383 . S
C2353 C2349 1.495 . S
C2353 H2359 0.959 . S
C2353 H2360 0.961 . S
C2353 H2361 0.960 . S
C2354 C2352 1.381 . S
C2354 C2355 1.394 . S
C2354 H2362 0.930 . S
C2355 C2354 1.394 . S
C2355 C2356 1.383 . S
C2355 H2363 0.929 . S
C2356 C2355 1.383 . S
C2356 C2357 1.377 . S
C2357 H2341 0.930 . S
C2357 C2356 1.377 . S
C2357 C2358 1.379 . S
C2358 H2342 0.931 . S
C2358 C2352 1.383 . S
C2358 C2357 1.379 . S
H2359 C2353 0.959 . S
H2360 C2353 0.961 . S
H2361 C2353 0.960 . S
H2362 C2354 0.930 . S
H2363 C2355 0.929 . S
H2364 C2372 0.929 . S
H2365 C2374 0.930 . S
H2366 C2376 0.930 . S
H2367 C2379 0.929 . S
H2368 C2382 0.930 . S
H2369 C2384 0.960 . S
H2370 C2384 0.960 . S
H2371 C2384 0.960 . S
C2372 H2364 0.929 . S
C2372 C2373 1.377 . S
C2372 C2374 1.384 . S
C2373 C2372 1.377 . S
C2373 C2379 1.390 . S
C2374 H2365 0.930 . S
C2374 C2372 1.384 . S
C2374 C2375 1.372 . S
C2375 C2374 1.372 . S
C2375 C2376 1.400 . S
C2375 C2380 1.490 . S
C2376 H2366 0.930 . S
C2376 C2375 1.400 . S
C2376 C2379 1.386 . S
H2377 C2393 0.930 . S
H2378 C2394 0.931 . S
C2379 H2367 0.929 . S
C2379 C2373 1.390 . S
C2379 C2376 1.386 . S
C2380 C2375 1.490 . S
C2380 C2382 1.395 . S
C2380 C2383 1.403 . S
H2381 C2387 0.930 . S
C2382 H2368 0.930 . S
C2382 C2380 1.395 . S
C2382 C2385 1.403 . S
C2383 C2380 1.403 . S
C2383 C2384 1.524 . S
C2383 C2387 1.400 . S
C2384 H2369 0.960 . S
C2384 H2370 0.960 . S
C2384 H2371 0.960 . S
C2384 C2383 1.524 . S
C2385 C2382 1.403 . S
C2385 C2386 1.392 . S
C2385 C2389 1.495 . S
C2386 C2385 1.392 . S
C2386 C2387 1.385 . S
C2386 C2388 1.478 . S
C2387 H2381 0.930 . S
C2387 C2383 1.400 . S
C2387 C2386 1.385 . S
C2388 C2386 1.478 . S
C2388 C2390 1.381 . S
C2388 C2394 1.383 . S
C2389 C2385 1.495 . S
C2389 H2395 0.959 . S
C2389 H2396 0.961 . S
C2389 H2397 0.960 . S
C2390 C2388 1.381 . S
C2390 C2391 1.394 . S
C2390 H2398 0.930 . S
C2391 C2390 1.394 . S
C2391 C2392 1.383 . S
C2391 H2399 0.929 . S
C2392 C2391 1.383 . S
C2392 C2393 1.377 . S
C2393 H2377 0.930 . S
C2393 C2392 1.377 . S
C2393 C2394 1.379 . S
C2394 H2378 0.931 . S
C2394 C2388 1.383 . S
C2394 C2393 1.379 . S
H2395 C2389 0.959 . S
H2396 C2389 0.961 . S
H2397 C2389 0.960 . S
H2398 C2390 0.930 . S
H2399 C2391 0.929 . S
H2400 C2408 0.929 . S
H2401 C2410 0.930 . S
H2402 C2412 0.930 . S
H2403 C2415 0.929 . S
H2404 C2418 0.930 . S
H2405 C2420 0.960 . S
H2406 C2420 0.960 . S
H2407 C2420 0.960 . S
C2408 H2400 0.929 . S
C2408 C2409 1.377 . S
C2408 C2410 1.384 . S
C2409 C2408 1.377 . S
C2409 C2415 1.390 . S
C2410 H2401 0.930 . S
C2410 C2408 1.384 . S
C2410 C2411 1.372 . S
C2411 C2410 1.372 . S
C2411 C2412 1.400 . S
C2411 C2416 1.490 . S
C2412 H2402 0.930 . S
C2412 C2411 1.400 . S
C2412 C2415 1.386 . S
H2413 C2429 0.930 . S
H2414 C2430 0.931 . S
C2415 H2403 0.929 . S
C2415 C2409 1.390 . S
C2415 C2412 1.386 . S
C2416 C2411 1.490 . S
C2416 C2418 1.395 . S
C2416 C2419 1.403 . S
H2417 C2423 0.930 . S
C2418 H2404 0.930 . S
C2418 C2416 1.395 . S
C2418 C2421 1.403 . S
C2419 C2416 1.403 . S
C2419 C2420 1.524 . S
C2419 C2423 1.400 . S
C2420 H2405 0.960 . S
C2420 H2406 0.960 . S
C2420 H2407 0.960 . S
C2420 C2419 1.524 . S
C2421 C2418 1.403 . S
C2421 C2422 1.392 . S
C2421 C2425 1.495 . S
C2422 C2421 1.392 . S
C2422 C2423 1.385 . S
C2422 C2424 1.478 . S
C2423 H2417 0.930 . S
C2423 C2419 1.400 . S
C2423 C2422 1.385 . S
C2424 C2422 1.478 . S
C2424 C2426 1.381 . S
C2424 C2430 1.383 . S
C2425 C2421 1.495 . S
C2425 H2431 0.959 . S
C2425 H2432 0.961 . S
C2425 H2433 0.960 . S
C2426 C2424 1.381 . S
C2426 C2427 1.394 . S
C2426 H2434 0.930 . S
C2427 C2426 1.394 . S
C2427 C2428 1.383 . S
C2427 H2435 0.929 . S
C2428 C2427 1.383 . S
C2428 C2429 1.377 . S
C2429 H2413 0.930 . S
C2429 C2428 1.377 . S
C2429 C2430 1.379 . S
C2430 H2414 0.931 . S
C2430 C2424 1.383 . S
C2430 C2429 1.379 . S
H2431 C2425 0.959 . S
H2432 C2425 0.961 . S
H2433 C2425 0.960 . S
H2434 C2426 0.930 . S
H2435 C2427 0.929 . S
H2436 C2444 0.929 . S
H2437 C2446 0.930 . S
H2438 C2448 0.930 . S
H2439 C2451 0.929 . S
H2440 C2454 0.930 . S
H2441 C2456 0.960 . S
H2442 C2456 0.960 . S
H2443 C2456 0.960 . S
C2444 H2436 0.929 . S
C2444 C2445 1.377 . S
C2444 C2446 1.384 . S
C2445 C2444 1.377 . S
C2445 C2451 1.390 . S
C2446 H2437 0.930 . S
C2446 C2444 1.384 . S
C2446 C2447 1.372 . S
C2447 C2446 1.372 . S
C2447 C2448 1.400 . S
C2447 C2452 1.490 . S
C2448 H2438 0.930 . S
C2448 C2447 1.400 . S
C2448 C2451 1.386 . S
H2449 C2465 0.930 . S
H2450 C2466 0.931 . S
C2451 H2439 0.929 . S
C2451 C2445 1.390 . S
C2451 C2448 1.386 . S
C2452 C2447 1.490 . S
C2452 C2454 1.395 . S
C2452 C2455 1.403 . S
H2453 C2459 0.930 . S
C2454 H2440 0.930 . S
C2454 C2452 1.395 . S
C2454 C2457 1.403 . S
C2455 C2452 1.403 . S
C2455 C2456 1.524 . S
C2455 C2459 1.400 . S
C2456 H2441 0.960 . S
C2456 H2442 0.960 . S
C2456 H2443 0.960 . S
C2456 C2455 1.524 . S
C2457 C2454 1.403 . S
C2457 C2458 1.392 . S
C2457 C2461 1.495 . S
C2458 C2457 1.392 . S
C2458 C2459 1.385 . S
C2458 C2460 1.478 . S
C2459 H2453 0.930 . S
C2459 C2455 1.400 . S
C2459 C2458 1.385 . S
C2460 C2458 1.478 . S
C2460 C2462 1.381 . S
C2460 C2466 1.383 . S
C2461 C2457 1.495 . S
C2461 H2467 0.959 . S
C2461 H2468 0.961 . S
C2461 H2469 0.960 . S
C2462 C2460 1.381 . S
C2462 C2463 1.394 . S
C2462 H2470 0.930 . S
C2463 C2462 1.394 . S
C2463 C2464 1.383 . S
C2463 H2471 0.929 . S
C2464 C2463 1.383 . S
C2464 C2465 1.377 . S
C2465 H2449 0.930 . S
C2465 C2464 1.377 . S
C2465 C2466 1.379 . S
C2466 H2450 0.931 . S
C2466 C2460 1.383 . S
C2466 C2465 1.379 . S
H2467 C2461 0.959 . S
H2468 C2461 0.961 . S
H2469 C2461 0.960 . S
H2470 C2462 0.930 . S
H2471 C2463 0.929 . S
H2472 C2480 0.929 . S
H2473 C2482 0.930 . S
H2474 C2484 0.930 . S
H2475 C2487 0.929 . S
H2476 C2490 0.930 . S
H2477 C2492 0.960 . S
H2478 C2492 0.960 . S
H2479 C2492 0.960 . S
C2480 H2472 0.929 . S
C2480 C2481 1.377 . S
C2480 C2482 1.384 . S
C2481 C2480 1.377 . S
C2481 C2487 1.390 . S
C2482 H2473 0.930 . S
C2482 C2480 1.384 . S
C2482 C2483 1.372 . S
C2483 C2482 1.372 . S
C2483 C2484 1.400 . S
C2483 C2488 1.490 . S
C2484 H2474 0.930 . S
C2484 C2483 1.400 . S
C2484 C2487 1.386 . S
H2485 C2501 0.930 . S
H2486 C2502 0.931 . S
C2487 H2475 0.929 . S
C2487 C2481 1.390 . S
C2487 C2484 1.386 . S
C2488 C2483 1.490 . S
C2488 C2490 1.395 . S
C2488 C2491 1.403 . S
H2489 C2495 0.930 . S
C2490 H2476 0.930 . S
C2490 C2488 1.395 . S
C2490 C2493 1.403 . S
C2491 C2488 1.403 . S
C2491 C2492 1.524 . S
C2491 C2495 1.400 . S
C2492 H2477 0.960 . S
C2492 H2478 0.960 . S
C2492 H2479 0.960 . S
C2492 C2491 1.524 . S
C2493 C2490 1.403 . S
C2493 C2494 1.392 . S
C2493 C2497 1.495 . S
C2494 C2493 1.392 . S
C2494 C2495 1.385 . S
C2494 C2496 1.478 . S
C2495 H2489 0.930 . S
C2495 C2491 1.400 . S
C2495 C2494 1.385 . S
C2496 C2494 1.478 . S
C2496 C2498 1.381 . S
C2496 C2502 1.383 . S
C2497 C2493 1.495 . S
C2497 H2503 0.959 . S
C2497 H2504 0.961 . S
C2497 H2505 0.960 . S
C2498 C2496 1.381 . S
C2498 C2499 1.394 . S
C2498 H2506 0.930 . S
C2499 C2498 1.394 . S
C2499 C2500 1.383 . S
C2499 H2507 0.929 . S
C2500 C2499 1.383 . S
C2500 C2501 1.377 . S
C2501 H2485 0.930 . S
C2501 C2500 1.377 . S
C2501 C2502 1.379 . S
C2502 H2486 0.931 . S
C2502 C2496 1.383 . S
C2502 C2501 1.379 . S
H2503 C2497 0.959 . S
H2504 C2497 0.961 . S
H2505 C2497 0.960 . S
H2506 C2498 0.930 . S
H2507 C2499 0.929 . S
H2508 C2516 0.929 . S
H2509 C2518 0.930 . S
H2510 C2520 0.930 . S
H2511 C2523 0.929 . S
H2512 C2526 0.930 . S
H2513 C2528 0.960 . S
H2514 C2528 0.960 . S
H2515 C2528 0.960 . S
C2516 H2508 0.929 . S
C2516 C2517 1.377 . S
C2516 C2518 1.384 . S
C2517 C2516 1.377 . S
C2517 C2523 1.390 . S
C2518 H2509 0.930 . S
C2518 C2516 1.384 . S
C2518 C2519 1.372 . S
C2519 C2518 1.372 . S
C2519 C2520 1.400 . S
C2519 C2524 1.490 . S
C2520 H2510 0.930 . S
C2520 C2519 1.400 . S
C2520 C2523 1.386 . S
H2521 C2537 0.930 . S
H2522 C2538 0.931 . S
C2523 H2511 0.929 . S
C2523 C2517 1.390 . S
C2523 C2520 1.386 . S
C2524 C2519 1.490 . S
C2524 C2526 1.395 . S
C2524 C2527 1.403 . S
H2525 C2531 0.930 . S
C2526 H2512 0.930 . S
C2526 C2524 1.395 . S
C2526 C2529 1.403 . S
C2527 C2524 1.403 . S
C2527 C2528 1.524 . S
C2527 C2531 1.400 . S
C2528 H2513 0.960 . S
C2528 H2514 0.960 . S
C2528 H2515 0.960 . S
C2528 C2527 1.524 . S
C2529 C2526 1.403 . S
C2529 C2530 1.392 . S
C2529 C2533 1.495 . S
C2530 C2529 1.392 . S
C2530 C2531 1.385 . S
C2530 C2532 1.478 . S
C2531 H2525 0.930 . S
C2531 C2527 1.400 . S
C2531 C2530 1.385 . S
C2532 C2530 1.478 . S
C2532 C2534 1.381 . S
C2532 C2538 1.383 . S
C2533 C2529 1.495 . S
C2533 H2539 0.959 . S
C2533 H2540 0.961 . S
C2533 H2541 0.960 . S
C2534 C2532 1.381 . S
C2534 C2535 1.394 . S
C2534 H2542 0.930 . S
C2535 C2534 1.394 . S
C2535 C2536 1.383 . S
C2535 H2543 0.929 . S
C2536 C2535 1.383 . S
C2536 C2537 1.377 . S
C2537 H2521 0.930 . S
C2537 C2536 1.377 . S
C2537 C2538 1.379 . S
C2538 H2522 0.931 . S
C2538 C2532 1.383 . S
C2538 C2537 1.379 . S
H2539 C2533 0.959 . S
H2540 C2533 0.961 . S
H2541 C2533 0.960 . S
H2542 C2534 0.930 . S
H2543 C2535 0.929 . S
H2544 C2552 0.929 . S
H2545 C2554 0.930 . S
H2546 C2556 0.930 . S
H2547 C2559 0.929 . S
H2548 C2562 0.930 . S
H2549 C2564 0.960 . S
H2550 C2564 0.960 . S
H2551 C2564 0.960 . S
C2552 H2544 0.929 . S
C2552 C2553 1.377 . S
C2552 C2554 1.384 . S
C2553 C2552 1.377 . S
C2553 C2559 1.390 . S
C2554 H2545 0.930 . S
C2554 C2552 1.384 . S
C2554 C2555 1.372 . S
C2555 C2554 1.372 . S
C2555 C2556 1.400 . S
C2555 C2560 1.490 . S
C2556 H2546 0.930 . S
C2556 C2555 1.400 . S
C2556 C2559 1.386 . S
H2557 C2573 0.930 . S
H2558 C2574 0.931 . S
C2559 H2547 0.929 . S
C2559 C2553 1.390 . S
C2559 C2556 1.386 . S
C2560 C2555 1.490 . S
C2560 C2562 1.395 . S
C2560 C2563 1.403 . S
H2561 C2567 0.930 . S
C2562 H2548 0.930 . S
C2562 C2560 1.395 . S
C2562 C2565 1.403 . S
C2563 C2560 1.403 . S
C2563 C2564 1.524 . S
C2563 C2567 1.400 . S
C2564 H2549 0.960 . S
C2564 H2550 0.960 . S
C2564 H2551 0.960 . S
C2564 C2563 1.524 . S
C2565 C2562 1.403 . S
C2565 C2566 1.392 . S
C2565 C2569 1.495 . S
C2566 C2565 1.392 . S
C2566 C2567 1.385 . S
C2566 C2568 1.478 . S
C2567 H2561 0.930 . S
C2567 C2563 1.400 . S
C2567 C2566 1.385 . S
C2568 C2566 1.478 . S
C2568 C2570 1.381 . S
C2568 C2574 1.383 . S
C2569 C2565 1.495 . S
C2569 H2575 0.959 . S
C2569 H2576 0.961 . S
C2569 H2577 0.960 . S
C2570 C2568 1.381 . S
C2570 C2571 1.394 . S
C2570 H2578 0.930 . S
C2571 C2570 1.394 . S
C2571 C2572 1.383 . S
C2571 H2579 0.929 . S
C2572 C2571 1.383 . S
C2572 C2573 1.377 . S
C2573 H2557 0.930 . S
C2573 C2572 1.377 . S
C2573 C2574 1.379 . S
C2574 H2558 0.931 . S
C2574 C2568 1.383 . S
C2574 C2573 1.379 . S
H2575 C2569 0.959 . S
H2576 C2569 0.961 . S
H2577 C2569 0.960 . S
H2578 C2570 0.930 . S
H2579 C2571 0.929 . S
H2580 C2588 0.929 . S
H2581 C2590 0.930 . S
H2582 C2592 0.930 . S
H2583 C2595 0.929 . S
H2584 C2598 0.930 . S
H2585 C2600 0.960 . S
H2586 C2600 0.960 . S
H2587 C2600 0.960 . S
C2588 H2580 0.929 . S
C2588 C2589 1.377 . S
C2588 C2590 1.384 . S
C2589 C2588 1.377 . S
C2589 C2595 1.390 . S
C2590 H2581 0.930 . S
C2590 C2588 1.384 . S
C2590 C2591 1.372 . S
C2591 C2590 1.372 . S
C2591 C2592 1.400 . S
C2591 C2596 1.490 . S
C2592 H2582 0.930 . S
C2592 C2591 1.400 . S
C2592 C2595 1.386 . S
H2593 C2609 0.930 . S
H2594 C2610 0.931 . S
C2595 H2583 0.929 . S
C2595 C2589 1.390 . S
C2595 C2592 1.386 . S
C2596 C2591 1.490 . S
C2596 C2598 1.395 . S
C2596 C2599 1.403 . S
H2597 C2603 0.930 . S
C2598 H2584 0.930 . S
C2598 C2596 1.395 . S
C2598 C2601 1.403 . S
C2599 C2596 1.403 . S
C2599 C2600 1.524 . S
C2599 C2603 1.400 . S
C2600 H2585 0.960 . S
C2600 H2586 0.960 . S
C2600 H2587 0.960 . S
C2600 C2599 1.524 . S
C2601 C2598 1.403 . S
C2601 C2602 1.392 . S
C2601 C2605 1.495 . S
C2602 C2601 1.392 . S
C2602 C2603 1.385 . S
C2602 C2604 1.478 . S
C2603 H2597 0.930 . S
C2603 C2599 1.400 . S
C2603 C2602 1.385 . S
C2604 C2602 1.478 . S
C2604 C2606 1.381 . S
C2604 C2610 1.383 . S
C2605 C2601 1.495 . S
C2605 H2611 0.959 . S
C2605 H2612 0.961 . S
C2605 H2613 0.960 . S
C2606 C2604 1.381 . S
C2606 C2607 1.394 . S
C2606 H2614 0.930 . S
C2607 C2606 1.394 . S
C2607 C2608 1.383 . S
C2607 H2615 0.929 . S
C2608 C2607 1.383 . S
C2608 C2609 1.377 . S
C2609 H2593 0.930 . S
C2609 C2608 1.377 . S
C2609 C2610 1.379 . S
C2610 H2594 0.931 . S
C2610 C2604 1.383 . S
C2610 C2609 1.379 . S
H2611 C2605 0.959 . S
H2612 C2605 0.961 . S
H2613 C2605 0.960 . S
H2614 C2606 0.930 . S
H2615 C2607 0.929 . S
H2616 C2624 0.929 . S
H2617 C2626 0.930 . S
H2618 C2628 0.930 . S
H2619 C2631 0.929 . S
H2620 C2634 0.930 . S
H2621 C2636 0.960 . S
H2622 C2636 0.960 . S
H2623 C2636 0.960 . S
C2624 H2616 0.929 . S
C2624 C2625 1.377 . S
C2624 C2626 1.384 . S
C2625 C2624 1.377 . S
C2625 C2631 1.390 . S
C2626 H2617 0.930 . S
C2626 C2624 1.384 . S
C2626 C2627 1.372 . S
C2627 C2626 1.372 . S
C2627 C2628 1.400 . S
C2627 C2632 1.490 . S
C2628 H2618 0.930 . S
C2628 C2627 1.400 . S
C2628 C2631 1.386 . S
H2629 C2645 0.930 . S
H2630 C2646 0.931 . S
C2631 H2619 0.929 . S
C2631 C2625 1.390 . S
C2631 C2628 1.386 . S
C2632 C2627 1.490 . S
C2632 C2634 1.395 . S
C2632 C2635 1.403 . S
H2633 C2639 0.930 . S
C2634 H2620 0.930 . S
C2634 C2632 1.395 . S
C2634 C2637 1.403 . S
C2635 C2632 1.403 . S
C2635 C2636 1.524 . S
C2635 C2639 1.400 . S
C2636 H2621 0.960 . S
C2636 H2622 0.960 . S
C2636 H2623 0.960 . S
C2636 C2635 1.524 . S
C2637 C2634 1.403 . S
C2637 C2638 1.392 . S
C2637 C2641 1.495 . S
C2638 C2637 1.392 . S
C2638 C2639 1.385 . S
C2638 C2640 1.478 . S
C2639 H2633 0.930 . S
C2639 C2635 1.400 . S
C2639 C2638 1.385 . S
C2640 C2638 1.478 . S
C2640 C2642 1.381 . S
C2640 C2646 1.383 . S
C2641 C2637 1.495 . S
C2641 H2647 0.959 . S
C2641 H2648 0.961 . S
C2641 H2649 0.960 . S
C2642 C2640 1.381 . S
C2642 C2643 1.394 . S
C2642 H2650 0.930 . S
C2643 C2642 1.394 . S
C2643 C2644 1.383 . S
C2643 H2651 0.929 . S
C2644 C2643 1.383 . S
C2644 C2645 1.377 . S
C2645 H2629 0.930 . S
C2645 C2644 1.377 . S
C2645 C2646 1.379 . S
C2646 H2630 0.931 . S
C2646 C2640 1.383 . S
C2646 C2645 1.379 . S
H2647 C2641 0.959 . S
H2648 C2641 0.961 . S
H2649 C2641 0.960 . S
H2650 C2642 0.930 . S
H2651 C2643 0.929 . S
H2652 C2660 0.929 . S
H2653 C2662 0.930 . S
H2654 C2664 0.930 . S
H2655 C2667 0.929 . S
H2656 C2670 0.930 . S
H2657 C2672 0.960 . S
H2658 C2672 0.960 . S
H2659 C2672 0.960 . S
C2660 H2652 0.929 . S
C2660 C2661 1.377 . S
C2660 C2662 1.384 . S
C2661 C2660 1.377 . S
C2661 C2667 1.390 . S
C2662 H2653 0.930 . S
C2662 C2660 1.384 . S
C2662 C2663 1.372 . S
C2663 C2662 1.372 . S
C2663 C2664 1.400 . S
C2663 C2668 1.490 . S
C2664 H2654 0.930 . S
C2664 C2663 1.400 . S
C2664 C2667 1.386 . S
H2665 C2681 0.930 . S
H2666 C2682 0.931 . S
C2667 H2655 0.929 . S
C2667 C2661 1.390 . S
C2667 C2664 1.386 . S
C2668 C2663 1.490 . S
C2668 C2670 1.395 . S
C2668 C2671 1.403 . S
H2669 C2675 0.930 . S
C2670 H2656 0.930 . S
C2670 C2668 1.395 . S
C2670 C2673 1.403 . S
C2671 C2668 1.403 . S
C2671 C2672 1.524 . S
C2671 C2675 1.400 . S
C2672 H2657 0.960 . S
C2672 H2658 0.960 . S
C2672 H2659 0.960 . S
C2672 C2671 1.524 . S
C2673 C2670 1.403 . S
C2673 C2674 1.392 . S
C2673 C2677 1.495 . S
C2674 C2673 1.392 . S
C2674 C2675 1.385 . S
C2674 C2676 1.478 . S
C2675 H2669 0.930 . S
C2675 C2671 1.400 . S
C2675 C2674 1.385 . S
C2676 C2674 1.478 . S
C2676 C2678 1.381 . S
C2676 C2682 1.383 . S
C2677 C2673 1.495 . S
C2677 H2683 0.959 . S
C2677 H2684 0.961 . S
C2677 H2685 0.960 . S
C2678 C2676 1.381 . S
C2678 C2679 1.394 . S
C2678 H2686 0.930 . S
C2679 C2678 1.394 . S
C2679 C2680 1.383 . S
C2679 H2687 0.929 . S
C2680 C2679 1.383 . S
C2680 C2681 1.377 . S
C2681 H2665 0.930 . S
C2681 C2680 1.377 . S
C2681 C2682 1.379 . S
C2682 H2666 0.931 . S
C2682 C2676 1.383 . S
C2682 C2681 1.379 . S
H2683 C2677 0.959 . S
H2684 C2677 0.961 . S
H2685 C2677 0.960 . S
H2686 C2678 0.930 . S
H2687 C2679 0.929 . S
H2688 C2696 0.929 . S
H2689 C2698 0.930 . S
H2690 C2700 0.930 . S
H2691 C2703 0.929 . S
H2692 C2706 0.930 . S
H2693 C2708 0.960 . S
H2694 C2708 0.960 . S
H2695 C2708 0.960 . S
C2696 H2688 0.929 . S
C2696 C2697 1.377 . S
C2696 C2698 1.384 . S
C2697 C2696 1.377 . S
C2697 C2703 1.390 . S
C2698 H2689 0.930 . S
C2698 C2696 1.384 . S
C2698 C2699 1.372 . S
C2699 C2698 1.372 . S
C2699 C2700 1.400 . S
C2699 C2704 1.490 . S
C2700 H2690 0.930 . S
C2700 C2699 1.400 . S
C2700 C2703 1.386 . S
H2701 C2717 0.930 . S
H2702 C2718 0.931 . S
C2703 H2691 0.929 . S
C2703 C2697 1.390 . S
C2703 C2700 1.386 . S
C2704 C2699 1.490 . S
C2704 C2706 1.395 . S
C2704 C2707 1.403 . S
H2705 C2711 0.930 . S
C2706 H2692 0.930 . S
C2706 C2704 1.395 . S
C2706 C2709 1.403 . S
C2707 C2704 1.403 . S
C2707 C2708 1.524 . S
C2707 C2711 1.400 . S
C2708 H2693 0.960 . S
C2708 H2694 0.960 . S
C2708 H2695 0.960 . S
C2708 C2707 1.524 . S
C2709 C2706 1.403 . S
C2709 C2710 1.392 . S
C2709 C2713 1.495 . S
C2710 C2709 1.392 . S
C2710 C2711 1.385 . S
C2710 C2712 1.478 . S
C2711 H2705 0.930 . S
C2711 C2707 1.400 . S
C2711 C2710 1.385 . S
C2712 C2710 1.478 . S
C2712 C2714 1.381 . S
C2712 C2718 1.383 . S
C2713 C2709 1.495 . S
C2713 H2719 0.959 . S
C2713 H2720 0.961 . S
C2713 H2721 0.960 . S
C2714 C2712 1.381 . S
C2714 C2715 1.394 . S
C2714 H2722 0.930 . S
C2715 C2714 1.394 . S
C2715 C2716 1.383 . S
C2715 H2723 0.929 . S
C2716 C2715 1.383 . S
C2716 C2717 1.377 . S
C2717 H2701 0.930 . S
C2717 C2716 1.377 . S
C2717 C2718 1.379 . S
C2718 H2702 0.931 . S
C2718 C2712 1.383 . S
C2718 C2717 1.379 . S
H2719 C2713 0.959 . S
H2720 C2713 0.961 . S
H2721 C2713 0.960 . S
H2722 C2714 0.930 . S
H2723 C2715 0.929 . S
H2724 C2732 0.929 . S
H2725 C2734 0.930 . S
H2726 C2736 0.930 . S
H2727 C2739 0.929 . S
H2728 C2742 0.930 . S
H2729 C2744 0.960 . S
H2730 C2744 0.960 . S
H2731 C2744 0.960 . S
C2732 H2724 0.929 . S
C2732 C2733 1.377 . S
C2732 C2734 1.384 . S
C2733 C2732 1.377 . S
C2733 C2739 1.390 . S
C2734 H2725 0.930 . S
C2734 C2732 1.384 . S
C2734 C2735 1.372 . S
C2735 C2734 1.372 . S
C2735 C2736 1.400 . S
C2735 C2740 1.490 . S
C2736 H2726 0.930 . S
C2736 C2735 1.400 . S
C2736 C2739 1.386 . S
H2737 C2753 0.930 . S
H2738 C2754 0.931 . S
C2739 H2727 0.929 . S
C2739 C2733 1.390 . S
C2739 C2736 1.386 . S
C2740 C2735 1.490 . S
C2740 C2742 1.395 . S
C2740 C2743 1.403 . S
H2741 C2747 0.930 . S
C2742 H2728 0.930 . S
C2742 C2740 1.395 . S
C2742 C2745 1.403 . S
C2743 C2740 1.403 . S
C2743 C2744 1.524 . S
C2743 C2747 1.400 . S
C2744 H2729 0.960 . S
C2744 H2730 0.960 . S
C2744 H2731 0.960 . S
C2744 C2743 1.524 . S
C2745 C2742 1.403 . S
C2745 C2746 1.392 . S
C2745 C2749 1.495 . S
C2746 C2745 1.392 . S
C2746 C2747 1.385 . S
C2746 C2748 1.478 . S
C2747 H2741 0.930 . S
C2747 C2743 1.400 . S
C2747 C2746 1.385 . S
C2748 C2746 1.478 . S
C2748 C2750 1.381 . S
C2748 C2754 1.383 . S
C2749 C2745 1.495 . S
C2749 H2755 0.959 . S
C2749 H2756 0.961 . S
C2749 H2757 0.960 . S
C2750 C2748 1.381 . S
C2750 C2751 1.394 . S
C2750 H2758 0.930 . S
C2751 C2750 1.394 . S
C2751 C2752 1.383 . S
C2751 H2759 0.929 . S
C2752 C2751 1.383 . S
C2752 C2753 1.377 . S
C2753 H2737 0.930 . S
C2753 C2752 1.377 . S
C2753 C2754 1.379 . S
C2754 H2738 0.931 . S
C2754 C2748 1.383 . S
C2754 C2753 1.379 . S
H2755 C2749 0.959 . S
H2756 C2749 0.961 . S
H2757 C2749 0.960 . S
H2758 C2750 0.930 . S
H2759 C2751 0.929 . S
H2760 C2768 0.929 . S
H2761 C2770 0.930 . S
H2762 C2772 0.930 . S
H2763 C2775 0.929 . S
H2764 C2778 0.930 . S
H2765 C2780 0.960 . S
H2766 C2780 0.960 . S
H2767 C2780 0.960 . S
C2768 H2760 0.929 . S
C2768 C2769 1.377 . S
C2768 C2770 1.384 . S
C2769 C2768 1.377 . S
C2769 C2775 1.390 . S
C2770 H2761 0.930 . S
C2770 C2768 1.384 . S
C2770 C2771 1.372 . S
C2771 C2770 1.372 . S
C2771 C2772 1.400 . S
C2771 C2776 1.490 . S
C2772 H2762 0.930 . S
C2772 C2771 1.400 . S
C2772 C2775 1.386 . S
H2773 C2789 0.930 . S
H2774 C2790 0.931 . S
C2775 H2763 0.929 . S
C2775 C2769 1.390 . S
C2775 C2772 1.386 . S
C2776 C2771 1.490 . S
C2776 C2778 1.395 . S
C2776 C2779 1.403 . S
H2777 C2783 0.930 . S
C2778 H2764 0.930 . S
C2778 C2776 1.395 . S
C2778 C2781 1.403 . S
C2779 C2776 1.403 . S
C2779 C2780 1.524 . S
C2779 C2783 1.400 . S
C2780 H2765 0.960 . S
C2780 H2766 0.960 . S
C2780 H2767 0.960 . S
C2780 C2779 1.524 . S
C2781 C2778 1.403 . S
C2781 C2782 1.392 . S
C2781 C2785 1.495 . S
C2782 C2781 1.392 . S
C2782 C2783 1.385 . S
C2782 C2784 1.478 . S
C2783 H2777 0.930 . S
C2783 C2779 1.400 . S
C2783 C2782 1.385 . S
C2784 C2782 1.478 . S
C2784 C2786 1.381 . S
C2784 C2790 1.383 . S
C2785 C2781 1.495 . S
C2785 H2791 0.959 . S
C2785 H2792 0.961 . S
C2785 H2793 0.960 . S
C2786 C2784 1.381 . S
C2786 C2787 1.394 . S
C2786 H2794 0.930 . S
C2787 C2786 1.394 . S
C2787 C2788 1.383 . S
C2787 H2795 0.929 . S
C2788 C2787 1.383 . S
C2788 C2789 1.377 . S
C2789 H2773 0.930 . S
C2789 C2788 1.377 . S
C2789 C2790 1.379 . S
C2790 H2774 0.931 . S
C2790 C2784 1.383 . S
C2790 C2789 1.379 . S
H2791 C2785 0.959 . S
H2792 C2785 0.961 . S
H2793 C2785 0.960 . S
H2794 C2786 0.930 . S
H2795 C2787 0.929 . S
H2796 C2804 0.929 . S
H2797 C2806 0.930 . S
H2798 C2808 0.930 . S
H2799 C2811 0.929 . S
H2800 C2814 0.930 . S
H2801 C2816 0.960 . S
H2802 C2816 0.960 . S
H2803 C2816 0.960 . S
C2804 H2796 0.929 . S
C2804 C2805 1.377 . S
C2804 C2806 1.384 . S
C2805 C2804 1.377 . S
C2805 C2811 1.390 . S
C2806 H2797 0.930 . S
C2806 C2804 1.384 . S
C2806 C2807 1.372 . S
C2807 C2806 1.372 . S
C2807 C2808 1.400 . S
C2807 C2812 1.490 . S
C2808 H2798 0.930 . S
C2808 C2807 1.400 . S
C2808 C2811 1.386 . S
H2809 C2825 0.930 . S
H2810 C2826 0.931 . S
C2811 H2799 0.929 . S
C2811 C2805 1.390 . S
C2811 C2808 1.386 . S
C2812 C2807 1.490 . S
C2812 C2814 1.395 . S
C2812 C2815 1.403 . S
H2813 C2819 0.930 . S
C2814 H2800 0.930 . S
C2814 C2812 1.395 . S
C2814 C2817 1.403 . S
C2815 C2812 1.403 . S
C2815 C2816 1.524 . S
C2815 C2819 1.400 . S
C2816 H2801 0.960 . S
C2816 H2802 0.960 . S
C2816 H2803 0.960 . S
C2816 C2815 1.524 . S
C2817 C2814 1.403 . S
C2817 C2818 1.392 . S
C2817 C2821 1.495 . S
C2818 C2817 1.392 . S
C2818 C2819 1.385 . S
C2818 C2820 1.478 . S
C2819 H2813 0.930 . S
C2819 C2815 1.400 . S
C2819 C2818 1.385 . S
C2820 C2818 1.478 . S
C2820 C2822 1.381 . S
C2820 C2826 1.383 . S
C2821 C2817 1.495 . S
C2821 H2827 0.959 . S
C2821 H2828 0.961 . S
C2821 H2829 0.960 . S
C2822 C2820 1.381 . S
C2822 C2823 1.394 . S
C2822 H2830 0.930 . S
C2823 C2822 1.394 . S
C2823 C2824 1.383 . S
C2823 H2831 0.929 . S
C2824 C2823 1.383 . S
C2824 C2825 1.377 . S
C2825 H2809 0.930 . S
C2825 C2824 1.377 . S
C2825 C2826 1.379 . S
C2826 H2810 0.931 . S
C2826 C2820 1.383 . S
C2826 C2825 1.379 . S
H2827 C2821 0.959 . S
H2828 C2821 0.961 . S
H2829 C2821 0.960 . S
H2830 C2822 0.930 . S
H2831 C2823 0.929 . S
H2832 C2840 0.929 . S
H2833 C2842 0.930 . S
H2834 C2844 0.930 . S
H2835 C2847 0.929 . S
H2836 C2850 0.930 . S
H2837 C2852 0.960 . S
H2838 C2852 0.960 . S
H2839 C2852 0.960 . S
C2840 H2832 0.929 . S
C2840 C2841 1.377 . S
C2840 C2842 1.384 . S
C2841 C2840 1.377 . S
C2841 C2847 1.390 . S
C2842 H2833 0.930 . S
C2842 C2840 1.384 . S
C2842 C2843 1.372 . S
C2843 C2842 1.372 . S
C2843 C2844 1.400 . S
C2843 C2848 1.490 . S
C2844 H2834 0.930 . S
C2844 C2843 1.400 . S
C2844 C2847 1.386 . S
H2845 C2861 0.930 . S
H2846 C2862 0.931 . S
C2847 H2835 0.929 . S
C2847 C2841 1.390 . S
C2847 C2844 1.386 . S
C2848 C2843 1.490 . S
C2848 C2850 1.395 . S
C2848 C2851 1.403 . S
H2849 C2855 0.930 . S
C2850 H2836 0.930 . S
C2850 C2848 1.395 . S
C2850 C2853 1.403 . S
C2851 C2848 1.403 . S
C2851 C2852 1.524 . S
C2851 C2855 1.400 . S
C2852 H2837 0.960 . S
C2852 H2838 0.960 . S
C2852 H2839 0.960 . S
C2852 C2851 1.524 . S
C2853 C2850 1.403 . S
C2853 C2854 1.392 . S
C2853 C2857 1.495 . S
C2854 C2853 1.392 . S
C2854 C2855 1.385 . S
C2854 C2856 1.478 . S
C2855 H2849 0.930 . S
C2855 C2851 1.400 . S
C2855 C2854 1.385 . S
C2856 C2854 1.478 . S
C2856 C2858 1.381 . S
C2856 C2862 1.383 . S
C2857 C2853 1.495 . S
C2857 H2863 0.959 . S
C2857 H2864 0.961 . S
C2857 H2865 0.960 . S
C2858 C2856 1.381 . S
C2858 C2859 1.394 . S
C2858 H2866 0.930 . S
C2859 C2858 1.394 . S
C2859 C2860 1.383 . S
C2859 H2867 0.929 . S
C2860 C2859 1.383 . S
C2860 C2861 1.377 . S
C2861 H2845 0.930 . S
C2861 C2860 1.377 . S
C2861 C2862 1.379 . S
C2862 H2846 0.931 . S
C2862 C2856 1.383 . S
C2862 C2861 1.379 . S
H2863 C2857 0.959 . S
H2864 C2857 0.961 . S
H2865 C2857 0.960 . S
H2866 C2858 0.930 . S
H2867 C2859 0.929 . S
H2868 C2876 0.929 . S
H2869 C2878 0.930 . S
H2870 C2880 0.930 . S
H2871 C2883 0.929 . S
H2872 C2886 0.930 . S
H2873 C2888 0.960 . S
H2874 C2888 0.960 . S
H2875 C2888 0.960 . S
C2876 H2868 0.929 . S
C2876 C2877 1.377 . S
C2876 C2878 1.384 . S
C2877 C2876 1.377 . S
C2877 C2883 1.390 . S
C2878 H2869 0.930 . S
C2878 C2876 1.384 . S
C2878 C2879 1.372 . S
C2879 C2878 1.372 . S
C2879 C2880 1.400 . S
C2879 C2884 1.490 . S
C2880 H2870 0.930 . S
C2880 C2879 1.400 . S
C2880 C2883 1.386 . S
H2881 C2897 0.930 . S
H2882 C2898 0.931 . S
C2883 H2871 0.929 . S
C2883 C2877 1.390 . S
C2883 C2880 1.386 . S
C2884 C2879 1.490 . S
C2884 C2886 1.395 . S
C2884 C2887 1.403 . S
H2885 C2891 0.930 . S
C2886 H2872 0.930 . S
C2886 C2884 1.395 . S
C2886 C2889 1.403 . S
C2887 C2884 1.403 . S
C2887 C2888 1.524 . S
C2887 C2891 1.400 . S
C2888 H2873 0.960 . S
C2888 H2874 0.960 . S
C2888 H2875 0.960 . S
C2888 C2887 1.524 . S
C2889 C2886 1.403 . S
C2889 C2890 1.392 . S
C2889 C2893 1.495 . S
C2890 C2889 1.392 . S
C2890 C2891 1.385 . S
C2890 C2892 1.478 . S
C2891 H2885 0.930 . S
C2891 C2887 1.400 . S
C2891 C2890 1.385 . S
C2892 C2890 1.478 . S
C2892 C2894 1.381 . S
C2892 C2898 1.383 . S
C2893 C2889 1.495 . S
C2893 H2899 0.959 . S
C2893 H2900 0.961 . S
C2893 H2901 0.960 . S
C2894 C2892 1.381 . S
C2894 C2895 1.394 . S
C2894 H2902 0.930 . S
C2895 C2894 1.394 . S
C2895 C2896 1.383 . S
C2895 H2903 0.929 . S
C2896 C2895 1.383 . S
C2896 C2897 1.377 . S
C2897 H2881 0.930 . S
C2897 C2896 1.377 . S
C2897 C2898 1.379 . S
C2898 H2882 0.931 . S
C2898 C2892 1.383 . S
C2898 C2897 1.379 . S
H2899 C2893 0.959 . S
H2900 C2893 0.961 . S
H2901 C2893 0.960 . S
H2902 C2894 0.930 . S
H2903 C2895 0.929 . S
H2904 C2912 0.929 . S
H2905 C2914 0.930 . S
H2906 C2916 0.930 . S
H2907 C2919 0.929 . S
H2908 C2922 0.930 . S
H2909 C2924 0.960 . S
H2910 C2924 0.960 . S
H2911 C2924 0.960 . S
C2912 H2904 0.929 . S
C2912 C2913 1.377 . S
C2912 C2914 1.384 . S
C2913 C2912 1.377 . S
C2913 C2919 1.390 . S
C2914 H2905 0.930 . S
C2914 C2912 1.384 . S
C2914 C2915 1.372 . S
C2915 C2914 1.372 . S
C2915 C2916 1.400 . S
C2915 C2920 1.490 . S
C2916 H2906 0.930 . S
C2916 C2915 1.400 . S
C2916 C2919 1.386 . S
H2917 C2933 0.930 . S
H2918 C2934 0.931 . S
C2919 H2907 0.929 . S
C2919 C2913 1.390 . S
C2919 C2916 1.386 . S
C2920 C2915 1.490 . S
C2920 C2922 1.395 . S
C2920 C2923 1.403 . S
H2921 C2927 0.930 . S
C2922 H2908 0.930 . S
C2922 C2920 1.395 . S
C2922 C2925 1.403 . S
C2923 C2920 1.403 . S
C2923 C2924 1.524 . S
C2923 C2927 1.400 . S
C2924 H2909 0.960 . S
C2924 H2910 0.960 . S
C2924 H2911 0.960 . S
C2924 C2923 1.524 . S
C2925 C2922 1.403 . S
C2925 C2926 1.392 . S
C2925 C2929 1.495 . S
C2926 C2925 1.392 . S
C2926 C2927 1.385 . S
C2926 C2928 1.478 . S
C2927 H2921 0.930 . S
C2927 C2923 1.400 . S
C2927 C2926 1.385 . S
C2928 C2926 1.478 . S
C2928 C2930 1.381 . S
C2928 C2934 1.383 . S
C2929 C2925 1.495 . S
C2929 H2935 0.959 . S
C2929 H2936 0.961 . S
C2929 H2937 0.960 . S
C2930 C2928 1.381 . S
C2930 C2931 1.394 . S
C2930 H2938 0.930 . S
C2931 C2930 1.394 . S
C2931 C2932 1.383 . S
C2931 H2939 0.929 . S
C2932 C2931 1.383 . S
C2932 C2933 1.377 . S
C2933 H2917 0.930 . S
C2933 C2932 1.377 . S
C2933 C2934 1.379 . S
C2934 H2918 0.931 . S
C2934 C2928 1.383 . S
C2934 C2933 1.379 . S
H2935 C2929 0.959 . S
H2936 C2929 0.961 . S
H2937 C2929 0.960 . S
H2938 C2930 0.930 . S
H2939 C2931 0.929 . S
H2940 C2948 0.929 . S
H2941 C2950 0.930 . S
H2942 C2952 0.930 . S
H2943 C2955 0.929 . S
H2944 C2958 0.930 . S
H2945 C2960 0.960 . S
H2946 C2960 0.960 . S
H2947 C2960 0.960 . S
C2948 H2940 0.929 . S
C2948 C2949 1.377 . S
C2948 C2950 1.384 . S
C2949 C2948 1.377 . S
C2949 C2955 1.390 . S
C2950 H2941 0.930 . S
C2950 C2948 1.384 . S
C2950 C2951 1.372 . S
C2951 C2950 1.372 . S
C2951 C2952 1.400 . S
C2951 C2956 1.490 . S
C2952 H2942 0.930 . S
C2952 C2951 1.400 . S
C2952 C2955 1.386 . S
H2953 C2969 0.930 . S
H2954 C2970 0.931 . S
C2955 H2943 0.929 . S
C2955 C2949 1.390 . S
C2955 C2952 1.386 . S
C2956 C2951 1.490 . S
C2956 C2958 1.395 . S
C2956 C2959 1.403 . S
H2957 C2963 0.930 . S
C2958 H2944 0.930 . S
C2958 C2956 1.395 . S
C2958 C2961 1.403 . S
C2959 C2956 1.403 . S
C2959 C2960 1.524 . S
C2959 C2963 1.400 . S
C2960 H2945 0.960 . S
C2960 H2946 0.960 . S
C2960 H2947 0.960 . S
C2960 C2959 1.524 . S
C2961 C2958 1.403 . S
C2961 C2962 1.392 . S
C2961 C2965 1.495 . S
C2962 C2961 1.392 . S
C2962 C2963 1.385 . S
C2962 C2964 1.478 . S
C2963 H2957 0.930 . S
C2963 C2959 1.400 . S
C2963 C2962 1.385 . S
C2964 C2962 1.478 . S
C2964 C2966 1.381 . S
C2964 C2970 1.383 . S
C2965 C2961 1.495 . S
C2965 H2971 0.959 . S
C2965 H2972 0.961 . S
C2965 H2973 0.960 . S
C2966 C2964 1.381 . S
C2966 C2967 1.394 . S
C2966 H2974 0.930 . S
C2967 C2966 1.394 . S
C2967 C2968 1.383 . S
C2967 H2975 0.929 . S
C2968 C2967 1.383 . S
C2968 C2969 1.377 . S
C2969 H2953 0.930 . S
C2969 C2968 1.377 . S
C2969 C2970 1.379 . S
C2970 H2954 0.931 . S
C2970 C2964 1.383 . S
C2970 C2969 1.379 . S
H2971 C2965 0.959 . S
H2972 C2965 0.961 . S
H2973 C2965 0.960 . S
H2974 C2966 0.930 . S
H2975 C2967 0.929 . S
H2976 C2984 0.929 . S
H2977 C2986 0.930 . S
H2978 C2988 0.930 . S
H2979 C2991 0.929 . S
H2980 C2994 0.930 . S
H2981 C2996 0.960 . S
H2982 C2996 0.960 . S
H2983 C2996 0.960 . S
C2984 H2976 0.929 . S
C2984 C2985 1.377 . S
C2984 C2986 1.384 . S
C2985 C2984 1.377 . S
C2985 C2991 1.390 . S
C2986 H2977 0.930 . S
C2986 C2984 1.384 . S
C2986 C2987 1.372 . S
C2987 C2986 1.372 . S
C2987 C2988 1.400 . S
C2987 C2992 1.490 . S
C2988 H2978 0.930 . S
C2988 C2987 1.400 . S
C2988 C2991 1.386 . S
H2989 C3005 0.930 . S
H2990 C3006 0.931 . S
C2991 H2979 0.929 . S
C2991 C2985 1.390 . S
C2991 C2988 1.386 . S
C2992 C2987 1.490 . S
C2992 C2994 1.395 . S
C2992 C2995 1.403 . S
H2993 C2999 0.930 . S
C2994 H2980 0.930 . S
C2994 C2992 1.395 . S
C2994 C2997 1.403 . S
C2995 C2992 1.403 . S
C2995 C2996 1.524 . S
C2995 C2999 1.400 . S
C2996 H2981 0.960 . S
C2996 H2982 0.960 . S
C2996 H2983 0.960 . S
C2996 C2995 1.524 . S
C2997 C2994 1.403 . S
C2997 C2998 1.392 . S
C2997 C3001 1.495 . S
C2998 C2997 1.392 . S
C2998 C2999 1.385 . S
C2998 C3000 1.478 . S
C2999 H2993 0.930 . S
C2999 C2995 1.400 . S
C2999 C2998 1.385 . S
C3000 C2998 1.478 . S
C3000 C3002 1.381 . S
C3000 C3006 1.383 . S
C3001 C2997 1.495 . S
C3001 H3007 0.959 . S
C3001 H3008 0.961 . S
C3001 H3009 0.960 . S
C3002 C3000 1.381 . S
C3002 C3003 1.394 . S
C3002 H3010 0.930 . S
C3003 C3002 1.394 . S
C3003 C3004 1.383 . S
C3003 H3011 0.929 . S
C3004 C3003 1.383 . S
C3004 C3005 1.377 . S
C3005 H2989 0.930 . S
C3005 C3004 1.377 . S
C3005 C3006 1.379 . S
C3006 H2990 0.931 . S
C3006 C3000 1.383 . S
C3006 C3005 1.379 . S
H3007 C3001 0.959 . S
H3008 C3001 0.961 . S
H3009 C3001 0.960 . S
H3010 C3002 0.930 . S
H3011 C3003 0.929 . S
H3012 C3020 0.929 . S
H3013 C3022 0.930 . S
H3014 C3024 0.930 . S
H3015 C3027 0.929 . S
H3016 C3030 0.930 . S
H3017 C3032 0.960 . S
H3018 C3032 0.960 . S
H3019 C3032 0.960 . S
C3020 H3012 0.929 . S
C3020 C3021 1.377 . S
C3020 C3022 1.384 . S
C3021 C3020 1.377 . S
C3021 C3027 1.390 . S
C3022 H3013 0.930 . S
C3022 C3020 1.384 . S
C3022 C3023 1.372 . S
C3023 C3022 1.372 . S
C3023 C3024 1.400 . S
C3023 C3028 1.490 . S
C3024 H3014 0.930 . S
C3024 C3023 1.400 . S
C3024 C3027 1.386 . S
H3025 C3041 0.930 . S
H3026 C3042 0.931 . S
C3027 H3015 0.929 . S
C3027 C3021 1.390 . S
C3027 C3024 1.386 . S
C3028 C3023 1.490 . S
C3028 C3030 1.395 . S
C3028 C3031 1.403 . S
H3029 C3035 0.930 . S
C3030 H3016 0.930 . S
C3030 C3028 1.395 . S
C3030 C3033 1.403 . S
C3031 C3028 1.403 . S
C3031 C3032 1.524 . S
C3031 C3035 1.400 . S
C3032 H3017 0.960 . S
C3032 H3018 0.960 . S
C3032 H3019 0.960 . S
C3032 C3031 1.524 . S
C3033 C3030 1.403 . S
C3033 C3034 1.392 . S
C3033 C3037 1.495 . S
C3034 C3033 1.392 . S
C3034 C3035 1.385 . S
C3034 C3036 1.478 . S
C3035 H3029 0.930 . S
C3035 C3031 1.400 . S
C3035 C3034 1.385 . S
C3036 C3034 1.478 . S
C3036 C3038 1.381 . S
C3036 C3042 1.383 . S
C3037 C3033 1.495 . S
C3037 H3043 0.959 . S
C3037 H3044 0.961 . S
C3037 H3045 0.960 . S
C3038 C3036 1.381 . S
C3038 C3039 1.394 . S
C3038 H3046 0.930 . S
C3039 C3038 1.394 . S
C3039 C3040 1.383 . S
C3039 H3047 0.929 . S
C3040 C3039 1.383 . S
C3040 C3041 1.377 . S
C3041 H3025 0.930 . S
C3041 C3040 1.377 . S
C3041 C3042 1.379 . S
C3042 H3026 0.931 . S
C3042 C3036 1.383 . S
C3042 C3041 1.379 . S
H3043 C3037 0.959 . S
H3044 C3037 0.961 . S
H3045 C3037 0.960 . S
H3046 C3038 0.930 . S
H3047 C3039 0.929 . S
H3048 C3056 0.929 . S
H3049 C3058 0.930 . S
H3050 C3060 0.930 . S
H3051 C3063 0.929 . S
H3052 C3066 0.930 . S
H3053 C3068 0.960 . S
H3054 C3068 0.960 . S
H3055 C3068 0.960 . S
C3056 H3048 0.929 . S
C3056 C3057 1.377 . S
C3056 C3058 1.384 . S
C3057 C3056 1.377 . S
C3057 C3063 1.390 . S
C3058 H3049 0.930 . S
C3058 C3056 1.384 . S
C3058 C3059 1.372 . S
C3059 C3058 1.372 . S
C3059 C3060 1.400 . S
C3059 C3064 1.490 . S
C3060 H3050 0.930 . S
C3060 C3059 1.400 . S
C3060 C3063 1.386 . S
H3061 C3077 0.930 . S
H3062 C3078 0.931 . S
C3063 H3051 0.929 . S
C3063 C3057 1.390 . S
C3063 C3060 1.386 . S
C3064 C3059 1.490 . S
C3064 C3066 1.395 . S
C3064 C3067 1.403 . S
H3065 C3071 0.930 . S
C3066 H3052 0.930 . S
C3066 C3064 1.395 . S
C3066 C3069 1.403 . S
C3067 C3064 1.403 . S
C3067 C3068 1.524 . S
C3067 C3071 1.400 . S
C3068 H3053 0.960 . S
C3068 H3054 0.960 . S
C3068 H3055 0.960 . S
C3068 C3067 1.524 . S
C3069 C3066 1.403 . S
C3069 C3070 1.392 . S
C3069 C3073 1.495 . S
C3070 C3069 1.392 . S
C3070 C3071 1.385 . S
C3070 C3072 1.478 . S
C3071 H3065 0.930 . S
C3071 C3067 1.400 . S
C3071 C3070 1.385 . S
C3072 C3070 1.478 . S
C3072 C3074 1.381 . S
C3072 C3078 1.383 . S
C3073 C3069 1.495 . S
C3073 H3079 0.959 . S
C3073 H3080 0.961 . S
C3073 H3081 0.960 . S
C3074 C3072 1.381 . S
C3074 C3075 1.394 . S
C3074 H3082 0.930 . S
C3075 C3074 1.394 . S
C3075 C3076 1.383 . S
C3075 H3083 0.929 . S
C3076 C3075 1.383 . S
C3076 C3077 1.377 . S
C3077 H3061 0.930 . S
C3077 C3076 1.377 . S
C3077 C3078 1.379 . S
C3078 H3062 0.931 . S
C3078 C3072 1.383 . S
C3078 C3077 1.379 . S
H3079 C3073 0.959 . S
H3080 C3073 0.961 . S
H3081 C3073 0.960 . S
H3082 C3074 0.930 . S
H3083 C3075 0.929 . S
H3084 C3092 0.929 . S
H3085 C3094 0.930 . S
H3086 C3096 0.930 . S
H3087 C3099 0.929 . S
H3088 C3102 0.930 . S
H3089 C3104 0.960 . S
H3090 C3104 0.960 . S
H3091 C3104 0.960 . S
C3092 H3084 0.929 . S
C3092 C3093 1.377 . S
C3092 C3094 1.384 . S
C3093 C3092 1.377 . S
C3093 C3099 1.390 . S
C3094 H3085 0.930 . S
C3094 C3092 1.384 . S
C3094 C3095 1.372 . S
C3095 C3094 1.372 . S
C3095 C3096 1.400 . S
C3095 C3100 1.490 . S
C3096 H3086 0.930 . S
C3096 C3095 1.400 . S
C3096 C3099 1.386 . S
H3097 C3113 0.930 . S
H3098 C3114 0.931 . S
C3099 H3087 0.929 . S
C3099 C3093 1.390 . S
C3099 C3096 1.386 . S
C3100 C3095 1.490 . S
C3100 C3102 1.395 . S
C3100 C3103 1.403 . S
H3101 C3107 0.930 . S
C3102 H3088 0.930 . S
C3102 C3100 1.395 . S
C3102 C3105 1.403 . S
C3103 C3100 1.403 . S
C3103 C3104 1.524 . S
C3103 C3107 1.400 . S
C3104 H3089 0.960 . S
C3104 H3090 0.960 . S
C3104 H3091 0.960 . S
C3104 C3103 1.524 . S
C3105 C3102 1.403 . S
C3105 C3106 1.392 . S
C3105 C3109 1.495 . S
C3106 C3105 1.392 . S
C3106 C3107 1.385 . S
C3106 C3108 1.478 . S
C3107 H3101 0.930 . S
C3107 C3103 1.400 . S
C3107 C3106 1.385 . S
C3108 C3106 1.478 . S
C3108 C3110 1.381 . S
C3108 C3114 1.383 . S
C3109 C3105 1.495 . S
C3109 H3115 0.959 . S
C3109 H3116 0.961 . S
C3109 H3117 0.960 . S
C3110 C3108 1.381 . S
C3110 C3111 1.394 . S
C3110 H3118 0.930 . S
C3111 C3110 1.394 . S
C3111 C3112 1.383 . S
C3111 H3119 0.929 . S
C3112 C3111 1.383 . S
C3112 C3113 1.377 . S
C3113 H3097 0.930 . S
C3113 C3112 1.377 . S
C3113 C3114 1.379 . S
C3114 H3098 0.931 . S
C3114 C3108 1.383 . S
C3114 C3113 1.379 . S
H3115 C3109 0.959 . S
H3116 C3109 0.961 . S
H3117 C3109 0.960 . S
H3118 C3110 0.930 . S
H3119 C3111 0.929 . S
H3120 C3128 0.929 . S
H3121 C3130 0.930 . S
H3122 C3132 0.930 . S
H3123 C3135 0.929 . S
H3124 C3138 0.930 . S
H3125 C3140 0.960 . S
H3126 C3140 0.960 . S
H3127 C3140 0.960 . S
C3128 H3120 0.929 . S
C3128 C3129 1.377 . S
C3128 C3130 1.384 . S
C3129 C3128 1.377 . S
C3129 C3135 1.390 . S
C3130 H3121 0.930 . S
C3130 C3128 1.384 . S
C3130 C3131 1.372 . S
C3131 C3130 1.372 . S
C3131 C3132 1.400 . S
C3131 C3136 1.490 . S
C3132 H3122 0.930 . S
C3132 C3131 1.400 . S
C3132 C3135 1.386 . S
H3133 C3149 0.930 . S
H3134 C3150 0.931 . S
C3135 H3123 0.929 . S
C3135 C3129 1.390 . S
C3135 C3132 1.386 . S
C3136 C3131 1.490 . S
C3136 C3138 1.395 . S
C3136 C3139 1.403 . S
H3137 C3143 0.930 . S
C3138 H3124 0.930 . S
C3138 C3136 1.395 . S
C3138 C3141 1.403 . S
C3139 C3136 1.403 . S
C3139 C3140 1.524 . S
C3139 C3143 1.400 . S
C3140 H3125 0.960 . S
C3140 H3126 0.960 . S
C3140 H3127 0.960 . S
C3140 C3139 1.524 . S
C3141 C3138 1.403 . S
C3141 C3142 1.392 . S
C3141 C3145 1.495 . S
C3142 C3141 1.392 . S
C3142 C3143 1.385 . S
C3142 C3144 1.478 . S
C3143 H3137 0.930 . S
C3143 C3139 1.400 . S
C3143 C3142 1.385 . S
C3144 C3142 1.478 . S
C3144 C3146 1.381 . S
C3144 C3150 1.383 . S
C3145 C3141 1.495 . S
C3145 H3151 0.959 . S
C3145 H3152 0.961 . S
C3145 H3153 0.960 . S
C3146 C3144 1.381 . S
C3146 C3147 1.394 . S
C3146 H3154 0.930 . S
C3147 C3146 1.394 . S
C3147 C3148 1.383 . S
C3147 H3155 0.929 . S
C3148 C3147 1.383 . S
C3148 C3149 1.377 . S
C3149 H3133 0.930 . S
C3149 C3148 1.377 . S
C3149 C3150 1.379 . S
C3150 H3134 0.931 . S
C3150 C3144 1.383 . S
C3150 C3149 1.379 . S
H3151 C3145 0.959 . S
H3152 C3145 0.961 . S
H3153 C3145 0.960 . S
H3154 C3146 0.930 . S
H3155 C3147 0.929 . S
H3156 C3164 0.929 . S
H3157 C3166 0.930 . S
H3158 C3168 0.930 . S
H3159 C3171 0.929 . S
H3160 C3174 0.930 . S
H3161 C3176 0.960 . S
H3162 C3176 0.960 . S
H3163 C3176 0.960 . S
C3164 H3156 0.929 . S
C3164 C3165 1.377 . S
C3164 C3166 1.384 . S
C3165 C3164 1.377 . S
C3165 C3171 1.390 . S
C3166 H3157 0.930 . S
C3166 C3164 1.384 . S
C3166 C3167 1.372 . S
C3167 C3166 1.372 . S
C3167 C3168 1.400 . S
C3167 C3172 1.490 . S
C3168 H3158 0.930 . S
C3168 C3167 1.400 . S
C3168 C3171 1.386 . S
H3169 C3185 0.930 . S
H3170 C3186 0.931 . S
C3171 H3159 0.929 . S
C3171 C3165 1.390 . S
C3171 C3168 1.386 . S
C3172 C3167 1.490 . S
C3172 C3174 1.395 . S
C3172 C3175 1.403 . S
H3173 C3179 0.930 . S
C3174 H3160 0.930 . S
C3174 C3172 1.395 . S
C3174 C3177 1.403 . S
C3175 C3172 1.403 . S
C3175 C3176 1.524 . S
C3175 C3179 1.400 . S
C3176 H3161 0.960 . S
C3176 H3162 0.960 . S
C3176 H3163 0.960 . S
C3176 C3175 1.524 . S
C3177 C3174 1.403 . S
C3177 C3178 1.392 . S
C3177 C3181 1.495 . S
C3178 C3177 1.392 . S
C3178 C3179 1.385 . S
C3178 C3180 1.478 . S
C3179 H3173 0.930 . S
C3179 C3175 1.400 . S
C3179 C3178 1.385 . S
C3180 C3178 1.478 . S
C3180 C3182 1.381 . S
C3180 C3186 1.383 . S
C3181 C3177 1.495 . S
C3181 H3187 0.959 . S
C3181 H3188 0.961 . S
C3181 H3189 0.960 . S
C3182 C3180 1.381 . S
C3182 C3183 1.394 . S
C3182 H3190 0.930 . S
C3183 C3182 1.394 . S
C3183 C3184 1.383 . S
C3183 H3191 0.929 . S
C3184 C3183 1.383 . S
C3184 C3185 1.377 . S
C3185 H3169 0.930 . S
C3185 C3184 1.377 . S
C3185 C3186 1.379 . S
C3186 H3170 0.931 . S
C3186 C3180 1.383 . S
C3186 C3185 1.379 . S
H3187 C3181 0.959 . S
H3188 C3181 0.961 . S
H3189 C3181 0.960 . S
H3190 C3182 0.930 . S
H3191 C3183 0.929 . S
H3192 C3200 0.929 . S
H3193 C3202 0.930 . S
H3194 C3204 0.930 . S
H3195 C3207 0.929 . S
H3196 C3210 0.930 . S
H3197 C3212 0.960 . S
H3198 C3212 0.960 . S
H3199 C3212 0.960 . S
C3200 H3192 0.929 . S
C3200 C3201 1.377 . S
C3200 C3202 1.384 . S
C3201 C3200 1.377 . S
C3201 C3207 1.390 . S
C3202 H3193 0.930 . S
C3202 C3200 1.384 . S
C3202 C3203 1.372 . S
C3203 C3202 1.372 . S
C3203 C3204 1.400 . S
C3203 C3208 1.490 . S
C3204 H3194 0.930 . S
C3204 C3203 1.400 . S
C3204 C3207 1.386 . S
H3205 C3221 0.930 . S
H3206 C3222 0.931 . S
C3207 H3195 0.929 . S
C3207 C3201 1.390 . S
C3207 C3204 1.386 . S
C3208 C3203 1.490 . S
C3208 C3210 1.395 . S
C3208 C3211 1.403 . S
H3209 C3215 0.930 . S
C3210 H3196 0.930 . S
C3210 C3208 1.395 . S
C3210 C3213 1.403 . S
C3211 C3208 1.403 . S
C3211 C3212 1.524 . S
C3211 C3215 1.400 . S
C3212 H3197 0.960 . S
C3212 H3198 0.960 . S
C3212 H3199 0.960 . S
C3212 C3211 1.524 . S
C3213 C3210 1.403 . S
C3213 C3214 1.392 . S
C3213 C3217 1.495 . S
C3214 C3213 1.392 . S
C3214 C3215 1.385 . S
C3214 C3216 1.478 . S
C3215 H3209 0.930 . S
C3215 C3211 1.400 . S
C3215 C3214 1.385 . S
C3216 C3214 1.478 . S
C3216 C3218 1.381 . S
C3216 C3222 1.383 . S
C3217 C3213 1.495 . S
C3217 H3223 0.959 . S
C3217 H3224 0.961 . S
C3217 H3225 0.960 . S
C3218 C3216 1.381 . S
C3218 C3219 1.394 . S
C3218 H3226 0.930 . S
C3219 C3218 1.394 . S
C3219 C3220 1.383 . S
C3219 H3227 0.929 . S
C3220 C3219 1.383 . S
C3220 C3221 1.377 . S
C3221 H3205 0.930 . S
C3221 C3220 1.377 . S
C3221 C3222 1.379 . S
C3222 H3206 0.931 . S
C3222 C3216 1.383 . S
C3222 C3221 1.379 . S
H3223 C3217 0.959 . S
H3224 C3217 0.961 . S
H3225 C3217 0.960 . S
H3226 C3218 0.930 . S
H3227 C3219 0.929 . S
H3228 C3236 0.929 . S
H3229 C3238 0.930 . S
H3230 C3240 0.930 . S
H3231 C3243 0.929 . S
H3232 C3246 0.930 . S
H3233 C3248 0.960 . S
H3234 C3248 0.960 . S
H3235 C3248 0.960 . S
C3236 H3228 0.929 . S
C3236 C3237 1.377 . S
C3236 C3238 1.384 . S
C3237 C3236 1.377 . S
C3237 C3243 1.390 . S
C3238 H3229 0.930 . S
C3238 C3236 1.384 . S
C3238 C3239 1.372 . S
C3239 C3238 1.372 . S
C3239 C3240 1.400 . S
C3239 C3244 1.490 . S
C3240 H3230 0.930 . S
C3240 C3239 1.400 . S
C3240 C3243 1.386 . S
H3241 C3257 0.930 . S
H3242 C3258 0.931 . S
C3243 H3231 0.929 . S
C3243 C3237 1.390 . S
C3243 C3240 1.386 . S
C3244 C3239 1.490 . S
C3244 C3246 1.395 . S
C3244 C3247 1.403 . S
H3245 C3251 0.930 . S
C3246 H3232 0.930 . S
C3246 C3244 1.395 . S
C3246 C3249 1.403 . S
C3247 C3244 1.403 . S
C3247 C3248 1.524 . S
C3247 C3251 1.400 . S
C3248 H3233 0.960 . S
C3248 H3234 0.960 . S
C3248 H3235 0.960 . S
C3248 C3247 1.524 . S
C3249 C3246 1.403 . S
C3249 C3250 1.392 . S
C3249 C3253 1.495 . S
C3250 C3249 1.392 . S
C3250 C3251 1.385 . S
C3250 C3252 1.478 . S
C3251 H3245 0.930 . S
C3251 C3247 1.400 . S
C3251 C3250 1.385 . S
C3252 C3250 1.478 . S
C3252 C3254 1.381 . S
C3252 C3258 1.383 . S
C3253 C3249 1.495 . S
C3253 H3259 0.959 . S
C3253 H3260 0.961 . S
C3253 H3261 0.960 . S
C3254 C3252 1.381 . S
C3254 C3255 1.394 . S
C3254 H3262 0.930 . S
C3255 C3254 1.394 . S
C3255 C3256 1.383 . S
C3255 H3263 0.929 . S
C3256 C3255 1.383 . S
C3256 C3257 1.377 . S
C3257 H3241 0.930 . S
C3257 C3256 1.377 . S
C3257 C3258 1.379 . S
C3258 H3242 0.931 . S
C3258 C3252 1.383 . S
C3258 C3257 1.379 . S
H3259 C3253 0.959 . S
H3260 C3253 0.961 . S
H3261 C3253 0.960 . S
H3262 C3254 0.930 . S
H3263 C3255 0.929 . S
H3264 C3272 0.929 . S
H3265 C3274 0.930 . S
H3266 C3276 0.930 . S
H3267 C3279 0.929 . S
H3268 C3282 0.930 . S
H3269 C3284 0.960 . S
H3270 C3284 0.960 . S
H3271 C3284 0.960 . S
C3272 H3264 0.929 . S
C3272 C3273 1.377 . S
C3272 C3274 1.384 . S
C3273 C3272 1.377 . S
C3273 C3279 1.390 . S
C3274 H3265 0.930 . S
C3274 C3272 1.384 . S
C3274 C3275 1.372 . S
C3275 C3274 1.372 . S
C3275 C3276 1.400 . S
C3275 C3280 1.490 . S
C3276 H3266 0.930 . S
C3276 C3275 1.400 . S
C3276 C3279 1.386 . S
H3277 C3293 0.930 . S
H3278 C3294 0.931 . S
C3279 H3267 0.929 . S
C3279 C3273 1.390 . S
C3279 C3276 1.386 . S
C3280 C3275 1.490 . S
C3280 C3282 1.395 . S
C3280 C3283 1.403 . S
H3281 C3287 0.930 . S
C3282 H3268 0.930 . S
C3282 C3280 1.395 . S
C3282 C3285 1.403 . S
C3283 C3280 1.403 . S
C3283 C3284 1.524 . S
C3283 C3287 1.400 . S
C3284 H3269 0.960 . S
C3284 H3270 0.960 . S
C3284 H3271 0.960 . S
C3284 C3283 1.524 . S
C3285 C3282 1.403 . S
C3285 C3286 1.392 . S
C3285 C3289 1.495 . S
C3286 C3285 1.392 . S
C3286 C3287 1.385 . S
C3286 C3288 1.478 . S
C3287 H3281 0.930 . S
C3287 C3283 1.400 . S
C3287 C3286 1.385 . S
C3288 C3286 1.478 . S
C3288 C3290 1.381 . S
C3288 C3294 1.383 . S
C3289 C3285 1.495 . S
C3289 H3295 0.959 . S
C3289 H3296 0.961 . S
C3289 H3297 0.960 . S
C3290 C3288 1.381 . S
C3290 C3291 1.394 . S
C3290 H3298 0.930 . S
C3291 C3290 1.394 . S
C3291 C3292 1.383 . S
C3291 H3299 0.929 . S
C3292 C3291 1.383 . S
C3292 C3293 1.377 . S
C3293 H3277 0.930 . S
C3293 C3292 1.377 . S
C3293 C3294 1.379 . S
C3294 H3278 0.931 . S
C3294 C3288 1.383 . S
C3294 C3293 1.379 . S
H3295 C3289 0.959 . S
H3296 C3289 0.961 . S
H3297 C3289 0.960 . S
H3298 C3290 0.930 . S
H3299 C3291 0.929 . S
H3300 C3308 0.929 . S
H3301 C3310 0.930 . S
H3302 C3312 0.930 . S
H3303 C3315 0.929 . S
H3304 C3318 0.930 . S
H3305 C3320 0.960 . S
H3306 C3320 0.960 . S
H3307 C3320 0.960 . S
C3308 H3300 0.929 . S
C3308 C3309 1.377 . S
C3308 C3310 1.384 . S
C3309 C3308 1.377 . S
C3309 C3315 1.390 . S
C3310 H3301 0.930 . S
C3310 C3308 1.384 . S
C3310 C3311 1.372 . S
C3311 C3310 1.372 . S
C3311 C3312 1.400 . S
C3311 C3316 1.490 . S
C3312 H3302 0.930 . S
C3312 C3311 1.400 . S
C3312 C3315 1.386 . S
H3313 C3329 0.930 . S
H3314 C3330 0.931 . S
C3315 H3303 0.929 . S
C3315 C3309 1.390 . S
C3315 C3312 1.386 . S
C3316 C3311 1.490 . S
C3316 C3318 1.395 . S
C3316 C3319 1.403 . S
H3317 C3323 0.930 . S
C3318 H3304 0.930 . S
C3318 C3316 1.395 . S
C3318 C3321 1.403 . S
C3319 C3316 1.403 . S
C3319 C3320 1.524 . S
C3319 C3323 1.400 . S
C3320 H3305 0.960 . S
C3320 H3306 0.960 . S
C3320 H3307 0.960 . S
C3320 C3319 1.524 . S
C3321 C3318 1.403 . S
C3321 C3322 1.392 . S
C3321 C3325 1.495 . S
C3322 C3321 1.392 . S
C3322 C3323 1.385 . S
C3322 C3324 1.478 . S
C3323 H3317 0.930 . S
C3323 C3319 1.400 . S
C3323 C3322 1.385 . S
C3324 C3322 1.478 . S
C3324 C3326 1.381 . S
C3324 C3330 1.383 . S
C3325 C3321 1.495 . S
C3325 H3331 0.959 . S
C3325 H3332 0.961 . S
C3325 H3333 0.960 . S
C3326 C3324 1.381 . S
C3326 C3327 1.394 . S
C3326 H3334 0.930 . S
C3327 C3326 1.394 . S
C3327 C3328 1.383 . S
C3327 H3335 0.929 . S
C3328 C3327 1.383 . S
C3328 C3329 1.377 . S
C3329 H3313 0.930 . S
C3329 C3328 1.377 . S
C3329 C3330 1.379 . S
C3330 H3314 0.931 . S
C3330 C3324 1.383 . S
C3330 C3329 1.379 . S
H3331 C3325 0.959 . S
H3332 C3325 0.961 . S
H3333 C3325 0.960 . S
H3334 C3326 0.930 . S
H3335 C3327 0.929 . S
H3336 C3344 0.929 . S
H3337 C3346 0.930 . S
H3338 C3348 0.930 . S
H3339 C3351 0.929 . S
H3340 C3354 0.930 . S
H3341 C3356 0.960 . S
H3342 C3356 0.960 . S
H3343 C3356 0.960 . S
C3344 H3336 0.929 . S
C3344 C3345 1.377 . S
C3344 C3346 1.384 . S
C3345 C3344 1.377 . S
C3345 C3351 1.390 . S
C3346 H3337 0.930 . S
C3346 C3344 1.384 . S
C3346 C3347 1.372 . S
C3347 C3346 1.372 . S
C3347 C3348 1.400 . S
C3347 C3352 1.490 . S
C3348 H3338 0.930 . S
C3348 C3347 1.400 . S
C3348 C3351 1.386 . S
H3349 C3365 0.930 . S
H3350 C3366 0.931 . S
C3351 H3339 0.929 . S
C3351 C3345 1.390 . S
C3351 C3348 1.386 . S
C3352 C3347 1.490 . S
C3352 C3354 1.395 . S
C3352 C3355 1.403 . S
H3353 C3359 0.930 . S
C3354 H3340 0.930 . S
C3354 C3352 1.395 . S
C3354 C3357 1.403 . S
C3355 C3352 1.403 . S
C3355 C3356 1.524 . S
C3355 C3359 1.400 . S
C3356 H3341 0.960 . S
C3356 H3342 0.960 . S
C3356 H3343 0.960 . S
C3356 C3355 1.524 . S
C3357 C3354 1.403 . S
C3357 C3358 1.392 . S
C3357 C3361 1.495 . S
C3358 C3357 1.392 . S
C3358 C3359 1.385 . S
C3358 C3360 1.478 . S
C3359 H3353 0.930 . S
C3359 C3355 1.400 . S
C3359 C3358 1.385 . S
C3360 C3358 1.478 . S
C3360 C3362 1.381 . S
C3360 C3366 1.383 . S
C3361 C3357 1.495 . S
C3361 H3367 0.959 . S
C3361 H3368 0.961 . S
C3361 H3369 0.960 . S
C3362 C3360 1.381 . S
C3362 C3363 1.394 . S
C3362 H3370 0.930 . S
C3363 C3362 1.394 . S
C3363 C3364 1.383 . S
C3363 H3371 0.929 . S
C3364 C3363 1.383 . S
C3364 C3365 1.377 . S
C3365 H3349 0.930 . S
C3365 C3364 1.377 . S
C3365 C3366 1.379 . S
C3366 H3350 0.931 . S
C3366 C3360 1.383 . S
C3366 C3365 1.379 . S
H3367 C3361 0.959 . S
H3368 C3361 0.961 . S
H3369 C3361 0.960 . S
H3370 C3362 0.930 . S
H3371 C3363 0.929 . S
H3372 C3380 0.929 . S
H3373 C3382 0.930 . S
H3374 C3384 0.930 . S
H3375 C3387 0.929 . S
H3376 C3390 0.930 . S
H3377 C3392 0.960 . S
H3378 C3392 0.960 . S
H3379 C3392 0.960 . S
C3380 H3372 0.929 . S
C3380 C3381 1.377 . S
C3380 C3382 1.384 . S
C3381 C3380 1.377 . S
C3381 C3387 1.390 . S
C3382 H3373 0.930 . S
C3382 C3380 1.384 . S
C3382 C3383 1.372 . S
C3383 C3382 1.372 . S
C3383 C3384 1.400 . S
C3383 C3388 1.490 . S
C3384 H3374 0.930 . S
C3384 C3383 1.400 . S
C3384 C3387 1.386 . S
H3385 C3401 0.930 . S
H3386 C3402 0.931 . S
C3387 H3375 0.929 . S
C3387 C3381 1.390 . S
C3387 C3384 1.386 . S
C3388 C3383 1.490 . S
C3388 C3390 1.395 . S
C3388 C3391 1.403 . S
H3389 C3395 0.930 . S
C3390 H3376 0.930 . S
C3390 C3388 1.395 . S
C3390 C3393 1.403 . S
C3391 C3388 1.403 . S
C3391 C3392 1.524 . S
C3391 C3395 1.400 . S
C3392 H3377 0.960 . S
C3392 H3378 0.960 . S
C3392 H3379 0.960 . S
C3392 C3391 1.524 . S
C3393 C3390 1.403 . S
C3393 C3394 1.392 . S
C3393 C3397 1.495 . S
C3394 C3393 1.392 . S
C3394 C3395 1.385 . S
C3394 C3396 1.478 . S
C3395 H3389 0.930 . S
C3395 C3391 1.400 . S
C3395 C3394 1.385 . S
C3396 C3394 1.478 . S
C3396 C3398 1.381 . S
C3396 C3402 1.383 . S
C3397 C3393 1.495 . S
C3397 H3403 0.959 . S
C3397 H3404 0.961 . S
C3397 H3405 0.960 . S
C3398 C3396 1.381 . S
C3398 C3399 1.394 . S
C3398 H3406 0.930 . S
C3399 C3398 1.394 . S
C3399 C3400 1.383 . S
C3399 H3407 0.929 . S
C3400 C3399 1.383 . S
C3400 C3401 1.377 . S
C3401 H3385 0.930 . S
C3401 C3400 1.377 . S
C3401 C3402 1.379 . S
C3402 H3386 0.931 . S
C3402 C3396 1.383 . S
C3402 C3401 1.379 . S
H3403 C3397 0.959 . S
H3404 C3397 0.961 . S
H3405 C3397 0.960 . S
H3406 C3398 0.930 . S
H3407 C3399 0.929 . S
H3408 C3416 0.929 . S
H3409 C3418 0.930 . S
H3410 C3420 0.930 . S
H3411 C3423 0.929 . S
H3412 C3426 0.930 . S
H3413 C3428 0.960 . S
H3414 C3428 0.960 . S
H3415 C3428 0.960 . S
C3416 H3408 0.929 . S
C3416 C3417 1.377 . S
C3416 C3418 1.384 . S
C3417 C3416 1.377 . S
C3417 C3423 1.390 . S
C3418 H3409 0.930 . S
C3418 C3416 1.384 . S
C3418 C3419 1.372 . S
C3419 C3418 1.372 . S
C3419 C3420 1.400 . S
C3419 C3424 1.490 . S
C3420 H3410 0.930 . S
C3420 C3419 1.400 . S
C3420 C3423 1.386 . S
H3421 C3437 0.930 . S
H3422 C3438 0.931 . S
C3423 H3411 0.929 . S
C3423 C3417 1.390 . S
C3423 C3420 1.386 . S
C3424 C3419 1.490 . S
C3424 C3426 1.395 . S
C3424 C3427 1.403 . S
H3425 C3431 0.930 . S
C3426 H3412 0.930 . S
C3426 C3424 1.395 . S
C3426 C3429 1.403 . S
C3427 C3424 1.403 . S
C3427 C3428 1.524 . S
C3427 C3431 1.400 . S
C3428 H3413 0.960 . S
C3428 H3414 0.960 . S
C3428 H3415 0.960 . S
C3428 C3427 1.524 . S
C3429 C3426 1.403 . S
C3429 C3430 1.392 . S
C3429 C3433 1.495 . S
C3430 C3429 1.392 . S
C3430 C3431 1.385 . S
C3430 C3432 1.478 . S
C3431 H3425 0.930 . S
C3431 C3427 1.400 . S
C3431 C3430 1.385 . S
C3432 C3430 1.478 . S
C3432 C3434 1.381 . S
C3432 C3438 1.383 . S
C3433 C3429 1.495 . S
C3433 H3439 0.959 . S
C3433 H3440 0.961 . S
C3433 H3441 0.960 . S
C3434 C3432 1.381 . S
C3434 C3435 1.394 . S
C3434 H3442 0.930 . S
C3435 C3434 1.394 . S
C3435 C3436 1.383 . S
C3435 H3443 0.929 . S
C3436 C3435 1.383 . S
C3436 C3437 1.377 . S
C3437 H3421 0.930 . S
C3437 C3436 1.377 . S
C3437 C3438 1.379 . S
C3438 H3422 0.931 . S
C3438 C3432 1.383 . S
C3438 C3437 1.379 . S
H3439 C3433 0.959 . S
H3440 C3433 0.961 . S
H3441 C3433 0.960 . S
H3442 C3434 0.930 . S
H3443 C3435 0.929 . S
H3444 C3452 0.929 . S
H3445 C3454 0.930 . S
H3446 C3456 0.930 . S
H3447 C3459 0.929 . S
H3448 C3462 0.930 . S
H3449 C3464 0.960 . S
H3450 C3464 0.960 . S
H3451 C3464 0.960 . S
C3452 H3444 0.929 . S
C3452 C3453 1.377 . S
C3452 C3454 1.384 . S
C3453 C3452 1.377 . S
C3453 C3459 1.390 . S
C3454 H3445 0.930 . S
C3454 C3452 1.384 . S
C3454 C3455 1.372 . S
C3455 C3454 1.372 . S
C3455 C3456 1.400 . S
C3455 C3460 1.490 . S
C3456 H3446 0.930 . S
C3456 C3455 1.400 . S
C3456 C3459 1.386 . S
H3457 C3473 0.930 . S
H3458 C3474 0.931 . S
C3459 H3447 0.929 . S
C3459 C3453 1.390 . S
C3459 C3456 1.386 . S
C3460 C3455 1.490 . S
C3460 C3462 1.395 . S
C3460 C3463 1.403 . S
H3461 C3467 0.930 . S
C3462 H3448 0.930 . S
C3462 C3460 1.395 . S
C3462 C3465 1.403 . S
C3463 C3460 1.403 . S
C3463 C3464 1.524 . S
C3463 C3467 1.400 . S
C3464 H3449 0.960 . S
C3464 H3450 0.960 . S
C3464 H3451 0.960 . S
C3464 C3463 1.524 . S
C3465 C3462 1.403 . S
C3465 C3466 1.392 . S
C3465 C3469 1.495 . S
C3466 C3465 1.392 . S
C3466 C3467 1.385 . S
C3466 C3468 1.478 . S
C3467 H3461 0.930 . S
C3467 C3463 1.400 . S
C3467 C3466 1.385 . S
C3468 C3466 1.478 . S
C3468 C3470 1.381 . S
C3468 C3474 1.383 . S
C3469 C3465 1.495 . S
C3469 H3475 0.959 . S
C3469 H3476 0.961 . S
C3469 H3477 0.960 . S
C3470 C3468 1.381 . S
C3470 C3471 1.394 . S
C3470 H3478 0.930 . S
C3471 C3470 1.394 . S
C3471 C3472 1.383 . S
C3471 H3479 0.929 . S
C3472 C3471 1.383 . S
C3472 C3473 1.377 . S
C3473 H3457 0.930 . S
C3473 C3472 1.377 . S
C3473 C3474 1.379 . S
C3474 H3458 0.931 . S
C3474 C3468 1.383 . S
C3474 C3473 1.379 . S
H3475 C3469 0.959 . S
H3476 C3469 0.961 . S
H3477 C3469 0.960 . S
H3478 C3470 0.930 . S
H3479 C3471 0.929 . S
H3480 C3488 0.929 . S
H3481 C3490 0.930 . S
H3482 C3492 0.930 . S
H3483 C3495 0.929 . S
H3484 C3498 0.930 . S
H3485 C3500 0.960 . S
H3486 C3500 0.960 . S
H3487 C3500 0.960 . S
C3488 H3480 0.929 . S
C3488 C3489 1.377 . S
C3488 C3490 1.384 . S
C3489 C3488 1.377 . S
C3489 C3495 1.390 . S
C3490 H3481 0.930 . S
C3490 C3488 1.384 . S
C3490 C3491 1.372 . S
C3491 C3490 1.372 . S
C3491 C3492 1.400 . S
C3491 C3496 1.490 . S
C3492 H3482 0.930 . S
C3492 C3491 1.400 . S
C3492 C3495 1.386 . S
H3493 C3509 0.930 . S
H3494 C3510 0.931 . S
C3495 H3483 0.929 . S
C3495 C3489 1.390 . S
C3495 C3492 1.386 . S
C3496 C3491 1.490 . S
C3496 C3498 1.395 . S
C3496 C3499 1.403 . S
H3497 C3503 0.930 . S
C3498 H3484 0.930 . S
C3498 C3496 1.395 . S
C3498 C3501 1.403 . S
C3499 C3496 1.403 . S
C3499 C3500 1.524 . S
C3499 C3503 1.400 . S
C3500 H3485 0.960 . S
C3500 H3486 0.960 . S
C3500 H3487 0.960 . S
C3500 C3499 1.524 . S
C3501 C3498 1.403 . S
C3501 C3502 1.392 . S
C3501 C3505 1.495 . S
C3502 C3501 1.392 . S
C3502 C3503 1.385 . S
C3502 C3504 1.478 . S
C3503 H3497 0.930 . S
C3503 C3499 1.400 . S
C3503 C3502 1.385 . S
C3504 C3502 1.478 . S
C3504 C3506 1.381 . S
C3504 C3510 1.383 . S
C3505 C3501 1.495 . S
C3505 H3511 0.959 . S
C3505 H3512 0.961 . S
C3505 H3513 0.960 . S
C3506 C3504 1.381 . S
C3506 C3507 1.394 . S
C3506 H3514 0.930 . S
C3507 C3506 1.394 . S
C3507 C3508 1.383 . S
C3507 H3515 0.929 . S
C3508 C3507 1.383 . S
C3508 C3509 1.377 . S
C3509 H3493 0.930 . S
C3509 C3508 1.377 . S
C3509 C3510 1.379 . S
C3510 H3494 0.931 . S
C3510 C3504 1.383 . S
C3510 C3509 1.379 . S
H3511 C3505 0.959 . S
H3512 C3505 0.961 . S
H3513 C3505 0.960 . S
H3514 C3506 0.930 . S
H3515 C3507 0.929 . S
H3516 C3524 0.929 . S
H3517 C3526 0.930 . S
H3518 C3528 0.930 . S
H3519 C3531 0.929 . S
H3520 C3534 0.930 . S
H3521 C3536 0.960 . S
H3522 C3536 0.960 . S
H3523 C3536 0.960 . S
C3524 H3516 0.929 . S
C3524 C3525 1.377 . S
C3524 C3526 1.384 . S
C3525 C3524 1.377 . S
C3525 C3531 1.390 . S
C3526 H3517 0.930 . S
C3526 C3524 1.384 . S
C3526 C3527 1.372 . S
C3527 C3526 1.372 . S
C3527 C3528 1.400 . S
C3527 C3532 1.490 . S
C3528 H3518 0.930 . S
C3528 C3527 1.400 . S
C3528 C3531 1.386 . S
H3529 C3545 0.930 . S
H3530 C3546 0.931 . S
C3531 H3519 0.929 . S
C3531 C3525 1.390 . S
C3531 C3528 1.386 . S
C3532 C3527 1.490 . S
C3532 C3534 1.395 . S
C3532 C3535 1.403 . S
H3533 C3539 0.930 . S
C3534 H3520 0.930 . S
C3534 C3532 1.395 . S
C3534 C3537 1.403 . S
C3535 C3532 1.403 . S
C3535 C3536 1.524 . S
C3535 C3539 1.400 . S
C3536 H3521 0.960 . S
C3536 H3522 0.960 . S
C3536 H3523 0.960 . S
C3536 C3535 1.524 . S
C3537 C3534 1.403 . S
C3537 C3538 1.392 . S
C3537 C3541 1.495 . S
C3538 C3537 1.392 . S
C3538 C3539 1.385 . S
C3538 C3540 1.478 . S
C3539 H3533 0.930 . S
C3539 C3535 1.400 . S
C3539 C3538 1.385 . S
C3540 C3538 1.478 . S
C3540 C3542 1.381 . S
C3540 C3546 1.383 . S
C3541 C3537 1.495 . S
C3541 H3547 0.959 . S
C3541 H3548 0.961 . S
C3541 H3549 0.960 . S
C3542 C3540 1.381 . S
C3542 C3543 1.394 . S
C3542 H3550 0.930 . S
C3543 C3542 1.394 . S
C3543 C3544 1.383 . S
C3543 H3551 0.929 . S
C3544 C3543 1.383 . S
C3544 C3545 1.377 . S
C3545 H3529 0.930 . S
C3545 C3544 1.377 . S
C3545 C3546 1.379 . S
C3546 H3530 0.931 . S
C3546 C3540 1.383 . S
C3546 C3545 1.379 . S
H3547 C3541 0.959 . S
H3548 C3541 0.961 . S
H3549 C3541 0.960 . S
H3550 C3542 0.930 . S
H3551 C3543 0.929 . S
H3552 C3560 0.929 . S
H3553 C3562 0.930 . S
H3554 C3564 0.930 . S
H3555 C3567 0.929 . S
H3556 C3570 0.930 . S
H3557 C3572 0.960 . S
H3558 C3572 0.960 . S
H3559 C3572 0.960 . S
C3560 H3552 0.929 . S
C3560 C3561 1.377 . S
C3560 C3562 1.384 . S
C3561 C3560 1.377 . S
C3561 C3567 1.390 . S
C3562 H3553 0.930 . S
C3562 C3560 1.384 . S
C3562 C3563 1.372 . S
C3563 C3562 1.372 . S
C3563 C3564 1.400 . S
C3563 C3568 1.490 . S
C3564 H3554 0.930 . S
C3564 C3563 1.400 . S
C3564 C3567 1.386 . S
H3565 C3581 0.930 . S
H3566 C3582 0.931 . S
C3567 H3555 0.929 . S
C3567 C3561 1.390 . S
C3567 C3564 1.386 . S
C3568 C3563 1.490 . S
C3568 C3570 1.395 . S
C3568 C3571 1.403 . S
H3569 C3575 0.930 . S
C3570 H3556 0.930 . S
C3570 C3568 1.395 . S
C3570 C3573 1.403 . S
C3571 C3568 1.403 . S
C3571 C3572 1.524 . S
C3571 C3575 1.400 . S
C3572 H3557 0.960 . S
C3572 H3558 0.960 . S
C3572 H3559 0.960 . S
C3572 C3571 1.524 . S
C3573 C3570 1.403 . S
C3573 C3574 1.392 . S
C3573 C3577 1.495 . S
C3574 C3573 1.392 . S
C3574 C3575 1.385 . S
C3574 C3576 1.478 . S
C3575 H3569 0.930 . S
C3575 C3571 1.400 . S
C3575 C3574 1.385 . S
C3576 C3574 1.478 . S
C3576 C3578 1.381 . S
C3576 C3582 1.383 . S
C3577 C3573 1.495 . S
C3577 H3583 0.959 . S
C3577 H3584 0.961 . S
C3577 H3585 0.960 . S
C3578 C3576 1.381 . S
C3578 C3579 1.394 . S
C3578 H3586 0.930 . S
C3579 C3578 1.394 . S
C3579 C3580 1.383 . S
C3579 H3587 0.929 . S
C3580 C3579 1.383 . S
C3580 C3581 1.377 . S
C3581 H3565 0.930 . S
C3581 C3580 1.377 . S
C3581 C3582 1.379 . S
C3582 H3566 0.931 . S
C3582 C3576 1.383 . S
C3582 C3581 1.379 . S
H3583 C3577 0.959 . S
H3584 C3577 0.961 . S
H3585 C3577 0.960 . S
H3586 C3578 0.930 . S
H3587 C3579 0.929 . S
H3588 C3596 0.929 . S
H3589 C3598 0.930 . S
H3590 C3600 0.930 . S
H3591 C3603 0.929 . S
H3592 C3606 0.930 . S
H3593 C3608 0.960 . S
H3594 C3608 0.960 . S
H3595 C3608 0.960 . S
C3596 H3588 0.929 . S
C3596 C3597 1.377 . S
C3596 C3598 1.384 . S
C3597 C3596 1.377 . S
C3597 C3603 1.390 . S
C3598 H3589 0.930 . S
C3598 C3596 1.384 . S
C3598 C3599 1.372 . S
C3599 C3598 1.372 . S
C3599 C3600 1.400 . S
C3599 C3604 1.490 . S
C3600 H3590 0.930 . S
C3600 C3599 1.400 . S
C3600 C3603 1.386 . S
H3601 C3617 0.930 . S
H3602 C3618 0.931 . S
C3603 H3591 0.929 . S
C3603 C3597 1.390 . S
C3603 C3600 1.386 . S
C3604 C3599 1.490 . S
C3604 C3606 1.395 . S
C3604 C3607 1.403 . S
H3605 C3611 0.930 . S
C3606 H3592 0.930 . S
C3606 C3604 1.395 . S
C3606 C3609 1.403 . S
C3607 C3604 1.403 . S
C3607 C3608 1.524 . S
C3607 C3611 1.400 . S
C3608 H3593 0.960 . S
C3608 H3594 0.960 . S
C3608 H3595 0.960 . S
C3608 C3607 1.524 . S
C3609 C3606 1.403 . S
C3609 C3610 1.392 . S
C3609 C3613 1.495 . S
C3610 C3609 1.392 . S
C3610 C3611 1.385 . S
C3610 C3612 1.478 . S
C3611 H3605 0.930 . S
C3611 C3607 1.400 . S
C3611 C3610 1.385 . S
C3612 C3610 1.478 . S
C3612 C3614 1.381 . S
C3612 C3618 1.383 . S
C3613 C3609 1.495 . S
C3613 H3619 0.959 . S
C3613 H3620 0.961 . S
C3613 H3621 0.960 . S
C3614 C3612 1.381 . S
C3614 C3615 1.394 . S
C3614 H3622 0.930 . S
C3615 C3614 1.394 . S
C3615 C3616 1.383 . S
C3615 H3623 0.929 . S
C3616 C3615 1.383 . S
C3616 C3617 1.377 . S
C3617 H3601 0.930 . S
C3617 C3616 1.377 . S
C3617 C3618 1.379 . S
C3618 H3602 0.931 . S
C3618 C3612 1.383 . S
C3618 C3617 1.379 . S
H3619 C3613 0.959 . S
H3620 C3613 0.961 . S
H3621 C3613 0.960 . S
H3622 C3614 0.930 . S
H3623 C3615 0.929 . S
H3624 C3632 0.929 . S
H3625 C3634 0.930 . S
H3626 C3636 0.930 . S
H3627 C3639 0.929 . S
H3628 C3642 0.930 . S
H3629 C3644 0.960 . S
H3630 C3644 0.960 . S
H3631 C3644 0.960 . S
C3632 H3624 0.929 . S
C3632 C3633 1.377 . S
C3632 C3634 1.384 . S
C3633 C3632 1.377 . S
C3633 C3639 1.390 . S
C3634 H3625 0.930 . S
C3634 C3632 1.384 . S
C3634 C3635 1.372 . S
C3635 C3634 1.372 . S
C3635 C3636 1.400 . S
C3635 C3640 1.490 . S
C3636 H3626 0.930 . S
C3636 C3635 1.400 . S
C3636 C3639 1.386 . S
H3637 C3653 0.930 . S
H3638 C3654 0.931 . S
C3639 H3627 0.929 . S
C3639 C3633 1.390 . S
C3639 C3636 1.386 . S
C3640 C3635 1.490 . S
C3640 C3642 1.395 . S
C3640 C3643 1.403 . S
H3641 C3647 0.930 . S
C3642 H3628 0.930 . S
C3642 C3640 1.395 . S
C3642 C3645 1.403 . S
C3643 C3640 1.403 . S
C3643 C3644 1.524 . S
C3643 C3647 1.400 . S
C3644 H3629 0.960 . S
C3644 H3630 0.960 . S
C3644 H3631 0.960 . S
C3644 C3643 1.524 . S
C3645 C3642 1.403 . S
C3645 C3646 1.392 . S
C3645 C3649 1.495 . S
C3646 C3645 1.392 . S
C3646 C3647 1.385 . S
C3646 C3648 1.478 . S
C3647 H3641 0.930 . S
C3647 C3643 1.400 . S
C3647 C3646 1.385 . S
C3648 C3646 1.478 . S
C3648 C3650 1.381 . S
C3648 C3654 1.383 . S
C3649 C3645 1.495 . S
C3649 H3655 0.959 . S
C3649 H3656 0.961 . S
C3649 H3657 0.960 . S
C3650 C3648 1.381 . S
C3650 C3651 1.394 . S
C3650 H3658 0.930 . S
C3651 C3650 1.394 . S
C3651 C3652 1.383 . S
C3651 H3659 0.929 . S
C3652 C3651 1.383 . S
C3652 C3653 1.377 . S
C3653 H3637 0.930 . S
C3653 C3652 1.377 . S
C3653 C3654 1.379 . S
C3654 H3638 0.931 . S
C3654 C3648 1.383 . S
C3654 C3653 1.379 . S
H3655 C3649 0.959 . S
H3656 C3649 0.961 . S
H3657 C3649 0.960 . S
H3658 C3650 0.930 . S
H3659 C3651 0.929 . S
H3660 C3668 0.929 . S
H3661 C3670 0.930 . S
H3662 C3672 0.930 . S
H3663 C3675 0.929 . S
H3664 C3678 0.930 . S
H3665 C3680 0.960 . S
H3666 C3680 0.960 . S
H3667 C3680 0.960 . S
C3668 H3660 0.929 . S
C3668 C3669 1.377 . S
C3668 C3670 1.384 . S
C3669 C3668 1.377 . S
C3669 C3675 1.390 . S
C3670 H3661 0.930 . S
C3670 C3668 1.384 . S
C3670 C3671 1.372 . S
C3671 C3670 1.372 . S
C3671 C3672 1.400 . S
C3671 C3676 1.490 . S
C3672 H3662 0.930 . S
C3672 C3671 1.400 . S
C3672 C3675 1.386 . S
H3673 C3689 0.930 . S
H3674 C3690 0.931 . S
C3675 H3663 0.929 . S
C3675 C3669 1.390 . S
C3675 C3672 1.386 . S
C3676 C3671 1.490 . S
C3676 C3678 1.395 . S
C3676 C3679 1.403 . S
H3677 C3683 0.930 . S
C3678 H3664 0.930 . S
C3678 C3676 1.395 . S
C3678 C3681 1.403 . S
C3679 C3676 1.403 . S
C3679 C3680 1.524 . S
C3679 C3683 1.400 . S
C3680 H3665 0.960 . S
C3680 H3666 0.960 . S
C3680 H3667 0.960 . S
C3680 C3679 1.524 . S
C3681 C3678 1.403 . S
C3681 C3682 1.392 . S
C3681 C3685 1.495 . S
C3682 C3681 1.392 . S
C3682 C3683 1.385 . S
C3682 C3684 1.478 . S
C3683 H3677 0.930 . S
C3683 C3679 1.400 . S
C3683 C3682 1.385 . S
C3684 C3682 1.478 . S
C3684 C3686 1.381 . S
C3684 C3690 1.383 . S
C3685 C3681 1.495 . S
C3685 H3691 0.959 . S
C3685 H3692 0.961 . S
C3685 H3693 0.960 . S
C3686 C3684 1.381 . S
C3686 C3687 1.394 . S
C3686 H3694 0.930 . S
C3687 C3686 1.394 . S
C3687 C3688 1.383 . S
C3687 H3695 0.929 . S
C3688 C3687 1.383 . S
C3688 C3689 1.377 . S
C3689 H3673 0.930 . S
C3689 C3688 1.377 . S
C3689 C3690 1.379 . S
C3690 H3674 0.931 . S
C3690 C3684 1.383 . S
C3690 C3689 1.379 . S
H3691 C3685 0.959 . S
H3692 C3685 0.961 . S
H3693 C3685 0.960 . S
H3694 C3686 0.930 . S
H3695 C3687 0.929 . S
H3696 C3704 0.929 . S
H3697 C3706 0.930 . S
H3698 C3708 0.930 . S
H3699 C3711 0.929 . S
H3700 C3714 0.930 . S
H3701 C3716 0.960 . S
H3702 C3716 0.960 . S
H3703 C3716 0.960 . S
C3704 H3696 0.929 . S
C3704 C3705 1.377 . S
C3704 C3706 1.384 . S
C3705 C3704 1.377 . S
C3705 C3711 1.390 . S
C3706 H3697 0.930 . S
C3706 C3704 1.384 . S
C3706 C3707 1.372 . S
C3707 C3706 1.372 . S
C3707 C3708 1.400 . S
C3707 C3712 1.490 . S
C3708 H3698 0.930 . S
C3708 C3707 1.400 . S
C3708 C3711 1.386 . S
H3709 C3725 0.930 . S
H3710 C3726 0.931 . S
C3711 H3699 0.929 . S
C3711 C3705 1.390 . S
C3711 C3708 1.386 . S
C3712 C3707 1.490 . S
C3712 C3714 1.395 . S
C3712 C3715 1.403 . S
H3713 C3719 0.930 . S
C3714 H3700 0.930 . S
C3714 C3712 1.395 . S
C3714 C3717 1.403 . S
C3715 C3712 1.403 . S
C3715 C3716 1.524 . S
C3715 C3719 1.400 . S
C3716 H3701 0.960 . S
C3716 H3702 0.960 . S
C3716 H3703 0.960 . S
C3716 C3715 1.524 . S
C3717 C3714 1.403 . S
C3717 C3718 1.392 . S
C3717 C3721 1.495 . S
C3718 C3717 1.392 . S
C3718 C3719 1.385 . S
C3718 C3720 1.478 . S
C3719 H3713 0.930 . S
C3719 C3715 1.400 . S
C3719 C3718 1.385 . S
C3720 C3718 1.478 . S
C3720 C3722 1.381 . S
C3720 C3726 1.383 . S
C3721 C3717 1.495 . S
C3721 H3727 0.959 . S
C3721 H3728 0.961 . S
C3721 H3729 0.960 . S
C3722 C3720 1.381 . S
C3722 C3723 1.394 . S
C3722 H3730 0.930 . S
C3723 C3722 1.394 . S
C3723 C3724 1.383 . S
C3723 H3731 0.929 . S
C3724 C3723 1.383 . S
C3724 C3725 1.377 . S
C3725 H3709 0.930 . S
C3725 C3724 1.377 . S
C3725 C3726 1.379 . S
C3726 H3710 0.931 . S
C3726 C3720 1.383 . S
C3726 C3725 1.379 . S
H3727 C3721 0.959 . S
H3728 C3721 0.961 . S
H3729 C3721 0.960 . S
H3730 C3722 0.930 . S
H3731 C3723 0.929 . S
H3732 C3740 0.929 . S
H3733 C3742 0.930 . S
H3734 C3744 0.930 . S
H3735 C3747 0.929 . S
H3736 C3750 0.930 . S
H3737 C3752 0.960 . S
H3738 C3752 0.960 . S
H3739 C3752 0.960 . S
C3740 H3732 0.929 . S
C3740 C3741 1.377 . S
C3740 C3742 1.384 . S
C3741 C3740 1.377 . S
C3741 C3747 1.390 . S
C3742 H3733 0.930 . S
C3742 C3740 1.384 . S
C3742 C3743 1.372 . S
C3743 C3742 1.372 . S
C3743 C3744 1.400 . S
C3743 C3748 1.490 . S
C3744 H3734 0.930 . S
C3744 C3743 1.400 . S
C3744 C3747 1.386 . S
H3745 C3761 0.930 . S
H3746 C3762 0.931 . S
C3747 H3735 0.929 . S
C3747 C3741 1.390 . S
C3747 C3744 1.386 . S
C3748 C3743 1.490 . S
C3748 C3750 1.395 . S
C3748 C3751 1.403 . S
H3749 C3755 0.930 . S
C3750 H3736 0.930 . S
C3750 C3748 1.395 . S
C3750 C3753 1.403 . S
C3751 C3748 1.403 . S
C3751 C3752 1.524 . S
C3751 C3755 1.400 . S
C3752 H3737 0.960 . S
C3752 H3738 0.960 . S
C3752 H3739 0.960 . S
C3752 C3751 1.524 . S
C3753 C3750 1.403 . S
C3753 C3754 1.392 . S
C3753 C3757 1.495 . S
C3754 C3753 1.392 . S
C3754 C3755 1.385 . S
C3754 C3756 1.478 . S
C3755 H3749 0.930 . S
C3755 C3751 1.400 . S
C3755 C3754 1.385 . S
C3756 C3754 1.478 . S
C3756 C3758 1.381 . S
C3756 C3762 1.383 . S
C3757 C3753 1.495 . S
C3757 H3763 0.959 . S
C3757 H3764 0.961 . S
C3757 H3765 0.960 . S
C3758 C3756 1.381 . S
C3758 C3759 1.394 . S
C3758 H3766 0.930 . S
C3759 C3758 1.394 . S
C3759 C3760 1.383 . S
C3759 H3767 0.929 . S
C3760 C3759 1.383 . S
C3760 C3761 1.377 . S
C3761 H3745 0.930 . S
C3761 C3760 1.377 . S
C3761 C3762 1.379 . S
C3762 H3746 0.931 . S
C3762 C3756 1.383 . S
C3762 C3761 1.379 . S
H3763 C3757 0.959 . S
H3764 C3757 0.961 . S
H3765 C3757 0.960 . S
H3766 C3758 0.930 . S
H3767 C3759 0.929 . S
H3768 C3776 0.929 . S
H3769 C3778 0.930 . S
H3770 C3780 0.930 . S
H3771 C3783 0.929 . S
H3772 C3786 0.930 . S
H3773 C3788 0.960 . S
H3774 C3788 0.960 . S
H3775 C3788 0.960 . S
C3776 H3768 0.929 . S
C3776 C3777 1.377 . S
C3776 C3778 1.384 . S
C3777 C3776 1.377 . S
C3777 C3783 1.390 . S
C3778 H3769 0.930 . S
C3778 C3776 1.384 . S
C3778 C3779 1.372 . S
C3779 C3778 1.372 . S
C3779 C3780 1.400 . S
C3779 C3784 1.490 . S
C3780 H3770 0.930 . S
C3780 C3779 1.400 . S
C3780 C3783 1.386 . S
H3781 C3797 0.930 . S
H3782 C3798 0.931 . S
C3783 H3771 0.929 . S
C3783 C3777 1.390 . S
C3783 C3780 1.386 . S
C3784 C3779 1.490 . S
C3784 C3786 1.395 . S
C3784 C3787 1.403 . S
H3785 C3791 0.930 . S
C3786 H3772 0.930 . S
C3786 C3784 1.395 . S
C3786 C3789 1.403 . S
C3787 C3784 1.403 . S
C3787 C3788 1.524 . S
C3787 C3791 1.400 . S
C3788 H3773 0.960 . S
C3788 H3774 0.960 . S
C3788 H3775 0.960 . S
C3788 C3787 1.524 . S
C3789 C3786 1.403 . S
C3789 C3790 1.392 . S
C3789 C3793 1.495 . S
C3790 C3789 1.392 . S
C3790 C3791 1.385 . S
C3790 C3792 1.478 . S
C3791 H3785 0.930 . S
C3791 C3787 1.400 . S
C3791 C3790 1.385 . S
C3792 C3790 1.478 . S
C3792 C3794 1.381 . S
C3792 C3798 1.383 . S
C3793 C3789 1.495 . S
C3793 H3799 0.959 . S
C3793 H3800 0.961 . S
C3793 H3801 0.960 . S
C3794 C3792 1.381 . S
C3794 C3795 1.394 . S
C3794 H3802 0.930 . S
C3795 C3794 1.394 . S
C3795 C3796 1.383 . S
C3795 H3803 0.929 . S
C3796 C3795 1.383 . S
C3796 C3797 1.377 . S
C3797 H3781 0.930 . S
C3797 C3796 1.377 . S
C3797 C3798 1.379 . S
C3798 H3782 0.931 . S
C3798 C3792 1.383 . S
C3798 C3797 1.379 . S
H3799 C3793 0.959 . S
H3800 C3793 0.961 . S
H3801 C3793 0.960 . S
H3802 C3794 0.930 . S
H3803 C3795 0.929 . S
H3804 C3812 0.929 . S
H3805 C3814 0.930 . S
H3806 C3816 0.930 . S
H3807 C3819 0.929 . S
H3808 C3822 0.930 . S
H3809 C3824 0.960 . S
H3810 C3824 0.960 . S
H3811 C3824 0.960 . S
C3812 H3804 0.929 . S
C3812 C3813 1.377 . S
C3812 C3814 1.384 . S
C3813 C3812 1.377 . S
C3813 C3819 1.390 . S
C3814 H3805 0.930 . S
C3814 C3812 1.384 . S
C3814 C3815 1.372 . S
C3815 C3814 1.372 . S
C3815 C3816 1.400 . S
C3815 C3820 1.490 . S
C3816 H3806 0.930 . S
C3816 C3815 1.400 . S
C3816 C3819 1.386 . S
H3817 C3833 0.930 . S
H3818 C3834 0.931 . S
C3819 H3807 0.929 . S
C3819 C3813 1.390 . S
C3819 C3816 1.386 . S
C3820 C3815 1.490 . S
C3820 C3822 1.395 . S
C3820 C3823 1.403 . S
H3821 C3827 0.930 . S
C3822 H3808 0.930 . S
C3822 C3820 1.395 . S
C3822 C3825 1.403 . S
C3823 C3820 1.403 . S
C3823 C3824 1.524 . S
C3823 C3827 1.400 . S
C3824 H3809 0.960 . S
C3824 H3810 0.960 . S
C3824 H3811 0.960 . S
C3824 C3823 1.524 . S
C3825 C3822 1.403 . S
C3825 C3826 1.392 . S
C3825 C3829 1.495 . S
C3826 C3825 1.392 . S
C3826 C3827 1.385 . S
C3826 C3828 1.478 . S
C3827 H3821 0.930 . S
C3827 C3823 1.400 . S
C3827 C3826 1.385 . S
C3828 C3826 1.478 . S
C3828 C3830 1.381 . S
C3828 C3834 1.383 . S
C3829 C3825 1.495 . S
C3829 H3835 0.959 . S
C3829 H3836 0.961 . S
C3829 H3837 0.960 . S
C3830 C3828 1.381 . S
C3830 C3831 1.394 . S
C3830 H3838 0.930 . S
C3831 C3830 1.394 . S
C3831 C3832 1.383 . S
C3831 H3839 0.929 . S
C3832 C3831 1.383 . S
C3832 C3833 1.377 . S
C3833 H3817 0.930 . S
C3833 C3832 1.377 . S
C3833 C3834 1.379 . S
C3834 H3818 0.931 . S
C3834 C3828 1.383 . S
C3834 C3833 1.379 . S
H3835 C3829 0.959 . S
H3836 C3829 0.961 . S
H3837 C3829 0.960 . S
H3838 C3830 0.930 . S
H3839 C3831 0.929 . S
H3840 C3848 0.929 . S
H3841 C3850 0.930 . S
H3842 C3852 0.930 . S
H3843 C3855 0.929 . S
H3844 C3858 0.930 . S
H3845 C3860 0.960 . S
H3846 C3860 0.960 . S
H3847 C3860 0.960 . S
C3848 H3840 0.929 . S
C3848 C3849 1.377 . S
C3848 C3850 1.384 . S
C3849 C3848 1.377 . S
C3849 C3855 1.390 . S
C3850 H3841 0.930 . S
C3850 C3848 1.384 . S
C3850 C3851 1.372 . S
C3851 C3850 1.372 . S
C3851 C3852 1.400 . S
C3851 C3856 1.490 . S
C3852 H3842 0.930 . S
C3852 C3851 1.400 . S
C3852 C3855 1.386 . S
H3853 C3869 0.930 . S
H3854 C3870 0.931 . S
C3855 H3843 0.929 . S
C3855 C3849 1.390 . S
C3855 C3852 1.386 . S
C3856 C3851 1.490 . S
C3856 C3858 1.395 . S
C3856 C3859 1.403 . S
H3857 C3863 0.930 . S
C3858 H3844 0.930 . S
C3858 C3856 1.395 . S
C3858 C3861 1.403 . S
C3859 C3856 1.403 . S
C3859 C3860 1.524 . S
C3859 C3863 1.400 . S
C3860 H3845 0.960 . S
C3860 H3846 0.960 . S
C3860 H3847 0.960 . S
C3860 C3859 1.524 . S
C3861 C3858 1.403 . S
C3861 C3862 1.392 . S
C3861 C3865 1.495 . S
C3862 C3861 1.392 . S
C3862 C3863 1.385 . S
C3862 C3864 1.478 . S
C3863 H3857 0.930 . S
C3863 C3859 1.400 . S
C3863 C3862 1.385 . S
C3864 C3862 1.478 . S
C3864 C3866 1.381 . S
C3864 C3870 1.383 . S
C3865 C3861 1.495 . S
C3865 H3871 0.959 . S
C3865 H3872 0.961 . S
C3865 H3873 0.960 . S
C3866 C3864 1.381 . S
C3866 C3867 1.394 . S
C3866 H3874 0.930 . S
C3867 C3866 1.394 . S
C3867 C3868 1.383 . S
C3867 H3875 0.929 . S
C3868 C3867 1.383 . S
C3868 C3869 1.377 . S
C3869 H3853 0.930 . S
C3869 C3868 1.377 . S
C3869 C3870 1.379 . S
C3870 H3854 0.931 . S
C3870 C3864 1.383 . S
C3870 C3869 1.379 . S
H3871 C3865 0.959 . S
H3872 C3865 0.961 . S
H3873 C3865 0.960 . S
H3874 C3866 0.930 . S
H3875 C3867 0.929 . S
H3876 C3884 0.929 . S
H3877 C3886 0.930 . S
H3878 C3888 0.930 . S
H3879 C3891 0.929 . S
H3880 C3894 0.930 . S
H3881 C3896 0.960 . S
H3882 C3896 0.960 . S
H3883 C3896 0.960 . S
C3884 H3876 0.929 . S
C3884 C3885 1.377 . S
C3884 C3886 1.384 . S
C3885 C3884 1.377 . S
C3885 C3891 1.390 . S
C3886 H3877 0.930 . S
C3886 C3884 1.384 . S
C3886 C3887 1.372 . S
C3887 C3886 1.372 . S
C3887 C3888 1.400 . S
C3887 C3892 1.490 . S
C3888 H3878 0.930 . S
C3888 C3887 1.400 . S
C3888 C3891 1.386 . S
H3889 C3905 0.930 . S
H3890 C3906 0.931 . S
C3891 H3879 0.929 . S
C3891 C3885 1.390 . S
C3891 C3888 1.386 . S
C3892 C3887 1.490 . S
C3892 C3894 1.395 . S
C3892 C3895 1.403 . S
H3893 C3899 0.930 . S
C3894 H3880 0.930 . S
C3894 C3892 1.395 . S
C3894 C3897 1.403 . S
C3895 C3892 1.403 . S
C3895 C3896 1.524 . S
C3895 C3899 1.400 . S
C3896 H3881 0.960 . S
C3896 H3882 0.960 . S
C3896 H3883 0.960 . S
C3896 C3895 1.524 . S
C3897 C3894 1.403 . S
C3897 C3898 1.392 . S
C3897 C3901 1.495 . S
C3898 C3897 1.392 . S
C3898 C3899 1.385 . S
C3898 C3900 1.478 . S
C3899 H3893 0.930 . S
C3899 C3895 1.400 . S
C3899 C3898 1.385 . S
C3900 C3898 1.478 . S
C3900 C3902 1.381 . S
C3900 C3906 1.383 . S
C3901 C3897 1.495 . S
C3901 H3907 0.959 . S
C3901 H3908 0.961 . S
C3901 H3909 0.960 . S
C3902 C3900 1.381 . S
C3902 C3903 1.394 . S
C3902 H3910 0.930 . S
C3903 C3902 1.394 . S
C3903 C3904 1.383 . S
C3903 H3911 0.929 . S
C3904 C3903 1.383 . S
C3904 C3905 1.377 . S
C3905 H3889 0.930 . S
C3905 C3904 1.377 . S
C3905 C3906 1.379 . S
C3906 H3890 0.931 . S
C3906 C3900 1.383 . S
C3906 C3905 1.379 . S
H3907 C3901 0.959 . S
H3908 C3901 0.961 . S
H3909 C3901 0.960 . S
H3910 C3902 0.930 . S
H3911 C3903 0.929 . S
H3912 C3920 0.929 . S
H3913 C3922 0.930 . S
H3914 C3924 0.930 . S
H3915 C3927 0.929 . S
H3916 C3930 0.930 . S
H3917 C3932 0.960 . S
H3918 C3932 0.960 . S
H3919 C3932 0.960 . S
C3920 H3912 0.929 . S
C3920 C3921 1.377 . S
C3920 C3922 1.384 . S
C3921 C3920 1.377 . S
C3921 C3927 1.390 . S
C3922 H3913 0.930 . S
C3922 C3920 1.384 . S
C3922 C3923 1.372 . S
C3923 C3922 1.372 . S
C3923 C3924 1.400 . S
C3923 C3928 1.490 . S
C3924 H3914 0.930 . S
C3924 C3923 1.400 . S
C3924 C3927 1.386 . S
H3925 C3941 0.930 . S
H3926 C3942 0.931 . S
C3927 H3915 0.929 . S
C3927 C3921 1.390 . S
C3927 C3924 1.386 . S
C3928 C3923 1.490 . S
C3928 C3930 1.395 . S
C3928 C3931 1.403 . S
H3929 C3935 0.930 . S
C3930 H3916 0.930 . S
C3930 C3928 1.395 . S
C3930 C3933 1.403 . S
C3931 C3928 1.403 . S
C3931 C3932 1.524 . S
C3931 C3935 1.400 . S
C3932 H3917 0.960 . S
C3932 H3918 0.960 . S
C3932 H3919 0.960 . S
C3932 C3931 1.524 . S
C3933 C3930 1.403 . S
C3933 C3934 1.392 . S
C3933 C3937 1.495 . S
C3934 C3933 1.392 . S
C3934 C3935 1.385 . S
C3934 C3936 1.478 . S
C3935 H3929 0.930 . S
C3935 C3931 1.400 . S
C3935 C3934 1.385 . S
C3936 C3934 1.478 . S
C3936 C3938 1.381 . S
C3936 C3942 1.383 . S
C3937 C3933 1.495 . S
C3937 H3943 0.959 . S
C3937 H3944 0.961 . S
C3937 H3945 0.960 . S
C3938 C3936 1.381 . S
C3938 C3939 1.394 . S
C3938 H3946 0.930 . S
C3939 C3938 1.394 . S
C3939 C3940 1.383 . S
C3939 H3947 0.929 . S
C3940 C3939 1.383 . S
C3940 C3941 1.377 . S
C3941 H3925 0.930 . S
C3941 C3940 1.377 . S
C3941 C3942 1.379 . S
C3942 H3926 0.931 . S
C3942 C3936 1.383 . S
C3942 C3941 1.379 . S
H3943 C3937 0.959 . S
H3944 C3937 0.961 . S
H3945 C3937 0.960 . S
H3946 C3938 0.930 . S
H3947 C3939 0.929 . S
H3948 C3956 0.929 . S
H3949 C3958 0.930 . S
H3950 C3960 0.930 . S
H3951 C3963 0.929 . S
H3952 C3966 0.930 . S
H3953 C3968 0.960 . S
H3954 C3968 0.960 . S
H3955 C3968 0.960 . S
C3956 H3948 0.929 . S
C3956 C3957 1.377 . S
C3956 C3958 1.384 . S
C3957 C3956 1.377 . S
C3957 C3963 1.390 . S
C3958 H3949 0.930 . S
C3958 C3956 1.384 . S
C3958 C3959 1.372 . S
C3959 C3958 1.372 . S
C3959 C3960 1.400 . S
C3959 C3964 1.490 . S
C3960 H3950 0.930 . S
C3960 C3959 1.400 . S
C3960 C3963 1.386 . S
H3961 C3977 0.930 . S
H3962 C3978 0.931 . S
C3963 H3951 0.929 . S
C3963 C3957 1.390 . S
C3963 C3960 1.386 . S
C3964 C3959 1.490 . S
C3964 C3966 1.395 . S
C3964 C3967 1.403 . S
H3965 C3971 0.930 . S
C3966 H3952 0.930 . S
C3966 C3964 1.395 . S
C3966 C3969 1.403 . S
C3967 C3964 1.403 . S
C3967 C3968 1.524 . S
C3967 C3971 1.400 . S
C3968 H3953 0.960 . S
C3968 H3954 0.960 . S
C3968 H3955 0.960 . S
C3968 C3967 1.524 . S
C3969 C3966 1.403 . S
C3969 C3970 1.392 . S
C3969 C3973 1.495 . S
C3970 C3969 1.392 . S
C3970 C3971 1.385 . S
C3970 C3972 1.478 . S
C3971 H3965 0.930 . S
C3971 C3967 1.400 . S
C3971 C3970 1.385 . S
C3972 C3970 1.478 . S
C3972 C3974 1.381 . S
C3972 C3978 1.383 . S
C3973 C3969 1.495 . S
C3973 H3979 0.959 . S
C3973 H3980 0.961 . S
C3973 H3981 0.960 . S
C3974 C3972 1.381 . S
C3974 C3975 1.394 . S
C3974 H3982 0.930 . S
C3975 C3974 1.394 . S
C3975 C3976 1.383 . S
C3975 H3983 0.929 . S
C3976 C3975 1.383 . S
C3976 C3977 1.377 . S
C3977 H3961 0.930 . S
C3977 C3976 1.377 . S
C3977 C3978 1.379 . S
C3978 H3962 0.931 . S
C3978 C3972 1.383 . S
C3978 C3977 1.379 . S
H3979 C3973 0.959 . S
H3980 C3973 0.961 . S
H3981 C3973 0.960 . S
H3982 C3974 0.930 . S
H3983 C3975 0.929 . S
H3984 C3992 0.929 . S
H3985 C3994 0.930 . S
H3986 C3996 0.930 . S
H3987 C3999 0.929 . S
H3988 C4002 0.930 . S
H3989 C4004 0.960 . S
H3990 C4004 0.960 . S
H3991 C4004 0.960 . S
C3992 H3984 0.929 . S
C3992 C3993 1.377 . S
C3992 C3994 1.384 . S
C3993 C3992 1.377 . S
C3993 C3999 1.390 . S
C3994 H3985 0.930 . S
C3994 C3992 1.384 . S
C3994 C3995 1.372 . S
C3995 C3994 1.372 . S
C3995 C3996 1.400 . S
C3995 C4000 1.490 . S
C3996 H3986 0.930 . S
C3996 C3995 1.400 . S
C3996 C3999 1.386 . S
H3997 C4013 0.930 . S
H3998 C4014 0.931 . S
C3999 H3987 0.929 . S
C3999 C3993 1.390 . S
C3999 C3996 1.386 . S
C4000 C3995 1.490 . S
C4000 C4002 1.395 . S
C4000 C4003 1.403 . S
H4001 C4007 0.930 . S
C4002 H3988 0.930 . S
C4002 C4000 1.395 . S
C4002 C4005 1.403 . S
C4003 C4000 1.403 . S
C4003 C4004 1.524 . S
C4003 C4007 1.400 . S
C4004 H3989 0.960 . S
C4004 H3990 0.960 . S
C4004 H3991 0.960 . S
C4004 C4003 1.524 . S
C4005 C4002 1.403 . S
C4005 C4006 1.392 . S
C4005 C4009 1.495 . S
C4006 C4005 1.392 . S
C4006 C4007 1.385 . S
C4006 C4008 1.478 . S
C4007 H4001 0.930 . S
C4007 C4003 1.400 . S
C4007 C4006 1.385 . S
C4008 C4006 1.478 . S
C4008 C4010 1.381 . S
C4008 C4014 1.383 . S
C4009 C4005 1.495 . S
C4009 H4015 0.959 . S
C4009 H4016 0.961 . S
C4009 H4017 0.960 . S
C4010 C4008 1.381 . S
C4010 C4011 1.394 . S
C4010 H4018 0.930 . S
C4011 C4010 1.394 . S
C4011 C4012 1.383 . S
C4011 H4019 0.929 . S
C4012 C4011 1.383 . S
C4012 C4013 1.377 . S
C4013 H3997 0.930 . S
C4013 C4012 1.377 . S
C4013 C4014 1.379 . S
C4014 H3998 0.931 . S
C4014 C4008 1.383 . S
C4014 C4013 1.379 . S
H4015 C4009 0.959 . S
H4016 C4009 0.961 . S
H4017 C4009 0.960 . S
H4018 C4010 0.930 . S
H4019 C4011 0.929 . S
H4020 C4028 0.929 . S
H4021 C4030 0.930 . S
H4022 C4032 0.930 . S
H4023 C4035 0.929 . S
H4024 C4038 0.930 . S
H4025 C4040 0.960 . S
H4026 C4040 0.960 . S
H4027 C4040 0.960 . S
C4028 H4020 0.929 . S
C4028 C4029 1.377 . S
C4028 C4030 1.384 . S
C4029 C4028 1.377 . S
C4029 C4035 1.390 . S
C4030 H4021 0.930 . S
C4030 C4028 1.384 . S
C4030 C4031 1.372 . S
C4031 C4030 1.372 . S
C4031 C4032 1.400 . S
C4031 C4036 1.490 . S
C4032 H4022 0.930 . S
C4032 C4031 1.400 . S
C4032 C4035 1.386 . S
H4033 C4049 0.930 . S
H4034 C4050 0.931 . S
C4035 H4023 0.929 . S
C4035 C4029 1.390 . S
C4035 C4032 1.386 . S
C4036 C4031 1.490 . S
C4036 C4038 1.395 . S
C4036 C4039 1.403 . S
H4037 C4043 0.930 . S
C4038 H4024 0.930 . S
C4038 C4036 1.395 . S
C4038 C4041 1.403 . S
C4039 C4036 1.403 . S
C4039 C4040 1.524 . S
C4039 C4043 1.400 . S
C4040 H4025 0.960 . S
C4040 H4026 0.960 . S
C4040 H4027 0.960 . S
C4040 C4039 1.524 . S
C4041 C4038 1.403 . S
C4041 C4042 1.392 . S
C4041 C4045 1.495 . S
C4042 C4041 1.392 . S
C4042 C4043 1.385 . S
C4042 C4044 1.478 . S
C4043 H4037 0.930 . S
C4043 C4039 1.400 . S
C4043 C4042 1.385 . S
C4044 C4042 1.478 . S
C4044 C4046 1.381 . S
C4044 C4050 1.383 . S
C4045 C4041 1.495 . S
C4045 H4051 0.959 . S
C4045 H4052 0.961 . S
C4045 H4053 0.960 . S
C4046 C4044 1.381 . S
C4046 C4047 1.394 . S
C4046 H4054 0.930 . S
C4047 C4046 1.394 . S
C4047 C4048 1.383 . S
C4047 H4055 0.929 . S
C4048 C4047 1.383 . S
C4048 C4049 1.377 . S
C4049 H4033 0.930 . S
C4049 C4048 1.377 . S
C4049 C4050 1.379 . S
C4050 H4034 0.931 . S
C4050 C4044 1.383 . S
C4050 C4049 1.379 . S
H4051 C4045 0.959 . S
H4052 C4045 0.961 . S
H4053 C4045 0.960 . S
H4054 C4046 0.930 . S
H4055 C4047 0.929 . S
H4056 C4064 0.929 . S
H4057 C4066 0.930 . S
H4058 C4068 0.930 . S
H4059 C4071 0.929 . S
H4060 C4074 0.930 . S
H4061 C4076 0.960 . S
H4062 C4076 0.960 . S
H4063 C4076 0.960 . S
C4064 H4056 0.929 . S
C4064 C4065 1.377 . S
C4064 C4066 1.384 . S
C4065 C4064 1.377 . S
C4065 C4071 1.390 . S
C4066 H4057 0.930 . S
C4066 C4064 1.384 . S
C4066 C4067 1.372 . S
C4067 C4066 1.372 . S
C4067 C4068 1.400 . S
C4067 C4072 1.490 . S
C4068 H4058 0.930 . S
C4068 C4067 1.400 . S
C4068 C4071 1.386 . S
H4069 C4085 0.930 . S
H4070 C4086 0.931 . S
C4071 H4059 0.929 . S
C4071 C4065 1.390 . S
C4071 C4068 1.386 . S
C4072 C4067 1.490 . S
C4072 C4074 1.395 . S
C4072 C4075 1.403 . S
H4073 C4079 0.930 . S
C4074 H4060 0.930 . S
C4074 C4072 1.395 . S
C4074 C4077 1.403 . S
C4075 C4072 1.403 . S
C4075 C4076 1.524 . S
C4075 C4079 1.400 . S
C4076 H4061 0.960 . S
C4076 H4062 0.960 . S
C4076 H4063 0.960 . S
C4076 C4075 1.524 . S
C4077 C4074 1.403 . S
C4077 C4078 1.392 . S
C4077 C4081 1.495 . S
C4078 C4077 1.392 . S
C4078 C4079 1.385 . S
C4078 C4080 1.478 . S
C4079 H4073 0.930 . S
C4079 C4075 1.400 . S
C4079 C4078 1.385 . S
C4080 C4078 1.478 . S
C4080 C4082 1.381 . S
C4080 C4086 1.383 . S
C4081 C4077 1.495 . S
C4081 H4087 0.959 . S
C4081 H4088 0.961 . S
C4081 H4089 0.960 . S
C4082 C4080 1.381 . S
C4082 C4083 1.394 . S
C4082 H4090 0.930 . S
C4083 C4082 1.394 . S
C4083 C4084 1.383 . S
C4083 H4091 0.929 . S
C4084 C4083 1.383 . S
C4084 C4085 1.377 . S
C4085 H4069 0.930 . S
C4085 C4084 1.377 . S
C4085 C4086 1.379 . S
C4086 H4070 0.931 . S
C4086 C4080 1.383 . S
C4086 C4085 1.379 . S
H4087 C4081 0.959 . S
H4088 C4081 0.961 . S
H4089 C4081 0.960 . S
H4090 C4082 0.930 . S
H4091 C4083 0.929 . S
H4092 C4100 0.929 . S
H4093 C4102 0.930 . S
H4094 C4104 0.930 . S
H4095 C4107 0.929 . S
H4096 C4110 0.930 . S
H4097 C4112 0.960 . S
H4098 C4112 0.960 . S
H4099 C4112 0.960 . S
C4100 H4092 0.929 . S
C4100 C4101 1.377 . S
C4100 C4102 1.384 . S
C4101 C4100 1.377 . S
C4101 C4107 1.390 . S
C4102 H4093 0.930 . S
C4102 C4100 1.384 . S
C4102 C4103 1.372 . S
C4103 C4102 1.372 . S
C4103 C4104 1.400 . S
C4103 C4108 1.490 . S
C4104 H4094 0.930 . S
C4104 C4103 1.400 . S
C4104 C4107 1.386 . S
H4105 C4121 0.930 . S
H4106 C4122 0.931 . S
C4107 H4095 0.929 . S
C4107 C4101 1.390 . S
C4107 C4104 1.386 . S
C4108 C4103 1.490 . S
C4108 C4110 1.395 . S
C4108 C4111 1.403 . S
H4109 C4115 0.930 . S
C4110 H4096 0.930 . S
C4110 C4108 1.395 . S
C4110 C4113 1.403 . S
C4111 C4108 1.403 . S
C4111 C4112 1.524 . S
C4111 C4115 1.400 . S
C4112 H4097 0.960 . S
C4112 H4098 0.960 . S
C4112 H4099 0.960 . S
C4112 C4111 1.524 . S
C4113 C4110 1.403 . S
C4113 C4114 1.392 . S
C4113 C4117 1.495 . S
C4114 C4113 1.392 . S
C4114 C4115 1.385 . S
C4114 C4116 1.478 . S
C4115 H4109 0.930 . S
C4115 C4111 1.400 . S
C4115 C4114 1.385 . S
C4116 C4114 1.478 . S
C4116 C4118 1.381 . S
C4116 C4122 1.383 . S
C4117 C4113 1.495 . S
C4117 H4123 0.959 . S
C4117 H4124 0.961 . S
C4117 H4125 0.960 . S
C4118 C4116 1.381 . S
C4118 C4119 1.394 . S
C4118 H4126 0.930 . S
C4119 C4118 1.394 . S
C4119 C4120 1.383 . S
C4119 H4127 0.929 . S
C4120 C4119 1.383 . S
C4120 C4121 1.377 . S
C4121 H4105 0.930 . S
C4121 C4120 1.377 . S
C4121 C4122 1.379 . S
C4122 H4106 0.931 . S
C4122 C4116 1.383 . S
C4122 C4121 1.379 . S
H4123 C4117 0.959 . S
H4124 C4117 0.961 . S
H4125 C4117 0.960 . S
H4126 C4118 0.930 . S
H4127 C4119 0.929 . S
C681 C400 0.905 . S
C700 C8 0.883 . S
C717 C22 0.899 . S
C736 C414 0.905 . S
C753 C428 0.899 . S
C772 C36 0.913 . S
C789 C50 0.899 . S
C808 C442 0.910 . S
C825 C344 0.899 . S
C844 C64 0.901 . S
C861 C78 0.906 . S
C880 C358 0.902 . S
C897 C372 0.906 . S
C916 C92 0.884 . S
C933 C106 0.905 . S
C952 C386 0.908 . S
C969 C540 0.903 . S
C988 C120 0.885 . S
C1005 C554 0.904 . S
C1024 C134 0.912 . S
C1041 C512 0.899 . S
C1060 C148 0.911 . S
C1077 C162 0.907 . S
C1096 C526 0.895 . S
C1113 C484 0.899 . S
C1132 C176 0.910 . S
C1149 C498 0.902 . S
C1168 C190 0.887 . S
C1185 C204 0.901 . S
C1204 C456 0.920 . S
C1221 C470 0.901 . S
C1240 C218 0.890 . S
C1257 C232 0.907 . S
C1276 C638 0.895 . S
C1293 C610 0.899 . S
C1312 C246 0.904 . S
C1329 C624 0.905 . S
C1348 C260 0.883 . S
C1365 C582 0.902 . S
C1384 C274 0.920 . S
C1401 C596 0.899 . S
C1420 C288 0.918 . S
C1437 C302 0.899 . S
C1456 C568 0.911 . S
C1473 C316 0.900 . S
C1492 C666 0.899 . S
C1509 C652 0.903 . S
C1528 C330 0.917 . S
C1545 C105 1.212 . S
C1564 C7 1.179 . S
C1581 C63 1.221 . S
C1600 C21 1.262 . S
C1617 C77 1.220 . S
C1636 C35 1.170 . S
C1653 C91 1.228 . S
C1672 C49 1.219 . S
C1689 C287 1.218 . S
C1708 C119 1.169 . S
C1725 C245 1.209 . S
C1744 C133 1.218 . S
C1761 C259 1.211 . S
C1780 C147 1.187 . S
C1797 C273 1.209 . S
C1816 C161 1.198 . S
C1833 C329 1.211 . S
C1852 C175 1.241 . S
C1869 C301 1.223 . S
C1888 C189 1.259 . S
C1905 C203 1.213 . S
C1924 C315 1.178 . S
C1941 C231 1.213 . S
C1960 C217 1.252 . S
C1977 C441 1.214 . S
C1996 C343 1.214 . S
C2013 C399 1.224 . S
C2032 C357 1.174 . S
C2049 C371 1.228 . S
C2068 C413 1.184 . S
C2085 C385 1.228 . S
C2104 C427 1.171 . S
C2121 C455 1.222 . S
C2140 C623 1.181 . S
C2157 C469 1.228 . S
C2176 C581 1.170 . S
C2193 C595 1.219 . S
C2212 C483 1.238 . S
C2229 C609 1.221 . S
C2248 C497 1.231 . S
C2265 C665 1.226 . S
C2284 C511 1.205 . S
C2301 C637 1.227 . S
C2320 C525 1.193 . S
C2337 C651 1.212 . S
C2356 C539 1.225 . S
C2373 C553 1.227 . S
C2392 C567 1.169 . S
C2409 C3 0.978 . S
C2428 C121 0.900 . S
C2445 C135 0.926 . S
C2464 C17 0.994 . S
C2481 C149 0.935 . S
C2500 C31 0.963 . S
C2517 C163 0.925 . S
C2536 C45 0.989 . S
C2553 C59 0.975 . S
C2572 C177 0.952 . S
C2589 C191 0.926 . S
C2608 C73 0.994 . S
C2625 C87 0.978 . S
C2644 C205 0.881 . S
C2661 C219 0.927 . S
C2680 C101 0.995 . S
C2697 C233 0.932 . S
C2716 C115 0.990 . S
C2733 C331 0.926 . S
C2752 C129 0.994 . S
C2769 C143 0.969 . S
C2788 C303 0.979 . S
C2805 C157 0.974 . S
C2824 C317 0.911 . S
C2841 C171 0.972 . S
C2860 C247 0.929 . S
C2877 C185 0.979 . S
C2896 C261 0.889 . S
C2913 C199 0.971 . S
C2932 C275 0.984 . S
C2949 C213 0.978 . S
C2968 C289 0.882 . S
C2985 C227 0.976 . S
C3004 C9 0.891 . S
C3021 C241 0.970 . S
C3040 C65 0.955 . S
C3057 C255 0.974 . S
C3076 C79 0.960 . S
C3093 C269 0.971 . S
C3112 C93 0.948 . S
C3129 C283 0.969 . S
C3148 C107 0.976 . S
C3165 C297 0.973 . S
C3184 C37 0.970 . S
C3201 C51 0.933 . S
C3220 C311 0.967 . S
C3237 C23 0.930 . S
C3256 C325 0.993 . S
C3273 C457 0.932 . S
C3292 C339 0.952 . S
C3309 C471 0.938 . S
C3328 C353 0.951 . S
C3345 C485 0.941 . S
C3364 C367 0.992 . S
C3381 C499 0.947 . S
C3400 C381 0.969 . S
C3417 C513 0.947 . S
C3436 C395 0.978 . S
C3453 C409 0.970 . S
C3472 C527 0.924 . S
C3489 C541 0.940 . S
C3508 C423 0.952 . S
C3525 C437 0.977 . S
C3544 C555 0.898 . S
C3561 C569 0.942 . S
C3580 C451 0.991 . S
C3597 C465 0.970 . S
C3616 C667 0.948 . S
C3633 C479 0.977 . S
C3652 C639 0.898 . S
C3669 C653 0.943 . S
C3688 C493 0.956 . S
C3705 C583 0.943 . S
C3724 C507 0.956 . S
C3741 C521 0.973 . S
C3760 C597 0.884 . S
C3777 C535 0.977 . S
C3796 C611 0.973 . S
C3813 C625 0.939 . S
C3832 C549 0.951 . S
C3849 C345 0.938 . S
C3868 C563 0.951 . S
C3885 C401 0.926 . S
C3904 C577 0.965 . S
C3921 C415 0.927 . S
C3940 C591 0.985 . S
C3957 C605 0.977 . S
C3976 C429 0.890 . S
C3993 C443 0.928 . S
C4012 C619 0.988 . S
C4029 C373 0.936 . S
C4048 C633 0.995 . S
C4065 C647 0.973 . S
C4084 C387 0.985 . S
C4101 C359 0.928 . S
C4120 C661 0.957 . S
