# Generated by pormake.
# Topology nfb, (4)-cn, num edge types: 1
# Building blocks:
#     Node 0, Type 0, BuildingBlock: QUQFOY_clean_sbu_1, # of connection points: 4
#     Node 1, Type 0, BuildingBlock: QUQFOY_clean_sbu_1, # of connection points: 4
#     Node 2, Type 0, BuildingBlock: QUQFOY_clean_sbu_1, # of connection points: 4
#     Node 3, Type 0, BuildingBlock: QUQFOY_clean_sbu_1, # of connection points: 4
#     Node 4, Type 0, BuildingBlock: QUQFOY_clean_sbu_1, # of connection points: 4
#     Node 5, Type 0, BuildingBlock: QUQFOY_clean_sbu_1, # of connection points: 4
#     Node 6, Type 0, BuildingBlock: QUQFOY_clean_sbu_1, # of connection points: 4
#     Node 7, Type 0, BuildingBlock: QUQFOY_clean_sbu_1, # of connection points: 4
#     Node 8, Type 0, BuildingBlock: QUQFOY_clean_sbu_1, # of connection points: 4
#     Node 9, Type 0, BuildingBlock: QUQFOY_clean_sbu_1, # of connection points: 4
#     Node 10, Type 0, BuildingBlock: QUQFOY_clean_sbu_1, # of connection points: 4
#     Node 11, Type 0, BuildingBlock: QUQFOY_clean_sbu_1, # of connection points: 4
#     Node 12, Type 0, BuildingBlock: QUQFOY_clean_sbu_1, # of connection points: 4
#     Node 13, Type 0, BuildingBlock: QUQFOY_clean_sbu_1, # of connection points: 4
#     Node 14, Type 0, BuildingBlock: QUQFOY_clean_sbu_1, # of connection points: 4
#     Node 15, Type 0, BuildingBlock: QUQFOY_clean_sbu_1, # of connection points: 4
#     Node 16, Type 0, BuildingBlock: QUQFOY_clean_sbu_1, # of connection points: 4
#     Node 17, Type 0, BuildingBlock: QUQFOY_clean_sbu_1, # of connection points: 4
#     Node 18, Type 0, BuildingBlock: QUQFOY_clean_sbu_1, # of connection points: 4
#     Node 19, Type 0, BuildingBlock: QUQFOY_clean_sbu_1, # of connection points: 4
#     Node 20, Type 0, BuildingBlock: QUQFOY_clean_sbu_1, # of connection points: 4
#     Node 21, Type 0, BuildingBlock: QUQFOY_clean_sbu_1, # of connection points: 4
#     Node 22, Type 0, BuildingBlock: QUQFOY_clean_sbu_1, # of connection points: 4
#     Node 23, Type 0, BuildingBlock: QUQFOY_clean_sbu_1, # of connection points: 4
#     Node 24, Type 0, BuildingBlock: QUQFOY_clean_sbu_1, # of connection points: 4
#     Node 25, Type 0, BuildingBlock: QUQFOY_clean_sbu_1, # of connection points: 4
#     Node 26, Type 0, BuildingBlock: QUQFOY_clean_sbu_1, # of connection points: 4
#     Node 27, Type 0, BuildingBlock: QUQFOY_clean_sbu_1, # of connection points: 4
#     Node 28, Type 0, BuildingBlock: QUQFOY_clean_sbu_1, # of connection points: 4
#     Node 29, Type 0, BuildingBlock: QUQFOY_clean_sbu_1, # of connection points: 4
#     Node 30, Type 0, BuildingBlock: QUQFOY_clean_sbu_1, # of connection points: 4
#     Node 31, Type 0, BuildingBlock: QUQFOY_clean_sbu_1, # of connection points: 4
#     Node 32, Type 0, BuildingBlock: QUQFOY_clean_sbu_1, # of connection points: 4
#     Node 33, Type 0, BuildingBlock: QUQFOY_clean_sbu_1, # of connection points: 4
#     Node 34, Type 0, BuildingBlock: QUQFOY_clean_sbu_1, # of connection points: 4
#     Node 35, Type 0, BuildingBlock: QUQFOY_clean_sbu_1, # of connection points: 4
#     Node 36, Type 0, BuildingBlock: QUQFOY_clean_sbu_1, # of connection points: 4
#     Node 37, Type 0, BuildingBlock: QUQFOY_clean_sbu_1, # of connection points: 4
#     Node 38, Type 0, BuildingBlock: QUQFOY_clean_sbu_1, # of connection points: 4
#     Node 39, Type 0, BuildingBlock: QUQFOY_clean_sbu_1, # of connection points: 4
#     Node 40, Type 0, BuildingBlock: QUQFOY_clean_sbu_1, # of connection points: 4
#     Node 41, Type 0, BuildingBlock: QUQFOY_clean_sbu_1, # of connection points: 4
#     Node 42, Type 0, BuildingBlock: QUQFOY_clean_sbu_1, # of connection points: 4
#     Node 43, Type 0, BuildingBlock: QUQFOY_clean_sbu_1, # of connection points: 4
#     Node 44, Type 0, BuildingBlock: QUQFOY_clean_sbu_1, # of connection points: 4
#     Node 45, Type 0, BuildingBlock: QUQFOY_clean_sbu_1, # of connection points: 4
#     Node 46, Type 0, BuildingBlock: QUQFOY_clean_sbu_1, # of connection points: 4
#     Node 47, Type 0, BuildingBlock: QUQFOY_clean_sbu_1, # of connection points: 4
#     Edge 48, Type (0, 0), BuildingBlock: MIFKUJ_clean_linker_0, # of connection points: 2
#     Edge 49, Type (0, 0), BuildingBlock: MIFKUJ_clean_linker_0, # of connection points: 2
#     Edge 50, Type (0, 0), BuildingBlock: MIFKUJ_clean_linker_0, # of connection points: 2
#     Edge 51, Type (0, 0), BuildingBlock: MIFKUJ_clean_linker_0, # of connection points: 2
#     Edge 52, Type (0, 0), BuildingBlock: MIFKUJ_clean_linker_0, # of connection points: 2
#     Edge 53, Type (0, 0), BuildingBlock: MIFKUJ_clean_linker_0, # of connection points: 2
#     Edge 54, Type (0, 0), BuildingBlock: MIFKUJ_clean_linker_0, # of connection points: 2
#     Edge 55, Type (0, 0), BuildingBlock: MIFKUJ_clean_linker_0, # of connection points: 2
#     Edge 56, Type (0, 0), BuildingBlock: MIFKUJ_clean_linker_0, # of connection points: 2
#     Edge 57, Type (0, 0), BuildingBlock: MIFKUJ_clean_linker_0, # of connection points: 2
#     Edge 58, Type (0, 0), BuildingBlock: MIFKUJ_clean_linker_0, # of connection points: 2
#     Edge 59, Type (0, 0), BuildingBlock: MIFKUJ_clean_linker_0, # of connection points: 2
#     Edge 60, Type (0, 0), BuildingBlock: MIFKUJ_clean_linker_0, # of connection points: 2
#     Edge 61, Type (0, 0), BuildingBlock: MIFKUJ_clean_linker_0, # of connection points: 2
#     Edge 62, Type (0, 0), BuildingBlock: MIFKUJ_clean_linker_0, # of connection points: 2
#     Edge 63, Type (0, 0), BuildingBlock: MIFKUJ_clean_linker_0, # of connection points: 2
#     Edge 64, Type (0, 0), BuildingBlock: MIFKUJ_clean_linker_0, # of connection points: 2
#     Edge 65, Type (0, 0), BuildingBlock: MIFKUJ_clean_linker_0, # of connection points: 2
#     Edge 66, Type (0, 0), BuildingBlock: MIFKUJ_clean_linker_0, # of connection points: 2
#     Edge 67, Type (0, 0), BuildingBlock: MIFKUJ_clean_linker_0, # of connection points: 2
#     Edge 68, Type (0, 0), BuildingBlock: MIFKUJ_clean_linker_0, # of connection points: 2
#     Edge 69, Type (0, 0), BuildingBlock: MIFKUJ_clean_linker_0, # of connection points: 2
#     Edge 70, Type (0, 0), BuildingBlock: MIFKUJ_clean_linker_0, # of connection points: 2
#     Edge 71, Type (0, 0), BuildingBlock: MIFKUJ_clean_linker_0, # of connection points: 2
#     Edge 72, Type (0, 0), BuildingBlock: MIFKUJ_clean_linker_0, # of connection points: 2
#     Edge 73, Type (0, 0), BuildingBlock: MIFKUJ_clean_linker_0, # of connection points: 2
#     Edge 74, Type (0, 0), BuildingBlock: MIFKUJ_clean_linker_0, # of connection points: 2
#     Edge 75, Type (0, 0), BuildingBlock: MIFKUJ_clean_linker_0, # of connection points: 2
#     Edge 76, Type (0, 0), BuildingBlock: MIFKUJ_clean_linker_0, # of connection points: 2
#     Edge 77, Type (0, 0), BuildingBlock: MIFKUJ_clean_linker_0, # of connection points: 2
#     Edge 78, Type (0, 0), BuildingBlock: MIFKUJ_clean_linker_0, # of connection points: 2
#     Edge 79, Type (0, 0), BuildingBlock: MIFKUJ_clean_linker_0, # of connection points: 2
#     Edge 80, Type (0, 0), BuildingBlock: MIFKUJ_clean_linker_0, # of connection points: 2
#     Edge 81, Type (0, 0), BuildingBlock: MIFKUJ_clean_linker_0, # of connection points: 2
#     Edge 82, Type (0, 0), BuildingBlock: MIFKUJ_clean_linker_0, # of connection points: 2
#     Edge 83, Type (0, 0), BuildingBlock: MIFKUJ_clean_linker_0, # of connection points: 2
#     Edge 84, Type (0, 0), BuildingBlock: MIFKUJ_clean_linker_0, # of connection points: 2
#     Edge 85, Type (0, 0), BuildingBlock: MIFKUJ_clean_linker_0, # of connection points: 2
#     Edge 86, Type (0, 0), BuildingBlock: MIFKUJ_clean_linker_0, # of connection points: 2
#     Edge 87, Type (0, 0), BuildingBlock: MIFKUJ_clean_linker_0, # of connection points: 2
#     Edge 88, Type (0, 0), BuildingBlock: MIFKUJ_clean_linker_0, # of connection points: 2
#     Edge 89, Type (0, 0), BuildingBlock: MIFKUJ_clean_linker_0, # of connection points: 2
#     Edge 90, Type (0, 0), BuildingBlock: MIFKUJ_clean_linker_0, # of connection points: 2
#     Edge 91, Type (0, 0), BuildingBlock: MIFKUJ_clean_linker_0, # of connection points: 2
#     Edge 92, Type (0, 0), BuildingBlock: MIFKUJ_clean_linker_0, # of connection points: 2
#     Edge 93, Type (0, 0), BuildingBlock: MIFKUJ_clean_linker_0, # of connection points: 2
#     Edge 94, Type (0, 0), BuildingBlock: MIFKUJ_clean_linker_0, # of connection points: 2
#     Edge 95, Type (0, 0), BuildingBlock: MIFKUJ_clean_linker_0, # of connection points: 2
#     Edge 96, Type (0, 0), BuildingBlock: MIFKUJ_clean_linker_0, # of connection points: 2
#     Edge 97, Type (0, 0), BuildingBlock: MIFKUJ_clean_linker_0, # of connection points: 2
#     Edge 98, Type (0, 0), BuildingBlock: MIFKUJ_clean_linker_0, # of connection points: 2
#     Edge 99, Type (0, 0), BuildingBlock: MIFKUJ_clean_linker_0, # of connection points: 2
#     Edge 100, Type (0, 0), BuildingBlock: MIFKUJ_clean_linker_0, # of connection points: 2
#     Edge 101, Type (0, 0), BuildingBlock: MIFKUJ_clean_linker_0, # of connection points: 2
#     Edge 102, Type (0, 0), BuildingBlock: MIFKUJ_clean_linker_0, # of connection points: 2
#     Edge 103, Type (0, 0), BuildingBlock: MIFKUJ_clean_linker_0, # of connection points: 2
#     Edge 104, Type (0, 0), BuildingBlock: MIFKUJ_clean_linker_0, # of connection points: 2
#     Edge 105, Type (0, 0), BuildingBlock: MIFKUJ_clean_linker_0, # of connection points: 2
#     Edge 106, Type (0, 0), BuildingBlock: MIFKUJ_clean_linker_0, # of connection points: 2
#     Edge 107, Type (0, 0), BuildingBlock: MIFKUJ_clean_linker_0, # of connection points: 2
#     Edge 108, Type (0, 0), BuildingBlock: MIFKUJ_clean_linker_0, # of connection points: 2
#     Edge 109, Type (0, 0), BuildingBlock: MIFKUJ_clean_linker_0, # of connection points: 2
#     Edge 110, Type (0, 0), BuildingBlock: MIFKUJ_clean_linker_0, # of connection points: 2
#     Edge 111, Type (0, 0), BuildingBlock: MIFKUJ_clean_linker_0, # of connection points: 2
#     Edge 112, Type (0, 0), BuildingBlock: MIFKUJ_clean_linker_0, # of connection points: 2
#     Edge 113, Type (0, 0), BuildingBlock: MIFKUJ_clean_linker_0, # of connection points: 2
#     Edge 114, Type (0, 0), BuildingBlock: MIFKUJ_clean_linker_0, # of connection points: 2
#     Edge 115, Type (0, 0), BuildingBlock: MIFKUJ_clean_linker_0, # of connection points: 2
#     Edge 116, Type (0, 0), BuildingBlock: MIFKUJ_clean_linker_0, # of connection points: 2
#     Edge 117, Type (0, 0), BuildingBlock: MIFKUJ_clean_linker_0, # of connection points: 2
#     Edge 118, Type (0, 0), BuildingBlock: MIFKUJ_clean_linker_0, # of connection points: 2
#     Edge 119, Type (0, 0), BuildingBlock: MIFKUJ_clean_linker_0, # of connection points: 2
#     Edge 120, Type (0, 0), BuildingBlock: MIFKUJ_clean_linker_0, # of connection points: 2
#     Edge 121, Type (0, 0), BuildingBlock: MIFKUJ_clean_linker_0, # of connection points: 2
#     Edge 122, Type (0, 0), BuildingBlock: MIFKUJ_clean_linker_0, # of connection points: 2
#     Edge 123, Type (0, 0), BuildingBlock: MIFKUJ_clean_linker_0, # of connection points: 2
#     Edge 124, Type (0, 0), BuildingBlock: MIFKUJ_clean_linker_0, # of connection points: 2
#     Edge 125, Type (0, 0), BuildingBlock: MIFKUJ_clean_linker_0, # of connection points: 2
#     Edge 126, Type (0, 0), BuildingBlock: MIFKUJ_clean_linker_0, # of connection points: 2
#     Edge 127, Type (0, 0), BuildingBlock: MIFKUJ_clean_linker_0, # of connection points: 2
#     Edge 128, Type (0, 0), BuildingBlock: MIFKUJ_clean_linker_0, # of connection points: 2
#     Edge 129, Type (0, 0), BuildingBlock: MIFKUJ_clean_linker_0, # of connection points: 2
#     Edge 130, Type (0, 0), BuildingBlock: MIFKUJ_clean_linker_0, # of connection points: 2
#     Edge 131, Type (0, 0), BuildingBlock: MIFKUJ_clean_linker_0, # of connection points: 2
#     Edge 132, Type (0, 0), BuildingBlock: MIFKUJ_clean_linker_0, # of connection points: 2
#     Edge 133, Type (0, 0), BuildingBlock: MIFKUJ_clean_linker_0, # of connection points: 2
#     Edge 134, Type (0, 0), BuildingBlock: MIFKUJ_clean_linker_0, # of connection points: 2
#     Edge 135, Type (0, 0), BuildingBlock: MIFKUJ_clean_linker_0, # of connection points: 2
#     Edge 136, Type (0, 0), BuildingBlock: MIFKUJ_clean_linker_0, # of connection points: 2
#     Edge 137, Type (0, 0), BuildingBlock: MIFKUJ_clean_linker_0, # of connection points: 2
#     Edge 138, Type (0, 0), BuildingBlock: MIFKUJ_clean_linker_0, # of connection points: 2
#     Edge 139, Type (0, 0), BuildingBlock: MIFKUJ_clean_linker_0, # of connection points: 2
#     Edge 140, Type (0, 0), BuildingBlock: MIFKUJ_clean_linker_0, # of connection points: 2
#     Edge 141, Type (0, 0), BuildingBlock: MIFKUJ_clean_linker_0, # of connection points: 2
#     Edge 142, Type (0, 0), BuildingBlock: MIFKUJ_clean_linker_0, # of connection points: 2
#     Edge 143, Type (0, 0), BuildingBlock: MIFKUJ_clean_linker_0, # of connection points: 2
# Relax obj value: 0.335
# Max RMSD: 0.152
# Mean RMSD: 0.118
data_MOF--net-nfb--node1-QUQFOY_clean_sbu_1--edge1-MIFKUJ_clean_linker_0
_symmetry_space_group_name_H-M    P1
_symmetry_Int_Tables_number       1
_symmetry_cell_setting            triclinic
loop_
_symmetry_equiv_pos_as_xyz
'x, y, z'
_cell_length_a     77.937171
_cell_length_b     78.236876
_cell_length_c     78.162898
_cell_angle_alpha  91.213936
_cell_angle_beta   91.378241
_cell_angle_gamma 95.191216
loop_
_atom_site_label
_atom_site_type_symbol
_atom_site_fract_x
_atom_site_fract_y
_atom_site_fract_z
_atom_type_partial_charge
O0 O 0.1009 0.13918 0.3947 0.0
Cd1 Cd 0.12522 0.14662 0.40448 0.0
Cd2 Cd 0.13301 0.12197 0.38297 0.0
O3 O 0.108 0.12457 0.37194 0.0
O4 O 0.12144 0.16764 0.41824 0.0
O5 O 0.13723 0.16812 0.39513 0.0
C6 C 0.13039 0.17639 0.40726 0.0
C7 C 0.16194 0.13124 0.37639 0.0
C8 C 0.09651 0.13127 0.3807 0.0
C9 C 0.1366 0.11441 0.41893 0.0
O10 O 0.1326 0.10727 0.40448 0.0
O11 O 0.13666 0.13057 0.42107 0.0
O12 O 0.15423 0.11741 0.36931 0.0
O13 O 0.15263 0.14063 0.38546 0.0
O14 O 0.38713 0.67709 0.89563 0.0
Cd15 Cd 0.38461 0.65197 0.90299 0.0
Cd16 Cd 0.38843 0.6466 0.86983 0.0
O17 O 0.39666 0.67358 0.86961 0.0
O18 O 0.38622 0.65403 0.92844 0.0
O19 O 0.40499 0.64117 0.9132 0.0
C20 C 0.39998 0.6461 0.92795 0.0
C21 C 0.40106 0.6202 0.86709 0.0
C22 C 0.39274 0.68358 0.88186 0.0
C23 C 0.35361 0.63752 0.88302 0.0
O24 O 0.3621 0.64172 0.86984 0.0
O25 O 0.36085 0.63886 0.89779 0.0
O26 O 0.39719 0.62867 0.85369 0.0
O27 O 0.39976 0.62776 0.88181 0.0
O28 O 0.92066 0.89168 0.38185 0.0
Cd29 Cd 0.89812 0.88275 0.39333 0.0
Cd30 Cd 0.889 0.91354 0.38341 0.0
O31 O 0.91298 0.91561 0.37071 0.0
O32 O 0.90553 0.86088 0.40191 0.0
O33 O 0.8835 0.86179 0.38381 0.0
C34 C 0.8933 0.85283 0.39284 0.0
C35 C 0.85954 0.90797 0.37517 0.0
C36 C 0.92433 0.905 0.37319 0.0
C37 C 0.89057 0.90951 0.42019 0.0
O38 O 0.89126 0.92083 0.40879 0.0
O39 O 0.89165 0.89385 0.41613 0.0
O40 O 0.86749 0.92317 0.37408 0.0
O41 O 0.86881 0.89559 0.37894 0.0
O42 O 0.63981 0.3457 0.89776 0.0
Cd43 Cd 0.64289 0.37127 0.90502 0.0
Cd44 Cd 0.64064 0.37444 0.87176 0.0
O45 O 0.63105 0.34793 0.871 0.0
O46 O 0.64244 0.36962 0.93032 0.0
O47 O 0.62317 0.38265 0.9156 0.0
C48 C 0.62883 0.37777 0.93017 0.0
C49 C 0.62914 0.40139 0.86881 0.0
C50 C 0.63431 0.33853 0.8837 0.0
C51 C 0.67506 0.38262 0.88758 0.0
O52 O 0.6671 0.37729 0.87384 0.0
O53 O 0.66696 0.38365 0.90142 0.0
O54 O 0.63275 0.39239 0.85548 0.0
O55 O 0.63027 0.39424 0.88351 0.0
O56 O 0.18868 0.88831 0.62185 0.0
Cd57 Cd 0.16309 0.88864 0.61463 0.0
Cd58 Cd 0.16032 0.88927 0.64826 0.0
O59 O 0.18747 0.89639 0.64893 0.0
O60 O 0.16432 0.89216 0.58949 0.0
O61 O 0.15309 0.91031 0.60714 0.0
C62 C 0.15702 0.90612 0.59179 0.0
C63 C 0.13494 0.90308 0.65277 0.0
C64 C 0.19636 0.89258 0.63604 0.0
C65 C 0.14714 0.85715 0.63058 0.0
O66 O 0.154 0.86334 0.64454 0.0
O67 O 0.14749 0.86614 0.61721 0.0
O68 O 0.14359 0.89758 0.66557 0.0
O69 O 0.14186 0.90261 0.63794 0.0
O70 O 0.60933 0.62936 0.10744 0.0
Cd71 Cd 0.61995 0.63234 0.13184 0.0
Cd72 Cd 0.64858 0.62202 0.11791 0.0
O73 O 0.63402 0.62424 0.09602 0.0
O74 O 0.61095 0.65389 0.14204 0.0
O75 O 0.63779 0.65298 0.13402 0.0
C76 C 0.62577 0.66207 0.13917 0.0
C77 C 0.67796 0.63104 0.1166 0.0
C78 C 0.61814 0.62651 0.09441 0.0
C79 C 0.63042 0.59705 0.14193 0.0
O80 O 0.64255 0.60037 0.13162 0.0
O81 O 0.62004 0.60848 0.1452 0.0
O82 O 0.67125 0.61751 0.10845 0.0
O83 O 0.66792 0.63968 0.12557 0.0
O84 O 0.84884 0.13426 0.62302 0.0
Cd85 Cd 0.87439 0.13573 0.61697 0.0
Cd86 Cd 0.87758 0.12708 0.64911 0.0
O87 O 0.85052 0.11901 0.64625 0.0
O88 O 0.87423 0.13724 0.59149 0.0
O89 O 0.88312 0.11515 0.60519 0.0
C90 C 0.88002 0.12233 0.5909 0.0
C91 C 0.90426 0.11454 0.64959 0.0
C92 C 0.84135 0.12591 0.6349 0.0
C93 C 0.88908 0.16263 0.64183 0.0
O94 O 0.88227 0.15307 0.65323 0.0
O95 O 0.88958 0.15707 0.62644 0.0
O96 O 0.89531 0.1152 0.66331 0.0
O97 O 0.89707 0.11899 0.63554 0.0
O98 O 0.41067 0.38216 0.11089 0.0
Cd99 Cd 0.40278 0.38204 0.13576 0.0
Cd100 Cd 0.37298 0.38707 0.1222 0.0
O101 O 0.38397 0.374 0.10263 0.0
O102 O 0.41279 0.36164 0.14694 0.0
O103 O 0.38538 0.36159 0.13925 0.0
C104 C 0.39786 0.3531 0.14454 0.0
C105 C 0.34398 0.38039 0.12767 0.0
C106 C 0.39995 0.37573 0.09953 0.0
C107 C 0.3927 0.418 0.13911 0.0
O108 O 0.38161 0.41236 0.12768 0.0
O109 O 0.4019 0.4074 0.14655 0.0
O110 O 0.34878 0.38776 0.11379 0.0
O111 O 0.35567 0.37639 0.13845 0.0
O112 O 0.39533 0.10658 0.13519 0.0
Cd113 Cd 0.4047 0.13106 0.14282 0.0
Cd114 Cd 0.38773 0.1383 0.11463 0.0
O115 O 0.37562 0.11264 0.11614 0.0
O116 O 0.41452 0.12724 0.16608 0.0
O117 O 0.39238 0.14246 0.16164 0.0
C118 C 0.40265 0.13581 0.17225 0.0
C119 C 0.38021 0.16661 0.12108 0.0
C120 C 0.38288 0.10154 0.12498 0.0
C121 C 0.42536 0.14255 0.11315 0.0
O122 O 0.41173 0.13871 0.10415 0.0
O123 O 0.42485 0.14277 0.12941 0.0
O124 O 0.37626 0.15928 0.10632 0.0
O125 O 0.38674 0.15729 0.13254 0.0
O126 O 0.39107 0.89652 0.6428 0.0
Cd127 Cd 0.4171 0.90356 0.64327 0.0
Cd128 Cd 0.41708 0.87181 0.63514 0.0
O129 O 0.39114 0.87357 0.62614 0.0
O130 O 0.41746 0.92861 0.64754 0.0
O131 O 0.42598 0.91754 0.6233 0.0
C132 C 0.42273 0.93086 0.63222 0.0
C133 C 0.44474 0.871 0.62318 0.0
C134 C 0.38275 0.88468 0.63385 0.0
C135 C 0.4256 0.88176 0.67089 0.0
O136 O 0.41794 0.86993 0.66139 0.0
O137 O 0.43037 0.89614 0.66445 0.0
O138 O 0.43461 0.85707 0.62477 0.0
O139 O 0.43842 0.88537 0.62659 0.0
O140 O 0.62431 0.90816 0.1326 0.0
Cd141 Cd 0.61573 0.88364 0.1394 0.0
Cd142 Cd 0.63289 0.8762 0.11219 0.0
O143 O 0.64474 0.90204 0.11513 0.0
O144 O 0.60565 0.88784 0.16211 0.0
O145 O 0.62846 0.87341 0.1588 0.0
C146 C 0.61788 0.88003 0.16889 0.0
C147 C 0.64087 0.84812 0.11838 0.0
C148 C 0.63699 0.91321 0.12351 0.0
C149 C 0.59532 0.87103 0.10863 0.0
O150 O 0.60884 0.87527 0.10041 0.0
O151 O 0.59591 0.87089 0.1249 0.0
O152 O 0.64469 0.85523 0.10398 0.0
O153 O 0.63417 0.85753 0.12973 0.0
O154 O 0.64661 0.12532 0.64462 0.0
Cd155 Cd 0.62032 0.12023 0.64659 0.0
Cd156 Cd 0.62173 0.15079 0.63465 0.0
O157 O 0.64644 0.14558 0.62559 0.0
O158 O 0.61897 0.09706 0.65627 0.0
O159 O 0.60884 0.10195 0.63036 0.0
C160 C 0.61186 0.09118 0.64208 0.0
C161 C 0.59323 0.15022 0.62278 0.0
C162 C 0.65474 0.13508 0.63419 0.0
C163 C 0.61477 0.14755 0.67075 0.0
O164 O 0.62324 0.1572 0.66048 0.0
O165 O 0.60832 0.13286 0.6655 0.0
O166 O 0.60382 0.16396 0.62232 0.0
O167 O 0.59938 0.13651 0.6283 0.0
O168 O 0.36932 0.90334 0.84907 0.0
Cd169 Cd 0.37211 0.90356 0.87549 0.0
Cd170 Cd 0.40392 0.9035 0.86788 0.0
O171 O 0.39495 0.91717 0.84794 0.0
O172 O 0.35786 0.92157 0.88595 0.0
O173 O 0.38617 0.92524 0.88423 0.0
C174 C 0.37192 0.93172 0.88763 0.0
C175 C 0.4327 0.90934 0.8765 0.0
C176 C 0.3807 0.9119 0.8406 0.0
C177 C 0.38545 0.86961 0.87709 0.0
O178 O 0.39678 0.87748 0.868 0.0
O179 O 0.37466 0.87833 0.88477 0.0
O180 O 0.42825 0.9033 0.86148 0.0
O181 O 0.42069 0.91291 0.88671 0.0
O182 O 0.61284 0.90567 0.38222 0.0
Cd183 Cd 0.63675 0.91689 0.37625 0.0
Cd184 Cd 0.64582 0.8999 0.40407 0.0
O185 O 0.6201 0.88764 0.40189 0.0
O186 O 0.63253 0.92641 0.35314 0.0
O187 O 0.64966 0.9059 0.35765 0.0
C188 C 0.64242 0.91556 0.34705 0.0
C189 C 0.67371 0.89174 0.39758 0.0
C190 C 0.60852 0.89372 0.39244 0.0
C191 C 0.64831 0.93779 0.40759 0.0
O192 O 0.64688 0.92385 0.41571 0.0
O193 O 0.64663 0.93758 0.39135 0.0
O194 O 0.6669 0.88815 0.41218 0.0
O195 O 0.66409 0.89837 0.38633 0.0
O196 O 0.65973 0.11846 0.85137 0.0
Cd197 Cd 0.65574 0.11856 0.8774 0.0
Cd198 Cd 0.62456 0.11907 0.86703 0.0
O199 O 0.6336 0.10618 0.84647 0.0
O200 O 0.66987 0.10103 0.88891 0.0
O201 O 0.64178 0.09675 0.88419 0.0
C202 C 0.65594 0.09064 0.88899 0.0
C203 C 0.59701 0.11182 0.87701 0.0
C204 C 0.64848 0.11093 0.84108 0.0
C205 C 0.6425 0.15284 0.87844 0.0
O206 O 0.63141 0.14505 0.86819 0.0
O207 O 0.65278 0.14405 0.88691 0.0
O208 O 0.59943 0.11768 0.86191 0.0
O209 O 0.61033 0.10932 0.8864 0.0
O210 O 0.40763 0.12629 0.3868 0.0
Cd211 Cd 0.38262 0.11784 0.38009 0.0
Cd212 Cd 0.37652 0.13851 0.40627 0.0
O213 O 0.40278 0.14865 0.40297 0.0
O214 O 0.38495 0.10536 0.35779 0.0
O215 O 0.37167 0.12902 0.36019 0.0
C216 C 0.37702 0.11715 0.35057 0.0
C217 C 0.34874 0.14647 0.39805 0.0
C218 C 0.41341 0.13968 0.39533 0.0
C219 C 0.36982 0.10176 0.41217 0.0
O220 O 0.37449 0.11606 0.41968 0.0
O221 O 0.3698 0.10046 0.3959 0.0
O222 O 0.35643 0.15274 0.41198 0.0
O223 O 0.35752 0.13733 0.38822 0.0
O224 O 0.09981 0.41687 0.14521 0.0
Cd225 Cd 0.10929 0.39319 0.14496 0.0
Cd226 Cd 0.13881 0.41058 0.13634 0.0
O227 O 0.12606 0.43007 0.14713 0.0
O228 O 0.10105 0.37991 0.16613 0.0
O229 O 0.12697 0.39328 0.16417 0.0
C230 C 0.11568 0.3852 0.17353 0.0
C231 C 0.16751 0.40681 0.14331 0.0
C232 C 0.1098 0.43048 0.14795 0.0
C233 C 0.12036 0.38937 0.10804 0.0
O234 O 0.13116 0.40202 0.11215 0.0
O235 O 0.11114 0.38203 0.11967 0.0
O236 O 0.16354 0.41982 0.1347 0.0
O237 O 0.15517 0.39625 0.14845 0.0
O238 O 0.13305 0.62032 0.82806 0.0
Cd239 Cd 0.13567 0.61181 0.85262 0.0
Cd240 Cd 0.13954 0.64544 0.8597 0.0
O241 O 0.13176 0.64794 0.83339 0.0
O242 O 0.12928 0.58665 0.85001 0.0
O243 O 0.11524 0.60341 0.86664 0.0
C244 C 0.11711 0.58826 0.86061 0.0
C245 C 0.12751 0.6497 0.88697 0.0
C246 C 0.13152 0.63531 0.82261 0.0
C247 C 0.17071 0.62671 0.86432 0.0
O248 O 0.16512 0.64134 0.86254 0.0
O249 O 0.16058 0.61312 0.86231 0.0
O250 O 0.1345 0.66252 0.8786 0.0
O251 O 0.12558 0.63497 0.879 0.0
O252 O 0.87974 0.66089 0.40003 0.0
Cd253 Cd 0.88216 0.63501 0.39827 0.0
Cd254 Cd 0.91448 0.64562 0.39549 0.0
O255 O 0.90695 0.66712 0.40792 0.0
O256 O 0.86697 0.62318 0.41636 0.0
O257 O 0.89526 0.6275 0.41902 0.0
C258 C 0.88075 0.6228 0.42592 0.0
C259 C 0.94017 0.6335 0.40184 0.0
C260 C 0.89177 0.67167 0.40582 0.0
C261 C 0.8953 0.63443 0.36273 0.0
O262 O 0.90768 0.64373 0.36999 0.0
O263 O 0.88389 0.62656 0.37202 0.0
O264 O 0.94016 0.64844 0.39522 0.0
O265 O 0.92556 0.62574 0.40578 0.0
O266 O 0.89082 0.3927 0.86936 0.0
Cd267 Cd 0.88878 0.39885 0.89494 0.0
Cd268 Cd 0.89066 0.36595 0.89764 0.0
O269 O 0.90004 0.36709 0.87208 0.0
O270 O 0.88821 0.42412 0.89503 0.0
O271 O 0.90952 0.41154 0.90719 0.0
C272 C 0.90267 0.42541 0.90342 0.0
C273 C 0.9021 0.36446 0.92606 0.0
C274 C 0.89649 0.37952 0.86253 0.0
C275 C 0.85686 0.37757 0.90333 0.0
O276 O 0.86423 0.36489 0.8976 0.0
O277 O 0.86546 0.392 0.90594 0.0
O278 O 0.89863 0.3507 0.91662 0.0
O279 O 0.90097 0.37898 0.91871 0.0
O280 O 0.11722 0.39433 0.42188 0.0
Cd281 Cd 0.10838 0.38472 0.39842 0.0
Cd282 Cd 0.13087 0.4083 0.38791 0.0
O283 O 0.14247 0.40469 0.41273 0.0
O284 O 0.09604 0.36174 0.40286 0.0
O285 O 0.12023 0.36527 0.38859 0.0
C286 C 0.10832 0.35506 0.39504 0.0
C287 C 0.13635 0.40027 0.35906 0.0
C288 C 0.13256 0.40061 0.42516 0.0
C289 C 0.09503 0.41567 0.38507 0.0
O290 O 0.11001 0.42278 0.38881 0.0
O291 O 0.09225 0.39939 0.38503 0.0
O292 O 0.14448 0.41383 0.36625 0.0
O293 O 0.12664 0.3906 0.36871 0.0
O294 O 0.88818 0.62881 0.16808 0.0
Cd295 Cd 0.88755 0.62348 0.14229 0.0
Cd296 Cd 0.89632 0.65622 0.14074 0.0
O297 O 0.90435 0.65331 0.16702 0.0
O298 O 0.88503 0.59797 0.14006 0.0
O299 O 0.90873 0.61377 0.13315 0.0
C300 C 0.90057 0.59884 0.13467 0.0
C301 C 0.90909 0.65797 0.11333 0.0
C302 C 0.89702 0.64118 0.17583 0.0
C303 C 0.86086 0.64553 0.13063 0.0
O304 O 0.87023 0.65779 0.13802 0.0
O305 O 0.86673 0.63101 0.12845 0.0
O306 O 0.90851 0.67161 0.12293 0.0
O307 O 0.90435 0.64347 0.12011 0.0
O308 O 0.90078 0.37619 0.61491 0.0
Cd309 Cd 0.91237 0.37189 0.63825 0.0
Cd310 Cd 0.89408 0.39787 0.64805 0.0
O311 O 0.88195 0.39391 0.6232 0.0
O312 O 0.92402 0.35045 0.63412 0.0
O313 O 0.90322 0.3522 0.65256 0.0
C314 C 0.91414 0.34318 0.64532 0.0
C315 C 0.88681 0.39053 0.67663 0.0
C316 C 0.88841 0.38515 0.61129 0.0
C317 C 0.93152 0.40585 0.64851 0.0
O318 O 0.91731 0.41258 0.64737 0.0
O319 O 0.9319 0.38967 0.64707 0.0
O320 O 0.88175 0.40424 0.66983 0.0
O321 O 0.89435 0.38034 0.66669 0.0
O322 O 0.13009 0.6461 0.57484 0.0
Cd323 Cd 0.11749 0.64958 0.59712 0.0
Cd324 Cd 0.13904 0.62639 0.60905 0.0
O325 O 0.14981 0.62961 0.58401 0.0
O326 O 0.10436 0.67005 0.59329 0.0
O327 O 0.12527 0.66947 0.61282 0.0
C328 C 0.11381 0.67781 0.60535 0.0
C329 C 0.14788 0.63474 0.63753 0.0
C330 C 0.14305 0.63783 0.5719 0.0
C331 C 0.10186 0.61517 0.60889 0.0
O332 O 0.11684 0.61012 0.61029 0.0
O333 O 0.09972 0.63043 0.6046 0.0
O334 O 0.15336 0.62133 0.63021 0.0
O335 O 0.13938 0.64447 0.62798 0.0
O336 O 0.94575 0.89353 0.63089 0.0
Cd337 Cd 0.92201 0.88481 0.62087 0.0
Cd338 Cd 0.9118 0.89191 0.65282 0.0
O339 O 0.93759 0.9042 0.65546 0.0
O340 O 0.92542 0.88332 0.59565 0.0
O341 O 0.90896 0.90145 0.60771 0.0
C342 C 0.91547 0.89552 0.59407 0.0
C343 C 0.88354 0.90044 0.64846 0.0
C344 C 0.94951 0.90166 0.64489 0.0
C345 C 0.90898 0.85539 0.64286 0.0
O346 O 0.91024 0.86584 0.6556 0.0
O347 O 0.91169 0.86071 0.62779 0.0
O348 O 0.89062 0.90105 0.66365 0.0
O349 O 0.8932 0.89703 0.63589 0.0
O350 O 0.60445 0.38478 0.11102 0.0
Cd351 Cd 0.61438 0.38353 0.13568 0.0
Cd352 Cd 0.64339 0.38091 0.12031 0.0
O353 O 0.63023 0.39311 0.10177 0.0
O354 O 0.6037 0.40172 0.14997 0.0
O355 O 0.63053 0.40485 0.14138 0.0
C356 C 0.61778 0.41163 0.14832 0.0
C357 C 0.67299 0.38771 0.12419 0.0
C358 C 0.61397 0.39129 0.09942 0.0
C359 C 0.62683 0.34837 0.13521 0.0
O360 O 0.63659 0.35529 0.12406 0.0
O361 O 0.61753 0.35787 0.14398 0.0
O362 O 0.66657 0.37967 0.11065 0.0
O363 O 0.66248 0.39276 0.13533 0.0
O364 O 0.08945 0.11824 0.62208 0.0
Cd365 Cd 0.11004 0.12812 0.60846 0.0
Cd366 Cd 0.12546 0.13309 0.63999 0.0
O367 O 0.10157 0.12028 0.64801 0.0
O368 O 0.10421 0.12049 0.5843 0.0
O369 O 0.12697 0.11293 0.59866 0.0
C370 C 0.11778 0.11221 0.58471 0.0
C371 C 0.15471 0.12652 0.63918 0.0
C372 C 0.08837 0.11626 0.63811 0.0
C373 C 0.11903 0.16458 0.6208 0.0
O374 O 0.1235 0.1585 0.63501 0.0
O375 O 0.11404 0.15463 0.60821 0.0
O376 O 0.14817 0.13139 0.65336 0.0
O377 O 0.14422 0.12366 0.62619 0.0
O378 O 0.41775 0.63178 0.10617 0.0
Cd379 Cd 0.40567 0.63252 0.12937 0.0
Cd380 Cd 0.37707 0.6338 0.11046 0.0
O381 O 0.39299 0.62435 0.09264 0.0
O382 O 0.41543 0.6148 0.14479 0.0
O383 O 0.38974 0.61086 0.13216 0.0
C384 C 0.40184 0.60453 0.14091 0.0
C385 C 0.34796 0.6234 0.1088 0.0
C386 C 0.40936 0.62625 0.09272 0.0
C387 C 0.39077 0.6668 0.12926 0.0
O388 O 0.38117 0.65942 0.11742 0.0
O389 O 0.40091 0.65795 0.13783 0.0
O390 O 0.35477 0.63342 0.09749 0.0
O391 O 0.3578 0.61887 0.12108 0.0
O392 O 0.85577 0.13901 0.40032 0.0
Cd393 Cd 0.88134 0.14207 0.40821 0.0
Cd394 Cd 0.8823 0.11419 0.3878 0.0
O395 O 0.85711 0.11973 0.37954 0.0
O396 O 0.88218 0.16333 0.42277 0.0
O397 O 0.897 0.16158 0.39918 0.0
C398 C 0.89272 0.17058 0.41215 0.0
C399 C 0.91023 0.11915 0.37633 0.0
C400 C 0.84841 0.12992 0.38812 0.0
C401 C 0.88864 0.10852 0.42398 0.0
O402 O 0.88297 0.10079 0.41026 0.0
O403 O 0.89052 0.12482 0.42485 0.0
O404 O 0.9001 0.10572 0.37171 0.0
O405 O 0.90381 0.13047 0.38594 0.0
O406 O 0.39338 0.43119 0.89083 0.0
Cd407 Cd 0.3857 0.40787 0.90118 0.0
Cd408 Cd 0.3839 0.39804 0.86816 0.0
O409 O 0.39674 0.42299 0.86406 0.0
O410 O 0.38856 0.4131 0.92614 0.0
O411 O 0.40265 0.39366 0.91296 0.0
C412 C 0.39928 0.40155 0.92694 0.0
C413 C 0.39185 0.36937 0.86992 0.0
C414 C 0.39765 0.4349 0.87568 0.0
C415 C 0.35077 0.39757 0.88505 0.0
O416 O 0.35774 0.39868 0.87054 0.0
O417 O 0.35995 0.3991 0.89875 0.0
O418 O 0.38867 0.37595 0.85523 0.0
O419 O 0.39234 0.3796 0.88314 0.0
O420 O 0.16595 0.89211 0.40291 0.0
Cd421 Cd 0.13994 0.88715 0.40685 0.0
Cd422 Cd 0.13873 0.91465 0.38858 0.0
O423 O 0.16348 0.90826 0.38043 0.0
O424 O 0.13718 0.86378 0.41683 0.0
O425 O 0.12738 0.86951 0.39098 0.0
C426 C 0.12958 0.85844 0.40262 0.0
C427 C 0.11007 0.91161 0.37685 0.0
C428 C 0.17287 0.89991 0.39036 0.0
C429 C 0.13227 0.91912 0.42465 0.0
O430 O 0.13964 0.92682 0.4123 0.0
O431 O 0.12846 0.90298 0.42378 0.0
O432 O 0.12073 0.92456 0.37302 0.0
O433 O 0.11624 0.89974 0.38572 0.0
O434 O 0.64228 0.59156 0.8903 0.0
Cd435 Cd 0.64824 0.61593 0.9003 0.0
Cd436 Cd 0.644 0.6241 0.86791 0.0
O437 O 0.63153 0.59852 0.86534 0.0
O438 O 0.64787 0.61247 0.92545 0.0
O439 O 0.62928 0.62738 0.91182 0.0
C440 C 0.6346 0.62115 0.9259 0.0
C441 C 0.63562 0.65253 0.87094 0.0
C442 C 0.63452 0.58703 0.87623 0.0
C443 C 0.6793 0.62881 0.88106 0.0
O444 O 0.67039 0.62491 0.86748 0.0
O445 O 0.67226 0.62825 0.89559 0.0
O446 O 0.63605 0.64523 0.85594 0.0
O447 O 0.63795 0.64306 0.88395 0.0
O448 O 0.66812 0.86815 0.85684 0.0
Cd449 Cd 0.65847 0.86827 0.88103 0.0
Cd450 Cd 0.63006 0.87572 0.8656 0.0
O451 O 0.6417 0.86306 0.84611 0.0
O452 O 0.66606 0.84732 0.89352 0.0
O453 O 0.64017 0.84833 0.88182 0.0
C454 C 0.65136 0.8393 0.88885 0.0
C455 C 0.601 0.87021 0.87151 0.0
C456 C 0.65792 0.8633 0.84439 0.0
C457 C 0.64953 0.90496 0.88464 0.0
O458 O 0.63924 0.90043 0.8722 0.0
O459 O 0.65763 0.89357 0.8922 0.0
O460 O 0.60587 0.87754 0.8576 0.0
O461 O 0.61264 0.86515 0.88173 0.0
O462 O 0.6538 0.11735 0.37957 0.0
Cd463 Cd 0.62773 0.11013 0.3779 0.0
Cd464 Cd 0.62765 0.13383 0.4028 0.0
O465 O 0.65314 0.14143 0.39462 0.0
O466 O 0.62473 0.09455 0.35717 0.0
O467 O 0.61408 0.11973 0.35875 0.0
C468 C 0.61636 0.10603 0.34998 0.0
C469 C 0.60001 0.14405 0.39875 0.0
C470 C 0.66167 0.13094 0.38619 0.0
C471 C 0.62099 0.09811 0.41321 0.0
O472 O 0.62714 0.11295 0.41847 0.0
O473 O 0.61769 0.0952 0.39734 0.0
O474 O 0.61051 0.1505 0.41079 0.0
O475 O 0.60587 0.13316 0.38825 0.0
O476 O 0.36376 0.15285 0.85379 0.0
Cd477 Cd 0.37092 0.15395 0.87931 0.0
Cd478 Cd 0.40072 0.14663 0.86834 0.0
O479 O 0.39092 0.15729 0.84673 0.0
O480 O 0.3612 0.17502 0.88966 0.0
O481 O 0.3887 0.17425 0.88387 0.0
C482 C 0.37628 0.18322 0.88822 0.0
C483 C 0.43018 0.15059 0.87469 0.0
C484 C 0.37499 0.15669 0.84265 0.0
C485 C 0.37943 0.11786 0.88505 0.0
O486 O 0.39116 0.12231 0.87464 0.0
O487 O 0.37009 0.12922 0.89091 0.0
O488 O 0.42412 0.14215 0.86124 0.0
O489 O 0.41951 0.15785 0.8842 0.0
O490 O 0.36623 0.91072 0.37503 0.0
Cd491 Cd 0.3915 0.92049 0.37277 0.0
Cd492 Cd 0.3953 0.90228 0.40123 0.0
O493 O 0.36922 0.8924 0.39573 0.0
O494 O 0.39102 0.93189 0.35012 0.0
O495 O 0.40691 0.91059 0.3555 0.0
C496 C 0.40177 0.92152 0.34485 0.0
C497 C 0.42263 0.89131 0.39837 0.0
C498 C 0.35958 0.89932 0.38484 0.0
C499 C 0.39989 0.94002 0.40588 0.0
O500 O 0.39693 0.92595 0.41358 0.0
O501 O 0.4 0.94018 0.38962 0.0
O502 O 0.41335 0.88789 0.41161 0.0
O503 O 0.41567 0.89948 0.38622 0.0
O504 O 0.61445 0.15357 0.14107 0.0
Cd505 Cd 0.60822 0.12745 0.14257 0.0
Cd506 Cd 0.63037 0.12682 0.11747 0.0
O507 O 0.6379 0.15274 0.12596 0.0
O508 O 0.59348 0.12453 0.16309 0.0
O509 O 0.61936 0.11522 0.1617 0.0
C510 C 0.6057 0.11701 0.17028 0.0
C511 C 0.64076 0.09925 0.12104 0.0
C512 C 0.62761 0.1614 0.13448 0.0
C513 C 0.59447 0.11861 0.10728 0.0
O514 O 0.60861 0.12559 0.10192 0.0
O515 O 0.59279 0.1156 0.12311 0.0
O516 O 0.64658 0.10929 0.10912 0.0
O517 O 0.63051 0.10553 0.13176 0.0
O518 O 0.40197 0.13029 0.63341 0.0
Cd519 Cd 0.37724 0.12001 0.63757 0.0
Cd520 Cd 0.37031 0.15048 0.62861 0.0
O521 O 0.39542 0.15191 0.61773 0.0
O522 O 0.3807 0.09601 0.64321 0.0
O523 O 0.36701 0.10289 0.61958 0.0
C524 C 0.37302 0.09128 0.6289 0.0
C525 C 0.34117 0.14513 0.61905 0.0
C526 C 0.40673 0.1425 0.62366 0.0
C527 C 0.36498 0.14357 0.66406 0.0
O528 O 0.37044 0.15569 0.65449 0.0
O529 O 0.36434 0.12812 0.65856 0.0
O530 O 0.34914 0.16038 0.61844 0.0
O531 O 0.3504 0.13272 0.62273 0.0
O532 O 0.40568 0.86156 0.13611 0.0
Cd533 Cd 0.41357 0.88747 0.13789 0.0
Cd534 Cd 0.39047 0.8879 0.11222 0.0
O535 O 0.38231 0.86235 0.11982 0.0
O536 O 0.42904 0.88902 0.15874 0.0
O537 O 0.40503 0.90189 0.157 0.0
C538 C 0.41837 0.8984 0.16587 0.0
C539 C 0.38034 0.91558 0.11623 0.0
C540 C 0.39233 0.85378 0.12886 0.0
C541 C 0.42654 0.89472 0.10296 0.0
O542 O 0.41189 0.8885 0.09716 0.0
O543 O 0.42906 0.8976 0.11893 0.0
O544 O 0.37436 0.90541 0.10376 0.0
O545 O 0.39066 0.90939 0.12716 0.0
O546 O 0.63463 0.87961 0.64964 0.0
Cd547 Cd 0.65825 0.89279 0.65471 0.0
Cd548 Cd 0.66807 0.86914 0.63598 0.0
O549 O 0.64268 0.87009 0.62476 0.0
O550 O 0.65268 0.91483 0.6652 0.0
O551 O 0.66423 0.91281 0.6397 0.0
C552 C 0.65785 0.92211 0.65136 0.0
C553 C 0.69665 0.87884 0.62852 0.0
C554 C 0.63059 0.87306 0.63495 0.0
C555 C 0.67512 0.8662 0.67184 0.0
O556 O 0.66896 0.85691 0.65922 0.0
O557 O 0.6751 0.8824 0.67132 0.0
O558 O 0.68942 0.86424 0.62271 0.0
O559 O 0.68697 0.8887 0.6366 0.0
O560 O 0.89672 0.63459 0.9242 0.0
Cd561 Cd 0.89012 0.62369 0.90053 0.0
Cd562 Cd 0.89869 0.65512 0.89114 0.0
O563 O 0.91116 0.65833 0.91591 0.0
O564 O 0.88596 0.5991 0.90621 0.0
O565 O 0.90726 0.60899 0.88996 0.0
C566 C 0.89942 0.59629 0.89772 0.0
C567 C 0.90688 0.65087 0.86233 0.0
C568 C 0.90636 0.64818 0.92791 0.0
C569 C 0.86212 0.64422 0.8885 0.0
O570 O 0.87264 0.65732 0.89178 0.0
O571 O 0.86725 0.62926 0.88886 0.0
O572 O 0.90777 0.66612 0.86927 0.0
O573 O 0.90342 0.63812 0.87231 0.0
O574 O 0.89233 0.38937 0.11513 0.0
Cd575 Cd 0.88763 0.40074 0.13839 0.0
Cd576 Cd 0.8875 0.36851 0.14742 0.0
O577 O 0.89936 0.3642 0.12346 0.0
O578 O 0.8866 0.42445 0.13053 0.0
O579 O 0.90643 0.41758 0.14909 0.0
C580 C 0.90006 0.42907 0.13989 0.0
C581 C 0.8963 0.37073 0.17678 0.0
C582 C 0.8979 0.375 0.11153 0.0
C583 C 0.85426 0.38249 0.14805 0.0
O584 O 0.86115 0.36868 0.1451 0.0
O585 O 0.86341 0.39677 0.14846 0.0
O586 O 0.89254 0.35593 0.1692 0.0
O587 O 0.89709 0.38408 0.16722 0.0
O588 O 0.11594 0.37729 0.66569 0.0
Cd589 Cd 0.10892 0.37413 0.64014 0.0
Cd590 Cd 0.13124 0.40185 0.63784 0.0
O591 O 0.13879 0.39582 0.66337 0.0
O592 O 0.09558 0.351 0.63842 0.0
O593 O 0.12059 0.35688 0.62618 0.0
C594 C 0.10789 0.34584 0.62948 0.0
C595 C 0.14289 0.39943 0.61014 0.0
C596 C 0.12889 0.38605 0.67265 0.0
C597 C 0.09476 0.40733 0.63211 0.0
O598 O 0.10932 0.41458 0.63707 0.0
O599 O 0.09256 0.39107 0.63033 0.0
O600 O 0.14756 0.41254 0.62011 0.0
O601 O 0.13316 0.38709 0.61658 0.0
O602 O 0.1241 0.62366 0.07513 0.0
Cd603 Cd 0.12956 0.61206 0.09788 0.0
Cd604 Cd 0.13904 0.64453 0.10752 0.0
O605 O 0.12781 0.65089 0.08354 0.0
O606 O 0.11953 0.58787 0.09429 0.0
O607 O 0.11115 0.60493 0.1147 0.0
C608 C 0.10998 0.59001 0.10725 0.0
C609 C 0.13224 0.64741 0.1369 0.0
C610 C 0.12387 0.63947 0.07173 0.0
C611 C 0.1671 0.62163 0.10476 0.0
O612 O 0.16344 0.63711 0.10492 0.0
O613 O 0.1552 0.60941 0.10367 0.0
O614 O 0.14002 0.66007 0.12888 0.0
O615 O 0.12672 0.63395 0.12782 0.0
O616 O 0.88146 0.66387 0.64689 0.0
Cd617 Cd 0.88309 0.63787 0.64781 0.0
Cd618 Cd 0.91543 0.64544 0.6387 0.0
O619 O 0.90972 0.66925 0.64768 0.0
O620 O 0.87113 0.62943 0.6695 0.0
O621 O 0.89934 0.63268 0.66716 0.0
C622 C 0.88625 0.62974 0.67682 0.0
C623 C 0.94219 0.6358 0.64571 0.0
C624 C 0.89476 0.67447 0.64861 0.0
C625 C 0.89125 0.62856 0.61127 0.0
O626 O 0.90547 0.63724 0.61502 0.0
O627 O 0.88033 0.62526 0.62306 0.0
O628 O 0.9408 0.64831 0.63547 0.0
O629 O 0.92835 0.62886 0.65232 0.0
O630 O 0.10171 0.41481 0.89575 0.0
Cd631 Cd 0.11225 0.39153 0.89468 0.0
Cd632 Cd 0.14125 0.41096 0.89121 0.0
O633 O 0.12687 0.42896 0.90204 0.0
O634 O 0.10107 0.37635 0.913 0.0
O635 O 0.12751 0.38895 0.91562 0.0
C636 C 0.1147 0.3803 0.92259 0.0
C637 C 0.17042 0.41039 0.8985 0.0
C638 C 0.11054 0.42855 0.90075 0.0
C639 C 0.12658 0.3918 0.85938 0.0
O640 O 0.13611 0.40439 0.86592 0.0
O641 O 0.11671 0.38256 0.86912 0.0
O642 O 0.16489 0.42276 0.88996 0.0
O643 O 0.1592 0.39868 0.9038 0.0
O644 O 0.11911 0.64286 0.32847 0.0
Cd645 Cd 0.11583 0.64988 0.35371 0.0
Cd646 Cd 0.13544 0.62498 0.35929 0.0
O647 O 0.14271 0.63001 0.33341 0.0
O648 O 0.10311 0.67083 0.35336 0.0
O649 O 0.12984 0.67075 0.36356 0.0
C650 C 0.11654 0.67903 0.36057 0.0
C651 C 0.1483 0.63115 0.38687 0.0
C652 C 0.13211 0.63605 0.32282 0.0
C653 C 0.10058 0.61761 0.36922 0.0
O654 O 0.1124 0.61003 0.36219 0.0
O655 O 0.10108 0.63387 0.36915 0.0
O656 O 0.15203 0.61795 0.37788 0.0
O657 O 0.13911 0.64186 0.37934 0.0
O658 O 0.90945 0.38063 0.37004 0.0
Cd659 Cd 0.91693 0.37927 0.39544 0.0
Cd660 Cd 0.89371 0.40239 0.39842 0.0
O661 O 0.88595 0.39403 0.37283 0.0
O662 O 0.93152 0.35947 0.39552 0.0
O663 O 0.90714 0.35959 0.40932 0.0
C664 C 0.92018 0.35162 0.40499 0.0
C665 C 0.88308 0.39675 0.42637 0.0
C666 C 0.89615 0.38631 0.3633 0.0
C667 C 0.92972 0.41549 0.40458 0.0
O668 O 0.91529 0.41979 0.39912 0.0
O669 O 0.93223 0.39977 0.40619 0.0
O670 O 0.87732 0.40873 0.41725 0.0
O671 O 0.89345 0.38714 0.41901 0.0
H672 H 0.12978 0.33718 0.37597 0.0
H673 H 0.13414 0.30671 0.37771 0.0
H674 H 0.09438 0.30029 0.41509 0.0
H675 H 0.08988 0.33078 0.4134 0.0
H676 H 0.12536 0.28739 0.42514 0.0
H677 H 0.08621 0.28419 0.37637 0.0
H678 H 0.07586 0.29201 0.34778 0.0
H679 H 0.12192 0.2762 0.32559 0.0
H680 H 0.13267 0.26851 0.3541 0.0
H681 H 0.11377 0.19694 0.42863 0.0
H682 H 0.11171 0.2277 0.4265 0.0
H683 H 0.14685 0.22956 0.3846 0.0
H684 H 0.1486 0.19858 0.38636 0.0
H685 H 0.11954 0.2453 0.37652 0.0
H686 H 0.15867 0.24768 0.42452 0.0
H687 H 0.1698 0.24019 0.45291 0.0
H688 H 0.12526 0.25798 0.47641 0.0
H689 H 0.11372 0.26536 0.44811 0.0
C690 C 0.1218 0.32924 0.38439 0.0
C691 C 0.10951 0.33636 0.39458 0.0
C692 C 0.1243 0.31184 0.38534 0.0
C693 C 0.11458 0.30131 0.39653 0.0
C694 C 0.10201 0.30827 0.4064 0.0
C695 C 0.09939 0.32564 0.40535 0.0
C696 C 0.11813 0.28321 0.39851 0.0
C697 C 0.12388 0.27808 0.41459 0.0
C698 C 0.11678 0.27134 0.38456 0.0
C699 C 0.11033 0.27594 0.3674 0.0
C700 C 0.09421 0.28252 0.36542 0.0
C701 C 0.08825 0.2869 0.34922 0.0
C702 C 0.09825 0.28465 0.33488 0.0
C703 C 0.1142 0.27796 0.33671 0.0
C704 C 0.12023 0.27358 0.35288 0.0
C705 C 0.12131 0.20392 0.41915 0.0
C706 C 0.13132 0.19532 0.40763 0.0
C707 C 0.12016 0.22154 0.41798 0.0
C708 C 0.12921 0.23097 0.40545 0.0
C709 C 0.13974 0.22253 0.39434 0.0
C710 C 0.14079 0.20484 0.39542 0.0
C711 C 0.12668 0.24934 0.40322 0.0
C712 C 0.12113 0.25457 0.38709 0.0
C713 C 0.12836 0.26134 0.4171 0.0
C714 C 0.13526 0.25694 0.43416 0.0
C715 C 0.15118 0.24987 0.43572 0.0
C716 C 0.15757 0.24566 0.4518 0.0
C717 C 0.14823 0.24857 0.46645 0.0
C718 C 0.13248 0.25572 0.46505 0.0
C719 C 0.12601 0.25994 0.44899 0.0
H720 H 0.1532 0.24531 0.47889 0.0
H721 H 0.09361 0.28804 0.32235 0.0
H722 H 0.3299 0.63525 0.90822 0.0
H723 H 0.29873 0.62936 0.90473 0.0
H724 H 0.30409 0.62126 0.8504 0.0
H725 H 0.33526 0.62769 0.85372 0.0
H726 H 0.28074 0.64181 0.85535 0.0
H727 H 0.29195 0.58784 0.87743 0.0
H728 H 0.30424 0.56777 0.89721 0.0
H729 H 0.27509 0.58684 0.93824 0.0
H730 H 0.26284 0.60725 0.91878 0.0
H731 H 0.18808 0.59786 0.86347 0.0
H732 H 0.21917 0.59628 0.86667 0.0
H733 H 0.22626 0.65092 0.87684 0.0
H734 H 0.19528 0.65269 0.87326 0.0
H735 H 0.24313 0.60351 0.89128 0.0
H736 H 0.26137 0.6678 0.85742 0.0
H737 H 0.24918 0.68567 0.83538 0.0
H738 H 0.21972 0.6412 0.81342 0.0
H739 H 0.23192 0.62303 0.83515 0.0
C740 C 0.32447 0.63198 0.89556 0.0
C741 C 0.33502 0.63206 0.88122 0.0
C742 C 0.30664 0.62853 0.8936 0.0
C743 C 0.29907 0.62476 0.87731 0.0
C744 C 0.30965 0.6242 0.86307 0.0
C745 C 0.32746 0.62785 0.86499 0.0
C746 C 0.28007 0.62281 0.87497 0.0
C747 C 0.27255 0.63334 0.86315 0.0
C748 C 0.26936 0.61154 0.88491 0.0
C749 C 0.27657 0.59917 0.89665 0.0
C750 C 0.28825 0.58784 0.8907 0.0
C751 C 0.2952 0.57639 0.90185 0.0
C752 C 0.29047 0.57605 0.91898 0.0
C753 C 0.27875 0.58713 0.92497 0.0
C754 C 0.27178 0.59863 0.91388 0.0
C755 C 0.19624 0.60952 0.86652 0.0
C756 C 0.18925 0.62545 0.86789 0.0
C757 C 0.21399 0.60858 0.86839 0.0
C758 C 0.22502 0.62352 0.87169 0.0
C759 C 0.21799 0.63928 0.87394 0.0
C760 C 0.20028 0.64027 0.87192 0.0
C761 C 0.24394 0.62283 0.87202 0.0
C762 C 0.25139 0.61184 0.88343 0.0
C763 C 0.25464 0.6333 0.86134 0.0
C764 C 0.24746 0.64409 0.84802 0.0
C765 C 0.25236 0.66183 0.84783 0.0
C766 C 0.24543 0.67201 0.8354 0.0
C767 C 0.23364 0.66458 0.82304 0.0
C768 C 0.22881 0.64694 0.82303 0.0
C769 C 0.23572 0.6367 0.83542 0.0
H770 H 0.22827 0.67249 0.81345 0.0
H771 H 0.29586 0.56717 0.92759 0.0
H772 H 0.86527 0.83151 0.3812 0.0
H773 H 0.86149 0.80002 0.38286 0.0
H774 H 0.91208 0.80036 0.40659 0.0
H775 H 0.9159 0.83149 0.40507 0.0
H776 H 0.90598 0.77617 0.37998 0.0
H777 H 0.87803 0.79633 0.4307 0.0
H778 H 0.85652 0.81205 0.44558 0.0
H779 H 0.81562 0.78145 0.41853 0.0
H780 H 0.83693 0.7657 0.40331 0.0
H781 H 0.91448 0.69822 0.41758 0.0
H782 H 0.91115 0.72882 0.41548 0.0
H783 H 0.85909 0.71726 0.39588 0.0
H784 H 0.86219 0.68658 0.39816 0.0
H785 H 0.86241 0.7463 0.41692 0.0
H786 H 0.88957 0.72435 0.36813 0.0
H787 H 0.91059 0.70838 0.35281 0.0
H788 H 0.95214 0.74227 0.37473 0.0
H789 H 0.93137 0.75827 0.39042 0.0
C790 C 0.87557 0.82481 0.38668 0.0
C791 C 0.89085 0.83393 0.39304 0.0
C792 C 0.87338 0.80689 0.38768 0.0
C793 C 0.8865 0.79796 0.3949 0.0
C794 C 0.90182 0.80705 0.40096 0.0
C795 C 0.90394 0.82485 0.40013 0.0
C796 C 0.88457 0.7791 0.39636 0.0
C797 C 0.8965 0.76963 0.38809 0.0
C798 C 0.87185 0.77058 0.40653 0.0
C799 C 0.85907 0.78 0.41572 0.0
C800 C 0.86446 0.79306 0.42781 0.0
C801 C 0.8523 0.80195 0.43633 0.0
C802 C 0.83471 0.79779 0.43296 0.0
C803 C 0.82924 0.78469 0.4211 0.0
C804 C 0.84135 0.77577 0.41253 0.0
C805 C 0.9022 0.70215 0.41316 0.0
C806 C 0.8887 0.68996 0.40777 0.0
C807 C 0.90033 0.71964 0.41192 0.0
C808 C 0.88501 0.72523 0.40514 0.0
C809 C 0.87105 0.71317 0.40101 0.0
C810 C 0.87288 0.69564 0.40231 0.0
C811 C 0.88423 0.7435 0.40101 0.0
C812 C 0.87176 0.7528 0.40864 0.0
C813 C 0.89637 0.7519 0.39011 0.0
C814 C 0.90891 0.74243 0.38056 0.0
C815 C 0.90319 0.72832 0.36978 0.0
C816 C 0.91506 0.71927 0.36102 0.0
C817 C 0.93269 0.72429 0.36282 0.0
C818 C 0.93848 0.73839 0.37336 0.0
C819 C 0.92667 0.74746 0.38218 0.0
H820 H 0.94186 0.71727 0.35603 0.0
H821 H 0.82532 0.80468 0.43957 0.0
H822 H 0.83805 0.39833 0.92234 0.0
H823 H 0.80676 0.39945 0.92093 0.0
H824 H 0.80188 0.35603 0.88569 0.0
H825 H 0.83313 0.35458 0.88726 0.0
H826 H 0.78735 0.38775 0.87457 0.0
H827 H 0.78748 0.34881 0.92188 0.0
H828 H 0.79673 0.33998 0.9505 0.0
H829 H 0.7772 0.38451 0.97321 0.0
H830 H 0.76808 0.39376 0.94467 0.0
H831 H 0.69732 0.37012 0.86521 0.0
H832 H 0.7285 0.37073 0.8687 0.0
H833 H 0.72693 0.40247 0.91442 0.0
H834 H 0.69554 0.40117 0.91141 0.0
H835 H 0.74545 0.37815 0.92092 0.0
H836 H 0.74469 0.41763 0.87562 0.0
H837 H 0.73653 0.42894 0.84767 0.0
H838 H 0.75829 0.3873 0.8219 0.0
H839 H 0.76637 0.37558 0.8497 0.0
C840 C 0.83027 0.38879 0.91458 0.0
C841 C 0.83799 0.3764 0.90486 0.0
C842 C 0.81244 0.38946 0.91379 0.0
C843 C 0.80215 0.37789 0.90313 0.0
C844 C 0.80971 0.36507 0.89396 0.0
C845 C 0.82751 0.3642 0.89496 0.0
C846 C 0.78367 0.37999 0.90056 0.0
C847 C 0.77807 0.38544 0.88458 0.0
C848 C 0.77191 0.37771 0.91394 0.0
C849 C 0.77726 0.37207 0.93111 0.0
C850 C 0.7853 0.35681 0.93295 0.0
C851 C 0.79049 0.35171 0.94916 0.0
C852 C 0.7876 0.3617 0.96366 0.0
C853 C 0.77946 0.37679 0.96197 0.0
C854 C 0.77426 0.38197 0.94578 0.0
C855 C 0.70365 0.37752 0.87581 0.0
C856 C 0.69401 0.38557 0.88807 0.0
C857 C 0.72151 0.37791 0.87778 0.0
C858 C 0.73013 0.38676 0.89176 0.0
C859 C 0.72057 0.39549 0.90357 0.0
C860 C 0.70266 0.39482 0.9018 0.0
C861 C 0.74888 0.38576 0.89474 0.0
C862 C 0.75462 0.38056 0.91084 0.0
C863 C 0.76087 0.38865 0.88155 0.0
C864 C 0.75601 0.39564 0.86477 0.0
C865 C 0.74762 0.4108 0.864 0.0
C866 C 0.74302 0.4173 0.84818 0.0
C867 C 0.74685 0.40882 0.83302 0.0
C868 C 0.75532 0.39384 0.83365 0.0
C869 C 0.75992 0.38727 0.84944 0.0
H870 H 0.74329 0.41388 0.82079 0.0
H871 H 0.79163 0.35773 0.97619 0.0
H872 H 0.12952 0.69652 0.63212 0.0
H873 H 0.12926 0.72731 0.63784 0.0
H874 H 0.0944 0.73099 0.59463 0.0
H875 H 0.0946 0.70017 0.58878 0.0
H876 H 0.12325 0.7536 0.59355 0.0
H877 H 0.08024 0.73707 0.63399 0.0
H878 H 0.06758 0.72079 0.65799 0.0
H879 H 0.10882 0.74216 0.69153 0.0
H880 H 0.12189 0.75838 0.66767 0.0
H881 H 0.12372 0.84276 0.60677 0.0
H882 H 0.11231 0.81266 0.60401 0.0
H883 H 0.14158 0.8011 0.64922 0.0
H884 H 0.15252 0.8313 0.65242 0.0
H885 H 0.11149 0.7827 0.6485 0.0
H886 H 0.15671 0.79515 0.60827 0.0
H887 H 0.17109 0.81064 0.58465 0.0
H888 H 0.12747 0.79597 0.55122 0.0
H889 H 0.11274 0.78055 0.57474 0.0
C890 C 0.1216 0.70384 0.62397 0.0
C891 C 0.11219 0.69597 0.60992 0.0
C892 C 0.12138 0.7214 0.62733 0.0
C893 C 0.11174 0.73138 0.6167 0.0
C894 C 0.10188 0.72347 0.603 0.0
C895 C 0.102 0.70587 0.59969 0.0
C896 C 0.11338 0.75028 0.61889 0.0
C897 C 0.1203 0.76002 0.60543 0.0
C898 C 0.11 0.75851 0.63457 0.0
C899 C 0.10211 0.74886 0.64899 0.0
C900 C 0.08669 0.73821 0.64645 0.0
C901 C 0.07943 0.729 0.66004 0.0
C902 C 0.08741 0.73041 0.67627 0.0
C903 C 0.10265 0.74107 0.67895 0.0
C904 C 0.10998 0.75029 0.6654 0.0
C905 C 0.1276 0.83382 0.6162 0.0
C906 C 0.13921 0.8393 0.62966 0.0
C907 C 0.12108 0.81664 0.61461 0.0
C908 C 0.12639 0.80458 0.6262 0.0
C909 C 0.13735 0.81018 0.6401 0.0
C910 C 0.14365 0.82742 0.64187 0.0
C911 C 0.12154 0.78598 0.62322 0.0
C912 C 0.11413 0.7763 0.63653 0.0
C913 C 0.12468 0.7777 0.60747 0.0
C914 C 0.13355 0.78687 0.5933 0.0
C915 C 0.15015 0.79533 0.59591 0.0
C916 C 0.15836 0.80408 0.58254 0.0
C917 C 0.15017 0.80434 0.56646 0.0
C918 C 0.13378 0.79579 0.5637 0.0
C919 C 0.12549 0.78704 0.57704 0.0
H920 H 0.15655 0.81112 0.55612 0.0
H921 H 0.08177 0.72327 0.68677 0.0
H922 H 0.70159 0.61489 0.09884 0.0
H923 H 0.73279 0.62112 0.09982 0.0
H924 H 0.72813 0.6643 0.13407 0.0
H925 H 0.69665 0.65818 0.13315 0.0
H926 H 0.75378 0.67011 0.10797 0.0
H927 H 0.73746 0.63019 0.15176 0.0
H928 H 0.72218 0.60417 0.16338 0.0
H929 H 0.74856 0.57264 0.129 0.0
H930 H 0.76381 0.59851 0.11698 0.0
H931 H 0.84169 0.67181 0.13963 0.0
H932 H 0.81061 0.67278 0.13522 0.0
H933 H 0.80801 0.62486 0.1065 0.0
H934 H 0.83892 0.62363 0.11112 0.0
H935 H 0.78564 0.62336 0.13148 0.0
H936 H 0.80183 0.66313 0.08733 0.0
H937 H 0.8169 0.68907 0.07534 0.0
H938 H 0.79114 0.72082 0.11004 0.0
H939 H 0.77608 0.69504 0.1224 0.0
C940 C 0.70713 0.62583 0.10646 0.0
C941 C 0.69667 0.63593 0.11609 0.0
C942 C 0.72496 0.62938 0.10698 0.0
C943 C 0.7327 0.64304 0.11716 0.0
C944 C 0.72233 0.65369 0.12616 0.0
C945 C 0.70439 0.65013 0.12568 0.0
C946 C 0.75165 0.64519 0.1193 0.0
C947 C 0.76081 0.66004 0.11333 0.0
C948 C 0.76071 0.6319 0.12608 0.0
C949 C 0.75166 0.6163 0.13337 0.0
C950 C 0.7399 0.61772 0.14659 0.0
C951 C 0.73126 0.60299 0.15326 0.0
C952 C 0.73437 0.58676 0.14691 0.0
C953 C 0.74616 0.58522 0.1339 0.0
C954 C 0.75481 0.59991 0.12716 0.0
C955 C 0.83454 0.66164 0.13212 0.0
C956 C 0.84271 0.64754 0.12588 0.0
C957 C 0.81679 0.66225 0.12956 0.0
C958 C 0.80701 0.64887 0.12055 0.0
C959 C 0.81532 0.63526 0.11358 0.0
C960 C 0.83299 0.63458 0.11622 0.0
C961 C 0.78796 0.64812 0.11974 0.0
C962 C 0.77872 0.6335 0.12612 0.0
C963 C 0.77892 0.66164 0.11334 0.0
C964 C 0.78797 0.67714 0.10592 0.0
C965 C 0.79949 0.67563 0.09251 0.0
C966 C 0.80801 0.69031 0.08562 0.0
C967 C 0.80502 0.70658 0.09195 0.0
C968 C 0.79346 0.70821 0.10516 0.0
C969 C 0.78492 0.69357 0.1121 0.0
H970 H 0.81162 0.71793 0.0866 0.0
H971 H 0.72766 0.57538 0.15209 0.0
H972 H 0.88431 0.1807 0.67138 0.0
H973 H 0.89217 0.21128 0.67721 0.0
H974 H 0.91619 0.21567 0.62817 0.0
H975 H 0.90834 0.18514 0.62217 0.0
H976 H 0.93472 0.23499 0.65558 0.0
H977 H 0.87682 0.22485 0.63018 0.0
H978 H 0.84694 0.21137 0.62912 0.0
H979 H 0.83831 0.23313 0.67873 0.0
H980 H 0.86824 0.24653 0.68018 0.0
H981 H 0.9312 0.31954 0.62811 0.0
H982 H 0.93029 0.28882 0.63306 0.0
H983 H 0.89819 0.29481 0.67664 0.0
H984 H 0.8986 0.32555 0.6714 0.0
H985 H 0.88468 0.26991 0.65728 0.0
H986 H 0.94073 0.28414 0.68108 0.0
H987 H 0.9706 0.29755 0.68297 0.0
H988 H 0.98324 0.2685 0.63854 0.0
H989 H 0.95338 0.2551 0.63621 0.0
C990 C 0.8915 0.1881 0.66194 0.0
C991 C 0.89553 0.18056 0.64621 0.0
C992 C 0.89598 0.20555 0.66531 0.0
C993 C 0.90463 0.21568 0.65306 0.0
C994 C 0.90953 0.20801 0.63778 0.0
C995 C 0.90493 0.1906 0.63433 0.0
C996 C 0.90707 0.23453 0.65533 0.0
C997 C 0.92384 0.24271 0.65592 0.0
C998 C 0.89283 0.24444 0.65631 0.0
C999 C 0.87481 0.23651 0.65537 0.0
C1000 C 0.86859 0.22663 0.64092 0.0
C1001 C 0.85164 0.21903 0.64024 0.0
C1002 C 0.84075 0.22135 0.65387 0.0
C1003 C 0.84677 0.23131 0.6682 0.0
C1004 C 0.86372 0.23892 0.66895 0.0
C1005 C 0.92412 0.31436 0.63888 0.0
C1006 C 0.91488 0.32492 0.6493 0.0
C1007 C 0.92373 0.2968 0.64179 0.0
C1008 C 0.91434 0.28952 0.65536 0.0
C1009 C 0.90553 0.30015 0.66611 0.0
C1010 C 0.90577 0.3177 0.66309 0.0
C1011 C 0.91243 0.27063 0.65724 0.0
C1012 C 0.89568 0.26235 0.65735 0.0
C1013 C 0.92674 0.26068 0.65708 0.0
C1014 C 0.94475 0.26869 0.65841 0.0
C1015 C 0.94983 0.2807 0.67163 0.0
C1016 C 0.96678 0.28829 0.67279 0.0
C1017 C 0.9788 0.2839 0.66087 0.0
C1018 C 0.97391 0.27189 0.64776 0.0
C1019 C 0.95698 0.26428 0.64653 0.0
H1020 H 0.99191 0.28978 0.66179 0.0
H1021 H 0.82763 0.21545 0.65332 0.0
H1022 H 0.32925 0.38594 0.15813 0.0
H1023 H 0.29855 0.3873 0.16307 0.0
H1024 H 0.28679 0.36991 0.1109 0.0
H1025 H 0.31758 0.36993 0.10567 0.0
H1026 H 0.27085 0.39501 0.11575 0.0
H1027 H 0.27582 0.34532 0.14872 0.0
H1028 H 0.28781 0.32703 0.17047 0.0
H1029 H 0.27662 0.36283 0.21016 0.0
H1030 H 0.26478 0.38147 0.18863 0.0
H1031 H 0.17954 0.37633 0.15141 0.0
H1032 H 0.2094 0.36927 0.15118 0.0
H1033 H 0.22622 0.42222 0.14163 0.0
H1034 H 0.19626 0.42918 0.141 0.0
H1035 H 0.23846 0.37682 0.16712 0.0
H1036 H 0.25772 0.4252 0.11387 0.0
H1037 H 0.24397 0.43906 0.08971 0.0
H1038 H 0.204 0.3975 0.08614 0.0
H1039 H 0.21763 0.38329 0.11012 0.0
C1040 C 0.32002 0.38208 0.14787 0.0
C1041 C 0.32563 0.37789 0.13153 0.0
C1042 C 0.30246 0.38276 0.15071 0.0
C1043 C 0.29024 0.37862 0.13739 0.0
C1044 C 0.29592 0.37333 0.12135 0.0
C1045 C 0.31347 0.37324 0.11837 0.0
C1046 C 0.27183 0.38155 0.13954 0.0
C1047 C 0.26381 0.39088 0.12696 0.0
C1048 C 0.26242 0.37603 0.15402 0.0
C1049 C 0.26954 0.36487 0.16703 0.0
C1050 C 0.27604 0.34936 0.16208 0.0
C1051 C 0.28279 0.33892 0.17437 0.0
C1052 C 0.28301 0.34378 0.19168 0.0
C1053 C 0.27645 0.35909 0.19674 0.0
C1054 C 0.2697 0.36959 0.1845 0.0
C1055 C 0.18963 0.38652 0.14948 0.0
C1056 C 0.1856 0.40325 0.14594 0.0
C1057 C 0.2067 0.38246 0.1494 0.0
C1058 C 0.22001 0.39512 0.14599 0.0
C1059 C 0.2161 0.41214 0.14382 0.0
C1060 C 0.199 0.41613 0.14353 0.0
C1061 C 0.23774 0.39031 0.14341 0.0
C1062 C 0.2456 0.38077 0.1559 0.0
C1063 C 0.24679 0.39491 0.12847 0.0
C1064 C 0.23861 0.40328 0.1139 0.0
C1065 C 0.24603 0.419 0.10788 0.0
C1066 C 0.23826 0.42692 0.09423 0.0
C1067 C 0.22309 0.41919 0.08643 0.0
C1068 C 0.21571 0.4035 0.09223 0.0
C1069 C 0.22345 0.39552 0.10586 0.0
H1070 H 0.21709 0.42536 0.07588 0.0
H1071 H 0.28825 0.33568 0.20118 0.0
H1072 H 0.37989 0.1541 0.18945 0.0
H1073 H 0.37283 0.15209 0.21978 0.0
H1074 H 0.41165 0.1168 0.22712 0.0
H1075 H 0.41887 0.11879 0.19698 0.0
H1076 H 0.37858 0.10499 0.23863 0.0
H1077 H 0.41929 0.15576 0.24255 0.0
H1078 H 0.4302 0.18519 0.23519 0.0
H1079 H 0.38334 0.20409 0.25229 0.0
H1080 H 0.37206 0.17471 0.25954 0.0
H1081 H 0.39206 0.09762 0.32699 0.0
H1082 H 0.39277 0.1015 0.29619 0.0
H1083 H 0.3591 0.14216 0.30069 0.0
H1084 H 0.35877 0.13868 0.33172 0.0
H1085 H 0.38526 0.15227 0.28223 0.0
H1086 H 0.34526 0.10284 0.28108 0.0
H1087 H 0.33322 0.07369 0.28814 0.0
H1088 H 0.37636 0.05241 0.2653 0.0
H1089 H 0.3888 0.08145 0.25832 0.0
C1090 C 0.3871 0.14612 0.1976 0.0
C1091 C 0.39989 0.13655 0.19084 0.0
C1092 C 0.38304 0.14499 0.21488 0.0
C1093 C 0.39167 0.13422 0.22557 0.0
C1094 C 0.4048 0.1251 0.21899 0.0
C1095 C 0.40897 0.12634 0.20179 0.0
C1096 C 0.38657 0.13175 0.24347 0.0
C1097 C 0.38014 0.11526 0.24824 0.0
C1098 C 0.38795 0.14536 0.25572 0.0
C1099 C 0.39475 0.16301 0.25139 0.0
C1100 C 0.41125 0.16617 0.24459 0.0
C1101 C 0.41751 0.18284 0.24047 0.0
C1102 C 0.40745 0.1965 0.24322 0.0
C1103 C 0.39111 0.1935 0.25014 0.0
C1104 C 0.38478 0.17684 0.25426 0.0
C1105 C 0.38456 0.10719 0.32141 0.0
C1106 C 0.3754 0.11788 0.33177 0.0
C1107 C 0.38491 0.10935 0.30377 0.0
C1108 C 0.37586 0.12202 0.29609 0.0
C1109 C 0.36619 0.13231 0.30635 0.0
C1110 C 0.36596 0.13026 0.32405 0.0
C1111 C 0.37766 0.12533 0.2776 0.0
C1112 C 0.38343 0.14199 0.27265 0.0
C1113 C 0.37546 0.11189 0.26511 0.0
C1114 C 0.36802 0.09436 0.26927 0.0
C1115 C 0.35225 0.09196 0.27767 0.0
C1116 C 0.34534 0.07545 0.28164 0.0
C1117 C 0.35404 0.06121 0.2772 0.0
C1118 C 0.36964 0.06345 0.26874 0.0
C1119 C 0.37662 0.07994 0.26475 0.0
H1120 H 0.34866 0.04843 0.28028 0.0
H1121 H 0.41232 0.2094 0.24002 0.0
H1122 H 0.44151 0.90402 0.69488 0.0
H1123 H 0.43334 0.90693 0.72463 0.0
H1124 H 0.3994 0.86032 0.7192 0.0
H1125 H 0.40744 0.85732 0.68935 0.0
H1126 H 0.38258 0.88756 0.72954 0.0
H1127 H 0.43319 0.86193 0.74663 0.0
H1128 H 0.46408 0.85739 0.74741 0.0
H1129 H 0.47646 0.90879 0.7671 0.0
H1130 H 0.44565 0.91374 0.76621 0.0
H1131 H 0.36133 0.88948 0.81908 0.0
H1132 H 0.36741 0.88378 0.78906 0.0
H1133 H 0.40432 0.92836 0.78962 0.0
H1134 H 0.3985 0.93397 0.81965 0.0
H1135 H 0.41897 0.89958 0.78203 0.0
H1136 H 0.36816 0.92536 0.76418 0.0
H1137 H 0.33732 0.93001 0.76248 0.0
H1138 H 0.32516 0.87827 0.74368 0.0
H1139 H 0.35591 0.87317 0.74559 0.0
C1140 C 0.43275 0.89407 0.70015 0.0
C1141 C 0.42494 0.88058 0.68969 0.0
C1142 C 0.42808 0.89575 0.71718 0.0
C1143 C 0.41562 0.88393 0.72403 0.0
C1144 C 0.40894 0.86964 0.71407 0.0
C1145 C 0.41368 0.86789 0.69705 0.0
C1146 C 0.40813 0.88773 0.74074 0.0
C1147 C 0.39043 0.88984 0.74115 0.0
C1148 C 0.41852 0.89116 0.75567 0.0
C1149 C 0.4371 0.88825 0.75622 0.0
C1150 C 0.4425 0.87232 0.75099 0.0
C1151 C 0.46 0.86966 0.75148 0.0
C1152 C 0.47223 0.8828 0.75727 0.0
C1153 C 0.46698 0.89862 0.76261 0.0
C1154 C 0.44949 0.90136 0.76214 0.0
C1155 C 0.3702 0.89847 0.8126 0.0
C1156 C 0.37966 0.91201 0.82175 0.0
C1157 C 0.37371 0.89516 0.79545 0.0
C1158 C 0.38652 0.9055 0.78722 0.0
C1159 C 0.39455 0.92011 0.79582 0.0
C1160 C 0.39114 0.92335 0.81295 0.0
C1161 C 0.39343 0.89976 0.7708 0.0
C1162 C 0.41105 0.8972 0.77048 0.0
C1163 C 0.38292 0.8959 0.75598 0.0
C1164 C 0.36435 0.89881 0.75527 0.0
C1165 C 0.3589 0.91488 0.75993 0.0
C1166 C 0.34143 0.91762 0.75887 0.0
C1167 C 0.32928 0.90442 0.75304 0.0
C1168 C 0.33458 0.88846 0.74825 0.0
C1169 C 0.35203 0.88564 0.74933 0.0
H1170 H 0.31577 0.90659 0.75218 0.0
H1171 H 0.48577 0.88071 0.75764 0.0
H1172 H 0.60021 0.89659 0.19276 0.0
H1173 H 0.60787 0.90121 0.22304 0.0
H1174 H 0.64978 0.86923 0.21779 0.0
H1175 H 0.64228 0.86458 0.18728 0.0
H1176 H 0.62967 0.86469 0.24887 0.0
H1177 H 0.66078 0.90855 0.21696 0.0
H1178 H 0.66377 0.93109 0.19539 0.0
H1179 H 0.6288 0.96032 0.22277 0.0
H1180 H 0.62537 0.93779 0.24436 0.0
H1181 H 0.66297 0.89446 0.33038 0.0
H1182 H 0.66268 0.88771 0.29966 0.0
H1183 H 0.62505 0.92405 0.29111 0.0
H1184 H 0.62557 0.93115 0.32165 0.0
H1185 H 0.64745 0.92527 0.26615 0.0
H1186 H 0.61323 0.88085 0.29551 0.0
H1187 H 0.60817 0.85818 0.31673 0.0
H1188 H 0.64707 0.83009 0.29412 0.0
H1189 H 0.65251 0.85274 0.2729 0.0
C1190 C 0.61088 0.89028 0.19806 0.0
C1191 C 0.62076 0.88035 0.18761 0.0
C1192 C 0.61526 0.89299 0.21534 0.0
C1193 C 0.62953 0.88577 0.22248 0.0
C1194 C 0.63878 0.87496 0.2124 0.0
C1195 C 0.63448 0.87234 0.19502 0.0
C1196 C 0.63525 0.89047 0.24021 0.0
C1197 C 0.63391 0.87785 0.25266 0.0
C1198 C 0.64049 0.90771 0.24504 0.0
C1199 C 0.64272 0.92141 0.23221 0.0
C1200 C 0.65363 0.91972 0.21831 0.0
C1201 C 0.65542 0.9325 0.20609 0.0
C1202 C 0.64646 0.94711 0.20769 0.0
C1203 C 0.63573 0.94899 0.22154 0.0
C1204 C 0.63387 0.93622 0.23379 0.0
C1205 C 0.65485 0.90121 0.32191 0.0
C1206 C 0.64415 0.9132 0.32843 0.0
C1207 C 0.65464 0.89728 0.30439 0.0
C1208 C 0.64359 0.90514 0.29318 0.0
C1209 C 0.63363 0.9178 0.29956 0.0
C1210 C 0.63392 0.92182 0.31703 0.0
C1211 C 0.6415 0.89956 0.27498 0.0
C1212 C 0.64353 0.91203 0.26239 0.0
C1213 C 0.63672 0.88221 0.27005 0.0
C1214 C 0.63342 0.86858 0.28276 0.0
C1215 C 0.62079 0.8699 0.29515 0.0
C1216 C 0.61784 0.85705 0.30716 0.0
C1217 C 0.62733 0.84273 0.30681 0.0
C1218 C 0.63976 0.84121 0.29441 0.0
C1219 C 0.64278 0.85405 0.28238 0.0
H1220 H 0.62502 0.83279 0.31612 0.0
H1221 H 0.64785 0.95699 0.1982 0.0
H1222 H 0.67356 0.12985 0.82395 0.0
H1223 H 0.672 0.13747 0.79381 0.0
H1224 H 0.62695 0.10162 0.78605 0.0
H1225 H 0.62851 0.09379 0.81602 0.0
H1226 H 0.64639 0.10369 0.75767 0.0
H1227 H 0.62312 0.14256 0.79863 0.0
H1228 H 0.62496 0.16243 0.82364 0.0
H1229 H 0.6638 0.19515 0.79922 0.0
H1230 H 0.6624 0.17529 0.7742 0.0
H1231 H 0.5945 0.13296 0.69525 0.0
H1232 H 0.60354 0.12934 0.72493 0.0
H1233 H 0.64845 0.16471 0.71816 0.0
H1234 H 0.63947 0.16847 0.68834 0.0
H1235 H 0.63388 0.16456 0.75262 0.0
H1236 H 0.65421 0.12665 0.70986 0.0
H1237 H 0.65065 0.10691 0.68473 0.0
H1238 H 0.61631 0.07234 0.71255 0.0
H1239 H 0.61938 0.09203 0.73774 0.0
C1240 C 0.66371 0.12312 0.81569 0.0
C1241 C 0.65094 0.11146 0.82242 0.0
C1242 C 0.66277 0.12759 0.7985 0.0
C1243 C 0.64908 0.12045 0.78787 0.0
C1244 C 0.63752 0.1074 0.7941 0.0
C1245 C 0.63842 0.10295 0.81125 0.0
C1246 C 0.64536 0.12789 0.77109 0.0
C1247 C 0.6437 0.117 0.75656 0.0
C1248 C 0.64207 0.14534 0.76962 0.0
C1249 C 0.64283 0.15733 0.78465 0.0
C1250 C 0.63216 0.15391 0.79867 0.0
C1251 C 0.63313 0.16519 0.81285 0.0
C1252 C 0.64456 0.18002 0.81309 0.0
C1253 C 0.65501 0.18363 0.79909 0.0
C1254 C 0.65414 0.17237 0.78491 0.0
C1255 C 0.60593 0.14052 0.70025 0.0
C1256 C 0.61647 0.15071 0.6894 0.0
C1257 C 0.61111 0.13837 0.71718 0.0
C1258 C 0.62689 0.14638 0.72347 0.0
C1259 C 0.63631 0.15831 0.7134 0.0
C1260 C 0.6311 0.1605 0.6964 0.0
C1261 C 0.63458 0.14025 0.73939 0.0
C1262 C 0.63695 0.15137 0.75369 0.0
C1263 C 0.63847 0.12298 0.74068 0.0
C1264 C 0.63691 0.1109 0.72566 0.0
C1265 C 0.6458 0.1149 0.71059 0.0
C1266 C 0.64388 0.10372 0.69633 0.0
C1267 C 0.63322 0.08841 0.69704 0.0
C1268 C 0.62453 0.08421 0.71202 0.0
C1269 C 0.62637 0.09538 0.7263 0.0
H1270 H 0.63172 0.07977 0.686 0.0
H1271 H 0.64528 0.18874 0.82408 0.0
H1272 H 0.91183 0.82883 0.62027 0.0
H1273 H 0.90435 0.79835 0.62464 0.0
H1274 H 0.88732 0.80969 0.67544 0.0
H1275 H 0.89534 0.84027 0.67135 0.0
H1276 H 0.90554 0.78384 0.67667 0.0
H1277 H 0.85817 0.79717 0.64208 0.0
H1278 H 0.84303 0.80938 0.61779 0.0
H1279 H 0.86675 0.77632 0.58276 0.0
H1280 H 0.88229 0.7641 0.60677 0.0
H1281 H 0.86499 0.69057 0.64997 0.0
H1282 H 0.86234 0.72141 0.65322 0.0
H1283 H 0.91773 0.73092 0.65636 0.0
H1284 H 0.92052 0.70027 0.65337 0.0
H1285 H 0.87304 0.74643 0.63267 0.0
H1286 H 0.93 0.76432 0.6817 0.0
H1287 H 0.94273 0.75211 0.70738 0.0
H1288 H 0.8946 0.72299 0.7166 0.0
H1289 H 0.88154 0.7351 0.69106 0.0
C1290 C 0.90642 0.82486 0.63236 0.0
C1291 C 0.90419 0.83695 0.64547 0.0
C1292 C 0.90203 0.80743 0.63479 0.0
C1293 C 0.89497 0.80175 0.65026 0.0
C1294 C 0.89269 0.81379 0.66338 0.0
C1295 C 0.89729 0.83125 0.66103 0.0
C1296 C 0.89084 0.78313 0.6529 0.0
C1297 C 0.89829 0.77569 0.66713 0.0
C1298 C 0.88089 0.77252 0.64076 0.0
C1299 C 0.87146 0.77976 0.62625 0.0
C1300 C 0.86025 0.79257 0.62919 0.0
C1301 C 0.85158 0.79949 0.61547 0.0
C1302 C 0.85393 0.79364 0.59876 0.0
C1303 C 0.86494 0.78083 0.59572 0.0
C1304 C 0.87366 0.77388 0.60938 0.0
C1305 C 0.87659 0.69922 0.65152 0.0
C1306 C 0.89296 0.69297 0.65137 0.0
C1307 C 0.87505 0.71683 0.65337 0.0
C1308 C 0.88983 0.72843 0.65522 0.0
C1309 C 0.90615 0.72218 0.65528 0.0
C1310 C 0.9077 0.70463 0.65344 0.0
C1311 C 0.88847 0.74718 0.65595 0.0
C1312 C 0.87998 0.75464 0.64237 0.0
C1313 C 0.89705 0.75782 0.66892 0.0
C1314 C 0.90482 0.75057 0.68439 0.0
C1315 C 0.92211 0.75537 0.68924 0.0
C1316 C 0.92939 0.74843 0.70375 0.0
C1317 C 0.91949 0.73673 0.71358 0.0
C1318 C 0.90228 0.73197 0.70892 0.0
C1319 C 0.89494 0.73885 0.69441 0.0
H1320 H 0.92515 0.73138 0.72481 0.0
H1321 H 0.8472 0.79902 0.58816 0.0
H1322 H 0.82948 0.35825 0.13563 0.0
H1323 H 0.79832 0.36046 0.13438 0.0
H1324 H 0.80541 0.40851 0.1628 0.0
H1325 H 0.83663 0.40663 0.1638 0.0
H1326 H 0.77463 0.38204 0.17126 0.0
H1327 H 0.80269 0.41523 0.12598 0.0
H1328 H 0.82261 0.41868 0.102 0.0
H1329 H 0.79427 0.37654 0.07475 0.0
H1330 H 0.77435 0.37267 0.09873 0.0
H1331 H 0.69141 0.40728 0.14909 0.0
H1332 H 0.72248 0.40829 0.15531 0.0
H1333 H 0.72767 0.37267 0.1132 0.0
H1334 H 0.69703 0.37222 0.10652 0.0
H1335 H 0.75314 0.3953 0.11317 0.0
H1336 H 0.72575 0.36059 0.15671 0.0
H1337 H 0.70613 0.35422 0.1805 0.0
H1338 H 0.7326 0.3954 0.21066 0.0
H1339 H 0.75226 0.40216 0.18695 0.0
C1340 C 0.82437 0.3691 0.14192 0.0
C1341 C 0.83545 0.38236 0.14966 0.0
C1342 C 0.80662 0.37035 0.14118 0.0
C1343 C 0.79971 0.38469 0.14844 0.0
C1344 C 0.81059 0.39736 0.15718 0.0
C1345 C 0.82837 0.39629 0.15764 0.0
C1346 C 0.78143 0.3873 0.14527 0.0
C1347 C 0.76987 0.38518 0.15865 0.0
C1348 C 0.77536 0.39106 0.12874 0.0
C1349 C 0.78715 0.39355 0.11421 0.0
C1350 C 0.80081 0.40661 0.11494 0.0
C1351 C 0.81208 0.40865 0.10134 0.0
C1352 C 0.80974 0.39781 0.08688 0.0
C1353 C 0.79608 0.38492 0.08597 0.0
C1354 C 0.78479 0.3828 0.09956 0.0
C1355 C 0.69926 0.39985 0.14107 0.0
C1356 C 0.6918 0.38966 0.12734 0.0
C1357 C 0.71697 0.40032 0.14471 0.0
C1358 C 0.72738 0.39032 0.1349 0.0
C1359 C 0.71995 0.38051 0.12095 0.0
C1360 C 0.70239 0.38026 0.11714 0.0
C1361 C 0.74598 0.38973 0.13911 0.0
C1362 C 0.75774 0.3923 0.12587 0.0
C1363 C 0.75212 0.38605 0.15573 0.0
C1364 C 0.74033 0.38201 0.16999 0.0
C1365 C 0.7273 0.36837 0.16837 0.0
C1366 C 0.71619 0.36467 0.18184 0.0
C1367 C 0.71808 0.37443 0.19706 0.0
C1368 C 0.73113 0.38788 0.19885 0.0
C1369 C 0.74226 0.39164 0.18541 0.0
H1370 H 0.70947 0.37155 0.20748 0.0
H1371 H 0.81848 0.39941 0.07636 0.0
H1372 H 0.10324 0.18217 0.59589 0.0
H1373 H 0.10159 0.21319 0.59465 0.0
H1374 H 0.13352 0.22045 0.64058 0.0
H1375 H 0.13478 0.18949 0.64218 0.0
H1376 H 0.10732 0.23804 0.64343 0.0
H1377 H 0.14867 0.23097 0.60013 0.0
H1378 H 0.16003 0.2187 0.57386 0.0
H1379 H 0.11861 0.23685 0.54415 0.0
H1380 H 0.10686 0.24903 0.5703 0.0
H1381 H 0.13445 0.33006 0.61587 0.0
H1382 H 0.13605 0.29925 0.61137 0.0
H1383 H 0.08324 0.2896 0.6265 0.0
H1384 H 0.0817 0.32036 0.63153 0.0
H1385 H 0.12035 0.27342 0.59261 0.0
H1386 H 0.07952 0.25493 0.65134 0.0
H1387 H 0.07153 0.26777 0.6788 0.0
H1388 H 0.11819 0.30151 0.67973 0.0
H1389 H 0.12656 0.28871 0.65241 0.0
C1390 C 0.11004 0.1904 0.60563 0.0
C1391 C 0.11908 0.18338 0.61918 0.0
C1392 C 0.10914 0.20813 0.60487 0.0
C1393 C 0.11751 0.21917 0.61748 0.0
C1394 C 0.12688 0.21218 0.63076 0.0
C1395 C 0.12762 0.19448 0.63164 0.0
C1396 C 0.11586 0.23791 0.6174 0.0
C1397 C 0.11016 0.24573 0.63229 0.0
C1398 C 0.11973 0.24803 0.60295 0.0
C1399 C 0.12679 0.24076 0.5872 0.0
C1400 C 0.1419 0.23222 0.58802 0.0
C1401 C 0.14843 0.22531 0.57314 0.0
C1402 C 0.14002 0.22695 0.55735 0.0
C1403 C 0.1251 0.23556 0.5564 0.0
C1404 C 0.1185 0.24249 0.57124 0.0
C1405 C 0.1231 0.3214 0.61802 0.0
C1406 C 0.10803 0.32759 0.62431 0.0
C1407 C 0.12402 0.30379 0.61538 0.0
C1408 C 0.10988 0.29211 0.61891 0.0
C1409 C 0.09443 0.29838 0.62403 0.0
C1410 C 0.09355 0.31595 0.62686 0.0
C1411 C 0.11175 0.27342 0.6186 0.0
C1412 C 0.11743 0.26564 0.60368 0.0
C1413 C 0.10834 0.26336 0.63318 0.0
C1414 C 0.10355 0.27099 0.64974 0.0
C1415 C 0.08809 0.26505 0.65744 0.0
C1416 C 0.0835 0.27232 0.67298 0.0
C1417 C 0.09432 0.28549 0.68097 0.0
C1418 C 0.10979 0.29136 0.67349 0.0
C1419 C 0.11446 0.28411 0.65798 0.0
H1420 H 0.09073 0.29112 0.69299 0.0
H1421 H 0.1451 0.22159 0.54585 0.0
H1422 H 0.18035 0.59264 0.1163 0.0
H1423 H 0.21084 0.58685 0.11764 0.0
H1424 H 0.22509 0.63608 0.09577 0.0
H1425 H 0.19487 0.64219 0.09485 0.0
H1426 H 0.23887 0.60287 0.08043 0.0
H1427 H 0.23204 0.63739 0.13306 0.0
H1428 H 0.21828 0.64217 0.16063 0.0
H1429 H 0.23275 0.59369 0.17811 0.0
H1430 H 0.24638 0.58853 0.1505 0.0
H1431 H 0.32397 0.63545 0.08765 0.0
H1432 H 0.29299 0.62853 0.08734 0.0
H1433 H 0.29845 0.59214 0.12743 0.0
H1434 H 0.32976 0.59957 0.12825 0.0
H1435 H 0.27351 0.61055 0.1346 0.0
H1436 H 0.28615 0.57865 0.08547 0.0
H1437 H 0.29955 0.57214 0.05813 0.0
H1438 H 0.27375 0.61173 0.03384 0.0
H1439 H 0.26039 0.61868 0.06109 0.0
C1440 C 0.19001 0.6022 0.11179 0.0
C1441 C 0.1853 0.61788 0.10551 0.0
C1442 C 0.20735 0.59888 0.11258 0.0
C1443 C 0.22006 0.61104 0.10677 0.0
C1444 C 0.21536 0.62656 0.10027 0.0
C1445 C 0.19814 0.63005 0.09984 0.0
C1446 C 0.23841 0.60791 0.10754 0.0
C1447 C 0.24653 0.60451 0.09222 0.0
C1448 C 0.24809 0.60929 0.12308 0.0
C1449 C 0.23999 0.61247 0.13966 0.0
C1450 C 0.23211 0.62767 0.14271 0.0
C1451 C 0.22438 0.63047 0.15836 0.0
C1452 C 0.22458 0.61821 0.17109 0.0
C1453 C 0.23256 0.60316 0.16822 0.0
C1454 C 0.24029 0.60029 0.15259 0.0
C1455 C 0.31866 0.62582 0.09629 0.0
C1456 C 0.32931 0.61803 0.10796 0.0
C1457 C 0.3009 0.62176 0.09601 0.0
C1458 C 0.29337 0.60953 0.1071 0.0
C1459 C 0.30399 0.60153 0.11866 0.0
C1460 C 0.32185 0.60576 0.1191 0.0
C1461 C 0.27433 0.60624 0.10727 0.0
C1462 C 0.26596 0.6084 0.12279 0.0
C1463 C 0.26437 0.60337 0.09189 0.0
C1464 C 0.2723 0.59922 0.07538 0.0
C1465 C 0.28341 0.58605 0.07433 0.0
C1466 C 0.29099 0.58227 0.05884 0.0
C1467 C 0.28751 0.59152 0.04426 0.0
C1468 C 0.27642 0.60456 0.04514 0.0
C1469 C 0.26881 0.6084 0.06061 0.0
H1470 H 0.2934 0.58858 0.03228 0.0
H1471 H 0.21859 0.6204 0.1832 0.0
H1472 H 0.91581 0.1896 0.39272 0.0
H1473 H 0.92408 0.22053 0.39538 0.0
H1474 H 0.8921 0.22366 0.43942 0.0
H1475 H 0.88378 0.19288 0.43688 0.0
H1476 H 0.88503 0.24631 0.41437 0.0
H1477 H 0.93454 0.22901 0.44487 0.0
H1478 H 0.96003 0.2129 0.449 0.0
H1479 H 0.9833 0.23679 0.40525 0.0
H1480 H 0.95784 0.25287 0.4007 0.0
H1481 H 0.9031 0.33419 0.43019 0.0
H1482 H 0.90213 0.30344 0.43543 0.0
H1483 H 0.93831 0.29761 0.39523 0.0
H1484 H 0.93986 0.32848 0.3904 0.0
H1485 H 0.94391 0.27616 0.42006 0.0
H1486 H 0.89446 0.29095 0.38748 0.0
H1487 H 0.86891 0.30652 0.38154 0.0
H1488 H 0.84542 0.28654 0.42697 0.0
H1489 H 0.87094 0.27102 0.43331 0.0
C1490 C 0.91072 0.19685 0.40309 0.0
C1491 C 0.89905 0.18885 0.4145 0.0
C1492 C 0.91553 0.21447 0.40465 0.0
C1493 C 0.90872 0.22431 0.41763 0.0
C1494 C 0.89749 0.21625 0.42933 0.0
C1495 C 0.89276 0.19867 0.42784 0.0
C1496 C 0.91203 0.24321 0.41811 0.0
C1497 C 0.89788 0.25286 0.41594 0.0
C1498 C 0.92884 0.25164 0.4196 0.0
C1499 C 0.94421 0.24203 0.42235 0.0
C1500 C 0.94503 0.23072 0.43604 0.0
C1501 C 0.95949 0.22161 0.43848 0.0
C1502 C 0.97326 0.22378 0.42737 0.0
C1503 C 0.97262 0.23511 0.41383 0.0
C1504 C 0.95819 0.24424 0.41133 0.0
C1505 C 0.91106 0.32639 0.42267 0.0
C1506 C 0.92136 0.33364 0.40973 0.0
C1507 C 0.91048 0.30883 0.42565 0.0
C1508 C 0.91982 0.29818 0.41543 0.0
C1509 C 0.93093 0.30558 0.40321 0.0
C1510 C 0.93176 0.3232 0.40043 0.0
C1511 C 0.91687 0.27927 0.41641 0.0
C1512 C 0.93106 0.26961 0.41871 0.0
C1513 C 0.90008 0.27073 0.41479 0.0
C1514 C 0.88468 0.27998 0.41096 0.0
C1515 C 0.88389 0.28997 0.39626 0.0
C1516 C 0.86941 0.29878 0.39282 0.0
C1517 C 0.85557 0.29756 0.4039 0.0
C1518 C 0.85616 0.28749 0.41842 0.0
C1519 C 0.87062 0.27868 0.42194 0.0
H1520 H 0.84437 0.30439 0.40121 0.0
H1521 H 0.98444 0.21672 0.42928 0.0
H1522 H 0.19637 0.42959 0.88336 0.0
H1523 H 0.22677 0.42446 0.88307 0.0
H1524 H 0.21733 0.3826 0.91759 0.0
H1525 H 0.18663 0.38742 0.91776 0.0
H1526 H 0.24941 0.40777 0.92393 0.0
H1527 H 0.21952 0.36978 0.88131 0.0
H1528 H 0.19922 0.36302 0.85691 0.0
H1529 H 0.22901 0.39886 0.82608 0.0
H1530 H 0.24934 0.40604 0.8504 0.0
H1531 H 0.33209 0.38115 0.90973 0.0
H1532 H 0.30092 0.37981 0.91323 0.0
H1533 H 0.29594 0.4088 0.86724 0.0
H1534 H 0.32697 0.40919 0.86316 0.0
H1535 H 0.26997 0.38675 0.86835 0.0
H1536 H 0.29783 0.42732 0.91004 0.0
H1537 H 0.31812 0.43632 0.93394 0.0
H1538 H 0.29251 0.39858 0.96592 0.0
H1539 H 0.27216 0.38923 0.94214 0.0
C1540 C 0.20075 0.41945 0.89113 0.0
C1541 C 0.18909 0.40883 0.90051 0.0
C1542 C 0.21811 0.41653 0.8909 0.0
C1543 C 0.22415 0.40307 0.90017 0.0
C1544 C 0.21281 0.39302 0.91034 0.0
C1545 C 0.19532 0.39579 0.9104 0.0
C1546 C 0.24214 0.39902 0.89828 0.0
C1547 C 0.25392 0.40287 0.91192 0.0
C1548 C 0.24794 0.39302 0.88245 0.0
C1549 C 0.23587 0.38855 0.86773 0.0
C1550 C 0.22166 0.37632 0.86937 0.0
C1551 C 0.21016 0.3724 0.85555 0.0
C1552 C 0.2128 0.38053 0.83996 0.0
C1553 C 0.22698 0.39257 0.83816 0.0
C1554 C 0.2385 0.39656 0.85195 0.0
C1555 C 0.32427 0.38704 0.90027 0.0
C1556 C 0.33188 0.3954 0.88625 0.0
C1557 C 0.30648 0.38637 0.90233 0.0
C1558 C 0.2961 0.39463 0.89077 0.0
C1559 C 0.30366 0.4024 0.87638 0.0
C1560 C 0.32139 0.40264 0.87406 0.0
C1561 C 0.27752 0.39581 0.89392 0.0
C1562 C 0.26555 0.39144 0.88049 0.0
C1563 C 0.27161 0.40162 0.90987 0.0
C1564 C 0.28359 0.40747 0.92427 0.0
C1565 C 0.29657 0.4209 0.92216 0.0
C1566 C 0.30808 0.42606 0.93568 0.0
C1567 C 0.30664 0.41799 0.95142 0.0
C1568 C 0.29362 0.4048 0.95371 0.0
C1569 C 0.28209 0.39958 0.94022 0.0
H1570 H 0.31558 0.42197 0.96186 0.0
H1571 H 0.20388 0.37748 0.82928 0.0
H1572 H 0.12542 0.84175 0.37177 0.0
H1573 H 0.12049 0.81088 0.36634 0.0
H1574 H 0.11711 0.8027 0.42068 0.0
H1575 H 0.1231 0.8336 0.42617 0.0
H1576 H 0.13542 0.78095 0.40889 0.0
H1577 H 0.08078 0.79721 0.39155 0.0
H1578 H 0.05974 0.81374 0.37663 0.0
H1579 H 0.07749 0.79691 0.32805 0.0
H1580 H 0.09882 0.78045 0.34267 0.0
H1581 H 0.08857 0.69638 0.36674 0.0
H1582 H 0.08819 0.72628 0.37617 0.0
H1583 H 0.14374 0.73293 0.3744 0.0
H1584 H 0.14418 0.70271 0.36593 0.0
H1585 H 0.09598 0.75459 0.36297 0.0
H1586 H 0.16096 0.76259 0.40231 0.0
H1587 H 0.1785 0.74513 0.42051 0.0
H1588 H 0.13347 0.71174 0.43132 0.0
H1589 H 0.11561 0.72913 0.4134 0.0
C1590 C 0.1234 0.83337 0.38254 0.0
C1591 C 0.12462 0.84002 0.39938 0.0
C1592 C 0.12049 0.81571 0.37943 0.0
C1593 C 0.11816 0.8044 0.39308 0.0
C1594 C 0.11889 0.81113 0.40993 0.0
C1595 C 0.12224 0.82877 0.41306 0.0
C1596 C 0.11604 0.78554 0.38979 0.0
C1597 C 0.12669 0.77519 0.39893 0.0
C1598 C 0.10434 0.77786 0.37711 0.0
C1599 C 0.09149 0.78769 0.36822 0.0
C1600 C 0.08028 0.79712 0.37768 0.0
C1601 C 0.06829 0.80647 0.36928 0.0
C1602 C 0.0673 0.8064 0.3514 0.0
C1603 C 0.07828 0.79695 0.3419 0.0
C1604 C 0.09031 0.78759 0.35024 0.0
C1605 C 0.1007 0.70422 0.36842 0.0
C1606 C 0.11642 0.69725 0.36569 0.0
C1607 C 0.10047 0.72132 0.37379 0.0
C1608 C 0.11594 0.73185 0.37626 0.0
C1609 C 0.13165 0.72497 0.37307 0.0
C1610 C 0.1319 0.70774 0.3681 0.0
C1611 C 0.11561 0.75009 0.38183 0.0
C1612 C 0.10455 0.76033 0.37307 0.0
C1613 C 0.12635 0.75751 0.39539 0.0
C1614 C 0.13698 0.74709 0.40637 0.0
C1615 C 0.15478 0.75157 0.40864 0.0
C1616 C 0.16479 0.74168 0.41889 0.0
C1617 C 0.15711 0.72731 0.42703 0.0
C1618 C 0.13941 0.72284 0.42497 0.0
C1619 C 0.12934 0.7327 0.41475 0.0
H1620 H 0.16488 0.71965 0.43494 0.0
H1621 H 0.05801 0.81365 0.34492 0.0
H1622 H 0.8437 0.6704 0.89898 0.0
H1623 H 0.81249 0.67191 0.89564 0.0
H1624 H 0.8081 0.62426 0.86647 0.0
H1625 H 0.83917 0.62239 0.87013 0.0
H1626 H 0.7876 0.65433 0.85419 0.0
H1627 H 0.80001 0.61808 0.90293 0.0
H1628 H 0.81528 0.61341 0.93021 0.0
H1629 H 0.79464 0.65745 0.95274 0.0
H1630 H 0.77946 0.66251 0.92547 0.0
H1631 H 0.70127 0.61911 0.85684 0.0
H1632 H 0.73247 0.62581 0.85647 0.0
H1633 H 0.73035 0.6573 0.90231 0.0
H1634 H 0.69928 0.64974 0.90324 0.0
H1635 H 0.75489 0.63932 0.9063 0.0
H1636 H 0.73899 0.67408 0.86064 0.0
H1637 H 0.72448 0.68157 0.83381 0.0
H1638 H 0.75169 0.64514 0.80588 0.0
H1639 H 0.76619 0.63725 0.83259 0.0
C1640 C 0.83611 0.66039 0.89164 0.0
C1641 C 0.84377 0.6462 0.88493 0.0
C1642 C 0.81835 0.66129 0.88973 0.0
C1643 C 0.80813 0.6482 0.8808 0.0
C1644 C 0.81587 0.6345 0.87332 0.0
C1645 C 0.83355 0.6334 0.87553 0.0
C1646 C 0.7892 0.64781 0.88073 0.0
C1647 C 0.78033 0.65098 0.86549 0.0
C1648 C 0.77994 0.64404 0.89568 0.0
C1649 C 0.78878 0.64078 0.91213 0.0
C1650 C 0.79885 0.62684 0.91366 0.0
C1651 C 0.80746 0.62411 0.92913 0.0
C1652 C 0.80598 0.63516 0.94319 0.0
C1653 C 0.79581 0.64892 0.94183 0.0
C1654 C 0.78719 0.65172 0.92638 0.0
C1655 C 0.70748 0.62757 0.86674 0.0
C1656 C 0.69792 0.63386 0.8801 0.0
C1657 C 0.7253 0.63152 0.86646 0.0
C1658 C 0.73381 0.6423 0.87922 0.0
C1659 C 0.72413 0.64893 0.89233 0.0
C1660 C 0.70638 0.64463 0.89286 0.0
C1661 C 0.75289 0.64563 0.87959 0.0
C1662 C 0.76192 0.64296 0.89494 0.0
C1663 C 0.76225 0.65028 0.86479 0.0
C1664 C 0.75358 0.65498 0.84866 0.0
C1665 C 0.74179 0.66757 0.8488 0.0
C1666 C 0.73358 0.6719 0.83361 0.0
C1667 C 0.73713 0.66381 0.81816 0.0
C1668 C 0.74894 0.65139 0.81786 0.0
C1669 C 0.75717 0.647 0.83302 0.0
H1670 H 0.73077 0.66718 0.80641 0.0
H1671 H 0.81267 0.63304 0.95514 0.0
H1672 H 0.69101 0.86899 0.83341 0.0
H1673 H 0.70132 0.86338 0.80464 0.0
H1674 H 0.65072 0.84062 0.78916 0.0
H1675 H 0.64028 0.84621 0.81775 0.0
H1676 H 0.67859 0.82364 0.77484 0.0
H1677 H 0.65903 0.88103 0.78278 0.0
H1678 H 0.65987 0.90938 0.79736 0.0
H1679 H 0.71355 0.91912 0.78639 0.0
H1680 H 0.71306 0.8907 0.77193 0.0
H1681 H 0.65822 0.84028 0.689 0.0
H1682 H 0.66306 0.83373 0.71905 0.0
H1683 H 0.70947 0.86848 0.72064 0.0
H1684 H 0.70388 0.87586 0.69092 0.0
H1685 H 0.69067 0.87772 0.74358 0.0
H1686 H 0.70852 0.82319 0.72921 0.0
H1687 H 0.70801 0.7949 0.71463 0.0
H1688 H 0.65962 0.77912 0.7372 0.0
H1689 H 0.65968 0.8074 0.75173 0.0
C1690 C 0.68216 0.86253 0.82396 0.0
C1691 C 0.66476 0.85829 0.82774 0.0
C1692 C 0.68809 0.85928 0.80758 0.0
C1693 C 0.67674 0.85165 0.79483 0.0
C1694 C 0.65967 0.84645 0.79888 0.0
C1695 C 0.6537 0.84983 0.81517 0.0
C1696 C 0.68179 0.85121 0.77675 0.0
C1697 C 0.68132 0.83539 0.76789 0.0
C1698 C 0.68582 0.86657 0.76794 0.0
C1699 C 0.68606 0.88369 0.77649 0.0
C1700 C 0.67104 0.88917 0.7836 0.0
C1701 C 0.67144 0.90525 0.79182 0.0
C1702 C 0.68677 0.91602 0.79286 0.0
C1703 C 0.7017 0.91075 0.78562 0.0
C1704 C 0.70137 0.89466 0.77741 0.0
C1705 C 0.66975 0.84603 0.69565 0.0
C1706 C 0.68063 0.85863 0.68784 0.0
C1707 C 0.6726 0.84222 0.71282 0.0
C1708 C 0.68667 0.85061 0.72222 0.0
C1709 C 0.69846 0.86194 0.71376 0.0
C1710 C 0.69532 0.86611 0.69678 0.0
C1711 C 0.68726 0.85004 0.74122 0.0
C1712 C 0.6886 0.86579 0.75036 0.0
C1713 C 0.68421 0.83457 0.75021 0.0
C1714 C 0.68408 0.81749 0.74152 0.0
C1715 C 0.6977 0.81374 0.73098 0.0
C1716 C 0.6975 0.79769 0.72273 0.0
C1717 C 0.68378 0.78523 0.72497 0.0
C1718 C 0.67024 0.78878 0.73549 0.0
C1719 C 0.67037 0.80482 0.74376 0.0
H1720 H 0.68365 0.77281 0.71857 0.0
H1721 H 0.68706 0.92847 0.79923 0.0
H1722 H 0.63185 0.11489 0.19349 0.0
H1723 H 0.62954 0.10837 0.22374 0.0
H1724 H 0.57425 0.09905 0.21726 0.0
H1725 H 0.57651 0.10683 0.18718 0.0
H1726 H 0.57951 0.11607 0.24396 0.0
H1727 H 0.603 0.06572 0.22472 0.0
H1728 H 0.62257 0.04775 0.20969 0.0
H1729 H 0.66527 0.07019 0.24076 0.0
H1730 H 0.64605 0.08848 0.2558 0.0
H1731 H 0.61061 0.0763 0.331 0.0
H1732 H 0.60339 0.0733 0.30038 0.0
H1733 H 0.60328 0.12837 0.29746 0.0
H1734 H 0.60946 0.13125 0.32814 0.0
H1735 H 0.6205 0.08226 0.27518 0.0
H1736 H 0.58012 0.14114 0.26548 0.0
H1737 H 0.55775 0.15547 0.28055 0.0
H1738 H 0.54312 0.10908 0.30702 0.0
H1739 H 0.56522 0.09439 0.29193 0.0
C1740 C 0.61923 0.11126 0.19851 0.0
C1741 C 0.60436 0.11135 0.18807 0.0
C1742 C 0.61791 0.10738 0.21579 0.0
C1743 C 0.60173 0.10287 0.22283 0.0
C1744 C 0.58688 0.1025 0.21221 0.0
C1745 C 0.58817 0.10689 0.19502 0.0
C1746 C 0.60029 0.09982 0.24149 0.0
C1747 C 0.58836 0.10851 0.25074 0.0
C1748 C 0.61141 0.0895 0.2504 0.0
C1749 C 0.62306 0.07853 0.24135 0.0
C1750 C 0.61658 0.0669 0.22828 0.0
C1751 C 0.62761 0.05665 0.21976 0.0
C1752 C 0.64514 0.05784 0.22428 0.0
C1753 C 0.65168 0.06928 0.2373 0.0
C1754 C 0.64072 0.07957 0.24584 0.0
C1755 C 0.6087 0.0877 0.32384 0.0
C1756 C 0.61054 0.104 0.33191 0.0
C1757 C 0.60463 0.086 0.30634 0.0
C1758 C 0.6026 0.10058 0.29656 0.0
C1759 C 0.60426 0.11685 0.30473 0.0
C1760 C 0.60792 0.11851 0.32228 0.0
C1761 C 0.60017 0.09903 0.27764 0.0
C1762 C 0.61139 0.0895 0.26835 0.0
C1763 C 0.58791 0.10797 0.26866 0.0
C1764 C 0.57442 0.11669 0.27763 0.0
C1765 C 0.57206 0.13396 0.27443 0.0
C1766 C 0.55944 0.14216 0.283 0.0
C1767 C 0.54904 0.1332 0.29476 0.0
C1768 C 0.55121 0.11602 0.29794 0.0
C1769 C 0.5638 0.10775 0.2894 0.0
H1770 H 0.53929 0.13958 0.30139 0.0
H1771 H 0.65366 0.04987 0.21773 0.0
H1772 H 0.34711 0.12157 0.68506 0.0
H1773 H 0.34157 0.12597 0.71531 0.0
H1774 H 0.36585 0.17767 0.71348 0.0
H1775 H 0.37118 0.17347 0.68301 0.0
H1776 H 0.36658 0.1309 0.73825 0.0
H1777 H 0.35093 0.20205 0.74567 0.0
H1778 H 0.33453 0.22264 0.73011 0.0
H1779 H 0.30204 0.18097 0.70665 0.0
H1780 H 0.31814 0.16015 0.72212 0.0
H1781 H 0.39596 0.16529 0.81624 0.0
H1782 H 0.38802 0.16569 0.78595 0.0
H1783 H 0.33447 0.15462 0.79778 0.0
H1784 H 0.34228 0.15413 0.82836 0.0
H1785 H 0.34275 0.17931 0.76893 0.0
H1786 H 0.35047 0.12231 0.7882 0.0
H1787 H 0.36565 0.10096 0.80394 0.0
H1788 H 0.41035 0.11201 0.77362 0.0
H1789 H 0.39551 0.13365 0.75788 0.0
C1790 C 0.35105 0.13398 0.69101 0.0
C1791 C 0.35984 0.14709 0.68174 0.0
C1792 C 0.3478 0.13648 0.70828 0.0
C1793 C 0.35331 0.15212 0.71664 0.0
C1794 C 0.36129 0.16557 0.70722 0.0
C1795 C 0.36444 0.16311 0.68985 0.0
C1796 C 0.35287 0.15348 0.73552 0.0
C1797 C 0.36116 0.14139 0.7449 0.0
C1798 C 0.34569 0.16707 0.74424 0.0
C1799 C 0.33585 0.17954 0.73497 0.0
C1800 C 0.34025 0.19728 0.73723 0.0
C1801 C 0.33103 0.209 0.7284 0.0
C1802 C 0.3173 0.20312 0.71733 0.0
C1803 C 0.31274 0.18551 0.71512 0.0
C1804 C 0.32194 0.17375 0.72389 0.0
C1805 C 0.38245 0.16322 0.81251 0.0
C1806 C 0.36977 0.15937 0.82469 0.0
C1807 C 0.37794 0.16356 0.79519 0.0
C1808 C 0.36071 0.16007 0.78972 0.0
C1809 C 0.34784 0.1574 0.80185 0.0
C1810 C 0.35235 0.157 0.81926 0.0
C1811 C 0.35673 0.15694 0.77134 0.0
C1812 C 0.34781 0.1687 0.76214 0.0
C1813 C 0.36303 0.14286 0.76269 0.0
C1814 C 0.37193 0.12969 0.77196 0.0
C1815 C 0.36358 0.12028 0.78498 0.0
C1816 C 0.37212 0.10811 0.79389 0.0
C1817 C 0.38897 0.10515 0.78981 0.0
C1818 C 0.3973 0.11433 0.77678 0.0
C1819 C 0.38883 0.12653 0.76785 0.0
H1820 H 0.39556 0.09573 0.79672 0.0
H1821 H 0.31017 0.2122 0.71051 0.0
H1822 H 0.39929 0.91979 0.18399 0.0
H1823 H 0.40158 0.92657 0.21469 0.0
H1824 H 0.4451 0.89648 0.21938 0.0
H1825 H 0.44294 0.88964 0.18869 0.0
H1826 H 0.41951 0.88725 0.24185 0.0
H1827 H 0.45148 0.9388 0.22471 0.0
H1828 H 0.45709 0.96509 0.20813 0.0
H1829 H 0.41232 0.98524 0.22883 0.0
H1830 H 0.4063 0.95896 0.24536 0.0
H1831 H 0.42746 0.90458 0.33087 0.0
H1832 H 0.43521 0.90339 0.30073 0.0
H1833 H 0.39618 0.93723 0.2883 0.0
H1834 H 0.38879 0.93892 0.3184 0.0
H1835 H 0.42347 0.94498 0.26995 0.0
H1836 H 0.38894 0.89288 0.28333 0.0
H1837 H 0.38152 0.86639 0.29915 0.0
H1838 H 0.42909 0.84715 0.28461 0.0
H1839 H 0.43688 0.87365 0.26888 0.0
C1840 C 0.40951 0.91482 0.19151 0.0
C1841 C 0.42086 0.90408 0.18396 0.0
C1842 C 0.41085 0.91878 0.20902 0.0
C1843 C 0.42355 0.91206 0.21926 0.0
C1844 C 0.43523 0.90179 0.21167 0.0
C1845 C 0.43398 0.89792 0.19414 0.0
C1846 C 0.4236 0.91449 0.23808 0.0
C1847 C 0.42076 0.89986 0.24805 0.0
C1848 C 0.42475 0.93097 0.24605 0.0
C1849 C 0.42837 0.94684 0.23618 0.0
C1850 C 0.44275 0.94878 0.22563 0.0
C1851 C 0.44602 0.96369 0.21626 0.0
C1852 C 0.43505 0.97681 0.2174 0.0
C1853 C 0.4208 0.97506 0.22795 0.0
C1854 C 0.41747 0.96017 0.23734 0.0
C1855 C 0.42066 0.91189 0.32172 0.0
C1856 C 0.4074 0.9217 0.32695 0.0
C1857 C 0.42507 0.91117 0.30451 0.0
C1858 C 0.41606 0.91999 0.29222 0.0
C1859 C 0.40329 0.93031 0.29755 0.0
C1860 C 0.39903 0.9312 0.31476 0.0
C1861 C 0.41916 0.91773 0.27369 0.0
C1862 C 0.42252 0.93237 0.26378 0.0
C1863 C 0.41825 0.90126 0.26569 0.0
C1864 C 0.41358 0.88532 0.27511 0.0
C1865 C 0.39787 0.88305 0.28362 0.0
C1866 C 0.39359 0.86804 0.29255 0.0
C1867 C 0.40486 0.85512 0.29293 0.0
C1868 C 0.4204 0.85718 0.28434 0.0
C1869 C 0.42475 0.87219 0.27541 0.0
H1870 H 0.40152 0.8435 0.29985 0.0
H1871 H 0.4376 0.98835 0.21014 0.0
H1872 H 0.14938 0.10122 0.57841 0.0
H1873 H 0.15922 0.09036 0.55103 0.0
H1874 H 0.10802 0.0916 0.52916 0.0
H1875 H 0.09815 0.10256 0.55632 0.0
H1876 H 0.12666 0.06342 0.51647 0.0
H1877 H 0.13361 0.12674 0.52709 0.0
H1878 H 0.14563 0.15201 0.54433 0.0
H1879 H 0.19666 0.13636 0.53875 0.0
H1880 H 0.18487 0.1109 0.52162 0.0
H1881 H 0.11298 0.09509 0.43632 0.0
H1882 H 0.1168 0.08402 0.46492 0.0
H1883 H 0.17143 0.0994 0.4636 0.0
H1884 H 0.16721 0.11162 0.43532 0.0
H1885 H 0.16078 0.11201 0.48992 0.0
H1886 H 0.15357 0.05519 0.46905 0.0
H1887 H 0.1415 0.03036 0.45133 0.0
H1888 H 0.09287 0.03167 0.47575 0.0
H1889 H 0.1045 0.05672 0.4934 0.0
C1890 C 0.14014 0.09877 0.56788 0.0
C1891 C 0.12307 0.10301 0.56935 0.0
C1892 C 0.14576 0.09248 0.55231 0.0
C1893 C 0.13434 0.09025 0.53812 0.0
C1894 C 0.11699 0.09314 0.54002 0.0
C1895 C 0.11141 0.09959 0.55547 0.0
C1896 C 0.14076 0.08812 0.52067 0.0
C1897 C 0.13429 0.07386 0.51055 0.0
C1898 C 0.15129 0.10146 0.51325 0.0
C1899 C 0.15837 0.11688 0.52326 0.0
C1900 C 0.14738 0.12867 0.52962 0.0
C1901 C 0.15415 0.14302 0.53936 0.0
C1902 C 0.1719 0.14577 0.54267 0.0
C1903 C 0.18292 0.1342 0.5362 0.0
C1904 C 0.1762 0.11982 0.52648 0.0
C1905 C 0.12586 0.09556 0.44198 0.0
C1906 C 0.13982 0.10407 0.43381 0.0
C1907 C 0.12811 0.08908 0.45828 0.0
C1908 C 0.14449 0.09062 0.46647 0.0
C1909 C 0.15869 0.09801 0.4576 0.0
C1910 C 0.15632 0.10492 0.44147 0.0
C1911 C 0.14597 0.08757 0.48514 0.0
C1912 C 0.15388 0.10098 0.49563 0.0
C1913 C 0.13698 0.07327 0.49284 0.0
C1914 C 0.12994 0.05791 0.48255 0.0
C1915 C 0.14028 0.05025 0.4706 0.0
C1916 C 0.13349 0.03615 0.46053 0.0
C1917 C 0.11641 0.02949 0.46236 0.0
C1918 C 0.1061 0.03686 0.47434 0.0
C1919 C 0.1128 0.05099 0.48441 0.0
H1920 H 0.11118 0.01858 0.45455 0.0
H1921 H 0.17711 0.15687 0.55022 0.0
H1922 H 0.3941 0.65808 0.95991 0.0
H1923 H 0.40911 0.65241 0.98648 0.0
H1924 H 0.44286 0.62142 0.95898 0.0
H1925 H 0.42764 0.62698 0.93204 0.0
H1926 H 0.43075 0.60533 0.98656 0.0
H1927 H 0.46059 0.65835 0.97773 0.0
H1928 H 0.46576 0.68851 0.96926 0.0
H1929 H 0.43372 0.70409 1.0096 0.0
H1930 H 0.42811 0.67403 0.01816 0.0
H1931 H 0.4428 0.63657 0.08455 0.0
H1932 H 0.45525 0.6355 0.05604 0.0
H1933 H 0.408 0.60839 0.03617 0.0
H1934 H 0.39584 0.60905 0.06433 0.0
H1935 H 0.44449 0.65156 0.03047 0.0
H1936 H 0.41089 0.58586 1.00219 0.0
H1937 H 0.40791 0.55557 0.01049 0.0
H1938 H 0.4524 0.56458 0.04401 0.0
H1939 H 0.45586 0.59488 0.03572 0.0
C1940 C 0.40479 0.65015 0.95942 0.0
C1941 C 0.40966 0.64295 0.94388 0.0
C1942 C 0.4135 0.64706 0.97463 0.0
C1943 C 0.42735 0.63677 0.97468 0.0
C1944 C 0.43234 0.62956 0.95918 0.0
C1945 C 0.42362 0.63273 0.94384 0.0
C1946 C 0.43526 0.63258 0.99131 0.0
C1947 C 0.43409 0.61536 0.99616 0.0
C1948 C 0.44062 0.64564 1.00358 0.0
C1949 C 0.44396 0.66387 0.99862 0.0
C1950 C 0.45458 0.66819 0.98476 0.0
C1951 C 0.45759 0.68528 0.97994 0.0
C1952 C 0.45009 0.69821 0.98889 0.0
C1953 C 0.43956 0.69407 1.0027 0.0
C1954 C 0.4365 0.677 1.00758 0.0
C1955 C 0.43532 0.62994 0.07417 0.0
C1956 C 0.41825 0.62311 0.07662 0.0
C1957 C 0.44244 0.62933 0.0579 0.0
C1958 C 0.43266 0.62173 0.04393 0.0
C1959 C 0.41604 0.61396 0.04672 0.0
C1960 C 0.40896 0.61457 0.06286 0.0
C1961 C 0.43809 0.62442 0.02604 0.0
C1962 C 0.44188 0.64139 0.02087 0.0
C1963 C 0.4356 0.61107 0.01346 0.0
C1964 C 0.43366 0.59272 0.01828 0.0
C1965 C 0.42017 0.58138 0.01118 0.0
C1966 C 0.41836 0.5642 0.01594 0.0
C1967 C 0.42996 0.55815 0.02776 0.0
C1968 C 0.44341 0.56928 0.03486 0.0
C1969 C 0.44529 0.58648 0.03016 0.0
H1970 H 0.42852 0.54485 0.03144 0.0
H1971 H 0.45243 0.71143 0.98513 0.0
H1972 H 0.89668 0.94139 0.43577 0.0
H1973 H 0.89706 0.94793 0.46667 0.0
H1974 H 0.88102 0.89481 0.47621 0.0
H1975 H 0.88051 0.88827 0.44569 0.0
H1976 H 0.86608 0.91617 0.49813 0.0
H1977 H 0.92353 0.9088 0.47521 0.0
H1978 H 0.94779 0.9174 0.4566 0.0
H1979 H 0.95262 0.96788 0.4799 0.0
H1980 H 0.92822 0.95959 0.4985 0.0
H1981 H 0.92863 0.88674 0.56352 0.0
H1982 H 0.92199 0.89775 0.53542 0.0
H1983 H 0.88763 0.93148 0.55822 0.0
H1984 H 0.8941 0.92037 0.5865 0.0
H1985 H 0.92557 0.92961 0.52171 0.0
H1986 H 0.85335 0.93231 0.52885 0.0
H1987 H 0.82959 0.92058 0.54675 0.0
H1988 H 0.85528 0.87494 0.55438 0.0
H1989 H 0.87906 0.88633 0.53637 0.0
C1990 C 0.89292 0.93122 0.44448 0.0
C1991 C 0.88885 0.91427 0.43837 0.0
C1992 C 0.89312 0.93498 0.46208 0.0
C1993 C 0.88916 0.92182 0.47368 0.0
C1994 C 0.88404 0.90517 0.46747 0.0
C1995 C 0.88394 0.90141 0.45001 0.0
C1996 C 0.89237 0.92444 0.4923 0.0
C1997 C 0.87899 0.91955 0.50337 0.0
C1998 C 0.90922 0.92877 0.49909 0.0
C1999 C 0.92396 0.93366 0.48806 0.0
C2000 C 0.92972 0.92176 0.47628 0.0
C2001 C 0.94349 0.92657 0.46575 0.0
C2002 C 0.95171 0.9432 0.46703 0.0
C2003 C 0.94621 0.95502 0.47889 0.0
C2004 C 0.93241 0.95028 0.48942 0.0
C2005 C 0.91972 0.89655 0.5626 0.0
C2006 C 0.91178 0.90258 0.57718 0.0
C2007 C 0.91605 0.90293 0.54655 0.0
C2008 C 0.90434 0.91542 0.54478 0.0
C2009 C 0.89667 0.9218 0.55935 0.0
C2010 C 0.90035 0.91541 0.57546 0.0
C2011 C 0.89942 0.92064 0.52742 0.0
C2012 C 0.91249 0.92704 0.51662 0.0
C2013 C 0.88235 0.91738 0.52084 0.0
C2014 C 0.86805 0.91028 0.53148 0.0
C2015 C 0.85389 0.91977 0.53434 0.0
C2016 C 0.84043 0.91318 0.54449 0.0
C2017 C 0.84097 0.89706 0.55176 0.0
C2018 C 0.85492 0.88745 0.54881 0.0
C2019 C 0.86839 0.89397 0.53864 0.0
H2020 H 0.83055 0.89199 0.55963 0.0
H2021 H 0.96237 0.94693 0.45887 0.0
H2022 H 0.60032 0.39553 0.93508 0.0
H2023 H 0.58628 0.40061 0.96236 0.0
H2024 H 0.62367 0.37243 0.98858 0.0
H2025 H 0.6375 0.36724 0.96174 0.0
H2026 H 0.59153 0.36342 0.9993 0.0
H2027 H 0.62816 0.41646 0.98719 0.0
H2028 H 0.63585 0.44198 0.96998 0.0
H2029 H 0.58503 0.45807 0.97586 0.0
H2030 H 0.57701 0.43252 0.99297 0.0
H2031 H 0.63015 0.40961 0.07444 0.0
H2032 H 0.6206 0.41152 0.04484 0.0
H2033 H 0.57146 0.38491 0.05644 0.0
H2034 H 0.58119 0.38257 0.08632 0.0
H2035 H 0.59606 0.42242 0.02453 0.0
H2036 H 0.56196 0.35569 0.0243 0.0
H2037 H 0.55882 0.32985 0.042 0.0
H2038 H 0.61078 0.34079 0.06138 0.0
H2039 H 0.61423 0.36657 0.04367 0.0
C2040 C 0.60545 0.39039 0.94669 0.0
C2041 C 0.62004 0.38103 0.94628 0.0
C2042 C 0.59741 0.39327 0.96221 0.0
C2043 C 0.60388 0.38681 0.97746 0.0
C2044 C 0.61832 0.37736 0.97695 0.0
C2045 C 0.62631 0.37452 0.96157 0.0
C2046 C 0.59658 0.39036 0.99433 0.0
C2047 C 0.59201 0.37636 1.00471 0.0
C2048 C 0.59709 0.40721 1.00136 0.0
C2049 C 0.60193 0.42252 0.99113 0.0
C2050 C 0.6186 0.42539 0.9847 0.0
C2051 C 0.62302 0.43986 0.97499 0.0
C2052 C 0.61091 0.45161 0.97177 0.0
C2053 C 0.59438 0.44893 0.97831 0.0
C2054 C 0.58989 0.43447 0.98802 0.0
C2055 C 0.61718 0.40443 0.07083 0.0
C2056 C 0.6066 0.39551 0.08261 0.0
C2057 C 0.61164 0.40573 0.05389 0.0
C2058 C 0.59541 0.39812 0.04835 0.0
C2059 C 0.58412 0.3907 0.06043 0.0
C2060 C 0.5897 0.38935 0.07748 0.0
C2061 C 0.59211 0.3954 0.02969 0.0
C2062 C 0.59455 0.40954 0.01894 0.0
C2063 C 0.59011 0.37863 0.02234 0.0
C2064 C 0.58825 0.36311 0.03287 0.0
C2065 C 0.57269 0.35253 0.03234 0.0
C2066 C 0.57087 0.33791 0.04236 0.0
C2067 C 0.58457 0.33372 0.05286 0.0
C2068 C 0.60016 0.34408 0.05329 0.0
C2069 C 0.60206 0.35868 0.04327 0.0
H2070 H 0.58312 0.32241 0.06063 0.0
H2071 H 0.61436 0.4628 0.96425 0.0
H2072 H 0.12932 0.92475 0.58754 0.0
H2073 H 0.12011 0.93793 0.56094 0.0
H2074 H 0.16623 0.92426 0.5367 0.0
H2075 H 0.17514 0.91058 0.56288 0.0
H2076 H 0.15157 0.96004 0.52861 0.0
H2077 H 0.13796 0.89528 0.53045 0.0
H2078 H 0.12396 0.87077 0.54587 0.0
H2079 H 0.07675 0.89513 0.54663 0.0
H2080 H 0.09057 0.91983 0.53134 0.0
H2081 H 0.15756 0.93663 0.44365 0.0
H2082 H 0.15643 0.94467 0.47379 0.0
H2083 H 0.10149 0.93036 0.47268 0.0
H2084 H 0.10313 0.92071 0.44279 0.0
H2085 H 0.11235 0.91621 0.49695 0.0
H2086 H 0.12237 0.97358 0.48294 0.0
H2087 H 0.13445 0.99949 0.46868 0.0
H2088 H 0.18392 0.99462 0.49248 0.0
H2089 H 0.17233 0.96825 0.50645 0.0
C2090 C 0.13765 0.92497 0.57663 0.0
C2091 C 0.15283 0.91654 0.5771 0.0
C2092 C 0.13244 0.93256 0.56154 0.0
C2093 C 0.1426 0.93216 0.54699 0.0
C2094 C 0.15836 0.92487 0.5479 0.0
C2095 C 0.16334 0.91692 0.56277 0.0
C2096 C 0.13569 0.93624 0.52999 0.0
C2097 C 0.14287 0.95068 0.52154 0.0
C2098 C 0.12369 0.92442 0.52124 0.0
C2099 C 0.11528 0.90936 0.52987 0.0
C2100 C 0.1246 0.89537 0.53394 0.0
C2101 C 0.11671 0.88148 0.54265 0.0
C2102 C 0.09948 0.8814 0.54725 0.0
C2103 C 0.09009 0.8952 0.54307 0.0
C2104 C 0.09794 0.90914 0.53437 0.0
C2105 C 0.14518 0.93572 0.44976 0.0
C2106 C 0.13044 0.92811 0.44105 0.0
C2107 C 0.14446 0.94047 0.46701 0.0
C2108 C 0.12881 0.93834 0.4757 0.0
C2109 C 0.11376 0.93205 0.46643 0.0
C2110 C 0.11464 0.92665 0.44934 0.0
C2111 C 0.12886 0.93984 0.49476 0.0
C2112 C 0.12046 0.92626 0.50375 0.0
C2113 C 0.13926 0.9529 0.50405 0.0
C2114 C 0.14643 0.96885 0.49577 0.0
C2115 C 0.13586 0.97793 0.48508 0.0
C2116 C 0.14263 0.99274 0.47704 0.0
C2117 C 0.15992 0.99878 0.47974 0.0
C2118 C 0.17051 0.98996 0.49044 0.0
C2119 C 0.16384 0.97506 0.49842 0.0
H2120 H 0.16511 1.01028 0.47352 0.0
H2121 H 0.0934 0.87066 0.55403 0.0
H2122 H 0.63937 0.60473 0.95561 0.0
H2123 H 0.62394 0.60734 0.98208 0.0
H2124 H 0.59357 0.64476 0.95933 0.0
H2125 H 0.60901 0.64212 0.93246 0.0
H2126 H 0.6082 0.6543 0.99237 0.0
H2127 H 0.57207 0.60884 0.9671 0.0
H2128 H 0.56459 0.58203 0.95036 0.0
H2129 H 0.59123 0.55386 0.98756 0.0
H2130 H 0.59912 0.58051 1.0044 0.0
H2131 H 0.59148 0.64386 0.08216 0.0
H2132 H 0.58119 0.64452 0.05213 0.0
H2133 H 0.61664 0.60758 0.0382 0.0
H2134 H 0.62701 0.60709 0.06775 0.0
H2135 H 0.58411 0.60183 0.02113 0.0
H2136 H 0.62957 0.64926 0.03639 0.0
H2137 H 0.6394 0.67581 0.05278 0.0
H2138 H 0.59538 0.69973 0.03405 0.0
H2139 H 0.58524 0.67321 0.01769 0.0
C2140 C 0.62941 0.61351 0.95617 0.0
C2141 C 0.6254 0.62322 0.94197 0.0
C2142 C 0.62049 0.61488 0.97126 0.0
C2143 C 0.60741 0.626 0.97251 0.0
C2144 C 0.60349 0.63596 0.95848 0.0
C2145 C 0.61234 0.63446 0.94322 0.0
C2146 C 0.59886 0.62763 0.98903 0.0
C2147 C 0.60226 0.64303 0.99852 0.0
C2148 C 0.59104 0.61294 0.99697 0.0
C2149 C 0.58615 0.59672 0.98706 0.0
C2150 C 0.57639 0.59694 0.97169 0.0
C2151 C 0.57208 0.58176 0.96218 0.0
C2152 C 0.57742 0.56625 0.9679 0.0
C2153 C 0.58706 0.56588 0.98316 0.0
C2154 C 0.59142 0.58102 0.99273 0.0
C2155 C 0.59678 0.63568 0.07267 0.0
C2156 C 0.61016 0.62558 0.07714 0.0
C2157 C 0.59089 0.63604 0.05561 0.0
C2158 C 0.59815 0.62607 0.04302 0.0
C2159 C 0.61077 0.61526 0.04775 0.0
C2160 C 0.61681 0.61512 0.0646 0.0
C2161 C 0.59463 0.6281 0.02457 0.0
C2162 C 0.58899 0.61338 0.01473 0.0
C2163 C 0.60041 0.64337 0.0163 0.0
C2164 C 0.60656 0.65926 0.02602 0.0
C2165 C 0.62196 0.66016 0.03587 0.0
C2166 C 0.62759 0.67519 0.04513 0.0
C2167 C 0.61799 0.68943 0.0445 0.0
C2168 C 0.60278 0.68868 0.03456 0.0
C2169 C 0.59708 0.67366 0.0253 0.0
H2170 H 0.62237 0.70106 0.05168 0.0
H2171 H 0.57408 0.55452 0.9605 0.0
H2172 H 0.91096 0.11888 0.4499 0.0
H2173 H 0.91197 0.10729 0.47836 0.0
H2174 H 0.87499 0.06522 0.46233 0.0
H2175 H 0.87379 0.07709 0.43351 0.0
H2176 H 0.86349 0.0813 0.48817 0.0
H2177 H 0.91479 0.0568 0.48031 0.0
H2178 H 0.94395 0.05315 0.47015 0.0
H2179 H 0.9645 0.09651 0.50116 0.0
H2180 H 0.93546 0.10064 0.5113 0.0
H2181 H 0.89309 0.09135 0.58523 0.0
H2182 H 0.89553 0.07635 0.55758 0.0
H2183 H 0.87454 0.11833 0.53182 0.0
H2184 H 0.87202 0.13326 0.55915 0.0
H2185 H 0.91353 0.08578 0.52897 0.0
H2186 H 0.84722 0.10407 0.50127 0.0
H2187 H 0.81787 0.10627 0.51164 0.0
H2188 H 0.82693 0.0712 0.55168 0.0
H2189 H 0.85625 0.06855 0.54141 0.0
C2190 C 0.9034 0.10689 0.45227 0.0
C2191 C 0.89208 0.09903 0.43961 0.0
C2192 C 0.90415 0.10011 0.46854 0.0
C2193 C 0.89362 0.08529 0.47254 0.0
C2194 C 0.88329 0.07663 0.45951 0.0
C2195 C 0.88262 0.0834 0.44307 0.0
C2196 C 0.89109 0.08136 0.49084 0.0
C2197 C 0.8744 0.08184 0.49709 0.0
C2198 C 0.90523 0.08137 0.50256 0.0
C2199 C 0.92287 0.07899 0.49662 0.0
C2200 C 0.9255 0.06562 0.48492 0.0
C2201 C 0.94203 0.06346 0.47916 0.0
C2202 C 0.95607 0.07458 0.48502 0.0
C2203 C 0.95362 0.08788 0.49667 0.0
C2204 C 0.93712 0.0901 0.50247 0.0
C2205 C 0.88901 0.09736 0.57364 0.0
C2206 C 0.88231 0.11347 0.57435 0.0
C2207 C 0.8904 0.08876 0.5579 0.0
C2208 C 0.8849 0.09608 0.54273 0.0
C2209 C 0.87851 0.11228 0.54344 0.0
C2210 C 0.8772 0.12087 0.55907 0.0
C2211 C 0.88623 0.08739 0.52588 0.0
C2212 C 0.90261 0.08449 0.52003 0.0
C2213 C 0.87178 0.08481 0.51453 0.0
C2214 C 0.85398 0.08611 0.52055 0.0
C2215 C 0.84292 0.09669 0.51219 0.0
C2216 C 0.82629 0.09805 0.51808 0.0
C2217 C 0.82054 0.08889 0.53231 0.0
C2218 C 0.8314 0.07831 0.54067 0.0
C2219 C 0.84804 0.07689 0.53483 0.0
H2220 H 0.80767 0.08998 0.53686 0.0
H2221 H 0.96886 0.0729 0.48053 0.0
H2222 H 0.41431 0.37226 0.9347 0.0
H2223 H 0.42026 0.36198 0.96352 0.0
H2224 H 0.40585 0.40952 0.98539 0.0
H2225 H 0.39971 0.41977 0.95686 0.0
H2226 H 0.43994 0.37487 0.99492 0.0
H2227 H 0.37423 0.39833 0.01217 0.0
H2228 H 0.34684 0.40361 0.9976 0.0
H2229 H 0.35496 0.36541 0.95912 0.0
H2230 H 0.38224 0.35969 0.97361 0.0
H2231 H 0.42734 0.39084 0.08272 0.0
H2232 H 0.43273 0.38798 0.0522 0.0
H2233 H 0.39101 0.3478 0.04705 0.0
H2234 H 0.38506 0.35128 0.0774 0.0
H2235 H 0.38533 0.37104 0.02657 0.0
H2236 H 0.43427 0.34115 0.03777 0.0
H2237 H 0.46162 0.33478 0.05165 0.0
H2238 H 0.48668 0.3816 0.03298 0.0
H2239 H 0.45942 0.38841 0.0192 0.0
C2240 C 0.41286 0.38068 0.94565 0.0
C2241 C 0.40625 0.39668 0.94362 0.0
C2242 C 0.41633 0.37481 0.96205 0.0
C2243 C 0.41324 0.38493 0.97647 0.0
C2244 C 0.40814 0.4015 0.97435 0.0
C2245 C 0.40457 0.4073 0.95806 0.0
C2246 C 0.41273 0.37757 0.99367 0.0
C2247 C 0.42806 0.37384 1.00192 0.0
C2248 C 0.39705 0.37572 1.00243 0.0
C2249 C 0.38035 0.37867 0.99393 0.0
C2250 C 0.37011 0.39097 1.00067 0.0
C2251 C 0.35461 0.39405 0.99241 0.0
C2252 C 0.34918 0.38488 0.97742 0.0
C2253 C 0.3592 0.37254 0.9707 0.0
C2254 C 0.37469 0.36938 0.97893 0.0
C2255 C 0.41964 0.38109 0.07514 0.0
C2256 C 0.40561 0.37148 0.08226 0.0
C2257 C 0.42281 0.37936 0.05771 0.0
C2258 C 0.41226 0.36767 0.04728 0.0
C2259 C 0.39923 0.35698 0.05481 0.0
C2260 C 0.39582 0.359 0.07212 0.0
C2261 C 0.41274 0.36882 0.02839 0.0
C2262 C 0.39728 0.37153 0.01969 0.0
C2263 C 0.42826 0.36934 0.01925 0.0
C2264 C 0.44474 0.36533 0.0275 0.0
C2265 C 0.44557 0.35016 0.03672 0.0
C2266 C 0.46108 0.34646 0.04456 0.0
C2267 C 0.47588 0.35779 0.04321 0.0
C2268 C 0.47521 0.37283 0.034 0.0
C2269 C 0.45974 0.3766 0.02615 0.0
H2270 H 0.48787 0.3549 0.04929 0.0
H2271 H 0.33721 0.38733 0.97102 0.0
H2272 H 0.58563 0.14113 0.08334 0.0
H2273 H 0.55595 0.14559 0.07502 0.0
H2274 H 0.53817 0.098 0.0984 0.0
H2275 H 0.5677 0.09389 0.10739 0.0
H2276 H 0.52361 0.13114 0.06107 0.0
H2277 H 0.51253 0.10782 0.12962 0.0
H2278 H 0.52945 0.10329 0.15598 0.0
H2279 H 0.56796 0.14288 0.14185 0.0
H2280 H 0.55111 0.14785 0.11559 0.0
H2281 H 0.43528 0.12581 0.08472 0.0
H2282 H 0.46482 0.12404 0.07557 0.0
H2283 H 0.48288 0.16258 0.11382 0.0
H2284 H 0.45346 0.16354 0.12364 0.0
H2285 H 0.49864 0.13668 0.11852 0.0
H2286 H 0.48721 0.16795 0.06873 0.0
H2287 H 0.47164 0.17555 0.04255 0.0
H2288 H 0.47954 0.12669 0.01945 0.0
H2289 H 0.49496 0.11869 0.04559 0.0
C2290 C 0.57548 0.1312 0.08594 0.0
C2291 C 0.5788 0.11737 0.09633 0.0
C2292 C 0.55852 0.13375 0.08114 0.0
C2293 C 0.54489 0.12236 0.08655 0.0
C2294 C 0.54855 0.10707 0.09437 0.0
C2295 C 0.5654 0.10472 0.09951 0.0
C2296 C 0.52754 0.12837 0.08817 0.0
C2297 C 0.51801 0.13233 0.07356 0.0
C2298 C 0.52065 0.13062 0.10456 0.0
C2299 C 0.53065 0.12807 0.12057 0.0
C2300 C 0.52456 0.11561 0.1322 0.0
C2301 C 0.53414 0.11297 0.14712 0.0
C2302 C 0.54979 0.12276 0.15057 0.0
C2303 C 0.55586 0.13528 0.13915 0.0
C2304 C 0.5463 0.13802 0.12426 0.0
C2305 C 0.44553 0.13424 0.09083 0.0
C2306 C 0.44222 0.14464 0.10502 0.0
C2307 C 0.46242 0.1333 0.08552 0.0
C2308 C 0.47615 0.14313 0.09403 0.0
C2309 C 0.47254 0.15474 0.10716 0.0
C2310 C 0.45575 0.15531 0.11277 0.0
C2311 C 0.49421 0.13928 0.09136 0.0
C2312 C 0.50403 0.13567 0.10591 0.0
C2313 C 0.50141 0.13793 0.07495 0.0
C2314 C 0.49213 0.14267 0.05919 0.0
C2315 C 0.48551 0.15876 0.05813 0.0
C2316 C 0.47674 0.16316 0.04328 0.0
C2317 C 0.47457 0.15159 0.02936 0.0
C2318 C 0.48122 0.13563 0.03025 0.0
C2319 C 0.49 0.13117 0.04507 0.0
H2320 H 0.46777 0.15502 0.01787 0.0
H2321 H 0.55717 0.12067 0.16212 0.0
H2322 H 0.41793 0.93835 0.59847 0.0
H2323 H 0.40806 0.96526 0.58785 0.0
H2324 H 0.41568 0.98816 0.63841 0.0
H2325 H 0.42548 0.96156 0.64907 0.0
H2326 H 0.37849 0.98126 0.61955 0.0
H2327 H 0.43948 1.0058 0.61666 0.0
H2328 H 0.46826 1.00646 0.6041 0.0
H2329 H 0.44582 0.0119 0.55401 0.0
H2330 H 0.41687 1.01104 0.56629 0.0
H2331 H 0.37472 0.06352 0.64863 0.0
H2332 H 0.37967 0.03459 0.6393 0.0
H2333 H 0.37625 0.04932 0.58651 0.0
H2334 H 0.37118 0.07861 0.5959 0.0
H2335 H 0.40613 0.03414 0.59426 0.0
H2336 H 0.34662 0.0194 0.59941 0.0
H2337 H 0.31785 0.01908 0.6119 0.0
H2338 H 0.33617 0.99451 0.6565 0.0
H2339 H 0.36512 0.9949 0.64443 0.0
C2340 C 0.41818 0.94938 0.60712 0.0
C2341 C 0.42227 0.94788 0.62463 0.0
C2342 C 0.41247 0.96466 0.60105 0.0
C2343 C 0.41105 0.97852 0.61243 0.0
C2344 C 0.41671 0.97753 0.62949 0.0
C2345 C 0.42232 0.96235 0.63555 0.0
C2346 C 0.40115 0.99296 0.60776 0.0
C2347 C 0.38437 0.99281 0.61384 0.0
C2348 C 0.40865 1.0076 0.59963 0.0
C2349 C 0.42602 1.00807 0.59234 0.0
C2350 C 0.44067 1.00692 0.60295 0.0
C2351 C 0.45701 1.00739 0.59589 0.0
C2352 C 0.45886 1.00914 0.57826 0.0
C2353 C 0.44437 1.01049 0.56766 0.0
C2354 C 0.428 1.01001 0.57466 0.0
C2355 C 0.3746 0.06052 0.63503 0.0
C2356 C 0.37261 0.07327 0.62298 0.0
C2357 C 0.37735 0.04395 0.62969 0.0
C2358 C 0.37821 0.03978 0.6122 0.0
C2359 C 0.37552 0.05229 0.60006 0.0
C2360 C 0.37253 0.06894 0.60543 0.0
C2361 C 0.38383 0.02288 0.60719 0.0
C2362 C 0.3998 0.02244 0.59928 0.0
C2363 C 0.37553 1.00761 0.61361 0.0
C2364 C 0.35808 1.00717 0.62096 0.0
C2365 C 0.34455 0.01399 0.61191 0.0
C2366 C 0.3282 0.01379 0.61892 0.0
C2367 C 0.32519 1.00677 0.63498 0.0
C2368 C 0.33852 0.99991 0.64405 0.0
C2369 C 0.35489 1.00008 0.6371 0.0
H2370 H 0.31252 1.00664 0.64039 0.0
H2371 H 0.47152 1.00951 0.57281 0.0
H2372 H 0.43379 0.8719 0.07803 0.0
H2373 H 0.46293 0.86704 0.06928 0.0
H2374 H 0.48269 0.91438 0.09486 0.0
H2375 H 0.45375 0.91893 0.1042 0.0
H2376 H 0.4952 0.88212 0.05579 0.0
H2377 H 0.50898 0.90347 0.1259 0.0
H2378 H 0.49305 0.90761 0.15237 0.0
H2379 H 0.45384 0.86841 0.13538 0.0
H2380 H 0.46973 0.86381 0.10899 0.0
H2381 H 0.58439 0.88814 0.08108 0.0
H2382 H 0.55449 0.88945 0.07144 0.0
H2383 H 0.53832 0.84932 0.10624 0.0
H2384 H 0.56808 0.84881 0.11662 0.0
H2385 H 0.52239 0.87485 0.11294 0.0
H2386 H 0.53243 0.84556 0.06072 0.0
H2387 H 0.5472 0.83922 0.0341 0.0
H2388 H 0.53775 0.88866 0.01502 0.0
H2389 H 0.52312 0.89541 0.04163 0.0
C2390 C 0.44422 0.88169 0.08103 0.0
C2391 C 0.44169 0.89559 0.09207 0.0
C2392 C 0.46087 0.87891 0.07598 0.0
C2393 C 0.47494 0.89014 0.08181 0.0
C2394 C 0.47196 0.90547 0.09043 0.0
C2395 C 0.45545 0.90805 0.09579 0.0
C2396 C 0.49228 0.88392 0.08305 0.0
C2397 C 0.50127 0.88052 0.06821 0.0
C2398 C 0.4998 0.88121 0.0993 0.0
C2399 C 0.49046 0.88343 0.11542 0.0
C2400 C 0.49702 0.89566 0.12788 0.0
C2401 C 0.48799 0.89809 0.14286 0.0
C2402 C 0.47243 0.88831 0.14553 0.0
C2403 C 0.46589 0.876 0.13328 0.0
C2404 C 0.4749 0.87347 0.11832 0.0
C2405 C 0.57449 0.87925 0.08626 0.0
C2406 C 0.57841 0.86853 0.09973 0.0
C2407 C 0.55739 0.87993 0.08068 0.0
C2408 C 0.54408 0.86954 0.08816 0.0
C2409 C 0.54833 0.85759 0.1004 0.0
C2410 C 0.56531 0.85727 0.10631 0.0
C2411 C 0.52582 0.87319 0.08563 0.0
C2412 C 0.51651 0.8762 0.10037 0.0
C2413 C 0.51799 0.87504 0.06929 0.0
C2414 C 0.52678 0.87104 0.05325 0.0
C2415 C 0.53362 0.85514 0.05091 0.0
C2416 C 0.54194 0.85146 0.03581 0.0
C2417 C 0.54344 0.86354 0.02289 0.0
C2418 C 0.53659 0.87931 0.02504 0.0
C2419 C 0.52825 0.88307 0.04012 0.0
H2420 H 0.5499 0.86066 0.01121 0.0
H2421 H 0.46546 0.89024 0.15713 0.0
H2422 H 0.60447 0.06679 0.6654 0.0
H2423 H 0.61026 0.03675 0.66265 0.0
H2424 H 0.62153 0.04365 0.60934 0.0
H2425 H 0.61528 0.07377 0.61193 0.0
H2426 H 0.60747 1.00953 0.61714 0.0
H2427 H 0.65359 0.05099 0.63503 0.0
H2428 H 0.66693 0.07584 0.652 0.0
H2429 H 0.65868 0.04799 0.69827 0.0
H2430 H 0.64502 0.02304 0.68158 0.0
H2431 H 0.66127 0.93968 0.62153 0.0
H2432 H 0.65279 0.96853 0.61608 0.0
H2433 H 0.6391 0.9739 0.66896 0.0
H2434 H 0.6476 0.94528 0.67452 0.0
H2435 H 0.65677 1.00286 0.65715 0.0
H2436 H 0.60886 0.96171 0.63798 0.0
H2437 H 0.59555 0.93753 0.61999 0.0
H2438 H 0.60844 0.96537 0.57466 0.0
H2439 H 0.62206 0.98963 0.59234 0.0
C2440 C 0.60749 0.06171 0.65293 0.0
C2441 C 0.60969 0.07255 0.63893 0.0
C2442 C 0.61083 0.04459 0.65138 0.0
C2443 C 0.61676 0.0382 0.63592 0.0
C2444 C 0.61705 0.04844 0.62139 0.0
C2445 C 0.61345 0.0656 0.62288 0.0
C2446 C 0.62524 0.02208 0.63592 0.0
C2447 C 0.61841 1.00808 0.62567 0.0
C2448 C 0.63961 0.02035 0.64697 0.0
C2449 C 0.6482 0.03517 0.65705 0.0
C2450 C 0.65455 0.05018 0.64883 0.0
C2451 C 0.66218 0.06429 0.65839 0.0
C2452 C 0.66369 0.06348 0.67619 0.0
C2453 C 0.65755 0.04857 0.68447 0.0
C2454 C 0.64988 0.03444 0.67496 0.0
C2455 C 0.65671 0.94713 0.63204 0.0
C2456 C 0.65504 0.94021 0.64844 0.0
C2457 C 0.65176 0.96353 0.62887 0.0
C2458 C 0.64511 0.9732 0.64207 0.0
C2459 C 0.64416 0.9666 0.65859 0.0
C2460 C 0.64902 0.95024 0.66175 0.0
C2461 C 0.63864 0.99004 0.63883 0.0
C2462 C 0.64597 1.00429 0.64845 0.0
C2463 C 0.62491 0.99199 0.62703 0.0
C2464 C 0.61666 0.9774 0.61647 0.0
C2465 C 0.60899 0.96262 0.62418 0.0
C2466 C 0.60137 0.94891 0.61404 0.0
C2467 C 0.6012 0.9499 0.59622 0.0
C2468 C 0.60861 0.96461 0.58847 0.0
C2469 C 0.61628 0.97834 0.59853 0.0
H2470 H 0.59528 0.93927 0.58841 0.0
H2471 H 0.66957 0.07442 0.68358 0.0
H2472 H 0.46041 0.91216 0.85636 0.0
H2473 H 0.48923 0.90464 0.86389 0.0
H2474 H 0.47504 0.89941 0.91662 0.0
H2475 H 0.44586 0.90697 0.90913 0.0
H2476 H 0.51353 0.91494 0.90587 0.0
H2477 H 0.47177 0.86554 0.90333 0.0
H2478 H 0.44581 0.84867 0.89137 0.0
H2479 H 0.46976 0.84528 0.84267 0.0
H2480 H 0.49574 0.86242 0.85425 0.0
H2481 H 0.58816 0.86757 0.90362 0.0
H2482 H 0.55874 0.87205 0.912 0.0
H2483 H 0.54366 0.87591 0.85887 0.0
H2484 H 0.57298 0.87174 0.85043 0.0
H2485 H 0.51848 0.85754 0.87899 0.0
H2486 H 0.5566 0.91096 0.87971 0.0
H2487 H 0.58236 0.92934 0.88993 0.0
H2488 H 0.56516 0.92552 0.94161 0.0
H2489 H 0.53943 0.90687 0.93169 0.0
C2490 C 0.46355 0.90996 0.86966 0.0
C2491 C 0.45089 0.9099 0.88213 0.0
C2492 C 0.48001 0.90569 0.87394 0.0
C2493 C 0.48406 0.90125 0.89073 0.0
C2494 C 0.47204 0.90281 0.9036 0.0
C2495 C 0.45545 0.90716 0.89931 0.0
C2496 C 0.49984 0.89262 0.89374 0.0
C2497 C 0.51457 0.90215 0.90059 0.0
C2498 C 0.5011 0.87603 0.8866 0.0
C2499 C 0.48567 0.86535 0.87965 0.0
C2500 C 0.47145 0.8613 0.89004 0.0
C2501 C 0.45674 0.85168 0.88333 0.0
C2502 C 0.45612 0.84592 0.86627 0.0
C2503 C 0.47025 0.84974 0.85589 0.0
C2504 C 0.48499 0.85939 0.86253 0.0
C2505 C 0.57845 0.86894 0.89372 0.0
C2506 C 0.58282 0.86944 0.87637 0.0
C2507 C 0.56171 0.87155 0.89854 0.0
C2508 C 0.54915 0.87442 0.88604 0.0
C2509 C 0.55321 0.87368 0.86868 0.0
C2510 C 0.56996 0.87136 0.86388 0.0
C2511 C 0.53227 0.87999 0.8908 0.0
C2512 C 0.51735 0.86994 0.88514 0.0
C2513 C 0.53087 0.89605 0.89909 0.0
C2514 C 0.54624 0.90735 0.905 0.0
C2515 C 0.5584 0.91392 0.89327 0.0
C2516 C 0.57297 0.92441 0.899 0.0
C2517 C 0.57542 0.92855 0.91641 0.0
C2518 C 0.56327 0.92226 0.92813 0.0
C2519 C 0.5487 0.91173 0.92246 0.0
H2520 H 0.58671 0.93667 0.92083 0.0
H2521 H 0.44471 0.83849 0.8611 0.0
H2522 H 0.65647 0.96939 0.39454 0.0
H2523 H 0.65512 0.9971 0.40887 0.0
H2524 H 0.64304 0.97193 0.45625 0.0
H2525 H 0.64424 0.94393 0.44187 0.0
H2526 H 0.62005 0.99384 0.4486 0.0
H2527 H 0.68029 0.99842 0.45464 0.0
H2528 H 0.71037 0.99587 0.44665 0.0
H2529 H 0.70541 0.03207 0.40672 0.0
H2530 H 0.67527 0.03479 0.41436 0.0
H2531 H 0.63925 0.09549 0.44323 0.0
H2532 H 0.64494 0.0687 0.45703 0.0
H2533 H 0.60809 0.04067 0.42239 0.0
H2534 H 0.60231 0.06723 0.40873 0.0
H2535 H 0.65983 0.04575 0.43931 0.0
H2536 H 0.5934 1.00349 0.43595 0.0
H2537 H 0.56357 1.00609 0.44468 0.0
H2538 H 0.58148 0.04526 0.48184 0.0
H2539 H 0.61147 0.04273 0.47355 0.0
C2540 C 0.65387 0.96971 0.40809 0.0
C2541 C 0.65031 0.95446 0.41702 0.0
C2542 C 0.65326 0.98559 0.41634 0.0
C2543 C 0.64913 0.9866 0.43369 0.0
C2544 C 0.64634 0.97143 0.44288 0.0
C2545 C 0.64706 0.95546 0.43464 0.0
C2546 C 0.64553 1.0034 0.44124 0.0
C2547 C 0.62883 1.00521 0.44691 0.0
C2548 C 0.65723 0.01816 0.43971 0.0
C2549 C 0.67547 0.01681 0.43512 0.0
C2550 C 0.68559 1.00582 0.44413 0.0
C2551 C 0.70267 1.00436 0.43966 0.0
C2552 C 0.70981 0.01383 0.42621 0.0
C2553 C 0.69988 0.02481 0.4172 0.0
C2554 C 0.68281 0.02636 0.42163 0.0
C2555 C 0.63184 0.0837 0.43905 0.0
C2556 C 0.62053 0.08338 0.42473 0.0
C2557 C 0.63515 0.0684 0.44693 0.0
C2558 C 0.627 0.05266 0.44074 0.0
C2559 C 0.61439 0.05263 0.42759 0.0
C2560 C 0.61118 0.06785 0.41967 0.0
C2561 C 0.63387 0.03621 0.44517 0.0
C2562 C 0.65123 0.03442 0.44173 0.0
C2563 C 0.62281 0.0215 0.44893 0.0
C2564 C 0.60475 0.0229 0.45411 0.0
C2565 C 0.59103 0.01255 0.4461 0.0
C2566 C 0.57406 0.01405 0.45094 0.0
C2567 C 0.57063 0.02584 0.4638 0.0
C2568 C 0.58415 0.03615 0.47186 0.0
C2569 C 0.60114 0.03471 0.46707 0.0
H2570 H 0.55749 0.02698 0.46752 0.0
H2571 H 0.72302 0.01266 0.42276 0.0
H2572 H 0.45568 0.14028 0.85509 0.0
H2573 H 0.48386 0.13285 0.86488 0.0
H2574 H 0.47429 0.1513 0.91582 0.0
H2575 H 0.4457 0.15878 0.9061 0.0
H2576 H 0.51045 0.15895 0.90147 0.0
H2577 H 0.46874 0.11304 0.91417 0.0
H2578 H 0.4427 0.09324 0.90841 0.0
H2579 H 0.46657 0.07156 0.86509 0.0
H2580 H 0.49263 0.09146 0.87037 0.0
H2581 H 0.58742 0.11686 0.90995 0.0
H2582 H 0.55821 0.12128 0.91919 0.0
H2583 H 0.53825 0.10769 0.86827 0.0
H2584 H 0.56727 0.10359 0.85897 0.0
H2585 H 0.51568 0.09641 0.89439 0.0
H2586 H 0.55161 0.1479 0.87678 0.0
H2587 H 0.57731 0.16869 0.88004 0.0
H2588 H 0.564 0.17996 0.93181 0.0
H2589 H 0.53833 0.15903 0.9289 0.0
C2590 C 0.45964 0.14311 0.86831 0.0
C2591 C 0.44841 0.14991 0.87988 0.0
C2592 C 0.47573 0.13881 0.87387 0.0
C2593 C 0.48091 0.14123 0.89111 0.0
C2594 C 0.47037 0.14927 0.90249 0.0
C2595 C 0.45413 0.15357 0.8969 0.0
C2596 C 0.49681 0.13404 0.897 0.0
C2597 C 0.51155 0.14524 0.90058 0.0
C2598 C 0.49814 0.11614 0.89569 0.0
C2599 C 0.48265 0.1038 0.89266 0.0
C2600 C 0.46841 0.10412 0.90336 0.0
C2601 C 0.45364 0.09287 0.90018 0.0
C2602 C 0.45298 0.08115 0.88639 0.0
C2603 C 0.46711 0.08063 0.87578 0.0
C2604 C 0.4819 0.09188 0.87888 0.0
C2605 C 0.57668 0.11424 0.90093 0.0
C2606 C 0.57951 0.11003 0.88372 0.0
C2607 C 0.56006 0.11683 0.90621 0.0
C2608 C 0.54616 0.11495 0.89436 0.0
C2609 C 0.54882 0.10917 0.87761 0.0
C2610 C 0.56539 0.10689 0.87228 0.0
C2611 C 0.52941 0.12138 0.89822 0.0
C2612 C 0.51449 0.11003 0.89627 0.0
C2613 C 0.52792 0.13912 0.90102 0.0
C2614 C 0.54323 0.15177 0.90271 0.0
C2615 C 0.55425 0.15473 0.88889 0.0
C2616 C 0.56879 0.16654 0.89067 0.0
C2617 C 0.57232 0.1756 0.90614 0.0
C2618 C 0.56128 0.1729 0.91985 0.0
C2619 C 0.54674 0.16106 0.91815 0.0
H2620 H 0.58358 0.18474 0.90749 0.0
H2621 H 0.44152 0.07247 0.88394 0.0
H2622 H 0.3926 0.94591 0.43962 0.0
H2623 H 0.38862 0.97378 0.45317 0.0
H2624 H 0.40512 0.99914 0.40708 0.0
H2625 H 0.40953 0.97166 0.39376 0.0
H2626 H 0.41487 0.01894 0.43336 0.0
H2627 H 0.36191 0.98491 0.41368 0.0
H2628 H 0.34069 0.95951 0.41403 0.0
H2629 H 0.33279 0.96868 0.46751 0.0
H2630 H 0.35413 0.99404 0.46748 0.0
H2631 H 0.35279 0.0714 0.40149 0.0
H2632 H 0.3558 0.04354 0.41395 0.0
H2633 H 0.38342 0.06828 0.45753 0.0
H2634 H 0.38051 0.09634 0.44506 0.0
H2635 H 0.3529 0.02372 0.44398 0.0
H2636 H 0.41971 0.05399 0.45763 0.0
H2637 H 0.437 0.08094 0.45081 0.0
H2638 H 0.41387 0.07934 0.4003 0.0
H2639 H 0.39661 0.05235 0.40682 0.0
C2640 C 0.39587 0.95749 0.43259 0.0
C2641 C 0.40106 0.95657 0.4155 0.0
C2642 C 0.39352 0.97339 0.44033 0.0
C2643 C 0.39625 0.98852 0.43103 0.0
C2644 C 0.40289 0.98767 0.41453 0.0
C2645 C 0.4053 0.97188 0.40686 0.0
C2646 C 0.39016 1.00495 0.43711 0.0
C2647 C 0.40145 0.01992 0.43629 0.0
C2648 C 0.37256 1.00634 0.44062 0.0
C2649 C 0.35974 0.99118 0.44064 0.0
C2650 C 0.35571 0.98142 0.42552 0.0
C2651 C 0.34367 0.96706 0.42566 0.0
C2652 C 0.33544 0.96245 0.4408 0.0
C2653 C 0.33921 0.97224 0.45581 0.0
C2654 C 0.35128 0.9866 0.45575 0.0
C2655 C 0.35895 0.07097 0.41403 0.0
C2656 C 0.36685 0.08597 0.42208 0.0
C2657 C 0.36048 0.05503 0.42124 0.0
C2658 C 0.37009 0.05386 0.43651 0.0
C2659 C 0.37602 0.06895 0.44569 0.0
C2660 C 0.3744 0.08496 0.43851 0.0
C2661 C 0.37756 0.03752 0.43991 0.0
C2662 C 0.36654 0.02264 0.4423 0.0
C2663 C 0.39526 0.03613 0.4372 0.0
C2664 C 0.40692 0.05126 0.43272 0.0
C2665 C 0.41854 0.05929 0.44501 0.0
C2666 C 0.42826 0.0746 0.44122 0.0
C2667 C 0.42646 0.08188 0.42515 0.0
C2668 C 0.41522 0.0737 0.41273 0.0
C2669 C 0.40552 0.0584 0.41645 0.0
H2670 H 0.4337 0.09389 0.42232 0.0
H2671 H 0.32612 0.95133 0.44088 0.0
H2672 H 0.1276 0.4619 0.15239 0.0
H2673 H 0.11611 0.48963 0.15361 0.0
H2674 H 0.06427 0.46489 0.15216 0.0
H2675 H 0.0758 0.43681 0.15036 0.0
H2676 H 0.06586 0.48772 0.12987 0.0
H2677 H 0.08013 0.49071 0.18764 0.0
H2678 H 0.09612 0.48771 0.21483 0.0
H2679 H 0.13647 0.52446 0.1988 0.0
H2680 H 0.12095 0.52746 0.17138 0.0
H2681 H 0.09202 0.58878 0.13704 0.0
H2682 H 0.07868 0.56301 0.15045 0.0
H2683 H 0.09139 0.53243 0.1067 0.0
H2684 H 0.10411 0.55794 0.09318 0.0
H2685 H 0.09466 0.53859 0.1612 0.0
H2686 H 0.06883 0.49692 0.10035 0.0
H2687 H 0.05014 0.5005 0.07507 0.0
H2688 H 0.02759 0.54167 0.1008 0.0
H2689 H 0.04593 0.53819 0.12638 0.0
C2690 C 0.11375 0.46226 0.15263 0.0
C2691 C 0.10263 0.44712 0.15108 0.0
C2692 C 0.10716 0.4782 0.15355 0.0
C2693 C 0.08928 0.47943 0.15324 0.0
C2694 C 0.0781 0.46428 0.1525 0.0
C2695 C 0.08472 0.44825 0.15144 0.0
C2696 C 0.08272 0.49653 0.15114 0.0
C2697 C 0.0719 0.49885 0.1369 0.0
C2698 C 0.08971 0.51106 0.16091 0.0
C2699 C 0.0993 0.50931 0.17738 0.0
C2700 C 0.09247 0.49808 0.18984 0.0
C2701 C 0.10146 0.49638 0.20531 0.0
C2702 C 0.1173 0.50589 0.20854 0.0
C2703 C 0.12418 0.51712 0.19629 0.0
C2704 C 0.11526 0.51885 0.18078 0.0
C2705 C 0.09147 0.57661 0.1301 0.0
C2706 C 0.09925 0.57533 0.11412 0.0
C2707 C 0.08385 0.56189 0.13778 0.0
C2708 C 0.08385 0.54574 0.12956 0.0
C2709 C 0.09076 0.54472 0.11318 0.0
C2710 C 0.09827 0.55935 0.1055 0.0
C2711 C 0.07948 0.52963 0.13885 0.0
C2712 C 0.0881 0.52749 0.15453 0.0
C2713 C 0.07002 0.5153 0.13072 0.0
C2714 C 0.05879 0.51726 0.11536 0.0
C2715 C 0.05977 0.50663 0.10073 0.0
C2716 C 0.04927 0.50867 0.0863 0.0
C2717 C 0.03768 0.5213 0.08632 0.0
C2718 C 0.03658 0.5319 0.10078 0.0
C2719 C 0.04705 0.52992 0.11525 0.0
H2720 H 0.02957 0.52287 0.07514 0.0
H2721 H 0.12423 0.50456 0.22053 0.0
H2722 H 0.11711 0.55561 0.84824 0.0
H2723 H 0.10246 0.52978 0.8595 0.0
H2724 H 0.07794 0.5601 0.89694 0.0
H2725 H 0.09308 0.58629 0.88583 0.0
H2726 H 0.09126 0.53545 0.91218 0.0
H2727 H 0.05264 0.53552 0.86636 0.0
H2728 H 0.04152 0.53939 0.83705 0.0
H2729 H 0.06997 0.49861 0.81853 0.0
H2730 H 0.0815 0.49465 0.84765 0.0
H2731 H 0.07634 0.43386 0.89617 0.0
H2732 H 0.06396 0.46156 0.89618 0.0
H2733 H 0.1138 0.48705 0.9107 0.0
H2734 H 0.12595 0.45969 0.91129 0.0
H2735 H 0.07076 0.48502 0.8753 0.0
H2736 H 0.11415 0.52381 0.9288 0.0
H2737 H 0.12232 0.52002 0.95902 0.0
H2738 H 0.0784 0.48346 0.9644 0.0
H2739 H 0.06975 0.48721 0.93429 0.0
C2740 C 0.1084 0.55688 0.85868 0.0
C2741 C 0.10635 0.57298 0.86622 0.0
C2742 C 0.09982 0.54206 0.86501 0.0
C2743 C 0.08882 0.54296 0.87891 0.0
C2744 C 0.08625 0.5591 0.88612 0.0
C2745 C 0.0949 0.57403 0.87976 0.0
C2746 C 0.08212 0.52678 0.88697 0.0
C2747 C 0.08646 0.52444 0.90425 0.0
C2748 C 0.07482 0.51257 0.87692 0.0
C2749 C 0.06791 0.51475 0.85927 0.0
C2750 C 0.05659 0.52741 0.85604 0.0
C2751 C 0.05021 0.52963 0.83944 0.0
C2752 C 0.05502 0.51924 0.82594 0.0
C2753 C 0.06622 0.50661 0.82901 0.0
C2754 C 0.07264 0.50434 0.84559 0.0
C2755 C 0.08451 0.44535 0.89984 0.0
C2756 C 0.10219 0.4446 0.90351 0.0
C2757 C 0.07741 0.46117 0.89984 0.0
C2758 C 0.08786 0.47645 0.90358 0.0
C2759 C 0.10527 0.47551 0.90821 0.0
C2760 C 0.11231 0.45978 0.90832 0.0
C2761 C 0.08179 0.4935 0.89992 0.0
C2762 C 0.0749 0.49604 0.8835 0.0
C2763 C 0.08618 0.5079 0.91095 0.0
C2764 C 0.09126 0.50583 0.92921 0.0
C2765 C 0.1061 0.5151 0.93644 0.0
C2766 C 0.11086 0.51291 0.95356 0.0
C2767 C 0.10089 0.50151 0.96362 0.0
C2768 C 0.08612 0.49227 0.95659 0.0
C2769 C 0.0813 0.49441 0.93948 0.0
H2770 H 0.10461 0.49983 0.97687 0.0
H2771 H 0.05008 0.52099 0.8131 0.0
H2772 H 0.08442 0.62792 0.39709 0.0
H2773 H 0.05676 0.61639 0.40731 0.0
H2774 H 0.05573 0.5744 0.37043 0.0
H2775 H 0.08379 0.58622 0.35995 0.0
H2776 H 0.02884 0.59116 0.36602 0.0
H2777 H 0.05092 0.56581 0.41409 0.0
H2778 H 0.07002 0.56188 0.439 0.0
H2779 H 0.05189 0.60575 0.46436 0.0
H2780 H 0.03287 0.61014 0.43953 0.0
H2781 H 0.94458 0.60149 0.41412 0.0
H2782 H 0.97065 0.58608 0.41237 0.0
H2783 H 0.99776 0.63054 0.39047 0.0
H2784 H 0.97209 0.64598 0.39227 0.0
H2785 H 1.00716 0.59581 0.42496 0.0
H2786 H 0.01388 0.61582 0.35402 0.0
H2787 H 0.99477 0.61994 0.32915 0.0
H2788 H 0.95558 0.58456 0.34957 0.0
H2789 H 0.97455 0.58 0.37443 0.0
C2790 C 0.07855 0.61595 0.39147 0.0
C2791 C 0.08604 0.6081 0.37756 0.0
C2792 C 0.0628 0.6092 0.3975 0.0
C2793 C 0.05413 0.59442 0.38975 0.0
C2794 C 0.06224 0.58575 0.37668 0.0
C2795 C 0.07823 0.59249 0.3707 0.0
C2796 C 0.03549 0.59071 0.39293 0.0
C2797 C 0.02405 0.59164 0.37892 0.0
C2798 C 0.02906 0.59083 0.40975 0.0
C2799 C 0.04037 0.58826 0.4249 0.0
C2800 C 0.05103 0.57467 0.42494 0.0
C2801 C 0.06186 0.57236 0.43907 0.0
C2802 C 0.06215 0.58354 0.45326 0.0
C2803 C 0.05161 0.59706 0.45337 0.0
C2804 C 0.04075 0.59943 0.43929 0.0
C2805 C 0.9562 0.60805 0.40921 0.0
C2806 C 0.95626 0.62491 0.40322 0.0
C2807 C 0.97103 0.59923 0.40821 0.0
C2808 C 0.98595 0.60712 0.40105 0.0
C2809 C 0.98625 0.62419 0.39585 0.0
C2810 C 0.97157 0.63301 0.39694 0.0
C2811 C 1.00126 0.59773 0.39811 0.0
C2812 C 0.0119 0.59442 0.41212 0.0
C2813 C 1.00697 0.5952 0.38131 0.0
C2814 C 0.99566 0.59758 0.36612 0.0
C2815 C 1.00125 0.60879 0.35314 0.0
C2816 C 0.99043 0.61124 0.33905 0.0
C2817 C 0.97397 0.60253 0.33778 0.0
C2818 C 0.96832 0.59132 0.35058 0.0
C2819 C 0.9791 0.58881 0.36468 0.0
H2820 H 0.96559 0.60447 0.32688 0.0
H2821 H 0.07056 0.58174 0.46417 0.0
H2822 H 0.88537 0.56789 0.91329 0.0
H2823 H 0.89739 0.54051 0.91631 0.0
H2824 H 0.94095 0.5585 0.88644 0.0
H2825 H 0.92886 0.58627 0.88326 0.0
H2826 H 0.92723 0.52536 0.8772 0.0
H2827 H 0.94876 0.55429 0.92753 0.0
H2828 H 0.9486 0.57312 0.9532 0.0
H2829 H 0.9099 0.53824 0.97509 0.0
H2830 H 0.90959 0.51932 0.94945 0.0
H2831 H 0.93604 0.43772 0.89857 0.0
H2832 H 0.9475 0.46815 0.90036 0.0
H2833 H 0.89916 0.4815 0.92025 0.0
H2834 H 0.88763 0.45146 0.91792 0.0
H2835 H 0.92993 0.50098 0.93523 0.0
H2836 H 0.90197 0.48095 0.8793 0.0
H2837 H 0.90101 0.46226 0.85339 0.0
H2838 H 0.95308 0.48093 0.84264 0.0
H2839 H 0.95436 0.49957 0.86864 0.0
C2840 C 0.89748 0.56609 0.90728 0.0
C2841 C 0.9062 0.57928 0.89809 0.0
C2842 C 0.90442 0.55046 0.90916 0.0
C2843 C 0.92027 0.54766 0.90198 0.0
C2844 C 0.92881 0.56054 0.89227 0.0
C2845 C 0.92185 0.57632 0.89041 0.0
C2846 C 0.9272 0.53087 0.90433 0.0
C2847 C 0.9285 0.52018 0.88989 0.0
C2848 C 0.92898 0.52415 0.9209 0.0
C2849 C 0.92918 0.53536 0.93652 0.0
C2850 C 0.94015 0.55066 0.93778 0.0
C2851 C 0.94014 0.56135 0.95233 0.0
C2852 C 0.92925 0.55687 0.96577 0.0
C2853 C 0.91836 0.54167 0.96469 0.0
C2854 C 0.9183 0.53093 0.95015 0.0
C2855 C 0.92815 0.44716 0.90381 0.0
C2856 C 0.91099 0.44246 0.90807 0.0
C2857 C 0.93467 0.46445 0.90482 0.0
C2858 C 0.92415 0.47698 0.91045 0.0
C2859 C 0.90751 0.47198 0.91601 0.0
C2860 C 0.9009 0.45488 0.91461 0.0
C2861 C 0.92891 0.49545 0.90815 0.0
C2862 C 0.9297 0.50643 0.92259 0.0
C2863 C 0.92919 0.50247 0.89162 0.0
C2864 C 0.92833 0.49146 0.87595 0.0
C2865 C 0.91323 0.48097 0.87145 0.0
C2866 C 0.91263 0.4704 0.85676 0.0
C2867 C 0.92699 0.47037 0.8464 0.0
C2868 C 0.94197 0.48094 0.85069 0.0
C2869 C 0.94265 0.4915 0.8654 0.0
H2870 H 0.92651 0.46218 0.83503 0.0
H2871 H 0.92925 0.56518 0.97702 0.0
H2872 H 0.09141 0.44723 0.39951 0.0
H2873 H 0.06394 0.45942 0.40415 0.0
H2874 H 0.03782 0.41945 0.3718 0.0
H2875 H 0.06502 0.40704 0.3674 0.0
H2876 H 0.03038 0.46742 0.38414 0.0
H2877 H 0.01441 0.3966 0.39946 0.0
H2878 H 0.02982 0.37176 0.40789 0.0
H2879 H 0.06887 0.40553 0.43405 0.0
H2880 H 0.0535 0.43052 0.42606 0.0
H2881 H 0.94356 0.43611 0.38032 0.0
H2882 H 0.97334 0.44866 0.38039 0.0
H2883 H 0.97935 0.43611 0.43365 0.0
H2884 H 0.94989 0.42234 0.43305 0.0
H2885 H 1.00045 0.42115 0.41777 0.0
H2886 H 0.98868 0.47893 0.41728 0.0
H2887 H 0.97447 0.50467 0.40951 0.0
H2888 H 0.9913 0.49996 0.35786 0.0
H2889 H 1.0054 0.47404 0.36522 0.0
C2890 C 0.07992 0.44149 0.39281 0.0
C2891 C 0.0802 0.42598 0.38342 0.0
C2892 C 0.06427 0.44853 0.39541 0.0
C2893 C 0.04892 0.44017 0.38849 0.0
C2894 C 0.04959 0.42602 0.37728 0.0
C2895 C 0.0651 0.41887 0.37488 0.0
C2896 C 0.03223 0.44311 0.39602 0.0
C2897 C 0.02374 0.4575 0.39165 0.0
C2898 C 0.02404 0.43046 0.40643 0.0
C2899 C 0.03287 0.41542 0.41206 0.0
C2900 C 0.0262 0.3987 0.40715 0.0
C2901 C 0.03494 0.3846 0.41182 0.0
C2902 C 0.05034 0.38707 0.42146 0.0
C2903 C 0.05696 0.40363 0.42655 0.0
C2904 C 0.04824 0.41776 0.42196 0.0
C2905 C 0.95106 0.43673 0.39221 0.0
C2906 C 0.94464 0.42823 0.40664 0.0
C2907 C 0.9681 0.44402 0.39231 0.0
C2908 C 0.97876 0.44327 0.40701 0.0
C2909 C 0.97149 0.4367 0.4221 0.0
C2910 C 0.95465 0.4289 0.42181 0.0
C2911 C 0.99782 0.4453 0.40543 0.0
C2912 C 1.00694 0.4316 0.41082 0.0
C2913 C 1.00657 0.45888 0.39641 0.0
C2914 C 0.99808 0.47446 0.39182 0.0
C2915 C 0.98926 0.48329 0.40423 0.0
C2916 C 0.98124 0.49794 0.3999 0.0
C2917 C 0.98198 0.50394 0.3832 0.0
C2918 C 0.99076 0.49531 0.3708 0.0
C2919 C 0.9988 0.48065 0.37506 0.0
H2920 H 0.97576 0.51528 0.37988 0.0
H2921 H 0.05712 0.37614 0.42499 0.0
H2922 H 0.88788 0.45502 0.12238 0.0
H2923 H 0.90068 0.48418 0.12007 0.0
H2924 H 0.94303 0.47321 0.15342 0.0
H2925 H 0.93001 0.44348 0.15597 0.0
H2926 H 0.92996 0.50366 0.16195 0.0
H2927 H 0.95229 0.48071 0.1125 0.0
H2928 H 0.95315 0.46251 0.08647 0.0
H2929 H 0.91372 0.48947 0.06263 0.0
H2930 H 0.91239 0.50766 0.08859 0.0
H2931 H 0.9344 0.59369 0.14014 0.0
H2932 H 0.94701 0.56596 0.13915 0.0
H2933 H 0.89821 0.54111 0.1207 0.0
H2934 H 0.88546 0.56848 0.12226 0.0
H2935 H 0.93087 0.52997 0.10469 0.0
H2936 H 0.90248 0.54135 0.16048 0.0
H2937 H 0.90119 0.55931 0.18669 0.0
H2938 H 0.95468 0.55408 0.19782 0.0
H2939 H 0.95628 0.53625 0.17154 0.0
C2940 C 0.89995 0.45867 0.12922 0.0
C2941 C 0.90797 0.4469 0.13931 0.0
C2942 C 0.90736 0.47535 0.12774 0.0
C2943 C 0.92306 0.48072 0.13617 0.0
C2944 C 0.93104 0.46919 0.14659 0.0
C2945 C 0.92357 0.4523 0.14809 0.0
C2946 C 0.93002 0.49884 0.13468 0.0
C2947 C 0.93092 0.5094 0.14945 0.0
C2948 C 0.93148 0.50636 0.11839 0.0
C2949 C 0.9323 0.49563 0.10254 0.0
C2950 C 0.94376 0.48274 0.10173 0.0
C2951 C 0.94432 0.47241 0.08698 0.0
C2952 C 0.93351 0.47485 0.0729 0.0
C2953 C 0.92212 0.48763 0.07353 0.0
C2954 C 0.9215 0.498 0.08826 0.0
C2955 C 0.92653 0.58233 0.13551 0.0
C2956 C 0.90897 0.58308 0.13136 0.0
C2957 C 0.93374 0.56658 0.13494 0.0
C2958 C 0.92352 0.55161 0.12978 0.0
C2959 C 0.9063 0.5526 0.12457 0.0
C2960 C 0.89901 0.56818 0.12556 0.0
C2961 C 0.92961 0.53447 0.13183 0.0
C2962 C 0.93106 0.52417 0.11717 0.0
C2963 C 0.93061 0.5272 0.14817 0.0
C2964 C 0.92954 0.53766 0.16403 0.0
C2965 C 0.91397 0.54413 0.16849 0.0
C2966 C 0.91318 0.55427 0.18334 0.0
C2967 C 0.92786 0.55788 0.19389 0.0
C2968 C 0.94333 0.55131 0.18963 0.0
C2969 C 0.94419 0.54119 0.17476 0.0
H2970 H 0.92723 0.56573 0.20539 0.0
H2971 H 0.93395 0.46682 0.06149 0.0
H2972 H 0.96132 0.39718 0.66294 0.0
H2973 H 0.98974 0.41254 0.66124 0.0
H2974 H 0.96763 0.45415 0.63586 0.0
H2975 H 0.93885 0.43871 0.63766 0.0
H2976 H 0.99254 0.44147 0.6174 0.0
H2977 H 0.98979 0.46382 0.67287 0.0
H2978 H 0.98277 0.46482 0.70343 0.0
H2979 H 0.01732 0.42635 0.71377 0.0
H2980 H 0.02436 0.42489 0.68326 0.0
H2981 H 0.09201 0.44045 0.64305 0.0
H2982 H 0.06561 0.45516 0.64421 0.0
H2983 H 0.03748 0.41179 0.61812 0.0
H2984 H 0.06365 0.39716 0.61684 0.0
H2985 H 0.03898 0.44343 0.66208 0.0
H2986 H 1.00396 0.42162 0.59666 0.0
H2987 H 0.01097 0.42113 0.56611 0.0
H2988 H 0.05201 0.46087 0.5755 0.0
H2989 H 0.0451 0.46183 0.60609 0.0
C2990 C 0.96243 0.40979 0.65739 0.0
C2991 C 0.94795 0.4167 0.65029 0.0
C2992 C 0.97867 0.41866 0.65656 0.0
C2993 C 0.9808 0.43457 0.64854 0.0
C2994 C 0.96622 0.44196 0.64223 0.0
C2995 C 0.94984 0.43315 0.64328 0.0
C2996 C 0.99845 0.44162 0.64446 0.0
C2997 C 1.00274 0.44231 0.62714 0.0
C2998 C 0.01168 0.44347 0.65723 0.0
C2999 C 1.00765 0.44431 0.67571 0.0
C3000 C 0.99585 0.45552 0.68164 0.0
C3001 C 0.99186 0.45617 0.69897 0.0
C3002 C 0.99961 0.44567 0.71054 0.0
C3003 C 0.01137 0.43451 0.7048 0.0
C3004 C 0.0154 0.43381 0.68748 0.0
C3005 C 0.08029 0.43427 0.63714 0.0
C3006 C 0.07984 0.41755 0.63004 0.0
C3007 C 0.06523 0.44271 0.63781 0.0
C3008 C 0.0496 0.43465 0.63115 0.0
C3009 C 0.04944 0.41844 0.62305 0.0
C3010 C 0.06439 0.40998 0.62249 0.0
C3011 C 0.03296 0.44146 0.63503 0.0
C3012 C 0.02887 0.4434 0.65231 0.0
C3013 C 0.01993 0.4422 0.62222 0.0
C3014 C 0.02397 0.44182 0.60373 0.0
C3015 C 0.01437 0.4304 0.59222 0.0
C3016 C 0.01836 0.42999 0.57488 0.0
C3017 C 0.03193 0.44096 0.56886 0.0
C3018 C 0.04152 0.45237 0.58018 0.0
C3019 C 0.03758 0.45283 0.59753 0.0
H3020 H 0.035 0.44062 0.55544 0.0
H3021 H 0.99649 0.44618 0.72395 0.0
H3022 H 0.07086 0.60919 0.59271 0.0
H3023 H 0.04375 0.60127 0.60665 0.0
H3024 H 0.07161 0.59092 0.6531 0.0
H3025 H 0.09894 0.5985 0.63893 0.0
H3026 H 0.02571 0.57655 0.62655 0.0
H3027 H 0.05129 0.61856 0.68408 0.0
H3028 H 0.07579 0.63921 0.69321 0.0
H3029 H 0.08405 0.65281 0.64091 0.0
H3030 H 0.05914 0.63284 0.63159 0.0
H3031 H 0.94882 0.60606 0.66156 0.0
H3032 H 0.97662 0.59366 0.66362 0.0
H3033 H 1.00103 0.638 0.63901 0.0
H3034 H 0.97358 0.65041 0.637 0.0
H3035 H 0.02128 0.62745 0.66459 0.0
H3036 H 0.98577 0.60208 0.6158 0.0
H3037 H 0.96005 0.5851 0.60341 0.0
H3038 H 0.97121 0.54215 0.63377 0.0
H3039 H 0.99691 0.55898 0.64646 0.0
C3040 C 0.0712 0.60435 0.60559 0.0
C3041 C 0.08684 0.60452 0.61482 0.0
C3042 C 0.05572 0.59977 0.61355 0.0
C3043 C 0.05571 0.5958 0.63098 0.0
C3044 C 0.07141 0.594 0.63965 0.0
C3045 C 0.08697 0.59826 0.63154 0.0
C3046 C 0.03976 0.59765 0.64041 0.0
C3047 C 0.02477 0.58733 0.63533 0.0
C3048 C 0.03854 0.61185 0.65174 0.0
C3049 C 0.05367 0.62381 0.65711 0.0
C3050 C 0.05836 0.62595 0.67454 0.0
C3051 C 0.07221 0.63765 0.67976 0.0
C3052 C 0.08157 0.6472 0.66763 0.0
C3053 C 0.0769 0.64529 0.65028 0.0
C3054 C 0.06286 0.63382 0.64503 0.0
C3055 C 0.9602 0.61327 0.65687 0.0
C3056 C 0.95903 0.62913 0.64896 0.0
C3057 C 0.97603 0.60616 0.65805 0.0
C3058 C 0.99083 0.61488 0.6514 0.0
C3059 C 0.98978 0.63109 0.64431 0.0
C3060 C 0.97404 0.63813 0.64306 0.0
C3061 C 1.00721 0.60683 0.65011 0.0
C3062 C 0.02228 0.61601 0.65672 0.0
C3063 C 1.00847 0.5919 0.63985 0.0
C3064 C 0.99308 0.58183 0.63222 0.0
C3065 C 0.98265 0.58905 0.6199 0.0
C3066 C 0.9681 0.57946 0.61282 0.0
C3067 C 0.96396 0.56258 0.61785 0.0
C3068 C 0.9744 0.55525 0.62993 0.0
C3069 C 0.98895 0.5648 0.63707 0.0
H3070 H 0.95269 0.55517 0.61234 0.0
H3071 H 0.09241 0.65613 0.67169 0.0
H3072 H 0.92876 0.09629 0.35877 0.0
H3073 H 0.96005 0.09759 0.35542 0.0
H3074 H 0.96593 0.14649 0.38239 0.0
H3075 H 0.93472 0.14541 0.38547 0.0
H3076 H 0.98752 0.14755 0.35731 0.0
H3077 H 0.97375 0.10721 0.40162 0.0
H3078 H 0.95904 0.08137 0.41416 0.0
H3079 H 0.98067 0.04958 0.37636 0.0
H3080 H 0.99535 0.07528 0.36346 0.0
H3081 H 0.07277 0.1527 0.39035 0.0
H3082 H 0.04174 0.14974 0.38534 0.0
H3083 H 0.04585 0.10391 0.3547 0.0
H3084 H 0.07739 0.10682 0.35979 0.0
H3085 H 0.01941 0.09957 0.37789 0.0
H3086 H 0.03591 0.14073 0.33577 0.0
H3087 H 0.051 0.16704 0.32455 0.0
H3088 H 0.02444 0.19781 0.3595 0.0
H3089 H 1.00936 0.17167 0.37112 0.0
C3090 C 0.93667 0.10744 0.36378 0.0
C3091 C 0.92907 0.12074 0.37239 0.0
C3092 C 0.95467 0.10811 0.362 0.0
C3093 C 0.96562 0.12201 0.3689 0.0
C3094 C 0.95795 0.13557 0.37695 0.0
C3095 C 0.94 0.13493 0.3787 0.0
C3096 C 0.98499 0.1224 0.36813 0.0
C3097 C 0.99443 0.13707 0.36194 0.0
C3098 C 0.99427 0.10863 0.37372 0.0
C3099 C 0.98547 0.09318 0.38145 0.0
C3100 C 0.97526 0.09472 0.3959 0.0
C3101 C 0.96695 0.0801 0.40309 0.0
C3102 C 0.96888 0.06385 0.39603 0.0
C3103 C 0.97916 0.06218 0.38179 0.0
C3104 C 0.98748 0.07677 0.37454 0.0
C3105 C 0.06721 0.14204 0.38235 0.0
C3106 C 0.07776 0.13002 0.37545 0.0
C3107 C 0.04933 0.1404 0.37944 0.0
C3108 C 0.04124 0.12667 0.36952 0.0
C3109 C 0.05169 0.11468 0.36237 0.0
C3110 C 0.06977 0.11642 0.36517 0.0
C3111 C 0.02189 0.12481 0.36731 0.0
C3112 C 0.01246 0.10992 0.37301 0.0
C3113 C 0.01261 0.13844 0.3614 0.0
C3114 C 0.02159 0.15421 0.35439 0.0
C3115 C 0.03337 0.1531 0.34115 0.0
C3116 C 0.04191 0.16799 0.33471 0.0
C3117 C 0.0387 0.18408 0.34133 0.0
C3118 C 0.02692 0.18533 0.35439 0.0
C3119 C 0.01835 0.17048 0.36089 0.0
H3120 H 0.04533 0.1956 0.33632 0.0
H3121 H 0.96244 0.05254 0.40161 0.0
H3122 H 0.39707 0.45191 0.84465 0.0
H3123 H 0.39963 0.48321 0.84061 0.0
H3124 H 0.41018 0.49149 0.89468 0.0
H3125 H 0.40764 0.46065 0.89874 0.0
H3126 H 0.38577 0.51072 0.8848 0.0
H3127 H 0.44146 0.49934 0.86365 0.0
H3128 H 0.46125 0.48554 0.8447 0.0
H3129 H 0.43722 0.50642 0.80079 0.0
H3130 H 0.41713 0.52017 0.81948 0.0
H3131 H 0.40955 0.59928 0.89317 0.0
H3132 H 0.41103 0.56822 0.89216 0.0
H3133 H 0.40125 0.56738 0.83763 0.0
H3134 H 0.39999 0.59863 0.83853 0.0
H3135 H 0.42376 0.54425 0.84525 0.0
H3136 H 0.36878 0.55607 0.8654 0.0
H3137 H 0.34815 0.56972 0.8835 0.0
H3138 H 0.36944 0.54752 0.92814 0.0
H3139 H 0.39036 0.53392 0.91032 0.0
C3140 C 0.40032 0.4604 0.85559 0.0
C3141 C 0.4021 0.45358 0.87203 0.0
C3142 C 0.40173 0.47837 0.85329 0.0
C3143 C 0.40501 0.48994 0.86736 0.0
C3144 C 0.40747 0.48304 0.88359 0.0
C3145 C 0.40608 0.46526 0.88587 0.0
C3146 C 0.40506 0.50916 0.8657 0.0
C3147 C 0.39427 0.518 0.87627 0.0
C3148 C 0.41561 0.51886 0.85417 0.0
C3149 C 0.42767 0.51061 0.84295 0.0
C3150 C 0.4403 0.50086 0.84994 0.0
C3151 C 0.45159 0.49308 0.83925 0.0
C3152 C 0.45046 0.49506 0.82155 0.0
C3153 C 0.43806 0.50487 0.8145 0.0
C3154 C 0.42673 0.51267 0.82514 0.0
C3155 C 0.40798 0.5926 0.88087 0.0
C3156 C 0.40461 0.60164 0.86593 0.0
C3157 C 0.4087 0.5747 0.88033 0.0
C3158 C 0.4059 0.56517 0.86486 0.0
C3159 C 0.40339 0.57426 0.84977 0.0
C3160 C 0.4027 0.59222 0.8503 0.0
C3161 C 0.40482 0.54578 0.86469 0.0
C3162 C 0.41528 0.53693 0.85376 0.0
C3163 C 0.39383 0.53599 0.87577 0.0
C3164 C 0.38124 0.5441 0.88654 0.0
C3165 C 0.36914 0.5542 0.87909 0.0
C3166 C 0.35739 0.56191 0.8893 0.0
C3167 C 0.35751 0.55952 0.90696 0.0
C3168 C 0.36937 0.54938 0.91445 0.0
C3169 C 0.38117 0.54165 0.90431 0.0
H3170 H 0.3484 0.5655 0.91484 0.0
H3171 H 0.45921 0.48902 0.81329 0.0
H3172 H 0.08431 0.88974 0.38954 0.0
H3173 H 0.05314 0.8905 0.38602 0.0
H3174 H 0.06103 0.93311 0.3522 0.0
H3175 H 0.09243 0.93266 0.35596 0.0
H3176 H 0.03307 0.91733 0.39444 0.0
H3177 H 0.0254 0.9277 0.32216 0.0
H3178 H 0.04004 0.92174 0.29532 0.0
H3179 H 0.06064 0.8781 0.31784 0.0
H3180 H 0.04594 0.88367 0.34471 0.0
H3181 H 0.94565 0.9351 0.37583 0.0
H3182 H 0.97725 0.93818 0.37356 0.0
H3183 H 0.97613 0.88521 0.357 0.0
H3184 H 0.94477 0.88198 0.35973 0.0
H3185 H 1.00077 0.90772 0.33909 0.0
H3186 H 0.98396 0.89335 0.39668 0.0
H3187 H 0.96933 0.89771 0.42386 0.0
H3188 H 0.99785 0.94701 0.43119 0.0
H3189 H 0.01247 0.94304 0.4039 0.0
C3190 C 0.0795 0.8992 0.38118 0.0
C3191 C 0.09104 0.9111 0.37298 0.0
C3192 C 0.06158 0.89969 0.37928 0.0
C3193 C 0.05456 0.91188 0.36888 0.0
C3194 C 0.06601 0.92352 0.36028 0.0
C3195 C 0.08402 0.92323 0.3624 0.0
C3196 C 0.03532 0.91247 0.3674 0.0
C3197 C 0.02608 0.91539 0.38227 0.0
C3198 C 0.02597 0.90983 0.35163 0.0
C3199 C 0.03474 0.90625 0.3355 0.0
C3200 C 0.03302 0.91682 0.32136 0.0
C3201 C 0.04133 0.9135 0.30615 0.0
C3202 C 0.05132 0.89959 0.3049 0.0
C3203 C 0.05297 0.88892 0.31885 0.0
C3204 C 0.04468 0.89217 0.33408 0.0
C3205 C 0.95209 0.92428 0.37118 0.0
C3206 C 0.9426 0.90834 0.36776 0.0
C3207 C 0.97021 0.926 0.37004 0.0
C3208 C 0.97922 0.91191 0.36516 0.0
C3209 C 0.96961 0.89632 0.36072 0.0
C3210 C 0.95161 0.89449 0.36223 0.0
C3211 C 0.9986 0.91281 0.36609 0.0
C3212 C 1.00782 0.91004 0.35117 0.0
C3213 C 1.00797 0.91555 0.38183 0.0
C3214 C 0.99914 0.91798 0.39817 0.0
C3215 C 0.98698 0.90519 0.404 0.0
C3216 C 0.97872 0.90758 0.41944 0.0
C3217 C 0.98264 0.92264 0.42922 0.0
C3218 C 0.99481 0.93536 0.42358 0.0
C3219 C 1.00309 0.93305 0.40814 0.0
H3220 H 0.97631 0.92442 0.4412 0.0
H3221 H 0.05775 0.89705 0.29311 0.0
H3222 H 0.627 0.42103 0.83998 0.0
H3223 H 0.62472 0.45202 0.83856 0.0
H3224 H 0.62234 0.45519 0.89358 0.0
H3225 H 0.62413 0.42423 0.895 0.0
H3226 H 0.60144 0.47583 0.88128 0.0
H3227 H 0.6604 0.46697 0.86981 0.0
H3228 H 0.684 0.45481 0.85456 0.0
H3229 H 0.66781 0.47726 0.80788 0.0
H3230 H 0.64397 0.48938 0.82282 0.0
H3231 H 0.63068 0.56223 0.90005 0.0
H3232 H 0.6267 0.53125 0.89594 0.0
H3233 H 0.62422 0.53712 0.84127 0.0
H3234 H 0.62842 0.56863 0.84535 0.0
H3235 H 0.64529 0.51212 0.85016 0.0
H3236 H 0.58789 0.52364 0.86339 0.0
H3237 H 0.56535 0.53634 0.87977 0.0
H3238 H 0.57961 0.50919 0.92434 0.0
H3239 H 0.60239 0.4965 0.9083 0.0
C3240 C 0.62575 0.42827 0.85177 0.0
C3241 C 0.62574 0.41996 0.86761 0.0
C3242 C 0.62462 0.44612 0.85097 0.0
C3243 C 0.62369 0.45628 0.86599 0.0
C3244 C 0.62308 0.44787 0.88174 0.0
C3245 C 0.6241 0.43004 0.88255 0.0
C3246 C 0.62365 0.47561 0.86547 0.0
C3247 C 0.61115 0.4837 0.87456 0.0
C3248 C 0.63598 0.48616 0.85638 0.0
C3249 C 0.65029 0.4789 0.84738 0.0
C3250 C 0.6618 0.4692 0.85626 0.0
C3251 C 0.67523 0.46233 0.84768 0.0
C3252 C 0.67737 0.46521 0.83025 0.0
C3253 C 0.66611 0.47501 0.82137 0.0
C3254 C 0.65265 0.48188 0.82989 0.0
C3255 C 0.62909 0.55707 0.88708 0.0
C3256 C 0.62983 0.56813 0.87303 0.0
C3257 C 0.62674 0.5392 0.88476 0.0
C3258 C 0.62498 0.53159 0.86829 0.0
C3259 C 0.62548 0.54255 0.85414 0.0
C3260 C 0.62773 0.56061 0.85648 0.0
C3261 C 0.62325 0.51228 0.86619 0.0
C3262 C 0.63545 0.50421 0.85667 0.0
C3263 C 0.61074 0.50173 0.87501 0.0
C3264 C 0.59693 0.5092 0.88466 0.0
C3265 C 0.58629 0.52046 0.87672 0.0
C3266 C 0.57346 0.52764 0.88594 0.0
C3267 C 0.57107 0.5236 0.90309 0.0
C3268 C 0.58147 0.51231 0.91105 0.0
C3269 C 0.59433 0.5051 0.90189 0.0
H3270 H 0.56114 0.52918 0.91021 0.0
H3271 H 0.68778 0.45989 0.82362 0.0
H3272 H 0.96819 0.90199 0.67563 0.0
H3273 H 0.9998 0.90482 0.67932 0.0
H3274 H 1.0047 0.91581 0.62572 0.0
H3275 H 0.97346 0.91249 0.62199 0.0
H3276 H 0.025 0.89313 0.6325 0.0
H3277 H 0.01505 0.94653 0.66048 0.0
H3278 H 1.00234 0.96521 0.68161 0.0
H3279 H 0.02475 0.93833 0.72264 0.0
H3280 H 0.03742 0.91934 0.70174 0.0
H3281 H 0.11408 0.91578 0.62824 0.0
H3282 H 0.08315 0.91857 0.62925 0.0
H3283 H 0.08293 0.90241 0.68162 0.0
H3284 H 0.11407 0.89989 0.6808 0.0
H3285 H 0.06051 0.92689 0.67704 0.0
H3286 H 0.07074 0.87385 0.64853 0.0
H3287 H 0.08416 0.85607 0.6271 0.0
H3288 H 0.06122 0.88317 0.58654 0.0
H3289 H 0.04783 0.90127 0.60775 0.0
C3290 C 0.97603 0.90547 0.66477 0.0
C3291 C 0.9682 0.90707 0.64852 0.0
C3292 C 0.99418 0.90703 0.66685 0.0
C3293 C 1.00492 0.9105 0.65278 0.0
C3294 C 0.99696 0.91295 0.6368 0.0
C3295 C 0.97897 0.91119 0.6347 0.0
C3296 C 0.02431 0.91056 0.65416 0.0
C3297 C 0.03268 0.90075 0.64214 0.0
C3298 C 0.03462 0.92002 0.66697 0.0
C3299 C 0.02702 0.93139 0.67955 0.0
C3300 C 0.01715 0.94451 0.67401 0.0
C3301 C 1.00998 0.95517 0.68594 0.0
C3302 C 0.0127 0.95292 0.70346 0.0
C3303 C 0.02263 0.94003 0.70907 0.0
C3304 C 0.02982 0.92933 0.69718 0.0
C3305 C 0.10758 0.91311 0.64012 0.0
C3306 C 0.11671 0.90754 0.65442 0.0
C3307 C 0.08976 0.9146 0.64064 0.0
C3308 C 0.08044 0.91035 0.6554 0.0
C3309 C 0.08968 0.9057 0.67003 0.0
C3310 C 0.10757 0.90428 0.66954 0.0
C3311 C 0.06104 0.90979 0.65516 0.0
C3312 C 0.05273 0.91935 0.66741 0.0
C3313 C 0.05072 0.90016 0.64251 0.0
C3314 C 0.05838 0.889 0.62973 0.0
C3315 C 0.0686 0.87606 0.63504 0.0
C3316 C 0.07621 0.86592 0.62294 0.0
C3317 C 0.07356 0.86851 0.60547 0.0
C3318 C 0.06325 0.88119 0.60008 0.0
C3319 C 0.05564 0.89137 0.61214 0.0
H3320 H 0.07949 0.86068 0.59612 0.0
H3321 H 1.00714 0.96119 0.71268 0.0
H3322 H 0.59155 0.43109 0.15763 0.0
H3323 H 0.59229 0.46244 0.16023 0.0
H3324 H 0.64653 0.46689 0.1498 0.0
H3325 H 0.64588 0.43557 0.14722 0.0
H3326 H 0.63996 0.4899 0.1745 0.0
H3327 H 0.61576 0.47355 0.1187 0.0
H3328 H 0.59512 0.4579 0.09823 0.0
H3329 H 0.55335 0.48114 0.12154 0.0
H3330 H 0.57372 0.49675 0.14232 0.0
H3331 H 0.65492 0.57457 0.14517 0.0
H3332 H 0.65118 0.54389 0.14996 0.0
H3333 H 0.59692 0.54695 0.15741 0.0
H3334 H 0.6006 0.57805 0.15222 0.0
H3335 H 0.60122 0.52019 0.13675 0.0
H3336 H 0.62574 0.53845 0.19116 0.0
H3337 H 0.64641 0.55411 0.21158 0.0
H3338 H 0.68743 0.52734 0.19129 0.0
H3339 H 0.66705 0.51169 0.17058 0.0
C3340 C 0.60372 0.43869 0.15614 0.0
C3341 C 0.61867 0.43063 0.15224 0.0
C3342 C 0.6041 0.45672 0.15749 0.0
C3343 C 0.61942 0.46728 0.15498 0.0
C3344 C 0.6345 0.45921 0.15177 0.0
C3345 C 0.63411 0.4412 0.15032 0.0
C3346 C 0.61972 0.48664 0.15521 0.0
C3347 C 0.63157 0.49648 0.16612 0.0
C3348 C 0.60849 0.49548 0.14469 0.0
C3349 C 0.59624 0.48616 0.13218 0.0
C3350 C 0.60215 0.47522 0.11955 0.0
C3351 C 0.59051 0.46637 0.10788 0.0
C3352 C 0.57293 0.46848 0.10862 0.0
C3353 C 0.56696 0.47949 0.12101 0.0
C3354 C 0.57855 0.48834 0.13273 0.0
C3355 C 0.64218 0.56888 0.14816 0.0
C3356 C 0.62809 0.57901 0.1484 0.0
C3357 C 0.64006 0.55118 0.15096 0.0
C3358 C 0.62378 0.54282 0.15424 0.0
C3359 C 0.60967 0.55294 0.15497 0.0
C3360 C 0.61181 0.57082 0.1522 0.0
C3361 C 0.62161 0.5235 0.15594 0.0
C3362 C 0.60947 0.51364 0.14531 0.0
C3363 C 0.63256 0.51464 0.16676 0.0
C3364 C 0.64487 0.52398 0.17923 0.0
C3365 C 0.63919 0.53599 0.19097 0.0
C3366 C 0.65085 0.54485 0.20261 0.0
C3367 C 0.66823 0.54174 0.20271 0.0
C3368 C 0.67397 0.52974 0.1912 0.0
C3369 C 0.66236 0.52085 0.17952 0.0
H3370 H 0.67724 0.54862 0.21174 0.0
H3371 H 0.56393 0.46163 0.09957 0.0
H3372 H 0.92724 0.11809 0.62371 0.0
H3373 H 0.95834 0.11615 0.62499 0.0
H3374 H 0.9553 0.10154 0.67774 0.0
H3375 H 0.92399 0.10377 0.67665 0.0
H3376 H 0.98296 0.13508 0.64561 0.0
H3377 H 0.98901 0.07404 0.68417 0.0
H3378 H 0.97222 0.04659 0.68996 0.0
H3379 H 0.94557 0.04831 0.64138 0.0
H3380 H 0.96236 0.07563 0.63521 0.0
H3381 H 0.0725 0.13017 0.66557 0.0
H3382 H 0.04138 0.12763 0.67094 0.0
H3383 H 0.033 0.08969 0.63013 0.0
H3384 H 0.06388 0.09247 0.62452 0.0
H3385 H 0.01121 0.08228 0.65828 0.0
H3386 H 0.02837 0.12942 0.62124 0.0
H3387 H 0.04536 0.15636 0.61413 0.0
H3388 H 0.02518 0.18187 0.65742 0.0
H3389 H 1.00827 0.15498 0.66493 0.0
C3390 C 0.93306 0.11424 0.63558 0.0
C3391 C 0.92292 0.11102 0.65006 0.0
C3392 C 0.95097 0.11326 0.63631 0.0
C3393 C 0.95936 0.10876 0.65146 0.0
C3394 C 0.94924 0.105 0.66585 0.0
C3395 C 0.93127 0.10622 0.66519 0.0
C3396 C 0.97867 0.10846 0.65213 0.0
C3397 C 0.98908 0.12354 0.64855 0.0
C3398 C 0.98688 0.09346 0.65586 0.0
C3399 C 0.9768 0.07698 0.65934 0.0
C3400 C 0.97959 0.06853 0.67471 0.0
C3401 C 0.97007 0.053 0.67806 0.0
C3402 C 0.95779 0.04575 0.66607 0.0
C3403 C 0.95503 0.05398 0.65069 0.0
C3404 C 0.96453 0.06951 0.64728 0.0
C3405 C 0.06411 0.12084 0.65816 0.0
C3406 C 0.07078 0.11139 0.64472 0.0
C3407 C 0.04625 0.11952 0.66112 0.0
C3408 C 0.03468 0.10854 0.65086 0.0
C3409 C 0.04152 0.09822 0.63828 0.0
C3410 C 0.05926 0.09978 0.63511 0.0
C3411 C 0.01545 0.10895 0.65195 0.0
C3412 C 1.00508 0.09389 0.65572 0.0
C3413 C 1.00722 0.12396 0.64836 0.0
C3414 C 0.01722 0.14015 0.64375 0.0
C3415 C 0.02766 0.14074 0.62931 0.0
C3416 C 0.03726 0.156 0.6252 0.0
C3417 C 0.03639 0.1708 0.63535 0.0
C3418 C 0.02587 0.17038 0.64959 0.0
C3419 C 0.01628 0.15514 0.65378 0.0
H3420 H 0.04383 0.18261 0.63215 0.0
H3421 H 0.95043 0.03373 0.66869 0.0
H3422 H 0.37553 0.57967 0.13284 0.0
H3423 H 0.37517 0.54862 0.13573 0.0
H3424 H 0.42572 0.55508 0.15988 0.0
H3425 H 0.42628 0.58627 0.15669 0.0
H3426 H 0.42485 0.52927 0.13768 0.0
H3427 H 0.38785 0.54314 0.18264 0.0
H3428 H 0.36364 0.55616 0.19598 0.0
H3429 H 0.32779 0.52631 0.16219 0.0
H3430 H 0.35181 0.51327 0.14849 0.0
H3431 H 0.41944 0.43842 0.15607 0.0
H3432 H 0.42228 0.46995 0.15981 0.0
H3433 H 0.37292 0.47221 0.1343 0.0
H3434 H 0.36998 0.44115 0.1307 0.0
H3435 H 0.37504 0.4938 0.16058 0.0
H3436 H 0.41239 0.48194 0.11416 0.0
H3437 H 0.43665 0.46913 0.10069 0.0
H3438 H 0.47194 0.49525 0.13766 0.0
H3439 H 0.44783 0.50805 0.15149 0.0
C3440 C 0.3865 0.57457 0.13901 0.0
C3441 C 0.40087 0.58568 0.14466 0.0
C3442 C 0.38627 0.55668 0.1407 0.0
C3443 C 0.40034 0.54922 0.14822 0.0
C3444 C 0.41465 0.56031 0.15404 0.0
C3445 C 0.4149 0.57825 0.15233 0.0
C3446 C 0.40023 0.52993 0.14951 0.0
C3447 C 0.41407 0.52159 0.143 0.0
C3448 C 0.38614 0.5196 0.15619 0.0
C3449 C 0.37165 0.52733 0.16445 0.0
C3450 C 0.37481 0.53944 0.17798 0.0
C3451 C 0.36112 0.54681 0.18562 0.0
C3452 C 0.34419 0.54209 0.17991 0.0
C3453 C 0.34092 0.52996 0.16659 0.0
C3454 C 0.35456 0.52256 0.1589 0.0
C3455 C 0.40913 0.44563 0.15142 0.0
C3456 C 0.3945 0.43705 0.14302 0.0
C3457 C 0.41081 0.46374 0.15345 0.0
C3458 C 0.39789 0.47373 0.14719 0.0
C3459 C 0.38313 0.46505 0.13928 0.0
C3460 C 0.3815 0.44712 0.13717 0.0
C3461 C 0.39949 0.49313 0.14848 0.0
C3462 C 0.38591 0.5015 0.15545 0.0
C3463 C 0.41382 0.50347 0.14226 0.0
C3464 C 0.42829 0.49577 0.13398 0.0
C3465 C 0.4253 0.48483 0.1195 0.0
C3466 C 0.43903 0.4776 0.11178 0.0
C3467 C 0.45582 0.48133 0.11835 0.0
C3468 C 0.45892 0.49234 0.13261 0.0
C3469 C 0.44524 0.49959 0.14039 0.0
H3470 H 0.46643 0.47573 0.11235 0.0
H3471 H 0.33361 0.54781 0.18584 0.0
H3472 H 0.38909 0.07757 0.14845 0.0
H3473 H 0.38581 0.04647 0.14538 0.0
H3474 H 0.36289 0.05031 0.09506 0.0
H3475 H 0.36607 0.08196 0.09813 0.0
H3476 H 0.34715 0.02238 0.11308 0.0
H3477 H 0.40451 0.04273 0.09881 0.0
H3478 H 0.43265 0.05961 0.10283 0.0
H3479 H 0.44203 0.03322 0.14927 0.0
H3480 H 0.41382 0.01635 0.14567 0.0
H3481 H 0.36257 0.93419 0.0931 0.0
H3482 H 0.36024 0.96526 0.09326 0.0
H3483 H 0.38846 0.97053 0.14148 0.0
H3484 H 0.39106 0.93964 0.14122 0.0
H3485 H 0.40115 0.99422 0.12146 0.0
H3486 H 0.34325 0.97484 0.13651 0.0
H3487 H 0.31489 0.95828 0.13286 0.0
H3488 H 0.30649 0.98265 0.08505 0.0
H3489 H 0.33491 0.99921 0.08832 0.0
C3490 C 0.38315 0.07194 0.13673 0.0
C3491 C 0.37799 0.08249 0.12347 0.0
C3492 C 0.38134 0.054 0.13498 0.0
C3493 C 0.37445 0.04583 0.11984 0.0
C3494 C 0.36836 0.05621 0.10686 0.0
C3495 C 0.37014 0.07435 0.10864 0.0
C3496 C 0.37455 0.02661 0.11762 0.0
C3497 C 0.35901 0.01624 0.11461 0.0
C3498 C 0.38992 0.01836 0.11989 0.0
C3499 C 0.40698 0.02837 0.12203 0.0
C3500 C 0.41252 0.04061 0.10994 0.0
C3501 C 0.42849 0.05016 0.11214 0.0
C3502 C 0.43911 0.04751 0.12632 0.0
C3503 C 0.43379 0.03527 0.1383 0.0
C3504 C 0.41781 0.02569 0.13618 0.0
C3505 C 0.36805 0.94191 0.10388 0.0
C3506 C 0.37695 0.93422 0.11718 0.0
C3507 C 0.36669 0.95978 0.10398 0.0
C3508 C 0.37409 0.97052 0.11744 0.0
C3509 C 0.38265 0.96275 0.13088 0.0
C3510 C 0.38405 0.94495 0.13076 0.0
C3511 C 0.37369 0.98983 0.11729 0.0
C3512 C 0.38926 1.00027 0.11983 0.0
C3513 C 0.35835 0.99807 0.11457 0.0
C3514 C 0.34129 0.98811 0.11257 0.0
C3515 C 0.33541 0.97656 0.12515 0.0
C3516 C 0.31932 0.9672 0.12316 0.0
C3517 C 0.30891 0.96937 0.1087 0.0
C3518 C 0.31457 0.98096 0.09622 0.0
C3519 C 0.33067 0.99034 0.09814 0.0
H3520 H 0.29645 0.96212 0.10719 0.0
H3521 H 0.45147 0.05493 0.128 0.0
H3522 H 0.46886 0.89819 0.61837 0.0
H3523 H 0.50009 0.89793 0.61639 0.0
H3524 H 0.49498 0.84272 0.61904 0.0
H3525 H 0.46365 0.84291 0.62063 0.0
H3526 H 0.5225 0.88964 0.63823 0.0
H3527 H 0.52959 0.82539 0.60172 0.0
H3528 H 0.51457 0.8073 0.57876 0.0
H3529 H 0.49276 0.85138 0.55856 0.0
H3530 H 0.50782 0.86977 0.58125 0.0
H3531 H 0.60456 0.86506 0.65658 0.0
H3532 H 0.5736 0.86384 0.65105 0.0
H3533 H 0.58232 0.87328 0.59768 0.0
H3534 H 0.61371 0.87403 0.60317 0.0
H3535 H 0.55361 0.8515 0.60084 0.0
H3536 H 0.57396 0.90592 0.62635 0.0
H3537 H 0.58939 0.92551 0.64793 0.0
H3538 H 0.55641 0.90465 0.68697 0.0
H3539 H 0.54104 0.88466 0.66578 0.0
C3540 C 0.4743 0.88594 0.6182 0.0
C3541 C 0.46356 0.87056 0.61958 0.0
C3542 C 0.49228 0.88581 0.61717 0.0
C3543 C 0.50018 0.87031 0.6175 0.0
C3544 C 0.48942 0.85489 0.61845 0.0
C3545 C 0.47139 0.85501 0.61939 0.0
C3546 C 0.5196 0.87046 0.61795 0.0
C3547 C 0.52921 0.88129 0.62998 0.0
C3548 C 0.5287 0.85984 0.60709 0.0
C3549 C 0.51971 0.84892 0.5933 0.0
C3550 C 0.52164 0.83123 0.59234 0.0
C3551 C 0.51311 0.82092 0.57938 0.0
C3552 C 0.50268 0.82818 0.56724 0.0
C3553 C 0.50079 0.84576 0.56801 0.0
C3554 C 0.50931 0.85613 0.58093 0.0
C3555 C 0.59997 0.86665 0.64357 0.0
C3556 C 0.61175 0.86976 0.63035 0.0
C3557 C 0.58215 0.86606 0.64043 0.0
C3558 C 0.5754 0.86894 0.62402 0.0
C3559 C 0.58707 0.87114 0.61052 0.0
C3560 C 0.60506 0.87152 0.61364 0.0
C3561 C 0.55633 0.87035 0.6214 0.0
C3562 C 0.54683 0.85986 0.60902 0.0
C3563 C 0.5473 0.88151 0.63175 0.0
C3564 C 0.55641 0.8937 0.64448 0.0
C3565 C 0.57006 0.90544 0.63956 0.0
C3566 C 0.57879 0.91661 0.65171 0.0
C3567 C 0.57388 0.91632 0.66877 0.0
C3568 C 0.56021 0.90486 0.67374 0.0
C3569 C 0.55148 0.8936 0.66167 0.0
H3570 H 0.58065 0.92499 0.67815 0.0
H3571 H 0.49608 0.82017 0.55722 0.0
H3572 H 0.62927 0.07523 0.14422 0.0
H3573 H 0.63218 0.04443 0.14376 0.0
H3574 H 0.66265 0.04966 0.09856 0.0
H3575 H 0.65945 0.08063 0.09876 0.0
H3576 H 0.64049 0.02208 0.0946 0.0
H3577 H 0.68048 0.04197 0.13964 0.0
H3578 H 0.69031 0.05749 0.16639 0.0
H3579 H 0.65243 0.02698 0.19433 0.0
H3580 H 0.64219 0.01147 0.16772 0.0
H3581 H 0.65674 0.93243 0.09993 0.0
H3582 H 0.66132 0.964 0.09857 0.0
H3583 H 0.63191 0.9687 0.14417 0.0
H3584 H 0.62767 0.9377 0.14577 0.0
H3585 H 0.65756 0.99168 0.14644 0.0
H3586 H 0.61551 0.97417 0.10156 0.0
H3587 H 0.6048 0.95873 0.07502 0.0
H3588 H 0.64587 0.9846 0.04715 0.0
H3589 H 0.65695 1.00004 0.07358 0.0
C3590 C 0.6368 0.06994 0.13427 0.0
C3591 C 0.64424 0.08063 0.12162 0.0
C3592 C 0.6385 0.05219 0.13404 0.0
C3593 C 0.64785 0.04445 0.12125 0.0
C3594 C 0.6554 0.05512 0.10863 0.0
C3595 C 0.65367 0.07294 0.10884 0.0
C3596 C 0.64931 0.02527 0.1209 0.0
C3597 C 0.64454 0.01552 0.10589 0.0
C3598 C 0.6543 0.01637 0.1356 0.0
C3599 C 0.66049 0.02564 0.15165 0.0
C3600 C 0.67417 0.03866 0.15147 0.0
C3601 C 0.67982 0.04745 0.16662 0.0
C3602 C 0.67197 0.04327 0.18205 0.0
C3603 C 0.65848 0.03025 0.18237 0.0
C3604 C 0.65276 0.02143 0.16726 0.0
C3605 C 0.65146 0.94021 0.10978 0.0
C3606 C 0.64175 0.93231 0.12291 0.0
C3607 C 0.65394 0.95834 0.10891 0.0
C3608 C 0.64677 0.96903 0.12115 0.0
C3609 C 0.63762 0.96103 0.13451 0.0
C3610 C 0.63514 0.94311 0.13536 0.0
C3611 C 0.64836 0.98843 0.12028 0.0
C3612 C 0.6537 0.99825 0.13509 0.0
C3613 C 0.64381 0.99735 0.10544 0.0
C3614 C 0.63718 0.98809 0.08957 0.0
C3615 C 0.62233 0.97646 0.08979 0.0
C3616 C 0.61618 0.96773 0.07477 0.0
C3617 C 0.62468 0.97064 0.05942 0.0
C3618 C 0.63932 0.98233 0.05906 0.0
C3619 C 0.64554 0.99107 0.07405 0.0
H3620 H 0.6199 0.96387 0.0478 0.0
H3621 H 0.67638 0.05009 0.19376 0.0
H3622 H 0.56788 0.12366 0.62454 0.0
H3623 H 0.53675 0.12448 0.62141 0.0
H3624 H 0.54393 0.17812 0.60935 0.0
H3625 H 0.57526 0.17745 0.61289 0.0
H3626 H 0.51837 0.1738 0.63049 0.0
H3627 H 0.53071 0.14549 0.5783 0.0
H3628 H 0.54302 0.12412 0.55971 0.0
H3629 H 0.51324 0.08338 0.58449 0.0
H3630 H 0.50091 0.10449 0.60339 0.0
H3631 H 0.42624 0.17154 0.61199 0.0
H3632 H 0.45774 0.17517 0.60833 0.0
H3633 H 0.46129 0.12282 0.62313 0.0
H3634 H 0.43033 0.11914 0.62665 0.0
H3635 H 0.48151 0.12944 0.59705 0.0
H3636 H 0.47167 0.15806 0.65105 0.0
H3637 H 0.45945 0.17962 0.66951 0.0
H3638 H 0.48452 0.22017 0.64044 0.0
H3639 H 0.49671 0.19882 0.62167 0.0
C3640 C 0.56292 0.13561 0.62098 0.0
C3641 C 0.57427 0.15045 0.61884 0.0
C3642 C 0.54498 0.13606 0.61914 0.0
C3643 C 0.53771 0.15132 0.6149 0.0
C3644 C 0.54903 0.16614 0.61259 0.0
C3645 C 0.56703 0.16571 0.61449 0.0
C3646 C 0.51837 0.15179 0.61345 0.0
C3647 C 0.51038 0.16426 0.62289 0.0
C3648 C 0.50765 0.13932 0.60373 0.0
C3649 C 0.51498 0.12658 0.59235 0.0
C3650 C 0.52687 0.13196 0.57986 0.0
C3651 C 0.53384 0.1199 0.56926 0.0
C3652 C 0.52894 0.1024 0.57094 0.0
C3653 C 0.51703 0.09694 0.58321 0.0
C3654 C 0.51003 0.10895 0.59386 0.0
C3655 C 0.43373 0.16078 0.61427 0.0
C3656 C 0.42558 0.14507 0.6197 0.0
C3657 C 0.45181 0.16288 0.6123 0.0
C3658 C 0.46214 0.14931 0.6156 0.0
C3659 C 0.45385 0.13355 0.62048 0.0
C3660 C 0.43598 0.13149 0.62256 0.0
C3661 C 0.48153 0.15118 0.61439 0.0
C3662 C 0.48953 0.13911 0.60446 0.0
C3663 C 0.49223 0.16405 0.62358 0.0
C3664 C 0.48491 0.17686 0.63484 0.0
C3665 C 0.47445 0.17158 0.64852 0.0
C3666 C 0.46756 0.18375 0.65905 0.0
C3667 C 0.47116 0.20125 0.65611 0.0
C3668 C 0.48171 0.20661 0.64267 0.0
C3669 C 0.48861 0.19448 0.63209 0.0
H3670 H 0.46582 0.21066 0.66428 0.0
H3671 H 0.53435 0.09308 0.56271 0.0
H3672 H 0.34991 0.09758 0.89438 0.0
H3673 H 0.34674 0.06611 0.89716 0.0
H3674 H 0.40105 0.06458 0.88859 0.0
H3675 H 0.40411 0.09553 0.88546 0.0
H3676 H 0.38505 0.04123 0.86943 0.0
H3677 H 0.38076 0.05701 0.92899 0.0
H3678 H 0.36864 0.07115 0.95387 0.0
H3679 H 0.31943 0.04318 0.94324 0.0
H3680 H 0.33121 0.02903 0.91816 0.0
H3681 H 0.39934 0.95638 0.88997 0.0
H3682 H 0.39885 0.98755 0.89205 0.0
H3683 H 0.34351 0.98165 0.89513 0.0
H3684 H 0.34392 0.95031 0.89315 0.0
H3685 H 0.3574 1.00824 0.91643 0.0
H3686 H 0.36225 0.99169 0.85757 0.0
H3687 H 0.37469 0.97717 0.83312 0.0
H3688 H 0.42319 1.00685 0.84265 0.0
H3689 H 0.41112 0.02136 0.86735 0.0
C3690 C 0.3612 0.09054 0.89342 0.0
C3691 C 0.37725 0.09922 0.88963 0.0
C3692 C 0.3594 0.07247 0.89498 0.0
C3693 C 0.37365 0.06267 0.89304 0.0
C3694 C 0.38974 0.07154 0.88996 0.0
C3695 C 0.39149 0.0894 0.88825 0.0
C3696 C 0.37204 0.04324 0.89331 0.0
C3697 C 0.37917 0.03414 0.87988 0.0
C3698 C 0.36392 0.03361 0.90656 0.0
C3699 C 0.35682 0.04212 0.92159 0.0
C3700 C 0.36732 0.05399 0.93187 0.0
C3701 C 0.36052 0.06198 0.94603 0.0
C3702 C 0.34326 0.0581 0.9501 0.0
C3703 C 0.33278 0.04619 0.94005 0.0
C3704 C 0.33952 0.03817 0.92587 0.0
C3705 C 0.38704 0.96162 0.89135 0.0
C3706 C 0.37166 0.95065 0.89135 0.0
C3707 C 0.38677 0.97956 0.89244 0.0
C3708 C 0.37112 0.98718 0.89348 0.0
C3709 C 0.35579 0.97625 0.8943 0.0
C3710 C 0.35604 0.95825 0.89316 0.0
C3711 C 0.37082 1.00643 0.89281 0.0
C3712 C 0.36326 0.01543 0.90603 0.0
C3713 C 0.37858 0.01605 0.87939 0.0
C3714 C 0.38582 1.0075 0.86441 0.0
C3715 C 0.3756 0.99504 0.85453 0.0
C3716 C 0.38258 0.98682 0.84061 0.0
C3717 C 0.39973 0.99105 0.83636 0.0
C3718 C 0.40992 1.00356 0.84598 0.0
C3719 C 0.40301 0.0118 0.85993 0.0
H3720 H 0.40511 0.98467 0.82559 0.0
H3721 H 0.33802 0.0643 0.96106 0.0
H3722 H 0.58393 0.89552 0.36749 0.0
H3723 H 0.55274 0.89207 0.36983 0.0
H3724 H 0.55827 0.87675 0.42216 0.0
H3725 H 0.58994 0.88007 0.41981 0.0
H3726 H 0.5298 0.85848 0.40532 0.0
H3727 H 0.55056 0.91744 0.414 0.0
H3728 H 0.56723 0.94471 0.40745 0.0
H3729 H 0.53889 0.94682 0.35986 0.0
H3730 H 0.52222 0.91941 0.36602 0.0
H3731 H 0.4426 0.8774 0.42326 0.0
H3732 H 0.47373 0.87483 0.42333 0.0
H3733 H 0.47614 0.89466 0.37232 0.0
H3734 H 0.44517 0.89747 0.37229 0.0
H3735 H 0.501 0.91057 0.39112 0.0
H3736 H 0.48081 0.8511 0.38203 0.0
H3737 H 0.46438 0.82366 0.38845 0.0
H3738 H 0.49141 0.82253 0.43688 0.0
H3739 H 0.50785 0.8501 0.43084 0.0
C3740 C 0.57862 0.89114 0.37948 0.0
C3741 C 0.58961 0.8882 0.3935 0.0
C3742 C 0.56066 0.88925 0.38082 0.0
C3743 C 0.55296 0.88453 0.39629 0.0
C3744 C 0.5638 0.88052 0.41008 0.0
C3745 C 0.58195 0.88234 0.40871 0.0
C3746 C 0.53375 0.88488 0.39804 0.0
C3747 C 0.52354 0.86996 0.40248 0.0
C3748 C 0.52534 0.89972 0.3941 0.0
C3749 C 0.53523 0.91629 0.39042 0.0
C3750 C 0.54796 0.92366 0.40209 0.0
C3751 C 0.5574 0.93915 0.39845 0.0
C3752 C 0.55414 0.94748 0.38323 0.0
C3753 C 0.54141 0.94035 0.37164 0.0
C3754 C 0.53195 0.92484 0.3752 0.0
C3755 C 0.44969 0.88096 0.41194 0.0
C3756 C 0.4412 0.88761 0.39775 0.0
C3757 C 0.46759 0.87946 0.41198 0.0
C3758 C 0.47753 0.88446 0.3978 0.0
C3759 C 0.46896 0.89072 0.38349 0.0
C3760 C 0.45112 0.89224 0.38344 0.0
C3761 C 0.49689 0.88406 0.39805 0.0
C3762 C 0.50719 0.89906 0.39402 0.0
C3763 C 0.5053 0.8693 0.4024 0.0
C3764 C 0.49542 0.85276 0.40606 0.0
C3765 C 0.48315 0.84507 0.39411 0.0
C3766 C 0.47385 0.82948 0.39767 0.0
C3767 C 0.47681 0.82138 0.41309 0.0
C3768 C 0.4891 0.82884 0.42496 0.0
C3769 C 0.49843 0.84444 0.42147 0.0
H3770 H 0.4696 0.80931 0.41582 0.0
H3771 H 0.56146 0.95947 0.38044 0.0
H3772 H 0.62894 0.06554 0.88771 0.0
H3773 H 0.6297 0.03461 0.89039 0.0
H3774 H 0.68445 0.04173 0.90101 0.0
H3775 H 0.68381 0.07283 0.89786 0.0
H3776 H 0.6785 0.01558 0.8799 0.0
H3777 H 0.65358 0.02987 0.93271 0.0
H3778 H 0.63345 0.04286 0.9519 0.0
H3779 H 0.59082 0.01241 0.92745 0.0
H3780 H 0.61067 0.99939 0.90795 0.0
H3781 H 0.6782 0.92505 0.89826 0.0
H3782 H 0.68132 0.95654 0.90259 0.0
H3783 H 0.62829 0.95862 0.88646 0.0
H3784 H 0.6252 0.92756 0.88206 0.0
H3785 H 0.63606 0.9802 0.91354 0.0
H3786 H 0.66132 0.96809 0.85919 0.0
H3787 H 0.68173 0.95508 0.84031 0.0
H3788 H 0.72433 0.98142 0.8688 0.0
H3789 H 0.70416 0.99442 0.888 0.0
C3790 C 0.64115 0.06062 0.89086 0.0
C3791 C 0.65629 0.07188 0.8927 0.0
C3792 C 0.64157 0.04279 0.89246 0.0
C3793 C 0.6571 0.03555 0.89616 0.0
C3794 C 0.67224 0.04679 0.89819 0.0
C3795 C 0.67184 0.06468 0.89651 0.0
C3796 C 0.65753 0.0163 0.8973 0.0
C3797 C 0.66941 1.00794 0.88756 0.0
C3798 C 0.64561 1.006 0.90706 0.0
C3799 C 0.63361 0.01376 0.91878 0.0
C3800 C 0.6399 0.02603 0.93135 0.0
C3801 C 0.62854 0.03339 0.94229 0.0
C3802 C 0.61086 0.02849 0.94087 0.0
C3803 C 0.60451 0.0162 0.92852 0.0
C3804 C 0.61582 1.00881 0.91754 0.0
C3805 C 0.66716 0.93221 0.89592 0.0
C3806 C 0.65146 0.92367 0.88977 0.0
C3807 C 0.66897 0.95028 0.89825 0.0
C3808 C 0.65507 0.96018 0.8947 0.0
C3809 C 0.63925 0.95148 0.8893 0.0
C3810 C 0.63752 0.93361 0.88674 0.0
C3811 C 0.65682 0.97954 0.89597 0.0
C3812 C 0.6453 0.9879 0.9061 0.0
C3813 C 0.66913 0.98983 0.88667 0.0
C3814 C 0.68125 0.98205 0.87515 0.0
C3815 C 0.67505 0.97099 0.86151 0.0
C3816 C 0.68657 0.96364 0.85074 0.0
C3817 C 0.70432 0.96738 0.85339 0.0
C3818 C 0.71058 0.97851 0.86679 0.0
C3819 C 0.69911 0.98587 0.87761 0.0
H3820 H 0.71322 0.96169 0.84504 0.0
H3821 H 0.60209 0.0342 0.94935 0.0
H3822 H 0.43726 0.12503 0.3764 0.0
H3823 H 0.46842 0.1288 0.37882 0.0
H3824 H 0.46551 0.16699 0.41893 0.0
H3825 H 0.43369 0.16329 0.4165 0.0
H3826 H 0.49232 0.17624 0.39722 0.0
H3827 H 0.47751 0.12712 0.43059 0.0
H3828 H 0.46311 0.09911 0.43832 0.0
H3829 H 0.48274 0.07561 0.39357 0.0
H3830 H 0.49756 0.10349 0.38576 0.0
H3831 H 0.58272 0.16601 0.41901 0.0
H3832 H 0.55151 0.16859 0.41948 0.0
H3833 H 0.54363 0.13182 0.37757 0.0
H3834 H 0.57461 0.1293 0.37693 0.0
H3835 H 0.52235 0.12342 0.4039 0.0
H3836 H 0.5387 0.17432 0.3721 0.0
H3837 H 0.55461 0.20247 0.36743 0.0
H3838 H 0.53247 0.22326 0.41223 0.0
H3839 H 0.5166 0.19516 0.41729 0.0
C3840 C 0.44306 0.13434 0.38577 0.0
C3841 C 0.43269 0.14375 0.39635 0.0
C3842 C 0.46107 0.13641 0.38719 0.0
C3843 C 0.46955 0.14792 0.3993 0.0
C3844 C 0.45938 0.15791 0.40953 0.0
C3845 C 0.44114 0.15581 0.40812 0.0
C3846 C 0.48895 0.14899 0.4011 0.0
C3847 C 0.49887 0.16473 0.39901 0.0
C3848 C 0.49777 0.13406 0.40326 0.0
C3849 C 0.48849 0.11739 0.40752 0.0
C3850 C 0.47865 0.11599 0.42234 0.0
C3851 C 0.4705 0.10013 0.42678 0.0
C3852 C 0.47191 0.08559 0.41638 0.0
C3853 C 0.48162 0.08688 0.40159 0.0
C3854 C 0.48999 0.10269 0.39721 0.0
C3855 C 0.57438 0.15869 0.40969 0.0
C3856 C 0.58134 0.14746 0.39791 0.0
C3857 C 0.55647 0.16018 0.40997 0.0
C3858 C 0.54504 0.1504 0.39856 0.0
C3859 C 0.55204 0.1395 0.38656 0.0
C3860 C 0.56988 0.13814 0.38617 0.0
C3861 C 0.52577 0.15057 0.39961 0.0
C3862 C 0.51585 0.13499 0.40223 0.0
C3863 C 0.51709 0.16571 0.39823 0.0
C3864 C 0.52662 0.18259 0.39518 0.0
C3865 C 0.53735 0.18485 0.38105 0.0
C3866 C 0.54633 0.20081 0.37831 0.0
C3867 C 0.5446 0.21463 0.38956 0.0
C3868 C 0.53383 0.21253 0.40354 0.0
C3869 C 0.52483 0.1966 0.40634 0.0
H3870 H 0.55156 0.22697 0.38741 0.0
H3871 H 0.46551 0.07333 0.41982 0.0
H3872 H 0.08877 0.3651 0.94219 0.0
H3873 H 0.08836 0.36277 0.97342 0.0
H3874 H 0.14059 0.3862 0.97723 0.0
H3875 H 0.14117 0.38825 0.94608 0.0
H3876 H 0.13716 0.36182 0.99959 0.0
H3877 H 0.10394 0.4087 0.98531 0.0
H3878 H 0.08061 0.42259 0.97081 0.0
H3879 H 0.04285 0.38793 0.9944 0.0
H3880 H 0.06599 0.37369 1.00887 0.0
H3881 H 0.14398 0.3965 0.08353 0.0
H3882 H 0.14142 0.39105 0.05284 0.0
H3883 H 0.09085 0.36501 0.05869 0.0
H3884 H 0.0933 0.37064 0.08992 0.0
H3885 H 0.09121 0.38721 0.03176 0.0
H3886 H 0.1252 0.34236 0.04848 0.0
H3887 H 0.14903 0.32952 0.06328 0.0
H3888 H 0.18585 0.36126 0.03527 0.0
H3889 H 0.16224 0.37446 0.02046 0.0
C3890 C 0.10027 0.36953 0.94963 0.0
C3891 C 0.11501 0.37686 0.94145 0.0
C3892 C 0.09997 0.36835 0.9676 0.0
C3893 C 0.11434 0.37458 0.97796 0.0
C3894 C 0.12927 0.38131 0.96973 0.0
C3895 C 0.12959 0.38247 0.9518 0.0
C3896 C 0.11385 0.37449 0.99729 0.0
C3897 C 0.12715 0.3675 1.00656 0.0
C3898 C 0.10061 0.38145 1.00666 0.0
C3899 C 0.08669 0.39 0.99801 0.0
C3900 C 0.09067 0.40396 0.9873 0.0
C3901 C 0.07748 0.41191 0.9791 0.0
C3902 C 0.06026 0.40611 0.98164 0.0
C3903 C 0.05619 0.39238 0.99242 0.0
C3904 C 0.06934 0.38437 1.00062 0.0
C3905 C 0.1323 0.38944 0.07845 0.0
C3906 C 0.11886 0.38399 0.08942 0.0
C3907 C 0.1309 0.38626 0.06074 0.0
C3908 C 0.11602 0.37744 0.05322 0.0
C3909 C 0.10253 0.37179 0.06408 0.0
C3910 C 0.10399 0.3749 0.08199 0.0
C3911 C 0.11466 0.37478 0.03402 0.0
C3912 C 0.10107 0.3813 0.02478 0.0
C3913 C 0.12769 0.36747 0.02465 0.0
C3914 C 0.14194 0.35948 0.03344 0.0
C3915 C 0.13838 0.34668 0.04555 0.0
C3916 C 0.15185 0.33933 0.05393 0.0
C3917 C 0.16895 0.34459 0.05024 0.0
C3918 C 0.1726 0.3572 0.03812 0.0
C3919 C 0.15918 0.3646 0.02971 0.0
H3920 H 0.17936 0.33889 0.05675 0.0
H3921 H 0.05006 0.41228 0.97529 0.0
H3922 H 0.11307 0.62484 0.90794 0.0
H3923 H 0.11029 0.62616 0.93901 0.0
H3924 H 0.13111 0.67913 0.94001 0.0
H3925 H 0.13411 0.67782 0.90885 0.0
H3926 H 0.14603 0.66282 0.96496 0.0
H3927 H 0.08745 0.66685 0.94733 0.0
H3928 H 0.0601 0.65853 0.93153 0.0
H3929 H 0.05606 0.60974 0.95596 0.0
H3930 H 0.08351 0.61768 0.97175 0.0
H3931 H 0.13157 0.67037 0.05528 0.0
H3932 H 0.12991 0.67539 0.02432 0.0
H3933 H 0.10799 0.62327 0.01549 0.0
H3934 H 0.10927 0.61836 0.0461 0.0
H3935 H 0.0927 0.64247 0.99454 0.0
H3936 H 0.15233 0.63719 1.00989 0.0
H3937 H 0.17987 0.645 0.02557 0.0
H3938 H 0.18198 0.69572 1.00531 0.0
H3939 H 0.15433 0.68826 0.98967 0.0
C3940 C 0.11681 0.63689 0.91468 0.0
C3941 C 0.1237 0.65126 0.90569 0.0
C3942 C 0.11519 0.63764 0.93257 0.0
C3943 C 0.12034 0.6528 0.94211 0.0
C3944 C 0.127 0.66725 0.93313 0.0
C3945 C 0.12859 0.66652 0.9152 0.0
C3946 C 0.11935 0.65332 0.96141 0.0
C3947 C 0.13425 0.65866 0.97138 0.0
C3948 C 0.10415 0.64762 0.97006 0.0
C3949 C 0.08762 0.64281 0.96062 0.0
C3950 C 0.0808 0.6543 0.94925 0.0
C3951 C 0.06526 0.64966 0.94031 0.0
C3952 C 0.05637 0.63361 0.94271 0.0
C3953 C 0.06297 0.62217 0.9541 0.0
C3954 C 0.07851 0.62674 0.96306 0.0
C3955 C 0.12608 0.6601 0.04677 0.0
C3956 C 0.12061 0.64394 0.05336 0.0
C3957 C 0.12531 0.66291 0.02897 0.0
C3958 C 0.1191 0.64962 0.01728 0.0
C3959 C 0.1129 0.63379 0.024 0.0
C3960 C 0.11368 0.63099 0.04166 0.0
C3961 C 0.11945 0.65172 0.99809 0.0
C3962 C 0.10444 0.64682 0.98813 0.0
C3963 C 0.13456 0.65776 0.98944 0.0
C3964 C 0.15118 0.66224 0.99878 0.0
C3965 C 0.15861 0.65005 1.00888 0.0
C3966 C 0.17424 0.65441 0.01774 0.0
C3967 C 0.18264 0.67087 0.01648 0.0
C3968 C 0.17544 0.68299 1.0063 0.0
C3969 C 0.1598 0.67871 0.99744 0.0
H3970 H 0.19474 0.67422 0.02334 0.0
H3971 H 0.04435 0.63004 0.93578 0.0
H3972 H 0.90774 0.62145 0.4489 0.0
H3973 H 0.9069 0.61906 0.47995 0.0
H3974 H 0.85136 0.61382 0.47717 0.0
H3975 H 0.85215 0.61653 0.44594 0.0
H3976 H 0.86163 0.63533 0.50267 0.0
H3977 H 0.87582 0.57921 0.48689 0.0
H3978 H 0.89184 0.55757 0.47239 0.0
H3979 H 0.93838 0.57735 0.49925 0.0
H3980 H 0.92268 0.59927 0.51375 0.0
H3981 H 0.85994 0.62023 0.59362 0.0
H3982 H 0.85536 0.6157 0.56246 0.0
H3983 H 0.91031 0.6214 0.55582 0.0
H3984 H 0.91489 0.62567 0.58655 0.0
H3985 H 0.89699 0.59682 0.53507 0.0
H3986 H 0.88336 0.6546 0.54839 0.0
H3987 H 0.86753 0.67653 0.56271 0.0
H3988 H 0.8199 0.6534 0.54038 0.0
H3989 H 0.83544 0.6312 0.5261 0.0
C3990 C 0.8953 0.61952 0.45479 0.0
C3991 C 0.88001 0.61905 0.44471 0.0
C3992 C 0.89483 0.61811 0.47268 0.0
C3993 C 0.87906 0.61606 0.48117 0.0
C3994 C 0.86374 0.61536 0.47111 0.0
C3995 C 0.86421 0.61678 0.45315 0.0
C3996 C 0.87869 0.61526 0.50049 0.0
C3997 C 0.86912 0.62664 0.50969 0.0
C3998 C 0.88861 0.60418 0.50995 0.0
C3999 C 0.89809 0.59097 0.50131 0.0
C4000 C 0.88949 0.57902 0.48962 0.0
C4001 C 0.89852 0.5667 0.48141 0.0
C4002 C 0.91612 0.56611 0.48487 0.0
C4003 C 0.92474 0.57783 0.49658 0.0
C4004 C 0.91578 0.59019 0.50481 0.0
C4005 C 0.87103 0.62022 0.58554 0.0
C4006 C 0.88779 0.62338 0.59276 0.0
C4007 C 0.86841 0.6178 0.56763 0.0
C4008 C 0.88248 0.61843 0.55651 0.0
C4009 C 0.89916 0.62085 0.56388 0.0
C4010 C 0.90176 0.62335 0.5816 0.0
C4011 C 0.8802 0.61709 0.53724 0.0
C4012 C 0.88931 0.60534 0.52804 0.0
C4013 C 0.86987 0.62782 0.5278 0.0
C4014 C 0.86053 0.64113 0.53636 0.0
C4015 C 0.8695 0.65412 0.54665 0.0
C4016 C 0.86058 0.66661 0.55474 0.0
C4017 C 0.84271 0.66632 0.5525 0.0
C4018 C 0.83373 0.65358 0.54213 0.0
C4019 C 0.84259 0.64105 0.53404 0.0
H4020 H 0.83583 0.676 0.55877 0.0
H4021 H 0.92308 0.55656 0.4785 0.0
H4022 H 0.90193 0.336 0.94646 0.0
H4023 H 0.90381 0.33522 0.9778 0.0
H4024 H 0.91051 0.39052 0.98041 0.0
H4025 H 0.90894 0.39135 0.94916 0.0
H4026 H 0.93071 0.37889 1.00374 0.0
H4027 H 0.87083 0.36625 0.9881 0.0
H4028 H 0.8457 0.35043 0.97339 0.0
H4029 H 0.85694 0.30421 0.99834 0.0
H4030 H 0.88228 0.31972 0.01305 0.0
H4031 H 0.90412 0.39846 0.08673 0.0
H4032 H 0.90732 0.39391 0.05621 0.0
H4033 H 0.90366 0.3392 0.06299 0.0
H4034 H 0.90017 0.34373 0.09405 0.0
H4035 H 0.8838 0.34742 0.03535 0.0
H4036 H 0.94247 0.36169 0.05327 0.0
H4037 H 0.96666 0.3786 0.06841 0.0
H4038 H 0.95694 0.42281 0.03931 0.0
H4039 H 0.93254 0.40623 0.02414 0.0
C4040 C 0.90405 0.34801 0.95367 0.0
C4041 C 0.90531 0.36374 0.9451 0.0
C4042 C 0.90495 0.34756 0.97171 0.0
C4043 C 0.90701 0.36283 0.98176 0.0
C4044 C 0.90888 0.3785 0.97317 0.0
C4045 C 0.90799 0.37896 0.95517 0.0
C4046 C 0.90696 0.36263 1.00113 0.0
C4047 C 0.92035 0.37208 0.01057 0.0
C4048 C 0.89374 0.35345 0.01037 0.0
C4049 C 0.87856 0.3441 1.00151 0.0
C4050 C 0.86802 0.35268 0.99034 0.0
C4051 C 0.85373 0.34378 0.98202 0.0
C4052 C 0.84976 0.32631 0.98488 0.0
C4053 C 0.86005 0.31773 0.99611 0.0
C4054 C 0.87438 0.32657 1.00445 0.0
C4055 C 0.90415 0.38538 0.0819 0.0
C4056 C 0.90193 0.37147 0.09309 0.0
C4057 C 0.90608 0.38281 0.06428 0.0
C4058 C 0.90594 0.36621 0.05704 0.0
C4059 C 0.90389 0.35218 0.06813 0.0
C4060 C 0.90204 0.35477 0.08597 0.0
C4061 C 0.90743 0.36385 0.0379 0.0
C4062 C 0.89429 0.354 0.0285 0.0
C4063 C 0.92081 0.37276 0.02867 0.0
C4064 C 0.9356 0.38273 0.03764 0.0
C4065 C 0.94542 0.37504 0.05016 0.0
C4066 C 0.95919 0.38457 0.05874 0.0
C4067 C 0.96332 0.40177 0.05484 0.0
C4068 C 0.95372 0.40948 0.04232 0.0
C4069 C 0.93995 0.40001 0.0337 0.0
H4070 H 0.97397 0.40913 0.06151 0.0
H4071 H 0.83869 0.31945 0.97844 0.0
H4072 H 0.13979 0.37194 0.58751 0.0
H4073 H 0.14237 0.37206 0.55641 0.0
H4074 H 0.15568 0.42681 0.55878 0.0
H4075 H 0.15388 0.42655 0.58999 0.0
H4076 H 0.12494 0.38386 0.53342 0.0
H4077 H 0.17591 0.4416 0.52341 0.0
H4078 H 0.20256 0.4552 0.53741 0.0
H4079 H 0.2113 0.40765 0.56115 0.0
H4080 H 0.18483 0.39371 0.54713 0.0
H4081 H 0.11299 0.4113 0.4506 0.0
H4082 H 0.1186 0.41155 0.48137 0.0
H4083 H 0.16912 0.39508 0.47308 0.0
H4084 H 0.16367 0.39543 0.44181 0.0
H4085 H 0.17053 0.4161 0.50074 0.0
H4086 H 0.13463 0.36609 0.48361 0.0
H4087 H 0.10998 0.34935 0.46902 0.0
H4088 H 0.07484 0.37553 0.49934 0.0
H4089 H 0.09927 0.39261 0.51395 0.0
C4090 C 0.14365 0.38397 0.58147 0.0
C4091 C 0.14676 0.39922 0.59141 0.0
C4092 C 0.14501 0.38406 0.56355 0.0
C4093 C 0.14932 0.39942 0.5549 0.0
C4094 C 0.15273 0.41464 0.56489 0.0
C4095 C 0.15165 0.41451 0.58286 0.0
C4096 C 0.1491 0.3996 0.53552 0.0
C4097 C 0.13501 0.39091 0.52641 0.0
C4098 C 0.16229 0.40843 0.52594 0.0
C4099 C 0.17829 0.41667 0.53434 0.0
C4100 C 0.18355 0.43403 0.53156 0.0
C4101 C 0.19862 0.4418 0.53952 0.0
C4102 C 0.20859 0.43231 0.55021 0.0
C4103 C 0.20353 0.41501 0.55292 0.0
C4104 C 0.18849 0.40717 0.545 0.0
C4105 C 0.12545 0.40799 0.45525 0.0
C4106 C 0.13784 0.40326 0.44365 0.0
C4107 C 0.1286 0.40801 0.47296 0.0
C4108 C 0.1441 0.40284 0.4798 0.0
C4109 C 0.15697 0.399 0.46826 0.0
C4110 C 0.15389 0.39925 0.45034 0.0
C4111 C 0.1462 0.40074 0.49888 0.0
C4112 C 0.16057 0.40903 0.50787 0.0
C4113 C 0.13354 0.39111 0.50838 0.0
C4114 C 0.11879 0.38072 0.49979 0.0
C4115 C 0.12164 0.36834 0.48711 0.0
C4116 C 0.10771 0.35879 0.47883 0.0
C4117 C 0.09086 0.36139 0.48323 0.0
C4118 C 0.0879 0.37353 0.49594 0.0
C4119 C 0.10179 0.38314 0.50424 0.0
H4120 H 0.08009 0.35399 0.4768 0.0
H4121 H 0.22024 0.43835 0.55636 0.0
H4122 H 0.90845 0.62462 0.95266 0.0
H4123 H 0.9114 0.62908 0.98349 0.0
H4124 H 0.91733 0.68384 0.97702 0.0
H4125 H 0.91457 0.67937 0.94564 0.0
H4126 H 0.93822 0.67413 1.00401 0.0
H4127 H 0.87872 0.66466 0.98813 0.0
H4128 H 0.85286 0.65009 0.97354 0.0
H4129 H 0.8596 0.60421 1.00117 0.0
H4130 H 0.88566 0.61842 0.01575 0.0
H4131 H 0.91668 0.68653 0.09351 0.0
H4132 H 0.91878 0.68744 0.06221 0.0
H4133 H 0.91148 0.63219 0.05914 0.0
H4134 H 0.90937 0.6312 0.09021 0.0
H4135 H 0.89042 0.64548 0.03668 0.0
H4136 H 0.95094 0.65517 0.05163 0.0
H4137 H 0.97673 0.67016 0.06597 0.0
H4138 H 0.96747 0.71656 0.0403 0.0
H4139 H 0.94147 0.70189 0.02597 0.0
C4140 C 0.91059 0.63768 0.95766 0.0
C4141 C 0.91111 0.65163 0.9465 0.0
C4142 C 0.91221 0.64021 0.97543 0.0
C4143 C 0.91417 0.65682 0.98283 0.0
C4144 C 0.9157 0.67087 0.97175 0.0
C4145 C 0.91418 0.66831 0.95376 0.0
C4146 C 0.91369 0.6591 1.00204 0.0
C4147 C 0.92762 0.66811 0.01112 0.0
C4148 C 0.9 0.65115 0.01155 0.0
C4149 C 0.88423 0.64258 1.00294 0.0
C4150 C 0.87475 0.65143 0.99102 0.0
C4151 C 0.86005 0.64324 0.98276 0.0
C4152 C 0.85461 0.62623 0.9864 0.0
C4153 C 0.86383 0.61739 0.99835 0.0
C4154 C 0.87856 0.62551 1.00663 0.0
C4155 C 0.91585 0.67455 0.08621 0.0
C4156 C 0.91291 0.65879 0.09456 0.0
C4157 C 0.91704 0.67508 0.06823 0.0
C4158 C 0.91529 0.65987 0.05808 0.0
C4159 C 0.91281 0.64415 0.06649 0.0
C4160 C 0.91171 0.6436 0.08439 0.0
C4161 C 0.91514 0.66015 0.03875 0.0
C4162 C 0.90101 0.65161 0.02961 0.0
C4163 C 0.92856 0.66866 0.02927 0.0
C4164 C 0.94415 0.67749 0.03789 0.0
C4165 C 0.95431 0.66861 0.04916 0.0
C4166 C 0.96898 0.67704 0.05726 0.0
C4167 C 0.9737 0.69431 0.05409 0.0
C4168 C 0.96378 0.70319 0.04277 0.0
C4169 C 0.94908 0.69482 0.03465 0.0
H4170 H 0.98507 0.70081 0.06037 0.0
H4171 H 0.84322 0.61991 0.97999 0.0
H4172 H 0.86657 0.41828 0.44771 0.0
H4173 H 0.86367 0.4168 0.47887 0.0
H4174 H 0.889 0.37006 0.47891 0.0
H4175 H 0.89182 0.37142 0.44786 0.0
H4176 H 0.86298 0.36737 0.50053 0.0
H4177 H 0.91021 0.4099 0.49088 0.0
H4178 H 0.92419 0.43644 0.47901 0.0
H4179 H 0.88858 0.46613 0.50495 0.0
H4180 H 0.87424 0.4397 0.51678 0.0
H4181 H 0.89457 0.36274 0.58544 0.0
H4182 H 0.88979 0.3653 0.55481 0.0
H4183 H 0.8655 0.41195 0.56354 0.0
H4184 H 0.87056 0.40956 0.59463 0.0
H4185 H 0.88757 0.41611 0.5377 0.0
H4186 H 0.84196 0.37379 0.54954 0.0
H4187 H 0.82816 0.34724 0.56155 0.0
H4188 H 0.86038 0.31718 0.53159 0.0
H4189 H 0.87455 0.34357 0.51958 0.0
C4190 C 0.87132 0.40756 0.4543 0.0
C4191 C 0.87943 0.39497 0.44511 0.0
C4192 C 0.86979 0.40679 0.47223 0.0
C4193 C 0.87632 0.39343 0.48151 0.0
C4194 C 0.88385 0.38055 0.47224 0.0
C4195 C 0.88547 0.38135 0.45437 0.0
C4196 C 0.87572 0.39294 0.50082 0.0
C4197 C 0.86849 0.378 0.50861 0.0
C4198 C 0.88241 0.40693 0.51163 0.0
C4199 C 0.89102 0.42281 0.50454 0.0
C4200 C 0.90527 0.42207 0.49393 0.0
C4201 C 0.91328 0.43709 0.48724 0.0
C4202 C 0.90725 0.45296 0.49118 0.0
C4203 C 0.89322 0.45383 0.50187 0.0
C4204 C 0.88515 0.43883 0.50859 0.0
C4205 C 0.88797 0.37348 0.58099 0.0
C4206 C 0.8829 0.3859 0.59274 0.0
C4207 C 0.88517 0.37489 0.5633 0.0
C4208 C 0.87709 0.38873 0.55658 0.0
C4209 C 0.87172 0.40108 0.56825 0.0
C4210 C 0.87447 0.39963 0.5861 0.0
C4211 C 0.87505 0.39042 0.53741 0.0
C4212 C 0.88184 0.40555 0.52964 0.0
C4213 C 0.86792 0.37661 0.5266 0.0
C4214 C 0.8594 0.36068 0.53375 0.0
C4215 C 0.84619 0.36153 0.5456 0.0
C4216 C 0.83828 0.3465 0.5524 0.0
C4217 C 0.84341 0.33053 0.54736 0.0
C4218 C 0.85643 0.32956 0.53549 0.0
C4219 C 0.86438 0.34455 0.52866 0.0
H4220 H 0.83727 0.31892 0.55263 0.0
H4221 H 0.91346 0.46458 0.48599 0.0
H4222 H 0.13966 0.66212 0.54805 0.0
H4223 H 0.14387 0.66022 0.51736 0.0
H4224 H 0.16342 0.61081 0.52302 0.0
H4225 H 0.15931 0.61273 0.55422 0.0
H4226 H 0.18086 0.63012 0.49776 0.0
H4227 H 0.12222 0.61276 0.50998 0.0
H4228 H 0.09397 0.61502 0.52295 0.0
H4229 H 0.08837 0.66168 0.49626 0.0
H4230 H 0.11672 0.65984 0.48332 0.0
H4231 H 0.1644 0.60901 0.40767 0.0
H4232 H 0.16685 0.60971 0.43902 0.0
H4233 H 0.14323 0.65744 0.44052 0.0
H4234 H 0.14059 0.6567 0.40928 0.0
H4235 H 0.12817 0.63646 0.46245 0.0
H4236 H 0.18731 0.65413 0.45077 0.0
H4237 H 0.21562 0.6518 0.43793 0.0
H4238 H 0.22019 0.60421 0.4633 0.0
H4239 H 0.19178 0.60615 0.47612 0.0
C4240 C 0.14512 0.6509 0.54292 0.0
C4241 C 0.14902 0.63752 0.55376 0.0
C4242 C 0.14745 0.6498 0.52523 0.0
C4243 C 0.15359 0.6352 0.51761 0.0
C4244 C 0.15854 0.6222 0.52846 0.0
C4245 C 0.15627 0.62333 0.54636 0.0
C4246 C 0.15377 0.6334 0.49836 0.0
C4247 C 0.16927 0.63122 0.49005 0.0
C4248 C 0.13877 0.6351 0.48808 0.0
C4249 C 0.12167 0.63623 0.49579 0.0
C4250 C 0.11503 0.62357 0.50697 0.0
C4251 C 0.09899 0.62477 0.51431 0.0
C4252 C 0.0894 0.63851 0.51046 0.0
C4253 C 0.09582 0.65106 0.49924 0.0
C4254 C 0.11187 0.64993 0.49189 0.0
C4255 C 0.16003 0.61984 0.41463 0.0
C4256 C 0.15235 0.63283 0.40578 0.0
C4257 C 0.16145 0.62024 0.43267 0.0
C4258 C 0.15528 0.63366 0.44239 0.0
C4259 C 0.14807 0.64687 0.4335 0.0
C4260 C 0.14667 0.6465 0.41552 0.0
C4261 C 0.15534 0.63355 0.46173 0.0
C4262 C 0.1398 0.6353 0.47009 0.0
C4263 C 0.17029 0.6314 0.47197 0.0
C4264 C 0.18733 0.63019 0.46425 0.0
C4265 C 0.19428 0.64309 0.45349 0.0
C4266 C 0.21036 0.64186 0.44624 0.0
C4267 C 0.21967 0.62784 0.44976 0.0
C4268 C 0.21294 0.61505 0.46057 0.0
C4269 C 0.19686 0.61622 0.46784 0.0
H4270 H 0.23212 0.62691 0.44414 0.0
H4271 H 0.07698 0.63941 0.51615 0.0
H4272 H 0.32588 0.16511 0.41553 0.0
H4273 H 0.29465 0.16479 0.41059 0.0
H4274 H 0.29752 0.12982 0.36757 0.0
H4275 H 0.32867 0.13069 0.37201 0.0
H4276 H 0.27491 0.14973 0.35947 0.0
H4277 H 0.2834 0.11735 0.4098 0.0
H4278 H 0.29436 0.11187 0.43885 0.0
H4279 H 0.26734 0.1529 0.45921 0.0
H4280 H 0.25639 0.15876 0.43023 0.0
H4281 H 0.18573 0.11481 0.35794 0.0
H4282 H 0.21731 0.1194 0.36024 0.0
H4283 H 0.21341 0.16066 0.39693 0.0
H4284 H 0.18196 0.15629 0.39458 0.0
H4285 H 0.2362 0.13832 0.40814 0.0
H4286 H 0.22655 0.169 0.35664 0.0
H4287 H 0.2152 0.17256 0.32734 0.0
H4288 H 0.24407 0.13203 0.30894 0.0
H4289 H 0.25542 0.12806 0.33819 0.0
C4290 C 0.3199 0.15754 0.40487 0.0
C4291 C 0.32994 0.14793 0.39421 0.0
C4292 C 0.30192 0.1572 0.40214 0.0
C4293 C 0.29337 0.14694 0.38889 0.0
C4294 C 0.30353 0.13782 0.37791 0.0
C4295 C 0.32148 0.13833 0.3805 0.0
C4296 C 0.27396 0.14538 0.38659 0.0
C4297 C 0.26653 0.14704 0.37015 0.0
C4298 C 0.26268 0.14208 0.4004 0.0
C4299 C 0.26924 0.13861 0.41782 0.0
C4300 C 0.2799 0.12528 0.42046 0.0
C4301 C 0.28609 0.1221 0.43691 0.0
C4302 C 0.28159 0.13207 0.45086 0.0
C4303 C 0.27084 0.14521 0.44839 0.0
C4304 C 0.26464 0.14847 0.43195 0.0
C4305 C 0.19157 0.12507 0.36628 0.0
C4306 C 0.18115 0.13522 0.37598 0.0
C4307 C 0.2097 0.12767 0.36761 0.0
C4308 C 0.21792 0.14042 0.37877 0.0
C4309 C 0.20752 0.15073 0.38825 0.0
C4310 C 0.18945 0.14826 0.38678 0.0
C4311 C 0.23726 0.14265 0.38108 0.0
C4312 C 0.24464 0.14107 0.39751 0.0
C4313 C 0.24847 0.14573 0.36723 0.0
C4314 C 0.2417 0.14812 0.34964 0.0
C4315 C 0.23037 0.16075 0.34637 0.0
C4316 C 0.22396 0.16286 0.32977 0.0
C4317 C 0.22887 0.1525 0.31629 0.0
C4318 C 0.24025 0.14003 0.31939 0.0
C4319 C 0.24669 0.13785 0.33598 0.0
H4320 H 0.2239 0.15415 0.30345 0.0
H4321 H 0.28639 0.12958 0.46359 0.0
H4322 H 0.40601 0.70515 0.85619 0.0
H4323 H 0.40498 0.73655 0.85465 0.0
H4324 H 0.37882 0.73675 0.90257 0.0
H4325 H 0.37996 0.70597 0.90434 0.0
H4326 H 0.36302 0.75581 0.87898 0.0
H4327 H 0.42078 0.75077 0.90088 0.0
H4328 H 0.45005 0.74119 0.90018 0.0
H4329 H 0.45923 0.76756 0.85319 0.0
H4330 H 0.42991 0.77711 0.85349 0.0
H4331 H 0.36765 0.84647 0.89867 0.0
H4332 H 0.36896 0.81515 0.89939 0.0
H4333 H 0.40386 0.81792 0.85733 0.0
H4334 H 0.40313 0.84879 0.85702 0.0
H4335 H 0.41514 0.79693 0.87724 0.0
H4336 H 0.35829 0.80199 0.85428 0.0
H4337 H 0.32887 0.81127 0.85348 0.0
H4338 H 0.31755 0.78471 0.89997 0.0
H4339 H 0.34699 0.77544 0.90115 0.0
C4340 C 0.40015 0.7119 0.86644 0.0
C4341 C 0.39316 0.7028 0.88041 0.0
C4342 C 0.39955 0.72991 0.86556 0.0
C4343 C 0.39177 0.73918 0.87851 0.0
C4344 C 0.38481 0.73006 0.89235 0.0
C4345 C 0.3856 0.7123 0.89335 0.0
C4346 C 0.3907 0.75832 0.87797 0.0
C4347 C 0.37445 0.7648 0.87871 0.0
C4348 C 0.40548 0.77021 0.87729 0.0
C4349 C 0.42308 0.76447 0.87709 0.0
C4350 C 0.42899 0.75439 0.89031 0.0
C4351 C 0.4456 0.749 0.89001 0.0
C4352 C 0.45647 0.75372 0.87662 0.0
C4353 C 0.45078 0.76388 0.86353 0.0
C4354 C 0.43417 0.76929 0.86376 0.0
C4355 C 0.37556 0.84037 0.88958 0.0
C4356 C 0.38526 0.85037 0.87782 0.0
C4357 C 0.37625 0.82237 0.8899 0.0
C4358 C 0.3864 0.81383 0.87826 0.0
C4359 C 0.39598 0.82389 0.86655 0.0
C4360 C 0.39547 0.84174 0.86637 0.0
C4361 C 0.38738 0.79458 0.87816 0.0
C4362 C 0.40364 0.78803 0.87737 0.0
C4363 C 0.37257 0.78261 0.87855 0.0
C4364 C 0.35489 0.78819 0.8779 0.0
C4365 C 0.34956 0.79824 0.8644 0.0
C4366 C 0.33288 0.80348 0.86387 0.0
C4367 C 0.32137 0.79863 0.8767 0.0
C4368 C 0.3265 0.78849 0.89006 0.0
C4369 C 0.34317 0.78323 0.89066 0.0
H4370 H 0.30846 0.80269 0.87626 0.0
H4371 H 0.46933 0.74953 0.87641 0.0
H4372 H 0.6898 0.89149 0.36671 0.0
H4373 H 0.72062 0.89184 0.3614 0.0
H4374 H 0.73116 0.89043 0.41578 0.0
H4375 H 0.70025 0.88911 0.421 0.0
H4376 H 0.74588 0.91267 0.36668 0.0
H4377 H 0.7695 0.87639 0.42576 0.0
H4378 H 0.7593 0.8523 0.44389 0.0
H4379 H 0.72557 0.8312 0.40299 0.0
H4380 H 0.73572 0.85504 0.38455 0.0
H4381 H 0.83626 0.93222 0.37682 0.0
H4382 H 0.80505 0.9278 0.37938 0.0
H4383 H 0.80737 0.87306 0.37415 0.0
H4384 H 0.83882 0.87746 0.37253 0.0
H4385 H 0.78597 0.87693 0.39662 0.0
H4386 H 0.79039 0.9006 0.34128 0.0
H4387 H 0.80002 0.92111 0.31919 0.0
H4388 H 0.77658 0.9612 0.34579 0.0
H4389 H 0.76699 0.94097 0.36816 0.0
C4390 C 0.69865 0.89089 0.37754 0.0
C4391 C 0.6924 0.89005 0.39429 0.0
C4392 C 0.71641 0.89124 0.37449 0.0
C4393 C 0.72859 0.89103 0.38811 0.0
C4394 C 0.72229 0.89014 0.40488 0.0
C4395 C 0.70449 0.88943 0.4079 0.0
C4396 C 0.74774 0.89246 0.38476 0.0
C4397 C 0.75456 0.90477 0.37325 0.0
C4398 C 0.75938 0.88202 0.39287 0.0
C4399 C 0.75325 0.8676 0.40385 0.0
C4400 C 0.75995 0.86658 0.42062 0.0
C4401 C 0.75416 0.85298 0.43095 0.0
C4402 C 0.74175 0.84026 0.42462 0.0
C4403 C 0.73513 0.8411 0.40791 0.0
C4404 C 0.74088 0.85466 0.39752 0.0
C4405 C 0.83015 0.91923 0.37593 0.0
C4406 C 0.8402 0.90522 0.37427 0.0
C4407 C 0.81214 0.91668 0.37735 0.0
C4408 C 0.80345 0.90006 0.37671 0.0
C4409 C 0.8135 0.88605 0.37473 0.0
C4410 C 0.83157 0.88859 0.37363 0.0
C4411 C 0.78411 0.89728 0.3787 0.0
C4412 C 0.77726 0.88477 0.39 0.0
C4413 C 0.77236 0.90707 0.36988 0.0
C4414 C 0.77811 0.9193 0.35648 0.0
C4415 C 0.78739 0.91382 0.34248 0.0
C4416 C 0.79283 0.92539 0.3299 0.0
C4417 C 0.78895 0.94246 0.33111 0.0
C4418 C 0.77959 0.94798 0.34488 0.0
C4419 C 0.77414 0.93646 0.35751 0.0
H4420 H 0.79317 0.95139 0.32135 0.0
H4421 H 0.73728 0.82975 0.43264 0.0
H4422 H 0.63049 0.17374 0.85452 0.0
H4423 H 0.62959 0.2047 0.85548 0.0
H4424 H 0.65466 0.20733 0.90533 0.0
H4425 H 0.65578 0.17585 0.90436 0.0
H4426 H 0.62559 0.22682 0.90329 0.0
H4427 H 0.67683 0.22146 0.87161 0.0
H4428 H 0.69419 0.21006 0.84878 0.0
H4429 H 0.6607 0.22907 0.81062 0.0
H4430 H 0.64299 0.2404 0.83324 0.0
H4431 H 0.64142 0.31669 0.9091 0.0
H4432 H 0.64285 0.28595 0.90773 0.0
H4433 H 0.62648 0.28476 0.85461 0.0
H4434 H 0.62568 0.31621 0.85572 0.0
H4435 H 0.65088 0.26418 0.85812 0.0
H4436 H 0.59938 0.2692 0.88862 0.0
H4437 H 0.58078 0.28 0.91072 0.0
H4438 H 0.61273 0.26082 0.95011 0.0
H4439 H 0.63167 0.2501 0.92825 0.0
C4440 C 0.63594 0.18079 0.86573 0.0
C4441 C 0.64322 0.17211 0.87939 0.0
C4442 C 0.63545 0.19864 0.86621 0.0
C4443 C 0.64211 0.20856 0.88042 0.0
C4444 C 0.64944 0.20003 0.89417 0.0
C4445 C 0.65017 0.18202 0.89359 0.0
C4446 C 0.64096 0.22768 0.88081 0.0
C4447 C 0.6314 0.23503 0.89359 0.0
C4448 C 0.64787 0.23842 0.86777 0.0
C4449 C 0.65851 0.23168 0.85413 0.0
C4450 C 0.67309 0.2231 0.85835 0.0
C4451 C 0.68301 0.21668 0.84545 0.0
C4452 C 0.67855 0.21885 0.82827 0.0
C4453 C 0.66416 0.22744 0.82395 0.0
C4454 C 0.65418 0.23387 0.8368 0.0
C4455 C 0.63793 0.31004 0.89706 0.0
C4456 C 0.63329 0.3192 0.88252 0.0
C4457 C 0.63867 0.29223 0.89635 0.0
C4458 C 0.63446 0.28266 0.88118 0.0
C4459 C 0.62972 0.29167 0.86656 0.0
C4460 C 0.62913 0.30971 0.86722 0.0
C4461 C 0.63558 0.26346 0.88072 0.0
C4462 C 0.64507 0.25604 0.86787 0.0
C4463 C 0.62841 0.25259 0.8936 0.0
C4464 C 0.61703 0.25898 0.90679 0.0
C4465 C 0.60251 0.26739 0.902 0.0
C4466 C 0.5919 0.27348 0.91449 0.0
C4467 C 0.59559 0.27114 0.93181 0.0
C4468 C 0.60989 0.26265 0.93669 0.0
C4469 C 0.62056 0.25654 0.92425 0.0
H4470 H 0.58736 0.27586 0.94146 0.0
H4471 H 0.68627 0.21388 0.8183 0.0
H4472 H 0.36319 0.90516 0.65226 0.0
H4473 H 0.33215 0.90525 0.65287 0.0
H4474 H 0.32637 0.86362 0.61561 0.0
H4475 H 0.35804 0.86339 0.61488 0.0
H4476 H 0.3049 0.88978 0.60849 0.0
H4477 H 0.31762 0.8564 0.6574 0.0
H4478 H 0.33291 0.85057 0.68434 0.0
H4479 H 0.31472 0.89528 0.70806 0.0
H4480 H 0.2995 0.90153 0.68117 0.0
H4481 H 0.2154 0.87401 0.61524 0.0
H4482 H 0.24623 0.87193 0.61557 0.0
H4483 H 0.25247 0.90695 0.65908 0.0
H4484 H 0.22097 0.90846 0.65928 0.0
H4485 H 0.27402 0.88392 0.66314 0.0
H4486 H 0.26276 0.9188 0.61576 0.0
H4487 H 0.24845 0.92708 0.5891 0.0
H4488 H 0.26493 0.88286 0.5629 0.0
H4489 H 0.27914 0.87419 0.58947 0.0
C4490 C 0.35549 0.89591 0.64411 0.0
C4491 C 0.36338 0.88421 0.6335 0.0
C4492 C 0.33756 0.89596 0.64459 0.0
C4493 C 0.32671 0.88431 0.63451 0.0
C4494 C 0.33441 0.87271 0.62363 0.0
C4495 C 0.35254 0.87256 0.62322 0.0
C4496 C 0.30746 0.88469 0.63529 0.0
C4497 C 0.2981 0.88814 0.62038 0.0
C4498 C 0.29857 0.88337 0.65094 0.0
C4499 C 0.30753 0.87951 0.66721 0.0
C4500 C 0.31697 0.86506 0.66832 0.0
C4501 C 0.32561 0.86167 0.68359 0.0
C4502 C 0.32482 0.87257 0.69789 0.0
C4503 C 0.31533 0.88685 0.69696 0.0
C4504 C 0.30667 0.89031 0.68171 0.0
C4505 C 0.22322 0.88139 0.62492 0.0
C4506 C 0.21554 0.89164 0.6371 0.0
C4507 C 0.24104 0.88024 0.62501 0.0
C4508 C 0.25204 0.88966 0.63699 0.0
C4509 C 0.24443 0.89962 0.64953 0.0
C4510 C 0.22638 0.90054 0.64964 0.0
C4511 C 0.27133 0.88889 0.63627 0.0
C4512 C 0.28074 0.88546 0.65121 0.0
C4513 C 0.28036 0.89056 0.62069 0.0
C4514 C 0.27188 0.89576 0.60466 0.0
C4515 C 0.26323 0.91078 0.60435 0.0
C4516 C 0.25515 0.91555 0.58924 0.0
C4517 C 0.25574 0.90548 0.57433 0.0
C4518 C 0.26446 0.89064 0.57447 0.0
C4519 C 0.27254 0.8858 0.58954 0.0
H4520 H 0.24948 0.9092 0.56265 0.0
H4521 H 0.33154 0.86993 0.70969 0.0
H4522 H 0.65624 0.68302 0.13983 0.0
H4523 H 0.66023 0.71436 0.1382 0.0
H4524 H 0.60506 0.71619 0.13628 0.0
H4525 H 0.60113 0.68506 0.13897 0.0
H4526 H 0.65516 0.736 0.11665 0.0
H4527 H 0.59206 0.75407 0.1479 0.0
H4528 H 0.57277 0.74415 0.17096 0.0
H4529 H 0.61427 0.72087 0.19574 0.0
H4530 H 0.63384 0.73083 0.17294 0.0
H4531 H 0.64279 0.82206 0.09445 0.0
H4532 H 0.64133 0.79116 0.09906 0.0
H4533 H 0.64102 0.8005 0.15365 0.0
H4534 H 0.64139 0.83135 0.14894 0.0
H4535 H 0.62044 0.77531 0.14867 0.0
H4536 H 0.67756 0.78575 0.12886 0.0
H4537 H 0.70074 0.79622 0.10973 0.0
H4538 H 0.6779 0.76349 0.06895 0.0
H4539 H 0.65447 0.75299 0.08778 0.0
C4540 C 0.64495 0.69013 0.13944 0.0
C4541 C 0.62835 0.68138 0.13983 0.0
C4542 C 0.64724 0.70817 0.13833 0.0
C4543 C 0.633 0.71809 0.13731 0.0
C4544 C 0.6164 0.70925 0.1376 0.0
C4545 C 0.61413 0.69127 0.13908 0.0
C4546 C 0.63551 0.73744 0.13541 0.0
C4547 C 0.64754 0.74452 0.12373 0.0
C4548 C 0.62601 0.749 0.1448 0.0
C4549 C 0.61436 0.74305 0.15861 0.0
C4550 C 0.59707 0.74689 0.1583 0.0
C4551 C 0.58609 0.74124 0.17132 0.0
C4552 C 0.59228 0.73184 0.18477 0.0
C4553 C 0.60948 0.7281 0.18527 0.0
C4554 C 0.62051 0.73372 0.1723 0.0
C4555 C 0.64268 0.81757 0.10746 0.0
C4556 C 0.64238 0.82936 0.12131 0.0
C4557 C 0.6419 0.79974 0.11014 0.0
C4558 C 0.64132 0.79308 0.12679 0.0
C4559 C 0.64138 0.80497 0.14063 0.0
C4560 C 0.64176 0.82275 0.13794 0.0
C4561 C 0.63999 0.77387 0.12979 0.0
C4562 C 0.62812 0.76681 0.14163 0.0
C4563 C 0.65014 0.76241 0.12107 0.0
C4564 C 0.66417 0.76871 0.10969 0.0
C4565 C 0.67742 0.78088 0.11578 0.0
C4566 C 0.69061 0.7868 0.10499 0.0
C4567 C 0.69077 0.78056 0.08812 0.0
C4568 C 0.67775 0.76834 0.08201 0.0
C4569 C 0.66452 0.76238 0.09274 0.0
H4570 H 0.70099 0.78516 0.07979 0.0
H4571 H 0.58375 0.72748 0.19483 0.0
H4572 H 0.81804 0.10825 0.65652 0.0
H4573 H 0.78644 0.1091 0.6566 0.0
H4574 H 0.78939 0.14376 0.61444 0.0
H4575 H 0.82039 0.14293 0.61418 0.0
H4576 H 0.76863 0.15504 0.63826 0.0
H4577 H 0.77496 0.10138 0.60862 0.0
H4578 H 0.78457 0.07234 0.60534 0.0
H4579 H 0.75553 0.0559 0.64897 0.0
H4580 H 0.74593 0.08493 0.65265 0.0
H4581 H 0.6789 0.15375 0.61435 0.0
H4582 H 0.71024 0.15173 0.61412 0.0
H4583 H 0.70529 0.11226 0.65182 0.0
H4584 H 0.67437 0.11382 0.65174 0.0
H4585 H 0.72728 0.10331 0.63081 0.0
H4586 H 0.72096 0.15625 0.66107 0.0
H4587 H 0.71151 0.18524 0.6654 0.0
H4588 H 0.74065 0.20307 0.62231 0.0
H4589 H 0.75009 0.17411 0.61759 0.0
C4590 C 0.81193 0.11597 0.64723 0.0
C4591 C 0.82198 0.12545 0.63533 0.0
C4592 C 0.79382 0.11645 0.64726 0.0
C4593 C 0.78535 0.12652 0.63549 0.0
C4594 C 0.79542 0.13595 0.62372 0.0
C4595 C 0.81332 0.13536 0.62357 0.0
C4596 C 0.7661 0.12751 0.63521 0.0
C4597 C 0.75962 0.14371 0.63648 0.0
C4598 C 0.75413 0.11281 0.63323 0.0
C4599 C 0.75989 0.09537 0.63103 0.0
C4600 C 0.77075 0.09161 0.61761 0.0
C4601 C 0.77617 0.07515 0.61566 0.0
C4602 C 0.77071 0.0623 0.62697 0.0
C4603 C 0.75978 0.06587 0.64024 0.0
C4604 C 0.75433 0.08233 0.64226 0.0
C4605 C 0.68449 0.14459 0.62251 0.0
C4606 C 0.6739 0.13402 0.63307 0.0
C4607 C 0.70251 0.1435 0.62249 0.0
C4608 C 0.71044 0.13196 0.63315 0.0
C4609 C 0.69977 0.12127 0.64343 0.0
C4610 C 0.6819 0.12227 0.64339 0.0
C4611 C 0.72973 0.13088 0.63387 0.0
C4612 C 0.73624 0.11467 0.63266 0.0
C4613 C 0.74174 0.14557 0.63608 0.0
C4614 C 0.73607 0.16297 0.63886 0.0
C4615 C 0.72524 0.16632 0.65244 0.0
C4616 C 0.71991 0.18275 0.65498 0.0
C4617 C 0.72543 0.19598 0.6441 0.0
C4618 C 0.73635 0.19281 0.6307 0.0
C4619 C 0.7417 0.17639 0.62809 0.0
H4620 H 0.7213 0.20869 0.64609 0.0
H4621 H 0.77492 0.04955 0.62544 0.0
H4622 H 0.38121 0.18416 0.15199 0.0
H4623 H 0.38234 0.21517 0.15735 0.0
H4624 H 0.37974 0.22317 0.10293 0.0
H4625 H 0.37764 0.19212 0.09765 0.0
H4626 H 0.40338 0.24 0.15267 0.0
H4627 H 0.36603 0.26112 0.09259 0.0
H4628 H 0.34141 0.25035 0.0737 0.0
H4629 H 0.32063 0.21886 0.11395 0.0
H4630 H 0.345 0.2296 0.13314 0.0
H4631 H 0.42262 0.33018 0.14408 0.0
H4632 H 0.41848 0.2989 0.14122 0.0
H4633 H 0.36349 0.30083 0.14429 0.0
H4634 H 0.3676 0.33221 0.14618 0.0
H4635 H 0.36715 0.27887 0.12188 0.0
H4636 H 0.39207 0.28533 0.17806 0.0
H4637 H 0.41322 0.29576 0.20075 0.0
H4638 H 0.45281 0.27142 0.17487 0.0
H4639 H 0.43194 0.26102 0.15191 0.0
C4640 C 0.38051 0.1925 0.14116 0.0
C4641 C 0.37908 0.18548 0.12438 0.0
C4642 C 0.38133 0.21037 0.14423 0.0
C4643 C 0.38098 0.22191 0.13063 0.0
C4644 C 0.37955 0.21484 0.11382 0.0
C4645 C 0.37839 0.19694 0.11076 0.0
C4646 C 0.38272 0.24117 0.13403 0.0
C4647 C 0.39538 0.24842 0.1459 0.0
C4648 C 0.37218 0.25251 0.12565 0.0
C4649 C 0.35744 0.24603 0.11423 0.0
C4650 C 0.35618 0.25194 0.09742 0.0
C4651 C 0.34227 0.24583 0.08666 0.0
C4652 C 0.3295 0.23389 0.09261 0.0
C4653 C 0.33057 0.22806 0.10934 0.0
C4654 C 0.34444 0.23414 0.12016 0.0
C4655 C 0.40965 0.32395 0.14446 0.0
C4656 C 0.39548 0.33386 0.14556 0.0
C4657 C 0.40726 0.30591 0.14285 0.0
C4658 C 0.39063 0.29709 0.14274 0.0
C4659 C 0.37649 0.30703 0.14425 0.0
C4660 C 0.37886 0.32508 0.14551 0.0
C4661 C 0.38791 0.27771 0.14041 0.0
C4662 C 0.37511 0.27045 0.12869 0.0
C4663 C 0.39788 0.26631 0.14942 0.0
C4664 C 0.41048 0.27254 0.16318 0.0
C4665 C 0.40532 0.2823 0.17715 0.0
C4666 C 0.41725 0.28819 0.19007 0.0
C4667 C 0.43436 0.28429 0.18923 0.0
C4668 C 0.43956 0.27446 0.17549 0.0
C4669 C 0.42768 0.26854 0.16253 0.0
H4670 H 0.44357 0.28886 0.19925 0.0
H4671 H 0.31875 0.22917 0.08425 0.0
H4672 H 0.14291 0.40041 0.19269 0.0
H4673 H 0.14711 0.40142 0.22365 0.0
H4674 H 0.10036 0.36817 0.22881 0.0
H4675 H 0.09566 0.36781 0.1976 0.0
H4676 H 0.10057 0.39111 0.25227 0.0
H4677 H 0.14401 0.3554 0.23572 0.0
H4678 H 0.16881 0.34678 0.21968 0.0
H4679 H 0.20015 0.39082 0.24008 0.0
H4680 H 0.17546 0.39983 0.25608 0.0
H4681 H 0.11679 0.37528 0.34038 0.0
H4682 H 0.11434 0.37127 0.3093 0.0
H4683 H 0.15339 0.41315 0.30321 0.0
H4684 H 0.15581 0.4174 0.33448 0.0
H4685 H 0.15717 0.3848 0.28068 0.0
H4686 H 0.11234 0.41994 0.29713 0.0
H4687 H 0.08727 0.42692 0.31372 0.0
H4688 H 0.05818 0.38129 0.29378 0.0
H4689 H 0.08319 0.3739 0.27728 0.0
C4690 C 0.13358 0.39309 0.20032 0.0
C4691 C 0.11899 0.38389 0.19246 0.0
C4692 C 0.13607 0.39361 0.21819 0.0
C4693 C 0.12428 0.38462 0.22889 0.0
C4694 C 0.10976 0.37523 0.22104 0.0
C4695 C 0.10712 0.37491 0.20311 0.0
C4696 C 0.12679 0.38564 0.24816 0.0
C4697 C 0.11291 0.38941 0.25839 0.0
C4698 C 0.14293 0.38379 0.25651 0.0
C4699 C 0.15784 0.37837 0.24698 0.0
C4700 C 0.15616 0.36331 0.2367 0.0
C4701 C 0.1702 0.35834 0.22762 0.0
C4702 C 0.18603 0.36827 0.22883 0.0
C4703 C 0.18787 0.38316 0.23915 0.0
C4704 C 0.17386 0.38819 0.24824 0.0
C4705 C 0.12505 0.38356 0.33251 0.0
C4706 C 0.13653 0.3967 0.3401 0.0
C4707 C 0.12354 0.38129 0.31464 0.0
C4708 C 0.13352 0.392 0.30373 0.0
C4709 C 0.14549 0.4047 0.31125 0.0
C4710 C 0.14688 0.40712 0.32919 0.0
C4711 C 0.131 0.39026 0.28458 0.0
C4712 C 0.14485 0.3864 0.27445 0.0
C4713 C 0.11479 0.39175 0.27634 0.0
C4714 C 0.09969 0.39628 0.2861 0.0
C4715 C 0.10064 0.41132 0.29639 0.0
C4716 C 0.08644 0.41537 0.30576 0.0
C4717 C 0.07116 0.40453 0.30484 0.0
C4718 C 0.07004 0.38966 0.2945 0.0
C4719 C 0.08422 0.38554 0.28513 0.0
H4720 H 0.06018 0.40768 0.31211 0.0
H4721 H 0.19689 0.36441 0.22178 0.0
H4722 H 0.15804 0.6128 0.66209 0.0
H4723 H 0.15523 0.61538 0.69318 0.0
H4724 H 0.13694 0.66535 0.68762 0.0
H4725 H 0.13949 0.66277 0.65646 0.0
H4726 H 0.16038 0.66288 0.71698 0.0
H4727 H 0.10959 0.63296 0.69068 0.0
H4728 H 0.09413 0.61018 0.67246 0.0
H4729 H 0.11126 0.57183 0.70568 0.0
H4730 H 0.12742 0.59432 0.72372 0.0
H4731 H 0.13007 0.66506 0.80347 0.0
H4732 H 0.13215 0.66759 0.77221 0.0
H4733 H 0.13573 0.61301 0.76737 0.0
H4734 H 0.1328 0.61034 0.79793 0.0
H4735 H 0.11816 0.62008 0.74236 0.0
H4736 H 0.17197 0.64678 0.76563 0.0
H4737 H 0.19082 0.6676 0.78327 0.0
H4738 H 0.171 0.70927 0.7565 0.0
H4739 H 0.15188 0.68869 0.73882 0.0
C4740 C 0.15376 0.62452 0.66745 0.0
C4741 C 0.14905 0.63758 0.65661 0.0
C4742 C 0.15208 0.62594 0.6853 0.0
C4743 C 0.14574 0.64052 0.69289 0.0
C4744 C 0.14188 0.65398 0.6822 0.0
C4745 C 0.14336 0.65247 0.66431 0.0
C4746 C 0.14199 0.64112 0.7117 0.0
C4747 C 0.15099 0.65365 0.72251 0.0
C4748 C 0.12999 0.6289 0.71911 0.0
C4749 C 0.11986 0.61537 0.7085 0.0
C4750 C 0.11019 0.61967 0.69404 0.0
C4751 C 0.10129 0.60681 0.68373 0.0
C4752 C 0.10166 0.58959 0.68793 0.0
C4753 C 0.11097 0.58519 0.70244 0.0
C4754 C 0.12005 0.59799 0.71268 0.0
C4755 C 0.13105 0.65359 0.7957 0.0
C4756 C 0.13123 0.63751 0.80348 0.0
C4757 C 0.13246 0.65505 0.77774 0.0
C4758 C 0.13443 0.64052 0.76711 0.0
C4759 C 0.1342 0.6245 0.77494 0.0
C4760 C 0.13255 0.62302 0.79267 0.0
C4761 C 0.13691 0.64159 0.74796 0.0
C4762 C 0.12756 0.62939 0.73696 0.0
C4763 C 0.14891 0.65383 0.74047 0.0
C4764 C 0.16035 0.66622 0.75106 0.0
C4765 C 0.17155 0.66039 0.7636 0.0
C4766 C 0.18229 0.67214 0.77358 0.0
C4767 C 0.18207 0.68975 0.77104 0.0
C4768 C 0.17113 0.69563 0.75847 0.0
C4769 C 0.16035 0.68393 0.74846 0.0
H4770 H 0.1904 0.69883 0.77878 0.0
H4771 H 0.09474 0.57966 0.67995 0.0
H4772 H 0.91442 0.6645 0.19938 0.0
H4773 H 0.91416 0.66342 0.2309 0.0
H4774 H 0.8809 0.61631 0.22738 0.0
H4775 H 0.88106 0.61727 0.19641 0.0
H4776 H 0.86928 0.63678 0.25109 0.0
H4777 H 0.92433 0.61697 0.23796 0.0
H4778 H 0.95324 0.61897 0.22557 0.0
H4779 H 0.96799 0.66441 0.25615 0.0
H4780 H 0.93909 0.6628 0.26856 0.0
H4781 H 0.87519 0.61258 0.33967 0.0
H4782 H 0.87537 0.61303 0.30813 0.0
H4783 H 0.91337 0.65671 0.31078 0.0
H4784 H 0.9137 0.65594 0.34169 0.0
H4785 H 0.92249 0.63762 0.28719 0.0
H4786 H 0.86771 0.65821 0.30004 0.0
H4787 H 0.83875 0.65692 0.31227 0.0
H4788 H 0.82335 0.61124 0.28228 0.0
H4789 H 0.8523 0.61215 0.27002 0.0
C4790 C 0.90713 0.6539 0.20533 0.0
C4791 C 0.89782 0.641 0.19512 0.0
C4792 C 0.90698 0.65325 0.22341 0.0
C4793 C 0.8975 0.63972 0.23172 0.0
C4794 C 0.88825 0.62694 0.22149 0.0
C4795 C 0.88846 0.62752 0.2036 0.0
C4796 C 0.89701 0.63862 0.25097 0.0
C4797 C 0.88095 0.63683 0.25895 0.0
C4798 C 0.91212 0.63891 0.26146 0.0
C4799 C 0.9295 0.63987 0.25404 0.0
C4800 C 0.9337 0.62747 0.24194 0.0
C4801 C 0.95009 0.62851 0.23493 0.0
C4802 C 0.96243 0.64184 0.24003 0.0
C4803 C 0.95841 0.65411 0.25219 0.0
C4804 C 0.94204 0.65313 0.25922 0.0
C4805 C 0.88357 0.62225 0.33349 0.0
C4806 C 0.89447 0.63413 0.34344 0.0
C4807 C 0.88362 0.62259 0.31538 0.0
C4808 C 0.89434 0.63503 0.30676 0.0
C4809 C 0.90507 0.64686 0.3168 0.0
C4810 C 0.90518 0.6464 0.33469 0.0
C4811 C 0.89472 0.63596 0.28745 0.0
C4812 C 0.91079 0.63765 0.2794 0.0
C4813 C 0.8796 0.63572 0.27691 0.0
C4814 C 0.86222 0.63515 0.28426 0.0
C4815 C 0.85818 0.64783 0.29615 0.0
C4816 C 0.84177 0.64717 0.30307 0.0
C4817 C 0.82924 0.63398 0.2981 0.0
C4818 C 0.83308 0.62144 0.28615 0.0
C4819 C 0.84948 0.62202 0.2792 0.0
H4820 H 0.81654 0.6335 0.30347 0.0
H4821 H 0.97511 0.64263 0.2346 0.0
H4822 H 0.89285 0.40568 0.84061 0.0
H4823 H 0.89103 0.40495 0.80955 0.0
H4824 H 0.90043 0.35153 0.80882 0.0
H4825 H 0.90221 0.3521 0.84042 0.0
H4826 H 0.91814 0.37049 0.78279 0.0
H4827 H 0.86031 0.36173 0.80212 0.0
H4828 H 0.83543 0.36791 0.81936 0.0
H4829 H 0.83517 0.4175 0.79691 0.0
H4830 H 0.86023 0.41173 0.77971 0.0
H4831 H 0.89463 0.3619 0.69399 0.0
H4832 H 0.89597 0.35784 0.72492 0.0
H4833 H 0.87892 0.40818 0.73335 0.0
H4834 H 0.87709 0.41208 0.70235 0.0
H4835 H 0.86446 0.38809 0.7557 0.0
H4836 H 0.92304 0.39827 0.73811 0.0
H4837 H 0.94854 0.39321 0.72128 0.0
H4838 H 0.94802 0.34221 0.74064 0.0
H4839 H 0.92237 0.3469 0.75742 0.0
C4840 C 0.89466 0.39369 0.834 0.0
C4841 C 0.89758 0.37888 0.84329 0.0
C4842 C 0.89354 0.39332 0.81608 0.0
C4843 C 0.89526 0.37814 0.80664 0.0
C4844 C 0.89894 0.36343 0.81572 0.0
C4845 C 0.9 0.36377 0.83384 0.0
C4846 C 0.89271 0.37785 0.78742 0.0
C4847 C 0.90627 0.37401 0.77687 0.0
C4848 C 0.87742 0.38288 0.77951 0.0
C4849 C 0.86224 0.38634 0.78972 0.0
C4850 C 0.85503 0.37401 0.80094 0.0
C4851 C 0.84088 0.37743 0.8107 0.0
C4852 C 0.83374 0.3931 0.80925 0.0
C4853 C 0.84072 0.40537 0.79802 0.0
C4854 C 0.85489 0.40202 0.78825 0.0
C4855 C 0.89096 0.37206 0.70239 0.0
C4856 C 0.88574 0.38735 0.69551 0.0
C4857 C 0.8919 0.36978 0.7202 0.0
C4858 C 0.88794 0.38282 0.73177 0.0
C4859 C 0.88215 0.39787 0.72489 0.0
C4860 C 0.88107 0.4001 0.70706 0.0
C4861 C 0.88998 0.38093 0.75094 0.0
C4862 C 0.8763 0.38441 0.76154 0.0
C4863 C 0.90522 0.3757 0.75887 0.0
C4864 C 0.92068 0.37287 0.74887 0.0
C4865 C 0.92829 0.38594 0.73868 0.0
C4866 C 0.94278 0.38314 0.72917 0.0
C4867 C 0.94986 0.36738 0.72985 0.0
C4868 C 0.9425 0.3544 0.7401 0.0
C4869 C 0.92799 0.35713 0.74962 0.0
H4870 H 0.96108 0.36524 0.72247 0.0
H4871 H 0.82279 0.39573 0.81682 0.0
H4872 H 0.71616 0.90399 0.64696 0.0
H4873 H 0.74743 0.90894 0.64948 0.0
H4874 H 0.75231 0.86876 0.61173 0.0
H4875 H 0.72082 0.86316 0.60988 0.0
H4876 H 0.77492 0.8652 0.63438 0.0
H4877 H 0.76158 0.91514 0.60489 0.0
H4878 H 0.74701 0.94119 0.5991 0.0
H4879 H 0.76699 0.96402 0.64677 0.0
H4880 H 0.78151 0.93801 0.65296 0.0
H4881 H 0.86422 0.89075 0.61961 0.0
H4882 H 0.83286 0.88856 0.61563 0.0
H4883 H 0.82796 0.90975 0.66639 0.0
H4884 H 0.85948 0.91148 0.67074 0.0
H4885 H 0.80609 0.92339 0.63662 0.0
H4886 H 0.8194 0.87158 0.66499 0.0
H4887 H 0.83492 0.8457 0.66825 0.0
H4888 H 0.81561 0.82672 0.61888 0.0
H4889 H 0.80022 0.85267 0.61519 0.0
C4890 C 0.72382 0.89636 0.63895 0.0
C4891 C 0.7158 0.88326 0.62805 0.0
C4892 C 0.74187 0.89926 0.64036 0.0
C4893 C 0.7526 0.88949 0.6306 0.0
C4894 C 0.74456 0.87658 0.61946 0.0
C4895 C 0.72646 0.87345 0.61828 0.0
C4896 C 0.77204 0.89227 0.63256 0.0
C4897 C 0.78162 0.87797 0.6346 0.0
C4898 C 0.78119 0.90888 0.63313 0.0
C4899 C 0.7725 0.92456 0.62946 0.0
C4900 C 0.76277 0.92567 0.6142 0.0
C4901 C 0.75453 0.94043 0.61084 0.0
C4902 C 0.75604 0.95423 0.62258 0.0
C4903 C 0.76582 0.95331 0.6377 0.0
C4904 C 0.77407 0.93857 0.64113 0.0
C4905 C 0.85656 0.89518 0.62991 0.0
C4906 C 0.86453 0.90136 0.64552 0.0
C4907 C 0.83855 0.89384 0.62761 0.0
C4908 C 0.82793 0.89893 0.6407 0.0
C4909 C 0.83582 0.90575 0.65606 0.0
C4910 C 0.85389 0.90676 0.65853 0.0
C4911 C 0.80865 0.89639 0.63851 0.0
C4912 C 0.79921 0.9107 0.63638 0.0
C4913 C 0.79967 0.87981 0.6375 0.0
C4914 C 0.80882 0.86416 0.63973 0.0
C4915 C 0.81861 0.86198 0.65475 0.0
C4916 C 0.82736 0.84728 0.65669 0.0
C4917 C 0.8263 0.8346 0.64376 0.0
C4918 C 0.81646 0.83657 0.62887 0.0
C4919 C 0.80771 0.85127 0.62685 0.0
H4920 H 0.83306 0.82322 0.64532 0.0
H4921 H 0.74965 0.96565 0.61996 0.0
H4922 H 0.64883 0.1852 0.11673 0.0
H4923 H 0.64925 0.21669 0.11812 0.0
H4924 H 0.6114 0.21288 0.1575 0.0
H4925 H 0.61074 0.18174 0.15599 0.0
H4926 H 0.6022 0.23512 0.13596 0.0
H4927 H 0.65576 0.2273 0.16518 0.0
H4928 H 0.68458 0.21696 0.16869 0.0
H4929 H 0.70197 0.24547 0.12506 0.0
H4930 H 0.67318 0.2558 0.12116 0.0
H4931 H 0.60749 0.32611 0.15666 0.0
H4932 H 0.60806 0.29472 0.15841 0.0
H4933 H 0.64641 0.29584 0.11953 0.0
H4934 H 0.64621 0.32669 0.11801 0.0
H4935 H 0.65527 0.27492 0.1421 0.0
H4936 H 0.60165 0.28184 0.11213 0.0
H4937 H 0.57284 0.29211 0.10827 0.0
H4938 H 0.5556 0.26527 0.15296 0.0
H4939 H 0.5844 0.25501 0.1572 0.0
C4940 C 0.64079 0.19107 0.12585 0.0
C4941 C 0.62978 0.18072 0.13624 0.0
C4942 C 0.64101 0.20918 0.12666 0.0
C4943 C 0.63036 0.21746 0.13799 0.0
C4944 C 0.61968 0.20707 0.14855 0.0
C4945 C 0.6194 0.18911 0.14771 0.0
C4946 C 0.62988 0.23677 0.1387 0.0
C4947 C 0.61385 0.24376 0.13754 0.0
C4948 C 0.64495 0.24835 0.14045 0.0
C4949 C 0.66227 0.24218 0.14278 0.0
C4950 C 0.6657 0.23126 0.15626 0.0
C4951 C 0.68203 0.22542 0.15833 0.0
C4952 C 0.69509 0.23052 0.14708 0.0
C4953 C 0.69184 0.24151 0.13375 0.0
C4954 C 0.67552 0.24737 0.13161 0.0
C4955 C 0.61608 0.31967 0.14855 0.0
C4956 C 0.62676 0.32919 0.13719 0.0
C4957 C 0.61634 0.30162 0.14947 0.0
C4958 C 0.62721 0.2926 0.13898 0.0
C4959 C 0.63794 0.30221 0.12785 0.0
C4960 C 0.63772 0.32006 0.12696 0.0
C4961 C 0.6276 0.27328 0.13926 0.0
C4962 C 0.64362 0.26628 0.14059 0.0
C4963 C 0.61252 0.26169 0.13762 0.0
C4964 C 0.59522 0.26783 0.13509 0.0
C4965 C 0.59175 0.27824 0.12121 0.0
C4966 C 0.57542 0.28404 0.11894 0.0
C4967 C 0.56241 0.27939 0.13039 0.0
C4968 C 0.5657 0.26889 0.14412 0.0
C4969 C 0.58202 0.26307 0.14645 0.0
H4970 H 0.54977 0.28388 0.12861 0.0
H4971 H 0.70773 0.22598 0.14871 0.0
H4972 H 0.17239 0.12405 0.60948 0.0
H4973 H 0.20345 0.1265 0.60563 0.0
H4974 H 0.21184 0.13036 0.66038 0.0
H4975 H 0.18058 0.12879 0.66422 0.0
H4976 H 0.2341 0.1515 0.64796 0.0
H4977 H 0.21858 0.09249 0.63357 0.0
H4978 H 0.20232 0.06774 0.61877 0.0
H4979 H 0.21954 0.08645 0.57027 0.0
H4980 H 0.23577 0.11141 0.58478 0.0
H4981 H 0.32082 0.11492 0.62266 0.0
H4982 H 0.28958 0.11086 0.62574 0.0
H4983 H 0.2861 0.16464 0.61679 0.0
H4984 H 0.31744 0.16884 0.61408 0.0
H4985 H 0.26184 0.11335 0.60769 0.0
H4986 H 0.2538 0.17975 0.63965 0.0
H4987 H 0.27086 0.2017 0.65764 0.0
H4988 H 0.30205 0.16336 0.67663 0.0
H4989 H 0.28501 0.14115 0.65897 0.0
C4990 C 0.18079 0.1252 0.62076 0.0
C4991 C 0.17381 0.12604 0.6372 0.0
C4992 C 0.19871 0.12654 0.61854 0.0
C4993 C 0.21035 0.12834 0.63268 0.0
C4994 C 0.20337 0.12899 0.64915 0.0
C4995 C 0.18539 0.12794 0.65138 0.0
C4996 C 0.22966 0.12998 0.63025 0.0
C4997 C 0.24006 0.14312 0.63912 0.0
C4998 C 0.23789 0.11895 0.61901 0.0
C4999 C 0.22827 0.10389 0.61025 0.0
C5000 C 0.21882 0.09137 0.61974 0.0
C5001 C 0.20962 0.0773 0.61141 0.0
C5002 C 0.20986 0.07555 0.59359 0.0
C5003 C 0.21936 0.08783 0.58407 0.0
C5004 C 0.22858 0.10193 0.59235 0.0
C5005 C 0.31343 0.12588 0.62109 0.0
C5006 C 0.32183 0.14224 0.6181 0.0
C5007 C 0.29545 0.12353 0.6229 0.0
C5008 C 0.28525 0.13746 0.62184 0.0
C5009 C 0.29353 0.15367 0.61807 0.0
C5010 C 0.31154 0.15605 0.61632 0.0
C5011 C 0.26615 0.13506 0.62514 0.0
C5012 C 0.25582 0.12177 0.61646 0.0
C5013 C 0.25808 0.1456 0.63696 0.0
C5014 C 0.26824 0.15883 0.64783 0.0
C5015 C 0.26425 0.176 0.64772 0.0
C5016 C 0.27392 0.18848 0.65786 0.0
C5017 C 0.28757 0.18394 0.66823 0.0
C5018 C 0.29151 0.16688 0.66855 0.0
C5019 C 0.28186 0.15434 0.65847 0.0
H5020 H 0.29506 0.19364 0.67603 0.0
H5021 H 0.20272 0.06465 0.58716 0.0
H5022 H 0.36941 0.82977 0.11111 0.0
H5023 H 0.36814 0.79825 0.11242 0.0
H5024 H 0.40846 0.80269 0.1514 0.0
H5025 H 0.40986 0.83379 0.1501 0.0
H5026 H 0.4156 0.7794 0.12878 0.0
H5027 H 0.36504 0.79009 0.15997 0.0
H5028 H 0.3369 0.80139 0.16432 0.0
H5029 H 0.31513 0.77093 0.12145 0.0
H5030 H 0.34322 0.75961 0.11672 0.0
H5031 H 0.41156 0.69014 0.15015 0.0
H5032 H 0.41101 0.72156 0.1519 0.0
H5033 H 0.36848 0.71822 0.11531 0.0
H5034 H 0.36863 0.68724 0.11391 0.0
H5035 H 0.36246 0.74112 0.13736 0.0
H5036 H 0.41264 0.73117 0.10527 0.0
H5037 H 0.44073 0.72008 0.10003 0.0
H5038 H 0.46313 0.74929 0.14342 0.0
H5039 H 0.4351 0.76039 0.14905 0.0
C5040 C 0.37782 0.82404 0.12012 0.0
C5041 C 0.38972 0.83454 0.13048 0.0
C5042 C 0.37712 0.80593 0.12087 0.0
C5043 C 0.38822 0.79783 0.13205 0.0
C5044 C 0.39981 0.80838 0.14257 0.0
C5045 C 0.40051 0.82632 0.14184 0.0
C5046 C 0.38828 0.77852 0.13267 0.0
C5047 C 0.40397 0.77109 0.13088 0.0
C5048 C 0.37316 0.76738 0.13504 0.0
C5049 C 0.35627 0.77414 0.13789 0.0
C5050 C 0.35428 0.7859 0.15139 0.0
C5051 C 0.33834 0.79229 0.15394 0.0
C5052 C 0.32425 0.78692 0.14314 0.0
C5053 C 0.32606 0.7751 0.12979 0.0
C5054 C 0.34199 0.76868 0.12718 0.0
C5055 C 0.40199 0.69609 0.14262 0.0
C5056 C 0.3902 0.68592 0.13186 0.0
C5057 C 0.40175 0.71416 0.1435 0.0
C5058 C 0.38984 0.72259 0.13352 0.0
C5059 C 0.37784 0.71233 0.12318 0.0
C5060 C 0.37801 0.69442 0.12236 0.0
C5061 C 0.3898 0.74195 0.13344 0.0
C5062 C 0.37411 0.74941 0.13531 0.0
C5063 C 0.4049 0.75312 0.13102 0.0
C5064 C 0.42174 0.74644 0.12769 0.0
C5065 C 0.42353 0.73512 0.11377 0.0
C5066 C 0.43944 0.72885 0.11072 0.0
C5067 C 0.45369 0.73393 0.12142 0.0
C5068 C 0.45207 0.74533 0.13517 0.0
C5069 C 0.43618 0.75162 0.13829 0.0
H5070 H 0.466 0.72907 0.11903 0.0
H5071 H 0.31191 0.79188 0.14513 0.0
H5072 H 0.68186 0.11126 0.36744 0.0
H5073 H 0.71308 0.11237 0.36684 0.0
H5074 H 0.71728 0.15662 0.40094 0.0
H5075 H 0.68557 0.15558 0.40171 0.0
H5076 H 0.74149 0.15952 0.37487 0.0
H5077 H 0.72388 0.11833 0.41651 0.0
H5078 H 0.70681 0.09319 0.42782 0.0
H5079 H 0.72664 0.0607 0.3895 0.0
H5080 H 0.74365 0.08572 0.37776 0.0
H5081 H 0.82886 0.15445 0.40038 0.0
H5082 H 0.79779 0.15543 0.39847 0.0
H5083 H 0.79306 0.10902 0.36736 0.0
H5084 H 0.82454 0.10781 0.36944 0.0
H5085 H 0.76899 0.1074 0.39173 0.0
H5086 H 0.78703 0.14899 0.35035 0.0
H5087 H 0.80388 0.1744 0.33929 0.0
H5088 H 0.78326 0.20636 0.37759 0.0
H5089 H 0.76645 0.18109 0.38903 0.0
C5090 C 0.68928 0.12138 0.3748 0.0
C5091 C 0.68096 0.13329 0.38474 0.0
C5092 C 0.70728 0.12192 0.37447 0.0
C5093 C 0.71772 0.13437 0.38405 0.0
C5094 C 0.70958 0.14679 0.39347 0.0
C5095 C 0.6914 0.14621 0.39389 0.0
C5096 C 0.73701 0.13396 0.38438 0.0
C5097 C 0.7475 0.14821 0.37881 0.0
C5098 C 0.745 0.11907 0.38908 0.0
C5099 C 0.73491 0.10394 0.39615 0.0
C5100 C 0.7245 0.10585 0.4104 0.0
C5101 C 0.71485 0.09162 0.4169 0.0
C5102 C 0.7156 0.07537 0.40935 0.0
C5103 C 0.72605 0.07331 0.39531 0.0
C5104 C 0.73571 0.08751 0.38874 0.0
C5105 C 0.82134 0.14447 0.39294 0.0
C5106 C 0.82942 0.13105 0.38501 0.0
C5107 C 0.80343 0.14511 0.39181 0.0
C5108 C 0.79285 0.13242 0.38263 0.0
C5109 C 0.80083 0.11904 0.37451 0.0
C5110 C 0.81889 0.11842 0.37558 0.0
C5111 C 0.77354 0.13296 0.38216 0.0
C5112 C 0.76301 0.11871 0.38773 0.0
C5113 C 0.76554 0.14788 0.37751 0.0
C5114 C 0.7756 0.16311 0.37064 0.0
C5115 C 0.78618 0.16141 0.3565 0.0
C5116 C 0.79571 0.1758 0.35014 0.0
C5117 C 0.79467 0.19198 0.35776 0.0
C5118 C 0.78407 0.19381 0.37172 0.0
C5119 C 0.77452 0.17947 0.37813 0.0
H5120 H 0.80206 0.2031 0.35282 0.0
H5121 H 0.70811 0.06439 0.41441 0.0
H5122 H 0.39248 0.34388 0.84489 0.0
H5123 H 0.39129 0.31276 0.84864 0.0
H5124 H 0.39134 0.32056 0.90342 0.0
H5125 H 0.39324 0.35158 0.89974 0.0
H5126 H 0.40891 0.29545 0.89806 0.0
H5127 H 0.35316 0.30766 0.87667 0.0
H5128 H 0.33248 0.31908 0.85647 0.0
H5129 H 0.34873 0.28638 0.81631 0.0
H5130 H 0.36966 0.27491 0.83623 0.0
H5131 H 0.35194 0.20625 0.89291 0.0
H5132 H 0.35556 0.23758 0.89088 0.0
H5133 H 0.40985 0.23547 0.88282 0.0
H5134 H 0.40633 0.20419 0.88501 0.0
H5135 H 0.36448 0.25768 0.86557 0.0
H5136 H 0.43258 0.27283 0.89681 0.0
H5137 H 0.45073 0.26187 0.91966 0.0
H5138 H 0.40549 0.24049 0.94462 0.0
H5139 H 0.38708 0.25151 0.92205 0.0
C5140 C 0.39248 0.33899 0.85775 0.0
C5141 C 0.39297 0.35041 0.87198 0.0
C5142 C 0.3916 0.32108 0.85991 0.0
C5143 C 0.39081 0.31397 0.87636 0.0
C5144 C 0.39188 0.32543 0.89056 0.0
C5145 C 0.39297 0.34331 0.88842 0.0
C5146 C 0.38854 0.29474 0.87886 0.0
C5147 C 0.39922 0.28726 0.89085 0.0
C5148 C 0.37569 0.28375 0.86986 0.0
C5149 C 0.36308 0.29056 0.85789 0.0
C5150 C 0.35239 0.30299 0.8635 0.0
C5151 C 0.34062 0.30945 0.85211 0.0
C5152 C 0.33932 0.30349 0.8351 0.0
C5153 C 0.34977 0.291 0.82947 0.0
C5154 C 0.36157 0.28451 0.84081 0.0
C5155 C 0.36473 0.21244 0.89102 0.0
C5156 C 0.37885 0.20253 0.88929 0.0
C5157 C 0.36677 0.23045 0.88969 0.0
C5158 C 0.38301 0.23917 0.88673 0.0
C5159 C 0.39719 0.2293 0.88534 0.0
C5160 C 0.39515 0.21129 0.88662 0.0
C5161 C 0.385 0.25841 0.88458 0.0
C5162 C 0.37425 0.26588 0.87268 0.0
C5163 C 0.39751 0.26943 0.89395 0.0
C5164 C 0.40847 0.26283 0.90763 0.0
C5165 C 0.42651 0.26583 0.9072 0.0
C5166 C 0.43684 0.2596 0.9201 0.0
C5167 C 0.42927 0.25044 0.93355 0.0
C5168 C 0.41134 0.24752 0.93416 0.0
C5169 C 0.40096 0.25374 0.9213 0.0
H5170 H 0.43729 0.24562 0.94352 0.0
H5171 H 0.33021 0.30851 0.8263 0.0
H5172 H 0.19516 0.88422 0.41095 0.0
H5173 H 0.22608 0.88328 0.40885 0.0
H5174 H 0.22569 0.91295 0.36306 0.0
H5175 H 0.19424 0.91396 0.36505 0.0
H5176 H 0.2468 0.88611 0.36022 0.0
H5177 H 0.24052 0.93171 0.4007 0.0
H5178 H 0.22931 0.94544 0.42628 0.0
H5179 H 0.25127 0.90868 0.45826 0.0
H5180 H 0.26241 0.89457 0.43283 0.0
H5181 H 0.33724 0.90815 0.35979 0.0
H5182 H 0.30599 0.90691 0.36001 0.0
H5183 H 0.30611 0.88177 0.40855 0.0
H5184 H 0.33782 0.88337 0.4086 0.0
H5185 H 0.28494 0.90626 0.4097 0.0
H5186 H 0.29129 0.86057 0.36957 0.0
H5187 H 0.30235 0.84644 0.34413 0.0
H5188 H 0.28021 0.8827 0.31168 0.0
H5189 H 0.26921 0.8972 0.33695 0.0
C5190 C 0.20149 0.8906 0.40034 0.0
C5191 C 0.19196 0.89926 0.38819 0.0
C5192 C 0.21935 0.89008 0.39922 0.0
C5193 C 0.22847 0.89823 0.38595 0.0
C5194 C 0.21905 0.9066 0.3735 0.0
C5195 C 0.20102 0.9072 0.37466 0.0
C5196 C 0.24777 0.89794 0.38535 0.0
C5197 C 0.25515 0.89079 0.37094 0.0
C5198 C 0.2588 0.9035 0.3995 0.0
C5199 C 0.25216 0.91199 0.41483 0.0
C5200 C 0.24285 0.92647 0.41317 0.0
C5201 C 0.23652 0.93433 0.42765 0.0
C5202 C 0.23954 0.92791 0.44388 0.0
C5203 C 0.24892 0.91363 0.44567 0.0
C5204 C 0.25526 0.9057 0.43123 0.0
C5205 C 0.33072 0.90209 0.37046 0.0
C5206 C 0.34027 0.89579 0.38417 0.0
C5207 C 0.31268 0.90133 0.37052 0.0
C5208 C 0.30339 0.89409 0.38419 0.0
C5209 C 0.31282 0.88741 0.39777 0.0
C5210 C 0.33101 0.88817 0.39773 0.0
C5211 C 0.28405 0.89437 0.38457 0.0
C5212 C 0.27663 0.90155 0.39896 0.0
C5213 C 0.273 0.88876 0.37041 0.0
C5214 C 0.27956 0.88006 0.35518 0.0
C5215 C 0.28889 0.86561 0.35702 0.0
C5216 C 0.29513 0.85752 0.34263 0.0
C5217 C 0.29202 0.86369 0.3263 0.0
C5218 C 0.28263 0.87794 0.32434 0.0
C5219 C 0.27637 0.88609 0.33869 0.0
H5220 H 0.29686 0.85741 0.31517 0.0
H5221 H 0.23463 0.93402 0.45508 0.0
H5222 H 0.62508 0.67603 0.84776 0.0
H5223 H 0.62603 0.7073 0.8515 0.0
H5224 H 0.6466 0.70351 0.9029 0.0
H5225 H 0.64455 0.67236 0.89954 0.0
H5226 H 0.62826 0.72726 0.90475 0.0
H5227 H 0.67153 0.71699 0.86456 0.0
H5228 H 0.68383 0.7056 0.83835 0.0
H5229 H 0.65031 0.7337 0.80748 0.0
H5230 H 0.63765 0.74509 0.83352 0.0
H5231 H 0.66902 0.81607 0.90705 0.0
H5232 H 0.66497 0.78448 0.90503 0.0
H5233 H 0.62316 0.78739 0.8685 0.0
H5234 H 0.62667 0.81875 0.87088 0.0
H5235 H 0.65243 0.76486 0.85931 0.0
H5236 H 0.6105 0.77546 0.90248 0.0
H5237 H 0.60172 0.78746 0.93 0.0
H5238 H 0.63802 0.75896 0.95685 0.0
H5239 H 0.6472 0.74698 0.92944 0.0
C5240 C 0.62958 0.68186 0.85993 0.0
C5241 C 0.63468 0.67153 0.87333 0.0
C5242 C 0.63036 0.69987 0.86203 0.0
C5243 C 0.63684 0.70819 0.87739 0.0
C5244 C 0.64154 0.69775 0.89088 0.0
C5245 C 0.64037 0.67978 0.88893 0.0
C5246 C 0.63888 0.7276 0.87949 0.0
C5247 C 0.63377 0.73533 0.8948 0.0
C5248 C 0.64598 0.73859 0.86667 0.0
C5249 C 0.65351 0.73174 0.85099 0.0
C5250 C 0.66669 0.72064 0.85218 0.0
C5251 C 0.67375 0.7142 0.83736 0.0
C5252 C 0.66782 0.71888 0.82126 0.0
C5253 C 0.65486 0.73006 0.81996 0.0
C5254 C 0.64775 0.73652 0.83474 0.0
C5255 C 0.65878 0.80999 0.89881 0.0
C5256 C 0.6481 0.82009 0.88927 0.0
C5257 C 0.65651 0.79189 0.8976 0.0
C5258 C 0.64379 0.78345 0.88653 0.0
C5259 C 0.63308 0.7935 0.8771 0.0
C5260 C 0.63505 0.81151 0.8786 0.0
C5261 C 0.64182 0.76422 0.88443 0.0
C5262 C 0.64697 0.75662 0.86916 0.0
C5263 C 0.63525 0.75335 0.89744 0.0
C5264 C 0.62968 0.76049 0.9139 0.0
C5265 C 0.61674 0.77189 0.91423 0.0
C5266 C 0.61165 0.77865 0.92982 0.0
C5267 C 0.61934 0.77402 0.94516 0.0
C5268 C 0.6321 0.76256 0.94496 0.0
C5269 C 0.63723 0.75577 0.9294 0.0
H5270 H 0.61539 0.77927 0.95722 0.0
H5271 H 0.6733 0.71389 0.8098 0.0
H5272 H 0.90007 0.62071 0.84379 0.0
H5273 H 0.89759 0.61648 0.81278 0.0
H5274 H 0.91266 0.67029 0.80619 0.0
H5275 H 0.91452 0.67469 0.83736 0.0
H5276 H 0.88821 0.66214 0.78473 0.0
H5277 H 0.93984 0.63605 0.79717 0.0
H5278 H 0.95862 0.61679 0.81162 0.0
H5279 H 0.92568 0.57293 0.79329 0.0
H5280 H 0.90657 0.59195 0.7789 0.0
H5281 H 0.91652 0.62896 0.69547 0.0
H5282 H 0.92108 0.63175 0.72653 0.0
H5283 H 0.86633 0.63207 0.73285 0.0
H5284 H 0.86169 0.62939 0.70173 0.0
H5285 H 0.91244 0.61413 0.75393 0.0
H5286 H 0.85878 0.65957 0.76625 0.0
H5287 H 0.84379 0.68132 0.75082 0.0
H5288 H 0.88709 0.6906 0.71826 0.0
H5289 H 0.90246 0.66921 0.73371 0.0
C5290 C 0.90313 0.63165 0.83579 0.0
C5291 C 0.90766 0.64805 0.84326 0.0
C5292 C 0.90173 0.62918 0.81791 0.0
C5293 C 0.90511 0.64297 0.8068 0.0
C5294 C 0.90992 0.65934 0.81426 0.0
C5295 C 0.91114 0.66185 0.83218 0.0
C5296 C 0.9031 0.64043 0.78756 0.0
C5297 C 0.89351 0.65159 0.77809 0.0
C5298 C 0.91024 0.62692 0.77848 0.0
C5299 C 0.92169 0.61544 0.78709 0.0
C5300 C 0.93654 0.6223 0.79632 0.0
C5301 C 0.94725 0.61143 0.80448 0.0
C5302 C 0.94332 0.59365 0.80341 0.0
C5303 C 0.92869 0.58671 0.79413 0.0
C5304 C 0.91793 0.59753 0.78595 0.0
C5305 C 0.90538 0.62937 0.70345 0.0
C5306 C 0.8887 0.62892 0.69593 0.0
C5307 C 0.90803 0.63098 0.72131 0.0
C5308 C 0.89412 0.63239 0.73226 0.0
C5309 C 0.87738 0.63129 0.72483 0.0
C5310 C 0.87471 0.6296 0.70694 0.0
C5311 C 0.89721 0.63557 0.75127 0.0
C5312 C 0.90704 0.62458 0.76064 0.0
C5313 C 0.89073 0.64952 0.76019 0.0
C5314 C 0.88167 0.66263 0.75102 0.0
C5315 C 0.86512 0.66631 0.75585 0.0
C5316 C 0.85657 0.67859 0.74711 0.0
C5317 C 0.86446 0.68731 0.73355 0.0
C5318 C 0.88097 0.68383 0.72875 0.0
C5319 C 0.8896 0.67163 0.73749 0.0
H5320 H 0.8578 0.69679 0.72678 0.0
H5321 H 0.95163 0.58525 0.80974 0.0
H5322 H 0.91539 0.36899 0.34124 0.0
H5323 H 0.91417 0.3676 0.31018 0.0
H5324 H 0.87065 0.39783 0.30978 0.0
H5325 H 0.87182 0.39941 0.34139 0.0
H5326 H 0.867 0.37093 0.28489 0.0
H5327 H 0.9093 0.4168 0.3009 0.0
H5328 H 0.93479 0.43067 0.31669 0.0
H5329 H 0.96645 0.39451 0.29422 0.0
H5330 H 0.94109 0.38026 0.27849 0.0
H5331 H 0.90488 0.39996 0.19663 0.0
H5332 H 0.90367 0.40344 0.22782 0.0
H5333 H 0.88888 0.3493 0.23191 0.0
H5334 H 0.89007 0.34574 0.20075 0.0
H5335 H 0.92008 0.39134 0.2548 0.0
H5336 H 0.8608 0.34279 0.26507 0.0
H5337 H 0.83456 0.33069 0.24924 0.0
H5338 H 0.83551 0.37571 0.21867 0.0
H5339 H 0.86159 0.38819 0.23448 0.0
C5340 C 0.90541 0.37534 0.33472 0.0
C5341 C 0.89375 0.38445 0.3441 0.0
C5342 C 0.90479 0.37454 0.31679 0.0
C5343 C 0.8925 0.3828 0.30741 0.0
C5344 C 0.88034 0.39138 0.31662 0.0
C5345 C 0.88101 0.39228 0.33475 0.0
C5346 C 0.89294 0.3827 0.2881 0.0
C5347 C 0.87861 0.37542 0.27834 0.0
C5348 C 0.90795 0.38875 0.2793 0.0
C5349 C 0.92327 0.39739 0.28861 0.0
C5350 C 0.92168 0.41174 0.29942 0.0
C5351 C 0.9361 0.41967 0.30835 0.0
C5352 C 0.95222 0.41345 0.30649 0.0
C5353 C 0.95395 0.39931 0.29566 0.0
C5354 C 0.93956 0.39131 0.28671 0.0
C5355 C 0.90158 0.38872 0.20415 0.0
C5356 C 0.89764 0.37254 0.196 0.0
C5357 C 0.90085 0.39075 0.22207 0.0
C5358 C 0.89592 0.37671 0.23243 0.0
C5359 C 0.89245 0.36045 0.22436 0.0
C5360 C 0.89329 0.35839 0.20645 0.0
C5361 C 0.89432 0.3791 0.25155 0.0
C5362 C 0.90845 0.38683 0.2613 0.0
C5363 C 0.87906 0.37363 0.26029 0.0
C5364 C 0.86325 0.36634 0.25085 0.0
C5365 C 0.85537 0.35013 0.25501 0.0
C5366 C 0.84053 0.3432 0.24604 0.0
C5367 C 0.83341 0.3524 0.23292 0.0
C5368 C 0.84107 0.36857 0.22879 0.0
C5369 C 0.8559 0.37557 0.23774 0.0
H5370 H 0.82193 0.347 0.22598 0.0
H5371 H 0.96337 0.41961 0.31342 0.0
H5372 H 0.10697 0.36808 0.83777 0.0
H5373 H 0.10789 0.36567 0.80628 0.0
H5374 H 0.14846 0.40693 0.80629 0.0
H5375 H 0.14765 0.4094 0.8372 0.0
H5376 H 0.1252 0.41225 0.7823 0.0
H5377 H 0.15608 0.36441 0.79903 0.0
H5378 H 0.16 0.33723 0.81343 0.0
H5379 H 0.11703 0.3122 0.78444 0.0
H5380 H 0.11273 0.33931 0.77002 0.0
H5381 H 0.15024 0.40712 0.695 0.0
H5382 H 0.15093 0.4069 0.72649 0.0
H5383 H 0.1128 0.36336 0.72516 0.0
H5384 H 0.11237 0.36325 0.69406 0.0
H5385 H 0.13434 0.35885 0.74987 0.0
H5386 H 0.10295 0.40617 0.73341 0.0
H5387 H 0.0983 0.43321 0.71906 0.0
H5388 H 0.14108 0.4591 0.74764 0.0
H5389 H 0.14612 0.43214 0.76201 0.0
C5390 C 0.11616 0.37653 0.83107 0.0
C5391 C 0.12718 0.38895 0.84026 0.0
C5392 C 0.11671 0.37515 0.813 0.0
C5393 C 0.12827 0.38615 0.80369 0.0
C5394 C 0.13932 0.39834 0.81294 0.0
C5395 C 0.13885 0.39968 0.83081 0.0
C5396 C 0.12892 0.38543 0.7844 0.0
C5397 C 0.12739 0.40058 0.77527 0.0
C5398 C 0.1314 0.37021 0.77495 0.0
C5399 C 0.13396 0.35393 0.7836 0.0
C5400 C 0.14738 0.35314 0.79584 0.0
C5401 C 0.14969 0.33775 0.80398 0.0
C5402 C 0.13874 0.32301 0.79989 0.0
C5403 C 0.12548 0.32364 0.78762 0.0
C5404 C 0.12311 0.33901 0.77945 0.0
C5405 C 0.14219 0.39735 0.70141 0.0
C5406 C 0.1312 0.38527 0.69179 0.0
C5407 C 0.14245 0.39732 0.7195 0.0
C5408 C 0.13166 0.38527 0.72846 0.0
C5409 C 0.12124 0.37284 0.7188 0.0
C5410 C 0.12098 0.37286 0.70085 0.0
C5411 C 0.13073 0.38573 0.74776 0.0
C5412 C 0.13216 0.37054 0.75689 0.0
C5413 C 0.12804 0.40089 0.75723 0.0
C5414 C 0.12503 0.41711 0.74864 0.0
C5415 C 0.11144 0.41761 0.73654 0.0
C5416 C 0.10872 0.43291 0.72842 0.0
C5417 C 0.11942 0.44785 0.7324 0.0
C5418 C 0.13283 0.44751 0.74455 0.0
C5419 C 0.13562 0.43223 0.75269 0.0
H5420 H 0.11729 0.45969 0.7261 0.0
H5421 H 0.14055 0.31111 0.80621 0.0
H5422 H 0.16132 0.64285 0.30355 0.0
H5423 H 0.16257 0.64457 0.27205 0.0
H5424 H 0.10828 0.62853 0.26769 0.0
H5425 H 0.10684 0.62746 0.29891 0.0
H5426 H 0.13177 0.61156 0.24315 0.0
H5427 H 0.11623 0.667 0.26429 0.0
H5428 H 0.12112 0.69341 0.28218 0.0
H5429 H 0.16977 0.70568 0.25861 0.0
H5430 H 0.16526 0.67917 0.24075 0.0
H5431 H 0.10993 0.62791 0.157 0.0
H5432 H 0.11053 0.62583 0.18819 0.0
H5433 H 0.1546 0.66345 0.19147 0.0
H5434 H 0.15317 0.6664 0.16039 0.0
H5435 H 0.13836 0.669 0.21721 0.0
H5436 H 0.15518 0.61583 0.19529 0.0
H5437 H 0.15303 0.589 0.17792 0.0
H5438 H 0.10649 0.57145 0.20298 0.0
H5439 H 0.10823 0.59829 0.22035 0.0
C5440 C 0.14973 0.63945 0.29584 0.0
C5441 C 0.13399 0.63494 0.30379 0.0
C5442 C 0.15043 0.64052 0.27783 0.0
C5443 C 0.1355 0.63668 0.26739 0.0
C5444 C 0.11998 0.63151 0.27534 0.0
C5445 C 0.11919 0.63091 0.29325 0.0
C5446 C 0.13565 0.63873 0.24829 0.0
C5447 C 0.13311 0.62411 0.23745 0.0
C5448 C 0.13787 0.65504 0.24072 0.0
C5449 C 0.14051 0.67101 0.25135 0.0
C5450 C 0.12805 0.67524 0.26305 0.0
C5451 C 0.13073 0.69025 0.27315 0.0
C5452 C 0.14577 0.70119 0.27158 0.0
C5453 C 0.15814 0.69717 0.25984 0.0
C5454 C 0.15552 0.68216 0.24973 0.0
C5455 C 0.11959 0.63593 0.16439 0.0
C5456 C 0.13144 0.64738 0.15607 0.0
C5457 C 0.12012 0.63455 0.18233 0.0
C5458 C 0.13298 0.64405 0.19254 0.0
C5459 C 0.14454 0.65584 0.1842 0.0
C5460 C 0.1437 0.65757 0.1663 0.0
C5461 C 0.13441 0.64175 0.21174 0.0
C5462 C 0.13719 0.65635 0.2227 0.0
C5463 C 0.13284 0.62534 0.2194 0.0
C5464 C 0.13175 0.60916 0.209 0.0
C5465 C 0.14442 0.6063 0.19702 0.0
C5466 C 0.14328 0.59108 0.18718 0.0
C5467 C 0.1296 0.57854 0.18931 0.0
C5468 C 0.11706 0.58118 0.20132 0.0
C5469 C 0.11812 0.59639 0.21118 0.0
H5470 H 0.12874 0.56677 0.18169 0.0
H5471 H 0.14783 0.71281 0.27941 0.0
loop_
_geom_bond_atom_site_label_1
_geom_bond_atom_site_label_2
_geom_bond_distance
_geom_bond_site_symmetry_2
_ccdc_geom_bond_type
O0 Cd1 2.223 . S
O0 C8 1.315 . S
Cd1 O0 2.223 . S
Cd1 O4 2.297 . S
Cd1 O5 2.439 . S
Cd1 O11 2.240 . S
Cd2 O3 2.240 . S
Cd2 O10 2.223 . S
Cd2 O12 2.297 . S
Cd2 O13 2.439 . S
O3 Cd2 2.240 . S
O3 C8 1.279 . S
O4 Cd1 2.297 . S
O4 C6 1.247 . S
O5 Cd1 2.439 . S
O5 C6 1.208 . S
C6 O4 1.247 . S
C6 O5 1.208 . S
C7 O12 1.247 . S
C7 O13 1.208 . S
C8 O0 1.315 . S
C8 O3 1.279 . S
C9 O10 1.315 . S
C9 O11 1.279 . S
O10 Cd2 2.223 . S
O10 C9 1.315 . S
O11 Cd1 2.240 . S
O11 C9 1.279 . S
O12 Cd2 2.297 . S
O12 C7 1.247 . S
O13 Cd2 2.439 . S
O13 C7 1.208 . S
O14 Cd15 2.223 . S
O14 C22 1.315 . S
Cd15 O14 2.223 . S
Cd15 O18 2.297 . S
Cd15 O19 2.439 . S
Cd15 O25 2.240 . S
Cd16 O17 2.240 . S
Cd16 O24 2.223 . S
Cd16 O26 2.297 . S
Cd16 O27 2.439 . S
O17 Cd16 2.240 . S
O17 C22 1.279 . S
O18 Cd15 2.297 . S
O18 C20 1.247 . S
O19 Cd15 2.439 . S
O19 C20 1.208 . S
C20 O18 1.247 . S
C20 O19 1.208 . S
C21 O26 1.247 . S
C21 O27 1.208 . S
C22 O14 1.315 . S
C22 O17 1.279 . S
C23 O24 1.315 . S
C23 O25 1.279 . S
O24 Cd16 2.223 . S
O24 C23 1.315 . S
O25 Cd15 2.240 . S
O25 C23 1.279 . S
O26 Cd16 2.297 . S
O26 C21 1.247 . S
O27 Cd16 2.439 . S
O27 C21 1.208 . S
O28 Cd29 2.223 . S
O28 C36 1.315 . S
Cd29 O28 2.223 . S
Cd29 O32 2.297 . S
Cd29 O33 2.439 . S
Cd29 O39 2.240 . S
Cd30 O31 2.240 . S
Cd30 O38 2.223 . S
Cd30 O40 2.297 . S
Cd30 O41 2.439 . S
O31 Cd30 2.240 . S
O31 C36 1.279 . S
O32 Cd29 2.297 . S
O32 C34 1.247 . S
O33 Cd29 2.439 . S
O33 C34 1.208 . S
C34 O32 1.247 . S
C34 O33 1.208 . S
C35 O40 1.247 . S
C35 O41 1.208 . S
C36 O28 1.315 . S
C36 O31 1.279 . S
C37 O38 1.315 . S
C37 O39 1.279 . S
O38 Cd30 2.223 . S
O38 C37 1.315 . S
O39 Cd29 2.240 . S
O39 C37 1.279 . S
O40 Cd30 2.297 . S
O40 C35 1.247 . S
O41 Cd30 2.439 . S
O41 C35 1.208 . S
O42 Cd43 2.223 . S
O42 C50 1.315 . S
Cd43 O42 2.223 . S
Cd43 O46 2.297 . S
Cd43 O47 2.439 . S
Cd43 O53 2.240 . S
Cd44 O45 2.240 . S
Cd44 O52 2.223 . S
Cd44 O54 2.297 . S
Cd44 O55 2.439 . S
O45 Cd44 2.240 . S
O45 C50 1.279 . S
O46 Cd43 2.297 . S
O46 C48 1.247 . S
O47 Cd43 2.439 . S
O47 C48 1.208 . S
C48 O46 1.247 . S
C48 O47 1.208 . S
C49 O54 1.247 . S
C49 O55 1.208 . S
C50 O42 1.315 . S
C50 O45 1.279 . S
C51 O52 1.315 . S
C51 O53 1.279 . S
O52 Cd44 2.223 . S
O52 C51 1.315 . S
O53 Cd43 2.240 . S
O53 C51 1.279 . S
O54 Cd44 2.297 . S
O54 C49 1.247 . S
O55 Cd44 2.439 . S
O55 C49 1.208 . S
O56 Cd57 2.223 . S
O56 C64 1.315 . S
Cd57 O56 2.223 . S
Cd57 O60 2.297 . S
Cd57 O61 2.439 . S
Cd57 O67 2.240 . S
Cd58 O59 2.240 . S
Cd58 O66 2.223 . S
Cd58 O68 2.297 . S
Cd58 O69 2.439 . S
O59 Cd58 2.240 . S
O59 C64 1.279 . S
O60 Cd57 2.297 . S
O60 C62 1.247 . S
O61 Cd57 2.439 . S
O61 C62 1.208 . S
C62 O60 1.247 . S
C62 O61 1.208 . S
C63 O68 1.247 . S
C63 O69 1.208 . S
C64 O56 1.315 . S
C64 O59 1.279 . S
C65 O66 1.315 . S
C65 O67 1.279 . S
O66 Cd58 2.223 . S
O66 C65 1.315 . S
O67 Cd57 2.240 . S
O67 C65 1.279 . S
O68 Cd58 2.297 . S
O68 C63 1.247 . S
O69 Cd58 2.439 . S
O69 C63 1.208 . S
O70 Cd71 2.223 . S
O70 C78 1.315 . S
Cd71 O70 2.223 . S
Cd71 O74 2.297 . S
Cd71 O75 2.439 . S
Cd71 O81 2.240 . S
Cd72 O73 2.240 . S
Cd72 O80 2.223 . S
Cd72 O82 2.297 . S
Cd72 O83 2.439 . S
O73 Cd72 2.240 . S
O73 C78 1.279 . S
O74 Cd71 2.297 . S
O74 C76 1.247 . S
O75 Cd71 2.439 . S
O75 C76 1.208 . S
C76 O74 1.247 . S
C76 O75 1.208 . S
C77 O82 1.247 . S
C77 O83 1.208 . S
C78 O70 1.315 . S
C78 O73 1.279 . S
C79 O80 1.315 . S
C79 O81 1.279 . S
O80 Cd72 2.223 . S
O80 C79 1.315 . S
O81 Cd71 2.240 . S
O81 C79 1.279 . S
O82 Cd72 2.297 . S
O82 C77 1.247 . S
O83 Cd72 2.439 . S
O83 C77 1.208 . S
O84 Cd85 2.223 . S
O84 C92 1.315 . S
Cd85 O84 2.223 . S
Cd85 O88 2.297 . S
Cd85 O89 2.439 . S
Cd85 O95 2.240 . S
Cd86 O87 2.240 . S
Cd86 O94 2.223 . S
Cd86 O96 2.297 . S
Cd86 O97 2.439 . S
O87 Cd86 2.240 . S
O87 C92 1.279 . S
O88 Cd85 2.297 . S
O88 C90 1.247 . S
O89 Cd85 2.439 . S
O89 C90 1.208 . S
C90 O88 1.247 . S
C90 O89 1.208 . S
C91 O96 1.247 . S
C91 O97 1.208 . S
C92 O84 1.315 . S
C92 O87 1.279 . S
C93 O94 1.315 . S
C93 O95 1.279 . S
O94 Cd86 2.223 . S
O94 C93 1.315 . S
O95 Cd85 2.240 . S
O95 C93 1.279 . S
O96 Cd86 2.297 . S
O96 C91 1.247 . S
O97 Cd86 2.439 . S
O97 C91 1.208 . S
O98 Cd99 2.223 . S
O98 C106 1.315 . S
Cd99 O98 2.223 . S
Cd99 O102 2.297 . S
Cd99 O103 2.439 . S
Cd99 O109 2.240 . S
Cd100 O101 2.240 . S
Cd100 O108 2.223 . S
Cd100 O110 2.297 . S
Cd100 O111 2.439 . S
O101 Cd100 2.240 . S
O101 C106 1.279 . S
O102 Cd99 2.297 . S
O102 C104 1.247 . S
O103 Cd99 2.439 . S
O103 C104 1.208 . S
C104 O102 1.247 . S
C104 O103 1.208 . S
C105 O110 1.247 . S
C105 O111 1.208 . S
C106 O98 1.315 . S
C106 O101 1.279 . S
C107 O108 1.315 . S
C107 O109 1.279 . S
O108 Cd100 2.223 . S
O108 C107 1.315 . S
O109 Cd99 2.240 . S
O109 C107 1.279 . S
O110 Cd100 2.297 . S
O110 C105 1.247 . S
O111 Cd100 2.439 . S
O111 C105 1.208 . S
O112 Cd113 2.223 . S
O112 C120 1.315 . S
Cd113 O112 2.223 . S
Cd113 O116 2.297 . S
Cd113 O117 2.439 . S
Cd113 O123 2.240 . S
Cd114 O115 2.240 . S
Cd114 O122 2.223 . S
Cd114 O124 2.297 . S
Cd114 O125 2.439 . S
O115 Cd114 2.240 . S
O115 C120 1.279 . S
O116 Cd113 2.297 . S
O116 C118 1.247 . S
O117 Cd113 2.439 . S
O117 C118 1.208 . S
C118 O116 1.247 . S
C118 O117 1.208 . S
C119 O124 1.247 . S
C119 O125 1.208 . S
C120 O112 1.315 . S
C120 O115 1.279 . S
C121 O122 1.315 . S
C121 O123 1.279 . S
O122 Cd114 2.223 . S
O122 C121 1.315 . S
O123 Cd113 2.240 . S
O123 C121 1.279 . S
O124 Cd114 2.297 . S
O124 C119 1.247 . S
O125 Cd114 2.439 . S
O125 C119 1.208 . S
O126 Cd127 2.223 . S
O126 C134 1.315 . S
Cd127 O126 2.223 . S
Cd127 O130 2.297 . S
Cd127 O131 2.439 . S
Cd127 O137 2.240 . S
Cd128 O129 2.240 . S
Cd128 O136 2.223 . S
Cd128 O138 2.297 . S
Cd128 O139 2.439 . S
O129 Cd128 2.240 . S
O129 C134 1.279 . S
O130 Cd127 2.297 . S
O130 C132 1.247 . S
O131 Cd127 2.439 . S
O131 C132 1.208 . S
C132 O130 1.247 . S
C132 O131 1.208 . S
C133 O138 1.247 . S
C133 O139 1.208 . S
C134 O126 1.315 . S
C134 O129 1.279 . S
C135 O136 1.315 . S
C135 O137 1.279 . S
O136 Cd128 2.223 . S
O136 C135 1.315 . S
O137 Cd127 2.240 . S
O137 C135 1.279 . S
O138 Cd128 2.297 . S
O138 C133 1.247 . S
O139 Cd128 2.439 . S
O139 C133 1.208 . S
O140 Cd141 2.223 . S
O140 C148 1.315 . S
Cd141 O140 2.223 . S
Cd141 O144 2.297 . S
Cd141 O145 2.439 . S
Cd141 O151 2.240 . S
Cd142 O143 2.240 . S
Cd142 O150 2.223 . S
Cd142 O152 2.297 . S
Cd142 O153 2.439 . S
O143 Cd142 2.240 . S
O143 C148 1.279 . S
O144 Cd141 2.297 . S
O144 C146 1.247 . S
O145 Cd141 2.439 . S
O145 C146 1.208 . S
C146 O144 1.247 . S
C146 O145 1.208 . S
C147 O152 1.247 . S
C147 O153 1.208 . S
C148 O140 1.315 . S
C148 O143 1.279 . S
C149 O150 1.315 . S
C149 O151 1.279 . S
O150 Cd142 2.223 . S
O150 C149 1.315 . S
O151 Cd141 2.240 . S
O151 C149 1.279 . S
O152 Cd142 2.297 . S
O152 C147 1.247 . S
O153 Cd142 2.439 . S
O153 C147 1.208 . S
O154 Cd155 2.223 . S
O154 C162 1.315 . S
Cd155 O154 2.223 . S
Cd155 O158 2.297 . S
Cd155 O159 2.439 . S
Cd155 O165 2.240 . S
Cd156 O157 2.240 . S
Cd156 O164 2.223 . S
Cd156 O166 2.297 . S
Cd156 O167 2.439 . S
O157 Cd156 2.240 . S
O157 C162 1.279 . S
O158 Cd155 2.297 . S
O158 C160 1.247 . S
O159 Cd155 2.439 . S
O159 C160 1.208 . S
C160 O158 1.247 . S
C160 O159 1.208 . S
C161 O166 1.247 . S
C161 O167 1.208 . S
C162 O154 1.315 . S
C162 O157 1.279 . S
C163 O164 1.315 . S
C163 O165 1.279 . S
O164 Cd156 2.223 . S
O164 C163 1.315 . S
O165 Cd155 2.240 . S
O165 C163 1.279 . S
O166 Cd156 2.297 . S
O166 C161 1.247 . S
O167 Cd156 2.439 . S
O167 C161 1.208 . S
O168 Cd169 2.223 . S
O168 C176 1.315 . S
Cd169 O168 2.223 . S
Cd169 O172 2.297 . S
Cd169 O173 2.439 . S
Cd169 O179 2.240 . S
Cd170 O171 2.240 . S
Cd170 O178 2.223 . S
Cd170 O180 2.297 . S
Cd170 O181 2.439 . S
O171 Cd170 2.240 . S
O171 C176 1.279 . S
O172 Cd169 2.297 . S
O172 C174 1.247 . S
O173 Cd169 2.439 . S
O173 C174 1.208 . S
C174 O172 1.247 . S
C174 O173 1.208 . S
C175 O180 1.247 . S
C175 O181 1.208 . S
C176 O168 1.315 . S
C176 O171 1.279 . S
C177 O178 1.315 . S
C177 O179 1.279 . S
O178 Cd170 2.223 . S
O178 C177 1.315 . S
O179 Cd169 2.240 . S
O179 C177 1.279 . S
O180 Cd170 2.297 . S
O180 C175 1.247 . S
O181 Cd170 2.439 . S
O181 C175 1.208 . S
O182 Cd183 2.223 . S
O182 C190 1.315 . S
Cd183 O182 2.223 . S
Cd183 O186 2.297 . S
Cd183 O187 2.439 . S
Cd183 O193 2.240 . S
Cd184 O185 2.240 . S
Cd184 O192 2.223 . S
Cd184 O194 2.297 . S
Cd184 O195 2.439 . S
O185 Cd184 2.240 . S
O185 C190 1.279 . S
O186 Cd183 2.297 . S
O186 C188 1.247 . S
O187 Cd183 2.439 . S
O187 C188 1.208 . S
C188 O186 1.247 . S
C188 O187 1.208 . S
C189 O194 1.247 . S
C189 O195 1.208 . S
C190 O182 1.315 . S
C190 O185 1.279 . S
C191 O192 1.315 . S
C191 O193 1.279 . S
O192 Cd184 2.223 . S
O192 C191 1.315 . S
O193 Cd183 2.240 . S
O193 C191 1.279 . S
O194 Cd184 2.297 . S
O194 C189 1.247 . S
O195 Cd184 2.439 . S
O195 C189 1.208 . S
O196 Cd197 2.223 . S
O196 C204 1.315 . S
Cd197 O196 2.223 . S
Cd197 O200 2.297 . S
Cd197 O201 2.439 . S
Cd197 O207 2.240 . S
Cd198 O199 2.240 . S
Cd198 O206 2.223 . S
Cd198 O208 2.297 . S
Cd198 O209 2.439 . S
O199 Cd198 2.240 . S
O199 C204 1.279 . S
O200 Cd197 2.297 . S
O200 C202 1.247 . S
O201 Cd197 2.439 . S
O201 C202 1.208 . S
C202 O200 1.247 . S
C202 O201 1.208 . S
C203 O208 1.247 . S
C203 O209 1.208 . S
C204 O196 1.315 . S
C204 O199 1.279 . S
C205 O206 1.315 . S
C205 O207 1.279 . S
O206 Cd198 2.223 . S
O206 C205 1.315 . S
O207 Cd197 2.240 . S
O207 C205 1.279 . S
O208 Cd198 2.297 . S
O208 C203 1.247 . S
O209 Cd198 2.439 . S
O209 C203 1.208 . S
O210 Cd211 2.223 . S
O210 C218 1.315 . S
Cd211 O210 2.223 . S
Cd211 O214 2.297 . S
Cd211 O215 2.439 . S
Cd211 O221 2.240 . S
Cd212 O213 2.240 . S
Cd212 O220 2.223 . S
Cd212 O222 2.297 . S
Cd212 O223 2.439 . S
O213 Cd212 2.240 . S
O213 C218 1.279 . S
O214 Cd211 2.297 . S
O214 C216 1.247 . S
O215 Cd211 2.439 . S
O215 C216 1.208 . S
C216 O214 1.247 . S
C216 O215 1.208 . S
C217 O222 1.247 . S
C217 O223 1.208 . S
C218 O210 1.315 . S
C218 O213 1.279 . S
C219 O220 1.315 . S
C219 O221 1.279 . S
O220 Cd212 2.223 . S
O220 C219 1.315 . S
O221 Cd211 2.240 . S
O221 C219 1.279 . S
O222 Cd212 2.297 . S
O222 C217 1.247 . S
O223 Cd212 2.439 . S
O223 C217 1.208 . S
O224 Cd225 2.223 . S
O224 C232 1.315 . S
Cd225 O224 2.223 . S
Cd225 O228 2.297 . S
Cd225 O229 2.439 . S
Cd225 O235 2.240 . S
Cd226 O227 2.240 . S
Cd226 O234 2.223 . S
Cd226 O236 2.297 . S
Cd226 O237 2.439 . S
O227 Cd226 2.240 . S
O227 C232 1.279 . S
O228 Cd225 2.297 . S
O228 C230 1.247 . S
O229 Cd225 2.439 . S
O229 C230 1.208 . S
C230 O228 1.247 . S
C230 O229 1.208 . S
C231 O236 1.247 . S
C231 O237 1.208 . S
C232 O224 1.315 . S
C232 O227 1.279 . S
C233 O234 1.315 . S
C233 O235 1.279 . S
O234 Cd226 2.223 . S
O234 C233 1.315 . S
O235 Cd225 2.240 . S
O235 C233 1.279 . S
O236 Cd226 2.297 . S
O236 C231 1.247 . S
O237 Cd226 2.439 . S
O237 C231 1.208 . S
O238 Cd239 2.223 . S
O238 C246 1.315 . S
Cd239 O238 2.223 . S
Cd239 O242 2.297 . S
Cd239 O243 2.439 . S
Cd239 O249 2.240 . S
Cd240 O241 2.240 . S
Cd240 O248 2.223 . S
Cd240 O250 2.297 . S
Cd240 O251 2.439 . S
O241 Cd240 2.240 . S
O241 C246 1.279 . S
O242 Cd239 2.297 . S
O242 C244 1.247 . S
O243 Cd239 2.439 . S
O243 C244 1.208 . S
C244 O242 1.247 . S
C244 O243 1.208 . S
C245 O250 1.247 . S
C245 O251 1.208 . S
C246 O238 1.315 . S
C246 O241 1.279 . S
C247 O248 1.315 . S
C247 O249 1.279 . S
O248 Cd240 2.223 . S
O248 C247 1.315 . S
O249 Cd239 2.240 . S
O249 C247 1.279 . S
O250 Cd240 2.297 . S
O250 C245 1.247 . S
O251 Cd240 2.439 . S
O251 C245 1.208 . S
O252 Cd253 2.223 . S
O252 C260 1.315 . S
Cd253 O252 2.223 . S
Cd253 O256 2.297 . S
Cd253 O257 2.439 . S
Cd253 O263 2.240 . S
Cd254 O255 2.240 . S
Cd254 O262 2.223 . S
Cd254 O264 2.297 . S
Cd254 O265 2.439 . S
O255 Cd254 2.240 . S
O255 C260 1.279 . S
O256 Cd253 2.297 . S
O256 C258 1.247 . S
O257 Cd253 2.439 . S
O257 C258 1.208 . S
C258 O256 1.247 . S
C258 O257 1.208 . S
C259 O264 1.247 . S
C259 O265 1.208 . S
C260 O252 1.315 . S
C260 O255 1.279 . S
C261 O262 1.315 . S
C261 O263 1.279 . S
O262 Cd254 2.223 . S
O262 C261 1.315 . S
O263 Cd253 2.240 . S
O263 C261 1.279 . S
O264 Cd254 2.297 . S
O264 C259 1.247 . S
O265 Cd254 2.439 . S
O265 C259 1.208 . S
O266 Cd267 2.223 . S
O266 C274 1.315 . S
Cd267 O266 2.223 . S
Cd267 O270 2.297 . S
Cd267 O271 2.439 . S
Cd267 O277 2.240 . S
Cd268 O269 2.240 . S
Cd268 O276 2.223 . S
Cd268 O278 2.297 . S
Cd268 O279 2.439 . S
O269 Cd268 2.240 . S
O269 C274 1.279 . S
O270 Cd267 2.297 . S
O270 C272 1.247 . S
O271 Cd267 2.439 . S
O271 C272 1.208 . S
C272 O270 1.247 . S
C272 O271 1.208 . S
C273 O278 1.247 . S
C273 O279 1.208 . S
C274 O266 1.315 . S
C274 O269 1.279 . S
C275 O276 1.315 . S
C275 O277 1.279 . S
O276 Cd268 2.223 . S
O276 C275 1.315 . S
O277 Cd267 2.240 . S
O277 C275 1.279 . S
O278 Cd268 2.297 . S
O278 C273 1.247 . S
O279 Cd268 2.439 . S
O279 C273 1.208 . S
O280 Cd281 2.223 . S
O280 C288 1.315 . S
Cd281 O280 2.223 . S
Cd281 O284 2.297 . S
Cd281 O285 2.439 . S
Cd281 O291 2.240 . S
Cd282 O283 2.240 . S
Cd282 O290 2.223 . S
Cd282 O292 2.297 . S
Cd282 O293 2.439 . S
O283 Cd282 2.240 . S
O283 C288 1.279 . S
O284 Cd281 2.297 . S
O284 C286 1.247 . S
O285 Cd281 2.439 . S
O285 C286 1.208 . S
C286 O284 1.247 . S
C286 O285 1.208 . S
C287 O292 1.247 . S
C287 O293 1.208 . S
C288 O280 1.315 . S
C288 O283 1.279 . S
C289 O290 1.315 . S
C289 O291 1.279 . S
O290 Cd282 2.223 . S
O290 C289 1.315 . S
O291 Cd281 2.240 . S
O291 C289 1.279 . S
O292 Cd282 2.297 . S
O292 C287 1.247 . S
O293 Cd282 2.439 . S
O293 C287 1.208 . S
O294 Cd295 2.223 . S
O294 C302 1.315 . S
Cd295 O294 2.223 . S
Cd295 O298 2.297 . S
Cd295 O299 2.439 . S
Cd295 O305 2.240 . S
Cd296 O297 2.240 . S
Cd296 O304 2.223 . S
Cd296 O306 2.297 . S
Cd296 O307 2.439 . S
O297 Cd296 2.240 . S
O297 C302 1.279 . S
O298 Cd295 2.297 . S
O298 C300 1.247 . S
O299 Cd295 2.439 . S
O299 C300 1.208 . S
C300 O298 1.247 . S
C300 O299 1.208 . S
C301 O306 1.247 . S
C301 O307 1.208 . S
C302 O294 1.315 . S
C302 O297 1.279 . S
C303 O304 1.315 . S
C303 O305 1.279 . S
O304 Cd296 2.223 . S
O304 C303 1.315 . S
O305 Cd295 2.240 . S
O305 C303 1.279 . S
O306 Cd296 2.297 . S
O306 C301 1.247 . S
O307 Cd296 2.439 . S
O307 C301 1.208 . S
O308 Cd309 2.223 . S
O308 C316 1.315 . S
Cd309 O308 2.223 . S
Cd309 O312 2.297 . S
Cd309 O313 2.439 . S
Cd309 O319 2.240 . S
Cd310 O311 2.240 . S
Cd310 O318 2.223 . S
Cd310 O320 2.297 . S
Cd310 O321 2.439 . S
O311 Cd310 2.240 . S
O311 C316 1.279 . S
O312 Cd309 2.297 . S
O312 C314 1.247 . S
O313 Cd309 2.439 . S
O313 C314 1.208 . S
C314 O312 1.247 . S
C314 O313 1.208 . S
C315 O320 1.247 . S
C315 O321 1.208 . S
C316 O308 1.315 . S
C316 O311 1.279 . S
C317 O318 1.315 . S
C317 O319 1.279 . S
O318 Cd310 2.223 . S
O318 C317 1.315 . S
O319 Cd309 2.240 . S
O319 C317 1.279 . S
O320 Cd310 2.297 . S
O320 C315 1.247 . S
O321 Cd310 2.439 . S
O321 C315 1.208 . S
O322 Cd323 2.223 . S
O322 C330 1.315 . S
Cd323 O322 2.223 . S
Cd323 O326 2.297 . S
Cd323 O327 2.439 . S
Cd323 O333 2.240 . S
Cd324 O325 2.240 . S
Cd324 O332 2.223 . S
Cd324 O334 2.297 . S
Cd324 O335 2.439 . S
O325 Cd324 2.240 . S
O325 C330 1.279 . S
O326 Cd323 2.297 . S
O326 C328 1.247 . S
O327 Cd323 2.439 . S
O327 C328 1.208 . S
C328 O326 1.247 . S
C328 O327 1.208 . S
C329 O334 1.247 . S
C329 O335 1.208 . S
C330 O322 1.315 . S
C330 O325 1.279 . S
C331 O332 1.315 . S
C331 O333 1.279 . S
O332 Cd324 2.223 . S
O332 C331 1.315 . S
O333 Cd323 2.240 . S
O333 C331 1.279 . S
O334 Cd324 2.297 . S
O334 C329 1.247 . S
O335 Cd324 2.439 . S
O335 C329 1.208 . S
O336 Cd337 2.223 . S
O336 C344 1.315 . S
Cd337 O336 2.223 . S
Cd337 O340 2.297 . S
Cd337 O341 2.439 . S
Cd337 O347 2.240 . S
Cd338 O339 2.240 . S
Cd338 O346 2.223 . S
Cd338 O348 2.297 . S
Cd338 O349 2.439 . S
O339 Cd338 2.240 . S
O339 C344 1.279 . S
O340 Cd337 2.297 . S
O340 C342 1.247 . S
O341 Cd337 2.439 . S
O341 C342 1.208 . S
C342 O340 1.247 . S
C342 O341 1.208 . S
C343 O348 1.247 . S
C343 O349 1.208 . S
C344 O336 1.315 . S
C344 O339 1.279 . S
C345 O346 1.315 . S
C345 O347 1.279 . S
O346 Cd338 2.223 . S
O346 C345 1.315 . S
O347 Cd337 2.240 . S
O347 C345 1.279 . S
O348 Cd338 2.297 . S
O348 C343 1.247 . S
O349 Cd338 2.439 . S
O349 C343 1.208 . S
O350 Cd351 2.223 . S
O350 C358 1.315 . S
Cd351 O350 2.223 . S
Cd351 O354 2.297 . S
Cd351 O355 2.439 . S
Cd351 O361 2.240 . S
Cd352 O353 2.240 . S
Cd352 O360 2.223 . S
Cd352 O362 2.297 . S
Cd352 O363 2.439 . S
O353 Cd352 2.240 . S
O353 C358 1.279 . S
O354 Cd351 2.297 . S
O354 C356 1.247 . S
O355 Cd351 2.439 . S
O355 C356 1.208 . S
C356 O354 1.247 . S
C356 O355 1.208 . S
C357 O362 1.247 . S
C357 O363 1.208 . S
C358 O350 1.315 . S
C358 O353 1.279 . S
C359 O360 1.315 . S
C359 O361 1.279 . S
O360 Cd352 2.223 . S
O360 C359 1.315 . S
O361 Cd351 2.240 . S
O361 C359 1.279 . S
O362 Cd352 2.297 . S
O362 C357 1.247 . S
O363 Cd352 2.439 . S
O363 C357 1.208 . S
O364 Cd365 2.223 . S
O364 C372 1.315 . S
Cd365 O364 2.223 . S
Cd365 O368 2.297 . S
Cd365 O369 2.439 . S
Cd365 O375 2.240 . S
Cd366 O367 2.240 . S
Cd366 O374 2.223 . S
Cd366 O376 2.297 . S
Cd366 O377 2.439 . S
O367 Cd366 2.240 . S
O367 C372 1.279 . S
O368 Cd365 2.297 . S
O368 C370 1.247 . S
O369 Cd365 2.439 . S
O369 C370 1.208 . S
C370 O368 1.247 . S
C370 O369 1.208 . S
C371 O376 1.247 . S
C371 O377 1.208 . S
C372 O364 1.315 . S
C372 O367 1.279 . S
C373 O374 1.315 . S
C373 O375 1.279 . S
O374 Cd366 2.223 . S
O374 C373 1.315 . S
O375 Cd365 2.240 . S
O375 C373 1.279 . S
O376 Cd366 2.297 . S
O376 C371 1.247 . S
O377 Cd366 2.439 . S
O377 C371 1.208 . S
O378 Cd379 2.223 . S
O378 C386 1.315 . S
Cd379 O378 2.223 . S
Cd379 O382 2.297 . S
Cd379 O383 2.439 . S
Cd379 O389 2.240 . S
Cd380 O381 2.240 . S
Cd380 O388 2.223 . S
Cd380 O390 2.297 . S
Cd380 O391 2.439 . S
O381 Cd380 2.240 . S
O381 C386 1.279 . S
O382 Cd379 2.297 . S
O382 C384 1.247 . S
O383 Cd379 2.439 . S
O383 C384 1.208 . S
C384 O382 1.247 . S
C384 O383 1.208 . S
C385 O390 1.247 . S
C385 O391 1.208 . S
C386 O378 1.315 . S
C386 O381 1.279 . S
C387 O388 1.315 . S
C387 O389 1.279 . S
O388 Cd380 2.223 . S
O388 C387 1.315 . S
O389 Cd379 2.240 . S
O389 C387 1.279 . S
O390 Cd380 2.297 . S
O390 C385 1.247 . S
O391 Cd380 2.439 . S
O391 C385 1.208 . S
O392 Cd393 2.223 . S
O392 C400 1.315 . S
Cd393 O392 2.223 . S
Cd393 O396 2.297 . S
Cd393 O397 2.439 . S
Cd393 O403 2.240 . S
Cd394 O395 2.240 . S
Cd394 O402 2.223 . S
Cd394 O404 2.297 . S
Cd394 O405 2.439 . S
O395 Cd394 2.240 . S
O395 C400 1.279 . S
O396 Cd393 2.297 . S
O396 C398 1.247 . S
O397 Cd393 2.439 . S
O397 C398 1.208 . S
C398 O396 1.247 . S
C398 O397 1.208 . S
C399 O404 1.247 . S
C399 O405 1.208 . S
C400 O392 1.315 . S
C400 O395 1.279 . S
C401 O402 1.315 . S
C401 O403 1.279 . S
O402 Cd394 2.223 . S
O402 C401 1.315 . S
O403 Cd393 2.240 . S
O403 C401 1.279 . S
O404 Cd394 2.297 . S
O404 C399 1.247 . S
O405 Cd394 2.439 . S
O405 C399 1.208 . S
O406 Cd407 2.223 . S
O406 C414 1.315 . S
Cd407 O406 2.223 . S
Cd407 O410 2.297 . S
Cd407 O411 2.439 . S
Cd407 O417 2.240 . S
Cd408 O409 2.240 . S
Cd408 O416 2.223 . S
Cd408 O418 2.297 . S
Cd408 O419 2.439 . S
O409 Cd408 2.240 . S
O409 C414 1.279 . S
O410 Cd407 2.297 . S
O410 C412 1.247 . S
O411 Cd407 2.439 . S
O411 C412 1.208 . S
C412 O410 1.247 . S
C412 O411 1.208 . S
C413 O418 1.247 . S
C413 O419 1.208 . S
C414 O406 1.315 . S
C414 O409 1.279 . S
C415 O416 1.315 . S
C415 O417 1.279 . S
O416 Cd408 2.223 . S
O416 C415 1.315 . S
O417 Cd407 2.240 . S
O417 C415 1.279 . S
O418 Cd408 2.297 . S
O418 C413 1.247 . S
O419 Cd408 2.439 . S
O419 C413 1.208 . S
O420 Cd421 2.223 . S
O420 C428 1.315 . S
Cd421 O420 2.223 . S
Cd421 O424 2.297 . S
Cd421 O425 2.439 . S
Cd421 O431 2.240 . S
Cd422 O423 2.240 . S
Cd422 O430 2.223 . S
Cd422 O432 2.297 . S
Cd422 O433 2.439 . S
O423 Cd422 2.240 . S
O423 C428 1.279 . S
O424 Cd421 2.297 . S
O424 C426 1.247 . S
O425 Cd421 2.439 . S
O425 C426 1.208 . S
C426 O424 1.247 . S
C426 O425 1.208 . S
C427 O432 1.247 . S
C427 O433 1.208 . S
C428 O420 1.315 . S
C428 O423 1.279 . S
C429 O430 1.315 . S
C429 O431 1.279 . S
O430 Cd422 2.223 . S
O430 C429 1.315 . S
O431 Cd421 2.240 . S
O431 C429 1.279 . S
O432 Cd422 2.297 . S
O432 C427 1.247 . S
O433 Cd422 2.439 . S
O433 C427 1.208 . S
O434 Cd435 2.223 . S
O434 C442 1.315 . S
Cd435 O434 2.223 . S
Cd435 O438 2.297 . S
Cd435 O439 2.439 . S
Cd435 O445 2.240 . S
Cd436 O437 2.240 . S
Cd436 O444 2.223 . S
Cd436 O446 2.297 . S
Cd436 O447 2.439 . S
O437 Cd436 2.240 . S
O437 C442 1.279 . S
O438 Cd435 2.297 . S
O438 C440 1.247 . S
O439 Cd435 2.439 . S
O439 C440 1.208 . S
C440 O438 1.247 . S
C440 O439 1.208 . S
C441 O446 1.247 . S
C441 O447 1.208 . S
C442 O434 1.315 . S
C442 O437 1.279 . S
C443 O444 1.315 . S
C443 O445 1.279 . S
O444 Cd436 2.223 . S
O444 C443 1.315 . S
O445 Cd435 2.240 . S
O445 C443 1.279 . S
O446 Cd436 2.297 . S
O446 C441 1.247 . S
O447 Cd436 2.439 . S
O447 C441 1.208 . S
O448 Cd449 2.223 . S
O448 C456 1.315 . S
Cd449 O448 2.223 . S
Cd449 O452 2.297 . S
Cd449 O453 2.439 . S
Cd449 O459 2.240 . S
Cd450 O451 2.240 . S
Cd450 O458 2.223 . S
Cd450 O460 2.297 . S
Cd450 O461 2.439 . S
O451 Cd450 2.240 . S
O451 C456 1.279 . S
O452 Cd449 2.297 . S
O452 C454 1.247 . S
O453 Cd449 2.439 . S
O453 C454 1.208 . S
C454 O452 1.247 . S
C454 O453 1.208 . S
C455 O460 1.247 . S
C455 O461 1.208 . S
C456 O448 1.315 . S
C456 O451 1.279 . S
C457 O458 1.315 . S
C457 O459 1.279 . S
O458 Cd450 2.223 . S
O458 C457 1.315 . S
O459 Cd449 2.240 . S
O459 C457 1.279 . S
O460 Cd450 2.297 . S
O460 C455 1.247 . S
O461 Cd450 2.439 . S
O461 C455 1.208 . S
O462 Cd463 2.223 . S
O462 C470 1.315 . S
Cd463 O462 2.223 . S
Cd463 O466 2.297 . S
Cd463 O467 2.439 . S
Cd463 O473 2.240 . S
Cd464 O465 2.240 . S
Cd464 O472 2.223 . S
Cd464 O474 2.297 . S
Cd464 O475 2.439 . S
O465 Cd464 2.240 . S
O465 C470 1.279 . S
O466 Cd463 2.297 . S
O466 C468 1.247 . S
O467 Cd463 2.439 . S
O467 C468 1.208 . S
C468 O466 1.247 . S
C468 O467 1.208 . S
C469 O474 1.247 . S
C469 O475 1.208 . S
C470 O462 1.315 . S
C470 O465 1.279 . S
C471 O472 1.315 . S
C471 O473 1.279 . S
O472 Cd464 2.223 . S
O472 C471 1.315 . S
O473 Cd463 2.240 . S
O473 C471 1.279 . S
O474 Cd464 2.297 . S
O474 C469 1.247 . S
O475 Cd464 2.439 . S
O475 C469 1.208 . S
O476 Cd477 2.223 . S
O476 C484 1.315 . S
Cd477 O476 2.223 . S
Cd477 O480 2.297 . S
Cd477 O481 2.439 . S
Cd477 O487 2.240 . S
Cd478 O479 2.240 . S
Cd478 O486 2.223 . S
Cd478 O488 2.297 . S
Cd478 O489 2.439 . S
O479 Cd478 2.240 . S
O479 C484 1.279 . S
O480 Cd477 2.297 . S
O480 C482 1.247 . S
O481 Cd477 2.439 . S
O481 C482 1.208 . S
C482 O480 1.247 . S
C482 O481 1.208 . S
C483 O488 1.247 . S
C483 O489 1.208 . S
C484 O476 1.315 . S
C484 O479 1.279 . S
C485 O486 1.315 . S
C485 O487 1.279 . S
O486 Cd478 2.223 . S
O486 C485 1.315 . S
O487 Cd477 2.240 . S
O487 C485 1.279 . S
O488 Cd478 2.297 . S
O488 C483 1.247 . S
O489 Cd478 2.439 . S
O489 C483 1.208 . S
O490 Cd491 2.223 . S
O490 C498 1.315 . S
Cd491 O490 2.223 . S
Cd491 O494 2.297 . S
Cd491 O495 2.439 . S
Cd491 O501 2.240 . S
Cd492 O493 2.240 . S
Cd492 O500 2.223 . S
Cd492 O502 2.297 . S
Cd492 O503 2.439 . S
O493 Cd492 2.240 . S
O493 C498 1.279 . S
O494 Cd491 2.297 . S
O494 C496 1.247 . S
O495 Cd491 2.439 . S
O495 C496 1.208 . S
C496 O494 1.247 . S
C496 O495 1.208 . S
C497 O502 1.247 . S
C497 O503 1.208 . S
C498 O490 1.315 . S
C498 O493 1.279 . S
C499 O500 1.315 . S
C499 O501 1.279 . S
O500 Cd492 2.223 . S
O500 C499 1.315 . S
O501 Cd491 2.240 . S
O501 C499 1.279 . S
O502 Cd492 2.297 . S
O502 C497 1.247 . S
O503 Cd492 2.439 . S
O503 C497 1.208 . S
O504 Cd505 2.223 . S
O504 C512 1.315 . S
Cd505 O504 2.223 . S
Cd505 O508 2.297 . S
Cd505 O509 2.439 . S
Cd505 O515 2.240 . S
Cd506 O507 2.240 . S
Cd506 O514 2.223 . S
Cd506 O516 2.297 . S
Cd506 O517 2.439 . S
O507 Cd506 2.240 . S
O507 C512 1.279 . S
O508 Cd505 2.297 . S
O508 C510 1.247 . S
O509 Cd505 2.439 . S
O509 C510 1.208 . S
C510 O508 1.247 . S
C510 O509 1.208 . S
C511 O516 1.247 . S
C511 O517 1.208 . S
C512 O504 1.315 . S
C512 O507 1.279 . S
C513 O514 1.315 . S
C513 O515 1.279 . S
O514 Cd506 2.223 . S
O514 C513 1.315 . S
O515 Cd505 2.240 . S
O515 C513 1.279 . S
O516 Cd506 2.297 . S
O516 C511 1.247 . S
O517 Cd506 2.439 . S
O517 C511 1.208 . S
O518 Cd519 2.223 . S
O518 C526 1.315 . S
Cd519 O518 2.223 . S
Cd519 O522 2.297 . S
Cd519 O523 2.439 . S
Cd519 O529 2.240 . S
Cd520 O521 2.240 . S
Cd520 O528 2.223 . S
Cd520 O530 2.297 . S
Cd520 O531 2.439 . S
O521 Cd520 2.240 . S
O521 C526 1.279 . S
O522 Cd519 2.297 . S
O522 C524 1.247 . S
O523 Cd519 2.439 . S
O523 C524 1.208 . S
C524 O522 1.247 . S
C524 O523 1.208 . S
C525 O530 1.247 . S
C525 O531 1.208 . S
C526 O518 1.315 . S
C526 O521 1.279 . S
C527 O528 1.315 . S
C527 O529 1.279 . S
O528 Cd520 2.223 . S
O528 C527 1.315 . S
O529 Cd519 2.240 . S
O529 C527 1.279 . S
O530 Cd520 2.297 . S
O530 C525 1.247 . S
O531 Cd520 2.439 . S
O531 C525 1.208 . S
O532 Cd533 2.223 . S
O532 C540 1.315 . S
Cd533 O532 2.223 . S
Cd533 O536 2.297 . S
Cd533 O537 2.439 . S
Cd533 O543 2.240 . S
Cd534 O535 2.240 . S
Cd534 O542 2.223 . S
Cd534 O544 2.297 . S
Cd534 O545 2.439 . S
O535 Cd534 2.240 . S
O535 C540 1.279 . S
O536 Cd533 2.297 . S
O536 C538 1.247 . S
O537 Cd533 2.439 . S
O537 C538 1.208 . S
C538 O536 1.247 . S
C538 O537 1.208 . S
C539 O544 1.247 . S
C539 O545 1.208 . S
C540 O532 1.315 . S
C540 O535 1.279 . S
C541 O542 1.315 . S
C541 O543 1.279 . S
O542 Cd534 2.223 . S
O542 C541 1.315 . S
O543 Cd533 2.240 . S
O543 C541 1.279 . S
O544 Cd534 2.297 . S
O544 C539 1.247 . S
O545 Cd534 2.439 . S
O545 C539 1.208 . S
O546 Cd547 2.223 . S
O546 C554 1.315 . S
Cd547 O546 2.223 . S
Cd547 O550 2.297 . S
Cd547 O551 2.439 . S
Cd547 O557 2.240 . S
Cd548 O549 2.240 . S
Cd548 O556 2.223 . S
Cd548 O558 2.297 . S
Cd548 O559 2.439 . S
O549 Cd548 2.240 . S
O549 C554 1.279 . S
O550 Cd547 2.297 . S
O550 C552 1.247 . S
O551 Cd547 2.439 . S
O551 C552 1.208 . S
C552 O550 1.247 . S
C552 O551 1.208 . S
C553 O558 1.247 . S
C553 O559 1.208 . S
C554 O546 1.315 . S
C554 O549 1.279 . S
C555 O556 1.315 . S
C555 O557 1.279 . S
O556 Cd548 2.223 . S
O556 C555 1.315 . S
O557 Cd547 2.240 . S
O557 C555 1.279 . S
O558 Cd548 2.297 . S
O558 C553 1.247 . S
O559 Cd548 2.439 . S
O559 C553 1.208 . S
O560 Cd561 2.223 . S
O560 C568 1.315 . S
Cd561 O560 2.223 . S
Cd561 O564 2.297 . S
Cd561 O565 2.439 . S
Cd561 O571 2.240 . S
Cd562 O563 2.240 . S
Cd562 O570 2.223 . S
Cd562 O572 2.297 . S
Cd562 O573 2.439 . S
O563 Cd562 2.240 . S
O563 C568 1.279 . S
O564 Cd561 2.297 . S
O564 C566 1.247 . S
O565 Cd561 2.439 . S
O565 C566 1.208 . S
C566 O564 1.247 . S
C566 O565 1.208 . S
C567 O572 1.247 . S
C567 O573 1.208 . S
C568 O560 1.315 . S
C568 O563 1.279 . S
C569 O570 1.315 . S
C569 O571 1.279 . S
O570 Cd562 2.223 . S
O570 C569 1.315 . S
O571 Cd561 2.240 . S
O571 C569 1.279 . S
O572 Cd562 2.297 . S
O572 C567 1.247 . S
O573 Cd562 2.439 . S
O573 C567 1.208 . S
O574 Cd575 2.223 . S
O574 C582 1.315 . S
Cd575 O574 2.223 . S
Cd575 O578 2.297 . S
Cd575 O579 2.439 . S
Cd575 O585 2.240 . S
Cd576 O577 2.240 . S
Cd576 O584 2.223 . S
Cd576 O586 2.297 . S
Cd576 O587 2.439 . S
O577 Cd576 2.240 . S
O577 C582 1.279 . S
O578 Cd575 2.297 . S
O578 C580 1.247 . S
O579 Cd575 2.439 . S
O579 C580 1.208 . S
C580 O578 1.247 . S
C580 O579 1.208 . S
C581 O586 1.247 . S
C581 O587 1.208 . S
C582 O574 1.315 . S
C582 O577 1.279 . S
C583 O584 1.315 . S
C583 O585 1.279 . S
O584 Cd576 2.223 . S
O584 C583 1.315 . S
O585 Cd575 2.240 . S
O585 C583 1.279 . S
O586 Cd576 2.297 . S
O586 C581 1.247 . S
O587 Cd576 2.439 . S
O587 C581 1.208 . S
O588 Cd589 2.223 . S
O588 C596 1.315 . S
Cd589 O588 2.223 . S
Cd589 O592 2.297 . S
Cd589 O593 2.439 . S
Cd589 O599 2.240 . S
Cd590 O591 2.240 . S
Cd590 O598 2.223 . S
Cd590 O600 2.297 . S
Cd590 O601 2.439 . S
O591 Cd590 2.240 . S
O591 C596 1.279 . S
O592 Cd589 2.297 . S
O592 C594 1.247 . S
O593 Cd589 2.439 . S
O593 C594 1.208 . S
C594 O592 1.247 . S
C594 O593 1.208 . S
C595 O600 1.247 . S
C595 O601 1.208 . S
C596 O588 1.315 . S
C596 O591 1.279 . S
C597 O598 1.315 . S
C597 O599 1.279 . S
O598 Cd590 2.223 . S
O598 C597 1.315 . S
O599 Cd589 2.240 . S
O599 C597 1.279 . S
O600 Cd590 2.297 . S
O600 C595 1.247 . S
O601 Cd590 2.439 . S
O601 C595 1.208 . S
O602 Cd603 2.223 . S
O602 C610 1.315 . S
Cd603 O602 2.223 . S
Cd603 O606 2.297 . S
Cd603 O607 2.439 . S
Cd603 O613 2.240 . S
Cd604 O605 2.240 . S
Cd604 O612 2.223 . S
Cd604 O614 2.297 . S
Cd604 O615 2.439 . S
O605 Cd604 2.240 . S
O605 C610 1.279 . S
O606 Cd603 2.297 . S
O606 C608 1.247 . S
O607 Cd603 2.439 . S
O607 C608 1.208 . S
C608 O606 1.247 . S
C608 O607 1.208 . S
C609 O614 1.247 . S
C609 O615 1.208 . S
C610 O602 1.315 . S
C610 O605 1.279 . S
C611 O612 1.315 . S
C611 O613 1.279 . S
O612 Cd604 2.223 . S
O612 C611 1.315 . S
O613 Cd603 2.240 . S
O613 C611 1.279 . S
O614 Cd604 2.297 . S
O614 C609 1.247 . S
O615 Cd604 2.439 . S
O615 C609 1.208 . S
O616 Cd617 2.223 . S
O616 C624 1.315 . S
Cd617 O616 2.223 . S
Cd617 O620 2.297 . S
Cd617 O621 2.439 . S
Cd617 O627 2.240 . S
Cd618 O619 2.240 . S
Cd618 O626 2.223 . S
Cd618 O628 2.297 . S
Cd618 O629 2.439 . S
O619 Cd618 2.240 . S
O619 C624 1.279 . S
O620 Cd617 2.297 . S
O620 C622 1.247 . S
O621 Cd617 2.439 . S
O621 C622 1.208 . S
C622 O620 1.247 . S
C622 O621 1.208 . S
C623 O628 1.247 . S
C623 O629 1.208 . S
C624 O616 1.315 . S
C624 O619 1.279 . S
C625 O626 1.315 . S
C625 O627 1.279 . S
O626 Cd618 2.223 . S
O626 C625 1.315 . S
O627 Cd617 2.240 . S
O627 C625 1.279 . S
O628 Cd618 2.297 . S
O628 C623 1.247 . S
O629 Cd618 2.439 . S
O629 C623 1.208 . S
O630 Cd631 2.223 . S
O630 C638 1.315 . S
Cd631 O630 2.223 . S
Cd631 O634 2.297 . S
Cd631 O635 2.439 . S
Cd631 O641 2.240 . S
Cd632 O633 2.240 . S
Cd632 O640 2.223 . S
Cd632 O642 2.297 . S
Cd632 O643 2.439 . S
O633 Cd632 2.240 . S
O633 C638 1.279 . S
O634 Cd631 2.297 . S
O634 C636 1.247 . S
O635 Cd631 2.439 . S
O635 C636 1.208 . S
C636 O634 1.247 . S
C636 O635 1.208 . S
C637 O642 1.247 . S
C637 O643 1.208 . S
C638 O630 1.315 . S
C638 O633 1.279 . S
C639 O640 1.315 . S
C639 O641 1.279 . S
O640 Cd632 2.223 . S
O640 C639 1.315 . S
O641 Cd631 2.240 . S
O641 C639 1.279 . S
O642 Cd632 2.297 . S
O642 C637 1.247 . S
O643 Cd632 2.439 . S
O643 C637 1.208 . S
O644 Cd645 2.223 . S
O644 C652 1.315 . S
Cd645 O644 2.223 . S
Cd645 O648 2.297 . S
Cd645 O649 2.439 . S
Cd645 O655 2.240 . S
Cd646 O647 2.240 . S
Cd646 O654 2.223 . S
Cd646 O656 2.297 . S
Cd646 O657 2.439 . S
O647 Cd646 2.240 . S
O647 C652 1.279 . S
O648 Cd645 2.297 . S
O648 C650 1.247 . S
O649 Cd645 2.439 . S
O649 C650 1.208 . S
C650 O648 1.247 . S
C650 O649 1.208 . S
C651 O656 1.247 . S
C651 O657 1.208 . S
C652 O644 1.315 . S
C652 O647 1.279 . S
C653 O654 1.315 . S
C653 O655 1.279 . S
O654 Cd646 2.223 . S
O654 C653 1.315 . S
O655 Cd645 2.240 . S
O655 C653 1.279 . S
O656 Cd646 2.297 . S
O656 C651 1.247 . S
O657 Cd646 2.439 . S
O657 C651 1.208 . S
O658 Cd659 2.223 . S
O658 C666 1.315 . S
Cd659 O658 2.223 . S
Cd659 O662 2.297 . S
Cd659 O663 2.439 . S
Cd659 O669 2.240 . S
Cd660 O661 2.240 . S
Cd660 O668 2.223 . S
Cd660 O670 2.297 . S
Cd660 O671 2.439 . S
O661 Cd660 2.240 . S
O661 C666 1.279 . S
O662 Cd659 2.297 . S
O662 C664 1.247 . S
O663 Cd659 2.439 . S
O663 C664 1.208 . S
C664 O662 1.247 . S
C664 O663 1.208 . S
C665 O670 1.247 . S
C665 O671 1.208 . S
C666 O658 1.315 . S
C666 O661 1.279 . S
C667 O668 1.315 . S
C667 O669 1.279 . S
O668 Cd660 2.223 . S
O668 C667 1.315 . S
O669 Cd659 2.240 . S
O669 C667 1.279 . S
O670 Cd660 2.297 . S
O670 C665 1.247 . S
O671 Cd660 2.439 . S
O671 C665 1.208 . S
H672 C690 0.951 . S
H673 C692 0.951 . S
H674 C694 0.950 . S
H675 C695 0.950 . S
H676 C697 0.950 . S
H677 C700 0.950 . S
H678 C701 0.950 . S
H679 C703 0.950 . S
H680 C704 0.950 . S
H681 C705 0.951 . S
H682 C707 0.951 . S
H683 C709 0.950 . S
H684 C710 0.950 . S
H685 C712 0.950 . S
H686 C715 0.950 . S
H687 C716 0.950 . S
H688 C718 0.950 . S
H689 C719 0.950 . S
C690 H672 0.951 . S
C690 C691 1.366 . S
C690 C692 1.388 . S
C691 C690 1.366 . S
C691 C695 1.385 . S
C692 H673 0.951 . S
C692 C690 1.388 . S
C692 C693 1.366 . S
C693 C692 1.366 . S
C693 C694 1.414 . S
C693 C696 1.499 . S
C694 H674 0.950 . S
C694 C693 1.414 . S
C694 C695 1.374 . S
C695 H675 0.950 . S
C695 C691 1.385 . S
C695 C694 1.374 . S
C696 C693 1.499 . S
C696 C697 1.373 . S
C696 C698 1.389 . S
C697 H676 0.950 . S
C697 C696 1.373 . S
C697 C713 1.377 . S
C698 C696 1.389 . S
C698 C699 1.524 . S
C698 C712 1.377 . S
C699 C698 1.524 . S
C699 C700 1.397 . S
C699 C704 1.363 . S
C700 H677 0.950 . S
C700 C699 1.397 . S
C700 C701 1.334 . S
C701 H678 0.950 . S
C701 C700 1.334 . S
C701 C702 1.287 . S
C702 C701 1.287 . S
C702 C703 1.524 . S
C702 H721 0.913 . S
C703 H679 0.950 . S
C703 C702 1.524 . S
C703 C704 1.415 . S
C704 H680 0.950 . S
C704 C699 1.363 . S
C704 C703 1.415 . S
C705 H681 0.951 . S
C705 C706 1.366 . S
C705 C707 1.388 . S
C706 C705 1.366 . S
C706 C710 1.385 . S
C707 H682 0.951 . S
C707 C705 1.388 . S
C707 C708 1.366 . S
C708 C707 1.366 . S
C708 C709 1.414 . S
C708 C711 1.499 . S
C709 H683 0.950 . S
C709 C708 1.414 . S
C709 C710 1.374 . S
C710 H684 0.950 . S
C710 C706 1.385 . S
C710 C709 1.374 . S
C711 C708 1.499 . S
C711 C712 1.373 . S
C711 C713 1.389 . S
C712 H685 0.950 . S
C712 C698 1.377 . S
C712 C711 1.373 . S
C713 C697 1.377 . S
C713 C711 1.389 . S
C713 C714 1.524 . S
C714 C713 1.524 . S
C714 C715 1.397 . S
C714 C719 1.363 . S
C715 H686 0.950 . S
C715 C714 1.397 . S
C715 C716 1.334 . S
C716 H687 0.950 . S
C716 C715 1.334 . S
C716 C717 1.287 . S
C717 C716 1.287 . S
C717 C718 1.524 . S
C717 H720 0.999 . S
C718 H688 0.950 . S
C718 C717 1.524 . S
C718 C719 1.415 . S
C719 H689 0.950 . S
C719 C714 1.363 . S
C719 C718 1.415 . S
H720 C717 0.999 . S
H721 C702 0.913 . S
H722 C740 0.951 . S
H723 C742 0.951 . S
H724 C744 0.950 . S
H725 C745 0.950 . S
H726 C747 0.950 . S
H727 C750 0.950 . S
H728 C751 0.950 . S
H729 C753 0.950 . S
H730 C754 0.950 . S
H731 C755 0.951 . S
H732 C757 0.951 . S
H733 C759 0.950 . S
H734 C760 0.950 . S
H735 C762 0.950 . S
H736 C765 0.950 . S
H737 C766 0.950 . S
H738 C768 0.950 . S
H739 C769 0.950 . S
C740 H722 0.951 . S
C740 C741 1.366 . S
C740 C742 1.388 . S
C741 C740 1.366 . S
C741 C745 1.385 . S
C742 H723 0.951 . S
C742 C740 1.388 . S
C742 C743 1.366 . S
C743 C742 1.366 . S
C743 C744 1.414 . S
C743 C746 1.499 . S
C744 H724 0.950 . S
C744 C743 1.414 . S
C744 C745 1.374 . S
C745 H725 0.950 . S
C745 C741 1.385 . S
C745 C744 1.374 . S
C746 C743 1.499 . S
C746 C747 1.373 . S
C746 C748 1.389 . S
C747 H726 0.950 . S
C747 C746 1.373 . S
C747 C763 1.377 . S
C748 C746 1.389 . S
C748 C749 1.524 . S
C748 C762 1.377 . S
C749 C748 1.524 . S
C749 C750 1.397 . S
C749 C754 1.363 . S
C750 H727 0.950 . S
C750 C749 1.397 . S
C750 C751 1.334 . S
C751 H728 0.950 . S
C751 C750 1.334 . S
C751 C752 1.287 . S
C752 C751 1.287 . S
C752 C753 1.524 . S
C752 H771 0.913 . S
C753 H729 0.950 . S
C753 C752 1.524 . S
C753 C754 1.415 . S
C754 H730 0.950 . S
C754 C749 1.363 . S
C754 C753 1.415 . S
C755 H731 0.951 . S
C755 C756 1.366 . S
C755 C757 1.388 . S
C756 C755 1.366 . S
C756 C760 1.385 . S
C757 H732 0.951 . S
C757 C755 1.388 . S
C757 C758 1.366 . S
C758 C757 1.366 . S
C758 C759 1.414 . S
C758 C761 1.499 . S
C759 H733 0.950 . S
C759 C758 1.414 . S
C759 C760 1.374 . S
C760 H734 0.950 . S
C760 C756 1.385 . S
C760 C759 1.374 . S
C761 C758 1.499 . S
C761 C762 1.373 . S
C761 C763 1.389 . S
C762 H735 0.950 . S
C762 C748 1.377 . S
C762 C761 1.373 . S
C763 C747 1.377 . S
C763 C761 1.389 . S
C763 C764 1.524 . S
C764 C763 1.524 . S
C764 C765 1.397 . S
C764 C769 1.363 . S
C765 H736 0.950 . S
C765 C764 1.397 . S
C765 C766 1.334 . S
C766 H737 0.950 . S
C766 C765 1.334 . S
C766 C767 1.287 . S
C767 C766 1.287 . S
C767 C768 1.524 . S
C767 H770 0.999 . S
C768 H738 0.950 . S
C768 C767 1.524 . S
C768 C769 1.415 . S
C769 H739 0.950 . S
C769 C764 1.363 . S
C769 C768 1.415 . S
H770 C767 0.999 . S
H771 C752 0.913 . S
H772 C790 0.951 . S
H773 C792 0.951 . S
H774 C794 0.950 . S
H775 C795 0.950 . S
H776 C797 0.950 . S
H777 C800 0.950 . S
H778 C801 0.950 . S
H779 C803 0.950 . S
H780 C804 0.950 . S
H781 C805 0.951 . S
H782 C807 0.951 . S
H783 C809 0.950 . S
H784 C810 0.950 . S
H785 C812 0.950 . S
H786 C815 0.950 . S
H787 C816 0.950 . S
H788 C818 0.950 . S
H789 C819 0.950 . S
C790 H772 0.951 . S
C790 C791 1.366 . S
C790 C792 1.388 . S
C791 C790 1.366 . S
C791 C795 1.385 . S
C792 H773 0.951 . S
C792 C790 1.388 . S
C792 C793 1.366 . S
C793 C792 1.366 . S
C793 C794 1.414 . S
C793 C796 1.499 . S
C794 H774 0.950 . S
C794 C793 1.414 . S
C794 C795 1.374 . S
C795 H775 0.950 . S
C795 C791 1.385 . S
C795 C794 1.374 . S
C796 C793 1.499 . S
C796 C797 1.373 . S
C796 C798 1.389 . S
C797 H776 0.950 . S
C797 C796 1.373 . S
C797 C813 1.377 . S
C798 C796 1.389 . S
C798 C799 1.524 . S
C798 C812 1.377 . S
C799 C798 1.524 . S
C799 C800 1.397 . S
C799 C804 1.363 . S
C800 H777 0.950 . S
C800 C799 1.397 . S
C800 C801 1.334 . S
C801 H778 0.950 . S
C801 C800 1.334 . S
C801 C802 1.287 . S
C802 C801 1.287 . S
C802 C803 1.524 . S
C802 H821 0.913 . S
C803 H779 0.950 . S
C803 C802 1.524 . S
C803 C804 1.415 . S
C804 H780 0.950 . S
C804 C799 1.363 . S
C804 C803 1.415 . S
C805 H781 0.951 . S
C805 C806 1.366 . S
C805 C807 1.388 . S
C806 C805 1.366 . S
C806 C810 1.385 . S
C807 H782 0.951 . S
C807 C805 1.388 . S
C807 C808 1.366 . S
C808 C807 1.366 . S
C808 C809 1.414 . S
C808 C811 1.499 . S
C809 H783 0.950 . S
C809 C808 1.414 . S
C809 C810 1.374 . S
C810 H784 0.950 . S
C810 C806 1.385 . S
C810 C809 1.374 . S
C811 C808 1.499 . S
C811 C812 1.373 . S
C811 C813 1.389 . S
C812 H785 0.950 . S
C812 C798 1.377 . S
C812 C811 1.373 . S
C813 C797 1.377 . S
C813 C811 1.389 . S
C813 C814 1.524 . S
C814 C813 1.524 . S
C814 C815 1.397 . S
C814 C819 1.363 . S
C815 H786 0.950 . S
C815 C814 1.397 . S
C815 C816 1.334 . S
C816 H787 0.950 . S
C816 C815 1.334 . S
C816 C817 1.287 . S
C817 C816 1.287 . S
C817 C818 1.524 . S
C817 H820 0.999 . S
C818 H788 0.950 . S
C818 C817 1.524 . S
C818 C819 1.415 . S
C819 H789 0.950 . S
C819 C814 1.363 . S
C819 C818 1.415 . S
H820 C817 0.999 . S
H821 C802 0.913 . S
H822 C840 0.951 . S
H823 C842 0.951 . S
H824 C844 0.950 . S
H825 C845 0.950 . S
H826 C847 0.950 . S
H827 C850 0.950 . S
H828 C851 0.950 . S
H829 C853 0.950 . S
H830 C854 0.950 . S
H831 C855 0.951 . S
H832 C857 0.951 . S
H833 C859 0.950 . S
H834 C860 0.950 . S
H835 C862 0.950 . S
H836 C865 0.950 . S
H837 C866 0.950 . S
H838 C868 0.950 . S
H839 C869 0.950 . S
C840 H822 0.951 . S
C840 C841 1.366 . S
C840 C842 1.388 . S
C841 C840 1.366 . S
C841 C845 1.385 . S
C842 H823 0.951 . S
C842 C840 1.388 . S
C842 C843 1.366 . S
C843 C842 1.366 . S
C843 C844 1.414 . S
C843 C846 1.499 . S
C844 H824 0.950 . S
C844 C843 1.414 . S
C844 C845 1.374 . S
C845 H825 0.950 . S
C845 C841 1.385 . S
C845 C844 1.374 . S
C846 C843 1.499 . S
C846 C847 1.373 . S
C846 C848 1.389 . S
C847 H826 0.950 . S
C847 C846 1.373 . S
C847 C863 1.377 . S
C848 C846 1.389 . S
C848 C849 1.524 . S
C848 C862 1.377 . S
C849 C848 1.524 . S
C849 C850 1.397 . S
C849 C854 1.363 . S
C850 H827 0.950 . S
C850 C849 1.397 . S
C850 C851 1.334 . S
C851 H828 0.950 . S
C851 C850 1.334 . S
C851 C852 1.287 . S
C852 C851 1.287 . S
C852 C853 1.524 . S
C852 H871 0.913 . S
C853 H829 0.950 . S
C853 C852 1.524 . S
C853 C854 1.415 . S
C854 H830 0.950 . S
C854 C849 1.363 . S
C854 C853 1.415 . S
C855 H831 0.951 . S
C855 C856 1.366 . S
C855 C857 1.388 . S
C856 C855 1.366 . S
C856 C860 1.385 . S
C857 H832 0.951 . S
C857 C855 1.388 . S
C857 C858 1.366 . S
C858 C857 1.366 . S
C858 C859 1.414 . S
C858 C861 1.499 . S
C859 H833 0.950 . S
C859 C858 1.414 . S
C859 C860 1.374 . S
C860 H834 0.950 . S
C860 C856 1.385 . S
C860 C859 1.374 . S
C861 C858 1.499 . S
C861 C862 1.373 . S
C861 C863 1.389 . S
C862 H835 0.950 . S
C862 C848 1.377 . S
C862 C861 1.373 . S
C863 C847 1.377 . S
C863 C861 1.389 . S
C863 C864 1.524 . S
C864 C863 1.524 . S
C864 C865 1.397 . S
C864 C869 1.363 . S
C865 H836 0.950 . S
C865 C864 1.397 . S
C865 C866 1.334 . S
C866 H837 0.950 . S
C866 C865 1.334 . S
C866 C867 1.287 . S
C867 C866 1.287 . S
C867 C868 1.524 . S
C867 H870 0.999 . S
C868 H838 0.950 . S
C868 C867 1.524 . S
C868 C869 1.415 . S
C869 H839 0.950 . S
C869 C864 1.363 . S
C869 C868 1.415 . S
H870 C867 0.999 . S
H871 C852 0.913 . S
H872 C890 0.951 . S
H873 C892 0.951 . S
H874 C894 0.950 . S
H875 C895 0.950 . S
H876 C897 0.950 . S
H877 C900 0.950 . S
H878 C901 0.950 . S
H879 C903 0.950 . S
H880 C904 0.950 . S
H881 C905 0.951 . S
H882 C907 0.951 . S
H883 C909 0.950 . S
H884 C910 0.950 . S
H885 C912 0.950 . S
H886 C915 0.950 . S
H887 C916 0.950 . S
H888 C918 0.950 . S
H889 C919 0.950 . S
C890 H872 0.951 . S
C890 C891 1.366 . S
C890 C892 1.388 . S
C891 C890 1.366 . S
C891 C895 1.385 . S
C892 H873 0.951 . S
C892 C890 1.388 . S
C892 C893 1.366 . S
C893 C892 1.366 . S
C893 C894 1.414 . S
C893 C896 1.499 . S
C894 H874 0.950 . S
C894 C893 1.414 . S
C894 C895 1.374 . S
C895 H875 0.950 . S
C895 C891 1.385 . S
C895 C894 1.374 . S
C896 C893 1.499 . S
C896 C897 1.373 . S
C896 C898 1.389 . S
C897 H876 0.950 . S
C897 C896 1.373 . S
C897 C913 1.377 . S
C898 C896 1.389 . S
C898 C899 1.524 . S
C898 C912 1.377 . S
C899 C898 1.524 . S
C899 C900 1.397 . S
C899 C904 1.363 . S
C900 H877 0.950 . S
C900 C899 1.397 . S
C900 C901 1.334 . S
C901 H878 0.950 . S
C901 C900 1.334 . S
C901 C902 1.287 . S
C902 C901 1.287 . S
C902 C903 1.524 . S
C902 H921 0.913 . S
C903 H879 0.950 . S
C903 C902 1.524 . S
C903 C904 1.415 . S
C904 H880 0.950 . S
C904 C899 1.363 . S
C904 C903 1.415 . S
C905 H881 0.951 . S
C905 C906 1.366 . S
C905 C907 1.388 . S
C906 C905 1.366 . S
C906 C910 1.385 . S
C907 H882 0.951 . S
C907 C905 1.388 . S
C907 C908 1.366 . S
C908 C907 1.366 . S
C908 C909 1.414 . S
C908 C911 1.499 . S
C909 H883 0.950 . S
C909 C908 1.414 . S
C909 C910 1.374 . S
C910 H884 0.950 . S
C910 C906 1.385 . S
C910 C909 1.374 . S
C911 C908 1.499 . S
C911 C912 1.373 . S
C911 C913 1.389 . S
C912 H885 0.950 . S
C912 C898 1.377 . S
C912 C911 1.373 . S
C913 C897 1.377 . S
C913 C911 1.389 . S
C913 C914 1.524 . S
C914 C913 1.524 . S
C914 C915 1.397 . S
C914 C919 1.363 . S
C915 H886 0.950 . S
C915 C914 1.397 . S
C915 C916 1.334 . S
C916 H887 0.950 . S
C916 C915 1.334 . S
C916 C917 1.287 . S
C917 C916 1.287 . S
C917 C918 1.524 . S
C917 H920 0.999 . S
C918 H888 0.950 . S
C918 C917 1.524 . S
C918 C919 1.415 . S
C919 H889 0.950 . S
C919 C914 1.363 . S
C919 C918 1.415 . S
H920 C917 0.999 . S
H921 C902 0.913 . S
H922 C940 0.951 . S
H923 C942 0.951 . S
H924 C944 0.950 . S
H925 C945 0.950 . S
H926 C947 0.950 . S
H927 C950 0.950 . S
H928 C951 0.950 . S
H929 C953 0.950 . S
H930 C954 0.950 . S
H931 C955 0.951 . S
H932 C957 0.951 . S
H933 C959 0.950 . S
H934 C960 0.950 . S
H935 C962 0.950 . S
H936 C965 0.950 . S
H937 C966 0.950 . S
H938 C968 0.950 . S
H939 C969 0.950 . S
C940 H922 0.951 . S
C940 C941 1.366 . S
C940 C942 1.388 . S
C941 C940 1.366 . S
C941 C945 1.385 . S
C942 H923 0.951 . S
C942 C940 1.388 . S
C942 C943 1.366 . S
C943 C942 1.366 . S
C943 C944 1.414 . S
C943 C946 1.499 . S
C944 H924 0.950 . S
C944 C943 1.414 . S
C944 C945 1.374 . S
C945 H925 0.950 . S
C945 C941 1.385 . S
C945 C944 1.374 . S
C946 C943 1.499 . S
C946 C947 1.373 . S
C946 C948 1.389 . S
C947 H926 0.950 . S
C947 C946 1.373 . S
C947 C963 1.377 . S
C948 C946 1.389 . S
C948 C949 1.524 . S
C948 C962 1.377 . S
C949 C948 1.524 . S
C949 C950 1.397 . S
C949 C954 1.363 . S
C950 H927 0.950 . S
C950 C949 1.397 . S
C950 C951 1.334 . S
C951 H928 0.950 . S
C951 C950 1.334 . S
C951 C952 1.287 . S
C952 C951 1.287 . S
C952 C953 1.524 . S
C952 H971 0.913 . S
C953 H929 0.950 . S
C953 C952 1.524 . S
C953 C954 1.415 . S
C954 H930 0.950 . S
C954 C949 1.363 . S
C954 C953 1.415 . S
C955 H931 0.951 . S
C955 C956 1.366 . S
C955 C957 1.388 . S
C956 C955 1.366 . S
C956 C960 1.385 . S
C957 H932 0.951 . S
C957 C955 1.388 . S
C957 C958 1.366 . S
C958 C957 1.366 . S
C958 C959 1.414 . S
C958 C961 1.499 . S
C959 H933 0.950 . S
C959 C958 1.414 . S
C959 C960 1.374 . S
C960 H934 0.950 . S
C960 C956 1.385 . S
C960 C959 1.374 . S
C961 C958 1.499 . S
C961 C962 1.373 . S
C961 C963 1.389 . S
C962 H935 0.950 . S
C962 C948 1.377 . S
C962 C961 1.373 . S
C963 C947 1.377 . S
C963 C961 1.389 . S
C963 C964 1.524 . S
C964 C963 1.524 . S
C964 C965 1.397 . S
C964 C969 1.363 . S
C965 H936 0.950 . S
C965 C964 1.397 . S
C965 C966 1.334 . S
C966 H937 0.950 . S
C966 C965 1.334 . S
C966 C967 1.287 . S
C967 C966 1.287 . S
C967 C968 1.524 . S
C967 H970 0.999 . S
C968 H938 0.950 . S
C968 C967 1.524 . S
C968 C969 1.415 . S
C969 H939 0.950 . S
C969 C964 1.363 . S
C969 C968 1.415 . S
H970 C967 0.999 . S
H971 C952 0.913 . S
H972 C990 0.951 . S
H973 C992 0.951 . S
H974 C994 0.950 . S
H975 C995 0.950 . S
H976 C997 0.950 . S
H977 C1000 0.950 . S
H978 C1001 0.950 . S
H979 C1003 0.950 . S
H980 C1004 0.950 . S
H981 C1005 0.951 . S
H982 C1007 0.951 . S
H983 C1009 0.950 . S
H984 C1010 0.950 . S
H985 C1012 0.950 . S
H986 C1015 0.950 . S
H987 C1016 0.950 . S
H988 C1018 0.950 . S
H989 C1019 0.950 . S
C990 H972 0.951 . S
C990 C991 1.366 . S
C990 C992 1.388 . S
C991 C990 1.366 . S
C991 C995 1.385 . S
C992 H973 0.951 . S
C992 C990 1.388 . S
C992 C993 1.366 . S
C993 C992 1.366 . S
C993 C994 1.414 . S
C993 C996 1.499 . S
C994 H974 0.950 . S
C994 C993 1.414 . S
C994 C995 1.374 . S
C995 H975 0.950 . S
C995 C991 1.385 . S
C995 C994 1.374 . S
C996 C993 1.499 . S
C996 C997 1.373 . S
C996 C998 1.389 . S
C997 H976 0.950 . S
C997 C996 1.373 . S
C997 C1013 1.377 . S
C998 C996 1.389 . S
C998 C999 1.524 . S
C998 C1012 1.377 . S
C999 C998 1.524 . S
C999 C1000 1.397 . S
C999 C1004 1.363 . S
C1000 H977 0.950 . S
C1000 C999 1.397 . S
C1000 C1001 1.334 . S
C1001 H978 0.950 . S
C1001 C1000 1.334 . S
C1001 C1002 1.287 . S
C1002 C1001 1.287 . S
C1002 C1003 1.524 . S
C1002 H1021 0.913 . S
C1003 H979 0.950 . S
C1003 C1002 1.524 . S
C1003 C1004 1.415 . S
C1004 H980 0.950 . S
C1004 C999 1.363 . S
C1004 C1003 1.415 . S
C1005 H981 0.951 . S
C1005 C1006 1.366 . S
C1005 C1007 1.388 . S
C1006 C1005 1.366 . S
C1006 C1010 1.385 . S
C1007 H982 0.951 . S
C1007 C1005 1.388 . S
C1007 C1008 1.366 . S
C1008 C1007 1.366 . S
C1008 C1009 1.414 . S
C1008 C1011 1.499 . S
C1009 H983 0.950 . S
C1009 C1008 1.414 . S
C1009 C1010 1.374 . S
C1010 H984 0.950 . S
C1010 C1006 1.385 . S
C1010 C1009 1.374 . S
C1011 C1008 1.499 . S
C1011 C1012 1.373 . S
C1011 C1013 1.389 . S
C1012 H985 0.950 . S
C1012 C998 1.377 . S
C1012 C1011 1.373 . S
C1013 C997 1.377 . S
C1013 C1011 1.389 . S
C1013 C1014 1.524 . S
C1014 C1013 1.524 . S
C1014 C1015 1.397 . S
C1014 C1019 1.363 . S
C1015 H986 0.950 . S
C1015 C1014 1.397 . S
C1015 C1016 1.334 . S
C1016 H987 0.950 . S
C1016 C1015 1.334 . S
C1016 C1017 1.287 . S
C1017 C1016 1.287 . S
C1017 C1018 1.524 . S
C1017 H1020 0.999 . S
C1018 H988 0.950 . S
C1018 C1017 1.524 . S
C1018 C1019 1.415 . S
C1019 H989 0.950 . S
C1019 C1014 1.363 . S
C1019 C1018 1.415 . S
H1020 C1017 0.999 . S
H1021 C1002 0.913 . S
H1022 C1040 0.951 . S
H1023 C1042 0.951 . S
H1024 C1044 0.950 . S
H1025 C1045 0.950 . S
H1026 C1047 0.950 . S
H1027 C1050 0.950 . S
H1028 C1051 0.950 . S
H1029 C1053 0.950 . S
H1030 C1054 0.950 . S
H1031 C1055 0.951 . S
H1032 C1057 0.951 . S
H1033 C1059 0.950 . S
H1034 C1060 0.950 . S
H1035 C1062 0.950 . S
H1036 C1065 0.950 . S
H1037 C1066 0.950 . S
H1038 C1068 0.950 . S
H1039 C1069 0.950 . S
C1040 H1022 0.951 . S
C1040 C1041 1.366 . S
C1040 C1042 1.388 . S
C1041 C1040 1.366 . S
C1041 C1045 1.385 . S
C1042 H1023 0.951 . S
C1042 C1040 1.388 . S
C1042 C1043 1.366 . S
C1043 C1042 1.366 . S
C1043 C1044 1.414 . S
C1043 C1046 1.499 . S
C1044 H1024 0.950 . S
C1044 C1043 1.414 . S
C1044 C1045 1.374 . S
C1045 H1025 0.950 . S
C1045 C1041 1.385 . S
C1045 C1044 1.374 . S
C1046 C1043 1.499 . S
C1046 C1047 1.373 . S
C1046 C1048 1.389 . S
C1047 H1026 0.950 . S
C1047 C1046 1.373 . S
C1047 C1063 1.377 . S
C1048 C1046 1.389 . S
C1048 C1049 1.524 . S
C1048 C1062 1.377 . S
C1049 C1048 1.524 . S
C1049 C1050 1.397 . S
C1049 C1054 1.363 . S
C1050 H1027 0.950 . S
C1050 C1049 1.397 . S
C1050 C1051 1.334 . S
C1051 H1028 0.950 . S
C1051 C1050 1.334 . S
C1051 C1052 1.287 . S
C1052 C1051 1.287 . S
C1052 C1053 1.524 . S
C1052 H1071 0.913 . S
C1053 H1029 0.950 . S
C1053 C1052 1.524 . S
C1053 C1054 1.415 . S
C1054 H1030 0.950 . S
C1054 C1049 1.363 . S
C1054 C1053 1.415 . S
C1055 H1031 0.951 . S
C1055 C1056 1.366 . S
C1055 C1057 1.388 . S
C1056 C1055 1.366 . S
C1056 C1060 1.385 . S
C1057 H1032 0.951 . S
C1057 C1055 1.388 . S
C1057 C1058 1.366 . S
C1058 C1057 1.366 . S
C1058 C1059 1.414 . S
C1058 C1061 1.499 . S
C1059 H1033 0.950 . S
C1059 C1058 1.414 . S
C1059 C1060 1.374 . S
C1060 H1034 0.950 . S
C1060 C1056 1.385 . S
C1060 C1059 1.374 . S
C1061 C1058 1.499 . S
C1061 C1062 1.373 . S
C1061 C1063 1.389 . S
C1062 H1035 0.950 . S
C1062 C1048 1.377 . S
C1062 C1061 1.373 . S
C1063 C1047 1.377 . S
C1063 C1061 1.389 . S
C1063 C1064 1.524 . S
C1064 C1063 1.524 . S
C1064 C1065 1.397 . S
C1064 C1069 1.363 . S
C1065 H1036 0.950 . S
C1065 C1064 1.397 . S
C1065 C1066 1.334 . S
C1066 H1037 0.950 . S
C1066 C1065 1.334 . S
C1066 C1067 1.287 . S
C1067 C1066 1.287 . S
C1067 C1068 1.524 . S
C1067 H1070 0.999 . S
C1068 H1038 0.950 . S
C1068 C1067 1.524 . S
C1068 C1069 1.415 . S
C1069 H1039 0.950 . S
C1069 C1064 1.363 . S
C1069 C1068 1.415 . S
H1070 C1067 0.999 . S
H1071 C1052 0.913 . S
H1072 C1090 0.951 . S
H1073 C1092 0.951 . S
H1074 C1094 0.950 . S
H1075 C1095 0.950 . S
H1076 C1097 0.950 . S
H1077 C1100 0.950 . S
H1078 C1101 0.950 . S
H1079 C1103 0.950 . S
H1080 C1104 0.950 . S
H1081 C1105 0.951 . S
H1082 C1107 0.951 . S
H1083 C1109 0.950 . S
H1084 C1110 0.950 . S
H1085 C1112 0.950 . S
H1086 C1115 0.950 . S
H1087 C1116 0.950 . S
H1088 C1118 0.950 . S
H1089 C1119 0.950 . S
C1090 H1072 0.951 . S
C1090 C1091 1.366 . S
C1090 C1092 1.388 . S
C1091 C1090 1.366 . S
C1091 C1095 1.385 . S
C1092 H1073 0.951 . S
C1092 C1090 1.388 . S
C1092 C1093 1.366 . S
C1093 C1092 1.366 . S
C1093 C1094 1.414 . S
C1093 C1096 1.499 . S
C1094 H1074 0.950 . S
C1094 C1093 1.414 . S
C1094 C1095 1.374 . S
C1095 H1075 0.950 . S
C1095 C1091 1.385 . S
C1095 C1094 1.374 . S
C1096 C1093 1.499 . S
C1096 C1097 1.373 . S
C1096 C1098 1.389 . S
C1097 H1076 0.950 . S
C1097 C1096 1.373 . S
C1097 C1113 1.377 . S
C1098 C1096 1.389 . S
C1098 C1099 1.524 . S
C1098 C1112 1.377 . S
C1099 C1098 1.524 . S
C1099 C1100 1.397 . S
C1099 C1104 1.363 . S
C1100 H1077 0.950 . S
C1100 C1099 1.397 . S
C1100 C1101 1.334 . S
C1101 H1078 0.950 . S
C1101 C1100 1.334 . S
C1101 C1102 1.287 . S
C1102 C1101 1.287 . S
C1102 C1103 1.524 . S
C1102 H1121 0.913 . S
C1103 H1079 0.950 . S
C1103 C1102 1.524 . S
C1103 C1104 1.415 . S
C1104 H1080 0.950 . S
C1104 C1099 1.363 . S
C1104 C1103 1.415 . S
C1105 H1081 0.951 . S
C1105 C1106 1.366 . S
C1105 C1107 1.388 . S
C1106 C1105 1.366 . S
C1106 C1110 1.385 . S
C1107 H1082 0.951 . S
C1107 C1105 1.388 . S
C1107 C1108 1.366 . S
C1108 C1107 1.366 . S
C1108 C1109 1.414 . S
C1108 C1111 1.499 . S
C1109 H1083 0.950 . S
C1109 C1108 1.414 . S
C1109 C1110 1.374 . S
C1110 H1084 0.950 . S
C1110 C1106 1.385 . S
C1110 C1109 1.374 . S
C1111 C1108 1.499 . S
C1111 C1112 1.373 . S
C1111 C1113 1.389 . S
C1112 H1085 0.950 . S
C1112 C1098 1.377 . S
C1112 C1111 1.373 . S
C1113 C1097 1.377 . S
C1113 C1111 1.389 . S
C1113 C1114 1.524 . S
C1114 C1113 1.524 . S
C1114 C1115 1.397 . S
C1114 C1119 1.363 . S
C1115 H1086 0.950 . S
C1115 C1114 1.397 . S
C1115 C1116 1.334 . S
C1116 H1087 0.950 . S
C1116 C1115 1.334 . S
C1116 C1117 1.287 . S
C1117 C1116 1.287 . S
C1117 C1118 1.524 . S
C1117 H1120 0.999 . S
C1118 H1088 0.950 . S
C1118 C1117 1.524 . S
C1118 C1119 1.415 . S
C1119 H1089 0.950 . S
C1119 C1114 1.363 . S
C1119 C1118 1.415 . S
H1120 C1117 0.999 . S
H1121 C1102 0.913 . S
H1122 C1140 0.951 . S
H1123 C1142 0.951 . S
H1124 C1144 0.950 . S
H1125 C1145 0.950 . S
H1126 C1147 0.950 . S
H1127 C1150 0.950 . S
H1128 C1151 0.950 . S
H1129 C1153 0.950 . S
H1130 C1154 0.950 . S
H1131 C1155 0.951 . S
H1132 C1157 0.951 . S
H1133 C1159 0.950 . S
H1134 C1160 0.950 . S
H1135 C1162 0.950 . S
H1136 C1165 0.950 . S
H1137 C1166 0.950 . S
H1138 C1168 0.950 . S
H1139 C1169 0.950 . S
C1140 H1122 0.951 . S
C1140 C1141 1.366 . S
C1140 C1142 1.388 . S
C1141 C1140 1.366 . S
C1141 C1145 1.385 . S
C1142 H1123 0.951 . S
C1142 C1140 1.388 . S
C1142 C1143 1.366 . S
C1143 C1142 1.366 . S
C1143 C1144 1.414 . S
C1143 C1146 1.499 . S
C1144 H1124 0.950 . S
C1144 C1143 1.414 . S
C1144 C1145 1.374 . S
C1145 H1125 0.950 . S
C1145 C1141 1.385 . S
C1145 C1144 1.374 . S
C1146 C1143 1.499 . S
C1146 C1147 1.373 . S
C1146 C1148 1.389 . S
C1147 H1126 0.950 . S
C1147 C1146 1.373 . S
C1147 C1163 1.377 . S
C1148 C1146 1.389 . S
C1148 C1149 1.524 . S
C1148 C1162 1.377 . S
C1149 C1148 1.524 . S
C1149 C1150 1.397 . S
C1149 C1154 1.363 . S
C1150 H1127 0.950 . S
C1150 C1149 1.397 . S
C1150 C1151 1.334 . S
C1151 H1128 0.950 . S
C1151 C1150 1.334 . S
C1151 C1152 1.287 . S
C1152 C1151 1.287 . S
C1152 C1153 1.524 . S
C1152 H1171 0.913 . S
C1153 H1129 0.950 . S
C1153 C1152 1.524 . S
C1153 C1154 1.415 . S
C1154 H1130 0.950 . S
C1154 C1149 1.363 . S
C1154 C1153 1.415 . S
C1155 H1131 0.951 . S
C1155 C1156 1.366 . S
C1155 C1157 1.388 . S
C1156 C1155 1.366 . S
C1156 C1160 1.385 . S
C1157 H1132 0.951 . S
C1157 C1155 1.388 . S
C1157 C1158 1.366 . S
C1158 C1157 1.366 . S
C1158 C1159 1.414 . S
C1158 C1161 1.499 . S
C1159 H1133 0.950 . S
C1159 C1158 1.414 . S
C1159 C1160 1.374 . S
C1160 H1134 0.950 . S
C1160 C1156 1.385 . S
C1160 C1159 1.374 . S
C1161 C1158 1.499 . S
C1161 C1162 1.373 . S
C1161 C1163 1.389 . S
C1162 H1135 0.950 . S
C1162 C1148 1.377 . S
C1162 C1161 1.373 . S
C1163 C1147 1.377 . S
C1163 C1161 1.389 . S
C1163 C1164 1.524 . S
C1164 C1163 1.524 . S
C1164 C1165 1.397 . S
C1164 C1169 1.363 . S
C1165 H1136 0.950 . S
C1165 C1164 1.397 . S
C1165 C1166 1.334 . S
C1166 H1137 0.950 . S
C1166 C1165 1.334 . S
C1166 C1167 1.287 . S
C1167 C1166 1.287 . S
C1167 C1168 1.524 . S
C1167 H1170 0.999 . S
C1168 H1138 0.950 . S
C1168 C1167 1.524 . S
C1168 C1169 1.415 . S
C1169 H1139 0.950 . S
C1169 C1164 1.363 . S
C1169 C1168 1.415 . S
H1170 C1167 0.999 . S
H1171 C1152 0.913 . S
H1172 C1190 0.951 . S
H1173 C1192 0.951 . S
H1174 C1194 0.950 . S
H1175 C1195 0.950 . S
H1176 C1197 0.950 . S
H1177 C1200 0.950 . S
H1178 C1201 0.950 . S
H1179 C1203 0.950 . S
H1180 C1204 0.950 . S
H1181 C1205 0.951 . S
H1182 C1207 0.951 . S
H1183 C1209 0.950 . S
H1184 C1210 0.950 . S
H1185 C1212 0.950 . S
H1186 C1215 0.950 . S
H1187 C1216 0.950 . S
H1188 C1218 0.950 . S
H1189 C1219 0.950 . S
C1190 H1172 0.951 . S
C1190 C1191 1.366 . S
C1190 C1192 1.388 . S
C1191 C1190 1.366 . S
C1191 C1195 1.385 . S
C1192 H1173 0.951 . S
C1192 C1190 1.388 . S
C1192 C1193 1.366 . S
C1193 C1192 1.366 . S
C1193 C1194 1.414 . S
C1193 C1196 1.499 . S
C1194 H1174 0.950 . S
C1194 C1193 1.414 . S
C1194 C1195 1.374 . S
C1195 H1175 0.950 . S
C1195 C1191 1.385 . S
C1195 C1194 1.374 . S
C1196 C1193 1.499 . S
C1196 C1197 1.373 . S
C1196 C1198 1.389 . S
C1197 H1176 0.950 . S
C1197 C1196 1.373 . S
C1197 C1213 1.377 . S
C1198 C1196 1.389 . S
C1198 C1199 1.524 . S
C1198 C1212 1.377 . S
C1199 C1198 1.524 . S
C1199 C1200 1.397 . S
C1199 C1204 1.363 . S
C1200 H1177 0.950 . S
C1200 C1199 1.397 . S
C1200 C1201 1.334 . S
C1201 H1178 0.950 . S
C1201 C1200 1.334 . S
C1201 C1202 1.287 . S
C1202 C1201 1.287 . S
C1202 C1203 1.524 . S
C1202 H1221 0.913 . S
C1203 H1179 0.950 . S
C1203 C1202 1.524 . S
C1203 C1204 1.415 . S
C1204 H1180 0.950 . S
C1204 C1199 1.363 . S
C1204 C1203 1.415 . S
C1205 H1181 0.951 . S
C1205 C1206 1.366 . S
C1205 C1207 1.388 . S
C1206 C1205 1.366 . S
C1206 C1210 1.385 . S
C1207 H1182 0.951 . S
C1207 C1205 1.388 . S
C1207 C1208 1.366 . S
C1208 C1207 1.366 . S
C1208 C1209 1.414 . S
C1208 C1211 1.499 . S
C1209 H1183 0.950 . S
C1209 C1208 1.414 . S
C1209 C1210 1.374 . S
C1210 H1184 0.950 . S
C1210 C1206 1.385 . S
C1210 C1209 1.374 . S
C1211 C1208 1.499 . S
C1211 C1212 1.373 . S
C1211 C1213 1.389 . S
C1212 H1185 0.950 . S
C1212 C1198 1.377 . S
C1212 C1211 1.373 . S
C1213 C1197 1.377 . S
C1213 C1211 1.389 . S
C1213 C1214 1.524 . S
C1214 C1213 1.524 . S
C1214 C1215 1.397 . S
C1214 C1219 1.363 . S
C1215 H1186 0.950 . S
C1215 C1214 1.397 . S
C1215 C1216 1.334 . S
C1216 H1187 0.950 . S
C1216 C1215 1.334 . S
C1216 C1217 1.287 . S
C1217 C1216 1.287 . S
C1217 C1218 1.524 . S
C1217 H1220 0.999 . S
C1218 H1188 0.950 . S
C1218 C1217 1.524 . S
C1218 C1219 1.415 . S
C1219 H1189 0.950 . S
C1219 C1214 1.363 . S
C1219 C1218 1.415 . S
H1220 C1217 0.999 . S
H1221 C1202 0.913 . S
H1222 C1240 0.951 . S
H1223 C1242 0.951 . S
H1224 C1244 0.950 . S
H1225 C1245 0.950 . S
H1226 C1247 0.950 . S
H1227 C1250 0.950 . S
H1228 C1251 0.950 . S
H1229 C1253 0.950 . S
H1230 C1254 0.950 . S
H1231 C1255 0.951 . S
H1232 C1257 0.951 . S
H1233 C1259 0.950 . S
H1234 C1260 0.950 . S
H1235 C1262 0.950 . S
H1236 C1265 0.950 . S
H1237 C1266 0.950 . S
H1238 C1268 0.950 . S
H1239 C1269 0.950 . S
C1240 H1222 0.951 . S
C1240 C1241 1.366 . S
C1240 C1242 1.388 . S
C1241 C1240 1.366 . S
C1241 C1245 1.385 . S
C1242 H1223 0.951 . S
C1242 C1240 1.388 . S
C1242 C1243 1.366 . S
C1243 C1242 1.366 . S
C1243 C1244 1.414 . S
C1243 C1246 1.499 . S
C1244 H1224 0.950 . S
C1244 C1243 1.414 . S
C1244 C1245 1.374 . S
C1245 H1225 0.950 . S
C1245 C1241 1.385 . S
C1245 C1244 1.374 . S
C1246 C1243 1.499 . S
C1246 C1247 1.373 . S
C1246 C1248 1.389 . S
C1247 H1226 0.950 . S
C1247 C1246 1.373 . S
C1247 C1263 1.377 . S
C1248 C1246 1.389 . S
C1248 C1249 1.524 . S
C1248 C1262 1.377 . S
C1249 C1248 1.524 . S
C1249 C1250 1.397 . S
C1249 C1254 1.363 . S
C1250 H1227 0.950 . S
C1250 C1249 1.397 . S
C1250 C1251 1.334 . S
C1251 H1228 0.950 . S
C1251 C1250 1.334 . S
C1251 C1252 1.287 . S
C1252 C1251 1.287 . S
C1252 C1253 1.524 . S
C1252 H1271 0.913 . S
C1253 H1229 0.950 . S
C1253 C1252 1.524 . S
C1253 C1254 1.415 . S
C1254 H1230 0.950 . S
C1254 C1249 1.363 . S
C1254 C1253 1.415 . S
C1255 H1231 0.951 . S
C1255 C1256 1.366 . S
C1255 C1257 1.388 . S
C1256 C1255 1.366 . S
C1256 C1260 1.385 . S
C1257 H1232 0.951 . S
C1257 C1255 1.388 . S
C1257 C1258 1.366 . S
C1258 C1257 1.366 . S
C1258 C1259 1.414 . S
C1258 C1261 1.499 . S
C1259 H1233 0.950 . S
C1259 C1258 1.414 . S
C1259 C1260 1.374 . S
C1260 H1234 0.950 . S
C1260 C1256 1.385 . S
C1260 C1259 1.374 . S
C1261 C1258 1.499 . S
C1261 C1262 1.373 . S
C1261 C1263 1.389 . S
C1262 H1235 0.950 . S
C1262 C1248 1.377 . S
C1262 C1261 1.373 . S
C1263 C1247 1.377 . S
C1263 C1261 1.389 . S
C1263 C1264 1.524 . S
C1264 C1263 1.524 . S
C1264 C1265 1.397 . S
C1264 C1269 1.363 . S
C1265 H1236 0.950 . S
C1265 C1264 1.397 . S
C1265 C1266 1.334 . S
C1266 H1237 0.950 . S
C1266 C1265 1.334 . S
C1266 C1267 1.287 . S
C1267 C1266 1.287 . S
C1267 C1268 1.524 . S
C1267 H1270 0.999 . S
C1268 H1238 0.950 . S
C1268 C1267 1.524 . S
C1268 C1269 1.415 . S
C1269 H1239 0.950 . S
C1269 C1264 1.363 . S
C1269 C1268 1.415 . S
H1270 C1267 0.999 . S
H1271 C1252 0.913 . S
H1272 C1290 0.951 . S
H1273 C1292 0.951 . S
H1274 C1294 0.950 . S
H1275 C1295 0.950 . S
H1276 C1297 0.950 . S
H1277 C1300 0.950 . S
H1278 C1301 0.950 . S
H1279 C1303 0.950 . S
H1280 C1304 0.950 . S
H1281 C1305 0.951 . S
H1282 C1307 0.951 . S
H1283 C1309 0.950 . S
H1284 C1310 0.950 . S
H1285 C1312 0.950 . S
H1286 C1315 0.950 . S
H1287 C1316 0.950 . S
H1288 C1318 0.950 . S
H1289 C1319 0.950 . S
C1290 H1272 0.951 . S
C1290 C1291 1.366 . S
C1290 C1292 1.388 . S
C1291 C1290 1.366 . S
C1291 C1295 1.385 . S
C1292 H1273 0.951 . S
C1292 C1290 1.388 . S
C1292 C1293 1.366 . S
C1293 C1292 1.366 . S
C1293 C1294 1.414 . S
C1293 C1296 1.499 . S
C1294 H1274 0.950 . S
C1294 C1293 1.414 . S
C1294 C1295 1.374 . S
C1295 H1275 0.950 . S
C1295 C1291 1.385 . S
C1295 C1294 1.374 . S
C1296 C1293 1.499 . S
C1296 C1297 1.373 . S
C1296 C1298 1.389 . S
C1297 H1276 0.950 . S
C1297 C1296 1.373 . S
C1297 C1313 1.377 . S
C1298 C1296 1.389 . S
C1298 C1299 1.524 . S
C1298 C1312 1.377 . S
C1299 C1298 1.524 . S
C1299 C1300 1.397 . S
C1299 C1304 1.363 . S
C1300 H1277 0.950 . S
C1300 C1299 1.397 . S
C1300 C1301 1.334 . S
C1301 H1278 0.950 . S
C1301 C1300 1.334 . S
C1301 C1302 1.287 . S
C1302 C1301 1.287 . S
C1302 C1303 1.524 . S
C1302 H1321 0.913 . S
C1303 H1279 0.950 . S
C1303 C1302 1.524 . S
C1303 C1304 1.415 . S
C1304 H1280 0.950 . S
C1304 C1299 1.363 . S
C1304 C1303 1.415 . S
C1305 H1281 0.951 . S
C1305 C1306 1.366 . S
C1305 C1307 1.388 . S
C1306 C1305 1.366 . S
C1306 C1310 1.385 . S
C1307 H1282 0.951 . S
C1307 C1305 1.388 . S
C1307 C1308 1.366 . S
C1308 C1307 1.366 . S
C1308 C1309 1.414 . S
C1308 C1311 1.499 . S
C1309 H1283 0.950 . S
C1309 C1308 1.414 . S
C1309 C1310 1.374 . S
C1310 H1284 0.950 . S
C1310 C1306 1.385 . S
C1310 C1309 1.374 . S
C1311 C1308 1.499 . S
C1311 C1312 1.373 . S
C1311 C1313 1.389 . S
C1312 H1285 0.950 . S
C1312 C1298 1.377 . S
C1312 C1311 1.373 . S
C1313 C1297 1.377 . S
C1313 C1311 1.389 . S
C1313 C1314 1.524 . S
C1314 C1313 1.524 . S
C1314 C1315 1.397 . S
C1314 C1319 1.363 . S
C1315 H1286 0.950 . S
C1315 C1314 1.397 . S
C1315 C1316 1.334 . S
C1316 H1287 0.950 . S
C1316 C1315 1.334 . S
C1316 C1317 1.287 . S
C1317 C1316 1.287 . S
C1317 C1318 1.524 . S
C1317 H1320 0.999 . S
C1318 H1288 0.950 . S
C1318 C1317 1.524 . S
C1318 C1319 1.415 . S
C1319 H1289 0.950 . S
C1319 C1314 1.363 . S
C1319 C1318 1.415 . S
H1320 C1317 0.999 . S
H1321 C1302 0.913 . S
H1322 C1340 0.951 . S
H1323 C1342 0.951 . S
H1324 C1344 0.950 . S
H1325 C1345 0.950 . S
H1326 C1347 0.950 . S
H1327 C1350 0.950 . S
H1328 C1351 0.950 . S
H1329 C1353 0.950 . S
H1330 C1354 0.950 . S
H1331 C1355 0.951 . S
H1332 C1357 0.951 . S
H1333 C1359 0.950 . S
H1334 C1360 0.950 . S
H1335 C1362 0.950 . S
H1336 C1365 0.950 . S
H1337 C1366 0.950 . S
H1338 C1368 0.950 . S
H1339 C1369 0.950 . S
C1340 H1322 0.951 . S
C1340 C1341 1.366 . S
C1340 C1342 1.388 . S
C1341 C1340 1.366 . S
C1341 C1345 1.385 . S
C1342 H1323 0.951 . S
C1342 C1340 1.388 . S
C1342 C1343 1.366 . S
C1343 C1342 1.366 . S
C1343 C1344 1.414 . S
C1343 C1346 1.499 . S
C1344 H1324 0.950 . S
C1344 C1343 1.414 . S
C1344 C1345 1.374 . S
C1345 H1325 0.950 . S
C1345 C1341 1.385 . S
C1345 C1344 1.374 . S
C1346 C1343 1.499 . S
C1346 C1347 1.373 . S
C1346 C1348 1.389 . S
C1347 H1326 0.950 . S
C1347 C1346 1.373 . S
C1347 C1363 1.377 . S
C1348 C1346 1.389 . S
C1348 C1349 1.524 . S
C1348 C1362 1.377 . S
C1349 C1348 1.524 . S
C1349 C1350 1.397 . S
C1349 C1354 1.363 . S
C1350 H1327 0.950 . S
C1350 C1349 1.397 . S
C1350 C1351 1.334 . S
C1351 H1328 0.950 . S
C1351 C1350 1.334 . S
C1351 C1352 1.287 . S
C1352 C1351 1.287 . S
C1352 C1353 1.524 . S
C1352 H1371 0.913 . S
C1353 H1329 0.950 . S
C1353 C1352 1.524 . S
C1353 C1354 1.415 . S
C1354 H1330 0.950 . S
C1354 C1349 1.363 . S
C1354 C1353 1.415 . S
C1355 H1331 0.951 . S
C1355 C1356 1.366 . S
C1355 C1357 1.388 . S
C1356 C1355 1.366 . S
C1356 C1360 1.385 . S
C1357 H1332 0.951 . S
C1357 C1355 1.388 . S
C1357 C1358 1.366 . S
C1358 C1357 1.366 . S
C1358 C1359 1.414 . S
C1358 C1361 1.499 . S
C1359 H1333 0.950 . S
C1359 C1358 1.414 . S
C1359 C1360 1.374 . S
C1360 H1334 0.950 . S
C1360 C1356 1.385 . S
C1360 C1359 1.374 . S
C1361 C1358 1.499 . S
C1361 C1362 1.373 . S
C1361 C1363 1.389 . S
C1362 H1335 0.950 . S
C1362 C1348 1.377 . S
C1362 C1361 1.373 . S
C1363 C1347 1.377 . S
C1363 C1361 1.389 . S
C1363 C1364 1.524 . S
C1364 C1363 1.524 . S
C1364 C1365 1.397 . S
C1364 C1369 1.363 . S
C1365 H1336 0.950 . S
C1365 C1364 1.397 . S
C1365 C1366 1.334 . S
C1366 H1337 0.950 . S
C1366 C1365 1.334 . S
C1366 C1367 1.287 . S
C1367 C1366 1.287 . S
C1367 C1368 1.524 . S
C1367 H1370 0.999 . S
C1368 H1338 0.950 . S
C1368 C1367 1.524 . S
C1368 C1369 1.415 . S
C1369 H1339 0.950 . S
C1369 C1364 1.363 . S
C1369 C1368 1.415 . S
H1370 C1367 0.999 . S
H1371 C1352 0.913 . S
H1372 C1390 0.951 . S
H1373 C1392 0.951 . S
H1374 C1394 0.950 . S
H1375 C1395 0.950 . S
H1376 C1397 0.950 . S
H1377 C1400 0.950 . S
H1378 C1401 0.950 . S
H1379 C1403 0.950 . S
H1380 C1404 0.950 . S
H1381 C1405 0.951 . S
H1382 C1407 0.951 . S
H1383 C1409 0.950 . S
H1384 C1410 0.950 . S
H1385 C1412 0.950 . S
H1386 C1415 0.950 . S
H1387 C1416 0.950 . S
H1388 C1418 0.950 . S
H1389 C1419 0.950 . S
C1390 H1372 0.951 . S
C1390 C1391 1.366 . S
C1390 C1392 1.388 . S
C1391 C1390 1.366 . S
C1391 C1395 1.385 . S
C1392 H1373 0.951 . S
C1392 C1390 1.388 . S
C1392 C1393 1.366 . S
C1393 C1392 1.366 . S
C1393 C1394 1.414 . S
C1393 C1396 1.499 . S
C1394 H1374 0.950 . S
C1394 C1393 1.414 . S
C1394 C1395 1.374 . S
C1395 H1375 0.950 . S
C1395 C1391 1.385 . S
C1395 C1394 1.374 . S
C1396 C1393 1.499 . S
C1396 C1397 1.373 . S
C1396 C1398 1.389 . S
C1397 H1376 0.950 . S
C1397 C1396 1.373 . S
C1397 C1413 1.377 . S
C1398 C1396 1.389 . S
C1398 C1399 1.524 . S
C1398 C1412 1.377 . S
C1399 C1398 1.524 . S
C1399 C1400 1.397 . S
C1399 C1404 1.363 . S
C1400 H1377 0.950 . S
C1400 C1399 1.397 . S
C1400 C1401 1.334 . S
C1401 H1378 0.950 . S
C1401 C1400 1.334 . S
C1401 C1402 1.287 . S
C1402 C1401 1.287 . S
C1402 C1403 1.524 . S
C1402 H1421 0.913 . S
C1403 H1379 0.950 . S
C1403 C1402 1.524 . S
C1403 C1404 1.415 . S
C1404 H1380 0.950 . S
C1404 C1399 1.363 . S
C1404 C1403 1.415 . S
C1405 H1381 0.951 . S
C1405 C1406 1.366 . S
C1405 C1407 1.388 . S
C1406 C1405 1.366 . S
C1406 C1410 1.385 . S
C1407 H1382 0.951 . S
C1407 C1405 1.388 . S
C1407 C1408 1.366 . S
C1408 C1407 1.366 . S
C1408 C1409 1.414 . S
C1408 C1411 1.499 . S
C1409 H1383 0.950 . S
C1409 C1408 1.414 . S
C1409 C1410 1.374 . S
C1410 H1384 0.950 . S
C1410 C1406 1.385 . S
C1410 C1409 1.374 . S
C1411 C1408 1.499 . S
C1411 C1412 1.373 . S
C1411 C1413 1.389 . S
C1412 H1385 0.950 . S
C1412 C1398 1.377 . S
C1412 C1411 1.373 . S
C1413 C1397 1.377 . S
C1413 C1411 1.389 . S
C1413 C1414 1.524 . S
C1414 C1413 1.524 . S
C1414 C1415 1.397 . S
C1414 C1419 1.363 . S
C1415 H1386 0.950 . S
C1415 C1414 1.397 . S
C1415 C1416 1.334 . S
C1416 H1387 0.950 . S
C1416 C1415 1.334 . S
C1416 C1417 1.287 . S
C1417 C1416 1.287 . S
C1417 C1418 1.524 . S
C1417 H1420 0.999 . S
C1418 H1388 0.950 . S
C1418 C1417 1.524 . S
C1418 C1419 1.415 . S
C1419 H1389 0.950 . S
C1419 C1414 1.363 . S
C1419 C1418 1.415 . S
H1420 C1417 0.999 . S
H1421 C1402 0.913 . S
H1422 C1440 0.951 . S
H1423 C1442 0.951 . S
H1424 C1444 0.950 . S
H1425 C1445 0.950 . S
H1426 C1447 0.950 . S
H1427 C1450 0.950 . S
H1428 C1451 0.950 . S
H1429 C1453 0.950 . S
H1430 C1454 0.950 . S
H1431 C1455 0.951 . S
H1432 C1457 0.951 . S
H1433 C1459 0.950 . S
H1434 C1460 0.950 . S
H1435 C1462 0.950 . S
H1436 C1465 0.950 . S
H1437 C1466 0.950 . S
H1438 C1468 0.950 . S
H1439 C1469 0.950 . S
C1440 H1422 0.951 . S
C1440 C1441 1.366 . S
C1440 C1442 1.388 . S
C1441 C1440 1.366 . S
C1441 C1445 1.385 . S
C1442 H1423 0.951 . S
C1442 C1440 1.388 . S
C1442 C1443 1.366 . S
C1443 C1442 1.366 . S
C1443 C1444 1.414 . S
C1443 C1446 1.499 . S
C1444 H1424 0.950 . S
C1444 C1443 1.414 . S
C1444 C1445 1.374 . S
C1445 H1425 0.950 . S
C1445 C1441 1.385 . S
C1445 C1444 1.374 . S
C1446 C1443 1.499 . S
C1446 C1447 1.373 . S
C1446 C1448 1.389 . S
C1447 H1426 0.950 . S
C1447 C1446 1.373 . S
C1447 C1463 1.377 . S
C1448 C1446 1.389 . S
C1448 C1449 1.524 . S
C1448 C1462 1.377 . S
C1449 C1448 1.524 . S
C1449 C1450 1.397 . S
C1449 C1454 1.363 . S
C1450 H1427 0.950 . S
C1450 C1449 1.397 . S
C1450 C1451 1.334 . S
C1451 H1428 0.950 . S
C1451 C1450 1.334 . S
C1451 C1452 1.287 . S
C1452 C1451 1.287 . S
C1452 C1453 1.524 . S
C1452 H1471 0.913 . S
C1453 H1429 0.950 . S
C1453 C1452 1.524 . S
C1453 C1454 1.415 . S
C1454 H1430 0.950 . S
C1454 C1449 1.363 . S
C1454 C1453 1.415 . S
C1455 H1431 0.951 . S
C1455 C1456 1.366 . S
C1455 C1457 1.388 . S
C1456 C1455 1.366 . S
C1456 C1460 1.385 . S
C1457 H1432 0.951 . S
C1457 C1455 1.388 . S
C1457 C1458 1.366 . S
C1458 C1457 1.366 . S
C1458 C1459 1.414 . S
C1458 C1461 1.499 . S
C1459 H1433 0.950 . S
C1459 C1458 1.414 . S
C1459 C1460 1.374 . S
C1460 H1434 0.950 . S
C1460 C1456 1.385 . S
C1460 C1459 1.374 . S
C1461 C1458 1.499 . S
C1461 C1462 1.373 . S
C1461 C1463 1.389 . S
C1462 H1435 0.950 . S
C1462 C1448 1.377 . S
C1462 C1461 1.373 . S
C1463 C1447 1.377 . S
C1463 C1461 1.389 . S
C1463 C1464 1.524 . S
C1464 C1463 1.524 . S
C1464 C1465 1.397 . S
C1464 C1469 1.363 . S
C1465 H1436 0.950 . S
C1465 C1464 1.397 . S
C1465 C1466 1.334 . S
C1466 H1437 0.950 . S
C1466 C1465 1.334 . S
C1466 C1467 1.287 . S
C1467 C1466 1.287 . S
C1467 C1468 1.524 . S
C1467 H1470 0.999 . S
C1468 H1438 0.950 . S
C1468 C1467 1.524 . S
C1468 C1469 1.415 . S
C1469 H1439 0.950 . S
C1469 C1464 1.363 . S
C1469 C1468 1.415 . S
H1470 C1467 0.999 . S
H1471 C1452 0.913 . S
H1472 C1490 0.951 . S
H1473 C1492 0.951 . S
H1474 C1494 0.950 . S
H1475 C1495 0.950 . S
H1476 C1497 0.950 . S
H1477 C1500 0.950 . S
H1478 C1501 0.950 . S
H1479 C1503 0.950 . S
H1480 C1504 0.950 . S
H1481 C1505 0.951 . S
H1482 C1507 0.951 . S
H1483 C1509 0.950 . S
H1484 C1510 0.950 . S
H1485 C1512 0.950 . S
H1486 C1515 0.950 . S
H1487 C1516 0.950 . S
H1488 C1518 0.950 . S
H1489 C1519 0.950 . S
C1490 H1472 0.951 . S
C1490 C1491 1.366 . S
C1490 C1492 1.388 . S
C1491 C1490 1.366 . S
C1491 C1495 1.385 . S
C1492 H1473 0.951 . S
C1492 C1490 1.388 . S
C1492 C1493 1.366 . S
C1493 C1492 1.366 . S
C1493 C1494 1.414 . S
C1493 C1496 1.499 . S
C1494 H1474 0.950 . S
C1494 C1493 1.414 . S
C1494 C1495 1.374 . S
C1495 H1475 0.950 . S
C1495 C1491 1.385 . S
C1495 C1494 1.374 . S
C1496 C1493 1.499 . S
C1496 C1497 1.373 . S
C1496 C1498 1.389 . S
C1497 H1476 0.950 . S
C1497 C1496 1.373 . S
C1497 C1513 1.377 . S
C1498 C1496 1.389 . S
C1498 C1499 1.524 . S
C1498 C1512 1.377 . S
C1499 C1498 1.524 . S
C1499 C1500 1.397 . S
C1499 C1504 1.363 . S
C1500 H1477 0.950 . S
C1500 C1499 1.397 . S
C1500 C1501 1.334 . S
C1501 H1478 0.950 . S
C1501 C1500 1.334 . S
C1501 C1502 1.287 . S
C1502 C1501 1.287 . S
C1502 C1503 1.524 . S
C1502 H1521 0.913 . S
C1503 H1479 0.950 . S
C1503 C1502 1.524 . S
C1503 C1504 1.415 . S
C1504 H1480 0.950 . S
C1504 C1499 1.363 . S
C1504 C1503 1.415 . S
C1505 H1481 0.951 . S
C1505 C1506 1.366 . S
C1505 C1507 1.388 . S
C1506 C1505 1.366 . S
C1506 C1510 1.385 . S
C1507 H1482 0.951 . S
C1507 C1505 1.388 . S
C1507 C1508 1.366 . S
C1508 C1507 1.366 . S
C1508 C1509 1.414 . S
C1508 C1511 1.499 . S
C1509 H1483 0.950 . S
C1509 C1508 1.414 . S
C1509 C1510 1.374 . S
C1510 H1484 0.950 . S
C1510 C1506 1.385 . S
C1510 C1509 1.374 . S
C1511 C1508 1.499 . S
C1511 C1512 1.373 . S
C1511 C1513 1.389 . S
C1512 H1485 0.950 . S
C1512 C1498 1.377 . S
C1512 C1511 1.373 . S
C1513 C1497 1.377 . S
C1513 C1511 1.389 . S
C1513 C1514 1.524 . S
C1514 C1513 1.524 . S
C1514 C1515 1.397 . S
C1514 C1519 1.363 . S
C1515 H1486 0.950 . S
C1515 C1514 1.397 . S
C1515 C1516 1.334 . S
C1516 H1487 0.950 . S
C1516 C1515 1.334 . S
C1516 C1517 1.287 . S
C1517 C1516 1.287 . S
C1517 C1518 1.524 . S
C1517 H1520 0.999 . S
C1518 H1488 0.950 . S
C1518 C1517 1.524 . S
C1518 C1519 1.415 . S
C1519 H1489 0.950 . S
C1519 C1514 1.363 . S
C1519 C1518 1.415 . S
H1520 C1517 0.999 . S
H1521 C1502 0.913 . S
H1522 C1540 0.951 . S
H1523 C1542 0.951 . S
H1524 C1544 0.950 . S
H1525 C1545 0.950 . S
H1526 C1547 0.950 . S
H1527 C1550 0.950 . S
H1528 C1551 0.950 . S
H1529 C1553 0.950 . S
H1530 C1554 0.950 . S
H1531 C1555 0.951 . S
H1532 C1557 0.951 . S
H1533 C1559 0.950 . S
H1534 C1560 0.950 . S
H1535 C1562 0.950 . S
H1536 C1565 0.950 . S
H1537 C1566 0.950 . S
H1538 C1568 0.950 . S
H1539 C1569 0.950 . S
C1540 H1522 0.951 . S
C1540 C1541 1.366 . S
C1540 C1542 1.388 . S
C1541 C1540 1.366 . S
C1541 C1545 1.385 . S
C1542 H1523 0.951 . S
C1542 C1540 1.388 . S
C1542 C1543 1.366 . S
C1543 C1542 1.366 . S
C1543 C1544 1.414 . S
C1543 C1546 1.499 . S
C1544 H1524 0.950 . S
C1544 C1543 1.414 . S
C1544 C1545 1.374 . S
C1545 H1525 0.950 . S
C1545 C1541 1.385 . S
C1545 C1544 1.374 . S
C1546 C1543 1.499 . S
C1546 C1547 1.373 . S
C1546 C1548 1.389 . S
C1547 H1526 0.950 . S
C1547 C1546 1.373 . S
C1547 C1563 1.377 . S
C1548 C1546 1.389 . S
C1548 C1549 1.524 . S
C1548 C1562 1.377 . S
C1549 C1548 1.524 . S
C1549 C1550 1.397 . S
C1549 C1554 1.363 . S
C1550 H1527 0.950 . S
C1550 C1549 1.397 . S
C1550 C1551 1.334 . S
C1551 H1528 0.950 . S
C1551 C1550 1.334 . S
C1551 C1552 1.287 . S
C1552 C1551 1.287 . S
C1552 C1553 1.524 . S
C1552 H1571 0.913 . S
C1553 H1529 0.950 . S
C1553 C1552 1.524 . S
C1553 C1554 1.415 . S
C1554 H1530 0.950 . S
C1554 C1549 1.363 . S
C1554 C1553 1.415 . S
C1555 H1531 0.951 . S
C1555 C1556 1.366 . S
C1555 C1557 1.388 . S
C1556 C1555 1.366 . S
C1556 C1560 1.385 . S
C1557 H1532 0.951 . S
C1557 C1555 1.388 . S
C1557 C1558 1.366 . S
C1558 C1557 1.366 . S
C1558 C1559 1.414 . S
C1558 C1561 1.499 . S
C1559 H1533 0.950 . S
C1559 C1558 1.414 . S
C1559 C1560 1.374 . S
C1560 H1534 0.950 . S
C1560 C1556 1.385 . S
C1560 C1559 1.374 . S
C1561 C1558 1.499 . S
C1561 C1562 1.373 . S
C1561 C1563 1.389 . S
C1562 H1535 0.950 . S
C1562 C1548 1.377 . S
C1562 C1561 1.373 . S
C1563 C1547 1.377 . S
C1563 C1561 1.389 . S
C1563 C1564 1.524 . S
C1564 C1563 1.524 . S
C1564 C1565 1.397 . S
C1564 C1569 1.363 . S
C1565 H1536 0.950 . S
C1565 C1564 1.397 . S
C1565 C1566 1.334 . S
C1566 H1537 0.950 . S
C1566 C1565 1.334 . S
C1566 C1567 1.287 . S
C1567 C1566 1.287 . S
C1567 C1568 1.524 . S
C1567 H1570 0.999 . S
C1568 H1538 0.950 . S
C1568 C1567 1.524 . S
C1568 C1569 1.415 . S
C1569 H1539 0.950 . S
C1569 C1564 1.363 . S
C1569 C1568 1.415 . S
H1570 C1567 0.999 . S
H1571 C1552 0.913 . S
H1572 C1590 0.951 . S
H1573 C1592 0.951 . S
H1574 C1594 0.950 . S
H1575 C1595 0.950 . S
H1576 C1597 0.950 . S
H1577 C1600 0.950 . S
H1578 C1601 0.950 . S
H1579 C1603 0.950 . S
H1580 C1604 0.950 . S
H1581 C1605 0.951 . S
H1582 C1607 0.951 . S
H1583 C1609 0.950 . S
H1584 C1610 0.950 . S
H1585 C1612 0.950 . S
H1586 C1615 0.950 . S
H1587 C1616 0.950 . S
H1588 C1618 0.950 . S
H1589 C1619 0.950 . S
C1590 H1572 0.951 . S
C1590 C1591 1.366 . S
C1590 C1592 1.388 . S
C1591 C1590 1.366 . S
C1591 C1595 1.385 . S
C1592 H1573 0.951 . S
C1592 C1590 1.388 . S
C1592 C1593 1.366 . S
C1593 C1592 1.366 . S
C1593 C1594 1.414 . S
C1593 C1596 1.499 . S
C1594 H1574 0.950 . S
C1594 C1593 1.414 . S
C1594 C1595 1.374 . S
C1595 H1575 0.950 . S
C1595 C1591 1.385 . S
C1595 C1594 1.374 . S
C1596 C1593 1.499 . S
C1596 C1597 1.373 . S
C1596 C1598 1.389 . S
C1597 H1576 0.950 . S
C1597 C1596 1.373 . S
C1597 C1613 1.377 . S
C1598 C1596 1.389 . S
C1598 C1599 1.524 . S
C1598 C1612 1.377 . S
C1599 C1598 1.524 . S
C1599 C1600 1.397 . S
C1599 C1604 1.363 . S
C1600 H1577 0.950 . S
C1600 C1599 1.397 . S
C1600 C1601 1.334 . S
C1601 H1578 0.950 . S
C1601 C1600 1.334 . S
C1601 C1602 1.287 . S
C1602 C1601 1.287 . S
C1602 C1603 1.524 . S
C1602 H1621 0.913 . S
C1603 H1579 0.950 . S
C1603 C1602 1.524 . S
C1603 C1604 1.415 . S
C1604 H1580 0.950 . S
C1604 C1599 1.363 . S
C1604 C1603 1.415 . S
C1605 H1581 0.951 . S
C1605 C1606 1.366 . S
C1605 C1607 1.388 . S
C1606 C1605 1.366 . S
C1606 C1610 1.385 . S
C1607 H1582 0.951 . S
C1607 C1605 1.388 . S
C1607 C1608 1.366 . S
C1608 C1607 1.366 . S
C1608 C1609 1.414 . S
C1608 C1611 1.499 . S
C1609 H1583 0.950 . S
C1609 C1608 1.414 . S
C1609 C1610 1.374 . S
C1610 H1584 0.950 . S
C1610 C1606 1.385 . S
C1610 C1609 1.374 . S
C1611 C1608 1.499 . S
C1611 C1612 1.373 . S
C1611 C1613 1.389 . S
C1612 H1585 0.950 . S
C1612 C1598 1.377 . S
C1612 C1611 1.373 . S
C1613 C1597 1.377 . S
C1613 C1611 1.389 . S
C1613 C1614 1.524 . S
C1614 C1613 1.524 . S
C1614 C1615 1.397 . S
C1614 C1619 1.363 . S
C1615 H1586 0.950 . S
C1615 C1614 1.397 . S
C1615 C1616 1.334 . S
C1616 H1587 0.950 . S
C1616 C1615 1.334 . S
C1616 C1617 1.287 . S
C1617 C1616 1.287 . S
C1617 C1618 1.524 . S
C1617 H1620 0.999 . S
C1618 H1588 0.950 . S
C1618 C1617 1.524 . S
C1618 C1619 1.415 . S
C1619 H1589 0.950 . S
C1619 C1614 1.363 . S
C1619 C1618 1.415 . S
H1620 C1617 0.999 . S
H1621 C1602 0.913 . S
H1622 C1640 0.951 . S
H1623 C1642 0.951 . S
H1624 C1644 0.950 . S
H1625 C1645 0.950 . S
H1626 C1647 0.950 . S
H1627 C1650 0.950 . S
H1628 C1651 0.950 . S
H1629 C1653 0.950 . S
H1630 C1654 0.950 . S
H1631 C1655 0.951 . S
H1632 C1657 0.951 . S
H1633 C1659 0.950 . S
H1634 C1660 0.950 . S
H1635 C1662 0.950 . S
H1636 C1665 0.950 . S
H1637 C1666 0.950 . S
H1638 C1668 0.950 . S
H1639 C1669 0.950 . S
C1640 H1622 0.951 . S
C1640 C1641 1.366 . S
C1640 C1642 1.388 . S
C1641 C1640 1.366 . S
C1641 C1645 1.385 . S
C1642 H1623 0.951 . S
C1642 C1640 1.388 . S
C1642 C1643 1.366 . S
C1643 C1642 1.366 . S
C1643 C1644 1.414 . S
C1643 C1646 1.499 . S
C1644 H1624 0.950 . S
C1644 C1643 1.414 . S
C1644 C1645 1.374 . S
C1645 H1625 0.950 . S
C1645 C1641 1.385 . S
C1645 C1644 1.374 . S
C1646 C1643 1.499 . S
C1646 C1647 1.373 . S
C1646 C1648 1.389 . S
C1647 H1626 0.950 . S
C1647 C1646 1.373 . S
C1647 C1663 1.377 . S
C1648 C1646 1.389 . S
C1648 C1649 1.524 . S
C1648 C1662 1.377 . S
C1649 C1648 1.524 . S
C1649 C1650 1.397 . S
C1649 C1654 1.363 . S
C1650 H1627 0.950 . S
C1650 C1649 1.397 . S
C1650 C1651 1.334 . S
C1651 H1628 0.950 . S
C1651 C1650 1.334 . S
C1651 C1652 1.287 . S
C1652 C1651 1.287 . S
C1652 C1653 1.524 . S
C1652 H1671 0.913 . S
C1653 H1629 0.950 . S
C1653 C1652 1.524 . S
C1653 C1654 1.415 . S
C1654 H1630 0.950 . S
C1654 C1649 1.363 . S
C1654 C1653 1.415 . S
C1655 H1631 0.951 . S
C1655 C1656 1.366 . S
C1655 C1657 1.388 . S
C1656 C1655 1.366 . S
C1656 C1660 1.385 . S
C1657 H1632 0.951 . S
C1657 C1655 1.388 . S
C1657 C1658 1.366 . S
C1658 C1657 1.366 . S
C1658 C1659 1.414 . S
C1658 C1661 1.499 . S
C1659 H1633 0.950 . S
C1659 C1658 1.414 . S
C1659 C1660 1.374 . S
C1660 H1634 0.950 . S
C1660 C1656 1.385 . S
C1660 C1659 1.374 . S
C1661 C1658 1.499 . S
C1661 C1662 1.373 . S
C1661 C1663 1.389 . S
C1662 H1635 0.950 . S
C1662 C1648 1.377 . S
C1662 C1661 1.373 . S
C1663 C1647 1.377 . S
C1663 C1661 1.389 . S
C1663 C1664 1.524 . S
C1664 C1663 1.524 . S
C1664 C1665 1.397 . S
C1664 C1669 1.363 . S
C1665 H1636 0.950 . S
C1665 C1664 1.397 . S
C1665 C1666 1.334 . S
C1666 H1637 0.950 . S
C1666 C1665 1.334 . S
C1666 C1667 1.287 . S
C1667 C1666 1.287 . S
C1667 C1668 1.524 . S
C1667 H1670 0.999 . S
C1668 H1638 0.950 . S
C1668 C1667 1.524 . S
C1668 C1669 1.415 . S
C1669 H1639 0.950 . S
C1669 C1664 1.363 . S
C1669 C1668 1.415 . S
H1670 C1667 0.999 . S
H1671 C1652 0.913 . S
H1672 C1690 0.951 . S
H1673 C1692 0.951 . S
H1674 C1694 0.950 . S
H1675 C1695 0.950 . S
H1676 C1697 0.950 . S
H1677 C1700 0.950 . S
H1678 C1701 0.950 . S
H1679 C1703 0.950 . S
H1680 C1704 0.950 . S
H1681 C1705 0.951 . S
H1682 C1707 0.951 . S
H1683 C1709 0.950 . S
H1684 C1710 0.950 . S
H1685 C1712 0.950 . S
H1686 C1715 0.950 . S
H1687 C1716 0.950 . S
H1688 C1718 0.950 . S
H1689 C1719 0.950 . S
C1690 H1672 0.951 . S
C1690 C1691 1.366 . S
C1690 C1692 1.388 . S
C1691 C1690 1.366 . S
C1691 C1695 1.385 . S
C1692 H1673 0.951 . S
C1692 C1690 1.388 . S
C1692 C1693 1.366 . S
C1693 C1692 1.366 . S
C1693 C1694 1.414 . S
C1693 C1696 1.499 . S
C1694 H1674 0.950 . S
C1694 C1693 1.414 . S
C1694 C1695 1.374 . S
C1695 H1675 0.950 . S
C1695 C1691 1.385 . S
C1695 C1694 1.374 . S
C1696 C1693 1.499 . S
C1696 C1697 1.373 . S
C1696 C1698 1.389 . S
C1697 H1676 0.950 . S
C1697 C1696 1.373 . S
C1697 C1713 1.377 . S
C1698 C1696 1.389 . S
C1698 C1699 1.524 . S
C1698 C1712 1.377 . S
C1699 C1698 1.524 . S
C1699 C1700 1.397 . S
C1699 C1704 1.363 . S
C1700 H1677 0.950 . S
C1700 C1699 1.397 . S
C1700 C1701 1.334 . S
C1701 H1678 0.950 . S
C1701 C1700 1.334 . S
C1701 C1702 1.287 . S
C1702 C1701 1.287 . S
C1702 C1703 1.524 . S
C1702 H1721 0.913 . S
C1703 H1679 0.950 . S
C1703 C1702 1.524 . S
C1703 C1704 1.415 . S
C1704 H1680 0.950 . S
C1704 C1699 1.363 . S
C1704 C1703 1.415 . S
C1705 H1681 0.951 . S
C1705 C1706 1.366 . S
C1705 C1707 1.388 . S
C1706 C1705 1.366 . S
C1706 C1710 1.385 . S
C1707 H1682 0.951 . S
C1707 C1705 1.388 . S
C1707 C1708 1.366 . S
C1708 C1707 1.366 . S
C1708 C1709 1.414 . S
C1708 C1711 1.499 . S
C1709 H1683 0.950 . S
C1709 C1708 1.414 . S
C1709 C1710 1.374 . S
C1710 H1684 0.950 . S
C1710 C1706 1.385 . S
C1710 C1709 1.374 . S
C1711 C1708 1.499 . S
C1711 C1712 1.373 . S
C1711 C1713 1.389 . S
C1712 H1685 0.950 . S
C1712 C1698 1.377 . S
C1712 C1711 1.373 . S
C1713 C1697 1.377 . S
C1713 C1711 1.389 . S
C1713 C1714 1.524 . S
C1714 C1713 1.524 . S
C1714 C1715 1.397 . S
C1714 C1719 1.363 . S
C1715 H1686 0.950 . S
C1715 C1714 1.397 . S
C1715 C1716 1.334 . S
C1716 H1687 0.950 . S
C1716 C1715 1.334 . S
C1716 C1717 1.287 . S
C1717 C1716 1.287 . S
C1717 C1718 1.524 . S
C1717 H1720 0.999 . S
C1718 H1688 0.950 . S
C1718 C1717 1.524 . S
C1718 C1719 1.415 . S
C1719 H1689 0.950 . S
C1719 C1714 1.363 . S
C1719 C1718 1.415 . S
H1720 C1717 0.999 . S
H1721 C1702 0.913 . S
H1722 C1740 0.951 . S
H1723 C1742 0.951 . S
H1724 C1744 0.950 . S
H1725 C1745 0.950 . S
H1726 C1747 0.950 . S
H1727 C1750 0.950 . S
H1728 C1751 0.950 . S
H1729 C1753 0.950 . S
H1730 C1754 0.950 . S
H1731 C1755 0.951 . S
H1732 C1757 0.951 . S
H1733 C1759 0.950 . S
H1734 C1760 0.950 . S
H1735 C1762 0.950 . S
H1736 C1765 0.950 . S
H1737 C1766 0.950 . S
H1738 C1768 0.950 . S
H1739 C1769 0.950 . S
C1740 H1722 0.951 . S
C1740 C1741 1.366 . S
C1740 C1742 1.388 . S
C1741 C1740 1.366 . S
C1741 C1745 1.385 . S
C1742 H1723 0.951 . S
C1742 C1740 1.388 . S
C1742 C1743 1.366 . S
C1743 C1742 1.366 . S
C1743 C1744 1.414 . S
C1743 C1746 1.499 . S
C1744 H1724 0.950 . S
C1744 C1743 1.414 . S
C1744 C1745 1.374 . S
C1745 H1725 0.950 . S
C1745 C1741 1.385 . S
C1745 C1744 1.374 . S
C1746 C1743 1.499 . S
C1746 C1747 1.373 . S
C1746 C1748 1.389 . S
C1747 H1726 0.950 . S
C1747 C1746 1.373 . S
C1747 C1763 1.377 . S
C1748 C1746 1.389 . S
C1748 C1749 1.524 . S
C1748 C1762 1.377 . S
C1749 C1748 1.524 . S
C1749 C1750 1.397 . S
C1749 C1754 1.363 . S
C1750 H1727 0.950 . S
C1750 C1749 1.397 . S
C1750 C1751 1.334 . S
C1751 H1728 0.950 . S
C1751 C1750 1.334 . S
C1751 C1752 1.287 . S
C1752 C1751 1.287 . S
C1752 C1753 1.524 . S
C1752 H1771 0.913 . S
C1753 H1729 0.950 . S
C1753 C1752 1.524 . S
C1753 C1754 1.415 . S
C1754 H1730 0.950 . S
C1754 C1749 1.363 . S
C1754 C1753 1.415 . S
C1755 H1731 0.951 . S
C1755 C1756 1.366 . S
C1755 C1757 1.388 . S
C1756 C1755 1.366 . S
C1756 C1760 1.385 . S
C1757 H1732 0.951 . S
C1757 C1755 1.388 . S
C1757 C1758 1.366 . S
C1758 C1757 1.366 . S
C1758 C1759 1.414 . S
C1758 C1761 1.499 . S
C1759 H1733 0.950 . S
C1759 C1758 1.414 . S
C1759 C1760 1.374 . S
C1760 H1734 0.950 . S
C1760 C1756 1.385 . S
C1760 C1759 1.374 . S
C1761 C1758 1.499 . S
C1761 C1762 1.373 . S
C1761 C1763 1.389 . S
C1762 H1735 0.950 . S
C1762 C1748 1.377 . S
C1762 C1761 1.373 . S
C1763 C1747 1.377 . S
C1763 C1761 1.389 . S
C1763 C1764 1.524 . S
C1764 C1763 1.524 . S
C1764 C1765 1.397 . S
C1764 C1769 1.363 . S
C1765 H1736 0.950 . S
C1765 C1764 1.397 . S
C1765 C1766 1.334 . S
C1766 H1737 0.950 . S
C1766 C1765 1.334 . S
C1766 C1767 1.287 . S
C1767 C1766 1.287 . S
C1767 C1768 1.524 . S
C1767 H1770 0.999 . S
C1768 H1738 0.950 . S
C1768 C1767 1.524 . S
C1768 C1769 1.415 . S
C1769 H1739 0.950 . S
C1769 C1764 1.363 . S
C1769 C1768 1.415 . S
H1770 C1767 0.999 . S
H1771 C1752 0.913 . S
H1772 C1790 0.951 . S
H1773 C1792 0.951 . S
H1774 C1794 0.950 . S
H1775 C1795 0.950 . S
H1776 C1797 0.950 . S
H1777 C1800 0.950 . S
H1778 C1801 0.950 . S
H1779 C1803 0.950 . S
H1780 C1804 0.950 . S
H1781 C1805 0.951 . S
H1782 C1807 0.951 . S
H1783 C1809 0.950 . S
H1784 C1810 0.950 . S
H1785 C1812 0.950 . S
H1786 C1815 0.950 . S
H1787 C1816 0.950 . S
H1788 C1818 0.950 . S
H1789 C1819 0.950 . S
C1790 H1772 0.951 . S
C1790 C1791 1.366 . S
C1790 C1792 1.388 . S
C1791 C1790 1.366 . S
C1791 C1795 1.385 . S
C1792 H1773 0.951 . S
C1792 C1790 1.388 . S
C1792 C1793 1.366 . S
C1793 C1792 1.366 . S
C1793 C1794 1.414 . S
C1793 C1796 1.499 . S
C1794 H1774 0.950 . S
C1794 C1793 1.414 . S
C1794 C1795 1.374 . S
C1795 H1775 0.950 . S
C1795 C1791 1.385 . S
C1795 C1794 1.374 . S
C1796 C1793 1.499 . S
C1796 C1797 1.373 . S
C1796 C1798 1.389 . S
C1797 H1776 0.950 . S
C1797 C1796 1.373 . S
C1797 C1813 1.377 . S
C1798 C1796 1.389 . S
C1798 C1799 1.524 . S
C1798 C1812 1.377 . S
C1799 C1798 1.524 . S
C1799 C1800 1.397 . S
C1799 C1804 1.363 . S
C1800 H1777 0.950 . S
C1800 C1799 1.397 . S
C1800 C1801 1.334 . S
C1801 H1778 0.950 . S
C1801 C1800 1.334 . S
C1801 C1802 1.287 . S
C1802 C1801 1.287 . S
C1802 C1803 1.524 . S
C1802 H1821 0.913 . S
C1803 H1779 0.950 . S
C1803 C1802 1.524 . S
C1803 C1804 1.415 . S
C1804 H1780 0.950 . S
C1804 C1799 1.363 . S
C1804 C1803 1.415 . S
C1805 H1781 0.951 . S
C1805 C1806 1.366 . S
C1805 C1807 1.388 . S
C1806 C1805 1.366 . S
C1806 C1810 1.385 . S
C1807 H1782 0.951 . S
C1807 C1805 1.388 . S
C1807 C1808 1.366 . S
C1808 C1807 1.366 . S
C1808 C1809 1.414 . S
C1808 C1811 1.499 . S
C1809 H1783 0.950 . S
C1809 C1808 1.414 . S
C1809 C1810 1.374 . S
C1810 H1784 0.950 . S
C1810 C1806 1.385 . S
C1810 C1809 1.374 . S
C1811 C1808 1.499 . S
C1811 C1812 1.373 . S
C1811 C1813 1.389 . S
C1812 H1785 0.950 . S
C1812 C1798 1.377 . S
C1812 C1811 1.373 . S
C1813 C1797 1.377 . S
C1813 C1811 1.389 . S
C1813 C1814 1.524 . S
C1814 C1813 1.524 . S
C1814 C1815 1.397 . S
C1814 C1819 1.363 . S
C1815 H1786 0.950 . S
C1815 C1814 1.397 . S
C1815 C1816 1.334 . S
C1816 H1787 0.950 . S
C1816 C1815 1.334 . S
C1816 C1817 1.287 . S
C1817 C1816 1.287 . S
C1817 C1818 1.524 . S
C1817 H1820 0.999 . S
C1818 H1788 0.950 . S
C1818 C1817 1.524 . S
C1818 C1819 1.415 . S
C1819 H1789 0.950 . S
C1819 C1814 1.363 . S
C1819 C1818 1.415 . S
H1820 C1817 0.999 . S
H1821 C1802 0.913 . S
H1822 C1840 0.951 . S
H1823 C1842 0.951 . S
H1824 C1844 0.950 . S
H1825 C1845 0.950 . S
H1826 C1847 0.950 . S
H1827 C1850 0.950 . S
H1828 C1851 0.950 . S
H1829 C1853 0.950 . S
H1830 C1854 0.950 . S
H1831 C1855 0.951 . S
H1832 C1857 0.951 . S
H1833 C1859 0.950 . S
H1834 C1860 0.950 . S
H1835 C1862 0.950 . S
H1836 C1865 0.950 . S
H1837 C1866 0.950 . S
H1838 C1868 0.950 . S
H1839 C1869 0.950 . S
C1840 H1822 0.951 . S
C1840 C1841 1.366 . S
C1840 C1842 1.388 . S
C1841 C1840 1.366 . S
C1841 C1845 1.385 . S
C1842 H1823 0.951 . S
C1842 C1840 1.388 . S
C1842 C1843 1.366 . S
C1843 C1842 1.366 . S
C1843 C1844 1.414 . S
C1843 C1846 1.499 . S
C1844 H1824 0.950 . S
C1844 C1843 1.414 . S
C1844 C1845 1.374 . S
C1845 H1825 0.950 . S
C1845 C1841 1.385 . S
C1845 C1844 1.374 . S
C1846 C1843 1.499 . S
C1846 C1847 1.373 . S
C1846 C1848 1.389 . S
C1847 H1826 0.950 . S
C1847 C1846 1.373 . S
C1847 C1863 1.377 . S
C1848 C1846 1.389 . S
C1848 C1849 1.524 . S
C1848 C1862 1.377 . S
C1849 C1848 1.524 . S
C1849 C1850 1.397 . S
C1849 C1854 1.363 . S
C1850 H1827 0.950 . S
C1850 C1849 1.397 . S
C1850 C1851 1.334 . S
C1851 H1828 0.950 . S
C1851 C1850 1.334 . S
C1851 C1852 1.287 . S
C1852 C1851 1.287 . S
C1852 C1853 1.524 . S
C1852 H1871 0.913 . S
C1853 H1829 0.950 . S
C1853 C1852 1.524 . S
C1853 C1854 1.415 . S
C1854 H1830 0.950 . S
C1854 C1849 1.363 . S
C1854 C1853 1.415 . S
C1855 H1831 0.951 . S
C1855 C1856 1.366 . S
C1855 C1857 1.388 . S
C1856 C1855 1.366 . S
C1856 C1860 1.385 . S
C1857 H1832 0.951 . S
C1857 C1855 1.388 . S
C1857 C1858 1.366 . S
C1858 C1857 1.366 . S
C1858 C1859 1.414 . S
C1858 C1861 1.499 . S
C1859 H1833 0.950 . S
C1859 C1858 1.414 . S
C1859 C1860 1.374 . S
C1860 H1834 0.950 . S
C1860 C1856 1.385 . S
C1860 C1859 1.374 . S
C1861 C1858 1.499 . S
C1861 C1862 1.373 . S
C1861 C1863 1.389 . S
C1862 H1835 0.950 . S
C1862 C1848 1.377 . S
C1862 C1861 1.373 . S
C1863 C1847 1.377 . S
C1863 C1861 1.389 . S
C1863 C1864 1.524 . S
C1864 C1863 1.524 . S
C1864 C1865 1.397 . S
C1864 C1869 1.363 . S
C1865 H1836 0.950 . S
C1865 C1864 1.397 . S
C1865 C1866 1.334 . S
C1866 H1837 0.950 . S
C1866 C1865 1.334 . S
C1866 C1867 1.287 . S
C1867 C1866 1.287 . S
C1867 C1868 1.524 . S
C1867 H1870 0.999 . S
C1868 H1838 0.950 . S
C1868 C1867 1.524 . S
C1868 C1869 1.415 . S
C1869 H1839 0.950 . S
C1869 C1864 1.363 . S
C1869 C1868 1.415 . S
H1870 C1867 0.999 . S
H1871 C1852 0.913 . S
H1872 C1890 0.951 . S
H1873 C1892 0.951 . S
H1874 C1894 0.950 . S
H1875 C1895 0.950 . S
H1876 C1897 0.950 . S
H1877 C1900 0.950 . S
H1878 C1901 0.950 . S
H1879 C1903 0.950 . S
H1880 C1904 0.950 . S
H1881 C1905 0.951 . S
H1882 C1907 0.951 . S
H1883 C1909 0.950 . S
H1884 C1910 0.950 . S
H1885 C1912 0.950 . S
H1886 C1915 0.950 . S
H1887 C1916 0.950 . S
H1888 C1918 0.950 . S
H1889 C1919 0.950 . S
C1890 H1872 0.951 . S
C1890 C1891 1.366 . S
C1890 C1892 1.388 . S
C1891 C1890 1.366 . S
C1891 C1895 1.385 . S
C1892 H1873 0.951 . S
C1892 C1890 1.388 . S
C1892 C1893 1.366 . S
C1893 C1892 1.366 . S
C1893 C1894 1.414 . S
C1893 C1896 1.499 . S
C1894 H1874 0.950 . S
C1894 C1893 1.414 . S
C1894 C1895 1.374 . S
C1895 H1875 0.950 . S
C1895 C1891 1.385 . S
C1895 C1894 1.374 . S
C1896 C1893 1.499 . S
C1896 C1897 1.373 . S
C1896 C1898 1.389 . S
C1897 H1876 0.950 . S
C1897 C1896 1.373 . S
C1897 C1913 1.377 . S
C1898 C1896 1.389 . S
C1898 C1899 1.524 . S
C1898 C1912 1.377 . S
C1899 C1898 1.524 . S
C1899 C1900 1.397 . S
C1899 C1904 1.363 . S
C1900 H1877 0.950 . S
C1900 C1899 1.397 . S
C1900 C1901 1.334 . S
C1901 H1878 0.950 . S
C1901 C1900 1.334 . S
C1901 C1902 1.287 . S
C1902 C1901 1.287 . S
C1902 C1903 1.524 . S
C1902 H1921 0.913 . S
C1903 H1879 0.950 . S
C1903 C1902 1.524 . S
C1903 C1904 1.415 . S
C1904 H1880 0.950 . S
C1904 C1899 1.363 . S
C1904 C1903 1.415 . S
C1905 H1881 0.951 . S
C1905 C1906 1.366 . S
C1905 C1907 1.388 . S
C1906 C1905 1.366 . S
C1906 C1910 1.385 . S
C1907 H1882 0.951 . S
C1907 C1905 1.388 . S
C1907 C1908 1.366 . S
C1908 C1907 1.366 . S
C1908 C1909 1.414 . S
C1908 C1911 1.499 . S
C1909 H1883 0.950 . S
C1909 C1908 1.414 . S
C1909 C1910 1.374 . S
C1910 H1884 0.950 . S
C1910 C1906 1.385 . S
C1910 C1909 1.374 . S
C1911 C1908 1.499 . S
C1911 C1912 1.373 . S
C1911 C1913 1.389 . S
C1912 H1885 0.950 . S
C1912 C1898 1.377 . S
C1912 C1911 1.373 . S
C1913 C1897 1.377 . S
C1913 C1911 1.389 . S
C1913 C1914 1.524 . S
C1914 C1913 1.524 . S
C1914 C1915 1.397 . S
C1914 C1919 1.363 . S
C1915 H1886 0.950 . S
C1915 C1914 1.397 . S
C1915 C1916 1.334 . S
C1916 H1887 0.950 . S
C1916 C1915 1.334 . S
C1916 C1917 1.287 . S
C1917 C1916 1.287 . S
C1917 C1918 1.524 . S
C1917 H1920 0.999 . S
C1918 H1888 0.950 . S
C1918 C1917 1.524 . S
C1918 C1919 1.415 . S
C1919 H1889 0.950 . S
C1919 C1914 1.363 . S
C1919 C1918 1.415 . S
H1920 C1917 0.999 . S
H1921 C1902 0.913 . S
H1922 C1940 0.951 . S
H1923 C1942 0.951 . S
H1924 C1944 0.950 . S
H1925 C1945 0.950 . S
H1926 C1947 0.950 . S
H1927 C1950 0.950 . S
H1928 C1951 0.950 . S
H1929 C1953 0.950 . S
H1930 C1954 0.950 . S
H1931 C1955 0.951 . S
H1932 C1957 0.951 . S
H1933 C1959 0.950 . S
H1934 C1960 0.950 . S
H1935 C1962 0.950 . S
H1936 C1965 0.950 . S
H1937 C1966 0.950 . S
H1938 C1968 0.950 . S
H1939 C1969 0.923 1_556 S
C1940 H1922 0.951 . S
C1940 C1941 1.366 . S
C1940 C1942 1.388 . S
C1941 C1940 1.366 . S
C1941 C1945 1.385 . S
C1942 H1923 0.951 . S
C1942 C1940 1.388 . S
C1942 C1943 1.366 . S
C1943 C1942 1.366 . S
C1943 C1944 1.414 . S
C1943 C1946 1.499 . S
C1944 H1924 0.950 . S
C1944 C1943 1.414 . S
C1944 C1945 1.374 . S
C1945 H1925 0.950 . S
C1945 C1941 1.385 . S
C1945 C1944 1.374 . S
C1946 C1943 1.499 . S
C1946 C1947 1.373 . S
C1946 C1948 1.389 . S
C1947 H1926 0.950 . S
C1947 C1946 1.373 . S
C1947 C1963 1.377 1_556 S
C1948 C1946 1.389 . S
C1948 C1949 1.524 . S
C1948 C1962 1.377 1_556 S
C1949 C1948 1.524 . S
C1949 C1950 1.397 . S
C1949 C1954 1.363 . S
C1950 H1927 0.950 . S
C1950 C1949 1.397 . S
C1950 C1951 1.334 . S
C1951 H1928 0.950 . S
C1951 C1950 1.334 . S
C1951 C1952 1.287 . S
C1952 C1951 1.287 . S
C1952 C1953 1.524 . S
C1952 H1971 0.913 . S
C1953 H1929 0.950 . S
C1953 C1952 1.524 . S
C1953 C1954 1.415 . S
C1954 H1930 0.950 . S
C1954 C1949 1.363 . S
C1954 C1953 1.415 . S
C1955 H1931 0.951 . S
C1955 C1956 1.366 . S
C1955 C1957 1.388 . S
C1956 C1955 1.366 . S
C1956 C1960 1.385 . S
C1957 H1932 0.951 . S
C1957 C1955 1.388 . S
C1957 C1958 1.366 . S
C1958 C1957 1.366 . S
C1958 C1959 1.414 . S
C1958 C1961 1.499 . S
C1959 H1933 0.950 . S
C1959 C1958 1.414 . S
C1959 C1960 1.374 . S
C1960 H1934 0.950 . S
C1960 C1956 1.385 . S
C1960 C1959 1.374 . S
C1961 C1958 1.499 . S
C1961 C1962 1.373 . S
C1961 C1963 1.389 . S
C1962 H1935 0.950 . S
C1962 C1948 1.377 1_554 S
C1962 C1961 1.373 . S
C1963 C1947 1.377 1_554 S
C1963 C1961 1.389 . S
C1963 C1964 1.524 . S
C1964 C1963 1.524 . S
C1964 C1965 1.397 . S
C1964 C1969 1.363 . S
C1965 H1936 0.950 . S
C1965 C1964 1.397 . S
C1965 C1966 1.334 . S
C1966 H1937 0.950 . S
C1966 C1965 1.334 . S
C1966 C1967 1.287 . S
C1967 C1966 1.287 . S
C1967 C1968 1.524 . S
C1967 H1970 0.999 . S
C1968 H1938 0.950 . S
C1968 C1967 1.524 . S
C1968 C1969 1.415 . S
C1969 H1939 0.923 1_554 S
C1969 C1964 1.363 . S
C1969 C1968 1.415 . S
H1970 C1967 0.999 . S
H1971 C1952 0.913 . S
H1972 C1990 0.951 . S
H1973 C1992 0.951 . S
H1974 C1994 0.950 . S
H1975 C1995 0.950 . S
H1976 C1997 0.950 . S
H1977 C2000 0.950 . S
H1978 C2001 0.950 . S
H1979 C2003 0.950 . S
H1980 C2004 0.950 . S
H1981 C2005 0.951 . S
H1982 C2007 0.951 . S
H1983 C2009 0.950 . S
H1984 C2010 0.950 . S
H1985 C2012 0.950 . S
H1986 C2015 0.950 . S
H1987 C2016 0.950 . S
H1988 C2018 0.950 . S
H1989 C2019 0.950 . S
C1990 H1972 0.951 . S
C1990 C1991 1.366 . S
C1990 C1992 1.388 . S
C1991 C1990 1.366 . S
C1991 C1995 1.385 . S
C1992 H1973 0.951 . S
C1992 C1990 1.388 . S
C1992 C1993 1.366 . S
C1993 C1992 1.366 . S
C1993 C1994 1.414 . S
C1993 C1996 1.499 . S
C1994 H1974 0.950 . S
C1994 C1993 1.414 . S
C1994 C1995 1.374 . S
C1995 H1975 0.950 . S
C1995 C1991 1.385 . S
C1995 C1994 1.374 . S
C1996 C1993 1.499 . S
C1996 C1997 1.373 . S
C1996 C1998 1.389 . S
C1997 H1976 0.950 . S
C1997 C1996 1.373 . S
C1997 C2013 1.377 . S
C1998 C1996 1.389 . S
C1998 C1999 1.524 . S
C1998 C2012 1.377 . S
C1999 C1998 1.524 . S
C1999 C2000 1.397 . S
C1999 C2004 1.363 . S
C2000 H1977 0.950 . S
C2000 C1999 1.397 . S
C2000 C2001 1.334 . S
C2001 H1978 0.950 . S
C2001 C2000 1.334 . S
C2001 C2002 1.287 . S
C2002 C2001 1.287 . S
C2002 C2003 1.524 . S
C2002 H2021 0.913 . S
C2003 H1979 0.950 . S
C2003 C2002 1.524 . S
C2003 C2004 1.415 . S
C2004 H1980 0.950 . S
C2004 C1999 1.363 . S
C2004 C2003 1.415 . S
C2005 H1981 0.951 . S
C2005 C2006 1.366 . S
C2005 C2007 1.388 . S
C2006 C2005 1.366 . S
C2006 C2010 1.385 . S
C2007 H1982 0.951 . S
C2007 C2005 1.388 . S
C2007 C2008 1.366 . S
C2008 C2007 1.366 . S
C2008 C2009 1.414 . S
C2008 C2011 1.499 . S
C2009 H1983 0.950 . S
C2009 C2008 1.414 . S
C2009 C2010 1.374 . S
C2010 H1984 0.950 . S
C2010 C2006 1.385 . S
C2010 C2009 1.374 . S
C2011 C2008 1.499 . S
C2011 C2012 1.373 . S
C2011 C2013 1.389 . S
C2012 H1985 0.950 . S
C2012 C1998 1.377 . S
C2012 C2011 1.373 . S
C2013 C1997 1.377 . S
C2013 C2011 1.389 . S
C2013 C2014 1.524 . S
C2014 C2013 1.524 . S
C2014 C2015 1.397 . S
C2014 C2019 1.363 . S
C2015 H1986 0.950 . S
C2015 C2014 1.397 . S
C2015 C2016 1.334 . S
C2016 H1987 0.950 . S
C2016 C2015 1.334 . S
C2016 C2017 1.287 . S
C2017 C2016 1.287 . S
C2017 C2018 1.524 . S
C2017 H2020 0.999 . S
C2018 H1988 0.950 . S
C2018 C2017 1.524 . S
C2018 C2019 1.415 . S
C2019 H1989 0.950 . S
C2019 C2014 1.363 . S
C2019 C2018 1.415 . S
H2020 C2017 0.999 . S
H2021 C2002 0.913 . S
H2022 C2040 0.951 . S
H2023 C2042 0.951 . S
H2024 C2044 0.950 . S
H2025 C2045 0.950 . S
H2026 C2047 0.952 1_556 S
H2027 C2050 0.950 . S
H2028 C2051 0.950 . S
H2029 C2053 0.950 . S
H2030 C2054 0.946 . S
H2031 C2055 0.951 . S
H2032 C2057 0.951 . S
H2033 C2059 0.950 . S
H2034 C2060 0.950 . S
H2035 C2062 0.950 . S
H2036 C2065 0.950 . S
H2037 C2066 0.950 . S
H2038 C2068 0.950 . S
H2039 C2069 0.950 . S
C2040 H2022 0.951 . S
C2040 C2041 1.366 . S
C2040 C2042 1.388 . S
C2041 C2040 1.366 . S
C2041 C2045 1.385 . S
C2042 H2023 0.951 . S
C2042 C2040 1.388 . S
C2042 C2043 1.366 . S
C2043 C2042 1.366 . S
C2043 C2044 1.414 . S
C2043 C2046 1.499 . S
C2044 H2024 0.950 . S
C2044 C2043 1.414 . S
C2044 C2045 1.374 . S
C2045 H2025 0.950 . S
C2045 C2041 1.385 . S
C2045 C2044 1.374 . S
C2046 C2043 1.499 . S
C2046 C2047 1.373 1_556 S
C2046 C2048 1.389 1_556 S
C2047 H2026 0.952 1_554 S
C2047 C2046 1.373 1_554 S
C2047 C2063 1.377 . S
C2048 C2046 1.389 1_554 S
C2048 C2049 1.524 1_554 S
C2048 C2062 1.377 . S
C2049 C2048 1.524 1_556 S
C2049 C2050 1.397 . S
C2049 C2054 1.364 1_556 S
C2050 H2027 0.950 . S
C2050 C2049 1.397 . S
C2050 C2051 1.334 . S
C2051 H2028 0.950 . S
C2051 C2050 1.334 . S
C2051 C2052 1.287 . S
C2052 C2051 1.287 . S
C2052 C2053 1.524 . S
C2052 H2071 0.913 . S
C2053 H2029 0.950 . S
C2053 C2052 1.524 . S
C2053 C2054 1.418 1_556 S
C2054 H2030 0.946 . S
C2054 C2049 1.364 1_554 S
C2054 C2053 1.418 1_554 S
C2055 H2031 0.951 . S
C2055 C2056 1.366 . S
C2055 C2057 1.388 . S
C2056 C2055 1.366 . S
C2056 C2060 1.385 . S
C2057 H2032 0.951 . S
C2057 C2055 1.388 . S
C2057 C2058 1.366 . S
C2058 C2057 1.366 . S
C2058 C2059 1.414 . S
C2058 C2061 1.499 . S
C2059 H2033 0.950 . S
C2059 C2058 1.414 . S
C2059 C2060 1.374 . S
C2060 H2034 0.950 . S
C2060 C2056 1.385 . S
C2060 C2059 1.374 . S
C2061 C2058 1.499 . S
C2061 C2062 1.373 . S
C2061 C2063 1.389 . S
C2062 H2035 0.950 . S
C2062 C2048 1.377 . S
C2062 C2061 1.373 . S
C2063 C2047 1.377 . S
C2063 C2061 1.389 . S
C2063 C2064 1.524 . S
C2064 C2063 1.524 . S
C2064 C2065 1.397 . S
C2064 C2069 1.363 . S
C2065 H2036 0.950 . S
C2065 C2064 1.397 . S
C2065 C2066 1.334 . S
C2066 H2037 0.950 . S
C2066 C2065 1.334 . S
C2066 C2067 1.287 . S
C2067 C2066 1.287 . S
C2067 C2068 1.524 . S
C2067 H2070 0.999 . S
C2068 H2038 0.950 . S
C2068 C2067 1.524 . S
C2068 C2069 1.415 . S
C2069 H2039 0.950 . S
C2069 C2064 1.363 . S
C2069 C2068 1.415 . S
H2070 C2067 0.999 . S
H2071 C2052 0.913 . S
H2072 C2090 0.951 . S
H2073 C2092 0.951 . S
H2074 C2094 0.950 . S
H2075 C2095 0.950 . S
H2076 C2097 0.950 . S
H2077 C2100 0.950 . S
H2078 C2101 0.950 . S
H2079 C2103 0.950 . S
H2080 C2104 0.950 . S
H2081 C2105 0.951 . S
H2082 C2107 0.951 . S
H2083 C2109 0.950 . S
H2084 C2110 0.950 . S
H2085 C2112 0.950 . S
H2086 C2115 0.950 . S
H2087 C2116 0.950 . S
H2088 C2118 0.950 . S
H2089 C2119 0.950 . S
C2090 H2072 0.951 . S
C2090 C2091 1.366 . S
C2090 C2092 1.388 . S
C2091 C2090 1.366 . S
C2091 C2095 1.385 . S
C2092 H2073 0.951 . S
C2092 C2090 1.388 . S
C2092 C2093 1.366 . S
C2093 C2092 1.366 . S
C2093 C2094 1.414 . S
C2093 C2096 1.499 . S
C2094 H2074 0.950 . S
C2094 C2093 1.414 . S
C2094 C2095 1.374 . S
C2095 H2075 0.950 . S
C2095 C2091 1.385 . S
C2095 C2094 1.374 . S
C2096 C2093 1.499 . S
C2096 C2097 1.373 . S
C2096 C2098 1.389 . S
C2097 H2076 0.950 . S
C2097 C2096 1.373 . S
C2097 C2113 1.377 . S
C2098 C2096 1.389 . S
C2098 C2099 1.524 . S
C2098 C2112 1.377 . S
C2099 C2098 1.524 . S
C2099 C2100 1.397 . S
C2099 C2104 1.363 . S
C2100 H2077 0.950 . S
C2100 C2099 1.397 . S
C2100 C2101 1.334 . S
C2101 H2078 0.950 . S
C2101 C2100 1.334 . S
C2101 C2102 1.287 . S
C2102 C2101 1.287 . S
C2102 C2103 1.524 . S
C2102 H2121 0.913 . S
C2103 H2079 0.950 . S
C2103 C2102 1.524 . S
C2103 C2104 1.415 . S
C2104 H2080 0.950 . S
C2104 C2099 1.363 . S
C2104 C2103 1.415 . S
C2105 H2081 0.951 . S
C2105 C2106 1.366 . S
C2105 C2107 1.388 . S
C2106 C2105 1.366 . S
C2106 C2110 1.385 . S
C2107 H2082 0.951 . S
C2107 C2105 1.388 . S
C2107 C2108 1.366 . S
C2108 C2107 1.366 . S
C2108 C2109 1.414 . S
C2108 C2111 1.499 . S
C2109 H2083 0.950 . S
C2109 C2108 1.414 . S
C2109 C2110 1.374 . S
C2110 H2084 0.950 . S
C2110 C2106 1.385 . S
C2110 C2109 1.374 . S
C2111 C2108 1.499 . S
C2111 C2112 1.373 . S
C2111 C2113 1.389 . S
C2112 H2085 0.950 . S
C2112 C2098 1.377 . S
C2112 C2111 1.373 . S
C2113 C2097 1.377 . S
C2113 C2111 1.389 . S
C2113 C2114 1.524 . S
C2114 C2113 1.524 . S
C2114 C2115 1.397 . S
C2114 C2119 1.363 . S
C2115 H2086 0.950 . S
C2115 C2114 1.397 . S
C2115 C2116 1.334 . S
C2116 H2087 0.950 . S
C2116 C2115 1.334 . S
C2116 C2117 1.287 . S
C2117 C2116 1.287 . S
C2117 C2118 1.524 . S
C2117 H2120 0.999 . S
C2118 H2088 0.950 . S
C2118 C2117 1.524 . S
C2118 C2119 1.415 . S
C2119 H2089 0.950 . S
C2119 C2114 1.363 . S
C2119 C2118 1.415 . S
H2120 C2117 0.999 . S
H2121 C2102 0.913 . S
H2122 C2140 0.951 . S
H2123 C2142 0.951 . S
H2124 C2144 0.950 . S
H2125 C2145 0.950 . S
H2126 C2147 0.950 . S
H2127 C2150 0.950 . S
H2128 C2151 0.950 . S
H2129 C2153 0.950 . S
H2130 C2154 0.950 . S
H2131 C2155 0.951 . S
H2132 C2157 0.951 . S
H2133 C2159 0.950 . S
H2134 C2160 0.950 . S
H2135 C2162 0.950 . S
H2136 C2165 0.950 . S
H2137 C2166 0.950 . S
H2138 C2168 0.950 . S
H2139 C2169 0.950 . S
C2140 H2122 0.951 . S
C2140 C2141 1.366 . S
C2140 C2142 1.388 . S
C2141 C2140 1.366 . S
C2141 C2145 1.385 . S
C2142 H2123 0.951 . S
C2142 C2140 1.388 . S
C2142 C2143 1.366 . S
C2143 C2142 1.366 . S
C2143 C2144 1.414 . S
C2143 C2146 1.499 . S
C2144 H2124 0.950 . S
C2144 C2143 1.414 . S
C2144 C2145 1.374 . S
C2145 H2125 0.950 . S
C2145 C2141 1.385 . S
C2145 C2144 1.374 . S
C2146 C2143 1.499 . S
C2146 C2147 1.373 . S
C2146 C2148 1.389 . S
C2147 H2126 0.950 . S
C2147 C2146 1.373 . S
C2147 C2163 1.377 1_556 S
C2148 C2146 1.389 . S
C2148 C2149 1.524 . S
C2148 C2162 1.377 1_556 S
C2149 C2148 1.524 . S
C2149 C2150 1.397 . S
C2149 C2154 1.363 . S
C2150 H2127 0.950 . S
C2150 C2149 1.397 . S
C2150 C2151 1.334 . S
C2151 H2128 0.950 . S
C2151 C2150 1.334 . S
C2151 C2152 1.287 . S
C2152 C2151 1.287 . S
C2152 C2153 1.524 . S
C2152 H2171 0.913 . S
C2153 H2129 0.950 . S
C2153 C2152 1.524 . S
C2153 C2154 1.415 . S
C2154 H2130 0.950 . S
C2154 C2149 1.363 . S
C2154 C2153 1.415 . S
C2155 H2131 0.951 . S
C2155 C2156 1.366 . S
C2155 C2157 1.388 . S
C2156 C2155 1.366 . S
C2156 C2160 1.385 . S
C2157 H2132 0.951 . S
C2157 C2155 1.388 . S
C2157 C2158 1.366 . S
C2158 C2157 1.366 . S
C2158 C2159 1.414 . S
C2158 C2161 1.499 . S
C2159 H2133 0.950 . S
C2159 C2158 1.414 . S
C2159 C2160 1.374 . S
C2160 H2134 0.950 . S
C2160 C2156 1.385 . S
C2160 C2159 1.374 . S
C2161 C2158 1.499 . S
C2161 C2162 1.373 . S
C2161 C2163 1.389 . S
C2162 H2135 0.950 . S
C2162 C2148 1.377 1_554 S
C2162 C2161 1.373 . S
C2163 C2147 1.377 1_554 S
C2163 C2161 1.389 . S
C2163 C2164 1.524 . S
C2164 C2163 1.524 . S
C2164 C2165 1.397 . S
C2164 C2169 1.363 . S
C2165 H2136 0.950 . S
C2165 C2164 1.397 . S
C2165 C2166 1.334 . S
C2166 H2137 0.950 . S
C2166 C2165 1.334 . S
C2166 C2167 1.287 . S
C2167 C2166 1.287 . S
C2167 C2168 1.524 . S
C2167 H2170 0.999 . S
C2168 H2138 0.950 . S
C2168 C2167 1.524 . S
C2168 C2169 1.415 . S
C2169 H2139 0.950 . S
C2169 C2164 1.363 . S
C2169 C2168 1.415 . S
H2170 C2167 0.999 . S
H2171 C2152 0.913 . S
H2172 C2190 0.951 . S
H2173 C2192 0.951 . S
H2174 C2194 0.950 . S
H2175 C2195 0.950 . S
H2176 C2197 0.950 . S
H2177 C2200 0.950 . S
H2178 C2201 0.950 . S
H2179 C2203 0.950 . S
H2180 C2204 0.950 . S
H2181 C2205 0.951 . S
H2182 C2207 0.951 . S
H2183 C2209 0.950 . S
H2184 C2210 0.950 . S
H2185 C2212 0.950 . S
H2186 C2215 0.950 . S
H2187 C2216 0.950 . S
H2188 C2218 0.950 . S
H2189 C2219 0.950 . S
C2190 H2172 0.951 . S
C2190 C2191 1.366 . S
C2190 C2192 1.388 . S
C2191 C2190 1.366 . S
C2191 C2195 1.385 . S
C2192 H2173 0.951 . S
C2192 C2190 1.388 . S
C2192 C2193 1.366 . S
C2193 C2192 1.366 . S
C2193 C2194 1.414 . S
C2193 C2196 1.499 . S
C2194 H2174 0.950 . S
C2194 C2193 1.414 . S
C2194 C2195 1.374 . S
C2195 H2175 0.950 . S
C2195 C2191 1.385 . S
C2195 C2194 1.374 . S
C2196 C2193 1.499 . S
C2196 C2197 1.373 . S
C2196 C2198 1.389 . S
C2197 H2176 0.950 . S
C2197 C2196 1.373 . S
C2197 C2213 1.377 . S
C2198 C2196 1.389 . S
C2198 C2199 1.524 . S
C2198 C2212 1.377 . S
C2199 C2198 1.524 . S
C2199 C2200 1.397 . S
C2199 C2204 1.363 . S
C2200 H2177 0.950 . S
C2200 C2199 1.397 . S
C2200 C2201 1.334 . S
C2201 H2178 0.950 . S
C2201 C2200 1.334 . S
C2201 C2202 1.287 . S
C2202 C2201 1.287 . S
C2202 C2203 1.524 . S
C2202 H2221 0.913 . S
C2203 H2179 0.950 . S
C2203 C2202 1.524 . S
C2203 C2204 1.415 . S
C2204 H2180 0.950 . S
C2204 C2199 1.363 . S
C2204 C2203 1.415 . S
C2205 H2181 0.951 . S
C2205 C2206 1.366 . S
C2205 C2207 1.388 . S
C2206 C2205 1.366 . S
C2206 C2210 1.385 . S
C2207 H2182 0.951 . S
C2207 C2205 1.388 . S
C2207 C2208 1.366 . S
C2208 C2207 1.366 . S
C2208 C2209 1.414 . S
C2208 C2211 1.499 . S
C2209 H2183 0.950 . S
C2209 C2208 1.414 . S
C2209 C2210 1.374 . S
C2210 H2184 0.950 . S
C2210 C2206 1.385 . S
C2210 C2209 1.374 . S
C2211 C2208 1.499 . S
C2211 C2212 1.373 . S
C2211 C2213 1.389 . S
C2212 H2185 0.950 . S
C2212 C2198 1.377 . S
C2212 C2211 1.373 . S
C2213 C2197 1.377 . S
C2213 C2211 1.389 . S
C2213 C2214 1.524 . S
C2214 C2213 1.524 . S
C2214 C2215 1.397 . S
C2214 C2219 1.363 . S
C2215 H2186 0.950 . S
C2215 C2214 1.397 . S
C2215 C2216 1.334 . S
C2216 H2187 0.950 . S
C2216 C2215 1.334 . S
C2216 C2217 1.287 . S
C2217 C2216 1.287 . S
C2217 C2218 1.524 . S
C2217 H2220 0.999 . S
C2218 H2188 0.950 . S
C2218 C2217 1.524 . S
C2218 C2219 1.415 . S
C2219 H2189 0.950 . S
C2219 C2214 1.363 . S
C2219 C2218 1.415 . S
H2220 C2217 0.999 . S
H2221 C2202 0.913 . S
H2222 C2240 0.951 . S
H2223 C2242 0.951 . S
H2224 C2244 0.950 . S
H2225 C2245 0.950 . S
H2226 C2247 0.950 . S
H2227 C2250 0.950 . S
H2228 C2251 0.950 . S
H2229 C2253 0.950 . S
H2230 C2254 0.950 . S
H2231 C2255 0.951 . S
H2232 C2257 0.951 . S
H2233 C2259 0.950 . S
H2234 C2260 0.950 . S
H2235 C2262 0.959 . S
H2236 C2265 0.950 . S
H2237 C2266 0.950 . S
H2238 C2268 0.950 . S
H2239 C2269 0.950 . S
C2240 H2222 0.951 . S
C2240 C2241 1.366 . S
C2240 C2242 1.388 . S
C2241 C2240 1.366 . S
C2241 C2245 1.385 . S
C2242 H2223 0.951 . S
C2242 C2240 1.388 . S
C2242 C2243 1.366 . S
C2243 C2242 1.366 . S
C2243 C2244 1.414 . S
C2243 C2246 1.499 . S
C2244 H2224 0.950 . S
C2244 C2243 1.414 . S
C2244 C2245 1.374 . S
C2245 H2225 0.950 . S
C2245 C2241 1.385 . S
C2245 C2244 1.374 . S
C2246 C2243 1.499 . S
C2246 C2247 1.373 . S
C2246 C2248 1.389 . S
C2247 H2226 0.950 . S
C2247 C2246 1.373 . S
C2247 C2263 1.377 . S
C2248 C2246 1.389 . S
C2248 C2249 1.524 . S
C2248 C2262 1.377 . S
C2249 C2248 1.524 . S
C2249 C2250 1.397 . S
C2249 C2254 1.363 . S
C2250 H2227 0.950 . S
C2250 C2249 1.397 . S
C2250 C2251 1.334 . S
C2251 H2228 0.950 . S
C2251 C2250 1.334 . S
C2251 C2252 1.287 . S
C2252 C2251 1.287 . S
C2252 C2253 1.524 . S
C2252 H2271 0.913 . S
C2253 H2229 0.950 . S
C2253 C2252 1.524 . S
C2253 C2254 1.415 . S
C2254 H2230 0.950 . S
C2254 C2249 1.363 . S
C2254 C2253 1.415 . S
C2255 H2231 0.951 . S
C2255 C2256 1.366 . S
C2255 C2257 1.388 . S
C2256 C2255 1.366 . S
C2256 C2260 1.385 . S
C2257 H2232 0.951 . S
C2257 C2255 1.388 . S
C2257 C2258 1.366 . S
C2258 C2257 1.366 . S
C2258 C2259 1.414 . S
C2258 C2261 1.499 . S
C2259 H2233 0.950 . S
C2259 C2258 1.414 . S
C2259 C2260 1.374 . S
C2260 H2234 0.950 . S
C2260 C2256 1.385 . S
C2260 C2259 1.374 . S
C2261 C2258 1.499 . S
C2261 C2262 1.373 1_554 S
C2261 C2263 1.389 1_554 S
C2262 H2235 0.959 . S
C2262 C2248 1.377 . S
C2262 C2261 1.373 1_556 S
C2263 C2247 1.377 . S
C2263 C2261 1.389 1_556 S
C2263 C2264 1.524 1_556 S
C2264 C2263 1.524 1_554 S
C2264 C2265 1.397 . S
C2264 C2269 1.363 1_554 S
C2265 H2236 0.950 . S
C2265 C2264 1.397 . S
C2265 C2266 1.334 . S
C2266 H2237 0.950 . S
C2266 C2265 1.334 . S
C2266 C2267 1.287 . S
C2267 C2266 1.287 . S
C2267 C2268 1.524 . S
C2267 H2270 0.999 . S
C2268 H2238 0.950 . S
C2268 C2267 1.524 . S
C2268 C2269 1.415 1_554 S
C2269 H2239 0.950 . S
C2269 C2264 1.363 1_556 S
C2269 C2268 1.415 1_556 S
H2270 C2267 0.999 . S
H2271 C2252 0.913 . S
H2272 C2290 0.951 . S
H2273 C2292 0.951 . S
H2274 C2294 0.950 . S
H2275 C2295 0.950 . S
H2276 C2297 0.950 . S
H2277 C2300 0.950 . S
H2278 C2301 0.950 . S
H2279 C2303 0.950 . S
H2280 C2304 0.950 . S
H2281 C2305 0.951 . S
H2282 C2307 0.951 . S
H2283 C2309 0.950 . S
H2284 C2310 0.950 . S
H2285 C2312 0.950 . S
H2286 C2315 0.950 . S
H2287 C2316 0.950 . S
H2288 C2318 0.950 . S
H2289 C2319 0.950 . S
C2290 H2272 0.951 . S
C2290 C2291 1.366 . S
C2290 C2292 1.388 . S
C2291 C2290 1.366 . S
C2291 C2295 1.385 . S
C2292 H2273 0.951 . S
C2292 C2290 1.388 . S
C2292 C2293 1.366 . S
C2293 C2292 1.366 . S
C2293 C2294 1.414 . S
C2293 C2296 1.499 . S
C2294 H2274 0.950 . S
C2294 C2293 1.414 . S
C2294 C2295 1.374 . S
C2295 H2275 0.950 . S
C2295 C2291 1.385 . S
C2295 C2294 1.374 . S
C2296 C2293 1.499 . S
C2296 C2297 1.373 . S
C2296 C2298 1.389 . S
C2297 H2276 0.950 . S
C2297 C2296 1.373 . S
C2297 C2313 1.377 . S
C2298 C2296 1.389 . S
C2298 C2299 1.524 . S
C2298 C2312 1.377 . S
C2299 C2298 1.524 . S
C2299 C2300 1.397 . S
C2299 C2304 1.363 . S
C2300 H2277 0.950 . S
C2300 C2299 1.397 . S
C2300 C2301 1.334 . S
C2301 H2278 0.950 . S
C2301 C2300 1.334 . S
C2301 C2302 1.287 . S
C2302 C2301 1.287 . S
C2302 C2303 1.524 . S
C2302 H2321 0.913 . S
C2303 H2279 0.950 . S
C2303 C2302 1.524 . S
C2303 C2304 1.415 . S
C2304 H2280 0.950 . S
C2304 C2299 1.363 . S
C2304 C2303 1.415 . S
C2305 H2281 0.951 . S
C2305 C2306 1.366 . S
C2305 C2307 1.388 . S
C2306 C2305 1.366 . S
C2306 C2310 1.385 . S
C2307 H2282 0.951 . S
C2307 C2305 1.388 . S
C2307 C2308 1.366 . S
C2308 C2307 1.366 . S
C2308 C2309 1.414 . S
C2308 C2311 1.499 . S
C2309 H2283 0.950 . S
C2309 C2308 1.414 . S
C2309 C2310 1.374 . S
C2310 H2284 0.950 . S
C2310 C2306 1.385 . S
C2310 C2309 1.374 . S
C2311 C2308 1.499 . S
C2311 C2312 1.373 . S
C2311 C2313 1.389 . S
C2312 H2285 0.950 . S
C2312 C2298 1.377 . S
C2312 C2311 1.373 . S
C2313 C2297 1.377 . S
C2313 C2311 1.389 . S
C2313 C2314 1.524 . S
C2314 C2313 1.524 . S
C2314 C2315 1.397 . S
C2314 C2319 1.363 . S
C2315 H2286 0.950 . S
C2315 C2314 1.397 . S
C2315 C2316 1.334 . S
C2316 H2287 0.950 . S
C2316 C2315 1.334 . S
C2316 C2317 1.287 . S
C2317 C2316 1.287 . S
C2317 C2318 1.524 . S
C2317 H2320 0.999 . S
C2318 H2288 0.950 . S
C2318 C2317 1.524 . S
C2318 C2319 1.415 . S
C2319 H2289 0.950 . S
C2319 C2314 1.363 . S
C2319 C2318 1.415 . S
H2320 C2317 0.999 . S
H2321 C2302 0.913 . S
H2322 C2340 0.951 . S
H2323 C2342 0.951 . S
H2324 C2344 0.950 . S
H2325 C2345 0.950 . S
H2326 C2347 0.950 . S
H2327 C2350 0.950 . S
H2328 C2351 0.950 . S
H2329 C2353 0.950 . S
H2330 C2354 0.950 . S
H2331 C2355 0.951 . S
H2332 C2357 0.951 . S
H2333 C2359 0.950 . S
H2334 C2360 0.950 . S
H2335 C2362 0.950 . S
H2336 C2365 0.950 . S
H2337 C2366 0.950 . S
H2338 C2368 0.950 . S
H2339 C2369 0.950 . S
C2340 H2322 0.951 . S
C2340 C2341 1.366 . S
C2340 C2342 1.388 . S
C2341 C2340 1.366 . S
C2341 C2345 1.385 . S
C2342 H2323 0.951 . S
C2342 C2340 1.388 . S
C2342 C2343 1.366 . S
C2343 C2342 1.366 . S
C2343 C2344 1.414 . S
C2343 C2346 1.499 . S
C2344 H2324 0.950 . S
C2344 C2343 1.414 . S
C2344 C2345 1.374 . S
C2345 H2325 0.950 . S
C2345 C2341 1.385 . S
C2345 C2344 1.374 . S
C2346 C2343 1.499 . S
C2346 C2347 1.373 . S
C2346 C2348 1.389 . S
C2347 H2326 0.950 . S
C2347 C2346 1.373 . S
C2347 C2363 1.377 1_565 S
C2348 C2346 1.389 . S
C2348 C2349 1.524 . S
C2348 C2362 1.377 1_565 S
C2349 C2348 1.524 . S
C2349 C2350 1.397 . S
C2349 C2354 1.363 . S
C2350 H2327 0.950 . S
C2350 C2349 1.397 . S
C2350 C2351 1.334 . S
C2351 H2328 0.950 . S
C2351 C2350 1.334 . S
C2351 C2352 1.287 . S
C2352 C2351 1.287 . S
C2352 C2353 1.524 . S
C2352 H2371 0.913 . S
C2353 H2329 0.950 . S
C2353 C2352 1.524 . S
C2353 C2354 1.415 . S
C2354 H2330 0.950 . S
C2354 C2349 1.363 . S
C2354 C2353 1.415 . S
C2355 H2331 0.951 . S
C2355 C2356 1.366 . S
C2355 C2357 1.388 . S
C2356 C2355 1.366 . S
C2356 C2360 1.385 . S
C2357 H2332 0.951 . S
C2357 C2355 1.388 . S
C2357 C2358 1.366 . S
C2358 C2357 1.366 . S
C2358 C2359 1.414 . S
C2358 C2361 1.499 . S
C2359 H2333 0.950 . S
C2359 C2358 1.414 . S
C2359 C2360 1.374 . S
C2360 H2334 0.950 . S
C2360 C2356 1.385 . S
C2360 C2359 1.374 . S
C2361 C2358 1.499 . S
C2361 C2362 1.373 . S
C2361 C2363 1.389 . S
C2362 H2335 0.950 . S
C2362 C2348 1.377 1_545 S
C2362 C2361 1.373 . S
C2363 C2347 1.377 1_545 S
C2363 C2361 1.389 . S
C2363 C2364 1.524 . S
C2364 C2363 1.524 . S
C2364 C2365 1.397 . S
C2364 C2369 1.363 . S
C2365 H2336 0.950 . S
C2365 C2364 1.397 . S
C2365 C2366 1.334 . S
C2366 H2337 0.950 . S
C2366 C2365 1.334 . S
C2366 C2367 1.287 . S
C2367 C2366 1.287 . S
C2367 C2368 1.524 . S
C2367 H2370 0.999 . S
C2368 H2338 0.950 . S
C2368 C2367 1.524 . S
C2368 C2369 1.415 . S
C2369 H2339 0.950 . S
C2369 C2364 1.363 . S
C2369 C2368 1.415 . S
H2370 C2367 0.999 . S
H2371 C2352 0.913 . S
H2372 C2390 0.951 . S
H2373 C2392 0.951 . S
H2374 C2394 0.950 . S
H2375 C2395 0.950 . S
H2376 C2397 0.950 . S
H2377 C2400 0.950 . S
H2378 C2401 0.950 . S
H2379 C2403 0.950 . S
H2380 C2404 0.950 . S
H2381 C2405 0.951 . S
H2382 C2407 0.951 . S
H2383 C2409 0.950 . S
H2384 C2410 0.950 . S
H2385 C2412 0.950 . S
H2386 C2415 0.950 . S
H2387 C2416 0.950 . S
H2388 C2418 0.950 . S
H2389 C2419 0.950 . S
C2390 H2372 0.951 . S
C2390 C2391 1.366 . S
C2390 C2392 1.388 . S
C2391 C2390 1.366 . S
C2391 C2395 1.385 . S
C2392 H2373 0.951 . S
C2392 C2390 1.388 . S
C2392 C2393 1.366 . S
C2393 C2392 1.366 . S
C2393 C2394 1.414 . S
C2393 C2396 1.499 . S
C2394 H2374 0.950 . S
C2394 C2393 1.414 . S
C2394 C2395 1.374 . S
C2395 H2375 0.950 . S
C2395 C2391 1.385 . S
C2395 C2394 1.374 . S
C2396 C2393 1.499 . S
C2396 C2397 1.373 . S
C2396 C2398 1.389 . S
C2397 H2376 0.950 . S
C2397 C2396 1.373 . S
C2397 C2413 1.377 . S
C2398 C2396 1.389 . S
C2398 C2399 1.524 . S
C2398 C2412 1.377 . S
C2399 C2398 1.524 . S
C2399 C2400 1.397 . S
C2399 C2404 1.363 . S
C2400 H2377 0.950 . S
C2400 C2399 1.397 . S
C2400 C2401 1.334 . S
C2401 H2378 0.950 . S
C2401 C2400 1.334 . S
C2401 C2402 1.287 . S
C2402 C2401 1.287 . S
C2402 C2403 1.524 . S
C2402 H2421 0.913 . S
C2403 H2379 0.950 . S
C2403 C2402 1.524 . S
C2403 C2404 1.415 . S
C2404 H2380 0.950 . S
C2404 C2399 1.363 . S
C2404 C2403 1.415 . S
C2405 H2381 0.951 . S
C2405 C2406 1.366 . S
C2405 C2407 1.388 . S
C2406 C2405 1.366 . S
C2406 C2410 1.385 . S
C2407 H2382 0.951 . S
C2407 C2405 1.388 . S
C2407 C2408 1.366 . S
C2408 C2407 1.366 . S
C2408 C2409 1.414 . S
C2408 C2411 1.499 . S
C2409 H2383 0.950 . S
C2409 C2408 1.414 . S
C2409 C2410 1.374 . S
C2410 H2384 0.950 . S
C2410 C2406 1.385 . S
C2410 C2409 1.374 . S
C2411 C2408 1.499 . S
C2411 C2412 1.373 . S
C2411 C2413 1.389 . S
C2412 H2385 0.950 . S
C2412 C2398 1.377 . S
C2412 C2411 1.373 . S
C2413 C2397 1.377 . S
C2413 C2411 1.389 . S
C2413 C2414 1.524 . S
C2414 C2413 1.524 . S
C2414 C2415 1.397 . S
C2414 C2419 1.363 . S
C2415 H2386 0.950 . S
C2415 C2414 1.397 . S
C2415 C2416 1.334 . S
C2416 H2387 0.950 . S
C2416 C2415 1.334 . S
C2416 C2417 1.287 . S
C2417 C2416 1.287 . S
C2417 C2418 1.524 . S
C2417 H2420 0.999 . S
C2418 H2388 0.950 . S
C2418 C2417 1.524 . S
C2418 C2419 1.415 . S
C2419 H2389 0.950 . S
C2419 C2414 1.363 . S
C2419 C2418 1.415 . S
H2420 C2417 0.999 . S
H2421 C2402 0.913 . S
H2422 C2440 0.951 . S
H2423 C2442 0.951 . S
H2424 C2444 0.950 . S
H2425 C2445 0.950 . S
H2426 C2447 0.950 . S
H2427 C2450 0.950 . S
H2428 C2451 0.950 . S
H2429 C2453 0.950 . S
H2430 C2454 0.950 . S
H2431 C2455 0.951 . S
H2432 C2457 0.951 . S
H2433 C2459 0.950 . S
H2434 C2460 0.950 . S
H2435 C2462 0.950 . S
H2436 C2465 0.950 . S
H2437 C2466 0.950 . S
H2438 C2468 0.950 . S
H2439 C2469 0.950 . S
C2440 H2422 0.951 . S
C2440 C2441 1.366 . S
C2440 C2442 1.388 . S
C2441 C2440 1.366 . S
C2441 C2445 1.385 . S
C2442 H2423 0.951 . S
C2442 C2440 1.388 . S
C2442 C2443 1.366 . S
C2443 C2442 1.366 . S
C2443 C2444 1.414 . S
C2443 C2446 1.499 . S
C2444 H2424 0.950 . S
C2444 C2443 1.414 . S
C2444 C2445 1.374 . S
C2445 H2425 0.950 . S
C2445 C2441 1.385 . S
C2445 C2444 1.374 . S
C2446 C2443 1.499 . S
C2446 C2447 1.373 . S
C2446 C2448 1.389 . S
C2447 H2426 0.950 . S
C2447 C2446 1.373 . S
C2447 C2463 1.377 1_545 S
C2448 C2446 1.389 . S
C2448 C2449 1.524 . S
C2448 C2462 1.377 1_545 S
C2449 C2448 1.524 . S
C2449 C2450 1.397 . S
C2449 C2454 1.363 . S
C2450 H2427 0.950 . S
C2450 C2449 1.397 . S
C2450 C2451 1.334 . S
C2451 H2428 0.950 . S
C2451 C2450 1.334 . S
C2451 C2452 1.287 . S
C2452 C2451 1.287 . S
C2452 C2453 1.524 . S
C2452 H2471 0.913 . S
C2453 H2429 0.950 . S
C2453 C2452 1.524 . S
C2453 C2454 1.415 . S
C2454 H2430 0.950 . S
C2454 C2449 1.363 . S
C2454 C2453 1.415 . S
C2455 H2431 0.951 . S
C2455 C2456 1.366 . S
C2455 C2457 1.388 . S
C2456 C2455 1.366 . S
C2456 C2460 1.385 . S
C2457 H2432 0.951 . S
C2457 C2455 1.388 . S
C2457 C2458 1.366 . S
C2458 C2457 1.366 . S
C2458 C2459 1.414 . S
C2458 C2461 1.499 . S
C2459 H2433 0.950 . S
C2459 C2458 1.414 . S
C2459 C2460 1.374 . S
C2460 H2434 0.950 . S
C2460 C2456 1.385 . S
C2460 C2459 1.374 . S
C2461 C2458 1.499 . S
C2461 C2462 1.373 . S
C2461 C2463 1.389 . S
C2462 H2435 0.950 . S
C2462 C2448 1.377 1_565 S
C2462 C2461 1.373 . S
C2463 C2447 1.377 1_565 S
C2463 C2461 1.389 . S
C2463 C2464 1.524 . S
C2464 C2463 1.524 . S
C2464 C2465 1.397 . S
C2464 C2469 1.363 . S
C2465 H2436 0.950 . S
C2465 C2464 1.397 . S
C2465 C2466 1.334 . S
C2466 H2437 0.950 . S
C2466 C2465 1.334 . S
C2466 C2467 1.287 . S
C2467 C2466 1.287 . S
C2467 C2468 1.524 . S
C2467 H2470 0.999 . S
C2468 H2438 0.950 . S
C2468 C2467 1.524 . S
C2468 C2469 1.415 . S
C2469 H2439 0.950 . S
C2469 C2464 1.363 . S
C2469 C2468 1.415 . S
H2470 C2467 0.999 . S
H2471 C2452 0.913 . S
H2472 C2490 0.951 . S
H2473 C2492 0.951 . S
H2474 C2494 0.950 . S
H2475 C2495 0.950 . S
H2476 C2497 0.950 . S
H2477 C2500 0.950 . S
H2478 C2501 0.950 . S
H2479 C2503 0.950 . S
H2480 C2504 0.950 . S
H2481 C2505 0.951 . S
H2482 C2507 0.951 . S
H2483 C2509 0.950 . S
H2484 C2510 0.950 . S
H2485 C2512 0.950 . S
H2486 C2515 0.950 . S
H2487 C2516 0.950 . S
H2488 C2518 0.950 . S
H2489 C2519 0.950 . S
C2490 H2472 0.951 . S
C2490 C2491 1.366 . S
C2490 C2492 1.388 . S
C2491 C2490 1.366 . S
C2491 C2495 1.385 . S
C2492 H2473 0.951 . S
C2492 C2490 1.388 . S
C2492 C2493 1.366 . S
C2493 C2492 1.366 . S
C2493 C2494 1.414 . S
C2493 C2496 1.499 . S
C2494 H2474 0.950 . S
C2494 C2493 1.414 . S
C2494 C2495 1.374 . S
C2495 H2475 0.950 . S
C2495 C2491 1.385 . S
C2495 C2494 1.374 . S
C2496 C2493 1.499 . S
C2496 C2497 1.373 . S
C2496 C2498 1.389 . S
C2497 H2476 0.950 . S
C2497 C2496 1.373 . S
C2497 C2513 1.377 . S
C2498 C2496 1.389 . S
C2498 C2499 1.524 . S
C2498 C2512 1.377 . S
C2499 C2498 1.524 . S
C2499 C2500 1.397 . S
C2499 C2504 1.363 . S
C2500 H2477 0.950 . S
C2500 C2499 1.397 . S
C2500 C2501 1.334 . S
C2501 H2478 0.950 . S
C2501 C2500 1.334 . S
C2501 C2502 1.287 . S
C2502 C2501 1.287 . S
C2502 C2503 1.524 . S
C2502 H2521 0.913 . S
C2503 H2479 0.950 . S
C2503 C2502 1.524 . S
C2503 C2504 1.415 . S
C2504 H2480 0.950 . S
C2504 C2499 1.363 . S
C2504 C2503 1.415 . S
C2505 H2481 0.951 . S
C2505 C2506 1.366 . S
C2505 C2507 1.388 . S
C2506 C2505 1.366 . S
C2506 C2510 1.385 . S
C2507 H2482 0.951 . S
C2507 C2505 1.388 . S
C2507 C2508 1.366 . S
C2508 C2507 1.366 . S
C2508 C2509 1.414 . S
C2508 C2511 1.499 . S
C2509 H2483 0.950 . S
C2509 C2508 1.414 . S
C2509 C2510 1.374 . S
C2510 H2484 0.950 . S
C2510 C2506 1.385 . S
C2510 C2509 1.374 . S
C2511 C2508 1.499 . S
C2511 C2512 1.373 . S
C2511 C2513 1.389 . S
C2512 H2485 0.950 . S
C2512 C2498 1.377 . S
C2512 C2511 1.373 . S
C2513 C2497 1.377 . S
C2513 C2511 1.389 . S
C2513 C2514 1.524 . S
C2514 C2513 1.524 . S
C2514 C2515 1.397 . S
C2514 C2519 1.363 . S
C2515 H2486 0.950 . S
C2515 C2514 1.397 . S
C2515 C2516 1.334 . S
C2516 H2487 0.950 . S
C2516 C2515 1.334 . S
C2516 C2517 1.287 . S
C2517 C2516 1.287 . S
C2517 C2518 1.524 . S
C2517 H2520 0.999 . S
C2518 H2488 0.950 . S
C2518 C2517 1.524 . S
C2518 C2519 1.415 . S
C2519 H2489 0.950 . S
C2519 C2514 1.363 . S
C2519 C2518 1.415 . S
H2520 C2517 0.999 . S
H2521 C2502 0.913 . S
H2522 C2540 0.951 . S
H2523 C2542 0.951 . S
H2524 C2544 0.950 . S
H2525 C2545 0.950 . S
H2526 C2547 0.950 1_565 S
H2527 C2550 0.950 . S
H2528 C2551 0.950 . S
H2529 C2553 0.950 . S
H2530 C2554 0.950 . S
H2531 C2555 0.951 . S
H2532 C2557 0.951 . S
H2533 C2559 0.950 . S
H2534 C2560 0.950 . S
H2535 C2562 0.950 . S
H2536 C2565 0.950 . S
H2537 C2566 0.950 . S
H2538 C2568 0.950 . S
H2539 C2569 0.950 . S
C2540 H2522 0.951 . S
C2540 C2541 1.366 . S
C2540 C2542 1.388 . S
C2541 C2540 1.366 . S
C2541 C2545 1.385 . S
C2542 H2523 0.951 . S
C2542 C2540 1.388 . S
C2542 C2543 1.366 . S
C2543 C2542 1.366 . S
C2543 C2544 1.414 . S
C2543 C2546 1.499 . S
C2544 H2524 0.950 . S
C2544 C2543 1.414 . S
C2544 C2545 1.374 . S
C2545 H2525 0.950 . S
C2545 C2541 1.385 . S
C2545 C2544 1.374 . S
C2546 C2543 1.499 . S
C2546 C2547 1.373 1_565 S
C2546 C2548 1.389 1_565 S
C2547 H2526 0.950 1_545 S
C2547 C2546 1.373 1_545 S
C2547 C2563 1.377 . S
C2548 C2546 1.389 1_545 S
C2548 C2549 1.500 1_545 S
C2548 C2562 1.377 . S
C2549 C2548 1.500 1_565 S
C2549 C2550 1.436 . S
C2549 C2554 1.347 1_565 S
C2550 H2527 0.950 . S
C2550 C2549 1.436 . S
C2550 C2551 1.334 . S
C2551 H2528 0.950 . S
C2551 C2550 1.334 . S
C2551 C2552 1.287 . S
C2552 C2551 1.287 . S
C2552 C2553 1.524 . S
C2552 H2571 0.913 . S
C2553 H2529 0.950 . S
C2553 C2552 1.524 . S
C2553 C2554 1.415 1_565 S
C2554 H2530 0.950 . S
C2554 C2549 1.347 1_545 S
C2554 C2553 1.415 1_545 S
C2555 H2531 0.951 . S
C2555 C2556 1.366 . S
C2555 C2557 1.388 . S
C2556 C2555 1.366 . S
C2556 C2560 1.385 . S
C2557 H2532 0.951 . S
C2557 C2555 1.388 . S
C2557 C2558 1.366 . S
C2558 C2557 1.366 . S
C2558 C2559 1.414 . S
C2558 C2561 1.499 . S
C2559 H2533 0.950 . S
C2559 C2558 1.414 . S
C2559 C2560 1.374 . S
C2560 H2534 0.950 . S
C2560 C2556 1.385 . S
C2560 C2559 1.374 . S
C2561 C2558 1.499 . S
C2561 C2562 1.373 . S
C2561 C2563 1.389 . S
C2562 H2535 0.950 . S
C2562 C2548 1.377 . S
C2562 C2561 1.373 . S
C2563 C2547 1.377 . S
C2563 C2561 1.389 . S
C2563 C2564 1.524 . S
C2564 C2563 1.524 . S
C2564 C2565 1.397 . S
C2564 C2569 1.363 . S
C2565 H2536 0.950 . S
C2565 C2564 1.397 . S
C2565 C2566 1.334 . S
C2566 H2537 0.950 . S
C2566 C2565 1.334 . S
C2566 C2567 1.287 . S
C2567 C2566 1.287 . S
C2567 C2568 1.524 . S
C2567 H2570 0.999 . S
C2568 H2538 0.950 . S
C2568 C2567 1.524 . S
C2568 C2569 1.415 . S
C2569 H2539 0.950 . S
C2569 C2564 1.363 . S
C2569 C2568 1.415 . S
H2570 C2567 0.999 . S
H2571 C2552 0.913 . S
H2572 C2590 0.951 . S
H2573 C2592 0.951 . S
H2574 C2594 0.950 . S
H2575 C2595 0.950 . S
H2576 C2597 0.950 . S
H2577 C2600 0.950 . S
H2578 C2601 0.950 . S
H2579 C2603 0.950 . S
H2580 C2604 0.950 . S
H2581 C2605 0.951 . S
H2582 C2607 0.951 . S
H2583 C2609 0.950 . S
H2584 C2610 0.950 . S
H2585 C2612 0.950 . S
H2586 C2615 0.950 . S
H2587 C2616 0.950 . S
H2588 C2618 0.950 . S
H2589 C2619 0.950 . S
C2590 H2572 0.951 . S
C2590 C2591 1.366 . S
C2590 C2592 1.388 . S
C2591 C2590 1.366 . S
C2591 C2595 1.385 . S
C2592 H2573 0.951 . S
C2592 C2590 1.388 . S
C2592 C2593 1.366 . S
C2593 C2592 1.366 . S
C2593 C2594 1.414 . S
C2593 C2596 1.499 . S
C2594 H2574 0.950 . S
C2594 C2593 1.414 . S
C2594 C2595 1.374 . S
C2595 H2575 0.950 . S
C2595 C2591 1.385 . S
C2595 C2594 1.374 . S
C2596 C2593 1.499 . S
C2596 C2597 1.373 . S
C2596 C2598 1.389 . S
C2597 H2576 0.950 . S
C2597 C2596 1.373 . S
C2597 C2613 1.377 . S
C2598 C2596 1.389 . S
C2598 C2599 1.524 . S
C2598 C2612 1.377 . S
C2599 C2598 1.524 . S
C2599 C2600 1.397 . S
C2599 C2604 1.363 . S
C2600 H2577 0.950 . S
C2600 C2599 1.397 . S
C2600 C2601 1.334 . S
C2601 H2578 0.950 . S
C2601 C2600 1.334 . S
C2601 C2602 1.287 . S
C2602 C2601 1.287 . S
C2602 C2603 1.524 . S
C2602 H2621 0.913 . S
C2603 H2579 0.950 . S
C2603 C2602 1.524 . S
C2603 C2604 1.415 . S
C2604 H2580 0.950 . S
C2604 C2599 1.363 . S
C2604 C2603 1.415 . S
C2605 H2581 0.951 . S
C2605 C2606 1.366 . S
C2605 C2607 1.388 . S
C2606 C2605 1.366 . S
C2606 C2610 1.385 . S
C2607 H2582 0.951 . S
C2607 C2605 1.388 . S
C2607 C2608 1.366 . S
C2608 C2607 1.366 . S
C2608 C2609 1.414 . S
C2608 C2611 1.499 . S
C2609 H2583 0.950 . S
C2609 C2608 1.414 . S
C2609 C2610 1.374 . S
C2610 H2584 0.950 . S
C2610 C2606 1.385 . S
C2610 C2609 1.374 . S
C2611 C2608 1.499 . S
C2611 C2612 1.373 . S
C2611 C2613 1.389 . S
C2612 H2585 0.950 . S
C2612 C2598 1.377 . S
C2612 C2611 1.373 . S
C2613 C2597 1.377 . S
C2613 C2611 1.389 . S
C2613 C2614 1.524 . S
C2614 C2613 1.524 . S
C2614 C2615 1.397 . S
C2614 C2619 1.363 . S
C2615 H2586 0.950 . S
C2615 C2614 1.397 . S
C2615 C2616 1.334 . S
C2616 H2587 0.950 . S
C2616 C2615 1.334 . S
C2616 C2617 1.287 . S
C2617 C2616 1.287 . S
C2617 C2618 1.524 . S
C2617 H2620 0.999 . S
C2618 H2588 0.950 . S
C2618 C2617 1.524 . S
C2618 C2619 1.415 . S
C2619 H2589 0.950 . S
C2619 C2614 1.363 . S
C2619 C2618 1.415 . S
H2620 C2617 0.999 . S
H2621 C2602 0.913 . S
H2622 C2640 0.951 . S
H2623 C2642 0.951 . S
H2624 C2644 0.950 . S
H2625 C2645 0.950 . S
H2626 C2647 0.950 . S
H2627 C2650 0.950 . S
H2628 C2651 0.950 . S
H2629 C2653 0.950 . S
H2630 C2654 0.950 . S
H2631 C2655 0.951 . S
H2632 C2657 0.951 . S
H2633 C2659 0.950 . S
H2634 C2660 0.950 . S
H2635 C2662 0.968 . S
H2636 C2665 0.950 . S
H2637 C2666 0.950 . S
H2638 C2668 0.950 . S
H2639 C2669 0.950 1_565 S
C2640 H2622 0.951 . S
C2640 C2641 1.366 . S
C2640 C2642 1.388 . S
C2641 C2640 1.366 . S
C2641 C2645 1.385 . S
C2642 H2623 0.951 . S
C2642 C2640 1.388 . S
C2642 C2643 1.366 . S
C2643 C2642 1.366 . S
C2643 C2644 1.414 . S
C2643 C2646 1.499 . S
C2644 H2624 0.950 . S
C2644 C2643 1.414 . S
C2644 C2645 1.374 . S
C2645 H2625 0.950 . S
C2645 C2641 1.385 . S
C2645 C2644 1.374 . S
C2646 C2643 1.499 . S
C2646 C2647 1.373 . S
C2646 C2648 1.389 . S
C2647 H2626 0.950 . S
C2647 C2646 1.373 . S
C2647 C2663 1.340 1_565 S
C2648 C2646 1.389 . S
C2648 C2649 1.524 . S
C2648 C2662 1.341 1_565 S
C2649 C2648 1.524 . S
C2649 C2650 1.397 . S
C2649 C2654 1.363 . S
C2650 H2627 0.950 . S
C2650 C2649 1.397 . S
C2650 C2651 1.334 . S
C2651 H2628 0.950 . S
C2651 C2650 1.334 . S
C2651 C2652 1.287 . S
C2652 C2651 1.287 . S
C2652 C2653 1.524 . S
C2652 H2671 0.913 . S
C2653 H2629 0.950 . S
C2653 C2652 1.524 . S
C2653 C2654 1.415 . S
C2654 H2630 0.950 . S
C2654 C2649 1.363 . S
C2654 C2653 1.415 . S
C2655 H2631 0.951 . S
C2655 C2656 1.366 . S
C2655 C2657 1.388 . S
C2656 C2655 1.366 . S
C2656 C2660 1.385 . S
C2657 H2632 0.951 . S
C2657 C2655 1.388 . S
C2657 C2658 1.366 . S
C2658 C2657 1.366 . S
C2658 C2659 1.414 . S
C2658 C2661 1.499 . S
C2659 H2633 0.950 . S
C2659 C2658 1.414 . S
C2659 C2660 1.374 . S
C2660 H2634 0.950 . S
C2660 C2656 1.385 . S
C2660 C2659 1.374 . S
C2661 C2658 1.499 . S
C2661 C2662 1.392 . S
C2661 C2663 1.408 . S
C2662 H2635 0.968 . S
C2662 C2648 1.341 1_545 S
C2662 C2661 1.392 . S
C2663 C2647 1.340 1_545 S
C2663 C2661 1.408 . S
C2663 C2664 1.541 . S
C2664 C2663 1.541 . S
C2664 C2665 1.397 . S
C2664 C2669 1.363 . S
C2665 H2636 0.950 . S
C2665 C2664 1.397 . S
C2665 C2666 1.334 . S
C2666 H2637 0.950 . S
C2666 C2665 1.334 . S
C2666 C2667 1.287 . S
C2667 C2666 1.287 . S
C2667 C2668 1.524 . S
C2667 H2670 0.999 . S
C2668 H2638 0.950 . S
C2668 C2667 1.524 . S
C2668 C2669 1.415 . S
C2669 H2639 0.950 1_545 S
C2669 C2664 1.363 . S
C2669 C2668 1.415 . S
H2670 C2667 0.999 . S
H2671 C2652 0.913 . S
H2672 C2690 0.951 . S
H2673 C2692 0.951 . S
H2674 C2694 0.950 . S
H2675 C2695 0.950 . S
H2676 C2697 0.950 . S
H2677 C2700 0.950 . S
H2678 C2701 0.950 . S
H2679 C2703 0.950 . S
H2680 C2704 0.950 . S
H2681 C2705 0.951 . S
H2682 C2707 0.951 . S
H2683 C2709 0.950 . S
H2684 C2710 0.950 . S
H2685 C2712 0.950 . S
H2686 C2715 0.950 . S
H2687 C2716 0.950 . S
H2688 C2718 0.950 . S
H2689 C2719 0.950 . S
C2690 H2672 0.951 . S
C2690 C2691 1.366 . S
C2690 C2692 1.388 . S
C2691 C2690 1.366 . S
C2691 C2695 1.385 . S
C2692 H2673 0.951 . S
C2692 C2690 1.388 . S
C2692 C2693 1.366 . S
C2693 C2692 1.366 . S
C2693 C2694 1.414 . S
C2693 C2696 1.499 . S
C2694 H2674 0.950 . S
C2694 C2693 1.414 . S
C2694 C2695 1.374 . S
C2695 H2675 0.950 . S
C2695 C2691 1.385 . S
C2695 C2694 1.374 . S
C2696 C2693 1.499 . S
C2696 C2697 1.373 . S
C2696 C2698 1.389 . S
C2697 H2676 0.950 . S
C2697 C2696 1.373 . S
C2697 C2713 1.377 . S
C2698 C2696 1.389 . S
C2698 C2699 1.524 . S
C2698 C2712 1.377 . S
C2699 C2698 1.524 . S
C2699 C2700 1.397 . S
C2699 C2704 1.363 . S
C2700 H2677 0.950 . S
C2700 C2699 1.397 . S
C2700 C2701 1.334 . S
C2701 H2678 0.950 . S
C2701 C2700 1.334 . S
C2701 C2702 1.287 . S
C2702 C2701 1.287 . S
C2702 C2703 1.524 . S
C2702 H2721 0.913 . S
C2703 H2679 0.950 . S
C2703 C2702 1.524 . S
C2703 C2704 1.415 . S
C2704 H2680 0.950 . S
C2704 C2699 1.363 . S
C2704 C2703 1.415 . S
C2705 H2681 0.951 . S
C2705 C2706 1.366 . S
C2705 C2707 1.388 . S
C2706 C2705 1.366 . S
C2706 C2710 1.385 . S
C2707 H2682 0.951 . S
C2707 C2705 1.388 . S
C2707 C2708 1.366 . S
C2708 C2707 1.366 . S
C2708 C2709 1.414 . S
C2708 C2711 1.499 . S
C2709 H2683 0.950 . S
C2709 C2708 1.414 . S
C2709 C2710 1.374 . S
C2710 H2684 0.950 . S
C2710 C2706 1.385 . S
C2710 C2709 1.374 . S
C2711 C2708 1.499 . S
C2711 C2712 1.373 . S
C2711 C2713 1.389 . S
C2712 H2685 0.950 . S
C2712 C2698 1.377 . S
C2712 C2711 1.373 . S
C2713 C2697 1.377 . S
C2713 C2711 1.389 . S
C2713 C2714 1.524 . S
C2714 C2713 1.524 . S
C2714 C2715 1.397 . S
C2714 C2719 1.363 . S
C2715 H2686 0.950 . S
C2715 C2714 1.397 . S
C2715 C2716 1.334 . S
C2716 H2687 0.950 . S
C2716 C2715 1.334 . S
C2716 C2717 1.287 . S
C2717 C2716 1.287 . S
C2717 C2718 1.524 . S
C2717 H2720 0.999 . S
C2718 H2688 0.950 . S
C2718 C2717 1.524 . S
C2718 C2719 1.415 . S
C2719 H2689 0.950 . S
C2719 C2714 1.363 . S
C2719 C2718 1.415 . S
H2720 C2717 0.999 . S
H2721 C2702 0.913 . S
H2722 C2740 0.951 . S
H2723 C2742 0.951 . S
H2724 C2744 0.950 . S
H2725 C2745 0.950 . S
H2726 C2747 0.950 . S
H2727 C2750 0.950 . S
H2728 C2751 0.950 . S
H2729 C2753 0.950 . S
H2730 C2754 0.950 . S
H2731 C2755 0.951 . S
H2732 C2757 0.951 . S
H2733 C2759 0.950 . S
H2734 C2760 0.950 . S
H2735 C2762 0.950 . S
H2736 C2765 0.950 . S
H2737 C2766 0.950 . S
H2738 C2768 0.950 . S
H2739 C2769 0.950 . S
C2740 H2722 0.951 . S
C2740 C2741 1.366 . S
C2740 C2742 1.388 . S
C2741 C2740 1.366 . S
C2741 C2745 1.385 . S
C2742 H2723 0.951 . S
C2742 C2740 1.388 . S
C2742 C2743 1.366 . S
C2743 C2742 1.366 . S
C2743 C2744 1.414 . S
C2743 C2746 1.499 . S
C2744 H2724 0.950 . S
C2744 C2743 1.414 . S
C2744 C2745 1.374 . S
C2745 H2725 0.950 . S
C2745 C2741 1.385 . S
C2745 C2744 1.374 . S
C2746 C2743 1.499 . S
C2746 C2747 1.373 . S
C2746 C2748 1.389 . S
C2747 H2726 0.950 . S
C2747 C2746 1.373 . S
C2747 C2763 1.377 . S
C2748 C2746 1.389 . S
C2748 C2749 1.524 . S
C2748 C2762 1.377 . S
C2749 C2748 1.524 . S
C2749 C2750 1.397 . S
C2749 C2754 1.363 . S
C2750 H2727 0.950 . S
C2750 C2749 1.397 . S
C2750 C2751 1.334 . S
C2751 H2728 0.950 . S
C2751 C2750 1.334 . S
C2751 C2752 1.287 . S
C2752 C2751 1.287 . S
C2752 C2753 1.524 . S
C2752 H2771 0.913 . S
C2753 H2729 0.950 . S
C2753 C2752 1.524 . S
C2753 C2754 1.415 . S
C2754 H2730 0.950 . S
C2754 C2749 1.363 . S
C2754 C2753 1.415 . S
C2755 H2731 0.951 . S
C2755 C2756 1.366 . S
C2755 C2757 1.388 . S
C2756 C2755 1.366 . S
C2756 C2760 1.385 . S
C2757 H2732 0.951 . S
C2757 C2755 1.388 . S
C2757 C2758 1.366 . S
C2758 C2757 1.366 . S
C2758 C2759 1.414 . S
C2758 C2761 1.499 . S
C2759 H2733 0.950 . S
C2759 C2758 1.414 . S
C2759 C2760 1.374 . S
C2760 H2734 0.950 . S
C2760 C2756 1.385 . S
C2760 C2759 1.374 . S
C2761 C2758 1.499 . S
C2761 C2762 1.373 . S
C2761 C2763 1.389 . S
C2762 H2735 0.950 . S
C2762 C2748 1.377 . S
C2762 C2761 1.373 . S
C2763 C2747 1.377 . S
C2763 C2761 1.389 . S
C2763 C2764 1.524 . S
C2764 C2763 1.524 . S
C2764 C2765 1.397 . S
C2764 C2769 1.363 . S
C2765 H2736 0.950 . S
C2765 C2764 1.397 . S
C2765 C2766 1.334 . S
C2766 H2737 0.950 . S
C2766 C2765 1.334 . S
C2766 C2767 1.287 . S
C2767 C2766 1.287 . S
C2767 C2768 1.524 . S
C2767 H2770 0.999 . S
C2768 H2738 0.950 . S
C2768 C2767 1.524 . S
C2768 C2769 1.415 . S
C2769 H2739 0.950 . S
C2769 C2764 1.363 . S
C2769 C2768 1.415 . S
H2770 C2767 0.999 . S
H2771 C2752 0.913 . S
H2772 C2790 0.951 . S
H2773 C2792 0.951 . S
H2774 C2794 0.950 . S
H2775 C2795 0.950 . S
H2776 C2797 0.950 . S
H2777 C2800 0.950 . S
H2778 C2801 0.950 . S
H2779 C2803 0.950 . S
H2780 C2804 0.950 . S
H2781 C2805 0.951 . S
H2782 C2807 0.951 . S
H2783 C2809 0.950 . S
H2784 C2810 0.950 . S
H2785 C2812 0.950 . S
H2786 C2815 0.955 . S
H2787 C2816 0.950 . S
H2788 C2818 0.950 . S
H2789 C2819 0.950 . S
C2790 H2772 0.951 . S
C2790 C2791 1.366 . S
C2790 C2792 1.388 . S
C2791 C2790 1.366 . S
C2791 C2795 1.385 . S
C2792 H2773 0.951 . S
C2792 C2790 1.388 . S
C2792 C2793 1.366 . S
C2793 C2792 1.366 . S
C2793 C2794 1.414 . S
C2793 C2796 1.499 . S
C2794 H2774 0.950 . S
C2794 C2793 1.414 . S
C2794 C2795 1.374 . S
C2795 H2775 0.950 . S
C2795 C2791 1.385 . S
C2795 C2794 1.374 . S
C2796 C2793 1.499 . S
C2796 C2797 1.373 . S
C2796 C2798 1.389 . S
C2797 H2776 0.950 . S
C2797 C2796 1.373 . S
C2797 C2813 1.377 . S
C2798 C2796 1.389 . S
C2798 C2799 1.524 . S
C2798 C2812 1.377 . S
C2799 C2798 1.524 . S
C2799 C2800 1.397 . S
C2799 C2804 1.363 . S
C2800 H2777 0.950 . S
C2800 C2799 1.397 . S
C2800 C2801 1.334 . S
C2801 H2778 0.950 . S
C2801 C2800 1.334 . S
C2801 C2802 1.287 . S
C2802 C2801 1.287 . S
C2802 C2803 1.524 . S
C2802 H2821 0.913 . S
C2803 H2779 0.950 . S
C2803 C2802 1.524 . S
C2803 C2804 1.415 . S
C2804 H2780 0.950 . S
C2804 C2799 1.363 . S
C2804 C2803 1.415 . S
C2805 H2781 0.951 . S
C2805 C2806 1.366 . S
C2805 C2807 1.388 . S
C2806 C2805 1.366 . S
C2806 C2810 1.385 . S
C2807 H2782 0.951 . S
C2807 C2805 1.388 . S
C2807 C2808 1.366 . S
C2808 C2807 1.366 . S
C2808 C2809 1.414 . S
C2808 C2811 1.499 1_655 S
C2809 H2783 0.950 . S
C2809 C2808 1.414 . S
C2809 C2810 1.374 . S
C2810 H2784 0.950 . S
C2810 C2806 1.385 . S
C2810 C2809 1.374 . S
C2811 C2808 1.499 1_455 S
C2811 C2812 1.373 . S
C2811 C2813 1.389 . S
C2812 H2785 0.950 . S
C2812 C2798 1.377 . S
C2812 C2811 1.373 . S
C2813 C2797 1.377 . S
C2813 C2811 1.389 . S
C2813 C2814 1.524 . S
C2814 C2813 1.524 . S
C2814 C2815 1.397 . S
C2814 C2819 1.363 . S
C2815 H2786 0.955 . S
C2815 C2814 1.397 . S
C2815 C2816 1.334 1_455 S
C2816 H2787 0.950 . S
C2816 C2815 1.334 1_655 S
C2816 C2817 1.300 . S
C2817 C2816 1.300 . S
C2817 C2818 1.494 1_655 S
C2817 H2820 1.022 . S
C2818 H2788 0.950 . S
C2818 C2817 1.494 1_455 S
C2818 C2819 1.415 . S
C2819 H2789 0.950 . S
C2819 C2814 1.363 . S
C2819 C2818 1.415 . S
H2820 C2817 1.022 . S
H2821 C2802 0.913 . S
H2822 C2840 0.951 . S
H2823 C2842 0.951 . S
H2824 C2844 0.950 . S
H2825 C2845 0.950 . S
H2826 C2847 0.950 . S
H2827 C2850 0.950 . S
H2828 C2851 0.950 . S
H2829 C2853 0.950 . S
H2830 C2854 0.950 . S
H2831 C2855 0.951 . S
H2832 C2857 0.951 . S
H2833 C2859 0.950 . S
H2834 C2860 0.950 . S
H2835 C2862 0.950 . S
H2836 C2865 0.950 . S
H2837 C2866 0.950 . S
H2838 C2868 0.950 . S
H2839 C2869 0.950 . S
C2840 H2822 0.951 . S
C2840 C2841 1.366 . S
C2840 C2842 1.388 . S
C2841 C2840 1.366 . S
C2841 C2845 1.385 . S
C2842 H2823 0.951 . S
C2842 C2840 1.388 . S
C2842 C2843 1.366 . S
C2843 C2842 1.366 . S
C2843 C2844 1.414 . S
C2843 C2846 1.499 . S
C2844 H2824 0.950 . S
C2844 C2843 1.414 . S
C2844 C2845 1.374 . S
C2845 H2825 0.950 . S
C2845 C2841 1.385 . S
C2845 C2844 1.374 . S
C2846 C2843 1.499 . S
C2846 C2847 1.373 . S
C2846 C2848 1.389 . S
C2847 H2826 0.950 . S
C2847 C2846 1.373 . S
C2847 C2863 1.377 . S
C2848 C2846 1.389 . S
C2848 C2849 1.524 . S
C2848 C2862 1.377 . S
C2849 C2848 1.524 . S
C2849 C2850 1.397 . S
C2849 C2854 1.363 . S
C2850 H2827 0.950 . S
C2850 C2849 1.397 . S
C2850 C2851 1.334 . S
C2851 H2828 0.950 . S
C2851 C2850 1.334 . S
C2851 C2852 1.287 . S
C2852 C2851 1.287 . S
C2852 C2853 1.524 . S
C2852 H2871 0.913 . S
C2853 H2829 0.950 . S
C2853 C2852 1.524 . S
C2853 C2854 1.415 . S
C2854 H2830 0.950 . S
C2854 C2849 1.363 . S
C2854 C2853 1.415 . S
C2855 H2831 0.951 . S
C2855 C2856 1.366 . S
C2855 C2857 1.388 . S
C2856 C2855 1.366 . S
C2856 C2860 1.385 . S
C2857 H2832 0.951 . S
C2857 C2855 1.388 . S
C2857 C2858 1.366 . S
C2858 C2857 1.366 . S
C2858 C2859 1.414 . S
C2858 C2861 1.499 . S
C2859 H2833 0.950 . S
C2859 C2858 1.414 . S
C2859 C2860 1.374 . S
C2860 H2834 0.950 . S
C2860 C2856 1.385 . S
C2860 C2859 1.374 . S
C2861 C2858 1.499 . S
C2861 C2862 1.373 . S
C2861 C2863 1.389 . S
C2862 H2835 0.950 . S
C2862 C2848 1.377 . S
C2862 C2861 1.373 . S
C2863 C2847 1.377 . S
C2863 C2861 1.389 . S
C2863 C2864 1.524 . S
C2864 C2863 1.524 . S
C2864 C2865 1.397 . S
C2864 C2869 1.363 . S
C2865 H2836 0.950 . S
C2865 C2864 1.397 . S
C2865 C2866 1.334 . S
C2866 H2837 0.950 . S
C2866 C2865 1.334 . S
C2866 C2867 1.287 . S
C2867 C2866 1.287 . S
C2867 C2868 1.524 . S
C2867 H2870 0.999 . S
C2868 H2838 0.950 . S
C2868 C2867 1.524 . S
C2868 C2869 1.415 . S
C2869 H2839 0.950 . S
C2869 C2864 1.363 . S
C2869 C2868 1.415 . S
H2870 C2867 0.999 . S
H2871 C2852 0.913 . S
H2872 C2890 0.951 . S
H2873 C2892 0.951 . S
H2874 C2894 0.950 . S
H2875 C2895 0.950 . S
H2876 C2897 0.950 . S
H2877 C2900 0.950 . S
H2878 C2901 0.950 . S
H2879 C2903 0.950 . S
H2880 C2904 0.950 . S
H2881 C2905 0.951 . S
H2882 C2907 0.951 . S
H2883 C2909 0.950 . S
H2884 C2910 0.950 . S
H2885 C2912 0.950 . S
H2886 C2915 0.950 . S
H2887 C2916 0.950 . S
H2888 C2918 0.950 . S
H2889 C2919 0.950 . S
C2890 H2872 0.951 . S
C2890 C2891 1.366 . S
C2890 C2892 1.388 . S
C2891 C2890 1.366 . S
C2891 C2895 1.385 . S
C2892 H2873 0.951 . S
C2892 C2890 1.388 . S
C2892 C2893 1.366 . S
C2893 C2892 1.366 . S
C2893 C2894 1.414 . S
C2893 C2896 1.499 1_455 S
C2894 H2874 0.950 . S
C2894 C2893 1.414 . S
C2894 C2895 1.374 . S
C2895 H2875 0.950 . S
C2895 C2891 1.385 . S
C2895 C2894 1.374 . S
C2896 C2893 1.499 1_655 S
C2896 C2897 1.373 . S
C2896 C2898 1.389 . S
C2897 H2876 0.950 . S
C2897 C2896 1.373 . S
C2897 C2913 1.377 . S
C2898 C2896 1.389 . S
C2898 C2899 1.524 . S
C2898 C2912 1.377 . S
C2899 C2898 1.524 . S
C2899 C2900 1.397 . S
C2899 C2904 1.363 . S
C2900 H2877 0.950 . S
C2900 C2899 1.397 . S
C2900 C2901 1.334 1_655 S
C2901 H2878 0.950 . S
C2901 C2900 1.334 1_455 S
C2901 C2902 1.287 . S
C2902 C2901 1.287 . S
C2902 C2903 1.524 1_455 S
C2902 H2921 0.913 . S
C2903 H2879 0.950 . S
C2903 C2902 1.524 1_655 S
C2903 C2904 1.415 . S
C2904 H2880 0.950 . S
C2904 C2899 1.363 . S
C2904 C2903 1.415 . S
C2905 H2881 0.951 . S
C2905 C2906 1.366 . S
C2905 C2907 1.388 . S
C2906 C2905 1.366 . S
C2906 C2910 1.385 . S
C2907 H2882 0.951 . S
C2907 C2905 1.388 . S
C2907 C2908 1.366 . S
C2908 C2907 1.366 . S
C2908 C2909 1.414 . S
C2908 C2911 1.499 . S
C2909 H2883 0.950 . S
C2909 C2908 1.414 . S
C2909 C2910 1.374 . S
C2910 H2884 0.950 . S
C2910 C2906 1.385 . S
C2910 C2909 1.374 . S
C2911 C2908 1.499 . S
C2911 C2912 1.373 . S
C2911 C2913 1.389 . S
C2912 H2885 0.950 . S
C2912 C2898 1.377 . S
C2912 C2911 1.373 . S
C2913 C2897 1.377 . S
C2913 C2911 1.389 . S
C2913 C2914 1.524 . S
C2914 C2913 1.524 . S
C2914 C2915 1.397 . S
C2914 C2919 1.363 . S
C2915 H2886 0.950 . S
C2915 C2914 1.397 . S
C2915 C2916 1.334 . S
C2916 H2887 0.950 . S
C2916 C2915 1.334 . S
C2916 C2917 1.287 . S
C2917 C2916 1.287 . S
C2917 C2918 1.524 . S
C2917 H2920 0.999 . S
C2918 H2888 0.950 . S
C2918 C2917 1.524 . S
C2918 C2919 1.415 . S
C2919 H2889 0.950 . S
C2919 C2914 1.363 . S
C2919 C2918 1.415 . S
H2920 C2917 0.999 . S
H2921 C2902 0.913 . S
H2922 C2940 0.951 . S
H2923 C2942 0.951 . S
H2924 C2944 0.950 . S
H2925 C2945 0.950 . S
H2926 C2947 0.950 . S
H2927 C2950 0.950 . S
H2928 C2951 0.950 . S
H2929 C2953 0.950 . S
H2930 C2954 0.950 . S
H2931 C2955 0.951 . S
H2932 C2957 0.951 . S
H2933 C2959 0.950 . S
H2934 C2960 0.950 . S
H2935 C2962 0.950 . S
H2936 C2965 0.950 . S
H2937 C2966 0.950 . S
H2938 C2968 0.950 . S
H2939 C2969 0.950 . S
C2940 H2922 0.951 . S
C2940 C2941 1.366 . S
C2940 C2942 1.388 . S
C2941 C2940 1.366 . S
C2941 C2945 1.385 . S
C2942 H2923 0.951 . S
C2942 C2940 1.388 . S
C2942 C2943 1.366 . S
C2943 C2942 1.366 . S
C2943 C2944 1.414 . S
C2943 C2946 1.499 . S
C2944 H2924 0.950 . S
C2944 C2943 1.414 . S
C2944 C2945 1.374 . S
C2945 H2925 0.950 . S
C2945 C2941 1.385 . S
C2945 C2944 1.374 . S
C2946 C2943 1.499 . S
C2946 C2947 1.373 . S
C2946 C2948 1.389 . S
C2947 H2926 0.950 . S
C2947 C2946 1.373 . S
C2947 C2963 1.377 . S
C2948 C2946 1.389 . S
C2948 C2949 1.524 . S
C2948 C2962 1.377 . S
C2949 C2948 1.524 . S
C2949 C2950 1.397 . S
C2949 C2954 1.363 . S
C2950 H2927 0.950 . S
C2950 C2949 1.397 . S
C2950 C2951 1.334 . S
C2951 H2928 0.950 . S
C2951 C2950 1.334 . S
C2951 C2952 1.287 . S
C2952 C2951 1.287 . S
C2952 C2953 1.524 . S
C2952 H2971 0.913 . S
C2953 H2929 0.950 . S
C2953 C2952 1.524 . S
C2953 C2954 1.415 . S
C2954 H2930 0.950 . S
C2954 C2949 1.363 . S
C2954 C2953 1.415 . S
C2955 H2931 0.951 . S
C2955 C2956 1.366 . S
C2955 C2957 1.388 . S
C2956 C2955 1.366 . S
C2956 C2960 1.385 . S
C2957 H2932 0.951 . S
C2957 C2955 1.388 . S
C2957 C2958 1.366 . S
C2958 C2957 1.366 . S
C2958 C2959 1.414 . S
C2958 C2961 1.499 . S
C2959 H2933 0.950 . S
C2959 C2958 1.414 . S
C2959 C2960 1.374 . S
C2960 H2934 0.950 . S
C2960 C2956 1.385 . S
C2960 C2959 1.374 . S
C2961 C2958 1.499 . S
C2961 C2962 1.373 . S
C2961 C2963 1.389 . S
C2962 H2935 0.950 . S
C2962 C2948 1.377 . S
C2962 C2961 1.373 . S
C2963 C2947 1.377 . S
C2963 C2961 1.389 . S
C2963 C2964 1.524 . S
C2964 C2963 1.524 . S
C2964 C2965 1.397 . S
C2964 C2969 1.363 . S
C2965 H2936 0.950 . S
C2965 C2964 1.397 . S
C2965 C2966 1.334 . S
C2966 H2937 0.950 . S
C2966 C2965 1.334 . S
C2966 C2967 1.287 . S
C2967 C2966 1.287 . S
C2967 C2968 1.524 . S
C2967 H2970 0.999 . S
C2968 H2938 0.950 . S
C2968 C2967 1.524 . S
C2968 C2969 1.415 . S
C2969 H2939 0.950 . S
C2969 C2964 1.363 . S
C2969 C2968 1.415 . S
H2970 C2967 0.999 . S
H2971 C2952 0.913 . S
H2972 C2990 0.951 . S
H2973 C2992 0.951 . S
H2974 C2994 0.950 . S
H2975 C2995 0.950 . S
H2976 C2997 0.950 . S
H2977 C3000 0.950 . S
H2978 C3001 0.950 . S
H2979 C3003 0.950 . S
H2980 C3004 0.950 . S
H2981 C3005 0.951 . S
H2982 C3007 0.951 . S
H2983 C3009 0.950 . S
H2984 C3010 0.950 . S
H2985 C3012 0.971 . S
H2986 C3015 0.950 . S
H2987 C3016 0.950 . S
H2988 C3018 0.950 1_655 S
H2989 C3019 0.950 . S
C2990 H2972 0.951 . S
C2990 C2991 1.366 . S
C2990 C2992 1.388 . S
C2991 C2990 1.366 . S
C2991 C2995 1.385 . S
C2992 H2973 0.951 . S
C2992 C2990 1.388 . S
C2992 C2993 1.366 . S
C2993 C2992 1.366 . S
C2993 C2994 1.414 . S
C2993 C2996 1.499 . S
C2994 H2974 0.950 . S
C2994 C2993 1.414 . S
C2994 C2995 1.374 . S
C2995 H2975 0.950 . S
C2995 C2991 1.385 . S
C2995 C2994 1.374 . S
C2996 C2993 1.499 . S
C2996 C2997 1.373 . S
C2996 C2998 1.389 . S
C2997 H2976 0.950 . S
C2997 C2996 1.373 . S
C2997 C3013 1.377 . S
C2998 C2996 1.389 . S
C2998 C2999 1.524 . S
C2998 C3012 1.340 1_655 S
C2999 C2998 1.524 . S
C2999 C3000 1.397 . S
C2999 C3004 1.363 . S
C3000 H2977 0.950 . S
C3000 C2999 1.397 . S
C3000 C3001 1.334 . S
C3001 H2978 0.950 . S
C3001 C3000 1.334 . S
C3001 C3002 1.287 . S
C3002 C3001 1.287 . S
C3002 C3003 1.524 . S
C3002 H3021 0.913 . S
C3003 H2979 0.950 . S
C3003 C3002 1.524 . S
C3003 C3004 1.415 . S
C3004 H2980 0.950 . S
C3004 C2999 1.363 . S
C3004 C3003 1.415 . S
C3005 H2981 0.951 . S
C3005 C3006 1.366 . S
C3005 C3007 1.388 . S
C3006 C3005 1.366 . S
C3006 C3010 1.385 . S
C3007 H2982 0.951 . S
C3007 C3005 1.388 . S
C3007 C3008 1.366 . S
C3008 C3007 1.366 . S
C3008 C3009 1.414 . S
C3008 C3011 1.499 . S
C3009 H2983 0.950 . S
C3009 C3008 1.414 . S
C3009 C3010 1.374 . S
C3010 H2984 0.950 . S
C3010 C3006 1.385 . S
C3010 C3009 1.374 . S
C3011 C3008 1.499 . S
C3011 C3012 1.391 . S
C3011 C3013 1.389 1_455 S
C3012 H2985 0.971 . S
C3012 C2998 1.340 1_455 S
C3012 C3011 1.391 . S
C3013 C2997 1.377 . S
C3013 C3011 1.389 1_655 S
C3013 C3014 1.524 1_655 S
C3014 C3013 1.524 1_455 S
C3014 C3015 1.397 . S
C3014 C3019 1.363 1_455 S
C3015 H2986 0.950 . S
C3015 C3014 1.397 . S
C3015 C3016 1.334 . S
C3016 H2987 0.950 . S
C3016 C3015 1.334 . S
C3016 C3017 1.287 . S
C3017 C3016 1.287 . S
C3017 C3018 1.524 . S
C3017 H3020 0.999 . S
C3018 H2988 0.950 1_455 S
C3018 C3017 1.524 . S
C3018 C3019 1.415 1_455 S
C3019 H2989 0.950 . S
C3019 C3014 1.363 1_655 S
C3019 C3018 1.415 1_655 S
H3020 C3017 0.999 . S
H3021 C3002 0.913 . S
H3022 C3040 0.951 . S
H3023 C3042 0.951 . S
H3024 C3044 0.950 . S
H3025 C3045 0.950 . S
H3026 C3047 0.950 . S
H3027 C3050 0.950 . S
H3028 C3051 0.950 . S
H3029 C3053 0.950 . S
H3030 C3054 0.950 . S
H3031 C3055 0.951 . S
H3032 C3057 0.951 . S
H3033 C3059 0.950 . S
H3034 C3060 0.950 . S
H3035 C3062 0.950 . S
H3036 C3065 0.950 . S
H3037 C3066 0.950 . S
H3038 C3068 0.950 . S
H3039 C3069 0.950 . S
C3040 H3022 0.951 . S
C3040 C3041 1.366 . S
C3040 C3042 1.388 . S
C3041 C3040 1.366 . S
C3041 C3045 1.385 . S
C3042 H3023 0.951 . S
C3042 C3040 1.388 . S
C3042 C3043 1.366 . S
C3043 C3042 1.366 . S
C3043 C3044 1.414 . S
C3043 C3046 1.499 . S
C3044 H3024 0.950 . S
C3044 C3043 1.414 . S
C3044 C3045 1.374 . S
C3045 H3025 0.950 . S
C3045 C3041 1.385 . S
C3045 C3044 1.374 . S
C3046 C3043 1.499 . S
C3046 C3047 1.373 . S
C3046 C3048 1.389 . S
C3047 H3026 0.950 . S
C3047 C3046 1.373 . S
C3047 C3063 1.377 . S
C3048 C3046 1.389 . S
C3048 C3049 1.524 . S
C3048 C3062 1.377 . S
C3049 C3048 1.524 . S
C3049 C3050 1.397 . S
C3049 C3054 1.363 . S
C3050 H3027 0.950 . S
C3050 C3049 1.397 . S
C3050 C3051 1.334 . S
C3051 H3028 0.950 . S
C3051 C3050 1.334 . S
C3051 C3052 1.287 . S
C3052 C3051 1.287 . S
C3052 C3053 1.524 . S
C3052 H3071 0.913 . S
C3053 H3029 0.950 . S
C3053 C3052 1.524 . S
C3053 C3054 1.415 . S
C3054 H3030 0.950 . S
C3054 C3049 1.363 . S
C3054 C3053 1.415 . S
C3055 H3031 0.951 . S
C3055 C3056 1.366 . S
C3055 C3057 1.388 . S
C3056 C3055 1.366 . S
C3056 C3060 1.385 . S
C3057 H3032 0.951 . S
C3057 C3055 1.388 . S
C3057 C3058 1.366 . S
C3058 C3057 1.366 . S
C3058 C3059 1.414 . S
C3058 C3061 1.499 1_655 S
C3059 H3033 0.950 . S
C3059 C3058 1.414 . S
C3059 C3060 1.374 . S
C3060 H3034 0.950 . S
C3060 C3056 1.385 . S
C3060 C3059 1.374 . S
C3061 C3058 1.499 1_455 S
C3061 C3062 1.373 . S
C3061 C3063 1.389 . S
C3062 H3035 0.950 . S
C3062 C3048 1.377 . S
C3062 C3061 1.373 . S
C3063 C3047 1.377 . S
C3063 C3061 1.389 . S
C3063 C3064 1.524 . S
C3064 C3063 1.524 . S
C3064 C3065 1.397 1_455 S
C3064 C3069 1.363 . S
C3065 H3036 0.950 . S
C3065 C3064 1.397 1_655 S
C3065 C3066 1.334 . S
C3066 H3037 0.950 . S
C3066 C3065 1.334 . S
C3066 C3067 1.287 . S
C3067 C3066 1.287 . S
C3067 C3068 1.524 1_655 S
C3067 H3070 0.999 . S
C3068 H3038 0.950 . S
C3068 C3067 1.524 1_455 S
C3068 C3069 1.415 . S
C3069 H3039 0.950 . S
C3069 C3064 1.363 . S
C3069 C3068 1.415 . S
H3070 C3067 0.999 . S
H3071 C3052 0.913 . S
H3072 C3090 0.951 . S
H3073 C3092 0.951 . S
H3074 C3094 0.950 . S
H3075 C3095 0.950 . S
H3076 C3097 0.950 . S
H3077 C3100 0.950 . S
H3078 C3101 0.950 . S
H3079 C3103 0.950 . S
H3080 C3104 0.950 . S
H3081 C3105 0.951 . S
H3082 C3107 0.951 . S
H3083 C3109 0.950 . S
H3084 C3110 0.950 . S
H3085 C3112 0.960 . S
H3086 C3115 0.950 . S
H3087 C3116 0.950 . S
H3088 C3118 0.952 . S
H3089 C3119 0.950 . S
C3090 H3072 0.951 . S
C3090 C3091 1.366 . S
C3090 C3092 1.388 . S
C3091 C3090 1.366 . S
C3091 C3095 1.385 . S
C3092 H3073 0.951 . S
C3092 C3090 1.388 . S
C3092 C3093 1.366 . S
C3093 C3092 1.366 . S
C3093 C3094 1.414 . S
C3093 C3096 1.499 . S
C3094 H3074 0.950 . S
C3094 C3093 1.414 . S
C3094 C3095 1.374 . S
C3095 H3075 0.950 . S
C3095 C3091 1.385 . S
C3095 C3094 1.374 . S
C3096 C3093 1.499 . S
C3096 C3097 1.373 . S
C3096 C3098 1.389 . S
C3097 H3076 0.950 . S
C3097 C3096 1.373 . S
C3097 C3113 1.377 . S
C3098 C3096 1.389 . S
C3098 C3099 1.524 . S
C3098 C3112 1.377 . S
C3099 C3098 1.524 . S
C3099 C3100 1.397 . S
C3099 C3104 1.363 . S
C3100 H3077 0.950 . S
C3100 C3099 1.397 . S
C3100 C3101 1.334 . S
C3101 H3078 0.950 . S
C3101 C3100 1.334 . S
C3101 C3102 1.287 . S
C3102 C3101 1.287 . S
C3102 C3103 1.524 . S
C3102 H3121 0.913 . S
C3103 H3079 0.950 . S
C3103 C3102 1.524 . S
C3103 C3104 1.415 . S
C3104 H3080 0.950 . S
C3104 C3099 1.363 . S
C3104 C3103 1.415 . S
C3105 H3081 0.951 . S
C3105 C3106 1.366 . S
C3105 C3107 1.388 . S
C3106 C3105 1.366 . S
C3106 C3110 1.385 . S
C3107 H3082 0.951 . S
C3107 C3105 1.388 . S
C3107 C3108 1.366 . S
C3108 C3107 1.366 . S
C3108 C3109 1.414 . S
C3108 C3111 1.499 . S
C3109 H3083 0.950 . S
C3109 C3108 1.414 . S
C3109 C3110 1.374 . S
C3110 H3084 0.950 . S
C3110 C3106 1.385 . S
C3110 C3109 1.374 . S
C3111 C3108 1.499 . S
C3111 C3112 1.373 1_455 S
C3111 C3113 1.389 1_455 S
C3112 H3085 0.960 . S
C3112 C3098 1.377 . S
C3112 C3111 1.373 1_655 S
C3113 C3097 1.377 . S
C3113 C3111 1.389 1_655 S
C3113 C3114 1.524 . S
C3114 C3113 1.524 . S
C3114 C3115 1.397 1_655 S
C3114 C3119 1.363 . S
C3115 H3086 0.950 . S
C3115 C3114 1.397 1_455 S
C3115 C3116 1.334 . S
C3116 H3087 0.950 . S
C3116 C3115 1.334 . S
C3116 C3117 1.287 . S
C3117 C3116 1.287 . S
C3117 C3118 1.518 1_455 S
C3117 H3120 0.999 . S
C3118 H3088 0.952 . S
C3118 C3117 1.518 1_655 S
C3118 C3119 1.418 . S
C3119 H3089 0.950 . S
C3119 C3114 1.363 . S
C3119 C3118 1.418 . S
H3120 C3117 0.999 . S
H3121 C3102 0.913 . S
H3122 C3140 0.951 . S
H3123 C3142 0.951 . S
H3124 C3144 0.950 . S
H3125 C3145 0.950 . S
H3126 C3147 0.950 . S
H3127 C3150 0.950 . S
H3128 C3151 0.950 . S
H3129 C3153 0.950 . S
H3130 C3154 0.950 . S
H3131 C3155 0.951 . S
H3132 C3157 0.951 . S
H3133 C3159 0.950 . S
H3134 C3160 0.950 . S
H3135 C3162 0.950 . S
H3136 C3165 0.950 . S
H3137 C3166 0.950 . S
H3138 C3168 0.950 . S
H3139 C3169 0.950 . S
C3140 H3122 0.951 . S
C3140 C3141 1.366 . S
C3140 C3142 1.388 . S
C3141 C3140 1.366 . S
C3141 C3145 1.385 . S
C3142 H3123 0.951 . S
C3142 C3140 1.388 . S
C3142 C3143 1.366 . S
C3143 C3142 1.366 . S
C3143 C3144 1.414 . S
C3143 C3146 1.499 . S
C3144 H3124 0.950 . S
C3144 C3143 1.414 . S
C3144 C3145 1.374 . S
C3145 H3125 0.950 . S
C3145 C3141 1.385 . S
C3145 C3144 1.374 . S
C3146 C3143 1.499 . S
C3146 C3147 1.373 . S
C3146 C3148 1.389 . S
C3147 H3126 0.950 . S
C3147 C3146 1.373 . S
C3147 C3163 1.377 . S
C3148 C3146 1.389 . S
C3148 C3149 1.524 . S
C3148 C3162 1.377 . S
C3149 C3148 1.524 . S
C3149 C3150 1.397 . S
C3149 C3154 1.363 . S
C3150 H3127 0.950 . S
C3150 C3149 1.397 . S
C3150 C3151 1.334 . S
C3151 H3128 0.950 . S
C3151 C3150 1.334 . S
C3151 C3152 1.287 . S
C3152 C3151 1.287 . S
C3152 C3153 1.524 . S
C3152 H3171 0.913 . S
C3153 H3129 0.950 . S
C3153 C3152 1.524 . S
C3153 C3154 1.415 . S
C3154 H3130 0.950 . S
C3154 C3149 1.363 . S
C3154 C3153 1.415 . S
C3155 H3131 0.951 . S
C3155 C3156 1.366 . S
C3155 C3157 1.388 . S
C3156 C3155 1.366 . S
C3156 C3160 1.385 . S
C3157 H3132 0.951 . S
C3157 C3155 1.388 . S
C3157 C3158 1.366 . S
C3158 C3157 1.366 . S
C3158 C3159 1.414 . S
C3158 C3161 1.499 . S
C3159 H3133 0.950 . S
C3159 C3158 1.414 . S
C3159 C3160 1.374 . S
C3160 H3134 0.950 . S
C3160 C3156 1.385 . S
C3160 C3159 1.374 . S
C3161 C3158 1.499 . S
C3161 C3162 1.373 . S
C3161 C3163 1.389 . S
C3162 H3135 0.950 . S
C3162 C3148 1.377 . S
C3162 C3161 1.373 . S
C3163 C3147 1.377 . S
C3163 C3161 1.389 . S
C3163 C3164 1.524 . S
C3164 C3163 1.524 . S
C3164 C3165 1.397 . S
C3164 C3169 1.363 . S
C3165 H3136 0.950 . S
C3165 C3164 1.397 . S
C3165 C3166 1.334 . S
C3166 H3137 0.950 . S
C3166 C3165 1.334 . S
C3166 C3167 1.287 . S
C3167 C3166 1.287 . S
C3167 C3168 1.524 . S
C3167 H3170 0.999 . S
C3168 H3138 0.950 . S
C3168 C3167 1.524 . S
C3168 C3169 1.415 . S
C3169 H3139 0.950 . S
C3169 C3164 1.363 . S
C3169 C3168 1.415 . S
H3170 C3167 0.999 . S
H3171 C3152 0.913 . S
H3172 C3190 0.951 . S
H3173 C3192 0.951 . S
H3174 C3194 0.950 . S
H3175 C3195 0.950 . S
H3176 C3197 0.950 . S
H3177 C3200 0.950 . S
H3178 C3201 0.950 . S
H3179 C3203 0.950 . S
H3180 C3204 0.950 . S
H3181 C3205 0.951 . S
H3182 C3207 0.951 . S
H3183 C3209 0.950 . S
H3184 C3210 0.950 . S
H3185 C3212 0.950 1_655 S
H3186 C3215 0.950 . S
H3187 C3216 0.950 . S
H3188 C3218 0.950 . S
H3189 C3219 0.950 . S
C3190 H3172 0.951 . S
C3190 C3191 1.366 . S
C3190 C3192 1.388 . S
C3191 C3190 1.366 . S
C3191 C3195 1.385 . S
C3192 H3173 0.951 . S
C3192 C3190 1.388 . S
C3192 C3193 1.366 . S
C3193 C3192 1.366 . S
C3193 C3194 1.414 . S
C3193 C3196 1.499 . S
C3194 H3174 0.950 . S
C3194 C3193 1.414 . S
C3194 C3195 1.374 . S
C3195 H3175 0.950 . S
C3195 C3191 1.385 . S
C3195 C3194 1.374 . S
C3196 C3193 1.499 . S
C3196 C3197 1.373 . S
C3196 C3198 1.389 . S
C3197 H3176 0.950 . S
C3197 C3196 1.373 . S
C3197 C3213 1.377 . S
C3198 C3196 1.389 . S
C3198 C3199 1.524 . S
C3198 C3212 1.377 . S
C3199 C3198 1.524 . S
C3199 C3200 1.397 . S
C3199 C3204 1.363 . S
C3200 H3177 0.950 . S
C3200 C3199 1.397 . S
C3200 C3201 1.334 . S
C3201 H3178 0.950 . S
C3201 C3200 1.334 . S
C3201 C3202 1.287 . S
C3202 C3201 1.287 . S
C3202 C3203 1.524 . S
C3202 H3221 0.913 . S
C3203 H3179 0.950 . S
C3203 C3202 1.524 . S
C3203 C3204 1.415 . S
C3204 H3180 0.950 . S
C3204 C3199 1.363 . S
C3204 C3203 1.415 . S
C3205 H3181 0.951 . S
C3205 C3206 1.366 . S
C3205 C3207 1.388 . S
C3206 C3205 1.366 . S
C3206 C3210 1.385 . S
C3207 H3182 0.951 . S
C3207 C3205 1.388 . S
C3207 C3208 1.366 . S
C3208 C3207 1.366 . S
C3208 C3209 1.414 . S
C3208 C3211 1.499 . S
C3209 H3183 0.950 . S
C3209 C3208 1.414 . S
C3209 C3210 1.374 . S
C3210 H3184 0.950 . S
C3210 C3206 1.385 . S
C3210 C3209 1.374 . S
C3211 C3208 1.499 . S
C3211 C3212 1.373 1_655 S
C3211 C3213 1.389 1_655 S
C3212 H3185 0.950 1_455 S
C3212 C3198 1.377 . S
C3212 C3211 1.373 1_455 S
C3213 C3197 1.377 . S
C3213 C3211 1.389 1_455 S
C3213 C3214 1.524 . S
C3214 C3213 1.524 . S
C3214 C3215 1.397 1_455 S
C3214 C3219 1.363 . S
C3215 H3186 0.950 . S
C3215 C3214 1.397 1_655 S
C3215 C3216 1.334 . S
C3216 H3187 0.950 . S
C3216 C3215 1.334 . S
C3216 C3217 1.287 . S
C3217 C3216 1.287 . S
C3217 C3218 1.524 1_655 S
C3217 H3220 0.999 . S
C3218 H3188 0.950 . S
C3218 C3217 1.524 1_455 S
C3218 C3219 1.415 . S
C3219 H3189 0.950 . S
C3219 C3214 1.363 . S
C3219 C3218 1.415 . S
H3220 C3217 0.999 . S
H3221 C3202 0.913 . S
H3222 C3240 0.951 . S
H3223 C3242 0.951 . S
H3224 C3244 0.950 . S
H3225 C3245 0.950 . S
H3226 C3247 0.950 . S
H3227 C3250 0.950 . S
H3228 C3251 0.950 . S
H3229 C3253 0.950 . S
H3230 C3254 0.950 . S
H3231 C3255 0.951 . S
H3232 C3257 0.951 . S
H3233 C3259 0.950 . S
H3234 C3260 0.950 . S
H3235 C3262 0.950 . S
H3236 C3265 0.950 . S
H3237 C3266 0.950 . S
H3238 C3268 0.950 . S
H3239 C3269 0.950 . S
C3240 H3222 0.951 . S
C3240 C3241 1.366 . S
C3240 C3242 1.388 . S
C3241 C3240 1.366 . S
C3241 C3245 1.385 . S
C3242 H3223 0.951 . S
C3242 C3240 1.388 . S
C3242 C3243 1.366 . S
C3243 C3242 1.366 . S
C3243 C3244 1.414 . S
C3243 C3246 1.499 . S
C3244 H3224 0.950 . S
C3244 C3243 1.414 . S
C3244 C3245 1.374 . S
C3245 H3225 0.950 . S
C3245 C3241 1.385 . S
C3245 C3244 1.374 . S
C3246 C3243 1.499 . S
C3246 C3247 1.373 . S
C3246 C3248 1.389 . S
C3247 H3226 0.950 . S
C3247 C3246 1.373 . S
C3247 C3263 1.377 . S
C3248 C3246 1.389 . S
C3248 C3249 1.524 . S
C3248 C3262 1.377 . S
C3249 C3248 1.524 . S
C3249 C3250 1.397 . S
C3249 C3254 1.363 . S
C3250 H3227 0.950 . S
C3250 C3249 1.397 . S
C3250 C3251 1.334 . S
C3251 H3228 0.950 . S
C3251 C3250 1.334 . S
C3251 C3252 1.287 . S
C3252 C3251 1.287 . S
C3252 C3253 1.524 . S
C3252 H3271 0.913 . S
C3253 H3229 0.950 . S
C3253 C3252 1.524 . S
C3253 C3254 1.415 . S
C3254 H3230 0.950 . S
C3254 C3249 1.363 . S
C3254 C3253 1.415 . S
C3255 H3231 0.951 . S
C3255 C3256 1.366 . S
C3255 C3257 1.388 . S
C3256 C3255 1.366 . S
C3256 C3260 1.385 . S
C3257 H3232 0.951 . S
C3257 C3255 1.388 . S
C3257 C3258 1.366 . S
C3258 C3257 1.366 . S
C3258 C3259 1.414 . S
C3258 C3261 1.499 . S
C3259 H3233 0.950 . S
C3259 C3258 1.414 . S
C3259 C3260 1.374 . S
C3260 H3234 0.950 . S
C3260 C3256 1.385 . S
C3260 C3259 1.374 . S
C3261 C3258 1.499 . S
C3261 C3262 1.373 . S
C3261 C3263 1.389 . S
C3262 H3235 0.950 . S
C3262 C3248 1.377 . S
C3262 C3261 1.373 . S
C3263 C3247 1.377 . S
C3263 C3261 1.389 . S
C3263 C3264 1.524 . S
C3264 C3263 1.524 . S
C3264 C3265 1.397 . S
C3264 C3269 1.363 . S
C3265 H3236 0.950 . S
C3265 C3264 1.397 . S
C3265 C3266 1.334 . S
C3266 H3237 0.950 . S
C3266 C3265 1.334 . S
C3266 C3267 1.287 . S
C3267 C3266 1.287 . S
C3267 C3268 1.524 . S
C3267 H3270 0.999 . S
C3268 H3238 0.950 . S
C3268 C3267 1.524 . S
C3268 C3269 1.415 . S
C3269 H3239 0.950 . S
C3269 C3264 1.363 . S
C3269 C3268 1.415 . S
H3270 C3267 0.999 . S
H3271 C3252 0.913 . S
H3272 C3290 0.951 . S
H3273 C3292 0.951 . S
H3274 C3294 0.950 . S
H3275 C3295 0.950 . S
H3276 C3297 0.950 . S
H3277 C3300 0.950 . S
H3278 C3301 0.950 . S
H3279 C3303 0.950 . S
H3280 C3304 0.950 . S
H3281 C3305 0.951 . S
H3282 C3307 0.951 . S
H3283 C3309 0.950 . S
H3284 C3310 0.950 . S
H3285 C3312 0.950 . S
H3286 C3315 0.950 . S
H3287 C3316 0.950 . S
H3288 C3318 0.950 . S
H3289 C3319 0.950 . S
C3290 H3272 0.951 . S
C3290 C3291 1.366 . S
C3290 C3292 1.388 . S
C3291 C3290 1.366 . S
C3291 C3295 1.385 . S
C3292 H3273 0.951 . S
C3292 C3290 1.388 . S
C3292 C3293 1.366 . S
C3293 C3292 1.366 . S
C3293 C3294 1.414 . S
C3293 C3296 1.499 1_655 S
C3294 H3274 0.950 . S
C3294 C3293 1.414 . S
C3294 C3295 1.374 . S
C3295 H3275 0.950 . S
C3295 C3291 1.385 . S
C3295 C3294 1.374 . S
C3296 C3293 1.499 1_455 S
C3296 C3297 1.373 . S
C3296 C3298 1.389 . S
C3297 H3276 0.950 . S
C3297 C3296 1.373 . S
C3297 C3313 1.377 . S
C3298 C3296 1.389 . S
C3298 C3299 1.524 . S
C3298 C3312 1.377 . S
C3299 C3298 1.524 . S
C3299 C3300 1.397 1_455 S
C3299 C3304 1.363 . S
C3300 H3277 0.950 . S
C3300 C3299 1.397 1_655 S
C3300 C3301 1.334 . S
C3301 H3278 0.950 . S
C3301 C3300 1.334 . S
C3301 C3302 1.287 . S
C3302 C3301 1.287 . S
C3302 C3303 1.524 1_655 S
C3302 H3321 0.913 . S
C3303 H3279 0.950 . S
C3303 C3302 1.524 1_455 S
C3303 C3304 1.415 . S
C3304 H3280 0.950 . S
C3304 C3299 1.363 . S
C3304 C3303 1.415 . S
C3305 H3281 0.951 . S
C3305 C3306 1.366 . S
C3305 C3307 1.388 . S
C3306 C3305 1.366 . S
C3306 C3310 1.385 . S
C3307 H3282 0.951 . S
C3307 C3305 1.388 . S
C3307 C3308 1.366 . S
C3308 C3307 1.366 . S
C3308 C3309 1.414 . S
C3308 C3311 1.499 . S
C3309 H3283 0.950 . S
C3309 C3308 1.414 . S
C3309 C3310 1.374 . S
C3310 H3284 0.950 . S
C3310 C3306 1.385 . S
C3310 C3309 1.374 . S
C3311 C3308 1.499 . S
C3311 C3312 1.373 . S
C3311 C3313 1.389 . S
C3312 H3285 0.950 . S
C3312 C3298 1.377 . S
C3312 C3311 1.373 . S
C3313 C3297 1.377 . S
C3313 C3311 1.389 . S
C3313 C3314 1.524 . S
C3314 C3313 1.524 . S
C3314 C3315 1.397 . S
C3314 C3319 1.363 . S
C3315 H3286 0.950 . S
C3315 C3314 1.397 . S
C3315 C3316 1.334 . S
C3316 H3287 0.950 . S
C3316 C3315 1.334 . S
C3316 C3317 1.287 . S
C3317 C3316 1.287 . S
C3317 C3318 1.524 . S
C3317 H3320 0.999 . S
C3318 H3288 0.950 . S
C3318 C3317 1.524 . S
C3318 C3319 1.415 . S
C3319 H3289 0.950 . S
C3319 C3314 1.363 . S
C3319 C3318 1.415 . S
H3320 C3317 0.999 . S
H3321 C3302 0.913 . S
H3322 C3340 0.951 . S
H3323 C3342 0.951 . S
H3324 C3344 0.950 . S
H3325 C3345 0.950 . S
H3326 C3347 0.950 . S
H3327 C3350 0.950 . S
H3328 C3351 0.950 . S
H3329 C3353 0.950 . S
H3330 C3354 0.950 . S
H3331 C3355 0.951 . S
H3332 C3357 0.951 . S
H3333 C3359 0.950 . S
H3334 C3360 0.950 . S
H3335 C3362 0.950 . S
H3336 C3365 0.950 . S
H3337 C3366 0.950 . S
H3338 C3368 0.950 . S
H3339 C3369 0.950 . S
C3340 H3322 0.951 . S
C3340 C3341 1.366 . S
C3340 C3342 1.388 . S
C3341 C3340 1.366 . S
C3341 C3345 1.385 . S
C3342 H3323 0.951 . S
C3342 C3340 1.388 . S
C3342 C3343 1.366 . S
C3343 C3342 1.366 . S
C3343 C3344 1.414 . S
C3343 C3346 1.499 . S
C3344 H3324 0.950 . S
C3344 C3343 1.414 . S
C3344 C3345 1.374 . S
C3345 H3325 0.950 . S
C3345 C3341 1.385 . S
C3345 C3344 1.374 . S
C3346 C3343 1.499 . S
C3346 C3347 1.373 . S
C3346 C3348 1.389 . S
C3347 H3326 0.950 . S
C3347 C3346 1.373 . S
C3347 C3363 1.377 . S
C3348 C3346 1.389 . S
C3348 C3349 1.524 . S
C3348 C3362 1.377 . S
C3349 C3348 1.524 . S
C3349 C3350 1.397 . S
C3349 C3354 1.363 . S
C3350 H3327 0.950 . S
C3350 C3349 1.397 . S
C3350 C3351 1.334 . S
C3351 H3328 0.950 . S
C3351 C3350 1.334 . S
C3351 C3352 1.287 . S
C3352 C3351 1.287 . S
C3352 C3353 1.524 . S
C3352 H3371 0.913 . S
C3353 H3329 0.950 . S
C3353 C3352 1.524 . S
C3353 C3354 1.415 . S
C3354 H3330 0.950 . S
C3354 C3349 1.363 . S
C3354 C3353 1.415 . S
C3355 H3331 0.951 . S
C3355 C3356 1.366 . S
C3355 C3357 1.388 . S
C3356 C3355 1.366 . S
C3356 C3360 1.385 . S
C3357 H3332 0.951 . S
C3357 C3355 1.388 . S
C3357 C3358 1.366 . S
C3358 C3357 1.366 . S
C3358 C3359 1.414 . S
C3358 C3361 1.499 . S
C3359 H3333 0.950 . S
C3359 C3358 1.414 . S
C3359 C3360 1.374 . S
C3360 H3334 0.950 . S
C3360 C3356 1.385 . S
C3360 C3359 1.374 . S
C3361 C3358 1.499 . S
C3361 C3362 1.373 . S
C3361 C3363 1.389 . S
C3362 H3335 0.950 . S
C3362 C3348 1.377 . S
C3362 C3361 1.373 . S
C3363 C3347 1.377 . S
C3363 C3361 1.389 . S
C3363 C3364 1.524 . S
C3364 C3363 1.524 . S
C3364 C3365 1.397 . S
C3364 C3369 1.363 . S
C3365 H3336 0.950 . S
C3365 C3364 1.397 . S
C3365 C3366 1.334 . S
C3366 H3337 0.950 . S
C3366 C3365 1.334 . S
C3366 C3367 1.287 . S
C3367 C3366 1.287 . S
C3367 C3368 1.524 . S
C3367 H3370 0.999 . S
C3368 H3338 0.950 . S
C3368 C3367 1.524 . S
C3368 C3369 1.415 . S
C3369 H3339 0.950 . S
C3369 C3364 1.363 . S
C3369 C3368 1.415 . S
H3370 C3367 0.999 . S
H3371 C3352 0.913 . S
H3372 C3390 0.951 . S
H3373 C3392 0.951 . S
H3374 C3394 0.950 . S
H3375 C3395 0.950 . S
H3376 C3397 0.950 . S
H3377 C3400 0.950 . S
H3378 C3401 0.950 . S
H3379 C3403 0.950 . S
H3380 C3404 0.950 . S
H3381 C3405 0.951 . S
H3382 C3407 0.951 . S
H3383 C3409 0.950 . S
H3384 C3410 0.950 . S
H3385 C3412 0.950 . S
H3386 C3415 0.950 . S
H3387 C3416 0.950 . S
H3388 C3418 0.950 . S
H3389 C3419 0.950 1_655 S
C3390 H3372 0.951 . S
C3390 C3391 1.366 . S
C3390 C3392 1.388 . S
C3391 C3390 1.366 . S
C3391 C3395 1.385 . S
C3392 H3373 0.951 . S
C3392 C3390 1.388 . S
C3392 C3393 1.366 . S
C3393 C3392 1.366 . S
C3393 C3394 1.414 . S
C3393 C3396 1.499 . S
C3394 H3374 0.950 . S
C3394 C3393 1.414 . S
C3394 C3395 1.374 . S
C3395 H3375 0.950 . S
C3395 C3391 1.385 . S
C3395 C3394 1.374 . S
C3396 C3393 1.499 . S
C3396 C3397 1.373 . S
C3396 C3398 1.389 . S
C3397 H3376 0.950 . S
C3397 C3396 1.373 . S
C3397 C3413 1.377 1_655 S
C3398 C3396 1.389 . S
C3398 C3399 1.524 . S
C3398 C3412 1.377 1_655 S
C3399 C3398 1.524 . S
C3399 C3400 1.397 . S
C3399 C3404 1.363 . S
C3400 H3377 0.950 . S
C3400 C3399 1.397 . S
C3400 C3401 1.334 . S
C3401 H3378 0.950 . S
C3401 C3400 1.334 . S
C3401 C3402 1.287 . S
C3402 C3401 1.287 . S
C3402 C3403 1.524 . S
C3402 H3421 0.913 . S
C3403 H3379 0.950 . S
C3403 C3402 1.524 . S
C3403 C3404 1.415 . S
C3404 H3380 0.950 . S
C3404 C3399 1.363 . S
C3404 C3403 1.415 . S
C3405 H3381 0.951 . S
C3405 C3406 1.366 . S
C3405 C3407 1.388 . S
C3406 C3405 1.366 . S
C3406 C3410 1.385 . S
C3407 H3382 0.951 . S
C3407 C3405 1.388 . S
C3407 C3408 1.366 . S
C3408 C3407 1.366 . S
C3408 C3409 1.414 . S
C3408 C3411 1.499 . S
C3409 H3383 0.950 . S
C3409 C3408 1.414 . S
C3409 C3410 1.374 . S
C3410 H3384 0.950 . S
C3410 C3406 1.385 . S
C3410 C3409 1.374 . S
C3411 C3408 1.499 . S
C3411 C3412 1.373 . S
C3411 C3413 1.389 . S
C3412 H3385 0.950 . S
C3412 C3398 1.377 1_455 S
C3412 C3411 1.373 . S
C3413 C3397 1.377 1_455 S
C3413 C3411 1.389 . S
C3413 C3414 1.524 . S
C3414 C3413 1.524 . S
C3414 C3415 1.397 . S
C3414 C3419 1.363 . S
C3415 H3386 0.950 . S
C3415 C3414 1.397 . S
C3415 C3416 1.334 . S
C3416 H3387 0.950 . S
C3416 C3415 1.334 . S
C3416 C3417 1.287 . S
C3417 C3416 1.287 . S
C3417 C3418 1.524 . S
C3417 H3420 0.999 . S
C3418 H3388 0.950 . S
C3418 C3417 1.524 . S
C3418 C3419 1.415 . S
C3419 H3389 0.950 1_455 S
C3419 C3414 1.363 . S
C3419 C3418 1.415 . S
H3420 C3417 0.999 . S
H3421 C3402 0.913 . S
H3422 C3440 0.951 . S
H3423 C3442 0.951 . S
H3424 C3444 0.950 . S
H3425 C3445 0.950 . S
H3426 C3447 0.950 . S
H3427 C3450 0.950 . S
H3428 C3451 0.950 . S
H3429 C3453 0.950 . S
H3430 C3454 0.950 . S
H3431 C3455 0.951 . S
H3432 C3457 0.951 . S
H3433 C3459 0.950 . S
H3434 C3460 0.950 . S
H3435 C3462 0.950 . S
H3436 C3465 0.950 . S
H3437 C3466 0.950 . S
H3438 C3468 0.950 . S
H3439 C3469 0.950 . S
C3440 H3422 0.951 . S
C3440 C3441 1.366 . S
C3440 C3442 1.388 . S
C3441 C3440 1.366 . S
C3441 C3445 1.385 . S
C3442 H3423 0.951 . S
C3442 C3440 1.388 . S
C3442 C3443 1.366 . S
C3443 C3442 1.366 . S
C3443 C3444 1.414 . S
C3443 C3446 1.499 . S
C3444 H3424 0.950 . S
C3444 C3443 1.414 . S
C3444 C3445 1.374 . S
C3445 H3425 0.950 . S
C3445 C3441 1.385 . S
C3445 C3444 1.374 . S
C3446 C3443 1.499 . S
C3446 C3447 1.373 . S
C3446 C3448 1.389 . S
C3447 H3426 0.950 . S
C3447 C3446 1.373 . S
C3447 C3463 1.377 . S
C3448 C3446 1.389 . S
C3448 C3449 1.524 . S
C3448 C3462 1.377 . S
C3449 C3448 1.524 . S
C3449 C3450 1.397 . S
C3449 C3454 1.363 . S
C3450 H3427 0.950 . S
C3450 C3449 1.397 . S
C3450 C3451 1.334 . S
C3451 H3428 0.950 . S
C3451 C3450 1.334 . S
C3451 C3452 1.287 . S
C3452 C3451 1.287 . S
C3452 C3453 1.524 . S
C3452 H3471 0.913 . S
C3453 H3429 0.950 . S
C3453 C3452 1.524 . S
C3453 C3454 1.415 . S
C3454 H3430 0.950 . S
C3454 C3449 1.363 . S
C3454 C3453 1.415 . S
C3455 H3431 0.951 . S
C3455 C3456 1.366 . S
C3455 C3457 1.388 . S
C3456 C3455 1.366 . S
C3456 C3460 1.385 . S
C3457 H3432 0.951 . S
C3457 C3455 1.388 . S
C3457 C3458 1.366 . S
C3458 C3457 1.366 . S
C3458 C3459 1.414 . S
C3458 C3461 1.499 . S
C3459 H3433 0.950 . S
C3459 C3458 1.414 . S
C3459 C3460 1.374 . S
C3460 H3434 0.950 . S
C3460 C3456 1.385 . S
C3460 C3459 1.374 . S
C3461 C3458 1.499 . S
C3461 C3462 1.373 . S
C3461 C3463 1.389 . S
C3462 H3435 0.950 . S
C3462 C3448 1.377 . S
C3462 C3461 1.373 . S
C3463 C3447 1.377 . S
C3463 C3461 1.389 . S
C3463 C3464 1.524 . S
C3464 C3463 1.524 . S
C3464 C3465 1.397 . S
C3464 C3469 1.363 . S
C3465 H3436 0.950 . S
C3465 C3464 1.397 . S
C3465 C3466 1.334 . S
C3466 H3437 0.950 . S
C3466 C3465 1.334 . S
C3466 C3467 1.287 . S
C3467 C3466 1.287 . S
C3467 C3468 1.524 . S
C3467 H3470 0.999 . S
C3468 H3438 0.950 . S
C3468 C3467 1.524 . S
C3468 C3469 1.415 . S
C3469 H3439 0.950 . S
C3469 C3464 1.363 . S
C3469 C3468 1.415 . S
H3470 C3467 0.999 . S
H3471 C3452 0.913 . S
H3472 C3490 0.951 . S
H3473 C3492 0.951 . S
H3474 C3494 0.950 . S
H3475 C3495 0.950 . S
H3476 C3497 0.950 . S
H3477 C3500 0.950 . S
H3478 C3501 0.950 . S
H3479 C3503 0.950 . S
H3480 C3504 0.950 . S
H3481 C3505 0.951 . S
H3482 C3507 0.951 . S
H3483 C3509 0.950 . S
H3484 C3510 0.950 . S
H3485 C3512 0.950 1_565 S
H3486 C3515 0.950 . S
H3487 C3516 0.950 . S
H3488 C3518 0.950 . S
H3489 C3519 0.950 . S
C3490 H3472 0.951 . S
C3490 C3491 1.366 . S
C3490 C3492 1.388 . S
C3491 C3490 1.366 . S
C3491 C3495 1.385 . S
C3492 H3473 0.951 . S
C3492 C3490 1.388 . S
C3492 C3493 1.366 . S
C3493 C3492 1.366 . S
C3493 C3494 1.414 . S
C3493 C3496 1.499 . S
C3494 H3474 0.950 . S
C3494 C3493 1.414 . S
C3494 C3495 1.374 . S
C3495 H3475 0.950 . S
C3495 C3491 1.385 . S
C3495 C3494 1.374 . S
C3496 C3493 1.499 . S
C3496 C3497 1.373 . S
C3496 C3498 1.389 . S
C3497 H3476 0.950 . S
C3497 C3496 1.373 . S
C3497 C3513 1.377 . S
C3498 C3496 1.389 . S
C3498 C3499 1.524 . S
C3498 C3512 1.377 . S
C3499 C3498 1.524 . S
C3499 C3500 1.397 . S
C3499 C3504 1.363 . S
C3500 H3477 0.950 . S
C3500 C3499 1.397 . S
C3500 C3501 1.334 . S
C3501 H3478 0.950 . S
C3501 C3500 1.334 . S
C3501 C3502 1.287 . S
C3502 C3501 1.287 . S
C3502 C3503 1.524 . S
C3502 H3521 0.913 . S
C3503 H3479 0.950 . S
C3503 C3502 1.524 . S
C3503 C3504 1.415 . S
C3504 H3480 0.950 . S
C3504 C3499 1.363 . S
C3504 C3503 1.415 . S
C3505 H3481 0.951 . S
C3505 C3506 1.366 . S
C3505 C3507 1.388 . S
C3506 C3505 1.366 . S
C3506 C3510 1.385 . S
C3507 H3482 0.951 . S
C3507 C3505 1.388 . S
C3507 C3508 1.366 . S
C3508 C3507 1.366 . S
C3508 C3509 1.414 . S
C3508 C3511 1.499 . S
C3509 H3483 0.950 . S
C3509 C3508 1.414 . S
C3509 C3510 1.374 . S
C3510 H3484 0.950 . S
C3510 C3506 1.385 . S
C3510 C3509 1.374 . S
C3511 C3508 1.499 . S
C3511 C3512 1.373 1_565 S
C3511 C3513 1.389 1_565 S
C3512 H3485 0.950 1_545 S
C3512 C3498 1.377 . S
C3512 C3511 1.373 1_545 S
C3513 C3497 1.377 . S
C3513 C3511 1.389 1_545 S
C3513 C3514 1.524 1_545 S
C3514 C3513 1.524 1_565 S
C3514 C3515 1.397 . S
C3514 C3519 1.363 1_565 S
C3515 H3486 0.950 . S
C3515 C3514 1.397 . S
C3515 C3516 1.334 . S
C3516 H3487 0.950 . S
C3516 C3515 1.334 . S
C3516 C3517 1.287 . S
C3517 C3516 1.287 . S
C3517 C3518 1.524 . S
C3517 H3520 0.999 . S
C3518 H3488 0.950 . S
C3518 C3517 1.524 . S
C3518 C3519 1.415 1_565 S
C3519 H3489 0.950 . S
C3519 C3514 1.363 1_545 S
C3519 C3518 1.415 1_545 S
H3520 C3517 0.999 . S
H3521 C3502 0.913 . S
H3522 C3540 0.951 . S
H3523 C3542 0.951 . S
H3524 C3544 0.950 . S
H3525 C3545 0.950 . S
H3526 C3547 0.950 . S
H3527 C3550 0.950 . S
H3528 C3551 0.950 . S
H3529 C3553 0.950 . S
H3530 C3554 0.950 . S
H3531 C3555 0.951 . S
H3532 C3557 0.951 . S
H3533 C3559 0.950 . S
H3534 C3560 0.950 . S
H3535 C3562 0.950 . S
H3536 C3565 0.950 . S
H3537 C3566 0.950 . S
H3538 C3568 0.950 . S
H3539 C3569 0.950 . S
C3540 H3522 0.951 . S
C3540 C3541 1.366 . S
C3540 C3542 1.388 . S
C3541 C3540 1.366 . S
C3541 C3545 1.385 . S
C3542 H3523 0.951 . S
C3542 C3540 1.388 . S
C3542 C3543 1.366 . S
C3543 C3542 1.366 . S
C3543 C3544 1.414 . S
C3543 C3546 1.499 . S
C3544 H3524 0.950 . S
C3544 C3543 1.414 . S
C3544 C3545 1.374 . S
C3545 H3525 0.950 . S
C3545 C3541 1.385 . S
C3545 C3544 1.374 . S
C3546 C3543 1.499 . S
C3546 C3547 1.373 . S
C3546 C3548 1.389 . S
C3547 H3526 0.950 . S
C3547 C3546 1.373 . S
C3547 C3563 1.377 . S
C3548 C3546 1.389 . S
C3548 C3549 1.524 . S
C3548 C3562 1.377 . S
C3549 C3548 1.524 . S
C3549 C3550 1.397 . S
C3549 C3554 1.363 . S
C3550 H3527 0.950 . S
C3550 C3549 1.397 . S
C3550 C3551 1.334 . S
C3551 H3528 0.950 . S
C3551 C3550 1.334 . S
C3551 C3552 1.287 . S
C3552 C3551 1.287 . S
C3552 C3553 1.524 . S
C3552 H3571 0.913 . S
C3553 H3529 0.950 . S
C3553 C3552 1.524 . S
C3553 C3554 1.415 . S
C3554 H3530 0.950 . S
C3554 C3549 1.363 . S
C3554 C3553 1.415 . S
C3555 H3531 0.951 . S
C3555 C3556 1.366 . S
C3555 C3557 1.388 . S
C3556 C3555 1.366 . S
C3556 C3560 1.385 . S
C3557 H3532 0.951 . S
C3557 C3555 1.388 . S
C3557 C3558 1.366 . S
C3558 C3557 1.366 . S
C3558 C3559 1.414 . S
C3558 C3561 1.499 . S
C3559 H3533 0.950 . S
C3559 C3558 1.414 . S
C3559 C3560 1.374 . S
C3560 H3534 0.950 . S
C3560 C3556 1.385 . S
C3560 C3559 1.374 . S
C3561 C3558 1.499 . S
C3561 C3562 1.373 . S
C3561 C3563 1.389 . S
C3562 H3535 0.950 . S
C3562 C3548 1.377 . S
C3562 C3561 1.373 . S
C3563 C3547 1.377 . S
C3563 C3561 1.389 . S
C3563 C3564 1.524 . S
C3564 C3563 1.524 . S
C3564 C3565 1.397 . S
C3564 C3569 1.363 . S
C3565 H3536 0.950 . S
C3565 C3564 1.397 . S
C3565 C3566 1.334 . S
C3566 H3537 0.950 . S
C3566 C3565 1.334 . S
C3566 C3567 1.287 . S
C3567 C3566 1.287 . S
C3567 C3568 1.524 . S
C3567 H3570 0.999 . S
C3568 H3538 0.950 . S
C3568 C3567 1.524 . S
C3568 C3569 1.415 . S
C3569 H3539 0.950 . S
C3569 C3564 1.363 . S
C3569 C3568 1.415 . S
H3570 C3567 0.999 . S
H3571 C3552 0.913 . S
H3572 C3590 0.951 . S
H3573 C3592 0.951 . S
H3574 C3594 0.950 . S
H3575 C3595 0.950 . S
H3576 C3597 0.950 . S
H3577 C3600 0.950 . S
H3578 C3601 0.950 . S
H3579 C3603 0.950 . S
H3580 C3604 0.950 1_565 S
H3581 C3605 0.951 . S
H3582 C3607 0.951 . S
H3583 C3609 0.950 . S
H3584 C3610 0.950 . S
H3585 C3612 0.950 . S
H3586 C3615 0.950 . S
H3587 C3616 0.950 . S
H3588 C3618 0.950 . S
H3589 C3619 0.950 . S
C3590 H3572 0.951 . S
C3590 C3591 1.366 . S
C3590 C3592 1.388 . S
C3591 C3590 1.366 . S
C3591 C3595 1.385 . S
C3592 H3573 0.951 . S
C3592 C3590 1.388 . S
C3592 C3593 1.366 . S
C3593 C3592 1.366 . S
C3593 C3594 1.414 . S
C3593 C3596 1.499 . S
C3594 H3574 0.950 . S
C3594 C3593 1.414 . S
C3594 C3595 1.374 . S
C3595 H3575 0.950 . S
C3595 C3591 1.385 . S
C3595 C3594 1.374 . S
C3596 C3593 1.499 . S
C3596 C3597 1.373 . S
C3596 C3598 1.431 . S
C3597 H3576 0.950 . S
C3597 C3596 1.373 . S
C3597 C3613 1.377 1_545 S
C3598 C3596 1.431 . S
C3598 C3599 1.543 . S
C3598 C3612 1.314 1_545 S
C3599 C3598 1.543 . S
C3599 C3600 1.397 . S
C3599 C3604 1.363 . S
C3600 H3577 0.950 . S
C3600 C3599 1.397 . S
C3600 C3601 1.334 . S
C3601 H3578 0.950 . S
C3601 C3600 1.334 . S
C3601 C3602 1.287 . S
C3602 C3601 1.287 . S
C3602 C3603 1.524 . S
C3602 H3621 0.913 . S
C3603 H3579 0.950 . S
C3603 C3602 1.524 . S
C3603 C3604 1.415 . S
C3604 H3580 0.950 1_545 S
C3604 C3599 1.363 . S
C3604 C3603 1.415 . S
C3605 H3581 0.951 . S
C3605 C3606 1.366 . S
C3605 C3607 1.388 . S
C3606 C3605 1.366 . S
C3606 C3610 1.385 . S
C3607 H3582 0.951 . S
C3607 C3605 1.388 . S
C3607 C3608 1.366 . S
C3608 C3607 1.366 . S
C3608 C3609 1.414 . S
C3608 C3611 1.499 . S
C3609 H3583 0.950 . S
C3609 C3608 1.414 . S
C3609 C3610 1.374 . S
C3610 H3584 0.950 . S
C3610 C3606 1.385 . S
C3610 C3609 1.374 . S
C3611 C3608 1.499 . S
C3611 C3612 1.373 . S
C3611 C3613 1.389 . S
C3612 H3585 0.950 . S
C3612 C3598 1.314 1_565 S
C3612 C3611 1.373 . S
C3613 C3597 1.377 1_565 S
C3613 C3611 1.389 . S
C3613 C3614 1.524 . S
C3614 C3613 1.524 . S
C3614 C3615 1.397 . S
C3614 C3619 1.363 . S
C3615 H3586 0.950 . S
C3615 C3614 1.397 . S
C3615 C3616 1.334 . S
C3616 H3587 0.950 . S
C3616 C3615 1.334 . S
C3616 C3617 1.287 . S
C3617 C3616 1.287 . S
C3617 C3618 1.524 . S
C3617 H3620 0.999 . S
C3618 H3588 0.950 . S
C3618 C3617 1.524 . S
C3618 C3619 1.415 . S
C3619 H3589 0.950 . S
C3619 C3614 1.363 . S
C3619 C3618 1.415 . S
H3620 C3617 0.999 . S
H3621 C3602 0.913 . S
H3622 C3640 0.951 . S
H3623 C3642 0.951 . S
H3624 C3644 0.950 . S
H3625 C3645 0.950 . S
H3626 C3647 0.950 . S
H3627 C3650 0.950 . S
H3628 C3651 0.950 . S
H3629 C3653 0.950 . S
H3630 C3654 0.950 . S
H3631 C3655 0.951 . S
H3632 C3657 0.951 . S
H3633 C3659 0.950 . S
H3634 C3660 0.950 . S
H3635 C3662 0.950 . S
H3636 C3665 0.950 . S
H3637 C3666 0.950 . S
H3638 C3668 0.950 . S
H3639 C3669 0.950 . S
C3640 H3622 0.951 . S
C3640 C3641 1.366 . S
C3640 C3642 1.388 . S
C3641 C3640 1.366 . S
C3641 C3645 1.385 . S
C3642 H3623 0.951 . S
C3642 C3640 1.388 . S
C3642 C3643 1.366 . S
C3643 C3642 1.366 . S
C3643 C3644 1.414 . S
C3643 C3646 1.499 . S
C3644 H3624 0.950 . S
C3644 C3643 1.414 . S
C3644 C3645 1.374 . S
C3645 H3625 0.950 . S
C3645 C3641 1.385 . S
C3645 C3644 1.374 . S
C3646 C3643 1.499 . S
C3646 C3647 1.373 . S
C3646 C3648 1.389 . S
C3647 H3626 0.950 . S
C3647 C3646 1.373 . S
C3647 C3663 1.377 . S
C3648 C3646 1.389 . S
C3648 C3649 1.524 . S
C3648 C3662 1.377 . S
C3649 C3648 1.524 . S
C3649 C3650 1.397 . S
C3649 C3654 1.363 . S
C3650 H3627 0.950 . S
C3650 C3649 1.397 . S
C3650 C3651 1.334 . S
C3651 H3628 0.950 . S
C3651 C3650 1.334 . S
C3651 C3652 1.287 . S
C3652 C3651 1.287 . S
C3652 C3653 1.524 . S
C3652 H3671 0.913 . S
C3653 H3629 0.950 . S
C3653 C3652 1.524 . S
C3653 C3654 1.415 . S
C3654 H3630 0.950 . S
C3654 C3649 1.363 . S
C3654 C3653 1.415 . S
C3655 H3631 0.951 . S
C3655 C3656 1.366 . S
C3655 C3657 1.388 . S
C3656 C3655 1.366 . S
C3656 C3660 1.385 . S
C3657 H3632 0.951 . S
C3657 C3655 1.388 . S
C3657 C3658 1.366 . S
C3658 C3657 1.366 . S
C3658 C3659 1.414 . S
C3658 C3661 1.499 . S
C3659 H3633 0.950 . S
C3659 C3658 1.414 . S
C3659 C3660 1.374 . S
C3660 H3634 0.950 . S
C3660 C3656 1.385 . S
C3660 C3659 1.374 . S
C3661 C3658 1.499 . S
C3661 C3662 1.373 . S
C3661 C3663 1.389 . S
C3662 H3635 0.950 . S
C3662 C3648 1.377 . S
C3662 C3661 1.373 . S
C3663 C3647 1.377 . S
C3663 C3661 1.389 . S
C3663 C3664 1.524 . S
C3664 C3663 1.524 . S
C3664 C3665 1.397 . S
C3664 C3669 1.363 . S
C3665 H3636 0.950 . S
C3665 C3664 1.397 . S
C3665 C3666 1.334 . S
C3666 H3637 0.950 . S
C3666 C3665 1.334 . S
C3666 C3667 1.287 . S
C3667 C3666 1.287 . S
C3667 C3668 1.524 . S
C3667 H3670 0.999 . S
C3668 H3638 0.950 . S
C3668 C3667 1.524 . S
C3668 C3669 1.415 . S
C3669 H3639 0.950 . S
C3669 C3664 1.363 . S
C3669 C3668 1.415 . S
H3670 C3667 0.999 . S
H3671 C3652 0.913 . S
H3672 C3690 0.951 . S
H3673 C3692 0.951 . S
H3674 C3694 0.950 . S
H3675 C3695 0.950 . S
H3676 C3697 0.950 . S
H3677 C3700 0.950 . S
H3678 C3701 0.950 . S
H3679 C3703 0.950 . S
H3680 C3704 0.950 . S
H3681 C3705 0.951 . S
H3682 C3707 0.951 . S
H3683 C3709 0.950 . S
H3684 C3710 0.950 . S
H3685 C3712 0.991 . S
H3686 C3715 0.950 . S
H3687 C3716 0.950 . S
H3688 C3718 0.950 . S
H3689 C3719 0.950 1_545 S
C3690 H3672 0.951 . S
C3690 C3691 1.366 . S
C3690 C3692 1.388 . S
C3691 C3690 1.366 . S
C3691 C3695 1.385 . S
C3692 H3673 0.951 . S
C3692 C3690 1.388 . S
C3692 C3693 1.366 . S
C3693 C3692 1.366 . S
C3693 C3694 1.414 . S
C3693 C3696 1.499 . S
C3694 H3674 0.950 . S
C3694 C3693 1.414 . S
C3694 C3695 1.374 . S
C3695 H3675 0.950 . S
C3695 C3691 1.385 . S
C3695 C3694 1.374 . S
C3696 C3693 1.499 . S
C3696 C3697 1.373 . S
C3696 C3698 1.389 . S
C3697 H3676 0.950 . S
C3697 C3696 1.373 . S
C3697 C3713 1.343 1_545 S
C3698 C3696 1.389 . S
C3698 C3699 1.524 . S
C3698 C3712 1.305 1_545 S
C3699 C3698 1.524 . S
C3699 C3700 1.397 . S
C3699 C3704 1.363 . S
C3700 H3677 0.950 . S
C3700 C3699 1.397 . S
C3700 C3701 1.334 . S
C3701 H3678 0.950 . S
C3701 C3700 1.334 . S
C3701 C3702 1.287 . S
C3702 C3701 1.287 . S
C3702 C3703 1.524 . S
C3702 H3721 0.913 . S
C3703 H3679 0.950 . S
C3703 C3702 1.524 . S
C3703 C3704 1.415 . S
C3704 H3680 0.950 . S
C3704 C3699 1.363 . S
C3704 C3703 1.415 . S
C3705 H3681 0.951 . S
C3705 C3706 1.366 . S
C3705 C3707 1.388 . S
C3706 C3705 1.366 . S
C3706 C3710 1.385 . S
C3707 H3682 0.951 . S
C3707 C3705 1.388 . S
C3707 C3708 1.366 . S
C3708 C3707 1.366 . S
C3708 C3709 1.414 . S
C3708 C3711 1.499 . S
C3709 H3683 0.950 . S
C3709 C3708 1.414 . S
C3709 C3710 1.374 . S
C3710 H3684 0.950 . S
C3710 C3706 1.385 . S
C3710 C3709 1.374 . S
C3711 C3708 1.499 . S
C3711 C3712 1.408 . S
C3711 C3713 1.408 . S
C3712 H3685 0.991 . S
C3712 C3698 1.305 1_565 S
C3712 C3711 1.408 . S
C3713 C3697 1.343 1_565 S
C3713 C3711 1.408 . S
C3713 C3714 1.537 . S
C3714 C3713 1.537 . S
C3714 C3715 1.397 . S
C3714 C3719 1.363 . S
C3715 H3686 0.950 . S
C3715 C3714 1.397 . S
C3715 C3716 1.334 . S
C3716 H3687 0.950 . S
C3716 C3715 1.334 . S
C3716 C3717 1.287 . S
C3717 C3716 1.287 . S
C3717 C3718 1.524 . S
C3717 H3720 0.999 . S
C3718 H3688 0.950 . S
C3718 C3717 1.524 . S
C3718 C3719 1.415 . S
C3719 H3689 0.950 1_565 S
C3719 C3714 1.363 . S
C3719 C3718 1.415 . S
H3720 C3717 0.999 . S
H3721 C3702 0.913 . S
H3722 C3740 0.951 . S
H3723 C3742 0.951 . S
H3724 C3744 0.950 . S
H3725 C3745 0.950 . S
H3726 C3747 0.950 . S
H3727 C3750 0.950 . S
H3728 C3751 0.950 . S
H3729 C3753 0.950 . S
H3730 C3754 0.950 . S
H3731 C3755 0.951 . S
H3732 C3757 0.951 . S
H3733 C3759 0.950 . S
H3734 C3760 0.950 . S
H3735 C3762 0.950 . S
H3736 C3765 0.950 . S
H3737 C3766 0.950 . S
H3738 C3768 0.950 . S
H3739 C3769 0.950 . S
C3740 H3722 0.951 . S
C3740 C3741 1.366 . S
C3740 C3742 1.388 . S
C3741 C3740 1.366 . S
C3741 C3745 1.385 . S
C3742 H3723 0.951 . S
C3742 C3740 1.388 . S
C3742 C3743 1.366 . S
C3743 C3742 1.366 . S
C3743 C3744 1.414 . S
C3743 C3746 1.499 . S
C3744 H3724 0.950 . S
C3744 C3743 1.414 . S
C3744 C3745 1.374 . S
C3745 H3725 0.950 . S
C3745 C3741 1.385 . S
C3745 C3744 1.374 . S
C3746 C3743 1.499 . S
C3746 C3747 1.373 . S
C3746 C3748 1.389 . S
C3747 H3726 0.950 . S
C3747 C3746 1.373 . S
C3747 C3763 1.377 . S
C3748 C3746 1.389 . S
C3748 C3749 1.524 . S
C3748 C3762 1.377 . S
C3749 C3748 1.524 . S
C3749 C3750 1.397 . S
C3749 C3754 1.363 . S
C3750 H3727 0.950 . S
C3750 C3749 1.397 . S
C3750 C3751 1.334 . S
C3751 H3728 0.950 . S
C3751 C3750 1.334 . S
C3751 C3752 1.287 . S
C3752 C3751 1.287 . S
C3752 C3753 1.524 . S
C3752 H3771 0.913 . S
C3753 H3729 0.950 . S
C3753 C3752 1.524 . S
C3753 C3754 1.415 . S
C3754 H3730 0.950 . S
C3754 C3749 1.363 . S
C3754 C3753 1.415 . S
C3755 H3731 0.951 . S
C3755 C3756 1.366 . S
C3755 C3757 1.388 . S
C3756 C3755 1.366 . S
C3756 C3760 1.385 . S
C3757 H3732 0.951 . S
C3757 C3755 1.388 . S
C3757 C3758 1.366 . S
C3758 C3757 1.366 . S
C3758 C3759 1.414 . S
C3758 C3761 1.499 . S
C3759 H3733 0.950 . S
C3759 C3758 1.414 . S
C3759 C3760 1.374 . S
C3760 H3734 0.950 . S
C3760 C3756 1.385 . S
C3760 C3759 1.374 . S
C3761 C3758 1.499 . S
C3761 C3762 1.373 . S
C3761 C3763 1.389 . S
C3762 H3735 0.950 . S
C3762 C3748 1.377 . S
C3762 C3761 1.373 . S
C3763 C3747 1.377 . S
C3763 C3761 1.389 . S
C3763 C3764 1.524 . S
C3764 C3763 1.524 . S
C3764 C3765 1.397 . S
C3764 C3769 1.363 . S
C3765 H3736 0.950 . S
C3765 C3764 1.397 . S
C3765 C3766 1.334 . S
C3766 H3737 0.950 . S
C3766 C3765 1.334 . S
C3766 C3767 1.287 . S
C3767 C3766 1.287 . S
C3767 C3768 1.524 . S
C3767 H3770 0.999 . S
C3768 H3738 0.950 . S
C3768 C3767 1.524 . S
C3768 C3769 1.415 . S
C3769 H3739 0.950 . S
C3769 C3764 1.363 . S
C3769 C3768 1.415 . S
H3770 C3767 0.999 . S
H3771 C3752 0.913 . S
H3772 C3790 0.951 . S
H3773 C3792 0.951 . S
H3774 C3794 0.950 . S
H3775 C3795 0.950 . S
H3776 C3797 0.932 1_545 S
H3777 C3800 0.950 . S
H3778 C3801 0.950 . S
H3779 C3803 0.955 . S
H3780 C3804 0.950 . S
H3781 C3805 0.951 . S
H3782 C3807 0.951 . S
H3783 C3809 0.950 . S
H3784 C3810 0.950 . S
H3785 C3812 0.950 . S
H3786 C3815 0.950 . S
H3787 C3816 0.950 . S
H3788 C3818 0.950 . S
H3789 C3819 0.950 . S
C3790 H3772 0.951 . S
C3790 C3791 1.366 . S
C3790 C3792 1.388 . S
C3791 C3790 1.366 . S
C3791 C3795 1.385 . S
C3792 H3773 0.951 . S
C3792 C3790 1.388 . S
C3792 C3793 1.366 . S
C3793 C3792 1.366 . S
C3793 C3794 1.414 . S
C3793 C3796 1.499 . S
C3794 H3774 0.950 . S
C3794 C3793 1.414 . S
C3794 C3795 1.374 . S
C3795 H3775 0.950 . S
C3795 C3791 1.385 . S
C3795 C3794 1.374 . S
C3796 C3793 1.499 . S
C3796 C3797 1.373 1_545 S
C3796 C3798 1.389 1_545 S
C3797 H3776 0.932 1_565 S
C3797 C3796 1.373 1_565 S
C3797 C3813 1.377 . S
C3798 C3796 1.389 1_565 S
C3798 C3799 1.525 1_565 S
C3798 C3812 1.377 . S
C3799 C3798 1.525 1_545 S
C3799 C3800 1.397 . S
C3799 C3804 1.363 1_545 S
C3800 H3777 0.950 . S
C3800 C3799 1.397 . S
C3800 C3801 1.334 . S
C3801 H3778 0.950 . S
C3801 C3800 1.334 . S
C3801 C3802 1.287 . S
C3802 C3801 1.287 . S
C3802 C3803 1.524 . S
C3802 H3821 0.913 . S
C3803 H3779 0.955 . S
C3803 C3802 1.524 . S
C3803 C3804 1.415 1_545 S
C3804 H3780 0.950 . S
C3804 C3799 1.363 1_565 S
C3804 C3803 1.415 1_565 S
C3805 H3781 0.951 . S
C3805 C3806 1.366 . S
C3805 C3807 1.388 . S
C3806 C3805 1.366 . S
C3806 C3810 1.385 . S
C3807 H3782 0.951 . S
C3807 C3805 1.388 . S
C3807 C3808 1.366 . S
C3808 C3807 1.366 . S
C3808 C3809 1.414 . S
C3808 C3811 1.499 . S
C3809 H3783 0.950 . S
C3809 C3808 1.414 . S
C3809 C3810 1.374 . S
C3810 H3784 0.950 . S
C3810 C3806 1.385 . S
C3810 C3809 1.374 . S
C3811 C3808 1.499 . S
C3811 C3812 1.373 . S
C3811 C3813 1.389 . S
C3812 H3785 0.950 . S
C3812 C3798 1.377 . S
C3812 C3811 1.373 . S
C3813 C3797 1.377 . S
C3813 C3811 1.389 . S
C3813 C3814 1.524 . S
C3814 C3813 1.524 . S
C3814 C3815 1.397 . S
C3814 C3819 1.363 . S
C3815 H3786 0.950 . S
C3815 C3814 1.397 . S
C3815 C3816 1.334 . S
C3816 H3787 0.950 . S
C3816 C3815 1.334 . S
C3816 C3817 1.287 . S
C3817 C3816 1.287 . S
C3817 C3818 1.524 . S
C3817 H3820 0.999 . S
C3818 H3788 0.950 . S
C3818 C3817 1.524 . S
C3818 C3819 1.415 . S
C3819 H3789 0.950 . S
C3819 C3814 1.363 . S
C3819 C3818 1.415 . S
H3820 C3817 0.999 . S
H3821 C3802 0.913 . S
H3822 C3840 0.951 . S
H3823 C3842 0.951 . S
H3824 C3844 0.950 . S
H3825 C3845 0.950 . S
H3826 C3847 0.950 . S
H3827 C3850 0.950 . S
H3828 C3851 0.950 . S
H3829 C3853 0.950 . S
H3830 C3854 0.950 . S
H3831 C3855 0.951 . S
H3832 C3857 0.951 . S
H3833 C3859 0.950 . S
H3834 C3860 0.950 . S
H3835 C3862 0.950 . S
H3836 C3865 0.950 . S
H3837 C3866 0.950 . S
H3838 C3868 0.950 . S
H3839 C3869 0.950 . S
C3840 H3822 0.951 . S
C3840 C3841 1.366 . S
C3840 C3842 1.388 . S
C3841 C3840 1.366 . S
C3841 C3845 1.385 . S
C3842 H3823 0.951 . S
C3842 C3840 1.388 . S
C3842 C3843 1.366 . S
C3843 C3842 1.366 . S
C3843 C3844 1.414 . S
C3843 C3846 1.499 . S
C3844 H3824 0.950 . S
C3844 C3843 1.414 . S
C3844 C3845 1.374 . S
C3845 H3825 0.950 . S
C3845 C3841 1.385 . S
C3845 C3844 1.374 . S
C3846 C3843 1.499 . S
C3846 C3847 1.373 . S
C3846 C3848 1.389 . S
C3847 H3826 0.950 . S
C3847 C3846 1.373 . S
C3847 C3863 1.377 . S
C3848 C3846 1.389 . S
C3848 C3849 1.524 . S
C3848 C3862 1.377 . S
C3849 C3848 1.524 . S
C3849 C3850 1.397 . S
C3849 C3854 1.363 . S
C3850 H3827 0.950 . S
C3850 C3849 1.397 . S
C3850 C3851 1.334 . S
C3851 H3828 0.950 . S
C3851 C3850 1.334 . S
C3851 C3852 1.287 . S
C3852 C3851 1.287 . S
C3852 C3853 1.524 . S
C3852 H3871 0.913 . S
C3853 H3829 0.950 . S
C3853 C3852 1.524 . S
C3853 C3854 1.415 . S
C3854 H3830 0.950 . S
C3854 C3849 1.363 . S
C3854 C3853 1.415 . S
C3855 H3831 0.951 . S
C3855 C3856 1.366 . S
C3855 C3857 1.388 . S
C3856 C3855 1.366 . S
C3856 C3860 1.385 . S
C3857 H3832 0.951 . S
C3857 C3855 1.388 . S
C3857 C3858 1.366 . S
C3858 C3857 1.366 . S
C3858 C3859 1.414 . S
C3858 C3861 1.499 . S
C3859 H3833 0.950 . S
C3859 C3858 1.414 . S
C3859 C3860 1.374 . S
C3860 H3834 0.950 . S
C3860 C3856 1.385 . S
C3860 C3859 1.374 . S
C3861 C3858 1.499 . S
C3861 C3862 1.373 . S
C3861 C3863 1.389 . S
C3862 H3835 0.950 . S
C3862 C3848 1.377 . S
C3862 C3861 1.373 . S
C3863 C3847 1.377 . S
C3863 C3861 1.389 . S
C3863 C3864 1.524 . S
C3864 C3863 1.524 . S
C3864 C3865 1.397 . S
C3864 C3869 1.363 . S
C3865 H3836 0.950 . S
C3865 C3864 1.397 . S
C3865 C3866 1.334 . S
C3866 H3837 0.950 . S
C3866 C3865 1.334 . S
C3866 C3867 1.287 . S
C3867 C3866 1.287 . S
C3867 C3868 1.524 . S
C3867 H3870 0.999 . S
C3868 H3838 0.950 . S
C3868 C3867 1.524 . S
C3868 C3869 1.415 . S
C3869 H3839 0.950 . S
C3869 C3864 1.363 . S
C3869 C3868 1.415 . S
H3870 C3867 0.999 . S
H3871 C3852 0.913 . S
H3872 C3890 0.951 . S
H3873 C3892 0.951 . S
H3874 C3894 0.950 . S
H3875 C3895 0.950 . S
H3876 C3897 0.950 . S
H3877 C3900 0.950 . S
H3878 C3901 0.950 . S
H3879 C3903 0.950 . S
H3880 C3904 0.950 . S
H3881 C3905 0.951 . S
H3882 C3907 0.951 . S
H3883 C3909 0.950 . S
H3884 C3910 0.950 . S
H3885 C3912 0.950 . S
H3886 C3915 0.950 . S
H3887 C3916 0.950 . S
H3888 C3918 0.950 . S
H3889 C3919 0.950 . S
C3890 H3872 0.951 . S
C3890 C3891 1.366 . S
C3890 C3892 1.388 . S
C3891 C3890 1.366 . S
C3891 C3895 1.385 . S
C3892 H3873 0.951 . S
C3892 C3890 1.388 . S
C3892 C3893 1.366 . S
C3893 C3892 1.366 . S
C3893 C3894 1.414 . S
C3893 C3896 1.499 . S
C3894 H3874 0.950 . S
C3894 C3893 1.414 . S
C3894 C3895 1.374 . S
C3895 H3875 0.950 . S
C3895 C3891 1.385 . S
C3895 C3894 1.374 . S
C3896 C3893 1.499 . S
C3896 C3897 1.373 . S
C3896 C3898 1.389 . S
C3897 H3876 0.950 . S
C3897 C3896 1.373 . S
C3897 C3913 1.377 1_556 S
C3898 C3896 1.389 . S
C3898 C3899 1.524 . S
C3898 C3912 1.377 1_556 S
C3899 C3898 1.524 . S
C3899 C3900 1.397 . S
C3899 C3904 1.363 . S
C3900 H3877 0.950 . S
C3900 C3899 1.397 . S
C3900 C3901 1.334 . S
C3901 H3878 0.950 . S
C3901 C3900 1.334 . S
C3901 C3902 1.287 . S
C3902 C3901 1.287 . S
C3902 C3903 1.524 . S
C3902 H3921 0.913 . S
C3903 H3879 0.950 . S
C3903 C3902 1.524 . S
C3903 C3904 1.415 . S
C3904 H3880 0.950 . S
C3904 C3899 1.363 . S
C3904 C3903 1.415 . S
C3905 H3881 0.951 . S
C3905 C3906 1.366 . S
C3905 C3907 1.388 . S
C3906 C3905 1.366 . S
C3906 C3910 1.385 . S
C3907 H3882 0.951 . S
C3907 C3905 1.388 . S
C3907 C3908 1.366 . S
C3908 C3907 1.366 . S
C3908 C3909 1.414 . S
C3908 C3911 1.499 . S
C3909 H3883 0.950 . S
C3909 C3908 1.414 . S
C3909 C3910 1.374 . S
C3910 H3884 0.950 . S
C3910 C3906 1.385 . S
C3910 C3909 1.374 . S
C3911 C3908 1.499 . S
C3911 C3912 1.373 . S
C3911 C3913 1.389 . S
C3912 H3885 0.950 . S
C3912 C3898 1.377 1_554 S
C3912 C3911 1.373 . S
C3913 C3897 1.377 1_554 S
C3913 C3911 1.389 . S
C3913 C3914 1.524 . S
C3914 C3913 1.524 . S
C3914 C3915 1.397 . S
C3914 C3919 1.363 . S
C3915 H3886 0.950 . S
C3915 C3914 1.397 . S
C3915 C3916 1.334 . S
C3916 H3887 0.950 . S
C3916 C3915 1.334 . S
C3916 C3917 1.287 . S
C3917 C3916 1.287 . S
C3917 C3918 1.524 . S
C3917 H3920 0.999 . S
C3918 H3888 0.950 . S
C3918 C3917 1.524 . S
C3918 C3919 1.415 . S
C3919 H3889 0.950 . S
C3919 C3914 1.363 . S
C3919 C3918 1.415 . S
H3920 C3917 0.999 . S
H3921 C3902 0.913 . S
H3922 C3940 0.951 . S
H3923 C3942 0.951 . S
H3924 C3944 0.950 . S
H3925 C3945 0.950 . S
H3926 C3947 0.950 . S
H3927 C3950 0.950 . S
H3928 C3951 0.950 . S
H3929 C3953 0.950 . S
H3930 C3954 0.950 . S
H3931 C3955 0.951 . S
H3932 C3957 0.951 . S
H3933 C3959 0.950 . S
H3934 C3960 0.950 . S
H3935 C3962 0.950 . S
H3936 C3965 0.950 . S
H3937 C3966 0.950 . S
H3938 C3968 0.950 . S
H3939 C3969 0.950 . S
C3940 H3922 0.951 . S
C3940 C3941 1.366 . S
C3940 C3942 1.388 . S
C3941 C3940 1.366 . S
C3941 C3945 1.385 . S
C3942 H3923 0.951 . S
C3942 C3940 1.388 . S
C3942 C3943 1.366 . S
C3943 C3942 1.366 . S
C3943 C3944 1.414 . S
C3943 C3946 1.499 . S
C3944 H3924 0.950 . S
C3944 C3943 1.414 . S
C3944 C3945 1.374 . S
C3945 H3925 0.950 . S
C3945 C3941 1.385 . S
C3945 C3944 1.374 . S
C3946 C3943 1.499 . S
C3946 C3947 1.373 . S
C3946 C3948 1.389 . S
C3947 H3926 0.950 . S
C3947 C3946 1.373 . S
C3947 C3963 1.377 1_556 S
C3948 C3946 1.389 . S
C3948 C3949 1.524 . S
C3948 C3962 1.377 1_556 S
C3949 C3948 1.524 . S
C3949 C3950 1.397 . S
C3949 C3954 1.363 . S
C3950 H3927 0.950 . S
C3950 C3949 1.397 . S
C3950 C3951 1.334 . S
C3951 H3928 0.950 . S
C3951 C3950 1.334 . S
C3951 C3952 1.287 . S
C3952 C3951 1.287 . S
C3952 C3953 1.524 . S
C3952 H3971 0.913 . S
C3953 H3929 0.950 . S
C3953 C3952 1.524 . S
C3953 C3954 1.415 . S
C3954 H3930 0.950 . S
C3954 C3949 1.363 . S
C3954 C3953 1.415 . S
C3955 H3931 0.951 . S
C3955 C3956 1.366 . S
C3955 C3957 1.388 . S
C3956 C3955 1.366 . S
C3956 C3960 1.385 . S
C3957 H3932 0.951 . S
C3957 C3955 1.388 . S
C3957 C3958 1.366 . S
C3958 C3957 1.366 . S
C3958 C3959 1.414 . S
C3958 C3961 1.499 . S
C3959 H3933 0.950 . S
C3959 C3958 1.414 . S
C3959 C3960 1.374 . S
C3960 H3934 0.950 . S
C3960 C3956 1.385 . S
C3960 C3959 1.374 . S
C3961 C3958 1.499 . S
C3961 C3962 1.373 . S
C3961 C3963 1.389 . S
C3962 H3935 0.950 . S
C3962 C3948 1.377 1_554 S
C3962 C3961 1.373 . S
C3963 C3947 1.377 1_554 S
C3963 C3961 1.389 . S
C3963 C3964 1.524 . S
C3964 C3963 1.524 . S
C3964 C3965 1.397 . S
C3964 C3969 1.363 . S
C3965 H3936 0.950 . S
C3965 C3964 1.397 . S
C3965 C3966 1.334 . S
C3966 H3937 0.950 . S
C3966 C3965 1.334 . S
C3966 C3967 1.287 . S
C3967 C3966 1.287 . S
C3967 C3968 1.524 . S
C3967 H3970 0.999 . S
C3968 H3938 0.950 . S
C3968 C3967 1.524 . S
C3968 C3969 1.415 . S
C3969 H3939 0.950 . S
C3969 C3964 1.363 . S
C3969 C3968 1.415 . S
H3970 C3967 0.999 . S
H3971 C3952 0.913 . S
H3972 C3990 0.951 . S
H3973 C3992 0.951 . S
H3974 C3994 0.950 . S
H3975 C3995 0.950 . S
H3976 C3997 0.950 . S
H3977 C4000 0.950 . S
H3978 C4001 0.950 . S
H3979 C4003 0.950 . S
H3980 C4004 0.950 . S
H3981 C4005 0.951 . S
H3982 C4007 0.951 . S
H3983 C4009 0.950 . S
H3984 C4010 0.950 . S
H3985 C4012 0.950 . S
H3986 C4015 0.950 . S
H3987 C4016 0.950 . S
H3988 C4018 0.950 . S
H3989 C4019 0.950 . S
C3990 H3972 0.951 . S
C3990 C3991 1.366 . S
C3990 C3992 1.388 . S
C3991 C3990 1.366 . S
C3991 C3995 1.385 . S
C3992 H3973 0.951 . S
C3992 C3990 1.388 . S
C3992 C3993 1.366 . S
C3993 C3992 1.366 . S
C3993 C3994 1.414 . S
C3993 C3996 1.499 . S
C3994 H3974 0.950 . S
C3994 C3993 1.414 . S
C3994 C3995 1.374 . S
C3995 H3975 0.950 . S
C3995 C3991 1.385 . S
C3995 C3994 1.374 . S
C3996 C3993 1.499 . S
C3996 C3997 1.373 . S
C3996 C3998 1.389 . S
C3997 H3976 0.950 . S
C3997 C3996 1.373 . S
C3997 C4013 1.377 . S
C3998 C3996 1.389 . S
C3998 C3999 1.524 . S
C3998 C4012 1.377 . S
C3999 C3998 1.524 . S
C3999 C4000 1.397 . S
C3999 C4004 1.363 . S
C4000 H3977 0.950 . S
C4000 C3999 1.397 . S
C4000 C4001 1.334 . S
C4001 H3978 0.950 . S
C4001 C4000 1.334 . S
C4001 C4002 1.287 . S
C4002 C4001 1.287 . S
C4002 C4003 1.524 . S
C4002 H4021 0.913 . S
C4003 H3979 0.950 . S
C4003 C4002 1.524 . S
C4003 C4004 1.415 . S
C4004 H3980 0.950 . S
C4004 C3999 1.363 . S
C4004 C4003 1.415 . S
C4005 H3981 0.951 . S
C4005 C4006 1.366 . S
C4005 C4007 1.388 . S
C4006 C4005 1.366 . S
C4006 C4010 1.385 . S
C4007 H3982 0.951 . S
C4007 C4005 1.388 . S
C4007 C4008 1.366 . S
C4008 C4007 1.366 . S
C4008 C4009 1.414 . S
C4008 C4011 1.499 . S
C4009 H3983 0.950 . S
C4009 C4008 1.414 . S
C4009 C4010 1.374 . S
C4010 H3984 0.950 . S
C4010 C4006 1.385 . S
C4010 C4009 1.374 . S
C4011 C4008 1.499 . S
C4011 C4012 1.373 . S
C4011 C4013 1.389 . S
C4012 H3985 0.950 . S
C4012 C3998 1.377 . S
C4012 C4011 1.373 . S
C4013 C3997 1.377 . S
C4013 C4011 1.389 . S
C4013 C4014 1.524 . S
C4014 C4013 1.524 . S
C4014 C4015 1.397 . S
C4014 C4019 1.363 . S
C4015 H3986 0.950 . S
C4015 C4014 1.397 . S
C4015 C4016 1.334 . S
C4016 H3987 0.950 . S
C4016 C4015 1.334 . S
C4016 C4017 1.287 . S
C4017 C4016 1.287 . S
C4017 C4018 1.524 . S
C4017 H4020 0.999 . S
C4018 H3988 0.950 . S
C4018 C4017 1.524 . S
C4018 C4019 1.415 . S
C4019 H3989 0.950 . S
C4019 C4014 1.363 . S
C4019 C4018 1.415 . S
H4020 C4017 0.999 . S
H4021 C4002 0.913 . S
H4022 C4040 0.951 . S
H4023 C4042 0.951 . S
H4024 C4044 0.950 1_554 S
H4025 C4045 0.950 . S
H4026 C4047 0.950 . S
H4027 C4050 0.950 . S
H4028 C4051 0.950 1_556 S
H4029 C4053 0.950 . S
H4030 C4054 0.950 . S
H4031 C4055 0.951 . S
H4032 C4057 0.951 . S
H4033 C4059 0.950 . S
H4034 C4060 0.950 . S
H4035 C4062 0.950 . S
H4036 C4065 0.950 . S
H4037 C4066 0.950 . S
H4038 C4068 0.950 . S
H4039 C4069 0.950 . S
C4040 H4022 0.951 . S
C4040 C4041 1.366 . S
C4040 C4042 1.388 . S
C4041 C4040 1.366 . S
C4041 C4045 1.385 . S
C4042 H4023 0.951 . S
C4042 C4040 1.388 . S
C4042 C4043 1.366 1_556 S
C4043 C4042 1.366 1_554 S
C4043 C4044 1.414 1_554 S
C4043 C4046 1.499 . S
C4044 H4024 0.950 1_556 S
C4044 C4043 1.414 1_556 S
C4044 C4045 1.374 . S
C4045 H4025 0.950 . S
C4045 C4041 1.385 . S
C4045 C4044 1.374 . S
C4046 C4043 1.499 . S
C4046 C4047 1.373 . S
C4046 C4048 1.389 . S
C4047 H4026 0.950 . S
C4047 C4046 1.373 . S
C4047 C4063 1.377 . S
C4048 C4046 1.389 . S
C4048 C4049 1.524 . S
C4048 C4062 1.377 . S
C4049 C4048 1.524 . S
C4049 C4050 1.397 . S
C4049 C4054 1.363 . S
C4050 H4027 0.950 . S
C4050 C4049 1.397 . S
C4050 C4051 1.334 . S
C4051 H4028 0.950 1_554 S
C4051 C4050 1.334 . S
C4051 C4052 1.287 . S
C4052 C4051 1.287 . S
C4052 C4053 1.524 . S
C4052 H4071 0.897 1_554 S
C4053 H4029 0.950 . S
C4053 C4052 1.524 . S
C4053 C4054 1.415 . S
C4054 H4030 0.950 . S
C4054 C4049 1.363 . S
C4054 C4053 1.415 . S
C4055 H4031 0.951 . S
C4055 C4056 1.366 . S
C4055 C4057 1.388 . S
C4056 C4055 1.366 . S
C4056 C4060 1.385 . S
C4057 H4032 0.951 . S
C4057 C4055 1.388 . S
C4057 C4058 1.366 . S
C4058 C4057 1.366 . S
C4058 C4059 1.414 . S
C4058 C4061 1.499 . S
C4059 H4033 0.950 . S
C4059 C4058 1.414 . S
C4059 C4060 1.374 . S
C4060 H4034 0.950 . S
C4060 C4056 1.385 . S
C4060 C4059 1.374 . S
C4061 C4058 1.499 . S
C4061 C4062 1.373 . S
C4061 C4063 1.389 . S
C4062 H4035 0.950 . S
C4062 C4048 1.377 . S
C4062 C4061 1.373 . S
C4063 C4047 1.377 . S
C4063 C4061 1.389 . S
C4063 C4064 1.524 . S
C4064 C4063 1.524 . S
C4064 C4065 1.397 . S
C4064 C4069 1.363 . S
C4065 H4036 0.950 . S
C4065 C4064 1.397 . S
C4065 C4066 1.334 . S
C4066 H4037 0.950 . S
C4066 C4065 1.334 . S
C4066 C4067 1.287 . S
C4067 C4066 1.287 . S
C4067 C4068 1.524 . S
C4067 H4070 0.999 . S
C4068 H4038 0.950 . S
C4068 C4067 1.524 . S
C4068 C4069 1.415 . S
C4069 H4039 0.950 . S
C4069 C4064 1.363 . S
C4069 C4068 1.415 . S
H4070 C4067 0.999 . S
H4071 C4052 0.897 1_556 S
H4072 C4090 0.951 . S
H4073 C4092 0.951 . S
H4074 C4094 0.950 . S
H4075 C4095 0.950 . S
H4076 C4097 0.950 . S
H4077 C4100 0.950 . S
H4078 C4101 0.950 . S
H4079 C4103 0.950 . S
H4080 C4104 0.950 . S
H4081 C4105 0.951 . S
H4082 C4107 0.951 . S
H4083 C4109 0.950 . S
H4084 C4110 0.950 . S
H4085 C4112 0.950 . S
H4086 C4115 0.950 . S
H4087 C4116 0.950 . S
H4088 C4118 0.950 . S
H4089 C4119 0.950 . S
C4090 H4072 0.951 . S
C4090 C4091 1.366 . S
C4090 C4092 1.388 . S
C4091 C4090 1.366 . S
C4091 C4095 1.385 . S
C4092 H4073 0.951 . S
C4092 C4090 1.388 . S
C4092 C4093 1.366 . S
C4093 C4092 1.366 . S
C4093 C4094 1.414 . S
C4093 C4096 1.499 . S
C4094 H4074 0.950 . S
C4094 C4093 1.414 . S
C4094 C4095 1.374 . S
C4095 H4075 0.950 . S
C4095 C4091 1.385 . S
C4095 C4094 1.374 . S
C4096 C4093 1.499 . S
C4096 C4097 1.373 . S
C4096 C4098 1.389 . S
C4097 H4076 0.950 . S
C4097 C4096 1.373 . S
C4097 C4113 1.377 . S
C4098 C4096 1.389 . S
C4098 C4099 1.524 . S
C4098 C4112 1.377 . S
C4099 C4098 1.524 . S
C4099 C4100 1.397 . S
C4099 C4104 1.363 . S
C4100 H4077 0.950 . S
C4100 C4099 1.397 . S
C4100 C4101 1.334 . S
C4101 H4078 0.950 . S
C4101 C4100 1.334 . S
C4101 C4102 1.287 . S
C4102 C4101 1.287 . S
C4102 C4103 1.524 . S
C4102 H4121 0.913 . S
C4103 H4079 0.950 . S
C4103 C4102 1.524 . S
C4103 C4104 1.415 . S
C4104 H4080 0.950 . S
C4104 C4099 1.363 . S
C4104 C4103 1.415 . S
C4105 H4081 0.951 . S
C4105 C4106 1.366 . S
C4105 C4107 1.388 . S
C4106 C4105 1.366 . S
C4106 C4110 1.385 . S
C4107 H4082 0.951 . S
C4107 C4105 1.388 . S
C4107 C4108 1.366 . S
C4108 C4107 1.366 . S
C4108 C4109 1.414 . S
C4108 C4111 1.499 . S
C4109 H4083 0.950 . S
C4109 C4108 1.414 . S
C4109 C4110 1.374 . S
C4110 H4084 0.950 . S
C4110 C4106 1.385 . S
C4110 C4109 1.374 . S
C4111 C4108 1.499 . S
C4111 C4112 1.373 . S
C4111 C4113 1.389 . S
C4112 H4085 0.950 . S
C4112 C4098 1.377 . S
C4112 C4111 1.373 . S
C4113 C4097 1.377 . S
C4113 C4111 1.389 . S
C4113 C4114 1.524 . S
C4114 C4113 1.524 . S
C4114 C4115 1.397 . S
C4114 C4119 1.363 . S
C4115 H4086 0.950 . S
C4115 C4114 1.397 . S
C4115 C4116 1.334 . S
C4116 H4087 0.950 . S
C4116 C4115 1.334 . S
C4116 C4117 1.287 . S
C4117 C4116 1.287 . S
C4117 C4118 1.524 . S
C4117 H4120 0.999 . S
C4118 H4088 0.950 . S
C4118 C4117 1.524 . S
C4118 C4119 1.415 . S
C4119 H4089 0.950 . S
C4119 C4114 1.363 . S
C4119 C4118 1.415 . S
H4120 C4117 0.999 . S
H4121 C4102 0.913 . S
H4122 C4140 0.951 . S
H4123 C4142 0.951 . S
H4124 C4144 0.950 . S
H4125 C4145 0.950 . S
H4126 C4147 0.950 . S
H4127 C4150 0.950 . S
H4128 C4151 0.950 . S
H4129 C4153 0.950 . S
H4130 C4154 0.950 . S
H4131 C4155 0.951 . S
H4132 C4157 0.951 . S
H4133 C4159 0.950 . S
H4134 C4160 0.950 . S
H4135 C4162 0.950 . S
H4136 C4165 0.950 . S
H4137 C4166 0.950 . S
H4138 C4168 0.950 . S
H4139 C4169 0.950 . S
C4140 H4122 0.951 . S
C4140 C4141 1.366 . S
C4140 C4142 1.388 . S
C4141 C4140 1.366 . S
C4141 C4145 1.385 . S
C4142 H4123 0.951 . S
C4142 C4140 1.388 . S
C4142 C4143 1.366 . S
C4143 C4142 1.366 . S
C4143 C4144 1.414 . S
C4143 C4146 1.499 . S
C4144 H4124 0.950 . S
C4144 C4143 1.414 . S
C4144 C4145 1.374 . S
C4145 H4125 0.950 . S
C4145 C4141 1.385 . S
C4145 C4144 1.374 . S
C4146 C4143 1.499 . S
C4146 C4147 1.373 . S
C4146 C4148 1.389 . S
C4147 H4126 0.950 . S
C4147 C4146 1.373 . S
C4147 C4163 1.377 1_556 S
C4148 C4146 1.389 . S
C4148 C4149 1.524 . S
C4148 C4162 1.377 1_556 S
C4149 C4148 1.524 . S
C4149 C4150 1.397 . S
C4149 C4154 1.363 . S
C4150 H4127 0.950 . S
C4150 C4149 1.397 . S
C4150 C4151 1.334 . S
C4151 H4128 0.950 . S
C4151 C4150 1.334 . S
C4151 C4152 1.287 . S
C4152 C4151 1.287 . S
C4152 C4153 1.524 . S
C4152 H4171 0.913 . S
C4153 H4129 0.950 . S
C4153 C4152 1.524 . S
C4153 C4154 1.415 . S
C4154 H4130 0.950 . S
C4154 C4149 1.363 . S
C4154 C4153 1.415 . S
C4155 H4131 0.951 . S
C4155 C4156 1.366 . S
C4155 C4157 1.388 . S
C4156 C4155 1.366 . S
C4156 C4160 1.385 . S
C4157 H4132 0.951 . S
C4157 C4155 1.388 . S
C4157 C4158 1.366 . S
C4158 C4157 1.366 . S
C4158 C4159 1.414 . S
C4158 C4161 1.499 . S
C4159 H4133 0.950 . S
C4159 C4158 1.414 . S
C4159 C4160 1.374 . S
C4160 H4134 0.950 . S
C4160 C4156 1.385 . S
C4160 C4159 1.374 . S
C4161 C4158 1.499 . S
C4161 C4162 1.373 . S
C4161 C4163 1.389 . S
C4162 H4135 0.950 . S
C4162 C4148 1.377 1_554 S
C4162 C4161 1.373 . S
C4163 C4147 1.377 1_554 S
C4163 C4161 1.389 . S
C4163 C4164 1.524 . S
C4164 C4163 1.524 . S
C4164 C4165 1.397 . S
C4164 C4169 1.363 . S
C4165 H4136 0.950 . S
C4165 C4164 1.397 . S
C4165 C4166 1.334 . S
C4166 H4137 0.950 . S
C4166 C4165 1.334 . S
C4166 C4167 1.287 . S
C4167 C4166 1.287 . S
C4167 C4168 1.524 . S
C4167 H4170 0.999 . S
C4168 H4138 0.950 . S
C4168 C4167 1.524 . S
C4168 C4169 1.415 . S
C4169 H4139 0.950 . S
C4169 C4164 1.363 . S
C4169 C4168 1.415 . S
H4170 C4167 0.999 . S
H4171 C4152 0.913 . S
H4172 C4190 0.951 . S
H4173 C4192 0.951 . S
H4174 C4194 0.950 . S
H4175 C4195 0.950 . S
H4176 C4197 0.950 . S
H4177 C4200 0.950 . S
H4178 C4201 0.950 . S
H4179 C4203 0.950 . S
H4180 C4204 0.950 . S
H4181 C4205 0.951 . S
H4182 C4207 0.951 . S
H4183 C4209 0.950 . S
H4184 C4210 0.950 . S
H4185 C4212 0.950 . S
H4186 C4215 0.950 . S
H4187 C4216 0.950 . S
H4188 C4218 0.950 . S
H4189 C4219 0.950 . S
C4190 H4172 0.951 . S
C4190 C4191 1.366 . S
C4190 C4192 1.388 . S
C4191 C4190 1.366 . S
C4191 C4195 1.385 . S
C4192 H4173 0.951 . S
C4192 C4190 1.388 . S
C4192 C4193 1.366 . S
C4193 C4192 1.366 . S
C4193 C4194 1.414 . S
C4193 C4196 1.499 . S
C4194 H4174 0.950 . S
C4194 C4193 1.414 . S
C4194 C4195 1.374 . S
C4195 H4175 0.950 . S
C4195 C4191 1.385 . S
C4195 C4194 1.374 . S
C4196 C4193 1.499 . S
C4196 C4197 1.373 . S
C4196 C4198 1.389 . S
C4197 H4176 0.950 . S
C4197 C4196 1.373 . S
C4197 C4213 1.377 . S
C4198 C4196 1.389 . S
C4198 C4199 1.524 . S
C4198 C4212 1.377 . S
C4199 C4198 1.524 . S
C4199 C4200 1.397 . S
C4199 C4204 1.363 . S
C4200 H4177 0.950 . S
C4200 C4199 1.397 . S
C4200 C4201 1.334 . S
C4201 H4178 0.950 . S
C4201 C4200 1.334 . S
C4201 C4202 1.287 . S
C4202 C4201 1.287 . S
C4202 C4203 1.524 . S
C4202 H4221 0.913 . S
C4203 H4179 0.950 . S
C4203 C4202 1.524 . S
C4203 C4204 1.415 . S
C4204 H4180 0.950 . S
C4204 C4199 1.363 . S
C4204 C4203 1.415 . S
C4205 H4181 0.951 . S
C4205 C4206 1.366 . S
C4205 C4207 1.388 . S
C4206 C4205 1.366 . S
C4206 C4210 1.385 . S
C4207 H4182 0.951 . S
C4207 C4205 1.388 . S
C4207 C4208 1.366 . S
C4208 C4207 1.366 . S
C4208 C4209 1.414 . S
C4208 C4211 1.499 . S
C4209 H4183 0.950 . S
C4209 C4208 1.414 . S
C4209 C4210 1.374 . S
C4210 H4184 0.950 . S
C4210 C4206 1.385 . S
C4210 C4209 1.374 . S
C4211 C4208 1.499 . S
C4211 C4212 1.373 . S
C4211 C4213 1.389 . S
C4212 H4185 0.950 . S
C4212 C4198 1.377 . S
C4212 C4211 1.373 . S
C4213 C4197 1.377 . S
C4213 C4211 1.389 . S
C4213 C4214 1.524 . S
C4214 C4213 1.524 . S
C4214 C4215 1.397 . S
C4214 C4219 1.363 . S
C4215 H4186 0.950 . S
C4215 C4214 1.397 . S
C4215 C4216 1.334 . S
C4216 H4187 0.950 . S
C4216 C4215 1.334 . S
C4216 C4217 1.287 . S
C4217 C4216 1.287 . S
C4217 C4218 1.524 . S
C4217 H4220 0.999 . S
C4218 H4188 0.950 . S
C4218 C4217 1.524 . S
C4218 C4219 1.415 . S
C4219 H4189 0.950 . S
C4219 C4214 1.363 . S
C4219 C4218 1.415 . S
H4220 C4217 0.999 . S
H4221 C4202 0.913 . S
H4222 C4240 0.951 . S
H4223 C4242 0.951 . S
H4224 C4244 0.950 . S
H4225 C4245 0.950 . S
H4226 C4247 0.950 . S
H4227 C4250 0.950 . S
H4228 C4251 0.950 . S
H4229 C4253 0.950 . S
H4230 C4254 0.950 . S
H4231 C4255 0.951 . S
H4232 C4257 0.951 . S
H4233 C4259 0.950 . S
H4234 C4260 0.950 . S
H4235 C4262 0.950 . S
H4236 C4265 0.950 . S
H4237 C4266 0.950 . S
H4238 C4268 0.950 . S
H4239 C4269 0.950 . S
C4240 H4222 0.951 . S
C4240 C4241 1.366 . S
C4240 C4242 1.388 . S
C4241 C4240 1.366 . S
C4241 C4245 1.385 . S
C4242 H4223 0.951 . S
C4242 C4240 1.388 . S
C4242 C4243 1.366 . S
C4243 C4242 1.366 . S
C4243 C4244 1.414 . S
C4243 C4246 1.499 . S
C4244 H4224 0.950 . S
C4244 C4243 1.414 . S
C4244 C4245 1.374 . S
C4245 H4225 0.950 . S
C4245 C4241 1.385 . S
C4245 C4244 1.374 . S
C4246 C4243 1.499 . S
C4246 C4247 1.373 . S
C4246 C4248 1.389 . S
C4247 H4226 0.950 . S
C4247 C4246 1.373 . S
C4247 C4263 1.377 . S
C4248 C4246 1.389 . S
C4248 C4249 1.524 . S
C4248 C4262 1.377 . S
C4249 C4248 1.524 . S
C4249 C4250 1.397 . S
C4249 C4254 1.363 . S
C4250 H4227 0.950 . S
C4250 C4249 1.397 . S
C4250 C4251 1.334 . S
C4251 H4228 0.950 . S
C4251 C4250 1.334 . S
C4251 C4252 1.287 . S
C4252 C4251 1.287 . S
C4252 C4253 1.524 . S
C4252 H4271 0.913 . S
C4253 H4229 0.950 . S
C4253 C4252 1.524 . S
C4253 C4254 1.415 . S
C4254 H4230 0.950 . S
C4254 C4249 1.363 . S
C4254 C4253 1.415 . S
C4255 H4231 0.951 . S
C4255 C4256 1.366 . S
C4255 C4257 1.388 . S
C4256 C4255 1.366 . S
C4256 C4260 1.385 . S
C4257 H4232 0.951 . S
C4257 C4255 1.388 . S
C4257 C4258 1.366 . S
C4258 C4257 1.366 . S
C4258 C4259 1.414 . S
C4258 C4261 1.499 . S
C4259 H4233 0.950 . S
C4259 C4258 1.414 . S
C4259 C4260 1.374 . S
C4260 H4234 0.950 . S
C4260 C4256 1.385 . S
C4260 C4259 1.374 . S
C4261 C4258 1.499 . S
C4261 C4262 1.373 . S
C4261 C4263 1.389 . S
C4262 H4235 0.950 . S
C4262 C4248 1.377 . S
C4262 C4261 1.373 . S
C4263 C4247 1.377 . S
C4263 C4261 1.389 . S
C4263 C4264 1.524 . S
C4264 C4263 1.524 . S
C4264 C4265 1.397 . S
C4264 C4269 1.363 . S
C4265 H4236 0.950 . S
C4265 C4264 1.397 . S
C4265 C4266 1.334 . S
C4266 H4237 0.950 . S
C4266 C4265 1.334 . S
C4266 C4267 1.287 . S
C4267 C4266 1.287 . S
C4267 C4268 1.524 . S
C4267 H4270 0.999 . S
C4268 H4238 0.950 . S
C4268 C4267 1.524 . S
C4268 C4269 1.415 . S
C4269 H4239 0.950 . S
C4269 C4264 1.363 . S
C4269 C4268 1.415 . S
H4270 C4267 0.999 . S
H4271 C4252 0.913 . S
H4272 C4290 0.951 . S
H4273 C4292 0.951 . S
H4274 C4294 0.950 . S
H4275 C4295 0.950 . S
H4276 C4297 0.950 . S
H4277 C4300 0.950 . S
H4278 C4301 0.950 . S
H4279 C4303 0.950 . S
H4280 C4304 0.950 . S
H4281 C4305 0.951 . S
H4282 C4307 0.951 . S
H4283 C4309 0.950 . S
H4284 C4310 0.950 . S
H4285 C4312 0.950 . S
H4286 C4315 0.950 . S
H4287 C4316 0.950 . S
H4288 C4318 0.950 . S
H4289 C4319 0.950 . S
C4290 H4272 0.951 . S
C4290 C4291 1.366 . S
C4290 C4292 1.388 . S
C4291 C4290 1.366 . S
C4291 C4295 1.385 . S
C4292 H4273 0.951 . S
C4292 C4290 1.388 . S
C4292 C4293 1.366 . S
C4293 C4292 1.366 . S
C4293 C4294 1.414 . S
C4293 C4296 1.499 . S
C4294 H4274 0.950 . S
C4294 C4293 1.414 . S
C4294 C4295 1.374 . S
C4295 H4275 0.950 . S
C4295 C4291 1.385 . S
C4295 C4294 1.374 . S
C4296 C4293 1.499 . S
C4296 C4297 1.373 . S
C4296 C4298 1.389 . S
C4297 H4276 0.950 . S
C4297 C4296 1.373 . S
C4297 C4313 1.377 . S
C4298 C4296 1.389 . S
C4298 C4299 1.524 . S
C4298 C4312 1.377 . S
C4299 C4298 1.524 . S
C4299 C4300 1.397 . S
C4299 C4304 1.363 . S
C4300 H4277 0.950 . S
C4300 C4299 1.397 . S
C4300 C4301 1.334 . S
C4301 H4278 0.950 . S
C4301 C4300 1.334 . S
C4301 C4302 1.287 . S
C4302 C4301 1.287 . S
C4302 C4303 1.524 . S
C4302 H4321 0.913 . S
C4303 H4279 0.950 . S
C4303 C4302 1.524 . S
C4303 C4304 1.415 . S
C4304 H4280 0.950 . S
C4304 C4299 1.363 . S
C4304 C4303 1.415 . S
C4305 H4281 0.951 . S
C4305 C4306 1.366 . S
C4305 C4307 1.388 . S
C4306 C4305 1.366 . S
C4306 C4310 1.385 . S
C4307 H4282 0.951 . S
C4307 C4305 1.388 . S
C4307 C4308 1.366 . S
C4308 C4307 1.366 . S
C4308 C4309 1.414 . S
C4308 C4311 1.499 . S
C4309 H4283 0.950 . S
C4309 C4308 1.414 . S
C4309 C4310 1.374 . S
C4310 H4284 0.950 . S
C4310 C4306 1.385 . S
C4310 C4309 1.374 . S
C4311 C4308 1.499 . S
C4311 C4312 1.373 . S
C4311 C4313 1.389 . S
C4312 H4285 0.950 . S
C4312 C4298 1.377 . S
C4312 C4311 1.373 . S
C4313 C4297 1.377 . S
C4313 C4311 1.389 . S
C4313 C4314 1.524 . S
C4314 C4313 1.524 . S
C4314 C4315 1.397 . S
C4314 C4319 1.363 . S
C4315 H4286 0.950 . S
C4315 C4314 1.397 . S
C4315 C4316 1.334 . S
C4316 H4287 0.950 . S
C4316 C4315 1.334 . S
C4316 C4317 1.287 . S
C4317 C4316 1.287 . S
C4317 C4318 1.524 . S
C4317 H4320 0.999 . S
C4318 H4288 0.950 . S
C4318 C4317 1.524 . S
C4318 C4319 1.415 . S
C4319 H4289 0.950 . S
C4319 C4314 1.363 . S
C4319 C4318 1.415 . S
H4320 C4317 0.999 . S
H4321 C4302 0.913 . S
H4322 C4340 0.951 . S
H4323 C4342 0.951 . S
H4324 C4344 0.950 . S
H4325 C4345 0.950 . S
H4326 C4347 0.950 . S
H4327 C4350 0.950 . S
H4328 C4351 0.950 . S
H4329 C4353 0.950 . S
H4330 C4354 0.950 . S
H4331 C4355 0.951 . S
H4332 C4357 0.951 . S
H4333 C4359 0.950 . S
H4334 C4360 0.950 . S
H4335 C4362 0.950 . S
H4336 C4365 0.950 . S
H4337 C4366 0.950 . S
H4338 C4368 0.950 . S
H4339 C4369 0.950 . S
C4340 H4322 0.951 . S
C4340 C4341 1.366 . S
C4340 C4342 1.388 . S
C4341 C4340 1.366 . S
C4341 C4345 1.385 . S
C4342 H4323 0.951 . S
C4342 C4340 1.388 . S
C4342 C4343 1.366 . S
C4343 C4342 1.366 . S
C4343 C4344 1.414 . S
C4343 C4346 1.499 . S
C4344 H4324 0.950 . S
C4344 C4343 1.414 . S
C4344 C4345 1.374 . S
C4345 H4325 0.950 . S
C4345 C4341 1.385 . S
C4345 C4344 1.374 . S
C4346 C4343 1.499 . S
C4346 C4347 1.373 . S
C4346 C4348 1.389 . S
C4347 H4326 0.950 . S
C4347 C4346 1.373 . S
C4347 C4363 1.377 . S
C4348 C4346 1.389 . S
C4348 C4349 1.524 . S
C4348 C4362 1.377 . S
C4349 C4348 1.524 . S
C4349 C4350 1.397 . S
C4349 C4354 1.363 . S
C4350 H4327 0.950 . S
C4350 C4349 1.397 . S
C4350 C4351 1.334 . S
C4351 H4328 0.950 . S
C4351 C4350 1.334 . S
C4351 C4352 1.287 . S
C4352 C4351 1.287 . S
C4352 C4353 1.524 . S
C4352 H4371 0.913 . S
C4353 H4329 0.950 . S
C4353 C4352 1.524 . S
C4353 C4354 1.415 . S
C4354 H4330 0.950 . S
C4354 C4349 1.363 . S
C4354 C4353 1.415 . S
C4355 H4331 0.951 . S
C4355 C4356 1.366 . S
C4355 C4357 1.388 . S
C4356 C4355 1.366 . S
C4356 C4360 1.385 . S
C4357 H4332 0.951 . S
C4357 C4355 1.388 . S
C4357 C4358 1.366 . S
C4358 C4357 1.366 . S
C4358 C4359 1.414 . S
C4358 C4361 1.499 . S
C4359 H4333 0.950 . S
C4359 C4358 1.414 . S
C4359 C4360 1.374 . S
C4360 H4334 0.950 . S
C4360 C4356 1.385 . S
C4360 C4359 1.374 . S
C4361 C4358 1.499 . S
C4361 C4362 1.373 . S
C4361 C4363 1.389 . S
C4362 H4335 0.950 . S
C4362 C4348 1.377 . S
C4362 C4361 1.373 . S
C4363 C4347 1.377 . S
C4363 C4361 1.389 . S
C4363 C4364 1.524 . S
C4364 C4363 1.524 . S
C4364 C4365 1.397 . S
C4364 C4369 1.363 . S
C4365 H4336 0.950 . S
C4365 C4364 1.397 . S
C4365 C4366 1.334 . S
C4366 H4337 0.950 . S
C4366 C4365 1.334 . S
C4366 C4367 1.287 . S
C4367 C4366 1.287 . S
C4367 C4368 1.524 . S
C4367 H4370 0.999 . S
C4368 H4338 0.950 . S
C4368 C4367 1.524 . S
C4368 C4369 1.415 . S
C4369 H4339 0.950 . S
C4369 C4364 1.363 . S
C4369 C4368 1.415 . S
H4370 C4367 0.999 . S
H4371 C4352 0.913 . S
H4372 C4390 0.951 . S
H4373 C4392 0.951 . S
H4374 C4394 0.950 . S
H4375 C4395 0.950 . S
H4376 C4397 0.950 . S
H4377 C4400 0.950 . S
H4378 C4401 0.950 . S
H4379 C4403 0.950 . S
H4380 C4404 0.950 . S
H4381 C4405 0.951 . S
H4382 C4407 0.951 . S
H4383 C4409 0.950 . S
H4384 C4410 0.950 . S
H4385 C4412 0.950 . S
H4386 C4415 0.950 . S
H4387 C4416 0.950 . S
H4388 C4418 0.950 . S
H4389 C4419 0.950 . S
C4390 H4372 0.951 . S
C4390 C4391 1.366 . S
C4390 C4392 1.388 . S
C4391 C4390 1.366 . S
C4391 C4395 1.385 . S
C4392 H4373 0.951 . S
C4392 C4390 1.388 . S
C4392 C4393 1.366 . S
C4393 C4392 1.366 . S
C4393 C4394 1.414 . S
C4393 C4396 1.499 . S
C4394 H4374 0.950 . S
C4394 C4393 1.414 . S
C4394 C4395 1.374 . S
C4395 H4375 0.950 . S
C4395 C4391 1.385 . S
C4395 C4394 1.374 . S
C4396 C4393 1.499 . S
C4396 C4397 1.373 . S
C4396 C4398 1.389 . S
C4397 H4376 0.950 . S
C4397 C4396 1.373 . S
C4397 C4413 1.377 . S
C4398 C4396 1.389 . S
C4398 C4399 1.524 . S
C4398 C4412 1.377 . S
C4399 C4398 1.524 . S
C4399 C4400 1.397 . S
C4399 C4404 1.363 . S
C4400 H4377 0.950 . S
C4400 C4399 1.397 . S
C4400 C4401 1.334 . S
C4401 H4378 0.950 . S
C4401 C4400 1.334 . S
C4401 C4402 1.287 . S
C4402 C4401 1.287 . S
C4402 C4403 1.524 . S
C4402 H4421 0.913 . S
C4403 H4379 0.950 . S
C4403 C4402 1.524 . S
C4403 C4404 1.415 . S
C4404 H4380 0.950 . S
C4404 C4399 1.363 . S
C4404 C4403 1.415 . S
C4405 H4381 0.951 . S
C4405 C4406 1.366 . S
C4405 C4407 1.388 . S
C4406 C4405 1.366 . S
C4406 C4410 1.385 . S
C4407 H4382 0.951 . S
C4407 C4405 1.388 . S
C4407 C4408 1.366 . S
C4408 C4407 1.366 . S
C4408 C4409 1.414 . S
C4408 C4411 1.499 . S
C4409 H4383 0.950 . S
C4409 C4408 1.414 . S
C4409 C4410 1.374 . S
C4410 H4384 0.950 . S
C4410 C4406 1.385 . S
C4410 C4409 1.374 . S
C4411 C4408 1.499 . S
C4411 C4412 1.373 . S
C4411 C4413 1.389 . S
C4412 H4385 0.950 . S
C4412 C4398 1.377 . S
C4412 C4411 1.373 . S
C4413 C4397 1.377 . S
C4413 C4411 1.389 . S
C4413 C4414 1.524 . S
C4414 C4413 1.524 . S
C4414 C4415 1.397 . S
C4414 C4419 1.363 . S
C4415 H4386 0.950 . S
C4415 C4414 1.397 . S
C4415 C4416 1.334 . S
C4416 H4387 0.950 . S
C4416 C4415 1.334 . S
C4416 C4417 1.287 . S
C4417 C4416 1.287 . S
C4417 C4418 1.524 . S
C4417 H4420 0.999 . S
C4418 H4388 0.950 . S
C4418 C4417 1.524 . S
C4418 C4419 1.415 . S
C4419 H4389 0.950 . S
C4419 C4414 1.363 . S
C4419 C4418 1.415 . S
H4420 C4417 0.999 . S
H4421 C4402 0.913 . S
H4422 C4440 0.951 . S
H4423 C4442 0.951 . S
H4424 C4444 0.950 . S
H4425 C4445 0.950 . S
H4426 C4447 0.950 . S
H4427 C4450 0.950 . S
H4428 C4451 0.950 . S
H4429 C4453 0.950 . S
H4430 C4454 0.950 . S
H4431 C4455 0.951 . S
H4432 C4457 0.951 . S
H4433 C4459 0.950 . S
H4434 C4460 0.950 . S
H4435 C4462 0.950 . S
H4436 C4465 0.950 . S
H4437 C4466 0.950 . S
H4438 C4468 0.950 . S
H4439 C4469 0.950 . S
C4440 H4422 0.951 . S
C4440 C4441 1.366 . S
C4440 C4442 1.388 . S
C4441 C4440 1.366 . S
C4441 C4445 1.385 . S
C4442 H4423 0.951 . S
C4442 C4440 1.388 . S
C4442 C4443 1.366 . S
C4443 C4442 1.366 . S
C4443 C4444 1.414 . S
C4443 C4446 1.499 . S
C4444 H4424 0.950 . S
C4444 C4443 1.414 . S
C4444 C4445 1.374 . S
C4445 H4425 0.950 . S
C4445 C4441 1.385 . S
C4445 C4444 1.374 . S
C4446 C4443 1.499 . S
C4446 C4447 1.373 . S
C4446 C4448 1.389 . S
C4447 H4426 0.950 . S
C4447 C4446 1.373 . S
C4447 C4463 1.377 . S
C4448 C4446 1.389 . S
C4448 C4449 1.524 . S
C4448 C4462 1.377 . S
C4449 C4448 1.524 . S
C4449 C4450 1.397 . S
C4449 C4454 1.363 . S
C4450 H4427 0.950 . S
C4450 C4449 1.397 . S
C4450 C4451 1.334 . S
C4451 H4428 0.950 . S
C4451 C4450 1.334 . S
C4451 C4452 1.287 . S
C4452 C4451 1.287 . S
C4452 C4453 1.524 . S
C4452 H4471 0.913 . S
C4453 H4429 0.950 . S
C4453 C4452 1.524 . S
C4453 C4454 1.415 . S
C4454 H4430 0.950 . S
C4454 C4449 1.363 . S
C4454 C4453 1.415 . S
C4455 H4431 0.951 . S
C4455 C4456 1.366 . S
C4455 C4457 1.388 . S
C4456 C4455 1.366 . S
C4456 C4460 1.385 . S
C4457 H4432 0.951 . S
C4457 C4455 1.388 . S
C4457 C4458 1.366 . S
C4458 C4457 1.366 . S
C4458 C4459 1.414 . S
C4458 C4461 1.499 . S
C4459 H4433 0.950 . S
C4459 C4458 1.414 . S
C4459 C4460 1.374 . S
C4460 H4434 0.950 . S
C4460 C4456 1.385 . S
C4460 C4459 1.374 . S
C4461 C4458 1.499 . S
C4461 C4462 1.373 . S
C4461 C4463 1.389 . S
C4462 H4435 0.950 . S
C4462 C4448 1.377 . S
C4462 C4461 1.373 . S
C4463 C4447 1.377 . S
C4463 C4461 1.389 . S
C4463 C4464 1.524 . S
C4464 C4463 1.524 . S
C4464 C4465 1.397 . S
C4464 C4469 1.363 . S
C4465 H4436 0.950 . S
C4465 C4464 1.397 . S
C4465 C4466 1.334 . S
C4466 H4437 0.950 . S
C4466 C4465 1.334 . S
C4466 C4467 1.287 . S
C4467 C4466 1.287 . S
C4467 C4468 1.524 . S
C4467 H4470 0.999 . S
C4468 H4438 0.950 . S
C4468 C4467 1.524 . S
C4468 C4469 1.415 . S
C4469 H4439 0.950 . S
C4469 C4464 1.363 . S
C4469 C4468 1.415 . S
H4470 C4467 0.999 . S
H4471 C4452 0.913 . S
H4472 C4490 0.951 . S
H4473 C4492 0.951 . S
H4474 C4494 0.950 . S
H4475 C4495 0.950 . S
H4476 C4497 0.950 . S
H4477 C4500 0.950 . S
H4478 C4501 0.950 . S
H4479 C4503 0.950 . S
H4480 C4504 0.950 . S
H4481 C4505 0.951 . S
H4482 C4507 0.951 . S
H4483 C4509 0.950 . S
H4484 C4510 0.950 . S
H4485 C4512 0.950 . S
H4486 C4515 0.950 . S
H4487 C4516 0.950 . S
H4488 C4518 0.950 . S
H4489 C4519 0.950 . S
C4490 H4472 0.951 . S
C4490 C4491 1.366 . S
C4490 C4492 1.388 . S
C4491 C4490 1.366 . S
C4491 C4495 1.385 . S
C4492 H4473 0.951 . S
C4492 C4490 1.388 . S
C4492 C4493 1.366 . S
C4493 C4492 1.366 . S
C4493 C4494 1.414 . S
C4493 C4496 1.499 . S
C4494 H4474 0.950 . S
C4494 C4493 1.414 . S
C4494 C4495 1.374 . S
C4495 H4475 0.950 . S
C4495 C4491 1.385 . S
C4495 C4494 1.374 . S
C4496 C4493 1.499 . S
C4496 C4497 1.373 . S
C4496 C4498 1.389 . S
C4497 H4476 0.950 . S
C4497 C4496 1.373 . S
C4497 C4513 1.377 . S
C4498 C4496 1.389 . S
C4498 C4499 1.524 . S
C4498 C4512 1.377 . S
C4499 C4498 1.524 . S
C4499 C4500 1.397 . S
C4499 C4504 1.363 . S
C4500 H4477 0.950 . S
C4500 C4499 1.397 . S
C4500 C4501 1.334 . S
C4501 H4478 0.950 . S
C4501 C4500 1.334 . S
C4501 C4502 1.287 . S
C4502 C4501 1.287 . S
C4502 C4503 1.524 . S
C4502 H4521 0.913 . S
C4503 H4479 0.950 . S
C4503 C4502 1.524 . S
C4503 C4504 1.415 . S
C4504 H4480 0.950 . S
C4504 C4499 1.363 . S
C4504 C4503 1.415 . S
C4505 H4481 0.951 . S
C4505 C4506 1.366 . S
C4505 C4507 1.388 . S
C4506 C4505 1.366 . S
C4506 C4510 1.385 . S
C4507 H4482 0.951 . S
C4507 C4505 1.388 . S
C4507 C4508 1.366 . S
C4508 C4507 1.366 . S
C4508 C4509 1.414 . S
C4508 C4511 1.499 . S
C4509 H4483 0.950 . S
C4509 C4508 1.414 . S
C4509 C4510 1.374 . S
C4510 H4484 0.950 . S
C4510 C4506 1.385 . S
C4510 C4509 1.374 . S
C4511 C4508 1.499 . S
C4511 C4512 1.373 . S
C4511 C4513 1.389 . S
C4512 H4485 0.950 . S
C4512 C4498 1.377 . S
C4512 C4511 1.373 . S
C4513 C4497 1.377 . S
C4513 C4511 1.389 . S
C4513 C4514 1.524 . S
C4514 C4513 1.524 . S
C4514 C4515 1.397 . S
C4514 C4519 1.363 . S
C4515 H4486 0.950 . S
C4515 C4514 1.397 . S
C4515 C4516 1.334 . S
C4516 H4487 0.950 . S
C4516 C4515 1.334 . S
C4516 C4517 1.287 . S
C4517 C4516 1.287 . S
C4517 C4518 1.524 . S
C4517 H4520 0.999 . S
C4518 H4488 0.950 . S
C4518 C4517 1.524 . S
C4518 C4519 1.415 . S
C4519 H4489 0.950 . S
C4519 C4514 1.363 . S
C4519 C4518 1.415 . S
H4520 C4517 0.999 . S
H4521 C4502 0.913 . S
H4522 C4540 0.951 . S
H4523 C4542 0.951 . S
H4524 C4544 0.950 . S
H4525 C4545 0.950 . S
H4526 C4547 0.950 . S
H4527 C4550 0.950 . S
H4528 C4551 0.950 . S
H4529 C4553 0.950 . S
H4530 C4554 0.950 . S
H4531 C4555 0.951 . S
H4532 C4557 0.951 . S
H4533 C4559 0.950 . S
H4534 C4560 0.950 . S
H4535 C4562 0.950 . S
H4536 C4565 0.950 . S
H4537 C4566 0.950 . S
H4538 C4568 0.950 . S
H4539 C4569 0.950 . S
C4540 H4522 0.951 . S
C4540 C4541 1.366 . S
C4540 C4542 1.388 . S
C4541 C4540 1.366 . S
C4541 C4545 1.385 . S
C4542 H4523 0.951 . S
C4542 C4540 1.388 . S
C4542 C4543 1.366 . S
C4543 C4542 1.366 . S
C4543 C4544 1.414 . S
C4543 C4546 1.499 . S
C4544 H4524 0.950 . S
C4544 C4543 1.414 . S
C4544 C4545 1.374 . S
C4545 H4525 0.950 . S
C4545 C4541 1.385 . S
C4545 C4544 1.374 . S
C4546 C4543 1.499 . S
C4546 C4547 1.373 . S
C4546 C4548 1.389 . S
C4547 H4526 0.950 . S
C4547 C4546 1.373 . S
C4547 C4563 1.377 . S
C4548 C4546 1.389 . S
C4548 C4549 1.524 . S
C4548 C4562 1.377 . S
C4549 C4548 1.524 . S
C4549 C4550 1.397 . S
C4549 C4554 1.363 . S
C4550 H4527 0.950 . S
C4550 C4549 1.397 . S
C4550 C4551 1.334 . S
C4551 H4528 0.950 . S
C4551 C4550 1.334 . S
C4551 C4552 1.287 . S
C4552 C4551 1.287 . S
C4552 C4553 1.524 . S
C4552 H4571 0.913 . S
C4553 H4529 0.950 . S
C4553 C4552 1.524 . S
C4553 C4554 1.415 . S
C4554 H4530 0.950 . S
C4554 C4549 1.363 . S
C4554 C4553 1.415 . S
C4555 H4531 0.951 . S
C4555 C4556 1.366 . S
C4555 C4557 1.388 . S
C4556 C4555 1.366 . S
C4556 C4560 1.385 . S
C4557 H4532 0.951 . S
C4557 C4555 1.388 . S
C4557 C4558 1.366 . S
C4558 C4557 1.366 . S
C4558 C4559 1.414 . S
C4558 C4561 1.499 . S
C4559 H4533 0.950 . S
C4559 C4558 1.414 . S
C4559 C4560 1.374 . S
C4560 H4534 0.950 . S
C4560 C4556 1.385 . S
C4560 C4559 1.374 . S
C4561 C4558 1.499 . S
C4561 C4562 1.373 . S
C4561 C4563 1.389 . S
C4562 H4535 0.950 . S
C4562 C4548 1.377 . S
C4562 C4561 1.373 . S
C4563 C4547 1.377 . S
C4563 C4561 1.389 . S
C4563 C4564 1.524 . S
C4564 C4563 1.524 . S
C4564 C4565 1.397 . S
C4564 C4569 1.363 . S
C4565 H4536 0.950 . S
C4565 C4564 1.397 . S
C4565 C4566 1.334 . S
C4566 H4537 0.950 . S
C4566 C4565 1.334 . S
C4566 C4567 1.287 . S
C4567 C4566 1.287 . S
C4567 C4568 1.524 . S
C4567 H4570 0.999 . S
C4568 H4538 0.950 . S
C4568 C4567 1.524 . S
C4568 C4569 1.415 . S
C4569 H4539 0.950 . S
C4569 C4564 1.363 . S
C4569 C4568 1.415 . S
H4570 C4567 0.999 . S
H4571 C4552 0.913 . S
H4572 C4590 0.951 . S
H4573 C4592 0.951 . S
H4574 C4594 0.950 . S
H4575 C4595 0.950 . S
H4576 C4597 0.950 . S
H4577 C4600 0.950 . S
H4578 C4601 0.950 . S
H4579 C4603 0.950 . S
H4580 C4604 0.950 . S
H4581 C4605 0.951 . S
H4582 C4607 0.951 . S
H4583 C4609 0.950 . S
H4584 C4610 0.950 . S
H4585 C4612 0.950 . S
H4586 C4615 0.950 . S
H4587 C4616 0.950 . S
H4588 C4618 0.950 . S
H4589 C4619 0.950 . S
C4590 H4572 0.951 . S
C4590 C4591 1.366 . S
C4590 C4592 1.388 . S
C4591 C4590 1.366 . S
C4591 C4595 1.385 . S
C4592 H4573 0.951 . S
C4592 C4590 1.388 . S
C4592 C4593 1.366 . S
C4593 C4592 1.366 . S
C4593 C4594 1.414 . S
C4593 C4596 1.499 . S
C4594 H4574 0.950 . S
C4594 C4593 1.414 . S
C4594 C4595 1.374 . S
C4595 H4575 0.950 . S
C4595 C4591 1.385 . S
C4595 C4594 1.374 . S
C4596 C4593 1.499 . S
C4596 C4597 1.373 . S
C4596 C4598 1.389 . S
C4597 H4576 0.950 . S
C4597 C4596 1.373 . S
C4597 C4613 1.377 . S
C4598 C4596 1.389 . S
C4598 C4599 1.524 . S
C4598 C4612 1.377 . S
C4599 C4598 1.524 . S
C4599 C4600 1.397 . S
C4599 C4604 1.363 . S
C4600 H4577 0.950 . S
C4600 C4599 1.397 . S
C4600 C4601 1.334 . S
C4601 H4578 0.950 . S
C4601 C4600 1.334 . S
C4601 C4602 1.287 . S
C4602 C4601 1.287 . S
C4602 C4603 1.524 . S
C4602 H4621 0.913 . S
C4603 H4579 0.950 . S
C4603 C4602 1.524 . S
C4603 C4604 1.415 . S
C4604 H4580 0.950 . S
C4604 C4599 1.363 . S
C4604 C4603 1.415 . S
C4605 H4581 0.951 . S
C4605 C4606 1.366 . S
C4605 C4607 1.388 . S
C4606 C4605 1.366 . S
C4606 C4610 1.385 . S
C4607 H4582 0.951 . S
C4607 C4605 1.388 . S
C4607 C4608 1.366 . S
C4608 C4607 1.366 . S
C4608 C4609 1.414 . S
C4608 C4611 1.499 . S
C4609 H4583 0.950 . S
C4609 C4608 1.414 . S
C4609 C4610 1.374 . S
C4610 H4584 0.950 . S
C4610 C4606 1.385 . S
C4610 C4609 1.374 . S
C4611 C4608 1.499 . S
C4611 C4612 1.373 . S
C4611 C4613 1.389 . S
C4612 H4585 0.950 . S
C4612 C4598 1.377 . S
C4612 C4611 1.373 . S
C4613 C4597 1.377 . S
C4613 C4611 1.389 . S
C4613 C4614 1.524 . S
C4614 C4613 1.524 . S
C4614 C4615 1.397 . S
C4614 C4619 1.363 . S
C4615 H4586 0.950 . S
C4615 C4614 1.397 . S
C4615 C4616 1.334 . S
C4616 H4587 0.950 . S
C4616 C4615 1.334 . S
C4616 C4617 1.287 . S
C4617 C4616 1.287 . S
C4617 C4618 1.524 . S
C4617 H4620 0.999 . S
C4618 H4588 0.950 . S
C4618 C4617 1.524 . S
C4618 C4619 1.415 . S
C4619 H4589 0.950 . S
C4619 C4614 1.363 . S
C4619 C4618 1.415 . S
H4620 C4617 0.999 . S
H4621 C4602 0.913 . S
H4622 C4640 0.951 . S
H4623 C4642 0.951 . S
H4624 C4644 0.950 . S
H4625 C4645 0.950 . S
H4626 C4647 0.950 . S
H4627 C4650 0.950 . S
H4628 C4651 0.950 . S
H4629 C4653 0.950 . S
H4630 C4654 0.950 . S
H4631 C4655 0.951 . S
H4632 C4657 0.951 . S
H4633 C4659 0.950 . S
H4634 C4660 0.950 . S
H4635 C4662 0.950 . S
H4636 C4665 0.950 . S
H4637 C4666 0.950 . S
H4638 C4668 0.950 . S
H4639 C4669 0.950 . S
C4640 H4622 0.951 . S
C4640 C4641 1.366 . S
C4640 C4642 1.388 . S
C4641 C4640 1.366 . S
C4641 C4645 1.385 . S
C4642 H4623 0.951 . S
C4642 C4640 1.388 . S
C4642 C4643 1.366 . S
C4643 C4642 1.366 . S
C4643 C4644 1.414 . S
C4643 C4646 1.499 . S
C4644 H4624 0.950 . S
C4644 C4643 1.414 . S
C4644 C4645 1.374 . S
C4645 H4625 0.950 . S
C4645 C4641 1.385 . S
C4645 C4644 1.374 . S
C4646 C4643 1.499 . S
C4646 C4647 1.373 . S
C4646 C4648 1.389 . S
C4647 H4626 0.950 . S
C4647 C4646 1.373 . S
C4647 C4663 1.377 . S
C4648 C4646 1.389 . S
C4648 C4649 1.524 . S
C4648 C4662 1.377 . S
C4649 C4648 1.524 . S
C4649 C4650 1.397 . S
C4649 C4654 1.363 . S
C4650 H4627 0.950 . S
C4650 C4649 1.397 . S
C4650 C4651 1.334 . S
C4651 H4628 0.950 . S
C4651 C4650 1.334 . S
C4651 C4652 1.287 . S
C4652 C4651 1.287 . S
C4652 C4653 1.524 . S
C4652 H4671 0.913 . S
C4653 H4629 0.950 . S
C4653 C4652 1.524 . S
C4653 C4654 1.415 . S
C4654 H4630 0.950 . S
C4654 C4649 1.363 . S
C4654 C4653 1.415 . S
C4655 H4631 0.951 . S
C4655 C4656 1.366 . S
C4655 C4657 1.388 . S
C4656 C4655 1.366 . S
C4656 C4660 1.385 . S
C4657 H4632 0.951 . S
C4657 C4655 1.388 . S
C4657 C4658 1.366 . S
C4658 C4657 1.366 . S
C4658 C4659 1.414 . S
C4658 C4661 1.499 . S
C4659 H4633 0.950 . S
C4659 C4658 1.414 . S
C4659 C4660 1.374 . S
C4660 H4634 0.950 . S
C4660 C4656 1.385 . S
C4660 C4659 1.374 . S
C4661 C4658 1.499 . S
C4661 C4662 1.373 . S
C4661 C4663 1.389 . S
C4662 H4635 0.950 . S
C4662 C4648 1.377 . S
C4662 C4661 1.373 . S
C4663 C4647 1.377 . S
C4663 C4661 1.389 . S
C4663 C4664 1.524 . S
C4664 C4663 1.524 . S
C4664 C4665 1.397 . S
C4664 C4669 1.363 . S
C4665 H4636 0.950 . S
C4665 C4664 1.397 . S
C4665 C4666 1.334 . S
C4666 H4637 0.950 . S
C4666 C4665 1.334 . S
C4666 C4667 1.287 . S
C4667 C4666 1.287 . S
C4667 C4668 1.524 . S
C4667 H4670 0.999 . S
C4668 H4638 0.950 . S
C4668 C4667 1.524 . S
C4668 C4669 1.415 . S
C4669 H4639 0.950 . S
C4669 C4664 1.363 . S
C4669 C4668 1.415 . S
H4670 C4667 0.999 . S
H4671 C4652 0.913 . S
H4672 C4690 0.951 . S
H4673 C4692 0.951 . S
H4674 C4694 0.950 . S
H4675 C4695 0.950 . S
H4676 C4697 0.950 . S
H4677 C4700 0.950 . S
H4678 C4701 0.950 . S
H4679 C4703 0.950 . S
H4680 C4704 0.950 . S
H4681 C4705 0.951 . S
H4682 C4707 0.951 . S
H4683 C4709 0.950 . S
H4684 C4710 0.950 . S
H4685 C4712 0.950 . S
H4686 C4715 0.950 . S
H4687 C4716 0.950 . S
H4688 C4718 0.950 . S
H4689 C4719 0.950 . S
C4690 H4672 0.951 . S
C4690 C4691 1.366 . S
C4690 C4692 1.388 . S
C4691 C4690 1.366 . S
C4691 C4695 1.385 . S
C4692 H4673 0.951 . S
C4692 C4690 1.388 . S
C4692 C4693 1.366 . S
C4693 C4692 1.366 . S
C4693 C4694 1.414 . S
C4693 C4696 1.499 . S
C4694 H4674 0.950 . S
C4694 C4693 1.414 . S
C4694 C4695 1.374 . S
C4695 H4675 0.950 . S
C4695 C4691 1.385 . S
C4695 C4694 1.374 . S
C4696 C4693 1.499 . S
C4696 C4697 1.373 . S
C4696 C4698 1.389 . S
C4697 H4676 0.950 . S
C4697 C4696 1.373 . S
C4697 C4713 1.377 . S
C4698 C4696 1.389 . S
C4698 C4699 1.524 . S
C4698 C4712 1.377 . S
C4699 C4698 1.524 . S
C4699 C4700 1.397 . S
C4699 C4704 1.363 . S
C4700 H4677 0.950 . S
C4700 C4699 1.397 . S
C4700 C4701 1.334 . S
C4701 H4678 0.950 . S
C4701 C4700 1.334 . S
C4701 C4702 1.287 . S
C4702 C4701 1.287 . S
C4702 C4703 1.524 . S
C4702 H4721 0.913 . S
C4703 H4679 0.950 . S
C4703 C4702 1.524 . S
C4703 C4704 1.415 . S
C4704 H4680 0.950 . S
C4704 C4699 1.363 . S
C4704 C4703 1.415 . S
C4705 H4681 0.951 . S
C4705 C4706 1.366 . S
C4705 C4707 1.388 . S
C4706 C4705 1.366 . S
C4706 C4710 1.385 . S
C4707 H4682 0.951 . S
C4707 C4705 1.388 . S
C4707 C4708 1.366 . S
C4708 C4707 1.366 . S
C4708 C4709 1.414 . S
C4708 C4711 1.499 . S
C4709 H4683 0.950 . S
C4709 C4708 1.414 . S
C4709 C4710 1.374 . S
C4710 H4684 0.950 . S
C4710 C4706 1.385 . S
C4710 C4709 1.374 . S
C4711 C4708 1.499 . S
C4711 C4712 1.373 . S
C4711 C4713 1.389 . S
C4712 H4685 0.950 . S
C4712 C4698 1.377 . S
C4712 C4711 1.373 . S
C4713 C4697 1.377 . S
C4713 C4711 1.389 . S
C4713 C4714 1.524 . S
C4714 C4713 1.524 . S
C4714 C4715 1.397 . S
C4714 C4719 1.363 . S
C4715 H4686 0.950 . S
C4715 C4714 1.397 . S
C4715 C4716 1.334 . S
C4716 H4687 0.950 . S
C4716 C4715 1.334 . S
C4716 C4717 1.287 . S
C4717 C4716 1.287 . S
C4717 C4718 1.524 . S
C4717 H4720 0.999 . S
C4718 H4688 0.950 . S
C4718 C4717 1.524 . S
C4718 C4719 1.415 . S
C4719 H4689 0.950 . S
C4719 C4714 1.363 . S
C4719 C4718 1.415 . S
H4720 C4717 0.999 . S
H4721 C4702 0.913 . S
H4722 C4740 0.951 . S
H4723 C4742 0.951 . S
H4724 C4744 0.950 . S
H4725 C4745 0.950 . S
H4726 C4747 0.950 . S
H4727 C4750 0.950 . S
H4728 C4751 0.950 . S
H4729 C4753 0.950 . S
H4730 C4754 0.950 . S
H4731 C4755 0.951 . S
H4732 C4757 0.951 . S
H4733 C4759 0.950 . S
H4734 C4760 0.950 . S
H4735 C4762 0.950 . S
H4736 C4765 0.950 . S
H4737 C4766 0.950 . S
H4738 C4768 0.950 . S
H4739 C4769 0.950 . S
C4740 H4722 0.951 . S
C4740 C4741 1.366 . S
C4740 C4742 1.388 . S
C4741 C4740 1.366 . S
C4741 C4745 1.385 . S
C4742 H4723 0.951 . S
C4742 C4740 1.388 . S
C4742 C4743 1.366 . S
C4743 C4742 1.366 . S
C4743 C4744 1.414 . S
C4743 C4746 1.499 . S
C4744 H4724 0.950 . S
C4744 C4743 1.414 . S
C4744 C4745 1.374 . S
C4745 H4725 0.950 . S
C4745 C4741 1.385 . S
C4745 C4744 1.374 . S
C4746 C4743 1.499 . S
C4746 C4747 1.373 . S
C4746 C4748 1.389 . S
C4747 H4726 0.950 . S
C4747 C4746 1.373 . S
C4747 C4763 1.377 . S
C4748 C4746 1.389 . S
C4748 C4749 1.524 . S
C4748 C4762 1.377 . S
C4749 C4748 1.524 . S
C4749 C4750 1.397 . S
C4749 C4754 1.363 . S
C4750 H4727 0.950 . S
C4750 C4749 1.397 . S
C4750 C4751 1.334 . S
C4751 H4728 0.950 . S
C4751 C4750 1.334 . S
C4751 C4752 1.287 . S
C4752 C4751 1.287 . S
C4752 C4753 1.524 . S
C4752 H4771 0.913 . S
C4753 H4729 0.950 . S
C4753 C4752 1.524 . S
C4753 C4754 1.415 . S
C4754 H4730 0.950 . S
C4754 C4749 1.363 . S
C4754 C4753 1.415 . S
C4755 H4731 0.951 . S
C4755 C4756 1.366 . S
C4755 C4757 1.388 . S
C4756 C4755 1.366 . S
C4756 C4760 1.385 . S
C4757 H4732 0.951 . S
C4757 C4755 1.388 . S
C4757 C4758 1.366 . S
C4758 C4757 1.366 . S
C4758 C4759 1.414 . S
C4758 C4761 1.499 . S
C4759 H4733 0.950 . S
C4759 C4758 1.414 . S
C4759 C4760 1.374 . S
C4760 H4734 0.950 . S
C4760 C4756 1.385 . S
C4760 C4759 1.374 . S
C4761 C4758 1.499 . S
C4761 C4762 1.373 . S
C4761 C4763 1.389 . S
C4762 H4735 0.950 . S
C4762 C4748 1.377 . S
C4762 C4761 1.373 . S
C4763 C4747 1.377 . S
C4763 C4761 1.389 . S
C4763 C4764 1.524 . S
C4764 C4763 1.524 . S
C4764 C4765 1.397 . S
C4764 C4769 1.363 . S
C4765 H4736 0.950 . S
C4765 C4764 1.397 . S
C4765 C4766 1.334 . S
C4766 H4737 0.950 . S
C4766 C4765 1.334 . S
C4766 C4767 1.287 . S
C4767 C4766 1.287 . S
C4767 C4768 1.524 . S
C4767 H4770 0.999 . S
C4768 H4738 0.950 . S
C4768 C4767 1.524 . S
C4768 C4769 1.415 . S
C4769 H4739 0.950 . S
C4769 C4764 1.363 . S
C4769 C4768 1.415 . S
H4770 C4767 0.999 . S
H4771 C4752 0.913 . S
H4772 C4790 0.951 . S
H4773 C4792 0.951 . S
H4774 C4794 0.950 . S
H4775 C4795 0.950 . S
H4776 C4797 0.950 . S
H4777 C4800 0.950 . S
H4778 C4801 0.950 . S
H4779 C4803 0.950 . S
H4780 C4804 0.950 . S
H4781 C4805 0.951 . S
H4782 C4807 0.951 . S
H4783 C4809 0.950 . S
H4784 C4810 0.950 . S
H4785 C4812 0.950 . S
H4786 C4815 0.950 . S
H4787 C4816 0.950 . S
H4788 C4818 0.950 . S
H4789 C4819 0.950 . S
C4790 H4772 0.951 . S
C4790 C4791 1.366 . S
C4790 C4792 1.388 . S
C4791 C4790 1.366 . S
C4791 C4795 1.385 . S
C4792 H4773 0.951 . S
C4792 C4790 1.388 . S
C4792 C4793 1.366 . S
C4793 C4792 1.366 . S
C4793 C4794 1.414 . S
C4793 C4796 1.499 . S
C4794 H4774 0.950 . S
C4794 C4793 1.414 . S
C4794 C4795 1.374 . S
C4795 H4775 0.950 . S
C4795 C4791 1.385 . S
C4795 C4794 1.374 . S
C4796 C4793 1.499 . S
C4796 C4797 1.373 . S
C4796 C4798 1.389 . S
C4797 H4776 0.950 . S
C4797 C4796 1.373 . S
C4797 C4813 1.377 . S
C4798 C4796 1.389 . S
C4798 C4799 1.524 . S
C4798 C4812 1.377 . S
C4799 C4798 1.524 . S
C4799 C4800 1.397 . S
C4799 C4804 1.363 . S
C4800 H4777 0.950 . S
C4800 C4799 1.397 . S
C4800 C4801 1.334 . S
C4801 H4778 0.950 . S
C4801 C4800 1.334 . S
C4801 C4802 1.287 . S
C4802 C4801 1.287 . S
C4802 C4803 1.524 . S
C4802 H4821 0.913 . S
C4803 H4779 0.950 . S
C4803 C4802 1.524 . S
C4803 C4804 1.415 . S
C4804 H4780 0.950 . S
C4804 C4799 1.363 . S
C4804 C4803 1.415 . S
C4805 H4781 0.951 . S
C4805 C4806 1.366 . S
C4805 C4807 1.388 . S
C4806 C4805 1.366 . S
C4806 C4810 1.385 . S
C4807 H4782 0.951 . S
C4807 C4805 1.388 . S
C4807 C4808 1.366 . S
C4808 C4807 1.366 . S
C4808 C4809 1.414 . S
C4808 C4811 1.499 . S
C4809 H4783 0.950 . S
C4809 C4808 1.414 . S
C4809 C4810 1.374 . S
C4810 H4784 0.950 . S
C4810 C4806 1.385 . S
C4810 C4809 1.374 . S
C4811 C4808 1.499 . S
C4811 C4812 1.373 . S
C4811 C4813 1.389 . S
C4812 H4785 0.950 . S
C4812 C4798 1.377 . S
C4812 C4811 1.373 . S
C4813 C4797 1.377 . S
C4813 C4811 1.389 . S
C4813 C4814 1.524 . S
C4814 C4813 1.524 . S
C4814 C4815 1.397 . S
C4814 C4819 1.363 . S
C4815 H4786 0.950 . S
C4815 C4814 1.397 . S
C4815 C4816 1.334 . S
C4816 H4787 0.950 . S
C4816 C4815 1.334 . S
C4816 C4817 1.287 . S
C4817 C4816 1.287 . S
C4817 C4818 1.524 . S
C4817 H4820 0.999 . S
C4818 H4788 0.950 . S
C4818 C4817 1.524 . S
C4818 C4819 1.415 . S
C4819 H4789 0.950 . S
C4819 C4814 1.363 . S
C4819 C4818 1.415 . S
H4820 C4817 0.999 . S
H4821 C4802 0.913 . S
H4822 C4840 0.951 . S
H4823 C4842 0.951 . S
H4824 C4844 0.950 . S
H4825 C4845 0.950 . S
H4826 C4847 0.950 . S
H4827 C4850 0.950 . S
H4828 C4851 0.950 . S
H4829 C4853 0.950 . S
H4830 C4854 0.950 . S
H4831 C4855 0.951 . S
H4832 C4857 0.951 . S
H4833 C4859 0.950 . S
H4834 C4860 0.950 . S
H4835 C4862 0.950 . S
H4836 C4865 0.950 . S
H4837 C4866 0.950 . S
H4838 C4868 0.950 . S
H4839 C4869 0.950 . S
C4840 H4822 0.951 . S
C4840 C4841 1.366 . S
C4840 C4842 1.388 . S
C4841 C4840 1.366 . S
C4841 C4845 1.385 . S
C4842 H4823 0.951 . S
C4842 C4840 1.388 . S
C4842 C4843 1.366 . S
C4843 C4842 1.366 . S
C4843 C4844 1.414 . S
C4843 C4846 1.499 . S
C4844 H4824 0.950 . S
C4844 C4843 1.414 . S
C4844 C4845 1.374 . S
C4845 H4825 0.950 . S
C4845 C4841 1.385 . S
C4845 C4844 1.374 . S
C4846 C4843 1.499 . S
C4846 C4847 1.373 . S
C4846 C4848 1.389 . S
C4847 H4826 0.950 . S
C4847 C4846 1.373 . S
C4847 C4863 1.377 . S
C4848 C4846 1.389 . S
C4848 C4849 1.524 . S
C4848 C4862 1.377 . S
C4849 C4848 1.524 . S
C4849 C4850 1.397 . S
C4849 C4854 1.363 . S
C4850 H4827 0.950 . S
C4850 C4849 1.397 . S
C4850 C4851 1.334 . S
C4851 H4828 0.950 . S
C4851 C4850 1.334 . S
C4851 C4852 1.287 . S
C4852 C4851 1.287 . S
C4852 C4853 1.524 . S
C4852 H4871 0.913 . S
C4853 H4829 0.950 . S
C4853 C4852 1.524 . S
C4853 C4854 1.415 . S
C4854 H4830 0.950 . S
C4854 C4849 1.363 . S
C4854 C4853 1.415 . S
C4855 H4831 0.951 . S
C4855 C4856 1.366 . S
C4855 C4857 1.388 . S
C4856 C4855 1.366 . S
C4856 C4860 1.385 . S
C4857 H4832 0.951 . S
C4857 C4855 1.388 . S
C4857 C4858 1.366 . S
C4858 C4857 1.366 . S
C4858 C4859 1.414 . S
C4858 C4861 1.499 . S
C4859 H4833 0.950 . S
C4859 C4858 1.414 . S
C4859 C4860 1.374 . S
C4860 H4834 0.950 . S
C4860 C4856 1.385 . S
C4860 C4859 1.374 . S
C4861 C4858 1.499 . S
C4861 C4862 1.373 . S
C4861 C4863 1.389 . S
C4862 H4835 0.950 . S
C4862 C4848 1.377 . S
C4862 C4861 1.373 . S
C4863 C4847 1.377 . S
C4863 C4861 1.389 . S
C4863 C4864 1.524 . S
C4864 C4863 1.524 . S
C4864 C4865 1.397 . S
C4864 C4869 1.363 . S
C4865 H4836 0.950 . S
C4865 C4864 1.397 . S
C4865 C4866 1.334 . S
C4866 H4837 0.950 . S
C4866 C4865 1.334 . S
C4866 C4867 1.287 . S
C4867 C4866 1.287 . S
C4867 C4868 1.524 . S
C4867 H4870 0.999 . S
C4868 H4838 0.950 . S
C4868 C4867 1.524 . S
C4868 C4869 1.415 . S
C4869 H4839 0.950 . S
C4869 C4864 1.363 . S
C4869 C4868 1.415 . S
H4870 C4867 0.999 . S
H4871 C4852 0.913 . S
H4872 C4890 0.951 . S
H4873 C4892 0.951 . S
H4874 C4894 0.950 . S
H4875 C4895 0.950 . S
H4876 C4897 0.950 . S
H4877 C4900 0.950 . S
H4878 C4901 0.950 . S
H4879 C4903 0.950 . S
H4880 C4904 0.950 . S
H4881 C4905 0.951 . S
H4882 C4907 0.951 . S
H4883 C4909 0.950 . S
H4884 C4910 0.950 . S
H4885 C4912 0.950 . S
H4886 C4915 0.950 . S
H4887 C4916 0.950 . S
H4888 C4918 0.950 . S
H4889 C4919 0.950 . S
C4890 H4872 0.951 . S
C4890 C4891 1.366 . S
C4890 C4892 1.388 . S
C4891 C4890 1.366 . S
C4891 C4895 1.385 . S
C4892 H4873 0.951 . S
C4892 C4890 1.388 . S
C4892 C4893 1.366 . S
C4893 C4892 1.366 . S
C4893 C4894 1.414 . S
C4893 C4896 1.499 . S
C4894 H4874 0.950 . S
C4894 C4893 1.414 . S
C4894 C4895 1.374 . S
C4895 H4875 0.950 . S
C4895 C4891 1.385 . S
C4895 C4894 1.374 . S
C4896 C4893 1.499 . S
C4896 C4897 1.373 . S
C4896 C4898 1.389 . S
C4897 H4876 0.950 . S
C4897 C4896 1.373 . S
C4897 C4913 1.377 . S
C4898 C4896 1.389 . S
C4898 C4899 1.524 . S
C4898 C4912 1.377 . S
C4899 C4898 1.524 . S
C4899 C4900 1.397 . S
C4899 C4904 1.363 . S
C4900 H4877 0.950 . S
C4900 C4899 1.397 . S
C4900 C4901 1.334 . S
C4901 H4878 0.950 . S
C4901 C4900 1.334 . S
C4901 C4902 1.287 . S
C4902 C4901 1.287 . S
C4902 C4903 1.524 . S
C4902 H4921 0.913 . S
C4903 H4879 0.950 . S
C4903 C4902 1.524 . S
C4903 C4904 1.415 . S
C4904 H4880 0.950 . S
C4904 C4899 1.363 . S
C4904 C4903 1.415 . S
C4905 H4881 0.951 . S
C4905 C4906 1.366 . S
C4905 C4907 1.388 . S
C4906 C4905 1.366 . S
C4906 C4910 1.385 . S
C4907 H4882 0.951 . S
C4907 C4905 1.388 . S
C4907 C4908 1.366 . S
C4908 C4907 1.366 . S
C4908 C4909 1.414 . S
C4908 C4911 1.499 . S
C4909 H4883 0.950 . S
C4909 C4908 1.414 . S
C4909 C4910 1.374 . S
C4910 H4884 0.950 . S
C4910 C4906 1.385 . S
C4910 C4909 1.374 . S
C4911 C4908 1.499 . S
C4911 C4912 1.373 . S
C4911 C4913 1.389 . S
C4912 H4885 0.950 . S
C4912 C4898 1.377 . S
C4912 C4911 1.373 . S
C4913 C4897 1.377 . S
C4913 C4911 1.389 . S
C4913 C4914 1.524 . S
C4914 C4913 1.524 . S
C4914 C4915 1.397 . S
C4914 C4919 1.363 . S
C4915 H4886 0.950 . S
C4915 C4914 1.397 . S
C4915 C4916 1.334 . S
C4916 H4887 0.950 . S
C4916 C4915 1.334 . S
C4916 C4917 1.287 . S
C4917 C4916 1.287 . S
C4917 C4918 1.524 . S
C4917 H4920 0.999 . S
C4918 H4888 0.950 . S
C4918 C4917 1.524 . S
C4918 C4919 1.415 . S
C4919 H4889 0.950 . S
C4919 C4914 1.363 . S
C4919 C4918 1.415 . S
H4920 C4917 0.999 . S
H4921 C4902 0.913 . S
H4922 C4940 0.951 . S
H4923 C4942 0.951 . S
H4924 C4944 0.950 . S
H4925 C4945 0.950 . S
H4926 C4947 0.950 . S
H4927 C4950 0.950 . S
H4928 C4951 0.950 . S
H4929 C4953 0.950 . S
H4930 C4954 0.950 . S
H4931 C4955 0.951 . S
H4932 C4957 0.951 . S
H4933 C4959 0.950 . S
H4934 C4960 0.950 . S
H4935 C4962 0.950 . S
H4936 C4965 0.950 . S
H4937 C4966 0.950 . S
H4938 C4968 0.950 . S
H4939 C4969 0.950 . S
C4940 H4922 0.951 . S
C4940 C4941 1.366 . S
C4940 C4942 1.388 . S
C4941 C4940 1.366 . S
C4941 C4945 1.385 . S
C4942 H4923 0.951 . S
C4942 C4940 1.388 . S
C4942 C4943 1.366 . S
C4943 C4942 1.366 . S
C4943 C4944 1.414 . S
C4943 C4946 1.499 . S
C4944 H4924 0.950 . S
C4944 C4943 1.414 . S
C4944 C4945 1.374 . S
C4945 H4925 0.950 . S
C4945 C4941 1.385 . S
C4945 C4944 1.374 . S
C4946 C4943 1.499 . S
C4946 C4947 1.373 . S
C4946 C4948 1.389 . S
C4947 H4926 0.950 . S
C4947 C4946 1.373 . S
C4947 C4963 1.377 . S
C4948 C4946 1.389 . S
C4948 C4949 1.524 . S
C4948 C4962 1.377 . S
C4949 C4948 1.524 . S
C4949 C4950 1.397 . S
C4949 C4954 1.363 . S
C4950 H4927 0.950 . S
C4950 C4949 1.397 . S
C4950 C4951 1.334 . S
C4951 H4928 0.950 . S
C4951 C4950 1.334 . S
C4951 C4952 1.287 . S
C4952 C4951 1.287 . S
C4952 C4953 1.524 . S
C4952 H4971 0.913 . S
C4953 H4929 0.950 . S
C4953 C4952 1.524 . S
C4953 C4954 1.415 . S
C4954 H4930 0.950 . S
C4954 C4949 1.363 . S
C4954 C4953 1.415 . S
C4955 H4931 0.951 . S
C4955 C4956 1.366 . S
C4955 C4957 1.388 . S
C4956 C4955 1.366 . S
C4956 C4960 1.385 . S
C4957 H4932 0.951 . S
C4957 C4955 1.388 . S
C4957 C4958 1.366 . S
C4958 C4957 1.366 . S
C4958 C4959 1.414 . S
C4958 C4961 1.499 . S
C4959 H4933 0.950 . S
C4959 C4958 1.414 . S
C4959 C4960 1.374 . S
C4960 H4934 0.950 . S
C4960 C4956 1.385 . S
C4960 C4959 1.374 . S
C4961 C4958 1.499 . S
C4961 C4962 1.373 . S
C4961 C4963 1.389 . S
C4962 H4935 0.950 . S
C4962 C4948 1.377 . S
C4962 C4961 1.373 . S
C4963 C4947 1.377 . S
C4963 C4961 1.389 . S
C4963 C4964 1.524 . S
C4964 C4963 1.524 . S
C4964 C4965 1.397 . S
C4964 C4969 1.363 . S
C4965 H4936 0.950 . S
C4965 C4964 1.397 . S
C4965 C4966 1.334 . S
C4966 H4937 0.950 . S
C4966 C4965 1.334 . S
C4966 C4967 1.287 . S
C4967 C4966 1.287 . S
C4967 C4968 1.524 . S
C4967 H4970 0.999 . S
C4968 H4938 0.950 . S
C4968 C4967 1.524 . S
C4968 C4969 1.415 . S
C4969 H4939 0.950 . S
C4969 C4964 1.363 . S
C4969 C4968 1.415 . S
H4970 C4967 0.999 . S
H4971 C4952 0.913 . S
H4972 C4990 0.951 . S
H4973 C4992 0.951 . S
H4974 C4994 0.950 . S
H4975 C4995 0.950 . S
H4976 C4997 0.950 . S
H4977 C5000 0.950 . S
H4978 C5001 0.950 . S
H4979 C5003 0.950 . S
H4980 C5004 0.950 . S
H4981 C5005 0.951 . S
H4982 C5007 0.951 . S
H4983 C5009 0.950 . S
H4984 C5010 0.950 . S
H4985 C5012 0.950 . S
H4986 C5015 0.950 . S
H4987 C5016 0.950 . S
H4988 C5018 0.950 . S
H4989 C5019 0.950 . S
C4990 H4972 0.951 . S
C4990 C4991 1.366 . S
C4990 C4992 1.388 . S
C4991 C4990 1.366 . S
C4991 C4995 1.385 . S
C4992 H4973 0.951 . S
C4992 C4990 1.388 . S
C4992 C4993 1.366 . S
C4993 C4992 1.366 . S
C4993 C4994 1.414 . S
C4993 C4996 1.499 . S
C4994 H4974 0.950 . S
C4994 C4993 1.414 . S
C4994 C4995 1.374 . S
C4995 H4975 0.950 . S
C4995 C4991 1.385 . S
C4995 C4994 1.374 . S
C4996 C4993 1.499 . S
C4996 C4997 1.373 . S
C4996 C4998 1.389 . S
C4997 H4976 0.950 . S
C4997 C4996 1.373 . S
C4997 C5013 1.377 . S
C4998 C4996 1.389 . S
C4998 C4999 1.524 . S
C4998 C5012 1.377 . S
C4999 C4998 1.524 . S
C4999 C5000 1.397 . S
C4999 C5004 1.363 . S
C5000 H4977 0.950 . S
C5000 C4999 1.397 . S
C5000 C5001 1.334 . S
C5001 H4978 0.950 . S
C5001 C5000 1.334 . S
C5001 C5002 1.287 . S
C5002 C5001 1.287 . S
C5002 C5003 1.524 . S
C5002 H5021 0.913 . S
C5003 H4979 0.950 . S
C5003 C5002 1.524 . S
C5003 C5004 1.415 . S
C5004 H4980 0.950 . S
C5004 C4999 1.363 . S
C5004 C5003 1.415 . S
C5005 H4981 0.951 . S
C5005 C5006 1.366 . S
C5005 C5007 1.388 . S
C5006 C5005 1.366 . S
C5006 C5010 1.385 . S
C5007 H4982 0.951 . S
C5007 C5005 1.388 . S
C5007 C5008 1.366 . S
C5008 C5007 1.366 . S
C5008 C5009 1.414 . S
C5008 C5011 1.499 . S
C5009 H4983 0.950 . S
C5009 C5008 1.414 . S
C5009 C5010 1.374 . S
C5010 H4984 0.950 . S
C5010 C5006 1.385 . S
C5010 C5009 1.374 . S
C5011 C5008 1.499 . S
C5011 C5012 1.373 . S
C5011 C5013 1.389 . S
C5012 H4985 0.950 . S
C5012 C4998 1.377 . S
C5012 C5011 1.373 . S
C5013 C4997 1.377 . S
C5013 C5011 1.389 . S
C5013 C5014 1.524 . S
C5014 C5013 1.524 . S
C5014 C5015 1.397 . S
C5014 C5019 1.363 . S
C5015 H4986 0.950 . S
C5015 C5014 1.397 . S
C5015 C5016 1.334 . S
C5016 H4987 0.950 . S
C5016 C5015 1.334 . S
C5016 C5017 1.287 . S
C5017 C5016 1.287 . S
C5017 C5018 1.524 . S
C5017 H5020 0.999 . S
C5018 H4988 0.950 . S
C5018 C5017 1.524 . S
C5018 C5019 1.415 . S
C5019 H4989 0.950 . S
C5019 C5014 1.363 . S
C5019 C5018 1.415 . S
H5020 C5017 0.999 . S
H5021 C5002 0.913 . S
H5022 C5040 0.951 . S
H5023 C5042 0.951 . S
H5024 C5044 0.950 . S
H5025 C5045 0.950 . S
H5026 C5047 0.950 . S
H5027 C5050 0.950 . S
H5028 C5051 0.950 . S
H5029 C5053 0.950 . S
H5030 C5054 0.950 . S
H5031 C5055 0.951 . S
H5032 C5057 0.951 . S
H5033 C5059 0.950 . S
H5034 C5060 0.950 . S
H5035 C5062 0.950 . S
H5036 C5065 0.950 . S
H5037 C5066 0.950 . S
H5038 C5068 0.950 . S
H5039 C5069 0.950 . S
C5040 H5022 0.951 . S
C5040 C5041 1.366 . S
C5040 C5042 1.388 . S
C5041 C5040 1.366 . S
C5041 C5045 1.385 . S
C5042 H5023 0.951 . S
C5042 C5040 1.388 . S
C5042 C5043 1.366 . S
C5043 C5042 1.366 . S
C5043 C5044 1.414 . S
C5043 C5046 1.499 . S
C5044 H5024 0.950 . S
C5044 C5043 1.414 . S
C5044 C5045 1.374 . S
C5045 H5025 0.950 . S
C5045 C5041 1.385 . S
C5045 C5044 1.374 . S
C5046 C5043 1.499 . S
C5046 C5047 1.373 . S
C5046 C5048 1.389 . S
C5047 H5026 0.950 . S
C5047 C5046 1.373 . S
C5047 C5063 1.377 . S
C5048 C5046 1.389 . S
C5048 C5049 1.524 . S
C5048 C5062 1.377 . S
C5049 C5048 1.524 . S
C5049 C5050 1.397 . S
C5049 C5054 1.363 . S
C5050 H5027 0.950 . S
C5050 C5049 1.397 . S
C5050 C5051 1.334 . S
C5051 H5028 0.950 . S
C5051 C5050 1.334 . S
C5051 C5052 1.287 . S
C5052 C5051 1.287 . S
C5052 C5053 1.524 . S
C5052 H5071 0.913 . S
C5053 H5029 0.950 . S
C5053 C5052 1.524 . S
C5053 C5054 1.415 . S
C5054 H5030 0.950 . S
C5054 C5049 1.363 . S
C5054 C5053 1.415 . S
C5055 H5031 0.951 . S
C5055 C5056 1.366 . S
C5055 C5057 1.388 . S
C5056 C5055 1.366 . S
C5056 C5060 1.385 . S
C5057 H5032 0.951 . S
C5057 C5055 1.388 . S
C5057 C5058 1.366 . S
C5058 C5057 1.366 . S
C5058 C5059 1.414 . S
C5058 C5061 1.499 . S
C5059 H5033 0.950 . S
C5059 C5058 1.414 . S
C5059 C5060 1.374 . S
C5060 H5034 0.950 . S
C5060 C5056 1.385 . S
C5060 C5059 1.374 . S
C5061 C5058 1.499 . S
C5061 C5062 1.373 . S
C5061 C5063 1.389 . S
C5062 H5035 0.950 . S
C5062 C5048 1.377 . S
C5062 C5061 1.373 . S
C5063 C5047 1.377 . S
C5063 C5061 1.389 . S
C5063 C5064 1.524 . S
C5064 C5063 1.524 . S
C5064 C5065 1.397 . S
C5064 C5069 1.363 . S
C5065 H5036 0.950 . S
C5065 C5064 1.397 . S
C5065 C5066 1.334 . S
C5066 H5037 0.950 . S
C5066 C5065 1.334 . S
C5066 C5067 1.287 . S
C5067 C5066 1.287 . S
C5067 C5068 1.524 . S
C5067 H5070 0.999 . S
C5068 H5038 0.950 . S
C5068 C5067 1.524 . S
C5068 C5069 1.415 . S
C5069 H5039 0.950 . S
C5069 C5064 1.363 . S
C5069 C5068 1.415 . S
H5070 C5067 0.999 . S
H5071 C5052 0.913 . S
H5072 C5090 0.951 . S
H5073 C5092 0.951 . S
H5074 C5094 0.950 . S
H5075 C5095 0.950 . S
H5076 C5097 0.950 . S
H5077 C5100 0.950 . S
H5078 C5101 0.950 . S
H5079 C5103 0.950 . S
H5080 C5104 0.950 . S
H5081 C5105 0.951 . S
H5082 C5107 0.951 . S
H5083 C5109 0.950 . S
H5084 C5110 0.950 . S
H5085 C5112 0.950 . S
H5086 C5115 0.950 . S
H5087 C5116 0.950 . S
H5088 C5118 0.950 . S
H5089 C5119 0.950 . S
C5090 H5072 0.951 . S
C5090 C5091 1.366 . S
C5090 C5092 1.388 . S
C5091 C5090 1.366 . S
C5091 C5095 1.385 . S
C5092 H5073 0.951 . S
C5092 C5090 1.388 . S
C5092 C5093 1.366 . S
C5093 C5092 1.366 . S
C5093 C5094 1.414 . S
C5093 C5096 1.499 . S
C5094 H5074 0.950 . S
C5094 C5093 1.414 . S
C5094 C5095 1.374 . S
C5095 H5075 0.950 . S
C5095 C5091 1.385 . S
C5095 C5094 1.374 . S
C5096 C5093 1.499 . S
C5096 C5097 1.373 . S
C5096 C5098 1.389 . S
C5097 H5076 0.950 . S
C5097 C5096 1.373 . S
C5097 C5113 1.377 . S
C5098 C5096 1.389 . S
C5098 C5099 1.524 . S
C5098 C5112 1.377 . S
C5099 C5098 1.524 . S
C5099 C5100 1.397 . S
C5099 C5104 1.363 . S
C5100 H5077 0.950 . S
C5100 C5099 1.397 . S
C5100 C5101 1.334 . S
C5101 H5078 0.950 . S
C5101 C5100 1.334 . S
C5101 C5102 1.287 . S
C5102 C5101 1.287 . S
C5102 C5103 1.524 . S
C5102 H5121 0.913 . S
C5103 H5079 0.950 . S
C5103 C5102 1.524 . S
C5103 C5104 1.415 . S
C5104 H5080 0.950 . S
C5104 C5099 1.363 . S
C5104 C5103 1.415 . S
C5105 H5081 0.951 . S
C5105 C5106 1.366 . S
C5105 C5107 1.388 . S
C5106 C5105 1.366 . S
C5106 C5110 1.385 . S
C5107 H5082 0.951 . S
C5107 C5105 1.388 . S
C5107 C5108 1.366 . S
C5108 C5107 1.366 . S
C5108 C5109 1.414 . S
C5108 C5111 1.499 . S
C5109 H5083 0.950 . S
C5109 C5108 1.414 . S
C5109 C5110 1.374 . S
C5110 H5084 0.950 . S
C5110 C5106 1.385 . S
C5110 C5109 1.374 . S
C5111 C5108 1.499 . S
C5111 C5112 1.373 . S
C5111 C5113 1.389 . S
C5112 H5085 0.950 . S
C5112 C5098 1.377 . S
C5112 C5111 1.373 . S
C5113 C5097 1.377 . S
C5113 C5111 1.389 . S
C5113 C5114 1.524 . S
C5114 C5113 1.524 . S
C5114 C5115 1.397 . S
C5114 C5119 1.363 . S
C5115 H5086 0.950 . S
C5115 C5114 1.397 . S
C5115 C5116 1.334 . S
C5116 H5087 0.950 . S
C5116 C5115 1.334 . S
C5116 C5117 1.287 . S
C5117 C5116 1.287 . S
C5117 C5118 1.524 . S
C5117 H5120 0.999 . S
C5118 H5088 0.950 . S
C5118 C5117 1.524 . S
C5118 C5119 1.415 . S
C5119 H5089 0.950 . S
C5119 C5114 1.363 . S
C5119 C5118 1.415 . S
H5120 C5117 0.999 . S
H5121 C5102 0.913 . S
H5122 C5140 0.951 . S
H5123 C5142 0.951 . S
H5124 C5144 0.950 . S
H5125 C5145 0.950 . S
H5126 C5147 0.950 . S
H5127 C5150 0.950 . S
H5128 C5151 0.950 . S
H5129 C5153 0.950 . S
H5130 C5154 0.950 . S
H5131 C5155 0.951 . S
H5132 C5157 0.951 . S
H5133 C5159 0.950 . S
H5134 C5160 0.950 . S
H5135 C5162 0.950 . S
H5136 C5165 0.950 . S
H5137 C5166 0.950 . S
H5138 C5168 0.950 . S
H5139 C5169 0.950 . S
C5140 H5122 0.951 . S
C5140 C5141 1.366 . S
C5140 C5142 1.388 . S
C5141 C5140 1.366 . S
C5141 C5145 1.385 . S
C5142 H5123 0.951 . S
C5142 C5140 1.388 . S
C5142 C5143 1.366 . S
C5143 C5142 1.366 . S
C5143 C5144 1.414 . S
C5143 C5146 1.499 . S
C5144 H5124 0.950 . S
C5144 C5143 1.414 . S
C5144 C5145 1.374 . S
C5145 H5125 0.950 . S
C5145 C5141 1.385 . S
C5145 C5144 1.374 . S
C5146 C5143 1.499 . S
C5146 C5147 1.373 . S
C5146 C5148 1.389 . S
C5147 H5126 0.950 . S
C5147 C5146 1.373 . S
C5147 C5163 1.377 . S
C5148 C5146 1.389 . S
C5148 C5149 1.524 . S
C5148 C5162 1.377 . S
C5149 C5148 1.524 . S
C5149 C5150 1.397 . S
C5149 C5154 1.363 . S
C5150 H5127 0.950 . S
C5150 C5149 1.397 . S
C5150 C5151 1.334 . S
C5151 H5128 0.950 . S
C5151 C5150 1.334 . S
C5151 C5152 1.287 . S
C5152 C5151 1.287 . S
C5152 C5153 1.524 . S
C5152 H5171 0.913 . S
C5153 H5129 0.950 . S
C5153 C5152 1.524 . S
C5153 C5154 1.415 . S
C5154 H5130 0.950 . S
C5154 C5149 1.363 . S
C5154 C5153 1.415 . S
C5155 H5131 0.951 . S
C5155 C5156 1.366 . S
C5155 C5157 1.388 . S
C5156 C5155 1.366 . S
C5156 C5160 1.385 . S
C5157 H5132 0.951 . S
C5157 C5155 1.388 . S
C5157 C5158 1.366 . S
C5158 C5157 1.366 . S
C5158 C5159 1.414 . S
C5158 C5161 1.499 . S
C5159 H5133 0.950 . S
C5159 C5158 1.414 . S
C5159 C5160 1.374 . S
C5160 H5134 0.950 . S
C5160 C5156 1.385 . S
C5160 C5159 1.374 . S
C5161 C5158 1.499 . S
C5161 C5162 1.373 . S
C5161 C5163 1.389 . S
C5162 H5135 0.950 . S
C5162 C5148 1.377 . S
C5162 C5161 1.373 . S
C5163 C5147 1.377 . S
C5163 C5161 1.389 . S
C5163 C5164 1.524 . S
C5164 C5163 1.524 . S
C5164 C5165 1.397 . S
C5164 C5169 1.363 . S
C5165 H5136 0.950 . S
C5165 C5164 1.397 . S
C5165 C5166 1.334 . S
C5166 H5137 0.950 . S
C5166 C5165 1.334 . S
C5166 C5167 1.287 . S
C5167 C5166 1.287 . S
C5167 C5168 1.524 . S
C5167 H5170 0.999 . S
C5168 H5138 0.950 . S
C5168 C5167 1.524 . S
C5168 C5169 1.415 . S
C5169 H5139 0.950 . S
C5169 C5164 1.363 . S
C5169 C5168 1.415 . S
H5170 C5167 0.999 . S
H5171 C5152 0.913 . S
H5172 C5190 0.951 . S
H5173 C5192 0.951 . S
H5174 C5194 0.950 . S
H5175 C5195 0.950 . S
H5176 C5197 0.950 . S
H5177 C5200 0.950 . S
H5178 C5201 0.950 . S
H5179 C5203 0.950 . S
H5180 C5204 0.950 . S
H5181 C5205 0.951 . S
H5182 C5207 0.951 . S
H5183 C5209 0.950 . S
H5184 C5210 0.950 . S
H5185 C5212 0.950 . S
H5186 C5215 0.950 . S
H5187 C5216 0.950 . S
H5188 C5218 0.950 . S
H5189 C5219 0.950 . S
C5190 H5172 0.951 . S
C5190 C5191 1.366 . S
C5190 C5192 1.388 . S
C5191 C5190 1.366 . S
C5191 C5195 1.385 . S
C5192 H5173 0.951 . S
C5192 C5190 1.388 . S
C5192 C5193 1.366 . S
C5193 C5192 1.366 . S
C5193 C5194 1.414 . S
C5193 C5196 1.499 . S
C5194 H5174 0.950 . S
C5194 C5193 1.414 . S
C5194 C5195 1.374 . S
C5195 H5175 0.950 . S
C5195 C5191 1.385 . S
C5195 C5194 1.374 . S
C5196 C5193 1.499 . S
C5196 C5197 1.373 . S
C5196 C5198 1.389 . S
C5197 H5176 0.950 . S
C5197 C5196 1.373 . S
C5197 C5213 1.377 . S
C5198 C5196 1.389 . S
C5198 C5199 1.524 . S
C5198 C5212 1.377 . S
C5199 C5198 1.524 . S
C5199 C5200 1.397 . S
C5199 C5204 1.363 . S
C5200 H5177 0.950 . S
C5200 C5199 1.397 . S
C5200 C5201 1.334 . S
C5201 H5178 0.950 . S
C5201 C5200 1.334 . S
C5201 C5202 1.287 . S
C5202 C5201 1.287 . S
C5202 C5203 1.524 . S
C5202 H5221 0.913 . S
C5203 H5179 0.950 . S
C5203 C5202 1.524 . S
C5203 C5204 1.415 . S
C5204 H5180 0.950 . S
C5204 C5199 1.363 . S
C5204 C5203 1.415 . S
C5205 H5181 0.951 . S
C5205 C5206 1.366 . S
C5205 C5207 1.388 . S
C5206 C5205 1.366 . S
C5206 C5210 1.385 . S
C5207 H5182 0.951 . S
C5207 C5205 1.388 . S
C5207 C5208 1.366 . S
C5208 C5207 1.366 . S
C5208 C5209 1.414 . S
C5208 C5211 1.499 . S
C5209 H5183 0.950 . S
C5209 C5208 1.414 . S
C5209 C5210 1.374 . S
C5210 H5184 0.950 . S
C5210 C5206 1.385 . S
C5210 C5209 1.374 . S
C5211 C5208 1.499 . S
C5211 C5212 1.373 . S
C5211 C5213 1.389 . S
C5212 H5185 0.950 . S
C5212 C5198 1.377 . S
C5212 C5211 1.373 . S
C5213 C5197 1.377 . S
C5213 C5211 1.389 . S
C5213 C5214 1.524 . S
C5214 C5213 1.524 . S
C5214 C5215 1.397 . S
C5214 C5219 1.363 . S
C5215 H5186 0.950 . S
C5215 C5214 1.397 . S
C5215 C5216 1.334 . S
C5216 H5187 0.950 . S
C5216 C5215 1.334 . S
C5216 C5217 1.287 . S
C5217 C5216 1.287 . S
C5217 C5218 1.524 . S
C5217 H5220 0.999 . S
C5218 H5188 0.950 . S
C5218 C5217 1.524 . S
C5218 C5219 1.415 . S
C5219 H5189 0.950 . S
C5219 C5214 1.363 . S
C5219 C5218 1.415 . S
H5220 C5217 0.999 . S
H5221 C5202 0.913 . S
H5222 C5240 0.951 . S
H5223 C5242 0.951 . S
H5224 C5244 0.950 . S
H5225 C5245 0.950 . S
H5226 C5247 0.950 . S
H5227 C5250 0.950 . S
H5228 C5251 0.950 . S
H5229 C5253 0.950 . S
H5230 C5254 0.950 . S
H5231 C5255 0.951 . S
H5232 C5257 0.951 . S
H5233 C5259 0.950 . S
H5234 C5260 0.950 . S
H5235 C5262 0.950 . S
H5236 C5265 0.950 . S
H5237 C5266 0.950 . S
H5238 C5268 0.950 . S
H5239 C5269 0.950 . S
C5240 H5222 0.951 . S
C5240 C5241 1.366 . S
C5240 C5242 1.388 . S
C5241 C5240 1.366 . S
C5241 C5245 1.385 . S
C5242 H5223 0.951 . S
C5242 C5240 1.388 . S
C5242 C5243 1.366 . S
C5243 C5242 1.366 . S
C5243 C5244 1.414 . S
C5243 C5246 1.499 . S
C5244 H5224 0.950 . S
C5244 C5243 1.414 . S
C5244 C5245 1.374 . S
C5245 H5225 0.950 . S
C5245 C5241 1.385 . S
C5245 C5244 1.374 . S
C5246 C5243 1.499 . S
C5246 C5247 1.373 . S
C5246 C5248 1.389 . S
C5247 H5226 0.950 . S
C5247 C5246 1.373 . S
C5247 C5263 1.377 . S
C5248 C5246 1.389 . S
C5248 C5249 1.524 . S
C5248 C5262 1.377 . S
C5249 C5248 1.524 . S
C5249 C5250 1.397 . S
C5249 C5254 1.363 . S
C5250 H5227 0.950 . S
C5250 C5249 1.397 . S
C5250 C5251 1.334 . S
C5251 H5228 0.950 . S
C5251 C5250 1.334 . S
C5251 C5252 1.287 . S
C5252 C5251 1.287 . S
C5252 C5253 1.524 . S
C5252 H5271 0.913 . S
C5253 H5229 0.950 . S
C5253 C5252 1.524 . S
C5253 C5254 1.415 . S
C5254 H5230 0.950 . S
C5254 C5249 1.363 . S
C5254 C5253 1.415 . S
C5255 H5231 0.951 . S
C5255 C5256 1.366 . S
C5255 C5257 1.388 . S
C5256 C5255 1.366 . S
C5256 C5260 1.385 . S
C5257 H5232 0.951 . S
C5257 C5255 1.388 . S
C5257 C5258 1.366 . S
C5258 C5257 1.366 . S
C5258 C5259 1.414 . S
C5258 C5261 1.499 . S
C5259 H5233 0.950 . S
C5259 C5258 1.414 . S
C5259 C5260 1.374 . S
C5260 H5234 0.950 . S
C5260 C5256 1.385 . S
C5260 C5259 1.374 . S
C5261 C5258 1.499 . S
C5261 C5262 1.373 . S
C5261 C5263 1.389 . S
C5262 H5235 0.950 . S
C5262 C5248 1.377 . S
C5262 C5261 1.373 . S
C5263 C5247 1.377 . S
C5263 C5261 1.389 . S
C5263 C5264 1.524 . S
C5264 C5263 1.524 . S
C5264 C5265 1.397 . S
C5264 C5269 1.363 . S
C5265 H5236 0.950 . S
C5265 C5264 1.397 . S
C5265 C5266 1.334 . S
C5266 H5237 0.950 . S
C5266 C5265 1.334 . S
C5266 C5267 1.287 . S
C5267 C5266 1.287 . S
C5267 C5268 1.524 . S
C5267 H5270 0.999 . S
C5268 H5238 0.950 . S
C5268 C5267 1.524 . S
C5268 C5269 1.415 . S
C5269 H5239 0.950 . S
C5269 C5264 1.363 . S
C5269 C5268 1.415 . S
H5270 C5267 0.999 . S
H5271 C5252 0.913 . S
H5272 C5290 0.951 . S
H5273 C5292 0.951 . S
H5274 C5294 0.950 . S
H5275 C5295 0.950 . S
H5276 C5297 0.950 . S
H5277 C5300 0.950 . S
H5278 C5301 0.950 . S
H5279 C5303 0.950 . S
H5280 C5304 0.950 . S
H5281 C5305 0.951 . S
H5282 C5307 0.951 . S
H5283 C5309 0.950 . S
H5284 C5310 0.950 . S
H5285 C5312 0.950 . S
H5286 C5315 0.950 . S
H5287 C5316 0.950 . S
H5288 C5318 0.950 . S
H5289 C5319 0.950 . S
C5290 H5272 0.951 . S
C5290 C5291 1.366 . S
C5290 C5292 1.388 . S
C5291 C5290 1.366 . S
C5291 C5295 1.385 . S
C5292 H5273 0.951 . S
C5292 C5290 1.388 . S
C5292 C5293 1.366 . S
C5293 C5292 1.366 . S
C5293 C5294 1.414 . S
C5293 C5296 1.499 . S
C5294 H5274 0.950 . S
C5294 C5293 1.414 . S
C5294 C5295 1.374 . S
C5295 H5275 0.950 . S
C5295 C5291 1.385 . S
C5295 C5294 1.374 . S
C5296 C5293 1.499 . S
C5296 C5297 1.373 . S
C5296 C5298 1.389 . S
C5297 H5276 0.950 . S
C5297 C5296 1.373 . S
C5297 C5313 1.377 . S
C5298 C5296 1.389 . S
C5298 C5299 1.524 . S
C5298 C5312 1.377 . S
C5299 C5298 1.524 . S
C5299 C5300 1.397 . S
C5299 C5304 1.363 . S
C5300 H5277 0.950 . S
C5300 C5299 1.397 . S
C5300 C5301 1.334 . S
C5301 H5278 0.950 . S
C5301 C5300 1.334 . S
C5301 C5302 1.287 . S
C5302 C5301 1.287 . S
C5302 C5303 1.524 . S
C5302 H5321 0.913 . S
C5303 H5279 0.950 . S
C5303 C5302 1.524 . S
C5303 C5304 1.415 . S
C5304 H5280 0.950 . S
C5304 C5299 1.363 . S
C5304 C5303 1.415 . S
C5305 H5281 0.951 . S
C5305 C5306 1.366 . S
C5305 C5307 1.388 . S
C5306 C5305 1.366 . S
C5306 C5310 1.385 . S
C5307 H5282 0.951 . S
C5307 C5305 1.388 . S
C5307 C5308 1.366 . S
C5308 C5307 1.366 . S
C5308 C5309 1.414 . S
C5308 C5311 1.499 . S
C5309 H5283 0.950 . S
C5309 C5308 1.414 . S
C5309 C5310 1.374 . S
C5310 H5284 0.950 . S
C5310 C5306 1.385 . S
C5310 C5309 1.374 . S
C5311 C5308 1.499 . S
C5311 C5312 1.373 . S
C5311 C5313 1.389 . S
C5312 H5285 0.950 . S
C5312 C5298 1.377 . S
C5312 C5311 1.373 . S
C5313 C5297 1.377 . S
C5313 C5311 1.389 . S
C5313 C5314 1.524 . S
C5314 C5313 1.524 . S
C5314 C5315 1.397 . S
C5314 C5319 1.363 . S
C5315 H5286 0.950 . S
C5315 C5314 1.397 . S
C5315 C5316 1.334 . S
C5316 H5287 0.950 . S
C5316 C5315 1.334 . S
C5316 C5317 1.287 . S
C5317 C5316 1.287 . S
C5317 C5318 1.524 . S
C5317 H5320 0.999 . S
C5318 H5288 0.950 . S
C5318 C5317 1.524 . S
C5318 C5319 1.415 . S
C5319 H5289 0.950 . S
C5319 C5314 1.363 . S
C5319 C5318 1.415 . S
H5320 C5317 0.999 . S
H5321 C5302 0.913 . S
H5322 C5340 0.951 . S
H5323 C5342 0.951 . S
H5324 C5344 0.950 . S
H5325 C5345 0.950 . S
H5326 C5347 0.950 . S
H5327 C5350 0.950 . S
H5328 C5351 0.950 . S
H5329 C5353 0.950 . S
H5330 C5354 0.950 . S
H5331 C5355 0.951 . S
H5332 C5357 0.951 . S
H5333 C5359 0.950 . S
H5334 C5360 0.950 . S
H5335 C5362 0.950 . S
H5336 C5365 0.950 . S
H5337 C5366 0.950 . S
H5338 C5368 0.950 . S
H5339 C5369 0.950 . S
C5340 H5322 0.951 . S
C5340 C5341 1.366 . S
C5340 C5342 1.388 . S
C5341 C5340 1.366 . S
C5341 C5345 1.385 . S
C5342 H5323 0.951 . S
C5342 C5340 1.388 . S
C5342 C5343 1.366 . S
C5343 C5342 1.366 . S
C5343 C5344 1.414 . S
C5343 C5346 1.499 . S
C5344 H5324 0.950 . S
C5344 C5343 1.414 . S
C5344 C5345 1.374 . S
C5345 H5325 0.950 . S
C5345 C5341 1.385 . S
C5345 C5344 1.374 . S
C5346 C5343 1.499 . S
C5346 C5347 1.373 . S
C5346 C5348 1.389 . S
C5347 H5326 0.950 . S
C5347 C5346 1.373 . S
C5347 C5363 1.377 . S
C5348 C5346 1.389 . S
C5348 C5349 1.524 . S
C5348 C5362 1.377 . S
C5349 C5348 1.524 . S
C5349 C5350 1.397 . S
C5349 C5354 1.363 . S
C5350 H5327 0.950 . S
C5350 C5349 1.397 . S
C5350 C5351 1.334 . S
C5351 H5328 0.950 . S
C5351 C5350 1.334 . S
C5351 C5352 1.287 . S
C5352 C5351 1.287 . S
C5352 C5353 1.524 . S
C5352 H5371 0.913 . S
C5353 H5329 0.950 . S
C5353 C5352 1.524 . S
C5353 C5354 1.415 . S
C5354 H5330 0.950 . S
C5354 C5349 1.363 . S
C5354 C5353 1.415 . S
C5355 H5331 0.951 . S
C5355 C5356 1.366 . S
C5355 C5357 1.388 . S
C5356 C5355 1.366 . S
C5356 C5360 1.385 . S
C5357 H5332 0.951 . S
C5357 C5355 1.388 . S
C5357 C5358 1.366 . S
C5358 C5357 1.366 . S
C5358 C5359 1.414 . S
C5358 C5361 1.499 . S
C5359 H5333 0.950 . S
C5359 C5358 1.414 . S
C5359 C5360 1.374 . S
C5360 H5334 0.950 . S
C5360 C5356 1.385 . S
C5360 C5359 1.374 . S
C5361 C5358 1.499 . S
C5361 C5362 1.373 . S
C5361 C5363 1.389 . S
C5362 H5335 0.950 . S
C5362 C5348 1.377 . S
C5362 C5361 1.373 . S
C5363 C5347 1.377 . S
C5363 C5361 1.389 . S
C5363 C5364 1.524 . S
C5364 C5363 1.524 . S
C5364 C5365 1.397 . S
C5364 C5369 1.363 . S
C5365 H5336 0.950 . S
C5365 C5364 1.397 . S
C5365 C5366 1.334 . S
C5366 H5337 0.950 . S
C5366 C5365 1.334 . S
C5366 C5367 1.287 . S
C5367 C5366 1.287 . S
C5367 C5368 1.524 . S
C5367 H5370 0.999 . S
C5368 H5338 0.950 . S
C5368 C5367 1.524 . S
C5368 C5369 1.415 . S
C5369 H5339 0.950 . S
C5369 C5364 1.363 . S
C5369 C5368 1.415 . S
H5370 C5367 0.999 . S
H5371 C5352 0.913 . S
H5372 C5390 0.951 . S
H5373 C5392 0.951 . S
H5374 C5394 0.950 . S
H5375 C5395 0.950 . S
H5376 C5397 0.950 . S
H5377 C5400 0.950 . S
H5378 C5401 0.950 . S
H5379 C5403 0.950 . S
H5380 C5404 0.950 . S
H5381 C5405 0.951 . S
H5382 C5407 0.951 . S
H5383 C5409 0.950 . S
H5384 C5410 0.950 . S
H5385 C5412 0.950 . S
H5386 C5415 0.950 . S
H5387 C5416 0.950 . S
H5388 C5418 0.950 . S
H5389 C5419 0.950 . S
C5390 H5372 0.951 . S
C5390 C5391 1.366 . S
C5390 C5392 1.388 . S
C5391 C5390 1.366 . S
C5391 C5395 1.385 . S
C5392 H5373 0.951 . S
C5392 C5390 1.388 . S
C5392 C5393 1.366 . S
C5393 C5392 1.366 . S
C5393 C5394 1.414 . S
C5393 C5396 1.499 . S
C5394 H5374 0.950 . S
C5394 C5393 1.414 . S
C5394 C5395 1.374 . S
C5395 H5375 0.950 . S
C5395 C5391 1.385 . S
C5395 C5394 1.374 . S
C5396 C5393 1.499 . S
C5396 C5397 1.373 . S
C5396 C5398 1.389 . S
C5397 H5376 0.950 . S
C5397 C5396 1.373 . S
C5397 C5413 1.377 . S
C5398 C5396 1.389 . S
C5398 C5399 1.524 . S
C5398 C5412 1.377 . S
C5399 C5398 1.524 . S
C5399 C5400 1.397 . S
C5399 C5404 1.363 . S
C5400 H5377 0.950 . S
C5400 C5399 1.397 . S
C5400 C5401 1.334 . S
C5401 H5378 0.950 . S
C5401 C5400 1.334 . S
C5401 C5402 1.287 . S
C5402 C5401 1.287 . S
C5402 C5403 1.524 . S
C5402 H5421 0.913 . S
C5403 H5379 0.950 . S
C5403 C5402 1.524 . S
C5403 C5404 1.415 . S
C5404 H5380 0.950 . S
C5404 C5399 1.363 . S
C5404 C5403 1.415 . S
C5405 H5381 0.951 . S
C5405 C5406 1.366 . S
C5405 C5407 1.388 . S
C5406 C5405 1.366 . S
C5406 C5410 1.385 . S
C5407 H5382 0.951 . S
C5407 C5405 1.388 . S
C5407 C5408 1.366 . S
C5408 C5407 1.366 . S
C5408 C5409 1.414 . S
C5408 C5411 1.499 . S
C5409 H5383 0.950 . S
C5409 C5408 1.414 . S
C5409 C5410 1.374 . S
C5410 H5384 0.950 . S
C5410 C5406 1.385 . S
C5410 C5409 1.374 . S
C5411 C5408 1.499 . S
C5411 C5412 1.373 . S
C5411 C5413 1.389 . S
C5412 H5385 0.950 . S
C5412 C5398 1.377 . S
C5412 C5411 1.373 . S
C5413 C5397 1.377 . S
C5413 C5411 1.389 . S
C5413 C5414 1.524 . S
C5414 C5413 1.524 . S
C5414 C5415 1.397 . S
C5414 C5419 1.363 . S
C5415 H5386 0.950 . S
C5415 C5414 1.397 . S
C5415 C5416 1.334 . S
C5416 H5387 0.950 . S
C5416 C5415 1.334 . S
C5416 C5417 1.287 . S
C5417 C5416 1.287 . S
C5417 C5418 1.524 . S
C5417 H5420 0.999 . S
C5418 H5388 0.950 . S
C5418 C5417 1.524 . S
C5418 C5419 1.415 . S
C5419 H5389 0.950 . S
C5419 C5414 1.363 . S
C5419 C5418 1.415 . S
H5420 C5417 0.999 . S
H5421 C5402 0.913 . S
H5422 C5440 0.951 . S
H5423 C5442 0.951 . S
H5424 C5444 0.950 . S
H5425 C5445 0.950 . S
H5426 C5447 0.950 . S
H5427 C5450 0.950 . S
H5428 C5451 0.950 . S
H5429 C5453 0.950 . S
H5430 C5454 0.950 . S
H5431 C5455 0.951 . S
H5432 C5457 0.951 . S
H5433 C5459 0.950 . S
H5434 C5460 0.950 . S
H5435 C5462 0.950 . S
H5436 C5465 0.950 . S
H5437 C5466 0.950 . S
H5438 C5468 0.950 . S
H5439 C5469 0.950 . S
C5440 H5422 0.951 . S
C5440 C5441 1.366 . S
C5440 C5442 1.388 . S
C5441 C5440 1.366 . S
C5441 C5445 1.385 . S
C5442 H5423 0.951 . S
C5442 C5440 1.388 . S
C5442 C5443 1.366 . S
C5443 C5442 1.366 . S
C5443 C5444 1.414 . S
C5443 C5446 1.499 . S
C5444 H5424 0.950 . S
C5444 C5443 1.414 . S
C5444 C5445 1.374 . S
C5445 H5425 0.950 . S
C5445 C5441 1.385 . S
C5445 C5444 1.374 . S
C5446 C5443 1.499 . S
C5446 C5447 1.373 . S
C5446 C5448 1.389 . S
C5447 H5426 0.950 . S
C5447 C5446 1.373 . S
C5447 C5463 1.377 . S
C5448 C5446 1.389 . S
C5448 C5449 1.524 . S
C5448 C5462 1.377 . S
C5449 C5448 1.524 . S
C5449 C5450 1.397 . S
C5449 C5454 1.363 . S
C5450 H5427 0.950 . S
C5450 C5449 1.397 . S
C5450 C5451 1.334 . S
C5451 H5428 0.950 . S
C5451 C5450 1.334 . S
C5451 C5452 1.287 . S
C5452 C5451 1.287 . S
C5452 C5453 1.524 . S
C5452 H5471 0.913 . S
C5453 H5429 0.950 . S
C5453 C5452 1.524 . S
C5453 C5454 1.415 . S
C5454 H5430 0.950 . S
C5454 C5449 1.363 . S
C5454 C5453 1.415 . S
C5455 H5431 0.951 . S
C5455 C5456 1.366 . S
C5455 C5457 1.388 . S
C5456 C5455 1.366 . S
C5456 C5460 1.385 . S
C5457 H5432 0.951 . S
C5457 C5455 1.388 . S
C5457 C5458 1.366 . S
C5458 C5457 1.366 . S
C5458 C5459 1.414 . S
C5458 C5461 1.499 . S
C5459 H5433 0.950 . S
C5459 C5458 1.414 . S
C5459 C5460 1.374 . S
C5460 H5434 0.950 . S
C5460 C5456 1.385 . S
C5460 C5459 1.374 . S
C5461 C5458 1.499 . S
C5461 C5462 1.373 . S
C5461 C5463 1.389 . S
C5462 H5435 0.950 . S
C5462 C5448 1.377 . S
C5462 C5461 1.373 . S
C5463 C5447 1.377 . S
C5463 C5461 1.389 . S
C5463 C5464 1.524 . S
C5464 C5463 1.524 . S
C5464 C5465 1.397 . S
C5464 C5469 1.363 . S
C5465 H5436 0.950 . S
C5465 C5464 1.397 . S
C5465 C5466 1.334 . S
C5466 H5437 0.950 . S
C5466 C5465 1.334 . S
C5466 C5467 1.287 . S
C5467 C5466 1.287 . S
C5467 C5468 1.524 . S
C5467 H5470 0.999 . S
C5468 H5438 0.950 . S
C5468 C5467 1.524 . S
C5468 C5469 1.415 . S
C5469 H5439 0.950 . S
C5469 C5464 1.363 . S
C5469 C5468 1.415 . S
H5470 C5467 0.999 . S
H5471 C5452 0.913 . S
C691 C286 1.566 . S
C706 C6 1.547 . S
C741 C23 1.735 . S
C756 C247 1.744 . S
C791 C34 1.619 . S
C806 C260 1.751 . S
C841 C275 1.724 . S
C856 C51 1.719 . S
C891 C328 1.504 . S
C906 C65 1.645 . S
C941 C77 1.694 . S
C956 C303 1.816 . S
C991 C93 1.629 . S
C1006 C314 1.511 . S
C1041 C105 1.626 . S
C1056 C231 1.628 . S
C1091 C118 1.639 . S
C1106 C216 1.636 . S
C1141 C135 1.746 . S
C1156 C176 1.744 . S
C1191 C146 1.486 . S
C1206 C188 1.485 . S
C1241 C204 1.734 . S
C1256 C163 1.735 . S
C1291 C345 1.842 . S
C1306 C624 1.840 . S
C1341 C583 1.585 . S
C1356 C357 1.475 . S
C1391 C373 1.736 . S
C1406 C594 1.625 . S
C1441 C611 1.675 . S
C1456 C385 1.567 . S
C1491 C398 1.174 . S
C1506 C664 1.167 . S
C1541 C637 1.582 . S
C1556 C415 1.700 . S
C1591 C426 1.068 . S
C1606 C650 1.064 . S
C1641 C569 1.804 . S
C1656 C443 1.805 . S
C1691 C456 1.615 . S
C1706 C555 1.614 . S
C1741 C510 1.461 . S
C1756 C468 1.457 . S
C1791 C527 1.510 . S
C1806 C484 1.511 . S
C1841 C538 1.453 . S
C1856 C496 1.452 . S
C1891 C370 0.978 . S
C1906 C9 1.023 . S
C1941 C20 0.870 . S
C1956 C386 0.900 . S
C1991 C37 0.991 . S
C2006 C342 0.955 . S
C2041 C48 0.881 . S
C2056 C358 0.914 . S
C2091 C62 1.049 . S
C2106 C429 1.094 . S
C2141 C440 0.949 . S
C2156 C78 0.988 . S
C2191 C401 1.087 . S
C2206 C90 1.040 . S
C2241 C412 0.972 . S
C2256 C106 1.020 . S
C2291 C513 1.181 . S
C2306 C121 1.186 . S
C2341 C132 0.788 . S
C2356 C524 0.792 . S
C2391 C541 1.140 . S
C2406 C149 1.144 . S
C2441 C160 0.786 . S
C2456 C552 0.786 . S
C2491 C175 0.925 . S
C2506 C455 0.930 . S
C2541 C191 0.985 . S
C2556 C471 0.983 . S
C2591 C483 0.928 . S
C2606 C203 0.927 . S
C2641 C499 1.025 . S
C2656 C219 1.027 . S
C2691 C232 1.102 . S
C2706 C608 1.032 . S
C2741 C244 0.906 . S
C2756 C638 0.947 . S
C2791 C653 0.963 . S
C2806 C259 0.928 . S
C2841 C566 0.832 . S
C2856 C272 0.829 . S
C2891 C289 1.017 . S
C2906 C667 1.015 . S
C2941 C580 0.960 . S
C2956 C300 0.976 . S
C2991 C317 1.162 . S
C3006 C597 1.160 . S
C3041 C331 1.036 . S
C3056 C623 0.991 . S
C3091 C399 1.894 . S
C3106 C8 1.812 . S
C3141 C414 1.821 . S
C3156 C21 1.924 . S
C3191 C427 2.015 . S
C3206 C36 1.944 . S
C3241 C49 1.952 . S
C3256 C442 1.854 . S
C3291 C344 1.841 . S
C3306 C63 1.921 . S
C3341 C356 2.064 . S
C3356 C79 1.984 . S
C3391 C91 1.890 . S
C3406 C372 1.805 . S
C3441 C384 1.956 . S
C3456 C107 1.866 . S
C3491 C120 1.870 . S
C3506 C539 1.947 . S
C3541 C133 1.990 . S
C3556 C554 1.895 . S
C3591 C511 1.941 . S
C3606 C148 1.855 . S
C3641 C161 1.996 . S
C3656 C526 1.887 . S
C3691 C485 1.926 . S
C3706 C174 2.024 . S
C3741 C190 1.785 . S
C3756 C497 1.871 . S
C3791 C202 2.017 . S
C3806 C457 1.930 . S
C3841 C218 1.814 . S
C3856 C469 1.892 . S
C3891 C636 1.982 . S
C3906 C233 1.894 . S
C3941 C245 1.981 . S
C3956 C610 1.869 . S
C3991 C258 1.837 . S
C4006 C625 1.753 . S
C4041 C273 1.955 . S
C4056 C582 1.850 . S
C4091 C595 1.880 . S
C4106 C288 1.800 . S
C4141 C568 1.861 . S
C4156 C301 1.955 . S
C4191 C665 2.001 . S
C4206 C316 1.918 . S
C4241 C330 1.901 . S
C4256 C651 1.994 . S
C4291 C217 1.540 . S
C4306 C7 1.536 . S
C4341 C22 1.337 . S
C4356 C177 1.316 . S
C4391 C189 1.505 . S
C4406 C35 1.495 . S
C4441 C205 1.284 . S
C4456 C50 1.314 . S
C4491 C134 1.185 . S
C4506 C64 1.215 . S
C4541 C76 1.537 . S
C4556 C147 1.549 . S
C4591 C92 1.233 . S
C4606 C162 1.209 . S
C4641 C119 1.554 . S
C4656 C104 1.546 . S
C4691 C230 1.453 . S
C4706 C287 1.456 . S
C4741 C329 1.458 . S
C4756 C246 1.367 . S
C4791 C302 1.281 . S
C4806 C261 1.294 . S
C4841 C274 1.303 . S
C4856 C315 1.423 . S
C4891 C553 1.314 . S
C4906 C343 1.313 . S
C4941 C512 1.197 . S
C4956 C359 1.200 . S
C4991 C371 1.365 . S
C5006 C525 1.359 . S
C5041 C540 1.183 . S
C5056 C387 1.191 . S
C5091 C470 1.157 . S
C5106 C400 1.141 . S
C5141 C413 1.383 . S
C5156 C482 1.376 . S
C5191 C428 1.137 . S
C5206 C498 1.159 . S
C5241 C441 1.316 . S
C5256 C454 1.318 . S
C5291 C567 1.311 . S
C5306 C622 1.311 . S
C5341 C666 1.214 . S
C5356 C581 1.337 . S
C5391 C639 1.143 . S
C5406 C596 1.137 . S
C5441 C652 1.251 . S
C5456 C609 1.365 . S
