# Generated by pormake.
# Topology uku, (4)-cn, num edge types: 1
# Building blocks:
#     Node 0, Type 0, BuildingBlock: QUQFOY_clean_sbu_3, # of connection points: 4
#     Node 1, Type 0, BuildingBlock: QUQFOY_clean_sbu_3, # of connection points: 4
#     Node 2, Type 0, BuildingBlock: QUQFOY_clean_sbu_3, # of connection points: 4
#     Node 3, Type 0, BuildingBlock: QUQFOY_clean_sbu_3, # of connection points: 4
#     Node 4, Type 0, BuildingBlock: QUQFOY_clean_sbu_3, # of connection points: 4
#     Node 5, Type 0, BuildingBlock: QUQFOY_clean_sbu_3, # of connection points: 4
#     Node 6, Type 0, BuildingBlock: QUQFOY_clean_sbu_3, # of connection points: 4
#     Node 7, Type 0, BuildingBlock: QUQFOY_clean_sbu_3, # of connection points: 4
#     Node 8, Type 0, BuildingBlock: QUQFOY_clean_sbu_3, # of connection points: 4
#     Node 9, Type 0, BuildingBlock: QUQFOY_clean_sbu_3, # of connection points: 4
#     Node 10, Type 0, BuildingBlock: QUQFOY_clean_sbu_3, # of connection points: 4
#     Node 11, Type 0, BuildingBlock: QUQFOY_clean_sbu_3, # of connection points: 4
#     Edge 12, Type (0, 0), BuildingBlock: CIFDUS_clean_linker_0, # of connection points: 2
#     Edge 13, Type (0, 0), BuildingBlock: CIFDUS_clean_linker_0, # of connection points: 2
#     Edge 14, Type (0, 0), BuildingBlock: CIFDUS_clean_linker_0, # of connection points: 2
#     Edge 15, Type (0, 0), BuildingBlock: CIFDUS_clean_linker_0, # of connection points: 2
#     Edge 16, Type (0, 0), BuildingBlock: CIFDUS_clean_linker_0, # of connection points: 2
#     Edge 17, Type (0, 0), BuildingBlock: CIFDUS_clean_linker_0, # of connection points: 2
#     Edge 18, Type (0, 0), BuildingBlock: CIFDUS_clean_linker_0, # of connection points: 2
#     Edge 19, Type (0, 0), BuildingBlock: CIFDUS_clean_linker_0, # of connection points: 2
#     Edge 20, Type (0, 0), BuildingBlock: CIFDUS_clean_linker_0, # of connection points: 2
#     Edge 21, Type (0, 0), BuildingBlock: CIFDUS_clean_linker_0, # of connection points: 2
#     Edge 22, Type (0, 0), BuildingBlock: CIFDUS_clean_linker_0, # of connection points: 2
#     Edge 23, Type (0, 0), BuildingBlock: CIFDUS_clean_linker_0, # of connection points: 2
#     Edge 24, Type (0, 0), BuildingBlock: CIFDUS_clean_linker_0, # of connection points: 2
#     Edge 25, Type (0, 0), BuildingBlock: CIFDUS_clean_linker_0, # of connection points: 2
#     Edge 26, Type (0, 0), BuildingBlock: CIFDUS_clean_linker_0, # of connection points: 2
#     Edge 27, Type (0, 0), BuildingBlock: CIFDUS_clean_linker_0, # of connection points: 2
#     Edge 28, Type (0, 0), BuildingBlock: CIFDUS_clean_linker_0, # of connection points: 2
#     Edge 29, Type (0, 0), BuildingBlock: CIFDUS_clean_linker_0, # of connection points: 2
#     Edge 30, Type (0, 0), BuildingBlock: CIFDUS_clean_linker_0, # of connection points: 2
#     Edge 31, Type (0, 0), BuildingBlock: CIFDUS_clean_linker_0, # of connection points: 2
#     Edge 32, Type (0, 0), BuildingBlock: CIFDUS_clean_linker_0, # of connection points: 2
#     Edge 33, Type (0, 0), BuildingBlock: CIFDUS_clean_linker_0, # of connection points: 2
#     Edge 34, Type (0, 0), BuildingBlock: CIFDUS_clean_linker_0, # of connection points: 2
#     Edge 35, Type (0, 0), BuildingBlock: CIFDUS_clean_linker_0, # of connection points: 2
# Relax obj value: 0.368
# Max RMSD: 0.260
# Mean RMSD: 0.260
data_MOF--net-uku--node1-QUQFOY_clean_sbu_3--edge1-CIFDUS_clean_linker_0
_symmetry_space_group_name_H-M    P1
_symmetry_Int_Tables_number       1
_symmetry_cell_setting            triclinic
loop_
_symmetry_equiv_pos_as_xyz
'x, y, z'
_cell_length_a     37.794491
_cell_length_b     38.074818
_cell_length_c     37.974682
_cell_angle_alpha  90.642254
_cell_angle_beta   90.401524
_cell_angle_gamma 89.659635
loop_
_atom_site_label
_atom_site_type_symbol
_atom_site_fract_x
_atom_site_fract_y
_atom_site_fract_z
_atom_type_partial_charge
C0 C 0.03435 0.17729 0.71111 0.0
O1 O 0.01524 0.15073 0.71721 0.0
Cd2 Cd 0.01263 0.09882 0.68092 0.0
O3 O 0.04939 0.1806 0.68146 0.0
Cd4 Cd 0.04814 0.14995 0.62378 0.0
C5 C 0.10302 0.09318 0.66207 0.0
O6 O -0.00298 0.11155 0.62281 0.0
O7 O 0.04149 0.09626 0.5904 0.0
O8 O 0.01396 0.1972 0.60017 0.0
C9 C 0.01048 0.08982 0.60097 0.0
O10 O 0.07443 0.08197 0.67551 0.0
C11 C 0.03241 0.20125 0.57273 0.0
O12 O 0.1033 0.12086 0.64326 0.0
O13 O 0.0613 0.18383 0.57083 0.0
C14 C 0.96764 0.77023 0.68422 0.0
O15 O -0.00964 0.79277 0.69415 0.0
Cd16 Cd -0.01404 0.8531 0.67472 0.0
O17 O 0.94567 0.77754 0.65993 0.0
Cd18 Cd 0.93242 0.82281 0.61713 0.0
C19 C 0.89522 0.86366 0.68608 0.0
O20 O -0.01658 0.86155 0.61275 0.0
O21 O 0.93168 0.88189 0.59782 0.0
O22 O 0.9563 0.78356 0.5744 0.0
C23 C 0.96468 0.88694 0.60114 0.0
O24 O 0.92733 0.86996 0.69436 0.0
C25 C 0.92964 0.78314 0.55392 0.0
O26 O 0.88754 0.84452 0.65922 0.0
O27 O 0.90212 0.79996 0.56403 0.0
C28 C -0.00148 0.77371 0.22158 0.0
O29 O -0.01834 0.79979 0.20918 0.0
Cd30 Cd -0.01891 0.85695 0.23726 0.0
O31 O 0.01157 0.77527 0.25247 0.0
Cd32 Cd 0.01203 0.81618 0.30268 0.0
C33 C 0.07091 0.86154 0.25709 0.0
O34 O 0.96316 0.85835 0.2968 0.0
O35 O 0.01022 0.87486 0.32536 0.0
O36 O 0.97706 0.77977 0.34014 0.0
C37 C -0.02095 0.88186 0.31494 0.0
O38 O 0.04341 0.87214 0.24062 0.0
C39 C 0.00066 0.77596 0.36375 0.0
O40 O 0.06887 0.83782 0.28053 0.0
O41 O 0.03095 0.7891 0.35786 0.0
C42 C 0.90655 0.21123 0.26548 0.0
O43 O 0.93753 0.19865 0.26785 0.0
Cd44 Cd 0.91998 0.1595 0.31475 0.0
O45 O 0.88398 0.20092 0.28751 0.0
Cd46 Cd 0.90899 0.15839 0.3341 0.0
C47 C 0.84271 0.12694 0.31052 0.0
O48 O 0.95592 0.11218 0.31359 0.0
O49 O 0.91132 0.09429 0.34353 0.0
O50 O 0.9573 0.19465 0.35739 0.0
C51 C 0.94012 0.08692 0.32808 0.0
O52 O 0.86884 0.12822 0.28994 0.0
C53 C 0.94562 0.19635 0.38858 0.0
O54 O 0.84556 0.14235 0.34024 0.0
O55 O 0.91584 0.18205 0.39427 0.0
C56 C 0.70754 0.01901 0.19595 0.0
O57 O 0.71862 0.00668 0.1668 0.0
Cd58 Cd 0.6864 0.00806 0.11206 0.0
O59 O 0.67523 0.02793 0.19947 0.0
Cd60 Cd 0.62084 0.02421 0.16275 0.0
C61 C 0.65319 0.09322 0.12134 0.0
O62 O 0.63035 -0.01783 0.11448 0.0
O63 O 0.59482 0.0258 0.10475 0.0
O64 O 0.59095 -0.01882 0.19787 0.0
C65 C 0.60915 -0.00232 0.09354 0.0
O66 O 0.67196 0.07003 0.10557 0.0
C67 C 0.56371 -7e-05 0.20389 0.0
O68 O 0.63316 0.08524 0.14698 0.0
O69 O 0.56435 0.03154 0.19322 0.0
C70 C 0.22855 0.94632 0.15365 0.0
O71 O 0.22238 0.9614 0.12457 0.0
Cd72 Cd 0.26126 0.95785 0.07495 0.0
O73 O 0.2588 0.93287 0.15999 0.0
Cd74 Cd 0.31731 0.93053 0.13134 0.0
C75 C 0.28104 0.86873 0.08014 0.0
O76 O 0.31851 -0.02202 0.08892 0.0
O77 O 0.35094 0.93232 0.07739 0.0
O78 O 0.34365 0.96626 0.17707 0.0
C79 C 0.34131 0.96314 0.06922 0.0
O80 O 0.26739 0.89483 0.06412 0.0
C81 C 0.36901 0.9454 0.18402 0.0
O82 O 0.29917 0.87301 0.10837 0.0
O83 O 0.36886 0.91569 0.16821 0.0
C84 C 0.72718 0.91898 0.79946 0.0
O85 O 0.73727 0.92786 0.83026 0.0
Cd86 Cd 0.70123 0.92076 0.88187 0.0
O87 O 0.69517 0.91054 0.79372 0.0
Cd88 Cd 0.63935 0.90756 0.82603 0.0
C89 C 0.67624 0.83587 0.86043 0.0
O90 O 0.64401 0.94574 0.87766 0.0
O91 O 0.60922 0.90092 0.88147 0.0
O92 O 0.61301 0.9527 0.79045 0.0
C93 C 0.62168 0.92865 0.8955 0.0
O94 O 0.69174 0.85762 0.88103 0.0
C95 C 0.5872 0.9344 0.77934 0.0
O96 O 0.65707 0.84621 0.83468 0.0
O97 O 0.58645 0.90233 0.78863 0.0
C98 C 0.2765 0.03526 0.76012 0.0
O99 O 0.26645 0.01207 0.78164 0.0
Cd100 Cd 0.29115 0.0048 0.83999 0.0
O101 O 0.305 0.05206 0.76568 0.0
Cd102 Cd 0.35506 0.04994 0.80716 0.0
C103 C 0.3001 0.09411 0.85999 0.0
O104 O 0.35268 -0.00355 0.84193 0.0
O105 O 0.37826 0.04215 0.86497 0.0
O106 O 0.39145 0.02204 0.76401 0.0
C107 C 0.36847 0.01056 0.86823 0.0
O108 O 0.28698 0.0637 0.86441 0.0
C109 C 0.41667 0.04387 0.76596 0.0
O110 O 0.3246 0.09918 0.83752 0.0
O111 O 0.41172 0.07134 0.78494 0.0
C112 C 0.202 0.67978 0.04588 0.0
O113 O 0.19262 0.6735 0.01437 0.0
Cd114 Cd 0.15097 0.62889 0.03323 0.0
O115 O 0.18909 0.66062 0.06955 0.0
Cd116 Cd 0.14829 0.61092 0.04716 0.0
C117 C 0.11105 0.64348 0.10569 0.0
O118 O 0.10696 0.62258 -0.00686 0.0
O119 O 0.08418 0.60103 0.04009 0.0
O120 O 0.18871 0.57826 0.00856 0.0
C121 C 0.0799 0.61067 0.00848 0.0
O122 O 0.11472 0.66007 0.07726 0.0
C123 C 0.18724 0.55004 0.02593 0.0
O124 O 0.12649 0.61394 0.10837 0.0
O125 O 0.1696 0.55086 0.05435 0.0
C126 C 0.16918 0.21486 0.96792 0.0
O127 O 0.14342 0.20304 -0.01456 0.0
Cd128 Cd 0.08647 0.23236 -0.0122 0.0
O129 O 0.16789 0.24571 0.95562 0.0
Cd130 Cd 0.12946 0.29744 0.9584 0.0
C131 C 0.08038 0.25444 0.89917 0.0
O132 O 0.08741 0.29164 0.00685 0.0
O133 O 0.07232 0.32371 0.96225 0.0
O134 O 0.17112 0.32827 -0.00518 0.0
C135 C 0.06448 0.31138 -0.00793 0.0
O136 O 0.07009 0.23781 0.92617 0.0
C137 C 0.1754 0.35388 0.9742 0.0
O138 O 0.10519 0.27706 0.90143 0.0
O139 O 0.15965 0.3523 0.94441 0.0
C140 C 0.78117 0.65735 0.85504 0.0
O141 O 0.78772 0.64515 0.88522 0.0
Cd142 Cd 0.8354 0.60751 0.86288 0.0
O143 O 0.79862 0.64455 0.82959 0.0
Cd144 Cd 0.83794 0.59294 0.8502 0.0
C145 C 0.87341 0.62561 0.79186 0.0
O146 O 0.8784 0.60706 0.90424 0.0
O147 O 0.90223 0.58218 0.85894 0.0
O148 O 0.79217 0.56668 0.88685 0.0
C149 C 0.90598 0.59448 0.88994 0.0
O150 O 0.87024 0.64154 0.82108 0.0
C151 C 0.79401 0.53632 0.87297 0.0
O152 O 0.85817 0.59613 0.78824 0.0
O153 O 0.81511 0.53232 0.84718 0.0
C154 C 0.72885 0.26582 0.04057 0.0
O155 O 0.74239 0.27085 0.0107 0.0
Cd156 Cd 0.78144 0.31617 0.03449 0.0
O157 O 0.73828 0.28625 0.06537 0.0
Cd158 Cd 0.78268 0.3337 0.0459 0.0
C159 C 0.80548 0.3118 0.11473 0.0
O160 O 0.83157 0.31283 0.00263 0.0
O161 O 0.84822 0.33881 0.05057 0.0
O162 O 0.75037 0.36022 -0.00348 0.0
C163 C 0.85671 0.32469 0.02141 0.0
O164 O 0.80728 0.2909 0.08866 0.0
C165 C 0.75194 0.3913 0.00879 0.0
O166 O 0.79087 0.34149 0.11007 0.0
O167 O 0.76509 0.39522 0.03951 0.0
H168 H 0.92505 0.22291 0.45205 0.0
H169 H 0.01731 0.1981 0.39019 0.0
H170 H 0.05509 0.20502 0.44208 0.0
H171 H 0.05983 0.20625 0.5067 0.0
H172 H 0.96769 0.23281 0.56827 0.0
H173 H 0.9324 0.23845 0.51481 0.0
C174 C 0.95352 0.21994 0.44984 0.0
C175 C 0.9683 0.2092 0.41768 0.0
C176 C 0.97518 0.2241 0.47978 0.0
C177 C 0.00527 0.20607 0.41484 0.0
C178 C 0.02693 0.20987 0.44454 0.0
C179 C 0.03237 0.21452 0.50838 0.0
C180 C 0.01619 0.21788 0.54145 0.0
C181 C 0.01194 0.2172 0.47747 0.0
C182 C -0.01928 0.2293 0.54315 0.0
C183 C 0.96033 0.23225 0.51255 0.0
H184 H 0.93502 0.77034 0.39078 0.0
H185 H 0.04532 0.75291 0.41553 0.0
H186 H 0.03059 0.74521 0.47754 0.0
H187 H -0.01144 0.755 0.52508 0.0
H188 H 0.87969 0.78072 0.50112 0.0
H189 H 0.89141 0.77267 0.43825 0.0
C190 C 0.95573 0.76389 0.40958 0.0
C191 C -0.00871 0.76261 0.39876 0.0
C192 C 0.94729 0.76144 0.44535 0.0
C193 C 0.01783 0.75432 0.42336 0.0
C194 C 0.00941 0.75008 0.45879 0.0
C195 C 0.96711 0.75807 0.50622 0.0
C196 C 0.93343 0.76913 0.51768 0.0
C197 C 0.97453 0.75537 0.47023 0.0
C198 C 0.9059 0.77256 0.49293 0.0
C199 C 0.91268 0.7682 0.45698 0.0
H200 H 0.42882 0.90879 0.20121 0.0
H201 H 0.38006 0.01125 0.21048 0.0
H202 H 0.43712 0.03722 0.2248 0.0
H203 H 0.50188 0.03256 0.22143 0.0
H204 H 0.55073 0.93018 0.21206 0.0
H205 H 0.49279 0.90256 0.21198 0.0
C206 C 0.4305 0.9366 0.20745 0.0
C207 C 0.40043 0.95816 0.20368 0.0
C208 C 0.46359 0.95158 0.21514 0.0
C209 C 0.40291 -0.00593 0.21253 0.0
C210 C 0.43563 0.00907 0.22055 0.0
C211 C 0.49988 0.00415 0.22049 0.0
C212 C 0.53049 -0.01641 0.2157 0.0
C213 C 0.46639 -0.01162 0.21987 0.0
C214 C 0.52755 0.94675 0.21521 0.0
C215 C 0.49435 0.93086 0.21491 0.0
H216 H 0.57521 0.00412 0.77193 0.0
H217 H 0.53069 0.90259 0.74716 0.0
H218 H 0.47453 0.93049 0.73123 0.0
H219 H 0.43552 -0.01848 0.73668 0.0
H220 H 0.47815 0.08174 0.76935 0.0
H221 H 0.5379 0.05686 0.7686 0.0
C222 C 0.55352 -0.01187 0.76217 0.0
C223 C 0.55684 0.95126 0.76137 0.0
C224 C 0.52087 0.0042 0.75475 0.0
C225 C 0.52861 0.93097 0.74846 0.0
C226 C 0.49647 0.94692 0.73946 0.0
C227 C 0.45794 -0.00172 0.74267 0.0
C228 C 0.45232 0.03325 0.75387 0.0
C229 C 0.49182 -0.01675 0.74435 0.0
C230 C 0.4817 0.05465 0.76105 0.0
C231 C 0.51585 0.04031 0.76095 0.0
H232 H 0.19066 0.41272 0.93707 0.0
H233 H 0.1979 0.3682 0.04096 0.0
H234 H 0.20874 0.42606 0.06639 0.0
H235 H 0.20353 0.49002 0.06033 0.0
H236 H 0.19738 0.53481 0.95664 0.0
H237 H 0.19955 0.47626 0.92998 0.0
C238 C 0.19562 0.41558 0.96512 0.0
C239 C 0.19237 0.38642 -0.01283 0.0
C240 C 0.20156 0.44907 -0.02025 0.0
C241 C 0.19962 0.39034 0.0234 0.0
C242 C 0.20565 0.42349 0.03808 0.0
C243 C 0.20374 0.48693 0.03189 0.0
C244 C 0.19943 0.51647 0.01052 0.0
C245 C 0.2047 0.4532 0.01672 0.0
C246 C 0.20038 0.51235 0.97369 0.0
C247 C 0.20133 0.47885 0.95839 0.0
H248 H 0.76172 0.5364 0.93614 0.0
H249 H 0.78723 0.46899 0.84764 0.0
H250 H 0.76844 0.41772 0.88083 0.0
H251 H 0.75477 0.39177 0.93788 0.0
H252 H 0.73718 0.45899 0.02837 0.0
H253 H 0.74212 0.51085 -0.00868 0.0
C254 C 0.76247 0.51059 0.92377 0.0
C255 C 0.77625 0.50639 0.88962 0.0
C256 C 0.75327 0.48123 0.94354 0.0
C257 C 0.77701 0.47282 0.87399 0.0
C258 C 0.76638 0.44353 0.89301 0.0
C259 C 0.75098 0.41776 0.9493 0.0
C260 C 0.74578 0.42168 -0.0142 0.0
C261 C 0.7559 0.44733 0.92826 0.0
C262 C 0.7413 0.45543 0.00034 0.0
C263 C 0.74436 0.48502 -0.02079 0.0
H264 H 0.17057 0.11869 0.66436 0.0
H265 H 0.10925 0.02506 0.68073 0.0
H266 H 0.15998 -0.00351 0.70809 0.0
H267 H 0.2183 0.00133 0.73553 0.0
H268 H 0.27987 0.09508 0.72101 0.0
H269 H 0.23299 0.11989 0.68424 0.0
C270 C 0.16866 0.09176 0.67314 0.0
C271 C 0.13603 0.07433 0.67123 0.0
C272 C 0.19788 0.07556 0.68958 0.0
C273 C 0.13392 0.03934 0.68256 0.0
C274 C 0.16291 0.02292 0.69824 0.0
C275 C 0.22179 0.0269 0.72378 0.0
C276 C 0.2522 0.04655 0.73162 0.0
C277 C 0.19451 0.04131 0.70324 0.0
C278 C 0.25656 0.07943 0.71567 0.0
C279 C 0.22965 0.09379 0.69477 0.0
H280 H 0.79803 0.92944 0.80376 0.0
H281 H 0.71595 0.89445 0.73219 0.0
H282 H 0.76058 0.87505 0.68995 0.0
H283 H 0.82328 0.86356 0.67546 0.0
H284 H 0.90447 0.89835 0.74835 0.0
H285 H 0.85984 0.92196 0.78771 0.0
C286 C 0.7898 0.91807 0.77872 0.0
C287 C 0.75369 0.91318 0.7714 0.0
C288 C 0.81552 0.90636 0.75485 0.0
C289 C 0.7436 0.89849 0.73866 0.0
C290 C 0.76912 0.88714 0.71452 0.0
C291 C 0.83116 0.87638 0.69989 0.0
C292 C 0.86723 0.87874 0.70894 0.0
C293 C 0.80522 0.89011 0.72272 0.0
C294 C 0.87696 0.89585 0.74061 0.0
C295 C 0.85143 0.9095 0.76326 0.0
H296 H 0.22402 0.89638 0.20419 0.0
H297 H 0.16609 -0.01792 0.15696 0.0
H298 H 0.11299 0.96527 0.18855 0.0
H299 H 0.08148 0.92239 0.22333 0.0
H300 H 0.13768 0.83468 0.26866 0.0
H301 H 0.19326 0.85642 0.24441 0.0
C302 C 0.19999 0.91183 0.20143 0.0
C303 C 0.19889 0.94024 0.17796 0.0
C304 C 0.16921 0.90139 0.21893 0.0
C305 C 0.16753 0.95993 0.17458 0.0
C306 C 0.13713 0.95027 0.19255 0.0
C307 C 0.10592 0.90809 0.22819 0.0
C308 C 0.10537 0.8766 0.24718 0.0
C309 C 0.1374 0.92036 0.21373 0.0
C310 C 0.13737 0.85886 0.25391 0.0
C311 C 0.1691 0.87122 0.23993 0.0
H312 H 0.70032 0.06697 0.24953 0.0
H313 H 0.77418 -0.00717 0.20367 0.0
H314 H 0.82196 0.01771 0.23916 0.0
H315 H 0.84424 0.06569 0.27591 0.0
H316 H 0.77211 0.14136 0.32125 0.0
H317 H 0.7219 0.11052 0.29355 0.0
C318 C 0.72667 0.05566 0.24801 0.0
C319 C 0.73378 0.02839 0.22357 0.0
C320 C 0.75435 0.07075 0.26791 0.0
C321 C 0.76808 0.01405 0.22193 0.0
C322 C 0.79546 0.02836 0.2421 0.0
C323 C 0.81742 0.07514 0.28011 0.0
C324 C 0.81169 0.106 0.29991 0.0
C325 C 0.78914 0.05759 0.26395 0.0
C326 C 0.77698 0.11769 0.3059 0.0
C327 C 0.74841 0.10017 0.28993 0.0
H328 H 0.66622 0.11531 0.05578 0.0
H329 H 0.64862 0.15307 0.16173 0.0
H330 H 0.66643 0.21223 0.14448 0.0
H331 H 0.69487 0.25048 0.10127 0.0
H332 H 0.71319 0.21168 -0.00438 0.0
H333 H 0.68665 0.15562 0.01065 0.0
C334 C 0.66578 0.13666 0.07496 0.0
C335 C 0.65681 0.1299 0.11008 0.0
C336 C 0.67639 0.17022 0.06495 0.0
C337 C 0.65558 0.15774 0.13457 0.0
C338 C 0.66598 0.19144 0.12475 0.0
C339 C 0.69247 0.22998 0.08135 0.0
C340 C 0.70656 0.23499 0.04755 0.0
C341 C 0.67764 0.19762 0.09032 0.0
C342 C 0.70283 0.20839 0.02189 0.0
C343 C 0.68781 0.17626 0.03051 0.0
H344 H 0.22049 0.73438 0.00461 0.0
H345 H 0.23382 0.69291 0.10919 0.0
H346 H 0.26391 0.7465 0.12808 0.0
H347 H 0.28022 0.80771 0.11672 0.0
H348 H 0.26342 0.85021 0.01303 0.0
H349 H 0.24137 0.79367 -0.00807 0.0
C350 C 0.23053 0.73684 0.03135 0.0
C351 C 0.22465 0.7099 0.05551 0.0
C352 C 0.24697 0.76809 0.04232 0.0
C353 C 0.23775 0.71346 0.09012 0.0
C354 C 0.25492 0.74411 0.101 0.0
C355 C 0.27238 0.80435 0.08936 0.0
C356 C 0.27311 0.83313 0.06659 0.0
C357 C 0.25876 0.77201 0.0776 0.0
C358 C 0.2627 0.8285 0.03121 0.0
C359 C 0.25006 0.7962 0.0191 0.0
H360 H 0.74585 0.6944 0.90523 0.0
H361 H 0.75904 0.68514 0.7927 0.0
H362 H 0.72162 0.73685 0.784 0.0
H363 H 0.69148 0.78884 0.80885 0.0
H364 H 0.6827 0.80039 0.92149 0.0
H365 H 0.71121 0.74326 0.92971 0.0
C366 C 0.74016 0.70342 0.87878 0.0
C367 C 0.75556 0.68627 0.84972 0.0
C368 C 0.71929 0.73358 0.87401 0.0
C369 C 0.74781 0.69815 0.81558 0.0
C370 C 0.72637 0.72769 0.81055 0.0
C371 C 0.69487 0.77824 0.83507 0.0
C372 C 0.68504 0.7985 0.86454 0.0
C373 C 0.71277 0.74617 0.83963 0.0
C374 C 0.69011 0.78502 0.89848 0.0
C375 C 0.70661 0.75255 0.90318 0.0
H376 H 0.26596 0.08904 0.92162 0.0
H377 H 0.29991 0.16473 0.84536 0.0
H378 H 0.26563 0.21067 0.87576 0.0
H379 H 0.22007 0.22683 0.91917 0.0
H380 H 0.18418 0.14946 -0.00698 0.0
H381 H 0.22564 0.10657 0.96846 0.0
C382 C 0.26617 0.11568 0.91176 0.0
C383 C 0.28484 0.12339 0.88088 0.0
C384 C 0.24591 0.1415 0.92881 0.0
C385 C 0.28555 0.15814 0.86895 0.0
C386 C 0.26581 0.1843 0.88622 0.0
C387 C 0.22175 0.20079 0.93037 0.0
C388 C 0.19865 0.19122 0.95762 0.0
C389 C 0.24499 0.17595 0.91548 0.0
C390 C 0.20134 0.15742 0.97186 0.0
C391 C 0.22497 0.13285 0.95776 0.0
H392 H 0.04247 0.71863 0.23633 0.0
H393 H -0.02247 0.7625 0.15345 0.0
H394 H 0.00466 0.7226 0.11082 0.0
H395 H 0.05251 0.68192 0.09573 0.0
H396 H 0.11855 0.63822 0.1774 0.0
H397 H 0.08508 0.67135 0.22212 0.0
C398 C 0.03366 0.71898 0.20909 0.0
C399 C 0.00846 0.74408 0.198 0.0
C400 C 0.04997 0.69645 0.18449 0.0
C401 C -0.00287 0.74382 0.16268 0.0
C402 C 0.01277 0.72112 0.13821 0.0
C403 C 0.05931 0.67938 0.1234 0.0
C404 C 0.0883 0.65841 0.13341 0.0
C405 C 0.04019 0.69848 0.1486 0.0
C406 C 0.09643 0.6545 0.16924 0.0
C407 C 0.0774 0.67351 0.19468 0.0
H408 H -0.00065 0.18489 0.77258 0.0
H409 H 0.08864 0.22459 0.71546 0.0
H410 H 0.1091 0.25599 0.76823 0.0
H411 H 0.10579 0.26532 0.83275 0.0
H412 H 0.01672 0.22364 0.88901 0.0
H413 H -0.00795 0.20017 0.83448 0.0
C414 C 0.023 0.20085 0.77148 0.0
C415 C 0.04273 0.20189 0.74035 0.0
C416 C 0.03495 0.2182 0.80196 0.0
C417 C 0.07301 0.22318 0.73919 0.0
C418 C 0.08488 0.24097 0.76943 0.0
C419 C 0.0807 0.25165 0.8329 0.0
C420 C 0.06356 0.24559 0.86499 0.0
C421 C 0.06674 0.23763 0.80132 0.0
C422 C 0.03089 0.22803 0.86477 0.0
C423 C 0.01666 0.21462 0.83358 0.0
H424 H 0.93265 0.66268 0.80098 0.0
H425 H 0.86045 0.62537 0.72076 0.0
H426 H 0.88826 0.66381 0.67758 0.0
H427 H 0.92636 0.71458 0.66609 0.0
H428 H -0.00282 0.75262 0.74756 0.0
H429 H 0.97724 0.70654 0.78674 0.0
C430 C 0.92348 0.66253 0.77382 0.0
C431 C 0.89423 0.64194 0.76398 0.0
C432 C 0.93921 0.68489 0.74959 0.0
C433 C 0.88288 0.64122 0.72877 0.0
C434 C 0.89862 0.66333 0.70426 0.0
C435 C 0.93799 0.71236 0.69217 0.0
C436 C 0.96263 0.73753 0.70419 0.0
C437 C 0.92581 0.6863 0.71483 0.0
C438 C -0.02205 0.73385 0.73776 0.0
C439 C 0.96638 0.70765 0.76027 0.0
H440 H 0.84904 0.25412 0.26285 0.0
H441 H 0.9402 0.22046 0.20319 0.0
H442 H 0.91784 0.2517 0.15175 0.0
H443 H 0.86941 0.28284 0.12217 0.0
H444 H 0.77893 0.31835 0.18136 0.0
H445 H 0.80413 0.29235 0.23502 0.0
C446 C 0.86421 0.25406 0.23871 0.0
C447 C 0.89593 0.23461 0.23656 0.0
C448 C 0.85122 0.27213 0.20929 0.0
C449 C 0.91566 0.23514 0.2054 0.0
C450 C 0.90282 0.25283 0.17596 0.0
C451 C 0.85551 0.28524 0.14701 0.0
C452 C 0.82229 0.30186 0.14809 0.0
C453 C 0.8702 0.2705 0.17738 0.0
C454 C 0.80457 0.30553 0.18022 0.0
C455 C 0.81888 0.29054 0.21069 0.0
H456 H 0.04719 0.02953 0.59088 0.0
H457 H 0.94129 0.07072 0.60277 0.0
H458 H 0.91762 0.01098 0.60101 0.0
H459 H 0.92759 0.94755 0.59982 0.0
H460 H 0.03389 0.90601 0.59343 0.0
H461 H 0.05712 0.96577 0.58926 0.0
C462 C 0.01887 0.02543 0.59252 0.0
C463 C -0.00415 0.05433 0.59662 0.0
C464 C 0.00572 -0.00888 0.5928 0.0
C465 C 0.95936 0.04875 0.59949 0.0
C466 C 0.94591 0.01469 0.59856 0.0
C467 C 0.95584 0.9515 0.59715 0.0
C468 C -0.02094 0.92249 0.5968 0.0
C469 C 0.96893 -0.01426 0.59579 0.0
C470 C 0.01558 0.928 0.5938 0.0
C471 C 0.02881 0.96209 0.5914 0.0
H472 H 0.90074 0.02803 0.32772 0.0
H473 H 0.00834 0.06462 0.32214 0.0
H474 H 0.02979 0.00388 0.31867 0.0
H475 H 0.01781 0.94081 0.31724 0.0
H476 H 0.91016 0.90388 0.31786 0.0
H477 H 0.88856 0.96463 0.32318 0.0
C478 C 0.92889 0.0226 0.32591 0.0
C479 C 0.95308 0.05052 0.32559 0.0
C480 C 0.94085 -0.01223 0.323 0.0
C481 C -0.01063 0.04341 0.3225 0.0
C482 C 0.00158 0.00878 0.32058 0.0
C483 C -0.01039 0.94606 0.31874 0.0
C484 C 0.96551 0.91808 0.31766 0.0
C485 C -0.02245 -0.01917 0.32086 0.0
C486 C 0.92908 0.92514 0.31879 0.0
C487 C 0.91681 0.95976 0.32187 0.0
H488 H 0.62043 -0.0079 0.92822 0.0
H489 H 0.61217 0.88105 0.94725 0.0
H490 H 0.60802 0.89228 0.0106 0.0
H491 H 0.60844 0.9339 0.06095 0.0
H492 H 0.61145 0.04512 0.04117 0.0
H493 H 0.61587 0.03378 -0.02206 0.0
C494 C 0.61754 0.97048 0.94632 0.0
C495 C 0.61678 0.9359 0.93331 0.0
C496 C 0.61429 -0.02283 -0.01742 0.0
C497 C 0.61264 0.90797 0.95679 0.0
C498 C 0.61043 0.91434 -0.00701 0.0
C499 C 0.60988 0.95551 0.04265 0.0
C500 C 0.60971 -0.00983 0.05548 0.0
C501 C 0.61147 0.94883 0.00623 0.0
C502 C 0.61129 0.01816 0.03172 0.0
C503 C 0.61396 0.01172 -0.00438 0.0
H504 H 0.35361 0.92622 0.00924 0.0
H505 H 0.34624 0.03172 0.05128 0.0
H506 H 0.35677 0.05548 -0.00732 0.0
H507 H 0.36532 0.04619 0.92965 0.0
H508 H 0.36682 0.9411 0.88602 0.0
H509 H 0.36135 0.91693 0.9454 0.0
C510 C 0.35475 0.9544 0.00556 0.0
C511 C 0.34956 -0.02268 0.0344 0.0
C512 C 0.35957 0.96777 0.97167 0.0
C513 C 0.3503 0.01372 0.02935 0.0
C514 C 0.35628 0.02724 -0.00406 0.0
C515 C 0.3649 0.01795 0.93313 0.0
C516 C 0.36689 -0.00467 0.90366 0.0
C517 C 0.36059 0.0045 0.96693 0.0
C518 C 0.36547 0.9589 0.90843 0.0
C519 C 0.36233 0.94517 0.94229 0.0
H520 H 0.92047 0.60293 0.95959 0.0
H521 H 0.97012 0.59015 0.85827 0.0
H522 H 0.02849 0.59549 0.88571 0.0
H523 H 0.06556 0.60394 0.93864 0.0
H524 H 0.01597 0.61279 0.04032 0.0
H525 H 0.95753 0.60901 0.0127 0.0
C526 C 0.9441 0.60126 0.9436 0.0
C527 C 0.94106 0.59622 0.90705 0.0
C528 C -0.02241 0.60377 0.9596 0.0
C529 C 0.97184 0.59383 0.88656 0.0
C530 C 0.00522 0.59703 0.90218 0.0
C531 C 0.0419 0.60517 0.95462 0.0
C532 C 0.04491 0.60881 -0.00868 0.0
C533 C 0.00842 0.60208 0.93867 0.0
C534 C 0.01419 0.60991 0.01194 0.0
C535 C -0.0192 0.60778 -0.0038 0.0
H536 H 0.0065 0.31541 0.95117 0.0
H537 H 0.04002 0.31101 0.05981 0.0
H538 H -0.02191 0.31558 0.07872 0.0
H539 H 0.91456 0.32133 0.06379 0.0
H540 H 0.88183 0.32101 0.9547 0.0
H541 H 0.94363 0.31774 0.9363 0.0
C542 C 0.00027 0.31565 -0.02097 0.0
C543 C 0.02762 0.31345 0.00419 0.0
C544 C 0.96489 0.31737 -0.01054 0.0
C545 C 0.01926 0.31288 0.0401 0.0
C546 C -0.01603 0.31552 0.05083 0.0
C547 C 0.92108 0.32061 0.03601 0.0
C548 C 0.8939 0.32174 0.01054 0.0
C549 C 0.95659 0.3179 0.02569 0.0
C550 C 0.90242 0.32017 0.97467 0.0
C551 C 0.93768 0.31839 0.96419 0.0
loop_
_geom_bond_atom_site_label_1
_geom_bond_atom_site_label_2
_geom_bond_distance
_geom_bond_site_symmetry_2
_ccdc_geom_bond_type
C0 O1 1.306 . S
C0 O3 1.160 . S
O1 C0 1.306 . S
O1 Cd2 2.228 . S
Cd2 O1 2.228 . S
Cd2 O6 2.273 . S
Cd2 O10 2.277 . S
O3 C0 1.160 . S
O3 Cd4 2.203 . S
Cd4 O3 2.203 . S
Cd4 O6 2.411 . S
Cd4 O7 2.333 . S
Cd4 O8 2.352 . S
Cd4 O12 2.277 . S
Cd4 O13 2.356 . S
C5 O10 1.209 . S
C5 O12 1.226 . S
O6 Cd2 2.273 . S
O6 Cd4 2.411 . S
O6 C9 1.320 . S
O7 Cd4 2.333 . S
O7 C9 1.214 . S
O8 Cd4 2.352 . S
O8 C11 1.258 . S
C9 O6 1.320 . S
C9 O7 1.214 . S
O10 Cd2 2.277 . S
O10 C5 1.209 . S
C11 O8 1.258 . S
C11 O13 1.282 . S
O12 Cd4 2.277 . S
O12 C5 1.226 . S
O13 Cd4 2.356 . S
O13 C11 1.282 . S
C14 O15 1.306 . S
C14 O17 1.160 . S
O15 C14 1.306 . S
O15 Cd16 2.228 . S
Cd16 O15 2.228 . S
Cd16 O20 2.273 . S
Cd16 O24 2.277 . S
O17 C14 1.160 . S
O17 Cd18 2.203 . S
Cd18 O17 2.203 . S
Cd18 O20 2.411 . S
Cd18 O21 2.333 . S
Cd18 O22 2.352 . S
Cd18 O26 2.277 . S
Cd18 O27 2.356 . S
C19 O24 1.209 . S
C19 O26 1.226 . S
O20 Cd16 2.273 . S
O20 Cd18 2.411 . S
O20 C23 1.320 . S
O21 Cd18 2.333 . S
O21 C23 1.214 . S
O22 Cd18 2.352 . S
O22 C25 1.258 . S
C23 O20 1.320 . S
C23 O21 1.214 . S
O24 Cd16 2.277 . S
O24 C19 1.209 . S
C25 O22 1.258 . S
C25 O27 1.282 . S
O26 Cd18 2.277 . S
O26 C19 1.226 . S
O27 Cd18 2.356 . S
O27 C25 1.282 . S
C28 O29 1.306 . S
C28 O31 1.160 . S
O29 C28 1.306 . S
O29 Cd30 2.228 . S
Cd30 O29 2.228 . S
Cd30 O34 2.273 . S
Cd30 O38 2.277 . S
O31 C28 1.160 . S
O31 Cd32 2.203 . S
Cd32 O31 2.203 . S
Cd32 O34 2.411 . S
Cd32 O35 2.333 . S
Cd32 O36 2.352 . S
Cd32 O40 2.277 . S
Cd32 O41 2.356 . S
C33 O38 1.209 . S
C33 O40 1.226 . S
O34 Cd30 2.273 . S
O34 Cd32 2.411 . S
O34 C37 1.320 . S
O35 Cd32 2.333 . S
O35 C37 1.214 . S
O36 Cd32 2.352 . S
O36 C39 1.258 . S
C37 O34 1.320 . S
C37 O35 1.214 . S
O38 Cd30 2.277 . S
O38 C33 1.209 . S
C39 O36 1.258 . S
C39 O41 1.282 . S
O40 Cd32 2.277 . S
O40 C33 1.226 . S
O41 Cd32 2.356 . S
O41 C39 1.282 . S
C42 O43 1.306 . S
C42 O45 1.160 . S
O43 C42 1.306 . S
O43 Cd44 2.228 . S
Cd44 O43 2.228 . S
Cd44 O48 2.273 . S
Cd44 O52 2.277 . S
O45 C42 1.160 . S
O45 Cd46 2.203 . S
Cd46 O45 2.203 . S
Cd46 O48 2.411 . S
Cd46 O49 2.333 . S
Cd46 O50 2.352 . S
Cd46 O54 2.277 . S
Cd46 O55 2.356 . S
C47 O52 1.209 . S
C47 O54 1.226 . S
O48 Cd44 2.273 . S
O48 Cd46 2.411 . S
O48 C51 1.320 . S
O49 Cd46 2.333 . S
O49 C51 1.214 . S
O50 Cd46 2.352 . S
O50 C53 1.258 . S
C51 O48 1.320 . S
C51 O49 1.214 . S
O52 Cd44 2.277 . S
O52 C47 1.209 . S
C53 O50 1.258 . S
C53 O55 1.282 . S
O54 Cd46 2.277 . S
O54 C47 1.226 . S
O55 Cd46 2.356 . S
O55 C53 1.282 . S
C56 O57 1.306 . S
C56 O59 1.160 . S
O57 C56 1.306 . S
O57 Cd58 2.228 . S
Cd58 O57 2.228 . S
Cd58 O62 2.273 . S
Cd58 O66 2.277 . S
O59 C56 1.160 . S
O59 Cd60 2.203 . S
Cd60 O59 2.203 . S
Cd60 O62 2.411 . S
Cd60 O63 2.333 . S
Cd60 O64 2.352 . S
Cd60 O68 2.277 . S
Cd60 O69 2.356 . S
C61 O66 1.209 . S
C61 O68 1.226 . S
O62 Cd58 2.273 . S
O62 Cd60 2.411 . S
O62 C65 1.320 . S
O63 Cd60 2.333 . S
O63 C65 1.214 . S
O64 Cd60 2.352 . S
O64 C67 1.258 . S
C65 O62 1.320 . S
C65 O63 1.214 . S
O66 Cd58 2.277 . S
O66 C61 1.209 . S
C67 O64 1.258 . S
C67 O69 1.282 . S
O68 Cd60 2.277 . S
O68 C61 1.226 . S
O69 Cd60 2.356 . S
O69 C67 1.282 . S
C70 O71 1.306 . S
C70 O73 1.160 . S
O71 C70 1.306 . S
O71 Cd72 2.228 . S
Cd72 O71 2.228 . S
Cd72 O76 2.273 . S
Cd72 O80 2.277 . S
O73 C70 1.160 . S
O73 Cd74 2.203 . S
Cd74 O73 2.203 . S
Cd74 O76 2.411 . S
Cd74 O77 2.333 . S
Cd74 O78 2.352 . S
Cd74 O82 2.277 . S
Cd74 O83 2.356 . S
C75 O80 1.209 . S
C75 O82 1.226 . S
O76 Cd72 2.273 . S
O76 Cd74 2.411 . S
O76 C79 1.320 . S
O77 Cd74 2.333 . S
O77 C79 1.214 . S
O78 Cd74 2.352 . S
O78 C81 1.258 . S
C79 O76 1.320 . S
C79 O77 1.214 . S
O80 Cd72 2.277 . S
O80 C75 1.209 . S
C81 O78 1.258 . S
C81 O83 1.282 . S
O82 Cd74 2.277 . S
O82 C75 1.226 . S
O83 Cd74 2.356 . S
O83 C81 1.282 . S
C84 O85 1.306 . S
C84 O87 1.160 . S
O85 C84 1.306 . S
O85 Cd86 2.228 . S
Cd86 O85 2.228 . S
Cd86 O90 2.273 . S
Cd86 O94 2.277 . S
O87 C84 1.160 . S
O87 Cd88 2.203 . S
Cd88 O87 2.203 . S
Cd88 O90 2.411 . S
Cd88 O91 2.333 . S
Cd88 O92 2.352 . S
Cd88 O96 2.277 . S
Cd88 O97 2.356 . S
C89 O94 1.209 . S
C89 O96 1.226 . S
O90 Cd86 2.273 . S
O90 Cd88 2.411 . S
O90 C93 1.320 . S
O91 Cd88 2.333 . S
O91 C93 1.214 . S
O92 Cd88 2.352 . S
O92 C95 1.258 . S
C93 O90 1.320 . S
C93 O91 1.214 . S
O94 Cd86 2.277 . S
O94 C89 1.209 . S
C95 O92 1.258 . S
C95 O97 1.282 . S
O96 Cd88 2.277 . S
O96 C89 1.226 . S
O97 Cd88 2.356 . S
O97 C95 1.282 . S
C98 O99 1.306 . S
C98 O101 1.160 . S
O99 C98 1.306 . S
O99 Cd100 2.228 . S
Cd100 O99 2.228 . S
Cd100 O104 2.273 . S
Cd100 O108 2.277 . S
O101 C98 1.160 . S
O101 Cd102 2.203 . S
Cd102 O101 2.203 . S
Cd102 O104 2.411 . S
Cd102 O105 2.333 . S
Cd102 O106 2.352 . S
Cd102 O110 2.277 . S
Cd102 O111 2.356 . S
C103 O108 1.209 . S
C103 O110 1.226 . S
O104 Cd100 2.273 . S
O104 Cd102 2.411 . S
O104 C107 1.320 . S
O105 Cd102 2.333 . S
O105 C107 1.214 . S
O106 Cd102 2.352 . S
O106 C109 1.258 . S
C107 O104 1.320 . S
C107 O105 1.214 . S
O108 Cd100 2.277 . S
O108 C103 1.209 . S
C109 O106 1.258 . S
C109 O111 1.282 . S
O110 Cd102 2.277 . S
O110 C103 1.226 . S
O111 Cd102 2.356 . S
O111 C109 1.282 . S
C112 O113 1.306 . S
C112 O115 1.160 . S
O113 C112 1.306 . S
O113 Cd114 2.228 . S
Cd114 O113 2.228 . S
Cd114 O118 2.273 . S
Cd114 O122 2.277 . S
O115 C112 1.160 . S
O115 Cd116 2.203 . S
Cd116 O115 2.203 . S
Cd116 O118 2.411 . S
Cd116 O119 2.333 . S
Cd116 O120 2.352 . S
Cd116 O124 2.277 . S
Cd116 O125 2.356 . S
C117 O122 1.209 . S
C117 O124 1.226 . S
O118 Cd114 2.273 . S
O118 Cd116 2.411 . S
O118 C121 1.320 . S
O119 Cd116 2.333 . S
O119 C121 1.214 . S
O120 Cd116 2.352 . S
O120 C123 1.258 . S
C121 O118 1.320 . S
C121 O119 1.214 . S
O122 Cd114 2.277 . S
O122 C117 1.209 . S
C123 O120 1.258 . S
C123 O125 1.282 . S
O124 Cd116 2.277 . S
O124 C117 1.226 . S
O125 Cd116 2.356 . S
O125 C123 1.282 . S
C126 O127 1.306 . S
C126 O129 1.160 . S
O127 C126 1.306 . S
O127 Cd128 2.228 . S
Cd128 O127 2.228 . S
Cd128 O132 2.273 . S
Cd128 O136 2.277 . S
O129 C126 1.160 . S
O129 Cd130 2.203 . S
Cd130 O129 2.203 . S
Cd130 O132 2.411 . S
Cd130 O133 2.333 . S
Cd130 O134 2.352 . S
Cd130 O138 2.277 . S
Cd130 O139 2.356 . S
C131 O136 1.209 . S
C131 O138 1.226 . S
O132 Cd128 2.273 . S
O132 Cd130 2.411 . S
O132 C135 1.320 . S
O133 Cd130 2.333 . S
O133 C135 1.214 . S
O134 Cd130 2.352 . S
O134 C137 1.258 . S
C135 O132 1.320 . S
C135 O133 1.214 . S
O136 Cd128 2.277 . S
O136 C131 1.209 . S
C137 O134 1.258 . S
C137 O139 1.282 . S
O138 Cd130 2.277 . S
O138 C131 1.226 . S
O139 Cd130 2.356 . S
O139 C137 1.282 . S
C140 O141 1.306 . S
C140 O143 1.160 . S
O141 C140 1.306 . S
O141 Cd142 2.228 . S
Cd142 O141 2.228 . S
Cd142 O146 2.273 . S
Cd142 O150 2.277 . S
O143 C140 1.160 . S
O143 Cd144 2.203 . S
Cd144 O143 2.203 . S
Cd144 O146 2.411 . S
Cd144 O147 2.333 . S
Cd144 O148 2.352 . S
Cd144 O152 2.277 . S
Cd144 O153 2.356 . S
C145 O150 1.209 . S
C145 O152 1.226 . S
O146 Cd142 2.273 . S
O146 Cd144 2.411 . S
O146 C149 1.320 . S
O147 Cd144 2.333 . S
O147 C149 1.214 . S
O148 Cd144 2.352 . S
O148 C151 1.258 . S
C149 O146 1.320 . S
C149 O147 1.214 . S
O150 Cd142 2.277 . S
O150 C145 1.209 . S
C151 O148 1.258 . S
C151 O153 1.282 . S
O152 Cd144 2.277 . S
O152 C145 1.226 . S
O153 Cd144 2.356 . S
O153 C151 1.282 . S
C154 O155 1.306 . S
C154 O157 1.160 . S
O155 C154 1.306 . S
O155 Cd156 2.228 . S
Cd156 O155 2.228 . S
Cd156 O160 2.273 . S
Cd156 O164 2.277 . S
O157 C154 1.160 . S
O157 Cd158 2.203 . S
Cd158 O157 2.203 . S
Cd158 O160 2.411 . S
Cd158 O161 2.333 . S
Cd158 O162 2.352 . S
Cd158 O166 2.277 . S
Cd158 O167 2.356 . S
C159 O164 1.209 . S
C159 O166 1.226 . S
O160 Cd156 2.273 . S
O160 Cd158 2.411 . S
O160 C163 1.320 . S
O161 Cd158 2.333 . S
O161 C163 1.214 . S
O162 Cd158 2.352 . S
O162 C165 1.258 . S
C163 O160 1.320 . S
C163 O161 1.214 . S
O164 Cd156 2.277 . S
O164 C159 1.209 . S
C165 O162 1.258 . S
C165 O167 1.282 . S
O166 Cd158 2.277 . S
O166 C159 1.226 . S
O167 Cd158 2.356 . S
O167 C165 1.282 . S
H168 C174 0.930 . S
H169 C177 0.930 1_455 S
H170 C178 0.930 . S
H171 C179 0.930 . S
H172 C182 0.930 1_655 S
H173 C183 0.930 . S
C174 H168 0.930 . S
C174 C175 1.355 . S
C174 C176 1.415 . S
C175 C174 1.355 . S
C175 C177 1.419 . S
C176 C174 1.415 . S
C176 C181 1.425 1_655 S
C176 C183 1.409 . S
C177 H169 0.930 1_655 S
C177 C175 1.419 . S
C177 C178 1.362 1_655 S
C178 H170 0.930 . S
C178 C177 1.362 1_455 S
C178 C181 1.409 . S
C179 H171 0.930 . S
C179 C180 1.355 . S
C179 C181 1.415 . S
C180 C179 1.355 . S
C180 C182 1.419 . S
C181 C176 1.425 1_455 S
C181 C178 1.409 . S
C181 C179 1.415 . S
C182 H172 0.930 1_455 S
C182 C180 1.419 . S
C182 C183 1.362 1_455 S
C183 H173 0.930 . S
C183 C176 1.409 . S
C183 C182 1.362 1_655 S
H184 C190 0.930 . S
H185 C193 0.930 . S
H186 C194 0.930 . S
H187 C195 0.930 . S
H188 C198 0.930 . S
H189 C199 0.930 . S
C190 H184 0.930 . S
C190 C191 1.355 . S
C190 C192 1.415 1_455 S
C191 C190 1.355 . S
C191 C193 1.419 . S
C192 C190 1.415 1_655 S
C192 C197 1.425 1_655 S
C192 C199 1.409 . S
C193 H185 0.930 . S
C193 C191 1.419 . S
C193 C194 1.362 . S
C194 H186 0.930 . S
C194 C193 1.362 . S
C194 C197 1.409 . S
C195 H187 0.930 . S
C195 C196 1.355 . S
C195 C197 1.415 1_655 S
C196 C195 1.355 . S
C196 C198 1.419 . S
C197 C192 1.425 1_455 S
C197 C194 1.409 . S
C197 C195 1.415 1_455 S
C198 H188 0.930 . S
C198 C196 1.419 . S
C198 C199 1.362 . S
C199 H189 0.930 . S
C199 C192 1.409 . S
C199 C198 1.362 . S
H200 C206 0.930 . S
H201 C209 0.937 . S
H202 C210 0.930 . S
H203 C211 0.930 . S
H204 C214 0.937 . S
H205 C215 0.930 . S
C206 H200 0.930 . S
C206 C207 1.355 . S
C206 C208 1.415 . S
C207 C206 1.355 . S
C207 C209 1.394 1_565 S
C208 C206 1.415 . S
C208 C213 1.425 1_565 S
C208 C215 1.409 . S
C209 H201 0.937 . S
C209 C207 1.394 1_545 S
C209 C210 1.381 . S
C210 H202 0.930 . S
C210 C209 1.381 . S
C210 C213 1.409 . S
C211 H203 0.930 . S
C211 C212 1.355 . S
C211 C213 1.415 . S
C212 C211 1.355 . S
C212 C214 1.394 1_545 S
C213 C208 1.425 1_545 S
C213 C210 1.409 . S
C213 C211 1.415 . S
C214 H204 0.937 . S
C214 C212 1.394 1_565 S
C214 C215 1.381 . S
C215 H205 0.930 . S
C215 C208 1.409 . S
C215 C214 1.381 . S
H216 C222 0.930 1_545 S
H217 C225 0.930 . S
H218 C226 0.930 . S
H219 C227 0.930 1_565 S
H220 C230 0.930 . S
H221 C231 0.930 . S
C222 H216 0.930 1_565 S
C222 C223 1.355 . S
C222 C224 1.415 1_565 S
C223 C222 1.355 . S
C223 C225 1.419 . S
C224 C222 1.415 1_545 S
C224 C229 1.425 1_545 S
C224 C231 1.409 . S
C225 H217 0.930 . S
C225 C223 1.419 . S
C225 C226 1.362 . S
C226 H218 0.930 . S
C226 C225 1.362 . S
C226 C229 1.409 . S
C227 H219 0.930 1_545 S
C227 C228 1.355 . S
C227 C229 1.415 1_545 S
C228 C227 1.355 . S
C228 C230 1.419 . S
C229 C224 1.425 1_565 S
C229 C226 1.409 . S
C229 C227 1.415 1_565 S
C230 H220 0.930 . S
C230 C228 1.419 . S
C230 C231 1.362 . S
C231 H221 0.930 . S
C231 C224 1.409 . S
C231 C230 1.362 . S
H232 C238 0.930 . S
H233 C241 0.932 . S
H234 C242 0.930 . S
H235 C243 0.930 . S
H236 C246 0.932 . S
H237 C247 0.930 . S
C238 H232 0.930 . S
C238 C239 1.355 . S
C238 C240 1.415 . S
C239 C238 1.355 . S
C239 C241 1.419 . S
C240 C238 1.415 . S
C240 C245 1.425 1_556 S
C240 C247 1.409 . S
C241 H233 0.932 . S
C241 C239 1.419 . S
C241 C242 1.362 1_556 S
C242 H234 0.930 . S
C242 C241 1.362 1_554 S
C242 C245 1.409 . S
C243 H235 0.930 . S
C243 C244 1.355 . S
C243 C245 1.415 . S
C244 C243 1.355 . S
C244 C246 1.419 . S
C245 C240 1.425 1_554 S
C245 C242 1.409 . S
C245 C243 1.415 . S
C246 H236 0.932 . S
C246 C244 1.419 . S
C246 C247 1.362 1_554 S
C247 H237 0.930 . S
C247 C240 1.409 . S
C247 C246 1.362 1_556 S
H248 C254 0.930 1_554 S
H249 C257 0.930 . S
H250 C258 0.930 . S
H251 C259 0.930 1_556 S
H252 C262 0.930 . S
H253 C263 0.930 . S
C254 H248 0.930 1_556 S
C254 C255 1.355 . S
C254 C256 1.415 1_556 S
C255 C254 1.355 . S
C255 C257 1.419 . S
C256 C254 1.415 1_554 S
C256 C261 1.425 1_554 S
C256 C263 1.409 . S
C257 H249 0.930 . S
C257 C255 1.419 . S
C257 C258 1.362 . S
C258 H250 0.930 . S
C258 C257 1.362 . S
C258 C261 1.409 . S
C259 H251 0.930 1_554 S
C259 C260 1.355 . S
C259 C261 1.415 1_554 S
C260 C259 1.355 . S
C260 C262 1.419 . S
C261 C256 1.425 1_556 S
C261 C258 1.409 . S
C261 C259 1.415 1_556 S
C262 H252 0.930 . S
C262 C260 1.419 . S
C262 C263 1.362 . S
C263 H253 0.930 . S
C263 C256 1.409 . S
C263 C262 1.362 . S
H264 C270 0.930 . S
H265 C273 0.930 . S
H266 C274 0.930 . S
H267 C275 0.930 . S
H268 C278 0.930 . S
H269 C279 0.930 . S
C270 H264 0.930 . S
C270 C271 1.355 . S
C270 C272 1.415 . S
C271 C270 1.355 . S
C271 C273 1.419 . S
C272 C270 1.415 . S
C272 C277 1.425 . S
C272 C279 1.409 . S
C273 H265 0.930 . S
C273 C271 1.419 . S
C273 C274 1.362 . S
C274 H266 0.930 . S
C274 C273 1.362 . S
C274 C277 1.409 . S
C275 H267 0.930 . S
C275 C276 1.355 . S
C275 C277 1.415 . S
C276 C275 1.355 . S
C276 C278 1.419 . S
C277 C272 1.425 . S
C277 C274 1.409 . S
C277 C275 1.415 . S
C278 H268 0.930 . S
C278 C276 1.419 . S
C278 C279 1.362 . S
C279 H269 0.930 . S
C279 C272 1.409 . S
C279 C278 1.362 . S
H280 C286 0.930 . S
H281 C289 0.930 . S
H282 C290 0.930 . S
H283 C291 0.930 . S
H284 C294 0.930 . S
H285 C295 0.930 . S
C286 H280 0.930 . S
C286 C287 1.355 . S
C286 C288 1.415 . S
C287 C286 1.355 . S
C287 C289 1.419 . S
C288 C286 1.415 . S
C288 C293 1.425 . S
C288 C295 1.409 . S
C289 H281 0.930 . S
C289 C287 1.419 . S
C289 C290 1.362 . S
C290 H282 0.930 . S
C290 C289 1.362 . S
C290 C293 1.409 . S
C291 H283 0.930 . S
C291 C292 1.355 . S
C291 C293 1.415 . S
C292 C291 1.355 . S
C292 C294 1.419 . S
C293 C288 1.425 . S
C293 C290 1.409 . S
C293 C291 1.415 . S
C294 H284 0.930 . S
C294 C292 1.419 . S
C294 C295 1.362 . S
C295 H285 0.930 . S
C295 C288 1.409 . S
C295 C294 1.362 . S
H296 C302 0.930 . S
H297 C305 0.930 . S
H298 C306 0.930 . S
H299 C307 0.930 . S
H300 C310 0.930 . S
H301 C311 0.930 . S
C302 H296 0.930 . S
C302 C303 1.355 . S
C302 C304 1.415 . S
C303 C302 1.355 . S
C303 C305 1.419 . S
C304 C302 1.415 . S
C304 C309 1.425 . S
C304 C311 1.409 . S
C305 H297 0.930 . S
C305 C303 1.419 . S
C305 C306 1.362 . S
C306 H298 0.930 . S
C306 C305 1.362 . S
C306 C309 1.409 . S
C307 H299 0.930 . S
C307 C308 1.355 . S
C307 C309 1.415 . S
C308 C307 1.355 . S
C308 C310 1.419 . S
C309 C304 1.425 . S
C309 C306 1.409 . S
C309 C307 1.415 . S
C310 H300 0.930 . S
C310 C308 1.419 . S
C310 C311 1.362 . S
C311 H301 0.930 . S
C311 C304 1.409 . S
C311 C310 1.362 . S
H312 C318 0.930 . S
H313 C321 0.930 . S
H314 C322 0.930 . S
H315 C323 0.930 . S
H316 C326 0.930 . S
H317 C327 0.930 . S
C318 H312 0.930 . S
C318 C319 1.355 . S
C318 C320 1.415 . S
C319 C318 1.355 . S
C319 C321 1.419 . S
C320 C318 1.415 . S
C320 C325 1.425 . S
C320 C327 1.409 . S
C321 H313 0.930 . S
C321 C319 1.419 . S
C321 C322 1.362 . S
C322 H314 0.930 . S
C322 C321 1.362 . S
C322 C325 1.409 . S
C323 H315 0.930 . S
C323 C324 1.355 . S
C323 C325 1.415 . S
C324 C323 1.355 . S
C324 C326 1.419 . S
C325 C320 1.425 . S
C325 C322 1.409 . S
C325 C323 1.415 . S
C326 H316 0.930 . S
C326 C324 1.419 . S
C326 C327 1.362 . S
C327 H317 0.930 . S
C327 C320 1.409 . S
C327 C326 1.362 . S
H328 C334 0.930 . S
H329 C337 0.930 . S
H330 C338 0.930 . S
H331 C339 0.930 . S
H332 C342 0.930 . S
H333 C343 0.930 . S
C334 H328 0.930 . S
C334 C335 1.355 . S
C334 C336 1.415 . S
C335 C334 1.355 . S
C335 C337 1.419 . S
C336 C334 1.415 . S
C336 C341 1.425 . S
C336 C343 1.409 . S
C337 H329 0.930 . S
C337 C335 1.419 . S
C337 C338 1.362 . S
C338 H330 0.930 . S
C338 C337 1.362 . S
C338 C341 1.409 . S
C339 H331 0.930 . S
C339 C340 1.355 . S
C339 C341 1.415 . S
C340 C339 1.355 . S
C340 C342 1.419 . S
C341 C336 1.425 . S
C341 C338 1.409 . S
C341 C339 1.415 . S
C342 H332 0.930 . S
C342 C340 1.419 . S
C342 C343 1.362 . S
C343 H333 0.930 . S
C343 C336 1.409 . S
C343 C342 1.362 . S
H344 C350 0.930 . S
H345 C353 0.930 . S
H346 C354 0.930 . S
H347 C355 0.930 . S
H348 C358 0.930 . S
H349 C359 0.930 . S
C350 H344 0.930 . S
C350 C351 1.355 . S
C350 C352 1.415 . S
C351 C350 1.355 . S
C351 C353 1.419 . S
C352 C350 1.415 . S
C352 C357 1.425 . S
C352 C359 1.409 . S
C353 H345 0.930 . S
C353 C351 1.419 . S
C353 C354 1.362 . S
C354 H346 0.930 . S
C354 C353 1.362 . S
C354 C357 1.409 . S
C355 H347 0.930 . S
C355 C356 1.355 . S
C355 C357 1.415 . S
C356 C355 1.355 . S
C356 C358 1.419 . S
C357 C352 1.425 . S
C357 C354 1.409 . S
C357 C355 1.415 . S
C358 H348 0.930 . S
C358 C356 1.419 . S
C358 C359 1.362 . S
C359 H349 0.930 . S
C359 C352 1.409 . S
C359 C358 1.362 . S
H360 C366 0.930 . S
H361 C369 0.930 . S
H362 C370 0.930 . S
H363 C371 0.930 . S
H364 C374 0.930 . S
H365 C375 0.930 . S
C366 H360 0.930 . S
C366 C367 1.355 . S
C366 C368 1.415 . S
C367 C366 1.355 . S
C367 C369 1.419 . S
C368 C366 1.415 . S
C368 C373 1.425 . S
C368 C375 1.409 . S
C369 H361 0.930 . S
C369 C367 1.419 . S
C369 C370 1.362 . S
C370 H362 0.930 . S
C370 C369 1.362 . S
C370 C373 1.409 . S
C371 H363 0.930 . S
C371 C372 1.355 . S
C371 C373 1.415 . S
C372 C371 1.355 . S
C372 C374 1.419 . S
C373 C368 1.425 . S
C373 C370 1.409 . S
C373 C371 1.415 . S
C374 H364 0.930 . S
C374 C372 1.419 . S
C374 C375 1.362 . S
C375 H365 0.930 . S
C375 C368 1.409 . S
C375 C374 1.362 . S
H376 C382 0.930 . S
H377 C385 0.930 . S
H378 C386 0.930 . S
H379 C387 0.930 . S
H380 C390 0.930 . S
H381 C391 0.930 . S
C382 H376 0.930 . S
C382 C383 1.355 . S
C382 C384 1.415 . S
C383 C382 1.355 . S
C383 C385 1.419 . S
C384 C382 1.415 . S
C384 C389 1.425 . S
C384 C391 1.409 . S
C385 H377 0.930 . S
C385 C383 1.419 . S
C385 C386 1.362 . S
C386 H378 0.930 . S
C386 C385 1.362 . S
C386 C389 1.409 . S
C387 H379 0.930 . S
C387 C388 1.355 . S
C387 C389 1.415 . S
C388 C387 1.355 . S
C388 C390 1.419 . S
C389 C384 1.425 . S
C389 C386 1.409 . S
C389 C387 1.415 . S
C390 H380 0.930 . S
C390 C388 1.419 . S
C390 C391 1.362 . S
C391 H381 0.930 . S
C391 C384 1.409 . S
C391 C390 1.362 . S
H392 C398 0.930 . S
H393 C401 0.930 . S
H394 C402 0.930 . S
H395 C403 0.930 . S
H396 C406 0.930 . S
H397 C407 0.930 . S
C398 H392 0.930 . S
C398 C399 1.355 . S
C398 C400 1.415 . S
C399 C398 1.355 . S
C399 C401 1.419 . S
C400 C398 1.415 . S
C400 C405 1.425 . S
C400 C407 1.409 . S
C401 H393 0.930 . S
C401 C399 1.419 . S
C401 C402 1.362 . S
C402 H394 0.930 . S
C402 C401 1.362 . S
C402 C405 1.409 . S
C403 H395 0.930 . S
C403 C404 1.355 . S
C403 C405 1.415 . S
C404 C403 1.355 . S
C404 C406 1.419 . S
C405 C400 1.425 . S
C405 C402 1.409 . S
C405 C403 1.415 . S
C406 H396 0.930 . S
C406 C404 1.419 . S
C406 C407 1.362 . S
C407 H397 0.930 . S
C407 C400 1.409 . S
C407 C406 1.362 . S
H408 C414 0.930 . S
H409 C417 0.930 . S
H410 C418 0.930 . S
H411 C419 0.930 . S
H412 C422 0.930 . S
H413 C423 0.930 . S
C414 H408 0.930 . S
C414 C415 1.355 . S
C414 C416 1.415 . S
C415 C414 1.355 . S
C415 C417 1.419 . S
C416 C414 1.415 . S
C416 C421 1.425 . S
C416 C423 1.409 . S
C417 H409 0.930 . S
C417 C415 1.419 . S
C417 C418 1.362 . S
C418 H410 0.930 . S
C418 C417 1.362 . S
C418 C421 1.409 . S
C419 H411 0.930 . S
C419 C420 1.355 . S
C419 C421 1.415 . S
C420 C419 1.355 . S
C420 C422 1.419 . S
C421 C416 1.425 . S
C421 C418 1.409 . S
C421 C419 1.415 . S
C422 H412 0.930 . S
C422 C420 1.419 . S
C422 C423 1.362 . S
C423 H413 0.930 . S
C423 C416 1.409 . S
C423 C422 1.362 . S
H424 C430 0.930 . S
H425 C433 0.930 . S
H426 C434 0.930 . S
H427 C435 0.930 . S
H428 C438 0.930 . S
H429 C439 0.930 . S
C430 H424 0.930 . S
C430 C431 1.355 . S
C430 C432 1.415 . S
C431 C430 1.355 . S
C431 C433 1.419 . S
C432 C430 1.415 . S
C432 C437 1.425 . S
C432 C439 1.409 . S
C433 H425 0.930 . S
C433 C431 1.419 . S
C433 C434 1.362 . S
C434 H426 0.930 . S
C434 C433 1.362 . S
C434 C437 1.409 . S
C435 H427 0.930 . S
C435 C436 1.355 . S
C435 C437 1.415 . S
C436 C435 1.355 . S
C436 C438 1.419 . S
C437 C432 1.425 . S
C437 C434 1.409 . S
C437 C435 1.415 . S
C438 H428 0.930 . S
C438 C436 1.419 . S
C438 C439 1.362 . S
C439 H429 0.930 . S
C439 C432 1.409 . S
C439 C438 1.362 . S
H440 C446 0.930 . S
H441 C449 0.930 . S
H442 C450 0.930 . S
H443 C451 0.930 . S
H444 C454 0.930 . S
H445 C455 0.930 . S
C446 H440 0.930 . S
C446 C447 1.355 . S
C446 C448 1.415 . S
C447 C446 1.355 . S
C447 C449 1.419 . S
C448 C446 1.415 . S
C448 C453 1.425 . S
C448 C455 1.409 . S
C449 H441 0.930 . S
C449 C447 1.419 . S
C449 C450 1.362 . S
C450 H442 0.930 . S
C450 C449 1.362 . S
C450 C453 1.409 . S
C451 H443 0.930 . S
C451 C452 1.355 . S
C451 C453 1.415 . S
C452 C451 1.355 . S
C452 C454 1.419 . S
C453 C448 1.425 . S
C453 C450 1.409 . S
C453 C451 1.415 . S
C454 H444 0.930 . S
C454 C452 1.419 . S
C454 C455 1.362 . S
C455 H445 0.930 . S
C455 C448 1.409 . S
C455 C454 1.362 . S
H456 C462 0.930 . S
H457 C465 0.930 . S
H458 C466 0.930 . S
H459 C467 0.930 . S
H460 C470 0.930 . S
H461 C471 0.930 . S
C462 H456 0.930 . S
C462 C463 1.355 . S
C462 C464 1.415 . S
C463 C462 1.355 . S
C463 C465 1.419 . S
C464 C462 1.415 . S
C464 C469 1.425 1_445 S
C464 C471 1.409 1_545 S
C465 H457 0.930 . S
C465 C463 1.419 . S
C465 C466 1.362 1_455 S
C466 H458 0.930 . S
C466 C465 1.362 1_655 S
C466 C469 1.409 1_545 S
C467 H459 0.930 . S
C467 C468 1.355 . S
C467 C469 1.415 . S
C468 C467 1.355 . S
C468 C470 1.419 . S
C469 C464 1.425 1_665 S
C469 C466 1.409 1_565 S
C469 C467 1.415 . S
C470 H460 0.930 . S
C470 C468 1.419 . S
C470 C471 1.362 1_655 S
C471 H461 0.930 . S
C471 C464 1.409 1_565 S
C471 C470 1.362 1_455 S
H472 C478 0.930 . S
H473 C481 0.930 . S
H474 C482 0.930 . S
H475 C483 0.930 . S
H476 C486 0.930 . S
H477 C487 0.930 . S
C478 H472 0.930 . S
C478 C479 1.355 . S
C478 C480 1.415 . S
C479 C478 1.355 . S
C479 C481 1.419 . S
C480 C478 1.415 . S
C480 C485 1.425 1_645 S
C480 C487 1.409 1_545 S
C481 H473 0.930 . S
C481 C479 1.419 . S
C481 C482 1.362 1_655 S
C482 H474 0.930 . S
C482 C481 1.362 1_455 S
C482 C485 1.409 1_545 S
C483 H475 0.930 . S
C483 C484 1.355 . S
C483 C485 1.415 . S
C484 C483 1.355 . S
C484 C486 1.419 . S
C485 C480 1.425 1_465 S
C485 C482 1.409 1_565 S
C485 C483 1.415 . S
C486 H476 0.930 . S
C486 C484 1.419 . S
C486 C487 1.362 1_455 S
C487 H477 0.930 . S
C487 C480 1.409 1_565 S
C487 C486 1.362 1_655 S
H488 C494 0.930 . S
H489 C497 0.930 . S
H490 C498 0.946 . S
H491 C499 0.930 . S
H492 C502 0.930 . S
H493 C503 0.946 . S
C494 H488 0.930 . S
C494 C495 1.355 1_545 S
C494 C496 1.415 . S
C495 C494 1.355 1_565 S
C495 C497 1.419 . S
C496 C494 1.415 . S
C496 C501 1.425 1_546 S
C496 C503 1.417 . S
C497 H489 0.930 . S
C497 C495 1.419 . S
C497 C498 1.340 1_556 S
C498 H490 0.946 . S
C498 C497 1.340 1_554 S
C498 C501 1.417 . S
C499 H491 0.930 . S
C499 C500 1.355 1_565 S
C499 C501 1.415 . S
C500 C499 1.355 1_545 S
C500 C502 1.419 . S
C501 C496 1.425 1_564 S
C501 C498 1.417 . S
C501 C499 1.415 . S
C502 H492 0.930 . S
C502 C500 1.419 . S
C502 C503 1.340 1_554 S
C503 H493 0.946 . S
C503 C496 1.417 . S
C503 C502 1.340 1_556 S
H504 C510 0.930 . S
H505 C513 0.930 . S
H506 C514 0.930 . S
H507 C515 0.930 . S
H508 C518 0.930 . S
H509 C519 0.930 . S
C510 H504 0.930 . S
C510 C511 1.355 . S
C510 C512 1.415 1_554 S
C511 C510 1.355 . S
C511 C513 1.419 1_565 S
C512 C510 1.415 1_556 S
C512 C517 1.425 1_566 S
C512 C519 1.409 . S
C513 H505 0.930 . S
C513 C511 1.419 1_545 S
C513 C514 1.362 . S
C514 H506 0.930 . S
C514 C513 1.362 . S
C514 C517 1.409 . S
C515 H507 0.930 . S
C515 C516 1.355 . S
C515 C517 1.415 1_556 S
C516 C515 1.355 . S
C516 C518 1.419 1_545 S
C517 C512 1.425 1_544 S
C517 C514 1.409 . S
C517 C515 1.415 1_554 S
C518 H508 0.930 . S
C518 C516 1.419 1_565 S
C518 C519 1.362 . S
C519 H509 0.930 . S
C519 C512 1.409 . S
C519 C518 1.362 . S
H520 C526 0.930 . S
H521 C529 0.930 . S
H522 C530 0.933 . S
H523 C531 0.930 . S
H524 C534 0.930 . S
H525 C535 0.933 . S
C526 H520 0.930 . S
C526 C527 1.355 1_554 S
C526 C528 1.415 . S
C527 C526 1.355 1_556 S
C527 C529 1.419 . S
C528 C526 1.415 . S
C528 C533 1.425 1_654 S
C528 C535 1.410 . S
C529 H521 0.930 . S
C529 C527 1.419 . S
C529 C530 1.359 1_655 S
C530 H522 0.933 . S
C530 C529 1.359 1_455 S
C530 C533 1.410 . S
C531 H523 0.930 . S
C531 C532 1.355 1_556 S
C531 C533 1.415 . S
C532 C531 1.355 1_554 S
C532 C534 1.419 . S
C533 C528 1.425 1_456 S
C533 C530 1.410 . S
C533 C531 1.415 . S
C534 H524 0.930 . S
C534 C532 1.419 . S
C534 C535 1.359 1_455 S
C535 H525 0.933 . S
C535 C528 1.410 . S
C535 C534 1.359 1_655 S
H536 C542 0.930 . S
H537 C545 0.930 . S
H538 C546 0.930 . S
H539 C547 0.930 . S
H540 C550 0.930 . S
H541 C551 0.930 . S
C542 H536 0.930 . S
C542 C543 1.355 . S
C542 C544 1.409 1_455 S
C543 C542 1.355 . S
C543 C545 1.419 1_556 S
C544 C542 1.409 1_655 S
C544 C549 1.425 1_656 S
C544 C551 1.415 . S
C545 H537 0.930 . S
C545 C543 1.419 1_554 S
C545 C546 1.362 . S
C546 H538 0.930 . S
C546 C545 1.362 . S
C546 C549 1.415 . S
C547 H539 0.930 . S
C547 C548 1.355 . S
C547 C549 1.409 1_655 S
C548 C547 1.355 . S
C548 C550 1.419 1_554 S
C549 C544 1.425 1_454 S
C549 C546 1.415 . S
C549 C547 1.409 1_455 S
C550 H540 0.930 . S
C550 C548 1.419 1_556 S
C550 C551 1.362 . S
C551 H541 0.930 . S
C551 C544 1.415 . S
C551 C550 1.362 . S
C175 C53 1.049 . S
C180 C11 1.055 . S
C191 C39 1.036 . S
C196 C25 1.106 . S
C207 C81 1.063 . S
C212 C67 1.042 . S
C223 C95 1.080 . S
C228 C109 1.085 . S
C239 C137 1.086 . S
C244 C123 1.028 . S
C255 C151 1.089 . S
C260 C165 1.076 . S
C271 C5 1.058 . S
C276 C98 0.949 . S
C287 C84 1.024 . S
C292 C19 1.033 . S
C303 C70 0.987 . S
C308 C33 1.082 . S
C319 C56 0.963 . S
C324 C47 1.083 . S
C335 C61 1.032 . S
C340 C154 1.057 . S
C351 C112 1.043 . S
C356 C75 1.032 . S
C367 C140 0.955 . S
C372 C89 1.055 . S
C383 C103 1.037 . S
C388 C126 1.070 . S
C399 C28 0.970 . S
C404 C117 1.083 . S
C415 C0 0.991 . S
C420 C131 1.041 . S
C431 C145 1.078 . S
C436 C14 0.939 . S
C447 C42 0.943 . S
C452 C159 1.063 . S
C463 C9 1.252 . S
C468 C23 1.287 . S
C479 C51 1.252 . S
C484 C37 1.287 . S
C495 C93 1.266 . S
C500 C65 1.252 . S
C511 C79 1.273 . S
C516 C107 1.283 . S
C527 C149 1.270 . S
C532 C121 1.251 . S
C543 C135 1.282 . S
C548 C163 1.275 . S
