# Generated by pormake.
# Topology qtz-x, (6)-cn, num edge types: 1
# Building blocks:
#     Node 0, Type 0, BuildingBlock: PAMTOO_clean_sbu_0, # of connection points: 6
#     Node 1, Type 0, BuildingBlock: PAMTOO_clean_sbu_0, # of connection points: 6
#     Node 2, Type 0, BuildingBlock: PAMTOO_clean_sbu_0, # of connection points: 6
#     Edge 3, Type (0, 0), BuildingBlock: MIFKUJ_clean_linker_0, # of connection points: 2
#     Edge 4, Type (0, 0), BuildingBlock: MIFKUJ_clean_linker_0, # of connection points: 2
#     Edge 5, Type (0, 0), BuildingBlock: MIFKUJ_clean_linker_0, # of connection points: 2
#     Edge 6, Type (0, 0), BuildingBlock: MIFKUJ_clean_linker_0, # of connection points: 2
#     Edge 7, Type (0, 0), BuildingBlock: MIFKUJ_clean_linker_0, # of connection points: 2
#     Edge 8, Type (0, 0), BuildingBlock: MIFKUJ_clean_linker_0, # of connection points: 2
#     Edge 9, Type (0, 0), BuildingBlock: MIFKUJ_clean_linker_0, # of connection points: 2
#     Edge 10, Type (0, 0), BuildingBlock: MIFKUJ_clean_linker_0, # of connection points: 2
#     Edge 11, Type (0, 0), BuildingBlock: MIFKUJ_clean_linker_0, # of connection points: 2
# Relax obj value: 0.124
# Max RMSD: 0.227
# Mean RMSD: 0.227
data_MOF--net-qtz-x--node1-PAMTOO_clean_sbu_0--edge1-MIFKUJ_clean_linker_0
_symmetry_space_group_name_H-M    P1
_symmetry_Int_Tables_number       1
_symmetry_cell_setting            triclinic
loop_
_symmetry_equiv_pos_as_xyz
'x, y, z'
_cell_length_a     19.497845
_cell_length_b     19.43439
_cell_length_c     66.378864
_cell_angle_alpha  89.928073
_cell_angle_beta   90.064227
_cell_angle_gamma 120.12506
loop_
_atom_site_label
_atom_site_type_symbol
_atom_site_fract_x
_atom_site_fract_y
_atom_site_fract_z
_atom_type_partial_charge
Dy0 Dy 0.113 0.62863 0.16549 0.0
Dy1 Dy 0.93412 0.5345 0.1864 0.0
C2 C 0.02961 0.71982 0.18166 0.0
O3 O 0.13487 0.64954 0.19844 0.0
O4 O 0.02024 0.54024 0.2097 0.0
O5 O 0.21929 0.73656 0.15657 0.0
O6 O 0.2079 0.62171 0.15078 0.0
O7 O 0.9503 0.44579 0.16934 0.0
O8 O 0.08398 0.50642 0.17412 0.0
O9 O 0.91256 0.55862 0.15458 0.0
O10 O 0.02875 0.5802 0.13976 0.0
O11 O 0.8413 0.42874 0.2006 0.0
O12 O 0.82756 0.53194 0.19667 0.0
C13 C 0.09338 0.59838 0.21265 0.0
O14 O 0.06453 0.71032 0.16594 0.0
O15 O -0.0088 0.66223 0.19463 0.0
C16 C 0.26894 0.71808 0.1258 0.0
C17 C 0.29339 0.72871 0.08387 0.0
C18 C 0.23248 0.73826 0.09221 0.0
C19 C 0.22006 0.73254 0.11302 0.0
C20 C 0.33209 0.71243 0.11762 0.0
C21 C 0.34425 0.71767 0.09681 0.0
C22 C 0.24796 0.69777 0.14708 0.0
C23 C 0.01544 0.44244 0.17073 0.0
C24 C 0.956 0.56747 0.13851 0.0
C25 C 0.77189 0.45252 0.22616 0.0
C26 C 0.72154 0.42949 0.26683 0.0
C27 C 0.70603 0.3644 0.25447 0.0
C28 C 0.73042 0.37581 0.23439 0.0
C29 C 0.78769 0.51798 0.23838 0.0
C30 C 0.76255 0.50651 0.2585 0.0
C31 C 0.79956 0.46209 0.20506 0.0
H32 H 0.19191 0.74596 0.08258 0.0
H33 H 0.17022 0.73595 0.11904 0.0
H34 H 0.36992 0.70058 0.12724 0.0
H35 H 0.39209 0.71083 0.09077 0.0
H36 H 0.6765 0.30439 0.26041 0.0
H37 H 0.71791 0.32444 0.22533 0.0
H38 H 0.81987 0.57801 0.23247 0.0
H39 H 0.7752 0.55797 0.26751 0.0
Dy40 Dy 0.43393 0.99387 0.49681 0.0
Dy41 Dy 0.53595 0.17035 0.51856 0.0
C42 C 0.617 0.0735 0.50363 0.0
O43 O 0.44842 0.96959 0.52908 0.0
O44 O 0.4633 0.08513 0.54255 0.0
O45 O 0.41598 0.87832 0.48861 0.0
O46 O 0.32876 0.91157 0.48047 0.0
O47 O 0.42372 0.15726 0.50629 0.0
O48 O 0.34948 0.02372 0.51124 0.0
O49 O 0.57294 0.19501 0.48636 0.0
O50 O 0.46418 0.08549 0.47266 0.0
O51 O 0.54786 0.2825 0.52768 0.0
O52 O 0.63693 0.25315 0.53642 0.0
C53 C 0.45017 0.01239 0.54462 0.0
O54 O 0.56082 0.03727 0.49023 0.0
O55 O 0.60839 0.11107 0.51892 0.0
C56 C 0.34699 0.8297 0.45788 0.0
C57 C 0.33026 0.77725 0.41761 0.0
C58 C 0.39775 0.84855 0.42369 0.0
C59 C 0.4059 0.87469 0.44365 0.0
C60 C 0.28045 0.75809 0.45202 0.0
C61 C 0.27205 0.73204 0.43209 0.0
C62 C 0.35145 0.85925 0.47846 0.0
C63 C 0.35464 0.09279 0.50849 0.0
C64 C 0.52785 0.1565 0.47084 0.0
C65 C 0.59884 0.3151 0.56084 0.0
C66 C 0.58274 0.33768 0.60219 0.0
C67 C 0.51533 0.29424 0.59007 0.0
C68 C 0.52325 0.28252 0.56964 0.0
C69 C 0.66625 0.3585 0.57291 0.0
C70 C 0.65832 0.36946 0.59344 0.0
C71 C 0.60772 0.29954 0.53952 0.0
H72 H 0.44411 0.88441 0.41302 0.0
H73 H 0.45748 0.93057 0.4479 0.0
H74 H 0.23401 0.72314 0.46279 0.0
H75 H 0.21867 0.67769 0.42791 0.0
H76 H 0.45641 0.26831 0.59647 0.0
H77 H 0.47016 0.2473 0.56079 0.0
H78 H 0.72505 0.3833 0.56649 0.0
H79 H 0.71125 0.40357 0.60243 0.0
Dy80 Dy 0.40194 0.60464 0.83108 0.0
Dy81 Dy 0.49894 0.52769 0.85418 0.0
C82 C 0.32152 0.42312 0.84122 0.0
O83 O 0.41341 0.64474 0.86297 0.0
O84 O 0.4263 0.54469 0.87754 0.0
O85 O 0.29839 0.58706 0.81495 0.0
O86 O 0.39328 0.70666 0.8216 0.0
O87 O 0.57022 0.65976 0.85549 0.0
O88 O 0.53075 0.68138 0.82506 0.0
O89 O 0.52708 0.52535 0.82147 0.0
O90 O 0.42966 0.54353 0.80682 0.0
O91 O 0.60847 0.53226 0.86239 0.0
O92 O 0.49627 0.43788 0.87391 0.0
C93 C 0.41062 0.60289 0.8788 0.0
O94 O 0.31519 0.48653 0.84392 0.0
O95 O 0.39111 0.42855 0.84025 0.0
C96 C 0.33003 0.68552 0.79007 0.0
C97 C 0.34127 0.73397 0.74955 0.0
C98 C 0.33725 0.66161 0.75438 0.0
C99 C 0.33197 0.63775 0.77445 0.0
C100 C 0.33301 0.75724 0.78529 0.0
C101 C 0.33874 0.78139 0.7652 0.0
C102 C 0.32853 0.66286 0.81133 0.0
C103 C 0.584 0.70338 0.83932 0.0
C104 C 0.48645 0.52591 0.80561 0.0
C105 C 0.6065 0.48524 0.89571 0.0
C106 C 0.66355 0.50486 0.9357 0.0
C107 C 0.68866 0.57109 0.92294 0.0
C108 C 0.66013 0.56148 0.90317 0.0
C109 C 0.58223 0.4191 0.90836 0.0
C110 C 0.61016 0.42876 0.92816 0.0
C111 C 0.5734 0.47324 0.87511 0.0
H112 H 0.34011 0.62432 0.74269 0.0
H113 H 0.33039 0.58238 0.77773 0.0
H114 H 0.3318 0.795 0.79711 0.0
H115 H 0.34102 0.83711 0.76191 0.0
H116 H 0.72922 0.63053 0.92837 0.0
H117 H 0.67952 0.61375 0.89382 0.0
H118 H 0.54104 0.35977 0.90296 0.0
H119 H 0.59048 0.37648 0.93752 0.0
H120 H 0.93133 0.74807 0.20501 0.0
H121 H 0.9263 0.87137 0.2067 0.0
H122 H 0.12536 0.9845 0.16609 0.0
H123 H 0.13047 0.86167 0.16412 0.0
H124 H 0.12858 0.07991 0.20023 0.0
H125 H 0.95378 0.90666 0.14714 0.0
H126 H 0.84224 0.77946 0.13523 0.0
H127 H 0.68347 0.80799 0.1745 0.0
H128 H 0.79477 0.93414 0.18721 0.0
H129 H 0.12802 0.40822 0.15892 0.0
H130 H 0.12512 0.28182 0.16298 0.0
H131 H 0.89093 0.1775 0.189 0.0
H132 H 0.892 0.30266 0.18392 0.0
H133 H 0.89764 0.07344 0.1667 0.0
H134 H 0.06142 0.24664 0.21859 0.0
H135 H 0.16898 0.37068 0.23323 0.0
H136 H 0.34138 0.34094 0.2001 0.0
H137 H 0.23475 0.21737 0.18499 0.0
C138 C 0.97463 0.79957 0.19666 0.0
C139 C 0.03076 0.79534 0.18425 0.0
C140 C 0.97164 0.86966 0.19766 0.0
C141 C 0.02521 0.93622 0.18643 0.0
C142 C 0.08371 0.93338 0.17485 0.0
C143 C 0.08613 0.86317 0.17364 0.0
C144 C 0.01686 0.0071 0.18535 0.0
C145 C 0.07841 0.07899 0.19286 0.0
C146 C 0.9499 0.00435 0.1763 0.0
C147 C 0.88281 0.92939 0.1683 0.0
C148 C 0.89526 0.88549 0.15338 0.0
C149 C 0.83203 0.81362 0.14645 0.0
C150 C 0.75576 0.78572 0.15405 0.0
C151 C 0.74259 0.82964 0.16863 0.0
C152 C 0.80576 0.90123 0.17574 0.0
C153 C 0.07565 0.35787 0.16526 0.0
C154 C 0.01043 0.36478 0.17121 0.0
C155 C 0.07423 0.28604 0.16773 0.0
C156 C 0.00872 0.22107 0.17684 0.0
C157 C 0.94223 0.22709 0.18206 0.0
C158 C 0.94285 0.29841 0.17913 0.0
C159 C 0.01043 0.14746 0.18121 0.0
C160 C 0.94751 0.07478 0.17435 0.0
C161 C 0.07544 0.14922 0.19126 0.0
C162 C 0.13997 0.22295 0.20055 0.0
C163 C 0.12223 0.26675 0.21434 0.0
C164 C 0.18304 0.33698 0.22273 0.0
C165 C 0.26195 0.36372 0.21758 0.0
C166 C 0.28022 0.32016 0.20407 0.0
C167 C 0.21962 0.24996 0.19561 0.0
H168 H 0.30895 0.41813 0.22407 0.0
H169 H 0.70688 0.73012 0.14864 0.0
H170 H 0.20612 0.98319 0.52076 0.0
H171 H 0.08387 0.98607 0.51527 0.0
H172 H 0.21571 0.21161 0.4846 0.0
H173 H 0.33877 0.21048 0.49073 0.0
H174 H 0.11359 0.21655 0.50774 0.0
H175 H 0.10095 0.03656 0.45827 0.0
H176 H 0.1082 0.9231 0.44417 0.0
H177 H 0.91197 0.76179 0.48109 0.0
H178 H 0.90432 0.87439 0.49568 0.0
H179 H 0.67603 0.04291 0.46965 0.0
H180 H 0.806 0.05376 0.46565 0.0
H181 H 0.85572 0.11398 0.52861 0.0
H182 H 0.72769 0.10581 0.53254 0.0
H183 H 0.87343 0.97899 0.48123 0.0
H184 H 0.04346 0.24731 0.5363 0.0
H185 H 0.03955 0.3672 0.54657 0.0
H186 H 0.92842 0.36515 0.49052 0.0
H187 H 0.93273 0.246 0.47977 0.0
C188 C 0.20903 0.0335 0.51291 0.0
C189 C 0.2817 0.09653 0.50613 0.0
C190 C 0.13913 0.03478 0.50963 0.0
C191 C 0.14055 0.09818 0.49911 0.0
C192 C 0.21333 0.16193 0.49265 0.0
C193 C 0.2835 0.16129 0.49621 0.0
C194 C 0.06606 0.09865 0.49545 0.0
C195 C 0.06125 0.16487 0.5018 0.0
C196 C -0.00142 0.03232 0.487 0.0
C197 C 0.00238 0.9641 0.47816 0.0
C198 C 0.05964 0.97695 0.46349 0.0
C199 C 0.06381 0.91277 0.45539 0.0
C200 C 0.01066 0.8353 0.46175 0.0
C201 C 0.95311 0.82185 0.47618 0.0
C202 C 0.94877 0.88584 0.48435 0.0
C203 C 0.71474 0.05822 0.48262 0.0
C204 C 0.69231 0.07428 0.50136 0.0
C205 C 0.78881 0.06444 0.48031 0.0
C206 C 0.84099 0.08634 0.49673 0.0
C207 C 0.81719 0.09923 0.51561 0.0
C208 C 0.74387 0.09411 0.51786 0.0
C209 C 0.92037 0.09534 0.4944 0.0
C210 C 0.92613 0.03108 0.48687 0.0
C211 C -0.01058 0.16463 0.50107 0.0
C212 C 0.98801 0.23733 0.50729 0.0
C213 C 0.01868 0.27272 0.5261 0.0
C214 C 0.01627 0.3405 0.53202 0.0
C215 C 0.9836 0.37366 0.51922 0.0
C216 C 0.95351 0.33928 0.50044 0.0
C217 C 0.95585 0.27156 0.49444 0.0
H218 H 0.9817 0.42606 0.52385 0.0
H219 H 0.01399 0.78569 0.45547 0.0
H220 H 0.65155 0.77945 0.80415 0.0
H221 H 0.78405 0.89468 0.79953 0.0
H222 H 0.82253 0.90575 0.86382 0.0
H223 H 0.69173 0.7887 0.86841 0.0
H224 H 0.85031 0.0397 0.81044 0.0
H225 H 0.00868 0.96911 0.87563 0.0
H226 H 0.00236 0.85095 0.89131 0.0
H227 H 0.9013 0.71696 0.83717 0.0
H228 H 0.90809 0.83457 0.82105 0.0
H229 H 0.16885 0.38407 0.84866 0.0
H230 H 0.04948 0.25578 0.84314 0.0
H231 H 0.19192 0.15912 0.8211 0.0
H232 H 0.31203 0.28693 0.82708 0.0
H233 H 0.08398 0.05801 0.84544 0.0
H234 H 0.08373 0.20017 0.78828 0.0
H235 H 0.0956 0.31318 0.76855 0.0
H236 H 0.89136 0.29325 0.79853 0.0
H237 H 0.87892 0.18085 0.81869 0.0
C238 C 0.6884 0.80659 0.81728 0.0
C239 C 0.66181 0.77514 0.83663 0.0
C240 C 0.76399 0.87226 0.81462 0.0
C241 C 0.81368 0.9078 0.83128 0.0
C242 C 0.78606 0.87781 0.85068 0.0
C243 C 0.71115 0.81136 0.85331 0.0
C244 C 0.89376 0.97757 0.8286 0.0
C245 C 0.90154 0.04352 0.81795 0.0
C246 C 0.96129 0.98133 0.83768 0.0
C247 C 0.95846 0.91066 0.84718 0.0
C248 C 0.98561 0.91462 0.86702 0.0
C249 C 0.98181 0.84767 0.876 0.0
C250 C 0.95127 0.77645 0.86526 0.0
C251 C 0.92472 0.7721 0.8455 0.0
C252 C 0.92846 0.83887 0.83644 0.0
C253 C 0.17479 0.33554 0.84264 0.0
C254 C 0.24963 0.34538 0.83832 0.0
C255 C 0.10655 0.26247 0.83936 0.0
C256 C 0.11194 0.1985 0.83139 0.0
C257 C 0.18664 0.20794 0.8272 0.0
C258 C 0.25506 0.28086 0.83066 0.0
C259 C 0.03927 0.12111 0.82818 0.0
C260 C 0.03301 0.05368 0.83765 0.0
C261 C 0.97408 0.11501 0.81729 0.0
C262 C 0.98064 0.18223 0.80509 0.0
C263 C 0.0416 0.22015 0.79077 0.0
C264 C 0.04841 0.28409 0.77949 0.0
C265 C -0.00568 0.31043 0.78231 0.0
C266 C 0.9332 0.27276 0.79637 0.0
C267 C 0.92616 0.20882 0.8077 0.0
H268 H -0.00029 0.35998 0.77357 0.0
H269 H 0.94827 0.72467 0.87226 0.0
H270 H 0.38021 0.51755 0.91362 0.0
H271 H 0.34527 0.54732 0.9464 0.0
H272 H 0.3548 0.7576 0.92189 0.0
H273 H 0.39015 0.72837 0.88886 0.0
H274 H 0.43491 0.78771 0.95739 0.0
H275 H 0.17845 0.60341 0.93358 0.0
H276 H 0.07294 0.48051 0.918 0.0
H277 H 0.09321 0.34173 0.96553 0.0
H278 H 0.1997 0.46369 0.98126 0.0
H279 H 0.28999 0.82714 0.05471 0.0
H280 H 0.29727 0.8145 0.01803 0.0
H281 H 0.31632 0.60474 0.02675 0.0
H282 H 0.309 0.61689 0.06319 0.0
H283 H 0.20533 0.58739 0.99703 0.0
H284 H 0.47738 0.77431 0.01711 0.0
H285 H 0.58176 0.89887 0.03236 0.0
H286 H 0.52661 0.03489 0.99118 0.0
H287 H 0.4211 0.91095 0.97587 0.0
C288 C 0.37461 0.57001 0.91511 0.0
C289 C 0.38801 0.62058 0.89859 0.0
C290 C 0.35407 0.58664 0.93385 0.0
C291 C 0.34644 0.65411 0.93651 0.0
C292 C 0.35995 0.70497 0.92011 0.0
C293 C 0.38006 0.68809 0.90126 0.0
C294 C 0.32832 0.67287 0.95676 0.0
C295 C 0.38372 0.74468 0.9659 0.0
C296 C 0.26172 0.61656 0.96789 0.0
C297 C 0.1977 0.54279 0.9585 0.0
C298 C 0.16097 0.54665 0.94062 0.0
C299 C 0.10088 0.47713 0.93177 0.0
C300 C 0.07669 0.40333 0.94071 0.0
C301 C 0.11223 0.39893 0.95858 0.0
C302 C 0.17237 0.46827 0.96749 0.0
C303 C 0.29572 0.77843 0.04873 0.0
C304 C 0.29974 0.72343 0.06176 0.0
C305 C 0.29997 0.77137 0.02785 0.0
C306 C 0.30743 0.70875 0.01975 0.0
C307 C 0.31048 0.6534 0.03273 0.0
C308 C 0.30712 0.66089 0.05353 0.0
C309 C 0.31341 0.70065 0.99777 0.0
C310 C 0.25557 0.63094 0.98833 0.0
C311 C 0.37735 0.75909 0.98633 0.0
C312 C 0.44073 0.83344 0.99553 0.0
C313 C 0.48702 0.83077 0.01144 0.0
C314 C 0.54649 0.90125 0.02006 0.0
C315 C 0.56062 0.97475 0.01279 0.0
C316 C 0.51547 0.97791 0.99683 0.0
C317 C 0.45586 0.90759 0.98817 0.0
H318 H 0.60672 0.02925 0.01948 0.0
H319 H 0.0301 0.34958 0.93386 0.0
H320 H 0.65458 0.30145 0.46016 0.0
H321 H 0.69018 0.35942 0.42638 0.0
H322 H 0.48454 0.15363 0.40194 0.0
H323 H 0.44919 0.09485 0.43544 0.0
H324 H 0.61328 0.19068 0.38024 0.0
H325 H 0.49165 0.33327 0.40804 0.0
H326 H 0.47552 0.41847 0.43285 0.0
H327 H 0.71294 0.60703 0.42108 0.0
H328 H 0.73083 0.52251 0.39639 0.0
H329 H 0.58533 0.30783 0.28312 0.0
H330 H 0.55554 0.27426 0.31863 0.0
H331 H 0.77183 0.4869 0.33526 0.0
H332 H 0.80172 0.52176 0.29971 0.0
H333 H 0.65024 0.45458 0.36158 0.0
H334 H 0.7704 0.3138 0.33297 0.0
H335 H 0.78574 0.22905 0.30787 0.0
H336 H 0.5514 0.0377 0.32136 0.0
H337 H 0.5345 0.12141 0.34638 0.0
C338 C 0.61673 0.26865 0.44761 0.0
C339 C 0.54896 0.19344 0.45056 0.0
C340 C 0.63701 0.30209 0.42832 0.0
C341 C 0.58967 0.26115 0.41164 0.0
C342 C 0.52195 0.18631 0.41458 0.0
C343 C 0.50173 0.15286 0.4338 0.0
C344 C 0.61157 0.29437 0.39096 0.0
C345 C 0.62052 0.24805 0.37615 0.0
C346 C 0.62365 0.37038 0.38573 0.0
C347 C 0.61286 0.42126 0.40053 0.0
C348 C 0.54064 0.39266 0.41087 0.0
C349 C 0.53113 0.44088 0.42488 0.0
C350 C 0.59324 0.51803 0.42858 0.0
C351 C 0.66492 0.54721 0.41823 0.0
C352 C 0.67476 0.4992 0.40421 0.0
C353 C 0.62667 0.34773 0.29428 0.0
C354 C 0.69746 0.41613 0.28844 0.0
C355 C 0.60933 0.32855 0.3146 0.0
C356 C 0.66259 0.37691 0.32957 0.0
C357 C 0.73029 0.4483 0.32394 0.0
C358 C 0.74733 0.46802 0.30356 0.0
C359 C 0.64972 0.3498 0.35085 0.0
C360 C 0.64322 0.3974 0.36575 0.0
C361 C 0.64011 0.27497 0.35626 0.0
C362 C 0.651 0.22402 0.34147 0.0
C363 C 0.72208 0.25371 0.33053 0.0
C364 C 0.73111 0.20579 0.31632 0.0
C365 C 0.66967 0.12793 0.31302 0.0
C366 C 0.59915 0.09782 0.32395 0.0
C367 C 0.58983 0.14544 0.33817 0.0
H368 H 0.67671 0.09094 0.302 0.0
H369 H 0.58576 0.55527 0.43943 0.0
H370 H 0.26125 0.64602 0.71652 0.0
H371 H 0.27805 0.68993 0.68139 0.0
H372 H 0.45868 0.92557 0.69942 0.0
H373 H 0.44144 0.88221 0.73456 0.0
H374 H 0.36178 0.93436 0.67334 0.0
H375 H 0.50408 0.79227 0.67705 0.0
H376 H 0.52124 0.67734 0.68437 0.0
H377 H 0.33878 0.53589 0.64165 0.0
H378 H 0.31971 0.64969 0.63429 0.0
H379 H 0.52098 0.09401 0.57859 0.0
H380 H 0.50344 0.04319 0.6129 0.0
H381 H 0.33479 0.80767 0.59165 0.0
H382 H 0.35664 0.85789 0.5569 0.0
H383 H 0.42064 0.7955 0.61929 0.0
H384 H 0.28253 0.94363 0.61519 0.0
H385 H 0.27111 0.06209 0.60804 0.0
H386 H 0.45085 0.19572 0.65207 0.0
H387 H 0.46453 0.07862 0.65921 0.0
C388 C 0.30477 0.70709 0.71295 0.0
C389 C 0.3501 0.76069 0.72828 0.0
C390 C 0.31441 0.73207 0.69288 0.0
C391 C 0.37036 0.81082 0.68773 0.0
C392 C 0.41508 0.86457 0.70304 0.0
C393 C 0.40504 0.8398 0.72312 0.0
C394 C 0.38194 0.83772 0.66642 0.0
C395 C 0.37547 0.90451 0.66155 0.0
C396 C 0.39811 0.7977 0.65097 0.0
C397 C 0.40991 0.72932 0.65527 0.0
C398 C 0.46719 0.73649 0.66933 0.0
C399 C 0.47733 0.67157 0.67347 0.0
C400 C 0.43098 0.59929 0.66352 0.0
C401 C 0.37456 0.59188 0.64937 0.0
C402 C 0.3641 0.65659 0.64519 0.0
C403 C 0.48022 0.03131 0.58124 0.0
C404 C 0.43939 0.97989 0.56518 0.0
C405 C 0.46982 0.00237 0.60089 0.0
C406 C 0.41583 0.92199 0.60503 0.0
C407 C 0.37627 0.87006 0.58889 0.0
C408 C 0.38855 0.89868 0.56907 0.0
C409 C 0.40073 0.89248 0.62617 0.0
C410 C 0.40645 0.82513 0.63103 0.0
C411 C 0.38428 0.93231 0.64167 0.0
C412 C 0.37488 0.00238 0.63764 0.0
C413 C 0.31989 -0.00162 0.62328 0.0
C414 C 0.31312 0.06535 0.61921 0.0
C415 C 0.36044 0.13647 0.62954 0.0
C416 C 0.41446 0.14071 0.64402 0.0
C417 C 0.42168 0.07403 0.6481 0.0
H418 H 0.35513 0.18825 0.62638 0.0
H419 H 0.43891 0.54909 0.66676 0.0
H420 H 0.81551 0.59775 0.94949 0.0
H421 H 0.86337 0.61111 0.98421 0.0
H422 H 0.62552 0.44759 1.00432 0.0
H423 H 0.57714 0.43462 0.96968 0.0
H424 H 0.70499 0.58107 0.02913 0.0
H425 H 0.75391 0.38368 0.99856 0.0
H426 H 0.80913 0.33349 0.97287 0.0
H427 H 0.04448 0.52142 0.98689 0.0
H428 H -0.00947 0.57346 0.0125 0.0
H429 H 0.79998 0.50363 0.12717 0.0
H430 H 0.74837 0.49515 0.09304 0.0
H431 H 0.98747 0.61859 0.06985 0.0
H432 H 0.03873 0.62395 0.10357 0.0
H433 H 0.90551 0.50467 0.0463 0.0
H434 H 0.86721 0.70976 0.07411 0.0
H435 H 0.8213 0.77339 0.09852 0.0
H436 H 0.58022 0.58852 0.08913 0.0
H437 H 0.62479 0.524 0.06453 0.0
C438 C 0.77333 0.56518 0.96133 0.0
C439 C 0.6926 0.51479 0.95683 0.0
C440 C 0.80081 0.57247 0.98114 0.0
C441 C 0.7481 0.52974 0.99682 0.0
C442 C 0.66724 0.48087 0.99244 0.0
C443 C 0.63981 0.47308 0.97263 0.0
C444 C 0.77737 0.53501 0.01775 0.0
C445 C 0.74812 0.56347 0.03297 0.0
C446 C 0.8355 0.51444 0.02262 0.0
C447 C 0.86805 0.48292 0.00731 0.0
C448 C 0.81736 0.41469 0.99606 0.0
C449 C 0.84845 0.38585 0.98154 0.0
C450 C 0.93021 0.42438 0.97822 0.0
C451 C 0.98114 0.49172 0.98946 0.0
C452 C 0.95033 0.52087 1.00399 0.0
C453 C 0.84141 0.52912 0.11478 0.0
C454 C 0.92342 0.56417 0.11811 0.0
C455 C 0.81192 0.52473 0.09526 0.0
C456 C 0.86396 0.55699 0.07877 0.0
C457 C 0.94587 0.59284 0.0822 0.0
C458 C 0.97518 0.59601 0.10157 0.0
C459 C 0.83365 0.55137 0.05784 0.0
C460 C 0.8625 0.52253 0.04257 0.0
C461 C 0.7766 0.57341 0.05284 0.0
C462 C 0.74941 0.61161 0.06767 0.0
C463 C 0.80446 0.68238 0.07737 0.0
C464 C 0.77867 0.71867 0.09121 0.0
C465 C 0.69794 0.68469 0.09552 0.0
C466 C 0.64276 0.61465 0.08584 0.0
C467 C 0.66822 0.57835 0.07188 0.0
H468 H 0.67814 0.71281 0.10628 0.0
H469 H 0.95404 0.4019 0.96697 0.0
H470 H 0.06894 0.48154 0.23942 0.0
H471 H 0.12331 0.49835 0.27352 0.0
H472 H 0.2492 0.75331 0.2655 0.0
H473 H 0.19895 0.73627 0.23106 0.0
H474 H 0.3368 0.713 0.28623 0.0
H475 H 0.05633 0.63542 0.28797 0.0
H476 H 0.9166 0.54073 0.27981 0.0
H477 H 0.92475 0.36165 0.31599 0.0
H478 H 0.06576 0.45422 0.32361 0.0
H479 H 0.36541 0.87062 0.3839 0.0
H480 H 0.33802 0.82784 0.34882 0.0
H481 H 0.23872 0.58341 0.36743 0.0
H482 H 0.26745 0.62579 0.4026 0.0
H483 H 0.14156 0.60022 0.34193 0.0
H484 H 0.41229 0.67675 0.34402 0.0
H485 H 0.55581 0.75995 0.35008 0.0
H486 H 0.56899 0.93039 0.3068 0.0
H487 H 0.42486 0.85012 0.30108 0.0
C488 C 0.10881 0.54104 0.24494 0.0
C489 C 0.12913 0.60772 0.23276 0.0
C490 C 0.13973 0.55064 0.26442 0.0
C491 C 0.1888 0.62724 0.27232 0.0
C492 C 0.21128 0.69362 0.25982 0.0
C493 C 0.18229 0.68391 0.24017 0.0
C494 C 0.21344 0.63943 0.29384 0.0
C495 C 0.29409 0.68907 0.29843 0.0
C496 C 0.15799 0.60529 0.3098 0.0
C497 C 0.07194 0.55148 0.30615 0.0
C498 C 0.02843 0.57578 0.29413 0.0
C499 C 0.94902 0.52233 0.28954 0.0
C500 C 0.91177 0.44511 0.29736 0.0
C501 C 0.95375 0.42136 0.30988 0.0
C502 C 0.03353 0.47418 0.31426 0.0
C503 C 0.33933 0.80788 0.38055 0.0
C504 C 0.31857 0.75167 0.39613 0.0
C505 C 0.32348 0.78349 0.36046 0.0
C506 C 0.28665 0.70244 0.35549 0.0
C507 C 0.26697 0.64624 0.37094 0.0
C508 C 0.28314 0.67059 0.39104 0.0
C509 C 0.26464 0.6764 0.33429 0.0
C510 C 0.1845 0.62397 0.32978 0.0
C511 C 0.32066 0.70753 0.31843 0.0
C512 C 0.40721 0.75763 0.3223 0.0
C513 C 0.44537 0.73269 0.33605 0.0
C514 C 0.52694 0.77941 0.33944 0.0
C515 C 0.57138 0.85078 0.32896 0.0
C516 C 0.53432 0.87556 0.31507 0.0
C517 C 0.45262 0.82952 0.31179 0.0
H518 H 0.6346 0.88666 0.33151 0.0
H519 H 0.85044 0.40358 0.29371 0.0
H520 H 0.43536 0.54828 0.76933 0.0
H521 H 0.45624 0.50904 0.73621 0.0
H522 H 0.59639 0.41711 0.76256 0.0
H523 H 0.57639 0.45736 0.79612 0.0
H524 H 0.6618 0.50201 0.72729 0.0
H525 H 0.40829 0.28975 0.74904 0.0
H526 H 0.27387 0.23438 0.76322 0.0
H527 H 0.20771 0.33208 0.71386 0.0
H528 H 0.34212 0.38911 0.69954 0.0
H529 H 0.65829 0.31691 0.63435 0.0
H530 H 0.64436 0.33975 0.67002 0.0
H531 H 0.47493 0.41219 0.6543 0.0
H532 H 0.48686 0.38686 0.61879 0.0
H533 H 0.42563 0.32451 0.6861 0.0
H534 H 0.67687 0.54781 0.66609 0.0
H535 H 0.81238 0.61369 0.65215 0.0
H536 H 0.88323 0.50507 0.69778 0.0
H537 H 0.74779 0.43772 0.71184 0.0
C538 C 0.47058 0.51961 0.76822 0.0
C539 C 0.50333 0.50501 0.78548 0.0
C540 C 0.48238 0.49713 0.7492 0.0
C541 C 0.52647 0.45868 0.74696 0.0
C542 C 0.56164 0.44622 0.76401 0.0
C543 C 0.55011 0.46916 0.78316 0.0
C544 C 0.53447 0.43109 0.72673 0.0
C545 C 0.61035 0.46196 0.71839 0.0
C546 C 0.4671 0.38027 0.715 0.0
C547 C 0.38544 0.34398 0.72326 0.0
C548 C 0.36516 0.29965 0.74124 0.0
C549 C 0.28897 0.268 0.74931 0.0
C550 C 0.23231 0.27976 0.73946 0.0
C551 C 0.25165 0.32297 0.72147 0.0
C552 C 0.32779 0.35486 0.71336 0.0
C553 C 0.6183 0.33792 0.63857 0.0
C554 C 0.57403 0.35064 0.62382 0.0
C555 C 0.61047 0.35113 0.65893 0.0
C556 C 0.55956 0.37902 0.66488 0.0
C557 C 0.51454 0.39062 0.65014 0.0
C558 C 0.52144 0.37625 0.62985 0.0
C559 C 0.55313 0.39674 0.68638 0.0
C560 C 0.47734 0.36382 0.69501 0.0
C561 C 0.62058 0.44647 0.69828 0.0
C562 C 0.70202 0.48704 0.68987 0.0
C563 C 0.72121 0.53752 0.67306 0.0
C564 C 0.79801 0.57519 0.66515 0.0
C565 C 0.85631 0.56337 0.67403 0.0
C566 C 0.83797 0.51404 0.69088 0.0
C567 C 0.76123 0.47614 0.69884 0.0
H568 H 0.91574 0.5926 0.66789 0.0
H569 H 0.17342 0.25533 0.74575 0.0
loop_
_geom_bond_atom_site_label_1
_geom_bond_atom_site_label_2
_geom_bond_distance
_geom_bond_site_symmetry_2
_ccdc_geom_bond_type
Dy0 O3 2.307 . S
Dy0 O5 2.395 . S
Dy0 O6 2.379 . S
Dy0 O8 2.339 . S
Dy0 O10 2.298 . S
Dy0 O14 2.275 . S
Dy0 C22 2.738 . S
Dy1 O4 2.298 1_655 S
Dy1 O7 2.275 1_655 S
Dy1 O9 2.307 . S
Dy1 O11 2.395 . S
Dy1 O12 2.379 . S
Dy1 O15 2.339 1_655 S
Dy1 C31 2.738 . S
C2 O14 1.254 . S
C2 O15 1.257 . S
O3 Dy0 2.307 . S
O3 C13 1.266 . S
O4 Dy1 2.298 1_455 S
O4 C13 1.236 . S
O5 Dy0 2.395 . S
O5 C22 1.255 . S
O6 Dy0 2.379 . S
O6 C22 1.249 . S
O7 Dy1 2.275 1_455 S
O7 C23 1.254 . S
O8 Dy0 2.339 . S
O8 C23 1.257 . S
O9 Dy1 2.307 . S
O9 C24 1.266 1_655 S
O10 Dy0 2.298 . S
O10 C24 1.236 . S
O11 Dy1 2.395 . S
O11 C31 1.255 . S
O12 Dy1 2.379 . S
O12 C31 1.249 . S
C13 O3 1.266 . S
C13 O4 1.236 . S
O14 Dy0 2.275 . S
O14 C2 1.254 . S
O15 Dy1 2.339 1_455 S
O15 C2 1.257 . S
C16 C19 1.344 . S
C16 C20 1.328 . S
C16 C22 1.516 . S
C17 C18 1.304 . S
C17 C21 1.323 . S
C18 C17 1.304 . S
C18 C19 1.371 . S
C18 H32 0.930 . S
C19 C16 1.344 . S
C19 C18 1.371 . S
C19 H33 0.931 . S
C20 C16 1.328 . S
C20 C21 1.433 . S
C20 H34 0.931 . S
C21 C17 1.323 . S
C21 C20 1.433 . S
C21 H35 0.933 . S
C22 Dy0 2.738 . S
C22 O5 1.255 . S
C22 O6 1.249 . S
C22 C16 1.516 . S
C23 O7 1.254 . S
C23 O8 1.257 . S
C24 O9 1.266 1_455 S
C24 O10 1.236 . S
C25 C28 1.344 . S
C25 C29 1.328 . S
C25 C31 1.516 . S
C26 C27 1.304 . S
C26 C30 1.323 . S
C27 C26 1.304 . S
C27 C28 1.371 . S
C27 H36 0.930 . S
C28 C25 1.344 . S
C28 C27 1.371 . S
C28 H37 0.931 . S
C29 C25 1.328 . S
C29 C30 1.433 . S
C29 H38 0.931 . S
C30 C26 1.323 . S
C30 C29 1.433 . S
C30 H39 0.933 . S
C31 Dy1 2.738 . S
C31 O11 1.255 . S
C31 O12 1.249 . S
C31 C25 1.516 . S
H32 C18 0.930 . S
H33 C19 0.931 . S
H34 C20 0.931 . S
H35 C21 0.933 . S
H36 C27 0.930 . S
H37 C28 0.931 . S
H38 C29 0.931 . S
H39 C30 0.933 . S
Dy40 O43 2.307 . S
Dy40 O45 2.395 . S
Dy40 O46 2.379 . S
Dy40 O48 2.339 . S
Dy40 O50 2.298 1_565 S
Dy40 O54 2.275 . S
Dy40 C62 2.738 . S
Dy41 O44 2.298 1_545 S
Dy41 O47 2.275 . S
Dy41 O49 2.307 . S
Dy41 O51 2.395 . S
Dy41 O52 2.379 . S
Dy41 O55 2.339 . S
Dy41 C71 2.738 . S
C42 O54 1.254 1_545 S
C42 O55 1.257 . S
O43 Dy40 2.307 . S
O43 C53 1.266 . S
O44 Dy41 2.298 1_565 S
O44 C53 1.236 . S
O45 Dy40 2.395 . S
O45 C62 1.255 . S
O46 Dy40 2.379 . S
O46 C62 1.249 . S
O47 Dy41 2.275 . S
O47 C63 1.254 1_545 S
O48 Dy40 2.339 . S
O48 C63 1.257 . S
O49 Dy41 2.307 . S
O49 C64 1.266 . S
O50 Dy40 2.298 1_545 S
O50 C64 1.236 . S
O51 Dy41 2.395 . S
O51 C71 1.255 . S
O52 Dy41 2.379 . S
O52 C71 1.249 . S
C53 O43 1.266 . S
C53 O44 1.236 . S
O54 Dy40 2.275 . S
O54 C42 1.254 1_565 S
O55 Dy41 2.339 . S
O55 C42 1.257 . S
C56 C59 1.344 . S
C56 C60 1.328 . S
C56 C62 1.516 . S
C57 C58 1.304 . S
C57 C61 1.323 . S
C58 C57 1.304 . S
C58 C59 1.371 . S
C58 H72 0.930 . S
C59 C56 1.344 . S
C59 C58 1.371 . S
C59 H73 0.931 . S
C60 C56 1.328 . S
C60 C61 1.433 . S
C60 H74 0.931 . S
C61 C57 1.323 . S
C61 C60 1.433 . S
C61 H75 0.933 . S
C62 Dy40 2.738 . S
C62 O45 1.255 . S
C62 O46 1.249 . S
C62 C56 1.516 . S
C63 O47 1.254 1_565 S
C63 O48 1.257 . S
C64 O49 1.266 . S
C64 O50 1.236 . S
C65 C68 1.344 . S
C65 C69 1.328 . S
C65 C71 1.516 . S
C66 C67 1.304 . S
C66 C70 1.323 . S
C67 C66 1.304 . S
C67 C68 1.371 . S
C67 H76 0.930 . S
C68 C65 1.344 . S
C68 C67 1.371 . S
C68 H77 0.931 . S
C69 C65 1.328 . S
C69 C70 1.433 . S
C69 H78 0.931 . S
C70 C66 1.323 . S
C70 C69 1.433 . S
C70 H79 0.933 . S
C71 Dy41 2.738 . S
C71 O51 1.255 . S
C71 O52 1.249 . S
C71 C65 1.516 . S
H72 C58 0.930 . S
H73 C59 0.931 . S
H74 C60 0.931 . S
H75 C61 0.933 . S
H76 C67 0.930 . S
H77 C68 0.931 . S
H78 C69 0.931 . S
H79 C70 0.933 . S
Dy80 O83 2.307 . S
Dy80 O85 2.395 . S
Dy80 O86 2.379 . S
Dy80 O88 2.339 . S
Dy80 O90 2.298 . S
Dy80 O94 2.275 . S
Dy80 C102 2.738 . S
Dy81 O84 2.298 . S
Dy81 O87 2.275 . S
Dy81 O89 2.307 . S
Dy81 O91 2.395 . S
Dy81 O92 2.379 . S
Dy81 O95 2.339 . S
Dy81 C111 2.738 . S
C82 O94 1.254 . S
C82 O95 1.257 . S
O83 Dy80 2.307 . S
O83 C93 1.266 . S
O84 Dy81 2.298 . S
O84 C93 1.236 . S
O85 Dy80 2.395 . S
O85 C102 1.255 . S
O86 Dy80 2.379 . S
O86 C102 1.249 . S
O87 Dy81 2.275 . S
O87 C103 1.254 . S
O88 Dy80 2.339 . S
O88 C103 1.257 . S
O89 Dy81 2.307 . S
O89 C104 1.266 . S
O90 Dy80 2.298 . S
O90 C104 1.236 . S
O91 Dy81 2.395 . S
O91 C111 1.255 . S
O92 Dy81 2.379 . S
O92 C111 1.249 . S
C93 O83 1.266 . S
C93 O84 1.236 . S
O94 Dy80 2.275 . S
O94 C82 1.254 . S
O95 Dy81 2.339 . S
O95 C82 1.257 . S
C96 C99 1.344 . S
C96 C100 1.328 . S
C96 C102 1.516 . S
C97 C98 1.304 . S
C97 C101 1.323 . S
C98 C97 1.304 . S
C98 C99 1.371 . S
C98 H112 0.930 . S
C99 C96 1.344 . S
C99 C98 1.371 . S
C99 H113 0.931 . S
C100 C96 1.328 . S
C100 C101 1.433 . S
C100 H114 0.931 . S
C101 C97 1.323 . S
C101 C100 1.433 . S
C101 H115 0.933 . S
C102 Dy80 2.738 . S
C102 O85 1.255 . S
C102 O86 1.249 . S
C102 C96 1.516 . S
C103 O87 1.254 . S
C103 O88 1.257 . S
C104 O89 1.266 . S
C104 O90 1.236 . S
C105 C108 1.344 . S
C105 C109 1.328 . S
C105 C111 1.516 . S
C106 C107 1.304 . S
C106 C110 1.323 . S
C107 C106 1.304 . S
C107 C108 1.371 . S
C107 H116 0.930 . S
C108 C105 1.344 . S
C108 C107 1.371 . S
C108 H117 0.931 . S
C109 C105 1.328 . S
C109 C110 1.433 . S
C109 H118 0.931 . S
C110 C106 1.323 . S
C110 C109 1.433 . S
C110 H119 0.933 . S
C111 Dy81 2.738 . S
C111 O91 1.255 . S
C111 O92 1.249 . S
C111 C105 1.516 . S
H112 C98 0.930 . S
H113 C99 0.931 . S
H114 C100 0.931 . S
H115 C101 0.933 . S
H116 C107 0.930 . S
H117 C108 0.931 . S
H118 C109 0.931 . S
H119 C110 0.933 . S
H120 C138 0.951 . S
H121 C140 0.951 . S
H122 C142 0.950 . S
H123 C143 0.950 . S
H124 C145 0.950 . S
H125 C148 0.950 . S
H126 C149 0.950 . S
H127 C151 0.950 . S
H128 C152 0.950 1_545 S
H129 C153 0.951 . S
H130 C155 0.951 . S
H131 C157 0.950 . S
H132 C158 0.950 . S
H133 C160 0.950 1_655 S
H134 C163 0.950 . S
H135 C164 0.950 . S
H136 C166 0.950 . S
H137 C167 0.950 . S
C138 H120 0.951 . S
C138 C139 1.366 . S
C138 C140 1.388 . S
C139 C138 1.366 . S
C139 C143 1.385 . S
C140 H121 0.951 . S
C140 C138 1.388 . S
C140 C141 1.366 . S
C141 C140 1.366 . S
C141 C142 1.414 . S
C141 C144 1.499 1_565 S
C142 H122 0.950 . S
C142 C141 1.414 . S
C142 C143 1.374 . S
C143 H123 0.950 . S
C143 C139 1.385 . S
C143 C142 1.374 . S
C144 C141 1.499 1_545 S
C144 C145 1.373 . S
C144 C146 1.389 . S
C145 H124 0.950 . S
C145 C144 1.373 . S
C145 C161 1.377 . S
C146 C144 1.389 . S
C146 C147 1.524 1_445 S
C146 C160 1.377 . S
C147 C146 1.524 1_665 S
C147 C148 1.397 . S
C147 C152 1.363 . S
C148 H125 0.950 . S
C148 C147 1.397 . S
C148 C149 1.334 . S
C149 H126 0.950 . S
C149 C148 1.334 . S
C149 C150 1.287 . S
C150 C149 1.287 . S
C150 C151 1.524 . S
C150 H169 0.913 . S
C151 H127 0.950 . S
C151 C150 1.524 . S
C151 C152 1.415 . S
C152 H128 0.950 1_565 S
C152 C147 1.363 . S
C152 C151 1.415 . S
C153 H129 0.951 . S
C153 C154 1.366 . S
C153 C155 1.388 . S
C154 C153 1.366 . S
C154 C158 1.385 . S
C155 H130 0.951 . S
C155 C153 1.388 . S
C155 C156 1.366 . S
C156 C155 1.366 . S
C156 C157 1.414 . S
C156 C159 1.499 . S
C157 H131 0.950 . S
C157 C156 1.414 . S
C157 C158 1.374 . S
C158 H132 0.950 . S
C158 C154 1.385 . S
C158 C157 1.374 . S
C159 C156 1.499 . S
C159 C160 1.373 . S
C159 C161 1.389 . S
C160 H133 0.950 1_455 S
C160 C146 1.377 . S
C160 C159 1.373 . S
C161 C145 1.377 . S
C161 C159 1.389 . S
C161 C162 1.524 . S
C162 C161 1.524 . S
C162 C163 1.397 . S
C162 C167 1.363 . S
C163 H134 0.950 . S
C163 C162 1.397 . S
C163 C164 1.334 . S
C164 H135 0.950 . S
C164 C163 1.334 . S
C164 C165 1.287 . S
C165 C164 1.287 . S
C165 C166 1.524 . S
C165 H168 0.999 . S
C166 H136 0.950 . S
C166 C165 1.524 . S
C166 C167 1.415 . S
C167 H137 0.950 . S
C167 C162 1.363 . S
C167 C166 1.415 . S
H168 C165 0.999 . S
H169 C150 0.913 . S
H170 C188 0.951 . S
H171 C190 0.951 . S
H172 C192 0.950 . S
H173 C193 0.950 . S
H174 C195 0.950 . S
H175 C198 0.950 1_455 S
H176 C199 0.950 1_455 S
H177 C201 0.950 . S
H178 C202 0.950 . S
H179 C203 0.951 . S
H180 C205 0.951 . S
H181 C207 0.950 . S
H182 C208 0.950 . S
H183 C210 0.950 . S
H184 C213 0.950 . S
H185 C214 0.950 . S
H186 C216 0.950 . S
H187 C217 0.950 . S
C188 H170 0.951 . S
C188 C189 1.366 1_565 S
C188 C190 1.388 . S
C189 C188 1.366 1_545 S
C189 C193 1.385 . S
C190 H171 0.951 . S
C190 C188 1.388 . S
C190 C191 1.366 . S
C191 C190 1.366 . S
C191 C192 1.414 1_565 S
C191 C194 1.499 . S
C192 H172 0.950 . S
C192 C191 1.414 1_545 S
C192 C193 1.374 . S
C193 H173 0.950 . S
C193 C189 1.385 . S
C193 C192 1.374 . S
C194 C191 1.499 . S
C194 C195 1.373 1_565 S
C194 C196 1.389 1_455 S
C195 H174 0.950 . S
C195 C194 1.373 1_545 S
C195 C211 1.377 1_455 S
C196 C194 1.389 1_655 S
C196 C197 1.524 . S
C196 C210 1.377 . S
C197 C196 1.524 . S
C197 C198 1.397 . S
C197 C202 1.363 . S
C198 H175 0.950 1_655 S
C198 C197 1.397 . S
C198 C199 1.334 . S
C199 H176 0.950 1_655 S
C199 C198 1.334 . S
C199 C200 1.287 . S
C200 C199 1.287 . S
C200 C201 1.524 . S
C200 H219 0.913 . S
C201 H177 0.950 . S
C201 C200 1.524 . S
C201 C202 1.415 . S
C202 H178 0.950 . S
C202 C197 1.363 . S
C202 C201 1.415 . S
C203 H179 0.951 . S
C203 C204 1.366 1_545 S
C203 C205 1.388 . S
C204 C203 1.366 1_565 S
C204 C208 1.385 . S
C205 H180 0.951 . S
C205 C203 1.388 . S
C205 C206 1.366 . S
C206 C205 1.366 . S
C206 C207 1.414 1_545 S
C206 C209 1.499 . S
C207 H181 0.950 . S
C207 C206 1.414 1_565 S
C207 C208 1.374 . S
C208 H182 0.950 . S
C208 C204 1.385 . S
C208 C207 1.374 . S
C209 C206 1.499 . S
C209 C210 1.373 1_545 S
C209 C211 1.389 . S
C210 H183 0.950 . S
C210 C196 1.377 . S
C210 C209 1.373 1_565 S
C211 C195 1.377 1_655 S
C211 C209 1.389 . S
C211 C212 1.524 . S
C212 C211 1.524 . S
C212 C213 1.397 . S
C212 C217 1.363 1_655 S
C213 H184 0.950 . S
C213 C212 1.397 . S
C213 C214 1.334 . S
C214 H185 0.950 . S
C214 C213 1.334 . S
C214 C215 1.287 . S
C215 C214 1.287 . S
C215 C216 1.524 1_655 S
C215 H218 0.999 . S
C216 H186 0.950 . S
C216 C215 1.524 1_455 S
C216 C217 1.415 . S
C217 H187 0.950 . S
C217 C212 1.363 1_455 S
C217 C216 1.415 . S
H218 C215 0.999 . S
H219 C200 0.913 . S
H220 C238 0.951 . S
H221 C240 0.951 . S
H222 C242 0.950 1_545 S
H223 C243 0.950 . S
H224 C245 0.950 . S
H225 C248 0.950 . S
H226 C249 0.950 . S
H227 C251 0.950 . S
H228 C252 0.950 1_545 S
H229 C253 0.951 . S
H230 C255 0.951 . S
H231 C257 0.950 . S
H232 C258 0.950 . S
H233 C260 0.950 . S
H234 C263 0.950 1_455 S
H235 C264 0.950 1_455 S
H236 C266 0.950 . S
H237 C267 0.950 . S
C238 H220 0.951 . S
C238 C239 1.366 . S
C238 C240 1.388 . S
C239 C238 1.366 . S
C239 C243 1.385 . S
C240 H221 0.951 . S
C240 C238 1.388 . S
C240 C241 1.366 . S
C241 C240 1.366 . S
C241 C242 1.414 . S
C241 C244 1.499 1_565 S
C242 H222 0.950 1_565 S
C242 C241 1.414 . S
C242 C243 1.374 . S
C243 H223 0.950 . S
C243 C239 1.385 . S
C243 C242 1.374 . S
C244 C241 1.499 1_545 S
C244 C245 1.373 . S
C244 C246 1.389 . S
C245 H224 0.950 . S
C245 C244 1.373 . S
C245 C261 1.377 . S
C246 C244 1.389 . S
C246 C247 1.524 1_545 S
C246 C260 1.377 1_655 S
C247 C246 1.524 1_565 S
C247 C248 1.397 . S
C247 C252 1.363 1_655 S
C248 H225 0.950 . S
C248 C247 1.397 . S
C248 C249 1.334 . S
C249 H226 0.950 . S
C249 C248 1.334 . S
C249 C250 1.287 . S
C250 C249 1.287 . S
C250 C251 1.524 1_655 S
C250 H269 0.913 . S
C251 H227 0.950 . S
C251 C250 1.524 1_455 S
C251 C252 1.415 . S
C252 H228 0.950 1_565 S
C252 C247 1.363 1_455 S
C252 C251 1.415 . S
C253 H229 0.951 . S
C253 C254 1.366 . S
C253 C255 1.388 . S
C254 C253 1.366 . S
C254 C258 1.385 . S
C255 H230 0.951 . S
C255 C253 1.388 . S
C255 C256 1.366 . S
C256 C255 1.366 . S
C256 C257 1.414 . S
C256 C259 1.499 . S
C257 H231 0.950 . S
C257 C256 1.414 . S
C257 C258 1.374 . S
C258 H232 0.950 . S
C258 C254 1.385 . S
C258 C257 1.374 . S
C259 C256 1.499 . S
C259 C260 1.373 . S
C259 C261 1.389 1_455 S
C260 H233 0.950 . S
C260 C246 1.377 1_455 S
C260 C259 1.373 . S
C261 C245 1.377 . S
C261 C259 1.389 1_655 S
C261 C262 1.524 . S
C262 C261 1.524 . S
C262 C263 1.397 . S
C262 C267 1.363 . S
C263 H234 0.950 1_655 S
C263 C262 1.397 . S
C263 C264 1.334 . S
C264 H235 0.950 1_655 S
C264 C263 1.334 . S
C264 C265 1.287 . S
C265 C264 1.287 . S
C265 C266 1.524 . S
C265 H268 0.999 . S
C266 H236 0.950 . S
C266 C265 1.524 . S
C266 C267 1.415 . S
C267 H237 0.950 . S
C267 C262 1.363 . S
C267 C266 1.415 . S
H268 C265 0.999 . S
H269 C250 0.913 . S
H270 C288 0.951 . S
H271 C290 0.951 . S
H272 C292 0.950 . S
H273 C293 0.950 . S
H274 C295 0.950 . S
H275 C298 0.950 . S
H276 C299 0.950 . S
H277 C301 0.950 . S
H278 C302 0.950 . S
H279 C303 0.951 . S
H280 C305 0.951 . S
H281 C307 0.950 . S
H282 C308 0.950 . S
H283 C310 0.950 . S
H284 C313 0.950 . S
H285 C314 0.950 . S
H286 C316 0.950 . S
H287 C317 0.950 . S
C288 H270 0.951 . S
C288 C289 1.366 . S
C288 C290 1.388 . S
C289 C288 1.366 . S
C289 C293 1.385 . S
C290 H271 0.951 . S
C290 C288 1.388 . S
C290 C291 1.366 . S
C291 C290 1.366 . S
C291 C292 1.414 . S
C291 C294 1.499 . S
C292 H272 0.950 . S
C292 C291 1.414 . S
C292 C293 1.374 . S
C293 H273 0.950 . S
C293 C289 1.385 . S
C293 C292 1.374 . S
C294 C291 1.499 . S
C294 C295 1.373 . S
C294 C296 1.389 . S
C295 H274 0.950 . S
C295 C294 1.373 . S
C295 C311 1.377 . S
C296 C294 1.389 . S
C296 C297 1.524 . S
C296 C310 1.377 . S
C297 C296 1.524 . S
C297 C298 1.397 . S
C297 C302 1.363 . S
C298 H275 0.950 . S
C298 C297 1.397 . S
C298 C299 1.334 . S
C299 H276 0.950 . S
C299 C298 1.334 . S
C299 C300 1.287 . S
C300 C299 1.287 . S
C300 C301 1.524 . S
C300 H319 0.913 . S
C301 H277 0.950 . S
C301 C300 1.524 . S
C301 C302 1.415 . S
C302 H278 0.950 . S
C302 C297 1.363 . S
C302 C301 1.415 . S
C303 H279 0.951 . S
C303 C304 1.366 . S
C303 C305 1.388 . S
C304 C303 1.366 . S
C304 C308 1.385 . S
C305 H280 0.951 . S
C305 C303 1.388 . S
C305 C306 1.366 . S
C306 C305 1.366 . S
C306 C307 1.414 . S
C306 C309 1.499 1_554 S
C307 H281 0.950 . S
C307 C306 1.414 . S
C307 C308 1.374 . S
C308 H282 0.950 . S
C308 C304 1.385 . S
C308 C307 1.374 . S
C309 C306 1.499 1_556 S
C309 C310 1.373 . S
C309 C311 1.389 . S
C310 H283 0.950 . S
C310 C296 1.377 . S
C310 C309 1.373 . S
C311 C295 1.377 . S
C311 C309 1.389 . S
C311 C312 1.524 . S
C312 C311 1.524 . S
C312 C313 1.397 . S
C312 C317 1.363 . S
C313 H284 0.950 . S
C313 C312 1.397 . S
C313 C314 1.334 1_556 S
C314 H285 0.950 . S
C314 C313 1.334 1_554 S
C314 C315 1.287 1_564 S
C315 C314 1.287 1_546 S
C315 C316 1.524 . S
C315 H318 0.999 . S
C316 H286 0.950 . S
C316 C315 1.524 . S
C316 C317 1.415 1_545 S
C317 H287 0.950 . S
C317 C312 1.363 . S
C317 C316 1.415 1_565 S
H318 C315 0.999 . S
H319 C300 0.913 . S
H320 C338 0.951 . S
H321 C340 0.951 . S
H322 C342 0.950 . S
H323 C343 0.950 . S
H324 C345 0.950 . S
H325 C348 0.950 . S
H326 C349 0.950 . S
H327 C351 0.950 . S
H328 C352 0.950 . S
H329 C353 0.951 . S
H330 C355 0.951 . S
H331 C357 0.950 . S
H332 C358 0.950 . S
H333 C360 0.950 . S
H334 C363 0.950 . S
H335 C364 0.950 . S
H336 C366 0.950 . S
H337 C367 0.950 . S
C338 H320 0.951 . S
C338 C339 1.366 . S
C338 C340 1.388 . S
C339 C338 1.366 . S
C339 C343 1.385 . S
C340 H321 0.951 . S
C340 C338 1.388 . S
C340 C341 1.366 . S
C341 C340 1.366 . S
C341 C342 1.414 . S
C341 C344 1.499 . S
C342 H322 0.950 . S
C342 C341 1.414 . S
C342 C343 1.374 . S
C343 H323 0.950 . S
C343 C339 1.385 . S
C343 C342 1.374 . S
C344 C341 1.499 . S
C344 C345 1.373 . S
C344 C346 1.389 . S
C345 H324 0.950 . S
C345 C344 1.373 . S
C345 C361 1.377 . S
C346 C344 1.389 . S
C346 C347 1.524 . S
C346 C360 1.377 . S
C347 C346 1.524 . S
C347 C348 1.397 . S
C347 C352 1.363 . S
C348 H325 0.950 . S
C348 C347 1.397 . S
C348 C349 1.334 . S
C349 H326 0.950 . S
C349 C348 1.334 . S
C349 C350 1.287 . S
C350 C349 1.287 . S
C350 C351 1.524 . S
C350 H369 0.913 . S
C351 H327 0.950 . S
C351 C350 1.524 . S
C351 C352 1.415 . S
C352 H328 0.950 . S
C352 C347 1.363 . S
C352 C351 1.415 . S
C353 H329 0.951 . S
C353 C354 1.366 . S
C353 C355 1.388 . S
C354 C353 1.366 . S
C354 C358 1.385 . S
C355 H330 0.951 . S
C355 C353 1.388 . S
C355 C356 1.366 . S
C356 C355 1.366 . S
C356 C357 1.414 . S
C356 C359 1.499 . S
C357 H331 0.950 . S
C357 C356 1.414 . S
C357 C358 1.374 . S
C358 H332 0.950 . S
C358 C354 1.385 . S
C358 C357 1.374 . S
C359 C356 1.499 . S
C359 C360 1.373 . S
C359 C361 1.389 . S
C360 H333 0.950 . S
C360 C346 1.377 . S
C360 C359 1.373 . S
C361 C345 1.377 . S
C361 C359 1.389 . S
C361 C362 1.524 . S
C362 C361 1.524 . S
C362 C363 1.397 . S
C362 C367 1.363 . S
C363 H334 0.950 . S
C363 C362 1.397 . S
C363 C364 1.334 . S
C364 H335 0.950 . S
C364 C363 1.334 . S
C364 C365 1.287 . S
C365 C364 1.287 . S
C365 C366 1.524 . S
C365 H368 0.999 . S
C366 H336 0.950 . S
C366 C365 1.524 . S
C366 C367 1.415 . S
C367 H337 0.950 . S
C367 C362 1.363 . S
C367 C366 1.415 . S
H368 C365 0.999 . S
H369 C350 0.913 . S
H370 C388 0.951 . S
H371 C390 0.951 . S
H372 C392 0.950 . S
H373 C393 0.950 . S
H374 C395 0.950 . S
H375 C398 0.950 . S
H376 C399 0.950 . S
H377 C401 0.950 . S
H378 C402 0.950 . S
H379 C403 0.951 . S
H380 C405 0.951 . S
H381 C407 0.950 . S
H382 C408 0.950 . S
H383 C410 0.950 . S
H384 C413 0.950 . S
H385 C414 0.950 . S
H386 C416 0.950 . S
H387 C417 0.950 . S
C388 H370 0.951 . S
C388 C389 1.366 . S
C388 C390 1.388 . S
C389 C388 1.366 . S
C389 C393 1.385 . S
C390 H371 0.951 . S
C390 C388 1.388 . S
C390 C391 1.366 . S
C391 C390 1.366 . S
C391 C392 1.414 . S
C391 C394 1.499 . S
C392 H372 0.950 . S
C392 C391 1.414 . S
C392 C393 1.374 . S
C393 H373 0.950 . S
C393 C389 1.385 . S
C393 C392 1.374 . S
C394 C391 1.499 . S
C394 C395 1.373 . S
C394 C396 1.389 . S
C395 H374 0.950 . S
C395 C394 1.373 . S
C395 C411 1.377 . S
C396 C394 1.389 . S
C396 C397 1.524 . S
C396 C410 1.377 . S
C397 C396 1.524 . S
C397 C398 1.397 . S
C397 C402 1.363 . S
C398 H375 0.950 . S
C398 C397 1.397 . S
C398 C399 1.334 . S
C399 H376 0.950 . S
C399 C398 1.334 . S
C399 C400 1.287 . S
C400 C399 1.287 . S
C400 C401 1.524 . S
C400 H419 0.913 . S
C401 H377 0.950 . S
C401 C400 1.524 . S
C401 C402 1.415 . S
C402 H378 0.950 . S
C402 C397 1.363 . S
C402 C401 1.415 . S
C403 H379 0.951 . S
C403 C404 1.366 . S
C403 C405 1.388 . S
C404 C403 1.366 . S
C404 C408 1.385 . S
C405 H380 0.951 . S
C405 C403 1.388 . S
C405 C406 1.366 . S
C406 C405 1.366 . S
C406 C407 1.414 . S
C406 C409 1.499 . S
C407 H381 0.950 . S
C407 C406 1.414 . S
C407 C408 1.374 . S
C408 H382 0.950 . S
C408 C404 1.385 . S
C408 C407 1.374 . S
C409 C406 1.499 . S
C409 C410 1.373 . S
C409 C411 1.389 . S
C410 H383 0.950 . S
C410 C396 1.377 . S
C410 C409 1.373 . S
C411 C395 1.377 . S
C411 C409 1.389 . S
C411 C412 1.524 . S
C412 C411 1.524 . S
C412 C413 1.397 . S
C412 C417 1.363 1_565 S
C413 H384 0.950 . S
C413 C412 1.397 . S
C413 C414 1.334 1_565 S
C414 H385 0.950 . S
C414 C413 1.334 1_545 S
C414 C415 1.287 . S
C415 C414 1.287 . S
C415 C416 1.524 . S
C415 H418 0.999 . S
C416 H386 0.950 . S
C416 C415 1.524 . S
C416 C417 1.415 . S
C417 H387 0.950 . S
C417 C412 1.363 1_545 S
C417 C416 1.415 . S
H418 C415 0.999 . S
H419 C400 0.913 . S
H420 C438 0.951 . S
H421 C440 0.951 . S
H422 C442 0.950 1_554 S
H423 C443 0.950 . S
H424 C445 0.950 . S
H425 C448 0.949 . S
H426 C449 0.950 . S
H427 C451 0.950 . S
H428 C452 0.950 . S
H429 C453 0.951 . S
H430 C455 0.951 . S
H431 C457 0.950 1_455 S
H432 C458 0.950 . S
H433 C460 0.950 . S
H434 C463 0.950 . S
H435 C464 0.950 . S
H436 C466 0.950 . S
H437 C467 0.950 . S
C438 H420 0.951 . S
C438 C439 1.366 . S
C438 C440 1.388 . S
C439 C438 1.366 . S
C439 C443 1.385 . S
C440 H421 0.951 . S
C440 C438 1.388 . S
C440 C441 1.370 1_556 S
C441 C440 1.370 1_554 S
C441 C442 1.414 1_554 S
C441 C444 1.494 . S
C442 H422 0.950 1_556 S
C442 C441 1.414 1_556 S
C442 C443 1.374 . S
C443 H423 0.950 . S
C443 C439 1.385 . S
C443 C442 1.374 . S
C444 C441 1.494 . S
C444 C445 1.373 . S
C444 C446 1.389 . S
C445 H424 0.950 . S
C445 C444 1.373 . S
C445 C461 1.377 . S
C446 C444 1.389 . S
C446 C447 1.524 . S
C446 C460 1.377 . S
C447 C446 1.524 . S
C447 C448 1.397 . S
C447 C452 1.363 . S
C448 H425 0.949 . S
C448 C447 1.397 . S
C448 C449 1.334 1_554 S
C449 H426 0.950 . S
C449 C448 1.334 1_556 S
C449 C450 1.287 . S
C450 C449 1.287 . S
C450 C451 1.524 . S
C450 H469 0.913 . S
C451 H427 0.950 . S
C451 C450 1.524 . S
C451 C452 1.415 1_556 S
C452 H428 0.950 . S
C452 C447 1.363 . S
C452 C451 1.415 1_554 S
C453 H429 0.951 . S
C453 C454 1.366 . S
C453 C455 1.388 . S
C454 C453 1.366 . S
C454 C458 1.385 1_655 S
C455 H430 0.951 . S
C455 C453 1.388 . S
C455 C456 1.366 . S
C456 C455 1.366 . S
C456 C457 1.414 . S
C456 C459 1.499 . S
C457 H431 0.950 1_655 S
C457 C456 1.414 . S
C457 C458 1.374 1_655 S
C458 H432 0.950 . S
C458 C454 1.385 1_455 S
C458 C457 1.374 1_455 S
C459 C456 1.499 . S
C459 C460 1.373 . S
C459 C461 1.389 . S
C460 H433 0.950 . S
C460 C446 1.377 . S
C460 C459 1.373 . S
C461 C445 1.377 . S
C461 C459 1.389 . S
C461 C462 1.524 . S
C462 C461 1.524 . S
C462 C463 1.397 . S
C462 C467 1.363 . S
C463 H434 0.950 . S
C463 C462 1.397 . S
C463 C464 1.334 . S
C464 H435 0.950 . S
C464 C463 1.334 . S
C464 C465 1.287 . S
C465 C464 1.287 . S
C465 C466 1.524 . S
C465 H468 0.999 . S
C466 H436 0.950 . S
C466 C465 1.524 . S
C466 C467 1.415 . S
C467 H437 0.950 . S
C467 C462 1.363 . S
C467 C466 1.415 . S
H468 C465 0.999 . S
H469 C450 0.913 . S
H470 C488 0.951 . S
H471 C490 0.951 . S
H472 C492 0.950 . S
H473 C493 0.950 . S
H474 C495 0.950 . S
H475 C498 0.950 . S
H476 C499 0.950 . S
H477 C501 0.950 1_655 S
H478 C502 0.950 . S
H479 C503 0.951 . S
H480 C505 0.951 . S
H481 C507 0.950 . S
H482 C508 0.950 . S
H483 C510 0.950 . S
H484 C513 0.950 . S
H485 C514 0.950 . S
H486 C516 0.950 1_545 S
H487 C517 0.950 . S
C488 H470 0.951 . S
C488 C489 1.366 . S
C488 C490 1.388 . S
C489 C488 1.366 . S
C489 C493 1.385 . S
C490 H471 0.951 . S
C490 C488 1.388 . S
C490 C491 1.366 . S
C491 C490 1.366 . S
C491 C492 1.414 . S
C491 C494 1.499 . S
C492 H472 0.950 . S
C492 C491 1.414 . S
C492 C493 1.374 . S
C493 H473 0.950 . S
C493 C489 1.385 . S
C493 C492 1.374 . S
C494 C491 1.499 . S
C494 C495 1.373 . S
C494 C496 1.389 . S
C495 H474 0.950 . S
C495 C494 1.373 . S
C495 C511 1.377 . S
C496 C494 1.389 . S
C496 C497 1.524 . S
C496 C510 1.377 . S
C497 C496 1.524 . S
C497 C498 1.397 . S
C497 C502 1.363 . S
C498 H475 0.950 . S
C498 C497 1.397 . S
C498 C499 1.334 1_455 S
C499 H476 0.950 . S
C499 C498 1.334 1_655 S
C499 C500 1.287 . S
C500 C499 1.287 . S
C500 C501 1.524 1_655 S
C500 H519 0.913 . S
C501 H477 0.950 1_455 S
C501 C500 1.524 1_455 S
C501 C502 1.415 . S
C502 H478 0.950 . S
C502 C497 1.363 . S
C502 C501 1.415 . S
C503 H479 0.951 . S
C503 C504 1.366 . S
C503 C505 1.388 . S
C504 C503 1.366 . S
C504 C508 1.385 . S
C505 H480 0.951 . S
C505 C503 1.388 . S
C505 C506 1.366 . S
C506 C505 1.366 . S
C506 C507 1.414 . S
C506 C509 1.499 . S
C507 H481 0.950 . S
C507 C506 1.414 . S
C507 C508 1.374 . S
C508 H482 0.950 . S
C508 C504 1.385 . S
C508 C507 1.374 . S
C509 C506 1.499 . S
C509 C510 1.373 . S
C509 C511 1.389 . S
C510 H483 0.950 . S
C510 C496 1.377 . S
C510 C509 1.373 . S
C511 C495 1.377 . S
C511 C509 1.389 . S
C511 C512 1.524 . S
C512 C511 1.524 . S
C512 C513 1.397 . S
C512 C517 1.363 . S
C513 H484 0.950 . S
C513 C512 1.397 . S
C513 C514 1.334 . S
C514 H485 0.950 . S
C514 C513 1.334 . S
C514 C515 1.287 . S
C515 C514 1.287 . S
C515 C516 1.524 . S
C515 H518 0.999 . S
C516 H486 0.950 1_565 S
C516 C515 1.524 . S
C516 C517 1.415 . S
C517 H487 0.950 . S
C517 C512 1.363 . S
C517 C516 1.415 . S
H518 C515 0.999 . S
H519 C500 0.913 . S
H520 C538 0.951 . S
H521 C540 0.951 . S
H522 C542 0.950 . S
H523 C543 0.950 . S
H524 C545 0.950 . S
H525 C548 0.950 . S
H526 C549 0.950 . S
H527 C551 0.950 . S
H528 C552 0.950 . S
H529 C553 0.951 . S
H530 C555 0.951 . S
H531 C557 0.950 . S
H532 C558 0.950 . S
H533 C560 0.950 . S
H534 C563 0.950 . S
H535 C564 0.950 . S
H536 C566 0.950 . S
H537 C567 0.950 . S
C538 H520 0.951 . S
C538 C539 1.366 . S
C538 C540 1.388 . S
C539 C538 1.366 . S
C539 C543 1.385 . S
C540 H521 0.951 . S
C540 C538 1.388 . S
C540 C541 1.366 . S
C541 C540 1.366 . S
C541 C542 1.414 . S
C541 C544 1.499 . S
C542 H522 0.950 . S
C542 C541 1.414 . S
C542 C543 1.374 . S
C543 H523 0.950 . S
C543 C539 1.385 . S
C543 C542 1.374 . S
C544 C541 1.499 . S
C544 C545 1.373 . S
C544 C546 1.389 . S
C545 H524 0.950 . S
C545 C544 1.373 . S
C545 C561 1.377 . S
C546 C544 1.389 . S
C546 C547 1.524 . S
C546 C560 1.377 . S
C547 C546 1.524 . S
C547 C548 1.397 . S
C547 C552 1.363 . S
C548 H525 0.950 . S
C548 C547 1.397 . S
C548 C549 1.334 . S
C549 H526 0.950 . S
C549 C548 1.334 . S
C549 C550 1.287 . S
C550 C549 1.287 . S
C550 C551 1.524 . S
C550 H569 0.913 . S
C551 H527 0.950 . S
C551 C550 1.524 . S
C551 C552 1.415 . S
C552 H528 0.950 . S
C552 C547 1.363 . S
C552 C551 1.415 . S
C553 H529 0.951 . S
C553 C554 1.366 . S
C553 C555 1.388 . S
C554 C553 1.366 . S
C554 C558 1.385 . S
C555 H530 0.951 . S
C555 C553 1.388 . S
C555 C556 1.366 . S
C556 C555 1.366 . S
C556 C557 1.414 . S
C556 C559 1.499 . S
C557 H531 0.950 . S
C557 C556 1.414 . S
C557 C558 1.374 . S
C558 H532 0.950 . S
C558 C554 1.385 . S
C558 C557 1.374 . S
C559 C556 1.499 . S
C559 C560 1.373 . S
C559 C561 1.389 . S
C560 H533 0.950 . S
C560 C546 1.377 . S
C560 C559 1.373 . S
C561 C545 1.377 . S
C561 C559 1.389 . S
C561 C562 1.524 . S
C562 C561 1.524 . S
C562 C563 1.397 . S
C562 C567 1.363 . S
C563 H534 0.950 . S
C563 C562 1.397 . S
C563 C564 1.334 . S
C564 H535 0.950 . S
C564 C563 1.334 . S
C564 C565 1.287 . S
C565 C564 1.287 . S
C565 C566 1.524 . S
C565 H568 0.999 . S
C566 H536 0.950 . S
C566 C565 1.524 . S
C566 C567 1.415 . S
C567 H537 0.950 . S
C567 C562 1.363 . S
C567 C566 1.415 . S
H568 C565 0.999 . S
H569 C550 0.913 . S
C139 C2 1.392 . S
C154 C23 1.392 . S
C189 C63 1.392 1_545 S
C204 C42 1.392 1_565 S
C239 C103 1.390 . S
C254 C82 1.390 . S
C289 C93 0.968 . S
C304 C17 0.947 . S
C339 C64 1.514 . S
C354 C26 1.493 . S
C389 C97 0.948 . S
C404 C53 0.968 . S
C439 C106 1.492 . S
C454 C24 1.515 1_655 S
C489 C13 0.968 . S
C504 C57 0.948 . S
C539 C104 1.515 . S
C554 C66 1.492 . S
