# Generated by pormake.
# Topology mer, (4)-cn, num edge types: 1
# Building blocks:
#     Node 0, Type 0, BuildingBlock: UXUYUI_clean_sbu_0, # of connection points: 4
#     Node 1, Type 0, BuildingBlock: UXUYUI_clean_sbu_0, # of connection points: 4
#     Node 2, Type 0, BuildingBlock: UXUYUI_clean_sbu_0, # of connection points: 4
#     Node 3, Type 0, BuildingBlock: UXUYUI_clean_sbu_0, # of connection points: 4
#     Node 4, Type 0, BuildingBlock: UXUYUI_clean_sbu_0, # of connection points: 4
#     Node 5, Type 0, BuildingBlock: UXUYUI_clean_sbu_0, # of connection points: 4
#     Node 6, Type 0, BuildingBlock: UXUYUI_clean_sbu_0, # of connection points: 4
#     Node 7, Type 0, BuildingBlock: UXUYUI_clean_sbu_0, # of connection points: 4
#     Node 8, Type 0, BuildingBlock: UXUYUI_clean_sbu_0, # of connection points: 4
#     Node 9, Type 0, BuildingBlock: UXUYUI_clean_sbu_0, # of connection points: 4
#     Node 10, Type 0, BuildingBlock: UXUYUI_clean_sbu_0, # of connection points: 4
#     Node 11, Type 0, BuildingBlock: UXUYUI_clean_sbu_0, # of connection points: 4
#     Node 12, Type 0, BuildingBlock: UXUYUI_clean_sbu_0, # of connection points: 4
#     Node 13, Type 0, BuildingBlock: UXUYUI_clean_sbu_0, # of connection points: 4
#     Node 14, Type 0, BuildingBlock: UXUYUI_clean_sbu_0, # of connection points: 4
#     Node 15, Type 0, BuildingBlock: UXUYUI_clean_sbu_0, # of connection points: 4
#     Node 16, Type 0, BuildingBlock: UXUYUI_clean_sbu_0, # of connection points: 4
#     Node 17, Type 0, BuildingBlock: UXUYUI_clean_sbu_0, # of connection points: 4
#     Node 18, Type 0, BuildingBlock: UXUYUI_clean_sbu_0, # of connection points: 4
#     Node 19, Type 0, BuildingBlock: UXUYUI_clean_sbu_0, # of connection points: 4
#     Node 20, Type 0, BuildingBlock: UXUYUI_clean_sbu_0, # of connection points: 4
#     Node 21, Type 0, BuildingBlock: UXUYUI_clean_sbu_0, # of connection points: 4
#     Node 22, Type 0, BuildingBlock: UXUYUI_clean_sbu_0, # of connection points: 4
#     Node 23, Type 0, BuildingBlock: UXUYUI_clean_sbu_0, # of connection points: 4
#     Node 24, Type 0, BuildingBlock: UXUYUI_clean_sbu_0, # of connection points: 4
#     Node 25, Type 0, BuildingBlock: UXUYUI_clean_sbu_0, # of connection points: 4
#     Node 26, Type 0, BuildingBlock: UXUYUI_clean_sbu_0, # of connection points: 4
#     Node 27, Type 0, BuildingBlock: UXUYUI_clean_sbu_0, # of connection points: 4
#     Node 28, Type 0, BuildingBlock: UXUYUI_clean_sbu_0, # of connection points: 4
#     Node 29, Type 0, BuildingBlock: UXUYUI_clean_sbu_0, # of connection points: 4
#     Node 30, Type 0, BuildingBlock: UXUYUI_clean_sbu_0, # of connection points: 4
#     Node 31, Type 0, BuildingBlock: UXUYUI_clean_sbu_0, # of connection points: 4
#     Edge 32, Type (0, 0), BuildingBlock: XIVTED_clean_linker_0, # of connection points: 2
#     Edge 33, Type (0, 0), BuildingBlock: XIVTED_clean_linker_0, # of connection points: 2
#     Edge 34, Type (0, 0), BuildingBlock: XIVTED_clean_linker_0, # of connection points: 2
#     Edge 35, Type (0, 0), BuildingBlock: XIVTED_clean_linker_0, # of connection points: 2
#     Edge 36, Type (0, 0), BuildingBlock: XIVTED_clean_linker_0, # of connection points: 2
#     Edge 37, Type (0, 0), BuildingBlock: XIVTED_clean_linker_0, # of connection points: 2
#     Edge 38, Type (0, 0), BuildingBlock: XIVTED_clean_linker_0, # of connection points: 2
#     Edge 39, Type (0, 0), BuildingBlock: XIVTED_clean_linker_0, # of connection points: 2
#     Edge 40, Type (0, 0), BuildingBlock: XIVTED_clean_linker_0, # of connection points: 2
#     Edge 41, Type (0, 0), BuildingBlock: XIVTED_clean_linker_0, # of connection points: 2
#     Edge 42, Type (0, 0), BuildingBlock: XIVTED_clean_linker_0, # of connection points: 2
#     Edge 43, Type (0, 0), BuildingBlock: XIVTED_clean_linker_0, # of connection points: 2
#     Edge 44, Type (0, 0), BuildingBlock: XIVTED_clean_linker_0, # of connection points: 2
#     Edge 45, Type (0, 0), BuildingBlock: XIVTED_clean_linker_0, # of connection points: 2
#     Edge 46, Type (0, 0), BuildingBlock: XIVTED_clean_linker_0, # of connection points: 2
#     Edge 47, Type (0, 0), BuildingBlock: XIVTED_clean_linker_0, # of connection points: 2
#     Edge 48, Type (0, 0), BuildingBlock: XIVTED_clean_linker_0, # of connection points: 2
#     Edge 49, Type (0, 0), BuildingBlock: XIVTED_clean_linker_0, # of connection points: 2
#     Edge 50, Type (0, 0), BuildingBlock: XIVTED_clean_linker_0, # of connection points: 2
#     Edge 51, Type (0, 0), BuildingBlock: XIVTED_clean_linker_0, # of connection points: 2
#     Edge 52, Type (0, 0), BuildingBlock: XIVTED_clean_linker_0, # of connection points: 2
#     Edge 53, Type (0, 0), BuildingBlock: XIVTED_clean_linker_0, # of connection points: 2
#     Edge 54, Type (0, 0), BuildingBlock: XIVTED_clean_linker_0, # of connection points: 2
#     Edge 55, Type (0, 0), BuildingBlock: XIVTED_clean_linker_0, # of connection points: 2
#     Edge 56, Type (0, 0), BuildingBlock: XIVTED_clean_linker_0, # of connection points: 2
#     Edge 57, Type (0, 0), BuildingBlock: XIVTED_clean_linker_0, # of connection points: 2
#     Edge 58, Type (0, 0), BuildingBlock: XIVTED_clean_linker_0, # of connection points: 2
#     Edge 59, Type (0, 0), BuildingBlock: XIVTED_clean_linker_0, # of connection points: 2
#     Edge 60, Type (0, 0), BuildingBlock: XIVTED_clean_linker_0, # of connection points: 2
#     Edge 61, Type (0, 0), BuildingBlock: XIVTED_clean_linker_0, # of connection points: 2
#     Edge 62, Type (0, 0), BuildingBlock: XIVTED_clean_linker_0, # of connection points: 2
#     Edge 63, Type (0, 0), BuildingBlock: XIVTED_clean_linker_0, # of connection points: 2
#     Edge 64, Type (0, 0), BuildingBlock: XIVTED_clean_linker_0, # of connection points: 2
#     Edge 65, Type (0, 0), BuildingBlock: XIVTED_clean_linker_0, # of connection points: 2
#     Edge 66, Type (0, 0), BuildingBlock: XIVTED_clean_linker_0, # of connection points: 2
#     Edge 67, Type (0, 0), BuildingBlock: XIVTED_clean_linker_0, # of connection points: 2
#     Edge 68, Type (0, 0), BuildingBlock: XIVTED_clean_linker_0, # of connection points: 2
#     Edge 69, Type (0, 0), BuildingBlock: XIVTED_clean_linker_0, # of connection points: 2
#     Edge 70, Type (0, 0), BuildingBlock: XIVTED_clean_linker_0, # of connection points: 2
#     Edge 71, Type (0, 0), BuildingBlock: XIVTED_clean_linker_0, # of connection points: 2
#     Edge 72, Type (0, 0), BuildingBlock: XIVTED_clean_linker_0, # of connection points: 2
#     Edge 73, Type (0, 0), BuildingBlock: XIVTED_clean_linker_0, # of connection points: 2
#     Edge 74, Type (0, 0), BuildingBlock: XIVTED_clean_linker_0, # of connection points: 2
#     Edge 75, Type (0, 0), BuildingBlock: XIVTED_clean_linker_0, # of connection points: 2
#     Edge 76, Type (0, 0), BuildingBlock: XIVTED_clean_linker_0, # of connection points: 2
#     Edge 77, Type (0, 0), BuildingBlock: XIVTED_clean_linker_0, # of connection points: 2
#     Edge 78, Type (0, 0), BuildingBlock: XIVTED_clean_linker_0, # of connection points: 2
#     Edge 79, Type (0, 0), BuildingBlock: XIVTED_clean_linker_0, # of connection points: 2
#     Edge 80, Type (0, 0), BuildingBlock: XIVTED_clean_linker_0, # of connection points: 2
#     Edge 81, Type (0, 0), BuildingBlock: XIVTED_clean_linker_0, # of connection points: 2
#     Edge 82, Type (0, 0), BuildingBlock: XIVTED_clean_linker_0, # of connection points: 2
#     Edge 83, Type (0, 0), BuildingBlock: XIVTED_clean_linker_0, # of connection points: 2
#     Edge 84, Type (0, 0), BuildingBlock: XIVTED_clean_linker_0, # of connection points: 2
#     Edge 85, Type (0, 0), BuildingBlock: XIVTED_clean_linker_0, # of connection points: 2
#     Edge 86, Type (0, 0), BuildingBlock: XIVTED_clean_linker_0, # of connection points: 2
#     Edge 87, Type (0, 0), BuildingBlock: XIVTED_clean_linker_0, # of connection points: 2
#     Edge 88, Type (0, 0), BuildingBlock: XIVTED_clean_linker_0, # of connection points: 2
#     Edge 89, Type (0, 0), BuildingBlock: XIVTED_clean_linker_0, # of connection points: 2
#     Edge 90, Type (0, 0), BuildingBlock: XIVTED_clean_linker_0, # of connection points: 2
#     Edge 91, Type (0, 0), BuildingBlock: XIVTED_clean_linker_0, # of connection points: 2
#     Edge 92, Type (0, 0), BuildingBlock: XIVTED_clean_linker_0, # of connection points: 2
#     Edge 93, Type (0, 0), BuildingBlock: XIVTED_clean_linker_0, # of connection points: 2
#     Edge 94, Type (0, 0), BuildingBlock: XIVTED_clean_linker_0, # of connection points: 2
#     Edge 95, Type (0, 0), BuildingBlock: XIVTED_clean_linker_0, # of connection points: 2
# Relax obj value: 0.250
# Max RMSD: 0.189
# Mean RMSD: 0.188
data_MOF--net-mer--node1-UXUYUI_clean_sbu_0--edge1-XIVTED_clean_linker_0
_symmetry_space_group_name_H-M    P1
_symmetry_Int_Tables_number       1
_symmetry_cell_setting            triclinic
loop_
_symmetry_equiv_pos_as_xyz
'x, y, z'
_cell_length_a     100.41706
_cell_length_b     100.41285
_cell_length_c     64.102663
_cell_angle_alpha  89.983814
_cell_angle_beta   90.000485
_cell_angle_gamma 90.009244
loop_
_atom_site_label
_atom_site_type_symbol
_atom_site_fract_x
_atom_site_fract_y
_atom_site_fract_z
_atom_type_partial_charge
Li0 Li 0.09948 0.25556 0.34659 0.0
Li1 Li 0.10707 0.24079 0.31869 0.0
Li2 Li 0.10725 0.26529 0.31333 0.0
Li3 Li 0.08671 0.25254 0.31291 0.0
C4 C 0.12756 0.26022 0.34487 0.0
N5 N 0.14808 0.27194 0.36696 0.0
C6 C 0.13856 0.25265 0.35105 0.0
C7 C 0.12708 0.27377 0.34971 0.0
C8 C 0.1488 0.25875 0.36228 0.0
C9 C 0.13753 0.27951 0.36092 0.0
C10 C 0.09022 0.22612 0.33986 0.0
C11 C 0.08673 0.20336 0.32916 0.0
N12 N 0.09052 0.19916 0.34844 0.0
C13 C 0.09397 0.22159 0.35962 0.0
C14 C 0.08645 0.21695 0.32455 0.0
C15 C 0.0941 0.20791 0.36363 0.0
C16 C 0.08783 0.26321 0.3852 0.0
N17 N 0.09862 0.25752 0.376 0.0
C18 C 0.10862 0.25347 0.40918 0.0
C19 C 0.10886 0.2526 0.3875 0.0
C20 C 0.09762 0.25927 0.41924 0.0
C21 C 0.08713 0.26423 0.40693 0.0
H22 H 0.07972 0.26684 0.37566 0.0
H23 H 0.11714 0.24779 0.37986 0.0
C24 C 0.11776 0.21934 0.29506 0.0
N25 N 0.11669 0.22487 0.31433 0.0
C26 C 0.12516 0.20771 0.29225 0.0
C27 C 0.1301 0.20772 0.32919 0.0
C28 C 0.12266 0.21935 0.33125 0.0
C29 C 0.13148 0.20179 0.30946 0.0
H30 H 0.11299 0.22403 0.28186 0.0
H31 H 0.12171 0.22407 0.34634 0.0
C32 C 0.08709 0.28218 0.33172 0.0
N33 N 0.07982 0.30845 0.33785 0.0
C34 C 0.07816 0.28837 0.31807 0.0
C35 C 0.09211 0.28931 0.34873 0.0
C36 C 0.07467 0.30167 0.32136 0.0
C37 C 0.08837 0.30259 0.3515 0.0
C38 C 0.09674 0.25069 0.27404 0.0
C39 C 0.09782 0.26178 0.26095 0.0
C40 C 0.09013 0.2393 0.26699 0.0
C41 C 0.0921 0.26133 0.24109 0.0
C42 C 0.08452 0.23925 0.24704 0.0
N43 N 0.08561 0.25018 0.23462 0.0
C44 C 0.13018 0.27614 0.29704 0.0
C45 C 0.11206 0.29124 0.29567 0.0
C46 C 0.13854 0.28544 0.28767 0.0
N47 N 0.11725 0.27921 0.30101 0.0
C48 C 0.12006 0.30084 0.28613 0.0
C49 C 0.13351 0.29798 0.2821 0.0
H50 H 0.13396 0.26638 0.30106 0.0
H51 H 0.1017 0.29336 0.29852 0.0
C52 C 0.06093 0.24239 0.30991 0.0
N53 N 0.06941 0.25134 0.30122 0.0
C54 C 0.04804 0.241 0.30221 0.0
C55 C 0.05283 0.25804 0.27663 0.0
C56 C 0.06563 0.25915 0.28492 0.0
C57 C 0.04382 0.24891 0.28536 0.0
H58 H 0.06412 0.23646 0.32305 0.0
H59 H 0.07252 0.26627 0.27839 0.0
O60 O 0.11743 0.25436 0.3339 0.0
O61 O 0.0903 0.23946 0.33548 0.0
O62 O 0.09046 0.26909 0.32887 0.0
O63 O 0.10226 0.25096 0.29354 0.0
H64 H 0.13916 0.24217 0.34728 0.0
H65 H 0.11885 0.27984 0.34458 0.0
H66 H 0.15734 0.253 0.36726 0.0
H67 H 0.13728 0.29 0.36476 0.0
H68 H 0.08394 0.19615 0.31741 0.0
H69 H 0.09685 0.22854 0.37167 0.0
H70 H 0.08345 0.2203 0.30922 0.0
H71 H 0.09706 0.20426 0.37881 0.0
H72 H 0.11701 0.24965 0.41794 0.0
H73 H 0.07836 0.26859 0.414 0.0
H74 H 0.12595 0.20342 0.2768 0.0
H75 H 0.13501 0.20364 0.3428 0.0
H76 H 0.07405 0.283 0.30498 0.0
H77 H 0.09871 0.28463 0.35984 0.0
H78 H 0.06785 0.30659 0.31081 0.0
H79 H 0.09222 0.30822 0.36456 0.0
H80 H 0.10295 0.27065 0.26608 0.0
H81 H 0.08922 0.23062 0.27687 0.0
H82 H 0.0928 0.26986 0.23084 0.0
H83 H 0.0793 0.23054 0.24145 0.0
H84 H 0.14878 0.28273 0.28446 0.0
H85 H 0.11582 0.31042 0.28209 0.0
H86 H 0.04135 0.23407 0.30979 0.0
H87 H 0.05002 0.26429 0.26358 0.0
Li88 Li 0.74926 0.10921 0.32244 0.0
Li89 Li 0.73621 0.09867 0.35029 0.0
Li90 Li 0.73959 0.08769 0.31694 0.0
Li91 Li 0.72569 0.10657 0.31912 0.0
C92 C 0.76328 0.09407 0.35216 0.0
N93 N 0.78325 0.09737 0.38137 0.0
C94 C 0.7648 0.10626 0.36244 0.0
C95 C 0.77193 0.08357 0.35673 0.0
C96 C 0.77495 0.10772 0.37715 0.0
C97 C 0.78197 0.08543 0.37154 0.0
C98 C 0.72575 0.12589 0.34695 0.0
C99 C 0.70452 0.12991 0.36342 0.0
N100 N 0.70569 0.1431 0.35896 0.0
C101 C 0.72676 0.13949 0.34259 0.0
C102 C 0.71456 0.12105 0.35748 0.0
C103 C 0.71651 0.14803 0.34878 0.0
C104 C 0.76131 0.13317 0.31083 0.0
N105 N 0.76394 0.12033 0.31601 0.0
C106 C 0.78731 0.12402 0.3125 0.0
C107 C 0.7766 0.11556 0.31646 0.0
C108 C 0.78494 0.1375 0.30794 0.0
C109 C 0.77171 0.14201 0.30681 0.0
H110 H 0.75112 0.13657 0.31002 0.0
H111 H 0.77842 0.1052 0.32003 0.0
C112 C 0.73378 0.08424 0.38824 0.0
N113 N 0.73528 0.09653 0.37968 0.0
C114 C 0.73405 0.08266 0.40993 0.0
C115 C 0.7372 0.10643 0.41338 0.0
C116 C 0.73693 0.10753 0.39174 0.0
C117 C 0.73592 0.09385 0.42279 0.0
H118 H 0.73265 0.07565 0.37821 0.0
H119 H 0.73828 0.11716 0.38454 0.0
C120 C 0.74808 0.10138 0.28159 0.0
N121 N 0.76579 0.09802 0.24902 0.0
C122 C 0.74522 0.10667 0.26193 0.0
C123 C 0.75995 0.09439 0.28469 0.0
C124 C 0.7543 0.10486 0.24566 0.0
C125 C 0.76878 0.09279 0.26803 0.0
C126 C 0.71308 0.08174 0.32384 0.0
C127 C 0.71072 0.083 0.30243 0.0
C128 C 0.70564 0.07265 0.33552 0.0
C129 C 0.70092 0.07514 0.29308 0.0
C130 C 0.69592 0.06497 0.32559 0.0
N131 N 0.69379 0.06636 0.30475 0.0
C132 C 0.74765 0.06116 0.31593 0.0
C133 C 0.73821 0.06873 0.28413 0.0
C134 C 0.74939 0.04846 0.30765 0.0
N135 N 0.74208 0.07093 0.30417 0.0
C136 C 0.73968 0.05613 0.27526 0.0
C137 C 0.74525 0.0458 0.28713 0.0
H138 H 0.75053 0.06322 0.33186 0.0
H139 H 0.73385 0.0767 0.2751 0.0
C140 C 0.71373 0.12629 0.29619 0.0
N141 N 0.71066 0.11566 0.30837 0.0
C142 C 0.70366 0.13432 0.28816 0.0
C143 C 0.6874 0.12006 0.30483 0.0
C144 C 0.69782 0.11246 0.31297 0.0
C145 C 0.69034 0.13119 0.29245 0.0
H146 H 0.72405 0.12864 0.29306 0.0
H147 H 0.69568 0.10414 0.32314 0.0
O148 O 0.75333 0.09229 0.33783 0.0
O149 O 0.73545 0.11726 0.34041 0.0
O150 O 0.73925 0.10317 0.29761 0.0
O151 O 0.72273 0.08918 0.33339 0.0
H152 H 0.75826 0.11453 0.3591 0.0
H153 H 0.77089 0.07407 0.34892 0.0
H154 H 0.77623 0.1171 0.38522 0.0
H155 H 0.78873 0.07739 0.37523 0.0
H156 H 0.69578 0.12628 0.37146 0.0
H157 H 0.73533 0.14344 0.3345 0.0
H158 H 0.71352 0.11053 0.36075 0.0
H159 H 0.71714 0.15857 0.34546 0.0
H160 H 0.79734 0.12006 0.31309 0.0
H161 H 0.76942 0.15232 0.30344 0.0
H162 H 0.73316 0.07276 0.41649 0.0
H163 H 0.73843 0.11536 0.42263 0.0
H164 H 0.73607 0.11212 0.25929 0.0
H165 H 0.76236 0.0902 0.29976 0.0
H166 H 0.75221 0.1089 0.23036 0.0
H167 H 0.778 0.0874 0.27022 0.0
H168 H 0.71636 0.08999 0.29312 0.0
H169 H 0.70739 0.07153 0.3521 0.0
H170 H 0.69899 0.07602 0.27653 0.0
H171 H 0.69009 0.05789 0.33444 0.0
H172 H 0.75351 0.04069 0.31743 0.0
H173 H 0.73642 0.05448 0.25936 0.0
H174 H 0.70624 0.14284 0.2786 0.0
H175 H 0.67719 0.11749 0.30855 0.0
Li176 Li 0.88719 0.75501 0.32606 0.0
Li177 Li 0.89661 0.73923 0.35138 0.0
Li178 Li 0.90697 0.74314 0.31651 0.0
Li179 Li 0.88664 0.73034 0.31889 0.0
C180 C 0.90674 0.76866 0.34591 0.0
N181 N 0.9101 0.79493 0.35763 0.0
C182 C 0.90709 0.7721 0.36703 0.0
C183 C 0.90825 0.77856 0.33076 0.0
C184 C 0.90876 0.78544 0.37264 0.0
C185 C 0.90989 0.79179 0.337 0.0
C186 C 0.86726 0.73738 0.35343 0.0
C187 C 0.85239 0.72098 0.36811 0.0
N188 N 0.84527 0.73088 0.37732 0.0
C189 C 0.85967 0.74739 0.36281 0.0
C190 C 0.8635 0.72406 0.3559 0.0
C191 C 0.84864 0.74391 0.37493 0.0
C192 C 0.87049 0.77323 0.30563 0.0
N193 N 0.87696 0.77078 0.32383 0.0
C194 C 0.86707 0.78988 0.33966 0.0
C195 C 0.87541 0.77881 0.3407 0.0
C196 C 0.85992 0.7925 0.32126 0.0
C197 C 0.86184 0.78407 0.30399 0.0
H198 H 0.87173 0.76652 0.29258 0.0
H199 H 0.88036 0.77643 0.35518 0.0
C200 C 0.90936 0.72909 0.38801 0.0
N201 N 0.89903 0.73641 0.38044 0.0
C202 C 0.91062 0.72697 0.4095 0.0
C203 C 0.8908 0.74021 0.41484 0.0
C204 C 0.89 0.74215 0.39338 0.0
C205 C 0.90114 0.73243 0.42314 0.0
H206 H 0.91655 0.72482 0.37737 0.0
H207 H 0.88223 0.74836 0.38704 0.0
C208 C 0.89526 0.74651 0.27987 0.0
N209 N 0.90541 0.74871 0.23997 0.0
C210 C 0.89567 0.73538 0.2668 0.0
C211 C 0.89984 0.7588 0.27256 0.0
C212 C 0.90088 0.73669 0.2467 0.0
C213 C 0.90498 0.7597 0.25237 0.0
C214 C 0.90574 0.71291 0.33725 0.0
C215 C 0.91552 0.70502 0.32786 0.0
C216 C 0.89763 0.70746 0.35274 0.0
C217 C 0.91687 0.69173 0.33394 0.0
C218 C 0.89929 0.69413 0.35841 0.0
N219 N 0.90879 0.6866 0.34895 0.0
C220 C 0.93172 0.7542 0.30453 0.0
C221 C 0.92621 0.73355 0.28882 0.0
C222 C 0.94406 0.75425 0.29458 0.0
N223 N 0.92319 0.74387 0.30167 0.0
C224 C 0.93843 0.7332 0.27851 0.0
C225 C 0.94764 0.74352 0.28166 0.0
H226 H 0.92912 0.76218 0.31505 0.0
H227 H 0.91923 0.72544 0.28693 0.0
C228 C 0.86344 0.72023 0.30205 0.0
N229 N 0.87621 0.71684 0.30654 0.0
C230 C 0.85514 0.71128 0.29172 0.0
C231 C 0.87329 0.69545 0.29095 0.0
C232 C 0.88127 0.70476 0.30117 0.0
C233 C 0.86008 0.69873 0.28595 0.0
H234 H 0.85977 0.72999 0.3063 0.0
H235 H 0.89156 0.70244 0.30433 0.0
O236 O 0.90504 0.75566 0.34015 0.0
O237 O 0.87803 0.74066 0.34134 0.0
O238 O 0.89038 0.74538 0.2997 0.0
O239 O 0.90428 0.72593 0.33136 0.0
H240 H 0.90606 0.76456 0.37897 0.0
H241 H 0.90805 0.77607 0.31436 0.0
H242 H 0.909 0.78825 0.38893 0.0
H243 H 0.91099 0.79956 0.32543 0.0
H244 H 0.8494 0.71071 0.37017 0.0
H245 H 0.86232 0.75775 0.36093 0.0
H246 H 0.86895 0.71617 0.3483 0.0
H247 H 0.84275 0.75156 0.38241 0.0
H248 H 0.86611 0.79616 0.35329 0.0
H249 H 0.85638 0.78549 0.28961 0.0
H250 H 0.91876 0.72096 0.41533 0.0
H251 H 0.88349 0.74488 0.42488 0.0
H252 H 0.89215 0.7258 0.2722 0.0
H253 H 0.89944 0.76753 0.2824 0.0
H254 H 0.90136 0.72814 0.23646 0.0
H255 H 0.90863 0.76913 0.24654 0.0
H256 H 0.92198 0.70911 0.31596 0.0
H257 H 0.89025 0.71348 0.36053 0.0
H258 H 0.92436 0.68549 0.32674 0.0
H259 H 0.89307 0.68979 0.37039 0.0
H260 H 0.95096 0.76228 0.2978 0.0
H261 H 0.94075 0.72479 0.26857 0.0
H262 H 0.84497 0.71414 0.28827 0.0
H263 H 0.87751 0.68595 0.28645 0.0
Li264 Li 0.2562 0.89462 0.34406 0.0
Li265 Li 0.23935 0.88684 0.3178 0.0
Li266 Li 0.26413 0.88539 0.31206 0.0
Li267 Li 0.25332 0.90607 0.31134 0.0
C268 C 0.25239 0.86882 0.35118 0.0
N269 N 0.25089 0.85466 0.38811 0.0
C270 C 0.24017 0.8638 0.35807 0.0
C271 C 0.26387 0.86649 0.36299 0.0
C272 C 0.23961 0.85669 0.37679 0.0
C273 C 0.2629 0.85937 0.38165 0.0
C274 C 0.23509 0.91594 0.33689 0.0
C275 C 0.21882 0.93306 0.33016 0.0
N276 N 0.22615 0.94176 0.34168 0.0
C277 C 0.24243 0.92502 0.34875 0.0
C278 C 0.22317 0.91995 0.32757 0.0
C279 C 0.23775 0.93804 0.35095 0.0
C280 C 0.27 0.90017 0.38226 0.0
N281 N 0.25834 0.89626 0.3734 0.0
C282 C 0.2486 0.89261 0.40688 0.0
C283 C 0.24761 0.8929 0.38521 0.0
C284 C 0.26066 0.89609 0.41649 0.0
C285 C 0.27139 0.90018 0.40396 0.0
H286 H 0.27828 0.90308 0.37251 0.0
H287 H 0.23838 0.89012 0.37771 0.0
C288 C 0.22205 0.86759 0.30182 0.0
N289 N 0.2228 0.87835 0.3146 0.0
C290 C 0.21028 0.86028 0.30055 0.0
C291 C 0.20028 0.87536 0.32548 0.0
C292 C 0.21224 0.88242 0.3262 0.0
C293 C 0.19926 0.86403 0.31272 0.0
H294 H 0.23072 0.86453 0.29304 0.0
H295 H 0.21325 0.89089 0.33648 0.0
C296 C 0.28342 0.90066 0.32131 0.0
N297 N 0.30993 0.89703 0.31116 0.0
C298 C 0.28875 0.90668 0.3035 0.0
C299 C 0.2916 0.89281 0.33397 0.0
C300 C 0.30217 0.90473 0.29864 0.0
C301 C 0.30496 0.89108 0.32856 0.0
C302 C 0.24638 0.89645 0.27367 0.0
C303 C 0.25584 0.90337 0.26187 0.0
C304 C 0.23336 0.89524 0.26617 0.0
C305 C 0.25209 0.90901 0.24283 0.0
C306 C 0.23001 0.901 0.24703 0.0
N307 N 0.23937 0.90771 0.23586 0.0
C308 C 0.28112 0.86295 0.30937 0.0
C309 C 0.28223 0.87769 0.28056 0.0
C310 C 0.29044 0.85451 0.30011 0.0
N311 N 0.27724 0.87429 0.29953 0.0
C312 C 0.29156 0.86957 0.27073 0.0
C313 C 0.29572 0.85776 0.28046 0.0
H314 H 0.27686 0.86036 0.32427 0.0
H315 H 0.27899 0.88671 0.27303 0.0
C316 C 0.26276 0.93197 0.30478 0.0
N317 N 0.25274 0.92352 0.29956 0.0
C318 C 0.26283 0.94499 0.29728 0.0
C319 C 0.2421 0.9405 0.27944 0.0
C320 C 0.24239 0.92759 0.28743 0.0
C321 C 0.25242 0.94941 0.28438 0.0
H322 H 0.27056 0.92869 0.31518 0.0
H323 H 0.23426 0.92087 0.28415 0.0
O324 O 0.25309 0.87606 0.33309 0.0
O325 O 0.23973 0.90328 0.33403 0.0
O326 O 0.27022 0.90221 0.32609 0.0
O327 O 0.24984 0.89073 0.29228 0.0
H328 H 0.23118 0.86543 0.34918 0.0
H329 H 0.2734 0.87034 0.35801 0.0
H330 H 0.23021 0.85282 0.38235 0.0
H331 H 0.27168 0.85763 0.39103 0.0
H332 H 0.20966 0.93633 0.32292 0.0
H333 H 0.25174 0.92208 0.35593 0.0
H334 H 0.21744 0.91306 0.31817 0.0
H335 H 0.24337 0.94521 0.35997 0.0
H336 H 0.24003 0.88963 0.41603 0.0
H337 H 0.28084 0.90297 0.41083 0.0
H338 H 0.20998 0.85148 0.29078 0.0
H339 H 0.192 0.8786 0.33503 0.0
H340 H 0.28257 0.91264 0.29332 0.0
H341 H 0.28766 0.88797 0.34769 0.0
H342 H 0.3064 0.90928 0.28485 0.0
H343 H 0.31138 0.88497 0.33817 0.0
H344 H 0.26587 0.90471 0.26757 0.0
H345 H 0.22588 0.88997 0.27505 0.0
H346 H 0.25929 0.91449 0.23365 0.0
H347 H 0.21997 0.90016 0.24109 0.0
H348 H 0.29323 0.8454 0.30802 0.0
H349 H 0.2955 0.87253 0.2557 0.0
H350 H 0.27075 0.95162 0.3021 0.0
H351 H 0.23385 0.94348 0.26963 0.0
Li352 Li 0.08708 0.73915 0.68171 0.0
Li353 Li 0.10755 0.72655 0.68002 0.0
Li354 Li 0.10748 0.75064 0.67613 0.0
Li355 Li 0.09871 0.73623 0.64873 0.0
C356 C 0.10865 0.74674 0.71631 0.0
N357 N 0.12241 0.76097 0.74625 0.0
C358 C 0.12052 0.74172 0.72455 0.0
C359 C 0.10375 0.75897 0.72336 0.0
C360 C 0.12733 0.74907 0.73968 0.0
C361 C 0.11087 0.76603 0.73847 0.0
C362 C 0.08939 0.7092 0.67018 0.0
C363 C 0.09588 0.68648 0.66344 0.0
N364 N 0.0883 0.6824 0.67981 0.0
C365 C 0.08165 0.70478 0.68693 0.0
C366 C 0.09655 0.69998 0.6583 0.0
C367 C 0.08122 0.69119 0.69154 0.0
C368 C 0.06009 0.73376 0.68265 0.0
N369 N 0.07001 0.73942 0.69396 0.0
C370 C 0.05504 0.74417 0.72193 0.0
C371 C 0.0678 0.74455 0.71328 0.0
C372 C 0.04464 0.73824 0.71064 0.0
C373 C 0.04726 0.73304 0.69074 0.0
H374 H 0.06221 0.72972 0.66736 0.0
H375 H 0.07594 0.74884 0.72201 0.0
C376 C 0.12808 0.70731 0.68325 0.0
N377 N 0.11673 0.71205 0.69203 0.0
C378 C 0.13512 0.69705 0.69291 0.0
C379 C 0.11858 0.69674 0.72034 0.0
C380 C 0.11187 0.707 0.71016 0.0
C381 C 0.13044 0.69173 0.71181 0.0
H382 H 0.13183 0.7117 0.66903 0.0
H383 H 0.10289 0.71112 0.71687 0.0
C384 C 0.07868 0.75847 0.65847 0.0
N385 N 0.05321 0.76877 0.65631 0.0
C386 C 0.07011 0.75457 0.64241 0.0
C387 C 0.07433 0.76766 0.67336 0.0
C388 C 0.05726 0.75989 0.6416 0.0
C389 C 0.0614 0.77273 0.67202 0.0
C390 C 0.12456 0.73744 0.64156 0.0
C391 C 0.12997 0.74941 0.63431 0.0
C392 C 0.12625 0.7258 0.6299 0.0
C393 C 0.13691 0.74954 0.61542 0.0
C394 C 0.13322 0.72635 0.61106 0.0
N395 N 0.13836 0.73811 0.60427 0.0
C396 C 0.13051 0.76427 0.68722 0.0
C397 C 0.11248 0.7785 0.67866 0.0
C398 C 0.13878 0.77517 0.69069 0.0
N399 N 0.11766 0.76612 0.68132 0.0
C400 C 0.12043 0.78973 0.68189 0.0
C401 C 0.1338 0.78811 0.68788 0.0
H402 H 0.13438 0.75427 0.68888 0.0
H403 H 0.10225 0.77966 0.67377 0.0
C404 C 0.09174 0.72325 0.61072 0.0
N405 N 0.0968 0.73453 0.61939 0.0
C406 C 0.09103 0.72198 0.58904 0.0
C407 C 0.1005 0.74403 0.58577 0.0
C408 C 0.10083 0.74495 0.60745 0.0
C409 C 0.09566 0.73239 0.57634 0.0
H410 H 0.08837 0.71522 0.62061 0.0
H411 H 0.10451 0.75391 0.61482 0.0
O412 O 0.10196 0.73982 0.7012 0.0
O413 O 0.09017 0.7225 0.66568 0.0
O414 O 0.09116 0.7531 0.65987 0.0
O415 O 0.11752 0.73715 0.65984 0.0
H416 H 0.12454 0.73235 0.71917 0.0
H417 H 0.0947 0.76311 0.71693 0.0
H418 H 0.13656 0.74533 0.74613 0.0
H419 H 0.10726 0.77555 0.74394 0.0
H420 H 0.10143 0.67925 0.65444 0.0
H421 H 0.07617 0.71177 0.69648 0.0
H422 H 0.10269 0.70323 0.64541 0.0
H423 H 0.07532 0.68763 0.70452 0.0
H424 H 0.05337 0.74826 0.73734 0.0
H425 H 0.03944 0.72859 0.68142 0.0
H426 H 0.14435 0.69363 0.686 0.0
H427 H 0.11458 0.69284 0.7348 0.0
H428 H 0.07328 0.74741 0.63084 0.0
H429 H 0.08079 0.77068 0.68601 0.0
H430 H 0.0505 0.75692 0.62932 0.0
H431 H 0.05787 0.77977 0.68353 0.0
H432 H 0.12868 0.75855 0.643 0.0
H433 H 0.12204 0.71648 0.63516 0.0
H434 H 0.14108 0.75874 0.60957 0.0
H435 H 0.1345 0.71744 0.60181 0.0
H436 H 0.14909 0.77346 0.69488 0.0
H437 H 0.11619 0.79954 0.67964 0.0
H438 H 0.08721 0.71286 0.58229 0.0
H439 H 0.10396 0.75235 0.57646 0.0
Li440 Li 0.26416 0.1066 0.68292 0.0
Li441 Li 0.25186 0.08647 0.68217 0.0
Li442 Li 0.25709 0.09885 0.64871 0.0
Li443 Li 0.24075 0.107 0.67532 0.0
C444 C 0.28259 0.08836 0.67206 0.0
N445 N 0.30956 0.0855 0.67924 0.0
C446 C 0.28731 0.08637 0.69233 0.0
C447 C 0.29157 0.08879 0.65541 0.0
C448 C 0.30099 0.08499 0.69565 0.0
C449 C 0.30518 0.08734 0.65937 0.0
C450 C 0.24707 0.09491 0.71986 0.0
C451 C 0.23274 0.08154 0.7417 0.0
N452 N 0.2425 0.08096 0.75639 0.0
C453 C 0.25696 0.09414 0.73519 0.0
C454 C 0.23486 0.08855 0.72317 0.0
C455 C 0.25445 0.08707 0.75354 0.0
C456 C 0.27414 0.12281 0.71441 0.0
N457 N 0.27767 0.1169 0.69618 0.0
C458 C 0.2988 0.12785 0.69671 0.0
C459 C 0.28965 0.11938 0.68705 0.0
C460 C 0.2954 0.13403 0.71562 0.0
C461 C 0.28292 0.13137 0.72451 0.0
H462 H 0.26433 0.12117 0.72083 0.0
H463 H 0.29196 0.11511 0.67203 0.0
C464 C 0.241 0.06091 0.68278 0.0
N465 N 0.2499 0.06887 0.69268 0.0
C466 C 0.23902 0.04786 0.68945 0.0
C467 C 0.25548 0.05137 0.71639 0.0
C468 C 0.25725 0.06433 0.70902 0.0
C469 C 0.24629 0.04292 0.7065 0.0
H470 H 0.2356 0.0646 0.66941 0.0
H471 H 0.2645 0.07071 0.71635 0.0
C472 C 0.25858 0.12973 0.66475 0.0
N473 N 0.26666 0.15524 0.67495 0.0
C474 C 0.25257 0.1365 0.68132 0.0
C475 C 0.26869 0.13595 0.65337 0.0
C476 C 0.25679 0.14939 0.68622 0.0
C477 C 0.27264 0.14884 0.65877 0.0
C478 C 0.227 0.09114 0.65153 0.0
C479 C 0.22391 0.09709 0.63241 0.0
C480 C 0.21674 0.08625 0.66412 0.0
C481 C 0.21061 0.09805 0.62622 0.0
C482 C 0.20356 0.08742 0.6574 0.0
N483 N 0.20079 0.09325 0.63875 0.0
C484 C 0.25434 0.08769 0.60873 0.0
C485 C 0.27015 0.10515 0.61081 0.0
C486 C 0.25613 0.08677 0.58719 0.0
N487 N 0.26104 0.09702 0.61993 0.0
C488 C 0.27236 0.10451 0.58933 0.0
C489 C 0.26508 0.09542 0.57712 0.0
H490 H 0.2473 0.0812 0.61647 0.0
H491 H 0.27563 0.11219 0.62019 0.0
C492 C 0.21806 0.11712 0.69648 0.0
N493 N 0.22469 0.11685 0.678 0.0
C494 C 0.20645 0.12463 0.69855 0.0
C495 C 0.20879 0.13153 0.66259 0.0
C496 C 0.2204 0.12398 0.66128 0.0
C497 C 0.20169 0.13195 0.68145 0.0
H498 H 0.22188 0.11173 0.70972 0.0
H499 H 0.22611 0.12389 0.64697 0.0
O500 O 0.26925 0.08975 0.66844 0.0
O501 O 0.24933 0.10179 0.70173 0.0
O502 O 0.25492 0.11691 0.66023 0.0
O503 O 0.23997 0.09035 0.65806 0.0
H504 H 0.28052 0.08616 0.70539 0.0
H505 H 0.28807 0.09024 0.63961 0.0
H506 H 0.30479 0.08355 0.71128 0.0
H507 H 0.31224 0.08769 0.64665 0.0
H508 H 0.22336 0.07654 0.74438 0.0
H509 H 0.26658 0.09873 0.73286 0.0
H510 H 0.22714 0.08887 0.71144 0.0
H511 H 0.26204 0.08636 0.76547 0.0
H512 H 0.30823 0.12988 0.68914 0.0
H513 H 0.27991 0.13594 0.73907 0.0
H514 H 0.23214 0.04161 0.68087 0.0
H515 H 0.2613 0.04802 0.7296 0.0
H516 H 0.24495 0.13178 0.69065 0.0
H517 H 0.27357 0.13087 0.64065 0.0
H518 H 0.25228 0.15469 0.6991 0.0
H519 H 0.2805 0.15374 0.65015 0.0
H520 H 0.23166 0.10121 0.62264 0.0
H521 H 0.2189 0.08164 0.67898 0.0
H522 H 0.20808 0.10271 0.61152 0.0
H523 H 0.19553 0.08371 0.66703 0.0
H524 H 0.25022 0.07968 0.57848 0.0
H525 H 0.2796 0.11114 0.58235 0.0
H526 H 0.20128 0.12473 0.71337 0.0
H527 H 0.20561 0.13728 0.64918 0.0
Li528 Li 0.88343 0.26339 0.6816 0.0
Li529 Li 0.90517 0.25266 0.68173 0.0
Li530 Li 0.89293 0.25439 0.64958 0.0
Li531 Li 0.88593 0.23959 0.67798 0.0
C532 C 0.90543 0.28026 0.67555 0.0
N533 N 0.9169 0.30237 0.69391 0.0
C534 C 0.90658 0.28104 0.69727 0.0
C535 C 0.91015 0.29072 0.66319 0.0
C536 C 0.91241 0.2923 0.70624 0.0
C537 C 0.9159 0.30181 0.67277 0.0
C538 C 0.88752 0.2429 0.71899 0.0
C539 C 0.89013 0.22252 0.73853 0.0
N540 N 0.88056 0.22665 0.75207 0.0
C541 C 0.87784 0.24701 0.73326 0.0
C542 C 0.89383 0.23062 0.7218 0.0
C543 C 0.87441 0.23864 0.74982 0.0
C544 C 0.86042 0.27169 0.70129 0.0
N545 N 0.87177 0.27654 0.69264 0.0
C546 C 0.86562 0.29877 0.70168 0.0
C547 C 0.8743 0.28984 0.69208 0.0
C548 C 0.85408 0.29399 0.71158 0.0
C549 C 0.8514 0.28026 0.71093 0.0
H550 H 0.85847 0.2611 0.70091 0.0
H551 H 0.88307 0.29359 0.68439 0.0
C552 C 0.93173 0.26016 0.68058 0.0
N553 N 0.92265 0.25381 0.69271 0.0
C554 C 0.94468 0.26202 0.68768 0.0
C555 C 0.93877 0.25066 0.71965 0.0
C556 C 0.92585 0.2491 0.71195 0.0
C557 C 0.94832 0.25729 0.70748 0.0
H558 H 0.92886 0.26385 0.66538 0.0
H559 H 0.91838 0.24427 0.7214 0.0
C560 C 0.86568 0.25891 0.64969 0.0
N561 N 0.84744 0.27341 0.62678 0.0
C562 C 0.85311 0.2536 0.64542 0.0
C563 C 0.86898 0.2716 0.64233 0.0
C564 C 0.84402 0.26109 0.6338 0.0
C565 C 0.85962 0.27877 0.63077 0.0
C566 C 0.91476 0.23383 0.65798 0.0
C567 C 0.92285 0.23923 0.64239 0.0
C568 C 0.91982 0.22387 0.67101 0.0
C569 C 0.93595 0.23474 0.64029 0.0
C570 C 0.93297 0.21965 0.66843 0.0
N571 N 0.9407 0.22513 0.65327 0.0
C572 C 0.90206 0.26495 0.61101 0.0
C573 C 0.88602 0.24767 0.60887 0.0
C574 C 0.90305 0.26545 0.58928 0.0
N575 N 0.89374 0.25606 0.62025 0.0
C576 C 0.88661 0.24789 0.58715 0.0
C577 C 0.89534 0.25674 0.57704 0.0
H578 H 0.90816 0.27141 0.62053 0.0
H579 H 0.87949 0.24073 0.61672 0.0
C580 C 0.86555 0.2234 0.69385 0.0
N581 N 0.87723 0.22325 0.68316 0.0
C582 C 0.85834 0.21167 0.6966 0.0
C583 C 0.87529 0.19987 0.67715 0.0
C584 C 0.88225 0.21182 0.67498 0.0
C585 C 0.8631 0.19976 0.68789 0.0
H586 H 0.86171 0.23272 0.69982 0.0
H587 H 0.89148 0.21206 0.6663 0.0
O588 O 0.90001 0.26924 0.66627 0.0
O589 O 0.8909 0.25091 0.70252 0.0
O590 O 0.87462 0.25167 0.66112 0.0
O591 O 0.902 0.23834 0.66058 0.0
H592 H 0.90302 0.27308 0.70714 0.0
H593 H 0.90937 0.29026 0.64637 0.0
H594 H 0.91335 0.29303 0.72301 0.0
H595 H 0.91958 0.30998 0.66339 0.0
H596 H 0.89485 0.21294 0.74074 0.0
H597 H 0.87307 0.25661 0.73169 0.0
H598 H 0.9014 0.22732 0.71101 0.0
H599 H 0.86689 0.24168 0.76092 0.0
H600 H 0.8681 0.30926 0.70176 0.0
H601 H 0.84245 0.27616 0.71782 0.0
H602 H 0.95181 0.26698 0.67765 0.0
H603 H 0.94122 0.24692 0.73503 0.0
H604 H 0.85041 0.2438 0.65106 0.0
H605 H 0.87864 0.2759 0.64551 0.0
H606 H 0.83426 0.25711 0.63038 0.0
H607 H 0.86203 0.2886 0.62499 0.0
H608 H 0.91914 0.24695 0.63219 0.0
H609 H 0.91368 0.21945 0.68299 0.0
H610 H 0.94234 0.23892 0.6284 0.0
H611 H 0.93703 0.21201 0.67848 0.0
H612 H 0.91002 0.27232 0.5822 0.0
H613 H 0.88029 0.24118 0.57838 0.0
H614 H 0.84887 0.21202 0.70468 0.0
H615 H 0.87927 0.19087 0.67024 0.0
Li616 Li 0.73973 0.90549 0.68029 0.0
Li617 Li 0.72922 0.88384 0.67829 0.0
Li618 Li 0.75321 0.88632 0.67469 0.0
Li619 Li 0.73811 0.89371 0.64719 0.0
C620 C 0.74924 0.88472 0.71491 0.0
N621 N 0.76459 0.87248 0.74513 0.0
C622 C 0.74532 0.87247 0.72326 0.0
C623 C 0.76094 0.89077 0.722 0.0
C624 C 0.75321 0.86644 0.73853 0.0
C625 C 0.76858 0.8844 0.73725 0.0
C626 C 0.71022 0.9003 0.66846 0.0
C627 C 0.68826 0.89163 0.66156 0.0
N628 N 0.68341 0.89881 0.67787 0.0
C629 C 0.70503 0.9076 0.68514 0.0
C630 C 0.70178 0.89227 0.65652 0.0
C631 C 0.69144 0.90671 0.68964 0.0
C632 C 0.73205 0.93195 0.68109 0.0
N633 N 0.7384 0.92252 0.69255 0.0
C634 C 0.74199 0.93793 0.72034 0.0
C635 C 0.74328 0.92518 0.71188 0.0
C636 C 0.73545 0.94786 0.70884 0.0
C637 C 0.73044 0.94475 0.68897 0.0
H638 H 0.72824 0.92948 0.66579 0.0
H639 H 0.74814 0.91742 0.72072 0.0
C640 C 0.71237 0.86132 0.68118 0.0
N641 N 0.71568 0.87316 0.69001 0.0
C642 C 0.70285 0.85317 0.69056 0.0
C643 C 0.70029 0.86962 0.71784 0.0
C644 C 0.70988 0.87742 0.70796 0.0
C645 C 0.69677 0.85725 0.70924 0.0
H646 H 0.71728 0.85811 0.66706 0.0
H647 H 0.71293 0.88679 0.7148 0.0
C648 C 0.75838 0.91574 0.65734 0.0
N649 N 0.76648 0.94201 0.65545 0.0
C650 C 0.7538 0.92401 0.64133 0.0
C651 C 0.76714 0.92081 0.67232 0.0
C652 C 0.75801 0.93726 0.64065 0.0
C653 C 0.77109 0.93413 0.67113 0.0
C654 C 0.74198 0.86823 0.63975 0.0
C655 C 0.75449 0.86414 0.63262 0.0
C656 C 0.73064 0.86542 0.62788 0.0
C657 C 0.75544 0.85737 0.61363 0.0
C658 C 0.73202 0.85866 0.60896 0.0
N659 N 0.74428 0.85481 0.60229 0.0
C660 C 0.76897 0.86482 0.68625 0.0
C661 C 0.78145 0.88398 0.67698 0.0
C662 C 0.7806 0.85765 0.6899 0.0
N663 N 0.76961 0.87772 0.67997 0.0
C664 C 0.79338 0.87715 0.68033 0.0
C665 C 0.79302 0.86378 0.68682 0.0
H666 H 0.75938 0.86005 0.6881 0.0
H667 H 0.78164 0.89421 0.67174 0.0
C668 C 0.72476 0.89986 0.60921 0.0
N669 N 0.7364 0.89574 0.61787 0.0
C670 C 0.72369 0.90129 0.58759 0.0
C671 C 0.74663 0.89427 0.58435 0.0
C672 C 0.74729 0.89314 0.60599 0.0
C673 C 0.73471 0.89842 0.57481 0.0
H674 H 0.71635 0.90215 0.61908 0.0
H675 H 0.75648 0.89009 0.61337 0.0
O676 O 0.74178 0.89068 0.69967 0.0
O677 O 0.72355 0.90081 0.66406 0.0
O678 O 0.7541 0.90284 0.65859 0.0
O679 O 0.74086 0.87505 0.65814 0.0
H680 H 0.73637 0.86758 0.71787 0.0
H681 H 0.76424 0.90015 0.7155 0.0
H682 H 0.75033 0.85694 0.74506 0.0
H683 H 0.7777 0.88892 0.74275 0.0
H684 H 0.68162 0.8854 0.65253 0.0
H685 H 0.71142 0.91375 0.69469 0.0
H686 H 0.70565 0.88647 0.64368 0.0
H687 H 0.68729 0.91226 0.70256 0.0
H688 H 0.74592 0.93996 0.73575 0.0
H689 H 0.72554 0.9522 0.67947 0.0
H690 H 0.70034 0.84375 0.68335 0.0
H691 H 0.696 0.87304 0.73238 0.0
H692 H 0.74696 0.92028 0.62968 0.0
H693 H 0.77068 0.91458 0.68493 0.0
H694 H 0.7545 0.94379 0.62841 0.0
H695 H 0.77777 0.93821 0.68271 0.0
H696 H 0.76338 0.86629 0.64149 0.0
H697 H 0.7209 0.8686 0.63307 0.0
H698 H 0.76505 0.8542 0.60788 0.0
H699 H 0.72333 0.85652 0.59955 0.0
H700 H 0.77987 0.84729 0.69446 0.0
H701 H 0.80276 0.88222 0.67781 0.0
H702 H 0.71439 0.90477 0.58103 0.0
H703 H 0.75534 0.89176 0.57521 0.0
Li704 Li 0.88711 0.75509 0.67701 0.0
Li705 Li 0.88538 0.73098 0.68187 0.0
Li706 Li 0.90623 0.74261 0.68401 0.0
Li707 Li 0.89509 0.74023 0.65025 0.0
C708 C 0.8962 0.74627 0.72179 0.0
N709 N 0.90808 0.74924 0.76044 0.0
C710 C 0.89389 0.73694 0.73757 0.0
C711 C 0.90433 0.75727 0.72587 0.0
C712 C 0.90003 0.73858 0.75696 0.0
C713 C 0.91032 0.75855 0.74544 0.0
C714 C 0.8632 0.74361 0.66406 0.0
C715 C 0.84034 0.74396 0.65242 0.0
N716 N 0.83632 0.74657 0.67226 0.0
C717 C 0.85881 0.74629 0.68436 0.0
C718 C 0.85387 0.74245 0.64796 0.0
C719 C 0.8452 0.74775 0.68817 0.0
C720 C 0.87181 0.7769 0.66424 0.0
N721 N 0.87814 0.77153 0.68097 0.0
C722 C 0.87058 0.7892 0.70288 0.0
C723 C 0.87768 0.7774 0.70006 0.0
C724 C 0.86385 0.79494 0.6859 0.0
C725 C 0.86461 0.78869 0.66634 0.0
H726 H 0.87217 0.77187 0.64933 0.0
H727 H 0.88263 0.77282 0.71316 0.0
C728 C 0.88287 0.70837 0.70654 0.0
N729 N 0.87607 0.71596 0.69257 0.0
C730 C 0.87682 0.69734 0.71577 0.0
C731 C 0.85716 0.70164 0.69508 0.0
C732 C 0.86359 0.71259 0.68628 0.0
C733 C 0.86371 0.69398 0.71028 0.0
H734 H 0.89299 0.71098 0.71061 0.0
H735 H 0.85855 0.71834 0.67449 0.0
C736 C 0.90421 0.76901 0.65525 0.0
N737 N 0.90316 0.7953 0.64254 0.0
C738 C 0.90003 0.77221 0.63506 0.0
C739 C 0.90802 0.77919 0.66888 0.0
C740 C 0.89954 0.78556 0.62895 0.0
C741 C 0.90737 0.79242 0.6622 0.0
C742 C 0.90102 0.71388 0.65891 0.0
C743 C 0.91113 0.70438 0.66056 0.0
C744 C 0.88957 0.71097 0.64737 0.0
C745 C 0.90963 0.6921 0.65058 0.0
C746 C 0.88844 0.69858 0.63762 0.0
N747 N 0.89841 0.68948 0.63941 0.0
C748 C 0.92579 0.73184 0.71034 0.0
C749 C 0.93196 0.75184 0.69315 0.0
C750 C 0.93827 0.73101 0.7198 0.0
N751 N 0.92296 0.7421 0.69724 0.0
C752 C 0.94455 0.75141 0.70223 0.0
C753 C 0.9479 0.7408 0.71554 0.0
H754 H 0.91837 0.72425 0.71323 0.0
H755 H 0.92944 0.7598 0.68251 0.0
C756 C 0.88676 0.74018 0.60865 0.0
N757 N 0.8972 0.73724 0.62129 0.0
C758 C 0.88763 0.73794 0.58725 0.0
C759 C 0.91004 0.7297 0.59222 0.0
C760 C 0.90872 0.73211 0.6136 0.0
C761 C 0.89937 0.73258 0.57877 0.0
H762 H 0.8778 0.7444 0.61522 0.0
H763 H 0.91684 0.72983 0.62411 0.0
O764 O 0.89038 0.74475 0.70261 0.0
O765 O 0.8765 0.74227 0.65978 0.0
O766 O 0.9045 0.756 0.66165 0.0
O767 O 0.90239 0.72591 0.66868 0.0
H768 H 0.88731 0.72859 0.73499 0.0
H769 H 0.90614 0.76465 0.71395 0.0
H770 H 0.89837 0.73139 0.76925 0.0
H771 H 0.91675 0.76694 0.74868 0.0
H772 H 0.83303 0.74307 0.6401 0.0
H773 H 0.86578 0.74722 0.69709 0.0
H774 H 0.85704 0.74033 0.63218 0.0
H775 H 0.84169 0.74983 0.70379 0.0
H776 H 0.87028 0.79373 0.7182 0.0
H777 H 0.85936 0.79262 0.65293 0.0
H778 H 0.88233 0.69153 0.72709 0.0
H779 H 0.84704 0.69942 0.69038 0.0
H780 H 0.89708 0.76451 0.62426 0.0
H781 H 0.91137 0.77694 0.6845 0.0
H782 H 0.89624 0.78817 0.61342 0.0
H783 H 0.9102 0.80039 0.67265 0.0
H784 H 0.92004 0.70648 0.66949 0.0
H785 H 0.88161 0.71816 0.64594 0.0
H786 H 0.91738 0.68465 0.65172 0.0
H787 H 0.87964 0.6962 0.62864 0.0
H788 H 0.94043 0.72272 0.73005 0.0
H789 H 0.95175 0.759 0.69814 0.0
H790 H 0.87926 0.74056 0.57742 0.0
H791 H 0.91923 0.72548 0.58635 0.0
Li792 Li 0.26824 0.8834 0.67927 0.0
Li793 Li 0.24508 0.8808 0.67397 0.0
Li794 Li 0.25982 0.8894 0.64507 0.0
Li795 Li 0.25427 0.90265 0.67717 0.0
C796 C 0.26793 0.8609 0.65638 0.0
N797 N 0.28484 0.83936 0.6521 0.0
C798 C 0.26898 0.85147 0.67236 0.0
C799 C 0.27545 0.85934 0.63819 0.0
C800 C 0.2776 0.84067 0.66991 0.0
C801 C 0.28395 0.84838 0.63633 0.0
C802 C 0.24597 0.88331 0.71356 0.0
C803 C 0.22575 0.88359 0.73388 0.0
N804 N 0.22933 0.87185 0.74284 0.0
C805 C 0.24946 0.87126 0.72301 0.0
C806 C 0.23404 0.88956 0.71908 0.0
C807 C 0.24092 0.86562 0.73777 0.0
C808 C 0.2837 0.87951 0.71483 0.0
N809 N 0.28356 0.87699 0.69401 0.0
C810 C 0.30421 0.86525 0.69658 0.0
C811 C 0.29382 0.87047 0.68463 0.0
C812 C 0.30413 0.86698 0.71833 0.0
C813 C 0.2939 0.87456 0.72734 0.0
H814 H 0.27575 0.88523 0.72182 0.0
H815 H 0.29384 0.86908 0.66793 0.0
C816 C 0.21742 0.87568 0.67513 0.0
N817 N 0.2296 0.87027 0.67885 0.0
C818 C 0.20589 0.86825 0.67854 0.0
C819 C 0.21963 0.84977 0.68948 0.0
C820 C 0.23089 0.85756 0.68582 0.0
C821 C 0.20692 0.85509 0.68576 0.0
H822 H 0.21664 0.88574 0.6694 0.0
H823 H 0.24065 0.85345 0.68853 0.0
C824 C 0.28445 0.90268 0.66834 0.0
N825 N 0.31051 0.90714 0.68019 0.0
C826 C 0.28722 0.90969 0.68666 0.0
C827 C 0.29491 0.89797 0.656 0.0
C828 C 0.30047 0.91183 0.6924 0.0
C829 C 0.30802 0.90033 0.66227 0.0
C830 C 0.2346 0.90694 0.64966 0.0
C831 C 0.23637 0.91312 0.6303 0.0
C832 C 0.2253 0.9121 0.66374 0.0
C833 C 0.22887 0.92442 0.62543 0.0
C834 C 0.21802 0.92344 0.6583 0.0
N835 N 0.21994 0.92931 0.63942 0.0
C836 C 0.25389 0.88252 0.60412 0.0
C837 C 0.27162 0.898 0.60707 0.0
C838 C 0.25469 0.88291 0.58241 0.0
N839 N 0.26227 0.89 0.61589 0.0
C840 C 0.27284 0.89864 0.58538 0.0
C841 C 0.26426 0.89106 0.57272 0.0
H842 H 0.24644 0.87639 0.61166 0.0
H843 H 0.27802 0.90399 0.61686 0.0
C844 C 0.25026 0.92228 0.70801 0.0
N845 N 0.25176 0.92014 0.68719 0.0
C846 C 0.24831 0.93517 0.71555 0.0
C847 C 0.24958 0.94332 0.68007 0.0
C848 C 0.25182 0.93035 0.6733 0.0
C849 C 0.24775 0.94578 0.70141 0.0
H850 H 0.25067 0.91399 0.71875 0.0
H851 H 0.25352 0.9284 0.65694 0.0
O852 O 0.25945 0.87149 0.65834 0.0
O853 O 0.25406 0.88884 0.6987 0.0
O854 O 0.27155 0.9002 0.66276 0.0
O855 O 0.24193 0.8959 0.65475 0.0
H856 H 0.26344 0.85262 0.68668 0.0
H857 H 0.2748 0.86651 0.62566 0.0
H858 H 0.27859 0.83337 0.68222 0.0
H859 H 0.28984 0.84706 0.62236 0.0
H860 H 0.21646 0.88829 0.7382 0.0
H861 H 0.25857 0.86619 0.71879 0.0
H862 H 0.23115 0.89885 0.71187 0.0
H863 H 0.24346 0.85626 0.74512 0.0
H864 H 0.31191 0.8595 0.68893 0.0
H865 H 0.29364 0.87648 0.74396 0.0
H866 H 0.19628 0.87277 0.67559 0.0
H867 H 0.2209 0.83959 0.69472 0.0
H868 H 0.27923 0.91332 0.69645 0.0
H869 H 0.29292 0.89237 0.64192 0.0
H870 H 0.30277 0.91719 0.70659 0.0
H871 H 0.31623 0.89667 0.65295 0.0
H872 H 0.24349 0.90929 0.61918 0.0
H873 H 0.22387 0.90755 0.67885 0.0
H874 H 0.23018 0.92932 0.61054 0.0
H875 H 0.21088 0.92759 0.66912 0.0
H876 H 0.24768 0.87711 0.57336 0.0
H877 H 0.28043 0.90497 0.57863 0.0
H878 H 0.2471 0.93682 0.73214 0.0
H879 H 0.24948 0.95138 0.66883 0.0
Li880 Li 0.10925 0.26465 0.68098 0.0
Li881 Li 0.10684 0.24013 0.67473 0.0
Li882 Li 0.09965 0.25764 0.64852 0.0
Li883 Li 0.08774 0.25435 0.68018 0.0
C884 C 0.13085 0.2572 0.66005 0.0
N885 N 0.15717 0.26501 0.66303 0.0
C886 C 0.14019 0.2489 0.66969 0.0
C887 C 0.13493 0.26941 0.65175 0.0
C888 C 0.15344 0.25304 0.67107 0.0
C889 C 0.14827 0.2732 0.65348 0.0
C890 C 0.09623 0.25058 0.71849 0.0
C891 C 0.08353 0.23935 0.74512 0.0
N892 N 0.08223 0.25107 0.75556 0.0
C893 C 0.09481 0.26251 0.7295 0.0
C894 C 0.09058 0.23889 0.72635 0.0
C895 C 0.08768 0.26255 0.74821 0.0
C896 C 0.1168 0.2904 0.69441 0.0
N897 N 0.11998 0.27726 0.69495 0.0
C898 C 0.13838 0.28155 0.71751 0.0
C899 C 0.1304 0.27269 0.70639 0.0
C900 C 0.13538 0.29523 0.71731 0.0
C901 C 0.12439 0.29961 0.70555 0.0
H902 H 0.10821 0.29369 0.68567 0.0
H903 H 0.13247 0.26213 0.70697 0.0
C904 C 0.11851 0.21667 0.66058 0.0
N905 N 0.11493 0.22341 0.67805 0.0
C906 C 0.12584 0.20492 0.66216 0.0
C907 C 0.12524 0.2071 0.69974 0.0
C908 C 0.11801 0.21886 0.69741 0.0
C909 C 0.1295 0.20009 0.68195 0.0
H910 H 0.11604 0.22069 0.6454 0.0
H911 H 0.1152 0.22457 0.711 0.0
C912 C 0.08838 0.28067 0.65377 0.0
N913 N 0.07921 0.29876 0.62462 0.0
C914 C 0.07478 0.28146 0.64925 0.0
C915 C 0.0973 0.28914 0.64355 0.0
C916 C 0.07035 0.29066 0.63446 0.0
C917 C 0.09247 0.29819 0.62883 0.0
C918 C 0.0791 0.23391 0.65526 0.0
C919 C 0.0676 0.24 0.64752 0.0
C920 C 0.07886 0.22041 0.66054 0.0
C921 C 0.05598 0.23247 0.64535 0.0
C922 C 0.06705 0.21322 0.6581 0.0
N923 N 0.05595 0.21935 0.65064 0.0
C924 C 0.11065 0.25978 0.60847 0.0
C925 C 0.0872 0.26235 0.60896 0.0
C926 C 0.11079 0.26059 0.58675 0.0
N927 N 0.09897 0.26057 0.6191 0.0
C928 C 0.08688 0.26334 0.58723 0.0
C929 C 0.09877 0.26222 0.57585 0.0
H930 H 0.11985 0.25815 0.6168 0.0
H931 H 0.07801 0.2627 0.61763 0.0
C932 C 0.06651 0.26731 0.69938 0.0
N933 N 0.07082 0.25502 0.69365 0.0
C934 C 0.05399 0.26891 0.70839 0.0
C935 C 0.05086 0.24507 0.70655 0.0
C936 C 0.06355 0.24393 0.69789 0.0
C937 C 0.04578 0.25774 0.71143 0.0
H938 H 0.07275 0.27591 0.69665 0.0
H939 H 0.06746 0.2342 0.69426 0.0
O940 O 0.11779 0.2534 0.65878 0.0
O941 O 0.10287 0.25042 0.69988 0.0
O942 O 0.09295 0.27165 0.66809 0.0
O943 O 0.0906 0.24106 0.65749 0.0
H944 H 0.13722 0.23941 0.6762 0.0
H945 H 0.12785 0.27591 0.64415 0.0
H946 H 0.16075 0.24675 0.67858 0.0
H947 H 0.15154 0.28266 0.64723 0.0
H948 H 0.07902 0.2304 0.75133 0.0
H949 H 0.09903 0.27166 0.72354 0.0
H950 H 0.09144 0.22961 0.71787 0.0
H951 H 0.08644 0.27171 0.75686 0.0
H952 H 0.14683 0.27769 0.72608 0.0
H953 H 0.12151 0.31 0.70527 0.0
H954 H 0.12909 0.20001 0.64801 0.0
H955 H 0.1277 0.20368 0.71529 0.0
H956 H 0.06774 0.27492 0.65685 0.0
H957 H 0.10784 0.28868 0.64688 0.0
H958 H 0.05986 0.29133 0.63073 0.0
H959 H 0.09927 0.30476 0.62074 0.0
H960 H 0.06756 0.25047 0.64366 0.0
H961 H 0.08769 0.21555 0.66653 0.0
H962 H 0.04698 0.23708 0.63954 0.0
H963 H 0.0667 0.20277 0.66218 0.0
H964 H 0.12018 0.25978 0.57855 0.0
H965 H 0.07739 0.26443 0.57939 0.0
H966 H 0.05068 0.27883 0.71251 0.0
H967 H 0.04495 0.23615 0.70857 0.0
Li968 Li 0.73012 0.1077 0.68402 0.0
Li969 Li 0.75412 0.10531 0.6785 0.0
Li970 Li 0.73942 0.09699 0.65217 0.0
Li971 Li 0.74099 0.08662 0.68545 0.0
C972 C 0.74765 0.12756 0.65974 0.0
N973 N 0.7619 0.15106 0.65731 0.0
C974 C 0.74782 0.13638 0.67661 0.0
C975 C 0.75467 0.13074 0.64158 0.0
C976 C 0.75508 0.1482 0.67508 0.0
C977 C 0.76184 0.14265 0.64068 0.0
C978 C 0.748 0.09583 0.72177 0.0
C979 C 0.76494 0.0842 0.74125 0.0
N980 N 0.75605 0.08208 0.75691 0.0
C981 C 0.73904 0.09357 0.73808 0.0
C982 C 0.76107 0.09114 0.72336 0.0
C983 C 0.7433 0.08658 0.75571 0.0
C984 C 0.70829 0.1118 0.70983 0.0
N985 N 0.71598 0.11782 0.69518 0.0
C986 C 0.70305 0.1377 0.6974 0.0
C987 C 0.71345 0.13042 0.68856 0.0
C988 C 0.69513 0.13188 0.71302 0.0
C989 C 0.69777 0.11869 0.71905 0.0
H990 H 0.71032 0.10162 0.71428 0.0
H991 H 0.7195 0.13483 0.67645 0.0
C992 C 0.78019 0.11226 0.66731 0.0
N993 N 0.77075 0.11376 0.68228 0.0
C994 C 0.79208 0.1194 0.66852 0.0
C995 C 0.78435 0.12926 0.70075 0.0
C996 C 0.77269 0.1218 0.69904 0.0
C997 C 0.79417 0.12828 0.68517 0.0
H998 H 0.77831 0.10577 0.65417 0.0
H999 H 0.76493 0.12281 0.71064 0.0
C1000 C 0.71231 0.09259 0.66106 0.0
N1001 N 0.68777 0.0962 0.6424 0.0
C1002 C 0.70279 0.08246 0.66169 0.0
C1003 C 0.70934 0.10459 0.65099 0.0
C1004 C 0.69044 0.08446 0.65214 0.0
C1005 C 0.69688 0.10621 0.64165 0.0
C1006 C 0.75694 0.07616 0.6542 0.0
C1007 C 0.74594 0.06822 0.64918 0.0
C1008 C 0.76973 0.07189 0.64884 0.0
C1009 C 0.74796 0.05612 0.63892 0.0
C1010 C 0.77133 0.05972 0.63858 0.0
N1011 N 0.7605 0.05216 0.63387 0.0
C1012 C 0.74959 0.09755 0.61221 0.0
C1013 C 0.72732 0.08979 0.61247 0.0
C1014 C 0.75011 0.09652 0.59054 0.0
N1015 N 0.73823 0.09449 0.62268 0.0
C1016 C 0.72736 0.08871 0.59074 0.0
C1017 C 0.73881 0.09228 0.57944 0.0
H1018 H 0.75827 0.1008 0.62079 0.0
H1019 H 0.71855 0.08689 0.62103 0.0
C1020 C 0.72814 0.06639 0.70743 0.0
N1021 N 0.74012 0.07013 0.69958 0.0
C1022 C 0.7266 0.05385 0.71648 0.0
C1023 C 0.74992 0.04951 0.70982 0.0
C1024 C 0.75102 0.06218 0.70111 0.0
C1025 C 0.7375 0.04507 0.71719 0.0
H1026 H 0.71971 0.07305 0.70621 0.0
H1027 H 0.76048 0.06552 0.69498 0.0
O1028 O 0.74088 0.11576 0.66118 0.0
O1029 O 0.74394 0.10234 0.70414 0.0
O1030 O 0.72433 0.09076 0.6707 0.0
O1031 O 0.75532 0.08809 0.66422 0.0
H1032 H 0.74262 0.13398 0.69092 0.0
H1033 H 0.75461 0.12409 0.62834 0.0
H1034 H 0.75538 0.15506 0.68809 0.0
H1035 H 0.76736 0.14521 0.62675 0.0
H1036 H 0.775 0.08045 0.74264 0.0
H1037 H 0.7289 0.09712 0.73711 0.0
H1038 H 0.76809 0.09266 0.71078 0.0
H1039 H 0.73646 0.08472 0.76842 0.0
H1040 H 0.70143 0.14786 0.69234 0.0
H1041 H 0.69174 0.11372 0.73069 0.0
H1042 H 0.79944 0.11813 0.65635 0.0
H1043 H 0.78537 0.13611 0.71368 0.0
H1044 H 0.70492 0.07314 0.66951 0.0
H1045 H 0.71656 0.11255 0.65025 0.0
H1046 H 0.68298 0.07669 0.65248 0.0
H1047 H 0.69446 0.11543 0.63378 0.0
H1048 H 0.73596 0.07131 0.65314 0.0
H1049 H 0.77833 0.07793 0.65259 0.0
H1050 H 0.73955 0.04989 0.63496 0.0
H1051 H 0.78117 0.0563 0.63435 0.0
H1052 H 0.7593 0.099 0.5826 0.0
H1053 H 0.7184 0.08539 0.58291 0.0
H1054 H 0.71691 0.05095 0.72231 0.0
H1055 H 0.75856 0.04307 0.7098 0.0
Li1056 Li 0.90426 0.25429 0.31346 0.0
Li1057 Li 0.89393 0.25605 0.34801 0.0
Li1058 Li 0.88363 0.24412 0.31912 0.0
Li1059 Li 0.88544 0.26857 0.31789 0.0
C1060 C 0.89974 0.22668 0.33848 0.0
N1061 N 0.89738 0.19993 0.34818 0.0
C1062 C 0.89886 0.22259 0.35929 0.0
C1063 C 0.8997 0.2171 0.32265 0.0
C1064 C 0.89761 0.20904 0.36387 0.0
C1065 C 0.8984 0.20365 0.32785 0.0
C1066 C 0.90307 0.28178 0.34341 0.0
C1067 C 0.89216 0.29695 0.3671 0.0
N1068 N 0.9033 0.30466 0.36739 0.0
C1069 C 0.91439 0.28987 0.34395 0.0
C1070 C 0.89185 0.28535 0.35508 0.0
C1071 C 0.91432 0.30139 0.35617 0.0
C1072 C 0.92828 0.26401 0.29709 0.0
N1073 N 0.92088 0.25284 0.29981 0.0
C1074 C 0.93794 0.2394 0.28477 0.0
C1075 C 0.92536 0.2407 0.2937 0.0
C1076 C 0.94616 0.25066 0.28269 0.0
C1077 C 0.94106 0.26315 0.28864 0.0
H1078 H 0.92441 0.27354 0.30206 0.0
H1079 H 0.91925 0.23199 0.296 0.0
C1080 C 0.8859 0.2512 0.38884 0.0
N1081 N 0.89596 0.25652 0.37739 0.0
C1082 C 0.88655 0.25122 0.41055 0.0
C1083 C 0.90787 0.26235 0.40834 0.0
C1084 C 0.90687 0.26198 0.3866 0.0
C1085 C 0.89763 0.25686 0.42056 0.0
H1086 H 0.87745 0.24678 0.38104 0.0
H1087 H 0.91477 0.26605 0.37707 0.0
C1088 C 0.89432 0.25378 0.27599 0.0
N1089 N 0.90702 0.2504 0.23805 0.0
C1090 C 0.89779 0.26483 0.2639 0.0
C1091 C 0.89716 0.241 0.26859 0.0
C1092 C 0.90424 0.26293 0.24482 0.0
C1093 C 0.90362 0.23949 0.24943 0.0
C1094 C 0.86186 0.25722 0.33601 0.0
C1095 C 0.85621 0.25659 0.31608 0.0
C1096 C 0.85358 0.25755 0.35353 0.0
C1097 C 0.84237 0.25629 0.31404 0.0
C1098 C 0.83978 0.25726 0.35083 0.0
N1099 N 0.83451 0.25663 0.33131 0.0
C1100 C 0.86758 0.2229 0.3312 0.0
C1101 C 0.86793 0.2262 0.29457 0.0
C1102 C 0.85907 0.21205 0.32901 0.0
N1103 N 0.87203 0.22954 0.31409 0.0
C1104 C 0.85935 0.21542 0.29165 0.0
C1105 C 0.85492 0.20813 0.30902 0.0
H1106 H 0.87066 0.22608 0.34658 0.0
H1107 H 0.87118 0.23198 0.28131 0.0
C1108 C 0.88544 0.29345 0.29812 0.0
N1109 N 0.87782 0.28528 0.31009 0.0
C1110 C 0.88021 0.30534 0.29034 0.0
C1111 C 0.85981 0.30079 0.309 0.0
C1112 C 0.86542 0.28899 0.31632 0.0
C1113 C 0.8671 0.30896 0.29537 0.0
H1114 H 0.89557 0.29066 0.29443 0.0
H1115 H 0.85975 0.28281 0.32678 0.0
O1116 O 0.90087 0.23995 0.33373 0.0
O1117 O 0.90306 0.27047 0.33148 0.0
O1118 O 0.88817 0.25545 0.29492 0.0
O1119 O 0.87541 0.25722 0.33841 0.0
H1120 H 0.89922 0.22976 0.37181 0.0
H1121 H 0.90039 0.21999 0.30649 0.0
H1122 H 0.89685 0.20577 0.37991 0.0
H1123 H 0.89818 0.19617 0.31571 0.0
H1124 H 0.88356 0.29981 0.3762 0.0
H1125 H 0.92317 0.28725 0.33506 0.0
H1126 H 0.88298 0.27925 0.35494 0.0
H1127 H 0.92302 0.30772 0.35674 0.0
H1128 H 0.94127 0.22961 0.28001 0.0
H1129 H 0.94703 0.2721 0.28768 0.0
H1130 H 0.87841 0.24698 0.41942 0.0
H1131 H 0.91663 0.26668 0.41549 0.0
H1132 H 0.89552 0.27478 0.26909 0.0
H1133 H 0.8946 0.23231 0.27764 0.0
H1134 H 0.90703 0.27142 0.23538 0.0
H1135 H 0.90597 0.22965 0.24365 0.0
H1136 H 0.86243 0.25637 0.30232 0.0
H1137 H 0.85776 0.2581 0.36906 0.0
H1138 H 0.83787 0.25579 0.29873 0.0
H1139 H 0.83326 0.25753 0.36425 0.0
H1140 H 0.8556 0.20693 0.34285 0.0
H1141 H 0.85631 0.21276 0.27598 0.0
H1142 H 0.8863 0.31154 0.28032 0.0
H1143 H 0.84967 0.30319 0.31335 0.0
Li1144 Li 0.735 0.89771 0.34539 0.0
Li1145 Li 0.73776 0.90771 0.31259 0.0
Li1146 Li 0.72461 0.88664 0.31575 0.0
Li1147 Li 0.74945 0.88749 0.31991 0.0
C1148 C 0.71132 0.90819 0.34194 0.0
N1149 N 0.69303 0.91528 0.37219 0.0
C1150 C 0.71296 0.91999 0.35323 0.0
C1151 C 0.70033 0.90004 0.34597 0.0
C1152 C 0.70363 0.92338 0.36848 0.0
C1153 C 0.6912 0.9038 0.36132 0.0
C1154 C 0.75869 0.91636 0.3309 0.0
C1155 C 0.77673 0.9286 0.31502 0.0
N1156 N 0.77196 0.94004 0.32357 0.0
C1157 C 0.75402 0.92824 0.33961 0.0
C1158 C 0.77015 0.91654 0.31852 0.0
C1159 C 0.76085 0.94011 0.33569 0.0
C1160 C 0.7426 0.90749 0.3849 0.0
N1161 N 0.7332 0.90016 0.37489 0.0
C1162 C 0.72285 0.89462 0.40735 0.0
C1163 C 0.72336 0.89386 0.38562 0.0
C1164 C 0.73254 0.902 0.41817 0.0
C1165 C 0.74238 0.90867 0.40657 0.0
H1166 H 0.75049 0.91217 0.37613 0.0
H1167 H 0.71613 0.88789 0.37736 0.0
C1168 C 0.74813 0.92639 0.28342 0.0
N1169 N 0.73829 0.92397 0.29748 0.0
C1170 C 0.74938 0.93897 0.27437 0.0
C1171 C 0.72974 0.94595 0.29324 0.0
C1172 C 0.72895 0.9333 0.30205 0.0
C1173 C 0.74026 0.949 0.27962 0.0
H1174 H 0.75534 0.91876 0.27987 0.0
H1175 H 0.72113 0.93105 0.31306 0.0
C1176 C 0.73771 0.87151 0.35518 0.0
N1177 N 0.74133 0.858 0.39228 0.0
C1178 C 0.74963 0.87285 0.36624 0.0
C1179 C 0.72763 0.86329 0.36296 0.0
C1180 C 0.75126 0.86594 0.38498 0.0
C1181 C 0.72966 0.85654 0.38175 0.0
C1182 C 0.74455 0.88529 0.27856 0.0
C1183 C 0.73804 0.87491 0.2682 0.0
C1184 C 0.75736 0.88902 0.27233 0.0
C1185 C 0.74451 0.86836 0.25186 0.0
C1186 C 0.7635 0.88221 0.25594 0.0
N1187 N 0.75701 0.87211 0.24614 0.0
C1188 C 0.70076 0.88317 0.29406 0.0
C1189 C 0.71008 0.8633 0.30778 0.0
C1190 C 0.69031 0.87604 0.28508 0.0
N1191 N 0.71033 0.8767 0.30509 0.0
C1192 C 0.69981 0.85577 0.29911 0.0
C1193 C 0.68979 0.86215 0.2875 0.0
H1194 H 0.70134 0.89386 0.29214 0.0
H1195 H 0.71801 0.85844 0.31629 0.0
C1196 C 0.77627 0.8807 0.32688 0.0
N1197 N 0.76499 0.8769 0.31678 0.0
C1198 C 0.78761 0.8727 0.32621 0.0
C1199 C 0.77553 0.85703 0.3047 0.0
C1200 C 0.76436 0.86523 0.30606 0.0
C1201 C 0.78729 0.86069 0.31503 0.0
H1202 H 0.77634 0.88975 0.33598 0.0
H1203 H 0.75511 0.86217 0.29891 0.0
O1204 O 0.72043 0.90462 0.32707 0.0
O1205 O 0.75193 0.90469 0.33417 0.0
O1206 O 0.73579 0.87846 0.33707 0.0
O1207 O 0.73836 0.89178 0.29463 0.0
H1208 H 0.72141 0.92641 0.3504 0.0
H1209 H 0.69893 0.89083 0.33754 0.0
H1210 H 0.70482 0.93245 0.37741 0.0
H1211 H 0.68269 0.89755 0.36467 0.0
H1212 H 0.78555 0.92888 0.30536 0.0
H1213 H 0.74512 0.92835 0.34908 0.0
H1214 H 0.77382 0.90752 0.31132 0.0
H1215 H 0.75727 0.94938 0.34221 0.0
H1216 H 0.71521 0.8891 0.41555 0.0
H1217 H 0.74995 0.91463 0.41413 0.0
H1218 H 0.75758 0.94092 0.26381 0.0
H1219 H 0.72257 0.95345 0.29788 0.0
H1220 H 0.75743 0.87935 0.36062 0.0
H1221 H 0.71828 0.86228 0.35472 0.0
H1222 H 0.7604 0.86695 0.39377 0.0
H1223 H 0.72193 0.85018 0.38801 0.0
H1224 H 0.7281 0.87193 0.27271 0.0
H1225 H 0.76264 0.89687 0.28036 0.0
H1226 H 0.7396 0.8603 0.24374 0.0
H1227 H 0.77346 0.88492 0.25109 0.0
H1228 H 0.68274 0.88133 0.27638 0.0
H1229 H 0.69991 0.84506 0.30101 0.0
H1230 H 0.79648 0.87579 0.3345 0.0
H1231 H 0.77484 0.84768 0.29632 0.0
Li1232 Li 0.08569 0.74141 0.31512 0.0
Li1233 Li 0.09691 0.73714 0.34775 0.0
Li1234 Li 0.10587 0.75378 0.32293 0.0
Li1235 Li 0.10726 0.73007 0.31566 0.0
C1236 C 0.07731 0.75673 0.34966 0.0
N1237 N 0.05455 0.76162 0.37265 0.0
C1238 C 0.06803 0.74659 0.353 0.0
C1239 C 0.075 0.76938 0.35799 0.0
C1240 C 0.05659 0.74924 0.36467 0.0
C1241 C 0.06343 0.77165 0.36957 0.0
C1242 C 0.08589 0.71256 0.33692 0.0
C1243 C 0.09043 0.69275 0.35699 0.0
N1244 N 0.07722 0.68977 0.35693 0.0
C1245 C 0.07237 0.70923 0.33687 0.0
C1246 C 0.09501 0.7042 0.34689 0.0
C1247 C 0.06818 0.69769 0.34714 0.0
C1248 C 0.06583 0.7313 0.28928 0.0
N1249 N 0.06926 0.74207 0.30092 0.0
C1250 C 0.04874 0.75283 0.29286 0.0
C1251 C 0.06118 0.75287 0.30246 0.0
C1252 C 0.04465 0.74162 0.28137 0.0
C1253 C 0.05351 0.73087 0.27927 0.0
H1254 H 0.0726 0.72295 0.28813 0.0
H1255 H 0.06427 0.7614 0.31153 0.0
C1256 C 0.10447 0.7404 0.38864 0.0
N1257 N 0.09529 0.73389 0.3769 0.0
C1258 C 0.10445 0.73914 0.41028 0.0
C1259 C 0.08539 0.72454 0.40751 0.0
C1260 C 0.08574 0.72617 0.38586 0.0
C1261 C 0.09487 0.73106 0.42004 0.0
H1262 H 0.11179 0.74669 0.38113 0.0
H1263 H 0.07832 0.72134 0.37633 0.0
C1264 C 0.098 0.75345 0.28138 0.0
N1265 N 0.09115 0.77141 0.25054 0.0
C1266 C 0.10112 0.75078 0.26056 0.0
C1267 C 0.09142 0.76527 0.28654 0.0
C1268 C 0.09757 0.75998 0.24519 0.0
C1269 C 0.08803 0.77422 0.27072 0.0
C1270 C 0.12777 0.73503 0.34301 0.0
C1271 C 0.13906 0.74083 0.33407 0.0
C1272 C 0.1292 0.72415 0.35642 0.0
C1273 C 0.15158 0.73538 0.33819 0.0
C1274 C 0.1419 0.719 0.36019 0.0
N1275 N 0.15273 0.72466 0.35103 0.0
C1276 C 0.11298 0.7799 0.3343 0.0
C1277 C 0.12393 0.7714 0.30435 0.0
C1278 C 0.12011 0.79179 0.33285 0.0
N1279 N 0.11507 0.77003 0.32021 0.0
C1280 C 0.13131 0.78309 0.30235 0.0
C1281 C 0.12952 0.79345 0.31683 0.0
H1282 H 0.10589 0.77846 0.34679 0.0
H1283 H 0.12543 0.76329 0.2935 0.0
C1284 C 0.11392 0.70445 0.29992 0.0
N1285 N 0.11797 0.71729 0.30199 0.0
C1286 C 0.12185 0.69529 0.28925 0.0
C1287 C 0.13781 0.71283 0.28274 0.0
C1288 C 0.12952 0.72165 0.29334 0.0
C1289 C 0.13401 0.69943 0.28054 0.0
H1290 H 0.10444 0.70135 0.30621 0.0
H1291 H 0.13223 0.73204 0.29454 0.0
O1292 O 0.08862 0.75436 0.33835 0.0
O1293 O 0.09014 0.72388 0.32705 0.0
O1294 O 0.10142 0.74449 0.29655 0.0
O1295 O 0.11542 0.74021 0.33908 0.0
H1296 H 0.06963 0.73679 0.34659 0.0
H1297 H 0.08204 0.77738 0.3555 0.0
H1298 H 0.04934 0.74146 0.36736 0.0
H1299 H 0.06151 0.7814 0.37611 0.0
H1300 H 0.09738 0.68623 0.36483 0.0
H1301 H 0.06517 0.7155 0.32904 0.0
H1302 H 0.10552 0.70648 0.34672 0.0
H1303 H 0.05774 0.69503 0.34732 0.0
H1304 H 0.0422 0.76128 0.29517 0.0
H1305 H 0.05087 0.72213 0.27031 0.0
H1306 H 0.11174 0.74464 0.41925 0.0
H1307 H 0.07784 0.71818 0.41431 0.0
H1308 H 0.10622 0.74167 0.25634 0.0
H1309 H 0.08894 0.76753 0.30256 0.0
H1310 H 0.09992 0.75804 0.229 0.0
H1311 H 0.08293 0.78339 0.27448 0.0
H1312 H 0.13814 0.74937 0.32388 0.0
H1313 H 0.12063 0.71981 0.36401 0.0
H1314 H 0.16039 0.73969 0.3312 0.0
H1315 H 0.14315 0.71055 0.37046 0.0
H1316 H 0.11832 0.79957 0.34422 0.0
H1317 H 0.13862 0.78382 0.28998 0.0
H1318 H 0.11835 0.68515 0.28751 0.0
H1319 H 0.14713 0.71648 0.27645 0.0
Li1320 Li 0.2558 0.10039 0.34876 0.0
Li1321 Li 0.25332 0.08902 0.31508 0.0
Li1322 Li 0.26585 0.1094 0.31719 0.0
Li1323 Li 0.24163 0.10876 0.3213 0.0
C1324 C 0.28199 0.0932 0.34093 0.0
N1325 N 0.30626 0.09495 0.36103 0.0
C1326 C 0.2911 0.08273 0.33962 0.0
C1327 C 0.28523 0.10459 0.35242 0.0
C1328 C 0.30332 0.0838 0.34991 0.0
C1329 C 0.29755 0.10527 0.36248 0.0
C1330 C 0.22666 0.09219 0.34273 0.0
C1331 C 0.20334 0.08966 0.3345 0.0
N1332 N 0.20014 0.09384 0.35404 0.0
C1333 C 0.22313 0.09633 0.3628 0.0
C1334 C 0.21669 0.08869 0.32853 0.0
C1335 C 0.20967 0.09714 0.3682 0.0
C1336 C 0.25454 0.10893 0.39022 0.0
N1337 N 0.25822 0.09856 0.37792 0.0
C1338 C 0.26566 0.08623 0.40759 0.0
C1339 C 0.26366 0.08731 0.38608 0.0
C1340 C 0.26197 0.09682 0.42074 0.0
C1341 C 0.25629 0.10826 0.41176 0.0
H1342 H 0.2501 0.11767 0.38326 0.0
H1343 H 0.26652 0.07924 0.37586 0.0
C1344 C 0.26253 0.06867 0.28834 0.0
N1345 N 0.25295 0.07213 0.3023 0.0
C1346 C 0.26237 0.05607 0.27916 0.0
C1347 C 0.24252 0.05093 0.29898 0.0
C1348 C 0.24303 0.06361 0.30767 0.0
C1349 C 0.25233 0.04696 0.28462 0.0
H1350 H 0.27032 0.07569 0.28446 0.0
H1351 H 0.23566 0.0666 0.31901 0.0
C1352 C 0.25386 0.13224 0.33439 0.0
N1353 N 0.25192 0.15919 0.32608 0.0
C1354 C 0.25178 0.1367 0.31396 0.0
C1355 C 0.25494 0.14152 0.35056 0.0
C1356 C 0.25082 0.15036 0.31009 0.0
C1357 C 0.25394 0.15509 0.34604 0.0
C1358 C 0.25057 0.09914 0.27685 0.0
C1359 C 0.26015 0.10111 0.26134 0.0
C1360 C 0.23926 0.09153 0.27239 0.0
C1361 C 0.25845 0.09513 0.24184 0.0
C1362 C 0.23792 0.08569 0.25273 0.0
N1363 N 0.24748 0.08758 0.23799 0.0
C1364 C 0.28886 0.111 0.29311 0.0
C1365 C 0.2852 0.13036 0.31342 0.0
C1366 C 0.30022 0.11664 0.28422 0.0
N1367 N 0.28139 0.11805 0.30691 0.0
C1368 C 0.29649 0.13638 0.30499 0.0
C1369 C 0.30404 0.12959 0.28991 0.0
H1370 H 0.28589 0.101 0.28887 0.0
H1371 H 0.27952 0.13558 0.32511 0.0
C1372 C 0.22015 0.12455 0.33354 0.0
N1373 N 0.22561 0.11833 0.31678 0.0
C1374 C 0.20842 0.1318 0.33138 0.0
C1375 C 0.20826 0.12635 0.29463 0.0
C1376 C 0.21999 0.11912 0.29753 0.0
C1377 C 0.20233 0.13278 0.31172 0.0
H1378 H 0.225 0.12392 0.34857 0.0
H1379 H 0.22465 0.11426 0.28442 0.0
O1380 O 0.27001 0.09227 0.33086 0.0
O1381 O 0.2398 0.09159 0.33703 0.0
O1382 O 0.25466 0.11891 0.33871 0.0
O1383 O 0.25213 0.10483 0.29612 0.0
H1384 H 0.28875 0.07387 0.33074 0.0
H1385 H 0.27833 0.11282 0.35359 0.0
H1386 H 0.31047 0.07576 0.34905 0.0
H1387 H 0.30018 0.11402 0.37144 0.0
H1388 H 0.19553 0.08709 0.3236 0.0
H1389 H 0.23066 0.09898 0.37406 0.0
H1390 H 0.21918 0.08533 0.31302 0.0
H1391 H 0.20681 0.10042 0.38363 0.0
H1392 H 0.2702 0.07729 0.41379 0.0
H1393 H 0.25303 0.11654 0.42128 0.0
H1394 H 0.27008 0.05345 0.26809 0.0
H1395 H 0.23478 0.04415 0.30406 0.0
H1396 H 0.25091 0.12975 0.30119 0.0
H1397 H 0.25658 0.13827 0.36645 0.0
H1398 H 0.24921 0.15393 0.29437 0.0
H1399 H 0.25478 0.16236 0.35842 0.0
H1400 H 0.26875 0.1073 0.2642 0.0
H1401 H 0.23168 0.09002 0.28407 0.0
H1402 H 0.26583 0.09653 0.22975 0.0
H1403 H 0.22929 0.07966 0.24919 0.0
H1404 H 0.30593 0.11095 0.273 0.0
H1405 H 0.29906 0.14639 0.30983 0.0
H1406 H 0.20432 0.13683 0.34487 0.0
H1407 H 0.20387 0.12688 0.27922 0.0
Li1408 Li 0.59671 0.75685 0.84824 0.0
Li1409 Li 0.60551 0.74102 0.82136 0.0
Li1410 Li 0.60566 0.76469 0.81523 0.0
Li1411 Li 0.58543 0.75273 0.81357 0.0
C1412 C 0.62766 0.75958 0.83601 0.0
N1413 N 0.65287 0.77008 0.83071 0.0
C1414 C 0.63667 0.75348 0.82243 0.0
C1415 C 0.63147 0.77102 0.84691 0.0
C1416 C 0.64938 0.75894 0.81997 0.0
C1417 C 0.64427 0.77617 0.84402 0.0
C1418 C 0.58846 0.72726 0.844 0.0
C1419 C 0.58599 0.70372 0.83758 0.0
N1420 N 0.58933 0.70119 0.85776 0.0
C1421 C 0.59182 0.72443 0.8647 0.0
C1422 C 0.58546 0.71683 0.83035 0.0
C1423 C 0.59221 0.71118 0.87135 0.0
C1424 C 0.58181 0.75843 0.88531 0.0
N1425 N 0.59425 0.7596 0.87717 0.0
C1426 C 0.60351 0.76308 0.91103 0.0
C1427 C 0.60502 0.76186 0.88949 0.0
C1428 C 0.59082 0.76167 0.91995 0.0
C1429 C 0.57986 0.75936 0.90685 0.0
H1430 H 0.57346 0.75648 0.87509 0.0
H1431 H 0.61484 0.76238 0.88267 0.0
C1432 C 0.6177 0.72003 0.79902 0.0
N1433 N 0.61535 0.72505 0.81835 0.0
C1434 C 0.62569 0.70879 0.79658 0.0
C1435 C 0.62865 0.70807 0.83401 0.0
C1436 C 0.62068 0.71939 0.8357 0.0
C1437 C 0.63135 0.70272 0.81421 0.0
H1438 H 0.61367 0.72496 0.78545 0.0
H1439 H 0.61898 0.72386 0.85081 0.0
C1440 C 0.58802 0.78334 0.82816 0.0
N1441 N 0.58687 0.81083 0.82732 0.0
C1442 C 0.58609 0.79003 0.80928 0.0
C1443 C 0.58928 0.79062 0.84664 0.0
C1444 C 0.58557 0.80393 0.80917 0.0
C1445 C 0.58869 0.80452 0.84589 0.0
C1446 C 0.59501 0.74883 0.77654 0.0
C1447 C 0.59413 0.7595 0.76257 0.0
C1448 C 0.58928 0.73659 0.77128 0.0
C1449 C 0.58753 0.75773 0.74359 0.0
C1450 C 0.58273 0.73524 0.75216 0.0
N1451 N 0.58201 0.74575 0.73883 0.0
C1452 C 0.62299 0.77435 0.78517 0.0
C1453 C 0.61874 0.79034 0.8115 0.0
C1454 C 0.63176 0.78299 0.77519 0.0
N1455 N 0.61654 0.77818 0.8028 0.0
C1456 C 0.62743 0.79935 0.80199 0.0
C1457 C 0.63408 0.79568 0.7836 0.0
H1458 H 0.62149 0.76445 0.77899 0.0
H1459 H 0.61408 0.79295 0.8261 0.0
C1460 C 0.56027 0.74127 0.80704 0.0
N1461 N 0.56838 0.75136 0.80091 0.0
C1462 C 0.5476 0.73994 0.79841 0.0
C1463 C 0.55191 0.75933 0.7771 0.0
C1464 C 0.56443 0.76037 0.78635 0.0
C1465 C 0.54323 0.74907 0.78326 0.0
H1466 H 0.56354 0.73439 0.81893 0.0
H1467 H 0.57098 0.76839 0.7819 0.0
O1468 O 0.61504 0.7546 0.83815 0.0
O1469 O 0.58822 0.74017 0.83711 0.0
O1470 O 0.58842 0.76974 0.82869 0.0
O1471 O 0.60133 0.75038 0.79531 0.0
H1472 H 0.63386 0.74473 0.81365 0.0
H1473 H 0.62454 0.77607 0.8571 0.0
H1474 H 0.65643 0.75435 0.80943 0.0
H1475 H 0.64731 0.78508 0.85222 0.0
H1476 H 0.58376 0.69556 0.82714 0.0
H1477 H 0.59424 0.73234 0.87549 0.0
H1478 H 0.58285 0.71883 0.81429 0.0
H1479 H 0.59485 0.70884 0.88729 0.0
H1480 H 0.61222 0.76465 0.92069 0.0
H1481 H 0.56993 0.75822 0.9132 0.0
H1482 H 0.62755 0.70496 0.78105 0.0
H1483 H 0.63305 0.70386 0.84795 0.0
H1484 H 0.58527 0.78457 0.79481 0.0
H1485 H 0.59073 0.7856 0.86141 0.0
H1486 H 0.58419 0.80925 0.79465 0.0
H1487 H 0.58968 0.81028 0.86005 0.0
H1488 H 0.59827 0.76912 0.76647 0.0
H1489 H 0.58975 0.72826 0.78192 0.0
H1490 H 0.58672 0.76592 0.73269 0.0
H1491 H 0.5782 0.72584 0.74796 0.0
H1492 H 0.63664 0.77976 0.76101 0.0
H1493 H 0.62919 0.80892 0.80925 0.0
H1494 H 0.54117 0.73208 0.80409 0.0
H1495 H 0.54904 0.76654 0.76537 0.0
Li1496 Li 0.25066 0.60688 0.82373 0.0
Li1497 Li 0.23526 0.59731 0.85065 0.0
Li1498 Li 0.23986 0.58638 0.81586 0.0
Li1499 Li 0.22702 0.60596 0.81774 0.0
C1500 C 0.26509 0.59039 0.84677 0.0
N1501 N 0.29091 0.59238 0.86138 0.0
C1502 C 0.2675 0.59383 0.86756 0.0
C1503 C 0.27582 0.58783 0.83347 0.0
C1504 C 0.28062 0.59481 0.87464 0.0
C1505 C 0.2888 0.58893 0.84113 0.0
C1506 C 0.23118 0.62808 0.8388 0.0
C1507 C 0.21462 0.64427 0.84877 0.0
N1508 N 0.21958 0.65286 0.83432 0.0
C1509 C 0.23613 0.63707 0.82408 0.0
C1510 C 0.22035 0.63169 0.85128 0.0
C1511 C 0.23012 0.64956 0.82204 0.0
C1512 C 0.27122 0.62032 0.80192 0.0
N1513 N 0.26611 0.61756 0.82107 0.0
C1514 C 0.28232 0.63145 0.83746 0.0
C1515 C 0.27133 0.623 0.83867 0.0
C1516 C 0.28782 0.63449 0.81789 0.0
C1517 C 0.28217 0.62878 0.79996 0.0
H1518 H 0.26662 0.61621 0.78813 0.0
H1519 H 0.26677 0.62096 0.85362 0.0
C1520 C 0.23079 0.58261 0.88766 0.0
N1521 N 0.23232 0.59502 0.87953 0.0
C1522 C 0.22908 0.58094 0.90915 0.0
C1523 C 0.23047 0.60485 0.91328 0.0
C1524 C 0.23226 0.60604 0.89181 0.0
C1525 C 0.22889 0.59217 0.92222 0.0
H1526 H 0.23098 0.57404 0.87746 0.0
H1527 H 0.23383 0.61574 0.88495 0.0
C1528 C 0.24391 0.59614 0.77904 0.0
N1529 N 0.24884 0.58316 0.74179 0.0
C1530 C 0.23372 0.59453 0.76438 0.0
C1531 C 0.25661 0.59115 0.7747 0.0
C1532 C 0.23641 0.58795 0.74564 0.0
C1533 C 0.2589 0.5846 0.75581 0.0
C1534 C 0.20921 0.58741 0.83013 0.0
C1535 C 0.20282 0.5857 0.81094 0.0
C1536 C 0.20167 0.58784 0.84845 0.0
C1537 C 0.18896 0.58454 0.81038 0.0
C1538 C 0.18783 0.58662 0.84724 0.0
N1539 N 0.18182 0.58502 0.82839 0.0
C1540 C 0.25212 0.56153 0.80906 0.0
C1541 C 0.23285 0.56534 0.7886 0.0
C1542 C 0.25356 0.54884 0.80053 0.0
N1543 N 0.24185 0.56944 0.80307 0.0
C1544 C 0.23401 0.55283 0.77943 0.0
C1545 C 0.24435 0.54428 0.78562 0.0
H1546 H 0.25902 0.56495 0.82083 0.0
H1547 H 0.22471 0.57175 0.78422 0.0
C1548 C 0.21515 0.62178 0.78715 0.0
N1549 N 0.21273 0.616 0.80593 0.0
C1550 C 0.20531 0.62925 0.7773 0.0
C1551 C 0.19084 0.62531 0.80681 0.0
C1552 C 0.20098 0.61788 0.81608 0.0
C1553 C 0.19292 0.63097 0.78705 0.0
H1554 H 0.2248 0.62071 0.77991 0.0
H1555 H 0.19949 0.61371 0.83143 0.0
O1556 O 0.25231 0.58958 0.83946 0.0
O1557 O 0.23669 0.61568 0.84059 0.0
O1558 O 0.24145 0.60245 0.7976 0.0
O1559 O 0.22277 0.58848 0.83109 0.0
H1560 H 0.25934 0.59584 0.87811 0.0
H1561 H 0.27416 0.58508 0.81739 0.0
H1562 H 0.28262 0.59753 0.89066 0.0
H1563 H 0.29719 0.58706 0.83097 0.0
H1564 H 0.20618 0.64716 0.85822 0.0
H1565 H 0.2444 0.63439 0.81413 0.0
H1566 H 0.21626 0.62477 0.86252 0.0
H1567 H 0.23381 0.65659 0.81064 0.0
H1568 H 0.28619 0.63587 0.85162 0.0
H1569 H 0.28611 0.63088 0.78459 0.0
H1570 H 0.22786 0.57101 0.91545 0.0
H1571 H 0.23066 0.61373 0.92286 0.0
H1572 H 0.22375 0.59805 0.76755 0.0
H1573 H 0.26459 0.5922 0.78586 0.0
H1574 H 0.2286 0.58658 0.73423 0.0
H1575 H 0.26866 0.58065 0.75231 0.0
H1576 H 0.20845 0.5856 0.79659 0.0
H1577 H 0.20643 0.58915 0.86344 0.0
H1578 H 0.18388 0.58334 0.79562 0.0
H1579 H 0.18187 0.58697 0.86128 0.0
H1580 H 0.26152 0.54251 0.80616 0.0
H1581 H 0.22677 0.54983 0.76783 0.0
H1582 H 0.20747 0.63381 0.76236 0.0
H1583 H 0.18146 0.6265 0.81492 0.0
Li1584 Li 0.38587 0.25321 0.82394 0.0
Li1585 Li 0.39335 0.23956 0.85377 0.0
Li1586 Li 0.40467 0.23952 0.82002 0.0
Li1587 Li 0.38265 0.22949 0.82275 0.0
C1588 C 0.41541 0.25919 0.84023 0.0
N1589 N 0.44171 0.2673 0.84001 0.0
C1590 C 0.42376 0.25602 0.85695 0.0
C1591 C 0.4204 0.2666 0.8235 0.0
C1592 C 0.43704 0.26019 0.85653 0.0
C1593 C 0.43373 0.27056 0.82364 0.0
C1594 C 0.36572 0.23671 0.85641 0.0
C1595 C 0.35926 0.21942 0.88051 0.0
N1596 N 0.34766 0.22598 0.88426 0.0
C1597 C 0.35376 0.24331 0.86056 0.0
C1598 C 0.36852 0.22469 0.8665 0.0
C1599 C 0.34474 0.23771 0.87465 0.0
C1600 C 0.36401 0.26845 0.81321 0.0
N1601 N 0.37727 0.26935 0.81708 0.0
C1602 C 0.37691 0.29282 0.81111 0.0
C1603 C 0.38382 0.28119 0.81618 0.0
C1604 C 0.36318 0.29218 0.80697 0.0
C1605 C 0.35674 0.27977 0.80803 0.0
H1606 H 0.35909 0.25889 0.81422 0.0
H1607 H 0.39435 0.2816 0.81949 0.0
C1608 C 0.40448 0.23045 0.89174 0.0
N1609 N 0.39513 0.23854 0.88311 0.0
C1610 C 0.40545 0.22931 0.91341 0.0
C1611 C 0.38704 0.24471 0.91675 0.0
C1612 C 0.38662 0.24578 0.89508 0.0
C1613 C 0.39652 0.23638 0.9261 0.0
H1614 H 0.41113 0.22486 0.88177 0.0
H1615 H 0.37938 0.25223 0.88776 0.0
C1616 C 0.38377 0.24784 0.78462 0.0
N1617 N 0.37115 0.26233 0.75373 0.0
C1618 C 0.37108 0.24414 0.77776 0.0
C1619 C 0.39006 0.25889 0.77568 0.0
C1620 C 0.36487 0.25159 0.76213 0.0
C1621 C 0.3835 0.26609 0.76012 0.0
C1622 C 0.40229 0.21103 0.83433 0.0
C1623 C 0.40748 0.20687 0.81518 0.0
C1624 C 0.40034 0.20172 0.85026 0.0
C1625 C 0.41045 0.19342 0.81217 0.0
C1626 C 0.40344 0.18836 0.84664 0.0
N1627 N 0.40838 0.18451 0.82783 0.0
C1628 C 0.43122 0.23177 0.82024 0.0
C1629 C 0.42422 0.24097 0.78796 0.0
C1630 C 0.44405 0.22994 0.81256 0.0
N1631 N 0.42168 0.23729 0.80797 0.0
C1632 C 0.43697 0.23943 0.77966 0.0
C1633 C 0.44706 0.23387 0.79206 0.0
H1634 H 0.42885 0.2289 0.83608 0.0
H1635 H 0.41637 0.24515 0.7785 0.0
C1636 C 0.35925 0.21292 0.81879 0.0
N1637 N 0.37174 0.21556 0.81171 0.0
C1638 C 0.35136 0.20341 0.80891 0.0
C1639 C 0.36918 0.19957 0.78433 0.0
C1640 C 0.37673 0.20916 0.79472 0.0
C1641 C 0.35626 0.19669 0.79131 0.0
H1642 H 0.35511 0.21843 0.83163 0.0
H1643 H 0.3864 0.21189 0.7887 0.0
O1644 O 0.40248 0.25489 0.84011 0.0
O1645 O 0.37479 0.24227 0.84309 0.0
O1646 O 0.38989 0.24086 0.80025 0.0
O1647 O 0.3994 0.22418 0.83769 0.0
H1648 H 0.42008 0.25031 0.87003 0.0
H1649 H 0.41411 0.26905 0.81035 0.0
H1650 H 0.44363 0.25775 0.86932 0.0
H1651 H 0.43776 0.27619 0.8107 0.0
H1652 H 0.36131 0.21012 0.88841 0.0
H1653 H 0.35149 0.25269 0.85302 0.0
H1654 H 0.37773 0.21949 0.86351 0.0
H1655 H 0.33544 0.2427 0.878 0.0
H1656 H 0.38224 0.30219 0.8104 0.0
H1657 H 0.34613 0.27885 0.8054 0.0
H1658 H 0.41288 0.22279 0.92018 0.0
H1659 H 0.38009 0.2504 0.92612 0.0
H1660 H 0.36598 0.23572 0.78459 0.0
H1661 H 0.39978 0.26203 0.78098 0.0
H1662 H 0.35503 0.24887 0.75675 0.0
H1663 H 0.38821 0.27472 0.75321 0.0
H1664 H 0.40909 0.21391 0.80267 0.0
H1665 H 0.39653 0.20477 0.8653 0.0
H1666 H 0.4144 0.19006 0.79738 0.0
H1667 H 0.40195 0.18104 0.85882 0.0
H1668 H 0.45161 0.22581 0.82272 0.0
H1669 H 0.43892 0.2425 0.76376 0.0
H1670 H 0.34145 0.20147 0.81484 0.0
H1671 H 0.37323 0.19487 0.77052 0.0
Li1672 Li 0.75108 0.39298 0.84949 0.0
Li1673 Li 0.73738 0.38593 0.81977 0.0
Li1674 Li 0.76127 0.38435 0.81736 0.0
Li1675 Li 0.74951 0.40562 0.81758 0.0
C1676 C 0.75675 0.36592 0.8484 0.0
N1677 N 0.77136 0.34779 0.87134 0.0
C1678 C 0.75174 0.35315 0.85201 0.0
C1679 C 0.76921 0.36947 0.8564 0.0
C1680 C 0.75927 0.34412 0.86367 0.0
C1681 C 0.77644 0.36016 0.86797 0.0
C1682 C 0.72976 0.41412 0.8403 0.0
C1683 C 0.71643 0.43244 0.82774 0.0
N1684 N 0.72001 0.43972 0.84473 0.0
C1685 C 0.7332 0.42174 0.85773 0.0
C1686 C 0.7212 0.41947 0.82528 0.0
C1687 C 0.7282 0.43467 0.85966 0.0
C1688 C 0.75981 0.403 0.88845 0.0
N1689 N 0.75258 0.39331 0.87895 0.0
C1690 C 0.74723 0.38349 0.9118 0.0
C1691 C 0.74629 0.38369 0.89011 0.0
C1692 C 0.75444 0.3935 0.92224 0.0
C1693 C 0.76076 0.40338 0.91018 0.0
H1694 H 0.76463 0.41058 0.87913 0.0
H1695 H 0.74059 0.3761 0.88212 0.0
C1696 C 0.72352 0.36365 0.80646 0.0
N1697 N 0.72179 0.37642 0.81281 0.0
C1698 C 0.71254 0.35573 0.80178 0.0
C1699 C 0.69818 0.37435 0.81001 0.0
C1700 C 0.70948 0.38191 0.81461 0.0
C1701 C 0.69964 0.36102 0.80368 0.0
H1702 H 0.73347 0.35957 0.80535 0.0
H1703 H 0.70843 0.39209 0.81982 0.0
C1704 C 0.77697 0.4071 0.82606 0.0
N1705 N 0.79902 0.42046 0.81098 0.0
C1706 C 0.77831 0.40948 0.80466 0.0
C1707 C 0.78683 0.41154 0.83978 0.0
C1708 C 0.78953 0.41626 0.79735 0.0
C1709 C 0.79792 0.41826 0.83185 0.0
C1710 C 0.74159 0.38715 0.77956 0.0
C1711 C 0.7461 0.37646 0.76753 0.0
C1712 C 0.72947 0.39322 0.77458 0.0
C1713 C 0.73826 0.37179 0.75109 0.0
C1714 C 0.72189 0.38825 0.75805 0.0
N1715 N 0.7264 0.37771 0.74675 0.0
C1716 C 0.77096 0.36084 0.80113 0.0
C1717 C 0.78812 0.37683 0.80525 0.0
C1718 C 0.77988 0.3518 0.79239 0.0
N1719 N 0.77511 0.37318 0.80693 0.0
C1720 C 0.79737 0.36815 0.79637 0.0
C1721 C 0.79323 0.35552 0.7896 0.0
H1722 H 0.7606 0.35812 0.80294 0.0
H1723 H 0.79141 0.38643 0.81067 0.0
C1724 C 0.75534 0.43259 0.82055 0.0
N1725 N 0.75026 0.4233 0.80737 0.0
C1726 C 0.75695 0.44567 0.81392 0.0
C1727 C 0.74793 0.43947 0.78029 0.0
C1728 C 0.74658 0.42642 0.78756 0.0
C1729 C 0.75331 0.44922 0.79352 0.0
H1730 H 0.75826 0.42976 0.83617 0.0
H1731 H 0.74279 0.41878 0.77731 0.0
O1732 O 0.74948 0.37481 0.8369 0.0
O1733 O 0.73481 0.40154 0.83793 0.0
O1734 O 0.76589 0.40086 0.83374 0.0
O1735 O 0.74904 0.39172 0.79598 0.0
H1736 H 0.74212 0.35025 0.84586 0.0
H1737 H 0.77329 0.37929 0.85371 0.0
H1738 H 0.75551 0.3342 0.8666 0.0
H1739 H 0.78608 0.36277 0.87427 0.0
H1740 H 0.70989 0.43673 0.81613 0.0
H1741 H 0.73972 0.41778 0.86958 0.0
H1742 H 0.71835 0.41374 0.81175 0.0
H1743 H 0.73086 0.4407 0.87301 0.0
H1744 H 0.74243 0.37547 0.92022 0.0
H1745 H 0.76622 0.41145 0.91738 0.0
H1746 H 0.71415 0.34545 0.79736 0.0
H1747 H 0.68844 0.37886 0.81152 0.0
H1748 H 0.77081 0.40612 0.79377 0.0
H1749 H 0.78591 0.40984 0.85639 0.0
H1750 H 0.79069 0.41817 0.78084 0.0
H1751 H 0.80563 0.42174 0.84228 0.0
H1752 H 0.7556 0.37185 0.77072 0.0
H1753 H 0.72585 0.40155 0.78358 0.0
H1754 H 0.74161 0.36348 0.74174 0.0
H1755 H 0.71242 0.39277 0.75422 0.0
H1756 H 0.77629 0.34216 0.7873 0.0
H1757 H 0.80765 0.37126 0.79484 0.0
H1758 H 0.76094 0.45296 0.8247 0.0
H1759 H 0.74508 0.44184 0.76443 0.0
Li1760 Li 0.58773 0.2414 0.18328 0.0
Li1761 Li 0.60762 0.2281 0.18312 0.0
Li1762 Li 0.60857 0.25227 0.17808 0.0
Li1763 Li 0.60027 0.23764 0.15009 0.0
C1764 C 0.5966 0.24299 0.2217 0.0
N1765 N 0.58304 0.24401 0.25918 0.0
C1766 C 0.59571 0.23165 0.23428 0.0
C1767 C 0.59067 0.25487 0.22825 0.0
C1768 C 0.5888 0.23237 0.25316 0.0
C1769 C 0.58382 0.25517 0.24722 0.0
C1770 C 0.58849 0.21214 0.15996 0.0
C1771 C 0.59467 0.19403 0.13724 0.0
N1772 N 0.58367 0.18719 0.14344 0.0
C1773 C 0.5772 0.20497 0.166 0.0
C1774 C 0.59726 0.20667 0.14538 0.0
C1775 C 0.57496 0.19236 0.15752 0.0
C1776 C 0.56264 0.25312 0.19201 0.0
N1777 N 0.5706 0.2424 0.1953 0.0
C1778 C 0.55398 0.23196 0.21629 0.0
C1779 C 0.56657 0.23194 0.20716 0.0
C1780 C 0.54539 0.24278 0.21291 0.0
C1781 C 0.54991 0.25353 0.20073 0.0
H1782 H 0.56607 0.26123 0.18232 0.0
H1783 H 0.57314 0.22353 0.20942 0.0
C1784 C 0.62636 0.21758 0.20985 0.0
N1785 N 0.61636 0.21376 0.1969 0.0
C1786 C 0.63331 0.20818 0.22151 0.0
C1787 C 0.61922 0.19102 0.20699 0.0
C1788 C 0.61264 0.20077 0.19536 0.0
C1789 C 0.62972 0.19467 0.22031 0.0
H1790 H 0.62883 0.22801 0.21132 0.0
H1791 H 0.60442 0.19794 0.18552 0.0
C1792 C 0.5926 0.26743 0.15543 0.0
N1793 N 0.59452 0.29396 0.14439 0.0
C1794 C 0.59645 0.27098 0.13523 0.0
C1795 C 0.58961 0.27737 0.16997 0.0
C1796 C 0.59737 0.28445 0.12996 0.0
C1797 C 0.59069 0.29072 0.1641 0.0
C1798 C 0.63103 0.23365 0.16475 0.0
C1799 C 0.64017 0.24066 0.17702 0.0
C1800 C 0.63491 0.22167 0.15543 0.0
C1801 C 0.65296 0.23551 0.17993 0.0
C1802 C 0.64778 0.21684 0.15874 0.0
N1803 N 0.65646 0.22379 0.17082 0.0
C1804 C 0.62029 0.27258 0.20268 0.0
C1805 C 0.62455 0.27387 0.16634 0.0
C1806 C 0.62829 0.28371 0.2063 0.0
N1807 N 0.6186 0.26793 0.18295 0.0
C1808 C 0.63249 0.28509 0.1692 0.0
C1809 C 0.63453 0.29007 0.18942 0.0
H1810 H 0.61566 0.26749 0.21564 0.0
H1811 H 0.6233 0.26971 0.1509 0.0
C1812 C 0.58747 0.23697 0.11071 0.0
N1813 N 0.5993 0.23562 0.12077 0.0
C1814 C 0.58699 0.23657 0.08892 0.0
C1815 C 0.61081 0.23305 0.08845 0.0
C1816 C 0.61084 0.23363 0.11018 0.0
C1817 C 0.5988 0.23474 0.07747 0.0
H1818 H 0.57848 0.23869 0.11961 0.0
H1819 H 0.62011 0.2327 0.1186 0.0
O1820 O 0.60313 0.24244 0.20298 0.0
O1821 O 0.59076 0.22454 0.16805 0.0
O1822 O 0.59182 0.2543 0.16098 0.0
O1823 O 0.61838 0.23846 0.16191 0.0
H1824 H 0.60016 0.22235 0.22943 0.0
H1825 H 0.5912 0.26372 0.21868 0.0
H1826 H 0.58798 0.22365 0.263 0.0
H1827 H 0.57911 0.26427 0.25241 0.0
H1828 H 0.6014 0.18967 0.12598 0.0
H1829 H 0.57024 0.2091 0.17714 0.0
H1830 H 0.60596 0.2121 0.14044 0.0
H1831 H 0.56628 0.18668 0.16211 0.0
H1832 H 0.55097 0.22353 0.22572 0.0
H1833 H 0.54354 0.26196 0.19737 0.0
H1834 H 0.64144 0.2115 0.23129 0.0
H1835 H 0.61592 0.18078 0.20584 0.0
H1836 H 0.59883 0.26343 0.12379 0.0
H1837 H 0.58666 0.2748 0.18568 0.0
H1838 H 0.60041 0.28735 0.11441 0.0
H1839 H 0.5885 0.29852 0.17523 0.0
H1840 H 0.63741 0.24988 0.18453 0.0
H1841 H 0.62807 0.2161 0.1458 0.0
H1842 H 0.66008 0.2408 0.1895 0.0
H1843 H 0.65086 0.20755 0.15169 0.0
H1844 H 0.62965 0.28725 0.22212 0.0
H1845 H 0.63735 0.28956 0.15583 0.0
H1846 H 0.57753 0.2381 0.08117 0.0
H1847 H 0.62012 0.23136 0.08037 0.0
Li1848 Li 0.76729 0.60815 0.18061 0.0
Li1849 Li 0.75555 0.58739 0.18203 0.0
Li1850 Li 0.75738 0.59966 0.14902 0.0
Li1851 Li 0.74284 0.60773 0.17657 0.0
C1852 C 0.78527 0.59082 0.16316 0.0
N1853 N 0.81263 0.58996 0.15862 0.0
C1854 C 0.7927 0.58102 0.1734 0.0
C1855 C 0.79175 0.60009 0.15048 0.0
C1856 C 0.80652 0.58077 0.17094 0.0
C1857 C 0.80558 0.59952 0.14841 0.0
C1858 C 0.75941 0.6004 0.22047 0.0
C1859 C 0.76035 0.60403 0.25763 0.0
N1860 N 0.77129 0.59609 0.25876 0.0
C1861 C 0.77063 0.59225 0.22202 0.0
C1862 C 0.75419 0.60633 0.23842 0.0
C1863 C 0.77651 0.5902 0.2415 0.0
C1864 C 0.77876 0.63192 0.19312 0.0
N1865 N 0.78118 0.61862 0.19226 0.0
C1866 C 0.80202 0.6215 0.20965 0.0
C1867 C 0.7925 0.6133 0.20039 0.0
C1868 C 0.79978 0.63529 0.2108 0.0
C1869 C 0.78797 0.64048 0.20232 0.0
H1870 H 0.76954 0.63584 0.18695 0.0
H1871 H 0.7941 0.60269 0.20006 0.0
C1872 C 0.76197 0.56066 0.18314 0.0
N1873 N 0.75525 0.57019 0.1938 0.0
C1874 C 0.76272 0.54776 0.19098 0.0
C1875 C 0.74923 0.55463 0.22036 0.0
C1876 C 0.74889 0.56748 0.21205 0.0
C1877 C 0.75632 0.54464 0.20983 0.0
H1878 H 0.76679 0.56312 0.16855 0.0
H1879 H 0.74362 0.5753 0.2202 0.0
C1880 C 0.75679 0.62687 0.14469 0.0
N1881 N 0.7581 0.64499 0.11229 0.0
C1882 C 0.74514 0.63127 0.13498 0.0
C1883 C 0.76909 0.63192 0.13824 0.0
C1884 C 0.74601 0.64036 0.11853 0.0
C1885 C 0.76955 0.64102 0.12175 0.0
C1886 C 0.73005 0.58396 0.16631 0.0
C1887 C 0.72371 0.57577 0.15176 0.0
C1888 C 0.72489 0.58504 0.18649 0.0
C1889 C 0.71229 0.56877 0.15766 0.0
C1890 C 0.71346 0.57787 0.19179 0.0
N1891 N 0.70745 0.56995 0.17739 0.0
C1892 C 0.76904 0.59258 0.10985 0.0
C1893 C 0.74779 0.60277 0.10849 0.0
C1894 C 0.76952 0.59187 0.08811 0.0
N1895 N 0.75839 0.59821 0.11952 0.0
C1896 C 0.74787 0.60235 0.08675 0.0
C1897 C 0.75888 0.5969 0.07623 0.0
H1898 H 0.77712 0.58854 0.11896 0.0
H1899 H 0.73925 0.60677 0.11661 0.0
C1900 C 0.72687 0.62565 0.19844 0.0
N1901 N 0.72708 0.61732 0.18177 0.0
C1902 C 0.71601 0.63404 0.20168 0.0
C1903 C 0.70567 0.62488 0.17076 0.0
C1904 C 0.71672 0.61661 0.16819 0.0
C1905 C 0.70535 0.63394 0.18746 0.0
H1906 H 0.73534 0.62605 0.20884 0.0
H1907 H 0.71728 0.60998 0.15491 0.0
O1908 O 0.77172 0.5913 0.16554 0.0
O1909 O 0.75349 0.6026 0.20155 0.0
O1910 O 0.75613 0.61795 0.16081 0.0
O1911 O 0.74127 0.59082 0.1607 0.0
H1912 H 0.78788 0.57374 0.1833 0.0
H1913 H 0.78614 0.60759 0.14221 0.0
H1914 H 0.8124 0.57329 0.17886 0.0
H1915 H 0.81072 0.60666 0.13867 0.0
H1916 H 0.75642 0.60857 0.27165 0.0
H1917 H 0.77477 0.58755 0.20833 0.0
H1918 H 0.74547 0.61263 0.23752 0.0
H1919 H 0.78522 0.58392 0.24289 0.0
H1920 H 0.81101 0.61708 0.21587 0.0
H1921 H 0.78568 0.651 0.20324 0.0
H1922 H 0.76806 0.54024 0.1822 0.0
H1923 H 0.74416 0.55255 0.23491 0.0
H1924 H 0.73552 0.6276 0.13992 0.0
H1925 H 0.77818 0.62898 0.14599 0.0
H1926 H 0.73707 0.64374 0.11073 0.0
H1927 H 0.77901 0.64496 0.11654 0.0
H1928 H 0.72759 0.57484 0.13606 0.0
H1929 H 0.72965 0.59133 0.19797 0.0
H1930 H 0.70729 0.56238 0.14656 0.0
H1931 H 0.70937 0.57861 0.20736 0.0
H1932 H 0.77805 0.58727 0.08072 0.0
H1933 H 0.73947 0.60643 0.07831 0.0
H1934 H 0.7161 0.64074 0.21492 0.0
H1935 H 0.69778 0.62459 0.15926 0.0
Li1936 Li 0.4088 0.75222 0.18601 0.0
Li1937 Li 0.38779 0.76232 0.18312 0.0
Li1938 Li 0.39004 0.73866 0.17857 0.0
Li1939 Li 0.39779 0.75449 0.15078 0.0
C1940 C 0.39957 0.74846 0.22288 0.0
N1941 N 0.41327 0.74756 0.26028 0.0
C1942 C 0.40027 0.75975 0.23561 0.0
C1943 C 0.40586 0.73671 0.22923 0.0
C1944 C 0.40722 0.75909 0.25446 0.0
C1945 C 0.41275 0.73646 0.24816 0.0
C1946 C 0.40348 0.78218 0.16945 0.0
C1947 C 0.40067 0.80277 0.15055 0.0
N1948 N 0.40132 0.80962 0.16882 0.0
C1949 C 0.40417 0.78944 0.18804 0.0
C1950 C 0.40175 0.7889 0.15054 0.0
C1951 C 0.40303 0.8033 0.1874 0.0
C1952 C 0.43413 0.7422 0.19617 0.0
N1953 N 0.4257 0.75258 0.19932 0.0
C1954 C 0.44154 0.76332 0.22143 0.0
C1955 C 0.42916 0.76304 0.21162 0.0
C1956 C 0.45055 0.75283 0.21823 0.0
C1957 C 0.44666 0.74211 0.20551 0.0
H1958 H 0.43122 0.73409 0.1861 0.0
H1959 H 0.42231 0.77117 0.21387 0.0
C1960 C 0.37039 0.77263 0.21301 0.0
N1961 N 0.3757 0.7753 0.19397 0.0
C1962 C 0.36172 0.78163 0.22241 0.0
C1963 C 0.36344 0.79565 0.19187 0.0
C1964 C 0.3721 0.78635 0.18307 0.0
C1965 C 0.3583 0.79342 0.21194 0.0
H1966 H 0.37286 0.76345 0.22092 0.0
H1967 H 0.37594 0.78798 0.16755 0.0
C1968 C 0.40824 0.7258 0.15706 0.0
N1969 N 0.40925 0.69942 0.1448 0.0
C1970 C 0.40615 0.72236 0.13619 0.0
C1971 C 0.411 0.71581 0.17165 0.0
C1972 C 0.40667 0.70897 0.13031 0.0
C1973 C 0.41141 0.70254 0.16516 0.0
C1974 C 0.36681 0.75506 0.16096 0.0
C1975 C 0.35795 0.74987 0.17568 0.0
C1976 C 0.36244 0.7647 0.14679 0.0
C1977 C 0.34483 0.75449 0.17606 0.0
C1978 C 0.34923 0.76905 0.14768 0.0
N1979 N 0.34078 0.7639 0.16218 0.0
C1980 C 0.37921 0.7167 0.20079 0.0
C1981 C 0.37628 0.71643 0.16409 0.0
C1982 C 0.37193 0.70493 0.20279 0.0
N1983 N 0.38122 0.72215 0.18165 0.0
C1984 C 0.36896 0.70467 0.16534 0.0
C1985 C 0.36658 0.69884 0.18492 0.0
H1986 H 0.38295 0.72164 0.21454 0.0
H1987 H 0.37779 0.72119 0.14914 0.0
C1988 C 0.41131 0.76103 0.11317 0.0
N1989 N 0.39973 0.75656 0.12165 0.0
C1990 C 0.41281 0.76154 0.09149 0.0
C1991 C 0.39046 0.75284 0.08788 0.0
C1992 C 0.38937 0.75258 0.10954 0.0
C1993 C 0.40235 0.75723 0.07859 0.0
H1994 H 0.41943 0.76399 0.12325 0.0
H1995 H 0.38037 0.74888 0.11675 0.0
O1996 O 0.39296 0.74895 0.20419 0.0
O1997 O 0.4047 0.76861 0.16968 0.0
O1998 O 0.40754 0.73884 0.1632 0.0
O1999 O 0.37977 0.75093 0.16071 0.0
H2000 H 0.39572 0.76902 0.23086 0.0
H2001 H 0.40558 0.72792 0.21954 0.0
H2002 H 0.40788 0.76777 0.26439 0.0
H2003 H 0.41771 0.72745 0.25318 0.0
H2004 H 0.39929 0.80809 0.13603 0.0
H2005 H 0.40525 0.78443 0.20285 0.0
H2006 H 0.40116 0.78347 0.13601 0.0
H2007 H 0.40343 0.80902 0.20168 0.0
H2008 H 0.44407 0.77173 0.23123 0.0
H2009 H 0.45338 0.73395 0.20217 0.0
H2010 H 0.35765 0.77932 0.23763 0.0
H2011 H 0.36099 0.80457 0.1832 0.0
H2012 H 0.4041 0.72991 0.12463 0.0
H2013 H 0.41264 0.71826 0.18786 0.0
H2014 H 0.40501 0.70617 0.11422 0.0
H2015 H 0.41343 0.69472 0.17633 0.0
H2016 H 0.36122 0.74248 0.18684 0.0
H2017 H 0.36922 0.76891 0.13544 0.0
H2018 H 0.33788 0.75062 0.18744 0.0
H2019 H 0.34572 0.77656 0.1369 0.0
H2020 H 0.37036 0.70075 0.21816 0.0
H2021 H 0.36478 0.70048 0.15121 0.0
H2022 H 0.42217 0.76488 0.08493 0.0
H2023 H 0.38211 0.74957 0.07851 0.0
Li2024 Li 0.24228 0.40766 0.18315 0.0
Li2025 Li 0.22993 0.38681 0.18128 0.0
Li2026 Li 0.2539 0.38763 0.18 0.0
Li2027 Li 0.2409 0.39599 0.15043 0.0
C2028 C 0.24926 0.38829 0.22019 0.0
N2029 N 0.26393 0.37844 0.25329 0.0
C2030 C 0.24425 0.37789 0.23238 0.0
C2031 C 0.26161 0.39387 0.22517 0.0
C2032 C 0.25184 0.373 0.24897 0.0
C2033 C 0.26892 0.3887 0.24185 0.0
C2034 C 0.21498 0.41 0.17425 0.0
C2035 C 0.19421 0.42168 0.16951 0.0
N2036 N 0.193 0.42288 0.19055 0.0
C2037 C 0.21352 0.41135 0.19586 0.0
C2038 C 0.20527 0.41523 0.16097 0.0
C2039 C 0.20234 0.4179 0.20378 0.0
C2040 C 0.23686 0.43479 0.1824 0.0
N2041 N 0.24191 0.42502 0.19474 0.0
C2042 C 0.24493 0.44034 0.22284 0.0
C2043 C 0.24589 0.42749 0.21464 0.0
C2044 C 0.23961 0.45057 0.21048 0.0
C2045 C 0.23559 0.44769 0.19001 0.0
H2046 H 0.23372 0.43249 0.16667 0.0
H2047 H 0.24964 0.41949 0.22422 0.0
C2048 C 0.21961 0.36374 0.19761 0.0
N2049 N 0.21565 0.37588 0.19064 0.0
C2050 C 0.21047 0.35504 0.20662 0.0
C2051 C 0.19309 0.37112 0.19986 0.0
C2052 C 0.2026 0.37951 0.19092 0.0
C2053 C 0.19706 0.35885 0.20832 0.0
H2054 H 0.23 0.36096 0.19662 0.0
H2055 H 0.19951 0.38895 0.18456 0.0
C2056 C 0.26236 0.41632 0.16144 0.0
N2057 N 0.27225 0.44195 0.15835 0.0
C2058 C 0.25868 0.42446 0.14471 0.0
C2059 C 0.27121 0.42118 0.17646 0.0
C2060 C 0.26376 0.43739 0.14344 0.0
C2061 C 0.27605 0.43418 0.17467 0.0
C2062 C 0.23439 0.36918 0.14919 0.0
C2063 C 0.23912 0.35643 0.14459 0.0
C2064 C 0.22214 0.37334 0.1411 0.0
C2065 C 0.23153 0.34804 0.13191 0.0
C2066 C 0.21485 0.36465 0.12848 0.0
N2067 N 0.21966 0.35229 0.12418 0.0
C2068 C 0.26663 0.36428 0.19119 0.0
C2069 C 0.28152 0.38242 0.18708 0.0
C2070 C 0.27715 0.35573 0.19574 0.0
N2071 N 0.269 0.3773 0.18687 0.0
C2072 C 0.29236 0.37424 0.19178 0.0
C2073 C 0.29027 0.36065 0.196 0.0
H2074 H 0.25654 0.36052 0.1908 0.0
H2075 H 0.28309 0.39282 0.18351 0.0
C2076 C 0.23237 0.40633 0.1114 0.0
N2077 N 0.24005 0.39702 0.12098 0.0
C2078 C 0.23198 0.40704 0.08964 0.0
C2079 C 0.24714 0.38835 0.08816 0.0
C2080 C 0.24737 0.38813 0.10989 0.0
C2081 C 0.23945 0.39797 0.07768 0.0
H2082 H 0.22671 0.41331 0.12069 0.0
H2083 H 0.25336 0.38081 0.11799 0.0
O2084 O 0.24205 0.3931 0.20366 0.0
O2085 O 0.22598 0.40392 0.166 0.0
O2086 O 0.25722 0.40373 0.16319 0.0
O2087 O 0.24173 0.37745 0.16164 0.0
H2088 H 0.23456 0.3737 0.22924 0.0
H2089 H 0.26562 0.40196 0.21604 0.0
H2090 H 0.24809 0.36491 0.25845 0.0
H2091 H 0.27857 0.39283 0.24568 0.0
H2092 H 0.18661 0.42576 0.1594 0.0
H2093 H 0.2209 0.40739 0.20644 0.0
H2094 H 0.20626 0.41431 0.14422 0.0
H2095 H 0.20109 0.41901 0.22045 0.0
H2096 H 0.24808 0.44221 0.23873 0.0
H2097 H 0.23163 0.45537 0.17989 0.0
H2098 H 0.2139 0.34551 0.21243 0.0
H2099 H 0.18283 0.37441 0.20073 0.0
H2100 H 0.25188 0.4209 0.13292 0.0
H2101 H 0.27423 0.41506 0.18948 0.0
H2102 H 0.26092 0.44381 0.13065 0.0
H2103 H 0.28282 0.43809 0.18628 0.0
H2104 H 0.24858 0.35306 0.15077 0.0
H2105 H 0.21827 0.38314 0.14451 0.0
H2106 H 0.23508 0.33815 0.12821 0.0
H2107 H 0.20536 0.36774 0.12211 0.0
H2108 H 0.27502 0.3453 0.19843 0.0
H2109 H 0.30226 0.37852 0.19203 0.0
H2110 H 0.22607 0.41475 0.08234 0.0
H2111 H 0.25283 0.38097 0.0797 0.0
Li2112 Li 0.38493 0.25163 0.18178 0.0
Li2113 Li 0.38665 0.22737 0.1856 0.0
Li2114 Li 0.40641 0.24103 0.18707 0.0
Li2115 Li 0.39394 0.23774 0.15467 0.0
C2116 C 0.39394 0.24948 0.22283 0.0
N2117 N 0.39951 0.26603 0.25612 0.0
C2118 C 0.39118 0.24533 0.24318 0.0
C2119 C 0.39957 0.26203 0.21939 0.0
C2120 C 0.39406 0.25386 0.25981 0.0
C2121 C 0.4023 0.27025 0.23643 0.0
C2122 C 0.36861 0.23781 0.14749 0.0
C2123 C 0.35906 0.2265 0.11784 0.0
N2124 N 0.35577 0.23846 0.10935 0.0
C2125 C 0.36505 0.24999 0.13852 0.0
C2126 C 0.36551 0.22596 0.13713 0.0
C2127 C 0.35859 0.25011 0.11922 0.0
C2128 C 0.37556 0.27775 0.17581 0.0
N2129 N 0.37467 0.26683 0.18823 0.0
C2130 C 0.35843 0.27746 0.20971 0.0
C2131 C 0.36642 0.2665 0.20501 0.0
C2132 C 0.35876 0.28878 0.19676 0.0
C2133 C 0.36758 0.28884 0.17969 0.0
H2134 H 0.3822 0.27767 0.16253 0.0
H2135 H 0.36598 0.25767 0.21465 0.0
C2136 C 0.38511 0.20597 0.21374 0.0
N2137 N 0.37851 0.21245 0.19826 0.0
C2138 C 0.37923 0.19508 0.22367 0.0
C2139 C 0.35993 0.19782 0.20147 0.0
C2140 C 0.36616 0.20866 0.19204 0.0
C2141 C 0.36645 0.19091 0.21758 0.0
H2142 H 0.39491 0.2093 0.21839 0.0
H2143 H 0.36107 0.21417 0.17996 0.0
C2144 C 0.4122 0.25878 0.15443 0.0
N2145 N 0.43398 0.26678 0.13123 0.0
C2146 C 0.42148 0.24938 0.14744 0.0
C2147 C 0.41401 0.27223 0.14959 0.0
C2148 C 0.43242 0.25364 0.13574 0.0
C2149 C 0.42509 0.27608 0.13786 0.0
C2150 C 0.40568 0.21086 0.17201 0.0
C2151 C 0.41711 0.20558 0.18129 0.0
C2152 C 0.39615 0.20224 0.16362 0.0
C2153 C 0.41864 0.19178 0.18254 0.0
C2154 C 0.39802 0.18849 0.1652 0.0
N2155 N 0.40913 0.18359 0.17458 0.0
C2156 C 0.4263 0.23319 0.21481 0.0
C2157 C 0.4312 0.25345 0.1975 0.0
C2158 C 0.43879 0.23319 0.22433 0.0
N2159 N 0.423 0.24291 0.201 0.0
C2160 C 0.44379 0.25384 0.20659 0.0
C2161 C 0.44789 0.24341 0.21972 0.0
H2162 H 0.41932 0.22523 0.21799 0.0
H2163 H 0.42814 0.26143 0.18733 0.0
C2164 C 0.39479 0.24774 0.11366 0.0
N2165 N 0.39538 0.23632 0.12504 0.0
C2166 C 0.39579 0.24731 0.09198 0.0
C2167 C 0.39755 0.22333 0.094 0.0
C2168 C 0.3968 0.22425 0.1157 0.0
C2169 C 0.39712 0.23498 0.08195 0.0
H2170 H 0.39343 0.2572 0.12144 0.0
H2171 H 0.39725 0.21533 0.12505 0.0
O2172 O 0.39125 0.24118 0.20645 0.0
O2173 O 0.37532 0.23753 0.16609 0.0
O2174 O 0.4013 0.25491 0.16574 0.0
O2175 O 0.40398 0.22438 0.17079 0.0
H2176 H 0.38687 0.23562 0.24608 0.0
H2177 H 0.40183 0.26539 0.20376 0.0
H2178 H 0.39196 0.25078 0.27565 0.0
H2179 H 0.40665 0.27999 0.23401 0.0
H2180 H 0.3567 0.2174 0.10959 0.0
H2181 H 0.36739 0.25925 0.14622 0.0
H2182 H 0.36815 0.21643 0.14376 0.0
H2183 H 0.35586 0.25948 0.11205 0.0
H2184 H 0.35202 0.27701 0.22326 0.0
H2185 H 0.36805 0.29718 0.16902 0.0
H2186 H 0.38461 0.18998 0.23594 0.0
H2187 H 0.34996 0.19511 0.1966 0.0
H2188 H 0.42029 0.23893 0.15096 0.0
H2189 H 0.40693 0.27962 0.15487 0.0
H2190 H 0.43966 0.24648 0.13024 0.0
H2191 H 0.42661 0.28646 0.13402 0.0
H2192 H 0.42482 0.21205 0.18724 0.0
H2193 H 0.38729 0.20612 0.15627 0.0
H2194 H 0.42743 0.18757 0.18976 0.0
H2195 H 0.39063 0.18173 0.15901 0.0
H2196 H 0.44142 0.22512 0.23475 0.0
H2197 H 0.45044 0.26193 0.20255 0.0
H2198 H 0.39526 0.25648 0.08311 0.0
H2199 H 0.3986 0.21365 0.08672 0.0
Li2200 Li 0.76796 0.38521 0.18445 0.0
Li2201 Li 0.74465 0.38374 0.1809 0.0
Li2202 Li 0.75828 0.39152 0.15194 0.0
Li2203 Li 0.75539 0.40506 0.18387 0.0
C2204 C 0.75801 0.36061 0.1711 0.0
N2205 N 0.75747 0.33432 0.18383 0.0
C2206 C 0.75778 0.35747 0.19235 0.0
C2207 C 0.75795 0.35038 0.15633 0.0
C2208 C 0.75751 0.34412 0.19846 0.0
C2209 C 0.75769 0.33715 0.16308 0.0
C2210 C 0.74593 0.39465 0.22044 0.0
C2211 C 0.72504 0.40428 0.23128 0.0
N2212 N 0.72849 0.40229 0.25156 0.0
C2213 C 0.74928 0.39272 0.24137 0.0
C2214 C 0.73371 0.40049 0.21532 0.0
C2215 C 0.74032 0.39664 0.25688 0.0
C2216 C 0.78731 0.38364 0.21535 0.0
N2217 N 0.78317 0.37769 0.19747 0.0
C2218 C 0.80076 0.36178 0.19953 0.0
C2219 C 0.78967 0.36702 0.18932 0.0
C2220 C 0.80517 0.36759 0.21824 0.0
C2221 C 0.79836 0.37874 0.22605 0.0
H2222 H 0.78199 0.39221 0.22128 0.0
H2223 H 0.78625 0.36258 0.17493 0.0
C2224 C 0.72046 0.37233 0.17038 0.0
N2225 N 0.72905 0.37383 0.18656 0.0
C2226 C 0.70898 0.36468 0.17275 0.0
C2227 C 0.7153 0.36044 0.20855 0.0
C2228 C 0.72672 0.3681 0.20542 0.0
C2229 C 0.70629 0.35855 0.19202 0.0
H2230 H 0.7227 0.3769 0.15549 0.0
H2231 H 0.7338 0.36933 0.21798 0.0
C2232 C 0.78543 0.40078 0.16687 0.0
N2233 N 0.81286 0.3986 0.166 0.0
C2234 C 0.79331 0.40976 0.17806 0.0
C2235 C 0.79151 0.39077 0.15509 0.0
C2236 C 0.80716 0.40846 0.17747 0.0
C2237 C 0.80538 0.38982 0.15488 0.0
C2238 C 0.73743 0.40964 0.15055 0.0
C2239 C 0.74665 0.4188 0.14271 0.0
C2240 C 0.72401 0.41078 0.14511 0.0
C2241 C 0.74225 0.42902 0.12962 0.0
C2242 C 0.72 0.42114 0.13199 0.0
N2243 N 0.72913 0.42997 0.12458 0.0
C2244 C 0.74794 0.38743 0.11239 0.0
C2245 C 0.76968 0.39658 0.1117 0.0
C2246 C 0.74731 0.38763 0.09066 0.0
N2247 N 0.75901 0.39184 0.1224 0.0
C2248 C 0.7696 0.39669 0.08991 0.0
C2249 C 0.75829 0.39219 0.07902 0.0
H2250 H 0.73952 0.38392 0.12136 0.0
H2251 H 0.77824 0.40033 0.12002 0.0
C2252 C 0.76395 0.42574 0.20912 0.0
N2253 N 0.75402 0.42225 0.19582 0.0
C2254 C 0.76411 0.43836 0.21817 0.0
C2255 C 0.74334 0.44323 0.20067 0.0
C2256 C 0.74358 0.43051 0.19202 0.0
C2257 C 0.75385 0.4474 0.21359 0.0
H2258 H 0.7718 0.41871 0.21258 0.0
H2259 H 0.73549 0.42732 0.18215 0.0
O2260 O 0.75816 0.37359 0.1646 0.0
O2261 O 0.75471 0.39089 0.20519 0.0
O2262 O 0.77184 0.4017 0.16757 0.0
O2263 O 0.74147 0.39941 0.16315 0.0
H2264 H 0.75782 0.36522 0.20403 0.0
H2265 H 0.7581 0.35265 0.13982 0.0
H2266 H 0.75733 0.34156 0.21485 0.0
H2267 H 0.75764 0.32913 0.15182 0.0
H2268 H 0.71556 0.4088 0.22754 0.0
H2269 H 0.7587 0.38823 0.24558 0.0
H2270 H 0.73091 0.40207 0.19924 0.0
H2271 H 0.74279 0.39519 0.27316 0.0
H2272 H 0.80561 0.35307 0.19308 0.0
H2273 H 0.80153 0.38363 0.24026 0.0
H2274 H 0.70249 0.3633 0.15944 0.0
H2275 H 0.71359 0.35602 0.22372 0.0
H2276 H 0.78881 0.41766 0.18707 0.0
H2277 H 0.78555 0.38365 0.14651 0.0
H2278 H 0.81338 0.41532 0.18611 0.0
H2279 H 0.81021 0.38204 0.14597 0.0
H2280 H 0.75709 0.41808 0.14668 0.0
H2281 H 0.71676 0.40372 0.15098 0.0
H2282 H 0.74927 0.43619 0.12347 0.0
H2283 H 0.70964 0.42216 0.12767 0.0
H2284 H 0.73821 0.38439 0.08316 0.0
H2285 H 0.77838 0.40016 0.08177 0.0
H2286 H 0.77224 0.44107 0.22842 0.0
H2287 H 0.73524 0.44988 0.19664 0.0
Li2288 Li 0.60669 0.76571 0.17895 0.0
Li2289 Li 0.60824 0.7424 0.1748 0.0
Li2290 Li 0.59797 0.75599 0.14776 0.0
Li2291 Li 0.58718 0.75265 0.18185 0.0
C2292 C 0.63019 0.75615 0.16017 0.0
N2293 N 0.6574 0.75575 0.16655 0.0
C2294 C 0.63534 0.7566 0.18042 0.0
C2295 C 0.63887 0.75548 0.14318 0.0
C2296 C 0.64913 0.7564 0.18332 0.0
C2297 C 0.6526 0.75529 0.14672 0.0
C2298 C 0.60041 0.7434 0.21614 0.0
C2299 C 0.59215 0.72228 0.22859 0.0
N2300 N 0.59552 0.72579 0.24839 0.0
C2301 C 0.60377 0.7468 0.2366 0.0
C2302 C 0.59453 0.73103 0.21207 0.0
C2303 C 0.60123 0.73776 0.25269 0.0
C2304 C 0.6109 0.78426 0.21023 0.0
N2305 N 0.61499 0.78088 0.19076 0.0
C2306 C 0.63124 0.7982 0.19083 0.0
C2307 C 0.62477 0.78772 0.18078 0.0
C2308 C 0.62755 0.80164 0.21129 0.0
C2309 C 0.61706 0.79468 0.22084 0.0
H2310 H 0.60298 0.77869 0.21763 0.0
H2311 H 0.62775 0.78484 0.1652 0.0
C2312 C 0.6195 0.71764 0.16437 0.0
N2313 N 0.6191 0.72725 0.17927 0.0
C2314 C 0.62801 0.70674 0.16664 0.0
C2315 C 0.63531 0.71577 0.19969 0.0
C2316 C 0.62669 0.72647 0.19678 0.0
C2317 C 0.63618 0.70581 0.18438 0.0
H2318 H 0.6134 0.71861 0.15054 0.0
H2319 H 0.62624 0.73427 0.20836 0.0
C2320 C 0.5899 0.78289 0.16396 0.0
N2321 N 0.59213 0.81026 0.16124 0.0
C2322 C 0.5823 0.79106 0.17699 0.0
C2323 C 0.59857 0.78863 0.14947 0.0
C2324 C 0.58359 0.80488 0.17539 0.0
C2325 C 0.59957 0.80249 0.14835 0.0
C2326 C 0.58022 0.73491 0.14939 0.0
C2327 C 0.57036 0.74415 0.14402 0.0
C2328 C 0.57872 0.72158 0.14364 0.0
C2329 C 0.55915 0.73984 0.13303 0.0
C2330 C 0.56736 0.71767 0.13267 0.0
N2331 N 0.55789 0.7268 0.12763 0.0
C2332 C 0.60147 0.74849 0.10617 0.0
C2333 C 0.58719 0.76708 0.11061 0.0
C2334 C 0.5998 0.74901 0.08457 0.0
N2335 N 0.59526 0.75749 0.11863 0.0
C2336 C 0.5854 0.76811 0.08908 0.0
C2337 C 0.59177 0.759 0.07581 0.0
H2338 H 0.60774 0.74091 0.11307 0.0
H2339 H 0.58212 0.77392 0.12092 0.0
C2340 C 0.56837 0.76111 0.21043 0.0
N2341 N 0.57107 0.75106 0.19692 0.0
C2342 C 0.55639 0.76129 0.22141 0.0
C2343 C 0.55062 0.74026 0.2054 0.0
C2344 C 0.56274 0.74048 0.1948 0.0
C2345 C 0.54717 0.75094 0.2185 0.0
H2346 H 0.57549 0.76909 0.21245 0.0
H2347 H 0.56534 0.73232 0.18464 0.0
O2348 O 0.61673 0.75622 0.15684 0.0
O2349 O 0.60282 0.75224 0.20033 0.0
O2350 O 0.58901 0.76932 0.16556 0.0
O2351 O 0.59138 0.73884 0.15996 0.0
H2352 H 0.62879 0.75712 0.19377 0.0
H2353 H 0.63503 0.75508 0.12741 0.0
H2354 H 0.65324 0.75674 0.1989 0.0
H2355 H 0.65944 0.75477 0.13371 0.0
H2356 H 0.58761 0.71269 0.22566 0.0
H2357 H 0.60832 0.75633 0.24 0.0
H2358 H 0.59185 0.72818 0.19638 0.0
H2359 H 0.60379 0.74027 0.2686 0.0
H2360 H 0.63936 0.80322 0.18297 0.0
H2361 H 0.61375 0.79716 0.23644 0.0
H2362 H 0.62849 0.69936 0.15434 0.0
H2363 H 0.6413 0.71536 0.21372 0.0
H2364 H 0.57547 0.78681 0.18818 0.0
H2365 H 0.60464 0.78245 0.13943 0.0
H2366 H 0.5778 0.81133 0.18541 0.0
H2367 H 0.60631 0.80707 0.1373 0.0
H2368 H 0.5713 0.7545 0.14833 0.0
H2369 H 0.58628 0.71432 0.14764 0.0
H2370 H 0.55144 0.74687 0.1288 0.0
H2371 H 0.56607 0.70737 0.12814 0.0
H2372 H 0.60492 0.74186 0.07481 0.0
H2373 H 0.579 0.77584 0.08287 0.0
H2374 H 0.55425 0.76956 0.23171 0.0
H2375 H 0.54381 0.73209 0.20261 0.0
Li2376 Li 0.25426 0.60817 0.17491 0.0
Li2377 Li 0.23035 0.61039 0.18034 0.0
Li2378 Li 0.24141 0.58898 0.18316 0.0
Li2379 Li 0.23835 0.59968 0.14936 0.0
C2380 C 0.2437 0.59966 0.22013 0.0
N2381 N 0.24233 0.58782 0.25899 0.0
C2382 C 0.23219 0.60092 0.23223 0.0
C2383 C 0.25454 0.59242 0.22783 0.0
C2384 C 0.23169 0.59486 0.25184 0.0
C2385 C 0.25364 0.58649 0.24749 0.0
C2386 C 0.23685 0.63103 0.15719 0.0
C2387 C 0.21963 0.64698 0.14916 0.0
N2388 N 0.22721 0.65681 0.15766 0.0
C2389 C 0.24449 0.64129 0.1658 0.0
C2390 C 0.22434 0.6339 0.14872 0.0
C2391 C 0.23944 0.65426 0.16589 0.0
C2392 C 0.27659 0.62248 0.1611 0.0
N2393 N 0.27082 0.61689 0.17815 0.0
C2394 C 0.28837 0.62472 0.20004 0.0
C2395 C 0.27643 0.61783 0.19737 0.0
C2396 C 0.2945 0.63077 0.18276 0.0
C2397 C 0.28853 0.62946 0.16304 0.0
H2398 H 0.27176 0.62171 0.14606 0.0
H2399 H 0.27154 0.61341 0.21068 0.0
C2400 C 0.20394 0.61821 0.18985 0.0
N2401 N 0.21702 0.6214 0.19197 0.0
C2402 C 0.19416 0.62642 0.19846 0.0
C2403 C 0.21157 0.64096 0.21124 0.0
C2404 C 0.22099 0.63238 0.20268 0.0
C2405 C 0.19798 0.63801 0.20914 0.0
H2406 H 0.20111 0.60929 0.18154 0.0
H2407 H 0.23149 0.63446 0.20451 0.0
C2408 C 0.26734 0.59018 0.154 0.0
N2409 N 0.29365 0.59035 0.1414 0.0
C2410 C 0.27059 0.59316 0.13332 0.0
C2411 C 0.27746 0.58723 0.16825 0.0
C2412 C 0.28396 0.59319 0.12726 0.0
C2413 C 0.2907 0.5874 0.16158 0.0
C2414 C 0.21623 0.58653 0.15581 0.0
C2415 C 0.2171 0.57267 0.15425 0.0
C2416 C 0.20725 0.59347 0.14318 0.0
C2417 C 0.209 0.56598 0.13996 0.0
C2418 C 0.19934 0.58642 0.12905 0.0
N2419 N 0.20038 0.57294 0.12775 0.0
C2420 C 0.2304 0.56935 0.20924 0.0
C2421 C 0.2513 0.56379 0.19437 0.0
C2422 C 0.22956 0.55688 0.21874 0.0
N2423 N 0.24111 0.57247 0.19723 0.0
C2424 C 0.25086 0.55122 0.20352 0.0
C2425 C 0.23978 0.54754 0.21562 0.0
H2426 H 0.22239 0.57646 0.21104 0.0
H2427 H 0.25956 0.56647 0.18446 0.0
C2428 C 0.23282 0.60745 0.10803 0.0
N2429 N 0.23528 0.59678 0.12046 0.0
C2430 C 0.23072 0.60572 0.08671 0.0
C2431 C 0.23384 0.58202 0.0913 0.0
C2432 C 0.23591 0.58423 0.11257 0.0
C2433 C 0.23121 0.59287 0.07806 0.0
H2434 H 0.23269 0.61734 0.11461 0.0
H2435 H 0.23809 0.57595 0.1228 0.0
O2436 O 0.24431 0.60534 0.20075 0.0
O2437 O 0.24154 0.61823 0.15723 0.0
O2438 O 0.25433 0.59033 0.16034 0.0
O2439 O 0.22424 0.59329 0.16943 0.0
H2440 H 0.22369 0.60642 0.22651 0.0
H2441 H 0.26347 0.59121 0.21858 0.0
H2442 H 0.22283 0.59571 0.26134 0.0
H2443 H 0.2619 0.58078 0.25358 0.0
H2444 H 0.20993 0.64932 0.14281 0.0
H2445 H 0.25415 0.63927 0.17254 0.0
H2446 H 0.21824 0.62606 0.14218 0.0
H2447 H 0.24521 0.66228 0.17258 0.0
H2448 H 0.29268 0.62541 0.21549 0.0
H2449 H 0.29278 0.63416 0.14937 0.0
H2450 H 0.18376 0.62384 0.19658 0.0
H2451 H 0.21487 0.64971 0.21967 0.0
H2452 H 0.26291 0.59554 0.12211 0.0
H2453 H 0.27513 0.58506 0.18438 0.0
H2454 H 0.28663 0.59553 0.11132 0.0
H2455 H 0.29864 0.58524 0.17248 0.0
H2456 H 0.22405 0.56715 0.1638 0.0
H2457 H 0.20651 0.6042 0.14409 0.0
H2458 H 0.20961 0.55527 0.13852 0.0
H2459 H 0.19241 0.59167 0.11908 0.0
H2460 H 0.22087 0.55447 0.22801 0.0
H2461 H 0.25882 0.54424 0.20029 0.0
H2462 H 0.22904 0.6144 0.07705 0.0
H2463 H 0.23425 0.57195 0.08532 0.0
Li2464 Li 0.3965 0.75573 0.85015 0.0
Li2465 Li 0.40535 0.75355 0.81442 0.0
Li2466 Li 0.38664 0.76774 0.81995 0.0
Li2467 Li 0.38493 0.74322 0.82248 0.0
C2468 C 0.40578 0.78132 0.84397 0.0
N2469 N 0.40796 0.80393 0.86833 0.0
C2470 C 0.41793 0.78805 0.8454 0.0
C2471 C 0.39476 0.78608 0.85499 0.0
C2472 C 0.41883 0.79947 0.85778 0.0
C2473 C 0.39604 0.79753 0.86718 0.0
C2474 C 0.40187 0.72608 0.83923 0.0
C2475 C 0.39994 0.70347 0.82687 0.0
N2476 N 0.39968 0.69908 0.84694 0.0
C2477 C 0.40169 0.72134 0.85972 0.0
C2478 C 0.40111 0.71707 0.82265 0.0
C2479 C 0.40055 0.70766 0.8633 0.0
C2480 C 0.38997 0.75041 0.89131 0.0
N2481 N 0.39952 0.75614 0.87929 0.0
C2482 C 0.41235 0.76167 0.90947 0.0
C2483 C 0.41061 0.76167 0.88783 0.0
C2484 C 0.40263 0.75579 0.9223 0.0
C2485 C 0.39131 0.75014 0.91293 0.0
H2486 H 0.38133 0.74596 0.88403 0.0
H2487 H 0.41813 0.76601 0.87785 0.0
C2488 C 0.42899 0.76321 0.79708 0.0
N2489 N 0.42142 0.75208 0.79914 0.0
C2490 C 0.44145 0.7625 0.78756 0.0
C2491 C 0.43769 0.73907 0.78123 0.0
C2492 C 0.42541 0.74019 0.79121 0.0
C2493 C 0.44609 0.75024 0.77983 0.0
H2494 H 0.42549 0.77256 0.80337 0.0
H2495 H 0.41915 0.73153 0.79287 0.0
C2496 C 0.36494 0.75896 0.84776 0.0
N2497 N 0.33887 0.76306 0.86009 0.0
C2498 C 0.35443 0.75409 0.83567 0.0
C2499 C 0.36217 0.7658 0.86626 0.0
C2500 C 0.34133 0.7563 0.84212 0.0
C2501 C 0.34893 0.76781 0.87218 0.0
C2502 C 0.39425 0.75517 0.77833 0.0
C2503 C 0.39779 0.76763 0.77035 0.0
C2504 C 0.39689 0.74369 0.7667 0.0
C2505 C 0.40395 0.7684 0.75084 0.0
C2506 C 0.40305 0.74489 0.74725 0.0
N2507 N 0.40643 0.75711 0.73979 0.0
C2508 C 0.38395 0.79521 0.80832 0.0
C2509 C 0.36451 0.78193 0.80581 0.0
C2510 C 0.37704 0.80631 0.80084 0.0
N2511 N 0.37755 0.78337 0.81091 0.0
C2512 C 0.3572 0.79275 0.79856 0.0
C2513 C 0.36346 0.80514 0.79602 0.0
H2514 H 0.39446 0.79601 0.81167 0.0
H2515 H 0.35985 0.7723 0.80687 0.0
C2516 C 0.36888 0.72251 0.83683 0.0
N2517 N 0.37332 0.72852 0.81916 0.0
C2518 C 0.36037 0.71158 0.83559 0.0
C2519 C 0.36099 0.71336 0.79796 0.0
C2520 C 0.3695 0.72428 0.79995 0.0
C2521 C 0.35634 0.70685 0.81596 0.0
H2522 H 0.37195 0.72626 0.8519 0.0
H2523 H 0.37301 0.72941 0.7862 0.0
O2524 O 0.40485 0.76998 0.83221 0.0
O2525 O 0.40283 0.73947 0.83544 0.0
O2526 O 0.37787 0.75666 0.84194 0.0
O2527 O 0.38851 0.75421 0.79763 0.0
H2528 H 0.42661 0.78445 0.83715 0.0
H2529 H 0.38529 0.78107 0.85397 0.0
H2530 H 0.42818 0.80477 0.85904 0.0
H2531 H 0.38757 0.80133 0.87573 0.0
H2532 H 0.39916 0.6964 0.81419 0.0
H2533 H 0.40246 0.72813 0.87275 0.0
H2534 H 0.40101 0.72054 0.80669 0.0
H2535 H 0.40035 0.70386 0.8791 0.0
H2536 H 0.42128 0.766 0.91606 0.0
H2537 H 0.38349 0.74566 0.92221 0.0
H2538 H 0.44758 0.77137 0.78719 0.0
H2539 H 0.44069 0.72947 0.77514 0.0
H2540 H 0.35633 0.74883 0.82126 0.0
H2541 H 0.37014 0.76951 0.87602 0.0
H2542 H 0.33311 0.75266 0.83282 0.0
H2543 H 0.34666 0.77311 0.88643 0.0
H2544 H 0.39596 0.7766 0.77921 0.0
H2545 H 0.39444 0.73395 0.77276 0.0
H2546 H 0.40679 0.77798 0.74452 0.0
H2547 H 0.40523 0.73608 0.73814 0.0
H2548 H 0.38223 0.81568 0.79886 0.0
H2549 H 0.34684 0.79135 0.7944 0.0
H2550 H 0.35681 0.70704 0.84986 0.0
H2551 H 0.35817 0.71001 0.78253 0.0
Li2552 Li 0.24213 0.40561 0.81549 0.0
Li2553 Li 0.24076 0.3947 0.84811 0.0
Li2554 Li 0.2558 0.3861 0.81929 0.0
Li2555 Li 0.23088 0.38461 0.81794 0.0
C2556 C 0.26401 0.41435 0.83472 0.0
N2557 N 0.27814 0.4379 0.83216 0.0
C2558 C 0.25846 0.42619 0.84222 0.0
C2559 C 0.27679 0.41446 0.82611 0.0
C2560 C 0.26574 0.438 0.84071 0.0
C2561 C 0.28377 0.42648 0.82493 0.0
C2562 C 0.2173 0.40542 0.84689 0.0
C2563 C 0.20137 0.39992 0.87373 0.0
N2564 N 0.20091 0.41295 0.87947 0.0
C2565 C 0.21664 0.41876 0.85304 0.0
C2566 C 0.20957 0.39593 0.85729 0.0
C2567 C 0.20829 0.42237 0.86954 0.0
C2568 C 0.23123 0.42993 0.8014 0.0
N2569 N 0.24224 0.42211 0.80093 0.0
C2570 C 0.25399 0.43825 0.7807 0.0
C2571 C 0.25334 0.4258 0.79024 0.0
C2572 C 0.24308 0.44695 0.78213 0.0
C2573 C 0.23146 0.44251 0.79222 0.0
H2574 H 0.22234 0.42651 0.80921 0.0
H2575 H 0.26179 0.41915 0.78945 0.0
C2576 C 0.24077 0.38455 0.88889 0.0
N2577 N 0.2399 0.39607 0.87783 0.0
C2578 C 0.2406 0.38479 0.91064 0.0
C2579 C 0.23853 0.40875 0.90934 0.0
C2580 C 0.23896 0.40806 0.88758 0.0
C2581 C 0.23946 0.397 0.9211 0.0
H2582 H 0.24178 0.37516 0.88085 0.0
H2583 H 0.23865 0.41712 0.87855 0.0
C2584 C 0.24053 0.39546 0.7772 0.0
N2585 N 0.23407 0.407 0.7394 0.0
C2586 C 0.22731 0.39878 0.77273 0.0
C2587 C 0.25046 0.39803 0.76246 0.0
C2588 C 0.22425 0.4046 0.75352 0.0
C2589 C 0.24699 0.40386 0.74344 0.0
C2590 C 0.23971 0.36303 0.83882 0.0
C2591 C 0.24727 0.3534 0.82844 0.0
C2592 C 0.22831 0.35918 0.8498 0.0
C2593 C 0.24317 0.34011 0.82892 0.0
C2594 C 0.22452 0.3458 0.84988 0.0
N2595 N 0.23196 0.33662 0.83951 0.0
C2596 C 0.28077 0.3754 0.82853 0.0
C2597 C 0.27415 0.37312 0.7932 0.0
C2598 C 0.2924 0.36823 0.82471 0.0
N2599 N 0.27191 0.37756 0.8129 0.0
C2600 C 0.2857 0.366 0.78862 0.0
C2601 C 0.29492 0.36326 0.80457 0.0
H2602 H 0.2786 0.37897 0.84409 0.0
H2603 H 0.2668 0.37482 0.78119 0.0
C2604 C 0.20405 0.37748 0.80886 0.0
N2605 N 0.21703 0.3738 0.80712 0.0
C2606 C 0.19404 0.36951 0.80033 0.0
C2607 C 0.211 0.35421 0.7883 0.0
C2608 C 0.22066 0.36259 0.79669 0.0
C2609 C 0.19751 0.35765 0.79009 0.0
H2610 H 0.20147 0.38669 0.81658 0.0
H2611 H 0.23108 0.36023 0.79476 0.0
O2612 O 0.25699 0.4027 0.8358 0.0
O2613 O 0.22551 0.40164 0.83088 0.0
O2614 O 0.24374 0.39006 0.79614 0.0
O2615 O 0.2435 0.37613 0.83833 0.0
H2616 H 0.24852 0.4263 0.84868 0.0
H2617 H 0.28123 0.40539 0.82024 0.0
H2618 H 0.26152 0.44726 0.84624 0.0
H2619 H 0.29365 0.42673 0.81821 0.0
H2620 H 0.19538 0.39266 0.88194 0.0
H2621 H 0.22271 0.42624 0.84551 0.0
H2622 H 0.20993 0.38558 0.85276 0.0
H2623 H 0.20776 0.43264 0.87454 0.0
H2624 H 0.26303 0.44112 0.77266 0.0
H2625 H 0.22281 0.44887 0.79381 0.0
H2626 H 0.24133 0.37551 0.9192 0.0
H2627 H 0.23783 0.41837 0.91688 0.0
H2628 H 0.21953 0.39709 0.78408 0.0
H2629 H 0.26077 0.39574 0.76579 0.0
H2630 H 0.21407 0.40727 0.74989 0.0
H2631 H 0.25458 0.40596 0.73192 0.0
H2632 H 0.25615 0.35614 0.81993 0.0
H2633 H 0.22244 0.36645 0.85815 0.0
H2634 H 0.24888 0.33257 0.82084 0.0
H2635 H 0.21568 0.34271 0.85821 0.0
H2636 H 0.29907 0.36616 0.83758 0.0
H2637 H 0.28727 0.36249 0.77284 0.0
H2638 H 0.18373 0.3725 0.80183 0.0
H2639 H 0.21404 0.34529 0.78009 0.0
Li2640 Li 0.58678 0.23842 0.8157 0.0
Li2641 Li 0.60016 0.23751 0.84777 0.0
Li2642 Li 0.60677 0.25142 0.81841 0.0
Li2643 Li 0.60793 0.22801 0.81587 0.0
C2644 C 0.58007 0.25628 0.84833 0.0
N2645 N 0.55885 0.26248 0.87398 0.0
C2646 C 0.57137 0.24628 0.85504 0.0
C2647 C 0.578 0.26942 0.85471 0.0
C2648 C 0.5607 0.24962 0.86799 0.0
C2649 C 0.5672 0.27236 0.86766 0.0
C2650 C 0.59482 0.20946 0.8356 0.0
C2651 C 0.60789 0.19241 0.85245 0.0
N2652 N 0.60124 0.18295 0.84141 0.0
C2653 C 0.58809 0.19956 0.82447 0.0
C2654 C 0.60479 0.20586 0.84974 0.0
C2655 C 0.59149 0.18622 0.82761 0.0
C2656 C 0.56636 0.22675 0.79269 0.0
N2657 N 0.56955 0.23781 0.8038 0.0
C2658 C 0.54809 0.24716 0.79753 0.0
C2659 C 0.56088 0.24812 0.80581 0.0
C2660 C 0.54426 0.23556 0.78685 0.0
C2661 C 0.55368 0.22537 0.78409 0.0
H2662 H 0.57367 0.21898 0.7906 0.0
H2663 H 0.5638 0.25703 0.81404 0.0
C2664 C 0.60671 0.24575 0.88815 0.0
N2665 N 0.59955 0.23664 0.87725 0.0
C2666 C 0.60643 0.24574 0.90991 0.0
C2667 C 0.59137 0.22696 0.90879 0.0
C2668 C 0.59188 0.2274 0.88704 0.0
C2669 C 0.59872 0.23621 0.92056 0.0
H2670 H 0.61258 0.25309 0.87986 0.0
H2671 H 0.58615 0.22037 0.87795 0.0
C2672 C 0.59624 0.24813 0.77874 0.0
N2673 N 0.58679 0.2639 0.74665 0.0
C2674 C 0.59822 0.24434 0.758 0.0
C2675 C 0.58944 0.25995 0.78316 0.0
C2676 C 0.59337 0.25245 0.74199 0.0
C2677 C 0.58474 0.26778 0.76672 0.0
C2678 C 0.63108 0.24088 0.82959 0.0
C2679 C 0.63456 0.24093 0.80847 0.0
C2680 C 0.64096 0.24253 0.84472 0.0
C2681 C 0.6479 0.24262 0.80285 0.0
C2682 C 0.65418 0.24419 0.83847 0.0
N2683 N 0.65735 0.2442 0.81784 0.0
C2684 C 0.61671 0.27669 0.82747 0.0
C2685 C 0.62076 0.26982 0.79267 0.0
C2686 C 0.62394 0.28838 0.82424 0.0
N2687 N 0.61538 0.26768 0.81183 0.0
C2688 C 0.62794 0.28142 0.78868 0.0
C2689 C 0.62981 0.2908 0.80468 0.0
H2690 H 0.61247 0.2746 0.84264 0.0
H2691 H 0.61977 0.26239 0.78059 0.0
C2692 C 0.61288 0.20883 0.78547 0.0
N2693 N 0.61741 0.21358 0.80399 0.0
C2694 C 0.61967 0.1986 0.77533 0.0
C2695 C 0.63548 0.19818 0.8038 0.0
C2696 C 0.62835 0.20839 0.81341 0.0
C2697 C 0.63124 0.19325 0.78437 0.0
H2698 H 0.60404 0.2131 0.77851 0.0
H2699 H 0.63165 0.2123 0.82825 0.0
O2700 O 0.59071 0.25328 0.83586 0.0
O2701 O 0.59188 0.22261 0.83241 0.0
O2702 O 0.60089 0.24018 0.79448 0.0
O2703 O 0.61809 0.23937 0.83558 0.0
H2704 H 0.57279 0.23605 0.85028 0.0
H2705 H 0.58468 0.27725 0.8497 0.0
H2706 H 0.55388 0.24199 0.87328 0.0
H2707 H 0.56547 0.28249 0.8727 0.0
H2708 H 0.61565 0.1895 0.86325 0.0
H2709 H 0.58033 0.20213 0.81351 0.0
H2710 H 0.61026 0.21339 0.85826 0.0
H2711 H 0.58638 0.17847 0.81906 0.0
H2712 H 0.54114 0.25524 0.80014 0.0
H2713 H 0.55122 0.21638 0.77559 0.0
H2714 H 0.61205 0.25324 0.91827 0.0
H2715 H 0.58542 0.21934 0.91626 0.0
H2716 H 0.60346 0.23521 0.75431 0.0
H2717 H 0.58782 0.2631 0.79907 0.0
H2718 H 0.59484 0.24963 0.72587 0.0
H2719 H 0.57947 0.27695 0.76993 0.0
H2720 H 0.62708 0.23968 0.79651 0.0
H2721 H 0.63841 0.24254 0.86114 0.0
H2722 H 0.65073 0.24268 0.78657 0.0
H2723 H 0.66193 0.24548 0.85003 0.0
H2724 H 0.62532 0.29517 0.83718 0.0
H2725 H 0.63213 0.28292 0.77329 0.0
H2726 H 0.61593 0.19496 0.76056 0.0
H2727 H 0.64442 0.19446 0.81123 0.0
Li2728 Li 0.75707 0.60142 0.84701 0.0
Li2729 Li 0.75476 0.58958 0.81538 0.0
Li2730 Li 0.76636 0.61005 0.81503 0.0
Li2731 Li 0.74212 0.60932 0.8199 0.0
C2732 C 0.78361 0.59574 0.83944 0.0
N2733 N 0.8079 0.59994 0.8586 0.0
C2734 C 0.7936 0.58609 0.83821 0.0
C2735 C 0.78598 0.60755 0.85041 0.0
C2736 C 0.80581 0.58839 0.848 0.0
C2737 C 0.79833 0.60947 0.85999 0.0
C2738 C 0.73808 0.58171 0.8481 0.0
C2739 C 0.72279 0.56801 0.86763 0.0
N2740 N 0.73289 0.55945 0.87212 0.0
C2741 C 0.74831 0.57278 0.85293 0.0
C2742 C 0.72522 0.57932 0.85552 0.0
C2743 C 0.74548 0.56159 0.86508 0.0
C2744 C 0.75044 0.60847 0.88754 0.0
N2745 N 0.75863 0.60037 0.87644 0.0
C2746 C 0.76736 0.59089 0.90777 0.0
C2747 C 0.76697 0.59163 0.88603 0.0
C2748 C 0.75893 0.59908 0.91965 0.0
C2749 C 0.75041 0.60797 0.90928 0.0
H2750 H 0.74383 0.61522 0.87943 0.0
H2751 H 0.77319 0.5851 0.87683 0.0
C2752 C 0.76648 0.56826 0.79457 0.0
N2753 N 0.75483 0.57251 0.80296 0.0
C2754 C 0.76748 0.55544 0.78635 0.0
C2755 C 0.7443 0.55184 0.79501 0.0
C2756 C 0.74374 0.56476 0.80287 0.0
C2757 C 0.75638 0.54692 0.78699 0.0
H2758 H 0.77507 0.57476 0.79462 0.0
H2759 H 0.73454 0.5685 0.80939 0.0
C2760 C 0.75386 0.63299 0.83197 0.0
N2761 N 0.75031 0.65974 0.82351 0.0
C2762 C 0.75293 0.63741 0.81133 0.0
C2763 C 0.75294 0.64216 0.84829 0.0
C2764 C 0.75115 0.65097 0.80738 0.0
C2765 C 0.75117 0.65565 0.84369 0.0
C2766 C 0.74742 0.59754 0.77833 0.0
C2767 C 0.75532 0.59504 0.76082 0.0
C2768 C 0.73437 0.5927 0.77899 0.0
C2769 C 0.75005 0.58767 0.74428 0.0
C2770 C 0.72946 0.58538 0.76213 0.0
N2771 N 0.73734 0.58302 0.74528 0.0
C2772 C 0.78709 0.61319 0.78673 0.0
C2773 C 0.7855 0.63098 0.81089 0.0
C2774 C 0.79776 0.61936 0.7767 0.0
N2775 N 0.78102 0.6192 0.80315 0.0
C2776 C 0.79613 0.63751 0.80135 0.0
C2777 C 0.80229 0.63178 0.78383 0.0
H2778 H 0.78364 0.60357 0.78147 0.0
H2779 H 0.78081 0.63535 0.82441 0.0
C2780 C 0.71831 0.62091 0.83247 0.0
N2781 N 0.72607 0.6186 0.81552 0.0
C2782 C 0.70687 0.62869 0.83066 0.0
C2783 C 0.71152 0.63129 0.79385 0.0
C2784 C 0.72292 0.62354 0.79642 0.0
C2785 C 0.7034 0.63412 0.81117 0.0
H2786 H 0.72123 0.61698 0.84751 0.0
H2787 H 0.72941 0.62169 0.78328 0.0
O2788 O 0.77165 0.59356 0.82978 0.0
O2789 O 0.74055 0.59282 0.83634 0.0
O2790 O 0.75536 0.61974 0.83632 0.0
O2791 O 0.75247 0.60446 0.79493 0.0
H2792 H 0.79192 0.57691 0.82975 0.0
H2793 H 0.7784 0.61513 0.85163 0.0
H2794 H 0.81363 0.581 0.84718 0.0
H2795 H 0.80029 0.61855 0.86853 0.0
H2796 H 0.71287 0.56604 0.87347 0.0
H2797 H 0.75833 0.57443 0.84735 0.0
H2798 H 0.7172 0.58616 0.85195 0.0
H2799 H 0.75331 0.5546 0.86892 0.0
H2800 H 0.77394 0.58378 0.91519 0.0
H2801 H 0.74384 0.61453 0.91789 0.0
H2802 H 0.77691 0.55215 0.78 0.0
H2803 H 0.73553 0.54561 0.79607 0.0
H2804 H 0.75359 0.63047 0.79848 0.0
H2805 H 0.75359 0.63888 0.86435 0.0
H2806 H 0.75042 0.65453 0.79149 0.0
H2807 H 0.75046 0.66286 0.85617 0.0
H2808 H 0.76542 0.59873 0.75997 0.0
H2809 H 0.72817 0.59437 0.79254 0.0
H2810 H 0.75607 0.58563 0.73066 0.0
H2811 H 0.71941 0.5815 0.7625 0.0
H2812 H 0.80242 0.61445 0.76355 0.0
H2813 H 0.79926 0.6471 0.80733 0.0
H2814 H 0.70108 0.6308 0.84452 0.0
H2815 H 0.70917 0.63515 0.7785 0.0
H2816 H 0.18044 0.13382 0.33706 0.0
H2817 H 0.14934 0.19659 0.27819 0.0
H2818 H 0.19665 0.15041 0.28037 0.0
H2819 H 0.13323 0.17995 0.33493 0.0
H2820 H 0.16506 0.17808 0.27628 0.0
H2821 H 0.16157 0.14906 0.33432 0.0
C2822 C 0.17998 0.14064 0.32398 0.0
C2823 C 0.19019 0.14097 0.30905 0.0
C2824 C 0.158 0.1784 0.28905 0.0
C2825 C 0.16863 0.15842 0.30577 0.0
C2826 C 0.14896 0.18893 0.29007 0.0
C2827 C 0.14006 0.18989 0.30688 0.0
C2828 C 0.15816 0.16879 0.30497 0.0
C2829 C 0.14012 0.17975 0.32194 0.0
C2830 C 0.16919 0.1493 0.32237 0.0
C2831 C 0.18897 0.14981 0.29219 0.0
N2832 N 0.1491 0.16968 0.32072 0.0
N2833 N 0.17846 0.15828 0.29113 0.0
H2834 H 0.78733 0.15809 0.27994 0.0
H2835 H 0.85573 0.18416 0.32919 0.0
H2836 H 0.80813 0.13849 0.33028 0.0
H2837 H 0.83325 0.20606 0.28317 0.0
H2838 H 0.83957 0.16607 0.32691 0.0
H2839 H 0.80523 0.17456 0.2781 0.0
C2840 C 0.79567 0.15723 0.29057 0.0
C2841 C 0.79618 0.14694 0.30538 0.0
C2842 C 0.8382 0.1748 0.31722 0.0
C2843 C 0.81673 0.16566 0.30324 0.0
C2844 C 0.84739 0.18515 0.31859 0.0
C2845 C 0.84575 0.19669 0.30652 0.0
C2846 C 0.82726 0.17598 0.30371 0.0
C2847 C 0.83492 0.19732 0.2927 0.0
C2848 C 0.80591 0.16659 0.28944 0.0
C2849 C 0.80735 0.14616 0.31848 0.0
N2850 N 0.82602 0.18715 0.29178 0.0
N2851 N 0.81714 0.15544 0.31718 0.0
H2852 H 0.84365 0.80134 0.35277 0.0
H2853 H 0.799 0.84806 0.28195 0.0
H2854 H 0.85319 0.8086 0.288 0.0
H2855 H 0.8017 0.85262 0.34873 0.0
H2856 H 0.81753 0.83212 0.28322 0.0
H2857 H 0.82695 0.81883 0.35112 0.0
C2858 C 0.84241 0.8067 0.33825 0.0
C2859 C 0.84997 0.80347 0.32051 0.0
C2860 C 0.81412 0.83671 0.29754 0.0
C2861 C 0.83046 0.8233 0.31844 0.0
C2862 C 0.80354 0.84572 0.29684 0.0
C2863 C 0.79887 0.85163 0.31526 0.0
C2864 C 0.81985 0.83344 0.31685 0.0
C2865 C 0.8051 0.84836 0.33416 0.0
C2866 C 0.83277 0.81665 0.33732 0.0
C2867 C 0.84751 0.81058 0.302 0.0
N2868 N 0.8152 0.83938 0.33449 0.0
N2869 N 0.8379 0.8201 0.3014 0.0
H2870 H 0.13767 0.8072 0.28204 0.0
H2871 H 0.18462 0.85654 0.34671 0.0
H2872 H 0.14067 0.80731 0.34924 0.0
H2873 H 0.18646 0.85218 0.27978 0.0
H2874 H 0.16595 0.84099 0.34757 0.0
H2875 H 0.1532 0.82592 0.28069 0.0
C2876 C 0.14156 0.81118 0.29651 0.0
C2877 C 0.13794 0.80558 0.31578 0.0
C2878 C 0.17037 0.84351 0.33267 0.0
C2879 C 0.1556 0.8271 0.31433 0.0
C2880 C 0.18096 0.85247 0.33215 0.0
C2881 C 0.18715 0.8556 0.31315 0.0
C2882 C 0.16591 0.83763 0.31407 0.0
C2883 C 0.1821 0.84988 0.2948 0.0
C2884 C 0.15037 0.8219 0.29573 0.0
C2885 C 0.14307 0.81135 0.33404 0.0
N2886 N 0.17182 0.84111 0.29573 0.0
N2887 N 0.1517 0.82173 0.33286 0.0
H2888 H 0.13534 0.81009 0.6627 0.0
H2889 H 0.20147 0.83745 0.7173 0.0
H2890 H 0.15282 0.79254 0.71774 0.0
H2891 H 0.18494 0.8537 0.66057 0.0
H2892 H 0.18233 0.82252 0.72 0.0
H2893 H 0.15182 0.82793 0.66428 0.0
C2894 C 0.14252 0.8101 0.67532 0.0
C2895 C 0.14279 0.79974 0.69001 0.0
C2896 C 0.18284 0.82942 0.70705 0.0
C2897 C 0.16183 0.82001 0.69171 0.0
C2898 C 0.1938 0.8379 0.70544 0.0
C2899 C 0.19487 0.84675 0.68857 0.0
C2900 C 0.1729 0.82976 0.69165 0.0
C2901 C 0.1845 0.8471 0.6739 0.0
C2902 C 0.15199 0.82024 0.67613 0.0
C2903 C 0.15241 0.8002 0.70587 0.0
N2904 N 0.174 0.83864 0.67569 0.0
N2905 N 0.16161 0.8101 0.70621 0.0
H2906 H 0.19533 0.14864 0.71361 0.0
H2907 H 0.12986 0.1772 0.65837 0.0
H2908 H 0.18102 0.13481 0.65393 0.0
H2909 H 0.14989 0.19648 0.70979 0.0
H2910 H 0.14637 0.15932 0.65968 0.0
H2911 H 0.17638 0.16383 0.7157 0.0
C2912 C 0.1881 0.14868 0.70106 0.0
C2913 C 0.18977 0.14052 0.68351 0.0
C2914 C 0.14706 0.16743 0.67077 0.0
C2915 C 0.16816 0.15795 0.68571 0.0
C2916 C 0.13768 0.17766 0.66999 0.0
C2917 C 0.13852 0.18844 0.68389 0.0
C2918 C 0.15733 0.16794 0.6856 0.0
C2919 C 0.14871 0.18834 0.6989 0.0
C2920 C 0.17734 0.15742 0.7022 0.0
C2921 C 0.18019 0.14109 0.6676 0.0
N2922 N 0.15775 0.1783 0.69927 0.0
N2923 N 0.1698 0.14971 0.66904 0.0
H2924 H 0.80689 0.14009 0.6521 0.0
H2925 H 0.8499 0.18918 0.72144 0.0
H2926 H 0.80853 0.13684 0.71927 0.0
H2927 H 0.85735 0.18279 0.65591 0.0
H2928 H 0.83449 0.17025 0.72124 0.0
H2929 H 0.8253 0.15582 0.65325 0.0
C2930 C 0.81124 0.14248 0.66709 0.0
C2931 C 0.80607 0.13709 0.68563 0.0
C2932 C 0.83963 0.1729 0.70698 0.0
C2933 C 0.82699 0.15547 0.68704 0.0
C2934 C 0.84836 0.18371 0.70707 0.0
C2935 C 0.85485 0.18755 0.68865 0.0
C2936 C 0.83723 0.16604 0.68826 0.0
C2937 C 0.85262 0.18009 0.67048 0.0
C2938 C 0.82172 0.15156 0.66773 0.0
C2939 C 0.81198 0.1409 0.7046 0.0
N2940 N 0.84387 0.16979 0.67069 0.0
N2941 N 0.82204 0.14995 0.70483 0.0
H2942 H 0.84706 0.80061 0.71833 0.0
H2943 H 0.81486 0.86354 0.66126 0.0
H2944 H 0.86131 0.81647 0.65984 0.0
H2945 H 0.79931 0.84607 0.71776 0.0
H2946 H 0.83398 0.84853 0.66326 0.0
H2947 H 0.83161 0.81927 0.72107 0.0
C2948 C 0.84709 0.80814 0.70622 0.0
C2949 C 0.85541 0.80692 0.68873 0.0
C2950 C 0.82645 0.84807 0.67534 0.0
C2951 C 0.83758 0.8282 0.69161 0.0
C2952 C 0.81558 0.8567 0.67428 0.0
C2953 C 0.80541 0.85594 0.68925 0.0
C2954 C 0.82714 0.83862 0.69146 0.0
C2955 C 0.80681 0.84681 0.70567 0.0
C2956 C 0.8382 0.81875 0.70772 0.0
C2957 C 0.8549 0.81689 0.6734 0.0
N2958 N 0.81741 0.83843 0.70625 0.0
N2959 N 0.84605 0.82706 0.67511 0.0
H2960 H 0.63263 0.67989 0.83757 0.0
H2961 H 0.70141 0.65674 0.78743 0.0
H2962 H 0.65146 0.69997 0.78587 0.0
H2963 H 0.67907 0.63246 0.83068 0.0
H2964 H 0.68292 0.6724 0.78614 0.0
H2965 H 0.64934 0.66222 0.83514 0.0
C2966 C 0.64025 0.68054 0.82566 0.0
C2967 C 0.6407 0.69142 0.81194 0.0
C2968 C 0.68201 0.66359 0.79579 0.0
C2969 C 0.65982 0.6713 0.80908 0.0
C2970 C 0.69255 0.65458 0.79644 0.0
C2971 C 0.69184 0.64325 0.80923 0.0
C2972 C 0.6707 0.66136 0.80817 0.0
C2973 C 0.68017 0.64117 0.82088 0.0
C2974 C 0.64974 0.67043 0.82421 0.0
C2975 C 0.65068 0.6917 0.79663 0.0
N2976 N 0.67009 0.65019 0.82018 0.0
N2977 N 0.65991 0.68185 0.79573 0.0
H2978 H 0.31006 0.63631 0.84247 0.0
H2979 H 0.33532 0.70369 0.78912 0.0
H2980 H 0.29083 0.65464 0.78953 0.0
H2981 H 0.35619 0.68394 0.83923 0.0
H2982 H 0.31951 0.68525 0.78797 0.0
H2983 H 0.32754 0.65321 0.84073 0.0
C2984 C 0.30954 0.64388 0.83045 0.0
C2985 C 0.29896 0.6441 0.81618 0.0
C2986 C 0.32759 0.68491 0.79915 0.0
C2987 C 0.31892 0.66345 0.81405 0.0
C2988 C 0.33667 0.69541 0.79973 0.0
C2989 C 0.34706 0.6954 0.81437 0.0
C2990 C 0.32887 0.67433 0.81334 0.0
C2991 C 0.34819 0.68448 0.82794 0.0
C2992 C 0.31955 0.65349 0.82941 0.0
C2993 C 0.29887 0.65402 0.80074 0.0
N2994 N 0.33917 0.67441 0.82716 0.0
N2995 N 0.30865 0.66335 0.80017 0.0
H2996 H 0.36516 0.31659 0.82587 0.0
H2997 H 0.29605 0.3411 0.7797 0.0
H2998 H 0.34328 0.29549 0.77825 0.0
H2999 H 0.32024 0.36516 0.82075 0.0
H3000 H 0.31436 0.32543 0.77633 0.0
H3001 H 0.35013 0.33554 0.82164 0.0
C3002 C 0.35734 0.31603 0.81426 0.0
C3003 C 0.35534 0.30437 0.80261 0.0
C3004 C 0.31574 0.33421 0.7859 0.0
C3005 C 0.33799 0.32591 0.79795 0.0
C3006 C 0.30529 0.34325 0.78773 0.0
C3007 C 0.30653 0.35445 0.80068 0.0
C3008 C 0.32751 0.33627 0.79728 0.0
C3009 C 0.31872 0.35651 0.81095 0.0
C3010 C 0.34872 0.32683 0.81193 0.0
C3011 C 0.34499 0.30417 0.78791 0.0
N3012 N 0.32868 0.34743 0.80921 0.0
N3013 N 0.33661 0.31471 0.78617 0.0
H3014 H 0.62684 0.31618 0.82028 0.0
H3015 H 0.6961 0.34184 0.77369 0.0
H3016 H 0.65286 0.29227 0.78185 0.0
H3017 H 0.67629 0.36043 0.82592 0.0
H3018 H 0.67784 0.32587 0.7712 0.0
H3019 H 0.64259 0.33467 0.81735 0.0
C3020 C 0.63582 0.31481 0.81117 0.0
C3021 C 0.63855 0.30257 0.80145 0.0
C3022 C 0.67745 0.33352 0.78309 0.0
C3023 C 0.65648 0.32376 0.79778 0.0
C3024 C 0.68789 0.34261 0.78458 0.0
C3025 C 0.68785 0.35238 0.80025 0.0
C3026 C 0.66684 0.33422 0.7973 0.0
C3027 C 0.67675 0.35311 0.81355 0.0
C3028 C 0.64475 0.32539 0.80942 0.0
C3029 C 0.65021 0.30152 0.78944 0.0
N3030 N 0.66674 0.34407 0.81189 0.0
N3031 N 0.65876 0.31194 0.78805 0.0
H3032 H 0.6541 0.29222 0.21884 0.0
H3033 H 0.68122 0.36185 0.17565 0.0
H3034 H 0.63601 0.31346 0.16764 0.0
H3035 H 0.70447 0.33512 0.21389 0.0
H3036 H 0.66264 0.34617 0.17729 0.0
H3037 H 0.67058 0.31004 0.22219 0.0
C3038 C 0.65348 0.30073 0.20851 0.0
C3039 C 0.64374 0.30135 0.19285 0.0
C3040 C 0.67179 0.34381 0.18543 0.0
C3041 C 0.66258 0.32167 0.19648 0.0
C3042 C 0.68243 0.35271 0.18442 0.0
C3043 C 0.6945 0.34976 0.19446 0.0
C3044 C 0.67319 0.33189 0.19665 0.0
C3045 C 0.69534 0.3379 0.20604 0.0
C3046 C 0.66294 0.31084 0.21033 0.0
C3047 C 0.64348 0.31253 0.17973 0.0
N3048 N 0.68486 0.32938 0.20672 0.0
N3049 N 0.6528 0.32224 0.18179 0.0
H3050 H 0.67856 0.63054 0.18003 0.0
H3051 H 0.66183 0.70758 0.19825 0.0
H3052 H 0.70747 0.66019 0.19826 0.0
H3053 H 0.63304 0.67926 0.17515 0.0
H3054 H 0.67816 0.68976 0.20099 0.0
H3055 H 0.66127 0.64773 0.18049 0.0
C3056 C 0.68127 0.64064 0.18418 0.0
C3057 C 0.6945 0.64392 0.18911 0.0
C3058 C 0.66826 0.6874 0.19539 0.0
C3059 C 0.67478 0.66357 0.18978 0.0
C3060 C 0.65889 0.69757 0.19395 0.0
C3061 C 0.64603 0.6949 0.1865 0.0
C3062 C 0.66479 0.67442 0.1893 0.0
C3063 C 0.64289 0.68177 0.18076 0.0
C3064 C 0.67139 0.65043 0.18451 0.0
C3065 C 0.69739 0.65713 0.19465 0.0
N3066 N 0.65222 0.67201 0.18226 0.0
N3067 N 0.68763 0.66646 0.19476 0.0
H3068 H 0.3 0.64832 0.21423 0.0
H3069 H 0.36554 0.67686 0.15948 0.0
H3070 H 0.31643 0.63228 0.1573 0.0
H3071 H 0.3474 0.69404 0.21429 0.0
H3072 H 0.34925 0.65878 0.16069 0.0
H3073 H 0.31903 0.66328 0.21694 0.0
C3074 C 0.30771 0.6478 0.20245 0.0
C3075 C 0.30658 0.63908 0.18544 0.0
C3076 C 0.34892 0.66645 0.17256 0.0
C3077 C 0.3283 0.65638 0.18825 0.0
C3078 C 0.35818 0.67679 0.17183 0.0
C3079 C 0.35777 0.68704 0.18671 0.0
C3080 C 0.33915 0.66637 0.18823 0.0
C3081 C 0.34818 0.68631 0.20259 0.0
C3082 C 0.31854 0.65642 0.20393 0.0
C3083 C 0.31679 0.639 0.17048 0.0
N3084 N 0.33919 0.67622 0.20282 0.0
N3085 N 0.32719 0.64759 0.17217 0.0
H3086 H 0.315 0.36105 0.17757 0.0
H3087 H 0.33308 0.28795 0.21151 0.0
H3088 H 0.29153 0.33913 0.22245 0.0
H3089 H 0.36311 0.31555 0.18991 0.0
H3090 H 0.3175 0.30638 0.21483 0.0
H3091 H 0.33264 0.34451 0.18105 0.0
C3092 C 0.3136 0.35291 0.18842 0.0
C3093 C 0.30164 0.35144 0.19956 0.0
C3094 C 0.32755 0.30841 0.20957 0.0
C3095 C 0.32172 0.33229 0.20317 0.0
C3096 C 0.33652 0.29788 0.20777 0.0
C3097 C 0.34949 0.30011 0.20031 0.0
C3098 C 0.33146 0.32125 0.20354 0.0
C3099 C 0.35316 0.31325 0.19528 0.0
C3100 C 0.32368 0.34342 0.1903 0.0
C3101 C 0.3004 0.34051 0.21312 0.0
N3102 N 0.34414 0.32329 0.19675 0.0
N3103 N 0.31024 0.33127 0.21434 0.0
H3104 H 0.96173 0.26818 0.26012 0.0
H3105 H 0.02823 0.22668 0.28081 0.0
H3106 H 0.96313 0.22991 0.29097 0.0
H3107 H 0.02751 0.26941 0.27314 0.0
H3108 H 0.00429 0.22607 0.27421 0.0
H3109 H 0.98584 0.26695 0.25495 0.0
C3110 C 0.96702 0.25947 0.26564 0.0
C3111 C 0.96033 0.24923 0.27632 0.0
C3112 C 0.00943 0.23554 0.2737 0.0
C3113 C 0.98782 0.24768 0.26996 0.0
C3114 C 0.02307 0.23592 0.27756 0.0
C3115 C 0.02985 0.24814 0.27799 0.0
C3116 C 0.00252 0.24747 0.27014 0.0
C3117 C 0.02271 0.25975 0.27301 0.0
C3118 C 0.98076 0.25876 0.26254 0.0
C3119 C 0.96772 0.23802 0.28252 0.0
N3120 N 0.00938 0.25915 0.26955 0.0
N3121 N 0.98107 0.23761 0.27941 0.0
H3122 H 0.72611 0.03229 0.26543 0.0
H3123 H 0.76358 0.96294 0.27913 0.0
H3124 H 0.76586 0.02807 0.29015 0.0
H3125 H 0.72171 0.96676 0.26516 0.0
H3126 H 0.7662 0.98691 0.27423 0.0
H3127 H 0.72611 0.00863 0.25652 0.0
C3128 C 0.73494 0.02644 0.26859 0.0
C3129 C 0.74593 0.03207 0.27883 0.0
C3130 C 0.75648 0.98248 0.27189 0.0
C3131 C 0.74593 0.00502 0.26893 0.0
C3132 C 0.755 0.96878 0.27452 0.0
C3133 C 0.74237 0.96291 0.27282 0.0
C3134 C 0.74525 0.99034 0.26758 0.0
C3135 C 0.73157 0.97096 0.26701 0.0
C3136 C 0.73491 0.01292 0.26361 0.0
C3137 C 0.75708 0.02403 0.28267 0.0
N3138 N 0.73323 0.98431 0.26485 0.0
N3139 N 0.75674 0.01086 0.27792 0.0
H3140 H 0.02837 0.71975 0.28083 0.0
H3141 H 0.9634 0.7633 0.2652 0.0
H3142 H 0.02919 0.76141 0.26411 0.0
H3143 H 0.96337 0.72135 0.27995 0.0
H3144 H 0.98729 0.76198 0.25812 0.0
H3145 H 0.00465 0.71923 0.27342 0.0
C3146 C 0.02365 0.72874 0.27515 0.0
C3147 C 0.03079 0.74071 0.27346 0.0
C3148 C 0.982 0.75302 0.26254 0.0
C3149 C 0.00344 0.74026 0.26551 0.0
C3150 C 0.96838 0.75378 0.26667 0.0
C3151 C 0.96142 0.74247 0.27352 0.0
C3152 C 0.98871 0.74089 0.26547 0.0
C3153 C 0.9683 0.73033 0.27471 0.0
C3154 C 0.01003 0.72846 0.27106 0.0
C3155 C 0.02402 0.75205 0.26621 0.0
N3156 N 0.98159 0.72991 0.27106 0.0
N3157 N 0.01067 0.7516 0.26283 0.0
H3158 H 0.23059 0.96571 0.28128 0.0
H3159 H 0.27406 0.03088 0.27864 0.0
H3160 H 0.27316 0.96527 0.27171 0.0
H3161 H 0.2312 0.0312 0.27324 0.0
H3162 H 0.27398 0.00702 0.27187 0.0
H3163 H 0.23045 0.98954 0.27433 0.0
C3164 C 0.23989 0.97055 0.27731 0.0
C3165 C 0.25195 0.96349 0.27741 0.0
C3166 C 0.2646 0.01234 0.27183 0.0
C3167 C 0.25188 0.99089 0.26991 0.0
C3168 C 0.26464 0.02601 0.27558 0.0
C3169 C 0.25259 0.03304 0.27692 0.0
C3170 C 0.25242 0.00562 0.26967 0.0
C3171 C 0.2407 0.02612 0.27296 0.0
C3172 C 0.2398 0.98421 0.27343 0.0
C3173 C 0.26368 0.97038 0.27237 0.0
N3174 N 0.24089 0.01275 0.26987 0.0
N3175 N 0.26339 0.98374 0.26914 0.0
H3176 H 0.03051 0.7583 0.72921 0.0
H3177 H 0.96274 0.71801 0.71805 0.0
H3178 H 0.02772 0.71702 0.71114 0.0
H3179 H 0.96474 0.76028 0.73 0.0
H3180 H 0.98659 0.7164 0.72428 0.0
H3181 H 0.00676 0.75807 0.73794 0.0
C3182 C 0.02494 0.74912 0.72749 0.0
C3183 C 0.03096 0.73773 0.71909 0.0
C3184 C 0.9818 0.72601 0.72586 0.0
C3185 C 0.0039 0.73741 0.72881 0.0
C3186 C 0.96813 0.72692 0.72246 0.0
C3187 C 0.96177 0.73935 0.72312 0.0
C3188 C 0.98918 0.73762 0.72976 0.0
C3189 C 0.96932 0.75055 0.72878 0.0
C3190 C 0.0114 0.74901 0.73237 0.0
C3191 C 0.02334 0.7261 0.71712 0.0
N3192 N 0.98268 0.74946 0.73157 0.0
N3193 N 0.01016 0.72628 0.72171 0.0
H3194 H 0.26288 0.95986 0.72895 0.0
H3195 H 0.22363 0.02761 0.70734 0.0
H3196 H 0.22805 0.96276 0.6899 0.0
H3197 H 0.26587 0.02584 0.71996 0.0
H3198 H 0.2224 0.00347 0.71178 0.0
H3199 H 0.26111 0.9838 0.73649 0.0
C3200 C 0.25471 0.96552 0.72237 0.0
C3201 C 0.24566 0.95951 0.70866 0.0
C3202 C 0.23187 0.00845 0.71388 0.0
C3203 C 0.24354 0.98658 0.71723 0.0
C3204 C 0.23262 0.02219 0.71123 0.0
C3205 C 0.24494 0.02876 0.71277 0.0
C3206 C 0.24348 0.00124 0.71833 0.0
C3207 C 0.25616 0.02126 0.71857 0.0
C3208 C 0.25373 0.97911 0.72659 0.0
C3209 C 0.23527 0.96716 0.70039 0.0
N3210 N 0.25519 0.00786 0.72091 0.0
N3211 N 0.23452 0.98036 0.70471 0.0
H3212 H 0.03037 0.24129 0.73613 0.0
H3213 H 0.96366 0.27965 0.70516 0.0
H3214 H 0.02873 0.27786 0.70065 0.0
H3215 H 0.96441 0.23892 0.72657 0.0
H3216 H 0.98748 0.28137 0.7122 0.0
H3217 H 0.00623 0.24252 0.74096 0.0
C3218 C 0.025 0.24964 0.72953 0.0
C3219 C 0.03162 0.25937 0.71766 0.0
C3220 C 0.98241 0.2721 0.7156 0.0
C3221 C 0.00408 0.26091 0.72346 0.0
C3222 C 0.96884 0.27111 0.71153 0.0
C3223 C 0.96215 0.25904 0.71488 0.0
C3224 C 0.98937 0.26093 0.72297 0.0
C3225 C 0.96923 0.24838 0.72367 0.0
C3226 C 0.01124 0.25036 0.73241 0.0
C3227 C 0.02416 0.27015 0.71002 0.0
N3228 N 0.98254 0.2495 0.72712 0.0
N3229 N 0.01079 0.27054 0.71287 0.0
H3230 H 0.75473 0.02876 0.73882 0.0
H3231 H 0.71348 0.96385 0.70806 0.0
H3232 H 0.7161 0.029 0.70917 0.0
H3233 H 0.75451 0.96306 0.72799 0.0
H3234 H 0.71249 0.98752 0.71651 0.0
H3235 H 0.75299 0.00459 0.74279 0.0
C3236 C 0.74582 0.02378 0.73338 0.0
C3237 C 0.73565 0.03093 0.72332 0.0
C3238 C 0.72167 0.98215 0.71929 0.0
C3239 C 0.73356 0.00334 0.728 0.0
C3240 C 0.72224 0.96866 0.71441 0.0
C3241 C 0.73417 0.96158 0.71696 0.0
C3242 C 0.73313 0.98865 0.72662 0.0
C3243 C 0.74514 0.96819 0.72571 0.0
C3244 C 0.74481 0.01 0.73574 0.0
C3245 C 0.72419 0.02398 0.71708 0.0
N3246 N 0.74443 0.98143 0.72993 0.0
N3247 N 0.72354 0.01057 0.71929 0.0
H3248 H 0.52824 0.72685 0.77442 0.0
H3249 H 0.46135 0.76846 0.7582 0.0
H3250 H 0.52652 0.76985 0.77374 0.0
H3251 H 0.46292 0.72894 0.78485 0.0
H3252 H 0.48541 0.76749 0.75256 0.0
H3253 H 0.50439 0.72617 0.76688 0.0
C3254 C 0.52291 0.73615 0.77251 0.0
C3255 C 0.52938 0.74843 0.77521 0.0
C3256 C 0.48039 0.75897 0.7593 0.0
C3257 C 0.50219 0.74767 0.76612 0.0
C3258 C 0.46667 0.75952 0.76266 0.0
C3259 C 0.46007 0.74888 0.77247 0.0
C3260 C 0.48751 0.74764 0.76556 0.0
C3261 C 0.46748 0.7374 0.77722 0.0
C3262 C 0.50933 0.73573 0.76806 0.0
C3263 C 0.52202 0.76014 0.77182 0.0
N3264 N 0.48082 0.73715 0.77393 0.0
N3265 N 0.50878 0.75947 0.76769 0.0
H3266 H 0.22389 0.46249 0.76355 0.0
H3267 H 0.26647 0.52909 0.77678 0.0
H3268 H 0.26475 0.46344 0.78461 0.0
H3269 H 0.22346 0.52755 0.77708 0.0
H3270 H 0.26696 0.5052 0.76942 0.0
H3271 H 0.22482 0.48657 0.75803 0.0
C3272 C 0.2331 0.46771 0.76679 0.0
C3273 C 0.24417 0.46095 0.77496 0.0
C3274 C 0.25744 0.51018 0.77079 0.0
C3275 C 0.24533 0.48841 0.76841 0.0
C3276 C 0.25713 0.52379 0.77513 0.0
C3277 C 0.24491 0.53034 0.77795 0.0
C3278 C 0.24544 0.5031 0.76914 0.0
C3279 C 0.23313 0.52301 0.77498 0.0
C3280 C 0.23363 0.48143 0.76354 0.0
C3281 C 0.25596 0.46819 0.77827 0.0
N3282 N 0.2337 0.50976 0.77097 0.0
N3283 N 0.25617 0.48156 0.77524 0.0
H3284 H 0.46155 0.25243 0.7706 0.0
H3285 H 0.52914 0.21299 0.78968 0.0
H3286 H 0.46393 0.21268 0.7959 0.0
H3287 H 0.52736 0.25394 0.76931 0.0
H3288 H 0.50521 0.2111 0.78429 0.0
H3289 H 0.48535 0.25151 0.76259 0.0
C3290 C 0.46704 0.24341 0.77408 0.0
C3291 C 0.46085 0.23269 0.78423 0.0
C3292 C 0.51007 0.22045 0.78072 0.0
C3293 C 0.48803 0.23163 0.77538 0.0
C3294 C 0.52377 0.22152 0.78364 0.0
C3295 C 0.53024 0.23372 0.78027 0.0
C3296 C 0.50275 0.23169 0.77454 0.0
C3297 C 0.52272 0.24444 0.77261 0.0
C3298 C 0.48063 0.24292 0.76961 0.0
C3299 C 0.46841 0.22127 0.78849 0.0
N3300 N 0.50933 0.24324 0.77028 0.0
N3301 N 0.48164 0.2211 0.78426 0.0
H3302 H 0.73564 0.46475 0.77184 0.0
H3303 H 0.77752 0.53039 0.79429 0.0
H3304 H 0.77494 0.46525 0.79902 0.0
H3305 H 0.73812 0.5308 0.76723 0.0
H3306 H 0.77824 0.50638 0.78998 0.0
H3307 H 0.73776 0.48857 0.76428 0.0
C3308 C 0.74479 0.46984 0.7759 0.0
C3309 C 0.75504 0.46312 0.7864 0.0
C3310 C 0.76949 0.51171 0.78473 0.0
C3311 C 0.75749 0.49028 0.77799 0.0
C3312 C 0.76911 0.52549 0.78702 0.0
C3313 C 0.75766 0.53265 0.78137 0.0
C3314 C 0.75828 0.50498 0.77696 0.0
C3315 C 0.74702 0.52565 0.77229 0.0
C3316 C 0.74598 0.48342 0.77166 0.0
C3317 C 0.76668 0.47015 0.79135 0.0
N3318 N 0.74751 0.51217 0.77063 0.0
N3319 N 0.76753 0.48337 0.7873 0.0
H3320 H 0.46354 0.22118 0.22196 0.0
H3321 H 0.53047 0.26332 0.229 0.0
H3322 H 0.46447 0.26363 0.23263 0.0
H3323 H 0.52851 0.22142 0.21418 0.0
H3324 H 0.50668 0.26296 0.23714 0.0
H3325 H 0.48754 0.22039 0.22679 0.0
C3326 C 0.46873 0.23031 0.2258 0.0
C3327 C 0.46197 0.24254 0.22655 0.0
C3328 C 0.51152 0.25381 0.23239 0.0
C3329 C 0.4896 0.24173 0.2315 0.0
C3330 C 0.52507 0.25403 0.22762 0.0
C3331 C 0.53147 0.24243 0.22061 0.0
C3332 C 0.50431 0.24192 0.23006 0.0
C3333 C 0.52405 0.2306 0.2196 0.0
C3334 C 0.48249 0.22986 0.22836 0.0
C3335 C 0.46932 0.25404 0.23138 0.0
N3336 N 0.51084 0.23069 0.22402 0.0
N3337 N 0.48277 0.25339 0.23336 0.0
H3338 H 0.778 0.52851 0.21365 0.0
H3339 H 0.7336 0.46356 0.22752 0.0
H3340 H 0.73556 0.52945 0.22389 0.0
H3341 H 0.7759 0.4633 0.21541 0.0
H3342 H 0.7347 0.48763 0.23311 0.0
H3343 H 0.77802 0.50471 0.22135 0.0
C3344 C 0.76871 0.52369 0.21776 0.0
C3345 C 0.75673 0.53085 0.21779 0.0
C3346 C 0.74377 0.48226 0.22956 0.0
C3347 C 0.75662 0.50363 0.22644 0.0
C3348 C 0.74314 0.46854 0.22628 0.0
C3349 C 0.75463 0.46144 0.22063 0.0
C3350 C 0.75597 0.48891 0.22707 0.0
C3351 C 0.76678 0.46833 0.21974 0.0
C3352 C 0.76872 0.51012 0.22221 0.0
C3353 C 0.745 0.52424 0.22361 0.0
N3354 N 0.76708 0.4817 0.22261 0.0
N3355 N 0.7452 0.51093 0.22737 0.0
H3356 H 0.46663 0.77477 0.22121 0.0
H3357 H 0.53164 0.73099 0.23506 0.0
H3358 H 0.46597 0.73253 0.23392 0.0
H3359 H 0.5315 0.77309 0.22131 0.0
H3360 H 0.50777 0.73218 0.24239 0.0
H3361 H 0.49026 0.77518 0.22935 0.0
C3362 C 0.47137 0.76561 0.22615 0.0
C3363 C 0.46433 0.75354 0.22648 0.0
C3364 C 0.51303 0.7412 0.23814 0.0
C3365 C 0.49156 0.75389 0.2353 0.0
C3366 C 0.52663 0.74052 0.23388 0.0
C3367 C 0.53352 0.7519 0.22715 0.0
C3368 C 0.50628 0.75334 0.23552 0.0
C3369 C 0.52662 0.76405 0.2264 0.0
C3370 C 0.48493 0.76584 0.23067 0.0
C3371 C 0.47109 0.74199 0.23286 0.0
N3372 N 0.51334 0.76439 0.23018 0.0
N3373 N 0.48439 0.74241 0.23668 0.0
H3374 H 0.25836 0.46516 0.23141 0.0
H3375 H 0.21732 0.53214 0.21532 0.0
H3376 H 0.21821 0.46716 0.20768 0.0
H3377 H 0.25896 0.53108 0.23206 0.0
H3378 H 0.216 0.50822 0.22106 0.0
H3379 H 0.25724 0.48893 0.23983 0.0
C3380 C 0.24923 0.47056 0.22835 0.0
C3381 C 0.23845 0.46431 0.2185 0.0
C3382 C 0.22539 0.51324 0.22379 0.0
C3383 C 0.23712 0.49139 0.22791 0.0
C3384 C 0.22613 0.52694 0.22068 0.0
C3385 C 0.23834 0.5336 0.22287 0.0
C3386 C 0.23695 0.50611 0.22895 0.0
C3387 C 0.24942 0.52627 0.22969 0.0
C3388 C 0.24861 0.48412 0.23307 0.0
C3389 C 0.22685 0.47172 0.21484 0.0
N3390 N 0.24852 0.51287 0.23218 0.0
N3391 N 0.22655 0.48491 0.21934 0.0
H3392 H 0.08779 0.27936 0.44414 0.0
H3393 H 0.11202 0.24517 0.55006 0.0
H3394 H 0.10616 0.24051 0.44728 0.0
H3395 H 0.08499 0.27856 0.54909 0.0
H3396 H 0.11143 0.24452 0.51204 0.0
H3397 H 0.08769 0.28021 0.48231 0.0
C3398 C 0.09172 0.27097 0.4528 0.0
C3399 C 0.09709 0.25988 0.44241 0.0
C3400 C 0.10561 0.252 0.52011 0.0
C3401 C 0.09718 0.26092 0.48606 0.0
C3402 C 0.10604 0.25244 0.54181 0.0
C3403 C 0.09859 0.26198 0.55273 0.0
C3404 C 0.09776 0.26121 0.50915 0.0
C3405 C 0.09082 0.27101 0.54125 0.0
C3406 C 0.09171 0.27151 0.47459 0.0
C3407 C 0.10219 0.2494 0.45452 0.0
N3408 N 0.09064 0.27044 0.52004 0.0
N3409 N 0.10216 0.25021 0.47565 0.0
H3410 H 0.75083 0.10983 0.55267 0.0
H3411 H 0.72137 0.07751 0.44874 0.0
H3412 H 0.72689 0.07408 0.55315 0.0
H3413 H 0.75253 0.10714 0.44947 0.0
H3414 H 0.72251 0.07637 0.48687 0.0
H3415 H 0.75074 0.10941 0.51474 0.0
C3416 C 0.74566 0.10179 0.54484 0.0
C3417 C 0.73891 0.09194 0.55623 0.0
C3418 C 0.72912 0.08308 0.47863 0.0
C3419 C 0.73854 0.09157 0.51256 0.0
C3420 C 0.72852 0.0837 0.45687 0.0
C3421 C 0.73677 0.09254 0.44585 0.0
C3422 C 0.73799 0.0914 0.48945 0.0
C3423 C 0.74575 0.10041 0.45727 0.0
C3424 C 0.74556 0.10161 0.52312 0.0
C3425 C 0.7321 0.08199 0.54507 0.0
N3426 N 0.74606 0.0997 0.4784 0.0
N3427 N 0.73206 0.08208 0.52385 0.0
H3428 H 0.92304 0.73418 0.44862 0.0
H3429 H 0.88042 0.72242 0.55258 0.0
H3430 H 0.88094 0.72565 0.44948 0.0
H3431 H 0.92071 0.7374 0.55298 0.0
H3432 H 0.88154 0.72047 0.51471 0.0
H3433 H 0.92347 0.73224 0.48677 0.0
C3434 C 0.91393 0.73174 0.45683 0.0
C3435 C 0.90191 0.73021 0.44594 0.0
C3436 C 0.89017 0.72413 0.52307 0.0
C3437 C 0.9023 0.72803 0.48942 0.0
C3438 C 0.88952 0.7253 0.54469 0.0
C3439 C 0.90042 0.73026 0.55596 0.0
C3440 C 0.90182 0.72795 0.51253 0.0
C3441 C 0.91207 0.7335 0.54494 0.0
C3442 C 0.91416 0.73071 0.47857 0.0
C3443 C 0.89038 0.72713 0.45732 0.0
N3444 N 0.91243 0.7324 0.5238 0.0
N3445 N 0.89085 0.72619 0.47842 0.0
H3446 H 0.26936 0.91298 0.54819 0.0
H3447 H 0.25298 0.87556 0.44157 0.0
H3448 H 0.26088 0.87088 0.54432 0.0
H3449 H 0.27158 0.91427 0.44351 0.0
H3450 H 0.25475 0.87416 0.4795 0.0
H3451 H 0.26954 0.91409 0.5101 0.0
C3452 C 0.26767 0.90394 0.53939 0.0
C3453 C 0.26503 0.89182 0.54957 0.0
C3454 C 0.2585 0.88294 0.47166 0.0
C3455 C 0.26497 0.89311 0.50593 0.0
C3456 C 0.25741 0.88378 0.45003 0.0
C3457 C 0.26207 0.89508 0.43944 0.0
C3458 C 0.26418 0.89354 0.48285 0.0
C3459 C 0.26792 0.90536 0.4511 0.0
C3460 C 0.26771 0.9046 0.51762 0.0
C3461 C 0.26269 0.8805 0.53724 0.0
N3462 N 0.26872 0.90439 0.47223 0.0
N3463 N 0.26264 0.88144 0.51611 0.0
H3464 H 0.07319 0.72942 0.44625 0.0
H3465 H 0.1161 0.73772 0.54969 0.0
H3466 H 0.1162 0.72961 0.44667 0.0
H3467 H 0.07536 0.72411 0.55087 0.0
H3468 H 0.11592 0.73624 0.51164 0.0
H3469 H 0.07334 0.72849 0.48437 0.0
C3470 C 0.08266 0.72912 0.45428 0.0
C3471 C 0.09471 0.72971 0.44315 0.0
C3472 C 0.10704 0.73351 0.5202 0.0
C3473 C 0.09491 0.72892 0.4868 0.0
C3474 C 0.10711 0.73443 0.54188 0.0
C3475 C 0.09571 0.73109 0.55336 0.0
C3476 C 0.09542 0.72938 0.50987 0.0
C3477 C 0.08437 0.72673 0.54254 0.0
C3478 C 0.08273 0.72866 0.47607 0.0
C3479 C 0.10667 0.72948 0.45453 0.0
N3480 N 0.08446 0.7261 0.52134 0.0
N3481 N 0.10646 0.72922 0.47569 0.0
H3482 H 0.25842 0.07513 0.44636 0.0
H3483 H 0.26827 0.11685 0.55108 0.0
H3484 H 0.26989 0.11658 0.44754 0.0
H3485 H 0.26448 0.074 0.55027 0.0
H3486 H 0.26895 0.11684 0.51312 0.0
H3487 H 0.26063 0.07437 0.48432 0.0
C3488 C 0.26153 0.08404 0.45455 0.0
C3489 C 0.26388 0.09597 0.4437 0.0
C3490 C 0.26806 0.10742 0.52123 0.0
C3491 C 0.26623 0.0952 0.4872 0.0
C3492 C 0.26777 0.1074 0.54297 0.0
C3493 C 0.2663 0.0954 0.554 0.0
C3494 C 0.26678 0.09537 0.51032 0.0
C3495 C 0.2654 0.08352 0.54248 0.0
C3496 C 0.26273 0.08361 0.47624 0.0
C3497 C 0.26771 0.10723 0.45523 0.0
N3498 N 0.26558 0.08382 0.52128 0.0
N3499 N 0.26869 0.10658 0.47633 0.0
H3500 H 0.90497 0.27744 0.44622 0.0
H3501 H 0.89497 0.23517 0.55086 0.0
H3502 H 0.89212 0.23644 0.44734 0.0
H3503 H 0.89866 0.27802 0.55043 0.0
H3504 H 0.89629 0.23515 0.51292 0.0
H3505 H 0.9053 0.27747 0.48447 0.0
C3506 C 0.90232 0.26842 0.45453 0.0
C3507 C 0.89844 0.25694 0.44364 0.0
C3508 C 0.8968 0.24456 0.52112 0.0
C3509 C 0.89876 0.25691 0.48725 0.0
C3510 C 0.89597 0.2446 0.54281 0.0
C3511 C 0.89655 0.25664 0.55392 0.0
C3512 C 0.89833 0.25663 0.51035 0.0
C3513 C 0.89825 0.2685 0.54258 0.0
C3514 C 0.90243 0.26847 0.47632 0.0
C3515 C 0.895 0.24556 0.45514 0.0
N3516 N 0.89905 0.2682 0.5214 0.0
N3517 N 0.89524 0.24583 0.4763 0.0
H3518 H 0.71343 0.89282 0.54919 0.0
H3519 H 0.75433 0.90211 0.44405 0.0
H3520 H 0.75403 0.90703 0.54761 0.0
H3521 H 0.7113 0.90224 0.44545 0.0
H3522 H 0.75458 0.90214 0.48202 0.0
H3523 H 0.71256 0.89451 0.51117 0.0
C3524 C 0.72213 0.8964 0.54093 0.0
C3525 C 0.73385 0.89972 0.55173 0.0
C3526 C 0.74508 0.90224 0.47401 0.0
C3527 C 0.73296 0.90141 0.50815 0.0
C3528 C 0.74491 0.90231 0.45227 0.0
C3529 C 0.73276 0.90226 0.44139 0.0
C3530 C 0.73303 0.90192 0.48506 0.0
C3531 C 0.72091 0.90211 0.45308 0.0
C3532 C 0.72162 0.8973 0.51921 0.0
C3533 C 0.74486 0.90408 0.54003 0.0
N3534 N 0.72134 0.90188 0.47428 0.0
N3535 N 0.74417 0.90472 0.51891 0.0
H3536 H 0.59422 0.78121 0.05151 0.0
H3537 H 0.5776 0.74384 0.94458 0.0
H3538 H 0.5859 0.73913 0.04813 0.0
H3539 H 0.60059 0.78009 0.94737 0.0
H3540 H 0.57655 0.74361 0.9828 0.0
H3541 H 0.59263 0.78253 0.0134 0.0
C3542 C 0.59194 0.77228 0.04273 0.0
C3543 C 0.59025 0.76003 0.0529 0.0
C3544 C 0.58175 0.75164 0.97502 0.0
C3545 C 0.58838 0.76147 0.00949 0.0
C3546 C 0.58227 0.75183 0.95326 0.0
C3547 C 0.58923 0.76198 0.94289 0.0
C3548 C 0.58807 0.76177 0.98642 0.0
C3549 C 0.59523 0.77203 0.95483 0.0
C3550 C 0.59111 0.77303 0.02103 0.0
C3551 C 0.58741 0.74873 0.04082 0.0
N3552 N 0.5945 0.77169 0.97599 0.0
N3553 N 0.58654 0.74972 0.01973 0.0
H3554 H 0.21334 0.60694 0.94849 0.0
H3555 H 0.24486 0.57598 0.05201 0.0
H3556 H 0.24128 0.57431 0.94807 0.0
H3557 H 0.21355 0.60544 0.05204 0.0
H3558 H 0.24288 0.57429 0.01411 0.0
H3559 H 0.21258 0.6058 0.98651 0.0
C3560 C 0.21928 0.5995 0.95643 0.0
C3561 C 0.22747 0.59078 0.94513 0.0
C3562 C 0.23637 0.58105 0.02243 0.0
C3563 C 0.22666 0.58939 0.98868 0.0
C3564 C 0.23745 0.58197 0.0441 0.0
C3565 C 0.22944 0.59096 0.05525 0.0
C3566 C 0.22726 0.58921 0.0118 0.0
C3567 C 0.22012 0.59858 0.04408 0.0
C3568 C 0.2188 0.59881 0.97813 0.0
C3569 C 0.23479 0.58118 0.95618 0.0
N3570 N 0.21936 0.5976 0.02299 0.0
N3571 N 0.23431 0.58083 0.97737 0.0
H3572 H 0.41407 0.24842 0.05623 0.0
H3573 H 0.37617 0.22971 0.95213 0.0
H3574 H 0.38175 0.22015 0.05569 0.0
H3575 H 0.41782 0.24013 0.95192 0.0
H3576 H 0.37681 0.22841 0.99033 0.0
H3577 H 0.41452 0.24784 0.01795 0.0
C3578 C 0.4071 0.24208 0.04799 0.0
C3579 C 0.39786 0.23431 0.05898 0.0
C3580 C 0.38582 0.2309 0.9819 0.0
C3581 C 0.3982 0.23373 0.01549 0.0
C3582 C 0.38544 0.2317 0.96019 0.0
C3583 C 0.39696 0.23504 0.94902 0.0
C3584 C 0.39772 0.23375 0.99246 0.0
C3585 C 0.40876 0.23747 0.96007 0.0
C3586 C 0.40741 0.2417 0.02624 0.0
C3587 C 0.38907 0.22621 0.0477 0.0
N3588 N 0.40882 0.23692 0.98126 0.0
N3589 N 0.38935 0.22623 0.02651 0.0
H3590 H 0.74543 0.37465 0.05281 0.0
H3591 H 0.77515 0.40212 0.94719 0.0
H3592 H 0.77027 0.40983 0.05178 0.0
H3593 H 0.73559 0.38522 0.95068 0.0
H3594 H 0.77611 0.40217 0.98528 0.0
H3595 H 0.74435 0.37535 0.01485 0.0
C3596 C 0.75059 0.38259 0.04474 0.0
C3597 C 0.75788 0.39227 0.05576 0.0
C3598 C 0.76725 0.39847 0.97758 0.0
C3599 C 0.75701 0.39276 0.01211 0.0
C3600 C 0.76662 0.39851 0.95583 0.0
C3601 C 0.75526 0.39363 0.94547 0.0
C3602 C 0.75658 0.39329 0.9891 0.0
C3603 C 0.7447 0.38879 0.95774 0.0
C3604 C 0.75002 0.3829 0.02302 0.0
C3605 C 0.76469 0.40202 0.04413 0.0
N3606 N 0.74566 0.38865 0.97887 0.0
N3607 N 0.76415 0.40198 0.02294 0.0
H3608 H 0.61755 0.24552 0.05132 0.0
H3609 H 0.57752 0.23061 0.94635 0.0
H3610 H 0.57987 0.22476 0.05054 0.0
H3611 H 0.61923 0.24109 0.94785 0.0
H3612 H 0.5774 0.23005 0.98447 0.0
H3613 H 0.6175 0.2457 0.01334 0.0
C3614 C 0.60931 0.24088 0.04321 0.0
C3615 C 0.59875 0.235 0.05426 0.0
C3616 C 0.58657 0.23246 0.97642 0.0
C3617 C 0.59852 0.23546 0.01058 0.0
C3618 C 0.58668 0.23272 0.95464 0.0
C3619 C 0.59842 0.23591 0.94377 0.0
C3620 C 0.59824 0.23551 0.98746 0.0
C3621 C 0.60989 0.2388 0.95546 0.0
C3622 C 0.60926 0.24107 0.02147 0.0
C3623 C 0.58817 0.22951 0.04276 0.0
N3624 N 0.6095 0.23856 0.97663 0.0
N3625 N 0.58833 0.22988 0.02155 0.0
H3626 H 0.78033 0.60092 0.05037 0.0
H3627 H 0.73737 0.59835 0.94565 0.0
H3628 H 0.73825 0.59206 0.04912 0.0
H3629 H 0.78034 0.59786 0.94608 0.0
H3630 H 0.73743 0.59733 0.98374 0.0
H3631 H 0.78054 0.60081 0.01227 0.0
C3632 C 0.77115 0.59884 0.04213 0.0
C3633 C 0.75924 0.59653 0.05305 0.0
C3634 C 0.74685 0.59741 0.97551 0.0
C3635 C 0.75938 0.59663 0.00938 0.0
C3636 C 0.74682 0.59808 0.95379 0.0
C3637 C 0.75887 0.59824 0.94272 0.0
C3638 C 0.75902 0.59701 0.98628 0.0
C3639 C 0.77083 0.59766 0.95402 0.0
C3640 C 0.77127 0.59885 0.02036 0.0
C3641 C 0.74762 0.59413 0.04144 0.0
N3642 N 0.77061 0.59715 0.97521 0.0
N3643 N 0.74797 0.5943 0.02026 0.0
H3644 H 0.39708 0.7352 0.94882 0.0
H3645 H 0.41335 0.7762 0.05291 0.0
H3646 H 0.41173 0.77561 0.94823 0.0
H3647 H 0.39486 0.73741 0.05193 0.0
H3648 H 0.41486 0.77556 0.01474 0.0
H3649 H 0.39816 0.73525 0.98678 0.0
C3650 C 0.40051 0.74411 0.95669 0.0
C3651 C 0.40417 0.75548 0.94532 0.0
C3652 C 0.41051 0.76719 0.02291 0.0
C3653 C 0.40555 0.75557 0.98891 0.0
C3654 C 0.4097 0.76752 0.04467 0.0
C3655 C 0.40385 0.7569 0.05558 0.0
C3656 C 0.40552 0.75611 0.01203 0.0
C3657 C 0.39921 0.74593 0.04413 0.0
C3658 C 0.40118 0.74411 0.97839 0.0
C3659 C 0.40885 0.76662 0.95636 0.0
N3660 N 0.40012 0.74584 0.02302 0.0
N3661 N 0.40933 0.76642 0.97757 0.0
H3662 H 0.25686 0.3847 0.94743 0.0
H3663 H 0.21857 0.40433 0.05158 0.0
H3664 H 0.22242 0.41036 0.94707 0.0
H3665 H 0.26005 0.3929 0.0506 0.0
H3666 H 0.21864 0.40474 0.01345 0.0
H3667 H 0.25692 0.38537 0.98559 0.0
C3668 C 0.24929 0.39044 0.95543 0.0
C3669 C 0.23961 0.39747 0.94416 0.0
C3670 C 0.22771 0.40218 0.02166 0.0
C3671 C 0.23959 0.39826 0.98771 0.0
C3672 C 0.22772 0.40201 0.04344 0.0
C3673 C 0.23931 0.39851 0.05446 0.0
C3674 C 0.23932 0.39868 0.01078 0.0
C3675 C 0.25079 0.39536 0.0429 0.0
C3676 C 0.24937 0.39088 0.97716 0.0
C3677 C 0.23009 0.40487 0.95524 0.0
N3678 N 0.25047 0.39544 0.02173 0.0
N3679 N 0.23026 0.405 0.97645 0.0
H3680 H 0.20114 0.34513 0.24453 0.0
H3681 H 0.1278 0.31408 0.24872 0.0
H3682 H 0.17106 0.35321 0.19809 0.0
H3683 H 0.15915 0.30435 0.29218 0.0
H3684 H 0.14292 0.32955 0.23108 0.0
H3685 H 0.18541 0.33096 0.26302 0.0
C3686 C 0.19124 0.34384 0.23812 0.0
C3687 C 0.18746 0.35027 0.21961 0.0
C3688 C 0.14647 0.32405 0.24451 0.0
C3689 C 0.16928 0.33419 0.24094 0.0
C3690 C 0.13783 0.3153 0.25465 0.0
C3691 C 0.14226 0.30788 0.27186 0.0
C3692 C 0.15961 0.32542 0.2517 0.0
C3693 C 0.15539 0.30972 0.27877 0.0
C3694 C 0.18222 0.33582 0.24878 0.0
C3695 C 0.17438 0.34849 0.21236 0.0
N3696 N 0.1636 0.31828 0.26865 0.0
N3697 N 0.16576 0.34058 0.22302 0.0
H3698 H 0.63971 0.1973 0.25997 0.0
H3699 H 0.66958 0.12388 0.26748 0.0
H3700 H 0.63608 0.16887 0.20968 0.0
H3701 H 0.6871 0.15775 0.29837 0.0
H3702 H 0.6531 0.13878 0.25124 0.0
H3703 H 0.65315 0.18126 0.27927 0.0
C3704 C 0.64174 0.18772 0.25292 0.0
C3705 C 0.63693 0.18456 0.23294 0.0
C3706 C 0.6605 0.14289 0.26172 0.0
C3707 C 0.65198 0.16603 0.25532 0.0
C3708 C 0.6698 0.13443 0.27101 0.0
C3709 C 0.67966 0.13969 0.2841 0.0
C3710 C 0.66099 0.1566 0.26593 0.0
C3711 C 0.67967 0.15339 0.28821 0.0
C3712 C 0.64933 0.17854 0.26404 0.0
C3713 C 0.63951 0.17176 0.22503 0.0
N3714 N 0.67045 0.1614 0.27915 0.0
N3715 N 0.64691 0.16297 0.23622 0.0
H3716 H 0.8142 0.63043 0.24636 0.0
H3717 H 0.84382 0.70406 0.25284 0.0
H3718 H 0.8074 0.66048 0.19935 0.0
H3719 H 0.85711 0.67194 0.29244 0.0
H3720 H 0.82964 0.68841 0.23395 0.0
H3721 H 0.82949 0.64556 0.26409 0.0
C3722 C 0.81602 0.64015 0.23963 0.0
C3723 C 0.80947 0.64419 0.22133 0.0
C3724 C 0.83568 0.68477 0.24673 0.0
C3725 C 0.82677 0.66165 0.2418 0.0
C3726 C 0.8437 0.69371 0.2576 0.0
C3727 C 0.85159 0.68928 0.27428 0.0
C3728 C 0.83547 0.67131 0.25267 0.0
C3729 C 0.85123 0.67573 0.27959 0.0
C3730 C 0.82469 0.64881 0.24984 0.0
C3731 C 0.81204 0.65701 0.21358 0.0
N3732 N 0.84324 0.66722 0.26888 0.0
N3733 N 0.82045 0.6653 0.22391 0.0
H3734 H 0.35856 0.80166 0.25259 0.0
H3735 H 0.29641 0.85075 0.23921 0.0
H3736 H 0.33793 0.80771 0.19426 0.0
H3737 H 0.31665 0.84414 0.29772 0.0
H3738 H 0.31198 0.83558 0.22221 0.0
H3739 H 0.3436 0.81759 0.26921 0.0
C3740 C 0.35084 0.8063 0.24329 0.0
C3741 C 0.34945 0.8033 0.22202 0.0
C3742 C 0.31304 0.83746 0.23876 0.0
C3743 C 0.33237 0.82166 0.24091 0.0
C3744 C 0.3042 0.84619 0.24846 0.0
C3745 C 0.30524 0.84872 0.26993 0.0
C3746 C 0.323 0.83121 0.2506 0.0
C3747 C 0.31539 0.84234 0.28119 0.0
C3748 C 0.34235 0.81545 0.25277 0.0
C3749 C 0.33944 0.80981 0.21065 0.0
N3750 N 0.32387 0.83388 0.27139 0.0
N3751 N 0.33125 0.81866 0.22026 0.0
H3752 H 0.17624 0.64944 0.80459 0.0
H3753 H 0.14341 0.67007 0.69555 0.0
H3754 H 0.1856 0.63047 0.74598 0.0
H3755 H 0.13537 0.69018 0.75372 0.0
H3756 H 0.15755 0.65427 0.71423 0.0
H3757 H 0.15969 0.66315 0.78675 0.0
C3758 C 0.17471 0.64806 0.78801 0.0
C3759 C 0.18237 0.63887 0.77671 0.0
C3760 C 0.15263 0.66209 0.72293 0.0
C3761 C 0.16356 0.65461 0.75616 0.0
C3762 C 0.1446 0.67114 0.71226 0.0
C3763 C 0.13826 0.6815 0.72307 0.0
C3764 C 0.15436 0.66343 0.74457 0.0
C3765 C 0.13997 0.68228 0.74478 0.0
C3766 C 0.16532 0.65595 0.7778 0.0
C3767 C 0.18008 0.63761 0.75521 0.0
N3768 N 0.14792 0.67342 0.75479 0.0
N3769 N 0.17092 0.64543 0.74561 0.0
H3770 H 0.28928 0.15811 0.73273 0.0
H3771 H 0.36311 0.17268 0.7738 0.0
H3772 H 0.32236 0.13164 0.72151 0.0
H3773 H 0.32984 0.1994 0.78205 0.0
H3774 H 0.3486 0.15752 0.75435 0.0
H3775 H 0.30423 0.17337 0.75074 0.0
C3776 C 0.2997 0.15549 0.73415 0.0
C3777 C 0.30458 0.14355 0.7258 0.0
C3778 C 0.34449 0.1667 0.76044 0.0
C3779 C 0.32181 0.16103 0.74626 0.0
C3780 C 0.35277 0.17537 0.77147 0.0
C3781 C 0.34766 0.18728 0.77968 0.0
C3782 C 0.33102 0.16999 0.75757 0.0
C3783 C 0.33416 0.19021 0.77636 0.0
C3784 C 0.30826 0.16424 0.74434 0.0
C3785 C 0.31822 0.14079 0.72767 0.0
N3786 N 0.32633 0.18163 0.76558 0.0
N3787 N 0.32637 0.14944 0.73782 0.0
H3788 H 0.84686 0.3195 0.70082 0.0
H3789 H 0.79666 0.32883 0.79623 0.0
H3790 H 0.84078 0.28957 0.74831 0.0
H3791 H 0.81102 0.36153 0.75879 0.0
H3792 H 0.81153 0.31378 0.77727 0.0
H3793 H 0.8325 0.33464 0.72037 0.0
C3794 C 0.84257 0.31611 0.71539 0.0
C3795 C 0.84506 0.30321 0.72291 0.0
C3796 C 0.81147 0.32426 0.77328 0.0
C3797 C 0.82845 0.32045 0.74518 0.0
C3798 C 0.80296 0.33282 0.78402 0.0
C3799 C 0.80263 0.34642 0.77904 0.0
C3800 C 0.81959 0.32932 0.75729 0.0
C3801 C 0.81107 0.35113 0.76323 0.0
C3802 C 0.83434 0.32476 0.7265 0.0
C3803 C 0.83899 0.29933 0.7417 0.0
N3804 N 0.81916 0.34257 0.75282 0.0
N3805 N 0.83096 0.3079 0.75216 0.0
H3806 H 0.67334 0.86407 0.72848 0.0
H3807 H 0.65831 0.78967 0.76663 0.0
H3808 H 0.69861 0.83036 0.7151 0.0
H3809 H 0.63152 0.82259 0.77735 0.0
H3810 H 0.67347 0.8047 0.74853 0.0
H3811 H 0.65815 0.84929 0.74732 0.0
C3812 C 0.67569 0.85356 0.72954 0.0
C3813 C 0.68723 0.84842 0.72016 0.0
C3814 C 0.66428 0.80866 0.75482 0.0
C3815 C 0.66991 0.83148 0.7416 0.0
C3816 C 0.65559 0.80006 0.76508 0.0
C3817 C 0.64358 0.80487 0.77336 0.0
C3818 C 0.66098 0.82218 0.75281 0.0
C3819 C 0.64072 0.81849 0.77131 0.0
C3820 C 0.667 0.84513 0.74022 0.0
C3821 C 0.68973 0.83472 0.72182 0.0
N3822 N 0.64934 0.82667 0.76117 0.0
N3823 N 0.68116 0.82674 0.73236 0.0
H3824 H 0.86423 0.68756 0.75178 0.0
H3825 H 0.80595 0.63386 0.74165 0.0
H3826 H 0.84702 0.67534 0.69311 0.0
H3827 H 0.82296 0.6462 0.8004 0.0
H3828 H 0.82259 0.64718 0.72339 0.0
H3829 H 0.85094 0.67067 0.76955 0.0
C3830 C 0.8578 0.6812 0.74258 0.0
C3831 C 0.85664 0.68294 0.72093 0.0
C3832 C 0.82275 0.6469 0.74027 0.0
C3833 C 0.84124 0.66373 0.74124 0.0
C3834 C 0.8133 0.63923 0.75072 0.0
C3835 C 0.813 0.63899 0.77261 0.0
C3836 C 0.83196 0.65444 0.75177 0.0
C3837 C 0.82267 0.64629 0.78352 0.0
C3838 C 0.85014 0.67161 0.75277 0.0
C3839 C 0.84803 0.6745 0.70987 0.0
N3840 N 0.8317 0.65379 0.77299 0.0
N3841 N 0.84059 0.66532 0.72017 0.0
H3842 H 0.33878 0.8136 0.80767 0.0
H3843 H 0.33097 0.86345 0.71135 0.0
H3844 H 0.37076 0.82237 0.76489 0.0
H3845 H 0.29981 0.85466 0.75569 0.0
H3846 H 0.34646 0.85022 0.73238 0.0
H3847 H 0.32517 0.83057 0.79075 0.0
C3848 C 0.34295 0.81919 0.79477 0.0
C3849 C 0.35583 0.8165 0.7875 0.0
C3850 C 0.33626 0.85133 0.7376 0.0
C3851 C 0.34031 0.8359 0.76793 0.0
C3852 C 0.32741 0.85881 0.72555 0.0
C3853 C 0.31405 0.86012 0.7317 0.0
C3854 C 0.3317 0.84506 0.75585 0.0
C3855 C 0.31003 0.85406 0.75041 0.0
C3856 C 0.3352 0.8289 0.78514 0.0
C3857 C 0.36086 0.82417 0.77097 0.0
N3858 N 0.31878 0.84673 0.7617 0.0
N3859 N 0.35302 0.83343 0.76155 0.0
H3860 H 0.14729 0.29145 0.75545 0.0
H3861 H 0.17722 0.36479 0.764 0.0
H3862 H 0.14223 0.32094 0.70697 0.0
H3863 H 0.19453 0.33089 0.79517 0.0
H3864 H 0.16107 0.34991 0.74718 0.0
H3865 H 0.16164 0.30693 0.77425 0.0
C3866 C 0.14922 0.30114 0.74866 0.0
C3867 C 0.14362 0.3048 0.72941 0.0
C3868 C 0.16838 0.34576 0.75777 0.0
C3869 C 0.15978 0.32268 0.75124 0.0
C3870 C 0.17751 0.35423 0.76744 0.0
C3871 C 0.18721 0.349 0.78086 0.0
C3872 C 0.16886 0.33204 0.76187 0.0
C3873 C 0.18726 0.33526 0.78474 0.0
C3874 C 0.15735 0.30999 0.75951 0.0
C3875 C 0.14619 0.31768 0.72181 0.0
N3876 N 0.1782 0.32724 0.77531 0.0
N3877 N 0.15409 0.32616 0.73274 0.0
H3878 H 0.68833 0.13201 0.75442 0.0
H3879 H 0.63668 0.19187 0.74255 0.0
H3880 H 0.67761 0.14953 0.69524 0.0
H3881 H 0.64405 0.17145 0.80071 0.0
H3882 H 0.6509 0.17584 0.72473 0.0
H3883 H 0.6715 0.14572 0.77144 0.0
C3884 C 0.68234 0.13862 0.74495 0.0
C3885 C 0.68444 0.13966 0.72336 0.0
C3886 C 0.64934 0.1748 0.74137 0.0
C3887 C 0.66528 0.15557 0.74284 0.0
C3888 C 0.64114 0.18391 0.75155 0.0
C3889 C 0.6392 0.18305 0.7732 0.0
C3890 C 0.65573 0.16478 0.75291 0.0
C3891 C 0.64545 0.17264 0.78407 0.0
C3892 C 0.67277 0.14651 0.75471 0.0
C3893 C 0.6765 0.14857 0.71197 0.0
N3894 N 0.65349 0.16396 0.77382 0.0
N3895 N 0.66732 0.15623 0.72186 0.0
H3896 H 0.82854 0.35734 0.20287 0.0
H3897 H 0.85035 0.32734 0.31311 0.0
H3898 H 0.80735 0.3642 0.26048 0.0
H3899 H 0.86891 0.31686 0.25464 0.0
H3900 H 0.83703 0.34405 0.2949 0.0
H3901 H 0.84577 0.34549 0.22239 0.0
C3902 C 0.82754 0.35641 0.21963 0.0
C3903 C 0.8164 0.36163 0.23002 0.0
C3904 C 0.84413 0.33821 0.28609 0.0
C3905 C 0.83612 0.34819 0.25246 0.0
C3906 C 0.85171 0.32865 0.29647 0.0
C3907 C 0.86061 0.32056 0.28532 0.0
C3908 C 0.84542 0.33965 0.2644 0.0
C3909 C 0.86219 0.32288 0.26387 0.0
C3910 C 0.83741 0.34971 0.23078 0.0
C3911 C 0.81578 0.3604 0.25181 0.0
N3912 N 0.85454 0.3321 0.25405 0.0
N3913 N 0.82543 0.35369 0.26227 0.0
H3914 H 0.63727 0.8256 0.19724 0.0
H3915 H 0.67588 0.8411 0.3037 0.0
H3916 H 0.6353 0.80075 0.25214 0.0
H3917 H 0.6795 0.86519 0.24821 0.0
H3918 H 0.65943 0.82728 0.28589 0.0
H3919 H 0.65125 0.84132 0.21648 0.0
C3920 C 0.63974 0.82347 0.21335 0.0
C3921 C 0.63515 0.81181 0.22307 0.0
C3922 C 0.66376 0.83563 0.27763 0.0
C3923 C 0.65107 0.82976 0.24518 0.0
C3924 C 0.6732 0.84349 0.28777 0.0
C3925 C 0.67914 0.85425 0.27737 0.0
C3926 C 0.66027 0.83852 0.2569 0.0
C3927 C 0.6751 0.85704 0.25686 0.0
C3928 C 0.64767 0.83247 0.22435 0.0
C3929 C 0.63849 0.80967 0.24407 0.0
N3930 N 0.66599 0.84916 0.24724 0.0
N3931 N 0.6463 0.81851 0.25437 0.0
H3932 H 0.13867 0.67305 0.2894 0.0
H3933 H 0.19642 0.66501 0.20552 0.0
H3934 H 0.1491 0.70402 0.24555 0.0
H3935 H 0.17671 0.63131 0.2336 0.0
H3936 H 0.18018 0.67982 0.22201 0.0
H3937 H 0.15343 0.65778 0.27084 0.0
C3938 C 0.14395 0.67663 0.27578 0.0
C3939 C 0.14266 0.6899 0.26912 0.0
C3940 C 0.17936 0.66918 0.22447 0.0
C3941 C 0.15977 0.67251 0.2481 0.0
C3942 C 0.18865 0.66075 0.21517 0.0
C3943 C 0.18788 0.64696 0.21829 0.0
C3944 C 0.16936 0.66377 0.23722 0.0
C3945 C 0.17756 0.6419 0.23074 0.0
C3946 C 0.15242 0.66791 0.26526 0.0
C3947 C 0.14997 0.69399 0.25156 0.0
N3948 N 0.16875 0.65032 0.23992 0.0
N3949 N 0.15826 0.68536 0.24175 0.0
H3950 H 0.31066 0.12899 0.24852 0.0
H3951 H 0.36576 0.1859 0.25956 0.0
H3952 H 0.32317 0.14559 0.30747 0.0
H3953 H 0.35149 0.17085 0.20059 0.0
H3954 H 0.3526 0.16897 0.27755 0.0
H3955 H 0.32791 0.14193 0.23101 0.0
C3956 C 0.31717 0.13519 0.25784 0.0
C3957 C 0.31538 0.1363 0.27948 0.0
C3958 C 0.35244 0.16929 0.26067 0.0
C3959 C 0.33502 0.15134 0.25947 0.0
C3960 C 0.36002 0.1789 0.25038 0.0
C3961 C 0.35961 0.17987 0.22855 0.0
C3962 C 0.34438 0.16059 0.24904 0.0
C3963 C 0.35189 0.17062 0.21746 0.0
C3964 C 0.32697 0.14266 0.2478 0.0
C3965 C 0.32403 0.14463 0.2907 0.0
N3966 N 0.3445 0.16143 0.22784 0.0
N3967 N 0.33341 0.15191 0.28055 0.0
loop_
_geom_bond_atom_site_label_1
_geom_bond_atom_site_label_2
_geom_bond_distance
_geom_bond_site_symmetry_2
_ccdc_geom_bond_type
Li0 N17 1.990 . S
Li0 O60 1.956 . S
Li0 O61 1.970 . S
Li0 O62 1.961 . S
Li1 N25 1.990 . S
Li1 O60 1.970 . S
Li1 O61 1.956 . S
Li1 O63 1.961 . S
Li2 N47 1.990 . S
Li2 O60 1.961 . S
Li2 O62 1.956 . S
Li2 O63 1.970 . S
Li3 N53 1.990 . S
Li3 O61 1.961 . S
Li3 O62 1.970 . S
Li3 O63 1.956 . S
C4 C6 1.348 . S
C4 C7 1.356 . S
C4 O60 1.325 . S
N5 C8 1.314 . S
N5 C9 1.279 . S
C6 C4 1.348 . S
C6 C8 1.353 . S
C6 H64 0.929 . S
C7 C4 1.356 . S
C7 C9 1.358 . S
C7 H65 0.930 . S
C8 N5 1.314 . S
C8 C6 1.353 . S
C8 H66 0.930 . S
C9 N5 1.279 . S
C9 C7 1.358 . S
C9 H67 0.930 . S
C10 C13 1.348 . S
C10 C14 1.356 . S
C10 O61 1.325 . S
C11 N12 1.279 . S
C11 C14 1.358 . S
C11 H68 0.930 . S
N12 C11 1.279 . S
N12 C15 1.314 . S
C13 C10 1.348 . S
C13 C15 1.353 . S
C13 H69 0.929 . S
C14 C10 1.356 . S
C14 C11 1.358 . S
C14 H70 0.930 . S
C15 N12 1.314 . S
C15 C13 1.353 . S
C15 H71 0.930 . S
C16 N17 1.314 . S
C16 C21 1.353 . S
C16 H22 0.930 . S
N17 Li0 1.990 . S
N17 C16 1.314 . S
N17 C19 1.279 . S
C18 C19 1.358 . S
C18 C20 1.356 . S
C18 H72 0.930 . S
C19 N17 1.279 . S
C19 C18 1.358 . S
C19 H23 0.930 . S
C20 C18 1.356 . S
C20 C21 1.348 . S
C21 C16 1.353 . S
C21 C20 1.348 . S
C21 H73 0.929 . S
H22 C16 0.930 . S
H23 C19 0.930 . S
C24 N25 1.314 . S
C24 C26 1.353 . S
C24 H30 0.930 . S
N25 Li1 1.990 . S
N25 C24 1.314 . S
N25 C28 1.279 . S
C26 C24 1.353 . S
C26 C29 1.348 . S
C26 H74 0.929 . S
C27 C28 1.358 . S
C27 C29 1.356 . S
C27 H75 0.930 . S
C28 N25 1.279 . S
C28 C27 1.358 . S
C28 H31 0.930 . S
C29 C26 1.348 . S
C29 C27 1.356 . S
H30 C24 0.930 . S
H31 C28 0.930 . S
C32 C34 1.348 . S
C32 C35 1.356 . S
C32 O62 1.325 . S
N33 C36 1.314 . S
N33 C37 1.279 . S
C34 C32 1.348 . S
C34 C36 1.353 . S
C34 H76 0.929 . S
C35 C32 1.356 . S
C35 C37 1.358 . S
C35 H77 0.930 . S
C36 N33 1.314 . S
C36 C34 1.353 . S
C36 H78 0.930 . S
C37 N33 1.279 . S
C37 C35 1.358 . S
C37 H79 0.930 . S
C38 C39 1.348 . S
C38 C40 1.356 . S
C38 O63 1.325 . S
C39 C38 1.348 . S
C39 C41 1.353 . S
C39 H80 0.929 . S
C40 C38 1.356 . S
C40 C42 1.358 . S
C40 H81 0.930 . S
C41 C39 1.353 . S
C41 N43 1.314 . S
C41 H82 0.930 . S
C42 C40 1.358 . S
C42 N43 1.279 . S
C42 H83 0.930 . S
N43 C41 1.314 . S
N43 C42 1.279 . S
C44 C46 1.353 . S
C44 N47 1.314 . S
C44 H50 0.930 . S
C45 N47 1.279 . S
C45 C48 1.358 . S
C45 H51 0.930 . S
C46 C44 1.353 . S
C46 C49 1.348 . S
C46 H84 0.929 . S
N47 Li2 1.990 . S
N47 C44 1.314 . S
N47 C45 1.279 . S
C48 C45 1.358 . S
C48 C49 1.356 . S
C48 H85 0.930 . S
C49 C46 1.348 . S
C49 C48 1.356 . S
H50 C44 0.930 . S
H51 C45 0.930 . S
C52 N53 1.314 . S
C52 C54 1.353 . S
C52 H58 0.930 . S
N53 Li3 1.990 . S
N53 C52 1.314 . S
N53 C56 1.279 . S
C54 C52 1.353 . S
C54 C57 1.348 . S
C54 H86 0.929 . S
C55 C56 1.358 . S
C55 C57 1.356 . S
C55 H87 0.930 . S
C56 N53 1.279 . S
C56 C55 1.358 . S
C56 H59 0.930 . S
C57 C54 1.348 . S
C57 C55 1.356 . S
H58 C52 0.930 . S
H59 C56 0.930 . S
O60 Li0 1.956 . S
O60 Li1 1.970 . S
O60 Li2 1.961 . S
O60 C4 1.325 . S
O61 Li0 1.970 . S
O61 Li1 1.956 . S
O61 Li3 1.961 . S
O61 C10 1.325 . S
O62 Li0 1.961 . S
O62 Li2 1.956 . S
O62 Li3 1.970 . S
O62 C32 1.325 . S
O63 Li1 1.961 . S
O63 Li2 1.970 . S
O63 Li3 1.956 . S
O63 C38 1.325 . S
H64 C6 0.929 . S
H65 C7 0.930 . S
H66 C8 0.930 . S
H67 C9 0.930 . S
H68 C11 0.930 . S
H69 C13 0.929 . S
H70 C14 0.930 . S
H71 C15 0.930 . S
H72 C18 0.930 . S
H73 C21 0.929 . S
H74 C26 0.929 . S
H75 C27 0.930 . S
H76 C34 0.929 . S
H77 C35 0.930 . S
H78 C36 0.930 . S
H79 C37 0.930 . S
H80 C39 0.929 . S
H81 C40 0.930 . S
H82 C41 0.930 . S
H83 C42 0.930 . S
H84 C46 0.929 . S
H85 C48 0.930 . S
H86 C54 0.929 . S
H87 C55 0.930 . S
Li88 N105 1.990 . S
Li88 O148 1.956 . S
Li88 O149 1.970 . S
Li88 O150 1.961 . S
Li89 N113 1.990 . S
Li89 O148 1.970 . S
Li89 O149 1.956 . S
Li89 O151 1.961 . S
Li90 N135 1.990 . S
Li90 O148 1.961 . S
Li90 O150 1.956 . S
Li90 O151 1.970 . S
Li91 N141 1.990 . S
Li91 O149 1.961 . S
Li91 O150 1.970 . S
Li91 O151 1.956 . S
C92 C94 1.348 . S
C92 C95 1.356 . S
C92 O148 1.325 . S
N93 C96 1.314 . S
N93 C97 1.279 . S
C94 C92 1.348 . S
C94 C96 1.353 . S
C94 H152 0.929 . S
C95 C92 1.356 . S
C95 C97 1.358 . S
C95 H153 0.930 . S
C96 N93 1.314 . S
C96 C94 1.353 . S
C96 H154 0.930 . S
C97 N93 1.279 . S
C97 C95 1.358 . S
C97 H155 0.930 . S
C98 C101 1.348 . S
C98 C102 1.356 . S
C98 O149 1.325 . S
C99 N100 1.279 . S
C99 C102 1.358 . S
C99 H156 0.930 . S
N100 C99 1.279 . S
N100 C103 1.314 . S
C101 C98 1.348 . S
C101 C103 1.353 . S
C101 H157 0.929 . S
C102 C98 1.356 . S
C102 C99 1.358 . S
C102 H158 0.930 . S
C103 N100 1.314 . S
C103 C101 1.353 . S
C103 H159 0.930 . S
C104 N105 1.314 . S
C104 C109 1.353 . S
C104 H110 0.930 . S
N105 Li88 1.990 . S
N105 C104 1.314 . S
N105 C107 1.279 . S
C106 C107 1.358 . S
C106 C108 1.356 . S
C106 H160 0.930 . S
C107 N105 1.279 . S
C107 C106 1.358 . S
C107 H111 0.930 . S
C108 C106 1.356 . S
C108 C109 1.348 . S
C109 C104 1.353 . S
C109 C108 1.348 . S
C109 H161 0.929 . S
H110 C104 0.930 . S
H111 C107 0.930 . S
C112 N113 1.314 . S
C112 C114 1.353 . S
C112 H118 0.930 . S
N113 Li89 1.990 . S
N113 C112 1.314 . S
N113 C116 1.279 . S
C114 C112 1.353 . S
C114 C117 1.348 . S
C114 H162 0.929 . S
C115 C116 1.358 . S
C115 C117 1.356 . S
C115 H163 0.930 . S
C116 N113 1.279 . S
C116 C115 1.358 . S
C116 H119 0.930 . S
C117 C114 1.348 . S
C117 C115 1.356 . S
H118 C112 0.930 . S
H119 C116 0.930 . S
C120 C122 1.348 . S
C120 C123 1.356 . S
C120 O150 1.325 . S
N121 C124 1.314 . S
N121 C125 1.279 . S
C122 C120 1.348 . S
C122 C124 1.353 . S
C122 H164 0.929 . S
C123 C120 1.356 . S
C123 C125 1.358 . S
C123 H165 0.930 . S
C124 N121 1.314 . S
C124 C122 1.353 . S
C124 H166 0.930 . S
C125 N121 1.279 . S
C125 C123 1.358 . S
C125 H167 0.930 . S
C126 C127 1.348 . S
C126 C128 1.356 . S
C126 O151 1.325 . S
C127 C126 1.348 . S
C127 C129 1.353 . S
C127 H168 0.929 . S
C128 C126 1.356 . S
C128 C130 1.358 . S
C128 H169 0.930 . S
C129 C127 1.353 . S
C129 N131 1.314 . S
C129 H170 0.930 . S
C130 C128 1.358 . S
C130 N131 1.279 . S
C130 H171 0.930 . S
N131 C129 1.314 . S
N131 C130 1.279 . S
C132 C134 1.353 . S
C132 N135 1.314 . S
C132 H138 0.930 . S
C133 N135 1.279 . S
C133 C136 1.358 . S
C133 H139 0.930 . S
C134 C132 1.353 . S
C134 C137 1.348 . S
C134 H172 0.929 . S
N135 Li90 1.990 . S
N135 C132 1.314 . S
N135 C133 1.279 . S
C136 C133 1.358 . S
C136 C137 1.356 . S
C136 H173 0.930 . S
C137 C134 1.348 . S
C137 C136 1.356 . S
H138 C132 0.930 . S
H139 C133 0.930 . S
C140 N141 1.314 . S
C140 C142 1.353 . S
C140 H146 0.930 . S
N141 Li91 1.990 . S
N141 C140 1.314 . S
N141 C144 1.279 . S
C142 C140 1.353 . S
C142 C145 1.348 . S
C142 H174 0.929 . S
C143 C144 1.358 . S
C143 C145 1.356 . S
C143 H175 0.930 . S
C144 N141 1.279 . S
C144 C143 1.358 . S
C144 H147 0.930 . S
C145 C142 1.348 . S
C145 C143 1.356 . S
H146 C140 0.930 . S
H147 C144 0.930 . S
O148 Li88 1.956 . S
O148 Li89 1.970 . S
O148 Li90 1.961 . S
O148 C92 1.325 . S
O149 Li88 1.970 . S
O149 Li89 1.956 . S
O149 Li91 1.961 . S
O149 C98 1.325 . S
O150 Li88 1.961 . S
O150 Li90 1.956 . S
O150 Li91 1.970 . S
O150 C120 1.325 . S
O151 Li89 1.961 . S
O151 Li90 1.970 . S
O151 Li91 1.956 . S
O151 C126 1.325 . S
H152 C94 0.929 . S
H153 C95 0.930 . S
H154 C96 0.930 . S
H155 C97 0.930 . S
H156 C99 0.930 . S
H157 C101 0.929 . S
H158 C102 0.930 . S
H159 C103 0.930 . S
H160 C106 0.930 . S
H161 C109 0.929 . S
H162 C114 0.929 . S
H163 C115 0.930 . S
H164 C122 0.929 . S
H165 C123 0.930 . S
H166 C124 0.930 . S
H167 C125 0.930 . S
H168 C127 0.929 . S
H169 C128 0.930 . S
H170 C129 0.930 . S
H171 C130 0.930 . S
H172 C134 0.929 . S
H173 C136 0.930 . S
H174 C142 0.929 . S
H175 C143 0.930 . S
Li176 N193 1.990 . S
Li176 O236 1.956 . S
Li176 O237 1.970 . S
Li176 O238 1.961 . S
Li177 N201 1.990 . S
Li177 O236 1.970 . S
Li177 O237 1.956 . S
Li177 O239 1.961 . S
Li178 N223 1.990 . S
Li178 O236 1.961 . S
Li178 O238 1.956 . S
Li178 O239 1.970 . S
Li179 N229 1.990 . S
Li179 O237 1.961 . S
Li179 O238 1.970 . S
Li179 O239 1.956 . S
C180 C182 1.348 . S
C180 C183 1.356 . S
C180 O236 1.325 . S
N181 C184 1.314 . S
N181 C185 1.279 . S
C182 C180 1.348 . S
C182 C184 1.353 . S
C182 H240 0.929 . S
C183 C180 1.356 . S
C183 C185 1.358 . S
C183 H241 0.930 . S
C184 N181 1.314 . S
C184 C182 1.353 . S
C184 H242 0.930 . S
C185 N181 1.279 . S
C185 C183 1.358 . S
C185 H243 0.930 . S
C186 C189 1.348 . S
C186 C190 1.356 . S
C186 O237 1.325 . S
C187 N188 1.279 . S
C187 C190 1.358 . S
C187 H244 0.930 . S
N188 C187 1.279 . S
N188 C191 1.314 . S
C189 C186 1.348 . S
C189 C191 1.353 . S
C189 H245 0.929 . S
C190 C186 1.356 . S
C190 C187 1.358 . S
C190 H246 0.930 . S
C191 N188 1.314 . S
C191 C189 1.353 . S
C191 H247 0.930 . S
C192 N193 1.314 . S
C192 C197 1.353 . S
C192 H198 0.930 . S
N193 Li176 1.990 . S
N193 C192 1.314 . S
N193 C195 1.279 . S
C194 C195 1.358 . S
C194 C196 1.356 . S
C194 H248 0.930 . S
C195 N193 1.279 . S
C195 C194 1.358 . S
C195 H199 0.930 . S
C196 C194 1.356 . S
C196 C197 1.348 . S
C197 C192 1.353 . S
C197 C196 1.348 . S
C197 H249 0.929 . S
H198 C192 0.930 . S
H199 C195 0.930 . S
C200 N201 1.314 . S
C200 C202 1.353 . S
C200 H206 0.930 . S
N201 Li177 1.990 . S
N201 C200 1.314 . S
N201 C204 1.279 . S
C202 C200 1.353 . S
C202 C205 1.348 . S
C202 H250 0.929 . S
C203 C204 1.358 . S
C203 C205 1.356 . S
C203 H251 0.930 . S
C204 N201 1.279 . S
C204 C203 1.358 . S
C204 H207 0.930 . S
C205 C202 1.348 . S
C205 C203 1.356 . S
H206 C200 0.930 . S
H207 C204 0.930 . S
C208 C210 1.348 . S
C208 C211 1.356 . S
C208 O238 1.325 . S
N209 C212 1.314 . S
N209 C213 1.279 . S
C210 C208 1.348 . S
C210 C212 1.353 . S
C210 H252 0.929 . S
C211 C208 1.356 . S
C211 C213 1.358 . S
C211 H253 0.930 . S
C212 N209 1.314 . S
C212 C210 1.353 . S
C212 H254 0.930 . S
C213 N209 1.279 . S
C213 C211 1.358 . S
C213 H255 0.930 . S
C214 C215 1.348 . S
C214 C216 1.356 . S
C214 O239 1.325 . S
C215 C214 1.348 . S
C215 C217 1.353 . S
C215 H256 0.929 . S
C216 C214 1.356 . S
C216 C218 1.358 . S
C216 H257 0.930 . S
C217 C215 1.353 . S
C217 N219 1.314 . S
C217 H258 0.930 . S
C218 C216 1.358 . S
C218 N219 1.279 . S
C218 H259 0.930 . S
N219 C217 1.314 . S
N219 C218 1.279 . S
C220 C222 1.353 . S
C220 N223 1.314 . S
C220 H226 0.930 . S
C221 N223 1.279 . S
C221 C224 1.358 . S
C221 H227 0.930 . S
C222 C220 1.353 . S
C222 C225 1.348 . S
C222 H260 0.929 . S
N223 Li178 1.990 . S
N223 C220 1.314 . S
N223 C221 1.279 . S
C224 C221 1.358 . S
C224 C225 1.356 . S
C224 H261 0.930 . S
C225 C222 1.348 . S
C225 C224 1.356 . S
H226 C220 0.930 . S
H227 C221 0.930 . S
C228 N229 1.314 . S
C228 C230 1.353 . S
C228 H234 0.930 . S
N229 Li179 1.990 . S
N229 C228 1.314 . S
N229 C232 1.279 . S
C230 C228 1.353 . S
C230 C233 1.348 . S
C230 H262 0.929 . S
C231 C232 1.358 . S
C231 C233 1.356 . S
C231 H263 0.930 . S
C232 N229 1.279 . S
C232 C231 1.358 . S
C232 H235 0.930 . S
C233 C230 1.348 . S
C233 C231 1.356 . S
H234 C228 0.930 . S
H235 C232 0.930 . S
O236 Li176 1.956 . S
O236 Li177 1.970 . S
O236 Li178 1.961 . S
O236 C180 1.325 . S
O237 Li176 1.970 . S
O237 Li177 1.956 . S
O237 Li179 1.961 . S
O237 C186 1.325 . S
O238 Li176 1.961 . S
O238 Li178 1.956 . S
O238 Li179 1.970 . S
O238 C208 1.325 . S
O239 Li177 1.961 . S
O239 Li178 1.970 . S
O239 Li179 1.956 . S
O239 C214 1.325 . S
H240 C182 0.929 . S
H241 C183 0.930 . S
H242 C184 0.930 . S
H243 C185 0.930 . S
H244 C187 0.930 . S
H245 C189 0.929 . S
H246 C190 0.930 . S
H247 C191 0.930 . S
H248 C194 0.930 . S
H249 C197 0.929 . S
H250 C202 0.929 . S
H251 C203 0.930 . S
H252 C210 0.929 . S
H253 C211 0.930 . S
H254 C212 0.930 . S
H255 C213 0.930 . S
H256 C215 0.929 . S
H257 C216 0.930 . S
H258 C217 0.930 . S
H259 C218 0.930 . S
H260 C222 0.929 . S
H261 C224 0.930 . S
H262 C230 0.929 . S
H263 C231 0.930 . S
Li264 N281 1.990 . S
Li264 O324 1.956 . S
Li264 O325 1.970 . S
Li264 O326 1.961 . S
Li265 N289 1.990 . S
Li265 O324 1.970 . S
Li265 O325 1.956 . S
Li265 O327 1.961 . S
Li266 N311 1.990 . S
Li266 O324 1.961 . S
Li266 O326 1.956 . S
Li266 O327 1.970 . S
Li267 N317 1.990 . S
Li267 O325 1.961 . S
Li267 O326 1.970 . S
Li267 O327 1.956 . S
C268 C270 1.348 . S
C268 C271 1.356 . S
C268 O324 1.325 . S
N269 C272 1.314 . S
N269 C273 1.279 . S
C270 C268 1.348 . S
C270 C272 1.353 . S
C270 H328 0.929 . S
C271 C268 1.356 . S
C271 C273 1.358 . S
C271 H329 0.930 . S
C272 N269 1.314 . S
C272 C270 1.353 . S
C272 H330 0.930 . S
C273 N269 1.279 . S
C273 C271 1.358 . S
C273 H331 0.930 . S
C274 C277 1.348 . S
C274 C278 1.356 . S
C274 O325 1.325 . S
C275 N276 1.279 . S
C275 C278 1.358 . S
C275 H332 0.930 . S
N276 C275 1.279 . S
N276 C279 1.314 . S
C277 C274 1.348 . S
C277 C279 1.353 . S
C277 H333 0.929 . S
C278 C274 1.356 . S
C278 C275 1.358 . S
C278 H334 0.930 . S
C279 N276 1.314 . S
C279 C277 1.353 . S
C279 H335 0.930 . S
C280 N281 1.314 . S
C280 C285 1.353 . S
C280 H286 0.930 . S
N281 Li264 1.990 . S
N281 C280 1.314 . S
N281 C283 1.279 . S
C282 C283 1.358 . S
C282 C284 1.356 . S
C282 H336 0.930 . S
C283 N281 1.279 . S
C283 C282 1.358 . S
C283 H287 0.930 . S
C284 C282 1.356 . S
C284 C285 1.348 . S
C285 C280 1.353 . S
C285 C284 1.348 . S
C285 H337 0.929 . S
H286 C280 0.930 . S
H287 C283 0.930 . S
C288 N289 1.314 . S
C288 C290 1.353 . S
C288 H294 0.930 . S
N289 Li265 1.990 . S
N289 C288 1.314 . S
N289 C292 1.279 . S
C290 C288 1.353 . S
C290 C293 1.348 . S
C290 H338 0.929 . S
C291 C292 1.358 . S
C291 C293 1.356 . S
C291 H339 0.930 . S
C292 N289 1.279 . S
C292 C291 1.358 . S
C292 H295 0.930 . S
C293 C290 1.348 . S
C293 C291 1.356 . S
H294 C288 0.930 . S
H295 C292 0.930 . S
C296 C298 1.348 . S
C296 C299 1.356 . S
C296 O326 1.325 . S
N297 C300 1.314 . S
N297 C301 1.279 . S
C298 C296 1.348 . S
C298 C300 1.353 . S
C298 H340 0.929 . S
C299 C296 1.356 . S
C299 C301 1.358 . S
C299 H341 0.930 . S
C300 N297 1.314 . S
C300 C298 1.353 . S
C300 H342 0.930 . S
C301 N297 1.279 . S
C301 C299 1.358 . S
C301 H343 0.930 . S
C302 C303 1.348 . S
C302 C304 1.356 . S
C302 O327 1.325 . S
C303 C302 1.348 . S
C303 C305 1.353 . S
C303 H344 0.929 . S
C304 C302 1.356 . S
C304 C306 1.358 . S
C304 H345 0.930 . S
C305 C303 1.353 . S
C305 N307 1.314 . S
C305 H346 0.930 . S
C306 C304 1.358 . S
C306 N307 1.279 . S
C306 H347 0.930 . S
N307 C305 1.314 . S
N307 C306 1.279 . S
C308 C310 1.353 . S
C308 N311 1.314 . S
C308 H314 0.930 . S
C309 N311 1.279 . S
C309 C312 1.358 . S
C309 H315 0.930 . S
C310 C308 1.353 . S
C310 C313 1.348 . S
C310 H348 0.929 . S
N311 Li266 1.990 . S
N311 C308 1.314 . S
N311 C309 1.279 . S
C312 C309 1.358 . S
C312 C313 1.356 . S
C312 H349 0.930 . S
C313 C310 1.348 . S
C313 C312 1.356 . S
H314 C308 0.930 . S
H315 C309 0.930 . S
C316 N317 1.314 . S
C316 C318 1.353 . S
C316 H322 0.930 . S
N317 Li267 1.990 . S
N317 C316 1.314 . S
N317 C320 1.279 . S
C318 C316 1.353 . S
C318 C321 1.348 . S
C318 H350 0.929 . S
C319 C320 1.358 . S
C319 C321 1.356 . S
C319 H351 0.930 . S
C320 N317 1.279 . S
C320 C319 1.358 . S
C320 H323 0.930 . S
C321 C318 1.348 . S
C321 C319 1.356 . S
H322 C316 0.930 . S
H323 C320 0.930 . S
O324 Li264 1.956 . S
O324 Li265 1.970 . S
O324 Li266 1.961 . S
O324 C268 1.325 . S
O325 Li264 1.970 . S
O325 Li265 1.956 . S
O325 Li267 1.961 . S
O325 C274 1.325 . S
O326 Li264 1.961 . S
O326 Li266 1.956 . S
O326 Li267 1.970 . S
O326 C296 1.325 . S
O327 Li265 1.961 . S
O327 Li266 1.970 . S
O327 Li267 1.956 . S
O327 C302 1.325 . S
H328 C270 0.929 . S
H329 C271 0.930 . S
H330 C272 0.930 . S
H331 C273 0.930 . S
H332 C275 0.930 . S
H333 C277 0.929 . S
H334 C278 0.930 . S
H335 C279 0.930 . S
H336 C282 0.930 . S
H337 C285 0.929 . S
H338 C290 0.929 . S
H339 C291 0.930 . S
H340 C298 0.929 . S
H341 C299 0.930 . S
H342 C300 0.930 . S
H343 C301 0.930 . S
H344 C303 0.929 . S
H345 C304 0.930 . S
H346 C305 0.930 . S
H347 C306 0.930 . S
H348 C310 0.929 . S
H349 C312 0.930 . S
H350 C318 0.929 . S
H351 C319 0.930 . S
Li352 N369 1.990 . S
Li352 O412 1.956 . S
Li352 O413 1.970 . S
Li352 O414 1.961 . S
Li353 N377 1.990 . S
Li353 O412 1.970 . S
Li353 O413 1.956 . S
Li353 O415 1.961 . S
Li354 N399 1.990 . S
Li354 O412 1.961 . S
Li354 O414 1.956 . S
Li354 O415 1.970 . S
Li355 N405 1.990 . S
Li355 O413 1.961 . S
Li355 O414 1.970 . S
Li355 O415 1.956 . S
C356 C358 1.348 . S
C356 C359 1.356 . S
C356 O412 1.325 . S
N357 C360 1.314 . S
N357 C361 1.279 . S
C358 C356 1.348 . S
C358 C360 1.353 . S
C358 H416 0.929 . S
C359 C356 1.356 . S
C359 C361 1.358 . S
C359 H417 0.930 . S
C360 N357 1.314 . S
C360 C358 1.353 . S
C360 H418 0.930 . S
C361 N357 1.279 . S
C361 C359 1.358 . S
C361 H419 0.930 . S
C362 C365 1.348 . S
C362 C366 1.356 . S
C362 O413 1.325 . S
C363 N364 1.279 . S
C363 C366 1.358 . S
C363 H420 0.930 . S
N364 C363 1.279 . S
N364 C367 1.314 . S
C365 C362 1.348 . S
C365 C367 1.353 . S
C365 H421 0.929 . S
C366 C362 1.356 . S
C366 C363 1.358 . S
C366 H422 0.930 . S
C367 N364 1.314 . S
C367 C365 1.353 . S
C367 H423 0.930 . S
C368 N369 1.314 . S
C368 C373 1.353 . S
C368 H374 0.930 . S
N369 Li352 1.990 . S
N369 C368 1.314 . S
N369 C371 1.279 . S
C370 C371 1.358 . S
C370 C372 1.356 . S
C370 H424 0.930 . S
C371 N369 1.279 . S
C371 C370 1.358 . S
C371 H375 0.930 . S
C372 C370 1.356 . S
C372 C373 1.348 . S
C373 C368 1.353 . S
C373 C372 1.348 . S
C373 H425 0.929 . S
H374 C368 0.930 . S
H375 C371 0.930 . S
C376 N377 1.314 . S
C376 C378 1.353 . S
C376 H382 0.930 . S
N377 Li353 1.990 . S
N377 C376 1.314 . S
N377 C380 1.279 . S
C378 C376 1.353 . S
C378 C381 1.348 . S
C378 H426 0.929 . S
C379 C380 1.358 . S
C379 C381 1.356 . S
C379 H427 0.930 . S
C380 N377 1.279 . S
C380 C379 1.358 . S
C380 H383 0.930 . S
C381 C378 1.348 . S
C381 C379 1.356 . S
H382 C376 0.930 . S
H383 C380 0.930 . S
C384 C386 1.348 . S
C384 C387 1.356 . S
C384 O414 1.325 . S
N385 C388 1.314 . S
N385 C389 1.279 . S
C386 C384 1.348 . S
C386 C388 1.353 . S
C386 H428 0.929 . S
C387 C384 1.356 . S
C387 C389 1.358 . S
C387 H429 0.930 . S
C388 N385 1.314 . S
C388 C386 1.353 . S
C388 H430 0.930 . S
C389 N385 1.279 . S
C389 C387 1.358 . S
C389 H431 0.930 . S
C390 C391 1.348 . S
C390 C392 1.356 . S
C390 O415 1.325 . S
C391 C390 1.348 . S
C391 C393 1.353 . S
C391 H432 0.929 . S
C392 C390 1.356 . S
C392 C394 1.358 . S
C392 H433 0.930 . S
C393 C391 1.353 . S
C393 N395 1.314 . S
C393 H434 0.930 . S
C394 C392 1.358 . S
C394 N395 1.279 . S
C394 H435 0.930 . S
N395 C393 1.314 . S
N395 C394 1.279 . S
C396 C398 1.353 . S
C396 N399 1.314 . S
C396 H402 0.930 . S
C397 N399 1.279 . S
C397 C400 1.358 . S
C397 H403 0.930 . S
C398 C396 1.353 . S
C398 C401 1.348 . S
C398 H436 0.929 . S
N399 Li354 1.990 . S
N399 C396 1.314 . S
N399 C397 1.279 . S
C400 C397 1.358 . S
C400 C401 1.356 . S
C400 H437 0.930 . S
C401 C398 1.348 . S
C401 C400 1.356 . S
H402 C396 0.930 . S
H403 C397 0.930 . S
C404 N405 1.314 . S
C404 C406 1.353 . S
C404 H410 0.930 . S
N405 Li355 1.990 . S
N405 C404 1.314 . S
N405 C408 1.279 . S
C406 C404 1.353 . S
C406 C409 1.348 . S
C406 H438 0.929 . S
C407 C408 1.358 . S
C407 C409 1.356 . S
C407 H439 0.930 . S
C408 N405 1.279 . S
C408 C407 1.358 . S
C408 H411 0.930 . S
C409 C406 1.348 . S
C409 C407 1.356 . S
H410 C404 0.930 . S
H411 C408 0.930 . S
O412 Li352 1.956 . S
O412 Li353 1.970 . S
O412 Li354 1.961 . S
O412 C356 1.325 . S
O413 Li352 1.970 . S
O413 Li353 1.956 . S
O413 Li355 1.961 . S
O413 C362 1.325 . S
O414 Li352 1.961 . S
O414 Li354 1.956 . S
O414 Li355 1.970 . S
O414 C384 1.325 . S
O415 Li353 1.961 . S
O415 Li354 1.970 . S
O415 Li355 1.956 . S
O415 C390 1.325 . S
H416 C358 0.929 . S
H417 C359 0.930 . S
H418 C360 0.930 . S
H419 C361 0.930 . S
H420 C363 0.930 . S
H421 C365 0.929 . S
H422 C366 0.930 . S
H423 C367 0.930 . S
H424 C370 0.930 . S
H425 C373 0.929 . S
H426 C378 0.929 . S
H427 C379 0.930 . S
H428 C386 0.929 . S
H429 C387 0.930 . S
H430 C388 0.930 . S
H431 C389 0.930 . S
H432 C391 0.929 . S
H433 C392 0.930 . S
H434 C393 0.930 . S
H435 C394 0.930 . S
H436 C398 0.929 . S
H437 C400 0.930 . S
H438 C406 0.929 . S
H439 C407 0.930 . S
Li440 N457 1.990 . S
Li440 O500 1.956 . S
Li440 O501 1.970 . S
Li440 O502 1.961 . S
Li441 N465 1.990 . S
Li441 O500 1.970 . S
Li441 O501 1.956 . S
Li441 O503 1.961 . S
Li442 N487 1.990 . S
Li442 O500 1.961 . S
Li442 O502 1.956 . S
Li442 O503 1.970 . S
Li443 N493 1.990 . S
Li443 O501 1.961 . S
Li443 O502 1.970 . S
Li443 O503 1.956 . S
C444 C446 1.348 . S
C444 C447 1.356 . S
C444 O500 1.325 . S
N445 C448 1.314 . S
N445 C449 1.279 . S
C446 C444 1.348 . S
C446 C448 1.353 . S
C446 H504 0.929 . S
C447 C444 1.356 . S
C447 C449 1.358 . S
C447 H505 0.930 . S
C448 N445 1.314 . S
C448 C446 1.353 . S
C448 H506 0.930 . S
C449 N445 1.279 . S
C449 C447 1.358 . S
C449 H507 0.930 . S
C450 C453 1.348 . S
C450 C454 1.356 . S
C450 O501 1.325 . S
C451 N452 1.279 . S
C451 C454 1.358 . S
C451 H508 0.930 . S
N452 C451 1.279 . S
N452 C455 1.314 . S
C453 C450 1.348 . S
C453 C455 1.353 . S
C453 H509 0.929 . S
C454 C450 1.356 . S
C454 C451 1.358 . S
C454 H510 0.930 . S
C455 N452 1.314 . S
C455 C453 1.353 . S
C455 H511 0.930 . S
C456 N457 1.314 . S
C456 C461 1.353 . S
C456 H462 0.930 . S
N457 Li440 1.990 . S
N457 C456 1.314 . S
N457 C459 1.279 . S
C458 C459 1.358 . S
C458 C460 1.356 . S
C458 H512 0.930 . S
C459 N457 1.279 . S
C459 C458 1.358 . S
C459 H463 0.930 . S
C460 C458 1.356 . S
C460 C461 1.348 . S
C461 C456 1.353 . S
C461 C460 1.348 . S
C461 H513 0.929 . S
H462 C456 0.930 . S
H463 C459 0.930 . S
C464 N465 1.314 . S
C464 C466 1.353 . S
C464 H470 0.930 . S
N465 Li441 1.990 . S
N465 C464 1.314 . S
N465 C468 1.279 . S
C466 C464 1.353 . S
C466 C469 1.348 . S
C466 H514 0.929 . S
C467 C468 1.358 . S
C467 C469 1.356 . S
C467 H515 0.930 . S
C468 N465 1.279 . S
C468 C467 1.358 . S
C468 H471 0.930 . S
C469 C466 1.348 . S
C469 C467 1.356 . S
H470 C464 0.930 . S
H471 C468 0.930 . S
C472 C474 1.348 . S
C472 C475 1.356 . S
C472 O502 1.325 . S
N473 C476 1.314 . S
N473 C477 1.279 . S
C474 C472 1.348 . S
C474 C476 1.353 . S
C474 H516 0.929 . S
C475 C472 1.356 . S
C475 C477 1.358 . S
C475 H517 0.930 . S
C476 N473 1.314 . S
C476 C474 1.353 . S
C476 H518 0.930 . S
C477 N473 1.279 . S
C477 C475 1.358 . S
C477 H519 0.930 . S
C478 C479 1.348 . S
C478 C480 1.356 . S
C478 O503 1.325 . S
C479 C478 1.348 . S
C479 C481 1.353 . S
C479 H520 0.929 . S
C480 C478 1.356 . S
C480 C482 1.358 . S
C480 H521 0.930 . S
C481 C479 1.353 . S
C481 N483 1.314 . S
C481 H522 0.930 . S
C482 C480 1.358 . S
C482 N483 1.279 . S
C482 H523 0.930 . S
N483 C481 1.314 . S
N483 C482 1.279 . S
C484 C486 1.353 . S
C484 N487 1.314 . S
C484 H490 0.930 . S
C485 N487 1.279 . S
C485 C488 1.358 . S
C485 H491 0.930 . S
C486 C484 1.353 . S
C486 C489 1.348 . S
C486 H524 0.929 . S
N487 Li442 1.990 . S
N487 C484 1.314 . S
N487 C485 1.279 . S
C488 C485 1.358 . S
C488 C489 1.356 . S
C488 H525 0.930 . S
C489 C486 1.348 . S
C489 C488 1.356 . S
H490 C484 0.930 . S
H491 C485 0.930 . S
C492 N493 1.314 . S
C492 C494 1.353 . S
C492 H498 0.930 . S
N493 Li443 1.990 . S
N493 C492 1.314 . S
N493 C496 1.279 . S
C494 C492 1.353 . S
C494 C497 1.348 . S
C494 H526 0.929 . S
C495 C496 1.358 . S
C495 C497 1.356 . S
C495 H527 0.930 . S
C496 N493 1.279 . S
C496 C495 1.358 . S
C496 H499 0.930 . S
C497 C494 1.348 . S
C497 C495 1.356 . S
H498 C492 0.930 . S
H499 C496 0.930 . S
O500 Li440 1.956 . S
O500 Li441 1.970 . S
O500 Li442 1.961 . S
O500 C444 1.325 . S
O501 Li440 1.970 . S
O501 Li441 1.956 . S
O501 Li443 1.961 . S
O501 C450 1.325 . S
O502 Li440 1.961 . S
O502 Li442 1.956 . S
O502 Li443 1.970 . S
O502 C472 1.325 . S
O503 Li441 1.961 . S
O503 Li442 1.970 . S
O503 Li443 1.956 . S
O503 C478 1.325 . S
H504 C446 0.929 . S
H505 C447 0.930 . S
H506 C448 0.930 . S
H507 C449 0.930 . S
H508 C451 0.930 . S
H509 C453 0.929 . S
H510 C454 0.930 . S
H511 C455 0.930 . S
H512 C458 0.930 . S
H513 C461 0.929 . S
H514 C466 0.929 . S
H515 C467 0.930 . S
H516 C474 0.929 . S
H517 C475 0.930 . S
H518 C476 0.930 . S
H519 C477 0.930 . S
H520 C479 0.929 . S
H521 C480 0.930 . S
H522 C481 0.930 . S
H523 C482 0.930 . S
H524 C486 0.929 . S
H525 C488 0.930 . S
H526 C494 0.929 . S
H527 C495 0.930 . S
Li528 N545 1.990 . S
Li528 O588 1.956 . S
Li528 O589 1.970 . S
Li528 O590 1.961 . S
Li529 N553 1.990 . S
Li529 O588 1.970 . S
Li529 O589 1.956 . S
Li529 O591 1.961 . S
Li530 N575 1.990 . S
Li530 O588 1.961 . S
Li530 O590 1.956 . S
Li530 O591 1.970 . S
Li531 N581 1.990 . S
Li531 O589 1.961 . S
Li531 O590 1.970 . S
Li531 O591 1.956 . S
C532 C534 1.348 . S
C532 C535 1.356 . S
C532 O588 1.325 . S
N533 C536 1.314 . S
N533 C537 1.279 . S
C534 C532 1.348 . S
C534 C536 1.353 . S
C534 H592 0.929 . S
C535 C532 1.356 . S
C535 C537 1.358 . S
C535 H593 0.930 . S
C536 N533 1.314 . S
C536 C534 1.353 . S
C536 H594 0.930 . S
C537 N533 1.279 . S
C537 C535 1.358 . S
C537 H595 0.930 . S
C538 C541 1.348 . S
C538 C542 1.356 . S
C538 O589 1.325 . S
C539 N540 1.279 . S
C539 C542 1.358 . S
C539 H596 0.930 . S
N540 C539 1.279 . S
N540 C543 1.314 . S
C541 C538 1.348 . S
C541 C543 1.353 . S
C541 H597 0.929 . S
C542 C538 1.356 . S
C542 C539 1.358 . S
C542 H598 0.930 . S
C543 N540 1.314 . S
C543 C541 1.353 . S
C543 H599 0.930 . S
C544 N545 1.314 . S
C544 C549 1.353 . S
C544 H550 0.930 . S
N545 Li528 1.990 . S
N545 C544 1.314 . S
N545 C547 1.279 . S
C546 C547 1.358 . S
C546 C548 1.356 . S
C546 H600 0.930 . S
C547 N545 1.279 . S
C547 C546 1.358 . S
C547 H551 0.930 . S
C548 C546 1.356 . S
C548 C549 1.348 . S
C549 C544 1.353 . S
C549 C548 1.348 . S
C549 H601 0.929 . S
H550 C544 0.930 . S
H551 C547 0.930 . S
C552 N553 1.314 . S
C552 C554 1.353 . S
C552 H558 0.930 . S
N553 Li529 1.990 . S
N553 C552 1.314 . S
N553 C556 1.279 . S
C554 C552 1.353 . S
C554 C557 1.348 . S
C554 H602 0.929 . S
C555 C556 1.358 . S
C555 C557 1.356 . S
C555 H603 0.930 . S
C556 N553 1.279 . S
C556 C555 1.358 . S
C556 H559 0.930 . S
C557 C554 1.348 . S
C557 C555 1.356 . S
H558 C552 0.930 . S
H559 C556 0.930 . S
C560 C562 1.348 . S
C560 C563 1.356 . S
C560 O590 1.325 . S
N561 C564 1.314 . S
N561 C565 1.279 . S
C562 C560 1.348 . S
C562 C564 1.353 . S
C562 H604 0.929 . S
C563 C560 1.356 . S
C563 C565 1.358 . S
C563 H605 0.930 . S
C564 N561 1.314 . S
C564 C562 1.353 . S
C564 H606 0.930 . S
C565 N561 1.279 . S
C565 C563 1.358 . S
C565 H607 0.930 . S
C566 C567 1.348 . S
C566 C568 1.356 . S
C566 O591 1.325 . S
C567 C566 1.348 . S
C567 C569 1.353 . S
C567 H608 0.929 . S
C568 C566 1.356 . S
C568 C570 1.358 . S
C568 H609 0.930 . S
C569 C567 1.353 . S
C569 N571 1.314 . S
C569 H610 0.930 . S
C570 C568 1.358 . S
C570 N571 1.279 . S
C570 H611 0.930 . S
N571 C569 1.314 . S
N571 C570 1.279 . S
C572 C574 1.353 . S
C572 N575 1.314 . S
C572 H578 0.930 . S
C573 N575 1.279 . S
C573 C576 1.358 . S
C573 H579 0.930 . S
C574 C572 1.353 . S
C574 C577 1.348 . S
C574 H612 0.929 . S
N575 Li530 1.990 . S
N575 C572 1.314 . S
N575 C573 1.279 . S
C576 C573 1.358 . S
C576 C577 1.356 . S
C576 H613 0.930 . S
C577 C574 1.348 . S
C577 C576 1.356 . S
H578 C572 0.930 . S
H579 C573 0.930 . S
C580 N581 1.314 . S
C580 C582 1.353 . S
C580 H586 0.930 . S
N581 Li531 1.990 . S
N581 C580 1.314 . S
N581 C584 1.279 . S
C582 C580 1.353 . S
C582 C585 1.348 . S
C582 H614 0.929 . S
C583 C584 1.358 . S
C583 C585 1.356 . S
C583 H615 0.930 . S
C584 N581 1.279 . S
C584 C583 1.358 . S
C584 H587 0.930 . S
C585 C582 1.348 . S
C585 C583 1.356 . S
H586 C580 0.930 . S
H587 C584 0.930 . S
O588 Li528 1.956 . S
O588 Li529 1.970 . S
O588 Li530 1.961 . S
O588 C532 1.325 . S
O589 Li528 1.970 . S
O589 Li529 1.956 . S
O589 Li531 1.961 . S
O589 C538 1.325 . S
O590 Li528 1.961 . S
O590 Li530 1.956 . S
O590 Li531 1.970 . S
O590 C560 1.325 . S
O591 Li529 1.961 . S
O591 Li530 1.970 . S
O591 Li531 1.956 . S
O591 C566 1.325 . S
H592 C534 0.929 . S
H593 C535 0.930 . S
H594 C536 0.930 . S
H595 C537 0.930 . S
H596 C539 0.930 . S
H597 C541 0.929 . S
H598 C542 0.930 . S
H599 C543 0.930 . S
H600 C546 0.930 . S
H601 C549 0.929 . S
H602 C554 0.929 . S
H603 C555 0.930 . S
H604 C562 0.929 . S
H605 C563 0.930 . S
H606 C564 0.930 . S
H607 C565 0.930 . S
H608 C567 0.929 . S
H609 C568 0.930 . S
H610 C569 0.930 . S
H611 C570 0.930 . S
H612 C574 0.929 . S
H613 C576 0.930 . S
H614 C582 0.929 . S
H615 C583 0.930 . S
Li616 N633 1.990 . S
Li616 O676 1.956 . S
Li616 O677 1.970 . S
Li616 O678 1.961 . S
Li617 N641 1.990 . S
Li617 O676 1.970 . S
Li617 O677 1.956 . S
Li617 O679 1.961 . S
Li618 N663 1.990 . S
Li618 O676 1.961 . S
Li618 O678 1.956 . S
Li618 O679 1.970 . S
Li619 N669 1.990 . S
Li619 O677 1.961 . S
Li619 O678 1.970 . S
Li619 O679 1.956 . S
C620 C622 1.348 . S
C620 C623 1.356 . S
C620 O676 1.325 . S
N621 C624 1.314 . S
N621 C625 1.279 . S
C622 C620 1.348 . S
C622 C624 1.353 . S
C622 H680 0.929 . S
C623 C620 1.356 . S
C623 C625 1.358 . S
C623 H681 0.930 . S
C624 N621 1.314 . S
C624 C622 1.353 . S
C624 H682 0.930 . S
C625 N621 1.279 . S
C625 C623 1.358 . S
C625 H683 0.930 . S
C626 C629 1.348 . S
C626 C630 1.356 . S
C626 O677 1.325 . S
C627 N628 1.279 . S
C627 C630 1.358 . S
C627 H684 0.930 . S
N628 C627 1.279 . S
N628 C631 1.314 . S
C629 C626 1.348 . S
C629 C631 1.353 . S
C629 H685 0.929 . S
C630 C626 1.356 . S
C630 C627 1.358 . S
C630 H686 0.930 . S
C631 N628 1.314 . S
C631 C629 1.353 . S
C631 H687 0.930 . S
C632 N633 1.314 . S
C632 C637 1.353 . S
C632 H638 0.930 . S
N633 Li616 1.990 . S
N633 C632 1.314 . S
N633 C635 1.279 . S
C634 C635 1.358 . S
C634 C636 1.356 . S
C634 H688 0.930 . S
C635 N633 1.279 . S
C635 C634 1.358 . S
C635 H639 0.930 . S
C636 C634 1.356 . S
C636 C637 1.348 . S
C637 C632 1.353 . S
C637 C636 1.348 . S
C637 H689 0.929 . S
H638 C632 0.930 . S
H639 C635 0.930 . S
C640 N641 1.314 . S
C640 C642 1.353 . S
C640 H646 0.930 . S
N641 Li617 1.990 . S
N641 C640 1.314 . S
N641 C644 1.279 . S
C642 C640 1.353 . S
C642 C645 1.348 . S
C642 H690 0.929 . S
C643 C644 1.358 . S
C643 C645 1.356 . S
C643 H691 0.930 . S
C644 N641 1.279 . S
C644 C643 1.358 . S
C644 H647 0.930 . S
C645 C642 1.348 . S
C645 C643 1.356 . S
H646 C640 0.930 . S
H647 C644 0.930 . S
C648 C650 1.348 . S
C648 C651 1.356 . S
C648 O678 1.325 . S
N649 C652 1.314 . S
N649 C653 1.279 . S
C650 C648 1.348 . S
C650 C652 1.353 . S
C650 H692 0.929 . S
C651 C648 1.356 . S
C651 C653 1.358 . S
C651 H693 0.930 . S
C652 N649 1.314 . S
C652 C650 1.353 . S
C652 H694 0.930 . S
C653 N649 1.279 . S
C653 C651 1.358 . S
C653 H695 0.930 . S
C654 C655 1.348 . S
C654 C656 1.356 . S
C654 O679 1.325 . S
C655 C654 1.348 . S
C655 C657 1.353 . S
C655 H696 0.929 . S
C656 C654 1.356 . S
C656 C658 1.358 . S
C656 H697 0.930 . S
C657 C655 1.353 . S
C657 N659 1.314 . S
C657 H698 0.930 . S
C658 C656 1.358 . S
C658 N659 1.279 . S
C658 H699 0.930 . S
N659 C657 1.314 . S
N659 C658 1.279 . S
C660 C662 1.353 . S
C660 N663 1.314 . S
C660 H666 0.930 . S
C661 N663 1.279 . S
C661 C664 1.358 . S
C661 H667 0.930 . S
C662 C660 1.353 . S
C662 C665 1.348 . S
C662 H700 0.929 . S
N663 Li618 1.990 . S
N663 C660 1.314 . S
N663 C661 1.279 . S
C664 C661 1.358 . S
C664 C665 1.356 . S
C664 H701 0.930 . S
C665 C662 1.348 . S
C665 C664 1.356 . S
H666 C660 0.930 . S
H667 C661 0.930 . S
C668 N669 1.314 . S
C668 C670 1.353 . S
C668 H674 0.930 . S
N669 Li619 1.990 . S
N669 C668 1.314 . S
N669 C672 1.279 . S
C670 C668 1.353 . S
C670 C673 1.348 . S
C670 H702 0.929 . S
C671 C672 1.358 . S
C671 C673 1.356 . S
C671 H703 0.930 . S
C672 N669 1.279 . S
C672 C671 1.358 . S
C672 H675 0.930 . S
C673 C670 1.348 . S
C673 C671 1.356 . S
H674 C668 0.930 . S
H675 C672 0.930 . S
O676 Li616 1.956 . S
O676 Li617 1.970 . S
O676 Li618 1.961 . S
O676 C620 1.325 . S
O677 Li616 1.970 . S
O677 Li617 1.956 . S
O677 Li619 1.961 . S
O677 C626 1.325 . S
O678 Li616 1.961 . S
O678 Li618 1.956 . S
O678 Li619 1.970 . S
O678 C648 1.325 . S
O679 Li617 1.961 . S
O679 Li618 1.970 . S
O679 Li619 1.956 . S
O679 C654 1.325 . S
H680 C622 0.929 . S
H681 C623 0.930 . S
H682 C624 0.930 . S
H683 C625 0.930 . S
H684 C627 0.930 . S
H685 C629 0.929 . S
H686 C630 0.930 . S
H687 C631 0.930 . S
H688 C634 0.930 . S
H689 C637 0.929 . S
H690 C642 0.929 . S
H691 C643 0.930 . S
H692 C650 0.929 . S
H693 C651 0.930 . S
H694 C652 0.930 . S
H695 C653 0.930 . S
H696 C655 0.929 . S
H697 C656 0.930 . S
H698 C657 0.930 . S
H699 C658 0.930 . S
H700 C662 0.929 . S
H701 C664 0.930 . S
H702 C670 0.929 . S
H703 C671 0.930 . S
Li704 N721 1.990 . S
Li704 O764 1.956 . S
Li704 O765 1.970 . S
Li704 O766 1.961 . S
Li705 N729 1.990 . S
Li705 O764 1.970 . S
Li705 O765 1.956 . S
Li705 O767 1.961 . S
Li706 N751 1.990 . S
Li706 O764 1.961 . S
Li706 O766 1.956 . S
Li706 O767 1.970 . S
Li707 N757 1.990 . S
Li707 O765 1.961 . S
Li707 O766 1.970 . S
Li707 O767 1.956 . S
C708 C710 1.348 . S
C708 C711 1.356 . S
C708 O764 1.325 . S
N709 C712 1.314 . S
N709 C713 1.279 . S
C710 C708 1.348 . S
C710 C712 1.353 . S
C710 H768 0.929 . S
C711 C708 1.356 . S
C711 C713 1.358 . S
C711 H769 0.930 . S
C712 N709 1.314 . S
C712 C710 1.353 . S
C712 H770 0.930 . S
C713 N709 1.279 . S
C713 C711 1.358 . S
C713 H771 0.930 . S
C714 C717 1.348 . S
C714 C718 1.356 . S
C714 O765 1.325 . S
C715 N716 1.279 . S
C715 C718 1.358 . S
C715 H772 0.930 . S
N716 C715 1.279 . S
N716 C719 1.314 . S
C717 C714 1.348 . S
C717 C719 1.353 . S
C717 H773 0.929 . S
C718 C714 1.356 . S
C718 C715 1.358 . S
C718 H774 0.930 . S
C719 N716 1.314 . S
C719 C717 1.353 . S
C719 H775 0.930 . S
C720 N721 1.314 . S
C720 C725 1.353 . S
C720 H726 0.930 . S
N721 Li704 1.990 . S
N721 C720 1.314 . S
N721 C723 1.279 . S
C722 C723 1.358 . S
C722 C724 1.356 . S
C722 H776 0.930 . S
C723 N721 1.279 . S
C723 C722 1.358 . S
C723 H727 0.930 . S
C724 C722 1.356 . S
C724 C725 1.348 . S
C725 C720 1.353 . S
C725 C724 1.348 . S
C725 H777 0.929 . S
H726 C720 0.930 . S
H727 C723 0.930 . S
C728 N729 1.314 . S
C728 C730 1.353 . S
C728 H734 0.930 . S
N729 Li705 1.990 . S
N729 C728 1.314 . S
N729 C732 1.279 . S
C730 C728 1.353 . S
C730 C733 1.348 . S
C730 H778 0.929 . S
C731 C732 1.358 . S
C731 C733 1.356 . S
C731 H779 0.930 . S
C732 N729 1.279 . S
C732 C731 1.358 . S
C732 H735 0.930 . S
C733 C730 1.348 . S
C733 C731 1.356 . S
H734 C728 0.930 . S
H735 C732 0.930 . S
C736 C738 1.348 . S
C736 C739 1.356 . S
C736 O766 1.325 . S
N737 C740 1.314 . S
N737 C741 1.279 . S
C738 C736 1.348 . S
C738 C740 1.353 . S
C738 H780 0.929 . S
C739 C736 1.356 . S
C739 C741 1.358 . S
C739 H781 0.930 . S
C740 N737 1.314 . S
C740 C738 1.353 . S
C740 H782 0.930 . S
C741 N737 1.279 . S
C741 C739 1.358 . S
C741 H783 0.930 . S
C742 C743 1.348 . S
C742 C744 1.356 . S
C742 O767 1.325 . S
C743 C742 1.348 . S
C743 C745 1.353 . S
C743 H784 0.929 . S
C744 C742 1.356 . S
C744 C746 1.358 . S
C744 H785 0.930 . S
C745 C743 1.353 . S
C745 N747 1.314 . S
C745 H786 0.930 . S
C746 C744 1.358 . S
C746 N747 1.279 . S
C746 H787 0.930 . S
N747 C745 1.314 . S
N747 C746 1.279 . S
C748 C750 1.353 . S
C748 N751 1.314 . S
C748 H754 0.930 . S
C749 N751 1.279 . S
C749 C752 1.358 . S
C749 H755 0.930 . S
C750 C748 1.353 . S
C750 C753 1.348 . S
C750 H788 0.929 . S
N751 Li706 1.990 . S
N751 C748 1.314 . S
N751 C749 1.279 . S
C752 C749 1.358 . S
C752 C753 1.356 . S
C752 H789 0.930 . S
C753 C750 1.348 . S
C753 C752 1.356 . S
H754 C748 0.930 . S
H755 C749 0.930 . S
C756 N757 1.314 . S
C756 C758 1.353 . S
C756 H762 0.930 . S
N757 Li707 1.990 . S
N757 C756 1.314 . S
N757 C760 1.279 . S
C758 C756 1.353 . S
C758 C761 1.348 . S
C758 H790 0.929 . S
C759 C760 1.358 . S
C759 C761 1.356 . S
C759 H791 0.930 . S
C760 N757 1.279 . S
C760 C759 1.358 . S
C760 H763 0.930 . S
C761 C758 1.348 . S
C761 C759 1.356 . S
H762 C756 0.930 . S
H763 C760 0.930 . S
O764 Li704 1.956 . S
O764 Li705 1.970 . S
O764 Li706 1.961 . S
O764 C708 1.325 . S
O765 Li704 1.970 . S
O765 Li705 1.956 . S
O765 Li707 1.961 . S
O765 C714 1.325 . S
O766 Li704 1.961 . S
O766 Li706 1.956 . S
O766 Li707 1.970 . S
O766 C736 1.325 . S
O767 Li705 1.961 . S
O767 Li706 1.970 . S
O767 Li707 1.956 . S
O767 C742 1.325 . S
H768 C710 0.929 . S
H769 C711 0.930 . S
H770 C712 0.930 . S
H771 C713 0.930 . S
H772 C715 0.930 . S
H773 C717 0.929 . S
H774 C718 0.930 . S
H775 C719 0.930 . S
H776 C722 0.930 . S
H777 C725 0.929 . S
H778 C730 0.929 . S
H779 C731 0.930 . S
H780 C738 0.929 . S
H781 C739 0.930 . S
H782 C740 0.930 . S
H783 C741 0.930 . S
H784 C743 0.929 . S
H785 C744 0.930 . S
H786 C745 0.930 . S
H787 C746 0.930 . S
H788 C750 0.929 . S
H789 C752 0.930 . S
H790 C758 0.929 . S
H791 C759 0.930 . S
Li792 N809 1.990 . S
Li792 O852 1.956 . S
Li792 O853 1.970 . S
Li792 O854 1.961 . S
Li793 N817 1.990 . S
Li793 O852 1.970 . S
Li793 O853 1.956 . S
Li793 O855 1.961 . S
Li794 N839 1.990 . S
Li794 O852 1.961 . S
Li794 O854 1.956 . S
Li794 O855 1.970 . S
Li795 N845 1.990 . S
Li795 O853 1.961 . S
Li795 O854 1.970 . S
Li795 O855 1.956 . S
C796 C798 1.348 . S
C796 C799 1.356 . S
C796 O852 1.325 . S
N797 C800 1.314 . S
N797 C801 1.279 . S
C798 C796 1.348 . S
C798 C800 1.353 . S
C798 H856 0.929 . S
C799 C796 1.356 . S
C799 C801 1.358 . S
C799 H857 0.930 . S
C800 N797 1.314 . S
C800 C798 1.353 . S
C800 H858 0.930 . S
C801 N797 1.279 . S
C801 C799 1.358 . S
C801 H859 0.930 . S
C802 C805 1.348 . S
C802 C806 1.356 . S
C802 O853 1.325 . S
C803 N804 1.279 . S
C803 C806 1.358 . S
C803 H860 0.930 . S
N804 C803 1.279 . S
N804 C807 1.314 . S
C805 C802 1.348 . S
C805 C807 1.353 . S
C805 H861 0.929 . S
C806 C802 1.356 . S
C806 C803 1.358 . S
C806 H862 0.930 . S
C807 N804 1.314 . S
C807 C805 1.353 . S
C807 H863 0.930 . S
C808 N809 1.314 . S
C808 C813 1.353 . S
C808 H814 0.930 . S
N809 Li792 1.990 . S
N809 C808 1.314 . S
N809 C811 1.279 . S
C810 C811 1.358 . S
C810 C812 1.356 . S
C810 H864 0.930 . S
C811 N809 1.279 . S
C811 C810 1.358 . S
C811 H815 0.930 . S
C812 C810 1.356 . S
C812 C813 1.348 . S
C813 C808 1.353 . S
C813 C812 1.348 . S
C813 H865 0.929 . S
H814 C808 0.930 . S
H815 C811 0.930 . S
C816 N817 1.314 . S
C816 C818 1.353 . S
C816 H822 0.930 . S
N817 Li793 1.990 . S
N817 C816 1.314 . S
N817 C820 1.279 . S
C818 C816 1.353 . S
C818 C821 1.348 . S
C818 H866 0.929 . S
C819 C820 1.358 . S
C819 C821 1.356 . S
C819 H867 0.930 . S
C820 N817 1.279 . S
C820 C819 1.358 . S
C820 H823 0.930 . S
C821 C818 1.348 . S
C821 C819 1.356 . S
H822 C816 0.930 . S
H823 C820 0.930 . S
C824 C826 1.348 . S
C824 C827 1.356 . S
C824 O854 1.325 . S
N825 C828 1.314 . S
N825 C829 1.279 . S
C826 C824 1.348 . S
C826 C828 1.353 . S
C826 H868 0.929 . S
C827 C824 1.356 . S
C827 C829 1.358 . S
C827 H869 0.930 . S
C828 N825 1.314 . S
C828 C826 1.353 . S
C828 H870 0.930 . S
C829 N825 1.279 . S
C829 C827 1.358 . S
C829 H871 0.930 . S
C830 C831 1.348 . S
C830 C832 1.356 . S
C830 O855 1.325 . S
C831 C830 1.348 . S
C831 C833 1.353 . S
C831 H872 0.929 . S
C832 C830 1.356 . S
C832 C834 1.358 . S
C832 H873 0.930 . S
C833 C831 1.353 . S
C833 N835 1.314 . S
C833 H874 0.930 . S
C834 C832 1.358 . S
C834 N835 1.279 . S
C834 H875 0.930 . S
N835 C833 1.314 . S
N835 C834 1.279 . S
C836 C838 1.353 . S
C836 N839 1.314 . S
C836 H842 0.930 . S
C837 N839 1.279 . S
C837 C840 1.358 . S
C837 H843 0.930 . S
C838 C836 1.353 . S
C838 C841 1.348 . S
C838 H876 0.929 . S
N839 Li794 1.990 . S
N839 C836 1.314 . S
N839 C837 1.279 . S
C840 C837 1.358 . S
C840 C841 1.356 . S
C840 H877 0.930 . S
C841 C838 1.348 . S
C841 C840 1.356 . S
H842 C836 0.930 . S
H843 C837 0.930 . S
C844 N845 1.314 . S
C844 C846 1.353 . S
C844 H850 0.930 . S
N845 Li795 1.990 . S
N845 C844 1.314 . S
N845 C848 1.279 . S
C846 C844 1.353 . S
C846 C849 1.348 . S
C846 H878 0.929 . S
C847 C848 1.358 . S
C847 C849 1.356 . S
C847 H879 0.930 . S
C848 N845 1.279 . S
C848 C847 1.358 . S
C848 H851 0.930 . S
C849 C846 1.348 . S
C849 C847 1.356 . S
H850 C844 0.930 . S
H851 C848 0.930 . S
O852 Li792 1.956 . S
O852 Li793 1.970 . S
O852 Li794 1.961 . S
O852 C796 1.325 . S
O853 Li792 1.970 . S
O853 Li793 1.956 . S
O853 Li795 1.961 . S
O853 C802 1.325 . S
O854 Li792 1.961 . S
O854 Li794 1.956 . S
O854 Li795 1.970 . S
O854 C824 1.325 . S
O855 Li793 1.961 . S
O855 Li794 1.970 . S
O855 Li795 1.956 . S
O855 C830 1.325 . S
H856 C798 0.929 . S
H857 C799 0.930 . S
H858 C800 0.930 . S
H859 C801 0.930 . S
H860 C803 0.930 . S
H861 C805 0.929 . S
H862 C806 0.930 . S
H863 C807 0.930 . S
H864 C810 0.930 . S
H865 C813 0.929 . S
H866 C818 0.929 . S
H867 C819 0.930 . S
H868 C826 0.929 . S
H869 C827 0.930 . S
H870 C828 0.930 . S
H871 C829 0.930 . S
H872 C831 0.929 . S
H873 C832 0.930 . S
H874 C833 0.930 . S
H875 C834 0.930 . S
H876 C838 0.929 . S
H877 C840 0.930 . S
H878 C846 0.929 . S
H879 C847 0.930 . S
Li880 N897 1.990 . S
Li880 O940 1.956 . S
Li880 O941 1.970 . S
Li880 O942 1.961 . S
Li881 N905 1.990 . S
Li881 O940 1.970 . S
Li881 O941 1.956 . S
Li881 O943 1.961 . S
Li882 N927 1.990 . S
Li882 O940 1.961 . S
Li882 O942 1.956 . S
Li882 O943 1.970 . S
Li883 N933 1.990 . S
Li883 O941 1.961 . S
Li883 O942 1.970 . S
Li883 O943 1.956 . S
C884 C886 1.348 . S
C884 C887 1.356 . S
C884 O940 1.325 . S
N885 C888 1.314 . S
N885 C889 1.279 . S
C886 C884 1.348 . S
C886 C888 1.353 . S
C886 H944 0.929 . S
C887 C884 1.356 . S
C887 C889 1.358 . S
C887 H945 0.930 . S
C888 N885 1.314 . S
C888 C886 1.353 . S
C888 H946 0.930 . S
C889 N885 1.279 . S
C889 C887 1.358 . S
C889 H947 0.930 . S
C890 C893 1.348 . S
C890 C894 1.356 . S
C890 O941 1.325 . S
C891 N892 1.279 . S
C891 C894 1.358 . S
C891 H948 0.930 . S
N892 C891 1.279 . S
N892 C895 1.314 . S
C893 C890 1.348 . S
C893 C895 1.353 . S
C893 H949 0.929 . S
C894 C890 1.356 . S
C894 C891 1.358 . S
C894 H950 0.930 . S
C895 N892 1.314 . S
C895 C893 1.353 . S
C895 H951 0.930 . S
C896 N897 1.314 . S
C896 C901 1.353 . S
C896 H902 0.930 . S
N897 Li880 1.990 . S
N897 C896 1.314 . S
N897 C899 1.279 . S
C898 C899 1.358 . S
C898 C900 1.356 . S
C898 H952 0.930 . S
C899 N897 1.279 . S
C899 C898 1.358 . S
C899 H903 0.930 . S
C900 C898 1.356 . S
C900 C901 1.348 . S
C901 C896 1.353 . S
C901 C900 1.348 . S
C901 H953 0.929 . S
H902 C896 0.930 . S
H903 C899 0.930 . S
C904 N905 1.314 . S
C904 C906 1.353 . S
C904 H910 0.930 . S
N905 Li881 1.990 . S
N905 C904 1.314 . S
N905 C908 1.279 . S
C906 C904 1.353 . S
C906 C909 1.348 . S
C906 H954 0.929 . S
C907 C908 1.358 . S
C907 C909 1.356 . S
C907 H955 0.930 . S
C908 N905 1.279 . S
C908 C907 1.358 . S
C908 H911 0.930 . S
C909 C906 1.348 . S
C909 C907 1.356 . S
H910 C904 0.930 . S
H911 C908 0.930 . S
C912 C914 1.348 . S
C912 C915 1.356 . S
C912 O942 1.325 . S
N913 C916 1.314 . S
N913 C917 1.279 . S
C914 C912 1.348 . S
C914 C916 1.353 . S
C914 H956 0.929 . S
C915 C912 1.356 . S
C915 C917 1.358 . S
C915 H957 0.930 . S
C916 N913 1.314 . S
C916 C914 1.353 . S
C916 H958 0.930 . S
C917 N913 1.279 . S
C917 C915 1.358 . S
C917 H959 0.930 . S
C918 C919 1.348 . S
C918 C920 1.356 . S
C918 O943 1.325 . S
C919 C918 1.348 . S
C919 C921 1.353 . S
C919 H960 0.929 . S
C920 C918 1.356 . S
C920 C922 1.358 . S
C920 H961 0.930 . S
C921 C919 1.353 . S
C921 N923 1.314 . S
C921 H962 0.930 . S
C922 C920 1.358 . S
C922 N923 1.279 . S
C922 H963 0.930 . S
N923 C921 1.314 . S
N923 C922 1.279 . S
C924 C926 1.353 . S
C924 N927 1.314 . S
C924 H930 0.930 . S
C925 N927 1.279 . S
C925 C928 1.358 . S
C925 H931 0.930 . S
C926 C924 1.353 . S
C926 C929 1.348 . S
C926 H964 0.929 . S
N927 Li882 1.990 . S
N927 C924 1.314 . S
N927 C925 1.279 . S
C928 C925 1.358 . S
C928 C929 1.356 . S
C928 H965 0.930 . S
C929 C926 1.348 . S
C929 C928 1.356 . S
H930 C924 0.930 . S
H931 C925 0.930 . S
C932 N933 1.314 . S
C932 C934 1.353 . S
C932 H938 0.930 . S
N933 Li883 1.990 . S
N933 C932 1.314 . S
N933 C936 1.279 . S
C934 C932 1.353 . S
C934 C937 1.348 . S
C934 H966 0.929 . S
C935 C936 1.358 . S
C935 C937 1.356 . S
C935 H967 0.930 . S
C936 N933 1.279 . S
C936 C935 1.358 . S
C936 H939 0.930 . S
C937 C934 1.348 . S
C937 C935 1.356 . S
H938 C932 0.930 . S
H939 C936 0.930 . S
O940 Li880 1.956 . S
O940 Li881 1.970 . S
O940 Li882 1.961 . S
O940 C884 1.325 . S
O941 Li880 1.970 . S
O941 Li881 1.956 . S
O941 Li883 1.961 . S
O941 C890 1.325 . S
O942 Li880 1.961 . S
O942 Li882 1.956 . S
O942 Li883 1.970 . S
O942 C912 1.325 . S
O943 Li881 1.961 . S
O943 Li882 1.970 . S
O943 Li883 1.956 . S
O943 C918 1.325 . S
H944 C886 0.929 . S
H945 C887 0.930 . S
H946 C888 0.930 . S
H947 C889 0.930 . S
H948 C891 0.930 . S
H949 C893 0.929 . S
H950 C894 0.930 . S
H951 C895 0.930 . S
H952 C898 0.930 . S
H953 C901 0.929 . S
H954 C906 0.929 . S
H955 C907 0.930 . S
H956 C914 0.929 . S
H957 C915 0.930 . S
H958 C916 0.930 . S
H959 C917 0.930 . S
H960 C919 0.929 . S
H961 C920 0.930 . S
H962 C921 0.930 . S
H963 C922 0.930 . S
H964 C926 0.929 . S
H965 C928 0.930 . S
H966 C934 0.929 . S
H967 C935 0.930 . S
Li968 N985 1.990 . S
Li968 O1028 1.956 . S
Li968 O1029 1.970 . S
Li968 O1030 1.961 . S
Li969 N993 1.990 . S
Li969 O1028 1.970 . S
Li969 O1029 1.956 . S
Li969 O1031 1.961 . S
Li970 N1015 1.990 . S
Li970 O1028 1.961 . S
Li970 O1030 1.956 . S
Li970 O1031 1.970 . S
Li971 N1021 1.990 . S
Li971 O1029 1.961 . S
Li971 O1030 1.970 . S
Li971 O1031 1.956 . S
C972 C974 1.348 . S
C972 C975 1.356 . S
C972 O1028 1.325 . S
N973 C976 1.314 . S
N973 C977 1.279 . S
C974 C972 1.348 . S
C974 C976 1.353 . S
C974 H1032 0.929 . S
C975 C972 1.356 . S
C975 C977 1.358 . S
C975 H1033 0.930 . S
C976 N973 1.314 . S
C976 C974 1.353 . S
C976 H1034 0.930 . S
C977 N973 1.279 . S
C977 C975 1.358 . S
C977 H1035 0.930 . S
C978 C981 1.348 . S
C978 C982 1.356 . S
C978 O1029 1.325 . S
C979 N980 1.279 . S
C979 C982 1.358 . S
C979 H1036 0.930 . S
N980 C979 1.279 . S
N980 C983 1.314 . S
C981 C978 1.348 . S
C981 C983 1.353 . S
C981 H1037 0.929 . S
C982 C978 1.356 . S
C982 C979 1.358 . S
C982 H1038 0.930 . S
C983 N980 1.314 . S
C983 C981 1.353 . S
C983 H1039 0.930 . S
C984 N985 1.314 . S
C984 C989 1.353 . S
C984 H990 0.930 . S
N985 Li968 1.990 . S
N985 C984 1.314 . S
N985 C987 1.279 . S
C986 C987 1.358 . S
C986 C988 1.356 . S
C986 H1040 0.930 . S
C987 N985 1.279 . S
C987 C986 1.358 . S
C987 H991 0.930 . S
C988 C986 1.356 . S
C988 C989 1.348 . S
C989 C984 1.353 . S
C989 C988 1.348 . S
C989 H1041 0.929 . S
H990 C984 0.930 . S
H991 C987 0.930 . S
C992 N993 1.314 . S
C992 C994 1.353 . S
C992 H998 0.930 . S
N993 Li969 1.990 . S
N993 C992 1.314 . S
N993 C996 1.279 . S
C994 C992 1.353 . S
C994 C997 1.348 . S
C994 H1042 0.929 . S
C995 C996 1.358 . S
C995 C997 1.356 . S
C995 H1043 0.930 . S
C996 N993 1.279 . S
C996 C995 1.358 . S
C996 H999 0.930 . S
C997 C994 1.348 . S
C997 C995 1.356 . S
H998 C992 0.930 . S
H999 C996 0.930 . S
C1000 C1002 1.348 . S
C1000 C1003 1.356 . S
C1000 O1030 1.325 . S
N1001 C1004 1.314 . S
N1001 C1005 1.279 . S
C1002 C1000 1.348 . S
C1002 C1004 1.353 . S
C1002 H1044 0.929 . S
C1003 C1000 1.356 . S
C1003 C1005 1.358 . S
C1003 H1045 0.930 . S
C1004 N1001 1.314 . S
C1004 C1002 1.353 . S
C1004 H1046 0.930 . S
C1005 N1001 1.279 . S
C1005 C1003 1.358 . S
C1005 H1047 0.930 . S
C1006 C1007 1.348 . S
C1006 C1008 1.356 . S
C1006 O1031 1.325 . S
C1007 C1006 1.348 . S
C1007 C1009 1.353 . S
C1007 H1048 0.929 . S
C1008 C1006 1.356 . S
C1008 C1010 1.358 . S
C1008 H1049 0.930 . S
C1009 C1007 1.353 . S
C1009 N1011 1.314 . S
C1009 H1050 0.930 . S
C1010 C1008 1.358 . S
C1010 N1011 1.279 . S
C1010 H1051 0.930 . S
N1011 C1009 1.314 . S
N1011 C1010 1.279 . S
C1012 C1014 1.353 . S
C1012 N1015 1.314 . S
C1012 H1018 0.930 . S
C1013 N1015 1.279 . S
C1013 C1016 1.358 . S
C1013 H1019 0.930 . S
C1014 C1012 1.353 . S
C1014 C1017 1.348 . S
C1014 H1052 0.929 . S
N1015 Li970 1.990 . S
N1015 C1012 1.314 . S
N1015 C1013 1.279 . S
C1016 C1013 1.358 . S
C1016 C1017 1.356 . S
C1016 H1053 0.930 . S
C1017 C1014 1.348 . S
C1017 C1016 1.356 . S
H1018 C1012 0.930 . S
H1019 C1013 0.930 . S
C1020 N1021 1.314 . S
C1020 C1022 1.353 . S
C1020 H1026 0.930 . S
N1021 Li971 1.990 . S
N1021 C1020 1.314 . S
N1021 C1024 1.279 . S
C1022 C1020 1.353 . S
C1022 C1025 1.348 . S
C1022 H1054 0.929 . S
C1023 C1024 1.358 . S
C1023 C1025 1.356 . S
C1023 H1055 0.930 . S
C1024 N1021 1.279 . S
C1024 C1023 1.358 . S
C1024 H1027 0.930 . S
C1025 C1022 1.348 . S
C1025 C1023 1.356 . S
H1026 C1020 0.930 . S
H1027 C1024 0.930 . S
O1028 Li968 1.956 . S
O1028 Li969 1.970 . S
O1028 Li970 1.961 . S
O1028 C972 1.325 . S
O1029 Li968 1.970 . S
O1029 Li969 1.956 . S
O1029 Li971 1.961 . S
O1029 C978 1.325 . S
O1030 Li968 1.961 . S
O1030 Li970 1.956 . S
O1030 Li971 1.970 . S
O1030 C1000 1.325 . S
O1031 Li969 1.961 . S
O1031 Li970 1.970 . S
O1031 Li971 1.956 . S
O1031 C1006 1.325 . S
H1032 C974 0.929 . S
H1033 C975 0.930 . S
H1034 C976 0.930 . S
H1035 C977 0.930 . S
H1036 C979 0.930 . S
H1037 C981 0.929 . S
H1038 C982 0.930 . S
H1039 C983 0.930 . S
H1040 C986 0.930 . S
H1041 C989 0.929 . S
H1042 C994 0.929 . S
H1043 C995 0.930 . S
H1044 C1002 0.929 . S
H1045 C1003 0.930 . S
H1046 C1004 0.930 . S
H1047 C1005 0.930 . S
H1048 C1007 0.929 . S
H1049 C1008 0.930 . S
H1050 C1009 0.930 . S
H1051 C1010 0.930 . S
H1052 C1014 0.929 . S
H1053 C1016 0.930 . S
H1054 C1022 0.929 . S
H1055 C1023 0.930 . S
Li1056 N1073 1.990 . S
Li1056 O1116 1.956 . S
Li1056 O1117 1.970 . S
Li1056 O1118 1.961 . S
Li1057 N1081 1.990 . S
Li1057 O1116 1.970 . S
Li1057 O1117 1.956 . S
Li1057 O1119 1.961 . S
Li1058 N1103 1.990 . S
Li1058 O1116 1.961 . S
Li1058 O1118 1.956 . S
Li1058 O1119 1.970 . S
Li1059 N1109 1.990 . S
Li1059 O1117 1.961 . S
Li1059 O1118 1.970 . S
Li1059 O1119 1.956 . S
C1060 C1062 1.348 . S
C1060 C1063 1.356 . S
C1060 O1116 1.325 . S
N1061 C1064 1.314 . S
N1061 C1065 1.279 . S
C1062 C1060 1.348 . S
C1062 C1064 1.353 . S
C1062 H1120 0.929 . S
C1063 C1060 1.356 . S
C1063 C1065 1.358 . S
C1063 H1121 0.930 . S
C1064 N1061 1.314 . S
C1064 C1062 1.353 . S
C1064 H1122 0.930 . S
C1065 N1061 1.279 . S
C1065 C1063 1.358 . S
C1065 H1123 0.930 . S
C1066 C1069 1.348 . S
C1066 C1070 1.356 . S
C1066 O1117 1.325 . S
C1067 N1068 1.279 . S
C1067 C1070 1.358 . S
C1067 H1124 0.930 . S
N1068 C1067 1.279 . S
N1068 C1071 1.314 . S
C1069 C1066 1.348 . S
C1069 C1071 1.353 . S
C1069 H1125 0.929 . S
C1070 C1066 1.356 . S
C1070 C1067 1.358 . S
C1070 H1126 0.930 . S
C1071 N1068 1.314 . S
C1071 C1069 1.353 . S
C1071 H1127 0.930 . S
C1072 N1073 1.314 . S
C1072 C1077 1.353 . S
C1072 H1078 0.930 . S
N1073 Li1056 1.990 . S
N1073 C1072 1.314 . S
N1073 C1075 1.279 . S
C1074 C1075 1.358 . S
C1074 C1076 1.356 . S
C1074 H1128 0.930 . S
C1075 N1073 1.279 . S
C1075 C1074 1.358 . S
C1075 H1079 0.930 . S
C1076 C1074 1.356 . S
C1076 C1077 1.348 . S
C1077 C1072 1.353 . S
C1077 C1076 1.348 . S
C1077 H1129 0.929 . S
H1078 C1072 0.930 . S
H1079 C1075 0.930 . S
C1080 N1081 1.314 . S
C1080 C1082 1.353 . S
C1080 H1086 0.930 . S
N1081 Li1057 1.990 . S
N1081 C1080 1.314 . S
N1081 C1084 1.279 . S
C1082 C1080 1.353 . S
C1082 C1085 1.348 . S
C1082 H1130 0.929 . S
C1083 C1084 1.358 . S
C1083 C1085 1.356 . S
C1083 H1131 0.930 . S
C1084 N1081 1.279 . S
C1084 C1083 1.358 . S
C1084 H1087 0.930 . S
C1085 C1082 1.348 . S
C1085 C1083 1.356 . S
H1086 C1080 0.930 . S
H1087 C1084 0.930 . S
C1088 C1090 1.348 . S
C1088 C1091 1.356 . S
C1088 O1118 1.325 . S
N1089 C1092 1.314 . S
N1089 C1093 1.279 . S
C1090 C1088 1.348 . S
C1090 C1092 1.353 . S
C1090 H1132 0.929 . S
C1091 C1088 1.356 . S
C1091 C1093 1.358 . S
C1091 H1133 0.930 . S
C1092 N1089 1.314 . S
C1092 C1090 1.353 . S
C1092 H1134 0.930 . S
C1093 N1089 1.279 . S
C1093 C1091 1.358 . S
C1093 H1135 0.930 . S
C1094 C1095 1.348 . S
C1094 C1096 1.356 . S
C1094 O1119 1.325 . S
C1095 C1094 1.348 . S
C1095 C1097 1.353 . S
C1095 H1136 0.929 . S
C1096 C1094 1.356 . S
C1096 C1098 1.358 . S
C1096 H1137 0.930 . S
C1097 C1095 1.353 . S
C1097 N1099 1.314 . S
C1097 H1138 0.930 . S
C1098 C1096 1.358 . S
C1098 N1099 1.279 . S
C1098 H1139 0.930 . S
N1099 C1097 1.314 . S
N1099 C1098 1.279 . S
C1100 C1102 1.353 . S
C1100 N1103 1.314 . S
C1100 H1106 0.930 . S
C1101 N1103 1.279 . S
C1101 C1104 1.358 . S
C1101 H1107 0.930 . S
C1102 C1100 1.353 . S
C1102 C1105 1.348 . S
C1102 H1140 0.929 . S
N1103 Li1058 1.990 . S
N1103 C1100 1.314 . S
N1103 C1101 1.279 . S
C1104 C1101 1.358 . S
C1104 C1105 1.356 . S
C1104 H1141 0.930 . S
C1105 C1102 1.348 . S
C1105 C1104 1.356 . S
H1106 C1100 0.930 . S
H1107 C1101 0.930 . S
C1108 N1109 1.314 . S
C1108 C1110 1.353 . S
C1108 H1114 0.930 . S
N1109 Li1059 1.990 . S
N1109 C1108 1.314 . S
N1109 C1112 1.279 . S
C1110 C1108 1.353 . S
C1110 C1113 1.348 . S
C1110 H1142 0.929 . S
C1111 C1112 1.358 . S
C1111 C1113 1.356 . S
C1111 H1143 0.930 . S
C1112 N1109 1.279 . S
C1112 C1111 1.358 . S
C1112 H1115 0.930 . S
C1113 C1110 1.348 . S
C1113 C1111 1.356 . S
H1114 C1108 0.930 . S
H1115 C1112 0.930 . S
O1116 Li1056 1.956 . S
O1116 Li1057 1.970 . S
O1116 Li1058 1.961 . S
O1116 C1060 1.325 . S
O1117 Li1056 1.970 . S
O1117 Li1057 1.956 . S
O1117 Li1059 1.961 . S
O1117 C1066 1.325 . S
O1118 Li1056 1.961 . S
O1118 Li1058 1.956 . S
O1118 Li1059 1.970 . S
O1118 C1088 1.325 . S
O1119 Li1057 1.961 . S
O1119 Li1058 1.970 . S
O1119 Li1059 1.956 . S
O1119 C1094 1.325 . S
H1120 C1062 0.929 . S
H1121 C1063 0.930 . S
H1122 C1064 0.930 . S
H1123 C1065 0.930 . S
H1124 C1067 0.930 . S
H1125 C1069 0.929 . S
H1126 C1070 0.930 . S
H1127 C1071 0.930 . S
H1128 C1074 0.930 . S
H1129 C1077 0.929 . S
H1130 C1082 0.929 . S
H1131 C1083 0.930 . S
H1132 C1090 0.929 . S
H1133 C1091 0.930 . S
H1134 C1092 0.930 . S
H1135 C1093 0.930 . S
H1136 C1095 0.929 . S
H1137 C1096 0.930 . S
H1138 C1097 0.930 . S
H1139 C1098 0.930 . S
H1140 C1102 0.929 . S
H1141 C1104 0.930 . S
H1142 C1110 0.929 . S
H1143 C1111 0.930 . S
Li1144 N1161 1.990 . S
Li1144 O1204 1.956 . S
Li1144 O1205 1.970 . S
Li1144 O1206 1.961 . S
Li1145 N1169 1.990 . S
Li1145 O1204 1.970 . S
Li1145 O1205 1.956 . S
Li1145 O1207 1.961 . S
Li1146 N1191 1.990 . S
Li1146 O1204 1.961 . S
Li1146 O1206 1.956 . S
Li1146 O1207 1.970 . S
Li1147 N1197 1.990 . S
Li1147 O1205 1.961 . S
Li1147 O1206 1.970 . S
Li1147 O1207 1.956 . S
C1148 C1150 1.348 . S
C1148 C1151 1.356 . S
C1148 O1204 1.325 . S
N1149 C1152 1.314 . S
N1149 C1153 1.279 . S
C1150 C1148 1.348 . S
C1150 C1152 1.353 . S
C1150 H1208 0.929 . S
C1151 C1148 1.356 . S
C1151 C1153 1.358 . S
C1151 H1209 0.930 . S
C1152 N1149 1.314 . S
C1152 C1150 1.353 . S
C1152 H1210 0.930 . S
C1153 N1149 1.279 . S
C1153 C1151 1.358 . S
C1153 H1211 0.930 . S
C1154 C1157 1.348 . S
C1154 C1158 1.356 . S
C1154 O1205 1.325 . S
C1155 N1156 1.279 . S
C1155 C1158 1.358 . S
C1155 H1212 0.930 . S
N1156 C1155 1.279 . S
N1156 C1159 1.314 . S
C1157 C1154 1.348 . S
C1157 C1159 1.353 . S
C1157 H1213 0.929 . S
C1158 C1154 1.356 . S
C1158 C1155 1.358 . S
C1158 H1214 0.930 . S
C1159 N1156 1.314 . S
C1159 C1157 1.353 . S
C1159 H1215 0.930 . S
C1160 N1161 1.314 . S
C1160 C1165 1.353 . S
C1160 H1166 0.930 . S
N1161 Li1144 1.990 . S
N1161 C1160 1.314 . S
N1161 C1163 1.279 . S
C1162 C1163 1.358 . S
C1162 C1164 1.356 . S
C1162 H1216 0.930 . S
C1163 N1161 1.279 . S
C1163 C1162 1.358 . S
C1163 H1167 0.930 . S
C1164 C1162 1.356 . S
C1164 C1165 1.348 . S
C1165 C1160 1.353 . S
C1165 C1164 1.348 . S
C1165 H1217 0.929 . S
H1166 C1160 0.930 . S
H1167 C1163 0.930 . S
C1168 N1169 1.314 . S
C1168 C1170 1.353 . S
C1168 H1174 0.930 . S
N1169 Li1145 1.990 . S
N1169 C1168 1.314 . S
N1169 C1172 1.279 . S
C1170 C1168 1.353 . S
C1170 C1173 1.348 . S
C1170 H1218 0.929 . S
C1171 C1172 1.358 . S
C1171 C1173 1.356 . S
C1171 H1219 0.930 . S
C1172 N1169 1.279 . S
C1172 C1171 1.358 . S
C1172 H1175 0.930 . S
C1173 C1170 1.348 . S
C1173 C1171 1.356 . S
H1174 C1168 0.930 . S
H1175 C1172 0.930 . S
C1176 C1178 1.348 . S
C1176 C1179 1.356 . S
C1176 O1206 1.325 . S
N1177 C1180 1.314 . S
N1177 C1181 1.279 . S
C1178 C1176 1.348 . S
C1178 C1180 1.353 . S
C1178 H1220 0.929 . S
C1179 C1176 1.356 . S
C1179 C1181 1.358 . S
C1179 H1221 0.930 . S
C1180 N1177 1.314 . S
C1180 C1178 1.353 . S
C1180 H1222 0.930 . S
C1181 N1177 1.279 . S
C1181 C1179 1.358 . S
C1181 H1223 0.930 . S
C1182 C1183 1.348 . S
C1182 C1184 1.356 . S
C1182 O1207 1.325 . S
C1183 C1182 1.348 . S
C1183 C1185 1.353 . S
C1183 H1224 0.929 . S
C1184 C1182 1.356 . S
C1184 C1186 1.358 . S
C1184 H1225 0.930 . S
C1185 C1183 1.353 . S
C1185 N1187 1.314 . S
C1185 H1226 0.930 . S
C1186 C1184 1.358 . S
C1186 N1187 1.279 . S
C1186 H1227 0.930 . S
N1187 C1185 1.314 . S
N1187 C1186 1.279 . S
C1188 C1190 1.353 . S
C1188 N1191 1.314 . S
C1188 H1194 0.930 . S
C1189 N1191 1.279 . S
C1189 C1192 1.358 . S
C1189 H1195 0.930 . S
C1190 C1188 1.353 . S
C1190 C1193 1.348 . S
C1190 H1228 0.929 . S
N1191 Li1146 1.990 . S
N1191 C1188 1.314 . S
N1191 C1189 1.279 . S
C1192 C1189 1.358 . S
C1192 C1193 1.356 . S
C1192 H1229 0.930 . S
C1193 C1190 1.348 . S
C1193 C1192 1.356 . S
H1194 C1188 0.930 . S
H1195 C1189 0.930 . S
C1196 N1197 1.314 . S
C1196 C1198 1.353 . S
C1196 H1202 0.930 . S
N1197 Li1147 1.990 . S
N1197 C1196 1.314 . S
N1197 C1200 1.279 . S
C1198 C1196 1.353 . S
C1198 C1201 1.348 . S
C1198 H1230 0.929 . S
C1199 C1200 1.358 . S
C1199 C1201 1.356 . S
C1199 H1231 0.930 . S
C1200 N1197 1.279 . S
C1200 C1199 1.358 . S
C1200 H1203 0.930 . S
C1201 C1198 1.348 . S
C1201 C1199 1.356 . S
H1202 C1196 0.930 . S
H1203 C1200 0.930 . S
O1204 Li1144 1.956 . S
O1204 Li1145 1.970 . S
O1204 Li1146 1.961 . S
O1204 C1148 1.325 . S
O1205 Li1144 1.970 . S
O1205 Li1145 1.956 . S
O1205 Li1147 1.961 . S
O1205 C1154 1.325 . S
O1206 Li1144 1.961 . S
O1206 Li1146 1.956 . S
O1206 Li1147 1.970 . S
O1206 C1176 1.325 . S
O1207 Li1145 1.961 . S
O1207 Li1146 1.970 . S
O1207 Li1147 1.956 . S
O1207 C1182 1.325 . S
H1208 C1150 0.929 . S
H1209 C1151 0.930 . S
H1210 C1152 0.930 . S
H1211 C1153 0.930 . S
H1212 C1155 0.930 . S
H1213 C1157 0.929 . S
H1214 C1158 0.930 . S
H1215 C1159 0.930 . S
H1216 C1162 0.930 . S
H1217 C1165 0.929 . S
H1218 C1170 0.929 . S
H1219 C1171 0.930 . S
H1220 C1178 0.929 . S
H1221 C1179 0.930 . S
H1222 C1180 0.930 . S
H1223 C1181 0.930 . S
H1224 C1183 0.929 . S
H1225 C1184 0.930 . S
H1226 C1185 0.930 . S
H1227 C1186 0.930 . S
H1228 C1190 0.929 . S
H1229 C1192 0.930 . S
H1230 C1198 0.929 . S
H1231 C1199 0.930 . S
Li1232 N1249 1.990 . S
Li1232 O1292 1.956 . S
Li1232 O1293 1.970 . S
Li1232 O1294 1.961 . S
Li1233 N1257 1.990 . S
Li1233 O1292 1.970 . S
Li1233 O1293 1.956 . S
Li1233 O1295 1.961 . S
Li1234 N1279 1.990 . S
Li1234 O1292 1.961 . S
Li1234 O1294 1.956 . S
Li1234 O1295 1.970 . S
Li1235 N1285 1.990 . S
Li1235 O1293 1.961 . S
Li1235 O1294 1.970 . S
Li1235 O1295 1.956 . S
C1236 C1238 1.348 . S
C1236 C1239 1.356 . S
C1236 O1292 1.325 . S
N1237 C1240 1.314 . S
N1237 C1241 1.279 . S
C1238 C1236 1.348 . S
C1238 C1240 1.353 . S
C1238 H1296 0.929 . S
C1239 C1236 1.356 . S
C1239 C1241 1.358 . S
C1239 H1297 0.930 . S
C1240 N1237 1.314 . S
C1240 C1238 1.353 . S
C1240 H1298 0.930 . S
C1241 N1237 1.279 . S
C1241 C1239 1.358 . S
C1241 H1299 0.930 . S
C1242 C1245 1.348 . S
C1242 C1246 1.356 . S
C1242 O1293 1.325 . S
C1243 N1244 1.279 . S
C1243 C1246 1.358 . S
C1243 H1300 0.930 . S
N1244 C1243 1.279 . S
N1244 C1247 1.314 . S
C1245 C1242 1.348 . S
C1245 C1247 1.353 . S
C1245 H1301 0.929 . S
C1246 C1242 1.356 . S
C1246 C1243 1.358 . S
C1246 H1302 0.930 . S
C1247 N1244 1.314 . S
C1247 C1245 1.353 . S
C1247 H1303 0.930 . S
C1248 N1249 1.314 . S
C1248 C1253 1.353 . S
C1248 H1254 0.930 . S
N1249 Li1232 1.990 . S
N1249 C1248 1.314 . S
N1249 C1251 1.279 . S
C1250 C1251 1.358 . S
C1250 C1252 1.356 . S
C1250 H1304 0.930 . S
C1251 N1249 1.279 . S
C1251 C1250 1.358 . S
C1251 H1255 0.930 . S
C1252 C1250 1.356 . S
C1252 C1253 1.348 . S
C1253 C1248 1.353 . S
C1253 C1252 1.348 . S
C1253 H1305 0.929 . S
H1254 C1248 0.930 . S
H1255 C1251 0.930 . S
C1256 N1257 1.314 . S
C1256 C1258 1.353 . S
C1256 H1262 0.930 . S
N1257 Li1233 1.990 . S
N1257 C1256 1.314 . S
N1257 C1260 1.279 . S
C1258 C1256 1.353 . S
C1258 C1261 1.348 . S
C1258 H1306 0.929 . S
C1259 C1260 1.358 . S
C1259 C1261 1.356 . S
C1259 H1307 0.930 . S
C1260 N1257 1.279 . S
C1260 C1259 1.358 . S
C1260 H1263 0.930 . S
C1261 C1258 1.348 . S
C1261 C1259 1.356 . S
H1262 C1256 0.930 . S
H1263 C1260 0.930 . S
C1264 C1266 1.348 . S
C1264 C1267 1.356 . S
C1264 O1294 1.325 . S
N1265 C1268 1.314 . S
N1265 C1269 1.279 . S
C1266 C1264 1.348 . S
C1266 C1268 1.353 . S
C1266 H1308 0.929 . S
C1267 C1264 1.356 . S
C1267 C1269 1.358 . S
C1267 H1309 0.930 . S
C1268 N1265 1.314 . S
C1268 C1266 1.353 . S
C1268 H1310 0.930 . S
C1269 N1265 1.279 . S
C1269 C1267 1.358 . S
C1269 H1311 0.930 . S
C1270 C1271 1.348 . S
C1270 C1272 1.356 . S
C1270 O1295 1.325 . S
C1271 C1270 1.348 . S
C1271 C1273 1.353 . S
C1271 H1312 0.929 . S
C1272 C1270 1.356 . S
C1272 C1274 1.358 . S
C1272 H1313 0.930 . S
C1273 C1271 1.353 . S
C1273 N1275 1.314 . S
C1273 H1314 0.930 . S
C1274 C1272 1.358 . S
C1274 N1275 1.279 . S
C1274 H1315 0.930 . S
N1275 C1273 1.314 . S
N1275 C1274 1.279 . S
C1276 C1278 1.353 . S
C1276 N1279 1.314 . S
C1276 H1282 0.930 . S
C1277 N1279 1.279 . S
C1277 C1280 1.358 . S
C1277 H1283 0.930 . S
C1278 C1276 1.353 . S
C1278 C1281 1.348 . S
C1278 H1316 0.929 . S
N1279 Li1234 1.990 . S
N1279 C1276 1.314 . S
N1279 C1277 1.279 . S
C1280 C1277 1.358 . S
C1280 C1281 1.356 . S
C1280 H1317 0.930 . S
C1281 C1278 1.348 . S
C1281 C1280 1.356 . S
H1282 C1276 0.930 . S
H1283 C1277 0.930 . S
C1284 N1285 1.314 . S
C1284 C1286 1.353 . S
C1284 H1290 0.930 . S
N1285 Li1235 1.990 . S
N1285 C1284 1.314 . S
N1285 C1288 1.279 . S
C1286 C1284 1.353 . S
C1286 C1289 1.348 . S
C1286 H1318 0.929 . S
C1287 C1288 1.358 . S
C1287 C1289 1.356 . S
C1287 H1319 0.930 . S
C1288 N1285 1.279 . S
C1288 C1287 1.358 . S
C1288 H1291 0.930 . S
C1289 C1286 1.348 . S
C1289 C1287 1.356 . S
H1290 C1284 0.930 . S
H1291 C1288 0.930 . S
O1292 Li1232 1.956 . S
O1292 Li1233 1.970 . S
O1292 Li1234 1.961 . S
O1292 C1236 1.325 . S
O1293 Li1232 1.970 . S
O1293 Li1233 1.956 . S
O1293 Li1235 1.961 . S
O1293 C1242 1.325 . S
O1294 Li1232 1.961 . S
O1294 Li1234 1.956 . S
O1294 Li1235 1.970 . S
O1294 C1264 1.325 . S
O1295 Li1233 1.961 . S
O1295 Li1234 1.970 . S
O1295 Li1235 1.956 . S
O1295 C1270 1.325 . S
H1296 C1238 0.929 . S
H1297 C1239 0.930 . S
H1298 C1240 0.930 . S
H1299 C1241 0.930 . S
H1300 C1243 0.930 . S
H1301 C1245 0.929 . S
H1302 C1246 0.930 . S
H1303 C1247 0.930 . S
H1304 C1250 0.930 . S
H1305 C1253 0.929 . S
H1306 C1258 0.929 . S
H1307 C1259 0.930 . S
H1308 C1266 0.929 . S
H1309 C1267 0.930 . S
H1310 C1268 0.930 . S
H1311 C1269 0.930 . S
H1312 C1271 0.929 . S
H1313 C1272 0.930 . S
H1314 C1273 0.930 . S
H1315 C1274 0.930 . S
H1316 C1278 0.929 . S
H1317 C1280 0.930 . S
H1318 C1286 0.929 . S
H1319 C1287 0.930 . S
Li1320 N1337 1.990 . S
Li1320 O1380 1.956 . S
Li1320 O1381 1.970 . S
Li1320 O1382 1.961 . S
Li1321 N1345 1.990 . S
Li1321 O1380 1.970 . S
Li1321 O1381 1.956 . S
Li1321 O1383 1.961 . S
Li1322 N1367 1.990 . S
Li1322 O1380 1.961 . S
Li1322 O1382 1.956 . S
Li1322 O1383 1.970 . S
Li1323 N1373 1.990 . S
Li1323 O1381 1.961 . S
Li1323 O1382 1.970 . S
Li1323 O1383 1.956 . S
C1324 C1326 1.348 . S
C1324 C1327 1.356 . S
C1324 O1380 1.325 . S
N1325 C1328 1.314 . S
N1325 C1329 1.279 . S
C1326 C1324 1.348 . S
C1326 C1328 1.353 . S
C1326 H1384 0.929 . S
C1327 C1324 1.356 . S
C1327 C1329 1.358 . S
C1327 H1385 0.930 . S
C1328 N1325 1.314 . S
C1328 C1326 1.353 . S
C1328 H1386 0.930 . S
C1329 N1325 1.279 . S
C1329 C1327 1.358 . S
C1329 H1387 0.930 . S
C1330 C1333 1.348 . S
C1330 C1334 1.356 . S
C1330 O1381 1.325 . S
C1331 N1332 1.279 . S
C1331 C1334 1.358 . S
C1331 H1388 0.930 . S
N1332 C1331 1.279 . S
N1332 C1335 1.314 . S
C1333 C1330 1.348 . S
C1333 C1335 1.353 . S
C1333 H1389 0.929 . S
C1334 C1330 1.356 . S
C1334 C1331 1.358 . S
C1334 H1390 0.930 . S
C1335 N1332 1.314 . S
C1335 C1333 1.353 . S
C1335 H1391 0.930 . S
C1336 N1337 1.314 . S
C1336 C1341 1.353 . S
C1336 H1342 0.930 . S
N1337 Li1320 1.990 . S
N1337 C1336 1.314 . S
N1337 C1339 1.279 . S
C1338 C1339 1.358 . S
C1338 C1340 1.356 . S
C1338 H1392 0.930 . S
C1339 N1337 1.279 . S
C1339 C1338 1.358 . S
C1339 H1343 0.930 . S
C1340 C1338 1.356 . S
C1340 C1341 1.348 . S
C1341 C1336 1.353 . S
C1341 C1340 1.348 . S
C1341 H1393 0.929 . S
H1342 C1336 0.930 . S
H1343 C1339 0.930 . S
C1344 N1345 1.314 . S
C1344 C1346 1.353 . S
C1344 H1350 0.930 . S
N1345 Li1321 1.990 . S
N1345 C1344 1.314 . S
N1345 C1348 1.279 . S
C1346 C1344 1.353 . S
C1346 C1349 1.348 . S
C1346 H1394 0.929 . S
C1347 C1348 1.358 . S
C1347 C1349 1.356 . S
C1347 H1395 0.930 . S
C1348 N1345 1.279 . S
C1348 C1347 1.358 . S
C1348 H1351 0.930 . S
C1349 C1346 1.348 . S
C1349 C1347 1.356 . S
H1350 C1344 0.930 . S
H1351 C1348 0.930 . S
C1352 C1354 1.348 . S
C1352 C1355 1.356 . S
C1352 O1382 1.325 . S
N1353 C1356 1.314 . S
N1353 C1357 1.279 . S
C1354 C1352 1.348 . S
C1354 C1356 1.353 . S
C1354 H1396 0.929 . S
C1355 C1352 1.356 . S
C1355 C1357 1.358 . S
C1355 H1397 0.930 . S
C1356 N1353 1.314 . S
C1356 C1354 1.353 . S
C1356 H1398 0.930 . S
C1357 N1353 1.279 . S
C1357 C1355 1.358 . S
C1357 H1399 0.930 . S
C1358 C1359 1.348 . S
C1358 C1360 1.356 . S
C1358 O1383 1.325 . S
C1359 C1358 1.348 . S
C1359 C1361 1.353 . S
C1359 H1400 0.929 . S
C1360 C1358 1.356 . S
C1360 C1362 1.358 . S
C1360 H1401 0.930 . S
C1361 C1359 1.353 . S
C1361 N1363 1.314 . S
C1361 H1402 0.930 . S
C1362 C1360 1.358 . S
C1362 N1363 1.279 . S
C1362 H1403 0.930 . S
N1363 C1361 1.314 . S
N1363 C1362 1.279 . S
C1364 C1366 1.353 . S
C1364 N1367 1.314 . S
C1364 H1370 0.930 . S
C1365 N1367 1.279 . S
C1365 C1368 1.358 . S
C1365 H1371 0.930 . S
C1366 C1364 1.353 . S
C1366 C1369 1.348 . S
C1366 H1404 0.929 . S
N1367 Li1322 1.990 . S
N1367 C1364 1.314 . S
N1367 C1365 1.279 . S
C1368 C1365 1.358 . S
C1368 C1369 1.356 . S
C1368 H1405 0.930 . S
C1369 C1366 1.348 . S
C1369 C1368 1.356 . S
H1370 C1364 0.930 . S
H1371 C1365 0.930 . S
C1372 N1373 1.314 . S
C1372 C1374 1.353 . S
C1372 H1378 0.930 . S
N1373 Li1323 1.990 . S
N1373 C1372 1.314 . S
N1373 C1376 1.279 . S
C1374 C1372 1.353 . S
C1374 C1377 1.348 . S
C1374 H1406 0.929 . S
C1375 C1376 1.358 . S
C1375 C1377 1.356 . S
C1375 H1407 0.930 . S
C1376 N1373 1.279 . S
C1376 C1375 1.358 . S
C1376 H1379 0.930 . S
C1377 C1374 1.348 . S
C1377 C1375 1.356 . S
H1378 C1372 0.930 . S
H1379 C1376 0.930 . S
O1380 Li1320 1.956 . S
O1380 Li1321 1.970 . S
O1380 Li1322 1.961 . S
O1380 C1324 1.325 . S
O1381 Li1320 1.970 . S
O1381 Li1321 1.956 . S
O1381 Li1323 1.961 . S
O1381 C1330 1.325 . S
O1382 Li1320 1.961 . S
O1382 Li1322 1.956 . S
O1382 Li1323 1.970 . S
O1382 C1352 1.325 . S
O1383 Li1321 1.961 . S
O1383 Li1322 1.970 . S
O1383 Li1323 1.956 . S
O1383 C1358 1.325 . S
H1384 C1326 0.929 . S
H1385 C1327 0.930 . S
H1386 C1328 0.930 . S
H1387 C1329 0.930 . S
H1388 C1331 0.930 . S
H1389 C1333 0.929 . S
H1390 C1334 0.930 . S
H1391 C1335 0.930 . S
H1392 C1338 0.930 . S
H1393 C1341 0.929 . S
H1394 C1346 0.929 . S
H1395 C1347 0.930 . S
H1396 C1354 0.929 . S
H1397 C1355 0.930 . S
H1398 C1356 0.930 . S
H1399 C1357 0.930 . S
H1400 C1359 0.929 . S
H1401 C1360 0.930 . S
H1402 C1361 0.930 . S
H1403 C1362 0.930 . S
H1404 C1366 0.929 . S
H1405 C1368 0.930 . S
H1406 C1374 0.929 . S
H1407 C1375 0.930 . S
Li1408 N1425 1.990 . S
Li1408 O1468 1.956 . S
Li1408 O1469 1.970 . S
Li1408 O1470 1.961 . S
Li1409 N1433 1.990 . S
Li1409 O1468 1.970 . S
Li1409 O1469 1.956 . S
Li1409 O1471 1.961 . S
Li1410 N1455 1.990 . S
Li1410 O1468 1.961 . S
Li1410 O1470 1.956 . S
Li1410 O1471 1.970 . S
Li1411 N1461 1.990 . S
Li1411 O1469 1.961 . S
Li1411 O1470 1.970 . S
Li1411 O1471 1.956 . S
C1412 C1414 1.348 . S
C1412 C1415 1.356 . S
C1412 O1468 1.325 . S
N1413 C1416 1.314 . S
N1413 C1417 1.279 . S
C1414 C1412 1.348 . S
C1414 C1416 1.353 . S
C1414 H1472 0.929 . S
C1415 C1412 1.356 . S
C1415 C1417 1.358 . S
C1415 H1473 0.930 . S
C1416 N1413 1.314 . S
C1416 C1414 1.353 . S
C1416 H1474 0.930 . S
C1417 N1413 1.279 . S
C1417 C1415 1.358 . S
C1417 H1475 0.930 . S
C1418 C1421 1.348 . S
C1418 C1422 1.356 . S
C1418 O1469 1.325 . S
C1419 N1420 1.279 . S
C1419 C1422 1.358 . S
C1419 H1476 0.930 . S
N1420 C1419 1.279 . S
N1420 C1423 1.314 . S
C1421 C1418 1.348 . S
C1421 C1423 1.353 . S
C1421 H1477 0.929 . S
C1422 C1418 1.356 . S
C1422 C1419 1.358 . S
C1422 H1478 0.930 . S
C1423 N1420 1.314 . S
C1423 C1421 1.353 . S
C1423 H1479 0.930 . S
C1424 N1425 1.314 . S
C1424 C1429 1.353 . S
C1424 H1430 0.930 . S
N1425 Li1408 1.990 . S
N1425 C1424 1.314 . S
N1425 C1427 1.279 . S
C1426 C1427 1.358 . S
C1426 C1428 1.356 . S
C1426 H1480 0.930 . S
C1427 N1425 1.279 . S
C1427 C1426 1.358 . S
C1427 H1431 0.930 . S
C1428 C1426 1.356 . S
C1428 C1429 1.348 . S
C1429 C1424 1.353 . S
C1429 C1428 1.348 . S
C1429 H1481 0.929 . S
H1430 C1424 0.930 . S
H1431 C1427 0.930 . S
C1432 N1433 1.314 . S
C1432 C1434 1.353 . S
C1432 H1438 0.930 . S
N1433 Li1409 1.990 . S
N1433 C1432 1.314 . S
N1433 C1436 1.279 . S
C1434 C1432 1.353 . S
C1434 C1437 1.348 . S
C1434 H1482 0.929 . S
C1435 C1436 1.358 . S
C1435 C1437 1.356 . S
C1435 H1483 0.930 . S
C1436 N1433 1.279 . S
C1436 C1435 1.358 . S
C1436 H1439 0.930 . S
C1437 C1434 1.348 . S
C1437 C1435 1.356 . S
H1438 C1432 0.930 . S
H1439 C1436 0.930 . S
C1440 C1442 1.348 . S
C1440 C1443 1.356 . S
C1440 O1470 1.325 . S
N1441 C1444 1.314 . S
N1441 C1445 1.279 . S
C1442 C1440 1.348 . S
C1442 C1444 1.353 . S
C1442 H1484 0.929 . S
C1443 C1440 1.356 . S
C1443 C1445 1.358 . S
C1443 H1485 0.930 . S
C1444 N1441 1.314 . S
C1444 C1442 1.353 . S
C1444 H1486 0.930 . S
C1445 N1441 1.279 . S
C1445 C1443 1.358 . S
C1445 H1487 0.930 . S
C1446 C1447 1.348 . S
C1446 C1448 1.356 . S
C1446 O1471 1.325 . S
C1447 C1446 1.348 . S
C1447 C1449 1.353 . S
C1447 H1488 0.929 . S
C1448 C1446 1.356 . S
C1448 C1450 1.358 . S
C1448 H1489 0.930 . S
C1449 C1447 1.353 . S
C1449 N1451 1.314 . S
C1449 H1490 0.930 . S
C1450 C1448 1.358 . S
C1450 N1451 1.279 . S
C1450 H1491 0.930 . S
N1451 C1449 1.314 . S
N1451 C1450 1.279 . S
C1452 C1454 1.353 . S
C1452 N1455 1.314 . S
C1452 H1458 0.930 . S
C1453 N1455 1.279 . S
C1453 C1456 1.358 . S
C1453 H1459 0.930 . S
C1454 C1452 1.353 . S
C1454 C1457 1.348 . S
C1454 H1492 0.929 . S
N1455 Li1410 1.990 . S
N1455 C1452 1.314 . S
N1455 C1453 1.279 . S
C1456 C1453 1.358 . S
C1456 C1457 1.356 . S
C1456 H1493 0.930 . S
C1457 C1454 1.348 . S
C1457 C1456 1.356 . S
H1458 C1452 0.930 . S
H1459 C1453 0.930 . S
C1460 N1461 1.314 . S
C1460 C1462 1.353 . S
C1460 H1466 0.930 . S
N1461 Li1411 1.990 . S
N1461 C1460 1.314 . S
N1461 C1464 1.279 . S
C1462 C1460 1.353 . S
C1462 C1465 1.348 . S
C1462 H1494 0.929 . S
C1463 C1464 1.358 . S
C1463 C1465 1.356 . S
C1463 H1495 0.930 . S
C1464 N1461 1.279 . S
C1464 C1463 1.358 . S
C1464 H1467 0.930 . S
C1465 C1462 1.348 . S
C1465 C1463 1.356 . S
H1466 C1460 0.930 . S
H1467 C1464 0.930 . S
O1468 Li1408 1.956 . S
O1468 Li1409 1.970 . S
O1468 Li1410 1.961 . S
O1468 C1412 1.325 . S
O1469 Li1408 1.970 . S
O1469 Li1409 1.956 . S
O1469 Li1411 1.961 . S
O1469 C1418 1.325 . S
O1470 Li1408 1.961 . S
O1470 Li1410 1.956 . S
O1470 Li1411 1.970 . S
O1470 C1440 1.325 . S
O1471 Li1409 1.961 . S
O1471 Li1410 1.970 . S
O1471 Li1411 1.956 . S
O1471 C1446 1.325 . S
H1472 C1414 0.929 . S
H1473 C1415 0.930 . S
H1474 C1416 0.930 . S
H1475 C1417 0.930 . S
H1476 C1419 0.930 . S
H1477 C1421 0.929 . S
H1478 C1422 0.930 . S
H1479 C1423 0.930 . S
H1480 C1426 0.930 . S
H1481 C1429 0.929 . S
H1482 C1434 0.929 . S
H1483 C1435 0.930 . S
H1484 C1442 0.929 . S
H1485 C1443 0.930 . S
H1486 C1444 0.930 . S
H1487 C1445 0.930 . S
H1488 C1447 0.929 . S
H1489 C1448 0.930 . S
H1490 C1449 0.930 . S
H1491 C1450 0.930 . S
H1492 C1454 0.929 . S
H1493 C1456 0.930 . S
H1494 C1462 0.929 . S
H1495 C1463 0.930 . S
Li1496 N1513 1.990 . S
Li1496 O1556 1.956 . S
Li1496 O1557 1.970 . S
Li1496 O1558 1.961 . S
Li1497 N1521 1.990 . S
Li1497 O1556 1.970 . S
Li1497 O1557 1.956 . S
Li1497 O1559 1.961 . S
Li1498 N1543 1.990 . S
Li1498 O1556 1.961 . S
Li1498 O1558 1.956 . S
Li1498 O1559 1.970 . S
Li1499 N1549 1.990 . S
Li1499 O1557 1.961 . S
Li1499 O1558 1.970 . S
Li1499 O1559 1.956 . S
C1500 C1502 1.348 . S
C1500 C1503 1.356 . S
C1500 O1556 1.325 . S
N1501 C1504 1.314 . S
N1501 C1505 1.279 . S
C1502 C1500 1.348 . S
C1502 C1504 1.353 . S
C1502 H1560 0.929 . S
C1503 C1500 1.356 . S
C1503 C1505 1.358 . S
C1503 H1561 0.930 . S
C1504 N1501 1.314 . S
C1504 C1502 1.353 . S
C1504 H1562 0.930 . S
C1505 N1501 1.279 . S
C1505 C1503 1.358 . S
C1505 H1563 0.930 . S
C1506 C1509 1.348 . S
C1506 C1510 1.356 . S
C1506 O1557 1.325 . S
C1507 N1508 1.279 . S
C1507 C1510 1.358 . S
C1507 H1564 0.930 . S
N1508 C1507 1.279 . S
N1508 C1511 1.314 . S
C1509 C1506 1.348 . S
C1509 C1511 1.353 . S
C1509 H1565 0.929 . S
C1510 C1506 1.356 . S
C1510 C1507 1.358 . S
C1510 H1566 0.930 . S
C1511 N1508 1.314 . S
C1511 C1509 1.353 . S
C1511 H1567 0.930 . S
C1512 N1513 1.314 . S
C1512 C1517 1.353 . S
C1512 H1518 0.930 . S
N1513 Li1496 1.990 . S
N1513 C1512 1.314 . S
N1513 C1515 1.279 . S
C1514 C1515 1.358 . S
C1514 C1516 1.356 . S
C1514 H1568 0.930 . S
C1515 N1513 1.279 . S
C1515 C1514 1.358 . S
C1515 H1519 0.930 . S
C1516 C1514 1.356 . S
C1516 C1517 1.348 . S
C1517 C1512 1.353 . S
C1517 C1516 1.348 . S
C1517 H1569 0.929 . S
H1518 C1512 0.930 . S
H1519 C1515 0.930 . S
C1520 N1521 1.314 . S
C1520 C1522 1.353 . S
C1520 H1526 0.930 . S
N1521 Li1497 1.990 . S
N1521 C1520 1.314 . S
N1521 C1524 1.279 . S
C1522 C1520 1.353 . S
C1522 C1525 1.348 . S
C1522 H1570 0.929 . S
C1523 C1524 1.358 . S
C1523 C1525 1.356 . S
C1523 H1571 0.930 . S
C1524 N1521 1.279 . S
C1524 C1523 1.358 . S
C1524 H1527 0.930 . S
C1525 C1522 1.348 . S
C1525 C1523 1.356 . S
H1526 C1520 0.930 . S
H1527 C1524 0.930 . S
C1528 C1530 1.348 . S
C1528 C1531 1.356 . S
C1528 O1558 1.325 . S
N1529 C1532 1.314 . S
N1529 C1533 1.279 . S
C1530 C1528 1.348 . S
C1530 C1532 1.353 . S
C1530 H1572 0.929 . S
C1531 C1528 1.356 . S
C1531 C1533 1.358 . S
C1531 H1573 0.930 . S
C1532 N1529 1.314 . S
C1532 C1530 1.353 . S
C1532 H1574 0.930 . S
C1533 N1529 1.279 . S
C1533 C1531 1.358 . S
C1533 H1575 0.930 . S
C1534 C1535 1.348 . S
C1534 C1536 1.356 . S
C1534 O1559 1.325 . S
C1535 C1534 1.348 . S
C1535 C1537 1.353 . S
C1535 H1576 0.929 . S
C1536 C1534 1.356 . S
C1536 C1538 1.358 . S
C1536 H1577 0.930 . S
C1537 C1535 1.353 . S
C1537 N1539 1.314 . S
C1537 H1578 0.930 . S
C1538 C1536 1.358 . S
C1538 N1539 1.279 . S
C1538 H1579 0.930 . S
N1539 C1537 1.314 . S
N1539 C1538 1.279 . S
C1540 C1542 1.353 . S
C1540 N1543 1.314 . S
C1540 H1546 0.930 . S
C1541 N1543 1.279 . S
C1541 C1544 1.358 . S
C1541 H1547 0.930 . S
C1542 C1540 1.353 . S
C1542 C1545 1.348 . S
C1542 H1580 0.929 . S
N1543 Li1498 1.990 . S
N1543 C1540 1.314 . S
N1543 C1541 1.279 . S
C1544 C1541 1.358 . S
C1544 C1545 1.356 . S
C1544 H1581 0.930 . S
C1545 C1542 1.348 . S
C1545 C1544 1.356 . S
H1546 C1540 0.930 . S
H1547 C1541 0.930 . S
C1548 N1549 1.314 . S
C1548 C1550 1.353 . S
C1548 H1554 0.930 . S
N1549 Li1499 1.990 . S
N1549 C1548 1.314 . S
N1549 C1552 1.279 . S
C1550 C1548 1.353 . S
C1550 C1553 1.348 . S
C1550 H1582 0.929 . S
C1551 C1552 1.358 . S
C1551 C1553 1.356 . S
C1551 H1583 0.930 . S
C1552 N1549 1.279 . S
C1552 C1551 1.358 . S
C1552 H1555 0.930 . S
C1553 C1550 1.348 . S
C1553 C1551 1.356 . S
H1554 C1548 0.930 . S
H1555 C1552 0.930 . S
O1556 Li1496 1.956 . S
O1556 Li1497 1.970 . S
O1556 Li1498 1.961 . S
O1556 C1500 1.325 . S
O1557 Li1496 1.970 . S
O1557 Li1497 1.956 . S
O1557 Li1499 1.961 . S
O1557 C1506 1.325 . S
O1558 Li1496 1.961 . S
O1558 Li1498 1.956 . S
O1558 Li1499 1.970 . S
O1558 C1528 1.325 . S
O1559 Li1497 1.961 . S
O1559 Li1498 1.970 . S
O1559 Li1499 1.956 . S
O1559 C1534 1.325 . S
H1560 C1502 0.929 . S
H1561 C1503 0.930 . S
H1562 C1504 0.930 . S
H1563 C1505 0.930 . S
H1564 C1507 0.930 . S
H1565 C1509 0.929 . S
H1566 C1510 0.930 . S
H1567 C1511 0.930 . S
H1568 C1514 0.930 . S
H1569 C1517 0.929 . S
H1570 C1522 0.929 . S
H1571 C1523 0.930 . S
H1572 C1530 0.929 . S
H1573 C1531 0.930 . S
H1574 C1532 0.930 . S
H1575 C1533 0.930 . S
H1576 C1535 0.929 . S
H1577 C1536 0.930 . S
H1578 C1537 0.930 . S
H1579 C1538 0.930 . S
H1580 C1542 0.929 . S
H1581 C1544 0.930 . S
H1582 C1550 0.929 . S
H1583 C1551 0.930 . S
Li1584 N1601 1.990 . S
Li1584 O1644 1.956 . S
Li1584 O1645 1.970 . S
Li1584 O1646 1.961 . S
Li1585 N1609 1.990 . S
Li1585 O1644 1.970 . S
Li1585 O1645 1.956 . S
Li1585 O1647 1.961 . S
Li1586 N1631 1.990 . S
Li1586 O1644 1.961 . S
Li1586 O1646 1.956 . S
Li1586 O1647 1.970 . S
Li1587 N1637 1.990 . S
Li1587 O1645 1.961 . S
Li1587 O1646 1.970 . S
Li1587 O1647 1.956 . S
C1588 C1590 1.348 . S
C1588 C1591 1.356 . S
C1588 O1644 1.325 . S
N1589 C1592 1.314 . S
N1589 C1593 1.279 . S
C1590 C1588 1.348 . S
C1590 C1592 1.353 . S
C1590 H1648 0.929 . S
C1591 C1588 1.356 . S
C1591 C1593 1.358 . S
C1591 H1649 0.930 . S
C1592 N1589 1.314 . S
C1592 C1590 1.353 . S
C1592 H1650 0.930 . S
C1593 N1589 1.279 . S
C1593 C1591 1.358 . S
C1593 H1651 0.930 . S
C1594 C1597 1.348 . S
C1594 C1598 1.356 . S
C1594 O1645 1.325 . S
C1595 N1596 1.279 . S
C1595 C1598 1.358 . S
C1595 H1652 0.930 . S
N1596 C1595 1.279 . S
N1596 C1599 1.314 . S
C1597 C1594 1.348 . S
C1597 C1599 1.353 . S
C1597 H1653 0.929 . S
C1598 C1594 1.356 . S
C1598 C1595 1.358 . S
C1598 H1654 0.930 . S
C1599 N1596 1.314 . S
C1599 C1597 1.353 . S
C1599 H1655 0.930 . S
C1600 N1601 1.314 . S
C1600 C1605 1.353 . S
C1600 H1606 0.930 . S
N1601 Li1584 1.990 . S
N1601 C1600 1.314 . S
N1601 C1603 1.279 . S
C1602 C1603 1.358 . S
C1602 C1604 1.356 . S
C1602 H1656 0.930 . S
C1603 N1601 1.279 . S
C1603 C1602 1.358 . S
C1603 H1607 0.930 . S
C1604 C1602 1.356 . S
C1604 C1605 1.348 . S
C1605 C1600 1.353 . S
C1605 C1604 1.348 . S
C1605 H1657 0.929 . S
H1606 C1600 0.930 . S
H1607 C1603 0.930 . S
C1608 N1609 1.314 . S
C1608 C1610 1.353 . S
C1608 H1614 0.930 . S
N1609 Li1585 1.990 . S
N1609 C1608 1.314 . S
N1609 C1612 1.279 . S
C1610 C1608 1.353 . S
C1610 C1613 1.348 . S
C1610 H1658 0.929 . S
C1611 C1612 1.358 . S
C1611 C1613 1.356 . S
C1611 H1659 0.930 . S
C1612 N1609 1.279 . S
C1612 C1611 1.358 . S
C1612 H1615 0.930 . S
C1613 C1610 1.348 . S
C1613 C1611 1.356 . S
H1614 C1608 0.930 . S
H1615 C1612 0.930 . S
C1616 C1618 1.348 . S
C1616 C1619 1.356 . S
C1616 O1646 1.325 . S
N1617 C1620 1.314 . S
N1617 C1621 1.279 . S
C1618 C1616 1.348 . S
C1618 C1620 1.353 . S
C1618 H1660 0.929 . S
C1619 C1616 1.356 . S
C1619 C1621 1.358 . S
C1619 H1661 0.930 . S
C1620 N1617 1.314 . S
C1620 C1618 1.353 . S
C1620 H1662 0.930 . S
C1621 N1617 1.279 . S
C1621 C1619 1.358 . S
C1621 H1663 0.930 . S
C1622 C1623 1.348 . S
C1622 C1624 1.356 . S
C1622 O1647 1.325 . S
C1623 C1622 1.348 . S
C1623 C1625 1.353 . S
C1623 H1664 0.929 . S
C1624 C1622 1.356 . S
C1624 C1626 1.358 . S
C1624 H1665 0.930 . S
C1625 C1623 1.353 . S
C1625 N1627 1.314 . S
C1625 H1666 0.930 . S
C1626 C1624 1.358 . S
C1626 N1627 1.279 . S
C1626 H1667 0.930 . S
N1627 C1625 1.314 . S
N1627 C1626 1.279 . S
C1628 C1630 1.353 . S
C1628 N1631 1.314 . S
C1628 H1634 0.930 . S
C1629 N1631 1.279 . S
C1629 C1632 1.358 . S
C1629 H1635 0.930 . S
C1630 C1628 1.353 . S
C1630 C1633 1.348 . S
C1630 H1668 0.929 . S
N1631 Li1586 1.990 . S
N1631 C1628 1.314 . S
N1631 C1629 1.279 . S
C1632 C1629 1.358 . S
C1632 C1633 1.356 . S
C1632 H1669 0.930 . S
C1633 C1630 1.348 . S
C1633 C1632 1.356 . S
H1634 C1628 0.930 . S
H1635 C1629 0.930 . S
C1636 N1637 1.314 . S
C1636 C1638 1.353 . S
C1636 H1642 0.930 . S
N1637 Li1587 1.990 . S
N1637 C1636 1.314 . S
N1637 C1640 1.279 . S
C1638 C1636 1.353 . S
C1638 C1641 1.348 . S
C1638 H1670 0.929 . S
C1639 C1640 1.358 . S
C1639 C1641 1.356 . S
C1639 H1671 0.930 . S
C1640 N1637 1.279 . S
C1640 C1639 1.358 . S
C1640 H1643 0.930 . S
C1641 C1638 1.348 . S
C1641 C1639 1.356 . S
H1642 C1636 0.930 . S
H1643 C1640 0.930 . S
O1644 Li1584 1.956 . S
O1644 Li1585 1.970 . S
O1644 Li1586 1.961 . S
O1644 C1588 1.325 . S
O1645 Li1584 1.970 . S
O1645 Li1585 1.956 . S
O1645 Li1587 1.961 . S
O1645 C1594 1.325 . S
O1646 Li1584 1.961 . S
O1646 Li1586 1.956 . S
O1646 Li1587 1.970 . S
O1646 C1616 1.325 . S
O1647 Li1585 1.961 . S
O1647 Li1586 1.970 . S
O1647 Li1587 1.956 . S
O1647 C1622 1.325 . S
H1648 C1590 0.929 . S
H1649 C1591 0.930 . S
H1650 C1592 0.930 . S
H1651 C1593 0.930 . S
H1652 C1595 0.930 . S
H1653 C1597 0.929 . S
H1654 C1598 0.930 . S
H1655 C1599 0.930 . S
H1656 C1602 0.930 . S
H1657 C1605 0.929 . S
H1658 C1610 0.929 . S
H1659 C1611 0.930 . S
H1660 C1618 0.929 . S
H1661 C1619 0.930 . S
H1662 C1620 0.930 . S
H1663 C1621 0.930 . S
H1664 C1623 0.929 . S
H1665 C1624 0.930 . S
H1666 C1625 0.930 . S
H1667 C1626 0.930 . S
H1668 C1630 0.929 . S
H1669 C1632 0.930 . S
H1670 C1638 0.929 . S
H1671 C1639 0.930 . S
Li1672 N1689 1.990 . S
Li1672 O1732 1.956 . S
Li1672 O1733 1.970 . S
Li1672 O1734 1.961 . S
Li1673 N1697 1.990 . S
Li1673 O1732 1.970 . S
Li1673 O1733 1.956 . S
Li1673 O1735 1.961 . S
Li1674 N1719 1.990 . S
Li1674 O1732 1.961 . S
Li1674 O1734 1.956 . S
Li1674 O1735 1.970 . S
Li1675 N1725 1.990 . S
Li1675 O1733 1.961 . S
Li1675 O1734 1.970 . S
Li1675 O1735 1.956 . S
C1676 C1678 1.348 . S
C1676 C1679 1.356 . S
C1676 O1732 1.325 . S
N1677 C1680 1.314 . S
N1677 C1681 1.279 . S
C1678 C1676 1.348 . S
C1678 C1680 1.353 . S
C1678 H1736 0.929 . S
C1679 C1676 1.356 . S
C1679 C1681 1.358 . S
C1679 H1737 0.930 . S
C1680 N1677 1.314 . S
C1680 C1678 1.353 . S
C1680 H1738 0.930 . S
C1681 N1677 1.279 . S
C1681 C1679 1.358 . S
C1681 H1739 0.930 . S
C1682 C1685 1.348 . S
C1682 C1686 1.356 . S
C1682 O1733 1.325 . S
C1683 N1684 1.279 . S
C1683 C1686 1.358 . S
C1683 H1740 0.930 . S
N1684 C1683 1.279 . S
N1684 C1687 1.314 . S
C1685 C1682 1.348 . S
C1685 C1687 1.353 . S
C1685 H1741 0.929 . S
C1686 C1682 1.356 . S
C1686 C1683 1.358 . S
C1686 H1742 0.930 . S
C1687 N1684 1.314 . S
C1687 C1685 1.353 . S
C1687 H1743 0.930 . S
C1688 N1689 1.314 . S
C1688 C1693 1.353 . S
C1688 H1694 0.930 . S
N1689 Li1672 1.990 . S
N1689 C1688 1.314 . S
N1689 C1691 1.279 . S
C1690 C1691 1.358 . S
C1690 C1692 1.356 . S
C1690 H1744 0.930 . S
C1691 N1689 1.279 . S
C1691 C1690 1.358 . S
C1691 H1695 0.930 . S
C1692 C1690 1.356 . S
C1692 C1693 1.348 . S
C1693 C1688 1.353 . S
C1693 C1692 1.348 . S
C1693 H1745 0.929 . S
H1694 C1688 0.930 . S
H1695 C1691 0.930 . S
C1696 N1697 1.314 . S
C1696 C1698 1.353 . S
C1696 H1702 0.930 . S
N1697 Li1673 1.990 . S
N1697 C1696 1.314 . S
N1697 C1700 1.279 . S
C1698 C1696 1.353 . S
C1698 C1701 1.348 . S
C1698 H1746 0.929 . S
C1699 C1700 1.358 . S
C1699 C1701 1.356 . S
C1699 H1747 0.930 . S
C1700 N1697 1.279 . S
C1700 C1699 1.358 . S
C1700 H1703 0.930 . S
C1701 C1698 1.348 . S
C1701 C1699 1.356 . S
H1702 C1696 0.930 . S
H1703 C1700 0.930 . S
C1704 C1706 1.348 . S
C1704 C1707 1.356 . S
C1704 O1734 1.325 . S
N1705 C1708 1.314 . S
N1705 C1709 1.279 . S
C1706 C1704 1.348 . S
C1706 C1708 1.353 . S
C1706 H1748 0.929 . S
C1707 C1704 1.356 . S
C1707 C1709 1.358 . S
C1707 H1749 0.930 . S
C1708 N1705 1.314 . S
C1708 C1706 1.353 . S
C1708 H1750 0.930 . S
C1709 N1705 1.279 . S
C1709 C1707 1.358 . S
C1709 H1751 0.930 . S
C1710 C1711 1.348 . S
C1710 C1712 1.356 . S
C1710 O1735 1.325 . S
C1711 C1710 1.348 . S
C1711 C1713 1.353 . S
C1711 H1752 0.929 . S
C1712 C1710 1.356 . S
C1712 C1714 1.358 . S
C1712 H1753 0.930 . S
C1713 C1711 1.353 . S
C1713 N1715 1.314 . S
C1713 H1754 0.930 . S
C1714 C1712 1.358 . S
C1714 N1715 1.279 . S
C1714 H1755 0.930 . S
N1715 C1713 1.314 . S
N1715 C1714 1.279 . S
C1716 C1718 1.353 . S
C1716 N1719 1.314 . S
C1716 H1722 0.930 . S
C1717 N1719 1.279 . S
C1717 C1720 1.358 . S
C1717 H1723 0.930 . S
C1718 C1716 1.353 . S
C1718 C1721 1.348 . S
C1718 H1756 0.929 . S
N1719 Li1674 1.990 . S
N1719 C1716 1.314 . S
N1719 C1717 1.279 . S
C1720 C1717 1.358 . S
C1720 C1721 1.356 . S
C1720 H1757 0.930 . S
C1721 C1718 1.348 . S
C1721 C1720 1.356 . S
H1722 C1716 0.930 . S
H1723 C1717 0.930 . S
C1724 N1725 1.314 . S
C1724 C1726 1.353 . S
C1724 H1730 0.930 . S
N1725 Li1675 1.990 . S
N1725 C1724 1.314 . S
N1725 C1728 1.279 . S
C1726 C1724 1.353 . S
C1726 C1729 1.348 . S
C1726 H1758 0.929 . S
C1727 C1728 1.358 . S
C1727 C1729 1.356 . S
C1727 H1759 0.930 . S
C1728 N1725 1.279 . S
C1728 C1727 1.358 . S
C1728 H1731 0.930 . S
C1729 C1726 1.348 . S
C1729 C1727 1.356 . S
H1730 C1724 0.930 . S
H1731 C1728 0.930 . S
O1732 Li1672 1.956 . S
O1732 Li1673 1.970 . S
O1732 Li1674 1.961 . S
O1732 C1676 1.325 . S
O1733 Li1672 1.970 . S
O1733 Li1673 1.956 . S
O1733 Li1675 1.961 . S
O1733 C1682 1.325 . S
O1734 Li1672 1.961 . S
O1734 Li1674 1.956 . S
O1734 Li1675 1.970 . S
O1734 C1704 1.325 . S
O1735 Li1673 1.961 . S
O1735 Li1674 1.970 . S
O1735 Li1675 1.956 . S
O1735 C1710 1.325 . S
H1736 C1678 0.929 . S
H1737 C1679 0.930 . S
H1738 C1680 0.930 . S
H1739 C1681 0.930 . S
H1740 C1683 0.930 . S
H1741 C1685 0.929 . S
H1742 C1686 0.930 . S
H1743 C1687 0.930 . S
H1744 C1690 0.930 . S
H1745 C1693 0.929 . S
H1746 C1698 0.929 . S
H1747 C1699 0.930 . S
H1748 C1706 0.929 . S
H1749 C1707 0.930 . S
H1750 C1708 0.930 . S
H1751 C1709 0.930 . S
H1752 C1711 0.929 . S
H1753 C1712 0.930 . S
H1754 C1713 0.930 . S
H1755 C1714 0.930 . S
H1756 C1718 0.929 . S
H1757 C1720 0.930 . S
H1758 C1726 0.929 . S
H1759 C1727 0.930 . S
Li1760 N1777 1.990 . S
Li1760 O1820 1.956 . S
Li1760 O1821 1.970 . S
Li1760 O1822 1.961 . S
Li1761 N1785 1.990 . S
Li1761 O1820 1.970 . S
Li1761 O1821 1.956 . S
Li1761 O1823 1.961 . S
Li1762 N1807 1.990 . S
Li1762 O1820 1.961 . S
Li1762 O1822 1.956 . S
Li1762 O1823 1.970 . S
Li1763 N1813 1.990 . S
Li1763 O1821 1.961 . S
Li1763 O1822 1.970 . S
Li1763 O1823 1.956 . S
C1764 C1766 1.348 . S
C1764 C1767 1.356 . S
C1764 O1820 1.325 . S
N1765 C1768 1.314 . S
N1765 C1769 1.279 . S
C1766 C1764 1.348 . S
C1766 C1768 1.353 . S
C1766 H1824 0.929 . S
C1767 C1764 1.356 . S
C1767 C1769 1.358 . S
C1767 H1825 0.930 . S
C1768 N1765 1.314 . S
C1768 C1766 1.353 . S
C1768 H1826 0.930 . S
C1769 N1765 1.279 . S
C1769 C1767 1.358 . S
C1769 H1827 0.930 . S
C1770 C1773 1.348 . S
C1770 C1774 1.356 . S
C1770 O1821 1.325 . S
C1771 N1772 1.279 . S
C1771 C1774 1.358 . S
C1771 H1828 0.930 . S
N1772 C1771 1.279 . S
N1772 C1775 1.314 . S
C1773 C1770 1.348 . S
C1773 C1775 1.353 . S
C1773 H1829 0.929 . S
C1774 C1770 1.356 . S
C1774 C1771 1.358 . S
C1774 H1830 0.930 . S
C1775 N1772 1.314 . S
C1775 C1773 1.353 . S
C1775 H1831 0.930 . S
C1776 N1777 1.314 . S
C1776 C1781 1.353 . S
C1776 H1782 0.930 . S
N1777 Li1760 1.990 . S
N1777 C1776 1.314 . S
N1777 C1779 1.279 . S
C1778 C1779 1.358 . S
C1778 C1780 1.356 . S
C1778 H1832 0.930 . S
C1779 N1777 1.279 . S
C1779 C1778 1.358 . S
C1779 H1783 0.930 . S
C1780 C1778 1.356 . S
C1780 C1781 1.348 . S
C1781 C1776 1.353 . S
C1781 C1780 1.348 . S
C1781 H1833 0.929 . S
H1782 C1776 0.930 . S
H1783 C1779 0.930 . S
C1784 N1785 1.314 . S
C1784 C1786 1.353 . S
C1784 H1790 0.930 . S
N1785 Li1761 1.990 . S
N1785 C1784 1.314 . S
N1785 C1788 1.279 . S
C1786 C1784 1.353 . S
C1786 C1789 1.348 . S
C1786 H1834 0.929 . S
C1787 C1788 1.358 . S
C1787 C1789 1.356 . S
C1787 H1835 0.930 . S
C1788 N1785 1.279 . S
C1788 C1787 1.358 . S
C1788 H1791 0.930 . S
C1789 C1786 1.348 . S
C1789 C1787 1.356 . S
H1790 C1784 0.930 . S
H1791 C1788 0.930 . S
C1792 C1794 1.348 . S
C1792 C1795 1.356 . S
C1792 O1822 1.325 . S
N1793 C1796 1.314 . S
N1793 C1797 1.279 . S
C1794 C1792 1.348 . S
C1794 C1796 1.353 . S
C1794 H1836 0.929 . S
C1795 C1792 1.356 . S
C1795 C1797 1.358 . S
C1795 H1837 0.930 . S
C1796 N1793 1.314 . S
C1796 C1794 1.353 . S
C1796 H1838 0.930 . S
C1797 N1793 1.279 . S
C1797 C1795 1.358 . S
C1797 H1839 0.930 . S
C1798 C1799 1.348 . S
C1798 C1800 1.356 . S
C1798 O1823 1.325 . S
C1799 C1798 1.348 . S
C1799 C1801 1.353 . S
C1799 H1840 0.929 . S
C1800 C1798 1.356 . S
C1800 C1802 1.358 . S
C1800 H1841 0.930 . S
C1801 C1799 1.353 . S
C1801 N1803 1.314 . S
C1801 H1842 0.930 . S
C1802 C1800 1.358 . S
C1802 N1803 1.279 . S
C1802 H1843 0.930 . S
N1803 C1801 1.314 . S
N1803 C1802 1.279 . S
C1804 C1806 1.353 . S
C1804 N1807 1.314 . S
C1804 H1810 0.930 . S
C1805 N1807 1.279 . S
C1805 C1808 1.358 . S
C1805 H1811 0.930 . S
C1806 C1804 1.353 . S
C1806 C1809 1.348 . S
C1806 H1844 0.929 . S
N1807 Li1762 1.990 . S
N1807 C1804 1.314 . S
N1807 C1805 1.279 . S
C1808 C1805 1.358 . S
C1808 C1809 1.356 . S
C1808 H1845 0.930 . S
C1809 C1806 1.348 . S
C1809 C1808 1.356 . S
H1810 C1804 0.930 . S
H1811 C1805 0.930 . S
C1812 N1813 1.314 . S
C1812 C1814 1.353 . S
C1812 H1818 0.930 . S
N1813 Li1763 1.990 . S
N1813 C1812 1.314 . S
N1813 C1816 1.279 . S
C1814 C1812 1.353 . S
C1814 C1817 1.348 . S
C1814 H1846 0.929 . S
C1815 C1816 1.358 . S
C1815 C1817 1.356 . S
C1815 H1847 0.930 . S
C1816 N1813 1.279 . S
C1816 C1815 1.358 . S
C1816 H1819 0.930 . S
C1817 C1814 1.348 . S
C1817 C1815 1.356 . S
H1818 C1812 0.930 . S
H1819 C1816 0.930 . S
O1820 Li1760 1.956 . S
O1820 Li1761 1.970 . S
O1820 Li1762 1.961 . S
O1820 C1764 1.325 . S
O1821 Li1760 1.970 . S
O1821 Li1761 1.956 . S
O1821 Li1763 1.961 . S
O1821 C1770 1.325 . S
O1822 Li1760 1.961 . S
O1822 Li1762 1.956 . S
O1822 Li1763 1.970 . S
O1822 C1792 1.325 . S
O1823 Li1761 1.961 . S
O1823 Li1762 1.970 . S
O1823 Li1763 1.956 . S
O1823 C1798 1.325 . S
H1824 C1766 0.929 . S
H1825 C1767 0.930 . S
H1826 C1768 0.930 . S
H1827 C1769 0.930 . S
H1828 C1771 0.930 . S
H1829 C1773 0.929 . S
H1830 C1774 0.930 . S
H1831 C1775 0.930 . S
H1832 C1778 0.930 . S
H1833 C1781 0.929 . S
H1834 C1786 0.929 . S
H1835 C1787 0.930 . S
H1836 C1794 0.929 . S
H1837 C1795 0.930 . S
H1838 C1796 0.930 . S
H1839 C1797 0.930 . S
H1840 C1799 0.929 . S
H1841 C1800 0.930 . S
H1842 C1801 0.930 . S
H1843 C1802 0.930 . S
H1844 C1806 0.929 . S
H1845 C1808 0.930 . S
H1846 C1814 0.929 . S
H1847 C1815 0.930 . S
Li1848 N1865 1.990 . S
Li1848 O1908 1.956 . S
Li1848 O1909 1.970 . S
Li1848 O1910 1.961 . S
Li1849 N1873 1.990 . S
Li1849 O1908 1.970 . S
Li1849 O1909 1.956 . S
Li1849 O1911 1.961 . S
Li1850 N1895 1.990 . S
Li1850 O1908 1.961 . S
Li1850 O1910 1.956 . S
Li1850 O1911 1.970 . S
Li1851 N1901 1.990 . S
Li1851 O1909 1.961 . S
Li1851 O1910 1.970 . S
Li1851 O1911 1.956 . S
C1852 C1854 1.348 . S
C1852 C1855 1.356 . S
C1852 O1908 1.325 . S
N1853 C1856 1.314 . S
N1853 C1857 1.279 . S
C1854 C1852 1.348 . S
C1854 C1856 1.353 . S
C1854 H1912 0.929 . S
C1855 C1852 1.356 . S
C1855 C1857 1.358 . S
C1855 H1913 0.930 . S
C1856 N1853 1.314 . S
C1856 C1854 1.353 . S
C1856 H1914 0.930 . S
C1857 N1853 1.279 . S
C1857 C1855 1.358 . S
C1857 H1915 0.930 . S
C1858 C1861 1.348 . S
C1858 C1862 1.356 . S
C1858 O1909 1.325 . S
C1859 N1860 1.279 . S
C1859 C1862 1.358 . S
C1859 H1916 0.930 . S
N1860 C1859 1.279 . S
N1860 C1863 1.314 . S
C1861 C1858 1.348 . S
C1861 C1863 1.353 . S
C1861 H1917 0.929 . S
C1862 C1858 1.356 . S
C1862 C1859 1.358 . S
C1862 H1918 0.930 . S
C1863 N1860 1.314 . S
C1863 C1861 1.353 . S
C1863 H1919 0.930 . S
C1864 N1865 1.314 . S
C1864 C1869 1.353 . S
C1864 H1870 0.930 . S
N1865 Li1848 1.990 . S
N1865 C1864 1.314 . S
N1865 C1867 1.279 . S
C1866 C1867 1.358 . S
C1866 C1868 1.356 . S
C1866 H1920 0.930 . S
C1867 N1865 1.279 . S
C1867 C1866 1.358 . S
C1867 H1871 0.930 . S
C1868 C1866 1.356 . S
C1868 C1869 1.348 . S
C1869 C1864 1.353 . S
C1869 C1868 1.348 . S
C1869 H1921 0.929 . S
H1870 C1864 0.930 . S
H1871 C1867 0.930 . S
C1872 N1873 1.314 . S
C1872 C1874 1.353 . S
C1872 H1878 0.930 . S
N1873 Li1849 1.990 . S
N1873 C1872 1.314 . S
N1873 C1876 1.279 . S
C1874 C1872 1.353 . S
C1874 C1877 1.348 . S
C1874 H1922 0.929 . S
C1875 C1876 1.358 . S
C1875 C1877 1.356 . S
C1875 H1923 0.930 . S
C1876 N1873 1.279 . S
C1876 C1875 1.358 . S
C1876 H1879 0.930 . S
C1877 C1874 1.348 . S
C1877 C1875 1.356 . S
H1878 C1872 0.930 . S
H1879 C1876 0.930 . S
C1880 C1882 1.348 . S
C1880 C1883 1.356 . S
C1880 O1910 1.325 . S
N1881 C1884 1.314 . S
N1881 C1885 1.279 . S
C1882 C1880 1.348 . S
C1882 C1884 1.353 . S
C1882 H1924 0.929 . S
C1883 C1880 1.356 . S
C1883 C1885 1.358 . S
C1883 H1925 0.930 . S
C1884 N1881 1.314 . S
C1884 C1882 1.353 . S
C1884 H1926 0.930 . S
C1885 N1881 1.279 . S
C1885 C1883 1.358 . S
C1885 H1927 0.930 . S
C1886 C1887 1.348 . S
C1886 C1888 1.356 . S
C1886 O1911 1.325 . S
C1887 C1886 1.348 . S
C1887 C1889 1.353 . S
C1887 H1928 0.929 . S
C1888 C1886 1.356 . S
C1888 C1890 1.358 . S
C1888 H1929 0.930 . S
C1889 C1887 1.353 . S
C1889 N1891 1.314 . S
C1889 H1930 0.930 . S
C1890 C1888 1.358 . S
C1890 N1891 1.279 . S
C1890 H1931 0.930 . S
N1891 C1889 1.314 . S
N1891 C1890 1.279 . S
C1892 C1894 1.353 . S
C1892 N1895 1.314 . S
C1892 H1898 0.930 . S
C1893 N1895 1.279 . S
C1893 C1896 1.358 . S
C1893 H1899 0.930 . S
C1894 C1892 1.353 . S
C1894 C1897 1.348 . S
C1894 H1932 0.929 . S
N1895 Li1850 1.990 . S
N1895 C1892 1.314 . S
N1895 C1893 1.279 . S
C1896 C1893 1.358 . S
C1896 C1897 1.356 . S
C1896 H1933 0.930 . S
C1897 C1894 1.348 . S
C1897 C1896 1.356 . S
H1898 C1892 0.930 . S
H1899 C1893 0.930 . S
C1900 N1901 1.314 . S
C1900 C1902 1.353 . S
C1900 H1906 0.930 . S
N1901 Li1851 1.990 . S
N1901 C1900 1.314 . S
N1901 C1904 1.279 . S
C1902 C1900 1.353 . S
C1902 C1905 1.348 . S
C1902 H1934 0.929 . S
C1903 C1904 1.358 . S
C1903 C1905 1.356 . S
C1903 H1935 0.930 . S
C1904 N1901 1.279 . S
C1904 C1903 1.358 . S
C1904 H1907 0.930 . S
C1905 C1902 1.348 . S
C1905 C1903 1.356 . S
H1906 C1900 0.930 . S
H1907 C1904 0.930 . S
O1908 Li1848 1.956 . S
O1908 Li1849 1.970 . S
O1908 Li1850 1.961 . S
O1908 C1852 1.325 . S
O1909 Li1848 1.970 . S
O1909 Li1849 1.956 . S
O1909 Li1851 1.961 . S
O1909 C1858 1.325 . S
O1910 Li1848 1.961 . S
O1910 Li1850 1.956 . S
O1910 Li1851 1.970 . S
O1910 C1880 1.325 . S
O1911 Li1849 1.961 . S
O1911 Li1850 1.970 . S
O1911 Li1851 1.956 . S
O1911 C1886 1.325 . S
H1912 C1854 0.929 . S
H1913 C1855 0.930 . S
H1914 C1856 0.930 . S
H1915 C1857 0.930 . S
H1916 C1859 0.930 . S
H1917 C1861 0.929 . S
H1918 C1862 0.930 . S
H1919 C1863 0.930 . S
H1920 C1866 0.930 . S
H1921 C1869 0.929 . S
H1922 C1874 0.929 . S
H1923 C1875 0.930 . S
H1924 C1882 0.929 . S
H1925 C1883 0.930 . S
H1926 C1884 0.930 . S
H1927 C1885 0.930 . S
H1928 C1887 0.929 . S
H1929 C1888 0.930 . S
H1930 C1889 0.930 . S
H1931 C1890 0.930 . S
H1932 C1894 0.929 . S
H1933 C1896 0.930 . S
H1934 C1902 0.929 . S
H1935 C1903 0.930 . S
Li1936 N1953 1.990 . S
Li1936 O1996 1.956 . S
Li1936 O1997 1.970 . S
Li1936 O1998 1.961 . S
Li1937 N1961 1.990 . S
Li1937 O1996 1.970 . S
Li1937 O1997 1.956 . S
Li1937 O1999 1.961 . S
Li1938 N1983 1.990 . S
Li1938 O1996 1.961 . S
Li1938 O1998 1.956 . S
Li1938 O1999 1.970 . S
Li1939 N1989 1.990 . S
Li1939 O1997 1.961 . S
Li1939 O1998 1.970 . S
Li1939 O1999 1.956 . S
C1940 C1942 1.348 . S
C1940 C1943 1.356 . S
C1940 O1996 1.325 . S
N1941 C1944 1.314 . S
N1941 C1945 1.279 . S
C1942 C1940 1.348 . S
C1942 C1944 1.353 . S
C1942 H2000 0.929 . S
C1943 C1940 1.356 . S
C1943 C1945 1.358 . S
C1943 H2001 0.930 . S
C1944 N1941 1.314 . S
C1944 C1942 1.353 . S
C1944 H2002 0.930 . S
C1945 N1941 1.279 . S
C1945 C1943 1.358 . S
C1945 H2003 0.930 . S
C1946 C1949 1.348 . S
C1946 C1950 1.356 . S
C1946 O1997 1.325 . S
C1947 N1948 1.279 . S
C1947 C1950 1.358 . S
C1947 H2004 0.930 . S
N1948 C1947 1.279 . S
N1948 C1951 1.314 . S
C1949 C1946 1.348 . S
C1949 C1951 1.353 . S
C1949 H2005 0.929 . S
C1950 C1946 1.356 . S
C1950 C1947 1.358 . S
C1950 H2006 0.930 . S
C1951 N1948 1.314 . S
C1951 C1949 1.353 . S
C1951 H2007 0.930 . S
C1952 N1953 1.314 . S
C1952 C1957 1.353 . S
C1952 H1958 0.930 . S
N1953 Li1936 1.990 . S
N1953 C1952 1.314 . S
N1953 C1955 1.279 . S
C1954 C1955 1.358 . S
C1954 C1956 1.356 . S
C1954 H2008 0.930 . S
C1955 N1953 1.279 . S
C1955 C1954 1.358 . S
C1955 H1959 0.930 . S
C1956 C1954 1.356 . S
C1956 C1957 1.348 . S
C1957 C1952 1.353 . S
C1957 C1956 1.348 . S
C1957 H2009 0.929 . S
H1958 C1952 0.930 . S
H1959 C1955 0.930 . S
C1960 N1961 1.314 . S
C1960 C1962 1.353 . S
C1960 H1966 0.930 . S
N1961 Li1937 1.990 . S
N1961 C1960 1.314 . S
N1961 C1964 1.279 . S
C1962 C1960 1.353 . S
C1962 C1965 1.348 . S
C1962 H2010 0.929 . S
C1963 C1964 1.358 . S
C1963 C1965 1.356 . S
C1963 H2011 0.930 . S
C1964 N1961 1.279 . S
C1964 C1963 1.358 . S
C1964 H1967 0.930 . S
C1965 C1962 1.348 . S
C1965 C1963 1.356 . S
H1966 C1960 0.930 . S
H1967 C1964 0.930 . S
C1968 C1970 1.348 . S
C1968 C1971 1.356 . S
C1968 O1998 1.325 . S
N1969 C1972 1.314 . S
N1969 C1973 1.279 . S
C1970 C1968 1.348 . S
C1970 C1972 1.353 . S
C1970 H2012 0.929 . S
C1971 C1968 1.356 . S
C1971 C1973 1.358 . S
C1971 H2013 0.930 . S
C1972 N1969 1.314 . S
C1972 C1970 1.353 . S
C1972 H2014 0.930 . S
C1973 N1969 1.279 . S
C1973 C1971 1.358 . S
C1973 H2015 0.930 . S
C1974 C1975 1.348 . S
C1974 C1976 1.356 . S
C1974 O1999 1.325 . S
C1975 C1974 1.348 . S
C1975 C1977 1.353 . S
C1975 H2016 0.929 . S
C1976 C1974 1.356 . S
C1976 C1978 1.358 . S
C1976 H2017 0.930 . S
C1977 C1975 1.353 . S
C1977 N1979 1.314 . S
C1977 H2018 0.930 . S
C1978 C1976 1.358 . S
C1978 N1979 1.279 . S
C1978 H2019 0.930 . S
N1979 C1977 1.314 . S
N1979 C1978 1.279 . S
C1980 C1982 1.353 . S
C1980 N1983 1.314 . S
C1980 H1986 0.930 . S
C1981 N1983 1.279 . S
C1981 C1984 1.358 . S
C1981 H1987 0.930 . S
C1982 C1980 1.353 . S
C1982 C1985 1.348 . S
C1982 H2020 0.929 . S
N1983 Li1938 1.990 . S
N1983 C1980 1.314 . S
N1983 C1981 1.279 . S
C1984 C1981 1.358 . S
C1984 C1985 1.356 . S
C1984 H2021 0.930 . S
C1985 C1982 1.348 . S
C1985 C1984 1.356 . S
H1986 C1980 0.930 . S
H1987 C1981 0.930 . S
C1988 N1989 1.314 . S
C1988 C1990 1.353 . S
C1988 H1994 0.930 . S
N1989 Li1939 1.990 . S
N1989 C1988 1.314 . S
N1989 C1992 1.279 . S
C1990 C1988 1.353 . S
C1990 C1993 1.348 . S
C1990 H2022 0.929 . S
C1991 C1992 1.358 . S
C1991 C1993 1.356 . S
C1991 H2023 0.930 . S
C1992 N1989 1.279 . S
C1992 C1991 1.358 . S
C1992 H1995 0.930 . S
C1993 C1990 1.348 . S
C1993 C1991 1.356 . S
H1994 C1988 0.930 . S
H1995 C1992 0.930 . S
O1996 Li1936 1.956 . S
O1996 Li1937 1.970 . S
O1996 Li1938 1.961 . S
O1996 C1940 1.325 . S
O1997 Li1936 1.970 . S
O1997 Li1937 1.956 . S
O1997 Li1939 1.961 . S
O1997 C1946 1.325 . S
O1998 Li1936 1.961 . S
O1998 Li1938 1.956 . S
O1998 Li1939 1.970 . S
O1998 C1968 1.325 . S
O1999 Li1937 1.961 . S
O1999 Li1938 1.970 . S
O1999 Li1939 1.956 . S
O1999 C1974 1.325 . S
H2000 C1942 0.929 . S
H2001 C1943 0.930 . S
H2002 C1944 0.930 . S
H2003 C1945 0.930 . S
H2004 C1947 0.930 . S
H2005 C1949 0.929 . S
H2006 C1950 0.930 . S
H2007 C1951 0.930 . S
H2008 C1954 0.930 . S
H2009 C1957 0.929 . S
H2010 C1962 0.929 . S
H2011 C1963 0.930 . S
H2012 C1970 0.929 . S
H2013 C1971 0.930 . S
H2014 C1972 0.930 . S
H2015 C1973 0.930 . S
H2016 C1975 0.929 . S
H2017 C1976 0.930 . S
H2018 C1977 0.930 . S
H2019 C1978 0.930 . S
H2020 C1982 0.929 . S
H2021 C1984 0.930 . S
H2022 C1990 0.929 . S
H2023 C1991 0.930 . S
Li2024 N2041 1.990 . S
Li2024 O2084 1.956 . S
Li2024 O2085 1.970 . S
Li2024 O2086 1.961 . S
Li2025 N2049 1.990 . S
Li2025 O2084 1.970 . S
Li2025 O2085 1.956 . S
Li2025 O2087 1.961 . S
Li2026 N2071 1.990 . S
Li2026 O2084 1.961 . S
Li2026 O2086 1.956 . S
Li2026 O2087 1.970 . S
Li2027 N2077 1.990 . S
Li2027 O2085 1.961 . S
Li2027 O2086 1.970 . S
Li2027 O2087 1.956 . S
C2028 C2030 1.348 . S
C2028 C2031 1.356 . S
C2028 O2084 1.325 . S
N2029 C2032 1.314 . S
N2029 C2033 1.279 . S
C2030 C2028 1.348 . S
C2030 C2032 1.353 . S
C2030 H2088 0.929 . S
C2031 C2028 1.356 . S
C2031 C2033 1.358 . S
C2031 H2089 0.930 . S
C2032 N2029 1.314 . S
C2032 C2030 1.353 . S
C2032 H2090 0.930 . S
C2033 N2029 1.279 . S
C2033 C2031 1.358 . S
C2033 H2091 0.930 . S
C2034 C2037 1.348 . S
C2034 C2038 1.356 . S
C2034 O2085 1.325 . S
C2035 N2036 1.279 . S
C2035 C2038 1.358 . S
C2035 H2092 0.930 . S
N2036 C2035 1.279 . S
N2036 C2039 1.314 . S
C2037 C2034 1.348 . S
C2037 C2039 1.353 . S
C2037 H2093 0.929 . S
C2038 C2034 1.356 . S
C2038 C2035 1.358 . S
C2038 H2094 0.930 . S
C2039 N2036 1.314 . S
C2039 C2037 1.353 . S
C2039 H2095 0.930 . S
C2040 N2041 1.314 . S
C2040 C2045 1.353 . S
C2040 H2046 0.930 . S
N2041 Li2024 1.990 . S
N2041 C2040 1.314 . S
N2041 C2043 1.279 . S
C2042 C2043 1.358 . S
C2042 C2044 1.356 . S
C2042 H2096 0.930 . S
C2043 N2041 1.279 . S
C2043 C2042 1.358 . S
C2043 H2047 0.930 . S
C2044 C2042 1.356 . S
C2044 C2045 1.348 . S
C2045 C2040 1.353 . S
C2045 C2044 1.348 . S
C2045 H2097 0.929 . S
H2046 C2040 0.930 . S
H2047 C2043 0.930 . S
C2048 N2049 1.314 . S
C2048 C2050 1.353 . S
C2048 H2054 0.930 . S
N2049 Li2025 1.990 . S
N2049 C2048 1.314 . S
N2049 C2052 1.279 . S
C2050 C2048 1.353 . S
C2050 C2053 1.348 . S
C2050 H2098 0.929 . S
C2051 C2052 1.358 . S
C2051 C2053 1.356 . S
C2051 H2099 0.930 . S
C2052 N2049 1.279 . S
C2052 C2051 1.358 . S
C2052 H2055 0.930 . S
C2053 C2050 1.348 . S
C2053 C2051 1.356 . S
H2054 C2048 0.930 . S
H2055 C2052 0.930 . S
C2056 C2058 1.348 . S
C2056 C2059 1.356 . S
C2056 O2086 1.325 . S
N2057 C2060 1.314 . S
N2057 C2061 1.279 . S
C2058 C2056 1.348 . S
C2058 C2060 1.353 . S
C2058 H2100 0.929 . S
C2059 C2056 1.356 . S
C2059 C2061 1.358 . S
C2059 H2101 0.930 . S
C2060 N2057 1.314 . S
C2060 C2058 1.353 . S
C2060 H2102 0.930 . S
C2061 N2057 1.279 . S
C2061 C2059 1.358 . S
C2061 H2103 0.930 . S
C2062 C2063 1.348 . S
C2062 C2064 1.356 . S
C2062 O2087 1.325 . S
C2063 C2062 1.348 . S
C2063 C2065 1.353 . S
C2063 H2104 0.929 . S
C2064 C2062 1.356 . S
C2064 C2066 1.358 . S
C2064 H2105 0.930 . S
C2065 C2063 1.353 . S
C2065 N2067 1.314 . S
C2065 H2106 0.930 . S
C2066 C2064 1.358 . S
C2066 N2067 1.279 . S
C2066 H2107 0.930 . S
N2067 C2065 1.314 . S
N2067 C2066 1.279 . S
C2068 C2070 1.353 . S
C2068 N2071 1.314 . S
C2068 H2074 0.930 . S
C2069 N2071 1.279 . S
C2069 C2072 1.358 . S
C2069 H2075 0.930 . S
C2070 C2068 1.353 . S
C2070 C2073 1.348 . S
C2070 H2108 0.929 . S
N2071 Li2026 1.990 . S
N2071 C2068 1.314 . S
N2071 C2069 1.279 . S
C2072 C2069 1.358 . S
C2072 C2073 1.356 . S
C2072 H2109 0.930 . S
C2073 C2070 1.348 . S
C2073 C2072 1.356 . S
H2074 C2068 0.930 . S
H2075 C2069 0.930 . S
C2076 N2077 1.314 . S
C2076 C2078 1.353 . S
C2076 H2082 0.930 . S
N2077 Li2027 1.990 . S
N2077 C2076 1.314 . S
N2077 C2080 1.279 . S
C2078 C2076 1.353 . S
C2078 C2081 1.348 . S
C2078 H2110 0.929 . S
C2079 C2080 1.358 . S
C2079 C2081 1.356 . S
C2079 H2111 0.930 . S
C2080 N2077 1.279 . S
C2080 C2079 1.358 . S
C2080 H2083 0.930 . S
C2081 C2078 1.348 . S
C2081 C2079 1.356 . S
H2082 C2076 0.930 . S
H2083 C2080 0.930 . S
O2084 Li2024 1.956 . S
O2084 Li2025 1.970 . S
O2084 Li2026 1.961 . S
O2084 C2028 1.325 . S
O2085 Li2024 1.970 . S
O2085 Li2025 1.956 . S
O2085 Li2027 1.961 . S
O2085 C2034 1.325 . S
O2086 Li2024 1.961 . S
O2086 Li2026 1.956 . S
O2086 Li2027 1.970 . S
O2086 C2056 1.325 . S
O2087 Li2025 1.961 . S
O2087 Li2026 1.970 . S
O2087 Li2027 1.956 . S
O2087 C2062 1.325 . S
H2088 C2030 0.929 . S
H2089 C2031 0.930 . S
H2090 C2032 0.930 . S
H2091 C2033 0.930 . S
H2092 C2035 0.930 . S
H2093 C2037 0.929 . S
H2094 C2038 0.930 . S
H2095 C2039 0.930 . S
H2096 C2042 0.930 . S
H2097 C2045 0.929 . S
H2098 C2050 0.929 . S
H2099 C2051 0.930 . S
H2100 C2058 0.929 . S
H2101 C2059 0.930 . S
H2102 C2060 0.930 . S
H2103 C2061 0.930 . S
H2104 C2063 0.929 . S
H2105 C2064 0.930 . S
H2106 C2065 0.930 . S
H2107 C2066 0.930 . S
H2108 C2070 0.929 . S
H2109 C2072 0.930 . S
H2110 C2078 0.929 . S
H2111 C2079 0.930 . S
Li2112 N2129 1.990 . S
Li2112 O2172 1.956 . S
Li2112 O2173 1.970 . S
Li2112 O2174 1.961 . S
Li2113 N2137 1.990 . S
Li2113 O2172 1.970 . S
Li2113 O2173 1.956 . S
Li2113 O2175 1.961 . S
Li2114 N2159 1.990 . S
Li2114 O2172 1.961 . S
Li2114 O2174 1.956 . S
Li2114 O2175 1.970 . S
Li2115 N2165 1.990 . S
Li2115 O2173 1.961 . S
Li2115 O2174 1.970 . S
Li2115 O2175 1.956 . S
C2116 C2118 1.348 . S
C2116 C2119 1.356 . S
C2116 O2172 1.325 . S
N2117 C2120 1.314 . S
N2117 C2121 1.279 . S
C2118 C2116 1.348 . S
C2118 C2120 1.353 . S
C2118 H2176 0.929 . S
C2119 C2116 1.356 . S
C2119 C2121 1.358 . S
C2119 H2177 0.930 . S
C2120 N2117 1.314 . S
C2120 C2118 1.353 . S
C2120 H2178 0.930 . S
C2121 N2117 1.279 . S
C2121 C2119 1.358 . S
C2121 H2179 0.930 . S
C2122 C2125 1.348 . S
C2122 C2126 1.356 . S
C2122 O2173 1.325 . S
C2123 N2124 1.279 . S
C2123 C2126 1.358 . S
C2123 H2180 0.930 . S
N2124 C2123 1.279 . S
N2124 C2127 1.314 . S
C2125 C2122 1.348 . S
C2125 C2127 1.353 . S
C2125 H2181 0.929 . S
C2126 C2122 1.356 . S
C2126 C2123 1.358 . S
C2126 H2182 0.930 . S
C2127 N2124 1.314 . S
C2127 C2125 1.353 . S
C2127 H2183 0.930 . S
C2128 N2129 1.314 . S
C2128 C2133 1.353 . S
C2128 H2134 0.930 . S
N2129 Li2112 1.990 . S
N2129 C2128 1.314 . S
N2129 C2131 1.279 . S
C2130 C2131 1.358 . S
C2130 C2132 1.356 . S
C2130 H2184 0.930 . S
C2131 N2129 1.279 . S
C2131 C2130 1.358 . S
C2131 H2135 0.930 . S
C2132 C2130 1.356 . S
C2132 C2133 1.348 . S
C2133 C2128 1.353 . S
C2133 C2132 1.348 . S
C2133 H2185 0.929 . S
H2134 C2128 0.930 . S
H2135 C2131 0.930 . S
C2136 N2137 1.314 . S
C2136 C2138 1.353 . S
C2136 H2142 0.930 . S
N2137 Li2113 1.990 . S
N2137 C2136 1.314 . S
N2137 C2140 1.279 . S
C2138 C2136 1.353 . S
C2138 C2141 1.348 . S
C2138 H2186 0.929 . S
C2139 C2140 1.358 . S
C2139 C2141 1.356 . S
C2139 H2187 0.930 . S
C2140 N2137 1.279 . S
C2140 C2139 1.358 . S
C2140 H2143 0.930 . S
C2141 C2138 1.348 . S
C2141 C2139 1.356 . S
H2142 C2136 0.930 . S
H2143 C2140 0.930 . S
C2144 C2146 1.348 . S
C2144 C2147 1.356 . S
C2144 O2174 1.325 . S
N2145 C2148 1.314 . S
N2145 C2149 1.279 . S
C2146 C2144 1.348 . S
C2146 C2148 1.353 . S
C2146 H2188 0.929 . S
C2147 C2144 1.356 . S
C2147 C2149 1.358 . S
C2147 H2189 0.930 . S
C2148 N2145 1.314 . S
C2148 C2146 1.353 . S
C2148 H2190 0.930 . S
C2149 N2145 1.279 . S
C2149 C2147 1.358 . S
C2149 H2191 0.930 . S
C2150 C2151 1.348 . S
C2150 C2152 1.356 . S
C2150 O2175 1.325 . S
C2151 C2150 1.348 . S
C2151 C2153 1.353 . S
C2151 H2192 0.929 . S
C2152 C2150 1.356 . S
C2152 C2154 1.358 . S
C2152 H2193 0.930 . S
C2153 C2151 1.353 . S
C2153 N2155 1.314 . S
C2153 H2194 0.930 . S
C2154 C2152 1.358 . S
C2154 N2155 1.279 . S
C2154 H2195 0.930 . S
N2155 C2153 1.314 . S
N2155 C2154 1.279 . S
C2156 C2158 1.353 . S
C2156 N2159 1.314 . S
C2156 H2162 0.930 . S
C2157 N2159 1.279 . S
C2157 C2160 1.358 . S
C2157 H2163 0.930 . S
C2158 C2156 1.353 . S
C2158 C2161 1.348 . S
C2158 H2196 0.929 . S
N2159 Li2114 1.990 . S
N2159 C2156 1.314 . S
N2159 C2157 1.279 . S
C2160 C2157 1.358 . S
C2160 C2161 1.356 . S
C2160 H2197 0.930 . S
C2161 C2158 1.348 . S
C2161 C2160 1.356 . S
H2162 C2156 0.930 . S
H2163 C2157 0.930 . S
C2164 N2165 1.314 . S
C2164 C2166 1.353 . S
C2164 H2170 0.930 . S
N2165 Li2115 1.990 . S
N2165 C2164 1.314 . S
N2165 C2168 1.279 . S
C2166 C2164 1.353 . S
C2166 C2169 1.348 . S
C2166 H2198 0.929 . S
C2167 C2168 1.358 . S
C2167 C2169 1.356 . S
C2167 H2199 0.930 . S
C2168 N2165 1.279 . S
C2168 C2167 1.358 . S
C2168 H2171 0.930 . S
C2169 C2166 1.348 . S
C2169 C2167 1.356 . S
H2170 C2164 0.930 . S
H2171 C2168 0.930 . S
O2172 Li2112 1.956 . S
O2172 Li2113 1.970 . S
O2172 Li2114 1.961 . S
O2172 C2116 1.325 . S
O2173 Li2112 1.970 . S
O2173 Li2113 1.956 . S
O2173 Li2115 1.961 . S
O2173 C2122 1.325 . S
O2174 Li2112 1.961 . S
O2174 Li2114 1.956 . S
O2174 Li2115 1.970 . S
O2174 C2144 1.325 . S
O2175 Li2113 1.961 . S
O2175 Li2114 1.970 . S
O2175 Li2115 1.956 . S
O2175 C2150 1.325 . S
H2176 C2118 0.929 . S
H2177 C2119 0.930 . S
H2178 C2120 0.930 . S
H2179 C2121 0.930 . S
H2180 C2123 0.930 . S
H2181 C2125 0.929 . S
H2182 C2126 0.930 . S
H2183 C2127 0.930 . S
H2184 C2130 0.930 . S
H2185 C2133 0.929 . S
H2186 C2138 0.929 . S
H2187 C2139 0.930 . S
H2188 C2146 0.929 . S
H2189 C2147 0.930 . S
H2190 C2148 0.930 . S
H2191 C2149 0.930 . S
H2192 C2151 0.929 . S
H2193 C2152 0.930 . S
H2194 C2153 0.930 . S
H2195 C2154 0.930 . S
H2196 C2158 0.929 . S
H2197 C2160 0.930 . S
H2198 C2166 0.929 . S
H2199 C2167 0.930 . S
Li2200 N2217 1.990 . S
Li2200 O2260 1.956 . S
Li2200 O2261 1.970 . S
Li2200 O2262 1.961 . S
Li2201 N2225 1.990 . S
Li2201 O2260 1.970 . S
Li2201 O2261 1.956 . S
Li2201 O2263 1.961 . S
Li2202 N2247 1.990 . S
Li2202 O2260 1.961 . S
Li2202 O2262 1.956 . S
Li2202 O2263 1.970 . S
Li2203 N2253 1.990 . S
Li2203 O2261 1.961 . S
Li2203 O2262 1.970 . S
Li2203 O2263 1.956 . S
C2204 C2206 1.348 . S
C2204 C2207 1.356 . S
C2204 O2260 1.325 . S
N2205 C2208 1.314 . S
N2205 C2209 1.279 . S
C2206 C2204 1.348 . S
C2206 C2208 1.353 . S
C2206 H2264 0.929 . S
C2207 C2204 1.356 . S
C2207 C2209 1.358 . S
C2207 H2265 0.930 . S
C2208 N2205 1.314 . S
C2208 C2206 1.353 . S
C2208 H2266 0.930 . S
C2209 N2205 1.279 . S
C2209 C2207 1.358 . S
C2209 H2267 0.930 . S
C2210 C2213 1.348 . S
C2210 C2214 1.356 . S
C2210 O2261 1.325 . S
C2211 N2212 1.279 . S
C2211 C2214 1.358 . S
C2211 H2268 0.930 . S
N2212 C2211 1.279 . S
N2212 C2215 1.314 . S
C2213 C2210 1.348 . S
C2213 C2215 1.353 . S
C2213 H2269 0.929 . S
C2214 C2210 1.356 . S
C2214 C2211 1.358 . S
C2214 H2270 0.930 . S
C2215 N2212 1.314 . S
C2215 C2213 1.353 . S
C2215 H2271 0.930 . S
C2216 N2217 1.314 . S
C2216 C2221 1.353 . S
C2216 H2222 0.930 . S
N2217 Li2200 1.990 . S
N2217 C2216 1.314 . S
N2217 C2219 1.279 . S
C2218 C2219 1.358 . S
C2218 C2220 1.356 . S
C2218 H2272 0.930 . S
C2219 N2217 1.279 . S
C2219 C2218 1.358 . S
C2219 H2223 0.930 . S
C2220 C2218 1.356 . S
C2220 C2221 1.348 . S
C2221 C2216 1.353 . S
C2221 C2220 1.348 . S
C2221 H2273 0.929 . S
H2222 C2216 0.930 . S
H2223 C2219 0.930 . S
C2224 N2225 1.314 . S
C2224 C2226 1.353 . S
C2224 H2230 0.930 . S
N2225 Li2201 1.990 . S
N2225 C2224 1.314 . S
N2225 C2228 1.279 . S
C2226 C2224 1.353 . S
C2226 C2229 1.348 . S
C2226 H2274 0.929 . S
C2227 C2228 1.358 . S
C2227 C2229 1.356 . S
C2227 H2275 0.930 . S
C2228 N2225 1.279 . S
C2228 C2227 1.358 . S
C2228 H2231 0.930 . S
C2229 C2226 1.348 . S
C2229 C2227 1.356 . S
H2230 C2224 0.930 . S
H2231 C2228 0.930 . S
C2232 C2234 1.348 . S
C2232 C2235 1.356 . S
C2232 O2262 1.325 . S
N2233 C2236 1.314 . S
N2233 C2237 1.279 . S
C2234 C2232 1.348 . S
C2234 C2236 1.353 . S
C2234 H2276 0.929 . S
C2235 C2232 1.356 . S
C2235 C2237 1.358 . S
C2235 H2277 0.930 . S
C2236 N2233 1.314 . S
C2236 C2234 1.353 . S
C2236 H2278 0.930 . S
C2237 N2233 1.279 . S
C2237 C2235 1.358 . S
C2237 H2279 0.930 . S
C2238 C2239 1.348 . S
C2238 C2240 1.356 . S
C2238 O2263 1.325 . S
C2239 C2238 1.348 . S
C2239 C2241 1.353 . S
C2239 H2280 0.929 . S
C2240 C2238 1.356 . S
C2240 C2242 1.358 . S
C2240 H2281 0.930 . S
C2241 C2239 1.353 . S
C2241 N2243 1.314 . S
C2241 H2282 0.930 . S
C2242 C2240 1.358 . S
C2242 N2243 1.279 . S
C2242 H2283 0.930 . S
N2243 C2241 1.314 . S
N2243 C2242 1.279 . S
C2244 C2246 1.353 . S
C2244 N2247 1.314 . S
C2244 H2250 0.930 . S
C2245 N2247 1.279 . S
C2245 C2248 1.358 . S
C2245 H2251 0.930 . S
C2246 C2244 1.353 . S
C2246 C2249 1.348 . S
C2246 H2284 0.929 . S
N2247 Li2202 1.990 . S
N2247 C2244 1.314 . S
N2247 C2245 1.279 . S
C2248 C2245 1.358 . S
C2248 C2249 1.356 . S
C2248 H2285 0.930 . S
C2249 C2246 1.348 . S
C2249 C2248 1.356 . S
H2250 C2244 0.930 . S
H2251 C2245 0.930 . S
C2252 N2253 1.314 . S
C2252 C2254 1.353 . S
C2252 H2258 0.930 . S
N2253 Li2203 1.990 . S
N2253 C2252 1.314 . S
N2253 C2256 1.279 . S
C2254 C2252 1.353 . S
C2254 C2257 1.348 . S
C2254 H2286 0.929 . S
C2255 C2256 1.358 . S
C2255 C2257 1.356 . S
C2255 H2287 0.930 . S
C2256 N2253 1.279 . S
C2256 C2255 1.358 . S
C2256 H2259 0.930 . S
C2257 C2254 1.348 . S
C2257 C2255 1.356 . S
H2258 C2252 0.930 . S
H2259 C2256 0.930 . S
O2260 Li2200 1.956 . S
O2260 Li2201 1.970 . S
O2260 Li2202 1.961 . S
O2260 C2204 1.325 . S
O2261 Li2200 1.970 . S
O2261 Li2201 1.956 . S
O2261 Li2203 1.961 . S
O2261 C2210 1.325 . S
O2262 Li2200 1.961 . S
O2262 Li2202 1.956 . S
O2262 Li2203 1.970 . S
O2262 C2232 1.325 . S
O2263 Li2201 1.961 . S
O2263 Li2202 1.970 . S
O2263 Li2203 1.956 . S
O2263 C2238 1.325 . S
H2264 C2206 0.929 . S
H2265 C2207 0.930 . S
H2266 C2208 0.930 . S
H2267 C2209 0.930 . S
H2268 C2211 0.930 . S
H2269 C2213 0.929 . S
H2270 C2214 0.930 . S
H2271 C2215 0.930 . S
H2272 C2218 0.930 . S
H2273 C2221 0.929 . S
H2274 C2226 0.929 . S
H2275 C2227 0.930 . S
H2276 C2234 0.929 . S
H2277 C2235 0.930 . S
H2278 C2236 0.930 . S
H2279 C2237 0.930 . S
H2280 C2239 0.929 . S
H2281 C2240 0.930 . S
H2282 C2241 0.930 . S
H2283 C2242 0.930 . S
H2284 C2246 0.929 . S
H2285 C2248 0.930 . S
H2286 C2254 0.929 . S
H2287 C2255 0.930 . S
Li2288 N2305 1.990 . S
Li2288 O2348 1.956 . S
Li2288 O2349 1.970 . S
Li2288 O2350 1.961 . S
Li2289 N2313 1.990 . S
Li2289 O2348 1.970 . S
Li2289 O2349 1.956 . S
Li2289 O2351 1.961 . S
Li2290 N2335 1.990 . S
Li2290 O2348 1.961 . S
Li2290 O2350 1.956 . S
Li2290 O2351 1.970 . S
Li2291 N2341 1.990 . S
Li2291 O2349 1.961 . S
Li2291 O2350 1.970 . S
Li2291 O2351 1.956 . S
C2292 C2294 1.348 . S
C2292 C2295 1.356 . S
C2292 O2348 1.325 . S
N2293 C2296 1.314 . S
N2293 C2297 1.279 . S
C2294 C2292 1.348 . S
C2294 C2296 1.353 . S
C2294 H2352 0.929 . S
C2295 C2292 1.356 . S
C2295 C2297 1.358 . S
C2295 H2353 0.930 . S
C2296 N2293 1.314 . S
C2296 C2294 1.353 . S
C2296 H2354 0.930 . S
C2297 N2293 1.279 . S
C2297 C2295 1.358 . S
C2297 H2355 0.930 . S
C2298 C2301 1.348 . S
C2298 C2302 1.356 . S
C2298 O2349 1.325 . S
C2299 N2300 1.279 . S
C2299 C2302 1.358 . S
C2299 H2356 0.930 . S
N2300 C2299 1.279 . S
N2300 C2303 1.314 . S
C2301 C2298 1.348 . S
C2301 C2303 1.353 . S
C2301 H2357 0.929 . S
C2302 C2298 1.356 . S
C2302 C2299 1.358 . S
C2302 H2358 0.930 . S
C2303 N2300 1.314 . S
C2303 C2301 1.353 . S
C2303 H2359 0.930 . S
C2304 N2305 1.314 . S
C2304 C2309 1.353 . S
C2304 H2310 0.930 . S
N2305 Li2288 1.990 . S
N2305 C2304 1.314 . S
N2305 C2307 1.279 . S
C2306 C2307 1.358 . S
C2306 C2308 1.356 . S
C2306 H2360 0.930 . S
C2307 N2305 1.279 . S
C2307 C2306 1.358 . S
C2307 H2311 0.930 . S
C2308 C2306 1.356 . S
C2308 C2309 1.348 . S
C2309 C2304 1.353 . S
C2309 C2308 1.348 . S
C2309 H2361 0.929 . S
H2310 C2304 0.930 . S
H2311 C2307 0.930 . S
C2312 N2313 1.314 . S
C2312 C2314 1.353 . S
C2312 H2318 0.930 . S
N2313 Li2289 1.990 . S
N2313 C2312 1.314 . S
N2313 C2316 1.279 . S
C2314 C2312 1.353 . S
C2314 C2317 1.348 . S
C2314 H2362 0.929 . S
C2315 C2316 1.358 . S
C2315 C2317 1.356 . S
C2315 H2363 0.930 . S
C2316 N2313 1.279 . S
C2316 C2315 1.358 . S
C2316 H2319 0.930 . S
C2317 C2314 1.348 . S
C2317 C2315 1.356 . S
H2318 C2312 0.930 . S
H2319 C2316 0.930 . S
C2320 C2322 1.348 . S
C2320 C2323 1.356 . S
C2320 O2350 1.325 . S
N2321 C2324 1.314 . S
N2321 C2325 1.279 . S
C2322 C2320 1.348 . S
C2322 C2324 1.353 . S
C2322 H2364 0.929 . S
C2323 C2320 1.356 . S
C2323 C2325 1.358 . S
C2323 H2365 0.930 . S
C2324 N2321 1.314 . S
C2324 C2322 1.353 . S
C2324 H2366 0.930 . S
C2325 N2321 1.279 . S
C2325 C2323 1.358 . S
C2325 H2367 0.930 . S
C2326 C2327 1.348 . S
C2326 C2328 1.356 . S
C2326 O2351 1.325 . S
C2327 C2326 1.348 . S
C2327 C2329 1.353 . S
C2327 H2368 0.929 . S
C2328 C2326 1.356 . S
C2328 C2330 1.358 . S
C2328 H2369 0.930 . S
C2329 C2327 1.353 . S
C2329 N2331 1.314 . S
C2329 H2370 0.930 . S
C2330 C2328 1.358 . S
C2330 N2331 1.279 . S
C2330 H2371 0.930 . S
N2331 C2329 1.314 . S
N2331 C2330 1.279 . S
C2332 C2334 1.353 . S
C2332 N2335 1.314 . S
C2332 H2338 0.930 . S
C2333 N2335 1.279 . S
C2333 C2336 1.358 . S
C2333 H2339 0.930 . S
C2334 C2332 1.353 . S
C2334 C2337 1.348 . S
C2334 H2372 0.929 . S
N2335 Li2290 1.990 . S
N2335 C2332 1.314 . S
N2335 C2333 1.279 . S
C2336 C2333 1.358 . S
C2336 C2337 1.356 . S
C2336 H2373 0.930 . S
C2337 C2334 1.348 . S
C2337 C2336 1.356 . S
H2338 C2332 0.930 . S
H2339 C2333 0.930 . S
C2340 N2341 1.314 . S
C2340 C2342 1.353 . S
C2340 H2346 0.930 . S
N2341 Li2291 1.990 . S
N2341 C2340 1.314 . S
N2341 C2344 1.279 . S
C2342 C2340 1.353 . S
C2342 C2345 1.348 . S
C2342 H2374 0.929 . S
C2343 C2344 1.358 . S
C2343 C2345 1.356 . S
C2343 H2375 0.930 . S
C2344 N2341 1.279 . S
C2344 C2343 1.358 . S
C2344 H2347 0.930 . S
C2345 C2342 1.348 . S
C2345 C2343 1.356 . S
H2346 C2340 0.930 . S
H2347 C2344 0.930 . S
O2348 Li2288 1.956 . S
O2348 Li2289 1.970 . S
O2348 Li2290 1.961 . S
O2348 C2292 1.325 . S
O2349 Li2288 1.970 . S
O2349 Li2289 1.956 . S
O2349 Li2291 1.961 . S
O2349 C2298 1.325 . S
O2350 Li2288 1.961 . S
O2350 Li2290 1.956 . S
O2350 Li2291 1.970 . S
O2350 C2320 1.325 . S
O2351 Li2289 1.961 . S
O2351 Li2290 1.970 . S
O2351 Li2291 1.956 . S
O2351 C2326 1.325 . S
H2352 C2294 0.929 . S
H2353 C2295 0.930 . S
H2354 C2296 0.930 . S
H2355 C2297 0.930 . S
H2356 C2299 0.930 . S
H2357 C2301 0.929 . S
H2358 C2302 0.930 . S
H2359 C2303 0.930 . S
H2360 C2306 0.930 . S
H2361 C2309 0.929 . S
H2362 C2314 0.929 . S
H2363 C2315 0.930 . S
H2364 C2322 0.929 . S
H2365 C2323 0.930 . S
H2366 C2324 0.930 . S
H2367 C2325 0.930 . S
H2368 C2327 0.929 . S
H2369 C2328 0.930 . S
H2370 C2329 0.930 . S
H2371 C2330 0.930 . S
H2372 C2334 0.929 . S
H2373 C2336 0.930 . S
H2374 C2342 0.929 . S
H2375 C2343 0.930 . S
Li2376 N2393 1.990 . S
Li2376 O2436 1.956 . S
Li2376 O2437 1.970 . S
Li2376 O2438 1.961 . S
Li2377 N2401 1.990 . S
Li2377 O2436 1.970 . S
Li2377 O2437 1.956 . S
Li2377 O2439 1.961 . S
Li2378 N2423 1.990 . S
Li2378 O2436 1.961 . S
Li2378 O2438 1.956 . S
Li2378 O2439 1.970 . S
Li2379 N2429 1.990 . S
Li2379 O2437 1.961 . S
Li2379 O2438 1.970 . S
Li2379 O2439 1.956 . S
C2380 C2382 1.348 . S
C2380 C2383 1.356 . S
C2380 O2436 1.325 . S
N2381 C2384 1.314 . S
N2381 C2385 1.279 . S
C2382 C2380 1.348 . S
C2382 C2384 1.353 . S
C2382 H2440 0.929 . S
C2383 C2380 1.356 . S
C2383 C2385 1.358 . S
C2383 H2441 0.930 . S
C2384 N2381 1.314 . S
C2384 C2382 1.353 . S
C2384 H2442 0.930 . S
C2385 N2381 1.279 . S
C2385 C2383 1.358 . S
C2385 H2443 0.930 . S
C2386 C2389 1.348 . S
C2386 C2390 1.356 . S
C2386 O2437 1.325 . S
C2387 N2388 1.279 . S
C2387 C2390 1.358 . S
C2387 H2444 0.930 . S
N2388 C2387 1.279 . S
N2388 C2391 1.314 . S
C2389 C2386 1.348 . S
C2389 C2391 1.353 . S
C2389 H2445 0.929 . S
C2390 C2386 1.356 . S
C2390 C2387 1.358 . S
C2390 H2446 0.930 . S
C2391 N2388 1.314 . S
C2391 C2389 1.353 . S
C2391 H2447 0.930 . S
C2392 N2393 1.314 . S
C2392 C2397 1.353 . S
C2392 H2398 0.930 . S
N2393 Li2376 1.990 . S
N2393 C2392 1.314 . S
N2393 C2395 1.279 . S
C2394 C2395 1.358 . S
C2394 C2396 1.356 . S
C2394 H2448 0.930 . S
C2395 N2393 1.279 . S
C2395 C2394 1.358 . S
C2395 H2399 0.930 . S
C2396 C2394 1.356 . S
C2396 C2397 1.348 . S
C2397 C2392 1.353 . S
C2397 C2396 1.348 . S
C2397 H2449 0.929 . S
H2398 C2392 0.930 . S
H2399 C2395 0.930 . S
C2400 N2401 1.314 . S
C2400 C2402 1.353 . S
C2400 H2406 0.930 . S
N2401 Li2377 1.990 . S
N2401 C2400 1.314 . S
N2401 C2404 1.279 . S
C2402 C2400 1.353 . S
C2402 C2405 1.348 . S
C2402 H2450 0.929 . S
C2403 C2404 1.358 . S
C2403 C2405 1.356 . S
C2403 H2451 0.930 . S
C2404 N2401 1.279 . S
C2404 C2403 1.358 . S
C2404 H2407 0.930 . S
C2405 C2402 1.348 . S
C2405 C2403 1.356 . S
H2406 C2400 0.930 . S
H2407 C2404 0.930 . S
C2408 C2410 1.348 . S
C2408 C2411 1.356 . S
C2408 O2438 1.325 . S
N2409 C2412 1.314 . S
N2409 C2413 1.279 . S
C2410 C2408 1.348 . S
C2410 C2412 1.353 . S
C2410 H2452 0.929 . S
C2411 C2408 1.356 . S
C2411 C2413 1.358 . S
C2411 H2453 0.930 . S
C2412 N2409 1.314 . S
C2412 C2410 1.353 . S
C2412 H2454 0.930 . S
C2413 N2409 1.279 . S
C2413 C2411 1.358 . S
C2413 H2455 0.930 . S
C2414 C2415 1.348 . S
C2414 C2416 1.356 . S
C2414 O2439 1.325 . S
C2415 C2414 1.348 . S
C2415 C2417 1.353 . S
C2415 H2456 0.929 . S
C2416 C2414 1.356 . S
C2416 C2418 1.358 . S
C2416 H2457 0.930 . S
C2417 C2415 1.353 . S
C2417 N2419 1.314 . S
C2417 H2458 0.930 . S
C2418 C2416 1.358 . S
C2418 N2419 1.279 . S
C2418 H2459 0.930 . S
N2419 C2417 1.314 . S
N2419 C2418 1.279 . S
C2420 C2422 1.353 . S
C2420 N2423 1.314 . S
C2420 H2426 0.930 . S
C2421 N2423 1.279 . S
C2421 C2424 1.358 . S
C2421 H2427 0.930 . S
C2422 C2420 1.353 . S
C2422 C2425 1.348 . S
C2422 H2460 0.929 . S
N2423 Li2378 1.990 . S
N2423 C2420 1.314 . S
N2423 C2421 1.279 . S
C2424 C2421 1.358 . S
C2424 C2425 1.356 . S
C2424 H2461 0.930 . S
C2425 C2422 1.348 . S
C2425 C2424 1.356 . S
H2426 C2420 0.930 . S
H2427 C2421 0.930 . S
C2428 N2429 1.314 . S
C2428 C2430 1.353 . S
C2428 H2434 0.930 . S
N2429 Li2379 1.990 . S
N2429 C2428 1.314 . S
N2429 C2432 1.279 . S
C2430 C2428 1.353 . S
C2430 C2433 1.348 . S
C2430 H2462 0.929 . S
C2431 C2432 1.358 . S
C2431 C2433 1.356 . S
C2431 H2463 0.930 . S
C2432 N2429 1.279 . S
C2432 C2431 1.358 . S
C2432 H2435 0.930 . S
C2433 C2430 1.348 . S
C2433 C2431 1.356 . S
H2434 C2428 0.930 . S
H2435 C2432 0.930 . S
O2436 Li2376 1.956 . S
O2436 Li2377 1.970 . S
O2436 Li2378 1.961 . S
O2436 C2380 1.325 . S
O2437 Li2376 1.970 . S
O2437 Li2377 1.956 . S
O2437 Li2379 1.961 . S
O2437 C2386 1.325 . S
O2438 Li2376 1.961 . S
O2438 Li2378 1.956 . S
O2438 Li2379 1.970 . S
O2438 C2408 1.325 . S
O2439 Li2377 1.961 . S
O2439 Li2378 1.970 . S
O2439 Li2379 1.956 . S
O2439 C2414 1.325 . S
H2440 C2382 0.929 . S
H2441 C2383 0.930 . S
H2442 C2384 0.930 . S
H2443 C2385 0.930 . S
H2444 C2387 0.930 . S
H2445 C2389 0.929 . S
H2446 C2390 0.930 . S
H2447 C2391 0.930 . S
H2448 C2394 0.930 . S
H2449 C2397 0.929 . S
H2450 C2402 0.929 . S
H2451 C2403 0.930 . S
H2452 C2410 0.929 . S
H2453 C2411 0.930 . S
H2454 C2412 0.930 . S
H2455 C2413 0.930 . S
H2456 C2415 0.929 . S
H2457 C2416 0.930 . S
H2458 C2417 0.930 . S
H2459 C2418 0.930 . S
H2460 C2422 0.929 . S
H2461 C2424 0.930 . S
H2462 C2430 0.929 . S
H2463 C2431 0.930 . S
Li2464 N2481 1.990 . S
Li2464 O2524 1.956 . S
Li2464 O2525 1.970 . S
Li2464 O2526 1.961 . S
Li2465 N2489 1.990 . S
Li2465 O2524 1.970 . S
Li2465 O2525 1.956 . S
Li2465 O2527 1.961 . S
Li2466 N2511 1.990 . S
Li2466 O2524 1.961 . S
Li2466 O2526 1.956 . S
Li2466 O2527 1.970 . S
Li2467 N2517 1.990 . S
Li2467 O2525 1.961 . S
Li2467 O2526 1.970 . S
Li2467 O2527 1.956 . S
C2468 C2470 1.348 . S
C2468 C2471 1.356 . S
C2468 O2524 1.325 . S
N2469 C2472 1.314 . S
N2469 C2473 1.279 . S
C2470 C2468 1.348 . S
C2470 C2472 1.353 . S
C2470 H2528 0.929 . S
C2471 C2468 1.356 . S
C2471 C2473 1.358 . S
C2471 H2529 0.930 . S
C2472 N2469 1.314 . S
C2472 C2470 1.353 . S
C2472 H2530 0.930 . S
C2473 N2469 1.279 . S
C2473 C2471 1.358 . S
C2473 H2531 0.930 . S
C2474 C2477 1.348 . S
C2474 C2478 1.356 . S
C2474 O2525 1.325 . S
C2475 N2476 1.279 . S
C2475 C2478 1.358 . S
C2475 H2532 0.930 . S
N2476 C2475 1.279 . S
N2476 C2479 1.314 . S
C2477 C2474 1.348 . S
C2477 C2479 1.353 . S
C2477 H2533 0.929 . S
C2478 C2474 1.356 . S
C2478 C2475 1.358 . S
C2478 H2534 0.930 . S
C2479 N2476 1.314 . S
C2479 C2477 1.353 . S
C2479 H2535 0.930 . S
C2480 N2481 1.314 . S
C2480 C2485 1.353 . S
C2480 H2486 0.930 . S
N2481 Li2464 1.990 . S
N2481 C2480 1.314 . S
N2481 C2483 1.279 . S
C2482 C2483 1.358 . S
C2482 C2484 1.356 . S
C2482 H2536 0.930 . S
C2483 N2481 1.279 . S
C2483 C2482 1.358 . S
C2483 H2487 0.930 . S
C2484 C2482 1.356 . S
C2484 C2485 1.348 . S
C2485 C2480 1.353 . S
C2485 C2484 1.348 . S
C2485 H2537 0.929 . S
H2486 C2480 0.930 . S
H2487 C2483 0.930 . S
C2488 N2489 1.314 . S
C2488 C2490 1.353 . S
C2488 H2494 0.930 . S
N2489 Li2465 1.990 . S
N2489 C2488 1.314 . S
N2489 C2492 1.279 . S
C2490 C2488 1.353 . S
C2490 C2493 1.348 . S
C2490 H2538 0.929 . S
C2491 C2492 1.358 . S
C2491 C2493 1.356 . S
C2491 H2539 0.930 . S
C2492 N2489 1.279 . S
C2492 C2491 1.358 . S
C2492 H2495 0.930 . S
C2493 C2490 1.348 . S
C2493 C2491 1.356 . S
H2494 C2488 0.930 . S
H2495 C2492 0.930 . S
C2496 C2498 1.348 . S
C2496 C2499 1.356 . S
C2496 O2526 1.325 . S
N2497 C2500 1.314 . S
N2497 C2501 1.279 . S
C2498 C2496 1.348 . S
C2498 C2500 1.353 . S
C2498 H2540 0.929 . S
C2499 C2496 1.356 . S
C2499 C2501 1.358 . S
C2499 H2541 0.930 . S
C2500 N2497 1.314 . S
C2500 C2498 1.353 . S
C2500 H2542 0.930 . S
C2501 N2497 1.279 . S
C2501 C2499 1.358 . S
C2501 H2543 0.930 . S
C2502 C2503 1.348 . S
C2502 C2504 1.356 . S
C2502 O2527 1.325 . S
C2503 C2502 1.348 . S
C2503 C2505 1.353 . S
C2503 H2544 0.929 . S
C2504 C2502 1.356 . S
C2504 C2506 1.358 . S
C2504 H2545 0.930 . S
C2505 C2503 1.353 . S
C2505 N2507 1.314 . S
C2505 H2546 0.930 . S
C2506 C2504 1.358 . S
C2506 N2507 1.279 . S
C2506 H2547 0.930 . S
N2507 C2505 1.314 . S
N2507 C2506 1.279 . S
C2508 C2510 1.353 . S
C2508 N2511 1.314 . S
C2508 H2514 0.930 . S
C2509 N2511 1.279 . S
C2509 C2512 1.358 . S
C2509 H2515 0.930 . S
C2510 C2508 1.353 . S
C2510 C2513 1.348 . S
C2510 H2548 0.929 . S
N2511 Li2466 1.990 . S
N2511 C2508 1.314 . S
N2511 C2509 1.279 . S
C2512 C2509 1.358 . S
C2512 C2513 1.356 . S
C2512 H2549 0.930 . S
C2513 C2510 1.348 . S
C2513 C2512 1.356 . S
H2514 C2508 0.930 . S
H2515 C2509 0.930 . S
C2516 N2517 1.314 . S
C2516 C2518 1.353 . S
C2516 H2522 0.930 . S
N2517 Li2467 1.990 . S
N2517 C2516 1.314 . S
N2517 C2520 1.279 . S
C2518 C2516 1.353 . S
C2518 C2521 1.348 . S
C2518 H2550 0.929 . S
C2519 C2520 1.358 . S
C2519 C2521 1.356 . S
C2519 H2551 0.930 . S
C2520 N2517 1.279 . S
C2520 C2519 1.358 . S
C2520 H2523 0.930 . S
C2521 C2518 1.348 . S
C2521 C2519 1.356 . S
H2522 C2516 0.930 . S
H2523 C2520 0.930 . S
O2524 Li2464 1.956 . S
O2524 Li2465 1.970 . S
O2524 Li2466 1.961 . S
O2524 C2468 1.325 . S
O2525 Li2464 1.970 . S
O2525 Li2465 1.956 . S
O2525 Li2467 1.961 . S
O2525 C2474 1.325 . S
O2526 Li2464 1.961 . S
O2526 Li2466 1.956 . S
O2526 Li2467 1.970 . S
O2526 C2496 1.325 . S
O2527 Li2465 1.961 . S
O2527 Li2466 1.970 . S
O2527 Li2467 1.956 . S
O2527 C2502 1.325 . S
H2528 C2470 0.929 . S
H2529 C2471 0.930 . S
H2530 C2472 0.930 . S
H2531 C2473 0.930 . S
H2532 C2475 0.930 . S
H2533 C2477 0.929 . S
H2534 C2478 0.930 . S
H2535 C2479 0.930 . S
H2536 C2482 0.930 . S
H2537 C2485 0.929 . S
H2538 C2490 0.929 . S
H2539 C2491 0.930 . S
H2540 C2498 0.929 . S
H2541 C2499 0.930 . S
H2542 C2500 0.930 . S
H2543 C2501 0.930 . S
H2544 C2503 0.929 . S
H2545 C2504 0.930 . S
H2546 C2505 0.930 . S
H2547 C2506 0.930 . S
H2548 C2510 0.929 . S
H2549 C2512 0.930 . S
H2550 C2518 0.929 . S
H2551 C2519 0.930 . S
Li2552 N2569 1.990 . S
Li2552 O2612 1.956 . S
Li2552 O2613 1.970 . S
Li2552 O2614 1.961 . S
Li2553 N2577 1.990 . S
Li2553 O2612 1.970 . S
Li2553 O2613 1.956 . S
Li2553 O2615 1.961 . S
Li2554 N2599 1.990 . S
Li2554 O2612 1.961 . S
Li2554 O2614 1.956 . S
Li2554 O2615 1.970 . S
Li2555 N2605 1.990 . S
Li2555 O2613 1.961 . S
Li2555 O2614 1.970 . S
Li2555 O2615 1.956 . S
C2556 C2558 1.348 . S
C2556 C2559 1.356 . S
C2556 O2612 1.325 . S
N2557 C2560 1.314 . S
N2557 C2561 1.279 . S
C2558 C2556 1.348 . S
C2558 C2560 1.353 . S
C2558 H2616 0.929 . S
C2559 C2556 1.356 . S
C2559 C2561 1.358 . S
C2559 H2617 0.930 . S
C2560 N2557 1.314 . S
C2560 C2558 1.353 . S
C2560 H2618 0.930 . S
C2561 N2557 1.279 . S
C2561 C2559 1.358 . S
C2561 H2619 0.930 . S
C2562 C2565 1.348 . S
C2562 C2566 1.356 . S
C2562 O2613 1.325 . S
C2563 N2564 1.279 . S
C2563 C2566 1.358 . S
C2563 H2620 0.930 . S
N2564 C2563 1.279 . S
N2564 C2567 1.314 . S
C2565 C2562 1.348 . S
C2565 C2567 1.353 . S
C2565 H2621 0.929 . S
C2566 C2562 1.356 . S
C2566 C2563 1.358 . S
C2566 H2622 0.930 . S
C2567 N2564 1.314 . S
C2567 C2565 1.353 . S
C2567 H2623 0.930 . S
C2568 N2569 1.314 . S
C2568 C2573 1.353 . S
C2568 H2574 0.930 . S
N2569 Li2552 1.990 . S
N2569 C2568 1.314 . S
N2569 C2571 1.279 . S
C2570 C2571 1.358 . S
C2570 C2572 1.356 . S
C2570 H2624 0.930 . S
C2571 N2569 1.279 . S
C2571 C2570 1.358 . S
C2571 H2575 0.930 . S
C2572 C2570 1.356 . S
C2572 C2573 1.348 . S
C2573 C2568 1.353 . S
C2573 C2572 1.348 . S
C2573 H2625 0.929 . S
H2574 C2568 0.930 . S
H2575 C2571 0.930 . S
C2576 N2577 1.314 . S
C2576 C2578 1.353 . S
C2576 H2582 0.930 . S
N2577 Li2553 1.990 . S
N2577 C2576 1.314 . S
N2577 C2580 1.279 . S
C2578 C2576 1.353 . S
C2578 C2581 1.348 . S
C2578 H2626 0.929 . S
C2579 C2580 1.358 . S
C2579 C2581 1.356 . S
C2579 H2627 0.930 . S
C2580 N2577 1.279 . S
C2580 C2579 1.358 . S
C2580 H2583 0.930 . S
C2581 C2578 1.348 . S
C2581 C2579 1.356 . S
H2582 C2576 0.930 . S
H2583 C2580 0.930 . S
C2584 C2586 1.348 . S
C2584 C2587 1.356 . S
C2584 O2614 1.325 . S
N2585 C2588 1.314 . S
N2585 C2589 1.279 . S
C2586 C2584 1.348 . S
C2586 C2588 1.353 . S
C2586 H2628 0.929 . S
C2587 C2584 1.356 . S
C2587 C2589 1.358 . S
C2587 H2629 0.930 . S
C2588 N2585 1.314 . S
C2588 C2586 1.353 . S
C2588 H2630 0.930 . S
C2589 N2585 1.279 . S
C2589 C2587 1.358 . S
C2589 H2631 0.930 . S
C2590 C2591 1.348 . S
C2590 C2592 1.356 . S
C2590 O2615 1.325 . S
C2591 C2590 1.348 . S
C2591 C2593 1.353 . S
C2591 H2632 0.929 . S
C2592 C2590 1.356 . S
C2592 C2594 1.358 . S
C2592 H2633 0.930 . S
C2593 C2591 1.353 . S
C2593 N2595 1.314 . S
C2593 H2634 0.930 . S
C2594 C2592 1.358 . S
C2594 N2595 1.279 . S
C2594 H2635 0.930 . S
N2595 C2593 1.314 . S
N2595 C2594 1.279 . S
C2596 C2598 1.353 . S
C2596 N2599 1.314 . S
C2596 H2602 0.930 . S
C2597 N2599 1.279 . S
C2597 C2600 1.358 . S
C2597 H2603 0.930 . S
C2598 C2596 1.353 . S
C2598 C2601 1.348 . S
C2598 H2636 0.929 . S
N2599 Li2554 1.990 . S
N2599 C2596 1.314 . S
N2599 C2597 1.279 . S
C2600 C2597 1.358 . S
C2600 C2601 1.356 . S
C2600 H2637 0.930 . S
C2601 C2598 1.348 . S
C2601 C2600 1.356 . S
H2602 C2596 0.930 . S
H2603 C2597 0.930 . S
C2604 N2605 1.314 . S
C2604 C2606 1.353 . S
C2604 H2610 0.930 . S
N2605 Li2555 1.990 . S
N2605 C2604 1.314 . S
N2605 C2608 1.279 . S
C2606 C2604 1.353 . S
C2606 C2609 1.348 . S
C2606 H2638 0.929 . S
C2607 C2608 1.358 . S
C2607 C2609 1.356 . S
C2607 H2639 0.930 . S
C2608 N2605 1.279 . S
C2608 C2607 1.358 . S
C2608 H2611 0.930 . S
C2609 C2606 1.348 . S
C2609 C2607 1.356 . S
H2610 C2604 0.930 . S
H2611 C2608 0.930 . S
O2612 Li2552 1.956 . S
O2612 Li2553 1.970 . S
O2612 Li2554 1.961 . S
O2612 C2556 1.325 . S
O2613 Li2552 1.970 . S
O2613 Li2553 1.956 . S
O2613 Li2555 1.961 . S
O2613 C2562 1.325 . S
O2614 Li2552 1.961 . S
O2614 Li2554 1.956 . S
O2614 Li2555 1.970 . S
O2614 C2584 1.325 . S
O2615 Li2553 1.961 . S
O2615 Li2554 1.970 . S
O2615 Li2555 1.956 . S
O2615 C2590 1.325 . S
H2616 C2558 0.929 . S
H2617 C2559 0.930 . S
H2618 C2560 0.930 . S
H2619 C2561 0.930 . S
H2620 C2563 0.930 . S
H2621 C2565 0.929 . S
H2622 C2566 0.930 . S
H2623 C2567 0.930 . S
H2624 C2570 0.930 . S
H2625 C2573 0.929 . S
H2626 C2578 0.929 . S
H2627 C2579 0.930 . S
H2628 C2586 0.929 . S
H2629 C2587 0.930 . S
H2630 C2588 0.930 . S
H2631 C2589 0.930 . S
H2632 C2591 0.929 . S
H2633 C2592 0.930 . S
H2634 C2593 0.930 . S
H2635 C2594 0.930 . S
H2636 C2598 0.929 . S
H2637 C2600 0.930 . S
H2638 C2606 0.929 . S
H2639 C2607 0.930 . S
Li2640 N2657 1.990 . S
Li2640 O2700 1.956 . S
Li2640 O2701 1.970 . S
Li2640 O2702 1.961 . S
Li2641 N2665 1.990 . S
Li2641 O2700 1.970 . S
Li2641 O2701 1.956 . S
Li2641 O2703 1.961 . S
Li2642 N2687 1.990 . S
Li2642 O2700 1.961 . S
Li2642 O2702 1.956 . S
Li2642 O2703 1.970 . S
Li2643 N2693 1.990 . S
Li2643 O2701 1.961 . S
Li2643 O2702 1.970 . S
Li2643 O2703 1.956 . S
C2644 C2646 1.348 . S
C2644 C2647 1.356 . S
C2644 O2700 1.325 . S
N2645 C2648 1.314 . S
N2645 C2649 1.279 . S
C2646 C2644 1.348 . S
C2646 C2648 1.353 . S
C2646 H2704 0.929 . S
C2647 C2644 1.356 . S
C2647 C2649 1.358 . S
C2647 H2705 0.930 . S
C2648 N2645 1.314 . S
C2648 C2646 1.353 . S
C2648 H2706 0.930 . S
C2649 N2645 1.279 . S
C2649 C2647 1.358 . S
C2649 H2707 0.930 . S
C2650 C2653 1.348 . S
C2650 C2654 1.356 . S
C2650 O2701 1.325 . S
C2651 N2652 1.279 . S
C2651 C2654 1.358 . S
C2651 H2708 0.930 . S
N2652 C2651 1.279 . S
N2652 C2655 1.314 . S
C2653 C2650 1.348 . S
C2653 C2655 1.353 . S
C2653 H2709 0.929 . S
C2654 C2650 1.356 . S
C2654 C2651 1.358 . S
C2654 H2710 0.930 . S
C2655 N2652 1.314 . S
C2655 C2653 1.353 . S
C2655 H2711 0.930 . S
C2656 N2657 1.314 . S
C2656 C2661 1.353 . S
C2656 H2662 0.930 . S
N2657 Li2640 1.990 . S
N2657 C2656 1.314 . S
N2657 C2659 1.279 . S
C2658 C2659 1.358 . S
C2658 C2660 1.356 . S
C2658 H2712 0.930 . S
C2659 N2657 1.279 . S
C2659 C2658 1.358 . S
C2659 H2663 0.930 . S
C2660 C2658 1.356 . S
C2660 C2661 1.348 . S
C2661 C2656 1.353 . S
C2661 C2660 1.348 . S
C2661 H2713 0.929 . S
H2662 C2656 0.930 . S
H2663 C2659 0.930 . S
C2664 N2665 1.314 . S
C2664 C2666 1.353 . S
C2664 H2670 0.930 . S
N2665 Li2641 1.990 . S
N2665 C2664 1.314 . S
N2665 C2668 1.279 . S
C2666 C2664 1.353 . S
C2666 C2669 1.348 . S
C2666 H2714 0.929 . S
C2667 C2668 1.358 . S
C2667 C2669 1.356 . S
C2667 H2715 0.930 . S
C2668 N2665 1.279 . S
C2668 C2667 1.358 . S
C2668 H2671 0.930 . S
C2669 C2666 1.348 . S
C2669 C2667 1.356 . S
H2670 C2664 0.930 . S
H2671 C2668 0.930 . S
C2672 C2674 1.348 . S
C2672 C2675 1.356 . S
C2672 O2702 1.325 . S
N2673 C2676 1.314 . S
N2673 C2677 1.279 . S
C2674 C2672 1.348 . S
C2674 C2676 1.353 . S
C2674 H2716 0.929 . S
C2675 C2672 1.356 . S
C2675 C2677 1.358 . S
C2675 H2717 0.930 . S
C2676 N2673 1.314 . S
C2676 C2674 1.353 . S
C2676 H2718 0.930 . S
C2677 N2673 1.279 . S
C2677 C2675 1.358 . S
C2677 H2719 0.930 . S
C2678 C2679 1.348 . S
C2678 C2680 1.356 . S
C2678 O2703 1.325 . S
C2679 C2678 1.348 . S
C2679 C2681 1.353 . S
C2679 H2720 0.929 . S
C2680 C2678 1.356 . S
C2680 C2682 1.358 . S
C2680 H2721 0.930 . S
C2681 C2679 1.353 . S
C2681 N2683 1.314 . S
C2681 H2722 0.930 . S
C2682 C2680 1.358 . S
C2682 N2683 1.279 . S
C2682 H2723 0.930 . S
N2683 C2681 1.314 . S
N2683 C2682 1.279 . S
C2684 C2686 1.353 . S
C2684 N2687 1.314 . S
C2684 H2690 0.930 . S
C2685 N2687 1.279 . S
C2685 C2688 1.358 . S
C2685 H2691 0.930 . S
C2686 C2684 1.353 . S
C2686 C2689 1.348 . S
C2686 H2724 0.929 . S
N2687 Li2642 1.990 . S
N2687 C2684 1.314 . S
N2687 C2685 1.279 . S
C2688 C2685 1.358 . S
C2688 C2689 1.356 . S
C2688 H2725 0.930 . S
C2689 C2686 1.348 . S
C2689 C2688 1.356 . S
H2690 C2684 0.930 . S
H2691 C2685 0.930 . S
C2692 N2693 1.314 . S
C2692 C2694 1.353 . S
C2692 H2698 0.930 . S
N2693 Li2643 1.990 . S
N2693 C2692 1.314 . S
N2693 C2696 1.279 . S
C2694 C2692 1.353 . S
C2694 C2697 1.348 . S
C2694 H2726 0.929 . S
C2695 C2696 1.358 . S
C2695 C2697 1.356 . S
C2695 H2727 0.930 . S
C2696 N2693 1.279 . S
C2696 C2695 1.358 . S
C2696 H2699 0.930 . S
C2697 C2694 1.348 . S
C2697 C2695 1.356 . S
H2698 C2692 0.930 . S
H2699 C2696 0.930 . S
O2700 Li2640 1.956 . S
O2700 Li2641 1.970 . S
O2700 Li2642 1.961 . S
O2700 C2644 1.325 . S
O2701 Li2640 1.970 . S
O2701 Li2641 1.956 . S
O2701 Li2643 1.961 . S
O2701 C2650 1.325 . S
O2702 Li2640 1.961 . S
O2702 Li2642 1.956 . S
O2702 Li2643 1.970 . S
O2702 C2672 1.325 . S
O2703 Li2641 1.961 . S
O2703 Li2642 1.970 . S
O2703 Li2643 1.956 . S
O2703 C2678 1.325 . S
H2704 C2646 0.929 . S
H2705 C2647 0.930 . S
H2706 C2648 0.930 . S
H2707 C2649 0.930 . S
H2708 C2651 0.930 . S
H2709 C2653 0.929 . S
H2710 C2654 0.930 . S
H2711 C2655 0.930 . S
H2712 C2658 0.930 . S
H2713 C2661 0.929 . S
H2714 C2666 0.929 . S
H2715 C2667 0.930 . S
H2716 C2674 0.929 . S
H2717 C2675 0.930 . S
H2718 C2676 0.930 . S
H2719 C2677 0.930 . S
H2720 C2679 0.929 . S
H2721 C2680 0.930 . S
H2722 C2681 0.930 . S
H2723 C2682 0.930 . S
H2724 C2686 0.929 . S
H2725 C2688 0.930 . S
H2726 C2694 0.929 . S
H2727 C2695 0.930 . S
Li2728 N2745 1.990 . S
Li2728 O2788 1.956 . S
Li2728 O2789 1.970 . S
Li2728 O2790 1.961 . S
Li2729 N2753 1.990 . S
Li2729 O2788 1.970 . S
Li2729 O2789 1.956 . S
Li2729 O2791 1.961 . S
Li2730 N2775 1.990 . S
Li2730 O2788 1.961 . S
Li2730 O2790 1.956 . S
Li2730 O2791 1.970 . S
Li2731 N2781 1.990 . S
Li2731 O2789 1.961 . S
Li2731 O2790 1.970 . S
Li2731 O2791 1.956 . S
C2732 C2734 1.348 . S
C2732 C2735 1.356 . S
C2732 O2788 1.325 . S
N2733 C2736 1.314 . S
N2733 C2737 1.279 . S
C2734 C2732 1.348 . S
C2734 C2736 1.353 . S
C2734 H2792 0.929 . S
C2735 C2732 1.356 . S
C2735 C2737 1.358 . S
C2735 H2793 0.930 . S
C2736 N2733 1.314 . S
C2736 C2734 1.353 . S
C2736 H2794 0.930 . S
C2737 N2733 1.279 . S
C2737 C2735 1.358 . S
C2737 H2795 0.930 . S
C2738 C2741 1.348 . S
C2738 C2742 1.356 . S
C2738 O2789 1.325 . S
C2739 N2740 1.279 . S
C2739 C2742 1.358 . S
C2739 H2796 0.930 . S
N2740 C2739 1.279 . S
N2740 C2743 1.314 . S
C2741 C2738 1.348 . S
C2741 C2743 1.353 . S
C2741 H2797 0.929 . S
C2742 C2738 1.356 . S
C2742 C2739 1.358 . S
C2742 H2798 0.930 . S
C2743 N2740 1.314 . S
C2743 C2741 1.353 . S
C2743 H2799 0.930 . S
C2744 N2745 1.314 . S
C2744 C2749 1.353 . S
C2744 H2750 0.930 . S
N2745 Li2728 1.990 . S
N2745 C2744 1.314 . S
N2745 C2747 1.279 . S
C2746 C2747 1.358 . S
C2746 C2748 1.356 . S
C2746 H2800 0.930 . S
C2747 N2745 1.279 . S
C2747 C2746 1.358 . S
C2747 H2751 0.930 . S
C2748 C2746 1.356 . S
C2748 C2749 1.348 . S
C2749 C2744 1.353 . S
C2749 C2748 1.348 . S
C2749 H2801 0.929 . S
H2750 C2744 0.930 . S
H2751 C2747 0.930 . S
C2752 N2753 1.314 . S
C2752 C2754 1.353 . S
C2752 H2758 0.930 . S
N2753 Li2729 1.990 . S
N2753 C2752 1.314 . S
N2753 C2756 1.279 . S
C2754 C2752 1.353 . S
C2754 C2757 1.348 . S
C2754 H2802 0.929 . S
C2755 C2756 1.358 . S
C2755 C2757 1.356 . S
C2755 H2803 0.930 . S
C2756 N2753 1.279 . S
C2756 C2755 1.358 . S
C2756 H2759 0.930 . S
C2757 C2754 1.348 . S
C2757 C2755 1.356 . S
H2758 C2752 0.930 . S
H2759 C2756 0.930 . S
C2760 C2762 1.348 . S
C2760 C2763 1.356 . S
C2760 O2790 1.325 . S
N2761 C2764 1.314 . S
N2761 C2765 1.279 . S
C2762 C2760 1.348 . S
C2762 C2764 1.353 . S
C2762 H2804 0.929 . S
C2763 C2760 1.356 . S
C2763 C2765 1.358 . S
C2763 H2805 0.930 . S
C2764 N2761 1.314 . S
C2764 C2762 1.353 . S
C2764 H2806 0.930 . S
C2765 N2761 1.279 . S
C2765 C2763 1.358 . S
C2765 H2807 0.930 . S
C2766 C2767 1.348 . S
C2766 C2768 1.356 . S
C2766 O2791 1.325 . S
C2767 C2766 1.348 . S
C2767 C2769 1.353 . S
C2767 H2808 0.929 . S
C2768 C2766 1.356 . S
C2768 C2770 1.358 . S
C2768 H2809 0.930 . S
C2769 C2767 1.353 . S
C2769 N2771 1.314 . S
C2769 H2810 0.930 . S
C2770 C2768 1.358 . S
C2770 N2771 1.279 . S
C2770 H2811 0.930 . S
N2771 C2769 1.314 . S
N2771 C2770 1.279 . S
C2772 C2774 1.353 . S
C2772 N2775 1.314 . S
C2772 H2778 0.930 . S
C2773 N2775 1.279 . S
C2773 C2776 1.358 . S
C2773 H2779 0.930 . S
C2774 C2772 1.353 . S
C2774 C2777 1.348 . S
C2774 H2812 0.929 . S
N2775 Li2730 1.990 . S
N2775 C2772 1.314 . S
N2775 C2773 1.279 . S
C2776 C2773 1.358 . S
C2776 C2777 1.356 . S
C2776 H2813 0.930 . S
C2777 C2774 1.348 . S
C2777 C2776 1.356 . S
H2778 C2772 0.930 . S
H2779 C2773 0.930 . S
C2780 N2781 1.314 . S
C2780 C2782 1.353 . S
C2780 H2786 0.930 . S
N2781 Li2731 1.990 . S
N2781 C2780 1.314 . S
N2781 C2784 1.279 . S
C2782 C2780 1.353 . S
C2782 C2785 1.348 . S
C2782 H2814 0.929 . S
C2783 C2784 1.358 . S
C2783 C2785 1.356 . S
C2783 H2815 0.930 . S
C2784 N2781 1.279 . S
C2784 C2783 1.358 . S
C2784 H2787 0.930 . S
C2785 C2782 1.348 . S
C2785 C2783 1.356 . S
H2786 C2780 0.930 . S
H2787 C2784 0.930 . S
O2788 Li2728 1.956 . S
O2788 Li2729 1.970 . S
O2788 Li2730 1.961 . S
O2788 C2732 1.325 . S
O2789 Li2728 1.970 . S
O2789 Li2729 1.956 . S
O2789 Li2731 1.961 . S
O2789 C2738 1.325 . S
O2790 Li2728 1.961 . S
O2790 Li2730 1.956 . S
O2790 Li2731 1.970 . S
O2790 C2760 1.325 . S
O2791 Li2729 1.961 . S
O2791 Li2730 1.970 . S
O2791 Li2731 1.956 . S
O2791 C2766 1.325 . S
H2792 C2734 0.929 . S
H2793 C2735 0.930 . S
H2794 C2736 0.930 . S
H2795 C2737 0.930 . S
H2796 C2739 0.930 . S
H2797 C2741 0.929 . S
H2798 C2742 0.930 . S
H2799 C2743 0.930 . S
H2800 C2746 0.930 . S
H2801 C2749 0.929 . S
H2802 C2754 0.929 . S
H2803 C2755 0.930 . S
H2804 C2762 0.929 . S
H2805 C2763 0.930 . S
H2806 C2764 0.930 . S
H2807 C2765 0.930 . S
H2808 C2767 0.929 . S
H2809 C2768 0.930 . S
H2810 C2769 0.930 . S
H2811 C2770 0.930 . S
H2812 C2774 0.929 . S
H2813 C2776 0.930 . S
H2814 C2782 0.929 . S
H2815 C2783 0.930 . S
H2816 C2822 0.930 . S
H2817 C2826 0.930 . S
H2818 C2831 0.929 . S
H2819 C2829 0.929 . S
H2820 C2824 0.929 . S
H2821 C2830 0.929 . S
C2822 H2816 0.930 . S
C2822 C2823 1.367 . S
C2822 C2830 1.378 . S
C2823 C2822 1.367 . S
C2823 C2831 1.433 . S
C2824 H2820 0.929 . S
C2824 C2826 1.378 . S
C2824 C2828 1.350 . S
C2825 C2828 1.463 . S
C2825 C2830 1.350 . S
C2825 N2833 1.427 . S
C2826 H2817 0.930 . S
C2826 C2824 1.378 . S
C2826 C2827 1.367 . S
C2827 C2826 1.367 . S
C2827 C2829 1.433 . S
C2828 C2824 1.350 . S
C2828 C2825 1.463 . S
C2828 N2832 1.427 . S
C2829 H2819 0.929 . S
C2829 C2827 1.433 . S
C2829 N2832 1.384 . S
C2830 H2821 0.929 . S
C2830 C2822 1.378 . S
C2830 C2825 1.350 . S
C2831 H2818 0.929 . S
C2831 C2823 1.433 . S
C2831 N2833 1.384 . S
N2832 C2828 1.427 . S
N2832 C2829 1.384 . S
N2833 C2825 1.427 . S
N2833 C2831 1.384 . S
H2834 C2840 0.930 . S
H2835 C2844 0.930 . S
H2836 C2849 0.929 . S
H2837 C2847 0.929 . S
H2838 C2842 0.929 . S
H2839 C2848 0.929 . S
C2840 H2834 0.930 . S
C2840 C2841 1.367 . S
C2840 C2848 1.378 . S
C2841 C2840 1.367 . S
C2841 C2849 1.433 . S
C2842 H2838 0.929 . S
C2842 C2844 1.378 . S
C2842 C2846 1.350 . S
C2843 C2846 1.463 . S
C2843 C2848 1.350 . S
C2843 N2851 1.427 . S
C2844 H2835 0.930 . S
C2844 C2842 1.378 . S
C2844 C2845 1.367 . S
C2845 C2844 1.367 . S
C2845 C2847 1.433 . S
C2846 C2842 1.350 . S
C2846 C2843 1.463 . S
C2846 N2850 1.427 . S
C2847 H2837 0.929 . S
C2847 C2845 1.433 . S
C2847 N2850 1.384 . S
C2848 H2839 0.929 . S
C2848 C2840 1.378 . S
C2848 C2843 1.350 . S
C2849 H2836 0.929 . S
C2849 C2841 1.433 . S
C2849 N2851 1.384 . S
N2850 C2846 1.427 . S
N2850 C2847 1.384 . S
N2851 C2843 1.427 . S
N2851 C2849 1.384 . S
H2852 C2858 0.930 . S
H2853 C2862 0.930 . S
H2854 C2867 0.929 . S
H2855 C2865 0.929 . S
H2856 C2860 0.929 . S
H2857 C2866 0.929 . S
C2858 H2852 0.930 . S
C2858 C2859 1.367 . S
C2858 C2866 1.378 . S
C2859 C2858 1.367 . S
C2859 C2867 1.433 . S
C2860 H2856 0.929 . S
C2860 C2862 1.378 . S
C2860 C2864 1.350 . S
C2861 C2864 1.463 . S
C2861 C2866 1.350 . S
C2861 N2869 1.427 . S
C2862 H2853 0.930 . S
C2862 C2860 1.378 . S
C2862 C2863 1.367 . S
C2863 C2862 1.367 . S
C2863 C2865 1.433 . S
C2864 C2860 1.350 . S
C2864 C2861 1.463 . S
C2864 N2868 1.427 . S
C2865 H2855 0.929 . S
C2865 C2863 1.433 . S
C2865 N2868 1.384 . S
C2866 H2857 0.929 . S
C2866 C2858 1.378 . S
C2866 C2861 1.350 . S
C2867 H2854 0.929 . S
C2867 C2859 1.433 . S
C2867 N2869 1.384 . S
N2868 C2864 1.427 . S
N2868 C2865 1.384 . S
N2869 C2861 1.427 . S
N2869 C2867 1.384 . S
H2870 C2876 0.930 . S
H2871 C2880 0.930 . S
H2872 C2885 0.929 . S
H2873 C2883 0.929 . S
H2874 C2878 0.929 . S
H2875 C2884 0.929 . S
C2876 H2870 0.930 . S
C2876 C2877 1.367 . S
C2876 C2884 1.378 . S
C2877 C2876 1.367 . S
C2877 C2885 1.433 . S
C2878 H2874 0.929 . S
C2878 C2880 1.378 . S
C2878 C2882 1.350 . S
C2879 C2882 1.463 . S
C2879 C2884 1.350 . S
C2879 N2887 1.427 . S
C2880 H2871 0.930 . S
C2880 C2878 1.378 . S
C2880 C2881 1.367 . S
C2881 C2880 1.367 . S
C2881 C2883 1.433 . S
C2882 C2878 1.350 . S
C2882 C2879 1.463 . S
C2882 N2886 1.427 . S
C2883 H2873 0.929 . S
C2883 C2881 1.433 . S
C2883 N2886 1.384 . S
C2884 H2875 0.929 . S
C2884 C2876 1.378 . S
C2884 C2879 1.350 . S
C2885 H2872 0.929 . S
C2885 C2877 1.433 . S
C2885 N2887 1.384 . S
N2886 C2882 1.427 . S
N2886 C2883 1.384 . S
N2887 C2879 1.427 . S
N2887 C2885 1.384 . S
H2888 C2894 0.930 . S
H2889 C2898 0.930 . S
H2890 C2903 0.929 . S
H2891 C2901 0.929 . S
H2892 C2896 0.929 . S
H2893 C2902 0.929 . S
C2894 H2888 0.930 . S
C2894 C2895 1.367 . S
C2894 C2902 1.378 . S
C2895 C2894 1.367 . S
C2895 C2903 1.433 . S
C2896 H2892 0.929 . S
C2896 C2898 1.378 . S
C2896 C2900 1.350 . S
C2897 C2900 1.463 . S
C2897 C2902 1.350 . S
C2897 N2905 1.427 . S
C2898 H2889 0.930 . S
C2898 C2896 1.378 . S
C2898 C2899 1.367 . S
C2899 C2898 1.367 . S
C2899 C2901 1.433 . S
C2900 C2896 1.350 . S
C2900 C2897 1.463 . S
C2900 N2904 1.427 . S
C2901 H2891 0.929 . S
C2901 C2899 1.433 . S
C2901 N2904 1.384 . S
C2902 H2893 0.929 . S
C2902 C2894 1.378 . S
C2902 C2897 1.350 . S
C2903 H2890 0.929 . S
C2903 C2895 1.433 . S
C2903 N2905 1.384 . S
N2904 C2900 1.427 . S
N2904 C2901 1.384 . S
N2905 C2897 1.427 . S
N2905 C2903 1.384 . S
H2906 C2912 0.930 . S
H2907 C2916 0.930 . S
H2908 C2921 0.929 . S
H2909 C2919 0.929 . S
H2910 C2914 0.929 . S
H2911 C2920 0.929 . S
C2912 H2906 0.930 . S
C2912 C2913 1.367 . S
C2912 C2920 1.378 . S
C2913 C2912 1.367 . S
C2913 C2921 1.433 . S
C2914 H2910 0.929 . S
C2914 C2916 1.378 . S
C2914 C2918 1.350 . S
C2915 C2918 1.463 . S
C2915 C2920 1.350 . S
C2915 N2923 1.427 . S
C2916 H2907 0.930 . S
C2916 C2914 1.378 . S
C2916 C2917 1.367 . S
C2917 C2916 1.367 . S
C2917 C2919 1.433 . S
C2918 C2914 1.350 . S
C2918 C2915 1.463 . S
C2918 N2922 1.427 . S
C2919 H2909 0.929 . S
C2919 C2917 1.433 . S
C2919 N2922 1.384 . S
C2920 H2911 0.929 . S
C2920 C2912 1.378 . S
C2920 C2915 1.350 . S
C2921 H2908 0.929 . S
C2921 C2913 1.433 . S
C2921 N2923 1.384 . S
N2922 C2918 1.427 . S
N2922 C2919 1.384 . S
N2923 C2915 1.427 . S
N2923 C2921 1.384 . S
H2924 C2930 0.930 . S
H2925 C2934 0.930 . S
H2926 C2939 0.929 . S
H2927 C2937 0.929 . S
H2928 C2932 0.929 . S
H2929 C2938 0.929 . S
C2930 H2924 0.930 . S
C2930 C2931 1.367 . S
C2930 C2938 1.378 . S
C2931 C2930 1.367 . S
C2931 C2939 1.433 . S
C2932 H2928 0.929 . S
C2932 C2934 1.378 . S
C2932 C2936 1.350 . S
C2933 C2936 1.463 . S
C2933 C2938 1.350 . S
C2933 N2941 1.427 . S
C2934 H2925 0.930 . S
C2934 C2932 1.378 . S
C2934 C2935 1.367 . S
C2935 C2934 1.367 . S
C2935 C2937 1.433 . S
C2936 C2932 1.350 . S
C2936 C2933 1.463 . S
C2936 N2940 1.427 . S
C2937 H2927 0.929 . S
C2937 C2935 1.433 . S
C2937 N2940 1.384 . S
C2938 H2929 0.929 . S
C2938 C2930 1.378 . S
C2938 C2933 1.350 . S
C2939 H2926 0.929 . S
C2939 C2931 1.433 . S
C2939 N2941 1.384 . S
N2940 C2936 1.427 . S
N2940 C2937 1.384 . S
N2941 C2933 1.427 . S
N2941 C2939 1.384 . S
H2942 C2948 0.930 . S
H2943 C2952 0.930 . S
H2944 C2957 0.929 . S
H2945 C2955 0.929 . S
H2946 C2950 0.929 . S
H2947 C2956 0.929 . S
C2948 H2942 0.930 . S
C2948 C2949 1.367 . S
C2948 C2956 1.378 . S
C2949 C2948 1.367 . S
C2949 C2957 1.433 . S
C2950 H2946 0.929 . S
C2950 C2952 1.378 . S
C2950 C2954 1.350 . S
C2951 C2954 1.463 . S
C2951 C2956 1.350 . S
C2951 N2959 1.427 . S
C2952 H2943 0.930 . S
C2952 C2950 1.378 . S
C2952 C2953 1.367 . S
C2953 C2952 1.367 . S
C2953 C2955 1.433 . S
C2954 C2950 1.350 . S
C2954 C2951 1.463 . S
C2954 N2958 1.427 . S
C2955 H2945 0.929 . S
C2955 C2953 1.433 . S
C2955 N2958 1.384 . S
C2956 H2947 0.929 . S
C2956 C2948 1.378 . S
C2956 C2951 1.350 . S
C2957 H2944 0.929 . S
C2957 C2949 1.433 . S
C2957 N2959 1.384 . S
N2958 C2954 1.427 . S
N2958 C2955 1.384 . S
N2959 C2951 1.427 . S
N2959 C2957 1.384 . S
H2960 C2966 0.930 . S
H2961 C2970 0.930 . S
H2962 C2975 0.929 . S
H2963 C2973 0.929 . S
H2964 C2968 0.929 . S
H2965 C2974 0.929 . S
C2966 H2960 0.930 . S
C2966 C2967 1.367 . S
C2966 C2974 1.378 . S
C2967 C2966 1.367 . S
C2967 C2975 1.433 . S
C2968 H2964 0.929 . S
C2968 C2970 1.378 . S
C2968 C2972 1.350 . S
C2969 C2972 1.463 . S
C2969 C2974 1.350 . S
C2969 N2977 1.427 . S
C2970 H2961 0.930 . S
C2970 C2968 1.378 . S
C2970 C2971 1.367 . S
C2971 C2970 1.367 . S
C2971 C2973 1.433 . S
C2972 C2968 1.350 . S
C2972 C2969 1.463 . S
C2972 N2976 1.427 . S
C2973 H2963 0.929 . S
C2973 C2971 1.433 . S
C2973 N2976 1.384 . S
C2974 H2965 0.929 . S
C2974 C2966 1.378 . S
C2974 C2969 1.350 . S
C2975 H2962 0.929 . S
C2975 C2967 1.433 . S
C2975 N2977 1.384 . S
N2976 C2972 1.427 . S
N2976 C2973 1.384 . S
N2977 C2969 1.427 . S
N2977 C2975 1.384 . S
H2978 C2984 0.930 . S
H2979 C2988 0.930 . S
H2980 C2993 0.929 . S
H2981 C2991 0.929 . S
H2982 C2986 0.929 . S
H2983 C2992 0.929 . S
C2984 H2978 0.930 . S
C2984 C2985 1.367 . S
C2984 C2992 1.378 . S
C2985 C2984 1.367 . S
C2985 C2993 1.433 . S
C2986 H2982 0.929 . S
C2986 C2988 1.378 . S
C2986 C2990 1.350 . S
C2987 C2990 1.463 . S
C2987 C2992 1.350 . S
C2987 N2995 1.427 . S
C2988 H2979 0.930 . S
C2988 C2986 1.378 . S
C2988 C2989 1.367 . S
C2989 C2988 1.367 . S
C2989 C2991 1.433 . S
C2990 C2986 1.350 . S
C2990 C2987 1.463 . S
C2990 N2994 1.427 . S
C2991 H2981 0.929 . S
C2991 C2989 1.433 . S
C2991 N2994 1.384 . S
C2992 H2983 0.929 . S
C2992 C2984 1.378 . S
C2992 C2987 1.350 . S
C2993 H2980 0.929 . S
C2993 C2985 1.433 . S
C2993 N2995 1.384 . S
N2994 C2990 1.427 . S
N2994 C2991 1.384 . S
N2995 C2987 1.427 . S
N2995 C2993 1.384 . S
H2996 C3002 0.930 . S
H2997 C3006 0.930 . S
H2998 C3011 0.929 . S
H2999 C3009 0.929 . S
H3000 C3004 0.929 . S
H3001 C3010 0.929 . S
C3002 H2996 0.930 . S
C3002 C3003 1.367 . S
C3002 C3010 1.378 . S
C3003 C3002 1.367 . S
C3003 C3011 1.433 . S
C3004 H3000 0.929 . S
C3004 C3006 1.378 . S
C3004 C3008 1.350 . S
C3005 C3008 1.463 . S
C3005 C3010 1.350 . S
C3005 N3013 1.427 . S
C3006 H2997 0.930 . S
C3006 C3004 1.378 . S
C3006 C3007 1.367 . S
C3007 C3006 1.367 . S
C3007 C3009 1.433 . S
C3008 C3004 1.350 . S
C3008 C3005 1.463 . S
C3008 N3012 1.427 . S
C3009 H2999 0.929 . S
C3009 C3007 1.433 . S
C3009 N3012 1.384 . S
C3010 H3001 0.929 . S
C3010 C3002 1.378 . S
C3010 C3005 1.350 . S
C3011 H2998 0.929 . S
C3011 C3003 1.433 . S
C3011 N3013 1.384 . S
N3012 C3008 1.427 . S
N3012 C3009 1.384 . S
N3013 C3005 1.427 . S
N3013 C3011 1.384 . S
H3014 C3020 0.930 . S
H3015 C3024 0.930 . S
H3016 C3029 0.929 . S
H3017 C3027 0.929 . S
H3018 C3022 0.929 . S
H3019 C3028 0.929 . S
C3020 H3014 0.930 . S
C3020 C3021 1.367 . S
C3020 C3028 1.378 . S
C3021 C3020 1.367 . S
C3021 C3029 1.433 . S
C3022 H3018 0.929 . S
C3022 C3024 1.378 . S
C3022 C3026 1.350 . S
C3023 C3026 1.463 . S
C3023 C3028 1.350 . S
C3023 N3031 1.427 . S
C3024 H3015 0.930 . S
C3024 C3022 1.378 . S
C3024 C3025 1.367 . S
C3025 C3024 1.367 . S
C3025 C3027 1.433 . S
C3026 C3022 1.350 . S
C3026 C3023 1.463 . S
C3026 N3030 1.427 . S
C3027 H3017 0.929 . S
C3027 C3025 1.433 . S
C3027 N3030 1.384 . S
C3028 H3019 0.929 . S
C3028 C3020 1.378 . S
C3028 C3023 1.350 . S
C3029 H3016 0.929 . S
C3029 C3021 1.433 . S
C3029 N3031 1.384 . S
N3030 C3026 1.427 . S
N3030 C3027 1.384 . S
N3031 C3023 1.427 . S
N3031 C3029 1.384 . S
H3032 C3038 0.930 . S
H3033 C3042 0.930 . S
H3034 C3047 0.929 . S
H3035 C3045 0.929 . S
H3036 C3040 0.929 . S
H3037 C3046 0.929 . S
C3038 H3032 0.930 . S
C3038 C3039 1.367 . S
C3038 C3046 1.378 . S
C3039 C3038 1.367 . S
C3039 C3047 1.433 . S
C3040 H3036 0.929 . S
C3040 C3042 1.378 . S
C3040 C3044 1.350 . S
C3041 C3044 1.463 . S
C3041 C3046 1.350 . S
C3041 N3049 1.427 . S
C3042 H3033 0.930 . S
C3042 C3040 1.378 . S
C3042 C3043 1.367 . S
C3043 C3042 1.367 . S
C3043 C3045 1.433 . S
C3044 C3040 1.350 . S
C3044 C3041 1.463 . S
C3044 N3048 1.427 . S
C3045 H3035 0.929 . S
C3045 C3043 1.433 . S
C3045 N3048 1.384 . S
C3046 H3037 0.929 . S
C3046 C3038 1.378 . S
C3046 C3041 1.350 . S
C3047 H3034 0.929 . S
C3047 C3039 1.433 . S
C3047 N3049 1.384 . S
N3048 C3044 1.427 . S
N3048 C3045 1.384 . S
N3049 C3041 1.427 . S
N3049 C3047 1.384 . S
H3050 C3056 0.930 . S
H3051 C3060 0.930 . S
H3052 C3065 0.929 . S
H3053 C3063 0.929 . S
H3054 C3058 0.929 . S
H3055 C3064 0.929 . S
C3056 H3050 0.930 . S
C3056 C3057 1.367 . S
C3056 C3064 1.378 . S
C3057 C3056 1.367 . S
C3057 C3065 1.433 . S
C3058 H3054 0.929 . S
C3058 C3060 1.378 . S
C3058 C3062 1.350 . S
C3059 C3062 1.463 . S
C3059 C3064 1.350 . S
C3059 N3067 1.427 . S
C3060 H3051 0.930 . S
C3060 C3058 1.378 . S
C3060 C3061 1.367 . S
C3061 C3060 1.367 . S
C3061 C3063 1.433 . S
C3062 C3058 1.350 . S
C3062 C3059 1.463 . S
C3062 N3066 1.427 . S
C3063 H3053 0.929 . S
C3063 C3061 1.433 . S
C3063 N3066 1.384 . S
C3064 H3055 0.929 . S
C3064 C3056 1.378 . S
C3064 C3059 1.350 . S
C3065 H3052 0.929 . S
C3065 C3057 1.433 . S
C3065 N3067 1.384 . S
N3066 C3062 1.427 . S
N3066 C3063 1.384 . S
N3067 C3059 1.427 . S
N3067 C3065 1.384 . S
H3068 C3074 0.930 . S
H3069 C3078 0.930 . S
H3070 C3083 0.929 . S
H3071 C3081 0.929 . S
H3072 C3076 0.929 . S
H3073 C3082 0.929 . S
C3074 H3068 0.930 . S
C3074 C3075 1.367 . S
C3074 C3082 1.378 . S
C3075 C3074 1.367 . S
C3075 C3083 1.433 . S
C3076 H3072 0.929 . S
C3076 C3078 1.378 . S
C3076 C3080 1.350 . S
C3077 C3080 1.463 . S
C3077 C3082 1.350 . S
C3077 N3085 1.427 . S
C3078 H3069 0.930 . S
C3078 C3076 1.378 . S
C3078 C3079 1.367 . S
C3079 C3078 1.367 . S
C3079 C3081 1.433 . S
C3080 C3076 1.350 . S
C3080 C3077 1.463 . S
C3080 N3084 1.427 . S
C3081 H3071 0.929 . S
C3081 C3079 1.433 . S
C3081 N3084 1.384 . S
C3082 H3073 0.929 . S
C3082 C3074 1.378 . S
C3082 C3077 1.350 . S
C3083 H3070 0.929 . S
C3083 C3075 1.433 . S
C3083 N3085 1.384 . S
N3084 C3080 1.427 . S
N3084 C3081 1.384 . S
N3085 C3077 1.427 . S
N3085 C3083 1.384 . S
H3086 C3092 0.930 . S
H3087 C3096 0.930 . S
H3088 C3101 0.929 . S
H3089 C3099 0.929 . S
H3090 C3094 0.929 . S
H3091 C3100 0.929 . S
C3092 H3086 0.930 . S
C3092 C3093 1.367 . S
C3092 C3100 1.378 . S
C3093 C3092 1.367 . S
C3093 C3101 1.433 . S
C3094 H3090 0.929 . S
C3094 C3096 1.378 . S
C3094 C3098 1.350 . S
C3095 C3098 1.463 . S
C3095 C3100 1.350 . S
C3095 N3103 1.427 . S
C3096 H3087 0.930 . S
C3096 C3094 1.378 . S
C3096 C3097 1.367 . S
C3097 C3096 1.367 . S
C3097 C3099 1.433 . S
C3098 C3094 1.350 . S
C3098 C3095 1.463 . S
C3098 N3102 1.427 . S
C3099 H3089 0.929 . S
C3099 C3097 1.433 . S
C3099 N3102 1.384 . S
C3100 H3091 0.929 . S
C3100 C3092 1.378 . S
C3100 C3095 1.350 . S
C3101 H3088 0.929 . S
C3101 C3093 1.433 . S
C3101 N3103 1.384 . S
N3102 C3098 1.427 . S
N3102 C3099 1.384 . S
N3103 C3095 1.427 . S
N3103 C3101 1.384 . S
H3104 C3110 0.930 . S
H3105 C3114 0.930 . S
H3106 C3119 0.929 . S
H3107 C3117 0.929 . S
H3108 C3112 0.929 . S
H3109 C3118 0.929 . S
C3110 H3104 0.930 . S
C3110 C3111 1.367 . S
C3110 C3118 1.378 . S
C3111 C3110 1.367 . S
C3111 C3119 1.433 . S
C3112 H3108 0.929 . S
C3112 C3114 1.378 . S
C3112 C3116 1.350 . S
C3113 C3116 1.463 1_655 S
C3113 C3118 1.350 . S
C3113 N3121 1.427 . S
C3114 H3105 0.930 . S
C3114 C3112 1.378 . S
C3114 C3115 1.367 . S
C3115 C3114 1.367 . S
C3115 C3117 1.433 . S
C3116 C3112 1.350 . S
C3116 C3113 1.463 1_455 S
C3116 N3120 1.427 . S
C3117 H3107 0.929 . S
C3117 C3115 1.433 . S
C3117 N3120 1.384 . S
C3118 H3109 0.929 . S
C3118 C3110 1.378 . S
C3118 C3113 1.350 . S
C3119 H3106 0.929 . S
C3119 C3111 1.433 . S
C3119 N3121 1.384 . S
N3120 C3116 1.427 . S
N3120 C3117 1.384 . S
N3121 C3113 1.427 . S
N3121 C3119 1.384 . S
H3122 C3128 0.930 . S
H3123 C3132 0.930 . S
H3124 C3137 0.929 . S
H3125 C3135 0.929 . S
H3126 C3130 0.929 . S
H3127 C3136 0.929 . S
C3128 H3122 0.930 . S
C3128 C3129 1.367 . S
C3128 C3136 1.378 . S
C3129 C3128 1.367 . S
C3129 C3137 1.433 . S
C3130 H3126 0.929 . S
C3130 C3132 1.378 . S
C3130 C3134 1.350 . S
C3131 C3134 1.463 1_545 S
C3131 C3136 1.350 . S
C3131 N3139 1.427 . S
C3132 H3123 0.930 . S
C3132 C3130 1.378 . S
C3132 C3133 1.367 . S
C3133 C3132 1.367 . S
C3133 C3135 1.433 . S
C3134 C3130 1.350 . S
C3134 C3131 1.463 1_565 S
C3134 N3138 1.427 . S
C3135 H3125 0.929 . S
C3135 C3133 1.433 . S
C3135 N3138 1.384 . S
C3136 H3127 0.929 . S
C3136 C3128 1.378 . S
C3136 C3131 1.350 . S
C3137 H3124 0.929 . S
C3137 C3129 1.433 . S
C3137 N3139 1.384 . S
N3138 C3134 1.427 . S
N3138 C3135 1.384 . S
N3139 C3131 1.427 . S
N3139 C3137 1.384 . S
H3140 C3146 0.930 . S
H3141 C3150 0.930 . S
H3142 C3155 0.929 . S
H3143 C3153 0.929 . S
H3144 C3148 0.929 . S
H3145 C3154 0.929 . S
C3146 H3140 0.930 . S
C3146 C3147 1.367 . S
C3146 C3154 1.378 . S
C3147 C3146 1.367 . S
C3147 C3155 1.433 . S
C3148 H3144 0.929 . S
C3148 C3150 1.378 . S
C3148 C3152 1.350 . S
C3149 C3152 1.463 1_455 S
C3149 C3154 1.350 . S
C3149 N3157 1.427 . S
C3150 H3141 0.930 . S
C3150 C3148 1.378 . S
C3150 C3151 1.367 . S
C3151 C3150 1.367 . S
C3151 C3153 1.433 . S
C3152 C3148 1.350 . S
C3152 C3149 1.463 1_655 S
C3152 N3156 1.427 . S
C3153 H3143 0.929 . S
C3153 C3151 1.433 . S
C3153 N3156 1.384 . S
C3154 H3145 0.929 . S
C3154 C3146 1.378 . S
C3154 C3149 1.350 . S
C3155 H3142 0.929 . S
C3155 C3147 1.433 . S
C3155 N3157 1.384 . S
N3156 C3152 1.427 . S
N3156 C3153 1.384 . S
N3157 C3149 1.427 . S
N3157 C3155 1.384 . S
H3158 C3164 0.930 . S
H3159 C3168 0.930 . S
H3160 C3173 0.929 . S
H3161 C3171 0.929 . S
H3162 C3166 0.929 . S
H3163 C3172 0.929 . S
C3164 H3158 0.930 . S
C3164 C3165 1.367 . S
C3164 C3172 1.378 . S
C3165 C3164 1.367 . S
C3165 C3173 1.433 . S
C3166 H3162 0.929 . S
C3166 C3168 1.378 . S
C3166 C3170 1.350 . S
C3167 C3170 1.463 1_565 S
C3167 C3172 1.350 . S
C3167 N3175 1.427 . S
C3168 H3159 0.930 . S
C3168 C3166 1.378 . S
C3168 C3169 1.367 . S
C3169 C3168 1.367 . S
C3169 C3171 1.433 . S
C3170 C3166 1.350 . S
C3170 C3167 1.463 1_545 S
C3170 N3174 1.427 . S
C3171 H3161 0.929 . S
C3171 C3169 1.433 . S
C3171 N3174 1.384 . S
C3172 H3163 0.929 . S
C3172 C3164 1.378 . S
C3172 C3167 1.350 . S
C3173 H3160 0.929 . S
C3173 C3165 1.433 . S
C3173 N3175 1.384 . S
N3174 C3170 1.427 . S
N3174 C3171 1.384 . S
N3175 C3167 1.427 . S
N3175 C3173 1.384 . S
H3176 C3182 0.930 . S
H3177 C3186 0.930 . S
H3178 C3191 0.929 . S
H3179 C3189 0.929 . S
H3180 C3184 0.929 . S
H3181 C3190 0.929 . S
C3182 H3176 0.930 . S
C3182 C3183 1.367 . S
C3182 C3190 1.378 . S
C3183 C3182 1.367 . S
C3183 C3191 1.433 . S
C3184 H3180 0.929 . S
C3184 C3186 1.378 . S
C3184 C3188 1.350 . S
C3185 C3188 1.463 1_455 S
C3185 C3190 1.350 . S
C3185 N3193 1.427 . S
C3186 H3177 0.930 . S
C3186 C3184 1.378 . S
C3186 C3187 1.367 . S
C3187 C3186 1.367 . S
C3187 C3189 1.433 . S
C3188 C3184 1.350 . S
C3188 C3185 1.463 1_655 S
C3188 N3192 1.427 . S
C3189 H3179 0.929 . S
C3189 C3187 1.433 . S
C3189 N3192 1.384 . S
C3190 H3181 0.929 . S
C3190 C3182 1.378 . S
C3190 C3185 1.350 . S
C3191 H3178 0.929 . S
C3191 C3183 1.433 . S
C3191 N3193 1.384 . S
N3192 C3188 1.427 . S
N3192 C3189 1.384 . S
N3193 C3185 1.427 . S
N3193 C3191 1.384 . S
H3194 C3200 0.930 . S
H3195 C3204 0.930 . S
H3196 C3209 0.929 . S
H3197 C3207 0.929 . S
H3198 C3202 0.929 . S
H3199 C3208 0.929 . S
C3200 H3194 0.930 . S
C3200 C3201 1.367 . S
C3200 C3208 1.378 . S
C3201 C3200 1.367 . S
C3201 C3209 1.433 . S
C3202 H3198 0.929 . S
C3202 C3204 1.378 . S
C3202 C3206 1.350 . S
C3203 C3206 1.463 1_565 S
C3203 C3208 1.350 . S
C3203 N3211 1.427 . S
C3204 H3195 0.930 . S
C3204 C3202 1.378 . S
C3204 C3205 1.367 . S
C3205 C3204 1.367 . S
C3205 C3207 1.433 . S
C3206 C3202 1.350 . S
C3206 C3203 1.463 1_545 S
C3206 N3210 1.427 . S
C3207 H3197 0.929 . S
C3207 C3205 1.433 . S
C3207 N3210 1.384 . S
C3208 H3199 0.929 . S
C3208 C3200 1.378 . S
C3208 C3203 1.350 . S
C3209 H3196 0.929 . S
C3209 C3201 1.433 . S
C3209 N3211 1.384 . S
N3210 C3206 1.427 . S
N3210 C3207 1.384 . S
N3211 C3203 1.427 . S
N3211 C3209 1.384 . S
H3212 C3218 0.930 . S
H3213 C3222 0.930 . S
H3214 C3227 0.929 . S
H3215 C3225 0.929 . S
H3216 C3220 0.929 . S
H3217 C3226 0.929 . S
C3218 H3212 0.930 . S
C3218 C3219 1.367 . S
C3218 C3226 1.378 . S
C3219 C3218 1.367 . S
C3219 C3227 1.433 . S
C3220 H3216 0.929 . S
C3220 C3222 1.378 . S
C3220 C3224 1.350 . S
C3221 C3224 1.463 1_455 S
C3221 C3226 1.350 . S
C3221 N3229 1.427 . S
C3222 H3213 0.930 . S
C3222 C3220 1.378 . S
C3222 C3223 1.367 . S
C3223 C3222 1.367 . S
C3223 C3225 1.433 . S
C3224 C3220 1.350 . S
C3224 C3221 1.463 1_655 S
C3224 N3228 1.427 . S
C3225 H3215 0.929 . S
C3225 C3223 1.433 . S
C3225 N3228 1.384 . S
C3226 H3217 0.929 . S
C3226 C3218 1.378 . S
C3226 C3221 1.350 . S
C3227 H3214 0.929 . S
C3227 C3219 1.433 . S
C3227 N3229 1.384 . S
N3228 C3224 1.427 . S
N3228 C3225 1.384 . S
N3229 C3221 1.427 . S
N3229 C3227 1.384 . S
H3230 C3236 0.930 . S
H3231 C3240 0.930 . S
H3232 C3245 0.929 . S
H3233 C3243 0.929 . S
H3234 C3238 0.929 . S
H3235 C3244 0.929 . S
C3236 H3230 0.930 . S
C3236 C3237 1.367 . S
C3236 C3244 1.378 . S
C3237 C3236 1.367 . S
C3237 C3245 1.433 . S
C3238 H3234 0.929 . S
C3238 C3240 1.378 . S
C3238 C3242 1.350 . S
C3239 C3242 1.463 1_545 S
C3239 C3244 1.350 . S
C3239 N3247 1.427 . S
C3240 H3231 0.930 . S
C3240 C3238 1.378 . S
C3240 C3241 1.367 . S
C3241 C3240 1.367 . S
C3241 C3243 1.433 . S
C3242 C3238 1.350 . S
C3242 C3239 1.463 1_565 S
C3242 N3246 1.427 . S
C3243 H3233 0.929 . S
C3243 C3241 1.433 . S
C3243 N3246 1.384 . S
C3244 H3235 0.929 . S
C3244 C3236 1.378 . S
C3244 C3239 1.350 . S
C3245 H3232 0.929 . S
C3245 C3237 1.433 . S
C3245 N3247 1.384 . S
N3246 C3242 1.427 . S
N3246 C3243 1.384 . S
N3247 C3239 1.427 . S
N3247 C3245 1.384 . S
H3248 C3254 0.930 . S
H3249 C3258 0.930 . S
H3250 C3263 0.929 . S
H3251 C3261 0.929 . S
H3252 C3256 0.929 . S
H3253 C3262 0.929 . S
C3254 H3248 0.930 . S
C3254 C3255 1.367 . S
C3254 C3262 1.378 . S
C3255 C3254 1.367 . S
C3255 C3263 1.433 . S
C3256 H3252 0.929 . S
C3256 C3258 1.378 . S
C3256 C3260 1.350 . S
C3257 C3260 1.463 . S
C3257 C3262 1.350 . S
C3257 N3265 1.427 . S
C3258 H3249 0.930 . S
C3258 C3256 1.378 . S
C3258 C3259 1.367 . S
C3259 C3258 1.367 . S
C3259 C3261 1.433 . S
C3260 C3256 1.350 . S
C3260 C3257 1.463 . S
C3260 N3264 1.427 . S
C3261 H3251 0.929 . S
C3261 C3259 1.433 . S
C3261 N3264 1.384 . S
C3262 H3253 0.929 . S
C3262 C3254 1.378 . S
C3262 C3257 1.350 . S
C3263 H3250 0.929 . S
C3263 C3255 1.433 . S
C3263 N3265 1.384 . S
N3264 C3260 1.427 . S
N3264 C3261 1.384 . S
N3265 C3257 1.427 . S
N3265 C3263 1.384 . S
H3266 C3272 0.930 . S
H3267 C3276 0.930 . S
H3268 C3281 0.929 . S
H3269 C3279 0.929 . S
H3270 C3274 0.929 . S
H3271 C3280 0.929 . S
C3272 H3266 0.930 . S
C3272 C3273 1.367 . S
C3272 C3280 1.378 . S
C3273 C3272 1.367 . S
C3273 C3281 1.433 . S
C3274 H3270 0.929 . S
C3274 C3276 1.378 . S
C3274 C3278 1.350 . S
C3275 C3278 1.463 . S
C3275 C3280 1.350 . S
C3275 N3283 1.427 . S
C3276 H3267 0.930 . S
C3276 C3274 1.378 . S
C3276 C3277 1.367 . S
C3277 C3276 1.367 . S
C3277 C3279 1.433 . S
C3278 C3274 1.350 . S
C3278 C3275 1.463 . S
C3278 N3282 1.427 . S
C3279 H3269 0.929 . S
C3279 C3277 1.433 . S
C3279 N3282 1.384 . S
C3280 H3271 0.929 . S
C3280 C3272 1.378 . S
C3280 C3275 1.350 . S
C3281 H3268 0.929 . S
C3281 C3273 1.433 . S
C3281 N3283 1.384 . S
N3282 C3278 1.427 . S
N3282 C3279 1.384 . S
N3283 C3275 1.427 . S
N3283 C3281 1.384 . S
H3284 C3290 0.930 . S
H3285 C3294 0.930 . S
H3286 C3299 0.929 . S
H3287 C3297 0.929 . S
H3288 C3292 0.929 . S
H3289 C3298 0.929 . S
C3290 H3284 0.930 . S
C3290 C3291 1.367 . S
C3290 C3298 1.378 . S
C3291 C3290 1.367 . S
C3291 C3299 1.433 . S
C3292 H3288 0.929 . S
C3292 C3294 1.378 . S
C3292 C3296 1.350 . S
C3293 C3296 1.463 . S
C3293 C3298 1.350 . S
C3293 N3301 1.427 . S
C3294 H3285 0.930 . S
C3294 C3292 1.378 . S
C3294 C3295 1.367 . S
C3295 C3294 1.367 . S
C3295 C3297 1.433 . S
C3296 C3292 1.350 . S
C3296 C3293 1.463 . S
C3296 N3300 1.427 . S
C3297 H3287 0.929 . S
C3297 C3295 1.433 . S
C3297 N3300 1.384 . S
C3298 H3289 0.929 . S
C3298 C3290 1.378 . S
C3298 C3293 1.350 . S
C3299 H3286 0.929 . S
C3299 C3291 1.433 . S
C3299 N3301 1.384 . S
N3300 C3296 1.427 . S
N3300 C3297 1.384 . S
N3301 C3293 1.427 . S
N3301 C3299 1.384 . S
H3302 C3308 0.930 . S
H3303 C3312 0.930 . S
H3304 C3317 0.929 . S
H3305 C3315 0.929 . S
H3306 C3310 0.929 . S
H3307 C3316 0.929 . S
C3308 H3302 0.930 . S
C3308 C3309 1.367 . S
C3308 C3316 1.378 . S
C3309 C3308 1.367 . S
C3309 C3317 1.433 . S
C3310 H3306 0.929 . S
C3310 C3312 1.378 . S
C3310 C3314 1.350 . S
C3311 C3314 1.463 . S
C3311 C3316 1.350 . S
C3311 N3319 1.427 . S
C3312 H3303 0.930 . S
C3312 C3310 1.378 . S
C3312 C3313 1.367 . S
C3313 C3312 1.367 . S
C3313 C3315 1.433 . S
C3314 C3310 1.350 . S
C3314 C3311 1.463 . S
C3314 N3318 1.427 . S
C3315 H3305 0.929 . S
C3315 C3313 1.433 . S
C3315 N3318 1.384 . S
C3316 H3307 0.929 . S
C3316 C3308 1.378 . S
C3316 C3311 1.350 . S
C3317 H3304 0.929 . S
C3317 C3309 1.433 . S
C3317 N3319 1.384 . S
N3318 C3314 1.427 . S
N3318 C3315 1.384 . S
N3319 C3311 1.427 . S
N3319 C3317 1.384 . S
H3320 C3326 0.930 . S
H3321 C3330 0.930 . S
H3322 C3335 0.929 . S
H3323 C3333 0.929 . S
H3324 C3328 0.929 . S
H3325 C3334 0.929 . S
C3326 H3320 0.930 . S
C3326 C3327 1.367 . S
C3326 C3334 1.378 . S
C3327 C3326 1.367 . S
C3327 C3335 1.433 . S
C3328 H3324 0.929 . S
C3328 C3330 1.378 . S
C3328 C3332 1.350 . S
C3329 C3332 1.463 . S
C3329 C3334 1.350 . S
C3329 N3337 1.427 . S
C3330 H3321 0.930 . S
C3330 C3328 1.378 . S
C3330 C3331 1.367 . S
C3331 C3330 1.367 . S
C3331 C3333 1.433 . S
C3332 C3328 1.350 . S
C3332 C3329 1.463 . S
C3332 N3336 1.427 . S
C3333 H3323 0.929 . S
C3333 C3331 1.433 . S
C3333 N3336 1.384 . S
C3334 H3325 0.929 . S
C3334 C3326 1.378 . S
C3334 C3329 1.350 . S
C3335 H3322 0.929 . S
C3335 C3327 1.433 . S
C3335 N3337 1.384 . S
N3336 C3332 1.427 . S
N3336 C3333 1.384 . S
N3337 C3329 1.427 . S
N3337 C3335 1.384 . S
H3338 C3344 0.930 . S
H3339 C3348 0.930 . S
H3340 C3353 0.929 . S
H3341 C3351 0.929 . S
H3342 C3346 0.929 . S
H3343 C3352 0.929 . S
C3344 H3338 0.930 . S
C3344 C3345 1.367 . S
C3344 C3352 1.378 . S
C3345 C3344 1.367 . S
C3345 C3353 1.433 . S
C3346 H3342 0.929 . S
C3346 C3348 1.378 . S
C3346 C3350 1.350 . S
C3347 C3350 1.463 . S
C3347 C3352 1.350 . S
C3347 N3355 1.427 . S
C3348 H3339 0.930 . S
C3348 C3346 1.378 . S
C3348 C3349 1.367 . S
C3349 C3348 1.367 . S
C3349 C3351 1.433 . S
C3350 C3346 1.350 . S
C3350 C3347 1.463 . S
C3350 N3354 1.427 . S
C3351 H3341 0.929 . S
C3351 C3349 1.433 . S
C3351 N3354 1.384 . S
C3352 H3343 0.929 . S
C3352 C3344 1.378 . S
C3352 C3347 1.350 . S
C3353 H3340 0.929 . S
C3353 C3345 1.433 . S
C3353 N3355 1.384 . S
N3354 C3350 1.427 . S
N3354 C3351 1.384 . S
N3355 C3347 1.427 . S
N3355 C3353 1.384 . S
H3356 C3362 0.930 . S
H3357 C3366 0.930 . S
H3358 C3371 0.929 . S
H3359 C3369 0.929 . S
H3360 C3364 0.929 . S
H3361 C3370 0.929 . S
C3362 H3356 0.930 . S
C3362 C3363 1.367 . S
C3362 C3370 1.378 . S
C3363 C3362 1.367 . S
C3363 C3371 1.433 . S
C3364 H3360 0.929 . S
C3364 C3366 1.378 . S
C3364 C3368 1.350 . S
C3365 C3368 1.463 . S
C3365 C3370 1.350 . S
C3365 N3373 1.427 . S
C3366 H3357 0.930 . S
C3366 C3364 1.378 . S
C3366 C3367 1.367 . S
C3367 C3366 1.367 . S
C3367 C3369 1.433 . S
C3368 C3364 1.350 . S
C3368 C3365 1.463 . S
C3368 N3372 1.427 . S
C3369 H3359 0.929 . S
C3369 C3367 1.433 . S
C3369 N3372 1.384 . S
C3370 H3361 0.929 . S
C3370 C3362 1.378 . S
C3370 C3365 1.350 . S
C3371 H3358 0.929 . S
C3371 C3363 1.433 . S
C3371 N3373 1.384 . S
N3372 C3368 1.427 . S
N3372 C3369 1.384 . S
N3373 C3365 1.427 . S
N3373 C3371 1.384 . S
H3374 C3380 0.930 . S
H3375 C3384 0.930 . S
H3376 C3389 0.929 . S
H3377 C3387 0.929 . S
H3378 C3382 0.929 . S
H3379 C3388 0.929 . S
C3380 H3374 0.930 . S
C3380 C3381 1.367 . S
C3380 C3388 1.378 . S
C3381 C3380 1.367 . S
C3381 C3389 1.433 . S
C3382 H3378 0.929 . S
C3382 C3384 1.378 . S
C3382 C3386 1.350 . S
C3383 C3386 1.463 . S
C3383 C3388 1.350 . S
C3383 N3391 1.427 . S
C3384 H3375 0.930 . S
C3384 C3382 1.378 . S
C3384 C3385 1.367 . S
C3385 C3384 1.367 . S
C3385 C3387 1.433 . S
C3386 C3382 1.350 . S
C3386 C3383 1.463 . S
C3386 N3390 1.427 . S
C3387 H3377 0.929 . S
C3387 C3385 1.433 . S
C3387 N3390 1.384 . S
C3388 H3379 0.929 . S
C3388 C3380 1.378 . S
C3388 C3383 1.350 . S
C3389 H3376 0.929 . S
C3389 C3381 1.433 . S
C3389 N3391 1.384 . S
N3390 C3386 1.427 . S
N3390 C3387 1.384 . S
N3391 C3383 1.427 . S
N3391 C3389 1.384 . S
H3392 C3398 0.930 . S
H3393 C3402 0.930 . S
H3394 C3407 0.929 . S
H3395 C3405 0.929 . S
H3396 C3400 0.929 . S
H3397 C3406 0.929 . S
C3398 H3392 0.930 . S
C3398 C3399 1.367 . S
C3398 C3406 1.378 . S
C3399 C3398 1.367 . S
C3399 C3407 1.433 . S
C3400 H3396 0.929 . S
C3400 C3402 1.378 . S
C3400 C3404 1.350 . S
C3401 C3404 1.463 . S
C3401 C3406 1.350 . S
C3401 N3409 1.427 . S
C3402 H3393 0.930 . S
C3402 C3400 1.378 . S
C3402 C3403 1.367 . S
C3403 C3402 1.367 . S
C3403 C3405 1.433 . S
C3404 C3400 1.350 . S
C3404 C3401 1.463 . S
C3404 N3408 1.427 . S
C3405 H3395 0.929 . S
C3405 C3403 1.433 . S
C3405 N3408 1.384 . S
C3406 H3397 0.929 . S
C3406 C3398 1.378 . S
C3406 C3401 1.350 . S
C3407 H3394 0.929 . S
C3407 C3399 1.433 . S
C3407 N3409 1.384 . S
N3408 C3404 1.427 . S
N3408 C3405 1.384 . S
N3409 C3401 1.427 . S
N3409 C3407 1.384 . S
H3410 C3416 0.930 . S
H3411 C3420 0.930 . S
H3412 C3425 0.929 . S
H3413 C3423 0.929 . S
H3414 C3418 0.929 . S
H3415 C3424 0.929 . S
C3416 H3410 0.930 . S
C3416 C3417 1.367 . S
C3416 C3424 1.378 . S
C3417 C3416 1.367 . S
C3417 C3425 1.433 . S
C3418 H3414 0.929 . S
C3418 C3420 1.378 . S
C3418 C3422 1.350 . S
C3419 C3422 1.463 . S
C3419 C3424 1.350 . S
C3419 N3427 1.427 . S
C3420 H3411 0.930 . S
C3420 C3418 1.378 . S
C3420 C3421 1.367 . S
C3421 C3420 1.367 . S
C3421 C3423 1.433 . S
C3422 C3418 1.350 . S
C3422 C3419 1.463 . S
C3422 N3426 1.427 . S
C3423 H3413 0.929 . S
C3423 C3421 1.433 . S
C3423 N3426 1.384 . S
C3424 H3415 0.929 . S
C3424 C3416 1.378 . S
C3424 C3419 1.350 . S
C3425 H3412 0.929 . S
C3425 C3417 1.433 . S
C3425 N3427 1.384 . S
N3426 C3422 1.427 . S
N3426 C3423 1.384 . S
N3427 C3419 1.427 . S
N3427 C3425 1.384 . S
H3428 C3434 0.930 . S
H3429 C3438 0.930 . S
H3430 C3443 0.929 . S
H3431 C3441 0.929 . S
H3432 C3436 0.929 . S
H3433 C3442 0.929 . S
C3434 H3428 0.930 . S
C3434 C3435 1.367 . S
C3434 C3442 1.378 . S
C3435 C3434 1.367 . S
C3435 C3443 1.433 . S
C3436 H3432 0.929 . S
C3436 C3438 1.378 . S
C3436 C3440 1.350 . S
C3437 C3440 1.463 . S
C3437 C3442 1.350 . S
C3437 N3445 1.427 . S
C3438 H3429 0.930 . S
C3438 C3436 1.378 . S
C3438 C3439 1.367 . S
C3439 C3438 1.367 . S
C3439 C3441 1.433 . S
C3440 C3436 1.350 . S
C3440 C3437 1.463 . S
C3440 N3444 1.427 . S
C3441 H3431 0.929 . S
C3441 C3439 1.433 . S
C3441 N3444 1.384 . S
C3442 H3433 0.929 . S
C3442 C3434 1.378 . S
C3442 C3437 1.350 . S
C3443 H3430 0.929 . S
C3443 C3435 1.433 . S
C3443 N3445 1.384 . S
N3444 C3440 1.427 . S
N3444 C3441 1.384 . S
N3445 C3437 1.427 . S
N3445 C3443 1.384 . S
H3446 C3452 0.930 . S
H3447 C3456 0.930 . S
H3448 C3461 0.929 . S
H3449 C3459 0.929 . S
H3450 C3454 0.929 . S
H3451 C3460 0.929 . S
C3452 H3446 0.930 . S
C3452 C3453 1.367 . S
C3452 C3460 1.378 . S
C3453 C3452 1.367 . S
C3453 C3461 1.433 . S
C3454 H3450 0.929 . S
C3454 C3456 1.378 . S
C3454 C3458 1.350 . S
C3455 C3458 1.463 . S
C3455 C3460 1.350 . S
C3455 N3463 1.427 . S
C3456 H3447 0.930 . S
C3456 C3454 1.378 . S
C3456 C3457 1.367 . S
C3457 C3456 1.367 . S
C3457 C3459 1.433 . S
C3458 C3454 1.350 . S
C3458 C3455 1.463 . S
C3458 N3462 1.427 . S
C3459 H3449 0.929 . S
C3459 C3457 1.433 . S
C3459 N3462 1.384 . S
C3460 H3451 0.929 . S
C3460 C3452 1.378 . S
C3460 C3455 1.350 . S
C3461 H3448 0.929 . S
C3461 C3453 1.433 . S
C3461 N3463 1.384 . S
N3462 C3458 1.427 . S
N3462 C3459 1.384 . S
N3463 C3455 1.427 . S
N3463 C3461 1.384 . S
H3464 C3470 0.930 . S
H3465 C3474 0.930 . S
H3466 C3479 0.929 . S
H3467 C3477 0.929 . S
H3468 C3472 0.929 . S
H3469 C3478 0.929 . S
C3470 H3464 0.930 . S
C3470 C3471 1.367 . S
C3470 C3478 1.378 . S
C3471 C3470 1.367 . S
C3471 C3479 1.433 . S
C3472 H3468 0.929 . S
C3472 C3474 1.378 . S
C3472 C3476 1.350 . S
C3473 C3476 1.463 . S
C3473 C3478 1.350 . S
C3473 N3481 1.427 . S
C3474 H3465 0.930 . S
C3474 C3472 1.378 . S
C3474 C3475 1.367 . S
C3475 C3474 1.367 . S
C3475 C3477 1.433 . S
C3476 C3472 1.350 . S
C3476 C3473 1.463 . S
C3476 N3480 1.427 . S
C3477 H3467 0.929 . S
C3477 C3475 1.433 . S
C3477 N3480 1.384 . S
C3478 H3469 0.929 . S
C3478 C3470 1.378 . S
C3478 C3473 1.350 . S
C3479 H3466 0.929 . S
C3479 C3471 1.433 . S
C3479 N3481 1.384 . S
N3480 C3476 1.427 . S
N3480 C3477 1.384 . S
N3481 C3473 1.427 . S
N3481 C3479 1.384 . S
H3482 C3488 0.930 . S
H3483 C3492 0.930 . S
H3484 C3497 0.929 . S
H3485 C3495 0.929 . S
H3486 C3490 0.929 . S
H3487 C3496 0.929 . S
C3488 H3482 0.930 . S
C3488 C3489 1.367 . S
C3488 C3496 1.378 . S
C3489 C3488 1.367 . S
C3489 C3497 1.433 . S
C3490 H3486 0.929 . S
C3490 C3492 1.378 . S
C3490 C3494 1.350 . S
C3491 C3494 1.463 . S
C3491 C3496 1.350 . S
C3491 N3499 1.427 . S
C3492 H3483 0.930 . S
C3492 C3490 1.378 . S
C3492 C3493 1.367 . S
C3493 C3492 1.367 . S
C3493 C3495 1.433 . S
C3494 C3490 1.350 . S
C3494 C3491 1.463 . S
C3494 N3498 1.427 . S
C3495 H3485 0.929 . S
C3495 C3493 1.433 . S
C3495 N3498 1.384 . S
C3496 H3487 0.929 . S
C3496 C3488 1.378 . S
C3496 C3491 1.350 . S
C3497 H3484 0.929 . S
C3497 C3489 1.433 . S
C3497 N3499 1.384 . S
N3498 C3494 1.427 . S
N3498 C3495 1.384 . S
N3499 C3491 1.427 . S
N3499 C3497 1.384 . S
H3500 C3506 0.930 . S
H3501 C3510 0.930 . S
H3502 C3515 0.929 . S
H3503 C3513 0.929 . S
H3504 C3508 0.929 . S
H3505 C3514 0.929 . S
C3506 H3500 0.930 . S
C3506 C3507 1.367 . S
C3506 C3514 1.378 . S
C3507 C3506 1.367 . S
C3507 C3515 1.433 . S
C3508 H3504 0.929 . S
C3508 C3510 1.378 . S
C3508 C3512 1.350 . S
C3509 C3512 1.463 . S
C3509 C3514 1.350 . S
C3509 N3517 1.427 . S
C3510 H3501 0.930 . S
C3510 C3508 1.378 . S
C3510 C3511 1.367 . S
C3511 C3510 1.367 . S
C3511 C3513 1.433 . S
C3512 C3508 1.350 . S
C3512 C3509 1.463 . S
C3512 N3516 1.427 . S
C3513 H3503 0.929 . S
C3513 C3511 1.433 . S
C3513 N3516 1.384 . S
C3514 H3505 0.929 . S
C3514 C3506 1.378 . S
C3514 C3509 1.350 . S
C3515 H3502 0.929 . S
C3515 C3507 1.433 . S
C3515 N3517 1.384 . S
N3516 C3512 1.427 . S
N3516 C3513 1.384 . S
N3517 C3509 1.427 . S
N3517 C3515 1.384 . S
H3518 C3524 0.930 . S
H3519 C3528 0.930 . S
H3520 C3533 0.929 . S
H3521 C3531 0.929 . S
H3522 C3526 0.929 . S
H3523 C3532 0.929 . S
C3524 H3518 0.930 . S
C3524 C3525 1.367 . S
C3524 C3532 1.378 . S
C3525 C3524 1.367 . S
C3525 C3533 1.433 . S
C3526 H3522 0.929 . S
C3526 C3528 1.378 . S
C3526 C3530 1.350 . S
C3527 C3530 1.463 . S
C3527 C3532 1.350 . S
C3527 N3535 1.427 . S
C3528 H3519 0.930 . S
C3528 C3526 1.378 . S
C3528 C3529 1.367 . S
C3529 C3528 1.367 . S
C3529 C3531 1.433 . S
C3530 C3526 1.350 . S
C3530 C3527 1.463 . S
C3530 N3534 1.427 . S
C3531 H3521 0.929 . S
C3531 C3529 1.433 . S
C3531 N3534 1.384 . S
C3532 H3523 0.929 . S
C3532 C3524 1.378 . S
C3532 C3527 1.350 . S
C3533 H3520 0.929 . S
C3533 C3525 1.433 . S
C3533 N3535 1.384 . S
N3534 C3530 1.427 . S
N3534 C3531 1.384 . S
N3535 C3527 1.427 . S
N3535 C3533 1.384 . S
H3536 C3542 0.930 . S
H3537 C3546 0.930 . S
H3538 C3551 0.929 . S
H3539 C3549 0.929 . S
H3540 C3544 0.929 . S
H3541 C3550 0.929 . S
C3542 H3536 0.930 . S
C3542 C3543 1.367 . S
C3542 C3550 1.378 . S
C3543 C3542 1.367 . S
C3543 C3551 1.433 . S
C3544 H3540 0.929 . S
C3544 C3546 1.378 . S
C3544 C3548 1.350 . S
C3545 C3548 1.463 1_554 S
C3545 C3550 1.350 . S
C3545 N3553 1.427 . S
C3546 H3537 0.930 . S
C3546 C3544 1.378 . S
C3546 C3547 1.367 . S
C3547 C3546 1.367 . S
C3547 C3549 1.433 . S
C3548 C3544 1.350 . S
C3548 C3545 1.463 1_556 S
C3548 N3552 1.427 . S
C3549 H3539 0.929 . S
C3549 C3547 1.433 . S
C3549 N3552 1.384 . S
C3550 H3541 0.929 . S
C3550 C3542 1.378 . S
C3550 C3545 1.350 . S
C3551 H3538 0.929 . S
C3551 C3543 1.433 . S
C3551 N3553 1.384 . S
N3552 C3548 1.427 . S
N3552 C3549 1.384 . S
N3553 C3545 1.427 . S
N3553 C3551 1.384 . S
H3554 C3560 0.930 . S
H3555 C3564 0.930 . S
H3556 C3569 0.929 . S
H3557 C3567 0.929 . S
H3558 C3562 0.929 . S
H3559 C3568 0.929 . S
C3560 H3554 0.930 . S
C3560 C3561 1.367 . S
C3560 C3568 1.378 . S
C3561 C3560 1.367 . S
C3561 C3569 1.433 . S
C3562 H3558 0.929 . S
C3562 C3564 1.378 . S
C3562 C3566 1.350 . S
C3563 C3566 1.463 1_556 S
C3563 C3568 1.350 . S
C3563 N3571 1.427 . S
C3564 H3555 0.930 . S
C3564 C3562 1.378 . S
C3564 C3565 1.367 . S
C3565 C3564 1.367 . S
C3565 C3567 1.433 . S
C3566 C3562 1.350 . S
C3566 C3563 1.463 1_554 S
C3566 N3570 1.427 . S
C3567 H3557 0.929 . S
C3567 C3565 1.433 . S
C3567 N3570 1.384 . S
C3568 H3559 0.929 . S
C3568 C3560 1.378 . S
C3568 C3563 1.350 . S
C3569 H3556 0.929 . S
C3569 C3561 1.433 . S
C3569 N3571 1.384 . S
N3570 C3566 1.427 . S
N3570 C3567 1.384 . S
N3571 C3563 1.427 . S
N3571 C3569 1.384 . S
H3572 C3578 0.930 . S
H3573 C3582 0.930 . S
H3574 C3587 0.929 . S
H3575 C3585 0.929 . S
H3576 C3580 0.929 . S
H3577 C3586 0.929 . S
C3578 H3572 0.930 . S
C3578 C3579 1.367 . S
C3578 C3586 1.378 . S
C3579 C3578 1.367 . S
C3579 C3587 1.433 . S
C3580 H3576 0.929 . S
C3580 C3582 1.378 . S
C3580 C3584 1.350 . S
C3581 C3584 1.463 1_554 S
C3581 C3586 1.350 . S
C3581 N3589 1.427 . S
C3582 H3573 0.930 . S
C3582 C3580 1.378 . S
C3582 C3583 1.367 . S
C3583 C3582 1.367 . S
C3583 C3585 1.433 . S
C3584 C3580 1.350 . S
C3584 C3581 1.463 1_556 S
C3584 N3588 1.427 . S
C3585 H3575 0.929 . S
C3585 C3583 1.433 . S
C3585 N3588 1.384 . S
C3586 H3577 0.929 . S
C3586 C3578 1.378 . S
C3586 C3581 1.350 . S
C3587 H3574 0.929 . S
C3587 C3579 1.433 . S
C3587 N3589 1.384 . S
N3588 C3584 1.427 . S
N3588 C3585 1.384 . S
N3589 C3581 1.427 . S
N3589 C3587 1.384 . S
H3590 C3596 0.930 . S
H3591 C3600 0.930 . S
H3592 C3605 0.929 . S
H3593 C3603 0.929 . S
H3594 C3598 0.929 . S
H3595 C3604 0.929 . S
C3596 H3590 0.930 . S
C3596 C3597 1.367 . S
C3596 C3604 1.378 . S
C3597 C3596 1.367 . S
C3597 C3605 1.433 . S
C3598 H3594 0.929 . S
C3598 C3600 1.378 . S
C3598 C3602 1.350 . S
C3599 C3602 1.463 1_554 S
C3599 C3604 1.350 . S
C3599 N3607 1.427 . S
C3600 H3591 0.930 . S
C3600 C3598 1.378 . S
C3600 C3601 1.367 . S
C3601 C3600 1.367 . S
C3601 C3603 1.433 . S
C3602 C3598 1.350 . S
C3602 C3599 1.463 1_556 S
C3602 N3606 1.427 . S
C3603 H3593 0.929 . S
C3603 C3601 1.433 . S
C3603 N3606 1.384 . S
C3604 H3595 0.929 . S
C3604 C3596 1.378 . S
C3604 C3599 1.350 . S
C3605 H3592 0.929 . S
C3605 C3597 1.433 . S
C3605 N3607 1.384 . S
N3606 C3602 1.427 . S
N3606 C3603 1.384 . S
N3607 C3599 1.427 . S
N3607 C3605 1.384 . S
H3608 C3614 0.930 . S
H3609 C3618 0.930 . S
H3610 C3623 0.929 . S
H3611 C3621 0.929 . S
H3612 C3616 0.929 . S
H3613 C3622 0.929 . S
C3614 H3608 0.930 . S
C3614 C3615 1.367 . S
C3614 C3622 1.378 . S
C3615 C3614 1.367 . S
C3615 C3623 1.433 . S
C3616 H3612 0.929 . S
C3616 C3618 1.378 . S
C3616 C3620 1.350 . S
C3617 C3620 1.463 1_554 S
C3617 C3622 1.350 . S
C3617 N3625 1.427 . S
C3618 H3609 0.930 . S
C3618 C3616 1.378 . S
C3618 C3619 1.367 . S
C3619 C3618 1.367 . S
C3619 C3621 1.433 . S
C3620 C3616 1.350 . S
C3620 C3617 1.463 1_556 S
C3620 N3624 1.427 . S
C3621 H3611 0.929 . S
C3621 C3619 1.433 . S
C3621 N3624 1.384 . S
C3622 H3613 0.929 . S
C3622 C3614 1.378 . S
C3622 C3617 1.350 . S
C3623 H3610 0.929 . S
C3623 C3615 1.433 . S
C3623 N3625 1.384 . S
N3624 C3620 1.427 . S
N3624 C3621 1.384 . S
N3625 C3617 1.427 . S
N3625 C3623 1.384 . S
H3626 C3632 0.930 . S
H3627 C3636 0.930 . S
H3628 C3641 0.929 . S
H3629 C3639 0.929 . S
H3630 C3634 0.929 . S
H3631 C3640 0.929 . S
C3632 H3626 0.930 . S
C3632 C3633 1.367 . S
C3632 C3640 1.378 . S
C3633 C3632 1.367 . S
C3633 C3641 1.433 . S
C3634 H3630 0.929 . S
C3634 C3636 1.378 . S
C3634 C3638 1.350 . S
C3635 C3638 1.463 1_554 S
C3635 C3640 1.350 . S
C3635 N3643 1.427 . S
C3636 H3627 0.930 . S
C3636 C3634 1.378 . S
C3636 C3637 1.367 . S
C3637 C3636 1.367 . S
C3637 C3639 1.433 . S
C3638 C3634 1.350 . S
C3638 C3635 1.463 1_556 S
C3638 N3642 1.427 . S
C3639 H3629 0.929 . S
C3639 C3637 1.433 . S
C3639 N3642 1.384 . S
C3640 H3631 0.929 . S
C3640 C3632 1.378 . S
C3640 C3635 1.350 . S
C3641 H3628 0.929 . S
C3641 C3633 1.433 . S
C3641 N3643 1.384 . S
N3642 C3638 1.427 . S
N3642 C3639 1.384 . S
N3643 C3635 1.427 . S
N3643 C3641 1.384 . S
H3644 C3650 0.930 . S
H3645 C3654 0.930 . S
H3646 C3659 0.929 . S
H3647 C3657 0.929 . S
H3648 C3652 0.929 . S
H3649 C3658 0.929 . S
C3650 H3644 0.930 . S
C3650 C3651 1.367 . S
C3650 C3658 1.378 . S
C3651 C3650 1.367 . S
C3651 C3659 1.433 . S
C3652 H3648 0.929 . S
C3652 C3654 1.378 . S
C3652 C3656 1.350 . S
C3653 C3656 1.463 1_556 S
C3653 C3658 1.350 . S
C3653 N3661 1.427 . S
C3654 H3645 0.930 . S
C3654 C3652 1.378 . S
C3654 C3655 1.367 . S
C3655 C3654 1.367 . S
C3655 C3657 1.433 . S
C3656 C3652 1.350 . S
C3656 C3653 1.463 1_554 S
C3656 N3660 1.427 . S
C3657 H3647 0.929 . S
C3657 C3655 1.433 . S
C3657 N3660 1.384 . S
C3658 H3649 0.929 . S
C3658 C3650 1.378 . S
C3658 C3653 1.350 . S
C3659 H3646 0.929 . S
C3659 C3651 1.433 . S
C3659 N3661 1.384 . S
N3660 C3656 1.427 . S
N3660 C3657 1.384 . S
N3661 C3653 1.427 . S
N3661 C3659 1.384 . S
H3662 C3668 0.930 . S
H3663 C3672 0.930 . S
H3664 C3677 0.929 . S
H3665 C3675 0.929 . S
H3666 C3670 0.929 . S
H3667 C3676 0.929 . S
C3668 H3662 0.930 . S
C3668 C3669 1.367 . S
C3668 C3676 1.378 . S
C3669 C3668 1.367 . S
C3669 C3677 1.433 . S
C3670 H3666 0.929 . S
C3670 C3672 1.378 . S
C3670 C3674 1.350 . S
C3671 C3674 1.463 1_556 S
C3671 C3676 1.350 . S
C3671 N3679 1.427 . S
C3672 H3663 0.930 . S
C3672 C3670 1.378 . S
C3672 C3673 1.367 . S
C3673 C3672 1.367 . S
C3673 C3675 1.433 . S
C3674 C3670 1.350 . S
C3674 C3671 1.463 1_554 S
C3674 N3678 1.427 . S
C3675 H3665 0.929 . S
C3675 C3673 1.433 . S
C3675 N3678 1.384 . S
C3676 H3667 0.929 . S
C3676 C3668 1.378 . S
C3676 C3671 1.350 . S
C3677 H3664 0.929 . S
C3677 C3669 1.433 . S
C3677 N3679 1.384 . S
N3678 C3674 1.427 . S
N3678 C3675 1.384 . S
N3679 C3671 1.427 . S
N3679 C3677 1.384 . S
H3680 C3686 0.930 . S
H3681 C3690 0.930 . S
H3682 C3695 0.929 . S
H3683 C3693 0.929 . S
H3684 C3688 0.929 . S
H3685 C3694 0.929 . S
C3686 H3680 0.930 . S
C3686 C3687 1.367 . S
C3686 C3694 1.378 . S
C3687 C3686 1.367 . S
C3687 C3695 1.433 . S
C3688 H3684 0.929 . S
C3688 C3690 1.378 . S
C3688 C3692 1.350 . S
C3689 C3692 1.463 . S
C3689 C3694 1.350 . S
C3689 N3697 1.427 . S
C3690 H3681 0.930 . S
C3690 C3688 1.378 . S
C3690 C3691 1.367 . S
C3691 C3690 1.367 . S
C3691 C3693 1.433 . S
C3692 C3688 1.350 . S
C3692 C3689 1.463 . S
C3692 N3696 1.427 . S
C3693 H3683 0.929 . S
C3693 C3691 1.433 . S
C3693 N3696 1.384 . S
C3694 H3685 0.929 . S
C3694 C3686 1.378 . S
C3694 C3689 1.350 . S
C3695 H3682 0.929 . S
C3695 C3687 1.433 . S
C3695 N3697 1.384 . S
N3696 C3692 1.427 . S
N3696 C3693 1.384 . S
N3697 C3689 1.427 . S
N3697 C3695 1.384 . S
H3698 C3704 0.930 . S
H3699 C3708 0.930 . S
H3700 C3713 0.929 . S
H3701 C3711 0.929 . S
H3702 C3706 0.929 . S
H3703 C3712 0.929 . S
C3704 H3698 0.930 . S
C3704 C3705 1.367 . S
C3704 C3712 1.378 . S
C3705 C3704 1.367 . S
C3705 C3713 1.433 . S
C3706 H3702 0.929 . S
C3706 C3708 1.378 . S
C3706 C3710 1.350 . S
C3707 C3710 1.463 . S
C3707 C3712 1.350 . S
C3707 N3715 1.427 . S
C3708 H3699 0.930 . S
C3708 C3706 1.378 . S
C3708 C3709 1.367 . S
C3709 C3708 1.367 . S
C3709 C3711 1.433 . S
C3710 C3706 1.350 . S
C3710 C3707 1.463 . S
C3710 N3714 1.427 . S
C3711 H3701 0.929 . S
C3711 C3709 1.433 . S
C3711 N3714 1.384 . S
C3712 H3703 0.929 . S
C3712 C3704 1.378 . S
C3712 C3707 1.350 . S
C3713 H3700 0.929 . S
C3713 C3705 1.433 . S
C3713 N3715 1.384 . S
N3714 C3710 1.427 . S
N3714 C3711 1.384 . S
N3715 C3707 1.427 . S
N3715 C3713 1.384 . S
H3716 C3722 0.930 . S
H3717 C3726 0.930 . S
H3718 C3731 0.929 . S
H3719 C3729 0.929 . S
H3720 C3724 0.929 . S
H3721 C3730 0.929 . S
C3722 H3716 0.930 . S
C3722 C3723 1.367 . S
C3722 C3730 1.378 . S
C3723 C3722 1.367 . S
C3723 C3731 1.433 . S
C3724 H3720 0.929 . S
C3724 C3726 1.378 . S
C3724 C3728 1.350 . S
C3725 C3728 1.463 . S
C3725 C3730 1.350 . S
C3725 N3733 1.427 . S
C3726 H3717 0.930 . S
C3726 C3724 1.378 . S
C3726 C3727 1.367 . S
C3727 C3726 1.367 . S
C3727 C3729 1.433 . S
C3728 C3724 1.350 . S
C3728 C3725 1.463 . S
C3728 N3732 1.427 . S
C3729 H3719 0.929 . S
C3729 C3727 1.433 . S
C3729 N3732 1.384 . S
C3730 H3721 0.929 . S
C3730 C3722 1.378 . S
C3730 C3725 1.350 . S
C3731 H3718 0.929 . S
C3731 C3723 1.433 . S
C3731 N3733 1.384 . S
N3732 C3728 1.427 . S
N3732 C3729 1.384 . S
N3733 C3725 1.427 . S
N3733 C3731 1.384 . S
H3734 C3740 0.930 . S
H3735 C3744 0.930 . S
H3736 C3749 0.929 . S
H3737 C3747 0.929 . S
H3738 C3742 0.929 . S
H3739 C3748 0.929 . S
C3740 H3734 0.930 . S
C3740 C3741 1.367 . S
C3740 C3748 1.378 . S
C3741 C3740 1.367 . S
C3741 C3749 1.433 . S
C3742 H3738 0.929 . S
C3742 C3744 1.378 . S
C3742 C3746 1.350 . S
C3743 C3746 1.463 . S
C3743 C3748 1.350 . S
C3743 N3751 1.427 . S
C3744 H3735 0.930 . S
C3744 C3742 1.378 . S
C3744 C3745 1.367 . S
C3745 C3744 1.367 . S
C3745 C3747 1.433 . S
C3746 C3742 1.350 . S
C3746 C3743 1.463 . S
C3746 N3750 1.427 . S
C3747 H3737 0.929 . S
C3747 C3745 1.433 . S
C3747 N3750 1.384 . S
C3748 H3739 0.929 . S
C3748 C3740 1.378 . S
C3748 C3743 1.350 . S
C3749 H3736 0.929 . S
C3749 C3741 1.433 . S
C3749 N3751 1.384 . S
N3750 C3746 1.427 . S
N3750 C3747 1.384 . S
N3751 C3743 1.427 . S
N3751 C3749 1.384 . S
H3752 C3758 0.930 . S
H3753 C3762 0.930 . S
H3754 C3767 0.929 . S
H3755 C3765 0.929 . S
H3756 C3760 0.929 . S
H3757 C3766 0.929 . S
C3758 H3752 0.930 . S
C3758 C3759 1.367 . S
C3758 C3766 1.378 . S
C3759 C3758 1.367 . S
C3759 C3767 1.433 . S
C3760 H3756 0.929 . S
C3760 C3762 1.378 . S
C3760 C3764 1.350 . S
C3761 C3764 1.463 . S
C3761 C3766 1.350 . S
C3761 N3769 1.427 . S
C3762 H3753 0.930 . S
C3762 C3760 1.378 . S
C3762 C3763 1.367 . S
C3763 C3762 1.367 . S
C3763 C3765 1.433 . S
C3764 C3760 1.350 . S
C3764 C3761 1.463 . S
C3764 N3768 1.427 . S
C3765 H3755 0.929 . S
C3765 C3763 1.433 . S
C3765 N3768 1.384 . S
C3766 H3757 0.929 . S
C3766 C3758 1.378 . S
C3766 C3761 1.350 . S
C3767 H3754 0.929 . S
C3767 C3759 1.433 . S
C3767 N3769 1.384 . S
N3768 C3764 1.427 . S
N3768 C3765 1.384 . S
N3769 C3761 1.427 . S
N3769 C3767 1.384 . S
H3770 C3776 0.930 . S
H3771 C3780 0.930 . S
H3772 C3785 0.929 . S
H3773 C3783 0.929 . S
H3774 C3778 0.929 . S
H3775 C3784 0.929 . S
C3776 H3770 0.930 . S
C3776 C3777 1.367 . S
C3776 C3784 1.378 . S
C3777 C3776 1.367 . S
C3777 C3785 1.433 . S
C3778 H3774 0.929 . S
C3778 C3780 1.378 . S
C3778 C3782 1.350 . S
C3779 C3782 1.463 . S
C3779 C3784 1.350 . S
C3779 N3787 1.427 . S
C3780 H3771 0.930 . S
C3780 C3778 1.378 . S
C3780 C3781 1.367 . S
C3781 C3780 1.367 . S
C3781 C3783 1.433 . S
C3782 C3778 1.350 . S
C3782 C3779 1.463 . S
C3782 N3786 1.427 . S
C3783 H3773 0.929 . S
C3783 C3781 1.433 . S
C3783 N3786 1.384 . S
C3784 H3775 0.929 . S
C3784 C3776 1.378 . S
C3784 C3779 1.350 . S
C3785 H3772 0.929 . S
C3785 C3777 1.433 . S
C3785 N3787 1.384 . S
N3786 C3782 1.427 . S
N3786 C3783 1.384 . S
N3787 C3779 1.427 . S
N3787 C3785 1.384 . S
H3788 C3794 0.930 . S
H3789 C3798 0.930 . S
H3790 C3803 0.929 . S
H3791 C3801 0.929 . S
H3792 C3796 0.929 . S
H3793 C3802 0.929 . S
C3794 H3788 0.930 . S
C3794 C3795 1.367 . S
C3794 C3802 1.378 . S
C3795 C3794 1.367 . S
C3795 C3803 1.433 . S
C3796 H3792 0.929 . S
C3796 C3798 1.378 . S
C3796 C3800 1.350 . S
C3797 C3800 1.463 . S
C3797 C3802 1.350 . S
C3797 N3805 1.427 . S
C3798 H3789 0.930 . S
C3798 C3796 1.378 . S
C3798 C3799 1.367 . S
C3799 C3798 1.367 . S
C3799 C3801 1.433 . S
C3800 C3796 1.350 . S
C3800 C3797 1.463 . S
C3800 N3804 1.427 . S
C3801 H3791 0.929 . S
C3801 C3799 1.433 . S
C3801 N3804 1.384 . S
C3802 H3793 0.929 . S
C3802 C3794 1.378 . S
C3802 C3797 1.350 . S
C3803 H3790 0.929 . S
C3803 C3795 1.433 . S
C3803 N3805 1.384 . S
N3804 C3800 1.427 . S
N3804 C3801 1.384 . S
N3805 C3797 1.427 . S
N3805 C3803 1.384 . S
H3806 C3812 0.930 . S
H3807 C3816 0.930 . S
H3808 C3821 0.929 . S
H3809 C3819 0.929 . S
H3810 C3814 0.929 . S
H3811 C3820 0.929 . S
C3812 H3806 0.930 . S
C3812 C3813 1.367 . S
C3812 C3820 1.378 . S
C3813 C3812 1.367 . S
C3813 C3821 1.433 . S
C3814 H3810 0.929 . S
C3814 C3816 1.378 . S
C3814 C3818 1.350 . S
C3815 C3818 1.463 . S
C3815 C3820 1.350 . S
C3815 N3823 1.427 . S
C3816 H3807 0.930 . S
C3816 C3814 1.378 . S
C3816 C3817 1.367 . S
C3817 C3816 1.367 . S
C3817 C3819 1.433 . S
C3818 C3814 1.350 . S
C3818 C3815 1.463 . S
C3818 N3822 1.427 . S
C3819 H3809 0.929 . S
C3819 C3817 1.433 . S
C3819 N3822 1.384 . S
C3820 H3811 0.929 . S
C3820 C3812 1.378 . S
C3820 C3815 1.350 . S
C3821 H3808 0.929 . S
C3821 C3813 1.433 . S
C3821 N3823 1.384 . S
N3822 C3818 1.427 . S
N3822 C3819 1.384 . S
N3823 C3815 1.427 . S
N3823 C3821 1.384 . S
H3824 C3830 0.930 . S
H3825 C3834 0.930 . S
H3826 C3839 0.929 . S
H3827 C3837 0.929 . S
H3828 C3832 0.929 . S
H3829 C3838 0.929 . S
C3830 H3824 0.930 . S
C3830 C3831 1.367 . S
C3830 C3838 1.378 . S
C3831 C3830 1.367 . S
C3831 C3839 1.433 . S
C3832 H3828 0.929 . S
C3832 C3834 1.378 . S
C3832 C3836 1.350 . S
C3833 C3836 1.463 . S
C3833 C3838 1.350 . S
C3833 N3841 1.427 . S
C3834 H3825 0.930 . S
C3834 C3832 1.378 . S
C3834 C3835 1.367 . S
C3835 C3834 1.367 . S
C3835 C3837 1.433 . S
C3836 C3832 1.350 . S
C3836 C3833 1.463 . S
C3836 N3840 1.427 . S
C3837 H3827 0.929 . S
C3837 C3835 1.433 . S
C3837 N3840 1.384 . S
C3838 H3829 0.929 . S
C3838 C3830 1.378 . S
C3838 C3833 1.350 . S
C3839 H3826 0.929 . S
C3839 C3831 1.433 . S
C3839 N3841 1.384 . S
N3840 C3836 1.427 . S
N3840 C3837 1.384 . S
N3841 C3833 1.427 . S
N3841 C3839 1.384 . S
H3842 C3848 0.930 . S
H3843 C3852 0.930 . S
H3844 C3857 0.929 . S
H3845 C3855 0.929 . S
H3846 C3850 0.929 . S
H3847 C3856 0.929 . S
C3848 H3842 0.930 . S
C3848 C3849 1.367 . S
C3848 C3856 1.378 . S
C3849 C3848 1.367 . S
C3849 C3857 1.433 . S
C3850 H3846 0.929 . S
C3850 C3852 1.378 . S
C3850 C3854 1.350 . S
C3851 C3854 1.463 . S
C3851 C3856 1.350 . S
C3851 N3859 1.427 . S
C3852 H3843 0.930 . S
C3852 C3850 1.378 . S
C3852 C3853 1.367 . S
C3853 C3852 1.367 . S
C3853 C3855 1.433 . S
C3854 C3850 1.350 . S
C3854 C3851 1.463 . S
C3854 N3858 1.427 . S
C3855 H3845 0.929 . S
C3855 C3853 1.433 . S
C3855 N3858 1.384 . S
C3856 H3847 0.929 . S
C3856 C3848 1.378 . S
C3856 C3851 1.350 . S
C3857 H3844 0.929 . S
C3857 C3849 1.433 . S
C3857 N3859 1.384 . S
N3858 C3854 1.427 . S
N3858 C3855 1.384 . S
N3859 C3851 1.427 . S
N3859 C3857 1.384 . S
H3860 C3866 0.930 . S
H3861 C3870 0.930 . S
H3862 C3875 0.929 . S
H3863 C3873 0.929 . S
H3864 C3868 0.929 . S
H3865 C3874 0.929 . S
C3866 H3860 0.930 . S
C3866 C3867 1.367 . S
C3866 C3874 1.378 . S
C3867 C3866 1.367 . S
C3867 C3875 1.433 . S
C3868 H3864 0.929 . S
C3868 C3870 1.378 . S
C3868 C3872 1.350 . S
C3869 C3872 1.463 . S
C3869 C3874 1.350 . S
C3869 N3877 1.427 . S
C3870 H3861 0.930 . S
C3870 C3868 1.378 . S
C3870 C3871 1.367 . S
C3871 C3870 1.367 . S
C3871 C3873 1.433 . S
C3872 C3868 1.350 . S
C3872 C3869 1.463 . S
C3872 N3876 1.427 . S
C3873 H3863 0.929 . S
C3873 C3871 1.433 . S
C3873 N3876 1.384 . S
C3874 H3865 0.929 . S
C3874 C3866 1.378 . S
C3874 C3869 1.350 . S
C3875 H3862 0.929 . S
C3875 C3867 1.433 . S
C3875 N3877 1.384 . S
N3876 C3872 1.427 . S
N3876 C3873 1.384 . S
N3877 C3869 1.427 . S
N3877 C3875 1.384 . S
H3878 C3884 0.930 . S
H3879 C3888 0.930 . S
H3880 C3893 0.929 . S
H3881 C3891 0.929 . S
H3882 C3886 0.929 . S
H3883 C3892 0.929 . S
C3884 H3878 0.930 . S
C3884 C3885 1.367 . S
C3884 C3892 1.378 . S
C3885 C3884 1.367 . S
C3885 C3893 1.433 . S
C3886 H3882 0.929 . S
C3886 C3888 1.378 . S
C3886 C3890 1.350 . S
C3887 C3890 1.463 . S
C3887 C3892 1.350 . S
C3887 N3895 1.427 . S
C3888 H3879 0.930 . S
C3888 C3886 1.378 . S
C3888 C3889 1.367 . S
C3889 C3888 1.367 . S
C3889 C3891 1.433 . S
C3890 C3886 1.350 . S
C3890 C3887 1.463 . S
C3890 N3894 1.427 . S
C3891 H3881 0.929 . S
C3891 C3889 1.433 . S
C3891 N3894 1.384 . S
C3892 H3883 0.929 . S
C3892 C3884 1.378 . S
C3892 C3887 1.350 . S
C3893 H3880 0.929 . S
C3893 C3885 1.433 . S
C3893 N3895 1.384 . S
N3894 C3890 1.427 . S
N3894 C3891 1.384 . S
N3895 C3887 1.427 . S
N3895 C3893 1.384 . S
H3896 C3902 0.930 . S
H3897 C3906 0.930 . S
H3898 C3911 0.929 . S
H3899 C3909 0.929 . S
H3900 C3904 0.929 . S
H3901 C3910 0.929 . S
C3902 H3896 0.930 . S
C3902 C3903 1.367 . S
C3902 C3910 1.378 . S
C3903 C3902 1.367 . S
C3903 C3911 1.433 . S
C3904 H3900 0.929 . S
C3904 C3906 1.378 . S
C3904 C3908 1.350 . S
C3905 C3908 1.463 . S
C3905 C3910 1.350 . S
C3905 N3913 1.427 . S
C3906 H3897 0.930 . S
C3906 C3904 1.378 . S
C3906 C3907 1.367 . S
C3907 C3906 1.367 . S
C3907 C3909 1.433 . S
C3908 C3904 1.350 . S
C3908 C3905 1.463 . S
C3908 N3912 1.427 . S
C3909 H3899 0.929 . S
C3909 C3907 1.433 . S
C3909 N3912 1.384 . S
C3910 H3901 0.929 . S
C3910 C3902 1.378 . S
C3910 C3905 1.350 . S
C3911 H3898 0.929 . S
C3911 C3903 1.433 . S
C3911 N3913 1.384 . S
N3912 C3908 1.427 . S
N3912 C3909 1.384 . S
N3913 C3905 1.427 . S
N3913 C3911 1.384 . S
H3914 C3920 0.930 . S
H3915 C3924 0.930 . S
H3916 C3929 0.929 . S
H3917 C3927 0.929 . S
H3918 C3922 0.929 . S
H3919 C3928 0.929 . S
C3920 H3914 0.930 . S
C3920 C3921 1.367 . S
C3920 C3928 1.378 . S
C3921 C3920 1.367 . S
C3921 C3929 1.433 . S
C3922 H3918 0.929 . S
C3922 C3924 1.378 . S
C3922 C3926 1.350 . S
C3923 C3926 1.463 . S
C3923 C3928 1.350 . S
C3923 N3931 1.427 . S
C3924 H3915 0.930 . S
C3924 C3922 1.378 . S
C3924 C3925 1.367 . S
C3925 C3924 1.367 . S
C3925 C3927 1.433 . S
C3926 C3922 1.350 . S
C3926 C3923 1.463 . S
C3926 N3930 1.427 . S
C3927 H3917 0.929 . S
C3927 C3925 1.433 . S
C3927 N3930 1.384 . S
C3928 H3919 0.929 . S
C3928 C3920 1.378 . S
C3928 C3923 1.350 . S
C3929 H3916 0.929 . S
C3929 C3921 1.433 . S
C3929 N3931 1.384 . S
N3930 C3926 1.427 . S
N3930 C3927 1.384 . S
N3931 C3923 1.427 . S
N3931 C3929 1.384 . S
H3932 C3938 0.930 . S
H3933 C3942 0.930 . S
H3934 C3947 0.929 . S
H3935 C3945 0.929 . S
H3936 C3940 0.929 . S
H3937 C3946 0.929 . S
C3938 H3932 0.930 . S
C3938 C3939 1.367 . S
C3938 C3946 1.378 . S
C3939 C3938 1.367 . S
C3939 C3947 1.433 . S
C3940 H3936 0.929 . S
C3940 C3942 1.378 . S
C3940 C3944 1.350 . S
C3941 C3944 1.463 . S
C3941 C3946 1.350 . S
C3941 N3949 1.427 . S
C3942 H3933 0.930 . S
C3942 C3940 1.378 . S
C3942 C3943 1.367 . S
C3943 C3942 1.367 . S
C3943 C3945 1.433 . S
C3944 C3940 1.350 . S
C3944 C3941 1.463 . S
C3944 N3948 1.427 . S
C3945 H3935 0.929 . S
C3945 C3943 1.433 . S
C3945 N3948 1.384 . S
C3946 H3937 0.929 . S
C3946 C3938 1.378 . S
C3946 C3941 1.350 . S
C3947 H3934 0.929 . S
C3947 C3939 1.433 . S
C3947 N3949 1.384 . S
N3948 C3944 1.427 . S
N3948 C3945 1.384 . S
N3949 C3941 1.427 . S
N3949 C3947 1.384 . S
H3950 C3956 0.930 . S
H3951 C3960 0.930 . S
H3952 C3965 0.929 . S
H3953 C3963 0.929 . S
H3954 C3958 0.929 . S
H3955 C3964 0.929 . S
C3956 H3950 0.930 . S
C3956 C3957 1.367 . S
C3956 C3964 1.378 . S
C3957 C3956 1.367 . S
C3957 C3965 1.433 . S
C3958 H3954 0.929 . S
C3958 C3960 1.378 . S
C3958 C3962 1.350 . S
C3959 C3962 1.463 . S
C3959 C3964 1.350 . S
C3959 N3967 1.427 . S
C3960 H3951 0.930 . S
C3960 C3958 1.378 . S
C3960 C3961 1.367 . S
C3961 C3960 1.367 . S
C3961 C3963 1.433 . S
C3962 C3958 1.350 . S
C3962 C3959 1.463 . S
C3962 N3966 1.427 . S
C3963 H3953 0.929 . S
C3963 C3961 1.433 . S
C3963 N3966 1.384 . S
C3964 H3955 0.929 . S
C3964 C3956 1.378 . S
C3964 C3959 1.350 . S
C3965 H3952 0.929 . S
C3965 C3957 1.433 . S
C3965 N3967 1.384 . S
N3966 C3962 1.427 . S
N3966 C3963 1.384 . S
N3967 C3959 1.427 . S
N3967 C3965 1.384 . S
C2823 C1377 1.345 . S
C2827 C29 1.342 . S
C2841 C108 1.345 . S
C2845 C1105 1.342 . S
C2859 C196 1.340 . S
C2863 C1201 1.346 . S
C2877 C1281 1.348 . S
C2881 C293 1.338 . S
C2895 C401 1.340 . S
C2899 C821 1.346 . S
C2913 C497 1.340 . S
C2917 C909 1.347 . S
C2931 C997 1.340 . S
C2935 C585 1.347 . S
C2949 C724 1.346 . S
C2953 C665 1.341 . S
C2967 C1437 1.343 . S
C2971 C2785 1.343 . S
C2985 C1516 1.346 . S
C2989 C2521 1.340 . S
C3003 C1604 1.342 . S
C3007 C2601 1.344 . S
C3021 C2689 1.343 . S
C3025 C1701 1.345 . S
C3039 C1809 1.341 . S
C3043 C2229 1.347 . S
C3057 C1905 1.346 . S
C3061 C2317 1.340 . S
C3075 C2396 1.340 . S
C3079 C1985 1.347 . S
C3093 C2073 1.341 . S
C3097 C2132 1.345 . S
C3111 C1076 0.828 . S
C3115 C57 0.815 . S
C3129 C137 0.824 . S
C3133 C1173 0.817 . S
C3147 C1252 0.821 . S
C3151 C225 0.822 . S
C3165 C321 0.828 . S
C3169 C1349 0.814 . S
C3183 C372 0.829 . S
C3187 C753 0.813 . S
C3201 C849 0.827 . S
C3205 C469 0.816 . S
C3219 C937 0.829 . S
C3223 C557 0.814 . S
C3237 C1025 0.829 . S
C3241 C636 0.814 . S
C3255 C1465 0.814 . S
C3259 C2493 0.829 . S
C3273 C2572 0.828 . S
C3277 C1545 0.815 . S
C3291 C1633 0.827 . S
C3295 C2660 0.815 . S
C3309 C1729 0.828 . S
C3313 C2757 0.814 . S
C3327 C2161 0.826 . S
C3331 C1780 0.817 . S
C3345 C1877 0.815 . S
C3349 C2257 0.827 . S
C3363 C1956 0.820 . S
C3367 C2345 0.821 . S
C3381 C2044 0.829 . S
C3385 C2425 0.813 . S
C3399 C20 1.502 . S
C3403 C929 1.499 . S
C3417 C1017 1.500 . S
C3421 C117 1.501 . S
C3435 C205 1.500 . S
C3439 C761 1.501 . S
C3453 C841 1.501 . S
C3457 C284 1.499 . S
C3471 C1261 1.499 . S
C3475 C409 1.501 . S
C3489 C1340 1.501 . S
C3493 C489 1.499 . S
C3507 C1085 1.502 . S
C3511 C577 1.498 . S
C3525 C673 1.501 . S
C3529 C1164 1.500 . S
C3543 C2337 1.502 . S
C3547 C1428 1.499 . S
C3561 C1525 1.501 . S
C3565 C2433 1.500 . S
C3579 C2169 1.499 . S
C3583 C1613 1.501 . S
C3597 C2249 1.500 . S
C3601 C1692 1.501 . S
C3615 C1817 1.499 . S
C3619 C2669 1.501 . S
C3633 C1897 1.502 . S
C3637 C2748 1.499 . S
C3651 C2484 1.499 . S
C3655 C1993 1.502 . S
C3669 C2581 1.499 . S
C3673 C2081 1.501 . S
C3687 C2053 1.219 . S
C3691 C49 1.223 . S
C3705 C1789 1.221 . S
C3709 C145 1.222 . S
C3723 C1868 1.222 . S
C3727 C233 1.216 . S
C3741 C1965 1.219 . S
C3745 C313 1.223 . S
C3759 C1553 1.221 . S
C3763 C381 1.214 . S
C3777 C460 1.214 . S
C3781 C1641 1.216 . S
C3795 C548 1.216 . S
C3799 C1721 1.214 . S
C3813 C645 1.219 . S
C3817 C1457 1.213 . S
C3831 C733 1.224 . S
C3835 C2777 1.221 . S
C3849 C2513 1.215 . S
C3853 C812 1.217 . S
C3867 C900 1.218 . S
C3871 C2609 1.224 . S
C3885 C988 1.224 . S
C3889 C2697 1.221 . S
C3903 C2220 1.216 . S
C3907 C1113 1.216 . S
C3921 C2308 1.216 . S
C3925 C1193 1.216 . S
C3939 C1289 1.219 . S
C3943 C2405 1.214 . S
C3957 C1369 1.223 . S
C3961 C2141 1.221 . S
