# Generated by pormake.
# Topology mer, (4)-cn, num edge types: 1
# Building blocks:
#     Node 0, Type 0, BuildingBlock: CEKHIL_clean_sbu_0, # of connection points: 4
#     Node 1, Type 0, BuildingBlock: CEKHIL_clean_sbu_0, # of connection points: 4
#     Node 2, Type 0, BuildingBlock: CEKHIL_clean_sbu_0, # of connection points: 4
#     Node 3, Type 0, BuildingBlock: CEKHIL_clean_sbu_0, # of connection points: 4
#     Node 4, Type 0, BuildingBlock: CEKHIL_clean_sbu_0, # of connection points: 4
#     Node 5, Type 0, BuildingBlock: CEKHIL_clean_sbu_0, # of connection points: 4
#     Node 6, Type 0, BuildingBlock: CEKHIL_clean_sbu_0, # of connection points: 4
#     Node 7, Type 0, BuildingBlock: CEKHIL_clean_sbu_0, # of connection points: 4
#     Node 8, Type 0, BuildingBlock: CEKHIL_clean_sbu_0, # of connection points: 4
#     Node 9, Type 0, BuildingBlock: CEKHIL_clean_sbu_0, # of connection points: 4
#     Node 10, Type 0, BuildingBlock: CEKHIL_clean_sbu_0, # of connection points: 4
#     Node 11, Type 0, BuildingBlock: CEKHIL_clean_sbu_0, # of connection points: 4
#     Node 12, Type 0, BuildingBlock: CEKHIL_clean_sbu_0, # of connection points: 4
#     Node 13, Type 0, BuildingBlock: CEKHIL_clean_sbu_0, # of connection points: 4
#     Node 14, Type 0, BuildingBlock: CEKHIL_clean_sbu_0, # of connection points: 4
#     Node 15, Type 0, BuildingBlock: CEKHIL_clean_sbu_0, # of connection points: 4
#     Node 16, Type 0, BuildingBlock: CEKHIL_clean_sbu_0, # of connection points: 4
#     Node 17, Type 0, BuildingBlock: CEKHIL_clean_sbu_0, # of connection points: 4
#     Node 18, Type 0, BuildingBlock: CEKHIL_clean_sbu_0, # of connection points: 4
#     Node 19, Type 0, BuildingBlock: CEKHIL_clean_sbu_0, # of connection points: 4
#     Node 20, Type 0, BuildingBlock: CEKHIL_clean_sbu_0, # of connection points: 4
#     Node 21, Type 0, BuildingBlock: CEKHIL_clean_sbu_0, # of connection points: 4
#     Node 22, Type 0, BuildingBlock: CEKHIL_clean_sbu_0, # of connection points: 4
#     Node 23, Type 0, BuildingBlock: CEKHIL_clean_sbu_0, # of connection points: 4
#     Node 24, Type 0, BuildingBlock: CEKHIL_clean_sbu_0, # of connection points: 4
#     Node 25, Type 0, BuildingBlock: CEKHIL_clean_sbu_0, # of connection points: 4
#     Node 26, Type 0, BuildingBlock: CEKHIL_clean_sbu_0, # of connection points: 4
#     Node 27, Type 0, BuildingBlock: CEKHIL_clean_sbu_0, # of connection points: 4
#     Node 28, Type 0, BuildingBlock: CEKHIL_clean_sbu_0, # of connection points: 4
#     Node 29, Type 0, BuildingBlock: CEKHIL_clean_sbu_0, # of connection points: 4
#     Node 30, Type 0, BuildingBlock: CEKHIL_clean_sbu_0, # of connection points: 4
#     Node 31, Type 0, BuildingBlock: CEKHIL_clean_sbu_0, # of connection points: 4
#     Edge 32, Type (0, 0), BuildingBlock: CIFDUS_clean_linker_0, # of connection points: 2
#     Edge 33, Type (0, 0), BuildingBlock: CIFDUS_clean_linker_0, # of connection points: 2
#     Edge 34, Type (0, 0), BuildingBlock: CIFDUS_clean_linker_0, # of connection points: 2
#     Edge 35, Type (0, 0), BuildingBlock: CIFDUS_clean_linker_0, # of connection points: 2
#     Edge 36, Type (0, 0), BuildingBlock: CIFDUS_clean_linker_0, # of connection points: 2
#     Edge 37, Type (0, 0), BuildingBlock: CIFDUS_clean_linker_0, # of connection points: 2
#     Edge 38, Type (0, 0), BuildingBlock: CIFDUS_clean_linker_0, # of connection points: 2
#     Edge 39, Type (0, 0), BuildingBlock: CIFDUS_clean_linker_0, # of connection points: 2
#     Edge 40, Type (0, 0), BuildingBlock: CIFDUS_clean_linker_0, # of connection points: 2
#     Edge 41, Type (0, 0), BuildingBlock: CIFDUS_clean_linker_0, # of connection points: 2
#     Edge 42, Type (0, 0), BuildingBlock: CIFDUS_clean_linker_0, # of connection points: 2
#     Edge 43, Type (0, 0), BuildingBlock: CIFDUS_clean_linker_0, # of connection points: 2
#     Edge 44, Type (0, 0), BuildingBlock: CIFDUS_clean_linker_0, # of connection points: 2
#     Edge 45, Type (0, 0), BuildingBlock: CIFDUS_clean_linker_0, # of connection points: 2
#     Edge 46, Type (0, 0), BuildingBlock: CIFDUS_clean_linker_0, # of connection points: 2
#     Edge 47, Type (0, 0), BuildingBlock: CIFDUS_clean_linker_0, # of connection points: 2
#     Edge 48, Type (0, 0), BuildingBlock: CIFDUS_clean_linker_0, # of connection points: 2
#     Edge 49, Type (0, 0), BuildingBlock: CIFDUS_clean_linker_0, # of connection points: 2
#     Edge 50, Type (0, 0), BuildingBlock: CIFDUS_clean_linker_0, # of connection points: 2
#     Edge 51, Type (0, 0), BuildingBlock: CIFDUS_clean_linker_0, # of connection points: 2
#     Edge 52, Type (0, 0), BuildingBlock: CIFDUS_clean_linker_0, # of connection points: 2
#     Edge 53, Type (0, 0), BuildingBlock: CIFDUS_clean_linker_0, # of connection points: 2
#     Edge 54, Type (0, 0), BuildingBlock: CIFDUS_clean_linker_0, # of connection points: 2
#     Edge 55, Type (0, 0), BuildingBlock: CIFDUS_clean_linker_0, # of connection points: 2
#     Edge 56, Type (0, 0), BuildingBlock: CIFDUS_clean_linker_0, # of connection points: 2
#     Edge 57, Type (0, 0), BuildingBlock: CIFDUS_clean_linker_0, # of connection points: 2
#     Edge 58, Type (0, 0), BuildingBlock: CIFDUS_clean_linker_0, # of connection points: 2
#     Edge 59, Type (0, 0), BuildingBlock: CIFDUS_clean_linker_0, # of connection points: 2
#     Edge 60, Type (0, 0), BuildingBlock: CIFDUS_clean_linker_0, # of connection points: 2
#     Edge 61, Type (0, 0), BuildingBlock: CIFDUS_clean_linker_0, # of connection points: 2
#     Edge 62, Type (0, 0), BuildingBlock: CIFDUS_clean_linker_0, # of connection points: 2
#     Edge 63, Type (0, 0), BuildingBlock: CIFDUS_clean_linker_0, # of connection points: 2
#     Edge 64, Type (0, 0), BuildingBlock: CIFDUS_clean_linker_0, # of connection points: 2
#     Edge 65, Type (0, 0), BuildingBlock: CIFDUS_clean_linker_0, # of connection points: 2
#     Edge 66, Type (0, 0), BuildingBlock: CIFDUS_clean_linker_0, # of connection points: 2
#     Edge 67, Type (0, 0), BuildingBlock: CIFDUS_clean_linker_0, # of connection points: 2
#     Edge 68, Type (0, 0), BuildingBlock: CIFDUS_clean_linker_0, # of connection points: 2
#     Edge 69, Type (0, 0), BuildingBlock: CIFDUS_clean_linker_0, # of connection points: 2
#     Edge 70, Type (0, 0), BuildingBlock: CIFDUS_clean_linker_0, # of connection points: 2
#     Edge 71, Type (0, 0), BuildingBlock: CIFDUS_clean_linker_0, # of connection points: 2
#     Edge 72, Type (0, 0), BuildingBlock: CIFDUS_clean_linker_0, # of connection points: 2
#     Edge 73, Type (0, 0), BuildingBlock: CIFDUS_clean_linker_0, # of connection points: 2
#     Edge 74, Type (0, 0), BuildingBlock: CIFDUS_clean_linker_0, # of connection points: 2
#     Edge 75, Type (0, 0), BuildingBlock: CIFDUS_clean_linker_0, # of connection points: 2
#     Edge 76, Type (0, 0), BuildingBlock: CIFDUS_clean_linker_0, # of connection points: 2
#     Edge 77, Type (0, 0), BuildingBlock: CIFDUS_clean_linker_0, # of connection points: 2
#     Edge 78, Type (0, 0), BuildingBlock: CIFDUS_clean_linker_0, # of connection points: 2
#     Edge 79, Type (0, 0), BuildingBlock: CIFDUS_clean_linker_0, # of connection points: 2
#     Edge 80, Type (0, 0), BuildingBlock: CIFDUS_clean_linker_0, # of connection points: 2
#     Edge 81, Type (0, 0), BuildingBlock: CIFDUS_clean_linker_0, # of connection points: 2
#     Edge 82, Type (0, 0), BuildingBlock: CIFDUS_clean_linker_0, # of connection points: 2
#     Edge 83, Type (0, 0), BuildingBlock: CIFDUS_clean_linker_0, # of connection points: 2
#     Edge 84, Type (0, 0), BuildingBlock: CIFDUS_clean_linker_0, # of connection points: 2
#     Edge 85, Type (0, 0), BuildingBlock: CIFDUS_clean_linker_0, # of connection points: 2
#     Edge 86, Type (0, 0), BuildingBlock: CIFDUS_clean_linker_0, # of connection points: 2
#     Edge 87, Type (0, 0), BuildingBlock: CIFDUS_clean_linker_0, # of connection points: 2
#     Edge 88, Type (0, 0), BuildingBlock: CIFDUS_clean_linker_0, # of connection points: 2
#     Edge 89, Type (0, 0), BuildingBlock: CIFDUS_clean_linker_0, # of connection points: 2
#     Edge 90, Type (0, 0), BuildingBlock: CIFDUS_clean_linker_0, # of connection points: 2
#     Edge 91, Type (0, 0), BuildingBlock: CIFDUS_clean_linker_0, # of connection points: 2
#     Edge 92, Type (0, 0), BuildingBlock: CIFDUS_clean_linker_0, # of connection points: 2
#     Edge 93, Type (0, 0), BuildingBlock: CIFDUS_clean_linker_0, # of connection points: 2
#     Edge 94, Type (0, 0), BuildingBlock: CIFDUS_clean_linker_0, # of connection points: 2
#     Edge 95, Type (0, 0), BuildingBlock: CIFDUS_clean_linker_0, # of connection points: 2
# Relax obj value: 0.065
# Max RMSD: 0.119
# Mean RMSD: 0.119
data_MOF--net-mer--node1-CEKHIL_clean_sbu_0--edge1-CIFDUS_clean_linker_0
_symmetry_space_group_name_H-M    P1
_symmetry_Int_Tables_number       1
_symmetry_cell_setting            triclinic
loop_
_symmetry_equiv_pos_as_xyz
'x, y, z'
_cell_length_a     54.489948
_cell_length_b     54.508706
_cell_length_c     46.339525
_cell_angle_alpha  90.006127
_cell_angle_beta   90.008717
_cell_angle_gamma 90.013835
loop_
_atom_site_label
_atom_site_type_symbol
_atom_site_fract_x
_atom_site_fract_y
_atom_site_fract_z
_atom_type_partial_charge
Co0 Co 0.1192 0.27689 0.3565 0.0
O1 O 0.08823 0.29352 0.35679 0.0
O2 O 0.09306 0.25373 0.36457 0.0
C3 C 0.13301 0.29395 0.31498 0.0
O4 O 0.14812 0.25317 0.35661 0.0
Co5 Co 0.16732 0.30625 0.36188 0.0
O6 O 0.18216 0.27521 0.34785 0.0
C7 C 0.1375 0.2977 0.41403 0.0
C8 C 0.07828 0.27236 0.36202 0.0
C9 C 0.17105 0.25472 0.35022 0.0
O10 O 0.12337 0.28362 0.39915 0.0
O11 O 0.15521 0.30983 0.40274 0.0
O12 O 0.1184 0.27514 0.31454 0.0
O13 O 0.13701 0.30326 0.34027 0.0
Co14 Co 0.7106 0.11579 0.35652 0.0
O15 O 0.69178 0.08699 0.3641 0.0
O16 O 0.73221 0.08743 0.35936 0.0
C17 C 0.68608 0.13025 0.32131 0.0
O18 O 0.73563 0.14276 0.34762 0.0
Co19 Co 0.68599 0.16682 0.367 0.0
O20 O 0.71401 0.17782 0.34298 0.0
C21 C 0.70101 0.13576 0.41615 0.0
C22 C 0.71223 0.0749 0.3641 0.0
C23 C 0.73371 0.16544 0.33998 0.0
O24 O 0.71345 0.12182 0.39924 0.0
O25 O 0.68721 0.15319 0.40716 0.0
O26 O 0.70264 0.11381 0.31545 0.0
O27 O 0.68349 0.13542 0.34825 0.0
Co28 Co 0.88187 0.71594 0.36633 0.0
O29 O 0.91272 0.69918 0.36849 0.0
O30 O 0.90834 0.73957 0.36971 0.0
C31 C 0.86637 0.69419 0.32902 0.0
O32 O 0.85301 0.73962 0.36367 0.0
Co33 Co 0.83342 0.68744 0.37805 0.0
O34 O 0.81838 0.71724 0.36097 0.0
C35 C 0.86588 0.70073 0.42663 0.0
C36 C 0.9229 0.72064 0.37034 0.0
C37 C 0.82975 0.73765 0.3593 0.0
O38 O 0.87878 0.71427 0.40968 0.0
O39 O 0.84833 0.68704 0.41771 0.0
O40 O 0.88134 0.71234 0.32437 0.0
O41 O 0.86334 0.68835 0.35578 0.0
Co42 Co 0.27466 0.88142 0.34836 0.0
O43 O 0.29235 0.91178 0.34961 0.0
O44 O 0.25182 0.90869 0.35066 0.0
C45 C 0.29684 0.86446 0.31231 0.0
O46 O 0.25011 0.85314 0.34686 0.0
Co47 Co 0.30174 0.83214 0.36141 0.0
O48 O 0.2713 0.8177 0.34522 0.0
C49 C 0.29079 0.86725 0.40834 0.0
C50 C 0.27121 0.92264 0.35132 0.0
C51 C 0.25128 0.82971 0.34347 0.0
O52 O 0.27632 0.87943 0.39173 0.0
O53 O 0.30412 0.84941 0.39951 0.0
O54 O 0.27896 0.87943 0.30627 0.0
O55 O 0.3017 0.86203 0.33931 0.0
Co56 Co 0.11514 0.70838 0.64703 0.0
O57 O 0.08579 0.68924 0.64308 0.0
O58 O 0.08769 0.72915 0.63519 0.0
C59 C 0.12632 0.69273 0.69042 0.0
O60 O 0.14267 0.73403 0.65044 0.0
Co61 Co 0.16541 0.68119 0.64958 0.0
O62 O 0.17606 0.71321 0.66546 0.0
C63 C 0.14009 0.68664 0.59356 0.0
C64 C 0.07443 0.70928 0.63627 0.0
C65 C 0.16464 0.73326 0.66091 0.0
O66 O 0.12411 0.70105 0.60527 0.0
O67 O 0.15673 0.67557 0.6081 0.0
O68 O 0.11027 0.7103 0.68898 0.0
O69 O 0.13299 0.68381 0.66586 0.0
Co70 Co 0.28884 0.11419 0.64081 0.0
O71 O 0.30522 0.08297 0.63827 0.0
O72 O 0.26585 0.08887 0.62905 0.0
C73 C 0.30494 0.12481 0.68423 0.0
O74 O 0.2652 0.14337 0.64229 0.0
Co75 Co 0.31838 0.16286 0.64335 0.0
O76 O 0.28649 0.17674 0.65593 0.0
C77 C 0.31304 0.13677 0.58761 0.0
C78 C 0.28416 0.07366 0.63113 0.0
C79 C 0.26624 0.16586 0.65081 0.0
O80 O 0.29765 0.12165 0.59913 0.0
O81 O 0.32449 0.15315 0.6022 0.0
O82 O 0.28592 0.11047 0.68286 0.0
O83 O 0.31453 0.13053 0.65969 0.0
Co84 Co 0.89077 0.29688 0.63146 0.0
O85 O 0.91934 0.31731 0.62734 0.0
O86 O 0.91974 0.27692 0.62363 0.0
C87 C 0.87675 0.31579 0.6718 0.0
O88 O 0.8649 0.26968 0.63548 0.0
Co89 Co 0.83821 0.31963 0.62943 0.0
O90 O 0.82891 0.28765 0.64659 0.0
C91 C 0.86692 0.31344 0.57552 0.0
C92 C 0.93199 0.29744 0.62342 0.0
C93 C 0.84236 0.26864 0.64396 0.0
O94 O 0.88331 0.3006 0.58882 0.0
O95 O 0.84903 0.32401 0.58845 0.0
O96 O 0.89351 0.2989 0.67376 0.0
O97 O 0.87053 0.32165 0.64592 0.0
Co98 Co 0.7185 0.89521 0.64686 0.0
O99 O 0.7017 0.92628 0.64548 0.0
O100 O 0.74128 0.92135 0.6369 0.0
C101 C 0.70192 0.88252 0.68915 0.0
O102 O 0.74245 0.8662 0.64755 0.0
Co103 Co 0.68915 0.84604 0.64644 0.0
O104 O 0.72099 0.83239 0.65948 0.0
C105 C 0.69415 0.87507 0.59279 0.0
C106 C 0.72269 0.93621 0.63924 0.0
C107 C 0.74128 0.84352 0.65543 0.0
O108 O 0.71032 0.88911 0.60472 0.0
O109 O 0.68232 0.85851 0.60661 0.0
O110 O 0.72062 0.89734 0.68915 0.0
O111 O 0.69283 0.8778 0.66411 0.0
Co112 Co 0.88828 0.7143 0.65308 0.0
O113 O 0.91979 0.69886 0.64857 0.0
O114 O 0.91306 0.73855 0.64288 0.0
C115 C 0.87811 0.6955 0.69501 0.0
O116 O 0.85823 0.73675 0.65714 0.0
Co117 Co 0.84076 0.68222 0.6533 0.0
O118 O 0.82619 0.71267 0.66913 0.0
C119 C 0.86683 0.69165 0.59853 0.0
C120 C 0.92862 0.72042 0.64284 0.0
C121 C 0.83597 0.73377 0.66606 0.0
O122 O 0.8806 0.7078 0.61091 0.0
O123 O 0.85154 0.67822 0.61233 0.0
O124 O 0.89228 0.71469 0.69528 0.0
O125 O 0.87281 0.68721 0.66975 0.0
Co126 Co 0.29128 0.88587 0.63548 0.0
O127 O 0.31245 0.91397 0.63277 0.0
O128 O 0.27199 0.91557 0.63013 0.0
C129 C 0.31062 0.86913 0.67388 0.0
O130 O 0.26343 0.86067 0.63838 0.0
Co131 Co 0.31252 0.83292 0.62853 0.0
O132 O 0.28043 0.82345 0.64533 0.0
C133 C 0.3072 0.86563 0.57794 0.0
C134 C 0.29284 0.92723 0.62999 0.0
C135 C 0.26187 0.83767 0.64467 0.0
O136 O 0.29388 0.88072 0.5925 0.0
O137 O 0.31801 0.84707 0.58916 0.0
O138 O 0.29434 0.88627 0.67776 0.0
O139 O 0.31568 0.86418 0.64742 0.0
Co140 Co 0.11864 0.2944 0.64132 0.0
O141 O 0.08715 0.30984 0.63633 0.0
O142 O 0.09389 0.27016 0.63088 0.0
C143 C 0.12841 0.3129 0.68369 0.0
O144 O 0.14868 0.27202 0.64607 0.0
Co145 Co 0.16576 0.32666 0.64131 0.0
O146 O 0.18019 0.29663 0.65843 0.0
C147 C 0.14152 0.31515 0.58594 0.0
C148 C 0.07832 0.28828 0.6307 0.0
C149 C 0.17071 0.27537 0.65556 0.0
O150 O 0.12675 0.30039 0.59907 0.0
O151 O 0.1571 0.32859 0.59931 0.0
O152 O 0.1141 0.29385 0.68329 0.0
O153 O 0.13395 0.32159 0.65859 0.0
Co154 Co 0.70933 0.12419 0.64454 0.0
O155 O 0.68966 0.09505 0.64158 0.0
O156 O 0.73016 0.09527 0.64013 0.0
C157 C 0.68835 0.14034 0.68206 0.0
O158 O 0.73565 0.1511 0.64825 0.0
Co159 Co 0.68486 0.17577 0.63626 0.0
O160 O 0.71561 0.18688 0.65485 0.0
C161 C 0.69236 0.14251 0.58662 0.0
C162 C 0.70986 0.08264 0.63951 0.0
C163 C 0.73519 0.17407 0.65512 0.0
O164 O 0.70706 0.12882 0.60133 0.0
O165 O 0.68022 0.16034 0.59756 0.0
O166 O 0.70539 0.12411 0.68682 0.0
O167 O 0.68362 0.14453 0.65538 0.0
Co168 Co 0.89171 0.28501 0.34526 0.0
O169 O 0.92054 0.30497 0.34705 0.0
O170 O 0.92034 0.26455 0.35178 0.0
C171 C 0.87567 0.30302 0.3056 0.0
O172 O 0.86523 0.25853 0.34366 0.0
Co173 Co 0.84069 0.3095 0.35292 0.0
O174 O 0.82922 0.27785 0.33658 0.0
C175 C 0.87219 0.30134 0.40384 0.0
C176 C 0.93283 0.28492 0.35125 0.0
C177 C 0.84217 0.25838 0.3375 0.0
O178 O 0.88711 0.28882 0.38819 0.0
O179 O 0.85356 0.31264 0.39344 0.0
O180 O 0.89226 0.28602 0.30311 0.0
O181 O 0.87117 0.31005 0.33168 0.0
Co182 Co 0.70832 0.88913 0.3593 0.0
O183 O 0.69548 0.92166 0.36192 0.0
O184 O 0.73512 0.91261 0.36162 0.0
C185 C 0.684 0.87643 0.32278 0.0
O186 O 0.72782 0.85727 0.35588 0.0
Co187 Co 0.67352 0.84537 0.37301 0.0
O188 O 0.70026 0.8265 0.35429 0.0
C189 C 0.693 0.87552 0.42061 0.0
C190 C 0.71801 0.92926 0.36289 0.0
C191 C 0.72209 0.83461 0.35155 0.0
O192 O 0.7075 0.88636 0.40278 0.0
O193 O 0.67665 0.86005 0.41261 0.0
O194 O 0.70369 0.88909 0.31748 0.0
O195 O 0.67837 0.87434 0.34974 0.0
Co196 Co 0.10818 0.69869 0.36206 0.0
O197 O 0.07814 0.68141 0.36832 0.0
O198 O 0.08174 0.72185 0.36955 0.0
C199 C 0.1196 0.67808 0.322 0.0
O200 O 0.1368 0.72233 0.35525 0.0
Co201 Co 0.15652 0.66942 0.36806 0.0
O202 O 0.16951 0.69816 0.34674 0.0
C203 C 0.13042 0.68449 0.42065 0.0
C204 C 0.06772 0.70257 0.37171 0.0
C205 C 0.15901 0.71907 0.3464 0.0
O206 O 0.11559 0.69687 0.40472 0.0
O207 O 0.14729 0.67078 0.41013 0.0
O208 O 0.10406 0.69606 0.32057 0.0
O209 O 0.12541 0.67121 0.34789 0.0
Co210 Co 0.2989 0.10719 0.35591 0.0
O211 O 0.31518 0.07633 0.35981 0.0
O212 O 0.27496 0.08135 0.36296 0.0
C213 C 0.31869 0.11928 0.31553 0.0
O214 O 0.2762 0.13688 0.35173 0.0
Co215 Co 0.33022 0.1542 0.3628 0.0
O216 O 0.30121 0.1691 0.34386 0.0
C217 C 0.31541 0.1271 0.41485 0.0
C218 C 0.29374 0.06655 0.36339 0.0
C219 C 0.27994 0.15935 0.34412 0.0
O220 O 0.30229 0.113 0.3988 0.0
O221 O 0.32936 0.14386 0.40451 0.0
O222 O 0.30005 0.10453 0.31416 0.0
O223 O 0.32658 0.1239 0.34136 0.0
Co224 Co 0.61555 0.79442 0.85522 0.0
O225 O 0.58689 0.81481 0.85495 0.0
O226 O 0.58636 0.77488 0.86322 0.0
C227 C 0.63188 0.80976 0.81401 0.0
O228 O 0.64176 0.76746 0.85617 0.0
Co229 Co 0.66682 0.8195 0.86046 0.0
O230 O 0.67898 0.78561 0.8549 0.0
C231 C 0.63438 0.81655 0.91124 0.0
C232 C 0.57416 0.79531 0.86057 0.0
C233 C 0.6654 0.76655 0.85517 0.0
O234 O 0.62026 0.80138 0.89783 0.0
O235 O 0.65228 0.82767 0.89901 0.0
O236 O 0.61519 0.79274 0.81294 0.0
O237 O 0.63637 0.81826 0.83941 0.0
Co238 Co 0.21466 0.61554 0.86314 0.0
O239 O 0.195 0.58654 0.86433 0.0
O240 O 0.23526 0.58698 0.87041 0.0
C241 C 0.19785 0.63086 0.82235 0.0
O242 O 0.24066 0.64268 0.86211 0.0
Co243 Co 0.18853 0.66527 0.8707 0.0
O244 O 0.21988 0.67781 0.85477 0.0
C245 C 0.19726 0.63472 0.92192 0.0
C246 C 0.21498 0.57435 0.86903 0.0
C247 C 0.2399 0.66572 0.85581 0.0
O248 O 0.2098 0.62006 0.90596 0.0
O249 O 0.1857 0.65324 0.9117 0.0
O250 O 0.2152 0.61459 0.82127 0.0
O251 O 0.18941 0.63545 0.84793 0.0
Co252 Co 0.38859 0.20803 0.85591 0.0
O253 O 0.41945 0.19176 0.86005 0.0
O254 O 0.41446 0.23195 0.86329 0.0
C255 C 0.37648 0.18827 0.81543 0.0
O256 O 0.35885 0.23068 0.85154 0.0
Co257 Co 0.34165 0.17656 0.8628 0.0
O258 O 0.32672 0.2055 0.84378 0.0
C259 C 0.36886 0.19118 0.91482 0.0
C260 C 0.42922 0.21315 0.86407 0.0
C261 C 0.3364 0.22681 0.84388 0.0
O262 O 0.38268 0.2046 0.89879 0.0
O263 O 0.35224 0.17708 0.90445 0.0
O264 O 0.39133 0.20684 0.81412 0.0
O265 O 0.37188 0.18037 0.84125 0.0
Co266 Co 0.80663 0.38362 0.86008 0.0
O267 O 0.8238 0.41398 0.8655 0.0
O268 O 0.78341 0.41021 0.86658 0.0
C269 C 0.82812 0.37126 0.82089 0.0
O270 O 0.78255 0.35526 0.85401 0.0
Co271 Co 0.83476 0.33395 0.86471 0.0
O272 O 0.8051 0.32158 0.84466 0.0
C273 C 0.82228 0.36163 0.91767 0.0
C274 C 0.80255 0.42443 0.86823 0.0
C275 C 0.78462 0.3329 0.84522 0.0
O276 O 0.80888 0.37662 0.90298 0.0
O277 O 0.83535 0.34481 0.90598 0.0
O278 O 0.81001 0.3866 0.81809 0.0
O279 O 0.83393 0.36593 0.84711 0.0
Co280 Co 0.61376 0.21375 0.14344 0.0
O281 O 0.58553 0.19367 0.13656 0.0
O282 O 0.58483 0.23421 0.13732 0.0
C283 C 0.62762 0.19157 0.18117 0.0
O284 O 0.63977 0.24028 0.15095 0.0
Co285 Co 0.66613 0.19038 0.13857 0.0
O286 O 0.67543 0.2206 0.15963 0.0
C287 C 0.63605 0.19945 0.08653 0.0
C288 C 0.57288 0.21367 0.13413 0.0
C289 C 0.66226 0.23994 0.15971 0.0
O290 O 0.62127 0.21332 0.10084 0.0
O291 O 0.6534 0.18714 0.09827 0.0
O292 O 0.61085 0.2082 0.1853 0.0
O293 O 0.63375 0.18799 0.15475 0.0
Co294 Co 0.79065 0.62375 0.14421 0.0
O295 O 0.80615 0.59197 0.14413 0.0
O296 O 0.76645 0.59839 0.13746 0.0
C297 C 0.8098 0.63818 0.18412 0.0
O298 O 0.76752 0.65325 0.14397 0.0
Co299 Co 0.82049 0.67219 0.13818 0.0
O300 O 0.78933 0.68781 0.15049 0.0
C301 C 0.81359 0.63967 0.08769 0.0
C302 C 0.78446 0.58285 0.13949 0.0
C303 C 0.76891 0.67647 0.14886 0.0
O304 O 0.79722 0.62712 0.10136 0.0
O305 O 0.82623 0.65672 0.09958 0.0
O306 O 0.79063 0.62411 0.18671 0.0
O307 O 0.81756 0.64129 0.15815 0.0
Co308 Co 0.38418 0.78191 0.14266 0.0
O309 O 0.41195 0.80333 0.14108 0.0
O310 O 0.41453 0.76287 0.14164 0.0
C311 C 0.3644 0.80279 0.1778 0.0
O312 O 0.35875 0.75428 0.14517 0.0
Co313 Co 0.33246 0.80326 0.12762 0.0
O314 O 0.32157 0.77247 0.14643 0.0
C315 C 0.36913 0.79465 0.08179 0.0
C316 C 0.42574 0.78399 0.14072 0.0
C317 C 0.33532 0.75368 0.14922 0.0
O318 O 0.38247 0.78197 0.09917 0.0
O319 O 0.34993 0.8064 0.08973 0.0
O320 O 0.3814 0.78704 0.18448 0.0
O321 O 0.36164 0.80672 0.15062 0.0
Co322 Co 0.20754 0.38112 0.14006 0.0
O323 O 0.18712 0.40968 0.13716 0.0
O324 O 0.22714 0.40957 0.12929 0.0
C325 C 0.19239 0.36781 0.1829 0.0
O326 O 0.23448 0.35499 0.14212 0.0
Co327 Co 0.18324 0.32954 0.13988 0.0
O328 O 0.21601 0.31952 0.1543 0.0
C329 C 0.18836 0.3566 0.08498 0.0
C330 C 0.20672 0.42194 0.13059 0.0
C331 C 0.23525 0.33243 0.15045 0.0
O332 O 0.20112 0.37318 0.09797 0.0
O333 O 0.17813 0.33872 0.09832 0.0
O334 O 0.20913 0.38476 0.1821 0.0
O335 O 0.18375 0.36139 0.15806 0.0
Co336 Co 0.38738 0.21092 0.14155 0.0
O337 O 0.41933 0.19699 0.13581 0.0
O338 O 0.41052 0.23629 0.13005 0.0
C339 C 0.38015 0.19228 0.18443 0.0
O340 O 0.35654 0.23192 0.14696 0.0
Co341 Co 0.34167 0.17685 0.14484 0.0
O342 O 0.32666 0.20651 0.16216 0.0
C343 C 0.3641 0.18756 0.08804 0.0
C344 C 0.42696 0.21896 0.12996 0.0
C345 C 0.33513 0.22802 0.15795 0.0
O346 O 0.37847 0.20358 0.09977 0.0
O347 O 0.34955 0.17396 0.10273 0.0
O348 O 0.39307 0.21227 0.18334 0.0
O349 O 0.3741 0.18322 0.1597 0.0
Co350 Co 0.78561 0.39501 0.14556 0.0
O351 O 0.80736 0.42261 0.14373 0.0
O352 O 0.76711 0.42498 0.1385 0.0
C353 C 0.80244 0.37864 0.18584 0.0
O354 O 0.75748 0.37005 0.14723 0.0
Co355 Co 0.80704 0.3423 0.1401 0.0
O356 O 0.77464 0.33328 0.15646 0.0
C357 C 0.80188 0.37334 0.08807 0.0
C358 C 0.7882 0.43621 0.13953 0.0
C359 C 0.75594 0.34724 0.15445 0.0
O360 O 0.78983 0.38943 0.10269 0.0
O361 O 0.81176 0.35438 0.09955 0.0
O362 O 0.78628 0.39608 0.18783 0.0
O363 O 0.80924 0.37328 0.15994 0.0
Co364 Co 0.61282 0.79442 0.14323 0.0
O365 O 0.57999 0.80682 0.14136 0.0
O366 O 0.58951 0.76743 0.13972 0.0
C367 C 0.62499 0.81789 0.18085 0.0
O368 O 0.64517 0.77533 0.14588 0.0
Co369 Co 0.65606 0.83058 0.13166 0.0
O370 O 0.67524 0.80358 0.14933 0.0
C371 C 0.62639 0.8124 0.08289 0.0
C372 C 0.57256 0.78429 0.13964 0.0
C373 C 0.66767 0.78147 0.15089 0.0
O374 O 0.61566 0.79693 0.09972 0.0
O375 O 0.64149 0.82866 0.09201 0.0
O376 O 0.61281 0.79776 0.18537 0.0
O377 O 0.627 0.82424 0.15414 0.0
Co378 Co 0.20871 0.60731 0.14749 0.0
O379 O 0.1934 0.5761 0.14064 0.0
O380 O 0.23304 0.5834 0.13516 0.0
C381 C 0.19027 0.61452 0.19049 0.0
O382 O 0.23106 0.63704 0.15382 0.0
Co383 Co 0.17667 0.6544 0.15206 0.0
O384 O 0.20708 0.66794 0.16935 0.0
C385 C 0.18701 0.63311 0.09463 0.0
C386 C 0.21502 0.56773 0.13435 0.0
C387 C 0.22818 0.65854 0.16495 0.0
O388 O 0.202 0.61755 0.10606 0.0
O389 O 0.17398 0.64796 0.1096 0.0
O390 O 0.20964 0.60068 0.18914 0.0
O391 O 0.1816 0.62143 0.1659 0.0
Co392 Co 0.38678 0.79438 0.85482 0.0
O393 O 0.41853 0.80954 0.85728 0.0
O394 O 0.41202 0.76958 0.86022 0.0
C395 C 0.3736 0.81604 0.81625 0.0
O396 O 0.35655 0.77214 0.85194 0.0
Co397 Co 0.33929 0.82603 0.86205 0.0
O398 O 0.32373 0.79655 0.84491 0.0
C399 C 0.37015 0.81408 0.91263 0.0
C400 C 0.42761 0.78769 0.86023 0.0
C401 C 0.3338 0.77542 0.84528 0.0
O402 O 0.3824 0.79819 0.89792 0.0
O403 O 0.35404 0.82832 0.90147 0.0
O404 O 0.38743 0.79684 0.8125 0.0
O405 O 0.37027 0.82245 0.84265 0.0
Co406 Co 0.21959 0.38805 0.85597 0.0
O407 O 0.20362 0.41937 0.85839 0.0
O408 O 0.24343 0.41332 0.86483 0.0
C409 C 0.20139 0.37585 0.81437 0.0
O410 O 0.24286 0.35883 0.85416 0.0
Co411 Co 0.18975 0.33996 0.85957 0.0
O412 O 0.2206 0.325 0.84511 0.0
C413 C 0.19956 0.36784 0.91295 0.0
C414 C 0.2251 0.42858 0.86384 0.0
C415 C 0.24116 0.33598 0.84747 0.0
O416 O 0.21353 0.3824 0.8985 0.0
O417 O 0.18708 0.35066 0.90106 0.0
O418 O 0.22037 0.39026 0.81395 0.0
O419 O 0.19268 0.37113 0.83975 0.0
Co420 Co 0.61491 0.22826 0.8565 0.0
O421 O 0.58394 0.21185 0.85932 0.0
O422 O 0.5885 0.25219 0.85918 0.0
C423 C 0.6297 0.20492 0.82024 0.0
O424 O 0.64437 0.2514 0.85317 0.0
Co425 Co 0.66325 0.19881 0.86794 0.0
O426 O 0.67837 0.22804 0.84979 0.0
C427 C 0.63056 0.21282 0.91624 0.0
C428 C 0.57384 0.23335 0.86056 0.0
C429 C 0.66753 0.24873 0.8483 0.0
O430 O 0.6182 0.22724 0.89977 0.0
O431 O 0.64752 0.19857 0.90697 0.0
O432 O 0.61532 0.22335 0.81456 0.0
O433 O 0.63275 0.2002 0.84718 0.0
Co434 Co 0.78605 0.61018 0.859 0.0
O435 O 0.80179 0.57888 0.85725 0.0
O436 O 0.76225 0.58401 0.86602 0.0
C437 C 0.80348 0.62544 0.81841 0.0
O438 O 0.76409 0.64065 0.86202 0.0
Co439 Co 0.82068 0.65535 0.86727 0.0
O440 O 0.78943 0.67348 0.86276 0.0
C441 C 0.80887 0.62394 0.9171 0.0
C442 C 0.78075 0.56905 0.86305 0.0
C443 C 0.76801 0.66401 0.86287 0.0
O444 O 0.7932 0.61216 0.90166 0.0
O445 O 0.82325 0.6403 0.90671 0.0
O446 O 0.78408 0.61163 0.81683 0.0
O447 O 0.81293 0.62728 0.84381 0.0
H448 H 0.23273 0.15764 0.36461 0.0
H449 H 0.28072 0.19795 0.30765 0.0
H450 H 0.24995 0.22992 0.30223 0.0
H451 H 0.21189 0.24891 0.31822 0.0
H452 H 0.16338 0.20986 0.37558 0.0
H453 H 0.19162 0.17484 0.37602 0.0
C454 C 0.23615 0.17315 0.35053 0.0
C455 C 0.25911 0.17562 0.33693 0.0
C456 C 0.21843 0.19186 0.34788 0.0
C457 C 0.26334 0.19583 0.31873 0.0
C458 C 0.24577 0.21416 0.31563 0.0
C459 C 0.20736 0.23263 0.33059 0.0
C460 C 0.18584 0.23212 0.34723 0.0
C461 C 0.22368 0.21279 0.3309 0.0
C462 C 0.17993 0.21072 0.36268 0.0
C463 C 0.19613 0.19075 0.36304 0.0
H464 H 0.7812 0.16274 0.35876 0.0
H465 H 0.73401 0.19919 0.29755 0.0
H466 H 0.76586 0.2294 0.28767 0.0
H467 H 0.80373 0.24946 0.3027 0.0
H468 H 0.85089 0.21483 0.36524 0.0
H469 H 0.82282 0.17971 0.36799 0.0
C470 C 0.77829 0.17685 0.34262 0.0
C471 C 0.75524 0.179 0.32916 0.0
C472 C 0.79652 0.19471 0.33766 0.0
C473 C 0.75154 0.19741 0.3084 0.0
C474 C 0.76969 0.21474 0.30282 0.0
C475 C 0.80812 0.23396 0.31647 0.0
C476 C 0.82904 0.23485 0.3341 0.0
C477 C 0.79173 0.21423 0.31832 0.0
C478 C 0.8348 0.21454 0.3515 0.0
C479 C 0.81865 0.19457 0.35324 0.0
H480 H 0.78545 0.7401 0.33347 0.0
H481 H 0.84069 0.78527 0.37378 0.0
H482 H 0.81301 0.82065 0.37187 0.0
H483 H 0.77119 0.83724 0.36395 0.0
H484 H 0.71629 0.79087 0.32463 0.0
H485 H 0.74583 0.75761 0.32075 0.0
C486 C 0.79156 0.75775 0.3416 0.0
C487 C 0.8149 0.75996 0.35419 0.0
C488 C 0.77552 0.77779 0.34078 0.0
C489 C 0.82274 0.78306 0.36408 0.0
C490 C 0.80687 0.80326 0.36313 0.0
C491 C 0.76588 0.82001 0.35404 0.0
C492 C 0.74146 0.81642 0.34505 0.0
C493 C 0.78293 0.80066 0.35229 0.0
C494 C 0.73485 0.79399 0.33219 0.0
C495 C 0.75172 0.77493 0.32994 0.0
H496 H 0.15582 0.76738 0.36294 0.0
H497 H 0.19651 0.71772 0.30835 0.0
H498 H 0.22715 0.74921 0.29938 0.0
H499 H 0.24554 0.78836 0.3126 0.0
H500 H 0.20618 0.83857 0.36748 0.0
H501 H 0.17173 0.80968 0.37036 0.0
C502 C 0.17109 0.76371 0.34856 0.0
C503 C 0.17416 0.74008 0.33684 0.0
C504 C 0.18904 0.78191 0.34379 0.0
C505 C 0.19399 0.7356 0.31814 0.0
C506 C 0.21155 0.75359 0.31296 0.0
C507 C 0.2292 0.79316 0.32474 0.0
C508 C 0.22849 0.81531 0.34014 0.0
C509 C 0.20978 0.77642 0.32659 0.0
C510 C 0.20712 0.82156 0.35544 0.0
C511 C 0.18752 0.80496 0.35728 0.0
H512 H 0.16538 0.77633 0.62991 0.0
H513 H 0.19589 0.74079 0.70498 0.0
H514 H 0.22693 0.77267 0.70915 0.0
H515 H 0.24959 0.8063 0.68683 0.0
H516 H 0.22046 0.84243 0.61168 0.0
H517 H 0.1846 0.81509 0.61232 0.0
C518 C 0.17837 0.77607 0.64765 0.0
C519 C 0.1786 0.75602 0.66684 0.0
C520 C 0.19667 0.79436 0.64963 0.0
C521 C 0.19557 0.75584 0.6897 0.0
C522 C 0.2134 0.77402 0.69207 0.0
C523 C 0.23503 0.80858 0.67108 0.0
C524 C 0.23765 0.82611 0.64914 0.0
C525 C 0.21479 0.7927 0.67144 0.0
C526 C 0.2187 0.82908 0.62888 0.0
C527 C 0.19834 0.8133 0.6291 0.0
H528 H 0.25864 0.20556 0.6844 0.0
H529 H 0.22277 0.15958 0.62153 0.0
H530 H 0.18806 0.18821 0.61963 0.0
H531 H 0.17033 0.22902 0.6319 0.0
H532 H 0.2076 0.2744 0.69445 0.0
H533 H 0.23907 0.24324 0.70059 0.0
C534 C 0.24311 0.20163 0.67049 0.0
C535 C 0.24347 0.18068 0.65282 0.0
C536 C 0.22347 0.2182 0.66932 0.0
C537 C 0.22299 0.17563 0.63532 0.0
C538 C 0.2032 0.19207 0.63411 0.0
C539 C 0.18507 0.2318 0.64727 0.0
C540 C 0.1868 0.25419 0.66234 0.0
C541 C 0.20354 0.21382 0.65044 0.0
C542 C 0.20604 0.25753 0.68221 0.0
C543 C 0.22409 0.23972 0.68577 0.0
H544 H 0.7798 0.17301 0.62754 0.0
H545 H 0.74103 0.20584 0.69889 0.0
H546 H 0.77351 0.23614 0.70474 0.0
H547 H 0.80886 0.25749 0.68446 0.0
H548 H 0.84774 0.22645 0.61227 0.0
H549 H 0.81975 0.19113 0.61209 0.0
C550 C 0.77896 0.18631 0.64492 0.0
C551 C 0.75798 0.18737 0.66262 0.0
C552 C 0.79754 0.20426 0.64768 0.0
C553 C 0.75694 0.20483 0.68489 0.0
C554 C 0.77545 0.22223 0.68817 0.0
C555 C 0.81156 0.24268 0.66913 0.0
C556 C 0.83009 0.24467 0.6482 0.0
C557 C 0.79521 0.2228 0.66889 0.0
C558 C 0.83361 0.22528 0.62864 0.0
C559 C 0.81745 0.2052 0.62839 0.0
H560 H 0.83713 0.77951 0.64087 0.0
H561 H 0.79854 0.73598 0.70411 0.0
H562 H 0.76725 0.76751 0.70851 0.0
H563 H 0.74822 0.80486 0.69058 0.0
H564 H 0.78526 0.849 0.62689 0.0
H565 H 0.81987 0.82015 0.62678 0.0
C566 C 0.82214 0.77724 0.65602 0.0
C567 C 0.82 0.75524 0.67181 0.0
C568 C 0.80377 0.79542 0.65814 0.0
C569 C 0.80044 0.75253 0.69136 0.0
C570 C 0.78249 0.77056 0.69391 0.0
C571 C 0.76399 0.80835 0.67688 0.0
C572 C 0.76402 0.82881 0.65845 0.0
C573 C 0.78353 0.79164 0.67674 0.0
C574 C 0.78478 0.83333 0.64124 0.0
C575 C 0.8045 0.81674 0.64106 0.0
H576 H 0.7033 0.75591 0.88907 0.0
H577 H 0.65643 0.72406 0.82435 0.0
H578 H 0.6829 0.6874 0.82256 0.0
H579 H 0.72243 0.66663 0.83626 0.0
H580 H 0.76815 0.70063 0.90102 0.0
H581 H 0.73902 0.73397 0.90621 0.0
C582 C 0.69871 0.74079 0.87479 0.0
C583 C 0.67824 0.74271 0.85662 0.0
C584 C 0.71395 0.72018 0.87382 0.0
C585 C 0.67219 0.72292 0.83855 0.0
C586 C 0.6874 0.70207 0.83743 0.0
C587 C 0.72565 0.68114 0.85181 0.0
C588 C 0.74761 0.68139 0.86791 0.0
C589 C 0.70877 0.70076 0.85448 0.0
C590 C 0.7516 0.70027 0.88803 0.0
C591 C 0.73496 0.71936 0.89107 0.0
H592 H 0.24565 0.70486 0.82134 0.0
H593 H 0.28531 0.65852 0.8805 0.0
H594 H 0.32002 0.6873 0.87978 0.0
H595 H 0.33642 0.72864 0.86722 0.0
H596 H 0.29487 0.77471 0.8093 0.0
H597 H 0.26374 0.743 0.80446 0.0
C598 C 0.26205 0.70086 0.83377 0.0
C599 C 0.2628 0.67983 0.85128 0.0
C600 C 0.28152 0.71761 0.83367 0.0
C601 C 0.2843 0.67463 0.86686 0.0
C602 C 0.30405 0.69118 0.86662 0.0
C603 C 0.3208 0.73144 0.85309 0.0
C604 C 0.31776 0.75415 0.83899 0.0
C605 C 0.30252 0.71319 0.85084 0.0
C606 C 0.29743 0.75757 0.82076 0.0
C607 C 0.2796 0.73945 0.81796 0.0
H608 H 0.33821 0.27444 0.86306 0.0
H609 H 0.29759 0.22535 0.80768 0.0
H610 H 0.26565 0.25603 0.80152 0.0
H611 H 0.24676 0.29447 0.81647 0.0
H612 H 0.2862 0.34408 0.87217 0.0
H613 H 0.32115 0.3158 0.87327 0.0
C614 C 0.32263 0.27074 0.84916 0.0
C615 C 0.32007 0.2475 0.83627 0.0
C616 C 0.30394 0.28843 0.84604 0.0
C617 C 0.29978 0.24294 0.81827 0.0
C618 C 0.28146 0.26046 0.81472 0.0
C619 C 0.26312 0.29924 0.82859 0.0
C620 C 0.26374 0.3211 0.84458 0.0
C621 C 0.28293 0.28288 0.82932 0.0
C622 C 0.28523 0.32727 0.85974 0.0
C623 C 0.30517 0.31105 0.8605 0.0
H624 H 0.70853 0.25069 0.81619 0.0
H625 H 0.66222 0.29515 0.87046 0.0
H626 H 0.69367 0.32738 0.87142 0.0
H627 H 0.73693 0.33983 0.86261 0.0
H628 H 0.78282 0.29375 0.80938 0.0
H629 H 0.74894 0.26542 0.80207 0.0
C630 C 0.70513 0.26765 0.82779 0.0
C631 C 0.68331 0.27043 0.84356 0.0
C632 C 0.7234 0.28569 0.82874 0.0
C633 C 0.67892 0.29261 0.85813 0.0
C634 C 0.697 0.31092 0.8589 0.0
C635 C 0.7393 0.32386 0.84894 0.0
C636 C 0.76253 0.31867 0.83705 0.0
C637 C 0.71972 0.30724 0.84517 0.0
C638 C 0.7653 0.29794 0.81927 0.0
C639 C 0.74592 0.2817 0.81502 0.0
H640 H 0.66118 0.285 0.13354 0.0
H641 H 0.69226 0.24541 0.20535 0.0
H642 H 0.7219 0.27818 0.21334 0.0
H643 H 0.74366 0.31382 0.19443 0.0
H644 H 0.71453 0.35333 0.12161 0.0
H645 H 0.67927 0.32532 0.11973 0.0
C646 C 0.67391 0.28405 0.15151 0.0
C647 C 0.67475 0.26276 0.16869 0.0
C648 C 0.69152 0.30276 0.15546 0.0
C649 C 0.69145 0.26156 0.19174 0.0
C650 C 0.70848 0.28023 0.19623 0.0
C651 C 0.72921 0.31668 0.17865 0.0
C652 C 0.73175 0.33534 0.15799 0.0
C653 C 0.70943 0.30027 0.17738 0.0
C654 C 0.7129 0.33908 0.13778 0.0
C655 C 0.69287 0.3229 0.13655 0.0
H656 H 0.76362 0.72099 0.1738 0.0
H657 H 0.72279 0.66494 0.12894 0.0
H658 H 0.68658 0.69158 0.12798 0.0
H659 H 0.66783 0.7326 0.13597 0.0
H660 H 0.70987 0.78804 0.18061 0.0
H661 H 0.74405 0.75978 0.18576 0.0
C662 C 0.74677 0.71448 0.16395 0.0
C663 C 0.74606 0.69115 0.15109 0.0
C664 C 0.72617 0.72988 0.16334 0.0
C665 C 0.72389 0.68287 0.13892 0.0
C666 C 0.70319 0.69814 0.13827 0.0
C667 C 0.68431 0.73829 0.14725 0.0
C668 C 0.68638 0.76254 0.15749 0.0
C669 C 0.70427 0.72194 0.14986 0.0
C670 C 0.70789 0.76963 0.17209 0.0
C671 C 0.72751 0.75348 0.17507 0.0
H672 H 0.27423 0.65654 0.14075 0.0
H673 H 0.23048 0.6963 0.2028 0.0
H674 H 0.2621 0.72757 0.20663 0.0
H675 H 0.29889 0.74681 0.18711 0.0
H676 H 0.34304 0.70858 0.12453 0.0
H677 H 0.31495 0.67334 0.12655 0.0
C678 C 0.27192 0.67175 0.15558 0.0
C679 C 0.24976 0.67432 0.17099 0.0
C680 C 0.29016 0.69007 0.1574 0.0
C681 C 0.2471 0.69411 0.19023 0.0
C682 C 0.26519 0.71204 0.19248 0.0
C683 C 0.30266 0.73049 0.17443 0.0
C684 C 0.32275 0.73029 0.1555 0.0
C685 C 0.28628 0.7107 0.17534 0.0
C686 C 0.32767 0.70905 0.13934 0.0
C687 C 0.31147 0.68904 0.1403 0.0
H688 H 0.24557 0.29542 0.18681 0.0
H689 H 0.27819 0.34053 0.12077 0.0
H690 H 0.31423 0.31352 0.11957 0.0
H691 H 0.33357 0.2737 0.13283 0.0
H692 H 0.29922 0.22882 0.19814 0.0
H693 H 0.26696 0.25918 0.20425 0.0
C694 C 0.26075 0.29958 0.17246 0.0
C695 C 0.25909 0.31969 0.15361 0.0
C696 C 0.28103 0.28381 0.17155 0.0
C697 C 0.27905 0.32511 0.13548 0.0
C698 C 0.29955 0.30955 0.13464 0.0
C699 C 0.3193 0.27087 0.14879 0.0
C700 C 0.31857 0.24881 0.16463 0.0
C701 C 0.30036 0.28834 0.1519 0.0
C702 C 0.29997 0.24542 0.18529 0.0
C703 C 0.28149 0.26277 0.18884 0.0
H704 H 0.96503 0.24662 0.3583 0.0
H705 H 0.96112 0.32567 0.353 0.0
H706 H 0.00538 0.32851 0.35753 0.0
H707 H 0.04524 0.309 0.361 0.0
H708 H 0.05073 0.23017 0.36576 0.0
H709 H 0.00585 0.22682 0.36378 0.0
C710 C 0.97391 0.26442 0.35826 0.0
C711 C 0.95975 0.28586 0.35511 0.0
C712 C 0.99964 0.26601 0.3608 0.0
C713 C 0.97151 0.30883 0.35521 0.0
C714 C 0.99688 0.31053 0.35783 0.0
C715 C 0.03669 0.29104 0.36177 0.0
C716 C 0.05129 0.26987 0.36337 0.0
C717 C 0.0111 0.28929 0.36034 0.0
C718 C 0.03986 0.24677 0.36453 0.0
C719 C 0.01422 0.24485 0.36329 0.0
H720 H 0.74879 0.041 0.35394 0.0
H721 H 0.67458 0.04862 0.38554 0.0
H722 H 0.67081 0.00448 0.38975 0.0
H723 H 0.68693 0.96381 0.38136 0.0
H724 H 0.76061 0.95416 0.34953 0.0
H725 H 0.76639 0.99891 0.34884 0.0
C726 C 0.73196 0.03293 0.36203 0.0
C727 C 0.7119 0.04811 0.36904 0.0
C728 C 0.72974 0.0072 0.36423 0.0
C729 C 0.6902 0.03742 0.3796 0.0
C730 C 0.68798 0.01213 0.38208 0.0
C731 C 0.70435 0.97143 0.37438 0.0
C732 C 0.7232 0.95579 0.36514 0.0
C733 C 0.70738 0.99688 0.37389 0.0
C734 C 0.74579 0.96591 0.35667 0.0
C735 C 0.74904 0.99147 0.35617 0.0
H736 H 0.037 0.74234 0.36625 0.0
H737 H 0.03829 0.66533 0.38814 0.0
H738 H 0.99384 0.6647 0.3911 0.0
H739 H 0.95458 0.68481 0.38422 0.0
H740 H 0.95163 0.76158 0.36215 0.0
H741 H 0.99666 0.76359 0.36271 0.0
C742 C 0.02751 0.72557 0.37204 0.0
C743 C 0.04096 0.70386 0.37666 0.0
C744 C 0.00165 0.72521 0.37343 0.0
C745 C 0.02842 0.68224 0.38415 0.0
C746 C 0.00295 0.68182 0.38585 0.0
C747 C 0.96374 0.70205 0.37963 0.0
C748 C 0.94985 0.72292 0.37281 0.0
C749 C 0.98939 0.703 0.37993 0.0
C750 C 0.96198 0.74521 0.36736 0.0
C751 C 0.9877 0.74634 0.36762 0.0
H752 H 0.30803 0.95255 0.36692 0.0
H753 H 0.23135 0.95308 0.34399 0.0
H754 H 0.23071 0.99804 0.34787 0.0
H755 H 0.25308 0.03746 0.3551 0.0
H756 H 0.32988 0.03519 0.37801 0.0
H757 H 0.32921 0.99067 0.37714 0.0
C758 C 0.29112 0.96244 0.36277 0.0
C759 C 0.26987 0.94957 0.35479 0.0
C760 C 0.29091 0.98803 0.36513 0.0
C761 C 0.24801 0.96264 0.35001 0.0
C762 C 0.24765 0.98832 0.35222 0.0
C763 C 0.26951 0.02715 0.3603 0.0
C764 C 0.29154 0.03964 0.36636 0.0
C765 C 0.26912 0.00127 0.35944 0.0
C766 C 0.31273 0.02606 0.373 0.0
C767 C 0.31242 1.00056 0.37248 0.0
H768 H 0.04167 0.7479 0.63715 0.0
H769 H 0.04641 0.66941 0.62581 0.0
H770 H 0.00195 0.66636 0.62496 0.0
H771 H 0.96178 0.68504 0.63131 0.0
H772 H 0.9555 0.76323 0.64307 0.0
H773 H 1.00028 0.76736 0.63962 0.0
C774 C 0.03292 0.73023 0.63403 0.0
C775 C 0.04744 0.70889 0.63181 0.0
C776 C 0.00702 0.72848 0.6339 0.0
C777 C 0.03578 0.68611 0.62785 0.0
C778 C 0.01029 0.6843 0.62738 0.0
C779 C 0.97014 0.70305 0.63292 0.0
C780 C 0.95532 0.72375 0.63775 0.0
C781 C 0.99575 0.70523 0.63107 0.0
C782 C 0.96649 0.74697 0.63941 0.0
C783 C 0.99212 0.74932 0.63754 0.0
H784 H 0.25563 0.96103 0.62481 0.0
H785 H 0.33448 0.95446 0.63035 0.0
H786 H 0.33862 0.99884 0.62969 0.0
H787 H 0.32017 0.03957 0.62979 0.0
H788 H 0.24155 0.04732 0.62428 0.0
H789 H 0.23705 0.00259 0.62238 0.0
C790 C 0.27369 0.96934 0.62569 0.0
C791 C 0.29468 0.95434 0.62781 0.0
C792 C 0.27603 0.99513 0.62534 0.0
C793 C 0.31797 0.96545 0.62883 0.0
C794 C 0.3204 0.9909 0.62846 0.0
C795 C 0.30202 0.03153 0.62798 0.0
C796 C 0.28123 0.04678 0.62734 0.0
C797 C 0.29959 0.00591 0.62706 0.0
C798 C 0.25788 0.036 0.62481 0.0
C799 C 0.2553 0.01041 0.62383 0.0
H800 H 0.04453 0.32375 0.62191 0.0
H801 H 0.05189 0.24522 0.62881 0.0
H802 H 0.00717 0.24067 0.62539 0.0
H803 H 0.96556 0.25957 0.62361 0.0
H804 H 0.9596 0.33838 0.61703 0.0
H805 H 0.00402 0.34215 0.61701 0.0
C806 C 0.03643 0.30558 0.62248 0.0
C807 C 0.05157 0.28488 0.62584 0.0
C808 C 0.01082 0.30315 0.62067 0.0
C809 C 0.04069 0.26149 0.62626 0.0
C810 C 0.01508 0.25889 0.6244 0.0
C811 C 0.97402 0.27751 0.62185 0.0
C812 C 0.95914 0.29866 0.62054 0.0
C813 C 0.99989 0.27965 0.62206 0.0
C814 C 0.97047 0.32178 0.61827 0.0
C815 C 0.99595 0.324 0.61827 0.0
H816 H 0.74839 0.04987 0.63577 0.0
H817 H 0.66925 0.05405 0.63853 0.0
H818 H 0.66644 0.00963 0.63749 0.0
H819 H 0.68594 0.96947 0.63765 0.0
H820 H 0.76482 0.96381 0.63469 0.0
H821 H 0.76819 0.0087 0.6337 0.0
C822 C 0.73056 0.04102 0.63599 0.0
C823 C 0.70909 0.05542 0.6374 0.0
C824 C 0.72897 0.01513 0.63538 0.0
C825 C 0.68613 0.04359 0.63757 0.0
C826 C 0.68444 0.01809 0.63698 0.0
C827 C 0.70392 0.97799 0.63664 0.0
C828 C 0.72509 0.96326 0.63639 0.0
C829 C 0.70569 0.00369 0.63617 0.0
C830 C 0.7482 0.9747 0.63489 0.0
C831 C 0.75013 1.00039 0.63442 0.0
H832 H 0.54023 0.75782 0.8627 0.0
H833 H 0.54715 0.83675 0.86427 0.0
H834 H 0.50283 0.84104 0.86549 0.0
H835 H 0.46214 0.82297 0.86405 0.0
H836 H 0.45361 0.74434 0.86177 0.0
H837 H 0.49838 0.73936 0.86305 0.0
C838 C 0.53198 0.7759 0.86353 0.0
C839 C 0.54708 0.79692 0.86322 0.0
C840 C 0.50618 0.77834 0.86399 0.0
C841 C 0.53608 0.82024 0.86428 0.0
C842 C 0.51066 0.82276 0.86499 0.0
C843 C 0.46998 0.80468 0.86394 0.0
C844 C 0.45452 0.78407 0.86266 0.0
C845 C 0.49556 0.80201 0.86449 0.0
C846 C 0.46509 0.76054 0.86271 0.0
C847 C 0.4907 0.75769 0.86339 0.0
H848 H 0.1893 0.46208 0.87079 0.0
H849 H 0.268 0.45509 0.86582 0.0
H850 H 0.2723 0.49983 0.8687 0.0
H851 H 0.25313 0.54125 0.86973 0.0
H852 H 0.17414 0.54668 0.87445 0.0
H853 H 0.17061 0.50234 0.87471 0.0
C854 C 0.20744 0.47028 0.87046 0.0
C855 C 0.22827 0.45532 0.86783 0.0
C856 C 0.20972 0.49583 0.872 0.0
C857 C 0.25164 0.46625 0.86777 0.0
C858 C 0.2541 0.49182 0.86934 0.0
C859 C 0.23522 0.53267 0.8711 0.0
C860 C 0.21395 0.54732 0.87179 0.0
C861 C 0.23321 0.50686 0.87105 0.0
C862 C 0.19084 0.53592 0.87362 0.0
C863 C 0.18874 0.5105 0.87377 0.0
H864 H 0.45925 0.25341 0.85684 0.0
H865 H 0.45938 0.17703 0.88162 0.0
H866 H 0.50384 0.17726 0.88433 0.0
H867 H 0.54266 0.19775 0.87642 0.0
H868 H 0.54448 0.27382 0.85109 0.0
H869 H 0.49938 0.27521 0.85205 0.0
C870 C 0.46907 0.23699 0.8632 0.0
C871 C 0.456 0.21517 0.86872 0.0
C872 C 0.49497 0.2371 0.86438 0.0
C873 C 0.46895 0.19399 0.87691 0.0
C874 C 0.49443 0.19406 0.87849 0.0
C875 C 0.53327 0.21472 0.8712 0.0
C876 C 0.54686 0.23555 0.86334 0.0
C877 C 0.5076 0.2153 0.87166 0.0
C878 C 0.53438 0.25748 0.8571 0.0
C879 C 0.50861 0.25825 0.85759 0.0
H880 H 0.76165 0.45418 0.86486 0.0
H881 H 0.84 0.4555 0.87923 0.0
H882 H 0.83952 0.49998 0.88031 0.0
H883 H 0.81792 0.53841 0.8743 0.0
H884 H 0.73977 0.53915 0.85996 0.0
H885 H 0.73904 0.49401 0.86202 0.0
C886 C 0.77852 0.46425 0.86854 0.0
C887 C 0.80087 0.45143 0.87168 0.0
C888 C 0.77821 0.49017 0.86897 0.0
C889 C 0.82257 0.46478 0.87648 0.0
C890 C 0.82236 0.49029 0.8771 0.0
C891 C 0.80064 0.52878 0.87168 0.0
C892 C 0.77898 0.54208 0.86659 0.0
C893 C 0.80044 0.50313 0.87284 0.0
C894 C 0.75672 0.52929 0.8638 0.0
C895 C 0.75634 0.50351 0.86489 0.0
H896 H 0.46188 0.18551 0.11852 0.0
H897 H 0.45174 0.26293 0.13319 0.0
H898 H 0.49642 0.26883 0.13404 0.0
H899 H 0.53855 0.25091 0.13484 0.0
H900 H 0.54696 0.17302 0.12069 0.0
H901 H 0.50293 0.16848 0.11544 0.0
C902 C 0.46939 0.20376 0.12159 0.0
C903 C 0.45353 0.2237 0.12604 0.0
C904 C 0.4949 0.2069 0.12245 0.0
C905 C 0.46358 0.24726 0.12968 0.0
C906 C 0.48913 0.2506 0.13036 0.0
C907 C 0.53071 0.23304 0.13033 0.0
C908 C 0.54611 0.21231 0.12855 0.0
C909 C 0.50502 0.23041 0.12745 0.0
C910 C 0.53564 0.18928 0.12254 0.0
C911 C 0.51038 0.1866 0.11946 0.0
H912 H 0.81931 0.54752 0.13818 0.0
H913 H 0.74086 0.55786 0.13581 0.0
H914 H 0.73479 0.51334 0.13445 0.0
H915 H 0.75199 0.4712 0.1358 0.0
H916 H 0.83069 0.46198 0.13813 0.0
H917 H 0.83633 0.50617 0.13749 0.0
C918 C 0.80085 0.54008 0.13727 0.0
C919 C 0.78059 0.556 0.13727 0.0
C920 C 0.79751 0.51456 0.13652 0.0
C921 C 0.75681 0.54601 0.13589 0.0
C922 C 0.75332 0.52054 0.13514 0.0
C923 C 0.77034 0.4789 0.13595 0.0
C924 C 0.79085 0.46321 0.13716 0.0
C925 C 0.77355 0.50458 0.13571 0.0
C926 C 0.81452 0.47352 0.13734 0.0
C927 C 0.81783 0.49887 0.137 0.0
H928 H 0.46163 0.74806 0.14165 0.0
H929 H 0.45079 0.82648 0.13604 0.0
H930 H 0.4947 0.83293 0.13424 0.0
H931 H 0.53606 0.81715 0.13532 0.0
H932 H 0.54909 0.73929 0.14129 0.0
H933 H 0.50457 0.73181 0.14166 0.0
C934 C 0.46895 0.7665 0.13997 0.0
C935 C 0.4528 0.78673 0.13912 0.0
C936 C 0.49461 0.77025 0.13899 0.0
C937 C 0.46262 0.81052 0.13688 0.0
C938 C 0.48782 0.81431 0.13581 0.0
C939 C 0.52929 0.79846 0.13664 0.0
C940 C 0.54591 0.77883 0.13839 0.0
C941 C 0.50394 0.7944 0.13702 0.0
C942 C 0.53668 0.75477 0.13992 0.0
C943 C 0.51123 0.75051 0.1402 0.0
H944 H 0.24446 0.45548 0.12868 0.0
H945 H 0.16563 0.44894 0.12281 0.0
H946 H 0.16164 0.4933 0.1209 0.0
H947 H 0.17983 0.53389 0.12485 0.0
H948 H 0.25834 0.54184 0.13182 0.0
H949 H 0.26318 0.49714 0.12895 0.0
C950 C 0.22648 0.4638 0.1266 0.0
C951 C 0.20537 0.44885 0.12618 0.0
C952 C 0.22421 0.4896 0.12586 0.0
C953 C 0.18218 0.45994 0.12348 0.0
C954 C 0.17984 0.48536 0.12238 0.0
C955 C 0.19807 0.52592 0.12547 0.0
C956 C 0.21867 0.54118 0.12881 0.0
C957 C 0.20064 0.50036 0.1242 0.0
C958 C 0.24215 0.53051 0.12928 0.0
C959 C 0.24491 0.50493 0.12778 0.0
H960 H 0.16055 0.328 0.45226 0.0
H961 H 0.10587 0.2708 0.44766 0.0
H962 H 0.10143 0.27173 0.5001 0.0
H963 H 0.11438 0.2876 0.54771 0.0
H964 H 0.16912 0.34491 0.5514 0.0
H965 H 0.17199 0.34505 0.49911 0.0
C966 C 0.14756 0.31576 0.46262 0.0
C967 C 0.13372 0.29925 0.44584 0.0
C968 C 0.1451 0.31633 0.49281 0.0
C969 C 0.11686 0.2837 0.45987 0.0
C970 C 0.11431 0.28417 0.48995 0.0
C971 C 0.12682 0.30024 0.5371 0.0
C972 C 0.1416 0.31608 0.55377 0.0
C973 C 0.12853 0.30024 0.50672 0.0
C974 C 0.15755 0.33237 0.53941 0.0
C975 C 0.15927 0.33249 0.50937 0.0
H976 H 0.7247 0.12158 0.54852 0.0
H977 H 0.65276 0.15449 0.55461 0.0
H978 H 0.64873 0.15382 0.50249 0.0
H979 H 0.66666 0.14739 0.4553 0.0
H980 H 0.73841 0.11472 0.44733 0.0
H981 H 0.74141 0.11158 0.50004 0.0
C982 C 0.70804 0.12822 0.53838 0.0
C983 C 0.68926 0.13846 0.55537 0.0
C984 C 0.70588 0.12809 0.50811 0.0
C985 C 0.6677 0.14693 0.542 0.0
C986 C 0.66532 0.14656 0.51217 0.0
C987 C 0.68297 0.13953 0.46505 0.0
C988 C 0.70246 0.13175 0.44757 0.0
C989 C 0.68454 0.13784 0.49506 0.0
C990 C 0.72321 0.12103 0.46045 0.0
C991 C 0.72495 0.11927 0.49054 0.0
H992 H 0.85016 0.66849 0.46703 0.0
H993 H 0.89306 0.7345 0.45698 0.0
H994 H 0.89861 0.73688 0.50933 0.0
H995 H 0.88899 0.72142 0.55831 0.0
H996 H 0.84596 0.65518 0.5669 0.0
H997 H 0.84294 0.65177 0.51487 0.0
C998 C 0.86079 0.68341 0.47619 0.0
C999 C 0.8709 0.70144 0.45808 0.0
C1000 C 0.86386 0.6847 0.50617 0.0
C1001 C 0.88497 0.7204 0.47041 0.0
C1002 C 0.88811 0.72181 0.50037 0.0
C1003 C 0.87917 0.70612 0.54879 0.0
C1004 C 0.86747 0.6888 0.56668 0.0
C1005 C 0.87732 0.70423 0.51853 0.0
C1006 C 0.85491 0.66902 0.55385 0.0
C1007 C 0.85315 0.66698 0.52399 0.0
H1008 H 0.27534 0.88824 0.54093 0.0
H1009 H 0.34456 0.84976 0.54431 0.0
H1010 H 0.34647 0.84905 0.49192 0.0
H1011 H 0.32684 0.85549 0.44559 0.0
H1012 H 0.25709 0.89274 0.44079 0.0
H1013 H 0.2572 0.89812 0.4933 0.0
C1014 C 0.291 0.88009 0.53014 0.0
C1015 C 0.30958 0.86874 0.54645 0.0
C1016 C 0.2918 0.8793 0.49982 0.0
C1017 C 0.32981 0.85826 0.53223 0.0
C1018 C 0.33095 0.85784 0.50227 0.0
C1019 C 0.31167 0.8649 0.45595 0.0
C1020 C 0.29177 0.87327 0.43941 0.0
C1021 C 0.31172 0.86762 0.48592 0.0
C1022 C 0.27256 0.88595 0.4531 0.0
C1023 C 0.27258 0.88896 0.48311 0.0
H1024 H 0.15744 0.66121 0.46201 0.0
H1025 H 0.09825 0.71309 0.45142 0.0
H1026 H 0.09546 0.71797 0.50366 0.0
H1027 H 0.11054 0.70831 0.55266 0.0
H1028 H 0.16982 0.6563 0.56239 0.0
H1029 H 0.17164 0.65078 0.51048 0.0
C1030 C 0.14386 0.67355 0.47103 0.0
C1031 C 0.12819 0.68679 0.45259 0.0
C1032 C 0.14233 0.67635 0.50115 0.0
C1033 C 0.11066 0.70264 0.46493 0.0
C1034 C 0.10902 0.70549 0.4949 0.0
C1035 C 0.12379 0.6957 0.54346 0.0
C1036 C 0.14005 0.68289 0.56169 0.0
C1037 C 0.12488 0.69255 0.51327 0.0
C1038 C 0.15707 0.66658 0.54916 0.0
C1039 C 0.15818 0.66335 0.51933 0.0
H1040 H 0.34039 0.15241 0.45635 0.0
H1041 H 0.2858 0.09572 0.44544 0.0
H1042 H 0.28079 0.09296 0.49767 0.0
H1043 H 0.29071 0.1078 0.54667 0.0
H1044 H 0.34539 0.16461 0.55677 0.0
H1045 H 0.35145 0.16594 0.50491 0.0
C1046 C 0.32746 0.13934 0.4653 0.0
C1047 C 0.31344 0.12443 0.44677 0.0
C1048 C 0.32456 0.13786 0.4954 0.0
C1049 C 0.29686 0.10754 0.45902 0.0
C1050 C 0.29392 0.10594 0.48897 0.0
C1051 C 0.30405 0.12038 0.53757 0.0
C1052 C 0.3174 0.13616 0.55587 0.0
C1053 C 0.3075 0.1212 0.50742 0.0
C1054 C 0.33467 0.15228 0.54347 0.0
C1055 C 0.3382 0.15311 0.51367 0.0
H1056 H 0.84959 0.33083 0.44282 0.0
H1057 H 0.90392 0.27347 0.43622 0.0
H1058 H 0.90833 0.273 0.48871 0.0
H1059 H 0.89493 0.28738 0.53685 0.0
H1060 H 0.84045 0.34483 0.54218 0.0
H1061 H 0.83815 0.34671 0.48997 0.0
C1062 C 0.86248 0.31824 0.45276 0.0
C1063 C 0.87618 0.30206 0.43552 0.0
C1064 C 0.8649 0.318 0.48288 0.0
C1065 C 0.89302 0.28611 0.44891 0.0
C1066 C 0.89555 0.28578 0.47898 0.0
C1067 C 0.88275 0.30046 0.52659 0.0
C1068 C 0.86771 0.3157 0.54361 0.0
C1069 C 0.88132 0.30143 0.49625 0.0
C1070 C 0.85207 0.3326 0.52981 0.0
C1071 C 0.8507 0.33376 0.49985 0.0
H1072 H 0.72307 0.89559 0.55058 0.0
H1073 H 0.65396 0.8585 0.56423 0.0
H1074 H 0.64709 0.85661 0.51253 0.0
H1075 H 0.66164 0.86271 0.46347 0.0
H1076 H 0.73068 0.89936 0.44843 0.0
H1077 H 0.73645 0.90433 0.50047 0.0
C1078 C 0.70638 0.8874 0.54222 0.0
C1079 C 0.68924 0.87694 0.56137 0.0
C1080 C 0.70256 0.88608 0.51216 0.0
C1081 C 0.66768 0.8664 0.5501 0.0
C1082 C 0.66368 0.8653 0.52046 0.0
C1083 C 0.67795 0.87188 0.47146 0.0
C1084 C 0.69581 0.88035 0.45198 0.0
C1085 C 0.6812 0.87458 0.5013 0.0
C1086 C 0.71664 0.89252 0.46288 0.0
C1087 C 0.71999 0.89535 0.49268 0.0
H1088 H 0.64069 0.8452 0.04228 0.0
H1089 H 0.60284 0.77612 0.05209 0.0
H1090 H 0.59994 0.77219 0.99955 0.0
H1091 H 0.61124 0.78698 0.9507 0.0
H1092 H 0.65014 0.85567 0.94237 0.0
H1093 H 0.64937 0.8611 0.99442 0.0
C1094 C 0.63167 0.82928 0.03306 0.0
C1095 C 0.62229 0.81084 0.05123 0.0
C1096 C 0.63033 0.82701 0.00299 0.0
C1097 C 0.61035 0.79057 0.0387 0.0
C1098 C 0.60874 0.78827 0.00862 0.0
C1099 C 0.61922 0.80328 0.96028 0.0
C1100 C 0.63096 0.82075 0.9426 0.0
C1101 C 0.6191 0.80617 0.99051 0.0
C1102 C 0.64126 0.84176 0.95541 0.0
C1103 C 0.64084 0.84492 0.98522 0.0
H1104 H 0.17075 0.65896 0.963 0.0
H1105 H 0.22321 0.60029 0.9524 0.0
H1106 H 0.22422 0.59402 0.00449 0.0
H1107 H 0.21124 0.60605 0.05347 0.0
H1108 H 0.15849 0.66464 0.06343 0.0
H1109 H 0.15663 0.66984 0.01145 0.0
C1110 C 0.18237 0.64474 0.972 0.0
C1111 C 0.19696 0.63027 0.95362 0.0
C1112 C 0.1829 0.64117 0.00204 0.0
C1113 C 0.21178 0.61182 0.96587 0.0
C1114 C 0.21241 0.6082 0.99575 0.0
C1115 C 0.19925 0.61988 0.0443 0.0
C1116 C 0.18517 0.63496 0.06262 0.0
C1117 C 0.1982 0.6229 0.01411 0.0
C1118 C 0.16966 0.65273 0.05012 0.0
C1119 C 0.16856 0.6558 0.02026 0.0
H1120 H 0.3907 0.21272 0.04701 0.0
H1121 H 0.33584 0.15601 0.05663 0.0
H1122 H 0.33294 0.1519 0.00463 0.0
H1123 H 0.34491 0.16475 0.95616 0.0
H1124 H 0.39977 0.2212 0.94558 0.0
H1125 H 0.40365 0.22485 0.99789 0.0
C1126 C 0.37817 0.19941 0.03777 0.0
C1127 C 0.36348 0.18483 0.05602 0.0
C1128 C 0.37648 0.19703 0.0075 0.0
C1129 C 0.3474 0.16762 0.04341 0.0
C1130 C 0.34567 0.1652 0.01351 0.0
C1131 C 0.35779 0.17784 0.96519 0.0
C1132 C 0.3719 0.19272 0.94674 0.0
C1133 C 0.35996 0.17989 0.99533 0.0
C1134 C 0.38857 0.20948 0.9591 0.0
C1135 C 0.39081 0.21162 0.9891 0.0
H1136 H 0.83205 0.34838 0.05214 0.0
H1137 H 0.77646 0.40477 0.05238 0.0
H1138 H 0.77839 0.40701 0.99963 0.0
H1139 H 0.79467 0.39133 0.95317 0.0
H1140 H 0.85031 0.33479 0.95463 0.0
H1141 H 0.84943 0.33437 0.00688 0.0
C1142 C 0.82033 0.36124 0.04078 0.0
C1143 C 0.80397 0.3762 0.05629 0.0
C1144 C 0.82146 0.36237 0.01061 0.0
C1145 C 0.78921 0.39297 0.04104 0.0
C1146 C 0.79026 0.39421 0.01084 0.0
C1147 C 0.80669 0.37903 0.96491 0.0
C1148 C 0.82235 0.36298 0.94972 0.0
C1149 C 0.80613 0.37876 0.99534 0.0
C1150 C 0.83788 0.34725 0.96547 0.0
C1151 C 0.83745 0.34696 0.9955 0.0
H1152 H 0.61379 0.23152 0.04925 0.0
H1153 H 0.65247 0.16237 0.05292 0.0
H1154 H 0.6522 0.15972 1.00069 0.0
H1155 H 0.64397 0.17805 0.95424 0.0
H1156 H 0.60643 0.2476 0.94869 0.0
H1157 H 0.60291 0.24886 0.00143 0.0
C1158 C 0.62191 0.21579 0.03856 0.0
C1159 C 0.63348 0.19739 0.05495 0.0
C1160 C 0.62201 0.21446 0.00825 0.0
C1161 C 0.64384 0.17704 0.04084 0.0
C1162 C 0.64365 0.17542 0.01094 0.0
C1163 C 0.63494 0.19352 0.96446 0.0
C1164 C 0.62586 0.21289 0.94762 0.0
C1165 C 0.63331 0.19426 0.99449 0.0
C1166 C 0.61372 0.23249 0.96123 0.0
C1167 C 0.61179 0.23327 0.99136 0.0
H1168 H 0.78575 0.6125 0.04992 0.0
H1169 H 0.85132 0.65693 0.05508 0.0
H1170 H 0.85683 0.65385 0.00328 0.0
H1171 H 0.84148 0.64178 0.95611 0.0
H1172 H 0.77568 0.59798 0.94966 0.0
H1173 H 0.7722 0.59726 0.00222 0.0
C1174 C 0.80138 0.62127 0.03975 0.0
C1175 C 0.81782 0.63526 0.05647 0.0
C1176 C 0.80444 0.61964 0.00962 0.0
C1177 C 0.83808 0.64636 0.04285 0.0
C1178 C 0.84134 0.64459 0.01313 0.0
C1179 C 0.82648 0.63183 0.96611 0.0
C1180 C 0.80872 0.62025 0.94884 0.0
C1181 C 0.82435 0.63179 0.99625 0.0
C1182 C 0.78961 0.60719 0.96234 0.0
C1183 C 0.78751 0.60686 0.99245 0.0
H1184 H 0.38973 0.77961 0.94913 0.0
H1185 H 0.35772 0.85213 0.94729 0.0
H1186 H 0.35663 0.85307 0.99961 0.0
H1187 H 0.36064 0.83202 0.0455 0.0
H1188 H 0.39237 0.75964 0.04907 0.0
H1189 H 0.39802 0.76005 0.9965 0.0
C1190 C 0.38291 0.79575 0.96022 0.0
C1191 C 0.37338 0.81555 0.94426 0.0
C1192 C 0.38206 0.79613 0.99058 0.0
C1193 C 0.36474 0.83641 0.95897 0.0
C1194 C 0.3641 0.83702 0.98894 0.0
C1195 C 0.36895 0.81637 0.03481 0.0
C1196 C 0.37565 0.79567 0.05093 0.0
C1197 C 0.37199 0.81672 0.00487 0.0
C1198 C 0.38694 0.77576 0.03697 0.0
C1199 C 0.39006 0.77595 0.00696 0.0
H1200 H 0.1728 0.34069 0.95115 0.0
H1201 H 0.22426 0.40086 0.94704 0.0
H1202 H 0.22448 0.40353 0.99962 0.0
H1203 H 0.21149 0.38758 0.04702 0.0
H1204 H 0.16032 0.32708 0.05053 0.0
H1205 H 0.15859 0.32596 0.9981 0.0
C1206 C 0.18401 0.3545 0.96165 0.0
C1207 C 0.1986 0.37043 0.94494 0.0
C1208 C 0.18419 0.35588 0.99194 0.0
C1209 C 0.21288 0.38825 0.95917 0.0
C1210 C 0.21305 0.3898 0.98933 0.0
C1211 C 0.1998 0.37426 0.03637 0.0
C1212 C 0.18619 0.35736 0.05294 0.0
C1213 C 0.19898 0.37353 0.00598 0.0
C1214 C 0.17116 0.34026 0.03855 0.0
C1215 C 0.17013 0.33956 0.00845 0.0
H1216 H 0.16234 0.32837 0.18945 0.0
H1217 H 0.20442 0.38125 0.23791 0.0
H1218 H 0.19031 0.36292 0.28314 0.0
H1219 H 0.16512 0.33228 0.30907 0.0
H1220 H 0.12371 0.27916 0.26006 0.0
H1221 H 0.13852 0.29704 0.21512 0.0
C1222 C 0.16846 0.33587 0.20989 0.0
C1223 C 0.1843 0.35624 0.21026 0.0
C1224 C 0.16037 0.32516 0.23582 0.0
C1225 C 0.19218 0.3656 0.23698 0.0
C1226 C 0.1841 0.35514 0.26289 0.0
C1227 C 0.15942 0.32459 0.28855 0.0
C1228 C 0.14322 0.30447 0.288 0.0
C1229 C 0.16807 0.33498 0.2626 0.0
C1230 C 0.13612 0.29466 0.26119 0.0
C1231 C 0.14455 0.3049 0.23541 0.0
H1232 H 0.62162 0.19687 0.23946 0.0
H1233 H 0.66206 0.15623 0.17514 0.0
H1234 H 0.68352 0.13372 0.21264 0.0
H1235 H 0.69103 0.12534 0.26356 0.0
H1236 H 0.65111 0.16555 0.32854 0.0
H1237 H 0.62928 0.18833 0.29106 0.0
C1238 C 0.63511 0.18308 0.23374 0.0
C1239 C 0.64022 0.17829 0.20459 0.0
C1240 C 0.64751 0.17006 0.25552 0.0
C1241 C 0.65778 0.16037 0.19744 0.0
C1242 C 0.6701 0.14741 0.21886 0.0
C1243 C 0.67753 0.13905 0.26952 0.0
C1244 C 0.67267 0.14373 0.29869 0.0
C1245 C 0.66512 0.15208 0.24794 0.0
C1246 C 0.65517 0.1616 0.30614 0.0
C1247 C 0.64268 0.17465 0.28473 0.0
H1248 H 0.80152 0.63218 0.24208 0.0
H1249 H 0.84473 0.67346 0.18091 0.0
H1250 H 0.86536 0.69473 0.22006 0.0
H1251 H 0.87207 0.7012 0.2716 0.0
H1252 H 0.83032 0.65945 0.33355 0.0
H1253 H 0.80832 0.63886 0.29437 0.0
C1254 C 0.81537 0.6459 0.23739 0.0
C1255 C 0.82148 0.65121 0.20857 0.0
C1256 C 0.82755 0.65796 0.26018 0.0
C1257 C 0.83958 0.66897 0.20284 0.0
C1258 C 0.85147 0.68118 0.22525 0.0
C1259 C 0.85812 0.68764 0.27655 0.0
C1260 C 0.85286 0.68187 0.30541 0.0
C1261 C 0.84573 0.67574 0.25398 0.0
C1262 C 0.83476 0.6642 0.31147 0.0
C1263 C 0.82216 0.65242 0.28907 0.0
H1264 H 0.3668 0.7988 0.2362 0.0
H1265 H 0.32682 0.83458 0.16775 0.0
H1266 H 0.30175 0.85631 0.20309 0.0
H1267 H 0.29192 0.8662 0.25369 0.0
H1268 H 0.33254 0.83072 0.3219 0.0
H1269 H 0.3564 0.80791 0.28656 0.0
C1270 C 0.35253 0.81127 0.22905 0.0
C1271 C 0.34875 0.8151 0.19944 0.0
C1272 C 0.33826 0.82386 0.24948 0.0
C1273 C 0.33017 0.83132 0.19046 0.0
C1274 C 0.3158 0.84379 0.21065 0.0
C1275 C 0.30592 0.8534 0.26076 0.0
C1276 C 0.31044 0.85023 0.29036 0.0
C1277 C 0.3198 0.84037 0.24025 0.0
C1278 C 0.32866 0.83357 0.29922 0.0
C1279 C 0.34238 0.82048 0.27903 0.0
H1280 H 0.16066 0.66453 0.81685 0.0
H1281 H 0.21244 0.62165 0.76756 0.0
H1282 H 0.19511 0.63715 0.72279 0.0
H1283 H 0.1646 0.66167 0.69731 0.0
H1284 H 0.11291 0.70542 0.74542 0.0
H1285 H 0.13078 0.69082 0.79082 0.0
C1286 C 0.16818 0.65871 0.79629 0.0
C1287 C 0.18772 0.64182 0.79562 0.0
C1288 C 0.15808 0.66774 0.77036 0.0
C1289 C 0.19735 0.63454 0.7688 0.0
C1290 C 0.18743 0.64337 0.74309 0.0
C1291 C 0.15724 0.66808 0.7177 0.0
C1292 C 0.13736 0.68448 0.71797 0.0
C1293 C 0.16767 0.65976 0.7436 0.0
C1294 C 0.12818 0.69272 0.74462 0.0
C1295 C 0.13839 0.68437 0.77059 0.0
H1296 H 0.34198 0.15729 0.69087 0.0
H1297 H 0.29035 0.1139 0.73951 0.0
H1298 H 0.30798 0.12926 0.78474 0.0
H1299 H 0.3386 0.1551 0.81049 0.0
H1300 H 0.38933 0.19862 0.76046 0.0
H1301 H 0.37158 0.1831 0.71595 0.0
C1302 C 0.33451 0.15118 0.71134 0.0
C1303 C 0.31491 0.13444 0.71178 0.0
C1304 C 0.34467 0.16009 0.73712 0.0
C1305 C 0.30544 0.1268 0.73855 0.0
C1306 C 0.31556 0.13555 0.76443 0.0
C1307 C 0.34577 0.16107 0.78983 0.0
C1308 C 0.36535 0.17795 0.78888 0.0
C1309 C 0.33528 0.15217 0.764 0.0
C1310 C 0.3743 0.18567 0.76191 0.0
C1311 C 0.36416 0.17681 0.73635 0.0
H1312 H 0.88749 0.30937 0.72893 0.0
H1313 H 0.83912 0.34843 0.67123 0.0
H1314 H 0.8198 0.3689 0.712 0.0
H1315 H 0.81687 0.37637 0.76406 0.0
H1316 H 0.8653 0.33782 0.82208 0.0
H1317 H 0.88428 0.31666 0.78136 0.0
C1318 C 0.87267 0.32229 0.72534 0.0
C1319 C 0.8648 0.32732 0.69707 0.0
C1320 C 0.86166 0.33422 0.74897 0.0
C1321 C 0.84559 0.34417 0.69275 0.0
C1322 C 0.8345 0.35595 0.71607 0.0
C1323 C 0.8316 0.36337 0.76778 0.0
C1324 C 0.83967 0.35875 0.79603 0.0
C1325 C 0.84246 0.35125 0.74426 0.0
C1326 C 0.85873 0.34176 0.80051 0.0
C1327 C 0.86961 0.32961 0.77723 0.0
H1328 H 0.66788 0.84639 0.69216 0.0
H1329 H 0.71468 0.8915 0.74534 0.0
H1330 H 0.6977 0.87231 0.78878 0.0
H1331 H 0.66854 0.84362 0.81153 0.0
H1332 H 0.62233 0.79825 0.75788 0.0
H1333 H 0.64031 0.81653 0.71464 0.0
C1334 C 0.67448 0.852 0.71323 0.0
C1335 C 0.69244 0.87046 0.71552 0.0
C1336 C 0.66474 0.84082 0.73799 0.0
C1337 C 0.70083 0.87738 0.743 0.0
C1338 C 0.69112 0.86642 0.76782 0.0
C1339 C 0.6625 0.83763 0.79037 0.0
C1340 C 0.64402 0.81968 0.78793 0.0
C1341 C 0.67292 0.84825 0.76557 0.0
C1342 C 0.63649 0.81205 0.76037 0.0
C1343 C 0.64672 0.82253 0.73563 0.0
H1344 H 0.84131 0.66226 0.69758 0.0
H1345 H 0.889 0.70573 0.75152 0.0
H1346 H 0.86995 0.68806 0.79471 0.0
H1347 H 0.83998 0.65969 0.81697 0.0
H1348 H 0.79147 0.61779 0.76223 0.0
H1349 H 0.81048 0.63565 0.71946 0.0
C1350 C 0.84755 0.66797 0.71875 0.0
C1351 C 0.86663 0.68523 0.72132 0.0
C1352 C 0.83631 0.65805 0.74333 0.0
C1353 C 0.87437 0.69245 0.74896 0.0
C1354 C 0.86348 0.68235 0.77364 0.0
C1355 C 0.83355 0.65455 0.79567 0.0
C1356 C 0.81441 0.63734 0.79278 0.0
C1357 C 0.84447 0.66506 0.77108 0.0
C1358 C 0.80615 0.63098 0.76506 0.0
C1359 C 0.81705 0.64113 0.74057 0.0
H1360 H 0.37347 0.80426 0.75907 0.0
H1361 H 0.34321 0.85535 0.82067 0.0
H1362 H 0.32013 0.87561 0.78252 0.0
H1363 H 0.30895 0.87945 0.73134 0.0
H1364 H 0.33994 0.82898 0.66956 0.0
H1365 H 0.36202 0.80789 0.70793 0.0
C1366 C 0.36184 0.81984 0.76409 0.0
C1367 C 0.36011 0.82826 0.79263 0.0
C1368 C 0.34861 0.83154 0.74199 0.0
C1369 C 0.34491 0.84845 0.79885 0.0
C1370 C 0.33164 0.86009 0.77704 0.0
C1371 C 0.3204 0.86374 0.72635 0.0
C1372 C 0.32275 0.85582 0.69768 0.0
C1373 C 0.33338 0.85184 0.74851 0.0
C1374 C 0.33778 0.8355 0.69149 0.0
C1375 C 0.3505 0.82341 0.71341 0.0
H1376 H 0.16501 0.3466 0.68942 0.0
H1377 H 0.11654 0.30035 0.73898 0.0
H1378 H 0.13473 0.31557 0.78378 0.0
H1379 H 0.16448 0.34217 0.80903 0.0
H1380 H 0.21364 0.38744 0.7591 0.0
H1381 H 0.19525 0.37238 0.71447 0.0
C1382 C 0.15838 0.33987 0.71001 0.0
C1383 C 0.13936 0.32243 0.7108 0.0
C1384 C 0.16913 0.34849 0.73571 0.0
C1385 C 0.13113 0.3138 0.73772 0.0
C1386 C 0.14154 0.32249 0.76338 0.0
C1387 C 0.17117 0.34871 0.78838 0.0
C1388 C 0.19038 0.36598 0.78747 0.0
C1389 C 0.16057 0.33984 0.76267 0.0
C1390 C 0.1989 0.37416 0.76049 0.0
C1391 C 0.18835 0.36558 0.73491 0.0
H1392 H 0.69363 0.13604 0.74049 0.0
H1393 H 0.65529 0.17693 0.67467 0.0
H1394 H 0.6343 0.20088 0.71133 0.0
H1395 H 0.62609 0.21 0.76213 0.0
H1396 H 0.66336 0.16865 0.82832 0.0
H1397 H 0.68536 0.14528 0.79167 0.0
C1398 C 0.68073 0.15022 0.73425 0.0
C1399 C 0.67612 0.15469 0.70493 0.0
C1400 C 0.66842 0.1639 0.75553 0.0
C1401 C 0.65928 0.1731 0.69712 0.0
C1402 C 0.64718 0.18685 0.71807 0.0
C1403 C 0.63906 0.19591 0.7685 0.0
C1404 C 0.64308 0.19111 0.79783 0.0
C1405 C 0.65152 0.18237 0.74733 0.0
C1406 C 0.65992 0.17275 0.80581 0.0
C1407 C 0.67253 0.15933 0.78488 0.0
H1408 H 0.83512 0.34112 0.18624 0.0
H1409 H 0.79245 0.3874 0.24269 0.0
H1410 H 0.81075 0.3675 0.28483 0.0
H1411 H 0.84003 0.33797 0.30557 0.0
H1412 H 0.88277 0.29192 0.24888 0.0
H1413 H 0.86322 0.31067 0.2069 0.0
C1414 C 0.82973 0.34679 0.20776 0.0
C1415 C 0.81254 0.36579 0.21133 0.0
C1416 C 0.8404 0.33536 0.23184 0.0
C1417 C 0.80569 0.37285 0.23936 0.0
C1418 C 0.81617 0.36151 0.26346 0.0
C1419 C 0.84499 0.33197 0.28403 0.0
C1420 C 0.86293 0.31367 0.28035 0.0
C1421 C 0.83373 0.3429 0.25996 0.0
C1422 C 0.86908 0.30603 0.25231 0.0
C1423 C 0.85792 0.31675 0.22828 0.0
H1424 H 0.61962 0.81161 0.23877 0.0
H1425 H 0.65852 0.85464 0.17538 0.0
H1426 H 0.68025 0.87637 0.21364 0.0
H1427 H 0.68856 0.88298 0.26508 0.0
H1428 H 0.6486 0.8413 0.32875 0.0
H1429 H 0.62691 0.8193 0.29049 0.0
C1430 C 0.63284 0.82576 0.23337 0.0
C1431 C 0.63754 0.83139 0.20427 0.0
C1432 C 0.64508 0.83844 0.25553 0.0
C1433 C 0.65458 0.8499 0.19759 0.0
C1434 C 0.66704 0.86235 0.21946 0.0
C1435 C 0.67508 0.8691 0.27058 0.0
C1436 C 0.67028 0.86369 0.29969 0.0
C1437 C 0.66249 0.85673 0.24849 0.0
C1438 C 0.65264 0.8458 0.30649 0.0
C1439 C 0.64025 0.83318 0.28462 0.0
H1440 H 0.15758 0.64515 0.31686 0.0
H1441 H 0.10537 0.68718 0.26718 0.0
H1442 H 0.12241 0.67109 0.22259 0.0
H1443 H 0.1521 0.64556 0.19735 0.0
H1444 H 0.20519 0.60367 0.24563 0.0
H1445 H 0.18789 0.61914 0.29096 0.0
C1446 C 0.14992 0.65066 0.29626 0.0
C1447 C 0.13019 0.66732 0.29542 0.0
C1448 C 0.15998 0.6414 0.27039 0.0
C1449 C 0.12055 0.67441 0.26853 0.0
C1450 C 0.13028 0.66522 0.24294 0.0
C1451 C 0.15992 0.63976 0.21776 0.0
C1452 C 0.17989 0.62349 0.21809 0.0
C1453 C 0.15 0.64879 0.24358 0.0
C1454 C 0.18978 0.61619 0.24478 0.0
C1455 C 0.1799 0.62504 0.2707 0.0
H1456 H 0.35112 0.15768 0.31058 0.0
H1457 H 0.30944 0.10535 0.26066 0.0
H1458 H 0.32493 0.12306 0.21611 0.0
H1459 H 0.34977 0.15346 0.19098 0.0
H1460 H 0.39099 0.20686 0.23963 0.0
H1461 H 0.37628 0.18876 0.28485 0.0
C1462 C 0.34558 0.15014 0.28993 0.0
C1463 C 0.32918 0.13019 0.289 0.0
C1464 C 0.3544 0.16063 0.26411 0.0
C1465 C 0.322 0.12072 0.26207 0.0
C1466 C 0.33085 0.13082 0.2365 0.0
C1467 C 0.35559 0.16116 0.21145 0.0
C1468 C 0.37147 0.18145 0.21192 0.0
C1469 C 0.34696 0.15081 0.23724 0.0
C1470 C 0.37876 0.19122 0.23867 0.0
C1471 C 0.37036 0.18087 0.26454 0.0
loop_
_geom_bond_atom_site_label_1
_geom_bond_atom_site_label_2
_geom_bond_distance
_geom_bond_site_symmetry_2
_ccdc_geom_bond_type
Co0 O1 2.216 . S
Co0 O2 2.091 . S
Co0 O4 2.004 . S
Co0 O10 2.021 . S
Co0 O12 2.137 . S
Co0 O13 2.244 . S
O1 Co0 2.216 . S
O1 C8 1.247 . S
O2 Co0 2.091 . S
O2 C8 1.261 . S
C3 O12 1.247 . S
C3 O13 1.272 . S
O4 Co0 2.004 . S
O4 C9 1.259 . S
Co5 O6 2.061 . S
Co5 O11 2.052 . S
Co5 O13 2.135 . S
O6 Co5 2.061 . S
O6 C9 1.235 . S
C7 O10 1.238 . S
C7 O11 1.241 . S
C8 O1 1.247 . S
C8 O2 1.261 . S
C9 O4 1.259 . S
C9 O6 1.235 . S
O10 Co0 2.021 . S
O10 C7 1.238 . S
O11 Co5 2.052 . S
O11 C7 1.241 . S
O12 Co0 2.137 . S
O12 C3 1.247 . S
O13 Co0 2.244 . S
O13 C3 1.272 . S
O13 Co5 2.135 . S
Co14 O15 2.216 . S
Co14 O16 2.091 . S
Co14 O18 2.004 . S
Co14 O24 2.021 . S
Co14 O26 2.137 . S
Co14 O27 2.244 . S
O15 Co14 2.216 . S
O15 C22 1.247 . S
O16 Co14 2.091 . S
O16 C22 1.261 . S
C17 O26 1.247 . S
C17 O27 1.272 . S
O18 Co14 2.004 . S
O18 C23 1.259 . S
Co19 O20 2.061 . S
Co19 O25 2.052 . S
Co19 O27 2.135 . S
O20 Co19 2.061 . S
O20 C23 1.235 . S
C21 O24 1.238 . S
C21 O25 1.241 . S
C22 O15 1.247 . S
C22 O16 1.261 . S
C23 O18 1.259 . S
C23 O20 1.235 . S
O24 Co14 2.021 . S
O24 C21 1.238 . S
O25 Co19 2.052 . S
O25 C21 1.241 . S
O26 Co14 2.137 . S
O26 C17 1.247 . S
O27 Co14 2.244 . S
O27 C17 1.272 . S
O27 Co19 2.135 . S
Co28 O29 2.216 . S
Co28 O30 2.091 . S
Co28 O32 2.004 . S
Co28 O38 2.021 . S
Co28 O40 2.137 . S
Co28 O41 2.244 . S
O29 Co28 2.216 . S
O29 C36 1.247 . S
O30 Co28 2.091 . S
O30 C36 1.261 . S
C31 O40 1.247 . S
C31 O41 1.272 . S
O32 Co28 2.004 . S
O32 C37 1.259 . S
Co33 O34 2.061 . S
Co33 O39 2.052 . S
Co33 O41 2.135 . S
O34 Co33 2.061 . S
O34 C37 1.235 . S
C35 O38 1.238 . S
C35 O39 1.241 . S
C36 O29 1.247 . S
C36 O30 1.261 . S
C37 O32 1.259 . S
C37 O34 1.235 . S
O38 Co28 2.021 . S
O38 C35 1.238 . S
O39 Co33 2.052 . S
O39 C35 1.241 . S
O40 Co28 2.137 . S
O40 C31 1.247 . S
O41 Co28 2.244 . S
O41 C31 1.272 . S
O41 Co33 2.135 . S
Co42 O43 2.216 . S
Co42 O44 2.091 . S
Co42 O46 2.004 . S
Co42 O52 2.021 . S
Co42 O54 2.137 . S
Co42 O55 2.244 . S
O43 Co42 2.216 . S
O43 C50 1.247 . S
O44 Co42 2.091 . S
O44 C50 1.261 . S
C45 O54 1.247 . S
C45 O55 1.272 . S
O46 Co42 2.004 . S
O46 C51 1.259 . S
Co47 O48 2.061 . S
Co47 O53 2.052 . S
Co47 O55 2.135 . S
O48 Co47 2.061 . S
O48 C51 1.235 . S
C49 O52 1.238 . S
C49 O53 1.241 . S
C50 O43 1.247 . S
C50 O44 1.261 . S
C51 O46 1.259 . S
C51 O48 1.235 . S
O52 Co42 2.021 . S
O52 C49 1.238 . S
O53 Co47 2.052 . S
O53 C49 1.241 . S
O54 Co42 2.137 . S
O54 C45 1.247 . S
O55 Co42 2.244 . S
O55 C45 1.272 . S
O55 Co47 2.135 . S
Co56 O57 2.216 . S
Co56 O58 2.091 . S
Co56 O60 2.004 . S
Co56 O66 2.021 . S
Co56 O68 2.137 . S
Co56 O69 2.244 . S
O57 Co56 2.216 . S
O57 C64 1.247 . S
O58 Co56 2.091 . S
O58 C64 1.261 . S
C59 O68 1.247 . S
C59 O69 1.272 . S
O60 Co56 2.004 . S
O60 C65 1.259 . S
Co61 O62 2.061 . S
Co61 O67 2.052 . S
Co61 O69 2.135 . S
O62 Co61 2.061 . S
O62 C65 1.235 . S
C63 O66 1.238 . S
C63 O67 1.241 . S
C64 O57 1.247 . S
C64 O58 1.261 . S
C65 O60 1.259 . S
C65 O62 1.235 . S
O66 Co56 2.021 . S
O66 C63 1.238 . S
O67 Co61 2.052 . S
O67 C63 1.241 . S
O68 Co56 2.137 . S
O68 C59 1.247 . S
O69 Co56 2.244 . S
O69 C59 1.272 . S
O69 Co61 2.135 . S
Co70 O71 2.216 . S
Co70 O72 2.091 . S
Co70 O74 2.004 . S
Co70 O80 2.021 . S
Co70 O82 2.137 . S
Co70 O83 2.244 . S
O71 Co70 2.216 . S
O71 C78 1.247 . S
O72 Co70 2.091 . S
O72 C78 1.261 . S
C73 O82 1.247 . S
C73 O83 1.272 . S
O74 Co70 2.004 . S
O74 C79 1.259 . S
Co75 O76 2.061 . S
Co75 O81 2.052 . S
Co75 O83 2.135 . S
O76 Co75 2.061 . S
O76 C79 1.235 . S
C77 O80 1.238 . S
C77 O81 1.241 . S
C78 O71 1.247 . S
C78 O72 1.261 . S
C79 O74 1.259 . S
C79 O76 1.235 . S
O80 Co70 2.021 . S
O80 C77 1.238 . S
O81 Co75 2.052 . S
O81 C77 1.241 . S
O82 Co70 2.137 . S
O82 C73 1.247 . S
O83 Co70 2.244 . S
O83 C73 1.272 . S
O83 Co75 2.135 . S
Co84 O85 2.216 . S
Co84 O86 2.091 . S
Co84 O88 2.004 . S
Co84 O94 2.021 . S
Co84 O96 2.137 . S
Co84 O97 2.244 . S
O85 Co84 2.216 . S
O85 C92 1.247 . S
O86 Co84 2.091 . S
O86 C92 1.261 . S
C87 O96 1.247 . S
C87 O97 1.272 . S
O88 Co84 2.004 . S
O88 C93 1.259 . S
Co89 O90 2.061 . S
Co89 O95 2.052 . S
Co89 O97 2.135 . S
O90 Co89 2.061 . S
O90 C93 1.235 . S
C91 O94 1.238 . S
C91 O95 1.241 . S
C92 O85 1.247 . S
C92 O86 1.261 . S
C93 O88 1.259 . S
C93 O90 1.235 . S
O94 Co84 2.021 . S
O94 C91 1.238 . S
O95 Co89 2.052 . S
O95 C91 1.241 . S
O96 Co84 2.137 . S
O96 C87 1.247 . S
O97 Co84 2.244 . S
O97 C87 1.272 . S
O97 Co89 2.135 . S
Co98 O99 2.216 . S
Co98 O100 2.091 . S
Co98 O102 2.004 . S
Co98 O108 2.021 . S
Co98 O110 2.137 . S
Co98 O111 2.244 . S
O99 Co98 2.216 . S
O99 C106 1.247 . S
O100 Co98 2.091 . S
O100 C106 1.261 . S
C101 O110 1.247 . S
C101 O111 1.272 . S
O102 Co98 2.004 . S
O102 C107 1.259 . S
Co103 O104 2.061 . S
Co103 O109 2.052 . S
Co103 O111 2.135 . S
O104 Co103 2.061 . S
O104 C107 1.235 . S
C105 O108 1.238 . S
C105 O109 1.241 . S
C106 O99 1.247 . S
C106 O100 1.261 . S
C107 O102 1.259 . S
C107 O104 1.235 . S
O108 Co98 2.021 . S
O108 C105 1.238 . S
O109 Co103 2.052 . S
O109 C105 1.241 . S
O110 Co98 2.137 . S
O110 C101 1.247 . S
O111 Co98 2.244 . S
O111 C101 1.272 . S
O111 Co103 2.135 . S
Co112 O113 2.216 . S
Co112 O114 2.091 . S
Co112 O116 2.004 . S
Co112 O122 2.021 . S
Co112 O124 2.137 . S
Co112 O125 2.244 . S
O113 Co112 2.216 . S
O113 C120 1.247 . S
O114 Co112 2.091 . S
O114 C120 1.261 . S
C115 O124 1.247 . S
C115 O125 1.272 . S
O116 Co112 2.004 . S
O116 C121 1.259 . S
Co117 O118 2.061 . S
Co117 O123 2.052 . S
Co117 O125 2.135 . S
O118 Co117 2.061 . S
O118 C121 1.235 . S
C119 O122 1.238 . S
C119 O123 1.241 . S
C120 O113 1.247 . S
C120 O114 1.261 . S
C121 O116 1.259 . S
C121 O118 1.235 . S
O122 Co112 2.021 . S
O122 C119 1.238 . S
O123 Co117 2.052 . S
O123 C119 1.241 . S
O124 Co112 2.137 . S
O124 C115 1.247 . S
O125 Co112 2.244 . S
O125 C115 1.272 . S
O125 Co117 2.135 . S
Co126 O127 2.216 . S
Co126 O128 2.091 . S
Co126 O130 2.004 . S
Co126 O136 2.021 . S
Co126 O138 2.137 . S
Co126 O139 2.244 . S
O127 Co126 2.216 . S
O127 C134 1.247 . S
O128 Co126 2.091 . S
O128 C134 1.261 . S
C129 O138 1.247 . S
C129 O139 1.272 . S
O130 Co126 2.004 . S
O130 C135 1.259 . S
Co131 O132 2.061 . S
Co131 O137 2.052 . S
Co131 O139 2.135 . S
O132 Co131 2.061 . S
O132 C135 1.235 . S
C133 O136 1.238 . S
C133 O137 1.241 . S
C134 O127 1.247 . S
C134 O128 1.261 . S
C135 O130 1.259 . S
C135 O132 1.235 . S
O136 Co126 2.021 . S
O136 C133 1.238 . S
O137 Co131 2.052 . S
O137 C133 1.241 . S
O138 Co126 2.137 . S
O138 C129 1.247 . S
O139 Co126 2.244 . S
O139 C129 1.272 . S
O139 Co131 2.135 . S
Co140 O141 2.216 . S
Co140 O142 2.091 . S
Co140 O144 2.004 . S
Co140 O150 2.021 . S
Co140 O152 2.137 . S
Co140 O153 2.244 . S
O141 Co140 2.216 . S
O141 C148 1.247 . S
O142 Co140 2.091 . S
O142 C148 1.261 . S
C143 O152 1.247 . S
C143 O153 1.272 . S
O144 Co140 2.004 . S
O144 C149 1.259 . S
Co145 O146 2.061 . S
Co145 O151 2.052 . S
Co145 O153 2.135 . S
O146 Co145 2.061 . S
O146 C149 1.235 . S
C147 O150 1.238 . S
C147 O151 1.241 . S
C148 O141 1.247 . S
C148 O142 1.261 . S
C149 O144 1.259 . S
C149 O146 1.235 . S
O150 Co140 2.021 . S
O150 C147 1.238 . S
O151 Co145 2.052 . S
O151 C147 1.241 . S
O152 Co140 2.137 . S
O152 C143 1.247 . S
O153 Co140 2.244 . S
O153 C143 1.272 . S
O153 Co145 2.135 . S
Co154 O155 2.216 . S
Co154 O156 2.091 . S
Co154 O158 2.004 . S
Co154 O164 2.021 . S
Co154 O166 2.137 . S
Co154 O167 2.244 . S
O155 Co154 2.216 . S
O155 C162 1.247 . S
O156 Co154 2.091 . S
O156 C162 1.261 . S
C157 O166 1.247 . S
C157 O167 1.272 . S
O158 Co154 2.004 . S
O158 C163 1.259 . S
Co159 O160 2.061 . S
Co159 O165 2.052 . S
Co159 O167 2.135 . S
O160 Co159 2.061 . S
O160 C163 1.235 . S
C161 O164 1.238 . S
C161 O165 1.241 . S
C162 O155 1.247 . S
C162 O156 1.261 . S
C163 O158 1.259 . S
C163 O160 1.235 . S
O164 Co154 2.021 . S
O164 C161 1.238 . S
O165 Co159 2.052 . S
O165 C161 1.241 . S
O166 Co154 2.137 . S
O166 C157 1.247 . S
O167 Co154 2.244 . S
O167 C157 1.272 . S
O167 Co159 2.135 . S
Co168 O169 2.216 . S
Co168 O170 2.091 . S
Co168 O172 2.004 . S
Co168 O178 2.021 . S
Co168 O180 2.137 . S
Co168 O181 2.244 . S
O169 Co168 2.216 . S
O169 C176 1.247 . S
O170 Co168 2.091 . S
O170 C176 1.261 . S
C171 O180 1.247 . S
C171 O181 1.272 . S
O172 Co168 2.004 . S
O172 C177 1.259 . S
Co173 O174 2.061 . S
Co173 O179 2.052 . S
Co173 O181 2.135 . S
O174 Co173 2.061 . S
O174 C177 1.235 . S
C175 O178 1.238 . S
C175 O179 1.241 . S
C176 O169 1.247 . S
C176 O170 1.261 . S
C177 O172 1.259 . S
C177 O174 1.235 . S
O178 Co168 2.021 . S
O178 C175 1.238 . S
O179 Co173 2.052 . S
O179 C175 1.241 . S
O180 Co168 2.137 . S
O180 C171 1.247 . S
O181 Co168 2.244 . S
O181 C171 1.272 . S
O181 Co173 2.135 . S
Co182 O183 2.216 . S
Co182 O184 2.091 . S
Co182 O186 2.004 . S
Co182 O192 2.021 . S
Co182 O194 2.137 . S
Co182 O195 2.244 . S
O183 Co182 2.216 . S
O183 C190 1.247 . S
O184 Co182 2.091 . S
O184 C190 1.261 . S
C185 O194 1.247 . S
C185 O195 1.272 . S
O186 Co182 2.004 . S
O186 C191 1.259 . S
Co187 O188 2.061 . S
Co187 O193 2.052 . S
Co187 O195 2.135 . S
O188 Co187 2.061 . S
O188 C191 1.235 . S
C189 O192 1.238 . S
C189 O193 1.241 . S
C190 O183 1.247 . S
C190 O184 1.261 . S
C191 O186 1.259 . S
C191 O188 1.235 . S
O192 Co182 2.021 . S
O192 C189 1.238 . S
O193 Co187 2.052 . S
O193 C189 1.241 . S
O194 Co182 2.137 . S
O194 C185 1.247 . S
O195 Co182 2.244 . S
O195 C185 1.272 . S
O195 Co187 2.135 . S
Co196 O197 2.216 . S
Co196 O198 2.091 . S
Co196 O200 2.004 . S
Co196 O206 2.021 . S
Co196 O208 2.137 . S
Co196 O209 2.244 . S
O197 Co196 2.216 . S
O197 C204 1.247 . S
O198 Co196 2.091 . S
O198 C204 1.261 . S
C199 O208 1.247 . S
C199 O209 1.272 . S
O200 Co196 2.004 . S
O200 C205 1.259 . S
Co201 O202 2.061 . S
Co201 O207 2.052 . S
Co201 O209 2.135 . S
O202 Co201 2.061 . S
O202 C205 1.235 . S
C203 O206 1.238 . S
C203 O207 1.241 . S
C204 O197 1.247 . S
C204 O198 1.261 . S
C205 O200 1.259 . S
C205 O202 1.235 . S
O206 Co196 2.021 . S
O206 C203 1.238 . S
O207 Co201 2.052 . S
O207 C203 1.241 . S
O208 Co196 2.137 . S
O208 C199 1.247 . S
O209 Co196 2.244 . S
O209 C199 1.272 . S
O209 Co201 2.135 . S
Co210 O211 2.216 . S
Co210 O212 2.091 . S
Co210 O214 2.004 . S
Co210 O220 2.021 . S
Co210 O222 2.137 . S
Co210 O223 2.244 . S
O211 Co210 2.216 . S
O211 C218 1.247 . S
O212 Co210 2.091 . S
O212 C218 1.261 . S
C213 O222 1.247 . S
C213 O223 1.272 . S
O214 Co210 2.004 . S
O214 C219 1.259 . S
Co215 O216 2.061 . S
Co215 O221 2.052 . S
Co215 O223 2.135 . S
O216 Co215 2.061 . S
O216 C219 1.235 . S
C217 O220 1.238 . S
C217 O221 1.241 . S
C218 O211 1.247 . S
C218 O212 1.261 . S
C219 O214 1.259 . S
C219 O216 1.235 . S
O220 Co210 2.021 . S
O220 C217 1.238 . S
O221 Co215 2.052 . S
O221 C217 1.241 . S
O222 Co210 2.137 . S
O222 C213 1.247 . S
O223 Co210 2.244 . S
O223 C213 1.272 . S
O223 Co215 2.135 . S
Co224 O225 2.216 . S
Co224 O226 2.091 . S
Co224 O228 2.004 . S
Co224 O234 2.021 . S
Co224 O236 2.137 . S
Co224 O237 2.244 . S
O225 Co224 2.216 . S
O225 C232 1.247 . S
O226 Co224 2.091 . S
O226 C232 1.261 . S
C227 O236 1.247 . S
C227 O237 1.272 . S
O228 Co224 2.004 . S
O228 C233 1.259 . S
Co229 O230 2.061 . S
Co229 O235 2.052 . S
Co229 O237 2.135 . S
O230 Co229 2.061 . S
O230 C233 1.235 . S
C231 O234 1.238 . S
C231 O235 1.241 . S
C232 O225 1.247 . S
C232 O226 1.261 . S
C233 O228 1.259 . S
C233 O230 1.235 . S
O234 Co224 2.021 . S
O234 C231 1.238 . S
O235 Co229 2.052 . S
O235 C231 1.241 . S
O236 Co224 2.137 . S
O236 C227 1.247 . S
O237 Co224 2.244 . S
O237 C227 1.272 . S
O237 Co229 2.135 . S
Co238 O239 2.216 . S
Co238 O240 2.091 . S
Co238 O242 2.004 . S
Co238 O248 2.021 . S
Co238 O250 2.137 . S
Co238 O251 2.244 . S
O239 Co238 2.216 . S
O239 C246 1.247 . S
O240 Co238 2.091 . S
O240 C246 1.261 . S
C241 O250 1.247 . S
C241 O251 1.272 . S
O242 Co238 2.004 . S
O242 C247 1.259 . S
Co243 O244 2.061 . S
Co243 O249 2.052 . S
Co243 O251 2.135 . S
O244 Co243 2.061 . S
O244 C247 1.235 . S
C245 O248 1.238 . S
C245 O249 1.241 . S
C246 O239 1.247 . S
C246 O240 1.261 . S
C247 O242 1.259 . S
C247 O244 1.235 . S
O248 Co238 2.021 . S
O248 C245 1.238 . S
O249 Co243 2.052 . S
O249 C245 1.241 . S
O250 Co238 2.137 . S
O250 C241 1.247 . S
O251 Co238 2.244 . S
O251 C241 1.272 . S
O251 Co243 2.135 . S
Co252 O253 2.216 . S
Co252 O254 2.091 . S
Co252 O256 2.004 . S
Co252 O262 2.021 . S
Co252 O264 2.137 . S
Co252 O265 2.244 . S
O253 Co252 2.216 . S
O253 C260 1.247 . S
O254 Co252 2.091 . S
O254 C260 1.261 . S
C255 O264 1.247 . S
C255 O265 1.272 . S
O256 Co252 2.004 . S
O256 C261 1.259 . S
Co257 O258 2.061 . S
Co257 O263 2.052 . S
Co257 O265 2.135 . S
O258 Co257 2.061 . S
O258 C261 1.235 . S
C259 O262 1.238 . S
C259 O263 1.241 . S
C260 O253 1.247 . S
C260 O254 1.261 . S
C261 O256 1.259 . S
C261 O258 1.235 . S
O262 Co252 2.021 . S
O262 C259 1.238 . S
O263 Co257 2.052 . S
O263 C259 1.241 . S
O264 Co252 2.137 . S
O264 C255 1.247 . S
O265 Co252 2.244 . S
O265 C255 1.272 . S
O265 Co257 2.135 . S
Co266 O267 2.216 . S
Co266 O268 2.091 . S
Co266 O270 2.004 . S
Co266 O276 2.021 . S
Co266 O278 2.137 . S
Co266 O279 2.244 . S
O267 Co266 2.216 . S
O267 C274 1.247 . S
O268 Co266 2.091 . S
O268 C274 1.261 . S
C269 O278 1.247 . S
C269 O279 1.272 . S
O270 Co266 2.004 . S
O270 C275 1.259 . S
Co271 O272 2.061 . S
Co271 O277 2.052 . S
Co271 O279 2.135 . S
O272 Co271 2.061 . S
O272 C275 1.235 . S
C273 O276 1.238 . S
C273 O277 1.241 . S
C274 O267 1.247 . S
C274 O268 1.261 . S
C275 O270 1.259 . S
C275 O272 1.235 . S
O276 Co266 2.021 . S
O276 C273 1.238 . S
O277 Co271 2.052 . S
O277 C273 1.241 . S
O278 Co266 2.137 . S
O278 C269 1.247 . S
O279 Co266 2.244 . S
O279 C269 1.272 . S
O279 Co271 2.135 . S
Co280 O281 2.216 . S
Co280 O282 2.091 . S
Co280 O284 2.004 . S
Co280 O290 2.021 . S
Co280 O292 2.137 . S
Co280 O293 2.244 . S
O281 Co280 2.216 . S
O281 C288 1.247 . S
O282 Co280 2.091 . S
O282 C288 1.261 . S
C283 O292 1.247 . S
C283 O293 1.272 . S
O284 Co280 2.004 . S
O284 C289 1.259 . S
Co285 O286 2.061 . S
Co285 O291 2.052 . S
Co285 O293 2.135 . S
O286 Co285 2.061 . S
O286 C289 1.235 . S
C287 O290 1.238 . S
C287 O291 1.241 . S
C288 O281 1.247 . S
C288 O282 1.261 . S
C289 O284 1.259 . S
C289 O286 1.235 . S
O290 Co280 2.021 . S
O290 C287 1.238 . S
O291 Co285 2.052 . S
O291 C287 1.241 . S
O292 Co280 2.137 . S
O292 C283 1.247 . S
O293 Co280 2.244 . S
O293 C283 1.272 . S
O293 Co285 2.135 . S
Co294 O295 2.216 . S
Co294 O296 2.091 . S
Co294 O298 2.004 . S
Co294 O304 2.021 . S
Co294 O306 2.137 . S
Co294 O307 2.244 . S
O295 Co294 2.216 . S
O295 C302 1.247 . S
O296 Co294 2.091 . S
O296 C302 1.261 . S
C297 O306 1.247 . S
C297 O307 1.272 . S
O298 Co294 2.004 . S
O298 C303 1.259 . S
Co299 O300 2.061 . S
Co299 O305 2.052 . S
Co299 O307 2.135 . S
O300 Co299 2.061 . S
O300 C303 1.235 . S
C301 O304 1.238 . S
C301 O305 1.241 . S
C302 O295 1.247 . S
C302 O296 1.261 . S
C303 O298 1.259 . S
C303 O300 1.235 . S
O304 Co294 2.021 . S
O304 C301 1.238 . S
O305 Co299 2.052 . S
O305 C301 1.241 . S
O306 Co294 2.137 . S
O306 C297 1.247 . S
O307 Co294 2.244 . S
O307 C297 1.272 . S
O307 Co299 2.135 . S
Co308 O309 2.216 . S
Co308 O310 2.091 . S
Co308 O312 2.004 . S
Co308 O318 2.021 . S
Co308 O320 2.137 . S
Co308 O321 2.244 . S
O309 Co308 2.216 . S
O309 C316 1.247 . S
O310 Co308 2.091 . S
O310 C316 1.261 . S
C311 O320 1.247 . S
C311 O321 1.272 . S
O312 Co308 2.004 . S
O312 C317 1.259 . S
Co313 O314 2.061 . S
Co313 O319 2.052 . S
Co313 O321 2.135 . S
O314 Co313 2.061 . S
O314 C317 1.235 . S
C315 O318 1.238 . S
C315 O319 1.241 . S
C316 O309 1.247 . S
C316 O310 1.261 . S
C317 O312 1.259 . S
C317 O314 1.235 . S
O318 Co308 2.021 . S
O318 C315 1.238 . S
O319 Co313 2.052 . S
O319 C315 1.241 . S
O320 Co308 2.137 . S
O320 C311 1.247 . S
O321 Co308 2.244 . S
O321 C311 1.272 . S
O321 Co313 2.135 . S
Co322 O323 2.216 . S
Co322 O324 2.091 . S
Co322 O326 2.004 . S
Co322 O332 2.021 . S
Co322 O334 2.137 . S
Co322 O335 2.244 . S
O323 Co322 2.216 . S
O323 C330 1.247 . S
O324 Co322 2.091 . S
O324 C330 1.261 . S
C325 O334 1.247 . S
C325 O335 1.272 . S
O326 Co322 2.004 . S
O326 C331 1.259 . S
Co327 O328 2.061 . S
Co327 O333 2.052 . S
Co327 O335 2.135 . S
O328 Co327 2.061 . S
O328 C331 1.235 . S
C329 O332 1.238 . S
C329 O333 1.241 . S
C330 O323 1.247 . S
C330 O324 1.261 . S
C331 O326 1.259 . S
C331 O328 1.235 . S
O332 Co322 2.021 . S
O332 C329 1.238 . S
O333 Co327 2.052 . S
O333 C329 1.241 . S
O334 Co322 2.137 . S
O334 C325 1.247 . S
O335 Co322 2.244 . S
O335 C325 1.272 . S
O335 Co327 2.135 . S
Co336 O337 2.216 . S
Co336 O338 2.091 . S
Co336 O340 2.004 . S
Co336 O346 2.021 . S
Co336 O348 2.137 . S
Co336 O349 2.244 . S
O337 Co336 2.216 . S
O337 C344 1.247 . S
O338 Co336 2.091 . S
O338 C344 1.261 . S
C339 O348 1.247 . S
C339 O349 1.272 . S
O340 Co336 2.004 . S
O340 C345 1.259 . S
Co341 O342 2.061 . S
Co341 O347 2.052 . S
Co341 O349 2.135 . S
O342 Co341 2.061 . S
O342 C345 1.235 . S
C343 O346 1.238 . S
C343 O347 1.241 . S
C344 O337 1.247 . S
C344 O338 1.261 . S
C345 O340 1.259 . S
C345 O342 1.235 . S
O346 Co336 2.021 . S
O346 C343 1.238 . S
O347 Co341 2.052 . S
O347 C343 1.241 . S
O348 Co336 2.137 . S
O348 C339 1.247 . S
O349 Co336 2.244 . S
O349 C339 1.272 . S
O349 Co341 2.135 . S
Co350 O351 2.216 . S
Co350 O352 2.091 . S
Co350 O354 2.004 . S
Co350 O360 2.021 . S
Co350 O362 2.137 . S
Co350 O363 2.244 . S
O351 Co350 2.216 . S
O351 C358 1.247 . S
O352 Co350 2.091 . S
O352 C358 1.261 . S
C353 O362 1.247 . S
C353 O363 1.272 . S
O354 Co350 2.004 . S
O354 C359 1.259 . S
Co355 O356 2.061 . S
Co355 O361 2.052 . S
Co355 O363 2.135 . S
O356 Co355 2.061 . S
O356 C359 1.235 . S
C357 O360 1.238 . S
C357 O361 1.241 . S
C358 O351 1.247 . S
C358 O352 1.261 . S
C359 O354 1.259 . S
C359 O356 1.235 . S
O360 Co350 2.021 . S
O360 C357 1.238 . S
O361 Co355 2.052 . S
O361 C357 1.241 . S
O362 Co350 2.137 . S
O362 C353 1.247 . S
O363 Co350 2.244 . S
O363 C353 1.272 . S
O363 Co355 2.135 . S
Co364 O365 2.216 . S
Co364 O366 2.091 . S
Co364 O368 2.004 . S
Co364 O374 2.021 . S
Co364 O376 2.137 . S
Co364 O377 2.244 . S
O365 Co364 2.216 . S
O365 C372 1.247 . S
O366 Co364 2.091 . S
O366 C372 1.261 . S
C367 O376 1.247 . S
C367 O377 1.272 . S
O368 Co364 2.004 . S
O368 C373 1.259 . S
Co369 O370 2.061 . S
Co369 O375 2.052 . S
Co369 O377 2.135 . S
O370 Co369 2.061 . S
O370 C373 1.235 . S
C371 O374 1.238 . S
C371 O375 1.241 . S
C372 O365 1.247 . S
C372 O366 1.261 . S
C373 O368 1.259 . S
C373 O370 1.235 . S
O374 Co364 2.021 . S
O374 C371 1.238 . S
O375 Co369 2.052 . S
O375 C371 1.241 . S
O376 Co364 2.137 . S
O376 C367 1.247 . S
O377 Co364 2.244 . S
O377 C367 1.272 . S
O377 Co369 2.135 . S
Co378 O379 2.216 . S
Co378 O380 2.091 . S
Co378 O382 2.004 . S
Co378 O388 2.021 . S
Co378 O390 2.137 . S
Co378 O391 2.244 . S
O379 Co378 2.216 . S
O379 C386 1.247 . S
O380 Co378 2.091 . S
O380 C386 1.261 . S
C381 O390 1.247 . S
C381 O391 1.272 . S
O382 Co378 2.004 . S
O382 C387 1.259 . S
Co383 O384 2.061 . S
Co383 O389 2.052 . S
Co383 O391 2.135 . S
O384 Co383 2.061 . S
O384 C387 1.235 . S
C385 O388 1.238 . S
C385 O389 1.241 . S
C386 O379 1.247 . S
C386 O380 1.261 . S
C387 O382 1.259 . S
C387 O384 1.235 . S
O388 Co378 2.021 . S
O388 C385 1.238 . S
O389 Co383 2.052 . S
O389 C385 1.241 . S
O390 Co378 2.137 . S
O390 C381 1.247 . S
O391 Co378 2.244 . S
O391 C381 1.272 . S
O391 Co383 2.135 . S
Co392 O393 2.216 . S
Co392 O394 2.091 . S
Co392 O396 2.004 . S
Co392 O402 2.021 . S
Co392 O404 2.137 . S
Co392 O405 2.244 . S
O393 Co392 2.216 . S
O393 C400 1.247 . S
O394 Co392 2.091 . S
O394 C400 1.261 . S
C395 O404 1.247 . S
C395 O405 1.272 . S
O396 Co392 2.004 . S
O396 C401 1.259 . S
Co397 O398 2.061 . S
Co397 O403 2.052 . S
Co397 O405 2.135 . S
O398 Co397 2.061 . S
O398 C401 1.235 . S
C399 O402 1.238 . S
C399 O403 1.241 . S
C400 O393 1.247 . S
C400 O394 1.261 . S
C401 O396 1.259 . S
C401 O398 1.235 . S
O402 Co392 2.021 . S
O402 C399 1.238 . S
O403 Co397 2.052 . S
O403 C399 1.241 . S
O404 Co392 2.137 . S
O404 C395 1.247 . S
O405 Co392 2.244 . S
O405 C395 1.272 . S
O405 Co397 2.135 . S
Co406 O407 2.216 . S
Co406 O408 2.091 . S
Co406 O410 2.004 . S
Co406 O416 2.021 . S
Co406 O418 2.137 . S
Co406 O419 2.244 . S
O407 Co406 2.216 . S
O407 C414 1.247 . S
O408 Co406 2.091 . S
O408 C414 1.261 . S
C409 O418 1.247 . S
C409 O419 1.272 . S
O410 Co406 2.004 . S
O410 C415 1.259 . S
Co411 O412 2.061 . S
Co411 O417 2.052 . S
Co411 O419 2.135 . S
O412 Co411 2.061 . S
O412 C415 1.235 . S
C413 O416 1.238 . S
C413 O417 1.241 . S
C414 O407 1.247 . S
C414 O408 1.261 . S
C415 O410 1.259 . S
C415 O412 1.235 . S
O416 Co406 2.021 . S
O416 C413 1.238 . S
O417 Co411 2.052 . S
O417 C413 1.241 . S
O418 Co406 2.137 . S
O418 C409 1.247 . S
O419 Co406 2.244 . S
O419 C409 1.272 . S
O419 Co411 2.135 . S
Co420 O421 2.216 . S
Co420 O422 2.091 . S
Co420 O424 2.004 . S
Co420 O430 2.021 . S
Co420 O432 2.137 . S
Co420 O433 2.244 . S
O421 Co420 2.216 . S
O421 C428 1.247 . S
O422 Co420 2.091 . S
O422 C428 1.261 . S
C423 O432 1.247 . S
C423 O433 1.272 . S
O424 Co420 2.004 . S
O424 C429 1.259 . S
Co425 O426 2.061 . S
Co425 O431 2.052 . S
Co425 O433 2.135 . S
O426 Co425 2.061 . S
O426 C429 1.235 . S
C427 O430 1.238 . S
C427 O431 1.241 . S
C428 O421 1.247 . S
C428 O422 1.261 . S
C429 O424 1.259 . S
C429 O426 1.235 . S
O430 Co420 2.021 . S
O430 C427 1.238 . S
O431 Co425 2.052 . S
O431 C427 1.241 . S
O432 Co420 2.137 . S
O432 C423 1.247 . S
O433 Co420 2.244 . S
O433 C423 1.272 . S
O433 Co425 2.135 . S
Co434 O435 2.216 . S
Co434 O436 2.091 . S
Co434 O438 2.004 . S
Co434 O444 2.021 . S
Co434 O446 2.137 . S
Co434 O447 2.244 . S
O435 Co434 2.216 . S
O435 C442 1.247 . S
O436 Co434 2.091 . S
O436 C442 1.261 . S
C437 O446 1.247 . S
C437 O447 1.272 . S
O438 Co434 2.004 . S
O438 C443 1.259 . S
Co439 O440 2.061 . S
Co439 O445 2.052 . S
Co439 O447 2.135 . S
O440 Co439 2.061 . S
O440 C443 1.235 . S
C441 O444 1.238 . S
C441 O445 1.241 . S
C442 O435 1.247 . S
C442 O436 1.261 . S
C443 O438 1.259 . S
C443 O440 1.235 . S
O444 Co434 2.021 . S
O444 C441 1.238 . S
O445 Co439 2.052 . S
O445 C441 1.241 . S
O446 Co434 2.137 . S
O446 C437 1.247 . S
O447 Co434 2.244 . S
O447 C437 1.272 . S
O447 Co439 2.135 . S
H448 C454 0.930 . S
H449 C457 0.930 . S
H450 C458 0.930 . S
H451 C459 0.930 . S
H452 C462 0.930 . S
H453 C463 0.930 . S
C454 H448 0.930 . S
C454 C455 1.355 . S
C454 C456 1.415 . S
C455 C454 1.355 . S
C455 C457 1.419 . S
C456 C454 1.415 . S
C456 C461 1.425 . S
C456 C463 1.409 . S
C457 H449 0.930 . S
C457 C455 1.419 . S
C457 C458 1.362 . S
C458 H450 0.930 . S
C458 C457 1.362 . S
C458 C461 1.409 . S
C459 H451 0.930 . S
C459 C460 1.355 . S
C459 C461 1.415 . S
C460 C459 1.355 . S
C460 C462 1.419 . S
C461 C456 1.425 . S
C461 C458 1.409 . S
C461 C459 1.415 . S
C462 H452 0.930 . S
C462 C460 1.419 . S
C462 C463 1.362 . S
C463 H453 0.930 . S
C463 C456 1.409 . S
C463 C462 1.362 . S
H464 C470 0.930 . S
H465 C473 0.930 . S
H466 C474 0.930 . S
H467 C475 0.930 . S
H468 C478 0.930 . S
H469 C479 0.930 . S
C470 H464 0.930 . S
C470 C471 1.355 . S
C470 C472 1.415 . S
C471 C470 1.355 . S
C471 C473 1.419 . S
C472 C470 1.415 . S
C472 C477 1.425 . S
C472 C479 1.409 . S
C473 H465 0.930 . S
C473 C471 1.419 . S
C473 C474 1.362 . S
C474 H466 0.930 . S
C474 C473 1.362 . S
C474 C477 1.409 . S
C475 H467 0.930 . S
C475 C476 1.355 . S
C475 C477 1.415 . S
C476 C475 1.355 . S
C476 C478 1.419 . S
C477 C472 1.425 . S
C477 C474 1.409 . S
C477 C475 1.415 . S
C478 H468 0.930 . S
C478 C476 1.419 . S
C478 C479 1.362 . S
C479 H469 0.930 . S
C479 C472 1.409 . S
C479 C478 1.362 . S
H480 C486 0.930 . S
H481 C489 0.930 . S
H482 C490 0.930 . S
H483 C491 0.930 . S
H484 C494 0.930 . S
H485 C495 0.930 . S
C486 H480 0.930 . S
C486 C487 1.355 . S
C486 C488 1.415 . S
C487 C486 1.355 . S
C487 C489 1.419 . S
C488 C486 1.415 . S
C488 C493 1.425 . S
C488 C495 1.409 . S
C489 H481 0.930 . S
C489 C487 1.419 . S
C489 C490 1.362 . S
C490 H482 0.930 . S
C490 C489 1.362 . S
C490 C493 1.409 . S
C491 H483 0.930 . S
C491 C492 1.355 . S
C491 C493 1.415 . S
C492 C491 1.355 . S
C492 C494 1.419 . S
C493 C488 1.425 . S
C493 C490 1.409 . S
C493 C491 1.415 . S
C494 H484 0.930 . S
C494 C492 1.419 . S
C494 C495 1.362 . S
C495 H485 0.930 . S
C495 C488 1.409 . S
C495 C494 1.362 . S
H496 C502 0.930 . S
H497 C505 0.930 . S
H498 C506 0.930 . S
H499 C507 0.930 . S
H500 C510 0.930 . S
H501 C511 0.930 . S
C502 H496 0.930 . S
C502 C503 1.355 . S
C502 C504 1.415 . S
C503 C502 1.355 . S
C503 C505 1.419 . S
C504 C502 1.415 . S
C504 C509 1.425 . S
C504 C511 1.409 . S
C505 H497 0.930 . S
C505 C503 1.419 . S
C505 C506 1.362 . S
C506 H498 0.930 . S
C506 C505 1.362 . S
C506 C509 1.409 . S
C507 H499 0.930 . S
C507 C508 1.355 . S
C507 C509 1.415 . S
C508 C507 1.355 . S
C508 C510 1.419 . S
C509 C504 1.425 . S
C509 C506 1.409 . S
C509 C507 1.415 . S
C510 H500 0.930 . S
C510 C508 1.419 . S
C510 C511 1.362 . S
C511 H501 0.930 . S
C511 C504 1.409 . S
C511 C510 1.362 . S
H512 C518 0.930 . S
H513 C521 0.930 . S
H514 C522 0.930 . S
H515 C523 0.930 . S
H516 C526 0.930 . S
H517 C527 0.930 . S
C518 H512 0.930 . S
C518 C519 1.355 . S
C518 C520 1.415 . S
C519 C518 1.355 . S
C519 C521 1.419 . S
C520 C518 1.415 . S
C520 C525 1.425 . S
C520 C527 1.409 . S
C521 H513 0.930 . S
C521 C519 1.419 . S
C521 C522 1.362 . S
C522 H514 0.930 . S
C522 C521 1.362 . S
C522 C525 1.409 . S
C523 H515 0.930 . S
C523 C524 1.355 . S
C523 C525 1.415 . S
C524 C523 1.355 . S
C524 C526 1.419 . S
C525 C520 1.425 . S
C525 C522 1.409 . S
C525 C523 1.415 . S
C526 H516 0.930 . S
C526 C524 1.419 . S
C526 C527 1.362 . S
C527 H517 0.930 . S
C527 C520 1.409 . S
C527 C526 1.362 . S
H528 C534 0.930 . S
H529 C537 0.930 . S
H530 C538 0.930 . S
H531 C539 0.930 . S
H532 C542 0.930 . S
H533 C543 0.930 . S
C534 H528 0.930 . S
C534 C535 1.355 . S
C534 C536 1.415 . S
C535 C534 1.355 . S
C535 C537 1.419 . S
C536 C534 1.415 . S
C536 C541 1.425 . S
C536 C543 1.409 . S
C537 H529 0.930 . S
C537 C535 1.419 . S
C537 C538 1.362 . S
C538 H530 0.930 . S
C538 C537 1.362 . S
C538 C541 1.409 . S
C539 H531 0.930 . S
C539 C540 1.355 . S
C539 C541 1.415 . S
C540 C539 1.355 . S
C540 C542 1.419 . S
C541 C536 1.425 . S
C541 C538 1.409 . S
C541 C539 1.415 . S
C542 H532 0.930 . S
C542 C540 1.419 . S
C542 C543 1.362 . S
C543 H533 0.930 . S
C543 C536 1.409 . S
C543 C542 1.362 . S
H544 C550 0.930 . S
H545 C553 0.930 . S
H546 C554 0.930 . S
H547 C555 0.930 . S
H548 C558 0.930 . S
H549 C559 0.930 . S
C550 H544 0.930 . S
C550 C551 1.355 . S
C550 C552 1.415 . S
C551 C550 1.355 . S
C551 C553 1.419 . S
C552 C550 1.415 . S
C552 C557 1.425 . S
C552 C559 1.409 . S
C553 H545 0.930 . S
C553 C551 1.419 . S
C553 C554 1.362 . S
C554 H546 0.930 . S
C554 C553 1.362 . S
C554 C557 1.409 . S
C555 H547 0.930 . S
C555 C556 1.355 . S
C555 C557 1.415 . S
C556 C555 1.355 . S
C556 C558 1.419 . S
C557 C552 1.425 . S
C557 C554 1.409 . S
C557 C555 1.415 . S
C558 H548 0.930 . S
C558 C556 1.419 . S
C558 C559 1.362 . S
C559 H549 0.930 . S
C559 C552 1.409 . S
C559 C558 1.362 . S
H560 C566 0.930 . S
H561 C569 0.930 . S
H562 C570 0.930 . S
H563 C571 0.930 . S
H564 C574 0.930 . S
H565 C575 0.930 . S
C566 H560 0.930 . S
C566 C567 1.355 . S
C566 C568 1.415 . S
C567 C566 1.355 . S
C567 C569 1.419 . S
C568 C566 1.415 . S
C568 C573 1.425 . S
C568 C575 1.409 . S
C569 H561 0.930 . S
C569 C567 1.419 . S
C569 C570 1.362 . S
C570 H562 0.930 . S
C570 C569 1.362 . S
C570 C573 1.409 . S
C571 H563 0.930 . S
C571 C572 1.355 . S
C571 C573 1.415 . S
C572 C571 1.355 . S
C572 C574 1.419 . S
C573 C568 1.425 . S
C573 C570 1.409 . S
C573 C571 1.415 . S
C574 H564 0.930 . S
C574 C572 1.419 . S
C574 C575 1.362 . S
C575 H565 0.930 . S
C575 C568 1.409 . S
C575 C574 1.362 . S
H576 C582 0.930 . S
H577 C585 0.930 . S
H578 C586 0.930 . S
H579 C587 0.930 . S
H580 C590 0.930 . S
H581 C591 0.930 . S
C582 H576 0.930 . S
C582 C583 1.355 . S
C582 C584 1.415 . S
C583 C582 1.355 . S
C583 C585 1.419 . S
C584 C582 1.415 . S
C584 C589 1.425 . S
C584 C591 1.409 . S
C585 H577 0.930 . S
C585 C583 1.419 . S
C585 C586 1.362 . S
C586 H578 0.930 . S
C586 C585 1.362 . S
C586 C589 1.409 . S
C587 H579 0.930 . S
C587 C588 1.355 . S
C587 C589 1.415 . S
C588 C587 1.355 . S
C588 C590 1.419 . S
C589 C584 1.425 . S
C589 C586 1.409 . S
C589 C587 1.415 . S
C590 H580 0.930 . S
C590 C588 1.419 . S
C590 C591 1.362 . S
C591 H581 0.930 . S
C591 C584 1.409 . S
C591 C590 1.362 . S
H592 C598 0.930 . S
H593 C601 0.930 . S
H594 C602 0.930 . S
H595 C603 0.930 . S
H596 C606 0.930 . S
H597 C607 0.930 . S
C598 H592 0.930 . S
C598 C599 1.355 . S
C598 C600 1.415 . S
C599 C598 1.355 . S
C599 C601 1.419 . S
C600 C598 1.415 . S
C600 C605 1.425 . S
C600 C607 1.409 . S
C601 H593 0.930 . S
C601 C599 1.419 . S
C601 C602 1.362 . S
C602 H594 0.930 . S
C602 C601 1.362 . S
C602 C605 1.409 . S
C603 H595 0.930 . S
C603 C604 1.355 . S
C603 C605 1.415 . S
C604 C603 1.355 . S
C604 C606 1.419 . S
C605 C600 1.425 . S
C605 C602 1.409 . S
C605 C603 1.415 . S
C606 H596 0.930 . S
C606 C604 1.419 . S
C606 C607 1.362 . S
C607 H597 0.930 . S
C607 C600 1.409 . S
C607 C606 1.362 . S
H608 C614 0.930 . S
H609 C617 0.930 . S
H610 C618 0.930 . S
H611 C619 0.930 . S
H612 C622 0.930 . S
H613 C623 0.930 . S
C614 H608 0.930 . S
C614 C615 1.355 . S
C614 C616 1.415 . S
C615 C614 1.355 . S
C615 C617 1.419 . S
C616 C614 1.415 . S
C616 C621 1.425 . S
C616 C623 1.409 . S
C617 H609 0.930 . S
C617 C615 1.419 . S
C617 C618 1.362 . S
C618 H610 0.930 . S
C618 C617 1.362 . S
C618 C621 1.409 . S
C619 H611 0.930 . S
C619 C620 1.355 . S
C619 C621 1.415 . S
C620 C619 1.355 . S
C620 C622 1.419 . S
C621 C616 1.425 . S
C621 C618 1.409 . S
C621 C619 1.415 . S
C622 H612 0.930 . S
C622 C620 1.419 . S
C622 C623 1.362 . S
C623 H613 0.930 . S
C623 C616 1.409 . S
C623 C622 1.362 . S
H624 C630 0.930 . S
H625 C633 0.930 . S
H626 C634 0.930 . S
H627 C635 0.930 . S
H628 C638 0.930 . S
H629 C639 0.930 . S
C630 H624 0.930 . S
C630 C631 1.355 . S
C630 C632 1.415 . S
C631 C630 1.355 . S
C631 C633 1.419 . S
C632 C630 1.415 . S
C632 C637 1.425 . S
C632 C639 1.409 . S
C633 H625 0.930 . S
C633 C631 1.419 . S
C633 C634 1.362 . S
C634 H626 0.930 . S
C634 C633 1.362 . S
C634 C637 1.409 . S
C635 H627 0.930 . S
C635 C636 1.355 . S
C635 C637 1.415 . S
C636 C635 1.355 . S
C636 C638 1.419 . S
C637 C632 1.425 . S
C637 C634 1.409 . S
C637 C635 1.415 . S
C638 H628 0.930 . S
C638 C636 1.419 . S
C638 C639 1.362 . S
C639 H629 0.930 . S
C639 C632 1.409 . S
C639 C638 1.362 . S
H640 C646 0.930 . S
H641 C649 0.930 . S
H642 C650 0.930 . S
H643 C651 0.930 . S
H644 C654 0.930 . S
H645 C655 0.930 . S
C646 H640 0.930 . S
C646 C647 1.355 . S
C646 C648 1.415 . S
C647 C646 1.355 . S
C647 C649 1.419 . S
C648 C646 1.415 . S
C648 C653 1.425 . S
C648 C655 1.409 . S
C649 H641 0.930 . S
C649 C647 1.419 . S
C649 C650 1.362 . S
C650 H642 0.930 . S
C650 C649 1.362 . S
C650 C653 1.409 . S
C651 H643 0.930 . S
C651 C652 1.355 . S
C651 C653 1.415 . S
C652 C651 1.355 . S
C652 C654 1.419 . S
C653 C648 1.425 . S
C653 C650 1.409 . S
C653 C651 1.415 . S
C654 H644 0.930 . S
C654 C652 1.419 . S
C654 C655 1.362 . S
C655 H645 0.930 . S
C655 C648 1.409 . S
C655 C654 1.362 . S
H656 C662 0.930 . S
H657 C665 0.930 . S
H658 C666 0.930 . S
H659 C667 0.930 . S
H660 C670 0.930 . S
H661 C671 0.930 . S
C662 H656 0.930 . S
C662 C663 1.355 . S
C662 C664 1.415 . S
C663 C662 1.355 . S
C663 C665 1.419 . S
C664 C662 1.415 . S
C664 C669 1.425 . S
C664 C671 1.409 . S
C665 H657 0.930 . S
C665 C663 1.419 . S
C665 C666 1.362 . S
C666 H658 0.930 . S
C666 C665 1.362 . S
C666 C669 1.409 . S
C667 H659 0.930 . S
C667 C668 1.355 . S
C667 C669 1.415 . S
C668 C667 1.355 . S
C668 C670 1.419 . S
C669 C664 1.425 . S
C669 C666 1.409 . S
C669 C667 1.415 . S
C670 H660 0.930 . S
C670 C668 1.419 . S
C670 C671 1.362 . S
C671 H661 0.930 . S
C671 C664 1.409 . S
C671 C670 1.362 . S
H672 C678 0.930 . S
H673 C681 0.930 . S
H674 C682 0.930 . S
H675 C683 0.930 . S
H676 C686 0.930 . S
H677 C687 0.930 . S
C678 H672 0.930 . S
C678 C679 1.355 . S
C678 C680 1.415 . S
C679 C678 1.355 . S
C679 C681 1.419 . S
C680 C678 1.415 . S
C680 C685 1.425 . S
C680 C687 1.409 . S
C681 H673 0.930 . S
C681 C679 1.419 . S
C681 C682 1.362 . S
C682 H674 0.930 . S
C682 C681 1.362 . S
C682 C685 1.409 . S
C683 H675 0.930 . S
C683 C684 1.355 . S
C683 C685 1.415 . S
C684 C683 1.355 . S
C684 C686 1.419 . S
C685 C680 1.425 . S
C685 C682 1.409 . S
C685 C683 1.415 . S
C686 H676 0.930 . S
C686 C684 1.419 . S
C686 C687 1.362 . S
C687 H677 0.930 . S
C687 C680 1.409 . S
C687 C686 1.362 . S
H688 C694 0.930 . S
H689 C697 0.930 . S
H690 C698 0.930 . S
H691 C699 0.930 . S
H692 C702 0.930 . S
H693 C703 0.930 . S
C694 H688 0.930 . S
C694 C695 1.355 . S
C694 C696 1.415 . S
C695 C694 1.355 . S
C695 C697 1.419 . S
C696 C694 1.415 . S
C696 C701 1.425 . S
C696 C703 1.409 . S
C697 H689 0.930 . S
C697 C695 1.419 . S
C697 C698 1.362 . S
C698 H690 0.930 . S
C698 C697 1.362 . S
C698 C701 1.409 . S
C699 H691 0.930 . S
C699 C700 1.355 . S
C699 C701 1.415 . S
C700 C699 1.355 . S
C700 C702 1.419 . S
C701 C696 1.425 . S
C701 C698 1.409 . S
C701 C699 1.415 . S
C702 H692 0.930 . S
C702 C700 1.419 . S
C702 C703 1.362 . S
C703 H693 0.930 . S
C703 C696 1.409 . S
C703 C702 1.362 . S
H704 C710 0.930 . S
H705 C713 0.930 . S
H706 C714 0.930 . S
H707 C715 0.930 . S
H708 C718 0.930 . S
H709 C719 0.930 . S
C710 H704 0.930 . S
C710 C711 1.355 . S
C710 C712 1.415 . S
C711 C710 1.355 . S
C711 C713 1.419 . S
C712 C710 1.415 . S
C712 C717 1.425 1_655 S
C712 C719 1.409 1_655 S
C713 H705 0.930 . S
C713 C711 1.419 . S
C713 C714 1.362 . S
C714 H706 0.930 . S
C714 C713 1.362 . S
C714 C717 1.409 1_655 S
C715 H707 0.930 . S
C715 C716 1.355 . S
C715 C717 1.415 . S
C716 C715 1.355 . S
C716 C718 1.419 . S
C717 C712 1.425 1_455 S
C717 C714 1.409 1_455 S
C717 C715 1.415 . S
C718 H708 0.930 . S
C718 C716 1.419 . S
C718 C719 1.362 . S
C719 H709 0.930 . S
C719 C712 1.409 1_455 S
C719 C718 1.362 . S
H720 C726 0.930 . S
H721 C729 0.930 . S
H722 C730 0.930 . S
H723 C731 0.930 . S
H724 C734 0.930 . S
H725 C735 0.930 . S
C726 H720 0.930 . S
C726 C727 1.355 . S
C726 C728 1.415 . S
C727 C726 1.355 . S
C727 C729 1.419 . S
C728 C726 1.415 . S
C728 C733 1.425 1_545 S
C728 C735 1.409 1_545 S
C729 H721 0.930 . S
C729 C727 1.419 . S
C729 C730 1.362 . S
C730 H722 0.930 . S
C730 C729 1.362 . S
C730 C733 1.409 1_545 S
C731 H723 0.930 . S
C731 C732 1.355 . S
C731 C733 1.415 . S
C732 C731 1.355 . S
C732 C734 1.419 . S
C733 C728 1.425 1_565 S
C733 C730 1.409 1_565 S
C733 C731 1.415 . S
C734 H724 0.930 . S
C734 C732 1.419 . S
C734 C735 1.362 . S
C735 H725 0.930 . S
C735 C728 1.409 1_565 S
C735 C734 1.362 . S
H736 C742 0.930 . S
H737 C745 0.930 . S
H738 C746 0.930 . S
H739 C747 0.930 . S
H740 C750 0.930 . S
H741 C751 0.930 . S
C742 H736 0.930 . S
C742 C743 1.355 . S
C742 C744 1.415 . S
C743 C742 1.355 . S
C743 C745 1.419 . S
C744 C742 1.415 . S
C744 C749 1.425 1_455 S
C744 C751 1.409 1_455 S
C745 H737 0.930 . S
C745 C743 1.419 . S
C745 C746 1.362 . S
C746 H738 0.930 . S
C746 C745 1.362 . S
C746 C749 1.409 1_455 S
C747 H739 0.930 . S
C747 C748 1.355 . S
C747 C749 1.415 . S
C748 C747 1.355 . S
C748 C750 1.419 . S
C749 C744 1.425 1_655 S
C749 C746 1.409 1_655 S
C749 C747 1.415 . S
C750 H740 0.930 . S
C750 C748 1.419 . S
C750 C751 1.362 . S
C751 H741 0.930 . S
C751 C744 1.409 1_655 S
C751 C750 1.362 . S
H752 C758 0.930 . S
H753 C761 0.930 . S
H754 C762 0.930 . S
H755 C763 0.930 . S
H756 C766 0.930 . S
H757 C767 0.930 . S
C758 H752 0.930 . S
C758 C759 1.355 . S
C758 C760 1.415 . S
C759 C758 1.355 . S
C759 C761 1.419 . S
C760 C758 1.415 . S
C760 C765 1.425 1_565 S
C760 C767 1.409 1_565 S
C761 H753 0.930 . S
C761 C759 1.419 . S
C761 C762 1.362 . S
C762 H754 0.930 . S
C762 C761 1.362 . S
C762 C765 1.409 1_565 S
C763 H755 0.930 . S
C763 C764 1.355 . S
C763 C765 1.415 . S
C764 C763 1.355 . S
C764 C766 1.419 . S
C765 C760 1.425 1_545 S
C765 C762 1.409 1_545 S
C765 C763 1.415 . S
C766 H756 0.930 . S
C766 C764 1.419 . S
C766 C767 1.362 . S
C767 H757 0.930 . S
C767 C760 1.409 1_545 S
C767 C766 1.362 . S
H768 C774 0.930 . S
H769 C777 0.930 . S
H770 C778 0.930 . S
H771 C779 0.930 . S
H772 C782 0.930 . S
H773 C783 0.930 . S
C774 H768 0.930 . S
C774 C775 1.355 . S
C774 C776 1.415 . S
C775 C774 1.355 . S
C775 C777 1.419 . S
C776 C774 1.415 . S
C776 C781 1.425 1_455 S
C776 C783 1.409 1_455 S
C777 H769 0.930 . S
C777 C775 1.419 . S
C777 C778 1.362 . S
C778 H770 0.930 . S
C778 C777 1.362 . S
C778 C781 1.409 1_455 S
C779 H771 0.930 . S
C779 C780 1.355 . S
C779 C781 1.415 . S
C780 C779 1.355 . S
C780 C782 1.419 . S
C781 C776 1.425 1_655 S
C781 C778 1.409 1_655 S
C781 C779 1.415 . S
C782 H772 0.930 . S
C782 C780 1.419 . S
C782 C783 1.362 . S
C783 H773 0.930 . S
C783 C776 1.409 1_655 S
C783 C782 1.362 . S
H784 C790 0.930 . S
H785 C793 0.930 . S
H786 C794 0.930 . S
H787 C795 0.930 . S
H788 C798 0.930 . S
H789 C799 0.930 . S
C790 H784 0.930 . S
C790 C791 1.355 . S
C790 C792 1.415 . S
C791 C790 1.355 . S
C791 C793 1.419 . S
C792 C790 1.415 . S
C792 C797 1.425 1_565 S
C792 C799 1.409 1_565 S
C793 H785 0.930 . S
C793 C791 1.419 . S
C793 C794 1.362 . S
C794 H786 0.930 . S
C794 C793 1.362 . S
C794 C797 1.409 1_565 S
C795 H787 0.930 . S
C795 C796 1.355 . S
C795 C797 1.415 . S
C796 C795 1.355 . S
C796 C798 1.419 . S
C797 C792 1.425 1_545 S
C797 C794 1.409 1_545 S
C797 C795 1.415 . S
C798 H788 0.930 . S
C798 C796 1.419 . S
C798 C799 1.362 . S
C799 H789 0.930 . S
C799 C792 1.409 1_545 S
C799 C798 1.362 . S
H800 C806 0.930 . S
H801 C809 0.930 . S
H802 C810 0.930 . S
H803 C811 0.930 . S
H804 C814 0.930 . S
H805 C815 0.930 . S
C806 H800 0.930 . S
C806 C807 1.355 . S
C806 C808 1.415 . S
C807 C806 1.355 . S
C807 C809 1.419 . S
C808 C806 1.415 . S
C808 C813 1.425 1_455 S
C808 C815 1.409 1_455 S
C809 H801 0.930 . S
C809 C807 1.419 . S
C809 C810 1.362 . S
C810 H802 0.930 . S
C810 C809 1.362 . S
C810 C813 1.409 1_455 S
C811 H803 0.930 . S
C811 C812 1.355 . S
C811 C813 1.415 . S
C812 C811 1.355 . S
C812 C814 1.419 . S
C813 C808 1.425 1_655 S
C813 C810 1.409 1_655 S
C813 C811 1.415 . S
C814 H804 0.930 . S
C814 C812 1.419 . S
C814 C815 1.362 . S
C815 H805 0.930 . S
C815 C808 1.409 1_655 S
C815 C814 1.362 . S
H816 C822 0.930 . S
H817 C825 0.930 . S
H818 C826 0.930 . S
H819 C827 0.930 . S
H820 C830 0.930 . S
H821 C831 0.930 . S
C822 H816 0.930 . S
C822 C823 1.355 . S
C822 C824 1.415 . S
C823 C822 1.355 . S
C823 C825 1.419 . S
C824 C822 1.415 . S
C824 C829 1.425 1_545 S
C824 C831 1.409 1_545 S
C825 H817 0.930 . S
C825 C823 1.419 . S
C825 C826 1.362 . S
C826 H818 0.930 . S
C826 C825 1.362 . S
C826 C829 1.409 1_545 S
C827 H819 0.930 . S
C827 C828 1.355 . S
C827 C829 1.415 . S
C828 C827 1.355 . S
C828 C830 1.419 . S
C829 C824 1.425 1_565 S
C829 C826 1.409 1_565 S
C829 C827 1.415 . S
C830 H820 0.930 . S
C830 C828 1.419 . S
C830 C831 1.362 . S
C831 H821 0.930 . S
C831 C824 1.409 1_565 S
C831 C830 1.362 . S
H832 C838 0.930 . S
H833 C841 0.930 . S
H834 C842 0.930 . S
H835 C843 0.930 . S
H836 C846 0.930 . S
H837 C847 0.930 . S
C838 H832 0.930 . S
C838 C839 1.355 . S
C838 C840 1.415 . S
C839 C838 1.355 . S
C839 C841 1.419 . S
C840 C838 1.415 . S
C840 C845 1.425 . S
C840 C847 1.409 . S
C841 H833 0.930 . S
C841 C839 1.419 . S
C841 C842 1.362 . S
C842 H834 0.930 . S
C842 C841 1.362 . S
C842 C845 1.409 . S
C843 H835 0.930 . S
C843 C844 1.355 . S
C843 C845 1.415 . S
C844 C843 1.355 . S
C844 C846 1.419 . S
C845 C840 1.425 . S
C845 C842 1.409 . S
C845 C843 1.415 . S
C846 H836 0.930 . S
C846 C844 1.419 . S
C846 C847 1.362 . S
C847 H837 0.930 . S
C847 C840 1.409 . S
C847 C846 1.362 . S
H848 C854 0.930 . S
H849 C857 0.930 . S
H850 C858 0.930 . S
H851 C859 0.930 . S
H852 C862 0.930 . S
H853 C863 0.930 . S
C854 H848 0.930 . S
C854 C855 1.355 . S
C854 C856 1.415 . S
C855 C854 1.355 . S
C855 C857 1.419 . S
C856 C854 1.415 . S
C856 C861 1.425 . S
C856 C863 1.409 . S
C857 H849 0.930 . S
C857 C855 1.419 . S
C857 C858 1.362 . S
C858 H850 0.930 . S
C858 C857 1.362 . S
C858 C861 1.409 . S
C859 H851 0.930 . S
C859 C860 1.355 . S
C859 C861 1.415 . S
C860 C859 1.355 . S
C860 C862 1.419 . S
C861 C856 1.425 . S
C861 C858 1.409 . S
C861 C859 1.415 . S
C862 H852 0.930 . S
C862 C860 1.419 . S
C862 C863 1.362 . S
C863 H853 0.930 . S
C863 C856 1.409 . S
C863 C862 1.362 . S
H864 C870 0.930 . S
H865 C873 0.930 . S
H866 C874 0.930 . S
H867 C875 0.930 . S
H868 C878 0.930 . S
H869 C879 0.930 . S
C870 H864 0.930 . S
C870 C871 1.355 . S
C870 C872 1.415 . S
C871 C870 1.355 . S
C871 C873 1.419 . S
C872 C870 1.415 . S
C872 C877 1.425 . S
C872 C879 1.409 . S
C873 H865 0.930 . S
C873 C871 1.419 . S
C873 C874 1.362 . S
C874 H866 0.930 . S
C874 C873 1.362 . S
C874 C877 1.409 . S
C875 H867 0.930 . S
C875 C876 1.355 . S
C875 C877 1.415 . S
C876 C875 1.355 . S
C876 C878 1.419 . S
C877 C872 1.425 . S
C877 C874 1.409 . S
C877 C875 1.415 . S
C878 H868 0.930 . S
C878 C876 1.419 . S
C878 C879 1.362 . S
C879 H869 0.930 . S
C879 C872 1.409 . S
C879 C878 1.362 . S
H880 C886 0.930 . S
H881 C889 0.930 . S
H882 C890 0.930 . S
H883 C891 0.930 . S
H884 C894 0.930 . S
H885 C895 0.930 . S
C886 H880 0.930 . S
C886 C887 1.355 . S
C886 C888 1.415 . S
C887 C886 1.355 . S
C887 C889 1.419 . S
C888 C886 1.415 . S
C888 C893 1.425 . S
C888 C895 1.409 . S
C889 H881 0.930 . S
C889 C887 1.419 . S
C889 C890 1.362 . S
C890 H882 0.930 . S
C890 C889 1.362 . S
C890 C893 1.409 . S
C891 H883 0.930 . S
C891 C892 1.355 . S
C891 C893 1.415 . S
C892 C891 1.355 . S
C892 C894 1.419 . S
C893 C888 1.425 . S
C893 C890 1.409 . S
C893 C891 1.415 . S
C894 H884 0.930 . S
C894 C892 1.419 . S
C894 C895 1.362 . S
C895 H885 0.930 . S
C895 C888 1.409 . S
C895 C894 1.362 . S
H896 C902 0.930 . S
H897 C905 0.930 . S
H898 C906 0.930 . S
H899 C907 0.930 . S
H900 C910 0.930 . S
H901 C911 0.930 . S
C902 H896 0.930 . S
C902 C903 1.355 . S
C902 C904 1.415 . S
C903 C902 1.355 . S
C903 C905 1.419 . S
C904 C902 1.415 . S
C904 C909 1.425 . S
C904 C911 1.409 . S
C905 H897 0.930 . S
C905 C903 1.419 . S
C905 C906 1.362 . S
C906 H898 0.930 . S
C906 C905 1.362 . S
C906 C909 1.409 . S
C907 H899 0.930 . S
C907 C908 1.355 . S
C907 C909 1.415 . S
C908 C907 1.355 . S
C908 C910 1.419 . S
C909 C904 1.425 . S
C909 C906 1.409 . S
C909 C907 1.415 . S
C910 H900 0.930 . S
C910 C908 1.419 . S
C910 C911 1.362 . S
C911 H901 0.930 . S
C911 C904 1.409 . S
C911 C910 1.362 . S
H912 C918 0.930 . S
H913 C921 0.930 . S
H914 C922 0.930 . S
H915 C923 0.930 . S
H916 C926 0.930 . S
H917 C927 0.930 . S
C918 H912 0.930 . S
C918 C919 1.355 . S
C918 C920 1.415 . S
C919 C918 1.355 . S
C919 C921 1.419 . S
C920 C918 1.415 . S
C920 C925 1.425 . S
C920 C927 1.409 . S
C921 H913 0.930 . S
C921 C919 1.419 . S
C921 C922 1.362 . S
C922 H914 0.930 . S
C922 C921 1.362 . S
C922 C925 1.409 . S
C923 H915 0.930 . S
C923 C924 1.355 . S
C923 C925 1.415 . S
C924 C923 1.355 . S
C924 C926 1.419 . S
C925 C920 1.425 . S
C925 C922 1.409 . S
C925 C923 1.415 . S
C926 H916 0.930 . S
C926 C924 1.419 . S
C926 C927 1.362 . S
C927 H917 0.930 . S
C927 C920 1.409 . S
C927 C926 1.362 . S
H928 C934 0.930 . S
H929 C937 0.930 . S
H930 C938 0.930 . S
H931 C939 0.930 . S
H932 C942 0.930 . S
H933 C943 0.930 . S
C934 H928 0.930 . S
C934 C935 1.355 . S
C934 C936 1.415 . S
C935 C934 1.355 . S
C935 C937 1.419 . S
C936 C934 1.415 . S
C936 C941 1.425 . S
C936 C943 1.409 . S
C937 H929 0.930 . S
C937 C935 1.419 . S
C937 C938 1.362 . S
C938 H930 0.930 . S
C938 C937 1.362 . S
C938 C941 1.409 . S
C939 H931 0.930 . S
C939 C940 1.355 . S
C939 C941 1.415 . S
C940 C939 1.355 . S
C940 C942 1.419 . S
C941 C936 1.425 . S
C941 C938 1.409 . S
C941 C939 1.415 . S
C942 H932 0.930 . S
C942 C940 1.419 . S
C942 C943 1.362 . S
C943 H933 0.930 . S
C943 C936 1.409 . S
C943 C942 1.362 . S
H944 C950 0.930 . S
H945 C953 0.930 . S
H946 C954 0.930 . S
H947 C955 0.930 . S
H948 C958 0.930 . S
H949 C959 0.930 . S
C950 H944 0.930 . S
C950 C951 1.355 . S
C950 C952 1.415 . S
C951 C950 1.355 . S
C951 C953 1.419 . S
C952 C950 1.415 . S
C952 C957 1.425 . S
C952 C959 1.409 . S
C953 H945 0.930 . S
C953 C951 1.419 . S
C953 C954 1.362 . S
C954 H946 0.930 . S
C954 C953 1.362 . S
C954 C957 1.409 . S
C955 H947 0.930 . S
C955 C956 1.355 . S
C955 C957 1.415 . S
C956 C955 1.355 . S
C956 C958 1.419 . S
C957 C952 1.425 . S
C957 C954 1.409 . S
C957 C955 1.415 . S
C958 H948 0.930 . S
C958 C956 1.419 . S
C958 C959 1.362 . S
C959 H949 0.930 . S
C959 C952 1.409 . S
C959 C958 1.362 . S
H960 C966 0.930 . S
H961 C969 0.930 . S
H962 C970 0.930 . S
H963 C971 0.930 . S
H964 C974 0.930 . S
H965 C975 0.930 . S
C966 H960 0.930 . S
C966 C967 1.355 . S
C966 C968 1.415 . S
C967 C966 1.355 . S
C967 C969 1.419 . S
C968 C966 1.415 . S
C968 C973 1.425 . S
C968 C975 1.409 . S
C969 H961 0.930 . S
C969 C967 1.419 . S
C969 C970 1.362 . S
C970 H962 0.930 . S
C970 C969 1.362 . S
C970 C973 1.409 . S
C971 H963 0.930 . S
C971 C972 1.355 . S
C971 C973 1.415 . S
C972 C971 1.355 . S
C972 C974 1.419 . S
C973 C968 1.425 . S
C973 C970 1.409 . S
C973 C971 1.415 . S
C974 H964 0.930 . S
C974 C972 1.419 . S
C974 C975 1.362 . S
C975 H965 0.930 . S
C975 C968 1.409 . S
C975 C974 1.362 . S
H976 C982 0.930 . S
H977 C985 0.930 . S
H978 C986 0.930 . S
H979 C987 0.930 . S
H980 C990 0.930 . S
H981 C991 0.930 . S
C982 H976 0.930 . S
C982 C983 1.355 . S
C982 C984 1.415 . S
C983 C982 1.355 . S
C983 C985 1.419 . S
C984 C982 1.415 . S
C984 C989 1.425 . S
C984 C991 1.409 . S
C985 H977 0.930 . S
C985 C983 1.419 . S
C985 C986 1.362 . S
C986 H978 0.930 . S
C986 C985 1.362 . S
C986 C989 1.409 . S
C987 H979 0.930 . S
C987 C988 1.355 . S
C987 C989 1.415 . S
C988 C987 1.355 . S
C988 C990 1.419 . S
C989 C984 1.425 . S
C989 C986 1.409 . S
C989 C987 1.415 . S
C990 H980 0.930 . S
C990 C988 1.419 . S
C990 C991 1.362 . S
C991 H981 0.930 . S
C991 C984 1.409 . S
C991 C990 1.362 . S
H992 C998 0.930 . S
H993 C1001 0.930 . S
H994 C1002 0.930 . S
H995 C1003 0.930 . S
H996 C1006 0.930 . S
H997 C1007 0.930 . S
C998 H992 0.930 . S
C998 C999 1.355 . S
C998 C1000 1.415 . S
C999 C998 1.355 . S
C999 C1001 1.419 . S
C1000 C998 1.415 . S
C1000 C1005 1.425 . S
C1000 C1007 1.409 . S
C1001 H993 0.930 . S
C1001 C999 1.419 . S
C1001 C1002 1.362 . S
C1002 H994 0.930 . S
C1002 C1001 1.362 . S
C1002 C1005 1.409 . S
C1003 H995 0.930 . S
C1003 C1004 1.355 . S
C1003 C1005 1.415 . S
C1004 C1003 1.355 . S
C1004 C1006 1.419 . S
C1005 C1000 1.425 . S
C1005 C1002 1.409 . S
C1005 C1003 1.415 . S
C1006 H996 0.930 . S
C1006 C1004 1.419 . S
C1006 C1007 1.362 . S
C1007 H997 0.930 . S
C1007 C1000 1.409 . S
C1007 C1006 1.362 . S
H1008 C1014 0.930 . S
H1009 C1017 0.930 . S
H1010 C1018 0.930 . S
H1011 C1019 0.930 . S
H1012 C1022 0.930 . S
H1013 C1023 0.930 . S
C1014 H1008 0.930 . S
C1014 C1015 1.355 . S
C1014 C1016 1.415 . S
C1015 C1014 1.355 . S
C1015 C1017 1.419 . S
C1016 C1014 1.415 . S
C1016 C1021 1.425 . S
C1016 C1023 1.409 . S
C1017 H1009 0.930 . S
C1017 C1015 1.419 . S
C1017 C1018 1.362 . S
C1018 H1010 0.930 . S
C1018 C1017 1.362 . S
C1018 C1021 1.409 . S
C1019 H1011 0.930 . S
C1019 C1020 1.355 . S
C1019 C1021 1.415 . S
C1020 C1019 1.355 . S
C1020 C1022 1.419 . S
C1021 C1016 1.425 . S
C1021 C1018 1.409 . S
C1021 C1019 1.415 . S
C1022 H1012 0.930 . S
C1022 C1020 1.419 . S
C1022 C1023 1.362 . S
C1023 H1013 0.930 . S
C1023 C1016 1.409 . S
C1023 C1022 1.362 . S
H1024 C1030 0.930 . S
H1025 C1033 0.930 . S
H1026 C1034 0.930 . S
H1027 C1035 0.930 . S
H1028 C1038 0.930 . S
H1029 C1039 0.930 . S
C1030 H1024 0.930 . S
C1030 C1031 1.355 . S
C1030 C1032 1.415 . S
C1031 C1030 1.355 . S
C1031 C1033 1.419 . S
C1032 C1030 1.415 . S
C1032 C1037 1.425 . S
C1032 C1039 1.409 . S
C1033 H1025 0.930 . S
C1033 C1031 1.419 . S
C1033 C1034 1.362 . S
C1034 H1026 0.930 . S
C1034 C1033 1.362 . S
C1034 C1037 1.409 . S
C1035 H1027 0.930 . S
C1035 C1036 1.355 . S
C1035 C1037 1.415 . S
C1036 C1035 1.355 . S
C1036 C1038 1.419 . S
C1037 C1032 1.425 . S
C1037 C1034 1.409 . S
C1037 C1035 1.415 . S
C1038 H1028 0.930 . S
C1038 C1036 1.419 . S
C1038 C1039 1.362 . S
C1039 H1029 0.930 . S
C1039 C1032 1.409 . S
C1039 C1038 1.362 . S
H1040 C1046 0.930 . S
H1041 C1049 0.930 . S
H1042 C1050 0.930 . S
H1043 C1051 0.930 . S
H1044 C1054 0.930 . S
H1045 C1055 0.930 . S
C1046 H1040 0.930 . S
C1046 C1047 1.355 . S
C1046 C1048 1.415 . S
C1047 C1046 1.355 . S
C1047 C1049 1.419 . S
C1048 C1046 1.415 . S
C1048 C1053 1.425 . S
C1048 C1055 1.409 . S
C1049 H1041 0.930 . S
C1049 C1047 1.419 . S
C1049 C1050 1.362 . S
C1050 H1042 0.930 . S
C1050 C1049 1.362 . S
C1050 C1053 1.409 . S
C1051 H1043 0.930 . S
C1051 C1052 1.355 . S
C1051 C1053 1.415 . S
C1052 C1051 1.355 . S
C1052 C1054 1.419 . S
C1053 C1048 1.425 . S
C1053 C1050 1.409 . S
C1053 C1051 1.415 . S
C1054 H1044 0.930 . S
C1054 C1052 1.419 . S
C1054 C1055 1.362 . S
C1055 H1045 0.930 . S
C1055 C1048 1.409 . S
C1055 C1054 1.362 . S
H1056 C1062 0.930 . S
H1057 C1065 0.930 . S
H1058 C1066 0.930 . S
H1059 C1067 0.930 . S
H1060 C1070 0.930 . S
H1061 C1071 0.930 . S
C1062 H1056 0.930 . S
C1062 C1063 1.355 . S
C1062 C1064 1.415 . S
C1063 C1062 1.355 . S
C1063 C1065 1.419 . S
C1064 C1062 1.415 . S
C1064 C1069 1.425 . S
C1064 C1071 1.409 . S
C1065 H1057 0.930 . S
C1065 C1063 1.419 . S
C1065 C1066 1.362 . S
C1066 H1058 0.930 . S
C1066 C1065 1.362 . S
C1066 C1069 1.409 . S
C1067 H1059 0.930 . S
C1067 C1068 1.355 . S
C1067 C1069 1.415 . S
C1068 C1067 1.355 . S
C1068 C1070 1.419 . S
C1069 C1064 1.425 . S
C1069 C1066 1.409 . S
C1069 C1067 1.415 . S
C1070 H1060 0.930 . S
C1070 C1068 1.419 . S
C1070 C1071 1.362 . S
C1071 H1061 0.930 . S
C1071 C1064 1.409 . S
C1071 C1070 1.362 . S
H1072 C1078 0.930 . S
H1073 C1081 0.930 . S
H1074 C1082 0.930 . S
H1075 C1083 0.930 . S
H1076 C1086 0.930 . S
H1077 C1087 0.930 . S
C1078 H1072 0.930 . S
C1078 C1079 1.355 . S
C1078 C1080 1.415 . S
C1079 C1078 1.355 . S
C1079 C1081 1.419 . S
C1080 C1078 1.415 . S
C1080 C1085 1.425 . S
C1080 C1087 1.409 . S
C1081 H1073 0.930 . S
C1081 C1079 1.419 . S
C1081 C1082 1.362 . S
C1082 H1074 0.930 . S
C1082 C1081 1.362 . S
C1082 C1085 1.409 . S
C1083 H1075 0.930 . S
C1083 C1084 1.355 . S
C1083 C1085 1.415 . S
C1084 C1083 1.355 . S
C1084 C1086 1.419 . S
C1085 C1080 1.425 . S
C1085 C1082 1.409 . S
C1085 C1083 1.415 . S
C1086 H1076 0.930 . S
C1086 C1084 1.419 . S
C1086 C1087 1.362 . S
C1087 H1077 0.930 . S
C1087 C1080 1.409 . S
C1087 C1086 1.362 . S
H1088 C1094 0.930 . S
H1089 C1097 0.930 . S
H1090 C1098 0.930 . S
H1091 C1099 0.930 . S
H1092 C1102 0.930 . S
H1093 C1103 0.930 . S
C1094 H1088 0.930 . S
C1094 C1095 1.355 . S
C1094 C1096 1.415 . S
C1095 C1094 1.355 . S
C1095 C1097 1.419 . S
C1096 C1094 1.415 . S
C1096 C1101 1.425 1_554 S
C1096 C1103 1.409 1_554 S
C1097 H1089 0.930 . S
C1097 C1095 1.419 . S
C1097 C1098 1.362 . S
C1098 H1090 0.930 . S
C1098 C1097 1.362 . S
C1098 C1101 1.409 1_554 S
C1099 H1091 0.930 . S
C1099 C1100 1.355 . S
C1099 C1101 1.415 . S
C1100 C1099 1.355 . S
C1100 C1102 1.419 . S
C1101 C1096 1.425 1_556 S
C1101 C1098 1.409 1_556 S
C1101 C1099 1.415 . S
C1102 H1092 0.930 . S
C1102 C1100 1.419 . S
C1102 C1103 1.362 . S
C1103 H1093 0.930 . S
C1103 C1096 1.409 1_556 S
C1103 C1102 1.362 . S
H1104 C1110 0.930 . S
H1105 C1113 0.930 . S
H1106 C1114 0.930 . S
H1107 C1115 0.930 . S
H1108 C1118 0.930 . S
H1109 C1119 0.930 . S
C1110 H1104 0.930 . S
C1110 C1111 1.355 . S
C1110 C1112 1.415 . S
C1111 C1110 1.355 . S
C1111 C1113 1.419 . S
C1112 C1110 1.415 . S
C1112 C1117 1.425 1_556 S
C1112 C1119 1.409 1_556 S
C1113 H1105 0.930 . S
C1113 C1111 1.419 . S
C1113 C1114 1.362 . S
C1114 H1106 0.930 . S
C1114 C1113 1.362 . S
C1114 C1117 1.409 1_556 S
C1115 H1107 0.930 . S
C1115 C1116 1.355 . S
C1115 C1117 1.415 . S
C1116 C1115 1.355 . S
C1116 C1118 1.419 . S
C1117 C1112 1.425 1_554 S
C1117 C1114 1.409 1_554 S
C1117 C1115 1.415 . S
C1118 H1108 0.930 . S
C1118 C1116 1.419 . S
C1118 C1119 1.362 . S
C1119 H1109 0.930 . S
C1119 C1112 1.409 1_554 S
C1119 C1118 1.362 . S
H1120 C1126 0.930 . S
H1121 C1129 0.930 . S
H1122 C1130 0.930 . S
H1123 C1131 0.930 . S
H1124 C1134 0.930 . S
H1125 C1135 0.930 . S
C1126 H1120 0.930 . S
C1126 C1127 1.355 . S
C1126 C1128 1.415 . S
C1127 C1126 1.355 . S
C1127 C1129 1.419 . S
C1128 C1126 1.415 . S
C1128 C1133 1.425 1_554 S
C1128 C1135 1.409 1_554 S
C1129 H1121 0.930 . S
C1129 C1127 1.419 . S
C1129 C1130 1.362 . S
C1130 H1122 0.930 . S
C1130 C1129 1.362 . S
C1130 C1133 1.409 1_554 S
C1131 H1123 0.930 . S
C1131 C1132 1.355 . S
C1131 C1133 1.415 . S
C1132 C1131 1.355 . S
C1132 C1134 1.419 . S
C1133 C1128 1.425 1_556 S
C1133 C1130 1.409 1_556 S
C1133 C1131 1.415 . S
C1134 H1124 0.930 . S
C1134 C1132 1.419 . S
C1134 C1135 1.362 . S
C1135 H1125 0.930 . S
C1135 C1128 1.409 1_556 S
C1135 C1134 1.362 . S
H1136 C1142 0.930 . S
H1137 C1145 0.930 . S
H1138 C1146 0.930 . S
H1139 C1147 0.930 . S
H1140 C1150 0.930 . S
H1141 C1151 0.930 . S
C1142 H1136 0.930 . S
C1142 C1143 1.355 . S
C1142 C1144 1.415 . S
C1143 C1142 1.355 . S
C1143 C1145 1.419 . S
C1144 C1142 1.415 . S
C1144 C1149 1.425 1_554 S
C1144 C1151 1.409 1_554 S
C1145 H1137 0.930 . S
C1145 C1143 1.419 . S
C1145 C1146 1.362 . S
C1146 H1138 0.930 . S
C1146 C1145 1.362 . S
C1146 C1149 1.409 1_554 S
C1147 H1139 0.930 . S
C1147 C1148 1.355 . S
C1147 C1149 1.415 . S
C1148 C1147 1.355 . S
C1148 C1150 1.419 . S
C1149 C1144 1.425 1_556 S
C1149 C1146 1.409 1_556 S
C1149 C1147 1.415 . S
C1150 H1140 0.930 . S
C1150 C1148 1.419 . S
C1150 C1151 1.362 . S
C1151 H1141 0.930 . S
C1151 C1144 1.409 1_556 S
C1151 C1150 1.362 . S
H1152 C1158 0.930 . S
H1153 C1161 0.930 . S
H1154 C1162 0.930 . S
H1155 C1163 0.930 . S
H1156 C1166 0.930 . S
H1157 C1167 0.930 . S
C1158 H1152 0.930 . S
C1158 C1159 1.355 . S
C1158 C1160 1.415 . S
C1159 C1158 1.355 . S
C1159 C1161 1.419 . S
C1160 C1158 1.415 . S
C1160 C1165 1.425 1_554 S
C1160 C1167 1.409 1_554 S
C1161 H1153 0.930 . S
C1161 C1159 1.419 . S
C1161 C1162 1.362 . S
C1162 H1154 0.930 . S
C1162 C1161 1.362 . S
C1162 C1165 1.409 1_554 S
C1163 H1155 0.930 . S
C1163 C1164 1.355 . S
C1163 C1165 1.415 . S
C1164 C1163 1.355 . S
C1164 C1166 1.419 . S
C1165 C1160 1.425 1_556 S
C1165 C1162 1.409 1_556 S
C1165 C1163 1.415 . S
C1166 H1156 0.930 . S
C1166 C1164 1.419 . S
C1166 C1167 1.362 . S
C1167 H1157 0.930 . S
C1167 C1160 1.409 1_556 S
C1167 C1166 1.362 . S
H1168 C1174 0.930 . S
H1169 C1177 0.930 . S
H1170 C1178 0.930 . S
H1171 C1179 0.930 . S
H1172 C1182 0.930 . S
H1173 C1183 0.930 . S
C1174 H1168 0.930 . S
C1174 C1175 1.355 . S
C1174 C1176 1.415 . S
C1175 C1174 1.355 . S
C1175 C1177 1.419 . S
C1176 C1174 1.415 . S
C1176 C1181 1.425 1_554 S
C1176 C1183 1.409 1_554 S
C1177 H1169 0.930 . S
C1177 C1175 1.419 . S
C1177 C1178 1.362 . S
C1178 H1170 0.930 . S
C1178 C1177 1.362 . S
C1178 C1181 1.409 1_554 S
C1179 H1171 0.930 . S
C1179 C1180 1.355 . S
C1179 C1181 1.415 . S
C1180 C1179 1.355 . S
C1180 C1182 1.419 . S
C1181 C1176 1.425 1_556 S
C1181 C1178 1.409 1_556 S
C1181 C1179 1.415 . S
C1182 H1172 0.930 . S
C1182 C1180 1.419 . S
C1182 C1183 1.362 . S
C1183 H1173 0.930 . S
C1183 C1176 1.409 1_556 S
C1183 C1182 1.362 . S
H1184 C1190 0.930 . S
H1185 C1193 0.930 . S
H1186 C1194 0.930 . S
H1187 C1195 0.930 . S
H1188 C1198 0.930 . S
H1189 C1199 0.930 . S
C1190 H1184 0.930 . S
C1190 C1191 1.355 . S
C1190 C1192 1.415 . S
C1191 C1190 1.355 . S
C1191 C1193 1.419 . S
C1192 C1190 1.415 . S
C1192 C1197 1.425 1_556 S
C1192 C1199 1.409 1_556 S
C1193 H1185 0.930 . S
C1193 C1191 1.419 . S
C1193 C1194 1.362 . S
C1194 H1186 0.930 . S
C1194 C1193 1.362 . S
C1194 C1197 1.409 1_556 S
C1195 H1187 0.930 . S
C1195 C1196 1.355 . S
C1195 C1197 1.415 . S
C1196 C1195 1.355 . S
C1196 C1198 1.419 . S
C1197 C1192 1.425 1_554 S
C1197 C1194 1.409 1_554 S
C1197 C1195 1.415 . S
C1198 H1188 0.930 . S
C1198 C1196 1.419 . S
C1198 C1199 1.362 . S
C1199 H1189 0.930 . S
C1199 C1192 1.409 1_554 S
C1199 C1198 1.362 . S
H1200 C1206 0.930 . S
H1201 C1209 0.930 . S
H1202 C1210 0.930 . S
H1203 C1211 0.930 . S
H1204 C1214 0.930 . S
H1205 C1215 0.930 . S
C1206 H1200 0.930 . S
C1206 C1207 1.355 . S
C1206 C1208 1.415 . S
C1207 C1206 1.355 . S
C1207 C1209 1.419 . S
C1208 C1206 1.415 . S
C1208 C1213 1.425 1_556 S
C1208 C1215 1.409 1_556 S
C1209 H1201 0.930 . S
C1209 C1207 1.419 . S
C1209 C1210 1.362 . S
C1210 H1202 0.930 . S
C1210 C1209 1.362 . S
C1210 C1213 1.409 1_556 S
C1211 H1203 0.930 . S
C1211 C1212 1.355 . S
C1211 C1213 1.415 . S
C1212 C1211 1.355 . S
C1212 C1214 1.419 . S
C1213 C1208 1.425 1_554 S
C1213 C1210 1.409 1_554 S
C1213 C1211 1.415 . S
C1214 H1204 0.930 . S
C1214 C1212 1.419 . S
C1214 C1215 1.362 . S
C1215 H1205 0.930 . S
C1215 C1208 1.409 1_554 S
C1215 C1214 1.362 . S
H1216 C1222 0.930 . S
H1217 C1225 0.930 . S
H1218 C1226 0.930 . S
H1219 C1227 0.930 . S
H1220 C1230 0.930 . S
H1221 C1231 0.930 . S
C1222 H1216 0.930 . S
C1222 C1223 1.355 . S
C1222 C1224 1.415 . S
C1223 C1222 1.355 . S
C1223 C1225 1.419 . S
C1224 C1222 1.415 . S
C1224 C1229 1.425 . S
C1224 C1231 1.409 . S
C1225 H1217 0.930 . S
C1225 C1223 1.419 . S
C1225 C1226 1.362 . S
C1226 H1218 0.930 . S
C1226 C1225 1.362 . S
C1226 C1229 1.409 . S
C1227 H1219 0.930 . S
C1227 C1228 1.355 . S
C1227 C1229 1.415 . S
C1228 C1227 1.355 . S
C1228 C1230 1.419 . S
C1229 C1224 1.425 . S
C1229 C1226 1.409 . S
C1229 C1227 1.415 . S
C1230 H1220 0.930 . S
C1230 C1228 1.419 . S
C1230 C1231 1.362 . S
C1231 H1221 0.930 . S
C1231 C1224 1.409 . S
C1231 C1230 1.362 . S
H1232 C1238 0.930 . S
H1233 C1241 0.930 . S
H1234 C1242 0.930 . S
H1235 C1243 0.930 . S
H1236 C1246 0.930 . S
H1237 C1247 0.930 . S
C1238 H1232 0.930 . S
C1238 C1239 1.355 . S
C1238 C1240 1.415 . S
C1239 C1238 1.355 . S
C1239 C1241 1.419 . S
C1240 C1238 1.415 . S
C1240 C1245 1.425 . S
C1240 C1247 1.409 . S
C1241 H1233 0.930 . S
C1241 C1239 1.419 . S
C1241 C1242 1.362 . S
C1242 H1234 0.930 . S
C1242 C1241 1.362 . S
C1242 C1245 1.409 . S
C1243 H1235 0.930 . S
C1243 C1244 1.355 . S
C1243 C1245 1.415 . S
C1244 C1243 1.355 . S
C1244 C1246 1.419 . S
C1245 C1240 1.425 . S
C1245 C1242 1.409 . S
C1245 C1243 1.415 . S
C1246 H1236 0.930 . S
C1246 C1244 1.419 . S
C1246 C1247 1.362 . S
C1247 H1237 0.930 . S
C1247 C1240 1.409 . S
C1247 C1246 1.362 . S
H1248 C1254 0.930 . S
H1249 C1257 0.930 . S
H1250 C1258 0.930 . S
H1251 C1259 0.930 . S
H1252 C1262 0.930 . S
H1253 C1263 0.930 . S
C1254 H1248 0.930 . S
C1254 C1255 1.355 . S
C1254 C1256 1.415 . S
C1255 C1254 1.355 . S
C1255 C1257 1.419 . S
C1256 C1254 1.415 . S
C1256 C1261 1.425 . S
C1256 C1263 1.409 . S
C1257 H1249 0.930 . S
C1257 C1255 1.419 . S
C1257 C1258 1.362 . S
C1258 H1250 0.930 . S
C1258 C1257 1.362 . S
C1258 C1261 1.409 . S
C1259 H1251 0.930 . S
C1259 C1260 1.355 . S
C1259 C1261 1.415 . S
C1260 C1259 1.355 . S
C1260 C1262 1.419 . S
C1261 C1256 1.425 . S
C1261 C1258 1.409 . S
C1261 C1259 1.415 . S
C1262 H1252 0.930 . S
C1262 C1260 1.419 . S
C1262 C1263 1.362 . S
C1263 H1253 0.930 . S
C1263 C1256 1.409 . S
C1263 C1262 1.362 . S
H1264 C1270 0.930 . S
H1265 C1273 0.930 . S
H1266 C1274 0.930 . S
H1267 C1275 0.930 . S
H1268 C1278 0.930 . S
H1269 C1279 0.930 . S
C1270 H1264 0.930 . S
C1270 C1271 1.355 . S
C1270 C1272 1.415 . S
C1271 C1270 1.355 . S
C1271 C1273 1.419 . S
C1272 C1270 1.415 . S
C1272 C1277 1.425 . S
C1272 C1279 1.409 . S
C1273 H1265 0.930 . S
C1273 C1271 1.419 . S
C1273 C1274 1.362 . S
C1274 H1266 0.930 . S
C1274 C1273 1.362 . S
C1274 C1277 1.409 . S
C1275 H1267 0.930 . S
C1275 C1276 1.355 . S
C1275 C1277 1.415 . S
C1276 C1275 1.355 . S
C1276 C1278 1.419 . S
C1277 C1272 1.425 . S
C1277 C1274 1.409 . S
C1277 C1275 1.415 . S
C1278 H1268 0.930 . S
C1278 C1276 1.419 . S
C1278 C1279 1.362 . S
C1279 H1269 0.930 . S
C1279 C1272 1.409 . S
C1279 C1278 1.362 . S
H1280 C1286 0.930 . S
H1281 C1289 0.930 . S
H1282 C1290 0.930 . S
H1283 C1291 0.930 . S
H1284 C1294 0.930 . S
H1285 C1295 0.930 . S
C1286 H1280 0.930 . S
C1286 C1287 1.355 . S
C1286 C1288 1.415 . S
C1287 C1286 1.355 . S
C1287 C1289 1.419 . S
C1288 C1286 1.415 . S
C1288 C1293 1.425 . S
C1288 C1295 1.409 . S
C1289 H1281 0.930 . S
C1289 C1287 1.419 . S
C1289 C1290 1.362 . S
C1290 H1282 0.930 . S
C1290 C1289 1.362 . S
C1290 C1293 1.409 . S
C1291 H1283 0.930 . S
C1291 C1292 1.355 . S
C1291 C1293 1.415 . S
C1292 C1291 1.355 . S
C1292 C1294 1.419 . S
C1293 C1288 1.425 . S
C1293 C1290 1.409 . S
C1293 C1291 1.415 . S
C1294 H1284 0.930 . S
C1294 C1292 1.419 . S
C1294 C1295 1.362 . S
C1295 H1285 0.930 . S
C1295 C1288 1.409 . S
C1295 C1294 1.362 . S
H1296 C1302 0.930 . S
H1297 C1305 0.930 . S
H1298 C1306 0.930 . S
H1299 C1307 0.930 . S
H1300 C1310 0.930 . S
H1301 C1311 0.930 . S
C1302 H1296 0.930 . S
C1302 C1303 1.355 . S
C1302 C1304 1.415 . S
C1303 C1302 1.355 . S
C1303 C1305 1.419 . S
C1304 C1302 1.415 . S
C1304 C1309 1.425 . S
C1304 C1311 1.409 . S
C1305 H1297 0.930 . S
C1305 C1303 1.419 . S
C1305 C1306 1.362 . S
C1306 H1298 0.930 . S
C1306 C1305 1.362 . S
C1306 C1309 1.409 . S
C1307 H1299 0.930 . S
C1307 C1308 1.355 . S
C1307 C1309 1.415 . S
C1308 C1307 1.355 . S
C1308 C1310 1.419 . S
C1309 C1304 1.425 . S
C1309 C1306 1.409 . S
C1309 C1307 1.415 . S
C1310 H1300 0.930 . S
C1310 C1308 1.419 . S
C1310 C1311 1.362 . S
C1311 H1301 0.930 . S
C1311 C1304 1.409 . S
C1311 C1310 1.362 . S
H1312 C1318 0.930 . S
H1313 C1321 0.930 . S
H1314 C1322 0.930 . S
H1315 C1323 0.930 . S
H1316 C1326 0.930 . S
H1317 C1327 0.930 . S
C1318 H1312 0.930 . S
C1318 C1319 1.355 . S
C1318 C1320 1.415 . S
C1319 C1318 1.355 . S
C1319 C1321 1.419 . S
C1320 C1318 1.415 . S
C1320 C1325 1.425 . S
C1320 C1327 1.409 . S
C1321 H1313 0.930 . S
C1321 C1319 1.419 . S
C1321 C1322 1.362 . S
C1322 H1314 0.930 . S
C1322 C1321 1.362 . S
C1322 C1325 1.409 . S
C1323 H1315 0.930 . S
C1323 C1324 1.355 . S
C1323 C1325 1.415 . S
C1324 C1323 1.355 . S
C1324 C1326 1.419 . S
C1325 C1320 1.425 . S
C1325 C1322 1.409 . S
C1325 C1323 1.415 . S
C1326 H1316 0.930 . S
C1326 C1324 1.419 . S
C1326 C1327 1.362 . S
C1327 H1317 0.930 . S
C1327 C1320 1.409 . S
C1327 C1326 1.362 . S
H1328 C1334 0.930 . S
H1329 C1337 0.930 . S
H1330 C1338 0.930 . S
H1331 C1339 0.930 . S
H1332 C1342 0.930 . S
H1333 C1343 0.930 . S
C1334 H1328 0.930 . S
C1334 C1335 1.355 . S
C1334 C1336 1.415 . S
C1335 C1334 1.355 . S
C1335 C1337 1.419 . S
C1336 C1334 1.415 . S
C1336 C1341 1.425 . S
C1336 C1343 1.409 . S
C1337 H1329 0.930 . S
C1337 C1335 1.419 . S
C1337 C1338 1.362 . S
C1338 H1330 0.930 . S
C1338 C1337 1.362 . S
C1338 C1341 1.409 . S
C1339 H1331 0.930 . S
C1339 C1340 1.355 . S
C1339 C1341 1.415 . S
C1340 C1339 1.355 . S
C1340 C1342 1.419 . S
C1341 C1336 1.425 . S
C1341 C1338 1.409 . S
C1341 C1339 1.415 . S
C1342 H1332 0.930 . S
C1342 C1340 1.419 . S
C1342 C1343 1.362 . S
C1343 H1333 0.930 . S
C1343 C1336 1.409 . S
C1343 C1342 1.362 . S
H1344 C1350 0.930 . S
H1345 C1353 0.930 . S
H1346 C1354 0.930 . S
H1347 C1355 0.930 . S
H1348 C1358 0.930 . S
H1349 C1359 0.930 . S
C1350 H1344 0.930 . S
C1350 C1351 1.355 . S
C1350 C1352 1.415 . S
C1351 C1350 1.355 . S
C1351 C1353 1.419 . S
C1352 C1350 1.415 . S
C1352 C1357 1.425 . S
C1352 C1359 1.409 . S
C1353 H1345 0.930 . S
C1353 C1351 1.419 . S
C1353 C1354 1.362 . S
C1354 H1346 0.930 . S
C1354 C1353 1.362 . S
C1354 C1357 1.409 . S
C1355 H1347 0.930 . S
C1355 C1356 1.355 . S
C1355 C1357 1.415 . S
C1356 C1355 1.355 . S
C1356 C1358 1.419 . S
C1357 C1352 1.425 . S
C1357 C1354 1.409 . S
C1357 C1355 1.415 . S
C1358 H1348 0.930 . S
C1358 C1356 1.419 . S
C1358 C1359 1.362 . S
C1359 H1349 0.930 . S
C1359 C1352 1.409 . S
C1359 C1358 1.362 . S
H1360 C1366 0.930 . S
H1361 C1369 0.930 . S
H1362 C1370 0.930 . S
H1363 C1371 0.930 . S
H1364 C1374 0.930 . S
H1365 C1375 0.930 . S
C1366 H1360 0.930 . S
C1366 C1367 1.355 . S
C1366 C1368 1.415 . S
C1367 C1366 1.355 . S
C1367 C1369 1.419 . S
C1368 C1366 1.415 . S
C1368 C1373 1.425 . S
C1368 C1375 1.409 . S
C1369 H1361 0.930 . S
C1369 C1367 1.419 . S
C1369 C1370 1.362 . S
C1370 H1362 0.930 . S
C1370 C1369 1.362 . S
C1370 C1373 1.409 . S
C1371 H1363 0.930 . S
C1371 C1372 1.355 . S
C1371 C1373 1.415 . S
C1372 C1371 1.355 . S
C1372 C1374 1.419 . S
C1373 C1368 1.425 . S
C1373 C1370 1.409 . S
C1373 C1371 1.415 . S
C1374 H1364 0.930 . S
C1374 C1372 1.419 . S
C1374 C1375 1.362 . S
C1375 H1365 0.930 . S
C1375 C1368 1.409 . S
C1375 C1374 1.362 . S
H1376 C1382 0.930 . S
H1377 C1385 0.930 . S
H1378 C1386 0.930 . S
H1379 C1387 0.930 . S
H1380 C1390 0.930 . S
H1381 C1391 0.930 . S
C1382 H1376 0.930 . S
C1382 C1383 1.355 . S
C1382 C1384 1.415 . S
C1383 C1382 1.355 . S
C1383 C1385 1.419 . S
C1384 C1382 1.415 . S
C1384 C1389 1.425 . S
C1384 C1391 1.409 . S
C1385 H1377 0.930 . S
C1385 C1383 1.419 . S
C1385 C1386 1.362 . S
C1386 H1378 0.930 . S
C1386 C1385 1.362 . S
C1386 C1389 1.409 . S
C1387 H1379 0.930 . S
C1387 C1388 1.355 . S
C1387 C1389 1.415 . S
C1388 C1387 1.355 . S
C1388 C1390 1.419 . S
C1389 C1384 1.425 . S
C1389 C1386 1.409 . S
C1389 C1387 1.415 . S
C1390 H1380 0.930 . S
C1390 C1388 1.419 . S
C1390 C1391 1.362 . S
C1391 H1381 0.930 . S
C1391 C1384 1.409 . S
C1391 C1390 1.362 . S
H1392 C1398 0.930 . S
H1393 C1401 0.930 . S
H1394 C1402 0.930 . S
H1395 C1403 0.930 . S
H1396 C1406 0.930 . S
H1397 C1407 0.930 . S
C1398 H1392 0.930 . S
C1398 C1399 1.355 . S
C1398 C1400 1.415 . S
C1399 C1398 1.355 . S
C1399 C1401 1.419 . S
C1400 C1398 1.415 . S
C1400 C1405 1.425 . S
C1400 C1407 1.409 . S
C1401 H1393 0.930 . S
C1401 C1399 1.419 . S
C1401 C1402 1.362 . S
C1402 H1394 0.930 . S
C1402 C1401 1.362 . S
C1402 C1405 1.409 . S
C1403 H1395 0.930 . S
C1403 C1404 1.355 . S
C1403 C1405 1.415 . S
C1404 C1403 1.355 . S
C1404 C1406 1.419 . S
C1405 C1400 1.425 . S
C1405 C1402 1.409 . S
C1405 C1403 1.415 . S
C1406 H1396 0.930 . S
C1406 C1404 1.419 . S
C1406 C1407 1.362 . S
C1407 H1397 0.930 . S
C1407 C1400 1.409 . S
C1407 C1406 1.362 . S
H1408 C1414 0.930 . S
H1409 C1417 0.930 . S
H1410 C1418 0.930 . S
H1411 C1419 0.930 . S
H1412 C1422 0.930 . S
H1413 C1423 0.930 . S
C1414 H1408 0.930 . S
C1414 C1415 1.355 . S
C1414 C1416 1.415 . S
C1415 C1414 1.355 . S
C1415 C1417 1.419 . S
C1416 C1414 1.415 . S
C1416 C1421 1.425 . S
C1416 C1423 1.409 . S
C1417 H1409 0.930 . S
C1417 C1415 1.419 . S
C1417 C1418 1.362 . S
C1418 H1410 0.930 . S
C1418 C1417 1.362 . S
C1418 C1421 1.409 . S
C1419 H1411 0.930 . S
C1419 C1420 1.355 . S
C1419 C1421 1.415 . S
C1420 C1419 1.355 . S
C1420 C1422 1.419 . S
C1421 C1416 1.425 . S
C1421 C1418 1.409 . S
C1421 C1419 1.415 . S
C1422 H1412 0.930 . S
C1422 C1420 1.419 . S
C1422 C1423 1.362 . S
C1423 H1413 0.930 . S
C1423 C1416 1.409 . S
C1423 C1422 1.362 . S
H1424 C1430 0.930 . S
H1425 C1433 0.930 . S
H1426 C1434 0.930 . S
H1427 C1435 0.930 . S
H1428 C1438 0.930 . S
H1429 C1439 0.930 . S
C1430 H1424 0.930 . S
C1430 C1431 1.355 . S
C1430 C1432 1.415 . S
C1431 C1430 1.355 . S
C1431 C1433 1.419 . S
C1432 C1430 1.415 . S
C1432 C1437 1.425 . S
C1432 C1439 1.409 . S
C1433 H1425 0.930 . S
C1433 C1431 1.419 . S
C1433 C1434 1.362 . S
C1434 H1426 0.930 . S
C1434 C1433 1.362 . S
C1434 C1437 1.409 . S
C1435 H1427 0.930 . S
C1435 C1436 1.355 . S
C1435 C1437 1.415 . S
C1436 C1435 1.355 . S
C1436 C1438 1.419 . S
C1437 C1432 1.425 . S
C1437 C1434 1.409 . S
C1437 C1435 1.415 . S
C1438 H1428 0.930 . S
C1438 C1436 1.419 . S
C1438 C1439 1.362 . S
C1439 H1429 0.930 . S
C1439 C1432 1.409 . S
C1439 C1438 1.362 . S
H1440 C1446 0.930 . S
H1441 C1449 0.930 . S
H1442 C1450 0.930 . S
H1443 C1451 0.930 . S
H1444 C1454 0.930 . S
H1445 C1455 0.930 . S
C1446 H1440 0.930 . S
C1446 C1447 1.355 . S
C1446 C1448 1.415 . S
C1447 C1446 1.355 . S
C1447 C1449 1.419 . S
C1448 C1446 1.415 . S
C1448 C1453 1.425 . S
C1448 C1455 1.409 . S
C1449 H1441 0.930 . S
C1449 C1447 1.419 . S
C1449 C1450 1.362 . S
C1450 H1442 0.930 . S
C1450 C1449 1.362 . S
C1450 C1453 1.409 . S
C1451 H1443 0.930 . S
C1451 C1452 1.355 . S
C1451 C1453 1.415 . S
C1452 C1451 1.355 . S
C1452 C1454 1.419 . S
C1453 C1448 1.425 . S
C1453 C1450 1.409 . S
C1453 C1451 1.415 . S
C1454 H1444 0.930 . S
C1454 C1452 1.419 . S
C1454 C1455 1.362 . S
C1455 H1445 0.930 . S
C1455 C1448 1.409 . S
C1455 C1454 1.362 . S
H1456 C1462 0.930 . S
H1457 C1465 0.930 . S
H1458 C1466 0.930 . S
H1459 C1467 0.930 . S
H1460 C1470 0.930 . S
H1461 C1471 0.930 . S
C1462 H1456 0.930 . S
C1462 C1463 1.355 . S
C1462 C1464 1.415 . S
C1463 C1462 1.355 . S
C1463 C1465 1.419 . S
C1464 C1462 1.415 . S
C1464 C1469 1.425 . S
C1464 C1471 1.409 . S
C1465 H1457 0.930 . S
C1465 C1463 1.419 . S
C1465 C1466 1.362 . S
C1466 H1458 0.930 . S
C1466 C1465 1.362 . S
C1466 C1469 1.409 . S
C1467 H1459 0.930 . S
C1467 C1468 1.355 . S
C1467 C1469 1.415 . S
C1468 C1467 1.355 . S
C1468 C1470 1.419 . S
C1469 C1464 1.425 . S
C1469 C1466 1.409 . S
C1469 C1467 1.415 . S
C1470 H1460 0.930 . S
C1470 C1468 1.419 . S
C1470 C1471 1.362 . S
C1471 H1461 0.930 . S
C1471 C1464 1.409 . S
C1471 C1470 1.362 . S
C455 C219 1.445 . S
C460 C9 1.488 . S
C471 C23 1.459 . S
C476 C177 1.475 . S
C487 C37 1.487 . S
C492 C191 1.447 . S
C503 C205 1.446 . S
C508 C51 1.487 . S
C519 C65 1.472 . S
C524 C135 1.461 . S
C535 C79 1.489 . S
C540 C149 1.444 . S
C551 C163 1.446 . S
C556 C93 1.487 . S
C567 C121 1.445 . S
C572 C107 1.488 . S
C583 C233 1.488 . S
C588 C443 1.445 . S
C599 C247 1.472 . S
C604 C401 1.462 . S
C615 C261 1.453 . S
C620 C415 1.480 . S
C631 C429 1.482 . S
C636 C275 1.452 . S
C647 C289 1.445 . S
C652 C359 1.488 . S
C663 C303 1.483 . S
C668 C373 1.451 . S
C679 C387 1.468 . S
C684 C317 1.466 . S
C695 C331 1.489 . S
C700 C345 1.445 . S
C711 C176 1.443 . S
C716 C8 1.433 . S
C727 C22 1.443 . S
C732 C190 1.433 . S
C743 C204 1.439 . S
C748 C36 1.437 . S
C759 C50 1.437 . S
C764 C218 1.439 . S
C775 C64 1.440 . S
C780 C120 1.436 . S
C791 C134 1.443 . S
C796 C78 1.433 . S
C807 C148 1.433 . S
C812 C92 1.443 . S
C823 C162 1.443 . S
C828 C106 1.434 . S
C839 C232 1.441 . S
C844 C400 1.436 . S
C855 C414 1.433 . S
C860 C246 1.443 . S
C871 C260 1.438 . S
C876 C428 1.439 . S
C887 C274 1.440 . S
C892 C442 1.437 . S
C903 C344 1.433 . S
C908 C288 1.443 . S
C919 C302 1.433 . S
C924 C358 1.443 . S
C935 C316 1.443 . S
C940 C372 1.433 . S
C951 C330 1.443 . S
C956 C386 1.433 . S
C967 C7 1.305 . S
C972 C147 1.345 . S
C983 C161 1.323 . S
C988 C21 1.326 . S
C999 C35 1.336 . S
C1004 C119 1.313 . S
C1015 C133 1.321 . S
C1020 C49 1.328 . S
C1031 C203 1.314 . S
C1036 C63 1.336 . S
C1047 C217 1.343 . S
C1052 C77 1.306 . S
C1063 C175 1.319 . S
C1068 C91 1.330 . S
C1079 C105 1.314 . S
C1084 C189 1.335 . S
C1095 C371 1.306 . S
C1100 C231 1.343 . S
C1111 C245 1.324 . S
C1116 C385 1.325 . S
C1127 C343 1.322 . S
C1132 C259 1.328 . S
C1143 C357 1.348 . S
C1148 C273 1.301 . S
C1159 C287 1.331 . S
C1164 C427 1.318 . S
C1175 C301 1.299 . S
C1180 C441 1.350 . S
C1191 C399 1.300 . S
C1196 C315 1.349 . S
C1207 C413 1.349 . S
C1212 C329 1.300 . S
C1223 C325 1.209 . S
C1228 C3 1.225 . S
C1239 C283 1.264 . S
C1244 C17 1.275 . S
C1255 C297 1.266 . S
C1260 C31 1.275 . S
C1271 C311 1.272 . S
C1276 C45 1.254 . S
C1287 C241 1.221 . S
C1292 C59 1.209 . S
C1303 C73 1.211 . S
C1308 C255 1.229 . S
C1319 C87 1.267 . S
C1324 C269 1.275 . S
C1335 C101 1.220 . S
C1340 C227 1.209 . S
C1351 C115 1.209 . S
C1356 C437 1.223 . S
C1367 C395 1.268 . S
C1372 C129 1.274 . S
C1383 C143 1.226 . S
C1388 C409 1.210 . S
C1399 C157 1.275 . S
C1404 C423 1.264 . S
C1415 C353 1.218 . S
C1420 C171 1.242 . S
C1431 C367 1.260 . S
C1436 C185 1.234 . S
C1447 C199 1.214 . S
C1452 C381 1.209 . S
C1463 C213 1.229 . S
C1468 C339 1.255 . S
