# Generated by pormake.
# Topology fng, (5)-cn, num edge types: 1
# Building blocks:
#     Node 0, Type 0, BuildingBlock: XOMCOT_clean_sbu_1, # of connection points: 5
#     Node 1, Type 0, BuildingBlock: XOMCOT_clean_sbu_1, # of connection points: 5
#     Node 2, Type 0, BuildingBlock: XOMCOT_clean_sbu_1, # of connection points: 5
#     Node 3, Type 0, BuildingBlock: XOMCOT_clean_sbu_1, # of connection points: 5
#     Node 4, Type 0, BuildingBlock: XOMCOT_clean_sbu_1, # of connection points: 5
#     Node 5, Type 0, BuildingBlock: XOMCOT_clean_sbu_1, # of connection points: 5
#     Node 6, Type 0, BuildingBlock: XOMCOT_clean_sbu_1, # of connection points: 5
#     Node 7, Type 0, BuildingBlock: XOMCOT_clean_sbu_1, # of connection points: 5
#     Node 8, Type 0, BuildingBlock: XOMCOT_clean_sbu_1, # of connection points: 5
#     Node 9, Type 0, BuildingBlock: XOMCOT_clean_sbu_1, # of connection points: 5
#     Node 10, Type 0, BuildingBlock: XOMCOT_clean_sbu_1, # of connection points: 5
#     Node 11, Type 0, BuildingBlock: XOMCOT_clean_sbu_1, # of connection points: 5
#     Node 12, Type 0, BuildingBlock: XOMCOT_clean_sbu_1, # of connection points: 5
#     Node 13, Type 0, BuildingBlock: XOMCOT_clean_sbu_1, # of connection points: 5
#     Node 14, Type 0, BuildingBlock: XOMCOT_clean_sbu_1, # of connection points: 5
#     Node 15, Type 0, BuildingBlock: XOMCOT_clean_sbu_1, # of connection points: 5
#     Node 16, Type 0, BuildingBlock: XOMCOT_clean_sbu_1, # of connection points: 5
#     Node 17, Type 0, BuildingBlock: XOMCOT_clean_sbu_1, # of connection points: 5
#     Edge 18, Type (0, 0), BuildingBlock: XUDNAN_clean_linker_2, # of connection points: 2
#     Edge 19, Type (0, 0), BuildingBlock: XUDNAN_clean_linker_2, # of connection points: 2
#     Edge 20, Type (0, 0), BuildingBlock: XUDNAN_clean_linker_2, # of connection points: 2
#     Edge 21, Type (0, 0), BuildingBlock: XUDNAN_clean_linker_2, # of connection points: 2
#     Edge 22, Type (0, 0), BuildingBlock: XUDNAN_clean_linker_2, # of connection points: 2
#     Edge 23, Type (0, 0), BuildingBlock: XUDNAN_clean_linker_2, # of connection points: 2
#     Edge 24, Type (0, 0), BuildingBlock: XUDNAN_clean_linker_2, # of connection points: 2
#     Edge 25, Type (0, 0), BuildingBlock: XUDNAN_clean_linker_2, # of connection points: 2
#     Edge 26, Type (0, 0), BuildingBlock: XUDNAN_clean_linker_2, # of connection points: 2
#     Edge 27, Type (0, 0), BuildingBlock: XUDNAN_clean_linker_2, # of connection points: 2
#     Edge 28, Type (0, 0), BuildingBlock: XUDNAN_clean_linker_2, # of connection points: 2
#     Edge 29, Type (0, 0), BuildingBlock: XUDNAN_clean_linker_2, # of connection points: 2
#     Edge 30, Type (0, 0), BuildingBlock: XUDNAN_clean_linker_2, # of connection points: 2
#     Edge 31, Type (0, 0), BuildingBlock: XUDNAN_clean_linker_2, # of connection points: 2
#     Edge 32, Type (0, 0), BuildingBlock: XUDNAN_clean_linker_2, # of connection points: 2
#     Edge 33, Type (0, 0), BuildingBlock: XUDNAN_clean_linker_2, # of connection points: 2
#     Edge 34, Type (0, 0), BuildingBlock: XUDNAN_clean_linker_2, # of connection points: 2
#     Edge 35, Type (0, 0), BuildingBlock: XUDNAN_clean_linker_2, # of connection points: 2
#     Edge 36, Type (0, 0), BuildingBlock: XUDNAN_clean_linker_2, # of connection points: 2
#     Edge 37, Type (0, 0), BuildingBlock: XUDNAN_clean_linker_2, # of connection points: 2
#     Edge 38, Type (0, 0), BuildingBlock: XUDNAN_clean_linker_2, # of connection points: 2
#     Edge 39, Type (0, 0), BuildingBlock: XUDNAN_clean_linker_2, # of connection points: 2
#     Edge 40, Type (0, 0), BuildingBlock: XUDNAN_clean_linker_2, # of connection points: 2
#     Edge 41, Type (0, 0), BuildingBlock: XUDNAN_clean_linker_2, # of connection points: 2
#     Edge 42, Type (0, 0), BuildingBlock: XUDNAN_clean_linker_2, # of connection points: 2
#     Edge 43, Type (0, 0), BuildingBlock: XUDNAN_clean_linker_2, # of connection points: 2
#     Edge 44, Type (0, 0), BuildingBlock: XUDNAN_clean_linker_2, # of connection points: 2
#     Edge 45, Type (0, 0), BuildingBlock: XUDNAN_clean_linker_2, # of connection points: 2
#     Edge 46, Type (0, 0), BuildingBlock: XUDNAN_clean_linker_2, # of connection points: 2
#     Edge 47, Type (0, 0), BuildingBlock: XUDNAN_clean_linker_2, # of connection points: 2
#     Edge 48, Type (0, 0), BuildingBlock: XUDNAN_clean_linker_2, # of connection points: 2
#     Edge 49, Type (0, 0), BuildingBlock: XUDNAN_clean_linker_2, # of connection points: 2
#     Edge 50, Type (0, 0), BuildingBlock: XUDNAN_clean_linker_2, # of connection points: 2
#     Edge 51, Type (0, 0), BuildingBlock: XUDNAN_clean_linker_2, # of connection points: 2
#     Edge 52, Type (0, 0), BuildingBlock: XUDNAN_clean_linker_2, # of connection points: 2
#     Edge 53, Type (0, 0), BuildingBlock: XUDNAN_clean_linker_2, # of connection points: 2
#     Edge 54, Type (0, 0), BuildingBlock: XUDNAN_clean_linker_2, # of connection points: 2
#     Edge 55, Type (0, 0), BuildingBlock: XUDNAN_clean_linker_2, # of connection points: 2
#     Edge 56, Type (0, 0), BuildingBlock: XUDNAN_clean_linker_2, # of connection points: 2
#     Edge 57, Type (0, 0), BuildingBlock: XUDNAN_clean_linker_2, # of connection points: 2
#     Edge 58, Type (0, 0), BuildingBlock: XUDNAN_clean_linker_2, # of connection points: 2
#     Edge 59, Type (0, 0), BuildingBlock: XUDNAN_clean_linker_2, # of connection points: 2
#     Edge 60, Type (0, 0), BuildingBlock: XUDNAN_clean_linker_2, # of connection points: 2
#     Edge 61, Type (0, 0), BuildingBlock: XUDNAN_clean_linker_2, # of connection points: 2
#     Edge 62, Type (0, 0), BuildingBlock: XUDNAN_clean_linker_2, # of connection points: 2
# Relax obj value: 0.123
# Max RMSD: 0.145
# Mean RMSD: 0.145
data_MOF--net-fng--node1-XOMCOT_clean_sbu_1--edge1-XUDNAN_clean_linker_2
_symmetry_space_group_name_H-M    P1
_symmetry_Int_Tables_number       1
_symmetry_cell_setting            triclinic
loop_
_symmetry_equiv_pos_as_xyz
'x, y, z'
_cell_length_a     80.078556
_cell_length_b     80.324688
_cell_length_c     17.239107
_cell_angle_alpha  90.003771
_cell_angle_beta   90.077616
_cell_angle_gamma 119.96629
loop_
_atom_site_label
_atom_site_type_symbol
_atom_site_fract_x
_atom_site_fract_y
_atom_site_fract_z
_atom_type_partial_charge
C0 C 0.15246 0.27481 0.99166 0.0
C1 C 0.15663 0.27866 0.91419 0.0
N2 N 0.15611 0.26323 0.88106 0.0
N3 N 0.14956 0.25713 0.00755 0.0
C4 C 0.15171 0.25033 0.93875 0.0
H5 H 0.15146 0.28429 0.03352 0.0
Co6 Co 0.14357 0.24553 0.1045 0.0
C7 C 0.15925 0.21857 0.10472 0.0
O8 O 0.1457 0.2068 0.15246 0.0
N9 N 0.13743 0.23412 0.20449 0.0
C10 C 0.1219 0.22124 0.31499 0.0
C11 C 0.11994 0.22253 0.23625 0.0
C12 C 0.14976 0.23917 0.26526 0.0
N13 N 0.14068 0.23203 0.3334 0.0
O14 O 0.16583 0.26801 0.14786 0.0
H15 H 0.10634 0.21638 0.20598 0.0
H16 H 0.16511 0.24888 0.26048 0.0
O17 O 0.15957 0.23387 0.08163 0.0
C18 C 0.16097 0.27867 0.18521 0.0
O19 O 0.14256 0.27335 0.18803 0.0
N20 N 0.12081 0.22493 0.06201 0.0
C21 C 0.08359 0.19831 0.01077 0.0
C22 C 0.09885 0.19448 0.00359 0.0
C23 C 0.11745 0.2081 0.02851 0.0
C24 C 0.10641 0.22928 0.06542 0.0
C25 C 0.08773 0.21619 0.04093 0.0
H26 H 0.12892 0.20502 0.01968 0.0
H27 H 0.10938 0.24289 0.09002 0.0
H28 H 0.1502 0.23627 0.93111 0.0
H29 H 0.15939 0.29162 0.88411 0.0
H30 H 0.11021 0.21427 0.35613 0.0
H31 H 0.09647 0.18112 0.97831 0.0
H32 H 0.07652 0.21986 0.04789 0.0
C33 C 0.75835 0.87272 0.05347 0.0
C34 C 0.75341 0.86842 0.97689 0.0
N35 N 0.75846 0.8849 0.93884 0.0
N36 N 0.76637 0.89181 0.06425 0.0
C37 C 0.76616 0.8989 0.99325 0.0
H38 H 0.75712 0.86266 0.09783 0.0
Co39 Co 0.77715 0.90329 0.15922 0.0
C40 C 0.80554 0.94322 0.11126 0.0
O41 O 0.81906 0.94131 0.14645 0.0
N42 N 0.78695 0.91387 0.25784 0.0
C43 C 0.79306 0.93126 0.36593 0.0
C44 C 0.79337 0.93178 0.28619 0.0
C45 C 0.78238 0.90277 0.32203 0.0
N46 N 0.78584 0.91292 0.38842 0.0
O47 O 0.75353 0.90306 0.18648 0.0
H48 H 0.79592 0.94416 0.25275 0.0
H49 H 0.77506 0.88725 0.31985 0.0
O50 O 0.78804 0.92934 0.11285 0.0
C51 C 0.74133 0.8868 0.21519 0.0
O52 O 0.74632 0.87356 0.22081 0.0
N53 N 0.79943 0.90141 0.13338 0.0
C54 C 0.82271 0.88711 0.07741 0.0
C55 C 0.81942 0.89975 0.03277 0.0
C56 C 0.80776 0.90669 0.06155 0.0
C57 C 0.80338 0.8899 0.17916 0.0
C58 C 0.81521 0.88281 0.15272 0.0
H59 H 0.80431 0.91514 0.02314 0.0
H60 H 0.79609 0.88471 0.23376 0.0
H61 H 0.77231 0.91406 0.98091 0.0
H62 H 0.74765 0.85439 0.9504 0.0
H63 H 0.7959 0.94313 0.40393 0.0
H64 H 0.82481 0.90326 0.97393 0.0
H65 H 0.81706 0.87273 0.18829 0.0
C66 C 0.14975 0.89122 0.05136 0.0
C67 C 0.15158 0.88895 0.97348 0.0
N68 N 0.13441 0.87507 0.94686 0.0
N69 N 0.13145 0.87902 0.07328 0.0
C70 C 0.12246 0.86919 0.00839 0.0
H71 H 0.16074 0.9019 0.08878 0.0
Co72 Co 0.12181 0.87971 0.17017 0.0
C73 C 0.08105 0.86923 0.12937 0.0
O74 O 0.08341 0.88514 0.1606 0.0
N75 N 0.11239 0.8806 0.27059 0.0
C76 C 0.10323 0.89004 0.37618 0.0
C77 C 0.10621 0.89244 0.29776 0.0
C78 C 0.11287 0.87108 0.33472 0.0
N79 N 0.10743 0.8766 0.39914 0.0
O80 O 0.12018 0.85541 0.1955 0.0
H81 H 0.10516 0.90327 0.26459 0.0
H82 H 0.11834 0.86123 0.33598 0.0
O83 O 0.09505 0.86581 0.12909 0.0
C84 C 0.13683 0.85778 0.2112 0.0
O85 O 0.15173 0.87527 0.208 0.0
N86 N 0.12593 0.90446 0.14588 0.0
C87 C 0.13865 0.94328 0.11687 0.0
C88 C 0.1254 0.92892 0.0668 0.0
C89 C 0.11934 0.90952 0.08192 0.0
C90 C 0.13978 0.91836 0.19162 0.0
C91 C 0.14598 0.93774 0.17937 0.0
H92 H 0.10968 0.89864 0.04158 0.0
H93 H 0.14603 0.91431 0.23846 0.0
H94 H 0.10718 0.85898 0.00466 0.0
H95 H 0.1642 0.8975 0.93816 0.0
H96 H 0.09924 0.89823 0.4141 0.0
H97 H 0.11976 0.93263 0.01669 0.0
H98 H 0.15678 0.94835 0.21772 0.0
C99 C 0.27347 0.13594 0.97596 0.0
C100 C 0.27669 0.13867 0.05447 0.0
N101 N 0.26784 0.14806 0.08063 0.0
N102 N 0.26249 0.14342 0.95305 0.0
C103 C 0.25939 0.15084 0.0182 0.0
H104 H 0.27762 0.12773 0.9391 0.0
Co105 Co 0.25071 0.13869 0.85666 0.0
C106 C 0.22235 0.15236 0.87153 0.0
O107 O 0.20913 0.13694 0.83578 0.0
N108 N 0.23881 0.13354 0.7567 0.0
C109 C 0.22058 0.11875 0.65309 0.0
C110 C 0.22264 0.11764 0.73164 0.0
C111 C 0.24589 0.1443 0.69157 0.0
N112 N 0.23525 0.13551 0.62815 0.0
O113 O 0.27327 0.16114 0.81637 0.0
H114 H 0.21283 0.10566 0.76709 0.0
H115 H 0.25913 0.15795 0.68904 0.0
O116 O 0.23909 0.15452 0.88351 0.0
C117 C 0.28536 0.15659 0.79013 0.0
O118 O 0.2806 0.13839 0.79229 0.0
N119 N 0.23026 0.11575 0.8978 0.0
C120 C 0.20541 0.07935 0.96062 0.0
C121 C 0.2042 0.09556 0.9833 0.0
C122 C 0.21701 0.11371 0.95242 0.0
C123 C 0.23208 0.10034 0.87734 0.0
C124 C 0.21971 0.08205 0.90698 0.0
H125 H 0.21663 0.12605 0.97475 0.0
H126 H 0.2434 0.10235 0.83765 0.0
H127 H 0.24973 0.15658 0.0216 0.0
H128 H 0.28396 0.13317 0.0904 0.0
H129 H 0.20944 0.10788 0.61671 0.0
H130 H 0.19364 0.09435 0.02546 0.0
H131 H 0.2218 0.07026 0.88971 0.0
C132 C 0.89626 0.14264 0.93386 0.0
C133 C 0.89572 0.14699 0.01043 0.0
N134 N 0.88358 0.13064 0.04782 0.0
N135 N 0.88442 0.12366 0.92271 0.0
C136 C 0.87685 0.11668 0.99332 0.0
H137 H 0.90524 0.15258 0.88941 0.0
Co138 Co 0.88213 0.11199 0.82734 0.0
C139 C 0.87094 0.07207 0.8766 0.0
O140 O 0.88585 0.07348 0.8389 0.0
N141 N 0.8797 0.10113 0.72849 0.0
C142 C 0.8679 0.08339 0.62157 0.0
C143 C 0.8686 0.08303 0.70125 0.0
C144 C 0.885 0.11216 0.66406 0.0
N145 N 0.87806 0.10179 0.59838 0.0
O146 O 0.85835 0.11203 0.80734 0.0
H147 H 0.85977 0.07047 0.73575 0.0
H148 H 0.89274 0.12769 0.66585 0.0
O149 O 0.86764 0.08613 0.87552 0.0
C150 C 0.8617 0.12833 0.78176 0.0
O151 O 0.87972 0.14211 0.77527 0.0
N152 N 0.90662 0.11397 0.84524 0.0
C153 C 0.94518 0.1252 0.87926 0.0
C154 C 0.93033 0.11372 0.93105 0.0
C155 C 0.91126 0.10859 0.91373 0.0
C156 C 0.92095 0.12513 0.79436 0.0
C157 C 0.94021 0.13074 0.80983 0.0
H158 H 0.90033 0.10091 0.95704 0.0
H159 H 0.91777 0.13073 0.74325 0.0
H160 H 0.86698 0.10164 0.00506 0.0
H161 H 0.90428 0.16095 0.03725 0.0
H162 H 0.8591 0.07125 0.58432 0.0
H163 H 0.93352 0.10952 0.98634 0.0
H164 H 0.95119 0.13976 0.76842 0.0
C165 C 0.88335 0.75703 0.97112 0.0
C166 C 0.88317 0.75379 0.04974 0.0
N167 N 0.90096 0.75766 0.07166 0.0
N168 N 0.90123 0.76316 0.94358 0.0
C169 C 0.91135 0.76267 0.00532 0.0
H170 H 0.87168 0.75651 0.93754 0.0
Co171 Co 0.91097 0.77417 0.84628 0.0
C172 C 0.94953 0.80464 0.91318 0.0
O173 O 0.94473 0.81804 0.91036 0.0
N174 N 0.921 0.7848 0.74753 0.0
C175 C 0.93897 0.80419 0.65227 0.0
C176 C 0.93518 0.8028 0.73031 0.0
C177 C 0.91612 0.77569 0.67799 0.0
N178 N 0.92701 0.7871 0.61952 0.0
O179 O 0.91332 0.75199 0.8193 0.0
H180 H 0.94235 0.8144 0.77096 0.0
H181 H 0.90512 0.76085 0.67007 0.0
O182 O 0.93773 0.78762 0.88887 0.0
C183 C 0.89675 0.739 0.79551 0.0
O184 O 0.88254 0.74275 0.79865 0.0
N185 N 0.90585 0.79468 0.86991 0.0
C186 C 0.88793 0.81664 0.90063 0.0
C187 C 0.89746 0.81251 0.95966 0.0
C188 C 0.90631 0.80158 0.94316 0.0
C189 C 0.89688 0.79888 0.812 0.0
C190 C 0.88858 0.81029 0.82535 0.0
H191 H 0.91279 0.79798 0.99047 0.0
H192 H 0.89506 0.79255 0.75519 0.0
H193 H 0.92641 0.76694 0.00219 0.0
H194 H 0.87122 0.75032 0.08822 0.0
H195 H 0.94965 0.81683 0.62183 0.0
H196 H 0.8973 0.81678 0.01906 0.0
H197 H 0.88201 0.81337 0.77672 0.0
C198 C 0.79863 0.59405 0.38888 0.0
C199 C 0.79989 0.59919 0.31219 0.0
N200 N 0.81234 0.595 0.27703 0.0
N201 N 0.81033 0.58677 0.40215 0.0
C202 C 0.81858 0.5876 0.33278 0.0
H203 H 0.78936 0.59504 0.43196 0.0
Co204 Co 0.81263 0.57738 0.49817 0.0
C205 C 0.82089 0.54706 0.44105 0.0
O206 O 0.8048 0.53375 0.47269 0.0
N207 N 0.81551 0.56919 0.59703 0.0
C208 C 0.82509 0.56036 0.70299 0.0
C209 C 0.82317 0.55859 0.62349 0.0
C210 C 0.81326 0.57742 0.6615 0.0
N211 N 0.81897 0.57238 0.72667 0.0
O212 O 0.83706 0.60077 0.51524 0.0
H213 H 0.8284 0.5511 0.58826 0.0
H214 H 0.80778 0.58727 0.66008 0.0
O215 O 0.82582 0.56481 0.4487 0.0
C216 C 0.83413 0.61423 0.53817 0.0
O217 O 0.81624 0.61058 0.54272 0.0
N218 N 0.78731 0.55524 0.48409 0.0
C219 C 0.74734 0.53053 0.46066 0.0
C220 C 0.76055 0.53533 0.3993 0.0
C221 C 0.78038 0.54736 0.41246 0.0
C222 C 0.77476 0.54995 0.54484 0.0
C223 C 0.75507 0.53722 0.535 0.0
H224 H 0.79003 0.55113 0.36362 0.0
H225 H 0.77953 0.55624 0.6013 0.0
H226 H 0.82864 0.58255 0.32272 0.0
H227 H 0.79169 0.60481 0.28373 0.0
H228 H 0.83157 0.5542 0.73973 0.0
H229 H 0.75577 0.53072 0.34051 0.0
H230 H 0.74602 0.53339 0.58587 0.0
C231 C 0.41552 0.22137 0.32864 0.0
C232 C 0.41366 0.223 0.25024 0.0
N233 N 0.43031 0.23774 0.22386 0.0
N234 N 0.43331 0.23497 0.35131 0.0
C235 C 0.44196 0.24485 0.2862 0.0
H236 H 0.40499 0.21021 0.36558 0.0
Co237 Co 0.44398 0.2362 0.4479 0.0
C238 C 0.47167 0.27883 0.47597 0.0
O239 O 0.47971 0.27559 0.5361 0.0
N240 N 0.45404 0.23653 0.54628 0.0
C241 C 0.46351 0.22665 0.64925 0.0
C242 C 0.46125 0.22534 0.56998 0.0
C243 C 0.45173 0.24422 0.61236 0.0
N244 N 0.45764 0.23867 0.67527 0.0
O245 O 0.42224 0.23649 0.4963 0.0
H246 H 0.46366 0.2159 0.53279 0.0
H247 H 0.44502 0.25304 0.6148 0.0
O248 O 0.45819 0.26469 0.43869 0.0
C249 C 0.41047 0.21989 0.52348 0.0
O250 O 0.41462 0.20611 0.51383 0.0
N251 N 0.46408 0.2338 0.4006 0.0
C252 C 0.49028 0.22282 0.34649 0.0
C253 C 0.49674 0.24098 0.38038 0.0
C254 C 0.48344 0.24623 0.40658 0.0
C255 C 0.45753 0.21634 0.36612 0.0
C256 C 0.47029 0.2107 0.33776 0.0
H257 H 0.48891 0.25986 0.43495 0.0
H258 H 0.4422 0.20638 0.36285 0.0
H259 H 0.45698 0.25594 0.28338 0.0
H260 H 0.40142 0.21349 0.2146 0.0
H261 H 0.46839 0.21888 0.68532 0.0
H262 H 0.51193 0.25083 0.38991 0.0
H263 H 0.4644 0.19674 0.31051 0.0
C264 C 0.79894 0.19503 0.31574 0.0
C265 C 0.79629 0.19242 0.23664 0.0
N266 N 0.78173 0.19537 0.21562 0.0
N267 N 0.78607 0.19953 0.34442 0.0
C268 C 0.77565 0.19933 0.28254 0.0
H269 H 0.81038 0.19501 0.34906 0.0
Co270 Co 0.78573 0.20927 0.44173 0.0
C271 C 0.74401 0.19811 0.46736 0.0
O272 O 0.74829 0.21072 0.52322 0.0
N273 N 0.78577 0.21939 0.54075 0.0
C274 C 0.79078 0.23937 0.63908 0.0
C275 C 0.79354 0.23809 0.56122 0.0
C276 C 0.77885 0.20966 0.60815 0.0
N277 N 0.78162 0.22149 0.66824 0.0
O278 O 0.7836 0.1865 0.4898 0.0
H279 H 0.80098 0.25022 0.52279 0.0
H280 H 0.77156 0.19417 0.61313 0.0
O281 O 0.75745 0.19681 0.4329 0.0
C282 C 0.79994 0.1903 0.51744 0.0
O283 O 0.81461 0.20774 0.5075 0.0
N284 N 0.7901 0.23225 0.39378 0.0
C285 C 0.80463 0.26826 0.32356 0.0
C286 C 0.78513 0.25755 0.34505 0.0
C287 C 0.77804 0.23938 0.37968 0.0
C288 C 0.80905 0.2426 0.37379 0.0
C289 C 0.81658 0.26052 0.3386 0.0
H290 H 0.76302 0.23128 0.3949 0.0
H291 H 0.81845 0.23686 0.38597 0.0
H292 H 0.7646 0.20325 0.28637 0.0
H293 H 0.8054 0.19001 0.19732 0.0
H294 H 0.79551 0.25243 0.67219 0.0
H295 H 0.77542 0.263 0.3339 0.0
H296 H 0.83175 0.26835 0.32385 0.0
C297 C 0.92791 0.45637 0.26451 0.0
C298 C 0.93232 0.45869 0.34251 0.0
N299 N 0.92924 0.47264 0.37011 0.0
N300 N 0.92189 0.46866 0.24314 0.0
C301 C 0.92316 0.47855 0.30835 0.0
H302 H 0.92847 0.44599 0.22625 0.0
Co303 Co 0.91283 0.47067 0.14522 0.0
C304 C 0.88252 0.47887 0.21095 0.0
O305 O 0.86848 0.46152 0.19433 0.0
N306 N 0.90461 0.47349 0.04594 0.0
C307 C 0.89121 0.48001 0.94581 0.0
C308 C 0.89008 0.47647 0.02412 0.0
C309 C 0.91415 0.47497 0.97917 0.0
N310 N 0.90633 0.47902 0.91786 0.0
O311 O 0.93622 0.4951 0.12989 0.0
H312 H 0.87948 0.47665 0.06173 0.0
H313 H 0.92699 0.47375 0.97588 0.0
O314 O 0.89991 0.48385 0.19259 0.0
C315 C 0.94988 0.49201 0.1112 0.0
O316 O 0.94609 0.47411 0.10824 0.0
N317 N 0.8909 0.4452 0.15689 0.0
C318 C 0.86745 0.405 0.17214 0.0
C319 C 0.87129 0.41723 0.23619 0.0
C320 C 0.88293 0.43723 0.2273 0.0
C321 C 0.8865 0.43345 0.09374 0.0
C322 C 0.87444 0.41362 0.09961 0.0
H323 H 0.88637 0.44619 0.27829 0.0
H324 H 0.89329 0.43902 0.03854 0.0
H325 H 0.91892 0.48936 0.31129 0.0
H326 H 0.93713 0.45052 0.37627 0.0
H327 H 0.88182 0.4833 0.91203 0.0
H328 H 0.86636 0.41146 0.29367 0.0
H329 H 0.87151 0.40505 0.04755 0.0
C330 C 0.56225 0.47332 0.31678 0.0
C331 C 0.55989 0.47355 0.39588 0.0
N332 N 0.54541 0.45618 0.41803 0.0
N333 N 0.5494 0.45587 0.28882 0.0
C334 C 0.53898 0.446 0.35133 0.0
H335 H 0.57379 0.48449 0.28309 0.0
Co336 Co 0.55098 0.44619 0.19166 0.0
C337 C 0.52206 0.40411 0.21218 0.0
O338 O 0.51292 0.40293 0.14729 0.0
N339 N 0.55269 0.43657 0.09482 0.0
C340 C 0.55504 0.41832 0.00347 0.0
C341 C 0.55642 0.42218 0.08169 0.0
C342 C 0.54954 0.44152 0.02356 0.0
N343 N 0.55065 0.43048 0.96706 0.0
O344 O 0.52763 0.44577 0.15859 0.0
H345 H 0.55951 0.41465 0.12643 0.0
H346 H 0.54584 0.45255 0.01314 0.0
O347 O 0.53668 0.42006 0.23217 0.0
C348 C 0.53201 0.46259 0.13571 0.0
O349 O 0.55012 0.47625 0.14186 0.0
N350 N 0.57465 0.4484 0.22246 0.0
C351 C 0.61148 0.46099 0.28263 0.0
C352 C 0.59507 0.44667 0.32051 0.0
C353 C 0.57676 0.44047 0.28923 0.0
C354 C 0.59049 0.46159 0.18271 0.0
C355 C 0.6091 0.46794 0.21134 0.0
H356 H 0.56432 0.43047 0.32212 0.0
H357 H 0.58865 0.46816 0.13104 0.0
H358 H 0.52774 0.43115 0.34866 0.0
H359 H 0.56934 0.48506 0.43451 0.0
H360 H 0.55695 0.40731 0.97562 0.0
H361 H 0.59633 0.44107 0.37602 0.0
H362 H 0.6214 0.47921 0.181 0.0
C363 C 0.54933 0.09217 0.304 0.0
C364 C 0.5492 0.0894 0.38292 0.0
N365 N 0.56656 0.09198 0.40416 0.0
N366 N 0.56672 0.09659 0.27549 0.0
C367 C 0.57665 0.09581 0.33737 0.0
H368 H 0.53796 0.09231 0.27057 0.0
Co369 Co 0.5764 0.10655 0.17723 0.0
C370 C 0.61839 0.12085 0.20518 0.0
O371 O 0.61966 0.11135 0.14563 0.0
N372 N 0.58616 0.11672 0.07988 0.0
C373 C 0.60444 0.13653 0.98684 0.0
C374 C 0.60039 0.13479 0.06475 0.0
C375 C 0.58151 0.10785 0.01014 0.0
N376 N 0.59258 0.11956 0.95268 0.0
O377 O 0.57827 0.08399 0.15263 0.0
H378 H 0.60763 0.14591 0.10792 0.0
H379 H 0.57064 0.09294 0.00184 0.0
O380 O 0.60237 0.11997 0.22048 0.0
C381 C 0.56156 0.07002 0.13603 0.0
O382 O 0.5468 0.07287 0.14126 0.0
N383 N 0.57266 0.12742 0.19826 0.0
C384 C 0.56082 0.15421 0.22708 0.0
C385 C 0.57794 0.15653 0.25974 0.0
C386 C 0.58352 0.1428 0.24542 0.0
C387 C 0.55624 0.1252 0.16483 0.0
C388 C 0.54997 0.13832 0.17891 0.0
H389 H 0.59633 0.14446 0.27329 0.0
H390 H 0.54771 0.11283 0.12831 0.0
H391 H 0.59139 0.09892 0.33401 0.0
H392 H 0.53771 0.08716 0.42202 0.0
H393 H 0.6153 0.14929 0.95754 0.0
H394 H 0.58663 0.16855 0.29774 0.0
H395 H 0.53675 0.13606 0.1522 0.0
C396 C 0.46334 0.92589 0.71846 0.0
C397 C 0.46469 0.93048 0.64099 0.0
N398 N 0.47675 0.92552 0.60763 0.0
N399 N 0.47471 0.91832 0.73377 0.0
C400 C 0.48266 0.91823 0.66478 0.0
H401 H 0.45434 0.92758 0.76075 0.0
Co402 Co 0.47706 0.90944 0.83053 0.0
C403 C 0.50593 0.8974 0.7914 0.0
O404 O 0.51797 0.90847 0.84533 0.0
N405 N 0.47929 0.90091 0.92864 0.0
C406 C 0.48332 0.88687 0.03254 0.0
C407 C 0.48095 0.88583 0.9529 0.0
C408 C 0.48013 0.91047 0.99403 0.0
N409 N 0.48297 0.90257 0.05805 0.0
O410 O 0.50136 0.93308 0.84786 0.0
H411 H 0.48071 0.87493 0.91533 0.0
H412 H 0.47836 0.92292 0.99472 0.0
O413 O 0.48973 0.89666 0.7827 0.0
C414 C 0.49798 0.94606 0.87311 0.0
O415 O 0.47996 0.94213 0.87496 0.0
N416 N 0.45265 0.88745 0.8168 0.0
C417 C 0.41397 0.8595 0.79516 0.0
C418 C 0.42806 0.86155 0.74152 0.0
C419 C 0.44742 0.87557 0.7537 0.0
C420 C 0.43912 0.88562 0.86927 0.0
C421 C 0.41978 0.87157 0.86026 0.0
H422 H 0.45801 0.87743 0.71067 0.0
H423 H 0.44322 0.89559 0.91721 0.0
H424 H 0.49251 0.91288 0.65599 0.0
H425 H 0.45695 0.9364 0.61091 0.0
H426 H 0.4855 0.87705 0.06834 0.0
H427 H 0.42411 0.85257 0.69025 0.0
H428 H 0.40933 0.87071 0.90225 0.0
C429 C 0.09663 0.53977 0.7134 0.0
C430 C 0.09221 0.5381 0.63544 0.0
N431 N 0.09653 0.55555 0.60824 0.0
N432 N 0.1038 0.5582 0.73537 0.0
C433 C 0.10325 0.56735 0.67049 0.0
H434 H 0.09541 0.52844 0.75104 0.0
Co435 Co 0.11406 0.56866 0.83288 0.0
C436 C 0.14348 0.60766 0.76628 0.0
O437 O 0.15795 0.60452 0.77528 0.0
N438 N 0.1237 0.5791 0.93226 0.0
C439 C 0.1396 0.5986 0.03089 0.0
C440 C 0.13962 0.59576 0.95233 0.0
C441 C 0.11457 0.57185 0.00056 0.0
N442 N 0.12383 0.58355 0.06091 0.0
O443 O 0.091 0.56989 0.85582 0.0
H444 H 0.1505 0.60566 0.91331 0.0
H445 H 0.10099 0.55861 0.00599 0.0
O446 O 0.1265 0.59508 0.78853 0.0
C447 C 0.07802 0.55352 0.88086 0.0
O448 O 0.08196 0.53947 0.88168 0.0
N449 N 0.13563 0.56505 0.81319 0.0
C450 C 0.16225 0.55241 0.78868 0.0
C451 C 0.15704 0.56059 0.72812 0.0
C452 C 0.14361 0.56664 0.74132 0.0
C453 C 0.14022 0.5566 0.87188 0.0
C454 C 0.15368 0.55056 0.86136 0.0
H455 H 0.13956 0.57251 0.69322 0.0
H456 H 0.13285 0.55363 0.92686 0.0
H457 H 0.1087 0.58263 0.66794 0.0
H458 H 0.08672 0.52509 0.60137 0.0
H459 H 0.15018 0.61092 0.06338 0.0
H460 H 0.16317 0.56219 0.6708 0.0
H461 H 0.15669 0.5437 0.90916 0.0
C462 C 0.48299 0.55723 0.70327 0.0
C463 C 0.48513 0.55912 0.62374 0.0
N464 N 0.46752 0.54929 0.59137 0.0
N465 N 0.46411 0.54624 0.72049 0.0
C466 C 0.45518 0.54124 0.65095 0.0
H467 H 0.49423 0.56484 0.74576 0.0
Co468 Co 0.45298 0.5443 0.81757 0.0
C469 C 0.41206 0.53178 0.77239 0.0
O470 O 0.41267 0.54602 0.81222 0.0
N471 N 0.44201 0.54203 0.91654 0.0
C472 C 0.42199 0.52983 0.01703 0.0
C473 C 0.42429 0.52811 0.93932 0.0
C474 C 0.45064 0.55117 0.98342 0.0
N475 N 0.43858 0.54429 0.04452 0.0
O476 O 0.45342 0.52091 0.83878 0.0
H477 H 0.41394 0.5165 0.90351 0.0
H478 H 0.46566 0.56197 0.98864 0.0
O479 O 0.42677 0.52944 0.77127 0.0
C480 C 0.46947 0.5253 0.87107 0.0
O481 O 0.48207 0.54362 0.88066 0.0
N482 N 0.45484 0.56863 0.79875 0.0
C483 C 0.46594 0.60714 0.76555 0.0
C484 C 0.45236 0.59203 0.71913 0.0
C485 C 0.44726 0.57299 0.73586 0.0
C486 C 0.46849 0.58322 0.84271 0.0
C487 C 0.4739 0.6024 0.82847 0.0
H488 H 0.43788 0.56195 0.69578 0.0
H489 H 0.47624 0.58021 0.8863 0.0
H490 H 0.43972 0.53333 0.64352 0.0
H491 H 0.4983 0.56851 0.5928 0.0
H492 H 0.40952 0.52044 0.05174 0.0
H493 H 0.44634 0.59488 0.66796 0.0
H494 H 0.48463 0.61343 0.86562 0.0
C495 C 0.60918 0.81576 0.66066 0.0
C496 C 0.61169 0.81945 0.73891 0.0
N497 N 0.59629 0.82015 0.76598 0.0
N498 N 0.59225 0.81408 0.63874 0.0
C499 C 0.58473 0.81691 0.70413 0.0
H500 H 0.61863 0.81347 0.62304 0.0
Co501 Co 0.58112 0.80591 0.54219 0.0
C502 C 0.55208 0.819 0.52554 0.0
O503 O 0.54217 0.80524 0.47521 0.0
N504 N 0.57035 0.79737 0.44284 0.0
C505 C 0.55903 0.77935 0.33661 0.0
C506 C 0.56138 0.77915 0.4154 0.0
C507 C 0.57312 0.80834 0.37919 0.0
N508 N 0.56641 0.79771 0.3142 0.0
O509 O 0.60286 0.82821 0.49552 0.0
H510 H 0.55772 0.76644 0.4488 0.0
H511 H 0.58102 0.8239 0.37956 0.0
O512 O 0.5673 0.82041 0.55634 0.0
C513 C 0.61443 0.82349 0.46492 0.0
O514 O 0.60999 0.8054 0.46965 0.0
N515 N 0.56133 0.7832 0.58831 0.0
C516 C 0.53563 0.74593 0.64138 0.0
C517 C 0.53038 0.76025 0.64036 0.0
C518 C 0.54347 0.77884 0.61405 0.0
C519 C 0.56716 0.76995 0.59454 0.0
C520 C 0.55454 0.75124 0.61952 0.0
H521 H 0.53906 0.78948 0.61476 0.0
H522 H 0.58151 0.77371 0.57574 0.0
H523 H 0.57048 0.81527 0.70749 0.0
H524 H 0.62352 0.82073 0.77386 0.0
H525 H 0.55329 0.76707 0.29806 0.0
H526 H 0.51625 0.75717 0.65948 0.0
H527 H 0.55945 0.74089 0.61855 0.0
C528 C 0.20937 0.80089 0.65586 0.0
C529 C 0.20523 0.80079 0.73327 0.0
N530 N 0.20521 0.78564 0.76671 0.0
N531 N 0.21171 0.78574 0.64036 0.0
C532 C 0.20923 0.77676 0.70927 0.0
H533 H 0.21076 0.81147 0.61374 0.0
Co534 Co 0.21754 0.77994 0.5435 0.0
C535 C 0.20224 0.73748 0.54344 0.0
O536 O 0.21562 0.73947 0.49419 0.0
N537 N 0.22355 0.77456 0.44321 0.0
C538 C 0.23894 0.77681 0.33261 0.0
C539 C 0.24096 0.78001 0.41136 0.0
C540 C 0.21119 0.76754 0.3824 0.0
N541 N 0.22021 0.76928 0.31425 0.0
O542 O 0.19506 0.77995 0.50117 0.0
H543 H 0.25458 0.78706 0.44158 0.0
H544 H 0.19588 0.7622 0.3871 0.0
O545 O 0.20179 0.75234 0.56733 0.0
C546 C 0.19947 0.79518 0.46263 0.0
O547 O 0.21779 0.8083 0.45688 0.0
N548 N 0.24042 0.78223 0.58559 0.0
C549 C 0.27703 0.79302 0.64545 0.0
C550 C 0.26161 0.77412 0.65395 0.0
C551 C 0.24335 0.76902 0.62409 0.0
C552 C 0.25503 0.80078 0.57965 0.0
C553 C 0.27345 0.80642 0.608 0.0
H554 H 0.23169 0.75466 0.63416 0.0
H555 H 0.25234 0.81127 0.55161 0.0
H556 H 0.21026 0.76394 0.71723 0.0
H557 H 0.20291 0.81132 0.7631 0.0
H558 H 0.2506 0.78125 0.29142 0.0
H559 H 0.26361 0.76334 0.68348 0.0
H560 H 0.28468 0.82128 0.60198 0.0
C561 C 0.22206 0.40907 0.66687 0.0
C562 C 0.22433 0.40829 0.74585 0.0
N563 N 0.24181 0.42296 0.76606 0.0
N564 N 0.23806 0.4241 0.63735 0.0
C565 C 0.24987 0.43206 0.69887 0.0
H566 H 0.20904 0.40012 0.63436 0.0
Co567 Co 0.24123 0.435 0.53942 0.0
C568 C 0.28371 0.46367 0.53 0.0
O569 O 0.28078 0.47552 0.4874 0.0
N570 N 0.24428 0.44613 0.4395 0.0
C571 C 0.24606 0.46485 0.34053 0.0
C572 C 0.24201 0.46112 0.41795 0.0
C573 C 0.24954 0.44096 0.37302 0.0
N574 N 0.2507 0.45211 0.31254 0.0
O575 O 0.24116 0.41295 0.49383 0.0
H576 H 0.23801 0.4693 0.45543 0.0
H577 H 0.25287 0.4295 0.36867 0.0
O578 O 0.2694 0.4478 0.55284 0.0
C579 C 0.22425 0.40043 0.47163 0.0
O580 O 0.2102 0.40418 0.48218 0.0
N581 N 0.23889 0.4551 0.58543 0.0
C582 C 0.2279 0.48056 0.64632 0.0
C583 C 0.24709 0.48454 0.65195 0.0
C584 C 0.25227 0.47151 0.62186 0.0
C585 C 0.22007 0.4506 0.58293 0.0
C586 C 0.2143 0.46314 0.61215 0.0
H587 H 0.26692 0.47466 0.62918 0.0
H588 H 0.20949 0.43722 0.55646 0.0
H589 H 0.26369 0.44505 0.69502 0.0
H590 H 0.21334 0.39859 0.78573 0.0
H591 H 0.24542 0.47592 0.30705 0.0
H592 H 0.25807 0.49767 0.67882 0.0
H593 H 0.19923 0.45906 0.60863 0.0
H594 H 0.12742 0.2125 0.46922 0.0
H595 H 0.17097 0.26692 0.37236 0.0
H596 H 0.18169 0.27963 0.50384 0.0
H597 H 0.1138 0.23197 0.6202 0.0
H598 H 0.11003 0.21391 0.69104 0.0
H599 H 0.10732 0.20803 0.58941 0.0
H600 H 0.13239 0.19673 0.60108 0.0
H601 H 0.13511 0.20251 0.70304 0.0
H602 H 0.15592 0.21284 0.64056 0.0
H603 H 0.18514 0.2879 0.64434 0.0
H604 H 0.18183 0.29063 0.7856 0.0
H605 H 0.13644 0.23102 0.79349 0.0
C606 C 0.13945 0.22695 0.47576 0.0
C607 C 0.14847 0.23856 0.41012 0.0
C608 C 0.16409 0.2575 0.42122 0.0
C609 C 0.17024 0.26493 0.49593 0.0
C610 C 0.16079 0.25323 0.55923 0.0
C611 C 0.14585 0.23458 0.55009 0.0
C612 C 0.13733 0.22549 0.62789 0.0
C613 C 0.11585 0.21951 0.63236 0.0
C614 C 0.14038 0.20838 0.64409 0.0
C615 C 0.14942 0.24216 0.68187 0.0
C616 C 0.16293 0.25798 0.64098 0.0
C617 C 0.17484 0.27552 0.67718 0.0
C618 C 0.1728 0.27698 0.75719 0.0
C619 C 0.15901 0.26101 0.80023 0.0
C620 C 0.14738 0.24331 0.76212 0.0
H621 H 0.80167 0.93021 0.52596 0.0
H622 H 0.75406 0.87895 0.42475 0.0
H623 H 0.74124 0.86701 0.55535 0.0
H624 H 0.8082 0.90688 0.69273 0.0
H625 H 0.81382 0.9266 0.75763 0.0
H626 H 0.8193 0.93109 0.65589 0.0
H627 H 0.79936 0.9484 0.64901 0.0
H628 H 0.79366 0.94377 0.7506 0.0
H629 H 0.77455 0.93593 0.68005 0.0
H630 H 0.73335 0.86067 0.69612 0.0
H631 H 0.73201 0.85939 0.83917 0.0
H632 H 0.7846 0.91468 0.85042 0.0
C633 C 0.78856 0.91647 0.53145 0.0
C634 C 0.77898 0.90545 0.46505 0.0
C635 C 0.7619 0.88748 0.47456 0.0
C636 C 0.75437 0.88067 0.54857 0.0
C637 C 0.76407 0.89196 0.61263 0.0
C638 C 0.78087 0.90941 0.60502 0.0
C639 C 0.78864 0.91851 0.68364 0.0
C640 C 0.80868 0.9209 0.69832 0.0
C641 C 0.78907 0.9378 0.69124 0.0
C642 C 0.77358 0.90342 0.73654 0.0
C643 C 0.7595 0.88829 0.69422 0.0
C644 C 0.74429 0.87242 0.72991 0.0
C645 C 0.74367 0.87181 0.8111 0.0
C646 C 0.75817 0.88692 0.85589 0.0
C647 C 0.77314 0.90307 0.81783 0.0
H648 H 0.14136 0.90097 0.83528 0.0
H649 H 0.11445 0.83997 0.88032 0.0
H650 H 0.10477 0.83316 0.7415 0.0
H651 H 0.10471 0.89757 0.70678 0.0
H652 H 0.12136 0.91695 0.64546 0.0
H653 H 0.12688 0.91667 0.74655 0.0
H654 H 0.15931 0.9189 0.70948 0.0
H655 H 0.15391 0.91924 0.60826 0.0
H656 H 0.15931 0.90137 0.64416 0.0
H657 H 0.0994 0.83369 0.59522 0.0
H658 H 0.09588 0.84128 0.45833 0.0
H659 H 0.12414 0.90179 0.51582 0.0
C660 C 0.13363 0.88621 0.81537 0.0
C661 C 0.12889 0.87094 0.86709 0.0
C662 C 0.11828 0.85176 0.84051 0.0
C663 C 0.1128 0.84783 0.76217 0.0
C664 C 0.11778 0.86329 0.71226 0.0
C665 C 0.12773 0.88209 0.7383 0.0
C666 C 0.1305 0.89616 0.67475 0.0
C667 C 0.12024 0.9075 0.69459 0.0
C668 C 0.15204 0.90971 0.65819 0.0
C669 C 0.12069 0.88241 0.60839 0.0
C670 C 0.11364 0.86352 0.63051 0.0
C671 C 0.10467 0.84841 0.57758 0.0
C672 C 0.10276 0.8528 0.5003 0.0
C673 C 0.10945 0.87203 0.47769 0.0
C674 C 0.11853 0.88694 0.53244 0.0
H675 H 0.23393 0.11293 0.51012 0.0
H676 H 0.24881 0.17115 0.56855 0.0
H677 H 0.25842 0.18106 0.43178 0.0
H678 H 0.27377 0.126 0.38387 0.0
H679 H 0.26046 0.10636 0.31753 0.0
H680 H 0.25366 0.10384 0.4182 0.0
H681 H 0.21892 0.09504 0.37905 0.0
H682 H 0.22559 0.09745 0.27821 0.0
H683 H 0.2153 0.11112 0.31754 0.0
H684 H 0.26537 0.18394 0.28631 0.0
H685 H 0.27191 0.18023 0.14819 0.0
H686 H 0.2549 0.12076 0.19083 0.0
C687 C 0.23894 0.12769 0.49365 0.0
C688 C 0.24037 0.14127 0.54891 0.0
C689 C 0.24754 0.1606 0.52637 0.0
C690 C 0.25296 0.16628 0.44908 0.0
C691 C 0.2514 0.15248 0.39582 0.0
C692 C 0.24476 0.13363 0.41752 0.0
C693 C 0.24543 0.12177 0.3508 0.0
C694 C 0.25915 0.11405 0.36869 0.0
C695 C 0.2251 0.10538 0.33019 0.0
C696 C 0.25342 0.13685 0.28786 0.0
C697 C 0.25653 0.15442 0.31435 0.0
C698 C 0.26319 0.1703 0.26527 0.0
C699 C 0.26684 0.16811 0.18729 0.0
C700 C 0.26421 0.15035 0.16017 0.0
C701 C 0.25741 0.13458 0.21109 0.0
H702 H 0.87649 0.08421 0.46177 0.0
H703 H 0.88004 0.13558 0.56067 0.0
H704 H 0.88014 0.1477 0.42937 0.0
H705 H 0.90753 0.10719 0.30054 0.0
H706 H 0.89382 0.08775 0.23384 0.0
H707 H 0.89359 0.0829 0.3359 0.0
H708 H 0.8563 0.06624 0.33615 0.0
H709 H 0.85644 0.07117 0.2341 0.0
H710 H 0.84475 0.07919 0.30159 0.0
H711 H 0.88063 0.15466 0.28812 0.0
H712 H 0.88254 0.15645 0.14511 0.0
H713 H 0.87817 0.10045 0.13706 0.0
C714 C 0.87716 0.09794 0.45569 0.0
C715 C 0.87842 0.109 0.52154 0.0
C716 C 0.87946 0.12701 0.51125 0.0
C717 C 0.87932 0.13394 0.43685 0.0
C718 C 0.87806 0.12267 0.37328 0.0
C719 C 0.87704 0.10509 0.38178 0.0
C720 C 0.87633 0.0961 0.30365 0.0
C721 C 0.89387 0.09333 0.29287 0.0
C722 C 0.85732 0.07705 0.29329 0.0
C723 C 0.87728 0.11148 0.24999 0.0
C724 C 0.87818 0.12663 0.29145 0.0
C725 C 0.87985 0.14286 0.25496 0.0
C726 C 0.88098 0.14377 0.17388 0.0
C727 C 0.88043 0.12857 0.13021 0.0
C728 C 0.87825 0.1121 0.1689 0.0
H729 H 0.88038 0.74557 0.20745 0.0
H730 H 0.93888 0.77634 0.11675 0.0
H731 H 0.95146 0.78412 0.24849 0.0
H732 H 0.88746 0.77893 0.3506 0.0
H733 H 0.87258 0.76177 0.42316 0.0
H734 H 0.86774 0.75584 0.32192 0.0
H735 H 0.87048 0.72534 0.34296 0.0
H736 H 0.87516 0.73118 0.44452 0.0
H737 H 0.8919 0.72754 0.38737 0.0
H738 H 0.95806 0.79239 0.38719 0.0
H739 H 0.95798 0.79928 0.52657 0.0
H740 H 0.89573 0.7637 0.53118 0.0
C741 C 0.89584 0.75369 0.21485 0.0
C742 C 0.90844 0.76019 0.15009 0.0
C743 C 0.92865 0.7708 0.16379 0.0
C744 C 0.93608 0.77544 0.23912 0.0
C745 C 0.92325 0.76932 0.30091 0.0
C746 C 0.90357 0.75852 0.28998 0.0
C747 C 0.89296 0.755 0.36657 0.0
C748 C 0.87939 0.76339 0.36545 0.0
C749 C 0.88198 0.73348 0.38649 0.0
C750 C 0.90978 0.76607 0.42153 0.0
C751 C 0.92711 0.77406 0.38224 0.0
C752 C 0.94461 0.78598 0.41891 0.0
C753 C 0.94442 0.78994 0.49784 0.0
C754 C 0.92687 0.782 0.53942 0.0
C755 C 0.90936 0.76968 0.50091 0.0
H756 H 0.81594 0.5691 0.18826 0.0
H757 H 0.81688 0.62348 0.18108 0.0
H758 H 0.82066 0.62447 0.03847 0.0
H759 H 0.85037 0.5789 0.02902 0.0
H760 H 0.83711 0.55466 0.99241 0.0
H761 H 0.8365 0.55924 0.09442 0.0
H762 H 0.7992 0.54183 0.08927 0.0
H763 H 0.79969 0.5373 0.98727 0.0
H764 H 0.78756 0.54974 0.02093 0.0
H765 H 0.82257 0.61875 0.89726 0.0
H766 H 0.82199 0.60659 0.76575 0.0
H767 H 0.81835 0.55504 0.86346 0.0
C768 C 0.81744 0.58142 0.15664 0.0
C769 C 0.81634 0.59634 0.19532 0.0
C770 C 0.81773 0.61196 0.15214 0.0
C771 C 0.81994 0.61266 0.07138 0.0
C772 C 0.82061 0.59755 0.03473 0.0
C773 C 0.8194 0.58221 0.07581 0.0
C774 C 0.81912 0.56719 0.02172 0.0
C775 C 0.83684 0.56487 0.0352 0.0
C776 C 0.80027 0.54788 0.03032 0.0
C777 C 0.82014 0.57639 0.94383 0.0
C778 C 0.82116 0.59397 0.9528 0.0
C779 C 0.82177 0.605 0.88945 0.0
C780 C 0.82124 0.59785 0.81483 0.0
C781 C 0.81992 0.57973 0.80392 0.0
C782 C 0.81952 0.56899 0.86965 0.0
H783 H 0.42341 0.2122 0.11005 0.0
H784 H 0.45023 0.27306 0.15934 0.0
H785 H 0.46004 0.28037 0.0211 0.0
H786 H 0.45998 0.21594 0.98138 0.0
H787 H 0.44338 0.19689 0.91846 0.0
H788 H 0.43771 0.19673 0.01959 0.0
H789 H 0.4054 0.19484 0.98249 0.0
H790 H 0.41094 0.19494 0.88123 0.0
H791 H 0.4056 0.21271 0.91865 0.0
H792 H 0.46555 0.28045 0.87542 0.0
H793 H 0.46917 0.27353 0.73783 0.0
H794 H 0.44101 0.21276 0.78961 0.0
C795 C 0.43113 0.22704 0.09127 0.0
C796 C 0.43584 0.24213 0.14419 0.0
C797 C 0.44645 0.26141 0.11881 0.0
C798 C 0.45199 0.26562 0.04074 0.0
C799 C 0.44705 0.25035 0.98976 0.0
C800 C 0.43706 0.23145 0.01439 0.0
C801 C 0.43432 0.21764 0.9496 0.0
C802 C 0.44446 0.20613 0.9684 0.0
C803 C 0.41279 0.20425 0.93197 0.0
C804 C 0.44427 0.23167 0.88428 0.0
C805 C 0.45128 0.25046 0.90804 0.0
C806 C 0.46031 0.26582 0.85649 0.0
C807 C 0.46228 0.26181 0.77884 0.0
C808 C 0.45562 0.2427 0.75445 0.0
C809 C 0.44654 0.2275 0.80779 0.0
H810 H 0.78848 0.19749 0.75522 0.0
H811 H 0.76396 0.23482 0.76069 0.0
H812 H 0.75769 0.22876 0.90125 0.0
H813 H 0.75715 0.16277 0.90678 0.0
H814 H 0.77676 0.16069 0.9476 0.0
H815 H 0.7766 0.1655 0.84555 0.0
H816 H 0.81025 0.19599 0.85852 0.0
H817 H 0.81055 0.19112 0.96021 0.0
H818 H 0.81385 0.21401 0.92928 0.0
H819 H 0.757 0.22138 0.04057 0.0
H820 H 0.76314 0.21465 0.17234 0.0
H821 H 0.78881 0.18217 0.08018 0.0
C822 C 0.78129 0.20387 0.78606 0.0
C823 C 0.7764 0.21639 0.74779 0.0
C824 C 0.76764 0.22512 0.78962 0.0
C825 C 0.76396 0.22167 0.86906 0.0
C826 C 0.7693 0.20957 0.90573 0.0
C827 C 0.77783 0.20083 0.86588 0.0
C828 C 0.78404 0.19019 0.92092 0.0
C829 C 0.77297 0.1685 0.90421 0.0
C830 C 0.80597 0.19832 0.91701 0.0
C831 C 0.77809 0.19474 0.998 0.0
C832 C 0.76934 0.20566 0.98748 0.0
C833 C 0.76355 0.21258 0.04967 0.0
C834 C 0.76707 0.20853 0.12485 0.0
C835 C 0.77642 0.1977 0.1378 0.0
C836 C 0.78167 0.19048 0.07293 0.0
H837 H 0.91445 0.45669 0.82589 0.0
H838 H 0.91311 0.50985 0.83336 0.0
H839 H 0.92269 0.5158 0.6952 0.0
H840 H 0.95465 0.47214 0.68493 0.0
H841 H 0.94331 0.44922 0.63619 0.0
H842 H 0.93915 0.45052 0.7382 0.0
H843 H 0.90231 0.43283 0.71344 0.0
H844 H 0.90634 0.43146 0.6116 0.0
H845 H 0.89261 0.44241 0.64332 0.0
H846 H 0.93024 0.51493 0.55567 0.0
H847 H 0.93296 0.50639 0.42116 0.0
H848 H 0.9271 0.45244 0.50107 0.0
C849 C 0.91668 0.46977 0.79845 0.0
C850 C 0.91335 0.48299 0.83969 0.0
C851 C 0.91574 0.49969 0.80216 0.0
C852 C 0.92126 0.5032 0.72412 0.0
C853 C 0.92413 0.48973 0.68435 0.0
C854 C 0.92182 0.47328 0.71995 0.0
C855 C 0.9238 0.46019 0.66187 0.0
C856 C 0.94127 0.45789 0.68148 0.0
C857 C 0.90516 0.44057 0.6573 0.0
C858 C 0.92714 0.47166 0.58792 0.0
C859 C 0.92765 0.48881 0.60259 0.0
C860 C 0.92989 0.50155 0.54341 0.0
C861 C 0.93126 0.49647 0.46693 0.0
C862 C 0.93005 0.47862 0.44977 0.0
C863 C 0.92834 0.46628 0.51171 0.0
H864 H 0.55833 0.46149 0.87768 0.0
H865 H 0.53354 0.3996 0.87223 0.0
H866 H 0.52681 0.3994 0.73245 0.0
H867 H 0.52535 0.46409 0.73514 0.0
H868 H 0.54403 0.48585 0.69158 0.0
H869 H 0.54549 0.48108 0.79279 0.0
H870 H 0.57922 0.48493 0.77013 0.0
H871 H 0.57788 0.48975 0.66905 0.0
H872 H 0.58214 0.47055 0.6969 0.0
H873 H 0.52393 0.40583 0.59367 0.0
H874 H 0.52721 0.41843 0.46236 0.0
H875 H 0.55429 0.4766 0.55422 0.0
C876 C 0.55124 0.4479 0.84712 0.0
C877 C 0.54645 0.43053 0.88576 0.0
C878 C 0.5375 0.41306 0.84362 0.0
C879 C 0.53346 0.41279 0.7644 0.0
C880 C 0.53849 0.43013 0.7279 0.0
C881 C 0.54727 0.4474 0.76756 0.0
C882 C 0.55232 0.46409 0.71298 0.0
C883 C 0.54113 0.47438 0.73441 0.0
C884 C 0.57419 0.47815 0.71223 0.0
C885 C 0.54539 0.4535 0.63626 0.0
C886 C 0.53718 0.43392 0.64672 0.0
C887 C 0.53024 0.42114 0.58474 0.0
C888 C 0.53215 0.42855 0.50973 0.0
C889 C 0.54117 0.44866 0.49647 0.0
C890 C 0.54747 0.4612 0.56144 0.0
H891 H 0.54614 0.07933 0.53946 0.0
H892 H 0.60445 0.11098 0.44801 0.0
H893 H 0.61722 0.11855 0.57994 0.0
H894 H 0.55277 0.11192 0.68552 0.0
H895 H 0.53811 0.09431 0.75716 0.0
H896 H 0.53329 0.0888 0.65561 0.0
H897 H 0.53664 0.05857 0.67347 0.0
H898 H 0.54137 0.06393 0.77538 0.0
H899 H 0.55827 0.06096 0.71639 0.0
H900 H 0.62382 0.12636 0.71942 0.0
H901 H 0.62365 0.13257 0.8595 0.0
H902 H 0.56148 0.09626 0.86366 0.0
C903 C 0.5616 0.08762 0.54694 0.0
C904 C 0.57415 0.09443 0.48219 0.0
C905 C 0.59435 0.10522 0.49545 0.0
C906 C 0.60185 0.10972 0.57072 0.0
C907 C 0.58906 0.10326 0.63272 0.0
C908 C 0.56938 0.09227 0.62196 0.0
C909 C 0.5588 0.08826 0.69873 0.0
C910 C 0.54493 0.09631 0.69924 0.0
C911 C 0.54814 0.06664 0.71706 0.0
C912 C 0.5756 0.09929 0.7537 0.0
C913 C 0.59292 0.10769 0.71428 0.0
C914 C 0.61038 0.11964 0.7512 0.0
C915 C 0.61014 0.12321 0.83053 0.0
C916 C 0.59258 0.11487 0.87218 0.0
C917 C 0.57512 0.10254 0.83335 0.0
H918 H 0.47548 0.8971 0.51931 0.0
H919 H 0.48709 0.95582 0.51356 0.0
H920 H 0.49281 0.95707 0.37192 0.0
H921 H 0.50955 0.90122 0.36654 0.0
H922 H 0.4932 0.87788 0.32661 0.0
H923 H 0.49238 0.88238 0.42858 0.0
H924 H 0.4561 0.87149 0.41619 0.0
H925 H 0.45681 0.86699 0.31431 0.0
H926 H 0.44846 0.88297 0.34598 0.0
H927 H 0.49613 0.95161 0.23239 0.0
H928 H 0.49435 0.93938 0.10061 0.0
H929 H 0.47775 0.88293 0.19399 0.0
C930 C 0.47965 0.9103 0.48806 0.0
C931 C 0.48117 0.9265 0.52664 0.0
C932 C 0.48602 0.94338 0.48438 0.0
C933 C 0.48936 0.94421 0.40435 0.0
C934 C 0.48752 0.92792 0.36762 0.0
C935 C 0.48261 0.91121 0.4078 0.0
C936 C 0.4798 0.89521 0.35314 0.0
C937 C 0.49462 0.8888 0.36972 0.0
C938 C 0.45906 0.87817 0.35769 0.0
C939 C 0.48364 0.90548 0.27584 0.0
C940 C 0.48839 0.92441 0.28594 0.0
C941 C 0.49232 0.93679 0.22358 0.0
C942 C 0.49104 0.92957 0.14865 0.0
C943 C 0.4855 0.90999 0.13616 0.0
C944 C 0.48207 0.89793 0.20112 0.0
H945 H 0.09539 0.53575 0.47682 0.0
H946 H 0.09828 0.58848 0.55642 0.0
H947 H 0.10343 0.60033 0.42247 0.0
H948 H 0.13101 0.55552 0.33868 0.0
H949 H 0.11918 0.53684 0.26706 0.0
H950 H 0.11376 0.53139 0.36825 0.0
H951 H 0.07745 0.51811 0.34055 0.0
H952 H 0.08274 0.52332 0.23889 0.0
H953 H 0.06992 0.53297 0.29057 0.0
H954 H 0.11271 0.60842 0.284 0.0
H955 H 0.12242 0.6108 0.14644 0.0
H956 H 0.11097 0.55214 0.15288 0.0
C957 C 0.09657 0.54956 0.46636 0.0
C958 C 0.09673 0.56124 0.52837 0.0
C959 C 0.09857 0.57935 0.511 0.0
C960 C 0.10133 0.58619 0.43468 0.0
C961 C 0.10177 0.57461 0.37565 0.0
C962 C 0.09903 0.55651 0.39017 0.0
C963 C 0.10088 0.54728 0.31625 0.0
C964 C 0.11718 0.54248 0.32301 0.0
C965 C 0.0816 0.52936 0.29534 0.0
C966 C 0.10589 0.56337 0.25872 0.0
C967 C 0.10626 0.57897 0.29433 0.0
C968 C 0.11207 0.59616 0.25504 0.0
C969 C 0.11767 0.59745 0.17733 0.0
C970 C 0.11724 0.58161 0.13957 0.0
C971 C 0.11103 0.56428 0.18045 0.0
H972 H 0.48506 0.5491 0.45642 0.0
H973 H 0.43804 0.55477 0.55171 0.0
H974 H 0.42784 0.55757 0.4202 0.0
H975 H 0.49547 0.58221 0.29029 0.0
H976 H 0.50024 0.56759 0.22477 0.0
H977 H 0.50518 0.56776 0.32693 0.0
H978 H 0.48347 0.53072 0.33146 0.0
H979 H 0.47857 0.53046 0.22943 0.0
H980 H 0.45892 0.51984 0.2976 0.0
H981 H 0.42074 0.55679 0.28137 0.0
H982 H 0.41688 0.55191 0.13947 0.0
H983 H 0.46858 0.54756 0.12965 0.0
C984 C 0.47281 0.5512 0.44912 0.0
C985 C 0.46222 0.55153 0.51399 0.0
C986 C 0.44613 0.55412 0.50273 0.0
C987 C 0.44035 0.55594 0.4283 0.0
C988 C 0.45085 0.55525 0.36549 0.0
C989 C 0.46673 0.55295 0.37467 0.0
C990 C 0.47455 0.55137 0.29652 0.0
C991 C 0.49508 0.56824 0.2839 0.0
C992 C 0.47382 0.53194 0.28829 0.0
C993 C 0.46027 0.55269 0.2425 0.0
C994 C 0.44685 0.55511 0.28386 0.0
C995 C 0.43133 0.55524 0.24806 0.0
C996 C 0.42922 0.55245 0.16784 0.0
C997 C 0.44259 0.54971 0.12442 0.0
C998 C 0.45852 0.55019 0.16183 0.0
H999 H 0.58351 0.7877 0.20469 0.0
H1000 H 0.55813 0.82333 0.24873 0.0
H1001 H 0.56369 0.83408 0.11099 0.0
H1002 H 0.62111 0.82143 0.07592 0.0
H1003 H 0.62015 0.8027 0.01524 0.0
H1004 H 0.61415 0.79819 0.11661 0.0
H1005 H 0.58093 0.76895 0.08067 0.0
H1006 H 0.58682 0.77336 0.97929 0.0
H1007 H 0.56518 0.77225 0.01553 0.0
H1008 H 0.56989 0.83853 0.96474 0.0
H1009 H 0.57898 0.83877 0.82676 0.0
H1010 H 0.60225 0.80191 0.88459 0.0
C1011 C 0.57914 0.79776 0.18496 0.0
C1012 C 0.57019 0.80457 0.23596 0.0
C1013 C 0.56495 0.81799 0.20955 0.0
C1014 C 0.56803 0.8241 0.13181 0.0
C1015 C 0.57675 0.8169 0.08242 0.0
C1016 C 0.5825 0.80426 0.10852 0.0
C1017 C 0.59184 0.79883 0.04494 0.0
C1018 C 0.61307 0.80571 0.06434 0.0
C1019 C 0.58051 0.77706 0.02919 0.0
C1020 C 0.5901 0.81005 0.9782 0.0
C1021 C 0.58126 0.82031 0.00047 0.0
C1022 C 0.57711 0.8308 0.94705 0.0
C1023 C 0.58221 0.83081 0.86906 0.0
C1024 C 0.59155 0.82063 0.8459 0.0
C1025 C 0.59558 0.81022 0.90136 0.0
H1026 H 0.23288 0.7623 0.17833 0.0
H1027 H 0.19072 0.77529 0.27575 0.0
H1028 H 0.18022 0.77779 0.1444 0.0
H1029 H 0.24741 0.79533 0.02692 0.0
H1030 H 0.25045 0.78054 0.95613 0.0
H1031 H 0.25308 0.77727 0.05774 0.0
H1032 H 0.22704 0.74129 0.04664 0.0
H1033 H 0.22439 0.74445 0.94471 0.0
H1034 H 0.20365 0.73474 0.00753 0.0
H1035 H 0.17693 0.7828 0.00391 0.0
H1036 H 0.18023 0.78865 0.86252 0.0
H1037 H 0.22408 0.77211 0.85417 0.0
C1038 C 0.22118 0.76528 0.17191 0.0
C1039 C 0.21249 0.76833 0.23764 0.0
C1040 C 0.19732 0.77239 0.22676 0.0
C1041 C 0.19131 0.77397 0.15215 0.0
C1042 C 0.20043 0.77126 0.08874 0.0
C1043 C 0.21492 0.7668 0.09767 0.0
C1044 C 0.22315 0.76578 0.01977 0.0
C1045 C 0.2448 0.78062 0.01489 0.0
C1046 C 0.21932 0.74535 0.00373 0.0
C1047 C 0.21144 0.77095 0.96596 0.0
C1048 C 0.19835 0.77394 0.00702 0.0
C1049 C 0.18688 0.78018 0.97095 0.0
C1050 C 0.18892 0.78357 0.89086 0.0
C1051 C 0.20227 0.78067 0.84765 0.0
C1052 C 0.21346 0.77401 0.88566 0.0
H1053 H 0.23062 0.40239 0.90106 0.0
H1054 H 0.26823 0.45957 0.80863 0.0
H1055 H 0.27771 0.47204 0.94034 0.0
H1056 H 0.21267 0.41715 0.05303 0.0
H1057 H 0.2115 0.39987 0.12275 0.0
H1058 H 0.20975 0.39449 0.0208 0.0
H1059 H 0.23848 0.38832 0.03231 0.0
H1060 H 0.24029 0.39369 0.13456 0.0
H1061 H 0.26098 0.40668 0.07273 0.0
H1062 H 0.27974 0.4796 0.0798 0.0
H1063 H 0.27463 0.48129 0.22034 0.0
H1064 H 0.2363 0.41969 0.22608 0.0
C1065 C 0.24108 0.41746 0.90836 0.0
C1066 C 0.24875 0.42984 0.84355 0.0
C1067 C 0.26237 0.44954 0.85624 0.0
C1068 C 0.26785 0.45686 0.93133 0.0
C1069 C 0.25972 0.44438 0.99361 0.0
C1070 C 0.24673 0.42507 0.98323 0.0
C1071 C 0.23897 0.41514 0.0605 0.0
C1072 C 0.21692 0.40615 0.06447 0.0
C1073 C 0.24505 0.40007 0.07592 0.0
C1074 C 0.24909 0.43208 0.1154 0.0
C1075 C 0.26113 0.44876 0.07543 0.0
C1076 C 0.2707 0.4666 0.11207 0.0
C1077 C 0.26768 0.46746 0.19154 0.0
C1078 C 0.25532 0.45061 0.23345 0.0
C1079 C 0.24621 0.43266 0.19527 0.0
H1080 H 0.18922 0.3684 0.45724 0.0
H1081 H 0.24923 0.39147 0.3952 0.0
H1082 H 0.24032 0.36179 0.31949 0.0
H1083 H 0.17704 0.31812 0.47525 0.0
H1084 H 0.15322 0.30947 0.43625 0.0
H1085 H 0.16496 0.33173 0.48962 0.0
H1086 H 0.16019 0.34931 0.37268 0.0
H1087 H 0.14859 0.32717 0.31893 0.0
H1088 H 0.1693 0.34791 0.27875 0.0
H1089 H 0.22342 0.32939 0.24239 0.0
H1090 H 0.20093 0.29881 0.17516 0.0
H1091 H 0.15278 0.29852 0.29122 0.0
C1092 C 0.2006 0.36719 0.42855 0.0
C1093 C 0.21993 0.38226 0.43216 0.0
C1094 C 0.23433 0.38003 0.39377 0.0
C1095 C 0.22937 0.36323 0.3505 0.0
C1096 C 0.21 0.34876 0.34714 0.0
C1097 C 0.19594 0.35063 0.38604 0.0
C1098 C 0.17609 0.33361 0.37195 0.0
C1099 C 0.16732 0.32259 0.44778 0.0
C1100 C 0.16277 0.33988 0.33326 0.0
C1101 C 0.18095 0.32199 0.31714 0.0
C1102 C 0.20055 0.33069 0.30373 0.0
C1103 C 0.20808 0.32248 0.25313 0.0
C1104 C 0.19522 0.30511 0.21516 0.0
C1105 C 0.17507 0.2963 0.22746 0.0
C1106 C 0.16807 0.30487 0.27992 0.0
H1107 H 0.71082 0.85132 0.23895 0.0
H1108 H 0.72815 0.91162 0.25853 0.0
H1109 H 0.69654 0.9025 0.31958 0.0
H1110 H 0.66001 0.8334 0.19683 0.0
H1111 H 0.65262 0.81177 0.25201 0.0
H1112 H 0.67577 0.82348 0.20488 0.0
H1113 H 0.69237 0.82535 0.33658 0.0
H1114 H 0.66932 0.81381 0.38415 0.0
H1115 H 0.68817 0.83683 0.41811 0.0
H1116 H 0.66273 0.88553 0.38871 0.0
H1117 H 0.63159 0.86328 0.45312 0.0
H1118 H 0.6383 0.81502 0.3844 0.0
C1119 C 0.70799 0.86271 0.25512 0.0
C1120 C 0.72199 0.88221 0.24398 0.0
C1121 C 0.71758 0.89657 0.26598 0.0
C1122 C 0.69968 0.89149 0.30091 0.0
C1123 C 0.68633 0.872 0.31255 0.0
C1124 C 0.69037 0.85791 0.28931 0.0
C1125 C 0.6743 0.83804 0.30998 0.0
C1126 C 0.66514 0.82597 0.23655 0.0
C1127 C 0.68147 0.82792 0.3655 0.0
C1128 C 0.6606 0.84298 0.35011 0.0
C1129 C 0.66753 0.86257 0.35104 0.0
C1130 C 0.65721 0.87018 0.38756 0.0
C1131 C 0.63953 0.85746 0.42406 0.0
C1132 C 0.63246 0.83737 0.42411 0.0
C1133 C 0.64319 0.83025 0.38582 0.0
H1134 H 0.20601 0.82014 0.34529 0.0
H1135 H 0.16015 0.77775 0.48933 0.0
H1136 H 0.13722 0.78627 0.42856 0.0
H1137 H 0.19395 0.85552 0.35902 0.0
H1138 H 0.20033 0.86384 0.26058 0.0
H1139 H 0.21194 0.85247 0.30845 0.0
H1140 H 0.20137 0.82745 0.19719 0.0
H1141 H 0.18967 0.83877 0.14877 0.0
H1142 H 0.17624 0.8135 0.17144 0.0
H1143 H 0.12027 0.80266 0.35939 0.0
H1144 H 0.11185 0.825 0.29316 0.0
H1145 H 0.16941 0.85588 0.19673 0.0
C1146 C 0.19108 0.81241 0.36354 0.0
C1147 C 0.18488 0.79834 0.42236 0.0
C1148 C 0.1652 0.78853 0.44411 0.0
C1149 C 0.15209 0.79329 0.40982 0.0
C1150 C 0.15887 0.80764 0.35305 0.0
C1151 C 0.17793 0.81686 0.32978 0.0
C1152 C 0.18221 0.83256 0.27159 0.0
C1153 C 0.19803 0.85225 0.30176 0.0
C1154 C 0.18769 0.82778 0.19256 0.0
C1155 C 0.16282 0.83143 0.26793 0.0
C1156 C 0.14933 0.8168 0.31399 0.0
C1157 C 0.13069 0.81395 0.32239 0.0
C1158 C 0.12597 0.82663 0.28433 0.0
C1159 C 0.13995 0.84211 0.23961 0.0
C1160 C 0.15838 0.84412 0.2302 0.0
H1161 H 0.38618 0.18664 0.59729 0.0
H1162 H 0.39393 0.24289 0.54501 0.0
H1163 H 0.36304 0.23378 0.61226 0.0
H1164 H 0.33611 0.15999 0.56545 0.0
H1165 H 0.33187 0.14325 0.64286 0.0
H1166 H 0.35476 0.15488 0.594 0.0
H1167 H 0.37223 0.16773 0.72577 0.0
H1168 H 0.34938 0.15614 0.77516 0.0
H1169 H 0.36551 0.18158 0.78724 0.0
H1170 H 0.32964 0.21688 0.68386 0.0
H1171 H 0.29861 0.19465 0.74897 0.0
H1172 H 0.31459 0.15042 0.75059 0.0
C1173 C 0.38154 0.1972 0.59993 0.0
C1174 C 0.39251 0.21549 0.56553 0.0
C1175 C 0.38579 0.22878 0.57095 0.0
C1176 C 0.36826 0.2237 0.60905 0.0
C1177 C 0.35772 0.20536 0.64171 0.0
C1178 C 0.3643 0.19242 0.63744 0.0
C1179 C 0.35049 0.17348 0.67509 0.0
C1180 C 0.34286 0.15694 0.61581 0.0
C1181 C 0.35997 0.16951 0.74496 0.0
C1182 C 0.33484 0.17751 0.70063 0.0
C1183 C 0.33912 0.19595 0.68163 0.0
C1184 C 0.32629 0.20247 0.69909 0.0
C1185 C 0.30871 0.18978 0.73618 0.0
C1186 C 0.30411 0.17077 0.75489 0.0
C1187 C 0.31753 0.1648 0.73711 0.0
H1188 H 0.86374 0.16288 0.77714 0.0
H1189 H 0.82552 0.10283 0.72251 0.0
H1190 H 0.80296 0.1114 0.65836 0.0
H1191 H 0.82582 0.17579 0.81 0.0
H1192 H 0.84042 0.19918 0.76724 0.0
H1193 H 0.85171 0.1877 0.8175 0.0
H1194 H 0.87202 0.19117 0.69526 0.0
H1195 H 0.86085 0.20259 0.64441 0.0
H1196 H 0.85996 0.18145 0.60417 0.0
H1197 H 0.7865 0.12807 0.58613 0.0
H1198 H 0.77847 0.15041 0.51709 0.0
H1199 H 0.82838 0.19879 0.62152 0.0
C1200 C 0.8504 0.15142 0.75328 0.0
C1201 C 0.84633 0.13218 0.75501 0.0
C1202 C 0.82879 0.11764 0.72273 0.0
C1203 C 0.81595 0.12242 0.68595 0.0
C1204 C 0.82078 0.14174 0.68313 0.0
C1205 C 0.83755 0.15591 0.71714 0.0
C1206 C 0.84042 0.17572 0.7025 0.0
C1207 C 0.83953 0.18515 0.77885 0.0
C1208 C 0.85943 0.18846 0.65898 0.0
C1209 C 0.82312 0.17071 0.65206 0.0
C1210 C 0.81167 0.15108 0.64214 0.0
C1211 C 0.79532 0.14343 0.59447 0.0
C1212 C 0.79083 0.1562 0.55549 0.0
C1213 C 0.80285 0.17633 0.56354 0.0
C1214 C 0.81893 0.18348 0.61367 0.0
H1215 H 0.86805 0.71821 0.69419 0.0
H1216 H 0.91749 0.7196 0.80356 0.0
H1217 H 0.90906 0.68861 0.73874 0.0
H1218 H 0.83602 0.6694 0.71519 0.0
H1219 H 0.82417 0.66705 0.62353 0.0
H1220 H 0.83544 0.6897 0.6736 0.0
H1221 H 0.85601 0.70627 0.55181 0.0
H1222 H 0.84497 0.68361 0.50122 0.0
H1223 H 0.87083 0.69749 0.51044 0.0
H1224 H 0.89235 0.65505 0.66729 0.0
H1225 H 0.86988 0.62417 0.60161 0.0
H1226 H 0.83281 0.64708 0.54043 0.0
C1227 C 0.87728 0.71216 0.70452 0.0
C1228 C 0.89335 0.72127 0.75458 0.0
C1229 C 0.9051 0.71287 0.76539 0.0
C1230 C 0.90039 0.69529 0.72873 0.0
C1231 C 0.88412 0.68653 0.68055 0.0
C1232 C 0.87292 0.69495 0.66824 0.0
C1233 C 0.85576 0.68275 0.6171 0.0
C1234 C 0.83674 0.67688 0.65994 0.0
C1235 C 0.85698 0.69315 0.5406 0.0
C1236 C 0.85855 0.66574 0.60376 0.0
C1237 C 0.87501 0.66803 0.63984 0.0
C1238 C 0.87961 0.65334 0.63813 0.0
C1239 C 0.86685 0.63588 0.60032 0.0
C1240 C 0.84966 0.63326 0.56553 0.0
C1241 C 0.84588 0.64863 0.56608 0.0
H1242 H 0.98275 0.49061 0.12006 0.0
H1243 H 0.96079 0.52747 0.04437 0.0
H1244 H 0.99259 0.54963 0.98435 0.0
H1245 H 0.03299 0.52886 0.15862 0.0
H1246 H 0.04234 0.51397 0.12383 0.0
H1247 H 0.01897 0.50312 0.16917 0.0
H1248 H 1.00384 0.4818 0.04738 0.0
H1249 H 0.02704 0.4927 0.00135 0.0
H1250 H 1.00715 0.49303 0.95377 0.0
H1251 H 0.02693 0.56593 0.92008 0.0
H1252 H 0.05869 0.57406 0.86285 0.0
H1253 H 0.05602 0.52524 0.98167 0.0
C1254 C 0.98471 0.50358 0.09246 0.0
C1255 C 0.96934 0.50738 0.08718 0.0
C1256 C 0.97248 0.52444 0.05007 0.0
C1257 C 0.99047 0.53703 0.01552 0.0
C1258 C 1.00517 0.53242 0.01954 0.0
C1259 C 1.0024 0.51615 0.05825 0.0
C1260 C 0.01962 0.51334 0.05076 0.0
C1261 C 0.02903 0.51493 0.13032 0.0
C1262 C 1.01407 0.49409 0.01093 0.0
C1263 C 0.03241 0.53019 0.9996 0.0
C1264 C 0.02416 0.54132 0.98263 0.0
C1265 C 0.03349 0.55733 0.93382 0.0
C1266 C 0.05151 0.56186 0.90148 0.0
C1267 C 0.05978 0.55021 0.91718 0.0
C1268 C 0.05008 0.53439 0.96772 0.0
H1269 H 0.50499 0.53133 0.90634 0.0
H1270 H 0.44484 0.4868 0.90684 0.0
H1271 H 0.45379 0.46464 0.97171 0.0
H1272 H 0.52512 0.50007 0.87168 0.0
H1273 H 0.54563 0.51437 0.93307 0.0
H1274 H 0.53416 0.5255 0.88173 0.0
H1275 H 0.5294 0.53884 0.01188 0.0
H1276 H 0.54063 0.52758 0.06365 0.0
H1277 H 0.51675 0.52244 0.0901 0.0
H1278 H 0.47043 0.44807 0.04581 0.0
H1279 H 0.49234 0.43937 0.11491 0.0
H1280 H 0.54056 0.4959 0.06355 0.0
C1281 C 0.49363 0.51685 0.91912 0.0
C1282 C 0.4742 0.51081 0.90148 0.0
C1283 C 0.45986 0.4917 0.91924 0.0
C1284 C 0.46482 0.47906 0.95637 0.0
C1285 C 0.4842 0.48574 0.9746 0.0
C1286 C 0.49832 0.5042 0.95552 0.0
C1287 C 0.51801 0.50847 0.98256 0.0
C1288 C 0.53152 0.51232 0.91313 0.0
C1289 C 0.52669 0.52532 0.04049 0.0
C1290 C 0.51289 0.48972 0.02172 0.0
C1291 C 0.49341 0.47658 0.01641 0.0
C1292 C 0.48569 0.45831 0.04978 0.0
C1293 C 0.49822 0.45348 0.08911 0.0
C1294 C 0.51818 0.46695 0.09526 0.0
C1295 C 0.5254 0.48522 0.06067 0.0
H1296 H 0.52824 0.03617 0.14205 0.0
H1297 H 0.5867 0.0619 0.05563 0.0
H1298 H 0.57805 0.03155 0.98534 0.0
H1299 H 0.51922 0.98642 0.16248 0.0
H1300 H 0.4945 0.97654 0.13232 0.0
H1301 H 0.50649 0.99912 0.18341 0.0
H1302 H 0.49802 0.01514 0.07101 0.0
H1303 H 0.48626 0.99271 0.01938 0.0
H1304 H 0.50542 0.01377 0.9736 0.0
H1305 H 0.56086 0.99819 0.91296 0.0
H1306 H 0.53777 0.96702 0.85024 0.0
H1307 H 0.4914 0.96532 0.98573 0.0
C1308 C 0.53941 0.03533 0.10983 0.0
C1309 C 0.55817 0.05135 0.10462 0.0
C1310 C 0.57229 0.04969 0.06134 0.0
C1311 C 0.56745 0.03252 0.02097 0.0
C1312 C 0.5485 0.01714 0.02538 0.0
C1313 C 0.53484 0.01847 0.06984 0.0
C1314 C 0.51518 1.0008 0.06189 0.0
C1315 C 0.50846 0.99009 0.13965 0.0
C1316 C 0.50037 1.00592 0.02952 0.0
C1317 C 0.51959 0.98945 0.00398 0.0
C1318 C 0.53887 0.99876 0.98393 0.0
C1319 C 0.54578 0.99081 0.92901 0.0
C1320 C 0.53261 0.97312 0.89361 0.0
C1321 C 0.51276 0.96385 0.91238 0.0
C1322 C 0.50643 0.97211 0.96915 0.0
H1323 H 0.15124 0.18208 0.07178 0.0
H1324 H 0.19653 0.24164 0.05605 0.0
H1325 H 0.21828 0.23136 0.9978 0.0
H1326 H 0.18078 0.16118 0.11527 0.0
H1327 H 0.16689 0.14029 0.05543 0.0
H1328 H 0.15548 0.1524 0.09933 0.0
H1329 H 0.14383 0.15653 0.96409 0.0
H1330 H 0.15518 0.14441 0.91979 0.0
H1331 H 0.16118 0.16811 0.88755 0.0
H1332 H 0.23548 0.21386 0.94617 0.0
H1333 H 0.24517 0.19132 0.89176 0.0
H1334 H 0.18738 0.14384 0.93038 0.0
C1335 C 0.1658 0.19295 0.05673 0.0
C1336 C 0.17235 0.21264 0.06948 0.0
C1337 C 0.19131 0.22647 0.04714 0.0
C1338 C 0.20375 0.22075 0.01427 0.0
C1339 C 0.19685 0.20117 0.00267 0.0
C1340 C 0.17819 0.18753 0.02215 0.0
C1341 C 0.17383 0.16751 0.99977 0.0
C1342 C 0.16896 0.15459 0.07174 0.0
C1343 C 0.15754 0.15862 0.93919 0.0
C1344 C 0.19297 0.17193 0.9651 0.0
C1345 C 0.20621 0.19137 0.96835 0.0
C1346 C 0.22513 0.19866 0.94255 0.0
C1347 C 0.23054 0.18578 0.91197 0.0
C1348 C 0.21696 0.16593 0.90587 0.0
C1349 C 0.19798 0.15901 0.93301 0.0
H1350 H 0.841 0.96987 0.05877 0.0
H1351 H 0.78232 0.9587 0.07853 0.0
H1352 H 0.79252 0.99096 0.02347 0.0
H1353 H 0.86508 0.01945 0.10874 0.0
H1354 H 0.88427 0.0261 0.03967 0.0
H1355 H 0.87218 1.00228 0.08033 0.0
H1356 H 0.86387 0.98756 0.94216 0.0
H1357 H 0.87607 0.01134 0.90106 0.0
H1358 H 0.85131 0.99487 0.87584 0.0
H1359 H 0.81028 0.02583 0.97149 0.0
H1360 H 0.83274 0.05782 0.91522 0.0
H1361 H 0.87895 0.04454 0.92519 0.0
C1362 C 0.83024 0.97416 0.05149 0.0
C1363 C 0.81088 0.96183 0.07348 0.0
C1364 C 0.79723 0.96791 0.06197 0.0
C1365 C 0.80293 0.98624 0.03112 0.0
C1366 C 0.82226 0.99818 0.01115 0.0
C1367 C 0.83561 0.99218 0.01994 0.0
C1368 C 0.85538 1.00731 0.99241 0.0
C1369 C 0.87009 0.01419 0.05928 0.0
C1370 C 0.86204 0.99982 0.92378 0.0
C1371 C 0.85123 0.02291 0.96714 0.0
C1372 C 0.83213 0.01756 0.97899 0.0
C1373 C 0.82521 0.03003 0.96146 0.0
C1374 C 0.83808 0.04821 0.92991 0.0
C1375 C 0.85755 0.05363 0.91529 0.0
C1376 C 0.86411 0.04078 0.93489 0.0
H1377 H 0.97496 0.83783 0.98648 0.0
H1378 H 0.96826 0.78348 0.90827 0.0
H1379 H 1.00137 0.79365 0.95488 0.0
H1380 H 0.02398 0.8673 0.93347 0.0
H1381 H 0.02981 0.88273 0.01702 0.0
H1382 H 1.00567 0.8708 0.97862 0.0
H1383 H 0.99229 0.8556 0.11323 0.0
H1384 H 0.01638 0.86754 0.15218 0.0
H1385 H 1.00154 0.84182 0.16027 0.0
H1386 H 0.03654 0.81117 0.00813 0.0
H1387 H 0.06858 0.83311 0.06643 0.0
H1388 H 0.05055 0.87502 0.10945 0.0
C1389 C 0.98034 0.82796 0.97898 0.0
C1390 C 0.96899 0.80987 0.94317 0.0
C1391 C 0.97667 0.79742 0.93543 0.0
C1392 C 0.99548 0.80311 0.96163 0.0
C1393 C 1.00636 0.82121 0.99595 0.0
C1394 C 0.99889 0.83333 0.00499 0.0
C1395 C 1.01316 0.85198 0.04371 0.0
C1396 C 0.01847 0.86921 0.98998 0.0
C1397 C 1.00538 0.85436 0.12199 0.0
C1398 C 0.03 0.84867 0.05481 0.0
C1399 C 0.02597 0.83091 0.02695 0.0
C1400 C 0.03972 0.82504 0.0304 0.0
C1401 C 0.0579 0.83761 0.06349 0.0
C1402 C 0.06213 0.85579 0.09296 0.0
C1403 C 0.04788 0.86123 0.08805 0.0
H1404 H 0.89304 0.84339 0.01602 0.0
H1405 H 0.85495 0.81053 0.82585 0.0
H1406 H 0.83583 0.82607 0.84802 0.0
H1407 H 0.85414 0.83867 0.13971 0.0
H1408 H 0.86806 0.86232 0.18137 0.0
H1409 H 0.87994 0.8496 0.14832 0.0
H1410 H 0.90198 0.87829 0.05968 0.0
H1411 H 0.89011 0.89107 0.0922 0.0
H1412 H 0.89125 0.88692 0.99008 0.0
H1413 H 0.82096 0.84534 0.88648 0.0
H1414 H 0.80924 0.86523 0.94858 0.0
H1415 H 0.85408 0.88355 0.12326 0.0
C1416 C 0.88066 0.83934 0.97908 0.0
C1417 C 0.87611 0.82604 0.91722 0.0
C1418 C 0.85956 0.82124 0.8712 0.0
C1419 C 0.84833 0.82984 0.88389 0.0
C1420 C 0.85338 0.84299 0.94414 0.0
C1421 C 0.86891 0.84753 0.99199 0.0
C1422 C 0.87044 0.86149 0.05507 0.0
C1423 C 0.868 0.85248 0.13591 0.0
C1424 C 0.88958 0.88057 0.04885 0.0
C1425 C 0.8534 0.86411 0.03453 0.0
C1426 C 0.84396 0.85341 0.96964 0.0
C1427 C 0.82814 0.8537 0.93759 0.0
C1428 C 0.82166 0.86511 0.973 0.0
C1429 C 0.83078 0.87594 0.04041 0.0
C1430 C 0.84683 0.87536 0.07184 0.0
H1431 H 0.18998 0.04366 0.89051 0.0
H1432 H 0.19251 0.07095 0.11121 0.0
H1433 H 0.17327 0.03907 0.17129 0.0
H1434 H 0.14136 1.00229 0.91217 0.0
H1435 H 0.14762 0.98585 0.86763 0.0
H1436 H 0.16003 0.0108 0.83967 0.0
H1437 H 0.19278 0.01333 0.87299 0.0
H1438 H 0.18048 0.98841 0.90085 0.0
H1439 H 0.19649 1.00654 0.96837 0.0
H1440 H 0.15588 1.00439 0.21026 0.0
H1441 H 0.14181 0.96936 0.2256 0.0
H1442 H 0.15109 0.96422 0.981 0.0
C1443 C 0.18645 0.043 0.95143 0.0
C1444 C 0.19272 0.05999 0.99573 0.0
C1445 C 0.1876 0.0583 0.07525 0.0
C1446 C 0.17674 0.04019 0.11017 0.0
C1447 C 0.17104 0.02382 0.06503 0.0
C1448 C 0.17568 0.02502 0.98736 0.0
C1449 C 0.16864 1.0052 0.95294 0.0
C1450 C 0.15351 1.00078 0.88933 0.0
C1451 C 0.18561 1.00326 0.92199 0.0
C1452 C 0.15963 0.99267 0.0238 0.0
C1453 C 0.16106 1.00373 0.08766 0.0
C1454 C 0.15456 0.99558 0.16055 0.0
C1455 C 0.14665 0.97568 0.16874 0.0
C1456 C 0.14531 0.96404 0.10455 0.0
C1457 C 0.15163 0.97268 0.03085 0.0
H1458 H 0.97598 0.16176 0.86233 0.0
H1459 H 0.96091 0.10485 0.94379 0.0
H1460 H 0.99494 0.11693 0.98085 0.0
H1461 H 0.02311 0.17475 0.78397 0.0
H1462 H 0.03391 0.19942 0.81503 0.0
H1463 H 1.00859 0.18605 0.7919 0.0
H1464 H 1.00043 0.19372 0.92796 0.0
H1465 H 0.0257 0.20709 0.95152 0.0
H1466 H 1.00933 0.18761 0.01309 0.0
H1467 H 0.03077 0.13557 0.01103 0.0
H1468 H 0.06487 0.15942 0.0378 0.0
H1469 H 0.05636 0.20411 0.93664 0.0
C1470 C 0.97988 0.15175 0.88683 0.0
C1471 C 0.96577 0.13229 0.89955 0.0
C1472 C 0.97143 0.11981 0.93367 0.0
C1473 C 0.99074 0.12652 0.95453 0.0
C1474 C 1.00426 0.1458 0.94131 0.0
C1475 C 0.99904 0.15824 0.90851 0.0
C1476 C 0.01614 0.17846 0.90343 0.0
C1477 C 0.02071 0.18505 0.81853 0.0
C1478 C 1.01269 0.19254 0.9519 0.0
C1479 C 0.03181 0.1755 0.93881 0.0
C1480 C 0.02472 0.15654 0.95976 0.0
C1481 C 0.03647 0.15043 0.99449 0.0
C1482 C 0.05588 0.16408 0.00901 0.0
C1483 C 0.06339 0.18369 0.98936 0.0
C1484 C 0.05111 0.18931 0.95305 0.0
H1485 H 0.84789 0.47134 0.27093 0.0
H1486 H 0.90591 0.51815 0.22846 0.0
H1487 H 0.89666 0.54121 0.28052 0.0
H1488 H 0.82296 0.49613 0.21879 0.0
H1489 H 0.805 0.48496 0.29348 0.0
H1490 H 0.81639 0.47244 0.25332 0.0
H1491 H 0.82699 0.46847 0.39104 0.0
H1492 H 0.81553 0.48088 0.43166 0.0
H1493 H 0.84066 0.48943 0.45083 0.0
H1494 H 0.88005 0.55927 0.33509 0.0
H1495 H 0.85865 0.56996 0.39356 0.0
H1496 H 0.8122 0.5107 0.40108 0.0
C1497 C 0.85873 0.48644 0.27246 0.0
C1498 C 0.87763 0.49292 0.2451 0.0
C1499 C 0.89134 0.51281 0.249 0.0
C1500 C 0.88618 0.52602 0.27829 0.0
C1501 C 0.8673 0.5191 0.30395 0.0
C1502 C 0.85388 0.49971 0.30179 0.0
C1503 C 0.83462 0.49571 0.33359 0.0
C1504 C 0.81882 0.48679 0.27105 0.0
C1505 C 0.82914 0.48287 0.40608 0.0
C1506 C 0.83918 0.51586 0.35396 0.0
C1507 C 0.85804 0.52925 0.3362 0.0
C1508 C 0.86529 0.54885 0.34947 0.0
C1509 C 0.85302 0.5548 0.38251 0.0
C1510 C 0.83376 0.54119 0.40242 0.0
C1511 C 0.82686 0.52152 0.38718 0.0
H1512 H 0.49504 0.36589 0.18175 0.0
H1513 H 0.53484 0.40342 0.35805 0.0
H1514 H 0.52495 0.37581 0.44433 0.0
H1515 H 0.45713 0.33327 0.3137 0.0
H1516 H 0.45133 0.312 0.25838 0.0
H1517 H 0.46075 0.33485 0.21016 0.0
H1518 H 0.48833 0.33082 0.15216 0.0
H1519 H 0.47899 0.30798 0.20026 0.0
H1520 H 0.50363 0.32653 0.21605 0.0
H1521 H 0.51168 0.34469 0.51132 0.0
H1522 H 0.49644 0.31117 0.55479 0.0
H1523 H 0.46522 0.29232 0.33654 0.0
C1524 C 0.50157 0.36829 0.23869 0.0
C1525 C 0.51566 0.38701 0.26312 0.0
C1526 C 0.52399 0.3894 0.33779 0.0
C1527 C 0.51844 0.37375 0.3875 0.0
C1528 C 0.50461 0.35559 0.36183 0.0
C1529 C 0.4963 0.35266 0.28918 0.0
C1530 C 0.48225 0.33137 0.27575 0.0
C1531 C 0.46164 0.32766 0.2638 0.0
C1532 C 0.48869 0.32373 0.20698 0.0
C1533 C 0.48408 0.32291 0.35213 0.0
C1534 C 0.49701 0.33727 0.40075 0.0
C1535 C 0.5015 0.3333 0.47387 0.0
C1536 C 0.49275 0.31414 0.49797 0.0
C1537 C 0.47961 0.299 0.44925 0.0
C1538 C 0.47509 0.30353 0.37542 0.0
H1539 H 0.72981 0.17545 0.33566 0.0
H1540 H 0.71206 0.19464 0.53886 0.0
H1541 H 0.67832 0.1766 0.49465 0.0
H1542 H 0.69712 0.17872 0.20258 0.0
H1543 H 0.6922 0.15758 0.14821 0.0
H1544 H 0.71502 0.17141 0.19684 0.0
H1545 H 0.70949 0.14098 0.27049 0.0
H1546 H 0.68665 0.12703 0.22203 0.0
H1547 H 0.6878 0.12743 0.3265 0.0
H1548 H 0.64666 0.15722 0.42834 0.0
H1549 H 0.61889 0.1376 0.34376 0.0
H1550 H 0.65647 0.13068 0.18164 0.0
C1551 C 0.71881 0.17573 0.37116 0.0
C1552 C 0.72366 0.18649 0.44098 0.0
C1553 C 0.7088 0.18657 0.48523 0.0
C1554 C 0.68954 0.17634 0.46064 0.0
C1555 C 0.68527 0.16605 0.39146 0.0
C1556 C 0.69943 0.16562 0.34723 0.0
C1557 C 0.69086 0.1537 0.27426 0.0
C1558 C 0.6993 0.1661 0.20116 0.0
C1559 C 0.69388 0.13625 0.2733 0.0
C1560 C 0.6697 0.14757 0.28448 0.0
C1561 C 0.66687 0.15487 0.35263 0.0
C1562 C 0.6487 0.15143 0.3748 0.0
C1563 C 0.63298 0.14028 0.32605 0.0
C1564 C 0.6354 0.13258 0.25568 0.0
C1565 C 0.65408 0.13628 0.23501 0.0
H1566 H 0.52506 0.14608 0.27671 0.0
H1567 H 0.58129 0.19346 0.21499 0.0
H1568 H 0.56948 0.21633 0.23727 0.0
H1569 H 0.49656 0.16406 0.19078 0.0
H1570 H 0.47898 0.15569 0.26764 0.0
H1571 H 0.49187 0.14319 0.24664 0.0
H1572 H 0.50353 0.14741 0.38935 0.0
H1573 H 0.49055 0.1598 0.41091 0.0
H1574 H 0.516 0.17114 0.43131 0.0
H1575 H 0.55069 0.23376 0.26026 0.0
H1576 H 0.52765 0.24462 0.29209 0.0
H1577 H 0.48456 0.18584 0.34904 0.0
C1578 C 0.53486 0.16128 0.26781 0.0
C1579 C 0.55405 0.16804 0.24362 0.0
C1580 C 0.56655 0.18803 0.23371 0.0
C1581 C 0.55994 0.20109 0.24589 0.0
C1582 C 0.54086 0.19393 0.26907 0.0
C1583 C 0.5286 0.17451 0.28096 0.0
C1584 C 0.50894 0.17053 0.30796 0.0
C1585 C 0.49316 0.1576 0.24977 0.0
C1586 C 0.5045 0.1617 0.38974 0.0
C1587 C 0.51194 0.19071 0.30847 0.0
C1588 C 0.53038 0.204 0.28536 0.0
C1589 C 0.53629 0.22348 0.27943 0.0
C1590 C 0.52307 0.22954 0.29825 0.0
C1591 C 0.50413 0.21622 0.32375 0.0
C1592 C 0.49868 0.19652 0.3287 0.0
H1593 H 0.80191 0.30021 0.36509 0.0
H1594 H 0.82635 0.27916 0.19287 0.0
H1595 H 0.84361 0.31131 0.13358 0.0
H1596 H 0.79651 0.33405 0.23395 0.0
H1597 H 0.80308 0.35205 0.30834 0.0
H1598 H 0.79125 0.32697 0.3342 0.0
H1599 H 0.8192 0.33397 0.42848 0.0
H1600 H 0.8312 0.35902 0.40239 0.0
H1601 H 0.84358 0.34557 0.39245 0.0
H1602 H 0.86071 0.34571 0.10105 0.0
H1603 H 0.87534 0.38054 0.08964 0.0
H1604 H 0.83906 0.38054 0.27728 0.0
C1605 C 0.81055 0.30233 0.31384 0.0
C1606 C 0.81282 0.28717 0.2836 0.0
C1607 C 0.82452 0.29057 0.21729 0.0
C1608 C 0.83435 0.30878 0.18309 0.0
C1609 C 0.83229 0.32354 0.21542 0.0
C1610 C 0.82056 0.32058 0.27871 0.0
C1611 C 0.82167 0.33933 0.3032 0.0
C1612 C 0.80195 0.33802 0.29438 0.0
C1613 C 0.82937 0.34479 0.38658 0.0
C1614 C 0.8361 0.35323 0.24458 0.0
C1615 C 0.84194 0.34368 0.19472 0.0
C1616 C 0.85588 0.35331 0.13837 0.0
C1617 C 0.864 0.37323 0.13193 0.0
C1618 C 0.85806 0.38357 0.18075 0.0
C1619 C 0.84391 0.37326 0.23831 0.0
H1620 H 0.7257 0.50575 0.33874 0.0
H1621 H 0.71929 0.53195 0.54964 0.0
H1622 H 0.68454 0.51505 0.53076 0.0
H1623 H 0.6906 0.51231 0.23265 0.0
H1624 H 0.68163 0.49035 0.17797 0.0
H1625 H 0.70624 0.50277 0.21145 0.0
H1626 H 0.70071 0.47185 0.28104 0.0
H1627 H 0.67604 0.45935 0.24803 0.0
H1628 H 0.68135 0.46029 0.35012 0.0
H1629 H 0.65028 0.49554 0.49144 0.0
H1630 H 0.6189 0.47735 0.42493 0.0
H1631 H 0.6468 0.46685 0.23073 0.0
C1632 C 0.71719 0.5081 0.38128 0.0
C1633 C 0.72581 0.51993 0.44753 0.0
C1634 C 0.71356 0.52236 0.50051 0.0
C1635 C 0.69357 0.51296 0.48987 0.0
C1636 C 0.68572 0.50145 0.42473 0.0
C1637 C 0.69711 0.49924 0.37042 0.0
C1638 C 0.68496 0.48719 0.30234 0.0
C1639 C 0.69123 0.49886 0.22663 0.0
C1640 C 0.68582 0.46857 0.29498 0.0
C1641 C 0.66503 0.48303 0.32731 0.0
C1642 C 0.66586 0.49117 0.39886 0.0
C1643 C 0.64943 0.48914 0.43527 0.0
C1644 C 0.63166 0.47871 0.39727 0.0
C1645 C 0.63043 0.47065 0.32301 0.0
C1646 C 0.64736 0.47287 0.28753 0.0
H1647 H 0.56245 0.84311 0.65396 0.0
H1648 H 0.52335 0.82247 0.45696 0.0
H1649 H 0.50817 0.84081 0.50215 0.0
H1650 H 0.52805 0.84083 0.79171 0.0
H1651 H 0.54474 0.86241 0.84279 0.0
H1652 H 0.55337 0.84841 0.79347 0.0
H1653 H 0.5773 0.8784 0.71503 0.0
H1654 H 0.56875 0.89252 0.76416 0.0
H1655 H 0.56838 0.89139 0.65969 0.0
H1656 H 0.49599 0.85986 0.57044 0.0
H1657 H 0.48814 0.87942 0.65642 0.0
H1658 H 0.53508 0.88865 0.80992 0.0
C1659 C 0.55086 0.84266 0.61986 0.0
C1660 C 0.54414 0.83131 0.5517 0.0
C1661 C 0.52878 0.83097 0.50936 0.0
C1662 C 0.52003 0.84137 0.53451 0.0
C1663 C 0.52676 0.85215 0.60226 0.0
C1664 C 0.54187 0.85299 0.64434 0.0
C1665 C 0.54588 0.86539 0.7163 0.0
C1666 C 0.54283 0.85355 0.79044 0.0
C1667 C 0.56629 0.88297 0.7136 0.0
C1668 C 0.53059 0.87124 0.70806 0.0
C1669 C 0.51975 0.86338 0.64178 0.0
C1670 C 0.50444 0.86618 0.62232 0.0
C1671 C 0.50006 0.87731 0.67183 0.0
C1672 C 0.51098 0.88568 0.74004 0.0
C1673 C 0.52652 0.8826 0.758 0.0
H1674 H 0.20704 0.7061 0.54151 0.0
H1675 H 0.16878 0.72564 0.62645 0.0
H1676 H 0.14814 0.69377 0.68702 0.0
H1677 H 0.17081 0.6567 0.50115 0.0
H1678 H 0.1859 0.64735 0.53407 0.0
H1679 H 0.19666 0.67115 0.49334 0.0
H1680 H 0.2172 0.68521 0.61786 0.0
H1681 H 0.20653 0.66148 0.65886 0.0
H1682 H 0.20537 0.68035 0.71077 0.0
H1683 H 0.1317 0.65907 0.7392 0.0
H1684 H 0.1229 0.6265 0.78655 0.0
H1685 H 0.17329 0.63123 0.6722 0.0
C1686 C 0.19419 0.70366 0.57197 0.0
C1687 C 0.18941 0.71833 0.57842 0.0
C1688 C 0.17267 0.71459 0.62034 0.0
C1689 C 0.16084 0.69651 0.65475 0.0
C1690 C 0.16604 0.68237 0.64736 0.0
C1691 C 0.18245 0.68588 0.60744 0.0
C1692 C 0.18563 0.66884 0.61146 0.0
C1693 C 0.18469 0.66052 0.53017 0.0
C1694 C 0.20481 0.6743 0.65218 0.0
C1695 C 0.16854 0.65518 0.66031 0.0
C1696 C 0.15719 0.66304 0.67967 0.0
C1697 C 0.14055 0.65285 0.7244 0.0
C1698 C 0.13561 0.63434 0.75084 0.0
C1699 C 0.14747 0.62638 0.73355 0.0
C1700 C 0.164 0.63696 0.68702 0.0
H1701 H 0.31193 0.50051 0.56114 0.0
H1702 H 0.29929 0.44144 0.57364 0.0
H1703 H 0.33167 0.45246 0.6301 0.0
H1704 H 0.363 0.52299 0.51725 0.0
H1705 H 0.3693 0.5435 0.5784 0.0
H1706 H 0.3459 0.53101 0.53315 0.0
H1707 H 0.32964 0.52591 0.66771 0.0
H1708 H 0.35298 0.53838 0.71332 0.0
H1709 H 0.33564 0.51438 0.74378 0.0
H1710 H 0.3661 0.47051 0.68434 0.0
H1711 H 0.39751 0.49328 0.74495 0.0
H1712 H 0.38592 0.53991 0.70684 0.0
C1713 C 0.31609 0.48991 0.5746 0.0
C1714 C 0.30324 0.47013 0.56173 0.0
C1715 C 0.30899 0.45667 0.5824 0.0
C1716 C 0.32737 0.46282 0.61427 0.0
C1717 C 0.3397 0.48246 0.62637 0.0
C1718 C 0.33414 0.49575 0.60806 0.0
C1719 C 0.34938 0.51585 0.63199 0.0
C1720 C 0.35737 0.52912 0.56095 0.0
C1721 C 0.34143 0.52411 0.69282 0.0
C1722 C 0.36439 0.51185 0.6668 0.0
C1723 C 0.35876 0.49257 0.6618 0.0
C1724 C 0.37056 0.48561 0.68889 0.0
C1725 C 0.3884 0.49863 0.72293 0.0
C1726 C 0.39405 0.51829 0.73108 0.0
C1727 C 0.38189 0.52491 0.7021 0.0
H1728 H 0.16351 0.53122 0.66528 0.0
H1729 H 0.19135 0.55637 0.8846 0.0
H1730 H 0.2122 0.54204 0.86938 0.0
H1731 H 0.16237 0.48703 0.68937 0.0
H1732 H 0.16713 0.48459 0.58909 0.0
H1733 H 0.15534 0.49793 0.61424 0.0
H1734 H 0.18163 0.52768 0.54117 0.0
H1735 H 0.19345 0.51438 0.51535 0.0
H1736 H 0.20664 0.537 0.56566 0.0
H1737 H 0.22897 0.52355 0.83341 0.0
H1738 H 0.24008 0.50222 0.77998 0.0
H1739 H 0.20172 0.48954 0.58297 0.0
C1740 C 0.17426 0.53404 0.70935 0.0
C1741 C 0.17581 0.54499 0.77612 0.0
C1742 C 0.18979 0.54794 0.83324 0.0
C1743 C 0.20177 0.53994 0.82493 0.0
C1744 C 0.19966 0.52898 0.75907 0.0
C1745 C 0.1863 0.52607 0.70212 0.0
C1746 C 0.18636 0.51303 0.63866 0.0
C1747 C 0.16663 0.49455 0.63253 0.0
C1748 C 0.19239 0.52366 0.56059 0.0
C1749 C 0.20166 0.50885 0.66931 0.0
C1750 C 0.20926 0.51829 0.73855 0.0
C1751 C 0.22325 0.51624 0.7788 0.0
C1752 C 0.22956 0.50415 0.74771 0.0
C1753 C 0.22185 0.49416 0.67708 0.0
C1754 C 0.20782 0.49677 0.63741 0.0
H1755 H 0.50254 0.63869 0.77979 0.0
H1756 H 0.44445 0.62238 0.70614 0.0
H1757 H 0.4556 0.65608 0.67019 0.0
H1758 H 0.51384 0.68475 0.86418 0.0
H1759 H 0.53863 0.69644 0.83315 0.0
H1760 H 0.52597 0.67106 0.85384 0.0
H1761 H 0.53412 0.66415 0.71641 0.0
H1762 H 0.54675 0.68948 0.6952 0.0
H1763 H 0.52746 0.67302 0.63273 0.0
H1764 H 0.47354 0.69166 0.63775 0.0
H1765 H 0.49655 0.72582 0.61186 0.0
H1766 H 0.54238 0.71918 0.71542 0.0
C1767 C 0.492 0.64216 0.75747 0.0
C1768 C 0.47252 0.62769 0.74607 0.0
C1769 C 0.45947 0.63302 0.71467 0.0
C1770 C 0.46565 0.6522 0.69454 0.0
C1771 C 0.48493 0.66601 0.70652 0.0
C1772 C 0.49788 0.66123 0.73761 0.0
C1773 C 0.51787 0.67872 0.74369 0.0
C1774 C 0.52446 0.68299 0.82878 0.0
C1775 C 0.5324 0.67618 0.69404 0.0
C1776 C 0.51421 0.69408 0.71043 0.0
C1777 C 0.49512 0.68648 0.68936 0.0
C1778 C 0.48847 0.69779 0.65493 0.0
C1779 C 0.50169 0.7173 0.64104 0.0
C1780 C 0.52142 0.72547 0.66175 0.0
C1781 C 0.52754 0.71356 0.69786 0.0
H1782 H 0.3124 0.81678 0.57875 0.0
H1783 H 0.2859 0.78329 0.78608 0.0
H1784 H 0.31818 0.79485 0.84309 0.0
H1785 H 0.35437 0.81 0.57657 0.0
H1786 H 0.37048 0.83411 0.54342 0.0
H1787 H 0.34535 0.82221 0.51685 0.0
H1788 H 0.34248 0.85045 0.57458 0.0
H1789 H 0.36757 0.86244 0.60119 0.0
H1790 H 0.34953 0.85755 0.67389 0.0
H1791 H 0.35327 0.81223 0.88204 0.0
H1792 H 0.38848 0.83328 0.89808 0.0
H1793 H 0.39234 0.85498 0.66468 0.0
C1794 C 0.31338 0.81179 0.63601 0.0
C1795 C 0.29655 0.79905 0.67781 0.0
C1796 C 0.29852 0.79279 0.75238 0.0
C1797 C 0.31682 0.79937 0.78542 0.0
C1798 C 0.33307 0.81207 0.743 0.0
C1799 C 0.33153 0.81811 0.66965 0.0
C1800 C 0.35122 0.83228 0.63721 0.0
C1801 C 0.35561 0.82416 0.56418 0.0
C1802 C 0.35278 0.85183 0.62078 0.0
C1803 C 0.36408 0.83356 0.70435 0.0
C1804 C 0.35331 0.82177 0.76478 0.0
C1805 C 0.36185 0.82131 0.83471 0.0
C1806 C 0.38184 0.83333 0.84339 0.0
C1807 C 0.39315 0.84558 0.78237 0.0
C1808 C 0.38412 0.84546 0.71165 0.0
loop_
_geom_bond_atom_site_label_1
_geom_bond_atom_site_label_2
_geom_bond_distance
_geom_bond_site_symmetry_2
_ccdc_geom_bond_type
C0 C1 1.351 . S
C0 N3 1.369 . S
C0 H5 0.931 1_556 S
C1 C0 1.351 . S
C1 N2 1.373 . S
C1 H29 0.930 . S
N2 C1 1.373 . S
N2 C4 1.340 . S
N3 C0 1.369 . S
N3 C4 1.324 . S
N3 Co6 2.132 1_556 S
C4 N2 1.340 . S
C4 N3 1.324 . S
C4 H28 0.930 . S
H5 C0 0.931 1_554 S
Co6 N3 2.132 1_554 S
Co6 N9 2.121 . S
Co6 O14 2.055 . S
Co6 O17 2.039 . S
Co6 N20 2.140 . S
C7 O8 1.227 . S
C7 O17 1.265 . S
O8 C7 1.227 . S
N9 Co6 2.121 . S
N9 C11 1.375 . S
N9 C12 1.313 . S
C10 C11 1.338 . S
C10 N13 1.377 . S
C10 H30 0.930 . S
C11 N9 1.375 . S
C11 C10 1.338 . S
C11 H15 0.931 . S
C12 N9 1.313 . S
C12 N13 1.344 . S
C12 H16 0.930 . S
N13 C10 1.377 . S
N13 C12 1.344 . S
O14 Co6 2.055 . S
O14 C18 1.253 . S
H15 C11 0.931 . S
H16 C12 0.930 . S
O17 Co6 2.039 . S
O17 C7 1.265 . S
C18 O14 1.253 . S
C18 O19 1.227 . S
O19 C18 1.227 . S
N20 Co6 2.140 . S
N20 C23 1.346 . S
N20 C24 1.345 . S
C21 C22 1.387 . S
C21 C25 1.391 . S
C22 C21 1.387 . S
C22 C23 1.369 . S
C22 H31 0.929 1_554 S
C23 N20 1.346 . S
C23 C22 1.369 . S
C23 H26 0.928 1_554 S
C24 N20 1.345 . S
C24 C25 1.371 . S
C24 H27 0.931 . S
C25 C21 1.391 . S
C25 C24 1.371 . S
C25 H32 0.930 . S
H26 C23 0.928 1_556 S
H27 C24 0.931 . S
H28 C4 0.930 . S
H29 C1 0.930 . S
H30 C10 0.930 . S
H31 C22 0.929 1_556 S
H32 C25 0.930 . S
C33 C34 1.351 . S
C33 N36 1.369 . S
C33 H38 0.931 1_556 S
C34 C33 1.351 . S
C34 N35 1.373 . S
C34 H62 0.930 . S
N35 C34 1.373 . S
N35 C37 1.340 . S
N36 C33 1.369 . S
N36 C37 1.325 . S
N36 Co39 2.131 1_556 S
C37 N35 1.340 . S
C37 N36 1.325 . S
C37 H61 0.930 . S
H38 C33 0.931 1_554 S
Co39 N36 2.131 1_554 S
Co39 N42 2.121 . S
Co39 O47 2.055 . S
Co39 O50 2.039 . S
Co39 N53 2.140 . S
C40 O41 1.227 . S
C40 O50 1.265 . S
O41 C40 1.227 . S
N42 Co39 2.121 . S
N42 C44 1.375 . S
N42 C45 1.313 . S
C43 C44 1.338 . S
C43 N46 1.377 . S
C43 H63 0.930 . S
C44 N42 1.375 . S
C44 C43 1.338 . S
C44 H48 0.931 . S
C45 N42 1.313 . S
C45 N46 1.344 . S
C45 H49 0.930 . S
N46 C43 1.377 . S
N46 C45 1.344 . S
O47 Co39 2.055 . S
O47 C51 1.253 . S
H48 C44 0.931 . S
H49 C45 0.930 . S
O50 Co39 2.039 . S
O50 C40 1.265 . S
C51 O47 1.253 . S
C51 O52 1.227 . S
O52 C51 1.227 . S
N53 Co39 2.140 . S
N53 C56 1.346 . S
N53 C57 1.345 . S
C54 C55 1.387 . S
C54 C58 1.391 . S
C55 C54 1.387 . S
C55 C56 1.369 . S
C55 H64 0.929 1_554 S
C56 N53 1.346 . S
C56 C55 1.369 . S
C56 H59 0.928 1_554 S
C57 N53 1.345 . S
C57 C58 1.371 . S
C57 H60 0.931 . S
C58 C54 1.391 . S
C58 C57 1.371 . S
C58 H65 0.930 . S
H59 C56 0.928 1_556 S
H60 C57 0.931 . S
H61 C37 0.930 . S
H62 C34 0.930 . S
H63 C43 0.930 . S
H64 C55 0.929 1_556 S
H65 C58 0.930 . S
C66 C67 1.351 . S
C66 N69 1.369 . S
C66 H71 0.931 1_556 S
C67 C66 1.351 . S
C67 N68 1.373 . S
C67 H95 0.930 . S
N68 C67 1.373 . S
N68 C70 1.340 . S
N69 C66 1.369 . S
N69 C70 1.326 . S
N69 Co72 2.130 1_556 S
C70 N68 1.340 . S
C70 N69 1.326 . S
C70 H94 0.930 . S
H71 C66 0.931 1_554 S
Co72 N69 2.130 1_554 S
Co72 N75 2.121 . S
Co72 O80 2.055 . S
Co72 O83 2.039 . S
Co72 N86 2.140 . S
C73 O74 1.227 . S
C73 O83 1.265 . S
O74 C73 1.227 . S
N75 Co72 2.121 . S
N75 C77 1.375 . S
N75 C78 1.313 . S
C76 C77 1.338 . S
C76 N79 1.377 . S
C76 H96 0.930 . S
C77 N75 1.375 . S
C77 C76 1.338 . S
C77 H81 0.931 . S
C78 N75 1.313 . S
C78 N79 1.344 . S
C78 H82 0.930 . S
N79 C76 1.377 . S
N79 C78 1.344 . S
O80 Co72 2.055 . S
O80 C84 1.253 . S
H81 C77 0.931 . S
H82 C78 0.930 . S
O83 Co72 2.039 . S
O83 C73 1.265 . S
C84 O80 1.253 . S
C84 O85 1.227 . S
O85 C84 1.227 . S
N86 Co72 2.140 . S
N86 C89 1.346 . S
N86 C90 1.345 . S
C87 C88 1.387 . S
C87 C91 1.391 . S
C88 C87 1.387 . S
C88 C89 1.369 . S
C88 H97 0.929 1_554 S
C89 N86 1.346 . S
C89 C88 1.369 . S
C89 H92 0.928 1_554 S
C90 N86 1.345 . S
C90 C91 1.371 . S
C90 H93 0.931 . S
C91 C87 1.391 . S
C91 C90 1.371 . S
C91 H98 0.930 . S
H92 C89 0.928 1_556 S
H93 C90 0.931 . S
H94 C70 0.930 . S
H95 C67 0.930 . S
H96 C76 0.930 . S
H97 C88 0.929 1_556 S
H98 C91 0.930 . S
C99 C100 1.351 . S
C99 N102 1.369 . S
C99 H104 0.931 1_554 S
C100 C99 1.351 . S
C100 N101 1.373 . S
C100 H128 0.930 . S
N101 C100 1.373 . S
N101 C103 1.340 . S
N102 C99 1.369 . S
N102 C103 1.324 . S
N102 Co105 2.132 1_554 S
C103 N101 1.340 . S
C103 N102 1.324 . S
C103 H127 0.930 . S
H104 C99 0.931 1_556 S
Co105 N102 2.132 1_556 S
Co105 N108 2.121 . S
Co105 O113 2.055 . S
Co105 O116 2.039 . S
Co105 N119 2.140 . S
C106 O107 1.227 . S
C106 O116 1.265 . S
O107 C106 1.227 . S
N108 Co105 2.121 . S
N108 C110 1.375 . S
N108 C111 1.313 . S
C109 C110 1.338 . S
C109 N112 1.377 . S
C109 H129 0.930 . S
C110 N108 1.375 . S
C110 C109 1.338 . S
C110 H114 0.931 . S
C111 N108 1.313 . S
C111 N112 1.344 . S
C111 H115 0.930 . S
N112 C109 1.377 . S
N112 C111 1.344 . S
O113 Co105 2.055 . S
O113 C117 1.253 . S
H114 C110 0.931 . S
H115 C111 0.930 . S
O116 Co105 2.039 . S
O116 C106 1.265 . S
C117 O113 1.253 . S
C117 O118 1.227 . S
O118 C117 1.227 . S
N119 Co105 2.140 . S
N119 C122 1.346 . S
N119 C123 1.345 . S
C120 C121 1.387 . S
C120 C124 1.391 . S
C121 C120 1.387 . S
C121 C122 1.369 . S
C121 H130 0.929 1_556 S
C122 N119 1.346 . S
C122 C121 1.369 . S
C122 H125 0.928 1_556 S
C123 N119 1.345 . S
C123 C124 1.371 . S
C123 H126 0.931 . S
C124 C120 1.391 . S
C124 C123 1.371 . S
C124 H131 0.930 . S
H125 C122 0.928 1_554 S
H126 C123 0.931 . S
H127 C103 0.930 . S
H128 C100 0.930 . S
H129 C109 0.930 . S
H130 C121 0.929 1_554 S
H131 C124 0.930 . S
C132 C133 1.351 . S
C132 N135 1.369 . S
C132 H137 0.931 1_554 S
C133 C132 1.351 . S
C133 N134 1.373 . S
C133 H161 0.930 . S
N134 C133 1.373 . S
N134 C136 1.340 . S
N135 C132 1.369 . S
N135 C136 1.326 . S
N135 Co138 2.130 1_554 S
C136 N134 1.340 . S
C136 N135 1.326 . S
C136 H160 0.930 . S
H137 C132 0.931 1_556 S
Co138 N135 2.130 1_556 S
Co138 N141 2.121 . S
Co138 O146 2.055 . S
Co138 O149 2.039 . S
Co138 N152 2.140 . S
C139 O140 1.227 . S
C139 O149 1.265 . S
O140 C139 1.227 . S
N141 Co138 2.121 . S
N141 C143 1.375 . S
N141 C144 1.313 . S
C142 C143 1.338 . S
C142 N145 1.377 . S
C142 H162 0.930 . S
C143 N141 1.375 . S
C143 C142 1.338 . S
C143 H147 0.931 . S
C144 N141 1.313 . S
C144 N145 1.344 . S
C144 H148 0.930 . S
N145 C142 1.377 . S
N145 C144 1.344 . S
O146 Co138 2.055 . S
O146 C150 1.253 . S
H147 C143 0.931 . S
H148 C144 0.930 . S
O149 Co138 2.039 . S
O149 C139 1.265 . S
C150 O146 1.253 . S
C150 O151 1.227 . S
O151 C150 1.227 . S
N152 Co138 2.140 . S
N152 C155 1.346 . S
N152 C156 1.345 . S
C153 C154 1.387 . S
C153 C157 1.391 . S
C154 C153 1.387 . S
C154 C155 1.369 . S
C154 H163 0.929 1_556 S
C155 N152 1.346 . S
C155 C154 1.369 . S
C155 H158 0.928 1_556 S
C156 N152 1.345 . S
C156 C157 1.371 . S
C156 H159 0.931 . S
C157 C153 1.391 . S
C157 C156 1.371 . S
C157 H164 0.930 . S
H158 C155 0.928 1_554 S
H159 C156 0.931 . S
H160 C136 0.930 . S
H161 C133 0.930 . S
H162 C142 0.930 . S
H163 C154 0.929 1_554 S
H164 C157 0.930 . S
C165 C166 1.351 . S
C165 N168 1.369 . S
C165 H170 0.931 1_554 S
C166 C165 1.351 . S
C166 N167 1.373 . S
C166 H194 0.930 . S
N167 C166 1.373 . S
N167 C169 1.340 . S
N168 C165 1.369 . S
N168 C169 1.325 . S
N168 Co171 2.131 1_554 S
C169 N167 1.340 . S
C169 N168 1.325 . S
C169 H193 0.930 . S
H170 C165 0.931 1_556 S
Co171 N168 2.131 1_556 S
Co171 N174 2.121 . S
Co171 O179 2.055 . S
Co171 O182 2.039 . S
Co171 N185 2.140 . S
C172 O173 1.227 . S
C172 O182 1.265 . S
O173 C172 1.227 . S
N174 Co171 2.121 . S
N174 C176 1.375 . S
N174 C177 1.313 . S
C175 C176 1.338 . S
C175 N178 1.377 . S
C175 H195 0.930 . S
C176 N174 1.375 . S
C176 C175 1.338 . S
C176 H180 0.931 . S
C177 N174 1.313 . S
C177 N178 1.344 . S
C177 H181 0.930 . S
N178 C175 1.377 . S
N178 C177 1.344 . S
O179 Co171 2.055 . S
O179 C183 1.253 . S
H180 C176 0.931 . S
H181 C177 0.930 . S
O182 Co171 2.039 . S
O182 C172 1.265 . S
C183 O179 1.253 . S
C183 O184 1.227 . S
O184 C183 1.227 . S
N185 Co171 2.140 . S
N185 C188 1.346 . S
N185 C189 1.345 . S
C186 C187 1.387 . S
C186 C190 1.391 . S
C187 C186 1.387 . S
C187 C188 1.369 . S
C187 H196 0.929 1_556 S
C188 N185 1.346 . S
C188 C187 1.369 . S
C188 H191 0.928 1_556 S
C189 N185 1.345 . S
C189 C190 1.371 . S
C189 H192 0.931 . S
C190 C186 1.391 . S
C190 C189 1.371 . S
C190 H197 0.930 . S
H191 C188 0.928 1_554 S
H192 C189 0.931 . S
H193 C169 0.930 . S
H194 C166 0.930 . S
H195 C175 0.930 . S
H196 C187 0.929 1_554 S
H197 C190 0.930 . S
C198 C199 1.351 . S
C198 N201 1.368 . S
C198 H203 0.931 . S
C199 C198 1.351 . S
C199 N200 1.373 . S
C199 H227 0.930 . S
N200 C199 1.373 . S
N200 C202 1.340 . S
N201 C198 1.368 . S
N201 C202 1.321 . S
N201 Co204 2.135 . S
C202 N200 1.340 . S
C202 N201 1.321 . S
C202 H226 0.930 . S
H203 C198 0.931 . S
Co204 N201 2.135 . S
Co204 N207 2.121 . S
Co204 O212 2.055 . S
Co204 O215 2.039 . S
Co204 N218 2.140 . S
C205 O206 1.227 . S
C205 O215 1.265 . S
O206 C205 1.227 . S
N207 Co204 2.121 . S
N207 C209 1.375 . S
N207 C210 1.313 . S
C208 C209 1.338 . S
C208 N211 1.377 . S
C208 H228 0.930 . S
C209 N207 1.375 . S
C209 C208 1.338 . S
C209 H213 0.931 . S
C210 N207 1.313 . S
C210 N211 1.344 . S
C210 H214 0.930 . S
N211 C208 1.377 . S
N211 C210 1.344 . S
O212 Co204 2.055 . S
O212 C216 1.253 . S
H213 C209 0.931 . S
H214 C210 0.930 . S
O215 Co204 2.039 . S
O215 C205 1.265 . S
C216 O212 1.253 . S
C216 O217 1.227 . S
O217 C216 1.227 . S
N218 Co204 2.140 . S
N218 C221 1.346 . S
N218 C222 1.345 . S
C219 C220 1.387 . S
C219 C223 1.391 . S
C220 C219 1.387 . S
C220 C221 1.369 . S
C220 H229 0.929 . S
C221 N218 1.346 . S
C221 C220 1.369 . S
C221 H224 0.928 . S
C222 N218 1.345 . S
C222 C223 1.371 . S
C222 H225 0.931 . S
C223 C219 1.391 . S
C223 C222 1.371 . S
C223 H230 0.930 . S
H224 C221 0.928 . S
H225 C222 0.931 . S
H226 C202 0.930 . S
H227 C199 0.930 . S
H228 C208 0.930 . S
H229 C220 0.929 . S
H230 C223 0.930 . S
C231 C232 1.351 . S
C231 N234 1.368 . S
C231 H236 0.931 . S
C232 C231 1.351 . S
C232 N233 1.373 . S
C232 H260 0.930 . S
N233 C232 1.373 . S
N233 C235 1.340 . S
N234 C231 1.368 . S
N234 C235 1.321 . S
N234 Co237 2.135 . S
C235 N233 1.340 . S
C235 N234 1.321 . S
C235 H259 0.930 . S
H236 C231 0.931 . S
Co237 N234 2.135 . S
Co237 N240 2.121 . S
Co237 O245 2.055 . S
Co237 O248 2.039 . S
Co237 N251 2.140 . S
C238 O239 1.227 . S
C238 O248 1.265 . S
O239 C238 1.227 . S
N240 Co237 2.121 . S
N240 C242 1.375 . S
N240 C243 1.313 . S
C241 C242 1.338 . S
C241 N244 1.377 . S
C241 H261 0.930 . S
C242 N240 1.375 . S
C242 C241 1.338 . S
C242 H246 0.931 . S
C243 N240 1.313 . S
C243 N244 1.344 . S
C243 H247 0.930 . S
N244 C241 1.377 . S
N244 C243 1.344 . S
O245 Co237 2.055 . S
O245 C249 1.253 . S
H246 C242 0.931 . S
H247 C243 0.930 . S
O248 Co237 2.039 . S
O248 C238 1.265 . S
C249 O245 1.253 . S
C249 O250 1.227 . S
O250 C249 1.227 . S
N251 Co237 2.140 . S
N251 C254 1.346 . S
N251 C255 1.345 . S
C252 C253 1.387 . S
C252 C256 1.391 . S
C253 C252 1.387 . S
C253 C254 1.369 . S
C253 H262 0.929 . S
C254 N251 1.346 . S
C254 C253 1.369 . S
C254 H257 0.928 . S
C255 N251 1.345 . S
C255 C256 1.371 . S
C255 H258 0.931 . S
C256 C252 1.391 . S
C256 C255 1.371 . S
C256 H263 0.930 . S
H257 C254 0.928 . S
H258 C255 0.931 . S
H259 C235 0.930 . S
H260 C232 0.930 . S
H261 C241 0.930 . S
H262 C253 0.929 . S
H263 C256 0.930 . S
C264 C265 1.351 . S
C264 N267 1.368 . S
C264 H269 0.931 . S
C265 C264 1.351 . S
C265 N266 1.373 . S
C265 H293 0.930 . S
N266 C265 1.373 . S
N266 C268 1.340 . S
N267 C264 1.368 . S
N267 C268 1.321 . S
N267 Co270 2.135 . S
C268 N266 1.340 . S
C268 N267 1.321 . S
C268 H292 0.930 . S
H269 C264 0.931 . S
Co270 N267 2.135 . S
Co270 N273 2.121 . S
Co270 O278 2.055 . S
Co270 O281 2.039 . S
Co270 N284 2.140 . S
C271 O272 1.227 . S
C271 O281 1.265 . S
O272 C271 1.227 . S
N273 Co270 2.121 . S
N273 C275 1.375 . S
N273 C276 1.313 . S
C274 C275 1.338 . S
C274 N277 1.377 . S
C274 H294 0.930 . S
C275 N273 1.375 . S
C275 C274 1.338 . S
C275 H279 0.931 . S
C276 N273 1.313 . S
C276 N277 1.344 . S
C276 H280 0.930 . S
N277 C274 1.377 . S
N277 C276 1.344 . S
O278 Co270 2.055 . S
O278 C282 1.253 . S
H279 C275 0.931 . S
H280 C276 0.930 . S
O281 Co270 2.039 . S
O281 C271 1.265 . S
C282 O278 1.253 . S
C282 O283 1.227 . S
O283 C282 1.227 . S
N284 Co270 2.140 . S
N284 C287 1.346 . S
N284 C288 1.345 . S
C285 C286 1.387 . S
C285 C289 1.391 . S
C286 C285 1.387 . S
C286 C287 1.369 . S
C286 H295 0.929 . S
C287 N284 1.346 . S
C287 C286 1.369 . S
C287 H290 0.928 . S
C288 N284 1.345 . S
C288 C289 1.371 . S
C288 H291 0.931 . S
C289 C285 1.391 . S
C289 C288 1.371 . S
C289 H296 0.930 . S
H290 C287 0.928 . S
H291 C288 0.931 . S
H292 C268 0.930 . S
H293 C265 0.930 . S
H294 C274 0.930 . S
H295 C286 0.929 . S
H296 C289 0.930 . S
C297 C298 1.351 . S
C297 N300 1.368 . S
C297 H302 0.931 . S
C298 C297 1.351 . S
C298 N299 1.373 . S
C298 H326 0.930 . S
N299 C298 1.373 . S
N299 C301 1.340 . S
N300 C297 1.368 . S
N300 C301 1.321 . S
N300 Co303 2.135 . S
C301 N299 1.340 . S
C301 N300 1.321 . S
C301 H325 0.930 . S
H302 C297 0.931 . S
Co303 N300 2.135 . S
Co303 N306 2.121 . S
Co303 O311 2.055 . S
Co303 O314 2.039 . S
Co303 N317 2.140 . S
C304 O305 1.227 . S
C304 O314 1.265 . S
O305 C304 1.227 . S
N306 Co303 2.121 . S
N306 C308 1.375 . S
N306 C309 1.313 . S
C307 C308 1.338 . S
C307 N310 1.377 1_554 S
C307 H327 0.930 1_554 S
C308 N306 1.375 . S
C308 C307 1.338 . S
C308 H312 0.931 . S
C309 N306 1.313 . S
C309 N310 1.344 1_554 S
C309 H313 0.930 . S
N310 C307 1.377 1_556 S
N310 C309 1.344 1_556 S
O311 Co303 2.055 . S
O311 C315 1.253 . S
H312 C308 0.931 . S
H313 C309 0.930 . S
O314 Co303 2.039 . S
O314 C304 1.265 . S
C315 O311 1.253 . S
C315 O316 1.227 . S
O316 C315 1.227 . S
N317 Co303 2.140 . S
N317 C320 1.346 . S
N317 C321 1.345 . S
C318 C319 1.387 . S
C318 C322 1.391 . S
C319 C318 1.387 . S
C319 C320 1.369 . S
C319 H328 0.929 . S
C320 N317 1.346 . S
C320 C319 1.369 . S
C320 H323 0.928 . S
C321 N317 1.345 . S
C321 C322 1.371 . S
C321 H324 0.931 . S
C322 C318 1.391 . S
C322 C321 1.371 . S
C322 H329 0.930 . S
H323 C320 0.928 . S
H324 C321 0.931 . S
H325 C301 0.930 . S
H326 C298 0.930 . S
H327 C307 0.930 1_556 S
H328 C319 0.929 . S
H329 C322 0.930 . S
C330 C331 1.351 . S
C330 N333 1.368 . S
C330 H335 0.931 . S
C331 C330 1.351 . S
C331 N332 1.373 . S
C331 H359 0.930 . S
N332 C331 1.373 . S
N332 C334 1.340 . S
N333 C330 1.368 . S
N333 C334 1.321 . S
N333 Co336 2.135 . S
C334 N332 1.340 . S
C334 N333 1.321 . S
C334 H358 0.930 . S
H335 C330 0.931 . S
Co336 N333 2.135 . S
Co336 N339 2.121 . S
Co336 O344 2.055 . S
Co336 O347 2.039 . S
Co336 N350 2.140 . S
C337 O338 1.227 . S
C337 O347 1.265 . S
O338 C337 1.227 . S
N339 Co336 2.121 . S
N339 C341 1.375 . S
N339 C342 1.313 . S
C340 C341 1.338 . S
C340 N343 1.377 1_554 S
C340 H360 0.930 1_554 S
C341 N339 1.375 . S
C341 C340 1.338 . S
C341 H345 0.931 . S
C342 N339 1.313 . S
C342 N343 1.344 1_554 S
C342 H346 0.930 . S
N343 C340 1.377 1_556 S
N343 C342 1.344 1_556 S
O344 Co336 2.055 . S
O344 C348 1.253 . S
H345 C341 0.931 . S
H346 C342 0.930 . S
O347 Co336 2.039 . S
O347 C337 1.265 . S
C348 O344 1.253 . S
C348 O349 1.227 . S
O349 C348 1.227 . S
N350 Co336 2.140 . S
N350 C353 1.346 . S
N350 C354 1.345 . S
C351 C352 1.387 . S
C351 C355 1.391 . S
C352 C351 1.387 . S
C352 C353 1.369 . S
C352 H361 0.929 . S
C353 N350 1.346 . S
C353 C352 1.369 . S
C353 H356 0.928 . S
C354 N350 1.345 . S
C354 C355 1.371 . S
C354 H357 0.931 . S
C355 C351 1.391 . S
C355 C354 1.371 . S
C355 H362 0.930 . S
H356 C353 0.928 . S
H357 C354 0.931 . S
H358 C334 0.930 . S
H359 C331 0.930 . S
H360 C340 0.930 1_556 S
H361 C352 0.929 . S
H362 C355 0.930 . S
C363 C364 1.351 . S
C363 N366 1.368 . S
C363 H368 0.931 . S
C364 C363 1.351 . S
C364 N365 1.373 . S
C364 H392 0.930 . S
N365 C364 1.373 . S
N365 C367 1.340 . S
N366 C363 1.368 . S
N366 C367 1.321 . S
N366 Co369 2.135 . S
C367 N365 1.340 . S
C367 N366 1.321 . S
C367 H391 0.930 . S
H368 C363 0.931 . S
Co369 N366 2.135 . S
Co369 N372 2.121 . S
Co369 O377 2.055 . S
Co369 O380 2.039 . S
Co369 N383 2.140 . S
C370 O371 1.227 . S
C370 O380 1.265 . S
O371 C370 1.227 . S
N372 Co369 2.121 . S
N372 C374 1.375 . S
N372 C375 1.313 . S
C373 C374 1.338 . S
C373 N376 1.377 1_554 S
C373 H393 0.930 1_554 S
C374 N372 1.375 . S
C374 C373 1.338 . S
C374 H378 0.931 . S
C375 N372 1.313 . S
C375 N376 1.344 1_554 S
C375 H379 0.930 . S
N376 C373 1.377 1_556 S
N376 C375 1.344 1_556 S
O377 Co369 2.055 . S
O377 C381 1.253 . S
H378 C374 0.931 . S
H379 C375 0.930 . S
O380 Co369 2.039 . S
O380 C370 1.265 . S
C381 O377 1.253 . S
C381 O382 1.227 . S
O382 C381 1.227 . S
N383 Co369 2.140 . S
N383 C386 1.346 . S
N383 C387 1.345 . S
C384 C385 1.387 . S
C384 C388 1.391 . S
C385 C384 1.387 . S
C385 C386 1.369 . S
C385 H394 0.929 . S
C386 N383 1.346 . S
C386 C385 1.369 . S
C386 H389 0.928 . S
C387 N383 1.345 . S
C387 C388 1.371 . S
C387 H390 0.931 . S
C388 C384 1.391 . S
C388 C387 1.371 . S
C388 H395 0.930 . S
H389 C386 0.928 . S
H390 C387 0.931 . S
H391 C367 0.930 . S
H392 C364 0.930 . S
H393 C373 0.930 1_556 S
H394 C385 0.929 . S
H395 C388 0.930 . S
C396 C397 1.351 . S
C396 N399 1.368 . S
C396 H401 0.931 . S
C397 C396 1.351 . S
C397 N398 1.373 . S
C397 H425 0.930 . S
N398 C397 1.373 . S
N398 C400 1.340 . S
N399 C396 1.368 . S
N399 C400 1.321 . S
N399 Co402 2.135 . S
C400 N398 1.340 . S
C400 N399 1.321 . S
C400 H424 0.930 . S
H401 C396 0.931 . S
Co402 N399 2.135 . S
Co402 N405 2.121 . S
Co402 O410 2.055 . S
Co402 O413 2.039 . S
Co402 N416 2.140 . S
C403 O404 1.227 . S
C403 O413 1.265 . S
O404 C403 1.227 . S
N405 Co402 2.121 . S
N405 C407 1.375 . S
N405 C408 1.313 . S
C406 C407 1.338 . S
C406 N409 1.377 1_556 S
C406 H426 0.930 1_556 S
C407 N405 1.375 . S
C407 C406 1.338 . S
C407 H411 0.931 . S
C408 N405 1.313 . S
C408 N409 1.344 1_556 S
C408 H412 0.930 . S
N409 C406 1.377 1_554 S
N409 C408 1.344 1_554 S
O410 Co402 2.055 . S
O410 C414 1.253 . S
H411 C407 0.931 . S
H412 C408 0.930 . S
O413 Co402 2.039 . S
O413 C403 1.265 . S
C414 O410 1.253 . S
C414 O415 1.227 . S
O415 C414 1.227 . S
N416 Co402 2.140 . S
N416 C419 1.346 . S
N416 C420 1.345 . S
C417 C418 1.387 . S
C417 C421 1.391 . S
C418 C417 1.387 . S
C418 C419 1.369 . S
C418 H427 0.929 . S
C419 N416 1.346 . S
C419 C418 1.369 . S
C419 H422 0.928 . S
C420 N416 1.345 . S
C420 C421 1.371 . S
C420 H423 0.931 . S
C421 C417 1.391 . S
C421 C420 1.371 . S
C421 H428 0.930 . S
H422 C419 0.928 . S
H423 C420 0.931 . S
H424 C400 0.930 . S
H425 C397 0.930 . S
H426 C406 0.930 1_554 S
H427 C418 0.929 . S
H428 C421 0.930 . S
C429 C430 1.351 . S
C429 N432 1.368 . S
C429 H434 0.931 . S
C430 C429 1.351 . S
C430 N431 1.373 . S
C430 H458 0.930 . S
N431 C430 1.373 . S
N431 C433 1.340 . S
N432 C429 1.368 . S
N432 C433 1.321 . S
N432 Co435 2.135 . S
C433 N431 1.340 . S
C433 N432 1.321 . S
C433 H457 0.930 . S
H434 C429 0.931 . S
Co435 N432 2.135 . S
Co435 N438 2.121 . S
Co435 O443 2.055 . S
Co435 O446 2.039 . S
Co435 N449 2.140 . S
C436 O437 1.227 . S
C436 O446 1.265 . S
O437 C436 1.227 . S
N438 Co435 2.121 . S
N438 C440 1.375 . S
N438 C441 1.313 . S
C439 C440 1.338 . S
C439 N442 1.377 1_556 S
C439 H459 0.930 1_556 S
C440 N438 1.375 . S
C440 C439 1.338 . S
C440 H444 0.931 . S
C441 N438 1.313 . S
C441 N442 1.344 1_556 S
C441 H445 0.930 . S
N442 C439 1.377 1_554 S
N442 C441 1.344 1_554 S
O443 Co435 2.055 . S
O443 C447 1.253 . S
H444 C440 0.931 . S
H445 C441 0.930 . S
O446 Co435 2.039 . S
O446 C436 1.265 . S
C447 O443 1.253 . S
C447 O448 1.227 . S
O448 C447 1.227 . S
N449 Co435 2.140 . S
N449 C452 1.346 . S
N449 C453 1.345 . S
C450 C451 1.387 . S
C450 C454 1.391 . S
C451 C450 1.387 . S
C451 C452 1.369 . S
C451 H460 0.929 . S
C452 N449 1.346 . S
C452 C451 1.369 . S
C452 H455 0.928 . S
C453 N449 1.345 . S
C453 C454 1.371 . S
C453 H456 0.931 . S
C454 C450 1.391 . S
C454 C453 1.371 . S
C454 H461 0.930 . S
H455 C452 0.928 . S
H456 C453 0.931 . S
H457 C433 0.930 . S
H458 C430 0.930 . S
H459 C439 0.930 1_554 S
H460 C451 0.929 . S
H461 C454 0.930 . S
C462 C463 1.351 . S
C462 N465 1.368 . S
C462 H467 0.931 . S
C463 C462 1.351 . S
C463 N464 1.373 . S
C463 H491 0.930 . S
N464 C463 1.373 . S
N464 C466 1.340 . S
N465 C462 1.368 . S
N465 C466 1.321 . S
N465 Co468 2.135 . S
C466 N464 1.340 . S
C466 N465 1.321 . S
C466 H490 0.930 . S
H467 C462 0.931 . S
Co468 N465 2.135 . S
Co468 N471 2.121 . S
Co468 O476 2.055 . S
Co468 O479 2.039 . S
Co468 N482 2.140 . S
C469 O470 1.227 . S
C469 O479 1.265 . S
O470 C469 1.227 . S
N471 Co468 2.121 . S
N471 C473 1.375 . S
N471 C474 1.313 . S
C472 C473 1.338 . S
C472 N475 1.377 1_556 S
C472 H492 0.930 1_556 S
C473 N471 1.375 . S
C473 C472 1.338 . S
C473 H477 0.931 . S
C474 N471 1.313 . S
C474 N475 1.344 1_556 S
C474 H478 0.930 . S
N475 C472 1.377 1_554 S
N475 C474 1.344 1_554 S
O476 Co468 2.055 . S
O476 C480 1.253 . S
H477 C473 0.931 . S
H478 C474 0.930 . S
O479 Co468 2.039 . S
O479 C469 1.265 . S
C480 O476 1.253 . S
C480 O481 1.227 . S
O481 C480 1.227 . S
N482 Co468 2.140 . S
N482 C485 1.346 . S
N482 C486 1.345 . S
C483 C484 1.387 . S
C483 C487 1.391 . S
C484 C483 1.387 . S
C484 C485 1.369 . S
C484 H493 0.929 . S
C485 N482 1.346 . S
C485 C484 1.369 . S
C485 H488 0.928 . S
C486 N482 1.345 . S
C486 C487 1.371 . S
C486 H489 0.931 . S
C487 C483 1.391 . S
C487 C486 1.371 . S
C487 H494 0.930 . S
H488 C485 0.928 . S
H489 C486 0.931 . S
H490 C466 0.930 . S
H491 C463 0.930 . S
H492 C472 0.930 1_554 S
H493 C484 0.929 . S
H494 C487 0.930 . S
C495 C496 1.351 . S
C495 N498 1.368 . S
C495 H500 0.931 . S
C496 C495 1.351 . S
C496 N497 1.373 . S
C496 H524 0.930 . S
N497 C496 1.373 . S
N497 C499 1.340 . S
N498 C495 1.368 . S
N498 C499 1.321 . S
N498 Co501 2.135 . S
C499 N497 1.340 . S
C499 N498 1.321 . S
C499 H523 0.930 . S
H500 C495 0.931 . S
Co501 N498 2.135 . S
Co501 N504 2.121 . S
Co501 O509 2.055 . S
Co501 O512 2.039 . S
Co501 N515 2.140 . S
C502 O503 1.227 . S
C502 O512 1.265 . S
O503 C502 1.227 . S
N504 Co501 2.121 . S
N504 C506 1.375 . S
N504 C507 1.313 . S
C505 C506 1.338 . S
C505 N508 1.377 . S
C505 H525 0.930 . S
C506 N504 1.375 . S
C506 C505 1.338 . S
C506 H510 0.931 . S
C507 N504 1.313 . S
C507 N508 1.344 . S
C507 H511 0.930 . S
N508 C505 1.377 . S
N508 C507 1.344 . S
O509 Co501 2.055 . S
O509 C513 1.253 . S
H510 C506 0.931 . S
H511 C507 0.930 . S
O512 Co501 2.039 . S
O512 C502 1.265 . S
C513 O509 1.253 . S
C513 O514 1.227 . S
O514 C513 1.227 . S
N515 Co501 2.140 . S
N515 C518 1.346 . S
N515 C519 1.345 . S
C516 C517 1.387 . S
C516 C520 1.391 . S
C517 C516 1.387 . S
C517 C518 1.369 . S
C517 H526 0.929 . S
C518 N515 1.346 . S
C518 C517 1.369 . S
C518 H521 0.928 . S
C519 N515 1.345 . S
C519 C520 1.371 . S
C519 H522 0.931 . S
C520 C516 1.391 . S
C520 C519 1.371 . S
C520 H527 0.930 . S
H521 C518 0.928 . S
H522 C519 0.931 . S
H523 C499 0.930 . S
H524 C496 0.930 . S
H525 C505 0.930 . S
H526 C517 0.929 . S
H527 C520 0.930 . S
C528 C529 1.351 . S
C528 N531 1.368 . S
C528 H533 0.931 . S
C529 C528 1.351 . S
C529 N530 1.373 . S
C529 H557 0.930 . S
N530 C529 1.373 . S
N530 C532 1.340 . S
N531 C528 1.368 . S
N531 C532 1.321 . S
N531 Co534 2.135 . S
C532 N530 1.340 . S
C532 N531 1.321 . S
C532 H556 0.930 . S
H533 C528 0.931 . S
Co534 N531 2.135 . S
Co534 N537 2.121 . S
Co534 O542 2.055 . S
Co534 O545 2.039 . S
Co534 N548 2.140 . S
C535 O536 1.227 . S
C535 O545 1.265 . S
O536 C535 1.227 . S
N537 Co534 2.121 . S
N537 C539 1.375 . S
N537 C540 1.313 . S
C538 C539 1.338 . S
C538 N541 1.377 . S
C538 H558 0.930 . S
C539 N537 1.375 . S
C539 C538 1.338 . S
C539 H543 0.931 . S
C540 N537 1.313 . S
C540 N541 1.344 . S
C540 H544 0.930 . S
N541 C538 1.377 . S
N541 C540 1.344 . S
O542 Co534 2.055 . S
O542 C546 1.253 . S
H543 C539 0.931 . S
H544 C540 0.930 . S
O545 Co534 2.039 . S
O545 C535 1.265 . S
C546 O542 1.253 . S
C546 O547 1.227 . S
O547 C546 1.227 . S
N548 Co534 2.140 . S
N548 C551 1.346 . S
N548 C552 1.345 . S
C549 C550 1.387 . S
C549 C553 1.391 . S
C550 C549 1.387 . S
C550 C551 1.369 . S
C550 H559 0.929 . S
C551 N548 1.346 . S
C551 C550 1.369 . S
C551 H554 0.928 . S
C552 N548 1.345 . S
C552 C553 1.371 . S
C552 H555 0.931 . S
C553 C549 1.391 . S
C553 C552 1.371 . S
C553 H560 0.930 . S
H554 C551 0.928 . S
H555 C552 0.931 . S
H556 C532 0.930 . S
H557 C529 0.930 . S
H558 C538 0.930 . S
H559 C550 0.929 . S
H560 C553 0.930 . S
C561 C562 1.351 . S
C561 N564 1.368 . S
C561 H566 0.931 . S
C562 C561 1.351 . S
C562 N563 1.373 . S
C562 H590 0.930 . S
N563 C562 1.373 . S
N563 C565 1.340 . S
N564 C561 1.368 . S
N564 C565 1.321 . S
N564 Co567 2.135 . S
C565 N563 1.340 . S
C565 N564 1.321 . S
C565 H589 0.930 . S
H566 C561 0.931 . S
Co567 N564 2.135 . S
Co567 N570 2.121 . S
Co567 O575 2.055 . S
Co567 O578 2.039 . S
Co567 N581 2.140 . S
C568 O569 1.227 . S
C568 O578 1.265 . S
O569 C568 1.227 . S
N570 Co567 2.121 . S
N570 C572 1.375 . S
N570 C573 1.313 . S
C571 C572 1.338 . S
C571 N574 1.377 . S
C571 H591 0.930 . S
C572 N570 1.375 . S
C572 C571 1.338 . S
C572 H576 0.931 . S
C573 N570 1.313 . S
C573 N574 1.344 . S
C573 H577 0.930 . S
N574 C571 1.377 . S
N574 C573 1.344 . S
O575 Co567 2.055 . S
O575 C579 1.253 . S
H576 C572 0.931 . S
H577 C573 0.930 . S
O578 Co567 2.039 . S
O578 C568 1.265 . S
C579 O575 1.253 . S
C579 O580 1.227 . S
O580 C579 1.227 . S
N581 Co567 2.140 . S
N581 C584 1.346 . S
N581 C585 1.345 . S
C582 C583 1.387 . S
C582 C586 1.391 . S
C583 C582 1.387 . S
C583 C584 1.369 . S
C583 H592 0.929 . S
C584 N581 1.346 . S
C584 C583 1.369 . S
C584 H587 0.928 . S
C585 N581 1.345 . S
C585 C586 1.371 . S
C585 H588 0.931 . S
C586 C582 1.391 . S
C586 C585 1.371 . S
C586 H593 0.930 . S
H587 C584 0.928 . S
H588 C585 0.931 . S
H589 C565 0.930 . S
H590 C562 0.930 . S
H591 C571 0.930 . S
H592 C583 0.929 . S
H593 C586 0.930 . S
H594 C606 0.930 . S
H595 C608 0.930 . S
H596 C609 0.930 . S
H597 C613 0.959 . S
H598 C613 0.959 . S
H599 C613 0.961 . S
H600 C614 0.960 . S
H601 C614 0.961 . S
H602 C614 0.959 . S
H603 C617 0.929 . S
H604 C618 0.931 . S
H605 C620 0.930 . S
C606 H594 0.930 . S
C606 C607 1.399 . S
C606 C611 1.399 . S
C607 C606 1.399 . S
C607 C608 1.376 . S
C608 H595 0.930 . S
C608 C607 1.376 . S
C608 C609 1.388 . S
C609 H596 0.930 . S
C609 C608 1.388 . S
C609 C610 1.390 . S
C610 C609 1.390 . S
C610 C611 1.394 . S
C610 C616 1.465 . S
C611 C606 1.399 . S
C611 C610 1.394 . S
C611 C612 1.516 . S
C612 C611 1.516 . S
C612 C613 1.502 . S
C612 C614 1.561 . S
C612 C615 1.526 . S
C613 H597 0.959 . S
C613 H598 0.959 . S
C613 H599 0.961 . S
C613 C612 1.502 . S
C614 H600 0.960 . S
C614 H601 0.961 . S
C614 H602 0.959 . S
C614 C612 1.561 . S
C615 C612 1.526 . S
C615 C616 1.396 . S
C615 C620 1.390 . S
C616 C610 1.465 . S
C616 C615 1.396 . S
C616 C617 1.399 . S
C617 H603 0.929 . S
C617 C616 1.399 . S
C617 C618 1.385 . S
C618 H604 0.931 . S
C618 C617 1.385 . S
C618 C619 1.389 . S
C619 C618 1.389 . S
C619 C620 1.387 . S
C620 H605 0.930 . S
C620 C615 1.390 . S
C620 C619 1.387 . S
H621 C633 0.930 . S
H622 C635 0.930 . S
H623 C636 0.930 . S
H624 C640 0.959 . S
H625 C640 0.959 . S
H626 C640 0.961 . S
H627 C641 0.960 . S
H628 C641 0.961 . S
H629 C641 0.959 . S
H630 C644 0.929 . S
H631 C645 0.931 . S
H632 C647 0.930 . S
C633 H621 0.930 . S
C633 C634 1.399 . S
C633 C638 1.399 . S
C634 C633 1.399 . S
C634 C635 1.376 . S
C635 H622 0.930 . S
C635 C634 1.376 . S
C635 C636 1.388 . S
C636 H623 0.930 . S
C636 C635 1.388 . S
C636 C637 1.390 . S
C637 C636 1.390 . S
C637 C638 1.394 . S
C637 C643 1.465 . S
C638 C633 1.399 . S
C638 C637 1.394 . S
C638 C639 1.516 . S
C639 C638 1.516 . S
C639 C640 1.502 . S
C639 C641 1.561 . S
C639 C642 1.526 . S
C640 H624 0.959 . S
C640 H625 0.959 . S
C640 H626 0.961 . S
C640 C639 1.502 . S
C641 H627 0.960 . S
C641 H628 0.961 . S
C641 H629 0.959 . S
C641 C639 1.561 . S
C642 C639 1.526 . S
C642 C643 1.396 . S
C642 C647 1.390 . S
C643 C637 1.465 . S
C643 C642 1.396 . S
C643 C644 1.399 . S
C644 H630 0.929 . S
C644 C643 1.399 . S
C644 C645 1.385 . S
C645 H631 0.931 . S
C645 C644 1.385 . S
C645 C646 1.389 . S
C646 C645 1.389 . S
C646 C647 1.387 . S
C647 H632 0.930 . S
C647 C642 1.390 . S
C647 C646 1.387 . S
H648 C660 0.930 . S
H649 C662 0.930 . S
H650 C663 0.930 . S
H651 C667 0.959 . S
H652 C667 0.959 . S
H653 C667 0.961 . S
H654 C668 0.960 . S
H655 C668 0.961 . S
H656 C668 0.959 . S
H657 C671 0.929 . S
H658 C672 0.931 . S
H659 C674 0.930 . S
C660 H648 0.930 . S
C660 C661 1.399 . S
C660 C665 1.399 . S
C661 C660 1.399 . S
C661 C662 1.376 . S
C662 H649 0.930 . S
C662 C661 1.376 . S
C662 C663 1.388 . S
C663 H650 0.930 . S
C663 C662 1.388 . S
C663 C664 1.390 . S
C664 C663 1.390 . S
C664 C665 1.394 . S
C664 C670 1.465 . S
C665 C660 1.399 . S
C665 C664 1.394 . S
C665 C666 1.516 . S
C666 C665 1.516 . S
C666 C667 1.502 . S
C666 C668 1.561 . S
C666 C669 1.526 . S
C667 H651 0.959 . S
C667 H652 0.959 . S
C667 H653 0.961 . S
C667 C666 1.502 . S
C668 H654 0.960 . S
C668 H655 0.961 . S
C668 H656 0.959 . S
C668 C666 1.561 . S
C669 C666 1.526 . S
C669 C670 1.396 . S
C669 C674 1.390 . S
C670 C664 1.465 . S
C670 C669 1.396 . S
C670 C671 1.399 . S
C671 H657 0.929 . S
C671 C670 1.399 . S
C671 C672 1.385 . S
C672 H658 0.931 . S
C672 C671 1.385 . S
C672 C673 1.389 . S
C673 C672 1.389 . S
C673 C674 1.387 . S
C674 H659 0.930 . S
C674 C669 1.390 . S
C674 C673 1.387 . S
H675 C687 0.930 . S
H676 C689 0.930 . S
H677 C690 0.930 . S
H678 C694 0.959 . S
H679 C694 0.959 . S
H680 C694 0.961 . S
H681 C695 0.960 . S
H682 C695 0.961 . S
H683 C695 0.959 . S
H684 C698 0.929 . S
H685 C699 0.931 . S
H686 C701 0.930 . S
C687 H675 0.930 . S
C687 C688 1.399 . S
C687 C692 1.399 . S
C688 C687 1.399 . S
C688 C689 1.376 . S
C689 H676 0.930 . S
C689 C688 1.376 . S
C689 C690 1.388 . S
C690 H677 0.930 . S
C690 C689 1.388 . S
C690 C691 1.390 . S
C691 C690 1.390 . S
C691 C692 1.394 . S
C691 C697 1.465 . S
C692 C687 1.399 . S
C692 C691 1.394 . S
C692 C693 1.516 . S
C693 C692 1.516 . S
C693 C694 1.502 . S
C693 C695 1.561 . S
C693 C696 1.526 . S
C694 H678 0.959 . S
C694 H679 0.959 . S
C694 H680 0.961 . S
C694 C693 1.502 . S
C695 H681 0.960 . S
C695 H682 0.961 . S
C695 H683 0.959 . S
C695 C693 1.561 . S
C696 C693 1.526 . S
C696 C697 1.396 . S
C696 C701 1.390 . S
C697 C691 1.465 . S
C697 C696 1.396 . S
C697 C698 1.399 . S
C698 H684 0.929 . S
C698 C697 1.399 . S
C698 C699 1.385 . S
C699 H685 0.931 . S
C699 C698 1.385 . S
C699 C700 1.389 . S
C700 C699 1.389 . S
C700 C701 1.387 . S
C701 H686 0.930 . S
C701 C696 1.390 . S
C701 C700 1.387 . S
H702 C714 0.930 . S
H703 C716 0.930 . S
H704 C717 0.930 . S
H705 C721 0.959 . S
H706 C721 0.959 . S
H707 C721 0.961 . S
H708 C722 0.960 . S
H709 C722 0.961 . S
H710 C722 0.959 . S
H711 C725 0.929 . S
H712 C726 0.931 . S
H713 C728 0.930 . S
C714 H702 0.930 . S
C714 C715 1.399 . S
C714 C719 1.399 . S
C715 C714 1.399 . S
C715 C716 1.376 . S
C716 H703 0.930 . S
C716 C715 1.376 . S
C716 C717 1.388 . S
C717 H704 0.930 . S
C717 C716 1.388 . S
C717 C718 1.390 . S
C718 C717 1.390 . S
C718 C719 1.394 . S
C718 C724 1.465 . S
C719 C714 1.399 . S
C719 C718 1.394 . S
C719 C720 1.516 . S
C720 C719 1.516 . S
C720 C721 1.502 . S
C720 C722 1.561 . S
C720 C723 1.526 . S
C721 H705 0.959 . S
C721 H706 0.959 . S
C721 H707 0.961 . S
C721 C720 1.502 . S
C722 H708 0.960 . S
C722 H709 0.961 . S
C722 H710 0.959 . S
C722 C720 1.561 . S
C723 C720 1.526 . S
C723 C724 1.396 . S
C723 C728 1.390 . S
C724 C718 1.465 . S
C724 C723 1.396 . S
C724 C725 1.399 . S
C725 H711 0.929 . S
C725 C724 1.399 . S
C725 C726 1.385 . S
C726 H712 0.931 . S
C726 C725 1.385 . S
C726 C727 1.389 . S
C727 C726 1.389 . S
C727 C728 1.387 . S
C728 H713 0.930 . S
C728 C723 1.390 . S
C728 C727 1.387 . S
H729 C741 0.930 . S
H730 C743 0.930 . S
H731 C744 0.930 . S
H732 C748 0.959 . S
H733 C748 0.959 . S
H734 C748 0.961 . S
H735 C749 0.960 . S
H736 C749 0.961 . S
H737 C749 0.959 . S
H738 C752 0.929 . S
H739 C753 0.931 . S
H740 C755 0.930 . S
C741 H729 0.930 . S
C741 C742 1.399 . S
C741 C746 1.399 . S
C742 C741 1.399 . S
C742 C743 1.376 . S
C743 H730 0.930 . S
C743 C742 1.376 . S
C743 C744 1.388 . S
C744 H731 0.930 . S
C744 C743 1.388 . S
C744 C745 1.390 . S
C745 C744 1.390 . S
C745 C746 1.394 . S
C745 C751 1.465 . S
C746 C741 1.399 . S
C746 C745 1.394 . S
C746 C747 1.516 . S
C747 C746 1.516 . S
C747 C748 1.502 . S
C747 C749 1.561 . S
C747 C750 1.526 . S
C748 H732 0.959 . S
C748 H733 0.959 . S
C748 H734 0.961 . S
C748 C747 1.502 . S
C749 H735 0.960 . S
C749 H736 0.961 . S
C749 H737 0.959 . S
C749 C747 1.561 . S
C750 C747 1.526 . S
C750 C751 1.396 . S
C750 C755 1.390 . S
C751 C745 1.465 . S
C751 C750 1.396 . S
C751 C752 1.399 . S
C752 H738 0.929 . S
C752 C751 1.399 . S
C752 C753 1.385 . S
C753 H739 0.931 . S
C753 C752 1.385 . S
C753 C754 1.389 . S
C754 C753 1.389 . S
C754 C755 1.387 . S
C755 H740 0.930 . S
C755 C750 1.390 . S
C755 C754 1.387 . S
H756 C768 0.930 . S
H757 C770 0.930 . S
H758 C771 0.930 . S
H759 C775 0.959 . S
H760 C775 0.959 . S
H761 C775 0.961 1_554 S
H762 C776 0.960 1_554 S
H763 C776 0.961 . S
H764 C776 0.959 . S
H765 C779 0.929 . S
H766 C780 0.931 . S
H767 C782 0.930 . S
C768 H756 0.930 . S
C768 C769 1.399 . S
C768 C773 1.399 . S
C769 C768 1.399 . S
C769 C770 1.376 . S
C770 H757 0.930 . S
C770 C769 1.376 . S
C770 C771 1.388 . S
C771 H758 0.930 . S
C771 C770 1.388 . S
C771 C772 1.390 1_554 S
C772 C771 1.390 1_556 S
C772 C773 1.394 1_556 S
C772 C778 1.465 . S
C773 C768 1.399 . S
C773 C772 1.394 1_554 S
C773 C774 1.516 1_554 S
C774 C773 1.516 1_556 S
C774 C775 1.502 . S
C774 C776 1.561 . S
C774 C777 1.526 . S
C775 H759 0.959 . S
C775 H760 0.959 . S
C775 H761 0.961 1_556 S
C775 C774 1.502 . S
C776 H762 0.960 1_556 S
C776 H763 0.961 . S
C776 H764 0.959 . S
C776 C774 1.561 . S
C777 C774 1.526 . S
C777 C778 1.396 . S
C777 C782 1.390 . S
C778 C772 1.465 . S
C778 C777 1.396 . S
C778 C779 1.399 . S
C779 H765 0.929 . S
C779 C778 1.399 . S
C779 C780 1.385 . S
C780 H766 0.931 . S
C780 C779 1.385 . S
C780 C781 1.389 . S
C781 C780 1.389 . S
C781 C782 1.387 . S
C782 H767 0.930 . S
C782 C777 1.390 . S
C782 C781 1.387 . S
H783 C795 0.930 . S
H784 C797 0.930 . S
H785 C798 0.930 . S
H786 C802 0.959 . S
H787 C802 0.959 . S
H788 C802 0.961 1_554 S
H789 C803 0.960 . S
H790 C803 0.961 . S
H791 C803 0.959 . S
H792 C806 0.929 . S
H793 C807 0.931 . S
H794 C809 0.930 . S
C795 H783 0.930 . S
C795 C796 1.399 . S
C795 C800 1.399 . S
C796 C795 1.399 . S
C796 C797 1.376 . S
C797 H784 0.930 . S
C797 C796 1.376 . S
C797 C798 1.388 . S
C798 H785 0.930 . S
C798 C797 1.388 . S
C798 C799 1.390 1_554 S
C799 C798 1.390 1_556 S
C799 C800 1.394 1_556 S
C799 C805 1.465 . S
C800 C795 1.399 . S
C800 C799 1.394 1_554 S
C800 C801 1.516 1_554 S
C801 C800 1.516 1_556 S
C801 C802 1.502 . S
C801 C803 1.561 . S
C801 C804 1.526 . S
C802 H786 0.959 . S
C802 H787 0.959 . S
C802 H788 0.961 1_556 S
C802 C801 1.502 . S
C803 H789 0.960 . S
C803 H790 0.961 . S
C803 H791 0.959 . S
C803 C801 1.561 . S
C804 C801 1.526 . S
C804 C805 1.396 . S
C804 C809 1.390 . S
C805 C799 1.465 . S
C805 C804 1.396 . S
C805 C806 1.399 . S
C806 H792 0.929 . S
C806 C805 1.399 . S
C806 C807 1.385 . S
C807 H793 0.931 . S
C807 C806 1.385 . S
C807 C808 1.389 . S
C808 C807 1.389 . S
C808 C809 1.387 . S
C809 H794 0.930 . S
C809 C804 1.390 . S
C809 C808 1.387 . S
H810 C822 0.930 . S
H811 C824 0.930 . S
H812 C825 0.930 . S
H813 C829 0.959 . S
H814 C829 0.959 . S
H815 C829 0.961 . S
H816 C830 0.960 . S
H817 C830 0.961 . S
H818 C830 0.959 . S
H819 C833 0.929 . S
H820 C834 0.931 . S
H821 C836 0.930 . S
C822 H810 0.930 . S
C822 C823 1.399 . S
C822 C827 1.399 . S
C823 C822 1.399 . S
C823 C824 1.376 . S
C824 H811 0.930 . S
C824 C823 1.376 . S
C824 C825 1.388 . S
C825 H812 0.930 . S
C825 C824 1.388 . S
C825 C826 1.390 . S
C826 C825 1.390 . S
C826 C827 1.394 . S
C826 C832 1.465 . S
C827 C822 1.399 . S
C827 C826 1.394 . S
C827 C828 1.516 . S
C828 C827 1.516 . S
C828 C829 1.502 . S
C828 C830 1.561 . S
C828 C831 1.526 1_556 S
C829 H813 0.959 . S
C829 H814 0.959 . S
C829 H815 0.961 . S
C829 C828 1.502 . S
C830 H816 0.960 . S
C830 H817 0.961 . S
C830 H818 0.959 . S
C830 C828 1.561 . S
C831 C828 1.526 1_554 S
C831 C832 1.396 1_554 S
C831 C836 1.390 . S
C832 C826 1.465 . S
C832 C831 1.396 1_556 S
C832 C833 1.399 1_556 S
C833 H819 0.929 . S
C833 C832 1.399 1_554 S
C833 C834 1.385 . S
C834 H820 0.931 . S
C834 C833 1.385 . S
C834 C835 1.389 . S
C835 C834 1.389 . S
C835 C836 1.387 . S
C836 H821 0.930 . S
C836 C831 1.390 . S
C836 C835 1.387 . S
H837 C849 0.930 . S
H838 C851 0.930 . S
H839 C852 0.930 . S
H840 C856 0.959 . S
H841 C856 0.959 . S
H842 C856 0.961 . S
H843 C857 0.960 . S
H844 C857 0.961 . S
H845 C857 0.959 . S
H846 C860 0.929 . S
H847 C861 0.931 . S
H848 C863 0.930 . S
C849 H837 0.930 . S
C849 C850 1.399 . S
C849 C854 1.399 . S
C850 C849 1.399 . S
C850 C851 1.376 . S
C851 H838 0.930 . S
C851 C850 1.376 . S
C851 C852 1.388 . S
C852 H839 0.930 . S
C852 C851 1.388 . S
C852 C853 1.390 . S
C853 C852 1.390 . S
C853 C854 1.394 . S
C853 C859 1.465 . S
C854 C849 1.399 . S
C854 C853 1.394 . S
C854 C855 1.516 . S
C855 C854 1.516 . S
C855 C856 1.502 . S
C855 C857 1.561 . S
C855 C858 1.526 . S
C856 H840 0.959 . S
C856 H841 0.959 . S
C856 H842 0.961 . S
C856 C855 1.502 . S
C857 H843 0.960 . S
C857 H844 0.961 . S
C857 H845 0.959 . S
C857 C855 1.561 . S
C858 C855 1.526 . S
C858 C859 1.396 . S
C858 C863 1.390 . S
C859 C853 1.465 . S
C859 C858 1.396 . S
C859 C860 1.399 . S
C860 H846 0.929 . S
C860 C859 1.399 . S
C860 C861 1.385 . S
C861 H847 0.931 . S
C861 C860 1.385 . S
C861 C862 1.389 . S
C862 C861 1.389 . S
C862 C863 1.387 . S
C863 H848 0.930 . S
C863 C858 1.390 . S
C863 C862 1.387 . S
H864 C876 0.930 . S
H865 C878 0.930 . S
H866 C879 0.930 . S
H867 C883 0.959 . S
H868 C883 0.959 . S
H869 C883 0.961 . S
H870 C884 0.960 . S
H871 C884 0.961 . S
H872 C884 0.959 . S
H873 C887 0.929 . S
H874 C888 0.931 . S
H875 C890 0.930 . S
C876 H864 0.930 . S
C876 C877 1.399 . S
C876 C881 1.399 . S
C877 C876 1.399 . S
C877 C878 1.376 . S
C878 H865 0.930 . S
C878 C877 1.376 . S
C878 C879 1.388 . S
C879 H866 0.930 . S
C879 C878 1.388 . S
C879 C880 1.390 . S
C880 C879 1.390 . S
C880 C881 1.394 . S
C880 C886 1.465 . S
C881 C876 1.399 . S
C881 C880 1.394 . S
C881 C882 1.516 . S
C882 C881 1.516 . S
C882 C883 1.502 . S
C882 C884 1.561 . S
C882 C885 1.526 . S
C883 H867 0.959 . S
C883 H868 0.959 . S
C883 H869 0.961 . S
C883 C882 1.502 . S
C884 H870 0.960 . S
C884 H871 0.961 . S
C884 H872 0.959 . S
C884 C882 1.561 . S
C885 C882 1.526 . S
C885 C886 1.396 . S
C885 C890 1.390 . S
C886 C880 1.465 . S
C886 C885 1.396 . S
C886 C887 1.399 . S
C887 H873 0.929 . S
C887 C886 1.399 . S
C887 C888 1.385 . S
C888 H874 0.931 . S
C888 C887 1.385 . S
C888 C889 1.389 . S
C889 C888 1.389 . S
C889 C890 1.387 . S
C890 H875 0.930 . S
C890 C885 1.390 . S
C890 C889 1.387 . S
H891 C903 0.930 . S
H892 C905 0.930 . S
H893 C906 0.930 . S
H894 C910 0.959 . S
H895 C910 0.959 . S
H896 C910 0.961 . S
H897 C911 0.960 . S
H898 C911 0.961 . S
H899 C911 0.959 . S
H900 C914 0.929 . S
H901 C915 0.931 . S
H902 C917 0.930 . S
C903 H891 0.930 . S
C903 C904 1.399 . S
C903 C908 1.399 . S
C904 C903 1.399 . S
C904 C905 1.376 . S
C905 H892 0.930 . S
C905 C904 1.376 . S
C905 C906 1.388 . S
C906 H893 0.930 . S
C906 C905 1.388 . S
C906 C907 1.390 . S
C907 C906 1.390 . S
C907 C908 1.394 . S
C907 C913 1.465 . S
C908 C903 1.399 . S
C908 C907 1.394 . S
C908 C909 1.516 . S
C909 C908 1.516 . S
C909 C910 1.502 . S
C909 C911 1.561 . S
C909 C912 1.526 . S
C910 H894 0.959 . S
C910 H895 0.959 . S
C910 H896 0.961 . S
C910 C909 1.502 . S
C911 H897 0.960 . S
C911 H898 0.961 . S
C911 H899 0.959 . S
C911 C909 1.561 . S
C912 C909 1.526 . S
C912 C913 1.396 . S
C912 C917 1.390 . S
C913 C907 1.465 . S
C913 C912 1.396 . S
C913 C914 1.399 . S
C914 H900 0.929 . S
C914 C913 1.399 . S
C914 C915 1.385 . S
C915 H901 0.931 . S
C915 C914 1.385 . S
C915 C916 1.389 . S
C916 C915 1.389 . S
C916 C917 1.387 . S
C917 H902 0.930 . S
C917 C912 1.390 . S
C917 C916 1.387 . S
H918 C930 0.930 . S
H919 C932 0.930 . S
H920 C933 0.930 . S
H921 C937 0.959 . S
H922 C937 0.959 . S
H923 C937 0.961 . S
H924 C938 0.960 . S
H925 C938 0.961 . S
H926 C938 0.959 . S
H927 C941 0.929 . S
H928 C942 0.931 . S
H929 C944 0.930 . S
C930 H918 0.930 . S
C930 C931 1.399 . S
C930 C935 1.399 . S
C931 C930 1.399 . S
C931 C932 1.376 . S
C932 H919 0.930 . S
C932 C931 1.376 . S
C932 C933 1.388 . S
C933 H920 0.930 . S
C933 C932 1.388 . S
C933 C934 1.390 . S
C934 C933 1.390 . S
C934 C935 1.394 . S
C934 C940 1.465 . S
C935 C930 1.399 . S
C935 C934 1.394 . S
C935 C936 1.516 . S
C936 C935 1.516 . S
C936 C937 1.502 . S
C936 C938 1.561 . S
C936 C939 1.526 . S
C937 H921 0.959 . S
C937 H922 0.959 . S
C937 H923 0.961 . S
C937 C936 1.502 . S
C938 H924 0.960 . S
C938 H925 0.961 . S
C938 H926 0.959 . S
C938 C936 1.561 . S
C939 C936 1.526 . S
C939 C940 1.396 . S
C939 C944 1.390 . S
C940 C934 1.465 . S
C940 C939 1.396 . S
C940 C941 1.399 . S
C941 H927 0.929 . S
C941 C940 1.399 . S
C941 C942 1.385 . S
C942 H928 0.931 . S
C942 C941 1.385 . S
C942 C943 1.389 . S
C943 C942 1.389 . S
C943 C944 1.387 . S
C944 H929 0.930 . S
C944 C939 1.390 . S
C944 C943 1.387 . S
H945 C957 0.930 . S
H946 C959 0.930 . S
H947 C960 0.930 . S
H948 C964 0.959 . S
H949 C964 0.959 . S
H950 C964 0.961 . S
H951 C965 0.960 . S
H952 C965 0.961 . S
H953 C965 0.959 . S
H954 C968 0.929 . S
H955 C969 0.931 . S
H956 C971 0.930 . S
C957 H945 0.930 . S
C957 C958 1.399 . S
C957 C962 1.399 . S
C958 C957 1.399 . S
C958 C959 1.376 . S
C959 H946 0.930 . S
C959 C958 1.376 . S
C959 C960 1.388 . S
C960 H947 0.930 . S
C960 C959 1.388 . S
C960 C961 1.390 . S
C961 C960 1.390 . S
C961 C962 1.394 . S
C961 C967 1.465 . S
C962 C957 1.399 . S
C962 C961 1.394 . S
C962 C963 1.516 . S
C963 C962 1.516 . S
C963 C964 1.502 . S
C963 C965 1.561 . S
C963 C966 1.526 . S
C964 H948 0.959 . S
C964 H949 0.959 . S
C964 H950 0.961 . S
C964 C963 1.502 . S
C965 H951 0.960 . S
C965 H952 0.961 . S
C965 H953 0.959 . S
C965 C963 1.561 . S
C966 C963 1.526 . S
C966 C967 1.396 . S
C966 C971 1.390 . S
C967 C961 1.465 . S
C967 C966 1.396 . S
C967 C968 1.399 . S
C968 H954 0.929 . S
C968 C967 1.399 . S
C968 C969 1.385 . S
C969 H955 0.931 . S
C969 C968 1.385 . S
C969 C970 1.389 . S
C970 C969 1.389 . S
C970 C971 1.387 . S
C971 H956 0.930 . S
C971 C966 1.390 . S
C971 C970 1.387 . S
H972 C984 0.930 . S
H973 C986 0.930 . S
H974 C987 0.930 . S
H975 C991 0.959 . S
H976 C991 0.959 . S
H977 C991 0.961 . S
H978 C992 0.960 . S
H979 C992 0.961 . S
H980 C992 0.959 . S
H981 C995 0.929 . S
H982 C996 0.931 . S
H983 C998 0.930 . S
C984 H972 0.930 . S
C984 C985 1.399 . S
C984 C989 1.399 . S
C985 C984 1.399 . S
C985 C986 1.376 . S
C986 H973 0.930 . S
C986 C985 1.376 . S
C986 C987 1.388 . S
C987 H974 0.930 . S
C987 C986 1.388 . S
C987 C988 1.390 . S
C988 C987 1.390 . S
C988 C989 1.394 . S
C988 C994 1.465 . S
C989 C984 1.399 . S
C989 C988 1.394 . S
C989 C990 1.516 . S
C990 C989 1.516 . S
C990 C991 1.502 . S
C990 C992 1.561 . S
C990 C993 1.526 . S
C991 H975 0.959 . S
C991 H976 0.959 . S
C991 H977 0.961 . S
C991 C990 1.502 . S
C992 H978 0.960 . S
C992 H979 0.961 . S
C992 H980 0.959 . S
C992 C990 1.561 . S
C993 C990 1.526 . S
C993 C994 1.396 . S
C993 C998 1.390 . S
C994 C988 1.465 . S
C994 C993 1.396 . S
C994 C995 1.399 . S
C995 H981 0.929 . S
C995 C994 1.399 . S
C995 C996 1.385 . S
C996 H982 0.931 . S
C996 C995 1.385 . S
C996 C997 1.389 . S
C997 C996 1.389 . S
C997 C998 1.387 . S
C998 H983 0.930 . S
C998 C993 1.390 . S
C998 C997 1.387 . S
H999 C1011 0.930 . S
H1000 C1013 0.930 . S
H1001 C1014 0.930 . S
H1002 C1018 0.959 . S
H1003 C1018 0.957 1_556 S
H1004 C1018 0.961 . S
H1005 C1019 0.960 . S
H1006 C1019 0.961 1_556 S
H1007 C1019 0.959 . S
H1008 C1022 0.929 . S
H1009 C1023 0.931 . S
H1010 C1025 0.930 . S
C1011 H999 0.930 . S
C1011 C1012 1.399 . S
C1011 C1016 1.399 . S
C1012 C1011 1.399 . S
C1012 C1013 1.376 . S
C1013 H1000 0.930 . S
C1013 C1012 1.376 . S
C1013 C1014 1.388 . S
C1014 H1001 0.930 . S
C1014 C1013 1.388 . S
C1014 C1015 1.390 . S
C1015 C1014 1.390 . S
C1015 C1016 1.394 . S
C1015 C1021 1.465 . S
C1016 C1011 1.399 . S
C1016 C1015 1.394 . S
C1016 C1017 1.516 . S
C1017 C1016 1.516 . S
C1017 C1018 1.502 . S
C1017 C1019 1.561 . S
C1017 C1020 1.526 1_554 S
C1018 H1002 0.959 . S
C1018 H1003 0.957 1_554 S
C1018 H1004 0.961 . S
C1018 C1017 1.502 . S
C1019 H1005 0.960 . S
C1019 H1006 0.961 1_554 S
C1019 H1007 0.959 . S
C1019 C1017 1.561 . S
C1020 C1017 1.526 1_556 S
C1020 C1021 1.396 1_556 S
C1020 C1025 1.390 . S
C1021 C1015 1.465 . S
C1021 C1020 1.396 1_554 S
C1021 C1022 1.399 1_554 S
C1022 H1008 0.929 . S
C1022 C1021 1.399 1_556 S
C1022 C1023 1.385 . S
C1023 H1009 0.931 . S
C1023 C1022 1.385 . S
C1023 C1024 1.389 . S
C1024 C1023 1.389 . S
C1024 C1025 1.387 . S
C1025 H1010 0.930 . S
C1025 C1020 1.390 . S
C1025 C1024 1.387 . S
H1026 C1038 0.930 . S
H1027 C1040 0.930 . S
H1028 C1041 0.930 . S
H1029 C1045 0.959 . S
H1030 C1045 0.959 1_556 S
H1031 C1045 0.961 . S
H1032 C1046 0.960 . S
H1033 C1046 0.961 . S
H1034 C1046 0.959 . S
H1035 C1049 0.929 . S
H1036 C1050 0.931 . S
H1037 C1052 0.930 . S
C1038 H1026 0.930 . S
C1038 C1039 1.399 . S
C1038 C1043 1.399 . S
C1039 C1038 1.399 . S
C1039 C1040 1.376 . S
C1040 H1027 0.930 . S
C1040 C1039 1.376 . S
C1040 C1041 1.388 . S
C1041 H1028 0.930 . S
C1041 C1040 1.388 . S
C1041 C1042 1.390 . S
C1042 C1041 1.390 . S
C1042 C1043 1.394 . S
C1042 C1048 1.465 . S
C1043 C1038 1.399 . S
C1043 C1042 1.394 . S
C1043 C1044 1.516 . S
C1044 C1043 1.516 . S
C1044 C1045 1.502 . S
C1044 C1046 1.561 . S
C1044 C1047 1.526 1_554 S
C1045 H1029 0.959 . S
C1045 H1030 0.959 1_554 S
C1045 H1031 0.961 . S
C1045 C1044 1.502 . S
C1046 H1032 0.960 . S
C1046 H1033 0.961 . S
C1046 H1034 0.959 . S
C1046 C1044 1.561 . S
C1047 C1044 1.526 1_556 S
C1047 C1048 1.396 1_556 S
C1047 C1052 1.390 . S
C1048 C1042 1.465 . S
C1048 C1047 1.396 1_554 S
C1048 C1049 1.399 1_554 S
C1049 H1035 0.929 . S
C1049 C1048 1.399 1_556 S
C1049 C1050 1.385 . S
C1050 H1036 0.931 . S
C1050 C1049 1.385 . S
C1050 C1051 1.389 . S
C1051 C1050 1.389 . S
C1051 C1052 1.387 . S
C1052 H1037 0.930 . S
C1052 C1047 1.390 . S
C1052 C1051 1.387 . S
H1053 C1065 0.930 . S
H1054 C1067 0.930 . S
H1055 C1068 0.930 . S
H1056 C1072 0.959 . S
H1057 C1072 0.959 . S
H1058 C1072 0.961 . S
H1059 C1073 0.960 . S
H1060 C1073 0.961 . S
H1061 C1073 0.959 . S
H1062 C1076 0.929 . S
H1063 C1077 0.931 . S
H1064 C1079 0.930 . S
C1065 H1053 0.930 . S
C1065 C1066 1.399 . S
C1065 C1070 1.399 . S
C1066 C1065 1.399 . S
C1066 C1067 1.376 . S
C1067 H1054 0.930 . S
C1067 C1066 1.376 . S
C1067 C1068 1.388 . S
C1068 H1055 0.930 . S
C1068 C1067 1.388 . S
C1068 C1069 1.390 1_556 S
C1069 C1068 1.390 1_554 S
C1069 C1070 1.394 1_554 S
C1069 C1075 1.465 . S
C1070 C1065 1.399 . S
C1070 C1069 1.394 1_556 S
C1070 C1071 1.516 1_556 S
C1071 C1070 1.516 1_554 S
C1071 C1072 1.502 . S
C1071 C1073 1.561 . S
C1071 C1074 1.526 . S
C1072 H1056 0.959 . S
C1072 H1057 0.959 . S
C1072 H1058 0.961 . S
C1072 C1071 1.502 . S
C1073 H1059 0.960 . S
C1073 H1060 0.961 . S
C1073 H1061 0.959 . S
C1073 C1071 1.561 . S
C1074 C1071 1.526 . S
C1074 C1075 1.396 . S
C1074 C1079 1.390 . S
C1075 C1069 1.465 . S
C1075 C1074 1.396 . S
C1075 C1076 1.399 . S
C1076 H1062 0.929 . S
C1076 C1075 1.399 . S
C1076 C1077 1.385 . S
C1077 H1063 0.931 . S
C1077 C1076 1.385 . S
C1077 C1078 1.389 . S
C1078 C1077 1.389 . S
C1078 C1079 1.387 . S
C1079 H1064 0.930 . S
C1079 C1074 1.390 . S
C1079 C1078 1.387 . S
H1080 C1092 0.930 . S
H1081 C1094 0.930 . S
H1082 C1095 0.930 . S
H1083 C1099 0.959 . S
H1084 C1099 0.959 . S
H1085 C1099 0.961 . S
H1086 C1100 0.960 . S
H1087 C1100 0.961 . S
H1088 C1100 0.959 . S
H1089 C1103 0.929 . S
H1090 C1104 0.931 . S
H1091 C1106 0.930 . S
C1092 H1080 0.930 . S
C1092 C1093 1.399 . S
C1092 C1097 1.399 . S
C1093 C1092 1.399 . S
C1093 C1094 1.376 . S
C1094 H1081 0.930 . S
C1094 C1093 1.376 . S
C1094 C1095 1.388 . S
C1095 H1082 0.930 . S
C1095 C1094 1.388 . S
C1095 C1096 1.390 . S
C1096 C1095 1.390 . S
C1096 C1097 1.394 . S
C1096 C1102 1.465 . S
C1097 C1092 1.399 . S
C1097 C1096 1.394 . S
C1097 C1098 1.516 . S
C1098 C1097 1.516 . S
C1098 C1099 1.502 . S
C1098 C1100 1.561 . S
C1098 C1101 1.526 . S
C1099 H1083 0.959 . S
C1099 H1084 0.959 . S
C1099 H1085 0.961 . S
C1099 C1098 1.502 . S
C1100 H1086 0.960 . S
C1100 H1087 0.961 . S
C1100 H1088 0.959 . S
C1100 C1098 1.561 . S
C1101 C1098 1.526 . S
C1101 C1102 1.396 . S
C1101 C1106 1.390 . S
C1102 C1096 1.465 . S
C1102 C1101 1.396 . S
C1102 C1103 1.399 . S
C1103 H1089 0.929 . S
C1103 C1102 1.399 . S
C1103 C1104 1.385 . S
C1104 H1090 0.931 . S
C1104 C1103 1.385 . S
C1104 C1105 1.389 . S
C1105 C1104 1.389 . S
C1105 C1106 1.387 . S
C1106 H1091 0.930 . S
C1106 C1101 1.390 . S
C1106 C1105 1.387 . S
H1107 C1119 0.930 . S
H1108 C1121 0.930 . S
H1109 C1122 0.930 . S
H1110 C1126 0.959 . S
H1111 C1126 0.959 . S
H1112 C1126 0.961 . S
H1113 C1127 0.960 . S
H1114 C1127 0.961 . S
H1115 C1127 0.959 . S
H1116 C1130 0.929 . S
H1117 C1131 0.931 . S
H1118 C1133 0.930 . S
C1119 H1107 0.930 . S
C1119 C1120 1.399 . S
C1119 C1124 1.399 . S
C1120 C1119 1.399 . S
C1120 C1121 1.376 . S
C1121 H1108 0.930 . S
C1121 C1120 1.376 . S
C1121 C1122 1.388 . S
C1122 H1109 0.930 . S
C1122 C1121 1.388 . S
C1122 C1123 1.390 . S
C1123 C1122 1.390 . S
C1123 C1124 1.394 . S
C1123 C1129 1.465 . S
C1124 C1119 1.399 . S
C1124 C1123 1.394 . S
C1124 C1125 1.516 . S
C1125 C1124 1.516 . S
C1125 C1126 1.502 . S
C1125 C1127 1.561 . S
C1125 C1128 1.526 . S
C1126 H1110 0.959 . S
C1126 H1111 0.959 . S
C1126 H1112 0.961 . S
C1126 C1125 1.502 . S
C1127 H1113 0.960 . S
C1127 H1114 0.961 . S
C1127 H1115 0.959 . S
C1127 C1125 1.561 . S
C1128 C1125 1.526 . S
C1128 C1129 1.396 . S
C1128 C1133 1.390 . S
C1129 C1123 1.465 . S
C1129 C1128 1.396 . S
C1129 C1130 1.399 . S
C1130 H1116 0.929 . S
C1130 C1129 1.399 . S
C1130 C1131 1.385 . S
C1131 H1117 0.931 . S
C1131 C1130 1.385 . S
C1131 C1132 1.389 . S
C1132 C1131 1.389 . S
C1132 C1133 1.387 . S
C1133 H1118 0.930 . S
C1133 C1128 1.390 . S
C1133 C1132 1.387 . S
H1134 C1146 0.930 . S
H1135 C1148 0.930 . S
H1136 C1149 0.930 . S
H1137 C1153 0.959 . S
H1138 C1153 0.959 . S
H1139 C1153 0.961 . S
H1140 C1154 0.960 . S
H1141 C1154 0.961 . S
H1142 C1154 0.959 . S
H1143 C1157 0.929 . S
H1144 C1158 0.931 . S
H1145 C1160 0.930 . S
C1146 H1134 0.930 . S
C1146 C1147 1.399 . S
C1146 C1151 1.399 . S
C1147 C1146 1.399 . S
C1147 C1148 1.376 . S
C1148 H1135 0.930 . S
C1148 C1147 1.376 . S
C1148 C1149 1.388 . S
C1149 H1136 0.930 . S
C1149 C1148 1.388 . S
C1149 C1150 1.390 . S
C1150 C1149 1.390 . S
C1150 C1151 1.394 . S
C1150 C1156 1.465 . S
C1151 C1146 1.399 . S
C1151 C1150 1.394 . S
C1151 C1152 1.516 . S
C1152 C1151 1.516 . S
C1152 C1153 1.502 . S
C1152 C1154 1.561 . S
C1152 C1155 1.526 . S
C1153 H1137 0.959 . S
C1153 H1138 0.959 . S
C1153 H1139 0.961 . S
C1153 C1152 1.502 . S
C1154 H1140 0.960 . S
C1154 H1141 0.961 . S
C1154 H1142 0.959 . S
C1154 C1152 1.561 . S
C1155 C1152 1.526 . S
C1155 C1156 1.396 . S
C1155 C1160 1.390 . S
C1156 C1150 1.465 . S
C1156 C1155 1.396 . S
C1156 C1157 1.399 . S
C1157 H1143 0.929 . S
C1157 C1156 1.399 . S
C1157 C1158 1.385 . S
C1158 H1144 0.931 . S
C1158 C1157 1.385 . S
C1158 C1159 1.389 . S
C1159 C1158 1.389 . S
C1159 C1160 1.387 . S
C1160 H1145 0.930 . S
C1160 C1155 1.390 . S
C1160 C1159 1.387 . S
H1161 C1173 0.930 . S
H1162 C1175 0.930 . S
H1163 C1176 0.930 . S
H1164 C1180 0.959 . S
H1165 C1180 0.959 . S
H1166 C1180 0.961 . S
H1167 C1181 0.960 . S
H1168 C1181 0.961 . S
H1169 C1181 0.959 . S
H1170 C1184 0.929 . S
H1171 C1185 0.931 . S
H1172 C1187 0.930 . S
C1173 H1161 0.930 . S
C1173 C1174 1.399 . S
C1173 C1178 1.399 . S
C1174 C1173 1.399 . S
C1174 C1175 1.376 . S
C1175 H1162 0.930 . S
C1175 C1174 1.376 . S
C1175 C1176 1.388 . S
C1176 H1163 0.930 . S
C1176 C1175 1.388 . S
C1176 C1177 1.390 . S
C1177 C1176 1.390 . S
C1177 C1178 1.394 . S
C1177 C1183 1.465 . S
C1178 C1173 1.399 . S
C1178 C1177 1.394 . S
C1178 C1179 1.516 . S
C1179 C1178 1.516 . S
C1179 C1180 1.502 . S
C1179 C1181 1.561 . S
C1179 C1182 1.526 . S
C1180 H1164 0.959 . S
C1180 H1165 0.959 . S
C1180 H1166 0.961 . S
C1180 C1179 1.502 . S
C1181 H1167 0.960 . S
C1181 H1168 0.961 . S
C1181 H1169 0.959 . S
C1181 C1179 1.561 . S
C1182 C1179 1.526 . S
C1182 C1183 1.396 . S
C1182 C1187 1.390 . S
C1183 C1177 1.465 . S
C1183 C1182 1.396 . S
C1183 C1184 1.399 . S
C1184 H1170 0.929 . S
C1184 C1183 1.399 . S
C1184 C1185 1.385 . S
C1185 H1171 0.931 . S
C1185 C1184 1.385 . S
C1185 C1186 1.389 . S
C1186 C1185 1.389 . S
C1186 C1187 1.387 . S
C1187 H1172 0.930 . S
C1187 C1182 1.390 . S
C1187 C1186 1.387 . S
H1188 C1200 0.930 . S
H1189 C1202 0.930 . S
H1190 C1203 0.930 . S
H1191 C1207 0.959 . S
H1192 C1207 0.959 . S
H1193 C1207 0.961 . S
H1194 C1208 0.960 . S
H1195 C1208 0.961 . S
H1196 C1208 0.959 . S
H1197 C1211 0.929 . S
H1198 C1212 0.931 . S
H1199 C1214 0.930 . S
C1200 H1188 0.930 . S
C1200 C1201 1.399 . S
C1200 C1205 1.399 . S
C1201 C1200 1.399 . S
C1201 C1202 1.376 . S
C1202 H1189 0.930 . S
C1202 C1201 1.376 . S
C1202 C1203 1.388 . S
C1203 H1190 0.930 . S
C1203 C1202 1.388 . S
C1203 C1204 1.390 . S
C1204 C1203 1.390 . S
C1204 C1205 1.394 . S
C1204 C1210 1.465 . S
C1205 C1200 1.399 . S
C1205 C1204 1.394 . S
C1205 C1206 1.516 . S
C1206 C1205 1.516 . S
C1206 C1207 1.502 . S
C1206 C1208 1.561 . S
C1206 C1209 1.526 . S
C1207 H1191 0.959 . S
C1207 H1192 0.959 . S
C1207 H1193 0.961 . S
C1207 C1206 1.502 . S
C1208 H1194 0.960 . S
C1208 H1195 0.961 . S
C1208 H1196 0.959 . S
C1208 C1206 1.561 . S
C1209 C1206 1.526 . S
C1209 C1210 1.396 . S
C1209 C1214 1.390 . S
C1210 C1204 1.465 . S
C1210 C1209 1.396 . S
C1210 C1211 1.399 . S
C1211 H1197 0.929 . S
C1211 C1210 1.399 . S
C1211 C1212 1.385 . S
C1212 H1198 0.931 . S
C1212 C1211 1.385 . S
C1212 C1213 1.389 . S
C1213 C1212 1.389 . S
C1213 C1214 1.387 . S
C1214 H1199 0.930 . S
C1214 C1209 1.390 . S
C1214 C1213 1.387 . S
H1215 C1227 0.930 . S
H1216 C1229 0.930 . S
H1217 C1230 0.930 . S
H1218 C1234 0.959 . S
H1219 C1234 0.959 . S
H1220 C1234 0.961 . S
H1221 C1235 0.960 . S
H1222 C1235 0.961 . S
H1223 C1235 0.959 . S
H1224 C1238 0.929 . S
H1225 C1239 0.931 . S
H1226 C1241 0.930 . S
C1227 H1215 0.930 . S
C1227 C1228 1.399 . S
C1227 C1232 1.399 . S
C1228 C1227 1.399 . S
C1228 C1229 1.376 . S
C1229 H1216 0.930 . S
C1229 C1228 1.376 . S
C1229 C1230 1.388 . S
C1230 H1217 0.930 . S
C1230 C1229 1.388 . S
C1230 C1231 1.390 . S
C1231 C1230 1.390 . S
C1231 C1232 1.394 . S
C1231 C1237 1.465 . S
C1232 C1227 1.399 . S
C1232 C1231 1.394 . S
C1232 C1233 1.516 . S
C1233 C1232 1.516 . S
C1233 C1234 1.502 . S
C1233 C1235 1.561 . S
C1233 C1236 1.526 . S
C1234 H1218 0.959 . S
C1234 H1219 0.959 . S
C1234 H1220 0.961 . S
C1234 C1233 1.502 . S
C1235 H1221 0.960 . S
C1235 H1222 0.961 . S
C1235 H1223 0.959 . S
C1235 C1233 1.561 . S
C1236 C1233 1.526 . S
C1236 C1237 1.396 . S
C1236 C1241 1.390 . S
C1237 C1231 1.465 . S
C1237 C1236 1.396 . S
C1237 C1238 1.399 . S
C1238 H1224 0.929 . S
C1238 C1237 1.399 . S
C1238 C1239 1.385 . S
C1239 H1225 0.931 . S
C1239 C1238 1.385 . S
C1239 C1240 1.389 . S
C1240 C1239 1.389 . S
C1240 C1241 1.387 . S
C1241 H1226 0.930 . S
C1241 C1236 1.390 . S
C1241 C1240 1.387 . S
H1242 C1254 0.930 . S
H1243 C1256 0.930 . S
H1244 C1257 0.930 . S
H1245 C1261 0.959 . S
H1246 C1261 0.959 . S
H1247 C1261 0.961 . S
H1248 C1262 0.960 . S
H1249 C1262 0.961 . S
H1250 C1262 0.959 . S
H1251 C1265 0.929 1_655 S
H1252 C1266 0.931 . S
H1253 C1268 0.930 . S
C1254 H1242 0.930 . S
C1254 C1255 1.399 . S
C1254 C1259 1.399 . S
C1255 C1254 1.399 . S
C1255 C1256 1.376 . S
C1256 H1243 0.930 . S
C1256 C1255 1.376 . S
C1256 C1257 1.388 1_554 S
C1257 H1244 0.930 . S
C1257 C1256 1.388 1_556 S
C1257 C1258 1.390 1_556 S
C1258 C1257 1.390 1_554 S
C1258 C1259 1.394 . S
C1258 C1264 1.465 1_654 S
C1259 C1254 1.399 . S
C1259 C1258 1.394 . S
C1259 C1260 1.516 1_655 S
C1260 C1259 1.516 1_455 S
C1260 C1261 1.502 . S
C1260 C1262 1.561 . S
C1260 C1263 1.526 1_554 S
C1261 H1245 0.959 . S
C1261 H1246 0.959 . S
C1261 H1247 0.961 . S
C1261 C1260 1.502 . S
C1262 H1248 0.960 . S
C1262 H1249 0.961 . S
C1262 H1250 0.959 . S
C1262 C1260 1.561 . S
C1263 C1260 1.526 1_556 S
C1263 C1264 1.396 . S
C1263 C1268 1.390 . S
C1264 C1258 1.465 1_456 S
C1264 C1263 1.396 . S
C1264 C1265 1.399 . S
C1265 H1251 0.929 1_455 S
C1265 C1264 1.399 . S
C1265 C1266 1.385 . S
C1266 H1252 0.931 . S
C1266 C1265 1.385 . S
C1266 C1267 1.389 . S
C1267 C1266 1.389 . S
C1267 C1268 1.387 . S
C1268 H1253 0.930 . S
C1268 C1263 1.390 . S
C1268 C1267 1.387 . S
H1269 C1281 0.930 . S
H1270 C1283 0.930 . S
H1271 C1284 0.930 . S
H1272 C1288 0.959 . S
H1273 C1288 0.959 . S
H1274 C1288 0.961 1_556 S
H1275 C1289 0.960 . S
H1276 C1289 0.961 . S
H1277 C1289 0.959 . S
H1278 C1292 0.929 . S
H1279 C1293 0.931 . S
H1280 C1295 0.930 . S
C1281 H1269 0.930 . S
C1281 C1282 1.399 . S
C1281 C1286 1.399 . S
C1282 C1281 1.399 . S
C1282 C1283 1.376 . S
C1283 H1270 0.930 . S
C1283 C1282 1.376 . S
C1283 C1284 1.388 . S
C1284 H1271 0.930 . S
C1284 C1283 1.388 . S
C1284 C1285 1.390 . S
C1285 C1284 1.390 . S
C1285 C1286 1.394 . S
C1285 C1291 1.465 1_556 S
C1286 C1281 1.399 . S
C1286 C1285 1.394 . S
C1286 C1287 1.516 . S
C1287 C1286 1.516 . S
C1287 C1288 1.502 1_556 S
C1287 C1289 1.561 . S
C1287 C1290 1.526 1_556 S
C1288 H1272 0.959 . S
C1288 H1273 0.959 . S
C1288 H1274 0.961 1_554 S
C1288 C1287 1.502 1_554 S
C1289 H1275 0.960 . S
C1289 H1276 0.961 . S
C1289 H1277 0.959 . S
C1289 C1287 1.561 . S
C1290 C1287 1.526 1_554 S
C1290 C1291 1.396 . S
C1290 C1295 1.390 . S
C1291 C1285 1.465 1_554 S
C1291 C1290 1.396 . S
C1291 C1292 1.399 . S
C1292 H1278 0.929 . S
C1292 C1291 1.399 . S
C1292 C1293 1.385 . S
C1293 H1279 0.931 . S
C1293 C1292 1.385 . S
C1293 C1294 1.389 . S
C1294 C1293 1.389 . S
C1294 C1295 1.387 . S
C1295 H1280 0.930 . S
C1295 C1290 1.390 . S
C1295 C1294 1.387 . S
H1296 C1308 0.930 . S
H1297 C1310 0.930 . S
H1298 C1311 0.930 . S
H1299 C1315 0.959 . S
H1300 C1315 0.959 . S
H1301 C1315 0.961 . S
H1302 C1316 0.960 . S
H1303 C1316 0.961 . S
H1304 C1316 0.959 . S
H1305 C1319 0.929 1_545 S
H1306 C1320 0.931 . S
H1307 C1322 0.930 . S
C1308 H1296 0.930 . S
C1308 C1309 1.399 . S
C1308 C1313 1.399 . S
C1309 C1308 1.399 . S
C1309 C1310 1.376 . S
C1310 H1297 0.930 . S
C1310 C1309 1.376 . S
C1310 C1311 1.388 1_554 S
C1311 H1298 0.930 . S
C1311 C1310 1.388 1_556 S
C1311 C1312 1.390 . S
C1312 C1311 1.390 . S
C1312 C1313 1.394 1_556 S
C1312 C1318 1.465 1_545 S
C1313 C1308 1.399 . S
C1313 C1312 1.394 1_554 S
C1313 C1314 1.516 1_545 S
C1314 C1313 1.516 1_565 S
C1314 C1315 1.502 . S
C1314 C1316 1.561 . S
C1314 C1317 1.526 1_554 S
C1315 H1299 0.959 . S
C1315 H1300 0.959 . S
C1315 H1301 0.961 . S
C1315 C1314 1.502 . S
C1316 H1302 0.960 . S
C1316 H1303 0.961 . S
C1316 H1304 0.959 . S
C1316 C1314 1.561 . S
C1317 C1314 1.526 1_556 S
C1317 C1318 1.396 . S
C1317 C1322 1.390 . S
C1318 C1312 1.465 1_565 S
C1318 C1317 1.396 . S
C1318 C1319 1.399 . S
C1319 H1305 0.929 1_565 S
C1319 C1318 1.399 . S
C1319 C1320 1.385 . S
C1320 H1306 0.931 . S
C1320 C1319 1.385 . S
C1320 C1321 1.389 . S
C1321 C1320 1.389 . S
C1321 C1322 1.387 . S
C1322 H1307 0.930 . S
C1322 C1317 1.390 . S
C1322 C1321 1.387 . S
H1323 C1335 0.930 . S
H1324 C1337 0.930 . S
H1325 C1338 0.930 . S
H1326 C1342 0.959 . S
H1327 C1342 0.959 . S
H1328 C1342 0.961 . S
H1329 C1343 0.960 . S
H1330 C1343 0.961 . S
H1331 C1343 0.959 . S
H1332 C1346 0.929 . S
H1333 C1347 0.931 . S
H1334 C1349 0.930 1_554 S
C1335 H1323 0.930 . S
C1335 C1336 1.399 . S
C1335 C1340 1.399 . S
C1336 C1335 1.399 . S
C1336 C1337 1.376 1_554 S
C1337 H1324 0.930 . S
C1337 C1336 1.376 1_556 S
C1337 C1338 1.388 . S
C1338 H1325 0.930 . S
C1338 C1337 1.388 . S
C1338 C1339 1.390 . S
C1339 C1338 1.390 . S
C1339 C1340 1.394 1_556 S
C1339 C1345 1.465 . S
C1340 C1335 1.399 . S
C1340 C1339 1.394 1_554 S
C1340 C1341 1.516 . S
C1341 C1340 1.516 . S
C1341 C1342 1.502 . S
C1341 C1343 1.561 . S
C1341 C1344 1.526 . S
C1342 H1326 0.959 . S
C1342 H1327 0.959 . S
C1342 H1328 0.961 . S
C1342 C1341 1.502 . S
C1343 H1329 0.960 . S
C1343 H1330 0.961 . S
C1343 H1331 0.959 . S
C1343 C1341 1.561 . S
C1344 C1341 1.526 . S
C1344 C1345 1.396 1_554 S
C1344 C1349 1.390 1_554 S
C1345 C1339 1.465 . S
C1345 C1344 1.396 1_556 S
C1345 C1346 1.399 . S
C1346 H1332 0.929 . S
C1346 C1345 1.399 . S
C1346 C1347 1.385 . S
C1347 H1333 0.931 . S
C1347 C1346 1.385 . S
C1347 C1348 1.389 . S
C1348 C1347 1.389 . S
C1348 C1349 1.387 . S
C1349 H1334 0.930 1_556 S
C1349 C1344 1.390 1_556 S
C1349 C1348 1.387 . S
H1350 C1362 0.930 . S
H1351 C1364 0.930 . S
H1352 C1365 0.930 . S
H1353 C1369 0.959 . S
H1354 C1369 0.959 1_545 S
H1355 C1369 0.961 . S
H1356 C1370 0.960 . S
H1357 C1370 0.961 . S
H1358 C1370 0.959 . S
H1359 C1373 0.929 . S
H1360 C1374 0.931 . S
H1361 C1376 0.930 . S
C1362 H1350 0.930 . S
C1362 C1363 1.399 1_556 S
C1362 C1367 1.399 . S
C1363 C1362 1.399 1_554 S
C1363 C1364 1.376 . S
C1364 H1351 0.930 . S
C1364 C1363 1.376 . S
C1364 C1365 1.388 . S
C1365 H1352 0.930 . S
C1365 C1364 1.388 . S
C1365 C1366 1.390 . S
C1366 C1365 1.390 . S
C1366 C1367 1.394 1_554 S
C1366 C1372 1.465 1_565 S
C1367 C1362 1.399 . S
C1367 C1366 1.394 1_556 S
C1367 C1368 1.516 . S
C1368 C1367 1.516 . S
C1368 C1369 1.502 . S
C1368 C1370 1.561 . S
C1368 C1371 1.526 1_565 S
C1369 H1353 0.959 . S
C1369 H1354 0.959 1_565 S
C1369 H1355 0.961 . S
C1369 C1368 1.502 . S
C1370 H1356 0.960 . S
C1370 H1357 0.961 . S
C1370 H1358 0.959 . S
C1370 C1368 1.561 . S
C1371 C1368 1.526 1_545 S
C1371 C1372 1.396 1_556 S
C1371 C1376 1.390 . S
C1372 C1366 1.465 1_545 S
C1372 C1371 1.396 1_554 S
C1372 C1373 1.399 . S
C1373 H1359 0.929 . S
C1373 C1372 1.399 . S
C1373 C1374 1.385 . S
C1374 H1360 0.931 . S
C1374 C1373 1.385 . S
C1374 C1375 1.389 1_554 S
C1375 C1374 1.389 1_556 S
C1375 C1376 1.387 . S
C1376 H1361 0.930 . S
C1376 C1371 1.390 . S
C1376 C1375 1.387 . S
H1377 C1389 0.930 . S
H1378 C1391 0.930 . S
H1379 C1392 0.930 . S
H1380 C1396 0.959 . S
H1381 C1396 0.959 . S
H1382 C1396 0.961 . S
H1383 C1397 0.963 1_655 S
H1384 C1397 0.961 . S
H1385 C1397 0.959 . S
H1386 C1400 0.929 . S
H1387 C1401 0.931 . S
H1388 C1403 0.930 . S
C1389 H1377 0.930 . S
C1389 C1390 1.399 . S
C1389 C1394 1.399 . S
C1390 C1389 1.399 . S
C1390 C1391 1.376 1_556 S
C1391 H1378 0.930 . S
C1391 C1390 1.376 1_554 S
C1391 C1392 1.388 . S
C1392 H1379 0.930 . S
C1392 C1391 1.388 . S
C1392 C1393 1.390 . S
C1393 C1392 1.390 . S
C1393 C1394 1.394 1_554 S
C1393 C1399 1.465 1_655 S
C1394 C1389 1.399 . S
C1394 C1393 1.394 1_556 S
C1394 C1395 1.516 1_655 S
C1395 C1394 1.516 1_455 S
C1395 C1396 1.502 . S
C1395 C1397 1.561 . S
C1395 C1398 1.526 . S
C1396 H1380 0.959 . S
C1396 H1381 0.959 . S
C1396 H1382 0.961 . S
C1396 C1395 1.502 . S
C1397 H1383 0.963 1_455 S
C1397 H1384 0.961 . S
C1397 H1385 0.959 . S
C1397 C1395 1.561 . S
C1398 C1395 1.526 . S
C1398 C1399 1.396 1_556 S
C1398 C1403 1.390 . S
C1399 C1393 1.465 1_455 S
C1399 C1398 1.396 1_554 S
C1399 C1400 1.399 . S
C1400 H1386 0.929 . S
C1400 C1399 1.399 . S
C1400 C1401 1.385 . S
C1401 H1387 0.931 . S
C1401 C1400 1.385 . S
C1401 C1402 1.389 . S
C1402 C1401 1.389 . S
C1402 C1403 1.387 1_554 S
C1403 H1388 0.930 . S
C1403 C1398 1.390 . S
C1403 C1402 1.387 1_556 S
H1404 C1416 0.930 1_554 S
H1405 C1418 0.930 . S
H1406 C1419 0.930 . S
H1407 C1423 0.959 . S
H1408 C1423 0.959 . S
H1409 C1423 0.961 . S
H1410 C1424 0.960 . S
H1411 C1424 0.961 . S
H1412 C1424 0.959 1_556 S
H1413 C1427 0.929 . S
H1414 C1428 0.931 . S
H1415 C1430 0.930 . S
C1416 H1404 0.930 1_556 S
C1416 C1417 1.399 . S
C1416 C1421 1.400 . S
C1417 C1416 1.399 . S
C1417 C1418 1.376 . S
C1418 H1405 0.930 . S
C1418 C1417 1.376 . S
C1418 C1419 1.388 . S
C1419 H1406 0.930 . S
C1419 C1418 1.388 . S
C1419 C1420 1.390 . S
C1420 C1419 1.390 . S
C1420 C1421 1.399 . S
C1420 C1426 1.465 . S
C1421 C1416 1.400 . S
C1421 C1420 1.399 . S
C1421 C1422 1.510 1_556 S
C1422 C1421 1.510 1_554 S
C1422 C1423 1.502 . S
C1422 C1424 1.561 . S
C1422 C1425 1.526 . S
C1423 H1407 0.959 . S
C1423 H1408 0.959 . S
C1423 H1409 0.961 . S
C1423 C1422 1.502 . S
C1424 H1410 0.960 . S
C1424 H1411 0.961 . S
C1424 H1412 0.959 1_554 S
C1424 C1422 1.561 . S
C1425 C1422 1.526 . S
C1425 C1426 1.396 1_554 S
C1425 C1430 1.390 . S
C1426 C1420 1.465 . S
C1426 C1425 1.396 1_556 S
C1426 C1427 1.399 . S
C1427 H1413 0.929 . S
C1427 C1426 1.399 . S
C1427 C1428 1.385 . S
C1428 H1414 0.931 . S
C1428 C1427 1.385 . S
C1428 C1429 1.389 1_556 S
C1429 C1428 1.389 1_554 S
C1429 C1430 1.387 . S
C1430 H1415 0.930 . S
C1430 C1425 1.390 . S
C1430 C1429 1.387 . S
H1431 C1443 0.930 . S
H1432 C1445 0.930 . S
H1433 C1446 0.930 . S
H1434 C1450 0.959 . S
H1435 C1450 0.959 . S
H1436 C1450 0.967 . S
H1437 C1451 0.960 . S
H1438 C1451 0.961 . S
H1439 C1451 0.959 . S
H1440 C1454 0.929 . S
H1441 C1455 0.931 . S
H1442 C1457 0.934 . S
C1443 H1431 0.930 . S
C1443 C1444 1.399 . S
C1443 C1448 1.399 . S
C1444 C1443 1.399 . S
C1444 C1445 1.376 1_556 S
C1445 H1432 0.930 . S
C1445 C1444 1.376 1_554 S
C1445 C1446 1.388 . S
C1446 H1433 0.930 . S
C1446 C1445 1.388 . S
C1446 C1447 1.390 . S
C1447 C1446 1.390 . S
C1447 C1448 1.394 1_554 S
C1447 C1453 1.465 1_545 S
C1448 C1443 1.399 . S
C1448 C1447 1.394 1_556 S
C1448 C1449 1.516 1_545 S
C1449 C1448 1.516 1_565 S
C1449 C1450 1.502 . S
C1449 C1451 1.561 . S
C1449 C1452 1.526 . S
C1450 H1434 0.959 . S
C1450 H1435 0.959 . S
C1450 H1436 0.967 . S
C1450 C1449 1.502 . S
C1451 H1437 0.960 . S
C1451 H1438 0.961 . S
C1451 H1439 0.959 . S
C1451 C1449 1.561 . S
C1452 C1449 1.526 . S
C1452 C1453 1.396 1_556 S
C1452 C1457 1.390 . S
C1453 C1447 1.465 1_565 S
C1453 C1452 1.396 1_554 S
C1453 C1454 1.399 . S
C1454 H1440 0.929 . S
C1454 C1453 1.399 . S
C1454 C1455 1.385 . S
C1455 H1441 0.931 . S
C1455 C1454 1.385 . S
C1455 C1456 1.389 . S
C1456 C1455 1.389 . S
C1456 C1457 1.382 1_554 S
C1457 H1442 0.934 . S
C1457 C1452 1.390 . S
C1457 C1456 1.382 1_556 S
H1458 C1470 0.930 . S
H1459 C1472 0.930 . S
H1460 C1473 0.930 . S
H1461 C1477 0.959 . S
H1462 C1477 0.959 . S
H1463 C1477 0.961 . S
H1464 C1478 0.960 1_655 S
H1465 C1478 0.961 . S
H1466 C1478 0.975 1_554 S
H1467 C1481 0.929 . S
H1468 C1482 0.931 . S
H1469 C1484 0.930 1_556 S
C1470 H1458 0.930 . S
C1470 C1471 1.399 . S
C1470 C1475 1.399 . S
C1471 C1470 1.399 . S
C1471 C1472 1.376 1_556 S
C1472 H1459 0.930 . S
C1472 C1471 1.376 1_554 S
C1472 C1473 1.388 . S
C1473 H1460 0.930 . S
C1473 C1472 1.388 . S
C1473 C1474 1.390 . S
C1474 C1473 1.390 . S
C1474 C1475 1.394 1_554 S
C1474 C1480 1.465 1_655 S
C1475 C1470 1.399 . S
C1475 C1474 1.394 1_556 S
C1475 C1476 1.516 1_655 S
C1476 C1475 1.516 1_455 S
C1476 C1477 1.502 . S
C1476 C1478 1.561 . S
C1476 C1479 1.526 . S
C1477 H1461 0.959 . S
C1477 H1462 0.959 . S
C1477 H1463 0.961 . S
C1477 C1476 1.502 . S
C1478 H1464 0.960 1_455 S
C1478 H1465 0.961 . S
C1478 H1466 0.975 1_556 S
C1478 C1476 1.561 . S
C1479 C1476 1.526 . S
C1479 C1480 1.396 1_556 S
C1479 C1484 1.390 1_556 S
C1480 C1474 1.465 1_455 S
C1480 C1479 1.396 1_554 S
C1480 C1481 1.399 . S
C1481 H1467 0.929 . S
C1481 C1480 1.399 . S
C1481 C1482 1.385 . S
C1482 H1468 0.931 . S
C1482 C1481 1.385 . S
C1482 C1483 1.389 . S
C1483 C1482 1.389 . S
C1483 C1484 1.387 . S
C1484 H1469 0.930 1_554 S
C1484 C1479 1.390 1_554 S
C1484 C1483 1.387 . S
H1485 C1497 0.930 . S
H1486 C1499 0.930 . S
H1487 C1500 0.930 . S
H1488 C1504 0.959 . S
H1489 C1504 0.959 . S
H1490 C1504 0.961 . S
H1491 C1505 0.960 . S
H1492 C1505 0.961 . S
H1493 C1505 0.959 . S
H1494 C1508 0.929 . S
H1495 C1509 0.931 . S
H1496 C1511 0.930 . S
C1497 H1485 0.930 . S
C1497 C1498 1.399 . S
C1497 C1502 1.399 . S
C1498 C1497 1.399 . S
C1498 C1499 1.376 . S
C1499 H1486 0.930 . S
C1499 C1498 1.376 . S
C1499 C1500 1.388 . S
C1500 H1487 0.930 . S
C1500 C1499 1.388 . S
C1500 C1501 1.390 . S
C1501 C1500 1.390 . S
C1501 C1502 1.394 . S
C1501 C1507 1.465 . S
C1502 C1497 1.399 . S
C1502 C1501 1.394 . S
C1502 C1503 1.516 . S
C1503 C1502 1.516 . S
C1503 C1504 1.502 . S
C1503 C1505 1.561 . S
C1503 C1506 1.526 . S
C1504 H1488 0.959 . S
C1504 H1489 0.959 . S
C1504 H1490 0.961 . S
C1504 C1503 1.502 . S
C1505 H1491 0.960 . S
C1505 H1492 0.961 . S
C1505 H1493 0.959 . S
C1505 C1503 1.561 . S
C1506 C1503 1.526 . S
C1506 C1507 1.396 . S
C1506 C1511 1.390 . S
C1507 C1501 1.465 . S
C1507 C1506 1.396 . S
C1507 C1508 1.399 . S
C1508 H1494 0.929 . S
C1508 C1507 1.399 . S
C1508 C1509 1.385 . S
C1509 H1495 0.931 . S
C1509 C1508 1.385 . S
C1509 C1510 1.389 . S
C1510 C1509 1.389 . S
C1510 C1511 1.387 . S
C1511 H1496 0.930 . S
C1511 C1506 1.390 . S
C1511 C1510 1.387 . S
H1512 C1524 0.930 . S
H1513 C1526 0.930 . S
H1514 C1527 0.930 . S
H1515 C1531 0.959 . S
H1516 C1531 0.959 . S
H1517 C1531 0.961 . S
H1518 C1532 0.960 . S
H1519 C1532 0.961 . S
H1520 C1532 0.959 . S
H1521 C1535 0.929 . S
H1522 C1536 0.931 . S
H1523 C1538 0.930 . S
C1524 H1512 0.930 . S
C1524 C1525 1.399 . S
C1524 C1529 1.399 . S
C1525 C1524 1.399 . S
C1525 C1526 1.376 . S
C1526 H1513 0.930 . S
C1526 C1525 1.376 . S
C1526 C1527 1.388 . S
C1527 H1514 0.930 . S
C1527 C1526 1.388 . S
C1527 C1528 1.390 . S
C1528 C1527 1.390 . S
C1528 C1529 1.394 . S
C1528 C1534 1.465 . S
C1529 C1524 1.399 . S
C1529 C1528 1.394 . S
C1529 C1530 1.516 . S
C1530 C1529 1.516 . S
C1530 C1531 1.502 . S
C1530 C1532 1.561 . S
C1530 C1533 1.526 . S
C1531 H1515 0.959 . S
C1531 H1516 0.959 . S
C1531 H1517 0.961 . S
C1531 C1530 1.502 . S
C1532 H1518 0.960 . S
C1532 H1519 0.961 . S
C1532 H1520 0.959 . S
C1532 C1530 1.561 . S
C1533 C1530 1.526 . S
C1533 C1534 1.396 . S
C1533 C1538 1.390 . S
C1534 C1528 1.465 . S
C1534 C1533 1.396 . S
C1534 C1535 1.399 . S
C1535 H1521 0.929 . S
C1535 C1534 1.399 . S
C1535 C1536 1.385 . S
C1536 H1522 0.931 . S
C1536 C1535 1.385 . S
C1536 C1537 1.389 . S
C1537 C1536 1.389 . S
C1537 C1538 1.387 . S
C1538 H1523 0.930 . S
C1538 C1533 1.390 . S
C1538 C1537 1.387 . S
H1539 C1551 0.930 . S
H1540 C1553 0.930 . S
H1541 C1554 0.930 . S
H1542 C1558 0.959 . S
H1543 C1558 0.959 . S
H1544 C1558 0.961 . S
H1545 C1559 0.960 . S
H1546 C1559 0.961 . S
H1547 C1559 0.959 . S
H1548 C1562 0.929 . S
H1549 C1563 0.931 . S
H1550 C1565 0.930 . S
C1551 H1539 0.930 . S
C1551 C1552 1.399 . S
C1551 C1556 1.399 . S
C1552 C1551 1.399 . S
C1552 C1553 1.376 . S
C1553 H1540 0.930 . S
C1553 C1552 1.376 . S
C1553 C1554 1.388 . S
C1554 H1541 0.930 . S
C1554 C1553 1.388 . S
C1554 C1555 1.390 . S
C1555 C1554 1.390 . S
C1555 C1556 1.394 . S
C1555 C1561 1.465 . S
C1556 C1551 1.399 . S
C1556 C1555 1.394 . S
C1556 C1557 1.516 . S
C1557 C1556 1.516 . S
C1557 C1558 1.502 . S
C1557 C1559 1.561 . S
C1557 C1560 1.526 . S
C1558 H1542 0.959 . S
C1558 H1543 0.959 . S
C1558 H1544 0.961 . S
C1558 C1557 1.502 . S
C1559 H1545 0.960 . S
C1559 H1546 0.961 . S
C1559 H1547 0.959 . S
C1559 C1557 1.561 . S
C1560 C1557 1.526 . S
C1560 C1561 1.396 . S
C1560 C1565 1.390 . S
C1561 C1555 1.465 . S
C1561 C1560 1.396 . S
C1561 C1562 1.399 . S
C1562 H1548 0.929 . S
C1562 C1561 1.399 . S
C1562 C1563 1.385 . S
C1563 H1549 0.931 . S
C1563 C1562 1.385 . S
C1563 C1564 1.389 . S
C1564 C1563 1.389 . S
C1564 C1565 1.387 . S
C1565 H1550 0.930 . S
C1565 C1560 1.390 . S
C1565 C1564 1.387 . S
H1566 C1578 0.930 . S
H1567 C1580 0.930 . S
H1568 C1581 0.930 . S
H1569 C1585 0.959 . S
H1570 C1585 0.959 . S
H1571 C1585 0.961 . S
H1572 C1586 0.960 . S
H1573 C1586 0.961 . S
H1574 C1586 0.959 . S
H1575 C1589 0.929 . S
H1576 C1590 0.931 . S
H1577 C1592 0.930 . S
C1578 H1566 0.930 . S
C1578 C1579 1.399 . S
C1578 C1583 1.399 . S
C1579 C1578 1.399 . S
C1579 C1580 1.376 . S
C1580 H1567 0.930 . S
C1580 C1579 1.376 . S
C1580 C1581 1.388 . S
C1581 H1568 0.930 . S
C1581 C1580 1.388 . S
C1581 C1582 1.390 . S
C1582 C1581 1.390 . S
C1582 C1583 1.394 . S
C1582 C1588 1.465 . S
C1583 C1578 1.399 . S
C1583 C1582 1.394 . S
C1583 C1584 1.516 . S
C1584 C1583 1.516 . S
C1584 C1585 1.502 . S
C1584 C1586 1.561 . S
C1584 C1587 1.526 . S
C1585 H1569 0.959 . S
C1585 H1570 0.959 . S
C1585 H1571 0.961 . S
C1585 C1584 1.502 . S
C1586 H1572 0.960 . S
C1586 H1573 0.961 . S
C1586 H1574 0.959 . S
C1586 C1584 1.561 . S
C1587 C1584 1.526 . S
C1587 C1588 1.396 . S
C1587 C1592 1.390 . S
C1588 C1582 1.465 . S
C1588 C1587 1.396 . S
C1588 C1589 1.399 . S
C1589 H1575 0.929 . S
C1589 C1588 1.399 . S
C1589 C1590 1.385 . S
C1590 H1576 0.931 . S
C1590 C1589 1.385 . S
C1590 C1591 1.389 . S
C1591 C1590 1.389 . S
C1591 C1592 1.387 . S
C1592 H1577 0.930 . S
C1592 C1587 1.390 . S
C1592 C1591 1.387 . S
H1593 C1605 0.930 . S
H1594 C1607 0.930 . S
H1595 C1608 0.930 . S
H1596 C1612 0.959 . S
H1597 C1612 0.959 . S
H1598 C1612 0.961 . S
H1599 C1613 0.960 . S
H1600 C1613 0.961 . S
H1601 C1613 0.959 . S
H1602 C1616 0.929 . S
H1603 C1617 0.931 . S
H1604 C1619 0.930 . S
C1605 H1593 0.930 . S
C1605 C1606 1.399 . S
C1605 C1610 1.399 . S
C1606 C1605 1.399 . S
C1606 C1607 1.376 . S
C1607 H1594 0.930 . S
C1607 C1606 1.376 . S
C1607 C1608 1.388 . S
C1608 H1595 0.930 . S
C1608 C1607 1.388 . S
C1608 C1609 1.390 . S
C1609 C1608 1.390 . S
C1609 C1610 1.394 . S
C1609 C1615 1.465 . S
C1610 C1605 1.399 . S
C1610 C1609 1.394 . S
C1610 C1611 1.516 . S
C1611 C1610 1.516 . S
C1611 C1612 1.502 . S
C1611 C1613 1.561 . S
C1611 C1614 1.526 . S
C1612 H1596 0.959 . S
C1612 H1597 0.959 . S
C1612 H1598 0.961 . S
C1612 C1611 1.502 . S
C1613 H1599 0.960 . S
C1613 H1600 0.961 . S
C1613 H1601 0.959 . S
C1613 C1611 1.561 . S
C1614 C1611 1.526 . S
C1614 C1615 1.396 . S
C1614 C1619 1.390 . S
C1615 C1609 1.465 . S
C1615 C1614 1.396 . S
C1615 C1616 1.399 . S
C1616 H1602 0.929 . S
C1616 C1615 1.399 . S
C1616 C1617 1.385 . S
C1617 H1603 0.931 . S
C1617 C1616 1.385 . S
C1617 C1618 1.389 . S
C1618 C1617 1.389 . S
C1618 C1619 1.387 . S
C1619 H1604 0.930 . S
C1619 C1614 1.390 . S
C1619 C1618 1.387 . S
H1620 C1632 0.930 . S
H1621 C1634 0.930 . S
H1622 C1635 0.930 . S
H1623 C1639 0.959 . S
H1624 C1639 0.959 . S
H1625 C1639 0.961 . S
H1626 C1640 0.960 . S
H1627 C1640 0.961 . S
H1628 C1640 0.959 . S
H1629 C1643 0.929 . S
H1630 C1644 0.931 . S
H1631 C1646 0.930 . S
C1632 H1620 0.930 . S
C1632 C1633 1.399 . S
C1632 C1637 1.399 . S
C1633 C1632 1.399 . S
C1633 C1634 1.376 . S
C1634 H1621 0.930 . S
C1634 C1633 1.376 . S
C1634 C1635 1.388 . S
C1635 H1622 0.930 . S
C1635 C1634 1.388 . S
C1635 C1636 1.390 . S
C1636 C1635 1.390 . S
C1636 C1637 1.394 . S
C1636 C1642 1.465 . S
C1637 C1632 1.399 . S
C1637 C1636 1.394 . S
C1637 C1638 1.516 . S
C1638 C1637 1.516 . S
C1638 C1639 1.502 . S
C1638 C1640 1.561 . S
C1638 C1641 1.526 . S
C1639 H1623 0.959 . S
C1639 H1624 0.959 . S
C1639 H1625 0.961 . S
C1639 C1638 1.502 . S
C1640 H1626 0.960 . S
C1640 H1627 0.961 . S
C1640 H1628 0.959 . S
C1640 C1638 1.561 . S
C1641 C1638 1.526 . S
C1641 C1642 1.396 . S
C1641 C1646 1.390 . S
C1642 C1636 1.465 . S
C1642 C1641 1.396 . S
C1642 C1643 1.399 . S
C1643 H1629 0.929 . S
C1643 C1642 1.399 . S
C1643 C1644 1.385 . S
C1644 H1630 0.931 . S
C1644 C1643 1.385 . S
C1644 C1645 1.389 . S
C1645 C1644 1.389 . S
C1645 C1646 1.387 . S
C1646 H1631 0.930 . S
C1646 C1641 1.390 . S
C1646 C1645 1.387 . S
H1647 C1659 0.930 . S
H1648 C1661 0.930 . S
H1649 C1662 0.930 . S
H1650 C1666 0.959 . S
H1651 C1666 0.959 . S
H1652 C1666 0.961 . S
H1653 C1667 0.960 . S
H1654 C1667 0.961 . S
H1655 C1667 0.959 . S
H1656 C1670 0.929 . S
H1657 C1671 0.931 . S
H1658 C1673 0.930 . S
C1659 H1647 0.930 . S
C1659 C1660 1.399 . S
C1659 C1664 1.399 . S
C1660 C1659 1.399 . S
C1660 C1661 1.376 . S
C1661 H1648 0.930 . S
C1661 C1660 1.376 . S
C1661 C1662 1.388 . S
C1662 H1649 0.930 . S
C1662 C1661 1.388 . S
C1662 C1663 1.390 . S
C1663 C1662 1.390 . S
C1663 C1664 1.394 . S
C1663 C1669 1.465 . S
C1664 C1659 1.399 . S
C1664 C1663 1.394 . S
C1664 C1665 1.516 . S
C1665 C1664 1.516 . S
C1665 C1666 1.502 . S
C1665 C1667 1.561 . S
C1665 C1668 1.526 . S
C1666 H1650 0.959 . S
C1666 H1651 0.959 . S
C1666 H1652 0.961 . S
C1666 C1665 1.502 . S
C1667 H1653 0.960 . S
C1667 H1654 0.961 . S
C1667 H1655 0.959 . S
C1667 C1665 1.561 . S
C1668 C1665 1.526 . S
C1668 C1669 1.396 . S
C1668 C1673 1.390 . S
C1669 C1663 1.465 . S
C1669 C1668 1.396 . S
C1669 C1670 1.399 . S
C1670 H1656 0.929 . S
C1670 C1669 1.399 . S
C1670 C1671 1.385 . S
C1671 H1657 0.931 . S
C1671 C1670 1.385 . S
C1671 C1672 1.389 . S
C1672 C1671 1.389 . S
C1672 C1673 1.387 . S
C1673 H1658 0.930 . S
C1673 C1668 1.390 . S
C1673 C1672 1.387 . S
H1674 C1686 0.930 . S
H1675 C1688 0.930 . S
H1676 C1689 0.930 . S
H1677 C1693 0.959 . S
H1678 C1693 0.959 . S
H1679 C1693 0.961 . S
H1680 C1694 0.960 . S
H1681 C1694 0.961 . S
H1682 C1694 0.959 . S
H1683 C1697 0.929 . S
H1684 C1698 0.931 . S
H1685 C1700 0.930 . S
C1686 H1674 0.930 . S
C1686 C1687 1.399 . S
C1686 C1691 1.399 . S
C1687 C1686 1.399 . S
C1687 C1688 1.376 . S
C1688 H1675 0.930 . S
C1688 C1687 1.376 . S
C1688 C1689 1.388 . S
C1689 H1676 0.930 . S
C1689 C1688 1.388 . S
C1689 C1690 1.390 . S
C1690 C1689 1.390 . S
C1690 C1691 1.394 . S
C1690 C1696 1.465 . S
C1691 C1686 1.399 . S
C1691 C1690 1.394 . S
C1691 C1692 1.516 . S
C1692 C1691 1.516 . S
C1692 C1693 1.502 . S
C1692 C1694 1.561 . S
C1692 C1695 1.526 . S
C1693 H1677 0.959 . S
C1693 H1678 0.959 . S
C1693 H1679 0.961 . S
C1693 C1692 1.502 . S
C1694 H1680 0.960 . S
C1694 H1681 0.961 . S
C1694 H1682 0.959 . S
C1694 C1692 1.561 . S
C1695 C1692 1.526 . S
C1695 C1696 1.396 . S
C1695 C1700 1.390 . S
C1696 C1690 1.465 . S
C1696 C1695 1.396 . S
C1696 C1697 1.399 . S
C1697 H1683 0.929 . S
C1697 C1696 1.399 . S
C1697 C1698 1.385 . S
C1698 H1684 0.931 . S
C1698 C1697 1.385 . S
C1698 C1699 1.389 . S
C1699 C1698 1.389 . S
C1699 C1700 1.387 . S
C1700 H1685 0.930 . S
C1700 C1695 1.390 . S
C1700 C1699 1.387 . S
H1701 C1713 0.930 . S
H1702 C1715 0.930 . S
H1703 C1716 0.930 . S
H1704 C1720 0.959 . S
H1705 C1720 0.959 . S
H1706 C1720 0.961 . S
H1707 C1721 0.960 . S
H1708 C1721 0.961 . S
H1709 C1721 0.959 . S
H1710 C1724 0.929 . S
H1711 C1725 0.931 . S
H1712 C1727 0.930 . S
C1713 H1701 0.930 . S
C1713 C1714 1.399 . S
C1713 C1718 1.399 . S
C1714 C1713 1.399 . S
C1714 C1715 1.376 . S
C1715 H1702 0.930 . S
C1715 C1714 1.376 . S
C1715 C1716 1.388 . S
C1716 H1703 0.930 . S
C1716 C1715 1.388 . S
C1716 C1717 1.390 . S
C1717 C1716 1.390 . S
C1717 C1718 1.394 . S
C1717 C1723 1.465 . S
C1718 C1713 1.399 . S
C1718 C1717 1.394 . S
C1718 C1719 1.516 . S
C1719 C1718 1.516 . S
C1719 C1720 1.502 . S
C1719 C1721 1.561 . S
C1719 C1722 1.526 . S
C1720 H1704 0.959 . S
C1720 H1705 0.959 . S
C1720 H1706 0.961 . S
C1720 C1719 1.502 . S
C1721 H1707 0.960 . S
C1721 H1708 0.961 . S
C1721 H1709 0.959 . S
C1721 C1719 1.561 . S
C1722 C1719 1.526 . S
C1722 C1723 1.396 . S
C1722 C1727 1.390 . S
C1723 C1717 1.465 . S
C1723 C1722 1.396 . S
C1723 C1724 1.399 . S
C1724 H1710 0.929 . S
C1724 C1723 1.399 . S
C1724 C1725 1.385 . S
C1725 H1711 0.931 . S
C1725 C1724 1.385 . S
C1725 C1726 1.389 . S
C1726 C1725 1.389 . S
C1726 C1727 1.387 . S
C1727 H1712 0.930 . S
C1727 C1722 1.390 . S
C1727 C1726 1.387 . S
H1728 C1740 0.930 . S
H1729 C1742 0.930 . S
H1730 C1743 0.930 . S
H1731 C1747 0.959 . S
H1732 C1747 0.959 . S
H1733 C1747 0.961 . S
H1734 C1748 0.960 . S
H1735 C1748 0.961 . S
H1736 C1748 0.959 . S
H1737 C1751 0.929 . S
H1738 C1752 0.931 . S
H1739 C1754 0.930 . S
C1740 H1728 0.930 . S
C1740 C1741 1.399 . S
C1740 C1745 1.399 . S
C1741 C1740 1.399 . S
C1741 C1742 1.376 . S
C1742 H1729 0.930 . S
C1742 C1741 1.376 . S
C1742 C1743 1.388 . S
C1743 H1730 0.930 . S
C1743 C1742 1.388 . S
C1743 C1744 1.390 . S
C1744 C1743 1.390 . S
C1744 C1745 1.394 . S
C1744 C1750 1.465 . S
C1745 C1740 1.399 . S
C1745 C1744 1.394 . S
C1745 C1746 1.516 . S
C1746 C1745 1.516 . S
C1746 C1747 1.502 . S
C1746 C1748 1.561 . S
C1746 C1749 1.526 . S
C1747 H1731 0.959 . S
C1747 H1732 0.959 . S
C1747 H1733 0.961 . S
C1747 C1746 1.502 . S
C1748 H1734 0.960 . S
C1748 H1735 0.961 . S
C1748 H1736 0.959 . S
C1748 C1746 1.561 . S
C1749 C1746 1.526 . S
C1749 C1750 1.396 . S
C1749 C1754 1.390 . S
C1750 C1744 1.465 . S
C1750 C1749 1.396 . S
C1750 C1751 1.399 . S
C1751 H1737 0.929 . S
C1751 C1750 1.399 . S
C1751 C1752 1.385 . S
C1752 H1738 0.931 . S
C1752 C1751 1.385 . S
C1752 C1753 1.389 . S
C1753 C1752 1.389 . S
C1753 C1754 1.387 . S
C1754 H1739 0.930 . S
C1754 C1749 1.390 . S
C1754 C1753 1.387 . S
H1755 C1767 0.930 . S
H1756 C1769 0.930 . S
H1757 C1770 0.930 . S
H1758 C1774 0.959 . S
H1759 C1774 0.959 . S
H1760 C1774 0.961 . S
H1761 C1775 0.960 . S
H1762 C1775 0.961 . S
H1763 C1775 0.959 . S
H1764 C1778 0.929 . S
H1765 C1779 0.931 . S
H1766 C1781 0.930 . S
C1767 H1755 0.930 . S
C1767 C1768 1.399 . S
C1767 C1772 1.399 . S
C1768 C1767 1.399 . S
C1768 C1769 1.376 . S
C1769 H1756 0.930 . S
C1769 C1768 1.376 . S
C1769 C1770 1.388 . S
C1770 H1757 0.930 . S
C1770 C1769 1.388 . S
C1770 C1771 1.390 . S
C1771 C1770 1.390 . S
C1771 C1772 1.394 . S
C1771 C1777 1.465 . S
C1772 C1767 1.399 . S
C1772 C1771 1.394 . S
C1772 C1773 1.516 . S
C1773 C1772 1.516 . S
C1773 C1774 1.502 . S
C1773 C1775 1.561 . S
C1773 C1776 1.526 . S
C1774 H1758 0.959 . S
C1774 H1759 0.959 . S
C1774 H1760 0.961 . S
C1774 C1773 1.502 . S
C1775 H1761 0.960 . S
C1775 H1762 0.961 . S
C1775 H1763 0.959 . S
C1775 C1773 1.561 . S
C1776 C1773 1.526 . S
C1776 C1777 1.396 . S
C1776 C1781 1.390 . S
C1777 C1771 1.465 . S
C1777 C1776 1.396 . S
C1777 C1778 1.399 . S
C1778 H1764 0.929 . S
C1778 C1777 1.399 . S
C1778 C1779 1.385 . S
C1779 H1765 0.931 . S
C1779 C1778 1.385 . S
C1779 C1780 1.389 . S
C1780 C1779 1.389 . S
C1780 C1781 1.387 . S
C1781 H1766 0.930 . S
C1781 C1776 1.390 . S
C1781 C1780 1.387 . S
H1782 C1794 0.930 . S
H1783 C1796 0.930 . S
H1784 C1797 0.930 . S
H1785 C1801 0.959 . S
H1786 C1801 0.959 . S
H1787 C1801 0.961 . S
H1788 C1802 0.960 . S
H1789 C1802 0.961 . S
H1790 C1802 0.959 . S
H1791 C1805 0.929 . S
H1792 C1806 0.931 . S
H1793 C1808 0.930 . S
C1794 H1782 0.930 . S
C1794 C1795 1.399 . S
C1794 C1799 1.399 . S
C1795 C1794 1.399 . S
C1795 C1796 1.376 . S
C1796 H1783 0.930 . S
C1796 C1795 1.376 . S
C1796 C1797 1.388 . S
C1797 H1784 0.930 . S
C1797 C1796 1.388 . S
C1797 C1798 1.390 . S
C1798 C1797 1.390 . S
C1798 C1799 1.394 . S
C1798 C1804 1.465 . S
C1799 C1794 1.399 . S
C1799 C1798 1.394 . S
C1799 C1800 1.516 . S
C1800 C1799 1.516 . S
C1800 C1801 1.502 . S
C1800 C1802 1.561 . S
C1800 C1803 1.526 . S
C1801 H1785 0.959 . S
C1801 H1786 0.959 . S
C1801 H1787 0.961 . S
C1801 C1800 1.502 . S
C1802 H1788 0.960 . S
C1802 H1789 0.961 . S
C1802 H1790 0.959 . S
C1802 C1800 1.561 . S
C1803 C1800 1.526 . S
C1803 C1804 1.396 . S
C1803 C1808 1.390 . S
C1804 C1798 1.465 . S
C1804 C1803 1.396 . S
C1804 C1805 1.399 . S
C1805 H1791 0.929 . S
C1805 C1804 1.399 . S
C1805 C1806 1.385 . S
C1806 H1792 0.931 . S
C1806 C1805 1.385 . S
C1806 C1807 1.389 . S
C1807 C1806 1.389 . S
C1807 C1808 1.387 . S
C1808 H1793 0.930 . S
C1808 C1803 1.390 . S
C1808 C1807 1.387 . S
C607 N13 1.064 . S
C619 N2 1.074 . S
C634 N46 1.082 . S
C646 N35 1.057 . S
C661 N68 1.074 . S
C673 N79 1.064 . S
C688 N112 1.052 . S
C700 N101 1.091 . S
C715 N145 1.085 . S
C727 N134 1.054 . S
C742 N167 1.093 . S
C754 N178 1.055 . S
C769 N200 1.051 . S
C781 N211 1.089 . S
C796 N233 1.088 . S
C808 N244 1.054 . S
C823 N277 1.093 . S
C835 N266 1.056 . S
C850 N310 1.052 . S
C862 N299 1.092 . S
C877 N343 1.063 . S
C889 N332 1.089 . S
C904 N365 1.094 . S
C916 N376 1.055 . S
C931 N398 1.051 . S
C943 N409 1.089 . S
C958 N431 1.089 . S
C970 N442 1.053 . S
C985 N464 1.076 . S
C997 N475 1.077 . S
C1012 N508 1.053 . S
C1024 N497 1.089 . S
C1039 N541 1.087 . S
C1051 N530 1.053 . S
C1066 N563 1.093 . S
C1078 N574 1.056 . S
C1093 C579 1.581 . S
C1105 C18 1.597 . S
C1120 C51 1.563 . S
C1132 C513 1.602 . S
C1147 C546 1.605 . S
C1159 C84 1.572 . S
C1174 C249 1.560 . S
C1186 C117 1.612 . S
C1201 C150 1.557 . S
C1213 C282 1.609 . S
C1228 C183 1.594 . S
C1240 C216 1.570 . S
C1255 C315 1.568 . S
C1267 C447 1.608 . S
C1282 C480 1.590 . S
C1294 C348 1.588 . S
C1309 C381 1.558 . S
C1321 C414 1.612 . S
C1336 C7 1.477 . S
C1348 C106 1.515 . S
C1363 C40 1.509 . S
C1375 C139 1.484 . S
C1390 C172 1.478 . S
C1402 C73 1.516 . S
C1417 C186 1.548 . S
C1429 C54 1.524 . S
C1444 C120 1.525 . S
C1456 C87 1.547 . S
C1471 C153 1.522 . S
C1483 C21 1.548 . S
C1498 C304 1.511 . S
C1510 C205 1.481 . S
C1525 C337 1.481 . S
C1537 C238 1.513 . S
C1552 C271 1.511 . S
C1564 C370 1.483 . S
C1579 C384 1.542 . S
C1591 C252 1.527 . S
C1606 C285 1.527 . S
C1618 C318 1.546 . S
C1633 C219 1.549 . S
C1645 C351 1.522 . S
C1660 C502 1.516 . S
C1672 C403 1.477 . S
C1687 C535 1.480 . S
C1699 C436 1.514 . S
C1714 C568 1.477 . S
C1726 C469 1.516 . S
C1741 C450 1.546 . S
C1753 C582 1.523 . S
C1768 C483 1.545 . S
C1780 C516 1.525 . S
C1795 C549 1.525 . S
C1807 C417 1.547 . S
