# Generated by pormake.
# Topology crr, (4)-cn, num edge types: 1
# Building blocks:
#     Node 0, Type 0, BuildingBlock: MUDLON_clean_sbu_0, # of connection points: 4
#     Node 1, Type 0, BuildingBlock: MUDLON_clean_sbu_0, # of connection points: 4
#     Node 2, Type 0, BuildingBlock: MUDLON_clean_sbu_0, # of connection points: 4
#     Node 3, Type 0, BuildingBlock: MUDLON_clean_sbu_0, # of connection points: 4
#     Node 4, Type 0, BuildingBlock: MUDLON_clean_sbu_0, # of connection points: 4
#     Node 5, Type 0, BuildingBlock: MUDLON_clean_sbu_0, # of connection points: 4
#     Node 6, Type 0, BuildingBlock: MUDLON_clean_sbu_0, # of connection points: 4
#     Node 7, Type 0, BuildingBlock: MUDLON_clean_sbu_0, # of connection points: 4
#     Node 8, Type 0, BuildingBlock: MUDLON_clean_sbu_0, # of connection points: 4
#     Node 9, Type 0, BuildingBlock: MUDLON_clean_sbu_0, # of connection points: 4
#     Node 10, Type 0, BuildingBlock: MUDLON_clean_sbu_0, # of connection points: 4
#     Node 11, Type 0, BuildingBlock: MUDLON_clean_sbu_0, # of connection points: 4
#     Edge 12, Type (0, 0), BuildingBlock: OJICUG_clean_linker_0, # of connection points: 2
#     Edge 13, Type (0, 0), BuildingBlock: OJICUG_clean_linker_0, # of connection points: 2
#     Edge 14, Type (0, 0), BuildingBlock: OJICUG_clean_linker_0, # of connection points: 2
#     Edge 15, Type (0, 0), BuildingBlock: OJICUG_clean_linker_0, # of connection points: 2
#     Edge 16, Type (0, 0), BuildingBlock: OJICUG_clean_linker_0, # of connection points: 2
#     Edge 17, Type (0, 0), BuildingBlock: OJICUG_clean_linker_0, # of connection points: 2
#     Edge 18, Type (0, 0), BuildingBlock: OJICUG_clean_linker_0, # of connection points: 2
#     Edge 19, Type (0, 0), BuildingBlock: OJICUG_clean_linker_0, # of connection points: 2
#     Edge 20, Type (0, 0), BuildingBlock: OJICUG_clean_linker_0, # of connection points: 2
#     Edge 21, Type (0, 0), BuildingBlock: OJICUG_clean_linker_0, # of connection points: 2
#     Edge 22, Type (0, 0), BuildingBlock: OJICUG_clean_linker_0, # of connection points: 2
#     Edge 23, Type (0, 0), BuildingBlock: OJICUG_clean_linker_0, # of connection points: 2
#     Edge 24, Type (0, 0), BuildingBlock: OJICUG_clean_linker_0, # of connection points: 2
#     Edge 25, Type (0, 0), BuildingBlock: OJICUG_clean_linker_0, # of connection points: 2
#     Edge 26, Type (0, 0), BuildingBlock: OJICUG_clean_linker_0, # of connection points: 2
#     Edge 27, Type (0, 0), BuildingBlock: OJICUG_clean_linker_0, # of connection points: 2
#     Edge 28, Type (0, 0), BuildingBlock: OJICUG_clean_linker_0, # of connection points: 2
#     Edge 29, Type (0, 0), BuildingBlock: OJICUG_clean_linker_0, # of connection points: 2
#     Edge 30, Type (0, 0), BuildingBlock: OJICUG_clean_linker_0, # of connection points: 2
#     Edge 31, Type (0, 0), BuildingBlock: OJICUG_clean_linker_0, # of connection points: 2
#     Edge 32, Type (0, 0), BuildingBlock: OJICUG_clean_linker_0, # of connection points: 2
#     Edge 33, Type (0, 0), BuildingBlock: OJICUG_clean_linker_0, # of connection points: 2
#     Edge 34, Type (0, 0), BuildingBlock: OJICUG_clean_linker_0, # of connection points: 2
#     Edge 35, Type (0, 0), BuildingBlock: OJICUG_clean_linker_0, # of connection points: 2
# Relax obj value: 0.144
# Max RMSD: 0.143
# Mean RMSD: 0.141
data_MOF--net-crr--node1-MUDLON_clean_sbu_0--edge1-OJICUG_clean_linker_0
_symmetry_space_group_name_H-M    P1
_symmetry_Int_Tables_number       1
_symmetry_cell_setting            triclinic
loop_
_symmetry_equiv_pos_as_xyz
'x, y, z'
_cell_length_a     29.73651
_cell_length_b     29.440465
_cell_length_c     29.594485
_cell_angle_alpha  90.455671
_cell_angle_beta   89.872856
_cell_angle_gamma 90.611054
loop_
_atom_site_label
_atom_site_type_symbol
_atom_site_fract_x
_atom_site_fract_y
_atom_site_fract_z
_atom_type_partial_charge
Mg0 Mg 0.04945 0.3115 0.30659 0.0
C1 C 0.10066 0.24014 0.35558 0.0
O2 O 0.06113 0.22016 0.35151 0.0
C3 C 0.03302 0.40675 0.27473 0.0
O4 O 0.02462 0.38457 0.23696 0.0
C5 C 0.08534 0.2602 0.2255 0.0
O6 O 0.08878 0.22748 0.25512 0.0
O7 O 0.06146 0.29446 0.23562 0.0
O8 O 0.10535 0.28094 0.34219 0.0
O9 O 0.98821 0.2973 0.34532 0.0
C10 C 0.99003 0.32262 0.38047 0.0
O11 O 0.02658 0.34706 0.38758 0.0
O12 O 0.04863 0.38541 0.30834 0.0
Mg13 Mg 0.36595 0.93171 0.72221 0.0
C14 C 0.31952 0.91963 0.81044 0.0
O15 O 0.28443 0.92467 0.78415 0.0
C16 C 0.37377 0.01926 0.66999 0.0
O17 O 0.415 0.01625 0.68542 0.0
C18 C 0.28488 0.87406 0.69286 0.0
O19 O 0.26798 0.91377 0.68285 0.0
O20 O 0.32581 0.87173 0.70512 0.0
O21 O 0.35803 0.93106 0.79524 0.0
O22 O 0.43704 0.92347 0.70652 0.0
C23 C 0.46652 0.93635 0.73515 0.0
O24 O 0.45319 0.94979 0.77539 0.0
O25 O 0.34433 0.99044 0.6832 0.0
Mg26 Mg 0.91697 0.66422 0.34694 0.0
C27 C 0.83256 0.70274 0.39014 0.0
O28 O 0.85999 0.70591 0.4248 0.0
C29 C 0.9596 0.58619 0.29613 0.0
O30 O 0.9791 0.62003 0.27486 0.0
C31 C 0.94217 0.71632 0.25894 0.0
O32 O 0.96824 0.74395 0.23581 0.0
O33 O 0.94959 0.71133 0.30092 0.0
O34 O 0.84644 0.68366 0.35405 0.0
O35 O 0.9524 0.67045 0.41096 0.0
C36 C 0.99263 0.65622 0.41326 0.0
O37 O 0.01159 0.63943 0.37674 0.0
O38 O 0.92978 0.59449 0.32592 0.0
Mg39 Mg 0.69133 0.09018 0.6603 0.0
C40 C 0.71256 0.0592 0.56602 0.0
O41 O 0.74597 0.04156 0.5887 0.0
C42 C 0.63496 0.14951 0.72194 0.0
O43 O 0.62037 0.1097 0.73574 0.0
C44 C 0.63468 1.00515 0.668 0.0
O45 O 0.63897 1.00727 0.62389 0.0
O46 O 0.6571 0.03299 0.69246 0.0
O47 O 0.68423 0.08359 0.58719 0.0
O48 O 0.76131 0.10396 0.67595 0.0
C49 C 0.76853 0.12485 0.71306 0.0
O50 O 0.73772 0.12213 0.74486 0.0
O51 O 0.66148 0.15157 0.6882 0.0
Mg52 Mg 0.13942 0.63273 0.66217 0.0
C53 C 0.09119 0.54729 0.67675 0.0
O54 O 0.12863 0.53618 0.65594 0.0
C55 C 0.16964 0.71581 0.71297 0.0
O56 O 0.18092 0.6846 0.74213 0.0
C57 C 0.08486 0.65255 0.58533 0.0
O58 O 0.06379 0.66804 0.62127 0.0
O59 O 0.12306 0.63414 0.59068 0.0
O60 O 0.08583 0.58867 0.68829 0.0
O61 O 0.20601 0.60994 0.68292 0.0
C62 C 0.20953 0.59043 0.721 0.0
O63 O 0.17277 0.57507 0.74056 0.0
O64 O 0.14389 0.70459 0.68038 0.0
Mg65 Mg 0.65852 0.90914 0.32318 0.0
C66 C 0.68948 0.8319 0.38184 0.0
O67 O 0.69307 0.8653 0.41136 0.0
C68 C 0.55899 0.92958 0.34468 0.0
O69 O 0.56658 0.90538 0.38093 0.0
C70 C 0.67219 0.89436 0.22391 0.0
O71 O 0.62821 0.8906 0.22688 0.0
O72 O 0.69397 0.90764 0.25864 0.0
O73 O 0.66975 0.83932 0.34454 0.0
O74 O 0.68954 0.95349 0.37412 0.0
C75 C 0.67018 0.98939 0.38798 0.0
O76 O 0.63347 1.00266 0.36758 0.0
O77 O 0.58953 0.93263 0.31459 0.0
Mg78 Mg 0.85805 0.37895 0.62754 0.0
C79 C 0.94862 0.41368 0.65995 0.0
O80 O 0.95923 0.37207 0.64793 0.0
C81 C 0.8498 0.29946 0.69217 0.0
O82 O 0.83727 0.33189 0.72009 0.0
C83 C 0.87208 0.33763 0.53327 0.0
O84 O 0.85764 0.30052 0.55321 0.0
O85 O 0.87267 0.37494 0.55543 0.0
O86 O 0.90779 0.42567 0.65695 0.0
O87 O 0.79016 0.40133 0.64405 0.0
C88 C 0.78217 0.44147 0.65791 0.0
O89 O 0.81518 0.47149 0.65854 0.0
O90 O 0.86299 0.31009 0.65274 0.0
Mg91 Mg 0.366 0.13657 0.40786 0.0
C92 C 0.38917 0.1847 0.32624 0.0
O93 O 0.3716 0.14549 0.31359 0.0
C94 C 0.34434 0.11325 0.50258 0.0
O95 O 0.30749 0.10241 0.48046 0.0
C96 C 0.25909 0.13365 0.39162 0.0
O97 O 0.25782 0.08904 0.39192 0.0
O98 O 0.29622 0.15462 0.39706 0.0
O99 O 0.39508 0.19223 0.36831 0.0
O100 O 0.39243 0.0721 0.38133 0.0
C101 C 0.43206 0.07376 0.36485 0.0
O102 O 0.45276 0.11328 0.36235 0.0
O103 O 0.37638 0.13247 0.48101 0.0
Mg104 Mg 0.32237 0.36841 0.11871 0.0
C105 C 0.40721 0.37217 0.06763 0.0
O106 O 0.41738 0.38847 0.10784 0.0
C107 C 0.24735 0.29698 0.12789 0.0
O108 O 0.28152 0.2705 0.13646 0.0
C109 C 0.27817 0.45666 0.0996 0.0
O110 O 0.24738 0.42745 0.08573 0.0
O111 O 0.31313 0.44164 0.11896 0.0
O112 O 0.36721 0.35791 0.06068 0.0
O113 O 0.35271 0.34215 0.18061 0.0
C114 C 0.37662 0.30667 0.17716 0.0
O115 O 0.38489 0.29027 0.1366 0.0
O116 O 0.25517 0.33764 0.11566 0.0
Mg117 Mg 0.36401 0.67474 0.94904 0.0
C118 C 0.34112 0.65182 0.84997 0.0
O119 O 0.36302 0.68999 0.84229 0.0
C120 C 0.44749 0.66261 1.00371 0.0
O121 O 0.41732 0.66797 0.03573 0.0
C122 C 0.3176 0.76234 0.92308 0.0
O123 O 0.2828 0.73462 0.91992 0.0
O124 O 0.35478 0.7469 0.93709 0.0
O125 O 0.33863 0.63713 0.89024 0.0
O126 O 0.33014 0.64656 1.00758 0.0
C127 C 0.29414 0.62332 1.00348 0.0
O128 O 0.27267 0.62386 0.96474 0.0
O129 O 0.43496 0.66363 0.96256 0.0
Mg130 Mg 0.72326 0.66701 0.08914 0.0
C131 C 0.63613 0.65919 0.04982 0.0
O132 O 0.66473 0.67019 0.01771 0.0
C133 C 0.80393 0.64537 0.14321 0.0
O134 O 0.8171 0.63662 0.10166 0.0
C135 C 0.7424 0.57987 0.04441 0.0
O136 O 0.73831 0.56911 0.08725 0.0
O137 O 0.74294 0.62176 0.03393 0.0
O138 O 0.65113 0.65407 0.08978 0.0
O139 O 0.72416 0.74075 0.0819 0.0
C140 C 0.75149 0.76493 0.10512 0.0
O141 O 0.78753 0.74564 0.12144 0.0
O142 O 0.76278 0.65491 0.1499 0.0
Mg143 Mg 0.60617 0.40604 0.85568 0.0
C144 C 0.63406 0.46605 0.77911 0.0
O145 O 0.64407 0.49384 0.81263 0.0
C146 C 0.54819 0.38425 0.93243 0.0
O147 O 0.58908 0.37285 0.9443 0.0
C148 C 0.59895 0.30913 0.83026 0.0
O149 O 0.55661 0.32048 0.83519 0.0
O150 O 0.62945 0.33781 0.84114 0.0
O151 O 0.60848 0.43211 0.7871 0.0
O152 O 0.65125 0.4498 0.89523 0.0
C153 C 0.68102 0.4385 0.92364 0.0
O154 O 0.68784 0.39527 0.93155 0.0
O155 O 0.5425 0.40058 0.89313 0.0
C156 C 0.1369 0.16587 0.37412 0.0
C157 C 0.14044 0.21324 0.36849 0.0
H158 H 0.17148 0.10338 0.3855 0.0
C159 C 0.18295 0.23409 0.37204 0.0
H160 H 0.10463 0.14867 0.37143 0.0
C161 C 0.22112 0.20817 0.38009 0.0
C162 C 0.21785 0.16064 0.38459 0.0
H163 H 0.18694 0.27043 0.36783 0.0
H164 H 0.25339 0.22549 0.38204 0.0
C165 C 0.17522 0.13981 0.38195 0.0
C166 C 0.21356 0.83105 0.67481 0.0
C167 C 0.25479 0.83399 0.69788 0.0
H168 H 0.154 0.79133 0.66144 0.0
C169 C 0.26599 0.79942 0.72818 0.0
H170 H 0.20382 0.85747 0.65163 0.0
C171 C 0.23703 0.7624 0.73478 0.0
C172 C 0.19645 0.75853 0.71061 0.0
H173 H 0.29704 0.80113 0.74724 0.0
H174 H 0.24726 0.73611 0.75788 0.0
C175 C 0.18489 0.79342 0.68072 0.0
C176 C 0.72859 0.76368 0.34914 0.0
C177 C 0.71852 0.79143 0.38671 0.0
H178 H 0.77243 0.71361 0.32068 0.0
C179 C 0.74197 0.7845 0.42723 0.0
H180 H 0.71119 0.768 0.31737 0.0
C181 C 0.77709 0.75333 0.42911 0.0
C182 C 0.78974 0.72839 0.39048 0.0
H183 H 0.73489 0.80497 0.45693 0.0
H184 H 0.79586 0.75066 0.46028 0.0
C185 C 0.76389 0.73254 0.35098 0.0
C186 C 0.84576 0.2172 0.66964 0.0
C187 C 0.83942 0.25126 0.70259 0.0
H188 H 0.82912 0.14972 0.64751 0.0
C189 C 0.81745 0.23976 0.74308 0.0
H190 H 0.86308 0.22468 0.63829 0.0
C191 C 0.79816 0.19661 0.74848 0.0
C192 C 0.80025 0.16413 0.7134 0.0
H193 H 0.81247 0.26497 0.76943 0.0
H194 H 0.77868 0.19005 0.77875 0.0
C195 C 0.82638 0.17407 0.67499 0.0
C196 C 0.37703 0.29413 0.26161 0.0
C197 C 0.38824 0.27954 0.21758 0.0
H198 H 0.36974 0.27556 0.33147 0.0
C199 C 0.40664 0.23607 0.21176 0.0
H200 H 0.36296 0.32747 0.2673 0.0
C201 C 0.41007 0.20653 0.2482 0.0
C202 C 0.3961 0.21992 0.29156 0.0
H203 H 0.41602 0.2237 0.17853 0.0
H204 H 0.42162 0.17224 0.24201 0.0
C205 C 0.38123 0.2646 0.29842 0.0
C206 C 0.31277 0.64854 0.76997 0.0
C207 C 0.31381 0.62999 0.81363 0.0
H208 H 0.27965 0.64987 0.70581 0.0
C209 C 0.28508 0.59309 0.82343 0.0
H210 H 0.33459 0.6768 0.76113 0.0
C211 C 0.25356 0.57762 0.79166 0.0
C212 C 0.25013 0.59849 0.74925 0.0
H213 H 0.28519 0.57767 0.85654 0.0
H214 H 0.23016 0.55095 0.80133 0.0
C215 C 0.2814 0.63283 0.73805 0.0
C216 C 0.69085 0.8219 0.1198 0.0
C217 C 0.73539 0.80776 0.12631 0.0
H218 H 0.636 0.86105 0.14533 0.0
C219 C 0.76143 0.82988 0.15969 0.0
H220 H 0.66987 0.80602 0.09416 0.0
C221 C 0.74194 0.86158 0.18911 0.0
C222 C 0.69596 0.87174 0.18581 0.0
H223 H 0.796 0.82025 0.16539 0.0
H224 H 0.76209 0.87534 0.21652 0.0
C225 C 0.67133 0.85347 0.1493 0.0
C226 C 0.69636 0.4996 0.73259 0.0
C227 C 0.66462 0.46453 0.73934 0.0
H228 H 0.75813 0.52008 0.70119 0.0
C229 C 0.66809 0.42465 0.71306 0.0
H230 H 0.69454 0.5309 0.75197 0.0
C231 C 0.70486 0.41826 0.68414 0.0
C232 C 0.73879 0.45173 0.68063 0.0
H233 H 0.64424 0.39692 0.71721 0.0
H234 H 0.70797 0.38602 0.6666 0.0
C235 C 0.73298 0.49331 0.70351 0.0
C236 C 0.27637 0.86257 0.85607 0.0
C237 C 0.31666 0.8868 0.84822 0.0
H238 H 0.245 0.80433 0.88597 0.0
C239 C 0.35566 0.87362 0.87128 0.0
H240 H 0.2456 0.87177 0.83907 0.0
C241 C 0.35528 0.83479 0.89827 0.0
C242 C 0.31591 0.80823 0.90271 0.0
H243 H 0.38722 0.89161 0.86625 0.0
H244 H 0.38652 0.82417 0.91345 0.0
C245 C 0.27604 0.82366 0.88289 0.0
C246 C 0.82722 0.67866 0.21838 0.0
C247 C 0.83833 0.65515 0.17832 0.0
H248 H 0.85196 0.71744 0.27504 0.0
C249 C 0.88394 0.64713 0.16872 0.0
H250 H 0.7925 0.68595 0.22653 0.0
C251 C 0.91767 0.66506 0.19657 0.0
C252 C 0.90659 0.69055 0.23511 0.0
H253 H 0.89377 0.62912 0.13827 0.0
H254 H 0.95254 0.66049 0.18701 0.0
C255 C 0.86118 0.69638 0.24645 0.0
C256 C 0.65667 0.22699 0.75053 0.0
C257 C 0.6257 0.19056 0.74936 0.0
H258 H 0.6732 0.29257 0.77827 0.0
C259 C 0.58721 0.19247 0.77684 0.0
H260 H 0.68705 0.22609 0.73028 0.0
C261 C 0.57914 0.2306 0.80401 0.0
C262 C 0.60999 0.26708 0.80515 0.0
H263 H 0.56299 0.16471 0.77688 0.0
H264 H 0.54861 0.23163 0.82401 0.0
C265 C 0.64911 0.26471 0.77852 0.0
C266 C 0.16622 0.31504 0.14305 0.0
C267 C 0.2013 0.28331 0.14242 0.0
H268 H 0.10134 0.33234 0.16911 0.0
C269 C 0.1936 0.24046 0.16178 0.0
H270 H 0.17076 0.34822 0.12805 0.0
C271 C 0.15364 0.23127 0.18521 0.0
C272 C 0.12051 0.26476 0.18996 0.0
H273 H 0.21959 0.21497 0.16144 0.0
H274 H 0.15023 0.19902 0.20233 0.0
C275 C 0.12625 0.30586 0.16656 0.0
C276 C 0.89916 0.29295 0.46551 0.0
C277 C 0.89506 0.33475 0.48875 0.0
H278 H 0.93222 0.25616 0.41192 0.0
C279 C 0.91751 0.3731 0.47157 0.0
H280 H 0.8821 0.26277 0.47774 0.0
C281 C 0.9462 0.3691 0.43448 0.0
C282 C 0.95271 0.32687 0.41316 0.0
H283 H 0.91492 0.40588 0.48819 0.0
H284 H 0.9648 0.39893 0.42356 0.0
C285 C 0.92764 0.2891 0.42775 0.0
C286 C 0.39233 0.09844 0.57086 0.0
C287 C 0.3503 0.09629 0.54934 0.0
H288 H 0.43259 0.07627 0.62621 0.0
C289 C 0.31462 0.0733 0.57103 0.0
H290 H 0.42048 0.11596 0.55523 0.0
C291 C 0.32152 0.0504 0.61162 0.0
C292 C 0.36427 0.05001 0.63165 0.0
H293 H 0.28162 0.07126 0.55567 0.0
H294 H 0.29378 0.03136 0.6262 0.0
C295 C 0.39922 0.0756 0.61161 0.0
C296 C 0.08288 0.63676 0.50158 0.0
C297 C 0.06276 0.65498 0.54058 0.0
H298 H 0.07655 0.62294 0.43068 0.0
C299 C 0.02004 0.67476 0.537 0.0
H300 H 0.11571 0.62129 0.5032 0.0
C301 C 0.99758 0.67563 0.49564 0.0
C302 C 0.01729 0.65684 0.45674 0.0
H303 H 1.0035 0.68923 0.56632 0.0
H304 H 0.96454 0.69072 0.49432 0.0
C305 C 0.06037 0.63772 0.46005 0.0
C306 C 0.73283 0.01361 0.49714 0.0
C307 C 0.70494 0.04582 0.51816 0.0
H308 H 0.74399 0.97069 0.43952 0.0
C309 C 0.66801 0.06248 0.49407 0.0
H310 H 0.76169 1.00016 0.51461 0.0
C311 C 0.65802 0.04573 0.4508 0.0
C312 C 0.68458 0.01177 0.43075 0.0
H313 H 0.64596 0.08744 0.50915 0.0
H314 H 0.62843 0.05821 0.43384 0.0
C315 C 0.72271 0.99668 0.454 0.0
C316 C 0.45389 0.99313 0.38026 0.0
C317 C 0.45757 0.03227 0.3536 0.0
H318 H 0.48347 0.92965 0.39856 0.0
C319 C 0.49087 0.03416 0.31994 0.0
H320 H 0.42871 0.99095 0.40669 0.0
C321 C 0.52162 0.99894 0.31473 0.0
C322 C 0.52049 0.9614 0.34382 0.0
H323 H 0.49437 0.06389 0.29882 0.0
H324 H 0.54805 1.00266 0.28974 0.0
C325 C 0.48539 0.95816 0.37572 0.0
C326 C 0.06431 0.46674 0.67422 0.0
C327 C 0.05445 0.51298 0.6803 0.0
H328 H 0.03894 0.39932 0.66371 0.0
C329 C 0.00921 0.52582 0.68446 0.0
H330 H 0.09881 0.45562 0.67122 0.0
C331 C 0.97457 0.49332 0.67979 0.0
C332 C 0.98457 0.44738 0.67118 0.0
H333 H 1.00051 0.56119 0.68901 0.0
H334 H 0.94001 0.50449 0.68122 0.0
C335 C 0.02988 0.43437 0.66988 0.0
C336 C 0.5853 0.98377 0.73355 0.0
C337 C 0.59672 0.9788 0.68767 0.0
H338 H 0.53534 0.9737 0.78473 0.0
C339 C 0.56779 0.95344 0.65934 0.0
H340 H 0.60691 1.00284 0.7564 0.0
C341 C 0.52662 0.93687 0.67554 0.0
C342 C 0.51352 0.94518 0.72047 0.0
H343 H 0.57569 0.94857 0.62389 0.0
H344 H 0.50406 0.91972 0.65214 0.0
C345 C 0.54415 0.96709 0.74978 0.0
C346 C 0.97915 0.51031 0.32715 0.0
C347 C 0.97721 0.53987 0.29022 0.0
H348 H 0.99989 0.44549 0.3515 0.0
C349 C 0.99523 0.526 0.24848 0.0
H350 H 0.9661 0.52046 0.35987 0.0
C351 C 0.01398 0.48285 0.2435 0.0
C352 C 0.0164 0.45349 0.28057 0.0
H353 H 0.99437 0.54834 0.21959 0.0
H354 H 0.02676 0.4725 0.21074 0.0
C355 C 0.99909 0.46773 0.32252 0.0
C356 C 0.2425 0.51783 0.05421 0.0
C357 C 0.27675 0.50426 0.08375 0.0
H358 H 0.22084 0.56664 1.0059 0.0
C359 C 0.31248 0.53457 0.0928 0.0
H360 H 0.21416 0.49558 0.04688 0.0
C361 C 0.31606 0.57564 0.06953 0.0
C362 C 0.28416 0.58696 0.03649 0.0
H363 H 0.33917 0.5254 0.11574 0.0
H364 H 0.34554 0.59683 0.07516 0.0
C365 C 0.24626 0.55868 0.03069 0.0
C366 C 0.50901 0.65651 0.06132 0.0
C367 C 0.49555 0.65803 0.01572 0.0
H368 H 0.56407 0.65529 0.10811 0.0
C369 C 0.52861 0.65681 0.98187 0.0
H370 H 0.48432 0.65712 0.08827 0.0
C371 C 0.57409 0.65581 0.99329 0.0
C372 C 0.58768 0.65584 0.03883 0.0
H373 H 0.51946 0.65766 0.94648 0.0
H374 H 0.59868 0.65581 0.96623 0.0
C375 C 0.55466 0.6553 0.07277 0.0
C376 C 0.70148 0.52022 0.93838 0.0
C377 C 0.70383 0.47431 0.95106 0.0
H378 H 0.71293 0.58975 0.95749 0.0
C379 C 0.72491 0.46352 0.99196 0.0
H380 H 0.68583 0.52967 0.90685 0.0
C381 C 0.74024 0.49801 0.02107 0.0
C382 C 0.7354 0.544 0.00963 0.0
H383 H 0.72745 0.42854 1.00266 0.0
H384 H 0.75411 0.48868 0.05347 0.0
C385 C 0.71737 0.5547 0.96724 0.0
C386 C 0.43122 0.37573 0.98564 0.0
C387 C 0.44212 0.37211 0.03174 0.0
H388 H 0.45625 0.38344 0.91772 0.0
C389 C 0.48761 0.37156 0.04423 0.0
H390 H 0.3964 0.37661 0.97508 0.0
C391 C 0.52149 0.37489 0.01173 0.0
C392 C 0.51097 0.37974 0.96575 0.0
H393 H 0.49716 0.36874 0.0794 0.0
H394 H 0.55614 0.37455 0.02295 0.0
C395 C 0.46541 0.38 0.95291 0.0
loop_
_geom_bond_atom_site_label_1
_geom_bond_atom_site_label_2
_geom_bond_distance
_geom_bond_site_symmetry_2
_ccdc_geom_bond_type
Mg0 O7 2.141 . S
Mg0 O8 2.048 . S
Mg0 O9 2.048 . S
Mg0 O12 2.141 . S
C1 O2 1.313 . S
C1 O8 1.195 . S
O2 C1 1.313 . S
C3 O4 1.245 . S
C3 O12 1.289 1_655 S
O4 C3 1.245 . S
C5 O6 1.245 . S
C5 O7 1.289 . S
O6 C5 1.245 . S
O7 Mg0 2.141 . S
O7 C5 1.289 . S
O8 Mg0 2.048 . S
O8 C1 1.195 . S
O9 Mg0 2.048 . S
O9 C10 1.195 1_455 S
C10 O9 1.195 1_655 S
C10 O11 1.313 . S
O11 C10 1.313 . S
O12 Mg0 2.141 . S
O12 C3 1.289 1_455 S
Mg13 O20 2.141 . S
Mg13 O21 2.048 . S
Mg13 O22 2.048 . S
Mg13 O25 2.141 . S
C14 O15 1.313 . S
C14 O21 1.195 . S
O15 C14 1.313 . S
C16 O17 1.245 . S
C16 O25 1.289 1_545 S
O17 C16 1.245 . S
C18 O19 1.245 . S
C18 O20 1.289 . S
O19 C18 1.245 . S
O20 Mg13 2.141 . S
O20 C18 1.289 . S
O21 Mg13 2.048 . S
O21 C14 1.195 . S
O22 Mg13 2.048 . S
O22 C23 1.195 1_565 S
C23 O22 1.195 1_545 S
C23 O24 1.313 . S
O24 C23 1.313 . S
O25 Mg13 2.141 . S
O25 C16 1.289 1_565 S
Mg26 O33 2.141 . S
Mg26 O34 2.048 . S
Mg26 O35 2.048 . S
Mg26 O38 2.141 . S
C27 O28 1.313 . S
C27 O34 1.195 . S
O28 C27 1.313 . S
C29 O30 1.245 . S
C29 O38 1.289 1_455 S
O30 C29 1.245 . S
C31 O32 1.245 . S
C31 O33 1.289 . S
O32 C31 1.245 . S
O33 Mg26 2.141 . S
O33 C31 1.289 . S
O34 Mg26 2.048 . S
O34 C27 1.195 . S
O35 Mg26 2.048 . S
O35 C36 1.195 . S
C36 O35 1.195 . S
C36 O37 1.313 1_655 S
O37 C36 1.313 1_455 S
O38 Mg26 2.141 . S
O38 C29 1.289 1_655 S
Mg39 O46 2.141 . S
Mg39 O47 2.048 . S
Mg39 O48 2.048 . S
Mg39 O51 2.141 . S
C40 O41 1.313 . S
C40 O47 1.195 1_565 S
O41 C40 1.313 . S
C42 O43 1.245 . S
C42 O51 1.289 . S
O43 C42 1.245 . S
C44 O45 1.245 . S
C44 O46 1.289 1_565 S
O45 C44 1.245 . S
O46 Mg39 2.141 . S
O46 C44 1.289 1_545 S
O47 Mg39 2.048 . S
O47 C40 1.195 1_545 S
O48 Mg39 2.048 . S
O48 C49 1.195 . S
C49 O48 1.195 . S
C49 O50 1.313 . S
O50 C49 1.313 . S
O51 Mg39 2.141 . S
O51 C42 1.289 . S
Mg52 O59 2.141 . S
Mg52 O60 2.048 . S
Mg52 O61 2.048 . S
Mg52 O64 2.141 . S
C53 O54 1.313 . S
C53 O60 1.195 1_655 S
O54 C53 1.313 . S
C55 O56 1.245 . S
C55 O64 1.289 . S
O56 C55 1.245 . S
C57 O58 1.245 . S
C57 O59 1.289 1_655 S
O58 C57 1.245 . S
O59 Mg52 2.141 . S
O59 C57 1.289 1_455 S
O60 Mg52 2.048 . S
O60 C53 1.195 1_455 S
O61 Mg52 2.048 . S
O61 C62 1.195 . S
C62 O61 1.195 . S
C62 O63 1.313 . S
O63 C62 1.313 . S
O64 Mg52 2.141 . S
O64 C55 1.289 . S
Mg65 O72 2.141 . S
Mg65 O73 2.048 . S
Mg65 O74 2.048 1_565 S
Mg65 O77 2.141 1_565 S
C66 O67 1.313 . S
C66 O73 1.195 . S
O67 C66 1.313 . S
C68 O69 1.254 . S
C68 O77 1.286 1_565 S
O69 C68 1.254 . S
C70 O71 1.245 . S
C70 O72 1.289 . S
O71 C70 1.245 . S
O72 Mg65 2.141 . S
O72 C70 1.289 . S
O73 Mg65 2.048 . S
O73 C66 1.195 . S
O74 Mg65 2.048 1_545 S
O74 C75 1.195 1_545 S
C75 O74 1.195 1_565 S
C75 O76 1.313 . S
O76 C75 1.313 . S
O77 Mg65 2.141 1_545 S
O77 C68 1.286 1_545 S
Mg78 O85 2.141 . S
Mg78 O86 2.048 . S
Mg78 O87 2.048 . S
Mg78 O90 2.141 . S
C79 O80 1.313 . S
C79 O86 1.195 1_455 S
O80 C79 1.313 . S
C81 O82 1.245 . S
C81 O90 1.289 . S
O82 C81 1.245 . S
C83 O84 1.245 . S
C83 O85 1.289 1_455 S
O84 C83 1.245 . S
O85 Mg78 2.141 . S
O85 C83 1.289 1_655 S
O86 Mg78 2.048 . S
O86 C79 1.195 1_655 S
O87 Mg78 2.048 . S
O87 C88 1.195 . S
C88 O87 1.195 . S
C88 O89 1.313 . S
O89 C88 1.313 . S
O90 Mg78 2.141 . S
O90 C81 1.289 . S
Mg91 O98 2.141 . S
Mg91 O99 2.048 . S
Mg91 O100 2.048 . S
Mg91 O103 2.141 . S
C92 O93 1.313 . S
C92 O99 1.195 . S
O93 C92 1.313 . S
C94 O95 1.245 . S
C94 O103 1.289 1_565 S
O95 C94 1.245 . S
C96 O97 1.245 . S
C96 O98 1.289 . S
O97 C96 1.245 . S
O98 Mg91 2.141 . S
O98 C96 1.289 . S
O99 Mg91 2.048 . S
O99 C92 1.195 . S
O100 Mg91 2.048 . S
O100 C101 1.195 . S
C101 O100 1.195 . S
C101 O102 1.313 1_545 S
O102 C101 1.313 1_565 S
O103 Mg91 2.141 . S
O103 C94 1.289 1_545 S
Mg104 O111 2.141 . S
Mg104 O112 2.048 . S
Mg104 O113 2.048 . S
Mg104 O116 2.141 . S
C105 O106 1.313 . S
C105 O112 1.195 1_556 S
O106 C105 1.313 . S
C107 O108 1.245 . S
C107 O116 1.289 . S
O108 C107 1.245 . S
C109 O110 1.245 . S
C109 O111 1.289 1_556 S
O110 C109 1.245 . S
O111 Mg104 2.141 . S
O111 C109 1.289 1_554 S
O112 Mg104 2.048 . S
O112 C105 1.195 1_554 S
O113 Mg104 2.048 . S
O113 C114 1.195 . S
C114 O113 1.195 . S
C114 O115 1.313 . S
O115 C114 1.313 . S
O116 Mg104 2.141 . S
O116 C107 1.289 . S
Mg117 O124 2.141 . S
Mg117 O125 2.048 . S
Mg117 O126 2.048 . S
Mg117 O129 2.141 . S
C118 O119 1.313 . S
C118 O125 1.195 . S
O119 C118 1.313 . S
C120 O121 1.245 . S
C120 O129 1.289 1_554 S
O121 C120 1.245 . S
C122 O123 1.245 . S
C122 O124 1.289 . S
O123 C122 1.245 . S
O124 Mg117 2.141 . S
O124 C122 1.289 . S
O125 Mg117 2.048 . S
O125 C118 1.195 . S
O126 Mg117 2.048 . S
O126 C127 1.214 . S
C127 O126 1.214 . S
C127 O128 1.299 1_556 S
O128 C127 1.299 1_554 S
O129 Mg117 2.141 . S
O129 C120 1.289 1_556 S
Mg130 O137 2.141 . S
Mg130 O138 2.048 . S
Mg130 O139 2.048 . S
Mg130 O142 2.141 . S
C131 O132 1.313 . S
C131 O138 1.195 1_556 S
O132 C131 1.313 . S
C133 O134 1.245 . S
C133 O142 1.289 . S
O134 C133 1.245 . S
C135 O136 1.245 . S
C135 O137 1.289 1_556 S
O136 C135 1.245 . S
O137 Mg130 2.141 . S
O137 C135 1.289 1_554 S
O138 Mg130 2.048 . S
O138 C131 1.195 1_554 S
O139 Mg130 2.048 . S
O139 C140 1.195 . S
C140 O139 1.195 . S
C140 O141 1.313 . S
O141 C140 1.313 . S
O142 Mg130 2.141 . S
O142 C133 1.289 . S
Mg143 O150 2.141 . S
Mg143 O151 2.048 . S
Mg143 O152 2.048 . S
Mg143 O155 2.141 . S
C144 O145 1.313 . S
C144 O151 1.195 . S
O145 C144 1.313 . S
C146 O147 1.245 . S
C146 O155 1.289 1_554 S
O147 C146 1.245 . S
C148 O149 1.245 . S
C148 O150 1.289 . S
O149 C148 1.245 . S
O150 Mg143 2.141 . S
O150 C148 1.289 . S
O151 Mg143 2.048 . S
O151 C144 1.195 . S
O152 Mg143 2.048 . S
O152 C153 1.195 1_556 S
C153 O152 1.195 1_554 S
C153 O154 1.313 . S
O154 C153 1.313 . S
O155 Mg143 2.141 . S
O155 C146 1.289 1_556 S
C156 C157 1.387 . S
C156 H160 0.950 . S
C156 C165 1.390 . S
C157 C156 1.387 . S
C157 C159 1.387 . S
H158 C165 0.950 . S
C159 C157 1.387 . S
C159 C161 1.390 . S
C159 H163 0.950 . S
H160 C156 0.950 . S
C161 C159 1.390 . S
C161 C162 1.387 . S
C161 H164 0.950 . S
C162 C161 1.387 . S
C162 C165 1.387 . S
H163 C159 0.950 . S
H164 C161 0.950 . S
C165 C156 1.390 . S
C165 H158 0.950 . S
C165 C162 1.387 . S
C166 C167 1.387 . S
C166 H170 0.950 . S
C166 C175 1.390 . S
C167 C166 1.387 . S
C167 C169 1.387 . S
H168 C175 0.950 . S
C169 C167 1.387 . S
C169 C171 1.390 . S
C169 H173 0.950 . S
H170 C166 0.950 . S
C171 C169 1.390 . S
C171 C172 1.387 . S
C171 H174 0.950 . S
C172 C171 1.387 . S
C172 C175 1.387 . S
H173 C169 0.950 . S
H174 C171 0.950 . S
C175 C166 1.390 . S
C175 H168 0.950 . S
C175 C172 1.387 . S
C176 C177 1.387 . S
C176 H180 0.950 . S
C176 C185 1.390 . S
C177 C176 1.387 . S
C177 C179 1.387 . S
H178 C185 0.950 . S
C179 C177 1.387 . S
C179 C181 1.390 . S
C179 H183 0.950 . S
H180 C176 0.950 . S
C181 C179 1.390 . S
C181 C182 1.387 . S
C181 H184 0.950 . S
C182 C181 1.387 . S
C182 C185 1.387 . S
H183 C179 0.950 . S
H184 C181 0.950 . S
C185 C176 1.390 . S
C185 H178 0.950 . S
C185 C182 1.387 . S
C186 C187 1.387 . S
C186 H190 0.950 . S
C186 C195 1.390 . S
C187 C186 1.387 . S
C187 C189 1.387 . S
H188 C195 0.950 . S
C189 C187 1.387 . S
C189 C191 1.390 . S
C189 H193 0.950 . S
H190 C186 0.950 . S
C191 C189 1.390 . S
C191 C192 1.387 . S
C191 H194 0.950 . S
C192 C191 1.387 . S
C192 C195 1.387 . S
H193 C189 0.950 . S
H194 C191 0.950 . S
C195 C186 1.390 . S
C195 H188 0.950 . S
C195 C192 1.387 . S
C196 C197 1.387 . S
C196 H200 0.950 . S
C196 C205 1.390 . S
C197 C196 1.387 . S
C197 C199 1.387 . S
H198 C205 0.950 . S
C199 C197 1.387 . S
C199 C201 1.390 . S
C199 H203 0.950 . S
H200 C196 0.950 . S
C201 C199 1.390 . S
C201 C202 1.387 . S
C201 H204 0.950 . S
C202 C201 1.387 . S
C202 C205 1.387 . S
H203 C199 0.950 . S
H204 C201 0.950 . S
C205 C196 1.390 . S
C205 H198 0.950 . S
C205 C202 1.387 . S
C206 C207 1.387 . S
C206 H210 0.950 . S
C206 C215 1.390 . S
C207 C206 1.387 . S
C207 C209 1.387 . S
H208 C215 0.950 . S
C209 C207 1.387 . S
C209 C211 1.390 . S
C209 H213 0.950 . S
H210 C206 0.950 . S
C211 C209 1.390 . S
C211 C212 1.387 . S
C211 H214 0.950 . S
C212 C211 1.387 . S
C212 C215 1.387 . S
H213 C209 0.950 . S
H214 C211 0.950 . S
C215 C206 1.390 . S
C215 H208 0.950 . S
C215 C212 1.387 . S
C216 C217 1.387 . S
C216 H220 0.950 . S
C216 C225 1.390 . S
C217 C216 1.387 . S
C217 C219 1.387 . S
H218 C225 0.950 . S
C219 C217 1.387 . S
C219 C221 1.390 . S
C219 H223 0.950 . S
H220 C216 0.950 . S
C221 C219 1.390 . S
C221 C222 1.387 . S
C221 H224 0.950 . S
C222 C221 1.387 . S
C222 C225 1.387 . S
H223 C219 0.950 . S
H224 C221 0.950 . S
C225 C216 1.390 . S
C225 H218 0.950 . S
C225 C222 1.387 . S
C226 C227 1.387 . S
C226 H230 0.950 . S
C226 C235 1.390 . S
C227 C226 1.387 . S
C227 C229 1.387 . S
H228 C235 0.950 . S
C229 C227 1.387 . S
C229 C231 1.390 . S
C229 H233 0.950 . S
H230 C226 0.950 . S
C231 C229 1.390 . S
C231 C232 1.387 . S
C231 H234 0.950 . S
C232 C231 1.387 . S
C232 C235 1.387 . S
H233 C229 0.950 . S
H234 C231 0.950 . S
C235 C226 1.390 . S
C235 H228 0.950 . S
C235 C232 1.387 . S
C236 C237 1.387 . S
C236 H240 0.950 . S
C236 C245 1.390 . S
C237 C236 1.387 . S
C237 C239 1.387 . S
H238 C245 0.950 . S
C239 C237 1.387 . S
C239 C241 1.390 . S
C239 H243 0.950 . S
H240 C236 0.950 . S
C241 C239 1.390 . S
C241 C242 1.387 . S
C241 H244 0.950 . S
C242 C241 1.387 . S
C242 C245 1.387 . S
H243 C239 0.950 . S
H244 C241 0.950 . S
C245 C236 1.390 . S
C245 H238 0.950 . S
C245 C242 1.387 . S
C246 C247 1.387 . S
C246 H250 0.950 . S
C246 C255 1.390 . S
C247 C246 1.387 . S
C247 C249 1.387 . S
H248 C255 0.950 . S
C249 C247 1.387 . S
C249 C251 1.390 . S
C249 H253 0.950 . S
H250 C246 0.950 . S
C251 C249 1.390 . S
C251 C252 1.387 . S
C251 H254 0.950 . S
C252 C251 1.387 . S
C252 C255 1.387 . S
H253 C249 0.950 . S
H254 C251 0.950 . S
C255 C246 1.390 . S
C255 H248 0.950 . S
C255 C252 1.387 . S
C256 C257 1.387 . S
C256 H260 0.950 . S
C256 C265 1.390 . S
C257 C256 1.387 . S
C257 C259 1.387 . S
H258 C265 0.950 . S
C259 C257 1.387 . S
C259 C261 1.390 . S
C259 H263 0.950 . S
H260 C256 0.950 . S
C261 C259 1.390 . S
C261 C262 1.387 . S
C261 H264 0.950 . S
C262 C261 1.387 . S
C262 C265 1.387 . S
H263 C259 0.950 . S
H264 C261 0.950 . S
C265 C256 1.390 . S
C265 H258 0.950 . S
C265 C262 1.387 . S
C266 C267 1.387 . S
C266 H270 0.950 . S
C266 C275 1.390 . S
C267 C266 1.387 . S
C267 C269 1.387 . S
H268 C275 0.950 . S
C269 C267 1.387 . S
C269 C271 1.390 . S
C269 H273 0.950 . S
H270 C266 0.950 . S
C271 C269 1.390 . S
C271 C272 1.387 . S
C271 H274 0.950 . S
C272 C271 1.387 . S
C272 C275 1.387 . S
H273 C269 0.950 . S
H274 C271 0.950 . S
C275 C266 1.390 . S
C275 H268 0.950 . S
C275 C272 1.387 . S
C276 C277 1.387 . S
C276 H280 0.950 . S
C276 C285 1.390 1_455 S
C277 C276 1.387 . S
C277 C279 1.387 . S
H278 C285 0.950 . S
C279 C277 1.387 . S
C279 C281 1.387 1_455 S
C279 H283 0.950 . S
H280 C276 0.950 . S
C281 C279 1.387 1_655 S
C281 C282 1.390 . S
C281 H284 0.951 . S
C282 C281 1.390 . S
C282 C285 1.387 . S
H283 C279 0.950 . S
H284 C281 0.951 . S
C285 C276 1.390 1_655 S
C285 H278 0.950 . S
C285 C282 1.387 . S
C286 C287 1.387 1_545 S
C286 H290 0.950 . S
C286 C295 1.390 . S
C287 C286 1.387 1_565 S
C287 C289 1.387 . S
H288 C295 0.950 . S
C289 C287 1.387 . S
C289 C291 1.390 . S
C289 H293 0.950 . S
H290 C286 0.950 . S
C291 C289 1.390 . S
C291 C292 1.387 1_565 S
C291 H294 0.950 . S
C292 C291 1.387 1_545 S
C292 C295 1.387 . S
H293 C289 0.950 . S
H294 C291 0.950 . S
C295 C286 1.390 . S
C295 H288 0.950 . S
C295 C292 1.387 . S
C296 C297 1.387 1_455 S
C296 H300 0.950 . S
C296 C305 1.390 . S
C297 C296 1.387 1_655 S
C297 C299 1.387 . S
H298 C305 0.950 . S
C299 C297 1.387 . S
C299 C301 1.390 . S
C299 H303 0.950 . S
H300 C296 0.950 . S
C301 C299 1.390 . S
C301 C302 1.387 . S
C301 H304 0.950 . S
C302 C301 1.387 . S
C302 C305 1.387 1_655 S
H303 C299 0.950 . S
H304 C301 0.950 . S
C305 C296 1.390 . S
C305 H298 0.950 . S
C305 C302 1.387 1_455 S
C306 C307 1.387 . S
C306 H310 0.950 . S
C306 C315 1.390 . S
C307 C306 1.387 . S
C307 C309 1.387 1_565 S
H308 C315 0.950 . S
C309 C307 1.387 1_545 S
C309 C311 1.390 . S
C309 H313 0.950 . S
H310 C306 0.950 . S
C311 C309 1.390 . S
C311 C312 1.387 . S
C311 H314 0.950 . S
C312 C311 1.387 . S
C312 C315 1.387 1_545 S
H313 C309 0.950 . S
H314 C311 0.950 . S
C315 C306 1.390 . S
C315 H308 0.950 . S
C315 C312 1.387 1_565 S
C316 C317 1.388 . S
C316 H320 0.950 . S
C316 C325 1.389 1_565 S
C317 C316 1.388 . S
C317 C319 1.385 1_565 S
H318 C325 0.949 1_565 S
C319 C317 1.385 1_545 S
C319 C321 1.390 . S
C319 H323 0.950 . S
H320 C316 0.950 . S
C321 C319 1.390 . S
C321 C322 1.387 . S
C321 H324 0.950 . S
C322 C321 1.387 . S
C322 C325 1.390 . S
H323 C319 0.950 . S
H324 C321 0.950 . S
C325 C316 1.389 1_545 S
C325 H318 0.949 1_545 S
C325 C322 1.390 . S
C326 C327 1.387 . S
C326 H330 0.950 . S
C326 C335 1.388 1_655 S
C327 C326 1.387 . S
C327 C329 1.387 . S
H328 C335 0.951 . S
C329 C327 1.387 . S
C329 C331 1.388 1_655 S
C329 H333 0.950 . S
H330 C326 0.950 . S
C331 C329 1.388 1_455 S
C331 C332 1.388 . S
C331 H334 0.951 . S
C332 C331 1.388 . S
C332 C335 1.388 . S
H333 C329 0.950 . S
H334 C331 0.951 . S
C335 C326 1.388 1_455 S
C335 H328 0.951 . S
C335 C332 1.388 . S
C336 C337 1.387 1_545 S
C336 H340 0.950 . S
C336 C345 1.390 . S
C337 C336 1.387 1_565 S
C337 C339 1.387 . S
H338 C345 0.950 . S
C339 C337 1.387 . S
C339 C341 1.390 . S
C339 H343 0.950 . S
H340 C336 0.950 . S
C341 C339 1.390 . S
C341 C342 1.387 1_565 S
C341 H344 0.950 . S
C342 C341 1.387 1_545 S
C342 C345 1.387 . S
H343 C339 0.950 . S
H344 C341 0.950 . S
C345 C336 1.390 . S
C345 H338 0.950 . S
C345 C342 1.387 . S
C346 C347 1.387 1_655 S
C346 H350 0.950 . S
C346 C355 1.390 . S
C347 C346 1.387 1_455 S
C347 C349 1.387 . S
H348 C355 0.950 . S
C349 C347 1.387 . S
C349 C351 1.390 1_455 S
C349 H353 0.950 . S
H350 C346 0.950 . S
C351 C349 1.390 1_655 S
C351 C352 1.387 . S
C351 H354 0.950 . S
C352 C351 1.387 . S
C352 C355 1.387 . S
H353 C349 0.950 . S
H354 C351 0.950 . S
C355 C346 1.390 . S
C355 H348 0.950 . S
C355 C352 1.387 . S
C356 C357 1.387 . S
C356 H360 0.950 . S
C356 C365 1.390 . S
C357 C356 1.387 . S
C357 C359 1.387 1_556 S
H358 C365 0.950 . S
C359 C357 1.387 1_554 S
C359 C361 1.390 . S
C359 H363 0.950 . S
H360 C356 0.950 . S
C361 C359 1.390 . S
C361 C362 1.387 . S
C361 H364 0.950 . S
C362 C361 1.387 . S
C362 C365 1.387 1_554 S
H363 C359 0.950 . S
H364 C361 0.950 . S
C365 C356 1.390 . S
C365 H358 0.950 . S
C365 C362 1.387 1_556 S
C366 C367 1.387 1_556 S
C366 H370 0.949 1_556 S
C366 C375 1.391 . S
C367 C366 1.387 1_554 S
C367 C369 1.388 . S
H368 C375 0.950 . S
C369 C367 1.388 . S
C369 C371 1.390 1_554 S
C369 H373 0.950 . S
H370 C366 0.949 1_554 S
C371 C369 1.390 1_556 S
C371 C372 1.387 . S
C371 H374 0.950 . S
C372 C371 1.387 . S
C372 C375 1.387 . S
H373 C369 0.950 . S
H374 C371 0.950 . S
C375 C366 1.391 . S
C375 H368 0.950 . S
C375 C372 1.387 . S
C376 C377 1.387 1_556 S
C376 H380 0.950 . S
C376 C385 1.390 . S
C377 C376 1.387 1_554 S
C377 C379 1.387 . S
H378 C385 0.950 . S
C379 C377 1.387 . S
C379 C381 1.390 . S
C379 H383 0.950 . S
H380 C376 0.950 . S
C381 C379 1.390 . S
C381 C382 1.387 1_554 S
C381 H384 0.950 . S
C382 C381 1.387 1_556 S
C382 C385 1.387 . S
H383 C379 0.950 . S
H384 C381 0.950 . S
C385 C376 1.390 . S
C385 H378 0.950 . S
C385 C382 1.387 . S
C386 C387 1.387 . S
C386 H390 0.950 . S
C386 C395 1.390 . S
C387 C386 1.387 . S
C387 C389 1.387 1_556 S
H388 C395 0.950 . S
C389 C387 1.387 1_554 S
C389 C391 1.390 . S
C389 H393 0.950 . S
H390 C386 0.950 . S
C391 C389 1.390 . S
C391 C392 1.387 . S
C391 H394 0.950 . S
C392 C391 1.387 . S
C392 C395 1.387 1_554 S
H393 C389 0.950 . S
H394 C391 0.950 . S
C395 C386 1.390 . S
C395 H388 0.950 . S
C395 C392 1.387 1_556 S
C157 C1 1.545 . S
C162 C96 1.548 . S
C167 C18 1.532 . S
C172 C55 1.533 . S
C177 C66 1.565 . S
C182 C27 1.605 . S
C187 C81 1.594 . S
C192 C49 1.591 . S
C197 C114 1.614 . S
C202 C92 1.615 . S
C207 C118 1.640 . S
C212 C62 1.636 . S
C217 C140 1.600 . S
C222 C70 1.549 . S
C227 C144 1.619 . S
C232 C88 1.619 . S
C237 C14 1.536 . S
C242 C122 1.538 . S
C247 C133 1.500 . S
C252 C31 1.504 . S
C257 C42 1.523 . S
C262 C148 1.525 . S
C267 C107 1.520 . S
C272 C5 1.519 . S
C277 C83 1.896 . S
C282 C10 1.885 . S
C287 C94 1.858 . S
C292 C16 1.857 . S
C297 C57 1.893 . S
C302 C36 1.889 . S
C307 C40 1.919 . S
C312 C75 1.829 1_545 S
C317 C101 1.874 1_565 S
C322 C68 1.763 1_545 S
C327 C53 1.921 . S
C332 C79 1.922 . S
C337 C44 1.906 . S
C342 C23 1.897 . S
C347 C29 1.858 . S
C352 C3 1.858 . S
C357 C109 1.884 . S
C362 C127 1.874 1_554 S
C367 C120 1.896 . S
C372 C131 1.881 . S
C377 C153 1.897 . S
C382 C135 1.906 . S
C387 C105 1.886 . S
C392 C146 1.896 . S
