# Generated by pormake.
# Topology xfu, (5)-cn, num edge types: 1
# Building blocks:
#     Node 0, Type 0, BuildingBlock: BEQFEK_clean_sbu_0, # of connection points: 5
#     Node 1, Type 0, BuildingBlock: BEQFEK_clean_sbu_0, # of connection points: 5
#     Node 2, Type 0, BuildingBlock: BEQFEK_clean_sbu_0, # of connection points: 5
#     Node 3, Type 0, BuildingBlock: BEQFEK_clean_sbu_0, # of connection points: 5
#     Node 4, Type 0, BuildingBlock: BEQFEK_clean_sbu_0, # of connection points: 5
#     Node 5, Type 0, BuildingBlock: BEQFEK_clean_sbu_0, # of connection points: 5
#     Node 6, Type 0, BuildingBlock: BEQFEK_clean_sbu_0, # of connection points: 5
#     Node 7, Type 0, BuildingBlock: BEQFEK_clean_sbu_0, # of connection points: 5
#     Edge 8, Type (0, 0), BuildingBlock: KIFKEQ_clean_linker_1, # of connection points: 2
#     Edge 9, Type (0, 0), BuildingBlock: KIFKEQ_clean_linker_1, # of connection points: 2
#     Edge 10, Type (0, 0), BuildingBlock: KIFKEQ_clean_linker_1, # of connection points: 2
#     Edge 11, Type (0, 0), BuildingBlock: KIFKEQ_clean_linker_1, # of connection points: 2
#     Edge 12, Type (0, 0), BuildingBlock: KIFKEQ_clean_linker_1, # of connection points: 2
#     Edge 13, Type (0, 0), BuildingBlock: KIFKEQ_clean_linker_1, # of connection points: 2
#     Edge 14, Type (0, 0), BuildingBlock: KIFKEQ_clean_linker_1, # of connection points: 2
#     Edge 15, Type (0, 0), BuildingBlock: KIFKEQ_clean_linker_1, # of connection points: 2
#     Edge 16, Type (0, 0), BuildingBlock: KIFKEQ_clean_linker_1, # of connection points: 2
#     Edge 17, Type (0, 0), BuildingBlock: KIFKEQ_clean_linker_1, # of connection points: 2
#     Edge 18, Type (0, 0), BuildingBlock: KIFKEQ_clean_linker_1, # of connection points: 2
#     Edge 19, Type (0, 0), BuildingBlock: KIFKEQ_clean_linker_1, # of connection points: 2
#     Edge 20, Type (0, 0), BuildingBlock: KIFKEQ_clean_linker_1, # of connection points: 2
#     Edge 21, Type (0, 0), BuildingBlock: KIFKEQ_clean_linker_1, # of connection points: 2
#     Edge 22, Type (0, 0), BuildingBlock: KIFKEQ_clean_linker_1, # of connection points: 2
#     Edge 23, Type (0, 0), BuildingBlock: KIFKEQ_clean_linker_1, # of connection points: 2
#     Edge 24, Type (0, 0), BuildingBlock: KIFKEQ_clean_linker_1, # of connection points: 2
#     Edge 25, Type (0, 0), BuildingBlock: KIFKEQ_clean_linker_1, # of connection points: 2
#     Edge 26, Type (0, 0), BuildingBlock: KIFKEQ_clean_linker_1, # of connection points: 2
#     Edge 27, Type (0, 0), BuildingBlock: KIFKEQ_clean_linker_1, # of connection points: 2
# Relax obj value: 0.266
# Max RMSD: 0.181
# Mean RMSD: 0.181
data_MOF--net-xfu--node1-BEQFEK_clean_sbu_0--edge1-KIFKEQ_clean_linker_1
_symmetry_space_group_name_H-M    P1
_symmetry_Int_Tables_number       1
_symmetry_cell_setting            triclinic
loop_
_symmetry_equiv_pos_as_xyz
'x, y, z'
_cell_length_a     30.72721
_cell_length_b     30.716057
_cell_length_c     57.258071
_cell_angle_alpha  90.02992
_cell_angle_beta   90.009324
_cell_angle_gamma 90.047048
loop_
_atom_site_label
_atom_site_type_symbol
_atom_site_fract_x
_atom_site_fract_y
_atom_site_fract_z
_atom_type_partial_charge
Co0 Co 0.05956 0.27116 0.66103 0.0
Co1 Co 0.05855 0.18596 0.6312 0.0
C2 C 0.1284 0.25446 0.62585 0.0
O3 O 0.111 0.2787 0.64123 0.0
O4 O 0.11176 0.21778 0.62044 0.0
C5 C 0.06679 0.36122 0.67461 0.0
O6 O 0.08416 0.36658 0.65384 0.0
C7 C 0.05037 0.1397 0.58721 0.0
C8 C 0.04035 0.07161 0.59841 0.0
C9 C 0.04402 0.09771 0.57873 0.0
N10 N 0.05063 0.13816 0.61062 0.0
N11 N 0.04475 0.09741 0.61727 0.0
C12 C 0.05336 0.18137 0.57376 0.0
H13 H 0.04422 0.20936 0.585 0.0
H14 H 0.03187 0.18035 0.55819 0.0
H15 H 0.08746 0.18633 0.56796 0.0
C16 C 0.97167 0.27963 0.64146 0.0
N17 N 0.01012 0.25911 0.64292 0.0
N18 N 0.00828 0.22236 0.63116 0.0
C19 C 0.96783 0.21775 0.6223 0.0
C20 C 0.94335 0.25399 0.62853 0.0
C21 C 0.9626 0.32294 0.65242 0.0
H22 H 0.98999 0.34541 0.64878 0.0
H23 H 0.93217 0.3376 0.64559 0.0
H24 H 0.96 0.31895 0.67163 0.0
O25 O 0.0699 0.22347 0.6836 0.0
O26 O 0.06883 0.1624 0.66293 0.0
H27 H 0.96625 0.14817 0.61884 0.0
H28 H 0.91563 0.17472 0.61163 0.0
C29 C 0.95158 0.1773 0.61058 0.0
H30 H 0.9612 0.17794 0.59192 0.0
H31 H 0.04355 0.08728 0.63465 0.0
O32 O 0.05236 0.32395 0.68035 0.0
C33 C 0.0727 0.18218 0.68236 0.0
Co34 Co 0.79962 0.55683 0.15982 0.0
Co35 Co 0.88209 0.56294 0.12772 0.0
C36 C 0.813 0.63168 0.12702 0.0
O37 O 0.79099 0.61173 0.14252 0.0
O38 O 0.84902 0.61652 0.1196 0.0
C39 C 0.70959 0.55953 0.17364 0.0
O40 O 0.70322 0.57659 0.15288 0.0
C41 C 0.9336 0.56284 0.08415 0.0
C42 C 0.99592 0.53564 0.09672 0.0
C43 C 0.97454 0.54934 0.07673 0.0
N44 N 0.93074 0.55625 0.10732 0.0
N45 N 0.96828 0.54051 0.11474 0.0
C46 C 0.89801 0.58245 0.06971 0.0
H47 H 0.87895 0.60596 0.08014 0.0
H48 H 0.8756 0.55635 0.06379 0.0
H49 H 0.91147 0.59948 0.05423 0.0
C50 C 0.79151 0.47174 0.13675 0.0
N51 N 0.81087 0.51072 0.13922 0.0
N52 N 0.84596 0.5123 0.12607 0.0
C53 C 0.85018 0.47385 0.11489 0.0
C54 C 0.81569 0.44709 0.12117 0.0
C55 C 0.75388 0.4569 0.15133 0.0
H56 H 0.76133 0.46252 0.17006 0.0
H57 H 0.72483 0.47662 0.14686 0.0
H58 H 0.74635 0.42195 0.14863 0.0
O59 O 0.84813 0.56318 0.18216 0.0
O60 O 0.90644 0.57051 0.15962 0.0
H61 H 0.91847 0.46516 0.10939 0.0
H62 H 0.88469 0.4283 0.09265 0.0
C63 C 0.88765 0.46198 0.09947 0.0
H64 H 0.88882 0.48463 0.08445 0.0
H65 H 0.97469 0.5321 0.13205 0.0
O66 O 0.74749 0.54676 0.17923 0.0
C67 C 0.88886 0.56899 0.17972 0.0
Co68 Co 0.51102 0.29774 0.65699 0.0
Co69 Co 0.51325 0.38524 0.62892 0.0
C70 C 0.43906 0.32247 0.62426 0.0
O71 O 0.4569 0.29628 0.63856 0.0
O72 O 0.45692 0.35861 0.61895 0.0
C73 C 0.49451 0.2087 0.66959 0.0
O74 O 0.46829 0.20932 0.65148 0.0
C75 C 0.51553 0.44089 0.58768 0.0
C76 C 0.55097 0.49875 0.60061 0.0
C77 C 0.53227 0.48078 0.58081 0.0
N78 N 0.52398 0.43549 0.61048 0.0
N79 N 0.54463 0.47042 0.61822 0.0
C80 C 0.49627 0.40627 0.57244 0.0
H81 H 0.50284 0.37358 0.57989 0.0
H82 H 0.50964 0.40812 0.55446 0.0
H83 H 0.4605 0.41095 0.57157 0.0
C84 C 0.59629 0.28665 0.63469 0.0
N85 N 0.5588 0.30852 0.6375 0.0
N86 N 0.56042 0.34526 0.62574 0.0
C87 C 0.59947 0.34799 0.61509 0.0
C88 C 0.62339 0.31092 0.62035 0.0
C89 C 0.60759 0.24636 0.64809 0.0
H90 H 0.6039 0.25281 0.66705 0.0
H91 H 0.58441 0.22007 0.64337 0.0
H92 H 0.64127 0.23524 0.64459 0.0
O93 O 0.5064 0.3432 0.68128 0.0
O94 O 0.50806 0.40543 0.66172 0.0
H95 H 0.61551 0.41559 0.61276 0.0
H96 H 0.64764 0.38105 0.59385 0.0
C97 C 0.61478 0.38646 0.60132 0.0
H98 H 0.59178 0.39268 0.58682 0.0
H99 H 0.55566 0.47425 0.63533 0.0
O100 O 0.5173 0.24214 0.67419 0.0
C101 C 0.50559 0.38461 0.68089 0.0
Co102 Co 0.76862 0.01216 0.1613 0.0
Co103 Co 0.68134 0.01932 0.1332 0.0
C104 C 0.74156 0.94289 0.12775 0.0
O105 O 0.76841 0.95919 0.1422 0.0
O106 O 0.70609 0.9622 0.1227 0.0
C107 C 0.85697 0.99208 0.17316 0.0
O108 O 0.85504 0.96758 0.15438 0.0
C109 C 0.62962 0.02599 0.09086 0.0
C110 C 0.56911 0.05728 0.10321 0.0
C111 C 0.58969 0.04158 0.08341 0.0
N112 N 0.63254 0.03205 0.11401 0.0
N113 N 0.59613 0.05039 0.12137 0.0
C114 C 0.66605 0.00899 0.07612 0.0
H115 H 0.69783 0.01575 0.0846 0.0
H116 H 0.66537 0.02385 0.05845 0.0
H117 H 0.66244 0.9732 0.07425 0.0
C118 C 0.78381 0.09747 0.13988 0.0
N119 N 0.75996 0.06116 0.14244 0.0
N120 N 0.72288 0.06549 0.1312 0.0
C121 C 0.72152 0.10554 0.12154 0.0
C122 C 0.76017 0.12715 0.12675 0.0
C123 C 0.82815 0.10349 0.15024 0.0
H124 H 0.84794 0.0739 0.14708 0.0
H125 H 0.84516 0.13198 0.14258 0.0
H126 H 0.82509 0.10797 0.1694 0.0
O127 O 0.72227 0.0079 0.18525 0.0
O128 O 0.66016 0.0131 0.16568 0.0
H129 H 0.68456 0.16011 0.10779 0.0
H130 H 0.67676 0.10871 0.09305 0.0
C131 C 0.68183 0.12444 0.11027 0.0
H132 H 0.65298 0.1177 0.1213 0.0
H133 H 0.59014 0.05906 0.1387 0.0
O134 O 0.82438 0.01536 0.17868 0.0
C135 C 0.68083 0.00867 0.18481 0.0
Co136 Co 0.01563 0.80179 0.33397 0.0
Co137 Co 0.01506 0.88614 0.36492 0.0
C138 C 0.94149 0.82338 0.36665 0.0
O139 O 0.96013 0.79951 0.35148 0.0
O140 O 0.95903 0.85846 0.37391 0.0
C141 C 5e-05 0.71293 0.32127 0.0
O142 O 0.97714 0.71253 0.34063 0.0
C143 C 0.01507 0.94078 0.40685 0.0
C144 C 0.05176 -0.00148 0.39484 0.0
C145 C 0.03157 0.98054 0.4142 0.0
N146 N 0.02514 0.93554 0.3842 0.0
N147 N 0.04658 0.97037 0.37704 0.0
C148 C 0.99433 0.90619 0.42151 0.0
H149 H 0.00086 0.87354 0.414 0.0
H150 H 0.00663 0.90751 0.43973 0.0
H151 H 0.9586 0.91141 0.42177 0.0
C152 C 0.10009 0.78951 0.357 0.0
N153 N 0.06246 0.81117 0.3543 0.0
N154 N 0.06273 0.84636 0.36742 0.0
C155 C 0.10083 0.848 0.3791 0.0
C156 C 0.12573 0.81206 0.37288 0.0
C157 C 0.11275 0.75103 0.34244 0.0
H158 H 0.10509 0.75765 0.32385 0.0
H159 H 0.09322 0.72241 0.34796 0.0
H160 H 0.14783 0.74321 0.34403 0.0
O161 O 0.013 0.84891 0.31071 0.0
O162 O 0.00913 0.90856 0.33254 0.0
H163 H 0.11684 0.91461 0.38571 0.0
H164 H 0.14469 0.87646 0.40456 0.0
C165 C 0.11359 0.88368 0.39554 0.0
H166 H 0.08787 0.88784 0.40889 0.0
H167 H 0.05877 0.97434 0.36016 0.0
O168 O 0.02138 0.74695 0.31591 0.0
C169 C 0.00969 0.89002 0.31266 0.0
Co170 Co 0.27522 0.51543 0.83372 0.0
Co171 Co 0.18985 0.51468 0.86347 0.0
C172 C 0.25486 0.44181 0.86588 0.0
O173 O 0.27998 0.46076 0.85144 0.0
O174 O 0.21879 0.45879 0.87197 0.0
C175 C 0.36538 0.50626 0.82055 0.0
O176 O 0.36978 0.48729 0.84097 0.0
C177 C 0.13999 0.51897 0.90678 0.0
C178 C 0.07336 0.53203 0.894 0.0
C179 C 0.09761 0.52566 0.91408 0.0
N180 N 0.14097 0.52172 0.88339 0.0
N181 N 0.10105 0.5294 0.87583 0.0
C182 C 0.17845 0.5074 0.92156 0.0
H183 H 0.17321 0.47475 0.92936 0.0
H184 H 0.20869 0.50709 0.91097 0.0
H185 H 0.1821 0.53095 0.9361 0.0
C186 C 0.28588 0.60056 0.85654 0.0
N187 N 0.26456 0.56271 0.85372 0.0
N188 N 0.22842 0.56328 0.86605 0.0
C189 C 0.22539 0.60206 0.87701 0.0
C190 C 0.26188 0.62677 0.87147 0.0
C191 C 0.32571 0.61276 0.84296 0.0
H192 H 0.31996 0.60656 0.82413 0.0
H193 H 0.35321 0.59185 0.84858 0.0
H194 H 0.33468 0.64744 0.84537 0.0
O195 O 0.22803 0.51014 0.81052 0.0
O196 O 0.16706 0.51004 0.83119 0.0
H197 H 0.15676 0.60909 0.88261 0.0
H198 H 0.18938 0.65043 0.89688 0.0
C199 C 0.18773 0.6156 0.89193 0.0
H200 H 0.18799 0.59622 0.90821 0.0
H201 H 0.09269 0.53275 0.85826 0.0
O202 O 0.32882 0.5226 0.81504 0.0
C203 C 0.18672 0.50849 0.81165 0.0
Co204 Co 0.55462 0.76821 0.3335 0.0
Co205 Co 0.55813 0.68327 0.36347 0.0
C206 C 0.62868 0.75101 0.36582 0.0
O207 O 0.60911 0.77522 0.3512 0.0
O208 O 0.61276 0.7145 0.37202 0.0
C209 C 0.55972 0.85884 0.3212 0.0
O210 O 0.5769 0.86338 0.34208 0.0
C211 C 0.55771 0.63539 0.40722 0.0
C212 C 0.54075 0.5687 0.39596 0.0
C213 C 0.55009 0.59354 0.4156 0.0
N214 N 0.55295 0.63498 0.38393 0.0
N215 N 0.54318 0.59501 0.37723 0.0
C216 C 0.56586 0.67624 0.42083 0.0
H217 H 0.55756 0.70527 0.4102 0.0
H218 H 0.5464 0.67645 0.43715 0.0
H219 H 0.60091 0.67818 0.4254 0.0
C220 C 0.46923 0.77625 0.35644 0.0
N221 N 0.50769 0.75617 0.35355 0.0
N222 N 0.50823 0.71996 0.36583 0.0
C223 C 0.46957 0.71554 0.37674 0.0
C224 C 0.4438 0.75128 0.37131 0.0
C225 C 0.45578 0.8159 0.34307 0.0
H226 H 0.46197 0.81064 0.3242 0.0
H227 H 0.47591 0.84395 0.34879 0.0
H228 H 0.42089 0.82377 0.34563 0.0
O229 O 0.56146 0.7208 0.31043 0.0
O230 O 0.56365 0.66007 0.33131 0.0
H231 H 0.46441 0.64662 0.38185 0.0
H232 H 0.42213 0.67771 0.39625 0.0
C233 C 0.45703 0.67716 0.39139 0.0
H234 H 0.47633 0.67752 0.40771 0.0
H235 H 0.53755 0.58587 0.35993 0.0
O236 O 0.54581 0.82167 0.31491 0.0
C237 C 0.56453 0.67954 0.3117 0.0
Co238 Co 0.31147 0.05389 0.83361 0.0
Co239 Co 0.39485 0.05884 0.8649 0.0
C240 C 0.32702 0.12892 0.86584 0.0
O241 O 0.30399 0.10918 0.8507 0.0
O242 O 0.3629 0.11305 0.87297 0.0
C243 C 0.2216 0.05913 0.81972 0.0
O244 O 0.21587 0.0767 0.84041 0.0
C245 C 0.44076 0.05681 0.90939 0.0
C246 C 0.50935 0.04883 0.8986 0.0
C247 C 0.48268 0.05317 0.91794 0.0
N248 N 0.44235 0.05433 0.886 0.0
N249 N 0.48343 0.04964 0.87962 0.0
C250 C 0.40014 0.06541 0.92304 0.0
H251 H 0.37096 0.06229 0.91174 0.0
H252 H 0.39753 0.04246 0.93792 0.0
H253 H 0.40157 0.09886 0.93034 0.0
C254 C 0.30236 0.96923 0.85692 0.0
N255 N 0.32254 0.0077 0.85417 0.0
N256 N 0.35824 0.00851 0.86688 0.0
C257 C 0.36216 0.96996 0.87799 0.0
C258 C 0.32665 0.94404 0.8722 0.0
C259 C 0.26351 0.95549 0.84294 0.0
H260 H 0.26973 0.96167 0.82415 0.0
H261 H 0.23508 0.97547 0.84821 0.0
H262 H 0.25566 0.92055 0.84535 0.0
O263 O 0.35981 0.05904 0.81117 0.0
O264 O 0.41932 0.06518 0.83296 0.0
H265 H 0.43077 0.96679 0.88468 0.0
H266 H 0.39995 0.9226 0.89754 0.0
C267 C 0.39973 0.95778 0.8933 0.0
H268 H 0.39732 0.97596 0.90995 0.0
H269 H 0.4938 0.04724 0.86232 0.0
O270 O 0.259 0.0448 0.81423 0.0
C271 C 0.40078 0.06373 0.81309 0.0
H272 H 0.96487 0.98365 0.4457 0.0
H273 H 0.09953 0.01922 0.43605 0.0
H274 H 0.9667 0.01357 0.48518 0.0
H275 H 0.1022 0.04767 0.47571 0.0
H276 H 0.08498 0.13033 0.53961 0.0
H277 H 0.07884 0.10465 0.49977 0.0
H278 H 0.99503 6e-05 0.52289 0.0
H279 H -0.00161 0.02812 0.5626 0.0
C280 C 0.995 -0.00261 0.45219 0.0
C281 C 0.03218 -0.0012 0.43801 0.0
C282 C 0.99615 0.01447 0.47481 0.0
C283 C 0.03465 0.03295 0.48374 0.0
C284 C 0.07175 0.03445 0.46935 0.0
C285 C 0.07036 0.01793 0.44666 0.0
C286 C 0.06399 0.10286 0.53618 0.0
C287 C 0.04101 0.08222 0.55427 0.0
C288 C 0.06127 0.0874 0.5133 0.0
C289 C 0.03634 0.05026 0.508 0.0
C290 C 0.01384 0.02925 0.52618 0.0
C291 C 0.01613 0.04508 0.54902 0.0
H292 H 0.93108 0.53102 0.03587 0.0
H293 H 0.05901 0.5579 0.06362 0.0
H294 H 0.96105 0.52691 0.99681 0.0
H295 H 0.08985 0.55 0.02469 0.0
H296 H 0.12507 0.57878 0.94896 0.0
H297 H 0.09525 0.58484 0.98828 0.0
H298 H 0.00269 0.4828 0.97229 0.0
H299 H 0.03168 0.47846 0.93265 0.0
C300 C 0.9655 0.5369 0.03362 0.0
C301 C 0.99238 0.54659 0.05277 0.0
C302 C 0.98297 0.53336 0.0112 0.0
C303 C 0.02795 0.53826 0.00747 0.0
C304 C 0.05496 0.54697 0.02676 0.0
C305 C 0.03734 0.55115 0.04913 0.0
C306 C 0.09876 0.55732 0.95408 0.0
C307 C 0.08098 0.52768 0.9381 0.0
C308 C 0.08162 0.56072 0.97658 0.0
C309 C 0.04658 0.53422 0.98358 0.0
C310 C 0.02913 0.50428 0.96745 0.0
C311 C 0.04587 0.50144 0.94483 0.0
H312 H 0.6027 0.5159 0.55947 0.0
H313 H 0.46685 0.48652 0.5489 0.0
H314 H 0.60805 0.54251 0.51949 0.0
H315 H 0.47117 0.51512 0.50924 0.0
H316 H 0.50213 0.52621 0.4324 0.0
H317 H 0.49852 0.49901 0.47216 0.0
H318 H 0.58964 0.59838 0.49402 0.0
H319 H 0.59627 0.62273 0.45398 0.0
C320 C 0.57385 0.51574 0.54859 0.0
C321 C 0.53451 0.49882 0.55703 0.0
C322 C 0.57676 0.53119 0.52572 0.0
C323 C 0.54007 0.5309 0.51098 0.0
C324 C 0.50038 0.5149 0.51981 0.0
C325 C 0.49774 0.49872 0.54255 0.0
C326 C 0.5216 0.54211 0.44568 0.0
C327 C 0.54847 0.57761 0.44002 0.0
C328 C 0.51911 0.52683 0.46859 0.0
C329 C 0.54322 0.54687 0.4865 0.0
C330 C 0.57064 0.58196 0.48075 0.0
C331 C 0.57367 0.59674 0.45774 0.0
H332 H 0.45771 0.99634 0.95159 0.0
H333 H 0.54026 0.10751 0.93892 0.0
H334 H 0.48286 0.99367 0.99222 0.0
H335 H 0.56497 0.10537 0.97971 0.0
H336 H 0.55175 0.11046 0.06184 0.0
H337 H 0.52498 0.11409 0.02151 0.0
H338 H 0.5616 0.97986 0.01101 0.0
H339 H 0.58897 0.97645 0.05116 0.0
C340 C 0.48077 0.02051 0.95767 0.0
C341 C 0.49678 0.05247 0.94244 0.0
C342 C 0.49535 0.01879 0.98075 0.0
C343 C 0.52562 0.04943 0.98897 0.0
C344 C 0.54132 0.08165 0.97375 0.0
C345 C 0.52739 0.0828 0.95052 0.0
C346 C 0.55399 0.08182 0.05085 0.0
C347 C 0.57274 0.04333 0.05938 0.0
C348 C 0.53893 0.08395 0.02786 0.0
C349 C 0.54142 0.04727 0.01328 0.0
C350 C 0.55932 0.0085 0.02199 0.0
C351 C 0.5752 0.00666 0.04482 0.0
H352 H 0.22575 0.03134 0.77447 0.0
H353 H 0.1424 0.09956 0.82302 0.0
H354 H 0.17993 0.05458 0.74229 0.0
H355 H 0.09567 0.12185 0.79074 0.0
H356 H 0.08261 0.21384 0.72658 0.0
H357 H 0.10854 0.17537 0.76079 0.0
H358 H 0.11167 0.05531 0.72144 0.0
H359 H 0.08656 0.09423 0.68679 0.0
C360 C 0.19695 0.05032 0.77837 0.0
C361 C 0.18828 0.06441 0.80126 0.0
C362 C 0.17043 0.06342 0.75987 0.0
C363 C 0.13451 0.09074 0.76387 0.0
C364 C 0.12366 0.1016 0.78702 0.0
C365 C 0.1503 0.08858 0.80555 0.0
C366 C 0.08826 0.17913 0.72522 0.0
C367 C 0.08312 0.15729 0.70381 0.0
C368 C 0.10274 0.15691 0.74497 0.0
C369 C 0.11236 0.11222 0.74388 0.0
C370 C 0.10507 0.08985 0.72279 0.0
C371 C 0.09057 0.11215 0.70295 0.0
H372 H 0.05333 0.69129 0.28484 0.0
H373 H 0.93064 0.65872 0.31712 0.0
H374 H 0.03535 0.64485 0.25165 0.0
H375 H 0.91111 0.61511 0.28358 0.0
H376 H 0.87892 0.53443 0.22316 0.0
H377 H 0.91531 0.55706 0.25895 0.0
H378 H 0.9917 0.64967 0.2193 0.0
H379 H 0.95761 0.62428 0.18355 0.0
C380 C 0.02271 0.67377 0.28492 0.0
C381 C 0.99322 0.6789 0.30343 0.0
C382 C 0.01211 0.64747 0.26578 0.0
C383 C 0.97128 0.62668 0.26449 0.0
C384 C 0.94309 0.62986 0.28382 0.0
C385 C 0.95416 0.65524 0.30315 0.0
C386 C 0.90426 0.55892 0.22217 0.0
C387 C 0.91522 0.57795 0.20069 0.0
C388 C 0.9249 0.57226 0.2427 0.0
C389 C 0.95593 0.60605 0.24232 0.0
C390 C 0.96848 0.62326 0.22051 0.0
C391 C 0.9487 0.60896 0.1999 0.0
H392 H 0.44204 0.46103 0.82341 0.0
H393 H 0.36409 0.53784 0.77602 0.0
H394 H 0.48816 0.43851 0.7909 0.0
H395 H 0.40913 0.51441 0.7436 0.0
H396 H 0.49871 0.47291 0.68734 0.0
H397 H 0.47704 0.5109 0.72293 0.0
H398 H 0.47315 0.3882 0.75978 0.0
H399 H 0.4958 0.35057 0.72462 0.0
C400 C 0.43525 0.47383 0.80617 0.0
C401 C 0.39885 0.50051 0.80223 0.0
C402 C 0.46152 0.46069 0.78751 0.0
C403 C 0.45186 0.47394 0.76456 0.0
C404 C 0.41773 0.50366 0.76101 0.0
C405 C 0.39161 0.51689 0.77964 0.0
C406 C 0.49399 0.45417 0.70316 0.0
C407 C 0.49834 0.40859 0.70302 0.0
C408 C 0.48145 0.47594 0.72354 0.0
C409 C 0.47296 0.45261 0.74418 0.0
C410 C 0.47988 0.40737 0.74433 0.0
C411 C 0.4925 0.38566 0.72402 0.0
H412 H 0.52975 0.8587 0.27634 0.0
H413 H 0.60188 0.93702 0.32573 0.0
H414 H 0.55252 0.90649 0.24489 0.0
H415 H 0.62386 0.98568 0.29419 0.0
H416 H 0.71402 -0.00201 0.22868 0.0
H417 H 0.67592 0.97303 0.26325 0.0
H418 H 0.55411 0.97647 0.22557 0.0
H419 H 0.59252 0.00065 0.1906 0.0
C420 C 0.54951 0.88683 0.2806 0.0
C421 C 0.56481 0.89348 0.30346 0.0
C422 C 0.56233 0.91451 0.26254 0.0
C423 C 0.59063 0.94954 0.26696 0.0
C424 C 0.60274 0.95844 0.29017 0.0
C425 C 0.58993 0.93069 0.30826 0.0
C426 C 0.67901 0.99415 0.22779 0.0
C427 C 0.65648 0.00056 0.20671 0.0
C428 C 0.65703 0.9802 0.24776 0.0
C429 C 0.61196 0.97241 0.24715 0.0
C430 C 0.58895 0.98158 0.2265 0.0
C431 C 0.61097 0.99555 0.20648 0.0
H432 H 0.95809 0.9613 0.30856 0.0
H433 H 0.04182 0.87614 0.26896 0.0
H434 H 0.93142 0.9935 0.27266 0.0
H435 H 0.01792 0.91058 0.23286 0.0
H436 H 0.90975 0.9218 0.17777 0.0
H437 H 0.95706 0.90511 0.21026 0.0
H438 H 0.9342 0.03355 0.23894 0.0
H439 H 0.88408 0.0488 0.20695 0.0
C440 C 0.97196 0.95063 0.29213 0.0
C441 C 0.00139 0.9158 0.29144 0.0
C442 C 0.95689 0.9693 0.27143 0.0
C443 C 0.97176 0.95421 0.24959 0.0
C444 C 0.00447 0.9221 0.2492 0.0
C445 C 0.01855 0.90258 0.26988 0.0
C446 C 0.91549 0.94679 0.19078 0.0
C447 C 0.89269 0.98629 0.19007 0.0
C448 C 0.94304 0.93737 0.20946 0.0
C449 C 0.94925 0.96768 0.22765 0.0
C450 C 0.92928 0.0088 0.22573 0.0
C451 C 0.90083 0.01778 0.2073 0.0
H452 H 0.0985 0.49751 0.80682 0.0
H453 H 0.21822 0.5024 0.76723 0.0
H454 H 0.05947 0.47434 0.77181 0.0
H455 H 0.17969 0.47824 0.73268 0.0
H456 H 0.10603 0.44099 0.67063 0.0
H457 H 0.12659 0.48954 0.70252 0.0
H458 H 0.05942 0.40596 0.7514 0.0
H459 H 0.03786 0.35844 0.71962 0.0
C460 C 0.11639 0.49427 0.79061 0.0
C461 C 0.16164 0.50105 0.78993 0.0
C462 C 0.09404 0.48087 0.77057 0.0
C463 C 0.11649 0.47396 0.74949 0.0
C464 C 0.16117 0.48365 0.74851 0.0
C465 C 0.18344 0.49711 0.76846 0.0
C466 C 0.0947 0.43364 0.6881 0.0
C467 C 0.07116 0.39535 0.69268 0.0
C468 C 0.10667 0.46135 0.70639 0.0
C469 C 0.09539 0.45121 0.72958 0.0
C470 C 0.06855 0.41497 0.73378 0.0
C471 C 0.05646 0.38743 0.71553 0.0
H472 H 0.56985 0.71065 0.26715 0.0
H473 H 0.57746 0.59151 0.30713 0.0
H474 H 0.59386 0.67204 0.23259 0.0
H475 H 0.60051 0.55241 0.27213 0.0
H476 H 0.7143 0.53104 0.21869 0.0
H477 H 0.668 0.55273 0.25093 0.0
H478 H 0.58189 0.6183 0.20275 0.0
H479 H 0.6292 0.59761 0.17039 0.0
C480 C 0.57576 0.67598 0.26848 0.0
C481 C 0.5725 0.65438 0.29005 0.0
C482 C 0.58914 0.65366 0.24852 0.0
C483 C 0.59943 0.60911 0.24959 0.0
C484 C 0.59345 0.58686 0.27081 0.0
C485 C 0.58013 0.60926 0.29085 0.0
C486 C 0.685 0.54928 0.21486 0.0
C487 C 0.67601 0.56351 0.19203 0.0
C488 C 0.65817 0.56147 0.23339 0.0
C489 C 0.6216 0.58795 0.2295 0.0
C490 C 0.61038 0.5987 0.20638 0.0
C491 C 0.63736 0.58661 0.18782 0.0
H492 H 0.46922 0.11892 0.80757 0.0
H493 H 0.38871 0.02698 0.77041 0.0
H494 H 0.49994 0.1439 0.77085 0.0
H495 H 0.42164 0.04933 0.73363 0.0
H496 H 0.42673 0.15305 0.67583 0.0
H497 H 0.41256 0.10814 0.70963 0.0
H498 H 0.54023 0.13921 0.73697 0.0
H499 H 0.55303 0.1867 0.70354 0.0
C500 C 0.45933 0.10297 0.79153 0.0
C501 C 0.42617 0.07161 0.7917 0.0
C502 C 0.47712 0.11707 0.77039 0.0
C503 C 0.46278 0.09931 0.749 0.0
C504 C 0.43248 0.06491 0.74957 0.0
C505 C 0.41385 0.05174 0.77065 0.0
C506 C 0.45216 0.14957 0.6888 0.0
C507 C 0.49067 0.17393 0.68725 0.0
C508 C 0.44418 0.12345 0.70826 0.0
C509 C 0.47496 0.12031 0.72643 0.0
C510 C 0.51518 0.14176 0.72375 0.0
C511 C 0.52275 0.16868 0.70449 0.0
H512 H 0.88472 0.27437 0.66204 0.0
H513 H 0.89594 0.24786 0.58825 0.0
H514 H 0.80749 0.28985 0.65719 0.0
H515 H 0.81772 0.26235 0.58342 0.0
H516 H 0.66495 0.24363 0.59887 0.0
H517 H 0.74371 0.22943 0.5986 0.0
H518 H 0.76547 0.34994 0.63573 0.0
H519 H 0.68718 0.36382 0.63601 0.0
C520 C 0.87058 0.27214 0.64475 0.0
C521 C 0.8962 0.2608 0.62543 0.0
C522 C 0.82647 0.28089 0.64199 0.0
C523 C 0.80697 0.27788 0.61988 0.0
C524 C 0.83218 0.26498 0.60062 0.0
C525 C 0.87667 0.25667 0.60337 0.0
C526 C 0.6869 0.26724 0.60656 0.0
C527 C 0.67052 0.30474 0.61743 0.0
C528 C 0.73169 0.25926 0.60636 0.0
C529 C 0.76038 0.28848 0.61731 0.0
C530 C 0.7439 0.32676 0.62737 0.0
C531 C 0.69932 0.33485 0.6274 0.0
H532 H 0.74847 0.40429 0.10049 0.0
H533 H 0.8729 0.38456 0.13369 0.0
H534 H 0.73733 0.32511 0.09885 0.0
H535 H 0.8619 0.30569 0.13218 0.0
H536 H 0.78623 0.1846 0.15979 0.0
H537 H 0.80362 0.26143 0.15487 0.0
H538 H 0.77187 0.25255 0.08156 0.0
H539 H 0.7559 0.17456 0.08637 0.0
C540 C 0.77369 0.38283 0.10697 0.0
C541 C 0.81149 0.39999 0.11716 0.0
C542 C 0.76746 0.33778 0.10596 0.0
C543 C 0.79872 0.30956 0.11548 0.0
C544 C 0.83728 0.32689 0.12483 0.0
C545 C 0.84367 0.37179 0.1256 0.0
C546 C 0.78378 0.19881 0.14254 0.0
C547 C 0.7703 0.17371 0.12339 0.0
C548 C 0.79361 0.24273 0.13974 0.0
C549 C 0.78946 0.26262 0.1178 0.0
C550 C 0.77534 0.23778 0.09864 0.0
C551 C 0.76615 0.19344 0.10138 0.0
H552 H 0.40735 0.82077 0.39304 0.0
H553 H 0.37649 0.69755 0.36093 0.0
H554 H 0.32961 0.83551 0.39835 0.0
H555 H 0.29895 0.71205 0.36597 0.0
H556 H 0.16205 0.73787 0.3899 0.0
H557 H 0.23977 0.72196 0.39423 0.0
H558 H 0.27054 0.85236 0.37112 0.0
H559 H 0.19312 0.86797 0.36697 0.0
C560 C 0.38377 0.79668 0.38745 0.0
C561 C 0.39748 0.75801 0.37674 0.0
C562 C 0.33945 0.80509 0.39038 0.0
C563 C 0.30819 0.77494 0.38257 0.0
C564 C 0.32221 0.73558 0.37254 0.0
C565 C 0.36649 0.72727 0.36959 0.0
C566 C 0.18564 0.76314 0.38611 0.0
C567 C 0.17197 0.80405 0.37815 0.0
C568 C 0.22995 0.75409 0.3885 0.0
C569 C 0.26124 0.78588 0.38295 0.0
C570 C 0.24726 0.8274 0.37588 0.0
C571 C 0.20301 0.83636 0.37346 0.0
H572 H 0.3809 0.87632 0.86339 0.0
H573 H 0.25537 0.9081 0.89242 0.0
H574 H 0.36512 0.79882 0.86791 0.0
H575 H 0.23917 0.8304 0.89687 0.0
H576 H 0.20905 0.69526 0.86215 0.0
H577 H 0.22538 0.7725 0.86718 0.0
H578 H 0.35047 0.73941 0.89673 0.0
H579 H 0.33366 0.66187 0.8918 0.0
C580 C 0.35041 0.86656 0.87133 0.0
C581 C 0.3194 0.8978 0.87774 0.0
C582 C 0.34134 0.82231 0.87391 0.0
C583 C 0.30089 0.80864 0.88273 0.0
C584 C 0.27047 0.84008 0.88988 0.0
C585 C 0.27971 0.88435 0.88742 0.0
C586 C 0.2395 0.70461 0.87027 0.0
C587 C 0.27003 0.67298 0.87678 0.0
C588 C 0.24888 0.74871 0.87316 0.0
C589 C 0.28918 0.76191 0.88239 0.0
C590 C 0.31928 0.7301 0.88946 0.0
C591 C 0.3097 0.68593 0.88671 0.0
H592 H 0.38085 0.37656 0.60233 0.0
H593 H 0.39758 0.24415 0.62619 0.0
H594 H 0.3042 0.36139 0.59416 0.0
H595 H 0.32147 0.22936 0.61842 0.0
H596 H 0.1851 0.20512 0.59996 0.0
H597 H 0.26094 0.22238 0.5911 0.0
H598 H 0.24423 0.35 0.62156 0.0
H599 H 0.16871 0.33322 0.62999 0.0
C600 C 0.36846 0.34404 0.6054 0.0
C601 C 0.3951 0.31181 0.61534 0.0
C602 C 0.32455 0.3354 0.60078 0.0
C603 C 0.30662 0.29431 0.60586 0.0
C604 C 0.33419 0.26125 0.6141 0.0
C605 C 0.37786 0.2699 0.61881 0.0
C606 C 0.19734 0.23724 0.60421 0.0
C607 C 0.17112 0.26745 0.61613 0.0
C608 C 0.24082 0.24706 0.59921 0.0
C609 C 0.25879 0.28732 0.60593 0.0
C610 C 0.23146 0.31879 0.61601 0.0
C611 C 0.18815 0.30896 0.62106 0.0
H612 H 0.85545 0.68932 0.09839 0.0
H613 H 0.73643 0.6723 0.13763 0.0
H614 H 0.83547 0.76481 0.09055 0.0
H615 H 0.71702 0.74763 0.13012 0.0
H616 H 0.6837 0.88316 0.11016 0.0
H617 H 0.69796 0.80603 0.10246 0.0
H618 H 0.83424 0.82645 0.11754 0.0
H619 H 0.8202 0.90291 0.12487 0.0
C620 C 0.82472 0.70139 0.10501 0.0
C621 C 0.79795 0.67499 0.11902 0.0
C622 C 0.81333 0.74466 0.10055 0.0
C623 C 0.77489 0.76234 0.10992 0.0
C624 C 0.74667 0.73499 0.12247 0.0
C625 C 0.75806 0.69183 0.12698 0.0
C626 C 0.71684 0.8713 0.11121 0.0
C627 C 0.75072 0.89889 0.11851 0.0
C628 C 0.72496 0.82715 0.10693 0.0
C629 C 0.76715 0.81004 0.10962 0.0
C630 C 0.80144 0.83852 0.11512 0.0
C631 C 0.7933 0.88237 0.11956 0.0
H632 H 0.68832 0.70154 0.38953 0.0
H633 H 0.6687 0.82971 0.36021 0.0
H634 H 0.76466 0.71925 0.39674 0.0
H635 H 0.74479 0.84707 0.36723 0.0
H636 H 0.8816 0.87479 0.38903 0.0
H637 H 0.80477 0.85813 0.39583 0.0
H638 H 0.82429 0.72886 0.36804 0.0
H639 H 0.90061 0.74521 0.36141 0.0
C640 C 0.70001 0.73374 0.38504 0.0
C641 C 0.67259 0.76396 0.37394 0.0
C642 C 0.74376 0.74381 0.38911 0.0
C643 C 0.7608 0.78439 0.38235 0.0
C644 C 0.73261 0.81565 0.3728 0.0
C645 C 0.68901 0.80552 0.36859 0.0
C646 C 0.86965 0.84253 0.38484 0.0
C647 C 0.89707 0.81153 0.37437 0.0
C648 C 0.82565 0.83308 0.38865 0.0
C649 C 0.80845 0.7923 0.38233 0.0
C650 C 0.83658 0.76043 0.37331 0.0
C651 C 0.88032 0.76997 0.36931 0.0
H652 H 0.2492 0.16931 0.85805 0.0
H653 H 0.3745 0.18833 0.89091 0.0
H654 H 0.2315 0.2454 0.86488 0.0
H655 H 0.35644 0.26465 0.89789 0.0
H656 H 0.33362 0.40146 0.86263 0.0
H657 H 0.34948 0.32498 0.86931 0.0
H658 H 0.218 0.30466 0.89366 0.0
H659 H 0.20184 0.38154 0.88683 0.0
C660 C 0.27265 0.1895 0.86715 0.0
C661 C 0.31357 0.1729 0.87358 0.0
C662 C 0.26232 0.23308 0.87124 0.0
C663 C 0.29273 0.26109 0.88176 0.0
C664 C 0.33257 0.24389 0.88951 0.0
C665 C 0.34282 0.20015 0.88557 0.0
C666 C 0.30826 0.38094 0.86982 0.0
C667 C 0.26628 0.39745 0.87387 0.0
C668 C 0.31748 0.33712 0.87383 0.0
C669 C 0.28488 0.30874 0.88185 0.0
C670 C 0.24362 0.32574 0.88725 0.0
C671 C 0.23446 0.36978 0.88342 0.0
loop_
_geom_bond_atom_site_label_1
_geom_bond_atom_site_label_2
_geom_bond_distance
_geom_bond_site_symmetry_2
_ccdc_geom_bond_type
Co0 O3 1.970 . S
Co0 N17 1.989 . S
Co0 O25 1.967 . S
Co0 O32 1.920 . S
Co1 O4 1.966 . S
Co1 N10 2.022 . S
Co1 N18 1.993 . S
Co1 O26 1.941 . S
C2 O3 1.258 . S
C2 O4 1.263 . S
O3 Co0 1.970 . S
O3 C2 1.258 . S
O4 Co1 1.966 . S
O4 C2 1.263 . S
C5 O6 1.235 . S
C5 O32 1.289 . S
O6 C5 1.235 . S
C7 C9 1.400 . S
C7 N10 1.351 . S
C7 C12 1.501 . S
C8 C9 1.387 . S
C8 N11 1.341 . S
C9 C7 1.400 . S
C9 C8 1.387 . S
N10 Co1 2.022 . S
N10 C7 1.351 . S
N10 N11 1.365 . S
N11 C8 1.341 . S
N11 N10 1.365 . S
N11 H31 0.862 . S
C12 C7 1.501 . S
C12 H13 0.961 . S
C12 H14 0.961 . S
C12 H15 0.960 . S
H13 C12 0.961 . S
H14 C12 0.961 . S
H15 C12 0.960 . S
C16 N17 1.342 1_655 S
C16 C20 1.401 . S
C16 C21 1.499 . S
N17 Co0 1.989 . S
N17 C16 1.342 1_455 S
N17 N18 1.388 . S
N18 Co1 1.993 . S
N18 N17 1.388 . S
N18 C19 1.346 1_455 S
C19 N18 1.346 1_655 S
C19 C20 1.396 . S
C19 C29 1.510 . S
C20 C16 1.401 . S
C20 C19 1.396 . S
C21 C16 1.499 . S
C21 H22 0.959 . S
C21 H23 0.960 . S
C21 H24 0.961 . S
H22 C21 0.959 . S
H23 C21 0.960 . S
H24 C21 0.961 . S
O25 Co0 1.967 . S
O25 C33 1.258 . S
O26 Co1 1.941 . S
O26 C33 1.266 . S
H27 C29 0.959 . S
H28 C29 0.961 . S
C29 C19 1.510 . S
C29 H27 0.959 . S
C29 H28 0.961 . S
C29 H30 0.960 . S
H30 C29 0.960 . S
H31 N11 0.862 . S
O32 Co0 1.920 . S
O32 C5 1.289 . S
C33 O25 1.258 . S
C33 O26 1.266 . S
Co34 O37 1.970 . S
Co34 N51 1.989 . S
Co34 O59 1.967 . S
Co34 O66 1.920 . S
Co35 O38 1.966 . S
Co35 N44 2.022 . S
Co35 N52 1.993 . S
Co35 O60 1.941 . S
C36 O37 1.258 . S
C36 O38 1.263 . S
O37 Co34 1.970 . S
O37 C36 1.258 . S
O38 Co35 1.966 . S
O38 C36 1.263 . S
C39 O40 1.235 . S
C39 O66 1.289 . S
O40 C39 1.235 . S
C41 C43 1.400 . S
C41 N44 1.351 . S
C41 C46 1.501 . S
C42 C43 1.387 . S
C42 N45 1.341 . S
C43 C41 1.400 . S
C43 C42 1.387 . S
N44 Co35 2.022 . S
N44 C41 1.351 . S
N44 N45 1.365 . S
N45 C42 1.341 . S
N45 N44 1.365 . S
N45 H65 0.862 . S
C46 C41 1.501 . S
C46 H47 0.961 . S
C46 H48 0.961 . S
C46 H49 0.960 . S
H47 C46 0.961 . S
H48 C46 0.961 . S
H49 C46 0.960 . S
C50 N51 1.342 . S
C50 C54 1.401 . S
C50 C55 1.499 . S
N51 Co34 1.989 . S
N51 C50 1.342 . S
N51 N52 1.388 . S
N52 Co35 1.993 . S
N52 N51 1.388 . S
N52 C53 1.346 . S
C53 N52 1.346 . S
C53 C54 1.396 . S
C53 C63 1.510 . S
C54 C50 1.401 . S
C54 C53 1.396 . S
C55 C50 1.499 . S
C55 H56 0.959 . S
C55 H57 0.960 . S
C55 H58 0.961 . S
H56 C55 0.959 . S
H57 C55 0.960 . S
H58 C55 0.961 . S
O59 Co34 1.967 . S
O59 C67 1.258 . S
O60 Co35 1.941 . S
O60 C67 1.266 . S
H61 C63 0.959 . S
H62 C63 0.961 . S
C63 C53 1.510 . S
C63 H61 0.959 . S
C63 H62 0.961 . S
C63 H64 0.960 . S
H64 C63 0.960 . S
H65 N45 0.862 . S
O66 Co34 1.920 . S
O66 C39 1.289 . S
C67 O59 1.258 . S
C67 O60 1.266 . S
Co68 O71 1.970 . S
Co68 N85 1.989 . S
Co68 O93 1.967 . S
Co68 O100 1.920 . S
Co69 O72 1.966 . S
Co69 N78 2.022 . S
Co69 N86 1.993 . S
Co69 O94 1.941 . S
C70 O71 1.258 . S
C70 O72 1.263 . S
O71 Co68 1.970 . S
O71 C70 1.258 . S
O72 Co69 1.966 . S
O72 C70 1.263 . S
C73 O74 1.235 . S
C73 O100 1.289 . S
O74 C73 1.235 . S
C75 C77 1.400 . S
C75 N78 1.351 . S
C75 C80 1.501 . S
C76 C77 1.387 . S
C76 N79 1.341 . S
C77 C75 1.400 . S
C77 C76 1.387 . S
N78 Co69 2.022 . S
N78 C75 1.351 . S
N78 N79 1.365 . S
N79 C76 1.341 . S
N79 N78 1.365 . S
N79 H99 0.862 . S
C80 C75 1.501 . S
C80 H81 0.961 . S
C80 H82 0.961 . S
C80 H83 0.960 . S
H81 C80 0.961 . S
H82 C80 0.961 . S
H83 C80 0.960 . S
C84 N85 1.342 . S
C84 C88 1.401 . S
C84 C89 1.499 . S
N85 Co68 1.989 . S
N85 C84 1.342 . S
N85 N86 1.388 . S
N86 Co69 1.993 . S
N86 N85 1.388 . S
N86 C87 1.346 . S
C87 N86 1.346 . S
C87 C88 1.396 . S
C87 C97 1.510 . S
C88 C84 1.401 . S
C88 C87 1.396 . S
C89 C84 1.499 . S
C89 H90 0.959 . S
C89 H91 0.960 . S
C89 H92 0.961 . S
H90 C89 0.959 . S
H91 C89 0.960 . S
H92 C89 0.961 . S
O93 Co68 1.967 . S
O93 C101 1.258 . S
O94 Co69 1.941 . S
O94 C101 1.266 . S
H95 C97 0.959 . S
H96 C97 0.961 . S
C97 C87 1.510 . S
C97 H95 0.959 . S
C97 H96 0.961 . S
C97 H98 0.960 . S
H98 C97 0.960 . S
H99 N79 0.862 . S
O100 Co68 1.920 . S
O100 C73 1.289 . S
C101 O93 1.258 . S
C101 O94 1.266 . S
Co102 O105 1.970 1_545 S
Co102 N119 1.989 . S
Co102 O127 1.967 1_545 S
Co102 O134 1.920 . S
Co103 O106 1.966 1_545 S
Co103 N112 2.022 . S
Co103 N120 1.993 . S
Co103 O128 1.941 1_545 S
C104 O105 1.258 . S
C104 O106 1.263 . S
O105 Co102 1.970 1_565 S
O105 C104 1.258 . S
O106 Co103 1.966 1_565 S
O106 C104 1.263 . S
C107 O108 1.235 . S
C107 O134 1.289 . S
O108 C107 1.235 . S
C109 C111 1.400 . S
C109 N112 1.351 . S
C109 C114 1.501 1_545 S
C110 C111 1.387 . S
C110 N113 1.341 . S
C111 C109 1.400 . S
C111 C110 1.387 . S
N112 Co103 2.022 . S
N112 C109 1.351 . S
N112 N113 1.365 . S
N113 C110 1.341 . S
N113 N112 1.365 . S
N113 H133 0.862 . S
C114 C109 1.501 1_565 S
C114 H115 0.961 . S
C114 H116 0.961 . S
C114 H117 0.960 . S
H115 C114 0.961 . S
H116 C114 0.961 . S
H117 C114 0.960 . S
C118 N119 1.342 . S
C118 C122 1.401 . S
C118 C123 1.499 . S
N119 Co102 1.989 . S
N119 C118 1.342 . S
N119 N120 1.388 . S
N120 Co103 1.993 . S
N120 N119 1.388 . S
N120 C121 1.346 . S
C121 N120 1.346 . S
C121 C122 1.396 . S
C121 C131 1.510 . S
C122 C118 1.401 . S
C122 C121 1.396 . S
C123 C118 1.499 . S
C123 H124 0.959 . S
C123 H125 0.960 . S
C123 H126 0.961 . S
H124 C123 0.959 . S
H125 C123 0.960 . S
H126 C123 0.961 . S
O127 Co102 1.967 1_565 S
O127 C135 1.258 . S
O128 Co103 1.941 1_565 S
O128 C135 1.266 . S
H129 C131 0.959 . S
H130 C131 0.961 . S
C131 C121 1.510 . S
C131 H129 0.959 . S
C131 H130 0.961 . S
C131 H132 0.960 . S
H132 C131 0.960 . S
H133 N113 0.862 . S
O134 Co102 1.920 . S
O134 C107 1.289 . S
C135 O127 1.258 . S
C135 O128 1.266 . S
Co136 O139 1.970 1_455 S
Co136 N153 1.989 . S
Co136 O161 1.967 1_455 S
Co136 O168 1.920 . S
Co137 O140 1.966 1_455 S
Co137 N146 2.022 . S
Co137 N154 1.993 . S
Co137 O162 1.941 1_455 S
C138 O139 1.258 . S
C138 O140 1.263 . S
O139 Co136 1.970 1_655 S
O139 C138 1.258 . S
O140 Co137 1.966 1_655 S
O140 C138 1.263 . S
C141 O142 1.235 . S
C141 O168 1.289 . S
O142 C141 1.235 . S
C143 C145 1.400 . S
C143 N146 1.351 . S
C143 C148 1.501 1_455 S
C144 C145 1.387 . S
C144 N147 1.341 . S
C145 C143 1.400 . S
C145 C144 1.387 . S
N146 Co137 2.022 . S
N146 C143 1.351 . S
N146 N147 1.365 . S
N147 C144 1.341 . S
N147 N146 1.365 . S
N147 H167 0.862 . S
C148 C143 1.501 1_655 S
C148 H149 0.961 . S
C148 H150 0.961 . S
C148 H151 0.960 . S
H149 C148 0.961 . S
H150 C148 0.961 . S
H151 C148 0.960 . S
C152 N153 1.342 . S
C152 C156 1.401 . S
C152 C157 1.499 . S
N153 Co136 1.989 . S
N153 C152 1.342 . S
N153 N154 1.388 . S
N154 Co137 1.993 . S
N154 N153 1.388 . S
N154 C155 1.346 . S
C155 N154 1.346 . S
C155 C156 1.396 . S
C155 C165 1.510 . S
C156 C152 1.401 . S
C156 C155 1.396 . S
C157 C152 1.499 . S
C157 H158 0.959 . S
C157 H159 0.960 . S
C157 H160 0.961 . S
H158 C157 0.959 . S
H159 C157 0.960 . S
H160 C157 0.961 . S
O161 Co136 1.967 1_655 S
O161 C169 1.258 . S
O162 Co137 1.941 1_655 S
O162 C169 1.266 . S
H163 C165 0.959 . S
H164 C165 0.961 . S
C165 C155 1.510 . S
C165 H163 0.959 . S
C165 H164 0.961 . S
C165 H166 0.960 . S
H166 C165 0.960 . S
H167 N147 0.862 . S
O168 Co136 1.920 . S
O168 C141 1.289 . S
C169 O161 1.258 . S
C169 O162 1.266 . S
Co170 O173 1.970 . S
Co170 N187 1.989 . S
Co170 O195 1.967 . S
Co170 O202 1.920 . S
Co171 O174 1.966 . S
Co171 N180 2.022 . S
Co171 N188 1.993 . S
Co171 O196 1.941 . S
C172 O173 1.258 . S
C172 O174 1.263 . S
O173 Co170 1.970 . S
O173 C172 1.258 . S
O174 Co171 1.966 . S
O174 C172 1.263 . S
C175 O176 1.235 . S
C175 O202 1.289 . S
O176 C175 1.235 . S
C177 C179 1.400 . S
C177 N180 1.351 . S
C177 C182 1.501 . S
C178 C179 1.387 . S
C178 N181 1.341 . S
C179 C177 1.400 . S
C179 C178 1.387 . S
N180 Co171 2.022 . S
N180 C177 1.351 . S
N180 N181 1.365 . S
N181 C178 1.341 . S
N181 N180 1.365 . S
N181 H201 0.862 . S
C182 C177 1.501 . S
C182 H183 0.961 . S
C182 H184 0.961 . S
C182 H185 0.960 . S
H183 C182 0.961 . S
H184 C182 0.961 . S
H185 C182 0.960 . S
C186 N187 1.342 . S
C186 C190 1.401 . S
C186 C191 1.499 . S
N187 Co170 1.989 . S
N187 C186 1.342 . S
N187 N188 1.388 . S
N188 Co171 1.993 . S
N188 N187 1.388 . S
N188 C189 1.346 . S
C189 N188 1.346 . S
C189 C190 1.396 . S
C189 C199 1.510 . S
C190 C186 1.401 . S
C190 C189 1.396 . S
C191 C186 1.499 . S
C191 H192 0.959 . S
C191 H193 0.960 . S
C191 H194 0.961 . S
H192 C191 0.959 . S
H193 C191 0.960 . S
H194 C191 0.961 . S
O195 Co170 1.967 . S
O195 C203 1.258 . S
O196 Co171 1.941 . S
O196 C203 1.266 . S
H197 C199 0.959 . S
H198 C199 0.961 . S
C199 C189 1.510 . S
C199 H197 0.959 . S
C199 H198 0.961 . S
C199 H200 0.960 . S
H200 C199 0.960 . S
H201 N181 0.862 . S
O202 Co170 1.920 . S
O202 C175 1.289 . S
C203 O195 1.258 . S
C203 O196 1.266 . S
Co204 O207 1.970 . S
Co204 N221 1.989 . S
Co204 O229 1.967 . S
Co204 O236 1.920 . S
Co205 O208 1.966 . S
Co205 N214 2.022 . S
Co205 N222 1.993 . S
Co205 O230 1.941 . S
C206 O207 1.258 . S
C206 O208 1.263 . S
O207 Co204 1.970 . S
O207 C206 1.258 . S
O208 Co205 1.966 . S
O208 C206 1.263 . S
C209 O210 1.235 . S
C209 O236 1.289 . S
O210 C209 1.235 . S
C211 C213 1.400 . S
C211 N214 1.351 . S
C211 C216 1.501 . S
C212 C213 1.387 . S
C212 N215 1.341 . S
C213 C211 1.400 . S
C213 C212 1.387 . S
N214 Co205 2.022 . S
N214 C211 1.351 . S
N214 N215 1.365 . S
N215 C212 1.341 . S
N215 N214 1.365 . S
N215 H235 0.862 . S
C216 C211 1.501 . S
C216 H217 0.961 . S
C216 H218 0.961 . S
C216 H219 0.960 . S
H217 C216 0.961 . S
H218 C216 0.961 . S
H219 C216 0.960 . S
C220 N221 1.342 . S
C220 C224 1.401 . S
C220 C225 1.499 . S
N221 Co204 1.989 . S
N221 C220 1.342 . S
N221 N222 1.388 . S
N222 Co205 1.993 . S
N222 N221 1.388 . S
N222 C223 1.346 . S
C223 N222 1.346 . S
C223 C224 1.396 . S
C223 C233 1.510 . S
C224 C220 1.401 . S
C224 C223 1.396 . S
C225 C220 1.499 . S
C225 H226 0.959 . S
C225 H227 0.960 . S
C225 H228 0.961 . S
H226 C225 0.959 . S
H227 C225 0.960 . S
H228 C225 0.961 . S
O229 Co204 1.967 . S
O229 C237 1.258 . S
O230 Co205 1.941 . S
O230 C237 1.266 . S
H231 C233 0.959 . S
H232 C233 0.961 . S
C233 C223 1.510 . S
C233 H231 0.959 . S
C233 H232 0.961 . S
C233 H234 0.960 . S
H234 C233 0.960 . S
H235 N215 0.862 . S
O236 Co204 1.920 . S
O236 C209 1.289 . S
C237 O229 1.258 . S
C237 O230 1.266 . S
Co238 O241 1.970 . S
Co238 N255 1.989 . S
Co238 O263 1.967 . S
Co238 O270 1.920 . S
Co239 O242 1.966 . S
Co239 N248 2.022 . S
Co239 N256 1.993 . S
Co239 O264 1.941 . S
C240 O241 1.258 . S
C240 O242 1.263 . S
O241 Co238 1.970 . S
O241 C240 1.258 . S
O242 Co239 1.966 . S
O242 C240 1.263 . S
C243 O244 1.235 . S
C243 O270 1.289 . S
O244 C243 1.235 . S
C245 C247 1.400 . S
C245 N248 1.351 . S
C245 C250 1.501 . S
C246 C247 1.387 . S
C246 N249 1.341 . S
C247 C245 1.400 . S
C247 C246 1.387 . S
N248 Co239 2.022 . S
N248 C245 1.351 . S
N248 N249 1.365 . S
N249 C246 1.341 . S
N249 N248 1.365 . S
N249 H269 0.862 . S
C250 C245 1.501 . S
C250 H251 0.961 . S
C250 H252 0.961 . S
C250 H253 0.960 . S
H251 C250 0.961 . S
H252 C250 0.961 . S
H253 C250 0.960 . S
C254 N255 1.342 1_565 S
C254 C258 1.401 . S
C254 C259 1.499 . S
N255 Co238 1.989 . S
N255 C254 1.342 1_545 S
N255 N256 1.388 . S
N256 Co239 1.993 . S
N256 N255 1.388 . S
N256 C257 1.346 1_545 S
C257 N256 1.346 1_565 S
C257 C258 1.396 . S
C257 C267 1.510 . S
C258 C254 1.401 . S
C258 C257 1.396 . S
C259 C254 1.499 . S
C259 H260 0.959 . S
C259 H261 0.960 . S
C259 H262 0.961 . S
H260 C259 0.959 . S
H261 C259 0.960 . S
H262 C259 0.961 . S
O263 Co238 1.967 . S
O263 C271 1.258 . S
O264 Co239 1.941 . S
O264 C271 1.266 . S
H265 C267 0.959 . S
H266 C267 0.961 . S
C267 C257 1.510 . S
C267 H265 0.959 . S
C267 H266 0.961 . S
C267 H268 0.960 . S
H268 C267 0.960 . S
H269 N249 0.862 . S
O270 Co238 1.920 . S
O270 C243 1.289 . S
C271 O263 1.258 . S
C271 O264 1.266 . S
H272 C280 0.950 1_655 S
H273 C285 0.950 . S
H274 C282 0.950 1_655 S
H275 C284 0.950 . S
H276 C286 0.950 . S
H277 C288 0.950 . S
H278 C290 0.942 1_655 S
H279 C291 0.958 . S
C280 H272 0.950 1_455 S
C280 C281 1.386 . S
C280 C282 1.391 1_565 S
C281 C280 1.386 . S
C281 C285 1.393 . S
C282 H274 0.950 1_455 S
C282 C280 1.391 1_545 S
C282 C283 1.400 . S
C283 C282 1.400 . S
C283 C284 1.398 . S
C283 C289 1.491 . S
C284 H275 0.950 . S
C284 C283 1.398 . S
C284 C285 1.391 1_545 S
C285 H273 0.950 . S
C285 C281 1.393 . S
C285 C284 1.391 1_565 S
C286 H276 0.950 . S
C286 C287 1.386 . S
C286 C288 1.391 . S
C287 C286 1.386 . S
C287 C291 1.385 1_455 S
C288 H277 0.950 . S
C288 C286 1.391 . S
C288 C289 1.400 . S
C289 C283 1.491 . S
C289 C288 1.400 . S
C289 C290 1.406 . S
C290 H278 0.942 1_455 S
C290 C289 1.406 . S
C290 C291 1.390 1_455 S
C291 H279 0.958 . S
C291 C287 1.385 1_655 S
C291 C290 1.390 1_655 S
H292 C300 0.950 . S
H293 C305 0.950 . S
H294 C302 0.950 1_556 S
H295 C304 0.950 . S
H296 C306 0.950 . S
H297 C308 0.950 1_554 S
H298 C310 0.950 . S
H299 C311 0.950 . S
C300 H292 0.950 . S
C300 C301 1.386 . S
C300 C302 1.391 . S
C301 C300 1.386 . S
C301 C305 1.393 1_655 S
C302 H294 0.950 1_554 S
C302 C300 1.391 . S
C302 C303 1.400 1_655 S
C303 C302 1.400 1_455 S
C303 C304 1.398 . S
C303 C309 1.491 1_554 S
C304 H295 0.950 . S
C304 C303 1.398 . S
C304 C305 1.391 . S
C305 H293 0.950 . S
C305 C301 1.393 1_455 S
C305 C304 1.391 . S
C306 H296 0.950 . S
C306 C307 1.386 . S
C306 C308 1.391 . S
C307 C306 1.386 . S
C307 C311 1.393 . S
C308 H297 0.950 1_556 S
C308 C306 1.391 . S
C308 C309 1.400 . S
C309 C303 1.491 1_556 S
C309 C308 1.400 . S
C309 C310 1.398 . S
C310 H298 0.950 . S
C310 C309 1.398 . S
C310 C311 1.391 . S
C311 H299 0.950 . S
C311 C307 1.393 . S
C311 C310 1.391 . S
H312 C320 0.950 . S
H313 C325 0.950 . S
H314 C322 0.950 . S
H315 C324 0.950 . S
H316 C326 0.950 . S
H317 C328 0.950 . S
H318 C330 0.950 . S
H319 C331 0.950 . S
C320 H312 0.950 . S
C320 C321 1.386 . S
C320 C322 1.391 . S
C321 C320 1.386 . S
C321 C325 1.393 . S
C322 H314 0.950 . S
C322 C320 1.391 . S
C322 C323 1.400 . S
C323 C322 1.400 . S
C323 C324 1.398 . S
C323 C329 1.491 . S
C324 H315 0.950 . S
C324 C323 1.398 . S
C324 C325 1.391 . S
C325 H313 0.950 . S
C325 C321 1.393 . S
C325 C324 1.391 . S
C326 H316 0.950 . S
C326 C327 1.386 . S
C326 C328 1.391 . S
C327 C326 1.386 . S
C327 C331 1.393 . S
C328 H317 0.950 . S
C328 C326 1.391 . S
C328 C329 1.400 . S
C329 C323 1.491 . S
C329 C328 1.400 . S
C329 C330 1.398 . S
C330 H318 0.950 . S
C330 C329 1.398 . S
C330 C331 1.391 . S
C331 H319 0.950 . S
C331 C327 1.393 . S
C331 C330 1.391 . S
H332 C340 0.950 1_565 S
H333 C345 0.950 . S
H334 C342 0.976 1_565 S
H335 C344 0.950 . S
H336 C346 0.950 . S
H337 C348 0.976 . S
H338 C350 0.950 1_565 S
H339 C351 0.950 1_565 S
C340 H332 0.950 1_545 S
C340 C341 1.386 . S
C340 C342 1.391 . S
C341 C340 1.386 . S
C341 C345 1.393 . S
C342 H334 0.976 1_545 S
C342 C340 1.391 . S
C342 C343 1.400 . S
C343 C342 1.400 . S
C343 C344 1.398 . S
C343 C349 1.491 1_556 S
C344 H335 0.950 . S
C344 C343 1.398 . S
C344 C345 1.391 . S
C345 H333 0.950 . S
C345 C341 1.393 . S
C345 C344 1.391 . S
C346 H336 0.950 . S
C346 C347 1.386 . S
C346 C348 1.391 . S
C347 C346 1.386 . S
C347 C351 1.393 . S
C348 H337 0.976 . S
C348 C346 1.391 . S
C348 C349 1.400 . S
C349 C343 1.491 1_554 S
C349 C348 1.400 . S
C349 C350 1.398 . S
C350 H338 0.950 1_545 S
C350 C349 1.398 . S
C350 C351 1.391 . S
C351 H339 0.950 1_545 S
C351 C347 1.393 . S
C351 C350 1.391 . S
H352 C360 0.950 . S
H353 C365 0.950 . S
H354 C362 0.950 . S
H355 C364 0.950 . S
H356 C366 0.950 . S
H357 C368 0.950 . S
H358 C370 0.950 . S
H359 C371 0.950 . S
C360 H352 0.950 . S
C360 C361 1.386 . S
C360 C362 1.391 . S
C361 C360 1.386 . S
C361 C365 1.393 . S
C362 H354 0.950 . S
C362 C360 1.391 . S
C362 C363 1.400 . S
C363 C362 1.400 . S
C363 C364 1.398 . S
C363 C369 1.491 . S
C364 H355 0.950 . S
C364 C363 1.398 . S
C364 C365 1.391 . S
C365 H353 0.950 . S
C365 C361 1.393 . S
C365 C364 1.391 . S
C366 H356 0.950 . S
C366 C367 1.386 . S
C366 C368 1.391 . S
C367 C366 1.386 . S
C367 C371 1.393 . S
C368 H357 0.950 . S
C368 C366 1.391 . S
C368 C369 1.400 . S
C369 C363 1.491 . S
C369 C368 1.400 . S
C369 C370 1.398 . S
C370 H358 0.950 . S
C370 C369 1.398 . S
C370 C371 1.391 . S
C371 H359 0.950 . S
C371 C367 1.393 . S
C371 C370 1.391 . S
H372 C380 0.950 . S
H373 C385 0.950 . S
H374 C382 0.950 . S
H375 C384 0.950 . S
H376 C386 0.950 . S
H377 C388 0.950 . S
H378 C390 0.950 . S
H379 C391 0.950 . S
C380 H372 0.950 . S
C380 C381 1.386 . S
C380 C382 1.391 . S
C381 C380 1.386 . S
C381 C385 1.393 1_455 S
C382 H374 0.950 . S
C382 C380 1.391 . S
C382 C383 1.400 1_455 S
C383 C382 1.400 1_655 S
C383 C384 1.398 . S
C383 C389 1.491 . S
C384 H375 0.950 . S
C384 C383 1.398 . S
C384 C385 1.391 . S
C385 H373 0.950 . S
C385 C381 1.393 1_655 S
C385 C384 1.391 . S
C386 H376 0.950 . S
C386 C387 1.386 . S
C386 C388 1.391 . S
C387 C386 1.386 . S
C387 C391 1.393 . S
C388 H377 0.950 . S
C388 C386 1.391 . S
C388 C389 1.400 . S
C389 C383 1.491 . S
C389 C388 1.400 . S
C389 C390 1.398 . S
C390 H378 0.950 . S
C390 C389 1.398 . S
C390 C391 1.391 . S
C391 H379 0.950 . S
C391 C387 1.393 . S
C391 C390 1.391 . S
H392 C400 0.950 . S
H393 C405 0.950 . S
H394 C402 0.950 . S
H395 C404 0.950 . S
H396 C406 0.950 . S
H397 C408 0.950 . S
H398 C410 0.950 . S
H399 C411 0.950 . S
C400 H392 0.950 . S
C400 C401 1.386 . S
C400 C402 1.391 . S
C401 C400 1.386 . S
C401 C405 1.393 . S
C402 H394 0.950 . S
C402 C400 1.391 . S
C402 C403 1.400 . S
C403 C402 1.400 . S
C403 C404 1.398 . S
C403 C409 1.491 . S
C404 H395 0.950 . S
C404 C403 1.398 . S
C404 C405 1.391 . S
C405 H393 0.950 . S
C405 C401 1.393 . S
C405 C404 1.391 . S
C406 H396 0.950 . S
C406 C407 1.386 . S
C406 C408 1.391 . S
C407 C406 1.386 . S
C407 C411 1.393 . S
C408 H397 0.950 . S
C408 C406 1.391 . S
C408 C409 1.400 . S
C409 C403 1.491 . S
C409 C408 1.400 . S
C409 C410 1.398 . S
C410 H398 0.950 . S
C410 C409 1.398 . S
C410 C411 1.391 . S
C411 H399 0.950 . S
C411 C407 1.393 . S
C411 C410 1.391 . S
H412 C420 0.950 . S
H413 C425 0.950 . S
H414 C422 0.950 . S
H415 C424 0.950 . S
H416 C426 0.950 1_545 S
H417 C428 0.950 . S
H418 C430 0.950 . S
H419 C431 0.950 . S
C420 H412 0.950 . S
C420 C421 1.386 . S
C420 C422 1.391 . S
C421 C420 1.386 . S
C421 C425 1.393 . S
C422 H414 0.950 . S
C422 C420 1.391 . S
C422 C423 1.400 . S
C423 C422 1.400 . S
C423 C424 1.398 . S
C423 C429 1.491 . S
C424 H415 0.950 . S
C424 C423 1.398 . S
C424 C425 1.391 . S
C425 H413 0.950 . S
C425 C421 1.393 . S
C425 C424 1.391 . S
C426 H416 0.950 1_565 S
C426 C427 1.386 . S
C426 C428 1.391 . S
C427 C426 1.386 . S
C427 C431 1.393 . S
C428 H417 0.950 . S
C428 C426 1.391 . S
C428 C429 1.400 . S
C429 C423 1.491 . S
C429 C428 1.400 . S
C429 C430 1.398 . S
C430 H418 0.950 . S
C430 C429 1.398 . S
C430 C431 1.391 . S
C431 H419 0.950 . S
C431 C427 1.393 . S
C431 C430 1.391 . S
H432 C440 0.950 . S
H433 C445 0.950 . S
H434 C442 0.950 . S
H435 C444 0.950 . S
H436 C446 0.952 . S
H437 C448 0.950 . S
H438 C450 0.950 . S
H439 C451 0.950 1_545 S
C440 H432 0.950 . S
C440 C441 1.386 . S
C440 C442 1.391 . S
C441 C440 1.386 . S
C441 C445 1.393 1_655 S
C442 H434 0.950 . S
C442 C440 1.391 . S
C442 C443 1.400 . S
C443 C442 1.400 . S
C443 C444 1.398 . S
C443 C449 1.491 . S
C444 H435 0.950 . S
C444 C443 1.398 . S
C444 C445 1.391 1_655 S
C445 H433 0.950 . S
C445 C441 1.393 1_455 S
C445 C444 1.391 1_455 S
C446 H436 0.952 . S
C446 C447 1.386 1_565 S
C446 C448 1.391 . S
C447 C446 1.386 1_545 S
C447 C451 1.393 1_545 S
C448 H437 0.950 . S
C448 C446 1.391 . S
C448 C449 1.400 . S
C449 C443 1.491 . S
C449 C448 1.400 . S
C449 C450 1.398 . S
C450 H438 0.950 . S
C450 C449 1.398 . S
C450 C451 1.391 . S
C451 H439 0.950 1_565 S
C451 C447 1.393 1_565 S
C451 C450 1.391 . S
H452 C460 0.950 . S
H453 C465 0.950 . S
H454 C462 0.950 . S
H455 C464 0.950 . S
H456 C466 0.950 . S
H457 C468 0.950 . S
H458 C470 0.950 . S
H459 C471 0.950 . S
C460 H452 0.950 . S
C460 C461 1.386 . S
C460 C462 1.391 . S
C461 C460 1.386 . S
C461 C465 1.393 . S
C462 H454 0.950 . S
C462 C460 1.391 . S
C462 C463 1.400 . S
C463 C462 1.400 . S
C463 C464 1.398 . S
C463 C469 1.491 . S
C464 H455 0.950 . S
C464 C463 1.398 . S
C464 C465 1.391 . S
C465 H453 0.950 . S
C465 C461 1.393 . S
C465 C464 1.391 . S
C466 H456 0.950 . S
C466 C467 1.386 . S
C466 C468 1.391 . S
C467 C466 1.386 . S
C467 C471 1.393 . S
C468 H457 0.950 . S
C468 C466 1.391 . S
C468 C469 1.400 . S
C469 C463 1.491 . S
C469 C468 1.400 . S
C469 C470 1.398 . S
C470 H458 0.950 . S
C470 C469 1.398 . S
C470 C471 1.391 . S
C471 H459 0.950 . S
C471 C467 1.393 . S
C471 C470 1.391 . S
H472 C480 0.950 . S
H473 C485 0.950 . S
H474 C482 0.950 . S
H475 C484 0.950 . S
H476 C486 0.950 . S
H477 C488 0.950 . S
H478 C490 0.950 . S
H479 C491 0.950 . S
C480 H472 0.950 . S
C480 C481 1.386 . S
C480 C482 1.391 . S
C481 C480 1.386 . S
C481 C485 1.393 . S
C482 H474 0.950 . S
C482 C480 1.391 . S
C482 C483 1.400 . S
C483 C482 1.400 . S
C483 C484 1.398 . S
C483 C489 1.491 . S
C484 H475 0.950 . S
C484 C483 1.398 . S
C484 C485 1.391 . S
C485 H473 0.950 . S
C485 C481 1.393 . S
C485 C484 1.391 . S
C486 H476 0.950 . S
C486 C487 1.386 . S
C486 C488 1.391 . S
C487 C486 1.386 . S
C487 C491 1.393 . S
C488 H477 0.950 . S
C488 C486 1.391 . S
C488 C489 1.400 . S
C489 C483 1.491 . S
C489 C488 1.400 . S
C489 C490 1.398 . S
C490 H478 0.950 . S
C490 C489 1.398 . S
C490 C491 1.391 . S
C491 H479 0.950 . S
C491 C487 1.393 . S
C491 C490 1.391 . S
H492 C500 0.950 . S
H493 C505 0.950 . S
H494 C502 0.950 . S
H495 C504 0.950 . S
H496 C506 0.950 . S
H497 C508 0.950 . S
H498 C510 0.950 . S
H499 C511 0.950 . S
C500 H492 0.950 . S
C500 C501 1.386 . S
C500 C502 1.391 . S
C501 C500 1.386 . S
C501 C505 1.393 . S
C502 H494 0.950 . S
C502 C500 1.391 . S
C502 C503 1.400 . S
C503 C502 1.400 . S
C503 C504 1.398 . S
C503 C509 1.491 . S
C504 H495 0.950 . S
C504 C503 1.398 . S
C504 C505 1.391 . S
C505 H493 0.950 . S
C505 C501 1.393 . S
C505 C504 1.391 . S
C506 H496 0.950 . S
C506 C507 1.386 . S
C506 C508 1.391 . S
C507 C506 1.386 . S
C507 C511 1.393 . S
C508 H497 0.950 . S
C508 C506 1.391 . S
C508 C509 1.400 . S
C509 C503 1.491 . S
C509 C508 1.400 . S
C509 C510 1.398 . S
C510 H498 0.950 . S
C510 C509 1.398 . S
C510 C511 1.391 . S
C511 H499 0.950 . S
C511 C507 1.393 . S
C511 C510 1.391 . S
H512 C520 0.950 . S
H513 C525 0.950 . S
H514 C522 0.950 . S
H515 C524 0.950 . S
H516 C526 0.950 . S
H517 C528 0.950 . S
H518 C530 0.950 . S
H519 C531 0.950 . S
C520 H512 0.950 . S
C520 C521 1.386 . S
C520 C522 1.391 . S
C521 C520 1.386 . S
C521 C525 1.393 . S
C522 H514 0.950 . S
C522 C520 1.391 . S
C522 C523 1.400 . S
C523 C522 1.400 . S
C523 C524 1.398 . S
C523 C529 1.491 . S
C524 H515 0.950 . S
C524 C523 1.398 . S
C524 C525 1.391 . S
C525 H513 0.950 . S
C525 C521 1.393 . S
C525 C524 1.391 . S
C526 H516 0.950 . S
C526 C527 1.386 . S
C526 C528 1.391 . S
C527 C526 1.386 . S
C527 C531 1.393 . S
C528 H517 0.950 . S
C528 C526 1.391 . S
C528 C529 1.400 . S
C529 C523 1.491 . S
C529 C528 1.400 . S
C529 C530 1.398 . S
C530 H518 0.950 . S
C530 C529 1.398 . S
C530 C531 1.391 . S
C531 H519 0.950 . S
C531 C527 1.393 . S
C531 C530 1.391 . S
H532 C540 0.950 . S
H533 C545 0.950 . S
H534 C542 0.950 . S
H535 C544 0.950 . S
H536 C546 0.950 . S
H537 C548 0.950 . S
H538 C550 0.950 . S
H539 C551 0.950 . S
C540 H532 0.950 . S
C540 C541 1.386 . S
C540 C542 1.391 . S
C541 C540 1.386 . S
C541 C545 1.393 . S
C542 H534 0.950 . S
C542 C540 1.391 . S
C542 C543 1.400 . S
C543 C542 1.400 . S
C543 C544 1.398 . S
C543 C549 1.491 . S
C544 H535 0.950 . S
C544 C543 1.398 . S
C544 C545 1.391 . S
C545 H533 0.950 . S
C545 C541 1.393 . S
C545 C544 1.391 . S
C546 H536 0.950 . S
C546 C547 1.386 . S
C546 C548 1.391 . S
C547 C546 1.386 . S
C547 C551 1.393 . S
C548 H537 0.950 . S
C548 C546 1.391 . S
C548 C549 1.400 . S
C549 C543 1.491 . S
C549 C548 1.400 . S
C549 C550 1.398 . S
C550 H538 0.950 . S
C550 C549 1.398 . S
C550 C551 1.391 . S
C551 H539 0.950 . S
C551 C547 1.393 . S
C551 C550 1.391 . S
H552 C560 0.950 . S
H553 C565 0.950 . S
H554 C562 0.950 . S
H555 C564 0.950 . S
H556 C566 0.950 . S
H557 C568 0.950 . S
H558 C570 0.950 . S
H559 C571 0.950 . S
C560 H552 0.950 . S
C560 C561 1.386 . S
C560 C562 1.391 . S
C561 C560 1.386 . S
C561 C565 1.393 . S
C562 H554 0.950 . S
C562 C560 1.391 . S
C562 C563 1.400 . S
C563 C562 1.400 . S
C563 C564 1.398 . S
C563 C569 1.491 . S
C564 H555 0.950 . S
C564 C563 1.398 . S
C564 C565 1.391 . S
C565 H553 0.950 . S
C565 C561 1.393 . S
C565 C564 1.391 . S
C566 H556 0.950 . S
C566 C567 1.386 . S
C566 C568 1.391 . S
C567 C566 1.386 . S
C567 C571 1.393 . S
C568 H557 0.950 . S
C568 C566 1.391 . S
C568 C569 1.400 . S
C569 C563 1.491 . S
C569 C568 1.400 . S
C569 C570 1.398 . S
C570 H558 0.950 . S
C570 C569 1.398 . S
C570 C571 1.391 . S
C571 H559 0.950 . S
C571 C567 1.393 . S
C571 C570 1.391 . S
H572 C580 0.950 . S
H573 C585 0.950 . S
H574 C582 0.950 . S
H575 C584 0.950 . S
H576 C586 0.950 . S
H577 C588 0.950 . S
H578 C590 0.950 . S
H579 C591 0.950 . S
C580 H572 0.950 . S
C580 C581 1.386 . S
C580 C582 1.391 . S
C581 C580 1.386 . S
C581 C585 1.393 . S
C582 H574 0.950 . S
C582 C580 1.391 . S
C582 C583 1.400 . S
C583 C582 1.400 . S
C583 C584 1.398 . S
C583 C589 1.491 . S
C584 H575 0.950 . S
C584 C583 1.398 . S
C584 C585 1.391 . S
C585 H573 0.950 . S
C585 C581 1.393 . S
C585 C584 1.391 . S
C586 H576 0.950 . S
C586 C587 1.386 . S
C586 C588 1.391 . S
C587 C586 1.386 . S
C587 C591 1.393 . S
C588 H577 0.950 . S
C588 C586 1.391 . S
C588 C589 1.400 . S
C589 C583 1.491 . S
C589 C588 1.400 . S
C589 C590 1.398 . S
C590 H578 0.950 . S
C590 C589 1.398 . S
C590 C591 1.391 . S
C591 H579 0.950 . S
C591 C587 1.393 . S
C591 C590 1.391 . S
H592 C600 0.950 . S
H593 C605 0.950 . S
H594 C602 0.950 . S
H595 C604 0.950 . S
H596 C606 0.950 . S
H597 C608 0.950 . S
H598 C610 0.950 . S
H599 C611 0.950 . S
C600 H592 0.950 . S
C600 C601 1.386 . S
C600 C602 1.391 . S
C601 C600 1.386 . S
C601 C605 1.393 . S
C602 H594 0.950 . S
C602 C600 1.391 . S
C602 C603 1.400 . S
C603 C602 1.400 . S
C603 C604 1.398 . S
C603 C609 1.491 . S
C604 H595 0.950 . S
C604 C603 1.398 . S
C604 C605 1.391 . S
C605 H593 0.950 . S
C605 C601 1.393 . S
C605 C604 1.391 . S
C606 H596 0.950 . S
C606 C607 1.386 . S
C606 C608 1.391 . S
C607 C606 1.386 . S
C607 C611 1.393 . S
C608 H597 0.950 . S
C608 C606 1.391 . S
C608 C609 1.400 . S
C609 C603 1.491 . S
C609 C608 1.400 . S
C609 C610 1.398 . S
C610 H598 0.950 . S
C610 C609 1.398 . S
C610 C611 1.391 . S
C611 H599 0.950 . S
C611 C607 1.393 . S
C611 C610 1.391 . S
H612 C620 0.950 . S
H613 C625 0.950 . S
H614 C622 0.950 . S
H615 C624 0.950 . S
H616 C626 0.950 . S
H617 C628 0.950 . S
H618 C630 0.950 . S
H619 C631 0.950 . S
C620 H612 0.950 . S
C620 C621 1.386 . S
C620 C622 1.391 . S
C621 C620 1.386 . S
C621 C625 1.393 . S
C622 H614 0.950 . S
C622 C620 1.391 . S
C622 C623 1.400 . S
C623 C622 1.400 . S
C623 C624 1.398 . S
C623 C629 1.491 . S
C624 H615 0.950 . S
C624 C623 1.398 . S
C624 C625 1.391 . S
C625 H613 0.950 . S
C625 C621 1.393 . S
C625 C624 1.391 . S
C626 H616 0.950 . S
C626 C627 1.386 . S
C626 C628 1.391 . S
C627 C626 1.386 . S
C627 C631 1.393 . S
C628 H617 0.950 . S
C628 C626 1.391 . S
C628 C629 1.400 . S
C629 C623 1.491 . S
C629 C628 1.400 . S
C629 C630 1.398 . S
C630 H618 0.950 . S
C630 C629 1.398 . S
C630 C631 1.391 . S
C631 H619 0.950 . S
C631 C627 1.393 . S
C631 C630 1.391 . S
H632 C640 0.950 . S
H633 C645 0.950 . S
H634 C642 0.950 . S
H635 C644 0.950 . S
H636 C646 0.950 . S
H637 C648 0.950 . S
H638 C650 0.950 . S
H639 C651 0.950 . S
C640 H632 0.950 . S
C640 C641 1.386 . S
C640 C642 1.391 . S
C641 C640 1.386 . S
C641 C645 1.393 . S
C642 H634 0.950 . S
C642 C640 1.391 . S
C642 C643 1.400 . S
C643 C642 1.400 . S
C643 C644 1.398 . S
C643 C649 1.491 . S
C644 H635 0.950 . S
C644 C643 1.398 . S
C644 C645 1.391 . S
C645 H633 0.950 . S
C645 C641 1.393 . S
C645 C644 1.391 . S
C646 H636 0.950 . S
C646 C647 1.386 . S
C646 C648 1.391 . S
C647 C646 1.386 . S
C647 C651 1.393 . S
C648 H637 0.950 . S
C648 C646 1.391 . S
C648 C649 1.400 . S
C649 C643 1.491 . S
C649 C648 1.400 . S
C649 C650 1.398 . S
C650 H638 0.950 . S
C650 C649 1.398 . S
C650 C651 1.391 . S
C651 H639 0.950 . S
C651 C647 1.393 . S
C651 C650 1.391 . S
H652 C660 0.950 . S
H653 C665 0.950 . S
H654 C662 0.950 . S
H655 C664 0.950 . S
H656 C666 0.950 . S
H657 C668 0.950 . S
H658 C670 0.950 . S
H659 C671 0.950 . S
C660 H652 0.950 . S
C660 C661 1.386 . S
C660 C662 1.391 . S
C661 C660 1.386 . S
C661 C665 1.393 . S
C662 H654 0.950 . S
C662 C660 1.391 . S
C662 C663 1.400 . S
C663 C662 1.400 . S
C663 C664 1.398 . S
C663 C669 1.491 . S
C664 H655 0.950 . S
C664 C663 1.398 . S
C664 C665 1.391 . S
C665 H653 0.950 . S
C665 C661 1.393 . S
C665 C664 1.391 . S
C666 H656 0.950 . S
C666 C667 1.386 . S
C666 C668 1.391 . S
C667 C666 1.386 . S
C667 C671 1.393 . S
C668 H657 0.950 . S
C668 C666 1.391 . S
C668 C669 1.400 . S
C669 C663 1.491 . S
C669 C668 1.400 . S
C669 C670 1.398 . S
C670 H658 0.950 . S
C670 C669 1.398 . S
C670 C671 1.391 . S
C671 H659 0.950 . S
C671 C667 1.393 . S
C671 C670 1.391 . S
C281 C145 1.473 . S
C287 C9 1.473 . S
C301 C43 1.455 . S
C307 C179 1.455 . S
C321 C77 1.471 . S
C327 C213 1.471 . S
C341 C247 1.446 . S
C347 C111 1.446 . S
C361 C243 0.799 . S
C367 C33 0.801 . S
C381 C141 0.813 . S
C387 C67 0.791 . S
C401 C175 0.812 . S
C407 C101 0.797 . S
C421 C209 0.814 . S
C427 C135 0.791 . S
C441 C169 0.814 . S
C447 C107 0.785 . S
C461 C203 0.799 . S
C467 C5 0.809 . S
C481 C237 0.791 . S
C487 C39 0.814 . S
C501 C271 0.814 . S
C507 C73 0.785 . S
C521 C20 1.273 . S
C527 C88 1.272 . S
C541 C54 1.278 . S
C547 C122 1.277 . S
C561 C224 1.275 . S
C567 C156 1.278 . S
C581 C258 1.274 . S
C587 C190 1.272 . S
C601 C70 1.215 . S
C607 C2 1.194 . S
C621 C36 1.217 . S
C627 C104 1.194 . S
C641 C206 1.194 . S
C647 C138 1.217 . S
C661 C240 1.217 . S
C667 C172 1.194 . S
