# Generated by pormake.
# Topology som, (6)-cn, num edge types: 1
# Building blocks:
#     Node 0, Type 0, BuildingBlock: CUWYAW_clean_sbu_0, # of connection points: 6
#     Node 1, Type 0, BuildingBlock: CUWYAW_clean_sbu_0, # of connection points: 6
#     Node 2, Type 0, BuildingBlock: CUWYAW_clean_sbu_0, # of connection points: 6
#     Node 3, Type 0, BuildingBlock: CUWYAW_clean_sbu_0, # of connection points: 6
#     Node 4, Type 0, BuildingBlock: CUWYAW_clean_sbu_0, # of connection points: 6
#     Node 5, Type 0, BuildingBlock: CUWYAW_clean_sbu_0, # of connection points: 6
#     Node 6, Type 0, BuildingBlock: CUWYAW_clean_sbu_0, # of connection points: 6
#     Node 7, Type 0, BuildingBlock: CUWYAW_clean_sbu_0, # of connection points: 6
#     Node 8, Type 0, BuildingBlock: CUWYAW_clean_sbu_0, # of connection points: 6
#     Node 9, Type 0, BuildingBlock: CUWYAW_clean_sbu_0, # of connection points: 6
#     Node 10, Type 0, BuildingBlock: CUWYAW_clean_sbu_0, # of connection points: 6
#     Node 11, Type 0, BuildingBlock: CUWYAW_clean_sbu_0, # of connection points: 6
#     Node 12, Type 0, BuildingBlock: CUWYAW_clean_sbu_0, # of connection points: 6
#     Node 13, Type 0, BuildingBlock: CUWYAW_clean_sbu_0, # of connection points: 6
#     Node 14, Type 0, BuildingBlock: CUWYAW_clean_sbu_0, # of connection points: 6
#     Node 15, Type 0, BuildingBlock: CUWYAW_clean_sbu_0, # of connection points: 6
#     Node 16, Type 0, BuildingBlock: CUWYAW_clean_sbu_0, # of connection points: 6
#     Node 17, Type 0, BuildingBlock: CUWYAW_clean_sbu_0, # of connection points: 6
#     Node 18, Type 0, BuildingBlock: CUWYAW_clean_sbu_0, # of connection points: 6
#     Node 19, Type 0, BuildingBlock: CUWYAW_clean_sbu_0, # of connection points: 6
#     Node 20, Type 0, BuildingBlock: CUWYAW_clean_sbu_0, # of connection points: 6
#     Node 21, Type 0, BuildingBlock: CUWYAW_clean_sbu_0, # of connection points: 6
#     Node 22, Type 0, BuildingBlock: CUWYAW_clean_sbu_0, # of connection points: 6
#     Node 23, Type 0, BuildingBlock: CUWYAW_clean_sbu_0, # of connection points: 6
#     Node 24, Type 0, BuildingBlock: CUWYAW_clean_sbu_0, # of connection points: 6
#     Node 25, Type 0, BuildingBlock: CUWYAW_clean_sbu_0, # of connection points: 6
#     Node 26, Type 0, BuildingBlock: CUWYAW_clean_sbu_0, # of connection points: 6
#     Node 27, Type 0, BuildingBlock: CUWYAW_clean_sbu_0, # of connection points: 6
#     Node 28, Type 0, BuildingBlock: CUWYAW_clean_sbu_0, # of connection points: 6
#     Node 29, Type 0, BuildingBlock: CUWYAW_clean_sbu_0, # of connection points: 6
#     Node 30, Type 0, BuildingBlock: CUWYAW_clean_sbu_0, # of connection points: 6
#     Node 31, Type 0, BuildingBlock: CUWYAW_clean_sbu_0, # of connection points: 6
#     Edge 32, Type (0, 0), BuildingBlock: CIFDUS_clean_linker_0, # of connection points: 2
#     Edge 33, Type (0, 0), BuildingBlock: CIFDUS_clean_linker_0, # of connection points: 2
#     Edge 34, Type (0, 0), BuildingBlock: CIFDUS_clean_linker_0, # of connection points: 2
#     Edge 35, Type (0, 0), BuildingBlock: CIFDUS_clean_linker_0, # of connection points: 2
#     Edge 36, Type (0, 0), BuildingBlock: CIFDUS_clean_linker_0, # of connection points: 2
#     Edge 37, Type (0, 0), BuildingBlock: CIFDUS_clean_linker_0, # of connection points: 2
#     Edge 38, Type (0, 0), BuildingBlock: CIFDUS_clean_linker_0, # of connection points: 2
#     Edge 39, Type (0, 0), BuildingBlock: CIFDUS_clean_linker_0, # of connection points: 2
#     Edge 40, Type (0, 0), BuildingBlock: CIFDUS_clean_linker_0, # of connection points: 2
#     Edge 41, Type (0, 0), BuildingBlock: CIFDUS_clean_linker_0, # of connection points: 2
#     Edge 42, Type (0, 0), BuildingBlock: CIFDUS_clean_linker_0, # of connection points: 2
#     Edge 43, Type (0, 0), BuildingBlock: CIFDUS_clean_linker_0, # of connection points: 2
#     Edge 44, Type (0, 0), BuildingBlock: CIFDUS_clean_linker_0, # of connection points: 2
#     Edge 45, Type (0, 0), BuildingBlock: CIFDUS_clean_linker_0, # of connection points: 2
#     Edge 46, Type (0, 0), BuildingBlock: CIFDUS_clean_linker_0, # of connection points: 2
#     Edge 47, Type (0, 0), BuildingBlock: CIFDUS_clean_linker_0, # of connection points: 2
#     Edge 48, Type (0, 0), BuildingBlock: CIFDUS_clean_linker_0, # of connection points: 2
#     Edge 49, Type (0, 0), BuildingBlock: CIFDUS_clean_linker_0, # of connection points: 2
#     Edge 50, Type (0, 0), BuildingBlock: CIFDUS_clean_linker_0, # of connection points: 2
#     Edge 51, Type (0, 0), BuildingBlock: CIFDUS_clean_linker_0, # of connection points: 2
#     Edge 52, Type (0, 0), BuildingBlock: CIFDUS_clean_linker_0, # of connection points: 2
#     Edge 53, Type (0, 0), BuildingBlock: CIFDUS_clean_linker_0, # of connection points: 2
#     Edge 54, Type (0, 0), BuildingBlock: CIFDUS_clean_linker_0, # of connection points: 2
#     Edge 55, Type (0, 0), BuildingBlock: CIFDUS_clean_linker_0, # of connection points: 2
#     Edge 56, Type (0, 0), BuildingBlock: CIFDUS_clean_linker_0, # of connection points: 2
#     Edge 57, Type (0, 0), BuildingBlock: CIFDUS_clean_linker_0, # of connection points: 2
#     Edge 58, Type (0, 0), BuildingBlock: CIFDUS_clean_linker_0, # of connection points: 2
#     Edge 59, Type (0, 0), BuildingBlock: CIFDUS_clean_linker_0, # of connection points: 2
#     Edge 60, Type (0, 0), BuildingBlock: CIFDUS_clean_linker_0, # of connection points: 2
#     Edge 61, Type (0, 0), BuildingBlock: CIFDUS_clean_linker_0, # of connection points: 2
#     Edge 62, Type (0, 0), BuildingBlock: CIFDUS_clean_linker_0, # of connection points: 2
#     Edge 63, Type (0, 0), BuildingBlock: CIFDUS_clean_linker_0, # of connection points: 2
#     Edge 64, Type (0, 0), BuildingBlock: CIFDUS_clean_linker_0, # of connection points: 2
#     Edge 65, Type (0, 0), BuildingBlock: CIFDUS_clean_linker_0, # of connection points: 2
#     Edge 66, Type (0, 0), BuildingBlock: CIFDUS_clean_linker_0, # of connection points: 2
#     Edge 67, Type (0, 0), BuildingBlock: CIFDUS_clean_linker_0, # of connection points: 2
#     Edge 68, Type (0, 0), BuildingBlock: CIFDUS_clean_linker_0, # of connection points: 2
#     Edge 69, Type (0, 0), BuildingBlock: CIFDUS_clean_linker_0, # of connection points: 2
#     Edge 70, Type (0, 0), BuildingBlock: CIFDUS_clean_linker_0, # of connection points: 2
#     Edge 71, Type (0, 0), BuildingBlock: CIFDUS_clean_linker_0, # of connection points: 2
#     Edge 72, Type (0, 0), BuildingBlock: CIFDUS_clean_linker_0, # of connection points: 2
#     Edge 73, Type (0, 0), BuildingBlock: CIFDUS_clean_linker_0, # of connection points: 2
#     Edge 74, Type (0, 0), BuildingBlock: CIFDUS_clean_linker_0, # of connection points: 2
#     Edge 75, Type (0, 0), BuildingBlock: CIFDUS_clean_linker_0, # of connection points: 2
#     Edge 76, Type (0, 0), BuildingBlock: CIFDUS_clean_linker_0, # of connection points: 2
#     Edge 77, Type (0, 0), BuildingBlock: CIFDUS_clean_linker_0, # of connection points: 2
#     Edge 78, Type (0, 0), BuildingBlock: CIFDUS_clean_linker_0, # of connection points: 2
#     Edge 79, Type (0, 0), BuildingBlock: CIFDUS_clean_linker_0, # of connection points: 2
#     Edge 80, Type (0, 0), BuildingBlock: CIFDUS_clean_linker_0, # of connection points: 2
#     Edge 81, Type (0, 0), BuildingBlock: CIFDUS_clean_linker_0, # of connection points: 2
#     Edge 82, Type (0, 0), BuildingBlock: CIFDUS_clean_linker_0, # of connection points: 2
#     Edge 83, Type (0, 0), BuildingBlock: CIFDUS_clean_linker_0, # of connection points: 2
#     Edge 84, Type (0, 0), BuildingBlock: CIFDUS_clean_linker_0, # of connection points: 2
#     Edge 85, Type (0, 0), BuildingBlock: CIFDUS_clean_linker_0, # of connection points: 2
#     Edge 86, Type (0, 0), BuildingBlock: CIFDUS_clean_linker_0, # of connection points: 2
#     Edge 87, Type (0, 0), BuildingBlock: CIFDUS_clean_linker_0, # of connection points: 2
#     Edge 88, Type (0, 0), BuildingBlock: CIFDUS_clean_linker_0, # of connection points: 2
#     Edge 89, Type (0, 0), BuildingBlock: CIFDUS_clean_linker_0, # of connection points: 2
#     Edge 90, Type (0, 0), BuildingBlock: CIFDUS_clean_linker_0, # of connection points: 2
#     Edge 91, Type (0, 0), BuildingBlock: CIFDUS_clean_linker_0, # of connection points: 2
#     Edge 92, Type (0, 0), BuildingBlock: CIFDUS_clean_linker_0, # of connection points: 2
#     Edge 93, Type (0, 0), BuildingBlock: CIFDUS_clean_linker_0, # of connection points: 2
#     Edge 94, Type (0, 0), BuildingBlock: CIFDUS_clean_linker_0, # of connection points: 2
#     Edge 95, Type (0, 0), BuildingBlock: CIFDUS_clean_linker_0, # of connection points: 2
#     Edge 96, Type (0, 0), BuildingBlock: CIFDUS_clean_linker_0, # of connection points: 2
#     Edge 97, Type (0, 0), BuildingBlock: CIFDUS_clean_linker_0, # of connection points: 2
#     Edge 98, Type (0, 0), BuildingBlock: CIFDUS_clean_linker_0, # of connection points: 2
#     Edge 99, Type (0, 0), BuildingBlock: CIFDUS_clean_linker_0, # of connection points: 2
#     Edge 100, Type (0, 0), BuildingBlock: CIFDUS_clean_linker_0, # of connection points: 2
#     Edge 101, Type (0, 0), BuildingBlock: CIFDUS_clean_linker_0, # of connection points: 2
#     Edge 102, Type (0, 0), BuildingBlock: CIFDUS_clean_linker_0, # of connection points: 2
#     Edge 103, Type (0, 0), BuildingBlock: CIFDUS_clean_linker_0, # of connection points: 2
#     Edge 104, Type (0, 0), BuildingBlock: CIFDUS_clean_linker_0, # of connection points: 2
#     Edge 105, Type (0, 0), BuildingBlock: CIFDUS_clean_linker_0, # of connection points: 2
#     Edge 106, Type (0, 0), BuildingBlock: CIFDUS_clean_linker_0, # of connection points: 2
#     Edge 107, Type (0, 0), BuildingBlock: CIFDUS_clean_linker_0, # of connection points: 2
#     Edge 108, Type (0, 0), BuildingBlock: CIFDUS_clean_linker_0, # of connection points: 2
#     Edge 109, Type (0, 0), BuildingBlock: CIFDUS_clean_linker_0, # of connection points: 2
#     Edge 110, Type (0, 0), BuildingBlock: CIFDUS_clean_linker_0, # of connection points: 2
#     Edge 111, Type (0, 0), BuildingBlock: CIFDUS_clean_linker_0, # of connection points: 2
#     Edge 112, Type (0, 0), BuildingBlock: CIFDUS_clean_linker_0, # of connection points: 2
#     Edge 113, Type (0, 0), BuildingBlock: CIFDUS_clean_linker_0, # of connection points: 2
#     Edge 114, Type (0, 0), BuildingBlock: CIFDUS_clean_linker_0, # of connection points: 2
#     Edge 115, Type (0, 0), BuildingBlock: CIFDUS_clean_linker_0, # of connection points: 2
#     Edge 116, Type (0, 0), BuildingBlock: CIFDUS_clean_linker_0, # of connection points: 2
#     Edge 117, Type (0, 0), BuildingBlock: CIFDUS_clean_linker_0, # of connection points: 2
#     Edge 118, Type (0, 0), BuildingBlock: CIFDUS_clean_linker_0, # of connection points: 2
#     Edge 119, Type (0, 0), BuildingBlock: CIFDUS_clean_linker_0, # of connection points: 2
#     Edge 120, Type (0, 0), BuildingBlock: CIFDUS_clean_linker_0, # of connection points: 2
#     Edge 121, Type (0, 0), BuildingBlock: CIFDUS_clean_linker_0, # of connection points: 2
#     Edge 122, Type (0, 0), BuildingBlock: CIFDUS_clean_linker_0, # of connection points: 2
#     Edge 123, Type (0, 0), BuildingBlock: CIFDUS_clean_linker_0, # of connection points: 2
#     Edge 124, Type (0, 0), BuildingBlock: CIFDUS_clean_linker_0, # of connection points: 2
#     Edge 125, Type (0, 0), BuildingBlock: CIFDUS_clean_linker_0, # of connection points: 2
#     Edge 126, Type (0, 0), BuildingBlock: CIFDUS_clean_linker_0, # of connection points: 2
#     Edge 127, Type (0, 0), BuildingBlock: CIFDUS_clean_linker_0, # of connection points: 2
# Relax obj value: 0.050
# Max RMSD: 0.122
# Mean RMSD: 0.122
data_MOF--net-som--node1-CUWYAW_clean_sbu_0--edge1-CIFDUS_clean_linker_0
_symmetry_space_group_name_H-M    P1
_symmetry_Int_Tables_number       1
_symmetry_cell_setting            triclinic
loop_
_symmetry_equiv_pos_as_xyz
'x, y, z'
_cell_length_a     23.928207
_cell_length_b     48.125054
_cell_length_c     95.598495
_cell_angle_alpha  90.188223
_cell_angle_beta   90.016683
_cell_angle_gamma 89.850692
loop_
_atom_site_label
_atom_site_type_symbol
_atom_site_fract_x
_atom_site_fract_y
_atom_site_fract_z
_atom_type_partial_charge
C0 C 0.20525 0.45896 0.09603 0.0
Eu1 Eu 0.10245 0.47604 0.09248 0.0
C2 C 0.26441 0.4656 0.09358 0.0
C3 C 0.28222 0.49262 0.09042 0.0
C4 C 0.3393 0.4982 0.08866 0.0
C5 C 0.37938 0.47686 0.09008 0.0
C6 C 0.36088 0.4498 0.09306 0.0
C7 C 0.30404 0.44427 0.09479 0.0
C8 C 0.04945 0.48325 0.06765 0.0
C9 C 0.08723 0.54411 0.09344 0.0
C10 C 0.88509 0.51828 0.09608 0.0
Eu11 Eu 0.98912 0.50155 0.09599 0.0
C12 C 0.82686 0.50904 0.09435 0.0
C13 C 0.81084 0.48151 0.09695 0.0
C14 C 0.75433 0.47399 0.09641 0.0
C15 C 0.71278 0.49393 0.09338 0.0
C16 C 0.72952 0.52132 0.09046 0.0
C17 C 0.78594 0.52873 0.09091 0.0
C18 C 0.05006 0.49411 0.1199 0.0
C19 C 0.99838 0.43555 0.09316 0.0
O20 O 0.17816 0.47425 0.10513 0.0
O21 O 0.17496 0.45254 0.08512 0.0
O22 O 0.08178 0.46245 0.07063 0.0
O23 O 0.04813 0.50037 0.07777 0.0
O24 O 0.12212 0.52264 0.09412 0.0
O25 O 0.03298 0.54104 0.09238 0.0
O26 O 0.9168 0.51874 0.08494 0.0
O27 O 0.91163 0.5096 0.1072 0.0
O28 O 1.02216 0.51654 0.11714 0.0
O29 O 0.04413 0.47692 0.11009 0.0
O30 O 0.96863 0.45766 0.09 0.0
O31 O 0.05121 0.43776 0.09699 0.0
H32 H 0.25213 0.50937 0.08946 0.0
H33 H 0.35213 0.5193 0.08648 0.0
H34 H 0.39036 0.43279 0.09399 0.0
H35 H 0.291 0.42327 0.09719 0.0
H36 H 0.84182 0.46603 0.09969 0.0
H37 H 0.74318 0.45262 0.09852 0.0
H38 H 0.69891 0.53735 0.0883 0.0
H39 H 0.79749 0.55014 0.08897 0.0
C40 C 0.0965 0.77793 0.08958 0.0
Eu41 Eu 0.2004 0.76188 0.08701 0.0
C42 C 0.03796 0.76851 0.08887 0.0
C43 C 0.99892 0.78506 0.08178 0.0
C44 C 0.94234 0.77801 0.0817 0.0
C45 C 0.92345 0.75424 0.08877 0.0
C46 C 0.9629 0.7373 0.09564 0.0
C47 C 1.01967 0.74437 0.0957 0.0
C48 C 0.25774 0.76039 0.06251 0.0
C49 C 0.21524 0.69457 0.08379 0.0
C50 C 0.41668 0.71886 0.08848 0.0
Eu51 Eu 0.31277 0.73549 0.0896 0.0
C52 C 0.47484 0.72849 0.09004 0.0
C53 C 0.51314 0.71158 0.09716 0.0
C54 C 0.56964 0.71876 0.09778 0.0
C55 C 0.58918 0.74299 0.09123 0.0
C56 C 0.55032 0.76035 0.08442 0.0
C57 C 0.49366 0.75319 0.08384 0.0
C58 C 0.25092 0.73827 0.11362 0.0
C59 C 0.30324 0.8024 0.09142 0.0
O60 O 0.12715 0.76927 0.10004 0.0
O61 O 0.12423 0.77912 0.07783 0.0
O62 O 0.22776 0.78126 0.06673 0.0
O63 O 0.25569 0.74085 0.07133 0.0
O64 O 0.18193 0.71513 0.08788 0.0
O65 O 0.26829 0.69884 0.08119 0.0
O66 O 0.38856 0.72777 0.07764 0.0
O67 O 0.3862 0.71742 0.09979 0.0
O68 O 0.27873 0.71635 0.10979 0.0
O69 O 0.25741 0.75724 0.10478 0.0
O70 O 0.33497 0.78088 0.08822 0.0
O71 O 0.24897 0.79975 0.09346 0.0
H72 H 1.01215 0.80376 0.07645 0.0
H73 H 0.91335 0.79123 0.07609 0.0
H74 H 0.94974 0.71895 0.10126 0.0
H75 H 0.049 0.73125 0.10126 0.0
H76 H 0.49948 0.69247 0.10204 0.0
H77 H 0.59808 0.7052 0.10336 0.0
H78 H 0.56388 0.77906 0.07917 0.0
H79 H 0.4649 0.76663 0.07829 0.0
C80 C 0.20513 0.77219 0.19452 0.0
Eu81 Eu 0.10684 0.75778 0.20347 0.0
C82 C 0.26427 0.76919 0.19841 0.0
C83 C 0.28358 0.74586 0.20575 0.0
C84 C 0.34042 0.74307 0.20891 0.0
C85 C 0.37885 0.76363 0.20482 0.0
C86 C 0.35891 0.78719 0.19769 0.0
C87 C 0.30217 0.7899 0.19451 0.0
C88 C 0.07174 0.75337 0.23055 0.0
C89 C 0.08469 0.69218 0.21046 0.0
C90 C 0.88115 0.71705 0.20693 0.0
Eu91 Eu 0.98486 0.73231 0.20388 0.0
C92 C 0.82383 0.72797 0.20745 0.0
C93 C 0.81008 0.75391 0.20174 0.0
C94 C 0.75424 0.76258 0.20116 0.0
C95 C 0.71129 0.74536 0.20623 0.0
C96 C 0.72576 0.71973 0.2123 0.0
C97 C 0.7815 0.71118 0.21292 0.0
C98 C 0.04507 0.72825 0.17971 0.0
C99 C 1.00031 0.79894 0.20077 0.0
O100 O 0.17934 0.74956 0.19041 0.0
O101 O 0.17443 0.78802 0.20266 0.0
O102 O 0.12012 0.76313 0.22692 0.0
O103 O 0.04523 0.74682 0.21962 0.0
O104 O 0.11913 0.71084 0.20495 0.0
O105 O 0.03227 0.69783 0.21348 0.0
O106 O 0.91406 0.72285 0.21748 0.0
O107 O 0.90651 0.71843 0.19483 0.0
O108 O 1.01384 0.70845 0.18453 0.0
O109 O 0.04221 0.74905 0.18771 0.0
O110 O 0.96663 0.77799 0.20357 0.0
O111 O 0.05486 0.79593 0.19901 0.0
H112 H 0.25487 0.72966 0.20889 0.0
H113 H 0.3544 0.72453 0.21427 0.0
H114 H 0.38714 0.80361 0.19459 0.0
H115 H 0.28789 0.80812 0.18891 0.0
H116 H 0.84231 0.76708 0.19742 0.0
H117 H 0.74464 0.78258 0.19657 0.0
H118 H 0.69385 0.70575 0.21611 0.0
H119 H 0.79141 0.691 0.21728 0.0
C120 C 0.10779 0.46086 0.20076 0.0
Eu121 Eu 0.20953 0.47565 0.20727 0.0
C122 C 0.04845 0.46642 0.20354 0.0
C123 C 0.03095 0.48935 0.21152 0.0
C124 C 0.97384 0.49404 0.21384 0.0
C125 C 0.93348 0.47589 0.20819 0.0
C126 C 0.95164 0.45292 0.20025 0.0
C127 C 1.00853 0.44828 0.19796 0.0
C128 C 0.25453 0.47866 0.23347 0.0
C129 C 0.22585 0.54288 0.21131 0.0
C130 C 0.42758 0.51743 0.21297 0.0
Eu131 Eu 0.32539 0.50136 0.20795 0.0
C132 C 0.48636 0.50895 0.21163 0.0
C133 C 0.5022 0.48541 0.2039 0.0
C134 C 0.55888 0.47864 0.20236 0.0
C135 C 0.60054 0.49536 0.20852 0.0
C136 C 0.58401 0.51874 0.21639 0.0
C137 C 0.52751 0.5254 0.21793 0.0
C138 C 0.27268 0.50149 0.1826 0.0
C139 C 0.31481 0.43524 0.20361 0.0
O140 O 0.13572 0.47999 0.19407 0.0
O141 O 0.13672 0.44941 0.21082 0.0
O142 O 0.22185 0.4589 0.22923 0.0
O143 O 0.25883 0.49671 0.224 0.0
O144 O 0.19226 0.5226 0.20707 0.0
O145 O 0.27772 0.53811 0.21509 0.0
O146 O 0.39702 0.50394 0.22204 0.0
O147 O 0.4008 0.52287 0.20137 0.0
O148 O 0.30346 0.5217 0.1872 0.0
O149 O 0.27377 0.48177 0.19123 0.0
O150 O 0.34562 0.45586 0.20832 0.0
O151 O 0.26145 0.43868 0.20047 0.0
H152 H 0.06134 0.50361 0.21588 0.0
H153 H 0.96126 0.51206 0.21989 0.0
H154 H 0.92189 0.43829 0.19594 0.0
H155 H 1.0214 0.43043 0.1918 0.0
H156 H 0.47084 0.4725 0.19895 0.0
H157 H 0.57006 0.46032 0.19637 0.0
H158 H 0.61478 0.53235 0.22108 0.0
H159 H 0.51596 0.54373 0.22389 0.0
C160 C 0.18433 0.4596 0.96425 0.0
Eu161 Eu 0.08208 0.47583 0.95914 0.0
C162 C 0.2432 0.46782 0.96272 0.0
C163 C 0.25911 0.49034 0.95434 0.0
C164 C 0.31585 0.49673 0.9526 0.0
C165 C 0.35754 0.48069 0.95922 0.0
C166 C 0.34095 0.45842 0.96775 0.0
C167 C 0.28441 0.4521 0.96948 0.0
C168 C 0.03155 0.47775 0.93358 0.0
C169 C 0.07238 0.54255 0.95598 0.0
C170 C 0.86499 0.51775 0.95216 0.0
Eu171 Eu 0.96674 0.5024 0.95856 0.0
C172 C 0.80563 0.51117 0.95432 0.0
C173 C 0.78863 0.48919 0.96291 0.0
C174 C 0.73156 0.48399 0.96497 0.0
C175 C 0.69065 0.50069 0.95846 0.0
C176 C 0.70831 0.52254 0.94979 0.0
C177 C 0.76517 0.52768 0.94775 0.0
C178 C 1.01166 0.49836 0.98471 0.0
C179 C 0.98135 0.43476 0.96185 0.0
O180 O 0.15397 0.47369 0.97319 0.0
O181 O 0.15721 0.45353 0.95276 0.0
O182 O 0.06158 0.45703 0.93793 0.0
O183 O 0.03184 0.49691 0.94259 0.0
O184 O 0.10295 0.5213 0.96012 0.0
O185 O 1.0189 0.53977 0.95281 0.0
O186 O 0.89441 0.50026 0.94467 0.0
O187 O 0.89256 0.52736 0.96294 0.0
O188 O 0.97961 0.51857 0.98069 0.0
O189 O 1.01513 0.48045 0.97509 0.0
O190 O 0.94884 0.45557 0.95767 0.0
O191 O 0.03339 0.43895 0.96571 0.0
H192 H 0.22778 0.50274 0.94905 0.0
H193 H 0.32704 0.51422 0.94609 0.0
H194 H 0.37172 0.44536 0.97284 0.0
H195 H 0.27287 0.43458 0.97594 0.0
H196 H 0.81939 0.47617 0.96803 0.0
H197 H 0.7195 0.4668 0.97158 0.0
H198 H 0.67819 0.53607 0.94477 0.0
H199 H 0.77761 0.54479 0.94111 0.0
C200 C 0.62535 0.26337 0.951 0.0
Eu201 Eu 0.72937 0.24699 0.95123 0.0
C202 C 0.56774 0.2546 0.95392 0.0
C203 C 0.52435 0.27382 0.95208 0.0
C204 C 0.4687 0.26566 0.95357 0.0
C205 C 0.45533 0.238 0.95687 0.0
C206 C 0.49914 0.21888 0.95904 0.0
C207 C 0.55498 0.22718 0.95764 0.0
C208 C 0.79396 0.24188 0.92784 0.0
C209 C 0.74188 0.18032 0.95443 0.0
C210 C 0.94993 0.20351 0.94819 0.0
Eu211 Eu 0.84977 0.22038 0.9546 0.0
C212 C 1.00855 0.20977 0.95189 0.0
C213 C 0.04558 0.18791 0.9548 0.0
C214 C 0.10197 0.19323 0.9576 0.0
C215 C 0.12265 0.2206 0.95746 0.0
C216 C 0.08508 0.24251 0.95473 0.0
C217 C 0.02866 0.23718 0.95203 0.0
C218 C 0.80811 0.23207 0.98051 0.0
C219 C 0.8299 0.288 0.95619 0.0
O220 O 0.6588 0.26712 0.96169 0.0
O221 O 0.65007 0.25136 0.94036 0.0
O222 O 0.76301 0.26343 0.93051 0.0
O223 O 0.78883 0.22428 0.93746 0.0
O224 O 0.70995 0.20253 0.95597 0.0
O225 O 0.79654 0.1818 0.95229 0.0
O226 O 0.92265 0.22257 0.94114 0.0
O227 O 0.91929 0.19155 0.95782 0.0
O228 O 0.85698 0.22115 0.97831 0.0
O229 O 0.78463 0.23628 0.96886 0.0
O230 O 0.86507 0.26724 0.95343 0.0
O231 O 0.77589 0.28436 0.9579 0.0
H232 H 0.53346 0.29506 0.94914 0.0
H233 H 0.43608 0.28081 0.95164 0.0
H234 H 0.49024 0.19749 0.96173 0.0
H235 H 0.58807 0.21219 0.95923 0.0
H236 H 0.03096 0.16661 0.95478 0.0
H237 H 0.12934 0.17588 0.95989 0.0
H238 H 0.09945 0.26381 0.95433 0.0
H239 H 1.00104 0.2545 0.94984 0.0
C240 C 0.15507 0.27039 0.83259 0.0
Eu241 Eu 0.05275 0.25288 0.83645 0.0
C242 C 0.21385 0.2608 0.83261 0.0
C243 C 0.23114 0.23748 0.84029 0.0
C244 C 0.28777 0.22978 0.84064 0.0
C245 C 0.32829 0.24529 0.83334 0.0
C246 C 0.31033 0.26837 0.8255 0.0
C247 C 0.25383 0.27599 0.82515 0.0
C248 C 0.99662 0.25141 0.86113 0.0
C249 C 0.0486 0.18551 0.83905 0.0
C250 C 0.83732 0.2063 0.84032 0.0
Eu251 Eu 0.93951 0.2234 0.83562 0.0
C252 C 0.77806 0.21474 0.83923 0.0
C253 C 0.76125 0.23778 0.83129 0.0
C254 C 0.70441 0.24487 0.83029 0.0
C255 C 0.66327 0.22906 0.83722 0.0
C256 C 0.68074 0.20611 0.84522 0.0
C257 C 0.73741 0.19907 0.84619 0.0
C258 C 0.99041 0.22862 0.81022 0.0
C259 C 0.94661 0.29155 0.83317 0.0
O260 O 0.1229 0.26153 0.82244 0.0
O261 O 0.12929 0.27118 0.84465 0.0
O262 O 1.0264 0.2723 0.85696 0.0
O263 O 1.00029 0.23155 0.85247 0.0
O264 O 0.07752 0.20768 0.83549 0.0
O265 O 0.99416 0.18678 0.84143 0.0
O266 O 0.86789 0.21913 0.84965 0.0
O267 O 0.86434 0.20177 0.82865 0.0
O268 O 0.96072 0.20729 0.81385 0.0
O269 O 0.98928 0.24659 0.81986 0.0
O270 O 0.91596 0.26947 0.8363 0.0
O271 O 1.00063 0.28958 0.83057 0.0
H272 H 0.20101 0.22546 0.84616 0.0
H273 H 0.29991 0.21202 0.84688 0.0
H274 H 0.33992 0.28051 0.81953 0.0
H275 H 0.24138 0.29401 0.81913 0.0
H276 H 0.79199 0.25017 0.82583 0.0
H277 H 0.69267 0.26251 0.82393 0.0
H278 H 0.65067 0.19374 0.85091 0.0
H279 H 0.74954 0.18127 0.85242 0.0
C280 C 0.64848 0.47299 0.84671 0.0
Eu281 Eu 0.75249 0.48903 0.84605 0.0
C282 C 0.59119 0.48309 0.84376 0.0
C283 C 0.57241 0.50916 0.8485 0.0
C284 C 0.51652 0.51714 0.84668 0.0
C285 C 0.47812 0.4992 0.8401 0.0
C286 C 0.49761 0.47346 0.83501 0.0
C287 C 0.55346 0.46551 0.83684 0.0
C288 C 0.82166 0.49278 0.86856 0.0
C289 C 0.75989 0.55668 0.84372 0.0
C290 C 0.97071 0.53682 0.84788 0.0
Eu291 Eu 0.87099 0.51878 0.84177 0.0
C292 C 0.02977 0.53082 0.84466 0.0
C293 C 0.04554 0.50628 0.83773 0.0
C294 C 0.10222 0.49966 0.836 0.0
C295 C 0.14419 0.51744 0.8412 0.0
C296 C 0.12788 0.54238 0.84779 0.0
C297 C 0.07127 0.54895 0.84951 0.0
C298 C 0.82278 0.50738 0.81645 0.0
C299 C 0.85749 0.45095 0.83868 0.0
O300 O 0.68149 0.46843 0.83599 0.0
O301 O 0.67453 0.48409 0.85741 0.0
O302 O 0.79052 0.47133 0.86595 0.0
O303 O 0.81359 0.51133 0.85948 0.0
O304 O 0.7295 0.53389 0.84245 0.0
O305 O 0.81505 0.55616 0.84513 0.0
O306 O 0.94444 0.51777 0.85509 0.0
O307 O 0.93993 0.54748 0.83787 0.0
O308 O 0.87136 0.51917 0.8178 0.0
O309 O 0.80403 0.50255 0.8285 0.0
O310 O 0.8907 0.47241 0.84142 0.0
O311 O 0.80242 0.45305 0.83812 0.0
H312 H 0.60052 0.52311 0.85393 0.0
H313 H 0.50306 0.53701 0.85085 0.0
H314 H 0.46961 0.45931 0.82967 0.0
H315 H 0.56696 0.44531 0.83308 0.0
H316 H 1.01406 0.49198 0.83392 0.0
H317 H 0.11315 0.48048 0.83071 0.0
H318 H 0.15882 0.55639 0.8521 0.0
H319 H 0.05988 0.56789 0.85498 0.0
C320 C 0.21379 0.95242 0.59573 0.0
Eu321 Eu 0.11638 0.96931 0.58699 0.0
C322 C 0.27475 0.95592 0.59394 0.0
C323 C 0.30129 0.95351 0.58087 0.0
C324 C 0.35969 0.95557 0.57986 0.0
C325 C 0.39252 0.95996 0.5919 0.0
C326 C 0.36542 0.96293 0.60488 0.0
C327 C 0.30737 0.96088 0.60587 0.0
C328 C 0.07423 0.97553 0.56057 0.0
C329 C 0.10237 0.03603 0.58042 0.0
C330 C 0.89196 0.01563 0.58659 0.0
Eu331 Eu 0.99594 -0.00059 0.5878 0.0
C332 C 0.83383 0.0053 0.58507 0.0
C333 C 0.79903 0.00439 0.59689 0.0
C334 C 0.74275 -0.00286 0.59566 0.0
C335 C 0.71946 -0.00924 0.58253 0.0
C336 C 0.75441 -0.00868 0.57068 0.0
C337 C 0.811 -0.00148 0.57193 0.0
C338 C 0.06077 0.00226 0.61108 0.0
C339 C 1.00505 0.93168 0.58971 0.0
O340 O 0.18663 0.9734 0.60129 0.0
O341 O 0.18543 0.93965 0.58586 0.0
O342 O 0.12299 0.96461 0.56312 0.0
O343 O 0.05249 0.98224 0.57208 0.0
O344 O 0.13512 0.01544 0.5848 0.0
O345 O 0.04772 0.03344 0.57871 0.0
O346 O 0.92515 0.01509 0.57566 0.0
O347 O 0.91787 0.0095 0.59826 0.0
O348 O 0.02944 0.02249 0.60671 0.0
O349 O 0.05498 0.98127 0.60324 0.0
O350 O 0.97415 0.95394 0.58717 0.0
O351 O 0.06005 0.93267 0.59138 0.0
H352 H 0.2771 0.94971 0.57148 0.0
H353 H 0.37921 0.95307 0.56971 0.0
H354 H 0.38914 0.96688 0.61433 0.0
H355 H 0.28786 0.9629 0.61606 0.0
H356 H 0.81501 0.00997 0.60713 0.0
H357 H 0.717 -0.00254 0.60497 0.0
H358 H 0.73794 0.98633 0.56043 0.0
H359 H 0.8365 -0.00077 0.56258 0.0
C360 C 0.07955 0.27995 0.58748 0.0
Eu361 Eu 0.18198 0.26327 0.58264 0.0
C362 C 1.02053 0.27136 0.58633 0.0
C363 C 1.00312 0.251 0.57673 0.0
C364 C 0.94639 0.24394 0.57568 0.0
C365 C 0.90602 0.25707 0.58421 0.0
C366 C 0.92411 0.27722 0.5939 0.0
C367 C 0.98066 0.28425 0.59492 0.0
C368 C 0.23382 0.25789 0.55733 0.0
C369 C 0.19022 0.19531 0.57942 0.0
C370 C 0.39842 0.21668 0.57976 0.0
Eu371 Eu 0.29593 0.23397 0.5837 0.0
C372 C 0.45705 0.22625 0.58014 0.0
C373 C 0.47482 0.24726 0.58934 0.0
C374 C 0.53138 0.25484 0.58993 0.0
C375 C 0.57128 0.24159 0.58131 0.0
C376 C 0.55279 0.22094 0.57194 0.0
C377 C 0.49639 0.21337 0.57139 0.0
C378 C 0.23812 0.23469 0.60813 0.0
C379 C 0.29014 0.30136 0.58694 0.0
O380 O 0.11032 0.26699 0.59671 0.0
O381 O 0.10652 0.28493 0.57587 0.0
O382 O 0.20298 0.27906 0.5608 0.0
O383 O 0.23312 0.24023 0.56702 0.0
O384 O 0.15891 0.21721 0.58266 0.0
O385 O 0.24449 0.19746 0.57719 0.0
O386 O 0.36672 0.22636 0.56972 0.0
O387 O 0.37205 0.21486 0.59171 0.0
O388 O 0.26894 0.21405 0.60394 0.0
O389 O 0.24197 0.25475 0.59965 0.0
O390 O 0.32011 0.27927 0.5836 0.0
O391 O 0.23539 0.30004 0.58872 0.0
H392 H 0.03327 0.24074 0.57001 0.0
H393 H 0.93407 0.2285 0.56802 0.0
H394 H 0.89462 0.28739 0.60083 0.0
H395 H 0.99331 0.29991 0.60245 0.0
H396 H 0.44517 0.25754 0.59619 0.0
H397 H 0.54395 0.27067 0.59735 0.0
H398 H 0.58187 0.21066 0.56494 0.0
H399 H 0.48353 0.1972 0.56416 0.0
C400 C 0.19733 0.27283 0.69932 0.0
Eu401 Eu 0.09494 0.25546 0.70301 0.0
C402 C 0.25641 0.26446 0.70016 0.0
C403 C 0.27309 0.23961 0.70658 0.0
C404 C 0.32997 0.23266 0.70741 0.0
C405 C 0.371 0.25047 0.70183 0.0
C406 C 0.35363 0.2752 0.69532 0.0
C407 C 0.29698 0.28209 0.69451 0.0
C408 C 0.04362 0.24633 0.7279 0.0
C409 C 0.08135 0.18755 0.70087 0.0
C410 C 0.87755 0.21306 0.70067 0.0
Eu411 Eu 0.98139 0.22967 0.6998 0.0
C412 C 0.81958 0.22272 0.7028 0.0
C413 C 0.80062 0.24831 0.69757 0.0
C414 C 0.74403 0.25562 0.69862 0.0
C415 C 0.70537 0.23748 0.70491 0.0
C416 C 0.72514 0.2123 0.71051 0.0
C417 C 0.78157 0.20502 0.70944 0.0
C418 C 0.03861 0.23902 0.67556 0.0
C419 C 0.9902 0.29571 0.70385 0.0
O420 O 0.16722 0.26148 0.68943 0.0
O421 O 0.1701 0.27535 0.7111 0.0
O422 O 0.07505 0.26756 0.72521 0.0
O423 O 0.04248 0.22991 0.7175 0.0
O424 O 0.11515 0.20928 0.6999 0.0
O425 O 0.02729 0.1903 0.70274 0.0
O426 O 0.91068 0.21286 0.71155 0.0
O427 O 0.90283 0.22094 0.68923 0.0
O428 O 1.01058 0.21655 0.67806 0.0
O429 O 0.0344 0.25548 0.68578 0.0
O430 O 0.96072 0.27325 0.70635 0.0
O431 O 0.04317 0.2942 0.70006 0.0
H432 H 0.24225 0.22573 0.711 0.0
H433 H 0.34184 0.21355 0.71258 0.0
H434 H 0.38381 0.28914 0.69068 0.0
H435 H 0.28479 0.3013 0.68946 0.0
H436 H 0.82922 0.26233 0.69239 0.0
H437 H 0.73033 0.27509 0.69411 0.0
H438 H 0.69691 0.19808 0.71567 0.0
H439 H 0.79539 0.18521 0.71357 0.0
C440 C 0.11892 0.95302 0.70148 0.0
Eu441 Eu 0.21799 0.97502 0.70411 0.0
C442 C 0.05975 0.96028 0.70417 0.0
C443 C 1.0216 0.93929 0.70758 0.0
C444 C 0.96474 0.94544 0.70935 0.0
C445 C 0.94467 0.97278 0.70768 0.0
C446 C 0.98339 -0.00616 0.70444 0.0
C447 C 0.04026 0.98769 0.70275 0.0
C448 C 0.26503 -0.00607 0.72817 0.0
C449 C 0.23568 0.04126 0.70376 0.0
C450 C 0.4391 0.0149 0.69893 0.0
Eu451 Eu 0.33456 -0.00065 0.69996 0.0
C452 C 0.49721 0.00651 0.70194 0.0
C453 C 0.54009 0.02579 0.69976 0.0
C454 C 0.59611 0.01801 0.70132 0.0
C455 C 0.6106 -0.00933 0.70507 0.0
C456 C 0.56725 0.9715 0.70757 0.0
C457 C 0.51104 0.97939 0.70605 0.0
C458 C 0.26851 -0.00455 0.67669 0.0
C459 C 0.32348 0.93292 0.70345 0.0
O460 O 0.14406 0.96694 0.69155 0.0
O461 O 0.15102 0.94884 0.71239 0.0
O462 O 0.21222 -0.00419 0.72521 0.0
O463 O 0.29076 0.98132 0.71847 0.0
O464 O 0.20238 0.02076 0.69973 0.0
O465 O 0.28804 0.03671 0.70724 0.0
O466 O 0.40612 0.02037 0.70953 0.0
O467 O 0.41368 0.0016 0.68882 0.0
O468 O 0.29904 0.01694 0.67952 0.0
O469 O 0.27444 0.97761 0.6861 0.0
O470 O 0.35652 0.95475 0.703 0.0
O471 O 0.26834 0.93509 0.70344 0.0
H472 H 0.03573 0.91802 0.70875 0.0
H473 H 0.93655 0.92874 0.71206 0.0
H474 H 0.96965 0.01506 0.70289 0.0
H475 H 0.06885 0.00428 0.7001 0.0
H476 H 0.53029 0.04679 0.69649 0.0
H477 H 0.62814 0.03324 0.69911 0.0
H478 H 0.57677 0.95036 0.71062 0.0
H479 H 0.47848 0.96428 0.70788 0.0
C480 C 0.17948 0.96674 0.45113 0.0
Eu481 Eu 0.07455 0.98125 0.45112 0.0
C482 C 0.23666 0.97709 0.45382 0.0
C483 C 0.27247 0.98163 0.44243 0.0
C484 C 0.32826 0.98878 0.44458 0.0
C485 C 0.34986 -0.00859 0.45819 0.0
C486 C 0.31387 0.98731 0.46964 0.0
C487 C 0.25775 0.98022 0.46748 0.0
C488 C 1.01088 0.98576 0.42761 0.0
C489 C 0.05904 0.04778 0.45415 0.0
C490 C 0.85459 0.02474 0.44631 0.0
Eu491 Eu 0.95248 0.00705 0.45404 0.0
C492 C 0.79385 0.02193 0.44828 0.0
C493 C 0.76894 0.02155 0.46158 0.0
C494 C 0.71058 0.02077 0.46287 0.0
C495 C 0.67643 0.0205 0.45088 0.0
C496 C 0.70186 0.0202 0.43762 0.0
C497 C 0.75988 0.02095 0.43635 0.0
C498 C 0.99454 -0.00389 0.47996 0.0
C499 C 0.97473 0.93981 0.456 0.0
O500 O 0.14608 0.96276 0.46181 0.0
O501 O 0.1536 0.97676 0.44017 0.0
O502 O 0.04212 0.96435 0.4303 0.0
O503 O 1.01511 0.00338 0.43729 0.0
O504 O 0.09207 0.02603 0.45586 0.0
O505 O 1.00477 0.04561 0.45173 0.0
O506 O 0.88054 0.00397 0.44019 0.0
O507 O 0.88384 0.03645 0.45634 0.0
O508 O 0.94493 0.0064 0.47784 0.0
O509 O 1.01765 -0.00788 0.46828 0.0
O510 O 0.93933 0.96016 0.45272 0.0
O511 O 0.02848 0.94395 0.45807 0.0
H512 H 0.25771 0.9789 0.4318 0.0
H513 H 0.355 -0.00876 0.43553 0.0
H514 H 0.32923 0.98934 0.48025 0.0
H515 H 0.23132 0.97666 0.47649 0.0
H516 H 0.79439 0.02227 0.47095 0.0
H517 H 0.6922 0.02107 0.47322 0.0
H518 H 0.67685 0.01941 0.42818 0.0
H519 H 0.7783 0.02116 0.42599 0.0
C520 C 0.62205 0.76461 0.4479 0.0
Eu521 Eu 0.72707 0.75039 0.44772 0.0
C522 C 0.56588 0.75473 0.45178 0.0
C523 C 0.52897 0.77321 0.45839 0.0
C524 C 0.47333 0.76576 0.46067 0.0
C525 C 0.45333 0.73967 0.45629 0.0
C526 C 0.49114 0.72069 0.45021 0.0
C527 C 0.54692 0.72815 0.44797 0.0
C528 C 0.79007 0.74376 0.42421 0.0
C529 C 0.74274 0.68424 0.45223 0.0
C530 C 0.94799 0.70774 0.44416 0.0
Eu531 Eu 0.84859 0.72494 0.45105 0.0
C532 C 1.00668 0.71377 0.44746 0.0
C533 C 0.04821 0.69492 0.44331 0.0
C534 C 0.10459 0.70101 0.44554 0.0
C535 C 0.12044 0.72615 0.45195 0.0
C536 C 0.07841 0.74474 0.45638 0.0
C537 C 1.02196 0.73859 0.45416 0.0
C538 C 0.80746 0.73758 0.47687 0.0
C539 C 0.8265 0.79236 0.45188 0.0
O540 O 0.65659 0.77088 0.45807 0.0
O541 O 0.6466 0.7523 0.43731 0.0
O542 O 0.7588 0.76537 0.42649 0.0
O543 O 0.78604 0.72702 0.43422 0.0
O544 O 0.7102 0.70624 0.45375 0.0
O545 O 0.79672 0.68608 0.44939 0.0
O546 O 0.9208 0.72717 0.43736 0.0
O547 O 0.91823 0.69627 0.4541 0.0
O548 O 0.85632 0.72653 0.47475 0.0
O549 O 0.78363 0.74108 0.46523 0.0
O550 O 0.8623 0.77177 0.44933 0.0
O551 O 0.77258 0.78848 0.45364 0.0
H552 H 0.54278 0.79379 0.46144 0.0
H553 H 0.44567 0.78067 0.46563 0.0
H554 H 0.47715 0.7005 0.44663 0.0
H555 H 0.57462 0.71348 0.44285 0.0
H556 H 0.03706 0.6757 0.43809 0.0
H557 H 0.13582 0.68641 0.44184 0.0
H558 H 0.08917 0.76413 0.46148 0.0
H559 H 0.99032 0.75336 0.45747 0.0
C560 C 0.1451 0.75369 0.32599 0.0
Eu561 Eu 0.0426 0.73915 0.33175 0.0
C562 C 0.20301 0.74309 0.32647 0.0
C563 C 0.21934 0.7224 0.33597 0.0
C564 C 0.27555 0.71428 0.33692 0.0
C565 C 0.31651 0.72674 0.32841 0.0
C566 C 0.29941 0.74692 0.31867 0.0
C567 C 0.24332 0.755 0.31773 0.0
C568 C 0.98773 0.74381 0.35651 0.0
C569 C 0.0325 0.6724 0.33781 0.0
C570 C 0.82422 0.69656 0.34395 0.0
Eu571 Eu 0.92143 0.71087 0.33406 0.0
C572 C 0.76473 0.70141 0.34076 0.0
C573 C 0.74853 0.72012 0.33028 0.0
C574 C 0.69179 0.72556 0.32785 0.0
C575 C 0.65013 0.71242 0.33587 0.0
C576 C 0.66682 0.69336 0.34622 0.0
C577 C 0.72354 0.68796 0.34863 0.0
C578 C 0.95247 0.71597 0.3066 0.0
C579 C 0.93611 0.77707 0.32684 0.0
O580 O 0.11134 0.74255 0.31676 0.0
O581 O 0.12078 0.75846 0.33802 0.0
O582 O 1.0192 0.76319 0.35134 0.0
O583 O 0.98884 0.72254 0.34874 0.0
O584 O 0.06439 0.694 0.33481 0.0
O585 O 0.97725 0.67402 0.33886 0.0
O586 O 0.85227 0.71826 0.34836 0.0
O587 O 0.85251 0.68131 0.335 0.0
O588 O 0.90568 0.70495 0.3106 0.0
O589 O 0.97926 0.72295 0.31738 0.0
O590 O 0.90477 0.75728 0.33246 0.0
O591 O 0.989 0.77326 0.32331 0.0
H592 H 0.18886 0.71294 0.34283 0.0
H593 H 0.28711 0.69882 0.34461 0.0
H594 H 0.32943 0.75657 0.31175 0.0
H595 H 0.23154 0.77094 0.3103 0.0
H596 H 0.77979 0.73072 0.32409 0.0
H597 H 0.68057 0.74008 0.31968 0.0
H598 H 0.6361 0.68315 0.35272 0.0
H599 H 0.73529 0.67356 0.35682 0.0
C600 C 0.64863 0.95882 0.33275 0.0
Eu601 Eu 0.7511 0.97599 0.33646 0.0
C602 C 0.58978 0.96783 0.33407 0.0
C603 C 0.54977 0.94845 0.33839 0.0
C604 C 0.4933 0.95581 0.33925 0.0
C605 C 0.47542 0.9828 0.33577 0.0
C606 C 0.51587 0.00237 0.33161 0.0
C607 C 0.57251 -0.00506 0.33076 0.0
C608 C 0.80786 0.97609 0.36106 0.0
C609 C 0.75673 0.04314 0.34 0.0
C610 C 0.96709 0.02078 0.34079 0.0
Eu611 Eu 0.86456 0.00475 0.3359 0.0
C612 C 1.02605 0.0124 0.33876 0.0
C613 C 0.0649 0.0324 0.33445 0.0
C614 C 0.12158 0.02563 0.33315 0.0
C615 C 0.14083 -0.00134 0.33619 0.0
C616 C 0.10155 0.97852 0.34035 0.0
C617 C 0.04475 0.9853 0.3416 0.0
C618 C 0.81324 0.00119 0.31049 0.0
C619 C 0.85592 0.93716 0.33133 0.0
O620 O 0.67879 0.97027 0.3229 0.0
O621 O 0.67652 0.95515 0.34436 0.0
O622 O 0.77826 0.95537 0.35656 0.0
O623 O 0.80407 -0.00364 0.35273 0.0
O624 O 0.72695 0.02128 0.33633 0.0
O625 O 0.81113 0.0414 0.34229 0.0
O626 O 0.93714 0.00645 0.34964 0.0
O627 O 0.93887 0.02801 0.32966 0.0
O628 O 0.84392 0.02202 0.31439 0.0
O629 O 0.81393 0.98281 0.31984 0.0
O630 O 0.88751 0.95851 0.33515 0.0
O631 O 0.80191 0.94002 0.32898 0.0
H632 H 0.5622 0.92744 0.34104 0.0
H633 H 0.46365 0.94035 0.34274 0.0
H634 H 0.50366 0.02328 0.32876 0.0
H635 H 0.60262 0.01028 0.32737 0.0
H636 H 0.05143 0.05343 0.3322 0.0
H637 H 0.15027 0.04156 0.32969 0.0
H638 H 0.1148 0.95762 0.34291 0.0
H639 H 1.01567 0.96945 0.34497 0.0
C640 C 0.70662 0.45255 0.59646 0.0
Eu641 Eu 0.60469 0.46935 0.59095 0.0
C642 C 0.76582 0.46084 0.59506 0.0
C643 C 0.78206 0.48343 0.58677 0.0
C644 C 0.83878 0.49049 0.58553 0.0
C645 C 0.88043 0.4751 0.59258 0.0
C646 C 0.86355 0.45255 0.6009 0.0
C647 C 0.80698 0.44554 0.60212 0.0
C648 C 0.55687 0.47635 0.56531 0.0
C649 C 0.59822 0.53742 0.58823 0.0
C650 C 0.3884 0.51678 0.58699 0.0
Eu651 Eu 0.49061 0.49924 0.59132 0.0
C652 C 0.32965 0.50722 0.58714 0.0
C653 C 0.31276 0.48408 0.59497 0.0
C654 C 0.2562 0.4764 0.59545 0.0
C655 C 0.21529 0.49172 0.58811 0.0
C656 C 0.23287 0.51461 0.58011 0.0
C657 C 0.2893 0.52224 0.57965 0.0
C658 C 0.54422 0.4967 0.61626 0.0
C659 C 0.49563 0.43149 0.59292 0.0
O660 O 0.67585 0.46679 0.60526 0.0
O661 O 0.67973 0.44631 0.58497 0.0
O662 O 0.58755 0.45507 0.56863 0.0
O663 O 0.55613 0.49344 0.5753 0.0
O664 O 0.62849 0.51522 0.59148 0.0
O665 O 0.54398 0.53579 0.58571 0.0
O666 O 0.42078 0.5071 0.57706 0.0
O667 O 0.41399 0.51844 0.59906 0.0
O668 O 0.51449 0.51773 0.61216 0.0
O669 O 0.54163 0.47717 0.60739 0.0
O670 O 0.46672 0.45399 0.58973 0.0
O671 O 0.54978 0.43245 0.59568 0.0
H672 H 0.75095 0.49551 0.58121 0.0
H673 H 0.85003 0.50782 0.57892 0.0
H674 H 0.89401 0.4405 0.60669 0.0
H675 H 0.79533 0.42808 0.60862 0.0
H676 H 0.34316 0.47219 0.60087 0.0
H677 H 0.24443 0.4588 0.60182 0.0
H678 H 0.20303 0.52661 0.57411 0.0
H679 H 0.30142 0.54012 0.5735 0.0
C680 C 0.5919 0.77876 0.58988 0.0
Eu681 Eu 0.6937 0.76212 0.58422 0.0
C682 C 0.5325 0.77062 0.58857 0.0
C683 C 0.4921 0.7913 0.58633 0.0
C684 C 0.43517 0.78465 0.58594 0.0
C685 C 0.41721 0.75708 0.5878 0.0
C686 C 0.45806 0.73627 0.58979 0.0
C687 C 0.51508 0.74296 0.59018 0.0
C688 C 0.74047 0.75605 0.55838 0.0
C689 C 0.70053 0.6942 0.58164 0.0
C690 C 0.90984 0.71514 0.57909 0.0
Eu691 Eu 0.80796 0.73248 0.58404 0.0
C692 C 0.96908 0.72365 0.5801 0.0
C693 C 1.01 0.70329 0.58245 0.0
C694 C 0.06672 0.71033 0.58284 0.0
C695 C 0.08397 0.738 0.58091 0.0
C696 C 0.04258 0.75849 0.57876 0.0
C697 C 0.98575 0.75138 0.57834 0.0
C698 C 0.75586 0.7342 0.60917 0.0
C699 C 0.80244 0.80005 0.58745 0.0
O700 O 0.62309 0.76461 0.59857 0.0
O701 O 0.6184 0.78532 0.5784 0.0
O702 O 0.70972 0.77711 0.56202 0.0
O703 O 0.7419 0.73854 0.56815 0.0
O704 O 0.67051 0.71637 0.58504 0.0
O705 O 0.75427 0.69585 0.57853 0.0
O706 O 0.87858 0.72776 0.56981 0.0
O707 O 0.88338 0.71055 0.59082 0.0
O708 O 0.78627 0.71354 0.60485 0.0
O709 O 0.75745 0.75393 0.60045 0.0
O710 O 0.83203 0.77791 0.58392 0.0
O711 O 0.74806 0.79873 0.5898 0.0
H712 H 0.50454 0.8128 0.58514 0.0
H713 H 0.40516 0.8013 0.58457 0.0
H714 H 0.44598 0.71475 0.59106 0.0
H715 H 0.54544 0.7266 0.59191 0.0
H716 H 0.99812 0.68174 0.58378 0.0
H717 H 0.09714 0.69389 0.58431 0.0
H718 H 0.05406 0.78007 0.57741 0.0
H719 H 0.95494 0.76748 0.57651 0.0
C720 C 0.72952 0.77934 0.69977 0.0
Eu721 Eu 0.63048 0.7613 0.70629 0.0
C722 C 0.78847 0.77346 0.70305 0.0
C723 C 0.80418 0.74884 0.70984 0.0
C724 C 0.86079 0.74248 0.71178 0.0
C725 C 0.9027 0.76062 0.70698 0.0
C726 C 0.88646 0.78564 0.70054 0.0
C727 C 0.82988 0.79195 0.69859 0.0
C728 C 0.58483 0.75024 0.73188 0.0
C729 C 0.61479 0.69379 0.70861 0.0
C730 C 0.40572 0.71757 0.70276 0.0
Eu731 Eu 0.51011 0.73288 0.70277 0.0
C732 C 0.34904 0.7278 0.70616 0.0
C733 C 0.33071 0.75431 0.70205 0.0
C734 C 0.27487 0.76226 0.70397 0.0
C735 C 0.23622 0.74385 0.71004 0.0
C736 C 0.25545 0.71776 0.71464 0.0
C737 C 0.31119 0.70983 0.71269 0.0
C738 C 0.57481 0.73841 0.67953 0.0
C739 C 0.52068 0.7998 0.70555 0.0
O740 O 0.70316 0.75992 0.69274 0.0
O741 O 0.699 0.79042 0.70975 0.0
O742 O 0.63363 0.76162 0.73025 0.0
O743 O 0.5647 0.7455 0.71996 0.0
O744 O 0.64846 0.7149 0.7057 0.0
O745 O 0.56002 0.6964 0.70976 0.0
O746 O 0.43981 0.71256 0.7132 0.0
O747 O 0.43069 0.72884 0.692 0.0
O748 O 0.5437 0.71687 0.68193 0.0
O749 O 0.56914 0.75591 0.68923 0.0
O750 O 0.48971 0.77747 0.70754 0.0
O751 O 0.57515 0.79864 0.70313 0.0
H752 H 0.77272 0.73432 0.71337 0.0
H753 H 0.87176 0.72322 0.71694 0.0
H754 H 0.91748 0.79991 0.69655 0.0
H755 H 0.81848 0.81098 0.69326 0.0
H756 H 0.35906 0.76859 0.69697 0.0
H757 H 0.2616 0.78242 0.70021 0.0
H758 H 0.22722 0.70326 0.7196 0.0
H759 H 0.32443 0.68931 0.71597 0.0
C760 C 0.58143 0.44769 0.70554 0.0
Eu761 Eu 0.68035 0.46598 0.71201 0.0
C762 C 0.52161 0.45277 0.70845 0.0
C763 C 0.49997 0.45318 0.72211 0.0
C764 C 0.44276 0.45764 0.72437 0.0
C765 C 0.40613 0.46183 0.71302 0.0
C766 C 0.42828 0.46159 0.69939 0.0
C767 C 0.48524 0.45702 0.69715 0.0
C768 C 0.72562 0.47889 0.7375 0.0
C769 C 0.69486 0.53368 0.71344 0.0
C770 C 0.90367 0.5116 0.70783 0.0
Eu771 Eu 0.80005 0.49481 0.70815 0.0
C772 C 0.96109 0.50112 0.70974 0.0
C773 C 0.97528 0.47357 0.70646 0.0
C774 C 0.03095 0.46469 0.70712 0.0
C775 C 0.07374 0.48333 0.7109 0.0
C776 C 0.05893 0.51078 0.71452 0.0
C777 C 1.00316 0.51952 0.71398 0.0
C778 C 0.73434 0.48891 0.68512 0.0
C779 C 0.79067 0.42751 0.71053 0.0
O780 O 0.60737 0.46706 0.69846 0.0
O781 O 0.61232 0.43676 0.71548 0.0
O782 O 0.67708 0.46715 0.73599 0.0
O783 O 0.74578 0.48289 0.72552 0.0
O784 O 0.66169 0.51225 0.7107 0.0
O785 O 0.74949 0.53126 0.71501 0.0
O786 O 0.87178 0.51324 0.71893 0.0
O787 O 0.87688 0.50258 0.69677 0.0
O788 O 0.76508 0.5106 0.68752 0.0
O789 O 0.74075 0.47138 0.69474 0.0
O790 O 0.82199 0.44997 0.71187 0.0
O791 O 0.73568 0.42848 0.70898 0.0
H792 H 0.5271 0.44997 0.73104 0.0
H793 H 0.42712 0.45745 0.735 0.0
H794 H 0.40171 0.46528 0.69041 0.0
H795 H 0.501 0.45686 0.68652 0.0
H796 H 0.94352 0.45916 0.70301 0.0
H797 H 0.0405 0.44332 0.70446 0.0
H798 H 0.0906 0.52586 0.71727 0.0
H799 H 0.99309 0.54095 0.71645 0.0
C800 C 0.66741 0.46519 0.45549 0.0
Eu801 Eu 0.56383 0.4823 0.45513 0.0
C802 C 0.72567 0.47484 0.45469 0.0
C803 C 0.76503 0.45813 0.44778 0.0
C804 C 0.82147 0.46543 0.44771 0.0
C805 C 0.83981 0.48961 0.4546 0.0
C806 C 0.79992 0.50678 0.46121 0.0
C807 C 0.74329 0.49945 0.46125 0.0
C808 C 0.50091 0.48809 0.43154 0.0
C809 C 0.55344 0.54909 0.45657 0.0
C810 C 0.34655 0.52462 0.45715 0.0
Eu811 Eu 0.45035 0.50821 0.45917 0.0
C812 C 0.28809 0.51522 0.45805 0.0
C813 C 0.24925 0.53206 0.46508 0.0
C814 C 0.19267 0.52503 0.46526 0.0
C815 C 0.17364 0.501 0.45836 0.0
C816 C 0.21293 0.48378 0.45157 0.0
C817 C 0.26969 0.49082 0.45141 0.0
C818 C 0.50828 0.50099 0.48342 0.0
C819 C 0.46549 0.44073 0.45934 0.0
O820 O 0.63905 0.47169 0.46674 0.0
O821 O 0.63746 0.46663 0.44408 0.0
O822 O 0.53031 0.46614 0.43436 0.0
O823 O 0.50674 0.50595 0.44109 0.0
O824 O 0.58532 0.52718 0.45877 0.0
O825 O 0.49918 0.54683 0.45443 0.0
O826 O 0.37632 0.51592 0.44652 0.0
O827 O 0.37515 0.52569 0.46878 0.0
O828 O 0.47684 0.52235 0.48077 0.0
O829 O 0.50617 0.48406 0.47333 0.0
O830 O 0.43163 0.46185 0.4565 0.0
O831 O 0.51893 0.44446 0.46174 0.0
H832 H 0.7522 0.4391 0.44262 0.0
H833 H 0.85079 0.45204 0.44227 0.0
H834 H 0.81261 0.52546 0.46668 0.0
H835 H 0.71356 0.51271 0.46664 0.0
H836 H 0.26261 0.55096 0.47027 0.0
H837 H 0.16378 0.53848 0.47081 0.0
H838 H 0.19965 0.46524 0.44606 0.0
H839 H 0.29889 0.47748 0.4459 0.0
C840 C 0.12948 0.26469 0.44496 0.0
Eu841 Eu 0.23382 0.249 0.44604 0.0
C842 C 0.07128 0.25824 0.44895 0.0
C843 C 0.04223 0.2357 0.44306 0.0
C844 C 0.98476 0.23269 0.44534 0.0
C845 C 0.95524 0.25218 0.45352 0.0
C846 C 0.98504 0.27391 0.45993 0.0
C847 C 0.04232 0.27694 0.45762 0.0
C848 C 0.29762 0.24046 0.42274 0.0
C849 C 0.24548 0.18389 0.4508 0.0
C850 C 0.45057 0.20836 0.44928 0.0
Eu851 Eu 0.34693 0.22505 0.45119 0.0
C852 C 0.50971 0.21511 0.45224 0.0
C853 C 0.53886 0.19968 0.46234 0.0
C854 C 0.59654 0.20279 0.46398 0.0
C855 C 0.62653 0.22129 0.45548 0.0
C856 C 0.59701 0.23743 0.44568 0.0
C857 C 0.53924 0.23434 0.44405 0.0
C858 C 0.28956 0.23451 0.47535 0.0
C859 C 0.3307 0.2925 0.44815 0.0
O860 O 0.1639 0.27233 0.45488 0.0
O861 O 0.15352 0.24943 0.43531 0.0
O862 O 0.26724 0.2624 0.42478 0.0
O863 O 0.29204 0.22396 0.43283 0.0
O864 O 0.21514 0.20598 0.45373 0.0
O865 O 0.29785 0.18632 0.44676 0.0
O866 O 0.42473 0.22221 0.43944 0.0
O867 O 0.41815 0.20257 0.45988 0.0
O868 O 0.32272 0.21359 0.47317 0.0
O869 O 0.28979 0.25043 0.46481 0.0
O870 O 0.36603 0.27126 0.44873 0.0
O871 O 0.27636 0.28927 0.44831 0.0
H872 H 0.06334 0.22097 0.43628 0.0
H873 H 0.96305 0.21581 0.44018 0.0
H874 H 0.96383 0.289 0.46649 0.0
H875 H 0.06365 0.29457 0.46224 0.0
H876 H 0.51731 0.1845 0.4687 0.0
H877 H 0.61782 0.19033 0.47176 0.0
H878 H 0.61886 0.25165 0.43885 0.0
H879 H 0.51816 0.24634 0.43606 0.0
C880 C 0.66983 0.25734 0.32784 0.0
Eu881 Eu 0.56735 0.24273 0.33353 0.0
C882 C 0.72778 0.24693 0.32844 0.0
C883 C 0.74383 0.22587 0.33775 0.0
C884 C 0.80004 0.21777 0.33874 0.0
C885 C 0.84119 0.23064 0.33045 0.0
C886 C 0.82436 0.25121 0.32089 0.0
C887 C 0.7683 0.25926 0.31992 0.0
C888 C 0.51366 0.24521 0.35865 0.0
C889 C 0.5563 0.17578 0.33825 0.0
C890 C 0.3489 0.20089 0.34563 0.0
Eu891 Eu 0.44598 0.2153 0.33567 0.0
C892 C 0.28936 0.20572 0.34254 0.0
C893 C 0.27284 0.22481 0.33228 0.0
C894 C 0.21604 0.23023 0.32996 0.0
C895 C 0.17465 0.21666 0.33789 0.0
C896 C 0.19164 0.1972 0.34801 0.0
C897 C 0.24845 0.19183 0.35031 0.0
C898 C 0.47518 0.22176 0.3082 0.0
C899 C 0.46334 0.2819 0.32954 0.0
O900 O 0.63643 0.24582 0.31866 0.0
O901 O 0.64522 0.26237 0.33981 0.0
O902 O 0.54466 0.26509 0.35376 0.0
O903 O 0.51437 0.22483 0.35033 0.0
O904 O 0.58841 0.19742 0.33556 0.0
O905 O 0.50113 0.17761 0.33955 0.0
O906 O 0.37697 0.22258 0.35003 0.0
O907 O 0.377 0.18577 0.33659 0.0
O908 O 0.4283 0.21096 0.31228 0.0
O909 O 0.50308 0.22808 0.31892 0.0
O910 O 0.43204 0.26226 0.33536 0.0
O911 O 0.51485 0.27717 0.32522 0.0
H912 H 0.71312 0.21608 0.34443 0.0
H913 H 0.81143 0.20199 0.34628 0.0
H914 H 0.85456 0.26118 0.31414 0.0
H915 H 0.75668 0.27547 0.31262 0.0
H916 H 0.3039 0.23574 0.32616 0.0
H917 H 0.20453 0.24506 0.32197 0.0
H918 H 0.16111 0.18664 0.35443 0.0
H919 H 0.26047 0.17713 0.35834 0.0
C920 C 0.11795 0.4548 0.34296 0.0
Eu921 Eu 0.22129 0.47188 0.34421 0.0
C922 C 0.05939 0.46433 0.34316 0.0
C923 C 1.01987 0.44822 0.35025 0.0
C924 C 0.96345 0.45565 0.35014 0.0
C925 C 0.94517 0.47934 0.34286 0.0
C926 C 0.98516 0.49586 0.33599 0.0
C927 C 0.04185 0.48841 0.33613 0.0
C928 C 0.28216 0.47404 0.36826 0.0
C929 C 0.22927 0.53886 0.34451 0.0
C930 C 0.43746 0.51445 0.3449 0.0
Eu931 Eu 0.33409 0.49828 0.34165 0.0
C932 C 0.49613 0.5053 0.3434 0.0
C933 C 0.5333 0.52195 0.33581 0.0
C934 C 0.58999 0.51507 0.33501 0.0
C935 C 0.61087 0.4914 0.34185 0.0
C936 C 0.57331 0.47444 0.34927 0.0
C937 C 0.51649 0.48131 0.35004 0.0
C938 C 0.27966 0.49361 0.31675 0.0
C939 C 0.32111 0.43032 0.33978 0.0
O940 O 0.14806 0.46054 0.33191 0.0
O941 O 0.14597 0.45707 0.35464 0.0
O942 O 0.25242 0.45291 0.36441 0.0
O943 O 0.27723 0.49344 0.35948 0.0
O944 O 0.1986 0.51691 0.34162 0.0
O945 O 0.28347 0.53666 0.34694 0.0
O946 O 0.40756 0.50332 0.35487 0.0
O947 O 0.40895 0.51834 0.33342 0.0
O948 O 0.30992 0.51473 0.32043 0.0
O949 O 0.28049 0.47548 0.3263 0.0
O950 O 0.35511 0.45165 0.34203 0.0
O951 O 0.26701 0.43365 0.33814 0.0
H952 H 0.03264 0.42965 0.35579 0.0
H953 H 0.93412 0.4428 0.35581 0.0
H954 H 0.97252 0.51417 0.33023 0.0
H955 H 0.07172 0.50123 0.33062 0.0
H956 H 0.51856 0.54058 0.33064 0.0
H957 H 0.61746 0.52834 0.32902 0.0
H958 H 0.58803 0.45621 0.35478 0.0
H959 H 0.4888 0.46811 0.35602 0.0
C960 C 0.6958 0.96499 0.09627 0.0
Eu961 Eu 0.59507 0.97987 0.08937 0.0
C962 C 0.75405 0.96965 0.09184 0.0
C963 C 0.78999 0.94681 0.09021 0.0
C964 C 0.84623 0.95076 0.08682 0.0
C965 C 0.86778 0.9777 0.08507 0.0
C966 C 0.83127 0.00054 0.08644 0.0
C967 C 0.77496 -0.00344 0.08974 0.0
C968 C 0.55014 0.98478 0.06324 0.0
C969 C 0.5716 0.04606 0.0835 0.0
C970 C 0.36841 0.0214 0.09109 0.0
Eu971 Eu 0.47273 0.00591 0.09147 0.0
C972 C 0.31144 0.01157 0.08838 0.0
C973 C 0.26787 0.03102 0.08816 0.0
C974 C 0.21258 0.02229 0.0868 0.0
C975 C 0.19981 -0.00614 0.08565 0.0
C976 C 0.24389 0.9744 0.08552 0.0
C977 C 0.29939 0.98323 0.08684 0.0
C978 C 0.54001 0.00891 0.11441 0.0
C979 C 0.48928 0.93909 0.09249 0.0
O980 O 0.66946 0.98616 0.10195 0.0
O981 O 0.66417 0.9503 0.08784 0.0
O982 O 0.60005 0.97522 0.06561 0.0
O983 O 0.52814 -0.00888 0.07479 0.0
O984 O 0.60756 0.02676 0.08782 0.0
O985 O 0.51788 0.04116 0.08183 0.0
O986 O 0.40181 0.02387 0.08031 0.0
O987 O 0.39337 0.0113 0.10217 0.0
O988 O 0.50708 0.02887 0.11049 0.0
O989 O 0.53494 0.98849 0.10627 0.0
O990 O 0.45572 0.96021 0.08968 0.0
O991 O 0.54377 0.94193 0.09442 0.0
H992 H 0.77467 0.92587 0.09174 0.0
H993 H 0.87288 0.93268 0.08562 0.0
H994 H 0.84648 0.0216 0.08535 0.0
H995 H 0.74813 0.01459 0.0909 0.0
H996 H 0.27651 0.05298 0.08941 0.0
H997 H 0.1797 0.03778 0.08716 0.0
H998 H 0.23544 0.95238 0.08453 0.0
H999 H 0.3327 0.96799 0.08691 0.0
C1000 C 0.59716 0.27905 0.09614 0.0
Eu1001 Eu 0.69491 0.26193 0.08789 0.0
C1002 C 0.53626 0.2758 0.09441 0.0
C1003 C 0.50946 0.27906 0.08143 0.0
C1004 C 0.45101 0.2778 0.08053 0.0
C1005 C 0.41854 0.27342 0.0926 0.0
C1006 C 0.44584 0.26952 0.10547 0.0
C1007 C 0.50395 0.27077 0.10636 0.0
C1008 C 0.73572 0.25255 0.06169 0.0
C1009 C 0.71592 0.19465 0.08439 0.0
C1010 C 0.92034 0.21996 0.0902 0.0
Eu1011 Eu 0.81581 0.23527 0.09038 0.0
C1012 C 0.97792 0.2303 0.08817 0.0
C1013 C 1.01447 0.23068 0.09965 0.0
C1014 C 0.07038 0.23807 0.09796 0.0
C1015 C 0.09133 0.24513 0.08471 0.0
C1016 C 0.05461 0.24512 0.0732 0.0
C1017 C 0.99836 0.23781 0.07491 0.0
C1018 C 0.75155 0.23857 0.11391 0.0
C1019 C 0.80312 0.30206 0.08887 0.0
O1020 O 0.62404 0.25834 0.10199 0.0
O1021 O 0.62562 0.29118 0.08613 0.0
O1022 O 0.6866 0.26311 0.06416 0.0
O1023 O 0.75952 0.24753 0.07322 0.0
O1024 O 0.68045 0.21484 0.08795 0.0
O1025 O 0.76964 0.19887 0.08247 0.0
O1026 O 0.88751 0.21787 0.07926 0.0
O1027 O 0.89406 0.2285 0.10144 0.0
O1028 O 0.78185 0.21702 0.11078 0.0
O1029 O 0.75705 0.25679 0.10462 0.0
O1030 O 0.83544 0.28014 0.08692 0.0
O1031 O 0.74841 0.30025 0.09082 0.0
H1032 H 0.53346 0.28299 0.07204 0.0
H1033 H 0.4312 0.28098 0.07047 0.0
H1034 H 0.42222 0.26555 0.11492 0.0
H1035 H 0.52372 0.26819 0.11648 0.0
H1036 H 1.00007 0.22458 0.10993 0.0
H1037 H 0.09768 0.23734 0.10699 0.0
H1038 H 0.06945 0.25063 0.06288 0.0
H1039 H 0.97128 0.23759 0.06583 0.0
C1040 C 0.71664 0.27609 0.19388 0.0
Eu1041 Eu 0.61954 0.26238 0.20402 0.0
C1042 C 0.77611 0.27146 0.19707 0.0
C1043 C 0.79252 0.2528 0.20754 0.0
C1044 C 0.8493 0.24762 0.20999 0.0
C1045 C 0.89071 0.261 0.20201 0.0
C1046 C 0.87382 0.28005 0.19168 0.0
C1047 C 0.81705 0.28518 0.18924 0.0
C1048 C 0.58942 0.25786 0.23153 0.0
C1049 C 0.60128 0.19679 0.21179 0.0
C1050 C 0.39522 0.22092 0.21189 0.0
Eu1051 Eu 0.49796 0.23533 0.20639 0.0
C1052 C 0.33736 0.23142 0.21137 0.0
C1053 C 0.32112 0.25234 0.20199 0.0
C1054 C 0.26492 0.26048 0.20109 0.0
C1055 C 0.22402 0.24781 0.20953 0.0
C1056 C 0.24109 0.22743 0.21917 0.0
C1057 C 0.29711 0.21933 0.22005 0.0
C1058 C 0.55266 0.23116 0.18144 0.0
C1059 C 0.51003 0.30187 0.20109 0.0
O1060 O 0.68857 0.25414 0.1898 0.0
O1061 O 0.68856 0.29178 0.20266 0.0
O1062 O 0.63664 0.26821 0.22738 0.0
O1063 O 0.5618 0.25099 0.22085 0.0
O1064 O 0.6328 0.21556 0.20538 0.0
O1065 O 0.54977 0.20206 0.21589 0.0
O1066 O 0.42861 0.23211 0.22117 0.0
O1067 O 0.41988 0.21615 0.1999 0.0
O1068 O 0.5221 0.21144 0.18665 0.0
O1069 O 0.55135 0.2521 0.18939 0.0
O1070 O 0.47762 0.28054 0.20412 0.0
O1071 O 0.56501 0.29982 0.19962 0.0
H1072 H 0.76141 0.24205 0.21371 0.0
H1073 H 0.86076 0.2331 0.21814 0.0
H1074 H 0.90443 0.29045 0.18522 0.0
H1075 H 0.80508 0.29958 0.18107 0.0
H1076 H 0.35164 0.26197 0.1952 0.0
H1077 H 0.25332 0.27612 0.19349 0.0
H1078 H 0.21107 0.21763 0.22603 0.0
H1079 H 0.30891 0.20325 0.2274 0.0
C1080 C 0.60981 0.96215 0.20058 0.0
Eu1081 Eu 0.71338 0.97812 0.20331 0.0
C1082 C 0.55143 0.97102 0.20277 0.0
C1083 C 0.51441 0.95273 0.20938 0.0
C1084 C 0.45778 0.95941 0.21062 0.0
C1085 C 0.43689 0.98451 0.20522 0.0
C1086 C 0.47441 0.00314 0.19889 0.0
C1087 C 0.53118 -0.00353 0.19768 0.0
C1088 C 0.76897 0.98464 0.22787 0.0
C1089 C 0.72867 0.04578 0.20291 0.0
C1090 C 0.93074 0.02019 0.20039 0.0
Eu1091 Eu 0.8273 0.00325 0.19975 0.0
C1092 C 0.98927 0.01092 0.20076 0.0
C1093 C 0.03008 0.02828 0.19503 0.0
C1094 C 0.08645 0.02094 0.19566 0.0
C1095 C 0.10325 -0.00395 0.2021 0.0
C1096 C 0.06201 0.97835 0.20763 0.0
C1097 C 1.00537 0.98575 0.20698 0.0
C1098 C 0.76556 -0.00261 0.17597 0.0
C1099 C 0.81613 0.93669 0.20064 0.0
O1100 O 0.63818 0.97437 0.19066 0.0
O1101 O 0.63984 0.95718 0.21172 0.0
O1102 O 0.73722 0.96367 0.22486 0.0
O1103 O 0.76878 0.00191 0.21791 0.0
O1104 O 0.69376 0.02457 0.20164 0.0
O1105 O 0.78277 0.04243 0.20434 0.0
O1106 O 0.90048 0.0162 0.21161 0.0
O1107 O 0.90313 0.01578 0.18881 0.0
O1108 O 0.79491 0.01929 0.17882 0.0
O1109 O 0.77107 0.97976 0.18555 0.0
O1110 O 0.84798 0.95824 0.20354 0.0
O1111 O 0.76237 0.93961 0.19794 0.0
H1112 H 0.52918 0.93299 0.21338 0.0
H1113 H 0.4303 0.94481 0.21577 0.0
H1114 H 0.45967 0.02254 0.1945 0.0
H1115 H 0.55888 0.01096 0.19252 0.0
H1116 H 1.01833 0.04771 0.19013 0.0
H1117 H 0.1169 0.03475 0.19104 0.0
H1118 H 0.07358 0.95909 0.2127 0.0
H1119 H 0.97434 0.97204 0.21144 0.0
C1120 C 0.65604 0.96534 0.95553 0.0
Eu1121 Eu 0.55174 0.98107 0.95431 0.0
C1122 C 0.71291 0.97612 0.9581 0.0
C1123 C 0.7303 0.00187 0.95276 0.0
C1124 C 0.78621 0.01014 0.95396 0.0
C1125 C 0.8259 -0.00718 0.96049 0.0
C1126 C 0.80766 0.96755 0.96627 0.0
C1127 C 0.75183 0.95931 0.96506 0.0
C1128 C 0.49116 0.98607 0.93038 0.0
C1129 C 0.54149 0.04838 0.95587 0.0
C1130 C 0.33276 0.02756 0.94854 0.0
Eu1131 Eu 0.43111 0.00997 0.9562 0.0
C1132 C 0.27361 0.02182 0.95165 0.0
C1133 C 0.25795 -0.00191 0.95916 0.0
C1134 C 0.20134 -0.00808 0.96117 0.0
C1135 C 0.15932 0.00937 0.95571 0.0
C1136 C 0.17548 0.03349 0.94849 0.0
C1137 C 0.23207 0.03961 0.94647 0.0
C1138 C 0.47073 -0.00067 0.9824 0.0
C1139 C 0.44668 0.94221 0.95896 0.0
O1140 O 0.62189 0.9638 0.96622 0.0
O1141 O 0.63121 0.97343 0.94404 0.0
O1142 O 0.52116 0.96433 0.93332 0.0
O1143 O 0.4954 0.00392 0.93996 0.0
O1144 O 0.57232 0.02598 0.95803 0.0
O1145 O 0.48696 0.04734 0.9534 0.0
O1146 O 0.36011 0.00763 0.94209 0.0
O1147 O 0.36218 0.03947 0.95847 0.0
O1148 O 0.42259 0.01093 0.98 0.0
O1149 O 0.49381 -0.00583 0.97084 0.0
O1150 O 0.41359 0.9634 0.95559 0.0
O1151 O 0.50103 0.9448 0.96093 0.0
H1152 H 0.70109 0.01522 0.9473 0.0
H1153 H 0.79868 0.02964 0.94929 0.0
H1154 H 0.83671 0.95394 0.97161 0.0
H1155 H 0.73933 0.93939 0.96927 0.0
H1156 H 0.28948 0.98412 0.96327 0.0
H1157 H 0.19048 0.97338 0.96695 0.0
H1158 H 0.1444 0.04721 0.94399 0.0
H1159 H 0.24341 0.05796 0.94059 0.0
C1160 C 0.16136 0.75923 0.96264 0.0
Eu1161 Eu 0.26376 0.74227 0.95805 0.0
C1162 C 0.10213 0.75084 0.96145 0.0
C1163 C 0.06155 0.77133 0.959 0.0
C1164 C 1.00475 0.7645 0.95859 0.0
C1165 C 0.98709 0.73692 0.96059 0.0
C1166 C 0.02813 0.71629 0.9628 0.0
C1167 C 0.08506 0.72319 0.96325 0.0
C1168 C 0.3144 0.73893 0.9326 0.0
C1169 C 0.27024 0.67505 0.95496 0.0
C1170 C 0.47903 0.6973 0.95256 0.0
Eu1171 Eu 0.3769 0.71398 0.9578 0.0
C1172 C 0.53842 0.70548 0.95354 0.0
C1173 C 0.57887 0.68478 0.95566 0.0
C1174 C 0.63577 0.6914 0.95591 0.0
C1175 C 0.65366 0.71897 0.95402 0.0
C1176 C 0.6128 0.73981 0.95211 0.0
C1177 C 0.55573 0.73313 0.95187 0.0
C1178 C 0.32875 0.71697 0.98351 0.0
C1179 C 0.36757 0.7817 0.96105 0.0
O1180 O 0.19213 0.74655 0.97199 0.0
O1181 O 0.18841 0.76395 0.95101 0.0
O1182 O 0.28634 0.76045 0.93684 0.0
O1183 O 0.31268 0.72002 0.94165 0.0
O1184 O 0.24049 0.69687 0.95885 0.0
O1185 O 0.32403 0.67701 0.95201 0.0
O1186 O 0.4476 0.71039 0.94351 0.0
O1187 O 0.45287 0.69212 0.96426 0.0
O1188 O 0.35727 0.69585 0.97896 0.0
O1189 O 0.3286 0.73613 0.97449 0.0
O1190 O 0.39855 0.76018 0.95712 0.0
O1191 O 0.31451 0.77889 0.96436 0.0
H1192 H 0.07377 0.79283 0.95765 0.0
H1193 H 0.9746 0.78104 0.95707 0.0
H1194 H 1.01631 0.69477 0.9642 0.0
H1195 H 0.11561 0.70701 0.96516 0.0
H1196 H 0.56644 0.66329 0.95691 0.0
H1197 H 0.66581 0.67474 0.95721 0.0
H1198 H 0.62489 0.76131 0.9508 0.0
H1199 H 0.52526 0.74949 0.95025 0.0
C1200 C 0.66392 0.77244 0.83918 0.0
Eu1201 Eu 0.56022 0.75565 0.83957 0.0
C1202 C 0.72167 0.76167 0.83789 0.0
C1203 C 0.73729 0.73603 0.8437 0.0
C1204 C 0.79342 0.72765 0.84376 0.0
C1205 C 0.83529 0.74482 0.8381 0.0
C1206 C 0.81907 0.77006 0.83186 0.0
C1207 C 0.76288 0.77836 0.83177 0.0
C1208 C 0.49341 0.75624 0.86248 0.0
C1209 C 0.55375 0.68772 0.84092 0.0
C1210 C 0.34273 0.70699 0.84452 0.0
Eu1211 Eu 0.44163 0.72457 0.83737 0.0
C1212 C 0.28333 0.71131 0.84095 0.0
C1213 C 0.26541 0.73506 0.83373 0.0
C1214 C 0.20831 0.73965 0.83131 0.0
C1215 C 0.16801 0.72058 0.83608 0.0
C1216 C 0.18654 0.69655 0.84308 0.0
C1217 C 0.24355 0.69201 0.8455 0.0
C1218 C 0.48768 0.73184 0.81142 0.0
C1219 C 0.45269 0.79172 0.83166 0.0
O1220 O 0.63214 0.77198 0.82802 0.0
O1221 O 0.63682 0.76585 0.8506 0.0
O1222 O 0.52393 0.77709 0.85862 0.0
O1223 O 0.50061 0.73579 0.85436 0.0
O1224 O 0.58393 0.71027 0.83864 0.0
O1225 O 0.49858 0.68832 0.84227 0.0
O1226 O 0.36808 0.72794 0.85059 0.0
O1227 O 0.37413 0.69431 0.83521 0.0
O1228 O 0.43937 0.72018 0.81342 0.0
O1229 O 0.50689 0.73869 0.82317 0.0
O1230 O 0.42068 0.77055 0.83551 0.0
O1231 O 0.50778 0.78986 0.83056 0.0
H1232 H 0.70634 0.72283 0.84855 0.0
H1233 H 0.80409 0.70788 0.84845 0.0
H1234 H 0.85001 0.78398 0.82754 0.0
H1235 H 0.75186 0.7983 0.82731 0.0
H1236 H 0.29548 0.75029 0.83018 0.0
H1237 H 0.1957 0.75851 0.82601 0.0
H1238 H 0.15695 0.68119 0.84671 0.0
H1239 H 0.25654 0.67355 0.85109 0.0
C1240 C 0.14547 0.97275 0.83359 0.0
Eu1241 Eu 0.25005 0.98794 0.83607 0.0
C1242 C 0.0877 0.98381 0.83206 0.0
C1243 C 0.06958 0.00743 0.83949 0.0
C1244 C 1.01325 0.01565 0.83918 0.0
C1245 C 0.97341 0.00035 0.8315 0.0
C1246 C 0.99209 0.97707 0.82382 0.0
C1247 C 0.04847 0.96895 0.8241 0.0
C1248 C 0.31104 0.98199 0.85986 0.0
C1249 C 0.25615 0.05512 0.84006 0.0
C1250 C 0.46326 0.03772 0.84215 0.0
Eu1251 Eu 0.36594 0.01604 0.83618 0.0
C1252 C 0.52303 0.03142 0.83956 0.0
C1253 C 0.53934 0.00868 0.83127 0.0
C1254 C 0.59619 0.0022 0.82951 0.0
C1255 C 0.63812 0.01824 0.83604 0.0
C1256 C 0.62129 0.04123 0.84421 0.0
C1257 C 0.56447 0.04769 0.84594 0.0
C1258 C 0.32517 0.00429 0.81031 0.0
C1259 C 0.35652 0.9501 0.83045 0.0
O1260 O 0.17967 0.97447 0.8229 0.0
O1261 O 0.17044 0.9774 0.84554 0.0
O1262 O 0.2811 0.96235 0.8544 0.0
O1263 O 0.30674 0.00391 0.85276 0.0
O1264 O 0.2251 0.03261 0.83897 0.0
O1265 O 0.3115 0.05423 0.83954 0.0
O1266 O 0.43679 0.02043 0.85036 0.0
O1267 O 0.43303 0.04526 0.83136 0.0
O1268 O 0.37767 0.00287 0.81364 0.0
O1269 O 0.29693 0.01316 0.82057 0.0
O1270 O 0.38634 0.97016 0.8363 0.0
O1271 O 0.30337 0.95364 0.82703 0.0
H1272 H 0.09864 0.0191 0.84588 0.0
H1273 H 1.00065 0.03351 0.84535 0.0
H1274 H 0.96304 0.965 0.81761 0.0
H1275 H 0.06121 0.95056 0.81834 0.0
H1276 H 0.50808 -0.00422 0.82626 0.0
H1277 H 0.60723 0.98458 0.82299 0.0
H1278 H 0.65194 0.05386 0.84959 0.0
H1279 H 0.55284 0.06522 0.85247 0.0
H1280 H 0.88793 0.42569 0.08977 0.0
H1281 H 0.04638 0.38403 0.09544 0.0
H1282 H 0.99933 0.33901 0.09442 0.0
H1283 H 0.91369 0.31189 0.09198 0.0
H1284 H 0.75479 0.35362 0.08713 0.0
H1285 H 0.80198 0.39865 0.08791 0.0
C1286 C 0.91233 0.40682 0.09082 0.0
C1287 C 0.97065 0.40822 0.09268 0.0
C1288 C 0.885 0.38117 0.0904 0.0
C1289 C 1.00148 0.38352 0.09403 0.0
C1290 C 0.97461 0.35781 0.09343 0.0
C1291 C 0.88921 0.33079 0.09102 0.0
C1292 C 0.83076 0.32942 0.08939 0.0
C1293 C 0.91645 0.35646 0.09161 0.0
C1294 C 0.79977 0.35413 0.08838 0.0
C1295 C 0.82673 0.37984 0.0888 0.0
H1296 H 0.37962 0.92703 0.09529 0.0
H1297 H 0.54215 0.88854 0.0916 0.0
H1298 H 0.49853 0.84262 0.09138 0.0
H1299 H 0.41419 0.81386 0.09121 0.0
H1300 H 0.25176 0.85274 0.09469 0.0
H1301 H 0.29578 0.89839 0.09592 0.0
C1302 C 0.40563 0.90866 0.09439 0.0
C1303 C 0.46398 0.91121 0.09328 0.0
C1304 C 0.38034 0.8825 0.09418 0.0
C1305 C 0.4971 0.88713 0.09244 0.0
C1306 C 0.47219 0.8609 0.09226 0.0
C1307 C 0.3883 0.83229 0.09226 0.0
C1308 C 0.32971 0.82992 0.09276 0.0
C1309 C 0.41382 0.85841 0.09296 0.0
C1310 C 0.29692 0.85399 0.09426 0.0
C1311 C 0.32203 0.88008 0.09495 0.0
H1312 H 0.92681 0.92461 0.20027 0.0
H1313 H 0.76354 0.88649 0.19948 0.0
H1314 H 0.80676 0.8405 0.19896 0.0
H1315 H 0.89022 0.81145 0.19935 0.0
H1316 H 0.05376 0.84921 0.19999 0.0
H1317 H 1.01073 0.89534 0.19983 0.0
C1318 C 0.9006 0.90626 0.2 0.0
C1319 C 0.84204 0.90893 0.20002 0.0
C1320 C 0.92566 0.87995 0.19964 0.0
C1321 C 0.80871 0.88497 0.19949 0.0
C1322 C 0.83336 0.8587 0.1992 0.0
C1323 C 0.91664 0.8297 0.19943 0.0
C1324 C 0.97513 0.82687 0.19977 0.0
C1325 C 0.89173 0.856 0.19936 0.0
C1326 C 1.00862 0.8508 0.19972 0.0
C1327 C 0.98406 0.87717 0.19967 0.0
H1328 H 0.42579 0.42547 0.2021 0.0
H1329 H 0.26577 0.38437 0.20001 0.0
H1330 H 0.31294 0.33933 0.19801 0.0
H1331 H 0.39911 0.31191 0.19836 0.0
H1332 H 0.55906 0.35319 0.20062 0.0
H1333 H 0.51195 0.39831 0.20085 0.0
C1334 C 0.40109 0.4067 0.20117 0.0
C1335 C 0.34235 0.40817 0.20139 0.0
C1336 C 0.42838 0.38107 0.20004 0.0
C1337 C 0.31102 0.38372 0.19993 0.0
C1338 C 0.33796 0.35802 0.19881 0.0
C1339 C 0.42386 0.33074 0.19883 0.0
C1340 C 0.48256 0.32919 0.19965 0.0
C1341 C 0.39657 0.35648 0.19909 0.0
C1342 C 0.51387 0.35381 0.20002 0.0
C1343 C 0.48696 0.37958 0.20022 0.0
H1344 H 0.18348 0.55186 0.95438 0.0
H1345 H 1.02404 0.59408 0.95425 0.0
H1346 H 0.07177 0.63899 0.95337 0.0
H1347 H 0.15864 0.66592 0.95365 0.0
H1348 H 0.31782 0.62344 0.95364 0.0
H1349 H 0.26996 0.57863 0.95342 0.0
C1350 C 0.15903 0.57086 0.95414 0.0
C1351 C 0.10028 0.56969 0.95453 0.0
C1352 C 0.18664 0.59642 0.9536 0.0
C1353 C 0.06928 0.59447 0.95398 0.0
C1354 C 0.09654 0.6201 0.95351 0.0
C1355 C 0.18293 0.64688 0.95361 0.0
C1356 C 0.24172 0.64799 0.95383 0.0
C1357 C 0.15519 0.62129 0.95349 0.0
C1358 C 0.27256 0.62314 0.95349 0.0
C1359 C 0.24524 0.59754 0.95341 0.0
H1360 H 0.63117 0.17077 0.95221 0.0
H1361 H 0.78924 0.12855 0.95728 0.0
H1362 H 0.74048 0.08389 0.95839 0.0
H1363 H 0.65318 0.05742 0.95814 0.0
H1364 H 0.49542 0.10019 0.953 0.0
H1365 H 0.54436 0.14458 0.95201 0.0
C1366 C 0.65515 0.15192 0.95372 0.0
C1367 C 0.71376 0.15305 0.95483 0.0
C1368 C 0.62695 0.12657 0.9544 0.0
C1369 C 0.74411 0.12825 0.95642 0.0
C1370 C 0.71624 0.10278 0.95709 0.0
C1371 C 0.62928 0.0764 0.95682 0.0
C1372 C 0.57056 0.07543 0.95564 0.0
C1373 C 0.65767 0.10177 0.95614 0.0
C1374 C 0.54053 0.10029 0.95393 0.0
C1375 C 0.56849 0.12567 0.95334 0.0
H1376 H 0.16119 0.1776 0.83864 0.0
H1377 H 1.00525 0.13333 0.84273 0.0
H1378 H 0.05638 0.08936 0.84411 0.0
H1379 H 0.14457 0.06363 0.84327 0.0
H1380 H 0.30062 0.1077 0.83908 0.0
H1381 H 0.24985 0.15189 0.8388 0.0
C1382 C 0.13818 0.15839 0.83987 0.0
C1383 C 0.07925 0.15882 0.84048 0.0
C1384 C 0.16783 0.13323 0.84067 0.0
C1385 C 0.05046 0.13367 0.8422 0.0
C1386 C 0.0797 0.10851 0.84298 0.0
C1387 C 0.16776 0.08283 0.84237 0.0
C1388 C 0.22651 0.08221 0.84111 0.0
C1389 C 0.13831 0.10807 0.84211 0.0
C1390 C 0.25554 0.10746 0.84006 0.0
C1391 C 0.22647 0.13275 0.83984 0.0
H1392 H 0.66625 0.6793 0.84109 0.0
H1393 H 0.50923 0.63539 0.84295 0.0
H1394 H 0.55948 0.59118 0.84405 0.0
H1395 H 0.64751 0.56517 0.84416 0.0
H1396 H 0.80459 0.60912 0.84279 0.0
H1397 H 0.75435 0.65338 0.8419 0.0
C1398 C 0.64279 0.66014 0.8418 0.0
C1399 C 0.58387 0.66079 0.84194 0.0
C1400 C 0.67193 0.63484 0.84251 0.0
C1401 C 0.55449 0.63561 0.84285 0.0
C1402 C 0.58321 0.6103 0.84346 0.0
C1403 C 0.671 0.58437 0.84369 0.0
C1404 C 0.72993 0.58372 0.84351 0.0
C1405 C 0.64189 0.6097 0.84325 0.0
C1406 C 0.75934 0.60893 0.84296 0.0
C1407 C 0.73061 0.63425 0.84242 0.0
H1408 H 0.89304 0.92283 0.59093 0.0
H1409 H 0.05127 0.87943 0.5899 0.0
H1410 H 1.00224 0.83492 0.58948 0.0
H1411 H 0.91466 0.80856 0.5886 0.0
H1412 H 0.75665 0.85207 0.58965 0.0
H1413 H 0.80574 0.89646 0.59094 0.0
C1414 C 0.91703 0.90368 0.59065 0.0
C1415 C 0.97591 0.90455 0.59035 0.0
C1416 C 0.88862 0.87822 0.59039 0.0
C1417 C 1.00602 0.87944 0.59014 0.0
C1418 C 0.97799 0.85397 0.58985 0.0
C1419 C 0.89084 0.82772 0.58909 0.0
C1420 C 0.83196 0.82695 0.58889 0.0
C1421 C 0.91932 0.85315 0.58983 0.0
C1422 C 0.80192 0.85201 0.58976 0.0
C1423 C 0.82997 0.87742 0.59047 0.0
H1424 H 0.4021 0.30912 0.58965 0.0
H1425 H 0.24524 0.3537 0.58876 0.0
H1426 H 0.29524 0.39774 0.59105 0.0
H1427 H 0.3833 0.42349 0.59246 0.0
H1428 H 0.54014 0.37894 0.59364 0.0
H1429 H 0.48998 0.33479 0.59217 0.0
C1430 C 0.37868 0.32844 0.58996 0.0
C1431 C 0.31989 0.32808 0.58891 0.0
C1432 C 0.40766 0.35363 0.59134 0.0
C1433 C 0.2904 0.35334 0.58952 0.0
C1434 C 0.319 0.37853 0.5908 0.0
C1435 C 0.40669 0.40415 0.59244 0.0
C1436 C 0.46557 0.40458 0.59306 0.0
C1437 C 0.37761 0.37891 0.5916 0.0
C1438 C 0.49492 0.37926 0.59318 0.0
C1439 C 0.46625 0.35401 0.59229 0.0
H1440 H 0.87902 0.3047 0.70551 0.0
H1441 H 0.03764 0.34737 0.70517 0.0
H1442 H 0.98924 0.39193 0.70789 0.0
H1443 H 0.90241 0.41821 0.71029 0.0
H1444 H 0.74372 0.37567 0.70954 0.0
H1445 H 0.79222 0.33111 0.70755 0.0
C1446 C 0.90319 0.32371 0.70606 0.0
C1447 C 0.96188 0.32278 0.70519 0.0
C1448 C 0.8752 0.34908 0.70749 0.0
C1449 C 0.99244 0.3476 0.70578 0.0
C1450 C 0.96483 0.37301 0.70738 0.0
C1451 C 0.87823 0.3993 0.70966 0.0
C1452 C 0.81946 0.40036 0.70999 0.0
C1453 C 0.90627 0.37393 0.70823 0.0
C1454 C 0.78897 0.37549 0.70927 0.0
C1455 C 0.81665 0.35002 0.70811 0.0
H1456 H 0.40948 0.80962 0.70862 0.0
H1457 H 0.56752 0.851 0.70208 0.0
H1458 H 0.51943 0.89562 0.70077 0.0
H1459 H 0.43357 0.92229 0.7009 0.0
H1460 H 0.27488 0.8818 0.70749 0.0
H1461 H 0.32272 0.83683 0.70907 0.0
C1462 C 0.43357 0.82836 0.70693 0.0
C1463 C 0.49209 0.82695 0.70541 0.0
C1464 C 0.40567 0.85388 0.70607 0.0
C1465 C 0.52251 0.85147 0.70327 0.0
C1466 C 0.49506 0.87697 0.70249 0.0
C1467 C 0.40915 0.90377 0.7028 0.0
C1468 C 0.35071 0.90545 0.70418 0.0
C1469 C 0.43676 0.87831 0.70379 0.0
C1470 C 0.31991 0.88107 0.7064 0.0
C1471 C 0.34724 0.85542 0.70734 0.0
H1472 H 0.16946 0.05923 0.45295 0.0
H1473 H 1.0071 0.09844 0.45551 0.0
H1474 H 0.05117 0.14418 0.45505 0.0
H1475 H 0.13534 0.1727 0.45344 0.0
H1476 H 0.29729 0.13332 0.45014 0.0
H1477 H 0.25339 0.08763 0.45139 0.0
C1478 C 0.14356 0.07774 0.4535 0.0
C1479 C 0.08507 0.07546 0.4543 0.0
C1480 C 0.16901 0.10382 0.45306 0.0
C1481 C 0.05222 0.09966 0.45487 0.0
C1482 C 0.07736 0.12578 0.45461 0.0
C1483 C 0.16114 0.15414 0.45306 0.0
C1484 C 0.21947 0.15632 0.45172 0.0
C1485 C 0.13566 0.12805 0.45364 0.0
C1486 C 0.25226 0.13213 0.45113 0.0
C1487 C 0.22724 0.10604 0.45186 0.0
H1488 H 0.63216 0.67328 0.45362 0.0
H1489 H 0.79415 0.63336 0.45332 0.0
H1490 H 0.74925 0.58791 0.45492 0.0
H1491 H 0.66437 0.55987 0.45609 0.0
H1492 H 0.50254 0.59995 0.45581 0.0
H1493 H 0.54757 0.64538 0.45472 0.0
C1494 C 0.65787 0.6547 0.45395 0.0
C1495 C 0.71646 0.6567 0.45337 0.0
C1496 C 0.6319 0.62879 0.45473 0.0
C1497 C 0.74896 0.63237 0.45373 0.0
C1498 C 0.72335 0.60641 0.45465 0.0
C1499 C 0.63882 0.57852 0.45585 0.0
C1500 C 0.58017 0.57657 0.45605 0.0
C1501 C 0.66488 0.60444 0.45511 0.0
C1502 C 0.54776 0.60091 0.45563 0.0
C1503 C 0.57344 0.62686 0.45503 0.0
H1504 H 0.1178 0.54903 0.34427 0.0
H1505 H 0.27761 0.59053 0.34491 0.0
H1506 H 0.23038 0.63559 0.3433 0.0
H1507 H 0.14412 0.6628 0.34072 0.0
H1508 H 0.98451 0.62102 0.34013 0.0
H1509 H 0.03166 0.57627 0.34275 0.0
C1510 C 0.1425 0.56789 0.34411 0.0
C1511 C 0.2013 0.56636 0.34461 0.0
C1512 C 0.11514 0.59362 0.34315 0.0
C1513 C 0.23238 0.59108 0.34454 0.0
C1514 C 0.20538 0.61684 0.34357 0.0
C1515 C 0.11946 0.64396 0.34119 0.0
C1516 C 0.06071 0.64533 0.34012 0.0
C1517 C 0.14683 0.6183 0.3427 0.0
C1518 C 0.02966 0.62064 0.34091 0.0
C1519 C 0.05662 0.59502 0.34238 0.0
H1520 H 0.64461 0.05224 0.34031 0.0
H1521 H 0.80297 0.09492 0.34257 0.0
H1522 H 0.75425 0.13962 0.34286 0.0
H1523 H 0.66751 0.16637 0.34128 0.0
H1524 H 0.50897 0.12388 0.33888 0.0
H1525 H 0.55734 0.07907 0.33989 0.0
C1526 C 0.66862 0.07128 0.3409 0.0
C1527 C 0.7275 0.0702 0.34128 0.0
C1528 C 0.64038 0.09687 0.341 0.0
C1529 C 0.75772 0.09511 0.34224 0.0
C1530 C 0.72988 0.12068 0.34237 0.0
C1531 C 0.64329 0.14736 0.34101 0.0
C1532 C 0.58457 0.14854 0.33987 0.0
C1533 C 0.67132 0.12177 0.34156 0.0
C1534 C 0.5541 0.12362 0.33973 0.0
C1535 C 0.58177 0.098 0.34027 0.0
H1536 H 0.09999 0.5348 0.13525 0.0
H1537 H 0.09092 0.44583 0.13067 0.0
H1538 H 0.15779 0.43993 0.14987 0.0
H1539 H 0.21975 0.46025 0.168 0.0
H1540 H 0.23367 0.54934 0.1712 0.0
H1541 H 0.16452 0.55504 0.15261 0.0
C1542 C 0.11247 0.51414 0.13852 0.0
C1543 C 0.09008 0.49077 0.13166 0.0
C1544 C 0.15216 0.51094 0.14931 0.0
C1545 C 0.10738 0.46413 0.13584 0.0
C1546 C 0.14567 0.46076 0.14681 0.0
C1547 C 0.20766 0.48087 0.16457 0.0
C1548 C 0.23186 0.50433 0.17098 0.0
C1549 C 0.1685 0.48401 0.15362 0.0
C1550 C 0.21599 0.53093 0.1664 0.0
C1551 C 0.17624 0.53422 0.15579 0.0
H1552 H 0.20453 0.69645 0.12904 0.0
H1553 H 0.21447 0.78567 0.12612 0.0
H1554 H 0.15347 0.7906 0.1465 0.0
H1555 H 0.09602 0.76961 0.16511 0.0
H1556 H 0.08076 0.6805 0.16714 0.0
H1557 H 0.14467 0.67544 0.14729 0.0
C1558 C 0.19352 0.71694 0.13293 0.0
C1559 C 0.21441 0.74066 0.12614 0.0
C1560 C 0.15718 0.71964 0.14451 0.0
C1561 C 0.19909 0.76708 0.13118 0.0
C1562 C 0.16416 0.76992 0.14284 0.0
C1563 C 0.10678 0.7491 0.1612 0.0
C1564 C 0.08375 0.72547 0.16762 0.0
C1565 C 0.14278 0.74637 0.14958 0.0
C1566 C 0.09777 0.69903 0.16237 0.0
C1567 C 0.13444 0.69612 0.15102 0.0
H1568 H 0.86826 0.4505 0.88328 0.0
H1569 H 0.86517 0.5398 0.8803 0.0
H1570 H 0.92876 0.54335 0.90034 0.0
H1571 H 0.98486 0.52084 0.91902 0.0
H1572 H 0.99277 0.4314 0.92067 0.0
H1573 H 0.92801 0.42808 0.90097 0.0
C1574 C 0.88155 0.47072 0.88703 0.0
C1575 C 0.86168 0.49486 0.88039 0.0
C1576 C 0.91909 0.47256 0.89836 0.0
C1577 C 0.87982 0.52092 0.88525 0.0
C1578 C 0.91612 0.52295 0.89672 0.0
C1579 C 0.97244 0.50067 0.91501 0.0
C1580 C 0.99352 0.47639 0.92132 0.0
C1581 C 0.93596 0.49891 0.90341 0.0
C1582 C 0.97738 0.45039 0.91597 0.0
C1583 C 0.94018 0.44847 0.90472 0.0
H1584 H 0.95476 0.20936 0.87742 0.0
H1585 H 0.94889 0.29808 0.87144 0.0
H1586 H 0.88463 0.30298 0.89111 0.0
H1587 H 0.83106 0.28238 0.91042 0.0
H1588 H 0.84152 0.19424 0.91776 0.0
H1589 H 0.90274 0.18876 0.89738 0.0
C1590 C 0.93916 0.22969 0.88044 0.0
C1591 C 0.95657 0.25331 0.87297 0.0
C1592 C 0.9031 0.23249 0.89209 0.0
C1593 C 0.93642 0.27958 0.87706 0.0
C1594 C 0.89955 0.28242 0.88831 0.0
C1595 C 0.84665 0.26198 0.90753 0.0
C1596 C 0.83151 0.23874 0.91555 0.0
C1597 C 0.88281 0.25909 0.89597 0.0
C1598 C 0.85254 0.21247 0.91175 0.0
C1599 C 0.88752 0.20932 0.90008 0.0
H1600 H 0.10685 0.96122 0.62707 0.0
H1601 H 0.10632 0.04991 0.62096 0.0
H1602 H 0.17219 0.05577 0.64028 0.0
H1603 H 0.22863 0.03582 0.6594 0.0
H1604 H 0.22436 0.94748 0.66657 0.0
H1605 H 0.16214 0.94131 0.64649 0.0
C1606 C 0.12145 0.98177 0.62996 0.0
C1607 C 0.10188 0.00508 0.62259 0.0
C1608 C 0.15847 0.98506 0.64133 0.0
C1609 C 0.12066 0.03164 0.62651 0.0
C1610 C 0.1584 0.03502 0.63755 0.0
C1611 C 0.21421 0.01524 0.6565 0.0
C1612 C 0.23125 -0.00786 0.66441 0.0
C1613 C 0.17738 0.01191 0.64511 0.0
C1614 C 0.2118 0.96561 0.66064 0.0
C1615 C 0.17623 0.96205 0.64915 0.0
H1616 H 0.196 0.27579 0.62531 0.0
H1617 H 0.18932 0.18768 0.61718 0.0
H1618 H 0.12552 0.1814 0.63678 0.0
H1619 H 0.07362 0.20039 0.65679 0.0
H1620 H 0.08446 0.28774 0.66638 0.0
H1621 H 0.14433 0.29489 0.64587 0.0
C1622 C 0.18019 0.25531 0.62782 0.0
C1623 C 0.19739 0.23223 0.61978 0.0
C1624 C 0.1444 0.25167 0.63946 0.0
C1625 C 0.17702 0.20576 0.62323 0.0
C1626 C 0.14043 0.20212 0.63445 0.0
C1627 C 0.08886 0.22102 0.65435 0.0
C1628 C 0.07435 0.24351 0.66305 0.0
C1629 C 0.1242 0.22484 0.64273 0.0
C1630 C 0.09498 0.27007 0.65983 0.0
C1631 C 0.12921 0.27417 0.64809 0.0
H1632 H 0.9729 0.94494 0.41033 0.0
H1633 H 0.96405 0.03328 0.41753 0.0
H1634 H 0.90247 0.03863 0.39725 0.0
H1635 H 0.85009 0.01797 0.37738 0.0
H1636 H 0.85389 0.92914 0.37147 0.0
H1637 H 0.91828 0.92421 0.39113 0.0
C1638 C 0.95759 0.96535 0.40741 0.0
C1639 C 0.97331 0.98869 0.41535 0.0
C1640 C 0.92117 0.96819 0.39591 0.0
C1641 C 0.95261 0.01499 0.41156 0.0
C1642 C 0.91741 0.01806 0.39995 0.0
C1643 C 0.86522 -0.0024 0.38042 0.0
C1644 C 0.84734 0.97397 0.37297 0.0
C1645 C 0.90131 -0.00519 0.39203 0.0
C1646 C 0.86682 0.94765 0.37708 0.0
C1647 C 0.90376 0.94479 0.38831 0.0
H1648 H 0.9443 0.70458 0.37392 0.0
H1649 H 0.94587 0.79272 0.3661 0.0
H1650 H 0.88332 0.8006 0.38596 0.0
H1651 H 0.8288 0.78251 0.40588 0.0
H1652 H 0.83325 0.69483 0.41486 0.0
H1653 H 0.89255 0.68668 0.3944 0.0
C1654 C 0.93078 0.72547 0.37659 0.0
C1655 C 0.94955 0.74802 0.36855 0.0
C1656 C 0.89588 0.72993 0.38829 0.0
C1657 C 0.93217 0.77502 0.37217 0.0
C1658 C 0.8963 0.77955 0.38352 0.0
C1659 C 0.84267 0.76164 0.40331 0.0
C1660 C 0.82633 0.73929 0.41181 0.0
C1661 C 0.878 0.75719 0.3917 0.0
C1662 C 0.8452 0.71238 0.40846 0.0
C1663 C 0.87909 0.7077 0.39675 0.0
H1664 H 0.5806 0.45492 0.63363 0.0
H1665 H 0.5947 0.54285 0.62589 0.0
H1666 H 0.65544 0.5481 0.64619 0.0
H1667 H 0.70287 0.52825 0.66656 0.0
H1668 H 0.6851 0.44109 0.67565 0.0
H1669 H 0.6274 0.43498 0.65464 0.0
C1670 C 0.59739 0.47511 0.63639 0.0
C1671 C 0.58327 0.49845 0.62826 0.0
C1672 C 0.63129 0.47818 0.64841 0.0
C1673 C 0.60474 0.52459 0.63201 0.0
C1674 C 0.63951 0.52764 0.64363 0.0
C1675 C 0.68641 0.50791 0.66393 0.0
C1676 C 0.69834 0.48516 0.67261 0.0
C1677 C 0.65269 0.50467 0.65198 0.0
C1678 C 0.6764 0.45896 0.66913 0.0
C1679 C 0.64352 0.45545 0.6571 0.0
H1680 H 0.72195 0.77496 0.62748 0.0
H1681 H 0.7047 0.68775 0.61801 0.0
H1682 H 0.64615 0.68141 0.63863 0.0
H1683 H 0.60216 0.70007 0.65985 0.0
H1684 H 0.62361 0.78644 0.67055 0.0
H1685 H 0.67827 0.79368 0.6492 0.0
C1686 C 0.70487 0.7547 0.62993 0.0
C1687 C 0.71751 0.73187 0.62125 0.0
C1688 C 0.6724 0.75097 0.64212 0.0
C1689 C 0.69575 0.70561 0.62458 0.0
C1690 C 0.66226 0.70195 0.63637 0.0
C1691 C 0.61876 0.72048 0.65749 0.0
C1692 C 0.60881 0.74267 0.66675 0.0
C1693 C 0.65081 0.72437 0.64532 0.0
C1694 C 0.63084 0.76898 0.66359 0.0
C1695 C 0.66198 0.77315 0.65136 0.0
H1696 H 0.33048 0.5172 0.38271 0.0
H1697 H 0.32775 0.42781 0.37957 0.0
H1698 H 0.39632 0.42424 0.39838 0.0
H1699 H 0.45655 0.44627 0.41603 0.0
H1700 H 0.45516 0.53536 0.42062 0.0
H1701 H 0.3891 0.53936 0.4011 0.0
C1702 C 0.34506 0.497 0.38616 0.0
C1703 C 0.32404 0.47281 0.37973 0.0
C1704 C 0.38384 0.49504 0.39728 0.0
C1705 C 0.34299 0.44675 0.38438 0.0
C1706 C 0.38237 0.44467 0.39513 0.0
C1707 C 0.44198 0.46657 0.4127 0.0
C1708 C 0.46111 0.4905 0.41967 0.0
C1709 C 0.403 0.46863 0.40169 0.0
C1710 C 0.44117 0.51662 0.41538 0.0
C1711 C 0.40339 0.51891 0.40422 0.0
H1712 H 0.34143 0.28022 0.40586 0.0
H1713 H 0.34402 0.192 0.41344 0.0
H1714 H 0.4098 0.18538 0.39406 0.0
H1715 H 0.46728 0.20484 0.37488 0.0
H1716 H 0.46966 0.29348 0.36859 0.0
H1717 H 0.40162 0.29981 0.38743 0.0
C1718 C 0.35628 0.25955 0.40322 0.0
C1719 C 0.33746 0.23659 0.41098 0.0
C1720 C 0.39525 0.25601 0.39229 0.0
C1721 C 0.35772 0.20998 0.40759 0.0
C1722 C 0.39536 0.2062 0.3965 0.0
C1723 C 0.45291 0.22551 0.37769 0.0
C1724 C 0.47348 0.24866 0.37036 0.0
C1725 C 0.41453 0.22905 0.38878 0.0
C1726 C 0.45477 0.27535 0.37413 0.0
C1727 C 0.41568 0.27898 0.38488 0.0
H1728 H 0.71821 0.03915 0.16094 0.0
H1729 H 0.72174 0.95 0.16504 0.0
H1730 H 0.65378 0.94549 0.14601 0.0
H1731 H 0.59205 0.96701 0.12836 0.0
H1732 H 0.58344 0.05628 0.12548 0.0
H1733 H 0.65439 0.0607 0.1438 0.0
C1734 C 0.7043 0.01875 0.15758 0.0
C1735 C 0.72529 -0.00508 0.16427 0.0
C1736 C 0.66407 0.01638 0.14688 0.0
C1737 C 0.70628 0.96863 0.16 0.0
C1738 C 0.66741 0.96605 0.14913 0.0
C1739 C 0.60583 0.9874 0.13176 0.0
C1740 C 0.58269 0.01129 0.12558 0.0
C1741 C 0.64582 0.98978 0.14252 0.0
C1742 C 0.60051 0.0376 0.13013 0.0
C1743 C 0.64118 0.04013 0.14058 0.0
H1744 H 0.71067 0.19755 0.13079 0.0
H1745 H 0.70925 0.28631 0.12487 0.0
H1746 H 0.64926 0.29209 0.14539 0.0
H1747 H 0.59661 0.27194 0.16512 0.0
H1748 H 0.59252 0.18302 0.17015 0.0
H1749 H 0.65492 0.17724 0.15004 0.0
C1750 C 0.69728 0.21813 0.13404 0.0
C1751 C 0.71474 0.24148 0.12636 0.0
C1752 C 0.66163 0.22127 0.14572 0.0
C1753 C 0.6965 0.268 0.1306 0.0
C1754 C 0.66218 0.27133 0.14235 0.0
C1755 C 0.60942 0.25133 0.16178 0.0
C1756 C 0.59002 0.22795 0.16912 0.0
C1757 C 0.64442 0.24814 0.15 0.0
C1758 C 0.60664 0.20134 0.16464 0.0
C1759 C 0.64247 0.19803 0.15315 0.0
H1760 H 0.34897 0.02219 0.87759 0.0
H1761 H 0.35219 0.93377 0.87029 0.0
H1762 H 0.40944 0.9271 0.89122 0.0
H1763 H 0.45772 0.94636 0.91189 0.0
H1764 H 0.44892 0.03439 0.92012 0.0
H1765 H 0.39473 0.04129 0.8987 0.0
C1766 C 0.36245 0.00152 0.88059 0.0
C1767 C 0.34659 0.97851 0.87241 0.0
C1768 C 0.3942 -0.00224 0.89286 0.0
C1769 C 0.36378 0.95179 0.87646 0.0
C1770 C 0.39654 0.94796 0.88842 0.0
C1771 C 0.44396 0.96703 0.90895 0.0
C1772 C 0.45752 0.98984 0.91752 0.0
C1773 C 0.41183 0.97077 0.89675 0.0
C1774 C 0.43899 0.01649 0.91369 0.0
C1775 C 0.40807 0.02046 0.90143 0.0
H1776 H 0.45531 0.71251 0.87796 0.0
H1777 H 0.44793 0.80176 0.87468 0.0
H1778 H 0.3898 0.80428 0.89566 0.0
H1779 H 0.34366 0.78135 0.91549 0.0
H1780 H 0.35636 0.69247 0.91993 0.0
H1781 H 0.40967 0.68949 0.8981 0.0
C1782 C 0.44054 0.73243 0.88181 0.0
C1783 C 0.45573 0.75691 0.87477 0.0
C1784 C 0.40831 0.73379 0.89416 0.0
C1785 C 0.43688 0.78264 0.87994 0.0
C1786 C 0.40364 0.7841 0.89194 0.0
C1787 C 0.35786 0.76133 0.91162 0.0
C1788 C 0.34587 0.73716 0.91927 0.0
C1789 C 0.38953 0.75986 0.89923 0.0
C1790 C 0.36506 0.71138 0.91422 0.0
C1791 C 0.39551 0.70967 0.90173 0.0
H1792 H 0.12489 0.67284 0.09682 0.0
H1793 H 0.26294 0.65145 0.06977 0.0
H1794 H 0.23861 0.6024 0.07121 0.0
H1795 H 0.17845 0.56524 0.08041 0.0
H1796 H 0.0395 0.58699 0.10701 0.0
H1797 H 0.06439 0.63602 0.10573 0.0
C1798 C 0.14905 0.65747 0.09108 0.0
C1799 C 0.19541 0.66571 0.0832 0.0
C1800 C 0.13535 0.62926 0.09208 0.0
C1801 C 0.22693 0.64556 0.07594 0.0
C1802 C 0.21331 0.61748 0.07681 0.0
C1803 C 0.15436 0.58077 0.08606 0.0
C1804 C 0.10762 0.57275 0.09383 0.0
C1805 C 0.16802 0.60903 0.08499 0.0
C1806 C 0.07582 0.59291 0.10095 0.0
C1807 C 0.08977 0.62091 0.10018 0.0
H1808 H 0.19033 0.67194 0.20881 0.0
H1809 H 1.01912 0.64719 0.21565 0.0
H1810 H 0.04713 0.59864 0.21636 0.0
H1811 H 0.12003 0.56278 0.21429 0.0
H1812 H 0.29133 0.58795 0.20826 0.0
H1813 H 0.26339 0.63653 0.20792 0.0
C1814 C 0.15925 0.65594 0.21054 0.0
C1815 C 0.10293 0.66318 0.2121 0.0
C1816 C 0.17549 0.62802 0.211 0.0
C1817 C 0.06303 0.64222 0.21444 0.0
C1818 C 0.07883 0.61437 0.21479 0.0
C1819 C 0.151 0.57897 0.21291 0.0
C1820 C 0.20738 0.57192 0.21132 0.0
C1821 C 0.13487 0.60699 0.21293 0.0
C1822 C 0.2475 0.59297 0.20964 0.0
C1823 C 0.23168 0.62076 0.2094 0.0
H1824 H 0.93595 0.30579 0.96121 0.0
H1825 H 0.76869 0.33499 0.95263 0.0
H1826 H 0.80014 0.38293 0.95385 0.0
H1827 H 0.87514 0.41683 0.95718 0.0
H1828 H 0.04201 0.38773 0.96641 0.0
H1829 H 1.01058 0.33981 0.96519 0.0
C1830 C 0.90654 0.32267 0.95958 0.0
C1831 C 0.85025 0.31683 0.95686 0.0
C1832 C 0.92466 0.35033 0.96047 0.0
C1833 C 0.81236 0.33891 0.95486 0.0
C1834 C 0.83022 0.36639 0.95552 0.0
C1835 C 0.90452 0.40001 0.95899 0.0
C1836 C 0.96067 0.40592 0.96187 0.0
C1837 C 0.88625 0.37237 0.95833 0.0
C1838 C 0.9983 0.38385 0.96422 0.0
C1839 C 0.98053 0.35635 0.96348 0.0
H1840 H 0.80355 0.40138 0.83725 0.0
H1841 H 0.96817 0.4379 0.83552 0.0
H1842 H 1.00963 0.39178 0.8329 0.0
H1843 H 0.99946 0.34125 0.83195 0.0
H1844 H 0.83526 0.30455 0.83453 0.0
H1845 H 0.79326 0.35082 0.83589 0.0
C1846 C 0.8485 0.39935 0.83622 0.0
C1847 C 0.88267 0.42313 0.8366 0.0
C1848 C 0.87212 0.37277 0.83488 0.0
C1849 C 0.94085 0.41999 0.83531 0.0
C1850 C 0.96461 0.39361 0.8338 0.0
C1851 C 0.95441 0.3433 0.83268 0.0
C1852 C 0.92055 0.31944 0.83311 0.0
C1853 C 0.93067 0.36989 0.83369 0.0
C1854 C 0.86231 0.32255 0.83418 0.0
C1855 C 0.83827 0.349 0.83498 0.0
H1856 H 0.04773 0.08545 0.57919 0.0
H1857 H 0.21281 0.04905 0.57752 0.0
H1858 H 0.25408 0.09533 0.57627 0.0
H1859 H 0.24356 0.14582 0.57694 0.0
H1860 H 0.07885 0.18238 0.57971 0.0
H1861 H 0.03707 0.1361 0.57921 0.0
C1862 C 0.09272 0.08757 0.57837 0.0
C1863 C 0.12716 0.06381 0.57843 0.0
C1864 C 0.1162 0.11421 0.57796 0.0
C1865 C 0.18538 0.067 0.57753 0.0
C1866 C 0.20901 0.09344 0.57683 0.0
C1867 C 0.19846 0.14376 0.57731 0.0
C1868 C 0.16438 0.16755 0.57837 0.0
C1869 C 0.17484 0.11716 0.57724 0.0
C1870 C 0.10606 0.16442 0.57893 0.0
C1871 C 0.08215 0.13797 0.57864 0.0
H1872 H 0.18765 0.17005 0.70595 0.0
H1873 H 1.02374 0.14119 0.69394 0.0
H1874 H 0.05688 0.0934 0.69373 0.0
H1875 H 0.13145 0.05959 0.69746 0.0
H1876 H 0.29517 0.08798 0.70998 0.0
H1877 H 0.26292 0.13597 0.70954 0.0
C1878 C 0.15946 0.15328 0.70319 0.0
C1879 C 0.10346 0.15908 0.70004 0.0
C1880 C 0.1785 0.1257 0.70327 0.0
C1881 C 0.06708 0.1372 0.69655 0.0
C1882 C 0.0859 0.10984 0.69641 0.0
C1883 C 0.16007 0.07625 0.70011 0.0
C1884 C 0.21544 0.07018 0.70377 0.0
C1885 C 0.14135 0.10382 0.69988 0.0
C1886 C 0.25209 0.09204 0.70716 0.0
C1887 C 0.23382 0.11955 0.70688 0.0
H1888 H 0.93241 0.81068 0.4564 0.0
H1889 H 0.76382 0.83893 0.44859 0.0
H1890 H 0.79425 0.88701 0.44964 0.0
H1891 H 0.86862 0.92118 0.45241 0.0
H1892 H 0.03717 0.8932 0.46063 0.0
H1893 H 1.00662 0.8451 0.45988 0.0
C1894 C 0.90249 0.82739 0.4549 0.0
C1895 C 0.84616 0.82126 0.45242 0.0
C1896 C 0.92005 0.85512 0.45564 0.0
C1897 C 0.80757 0.84309 0.4506 0.0
C1898 C 0.82483 0.87064 0.45117 0.0
C1899 C 0.89862 0.9046 0.45411 0.0
C1900 C 0.95496 0.91086 0.45651 0.0
C1901 C 0.88095 0.8769 0.45367 0.0
C1902 C 0.99334 0.88906 0.45874 0.0
C1903 C 0.97606 0.86146 0.45828 0.0
H1904 H 0.99336 0.82554 0.32676 0.0
H1905 H 0.82641 0.79186 0.32506 0.0
H1906 H 0.78736 0.83881 0.32561 0.0
H1907 H 0.80051 0.88881 0.32782 0.0
H1908 H 0.96697 0.92279 0.33089 0.0
H1909 H 1.00657 0.87606 0.32857 0.0
C1910 C 0.94845 0.8285 0.32629 0.0
C1911 C 0.91274 0.80532 0.32579 0.0
C1912 C 0.92632 0.85547 0.32699 0.0
C1913 C 0.85466 0.80941 0.32544 0.0
C1914 C 0.83236 0.83621 0.32579 0.0
C1915 C 0.84553 0.88613 0.32788 0.0
C1916 C 0.88078 0.90927 0.3295 0.0
C1917 C 0.8678 0.85931 0.32677 0.0
C1918 C 0.93894 0.90531 0.32968 0.0
C1919 C 0.96157 0.87862 0.32834 0.0
H1920 H 0.54901 0.58775 0.5848 0.0
H1921 H 0.71049 0.54807 0.58836 0.0
H1922 H 0.75642 0.59301 0.58587 0.0
H1923 H 0.75063 0.64367 0.58321 0.0
H1924 H 0.58894 0.68328 0.58044 0.0
H1925 H 0.54321 0.63816 0.58202 0.0
C1926 C 0.59427 0.58887 0.58498 0.0
C1927 C 0.62621 0.56457 0.58674 0.0
C1928 C 0.62039 0.61475 0.58367 0.0
C1929 C 0.68483 0.56645 0.58705 0.0
C1930 C 0.71117 0.59214 0.5856 0.0
C1931 C 0.70541 0.64239 0.5828 0.0
C1932 C 0.67323 0.66676 0.58166 0.0
C1933 C 0.67935 0.61642 0.58394 0.0
C1934 C 0.61466 0.66483 0.58134 0.0
C1935 C 0.58846 0.63904 0.58225 0.0
H1936 H 0.75126 0.58241 0.71353 0.0
H1937 H 0.58435 0.54835 0.71405 0.0
H1938 H 0.54515 0.59521 0.71313 0.0
H1939 H 0.5584 0.64531 0.71121 0.0
H1940 H 0.72535 0.67928 0.70991 0.0
H1941 H 0.76451 0.6326 0.71212 0.0
C1942 C 0.70626 0.58515 0.71357 0.0
C1943 C 0.67076 0.56189 0.71385 0.0
C1944 C 0.68409 0.61203 0.71282 0.0
C1945 C 0.6126 0.56589 0.71381 0.0
C1946 C 0.59017 0.59266 0.71327 0.0
C1947 C 0.6034 0.64262 0.71148 0.0
C1948 C 0.6389 0.66578 0.71036 0.0
C1949 C 0.62557 0.61581 0.71261 0.0
C1950 C 0.69707 0.66181 0.71069 0.0
C1951 C 0.71949 0.63515 0.71197 0.0
H1952 H 0.37247 0.42097 0.44669 0.0
H1953 H 0.51429 0.39628 0.47172 0.0
H1954 H 0.48752 0.3477 0.46959 0.0
H1955 H 0.42419 0.31208 0.46049 0.0
H1956 H 0.28139 0.33671 0.43589 0.0
H1957 H 0.30866 0.38538 0.43776 0.0
C1958 C 0.39696 0.40496 0.45182 0.0
C1959 C 0.44504 0.41208 0.45933 0.0
C1960 C 0.38177 0.37703 0.45044 0.0
C1961 C 0.477 0.3912 0.46582 0.0
C1962 C 0.46196 0.36341 0.46457 0.0
C1963 C 0.39966 0.32814 0.4554 0.0
C1964 C 0.35123 0.32106 0.44805 0.0
C1965 C 0.41478 0.35606 0.45679 0.0
C1966 C 0.31898 0.3419 0.44164 0.0
C1967 C 0.33432 0.36968 0.44275 0.0
H1968 H 0.36564 0.30174 0.34004 0.0
H1969 H 0.51619 0.32755 0.31889 0.0
H1970 H 0.48749 0.37603 0.32086 0.0
H1971 H 0.4198 0.41151 0.32895 0.0
H1972 H 0.26852 0.38494 0.3494 0.0
H1973 H 0.29775 0.33656 0.34753 0.0
C1974 C 0.39198 0.31789 0.33573 0.0
C1975 C 0.44292 0.31092 0.32935 0.0
C1976 C 0.37546 0.34575 0.33693 0.0
C1977 C 0.4766 0.33224 0.32387 0.0
C1978 C 0.46043 0.36006 0.32504 0.0
C1979 C 0.39371 0.39506 0.33307 0.0
C1980 C 0.3423 0.40165 0.3393 0.0
C1981 C 0.41017 0.36711 0.33168 0.0
C1982 C 0.30828 0.38025 0.34448 0.0
C1983 C 0.32484 0.35259 0.34341 0.0
H1984 H 0.67798 0.06548 0.08441 0.0
H1985 H 0.50677 0.09184 0.07874 0.0
H1986 H 0.5359 0.14019 0.07832 0.0
H1987 H 0.60964 0.17543 0.08077 0.0
H1988 H 0.78073 0.14849 0.08597 0.0
H1989 H 0.7518 0.10025 0.08536 0.0
C1990 C 0.64708 0.08176 0.08296 0.0
C1991 C 0.59041 0.07499 0.08173 0.0
C1992 C 0.66394 0.1096 0.08274 0.0
C1993 C 0.55089 0.09639 0.07975 0.0
C1994 C 0.56737 0.12414 0.07956 0.0
C1995 C 0.64045 0.15897 0.08173 0.0
C1996 C 0.69702 0.1656 0.08345 0.0
C1997 C 0.62371 0.13104 0.08127 0.0
C1998 C 0.73673 0.14404 0.08456 0.0
C1999 C 0.72035 0.11635 0.08426 0.0
H2000 H 0.69065 0.17403 0.19878 0.0
H2001 H 0.55404 0.15438 0.22652 0.0
H2002 H 0.57856 0.1052 0.22542 0.0
H2003 H 0.63837 0.06748 0.21622 0.0
H2004 H 0.77594 0.08793 0.18906 0.0
H2005 H 0.7508 0.13703 0.19005 0.0
C2006 C 0.66669 0.15908 0.20474 0.0
C2007 C 0.62072 0.16784 0.2127 0.0
C2008 C 0.68052 0.13088 0.20396 0.0
C2009 C 0.58975 0.14814 0.22028 0.0
C2010 C 0.60346 0.11998 0.21961 0.0
C2011 C 0.6621 0.08277 0.21041 0.0
C2012 C 0.70847 0.07441 0.20253 0.0
C2013 C 0.64835 0.11107 0.21133 0.0
C2014 C 0.73991 0.09418 0.19519 0.0
C2015 C 0.72581 0.12218 0.1958 0.0
H2016 H 0.31131 0.83045 0.96253 0.0
H2017 H 0.47802 0.79616 0.96002 0.0
H2018 H 0.51698 0.84307 0.95961 0.0
H2019 H 0.50336 0.89342 0.95935 0.0
H2020 H 0.33642 0.92771 0.96093 0.0
H2021 H 0.2977 0.88084 0.96232 0.0
C2022 C 0.35625 0.83317 0.96201 0.0
C2023 C 0.3918 0.80985 0.96137 0.0
C2024 C 0.37817 0.86009 0.96155 0.0
C2025 C 0.44981 0.81377 0.96052 0.0
C2026 C 0.47206 0.84056 0.96028 0.0
C2027 C 0.45847 0.89074 0.96009 0.0
C2028 C 0.4228 0.91405 0.96008 0.0
C2029 C 0.43658 0.86382 0.9607 0.0
C2030 C 0.36476 0.91012 0.96089 0.0
C2031 C 0.34263 0.88335 0.9617 0.0
H2032 H 0.50408 0.84179 0.82956 0.0
H2033 H 0.34115 0.80342 0.82894 0.0
H2034 H 0.29703 0.84911 0.82731 0.0
H2035 H 0.30453 0.90012 0.82771 0.0
H2036 H 0.46761 0.93812 0.82954 0.0
H2037 H 0.51174 0.89239 0.82895 0.0
C2038 C 0.45892 0.84332 0.8289 0.0
C2039 C 0.42605 0.81916 0.82942 0.0
C2040 C 0.43378 0.86965 0.82825 0.0
C2041 C 0.36755 0.82166 0.82864 0.0
C2042 C 0.34223 0.8478 0.82771 0.0
C2043 C 0.34973 0.89838 0.82778 0.0
C2044 C 0.38271 0.92247 0.8287 0.0
C2045 C 0.3749 0.87196 0.82775 0.0
C2046 C 0.44123 0.91989 0.82892 0.0
C2047 C 0.46654 0.89375 0.82859 0.0
H2048 H 0.62823 0.51217 0.07635 0.0
H2049 H 0.66039 0.45969 0.11203 0.0
H2050 H 0.56099 0.44951 0.11394 0.0
H2051 H 0.46444 0.45683 0.10613 0.0
H2052 H 0.43142 0.50995 0.07079 0.0
H2053 H 0.53138 0.51924 0.06842 0.0
C2054 C 0.61357 0.49863 0.0846 0.0
C2055 C 0.65216 0.48671 0.09401 0.0
C2056 C 0.556 0.49322 0.08582 0.0
C2057 C 0.63212 0.46883 0.10448 0.0
C2058 C 0.57507 0.46318 0.10567 0.0
C2059 C 0.47908 0.47023 0.09781 0.0
C2060 C 0.4403 0.48265 0.08865 0.0
C2061 C 0.53661 0.47539 0.09647 0.0
C2062 C 0.46013 0.50036 0.0781 0.0
C2063 C 0.51737 0.50554 0.07667 0.0
H2064 H 0.67681 0.70717 0.08797 0.0
H2065 H 0.63853 0.79399 0.09439 0.0
H2066 H 0.73807 0.80503 0.09407 0.0
H2067 H 0.83601 0.79001 0.0923 0.0
H2068 H 0.87429 0.70317 0.08602 0.0
H2069 H 0.77471 0.6921 0.0864 0.0
C2070 C 0.69015 0.72848 0.08948 0.0
C2071 C 0.64999 0.74969 0.09122 0.0
C2072 C 0.74752 0.73467 0.08941 0.0
C2073 C 0.66829 0.77726 0.09286 0.0
C2074 C 0.72529 0.78359 0.09277 0.0
C2075 C 0.82261 0.76868 0.09088 0.0
C2076 C 0.86273 0.74747 0.0891 0.0
C2077 C 0.76526 0.76247 0.09103 0.0
C2078 C 0.84448 0.71988 0.08755 0.0
C2079 C 0.78749 0.71354 0.08769 0.0
H2080 H 0.62575 0.73815 0.22476 0.0
H2081 H 0.66203 0.76964 0.18352 0.0
H2082 H 0.56302 0.77909 0.17973 0.0
H2083 H 0.46565 0.77573 0.18748 0.0
H2084 H 0.42878 0.7437 0.22857 0.0
H2085 H 0.52837 0.73637 0.23286 0.0
C2086 C 0.61201 0.74703 0.21493 0.0
C2087 C 0.65144 0.7531 0.20444 0.0
C2088 C 0.55481 0.75196 0.2127 0.0
C2089 C 0.63287 0.76507 0.19186 0.0
C2090 C 0.57612 0.77025 0.18962 0.0
C2091 C 0.47936 0.76754 0.19747 0.0
C2092 C 0.43964 0.76021 0.20766 0.0
C2093 C 0.53667 0.76347 0.19989 0.0
C2094 C 0.45829 0.74915 0.22045 0.0
C2095 C 0.51529 0.74511 0.22295 0.0
H2096 H 0.84865 0.47016 0.18936 0.0
H2097 H 0.88146 0.49229 0.23237 0.0
H2098 H 0.78163 0.49961 0.23633 0.0
H2099 H 0.68497 0.4994 0.22765 0.0
H2100 H 0.65244 0.47769 0.18456 0.0
H2101 H 0.752 0.46958 0.18074 0.0
C2102 C 0.83397 0.47633 0.19965 0.0
C2103 C 0.87266 0.48068 0.21055 0.0
C2104 C 0.77646 0.48031 0.20189 0.0
C2105 C 0.85282 0.48915 0.22374 0.0
C2106 C 0.79565 0.49315 0.22604 0.0
C2107 C 0.69963 0.49306 0.21739 0.0
C2108 C 0.66104 0.48918 0.20642 0.0
C2109 C 0.75711 0.48882 0.21519 0.0
C2110 C 0.68089 0.48047 0.19326 0.0
C2111 C 0.73796 0.47605 0.19102 0.0
H2112 H 0.60574 0.50336 0.93938 0.0
H2113 H 0.63846 0.48724 0.98301 0.0
H2114 H 0.53882 0.48012 0.98712 0.0
H2115 H 0.44217 0.479 0.97842 0.0
H2116 H 0.40951 0.49503 0.93477 0.0
H2117 H 0.50903 0.50258 0.93071 0.0
C2118 C 0.59111 0.49852 0.94982 0.0
C2119 C 0.62983 0.4958 0.96085 0.0
C2120 C 0.53359 0.49471 0.95215 0.0
C2121 C 0.60993 0.48906 0.97426 0.0
C2122 C 0.55281 0.48519 0.97665 0.0
C2123 C 0.45678 0.48397 0.96799 0.0
C2124 C 0.41812 0.48643 0.95693 0.0
C2125 C 0.51426 0.48796 0.96568 0.0
C2126 C 0.43798 0.49338 0.94354 0.0
C2127 C 0.49504 0.49747 0.94117 0.0
H2128 H 0.36725 0.26511 0.96884 0.0
H2129 H 0.40962 0.19094 0.94565 0.0
H2130 H 0.31089 0.17835 0.94434 0.0
H2131 H 0.21218 0.19013 0.9483 0.0
H2132 H 0.16993 0.26403 0.9718 0.0
H2133 H 0.2688 0.27528 0.97415 0.0
C2134 C 0.35486 0.24616 0.96352 0.0
C2135 C 0.39582 0.22909 0.95729 0.0
C2136 C 0.29796 0.23917 0.96269 0.0
C2137 C 0.37911 0.20436 0.95064 0.0
C2138 C 0.32257 0.19725 0.94979 0.0
C2139 C 0.22446 0.20845 0.95416 0.0
C2140 C 0.18327 0.2263 0.95974 0.0
C2141 C 0.28157 0.21471 0.95559 0.0
C2142 C 0.2004 0.25016 0.96713 0.0
C2143 C 0.25706 0.25655 0.96857 0.0
H2144 H 0.57315 0.19415 0.83512 0.0
H2145 H 0.61618 0.28111 0.83732 0.0
H2146 H 0.51742 0.29365 0.83615 0.0
H2147 H 0.41848 0.28008 0.83507 0.0
H2148 H 0.3752 0.19315 0.83297 0.0
H2149 H 0.47407 0.18056 0.83397 0.0
C2150 C 0.56104 0.21586 0.83547 0.0
C2151 C 0.60256 0.2366 0.8363 0.0
C2152 C 0.50388 0.22298 0.83493 0.0
C2153 C 0.58561 0.26464 0.83648 0.0
C2154 C 0.52894 0.27186 0.83592 0.0
C2155 C 0.43055 0.25836 0.83468 0.0
C2156 C 0.38899 0.23764 0.83394 0.0
C2157 C 0.48768 0.25122 0.83516 0.0
C2158 C 0.40587 0.2096 0.83372 0.0
C2159 C 0.46257 0.20236 0.8342 0.0
H2160 H 0.23436 0.55065 0.83563 0.0
H2161 H 0.19004 0.46598 0.84532 0.0
H2162 H 0.2885 0.45282 0.8453 0.0
H2163 H 0.38746 0.46561 0.84368 0.0
H2164 H 0.43248 0.55023 0.83412 0.0
H2165 H 0.33374 0.56319 0.83331 0.0
C2166 C 0.2462 0.52933 0.83778 0.0
C2167 C 0.20449 0.50938 0.84045 0.0
C2168 C 0.30318 0.5219 0.83793 0.0
C2169 C 0.22087 0.48175 0.84302 0.0
C2170 C 0.27734 0.47421 0.84313 0.0
C2171 C 0.37582 0.48682 0.84121 0.0
C2172 C 0.4177 0.50688 0.83899 0.0
C2173 C 0.31888 0.49414 0.8407 0.0
C2174 C 0.40142 0.53438 0.83606 0.0
C2175 C 0.34485 0.5418 0.83552 0.0
H2176 H 0.45794 0.98576 0.5723 0.0
H2177 H 0.46745 0.9363 0.60982 0.0
H2178 H 0.56893 0.94035 0.60984 0.0
H2179 H 0.65495 0.9593 0.59981 0.0
H2180 H 0.64643 0.0092 0.56246 0.0
H2181 H 0.54516 0.00286 0.56154 0.0
C2182 C 0.48226 0.97557 0.58038 0.0
C2183 C 0.45479 0.96105 0.59115 0.0
C2184 C 0.54097 0.97796 0.58034 0.0
C2185 C 0.48718 0.94812 0.60157 0.0
C2186 C 0.54536 0.95027 0.60155 0.0
C2187 C 0.63098 0.96884 0.59147 0.0
C2188 C 0.65844 0.98486 0.58128 0.0
C2189 C 0.57265 0.96546 0.59112 0.0
C2190 C 0.62666 -0.00343 0.57039 0.0
C2191 C 0.56858 -0.00686 0.56992 0.0
H2192 H 0.66185 0.20683 0.5797 0.0
H2193 H 0.6176 0.29331 0.58474 0.0
H2194 H 0.71639 0.30559 0.58613 0.0
H2195 H 0.81558 0.29198 0.58556 0.0
H2196 H 0.8597 0.20551 0.58046 0.0
H2197 H 0.76093 0.19327 0.57899 0.0
C2198 C 0.67367 0.22843 0.58094 0.0
C2199 C 0.6319 0.24907 0.58211 0.0
C2200 C 0.73073 0.23543 0.58161 0.0
C2201 C 0.64847 0.27687 0.584 0.0
C2202 C 0.7051 0.28397 0.5847 0.0
C2203 C 0.8037 0.2704 0.58425 0.0
C2204 C 0.84543 0.24974 0.58313 0.0
C2205 C 0.74662 0.26343 0.58352 0.0
C2206 C 0.82885 0.22196 0.58117 0.0
C2207 C 0.77223 0.21489 0.58043 0.0
H2208 H 0.61749 0.20243 0.70057 0.0
H2209 H 0.65606 0.28804 0.71 0.0
H2210 H 0.55652 0.29944 0.71005 0.0
H2211 H 0.45848 0.28515 0.70741 0.0
H2212 H 0.42012 0.19955 0.69792 0.0
H2213 H 0.51953 0.18798 0.69837 0.0
C2214 C 0.60422 0.22353 0.70282 0.0
C2215 C 0.6445 0.24432 0.70528 0.0
C2216 C 0.54684 0.22993 0.70292 0.0
C2217 C 0.62624 0.27166 0.7079 0.0
C2218 C 0.56923 0.27818 0.70802 0.0
C2219 C 0.47181 0.26398 0.70535 0.0
C2220 C 0.43163 0.24329 0.7026 0.0
C2221 C 0.52917 0.25751 0.70548 0.0
C2222 C 0.44986 0.21587 0.70022 0.0
C2223 C 0.50681 0.20926 0.70037 0.0
H2224 H 0.85535 0.94143 0.69908 0.0
H2225 H 0.89613 0.01892 0.71952 0.0
H2226 H 0.79714 0.03083 0.72085 0.0
H2227 H 0.69883 0.01982 0.71583 0.0
H2228 H 0.65786 0.94225 0.69557 0.0
H2229 H 0.75669 0.92948 0.69503 0.0
C2230 C 0.84272 0.96076 0.70402 0.0
C2231 C 0.88368 0.97929 0.70909 0.0
C2232 C 0.78543 0.96744 0.70487 0.0
C2233 C 0.86599 0.00442 0.71527 0.0
C2234 C 0.8092 0.0112 0.71613 0.0
C2235 C 0.71146 0.00013 0.71126 0.0
C2236 C 0.67066 0.98211 0.70571 0.0
C2237 C 0.76857 -0.007 0.71085 0.0
C2238 C 0.68801 0.95645 0.70007 0.0
C2239 C 0.7447 0.9492 0.69965 0.0
H2240 H 0.61052 0.99053 0.46862 0.0
H2241 H 0.60309 0.05139 0.43561 0.0
H2242 H 0.50132 0.04927 0.43571 0.0
H2243 H 0.41474 0.0282 0.44414 0.0
H2244 H 0.42123 0.96661 0.47678 0.0
H2245 H 0.52273 0.97166 0.4782 0.0
C2246 C 0.58657 0.00363 0.46161 0.0
C2247 C 0.61446 0.02079 0.45199 0.0
C2248 C 0.52784 0.00225 0.46168 0.0
C2249 C 0.58275 0.03755 0.44291 0.0
C2250 C 0.52452 0.03647 0.44301 0.0
C2251 C 0.43835 0.01592 0.45158 0.0
C2252 C 0.41045 -0.00311 0.46024 0.0
C2253 C 0.49669 0.01851 0.45215 0.0
C2254 C 0.44156 0.98156 0.47005 0.0
C2255 C 0.49969 0.98425 0.47078 0.0
H2256 H 0.36567 0.77405 0.4509 0.0
H2257 H 0.40457 0.69022 0.46361 0.0
H2258 H 0.30503 0.67884 0.46379 0.0
H2259 H 0.207 0.69249 0.4598 0.0
H2260 H 0.16914 0.77637 0.44696 0.0
H2261 H 0.26815 0.78813 0.44782 0.0
C2262 C 0.35246 0.7534 0.45396 0.0
C2263 C 0.3927 0.73304 0.45724 0.0
C2264 C 0.29526 0.74703 0.45407 0.0
C2265 C 0.37463 0.70623 0.46088 0.0
C2266 C 0.31768 0.69973 0.46104 0.0
C2267 C 0.22044 0.71333 0.45717 0.0
C2268 C 0.18057 0.7335 0.45332 0.0
C2269 C 0.27765 0.7199 0.45752 0.0
C2270 C 0.1987 0.76052 0.45014 0.0
C2271 C 0.25542 0.76723 0.45052 0.0
H2272 H 0.4065 0.76146 0.32755 0.0
H2273 H 0.36275 0.67514 0.33268 0.0
H2274 H 0.46143 0.66311 0.3354 0.0
H2275 H 0.56051 0.67704 0.33618 0.0
H2276 H 0.60352 0.76346 0.33103 0.0
H2277 H 0.50508 0.77527 0.32806 0.0
C2278 C 0.41845 0.73993 0.32908 0.0
C2279 C 0.37691 0.71927 0.32988 0.0
C2280 C 0.47536 0.73311 0.33055 0.0
C2281 C 0.39351 0.69158 0.33218 0.0
C2282 C 0.45007 0.68463 0.33366 0.0
C2283 C 0.54838 0.69849 0.33449 0.0
C2284 C 0.58974 0.71928 0.33379 0.0
C2285 C 0.49139 0.70523 0.3329 0.0
C2286 C 0.57298 0.74691 0.3314 0.0
C2287 C 0.51652 0.75375 0.3298 0.0
H2288 H 0.23037 0.03074 0.34369 0.0
H2289 H 0.18836 0.9507 0.32615 0.0
H2290 H 0.28738 0.93887 0.32452 0.0
H2291 H 0.38601 0.95129 0.32781 0.0
H2292 H 0.42829 0.03134 0.34527 0.0
H2293 H 0.32922 0.04338 0.34675 0.0
C2294 C 0.24277 0.01081 0.33936 0.0
C2295 C 0.20158 -0.00835 0.33508 0.0
C2296 C 0.29997 0.00418 0.33833 0.0
C2297 C 0.21881 0.96574 0.32973 0.0
C2298 C 0.27556 0.959 0.3287 0.0
C2299 C 0.37365 0.9713 0.33206 0.0
C2300 C 0.41486 0.99032 0.33646 0.0
C2301 C 0.3165 0.97803 0.33299 0.0
C2302 C 0.39776 0.01637 0.34167 0.0
C2303 C 0.34099 0.02322 0.34261 0.0
H2304 H 0.12437 0.52644 0.58948 0.0
H2305 H 0.16913 0.43951 0.58834 0.0
H2306 H 0.07054 0.42682 0.58961 0.0
H2307 H 0.97121 0.44026 0.59077 0.0
H2308 H 0.92665 0.52721 0.59192 0.0
H2309 H 1.02516 0.53987 0.59047 0.0
C2310 C 0.1127 0.50469 0.58935 0.0
C2311 C 0.15465 0.48402 0.58883 0.0
C2312 C 0.05567 0.49747 0.58998 0.0
C2313 C 0.13822 0.45595 0.58894 0.0
C2314 C 0.08164 0.44863 0.58957 0.0
C2315 C 0.98293 0.462 0.59082 0.0
C2316 C 0.94102 0.48269 0.59145 0.0
C2317 C 0.03996 0.46921 0.59012 0.0
C2318 C 0.95749 0.51076 0.59125 0.0
C2319 C 1.01403 0.51805 0.59053 0.0
H2320 H 0.33345 0.77833 0.57138 0.0
H2321 H 0.36307 0.72064 0.60507 0.0
H2322 H 0.26355 0.70989 0.60598 0.0
H2323 H 0.16762 0.71726 0.5975 0.0
H2324 H 0.1379 0.77484 0.56376 0.0
H2325 H 0.23736 0.7858 0.56294 0.0
C2326 C 0.31819 0.76355 0.579 0.0
C2327 C 0.35619 0.75027 0.5881 0.0
C2328 C 0.26058 0.7576 0.57957 0.0
C2329 C 0.33531 0.73088 0.59776 0.0
C2330 C 0.27818 0.72486 0.59837 0.0
C2331 C 0.18282 0.73206 0.58988 0.0
C2332 C 0.14483 0.74519 0.58072 0.0
C2333 C 0.24039 0.73808 0.58934 0.0
C2334 C 0.16565 0.76468 0.5711 0.0
C2335 C 0.22276 0.77082 0.57053 0.0
H2336 H 0.99127 0.79396 0.71378 0.0
H2337 H 0.94985 0.70973 0.70217 0.0
H2338 H 0.04854 0.69704 0.70262 0.0
H2339 H 0.14682 0.71019 0.70518 0.0
H2340 H 0.18919 0.7943 0.71676 0.0
H2341 H 0.09012 0.80679 0.71711 0.0
C2342 C 1.00384 0.77284 0.71132 0.0
C2343 C 0.96295 0.75285 0.70797 0.0
C2344 C 0.06093 0.76568 0.71145 0.0
C2345 C 0.98012 0.72548 0.70499 0.0
C2346 C 0.03668 0.71823 0.70513 0.0
C2347 C 0.13451 0.73116 0.70801 0.0
C2348 C 0.17569 0.75124 0.71094 0.0
C2349 C 0.07746 0.73818 0.70825 0.0
C2350 C 0.15863 0.77846 0.71429 0.0
C2351 C 0.10189 0.7856 0.71456 0.0
H2352 H 0.15908 0.4981 0.72855 0.0
H2353 H 0.12394 0.44944 0.69155 0.0
H2354 H 0.22239 0.43722 0.68953 0.0
H2355 H 0.31913 0.44185 0.69757 0.0
H2356 H 0.35577 0.49285 0.73363 0.0
H2357 H 0.25626 0.50252 0.73669 0.0
C2358 C 0.1729 0.48494 0.71999 0.0
C2359 C 0.13371 0.47476 0.71024 0.0
C2360 C 0.23003 0.47841 0.71869 0.0
C2361 C 0.15262 0.45728 0.69938 0.0
C2362 C 0.20917 0.45045 0.69812 0.0
C2363 C 0.30552 0.45527 0.70605 0.0
C2364 C 0.34519 0.46671 0.71529 0.0
C2365 C 0.24831 0.46115 0.70761 0.0
C2366 C 0.32635 0.48351 0.72642 0.0
C2367 C 0.26938 0.48922 0.72813 0.0
H2368 H 0.92704 0.45402 0.4586 0.0
H2369 H 0.88902 0.54067 0.45182 0.0
H2370 H 0.98855 0.55179 0.45258 0.0
H2371 H 0.08641 0.53677 0.45464 0.0
H2372 H 0.1243 0.45009 0.46134 0.0
H2373 H 1.02476 0.43904 0.46071 0.0
C2374 C 0.94048 0.47532 0.45713 0.0
C2375 C 0.90045 0.49645 0.4551 0.0
C2376 C 0.99778 0.48153 0.45746 0.0
C2377 C 0.91874 0.52401 0.45354 0.0
C2378 C 0.97571 0.53037 0.45389 0.0
C2379 C 0.07292 0.51549 0.45611 0.0
C2380 C 0.11292 0.49431 0.45805 0.0
C2381 C 1.01558 0.50929 0.45582 0.0
C2382 C 0.09458 0.46677 0.45967 0.0
C2383 C 0.03762 0.46045 0.4594 0.0
H2384 H 0.88932 0.20641 0.45704 0.0
H2385 H 0.88151 0.29549 0.45222 0.0
H2386 H 0.77978 0.29398 0.45305 0.0
H2387 H 0.69266 0.26733 0.45437 0.0
H2388 H 0.70009 0.17808 0.45827 0.0
H2389 H 0.80197 0.17976 0.45863 0.0
C2390 C 0.86536 0.22548 0.45613 0.0
C2391 C 0.89321 0.25101 0.45461 0.0
C2392 C 0.80664 0.22447 0.45645 0.0
C2393 C 0.86138 0.27556 0.45363 0.0
C2394 C 0.80307 0.27472 0.45399 0.0
C2395 C 0.71655 0.24823 0.45524 0.0
C2396 C 0.6886 0.22264 0.4563 0.0
C2397 C 0.77524 0.24928 0.45528 0.0
C2398 C 0.72035 0.19813 0.45764 0.0
C2399 C 0.77872 0.19903 0.45774 0.0
H2400 H 0.08544 0.18105 0.33774 0.0
H2401 H 0.12766 0.26784 0.33382 0.0
H2402 H 0.02911 0.27959 0.33102 0.0
H2403 H 0.93075 0.26558 0.33025 0.0
H2404 H 0.88768 0.17892 0.33412 0.0
H2405 H 0.98647 0.16695 0.33676 0.0
C2406 C 0.07309 0.20256 0.33636 0.0
C2407 C 0.11423 0.22348 0.33595 0.0
C2408 C 1.01606 0.20927 0.33486 0.0
C2409 C 0.09725 0.25121 0.33396 0.0
C2410 C 0.04075 0.25801 0.33246 0.0
C2411 C 0.94288 0.24401 0.3315 0.0
C2412 C 0.90155 0.22321 0.33195 0.0
C2413 C 0.9998 0.23723 0.33291 0.0
C2414 C 0.91832 0.19544 0.33389 0.0
C2415 C 0.97492 0.18854 0.33531 0.0
H2416 H 0.85745 0.4439 0.33971 0.0
H2417 H 0.8964 0.53084 0.34493 0.0
H2418 H 0.79681 0.54224 0.34475 0.0
H2419 H 0.69861 0.52734 0.34394 0.0
H2420 H 0.66005 0.44031 0.33884 0.0
H2421 H 0.7596 0.42909 0.33858 0.0
C2422 C 0.84424 0.46534 0.34094 0.0
C2423 C 0.88454 0.48645 0.3424 0.0
C2424 C 0.78693 0.47172 0.34098 0.0
C2425 C 0.86647 0.51418 0.34366 0.0
C2426 C 0.80946 0.52071 0.34365 0.0
C2427 C 0.71192 0.50594 0.34261 0.0
C2428 C 0.6717 0.4847 0.34143 0.0
C2429 C 0.76932 0.49963 0.34239 0.0
C2430 C 0.68991 0.45704 0.33996 0.0
C2431 C 0.74689 0.45062 0.33972 0.0
H2432 H 0.95585 0.94973 0.09648 0.0
H2433 H 0.91628 0.01574 0.06762 0.0
H2434 H 1.0156 0.0255 0.06466 0.0
H2435 H 0.11343 0.01669 0.07107 0.0
H2436 H 0.15284 0.95076 0.09995 0.0
H2437 H 0.05393 0.93887 0.10165 0.0
C2438 C 0.96885 0.96591 0.08933 0.0
C2439 C 0.92841 0.98211 0.08238 0.0
C2440 C 1.02608 0.97135 0.08762 0.0
C2441 C 0.9463 0.00327 0.07332 0.0
C2442 C 1.00315 0.00877 0.07154 0.0
C2443 C 0.10036 -0.00032 0.07771 0.0
C2444 C 0.14049 0.98477 0.08544 0.0
C2445 C 0.04334 -0.00678 0.07881 0.0
C2446 C 0.12296 0.96244 0.0938 0.0
C2447 C 0.06632 0.95578 0.09487 0.0
H2448 H 0.15734 0.27667 0.10154 0.0
H2449 H 0.16148 0.22678 0.06399 0.0
H2450 H 0.26282 0.2326 0.06253 0.0
H2451 H 0.35125 0.24877 0.07305 0.0
H2452 H 0.3461 0.2981 0.11082 0.0
H2453 H 0.24445 0.29515 0.11119 0.0
C2454 C 0.18041 0.26709 0.09302 0.0
C2455 C 0.15189 0.25113 0.08296 0.0
C2456 C 0.23866 0.27013 0.09238 0.0
C2457 C 0.18229 0.23933 0.07183 0.0
C2458 C 0.24033 0.24247 0.07105 0.0
C2459 C 0.32781 0.25919 0.08124 0.0
C2460 C 0.3564 0.2733 0.09199 0.0
C2461 C 0.26911 0.2574 0.08141 0.0
C2462 C 0.32531 0.28659 0.10258 0.0
C2463 C 0.26711 0.28506 0.10276 0.0
H2464 H 0.97949 0.29681 0.20206 0.0
H2465 H 0.93796 0.21004 0.20645 0.0
H2466 H 0.03658 0.19855 0.20936 0.0
H2467 H 0.13478 0.21275 0.21 0.0
H2468 H 0.17723 0.2994 0.20566 0.0
H2469 H 0.07833 0.31115 0.20301 0.0
C2470 C 0.99202 0.27536 0.20357 0.0
C2471 C 0.95109 0.25436 0.20407 0.0
C2472 C 0.04908 0.26881 0.20513 0.0
C2473 C 0.96825 0.22672 0.20624 0.0
C2474 C 1.02477 0.22007 0.2078 0.0
C2475 C 0.12249 0.23428 0.20865 0.0
C2476 C 0.16364 0.25513 0.20807 0.0
C2477 C 0.06554 0.24092 0.20723 0.0
C2478 C 0.14669 0.28284 0.20601 0.0
C2479 C 0.09004 0.28961 0.20457 0.0
H2480 H 0.35012 0.94899 0.20069 0.0
H2481 H 0.38672 0.0344 0.21108 0.0
H2482 H 0.28698 0.04522 0.21132 0.0
H2483 H 0.18958 0.0306 0.20837 0.0
H2484 H 0.15273 0.94531 0.19788 0.0
H2485 H 0.25241 0.93408 0.19836 0.0
C2486 C 0.33632 0.9699 0.2032 0.0
C2487 C 0.37602 -0.00914 0.20584 0.0
C2488 C 0.27886 0.97597 0.20338 0.0
C2489 C 0.35724 0.01794 0.20882 0.0
C2490 C 0.30016 0.02412 0.20904 0.0
C2491 C 0.20332 0.00958 0.2061 0.0
C2492 C 0.16366 0.98887 0.203 0.0
C2493 C 0.26066 0.00335 0.20624 0.0
C2494 C 0.18223 0.9616 0.20039 0.0
C2495 C 0.23927 0.95521 0.20058 0.0
H2496 H 0.91562 0.95868 0.95642 0.0
H2497 H 0.87253 0.04423 0.96492 0.0
H2498 H 0.9714 0.05685 0.96436 0.0
H2499 H 0.07033 0.04363 0.96128 0.0
H2500 H 0.11248 0.95796 0.95277 0.0
H2501 H 1.014 0.94532 0.95394 0.0
C2502 C 0.92775 0.98004 0.95837 0.0
C2503 C 0.88639 0.00043 0.96072 0.0
C2504 C 0.9847 0.98715 0.9581 0.0
C2505 C 0.9032 0.02811 0.96292 0.0
C2506 C 0.95984 0.03534 0.96268 0.0
C2507 C 0.05798 0.02221 0.95963 0.0
C2508 C 0.09906 0.0018 0.95697 0.0
C2509 C 1.00097 0.01506 0.96019 0.0
C2510 C 0.08211 0.97407 0.95504 0.0
C2511 C 1.02564 0.96683 0.95561 0.0
H2512 H 0.90359 0.75785 0.94401 0.0
H2513 H 0.93281 0.70053 0.97789 0.0
H2514 H 0.8332 0.69002 0.97884 0.0
H2515 H 0.73721 0.69777 0.97047 0.0
H2516 H 0.70789 0.75522 0.93666 0.0
H2517 H 0.8076 0.76559 0.93562 0.0
C2518 C 0.88824 0.7432 0.95168 0.0
C2519 C 0.92613 0.73 0.96084 0.0
C2520 C 0.83059 0.73746 0.95231 0.0
C2521 C 0.90514 0.71073 0.97054 0.0
C2522 C 0.84795 0.70485 0.97119 0.0
C2523 C 0.75258 0.71242 0.96279 0.0
C2524 C 0.71467 0.72571 0.95368 0.0
C2525 C 0.81024 0.71813 0.96215 0.0
C2526 C 0.73564 0.74496 0.94396 0.0
C2527 C 0.79286 0.75076 0.94328 0.0
H2528 H 0.08294 0.71125 0.85453 0.0
H2529 H 0.11536 0.74212 0.813 0.0
H2530 H 1.01589 0.75188 0.80984 0.0
H2531 H 0.91939 0.75186 0.81891 0.0
H2532 H 0.88783 0.72117 0.86054 0.0
H2533 H 0.98673 0.7104 0.8634 0.0
C2534 C 0.0683 0.71979 0.84471 0.0
C2535 C 0.10695 0.72594 0.83404 0.0
C2536 C 1.01091 0.72524 0.84292 0.0
C2537 C 0.08693 0.73749 0.82148 0.0
C2538 C 0.02989 0.74294 0.81963 0.0
C2539 C 0.93411 0.74292 0.82863 0.0
C2540 C 0.89575 0.73728 0.83946 0.0
C2541 C 0.99147 0.73703 0.8303 0.0
C2542 C 0.91586 0.72533 0.85191 0.0
C2543 C 0.97266 0.71935 0.85362 0.0
H2544 H 0.72918 0.05281 0.83371 0.0
H2545 H 0.68456 0.96604 0.83562 0.0
H2546 H 0.78285 0.95301 0.83395 0.0
H2547 H 0.88217 0.966 0.83269 0.0
H2548 H 0.92726 0.05269 0.83103 0.0
H2549 H 0.82869 0.06581 0.83221 0.0
C2550 C 0.74082 0.03103 0.83386 0.0
C2551 C 0.69882 0.01052 0.83475 0.0
C2552 C 0.79788 0.02358 0.83304 0.0
C2553 C 0.71533 0.98239 0.83471 0.0
C2554 C 0.77181 0.97486 0.83386 0.0
C2555 C 0.87057 0.98778 0.83241 0.0
C2556 C 0.91265 0.00826 0.83178 0.0
C2557 C 0.81353 -0.00475 0.83306 0.0
C2558 C 0.89626 0.03639 0.83169 0.0
C2559 C 0.83969 0.04395 0.83229 0.0
H2560 H 0.07408 0.4529 0.0446 0.0
H2561 H 0.99465 0.52931 0.05753 0.0
H2562 H 0.97703 0.54117 0.03295 0.0
H2563 H 0.98513 0.52975 1.00769 0.0
H2564 H 0.06635 0.45344 0.99521 0.0
H2565 H 0.08307 0.44181 1.01971 0.0
C2566 C 0.05273 0.47214 0.04208 0.0
C2567 C 0.03561 0.49019 0.05291 0.0
C2568 C 0.04354 0.47894 0.02798 0.0
C2569 C 1.00812 0.51504 0.04941 0.0
C2570 C 0.99825 0.52185 0.03535 0.0
C2571 C 1.00673 0.51065 1.01035 0.0
C2572 C 1.02445 0.49246 0.99961 0.0
C2573 C 1.01604 0.50401 0.02453 0.0
C2574 C 0.0523 0.46779 1.00324 0.0
C2575 C 0.06173 0.46108 1.01726 0.0
H2576 H 0.30084 0.76496 0.99725 0.0
H2577 H 0.32659 0.67716 1.00352 0.0
H2578 H 0.30963 0.68272 0.02857 0.0
H2579 H 0.28746 0.71256 0.04886 0.0
H2580 H 0.2619 0.80039 0.04261 0.0
H2581 H 0.27952 0.79488 1.01758 0.0
C2582 C 0.30238 0.74705 1.0041 0.0
C2583 C 0.31484 0.72068 0.99852 0.0
C2584 C 0.29318 0.75044 1.01858 0.0
C2585 C 0.31706 0.6977 1.00755 0.0
C2586 C 0.30753 0.70086 0.0219 0.0
C2587 C 0.28625 0.7305 0.04203 0.0
C2588 C 0.27341 0.75684 0.0476 0.0
C2589 C 0.29583 0.72715 0.02757 0.0
C2590 C 0.27167 0.77987 0.03859 0.0
C2591 C 0.28154 0.77674 0.02425 0.0
H2592 H 0.04006 0.74593 0.29614 0.0
H2593 H 0.89883 0.69635 0.28366 0.0
H2594 H 0.92122 0.70393 0.25904 0.0
H2595 H 0.9819 0.7244 0.24084 0.0
H2596 H 0.12379 0.77347 0.25349 0.0
H2597 H 0.10054 0.76633 0.27805 0.0
C2598 C 1.01465 0.73658 0.28804 0.0
C2599 C 0.96827 0.72039 0.29176 0.0
C2600 C 0.02776 0.74105 0.27384 0.0
C2601 C 0.93501 0.70883 0.28109 0.0
C2602 C 0.94771 0.71317 0.26698 0.0
C2603 C 1.00734 0.73367 0.24898 0.0
C2604 C 0.05433 0.74952 0.24531 0.0
C2605 C 0.994 0.72927 0.26319 0.0
C2606 C 0.0873 0.76117 0.25601 0.0
C2607 C 0.07413 0.75709 0.27009 0.0
H2608 H 0.22427 0.44764 0.25611 0.0
H2609 H 0.30866 0.52327 0.24454 0.0
H2610 H 0.32144 0.53509 0.26921 0.0
H2611 H 0.30815 0.52426 0.29407 0.0
H2612 H 0.22562 0.44834 0.3059 0.0
H2613 H 0.21182 0.43651 0.28117 0.0
C2614 C 0.24574 0.46663 0.259 0.0
C2615 C 0.26548 0.48456 0.24847 0.0
C2616 C 0.25272 0.47338 0.27326 0.0
C2617 C 0.29311 0.5091 0.25241 0.0
C2618 C 0.30025 0.51593 0.26653 0.0
C2619 C 0.28683 0.50518 0.29125 0.0
C2620 C 0.26774 0.48724 0.30183 0.0
C2621 C 0.27995 0.49833 0.27704 0.0
C2622 C 0.24052 0.46254 0.29797 0.0
C2623 C 0.23286 0.45573 0.28383 0.0
H2624 H 0.86 0.22294 1.00516 0.0
H2625 H 0.70619 0.2544 0.98774 0.0
H2626 H 0.67063 0.26351 1.01141 0.0
H2627 H 0.6835 0.26228 0.03704 0.0
H2628 H 0.83743 0.23068 0.05433 0.0
H2629 H 0.87295 0.2218 0.03068 0.0
C2630 C 0.81865 0.23182 1.00652 0.0
C2631 C 0.78569 0.23802 0.99469 0.0
C2632 C 0.79866 0.23691 1.02013 0.0
C2633 C 0.7323 0.24949 0.99665 0.0
C2634 C 0.71204 0.25466 1.01018 0.0
C2635 C 0.72487 0.25344 0.03563 0.0
C2636 C 0.75787 0.2471 0.04744 0.0
C2637 C 0.74486 0.24843 0.022 0.0
C2638 C 0.81128 0.23569 0.04544 0.0
C2639 C 0.83153 0.23064 0.03192 0.0
H2640 H 0.97175 0.19717 0.78676 0.0
H2641 H 0.04312 0.27476 0.80064 0.0
H2642 H 0.06444 0.28713 0.77648 0.0
H2643 H 0.06193 0.27641 0.75141 0.0
H2644 H 0.99097 0.1991 0.73711 0.0
H2645 H 0.96968 0.18628 0.76136 0.0
C2646 C 0.99226 0.21671 0.78449 0.0
C2647 C 1.00598 0.23499 0.79553 0.0
C2648 C 1.00397 0.22385 0.77048 0.0
C2649 C 0.0323 0.26027 0.79239 0.0
C2650 C 0.04432 0.26742 0.77855 0.0
C2651 C 0.04167 0.25675 0.75357 0.0
C2652 C 0.02804 0.23873 0.74245 0.0
C2653 C 0.03009 0.24947 0.76751 0.0
C2654 C 1.00181 0.21336 0.74547 0.0
C2655 C 0.98982 0.206 0.75934 0.0
H2656 H 0.86564 0.51556 0.7906 0.0
H2657 H 0.72054 0.4836 0.81176 0.0
H2658 H 0.67774 0.47199 0.7892 0.0
H2659 H 0.68191 0.47092 0.76338 0.0
H2660 H 0.82717 0.50292 0.74233 0.0
H2661 H 0.86971 0.5146 0.76486 0.0
C2662 C 0.82461 0.50605 0.79028 0.0
C2663 C 0.79627 0.50036 0.80286 0.0
C2664 C 0.80041 0.49949 0.77726 0.0
C2665 C 0.74321 0.48807 0.80225 0.0
C2666 C 0.71877 0.48147 0.78934 0.0
C2667 C 0.72289 0.48047 0.76373 0.0
C2668 C 0.75144 0.4861 0.75116 0.0
C2669 C 0.74701 0.48707 0.77677 0.0
C2670 C 0.80442 0.49845 0.75181 0.0
C2671 C 0.82871 0.50509 0.76471 0.0
H2672 H 0.12558 0.96682 0.5356 0.0
H2673 H 0.97084 -0.00474 0.55377 0.0
H2674 H 0.93283 0.00405 0.53045 0.0
H2675 H 0.94377 0.00379 0.50489 0.0
H2676 H 0.0982 0.97538 0.4865 0.0
H2677 H 0.13635 0.96631 0.50986 0.0
C2678 C 0.08352 0.97493 0.53444 0.0
C2679 C 0.05106 0.98059 0.54642 0.0
C2680 C 0.06203 0.97987 0.52095 0.0
C2681 C 0.99671 -0.00897 0.54475 0.0
C2682 C 0.97497 -0.00404 0.5314 0.0
C2683 C 0.98579 -0.00442 0.50599 0.0
C2684 C 1.01818 0.99021 0.49398 0.0
C2685 C 1.00729 0.99051 0.51943 0.0
C2686 C 0.07248 0.9796 0.49557 0.0
C2687 C 0.09425 0.97446 0.50893 0.0
H2688 H 0.30849 0.2065 0.49937 0.0
H2689 H 0.23395 0.28186 0.48368 0.0
H2690 H 0.2115 0.29642 0.50769 0.0
H2691 H 0.21371 0.28757 0.53332 0.0
H2692 H 0.28923 0.21189 0.54846 0.0
H2693 H 0.31137 0.19788 0.52456 0.0
C2694 C 0.28717 0.22611 0.50117 0.0
C2695 C 0.27288 0.24306 0.48972 0.0
C2696 C 0.27507 0.23441 0.51496 0.0
C2697 C 0.24531 0.26839 0.49229 0.0
C2698 C 0.23267 0.27675 0.50603 0.0
C2699 C 0.23535 0.26812 0.53137 0.0
C2700 C 0.24999 0.25085 0.54271 0.0
C2701 C 0.24759 0.25998 0.51748 0.0
C2702 C 0.27771 0.22564 0.53998 0.0
C2703 C 0.29019 0.21753 0.52629 0.0
H2704 H 0.38577 -0.0073 0.78701 0.0
H2705 H 0.2191 0.0134 0.80079 0.0
H2706 H 0.18652 0.01323 0.77652 0.0
H2707 H 0.20542 0.00714 0.7514 0.0
H2708 H 0.37172 0.98583 0.73757 0.0
H2709 H 0.40475 0.98673 0.76183 0.0
C2710 C 0.34227 -0.0029 0.7847 0.0
C2711 C 0.30483 0.00303 0.79569 0.0
C2712 C 0.32397 -0.0029 0.77071 0.0
C2713 C 0.24866 0.00871 0.79253 0.0
C2714 C 0.23009 0.00871 0.77865 0.0
C2715 C 0.249 0.00286 0.75368 0.0
C2716 C 0.28614 -0.00355 0.7427 0.0
C2717 C 0.2674 0.00302 0.76765 0.0
C2718 C 0.34238 -0.00915 0.74583 0.0
C2719 C 0.36118 -0.00874 0.7597 0.0
H2720 H 0.83758 0.71306 0.50085 0.0
H2721 H 0.72774 0.77614 0.4845 0.0
H2722 H 0.69853 0.78839 0.50843 0.0
H2723 H 0.70661 0.78157 0.53419 0.0
H2724 H 0.81054 0.71514 0.54974 0.0
H2725 H 0.84028 0.70397 0.52599 0.0
C2726 C 0.807 0.72942 0.50252 0.0
C2727 C 0.78504 0.74382 0.49097 0.0
C2728 C 0.78995 0.73592 0.5162 0.0
C2729 C 0.74502 0.76473 0.49324 0.0
C2730 C 0.72863 0.7718 0.50692 0.0
C2731 C 0.73594 0.76474 0.53235 0.0
C2732 C 0.75757 0.74967 0.54379 0.0
C2733 C 0.75125 0.75768 0.51851 0.0
C2734 C 0.79443 0.7275 0.54121 0.0
C2735 C 0.81111 0.72095 0.5276 0.0
H2736 H 0.74696 0.95441 0.25103 0.0
H2737 H 0.82316 0.03096 0.23766 0.0
H2738 H 0.84197 0.04347 0.26211 0.0
H2739 H 0.83604 0.03258 0.28739 0.0
H2740 H 0.75878 0.95596 0.30037 0.0
H2741 H 0.74028 0.94379 0.276 0.0
C2742 C 0.76792 0.9738 0.25344 0.0
C2743 C 0.78376 -0.00829 0.24253 0.0
C2744 C 0.77784 0.98097 0.26748 0.0
C2745 C 0.81071 0.01678 0.24586 0.0
C2746 C 0.82124 0.02398 0.25984 0.0
C2747 C 0.81481 0.01332 0.28487 0.0
C2748 C 0.79871 -0.00479 0.2957 0.0
C2749 C 0.80471 0.0063 0.27076 0.0
C2750 C 0.77147 0.97029 0.29226 0.0
C2751 C 0.76108 0.96325 0.27831 0.0
H2752 H 0.57916 0.44753 0.54125 0.0
H2753 H 0.50283 0.52294 0.55668 0.0
H2754 H 0.48321 0.53769 0.53278 0.0
H2755 H 0.48802 0.52946 0.50745 0.0
H2756 H 0.56353 0.45412 0.49176 0.0
H2757 H 0.58396 0.43927 0.51571 0.0
C2758 C 0.55794 0.4671 0.53936 0.0
C2759 C 0.54228 0.48406 0.55075 0.0
C2760 C 0.5472 0.47563 0.52552 0.0
C2761 C 0.51509 0.50943 0.54813 0.0
C2762 C 0.50407 0.51796 0.53444 0.0
C2763 C 0.50926 0.50987 0.50926 0.0
C2764 C 0.52434 0.49295 0.49783 0.0
C2765 C 0.52015 0.50132 0.52306 0.0
C2766 C 0.55163 0.46756 0.50037 0.0
C2767 C 0.5631 0.45901 0.51408 0.0
H2768 H 0.44263 0.72171 0.78582 0.0
H2769 H 0.59132 0.75249 0.80592 0.0
H2770 H 0.63429 0.76083 0.78313 0.0
H2771 H 0.62945 0.75944 0.75744 0.0
H2772 H 0.48109 0.72869 0.73715 0.0
H2773 H 0.43801 0.72009 0.75998 0.0
C2774 C 0.48446 0.73025 0.78519 0.0
C2775 C 0.51374 0.7367 0.79757 0.0
C2776 C 0.50885 0.73489 0.772 0.0
C2777 C 0.56783 0.74766 0.79659 0.0
C2778 C 0.59243 0.75233 0.78354 0.0
C2779 C 0.58769 0.75082 0.75802 0.0
C2780 C 0.55846 0.74462 0.74561 0.0
C2781 C 0.5633 0.74606 0.77117 0.0
C2782 C 0.50444 0.7335 0.74653 0.0
C2783 C 0.47983 0.72865 0.75959 0.0
H2784 H 0.56411 0.25045 0.29737 0.0
H2785 H 0.4191 0.2029 0.28555 0.0
H2786 H 0.44019 0.20997 0.26086 0.0
H2787 H 0.50035 0.2295 0.2424 0.0
H2788 H 0.64535 0.27709 0.25416 0.0
H2789 H 0.62418 0.27013 0.27888 0.0
C2790 C 0.53751 0.2415 0.28938 0.0
C2791 C 0.49039 0.22603 0.29332 0.0
C2792 C 0.54979 0.24574 0.2751 0.0
C2793 C 0.45578 0.21485 0.28282 0.0
C2794 C 0.46775 0.2189 0.26866 0.0
C2795 C 0.52691 0.23851 0.25038 0.0
C2796 C 0.57408 0.25392 0.24642 0.0
C2797 C 0.51459 0.23434 0.26465 0.0
C2798 C 0.60863 0.26517 0.25691 0.0
C2799 C 0.59663 0.26119 0.27108 0.0
H2800 H 0.59934 0.97265 0.03855 0.0
H2801 H 0.44732 0.00569 0.05626 0.0
H2802 H 0.40931 0.01277 0.03272 0.0
H2803 H 0.42007 0.00999 1.00712 0.0
H2804 H 0.57222 0.97705 0.98945 0.0
H2805 H 0.60966 0.96938 1.01298 0.0
C2806 C 0.55782 0.98137 0.03725 0.0
C2807 C 0.52612 0.98873 0.04912 0.0
C2808 C 0.53646 0.98535 0.02371 0.0
C2809 C 0.47246 -5e-05 0.0473 0.0
C2810 C 0.45081 0.00397 0.03384 0.0
C2811 C 0.46142 0.00108 1.00842 0.0
C2812 C 0.49348 -0.00593 0.99655 0.0
C2813 C 0.48253 -0.00317 0.02198 0.0
C2814 C 0.54685 0.98255 0.9984 0.0
C2815 C 0.5682 0.97821 1.01185 0.0
loop_
_geom_bond_atom_site_label_1
_geom_bond_atom_site_label_2
_geom_bond_distance
_geom_bond_site_symmetry_2
_ccdc_geom_bond_type
C0 Eu1 2.835 . S
C0 C2 1.500 . S
C0 O20 1.257 . S
C0 O21 1.260 . S
Eu1 C0 2.835 . S
Eu1 O20 2.473 . S
Eu1 O21 2.480 . S
Eu1 O22 2.430 . S
Eu1 O23 2.670 . S
Eu1 O24 2.394 . S
Eu1 O29 2.355 . S
Eu1 O31 2.374 . S
C2 C0 1.500 . S
C2 C3 1.377 . S
C2 C7 1.377 . S
C3 C2 1.377 . S
C3 C4 1.395 . S
C3 H32 0.931 . S
C4 C3 1.395 . S
C4 C5 1.383 . S
C4 H33 0.931 . S
C5 C4 1.383 . S
C5 C6 1.394 . S
C6 C5 1.394 . S
C6 C7 1.378 . S
C6 H34 0.931 . S
C7 C2 1.377 . S
C7 C6 1.378 . S
C7 H35 0.931 . S
C8 O22 1.259 . S
C8 O23 1.270 . S
C9 O24 1.251 . S
C9 O25 1.251 . S
C10 Eu11 2.835 . S
C10 C12 1.500 . S
C10 O26 1.257 . S
C10 O27 1.260 . S
Eu11 C10 2.835 . S
Eu11 O23 2.355 1_655 S
Eu11 O25 2.374 1_655 S
Eu11 O26 2.473 . S
Eu11 O27 2.480 . S
Eu11 O28 2.430 . S
Eu11 O29 2.670 1_655 S
Eu11 O30 2.394 . S
C12 C10 1.500 . S
C12 C13 1.377 . S
C12 C17 1.377 . S
C13 C12 1.377 . S
C13 C14 1.395 . S
C13 H36 0.931 . S
C14 C13 1.395 . S
C14 C15 1.383 . S
C14 H37 0.931 . S
C15 C14 1.383 . S
C15 C16 1.394 . S
C16 C15 1.394 . S
C16 C17 1.378 . S
C16 H38 0.931 . S
C17 C12 1.377 . S
C17 C16 1.378 . S
C17 H39 0.931 . S
C18 O28 1.259 1_455 S
C18 O29 1.270 . S
C19 O30 1.251 . S
C19 O31 1.251 1_655 S
O20 C0 1.257 . S
O20 Eu1 2.473 . S
O21 C0 1.260 . S
O21 Eu1 2.480 . S
O22 Eu1 2.430 . S
O22 C8 1.259 . S
O23 Eu1 2.670 . S
O23 C8 1.270 . S
O23 Eu11 2.355 1_455 S
O24 Eu1 2.394 . S
O24 C9 1.251 . S
O25 C9 1.251 . S
O25 Eu11 2.374 1_455 S
O26 C10 1.257 . S
O26 Eu11 2.473 . S
O27 C10 1.260 . S
O27 Eu11 2.480 . S
O28 Eu11 2.430 . S
O28 C18 1.259 1_655 S
O29 Eu1 2.355 . S
O29 Eu11 2.670 1_455 S
O29 C18 1.270 . S
O30 Eu11 2.394 . S
O30 C19 1.251 . S
O31 Eu1 2.374 . S
O31 C19 1.251 1_455 S
H32 C3 0.931 . S
H33 C4 0.931 . S
H34 C6 0.931 . S
H35 C7 0.931 . S
H36 C13 0.931 . S
H37 C14 0.931 . S
H38 C16 0.931 . S
H39 C17 0.931 . S
C40 Eu41 2.835 . S
C40 C42 1.500 1_455 S
C40 O60 1.257 . S
C40 O61 1.260 . S
Eu41 C40 2.835 . S
Eu41 O60 2.473 . S
Eu41 O61 2.480 . S
Eu41 O62 2.430 . S
Eu41 O63 2.670 . S
Eu41 O64 2.394 . S
Eu41 O69 2.355 . S
Eu41 O71 2.374 . S
C42 C40 1.500 1_655 S
C42 C43 1.377 . S
C42 C47 1.377 . S
C43 C42 1.377 . S
C43 C44 1.395 . S
C43 H72 0.931 . S
C44 C43 1.395 . S
C44 C45 1.383 . S
C44 H73 0.931 . S
C45 C44 1.383 . S
C45 C46 1.394 . S
C46 C45 1.394 . S
C46 C47 1.378 . S
C46 H74 0.931 . S
C47 C42 1.377 . S
C47 C46 1.378 . S
C47 H75 0.931 . S
C48 O62 1.259 . S
C48 O63 1.270 . S
C49 O64 1.251 . S
C49 O65 1.251 . S
C50 Eu51 2.835 . S
C50 C52 1.500 . S
C50 O66 1.257 . S
C50 O67 1.260 . S
Eu51 C50 2.835 . S
Eu51 O63 2.355 . S
Eu51 O65 2.374 . S
Eu51 O66 2.473 . S
Eu51 O67 2.480 . S
Eu51 O68 2.430 . S
Eu51 O69 2.670 . S
Eu51 O70 2.394 . S
C52 C50 1.500 . S
C52 C53 1.377 . S
C52 C57 1.377 . S
C53 C52 1.377 . S
C53 C54 1.395 . S
C53 H76 0.931 . S
C54 C53 1.395 . S
C54 C55 1.383 . S
C54 H77 0.931 . S
C55 C54 1.383 . S
C55 C56 1.394 . S
C56 C55 1.394 . S
C56 C57 1.378 . S
C56 H78 0.931 . S
C57 C52 1.377 . S
C57 C56 1.378 . S
C57 H79 0.931 . S
C58 O68 1.259 . S
C58 O69 1.270 . S
C59 O70 1.251 . S
C59 O71 1.251 . S
O60 C40 1.257 . S
O60 Eu41 2.473 . S
O61 C40 1.260 . S
O61 Eu41 2.480 . S
O62 Eu41 2.430 . S
O62 C48 1.259 . S
O63 Eu41 2.670 . S
O63 C48 1.270 . S
O63 Eu51 2.355 . S
O64 Eu41 2.394 . S
O64 C49 1.251 . S
O65 C49 1.251 . S
O65 Eu51 2.374 . S
O66 C50 1.257 . S
O66 Eu51 2.473 . S
O67 C50 1.260 . S
O67 Eu51 2.480 . S
O68 Eu51 2.430 . S
O68 C58 1.259 . S
O69 Eu41 2.355 . S
O69 Eu51 2.670 . S
O69 C58 1.270 . S
O70 Eu51 2.394 . S
O70 C59 1.251 . S
O71 Eu41 2.374 . S
O71 C59 1.251 . S
H72 C43 0.931 . S
H73 C44 0.931 . S
H74 C46 0.931 . S
H75 C47 0.931 . S
H76 C53 0.931 . S
H77 C54 0.931 . S
H78 C56 0.931 . S
H79 C57 0.931 . S
C80 Eu81 2.835 . S
C80 C82 1.500 . S
C80 O100 1.257 . S
C80 O101 1.260 . S
Eu81 C80 2.835 . S
Eu81 O100 2.473 . S
Eu81 O101 2.480 . S
Eu81 O102 2.430 . S
Eu81 O103 2.670 . S
Eu81 O104 2.394 . S
Eu81 O109 2.355 . S
Eu81 O111 2.374 . S
C82 C80 1.500 . S
C82 C83 1.377 . S
C82 C87 1.377 . S
C83 C82 1.377 . S
C83 C84 1.395 . S
C83 H112 0.931 . S
C84 C83 1.395 . S
C84 C85 1.383 . S
C84 H113 0.931 . S
C85 C84 1.383 . S
C85 C86 1.394 . S
C86 C85 1.394 . S
C86 C87 1.378 . S
C86 H114 0.931 . S
C87 C82 1.377 . S
C87 C86 1.378 . S
C87 H115 0.931 . S
C88 O102 1.259 . S
C88 O103 1.270 . S
C89 O104 1.251 . S
C89 O105 1.251 . S
C90 Eu91 2.835 . S
C90 C92 1.500 . S
C90 O106 1.257 . S
C90 O107 1.260 . S
Eu91 C90 2.835 . S
Eu91 O103 2.355 1_655 S
Eu91 O105 2.374 1_655 S
Eu91 O106 2.473 . S
Eu91 O107 2.480 . S
Eu91 O108 2.430 . S
Eu91 O109 2.670 1_655 S
Eu91 O110 2.394 . S
C92 C90 1.500 . S
C92 C93 1.377 . S
C92 C97 1.377 . S
C93 C92 1.377 . S
C93 C94 1.395 . S
C93 H116 0.931 . S
C94 C93 1.395 . S
C94 C95 1.383 . S
C94 H117 0.931 . S
C95 C94 1.383 . S
C95 C96 1.394 . S
C96 C95 1.394 . S
C96 C97 1.378 . S
C96 H118 0.931 . S
C97 C92 1.377 . S
C97 C96 1.378 . S
C97 H119 0.931 . S
C98 O108 1.259 1_455 S
C98 O109 1.270 . S
C99 O110 1.251 . S
C99 O111 1.251 1_655 S
O100 C80 1.257 . S
O100 Eu81 2.473 . S
O101 C80 1.260 . S
O101 Eu81 2.480 . S
O102 Eu81 2.430 . S
O102 C88 1.259 . S
O103 Eu81 2.670 . S
O103 C88 1.270 . S
O103 Eu91 2.355 1_455 S
O104 Eu81 2.394 . S
O104 C89 1.251 . S
O105 C89 1.251 . S
O105 Eu91 2.374 1_455 S
O106 C90 1.257 . S
O106 Eu91 2.473 . S
O107 C90 1.260 . S
O107 Eu91 2.480 . S
O108 Eu91 2.430 . S
O108 C98 1.259 1_655 S
O109 Eu81 2.355 . S
O109 Eu91 2.670 1_455 S
O109 C98 1.270 . S
O110 Eu91 2.394 . S
O110 C99 1.251 . S
O111 Eu81 2.374 . S
O111 C99 1.251 1_455 S
H112 C83 0.931 . S
H113 C84 0.931 . S
H114 C86 0.931 . S
H115 C87 0.931 . S
H116 C93 0.931 . S
H117 C94 0.931 . S
H118 C96 0.931 . S
H119 C97 0.931 . S
C120 Eu121 2.835 . S
C120 C122 1.500 1_455 S
C120 O140 1.257 . S
C120 O141 1.260 . S
Eu121 C120 2.835 . S
Eu121 O140 2.473 . S
Eu121 O141 2.480 . S
Eu121 O142 2.430 . S
Eu121 O143 2.670 . S
Eu121 O144 2.394 . S
Eu121 O149 2.355 . S
Eu121 O151 2.374 . S
C122 C120 1.500 1_655 S
C122 C123 1.377 . S
C122 C127 1.377 . S
C123 C122 1.377 . S
C123 C124 1.395 . S
C123 H152 0.931 . S
C124 C123 1.395 . S
C124 C125 1.383 . S
C124 H153 0.931 . S
C125 C124 1.383 . S
C125 C126 1.394 . S
C126 C125 1.394 . S
C126 C127 1.378 . S
C126 H154 0.931 . S
C127 C122 1.377 . S
C127 C126 1.378 . S
C127 H155 0.931 . S
C128 O142 1.259 . S
C128 O143 1.270 . S
C129 O144 1.251 . S
C129 O145 1.251 . S
C130 Eu131 2.835 . S
C130 C132 1.500 . S
C130 O146 1.257 . S
C130 O147 1.260 . S
Eu131 C130 2.835 . S
Eu131 O143 2.355 . S
Eu131 O145 2.374 . S
Eu131 O146 2.473 . S
Eu131 O147 2.480 . S
Eu131 O148 2.430 . S
Eu131 O149 2.670 . S
Eu131 O150 2.394 . S
C132 C130 1.500 . S
C132 C133 1.377 . S
C132 C137 1.377 . S
C133 C132 1.377 . S
C133 C134 1.395 . S
C133 H156 0.931 . S
C134 C133 1.395 . S
C134 C135 1.383 . S
C134 H157 0.931 . S
C135 C134 1.383 . S
C135 C136 1.394 . S
C136 C135 1.394 . S
C136 C137 1.378 . S
C136 H158 0.931 . S
C137 C132 1.377 . S
C137 C136 1.378 . S
C137 H159 0.931 . S
C138 O148 1.259 . S
C138 O149 1.270 . S
C139 O150 1.251 . S
C139 O151 1.251 . S
O140 C120 1.257 . S
O140 Eu121 2.473 . S
O141 C120 1.260 . S
O141 Eu121 2.480 . S
O142 Eu121 2.430 . S
O142 C128 1.259 . S
O143 Eu121 2.670 . S
O143 C128 1.270 . S
O143 Eu131 2.355 . S
O144 Eu121 2.394 . S
O144 C129 1.251 . S
O145 C129 1.251 . S
O145 Eu131 2.374 . S
O146 C130 1.257 . S
O146 Eu131 2.473 . S
O147 C130 1.260 . S
O147 Eu131 2.480 . S
O148 Eu131 2.430 . S
O148 C138 1.259 . S
O149 Eu121 2.355 . S
O149 Eu131 2.670 . S
O149 C138 1.270 . S
O150 Eu131 2.394 . S
O150 C139 1.251 . S
O151 Eu121 2.374 . S
O151 C139 1.251 . S
H152 C123 0.931 . S
H153 C124 0.931 . S
H154 C126 0.931 . S
H155 C127 0.931 . S
H156 C133 0.931 . S
H157 C134 0.931 . S
H158 C136 0.931 . S
H159 C137 0.931 . S
C160 Eu161 2.835 . S
C160 C162 1.500 . S
C160 O180 1.257 . S
C160 O181 1.260 . S
Eu161 C160 2.835 . S
Eu161 O180 2.473 . S
Eu161 O181 2.480 . S
Eu161 O182 2.430 . S
Eu161 O183 2.670 1_455 S
Eu161 O184 2.394 . S
Eu161 O189 2.355 1_455 S
Eu161 O191 2.374 1_455 S
C162 C160 1.500 . S
C162 C163 1.377 . S
C162 C167 1.377 . S
C163 C162 1.377 . S
C163 C164 1.395 . S
C163 H192 0.931 . S
C164 C163 1.395 . S
C164 C165 1.383 . S
C164 H193 0.931 . S
C165 C164 1.383 . S
C165 C166 1.394 . S
C166 C165 1.394 . S
C166 C167 1.378 . S
C166 H194 0.931 . S
C167 C162 1.377 . S
C167 C166 1.378 . S
C167 H195 0.931 . S
C168 O182 1.259 1_655 S
C168 O183 1.270 . S
C169 O184 1.251 . S
C169 O185 1.251 1_455 S
C170 Eu171 2.835 . S
C170 C172 1.500 . S
C170 O186 1.257 . S
C170 O187 1.260 . S
Eu171 C170 2.835 . S
Eu171 O183 2.355 . S
Eu171 O185 2.374 . S
Eu171 O186 2.473 . S
Eu171 O187 2.480 . S
Eu171 O188 2.430 . S
Eu171 O189 2.670 . S
Eu171 O190 2.394 . S
C172 C170 1.500 . S
C172 C173 1.377 . S
C172 C177 1.377 . S
C173 C172 1.377 . S
C173 C174 1.395 . S
C173 H196 0.931 . S
C174 C173 1.395 . S
C174 C175 1.383 . S
C174 H197 0.931 . S
C175 C174 1.383 . S
C175 C176 1.394 . S
C176 C175 1.394 . S
C176 C177 1.378 . S
C176 H198 0.931 . S
C177 C172 1.377 . S
C177 C176 1.378 . S
C177 H199 0.931 . S
C178 O188 1.259 . S
C178 O189 1.270 . S
C179 O190 1.251 . S
C179 O191 1.251 . S
O180 C160 1.257 . S
O180 Eu161 2.473 . S
O181 C160 1.260 . S
O181 Eu161 2.480 . S
O182 Eu161 2.430 . S
O182 C168 1.259 1_455 S
O183 Eu161 2.670 1_655 S
O183 C168 1.270 . S
O183 Eu171 2.355 . S
O184 Eu161 2.394 . S
O184 C169 1.251 . S
O185 C169 1.251 1_655 S
O185 Eu171 2.374 . S
O186 C170 1.257 . S
O186 Eu171 2.473 . S
O187 C170 1.260 . S
O187 Eu171 2.480 . S
O188 Eu171 2.430 . S
O188 C178 1.259 . S
O189 Eu161 2.355 1_655 S
O189 Eu171 2.670 . S
O189 C178 1.270 . S
O190 Eu171 2.394 . S
O190 C179 1.251 . S
O191 Eu161 2.374 1_655 S
O191 C179 1.251 . S
H192 C163 0.931 . S
H193 C164 0.931 . S
H194 C166 0.931 . S
H195 C167 0.931 . S
H196 C173 0.931 . S
H197 C174 0.931 . S
H198 C176 0.931 . S
H199 C177 0.931 . S
C200 Eu201 2.835 . S
C200 C202 1.500 . S
C200 O220 1.257 . S
C200 O221 1.260 . S
Eu201 C200 2.835 . S
Eu201 O220 2.473 . S
Eu201 O221 2.480 . S
Eu201 O222 2.430 . S
Eu201 O223 2.670 . S
Eu201 O224 2.394 . S
Eu201 O229 2.355 . S
Eu201 O231 2.374 . S
C202 C200 1.500 . S
C202 C203 1.377 . S
C202 C207 1.377 . S
C203 C202 1.377 . S
C203 C204 1.395 . S
C203 H232 0.931 . S
C204 C203 1.395 . S
C204 C205 1.383 . S
C204 H233 0.931 . S
C205 C204 1.383 . S
C205 C206 1.394 . S
C206 C205 1.394 . S
C206 C207 1.378 . S
C206 H234 0.931 . S
C207 C202 1.377 . S
C207 C206 1.378 . S
C207 H235 0.931 . S
C208 O222 1.259 . S
C208 O223 1.270 . S
C209 O224 1.251 . S
C209 O225 1.251 . S
C210 Eu211 2.835 . S
C210 C212 1.500 1_655 S
C210 O226 1.257 . S
C210 O227 1.260 . S
Eu211 C210 2.835 . S
Eu211 O223 2.355 . S
Eu211 O225 2.374 . S
Eu211 O226 2.473 . S
Eu211 O227 2.480 . S
Eu211 O228 2.430 . S
Eu211 O229 2.670 . S
Eu211 O230 2.394 . S
C212 C210 1.500 1_455 S
C212 C213 1.377 . S
C212 C217 1.377 . S
C213 C212 1.377 . S
C213 C214 1.395 . S
C213 H236 0.931 . S
C214 C213 1.395 . S
C214 C215 1.383 . S
C214 H237 0.931 . S
C215 C214 1.383 . S
C215 C216 1.394 . S
C216 C215 1.394 . S
C216 C217 1.378 . S
C216 H238 0.931 . S
C217 C212 1.377 . S
C217 C216 1.378 . S
C217 H239 0.931 . S
C218 O228 1.259 . S
C218 O229 1.270 . S
C219 O230 1.251 . S
C219 O231 1.251 . S
O220 C200 1.257 . S
O220 Eu201 2.473 . S
O221 C200 1.260 . S
O221 Eu201 2.480 . S
O222 Eu201 2.430 . S
O222 C208 1.259 . S
O223 Eu201 2.670 . S
O223 C208 1.270 . S
O223 Eu211 2.355 . S
O224 Eu201 2.394 . S
O224 C209 1.251 . S
O225 C209 1.251 . S
O225 Eu211 2.374 . S
O226 C210 1.257 . S
O226 Eu211 2.473 . S
O227 C210 1.260 . S
O227 Eu211 2.480 . S
O228 Eu211 2.430 . S
O228 C218 1.259 . S
O229 Eu201 2.355 . S
O229 Eu211 2.670 . S
O229 C218 1.270 . S
O230 Eu211 2.394 . S
O230 C219 1.251 . S
O231 Eu201 2.374 . S
O231 C219 1.251 . S
H232 C203 0.931 . S
H233 C204 0.931 . S
H234 C206 0.931 . S
H235 C207 0.931 . S
H236 C213 0.931 . S
H237 C214 0.931 . S
H238 C216 0.931 . S
H239 C217 0.931 . S
C240 Eu241 2.835 . S
C240 C242 1.500 . S
C240 O260 1.257 . S
C240 O261 1.260 . S
Eu241 C240 2.835 . S
Eu241 O260 2.473 . S
Eu241 O261 2.480 . S
Eu241 O262 2.430 . S
Eu241 O263 2.670 1_455 S
Eu241 O264 2.394 . S
Eu241 O269 2.355 1_455 S
Eu241 O271 2.374 1_455 S
C242 C240 1.500 . S
C242 C243 1.377 . S
C242 C247 1.377 . S
C243 C242 1.377 . S
C243 C244 1.395 . S
C243 H272 0.931 . S
C244 C243 1.395 . S
C244 C245 1.383 . S
C244 H273 0.931 . S
C245 C244 1.383 . S
C245 C246 1.394 . S
C246 C245 1.394 . S
C246 C247 1.378 . S
C246 H274 0.931 . S
C247 C242 1.377 . S
C247 C246 1.378 . S
C247 H275 0.931 . S
C248 O262 1.259 1_655 S
C248 O263 1.270 . S
C249 O264 1.251 . S
C249 O265 1.251 1_455 S
C250 Eu251 2.835 . S
C250 C252 1.500 . S
C250 O266 1.257 . S
C250 O267 1.260 . S
Eu251 C250 2.835 . S
Eu251 O263 2.355 . S
Eu251 O265 2.374 . S
Eu251 O266 2.473 . S
Eu251 O267 2.480 . S
Eu251 O268 2.430 . S
Eu251 O269 2.670 . S
Eu251 O270 2.394 . S
C252 C250 1.500 . S
C252 C253 1.377 . S
C252 C257 1.377 . S
C253 C252 1.377 . S
C253 C254 1.395 . S
C253 H276 0.931 . S
C254 C253 1.395 . S
C254 C255 1.383 . S
C254 H277 0.931 . S
C255 C254 1.383 . S
C255 C256 1.394 . S
C256 C255 1.394 . S
C256 C257 1.378 . S
C256 H278 0.931 . S
C257 C252 1.377 . S
C257 C256 1.378 . S
C257 H279 0.931 . S
C258 O268 1.259 . S
C258 O269 1.270 . S
C259 O270 1.251 . S
C259 O271 1.251 . S
O260 C240 1.257 . S
O260 Eu241 2.473 . S
O261 C240 1.260 . S
O261 Eu241 2.480 . S
O262 Eu241 2.430 . S
O262 C248 1.259 1_455 S
O263 Eu241 2.670 1_655 S
O263 C248 1.270 . S
O263 Eu251 2.355 . S
O264 Eu241 2.394 . S
O264 C249 1.251 . S
O265 C249 1.251 1_655 S
O265 Eu251 2.374 . S
O266 C250 1.257 . S
O266 Eu251 2.473 . S
O267 C250 1.260 . S
O267 Eu251 2.480 . S
O268 Eu251 2.430 . S
O268 C258 1.259 . S
O269 Eu241 2.355 1_655 S
O269 Eu251 2.670 . S
O269 C258 1.270 . S
O270 Eu251 2.394 . S
O270 C259 1.251 . S
O271 Eu241 2.374 1_655 S
O271 C259 1.251 . S
H272 C243 0.931 . S
H273 C244 0.931 . S
H274 C246 0.931 . S
H275 C247 0.931 . S
H276 C253 0.931 . S
H277 C254 0.931 . S
H278 C256 0.931 . S
H279 C257 0.931 . S
C280 Eu281 2.835 . S
C280 C282 1.500 . S
C280 O300 1.257 . S
C280 O301 1.260 . S
Eu281 C280 2.835 . S
Eu281 O300 2.473 . S
Eu281 O301 2.480 . S
Eu281 O302 2.430 . S
Eu281 O303 2.670 . S
Eu281 O304 2.394 . S
Eu281 O309 2.355 . S
Eu281 O311 2.374 . S
C282 C280 1.500 . S
C282 C283 1.377 . S
C282 C287 1.377 . S
C283 C282 1.377 . S
C283 C284 1.395 . S
C283 H312 0.931 . S
C284 C283 1.395 . S
C284 C285 1.383 . S
C284 H313 0.931 . S
C285 C284 1.383 . S
C285 C286 1.394 . S
C286 C285 1.394 . S
C286 C287 1.378 . S
C286 H314 0.931 . S
C287 C282 1.377 . S
C287 C286 1.378 . S
C287 H315 0.931 . S
C288 O302 1.259 . S
C288 O303 1.270 . S
C289 O304 1.251 . S
C289 O305 1.251 . S
C290 Eu291 2.835 . S
C290 C292 1.500 1_655 S
C290 O306 1.257 . S
C290 O307 1.260 . S
Eu291 C290 2.835 . S
Eu291 O303 2.355 . S
Eu291 O305 2.374 . S
Eu291 O306 2.473 . S
Eu291 O307 2.480 . S
Eu291 O308 2.430 . S
Eu291 O309 2.670 . S
Eu291 O310 2.394 . S
C292 C290 1.500 1_455 S
C292 C293 1.377 . S
C292 C297 1.377 . S
C293 C292 1.377 . S
C293 C294 1.395 . S
C293 H316 0.931 . S
C294 C293 1.395 . S
C294 C295 1.383 . S
C294 H317 0.931 . S
C295 C294 1.383 . S
C295 C296 1.394 . S
C296 C295 1.394 . S
C296 C297 1.378 . S
C296 H318 0.931 . S
C297 C292 1.377 . S
C297 C296 1.378 . S
C297 H319 0.931 . S
C298 O308 1.259 . S
C298 O309 1.270 . S
C299 O310 1.251 . S
C299 O311 1.251 . S
O300 C280 1.257 . S
O300 Eu281 2.473 . S
O301 C280 1.260 . S
O301 Eu281 2.480 . S
O302 Eu281 2.430 . S
O302 C288 1.259 . S
O303 Eu281 2.670 . S
O303 C288 1.270 . S
O303 Eu291 2.355 . S
O304 Eu281 2.394 . S
O304 C289 1.251 . S
O305 C289 1.251 . S
O305 Eu291 2.374 . S
O306 C290 1.257 . S
O306 Eu291 2.473 . S
O307 C290 1.260 . S
O307 Eu291 2.480 . S
O308 Eu291 2.430 . S
O308 C298 1.259 . S
O309 Eu281 2.355 . S
O309 Eu291 2.670 . S
O309 C298 1.270 . S
O310 Eu291 2.394 . S
O310 C299 1.251 . S
O311 Eu281 2.374 . S
O311 C299 1.251 . S
H312 C283 0.931 . S
H313 C284 0.931 . S
H314 C286 0.931 . S
H315 C287 0.931 . S
H316 C293 0.931 . S
H317 C294 0.931 . S
H318 C296 0.931 . S
H319 C297 0.931 . S
C320 Eu321 2.835 . S
C320 C322 1.500 . S
C320 O340 1.257 . S
C320 O341 1.260 . S
Eu321 C320 2.835 . S
Eu321 O340 2.473 . S
Eu321 O341 2.480 . S
Eu321 O342 2.430 . S
Eu321 O343 2.670 . S
Eu321 O344 2.394 1_565 S
Eu321 O349 2.355 . S
Eu321 O351 2.374 . S
C322 C320 1.500 . S
C322 C323 1.377 . S
C322 C327 1.379 . S
C323 C322 1.377 . S
C323 C324 1.395 . S
C323 H352 0.931 . S
C324 C323 1.395 . S
C324 C325 1.379 1_565 S
C324 H353 0.931 . S
C325 C324 1.379 1_545 S
C325 C326 1.396 . S
C326 C325 1.396 . S
C326 C327 1.377 1_545 S
C326 H354 0.931 . S
C327 C322 1.379 . S
C327 C326 1.377 1_565 S
C327 H355 0.930 1_565 S
C328 O342 1.259 . S
C328 O343 1.270 . S
C329 O344 1.251 . S
C329 O345 1.251 . S
C330 Eu331 2.835 1_565 S
C330 C332 1.500 . S
C330 O346 1.257 . S
C330 O347 1.260 1_565 S
Eu331 C330 2.835 1_545 S
Eu331 O343 2.355 1_645 S
Eu331 O345 2.374 1_655 S
Eu331 O346 2.473 1_545 S
Eu331 O347 2.480 . S
Eu331 O348 2.430 . S
Eu331 O349 2.670 1_645 S
Eu331 O350 2.394 1_545 S
C332 C330 1.500 . S
C332 C333 1.377 . S
C332 C337 1.377 . S
C333 C332 1.377 . S
C333 C334 1.395 . S
C333 H356 0.931 . S
C334 C333 1.395 . S
C334 C335 1.383 . S
C334 H357 0.931 . S
C335 C334 1.383 . S
C335 C336 1.394 . S
C336 C335 1.394 . S
C336 C337 1.378 . S
C336 H358 0.931 . S
C337 C332 1.377 . S
C337 C336 1.378 . S
C337 H359 0.931 . S
C338 O348 1.259 1_465 S
C338 O349 1.270 . S
C339 O350 1.251 . S
C339 O351 1.251 1_655 S
O340 C320 1.257 . S
O340 Eu321 2.473 . S
O341 C320 1.260 . S
O341 Eu321 2.480 . S
O342 Eu321 2.430 . S
O342 C328 1.259 . S
O343 Eu321 2.670 . S
O343 C328 1.270 . S
O343 Eu331 2.355 1_465 S
O344 Eu321 2.394 1_545 S
O344 C329 1.251 . S
O345 C329 1.251 . S
O345 Eu331 2.374 1_455 S
O346 C330 1.257 . S
O346 Eu331 2.473 1_565 S
O347 C330 1.260 1_545 S
O347 Eu331 2.480 . S
O348 Eu331 2.430 . S
O348 C338 1.259 1_645 S
O349 Eu321 2.355 . S
O349 Eu331 2.670 1_465 S
O349 C338 1.270 . S
O350 Eu331 2.394 1_565 S
O350 C339 1.251 . S
O351 Eu321 2.374 . S
O351 C339 1.251 1_455 S
H352 C323 0.931 . S
H353 C324 0.931 . S
H354 C326 0.931 . S
H355 C327 0.930 1_545 S
H356 C333 0.931 . S
H357 C334 0.931 . S
H358 C336 0.931 . S
H359 C337 0.931 . S
C360 Eu361 2.835 . S
C360 C362 1.500 1_455 S
C360 O380 1.257 . S
C360 O381 1.260 . S
Eu361 C360 2.835 . S
Eu361 O380 2.473 . S
Eu361 O381 2.480 . S
Eu361 O382 2.430 . S
Eu361 O383 2.670 . S
Eu361 O384 2.394 . S
Eu361 O389 2.355 . S
Eu361 O391 2.374 . S
C362 C360 1.500 1_655 S
C362 C363 1.377 . S
C362 C367 1.377 . S
C363 C362 1.377 . S
C363 C364 1.395 . S
C363 H392 0.931 . S
C364 C363 1.395 . S
C364 C365 1.383 . S
C364 H393 0.931 . S
C365 C364 1.383 . S
C365 C366 1.394 . S
C366 C365 1.394 . S
C366 C367 1.378 . S
C366 H394 0.931 . S
C367 C362 1.377 . S
C367 C366 1.378 . S
C367 H395 0.931 . S
C368 O382 1.259 . S
C368 O383 1.270 . S
C369 O384 1.251 . S
C369 O385 1.251 . S
C370 Eu371 2.835 . S
C370 C372 1.500 . S
C370 O386 1.257 . S
C370 O387 1.260 . S
Eu371 C370 2.835 . S
Eu371 O383 2.355 . S
Eu371 O385 2.374 . S
Eu371 O386 2.473 . S
Eu371 O387 2.480 . S
Eu371 O388 2.430 . S
Eu371 O389 2.670 . S
Eu371 O390 2.394 . S
C372 C370 1.500 . S
C372 C373 1.377 . S
C372 C377 1.377 . S
C373 C372 1.377 . S
C373 C374 1.395 . S
C373 H396 0.931 . S
C374 C373 1.395 . S
C374 C375 1.383 . S
C374 H397 0.931 . S
C375 C374 1.383 . S
C375 C376 1.394 . S
C376 C375 1.394 . S
C376 C377 1.378 . S
C376 H398 0.931 . S
C377 C372 1.377 . S
C377 C376 1.378 . S
C377 H399 0.931 . S
C378 O388 1.259 . S
C378 O389 1.270 . S
C379 O390 1.251 . S
C379 O391 1.251 . S
O380 C360 1.257 . S
O380 Eu361 2.473 . S
O381 C360 1.260 . S
O381 Eu361 2.480 . S
O382 Eu361 2.430 . S
O382 C368 1.259 . S
O383 Eu361 2.670 . S
O383 C368 1.270 . S
O383 Eu371 2.355 . S
O384 Eu361 2.394 . S
O384 C369 1.251 . S
O385 C369 1.251 . S
O385 Eu371 2.374 . S
O386 C370 1.257 . S
O386 Eu371 2.473 . S
O387 C370 1.260 . S
O387 Eu371 2.480 . S
O388 Eu371 2.430 . S
O388 C378 1.259 . S
O389 Eu361 2.355 . S
O389 Eu371 2.670 . S
O389 C378 1.270 . S
O390 Eu371 2.394 . S
O390 C379 1.251 . S
O391 Eu361 2.374 . S
O391 C379 1.251 . S
H392 C363 0.931 . S
H393 C364 0.931 . S
H394 C366 0.931 . S
H395 C367 0.931 . S
H396 C373 0.931 . S
H397 C374 0.931 . S
H398 C376 0.931 . S
H399 C377 0.931 . S
C400 Eu401 2.835 . S
C400 C402 1.500 . S
C400 O420 1.257 . S
C400 O421 1.260 . S
Eu401 C400 2.835 . S
Eu401 O420 2.473 . S
Eu401 O421 2.480 . S
Eu401 O422 2.430 . S
Eu401 O423 2.670 . S
Eu401 O424 2.394 . S
Eu401 O429 2.355 . S
Eu401 O431 2.374 . S
C402 C400 1.500 . S
C402 C403 1.377 . S
C402 C407 1.377 . S
C403 C402 1.377 . S
C403 C404 1.395 . S
C403 H432 0.931 . S
C404 C403 1.395 . S
C404 C405 1.383 . S
C404 H433 0.931 . S
C405 C404 1.383 . S
C405 C406 1.394 . S
C406 C405 1.394 . S
C406 C407 1.378 . S
C406 H434 0.931 . S
C407 C402 1.377 . S
C407 C406 1.378 . S
C407 H435 0.931 . S
C408 O422 1.259 . S
C408 O423 1.270 . S
C409 O424 1.251 . S
C409 O425 1.251 . S
C410 Eu411 2.835 . S
C410 C412 1.500 . S
C410 O426 1.257 . S
C410 O427 1.260 . S
Eu411 C410 2.835 . S
Eu411 O423 2.355 1_655 S
Eu411 O425 2.374 1_655 S
Eu411 O426 2.473 . S
Eu411 O427 2.480 . S
Eu411 O428 2.430 . S
Eu411 O429 2.670 1_655 S
Eu411 O430 2.394 . S
C412 C410 1.500 . S
C412 C413 1.377 . S
C412 C417 1.377 . S
C413 C412 1.377 . S
C413 C414 1.395 . S
C413 H436 0.931 . S
C414 C413 1.395 . S
C414 C415 1.383 . S
C414 H437 0.931 . S
C415 C414 1.383 . S
C415 C416 1.394 . S
C416 C415 1.394 . S
C416 C417 1.378 . S
C416 H438 0.931 . S
C417 C412 1.377 . S
C417 C416 1.378 . S
C417 H439 0.931 . S
C418 O428 1.259 1_455 S
C418 O429 1.270 . S
C419 O430 1.251 . S
C419 O431 1.251 1_655 S
O420 C400 1.257 . S
O420 Eu401 2.473 . S
O421 C400 1.260 . S
O421 Eu401 2.480 . S
O422 Eu401 2.430 . S
O422 C408 1.259 . S
O423 Eu401 2.670 . S
O423 C408 1.270 . S
O423 Eu411 2.355 1_455 S
O424 Eu401 2.394 . S
O424 C409 1.251 . S
O425 C409 1.251 . S
O425 Eu411 2.374 1_455 S
O426 C410 1.257 . S
O426 Eu411 2.473 . S
O427 C410 1.260 . S
O427 Eu411 2.480 . S
O428 Eu411 2.430 . S
O428 C418 1.259 1_655 S
O429 Eu401 2.355 . S
O429 Eu411 2.670 1_455 S
O429 C418 1.270 . S
O430 Eu411 2.394 . S
O430 C419 1.251 . S
O431 Eu401 2.374 . S
O431 C419 1.251 1_455 S
H432 C403 0.931 . S
H433 C404 0.931 . S
H434 C406 0.931 . S
H435 C407 0.931 . S
H436 C413 0.931 . S
H437 C414 0.931 . S
H438 C416 0.931 . S
H439 C417 0.931 . S
C440 Eu441 2.835 . S
C440 C442 1.500 1_455 S
C440 O460 1.257 . S
C440 O461 1.260 . S
Eu441 C440 2.835 . S
Eu441 O460 2.473 . S
Eu441 O461 2.480 . S
Eu441 O462 2.430 . S
Eu441 O463 2.670 . S
Eu441 O464 2.394 1_565 S
Eu441 O469 2.355 . S
Eu441 O471 2.374 . S
C442 C440 1.500 1_655 S
C442 C443 1.377 . S
C442 C447 1.379 . S
C443 C442 1.377 . S
C443 C444 1.395 . S
C443 H472 0.931 . S
C444 C443 1.395 . S
C444 C445 1.379 1_565 S
C444 H473 0.931 . S
C445 C444 1.379 1_545 S
C445 C446 1.396 . S
C446 C445 1.396 . S
C446 C447 1.377 1_545 S
C446 H474 0.931 . S
C447 C442 1.379 . S
C447 C446 1.377 1_565 S
C447 H475 0.930 1_565 S
C448 O462 1.259 . S
C448 O463 1.270 . S
C449 O464 1.251 . S
C449 O465 1.251 . S
C450 Eu451 2.835 1_565 S
C450 C452 1.500 . S
C450 O466 1.257 . S
C450 O467 1.260 1_565 S
Eu451 C450 2.835 1_545 S
Eu451 O463 2.355 1_545 S
Eu451 O465 2.374 . S
Eu451 O466 2.473 1_545 S
Eu451 O467 2.480 . S
Eu451 O468 2.430 . S
Eu451 O469 2.670 1_545 S
Eu451 O470 2.394 1_545 S
C452 C450 1.500 . S
C452 C453 1.377 . S
C452 C457 1.377 . S
C453 C452 1.377 . S
C453 C454 1.395 . S
C453 H476 0.931 . S
C454 C453 1.395 . S
C454 C455 1.383 . S
C454 H477 0.931 . S
C455 C454 1.383 . S
C455 C456 1.394 . S
C456 C455 1.394 . S
C456 C457 1.378 . S
C456 H478 0.931 . S
C457 C452 1.377 . S
C457 C456 1.378 . S
C457 H479 0.931 . S
C458 O468 1.259 1_565 S
C458 O469 1.270 . S
C459 O470 1.251 . S
C459 O471 1.251 . S
O460 C440 1.257 . S
O460 Eu441 2.473 . S
O461 C440 1.260 . S
O461 Eu441 2.480 . S
O462 Eu441 2.430 . S
O462 C448 1.259 . S
O463 Eu441 2.670 . S
O463 C448 1.270 . S
O463 Eu451 2.355 1_565 S
O464 Eu441 2.394 1_545 S
O464 C449 1.251 . S
O465 C449 1.251 . S
O465 Eu451 2.374 . S
O466 C450 1.257 . S
O466 Eu451 2.473 1_565 S
O467 C450 1.260 1_545 S
O467 Eu451 2.480 . S
O468 Eu451 2.430 . S
O468 C458 1.259 1_545 S
O469 Eu441 2.355 . S
O469 Eu451 2.670 1_565 S
O469 C458 1.270 . S
O470 Eu451 2.394 1_565 S
O470 C459 1.251 . S
O471 Eu441 2.374 . S
O471 C459 1.251 . S
H472 C443 0.931 . S
H473 C444 0.931 . S
H474 C446 0.931 . S
H475 C447 0.930 1_545 S
H476 C453 0.931 . S
H477 C454 0.931 . S
H478 C456 0.931 . S
H479 C457 0.931 . S
C480 Eu481 2.835 1_545 S
C480 C482 1.500 . S
C480 O500 1.257 . S
C480 O501 1.260 1_545 S
Eu481 C480 2.835 1_565 S
Eu481 O500 2.473 1_565 S
Eu481 O501 2.480 . S
Eu481 O502 2.430 . S
Eu481 O503 2.670 1_465 S
Eu481 O504 2.394 1_565 S
Eu481 O509 2.355 1_465 S
Eu481 O511 2.374 1_455 S
C482 C480 1.500 . S
C482 C483 1.377 . S
C482 C487 1.377 . S
C483 C482 1.377 . S
C483 C484 1.395 . S
C483 H512 0.931 . S
C484 C483 1.395 . S
C484 C485 1.383 . S
C484 H513 0.931 . S
C485 C484 1.383 . S
C485 C486 1.394 . S
C486 C485 1.394 . S
C486 C487 1.378 . S
C486 H514 0.931 . S
C487 C482 1.377 . S
C487 C486 1.378 . S
C487 H515 0.931 . S
C488 O502 1.259 1_645 S
C488 O503 1.270 . S
C489 O504 1.251 . S
C489 O505 1.251 1_455 S
C490 Eu491 2.835 . S
C490 C492 1.500 . S
C490 O506 1.257 . S
C490 O507 1.260 . S
Eu491 C490 2.835 . S
Eu491 O503 2.355 . S
Eu491 O505 2.374 . S
Eu491 O506 2.473 . S
Eu491 O507 2.480 . S
Eu491 O508 2.430 . S
Eu491 O509 2.670 . S
Eu491 O510 2.394 1_545 S
C492 C490 1.500 . S
C492 C493 1.377 . S
C492 C497 1.379 . S
C493 C492 1.377 . S
C493 C494 1.395 . S
C493 H516 0.931 . S
C494 C493 1.395 . S
C494 C495 1.379 1_545 S
C494 H517 0.931 . S
C495 C494 1.379 1_565 S
C495 C496 1.396 . S
C496 C495 1.396 . S
C496 C497 1.377 1_565 S
C496 H518 0.931 . S
C497 C492 1.379 . S
C497 C496 1.377 1_545 S
C497 H519 0.930 1_545 S
C498 O508 1.259 . S
C498 O509 1.270 . S
C499 O510 1.251 . S
C499 O511 1.251 . S
O500 C480 1.257 . S
O500 Eu481 2.473 1_545 S
O501 C480 1.260 1_565 S
O501 Eu481 2.480 . S
O502 Eu481 2.430 . S
O502 C488 1.259 1_465 S
O503 Eu481 2.670 1_645 S
O503 C488 1.270 . S
O503 Eu491 2.355 . S
O504 Eu481 2.394 1_545 S
O504 C489 1.251 . S
O505 C489 1.251 1_655 S
O505 Eu491 2.374 . S
O506 C490 1.257 . S
O506 Eu491 2.473 . S
O507 C490 1.260 . S
O507 Eu491 2.480 . S
O508 Eu491 2.430 . S
O508 C498 1.259 . S
O509 Eu481 2.355 1_645 S
O509 Eu491 2.670 . S
O509 C498 1.270 . S
O510 Eu491 2.394 1_565 S
O510 C499 1.251 . S
O511 Eu481 2.374 1_655 S
O511 C499 1.251 . S
H512 C483 0.931 . S
H513 C484 0.931 . S
H514 C486 0.931 . S
H515 C487 0.931 . S
H516 C493 0.931 . S
H517 C494 0.931 . S
H518 C496 0.931 . S
H519 C497 0.930 1_565 S
C520 Eu521 2.835 . S
C520 C522 1.500 . S
C520 O540 1.257 . S
C520 O541 1.260 . S
Eu521 C520 2.835 . S
Eu521 O540 2.473 . S
Eu521 O541 2.480 . S
Eu521 O542 2.430 . S
Eu521 O543 2.670 . S
Eu521 O544 2.394 . S
Eu521 O549 2.355 . S
Eu521 O551 2.374 . S
C522 C520 1.500 . S
C522 C523 1.377 . S
C522 C527 1.377 . S
C523 C522 1.377 . S
C523 C524 1.395 . S
C523 H552 0.931 . S
C524 C523 1.395 . S
C524 C525 1.383 . S
C524 H553 0.931 . S
C525 C524 1.383 . S
C525 C526 1.394 . S
C526 C525 1.394 . S
C526 C527 1.378 . S
C526 H554 0.931 . S
C527 C522 1.377 . S
C527 C526 1.378 . S
C527 H555 0.931 . S
C528 O542 1.259 . S
C528 O543 1.270 . S
C529 O544 1.251 . S
C529 O545 1.251 . S
C530 Eu531 2.835 . S
C530 C532 1.500 1_655 S
C530 O546 1.257 . S
C530 O547 1.260 . S
Eu531 C530 2.835 . S
Eu531 O543 2.355 . S
Eu531 O545 2.374 . S
Eu531 O546 2.473 . S
Eu531 O547 2.480 . S
Eu531 O548 2.430 . S
Eu531 O549 2.670 . S
Eu531 O550 2.394 . S
C532 C530 1.500 1_455 S
C532 C533 1.377 . S
C532 C537 1.377 . S
C533 C532 1.377 . S
C533 C534 1.395 . S
C533 H556 0.931 . S
C534 C533 1.395 . S
C534 C535 1.383 . S
C534 H557 0.931 . S
C535 C534 1.383 . S
C535 C536 1.394 . S
C536 C535 1.394 . S
C536 C537 1.378 . S
C536 H558 0.931 . S
C537 C532 1.377 . S
C537 C536 1.378 . S
C537 H559 0.931 . S
C538 O548 1.259 . S
C538 O549 1.270 . S
C539 O550 1.251 . S
C539 O551 1.251 . S
O540 C520 1.257 . S
O540 Eu521 2.473 . S
O541 C520 1.260 . S
O541 Eu521 2.480 . S
O542 Eu521 2.430 . S
O542 C528 1.259 . S
O543 Eu521 2.670 . S
O543 C528 1.270 . S
O543 Eu531 2.355 . S
O544 Eu521 2.394 . S
O544 C529 1.251 . S
O545 C529 1.251 . S
O545 Eu531 2.374 . S
O546 C530 1.257 . S
O546 Eu531 2.473 . S
O547 C530 1.260 . S
O547 Eu531 2.480 . S
O548 Eu531 2.430 . S
O548 C538 1.259 . S
O549 Eu521 2.355 . S
O549 Eu531 2.670 . S
O549 C538 1.270 . S
O550 Eu531 2.394 . S
O550 C539 1.251 . S
O551 Eu521 2.374 . S
O551 C539 1.251 . S
H552 C523 0.931 . S
H553 C524 0.931 . S
H554 C526 0.931 . S
H555 C527 0.931 . S
H556 C533 0.931 . S
H557 C534 0.931 . S
H558 C536 0.931 . S
H559 C537 0.931 . S
C560 Eu561 2.835 . S
C560 C562 1.500 . S
C560 O580 1.257 . S
C560 O581 1.260 . S
Eu561 C560 2.835 . S
Eu561 O580 2.473 . S
Eu561 O581 2.480 . S
Eu561 O582 2.430 . S
Eu561 O583 2.670 1_455 S
Eu561 O584 2.394 . S
Eu561 O589 2.355 1_455 S
Eu561 O591 2.374 1_455 S
C562 C560 1.500 . S
C562 C563 1.377 . S
C562 C567 1.377 . S
C563 C562 1.377 . S
C563 C564 1.395 . S
C563 H592 0.931 . S
C564 C563 1.395 . S
C564 C565 1.383 . S
C564 H593 0.931 . S
C565 C564 1.383 . S
C565 C566 1.394 . S
C566 C565 1.394 . S
C566 C567 1.378 . S
C566 H594 0.931 . S
C567 C562 1.377 . S
C567 C566 1.378 . S
C567 H595 0.931 . S
C568 O582 1.259 1_655 S
C568 O583 1.270 . S
C569 O584 1.251 . S
C569 O585 1.251 1_455 S
C570 Eu571 2.835 . S
C570 C572 1.500 . S
C570 O586 1.257 . S
C570 O587 1.260 . S
Eu571 C570 2.835 . S
Eu571 O583 2.355 . S
Eu571 O585 2.374 . S
Eu571 O586 2.473 . S
Eu571 O587 2.480 . S
Eu571 O588 2.430 . S
Eu571 O589 2.670 . S
Eu571 O590 2.394 . S
C572 C570 1.500 . S
C572 C573 1.377 . S
C572 C577 1.377 . S
C573 C572 1.377 . S
C573 C574 1.395 . S
C573 H596 0.931 . S
C574 C573 1.395 . S
C574 C575 1.383 . S
C574 H597 0.931 . S
C575 C574 1.383 . S
C575 C576 1.394 . S
C576 C575 1.394 . S
C576 C577 1.378 . S
C576 H598 0.931 . S
C577 C572 1.377 . S
C577 C576 1.378 . S
C577 H599 0.931 . S
C578 O588 1.259 . S
C578 O589 1.270 . S
C579 O590 1.251 . S
C579 O591 1.251 . S
O580 C560 1.257 . S
O580 Eu561 2.473 . S
O581 C560 1.260 . S
O581 Eu561 2.480 . S
O582 Eu561 2.430 . S
O582 C568 1.259 1_455 S
O583 Eu561 2.670 1_655 S
O583 C568 1.270 . S
O583 Eu571 2.355 . S
O584 Eu561 2.394 . S
O584 C569 1.251 . S
O585 C569 1.251 1_655 S
O585 Eu571 2.374 . S
O586 C570 1.257 . S
O586 Eu571 2.473 . S
O587 C570 1.260 . S
O587 Eu571 2.480 . S
O588 Eu571 2.430 . S
O588 C578 1.259 . S
O589 Eu561 2.355 1_655 S
O589 Eu571 2.670 . S
O589 C578 1.270 . S
O590 Eu571 2.394 . S
O590 C579 1.251 . S
O591 Eu561 2.374 1_655 S
O591 C579 1.251 . S
H592 C563 0.931 . S
H593 C564 0.931 . S
H594 C566 0.931 . S
H595 C567 0.931 . S
H596 C573 0.931 . S
H597 C574 0.931 . S
H598 C576 0.931 . S
H599 C577 0.931 . S
C600 Eu601 2.835 1_545 S
C600 C602 1.500 . S
C600 O620 1.257 . S
C600 O621 1.260 1_545 S
Eu601 C600 2.835 1_565 S
Eu601 O620 2.473 1_565 S
Eu601 O621 2.480 . S
Eu601 O622 2.430 . S
Eu601 O623 2.670 1_565 S
Eu601 O624 2.394 1_565 S
Eu601 O629 2.355 1_565 S
Eu601 O631 2.374 . S
C602 C600 1.500 . S
C602 C603 1.377 . S
C602 C607 1.377 . S
C603 C602 1.377 . S
C603 C604 1.395 . S
C603 H632 0.931 . S
C604 C603 1.395 . S
C604 C605 1.383 . S
C604 H633 0.931 . S
C605 C604 1.383 . S
C605 C606 1.394 . S
C606 C605 1.394 . S
C606 C607 1.378 . S
C606 H634 0.931 . S
C607 C602 1.377 . S
C607 C606 1.378 . S
C607 H635 0.931 . S
C608 O622 1.259 1_545 S
C608 O623 1.270 . S
C609 O624 1.251 . S
C609 O625 1.251 . S
C610 Eu611 2.835 . S
C610 C612 1.500 1_655 S
C610 O626 1.257 . S
C610 O627 1.260 . S
Eu611 C610 2.835 . S
Eu611 O623 2.355 . S
Eu611 O625 2.374 . S
Eu611 O626 2.473 . S
Eu611 O627 2.480 . S
Eu611 O628 2.430 . S
Eu611 O629 2.670 . S
Eu611 O630 2.394 1_545 S
C612 C610 1.500 1_455 S
C612 C613 1.377 . S
C612 C617 1.379 . S
C613 C612 1.377 . S
C613 C614 1.395 . S
C613 H636 0.931 . S
C614 C613 1.395 . S
C614 C615 1.379 1_545 S
C614 H637 0.931 . S
C615 C614 1.379 1_565 S
C615 C616 1.396 . S
C616 C615 1.396 . S
C616 C617 1.377 1_565 S
C616 H638 0.931 . S
C617 C612 1.379 . S
C617 C616 1.377 1_545 S
C617 H639 0.930 1_545 S
C618 O628 1.259 . S
C618 O629 1.270 . S
C619 O630 1.251 . S
C619 O631 1.251 . S
O620 C600 1.257 . S
O620 Eu601 2.473 1_545 S
O621 C600 1.260 1_565 S
O621 Eu601 2.480 . S
O622 Eu601 2.430 . S
O622 C608 1.259 1_565 S
O623 Eu601 2.670 1_545 S
O623 C608 1.270 . S
O623 Eu611 2.355 . S
O624 Eu601 2.394 1_545 S
O624 C609 1.251 . S
O625 C609 1.251 . S
O625 Eu611 2.374 . S
O626 C610 1.257 . S
O626 Eu611 2.473 . S
O627 C610 1.260 . S
O627 Eu611 2.480 . S
O628 Eu611 2.430 . S
O628 C618 1.259 . S
O629 Eu601 2.355 1_545 S
O629 Eu611 2.670 . S
O629 C618 1.270 . S
O630 Eu611 2.394 1_565 S
O630 C619 1.251 . S
O631 Eu601 2.374 . S
O631 C619 1.251 . S
H632 C603 0.931 . S
H633 C604 0.931 . S
H634 C606 0.931 . S
H635 C607 0.931 . S
H636 C613 0.931 . S
H637 C614 0.931 . S
H638 C616 0.931 . S
H639 C617 0.930 1_565 S
C640 Eu641 2.835 . S
C640 C642 1.500 . S
C640 O660 1.257 . S
C640 O661 1.260 . S
Eu641 C640 2.835 . S
Eu641 O660 2.473 . S
Eu641 O661 2.480 . S
Eu641 O662 2.430 . S
Eu641 O663 2.670 . S
Eu641 O664 2.394 . S
Eu641 O669 2.355 . S
Eu641 O671 2.374 . S
C642 C640 1.500 . S
C642 C643 1.377 . S
C642 C647 1.377 . S
C643 C642 1.377 . S
C643 C644 1.395 . S
C643 H672 0.931 . S
C644 C643 1.395 . S
C644 C645 1.383 . S
C644 H673 0.931 . S
C645 C644 1.383 . S
C645 C646 1.394 . S
C646 C645 1.394 . S
C646 C647 1.378 . S
C646 H674 0.931 . S
C647 C642 1.377 . S
C647 C646 1.378 . S
C647 H675 0.931 . S
C648 O662 1.259 . S
C648 O663 1.270 . S
C649 O664 1.251 . S
C649 O665 1.251 . S
C650 Eu651 2.835 . S
C650 C652 1.500 . S
C650 O666 1.257 . S
C650 O667 1.260 . S
Eu651 C650 2.835 . S
Eu651 O663 2.355 . S
Eu651 O665 2.374 . S
Eu651 O666 2.473 . S
Eu651 O667 2.480 . S
Eu651 O668 2.430 . S
Eu651 O669 2.670 . S
Eu651 O670 2.394 . S
C652 C650 1.500 . S
C652 C653 1.377 . S
C652 C657 1.377 . S
C653 C652 1.377 . S
C653 C654 1.395 . S
C653 H676 0.931 . S
C654 C653 1.395 . S
C654 C655 1.383 . S
C654 H677 0.931 . S
C655 C654 1.383 . S
C655 C656 1.394 . S
C656 C655 1.394 . S
C656 C657 1.378 . S
C656 H678 0.931 . S
C657 C652 1.377 . S
C657 C656 1.378 . S
C657 H679 0.931 . S
C658 O668 1.259 . S
C658 O669 1.270 . S
C659 O670 1.251 . S
C659 O671 1.251 . S
O660 C640 1.257 . S
O660 Eu641 2.473 . S
O661 C640 1.260 . S
O661 Eu641 2.480 . S
O662 Eu641 2.430 . S
O662 C648 1.259 . S
O663 Eu641 2.670 . S
O663 C648 1.270 . S
O663 Eu651 2.355 . S
O664 Eu641 2.394 . S
O664 C649 1.251 . S
O665 C649 1.251 . S
O665 Eu651 2.374 . S
O666 C650 1.257 . S
O666 Eu651 2.473 . S
O667 C650 1.260 . S
O667 Eu651 2.480 . S
O668 Eu651 2.430 . S
O668 C658 1.259 . S
O669 Eu641 2.355 . S
O669 Eu651 2.670 . S
O669 C658 1.270 . S
O670 Eu651 2.394 . S
O670 C659 1.251 . S
O671 Eu641 2.374 . S
O671 C659 1.251 . S
H672 C643 0.931 . S
H673 C644 0.931 . S
H674 C646 0.931 . S
H675 C647 0.931 . S
H676 C653 0.931 . S
H677 C654 0.931 . S
H678 C656 0.931 . S
H679 C657 0.931 . S
C680 Eu681 2.835 . S
C680 C682 1.500 . S
C680 O700 1.257 . S
C680 O701 1.260 . S
Eu681 C680 2.835 . S
Eu681 O700 2.473 . S
Eu681 O701 2.480 . S
Eu681 O702 2.430 . S
Eu681 O703 2.670 . S
Eu681 O704 2.394 . S
Eu681 O709 2.355 . S
Eu681 O711 2.374 . S
C682 C680 1.500 . S
C682 C683 1.377 . S
C682 C687 1.377 . S
C683 C682 1.377 . S
C683 C684 1.395 . S
C683 H712 0.931 . S
C684 C683 1.395 . S
C684 C685 1.383 . S
C684 H713 0.931 . S
C685 C684 1.383 . S
C685 C686 1.394 . S
C686 C685 1.394 . S
C686 C687 1.378 . S
C686 H714 0.931 . S
C687 C682 1.377 . S
C687 C686 1.378 . S
C687 H715 0.931 . S
C688 O702 1.259 . S
C688 O703 1.270 . S
C689 O704 1.251 . S
C689 O705 1.251 . S
C690 Eu691 2.835 . S
C690 C692 1.500 . S
C690 O706 1.257 . S
C690 O707 1.260 . S
Eu691 C690 2.835 . S
Eu691 O703 2.355 . S
Eu691 O705 2.374 . S
Eu691 O706 2.473 . S
Eu691 O707 2.480 . S
Eu691 O708 2.430 . S
Eu691 O709 2.670 . S
Eu691 O710 2.394 . S
C692 C690 1.500 . S
C692 C693 1.377 . S
C692 C697 1.377 . S
C693 C692 1.377 . S
C693 C694 1.395 1_655 S
C693 H716 0.931 . S
C694 C693 1.395 1_455 S
C694 C695 1.383 . S
C694 H717 0.931 . S
C695 C694 1.383 . S
C695 C696 1.394 . S
C696 C695 1.394 . S
C696 C697 1.378 1_455 S
C696 H718 0.931 . S
C697 C692 1.377 . S
C697 C696 1.378 1_655 S
C697 H719 0.931 . S
C698 O708 1.259 . S
C698 O709 1.270 . S
C699 O710 1.251 . S
C699 O711 1.251 . S
O700 C680 1.257 . S
O700 Eu681 2.473 . S
O701 C680 1.260 . S
O701 Eu681 2.480 . S
O702 Eu681 2.430 . S
O702 C688 1.259 . S
O703 Eu681 2.670 . S
O703 C688 1.270 . S
O703 Eu691 2.355 . S
O704 Eu681 2.394 . S
O704 C689 1.251 . S
O705 C689 1.251 . S
O705 Eu691 2.374 . S
O706 C690 1.257 . S
O706 Eu691 2.473 . S
O707 C690 1.260 . S
O707 Eu691 2.480 . S
O708 Eu691 2.430 . S
O708 C698 1.259 . S
O709 Eu681 2.355 . S
O709 Eu691 2.670 . S
O709 C698 1.270 . S
O710 Eu691 2.394 . S
O710 C699 1.251 . S
O711 Eu681 2.374 . S
O711 C699 1.251 . S
H712 C683 0.931 . S
H713 C684 0.931 . S
H714 C686 0.931 . S
H715 C687 0.931 . S
H716 C693 0.931 . S
H717 C694 0.931 . S
H718 C696 0.931 . S
H719 C697 0.931 . S
C720 Eu721 2.835 . S
C720 C722 1.500 . S
C720 O740 1.257 . S
C720 O741 1.260 . S
Eu721 C720 2.835 . S
Eu721 O740 2.473 . S
Eu721 O741 2.480 . S
Eu721 O742 2.430 . S
Eu721 O743 2.670 . S
Eu721 O744 2.394 . S
Eu721 O749 2.355 . S
Eu721 O751 2.374 . S
C722 C720 1.500 . S
C722 C723 1.377 . S
C722 C727 1.377 . S
C723 C722 1.377 . S
C723 C724 1.395 . S
C723 H752 0.931 . S
C724 C723 1.395 . S
C724 C725 1.383 . S
C724 H753 0.931 . S
C725 C724 1.383 . S
C725 C726 1.394 . S
C726 C725 1.394 . S
C726 C727 1.378 . S
C726 H754 0.931 . S
C727 C722 1.377 . S
C727 C726 1.378 . S
C727 H755 0.931 . S
C728 O742 1.259 . S
C728 O743 1.270 . S
C729 O744 1.251 . S
C729 O745 1.251 . S
C730 Eu731 2.835 . S
C730 C732 1.500 . S
C730 O746 1.257 . S
C730 O747 1.260 . S
Eu731 C730 2.835 . S
Eu731 O743 2.355 . S
Eu731 O745 2.374 . S
Eu731 O746 2.473 . S
Eu731 O747 2.480 . S
Eu731 O748 2.430 . S
Eu731 O749 2.670 . S
Eu731 O750 2.394 . S
C732 C730 1.500 . S
C732 C733 1.377 . S
C732 C737 1.377 . S
C733 C732 1.377 . S
C733 C734 1.395 . S
C733 H756 0.931 . S
C734 C733 1.395 . S
C734 C735 1.383 . S
C734 H757 0.931 . S
C735 C734 1.383 . S
C735 C736 1.394 . S
C736 C735 1.394 . S
C736 C737 1.378 . S
C736 H758 0.931 . S
C737 C732 1.377 . S
C737 C736 1.378 . S
C737 H759 0.931 . S
C738 O748 1.259 . S
C738 O749 1.270 . S
C739 O750 1.251 . S
C739 O751 1.251 . S
O740 C720 1.257 . S
O740 Eu721 2.473 . S
O741 C720 1.260 . S
O741 Eu721 2.480 . S
O742 Eu721 2.430 . S
O742 C728 1.259 . S
O743 Eu721 2.670 . S
O743 C728 1.270 . S
O743 Eu731 2.355 . S
O744 Eu721 2.394 . S
O744 C729 1.251 . S
O745 C729 1.251 . S
O745 Eu731 2.374 . S
O746 C730 1.257 . S
O746 Eu731 2.473 . S
O747 C730 1.260 . S
O747 Eu731 2.480 . S
O748 Eu731 2.430 . S
O748 C738 1.259 . S
O749 Eu721 2.355 . S
O749 Eu731 2.670 . S
O749 C738 1.270 . S
O750 Eu731 2.394 . S
O750 C739 1.251 . S
O751 Eu721 2.374 . S
O751 C739 1.251 . S
H752 C723 0.931 . S
H753 C724 0.931 . S
H754 C726 0.931 . S
H755 C727 0.931 . S
H756 C733 0.931 . S
H757 C734 0.931 . S
H758 C736 0.931 . S
H759 C737 0.931 . S
C760 Eu761 2.835 . S
C760 C762 1.500 . S
C760 O780 1.257 . S
C760 O781 1.260 . S
Eu761 C760 2.835 . S
Eu761 O780 2.473 . S
Eu761 O781 2.480 . S
Eu761 O782 2.430 . S
Eu761 O783 2.670 . S
Eu761 O784 2.394 . S
Eu761 O789 2.355 . S
Eu761 O791 2.374 . S
C762 C760 1.500 . S
C762 C763 1.377 . S
C762 C767 1.377 . S
C763 C762 1.377 . S
C763 C764 1.395 . S
C763 H792 0.931 . S
C764 C763 1.395 . S
C764 C765 1.383 . S
C764 H793 0.931 . S
C765 C764 1.383 . S
C765 C766 1.394 . S
C766 C765 1.394 . S
C766 C767 1.378 . S
C766 H794 0.931 . S
C767 C762 1.377 . S
C767 C766 1.378 . S
C767 H795 0.931 . S
C768 O782 1.259 . S
C768 O783 1.270 . S
C769 O784 1.251 . S
C769 O785 1.251 . S
C770 Eu771 2.835 . S
C770 C772 1.500 . S
C770 O786 1.257 . S
C770 O787 1.260 . S
Eu771 C770 2.835 . S
Eu771 O783 2.355 . S
Eu771 O785 2.374 . S
Eu771 O786 2.473 . S
Eu771 O787 2.480 . S
Eu771 O788 2.430 . S
Eu771 O789 2.670 . S
Eu771 O790 2.394 . S
C772 C770 1.500 . S
C772 C773 1.377 . S
C772 C777 1.377 . S
C773 C772 1.377 . S
C773 C774 1.395 1_655 S
C773 H796 0.931 . S
C774 C773 1.395 1_455 S
C774 C775 1.383 . S
C774 H797 0.931 . S
C775 C774 1.383 . S
C775 C776 1.394 . S
C776 C775 1.394 . S
C776 C777 1.378 1_455 S
C776 H798 0.931 . S
C777 C772 1.377 . S
C777 C776 1.378 1_655 S
C777 H799 0.931 . S
C778 O788 1.259 . S
C778 O789 1.270 . S
C779 O790 1.251 . S
C779 O791 1.251 . S
O780 C760 1.257 . S
O780 Eu761 2.473 . S
O781 C760 1.260 . S
O781 Eu761 2.480 . S
O782 Eu761 2.430 . S
O782 C768 1.259 . S
O783 Eu761 2.670 . S
O783 C768 1.270 . S
O783 Eu771 2.355 . S
O784 Eu761 2.394 . S
O784 C769 1.251 . S
O785 C769 1.251 . S
O785 Eu771 2.374 . S
O786 C770 1.257 . S
O786 Eu771 2.473 . S
O787 C770 1.260 . S
O787 Eu771 2.480 . S
O788 Eu771 2.430 . S
O788 C778 1.259 . S
O789 Eu761 2.355 . S
O789 Eu771 2.670 . S
O789 C778 1.270 . S
O790 Eu771 2.394 . S
O790 C779 1.251 . S
O791 Eu761 2.374 . S
O791 C779 1.251 . S
H792 C763 0.931 . S
H793 C764 0.931 . S
H794 C766 0.931 . S
H795 C767 0.931 . S
H796 C773 0.931 . S
H797 C774 0.931 . S
H798 C776 0.931 . S
H799 C777 0.931 . S
C800 Eu801 2.835 . S
C800 C802 1.500 . S
C800 O820 1.257 . S
C800 O821 1.260 . S
Eu801 C800 2.835 . S
Eu801 O820 2.473 . S
Eu801 O821 2.480 . S
Eu801 O822 2.430 . S
Eu801 O823 2.670 . S
Eu801 O824 2.394 . S
Eu801 O829 2.355 . S
Eu801 O831 2.374 . S
C802 C800 1.500 . S
C802 C803 1.377 . S
C802 C807 1.377 . S
C803 C802 1.377 . S
C803 C804 1.395 . S
C803 H832 0.931 . S
C804 C803 1.395 . S
C804 C805 1.383 . S
C804 H833 0.931 . S
C805 C804 1.383 . S
C805 C806 1.394 . S
C806 C805 1.394 . S
C806 C807 1.378 . S
C806 H834 0.931 . S
C807 C802 1.377 . S
C807 C806 1.378 . S
C807 H835 0.931 . S
C808 O822 1.259 . S
C808 O823 1.270 . S
C809 O824 1.251 . S
C809 O825 1.251 . S
C810 Eu811 2.835 . S
C810 C812 1.500 . S
C810 O826 1.257 . S
C810 O827 1.260 . S
Eu811 C810 2.835 . S
Eu811 O823 2.355 . S
Eu811 O825 2.374 . S
Eu811 O826 2.473 . S
Eu811 O827 2.480 . S
Eu811 O828 2.430 . S
Eu811 O829 2.670 . S
Eu811 O830 2.394 . S
C812 C810 1.500 . S
C812 C813 1.377 . S
C812 C817 1.377 . S
C813 C812 1.377 . S
C813 C814 1.395 . S
C813 H836 0.931 . S
C814 C813 1.395 . S
C814 C815 1.383 . S
C814 H837 0.931 . S
C815 C814 1.383 . S
C815 C816 1.394 . S
C816 C815 1.394 . S
C816 C817 1.378 . S
C816 H838 0.931 . S
C817 C812 1.377 . S
C817 C816 1.378 . S
C817 H839 0.931 . S
C818 O828 1.259 . S
C818 O829 1.270 . S
C819 O830 1.251 . S
C819 O831 1.251 . S
O820 C800 1.257 . S
O820 Eu801 2.473 . S
O821 C800 1.260 . S
O821 Eu801 2.480 . S
O822 Eu801 2.430 . S
O822 C808 1.259 . S
O823 Eu801 2.670 . S
O823 C808 1.270 . S
O823 Eu811 2.355 . S
O824 Eu801 2.394 . S
O824 C809 1.251 . S
O825 C809 1.251 . S
O825 Eu811 2.374 . S
O826 C810 1.257 . S
O826 Eu811 2.473 . S
O827 C810 1.260 . S
O827 Eu811 2.480 . S
O828 Eu811 2.430 . S
O828 C818 1.259 . S
O829 Eu801 2.355 . S
O829 Eu811 2.670 . S
O829 C818 1.270 . S
O830 Eu811 2.394 . S
O830 C819 1.251 . S
O831 Eu801 2.374 . S
O831 C819 1.251 . S
H832 C803 0.931 . S
H833 C804 0.931 . S
H834 C806 0.931 . S
H835 C807 0.931 . S
H836 C813 0.931 . S
H837 C814 0.931 . S
H838 C816 0.931 . S
H839 C817 0.931 . S
C840 Eu841 2.835 . S
C840 C842 1.500 . S
C840 O860 1.257 . S
C840 O861 1.260 . S
Eu841 C840 2.835 . S
Eu841 O860 2.473 . S
Eu841 O861 2.480 . S
Eu841 O862 2.430 . S
Eu841 O863 2.670 . S
Eu841 O864 2.394 . S
Eu841 O869 2.355 . S
Eu841 O871 2.374 . S
C842 C840 1.500 . S
C842 C843 1.377 . S
C842 C847 1.377 . S
C843 C842 1.377 . S
C843 C844 1.395 1_455 S
C843 H872 0.931 . S
C844 C843 1.395 1_655 S
C844 C845 1.383 . S
C844 H873 0.931 . S
C845 C844 1.383 . S
C845 C846 1.394 . S
C846 C845 1.394 . S
C846 C847 1.378 1_655 S
C846 H874 0.931 . S
C847 C842 1.377 . S
C847 C846 1.378 1_455 S
C847 H875 0.931 . S
C848 O862 1.259 . S
C848 O863 1.270 . S
C849 O864 1.251 . S
C849 O865 1.251 . S
C850 Eu851 2.835 . S
C850 C852 1.500 . S
C850 O866 1.257 . S
C850 O867 1.260 . S
Eu851 C850 2.835 . S
Eu851 O863 2.355 . S
Eu851 O865 2.374 . S
Eu851 O866 2.473 . S
Eu851 O867 2.480 . S
Eu851 O868 2.430 . S
Eu851 O869 2.670 . S
Eu851 O870 2.394 . S
C852 C850 1.500 . S
C852 C853 1.377 . S
C852 C857 1.377 . S
C853 C852 1.377 . S
C853 C854 1.395 . S
C853 H876 0.931 . S
C854 C853 1.395 . S
C854 C855 1.383 . S
C854 H877 0.931 . S
C855 C854 1.383 . S
C855 C856 1.394 . S
C856 C855 1.394 . S
C856 C857 1.378 . S
C856 H878 0.931 . S
C857 C852 1.377 . S
C857 C856 1.378 . S
C857 H879 0.931 . S
C858 O868 1.259 . S
C858 O869 1.270 . S
C859 O870 1.251 . S
C859 O871 1.251 . S
O860 C840 1.257 . S
O860 Eu841 2.473 . S
O861 C840 1.260 . S
O861 Eu841 2.480 . S
O862 Eu841 2.430 . S
O862 C848 1.259 . S
O863 Eu841 2.670 . S
O863 C848 1.270 . S
O863 Eu851 2.355 . S
O864 Eu841 2.394 . S
O864 C849 1.251 . S
O865 C849 1.251 . S
O865 Eu851 2.374 . S
O866 C850 1.257 . S
O866 Eu851 2.473 . S
O867 C850 1.260 . S
O867 Eu851 2.480 . S
O868 Eu851 2.430 . S
O868 C858 1.259 . S
O869 Eu841 2.355 . S
O869 Eu851 2.670 . S
O869 C858 1.270 . S
O870 Eu851 2.394 . S
O870 C859 1.251 . S
O871 Eu841 2.374 . S
O871 C859 1.251 . S
H872 C843 0.931 . S
H873 C844 0.931 . S
H874 C846 0.931 . S
H875 C847 0.931 . S
H876 C853 0.931 . S
H877 C854 0.931 . S
H878 C856 0.931 . S
H879 C857 0.931 . S
C880 Eu881 2.835 . S
C880 C882 1.500 . S
C880 O900 1.257 . S
C880 O901 1.260 . S
Eu881 C880 2.835 . S
Eu881 O900 2.473 . S
Eu881 O901 2.480 . S
Eu881 O902 2.430 . S
Eu881 O903 2.670 . S
Eu881 O904 2.394 . S
Eu881 O909 2.355 . S
Eu881 O911 2.374 . S
C882 C880 1.500 . S
C882 C883 1.377 . S
C882 C887 1.377 . S
C883 C882 1.377 . S
C883 C884 1.395 . S
C883 H912 0.931 . S
C884 C883 1.395 . S
C884 C885 1.383 . S
C884 H913 0.931 . S
C885 C884 1.383 . S
C885 C886 1.394 . S
C886 C885 1.394 . S
C886 C887 1.378 . S
C886 H914 0.931 . S
C887 C882 1.377 . S
C887 C886 1.378 . S
C887 H915 0.931 . S
C888 O902 1.259 . S
C888 O903 1.270 . S
C889 O904 1.251 . S
C889 O905 1.251 . S
C890 Eu891 2.835 . S
C890 C892 1.500 . S
C890 O906 1.257 . S
C890 O907 1.260 . S
Eu891 C890 2.835 . S
Eu891 O903 2.355 . S
Eu891 O905 2.374 . S
Eu891 O906 2.473 . S
Eu891 O907 2.480 . S
Eu891 O908 2.430 . S
Eu891 O909 2.670 . S
Eu891 O910 2.394 . S
C892 C890 1.500 . S
C892 C893 1.377 . S
C892 C897 1.377 . S
C893 C892 1.377 . S
C893 C894 1.395 . S
C893 H916 0.931 . S
C894 C893 1.395 . S
C894 C895 1.383 . S
C894 H917 0.931 . S
C895 C894 1.383 . S
C895 C896 1.394 . S
C896 C895 1.394 . S
C896 C897 1.378 . S
C896 H918 0.931 . S
C897 C892 1.377 . S
C897 C896 1.378 . S
C897 H919 0.931 . S
C898 O908 1.259 . S
C898 O909 1.270 . S
C899 O910 1.251 . S
C899 O911 1.251 . S
O900 C880 1.257 . S
O900 Eu881 2.473 . S
O901 C880 1.260 . S
O901 Eu881 2.480 . S
O902 Eu881 2.430 . S
O902 C888 1.259 . S
O903 Eu881 2.670 . S
O903 C888 1.270 . S
O903 Eu891 2.355 . S
O904 Eu881 2.394 . S
O904 C889 1.251 . S
O905 C889 1.251 . S
O905 Eu891 2.374 . S
O906 C890 1.257 . S
O906 Eu891 2.473 . S
O907 C890 1.260 . S
O907 Eu891 2.480 . S
O908 Eu891 2.430 . S
O908 C898 1.259 . S
O909 Eu881 2.355 . S
O909 Eu891 2.670 . S
O909 C898 1.270 . S
O910 Eu891 2.394 . S
O910 C899 1.251 . S
O911 Eu881 2.374 . S
O911 C899 1.251 . S
H912 C883 0.931 . S
H913 C884 0.931 . S
H914 C886 0.931 . S
H915 C887 0.931 . S
H916 C893 0.931 . S
H917 C894 0.931 . S
H918 C896 0.931 . S
H919 C897 0.931 . S
C920 Eu921 2.835 . S
C920 C922 1.500 . S
C920 O940 1.257 . S
C920 O941 1.260 . S
Eu921 C920 2.835 . S
Eu921 O940 2.473 . S
Eu921 O941 2.480 . S
Eu921 O942 2.430 . S
Eu921 O943 2.670 . S
Eu921 O944 2.394 . S
Eu921 O949 2.355 . S
Eu921 O951 2.374 . S
C922 C920 1.500 . S
C922 C923 1.377 . S
C922 C927 1.377 . S
C923 C922 1.377 . S
C923 C924 1.395 1_455 S
C923 H952 0.931 . S
C924 C923 1.395 1_655 S
C924 C925 1.383 . S
C924 H953 0.931 . S
C925 C924 1.383 . S
C925 C926 1.394 . S
C926 C925 1.394 . S
C926 C927 1.378 1_655 S
C926 H954 0.931 . S
C927 C922 1.377 . S
C927 C926 1.378 1_455 S
C927 H955 0.931 . S
C928 O942 1.259 . S
C928 O943 1.270 . S
C929 O944 1.251 . S
C929 O945 1.251 . S
C930 Eu931 2.835 . S
C930 C932 1.500 . S
C930 O946 1.257 . S
C930 O947 1.260 . S
Eu931 C930 2.835 . S
Eu931 O943 2.355 . S
Eu931 O945 2.374 . S
Eu931 O946 2.473 . S
Eu931 O947 2.480 . S
Eu931 O948 2.430 . S
Eu931 O949 2.670 . S
Eu931 O950 2.394 . S
C932 C930 1.500 . S
C932 C933 1.377 . S
C932 C937 1.377 . S
C933 C932 1.377 . S
C933 C934 1.395 . S
C933 H956 0.931 . S
C934 C933 1.395 . S
C934 C935 1.383 . S
C934 H957 0.931 . S
C935 C934 1.383 . S
C935 C936 1.394 . S
C936 C935 1.394 . S
C936 C937 1.378 . S
C936 H958 0.931 . S
C937 C932 1.377 . S
C937 C936 1.378 . S
C937 H959 0.931 . S
C938 O948 1.259 . S
C938 O949 1.270 . S
C939 O950 1.251 . S
C939 O951 1.251 . S
O940 C920 1.257 . S
O940 Eu921 2.473 . S
O941 C920 1.260 . S
O941 Eu921 2.480 . S
O942 Eu921 2.430 . S
O942 C928 1.259 . S
O943 Eu921 2.670 . S
O943 C928 1.270 . S
O943 Eu931 2.355 . S
O944 Eu921 2.394 . S
O944 C929 1.251 . S
O945 C929 1.251 . S
O945 Eu931 2.374 . S
O946 C930 1.257 . S
O946 Eu931 2.473 . S
O947 C930 1.260 . S
O947 Eu931 2.480 . S
O948 Eu931 2.430 . S
O948 C938 1.259 . S
O949 Eu921 2.355 . S
O949 Eu931 2.670 . S
O949 C938 1.270 . S
O950 Eu931 2.394 . S
O950 C939 1.251 . S
O951 Eu921 2.374 . S
O951 C939 1.251 . S
H952 C923 0.931 . S
H953 C924 0.931 . S
H954 C926 0.931 . S
H955 C927 0.931 . S
H956 C933 0.931 . S
H957 C934 0.931 . S
H958 C936 0.931 . S
H959 C937 0.931 . S
C960 Eu961 2.835 . S
C960 C962 1.500 . S
C960 O980 1.257 . S
C960 O981 1.260 . S
Eu961 C960 2.835 . S
Eu961 O980 2.473 . S
Eu961 O981 2.480 . S
Eu961 O982 2.430 . S
Eu961 O983 2.670 . S
Eu961 O984 2.394 1_565 S
Eu961 O989 2.355 . S
Eu961 O991 2.374 . S
C962 C960 1.500 . S
C962 C963 1.377 . S
C962 C967 1.379 . S
C963 C962 1.377 . S
C963 C964 1.395 . S
C963 H992 0.931 . S
C964 C963 1.395 . S
C964 C965 1.379 1_565 S
C964 H993 0.931 . S
C965 C964 1.379 1_545 S
C965 C966 1.396 . S
C966 C965 1.396 . S
C966 C967 1.377 1_545 S
C966 H994 0.931 . S
C967 C962 1.379 . S
C967 C966 1.377 1_565 S
C967 H995 0.930 1_565 S
C968 O982 1.259 . S
C968 O983 1.270 . S
C969 O984 1.251 . S
C969 O985 1.251 . S
C970 Eu971 2.835 1_565 S
C970 C972 1.500 . S
C970 O986 1.257 . S
C970 O987 1.260 1_565 S
Eu971 C970 2.835 1_545 S
Eu971 O983 2.355 1_545 S
Eu971 O985 2.374 . S
Eu971 O986 2.473 1_545 S
Eu971 O987 2.480 . S
Eu971 O988 2.430 . S
Eu971 O989 2.670 1_545 S
Eu971 O990 2.394 1_545 S
C972 C970 1.500 . S
C972 C973 1.377 . S
C972 C977 1.377 . S
C973 C972 1.377 . S
C973 C974 1.395 . S
C973 H996 0.931 . S
C974 C973 1.395 . S
C974 C975 1.383 . S
C974 H997 0.931 . S
C975 C974 1.383 . S
C975 C976 1.394 . S
C976 C975 1.394 . S
C976 C977 1.378 . S
C976 H998 0.931 . S
C977 C972 1.377 . S
C977 C976 1.378 . S
C977 H999 0.931 . S
C978 O988 1.259 1_565 S
C978 O989 1.270 . S
C979 O990 1.251 . S
C979 O991 1.251 . S
O980 C960 1.257 . S
O980 Eu961 2.473 . S
O981 C960 1.260 . S
O981 Eu961 2.480 . S
O982 Eu961 2.430 . S
O982 C968 1.259 . S
O983 Eu961 2.670 . S
O983 C968 1.270 . S
O983 Eu971 2.355 1_565 S
O984 Eu961 2.394 1_545 S
O984 C969 1.251 . S
O985 C969 1.251 . S
O985 Eu971 2.374 . S
O986 C970 1.257 . S
O986 Eu971 2.473 1_565 S
O987 C970 1.260 1_545 S
O987 Eu971 2.480 . S
O988 Eu971 2.430 . S
O988 C978 1.259 1_545 S
O989 Eu961 2.355 . S
O989 Eu971 2.670 1_565 S
O989 C978 1.270 . S
O990 Eu971 2.394 1_565 S
O990 C979 1.251 . S
O991 Eu961 2.374 . S
O991 C979 1.251 . S
H992 C963 0.931 . S
H993 C964 0.931 . S
H994 C966 0.931 . S
H995 C967 0.930 1_545 S
H996 C973 0.931 . S
H997 C974 0.931 . S
H998 C976 0.931 . S
H999 C977 0.931 . S
C1000 Eu1001 2.835 . S
C1000 C1002 1.500 . S
C1000 O1020 1.257 . S
C1000 O1021 1.260 . S
Eu1001 C1000 2.835 . S
Eu1001 O1020 2.473 . S
Eu1001 O1021 2.480 . S
Eu1001 O1022 2.430 . S
Eu1001 O1023 2.670 . S
Eu1001 O1024 2.394 . S
Eu1001 O1029 2.355 . S
Eu1001 O1031 2.374 . S
C1002 C1000 1.500 . S
C1002 C1003 1.377 . S
C1002 C1007 1.377 . S
C1003 C1002 1.377 . S
C1003 C1004 1.395 . S
C1003 H1032 0.931 . S
C1004 C1003 1.395 . S
C1004 C1005 1.383 . S
C1004 H1033 0.931 . S
C1005 C1004 1.383 . S
C1005 C1006 1.394 . S
C1006 C1005 1.394 . S
C1006 C1007 1.378 . S
C1006 H1034 0.931 . S
C1007 C1002 1.377 . S
C1007 C1006 1.378 . S
C1007 H1035 0.931 . S
C1008 O1022 1.259 . S
C1008 O1023 1.270 . S
C1009 O1024 1.251 . S
C1009 O1025 1.251 . S
C1010 Eu1011 2.835 . S
C1010 C1012 1.500 . S
C1010 O1026 1.257 . S
C1010 O1027 1.260 . S
Eu1011 C1010 2.835 . S
Eu1011 O1023 2.355 . S
Eu1011 O1025 2.374 . S
Eu1011 O1026 2.473 . S
Eu1011 O1027 2.480 . S
Eu1011 O1028 2.430 . S
Eu1011 O1029 2.670 . S
Eu1011 O1030 2.394 . S
C1012 C1010 1.500 . S
C1012 C1013 1.377 . S
C1012 C1017 1.377 . S
C1013 C1012 1.377 . S
C1013 C1014 1.395 1_655 S
C1013 H1036 0.931 . S
C1014 C1013 1.395 1_455 S
C1014 C1015 1.383 . S
C1014 H1037 0.931 . S
C1015 C1014 1.383 . S
C1015 C1016 1.394 . S
C1016 C1015 1.394 . S
C1016 C1017 1.378 1_455 S
C1016 H1038 0.931 . S
C1017 C1012 1.377 . S
C1017 C1016 1.378 1_655 S
C1017 H1039 0.931 . S
C1018 O1028 1.259 . S
C1018 O1029 1.270 . S
C1019 O1030 1.251 . S
C1019 O1031 1.251 . S
O1020 C1000 1.257 . S
O1020 Eu1001 2.473 . S
O1021 C1000 1.260 . S
O1021 Eu1001 2.480 . S
O1022 Eu1001 2.430 . S
O1022 C1008 1.259 . S
O1023 Eu1001 2.670 . S
O1023 C1008 1.270 . S
O1023 Eu1011 2.355 . S
O1024 Eu1001 2.394 . S
O1024 C1009 1.251 . S
O1025 C1009 1.251 . S
O1025 Eu1011 2.374 . S
O1026 C1010 1.257 . S
O1026 Eu1011 2.473 . S
O1027 C1010 1.260 . S
O1027 Eu1011 2.480 . S
O1028 Eu1011 2.430 . S
O1028 C1018 1.259 . S
O1029 Eu1001 2.355 . S
O1029 Eu1011 2.670 . S
O1029 C1018 1.270 . S
O1030 Eu1011 2.394 . S
O1030 C1019 1.251 . S
O1031 Eu1001 2.374 . S
O1031 C1019 1.251 . S
H1032 C1003 0.931 . S
H1033 C1004 0.931 . S
H1034 C1006 0.931 . S
H1035 C1007 0.931 . S
H1036 C1013 0.931 . S
H1037 C1014 0.931 . S
H1038 C1016 0.931 . S
H1039 C1017 0.931 . S
C1040 Eu1041 2.835 . S
C1040 C1042 1.500 . S
C1040 O1060 1.257 . S
C1040 O1061 1.260 . S
Eu1041 C1040 2.835 . S
Eu1041 O1060 2.473 . S
Eu1041 O1061 2.480 . S
Eu1041 O1062 2.430 . S
Eu1041 O1063 2.670 . S
Eu1041 O1064 2.394 . S
Eu1041 O1069 2.355 . S
Eu1041 O1071 2.374 . S
C1042 C1040 1.500 . S
C1042 C1043 1.377 . S
C1042 C1047 1.377 . S
C1043 C1042 1.377 . S
C1043 C1044 1.395 . S
C1043 H1072 0.931 . S
C1044 C1043 1.395 . S
C1044 C1045 1.383 . S
C1044 H1073 0.931 . S
C1045 C1044 1.383 . S
C1045 C1046 1.394 . S
C1046 C1045 1.394 . S
C1046 C1047 1.378 . S
C1046 H1074 0.931 . S
C1047 C1042 1.377 . S
C1047 C1046 1.378 . S
C1047 H1075 0.931 . S
C1048 O1062 1.259 . S
C1048 O1063 1.270 . S
C1049 O1064 1.251 . S
C1049 O1065 1.251 . S
C1050 Eu1051 2.835 . S
C1050 C1052 1.500 . S
C1050 O1066 1.257 . S
C1050 O1067 1.260 . S
Eu1051 C1050 2.835 . S
Eu1051 O1063 2.355 . S
Eu1051 O1065 2.374 . S
Eu1051 O1066 2.473 . S
Eu1051 O1067 2.480 . S
Eu1051 O1068 2.430 . S
Eu1051 O1069 2.670 . S
Eu1051 O1070 2.394 . S
C1052 C1050 1.500 . S
C1052 C1053 1.377 . S
C1052 C1057 1.377 . S
C1053 C1052 1.377 . S
C1053 C1054 1.395 . S
C1053 H1076 0.931 . S
C1054 C1053 1.395 . S
C1054 C1055 1.383 . S
C1054 H1077 0.931 . S
C1055 C1054 1.383 . S
C1055 C1056 1.394 . S
C1056 C1055 1.394 . S
C1056 C1057 1.378 . S
C1056 H1078 0.931 . S
C1057 C1052 1.377 . S
C1057 C1056 1.378 . S
C1057 H1079 0.931 . S
C1058 O1068 1.259 . S
C1058 O1069 1.270 . S
C1059 O1070 1.251 . S
C1059 O1071 1.251 . S
O1060 C1040 1.257 . S
O1060 Eu1041 2.473 . S
O1061 C1040 1.260 . S
O1061 Eu1041 2.480 . S
O1062 Eu1041 2.430 . S
O1062 C1048 1.259 . S
O1063 Eu1041 2.670 . S
O1063 C1048 1.270 . S
O1063 Eu1051 2.355 . S
O1064 Eu1041 2.394 . S
O1064 C1049 1.251 . S
O1065 C1049 1.251 . S
O1065 Eu1051 2.374 . S
O1066 C1050 1.257 . S
O1066 Eu1051 2.473 . S
O1067 C1050 1.260 . S
O1067 Eu1051 2.480 . S
O1068 Eu1051 2.430 . S
O1068 C1058 1.259 . S
O1069 Eu1041 2.355 . S
O1069 Eu1051 2.670 . S
O1069 C1058 1.270 . S
O1070 Eu1051 2.394 . S
O1070 C1059 1.251 . S
O1071 Eu1041 2.374 . S
O1071 C1059 1.251 . S
H1072 C1043 0.931 . S
H1073 C1044 0.931 . S
H1074 C1046 0.931 . S
H1075 C1047 0.931 . S
H1076 C1053 0.931 . S
H1077 C1054 0.931 . S
H1078 C1056 0.931 . S
H1079 C1057 0.931 . S
C1080 Eu1081 2.835 . S
C1080 C1082 1.500 . S
C1080 O1100 1.257 . S
C1080 O1101 1.260 . S
Eu1081 C1080 2.835 . S
Eu1081 O1100 2.473 . S
Eu1081 O1101 2.480 . S
Eu1081 O1102 2.430 . S
Eu1081 O1103 2.670 . S
Eu1081 O1104 2.394 1_565 S
Eu1081 O1109 2.355 . S
Eu1081 O1111 2.374 . S
C1082 C1080 1.500 . S
C1082 C1083 1.377 . S
C1082 C1087 1.379 . S
C1083 C1082 1.377 . S
C1083 C1084 1.395 . S
C1083 H1112 0.931 . S
C1084 C1083 1.395 . S
C1084 C1085 1.379 1_565 S
C1084 H1113 0.931 . S
C1085 C1084 1.379 1_545 S
C1085 C1086 1.396 . S
C1086 C1085 1.396 . S
C1086 C1087 1.377 1_545 S
C1086 H1114 0.931 . S
C1087 C1082 1.379 . S
C1087 C1086 1.377 1_565 S
C1087 H1115 0.930 1_565 S
C1088 O1102 1.259 . S
C1088 O1103 1.270 . S
C1089 O1104 1.251 . S
C1089 O1105 1.251 . S
C1090 Eu1091 2.835 1_565 S
C1090 C1092 1.500 . S
C1090 O1106 1.257 . S
C1090 O1107 1.260 1_565 S
Eu1091 C1090 2.835 1_545 S
Eu1091 O1103 2.355 1_545 S
Eu1091 O1105 2.374 . S
Eu1091 O1106 2.473 1_545 S
Eu1091 O1107 2.480 . S
Eu1091 O1108 2.430 . S
Eu1091 O1109 2.670 1_545 S
Eu1091 O1110 2.394 1_545 S
C1092 C1090 1.500 . S
C1092 C1093 1.377 . S
C1092 C1097 1.377 . S
C1093 C1092 1.377 . S
C1093 C1094 1.395 1_655 S
C1093 H1116 0.931 . S
C1094 C1093 1.395 1_455 S
C1094 C1095 1.383 . S
C1094 H1117 0.931 . S
C1095 C1094 1.383 . S
C1095 C1096 1.394 . S
C1096 C1095 1.394 . S
C1096 C1097 1.378 1_455 S
C1096 H1118 0.931 . S
C1097 C1092 1.377 . S
C1097 C1096 1.378 1_655 S
C1097 H1119 0.931 . S
C1098 O1108 1.259 1_565 S
C1098 O1109 1.270 . S
C1099 O1110 1.251 . S
C1099 O1111 1.251 . S
O1100 C1080 1.257 . S
O1100 Eu1081 2.473 . S
O1101 C1080 1.260 . S
O1101 Eu1081 2.480 . S
O1102 Eu1081 2.430 . S
O1102 C1088 1.259 . S
O1103 Eu1081 2.670 . S
O1103 C1088 1.270 . S
O1103 Eu1091 2.355 1_565 S
O1104 Eu1081 2.394 1_545 S
O1104 C1089 1.251 . S
O1105 C1089 1.251 . S
O1105 Eu1091 2.374 . S
O1106 C1090 1.257 . S
O1106 Eu1091 2.473 1_565 S
O1107 C1090 1.260 1_545 S
O1107 Eu1091 2.480 . S
O1108 Eu1091 2.430 . S
O1108 C1098 1.259 1_545 S
O1109 Eu1081 2.355 . S
O1109 Eu1091 2.670 1_565 S
O1109 C1098 1.270 . S
O1110 Eu1091 2.394 1_565 S
O1110 C1099 1.251 . S
O1111 Eu1081 2.374 . S
O1111 C1099 1.251 . S
H1112 C1083 0.931 . S
H1113 C1084 0.931 . S
H1114 C1086 0.931 . S
H1115 C1087 0.930 1_545 S
H1116 C1093 0.931 . S
H1117 C1094 0.931 . S
H1118 C1096 0.931 . S
H1119 C1097 0.931 . S
C1120 Eu1121 2.835 1_545 S
C1120 C1122 1.500 . S
C1120 O1140 1.257 . S
C1120 O1141 1.260 1_545 S
Eu1121 C1120 2.835 1_565 S
Eu1121 O1140 2.473 1_565 S
Eu1121 O1141 2.480 . S
Eu1121 O1142 2.430 . S
Eu1121 O1143 2.670 1_565 S
Eu1121 O1144 2.394 1_565 S
Eu1121 O1149 2.355 1_565 S
Eu1121 O1151 2.374 . S
C1122 C1120 1.500 . S
C1122 C1123 1.377 . S
C1122 C1127 1.377 . S
C1123 C1122 1.377 . S
C1123 C1124 1.395 . S
C1123 H1152 0.931 . S
C1124 C1123 1.395 . S
C1124 C1125 1.383 . S
C1124 H1153 0.931 . S
C1125 C1124 1.383 . S
C1125 C1126 1.394 . S
C1126 C1125 1.394 . S
C1126 C1127 1.378 . S
C1126 H1154 0.931 . S
C1127 C1122 1.377 . S
C1127 C1126 1.378 . S
C1127 H1155 0.931 . S
C1128 O1142 1.259 1_545 S
C1128 O1143 1.270 . S
C1129 O1144 1.251 . S
C1129 O1145 1.251 . S
C1130 Eu1131 2.835 . S
C1130 C1132 1.500 . S
C1130 O1146 1.257 . S
C1130 O1147 1.260 . S
Eu1131 C1130 2.835 . S
Eu1131 O1143 2.355 . S
Eu1131 O1145 2.374 . S
Eu1131 O1146 2.473 . S
Eu1131 O1147 2.480 . S
Eu1131 O1148 2.430 . S
Eu1131 O1149 2.670 . S
Eu1131 O1150 2.394 1_545 S
C1132 C1130 1.500 . S
C1132 C1133 1.377 . S
C1132 C1137 1.379 . S
C1133 C1132 1.377 . S
C1133 C1134 1.395 . S
C1133 H1156 0.931 . S
C1134 C1133 1.395 . S
C1134 C1135 1.379 1_545 S
C1134 H1157 0.931 . S
C1135 C1134 1.379 1_565 S
C1135 C1136 1.396 . S
C1136 C1135 1.396 . S
C1136 C1137 1.377 1_565 S
C1136 H1158 0.931 . S
C1137 C1132 1.379 . S
C1137 C1136 1.377 1_545 S
C1137 H1159 0.930 1_545 S
C1138 O1148 1.259 . S
C1138 O1149 1.270 . S
C1139 O1150 1.251 . S
C1139 O1151 1.251 . S
O1140 C1120 1.257 . S
O1140 Eu1121 2.473 1_545 S
O1141 C1120 1.260 1_565 S
O1141 Eu1121 2.480 . S
O1142 Eu1121 2.430 . S
O1142 C1128 1.259 1_565 S
O1143 Eu1121 2.670 1_545 S
O1143 C1128 1.270 . S
O1143 Eu1131 2.355 . S
O1144 Eu1121 2.394 1_545 S
O1144 C1129 1.251 . S
O1145 C1129 1.251 . S
O1145 Eu1131 2.374 . S
O1146 C1130 1.257 . S
O1146 Eu1131 2.473 . S
O1147 C1130 1.260 . S
O1147 Eu1131 2.480 . S
O1148 Eu1131 2.430 . S
O1148 C1138 1.259 . S
O1149 Eu1121 2.355 1_545 S
O1149 Eu1131 2.670 . S
O1149 C1138 1.270 . S
O1150 Eu1131 2.394 1_565 S
O1150 C1139 1.251 . S
O1151 Eu1121 2.374 . S
O1151 C1139 1.251 . S
H1152 C1123 0.931 . S
H1153 C1124 0.931 . S
H1154 C1126 0.931 . S
H1155 C1127 0.931 . S
H1156 C1133 0.931 . S
H1157 C1134 0.931 . S
H1158 C1136 0.931 . S
H1159 C1137 0.930 1_565 S
C1160 Eu1161 2.835 . S
C1160 C1162 1.500 . S
C1160 O1180 1.257 . S
C1160 O1181 1.260 . S
Eu1161 C1160 2.835 . S
Eu1161 O1180 2.473 . S
Eu1161 O1181 2.480 . S
Eu1161 O1182 2.430 . S
Eu1161 O1183 2.670 . S
Eu1161 O1184 2.394 . S
Eu1161 O1189 2.355 . S
Eu1161 O1191 2.374 . S
C1162 C1160 1.500 . S
C1162 C1163 1.377 . S
C1162 C1167 1.377 . S
C1163 C1162 1.377 . S
C1163 C1164 1.395 1_455 S
C1163 H1192 0.931 . S
C1164 C1163 1.395 1_655 S
C1164 C1165 1.383 . S
C1164 H1193 0.931 . S
C1165 C1164 1.383 . S
C1165 C1166 1.394 . S
C1166 C1165 1.394 . S
C1166 C1167 1.378 1_655 S
C1166 H1194 0.931 . S
C1167 C1162 1.377 . S
C1167 C1166 1.378 1_455 S
C1167 H1195 0.931 . S
C1168 O1182 1.259 . S
C1168 O1183 1.270 . S
C1169 O1184 1.251 . S
C1169 O1185 1.251 . S
C1170 Eu1171 2.835 . S
C1170 C1172 1.500 . S
C1170 O1186 1.257 . S
C1170 O1187 1.260 . S
Eu1171 C1170 2.835 . S
Eu1171 O1183 2.355 . S
Eu1171 O1185 2.374 . S
Eu1171 O1186 2.473 . S
Eu1171 O1187 2.480 . S
Eu1171 O1188 2.430 . S
Eu1171 O1189 2.670 . S
Eu1171 O1190 2.394 . S
C1172 C1170 1.500 . S
C1172 C1173 1.377 . S
C1172 C1177 1.377 . S
C1173 C1172 1.377 . S
C1173 C1174 1.395 . S
C1173 H1196 0.931 . S
C1174 C1173 1.395 . S
C1174 C1175 1.383 . S
C1174 H1197 0.931 . S
C1175 C1174 1.383 . S
C1175 C1176 1.394 . S
C1176 C1175 1.394 . S
C1176 C1177 1.378 . S
C1176 H1198 0.931 . S
C1177 C1172 1.377 . S
C1177 C1176 1.378 . S
C1177 H1199 0.931 . S
C1178 O1188 1.259 . S
C1178 O1189 1.270 . S
C1179 O1190 1.251 . S
C1179 O1191 1.251 . S
O1180 C1160 1.257 . S
O1180 Eu1161 2.473 . S
O1181 C1160 1.260 . S
O1181 Eu1161 2.480 . S
O1182 Eu1161 2.430 . S
O1182 C1168 1.259 . S
O1183 Eu1161 2.670 . S
O1183 C1168 1.270 . S
O1183 Eu1171 2.355 . S
O1184 Eu1161 2.394 . S
O1184 C1169 1.251 . S
O1185 C1169 1.251 . S
O1185 Eu1171 2.374 . S
O1186 C1170 1.257 . S
O1186 Eu1171 2.473 . S
O1187 C1170 1.260 . S
O1187 Eu1171 2.480 . S
O1188 Eu1171 2.430 . S
O1188 C1178 1.259 . S
O1189 Eu1161 2.355 . S
O1189 Eu1171 2.670 . S
O1189 C1178 1.270 . S
O1190 Eu1171 2.394 . S
O1190 C1179 1.251 . S
O1191 Eu1161 2.374 . S
O1191 C1179 1.251 . S
H1192 C1163 0.931 . S
H1193 C1164 0.931 . S
H1194 C1166 0.931 . S
H1195 C1167 0.931 . S
H1196 C1173 0.931 . S
H1197 C1174 0.931 . S
H1198 C1176 0.931 . S
H1199 C1177 0.931 . S
C1200 Eu1201 2.835 . S
C1200 C1202 1.500 . S
C1200 O1220 1.257 . S
C1200 O1221 1.260 . S
Eu1201 C1200 2.835 . S
Eu1201 O1220 2.473 . S
Eu1201 O1221 2.480 . S
Eu1201 O1222 2.430 . S
Eu1201 O1223 2.670 . S
Eu1201 O1224 2.394 . S
Eu1201 O1229 2.355 . S
Eu1201 O1231 2.374 . S
C1202 C1200 1.500 . S
C1202 C1203 1.377 . S
C1202 C1207 1.377 . S
C1203 C1202 1.377 . S
C1203 C1204 1.395 . S
C1203 H1232 0.931 . S
C1204 C1203 1.395 . S
C1204 C1205 1.383 . S
C1204 H1233 0.931 . S
C1205 C1204 1.383 . S
C1205 C1206 1.394 . S
C1206 C1205 1.394 . S
C1206 C1207 1.378 . S
C1206 H1234 0.931 . S
C1207 C1202 1.377 . S
C1207 C1206 1.378 . S
C1207 H1235 0.931 . S
C1208 O1222 1.259 . S
C1208 O1223 1.270 . S
C1209 O1224 1.251 . S
C1209 O1225 1.251 . S
C1210 Eu1211 2.835 . S
C1210 C1212 1.500 . S
C1210 O1226 1.257 . S
C1210 O1227 1.260 . S
Eu1211 C1210 2.835 . S
Eu1211 O1223 2.355 . S
Eu1211 O1225 2.374 . S
Eu1211 O1226 2.473 . S
Eu1211 O1227 2.480 . S
Eu1211 O1228 2.430 . S
Eu1211 O1229 2.670 . S
Eu1211 O1230 2.394 . S
C1212 C1210 1.500 . S
C1212 C1213 1.377 . S
C1212 C1217 1.377 . S
C1213 C1212 1.377 . S
C1213 C1214 1.395 . S
C1213 H1236 0.931 . S
C1214 C1213 1.395 . S
C1214 C1215 1.383 . S
C1214 H1237 0.931 . S
C1215 C1214 1.383 . S
C1215 C1216 1.394 . S
C1216 C1215 1.394 . S
C1216 C1217 1.378 . S
C1216 H1238 0.931 . S
C1217 C1212 1.377 . S
C1217 C1216 1.378 . S
C1217 H1239 0.931 . S
C1218 O1228 1.259 . S
C1218 O1229 1.270 . S
C1219 O1230 1.251 . S
C1219 O1231 1.251 . S
O1220 C1200 1.257 . S
O1220 Eu1201 2.473 . S
O1221 C1200 1.260 . S
O1221 Eu1201 2.480 . S
O1222 Eu1201 2.430 . S
O1222 C1208 1.259 . S
O1223 Eu1201 2.670 . S
O1223 C1208 1.270 . S
O1223 Eu1211 2.355 . S
O1224 Eu1201 2.394 . S
O1224 C1209 1.251 . S
O1225 C1209 1.251 . S
O1225 Eu1211 2.374 . S
O1226 C1210 1.257 . S
O1226 Eu1211 2.473 . S
O1227 C1210 1.260 . S
O1227 Eu1211 2.480 . S
O1228 Eu1211 2.430 . S
O1228 C1218 1.259 . S
O1229 Eu1201 2.355 . S
O1229 Eu1211 2.670 . S
O1229 C1218 1.270 . S
O1230 Eu1211 2.394 . S
O1230 C1219 1.251 . S
O1231 Eu1201 2.374 . S
O1231 C1219 1.251 . S
H1232 C1203 0.931 . S
H1233 C1204 0.931 . S
H1234 C1206 0.931 . S
H1235 C1207 0.931 . S
H1236 C1213 0.931 . S
H1237 C1214 0.931 . S
H1238 C1216 0.931 . S
H1239 C1217 0.931 . S
C1240 Eu1241 2.835 1_545 S
C1240 C1242 1.500 . S
C1240 O1260 1.257 . S
C1240 O1261 1.260 1_545 S
Eu1241 C1240 2.835 1_565 S
Eu1241 O1260 2.473 1_565 S
Eu1241 O1261 2.480 . S
Eu1241 O1262 2.430 . S
Eu1241 O1263 2.670 1_565 S
Eu1241 O1264 2.394 1_565 S
Eu1241 O1269 2.355 1_565 S
Eu1241 O1271 2.374 . S
C1242 C1240 1.500 . S
C1242 C1243 1.377 . S
C1242 C1247 1.377 . S
C1243 C1242 1.377 . S
C1243 C1244 1.395 1_455 S
C1243 H1272 0.931 . S
C1244 C1243 1.395 1_655 S
C1244 C1245 1.383 . S
C1244 H1273 0.931 . S
C1245 C1244 1.383 . S
C1245 C1246 1.394 . S
C1246 C1245 1.394 . S
C1246 C1247 1.378 1_655 S
C1246 H1274 0.931 . S
C1247 C1242 1.377 . S
C1247 C1246 1.378 1_455 S
C1247 H1275 0.931 . S
C1248 O1262 1.259 1_545 S
C1248 O1263 1.270 . S
C1249 O1264 1.251 . S
C1249 O1265 1.251 . S
C1250 Eu1251 2.835 . S
C1250 C1252 1.500 . S
C1250 O1266 1.257 . S
C1250 O1267 1.260 . S
Eu1251 C1250 2.835 . S
Eu1251 O1263 2.355 . S
Eu1251 O1265 2.374 . S
Eu1251 O1266 2.473 . S
Eu1251 O1267 2.480 . S
Eu1251 O1268 2.430 . S
Eu1251 O1269 2.670 . S
Eu1251 O1270 2.394 1_545 S
C1252 C1250 1.500 . S
C1252 C1253 1.377 . S
C1252 C1257 1.379 . S
C1253 C1252 1.377 . S
C1253 C1254 1.395 . S
C1253 H1276 0.931 . S
C1254 C1253 1.395 . S
C1254 C1255 1.379 1_545 S
C1254 H1277 0.931 . S
C1255 C1254 1.379 1_565 S
C1255 C1256 1.396 . S
C1256 C1255 1.396 . S
C1256 C1257 1.377 1_565 S
C1256 H1278 0.931 . S
C1257 C1252 1.379 . S
C1257 C1256 1.377 1_545 S
C1257 H1279 0.930 1_545 S
C1258 O1268 1.259 . S
C1258 O1269 1.270 . S
C1259 O1270 1.251 . S
C1259 O1271 1.251 . S
O1260 C1240 1.257 . S
O1260 Eu1241 2.473 1_545 S
O1261 C1240 1.260 1_565 S
O1261 Eu1241 2.480 . S
O1262 Eu1241 2.430 . S
O1262 C1248 1.259 1_565 S
O1263 Eu1241 2.670 1_545 S
O1263 C1248 1.270 . S
O1263 Eu1251 2.355 . S
O1264 Eu1241 2.394 1_545 S
O1264 C1249 1.251 . S
O1265 C1249 1.251 . S
O1265 Eu1251 2.374 . S
O1266 C1250 1.257 . S
O1266 Eu1251 2.473 . S
O1267 C1250 1.260 . S
O1267 Eu1251 2.480 . S
O1268 Eu1251 2.430 . S
O1268 C1258 1.259 . S
O1269 Eu1241 2.355 1_545 S
O1269 Eu1251 2.670 . S
O1269 C1258 1.270 . S
O1270 Eu1251 2.394 1_565 S
O1270 C1259 1.251 . S
O1271 Eu1241 2.374 . S
O1271 C1259 1.251 . S
H1272 C1243 0.931 . S
H1273 C1244 0.931 . S
H1274 C1246 0.931 . S
H1275 C1247 0.931 . S
H1276 C1253 0.931 . S
H1277 C1254 0.931 . S
H1278 C1256 0.931 . S
H1279 C1257 0.930 1_565 S
H1280 C1286 0.930 . S
H1281 C1289 0.930 . S
H1282 C1290 0.930 . S
H1283 C1291 0.930 . S
H1284 C1294 0.930 . S
H1285 C1295 0.930 . S
C1286 H1280 0.930 . S
C1286 C1287 1.355 . S
C1286 C1288 1.415 . S
C1287 C1286 1.355 . S
C1287 C1289 1.419 . S
C1288 C1286 1.415 . S
C1288 C1293 1.425 . S
C1288 C1295 1.409 . S
C1289 H1281 0.930 . S
C1289 C1287 1.419 . S
C1289 C1290 1.362 . S
C1290 H1282 0.930 . S
C1290 C1289 1.362 . S
C1290 C1293 1.409 . S
C1291 H1283 0.930 . S
C1291 C1292 1.355 . S
C1291 C1293 1.415 . S
C1292 C1291 1.355 . S
C1292 C1294 1.419 . S
C1293 C1288 1.425 . S
C1293 C1290 1.409 . S
C1293 C1291 1.415 . S
C1294 H1284 0.930 . S
C1294 C1292 1.419 . S
C1294 C1295 1.362 . S
C1295 H1285 0.930 . S
C1295 C1288 1.409 . S
C1295 C1294 1.362 . S
H1296 C1302 0.930 . S
H1297 C1305 0.930 . S
H1298 C1306 0.930 . S
H1299 C1307 0.930 . S
H1300 C1310 0.930 . S
H1301 C1311 0.930 . S
C1302 H1296 0.930 . S
C1302 C1303 1.355 . S
C1302 C1304 1.415 . S
C1303 C1302 1.355 . S
C1303 C1305 1.419 . S
C1304 C1302 1.415 . S
C1304 C1309 1.425 . S
C1304 C1311 1.409 . S
C1305 H1297 0.930 . S
C1305 C1303 1.419 . S
C1305 C1306 1.362 . S
C1306 H1298 0.930 . S
C1306 C1305 1.362 . S
C1306 C1309 1.409 . S
C1307 H1299 0.930 . S
C1307 C1308 1.355 . S
C1307 C1309 1.415 . S
C1308 C1307 1.355 . S
C1308 C1310 1.419 . S
C1309 C1304 1.425 . S
C1309 C1306 1.409 . S
C1309 C1307 1.415 . S
C1310 H1300 0.930 . S
C1310 C1308 1.419 . S
C1310 C1311 1.362 . S
C1311 H1301 0.930 . S
C1311 C1304 1.409 . S
C1311 C1310 1.362 . S
H1312 C1318 0.930 . S
H1313 C1321 0.930 . S
H1314 C1322 0.930 . S
H1315 C1323 0.930 . S
H1316 C1326 0.930 1_455 S
H1317 C1327 0.930 . S
C1318 H1312 0.930 . S
C1318 C1319 1.355 . S
C1318 C1320 1.415 . S
C1319 C1318 1.355 . S
C1319 C1321 1.419 . S
C1320 C1318 1.415 . S
C1320 C1325 1.425 . S
C1320 C1327 1.409 . S
C1321 H1313 0.930 . S
C1321 C1319 1.419 . S
C1321 C1322 1.362 . S
C1322 H1314 0.930 . S
C1322 C1321 1.362 . S
C1322 C1325 1.409 . S
C1323 H1315 0.930 . S
C1323 C1324 1.355 . S
C1323 C1325 1.415 . S
C1324 C1323 1.355 . S
C1324 C1326 1.419 . S
C1325 C1320 1.425 . S
C1325 C1322 1.409 . S
C1325 C1323 1.415 . S
C1326 H1316 0.930 1_655 S
C1326 C1324 1.419 . S
C1326 C1327 1.362 . S
C1327 H1317 0.930 . S
C1327 C1320 1.409 . S
C1327 C1326 1.362 . S
H1328 C1334 0.930 . S
H1329 C1337 0.930 . S
H1330 C1338 0.930 . S
H1331 C1339 0.930 . S
H1332 C1342 0.930 . S
H1333 C1343 0.930 . S
C1334 H1328 0.930 . S
C1334 C1335 1.355 . S
C1334 C1336 1.415 . S
C1335 C1334 1.355 . S
C1335 C1337 1.419 . S
C1336 C1334 1.415 . S
C1336 C1341 1.425 . S
C1336 C1343 1.409 . S
C1337 H1329 0.930 . S
C1337 C1335 1.419 . S
C1337 C1338 1.362 . S
C1338 H1330 0.930 . S
C1338 C1337 1.362 . S
C1338 C1341 1.409 . S
C1339 H1331 0.930 . S
C1339 C1340 1.355 . S
C1339 C1341 1.415 . S
C1340 C1339 1.355 . S
C1340 C1342 1.419 . S
C1341 C1336 1.425 . S
C1341 C1338 1.409 . S
C1341 C1339 1.415 . S
C1342 H1332 0.930 . S
C1342 C1340 1.419 . S
C1342 C1343 1.362 . S
C1343 H1333 0.930 . S
C1343 C1336 1.409 . S
C1343 C1342 1.362 . S
H1344 C1350 0.930 . S
H1345 C1353 0.930 . S
H1346 C1354 0.930 . S
H1347 C1355 0.930 . S
H1348 C1358 0.930 . S
H1349 C1359 0.930 . S
C1350 H1344 0.930 . S
C1350 C1351 1.355 . S
C1350 C1352 1.415 . S
C1351 C1350 1.355 . S
C1351 C1353 1.419 . S
C1352 C1350 1.415 . S
C1352 C1357 1.425 . S
C1352 C1359 1.409 . S
C1353 H1345 0.930 . S
C1353 C1351 1.419 . S
C1353 C1354 1.362 . S
C1354 H1346 0.930 . S
C1354 C1353 1.362 . S
C1354 C1357 1.409 . S
C1355 H1347 0.930 . S
C1355 C1356 1.355 . S
C1355 C1357 1.415 . S
C1356 C1355 1.355 . S
C1356 C1358 1.419 . S
C1357 C1352 1.425 . S
C1357 C1354 1.409 . S
C1357 C1355 1.415 . S
C1358 H1348 0.930 . S
C1358 C1356 1.419 . S
C1358 C1359 1.362 . S
C1359 H1349 0.930 . S
C1359 C1352 1.409 . S
C1359 C1358 1.362 . S
H1360 C1366 0.930 . S
H1361 C1369 0.930 . S
H1362 C1370 0.930 . S
H1363 C1371 0.930 . S
H1364 C1374 0.930 . S
H1365 C1375 0.930 . S
C1366 H1360 0.930 . S
C1366 C1367 1.355 . S
C1366 C1368 1.415 . S
C1367 C1366 1.355 . S
C1367 C1369 1.419 . S
C1368 C1366 1.415 . S
C1368 C1373 1.425 . S
C1368 C1375 1.409 . S
C1369 H1361 0.930 . S
C1369 C1367 1.419 . S
C1369 C1370 1.362 . S
C1370 H1362 0.930 . S
C1370 C1369 1.362 . S
C1370 C1373 1.409 . S
C1371 H1363 0.930 . S
C1371 C1372 1.355 . S
C1371 C1373 1.415 . S
C1372 C1371 1.355 . S
C1372 C1374 1.419 . S
C1373 C1368 1.425 . S
C1373 C1370 1.409 . S
C1373 C1371 1.415 . S
C1374 H1364 0.930 . S
C1374 C1372 1.419 . S
C1374 C1375 1.362 . S
C1375 H1365 0.930 . S
C1375 C1368 1.409 . S
C1375 C1374 1.362 . S
H1376 C1382 0.930 . S
H1377 C1385 0.930 . S
H1378 C1386 0.930 . S
H1379 C1387 0.930 . S
H1380 C1390 0.930 . S
H1381 C1391 0.930 . S
C1382 H1376 0.930 . S
C1382 C1383 1.355 . S
C1382 C1384 1.415 . S
C1383 C1382 1.355 . S
C1383 C1385 1.419 . S
C1384 C1382 1.415 . S
C1384 C1389 1.425 . S
C1384 C1391 1.409 . S
C1385 H1377 0.930 . S
C1385 C1383 1.419 . S
C1385 C1386 1.362 . S
C1386 H1378 0.930 . S
C1386 C1385 1.362 . S
C1386 C1389 1.409 . S
C1387 H1379 0.930 . S
C1387 C1388 1.355 . S
C1387 C1389 1.415 . S
C1388 C1387 1.355 . S
C1388 C1390 1.419 . S
C1389 C1384 1.425 . S
C1389 C1386 1.409 . S
C1389 C1387 1.415 . S
C1390 H1380 0.930 . S
C1390 C1388 1.419 . S
C1390 C1391 1.362 . S
C1391 H1381 0.930 . S
C1391 C1384 1.409 . S
C1391 C1390 1.362 . S
H1392 C1398 0.930 . S
H1393 C1401 0.930 . S
H1394 C1402 0.930 . S
H1395 C1403 0.930 . S
H1396 C1406 0.930 . S
H1397 C1407 0.930 . S
C1398 H1392 0.930 . S
C1398 C1399 1.355 . S
C1398 C1400 1.415 . S
C1399 C1398 1.355 . S
C1399 C1401 1.419 . S
C1400 C1398 1.415 . S
C1400 C1405 1.425 . S
C1400 C1407 1.409 . S
C1401 H1393 0.930 . S
C1401 C1399 1.419 . S
C1401 C1402 1.362 . S
C1402 H1394 0.930 . S
C1402 C1401 1.362 . S
C1402 C1405 1.409 . S
C1403 H1395 0.930 . S
C1403 C1404 1.355 . S
C1403 C1405 1.415 . S
C1404 C1403 1.355 . S
C1404 C1406 1.419 . S
C1405 C1400 1.425 . S
C1405 C1402 1.409 . S
C1405 C1403 1.415 . S
C1406 H1396 0.930 . S
C1406 C1404 1.419 . S
C1406 C1407 1.362 . S
C1407 H1397 0.930 . S
C1407 C1400 1.409 . S
C1407 C1406 1.362 . S
H1408 C1414 0.930 . S
H1409 C1417 0.930 1_455 S
H1410 C1418 0.930 . S
H1411 C1419 0.930 . S
H1412 C1422 0.930 . S
H1413 C1423 0.930 . S
C1414 H1408 0.930 . S
C1414 C1415 1.355 . S
C1414 C1416 1.415 . S
C1415 C1414 1.355 . S
C1415 C1417 1.419 . S
C1416 C1414 1.415 . S
C1416 C1421 1.425 . S
C1416 C1423 1.409 . S
C1417 H1409 0.930 1_655 S
C1417 C1415 1.419 . S
C1417 C1418 1.362 . S
C1418 H1410 0.930 . S
C1418 C1417 1.362 . S
C1418 C1421 1.409 . S
C1419 H1411 0.930 . S
C1419 C1420 1.355 . S
C1419 C1421 1.415 . S
C1420 C1419 1.355 . S
C1420 C1422 1.419 . S
C1421 C1416 1.425 . S
C1421 C1418 1.409 . S
C1421 C1419 1.415 . S
C1422 H1412 0.930 . S
C1422 C1420 1.419 . S
C1422 C1423 1.362 . S
C1423 H1413 0.930 . S
C1423 C1416 1.409 . S
C1423 C1422 1.362 . S
H1424 C1430 0.930 . S
H1425 C1433 0.930 . S
H1426 C1434 0.930 . S
H1427 C1435 0.930 . S
H1428 C1438 0.930 . S
H1429 C1439 0.930 . S
C1430 H1424 0.930 . S
C1430 C1431 1.355 . S
C1430 C1432 1.415 . S
C1431 C1430 1.355 . S
C1431 C1433 1.419 . S
C1432 C1430 1.415 . S
C1432 C1437 1.425 . S
C1432 C1439 1.409 . S
C1433 H1425 0.930 . S
C1433 C1431 1.419 . S
C1433 C1434 1.362 . S
C1434 H1426 0.930 . S
C1434 C1433 1.362 . S
C1434 C1437 1.409 . S
C1435 H1427 0.930 . S
C1435 C1436 1.355 . S
C1435 C1437 1.415 . S
C1436 C1435 1.355 . S
C1436 C1438 1.419 . S
C1437 C1432 1.425 . S
C1437 C1434 1.409 . S
C1437 C1435 1.415 . S
C1438 H1428 0.930 . S
C1438 C1436 1.419 . S
C1438 C1439 1.362 . S
C1439 H1429 0.930 . S
C1439 C1432 1.409 . S
C1439 C1438 1.362 . S
H1440 C1446 0.930 . S
H1441 C1449 0.930 1_455 S
H1442 C1450 0.930 . S
H1443 C1451 0.930 . S
H1444 C1454 0.930 . S
H1445 C1455 0.930 . S
C1446 H1440 0.930 . S
C1446 C1447 1.355 . S
C1446 C1448 1.415 . S
C1447 C1446 1.355 . S
C1447 C1449 1.419 . S
C1448 C1446 1.415 . S
C1448 C1453 1.425 . S
C1448 C1455 1.409 . S
C1449 H1441 0.930 1_655 S
C1449 C1447 1.419 . S
C1449 C1450 1.362 . S
C1450 H1442 0.930 . S
C1450 C1449 1.362 . S
C1450 C1453 1.409 . S
C1451 H1443 0.930 . S
C1451 C1452 1.355 . S
C1451 C1453 1.415 . S
C1452 C1451 1.355 . S
C1452 C1454 1.419 . S
C1453 C1448 1.425 . S
C1453 C1450 1.409 . S
C1453 C1451 1.415 . S
C1454 H1444 0.930 . S
C1454 C1452 1.419 . S
C1454 C1455 1.362 . S
C1455 H1445 0.930 . S
C1455 C1448 1.409 . S
C1455 C1454 1.362 . S
H1456 C1462 0.930 . S
H1457 C1465 0.930 . S
H1458 C1466 0.930 . S
H1459 C1467 0.930 . S
H1460 C1470 0.930 . S
H1461 C1471 0.930 . S
C1462 H1456 0.930 . S
C1462 C1463 1.355 . S
C1462 C1464 1.415 . S
C1463 C1462 1.355 . S
C1463 C1465 1.419 . S
C1464 C1462 1.415 . S
C1464 C1469 1.425 . S
C1464 C1471 1.409 . S
C1465 H1457 0.930 . S
C1465 C1463 1.419 . S
C1465 C1466 1.362 . S
C1466 H1458 0.930 . S
C1466 C1465 1.362 . S
C1466 C1469 1.409 . S
C1467 H1459 0.930 . S
C1467 C1468 1.355 . S
C1467 C1469 1.415 . S
C1468 C1467 1.355 . S
C1468 C1470 1.419 . S
C1469 C1464 1.425 . S
C1469 C1466 1.409 . S
C1469 C1467 1.415 . S
C1470 H1460 0.930 . S
C1470 C1468 1.419 . S
C1470 C1471 1.362 . S
C1471 H1461 0.930 . S
C1471 C1464 1.409 . S
C1471 C1470 1.362 . S
H1472 C1478 0.930 . S
H1473 C1481 0.930 1_655 S
H1474 C1482 0.930 . S
H1475 C1483 0.930 . S
H1476 C1486 0.930 . S
H1477 C1487 0.930 . S
C1478 H1472 0.930 . S
C1478 C1479 1.355 . S
C1478 C1480 1.415 . S
C1479 C1478 1.355 . S
C1479 C1481 1.419 . S
C1480 C1478 1.415 . S
C1480 C1485 1.425 . S
C1480 C1487 1.409 . S
C1481 H1473 0.930 1_455 S
C1481 C1479 1.419 . S
C1481 C1482 1.362 . S
C1482 H1474 0.930 . S
C1482 C1481 1.362 . S
C1482 C1485 1.409 . S
C1483 H1475 0.930 . S
C1483 C1484 1.355 . S
C1483 C1485 1.415 . S
C1484 C1483 1.355 . S
C1484 C1486 1.419 . S
C1485 C1480 1.425 . S
C1485 C1482 1.409 . S
C1485 C1483 1.415 . S
C1486 H1476 0.930 . S
C1486 C1484 1.419 . S
C1486 C1487 1.362 . S
C1487 H1477 0.930 . S
C1487 C1480 1.409 . S
C1487 C1486 1.362 . S
H1488 C1494 0.930 . S
H1489 C1497 0.930 . S
H1490 C1498 0.930 . S
H1491 C1499 0.930 . S
H1492 C1502 0.930 . S
H1493 C1503 0.930 . S
C1494 H1488 0.930 . S
C1494 C1495 1.355 . S
C1494 C1496 1.415 . S
C1495 C1494 1.355 . S
C1495 C1497 1.419 . S
C1496 C1494 1.415 . S
C1496 C1501 1.425 . S
C1496 C1503 1.409 . S
C1497 H1489 0.930 . S
C1497 C1495 1.419 . S
C1497 C1498 1.362 . S
C1498 H1490 0.930 . S
C1498 C1497 1.362 . S
C1498 C1501 1.409 . S
C1499 H1491 0.930 . S
C1499 C1500 1.355 . S
C1499 C1501 1.415 . S
C1500 C1499 1.355 . S
C1500 C1502 1.419 . S
C1501 C1496 1.425 . S
C1501 C1498 1.409 . S
C1501 C1499 1.415 . S
C1502 H1492 0.930 . S
C1502 C1500 1.419 . S
C1502 C1503 1.362 . S
C1503 H1493 0.930 . S
C1503 C1496 1.409 . S
C1503 C1502 1.362 . S
H1504 C1510 0.930 . S
H1505 C1513 0.930 . S
H1506 C1514 0.930 . S
H1507 C1515 0.930 . S
H1508 C1518 0.930 . S
H1509 C1519 0.930 . S
C1510 H1504 0.930 . S
C1510 C1511 1.355 . S
C1510 C1512 1.415 . S
C1511 C1510 1.355 . S
C1511 C1513 1.419 . S
C1512 C1510 1.415 . S
C1512 C1517 1.425 . S
C1512 C1519 1.409 . S
C1513 H1505 0.930 . S
C1513 C1511 1.419 . S
C1513 C1514 1.362 . S
C1514 H1506 0.930 . S
C1514 C1513 1.362 . S
C1514 C1517 1.409 . S
C1515 H1507 0.930 . S
C1515 C1516 1.355 . S
C1515 C1517 1.415 . S
C1516 C1515 1.355 . S
C1516 C1518 1.419 . S
C1517 C1512 1.425 . S
C1517 C1514 1.409 . S
C1517 C1515 1.415 . S
C1518 H1508 0.930 . S
C1518 C1516 1.419 . S
C1518 C1519 1.362 . S
C1519 H1509 0.930 . S
C1519 C1512 1.409 . S
C1519 C1518 1.362 . S
H1520 C1526 0.930 . S
H1521 C1529 0.930 . S
H1522 C1530 0.930 . S
H1523 C1531 0.930 . S
H1524 C1534 0.930 . S
H1525 C1535 0.930 . S
C1526 H1520 0.930 . S
C1526 C1527 1.355 . S
C1526 C1528 1.415 . S
C1527 C1526 1.355 . S
C1527 C1529 1.419 . S
C1528 C1526 1.415 . S
C1528 C1533 1.425 . S
C1528 C1535 1.409 . S
C1529 H1521 0.930 . S
C1529 C1527 1.419 . S
C1529 C1530 1.362 . S
C1530 H1522 0.930 . S
C1530 C1529 1.362 . S
C1530 C1533 1.409 . S
C1531 H1523 0.930 . S
C1531 C1532 1.355 . S
C1531 C1533 1.415 . S
C1532 C1531 1.355 . S
C1532 C1534 1.419 . S
C1533 C1528 1.425 . S
C1533 C1530 1.409 . S
C1533 C1531 1.415 . S
C1534 H1524 0.930 . S
C1534 C1532 1.419 . S
C1534 C1535 1.362 . S
C1535 H1525 0.930 . S
C1535 C1528 1.409 . S
C1535 C1534 1.362 . S
H1536 C1542 0.930 . S
H1537 C1545 0.930 . S
H1538 C1546 0.930 . S
H1539 C1547 0.930 . S
H1540 C1550 0.930 . S
H1541 C1551 0.930 . S
C1542 H1536 0.930 . S
C1542 C1543 1.355 . S
C1542 C1544 1.415 . S
C1543 C1542 1.355 . S
C1543 C1545 1.419 . S
C1544 C1542 1.415 . S
C1544 C1549 1.425 . S
C1544 C1551 1.409 . S
C1545 H1537 0.930 . S
C1545 C1543 1.419 . S
C1545 C1546 1.362 . S
C1546 H1538 0.930 . S
C1546 C1545 1.362 . S
C1546 C1549 1.409 . S
C1547 H1539 0.930 . S
C1547 C1548 1.355 . S
C1547 C1549 1.415 . S
C1548 C1547 1.355 . S
C1548 C1550 1.419 . S
C1549 C1544 1.425 . S
C1549 C1546 1.409 . S
C1549 C1547 1.415 . S
C1550 H1540 0.930 . S
C1550 C1548 1.419 . S
C1550 C1551 1.362 . S
C1551 H1541 0.930 . S
C1551 C1544 1.409 . S
C1551 C1550 1.362 . S
H1552 C1558 0.930 . S
H1553 C1561 0.930 . S
H1554 C1562 0.930 . S
H1555 C1563 0.930 . S
H1556 C1566 0.930 . S
H1557 C1567 0.930 . S
C1558 H1552 0.930 . S
C1558 C1559 1.355 . S
C1558 C1560 1.415 . S
C1559 C1558 1.355 . S
C1559 C1561 1.419 . S
C1560 C1558 1.415 . S
C1560 C1565 1.425 . S
C1560 C1567 1.409 . S
C1561 H1553 0.930 . S
C1561 C1559 1.419 . S
C1561 C1562 1.362 . S
C1562 H1554 0.930 . S
C1562 C1561 1.362 . S
C1562 C1565 1.409 . S
C1563 H1555 0.930 . S
C1563 C1564 1.355 . S
C1563 C1565 1.415 . S
C1564 C1563 1.355 . S
C1564 C1566 1.419 . S
C1565 C1560 1.425 . S
C1565 C1562 1.409 . S
C1565 C1563 1.415 . S
C1566 H1556 0.930 . S
C1566 C1564 1.419 . S
C1566 C1567 1.362 . S
C1567 H1557 0.930 . S
C1567 C1560 1.409 . S
C1567 C1566 1.362 . S
H1568 C1574 0.930 . S
H1569 C1577 0.930 . S
H1570 C1578 0.930 . S
H1571 C1579 0.930 . S
H1572 C1582 0.919 1_455 S
H1573 C1583 0.930 . S
C1574 H1568 0.930 . S
C1574 C1575 1.355 . S
C1574 C1576 1.415 . S
C1575 C1574 1.355 . S
C1575 C1577 1.419 . S
C1576 C1574 1.415 . S
C1576 C1581 1.425 . S
C1576 C1583 1.409 . S
C1577 H1569 0.930 . S
C1577 C1575 1.419 . S
C1577 C1578 1.362 . S
C1578 H1570 0.930 . S
C1578 C1577 1.362 . S
C1578 C1581 1.409 . S
C1579 H1571 0.930 . S
C1579 C1580 1.355 . S
C1579 C1581 1.415 . S
C1580 C1579 1.355 . S
C1580 C1582 1.419 . S
C1581 C1576 1.425 . S
C1581 C1578 1.409 . S
C1581 C1579 1.415 . S
C1582 H1572 0.919 1_655 S
C1582 C1580 1.419 . S
C1582 C1583 1.362 . S
C1583 H1573 0.930 . S
C1583 C1576 1.409 . S
C1583 C1582 1.362 . S
H1584 C1590 0.930 . S
H1585 C1593 0.930 . S
H1586 C1594 0.930 . S
H1587 C1595 0.930 . S
H1588 C1598 0.930 . S
H1589 C1599 0.930 . S
C1590 H1584 0.930 . S
C1590 C1591 1.355 . S
C1590 C1592 1.415 . S
C1591 C1590 1.355 . S
C1591 C1593 1.419 . S
C1592 C1590 1.415 . S
C1592 C1597 1.425 . S
C1592 C1599 1.409 . S
C1593 H1585 0.930 . S
C1593 C1591 1.419 . S
C1593 C1594 1.362 . S
C1594 H1586 0.930 . S
C1594 C1593 1.362 . S
C1594 C1597 1.409 . S
C1595 H1587 0.930 . S
C1595 C1596 1.355 . S
C1595 C1597 1.415 . S
C1596 C1595 1.355 . S
C1596 C1598 1.419 . S
C1597 C1592 1.425 . S
C1597 C1594 1.409 . S
C1597 C1595 1.415 . S
C1598 H1588 0.930 . S
C1598 C1596 1.419 . S
C1598 C1599 1.362 . S
C1599 H1589 0.930 . S
C1599 C1592 1.409 . S
C1599 C1598 1.362 . S
H1600 C1606 0.930 . S
H1601 C1609 0.930 . S
H1602 C1610 0.930 . S
H1603 C1611 0.930 1_545 S
H1604 C1614 0.930 . S
H1605 C1615 0.930 . S
C1606 H1600 0.930 . S
C1606 C1607 1.355 . S
C1606 C1608 1.415 . S
C1607 C1606 1.355 . S
C1607 C1609 1.419 1_565 S
C1608 C1606 1.415 . S
C1608 C1613 1.425 . S
C1608 C1615 1.409 . S
C1609 H1601 0.930 . S
C1609 C1607 1.419 1_545 S
C1609 C1610 1.362 . S
C1610 H1602 0.930 . S
C1610 C1609 1.362 . S
C1610 C1613 1.409 1_545 S
C1611 H1603 0.930 1_565 S
C1611 C1612 1.355 . S
C1611 C1613 1.415 . S
C1612 C1611 1.355 . S
C1612 C1614 1.419 . S
C1613 C1608 1.425 . S
C1613 C1610 1.409 1_565 S
C1613 C1611 1.415 . S
C1614 H1604 0.930 . S
C1614 C1612 1.419 . S
C1614 C1615 1.362 . S
C1615 H1605 0.930 . S
C1615 C1608 1.409 . S
C1615 C1614 1.362 . S
H1616 C1622 0.930 . S
H1617 C1625 0.930 . S
H1618 C1626 0.930 . S
H1619 C1627 0.930 . S
H1620 C1630 0.930 . S
H1621 C1631 0.930 . S
C1622 H1616 0.930 . S
C1622 C1623 1.355 . S
C1622 C1624 1.415 . S
C1623 C1622 1.355 . S
C1623 C1625 1.419 . S
C1624 C1622 1.415 . S
C1624 C1629 1.425 . S
C1624 C1631 1.409 . S
C1625 H1617 0.930 . S
C1625 C1623 1.419 . S
C1625 C1626 1.362 . S
C1626 H1618 0.930 . S
C1626 C1625 1.362 . S
C1626 C1629 1.409 . S
C1627 H1619 0.930 . S
C1627 C1628 1.355 . S
C1627 C1629 1.415 . S
C1628 C1627 1.355 . S
C1628 C1630 1.419 . S
C1629 C1624 1.425 . S
C1629 C1626 1.409 . S
C1629 C1627 1.415 . S
C1630 H1620 0.930 . S
C1630 C1628 1.419 . S
C1630 C1631 1.362 . S
C1631 H1621 0.930 . S
C1631 C1624 1.409 . S
C1631 C1630 1.362 . S
H1632 C1638 0.930 . S
H1633 C1641 0.930 1_455 S
H1634 C1642 0.930 . S
H1635 C1643 0.930 . S
H1636 C1646 0.930 . S
H1637 C1647 0.930 . S
C1638 H1632 0.930 . S
C1638 C1639 1.355 . S
C1638 C1640 1.415 . S
C1639 C1638 1.355 . S
C1639 C1641 1.419 . S
C1640 C1638 1.415 . S
C1640 C1645 1.425 . S
C1640 C1647 1.409 . S
C1641 H1633 0.930 1_655 S
C1641 C1639 1.419 . S
C1641 C1642 1.362 . S
C1642 H1634 0.930 . S
C1642 C1641 1.362 . S
C1642 C1645 1.409 . S
C1643 H1635 0.930 . S
C1643 C1644 1.355 . S
C1643 C1645 1.415 . S
C1644 C1643 1.355 . S
C1644 C1646 1.419 . S
C1645 C1640 1.425 . S
C1645 C1642 1.409 . S
C1645 C1643 1.415 . S
C1646 H1636 0.930 . S
C1646 C1644 1.419 . S
C1646 C1647 1.362 . S
C1647 H1637 0.930 . S
C1647 C1640 1.409 . S
C1647 C1646 1.362 . S
H1648 C1654 0.930 . S
H1649 C1657 0.930 . S
H1650 C1658 0.930 . S
H1651 C1659 0.930 . S
H1652 C1662 0.930 . S
H1653 C1663 0.930 . S
C1654 H1648 0.930 . S
C1654 C1655 1.355 . S
C1654 C1656 1.415 . S
C1655 C1654 1.355 . S
C1655 C1657 1.419 . S
C1656 C1654 1.415 . S
C1656 C1661 1.425 . S
C1656 C1663 1.409 . S
C1657 H1649 0.930 . S
C1657 C1655 1.419 . S
C1657 C1658 1.362 . S
C1658 H1650 0.930 . S
C1658 C1657 1.362 . S
C1658 C1661 1.409 . S
C1659 H1651 0.930 . S
C1659 C1660 1.355 . S
C1659 C1661 1.415 . S
C1660 C1659 1.355 . S
C1660 C1662 1.419 . S
C1661 C1656 1.425 . S
C1661 C1658 1.409 . S
C1661 C1659 1.415 . S
C1662 H1652 0.930 . S
C1662 C1660 1.419 . S
C1662 C1663 1.362 . S
C1663 H1653 0.930 . S
C1663 C1656 1.409 . S
C1663 C1662 1.362 . S
H1664 C1670 0.930 . S
H1665 C1673 0.930 . S
H1666 C1674 0.930 . S
H1667 C1675 0.930 . S
H1668 C1678 0.930 . S
H1669 C1679 0.930 . S
C1670 H1664 0.930 . S
C1670 C1671 1.355 . S
C1670 C1672 1.415 . S
C1671 C1670 1.355 . S
C1671 C1673 1.419 . S
C1672 C1670 1.415 . S
C1672 C1677 1.425 . S
C1672 C1679 1.409 . S
C1673 H1665 0.930 . S
C1673 C1671 1.419 . S
C1673 C1674 1.362 . S
C1674 H1666 0.930 . S
C1674 C1673 1.362 . S
C1674 C1677 1.409 . S
C1675 H1667 0.930 . S
C1675 C1676 1.355 . S
C1675 C1677 1.415 . S
C1676 C1675 1.355 . S
C1676 C1678 1.419 . S
C1677 C1672 1.425 . S
C1677 C1674 1.409 . S
C1677 C1675 1.415 . S
C1678 H1668 0.930 . S
C1678 C1676 1.419 . S
C1678 C1679 1.362 . S
C1679 H1669 0.930 . S
C1679 C1672 1.409 . S
C1679 C1678 1.362 . S
H1680 C1686 0.930 . S
H1681 C1689 0.930 . S
H1682 C1690 0.930 . S
H1683 C1691 0.930 . S
H1684 C1694 0.930 . S
H1685 C1695 0.930 . S
C1686 H1680 0.930 . S
C1686 C1687 1.355 . S
C1686 C1688 1.415 . S
C1687 C1686 1.355 . S
C1687 C1689 1.419 . S
C1688 C1686 1.415 . S
C1688 C1693 1.425 . S
C1688 C1695 1.409 . S
C1689 H1681 0.930 . S
C1689 C1687 1.419 . S
C1689 C1690 1.362 . S
C1690 H1682 0.930 . S
C1690 C1689 1.362 . S
C1690 C1693 1.409 . S
C1691 H1683 0.930 . S
C1691 C1692 1.355 . S
C1691 C1693 1.415 . S
C1692 C1691 1.355 . S
C1692 C1694 1.419 . S
C1693 C1688 1.425 . S
C1693 C1690 1.409 . S
C1693 C1691 1.415 . S
C1694 H1684 0.930 . S
C1694 C1692 1.419 . S
C1694 C1695 1.362 . S
C1695 H1685 0.930 . S
C1695 C1688 1.409 . S
C1695 C1694 1.362 . S
H1696 C1702 0.930 . S
H1697 C1705 0.930 . S
H1698 C1706 0.930 . S
H1699 C1707 0.930 . S
H1700 C1710 0.930 . S
H1701 C1711 0.930 . S
C1702 H1696 0.930 . S
C1702 C1703 1.355 . S
C1702 C1704 1.415 . S
C1703 C1702 1.355 . S
C1703 C1705 1.419 . S
C1704 C1702 1.415 . S
C1704 C1709 1.425 . S
C1704 C1711 1.409 . S
C1705 H1697 0.930 . S
C1705 C1703 1.419 . S
C1705 C1706 1.362 . S
C1706 H1698 0.930 . S
C1706 C1705 1.362 . S
C1706 C1709 1.409 . S
C1707 H1699 0.930 . S
C1707 C1708 1.355 . S
C1707 C1709 1.415 . S
C1708 C1707 1.355 . S
C1708 C1710 1.419 . S
C1709 C1704 1.425 . S
C1709 C1706 1.409 . S
C1709 C1707 1.415 . S
C1710 H1700 0.930 . S
C1710 C1708 1.419 . S
C1710 C1711 1.362 . S
C1711 H1701 0.930 . S
C1711 C1704 1.409 . S
C1711 C1710 1.362 . S
H1712 C1718 0.930 . S
H1713 C1721 0.930 . S
H1714 C1722 0.930 . S
H1715 C1723 0.930 . S
H1716 C1726 0.930 . S
H1717 C1727 0.930 . S
C1718 H1712 0.930 . S
C1718 C1719 1.355 . S
C1718 C1720 1.415 . S
C1719 C1718 1.355 . S
C1719 C1721 1.419 . S
C1720 C1718 1.415 . S
C1720 C1725 1.425 . S
C1720 C1727 1.409 . S
C1721 H1713 0.930 . S
C1721 C1719 1.419 . S
C1721 C1722 1.362 . S
C1722 H1714 0.930 . S
C1722 C1721 1.362 . S
C1722 C1725 1.409 . S
C1723 H1715 0.930 . S
C1723 C1724 1.355 . S
C1723 C1725 1.415 . S
C1724 C1723 1.355 . S
C1724 C1726 1.419 . S
C1725 C1720 1.425 . S
C1725 C1722 1.409 . S
C1725 C1723 1.415 . S
C1726 H1716 0.930 . S
C1726 C1724 1.419 . S
C1726 C1727 1.362 . S
C1727 H1717 0.930 . S
C1727 C1720 1.409 . S
C1727 C1726 1.362 . S
H1728 C1734 0.930 1_545 S
H1729 C1737 0.930 . S
H1730 C1738 0.930 . S
H1731 C1739 0.930 . S
H1732 C1742 0.930 . S
H1733 C1743 0.930 . S
C1734 H1728 0.930 1_565 S
C1734 C1735 1.355 . S
C1734 C1736 1.415 . S
C1735 C1734 1.355 . S
C1735 C1737 1.419 . S
C1736 C1734 1.415 . S
C1736 C1741 1.425 . S
C1736 C1743 1.409 1_565 S
C1737 H1729 0.930 . S
C1737 C1735 1.419 . S
C1737 C1738 1.362 . S
C1738 H1730 0.930 . S
C1738 C1737 1.362 . S
C1738 C1741 1.409 . S
C1739 H1731 0.930 . S
C1739 C1740 1.355 . S
C1739 C1741 1.415 . S
C1740 C1739 1.355 . S
C1740 C1742 1.419 1_565 S
C1741 C1736 1.425 . S
C1741 C1738 1.409 . S
C1741 C1739 1.415 . S
C1742 H1732 0.930 . S
C1742 C1740 1.419 1_545 S
C1742 C1743 1.362 . S
C1743 H1733 0.930 . S
C1743 C1736 1.409 1_545 S
C1743 C1742 1.362 . S
H1744 C1750 0.930 . S
H1745 C1753 0.930 . S
H1746 C1754 0.930 . S
H1747 C1755 0.930 . S
H1748 C1758 0.930 . S
H1749 C1759 0.930 . S
C1750 H1744 0.930 . S
C1750 C1751 1.355 . S
C1750 C1752 1.415 . S
C1751 C1750 1.355 . S
C1751 C1753 1.419 . S
C1752 C1750 1.415 . S
C1752 C1757 1.425 . S
C1752 C1759 1.409 . S
C1753 H1745 0.930 . S
C1753 C1751 1.419 . S
C1753 C1754 1.362 . S
C1754 H1746 0.930 . S
C1754 C1753 1.362 . S
C1754 C1757 1.409 . S
C1755 H1747 0.930 . S
C1755 C1756 1.355 . S
C1755 C1757 1.415 . S
C1756 C1755 1.355 . S
C1756 C1758 1.419 . S
C1757 C1752 1.425 . S
C1757 C1754 1.409 . S
C1757 C1755 1.415 . S
C1758 H1748 0.930 . S
C1758 C1756 1.419 . S
C1758 C1759 1.362 . S
C1759 H1749 0.930 . S
C1759 C1752 1.409 . S
C1759 C1758 1.362 . S
H1760 C1766 0.930 . S
H1761 C1769 0.930 1_565 S
H1762 C1770 0.930 1_565 S
H1763 C1771 0.930 1_565 S
H1764 C1774 0.930 . S
H1765 C1775 0.930 . S
C1766 H1760 0.930 . S
C1766 C1767 1.355 . S
C1766 C1768 1.415 . S
C1767 C1766 1.355 . S
C1767 C1769 1.419 . S
C1768 C1766 1.415 . S
C1768 C1773 1.425 . S
C1768 C1775 1.409 . S
C1769 H1761 0.930 1_545 S
C1769 C1767 1.419 . S
C1769 C1770 1.362 . S
C1770 H1762 0.930 1_545 S
C1770 C1769 1.362 . S
C1770 C1773 1.409 . S
C1771 H1763 0.930 1_545 S
C1771 C1772 1.355 . S
C1771 C1773 1.415 . S
C1772 C1771 1.355 . S
C1772 C1774 1.419 . S
C1773 C1768 1.425 . S
C1773 C1770 1.409 . S
C1773 C1771 1.415 . S
C1774 H1764 0.930 . S
C1774 C1772 1.419 . S
C1774 C1775 1.362 . S
C1775 H1765 0.930 . S
C1775 C1768 1.409 . S
C1775 C1774 1.362 . S
H1776 C1782 0.930 . S
H1777 C1785 0.930 . S
H1778 C1786 0.930 . S
H1779 C1787 0.930 . S
H1780 C1790 0.930 . S
H1781 C1791 0.930 . S
C1782 H1776 0.930 . S
C1782 C1783 1.355 . S
C1782 C1784 1.415 . S
C1783 C1782 1.355 . S
C1783 C1785 1.419 . S
C1784 C1782 1.415 . S
C1784 C1789 1.425 . S
C1784 C1791 1.409 . S
C1785 H1777 0.930 . S
C1785 C1783 1.419 . S
C1785 C1786 1.362 . S
C1786 H1778 0.930 . S
C1786 C1785 1.362 . S
C1786 C1789 1.409 . S
C1787 H1779 0.930 . S
C1787 C1788 1.355 . S
C1787 C1789 1.415 . S
C1788 C1787 1.355 . S
C1788 C1790 1.419 . S
C1789 C1784 1.425 . S
C1789 C1786 1.409 . S
C1789 C1787 1.415 . S
C1790 H1780 0.930 . S
C1790 C1788 1.419 . S
C1790 C1791 1.362 . S
C1791 H1781 0.930 . S
C1791 C1784 1.409 . S
C1791 C1790 1.362 . S
H1792 C1798 0.930 . S
H1793 C1801 0.930 . S
H1794 C1802 0.930 . S
H1795 C1803 0.930 . S
H1796 C1806 0.930 . S
H1797 C1807 0.930 . S
C1798 H1792 0.930 . S
C1798 C1799 1.355 . S
C1798 C1800 1.415 . S
C1799 C1798 1.355 . S
C1799 C1801 1.419 . S
C1800 C1798 1.415 . S
C1800 C1805 1.425 . S
C1800 C1807 1.409 . S
C1801 H1793 0.930 . S
C1801 C1799 1.419 . S
C1801 C1802 1.362 . S
C1802 H1794 0.930 . S
C1802 C1801 1.362 . S
C1802 C1805 1.409 . S
C1803 H1795 0.930 . S
C1803 C1804 1.355 . S
C1803 C1805 1.415 . S
C1804 C1803 1.355 . S
C1804 C1806 1.419 . S
C1805 C1800 1.425 . S
C1805 C1802 1.409 . S
C1805 C1803 1.415 . S
C1806 H1796 0.930 . S
C1806 C1804 1.419 . S
C1806 C1807 1.362 . S
C1807 H1797 0.930 . S
C1807 C1800 1.409 . S
C1807 C1806 1.362 . S
H1808 C1814 0.930 . S
H1809 C1817 0.930 . S
H1810 C1818 0.930 . S
H1811 C1819 0.930 . S
H1812 C1822 0.930 . S
H1813 C1823 0.930 . S
C1814 H1808 0.930 . S
C1814 C1815 1.355 . S
C1814 C1816 1.415 . S
C1815 C1814 1.355 . S
C1815 C1817 1.419 . S
C1816 C1814 1.415 . S
C1816 C1821 1.425 . S
C1816 C1823 1.409 . S
C1817 H1809 0.930 . S
C1817 C1815 1.419 . S
C1817 C1818 1.362 . S
C1818 H1810 0.930 . S
C1818 C1817 1.362 . S
C1818 C1821 1.409 . S
C1819 H1811 0.930 . S
C1819 C1820 1.355 . S
C1819 C1821 1.415 . S
C1820 C1819 1.355 . S
C1820 C1822 1.419 . S
C1821 C1816 1.425 . S
C1821 C1818 1.409 . S
C1821 C1819 1.415 . S
C1822 H1812 0.930 . S
C1822 C1820 1.419 . S
C1822 C1823 1.362 . S
C1823 H1813 0.930 . S
C1823 C1816 1.409 . S
C1823 C1822 1.362 . S
H1824 C1830 0.930 . S
H1825 C1833 0.930 . S
H1826 C1834 0.930 . S
H1827 C1835 0.930 . S
H1828 C1838 0.930 . S
H1829 C1839 0.930 . S
C1830 H1824 0.930 . S
C1830 C1831 1.355 . S
C1830 C1832 1.415 . S
C1831 C1830 1.355 . S
C1831 C1833 1.419 . S
C1832 C1830 1.415 . S
C1832 C1837 1.425 . S
C1832 C1839 1.409 . S
C1833 H1825 0.930 . S
C1833 C1831 1.419 . S
C1833 C1834 1.362 . S
C1834 H1826 0.930 . S
C1834 C1833 1.362 . S
C1834 C1837 1.409 . S
C1835 H1827 0.930 . S
C1835 C1836 1.355 . S
C1835 C1837 1.415 . S
C1836 C1835 1.355 . S
C1836 C1838 1.419 . S
C1837 C1832 1.425 . S
C1837 C1834 1.409 . S
C1837 C1835 1.415 . S
C1838 H1828 0.930 . S
C1838 C1836 1.419 . S
C1838 C1839 1.362 . S
C1839 H1829 0.930 . S
C1839 C1832 1.409 . S
C1839 C1838 1.362 . S
H1840 C1846 0.930 . S
H1841 C1849 0.930 . S
H1842 C1850 0.930 . S
H1843 C1851 0.930 . S
H1844 C1854 0.930 . S
H1845 C1855 0.930 . S
C1846 H1840 0.930 . S
C1846 C1847 1.355 . S
C1846 C1848 1.415 . S
C1847 C1846 1.355 . S
C1847 C1849 1.419 . S
C1848 C1846 1.415 . S
C1848 C1853 1.425 . S
C1848 C1855 1.409 . S
C1849 H1841 0.930 . S
C1849 C1847 1.419 . S
C1849 C1850 1.362 . S
C1850 H1842 0.930 . S
C1850 C1849 1.362 . S
C1850 C1853 1.409 . S
C1851 H1843 0.930 . S
C1851 C1852 1.355 . S
C1851 C1853 1.415 . S
C1852 C1851 1.355 . S
C1852 C1854 1.419 . S
C1853 C1848 1.425 . S
C1853 C1850 1.409 . S
C1853 C1851 1.415 . S
C1854 H1844 0.930 . S
C1854 C1852 1.419 . S
C1854 C1855 1.362 . S
C1855 H1845 0.930 . S
C1855 C1848 1.409 . S
C1855 C1854 1.362 . S
H1856 C1862 0.930 . S
H1857 C1865 0.930 . S
H1858 C1866 0.930 . S
H1859 C1867 0.930 . S
H1860 C1870 0.930 . S
H1861 C1871 0.930 . S
C1862 H1856 0.930 . S
C1862 C1863 1.355 . S
C1862 C1864 1.415 . S
C1863 C1862 1.355 . S
C1863 C1865 1.419 . S
C1864 C1862 1.415 . S
C1864 C1869 1.425 . S
C1864 C1871 1.409 . S
C1865 H1857 0.930 . S
C1865 C1863 1.419 . S
C1865 C1866 1.362 . S
C1866 H1858 0.930 . S
C1866 C1865 1.362 . S
C1866 C1869 1.409 . S
C1867 H1859 0.930 . S
C1867 C1868 1.355 . S
C1867 C1869 1.415 . S
C1868 C1867 1.355 . S
C1868 C1870 1.419 . S
C1869 C1864 1.425 . S
C1869 C1866 1.409 . S
C1869 C1867 1.415 . S
C1870 H1860 0.930 . S
C1870 C1868 1.419 . S
C1870 C1871 1.362 . S
C1871 H1861 0.930 . S
C1871 C1864 1.409 . S
C1871 C1870 1.362 . S
H1872 C1878 0.930 . S
H1873 C1881 0.930 . S
H1874 C1882 0.930 . S
H1875 C1883 0.930 . S
H1876 C1886 0.930 . S
H1877 C1887 0.930 . S
C1878 H1872 0.930 . S
C1878 C1879 1.355 . S
C1878 C1880 1.415 . S
C1879 C1878 1.355 . S
C1879 C1881 1.419 . S
C1880 C1878 1.415 . S
C1880 C1885 1.425 . S
C1880 C1887 1.409 . S
C1881 H1873 0.930 . S
C1881 C1879 1.419 . S
C1881 C1882 1.362 . S
C1882 H1874 0.930 . S
C1882 C1881 1.362 . S
C1882 C1885 1.409 . S
C1883 H1875 0.930 . S
C1883 C1884 1.355 . S
C1883 C1885 1.415 . S
C1884 C1883 1.355 . S
C1884 C1886 1.419 . S
C1885 C1880 1.425 . S
C1885 C1882 1.409 . S
C1885 C1883 1.415 . S
C1886 H1876 0.930 . S
C1886 C1884 1.419 . S
C1886 C1887 1.362 . S
C1887 H1877 0.930 . S
C1887 C1880 1.409 . S
C1887 C1886 1.362 . S
H1888 C1894 0.930 . S
H1889 C1897 0.930 . S
H1890 C1898 0.930 . S
H1891 C1899 0.930 . S
H1892 C1902 0.930 . S
H1893 C1903 0.930 . S
C1894 H1888 0.930 . S
C1894 C1895 1.355 . S
C1894 C1896 1.415 . S
C1895 C1894 1.355 . S
C1895 C1897 1.419 . S
C1896 C1894 1.415 . S
C1896 C1901 1.425 . S
C1896 C1903 1.409 . S
C1897 H1889 0.930 . S
C1897 C1895 1.419 . S
C1897 C1898 1.362 . S
C1898 H1890 0.930 . S
C1898 C1897 1.362 . S
C1898 C1901 1.409 . S
C1899 H1891 0.930 . S
C1899 C1900 1.355 . S
C1899 C1901 1.415 . S
C1900 C1899 1.355 . S
C1900 C1902 1.419 . S
C1901 C1896 1.425 . S
C1901 C1898 1.409 . S
C1901 C1899 1.415 . S
C1902 H1892 0.930 . S
C1902 C1900 1.419 . S
C1902 C1903 1.362 . S
C1903 H1893 0.930 . S
C1903 C1896 1.409 . S
C1903 C1902 1.362 . S
H1904 C1910 0.930 . S
H1905 C1913 0.930 . S
H1906 C1914 0.930 . S
H1907 C1915 0.930 . S
H1908 C1918 0.930 . S
H1909 C1919 0.930 . S
C1910 H1904 0.930 . S
C1910 C1911 1.355 . S
C1910 C1912 1.415 . S
C1911 C1910 1.355 . S
C1911 C1913 1.419 . S
C1912 C1910 1.415 . S
C1912 C1917 1.425 . S
C1912 C1919 1.409 . S
C1913 H1905 0.930 . S
C1913 C1911 1.419 . S
C1913 C1914 1.362 . S
C1914 H1906 0.930 . S
C1914 C1913 1.362 . S
C1914 C1917 1.409 . S
C1915 H1907 0.930 . S
C1915 C1916 1.355 . S
C1915 C1917 1.415 . S
C1916 C1915 1.355 . S
C1916 C1918 1.419 . S
C1917 C1912 1.425 . S
C1917 C1914 1.409 . S
C1917 C1915 1.415 . S
C1918 H1908 0.930 . S
C1918 C1916 1.419 . S
C1918 C1919 1.362 . S
C1919 H1909 0.930 . S
C1919 C1912 1.409 . S
C1919 C1918 1.362 . S
H1920 C1926 0.930 . S
H1921 C1929 0.930 . S
H1922 C1930 0.930 . S
H1923 C1931 0.930 . S
H1924 C1934 0.930 . S
H1925 C1935 0.930 . S
C1926 H1920 0.930 . S
C1926 C1927 1.355 . S
C1926 C1928 1.415 . S
C1927 C1926 1.355 . S
C1927 C1929 1.419 . S
C1928 C1926 1.415 . S
C1928 C1933 1.425 . S
C1928 C1935 1.409 . S
C1929 H1921 0.930 . S
C1929 C1927 1.419 . S
C1929 C1930 1.362 . S
C1930 H1922 0.930 . S
C1930 C1929 1.362 . S
C1930 C1933 1.409 . S
C1931 H1923 0.930 . S
C1931 C1932 1.355 . S
C1931 C1933 1.415 . S
C1932 C1931 1.355 . S
C1932 C1934 1.419 . S
C1933 C1928 1.425 . S
C1933 C1930 1.409 . S
C1933 C1931 1.415 . S
C1934 H1924 0.930 . S
C1934 C1932 1.419 . S
C1934 C1935 1.362 . S
C1935 H1925 0.930 . S
C1935 C1928 1.409 . S
C1935 C1934 1.362 . S
H1936 C1942 0.930 . S
H1937 C1945 0.930 . S
H1938 C1946 0.930 . S
H1939 C1947 0.930 . S
H1940 C1950 0.930 . S
H1941 C1951 0.930 . S
C1942 H1936 0.930 . S
C1942 C1943 1.355 . S
C1942 C1944 1.415 . S
C1943 C1942 1.355 . S
C1943 C1945 1.419 . S
C1944 C1942 1.415 . S
C1944 C1949 1.425 . S
C1944 C1951 1.409 . S
C1945 H1937 0.930 . S
C1945 C1943 1.419 . S
C1945 C1946 1.362 . S
C1946 H1938 0.930 . S
C1946 C1945 1.362 . S
C1946 C1949 1.409 . S
C1947 H1939 0.930 . S
C1947 C1948 1.355 . S
C1947 C1949 1.415 . S
C1948 C1947 1.355 . S
C1948 C1950 1.419 . S
C1949 C1944 1.425 . S
C1949 C1946 1.409 . S
C1949 C1947 1.415 . S
C1950 H1940 0.930 . S
C1950 C1948 1.419 . S
C1950 C1951 1.362 . S
C1951 H1941 0.930 . S
C1951 C1944 1.409 . S
C1951 C1950 1.362 . S
H1952 C1958 0.930 . S
H1953 C1961 0.930 . S
H1954 C1962 0.930 . S
H1955 C1963 0.930 . S
H1956 C1966 0.930 . S
H1957 C1967 0.930 . S
C1958 H1952 0.930 . S
C1958 C1959 1.355 . S
C1958 C1960 1.415 . S
C1959 C1958 1.355 . S
C1959 C1961 1.419 . S
C1960 C1958 1.415 . S
C1960 C1965 1.425 . S
C1960 C1967 1.409 . S
C1961 H1953 0.930 . S
C1961 C1959 1.419 . S
C1961 C1962 1.362 . S
C1962 H1954 0.930 . S
C1962 C1961 1.362 . S
C1962 C1965 1.409 . S
C1963 H1955 0.930 . S
C1963 C1964 1.355 . S
C1963 C1965 1.415 . S
C1964 C1963 1.355 . S
C1964 C1966 1.419 . S
C1965 C1960 1.425 . S
C1965 C1962 1.409 . S
C1965 C1963 1.415 . S
C1966 H1956 0.930 . S
C1966 C1964 1.419 . S
C1966 C1967 1.362 . S
C1967 H1957 0.930 . S
C1967 C1960 1.409 . S
C1967 C1966 1.362 . S
H1968 C1974 0.930 . S
H1969 C1977 0.930 . S
H1970 C1978 0.930 . S
H1971 C1979 0.930 . S
H1972 C1982 0.930 . S
H1973 C1983 0.930 . S
C1974 H1968 0.930 . S
C1974 C1975 1.355 . S
C1974 C1976 1.415 . S
C1975 C1974 1.355 . S
C1975 C1977 1.419 . S
C1976 C1974 1.415 . S
C1976 C1981 1.425 . S
C1976 C1983 1.409 . S
C1977 H1969 0.930 . S
C1977 C1975 1.419 . S
C1977 C1978 1.362 . S
C1978 H1970 0.930 . S
C1978 C1977 1.362 . S
C1978 C1981 1.409 . S
C1979 H1971 0.930 . S
C1979 C1980 1.355 . S
C1979 C1981 1.415 . S
C1980 C1979 1.355 . S
C1980 C1982 1.419 . S
C1981 C1976 1.425 . S
C1981 C1978 1.409 . S
C1981 C1979 1.415 . S
C1982 H1972 0.930 . S
C1982 C1980 1.419 . S
C1982 C1983 1.362 . S
C1983 H1973 0.930 . S
C1983 C1976 1.409 . S
C1983 C1982 1.362 . S
H1984 C1990 0.930 . S
H1985 C1993 0.930 . S
H1986 C1994 0.930 . S
H1987 C1995 0.930 . S
H1988 C1998 0.930 . S
H1989 C1999 0.930 . S
C1990 H1984 0.930 . S
C1990 C1991 1.355 . S
C1990 C1992 1.415 . S
C1991 C1990 1.355 . S
C1991 C1993 1.419 . S
C1992 C1990 1.415 . S
C1992 C1997 1.425 . S
C1992 C1999 1.409 . S
C1993 H1985 0.930 . S
C1993 C1991 1.419 . S
C1993 C1994 1.362 . S
C1994 H1986 0.930 . S
C1994 C1993 1.362 . S
C1994 C1997 1.409 . S
C1995 H1987 0.930 . S
C1995 C1996 1.355 . S
C1995 C1997 1.415 . S
C1996 C1995 1.355 . S
C1996 C1998 1.419 . S
C1997 C1992 1.425 . S
C1997 C1994 1.409 . S
C1997 C1995 1.415 . S
C1998 H1988 0.930 . S
C1998 C1996 1.419 . S
C1998 C1999 1.362 . S
C1999 H1989 0.930 . S
C1999 C1992 1.409 . S
C1999 C1998 1.362 . S
H2000 C2006 0.930 . S
H2001 C2009 0.930 . S
H2002 C2010 0.930 . S
H2003 C2011 0.930 . S
H2004 C2014 0.930 . S
H2005 C2015 0.930 . S
C2006 H2000 0.930 . S
C2006 C2007 1.355 . S
C2006 C2008 1.415 . S
C2007 C2006 1.355 . S
C2007 C2009 1.419 . S
C2008 C2006 1.415 . S
C2008 C2013 1.425 . S
C2008 C2015 1.409 . S
C2009 H2001 0.930 . S
C2009 C2007 1.419 . S
C2009 C2010 1.362 . S
C2010 H2002 0.930 . S
C2010 C2009 1.362 . S
C2010 C2013 1.409 . S
C2011 H2003 0.930 . S
C2011 C2012 1.355 . S
C2011 C2013 1.415 . S
C2012 C2011 1.355 . S
C2012 C2014 1.419 . S
C2013 C2008 1.425 . S
C2013 C2010 1.409 . S
C2013 C2011 1.415 . S
C2014 H2004 0.930 . S
C2014 C2012 1.419 . S
C2014 C2015 1.362 . S
C2015 H2005 0.930 . S
C2015 C2008 1.409 . S
C2015 C2014 1.362 . S
H2016 C2022 0.930 . S
H2017 C2025 0.930 . S
H2018 C2026 0.930 . S
H2019 C2027 0.930 . S
H2020 C2030 0.930 . S
H2021 C2031 0.930 . S
C2022 H2016 0.930 . S
C2022 C2023 1.355 . S
C2022 C2024 1.415 . S
C2023 C2022 1.355 . S
C2023 C2025 1.419 . S
C2024 C2022 1.415 . S
C2024 C2029 1.425 . S
C2024 C2031 1.409 . S
C2025 H2017 0.930 . S
C2025 C2023 1.419 . S
C2025 C2026 1.362 . S
C2026 H2018 0.930 . S
C2026 C2025 1.362 . S
C2026 C2029 1.409 . S
C2027 H2019 0.930 . S
C2027 C2028 1.355 . S
C2027 C2029 1.415 . S
C2028 C2027 1.355 . S
C2028 C2030 1.419 . S
C2029 C2024 1.425 . S
C2029 C2026 1.409 . S
C2029 C2027 1.415 . S
C2030 H2020 0.930 . S
C2030 C2028 1.419 . S
C2030 C2031 1.362 . S
C2031 H2021 0.930 . S
C2031 C2024 1.409 . S
C2031 C2030 1.362 . S
H2032 C2038 0.930 . S
H2033 C2041 0.930 . S
H2034 C2042 0.930 . S
H2035 C2043 0.930 . S
H2036 C2046 0.930 . S
H2037 C2047 0.930 . S
C2038 H2032 0.930 . S
C2038 C2039 1.355 . S
C2038 C2040 1.415 . S
C2039 C2038 1.355 . S
C2039 C2041 1.419 . S
C2040 C2038 1.415 . S
C2040 C2045 1.425 . S
C2040 C2047 1.409 . S
C2041 H2033 0.930 . S
C2041 C2039 1.419 . S
C2041 C2042 1.362 . S
C2042 H2034 0.930 . S
C2042 C2041 1.362 . S
C2042 C2045 1.409 . S
C2043 H2035 0.930 . S
C2043 C2044 1.355 . S
C2043 C2045 1.415 . S
C2044 C2043 1.355 . S
C2044 C2046 1.419 . S
C2045 C2040 1.425 . S
C2045 C2042 1.409 . S
C2045 C2043 1.415 . S
C2046 H2036 0.930 . S
C2046 C2044 1.419 . S
C2046 C2047 1.362 . S
C2047 H2037 0.930 . S
C2047 C2040 1.409 . S
C2047 C2046 1.362 . S
H2048 C2054 0.930 . S
H2049 C2057 0.930 . S
H2050 C2058 0.930 . S
H2051 C2059 0.930 . S
H2052 C2062 0.930 . S
H2053 C2063 0.930 . S
C2054 H2048 0.930 . S
C2054 C2055 1.355 . S
C2054 C2056 1.415 . S
C2055 C2054 1.355 . S
C2055 C2057 1.419 . S
C2056 C2054 1.415 . S
C2056 C2061 1.425 . S
C2056 C2063 1.409 . S
C2057 H2049 0.930 . S
C2057 C2055 1.419 . S
C2057 C2058 1.362 . S
C2058 H2050 0.930 . S
C2058 C2057 1.362 . S
C2058 C2061 1.409 . S
C2059 H2051 0.930 . S
C2059 C2060 1.355 . S
C2059 C2061 1.415 . S
C2060 C2059 1.355 . S
C2060 C2062 1.419 . S
C2061 C2056 1.425 . S
C2061 C2058 1.409 . S
C2061 C2059 1.415 . S
C2062 H2052 0.930 . S
C2062 C2060 1.419 . S
C2062 C2063 1.362 . S
C2063 H2053 0.930 . S
C2063 C2056 1.409 . S
C2063 C2062 1.362 . S
H2064 C2070 0.930 . S
H2065 C2073 0.930 . S
H2066 C2074 0.930 . S
H2067 C2075 0.930 . S
H2068 C2078 0.930 . S
H2069 C2079 0.930 . S
C2070 H2064 0.930 . S
C2070 C2071 1.355 . S
C2070 C2072 1.415 . S
C2071 C2070 1.355 . S
C2071 C2073 1.419 . S
C2072 C2070 1.415 . S
C2072 C2077 1.425 . S
C2072 C2079 1.409 . S
C2073 H2065 0.930 . S
C2073 C2071 1.419 . S
C2073 C2074 1.362 . S
C2074 H2066 0.930 . S
C2074 C2073 1.362 . S
C2074 C2077 1.409 . S
C2075 H2067 0.930 . S
C2075 C2076 1.355 . S
C2075 C2077 1.415 . S
C2076 C2075 1.355 . S
C2076 C2078 1.419 . S
C2077 C2072 1.425 . S
C2077 C2074 1.409 . S
C2077 C2075 1.415 . S
C2078 H2068 0.930 . S
C2078 C2076 1.419 . S
C2078 C2079 1.362 . S
C2079 H2069 0.930 . S
C2079 C2072 1.409 . S
C2079 C2078 1.362 . S
H2080 C2086 0.930 . S
H2081 C2089 0.930 . S
H2082 C2090 0.930 . S
H2083 C2091 0.930 . S
H2084 C2094 0.930 . S
H2085 C2095 0.930 . S
C2086 H2080 0.930 . S
C2086 C2087 1.355 . S
C2086 C2088 1.415 . S
C2087 C2086 1.355 . S
C2087 C2089 1.419 . S
C2088 C2086 1.415 . S
C2088 C2093 1.425 . S
C2088 C2095 1.409 . S
C2089 H2081 0.930 . S
C2089 C2087 1.419 . S
C2089 C2090 1.362 . S
C2090 H2082 0.930 . S
C2090 C2089 1.362 . S
C2090 C2093 1.409 . S
C2091 H2083 0.930 . S
C2091 C2092 1.355 . S
C2091 C2093 1.415 . S
C2092 C2091 1.355 . S
C2092 C2094 1.419 . S
C2093 C2088 1.425 . S
C2093 C2090 1.409 . S
C2093 C2091 1.415 . S
C2094 H2084 0.930 . S
C2094 C2092 1.419 . S
C2094 C2095 1.362 . S
C2095 H2085 0.930 . S
C2095 C2088 1.409 . S
C2095 C2094 1.362 . S
H2096 C2102 0.930 . S
H2097 C2105 0.930 . S
H2098 C2106 0.930 . S
H2099 C2107 0.930 . S
H2100 C2110 0.930 . S
H2101 C2111 0.930 . S
C2102 H2096 0.930 . S
C2102 C2103 1.355 . S
C2102 C2104 1.415 . S
C2103 C2102 1.355 . S
C2103 C2105 1.419 . S
C2104 C2102 1.415 . S
C2104 C2109 1.425 . S
C2104 C2111 1.409 . S
C2105 H2097 0.930 . S
C2105 C2103 1.419 . S
C2105 C2106 1.362 . S
C2106 H2098 0.930 . S
C2106 C2105 1.362 . S
C2106 C2109 1.409 . S
C2107 H2099 0.930 . S
C2107 C2108 1.355 . S
C2107 C2109 1.415 . S
C2108 C2107 1.355 . S
C2108 C2110 1.419 . S
C2109 C2104 1.425 . S
C2109 C2106 1.409 . S
C2109 C2107 1.415 . S
C2110 H2100 0.930 . S
C2110 C2108 1.419 . S
C2110 C2111 1.362 . S
C2111 H2101 0.930 . S
C2111 C2104 1.409 . S
C2111 C2110 1.362 . S
H2112 C2118 0.930 . S
H2113 C2121 0.930 . S
H2114 C2122 0.930 . S
H2115 C2123 0.930 . S
H2116 C2126 0.930 . S
H2117 C2127 0.930 . S
C2118 H2112 0.930 . S
C2118 C2119 1.355 . S
C2118 C2120 1.415 . S
C2119 C2118 1.355 . S
C2119 C2121 1.419 . S
C2120 C2118 1.415 . S
C2120 C2125 1.425 . S
C2120 C2127 1.409 . S
C2121 H2113 0.930 . S
C2121 C2119 1.419 . S
C2121 C2122 1.362 . S
C2122 H2114 0.930 . S
C2122 C2121 1.362 . S
C2122 C2125 1.409 . S
C2123 H2115 0.930 . S
C2123 C2124 1.355 . S
C2123 C2125 1.415 . S
C2124 C2123 1.355 . S
C2124 C2126 1.419 . S
C2125 C2120 1.425 . S
C2125 C2122 1.409 . S
C2125 C2123 1.415 . S
C2126 H2116 0.930 . S
C2126 C2124 1.419 . S
C2126 C2127 1.362 . S
C2127 H2117 0.930 . S
C2127 C2120 1.409 . S
C2127 C2126 1.362 . S
H2128 C2134 0.930 . S
H2129 C2137 0.930 . S
H2130 C2138 0.930 . S
H2131 C2139 0.930 . S
H2132 C2142 0.930 . S
H2133 C2143 0.930 . S
C2134 H2128 0.930 . S
C2134 C2135 1.355 . S
C2134 C2136 1.415 . S
C2135 C2134 1.355 . S
C2135 C2137 1.419 . S
C2136 C2134 1.415 . S
C2136 C2141 1.425 . S
C2136 C2143 1.409 . S
C2137 H2129 0.930 . S
C2137 C2135 1.419 . S
C2137 C2138 1.362 . S
C2138 H2130 0.930 . S
C2138 C2137 1.362 . S
C2138 C2141 1.409 . S
C2139 H2131 0.930 . S
C2139 C2140 1.355 . S
C2139 C2141 1.415 . S
C2140 C2139 1.355 . S
C2140 C2142 1.419 . S
C2141 C2136 1.425 . S
C2141 C2138 1.409 . S
C2141 C2139 1.415 . S
C2142 H2132 0.930 . S
C2142 C2140 1.419 . S
C2142 C2143 1.362 . S
C2143 H2133 0.930 . S
C2143 C2136 1.409 . S
C2143 C2142 1.362 . S
H2144 C2150 0.930 . S
H2145 C2153 0.930 . S
H2146 C2154 0.930 . S
H2147 C2155 0.930 . S
H2148 C2158 0.930 . S
H2149 C2159 0.930 . S
C2150 H2144 0.930 . S
C2150 C2151 1.355 . S
C2150 C2152 1.415 . S
C2151 C2150 1.355 . S
C2151 C2153 1.419 . S
C2152 C2150 1.415 . S
C2152 C2157 1.425 . S
C2152 C2159 1.409 . S
C2153 H2145 0.930 . S
C2153 C2151 1.419 . S
C2153 C2154 1.362 . S
C2154 H2146 0.930 . S
C2154 C2153 1.362 . S
C2154 C2157 1.409 . S
C2155 H2147 0.930 . S
C2155 C2156 1.355 . S
C2155 C2157 1.415 . S
C2156 C2155 1.355 . S
C2156 C2158 1.419 . S
C2157 C2152 1.425 . S
C2157 C2154 1.409 . S
C2157 C2155 1.415 . S
C2158 H2148 0.930 . S
C2158 C2156 1.419 . S
C2158 C2159 1.362 . S
C2159 H2149 0.930 . S
C2159 C2152 1.409 . S
C2159 C2158 1.362 . S
H2160 C2166 0.930 . S
H2161 C2169 0.930 . S
H2162 C2170 0.930 . S
H2163 C2171 0.930 . S
H2164 C2174 0.930 . S
H2165 C2175 0.930 . S
C2166 H2160 0.930 . S
C2166 C2167 1.355 . S
C2166 C2168 1.415 . S
C2167 C2166 1.355 . S
C2167 C2169 1.419 . S
C2168 C2166 1.415 . S
C2168 C2173 1.425 . S
C2168 C2175 1.409 . S
C2169 H2161 0.930 . S
C2169 C2167 1.419 . S
C2169 C2170 1.362 . S
C2170 H2162 0.930 . S
C2170 C2169 1.362 . S
C2170 C2173 1.409 . S
C2171 H2163 0.930 . S
C2171 C2172 1.355 . S
C2171 C2173 1.415 . S
C2172 C2171 1.355 . S
C2172 C2174 1.419 . S
C2173 C2168 1.425 . S
C2173 C2170 1.409 . S
C2173 C2171 1.415 . S
C2174 H2164 0.930 . S
C2174 C2172 1.419 . S
C2174 C2175 1.362 . S
C2175 H2165 0.930 . S
C2175 C2168 1.409 . S
C2175 C2174 1.362 . S
H2176 C2182 0.930 . S
H2177 C2185 0.930 . S
H2178 C2186 0.930 . S
H2179 C2187 0.930 . S
H2180 C2190 0.930 . S
H2181 C2191 0.930 . S
C2182 H2176 0.930 . S
C2182 C2183 1.355 1_545 S
C2182 C2184 1.415 . S
C2183 C2182 1.355 1_565 S
C2183 C2185 1.419 . S
C2184 C2182 1.415 . S
C2184 C2189 1.425 1_545 S
C2184 C2191 1.409 . S
C2185 H2177 0.930 . S
C2185 C2183 1.419 . S
C2185 C2186 1.362 . S
C2186 H2178 0.930 . S
C2186 C2185 1.362 . S
C2186 C2189 1.409 . S
C2187 H2179 0.930 . S
C2187 C2188 1.355 . S
C2187 C2189 1.415 . S
C2188 C2187 1.355 . S
C2188 C2190 1.419 1_565 S
C2189 C2184 1.425 1_565 S
C2189 C2186 1.409 . S
C2189 C2187 1.415 . S
C2190 H2180 0.930 . S
C2190 C2188 1.419 1_545 S
C2190 C2191 1.362 . S
C2191 H2181 0.930 . S
C2191 C2184 1.409 . S
C2191 C2190 1.362 . S
H2192 C2198 0.930 . S
H2193 C2201 0.930 . S
H2194 C2202 0.930 . S
H2195 C2203 0.930 . S
H2196 C2206 0.930 . S
H2197 C2207 0.930 . S
C2198 H2192 0.930 . S
C2198 C2199 1.355 . S
C2198 C2200 1.415 . S
C2199 C2198 1.355 . S
C2199 C2201 1.419 . S
C2200 C2198 1.415 . S
C2200 C2205 1.425 . S
C2200 C2207 1.409 . S
C2201 H2193 0.930 . S
C2201 C2199 1.419 . S
C2201 C2202 1.362 . S
C2202 H2194 0.930 . S
C2202 C2201 1.362 . S
C2202 C2205 1.409 . S
C2203 H2195 0.930 . S
C2203 C2204 1.355 . S
C2203 C2205 1.415 . S
C2204 C2203 1.355 . S
C2204 C2206 1.419 . S
C2205 C2200 1.425 . S
C2205 C2202 1.409 . S
C2205 C2203 1.415 . S
C2206 H2196 0.930 . S
C2206 C2204 1.419 . S
C2206 C2207 1.362 . S
C2207 H2197 0.930 . S
C2207 C2200 1.409 . S
C2207 C2206 1.362 . S
H2208 C2214 0.930 . S
H2209 C2217 0.930 . S
H2210 C2218 0.930 . S
H2211 C2219 0.930 . S
H2212 C2222 0.930 . S
H2213 C2223 0.930 . S
C2214 H2208 0.930 . S
C2214 C2215 1.355 . S
C2214 C2216 1.415 . S
C2215 C2214 1.355 . S
C2215 C2217 1.419 . S
C2216 C2214 1.415 . S
C2216 C2221 1.425 . S
C2216 C2223 1.409 . S
C2217 H2209 0.930 . S
C2217 C2215 1.419 . S
C2217 C2218 1.362 . S
C2218 H2210 0.930 . S
C2218 C2217 1.362 . S
C2218 C2221 1.409 . S
C2219 H2211 0.930 . S
C2219 C2220 1.355 . S
C2219 C2221 1.415 . S
C2220 C2219 1.355 . S
C2220 C2222 1.419 . S
C2221 C2216 1.425 . S
C2221 C2218 1.409 . S
C2221 C2219 1.415 . S
C2222 H2212 0.930 . S
C2222 C2220 1.419 . S
C2222 C2223 1.362 . S
C2223 H2213 0.930 . S
C2223 C2216 1.409 . S
C2223 C2222 1.362 . S
H2224 C2230 0.930 . S
H2225 C2233 0.930 . S
H2226 C2234 0.930 . S
H2227 C2235 0.930 . S
H2228 C2238 0.930 . S
H2229 C2239 0.930 . S
C2230 H2224 0.930 . S
C2230 C2231 1.338 1_565 S
C2230 C2232 1.415 . S
C2231 C2230 1.338 1_545 S
C2231 C2233 1.436 . S
C2232 C2230 1.415 . S
C2232 C2237 1.425 1_565 S
C2232 C2239 1.409 . S
C2233 H2225 0.930 . S
C2233 C2231 1.436 . S
C2233 C2234 1.362 . S
C2234 H2226 0.930 . S
C2234 C2233 1.362 . S
C2234 C2237 1.409 . S
C2235 H2227 0.930 . S
C2235 C2236 1.355 1_545 S
C2235 C2237 1.415 . S
C2236 C2235 1.355 1_565 S
C2236 C2238 1.419 . S
C2237 C2232 1.425 1_545 S
C2237 C2234 1.409 . S
C2237 C2235 1.415 . S
C2238 H2228 0.930 . S
C2238 C2236 1.419 . S
C2238 C2239 1.362 . S
C2239 H2229 0.930 . S
C2239 C2232 1.409 . S
C2239 C2238 1.362 . S
H2240 C2246 0.930 . S
H2241 C2249 0.930 . S
H2242 C2250 0.930 . S
H2243 C2251 0.930 . S
H2244 C2254 0.930 . S
H2245 C2255 0.930 . S
C2246 H2240 0.930 . S
C2246 C2247 1.355 1_565 S
C2246 C2248 1.415 . S
C2247 C2246 1.355 1_545 S
C2247 C2249 1.419 . S
C2248 C2246 1.415 . S
C2248 C2253 1.425 1_565 S
C2248 C2255 1.409 . S
C2249 H2241 0.930 . S
C2249 C2247 1.419 . S
C2249 C2250 1.362 . S
C2250 H2242 0.930 . S
C2250 C2249 1.362 . S
C2250 C2253 1.409 . S
C2251 H2243 0.930 . S
C2251 C2252 1.355 . S
C2251 C2253 1.415 . S
C2252 C2251 1.355 . S
C2252 C2254 1.419 1_545 S
C2253 C2248 1.425 1_545 S
C2253 C2250 1.409 . S
C2253 C2251 1.415 . S
C2254 H2244 0.930 . S
C2254 C2252 1.419 1_565 S
C2254 C2255 1.362 . S
C2255 H2245 0.930 . S
C2255 C2248 1.409 . S
C2255 C2254 1.362 . S
H2256 C2262 0.930 . S
H2257 C2265 0.930 . S
H2258 C2266 0.930 . S
H2259 C2267 0.930 . S
H2260 C2270 0.930 . S
H2261 C2271 0.930 . S
C2262 H2256 0.930 . S
C2262 C2263 1.355 . S
C2262 C2264 1.415 . S
C2263 C2262 1.355 . S
C2263 C2265 1.419 . S
C2264 C2262 1.415 . S
C2264 C2269 1.425 . S
C2264 C2271 1.409 . S
C2265 H2257 0.930 . S
C2265 C2263 1.419 . S
C2265 C2266 1.362 . S
C2266 H2258 0.930 . S
C2266 C2265 1.362 . S
C2266 C2269 1.409 . S
C2267 H2259 0.930 . S
C2267 C2268 1.355 . S
C2267 C2269 1.415 . S
C2268 C2267 1.355 . S
C2268 C2270 1.419 . S
C2269 C2264 1.425 . S
C2269 C2266 1.409 . S
C2269 C2267 1.415 . S
C2270 H2260 0.930 . S
C2270 C2268 1.419 . S
C2270 C2271 1.362 . S
C2271 H2261 0.930 . S
C2271 C2264 1.409 . S
C2271 C2270 1.362 . S
H2272 C2278 0.930 . S
H2273 C2281 0.930 . S
H2274 C2282 0.930 . S
H2275 C2283 0.930 . S
H2276 C2286 0.930 . S
H2277 C2287 0.930 . S
C2278 H2272 0.930 . S
C2278 C2279 1.355 . S
C2278 C2280 1.415 . S
C2279 C2278 1.355 . S
C2279 C2281 1.419 . S
C2280 C2278 1.415 . S
C2280 C2285 1.425 . S
C2280 C2287 1.409 . S
C2281 H2273 0.930 . S
C2281 C2279 1.419 . S
C2281 C2282 1.362 . S
C2282 H2274 0.930 . S
C2282 C2281 1.362 . S
C2282 C2285 1.409 . S
C2283 H2275 0.930 . S
C2283 C2284 1.355 . S
C2283 C2285 1.415 . S
C2284 C2283 1.355 . S
C2284 C2286 1.419 . S
C2285 C2280 1.425 . S
C2285 C2282 1.409 . S
C2285 C2283 1.415 . S
C2286 H2276 0.930 . S
C2286 C2284 1.419 . S
C2286 C2287 1.362 . S
C2287 H2277 0.930 . S
C2287 C2280 1.409 . S
C2287 C2286 1.362 . S
H2288 C2294 0.930 . S
H2289 C2297 0.930 . S
H2290 C2298 0.930 . S
H2291 C2299 0.930 . S
H2292 C2302 0.930 . S
H2293 C2303 0.930 . S
C2294 H2288 0.930 . S
C2294 C2295 1.355 1_545 S
C2294 C2296 1.415 . S
C2295 C2294 1.355 1_565 S
C2295 C2297 1.419 . S
C2296 C2294 1.415 . S
C2296 C2301 1.425 1_545 S
C2296 C2303 1.409 . S
C2297 H2289 0.930 . S
C2297 C2295 1.419 . S
C2297 C2298 1.362 . S
C2298 H2290 0.930 . S
C2298 C2297 1.362 . S
C2298 C2301 1.409 . S
C2299 H2291 0.930 . S
C2299 C2300 1.355 1_565 S
C2299 C2301 1.415 . S
C2300 C2299 1.355 1_545 S
C2300 C2302 1.419 . S
C2301 C2296 1.425 1_565 S
C2301 C2298 1.409 . S
C2301 C2299 1.415 . S
C2302 H2292 0.930 . S
C2302 C2300 1.419 . S
C2302 C2303 1.362 . S
C2303 H2293 0.930 . S
C2303 C2296 1.409 . S
C2303 C2302 1.362 . S
H2304 C2310 0.930 . S
H2305 C2313 0.930 . S
H2306 C2314 0.930 . S
H2307 C2315 0.930 . S
H2308 C2318 0.930 . S
H2309 C2319 0.930 . S
C2310 H2304 0.930 . S
C2310 C2311 1.355 . S
C2310 C2312 1.415 . S
C2311 C2310 1.355 . S
C2311 C2313 1.419 . S
C2312 C2310 1.415 . S
C2312 C2317 1.425 . S
C2312 C2319 1.409 . S
C2313 H2305 0.930 . S
C2313 C2311 1.419 . S
C2313 C2314 1.362 . S
C2314 H2306 0.930 . S
C2314 C2313 1.362 . S
C2314 C2317 1.409 . S
C2315 H2307 0.930 . S
C2315 C2316 1.355 . S
C2315 C2317 1.415 1_655 S
C2316 C2315 1.355 . S
C2316 C2318 1.419 . S
C2317 C2312 1.425 . S
C2317 C2314 1.409 . S
C2317 C2315 1.415 1_455 S
C2318 H2308 0.930 . S
C2318 C2316 1.419 . S
C2318 C2319 1.362 1_655 S
C2319 H2309 0.930 . S
C2319 C2312 1.409 . S
C2319 C2318 1.362 1_455 S
H2320 C2326 0.930 . S
H2321 C2329 0.930 . S
H2322 C2330 0.930 . S
H2323 C2331 0.930 . S
H2324 C2334 0.930 . S
H2325 C2335 0.930 . S
C2326 H2320 0.930 . S
C2326 C2327 1.355 . S
C2326 C2328 1.415 . S
C2327 C2326 1.355 . S
C2327 C2329 1.419 . S
C2328 C2326 1.415 . S
C2328 C2333 1.425 . S
C2328 C2335 1.409 . S
C2329 H2321 0.930 . S
C2329 C2327 1.419 . S
C2329 C2330 1.362 . S
C2330 H2322 0.930 . S
C2330 C2329 1.362 . S
C2330 C2333 1.409 . S
C2331 H2323 0.930 . S
C2331 C2332 1.355 . S
C2331 C2333 1.415 . S
C2332 C2331 1.355 . S
C2332 C2334 1.419 . S
C2333 C2328 1.425 . S
C2333 C2330 1.409 . S
C2333 C2331 1.415 . S
C2334 H2324 0.930 . S
C2334 C2332 1.419 . S
C2334 C2335 1.362 . S
C2335 H2325 0.930 . S
C2335 C2328 1.409 . S
C2335 C2334 1.362 . S
H2336 C2342 0.930 . S
H2337 C2345 0.930 . S
H2338 C2346 0.930 . S
H2339 C2347 0.930 . S
H2340 C2350 0.930 . S
H2341 C2351 0.930 . S
C2342 H2336 0.930 . S
C2342 C2343 1.355 . S
C2342 C2344 1.415 1_655 S
C2343 C2342 1.355 . S
C2343 C2345 1.419 . S
C2344 C2342 1.415 1_455 S
C2344 C2349 1.425 . S
C2344 C2351 1.409 . S
C2345 H2337 0.930 . S
C2345 C2343 1.419 . S
C2345 C2346 1.362 1_655 S
C2346 H2338 0.930 . S
C2346 C2345 1.362 1_455 S
C2346 C2349 1.409 . S
C2347 H2339 0.930 . S
C2347 C2348 1.355 . S
C2347 C2349 1.415 . S
C2348 C2347 1.355 . S
C2348 C2350 1.419 . S
C2349 C2344 1.425 . S
C2349 C2346 1.409 . S
C2349 C2347 1.415 . S
C2350 H2340 0.930 . S
C2350 C2348 1.419 . S
C2350 C2351 1.362 . S
C2351 H2341 0.930 . S
C2351 C2344 1.409 . S
C2351 C2350 1.362 . S
H2352 C2358 0.930 . S
H2353 C2361 0.930 . S
H2354 C2362 0.930 . S
H2355 C2363 0.930 . S
H2356 C2366 0.930 . S
H2357 C2367 0.930 . S
C2358 H2352 0.930 . S
C2358 C2359 1.355 . S
C2358 C2360 1.415 . S
C2359 C2358 1.355 . S
C2359 C2361 1.419 . S
C2360 C2358 1.415 . S
C2360 C2365 1.425 . S
C2360 C2367 1.409 . S
C2361 H2353 0.930 . S
C2361 C2359 1.419 . S
C2361 C2362 1.362 . S
C2362 H2354 0.930 . S
C2362 C2361 1.362 . S
C2362 C2365 1.409 . S
C2363 H2355 0.930 . S
C2363 C2364 1.355 . S
C2363 C2365 1.415 . S
C2364 C2363 1.355 . S
C2364 C2366 1.419 . S
C2365 C2360 1.425 . S
C2365 C2362 1.409 . S
C2365 C2363 1.415 . S
C2366 H2356 0.930 . S
C2366 C2364 1.419 . S
C2366 C2367 1.362 . S
C2367 H2357 0.930 . S
C2367 C2360 1.409 . S
C2367 C2366 1.362 . S
H2368 C2374 0.930 . S
H2369 C2377 0.930 . S
H2370 C2378 0.930 . S
H2371 C2379 0.930 . S
H2372 C2382 0.930 . S
H2373 C2383 0.930 . S
C2374 H2368 0.930 . S
C2374 C2375 1.355 . S
C2374 C2376 1.415 . S
C2375 C2374 1.355 . S
C2375 C2377 1.419 . S
C2376 C2374 1.415 . S
C2376 C2381 1.425 . S
C2376 C2383 1.409 . S
C2377 H2369 0.930 . S
C2377 C2375 1.419 . S
C2377 C2378 1.362 . S
C2378 H2370 0.930 . S
C2378 C2377 1.362 . S
C2378 C2381 1.409 . S
C2379 H2371 0.930 . S
C2379 C2380 1.355 . S
C2379 C2381 1.415 1_455 S
C2380 C2379 1.355 . S
C2380 C2382 1.419 . S
C2381 C2376 1.425 . S
C2381 C2378 1.409 . S
C2381 C2379 1.415 1_655 S
C2382 H2372 0.930 . S
C2382 C2380 1.419 . S
C2382 C2383 1.362 1_455 S
C2383 H2373 0.930 . S
C2383 C2376 1.409 . S
C2383 C2382 1.362 1_655 S
H2384 C2390 0.930 . S
H2385 C2393 0.930 . S
H2386 C2394 0.930 . S
H2387 C2395 0.930 . S
H2388 C2398 0.930 . S
H2389 C2399 0.930 . S
C2390 H2384 0.930 . S
C2390 C2391 1.355 . S
C2390 C2392 1.415 . S
C2391 C2390 1.355 . S
C2391 C2393 1.419 . S
C2392 C2390 1.415 . S
C2392 C2397 1.425 . S
C2392 C2399 1.409 . S
C2393 H2385 0.930 . S
C2393 C2391 1.419 . S
C2393 C2394 1.362 . S
C2394 H2386 0.930 . S
C2394 C2393 1.362 . S
C2394 C2397 1.409 . S
C2395 H2387 0.930 . S
C2395 C2396 1.355 . S
C2395 C2397 1.415 . S
C2396 C2395 1.355 . S
C2396 C2398 1.419 . S
C2397 C2392 1.425 . S
C2397 C2394 1.409 . S
C2397 C2395 1.415 . S
C2398 H2388 0.930 . S
C2398 C2396 1.419 . S
C2398 C2399 1.362 . S
C2399 H2389 0.930 . S
C2399 C2392 1.409 . S
C2399 C2398 1.362 . S
H2400 C2406 0.930 . S
H2401 C2409 0.930 . S
H2402 C2410 0.930 . S
H2403 C2411 0.930 . S
H2404 C2414 0.930 . S
H2405 C2415 0.930 . S
C2406 H2400 0.930 . S
C2406 C2407 1.355 . S
C2406 C2408 1.415 1_455 S
C2407 C2406 1.355 . S
C2407 C2409 1.419 . S
C2408 C2406 1.415 1_655 S
C2408 C2413 1.425 . S
C2408 C2415 1.409 . S
C2409 H2401 0.930 . S
C2409 C2407 1.419 . S
C2409 C2410 1.362 1_455 S
C2410 H2402 0.930 . S
C2410 C2409 1.362 1_655 S
C2410 C2413 1.409 . S
C2411 H2403 0.930 . S
C2411 C2412 1.355 . S
C2411 C2413 1.415 . S
C2412 C2411 1.355 . S
C2412 C2414 1.419 . S
C2413 C2408 1.425 . S
C2413 C2410 1.409 . S
C2413 C2411 1.415 . S
C2414 H2404 0.930 . S
C2414 C2412 1.419 . S
C2414 C2415 1.362 . S
C2415 H2405 0.930 . S
C2415 C2408 1.409 . S
C2415 C2414 1.362 . S
H2416 C2422 0.930 . S
H2417 C2425 0.930 . S
H2418 C2426 0.930 . S
H2419 C2427 0.930 . S
H2420 C2430 0.930 . S
H2421 C2431 0.930 . S
C2422 H2416 0.930 . S
C2422 C2423 1.355 . S
C2422 C2424 1.415 . S
C2423 C2422 1.355 . S
C2423 C2425 1.419 . S
C2424 C2422 1.415 . S
C2424 C2429 1.425 . S
C2424 C2431 1.409 . S
C2425 H2417 0.930 . S
C2425 C2423 1.419 . S
C2425 C2426 1.362 . S
C2426 H2418 0.930 . S
C2426 C2425 1.362 . S
C2426 C2429 1.409 . S
C2427 H2419 0.930 . S
C2427 C2428 1.355 . S
C2427 C2429 1.415 . S
C2428 C2427 1.355 . S
C2428 C2430 1.419 . S
C2429 C2424 1.425 . S
C2429 C2426 1.409 . S
C2429 C2427 1.415 . S
C2430 H2420 0.930 . S
C2430 C2428 1.419 . S
C2430 C2431 1.362 . S
C2431 H2421 0.930 . S
C2431 C2424 1.409 . S
C2431 C2430 1.362 . S
H2432 C2438 0.930 . S
H2433 C2441 0.930 . S
H2434 C2442 0.930 . S
H2435 C2443 0.915 1_545 S
H2436 C2446 0.930 . S
H2437 C2447 0.930 . S
C2438 H2432 0.930 . S
C2438 C2439 1.371 . S
C2438 C2440 1.415 1_655 S
C2439 C2438 1.371 . S
C2439 C2441 1.407 1_565 S
C2440 C2438 1.415 1_455 S
C2440 C2445 1.425 . S
C2440 C2447 1.409 . S
C2441 H2433 0.930 . S
C2441 C2439 1.407 1_545 S
C2441 C2442 1.362 1_655 S
C2442 H2434 0.930 . S
C2442 C2441 1.362 1_455 S
C2442 C2445 1.409 1_545 S
C2443 H2435 0.915 1_565 S
C2443 C2444 1.355 . S
C2443 C2445 1.415 . S
C2444 C2443 1.355 . S
C2444 C2446 1.419 . S
C2445 C2440 1.425 . S
C2445 C2442 1.409 1_565 S
C2445 C2443 1.415 . S
C2446 H2436 0.930 . S
C2446 C2444 1.419 . S
C2446 C2447 1.362 . S
C2447 H2437 0.930 . S
C2447 C2440 1.409 . S
C2447 C2446 1.362 . S
H2448 C2454 0.930 . S
H2449 C2457 0.930 . S
H2450 C2458 0.930 . S
H2451 C2459 0.930 . S
H2452 C2462 0.930 . S
H2453 C2463 0.930 . S
C2454 H2448 0.930 . S
C2454 C2455 1.355 . S
C2454 C2456 1.415 . S
C2455 C2454 1.355 . S
C2455 C2457 1.419 . S
C2456 C2454 1.415 . S
C2456 C2461 1.425 . S
C2456 C2463 1.409 . S
C2457 H2449 0.930 . S
C2457 C2455 1.419 . S
C2457 C2458 1.362 . S
C2458 H2450 0.930 . S
C2458 C2457 1.362 . S
C2458 C2461 1.409 . S
C2459 H2451 0.930 . S
C2459 C2460 1.355 . S
C2459 C2461 1.415 . S
C2460 C2459 1.355 . S
C2460 C2462 1.419 . S
C2461 C2456 1.425 . S
C2461 C2458 1.409 . S
C2461 C2459 1.415 . S
C2462 H2452 0.930 . S
C2462 C2460 1.419 . S
C2462 C2463 1.362 . S
C2463 H2453 0.930 . S
C2463 C2456 1.409 . S
C2463 C2462 1.362 . S
H2464 C2470 0.930 . S
H2465 C2473 0.930 . S
H2466 C2474 0.930 . S
H2467 C2475 0.930 . S
H2468 C2478 0.930 . S
H2469 C2479 0.930 . S
C2470 H2464 0.930 . S
C2470 C2471 1.355 . S
C2470 C2472 1.415 1_655 S
C2471 C2470 1.355 . S
C2471 C2473 1.419 . S
C2472 C2470 1.415 1_455 S
C2472 C2477 1.425 . S
C2472 C2479 1.409 . S
C2473 H2465 0.930 . S
C2473 C2471 1.419 . S
C2473 C2474 1.362 1_655 S
C2474 H2466 0.930 . S
C2474 C2473 1.362 1_455 S
C2474 C2477 1.409 . S
C2475 H2467 0.930 . S
C2475 C2476 1.355 . S
C2475 C2477 1.415 . S
C2476 C2475 1.355 . S
C2476 C2478 1.419 . S
C2477 C2472 1.425 . S
C2477 C2474 1.409 . S
C2477 C2475 1.415 . S
C2478 H2468 0.930 . S
C2478 C2476 1.419 . S
C2478 C2479 1.362 . S
C2479 H2469 0.930 . S
C2479 C2472 1.409 . S
C2479 C2478 1.362 . S
H2480 C2486 0.930 . S
H2481 C2489 0.930 . S
H2482 C2490 0.930 . S
H2483 C2491 0.930 . S
H2484 C2494 0.930 . S
H2485 C2495 0.930 . S
C2486 H2480 0.930 . S
C2486 C2487 1.355 1_565 S
C2486 C2488 1.415 . S
C2487 C2486 1.355 1_545 S
C2487 C2489 1.419 . S
C2488 C2486 1.415 . S
C2488 C2493 1.425 1_565 S
C2488 C2495 1.409 . S
C2489 H2481 0.930 . S
C2489 C2487 1.419 . S
C2489 C2490 1.362 . S
C2490 H2482 0.930 . S
C2490 C2489 1.362 . S
C2490 C2493 1.409 . S
C2491 H2483 0.930 . S
C2491 C2492 1.355 1_545 S
C2491 C2493 1.415 . S
C2492 C2491 1.355 1_565 S
C2492 C2494 1.419 . S
C2493 C2488 1.425 1_545 S
C2493 C2490 1.409 . S
C2493 C2491 1.415 . S
C2494 H2484 0.930 . S
C2494 C2492 1.419 . S
C2494 C2495 1.362 . S
C2495 H2485 0.930 . S
C2495 C2488 1.409 . S
C2495 C2494 1.362 . S
H2496 C2502 0.930 . S
H2497 C2505 0.930 . S
H2498 C2506 0.930 . S
H2499 C2507 0.930 . S
H2500 C2510 0.930 . S
H2501 C2511 0.930 . S
C2502 H2496 0.930 . S
C2502 C2503 1.355 . S
C2502 C2504 1.415 . S
C2503 C2502 1.355 . S
C2503 C2505 1.419 . S
C2504 C2502 1.415 . S
C2504 C2509 1.425 . S
C2504 C2511 1.409 1_545 S
C2505 H2497 0.930 . S
C2505 C2503 1.419 . S
C2505 C2506 1.362 . S
C2506 H2498 0.930 . S
C2506 C2505 1.362 . S
C2506 C2509 1.409 . S
C2507 H2499 0.930 . S
C2507 C2508 1.348 1_545 S
C2507 C2509 1.415 1_455 S
C2508 C2507 1.348 1_565 S
C2508 C2510 1.424 . S
C2509 C2504 1.425 . S
C2509 C2506 1.409 . S
C2509 C2507 1.415 1_655 S
C2510 H2500 0.930 . S
C2510 C2508 1.424 . S
C2510 C2511 1.362 1_455 S
C2511 H2501 0.930 . S
C2511 C2504 1.409 1_565 S
C2511 C2510 1.362 1_655 S
H2512 C2518 0.930 . S
H2513 C2521 0.930 . S
H2514 C2522 0.930 . S
H2515 C2523 0.930 . S
H2516 C2526 0.930 . S
H2517 C2527 0.930 . S
C2518 H2512 0.930 . S
C2518 C2519 1.355 . S
C2518 C2520 1.415 . S
C2519 C2518 1.355 . S
C2519 C2521 1.419 . S
C2520 C2518 1.415 . S
C2520 C2525 1.425 . S
C2520 C2527 1.409 . S
C2521 H2513 0.930 . S
C2521 C2519 1.419 . S
C2521 C2522 1.362 . S
C2522 H2514 0.930 . S
C2522 C2521 1.362 . S
C2522 C2525 1.409 . S
C2523 H2515 0.930 . S
C2523 C2524 1.355 . S
C2523 C2525 1.415 . S
C2524 C2523 1.355 . S
C2524 C2526 1.419 . S
C2525 C2520 1.425 . S
C2525 C2522 1.409 . S
C2525 C2523 1.415 . S
C2526 H2516 0.930 . S
C2526 C2524 1.419 . S
C2526 C2527 1.362 . S
C2527 H2517 0.930 . S
C2527 C2520 1.409 . S
C2527 C2526 1.362 . S
H2528 C2534 0.930 . S
H2529 C2537 0.930 . S
H2530 C2538 0.930 1_655 S
H2531 C2539 0.930 . S
H2532 C2542 0.930 . S
H2533 C2543 0.930 . S
C2534 H2528 0.930 . S
C2534 C2535 1.355 . S
C2534 C2536 1.415 1_455 S
C2535 C2534 1.355 . S
C2535 C2537 1.419 . S
C2536 C2534 1.415 1_655 S
C2536 C2541 1.425 . S
C2536 C2543 1.409 . S
C2537 H2529 0.930 . S
C2537 C2535 1.419 . S
C2537 C2538 1.362 . S
C2538 H2530 0.930 1_455 S
C2538 C2537 1.362 . S
C2538 C2541 1.409 1_455 S
C2539 H2531 0.930 . S
C2539 C2540 1.355 . S
C2539 C2541 1.415 . S
C2540 C2539 1.355 . S
C2540 C2542 1.419 . S
C2541 C2536 1.425 . S
C2541 C2538 1.409 1_655 S
C2541 C2539 1.415 . S
C2542 H2532 0.930 . S
C2542 C2540 1.419 . S
C2542 C2543 1.362 . S
C2543 H2533 0.930 . S
C2543 C2536 1.409 . S
C2543 C2542 1.362 . S
H2544 C2550 0.930 . S
H2545 C2553 0.930 . S
H2546 C2554 0.930 . S
H2547 C2555 0.930 . S
H2548 C2558 0.930 . S
H2549 C2559 0.930 . S
C2550 H2544 0.930 . S
C2550 C2551 1.339 1_545 S
C2550 C2552 1.415 . S
C2551 C2550 1.339 1_565 S
C2551 C2553 1.434 . S
C2552 C2550 1.415 . S
C2552 C2557 1.425 1_545 S
C2552 C2559 1.409 . S
C2553 H2545 0.930 . S
C2553 C2551 1.434 . S
C2553 C2554 1.362 . S
C2554 H2546 0.930 . S
C2554 C2553 1.362 . S
C2554 C2557 1.409 . S
C2555 H2547 0.930 . S
C2555 C2556 1.355 1_565 S
C2555 C2557 1.415 . S
C2556 C2555 1.355 1_545 S
C2556 C2558 1.419 . S
C2557 C2552 1.425 1_565 S
C2557 C2554 1.409 . S
C2557 C2555 1.415 . S
C2558 H2548 0.930 . S
C2558 C2556 1.419 . S
C2558 C2559 1.362 . S
C2559 H2549 0.930 . S
C2559 C2552 1.409 . S
C2559 C2558 1.362 . S
H2560 C2566 0.929 1_655 S
H2561 C2569 0.930 . S
H2562 C2570 0.930 . S
H2563 C2571 0.929 1_455 S
H2564 C2574 0.930 . S
H2565 C2575 0.930 . S
C2566 H2560 0.929 1_455 S
C2566 C2567 1.355 . S
C2566 C2568 1.415 1_455 S
C2567 C2566 1.355 . S
C2567 C2569 1.419 . S
C2568 C2566 1.415 1_655 S
C2568 C2573 1.425 1_654 S
C2568 C2575 1.409 1_554 S
C2569 H2561 0.930 . S
C2569 C2567 1.419 . S
C2569 C2570 1.362 . S
C2570 H2562 0.930 . S
C2570 C2569 1.362 . S
C2570 C2573 1.409 1_554 S
C2571 H2563 0.929 1_655 S
C2571 C2572 1.355 . S
C2571 C2573 1.415 1_655 S
C2572 C2571 1.355 . S
C2572 C2574 1.419 . S
C2573 C2568 1.425 1_456 S
C2573 C2570 1.409 1_556 S
C2573 C2571 1.415 1_455 S
C2574 H2564 0.930 . S
C2574 C2572 1.419 . S
C2574 C2575 1.362 . S
C2575 H2565 0.930 . S
C2575 C2568 1.409 1_556 S
C2575 C2574 1.362 . S
H2576 C2582 0.930 . S
H2577 C2585 0.930 . S
H2578 C2586 0.930 . S
H2579 C2587 0.930 . S
H2580 C2590 0.930 . S
H2581 C2591 0.930 . S
C2582 H2576 0.930 . S
C2582 C2583 1.355 . S
C2582 C2584 1.415 . S
C2583 C2582 1.355 . S
C2583 C2585 1.419 . S
C2584 C2582 1.415 . S
C2584 C2589 1.425 1_556 S
C2584 C2591 1.409 1_556 S
C2585 H2577 0.930 . S
C2585 C2583 1.419 . S
C2585 C2586 1.362 . S
C2586 H2578 0.930 . S
C2586 C2585 1.362 . S
C2586 C2589 1.409 1_556 S
C2587 H2579 0.930 . S
C2587 C2588 1.355 . S
C2587 C2589 1.415 . S
C2588 C2587 1.355 . S
C2588 C2590 1.419 . S
C2589 C2584 1.425 1_554 S
C2589 C2586 1.409 1_554 S
C2589 C2587 1.415 . S
C2590 H2580 0.930 . S
C2590 C2588 1.419 . S
C2590 C2591 1.362 . S
C2591 H2581 0.930 . S
C2591 C2584 1.409 1_554 S
C2591 C2590 1.362 . S
H2592 C2598 0.930 . S
H2593 C2601 0.930 . S
H2594 C2602 0.930 . S
H2595 C2603 0.930 . S
H2596 C2606 0.930 . S
H2597 C2607 0.930 . S
C2598 H2592 0.930 . S
C2598 C2599 1.355 1_455 S
C2598 C2600 1.415 . S
C2599 C2598 1.355 1_655 S
C2599 C2601 1.419 . S
C2600 C2598 1.415 . S
C2600 C2605 1.425 1_455 S
C2600 C2607 1.409 . S
C2601 H2593 0.930 . S
C2601 C2599 1.419 . S
C2601 C2602 1.362 . S
C2602 H2594 0.930 . S
C2602 C2601 1.362 . S
C2602 C2605 1.409 . S
C2603 H2595 0.930 . S
C2603 C2604 1.355 1_655 S
C2603 C2605 1.415 . S
C2604 C2603 1.355 1_455 S
C2604 C2606 1.419 . S
C2605 C2600 1.425 1_655 S
C2605 C2602 1.409 . S
C2605 C2603 1.415 . S
C2606 H2596 0.930 . S
C2606 C2604 1.419 . S
C2606 C2607 1.362 . S
C2607 H2597 0.930 . S
C2607 C2600 1.409 . S
C2607 C2606 1.362 . S
H2608 C2614 0.930 . S
H2609 C2617 0.930 . S
H2610 C2618 0.930 . S
H2611 C2619 0.930 . S
H2612 C2622 0.930 . S
H2613 C2623 0.930 . S
C2614 H2608 0.930 . S
C2614 C2615 1.355 . S
C2614 C2616 1.415 . S
C2615 C2614 1.355 . S
C2615 C2617 1.419 . S
C2616 C2614 1.415 . S
C2616 C2621 1.425 . S
C2616 C2623 1.409 . S
C2617 H2609 0.930 . S
C2617 C2615 1.419 . S
C2617 C2618 1.362 . S
C2618 H2610 0.930 . S
C2618 C2617 1.362 . S
C2618 C2621 1.409 . S
C2619 H2611 0.930 . S
C2619 C2620 1.355 . S
C2619 C2621 1.415 . S
C2620 C2619 1.355 . S
C2620 C2622 1.419 . S
C2621 C2616 1.425 . S
C2621 C2618 1.409 . S
C2621 C2619 1.415 . S
C2622 H2612 0.930 . S
C2622 C2620 1.419 . S
C2622 C2623 1.362 . S
C2623 H2613 0.930 . S
C2623 C2616 1.409 . S
C2623 C2622 1.362 . S
H2624 C2630 0.930 . S
H2625 C2633 0.930 . S
H2626 C2634 0.930 . S
H2627 C2635 0.930 . S
H2628 C2638 0.930 . S
H2629 C2639 0.930 . S
C2630 H2624 0.930 . S
C2630 C2631 1.355 . S
C2630 C2632 1.415 . S
C2631 C2630 1.355 . S
C2631 C2633 1.419 . S
C2632 C2630 1.415 . S
C2632 C2637 1.425 1_556 S
C2632 C2639 1.409 1_556 S
C2633 H2625 0.930 . S
C2633 C2631 1.419 . S
C2633 C2634 1.362 . S
C2634 H2626 0.930 . S
C2634 C2633 1.362 . S
C2634 C2637 1.409 1_556 S
C2635 H2627 0.930 . S
C2635 C2636 1.355 . S
C2635 C2637 1.415 . S
C2636 C2635 1.355 . S
C2636 C2638 1.419 . S
C2637 C2632 1.425 1_554 S
C2637 C2634 1.409 1_554 S
C2637 C2635 1.415 . S
C2638 H2628 0.930 . S
C2638 C2636 1.419 . S
C2638 C2639 1.362 . S
C2639 H2629 0.930 . S
C2639 C2632 1.409 1_554 S
C2639 C2638 1.362 . S
H2640 C2646 0.930 . S
H2641 C2649 0.930 . S
H2642 C2650 0.930 . S
H2643 C2651 0.930 . S
H2644 C2654 0.930 . S
H2645 C2655 0.930 . S
C2646 H2640 0.930 . S
C2646 C2647 1.355 1_455 S
C2646 C2648 1.415 . S
C2647 C2646 1.355 1_655 S
C2647 C2649 1.419 . S
C2648 C2646 1.415 . S
C2648 C2653 1.425 1_455 S
C2648 C2655 1.409 . S
C2649 H2641 0.930 . S
C2649 C2647 1.419 . S
C2649 C2650 1.362 . S
C2650 H2642 0.930 . S
C2650 C2649 1.362 . S
C2650 C2653 1.409 . S
C2651 H2643 0.930 . S
C2651 C2652 1.355 1_655 S
C2651 C2653 1.415 . S
C2652 C2651 1.355 1_455 S
C2652 C2654 1.419 . S
C2653 C2648 1.425 1_655 S
C2653 C2650 1.409 . S
C2653 C2651 1.415 . S
C2654 H2644 0.930 . S
C2654 C2652 1.419 . S
C2654 C2655 1.362 . S
C2655 H2645 0.930 . S
C2655 C2648 1.409 . S
C2655 C2654 1.362 . S
H2656 C2662 0.930 . S
H2657 C2665 0.930 . S
H2658 C2666 0.930 . S
H2659 C2667 0.930 . S
H2660 C2670 0.930 . S
H2661 C2671 0.930 . S
C2662 H2656 0.930 . S
C2662 C2663 1.355 . S
C2662 C2664 1.415 . S
C2663 C2662 1.355 . S
C2663 C2665 1.419 . S
C2664 C2662 1.415 . S
C2664 C2669 1.425 . S
C2664 C2671 1.409 . S
C2665 H2657 0.930 . S
C2665 C2663 1.419 . S
C2665 C2666 1.362 . S
C2666 H2658 0.930 . S
C2666 C2665 1.362 . S
C2666 C2669 1.409 . S
C2667 H2659 0.930 . S
C2667 C2668 1.355 . S
C2667 C2669 1.415 . S
C2668 C2667 1.355 . S
C2668 C2670 1.419 . S
C2669 C2664 1.425 . S
C2669 C2666 1.409 . S
C2669 C2667 1.415 . S
C2670 H2660 0.930 . S
C2670 C2668 1.419 . S
C2670 C2671 1.362 . S
C2671 H2661 0.930 . S
C2671 C2664 1.409 . S
C2671 C2670 1.362 . S
H2672 C2678 0.930 . S
H2673 C2681 0.930 . S
H2674 C2682 0.930 . S
H2675 C2683 0.930 . S
H2676 C2686 0.930 . S
H2677 C2687 0.930 . S
C2678 H2672 0.930 . S
C2678 C2679 1.355 1_545 S
C2678 C2680 1.415 . S
C2679 C2678 1.355 1_565 S
C2679 C2681 1.419 1_455 S
C2680 C2678 1.415 . S
C2680 C2685 1.425 1_445 S
C2680 C2687 1.409 . S
C2681 H2673 0.930 . S
C2681 C2679 1.419 1_655 S
C2681 C2682 1.362 . S
C2682 H2674 0.930 . S
C2682 C2681 1.362 . S
C2682 C2685 1.409 . S
C2683 H2675 0.930 . S
C2683 C2684 1.355 1_565 S
C2683 C2685 1.415 . S
C2684 C2683 1.355 1_545 S
C2684 C2686 1.419 1_655 S
C2685 C2680 1.425 1_665 S
C2685 C2682 1.409 . S
C2685 C2683 1.415 . S
C2686 H2676 0.930 . S
C2686 C2684 1.419 1_455 S
C2686 C2687 1.362 . S
C2687 H2677 0.930 . S
C2687 C2680 1.409 . S
C2687 C2686 1.362 . S
H2688 C2694 0.930 . S
H2689 C2697 0.930 . S
H2690 C2698 0.930 . S
H2691 C2699 0.930 . S
H2692 C2702 0.930 . S
H2693 C2703 0.930 . S
C2694 H2688 0.930 . S
C2694 C2695 1.355 . S
C2694 C2696 1.415 . S
C2695 C2694 1.355 . S
C2695 C2697 1.419 . S
C2696 C2694 1.415 . S
C2696 C2701 1.425 . S
C2696 C2703 1.409 . S
C2697 H2689 0.930 . S
C2697 C2695 1.419 . S
C2697 C2698 1.362 . S
C2698 H2690 0.930 . S
C2698 C2697 1.362 . S
C2698 C2701 1.409 . S
C2699 H2691 0.930 . S
C2699 C2700 1.355 . S
C2699 C2701 1.415 . S
C2700 C2699 1.355 . S
C2700 C2702 1.419 . S
C2701 C2696 1.425 . S
C2701 C2698 1.409 . S
C2701 C2699 1.415 . S
C2702 H2692 0.930 . S
C2702 C2700 1.419 . S
C2702 C2703 1.362 . S
C2703 H2693 0.930 . S
C2703 C2696 1.409 . S
C2703 C2702 1.362 . S
H2704 C2710 0.930 . S
H2705 C2713 0.930 . S
H2706 C2714 0.930 . S
H2707 C2715 0.930 . S
H2708 C2718 0.930 . S
H2709 C2719 0.930 . S
C2710 H2704 0.930 . S
C2710 C2711 1.355 1_565 S
C2710 C2712 1.415 . S
C2711 C2710 1.355 1_545 S
C2711 C2713 1.419 . S
C2712 C2710 1.415 . S
C2712 C2717 1.425 1_565 S
C2712 C2719 1.409 . S
C2713 H2705 0.930 . S
C2713 C2711 1.419 . S
C2713 C2714 1.362 . S
C2714 H2706 0.930 . S
C2714 C2713 1.362 . S
C2714 C2717 1.409 . S
C2715 H2707 0.930 . S
C2715 C2716 1.355 1_545 S
C2715 C2717 1.415 . S
C2716 C2715 1.355 1_565 S
C2716 C2718 1.419 . S
C2717 C2712 1.425 1_545 S
C2717 C2714 1.409 . S
C2717 C2715 1.415 . S
C2718 H2708 0.930 . S
C2718 C2716 1.419 . S
C2718 C2719 1.362 . S
C2719 H2709 0.930 . S
C2719 C2712 1.409 . S
C2719 C2718 1.362 . S
H2720 C2726 0.930 . S
H2721 C2729 0.930 . S
H2722 C2730 0.930 . S
H2723 C2731 0.930 . S
H2724 C2734 0.930 . S
H2725 C2735 0.930 . S
C2726 H2720 0.930 . S
C2726 C2727 1.355 . S
C2726 C2728 1.415 . S
C2727 C2726 1.355 . S
C2727 C2729 1.419 . S
C2728 C2726 1.415 . S
C2728 C2733 1.425 . S
C2728 C2735 1.409 . S
C2729 H2721 0.930 . S
C2729 C2727 1.419 . S
C2729 C2730 1.362 . S
C2730 H2722 0.930 . S
C2730 C2729 1.362 . S
C2730 C2733 1.409 . S
C2731 H2723 0.930 . S
C2731 C2732 1.355 . S
C2731 C2733 1.415 . S
C2732 C2731 1.355 . S
C2732 C2734 1.419 . S
C2733 C2728 1.425 . S
C2733 C2730 1.409 . S
C2733 C2731 1.415 . S
C2734 H2724 0.930 . S
C2734 C2732 1.419 . S
C2734 C2735 1.362 . S
C2735 H2725 0.930 . S
C2735 C2728 1.409 . S
C2735 C2734 1.362 . S
H2736 C2742 0.930 . S
H2737 C2745 0.930 . S
H2738 C2746 0.930 . S
H2739 C2747 0.930 . S
H2740 C2750 0.930 . S
H2741 C2751 0.930 . S
C2742 H2736 0.930 . S
C2742 C2743 1.355 . S
C2742 C2744 1.415 . S
C2743 C2742 1.355 . S
C2743 C2745 1.419 1_565 S
C2744 C2742 1.415 . S
C2744 C2749 1.425 1_565 S
C2744 C2751 1.409 . S
C2745 H2737 0.930 . S
C2745 C2743 1.419 1_545 S
C2745 C2746 1.362 . S
C2746 H2738 0.930 . S
C2746 C2745 1.362 . S
C2746 C2749 1.409 . S
C2747 H2739 0.930 . S
C2747 C2748 1.355 . S
C2747 C2749 1.415 . S
C2748 C2747 1.355 . S
C2748 C2750 1.419 1_545 S
C2749 C2744 1.425 1_545 S
C2749 C2746 1.409 . S
C2749 C2747 1.415 . S
C2750 H2740 0.930 . S
C2750 C2748 1.419 1_565 S
C2750 C2751 1.362 . S
C2751 H2741 0.930 . S
C2751 C2744 1.409 . S
C2751 C2750 1.362 . S
H2752 C2758 0.930 . S
H2753 C2761 0.930 . S
H2754 C2762 0.930 . S
H2755 C2763 0.930 . S
H2756 C2766 0.930 . S
H2757 C2767 0.930 . S
C2758 H2752 0.930 . S
C2758 C2759 1.355 . S
C2758 C2760 1.415 . S
C2759 C2758 1.355 . S
C2759 C2761 1.419 . S
C2760 C2758 1.415 . S
C2760 C2765 1.425 . S
C2760 C2767 1.409 . S
C2761 H2753 0.930 . S
C2761 C2759 1.419 . S
C2761 C2762 1.362 . S
C2762 H2754 0.930 . S
C2762 C2761 1.362 . S
C2762 C2765 1.409 . S
C2763 H2755 0.930 . S
C2763 C2764 1.355 . S
C2763 C2765 1.415 . S
C2764 C2763 1.355 . S
C2764 C2766 1.419 . S
C2765 C2760 1.425 . S
C2765 C2762 1.409 . S
C2765 C2763 1.415 . S
C2766 H2756 0.930 . S
C2766 C2764 1.419 . S
C2766 C2767 1.362 . S
C2767 H2757 0.930 . S
C2767 C2760 1.409 . S
C2767 C2766 1.362 . S
H2768 C2774 0.930 . S
H2769 C2777 0.930 . S
H2770 C2778 0.930 . S
H2771 C2779 0.930 . S
H2772 C2782 0.930 . S
H2773 C2783 0.930 . S
C2774 H2768 0.930 . S
C2774 C2775 1.355 . S
C2774 C2776 1.415 . S
C2775 C2774 1.355 . S
C2775 C2777 1.419 . S
C2776 C2774 1.415 . S
C2776 C2781 1.425 . S
C2776 C2783 1.409 . S
C2777 H2769 0.930 . S
C2777 C2775 1.419 . S
C2777 C2778 1.362 . S
C2778 H2770 0.930 . S
C2778 C2777 1.362 . S
C2778 C2781 1.409 . S
C2779 H2771 0.930 . S
C2779 C2780 1.355 . S
C2779 C2781 1.415 . S
C2780 C2779 1.355 . S
C2780 C2782 1.419 . S
C2781 C2776 1.425 . S
C2781 C2778 1.409 . S
C2781 C2779 1.415 . S
C2782 H2772 0.930 . S
C2782 C2780 1.419 . S
C2782 C2783 1.362 . S
C2783 H2773 0.930 . S
C2783 C2776 1.409 . S
C2783 C2782 1.362 . S
H2784 C2790 0.930 . S
H2785 C2793 0.930 . S
H2786 C2794 0.930 . S
H2787 C2795 0.930 . S
H2788 C2798 0.930 . S
H2789 C2799 0.930 . S
C2790 H2784 0.930 . S
C2790 C2791 1.355 . S
C2790 C2792 1.415 . S
C2791 C2790 1.355 . S
C2791 C2793 1.419 . S
C2792 C2790 1.415 . S
C2792 C2797 1.425 . S
C2792 C2799 1.409 . S
C2793 H2785 0.930 . S
C2793 C2791 1.419 . S
C2793 C2794 1.362 . S
C2794 H2786 0.930 . S
C2794 C2793 1.362 . S
C2794 C2797 1.409 . S
C2795 H2787 0.930 . S
C2795 C2796 1.355 . S
C2795 C2797 1.415 . S
C2796 C2795 1.355 . S
C2796 C2798 1.419 . S
C2797 C2792 1.425 . S
C2797 C2794 1.409 . S
C2797 C2795 1.415 . S
C2798 H2788 0.930 . S
C2798 C2796 1.419 . S
C2798 C2799 1.362 . S
C2799 H2789 0.930 . S
C2799 C2792 1.409 . S
C2799 C2798 1.362 . S
H2800 C2806 0.930 . S
H2801 C2809 0.930 . S
H2802 C2810 0.930 . S
H2803 C2811 0.930 . S
H2804 C2814 0.930 . S
H2805 C2815 0.930 . S
C2806 H2800 0.930 . S
C2806 C2807 1.355 1_545 S
C2806 C2808 1.415 . S
C2807 C2806 1.355 1_565 S
C2807 C2809 1.419 . S
C2808 C2806 1.415 . S
C2808 C2813 1.425 1_544 S
C2808 C2815 1.409 1_554 S
C2809 H2801 0.930 . S
C2809 C2807 1.419 . S
C2809 C2810 1.362 . S
C2810 H2802 0.930 . S
C2810 C2809 1.362 . S
C2810 C2813 1.409 1_554 S
C2811 H2803 0.930 . S
C2811 C2812 1.355 1_565 S
C2811 C2813 1.415 . S
C2812 C2811 1.355 1_545 S
C2812 C2814 1.419 . S
C2813 C2808 1.425 1_566 S
C2813 C2810 1.409 1_556 S
C2813 C2811 1.415 . S
C2814 H2804 0.930 . S
C2814 C2812 1.419 . S
C2814 C2815 1.362 . S
C2815 H2805 0.930 . S
C2815 C2808 1.409 1_556 S
C2815 C2814 1.362 . S
C1287 C19 1.544 . S
C1292 C1019 1.565 . S
C1303 C979 1.563 . S
C1308 C59 1.550 . S
C1319 C1099 1.553 . S
C1324 C99 1.561 . S
C1335 C139 1.544 . S
C1340 C1059 1.565 . S
C1351 C169 1.545 . S
C1356 C1169 1.565 . S
C1367 C209 1.560 . S
C1372 C1129 1.554 . S
C1383 C249 1.561 . S
C1388 C1249 1.540 . S
C1399 C1209 1.562 . S
C1404 C289 1.552 . S
C1415 C339 1.552 . S
C1420 C699 1.562 . S
C1431 C379 1.560 . S
C1436 C659 1.555 . S
C1447 C419 1.552 . S
C1452 C779 1.562 . S
C1463 C739 1.557 . S
C1468 C459 1.541 . S
C1479 C489 1.560 . S
C1484 C849 1.554 . S
C1495 C529 1.552 . S
C1500 C809 1.544 . S
C1511 C929 1.551 . S
C1516 C569 1.544 . S
C1527 C609 1.559 . S
C1532 C889 1.556 . S
C1543 C18 1.618 . S
C1548 C138 1.616 . S
C1559 C58 1.631 . S
C1564 C98 1.601 . S
C1575 C288 1.609 . S
C1580 C168 1.612 . S
C1591 C248 1.599 . S
C1596 C208 1.632 . S
C1607 C338 1.597 . S
C1612 C458 1.634 . S
C1623 C378 1.600 . S
C1628 C418 1.622 . S
C1639 C488 1.606 . S
C1644 C608 1.615 . S
C1655 C568 1.624 . S
C1660 C528 1.610 . S
C1671 C658 1.590 . S
C1676 C778 1.638 . S
C1687 C698 1.603 . S
C1692 C738 1.618 . S
C1703 C928 1.599 . S
C1708 C808 1.633 . S
C1719 C848 1.627 . S
C1724 C888 1.606 . S
C1735 C1098 1.632 . S
C1740 C978 1.592 . S
C1751 C1018 1.635 . S
C1756 C1058 1.596 . S
C1767 C1248 1.615 . S
C1772 C1128 1.619 . S
C1783 C1208 1.621 . S
C1788 C1168 1.613 . S
C1799 C49 1.606 . S
C1804 C9 1.589 . S
C1815 C89 1.640 . S
C1820 C129 1.621 . S
C1831 C219 1.587 . S
C1836 C179 1.587 . S
C1847 C299 1.646 . S
C1852 C259 1.643 . S
C1863 C329 1.646 . S
C1868 C369 1.642 . S
C1879 C409 1.586 . S
C1884 C449 1.599 . S
C1895 C539 1.588 . S
C1900 C499 1.604 . S
C1911 C579 1.636 . S
C1916 C619 1.646 . S
C1927 C649 1.645 . S
C1932 C689 1.644 . S
C1943 C769 1.614 . S
C1948 C729 1.635 . S
C1959 C819 1.605 . S
C1964 C859 1.626 . S
C1975 C899 1.593 . S
C1980 C939 1.585 . S
C1991 C969 1.631 . S
C1996 C1009 1.610 . S
C2007 C1049 1.591 . S
C2012 C1089 1.585 . S
C2023 C1179 1.645 . S
C2028 C1139 1.644 . S
C2039 C1219 1.639 . S
C2044 C1259 1.647 . S
C2055 C15 1.520 . S
C2060 C5 1.520 . S
C2071 C55 1.542 . S
C2076 C45 1.542 . S
C2087 C95 1.517 . S
C2092 C85 1.517 . S
C2103 C125 1.526 . S
C2108 C135 1.526 . S
C2119 C175 1.517 . S
C2124 C165 1.517 . S
C2135 C205 1.533 . S
C2140 C215 1.533 . S
C2151 C255 1.547 . S
C2156 C245 1.547 . S
C2167 C295 1.540 . S
C2172 C285 1.540 . S
C2183 C325 1.515 1_565 S
C2188 C335 1.518 . S
C2199 C375 1.533 . S
C2204 C365 1.533 . S
C2215 C415 1.540 . S
C2220 C405 1.540 . S
C2231 C445 1.536 . S
C2236 C455 1.536 . S
C2247 C495 1.516 1_545 S
C2252 C485 1.517 . S
C2263 C525 1.522 . S
C2268 C535 1.522 . S
C2279 C565 1.543 . S
C2284 C575 1.543 . S
C2295 C615 1.549 . S
C2300 C605 1.548 . S
C2311 C655 1.543 . S
C2316 C645 1.543 . S
C2327 C685 1.519 . S
C2332 C695 1.519 . S
C2343 C725 1.544 . S
C2348 C735 1.544 . S
C2359 C775 1.530 . S
C2364 C765 1.530 . S
C2375 C805 1.544 . S
C2380 C815 1.544 . S
C2391 C845 1.519 . S
C2396 C855 1.519 . S
C2407 C895 1.541 . S
C2412 C885 1.541 . S
C2423 C925 1.528 . S
C2428 C935 1.528 . S
C2439 C965 1.526 1_565 S
C2444 C975 1.527 . S
C2455 C1015 1.519 . S
C2460 C1005 1.519 . S
C2471 C1045 1.549 . S
C2476 C1055 1.549 . S
C2487 C1085 1.545 . S
C2492 C1095 1.544 . S
C2503 C1125 1.547 . S
C2508 C1135 1.547 . S
C2519 C1165 1.516 . S
C2524 C1175 1.516 . S
C2535 C1215 1.516 . S
C2540 C1205 1.516 . S
C2551 C1255 1.547 . S
C2556 C1245 1.547 . S
C2567 C8 1.474 . S
C2572 C178 1.474 . S
C2583 C1178 1.437 . S
C2588 C48 1.437 . S
C2599 C578 1.431 . S
C2604 C88 1.431 . S
C2615 C128 1.456 . S
C2620 C938 1.456 . S
C2631 C218 1.473 . S
C2636 C1008 1.473 . S
C2647 C258 1.441 . S
C2652 C408 1.441 . S
C2663 C298 1.487 . S
C2668 C768 1.487 . S
C2679 C328 1.488 . S
C2684 C498 1.488 . S
C2695 C858 1.463 . S
C2700 C368 1.463 . S
C2711 C1258 1.428 . S
C2716 C448 1.428 . S
C2727 C538 1.505 . S
C2732 C688 1.505 . S
C2743 C1088 1.440 . S
C2748 C618 1.440 . S
C2759 C648 1.448 . S
C2764 C818 1.448 . S
C2775 C1218 1.502 . S
C2780 C728 1.502 . S
C2791 C898 1.431 . S
C2796 C1048 1.431 . S
C2807 C968 1.492 . S
C2812 C1138 1.492 . S
