# Generated by pormake.
# Topology dia, (4)-cn, num edge types: 1
# Building blocks:
#     Node 0, Type 0, BuildingBlock: QUQFOY_clean_sbu_3, # of connection points: 4
#     Node 1, Type 0, BuildingBlock: QUQFOY_clean_sbu_3, # of connection points: 4
#     Node 2, Type 0, BuildingBlock: QUQFOY_clean_sbu_3, # of connection points: 4
#     Node 3, Type 0, BuildingBlock: QUQFOY_clean_sbu_3, # of connection points: 4
#     Node 4, Type 0, BuildingBlock: QUQFOY_clean_sbu_3, # of connection points: 4
#     Node 5, Type 0, BuildingBlock: QUQFOY_clean_sbu_3, # of connection points: 4
#     Node 6, Type 0, BuildingBlock: QUQFOY_clean_sbu_3, # of connection points: 4
#     Node 7, Type 0, BuildingBlock: QUQFOY_clean_sbu_3, # of connection points: 4
#     Edge 8, Type (0, 0), BuildingBlock: EZIPEK_clean_linker_0, # of connection points: 2
#     Edge 9, Type (0, 0), BuildingBlock: EZIPEK_clean_linker_0, # of connection points: 2
#     Edge 10, Type (0, 0), BuildingBlock: EZIPEK_clean_linker_0, # of connection points: 2
#     Edge 11, Type (0, 0), BuildingBlock: EZIPEK_clean_linker_0, # of connection points: 2
#     Edge 12, Type (0, 0), BuildingBlock: EZIPEK_clean_linker_0, # of connection points: 2
#     Edge 13, Type (0, 0), BuildingBlock: EZIPEK_clean_linker_0, # of connection points: 2
#     Edge 14, Type (0, 0), BuildingBlock: EZIPEK_clean_linker_0, # of connection points: 2
#     Edge 15, Type (0, 0), BuildingBlock: EZIPEK_clean_linker_0, # of connection points: 2
#     Edge 16, Type (0, 0), BuildingBlock: EZIPEK_clean_linker_0, # of connection points: 2
#     Edge 17, Type (0, 0), BuildingBlock: EZIPEK_clean_linker_0, # of connection points: 2
#     Edge 18, Type (0, 0), BuildingBlock: EZIPEK_clean_linker_0, # of connection points: 2
#     Edge 19, Type (0, 0), BuildingBlock: EZIPEK_clean_linker_0, # of connection points: 2
#     Edge 20, Type (0, 0), BuildingBlock: EZIPEK_clean_linker_0, # of connection points: 2
#     Edge 21, Type (0, 0), BuildingBlock: EZIPEK_clean_linker_0, # of connection points: 2
#     Edge 22, Type (0, 0), BuildingBlock: EZIPEK_clean_linker_0, # of connection points: 2
#     Edge 23, Type (0, 0), BuildingBlock: EZIPEK_clean_linker_0, # of connection points: 2
# Relax obj value: 0.120
# Max RMSD: 0.163
# Mean RMSD: 0.163
data_MOF--net-dia--node1-QUQFOY_clean_sbu_3--edge1-EZIPEK_clean_linker_0
_symmetry_space_group_name_H-M    P1
_symmetry_Int_Tables_number       1
_symmetry_cell_setting            triclinic
loop_
_symmetry_equiv_pos_as_xyz
'x, y, z'
_cell_length_a     25.50234
_cell_length_b     25.403792
_cell_length_c     29.870536
_cell_angle_alpha  90.05538
_cell_angle_beta   90.13519
_cell_angle_gamma 93.347974
loop_
_atom_site_label
_atom_site_type_symbol
_atom_site_fract_x
_atom_site_fract_y
_atom_site_fract_z
_atom_type_partial_charge
C0 C 0.01628 0.17861 0.64086 0.0
O1 O -0.00903 0.17319 0.60432 0.0
Cd2 Cd 0.02244 0.12822 0.54037 0.0
O3 O 0.06011 0.15774 0.64632 0.0
Cd4 Cd 0.11801 0.09906 0.60535 0.0
C5 C 0.14441 0.19026 0.52409 0.0
O6 O 0.04886 0.04653 0.56984 0.0
O7 O 0.12721 0.03098 0.54792 0.0
O8 O 0.12719 0.04458 0.67105 0.0
C9 C 0.07818 0.01986 0.54569 0.0
O10 O 0.09687 0.18284 0.51133 0.0
C11 C 0.1766 0.05272 0.67428 0.0
O12 O 0.16169 0.16602 0.55787 0.0
O13 O 0.19904 0.08347 0.64577 0.0
C14 C 0.79808 0.45758 0.81613 0.0
O15 O 0.79828 0.48033 0.85399 0.0
Cd16 Cd 0.84167 0.44955 0.91922 0.0
O17 O 0.82231 0.41568 0.80999 0.0
Cd18 Cd 0.87702 0.35502 0.85228 0.0
C19 C 0.78007 0.32621 0.92853 0.0
O20 O 0.92483 0.42222 0.89412 0.0
O21 O 0.94126 0.34305 0.91343 0.0
O22 O 0.93402 0.34559 0.78804 0.0
C23 C 0.95039 0.39224 0.91877 0.0
O24 O 0.78792 0.37253 0.94442 0.0
C25 C 0.9238 0.29636 0.78351 0.0
O26 O 0.8047 0.31124 0.89414 0.0
O27 O 0.89182 0.27419 0.81115 0.0
C28 C 0.51239 0.1647 0.13888 0.0
O29 O 0.4872 0.15736 0.10245 0.0
Cd30 Cd 0.51976 0.11212 0.03894 0.0
O31 O 0.55682 0.14519 0.14499 0.0
Cd32 Cd 0.61835 0.08754 0.10664 0.0
C33 C 0.63974 0.18059 0.02574 0.0
O34 O 0.55218 0.03348 0.06938 0.0
O35 O 0.6309 0.01754 0.05008 0.0
O36 O 0.62866 0.04425 0.17818 0.0
C37 C 0.58204 0.00666 0.04583 0.0
O38 O 0.59345 0.16935 0.01114 0.0
C39 C 0.67851 0.04848 0.17793 0.0
O40 O 0.65719 0.15871 0.06068 0.0
O41 O 0.70065 0.07143 0.1446 0.0
C42 C 0.7961 0.9627 0.3236 0.0
O43 O 0.79791 0.98658 0.36097 0.0
Cd44 Cd 0.84271 0.95493 0.42513 0.0
O45 O 0.81913 0.92001 0.31794 0.0
Cd46 Cd 0.87444 0.86036 0.36038 0.0
C47 C 0.77999 0.83295 0.43867 0.0
O48 O 0.92585 0.92907 0.39807 0.0
O49 O 0.93946 0.84958 0.41938 0.0
O50 O 0.9313 0.85079 0.29635 0.0
C51 C 0.95132 0.89861 0.42231 0.0
O52 O 0.78741 0.88024 0.45247 0.0
C53 C 0.92184 0.80146 0.29222 0.0
O54 O 0.80513 0.8163 0.40521 0.0
O55 O 0.88966 0.77922 0.31965 0.0
C56 C 0.01511 0.68167 0.15188 0.0
O57 O -0.01324 0.67546 0.11717 0.0
Cd58 Cd 0.01601 0.62894 0.05466 0.0
O59 O 0.05923 0.66064 0.15479 0.0
Cd60 Cd 0.11021 0.59882 0.10881 0.0
C61 C 0.13492 0.69213 0.03111 0.0
O62 O 0.03618 0.54349 0.08332 0.0
O63 O 0.10437 0.53951 0.04248 0.0
O64 O 0.12851 0.55081 0.17723 0.0
C65 C 0.05841 0.52092 0.05159 0.0
O66 O 0.08689 0.6842 0.02001 0.0
C67 C 0.17759 0.55012 0.17077 0.0
O68 O 0.15374 0.66764 0.06397 0.0
O69 O 0.19565 0.57171 0.13528 0.0
C70 C 0.3035 0.45823 0.30788 0.0
O71 O 0.30638 0.48314 0.34477 0.0
Cd72 Cd 0.35115 0.45478 0.41018 0.0
O73 O 0.32605 0.41516 0.30254 0.0
Cd74 Cd 0.3819 0.35582 0.34552 0.0
C75 C 0.28869 0.33274 0.4266 0.0
O76 O 0.43233 0.42567 0.38252 0.0
O77 O 0.44991 0.34736 0.40353 0.0
O78 O 0.43586 0.34052 0.28021 0.0
C79 C 0.45864 0.39679 0.40748 0.0
O80 O 0.29597 0.38063 0.43891 0.0
C81 C 0.42395 0.29136 0.27795 0.0
O82 O 0.31357 0.31477 0.3935 0.0
O83 O 0.39229 0.27196 0.30717 0.0
C84 C 0.29439 0.95498 0.8138 0.0
O85 O 0.30291 0.98283 0.84855 0.0
Cd86 Cd 0.34827 0.94934 0.91004 0.0
O87 O 0.31285 0.90954 0.81025 0.0
Cd88 Cd 0.37289 0.8543 0.85417 0.0
C89 C 0.27986 0.83172 0.93165 0.0
O90 O 0.43152 0.92523 0.8803 0.0
O91 O 0.43146 0.85641 0.92106 0.0
O92 O 0.41884 0.83779 0.78463 0.0
C93 C 0.45249 0.90165 0.91216 0.0
O94 O 0.29022 0.87943 0.94326 0.0
C95 C 0.41909 0.78826 0.78965 0.0
O96 O 0.30297 0.81211 0.89843 0.0
O97 O 0.398 0.76892 0.8249 0.0
C98 C 0.50911 0.66756 0.64808 0.0
O99 O 0.48406 0.66532 0.61128 0.0
Cd100 Cd 0.51374 0.62213 0.54552 0.0
O101 O 0.55226 0.64517 0.65274 0.0
Cd102 Cd 0.6109 0.59004 0.60856 0.0
C103 C 0.63449 0.68648 0.5306 0.0
O104 O 0.54114 0.53871 0.57132 0.0
O105 O 0.61949 0.52337 0.54969 0.0
O106 O 0.6254 0.54131 0.67712 0.0
C107 C 0.57044 0.51322 0.54614 0.0
O108 O 0.5871 0.6789 0.51748 0.0
C109 C 0.67516 0.5466 0.67535 0.0
O110 O 0.65197 0.66092 0.56355 0.0
O111 O 0.69525 0.57215 0.64248 0.0
C112 C 0.21346 0.2641 0.42797 0.0
C113 C 0.25093 0.2971 0.45158 0.0
C114 C 0.21229 0.26604 0.52249 0.0
C115 C 0.1804 0.22752 0.49902 0.0
N116 N 0.16009 0.18244 0.42912 0.0
N117 N 0.29339 0.31987 0.52218 0.0
C118 C 0.18352 0.2244 0.45162 0.0
C119 C 0.25246 0.29549 0.49914 0.0
N120 N 0.20472 0.27185 0.38336 0.0
N121 N 0.2031 0.27615 0.56664 0.0
H122 H 0.32519 0.33972 0.50658 0.0
H123 H 0.29859 0.3153 0.55655 0.0
H124 H 0.17239 0.25736 0.58459 0.0
H125 H 0.22221 0.30738 0.58393 0.0
H126 H 0.1743 0.25186 0.36579 0.0
H127 H 0.22372 0.30227 0.36512 0.0
H128 H 0.16568 0.17612 0.39502 0.0
H129 H 0.13996 0.15094 0.44511 0.0
C130 C 0.74592 0.55598 0.73395 0.0
C131 C 0.70824 0.52348 0.71012 0.0
C132 C 0.72712 0.44853 0.75784 0.0
C133 C 0.76819 0.4797 0.77878 0.0
N134 N 0.82408 0.55971 0.78026 0.0
N135 N 0.6714 0.43612 0.69259 0.0
C136 C 0.77979 0.5325 0.76494 0.0
C137 C 0.70123 0.46892 0.72009 0.0
N138 N 0.74781 0.60952 0.72869 0.0
N139 N 0.7111 0.40046 0.77516 0.0
H140 H 0.65293 0.44918 0.66382 0.0
H141 H 0.66941 0.39522 0.69575 0.0
H142 H 0.72807 0.38444 0.80347 0.0
H143 H 0.67765 0.37875 0.76407 0.0
H144 H 0.77068 0.63538 0.7488 0.0
H145 H 0.7228 0.6286 0.70723 0.0
H146 H 0.83732 0.59636 0.7677 0.0
H147 H 0.8505 0.54351 0.80232 0.0
C148 C 0.55435 0.92271 0.00513 0.0
C149 C 0.5607 0.97824 0.00617 0.0
C150 C 0.49843 0.98501 0.9453 0.0
C151 C 0.49276 0.9287 0.94213 0.0
N152 N 0.53306 0.84657 0.95861 0.0
N153 N 0.55853 0.0586 0.96432 0.0
C154 C 0.52611 0.89808 0.9689 0.0
C155 C 0.53955 0.00807 0.97167 0.0
N156 N 0.57454 0.89361 0.03872 0.0
N157 N 0.46302 0.0172 0.92697 0.0
H158 H 0.59057 0.07513 -0.01776 0.0
H159 H 0.54684 0.08092 0.93716 0.0
H160 H 0.42776 0.00441 0.91226 0.0
H161 H 0.46515 0.05785 0.93228 0.0
H162 H 0.56617 0.85313 0.04195 0.0
H163 H 0.59714 0.91075 0.06467 0.0
H164 H 0.55973 0.8241 0.97548 0.0
H165 H 0.51778 0.8285 0.92967 0.0
C166 C 0.9475 0.78965 0.212 0.0
C167 C 0.94751 0.77132 0.25686 0.0
C168 C -0.00882 0.69269 0.233 0.0
C169 C -0.00419 0.71376 0.18908 0.0
N170 N -0.00942 0.78882 0.14006 0.0
N171 N 0.98137 0.71204 0.31171 0.0
C172 C 0.97771 0.7643 0.17958 0.0
C173 C 0.97287 0.72475 0.26794 0.0
N174 N 0.91663 0.82943 0.19966 0.0
N175 N 0.00161 0.64141 0.24117 0.0
H176 H 0.97048 0.73548 0.3384 0.0
H177 H 0.00427 0.68131 0.32131 0.0
H178 H 0.01362 0.61581 0.21644 0.0
H179 H -0.00664 0.62282 0.27164 0.0
H180 H 0.91146 0.84051 0.16642 0.0
H181 H 0.89168 0.84749 0.22177 0.0
H182 H 0.98247 0.82777 0.13335 0.0
H183 H 0.01444 0.77236 0.1161 0.0
C184 C 0.21395 -0.0027 0.78717 0.0
C185 C 0.26298 0.97646 0.7771 0.0
C186 C 0.25149 -0.00091 0.69821 0.0
C187 C 0.20658 0.02675 0.70961 0.0
N188 N 0.15149 0.06125 0.76716 0.0
N189 N 0.33355 0.96706 0.7242 0.0
C190 C 0.18943 0.02833 0.75472 0.0
C191 C 0.28323 0.97979 0.7329 0.0
N192 N 0.1899 0.98612 0.82717 0.0
N193 N 0.26278 -0.01078 0.65439 0.0
H194 H 0.35902 0.95438 0.74876 0.0
H195 H 0.35172 0.97418 0.69341 0.0
H196 H 0.23944 0.00071 0.62785 0.0
H197 H 0.29209 0.96469 0.64469 0.0
H198 H 0.15181 -0.00374 0.83436 0.0
H199 H 0.20561 0.96171 0.8512 0.0
H200 H 0.14142 0.06752 0.80046 0.0
H201 H 0.13408 0.08664 0.74492 0.0
C202 C 0.03364 0.41587 0.96165 0.0
C203 C 0.97831 0.4138 0.95863 0.0
C204 C 0.9738 0.47941 0.01739 0.0
C205 C 0.02973 0.48105 0.02226 0.0
N206 N 0.10865 0.43408 0.00999 0.0
N207 N 0.89715 0.42418 -0.00286 0.0
C208 C 0.05858 0.44413 -0.00228 0.0
C209 C 0.94892 0.439 -0.00882 0.0
N210 N 0.06237 0.3919 0.92988 0.0
N211 N 0.94398 0.51783 0.03411 0.0
H212 H 0.87911 0.39248 0.97963 0.0
H213 H 0.87475 0.43873 0.02304 0.0
H214 H 0.95874 0.55219 0.04935 0.0
H215 H 0.90394 0.51892 0.0273 0.0
H216 H 0.10316 0.39711 0.92792 0.0
H217 H 0.04496 0.36945 0.90397 0.0
H218 H 0.12959 0.4048 -0.00502 0.0
H219 H 0.12658 0.44987 0.0388 0.0
C220 C 0.44419 0.27483 0.19712 0.0
C221 C 0.4459 0.2583 0.24245 0.0
C222 C 0.48525 0.17703 0.21897 0.0
C223 C 0.48982 0.19691 0.17465 0.0
N224 N 0.48442 0.27076 0.12415 0.0
N225 N 0.47888 0.19871 0.2975 0.0
C226 C 0.47232 0.24755 0.16439 0.0
C227 C 0.4694 0.21074 0.25374 0.0
N228 N 0.41397 0.31513 0.18481 0.0
N229 N 0.4939 0.12545 0.22773 0.0
H230 H 0.46997 0.22324 0.32405 0.0
H231 H 0.5007 0.16715 0.30707 0.0
H232 H 0.50368 0.09875 0.203 0.0
H233 H 0.48594 0.10785 0.25865 0.0
H234 H 0.40748 0.32512 0.1515 0.0
H235 H 0.39072 0.33473 0.20732 0.0
H236 H 0.47692 0.30975 0.11695 0.0
H237 H 0.50704 0.2533 0.09987 0.0
C238 C 0.70384 0.76549 0.43734 0.0
C239 C 0.74172 0.79654 0.46221 0.0
C240 C 0.70246 0.7622 0.53181 0.0
C241 C 0.67024 0.72529 0.50688 0.0
N242 N 0.64959 0.68447 0.43515 0.0
N243 N 0.78431 0.81492 0.53352 0.0
C244 C 0.67337 0.72486 0.45937 0.0
C245 C 0.74309 0.79236 0.50962 0.0
N246 N 0.69536 0.77587 0.39311 0.0
N247 N 0.6932 0.7701 0.57629 0.0
H248 H 0.81653 0.83497 0.51862 0.0
H249 H 0.78926 0.80855 0.5677 0.0
H250 H 0.66206 0.75088 0.59343 0.0
H251 H 0.7127 0.80009 0.59478 0.0
H252 H 0.66467 0.7574 0.3748 0.0
H253 H 0.71499 0.80693 0.37608 0.0
H254 H 0.65522 0.68009 0.40082 0.0
H255 H 0.62915 0.65226 0.44976 0.0
C256 C 0.25426 0.55587 0.22382 0.0
C257 C 0.21211 0.52548 0.20362 0.0
C258 C 0.22897 0.45102 0.25268 0.0
C259 C 0.27347 0.48007 0.27048 0.0
N260 N 0.33545 0.55534 0.26597 0.0
N261 N 0.16662 0.44064 0.19158 0.0
C262 C 0.28823 0.53111 0.25393 0.0
C263 C 0.20157 0.47197 0.21592 0.0
N264 N 0.26037 0.60893 0.21614 0.0
N265 N 0.21132 0.40461 0.27213 0.0
H266 H 0.14661 0.45424 0.1638 0.0
H267 H 0.1614 0.40003 0.19615 0.0
H268 H 0.22979 0.38812 0.2995 0.0
H269 H 0.17574 0.38484 0.26371 0.0
H270 H 0.28682 0.6339 0.23387 0.0
H271 H 0.23575 0.62904 0.19508 0.0
H272 H 0.3507 0.59013 0.25131 0.0
H273 H 0.36185 0.53805 0.28739 0.0
C274 C 0.76112 0.23924 0.96666 0.0
C275 C 0.74343 0.28831 0.952 0.0
C276 C 0.65929 0.26896 -0.01028 0.0
C277 C 0.67505 0.2177 0.00012 0.0
N278 N 0.7361 0.14972 -0.01164 0.0
N279 N 0.67172 0.34509 0.94139 0.0
C280 C 0.72458 0.20152 -0.01433 0.0
C281 C 0.69131 0.30186 0.96117 0.0
N282 N 0.81321 0.22942 0.96452 0.0
N283 N 0.61498 0.28712 0.00851 0.0
H284 H 0.69345 0.36932 0.91919 0.0
H285 H 0.63236 0.35376 0.94341 0.0
H286 H 0.59119 0.26482 0.03063 0.0
H287 H 0.60469 0.32607 0.00565 0.0
H288 H 0.82864 0.19641 0.97908 0.0
H289 H 0.84193 0.25666 0.95251 0.0
H290 H 0.76961 0.13519 0.9741 0.0
H291 H 0.70972 0.12023 0.00047 0.0
C292 C 0.72503 0.95354 0.26558 0.0
C293 C 0.76644 0.98464 0.28606 0.0
C294 C 0.74699 0.05939 0.23828 0.0
C295 C 0.70941 0.02653 0.2147 0.0
N296 N 0.6709 0.93911 0.19964 0.0
N297 N 0.82399 0.06361 0.28592 0.0
C298 C 0.70068 0.97265 0.22657 0.0
C299 C 0.77949 0.03664 0.27076 0.0
N300 N 0.70743 0.90673 0.28433 0.0
N301 N 0.75019 0.11263 0.23113 0.0
H302 H 0.84957 0.04792 0.30899 0.0
H303 H 0.83826 0.09941 0.27236 0.0
H304 H 0.72622 0.13115 0.20842 0.0
H305 H 0.77301 0.139 0.25084 0.0
H306 H 0.67376 0.88529 0.2734 0.0
H307 H 0.72328 0.89181 0.3136 0.0
H308 H 0.66782 0.89843 0.20434 0.0
H309 H 0.65366 0.95105 0.16993 0.0
C310 C 0.03299 0.95384 0.43723 0.0
C311 C -0.00884 0.92046 0.45399 0.0
C312 C 0.02005 0.94007 0.53051 0.0
C313 C 0.05484 0.98089 0.51383 0.0
N314 N 0.0919 0.03013 0.451 0.0
N315 N 0.9416 0.88424 0.51688 0.0
C316 C 0.06146 -0.01172 0.46706 0.0
C317 C -0.01579 0.91338 0.50074 0.0
N318 N 0.0456 0.95228 0.39281 0.0
N319 N 0.02158 0.9268 0.57481 0.0
H320 H 0.91388 0.86444 0.4964 0.0
H321 H 0.93144 0.8831 0.55063 0.0
H322 H 0.04804 0.94538 0.59732 0.0
H323 H 0.00056 0.89411 0.58815 0.0
H324 H 0.07888 0.97213 0.37941 0.0
H325 H 0.02575 0.92683 0.37022 0.0
H326 H 0.09288 0.04081 0.41735 0.0
H327 H 0.11309 0.05691 0.47149 0.0
C328 C 0.9722 0.21874 0.75709 0.0
C329 C 0.94791 0.26626 0.74721 0.0
C330 C 0.97615 0.26006 0.66923 0.0
C331 C -0.00605 0.20914 0.6778 0.0
N332 N -0.00194 0.13517 0.72843 0.0
N333 N 0.91638 0.32563 0.69129 0.0
C334 C -0.01095 0.18703 0.72135 0.0
C335 C 0.94697 0.28521 0.70254 0.0
N336 N 0.98126 0.20479 0.80049 0.0
N337 N -0.01127 0.28542 0.63002 0.0
H338 H 0.89229 0.34368 0.71412 0.0
H339 H 0.91051 0.33728 0.65829 0.0
H340 H 0.01205 0.26942 0.60545 0.0
H341 H 0.9809 0.32462 0.62413 0.0
H342 H 0.00353 0.17323 0.80917 0.0
H343 H 0.97156 0.22791 0.82775 0.0
H344 H -0.01009 0.11608 0.75871 0.0
H345 H 0.00828 0.10967 0.70295 0.0
C346 C 0.51649 0.74042 0.705 0.0
C347 C 0.48743 0.69643 0.68622 0.0
C348 C 0.41263 0.7134 0.73445 0.0
C349 C 0.44315 0.75486 0.75561 0.0
N350 N 0.52784 0.80007 0.76801 0.0
N351 N 0.41265 0.63383 0.68975 0.0
C352 C 0.49623 0.76612 0.74293 0.0
C353 C 0.43687 0.68075 0.70294 0.0
N354 N 0.56227 0.75923 0.68547 0.0
N355 N 0.35994 0.70675 0.74266 0.0
H356 H 0.42954 0.60835 0.66727 0.0
H357 H 0.37828 0.61779 0.70437 0.0
H358 H 0.34025 0.73039 0.76482 0.0
H359 H 0.33481 0.68095 0.72442 0.0
H360 H 0.58198 0.79463 0.69477 0.0
H361 H 0.57819 0.7421 0.65723 0.0
H362 H 0.56818 0.80562 0.76303 0.0
H363 H 0.51481 0.81871 0.79669 0.0
C364 C 0.20303 0.7676 0.02858 0.0
C365 C 0.16967 0.73001 0.00542 0.0
C366 C 0.20153 0.76696 0.93413 0.0
C367 C 0.2408 0.79827 0.95727 0.0
N368 N 0.28562 0.81904 0.02721 0.0
N369 N 0.14593 0.68676 0.93536 0.0
C370 C 0.24341 0.79622 0.00475 0.0
C371 C 0.17112 0.72772 0.95791 0.0
N372 N 0.19523 0.77741 0.07298 0.0
N373 N 0.19188 0.77573 0.88982 0.0
H374 H 0.12552 0.6554 0.9513 0.0
H375 H 0.15027 0.68098 0.90104 0.0
H376 H 0.21146 0.80583 0.8716 0.0
H377 H 0.16037 0.75707 0.87265 0.0
H378 H 0.21559 0.80794 0.09021 0.0
H379 H 0.16444 0.75922 0.09126 0.0
H380 H 0.29138 0.81404 0.06147 0.0
H381 H 0.31774 0.83789 0.0112 0.0
C382 C 0.48128 0.40976 0.48888 0.0
C383 C 0.49265 0.42046 0.44314 0.0
C384 C 0.5572 0.49098 0.46483 0.0
C385 C 0.54766 0.47856 0.51054 0.0
N386 N 0.5106 0.41839 0.56589 0.0
N387 N 0.55006 0.46163 0.38777 0.0
C388 C 0.51286 0.43538 0.52249 0.0
C389 C 0.53347 0.45802 0.4312 0.0
N390 N 0.43846 0.37781 0.50044 0.0
N391 N 0.58617 0.53591 0.45336 0.0
H392 H 0.53388 0.43753 0.36235 0.0
H393 H 0.58315 0.48463 0.37784 0.0
H394 H 0.60343 0.56196 0.47678 0.0
H395 H 0.58921 0.5499 0.42064 0.0
H396 H 0.42494 0.37369 0.53319 0.0
H397 H 0.41352 0.35886 0.47709 0.0
H398 H 0.4899 0.3838 0.57579 0.0
H399 H 0.53362 0.43606 0.59132 0.0
loop_
_geom_bond_atom_site_label_1
_geom_bond_atom_site_label_2
_geom_bond_distance
_geom_bond_site_symmetry_2
_ccdc_geom_bond_type
C0 O1 1.306 . S
C0 O3 1.160 . S
O1 C0 1.306 . S
O1 Cd2 2.228 . S
Cd2 O1 2.228 . S
Cd2 O6 2.273 . S
Cd2 O10 2.277 . S
O3 C0 1.160 . S
O3 Cd4 2.203 . S
Cd4 O3 2.203 . S
Cd4 O6 2.411 . S
Cd4 O7 2.333 . S
Cd4 O8 2.352 . S
Cd4 O12 2.277 . S
Cd4 O13 2.356 . S
C5 O10 1.209 . S
C5 O12 1.226 . S
O6 Cd2 2.273 . S
O6 Cd4 2.411 . S
O6 C9 1.320 . S
O7 Cd4 2.333 . S
O7 C9 1.214 . S
O8 Cd4 2.352 . S
O8 C11 1.258 . S
C9 O6 1.320 . S
C9 O7 1.214 . S
O10 Cd2 2.277 . S
O10 C5 1.209 . S
C11 O8 1.258 . S
C11 O13 1.282 . S
O12 Cd4 2.277 . S
O12 C5 1.226 . S
O13 Cd4 2.356 . S
O13 C11 1.282 . S
C14 O15 1.306 . S
C14 O17 1.160 . S
O15 C14 1.306 . S
O15 Cd16 2.228 . S
Cd16 O15 2.228 . S
Cd16 O20 2.273 . S
Cd16 O24 2.277 . S
O17 C14 1.160 . S
O17 Cd18 2.203 . S
Cd18 O17 2.203 . S
Cd18 O20 2.411 . S
Cd18 O21 2.333 . S
Cd18 O22 2.352 . S
Cd18 O26 2.277 . S
Cd18 O27 2.356 . S
C19 O24 1.209 . S
C19 O26 1.226 . S
O20 Cd16 2.273 . S
O20 Cd18 2.411 . S
O20 C23 1.320 . S
O21 Cd18 2.333 . S
O21 C23 1.214 . S
O22 Cd18 2.352 . S
O22 C25 1.258 . S
C23 O20 1.320 . S
C23 O21 1.214 . S
O24 Cd16 2.277 . S
O24 C19 1.209 . S
C25 O22 1.258 . S
C25 O27 1.282 . S
O26 Cd18 2.277 . S
O26 C19 1.226 . S
O27 Cd18 2.356 . S
O27 C25 1.282 . S
C28 O29 1.306 . S
C28 O31 1.160 . S
O29 C28 1.306 . S
O29 Cd30 2.228 . S
Cd30 O29 2.228 . S
Cd30 O34 2.273 . S
Cd30 O38 2.277 . S
O31 C28 1.160 . S
O31 Cd32 2.203 . S
Cd32 O31 2.203 . S
Cd32 O34 2.411 . S
Cd32 O35 2.333 . S
Cd32 O36 2.352 . S
Cd32 O40 2.277 . S
Cd32 O41 2.356 . S
C33 O38 1.209 . S
C33 O40 1.226 . S
O34 Cd30 2.273 . S
O34 Cd32 2.411 . S
O34 C37 1.320 . S
O35 Cd32 2.333 . S
O35 C37 1.214 . S
O36 Cd32 2.352 . S
O36 C39 1.258 . S
C37 O34 1.320 . S
C37 O35 1.214 . S
O38 Cd30 2.277 . S
O38 C33 1.209 . S
C39 O36 1.258 . S
C39 O41 1.282 . S
O40 Cd32 2.277 . S
O40 C33 1.226 . S
O41 Cd32 2.356 . S
O41 C39 1.282 . S
C42 O43 1.306 . S
C42 O45 1.160 . S
O43 C42 1.306 . S
O43 Cd44 2.228 . S
Cd44 O43 2.228 . S
Cd44 O48 2.273 . S
Cd44 O52 2.277 . S
O45 C42 1.160 . S
O45 Cd46 2.203 . S
Cd46 O45 2.203 . S
Cd46 O48 2.411 . S
Cd46 O49 2.333 . S
Cd46 O50 2.352 . S
Cd46 O54 2.277 . S
Cd46 O55 2.356 . S
C47 O52 1.209 . S
C47 O54 1.226 . S
O48 Cd44 2.273 . S
O48 Cd46 2.411 . S
O48 C51 1.320 . S
O49 Cd46 2.333 . S
O49 C51 1.214 . S
O50 Cd46 2.352 . S
O50 C53 1.258 . S
C51 O48 1.320 . S
C51 O49 1.214 . S
O52 Cd44 2.277 . S
O52 C47 1.209 . S
C53 O50 1.258 . S
C53 O55 1.282 . S
O54 Cd46 2.277 . S
O54 C47 1.226 . S
O55 Cd46 2.356 . S
O55 C53 1.282 . S
C56 O57 1.306 . S
C56 O59 1.160 . S
O57 C56 1.306 . S
O57 Cd58 2.228 . S
Cd58 O57 2.228 . S
Cd58 O62 2.273 . S
Cd58 O66 2.277 . S
O59 C56 1.160 . S
O59 Cd60 2.203 . S
Cd60 O59 2.203 . S
Cd60 O62 2.411 . S
Cd60 O63 2.333 . S
Cd60 O64 2.352 . S
Cd60 O68 2.277 . S
Cd60 O69 2.356 . S
C61 O66 1.209 . S
C61 O68 1.226 . S
O62 Cd58 2.273 . S
O62 Cd60 2.411 . S
O62 C65 1.320 . S
O63 Cd60 2.333 . S
O63 C65 1.214 . S
O64 Cd60 2.352 . S
O64 C67 1.258 . S
C65 O62 1.320 . S
C65 O63 1.214 . S
O66 Cd58 2.277 . S
O66 C61 1.209 . S
C67 O64 1.258 . S
C67 O69 1.282 . S
O68 Cd60 2.277 . S
O68 C61 1.226 . S
O69 Cd60 2.356 . S
O69 C67 1.282 . S
C70 O71 1.306 . S
C70 O73 1.160 . S
O71 C70 1.306 . S
O71 Cd72 2.228 . S
Cd72 O71 2.228 . S
Cd72 O76 2.273 . S
Cd72 O80 2.277 . S
O73 C70 1.160 . S
O73 Cd74 2.203 . S
Cd74 O73 2.203 . S
Cd74 O76 2.411 . S
Cd74 O77 2.333 . S
Cd74 O78 2.352 . S
Cd74 O82 2.277 . S
Cd74 O83 2.356 . S
C75 O80 1.209 . S
C75 O82 1.226 . S
O76 Cd72 2.273 . S
O76 Cd74 2.411 . S
O76 C79 1.320 . S
O77 Cd74 2.333 . S
O77 C79 1.214 . S
O78 Cd74 2.352 . S
O78 C81 1.258 . S
C79 O76 1.320 . S
C79 O77 1.214 . S
O80 Cd72 2.277 . S
O80 C75 1.209 . S
C81 O78 1.258 . S
C81 O83 1.282 . S
O82 Cd74 2.277 . S
O82 C75 1.226 . S
O83 Cd74 2.356 . S
O83 C81 1.282 . S
C84 O85 1.306 . S
C84 O87 1.160 . S
O85 C84 1.306 . S
O85 Cd86 2.228 . S
Cd86 O85 2.228 . S
Cd86 O90 2.273 . S
Cd86 O94 2.277 . S
O87 C84 1.160 . S
O87 Cd88 2.203 . S
Cd88 O87 2.203 . S
Cd88 O90 2.411 . S
Cd88 O91 2.333 . S
Cd88 O92 2.352 . S
Cd88 O96 2.277 . S
Cd88 O97 2.356 . S
C89 O94 1.209 . S
C89 O96 1.226 . S
O90 Cd86 2.273 . S
O90 Cd88 2.411 . S
O90 C93 1.320 . S
O91 Cd88 2.333 . S
O91 C93 1.214 . S
O92 Cd88 2.352 . S
O92 C95 1.258 . S
C93 O90 1.320 . S
C93 O91 1.214 . S
O94 Cd86 2.277 . S
O94 C89 1.209 . S
C95 O92 1.258 . S
C95 O97 1.282 . S
O96 Cd88 2.277 . S
O96 C89 1.226 . S
O97 Cd88 2.356 . S
O97 C95 1.282 . S
C98 O99 1.306 . S
C98 O101 1.160 . S
O99 C98 1.306 . S
O99 Cd100 2.228 . S
Cd100 O99 2.228 . S
Cd100 O104 2.273 . S
Cd100 O108 2.277 . S
O101 C98 1.160 . S
O101 Cd102 2.203 . S
Cd102 O101 2.203 . S
Cd102 O104 2.411 . S
Cd102 O105 2.333 . S
Cd102 O106 2.352 . S
Cd102 O110 2.277 . S
Cd102 O111 2.356 . S
C103 O108 1.209 . S
C103 O110 1.226 . S
O104 Cd100 2.273 . S
O104 Cd102 2.411 . S
O104 C107 1.320 . S
O105 Cd102 2.333 . S
O105 C107 1.214 . S
O106 Cd102 2.352 . S
O106 C109 1.258 . S
C107 O104 1.320 . S
C107 O105 1.214 . S
O108 Cd100 2.277 . S
O108 C103 1.209 . S
C109 O106 1.258 . S
C109 O111 1.282 . S
O110 Cd102 2.277 . S
O110 C103 1.226 . S
O111 Cd102 2.356 . S
O111 C109 1.282 . S
C112 C113 1.363 . S
C112 C118 1.379 . S
C112 N120 1.356 . S
C113 C112 1.363 . S
C113 C119 1.363 . S
C114 C115 1.363 . S
C114 C119 1.379 . S
C114 N121 1.356 . S
C115 C114 1.363 . S
C115 C118 1.363 . S
N116 C118 1.356 . S
N116 H128 0.984 . S
N116 H129 0.985 . S
N117 C119 1.356 . S
N117 H122 0.984 . S
N117 H123 0.985 . S
C118 C112 1.379 . S
C118 C115 1.363 . S
C118 N116 1.356 . S
C119 C113 1.363 . S
C119 C114 1.379 . S
C119 N117 1.356 . S
N120 C112 1.356 . S
N120 H126 0.984 . S
N120 H127 0.984 . S
N121 C114 1.356 . S
N121 H124 0.984 . S
N121 H125 0.985 . S
H122 N117 0.984 . S
H123 N117 0.985 . S
H124 N121 0.984 . S
H125 N121 0.985 . S
H126 N120 0.984 . S
H127 N120 0.984 . S
H128 N116 0.984 . S
H129 N116 0.985 . S
C130 C131 1.363 . S
C130 C136 1.379 . S
C130 N138 1.356 . S
C131 C130 1.363 . S
C131 C137 1.363 . S
C132 C133 1.363 . S
C132 C137 1.379 . S
C132 N139 1.356 . S
C133 C132 1.363 . S
C133 C136 1.363 . S
N134 C136 1.356 . S
N134 H146 0.984 . S
N134 H147 0.985 . S
N135 C137 1.356 . S
N135 H140 0.984 . S
N135 H141 0.985 . S
C136 C130 1.379 . S
C136 C133 1.363 . S
C136 N134 1.356 . S
C137 C131 1.363 . S
C137 C132 1.379 . S
C137 N135 1.356 . S
N138 C130 1.356 . S
N138 H144 0.984 . S
N138 H145 0.984 . S
N139 C132 1.356 . S
N139 H142 0.984 . S
N139 H143 0.985 . S
H140 N135 0.984 . S
H141 N135 0.985 . S
H142 N139 0.984 . S
H143 N139 0.985 . S
H144 N138 0.984 . S
H145 N138 0.984 . S
H146 N134 0.984 . S
H147 N134 0.985 . S
C148 C149 1.363 1_565 S
C148 C154 1.379 1_554 S
C148 N156 1.356 . S
C149 C148 1.363 1_545 S
C149 C155 1.363 . S
C150 C151 1.363 1_545 S
C150 C155 1.379 1_556 S
C150 N157 1.356 . S
C151 C150 1.363 1_565 S
C151 C154 1.363 . S
N152 C154 1.356 . S
N152 H164 0.991 . S
N152 H165 0.985 . S
N153 C155 1.356 . S
N153 H158 0.984 . S
N153 H159 0.991 . S
C154 C148 1.379 1_556 S
C154 C151 1.363 . S
C154 N152 1.356 . S
C155 C149 1.363 . S
C155 C150 1.379 1_554 S
C155 N153 1.356 . S
N156 C148 1.356 . S
N156 H162 0.984 . S
N156 H163 0.984 . S
N157 C150 1.356 . S
N157 H160 0.984 1_545 S
N157 H161 0.985 . S
H158 N153 0.984 . S
H159 N153 0.991 . S
H160 N157 0.984 1_565 S
H161 N157 0.985 . S
H162 N156 0.984 . S
H163 N156 0.984 . S
H164 N152 0.991 . S
H165 N152 0.985 . S
C166 C167 1.363 1_455 S
C166 C172 1.379 . S
C166 N174 1.356 1_455 S
C167 C166 1.363 1_655 S
C167 C173 1.363 1_655 S
C168 C169 1.363 . S
C168 C173 1.378 . S
C168 N175 1.356 . S
C169 C168 1.363 . S
C169 C172 1.363 . S
N170 C172 1.356 . S
N170 H182 0.984 . S
N170 H183 0.985 . S
N171 C173 1.357 1_655 S
N171 H176 0.984 . S
N171 H177 0.985 . S
C172 C166 1.379 . S
C172 C169 1.363 . S
C172 N170 1.356 . S
C173 C167 1.363 1_455 S
C173 C168 1.378 . S
C173 N171 1.357 1_455 S
N174 C166 1.356 1_655 S
N174 H180 0.984 . S
N174 H181 0.984 . S
N175 C168 1.356 . S
N175 H178 0.984 . S
N175 H179 0.985 . S
H176 N171 0.984 . S
H177 N171 0.985 . S
H178 N175 0.984 . S
H179 N175 0.985 . S
H180 N174 0.984 . S
H181 N174 0.984 . S
H182 N170 0.984 . S
H183 N170 0.985 . S
C184 C185 1.363 . S
C184 C190 1.379 1_565 S
C184 N192 1.356 . S
C185 C184 1.363 . S
C185 C191 1.363 . S
C186 C187 1.363 1_565 S
C186 C191 1.379 . S
C186 N193 1.356 . S
C187 C186 1.363 1_545 S
C187 C190 1.363 . S
N188 C190 1.356 . S
N188 H200 0.984 . S
N188 H201 0.985 . S
N189 C191 1.356 . S
N189 H194 0.984 . S
N189 H195 0.985 . S
C190 C184 1.379 1_545 S
C190 C187 1.363 . S
C190 N188 1.356 . S
C191 C185 1.363 . S
C191 C186 1.379 . S
C191 N189 1.356 . S
N192 C184 1.356 . S
N192 H198 0.978 1_565 S
N192 H199 0.991 . S
N193 C186 1.356 . S
N193 H196 0.984 . S
N193 H197 0.985 . S
H194 N189 0.984 . S
H195 N189 0.985 . S
H196 N193 0.984 . S
H197 N193 0.985 . S
H198 N192 0.978 1_545 S
H199 N192 0.991 . S
H200 N188 0.984 . S
H201 N188 0.985 . S
C202 C203 1.363 1_455 S
C202 C208 1.379 1_556 S
C202 N210 1.356 . S
C203 C202 1.363 1_655 S
C203 C209 1.363 . S
C204 C205 1.363 1_655 S
C204 C209 1.379 1_554 S
C204 N211 1.356 . S
C205 C204 1.363 1_455 S
C205 C208 1.363 . S
N206 C208 1.356 . S
N206 H218 0.984 . S
N206 H219 0.985 . S
N207 C209 1.356 . S
N207 H212 0.984 . S
N207 H213 0.985 . S
C208 C202 1.379 1_554 S
C208 C205 1.363 . S
C208 N206 1.356 . S
C209 C203 1.363 . S
C209 C204 1.379 1_556 S
C209 N207 1.356 . S
N210 C202 1.356 . S
N210 H216 0.984 . S
N210 H217 0.984 . S
N211 C204 1.356 . S
N211 H214 0.984 1_655 S
N211 H215 0.985 . S
H212 N207 0.984 . S
H213 N207 0.985 . S
H214 N211 0.984 1_455 S
H215 N211 0.985 . S
H216 N210 0.984 . S
H217 N210 0.984 . S
H218 N206 0.984 . S
H219 N206 0.985 . S
C220 C221 1.363 . S
C220 C226 1.379 . S
C220 N228 1.356 . S
C221 C220 1.363 . S
C221 C227 1.363 . S
C222 C223 1.363 . S
C222 C227 1.379 . S
C222 N229 1.356 . S
C223 C222 1.363 . S
C223 C226 1.363 . S
N224 C226 1.356 . S
N224 H236 0.984 . S
N224 H237 0.985 . S
N225 C227 1.356 . S
N225 H230 0.984 . S
N225 H231 0.985 . S
C226 C220 1.379 . S
C226 C223 1.363 . S
C226 N224 1.356 . S
C227 C221 1.363 . S
C227 C222 1.379 . S
C227 N225 1.356 . S
N228 C220 1.356 . S
N228 H234 0.984 . S
N228 H235 0.984 . S
N229 C222 1.356 . S
N229 H232 0.984 . S
N229 H233 0.985 . S
H230 N225 0.984 . S
H231 N225 0.985 . S
H232 N229 0.984 . S
H233 N229 0.985 . S
H234 N228 0.984 . S
H235 N228 0.984 . S
H236 N224 0.984 . S
H237 N224 0.985 . S
C238 C239 1.363 . S
C238 C244 1.379 . S
C238 N246 1.356 . S
C239 C238 1.363 . S
C239 C245 1.363 . S
C240 C241 1.363 . S
C240 C245 1.379 . S
C240 N247 1.356 . S
C241 C240 1.363 . S
C241 C244 1.363 . S
N242 C244 1.356 . S
N242 H254 0.984 . S
N242 H255 0.985 . S
N243 C245 1.356 . S
N243 H248 0.984 . S
N243 H249 0.985 . S
C244 C238 1.379 . S
C244 C241 1.363 . S
C244 N242 1.356 . S
C245 C239 1.363 . S
C245 C240 1.379 . S
C245 N243 1.356 . S
N246 C238 1.356 . S
N246 H252 0.984 . S
N246 H253 0.984 . S
N247 C240 1.356 . S
N247 H250 0.984 . S
N247 H251 0.985 . S
H248 N243 0.984 . S
H249 N243 0.985 . S
H250 N247 0.984 . S
H251 N247 0.985 . S
H252 N246 0.984 . S
H253 N246 0.984 . S
H254 N242 0.984 . S
H255 N242 0.985 . S
C256 C257 1.363 . S
C256 C262 1.379 . S
C256 N264 1.356 . S
C257 C256 1.363 . S
C257 C263 1.363 . S
C258 C259 1.363 . S
C258 C263 1.379 . S
C258 N265 1.356 . S
C259 C258 1.363 . S
C259 C262 1.363 . S
N260 C262 1.356 . S
N260 H272 0.984 . S
N260 H273 0.985 . S
N261 C263 1.356 . S
N261 H266 0.984 . S
N261 H267 0.985 . S
C262 C256 1.379 . S
C262 C259 1.363 . S
C262 N260 1.356 . S
C263 C257 1.363 . S
C263 C258 1.379 . S
C263 N261 1.356 . S
N264 C256 1.356 . S
N264 H270 0.984 . S
N264 H271 0.984 . S
N265 C258 1.356 . S
N265 H268 0.984 . S
N265 H269 0.985 . S
H266 N261 0.984 . S
H267 N261 0.985 . S
H268 N265 0.984 . S
H269 N265 0.985 . S
H270 N264 0.984 . S
H271 N264 0.984 . S
H272 N260 0.984 . S
H273 N260 0.985 . S
C274 C275 1.363 . S
C274 C280 1.379 . S
C274 N282 1.356 . S
C275 C274 1.363 . S
C275 C281 1.363 1_556 S
C276 C277 1.363 . S
C276 C281 1.379 . S
C276 N283 1.356 . S
C277 C276 1.363 . S
C277 C280 1.363 1_554 S
N278 C280 1.356 1_554 S
N278 H290 0.984 1_554 S
N278 H291 0.985 . S
N279 C281 1.356 1_556 S
N279 H284 0.984 . S
N279 H285 0.985 1_556 S
C280 C274 1.379 . S
C280 C277 1.363 1_556 S
C280 N278 1.356 1_556 S
C281 C275 1.363 1_554 S
C281 C276 1.379 . S
C281 N279 1.356 1_554 S
N282 C274 1.356 . S
N282 H288 0.984 . S
N282 H289 0.984 . S
N283 C276 1.356 . S
N283 H286 0.984 . S
N283 H287 0.985 . S
H284 N279 0.984 . S
H285 N279 0.985 1_554 S
H286 N283 0.984 . S
H287 N283 0.985 . S
H288 N282 0.984 . S
H289 N282 0.984 . S
H290 N278 0.984 1_556 S
H291 N278 0.985 . S
C292 C293 1.363 . S
C292 C298 1.379 . S
C292 N300 1.356 . S
C293 C292 1.363 . S
C293 C299 1.363 . S
C294 C295 1.363 . S
C294 C299 1.379 1_545 S
C294 N301 1.356 . S
C295 C294 1.363 . S
C295 C298 1.363 1_545 S
N296 C298 1.356 . S
N296 H308 0.984 . S
N296 H309 0.985 . S
N297 C299 1.356 . S
N297 H302 0.984 . S
N297 H303 0.985 1_565 S
C298 C292 1.379 . S
C298 C295 1.363 1_565 S
C298 N296 1.356 . S
C299 C293 1.363 . S
C299 C294 1.379 1_565 S
C299 N297 1.356 . S
N300 C292 1.356 . S
N300 H306 0.984 . S
N300 H307 0.984 . S
N301 C294 1.356 . S
N301 H304 0.984 . S
N301 H305 0.985 . S
H302 N297 0.984 . S
H303 N297 0.985 1_545 S
H304 N301 0.984 . S
H305 N301 0.985 . S
H306 N300 0.984 . S
H307 N300 0.984 . S
H308 N296 0.984 . S
H309 N296 0.985 . S
C310 C311 1.363 1_455 S
C310 C316 1.379 1_565 S
C310 N318 1.356 . S
C311 C310 1.363 1_655 S
C311 C317 1.363 . S
C312 C313 1.363 1_565 S
C312 C317 1.379 1_455 S
C312 N319 1.356 . S
C313 C312 1.363 1_545 S
C313 C316 1.363 . S
N314 C316 1.356 . S
N314 H326 0.984 . S
N314 H327 0.985 . S
N315 C317 1.356 . S
N315 H320 0.984 . S
N315 H321 0.985 . S
C316 C310 1.379 1_545 S
C316 C313 1.363 . S
C316 N314 1.356 . S
C317 C311 1.363 . S
C317 C312 1.379 1_655 S
C317 N315 1.356 . S
N318 C310 1.356 . S
N318 H324 0.984 . S
N318 H325 0.984 1_455 S
N319 C312 1.356 . S
N319 H322 0.984 1_565 S
N319 H323 0.985 1_455 S
H320 N315 0.984 . S
H321 N315 0.985 . S
H322 N319 0.984 1_545 S
H323 N319 0.985 1_655 S
H324 N318 0.984 . S
H325 N318 0.984 1_655 S
H326 N314 0.984 . S
H327 N314 0.985 . S
C328 C329 1.363 1_455 S
C328 C334 1.379 . S
C328 N336 1.356 . S
C329 C328 1.363 1_655 S
C329 C335 1.363 . S
C330 C331 1.363 . S
C330 C335 1.379 1_455 S
C330 N337 1.356 . S
C331 C330 1.363 . S
C331 C334 1.363 . S
N332 C334 1.356 . S
N332 H344 0.984 . S
N332 H345 0.985 . S
N333 C335 1.356 . S
N333 H338 0.984 . S
N333 H339 0.985 . S
C334 C328 1.379 . S
C334 C331 1.363 . S
C334 N332 1.356 . S
C335 C329 1.363 . S
C335 C330 1.379 1_655 S
C335 N333 1.356 . S
N336 C328 1.356 . S
N336 H342 0.984 . S
N336 H343 0.984 . S
N337 C330 1.356 . S
N337 H340 0.984 . S
N337 H341 0.985 1_455 S
H338 N333 0.984 . S
H339 N333 0.985 . S
H340 N337 0.984 . S
H341 N337 0.985 1_655 S
H342 N336 0.984 . S
H343 N336 0.984 . S
H344 N332 0.984 . S
H345 N332 0.985 . S
C346 C347 1.363 . S
C346 C352 1.379 . S
C346 N354 1.356 . S
C347 C346 1.363 . S
C347 C353 1.363 . S
C348 C349 1.363 . S
C348 C353 1.379 . S
C348 N355 1.356 . S
C349 C348 1.363 . S
C349 C352 1.363 . S
N350 C352 1.356 . S
N350 H362 0.984 . S
N350 H363 0.985 . S
N351 C353 1.356 . S
N351 H356 0.984 . S
N351 H357 0.985 . S
C352 C346 1.379 . S
C352 C349 1.363 . S
C352 N350 1.356 . S
C353 C347 1.363 . S
C353 C348 1.379 . S
C353 N351 1.356 . S
N354 C346 1.356 . S
N354 H360 0.984 . S
N354 H361 0.984 . S
N355 C348 1.356 . S
N355 H358 0.984 . S
N355 H359 0.985 . S
H356 N351 0.984 . S
H357 N351 0.985 . S
H358 N355 0.984 . S
H359 N355 0.985 . S
H360 N354 0.984 . S
H361 N354 0.984 . S
H362 N350 0.984 . S
H363 N350 0.985 . S
C364 C365 1.363 . S
C364 C370 1.379 . S
C364 N372 1.356 . S
C365 C364 1.363 . S
C365 C371 1.363 1_554 S
C366 C367 1.363 . S
C366 C371 1.379 . S
C366 N373 1.356 . S
C367 C366 1.363 . S
C367 C370 1.363 1_556 S
N368 C370 1.356 . S
N368 H380 0.984 . S
N368 H381 0.985 1_554 S
N369 C371 1.356 . S
N369 H374 0.984 1_556 S
N369 H375 0.985 . S
C370 C364 1.379 . S
C370 C367 1.363 1_554 S
C370 N368 1.356 . S
C371 C365 1.363 1_556 S
C371 C366 1.379 . S
C371 N369 1.356 . S
N372 C364 1.356 . S
N372 H378 0.984 . S
N372 H379 0.984 . S
N373 C366 1.356 . S
N373 H376 0.984 . S
N373 H377 0.985 . S
H374 N369 0.984 1_554 S
H375 N369 0.985 . S
H376 N373 0.984 . S
H377 N373 0.985 . S
H378 N372 0.984 . S
H379 N372 0.984 . S
H380 N368 0.984 . S
H381 N368 0.985 1_556 S
C382 C383 1.363 . S
C382 C388 1.379 . S
C382 N390 1.356 . S
C383 C382 1.363 . S
C383 C389 1.363 . S
C384 C385 1.363 . S
C384 C389 1.379 . S
C384 N391 1.356 . S
C385 C384 1.363 . S
C385 C388 1.363 . S
N386 C388 1.356 . S
N386 H398 0.984 . S
N386 H399 0.985 . S
N387 C389 1.356 . S
N387 H392 0.984 . S
N387 H393 0.985 . S
C388 C382 1.379 . S
C388 C385 1.363 . S
C388 N386 1.356 . S
C389 C383 1.363 . S
C389 C384 1.379 . S
C389 N387 1.356 . S
N390 C382 1.356 . S
N390 H396 0.984 . S
N390 H397 0.984 . S
N391 C384 1.356 . S
N391 H394 0.984 . S
N391 H395 0.985 . S
H392 N387 0.984 . S
H393 N387 0.985 . S
H394 N391 0.984 . S
H395 N391 0.985 . S
H396 N390 0.984 . S
H397 N390 0.984 . S
H398 N386 0.984 . S
H399 N386 0.985 . S
C113 C75 1.556 . S
C115 C5 1.556 . S
C131 C109 1.532 . S
C133 C14 1.535 . S
C149 C37 1.533 . S
C151 C93 1.533 . S
C167 C53 1.532 . S
C169 C56 1.535 . S
C185 C84 1.535 . S
C187 C11 1.532 . S
C203 C23 1.533 . S
C205 C65 1.533 . S
C221 C81 1.532 . S
C223 C28 1.535 . S
C239 C47 1.556 . S
C241 C103 1.556 . S
C257 C67 1.532 . S
C259 C70 1.535 . S
C275 C19 1.556 . S
C277 C33 1.556 . S
C293 C42 1.535 . S
C295 C39 1.532 . S
C311 C51 1.533 . S
C313 C9 1.533 . S
C329 C25 1.532 . S
C331 C0 1.535 . S
C347 C98 1.535 . S
C349 C95 1.532 . S
C365 C61 1.556 . S
C367 C89 1.556 . S
C383 C79 1.533 . S
C385 C107 1.533 . S
