# Generated by pormake.
# Topology qtz-e, (6)-cn, num edge types: 1
# Building blocks:
#     Node 0, Type 0, BuildingBlock: PAMTUU_clean_sbu_0, # of connection points: 6
#     Node 1, Type 0, BuildingBlock: PAMTUU_clean_sbu_0, # of connection points: 6
#     Node 2, Type 0, BuildingBlock: PAMTUU_clean_sbu_0, # of connection points: 6
#     Node 3, Type 0, BuildingBlock: PAMTUU_clean_sbu_0, # of connection points: 6
#     Node 4, Type 0, BuildingBlock: PAMTUU_clean_sbu_0, # of connection points: 6
#     Node 5, Type 0, BuildingBlock: PAMTUU_clean_sbu_0, # of connection points: 6
#     Edge 6, Type (0, 0), BuildingBlock: FUNLAD_clean_linker_0, # of connection points: 2
#     Edge 7, Type (0, 0), BuildingBlock: FUNLAD_clean_linker_0, # of connection points: 2
#     Edge 8, Type (0, 0), BuildingBlock: FUNLAD_clean_linker_0, # of connection points: 2
#     Edge 9, Type (0, 0), BuildingBlock: FUNLAD_clean_linker_0, # of connection points: 2
#     Edge 10, Type (0, 0), BuildingBlock: FUNLAD_clean_linker_0, # of connection points: 2
#     Edge 11, Type (0, 0), BuildingBlock: FUNLAD_clean_linker_0, # of connection points: 2
#     Edge 12, Type (0, 0), BuildingBlock: FUNLAD_clean_linker_0, # of connection points: 2
#     Edge 13, Type (0, 0), BuildingBlock: FUNLAD_clean_linker_0, # of connection points: 2
#     Edge 14, Type (0, 0), BuildingBlock: FUNLAD_clean_linker_0, # of connection points: 2
#     Edge 15, Type (0, 0), BuildingBlock: FUNLAD_clean_linker_0, # of connection points: 2
#     Edge 16, Type (0, 0), BuildingBlock: FUNLAD_clean_linker_0, # of connection points: 2
#     Edge 17, Type (0, 0), BuildingBlock: FUNLAD_clean_linker_0, # of connection points: 2
#     Edge 18, Type (0, 0), BuildingBlock: FUNLAD_clean_linker_0, # of connection points: 2
#     Edge 19, Type (0, 0), BuildingBlock: FUNLAD_clean_linker_0, # of connection points: 2
#     Edge 20, Type (0, 0), BuildingBlock: FUNLAD_clean_linker_0, # of connection points: 2
#     Edge 21, Type (0, 0), BuildingBlock: FUNLAD_clean_linker_0, # of connection points: 2
#     Edge 22, Type (0, 0), BuildingBlock: FUNLAD_clean_linker_0, # of connection points: 2
#     Edge 23, Type (0, 0), BuildingBlock: FUNLAD_clean_linker_0, # of connection points: 2
# Relax obj value: 0.177
# Max RMSD: 0.204
# Mean RMSD: 0.204
data_MOF--net-qtz-e--node1-PAMTUU_clean_sbu_0--edge1-FUNLAD_clean_linker_0
_symmetry_space_group_name_H-M    P1
_symmetry_Int_Tables_number       1
_symmetry_cell_setting            triclinic
loop_
_symmetry_equiv_pos_as_xyz
'x, y, z'
_cell_length_a     30.970296
_cell_length_b     31.07899
_cell_length_c     57.168529
_cell_angle_alpha  89.907098
_cell_angle_beta   89.976488
_cell_angle_gamma 120.08278
loop_
_atom_site_label
_atom_site_type_symbol
_atom_site_fract_x
_atom_site_fract_y
_atom_site_fract_z
_atom_type_partial_charge
Tb0 Tb 0.20869 0.35414 0.08572 0.0
Tb1 Tb 0.28971 0.46185 0.06203 0.0
C2 C 0.32251 0.40317 0.09322 0.0
C3 C 0.13008 0.26126 0.13031 0.0
C4 C 0.08912 0.2396 0.17595 0.0
C5 C 0.07066 0.20279 0.15845 0.0
C6 C 0.09092 0.2136 0.13584 0.0
C7 C 0.14933 0.2979 0.14775 0.0
C8 C 0.1291 0.28718 0.17035 0.0
C9 C 0.14833 0.27347 0.10602 0.0
O10 O 0.21316 0.41139 0.10898 0.0
O11 O 0.29105 0.47629 0.09932 0.0
O12 O 0.22001 0.46171 0.06171 0.0
O13 O 0.16429 0.37771 0.06558 0.0
O14 O 0.35341 0.49813 0.04083 0.0
O15 O 0.32176 0.53887 0.05686 0.0
O16 O 0.24876 0.41121 0.03395 0.0
O17 O 0.23289 0.33917 0.05218 0.0
O18 O 0.27947 0.3818 0.10408 0.0
O19 O 0.32556 0.42015 0.07202 0.0
C20 C 0.25227 0.45512 0.11346 0.0
O21 O 0.13507 0.30151 0.09488 0.0
O22 O 0.19532 0.28818 0.10256 0.0
C23 C 0.17438 0.42359 0.06152 0.0
C24 C 0.35916 0.56547 0.01982 0.0
C25 C 0.37089 0.61071 0.97574 0.0
C26 C 0.32502 0.56901 0.98211 0.0
C27 C 0.31922 0.54651 1.00399 0.0
C28 C 0.40459 0.60732 0.01374 0.0
C29 C 0.41048 0.62976 0.9919 0.0
C30 C 0.35486 0.54064 0.04222 0.0
C31 C 0.24022 0.36545 0.03295 0.0
H32 H 0.03952 0.16599 0.16199 0.0
H33 H 0.07527 0.18498 0.12255 0.0
H34 H 0.17951 0.33502 0.1438 0.0
H35 H 0.14472 0.31626 0.18341 0.0
H36 H 0.29367 0.5537 0.97018 0.0
H37 H 0.28387 0.514 0.00845 0.0
H38 H 0.43587 0.6221 0.02573 0.0
H39 H 0.44656 0.6612 0.98744 0.0
Tb40 Tb 0.7727 0.12403 0.46286 0.0
Tb41 Tb 0.74852 0.19552 0.49679 0.0
C42 C 0.66343 0.10163 0.47111 0.0
C43 C 0.82505 0.08875 0.41359 0.0
C44 C 0.87834 0.11394 0.37084 0.0
C45 C 0.86078 0.06675 0.38107 0.0
C46 C 0.83436 0.05431 0.40224 0.0
C47 C 0.84258 0.13592 0.40357 0.0
C48 C 0.86891 0.14839 0.3824 0.0
C49 C 0.79678 0.07539 0.43573 0.0
O50 O 0.75683 0.17027 0.43977 0.0
O51 O 0.77192 0.23581 0.46393 0.0
O52 O 0.82712 0.21841 0.49911 0.0
O53 O 0.83809 0.19768 0.46252 0.0
O54 O 0.71174 0.23518 0.50457 0.0
O55 O 0.76532 0.23455 0.52843 0.0
O56 O 0.72236 0.12567 0.51497 0.0
O57 O 0.77733 0.10475 0.49928 0.0
O58 O 0.69245 0.08206 0.46934 0.0
O59 O 0.68038 0.14768 0.47792 0.0
C60 C 0.76502 0.21575 0.44304 0.0
O61 O 0.82217 0.09865 0.45431 0.0
O62 O 0.75395 0.07383 0.43498 0.0
C63 C 0.85525 0.22725 0.48062 0.0
C64 C 0.69738 0.237 0.54487 0.0
C65 C 0.6366 0.21863 0.58454 0.0
C66 C 0.66588 0.26723 0.57574 0.0
C67 C 0.69606 0.2763 0.55609 0.0
C68 C 0.66738 0.18825 0.55316 0.0
C69 C 0.63717 0.17911 0.57285 0.0
C70 C 0.7318 0.24758 0.52526 0.0
C71 C 0.74668 0.10129 0.5161 0.0
H72 H 0.86674 0.03907 0.37254 0.0
H73 H 0.82098 0.01768 0.40967 0.0
H74 H 0.83588 0.16312 0.41213 0.0
H75 H 0.88236 0.18523 0.37523 0.0
H76 H 0.66562 0.29834 0.58412 0.0
H77 H 0.71892 0.31412 0.54984 0.0
H78 H 0.66809 0.15747 0.54467 0.0
H79 H 0.61538 0.14135 0.57929 0.0
Tb80 Tb 0.63916 0.84902 0.75331 0.0
Tb81 Tb 0.52692 0.80942 0.73115 0.0
C82 C 0.58813 0.91317 0.75112 0.0
C83 C 0.73678 0.86852 0.796 0.0
C84 C 0.76372 0.85248 0.84113 0.0
C85 C 0.79557 0.89584 0.82834 0.0
C86 C 0.78222 0.90369 0.806 0.0
C87 C 0.7046 0.82545 0.80873 0.0
C88 C 0.71799 0.81742 0.831 0.0
C89 C 0.72273 0.87745 0.77259 0.0
O90 O 0.58768 0.80676 0.78124 0.0
O91 O 0.51617 0.80614 0.76898 0.0
O92 O 0.52832 0.74446 0.74284 0.0
O93 O 0.61228 0.77427 0.73945 0.0
O94 O 0.46608 0.82051 0.72548 0.0
O95 O 0.46691 0.75648 0.7114 0.0
O96 O 0.5772 0.82056 0.70234 0.0
O97 O 0.65098 0.88063 0.71817 0.0
O98 O 0.61096 0.89716 0.76487 0.0
O99 O 0.56809 0.88971 0.73165 0.0
C100 C 0.54282 0.80001 0.78526 0.0
O101 O 0.70052 0.8389 0.75895 0.0
O102 O 0.70085 0.90387 0.77201 0.0
C103 C 0.56611 0.73702 0.74083 0.0
C104 C 0.42802 0.78981 0.68885 0.0
C105 C 0.39775 0.79588 0.64314 0.0
C106 C 0.36253 0.76531 0.66001 0.0
C107 C 0.37761 0.76225 0.68266 0.0
C108 C 0.46324 0.8215 0.67235 0.0
C109 C 0.44821 0.82459 0.64965 0.0
C110 C 0.44387 0.78186 0.71181 0.0
C111 C 0.62266 0.85845 0.69988 0.0
H112 H 0.83061 0.92412 0.83568 0.0
H113 H 0.80732 0.9374 0.79657 0.0
H114 H 0.66913 0.79786 0.80141 0.0
H115 H 0.69273 0.78334 0.84011 0.0
H116 H 0.32331 0.7434 0.65564 0.0
H117 H 0.35003 0.73751 0.69521 0.0
H118 H 0.50243 0.8428 0.67688 0.0
H119 H 0.47627 0.84818 0.63701 0.0
Tb120 Tb 0.8531 0.63019 0.12901 0.0
Tb121 Tb 0.78892 0.52648 0.16014 0.0
C122 C 0.88001 0.54654 0.1293 0.0
C123 C 0.88055 0.72069 0.08167 0.0
C124 C 0.85164 0.74303 0.03844 0.0
C125 C 0.90224 0.76692 0.04508 0.0
C126 C 0.9165 0.75583 0.06648 0.0
C127 C 0.83003 0.69697 0.07527 0.0
C128 C 0.81569 0.70819 0.05396 0.0
C129 C 0.89611 0.70651 0.10334 0.0
O130 O 0.80645 0.57283 0.10397 0.0
O131 O 0.74705 0.51168 0.12787 0.0
O132 O 0.76579 0.57927 0.1697 0.0
O133 O 0.77759 0.61588 0.13415 0.0
O134 O 0.78343 0.46149 0.17378 0.0
O135 O 0.72474 0.47855 0.17969 0.0
O136 O 0.85393 0.57396 0.1811 0.0
O137 O 0.87827 0.65109 0.16507 0.0
O138 O 0.89827 0.59469 0.13145 0.0
O139 O 0.83354 0.51472 0.13466 0.0
C140 C 0.76364 0.53139 0.1071 0.0
O141 O 0.87135 0.70395 0.12229 0.0
O142 O 0.90256 0.66833 0.10143 0.0
C143 C 0.75182 0.59963 0.15356 0.0
C144 C 0.74015 0.43514 0.20948 0.0
C145 C 0.73767 0.3993 0.25504 0.0
C146 C 0.69394 0.37971 0.24148 0.0
C147 C 0.69526 0.39739 0.21887 0.0
C148 C 0.78338 0.4566 0.22333 0.0
C149 C 0.78219 0.43874 0.24589 0.0
C150 C 0.74194 0.44906 0.18479 0.0
C151 C 0.87959 0.6228 0.18195 0.0
H152 H 0.93107 0.79332 0.0335 0.0
H153 H 0.95573 0.77405 0.07099 0.0
H154 H 0.80167 0.66934 0.08667 0.0
H155 H 0.77636 0.68954 0.04968 0.0
H156 H 0.65883 0.35 0.24817 0.0
H157 H 0.66149 0.38063 0.20847 0.0
H158 H 0.81845 0.48594 0.21641 0.0
H159 H 0.81664 0.45441 0.25573 0.0
Tb160 Tb 0.12794 0.76978 0.42341 0.0
Tb161 Tb 0.19547 0.73365 0.39296 0.0
C162 C 0.09625 0.65814 0.41541 0.0
C163 C 0.08822 0.82577 0.46947 0.0
C164 C 0.10667 0.87549 0.51282 0.0
C165 C 0.05968 0.85543 0.50194 0.0
C166 C 0.05054 0.83066 0.4805 0.0
C167 C 0.13556 0.84687 0.47985 0.0
C168 C 0.1447 0.87142 0.50132 0.0
C169 C 0.07704 0.79561 0.44814 0.0
O170 O 0.18793 0.78161 0.44657 0.0
O171 O 0.21031 0.72812 0.42993 0.0
O172 O 0.24724 0.80933 0.40255 0.0
O173 O 0.19424 0.83854 0.41252 0.0
O174 O 0.21503 0.67887 0.38712 0.0
O175 O 0.24882 0.74719 0.36714 0.0
O176 O 0.15845 0.75593 0.36733 0.0
O177 O 0.09195 0.74577 0.38942 0.0
O178 O 0.10214 0.6918 0.43087 0.0
O179 O 0.12042 0.67116 0.39552 0.0
C180 C 0.21084 0.7558 0.4475 0.0
O181 O 0.10074 0.81889 0.42919 0.0
O182 O 0.07708 0.75404 0.4508 0.0
C183 C 0.23875 0.84559 0.40736 0.0
C184 C 0.23862 0.67571 0.34835 0.0
C185 C 0.2314 0.62659 0.30603 0.0
C186 C 0.27115 0.63866 0.3215 0.0
C187 C 0.2747 0.66306 0.34248 0.0
C188 C 0.19826 0.66296 0.33328 0.0
C189 C 0.19463 0.63847 0.31225 0.0
C190 C 0.24472 0.70364 0.36985 0.0
C191 C 0.11325 0.74947 0.36902 0.0
H192 H 0.02979 0.85858 0.51005 0.0
H193 H 0.01377 0.81456 0.47275 0.0
H194 H 0.16509 0.84331 0.4716 0.0
H195 H 0.18113 0.88583 0.50924 0.0
H196 H 0.29956 0.62925 0.31739 0.0
H197 H 0.30596 0.67255 0.35402 0.0
H198 H 0.1701 0.67262 0.33763 0.0
H199 H 0.16379 0.62996 0.3006 0.0
Tb200 Tb 0.33766 0.19031 0.7986 0.0
Tb201 Tb 0.44611 0.24035 0.82616 0.0
C202 C 0.41624 0.30233 0.79477 0.0
C203 C 0.24407 0.12264 0.75334 0.0
C204 C 0.22231 0.07583 0.70918 0.0
C205 C 0.18901 0.08826 0.71983 0.0
C206 C 0.19991 0.11161 0.74171 0.0
C207 C 0.27694 0.10945 0.74304 0.0
C208 C 0.26618 0.08628 0.72118 0.0
C209 C 0.25766 0.15091 0.77534 0.0
O210 O 0.39298 0.2022 0.77189 0.0
O211 O 0.4596 0.21158 0.7941 0.0
O212 O 0.39791 0.16442 0.83765 0.0
O213 O 0.35843 0.13391 0.80328 0.0
O214 O 0.51152 0.30397 0.83685 0.0
O215 O 0.49759 0.23095 0.84644 0.0
O216 O 0.39784 0.2575 0.84675 0.0
O217 O 0.32106 0.19355 0.83548 0.0
O218 O 0.36919 0.27063 0.79949 0.0
O219 O 0.4511 0.2914 0.79921 0.0
C220 C 0.43641 0.20425 0.77393 0.0
O221 O 0.26535 0.1297 0.79333 0.0
O222 O 0.29247 0.19734 0.77333 0.0
C223 C 0.37903 0.12857 0.82223 0.0
C224 C 0.53955 0.29575 0.87366 0.0
C225 C 0.56989 0.33657 0.9186 0.0
C226 C 0.60017 0.32435 0.90508 0.0
C227 C 0.58514 0.30424 0.88272 0.0
C228 C 0.50841 0.30628 0.88739 0.0
C229 C 0.52357 0.32676 0.90966 0.0
C230 C 0.52609 0.27868 0.84946 0.0
C231 C 0.34973 0.22868 0.85036 0.0
H232 H 0.15519 0.08124 0.71098 0.0
H233 H 0.17435 0.12195 0.74932 0.0
H234 H 0.31133 0.11778 0.75175 0.0
H235 H 0.29231 0.07662 0.71366 0.0
H236 H 0.63624 0.33192 0.91146 0.0
H237 H 0.60961 0.29638 0.87231 0.0
H238 H 0.47293 0.29971 0.88068 0.0
H239 H 0.49927 0.33529 0.91981 0.0
C240 C 0.27264 0.61894 0.26987 0.0
C241 C 0.22915 0.6027 0.28329 0.0
C242 C 0.27102 0.59628 0.24859 0.0
C243 C 0.22565 0.557 0.24016 0.0
C244 C 0.18226 0.54054 0.25366 0.0
C245 C 0.18388 0.56334 0.27495 0.0
C246 C 0.22256 0.53109 0.2179 0.0
C247 C 0.25468 0.55284 0.19998 0.0
C248 C 0.25273 0.52701 0.1778 0.0
C249 C 0.29537 0.54727 0.16348 0.0
C250 C 0.2954 0.52414 0.14254 0.0
C251 C 0.25261 0.48025 0.13544 0.0
H252 H 0.17528 0.46741 0.18036 0.0
C253 C 0.20969 0.46033 0.14958 0.0
C254 C 0.20959 0.48352 0.17043 0.0
H255 H 0.17583 0.42686 0.14451 0.0
H256 H 0.30805 0.64938 0.27578 0.0
H257 H 0.3056 0.60908 0.23912 0.0
H258 H 0.14695 0.50999 0.24769 0.0
H259 H 0.14987 0.5496 0.28505 0.0
H260 H 0.1924 0.49294 0.21647 0.0
H261 H 0.28444 0.59121 0.20158 0.0
H262 H 0.329 0.58093 0.16861 0.0
H263 H 0.32906 0.54054 0.13203 0.0
C264 C 0.43807 0.19306 0.73056 0.0
C265 C 0.46084 0.1997 0.75256 0.0
C266 C 0.46258 0.19197 0.71023 0.0
C267 C 0.51036 0.19712 0.71149 0.0
C268 C 0.53254 0.20266 0.73352 0.0
C269 C 0.50805 0.20373 0.75383 0.0
C270 C 0.53989 0.20088 0.6903 0.0
C271 C 0.51998 0.18484 0.66892 0.0
C272 C 0.55096 0.19318 0.6477 0.0
C273 C 0.53044 0.16087 0.62859 0.0
C274 C 0.55822 0.16876 0.60811 0.0
C275 C 0.6069 0.20961 0.60625 0.0
H276 H 0.61626 0.2609 0.65978 0.0
C277 C 0.62726 0.24211 0.62533 0.0
C278 C 0.59962 0.23417 0.64577 0.0
H279 H 0.6648 0.27371 0.62453 0.0
H280 H 0.40171 0.18984 0.72892 0.0
H281 H 0.44455 0.18886 0.69362 0.0
H282 H 0.56938 0.20695 0.73502 0.0
H283 H 0.52669 0.20873 0.77047 0.0
H284 H 0.5799 0.21732 0.69259 0.0
H285 H 0.47976 0.16402 0.66679 0.0
H286 H 0.49283 0.1294 0.6295 0.0
H287 H 0.54128 0.14338 0.5936 0.0
C288 C 0.40751 0.68499 0.94904 0.0
C289 C 0.37854 0.63318 0.95204 0.0
C290 C 0.41903 0.70584 0.92666 0.0
C291 C 0.40181 0.67528 0.90676 0.0
C292 C 0.37053 0.62386 0.90971 0.0
C293 C 0.35925 0.60292 0.93212 0.0
C294 C 0.41729 0.69578 0.88279 0.0
C295 C 0.46296 0.73467 0.87827 0.0
C296 C 0.48206 0.75195 0.85427 0.0
C297 C 0.53348 0.77368 0.85022 0.0
C298 C 0.55306 0.78927 0.82782 0.0
C299 C 0.52169 0.7843 0.809 0.0
H300 H 0.41093 0.73216 0.83822 0.0
C301 C 0.47032 0.76383 0.81314 0.0
C302 C 0.4506 0.7476 0.83557 0.0
H303 H 0.44524 0.75975 0.79902 0.0
H304 H 0.42181 0.70947 0.96402 0.0
H305 H 0.44173 0.74584 0.92501 0.0
H306 H 0.35646 0.59957 0.89465 0.0
H307 H 0.33705 0.56287 0.93376 0.0
H308 H 0.39263 0.67524 0.86841 0.0
H309 H 0.48931 0.75173 0.89255 0.0
H310 H 0.55856 0.77783 0.86436 0.0
H311 H 0.59289 0.80535 0.8253 0.0
C312 C 0.76799 0.22798 0.39974 0.0
C313 C 0.7671 0.24526 0.42233 0.0
C314 C 0.76824 0.2547 0.38007 0.0
C315 C 0.7669 0.29907 0.38253 0.0
C316 C 0.76779 0.31725 0.40509 0.0
C317 C 0.76778 0.29059 0.42482 0.0
C318 C 0.76509 0.32733 0.36194 0.0
C319 C 0.74465 0.30515 0.34142 0.0
C320 C 0.74197 0.33134 0.32015 0.0
C321 C 0.71281 0.3023 0.30137 0.0
C322 C 0.71066 0.32444 0.28051 0.0
C323 C 0.73763 0.37638 0.27787 0.0
H324 H 0.79243 0.40749 0.33139 0.0
C325 C 0.7664 0.40568 0.29673 0.0
C326 C 0.76876 0.38348 0.31763 0.0
H327 H 0.78742 0.44583 0.29531 0.0
H328 H 0.76858 0.19375 0.39717 0.0
H329 H 0.76988 0.24054 0.36302 0.0
H330 H 0.76753 0.3517 0.40748 0.0
H331 H 0.76751 0.30514 0.44199 0.0
H332 H 0.77866 0.36666 0.36433 0.0
H333 H 0.72755 0.26503 0.34014 0.0
H334 H 0.69206 0.26209 0.30267 0.0
H335 H 0.68894 0.30061 0.2662 0.0
C336 C 0.34719 0.7521 0.60771 0.0
C337 C 0.38188 0.79659 0.61871 0.0
C338 C 0.33121 0.75251 0.58493 0.0
C339 C 0.34986 0.79753 0.57252 0.0
C340 C 0.38466 0.84196 0.58349 0.0
C341 C 0.40077 0.84152 0.60629 0.0
C342 C 0.33126 0.79989 0.54887 0.0
C343 C 0.3102 0.76093 0.53408 0.0
C344 C 0.28716 0.76211 0.51147 0.0
C345 C 0.2816 0.72835 0.49379 0.0
C346 C 0.25755 0.72665 0.4728 0.0
C347 C 0.23801 0.75833 0.46922 0.0
H348 H 0.26974 0.81939 0.52119 0.0
C349 C 0.24371 0.79218 0.4869 0.0
C350 C 0.2678 0.79396 0.50778 0.0
H351 H 0.22907 0.81712 0.48479 0.0
H352 H 0.33228 0.7168 0.61674 0.0
H353 H 0.30328 0.7176 0.57744 0.0
H354 H 0.39919 0.87723 0.57445 0.0
H355 H 0.42715 0.87648 0.61437 0.0
H356 H 0.33576 0.83541 0.54346 0.0
H357 H 0.31016 0.7269 0.53843 0.0
H358 H 0.29567 0.70301 0.49627 0.0
H359 H 0.25363 0.70001 0.45958 0.0
C360 C 0.74582 0.52791 0.06421 0.0
C361 C 0.73384 0.50489 0.0863 0.0
C362 C 0.71949 0.50187 0.04435 0.0
C363 C 0.68057 0.4522 0.0462 0.0
C364 C 0.66834 0.42942 0.06828 0.0
C365 C 0.69437 0.45557 0.08817 0.0
C366 C 0.65448 0.4222 0.0253 0.0
C367 C 0.64915 0.44221 0.00539 0.0
C368 C 0.62624 0.41259 0.98398 0.0
C369 C 0.60347 0.42914 0.96792 0.0
C370 C 0.58399 0.40366 0.94696 0.0
C371 C 0.58767 0.36155 0.94149 0.0
H372 H 0.64796 0.357 0.99027 0.0
C373 C 0.61036 0.34487 0.95757 0.0
C374 C 0.62943 0.37007 0.97862 0.0
H375 H 0.61365 0.31249 0.95379 0.0
H376 H 0.77604 0.56587 0.06216 0.0
H377 H 0.73091 0.5203 0.02755 0.0
H378 H 0.63879 0.39109 0.07014 0.0
H379 H 0.6843 0.43663 0.10491 0.0
H380 H 0.63822 0.38214 0.02663 0.0
H381 H 0.66084 0.48151 1.00481 0.0
H382 H 0.60105 0.46209 0.97152 0.0
H383 H 0.56733 0.41778 0.93474 0.0
C384 C 0.41524 0.4444 0.09407 0.0
C385 C 0.36948 0.41775 0.10595 0.0
C386 C 0.46014 0.46568 0.10627 0.0
C387 C 0.46053 0.46074 0.13068 0.0
C388 C 0.41518 0.43143 0.14247 0.0
C389 C 0.36986 0.41045 0.13023 0.0
C390 C 0.50842 0.48533 0.14367 0.0
C391 C 0.54507 0.53137 0.13772 0.0
C392 C 0.59773 0.55464 0.14576 0.0
C393 C 0.63428 0.59459 0.13264 0.0
C394 C 0.68489 0.6122 0.13651 0.0
C395 C 0.70015 0.59055 0.15379 0.0
H396 H 0.58627 0.50641 0.17559 0.0
C397 C 0.66385 0.55395 0.16851 0.0
C398 C 0.61305 0.536 0.16451 0.0
H399 H 0.67439 0.53679 0.18216 0.0
H400 H 0.41651 0.45031 0.07534 0.0
H401 H 0.49463 0.48636 0.09654 0.0
H402 H 0.41471 0.42632 0.16123 0.0
H403 H 0.33524 0.39004 0.13988 0.0
H404 H 0.51356 0.46432 0.15744 0.0
H405 H 0.53716 0.55143 0.12437 0.0
H406 H 0.62371 0.61029 0.11832 0.0
H407 H 0.71192 0.6408 0.12501 0.0
C408 C 0.05061 0.58985 0.44464 0.0
C409 C 0.06716 0.60477 0.42157 0.0
C410 C 0.02724 0.53966 0.45096 0.0
C411 C 0.01991 0.50333 0.43429 0.0
C412 C 0.03481 0.51812 0.41108 0.0
C413 C 0.05851 0.5683 0.4048 0.0
C414 C 0.99512 0.44961 0.44016 0.0
C415 C 0.99521 0.43207 0.46174 0.0
C416 C 0.96648 0.37827 0.46751 0.0
C417 C 0.94603 0.36369 0.48999 0.0
C418 C 0.91264 0.31368 0.49497 0.0
C419 C 0.89947 0.27729 0.47756 0.0
H420 H 0.97391 0.35107 0.4336 0.0
C421 C 0.92375 0.29141 0.45577 0.0
C422 C 0.95697 0.3414 0.45079 0.0
H423 H 0.91506 0.26426 0.44206 0.0
H424 H 0.05649 0.617 0.45796 0.0
H425 H 0.0146 0.52959 0.46882 0.0
H426 H 0.0289 0.49082 0.39783 0.0
H427 H 0.07058 0.57849 0.38685 0.0
H428 H 0.97593 0.42373 0.426 0.0
H429 H 0.01403 0.45778 0.476 0.0
H430 H 0.95355 0.39131 0.50333 0.0
H431 H 0.89497 0.30406 0.51202 0.0
C432 C 0.38422 0.05977 0.80264 0.0
C433 C 0.39614 0.09188 0.82187 0.0
C434 C 0.41026 0.03468 0.79865 0.0
C435 C 0.44858 0.04096 0.81388 0.0
C436 C 0.45701 0.06881 0.83437 0.0
C437 C 0.4312 0.0944 0.83829 0.0
C438 C 0.48139 0.02061 0.80792 0.0
C439 C 0.4977 0.02305 0.78581 0.0
C440 C 0.52741 0.0005 0.77757 0.0
C441 C 0.52944 0.99382 0.75339 0.0
C442 C 0.55203 0.96805 0.74466 0.0
C443 C 0.57364 0.94878 0.75993 0.0
H444 H 0.55269 0.98974 0.81146 0.0
C445 C 0.5749 0.95846 0.78401 0.0
C446 C 0.55191 0.98403 0.79279 0.0
H447 H 0.5914 0.94415 0.79622 0.0
H448 H 0.35689 0.0563 0.78983 0.0
H449 H 0.40161 0.01177 0.78317 0.0
H450 H 0.48573 0.0733 0.84657 0.0
H451 H 0.44098 0.11848 0.8534 0.0
H452 H 0.49275 0.00491 0.82193 0.0
H453 H 0.48661 0.04078 0.77257 0.0
H454 H 0.51156 0.00672 0.7412 0.0
H455 H 0.55077 0.96151 0.726 0.0
C456 C 0.50595 0.64615 0.73987 0.0
C457 C 0.55551 0.68514 0.74188 0.0
C458 C 0.49369 0.5971 0.74373 0.0
C459 C 0.53088 0.58554 0.74953 0.0
C460 C 0.5808 0.6244 0.75061 0.0
C461 C 0.5931 0.67378 0.74675 0.0
C462 C 0.51873 0.5345 0.75652 0.0
C463 C 0.47377 0.49343 0.7532 0.0
C464 C 0.45993 0.44411 0.76325 0.0
C465 C 0.40943 0.41043 0.76807 0.0
C466 C 0.39497 0.36432 0.77835 0.0
C467 C 0.4308 0.35086 0.78384 0.0
H468 H 0.53464 0.45418 0.76407 0.0
C469 C 0.4812 0.3841 0.77849 0.0
C470 C 0.49562 0.43011 0.76824 0.0
H471 H 0.50976 0.37465 0.78217 0.0
H472 H 0.47603 0.65355 0.73602 0.0
H473 H 0.45464 0.56917 0.74308 0.0
H474 H 0.61026 0.61672 0.75511 0.0
H475 H 0.63162 0.70305 0.74848 0.0
H476 H 0.54753 0.53146 0.76592 0.0
H477 H 0.44453 0.49582 0.74396 0.0
H478 H 0.38112 0.42016 0.76422 0.0
H479 H 0.35581 0.33941 0.78207 0.0
C480 C 0.08504 0.39967 0.06766 0.0
C481 C 0.13302 0.4342 0.05957 0.0
C482 C 0.04924 0.41397 0.07088 0.0
C483 C 0.06091 0.46314 0.06611 0.0
C484 C 0.10716 0.49604 0.05594 0.0
C485 C 0.14299 0.48187 0.05281 0.0
C486 C 0.02746 0.48242 0.07288 0.0
C487 C 0.99662 0.46468 0.09145 0.0
C488 C 0.96729 0.487 0.10037 0.0
C489 C 0.92324 0.45653 0.11277 0.0
C490 C 0.89523 0.4761 0.1222 0.0
C491 C 0.91111 0.52693 0.1198 0.0
H492 H 0.01826 0.56301 0.08927 0.0
C493 C 0.95576 0.55783 0.10777 0.0
C494 C 0.9836 0.53805 0.09807 0.0
H495 H 0.96898 0.59716 0.10567 0.0
H496 H 0.07598 0.3625 0.0728 0.0
H497 H 0.01311 0.38685 0.07778 0.0
H498 H 0.11676 0.53381 0.05168 0.0
H499 H 0.17939 0.50918 0.0462 0.0
H500 H 0.03138 0.51457 0.06346 0.0
H501 H 0.99288 0.43271 0.10096 0.0
H502 H 0.91023 0.41727 0.11507 0.0
H503 H 0.86117 0.45128 0.13151 0.0
C504 C 0.2939 0.9114 0.4349 0.0
C505 C 0.28299 0.89406 0.41181 0.0
C506 C 0.34235 0.94784 0.44098 0.0
C507 C 0.38008 0.96806 0.42391 0.0
C508 C 0.36802 0.95382 0.40048 0.0
C509 C 0.31997 0.91624 0.39453 0.0
C510 C 0.4328 0.00094 0.4305 0.0
C511 C 0.45416 0.98756 0.44735 0.0
C512 C 0.50799 0.01711 0.45305 0.0
C513 C 0.53366 0.99266 0.46006 0.0
C514 C 0.5845 0.01984 0.4656 0.0
C515 C 0.61009 0.07201 0.46483 0.0
H516 H 0.51473 0.08923 0.44729 0.0
C517 C 0.58411 0.09639 0.45812 0.0
C518 C 0.5337 0.06927 0.45216 0.0
H519 H 0.60284 0.13661 0.4573 0.0
H520 H 0.26614 0.89389 0.44857 0.0
H521 H 0.35085 0.95875 0.45914 0.0
H522 H 0.39663 0.96913 0.38708 0.0
H523 H 0.31242 0.90255 0.37672 0.0
H524 H 0.45546 0.03344 0.4197 0.0
H525 H 0.43212 0.95199 0.45617 0.0
H526 H 0.51445 0.95243 0.46101 0.0
H527 H 0.6035 0.00011 0.47084 0.0
C528 C 0.35609 0.2796 0.88544 0.0
C529 C 0.32794 0.23656 0.87195 0.0
C530 C 0.33677 0.28719 0.90608 0.0
C531 C 0.28866 0.25194 0.91384 0.0
C532 C 0.26068 0.20857 0.9006 0.0
C533 C 0.27989 0.20113 0.87972 0.0
C534 C 0.26801 0.25928 0.93606 0.0
C535 C 0.279 0.30485 0.94341 0.0
C536 C 0.26248 0.31555 0.96603 0.0
C537 C 0.2631 0.36079 0.96822 0.0
C538 C 0.25362 0.37564 0.98971 0.0
C539 C 0.24377 0.34585 0.00977 0.0
H540 H 0.25075 0.24983 0.98496 0.0
C541 C 0.24142 0.29964 0.00752 0.0
C542 C 0.25069 0.28457 0.98584 0.0
H543 H 0.23415 0.27588 0.02262 0.0
H544 H 0.39331 0.30764 0.8801 0.0
H545 H 0.36011 0.32036 0.91616 0.0
H546 H 0.22373 0.18057 0.90631 0.0
H547 H 0.25738 0.16737 0.86987 0.0
H548 H 0.24228 0.22656 0.94602 0.0
H549 H 0.3009 0.33652 0.93201 0.0
H550 H 0.27215 0.38547 0.95332 0.0
H551 H 0.25567 0.41142 0.99065 0.0
C552 C 0.89753 0.15432 0.33097 0.0
C553 C 0.90614 0.12706 0.34818 0.0
C554 C 0.92308 0.16604 0.30958 0.0
C555 C 0.95831 0.15108 0.3049 0.0
C556 C 0.9667 0.1237 0.32208 0.0
C557 C 0.94114 0.11197 0.34344 0.0
C558 C 0.98551 0.16136 0.28212 0.0
C559 C 0.99169 0.19762 0.26709 0.0
C560 C 0.01829 0.20763 0.24415 0.0
C561 C 0.03459 0.25377 0.23319 0.0
C562 C 0.05809 0.26434 0.21133 0.0
C563 C 0.0657 0.22885 0.19968 0.0
H564 H 0.01297 0.13552 0.23991 0.0
C565 C 0.04944 0.18261 0.21061 0.0
C566 C 0.02593 0.17202 0.23252 0.0
H567 H 0.05487 0.15444 0.20224 0.0
H568 H 0.87012 0.1657 0.33381 0.0
H569 H 0.91407 0.18574 0.29666 0.0
H570 H 0.99335 0.1114 0.319 0.0
H571 H 0.94918 0.0914 0.35634 0.0
H572 H 0.00257 0.13909 0.27816 0.0
H573 H 0.97824 0.22256 0.27199 0.0
H574 H 0.02886 0.28181 0.24153 0.0
H575 H 0.06926 0.30002 0.20331 0.0
C576 C 0.68626 0.92214 0.67226 0.0
C577 C 0.63952 0.87932 0.67602 0.0
C578 C 0.69896 0.94501 0.65017 0.0
C579 C 0.665 0.92553 0.63144 0.0
C580 C 0.61912 0.88191 0.63507 0.0
C581 C 0.60668 0.85886 0.65697 0.0
C582 C 0.67355 0.95193 0.60867 0.0
C583 C 0.71885 0.98406 0.59977 0.0
C584 C 0.72485 0.01249 0.57783 0.0
C585 C 0.76568 0.0252 0.56296 0.0
C586 C 0.7724 0.05304 0.54255 0.0
C587 C 0.73898 0.06967 0.53693 0.0
H588 H 0.66029 0.0212 0.58347 0.0
C589 C 0.69841 0.05725 0.55197 0.0
C590 C 0.69137 0.02899 0.57211 0.0
H591 H 0.67201 0.06958 0.54828 0.0
H592 H 0.71238 0.93903 0.68655 0.0
H593 H 0.7343 0.97913 0.64819 0.0
H594 H 0.59214 0.86615 0.62102 0.0
H595 H 0.57038 0.82589 0.65908 0.0
H596 H 0.64055 0.94389 0.59862 0.0
H597 H 0.75229 0.98896 0.60836 0.0
H598 H 0.79231 0.0134 0.56709 0.0
H599 H 0.80425 0.06234 0.53144 0.0
C600 C 0.74226 0.82086 0.88265 0.0
C601 C 0.77819 0.84374 0.86485 0.0
C602 C 0.75579 0.81227 0.9048 0.0
C603 C 0.80571 0.82639 0.90972 0.0
C604 C 0.84167 0.84991 0.89209 0.0
C605 C 0.82811 0.85817 0.86991 0.0
C606 C 0.8219 0.81862 0.93314 0.0
C607 C 0.79166 0.78188 0.94794 0.0
C608 C 0.80824 0.77315 0.97107 0.0
C609 C 0.78336 0.72508 0.98068 0.0
C610 C 0.79749 0.71531 1.0024 0.0
C611 C 0.8365 0.75361 0.01529 0.0
H612 H 0.86611 0.84952 0.97754 0.0
C613 C 0.86097 0.80196 0.00579 0.0
C614 C 0.84704 0.81165 0.98397 0.0
H615 H 0.89043 0.83263 0.01539 0.0
H616 H 0.70367 0.81026 0.87963 0.0
H617 H 0.7272 0.79552 0.91812 0.0
H618 H 0.88043 0.86143 0.89539 0.0
H619 H 0.85679 0.8753 0.85663 0.0
H620 H 0.86093 0.84235 0.93767 0.0
H621 H 0.75397 0.75521 0.94245 0.0
H622 H 0.75319 0.69472 0.97121 0.0
H623 H 0.77818 0.67746 0.0089 0.0
C624 C 0.10513 0.74545 0.32511 0.0
C625 C 0.08366 0.74132 0.34731 0.0
C626 C 0.07594 0.73312 0.30481 0.0
C627 C 0.02448 0.7162 0.30627 0.0
C628 C 0.00336 0.71309 0.32839 0.0
C629 C 0.03255 0.72581 0.34863 0.0
C630 C 0.99092 0.69738 0.28553 0.0
C631 C 0.00596 0.71154 0.26328 0.0
C632 C 0.97203 0.68906 0.24285 0.0
C633 C 0.97988 0.7173 0.22242 0.0
C634 C 0.94941 0.69632 0.20273 0.0
C635 C 0.9111 0.64625 0.20291 0.0
H636 H 0.92716 0.61564 0.25817 0.0
C637 C 0.90357 0.61798 0.22333 0.0
C638 C 0.93353 0.63906 0.24304 0.0
H639 H 0.87448 0.57931 0.22414 0.0
H640 H 0.1443 0.75697 0.32341 0.0
H641 H 0.09345 0.73495 0.28817 0.0
H642 H 0.9638 0.6999 0.33009 0.0
H643 H 0.01458 0.72196 0.36538 0.0
H644 H 0.95176 0.67115 0.28891 0.0
H645 H 0.04381 0.74124 0.25984 0.0
H646 H 0.0096 0.75574 0.2217 0.0
H647 H 0.95645 0.71907 0.18726 0.0
C648 C 0.16364 0.01615 0.67904 0.0
C649 C 0.21203 0.05319 0.68542 0.0
C650 C 0.15405 0.99514 0.65665 0.0
C651 C 0.19269 0.01106 0.63998 0.0
C652 C 0.24106 0.04779 0.64651 0.0
C653 C 0.25063 0.06867 0.66888 0.0
C654 C 0.18488 0.98986 0.6159 0.0
C655 C 0.13987 0.96309 0.60559 0.0
C656 C 0.13275 0.94178 0.58161 0.0
C657 C 0.08655 0.90023 0.5759 0.0
C658 C 0.07808 0.87893 0.55365 0.0
C659 C 0.11549 0.89903 0.53637 0.0
H660 H 0.20558 0.99546 0.56762 0.0
C661 C 0.16151 0.94121 0.54194 0.0
C662 C 0.17006 0.96242 0.56426 0.0
H663 H 0.19082 0.95833 0.52895 0.0
H664 H 0.13324 0.00274 0.6915 0.0
H665 H 0.11649 0.96595 0.65283 0.0
H666 H 0.27167 0.06074 0.63417 0.0
H667 H 0.28826 0.09752 0.67309 0.0
H668 H 0.2181 0.99699 0.60632 0.0
H669 H 0.10632 0.95518 0.61504 0.0
H670 H 0.05702 0.88368 0.58883 0.0
H671 H 0.04241 0.84609 0.55015 0.0
loop_
_geom_bond_atom_site_label_1
_geom_bond_atom_site_label_2
_geom_bond_distance
_geom_bond_site_symmetry_2
_ccdc_geom_bond_type
Tb0 C9 2.764 . S
Tb0 O10 2.325 . S
Tb0 O13 2.303 . S
Tb0 O17 2.322 . S
Tb0 O18 2.349 . S
Tb0 O21 2.415 . S
Tb0 O22 2.399 . S
Tb1 O11 2.322 . S
Tb1 O12 2.349 . S
Tb1 O14 2.415 . S
Tb1 O15 2.399 . S
Tb1 O16 2.325 . S
Tb1 O19 2.303 . S
Tb1 C30 2.764 . S
C2 O18 1.261 . S
C2 O19 1.257 . S
C3 C6 1.358 . S
C3 C7 1.332 . S
C3 C9 1.504 . S
C4 C5 1.373 . S
C4 C8 1.308 . S
C5 C4 1.373 . S
C5 C6 1.429 . S
C5 H32 0.932 . S
C6 C3 1.358 . S
C6 C5 1.429 . S
C6 H33 0.930 . S
C7 C3 1.332 . S
C7 C8 1.394 . S
C7 H34 0.932 . S
C8 C4 1.308 . S
C8 C7 1.394 . S
C8 H35 0.929 . S
C9 Tb0 2.764 . S
C9 C3 1.504 . S
C9 O21 1.239 . S
C9 O22 1.263 . S
O10 Tb0 2.325 . S
O10 C20 1.236 . S
O11 Tb1 2.322 . S
O11 C20 1.257 . S
O12 Tb1 2.349 . S
O12 C23 1.261 . S
O13 Tb0 2.303 . S
O13 C23 1.257 . S
O14 Tb1 2.415 . S
O14 C30 1.239 . S
O15 Tb1 2.399 . S
O15 C30 1.263 . S
O16 Tb1 2.325 . S
O16 C31 1.236 . S
O17 Tb0 2.322 . S
O17 C31 1.257 . S
O18 Tb0 2.349 . S
O18 C2 1.261 . S
O19 Tb1 2.303 . S
O19 C2 1.257 . S
C20 O10 1.236 . S
C20 O11 1.257 . S
O21 Tb0 2.415 . S
O21 C9 1.239 . S
O22 Tb0 2.399 . S
O22 C9 1.263 . S
C23 O12 1.261 . S
C23 O13 1.257 . S
C24 C27 1.358 . S
C24 C28 1.332 . S
C24 C30 1.504 1_556 S
C25 C26 1.373 . S
C25 C29 1.308 . S
C26 C25 1.373 . S
C26 C27 1.429 . S
C26 H36 0.932 . S
C27 C24 1.358 . S
C27 C26 1.429 . S
C27 H37 0.930 . S
C28 C24 1.332 . S
C28 C29 1.394 . S
C28 H38 0.932 . S
C29 C25 1.308 . S
C29 C28 1.394 . S
C29 H39 0.929 . S
C30 Tb1 2.764 . S
C30 O14 1.239 . S
C30 O15 1.263 . S
C30 C24 1.504 1_554 S
C31 O16 1.236 . S
C31 O17 1.257 . S
H32 C5 0.932 . S
H33 C6 0.930 . S
H34 C7 0.932 . S
H35 C8 0.929 . S
H36 C26 0.932 . S
H37 C27 0.930 . S
H38 C28 0.932 . S
H39 C29 0.929 . S
Tb40 C49 2.764 . S
Tb40 O50 2.325 . S
Tb40 O53 2.303 . S
Tb40 O57 2.322 . S
Tb40 O58 2.349 . S
Tb40 O61 2.415 . S
Tb40 O62 2.399 . S
Tb41 O51 2.322 . S
Tb41 O52 2.349 . S
Tb41 O54 2.415 . S
Tb41 O55 2.399 . S
Tb41 O56 2.325 . S
Tb41 O59 2.303 . S
Tb41 C70 2.764 . S
C42 O58 1.261 . S
C42 O59 1.257 . S
C43 C46 1.358 . S
C43 C47 1.332 . S
C43 C49 1.504 . S
C44 C45 1.373 . S
C44 C48 1.308 . S
C45 C44 1.373 . S
C45 C46 1.429 . S
C45 H72 0.932 . S
C46 C43 1.358 . S
C46 C45 1.429 . S
C46 H73 0.930 . S
C47 C43 1.332 . S
C47 C48 1.394 . S
C47 H74 0.932 . S
C48 C44 1.308 . S
C48 C47 1.394 . S
C48 H75 0.929 . S
C49 Tb40 2.764 . S
C49 C43 1.504 . S
C49 O61 1.239 . S
C49 O62 1.263 . S
O50 Tb40 2.325 . S
O50 C60 1.236 . S
O51 Tb41 2.322 . S
O51 C60 1.257 . S
O52 Tb41 2.349 . S
O52 C63 1.261 . S
O53 Tb40 2.303 . S
O53 C63 1.257 . S
O54 Tb41 2.415 . S
O54 C70 1.239 . S
O55 Tb41 2.399 . S
O55 C70 1.263 . S
O56 Tb41 2.325 . S
O56 C71 1.236 . S
O57 Tb40 2.322 . S
O57 C71 1.257 . S
O58 Tb40 2.349 . S
O58 C42 1.261 . S
O59 Tb41 2.303 . S
O59 C42 1.257 . S
C60 O50 1.236 . S
C60 O51 1.257 . S
O61 Tb40 2.415 . S
O61 C49 1.239 . S
O62 Tb40 2.399 . S
O62 C49 1.263 . S
C63 O52 1.261 . S
C63 O53 1.257 . S
C64 C67 1.358 . S
C64 C68 1.332 . S
C64 C70 1.504 . S
C65 C66 1.373 . S
C65 C69 1.308 . S
C66 C65 1.373 . S
C66 C67 1.429 . S
C66 H76 0.932 . S
C67 C64 1.358 . S
C67 C66 1.429 . S
C67 H77 0.930 . S
C68 C64 1.332 . S
C68 C69 1.394 . S
C68 H78 0.932 . S
C69 C65 1.308 . S
C69 C68 1.394 . S
C69 H79 0.929 . S
C70 Tb41 2.764 . S
C70 O54 1.239 . S
C70 O55 1.263 . S
C70 C64 1.504 . S
C71 O56 1.236 . S
C71 O57 1.257 . S
H72 C45 0.932 . S
H73 C46 0.930 . S
H74 C47 0.932 . S
H75 C48 0.929 . S
H76 C66 0.932 . S
H77 C67 0.930 . S
H78 C68 0.932 . S
H79 C69 0.929 . S
Tb80 C89 2.764 . S
Tb80 O90 2.325 . S
Tb80 O93 2.303 . S
Tb80 O97 2.322 . S
Tb80 O98 2.349 . S
Tb80 O101 2.415 . S
Tb80 O102 2.399 . S
Tb81 O91 2.322 . S
Tb81 O92 2.349 . S
Tb81 O94 2.415 . S
Tb81 O95 2.399 . S
Tb81 O96 2.325 . S
Tb81 O99 2.303 . S
Tb81 C110 2.764 . S
C82 O98 1.261 . S
C82 O99 1.257 . S
C83 C86 1.358 . S
C83 C87 1.332 . S
C83 C89 1.504 . S
C84 C85 1.373 . S
C84 C88 1.308 . S
C85 C84 1.373 . S
C85 C86 1.429 . S
C85 H112 0.932 . S
C86 C83 1.358 . S
C86 C85 1.429 . S
C86 H113 0.930 . S
C87 C83 1.332 . S
C87 C88 1.394 . S
C87 H114 0.932 . S
C88 C84 1.308 . S
C88 C87 1.394 . S
C88 H115 0.929 . S
C89 Tb80 2.764 . S
C89 C83 1.504 . S
C89 O101 1.239 . S
C89 O102 1.263 . S
O90 Tb80 2.325 . S
O90 C100 1.236 . S
O91 Tb81 2.322 . S
O91 C100 1.257 . S
O92 Tb81 2.349 . S
O92 C103 1.261 . S
O93 Tb80 2.303 . S
O93 C103 1.257 . S
O94 Tb81 2.415 . S
O94 C110 1.239 . S
O95 Tb81 2.399 . S
O95 C110 1.263 . S
O96 Tb81 2.325 . S
O96 C111 1.236 . S
O97 Tb80 2.322 . S
O97 C111 1.257 . S
O98 Tb80 2.349 . S
O98 C82 1.261 . S
O99 Tb81 2.303 . S
O99 C82 1.257 . S
C100 O90 1.236 . S
C100 O91 1.257 . S
O101 Tb80 2.415 . S
O101 C89 1.239 . S
O102 Tb80 2.399 . S
O102 C89 1.263 . S
C103 O92 1.261 . S
C103 O93 1.257 . S
C104 C107 1.358 . S
C104 C108 1.332 . S
C104 C110 1.504 . S
C105 C106 1.373 . S
C105 C109 1.308 . S
C106 C105 1.373 . S
C106 C107 1.429 . S
C106 H116 0.932 . S
C107 C104 1.358 . S
C107 C106 1.429 . S
C107 H117 0.930 . S
C108 C104 1.332 . S
C108 C109 1.394 . S
C108 H118 0.932 . S
C109 C105 1.308 . S
C109 C108 1.394 . S
C109 H119 0.929 . S
C110 Tb81 2.764 . S
C110 O94 1.239 . S
C110 O95 1.263 . S
C110 C104 1.504 . S
C111 O96 1.236 . S
C111 O97 1.257 . S
H112 C85 0.932 . S
H113 C86 0.930 . S
H114 C87 0.932 . S
H115 C88 0.929 . S
H116 C106 0.932 . S
H117 C107 0.930 . S
H118 C108 0.932 . S
H119 C109 0.929 . S
Tb120 C129 2.764 . S
Tb120 O130 2.325 . S
Tb120 O133 2.303 . S
Tb120 O137 2.322 . S
Tb120 O138 2.349 . S
Tb120 O141 2.415 . S
Tb120 O142 2.399 . S
Tb121 O131 2.322 . S
Tb121 O132 2.349 . S
Tb121 O134 2.415 . S
Tb121 O135 2.399 . S
Tb121 O136 2.325 . S
Tb121 O139 2.303 . S
Tb121 C150 2.764 . S
C122 O138 1.261 . S
C122 O139 1.257 . S
C123 C126 1.358 . S
C123 C127 1.332 . S
C123 C129 1.504 . S
C124 C125 1.373 . S
C124 C128 1.308 . S
C125 C124 1.373 . S
C125 C126 1.429 . S
C125 H152 0.932 . S
C126 C123 1.358 . S
C126 C125 1.429 . S
C126 H153 0.930 . S
C127 C123 1.332 . S
C127 C128 1.394 . S
C127 H154 0.932 . S
C128 C124 1.308 . S
C128 C127 1.394 . S
C128 H155 0.929 . S
C129 Tb120 2.764 . S
C129 C123 1.504 . S
C129 O141 1.239 . S
C129 O142 1.263 . S
O130 Tb120 2.325 . S
O130 C140 1.236 . S
O131 Tb121 2.322 . S
O131 C140 1.257 . S
O132 Tb121 2.349 . S
O132 C143 1.261 . S
O133 Tb120 2.303 . S
O133 C143 1.257 . S
O134 Tb121 2.415 . S
O134 C150 1.239 . S
O135 Tb121 2.399 . S
O135 C150 1.263 . S
O136 Tb121 2.325 . S
O136 C151 1.236 . S
O137 Tb120 2.322 . S
O137 C151 1.257 . S
O138 Tb120 2.349 . S
O138 C122 1.261 . S
O139 Tb121 2.303 . S
O139 C122 1.257 . S
C140 O130 1.236 . S
C140 O131 1.257 . S
O141 Tb120 2.415 . S
O141 C129 1.239 . S
O142 Tb120 2.399 . S
O142 C129 1.263 . S
C143 O132 1.261 . S
C143 O133 1.257 . S
C144 C147 1.358 . S
C144 C148 1.332 . S
C144 C150 1.504 . S
C145 C146 1.373 . S
C145 C149 1.308 . S
C146 C145 1.373 . S
C146 C147 1.429 . S
C146 H156 0.932 . S
C147 C144 1.358 . S
C147 C146 1.429 . S
C147 H157 0.930 . S
C148 C144 1.332 . S
C148 C149 1.394 . S
C148 H158 0.932 . S
C149 C145 1.308 . S
C149 C148 1.394 . S
C149 H159 0.929 . S
C150 Tb121 2.764 . S
C150 O134 1.239 . S
C150 O135 1.263 . S
C150 C144 1.504 . S
C151 O136 1.236 . S
C151 O137 1.257 . S
H152 C125 0.932 . S
H153 C126 0.930 . S
H154 C127 0.932 . S
H155 C128 0.929 . S
H156 C146 0.932 . S
H157 C147 0.930 . S
H158 C148 0.932 . S
H159 C149 0.929 . S
Tb160 C169 2.764 . S
Tb160 O170 2.325 . S
Tb160 O173 2.303 . S
Tb160 O177 2.322 . S
Tb160 O178 2.349 . S
Tb160 O181 2.415 . S
Tb160 O182 2.399 . S
Tb161 O171 2.322 . S
Tb161 O172 2.349 . S
Tb161 O174 2.415 . S
Tb161 O175 2.399 . S
Tb161 O176 2.325 . S
Tb161 O179 2.303 . S
Tb161 C190 2.764 . S
C162 O178 1.261 . S
C162 O179 1.257 . S
C163 C166 1.358 . S
C163 C167 1.332 . S
C163 C169 1.504 . S
C164 C165 1.373 . S
C164 C168 1.308 . S
C165 C164 1.373 . S
C165 C166 1.429 . S
C165 H192 0.932 . S
C166 C163 1.358 . S
C166 C165 1.429 . S
C166 H193 0.930 . S
C167 C163 1.332 . S
C167 C168 1.394 . S
C167 H194 0.932 . S
C168 C164 1.308 . S
C168 C167 1.394 . S
C168 H195 0.929 . S
C169 Tb160 2.764 . S
C169 C163 1.504 . S
C169 O181 1.239 . S
C169 O182 1.263 . S
O170 Tb160 2.325 . S
O170 C180 1.236 . S
O171 Tb161 2.322 . S
O171 C180 1.257 . S
O172 Tb161 2.349 . S
O172 C183 1.261 . S
O173 Tb160 2.303 . S
O173 C183 1.257 . S
O174 Tb161 2.415 . S
O174 C190 1.239 . S
O175 Tb161 2.399 . S
O175 C190 1.263 . S
O176 Tb161 2.325 . S
O176 C191 1.236 . S
O177 Tb160 2.322 . S
O177 C191 1.257 . S
O178 Tb160 2.349 . S
O178 C162 1.261 . S
O179 Tb161 2.303 . S
O179 C162 1.257 . S
C180 O170 1.236 . S
C180 O171 1.257 . S
O181 Tb160 2.415 . S
O181 C169 1.239 . S
O182 Tb160 2.399 . S
O182 C169 1.263 . S
C183 O172 1.261 . S
C183 O173 1.257 . S
C184 C187 1.358 . S
C184 C188 1.332 . S
C184 C190 1.504 . S
C185 C186 1.373 . S
C185 C189 1.308 . S
C186 C185 1.373 . S
C186 C187 1.429 . S
C186 H196 0.932 . S
C187 C184 1.358 . S
C187 C186 1.429 . S
C187 H197 0.930 . S
C188 C184 1.332 . S
C188 C189 1.394 . S
C188 H198 0.932 . S
C189 C185 1.308 . S
C189 C188 1.394 . S
C189 H199 0.929 . S
C190 Tb161 2.764 . S
C190 O174 1.239 . S
C190 O175 1.263 . S
C190 C184 1.504 . S
C191 O176 1.236 . S
C191 O177 1.257 . S
H192 C165 0.932 . S
H193 C166 0.930 . S
H194 C167 0.932 . S
H195 C168 0.929 . S
H196 C186 0.932 . S
H197 C187 0.930 . S
H198 C188 0.932 . S
H199 C189 0.929 . S
Tb200 C209 2.764 . S
Tb200 O210 2.325 . S
Tb200 O213 2.303 . S
Tb200 O217 2.322 . S
Tb200 O218 2.349 . S
Tb200 O221 2.415 . S
Tb200 O222 2.399 . S
Tb201 O211 2.322 . S
Tb201 O212 2.349 . S
Tb201 O214 2.415 . S
Tb201 O215 2.399 . S
Tb201 O216 2.325 . S
Tb201 O219 2.303 . S
Tb201 C230 2.764 . S
C202 O218 1.261 . S
C202 O219 1.257 . S
C203 C206 1.358 . S
C203 C207 1.332 . S
C203 C209 1.504 . S
C204 C205 1.373 . S
C204 C208 1.308 . S
C205 C204 1.373 . S
C205 C206 1.429 . S
C205 H232 0.932 . S
C206 C203 1.358 . S
C206 C205 1.429 . S
C206 H233 0.930 . S
C207 C203 1.332 . S
C207 C208 1.394 . S
C207 H234 0.932 . S
C208 C204 1.308 . S
C208 C207 1.394 . S
C208 H235 0.929 . S
C209 Tb200 2.764 . S
C209 C203 1.504 . S
C209 O221 1.239 . S
C209 O222 1.263 . S
O210 Tb200 2.325 . S
O210 C220 1.236 . S
O211 Tb201 2.322 . S
O211 C220 1.257 . S
O212 Tb201 2.349 . S
O212 C223 1.261 . S
O213 Tb200 2.303 . S
O213 C223 1.257 . S
O214 Tb201 2.415 . S
O214 C230 1.239 . S
O215 Tb201 2.399 . S
O215 C230 1.263 . S
O216 Tb201 2.325 . S
O216 C231 1.236 . S
O217 Tb200 2.322 . S
O217 C231 1.257 . S
O218 Tb200 2.349 . S
O218 C202 1.261 . S
O219 Tb201 2.303 . S
O219 C202 1.257 . S
C220 O210 1.236 . S
C220 O211 1.257 . S
O221 Tb200 2.415 . S
O221 C209 1.239 . S
O222 Tb200 2.399 . S
O222 C209 1.263 . S
C223 O212 1.261 . S
C223 O213 1.257 . S
C224 C227 1.358 . S
C224 C228 1.332 . S
C224 C230 1.504 . S
C225 C226 1.373 . S
C225 C229 1.308 . S
C226 C225 1.373 . S
C226 C227 1.429 . S
C226 H236 0.932 . S
C227 C224 1.358 . S
C227 C226 1.429 . S
C227 H237 0.930 . S
C228 C224 1.332 . S
C228 C229 1.394 . S
C228 H238 0.932 . S
C229 C225 1.308 . S
C229 C228 1.394 . S
C229 H239 0.929 . S
C230 Tb201 2.764 . S
C230 O214 1.239 . S
C230 O215 1.263 . S
C230 C224 1.504 . S
C231 O216 1.236 . S
C231 O217 1.257 . S
H232 C205 0.932 . S
H233 C206 0.930 . S
H234 C207 0.932 . S
H235 C208 0.929 . S
H236 C226 0.932 . S
H237 C227 0.930 . S
H238 C228 0.932 . S
H239 C229 0.929 . S
C240 C241 1.386 . S
C240 C242 1.383 . S
C240 H256 0.951 . S
C241 C240 1.386 . S
C241 C245 1.383 . S
C242 C240 1.383 . S
C242 C243 1.402 . S
C242 H257 0.951 . S
C243 C242 1.402 . S
C243 C244 1.375 . S
C243 C246 1.481 . S
C244 C243 1.375 . S
C244 C245 1.367 . S
C244 H258 0.951 . S
C245 C241 1.383 . S
C245 C244 1.367 . S
C245 H259 0.950 . S
C246 C243 1.481 . S
C246 C247 1.297 . S
C246 H260 0.950 . S
C247 C246 1.297 . S
C247 C248 1.479 . S
C247 H261 0.950 . S
C248 C247 1.479 . S
C248 C249 1.375 . S
C248 C254 1.404 . S
C249 C248 1.375 . S
C249 C250 1.369 . S
C249 H262 0.950 . S
C250 C249 1.369 . S
C250 C251 1.392 . S
C250 H263 0.951 . S
C251 C250 1.392 . S
C251 C253 1.384 . S
H252 C254 0.949 . S
C253 C251 1.384 . S
C253 C254 1.385 . S
C253 H255 0.950 . S
C254 C248 1.404 . S
C254 H252 0.949 . S
C254 C253 1.385 . S
H255 C253 0.950 . S
H256 C240 0.951 . S
H257 C242 0.951 . S
H258 C244 0.951 . S
H259 C245 0.950 . S
H260 C246 0.950 . S
H261 C247 0.950 . S
H262 C249 0.950 . S
H263 C250 0.951 . S
C264 C265 1.386 . S
C264 C266 1.383 . S
C264 H280 0.951 . S
C265 C264 1.386 . S
C265 C269 1.383 . S
C266 C264 1.383 . S
C266 C267 1.402 . S
C266 H281 0.951 . S
C267 C266 1.402 . S
C267 C268 1.375 . S
C267 C270 1.481 . S
C268 C267 1.375 . S
C268 C269 1.367 . S
C268 H282 0.951 . S
C269 C265 1.383 . S
C269 C268 1.367 . S
C269 H283 0.950 . S
C270 C267 1.481 . S
C270 C271 1.297 . S
C270 H284 0.950 . S
C271 C270 1.297 . S
C271 C272 1.479 . S
C271 H285 0.950 . S
C272 C271 1.479 . S
C272 C273 1.375 . S
C272 C278 1.404 . S
C273 C272 1.375 . S
C273 C274 1.369 . S
C273 H286 0.950 . S
C274 C273 1.369 . S
C274 C275 1.392 . S
C274 H287 0.951 . S
C275 C274 1.392 . S
C275 C277 1.384 . S
H276 C278 0.949 . S
C277 C275 1.384 . S
C277 C278 1.385 . S
C277 H279 0.950 . S
C278 C272 1.404 . S
C278 H276 0.949 . S
C278 C277 1.385 . S
H279 C277 0.950 . S
H280 C264 0.951 . S
H281 C266 0.951 . S
H282 C268 0.951 . S
H283 C269 0.950 . S
H284 C270 0.950 . S
H285 C271 0.950 . S
H286 C273 0.950 . S
H287 C274 0.951 . S
C288 C289 1.386 . S
C288 C290 1.383 . S
C288 H304 0.951 . S
C289 C288 1.386 . S
C289 C293 1.383 . S
C290 C288 1.383 . S
C290 C291 1.402 . S
C290 H305 0.951 . S
C291 C290 1.402 . S
C291 C292 1.375 . S
C291 C294 1.481 . S
C292 C291 1.375 . S
C292 C293 1.367 . S
C292 H306 0.951 . S
C293 C289 1.383 . S
C293 C292 1.367 . S
C293 H307 0.950 . S
C294 C291 1.481 . S
C294 C295 1.297 . S
C294 H308 0.950 . S
C295 C294 1.297 . S
C295 C296 1.479 . S
C295 H309 0.950 . S
C296 C295 1.479 . S
C296 C297 1.375 . S
C296 C302 1.404 . S
C297 C296 1.375 . S
C297 C298 1.369 . S
C297 H310 0.950 . S
C298 C297 1.369 . S
C298 C299 1.392 . S
C298 H311 0.951 . S
C299 C298 1.392 . S
C299 C301 1.384 . S
H300 C302 0.949 . S
C301 C299 1.384 . S
C301 C302 1.385 . S
C301 H303 0.950 . S
C302 C296 1.404 . S
C302 H300 0.949 . S
C302 C301 1.385 . S
H303 C301 0.950 . S
H304 C288 0.951 . S
H305 C290 0.951 . S
H306 C292 0.951 . S
H307 C293 0.950 . S
H308 C294 0.950 . S
H309 C295 0.950 . S
H310 C297 0.950 . S
H311 C298 0.951 . S
C312 C313 1.386 . S
C312 C314 1.383 . S
C312 H328 0.951 . S
C313 C312 1.386 . S
C313 C317 1.383 . S
C314 C312 1.383 . S
C314 C315 1.402 . S
C314 H329 0.951 . S
C315 C314 1.402 . S
C315 C316 1.375 . S
C315 C318 1.481 . S
C316 C315 1.375 . S
C316 C317 1.367 . S
C316 H330 0.951 . S
C317 C313 1.383 . S
C317 C316 1.367 . S
C317 H331 0.950 . S
C318 C315 1.481 . S
C318 C319 1.297 . S
C318 H332 0.950 . S
C319 C318 1.297 . S
C319 C320 1.479 . S
C319 H333 0.950 . S
C320 C319 1.479 . S
C320 C321 1.375 . S
C320 C326 1.404 . S
C321 C320 1.375 . S
C321 C322 1.369 . S
C321 H334 0.950 . S
C322 C321 1.369 . S
C322 C323 1.392 . S
C322 H335 0.951 . S
C323 C322 1.392 . S
C323 C325 1.384 . S
H324 C326 0.949 . S
C325 C323 1.384 . S
C325 C326 1.385 . S
C325 H327 0.950 . S
C326 C320 1.404 . S
C326 H324 0.949 . S
C326 C325 1.385 . S
H327 C325 0.950 . S
H328 C312 0.951 . S
H329 C314 0.951 . S
H330 C316 0.951 . S
H331 C317 0.950 . S
H332 C318 0.950 . S
H333 C319 0.950 . S
H334 C321 0.950 . S
H335 C322 0.951 . S
C336 C337 1.386 . S
C336 C338 1.383 . S
C336 H352 0.951 . S
C337 C336 1.386 . S
C337 C341 1.383 . S
C338 C336 1.383 . S
C338 C339 1.402 . S
C338 H353 0.951 . S
C339 C338 1.402 . S
C339 C340 1.375 . S
C339 C342 1.481 . S
C340 C339 1.375 . S
C340 C341 1.367 . S
C340 H354 0.951 . S
C341 C337 1.383 . S
C341 C340 1.367 . S
C341 H355 0.950 . S
C342 C339 1.481 . S
C342 C343 1.297 . S
C342 H356 0.950 . S
C343 C342 1.297 . S
C343 C344 1.479 . S
C343 H357 0.950 . S
C344 C343 1.479 . S
C344 C345 1.375 . S
C344 C350 1.404 . S
C345 C344 1.375 . S
C345 C346 1.369 . S
C345 H358 0.950 . S
C346 C345 1.369 . S
C346 C347 1.392 . S
C346 H359 0.951 . S
C347 C346 1.392 . S
C347 C349 1.384 . S
H348 C350 0.949 . S
C349 C347 1.384 . S
C349 C350 1.385 . S
C349 H351 0.950 . S
C350 C344 1.404 . S
C350 H348 0.949 . S
C350 C349 1.385 . S
H351 C349 0.950 . S
H352 C336 0.951 . S
H353 C338 0.951 . S
H354 C340 0.951 . S
H355 C341 0.950 . S
H356 C342 0.950 . S
H357 C343 0.950 . S
H358 C345 0.950 . S
H359 C346 0.951 . S
C360 C361 1.386 . S
C360 C362 1.383 . S
C360 H376 0.951 . S
C361 C360 1.386 . S
C361 C365 1.383 . S
C362 C360 1.383 . S
C362 C363 1.402 . S
C362 H377 0.951 . S
C363 C362 1.402 . S
C363 C364 1.375 . S
C363 C366 1.481 . S
C364 C363 1.375 . S
C364 C365 1.367 . S
C364 H378 0.951 . S
C365 C361 1.383 . S
C365 C364 1.367 . S
C365 H379 0.950 . S
C366 C363 1.481 . S
C366 C367 1.297 1_554 S
C366 H380 0.950 . S
C367 C366 1.297 1_556 S
C367 C368 1.479 . S
C367 H381 0.950 . S
C368 C367 1.479 . S
C368 C369 1.375 . S
C368 C374 1.404 . S
C369 C368 1.375 . S
C369 C370 1.369 . S
C369 H382 0.950 . S
C370 C369 1.369 . S
C370 C371 1.392 . S
C370 H383 0.951 . S
C371 C370 1.392 . S
C371 C373 1.384 . S
H372 C374 0.949 . S
C373 C371 1.384 . S
C373 C374 1.385 . S
C373 H375 0.950 . S
C374 C368 1.404 . S
C374 H372 0.949 . S
C374 C373 1.385 . S
H375 C373 0.950 . S
H376 C360 0.951 . S
H377 C362 0.951 . S
H378 C364 0.951 . S
H379 C365 0.950 . S
H380 C366 0.950 . S
H381 C367 0.950 . S
H382 C369 0.950 . S
H383 C370 0.951 . S
C384 C385 1.386 . S
C384 C386 1.383 . S
C384 H400 0.951 . S
C385 C384 1.386 . S
C385 C389 1.383 . S
C386 C384 1.383 . S
C386 C387 1.402 . S
C386 H401 0.951 . S
C387 C386 1.402 . S
C387 C388 1.375 . S
C387 C390 1.481 . S
C388 C387 1.375 . S
C388 C389 1.367 . S
C388 H402 0.951 . S
C389 C385 1.383 . S
C389 C388 1.367 . S
C389 H403 0.950 . S
C390 C387 1.481 . S
C390 C391 1.297 . S
C390 H404 0.950 . S
C391 C390 1.297 . S
C391 C392 1.479 . S
C391 H405 0.950 . S
C392 C391 1.479 . S
C392 C393 1.375 . S
C392 C398 1.404 . S
C393 C392 1.375 . S
C393 C394 1.369 . S
C393 H406 0.950 . S
C394 C393 1.369 . S
C394 C395 1.392 . S
C394 H407 0.951 . S
C395 C394 1.392 . S
C395 C397 1.384 . S
H396 C398 0.949 . S
C397 C395 1.384 . S
C397 C398 1.385 . S
C397 H399 0.950 . S
C398 C392 1.404 . S
C398 H396 0.949 . S
C398 C397 1.385 . S
H399 C397 0.950 . S
H400 C384 0.951 . S
H401 C386 0.951 . S
H402 C388 0.951 . S
H403 C389 0.950 . S
H404 C390 0.950 . S
H405 C391 0.950 . S
H406 C393 0.950 . S
H407 C394 0.951 . S
C408 C409 1.386 1_655 S
C408 C410 1.383 . S
C408 H424 0.951 . S
C409 C408 1.386 1_455 S
C409 C413 1.383 . S
C410 C408 1.383 . S
C410 C411 1.402 . S
C410 H425 0.951 . S
C411 C410 1.402 . S
C411 C412 1.375 1_655 S
C411 C414 1.481 . S
C412 C411 1.375 1_455 S
C412 C413 1.367 . S
C412 H426 0.951 . S
C413 C409 1.383 . S
C413 C412 1.367 . S
C413 H427 0.950 . S
C414 C411 1.481 . S
C414 C415 1.297 . S
C414 H428 0.950 . S
C415 C414 1.297 . S
C415 C416 1.479 . S
C415 H429 0.950 . S
C416 C415 1.479 . S
C416 C417 1.375 . S
C416 C422 1.404 . S
C417 C416 1.375 . S
C417 C418 1.369 . S
C417 H430 0.950 . S
C418 C417 1.369 . S
C418 C419 1.392 . S
C418 H431 0.951 . S
C419 C418 1.392 . S
C419 C421 1.384 . S
H420 C422 0.949 . S
C421 C419 1.384 . S
C421 C422 1.385 . S
C421 H423 0.950 . S
C422 C416 1.404 . S
C422 H420 0.949 . S
C422 C421 1.385 . S
H423 C421 0.950 . S
H424 C408 0.951 . S
H425 C410 0.951 . S
H426 C412 0.951 . S
H427 C413 0.950 . S
H428 C414 0.950 . S
H429 C415 0.950 . S
H430 C417 0.950 . S
H431 C418 0.951 . S
C432 C433 1.386 . S
C432 C434 1.383 . S
C432 H448 0.951 . S
C433 C432 1.386 . S
C433 C437 1.383 . S
C434 C432 1.383 . S
C434 C435 1.402 . S
C434 H449 0.951 . S
C435 C434 1.402 . S
C435 C436 1.375 . S
C435 C438 1.481 . S
C436 C435 1.375 . S
C436 C437 1.367 . S
C436 H450 0.951 . S
C437 C433 1.383 . S
C437 C436 1.367 . S
C437 H451 0.950 . S
C438 C435 1.481 . S
C438 C439 1.297 . S
C438 H452 0.950 . S
C439 C438 1.297 . S
C439 C440 1.479 . S
C439 H453 0.950 . S
C440 C439 1.479 . S
C440 C441 1.375 1_545 S
C440 C446 1.404 . S
C441 C440 1.375 1_565 S
C441 C442 1.369 . S
C441 H454 0.950 . S
C442 C441 1.369 . S
C442 C443 1.392 . S
C442 H455 0.951 . S
C443 C442 1.392 . S
C443 C445 1.384 1_565 S
H444 C446 0.949 . S
C445 C443 1.384 1_545 S
C445 C446 1.385 . S
C445 H447 0.950 . S
C446 C440 1.404 . S
C446 H444 0.949 . S
C446 C445 1.385 . S
H447 C445 0.950 . S
H448 C432 0.951 . S
H449 C434 0.951 . S
H450 C436 0.951 . S
H451 C437 0.950 . S
H452 C438 0.950 . S
H453 C439 0.950 . S
H454 C441 0.950 . S
H455 C442 0.951 . S
C456 C457 1.386 . S
C456 C458 1.383 . S
C456 H472 0.951 . S
C457 C456 1.386 . S
C457 C461 1.383 . S
C458 C456 1.383 . S
C458 C459 1.402 . S
C458 H473 0.951 . S
C459 C458 1.402 . S
C459 C460 1.375 . S
C459 C462 1.481 . S
C460 C459 1.375 . S
C460 C461 1.367 . S
C460 H474 0.951 . S
C461 C457 1.383 . S
C461 C460 1.367 . S
C461 H475 0.950 . S
C462 C459 1.481 . S
C462 C463 1.297 . S
C462 H476 0.950 . S
C463 C462 1.297 . S
C463 C464 1.479 . S
C463 H477 0.950 . S
C464 C463 1.479 . S
C464 C465 1.375 . S
C464 C470 1.404 . S
C465 C464 1.375 . S
C465 C466 1.369 . S
C465 H478 0.950 . S
C466 C465 1.369 . S
C466 C467 1.392 . S
C466 H479 0.951 . S
C467 C466 1.392 . S
C467 C469 1.384 . S
H468 C470 0.949 . S
C469 C467 1.384 . S
C469 C470 1.385 . S
C469 H471 0.950 . S
C470 C464 1.404 . S
C470 H468 0.949 . S
C470 C469 1.385 . S
H471 C469 0.950 . S
H472 C456 0.951 . S
H473 C458 0.951 . S
H474 C460 0.951 . S
H475 C461 0.950 . S
H476 C462 0.950 . S
H477 C463 0.950 . S
H478 C465 0.950 . S
H479 C466 0.951 . S
C480 C481 1.386 . S
C480 C482 1.383 . S
C480 H496 0.951 . S
C481 C480 1.386 . S
C481 C485 1.383 . S
C482 C480 1.383 . S
C482 C483 1.402 . S
C482 H497 0.951 . S
C483 C482 1.402 . S
C483 C484 1.375 . S
C483 C486 1.481 . S
C484 C483 1.375 . S
C484 C485 1.367 . S
C484 H498 0.951 . S
C485 C481 1.383 . S
C485 C484 1.367 . S
C485 H499 0.950 . S
C486 C483 1.481 . S
C486 C487 1.297 . S
C486 H500 0.950 . S
C487 C486 1.297 . S
C487 C488 1.479 . S
C487 H501 0.950 . S
C488 C487 1.479 . S
C488 C489 1.375 1_455 S
C488 C494 1.404 . S
C489 C488 1.375 1_655 S
C489 C490 1.369 . S
C489 H502 0.950 . S
C490 C489 1.369 . S
C490 C491 1.392 . S
C490 H503 0.951 . S
C491 C490 1.392 . S
C491 C493 1.384 1_655 S
H492 C494 0.949 . S
C493 C491 1.384 1_455 S
C493 C494 1.385 . S
C493 H495 0.950 . S
C494 C488 1.404 . S
C494 H492 0.949 . S
C494 C493 1.385 . S
H495 C493 0.950 . S
H496 C480 0.951 . S
H497 C482 0.951 . S
H498 C484 0.951 . S
H499 C485 0.950 . S
H500 C486 0.950 . S
H501 C487 0.950 . S
H502 C489 0.950 . S
H503 C490 0.951 . S
C504 C505 1.386 . S
C504 C506 1.383 . S
C504 H520 0.951 . S
C505 C504 1.386 . S
C505 C509 1.383 . S
C506 C504 1.383 . S
C506 C507 1.402 . S
C506 H521 0.951 . S
C507 C506 1.402 . S
C507 C508 1.375 . S
C507 C510 1.481 . S
C508 C507 1.375 . S
C508 C509 1.367 . S
C508 H522 0.951 . S
C509 C505 1.383 . S
C509 C508 1.367 . S
C509 H523 0.950 . S
C510 C507 1.481 . S
C510 C511 1.297 . S
C510 H524 0.950 . S
C511 C510 1.297 . S
C511 C512 1.479 . S
C511 H525 0.950 . S
C512 C511 1.479 . S
C512 C513 1.375 . S
C512 C518 1.404 . S
C513 C512 1.375 . S
C513 C514 1.369 . S
C513 H526 0.950 . S
C514 C513 1.369 . S
C514 C515 1.392 1_565 S
C514 H527 0.951 . S
C515 C514 1.392 1_545 S
C515 C517 1.384 . S
H516 C518 0.949 1_545 S
C517 C515 1.384 . S
C517 C518 1.385 1_545 S
C517 H519 0.950 . S
C518 C512 1.404 . S
C518 H516 0.949 1_565 S
C518 C517 1.385 1_565 S
H519 C517 0.950 . S
H520 C504 0.951 . S
H521 C506 0.951 . S
H522 C508 0.951 . S
H523 C509 0.950 . S
H524 C510 0.950 . S
H525 C511 0.950 . S
H526 C513 0.950 . S
H527 C514 0.951 . S
C528 C529 1.386 . S
C528 C530 1.383 . S
C528 H544 0.951 . S
C529 C528 1.386 . S
C529 C533 1.383 . S
C530 C528 1.383 . S
C530 C531 1.402 . S
C530 H545 0.951 . S
C531 C530 1.402 . S
C531 C532 1.375 . S
C531 C534 1.481 . S
C532 C531 1.375 . S
C532 C533 1.367 . S
C532 H546 0.951 . S
C533 C529 1.383 . S
C533 C532 1.367 . S
C533 H547 0.950 . S
C534 C531 1.481 . S
C534 C535 1.297 . S
C534 H548 0.950 . S
C535 C534 1.297 . S
C535 C536 1.479 . S
C535 H549 0.950 . S
C536 C535 1.479 . S
C536 C537 1.375 . S
C536 C542 1.404 . S
C537 C536 1.375 . S
C537 C538 1.369 . S
C537 H550 0.950 . S
C538 C537 1.369 . S
C538 C539 1.392 1_556 S
C538 H551 0.947 1_556 S
C539 C538 1.392 1_554 S
C539 C541 1.384 . S
H540 C542 0.949 . S
C541 C539 1.384 . S
C541 C542 1.385 1_554 S
C541 H543 0.950 . S
C542 C536 1.404 . S
C542 H540 0.949 . S
C542 C541 1.385 1_556 S
H543 C541 0.950 . S
H544 C528 0.951 . S
H545 C530 0.951 . S
H546 C532 0.951 . S
H547 C533 0.950 . S
H548 C534 0.950 . S
H549 C535 0.950 . S
H550 C537 0.950 . S
H551 C538 0.947 1_554 S
C552 C553 1.386 . S
C552 C554 1.383 . S
C552 H568 0.951 . S
C553 C552 1.386 . S
C553 C557 1.383 . S
C554 C552 1.383 . S
C554 C555 1.402 . S
C554 H569 0.951 . S
C555 C554 1.402 . S
C555 C556 1.375 . S
C555 C558 1.481 1_655 S
C556 C555 1.375 . S
C556 C557 1.367 . S
C556 H570 0.951 1_655 S
C557 C553 1.383 . S
C557 C556 1.367 . S
C557 H571 0.950 . S
C558 C555 1.481 1_455 S
C558 C559 1.297 . S
C558 H572 0.950 . S
C559 C558 1.297 . S
C559 C560 1.479 . S
C559 H573 0.950 1_455 S
C560 C559 1.479 . S
C560 C561 1.375 . S
C560 C566 1.404 . S
C561 C560 1.375 . S
C561 C562 1.369 . S
C561 H574 0.950 1_455 S
C562 C561 1.369 . S
C562 C563 1.392 . S
C562 H575 0.951 . S
C563 C562 1.392 . S
C563 C565 1.384 . S
H564 C566 0.949 . S
C565 C563 1.384 . S
C565 C566 1.385 . S
C565 H567 0.950 . S
C566 C560 1.404 . S
C566 H564 0.949 . S
C566 C565 1.385 . S
H567 C565 0.950 . S
H568 C552 0.951 . S
H569 C554 0.951 . S
H570 C556 0.951 1_455 S
H571 C557 0.950 . S
H572 C558 0.950 . S
H573 C559 0.950 1_655 S
H574 C561 0.950 1_655 S
H575 C562 0.951 . S
C576 C577 1.386 . S
C576 C578 1.383 . S
C576 H592 0.951 . S
C577 C576 1.386 . S
C577 C581 1.383 . S
C578 C576 1.383 . S
C578 C579 1.402 . S
C578 H593 0.951 . S
C579 C578 1.402 . S
C579 C580 1.375 . S
C579 C582 1.481 . S
C580 C579 1.375 . S
C580 C581 1.367 . S
C580 H594 0.951 . S
C581 C577 1.383 . S
C581 C580 1.367 . S
C581 H595 0.950 . S
C582 C579 1.481 . S
C582 C583 1.297 . S
C582 H596 0.950 . S
C583 C582 1.297 . S
C583 C584 1.479 1_565 S
C583 H597 0.950 . S
C584 C583 1.479 1_545 S
C584 C585 1.375 . S
C584 C590 1.404 1_545 S
C585 C584 1.375 . S
C585 C586 1.369 . S
C585 H598 0.950 . S
C586 C585 1.369 . S
C586 C587 1.392 . S
C586 H599 0.951 . S
C587 C586 1.392 . S
C587 C589 1.384 . S
H588 C590 0.949 . S
C589 C587 1.384 . S
C589 C590 1.385 1_545 S
C589 H591 0.950 . S
C590 C584 1.404 1_565 S
C590 H588 0.949 . S
C590 C589 1.385 1_565 S
H591 C589 0.950 . S
H592 C576 0.951 . S
H593 C578 0.951 . S
H594 C580 0.951 . S
H595 C581 0.950 . S
H596 C582 0.950 . S
H597 C583 0.950 . S
H598 C585 0.950 . S
H599 C586 0.951 . S
C600 C601 1.386 . S
C600 C602 1.383 . S
C600 H616 0.951 . S
C601 C600 1.386 . S
C601 C605 1.383 . S
C602 C600 1.383 . S
C602 C603 1.402 . S
C602 H617 0.951 . S
C603 C602 1.402 . S
C603 C604 1.375 . S
C603 C606 1.481 . S
C604 C603 1.375 . S
C604 C605 1.367 . S
C604 H618 0.951 . S
C605 C601 1.383 . S
C605 C604 1.367 . S
C605 H619 0.950 . S
C606 C603 1.481 . S
C606 C607 1.297 . S
C606 H620 0.950 . S
C607 C606 1.297 . S
C607 C608 1.479 . S
C607 H621 0.950 . S
C608 C607 1.479 . S
C608 C609 1.375 . S
C608 C614 1.404 . S
C609 C608 1.375 . S
C609 C610 1.369 . S
C609 H622 0.950 . S
C610 C609 1.369 . S
C610 C611 1.392 1_556 S
C610 H623 0.951 . S
C611 C610 1.392 1_554 S
C611 C613 1.384 1_554 S
H612 C614 0.949 . S
C613 C611 1.384 1_556 S
C613 C614 1.385 . S
C613 H615 0.950 1_556 S
C614 C608 1.404 . S
C614 H612 0.949 . S
C614 C613 1.385 . S
H615 C613 0.950 1_554 S
H616 C600 0.951 . S
H617 C602 0.951 . S
H618 C604 0.951 . S
H619 C605 0.950 . S
H620 C606 0.950 . S
H621 C607 0.950 . S
H622 C609 0.950 . S
H623 C610 0.951 . S
C624 C625 1.386 . S
C624 C626 1.383 . S
C624 H640 0.951 . S
C625 C624 1.386 . S
C625 C629 1.383 . S
C626 C624 1.383 . S
C626 C627 1.402 . S
C626 H641 0.951 . S
C627 C626 1.402 . S
C627 C628 1.375 1_455 S
C627 C630 1.481 1_455 S
C628 C627 1.375 1_655 S
C628 C629 1.367 1_655 S
C628 H642 0.951 . S
C629 C625 1.383 . S
C629 C628 1.367 1_455 S
C629 H643 0.950 1_455 S
C630 C627 1.481 1_655 S
C630 C631 1.297 1_655 S
C630 H644 0.950 . S
C631 C630 1.297 1_455 S
C631 C632 1.479 1_455 S
C631 H645 0.950 . S
C632 C631 1.479 1_655 S
C632 C633 1.375 1_655 S
C632 C638 1.404 . S
C633 C632 1.375 1_455 S
C633 C634 1.369 1_455 S
C633 H646 0.950 . S
C634 C633 1.369 1_655 S
C634 C635 1.392 . S
C634 H647 0.951 . S
C635 C634 1.392 . S
C635 C637 1.384 . S
H636 C638 0.949 . S
C637 C635 1.384 . S
C637 C638 1.385 . S
C637 H639 0.950 . S
C638 C632 1.404 . S
C638 H636 0.949 . S
C638 C637 1.385 . S
H639 C637 0.950 . S
H640 C624 0.951 . S
H641 C626 0.951 . S
H642 C628 0.951 . S
H643 C629 0.950 1_655 S
H644 C630 0.950 . S
H645 C631 0.950 . S
H646 C633 0.950 . S
H647 C634 0.951 . S
C648 C649 1.386 . S
C648 C650 1.383 . S
C648 H664 0.951 . S
C649 C648 1.386 . S
C649 C653 1.383 . S
C650 C648 1.383 . S
C650 C651 1.402 . S
C650 H665 0.951 1_545 S
C651 C650 1.402 . S
C651 C652 1.375 . S
C651 C654 1.481 . S
C652 C651 1.375 . S
C652 C653 1.367 . S
C652 H666 0.951 . S
C653 C649 1.383 . S
C653 C652 1.367 . S
C653 H667 0.950 . S
C654 C651 1.481 . S
C654 C655 1.297 1_545 S
C654 H668 0.950 . S
C655 C654 1.297 1_565 S
C655 C656 1.479 . S
C655 H669 0.950 . S
C656 C655 1.479 . S
C656 C657 1.375 . S
C656 C662 1.404 . S
C657 C656 1.375 . S
C657 C658 1.369 . S
C657 H670 0.950 . S
C658 C657 1.369 . S
C658 C659 1.392 . S
C658 H671 0.951 . S
C659 C658 1.392 . S
C659 C661 1.384 . S
H660 C662 0.949 1_545 S
C661 C659 1.384 . S
C661 C662 1.385 . S
C661 H663 0.950 . S
C662 C656 1.404 . S
C662 H660 0.949 1_565 S
C662 C661 1.385 . S
H663 C661 0.950 . S
H664 C648 0.951 . S
H665 C650 0.951 1_565 S
H666 C652 0.951 . S
H667 C653 0.950 . S
H668 C654 0.950 . S
H669 C655 0.950 . S
H670 C657 0.950 . S
H671 C658 0.951 . S
C241 C185 1.274 . S
C251 C20 1.247 . S
C265 C220 1.273 . S
C275 C65 1.250 . S
C289 C25 1.249 . S
C299 C100 1.233 . S
C313 C60 1.264 . S
C323 C145 1.219 . S
C337 C105 1.272 . S
C347 C180 1.255 . S
C361 C140 1.274 . S
C371 C225 1.229 . S
C385 C2 1.415 . S
C395 C143 1.423 . S
C409 C162 1.449 . S
C419 C63 1.341 . S
C433 C223 1.328 . S
C443 C82 1.472 . S
C457 C103 1.382 . S
C467 C202 1.403 . S
C481 C23 1.319 . S
C491 C122 1.477 . S
C505 C183 1.372 . S
C515 C42 1.415 . S
C529 C231 1.533 . S
C539 C31 1.517 . S
C553 C44 0.702 . S
C563 C4 0.650 . S
C577 C111 1.513 . S
C587 C71 1.539 . S
C601 C84 0.749 . S
C611 C124 0.740 . S
C625 C191 1.522 . S
C635 C151 1.503 . S
C649 C204 0.719 . S
C659 C164 0.771 . S
